# Generated by pormake.
# Topology fnv, (5)-cn, num edge types: 1
# Building blocks:
#     Node 0, Type 0, BuildingBlock: BEQFEK_clean_sbu_0, # of connection points: 5
#     Node 1, Type 0, BuildingBlock: BEQFEK_clean_sbu_0, # of connection points: 5
#     Node 2, Type 0, BuildingBlock: BEQFEK_clean_sbu_0, # of connection points: 5
#     Node 3, Type 0, BuildingBlock: BEQFEK_clean_sbu_0, # of connection points: 5
#     Node 4, Type 0, BuildingBlock: BEQFEK_clean_sbu_0, # of connection points: 5
#     Node 5, Type 0, BuildingBlock: BEQFEK_clean_sbu_0, # of connection points: 5
#     Edge 6, Type (0, 0), BuildingBlock: XUDNAN_clean_linker_2, # of connection points: 2
#     Edge 7, Type (0, 0), BuildingBlock: XUDNAN_clean_linker_2, # of connection points: 2
#     Edge 8, Type (0, 0), BuildingBlock: XUDNAN_clean_linker_2, # of connection points: 2
#     Edge 9, Type (0, 0), BuildingBlock: XUDNAN_clean_linker_2, # of connection points: 2
#     Edge 10, Type (0, 0), BuildingBlock: XUDNAN_clean_linker_2, # of connection points: 2
#     Edge 11, Type (0, 0), BuildingBlock: XUDNAN_clean_linker_2, # of connection points: 2
#     Edge 12, Type (0, 0), BuildingBlock: XUDNAN_clean_linker_2, # of connection points: 2
#     Edge 13, Type (0, 0), BuildingBlock: XUDNAN_clean_linker_2, # of connection points: 2
#     Edge 14, Type (0, 0), BuildingBlock: XUDNAN_clean_linker_2, # of connection points: 2
#     Edge 15, Type (0, 0), BuildingBlock: XUDNAN_clean_linker_2, # of connection points: 2
#     Edge 16, Type (0, 0), BuildingBlock: XUDNAN_clean_linker_2, # of connection points: 2
#     Edge 17, Type (0, 0), BuildingBlock: XUDNAN_clean_linker_2, # of connection points: 2
#     Edge 18, Type (0, 0), BuildingBlock: XUDNAN_clean_linker_2, # of connection points: 2
#     Edge 19, Type (0, 0), BuildingBlock: XUDNAN_clean_linker_2, # of connection points: 2
#     Edge 20, Type (0, 0), BuildingBlock: XUDNAN_clean_linker_2, # of connection points: 2
# Relax obj value: 0.499
# Max RMSD: 0.269
# Mean RMSD: 0.269
data_MOF--net-fnv--node1-BEQFEK_clean_sbu_0--edge1-XUDNAN_clean_linker_2
_symmetry_space_group_name_H-M    P1
_symmetry_Int_Tables_number       1
_symmetry_cell_setting            triclinic
loop_
_symmetry_equiv_pos_as_xyz
'x, y, z'
_cell_length_a     34.94873
_cell_length_b     35.084748
_cell_length_c     29.513738
_cell_angle_alpha  90.098096
_cell_angle_beta   90.153487
_cell_angle_gamma 120.04833
loop_
_atom_site_label
_atom_site_type_symbol
_atom_site_fract_x
_atom_site_fract_y
_atom_site_fract_z
_atom_type_partial_charge
Co0 Co 0.24739 0.36843 0.948 0.0
Co1 Co 0.26805 0.43114 0.03154 0.0
C2 C 0.25826 0.45759 0.93704 0.0
O3 O 0.24918 0.42058 0.92007 0.0
O4 O 0.26543 0.46515 0.97938 0.0
C5 C 0.20415 0.31595 0.86772 0.0
O6 O 0.19105 0.34424 0.8584 0.0
C7 C 0.27836 0.50172 0.09256 0.0
C8 C 0.28304 0.47691 0.15984 0.0
C9 C 0.28309 0.51192 0.13823 0.0
N10 N 0.27491 0.46212 0.08712 0.0
N11 N 0.27814 0.4476 0.12747 0.0
C12 C 0.28213 0.53113 0.05428 0.0
H13 H 0.30824 0.53381 0.03107 0.0
H14 H 0.25026 0.51633 0.0356 0.0
H15 H 0.29125 0.56473 0.06584 0.0
C16 C 0.17147 0.30998 0.00487 0.0
N17 N 0.20985 0.34772 -0.00137 0.0
N18 N 0.21665 0.37463 0.03265 0.0
C19 C 0.1817 0.3556 0.06075 0.0
C20 C 0.15206 0.31374 0.04425 0.0
C21 C 0.15381 0.27122 0.97348 0.0
H22 H 0.18094 0.26544 0.96299 0.0
H23 H 0.14004 0.2782 0.94275 0.0
H24 H 0.12756 0.24095 0.98985 0.0
O25 O 0.30881 0.38597 0.96351 0.0
O26 O 0.32306 0.42872 0.0239 0.0
H27 H 0.18906 0.37591 0.13006 0.0
H28 H 0.13804 0.36602 0.10444 0.0
C29 C 0.17386 0.37948 0.09849 0.0
H30 H 0.18904 0.41495 0.09041 0.0
H31 H 0.27693 0.41763 0.13291 0.0
O32 O 0.22764 0.32142 0.90269 0.0
C33 C 0.33522 0.41065 -0.00575 0.0
Co34 Co 0.86404 0.25319 0.28582 0.0
Co35 Co 0.79829 0.26327 0.34992 0.0
C36 C 0.80018 0.27977 0.25115 0.0
O37 O 0.83109 0.27114 0.24511 0.0
O38 O 0.78298 0.27627 0.28995 0.0
C39 C 0.88572 0.21724 0.21049 0.0
O40 O 0.84494 0.20442 0.1979 0.0
C41 C 0.72753 0.2741 0.39057 0.0
C42 C 0.73293 0.26033 0.46262 0.0
C43 C 0.70903 0.27107 0.43293 0.0
N44 N 0.75998 0.26434 0.39499 0.0
N45 N 0.7636 0.25702 0.43826 0.0
C46 C 0.71838 0.29101 0.34774 0.0
H47 H 0.75002 0.31505 0.33169 0.0
H48 H 0.69992 0.26318 0.32386 0.0
H49 H 0.69917 0.3078 0.35414 0.0
C50 C 0.82185 0.16535 0.32883 0.0
N51 N 0.82635 0.2055 0.32323 0.0
N52 N 0.79749 0.20894 0.34894 0.0
C53 C 0.77299 0.17063 0.37086 0.0
C54 C 0.78797 0.14211 0.35922 0.0
C55 C 0.85089 0.15049 0.30729 0.0
H56 H 0.88575 0.17766 0.30791 0.0
H57 H 0.84066 0.14154 0.27144 0.0
H58 H 0.84834 0.12138 0.32487 0.0
O59 O 0.90433 0.30669 0.32033 0.0
O60 O 0.85707 0.31273 0.36568 0.0
H61 H 0.74596 0.17056 0.43573 0.0
H62 H 0.71037 0.12432 0.40061 0.0
C63 C 0.73427 0.16026 0.40047 0.0
H64 H 0.71727 0.17787 0.38846 0.0
H65 H 0.78712 0.24988 0.45115 0.0
O66 O 0.90019 0.23778 0.24773 0.0
C67 C 0.89604 0.32692 0.35111 0.0
Co68 Co 0.60023 0.8736 0.6428 0.0
Co69 Co 0.55481 0.83087 0.73412 0.0
C70 C 0.5139 0.79464 0.64149 0.0
O71 O 0.54694 0.82217 0.61858 0.0
O72 O 0.51426 0.7964 0.68446 0.0
C73 C 0.63883 0.88977 0.55348 0.0
O74 O 0.61105 0.84792 0.54537 0.0
C75 C 0.50333 0.75236 0.78443 0.0
C76 C 0.47683 0.77539 0.83913 0.0
C77 C 0.47058 0.73757 0.81734 0.0
N78 N 0.52627 0.79654 0.7857 0.0
N79 N 0.51098 0.81018 0.81909 0.0
C80 C 0.51298 0.72572 0.75149 0.0
H81 H 0.54752 0.74486 0.73936 0.0
H82 H 0.50717 0.69462 0.76739 0.0
H83 H 0.49145 0.71759 0.72133 0.0
C84 C 0.66833 0.85603 0.68105 0.0
N85 N 0.63052 0.85719 0.68476 0.0
N86 N 0.61208 0.84038 0.72402 0.0
C87 C 0.638 0.82885 0.74692 0.0
C88 C 0.6742 0.83785 0.72025 0.0
C89 C 0.69502 0.86687 0.63858 0.0
H90 H 0.70699 0.90169 0.62941 0.0
H91 H 0.67369 0.84579 0.61053 0.0
H92 H 0.72374 0.86181 0.64247 0.0
O93 O 0.58085 0.91321 0.67001 0.0
O94 O 0.55474 0.88642 0.7383 0.0
H95 H 0.60777 0.81865 0.81255 0.0
H96 H 0.65862 0.81659 0.81139 0.0
C97 C 0.62763 0.80789 0.79277 0.0
H98 H 0.60854 0.77157 0.78907 0.0
H99 H 0.521 0.84315 0.82545 0.0
O100 O 0.63931 0.90591 0.5922 0.0
C101 C 0.56423 0.91522 0.70771 0.0
Co102 Co 0.74753 0.61885 0.93743 0.0
Co103 Co 0.72762 0.57474 0.03096 0.0
C104 C 0.73354 0.53332 0.94034 0.0
O105 O 0.75269 0.56863 0.91754 0.0
O106 O 0.72187 0.53358 0.98109 0.0
C107 C 0.78408 0.66713 0.85305 0.0
O108 O 0.81349 0.65431 0.85311 0.0
C109 C 0.7596 0.53118 0.0879 0.0
C110 C 0.71268 0.5066 0.14494 0.0
C111 C 0.74827 0.50482 0.12629 0.0
N112 N 0.73189 0.54702 0.08411 0.0
N113 N 0.70428 0.5329 0.11861 0.0
C114 C 0.79341 0.53867 0.05256 0.0
H115 H 0.78932 0.50678 0.04074 0.0
H116 H 0.79118 0.5573 0.02347 0.0
H117 H 0.82704 0.55896 0.06699 0.0
C118 C 0.82805 0.68572 0.98705 0.0
N119 N 0.78729 0.64988 0.98518 0.0
N120 N 0.77705 0.63179 0.0255 0.0
C121 C 0.8101 0.65636 0.05453 0.0
C122 C 0.84388 0.69089 0.03107 0.0
C123 C 0.85393 0.71086 0.94661 0.0
H124 H 0.83374 0.72046 0.9257 0.0
H125 H 0.86219 0.68955 0.92596 0.0
H126 H 0.88504 0.74088 0.95681 0.0
O127 O 0.68368 0.59297 0.95509 0.0
O128 O 0.67242 0.57537 0.028 0.0
H129 H 0.77852 0.62716 0.11766 0.0
H130 H 0.83367 0.67435 0.12303 0.0
C131 C 0.8121 0.64438 0.10277 0.0
H132 H 0.82648 0.62253 0.10425 0.0
H133 H 0.6783 0.53917 0.12277 0.0
O134 O 0.7564 0.65657 0.88508 0.0
C135 C 0.6581 0.57859 0.98937 0.0
Co136 Co 0.1293 0.72189 0.28569 0.0
Co137 Co 0.17681 0.71675 0.37356 0.0
C138 C 0.20995 0.71313 0.28128 0.0
O139 O 0.17917 0.7161 0.2613 0.0
O140 O 0.21295 0.71388 0.32425 0.0
C141 C 0.08839 0.71535 0.19905 0.0
O142 O 0.09271 0.68061 0.19271 0.0
C143 C 0.23722 0.71254 0.43939 0.0
C144 C 0.20806 0.716 0.50457 0.0
C145 C 0.24238 0.71237 0.48588 0.0
N146 N 0.20195 0.71704 0.43082 0.0
N147 N 0.18433 0.71856 0.4699 0.0
C148 C 0.26236 0.70388 0.40378 0.0
H149 H 0.28319 0.73474 0.38482 0.0
H150 H 0.28359 0.69183 0.41842 0.0
H151 H 0.23889 0.67853 0.37981 0.0
C152 C 0.14672 0.80487 0.33091 0.0
N153 N 0.14837 0.76729 0.33 0.0
N154 N 0.17007 0.76607 0.36591 0.0
C155 C 0.18414 0.80327 0.39008 0.0
C156 C 0.16918 0.8288 0.36911 0.0
C157 C 0.12353 0.81709 0.29615 0.0
H158 H 0.09012 0.78856 0.2896 0.0
H159 H 0.14239 0.82549 0.26401 0.0
H160 H 0.12024 0.84551 0.30735 0.0
O161 O 0.08515 0.66343 0.3102 0.0
O162 O 0.11938 0.66256 0.37336 0.0
H163 H 0.19673 0.80426 0.46113 0.0
H164 H 0.23659 0.85285 0.43168 0.0
C165 C 0.21571 0.8165 0.42924 0.0
H166 H 0.23755 0.80225 0.42544 0.0
H167 H 0.15584 0.72093 0.47286 0.0
O168 O 0.10201 0.73694 0.23576 0.0
C169 C 0.08648 0.64471 0.34661 0.0
Co170 Co 0.37079 0.11713 0.62073 0.0
Co171 Co 0.43066 0.18118 0.69752 0.0
C172 C 0.45337 0.20147 0.59979 0.0
O173 O 0.41868 0.16645 0.58743 0.0
O174 O 0.4624 0.21118 0.6415 0.0
C175 C 0.31988 0.09355 0.53888 0.0
O176 O 0.344 0.13562 0.52938 0.0
C177 C 0.49537 0.25746 0.7496 0.0
C178 C 0.48638 0.2294 0.81832 0.0
C179 C 0.51316 0.26658 0.79302 0.0
N180 N 0.46052 0.21637 0.74902 0.0
N181 N 0.45497 0.19996 0.79031 0.0
C182 C 0.51019 0.28748 0.70953 0.0
H183 H 0.48131 0.28081 0.68815 0.0
H184 H 0.52747 0.32251 0.72036 0.0
H185 H 0.53313 0.28141 0.68899 0.0
C186 C 0.3043 0.13212 0.66688 0.0
N187 N 0.34533 0.13801 0.66337 0.0
N188 N 0.37073 0.16583 0.6949 0.0
C189 C 0.34683 0.17874 0.71938 0.0
C190 C 0.30387 0.15756 0.70256 0.0
C191 C 0.26642 0.10291 0.63652 0.0
H192 H 0.265 0.07083 0.63214 0.0
H193 H 0.2716 0.11857 0.60276 0.0
H194 H 0.23452 0.09724 0.65046 0.0
O195 O 0.39557 0.08285 0.64965 0.0
O196 O 0.43544 0.12835 0.70518 0.0
H197 H 0.36945 0.19865 0.78725 0.0
H198 H 0.34457 0.22795 0.76209 0.0
C199 C 0.36589 0.21348 0.75549 0.0
H200 H 0.39914 0.24007 0.74524 0.0
H201 H 0.43094 0.16793 0.79889 0.0
O202 O 0.32596 0.07904 0.57604 0.0
C203 C 0.42098 0.09221 0.68393 0.0
H204 H 0.59197 0.56513 0.0491 0.0
H205 H 0.6158 0.53616 0.91238 0.0
H206 H 0.53627 0.48453 0.9023 0.0
H207 H 0.50564 0.45764 0.07774 0.0
H208 H 0.4726 0.4757 0.10763 0.0
H209 H 0.53174 0.51083 0.10507 0.0
H210 H 0.52255 0.5737 0.07057 0.0
H211 H 0.46343 0.53915 0.07414 0.0
H212 H 0.48879 0.56296 0.02062 0.0
H213 H 0.45573 0.43277 0.90829 0.0
H214 H 0.37595 0.39516 0.92357 0.0
H215 H 0.40236 0.46077 0.05447 0.0
C216 C 0.58022 0.5485 0.01682 0.0
C217 C 0.60997 0.55485 0.98145 0.0
C218 C 0.59353 0.53239 0.9397 0.0
C219 C 0.54848 0.5025 0.93381 0.0
C220 C 0.52017 0.49604 0.96969 0.0
C221 C 0.53504 0.51925 0.00989 0.0
C222 C 0.49699 0.5076 0.04201 0.0
C223 C 0.50207 0.4867 0.0857 0.0
C224 C 0.49268 0.54827 0.05243 0.0
C225 C 0.45859 0.47417 0.01352 0.0
C226 C 0.47296 0.46738 0.97236 0.0
C227 C 0.44391 0.43803 0.94023 0.0
C228 C 0.39861 0.41654 0.94945 0.0
C229 C 0.38275 0.42515 0.99014 0.0
C230 C 0.41337 0.4534 0.0231 0.0
H231 H 0.05101 0.57678 0.28663 0.0
H232 H 0.04923 0.60969 0.42792 0.0
H233 H 0.00251 0.53053 0.44601 0.0
H234 H 0.93934 0.48156 0.28009 0.0
H235 H 0.95626 0.45136 0.24378 0.0
H236 H 0.98529 0.5106 0.24208 0.0
H237 H 0.05877 0.51154 0.25812 0.0
H238 H 0.02975 0.45233 0.26115 0.0
H239 H 0.0636 0.48473 0.30808 0.0
H240 H 0.9557 0.44783 0.44811 0.0
H241 H 0.91142 0.36749 0.43365 0.0
H242 H 0.95179 0.38923 0.29292 0.0
C243 C 0.03958 0.56726 0.32107 0.0
C244 C 0.05256 0.599 0.3558 0.0
C245 C 0.03873 0.58557 0.40086 0.0
C246 C 0.01254 0.54082 0.41143 0.0
C247 C 0.00145 0.51013 0.37665 0.0
C248 C 0.01449 0.52275 0.33238 0.0
C249 C 0.0003 0.48326 0.30178 0.0
C250 C 0.96839 0.4816 0.26477 0.0
C251 C 0.04051 0.48298 0.28108 0.0
C252 C 0.977 0.44647 0.33568 0.0
C253 C 0.97767 0.46258 0.37862 0.0
C254 C 0.95551 0.43475 0.41481 0.0
C255 C 0.9308 0.3893 0.40647 0.0
C256 C 0.92945 0.37237 0.3626 0.0
C257 C 0.95374 0.40127 0.32717 0.0
H258 H 0.5367 0.94992 0.64148 0.0
H259 H 0.5548 0.95006 0.78699 0.0
H260 H 0.51861 -0.00529 0.79698 0.0
H261 H 0.55168 0.06043 0.63164 0.0
H262 H 0.50913 0.04356 0.58904 0.0
H263 H 0.54045 0.0157 0.59363 0.0
H264 H 0.46739 0.94131 0.60179 0.0
H265 H 0.43587 0.96903 0.59824 0.0
H266 H 0.42937 0.93473 0.64634 0.0
H267 H 0.47943 0.03802 0.79089 0.0
H268 H 0.44063 0.07797 0.7692 0.0
H269 H 0.44267 0.04377 0.62829 0.0
C270 C 0.53415 0.96039 0.67534 0.0
C271 C 0.54917 0.94731 0.71347 0.0
C272 C 0.54391 0.96028 0.75737 0.0
C273 C 0.52328 0.98542 0.76334 0.0
C274 C 0.50759 -0.00339 0.7251 0.0
C275 C 0.51282 0.98459 0.68196 0.0
C276 C 0.49081 -0.00138 0.64674 0.0
C277 C 0.52506 0.03154 0.6133 0.0
C278 C 0.45366 0.95853 0.62183 0.0
C279 C 0.47239 0.02049 0.67681 0.0
C280 C 0.48273 0.01927 0.72185 0.0
C281 C 0.47085 0.03892 0.75581 0.0
C282 C 0.44871 0.06131 0.74323 0.0
C283 C 0.4381 0.06317 0.69725 0.0
C284 C 0.44941 0.04183 0.6638 0.0
H285 H 0.18992 0.66896 0.20085 0.0
H286 H 0.29113 0.72572 0.30499 0.0
H287 H 0.32647 0.68572 0.27386 0.0
H288 H 0.17346 0.56678 0.20684 0.0
H289 H 0.16486 0.55336 0.14733 0.0
H290 H 0.15324 0.59395 0.17019 0.0
H291 H 0.20655 0.65177 0.11269 0.0
H292 H 0.21768 0.61102 0.08872 0.0
H293 H 0.26267 0.66285 0.10852 0.0
H294 H 0.34135 0.62837 0.24182 0.0
H295 H 0.33964 0.56398 0.20484 0.0
H296 H 0.2289 0.54505 0.12198 0.0
C297 C 0.22073 0.67469 0.21571 0.0
C298 C 0.23782 0.70038 0.25533 0.0
C299 C 0.27743 0.70599 0.27473 0.0
C300 C 0.29779 0.68349 0.2572 0.0
C301 C 0.27841 0.656 0.21991 0.0
C302 C 0.2413 0.65227 0.19872 0.0
C303 C 0.22399 0.61683 0.16257 0.0
C304 C 0.17608 0.58062 0.17236 0.0
C305 C 0.22798 0.63682 0.11532 0.0
C306 C 0.25588 0.5999 0.16821 0.0
C307 C 0.28734 0.62315 0.20108 0.0
C308 C 0.31772 0.61074 0.21506 0.0
C309 C 0.3163 0.57403 0.1943 0.0
C310 C 0.28489 0.55056 0.15997 0.0
C311 C 0.25424 0.56354 0.14708 0.0
H312 H 0.54119 0.25842 0.61325 0.0
H313 H 0.44106 0.20035 0.50816 0.0
H314 H 0.49929 0.22792 0.45016 0.0
H315 H 0.62837 0.35578 0.54222 0.0
H316 H 0.67182 0.35024 0.56879 0.0
H317 H 0.62303 0.33843 0.60044 0.0
H318 H 0.6109 0.26114 0.61928 0.0
H319 H 0.6588 0.2721 0.58719 0.0
H320 H 0.60604 0.22465 0.57368 0.0
H321 H 0.56523 0.24214 0.40731 0.0
H322 H 0.63412 0.24635 0.38214 0.0
H323 H 0.69345 0.29817 0.51352 0.0
C324 C 0.53146 0.25357 0.57795 0.0
C325 C 0.48667 0.22747 0.56519 0.0
C326 C 0.47523 0.22041 0.51867 0.0
C327 C 0.50811 0.23615 0.48545 0.0
C328 C 0.55218 0.25929 0.4993 0.0
C329 C 0.56395 0.26878 0.54446 0.0
C330 C 0.61314 0.28755 0.55121 0.0
C331 C 0.63541 0.33588 0.56656 0.0
C332 C 0.62272 0.25967 0.58478 0.0
C333 C 0.62653 0.28377 0.50346 0.0
C334 C 0.59114 0.2685 0.47379 0.0
C335 C 0.59376 0.25613 0.42954 0.0
C336 C 0.6333 0.25896 0.41537 0.0
C337 C 0.66986 0.2744 0.44527 0.0
C338 C 0.66646 0.28757 0.48955 0.0
H339 H 0.42275 0.70473 0.89444 0.0
H340 H 0.42698 0.67054 0.75384 0.0
H341 H 0.3632 0.59728 0.76629 0.0
H342 H 0.39487 0.60462 0.94241 0.0
H343 H 0.35764 0.60576 0.98383 0.0
H344 H 0.40189 0.65644 0.96206 0.0
H345 H 0.34465 0.67929 0.93795 0.0
H346 H 0.3002 0.62784 0.95885 0.0
H347 H 0.29953 0.64378 0.90094 0.0
H348 H 0.30532 0.52431 0.79678 0.0
H349 H 0.26115 0.45861 0.8438 0.0
H350 H 0.2865 0.54289 0.96089 0.0
C351 C 0.4101 0.68199 0.86612 0.0
C352 C 0.43158 0.69308 0.82376 0.0
C353 C 0.41339 0.66249 0.78745 0.0
C354 C 0.3761 0.62088 0.79383 0.0
C355 C 0.35628 0.6108 0.83624 0.0
C356 C 0.37234 0.64071 0.87163 0.0
C357 C 0.34654 0.621 0.91458 0.0
C358 C 0.37705 0.62199 0.95293 0.0
C359 C 0.32122 0.64438 0.9289 0.0
C360 C 0.31519 0.57455 0.89842 0.0
C361 C 0.32078 0.5694 0.85297 0.0
C362 C 0.2998 0.52809 0.83216 0.0
C363 C 0.27457 0.49089 0.85916 0.0
C364 C 0.27078 0.49544 0.90642 0.0
C365 C 0.28887 0.53805 0.92521 0.0
H366 H 0.72827 0.29097 0.24232 0.0
H367 H 0.85561 0.32753 0.18294 0.0
H368 H 0.85446 0.38774 0.14176 0.0
H369 H 0.6838 0.32171 0.13888 0.0
H370 H 0.65501 0.34086 0.17451 0.0
H371 H 0.66228 0.29589 0.19283 0.0
H372 H 0.69841 0.33867 0.26677 0.0
H373 H 0.69315 0.38462 0.24823 0.0
H374 H 0.74668 0.39276 0.26368 0.0
H375 H 0.84914 0.45396 0.12463 0.0
H376 H 0.83022 0.51151 0.11313 0.0
H377 H 0.70174 0.42831 0.17412 0.0
C378 C 0.75497 0.31049 0.21916 0.0
C379 C 0.79209 0.30471 0.21603 0.0
C380 C 0.82663 0.33106 0.18564 0.0
C381 C 0.82651 0.36566 0.16237 0.0
C382 C 0.79098 0.37249 0.1688 0.0
C383 C 0.75494 0.34464 0.19489 0.0
C384 C 0.72202 0.36069 0.19764 0.0
C385 C 0.67818 0.32784 0.17457 0.0
C386 C 0.71467 0.36972 0.24701 0.0
C387 C 0.74633 0.40297 0.17089 0.0
C388 C 0.78619 0.40926 0.15499 0.0
C389 C 0.81686 0.44828 0.13434 0.0
C390 C 0.80547 0.48077 0.12741 0.0
C391 C 0.76312 0.47348 0.13952 0.0
C392 C 0.73382 0.43448 0.16291 0.0
H393 H 0.3302 0.75672 0.4665 0.0
H394 H 0.23475 0.66696 0.56337 0.0
H395 H 0.29538 0.66773 0.60771 0.0
H396 H 0.40843 0.7129 0.47314 0.0
H397 H 0.45576 0.76741 0.46814 0.0
H398 H 0.40441 0.75424 0.44066 0.0
H399 H 0.40454 0.81956 0.48213 0.0
H400 H 0.45578 0.83296 0.50938 0.0
H401 H 0.40867 0.82277 0.54308 0.0
H402 H 0.36583 0.68634 0.64599 0.0
H403 H 0.44064 0.72471 0.67831 0.0
H404 H 0.49074 0.79956 0.55423 0.0
C405 C 0.32194 0.73586 0.49607 0.0
C406 C 0.2779 0.71073 0.51099 0.0
C407 C 0.2684 0.68588 0.55123 0.0
C408 C 0.30249 0.68582 0.57626 0.0
C409 C 0.34567 0.71069 0.56035 0.0
C410 C 0.35546 0.73527 0.52116 0.0
C411 C 0.40479 0.76321 0.51412 0.0
C412 C 0.41919 0.74854 0.47148 0.0
C413 C 0.41926 0.81251 0.5121 0.0
C414 C 0.42134 0.75213 0.55664 0.0
C415 C 0.38672 0.72114 0.58241 0.0
C416 C 0.39332 0.70967 0.62562 0.0
C417 C 0.43612 0.73162 0.64367 0.0
C418 C 0.4718 0.76462 0.61849 0.0
C419 C 0.46443 0.77364 0.57379 0.0
H420 H 0.52894 0.30461 0.87648 0.0
H421 H 0.59152 0.3139 0.74706 0.0
H422 H 0.6596 0.37913 0.77427 0.0
H423 H 0.57358 0.41791 0.89428 0.0
H424 H 0.58072 0.41572 0.95451 0.0
H425 H 0.53831 0.36827 0.92527 0.0
H426 H 0.57101 0.32143 0.95668 0.0
H427 H 0.61399 0.36912 0.98547 0.0
H428 H 0.62824 0.33866 0.94644 0.0
H429 H 0.71767 0.44813 0.81277 0.0
H430 H 0.76037 0.51512 0.85965 0.0
H431 H 0.66219 0.4565 0.96579 0.0
C432 C 0.55713 0.32018 0.85405 0.0
C433 C 0.55449 0.3051 0.80923 0.0
C434 C 0.5921 0.32603 0.78089 0.0
C435 C 0.63124 0.36265 0.79633 0.0
C436 C 0.63249 0.37726 0.84049 0.0
C437 C 0.5965 0.35649 0.86904 0.0
C438 C 0.60546 0.38003 0.91408 0.0
C439 C 0.57259 0.39645 0.92249 0.0
C440 C 0.60463 0.35054 0.95296 0.0
C441 C 0.65172 0.41785 0.906 0.0
C442 C 0.66691 0.41569 0.86345 0.0
C443 C 0.70667 0.44971 0.8466 0.0
C444 C 0.73076 0.48755 0.87342 0.0
C445 C 0.71503 0.49067 0.91661 0.0
C446 C 0.67587 0.45462 0.93353 0.0
H447 H 0.27137 0.14903 0.78691 0.0
H448 H 0.25848 0.1856 0.65031 0.0
H449 H 0.21183 0.21523 0.67816 0.0
H450 H 0.15838 0.12925 0.83147 0.0
H451 H 0.18372 0.15319 0.88521 0.0
H452 H 0.20258 0.12198 0.85312 0.0
H453 H 0.2825 0.18839 0.85589 0.0
H454 H 0.26406 0.2198 0.88738 0.0
H455 H 0.29318 0.24103 0.83481 0.0
H456 H 0.18519 0.25778 0.72218 0.0
H457 H 0.18126 0.30857 0.77764 0.0
H458 H 0.21131 0.24425 0.88593 0.0
C459 C 0.2568 0.16143 0.76285 0.0
C460 C 0.26784 0.16494 0.71674 0.0
C461 C 0.24953 0.18214 0.68579 0.0
C462 C 0.22299 0.19893 0.70135 0.0
C463 C 0.21475 0.1975 0.74774 0.0
C464 C 0.23053 0.17839 0.77799 0.0
C465 C 0.22429 0.18785 0.8265 0.0
C466 C 0.1902 0.14554 0.85048 0.0
C467 C 0.26862 0.21065 0.8526 0.0
C468 C 0.20631 0.21853 0.81889 0.0
C469 C 0.19953 0.22259 0.77338 0.0
C470 C 0.189 0.25386 0.75797 0.0
C471 C 0.18695 0.28267 0.78966 0.0
C472 C 0.19618 0.28031 0.83591 0.0
C473 C 0.2039 0.24657 0.85073 0.0
H474 H 0.96869 0.23321 0.22991 0.0
H475 H 0.87298 0.19462 0.12057 0.0
H476 H 0.92992 0.2026 0.06604 0.0
H477 H 0.05305 0.31628 0.17593 0.0
H478 H 0.09668 0.30845 0.19821 0.0
H479 H 0.04669 0.28978 0.22992 0.0
H480 H 0.03491 0.21074 0.23221 0.0
H481 H 0.08538 0.22932 0.20085 0.0
H482 H 0.03441 0.18365 0.18007 0.0
H483 H -0.00033 0.23102 0.02263 0.0
H484 H 0.07598 0.27315 -0.00589 0.0
H485 H 0.12626 0.28937 0.13139 0.0
C486 C 0.9593 0.22498 0.1947 0.0
C487 C 0.91653 0.2134 0.17938 0.0
C488 C 0.90553 0.20332 0.13305 0.0
C489 C 0.93764 0.20768 0.10185 0.0
C490 C 0.98017 0.22127 0.11778 0.0
C491 C 0.99084 0.22897 0.16329 0.0
C492 C 0.03992 0.24827 0.17116 0.0
C493 C 0.06023 0.29335 0.1952 0.0
C494 C 0.04919 0.21606 0.19763 0.0
C495 C 0.05559 0.25287 0.12278 0.0
C496 C 0.02059 0.23647 0.09249 0.0
C497 C 0.02725 0.24244 0.04592 0.0
C498 C 0.07073 0.2663 0.03001 0.0
C499 C 0.10686 0.28368 0.06061 0.0
C500 C 0.09911 0.27583 0.10736 0.0
H501 H 0.78691 0.12417 0.4479 0.0
H502 H 0.75572 0.06314 0.31517 0.0
H503 H 0.72201 0.98929 0.35095 0.0
H504 H 0.80891 0.04187 0.50508 0.0
H505 H 0.7839 0.04592 0.55685 0.0
H506 H 0.81188 0.09308 0.52028 0.0
H507 H 0.74107 0.09937 0.51663 0.0
H508 H 0.71286 0.05227 0.55284 0.0
H509 H 0.68979 0.05253 0.49822 0.0
H510 H 0.68192 0.9228 0.40216 0.0
H511 H 0.64056 0.87007 0.46342 0.0
H512 H 0.70015 0.97652 0.5617 0.0
C513 C 0.77391 0.09518 0.4265 0.0
C514 C 0.77368 0.09872 0.37911 0.0
C515 C 0.75631 0.06056 0.3517 0.0
C516 C 0.73724 0.01872 0.37172 0.0
C517 C 0.73669 0.01617 0.41894 0.0
C518 C 0.75516 0.05355 0.44587 0.0
C519 C 0.74691 0.04242 0.49552 0.0
C520 C 0.7905 0.05666 0.52092 0.0
C521 C 0.72111 0.06283 0.51702 0.0
C522 C 0.71914 0.99296 0.49242 0.0
C523 C 0.71403 0.97817 0.44816 0.0
C524 C 0.68645 0.93391 0.43701 0.0
C525 C 0.66303 0.90424 0.47198 0.0
C526 C 0.66718 0.91922 0.51729 0.0
C527 C 0.69646 0.96393 0.52747 0.0
H528 H 0.64708 0.75184 0.72761 0.0
H529 H 0.7646 0.88069 0.72669 0.0
H530 H 0.81035 0.84678 0.74546 0.0
H531 H 0.67183 0.7159 0.82236 0.0
H532 H 0.64853 0.65929 0.80481 0.0
H533 H 0.62793 0.6925 0.7809 0.0
H534 H 0.64454 0.67531 0.70014 0.0
H535 H 0.66555 0.64207 0.724 0.0
H536 H 0.69954 0.68679 0.68642 0.0
H537 H 0.84036 0.79993 0.77714 0.0
H538 H 0.85057 0.74651 0.82321 0.0
H539 H 0.7124 0.64973 0.80461 0.0
C540 C 0.68262 0.77266 0.73036 0.0
C541 C 0.7027 0.81855 0.72598 0.0
C542 C 0.74904 0.84526 0.72982 0.0
C543 C 0.7751 0.82624 0.74016 0.0
C544 C 0.75405 0.78063 0.74579 0.0
C545 C 0.70874 0.75426 0.74074 0.0
C546 C 0.69283 0.70739 0.75478 0.0
C547 C 0.65831 0.69298 0.79298 0.0
C548 C 0.67455 0.67605 0.71389 0.0
C549 C 0.73576 0.71187 0.77131 0.0
C550 C 0.77109 0.75389 0.76457 0.0
C551 C 0.81321 0.76667 0.78153 0.0
C552 C 0.81883 0.73624 0.80744 0.0
C553 C 0.78226 0.69425 0.81656 0.0
C554 C 0.74086 0.68153 0.79706 0.0
H555 H 0.89456 0.65377 0.02601 0.0
H556 H 0.89502 0.7716 0.07014 0.0
H557 H 0.9676 0.7977 0.10777 0.0
H558 H 0.92792 0.63395 0.1248 0.0
H559 H 0.96152 0.61255 0.10277 0.0
H560 H 0.91673 0.60879 0.06941 0.0
H561 H 0.97017 0.65019 0.00342 0.0
H562 H 0.01539 0.65353 0.03618 0.0
H563 H 0.01879 0.7029 0.01378 0.0
H564 H 0.03162 0.80374 0.15135 0.0
H565 H 0.08152 0.78962 0.19836 0.0
H566 H 0.03784 0.66606 0.12738 0.0
C567 C 0.91123 0.68604 0.04182 0.0
C568 C 0.89047 0.7115 0.04453 0.0
C569 C 0.91147 0.7525 0.06704 0.0
C570 C 0.9525 0.7674 0.08838 0.0
C571 C 0.9716 0.74069 0.08662 0.0
C572 C 0.95173 0.70095 0.06356 0.0
C573 C 0.97505 0.67517 0.07244 0.0
C574 C 0.94343 0.62999 0.09363 0.0
C575 C -0.00389 0.67017 0.02886 0.0
C576 C 0.00991 0.70555 0.10588 0.0
C577 C 0.008 0.74358 0.11285 0.0
C578 C 0.03407 0.77458 0.14545 0.0
C579 C 0.06215 0.76612 0.17217 0.0
C580 C 0.0636 0.72674 0.16645 0.0
C581 C 0.03798 0.69675 0.13204 0.0
H582 H 0.16042 0.85379 0.45322 0.0
H583 H 0.2026 0.90333 0.31747 0.0
H584 H 0.23315 0.97956 0.34572 0.0
H585 H 0.14153 0.94517 0.49707 0.0
H586 H 0.16474 0.94409 0.55135 0.0
H587 H 0.13476 0.89412 0.51865 0.0
H588 H 0.20235 0.88254 0.52277 0.0
H589 H 0.23264 0.93245 0.55489 0.0
H590 H 0.25525 0.92538 0.5028 0.0
H591 H 0.27174 0.04946 0.39059 0.0
H592 H 0.31672 0.10617 0.44766 0.0
H593 H 0.25319 0.01019 0.55456 0.0
C594 C 0.17468 0.88075 0.42931 0.0
C595 C 0.17886 0.87305 0.38329 0.0
C596 C 0.19829 0.90875 0.35277 0.0
C597 C 0.21577 0.95209 0.36857 0.0
C598 C 0.21329 0.95883 0.41483 0.0
C599 C 0.1929 0.92397 0.44472 0.0
C600 C 0.20117 0.93949 0.49342 0.0
C601 C 0.15797 0.93017 0.51647 0.0
C602 C 0.22424 0.91876 0.51998 0.0
C603 C 0.23152 0.98826 0.48644 0.0
C604 C 0.23708 -0.00094 0.44096 0.0
C605 C 0.26688 0.04157 0.4263 0.0
C606 C 0.29235 0.07353 0.45892 0.0
C607 C 0.28841 0.06238 0.5054 0.0
C608 C 0.25671 0.0196 0.51922 0.0
loop_
_geom_bond_atom_site_label_1
_geom_bond_atom_site_label_2
_geom_bond_distance
_geom_bond_site_symmetry_2
_ccdc_geom_bond_type
Co0 O3 1.970 . S
Co0 N17 1.989 1_556 S
Co0 O25 1.971 . S
Co0 O32 1.920 . S
Co1 O4 1.966 1_554 S
Co1 N10 2.022 . S
Co1 N18 1.993 . S
Co1 O26 1.941 . S
C2 O3 1.258 . S
C2 O4 1.263 . S
O3 Co0 1.970 . S
O3 C2 1.258 . S
O4 Co1 1.966 1_556 S
O4 C2 1.263 . S
C5 O6 1.235 . S
C5 O32 1.289 . S
O6 C5 1.235 . S
C7 C9 1.400 . S
C7 N10 1.351 . S
C7 C12 1.501 . S
C8 C9 1.387 . S
C8 N11 1.341 . S
C9 C7 1.400 . S
C9 C8 1.387 . S
N10 Co1 2.022 . S
N10 C7 1.351 . S
N10 N11 1.365 . S
N11 C8 1.341 . S
N11 N10 1.365 . S
N11 H31 0.862 . S
C12 C7 1.501 . S
C12 H13 0.961 . S
C12 H14 0.961 . S
C12 H15 0.960 . S
H13 C12 0.961 . S
H14 C12 0.961 . S
H15 C12 0.960 . S
C16 N17 1.342 . S
C16 C20 1.401 . S
C16 C21 1.499 1_554 S
N17 Co0 1.989 1_554 S
N17 C16 1.342 . S
N17 N18 1.388 . S
N18 Co1 1.993 . S
N18 N17 1.388 . S
N18 C19 1.346 . S
C19 N18 1.346 . S
C19 C20 1.396 . S
C19 C29 1.510 . S
C20 C16 1.401 . S
C20 C19 1.396 . S
C21 C16 1.499 1_556 S
C21 H22 0.959 . S
C21 H23 0.960 . S
C21 H24 0.961 1_556 S
H22 C21 0.959 . S
H23 C21 0.960 . S
H24 C21 0.961 1_554 S
O25 Co0 1.971 . S
O25 C33 1.251 1_556 S
O26 Co1 1.941 . S
O26 C33 1.266 . S
H27 C29 0.959 . S
H28 C29 0.961 . S
C29 C19 1.510 . S
C29 H27 0.959 . S
C29 H28 0.961 . S
C29 H30 0.960 . S
H30 C29 0.960 . S
H31 N11 0.862 . S
O32 Co0 1.920 . S
O32 C5 1.289 . S
C33 O25 1.251 1_554 S
C33 O26 1.266 . S
Co34 O37 1.970 . S
Co34 N51 1.989 . S
Co34 O59 1.967 . S
Co34 O66 1.920 . S
Co35 O38 1.966 . S
Co35 N44 2.022 . S
Co35 N52 1.993 . S
Co35 O60 1.941 . S
C36 O37 1.258 . S
C36 O38 1.263 . S
O37 Co34 1.970 . S
O37 C36 1.258 . S
O38 Co35 1.966 . S
O38 C36 1.263 . S
C39 O40 1.235 . S
C39 O66 1.289 . S
O40 C39 1.235 . S
C41 C43 1.400 . S
C41 N44 1.351 . S
C41 C46 1.501 . S
C42 C43 1.387 . S
C42 N45 1.341 . S
C43 C41 1.400 . S
C43 C42 1.387 . S
N44 Co35 2.022 . S
N44 C41 1.351 . S
N44 N45 1.365 . S
N45 C42 1.341 . S
N45 N44 1.365 . S
N45 H65 0.862 . S
C46 C41 1.501 . S
C46 H47 0.961 . S
C46 H48 0.961 . S
C46 H49 0.960 . S
H47 C46 0.961 . S
H48 C46 0.961 . S
H49 C46 0.960 . S
C50 N51 1.342 . S
C50 C54 1.401 . S
C50 C55 1.499 . S
N51 Co34 1.989 . S
N51 C50 1.342 . S
N51 N52 1.388 . S
N52 Co35 1.993 . S
N52 N51 1.388 . S
N52 C53 1.346 . S
C53 N52 1.346 . S
C53 C54 1.396 . S
C53 C63 1.510 . S
C54 C50 1.401 . S
C54 C53 1.396 . S
C55 C50 1.499 . S
C55 H56 0.959 . S
C55 H57 0.960 . S
C55 H58 0.961 . S
H56 C55 0.959 . S
H57 C55 0.960 . S
H58 C55 0.961 . S
O59 Co34 1.967 . S
O59 C67 1.258 . S
O60 Co35 1.941 . S
O60 C67 1.266 . S
H61 C63 0.959 . S
H62 C63 0.961 . S
C63 C53 1.510 . S
C63 H61 0.959 . S
C63 H62 0.961 . S
C63 H64 0.960 . S
H64 C63 0.960 . S
H65 N45 0.862 . S
O66 Co34 1.920 . S
O66 C39 1.289 . S
C67 O59 1.258 . S
C67 O60 1.266 . S
Co68 O71 1.970 . S
Co68 N85 1.989 . S
Co68 O93 1.967 . S
Co68 O100 1.920 . S
Co69 O72 1.966 . S
Co69 N78 2.022 . S
Co69 N86 1.993 . S
Co69 O94 1.941 . S
C70 O71 1.258 . S
C70 O72 1.263 . S
O71 Co68 1.970 . S
O71 C70 1.258 . S
O72 Co69 1.966 . S
O72 C70 1.263 . S
C73 O74 1.235 . S
C73 O100 1.289 . S
O74 C73 1.235 . S
C75 C77 1.400 . S
C75 N78 1.351 . S
C75 C80 1.501 . S
C76 C77 1.387 . S
C76 N79 1.341 . S
C77 C75 1.400 . S
C77 C76 1.387 . S
N78 Co69 2.022 . S
N78 C75 1.351 . S
N78 N79 1.365 . S
N79 C76 1.341 . S
N79 N78 1.365 . S
N79 H99 0.862 . S
C80 C75 1.501 . S
C80 H81 0.961 . S
C80 H82 0.961 . S
C80 H83 0.960 . S
H81 C80 0.961 . S
H82 C80 0.961 . S
H83 C80 0.960 . S
C84 N85 1.342 . S
C84 C88 1.401 . S
C84 C89 1.499 . S
N85 Co68 1.989 . S
N85 C84 1.342 . S
N85 N86 1.388 . S
N86 Co69 1.993 . S
N86 N85 1.388 . S
N86 C87 1.346 . S
C87 N86 1.346 . S
C87 C88 1.396 . S
C87 C97 1.510 . S
C88 C84 1.401 . S
C88 C87 1.396 . S
C89 C84 1.499 . S
C89 H90 0.959 . S
C89 H91 0.960 . S
C89 H92 0.961 . S
H90 C89 0.959 . S
H91 C89 0.960 . S
H92 C89 0.961 . S
O93 Co68 1.967 . S
O93 C101 1.258 . S
O94 Co69 1.941 . S
O94 C101 1.266 . S
H95 C97 0.959 . S
H96 C97 0.961 . S
C97 C87 1.510 . S
C97 H95 0.959 . S
C97 H96 0.961 . S
C97 H98 0.960 . S
H98 C97 0.960 . S
H99 N79 0.862 . S
O100 Co68 1.920 . S
O100 C73 1.289 . S
C101 O93 1.258 . S
C101 O94 1.266 . S
Co102 O105 1.970 . S
Co102 N119 1.989 1_556 S
Co102 O127 1.971 . S
Co102 O134 1.920 . S
Co103 O106 1.966 1_554 S
Co103 N112 2.022 . S
Co103 N120 1.993 . S
Co103 O128 1.941 . S
C104 O105 1.258 . S
C104 O106 1.263 . S
O105 Co102 1.970 . S
O105 C104 1.258 . S
O106 Co103 1.966 1_556 S
O106 C104 1.263 . S
C107 O108 1.235 . S
C107 O134 1.289 . S
O108 C107 1.235 . S
C109 C111 1.400 . S
C109 N112 1.351 . S
C109 C114 1.501 . S
C110 C111 1.387 . S
C110 N113 1.341 . S
C111 C109 1.400 . S
C111 C110 1.387 . S
N112 Co103 2.022 . S
N112 C109 1.351 . S
N112 N113 1.365 . S
N113 C110 1.341 . S
N113 N112 1.365 . S
N113 H133 0.862 . S
C114 C109 1.501 . S
C114 H115 0.961 . S
C114 H116 0.961 . S
C114 H117 0.960 . S
H115 C114 0.961 . S
H116 C114 0.961 . S
H117 C114 0.960 . S
C118 N119 1.342 . S
C118 C122 1.401 . S
C118 C123 1.499 1_554 S
N119 Co102 1.989 1_554 S
N119 C118 1.342 . S
N119 N120 1.388 . S
N120 Co103 1.993 . S
N120 N119 1.388 . S
N120 C121 1.346 . S
C121 N120 1.346 . S
C121 C122 1.396 . S
C121 C131 1.510 . S
C122 C118 1.401 . S
C122 C121 1.396 . S
C123 C118 1.499 1_556 S
C123 H124 0.959 . S
C123 H125 0.960 . S
C123 H126 0.961 1_556 S
H124 C123 0.959 . S
H125 C123 0.960 . S
H126 C123 0.961 1_554 S
O127 Co102 1.971 . S
O127 C135 1.251 1_556 S
O128 Co103 1.941 . S
O128 C135 1.266 . S
H129 C131 0.959 . S
H130 C131 0.961 . S
C131 C121 1.510 . S
C131 H129 0.959 . S
C131 H130 0.961 . S
C131 H132 0.960 . S
H132 C131 0.960 . S
H133 N113 0.862 . S
O134 Co102 1.920 . S
O134 C107 1.289 . S
C135 O127 1.251 1_554 S
C135 O128 1.266 . S
Co136 O139 1.970 . S
Co136 N153 1.989 . S
Co136 O161 1.967 . S
Co136 O168 1.920 . S
Co137 O140 1.966 . S
Co137 N146 2.022 . S
Co137 N154 1.993 . S
Co137 O162 1.941 . S
C138 O139 1.258 . S
C138 O140 1.263 . S
O139 Co136 1.970 . S
O139 C138 1.258 . S
O140 Co137 1.966 . S
O140 C138 1.263 . S
C141 O142 1.235 . S
C141 O168 1.289 . S
O142 C141 1.235 . S
C143 C145 1.400 . S
C143 N146 1.351 . S
C143 C148 1.501 . S
C144 C145 1.387 . S
C144 N147 1.341 . S
C145 C143 1.400 . S
C145 C144 1.387 . S
N146 Co137 2.022 . S
N146 C143 1.351 . S
N146 N147 1.365 . S
N147 C144 1.341 . S
N147 N146 1.365 . S
N147 H167 0.862 . S
C148 C143 1.501 . S
C148 H149 0.961 . S
C148 H150 0.961 . S
C148 H151 0.960 . S
H149 C148 0.961 . S
H150 C148 0.961 . S
H151 C148 0.960 . S
C152 N153 1.342 . S
C152 C156 1.401 . S
C152 C157 1.499 . S
N153 Co136 1.989 . S
N153 C152 1.342 . S
N153 N154 1.388 . S
N154 Co137 1.993 . S
N154 N153 1.388 . S
N154 C155 1.346 . S
C155 N154 1.346 . S
C155 C156 1.396 . S
C155 C165 1.510 . S
C156 C152 1.401 . S
C156 C155 1.396 . S
C157 C152 1.499 . S
C157 H158 0.959 . S
C157 H159 0.960 . S
C157 H160 0.961 . S
H158 C157 0.959 . S
H159 C157 0.960 . S
H160 C157 0.961 . S
O161 Co136 1.967 . S
O161 C169 1.258 . S
O162 Co137 1.941 . S
O162 C169 1.266 . S
H163 C165 0.959 . S
H164 C165 0.961 . S
C165 C155 1.510 . S
C165 H163 0.959 . S
C165 H164 0.961 . S
C165 H166 0.960 . S
H166 C165 0.960 . S
H167 N147 0.862 . S
O168 Co136 1.920 . S
O168 C141 1.289 . S
C169 O161 1.258 . S
C169 O162 1.266 . S
Co170 O173 1.970 . S
Co170 N187 1.989 . S
Co170 O195 1.967 . S
Co170 O202 1.920 . S
Co171 O174 1.966 . S
Co171 N180 2.022 . S
Co171 N188 1.993 . S
Co171 O196 1.941 . S
C172 O173 1.258 . S
C172 O174 1.263 . S
O173 Co170 1.970 . S
O173 C172 1.258 . S
O174 Co171 1.966 . S
O174 C172 1.263 . S
C175 O176 1.235 . S
C175 O202 1.289 . S
O176 C175 1.235 . S
C177 C179 1.400 . S
C177 N180 1.351 . S
C177 C182 1.501 . S
C178 C179 1.387 . S
C178 N181 1.341 . S
C179 C177 1.400 . S
C179 C178 1.387 . S
N180 Co171 2.022 . S
N180 C177 1.351 . S
N180 N181 1.365 . S
N181 C178 1.341 . S
N181 N180 1.365 . S
N181 H201 0.862 . S
C182 C177 1.501 . S
C182 H183 0.961 . S
C182 H184 0.961 . S
C182 H185 0.960 . S
H183 C182 0.961 . S
H184 C182 0.961 . S
H185 C182 0.960 . S
C186 N187 1.342 . S
C186 C190 1.401 . S
C186 C191 1.499 . S
N187 Co170 1.989 . S
N187 C186 1.342 . S
N187 N188 1.388 . S
N188 Co171 1.993 . S
N188 N187 1.388 . S
N188 C189 1.346 . S
C189 N188 1.346 . S
C189 C190 1.396 . S
C189 C199 1.510 . S
C190 C186 1.401 . S
C190 C189 1.396 . S
C191 C186 1.499 . S
C191 H192 0.959 . S
C191 H193 0.960 . S
C191 H194 0.961 . S
H192 C191 0.959 . S
H193 C191 0.960 . S
H194 C191 0.961 . S
O195 Co170 1.967 . S
O195 C203 1.258 . S
O196 Co171 1.941 . S
O196 C203 1.266 . S
H197 C199 0.959 . S
H198 C199 0.961 . S
C199 C189 1.510 . S
C199 H197 0.959 . S
C199 H198 0.961 . S
C199 H200 0.960 . S
H200 C199 0.960 . S
H201 N181 0.862 . S
O202 Co170 1.920 . S
O202 C175 1.289 . S
C203 O195 1.258 . S
C203 O196 1.266 . S
H204 C216 0.930 . S
H205 C218 0.930 . S
H206 C219 0.930 . S
H207 C223 0.959 . S
H208 C223 0.959 . S
H209 C223 0.961 . S
H210 C224 0.960 . S
H211 C224 0.961 . S
H212 C224 0.959 . S
H213 C227 0.929 . S
H214 C228 0.931 . S
H215 C230 0.930 . S
C216 H204 0.930 . S
C216 C217 1.399 . S
C216 C221 1.399 . S
C217 C216 1.399 . S
C217 C218 1.376 1_554 S
C218 H205 0.930 . S
C218 C217 1.376 1_556 S
C218 C219 1.388 . S
C219 H206 0.930 . S
C219 C218 1.388 . S
C219 C220 1.390 1_556 S
C220 C219 1.390 1_554 S
C220 C221 1.394 . S
C220 C226 1.465 . S
C221 C216 1.399 . S
C221 C220 1.394 . S
C221 C222 1.516 . S
C222 C221 1.516 . S
C222 C223 1.502 . S
C222 C224 1.561 . S
C222 C225 1.526 . S
C223 H207 0.959 . S
C223 H208 0.959 . S
C223 H209 0.961 . S
C223 C222 1.502 . S
C224 H210 0.960 . S
C224 H211 0.961 . S
C224 H212 0.959 . S
C224 C222 1.561 . S
C225 C222 1.526 . S
C225 C226 1.396 . S
C225 C230 1.390 . S
C226 C220 1.465 . S
C226 C225 1.396 . S
C226 C227 1.399 1_554 S
C227 H213 0.929 . S
C227 C226 1.399 1_556 S
C227 C228 1.385 . S
C228 H214 0.931 . S
C228 C227 1.385 . S
C228 C229 1.389 1_556 S
C229 C228 1.389 1_554 S
C229 C230 1.387 . S
C230 H215 0.930 . S
C230 C225 1.390 . S
C230 C229 1.387 . S
H231 C243 0.930 . S
H232 C245 0.930 . S
H233 C246 0.930 . S
H234 C250 0.959 . S
H235 C250 0.959 . S
H236 C250 0.961 . S
H237 C251 0.960 . S
H238 C251 0.961 1_655 S
H239 C251 0.959 . S
H240 C254 0.929 1_455 S
H241 C255 0.931 . S
H242 C257 0.930 . S
C243 H231 0.930 . S
C243 C244 1.399 . S
C243 C248 1.399 . S
C244 C243 1.399 . S
C244 C245 1.376 . S
C245 H232 0.930 . S
C245 C244 1.376 . S
C245 C246 1.388 . S
C246 H233 0.930 . S
C246 C245 1.388 . S
C246 C247 1.390 . S
C247 C246 1.390 . S
C247 C248 1.394 . S
C247 C253 1.465 . S
C248 C243 1.399 . S
C248 C247 1.394 . S
C248 C249 1.516 1_455 S
C249 C248 1.516 1_655 S
C249 C250 1.502 . S
C249 C251 1.561 1_655 S
C249 C252 1.526 . S
C250 H234 0.959 . S
C250 H235 0.959 . S
C250 H236 0.961 . S
C250 C249 1.502 . S
C251 H237 0.960 . S
C251 H238 0.961 1_455 S
C251 H239 0.959 . S
C251 C249 1.561 1_455 S
C252 C249 1.526 . S
C252 C253 1.394 1_655 S
C252 C257 1.390 . S
C253 C247 1.465 . S
C253 C252 1.394 1_455 S
C253 C254 1.401 1_455 S
C254 H240 0.929 1_655 S
C254 C253 1.401 1_655 S
C254 C255 1.385 . S
C255 H241 0.931 . S
C255 C254 1.385 . S
C255 C256 1.389 . S
C256 C255 1.389 . S
C256 C257 1.387 . S
C257 H242 0.930 . S
C257 C252 1.390 . S
C257 C256 1.387 . S
H258 C270 0.930 . S
H259 C272 0.930 . S
H260 C273 0.930 . S
H261 C277 0.959 . S
H262 C277 0.959 . S
H263 C277 0.961 . S
H264 C278 0.960 . S
H265 C278 0.961 . S
H266 C278 0.959 . S
H267 C281 0.929 1_565 S
H268 C282 0.931 . S
H269 C284 0.930 . S
C270 H258 0.930 . S
C270 C271 1.399 . S
C270 C275 1.399 . S
C271 C270 1.399 . S
C271 C272 1.376 . S
C272 H259 0.930 . S
C272 C271 1.376 . S
C272 C273 1.388 . S
C273 H260 0.930 . S
C273 C272 1.388 . S
C273 C274 1.390 . S
C274 C273 1.390 . S
C274 C275 1.394 . S
C274 C280 1.465 1_565 S
C275 C270 1.399 . S
C275 C274 1.394 . S
C275 C276 1.516 1_565 S
C276 C275 1.516 1_545 S
C276 C277 1.502 . S
C276 C278 1.561 1_545 S
C276 C279 1.526 . S
C277 H261 0.959 . S
C277 H262 0.959 . S
C277 H263 0.961 . S
C277 C276 1.502 . S
C278 H264 0.960 . S
C278 H265 0.961 . S
C278 H266 0.959 . S
C278 C276 1.561 1_565 S
C279 C276 1.526 . S
C279 C280 1.396 . S
C279 C284 1.390 . S
C280 C274 1.465 1_545 S
C280 C279 1.396 . S
C280 C281 1.399 . S
C281 H267 0.929 1_545 S
C281 C280 1.399 . S
C281 C282 1.385 . S
C282 H268 0.931 . S
C282 C281 1.385 . S
C282 C283 1.389 . S
C283 C282 1.389 . S
C283 C284 1.387 . S
C284 H269 0.930 . S
C284 C279 1.390 . S
C284 C283 1.387 . S
H285 C297 0.930 . S
H286 C299 0.930 . S
H287 C300 0.930 . S
H288 C304 0.959 . S
H289 C304 0.959 . S
H290 C304 0.961 . S
H291 C305 0.960 . S
H292 C305 0.961 . S
H293 C305 0.959 . S
H294 C308 0.929 . S
H295 C309 0.931 . S
H296 C311 0.930 . S
C297 H285 0.930 . S
C297 C298 1.399 . S
C297 C302 1.399 . S
C298 C297 1.399 . S
C298 C299 1.376 . S
C299 H286 0.930 . S
C299 C298 1.376 . S
C299 C300 1.388 . S
C300 H287 0.930 . S
C300 C299 1.388 . S
C300 C301 1.390 . S
C301 C300 1.390 . S
C301 C302 1.394 . S
C301 C307 1.465 . S
C302 C297 1.399 . S
C302 C301 1.394 . S
C302 C303 1.516 . S
C303 C302 1.516 . S
C303 C304 1.502 . S
C303 C305 1.561 . S
C303 C306 1.526 . S
C304 H288 0.959 . S
C304 H289 0.959 . S
C304 H290 0.961 . S
C304 C303 1.502 . S
C305 H291 0.960 . S
C305 H292 0.961 . S
C305 H293 0.959 . S
C305 C303 1.561 . S
C306 C303 1.526 . S
C306 C307 1.396 . S
C306 C311 1.390 . S
C307 C301 1.465 . S
C307 C306 1.396 . S
C307 C308 1.399 . S
C308 H294 0.929 . S
C308 C307 1.399 . S
C308 C309 1.385 . S
C309 H295 0.931 . S
C309 C308 1.385 . S
C309 C310 1.389 . S
C310 C309 1.389 . S
C310 C311 1.387 . S
C311 H296 0.930 . S
C311 C306 1.390 . S
C311 C310 1.387 . S
H312 C324 0.930 . S
H313 C326 0.930 . S
H314 C327 0.930 . S
H315 C331 0.959 . S
H316 C331 0.959 . S
H317 C331 0.961 . S
H318 C332 0.960 . S
H319 C332 0.961 . S
H320 C332 0.959 . S
H321 C335 0.929 . S
H322 C336 0.931 . S
H323 C338 0.930 . S
C324 H312 0.930 . S
C324 C325 1.399 . S
C324 C329 1.399 . S
C325 C324 1.399 . S
C325 C326 1.376 . S
C326 H313 0.930 . S
C326 C325 1.376 . S
C326 C327 1.388 . S
C327 H314 0.930 . S
C327 C326 1.388 . S
C327 C328 1.390 . S
C328 C327 1.390 . S
C328 C329 1.394 . S
C328 C334 1.465 . S
C329 C324 1.399 . S
C329 C328 1.394 . S
C329 C330 1.516 . S
C330 C329 1.516 . S
C330 C331 1.502 . S
C330 C332 1.561 . S
C330 C333 1.526 . S
C331 H315 0.959 . S
C331 H316 0.959 . S
C331 H317 0.961 . S
C331 C330 1.502 . S
C332 H318 0.960 . S
C332 H319 0.961 . S
C332 H320 0.959 . S
C332 C330 1.561 . S
C333 C330 1.526 . S
C333 C334 1.396 . S
C333 C338 1.390 . S
C334 C328 1.465 . S
C334 C333 1.396 . S
C334 C335 1.399 . S
C335 H321 0.929 . S
C335 C334 1.399 . S
C335 C336 1.385 . S
C336 H322 0.931 . S
C336 C335 1.385 . S
C336 C337 1.389 . S
C337 C336 1.389 . S
C337 C338 1.387 . S
C338 H323 0.930 . S
C338 C333 1.390 . S
C338 C337 1.387 . S
H339 C351 0.930 . S
H340 C353 0.930 . S
H341 C354 0.930 . S
H342 C358 0.959 . S
H343 C358 0.959 . S
H344 C358 0.961 . S
H345 C359 0.960 . S
H346 C359 0.961 . S
H347 C359 0.959 . S
H348 C362 0.929 . S
H349 C363 0.931 . S
H350 C365 0.930 . S
C351 H339 0.930 . S
C351 C352 1.399 . S
C351 C356 1.399 . S
C352 C351 1.399 . S
C352 C353 1.376 . S
C353 H340 0.930 . S
C353 C352 1.376 . S
C353 C354 1.388 . S
C354 H341 0.930 . S
C354 C353 1.388 . S
C354 C355 1.390 . S
C355 C354 1.390 . S
C355 C356 1.394 . S
C355 C361 1.465 . S
C356 C351 1.399 . S
C356 C355 1.394 . S
C356 C357 1.516 . S
C357 C356 1.516 . S
C357 C358 1.502 . S
C357 C359 1.561 . S
C357 C360 1.526 . S
C358 H342 0.959 . S
C358 H343 0.959 . S
C358 H344 0.961 . S
C358 C357 1.502 . S
C359 H345 0.960 . S
C359 H346 0.961 . S
C359 H347 0.959 . S
C359 C357 1.561 . S
C360 C357 1.526 . S
C360 C361 1.396 . S
C360 C365 1.390 . S
C361 C355 1.465 . S
C361 C360 1.396 . S
C361 C362 1.399 . S
C362 H348 0.929 . S
C362 C361 1.399 . S
C362 C363 1.385 . S
C363 H349 0.931 . S
C363 C362 1.385 . S
C363 C364 1.389 . S
C364 C363 1.389 . S
C364 C365 1.387 . S
C365 H350 0.930 . S
C365 C360 1.390 . S
C365 C364 1.387 . S
H366 C378 0.930 . S
H367 C380 0.930 . S
H368 C381 0.930 . S
H369 C385 0.959 . S
H370 C385 0.959 . S
H371 C385 0.961 . S
H372 C386 0.960 . S
H373 C386 0.961 . S
H374 C386 0.959 . S
H375 C389 0.929 . S
H376 C390 0.931 . S
H377 C392 0.930 . S
C378 H366 0.930 . S
C378 C379 1.399 . S
C378 C383 1.399 . S
C379 C378 1.399 . S
C379 C380 1.376 . S
C380 H367 0.930 . S
C380 C379 1.376 . S
C380 C381 1.388 . S
C381 H368 0.930 . S
C381 C380 1.388 . S
C381 C382 1.390 . S
C382 C381 1.390 . S
C382 C383 1.394 . S
C382 C388 1.465 . S
C383 C378 1.399 . S
C383 C382 1.394 . S
C383 C384 1.516 . S
C384 C383 1.516 . S
C384 C385 1.502 . S
C384 C386 1.561 . S
C384 C387 1.526 . S
C385 H369 0.959 . S
C385 H370 0.959 . S
C385 H371 0.961 . S
C385 C384 1.502 . S
C386 H372 0.960 . S
C386 H373 0.961 . S
C386 H374 0.959 . S
C386 C384 1.561 . S
C387 C384 1.526 . S
C387 C388 1.396 . S
C387 C392 1.390 . S
C388 C382 1.465 . S
C388 C387 1.396 . S
C388 C389 1.399 . S
C389 H375 0.929 . S
C389 C388 1.399 . S
C389 C390 1.385 . S
C390 H376 0.931 . S
C390 C389 1.385 . S
C390 C391 1.389 . S
C391 C390 1.389 . S
C391 C392 1.387 . S
C392 H377 0.930 . S
C392 C387 1.390 . S
C392 C391 1.387 . S
H393 C405 0.930 . S
H394 C407 0.930 . S
H395 C408 0.930 . S
H396 C412 0.959 . S
H397 C412 0.959 . S
H398 C412 0.961 . S
H399 C413 0.960 . S
H400 C413 0.961 . S
H401 C413 0.959 . S
H402 C416 0.929 . S
H403 C417 0.931 . S
H404 C419 0.930 . S
C405 H393 0.930 . S
C405 C406 1.399 . S
C405 C410 1.399 . S
C406 C405 1.399 . S
C406 C407 1.376 . S
C407 H394 0.930 . S
C407 C406 1.376 . S
C407 C408 1.388 . S
C408 H395 0.930 . S
C408 C407 1.388 . S
C408 C409 1.390 . S
C409 C408 1.390 . S
C409 C410 1.394 . S
C409 C415 1.465 . S
C410 C405 1.399 . S
C410 C409 1.394 . S
C410 C411 1.516 . S
C411 C410 1.516 . S
C411 C412 1.502 . S
C411 C413 1.561 . S
C411 C414 1.526 . S
C412 H396 0.959 . S
C412 H397 0.959 . S
C412 H398 0.961 . S
C412 C411 1.502 . S
C413 H399 0.960 . S
C413 H400 0.961 . S
C413 H401 0.959 . S
C413 C411 1.561 . S
C414 C411 1.526 . S
C414 C415 1.396 . S
C414 C419 1.390 . S
C415 C409 1.465 . S
C415 C414 1.396 . S
C415 C416 1.399 . S
C416 H402 0.929 . S
C416 C415 1.399 . S
C416 C417 1.385 . S
C417 H403 0.931 . S
C417 C416 1.385 . S
C417 C418 1.389 . S
C418 C417 1.389 . S
C418 C419 1.387 . S
C419 H404 0.930 . S
C419 C414 1.390 . S
C419 C418 1.387 . S
H420 C432 0.930 . S
H421 C434 0.930 . S
H422 C435 0.930 . S
H423 C439 0.959 . S
H424 C439 0.959 . S
H425 C439 0.961 . S
H426 C440 0.960 . S
H427 C440 0.961 . S
H428 C440 0.959 . S
H429 C443 0.929 . S
H430 C444 0.931 . S
H431 C446 0.930 . S
C432 H420 0.930 . S
C432 C433 1.399 . S
C432 C437 1.399 . S
C433 C432 1.399 . S
C433 C434 1.376 . S
C434 H421 0.930 . S
C434 C433 1.376 . S
C434 C435 1.388 . S
C435 H422 0.930 . S
C435 C434 1.388 . S
C435 C436 1.390 . S
C436 C435 1.390 . S
C436 C437 1.394 . S
C436 C442 1.465 . S
C437 C432 1.399 . S
C437 C436 1.394 . S
C437 C438 1.516 . S
C438 C437 1.516 . S
C438 C439 1.502 . S
C438 C440 1.561 . S
C438 C441 1.526 . S
C439 H423 0.959 . S
C439 H424 0.959 . S
C439 H425 0.961 . S
C439 C438 1.502 . S
C440 H426 0.960 . S
C440 H427 0.961 . S
C440 H428 0.959 . S
C440 C438 1.561 . S
C441 C438 1.526 . S
C441 C442 1.396 . S
C441 C446 1.390 . S
C442 C436 1.465 . S
C442 C441 1.396 . S
C442 C443 1.399 . S
C443 H429 0.929 . S
C443 C442 1.399 . S
C443 C444 1.385 . S
C444 H430 0.931 . S
C444 C443 1.385 . S
C444 C445 1.389 . S
C445 C444 1.389 . S
C445 C446 1.387 . S
C446 H431 0.930 . S
C446 C441 1.390 . S
C446 C445 1.387 . S
H447 C459 0.930 . S
H448 C461 0.930 . S
H449 C462 0.930 . S
H450 C466 0.959 . S
H451 C466 0.959 . S
H452 C466 0.961 . S
H453 C467 0.960 . S
H454 C467 0.961 . S
H455 C467 0.959 . S
H456 C470 0.929 . S
H457 C471 0.931 . S
H458 C473 0.930 . S
C459 H447 0.930 . S
C459 C460 1.399 . S
C459 C464 1.399 . S
C460 C459 1.399 . S
C460 C461 1.376 . S
C461 H448 0.930 . S
C461 C460 1.376 . S
C461 C462 1.388 . S
C462 H449 0.930 . S
C462 C461 1.388 . S
C462 C463 1.390 . S
C463 C462 1.390 . S
C463 C464 1.394 . S
C463 C469 1.465 . S
C464 C459 1.399 . S
C464 C463 1.394 . S
C464 C465 1.516 . S
C465 C464 1.516 . S
C465 C466 1.502 . S
C465 C467 1.561 . S
C465 C468 1.526 . S
C466 H450 0.959 . S
C466 H451 0.959 . S
C466 H452 0.961 . S
C466 C465 1.502 . S
C467 H453 0.960 . S
C467 H454 0.961 . S
C467 H455 0.959 . S
C467 C465 1.561 . S
C468 C465 1.526 . S
C468 C469 1.396 . S
C468 C473 1.390 . S
C469 C463 1.465 . S
C469 C468 1.396 . S
C469 C470 1.399 . S
C470 H456 0.929 . S
C470 C469 1.399 . S
C470 C471 1.385 . S
C471 H457 0.931 . S
C471 C470 1.385 . S
C471 C472 1.389 . S
C472 C471 1.389 . S
C472 C473 1.387 . S
C473 H458 0.930 . S
C473 C468 1.390 . S
C473 C472 1.387 . S
H474 C486 0.930 . S
H475 C488 0.930 . S
H476 C489 0.930 . S
H477 C493 0.959 . S
H478 C493 0.959 . S
H479 C493 0.961 . S
H480 C494 0.960 . S
H481 C494 0.961 1_455 S
H482 C494 0.959 . S
H483 C497 0.929 . S
H484 C498 0.931 . S
H485 C500 0.930 . S
C486 H474 0.930 . S
C486 C487 1.399 . S
C486 C491 1.399 1_655 S
C487 C486 1.399 . S
C487 C488 1.376 . S
C488 H475 0.930 . S
C488 C487 1.376 . S
C488 C489 1.388 1_655 S
C489 H476 0.930 . S
C489 C488 1.388 1_455 S
C489 C490 1.390 . S
C490 C489 1.390 . S
C490 C491 1.394 . S
C490 C496 1.465 . S
C491 C486 1.399 1_455 S
C491 C490 1.394 . S
C491 C492 1.516 . S
C492 C491 1.516 . S
C492 C493 1.502 . S
C492 C494 1.561 1_455 S
C492 C495 1.526 . S
C493 H477 0.959 . S
C493 H478 0.959 . S
C493 H479 0.961 . S
C493 C492 1.502 . S
C494 H480 0.960 . S
C494 H481 0.961 1_655 S
C494 H482 0.959 . S
C494 C492 1.561 1_655 S
C495 C492 1.526 . S
C495 C496 1.396 . S
C495 C500 1.390 . S
C496 C490 1.465 . S
C496 C495 1.396 . S
C496 C497 1.399 . S
C497 H483 0.929 . S
C497 C496 1.399 . S
C497 C498 1.385 . S
C498 H484 0.931 . S
C498 C497 1.385 . S
C498 C499 1.389 . S
C499 C498 1.389 . S
C499 C500 1.387 . S
C500 H485 0.930 . S
C500 C495 1.390 . S
C500 C499 1.387 . S
H501 C513 0.930 . S
H502 C515 0.930 . S
H503 C516 0.930 . S
H504 C520 0.959 . S
H505 C520 0.959 . S
H506 C520 0.961 . S
H507 C521 0.960 . S
H508 C521 0.961 . S
H509 C521 0.959 . S
H510 C524 0.929 . S
H511 C525 0.931 . S
H512 C527 0.936 . S
C513 H501 0.930 . S
C513 C514 1.399 . S
C513 C518 1.399 . S
C514 C513 1.399 . S
C514 C515 1.376 . S
C515 H502 0.930 . S
C515 C514 1.376 . S
C515 C516 1.388 . S
C516 H503 0.930 . S
C516 C515 1.388 . S
C516 C517 1.390 . S
C517 C516 1.390 . S
C517 C518 1.394 . S
C517 C523 1.465 . S
C518 C513 1.399 . S
C518 C517 1.394 . S
C518 C519 1.516 . S
C519 C518 1.516 . S
C519 C520 1.502 . S
C519 C521 1.561 . S
C519 C522 1.526 . S
C520 H504 0.959 . S
C520 H505 0.959 . S
C520 H506 0.961 . S
C520 C519 1.502 . S
C521 H507 0.960 . S
C521 H508 0.961 . S
C521 H509 0.959 . S
C521 C519 1.561 . S
C522 C519 1.526 . S
C522 C523 1.396 . S
C522 C527 1.395 . S
C523 C517 1.465 . S
C523 C522 1.396 . S
C523 C524 1.399 1_545 S
C524 H510 0.929 . S
C524 C523 1.399 1_565 S
C524 C525 1.385 . S
C525 H511 0.931 . S
C525 C524 1.385 . S
C525 C526 1.389 . S
C526 C525 1.389 . S
C526 C527 1.375 1_565 S
C527 H512 0.936 . S
C527 C522 1.395 . S
C527 C526 1.375 1_545 S
H528 C540 0.930 . S
H529 C542 0.930 . S
H530 C543 0.930 . S
H531 C547 0.959 . S
H532 C547 0.959 . S
H533 C547 0.961 . S
H534 C548 0.960 . S
H535 C548 0.961 . S
H536 C548 0.959 . S
H537 C551 0.929 . S
H538 C552 0.931 . S
H539 C554 0.930 . S
C540 H528 0.930 . S
C540 C541 1.399 . S
C540 C545 1.399 . S
C541 C540 1.399 . S
C541 C542 1.376 . S
C542 H529 0.930 . S
C542 C541 1.376 . S
C542 C543 1.388 . S
C543 H530 0.930 . S
C543 C542 1.388 . S
C543 C544 1.390 . S
C544 C543 1.390 . S
C544 C545 1.394 . S
C544 C550 1.465 . S
C545 C540 1.399 . S
C545 C544 1.394 . S
C545 C546 1.516 . S
C546 C545 1.516 . S
C546 C547 1.502 . S
C546 C548 1.561 . S
C546 C549 1.526 . S
C547 H531 0.959 . S
C547 H532 0.959 . S
C547 H533 0.961 . S
C547 C546 1.502 . S
C548 H534 0.960 . S
C548 H535 0.961 . S
C548 H536 0.959 . S
C548 C546 1.561 . S
C549 C546 1.526 . S
C549 C550 1.396 . S
C549 C554 1.390 . S
C550 C544 1.465 . S
C550 C549 1.396 . S
C550 C551 1.399 . S
C551 H537 0.929 . S
C551 C550 1.399 . S
C551 C552 1.385 . S
C552 H538 0.931 . S
C552 C551 1.385 . S
C552 C553 1.389 . S
C553 C552 1.389 . S
C553 C554 1.387 . S
C554 H539 0.930 . S
C554 C549 1.390 . S
C554 C553 1.387 . S
H555 C567 0.930 . S
H556 C569 0.930 . S
H557 C570 0.930 . S
H558 C574 0.959 . S
H559 C574 0.959 . S
H560 C574 0.961 1_655 S
H561 C575 0.960 . S
H562 C575 0.961 . S
H563 C575 0.959 . S
H564 C578 0.929 . S
H565 C579 0.931 . S
H566 C581 0.930 . S
C567 H555 0.930 . S
C567 C568 1.399 . S
C567 C572 1.399 . S
C568 C567 1.399 . S
C568 C569 1.376 . S
C569 H556 0.930 . S
C569 C568 1.376 . S
C569 C570 1.388 . S
C570 H557 0.930 . S
C570 C569 1.388 . S
C570 C571 1.390 . S
C571 C570 1.390 . S
C571 C572 1.394 . S
C571 C577 1.465 . S
C572 C567 1.399 . S
C572 C571 1.394 . S
C572 C573 1.516 . S
C573 C572 1.516 . S
C573 C574 1.502 1_655 S
C573 C575 1.561 . S
C573 C576 1.526 . S
C574 H558 0.959 . S
C574 H559 0.959 . S
C574 H560 0.961 1_455 S
C574 C573 1.502 1_455 S
C575 H561 0.960 . S
C575 H562 0.961 . S
C575 H563 0.959 . S
C575 C573 1.561 . S
C576 C573 1.526 . S
C576 C577 1.396 . S
C576 C581 1.390 1_655 S
C577 C571 1.465 . S
C577 C576 1.396 . S
C577 C578 1.399 . S
C578 H564 0.929 . S
C578 C577 1.399 . S
C578 C579 1.385 1_655 S
C579 H565 0.931 . S
C579 C578 1.385 1_455 S
C579 C580 1.389 . S
C580 C579 1.389 . S
C580 C581 1.387 . S
C581 H566 0.930 . S
C581 C576 1.390 1_455 S
C581 C580 1.387 . S
H582 C594 0.930 . S
H583 C596 0.930 . S
H584 C597 0.930 . S
H585 C601 0.959 . S
H586 C601 0.959 . S
H587 C601 0.961 . S
H588 C602 0.960 . S
H589 C602 0.961 . S
H590 C602 0.959 . S
H591 C605 0.929 . S
H592 C606 0.931 . S
H593 C608 0.928 1_565 S
C594 H582 0.930 . S
C594 C595 1.399 . S
C594 C599 1.399 . S
C595 C594 1.399 . S
C595 C596 1.376 . S
C596 H583 0.930 . S
C596 C595 1.376 . S
C596 C597 1.388 . S
C597 H584 0.930 . S
C597 C596 1.388 . S
C597 C598 1.390 . S
C598 C597 1.390 . S
C598 C599 1.394 . S
C598 C604 1.465 . S
C599 C594 1.399 . S
C599 C598 1.394 . S
C599 C600 1.516 . S
C600 C599 1.516 . S
C600 C601 1.502 . S
C600 C602 1.561 . S
C600 C603 1.526 . S
C601 H585 0.959 . S
C601 H586 0.959 . S
C601 H587 0.961 . S
C601 C600 1.502 . S
C602 H588 0.960 . S
C602 H589 0.961 . S
C602 H590 0.959 . S
C602 C600 1.561 . S
C603 C600 1.526 . S
C603 C604 1.396 . S
C603 C608 1.379 1_565 S
C604 C598 1.465 . S
C604 C603 1.396 . S
C604 C605 1.399 1_565 S
C605 H591 0.929 . S
C605 C604 1.399 1_545 S
C605 C606 1.385 . S
C606 H592 0.931 . S
C606 C605 1.385 . S
C606 C607 1.389 . S
C607 C606 1.389 . S
C607 C608 1.400 . S
C608 H593 0.928 1_545 S
C608 C603 1.379 1_545 S
C608 C607 1.400 . S
C217 C135 1.225 . S
C229 C33 1.171 . S
C244 C169 1.203 . S
C256 C67 1.257 . S
C271 C101 1.211 . S
C283 C203 1.254 . S
C298 C138 1.026 . S
C310 C9 0.952 . S
C325 C172 1.027 . S
C337 C43 1.060 . S
C352 C77 1.007 . S
C364 C2 0.991 . S
C379 C36 1.028 . S
C391 C111 1.061 . S
C406 C145 0.949 . S
C418 C70 1.020 . S
C433 C179 1.029 . S
C445 C104 1.058 . S
C460 C190 0.841 . S
C472 C5 0.883 . S
C487 C39 0.886 . S
C499 C20 0.838 . S
C514 C54 0.902 . S
C526 C73 0.902 . S
C541 C88 0.941 . S
C553 C107 0.935 . S
C568 C122 0.858 . S
C580 C141 0.901 . S
C595 C156 0.865 . S
C607 C175 0.888 . S
