# Generated by pormake.
# Topology vbv, (6)-cn, num edge types: 1
# Building blocks:
#     Node 0, Type 0, BuildingBlock: IZENUY_clean_sbu_0, # of connection points: 6
#     Node 1, Type 0, BuildingBlock: IZENUY_clean_sbu_0, # of connection points: 6
#     Node 2, Type 0, BuildingBlock: IZENUY_clean_sbu_0, # of connection points: 6
#     Node 3, Type 0, BuildingBlock: IZENUY_clean_sbu_0, # of connection points: 6
#     Node 4, Type 0, BuildingBlock: IZENUY_clean_sbu_0, # of connection points: 6
#     Node 5, Type 0, BuildingBlock: IZENUY_clean_sbu_0, # of connection points: 6
#     Node 6, Type 0, BuildingBlock: IZENUY_clean_sbu_0, # of connection points: 6
#     Node 7, Type 0, BuildingBlock: IZENUY_clean_sbu_0, # of connection points: 6
#     Node 8, Type 0, BuildingBlock: IZENUY_clean_sbu_0, # of connection points: 6
#     Node 9, Type 0, BuildingBlock: IZENUY_clean_sbu_0, # of connection points: 6
#     Node 10, Type 0, BuildingBlock: IZENUY_clean_sbu_0, # of connection points: 6
#     Node 11, Type 0, BuildingBlock: IZENUY_clean_sbu_0, # of connection points: 6
#     Node 12, Type 0, BuildingBlock: IZENUY_clean_sbu_0, # of connection points: 6
#     Node 13, Type 0, BuildingBlock: IZENUY_clean_sbu_0, # of connection points: 6
#     Node 14, Type 0, BuildingBlock: IZENUY_clean_sbu_0, # of connection points: 6
#     Node 15, Type 0, BuildingBlock: IZENUY_clean_sbu_0, # of connection points: 6
#     Edge 16, Type (0, 0), None
#     Edge 17, Type (0, 0), None
#     Edge 18, Type (0, 0), None
#     Edge 19, Type (0, 0), None
#     Edge 20, Type (0, 0), None
#     Edge 21, Type (0, 0), None
#     Edge 22, Type (0, 0), None
#     Edge 23, Type (0, 0), None
#     Edge 24, Type (0, 0), None
#     Edge 25, Type (0, 0), None
#     Edge 26, Type (0, 0), None
#     Edge 27, Type (0, 0), None
#     Edge 28, Type (0, 0), None
#     Edge 29, Type (0, 0), None
#     Edge 30, Type (0, 0), None
#     Edge 31, Type (0, 0), None
#     Edge 32, Type (0, 0), None
#     Edge 33, Type (0, 0), None
#     Edge 34, Type (0, 0), None
#     Edge 35, Type (0, 0), None
#     Edge 36, Type (0, 0), None
#     Edge 37, Type (0, 0), None
#     Edge 38, Type (0, 0), None
#     Edge 39, Type (0, 0), None
#     Edge 40, Type (0, 0), None
#     Edge 41, Type (0, 0), None
#     Edge 42, Type (0, 0), None
#     Edge 43, Type (0, 0), None
#     Edge 44, Type (0, 0), None
#     Edge 45, Type (0, 0), None
#     Edge 46, Type (0, 0), None
#     Edge 47, Type (0, 0), None
#     Edge 48, Type (0, 0), None
#     Edge 49, Type (0, 0), None
#     Edge 50, Type (0, 0), None
#     Edge 51, Type (0, 0), None
#     Edge 52, Type (0, 0), None
#     Edge 53, Type (0, 0), None
#     Edge 54, Type (0, 0), None
#     Edge 55, Type (0, 0), None
#     Edge 56, Type (0, 0), None
#     Edge 57, Type (0, 0), None
#     Edge 58, Type (0, 0), None
#     Edge 59, Type (0, 0), None
#     Edge 60, Type (0, 0), None
#     Edge 61, Type (0, 0), None
#     Edge 62, Type (0, 0), None
#     Edge 63, Type (0, 0), None
# Relax obj value: 0.261
# Max RMSD: 0.242
# Mean RMSD: 0.241
data_MOF--net-vbv--node1-IZENUY_clean_sbu_0--edge1-none
_symmetry_space_group_name_H-M    P1
_symmetry_Int_Tables_number       1
_symmetry_cell_setting            triclinic
loop_
_symmetry_equiv_pos_as_xyz
'x, y, z'
_cell_length_a     24.14893
_cell_length_b     11.487928
_cell_length_c     22.126928
_cell_angle_alpha  90.00002
_cell_angle_beta   90.001148
_cell_angle_gamma 89.999242
loop_
_atom_site_label
_atom_site_type_symbol
_atom_site_fract_x
_atom_site_fract_y
_atom_site_fract_z
_atom_type_partial_charge
Fe0 Fe 0.16148 0.49023 0.13879 0.0
Fe1 Fe 0.24285 0.28929 0.15447 0.0
O2 O 0.19377 0.36722 0.1106 0.0
Fe3 Fe 0.17108 0.30848 0.04135 0.0
O4 O 0.19494 0.428 0.99739 0.0
O5 O 0.15419 0.5524 0.05948 0.0
O6 O 0.2275 0.57177 0.14285 0.0
C7 C 0.27131 0.53843 0.16975 0.0
C8 C 0.07342 0.36356 0.09198 0.0
O9 O 0.27356 0.43066 0.18863 0.0
C10 C 0.17835 0.11203 0.09337 0.0
O11 O 0.16723 0.44326 0.22007 0.0
O12 O 0.19301 0.26121 0.21274 0.0
O13 O 0.10091 0.36499 0.04392 0.0
O14 O 0.0939 0.41198 0.13828 0.0
C15 C 0.28307 0.29486 0.04567 0.0
O16 O 0.22325 0.14033 0.12125 0.0
O17 O 0.145 0.19027 0.08445 0.0
C18 C 0.17069 0.34038 0.24258 0.0
O19 O 0.29326 0.31183 0.09979 0.0
O20 O 0.23911 0.24601 0.02859 0.0
C21 C 0.1789 0.5285 1.00862 0.0
Fe22 Fe 0.42292 0.85273 0.04135 0.0
Fe23 Fe 0.43251 0.67099 0.13879 0.0
O24 O 0.40022 0.794 0.1106 0.0
Fe25 Fe 0.35115 0.87196 0.15446 0.0
O26 O 0.30073 0.84944 0.09979 0.0
O27 O 0.35489 0.91522 0.02859 0.0
O28 O 0.39905 0.73322 0.99738 0.0
C29 C 0.41509 0.63271 1.00862 0.0
C30 C 0.41566 1.04919 0.09336 0.0
O31 O 0.43979 0.60881 0.05948 0.0
C32 C 0.42331 0.82084 0.24258 0.0
O33 O 0.49308 0.7962 0.04392 0.0
O34 O 0.50009 0.74923 0.13828 0.0
O35 O 0.37076 1.0209 0.12125 0.0
O36 O 0.449 0.97094 0.08445 0.0
C37 C 0.32267 0.62283 0.16974 0.0
O38 O 0.42676 0.71796 0.22007 0.0
O39 O 0.40099 0.90001 0.21274 0.0
C40 C 0.52057 0.79763 0.09198 0.0
O41 O 0.36648 0.58946 0.14285 0.0
O42 O 0.32043 0.7306 0.18862 0.0
C43 C 0.31092 0.86638 0.04566 0.0
Fe44 Fe 0.66148 0.67099 0.41232 0.0
Fe45 Fe 0.74284 0.87194 0.39665 0.0
O46 O 0.69377 0.794 0.44052 0.0
Fe47 Fe 0.67108 0.85273 0.50977 0.0
O48 O 0.69495 0.73322 0.55373 0.0
O49 O 0.6542 0.60882 0.49164 0.0
O50 O 0.72751 0.58946 0.40827 0.0
C51 C 0.77132 0.6228 0.38137 0.0
C52 C 0.57343 0.79765 0.45913 0.0
O53 O 0.77356 0.73057 0.36249 0.0
C54 C 0.67835 1.04919 0.45775 0.0
O55 O 0.66723 0.71796 0.33104 0.0
O56 O 0.69301 0.90001 0.33838 0.0
O57 O 0.60091 0.79622 0.50719 0.0
O58 O 0.5939 0.74924 0.41283 0.0
C59 C 0.78307 0.86636 0.50545 0.0
O60 O 0.72324 1.02089 0.42987 0.0
O61 O 0.645 0.97095 0.46666 0.0
C62 C 0.67068 0.82084 0.30853 0.0
O63 O 0.79326 0.8494 0.45133 0.0
O64 O 0.73911 0.91521 0.52252 0.0
C65 C 0.6789 0.63271 0.54249 0.0
Fe66 Fe 0.92292 0.30849 0.50977 0.0
Fe67 Fe 0.93251 0.49023 0.41232 0.0
O68 O 0.90022 0.36722 0.44052 0.0
Fe69 Fe 0.85115 0.28927 0.39665 0.0
O70 O 0.80073 0.3118 0.45133 0.0
O71 O 0.85489 0.246 0.52252 0.0
O72 O 0.89905 0.428 0.55373 0.0
C73 C 0.91509 0.52851 0.5425 0.0
C74 C 0.91566 0.11203 0.45775 0.0
O75 O 0.9398 0.55241 0.49164 0.0
C76 C 0.92331 0.34038 0.30853 0.0
O77 O 0.99308 0.36501 0.50719 0.0
O78 O 1.00009 0.41199 0.41283 0.0
O79 O 0.87076 0.14032 0.42987 0.0
O80 O 0.949 0.19027 0.46667 0.0
C81 C 0.82267 0.5384 0.38137 0.0
O82 O 0.92676 0.44326 0.33104 0.0
O83 O 0.90099 0.26121 0.33838 0.0
C84 C 1.02057 0.36358 0.45913 0.0
O85 O 0.86648 0.57176 0.40826 0.0
O86 O 0.82043 0.43063 0.36249 0.0
C87 C 0.81093 0.29484 0.50545 0.0
Fe88 Fe 0.9229 0.85275 1.00976 0.0
Fe89 Fe 0.85116 0.87191 0.89662 0.0
O90 O 0.90023 0.794 0.94051 0.0
Fe91 Fe 0.93253 0.671 0.91233 0.0
O92 O 0.93981 0.60884 0.99164 0.0
O93 O 0.89904 0.73322 0.05373 0.0
O94 O 0.85486 0.91519 1.02249 0.0
C95 C 0.81091 0.8663 1.00541 0.0
C96 C 1.02057 0.7977 0.95914 0.0
O97 O 0.80072 0.84938 0.95128 0.0
C98 C 0.92336 0.82083 0.80853 0.0
O99 O 0.94897 0.97099 0.96667 0.0
O100 O 0.87074 1.02086 0.92984 0.0
O101 O 1.0001 0.74924 0.91285 0.0
O102 O 0.99308 0.79629 1.0072 0.0
C103 C 0.82269 0.62279 0.88136 0.0
O104 O 0.901 0.89998 0.83835 0.0
O105 O 0.92678 0.71794 0.83104 0.0
C106 C 0.91562 1.04922 0.95772 0.0
O107 O 0.82046 0.73054 0.86245 0.0
O108 O 0.8665 0.58945 0.90826 0.0
C109 C 0.91511 0.63273 0.04249 0.0
Fe110 Fe 0.67111 0.30847 1.00976 0.0
Fe111 Fe 0.74285 0.28928 0.89662 0.0
O112 O 0.69379 0.36721 0.94051 0.0
Fe113 Fe 0.66149 0.49023 0.91233 0.0
O114 O 0.65421 0.55239 0.99164 0.0
O115 O 0.69497 0.428 0.05373 0.0
O116 O 0.73915 0.24601 1.0225 0.0
C117 C 0.7831 0.29489 1.00541 0.0
C118 C 0.57345 0.36355 0.95914 0.0
O119 O 0.79329 0.31179 0.95128 0.0
C120 C 0.67065 0.34039 0.80853 0.0
O121 O 0.64503 0.19024 0.96668 0.0
O122 O 0.72326 0.14034 0.92984 0.0
O123 O 0.59391 0.41199 0.91284 0.0
O124 O 0.60094 0.36496 1.0072 0.0
C125 C 0.77133 0.5384 0.88137 0.0
O126 O 0.693 0.26123 0.83836 0.0
O127 O 0.66723 0.44328 0.83104 0.0
C128 C 0.67837 0.112 0.95772 0.0
O129 O 0.77356 0.43065 0.86246 0.0
O130 O 0.72752 0.57176 0.90826 0.0
C131 C 0.67891 0.52849 0.0425 0.0
Fe132 Fe 0.43252 0.49022 0.63879 0.0
Fe133 Fe 0.4229 0.30847 0.54136 0.0
O134 O 0.40023 0.36721 0.61061 0.0
Fe135 Fe 0.35116 0.2893 0.6545 0.0
O136 O 0.32046 0.43067 0.68866 0.0
O137 O 0.3665 0.57177 0.64285 0.0
O138 O 0.43981 0.55238 0.55948 0.0
C139 C 0.41511 0.52849 0.50862 0.0
C140 C 0.42336 0.34039 0.74258 0.0
O141 O 0.39904 0.428 0.49739 0.0
C142 C 0.41563 0.112 0.5934 0.0
O143 O 0.5001 0.41198 0.63827 0.0
O144 O 0.49307 0.36494 0.54392 0.0
O145 O 0.40101 0.26123 0.71276 0.0
O146 O 0.42678 0.44328 0.72007 0.0
C147 C 0.31091 0.29491 0.54571 0.0
O148 O 0.44897 0.19023 0.58444 0.0
O149 O 0.37074 0.14035 0.62128 0.0
C150 C 0.52056 0.36352 0.59198 0.0
O151 O 0.35486 0.24603 0.52862 0.0
O152 O 0.30072 0.31183 0.59984 0.0
C153 C 0.32269 0.53843 0.66976 0.0
Fe154 Fe 0.16149 0.67099 0.63879 0.0
Fe155 Fe 0.17111 0.85275 0.54135 0.0
O156 O 0.19379 0.79401 0.61061 0.0
Fe157 Fe 0.24285 0.87193 0.6545 0.0
O158 O 0.27356 0.73056 0.68866 0.0
O159 O 0.22752 0.58945 0.64286 0.0
O160 O 0.1542 0.60884 0.55948 0.0
C161 C 0.1789 0.63273 0.50862 0.0
C162 C 0.17065 0.82083 0.74258 0.0
O163 O 0.19497 0.73322 0.49739 0.0
C164 C 0.17837 1.04922 0.59339 0.0
O165 O 0.09391 0.74923 0.63827 0.0
O166 O 0.10093 0.79627 0.54392 0.0
O167 O 0.193 0.89999 0.71276 0.0
O168 O 0.16723 0.71794 0.72007 0.0
C169 C 0.2831 0.86632 0.54571 0.0
O170 O 0.14503 0.97098 0.58444 0.0
O171 O 0.22326 1.02087 0.62128 0.0
C172 C 0.07345 0.79768 0.59198 0.0
O173 O 0.23914 0.9152 0.52862 0.0
O174 O 0.29329 0.84941 0.59984 0.0
C175 C 0.27133 0.62281 0.66975 0.0
Fe176 Fe 0.66148 0.99023 0.1388 0.0
Fe177 Fe 0.74283 0.78926 0.15445 0.0
O178 O 0.69375 0.86719 0.1106 0.0
Fe179 Fe 0.67105 0.80848 0.04134 0.0
O180 O 0.69496 0.92798 0.99741 0.0
O181 O 0.6542 1.05241 0.05949 0.0
O182 O 0.7275 1.07176 0.14286 0.0
C183 C 0.77132 1.03841 0.16974 0.0
C184 C 0.57341 0.86363 0.09199 0.0
O185 O 0.77357 0.93063 0.1886 0.0
C186 C 0.67829 0.61206 0.0934 0.0
O187 O 0.66722 0.94327 0.22008 0.0
O188 O 0.69303 0.7612 0.21276 0.0
O189 O 0.6009 0.86509 0.04393 0.0
O190 O 0.59389 0.91201 0.13829 0.0
C191 C 0.78306 0.79457 0.04565 0.0
O192 O 0.72321 0.6403 0.12125 0.0
O193 O 0.64493 0.69024 0.08441 0.0
C194 C 0.67068 0.84037 0.24257 0.0
O195 O 0.79322 0.81176 0.09976 0.0
O196 O 0.73905 0.7459 0.02856 0.0
C197 C 0.67893 1.0285 1.00865 0.0
Fe198 Fe 0.92295 0.35273 0.04134 0.0
Fe199 Fe 0.93251 0.17099 0.1388 0.0
O200 O 0.90024 0.29404 0.1106 0.0
Fe201 Fe 0.85117 0.37199 0.15445 0.0
O202 O 0.80077 0.3495 0.09975 0.0
O203 O 0.85495 0.41534 0.02855 0.0
O204 O 0.89903 0.23323 0.99741 0.0
C205 C 0.91505 0.13271 1.00865 0.0
C206 C 0.91572 0.54916 0.09339 0.0
O207 O 0.93978 0.1088 0.05949 0.0
C208 C 0.92331 0.32085 0.24257 0.0
O209 O 0.99309 0.29611 0.04393 0.0
O210 O 1.0001 0.24919 0.13829 0.0
O211 O 0.8708 0.52093 0.12125 0.0
O212 O 0.94908 0.47096 0.08441 0.0
C213 C 0.82267 0.12284 0.16973 0.0
O214 O 0.92677 0.21795 0.22008 0.0
O215 O 0.90098 0.40003 0.21275 0.0
C216 C 1.02058 0.29757 0.09199 0.0
O217 O 0.86648 0.08947 0.14286 0.0
O218 O 0.82042 0.23062 0.1886 0.0
C219 C 0.81094 0.36668 0.04564 0.0
Fe220 Fe 0.24283 0.37197 0.39666 0.0
Fe221 Fe 0.17105 0.35273 0.50977 0.0
O222 O 0.19375 0.29403 0.44052 0.0
Fe223 Fe 0.16148 0.17099 0.41232 0.0
O224 O 0.2275 0.08946 0.40826 0.0
O225 O 0.27357 0.2306 0.36251 0.0
O226 O 0.29322 0.34946 0.45136 0.0
C227 C 0.28306 0.36666 0.50547 0.0
C228 C 0.17068 0.32085 0.30854 0.0
O229 O 0.23905 0.41532 0.52256 0.0
C230 C 0.07341 0.29759 0.45913 0.0
O231 O 0.2232 0.52092 0.42986 0.0
O232 O 0.14492 0.47097 0.46671 0.0
O233 O 0.16722 0.21796 0.33103 0.0
O234 O 0.19302 0.40003 0.33836 0.0
C235 C 0.17894 0.13272 0.54246 0.0
O236 O 0.1009 0.29612 0.50719 0.0
O237 O 0.09389 0.24921 0.41282 0.0
C238 C 0.17829 0.54916 0.45772 0.0
O239 O 0.19496 0.23323 0.55371 0.0
O240 O 0.1542 0.10881 0.49163 0.0
C241 C 0.27132 0.12281 0.38137 0.0
Fe242 Fe 0.43251 0.99023 0.41232 0.0
Fe243 Fe 0.35117 0.78924 0.39666 0.0
O244 O 0.40024 0.86718 0.44052 0.0
Fe245 Fe 0.42295 0.80849 0.50977 0.0
O246 O 0.39904 0.92799 0.55371 0.0
O247 O 0.43979 1.05242 0.49163 0.0
O248 O 0.36649 1.07175 0.40826 0.0
C249 C 0.32267 1.03839 0.38138 0.0
C250 C 0.52058 0.86365 0.45913 0.0
O251 O 0.32042 0.9306 0.36252 0.0
C252 C 0.41572 0.61206 0.45772 0.0
O253 O 0.42677 0.94326 0.33103 0.0
O254 O 0.40097 0.76119 0.33836 0.0
O255 O 0.4931 0.86511 0.50719 0.0
O256 O 0.5001 0.91202 0.41282 0.0
C257 C 0.31094 0.79455 0.50547 0.0
O258 O 0.3708 0.64029 0.42987 0.0
O259 O 0.44908 0.69025 0.46671 0.0
C260 C 0.42331 0.84037 0.30855 0.0
O261 O 0.30077 0.81174 0.45136 0.0
O262 O 0.35495 0.74589 0.52256 0.0
C263 C 0.41506 1.02851 0.54246 0.0
Fe264 Fe 0.35117 0.37194 0.89663 0.0
Fe265 Fe 0.43253 0.17099 0.91232 0.0
O266 O 0.40025 0.29403 0.9405 0.0
Fe267 Fe 0.42293 0.35275 1.00977 0.0
O268 O 0.35492 0.4153 1.02253 0.0
O269 O 0.30076 0.34944 0.95131 0.0
O270 O 0.32045 0.23057 0.86248 0.0
C271 C 0.32269 0.1228 0.88136 0.0
C272 C 0.41569 0.54919 0.95769 0.0
O273 O 0.3665 0.08946 0.90825 0.0
C274 C 0.52058 0.29764 0.95913 0.0
O275 O 0.40099 0.4 0.83834 0.0
O276 O 0.42679 0.21793 0.83103 0.0
O277 O 0.44905 0.47101 0.96672 0.0
O278 O 0.37078 0.52089 0.92983 0.0
C279 C 0.41508 0.13273 0.04246 0.0
O280 O 0.50011 0.24921 0.91284 0.0
O281 O 0.49309 0.29619 1.0072 0.0
C282 C 0.42337 0.32083 0.80855 0.0
O283 O 0.43981 0.10883 0.99163 0.0
O284 O 0.39903 0.23324 0.0537 0.0
C285 C 0.31092 0.36659 1.00543 0.0
Fe286 Fe 0.16149 0.99023 0.91232 0.0
Fe287 Fe 0.17108 0.80847 1.00977 0.0
O288 O 0.19377 0.86718 0.9405 0.0
Fe289 Fe 0.24284 0.78925 0.89663 0.0
O290 O 0.27357 0.93062 0.86249 0.0
O291 O 0.22752 1.07175 0.90825 0.0
O292 O 0.15422 1.0524 0.99163 0.0
C293 C 0.17894 1.02849 0.04246 0.0
C294 C 0.17064 0.84038 0.80854 0.0
O295 O 0.19499 0.92799 0.0537 0.0
C296 C 0.17831 0.61203 0.95769 0.0
O297 O 0.0939 0.91202 0.91283 0.0
O298 O 0.10092 0.86505 1.0072 0.0
O299 O 0.19301 0.76121 0.83834 0.0
O300 O 0.16723 0.94329 0.83103 0.0
C301 C 0.28309 0.7946 1.00543 0.0
O302 O 0.14495 0.69022 0.96672 0.0
O303 O 0.22321 0.64031 0.92984 0.0
C304 C 0.07343 0.86361 0.95914 0.0
O305 O 0.23909 0.7459 1.02253 0.0
O306 O 0.29325 0.81173 0.95132 0.0
C307 C 0.27133 1.03838 0.88137 0.0
Fe308 Fe 0.93253 0.99023 0.6388 0.0
Fe309 Fe 0.92293 0.80847 0.54135 0.0
O310 O 0.90024 0.86718 0.61062 0.0
Fe311 Fe 0.85117 0.78927 0.65449 0.0
O312 O 0.82045 0.93064 0.68864 0.0
O313 O 0.8665 1.07176 0.64286 0.0
O314 O 0.9398 1.05239 0.55949 0.0
C315 C 0.91507 1.02849 0.50866 0.0
C316 C 0.92337 0.84038 0.74257 0.0
O317 O 0.89903 0.92799 0.49742 0.0
C318 C 0.91569 0.61203 0.59343 0.0
O319 O 1.00011 0.91201 0.63828 0.0
O320 O 0.99309 0.86503 0.54392 0.0
O321 O 0.90099 0.76122 0.71278 0.0
O322 O 0.92679 0.94328 0.72008 0.0
C323 C 0.81092 0.79462 0.54569 0.0
O324 O 0.94905 0.69021 0.5844 0.0
O325 O 0.87079 0.64032 0.62128 0.0
C326 C 1.02058 0.86359 0.59198 0.0
O327 O 0.85492 0.74592 0.52858 0.0
O328 O 0.80076 0.81177 0.5998 0.0
C329 C 0.82269 1.03841 0.66975 0.0
Fe330 Fe 0.66149 0.17099 0.6388 0.0
Fe331 Fe 0.67107 0.35275 0.54135 0.0
O332 O 0.69377 0.29404 0.61061 0.0
Fe333 Fe 0.74284 0.37196 0.65449 0.0
O334 O 0.77357 0.23059 0.68863 0.0
O335 O 0.72752 0.08946 0.64286 0.0
O336 O 0.65421 0.10882 0.55949 0.0
C337 C 0.67894 0.13273 0.50866 0.0
C338 C 0.67064 0.32084 0.74257 0.0
O339 O 0.69498 0.23323 0.49742 0.0
C340 C 0.67831 0.54919 0.59342 0.0
O341 O 0.5939 0.2492 0.63828 0.0
O342 O 0.60092 0.29617 0.54392 0.0
O343 O 0.69302 0.4 0.71278 0.0
O344 O 0.66723 0.21794 0.72008 0.0
C345 C 0.78308 0.36661 0.54569 0.0
O346 O 0.64495 0.471 0.5844 0.0
O347 O 0.72322 0.5209 0.62128 0.0
C348 C 0.57343 0.29762 0.59198 0.0
O349 O 0.73909 0.41531 0.52858 0.0
O350 O 0.79324 0.34947 0.5998 0.0
C351 C 0.77133 0.12283 0.66975 0.0
loop_
_geom_bond_atom_site_label_1
_geom_bond_atom_site_label_2
_geom_bond_distance
_geom_bond_site_symmetry_2
_ccdc_geom_bond_type
Fe0 O2 1.918 . S
Fe0 O5 1.997 . S
Fe0 O6 2.002 . S
Fe0 O11 1.976 . S
Fe0 O14 1.996 . S
Fe1 O2 1.918 . S
Fe1 O9 1.997 . S
Fe1 O12 1.996 . S
Fe1 O16 1.976 . S
Fe1 O19 2.002 . S
O2 Fe0 1.918 . S
O2 Fe1 1.918 . S
O2 Fe3 1.918 . S
Fe3 O2 1.918 . S
Fe3 O4 2.002 1_554 S
Fe3 O13 1.976 . S
Fe3 O17 1.996 . S
Fe3 O20 1.997 1_554 S
O4 Fe3 2.002 1_556 S
O4 C21 1.295 1_556 S
O5 Fe0 1.997 . S
O5 C21 1.235 . S
O6 Fe0 2.002 . S
O6 C7 1.295 . S
C7 O6 1.295 . S
C7 O9 1.235 . S
C8 O13 1.287 . S
C8 O14 1.255 . S
O9 Fe1 1.997 . S
O9 C7 1.235 . S
C10 O16 1.287 . S
C10 O17 1.255 . S
O11 Fe0 1.976 . S
O11 C18 1.287 . S
O12 Fe1 1.996 . S
O12 C18 1.255 . S
O13 Fe3 1.976 . S
O13 C8 1.287 . S
O14 Fe0 1.996 . S
O14 C8 1.255 . S
C15 O19 1.295 1_556 S
C15 O20 1.235 . S
O16 Fe1 1.976 . S
O16 C10 1.287 . S
O17 Fe3 1.996 . S
O17 C10 1.255 . S
C18 O11 1.287 . S
C18 O12 1.255 . S
O19 Fe1 2.002 . S
O19 C15 1.295 1_554 S
O20 Fe3 1.997 1_556 S
O20 C15 1.235 . S
C21 O4 1.295 1_554 S
C21 O5 1.235 . S
Fe22 O24 1.918 . S
Fe22 O27 1.997 1_554 S
Fe22 O28 2.002 1_554 S
Fe22 O33 1.976 . S
Fe22 O36 1.996 . S
Fe23 O24 1.918 . S
Fe23 O31 1.997 . S
Fe23 O34 1.996 . S
Fe23 O38 1.976 . S
Fe23 O41 2.002 . S
O24 Fe22 1.918 . S
O24 Fe23 1.918 . S
O24 Fe25 1.918 . S
Fe25 O24 1.918 . S
Fe25 O26 2.002 . S
Fe25 O35 1.976 . S
Fe25 O39 1.996 . S
Fe25 O42 1.997 . S
O26 Fe25 2.002 . S
O26 C43 1.295 1_554 S
O27 Fe22 1.997 1_556 S
O27 C43 1.235 . S
O28 Fe22 2.002 1_556 S
O28 C29 1.295 1_556 S
C29 O28 1.295 1_554 S
C29 O31 1.235 . S
C30 O35 1.287 . S
C30 O36 1.255 . S
O31 Fe23 1.997 . S
O31 C29 1.235 . S
C32 O38 1.287 . S
C32 O39 1.255 . S
O33 Fe22 1.976 . S
O33 C40 1.287 . S
O34 Fe23 1.996 . S
O34 C40 1.255 . S
O35 Fe25 1.976 . S
O35 C30 1.287 . S
O36 Fe22 1.996 . S
O36 C30 1.255 . S
C37 O41 1.295 . S
C37 O42 1.235 . S
O38 Fe23 1.976 . S
O38 C32 1.287 . S
O39 Fe25 1.996 . S
O39 C32 1.255 . S
C40 O33 1.287 . S
C40 O34 1.255 . S
O41 Fe23 2.002 . S
O41 C37 1.295 . S
O42 Fe25 1.997 . S
O42 C37 1.235 . S
C43 O26 1.295 1_556 S
C43 O27 1.235 . S
Fe44 O46 1.918 . S
Fe44 O49 1.997 . S
Fe44 O50 2.002 . S
Fe44 O55 1.976 . S
Fe44 O58 1.996 . S
Fe45 O46 1.918 . S
Fe45 O53 1.997 . S
Fe45 O56 1.996 . S
Fe45 O60 1.976 . S
Fe45 O63 2.002 . S
O46 Fe44 1.918 . S
O46 Fe45 1.918 . S
O46 Fe47 1.918 . S
Fe47 O46 1.918 . S
Fe47 O48 2.002 . S
Fe47 O57 1.976 . S
Fe47 O61 1.996 . S
Fe47 O64 1.997 . S
O48 Fe47 2.002 . S
O48 C65 1.295 . S
O49 Fe44 1.997 . S
O49 C65 1.235 . S
O50 Fe44 2.002 . S
O50 C51 1.295 . S
C51 O50 1.295 . S
C51 O53 1.235 . S
C52 O57 1.287 . S
C52 O58 1.255 . S
O53 Fe45 1.997 . S
O53 C51 1.235 . S
C54 O60 1.287 . S
C54 O61 1.255 . S
O55 Fe44 1.976 . S
O55 C62 1.287 . S
O56 Fe45 1.996 . S
O56 C62 1.255 . S
O57 Fe47 1.976 . S
O57 C52 1.287 . S
O58 Fe44 1.996 . S
O58 C52 1.255 . S
C59 O63 1.295 . S
C59 O64 1.235 . S
O60 Fe45 1.976 . S
O60 C54 1.287 . S
O61 Fe47 1.996 . S
O61 C54 1.255 . S
C62 O55 1.287 . S
C62 O56 1.255 . S
O63 Fe45 2.002 . S
O63 C59 1.295 . S
O64 Fe47 1.997 . S
O64 C59 1.235 . S
C65 O48 1.295 . S
C65 O49 1.235 . S
Fe66 O68 1.918 . S
Fe66 O71 1.997 . S
Fe66 O72 2.002 . S
Fe66 O77 1.976 . S
Fe66 O80 1.996 . S
Fe67 O68 1.918 . S
Fe67 O75 1.997 . S
Fe67 O78 1.996 . S
Fe67 O82 1.976 . S
Fe67 O85 2.002 . S
O68 Fe66 1.918 . S
O68 Fe67 1.918 . S
O68 Fe69 1.918 . S
Fe69 O68 1.918 . S
Fe69 O70 2.002 . S
Fe69 O79 1.976 . S
Fe69 O83 1.996 . S
Fe69 O86 1.997 . S
O70 Fe69 2.002 . S
O70 C87 1.295 . S
O71 Fe66 1.997 . S
O71 C87 1.235 . S
O72 Fe66 2.002 . S
O72 C73 1.295 . S
C73 O72 1.295 . S
C73 O75 1.235 . S
C74 O79 1.287 . S
C74 O80 1.255 . S
O75 Fe67 1.997 . S
O75 C73 1.235 . S
C76 O82 1.287 . S
C76 O83 1.255 . S
O77 Fe66 1.976 . S
O77 C84 1.287 . S
O78 Fe67 1.996 . S
O78 C84 1.255 . S
O79 Fe69 1.976 . S
O79 C74 1.287 . S
O80 Fe66 1.996 . S
O80 C74 1.255 . S
C81 O85 1.295 . S
C81 O86 1.235 . S
O82 Fe67 1.976 . S
O82 C76 1.287 . S
O83 Fe69 1.996 . S
O83 C76 1.255 . S
C84 O77 1.287 . S
C84 O78 1.255 . S
O85 Fe67 2.002 . S
O85 C81 1.295 . S
O86 Fe69 1.997 . S
O86 C81 1.235 . S
C87 O70 1.295 . S
C87 O71 1.235 . S
Fe88 O90 1.918 . S
Fe88 O93 1.997 1_556 S
Fe88 O94 2.002 1_556 S
Fe88 O99 1.976 . S
Fe88 O102 1.996 . S
Fe89 O90 1.918 . S
Fe89 O97 1.997 . S
Fe89 O100 1.996 . S
Fe89 O104 1.976 . S
Fe89 O107 2.002 . S
O90 Fe88 1.918 . S
O90 Fe89 1.918 . S
O90 Fe91 1.918 . S
Fe91 O90 1.918 . S
Fe91 O92 2.002 . S
Fe91 O101 1.976 . S
Fe91 O105 1.996 . S
Fe91 O108 1.997 . S
O92 Fe91 2.002 . S
O92 C109 1.295 . S
O93 Fe88 1.997 1_554 S
O93 C109 1.235 1_554 S
O94 Fe88 2.002 1_554 S
O94 C95 1.295 . S
C95 O94 1.295 . S
C95 O97 1.235 1_554 S
C96 O101 1.287 . S
C96 O102 1.255 . S
O97 Fe89 1.997 . S
O97 C95 1.235 1_556 S
C98 O104 1.287 . S
C98 O105 1.255 . S
O99 Fe88 1.976 . S
O99 C106 1.287 . S
O100 Fe89 1.996 . S
O100 C106 1.255 . S
O101 Fe91 1.976 . S
O101 C96 1.287 . S
O102 Fe88 1.996 . S
O102 C96 1.255 . S
C103 O107 1.295 . S
C103 O108 1.235 . S
O104 Fe89 1.976 . S
O104 C98 1.287 . S
O105 Fe91 1.996 . S
O105 C98 1.255 . S
C106 O99 1.287 . S
C106 O100 1.255 . S
O107 Fe89 2.002 . S
O107 C103 1.295 . S
O108 Fe91 1.997 . S
O108 C103 1.235 . S
C109 O92 1.295 . S
C109 O93 1.235 1_556 S
Fe110 O112 1.918 . S
Fe110 O115 1.997 1_556 S
Fe110 O116 2.002 1_556 S
Fe110 O121 1.976 . S
Fe110 O124 1.996 . S
Fe111 O112 1.918 . S
Fe111 O119 1.997 . S
Fe111 O122 1.996 . S
Fe111 O126 1.976 . S
Fe111 O129 2.002 . S
O112 Fe110 1.918 . S
O112 Fe111 1.918 . S
O112 Fe113 1.918 . S
Fe113 O112 1.918 . S
Fe113 O114 2.002 . S
Fe113 O123 1.976 . S
Fe113 O127 1.996 . S
Fe113 O130 1.997 . S
O114 Fe113 2.002 . S
O114 C131 1.295 . S
O115 Fe110 1.997 1_554 S
O115 C131 1.235 1_554 S
O116 Fe110 2.002 1_554 S
O116 C117 1.295 . S
C117 O116 1.295 . S
C117 O119 1.235 1_554 S
C118 O123 1.287 . S
C118 O124 1.255 . S
O119 Fe111 1.997 . S
O119 C117 1.235 1_556 S
C120 O126 1.287 . S
C120 O127 1.255 . S
O121 Fe110 1.976 . S
O121 C128 1.287 . S
O122 Fe111 1.996 . S
O122 C128 1.255 . S
O123 Fe113 1.976 . S
O123 C118 1.287 . S
O124 Fe110 1.996 . S
O124 C118 1.255 . S
C125 O129 1.295 . S
C125 O130 1.235 . S
O126 Fe111 1.976 . S
O126 C120 1.287 . S
O127 Fe113 1.996 . S
O127 C120 1.255 . S
C128 O121 1.287 . S
C128 O122 1.255 . S
O129 Fe111 2.002 . S
O129 C125 1.295 . S
O130 Fe113 1.997 . S
O130 C125 1.235 . S
C131 O114 1.295 . S
C131 O115 1.235 1_556 S
Fe132 O134 1.918 . S
Fe132 O137 1.997 . S
Fe132 O138 2.002 . S
Fe132 O143 1.976 . S
Fe132 O146 1.996 . S
Fe133 O134 1.918 . S
Fe133 O141 1.997 . S
Fe133 O144 1.996 . S
Fe133 O148 1.976 . S
Fe133 O151 2.002 . S
O134 Fe132 1.918 . S
O134 Fe133 1.918 . S
O134 Fe135 1.918 . S
Fe135 O134 1.918 . S
Fe135 O136 2.002 . S
Fe135 O145 1.976 . S
Fe135 O149 1.996 . S
Fe135 O152 1.997 . S
O136 Fe135 2.002 . S
O136 C153 1.295 . S
O137 Fe132 1.997 . S
O137 C153 1.235 . S
O138 Fe132 2.002 . S
O138 C139 1.295 . S
C139 O138 1.295 . S
C139 O141 1.235 . S
C140 O145 1.287 . S
C140 O146 1.255 . S
O141 Fe133 1.997 . S
O141 C139 1.235 . S
C142 O148 1.287 . S
C142 O149 1.255 . S
O143 Fe132 1.976 . S
O143 C150 1.287 . S
O144 Fe133 1.996 . S
O144 C150 1.255 . S
O145 Fe135 1.976 . S
O145 C140 1.287 . S
O146 Fe132 1.996 . S
O146 C140 1.255 . S
C147 O151 1.295 . S
C147 O152 1.235 . S
O148 Fe133 1.976 . S
O148 C142 1.287 . S
O149 Fe135 1.996 . S
O149 C142 1.255 . S
C150 O143 1.287 . S
C150 O144 1.255 . S
O151 Fe133 2.002 . S
O151 C147 1.295 . S
O152 Fe135 1.997 . S
O152 C147 1.235 . S
C153 O136 1.295 . S
C153 O137 1.235 . S
Fe154 O156 1.918 . S
Fe154 O159 1.997 . S
Fe154 O160 2.002 . S
Fe154 O165 1.976 . S
Fe154 O168 1.996 . S
Fe155 O156 1.918 . S
Fe155 O163 1.997 . S
Fe155 O166 1.996 . S
Fe155 O170 1.976 . S
Fe155 O173 2.002 . S
O156 Fe154 1.918 . S
O156 Fe155 1.918 . S
O156 Fe157 1.918 . S
Fe157 O156 1.918 . S
Fe157 O158 2.002 . S
Fe157 O167 1.976 . S
Fe157 O171 1.996 . S
Fe157 O174 1.997 . S
O158 Fe157 2.002 . S
O158 C175 1.295 . S
O159 Fe154 1.997 . S
O159 C175 1.235 . S
O160 Fe154 2.002 . S
O160 C161 1.295 . S
C161 O160 1.295 . S
C161 O163 1.235 . S
C162 O167 1.287 . S
C162 O168 1.255 . S
O163 Fe155 1.997 . S
O163 C161 1.235 . S
C164 O170 1.287 . S
C164 O171 1.255 . S
O165 Fe154 1.976 . S
O165 C172 1.287 . S
O166 Fe155 1.996 . S
O166 C172 1.255 . S
O167 Fe157 1.976 . S
O167 C162 1.287 . S
O168 Fe154 1.996 . S
O168 C162 1.255 . S
C169 O173 1.295 . S
C169 O174 1.235 . S
O170 Fe155 1.976 . S
O170 C164 1.287 . S
O171 Fe157 1.996 . S
O171 C164 1.255 . S
C172 O165 1.287 . S
C172 O166 1.255 . S
O173 Fe155 2.002 . S
O173 C169 1.295 . S
O174 Fe157 1.997 . S
O174 C169 1.235 . S
C175 O158 1.295 . S
C175 O159 1.235 . S
Fe176 O178 1.918 . S
Fe176 O181 1.997 . S
Fe176 O182 2.002 . S
Fe176 O187 1.976 . S
Fe176 O190 1.996 . S
Fe177 O178 1.918 . S
Fe177 O185 1.997 . S
Fe177 O188 1.996 . S
Fe177 O192 1.976 . S
Fe177 O195 2.002 . S
O178 Fe176 1.918 . S
O178 Fe177 1.918 . S
O178 Fe179 1.918 . S
Fe179 O178 1.918 . S
Fe179 O180 2.002 1_554 S
Fe179 O189 1.976 . S
Fe179 O193 1.996 . S
Fe179 O196 1.997 1_554 S
O180 Fe179 2.002 1_556 S
O180 C197 1.295 1_556 S
O181 Fe176 1.997 . S
O181 C197 1.235 . S
O182 Fe176 2.002 . S
O182 C183 1.295 . S
C183 O182 1.295 . S
C183 O185 1.235 . S
C184 O189 1.287 . S
C184 O190 1.255 . S
O185 Fe177 1.997 . S
O185 C183 1.235 . S
C186 O192 1.287 . S
C186 O193 1.255 . S
O187 Fe176 1.976 . S
O187 C194 1.287 . S
O188 Fe177 1.996 . S
O188 C194 1.255 . S
O189 Fe179 1.976 . S
O189 C184 1.287 . S
O190 Fe176 1.996 . S
O190 C184 1.255 . S
C191 O195 1.295 1_556 S
C191 O196 1.235 . S
O192 Fe177 1.976 . S
O192 C186 1.287 . S
O193 Fe179 1.996 . S
O193 C186 1.255 . S
C194 O187 1.287 . S
C194 O188 1.255 . S
O195 Fe177 2.002 . S
O195 C191 1.295 1_554 S
O196 Fe179 1.997 1_556 S
O196 C191 1.235 . S
C197 O180 1.295 1_554 S
C197 O181 1.235 . S
Fe198 O200 1.918 . S
Fe198 O203 1.997 1_554 S
Fe198 O204 2.002 1_554 S
Fe198 O209 1.976 . S
Fe198 O212 1.996 . S
Fe199 O200 1.918 . S
Fe199 O207 1.997 . S
Fe199 O210 1.996 . S
Fe199 O214 1.976 . S
Fe199 O217 2.002 . S
O200 Fe198 1.918 . S
O200 Fe199 1.918 . S
O200 Fe201 1.918 . S
Fe201 O200 1.918 . S
Fe201 O202 2.002 . S
Fe201 O211 1.976 . S
Fe201 O215 1.996 . S
Fe201 O218 1.997 . S
O202 Fe201 2.002 . S
O202 C219 1.295 1_554 S
O203 Fe198 1.997 1_556 S
O203 C219 1.235 . S
O204 Fe198 2.002 1_556 S
O204 C205 1.295 1_556 S
C205 O204 1.295 1_554 S
C205 O207 1.235 . S
C206 O211 1.287 . S
C206 O212 1.255 . S
O207 Fe199 1.997 . S
O207 C205 1.235 . S
C208 O214 1.287 . S
C208 O215 1.255 . S
O209 Fe198 1.976 . S
O209 C216 1.287 . S
O210 Fe199 1.996 . S
O210 C216 1.255 . S
O211 Fe201 1.976 . S
O211 C206 1.287 . S
O212 Fe198 1.996 . S
O212 C206 1.255 . S
C213 O217 1.295 . S
C213 O218 1.235 . S
O214 Fe199 1.976 . S
O214 C208 1.287 . S
O215 Fe201 1.996 . S
O215 C208 1.255 . S
C216 O209 1.287 . S
C216 O210 1.255 . S
O217 Fe199 2.002 . S
O217 C213 1.295 . S
O218 Fe201 1.997 . S
O218 C213 1.235 . S
C219 O202 1.295 1_556 S
C219 O203 1.235 . S
Fe220 O222 1.918 . S
Fe220 O225 1.997 . S
Fe220 O226 2.002 . S
Fe220 O231 1.976 . S
Fe220 O234 1.996 . S
Fe221 O222 1.918 . S
Fe221 O229 1.997 . S
Fe221 O232 1.996 . S
Fe221 O236 1.976 . S
Fe221 O239 2.002 . S
O222 Fe220 1.918 . S
O222 Fe221 1.918 . S
O222 Fe223 1.918 . S
Fe223 O222 1.918 . S
Fe223 O224 2.002 . S
Fe223 O233 1.976 . S
Fe223 O237 1.996 . S
Fe223 O240 1.997 . S
O224 Fe223 2.002 . S
O224 C241 1.295 . S
O225 Fe220 1.997 . S
O225 C241 1.235 . S
O226 Fe220 2.002 . S
O226 C227 1.295 . S
C227 O226 1.295 . S
C227 O229 1.235 . S
C228 O233 1.287 . S
C228 O234 1.255 . S
O229 Fe221 1.997 . S
O229 C227 1.235 . S
C230 O236 1.287 . S
C230 O237 1.255 . S
O231 Fe220 1.976 . S
O231 C238 1.287 . S
O232 Fe221 1.996 . S
O232 C238 1.255 . S
O233 Fe223 1.976 . S
O233 C228 1.287 . S
O234 Fe220 1.996 . S
O234 C228 1.255 . S
C235 O239 1.295 . S
C235 O240 1.235 . S
O236 Fe221 1.976 . S
O236 C230 1.287 . S
O237 Fe223 1.996 . S
O237 C230 1.255 . S
C238 O231 1.287 . S
C238 O232 1.255 . S
O239 Fe221 2.002 . S
O239 C235 1.295 . S
O240 Fe223 1.997 . S
O240 C235 1.235 . S
C241 O224 1.295 . S
C241 O225 1.235 . S
Fe242 O244 1.918 . S
Fe242 O247 1.997 . S
Fe242 O248 2.002 . S
Fe242 O253 1.976 . S
Fe242 O256 1.996 . S
Fe243 O244 1.918 . S
Fe243 O251 1.997 . S
Fe243 O254 1.996 . S
Fe243 O258 1.976 . S
Fe243 O261 2.002 . S
O244 Fe242 1.918 . S
O244 Fe243 1.918 . S
O244 Fe245 1.918 . S
Fe245 O244 1.918 . S
Fe245 O246 2.002 . S
Fe245 O255 1.976 . S
Fe245 O259 1.996 . S
Fe245 O262 1.997 . S
O246 Fe245 2.002 . S
O246 C263 1.295 . S
O247 Fe242 1.997 . S
O247 C263 1.235 . S
O248 Fe242 2.002 . S
O248 C249 1.295 . S
C249 O248 1.295 . S
C249 O251 1.235 . S
C250 O255 1.287 . S
C250 O256 1.255 . S
O251 Fe243 1.997 . S
O251 C249 1.235 . S
C252 O258 1.287 . S
C252 O259 1.255 . S
O253 Fe242 1.976 . S
O253 C260 1.287 . S
O254 Fe243 1.996 . S
O254 C260 1.255 . S
O255 Fe245 1.976 . S
O255 C250 1.287 . S
O256 Fe242 1.996 . S
O256 C250 1.255 . S
C257 O261 1.295 . S
C257 O262 1.235 . S
O258 Fe243 1.976 . S
O258 C252 1.287 . S
O259 Fe245 1.996 . S
O259 C252 1.255 . S
C260 O253 1.287 . S
C260 O254 1.255 . S
O261 Fe243 2.002 . S
O261 C257 1.295 . S
O262 Fe245 1.997 . S
O262 C257 1.235 . S
C263 O246 1.295 . S
C263 O247 1.235 . S
Fe264 O266 1.918 . S
Fe264 O269 1.997 . S
Fe264 O270 2.002 . S
Fe264 O275 1.976 . S
Fe264 O278 1.996 . S
Fe265 O266 1.918 . S
Fe265 O273 1.997 . S
Fe265 O276 1.996 . S
Fe265 O280 1.976 . S
Fe265 O283 2.002 1_545 S
O266 Fe264 1.918 . S
O266 Fe265 1.918 . S
O266 Fe267 1.918 . S
Fe267 O266 1.918 . S
Fe267 O268 2.002 1_556 S
Fe267 O277 1.976 . S
Fe267 O281 1.996 . S
Fe267 O284 1.997 1_556 S
O268 Fe267 2.002 1_554 S
O268 C285 1.295 . S
O269 Fe264 1.997 . S
O269 C285 1.235 1_556 S
O270 Fe264 2.002 . S
O270 C271 1.295 . S
C271 O270 1.295 . S
C271 O273 1.235 . S
C272 O277 1.287 . S
C272 O278 1.255 . S
O273 Fe265 1.997 . S
O273 C271 1.235 . S
C274 O280 1.287 . S
C274 O281 1.255 . S
O275 Fe264 1.976 . S
O275 C282 1.287 . S
O276 Fe265 1.996 . S
O276 C282 1.255 . S
O277 Fe267 1.976 . S
O277 C272 1.287 . S
O278 Fe264 1.996 . S
O278 C272 1.255 . S
C279 O283 1.295 1_545 S
C279 O284 1.235 1_556 S
O280 Fe265 1.976 . S
O280 C274 1.287 . S
O281 Fe267 1.996 . S
O281 C274 1.255 . S
C282 O275 1.287 . S
C282 O276 1.255 . S
O283 Fe265 2.002 1_565 S
O283 C279 1.295 1_565 S
O284 Fe267 1.997 1_554 S
O284 C279 1.235 1_554 S
C285 O268 1.295 . S
C285 O269 1.235 1_554 S
Fe286 O288 1.918 . S
Fe286 O291 1.997 . S
Fe286 O292 2.002 1_565 S
Fe286 O297 1.976 . S
Fe286 O300 1.996 . S
Fe287 O288 1.918 . S
Fe287 O295 1.997 1_556 S
Fe287 O298 1.996 . S
Fe287 O302 1.976 . S
Fe287 O305 2.002 1_556 S
O288 Fe286 1.918 . S
O288 Fe287 1.918 . S
O288 Fe289 1.918 . S
Fe289 O288 1.918 . S
Fe289 O290 2.002 . S
Fe289 O299 1.976 . S
Fe289 O303 1.996 . S
Fe289 O306 1.997 . S
O290 Fe289 2.002 . S
O290 C307 1.295 . S
O291 Fe286 1.997 . S
O291 C307 1.235 . S
O292 Fe286 2.002 1_545 S
O292 C293 1.295 1_545 S
C293 O292 1.295 1_565 S
C293 O295 1.235 1_556 S
C294 O299 1.287 . S
C294 O300 1.255 . S
O295 Fe287 1.997 1_554 S
O295 C293 1.235 1_554 S
C296 O302 1.287 . S
C296 O303 1.255 . S
O297 Fe286 1.976 . S
O297 C304 1.287 . S
O298 Fe287 1.996 . S
O298 C304 1.255 . S
O299 Fe289 1.976 . S
O299 C294 1.287 . S
O300 Fe286 1.996 . S
O300 C294 1.255 . S
C301 O305 1.295 . S
C301 O306 1.235 1_554 S
O302 Fe287 1.976 . S
O302 C296 1.287 . S
O303 Fe289 1.996 . S
O303 C296 1.255 . S
C304 O297 1.287 . S
C304 O298 1.255 . S
O305 Fe287 2.002 1_554 S
O305 C301 1.295 . S
O306 Fe289 1.997 . S
O306 C301 1.235 1_556 S
C307 O290 1.295 . S
C307 O291 1.235 . S
Fe308 O310 1.918 . S
Fe308 O313 1.997 . S
Fe308 O314 2.002 1_565 S
Fe308 O319 1.976 . S
Fe308 O322 1.996 . S
Fe309 O310 1.918 . S
Fe309 O317 1.997 . S
Fe309 O320 1.996 . S
Fe309 O324 1.976 . S
Fe309 O327 2.002 . S
O310 Fe308 1.918 . S
O310 Fe309 1.918 . S
O310 Fe311 1.918 . S
Fe311 O310 1.918 . S
Fe311 O312 2.002 . S
Fe311 O321 1.976 . S
Fe311 O325 1.996 . S
Fe311 O328 1.997 . S
O312 Fe311 2.002 . S
O312 C329 1.295 . S
O313 Fe308 1.997 . S
O313 C329 1.235 . S
O314 Fe308 2.002 1_545 S
O314 C315 1.295 1_545 S
C315 O314 1.295 1_565 S
C315 O317 1.235 . S
C316 O321 1.287 . S
C316 O322 1.255 . S
O317 Fe309 1.997 . S
O317 C315 1.235 . S
C318 O324 1.287 . S
C318 O325 1.255 . S
O319 Fe308 1.976 . S
O319 C326 1.287 . S
O320 Fe309 1.996 . S
O320 C326 1.255 . S
O321 Fe311 1.976 . S
O321 C316 1.287 . S
O322 Fe308 1.996 . S
O322 C316 1.255 . S
C323 O327 1.295 . S
C323 O328 1.235 . S
O324 Fe309 1.976 . S
O324 C318 1.287 . S
O325 Fe311 1.996 . S
O325 C318 1.255 . S
C326 O319 1.287 . S
C326 O320 1.255 . S
O327 Fe309 2.002 . S
O327 C323 1.295 . S
O328 Fe311 1.997 . S
O328 C323 1.235 . S
C329 O312 1.295 . S
C329 O313 1.235 . S
Fe330 O332 1.918 . S
Fe330 O335 1.997 . S
Fe330 O336 2.002 1_545 S
Fe330 O341 1.976 . S
Fe330 O344 1.996 . S
Fe331 O332 1.918 . S
Fe331 O339 1.997 . S
Fe331 O342 1.996 . S
Fe331 O346 1.976 . S
Fe331 O349 2.002 . S
O332 Fe330 1.918 . S
O332 Fe331 1.918 . S
O332 Fe333 1.918 . S
Fe333 O332 1.918 . S
Fe333 O334 2.002 . S
Fe333 O343 1.976 . S
Fe333 O347 1.996 . S
Fe333 O350 1.997 . S
O334 Fe333 2.002 . S
O334 C351 1.295 . S
O335 Fe330 1.997 . S
O335 C351 1.235 . S
O336 Fe330 2.002 1_565 S
O336 C337 1.295 1_565 S
C337 O336 1.295 1_545 S
C337 O339 1.235 . S
C338 O343 1.287 . S
C338 O344 1.255 . S
O339 Fe331 1.997 . S
O339 C337 1.235 . S
C340 O346 1.287 . S
C340 O347 1.255 . S
O341 Fe330 1.976 . S
O341 C348 1.287 . S
O342 Fe331 1.996 . S
O342 C348 1.255 . S
O343 Fe333 1.976 . S
O343 C338 1.287 . S
O344 Fe330 1.996 . S
O344 C338 1.255 . S
C345 O349 1.295 . S
C345 O350 1.235 . S
O346 Fe331 1.976 . S
O346 C340 1.287 . S
O347 Fe333 1.996 . S
O347 C340 1.255 . S
C348 O341 1.287 . S
C348 O342 1.255 . S
O349 Fe331 2.002 . S
O349 C345 1.295 . S
O350 Fe333 1.997 . S
O350 C345 1.235 . S
C351 O334 1.295 . S
C351 O335 1.235 . S
C10 C293 1.959 1_544 S
C279 C30 1.959 1_546 S
C337 C54 1.959 1_545 S
C315 C74 1.959 1_565 S
C205 C106 1.988 1_544 S
C128 C197 1.988 1_546 S
C263 C142 1.988 1_565 S
C164 C235 1.988 1_565 S
C131 C186 1.959 1_556 S
C206 C109 1.959 1_554 S
C161 C238 1.959 . S
C139 C252 1.959 . S
C272 C29 1.988 1_556 S
C21 C296 1.988 1_554 S
C318 C73 1.988 . S
C65 C340 1.988 . S
C228 C18 1.465 . S
C32 C260 1.465 . S
C194 C62 1.465 . S
C208 C76 1.465 . S
C316 C98 1.451 . S
C120 C338 1.451 . S
C140 C282 1.451 . S
C294 C162 1.451 . S
C7 C37 1.984 . S
C51 C81 1.984 . S
C103 C125 2.014 . S
C175 C153 2.014 . S
C213 C183 1.984 1_545 S
C241 C249 1.984 1_545 S
C307 C271 2.014 1_565 S
C329 C351 2.014 1_565 S
C285 C15 1.308 1_554 S
C43 C301 1.308 1_556 S
C59 C323 1.308 . S
C87 C345 1.308 . S
C95 C191 1.308 1_554 S
C117 C219 1.308 1_554 S
C147 C227 1.308 . S
C257 C169 1.308 . S
C8 C216 1.988 1_455 S
C40 C184 1.988 . S
C250 C52 1.988 . S
C230 C84 1.988 1_455 S
C96 C304 1.918 1_655 S
C118 C274 1.918 . S
C348 C150 1.918 . S
C172 C326 1.918 1_455 S
