# Generated by pormake.
# Topology sow, (4)-cn, num edge types: 1
# Building blocks:
#     Node 0, Type 0, BuildingBlock: QUQFOY_clean_sbu_1, # of connection points: 4
#     Node 1, Type 0, BuildingBlock: QUQFOY_clean_sbu_1, # of connection points: 4
#     Node 2, Type 0, BuildingBlock: QUQFOY_clean_sbu_1, # of connection points: 4
#     Node 3, Type 0, BuildingBlock: QUQFOY_clean_sbu_1, # of connection points: 4
#     Node 4, Type 0, BuildingBlock: QUQFOY_clean_sbu_1, # of connection points: 4
#     Node 5, Type 0, BuildingBlock: QUQFOY_clean_sbu_1, # of connection points: 4
#     Node 6, Type 0, BuildingBlock: QUQFOY_clean_sbu_1, # of connection points: 4
#     Node 7, Type 0, BuildingBlock: QUQFOY_clean_sbu_1, # of connection points: 4
#     Edge 8, Type (0, 0), BuildingBlock: ZUJKAS_clean_linker_0, # of connection points: 2
#     Edge 9, Type (0, 0), BuildingBlock: ZUJKAS_clean_linker_0, # of connection points: 2
#     Edge 10, Type (0, 0), BuildingBlock: ZUJKAS_clean_linker_0, # of connection points: 2
#     Edge 11, Type (0, 0), BuildingBlock: ZUJKAS_clean_linker_0, # of connection points: 2
#     Edge 12, Type (0, 0), BuildingBlock: ZUJKAS_clean_linker_0, # of connection points: 2
#     Edge 13, Type (0, 0), BuildingBlock: ZUJKAS_clean_linker_0, # of connection points: 2
#     Edge 14, Type (0, 0), BuildingBlock: ZUJKAS_clean_linker_0, # of connection points: 2
#     Edge 15, Type (0, 0), BuildingBlock: ZUJKAS_clean_linker_0, # of connection points: 2
#     Edge 16, Type (0, 0), BuildingBlock: ZUJKAS_clean_linker_0, # of connection points: 2
#     Edge 17, Type (0, 0), BuildingBlock: ZUJKAS_clean_linker_0, # of connection points: 2
#     Edge 18, Type (0, 0), BuildingBlock: ZUJKAS_clean_linker_0, # of connection points: 2
#     Edge 19, Type (0, 0), BuildingBlock: ZUJKAS_clean_linker_0, # of connection points: 2
#     Edge 20, Type (0, 0), BuildingBlock: ZUJKAS_clean_linker_0, # of connection points: 2
#     Edge 21, Type (0, 0), BuildingBlock: ZUJKAS_clean_linker_0, # of connection points: 2
#     Edge 22, Type (0, 0), BuildingBlock: ZUJKAS_clean_linker_0, # of connection points: 2
#     Edge 23, Type (0, 0), BuildingBlock: ZUJKAS_clean_linker_0, # of connection points: 2
# Relax obj value: 0.078
# Max RMSD: 0.127
# Mean RMSD: 0.127
data_MOF--net-sow--node1-QUQFOY_clean_sbu_1--edge1-ZUJKAS_clean_linker_0
_symmetry_space_group_name_H-M    P1
_symmetry_Int_Tables_number       1
_symmetry_cell_setting            triclinic
loop_
_symmetry_equiv_pos_as_xyz
'x, y, z'
_cell_length_a     45.578548
_cell_length_b     46.607173
_cell_length_c     30.797318
_cell_angle_alpha  90.009966
_cell_angle_beta   89.989418
_cell_angle_gamma 90.031207
loop_
_atom_site_label
_atom_site_type_symbol
_atom_site_fract_x
_atom_site_fract_y
_atom_site_fract_z
_atom_type_partial_charge
O0 O 0.17663 0.22072 0.05789 0.0
Cd1 Cd 0.14198 0.23084 0.01794 0.0
Cd2 Cd 0.12244 0.17615 0.05387 0.0
O3 O 0.16404 0.1776 0.08139 0.0
O4 O 0.15708 0.26487 0.98557 0.0
O5 O 0.14483 0.22441 0.95307 0.0
C6 C 0.15508 0.25019 0.95029 0.0
C7 C 0.10038 0.13171 0.03701 0.0
C8 C 0.182 0.19855 0.08057 0.0
C9 C 0.08841 0.23161 0.0735 0.0
O10 O 0.09246 0.20484 0.07861 0.0
O11 O 0.10515 0.24624 0.04904 0.0
O12 O 0.10581 0.13924 0.07637 0.0
O13 O 0.10891 0.14879 0.0065 0.0
O14 O 0.32601 0.30599 0.55728 0.0
Cd15 Cd 0.36074 0.29463 0.51844 0.0
Cd16 Cd 0.38223 0.34912 0.55284 0.0
O17 O 0.34123 0.34782 0.58267 0.0
O18 O 0.34525 0.26099 0.48563 0.0
O19 O 0.35936 0.30102 0.45352 0.0
C20 C 0.34847 0.27551 0.45039 0.0
C21 C 0.40391 0.3938 0.53614 0.0
C22 C 0.32208 0.32791 0.58113 0.0
C23 C 0.41506 0.29305 0.57232 0.0
O24 O 0.41278 0.32014 0.57528 0.0
O25 O 0.39654 0.27839 0.55097 0.0
O26 O 0.39949 0.38572 0.57552 0.0
O27 O 0.39468 0.37709 0.50561 0.0
O28 O 0.68036 0.30753 0.94341 0.0
Cd29 Cd 0.64593 0.2958 0.98252 0.0
Cd30 Cd 0.62252 0.34847 0.94443 0.0
O31 O 0.66308 0.34713 0.91323 0.0
O32 O 0.66282 0.26349 0.01678 0.0
O33 O 0.64663 0.30334 0.04716 0.0
C34 C 0.65868 0.27842 0.05139 0.0
C35 C 0.60057 0.3931 0.96029 0.0
C36 C 0.68321 0.32834 0.91709 0.0
C37 C 0.59113 0.29106 0.92997 0.0
O38 O 0.59217 0.31814 0.92551 0.0
O39 O 0.61071 0.27758 0.95097 0.0
O40 O 0.60406 0.38429 0.92105 0.0
O41 O 0.61079 0.37714 0.99103 0.0
O42 O 0.82884 0.21964 0.44388 0.0
Cd43 Cd 0.86425 0.23018 0.48202 0.0
Cd44 Cd 0.88363 0.17604 0.44441 0.0
O45 O 0.8419 0.17746 0.41726 0.0
O46 O 0.84917 0.2638 0.51538 0.0
O47 O 0.86301 0.2235 0.54688 0.0
C48 C 0.85221 0.24901 0.55038 0.0
C49 C 0.90576 0.13182 0.462 0.0
C50 C 0.82351 0.19794 0.42016 0.0
C51 C 0.91703 0.23178 0.42468 0.0
O52 O 0.91339 0.20495 0.41968 0.0
O53 O 0.90023 0.24619 0.44934 0.0
O54 O 0.90045 0.13908 0.42248 0.0
O55 O 0.89707 0.14906 0.49221 0.0
O56 O 0.82483 0.80726 0.94224 0.0
Cd57 Cd 0.85905 0.79551 0.98168 0.0
Cd58 Cd 0.88174 0.84933 0.94677 0.0
O59 O 0.84085 0.8487 0.91652 0.0
O60 O 0.84233 0.76303 0.01583 0.0
O61 O 0.85806 0.80309 0.04625 0.0
C62 C 0.84615 0.77808 0.05044 0.0
C63 C 0.9045 0.89364 0.96262 0.0
C64 C 0.82137 0.82909 0.91808 0.0
C65 C 0.91351 0.79235 0.92864 0.0
O66 O 0.91173 0.81946 0.92528 0.0
O67 O 0.89458 0.77812 0.94989 0.0
O68 O 0.89997 0.88529 0.9234 0.0
O69 O 0.89475 0.87748 0.99346 0.0
O70 O 0.67471 0.72099 0.44382 0.0
Cd71 Cd 0.63974 0.73191 0.48261 0.0
Cd72 Cd 0.61894 0.67811 0.44376 0.0
O73 O 0.66045 0.67955 0.41585 0.0
O74 O 0.65546 0.76596 0.51431 0.0
O75 O 0.6418 0.72633 0.54779 0.0
C76 C 0.65274 0.75186 0.54999 0.0
C77 C 0.59683 0.63367 0.46033 0.0
C78 C 0.67935 0.69957 0.41921 0.0
C79 C 0.58629 0.73447 0.42615 0.0
O80 O 0.58919 0.7076 0.4206 0.0
O81 O 0.60376 0.74834 0.45051 0.0
O82 O 0.60176 0.64153 0.42095 0.0
O83 O 0.60578 0.65049 0.49093 0.0
O84 O 0.33235 0.72179 0.06023 0.0
Cd85 Cd 0.3664 0.73286 0.01977 0.0
Cd86 Cd 0.38811 0.67881 0.05611 0.0
O87 O 0.34697 0.67968 0.08525 0.0
O88 O 0.35007 0.76678 0.98849 0.0
O89 O 0.36311 0.72701 0.9548 0.0
C90 C 0.35215 0.75253 0.95283 0.0
C91 C 0.41016 0.63441 0.03899 0.0
C92 C 0.32814 0.69985 0.08394 0.0
C93 C 0.42081 0.73524 0.0739 0.0
O94 O 0.41802 0.70832 0.07901 0.0
O95 O 0.40296 0.74925 0.05037 0.0
O96 O 0.4057 0.6423 0.07846 0.0
O97 O 0.40086 0.65119 0.00862 0.0
O98 O 0.17981 0.80714 0.56072 0.0
Cd99 Cd 0.14611 0.79473 0.52073 0.0
Cd100 Cd 0.12195 0.84837 0.55591 0.0
O101 O 0.16241 0.84779 0.58741 0.0
O102 O 0.16327 0.76153 0.4888 0.0
O103 O 0.14832 0.80091 0.45579 0.0
C104 C 0.16006 0.77575 0.4533 0.0
C105 C 0.09953 0.89271 0.53947 0.0
C106 C 0.18245 0.82876 0.58558 0.0
C107 C 0.09057 0.79101 0.57185 0.0
O108 O 0.09166 0.81814 0.57546 0.0
O109 O 0.1103 0.77719 0.55166 0.0
O110 O 0.10318 0.88418 0.57881 0.0
O111 O 0.10991 0.87667 0.50894 0.0
H112 H 0.27659 0.28978 0.58452 0.0
H113 H 0.24176 0.28323 0.64357 0.0
H114 H 0.27562 0.35874 0.70714 0.0
H115 H 0.31119 0.36518 0.64837 0.0
H116 H 0.27689 0.31207 0.75914 0.0
H117 H 0.16673 0.32 0.68477 0.0
H118 H 0.19005 0.29545 0.65618 0.0
H119 H 0.19938 0.33298 0.65795 0.0
C120 C 0.27623 0.30548 0.61045 0.0
C121 C 0.29693 0.3279 0.61179 0.0
C122 C 0.25605 0.30178 0.64414 0.0
C123 C 0.25586 0.32059 0.6797 0.0
C124 C 0.2753 0.34401 0.67992 0.0
H125 H 0.1762 0.30408 0.93583 0.0
H126 H 0.19844 0.32285 0.86952 0.0
C127 C 0.29557 0.34773 0.64619 0.0
C128 C 0.23827 0.31353 0.7189 0.0
H129 H 0.16937 0.29578 0.75375 0.0
C130 C 0.25331 0.30897 0.75809 0.0
C131 C 0.20754 0.30916 0.71744 0.0
C132 C 0.18995 0.31493 0.6769 0.0
C133 C 0.23866 0.29936 0.79542 0.0
C134 C 0.20806 0.2945 0.79375 0.0
C135 C 0.19286 0.29942 0.75483 0.0
C136 C 0.19173 0.28407 0.83227 0.0
C137 C 0.25623 0.29358 0.83605 0.0
C138 C 0.17966 0.25635 0.8328 0.0
C139 C 0.16683 0.2455 0.87076 0.0
C140 C 0.16581 0.26228 0.90869 0.0
C141 C 0.17681 0.29048 0.90732 0.0
C142 C 0.18959 0.30127 0.86947 0.0
H143 H 0.28016 0.29253 0.82936 0.0
H144 H 0.25238 0.31111 0.85975 0.0
H145 H 0.24928 0.2731 0.85136 0.0
H146 H 0.18105 0.24279 0.80431 0.0
H147 H 0.15849 0.22373 0.87072 0.0
H148 H 0.19716 0.15901 0.14293 0.0
H149 H 0.23263 0.16565 0.2018 0.0
H150 H 0.2587 0.24685 0.14693 0.0
H151 H 0.224 0.24017 0.0876 0.0
H152 H 0.30561 0.21716 0.18327 0.0
H153 H 0.21087 0.22295 0.29675 0.0
H154 H 0.21363 0.19004 0.26672 0.0
H155 H 0.20637 0.22308 0.23859 0.0
C156 C 0.21091 0.17796 0.1428 0.0
C157 C 0.20732 0.19927 0.11088 0.0
C158 C 0.23103 0.18182 0.17667 0.0
C159 C 0.24771 0.20712 0.17936 0.0
C160 C 0.24586 0.22729 0.14572 0.0
H161 H 0.34715 0.30194 0.37071 0.0
H162 H 0.32575 0.28319 0.30339 0.0
C163 C 0.22591 0.22341 0.11181 0.0
C164 C 0.26505 0.21399 0.21882 0.0
H165 H 0.25784 0.22847 0.32699 0.0
C166 C 0.29524 0.21946 0.21478 0.0
C167 C 0.25139 0.2173 0.25982 0.0
C168 C 0.21876 0.21331 0.26588 0.0
C169 C 0.31216 0.22803 0.25072 0.0
C170 C 0.29841 0.23151 0.29155 0.0
C171 C 0.26834 0.22566 0.29566 0.0
C172 C 0.3144 0.2418 0.33052 0.0
C173 C 0.34459 0.23311 0.24483 0.0
C174 C 0.31506 0.22481 0.36807 0.0
C175 C 0.32706 0.2355 0.40652 0.0
C176 C 0.33851 0.26352 0.40833 0.0
C177 C 0.33861 0.28025 0.37034 0.0
C178 C 0.32655 0.2695 0.33177 0.0
H179 H 0.35304 0.22254 0.215 0.0
H180 H 0.34868 0.2565 0.24186 0.0
H181 H 0.35714 0.22507 0.27323 0.0
H182 H 0.30568 0.20345 0.36787 0.0
H183 H 0.32667 0.22199 0.43514 0.0
H184 H 0.77675 0.23431 0.42521 0.0
H185 H 0.74042 0.24377 0.36885 0.0
H186 H 0.77574 0.17468 0.29185 0.0
H187 H 0.81213 0.16484 0.34833 0.0
H188 H 0.75973 0.26043 0.28702 0.0
H189 H 0.68667 0.1655 0.27493 0.0
H190 H 0.7086 0.17294 0.32251 0.0
H191 H 0.72517 0.15725 0.27518 0.0
C192 C 0.77633 0.22056 0.39685 0.0
C193 C 0.79757 0.19897 0.39112 0.0
C194 C 0.75552 0.22603 0.36465 0.0
C195 C 0.75534 0.20995 0.32618 0.0
C196 C 0.77517 0.18708 0.32158 0.0
H197 H 0.68833 0.22881 0.06772 0.0
H198 H 0.70884 0.2126 0.13662 0.0
C199 C 0.79603 0.18152 0.3539 0.0
C200 C 0.73743 0.21971 0.28878 0.0
H201 H 0.68503 0.19883 0.21611 0.0
C202 C 0.74311 0.24712 0.27183 0.0
C203 C 0.71601 0.20219 0.26884 0.0
C204 C 0.7085 0.17291 0.28645 0.0
C205 C 0.72862 0.25719 0.23467 0.0
C206 C 0.70727 0.23963 0.21447 0.0
C207 C 0.70126 0.21234 0.23179 0.0
C208 C 0.69241 0.24856 0.17376 0.0
C209 C 0.73727 0.28603 0.21637 0.0
C210 C 0.67569 0.27386 0.17189 0.0
C211 C 0.66412 0.2834 0.13231 0.0
C212 C 0.66878 0.26758 0.09406 0.0
C213 C 0.68442 0.24161 0.09651 0.0
C214 C 0.69611 0.23222 0.13593 0.0
H215 H 0.75871 0.29349 0.22934 0.0
H216 H 0.7387 0.28524 0.18039 0.0
H217 H 0.72044 0.30216 0.22538 0.0
H218 H 0.67203 0.2865 0.20089 0.0
H219 H 0.65195 0.30335 0.13158 0.0
H220 H 0.69043 0.35939 0.84196 0.0
H221 H 0.72632 0.35007 0.78433 0.0
H222 H 0.76822 0.28643 0.8646 0.0
H223 H 0.73263 0.29545 0.92223 0.0
H224 H 0.79358 0.3462 0.78218 0.0
H225 H 0.73352 0.24383 0.75403 0.0
H226 H 0.71764 0.27342 0.78369 0.0
H227 H 0.74473 0.25103 0.80895 0.0
C228 C 0.70775 0.34399 0.84786 0.0
C229 C 0.70838 0.32788 0.88651 0.0
C230 C 0.72821 0.33866 0.81484 0.0
C231 C 0.74955 0.31725 0.82007 0.0
C232 C 0.75167 0.30281 0.85984 0.0
H233 H 0.85407 0.22324 0.63047 0.0
H234 H 0.83283 0.24111 0.69841 0.0
C235 C 0.73129 0.30806 0.89275 0.0
C236 C 0.76748 0.30773 0.78264 0.0
H237 H 0.77537 0.25221 0.71132 0.0
C238 C 0.78971 0.32566 0.76663 0.0
C239 C 0.76235 0.28089 0.76261 0.0
C240 C 0.73815 0.26117 0.77784 0.0
C241 C 0.80718 0.31727 0.73116 0.0
C242 C 0.80177 0.29053 0.71074 0.0
C243 C 0.77965 0.27259 0.72712 0.0
C244 C 0.81759 0.2812 0.67099 0.0
C245 C 0.8315 0.33692 0.71634 0.0
C246 C 0.81624 0.29781 0.63306 0.0
C247 C 0.82844 0.28772 0.59436 0.0
C248 C 0.84197 0.26061 0.59256 0.0
C249 C 0.84386 0.24422 0.63077 0.0
C250 C 0.83172 0.25441 0.6696 0.0
H251 H 0.83881 0.35138 0.74292 0.0
H252 H 0.85071 0.32455 0.70447 0.0
H253 H 0.82336 0.35054 0.68937 0.0
H254 H 0.80481 0.31817 0.63295 0.0
H255 H 0.82644 0.30085 0.5655 0.0
H256 H 0.81644 0.72843 0.06664 0.0
H257 H 0.79525 0.7125 0.13528 0.0
H258 H 0.83148 0.78669 0.19959 0.0
H259 H 0.85222 0.80326 0.13055 0.0
H260 H 0.81808 0.69904 0.21533 0.0
H261 H 0.74463 0.79388 0.22626 0.0
H262 H 0.76511 0.78544 0.17783 0.0
H263 H 0.78294 0.80255 0.22305 0.0
C264 C 0.82008 0.74134 0.09539 0.0
C265 C 0.83575 0.76732 0.09302 0.0
C266 C 0.808 0.73212 0.13466 0.0
C267 C 0.81132 0.74863 0.17241 0.0
C268 C 0.82809 0.77393 0.17063 0.0
H269 H 0.72642 0.73568 0.42362 0.0
H270 H 0.76265 0.74478 0.36697 0.0
C271 C 0.84005 0.7833 0.13121 0.0
C272 C 0.79604 0.73989 0.2129 0.0
H273 H 0.74322 0.76123 0.28453 0.0
C274 C 0.8018 0.71267 0.23061 0.0
C275 C 0.77462 0.75761 0.23259 0.0
C276 C 0.76619 0.78638 0.21382 0.0
C277 C 0.78677 0.70276 0.26759 0.0
C278 C 0.76533 0.72047 0.28707 0.0
C279 C 0.75986 0.74779 0.26969 0.0
C280 C 0.74728 0.71101 0.32452 0.0
C281 C 0.79402 0.67355 0.28565 0.0
C282 C 0.7272 0.68833 0.3201 0.0
C283 C 0.70636 0.683 0.35257 0.0
C284 C 0.70513 0.70048 0.38979 0.0
C285 C 0.72659 0.72191 0.39529 0.0
C286 C 0.74736 0.72717 0.36292 0.0
H287 H 0.81574 0.66584 0.27415 0.0
H288 H 0.79399 0.67387 0.32171 0.0
H289 H 0.77713 0.65796 0.27479 0.0
H290 H 0.72645 0.67587 0.29043 0.0
H291 H 0.6901 0.66643 0.34717 0.0
H292 H 0.65334 0.72704 0.63091 0.0
H293 H 0.67569 0.74635 0.6972 0.0
H294 H 0.69895 0.82378 0.62875 0.0
H295 H 0.67689 0.80472 0.56256 0.0
H296 H 0.74598 0.79675 0.67151 0.0
H297 H 0.65065 0.81113 0.78162 0.0
H298 H 0.6531 0.77654 0.75605 0.0
H299 H 0.64678 0.80787 0.72343 0.0
C300 C 0.66279 0.74835 0.63017 0.0
C301 C 0.6634 0.76428 0.5914 0.0
C302 C 0.67541 0.75943 0.66814 0.0
C303 C 0.68872 0.78663 0.66798 0.0
C304 C 0.68866 0.80282 0.62963 0.0
H305 H 0.81012 0.86742 0.85219 0.0
H306 H 0.77497 0.86133 0.79274 0.0
C307 C 0.67604 0.79184 0.5918 0.0
C308 C 0.70511 0.79714 0.70644 0.0
H309 H 0.69809 0.81526 0.81341 0.0
C310 C 0.7355 0.80112 0.70244 0.0
C311 C 0.69134 0.80268 0.74671 0.0
C312 C 0.65863 0.7996 0.75233 0.0
C313 C 0.75271 0.80955 0.73798 0.0
C314 C 0.73903 0.81494 0.77847 0.0
C315 C 0.70851 0.81138 0.7823 0.0
C316 C 0.75647 0.82189 0.81783 0.0
C317 C 0.78557 0.81135 0.73225 0.0
C318 C 0.75634 0.80286 0.85308 0.0
C319 C 0.77607 0.80649 0.88733 0.0
C320 C 0.79645 0.82921 0.88701 0.0
C321 C 0.79494 0.84956 0.85333 0.0
C322 C 0.77502 0.84597 0.81912 0.0
H323 H 0.79302 0.80021 0.70231 0.0
H324 H 0.79217 0.8342 0.72968 0.0
H325 H 0.79714 0.8018 0.76048 0.0
H326 H 0.74205 0.78427 0.853 0.0
H327 H 0.77635 0.79052 0.91289 0.0
H328 H 0.32894 0.80579 0.94031 0.0
H329 H 0.30582 0.82468 0.87479 0.0
H330 H 0.32592 0.74626 0.80683 0.0
H331 H 0.34934 0.72706 0.87247 0.0
H332 H 0.33577 0.80079 0.75832 0.0
H333 H 0.22514 0.79176 0.83356 0.0
H334 H 0.25229 0.81072 0.86471 0.0
H335 H 0.25673 0.77302 0.85465 0.0
C336 C 0.32873 0.79258 0.91137 0.0
C337 C 0.34077 0.76478 0.91174 0.0
C338 C 0.31545 0.80344 0.87397 0.0
C339 C 0.31385 0.78673 0.83622 0.0
C340 C 0.32689 0.75945 0.83577 0.0
H341 H 0.22963 0.7927 0.5883 0.0
H342 H 0.26443 0.78683 0.64751 0.0
C343 C 0.34021 0.74851 0.87328 0.0
C344 C 0.29713 0.79715 0.7981 0.0
H345 H 0.22762 0.81228 0.76395 0.0
C346 C 0.31214 0.80339 0.75946 0.0
C347 C 0.26634 0.80068 0.79988 0.0
C348 C 0.24903 0.79353 0.84025 0.0
C349 C 0.29709 0.81312 0.72241 0.0
C350 C 0.26618 0.81607 0.7239 0.0
C351 C 0.25132 0.81025 0.76286 0.0
C352 C 0.24834 0.82288 0.68485 0.0
C353 C 0.31447 0.82035 0.68219 0.0
C354 C 0.22775 0.84531 0.68574 0.0
C355 C 0.20748 0.84861 0.65193 0.0
C356 C 0.2073 0.82934 0.61675 0.0
C357 C 0.22907 0.80795 0.61484 0.0
C358 C 0.24923 0.80466 0.64862 0.0
H359 H 0.33737 0.82646 0.69042 0.0
H360 H 0.31543 0.8012 0.66083 0.0
H361 H 0.30418 0.83819 0.66378 0.0
H362 H 0.22658 0.85956 0.71349 0.0
H363 H 0.19102 0.86526 0.65454 0.0
H364 H 0.28438 0.73972 0.08991 0.0
H365 H 0.24993 0.74612 0.14963 0.0
H366 H 0.28013 0.66735 0.20778 0.0
H367 H 0.31536 0.66103 0.1485 0.0
H368 H 0.20474 0.71519 0.18819 0.0
H369 H 0.29993 0.72747 0.2996 0.0
H370 H 0.304 0.72659 0.24139 0.0
H371 H 0.29845 0.69386 0.2712 0.0
C372 C 0.28344 0.72342 0.11495 0.0
C373 C 0.30309 0.70011 0.11477 0.0
C374 C 0.26363 0.72713 0.14908 0.0
C375 C 0.26299 0.70761 0.18369 0.0
C376 C 0.28078 0.68304 0.18185 0.0
H377 H 0.18449 0.72317 0.43963 0.0
H378 H 0.20628 0.70471 0.37288 0.0
C379 C 0.30076 0.67934 0.14776 0.0
C380 C 0.24566 0.71453 0.22314 0.0
H381 H 0.25296 0.73142 0.33049 0.0
C382 C 0.21522 0.71858 0.21939 0.0
C383 C 0.25945 0.71926 0.26371 0.0
C384 C 0.29227 0.71685 0.26935 0.0
C385 C 0.19819 0.72709 0.25524 0.0
C386 C 0.21206 0.73197 0.29564 0.0
C387 C 0.24239 0.72756 0.29948 0.0
C388 C 0.19585 0.74216 0.33445 0.0
C389 C 0.16551 0.73062 0.24973 0.0
C390 C 0.18253 0.76933 0.33493 0.0
C391 C 0.17003 0.78005 0.37321 0.0
C392 C 0.17083 0.7638 0.41166 0.0
C393 C 0.18353 0.7363 0.41065 0.0
C394 C 0.19599 0.72565 0.3725 0.0
H395 H 0.15736 0.7193 0.22035 0.0
H396 H 0.15355 0.72238 0.27857 0.0
H397 H 0.16032 0.75376 0.2462 0.0
H398 H 0.18269 0.78266 0.30613 0.0
H399 H 0.16052 0.80134 0.37296 0.0
H400 H 0.08631 0.28811 0.09851 0.0
H401 H 0.05582 0.30829 0.15679 0.0
H402 H 0.01077 0.22731 0.16922 0.0
H403 H 0.04078 0.20717 0.11135 0.0
H404 H 0.97415 0.27767 0.17928 0.0
H405 H 0.07514 0.27889 0.28168 0.0
H406 H 0.07504 0.29826 0.23111 0.0
H407 H 0.07401 0.25979 0.23076 0.0
C408 C 0.0693 0.27491 0.11285 0.0
C409 C 0.06616 0.24593 0.10082 0.0
C410 C 0.05207 0.28642 0.14627 0.0
C411 C 0.03142 0.26912 0.16768 0.0
C412 C 0.02666 0.24099 0.15316 0.0
H413 H 0.96543 0.20822 0.38783 0.0
H414 H 0.9949 0.22839 0.32934 0.0
C415 C 0.0439 0.22947 0.12016 0.0
C416 C 0.01701 0.27836 0.20837 0.0
H417 H 0.02996 0.27983 0.31749 0.0
C418 C 0.98627 0.2792 0.20951 0.0
C419 C 0.03304 0.28021 0.24762 0.0
C420 C 0.06614 0.27918 0.24816 0.0
C421 C 0.97104 0.27921 0.24912 0.0
C422 C 0.98711 0.27859 0.28842 0.0
C423 C 0.01781 0.28042 0.28722 0.0
C424 C 0.97299 0.26958 0.32945 0.0
C425 C 0.938 0.27706 0.24864 0.0
C426 C 0.95182 0.28657 0.35025 0.0
C427 C 0.93492 0.27506 0.38405 0.0
C428 C 0.93891 0.24638 0.39703 0.0
C429 C 0.96167 0.23029 0.37828 0.0
C430 C 0.9786 0.24183 0.34492 0.0
H431 H 0.92901 0.27595 0.21515 0.0
H432 H 0.93078 0.2577 0.26673 0.0
H433 H 0.92845 0.29609 0.26502 0.0
H434 H 0.94741 0.30815 0.33896 0.0
H435 H 0.9175 0.28794 0.39791 0.0
H436 H 0.40672 0.24578 0.62252 0.0
H437 H 0.4363 0.23264 0.68595 0.0
H438 H 0.50165 0.29492 0.64864 0.0
H439 H 0.47143 0.30914 0.58666 0.0
H440 H 0.49288 0.21623 0.71104 0.0
H441 H 0.46767 0.32781 0.76018 0.0
H442 H 0.45105 0.31115 0.71346 0.0
H443 H 0.4873 0.32639 0.70978 0.0
C444 C 0.4279 0.2559 0.62706 0.0
C445 C 0.43672 0.27873 0.60025 0.0
C446 C 0.44473 0.24843 0.66334 0.0
C447 C 0.47068 0.26344 0.67261 0.0
C448 C 0.48128 0.28362 0.64259 0.0
H449 H 0.60197 0.25172 0.86779 0.0
H450 H 0.5685 0.23837 0.80935 0.0
C451 C 0.46415 0.2916 0.60709 0.0
C452 C 0.48417 0.26152 0.71624 0.0
H453 H 0.50318 0.30331 0.80235 0.0
C454 C 0.49498 0.23514 0.73134 0.0
C455 C 0.48581 0.28597 0.74336 0.0
C456 C 0.47204 0.31433 0.73112 0.0
C457 C 0.50878 0.23296 0.77211 0.0
C458 C 0.51247 0.258 0.79767 0.0
C459 C 0.50051 0.28402 0.78303 0.0
C460 C 0.53043 0.25888 0.83797 0.0
C461 C 0.51896 0.20388 0.7873 0.0
C462 C 0.52024 0.27429 0.87427 0.0
C463 C 0.5397 0.28293 0.90673 0.0
C464 C 0.56937 0.27531 0.90427 0.0
C465 C 0.57897 0.25733 0.87063 0.0
C466 C 0.55975 0.24954 0.83731 0.0
H467 H 0.50466 0.18662 0.77418 0.0
H468 H 0.5415 0.19995 0.77503 0.0
H469 H 0.51915 0.20234 0.82327 0.0
H470 H 0.49772 0.28168 0.87571 0.0
H471 H 0.53198 0.297 0.9323 0.0
H472 H 0.10049 0.75034 0.63252 0.0
H473 H 0.06697 0.73709 0.69097 0.0
H474 H 0.9973 0.78385 0.62756 0.0
H475 H 0.03166 0.79899 0.571 0.0
H476 H 0.00412 0.80394 0.70189 0.0
H477 H 1.00146 0.68668 0.72447 0.0
H478 H 0.0387 0.69893 0.72377 0.0
H479 H 0.01621 0.70294 0.67595 0.0
C480 C 0.0777 0.75678 0.6303 0.0
C481 C 0.0685 0.77565 0.59755 0.0
C482 C 0.05843 0.74904 0.66363 0.0
C483 C 0.02945 0.75934 0.66382 0.0
C484 C 0.01956 0.77572 0.62834 0.0
H485 H 0.90416 0.7462 0.8766 0.0
H486 H 0.93411 0.73315 0.81348 0.0
C487 C 0.03908 0.78427 0.5959 0.0
C488 C 0.01168 0.75826 0.70428 0.0
H489 H 0.99034 0.71534 0.78869 0.0
C490 C 1.00071 0.78436 0.72025 0.0
C491 C 0.00705 0.73283 0.72859 0.0
C492 C 0.01624 0.70376 0.71197 0.0
C493 C 0.98598 0.78596 0.75993 0.0
C494 C 0.98329 0.76099 0.78575 0.0
C495 C 0.99322 0.7346 0.76939 0.0
C496 C 0.96945 0.76238 0.8292 0.0
C497 C 0.97321 0.81452 0.77352 0.0
C498 C 0.98042 0.78154 0.86044 0.0
C499 C 0.96309 0.7895 0.89576 0.0
C500 C 0.93509 0.77755 0.90118 0.0
C501 C 0.9258 0.75556 0.87316 0.0
C502 C 0.94284 0.74815 0.83706 0.0
H503 H 0.9696 0.82884 0.74517 0.0
H504 H 0.95196 0.8117 0.79065 0.0
H505 H 0.98874 0.82549 0.79576 0.0
H506 H 1.00127 0.79221 0.85546 0.0
H507 H 0.9707 0.80642 0.91711 0.0
H508 H 0.41882 0.79069 0.10299 0.0
H509 H 0.44877 0.81138 0.16133 0.0
H510 H 0.50118 0.73439 0.16461 0.0
H511 H 0.47146 0.71367 0.10686 0.0
H512 H 0.44974 0.78432 0.24197 0.0
H513 H 0.56279 0.79717 0.18113 0.0
H514 H 0.53137 0.79571 0.14532 0.0
H515 H 0.54789 0.76314 0.16519 0.0
C516 C 0.43741 0.77864 0.11511 0.0
C517 C 0.44274 0.75049 0.1006 0.0
C518 C 0.45441 0.79046 0.1485 0.0
C519 C 0.47734 0.77453 0.16703 0.0
C520 C 0.48398 0.74731 0.15024 0.0
H521 H 0.53577 0.71309 0.39247 0.0
H522 H 0.50631 0.73407 0.33467 0.0
C523 C 0.46684 0.73538 0.1174 0.0
C524 C 0.49121 0.78359 0.20826 0.0
H525 H 0.558 0.78401 0.25788 0.0
C526 C 0.47341 0.78527 0.24539 0.0
C527 C 0.522 0.78531 0.21273 0.0
C528 C 0.54208 0.78555 0.17382 0.0
C529 C 0.48574 0.78531 0.28712 0.0
C530 C 0.51652 0.78341 0.29158 0.0
C531 C 0.53433 0.7851 0.25446 0.0
C532 C 0.53031 0.77416 0.33275 0.0
C533 C 0.46567 0.78554 0.32603 0.0
C534 C 0.55325 0.78996 0.35155 0.0
C535 C 0.57009 0.778 0.38498 0.0
C536 C 0.56459 0.74983 0.39924 0.0
C537 C 0.54051 0.73482 0.38212 0.0
C538 C 0.52352 0.74689 0.34926 0.0
H539 H 0.44501 0.79725 0.3188 0.0
H540 H 0.45975 0.76314 0.33456 0.0
H541 H 0.47643 0.79561 0.35458 0.0
H542 H 0.559 0.81092 0.33892 0.0
H543 H 0.58868 0.78997 0.39736 0.0
H544 H 0.07956 0.1123 0.95849 0.0
H545 H 0.04615 0.07182 0.94587 0.0
H546 H 0.04813 0.05149 0.08238 0.0
H547 H 0.08116 0.09184 0.09534 0.0
H548 H 0.05176 1.01223 0.96432 0.0
H549 H 0.96014 0.0611 0.05722 0.0
H550 H 0.99179 0.08141 0.0399 0.0
H551 H 0.994 0.05852 0.08676 0.0
C552 C 0.0731 0.09905 0.98574 0.0
C553 C 0.08289 0.10547 0.02796 0.0
C554 C 0.05395 0.07597 0.9785 0.0
C555 C 0.04413 0.05902 0.01334 0.0
C556 C 0.05484 0.06467 0.05517 0.0
H557 H 0.92465 0.91385 0.04104 0.0
H558 H 0.95834 0.95415 0.05331 0.0
C559 C 0.07393 0.08767 0.06244 0.0
C560 C 0.02249 0.03558 0.00621 0.0
H561 H 0.95372 1.01287 0.03447 0.0
C562 C 0.03027 1.01243 0.97945 0.0
C563 C 0.99447 0.03581 0.02611 0.0
C564 C 0.98441 0.06064 0.05381 0.0
C565 C 0.01102 0.98925 0.97272 0.0
C566 C 0.98298 0.9895 0.99259 0.0
C567 C 0.97521 1.01266 0.01934 0.0
C568 C 0.96131 0.96605 0.98553 0.0
C569 C 0.02119 0.96437 0.9452 0.0
C570 C 0.95103 0.95993 0.94361 0.0
C571 C 0.93183 0.937 0.93653 0.0
C572 C 0.92225 0.91977 0.9713 0.0
C573 C 0.9316 0.92666 0.01356 0.0
C574 C 0.95091 0.94964 0.02061 0.0
H575 H 0.04549 0.96376 0.94237 0.0
H576 H 0.01353 0.94363 0.95886 0.0
H577 H 0.01199 0.96661 0.91202 0.0
H578 H 0.95814 0.97272 0.91618 0.0
H579 H 0.92493 0.93246 0.90358 0.0
H580 H 0.57712 0.61362 0.53906 0.0
H581 H 0.5449 0.57231 0.55216 0.0
H582 H 0.54451 0.55349 0.41509 0.0
H583 H 0.57684 0.59428 0.40182 0.0
H584 H 0.48869 0.56409 0.51828 0.0
H585 H 0.56209 0.47527 0.46791 0.0
H586 H 0.57551 0.51096 0.47917 0.0
H587 H 0.5585 0.50302 0.42786 0.0
C588 C 0.57056 0.6004 0.51182 0.0
C589 C 0.57969 0.60722 0.46942 0.0
C590 C 0.55205 0.57687 0.51933 0.0
C591 C 0.54254 0.55957 0.48467 0.0
C592 C 0.552 0.56611 0.44247 0.0
H593 H 0.42322 0.41403 0.45729 0.0
H594 H 0.45534 0.45541 0.44408 0.0
C595 C 0.57042 0.58959 0.43493 0.0
C596 C 0.52146 0.53567 0.49212 0.0
H597 H 0.51173 0.46355 0.47793 0.0
C598 C 0.4938 0.54207 0.50975 0.0
C599 C 0.52803 0.50697 0.48067 0.0
C600 C 0.55774 0.49852 0.46322 0.0
C601 C 0.4724 0.52067 0.51556 0.0
C602 C 0.47897 0.49197 0.50408 0.0
C603 C 0.50662 0.48557 0.48645 0.0
C604 C 0.4579 0.46806 0.51158 0.0
C605 C 0.44271 0.5291 0.53307 0.0
C606 C 0.44858 0.46147 0.55383 0.0
C607 C 0.43022 0.43795 0.56143 0.0
C608 C 0.42089 0.42034 0.52696 0.0
C609 C 0.42984 0.42724 0.48451 0.0
C610 C 0.4483 0.45081 0.47694 0.0
H611 H 0.43836 0.55236 0.52847 0.0
H612 H 0.42492 0.51669 0.5171 0.0
H613 H 0.44196 0.52454 0.56842 0.0
H614 H 0.45614 0.47407 0.58119 0.0
H615 H 0.42394 0.4332 0.59458 0.0
H616 H 0.42836 0.61388 0.95972 0.0
H617 H 0.46004 0.57231 0.94582 0.0
H618 H 0.46299 0.55433 0.08307 0.0
H619 H 0.43119 0.59536 0.09715 0.0
H620 H 0.51669 0.56374 0.97689 0.0
H621 H 0.44375 0.47595 0.03261 0.0
H622 H 0.4304 0.51167 0.02157 0.0
H623 H 0.4485 0.50388 0.07211 0.0
C624 C 0.43538 0.6008 0.98685 0.0
C625 C 0.42711 0.60791 0.02953 0.0
C626 C 0.45358 0.57711 0.97888 0.0
C627 C 0.46363 0.55996 0.01334 0.0
C628 C 0.45505 0.56682 0.05585 0.0
H629 H 0.58304 0.41463 0.03925 0.0
H630 H 0.55122 0.45619 0.05252 0.0
C631 C 0.43694 0.59044 0.06384 0.0
C632 C 0.48432 0.53583 0.00534 0.0
H633 H 0.49386 0.4638 0.02085 0.0
C634 C 0.51161 0.54185 0.98619 0.0
C635 C 0.47779 0.50728 0.01777 0.0
C636 C 0.44842 0.49919 0.03679 0.0
C637 C 0.53272 0.52025 0.97987 0.0
C638 C 0.52622 0.49173 0.99243 0.0
C639 C 0.49892 0.48569 0.01151 0.0
C640 C 0.54699 0.46764 0.98471 0.0
C641 C 0.56205 0.52827 0.96066 0.0
C642 C 0.55526 0.4603 0.94226 0.0
C643 C 0.57342 0.43666 0.93462 0.0
C644 C 0.58364 0.41969 0.96926 0.0
C645 C 0.57572 0.42733 0.01187 0.0
C646 C 0.55744 0.45101 0.01949 0.0
H647 H 0.56659 0.55159 0.96408 0.0
H648 H 0.58011 0.5161 0.97634 0.0
H649 H 0.56206 0.52304 0.92551 0.0
H650 H 0.54705 0.47244 0.91485 0.0
H651 H 0.57891 0.43133 0.90136 0.0
H652 H 0.07757 0.93111 0.59793 0.0
H653 H 0.04478 0.97151 0.58404 0.0
H654 H 0.04899 0.95441 0.4466 0.0
H655 H 0.0817 0.91359 0.46026 0.0
H656 H 0.0518 0.0211 0.53358 0.0
H657 H 0.96045 0.95339 0.47219 0.0
H658 H 0.99154 0.9386 0.50075 0.0
H659 H 0.99483 0.94857 0.44461 0.0
C660 C 0.07172 0.936 0.56466 0.0
C661 C 0.08215 0.91896 0.5302 0.0
C662 C 0.05294 0.95914 0.5568 0.0
C663 C 0.04398 0.96568 0.51439 0.0
C664 C 0.05514 0.94939 0.4797 0.0
H665 H 0.92661 0.09239 0.4042 0.0
H666 H 0.95958 0.05222 0.41834 0.0
C667 C 0.07403 0.92621 0.48753 0.0
C668 C 0.02268 0.98935 0.50682 0.0
H669 H 0.9538 1.00367 0.46865 0.0
C670 C 0.03035 0.01731 0.51947 0.0
C671 C 0.99464 0.98434 0.48855 0.0
C672 C 0.98465 0.95459 0.47605 0.0
C673 C 0.01099 0.04048 0.51357 0.0
C674 C 0.98292 0.03547 0.49535 0.0
C675 C 0.97526 1.00749 0.48273 0.0
C676 C 0.96159 0.05912 0.48772 0.0
C677 C 0.0211 0.07023 0.52586 0.0
C678 C 0.951 0.07598 0.5222 0.0
C679 C 0.93206 0.0991 0.51422 0.0
C680 C 0.92322 0.10566 0.47161 0.0
C681 C 0.933 0.08804 0.43742 0.0
C682 C 0.9519 0.06502 0.44542 0.0
H683 H 0.04536 0.07144 0.52895 0.0
H684 H 0.01386 0.08627 0.50145 0.0
H685 H 0.01141 0.07616 0.55767 0.0
H686 H 0.95762 0.07144 0.55526 0.0
H687 H 0.92488 0.11216 0.54129 0.0
loop_
_geom_bond_atom_site_label_1
_geom_bond_atom_site_label_2
_geom_bond_distance
_geom_bond_site_symmetry_2
_ccdc_geom_bond_type
O0 Cd1 2.223 . S
O0 C8 1.315 . S
Cd1 O0 2.223 . S
Cd1 O4 2.297 1_554 S
Cd1 O5 2.439 1_554 S
Cd1 O11 2.240 . S
Cd2 O3 2.240 . S
Cd2 O10 2.223 . S
Cd2 O12 2.297 . S
Cd2 O13 2.439 . S
O3 Cd2 2.240 . S
O3 C8 1.279 . S
O4 Cd1 2.297 1_556 S
O4 C6 1.247 . S
O5 Cd1 2.439 1_556 S
O5 C6 1.208 . S
C6 O4 1.247 . S
C6 O5 1.208 . S
C7 O12 1.247 . S
C7 O13 1.208 . S
C8 O0 1.315 . S
C8 O3 1.279 . S
C9 O10 1.315 . S
C9 O11 1.279 . S
O10 Cd2 2.223 . S
O10 C9 1.315 . S
O11 Cd1 2.240 . S
O11 C9 1.279 . S
O12 Cd2 2.297 . S
O12 C7 1.247 . S
O13 Cd2 2.439 . S
O13 C7 1.208 . S
O14 Cd15 2.223 . S
O14 C22 1.315 . S
Cd15 O14 2.223 . S
Cd15 O18 2.297 . S
Cd15 O19 2.439 . S
Cd15 O25 2.240 . S
Cd16 O17 2.240 . S
Cd16 O24 2.223 . S
Cd16 O26 2.297 . S
Cd16 O27 2.439 . S
O17 Cd16 2.240 . S
O17 C22 1.279 . S
O18 Cd15 2.297 . S
O18 C20 1.247 . S
O19 Cd15 2.439 . S
O19 C20 1.208 . S
C20 O18 1.247 . S
C20 O19 1.208 . S
C21 O26 1.247 . S
C21 O27 1.208 . S
C22 O14 1.315 . S
C22 O17 1.279 . S
C23 O24 1.315 . S
C23 O25 1.279 . S
O24 Cd16 2.223 . S
O24 C23 1.315 . S
O25 Cd15 2.240 . S
O25 C23 1.279 . S
O26 Cd16 2.297 . S
O26 C21 1.247 . S
O27 Cd16 2.439 . S
O27 C21 1.208 . S
O28 Cd29 2.223 . S
O28 C36 1.315 . S
Cd29 O28 2.223 . S
Cd29 O32 2.297 1_556 S
Cd29 O33 2.439 1_556 S
Cd29 O39 2.240 . S
Cd30 O31 2.240 . S
Cd30 O38 2.223 . S
Cd30 O40 2.297 . S
Cd30 O41 2.439 . S
O31 Cd30 2.240 . S
O31 C36 1.279 . S
O32 Cd29 2.297 1_554 S
O32 C34 1.247 . S
O33 Cd29 2.439 1_554 S
O33 C34 1.208 . S
C34 O32 1.247 . S
C34 O33 1.208 . S
C35 O40 1.247 . S
C35 O41 1.208 . S
C36 O28 1.315 . S
C36 O31 1.279 . S
C37 O38 1.315 . S
C37 O39 1.279 . S
O38 Cd30 2.223 . S
O38 C37 1.315 . S
O39 Cd29 2.240 . S
O39 C37 1.279 . S
O40 Cd30 2.297 . S
O40 C35 1.247 . S
O41 Cd30 2.439 . S
O41 C35 1.208 . S
O42 Cd43 2.223 . S
O42 C50 1.315 . S
Cd43 O42 2.223 . S
Cd43 O46 2.297 . S
Cd43 O47 2.439 . S
Cd43 O53 2.240 . S
Cd44 O45 2.240 . S
Cd44 O52 2.223 . S
Cd44 O54 2.297 . S
Cd44 O55 2.439 . S
O45 Cd44 2.240 . S
O45 C50 1.279 . S
O46 Cd43 2.297 . S
O46 C48 1.247 . S
O47 Cd43 2.439 . S
O47 C48 1.208 . S
C48 O46 1.247 . S
C48 O47 1.208 . S
C49 O54 1.247 . S
C49 O55 1.208 . S
C50 O42 1.315 . S
C50 O45 1.279 . S
C51 O52 1.315 . S
C51 O53 1.279 . S
O52 Cd44 2.223 . S
O52 C51 1.315 . S
O53 Cd43 2.240 . S
O53 C51 1.279 . S
O54 Cd44 2.297 . S
O54 C49 1.247 . S
O55 Cd44 2.439 . S
O55 C49 1.208 . S
O56 Cd57 2.223 . S
O56 C64 1.315 . S
Cd57 O56 2.223 . S
Cd57 O60 2.297 1_556 S
Cd57 O61 2.439 1_556 S
Cd57 O67 2.240 . S
Cd58 O59 2.240 . S
Cd58 O66 2.223 . S
Cd58 O68 2.297 . S
Cd58 O69 2.439 . S
O59 Cd58 2.240 . S
O59 C64 1.279 . S
O60 Cd57 2.297 1_554 S
O60 C62 1.247 . S
O61 Cd57 2.439 1_554 S
O61 C62 1.208 . S
C62 O60 1.247 . S
C62 O61 1.208 . S
C63 O68 1.247 . S
C63 O69 1.208 . S
C64 O56 1.315 . S
C64 O59 1.279 . S
C65 O66 1.315 . S
C65 O67 1.279 . S
O66 Cd58 2.223 . S
O66 C65 1.315 . S
O67 Cd57 2.240 . S
O67 C65 1.279 . S
O68 Cd58 2.297 . S
O68 C63 1.247 . S
O69 Cd58 2.439 . S
O69 C63 1.208 . S
O70 Cd71 2.223 . S
O70 C78 1.315 . S
Cd71 O70 2.223 . S
Cd71 O74 2.297 . S
Cd71 O75 2.439 . S
Cd71 O81 2.240 . S
Cd72 O73 2.240 . S
Cd72 O80 2.223 . S
Cd72 O82 2.297 . S
Cd72 O83 2.439 . S
O73 Cd72 2.240 . S
O73 C78 1.279 . S
O74 Cd71 2.297 . S
O74 C76 1.247 . S
O75 Cd71 2.439 . S
O75 C76 1.208 . S
C76 O74 1.247 . S
C76 O75 1.208 . S
C77 O82 1.247 . S
C77 O83 1.208 . S
C78 O70 1.315 . S
C78 O73 1.279 . S
C79 O80 1.315 . S
C79 O81 1.279 . S
O80 Cd72 2.223 . S
O80 C79 1.315 . S
O81 Cd71 2.240 . S
O81 C79 1.279 . S
O82 Cd72 2.297 . S
O82 C77 1.247 . S
O83 Cd72 2.439 . S
O83 C77 1.208 . S
O84 Cd85 2.223 . S
O84 C92 1.315 . S
Cd85 O84 2.223 . S
Cd85 O88 2.297 1_554 S
Cd85 O89 2.439 1_554 S
Cd85 O95 2.240 . S
Cd86 O87 2.240 . S
Cd86 O94 2.223 . S
Cd86 O96 2.297 . S
Cd86 O97 2.439 . S
O87 Cd86 2.240 . S
O87 C92 1.279 . S
O88 Cd85 2.297 1_556 S
O88 C90 1.247 . S
O89 Cd85 2.439 1_556 S
O89 C90 1.208 . S
C90 O88 1.247 . S
C90 O89 1.208 . S
C91 O96 1.247 . S
C91 O97 1.208 . S
C92 O84 1.315 . S
C92 O87 1.279 . S
C93 O94 1.315 . S
C93 O95 1.279 . S
O94 Cd86 2.223 . S
O94 C93 1.315 . S
O95 Cd85 2.240 . S
O95 C93 1.279 . S
O96 Cd86 2.297 . S
O96 C91 1.247 . S
O97 Cd86 2.439 . S
O97 C91 1.208 . S
O98 Cd99 2.223 . S
O98 C106 1.315 . S
Cd99 O98 2.223 . S
Cd99 O102 2.297 . S
Cd99 O103 2.439 . S
Cd99 O109 2.240 . S
Cd100 O101 2.240 . S
Cd100 O108 2.223 . S
Cd100 O110 2.297 . S
Cd100 O111 2.439 . S
O101 Cd100 2.240 . S
O101 C106 1.279 . S
O102 Cd99 2.297 . S
O102 C104 1.247 . S
O103 Cd99 2.439 . S
O103 C104 1.208 . S
C104 O102 1.247 . S
C104 O103 1.208 . S
C105 O110 1.247 . S
C105 O111 1.208 . S
C106 O98 1.315 . S
C106 O101 1.279 . S
C107 O108 1.315 . S
C107 O109 1.279 . S
O108 Cd100 2.223 . S
O108 C107 1.315 . S
O109 Cd99 2.240 . S
O109 C107 1.279 . S
O110 Cd100 2.297 . S
O110 C105 1.247 . S
O111 Cd100 2.439 . S
O111 C105 1.208 . S
H112 C120 0.929 . S
H113 C122 0.930 . S
H114 C124 0.930 . S
H115 C127 0.929 . S
H116 C130 0.930 . S
H117 C132 0.960 . S
H118 C132 0.960 . S
H119 C132 0.960 . S
C120 H112 0.929 . S
C120 C121 1.377 . S
C120 C122 1.384 . S
C121 C120 1.377 . S
C121 C127 1.390 . S
C122 H113 0.930 . S
C122 C120 1.384 . S
C122 C123 1.372 . S
C123 C122 1.372 . S
C123 C124 1.400 . S
C123 C128 1.490 . S
C124 H114 0.930 . S
C124 C123 1.400 . S
C124 C127 1.386 . S
H125 C141 0.930 . S
H126 C142 0.931 . S
C127 H115 0.929 . S
C127 C121 1.390 . S
C127 C124 1.386 . S
C128 C123 1.490 . S
C128 C130 1.395 . S
C128 C131 1.403 . S
H129 C135 0.930 . S
C130 H116 0.930 . S
C130 C128 1.395 . S
C130 C133 1.403 . S
C131 C128 1.403 . S
C131 C132 1.524 . S
C131 C135 1.400 . S
C132 H117 0.960 . S
C132 H118 0.960 . S
C132 H119 0.960 . S
C132 C131 1.524 . S
C133 C130 1.403 . S
C133 C134 1.392 . S
C133 C137 1.495 . S
C134 C133 1.392 . S
C134 C135 1.385 . S
C134 C136 1.478 . S
C135 H129 0.930 . S
C135 C131 1.400 . S
C135 C134 1.385 . S
C136 C134 1.478 . S
C136 C138 1.381 . S
C136 C142 1.383 . S
C137 C133 1.495 . S
C137 H143 0.959 . S
C137 H144 0.961 . S
C137 H145 0.960 . S
C138 C136 1.381 . S
C138 C139 1.394 . S
C138 H146 0.930 . S
C139 C138 1.394 . S
C139 C140 1.383 . S
C139 H147 0.929 . S
C140 C139 1.383 . S
C140 C141 1.377 . S
C141 H125 0.930 . S
C141 C140 1.377 . S
C141 C142 1.379 . S
C142 H126 0.931 . S
C142 C136 1.383 . S
C142 C141 1.379 . S
H143 C137 0.959 . S
H144 C137 0.961 . S
H145 C137 0.960 . S
H146 C138 0.930 . S
H147 C139 0.929 . S
H148 C156 0.929 . S
H149 C158 0.930 . S
H150 C160 0.930 . S
H151 C163 0.929 . S
H152 C166 0.930 . S
H153 C168 0.960 . S
H154 C168 0.960 . S
H155 C168 0.960 . S
C156 H148 0.929 . S
C156 C157 1.377 . S
C156 C158 1.384 . S
C157 C156 1.377 . S
C157 C163 1.390 . S
C158 H149 0.930 . S
C158 C156 1.384 . S
C158 C159 1.372 . S
C159 C158 1.372 . S
C159 C160 1.400 . S
C159 C164 1.490 . S
C160 H150 0.930 . S
C160 C159 1.400 . S
C160 C163 1.386 . S
H161 C177 0.930 . S
H162 C178 0.931 . S
C163 H151 0.929 . S
C163 C157 1.390 . S
C163 C160 1.386 . S
C164 C159 1.490 . S
C164 C166 1.395 . S
C164 C167 1.403 . S
H165 C171 0.930 . S
C166 H152 0.930 . S
C166 C164 1.395 . S
C166 C169 1.403 . S
C167 C164 1.403 . S
C167 C168 1.524 . S
C167 C171 1.400 . S
C168 H153 0.960 . S
C168 H154 0.960 . S
C168 H155 0.960 . S
C168 C167 1.524 . S
C169 C166 1.403 . S
C169 C170 1.392 . S
C169 C173 1.495 . S
C170 C169 1.392 . S
C170 C171 1.385 . S
C170 C172 1.478 . S
C171 H165 0.930 . S
C171 C167 1.400 . S
C171 C170 1.385 . S
C172 C170 1.478 . S
C172 C174 1.381 . S
C172 C178 1.383 . S
C173 C169 1.495 . S
C173 H179 0.959 . S
C173 H180 0.961 . S
C173 H181 0.960 . S
C174 C172 1.381 . S
C174 C175 1.394 . S
C174 H182 0.930 . S
C175 C174 1.394 . S
C175 C176 1.383 . S
C175 H183 0.929 . S
C176 C175 1.383 . S
C176 C177 1.377 . S
C177 H161 0.930 . S
C177 C176 1.377 . S
C177 C178 1.379 . S
C178 H162 0.931 . S
C178 C172 1.383 . S
C178 C177 1.379 . S
H179 C173 0.959 . S
H180 C173 0.961 . S
H181 C173 0.960 . S
H182 C174 0.930 . S
H183 C175 0.929 . S
H184 C192 0.929 . S
H185 C194 0.930 . S
H186 C196 0.930 . S
H187 C199 0.929 . S
H188 C202 0.930 . S
H189 C204 0.960 . S
H190 C204 0.960 . S
H191 C204 0.960 . S
C192 H184 0.929 . S
C192 C193 1.377 . S
C192 C194 1.384 . S
C193 C192 1.377 . S
C193 C199 1.390 . S
C194 H185 0.930 . S
C194 C192 1.384 . S
C194 C195 1.372 . S
C195 C194 1.372 . S
C195 C196 1.400 . S
C195 C200 1.490 . S
C196 H186 0.930 . S
C196 C195 1.400 . S
C196 C199 1.386 . S
H197 C213 0.930 . S
H198 C214 0.931 . S
C199 H187 0.929 . S
C199 C193 1.390 . S
C199 C196 1.386 . S
C200 C195 1.490 . S
C200 C202 1.395 . S
C200 C203 1.403 . S
H201 C207 0.930 . S
C202 H188 0.930 . S
C202 C200 1.395 . S
C202 C205 1.403 . S
C203 C200 1.403 . S
C203 C204 1.524 . S
C203 C207 1.400 . S
C204 H189 0.960 . S
C204 H190 0.960 . S
C204 H191 0.960 . S
C204 C203 1.524 . S
C205 C202 1.403 . S
C205 C206 1.392 . S
C205 C209 1.495 . S
C206 C205 1.392 . S
C206 C207 1.385 . S
C206 C208 1.478 . S
C207 H201 0.930 . S
C207 C203 1.400 . S
C207 C206 1.385 . S
C208 C206 1.478 . S
C208 C210 1.381 . S
C208 C214 1.383 . S
C209 C205 1.495 . S
C209 H215 0.959 . S
C209 H216 0.961 . S
C209 H217 0.960 . S
C210 C208 1.381 . S
C210 C211 1.394 . S
C210 H218 0.930 . S
C211 C210 1.394 . S
C211 C212 1.383 . S
C211 H219 0.929 . S
C212 C211 1.383 . S
C212 C213 1.377 . S
C213 H197 0.930 . S
C213 C212 1.377 . S
C213 C214 1.379 . S
C214 H198 0.931 . S
C214 C208 1.383 . S
C214 C213 1.379 . S
H215 C209 0.959 . S
H216 C209 0.961 . S
H217 C209 0.960 . S
H218 C210 0.930 . S
H219 C211 0.929 . S
H220 C228 0.929 . S
H221 C230 0.930 . S
H222 C232 0.930 . S
H223 C235 0.929 . S
H224 C238 0.930 . S
H225 C240 0.960 . S
H226 C240 0.960 . S
H227 C240 0.960 . S
C228 H220 0.929 . S
C228 C229 1.377 . S
C228 C230 1.384 . S
C229 C228 1.377 . S
C229 C235 1.390 . S
C230 H221 0.930 . S
C230 C228 1.384 . S
C230 C231 1.372 . S
C231 C230 1.372 . S
C231 C232 1.400 . S
C231 C236 1.490 . S
C232 H222 0.930 . S
C232 C231 1.400 . S
C232 C235 1.386 . S
H233 C249 0.930 . S
H234 C250 0.931 . S
C235 H223 0.929 . S
C235 C229 1.390 . S
C235 C232 1.386 . S
C236 C231 1.490 . S
C236 C238 1.395 . S
C236 C239 1.403 . S
H237 C243 0.930 . S
C238 H224 0.930 . S
C238 C236 1.395 . S
C238 C241 1.403 . S
C239 C236 1.403 . S
C239 C240 1.524 . S
C239 C243 1.400 . S
C240 H225 0.960 . S
C240 H226 0.960 . S
C240 H227 0.960 . S
C240 C239 1.524 . S
C241 C238 1.403 . S
C241 C242 1.392 . S
C241 C245 1.495 . S
C242 C241 1.392 . S
C242 C243 1.385 . S
C242 C244 1.478 . S
C243 H237 0.930 . S
C243 C239 1.400 . S
C243 C242 1.385 . S
C244 C242 1.478 . S
C244 C246 1.381 . S
C244 C250 1.383 . S
C245 C241 1.495 . S
C245 H251 0.959 . S
C245 H252 0.961 . S
C245 H253 0.960 . S
C246 C244 1.381 . S
C246 C247 1.394 . S
C246 H254 0.930 . S
C247 C246 1.394 . S
C247 C248 1.383 . S
C247 H255 0.929 . S
C248 C247 1.383 . S
C248 C249 1.377 . S
C249 H233 0.930 . S
C249 C248 1.377 . S
C249 C250 1.379 . S
C250 H234 0.931 . S
C250 C244 1.383 . S
C250 C249 1.379 . S
H251 C245 0.959 . S
H252 C245 0.961 . S
H253 C245 0.960 . S
H254 C246 0.930 . S
H255 C247 0.929 . S
H256 C264 0.929 . S
H257 C266 0.930 . S
H258 C268 0.930 . S
H259 C271 0.929 . S
H260 C274 0.930 . S
H261 C276 0.960 . S
H262 C276 0.960 . S
H263 C276 0.960 . S
C264 H256 0.929 . S
C264 C265 1.377 . S
C264 C266 1.384 . S
C265 C264 1.377 . S
C265 C271 1.390 . S
C266 H257 0.930 . S
C266 C264 1.384 . S
C266 C267 1.372 . S
C267 C266 1.372 . S
C267 C268 1.400 . S
C267 C272 1.490 . S
C268 H258 0.930 . S
C268 C267 1.400 . S
C268 C271 1.386 . S
H269 C285 0.930 . S
H270 C286 0.931 . S
C271 H259 0.929 . S
C271 C265 1.390 . S
C271 C268 1.386 . S
C272 C267 1.490 . S
C272 C274 1.395 . S
C272 C275 1.403 . S
H273 C279 0.930 . S
C274 H260 0.930 . S
C274 C272 1.395 . S
C274 C277 1.403 . S
C275 C272 1.403 . S
C275 C276 1.524 . S
C275 C279 1.400 . S
C276 H261 0.960 . S
C276 H262 0.960 . S
C276 H263 0.960 . S
C276 C275 1.524 . S
C277 C274 1.403 . S
C277 C278 1.392 . S
C277 C281 1.495 . S
C278 C277 1.392 . S
C278 C279 1.385 . S
C278 C280 1.478 . S
C279 H273 0.930 . S
C279 C275 1.400 . S
C279 C278 1.385 . S
C280 C278 1.478 . S
C280 C282 1.381 . S
C280 C286 1.383 . S
C281 C277 1.495 . S
C281 H287 0.959 . S
C281 H288 0.961 . S
C281 H289 0.960 . S
C282 C280 1.381 . S
C282 C283 1.394 . S
C282 H290 0.930 . S
C283 C282 1.394 . S
C283 C284 1.383 . S
C283 H291 0.929 . S
C284 C283 1.383 . S
C284 C285 1.377 . S
C285 H269 0.930 . S
C285 C284 1.377 . S
C285 C286 1.379 . S
C286 H270 0.931 . S
C286 C280 1.383 . S
C286 C285 1.379 . S
H287 C281 0.959 . S
H288 C281 0.961 . S
H289 C281 0.960 . S
H290 C282 0.930 . S
H291 C283 0.929 . S
H292 C300 0.929 . S
H293 C302 0.930 . S
H294 C304 0.930 . S
H295 C307 0.929 . S
H296 C310 0.930 . S
H297 C312 0.960 . S
H298 C312 0.960 . S
H299 C312 0.960 . S
C300 H292 0.929 . S
C300 C301 1.377 . S
C300 C302 1.384 . S
C301 C300 1.377 . S
C301 C307 1.390 . S
C302 H293 0.930 . S
C302 C300 1.384 . S
C302 C303 1.372 . S
C303 C302 1.372 . S
C303 C304 1.400 . S
C303 C308 1.490 . S
C304 H294 0.930 . S
C304 C303 1.400 . S
C304 C307 1.386 . S
H305 C321 0.930 . S
H306 C322 0.931 . S
C307 H295 0.929 . S
C307 C301 1.390 . S
C307 C304 1.386 . S
C308 C303 1.490 . S
C308 C310 1.395 . S
C308 C311 1.403 . S
H309 C315 0.930 . S
C310 H296 0.930 . S
C310 C308 1.395 . S
C310 C313 1.403 . S
C311 C308 1.403 . S
C311 C312 1.524 . S
C311 C315 1.400 . S
C312 H297 0.960 . S
C312 H298 0.960 . S
C312 H299 0.960 . S
C312 C311 1.524 . S
C313 C310 1.403 . S
C313 C314 1.392 . S
C313 C317 1.495 . S
C314 C313 1.392 . S
C314 C315 1.385 . S
C314 C316 1.478 . S
C315 H309 0.930 . S
C315 C311 1.400 . S
C315 C314 1.385 . S
C316 C314 1.478 . S
C316 C318 1.381 . S
C316 C322 1.383 . S
C317 C313 1.495 . S
C317 H323 0.959 . S
C317 H324 0.961 . S
C317 H325 0.960 . S
C318 C316 1.381 . S
C318 C319 1.394 . S
C318 H326 0.930 . S
C319 C318 1.394 . S
C319 C320 1.383 . S
C319 H327 0.929 . S
C320 C319 1.383 . S
C320 C321 1.377 . S
C321 H305 0.930 . S
C321 C320 1.377 . S
C321 C322 1.379 . S
C322 H306 0.931 . S
C322 C316 1.383 . S
C322 C321 1.379 . S
H323 C317 0.959 . S
H324 C317 0.961 . S
H325 C317 0.960 . S
H326 C318 0.930 . S
H327 C319 0.929 . S
H328 C336 0.929 . S
H329 C338 0.930 . S
H330 C340 0.930 . S
H331 C343 0.929 . S
H332 C346 0.930 . S
H333 C348 0.960 . S
H334 C348 0.960 . S
H335 C348 0.960 . S
C336 H328 0.929 . S
C336 C337 1.377 . S
C336 C338 1.384 . S
C337 C336 1.377 . S
C337 C343 1.390 . S
C338 H329 0.930 . S
C338 C336 1.384 . S
C338 C339 1.372 . S
C339 C338 1.372 . S
C339 C340 1.400 . S
C339 C344 1.490 . S
C340 H330 0.930 . S
C340 C339 1.400 . S
C340 C343 1.386 . S
H341 C357 0.930 . S
H342 C358 0.931 . S
C343 H331 0.929 . S
C343 C337 1.390 . S
C343 C340 1.386 . S
C344 C339 1.490 . S
C344 C346 1.395 . S
C344 C347 1.403 . S
H345 C351 0.930 . S
C346 H332 0.930 . S
C346 C344 1.395 . S
C346 C349 1.403 . S
C347 C344 1.403 . S
C347 C348 1.524 . S
C347 C351 1.400 . S
C348 H333 0.960 . S
C348 H334 0.960 . S
C348 H335 0.960 . S
C348 C347 1.524 . S
C349 C346 1.403 . S
C349 C350 1.392 . S
C349 C353 1.495 . S
C350 C349 1.392 . S
C350 C351 1.385 . S
C350 C352 1.478 . S
C351 H345 0.930 . S
C351 C347 1.400 . S
C351 C350 1.385 . S
C352 C350 1.478 . S
C352 C354 1.381 . S
C352 C358 1.383 . S
C353 C349 1.495 . S
C353 H359 0.959 . S
C353 H360 0.961 . S
C353 H361 0.960 . S
C354 C352 1.381 . S
C354 C355 1.394 . S
C354 H362 0.930 . S
C355 C354 1.394 . S
C355 C356 1.383 . S
C355 H363 0.929 . S
C356 C355 1.383 . S
C356 C357 1.377 . S
C357 H341 0.930 . S
C357 C356 1.377 . S
C357 C358 1.379 . S
C358 H342 0.931 . S
C358 C352 1.383 . S
C358 C357 1.379 . S
H359 C353 0.959 . S
H360 C353 0.961 . S
H361 C353 0.960 . S
H362 C354 0.930 . S
H363 C355 0.929 . S
H364 C372 0.929 . S
H365 C374 0.930 . S
H366 C376 0.930 . S
H367 C379 0.929 . S
H368 C382 0.930 . S
H369 C384 0.960 . S
H370 C384 0.960 . S
H371 C384 0.960 . S
C372 H364 0.929 . S
C372 C373 1.377 . S
C372 C374 1.384 . S
C373 C372 1.377 . S
C373 C379 1.390 . S
C374 H365 0.930 . S
C374 C372 1.384 . S
C374 C375 1.372 . S
C375 C374 1.372 . S
C375 C376 1.400 . S
C375 C380 1.490 . S
C376 H366 0.930 . S
C376 C375 1.400 . S
C376 C379 1.386 . S
H377 C393 0.930 . S
H378 C394 0.931 . S
C379 H367 0.929 . S
C379 C373 1.390 . S
C379 C376 1.386 . S
C380 C375 1.490 . S
C380 C382 1.395 . S
C380 C383 1.403 . S
H381 C387 0.930 . S
C382 H368 0.930 . S
C382 C380 1.395 . S
C382 C385 1.403 . S
C383 C380 1.403 . S
C383 C384 1.524 . S
C383 C387 1.400 . S
C384 H369 0.960 . S
C384 H370 0.960 . S
C384 H371 0.960 . S
C384 C383 1.524 . S
C385 C382 1.403 . S
C385 C386 1.392 . S
C385 C389 1.495 . S
C386 C385 1.392 . S
C386 C387 1.385 . S
C386 C388 1.478 . S
C387 H381 0.930 . S
C387 C383 1.400 . S
C387 C386 1.385 . S
C388 C386 1.478 . S
C388 C390 1.381 . S
C388 C394 1.383 . S
C389 C385 1.495 . S
C389 H395 0.959 . S
C389 H396 0.961 . S
C389 H397 0.960 . S
C390 C388 1.381 . S
C390 C391 1.394 . S
C390 H398 0.930 . S
C391 C390 1.394 . S
C391 C392 1.383 . S
C391 H399 0.929 . S
C392 C391 1.383 . S
C392 C393 1.377 . S
C393 H377 0.930 . S
C393 C392 1.377 . S
C393 C394 1.379 . S
C394 H378 0.931 . S
C394 C388 1.383 . S
C394 C393 1.379 . S
H395 C389 0.959 . S
H396 C389 0.961 . S
H397 C389 0.960 . S
H398 C390 0.930 . S
H399 C391 0.929 . S
H400 C408 0.929 . S
H401 C410 0.930 . S
H402 C412 0.930 . S
H403 C415 0.929 . S
H404 C418 0.930 . S
H405 C420 0.960 . S
H406 C420 0.960 . S
H407 C420 0.960 . S
C408 H400 0.929 . S
C408 C409 1.377 . S
C408 C410 1.384 . S
C409 C408 1.377 . S
C409 C415 1.390 . S
C410 H401 0.930 . S
C410 C408 1.384 . S
C410 C411 1.372 . S
C411 C410 1.372 . S
C411 C412 1.400 . S
C411 C416 1.490 . S
C412 H402 0.930 . S
C412 C411 1.400 . S
C412 C415 1.386 . S
H413 C429 0.930 . S
H414 C430 0.931 . S
C415 H403 0.929 . S
C415 C409 1.390 . S
C415 C412 1.386 . S
C416 C411 1.490 . S
C416 C418 1.395 1_455 S
C416 C419 1.403 . S
H417 C423 0.932 . S
C418 H404 0.930 . S
C418 C416 1.395 1_655 S
C418 C421 1.403 . S
C419 C416 1.403 . S
C419 C420 1.524 . S
C419 C423 1.407 . S
C420 H405 0.960 . S
C420 H406 0.960 . S
C420 H407 0.960 . S
C420 C419 1.524 . S
C421 C418 1.403 . S
C421 C422 1.392 . S
C421 C425 1.495 . S
C422 C421 1.392 . S
C422 C423 1.376 1_655 S
C422 C424 1.478 . S
C423 H417 0.932 . S
C423 C419 1.407 . S
C423 C422 1.376 1_455 S
C424 C422 1.478 . S
C424 C426 1.381 . S
C424 C430 1.383 . S
C425 C421 1.495 . S
C425 H431 0.959 . S
C425 H432 0.961 . S
C425 H433 0.960 . S
C426 C424 1.381 . S
C426 C427 1.394 . S
C426 H434 0.930 . S
C427 C426 1.394 . S
C427 C428 1.383 . S
C427 H435 0.929 . S
C428 C427 1.383 . S
C428 C429 1.377 . S
C429 H413 0.930 . S
C429 C428 1.377 . S
C429 C430 1.379 . S
C430 H414 0.931 . S
C430 C424 1.383 . S
C430 C429 1.379 . S
H431 C425 0.959 . S
H432 C425 0.961 . S
H433 C425 0.960 . S
H434 C426 0.930 . S
H435 C427 0.929 . S
H436 C444 0.929 . S
H437 C446 0.930 . S
H438 C448 0.930 . S
H439 C451 0.929 . S
H440 C454 0.930 . S
H441 C456 0.960 . S
H442 C456 0.960 . S
H443 C456 0.960 . S
C444 H436 0.929 . S
C444 C445 1.377 . S
C444 C446 1.384 . S
C445 C444 1.377 . S
C445 C451 1.390 . S
C446 H437 0.930 . S
C446 C444 1.384 . S
C446 C447 1.372 . S
C447 C446 1.372 . S
C447 C448 1.400 . S
C447 C452 1.490 . S
C448 H438 0.930 . S
C448 C447 1.400 . S
C448 C451 1.386 . S
H449 C465 0.930 . S
H450 C466 0.931 . S
C451 H439 0.929 . S
C451 C445 1.390 . S
C451 C448 1.386 . S
C452 C447 1.490 . S
C452 C454 1.395 . S
C452 C455 1.403 . S
H453 C459 0.930 . S
C454 H440 0.930 . S
C454 C452 1.395 . S
C454 C457 1.403 . S
C455 C452 1.403 . S
C455 C456 1.524 . S
C455 C459 1.400 . S
C456 H441 0.960 . S
C456 H442 0.960 . S
C456 H443 0.960 . S
C456 C455 1.524 . S
C457 C454 1.403 . S
C457 C458 1.392 . S
C457 C461 1.495 . S
C458 C457 1.392 . S
C458 C459 1.385 . S
C458 C460 1.478 . S
C459 H453 0.930 . S
C459 C455 1.400 . S
C459 C458 1.385 . S
C460 C458 1.478 . S
C460 C462 1.381 . S
C460 C466 1.383 . S
C461 C457 1.495 . S
C461 H467 0.959 . S
C461 H468 0.961 . S
C461 H469 0.960 . S
C462 C460 1.381 . S
C462 C463 1.394 . S
C462 H470 0.930 . S
C463 C462 1.394 . S
C463 C464 1.383 . S
C463 H471 0.929 . S
C464 C463 1.383 . S
C464 C465 1.377 . S
C465 H449 0.930 . S
C465 C464 1.377 . S
C465 C466 1.379 . S
C466 H450 0.931 . S
C466 C460 1.383 . S
C466 C465 1.379 . S
H467 C461 0.959 . S
H468 C461 0.961 . S
H469 C461 0.960 . S
H470 C462 0.930 . S
H471 C463 0.929 . S
H472 C480 0.929 . S
H473 C482 0.930 . S
H474 C484 0.930 . S
H475 C487 0.929 . S
H476 C490 0.930 . S
H477 C492 0.960 . S
H478 C492 0.960 1_455 S
H479 C492 0.960 . S
C480 H472 0.929 . S
C480 C481 1.377 . S
C480 C482 1.384 . S
C481 C480 1.377 . S
C481 C487 1.390 . S
C482 H473 0.930 . S
C482 C480 1.384 . S
C482 C483 1.372 . S
C483 C482 1.372 . S
C483 C484 1.400 . S
C483 C488 1.490 . S
C484 H474 0.930 . S
C484 C483 1.400 . S
C484 C487 1.386 . S
H485 C501 0.930 . S
H486 C502 0.931 . S
C487 H475 0.929 . S
C487 C481 1.390 . S
C487 C484 1.386 . S
C488 C483 1.490 . S
C488 C490 1.395 . S
C488 C491 1.403 1_455 S
H489 C495 0.930 . S
C490 H476 0.930 . S
C490 C488 1.395 . S
C490 C493 1.403 . S
C491 C488 1.403 1_655 S
C491 C492 1.524 . S
C491 C495 1.400 . S
C492 H477 0.960 . S
C492 H478 0.960 1_655 S
C492 H479 0.960 . S
C492 C491 1.524 . S
C493 C490 1.403 . S
C493 C494 1.392 1_455 S
C493 C497 1.495 . S
C494 C493 1.392 1_655 S
C494 C495 1.385 . S
C494 C496 1.478 . S
C495 H489 0.930 . S
C495 C491 1.400 . S
C495 C494 1.385 . S
C496 C494 1.478 . S
C496 C498 1.381 . S
C496 C502 1.383 . S
C497 C493 1.495 . S
C497 H503 0.959 . S
C497 H504 0.961 . S
C497 H505 0.960 . S
C498 C496 1.381 . S
C498 C499 1.394 . S
C498 H506 0.930 . S
C499 C498 1.394 . S
C499 C500 1.383 . S
C499 H507 0.929 . S
C500 C499 1.383 . S
C500 C501 1.377 . S
C501 H485 0.930 . S
C501 C500 1.377 . S
C501 C502 1.379 . S
C502 H486 0.931 . S
C502 C496 1.383 . S
C502 C501 1.379 . S
H503 C497 0.959 . S
H504 C497 0.961 . S
H505 C497 0.960 . S
H506 C498 0.930 . S
H507 C499 0.929 . S
H508 C516 0.929 . S
H509 C518 0.930 . S
H510 C520 0.930 . S
H511 C523 0.929 . S
H512 C526 0.930 . S
H513 C528 0.960 . S
H514 C528 0.960 . S
H515 C528 0.960 . S
C516 H508 0.929 . S
C516 C517 1.377 . S
C516 C518 1.384 . S
C517 C516 1.377 . S
C517 C523 1.390 . S
C518 H509 0.930 . S
C518 C516 1.384 . S
C518 C519 1.372 . S
C519 C518 1.372 . S
C519 C520 1.400 . S
C519 C524 1.490 . S
C520 H510 0.930 . S
C520 C519 1.400 . S
C520 C523 1.386 . S
H521 C537 0.930 . S
H522 C538 0.931 . S
C523 H511 0.929 . S
C523 C517 1.390 . S
C523 C520 1.386 . S
C524 C519 1.490 . S
C524 C526 1.395 . S
C524 C527 1.403 . S
H525 C531 0.930 . S
C526 H512 0.930 . S
C526 C524 1.395 . S
C526 C529 1.403 . S
C527 C524 1.403 . S
C527 C528 1.524 . S
C527 C531 1.400 . S
C528 H513 0.960 . S
C528 H514 0.960 . S
C528 H515 0.960 . S
C528 C527 1.524 . S
C529 C526 1.403 . S
C529 C530 1.392 . S
C529 C533 1.495 . S
C530 C529 1.392 . S
C530 C531 1.385 . S
C530 C532 1.478 . S
C531 H525 0.930 . S
C531 C527 1.400 . S
C531 C530 1.385 . S
C532 C530 1.478 . S
C532 C534 1.381 . S
C532 C538 1.383 . S
C533 C529 1.495 . S
C533 H539 0.959 . S
C533 H540 0.961 . S
C533 H541 0.960 . S
C534 C532 1.381 . S
C534 C535 1.394 . S
C534 H542 0.930 . S
C535 C534 1.394 . S
C535 C536 1.383 . S
C535 H543 0.929 . S
C536 C535 1.383 . S
C536 C537 1.377 . S
C537 H521 0.930 . S
C537 C536 1.377 . S
C537 C538 1.379 . S
C538 H522 0.931 . S
C538 C532 1.383 . S
C538 C537 1.379 . S
H539 C533 0.959 . S
H540 C533 0.961 . S
H541 C533 0.960 . S
H542 C534 0.930 . S
H543 C535 0.929 . S
H544 C552 0.929 . S
H545 C554 0.930 . S
H546 C556 0.930 . S
H547 C559 0.929 . S
H548 C562 0.930 . S
H549 C564 0.960 . S
H550 C564 0.960 . S
H551 C564 0.960 . S
C552 H544 0.929 . S
C552 C553 1.377 1_556 S
C552 C554 1.384 . S
C553 C552 1.377 1_554 S
C553 C559 1.390 . S
C554 H545 0.930 . S
C554 C552 1.384 . S
C554 C555 1.372 1_556 S
C555 C554 1.372 1_554 S
C555 C556 1.400 . S
C555 C560 1.493 . S
C556 H546 0.930 . S
C556 C555 1.400 . S
C556 C559 1.386 . S
H557 C573 0.930 . S
H558 C574 0.931 . S
C559 H547 0.929 . S
C559 C553 1.390 . S
C559 C556 1.386 . S
C560 C555 1.493 . S
C560 C562 1.377 1_554 S
C560 C563 1.417 1_455 S
H561 C567 0.930 . S
C562 H548 0.930 . S
C562 C560 1.377 1_556 S
C562 C565 1.403 1_545 S
C563 C560 1.417 1_655 S
C563 C564 1.524 . S
C563 C567 1.400 1_545 S
C564 H549 0.960 . S
C564 H550 0.960 . S
C564 H551 0.960 . S
C564 C563 1.524 . S
C565 C562 1.403 1_565 S
C565 C566 1.392 1_455 S
C565 C569 1.495 . S
C566 C565 1.392 1_655 S
C566 C567 1.385 1_556 S
C566 C568 1.478 . S
C567 H561 0.930 . S
C567 C563 1.400 1_565 S
C567 C566 1.385 1_554 S
C568 C566 1.478 . S
C568 C570 1.381 . S
C568 C574 1.383 1_556 S
C569 C565 1.495 . S
C569 H575 0.959 . S
C569 H576 0.961 . S
C569 H577 0.960 . S
C570 C568 1.381 . S
C570 C571 1.394 . S
C570 H578 0.930 . S
C571 C570 1.394 . S
C571 C572 1.383 . S
C571 H579 0.929 . S
C572 C571 1.383 . S
C572 C573 1.377 1_556 S
C573 H557 0.930 . S
C573 C572 1.377 1_554 S
C573 C574 1.379 . S
C574 H558 0.931 . S
C574 C568 1.383 1_554 S
C574 C573 1.379 . S
H575 C569 0.959 . S
H576 C569 0.961 . S
H577 C569 0.960 . S
H578 C570 0.930 . S
H579 C571 0.929 . S
H580 C588 0.929 . S
H581 C590 0.930 . S
H582 C592 0.930 . S
H583 C595 0.929 . S
H584 C598 0.930 . S
H585 C600 0.960 . S
H586 C600 0.960 . S
H587 C600 0.960 . S
C588 H580 0.929 . S
C588 C589 1.377 . S
C588 C590 1.384 . S
C589 C588 1.377 . S
C589 C595 1.390 . S
C590 H581 0.930 . S
C590 C588 1.384 . S
C590 C591 1.372 . S
C591 C590 1.372 . S
C591 C592 1.400 . S
C591 C596 1.490 . S
C592 H582 0.930 . S
C592 C591 1.400 . S
C592 C595 1.386 . S
H593 C609 0.930 . S
H594 C610 0.931 . S
C595 H583 0.929 . S
C595 C589 1.390 . S
C595 C592 1.386 . S
C596 C591 1.490 . S
C596 C598 1.395 . S
C596 C599 1.403 . S
H597 C603 0.930 . S
C598 H584 0.930 . S
C598 C596 1.395 . S
C598 C601 1.403 . S
C599 C596 1.403 . S
C599 C600 1.524 . S
C599 C603 1.400 . S
C600 H585 0.960 . S
C600 H586 0.960 . S
C600 H587 0.960 . S
C600 C599 1.524 . S
C601 C598 1.403 . S
C601 C602 1.392 . S
C601 C605 1.495 . S
C602 C601 1.392 . S
C602 C603 1.385 . S
C602 C604 1.478 . S
C603 H597 0.930 . S
C603 C599 1.400 . S
C603 C602 1.385 . S
C604 C602 1.478 . S
C604 C606 1.381 . S
C604 C610 1.383 . S
C605 C601 1.495 . S
C605 H611 0.959 . S
C605 H612 0.961 . S
C605 H613 0.960 . S
C606 C604 1.381 . S
C606 C607 1.394 . S
C606 H614 0.930 . S
C607 C606 1.394 . S
C607 C608 1.383 . S
C607 H615 0.929 . S
C608 C607 1.383 . S
C608 C609 1.377 . S
C609 H593 0.930 . S
C609 C608 1.377 . S
C609 C610 1.379 . S
C610 H594 0.931 . S
C610 C604 1.383 . S
C610 C609 1.379 . S
H611 C605 0.959 . S
H612 C605 0.961 . S
H613 C605 0.960 . S
H614 C606 0.930 . S
H615 C607 0.929 . S
H616 C624 0.929 . S
H617 C626 0.930 . S
H618 C628 0.930 . S
H619 C631 0.929 . S
H620 C634 0.930 . S
H621 C636 0.960 . S
H622 C636 0.960 1_556 S
H623 C636 0.960 . S
C624 H616 0.929 . S
C624 C625 1.377 1_556 S
C624 C626 1.384 . S
C625 C624 1.377 1_554 S
C625 C631 1.390 . S
C626 H617 0.930 . S
C626 C624 1.384 . S
C626 C627 1.372 1_556 S
C627 C626 1.372 1_554 S
C627 C628 1.400 . S
C627 C632 1.490 . S
C628 H618 0.930 . S
C628 C627 1.400 . S
C628 C631 1.386 . S
H629 C645 0.930 . S
H630 C646 0.931 . S
C631 H619 0.929 . S
C631 C625 1.390 . S
C631 C628 1.386 . S
C632 C627 1.490 . S
C632 C634 1.395 1_554 S
C632 C635 1.403 . S
H633 C639 0.931 . S
C634 H620 0.930 . S
C634 C632 1.395 1_556 S
C634 C637 1.403 . S
C635 C632 1.403 . S
C635 C636 1.524 . S
C635 C639 1.400 . S
C636 H621 0.960 . S
C636 H622 0.960 1_554 S
C636 H623 0.960 . S
C636 C635 1.524 . S
C637 C634 1.403 . S
C637 C638 1.392 . S
C637 C641 1.495 . S
C638 C637 1.392 . S
C638 C639 1.384 1_556 S
C638 C640 1.478 . S
C639 H633 0.931 . S
C639 C635 1.400 . S
C639 C638 1.384 1_554 S
C640 C638 1.478 . S
C640 C642 1.381 . S
C640 C646 1.383 1_556 S
C641 C637 1.495 . S
C641 H647 0.959 . S
C641 H648 0.961 1_556 S
C641 H649 0.960 . S
C642 C640 1.381 . S
C642 C643 1.394 . S
C642 H650 0.930 . S
C643 C642 1.394 . S
C643 C644 1.383 . S
C643 H651 0.929 . S
C644 C643 1.383 . S
C644 C645 1.377 1_556 S
C645 H629 0.930 . S
C645 C644 1.377 1_554 S
C645 C646 1.379 . S
C646 H630 0.931 . S
C646 C640 1.383 1_554 S
C646 C645 1.379 . S
H647 C641 0.959 . S
H648 C641 0.961 1_554 S
H649 C641 0.960 . S
H650 C642 0.930 . S
H651 C643 0.929 . S
H652 C660 0.929 . S
H653 C662 0.930 . S
H654 C664 0.930 . S
H655 C667 0.929 . S
H656 C670 0.930 . S
H657 C672 0.960 1_655 S
H658 C672 0.960 1_655 S
H659 C672 0.960 . S
C660 H652 0.929 . S
C660 C661 1.377 . S
C660 C662 1.384 . S
C661 C660 1.377 . S
C661 C667 1.390 . S
C662 H653 0.930 . S
C662 C660 1.384 . S
C662 C663 1.372 . S
C663 C662 1.372 . S
C663 C664 1.400 . S
C663 C668 1.490 . S
C664 H654 0.930 . S
C664 C663 1.400 . S
C664 C667 1.386 . S
H665 C681 0.930 . S
H666 C682 0.931 . S
C667 H655 0.929 . S
C667 C661 1.390 . S
C667 C664 1.386 . S
C668 C663 1.490 . S
C668 C670 1.395 . S
C668 C671 1.403 . S
H669 C675 0.930 . S
C670 H656 0.930 . S
C670 C668 1.395 . S
C670 C673 1.403 1_465 S
C671 C668 1.403 . S
C671 C672 1.524 . S
C671 C675 1.400 1_465 S
C672 H657 0.960 1_455 S
C672 H658 0.960 1_455 S
C672 H659 0.960 . S
C672 C671 1.524 . S
C673 C670 1.403 1_645 S
C673 C674 1.392 . S
C673 C677 1.495 . S
C674 C673 1.392 . S
C674 C675 1.385 . S
C674 C676 1.478 . S
C675 H669 0.930 . S
C675 C671 1.400 1_645 S
C675 C674 1.385 . S
C676 C674 1.478 . S
C676 C678 1.381 . S
C676 C682 1.383 . S
C677 C673 1.495 . S
C677 H683 0.959 1_655 S
C677 H684 0.961 1_655 S
C677 H685 0.960 . S
C678 C676 1.381 . S
C678 C679 1.394 . S
C678 H686 0.930 . S
C679 C678 1.394 . S
C679 C680 1.383 . S
C679 H687 0.929 . S
C680 C679 1.383 . S
C680 C681 1.377 . S
C681 H665 0.930 . S
C681 C680 1.377 . S
C681 C682 1.379 . S
C682 H666 0.931 . S
C682 C676 1.383 . S
C682 C681 1.379 . S
H683 C677 0.959 1_455 S
H684 C677 0.961 1_455 S
H685 C677 0.960 . S
H686 C678 0.930 . S
H687 C679 0.929 . S
C121 C22 1.660 . S
C140 C6 1.663 . S
C157 C8 1.665 . S
C176 C20 1.671 . S
C193 C50 1.664 . S
C212 C34 1.675 . S
C229 C36 1.664 . S
C248 C48 1.664 . S
C265 C62 1.670 . S
C284 C78 1.671 . S
C301 C76 1.672 . S
C320 C64 1.663 . S
C337 C90 1.668 . S
C356 C106 1.655 . S
C373 C92 1.660 . S
C392 C104 1.664 . S
C409 C9 0.497 . S
C428 C51 0.381 . S
C445 C23 0.457 . S
C464 C37 0.576 . S
C481 C107 0.492 . S
C500 C65 0.445 . S
C517 C93 0.497 . S
C536 C79 0.536 . S
C553 C7 1.507 . S
C572 C63 1.484 . S
C589 C77 1.510 . S
C608 C21 1.502 . S
C625 C91 1.509 . S
C644 C35 1.500 . S
C661 C105 1.506 . S
C680 C49 1.526 . S
