# Generated by pormake.
# Topology wig, (6)-cn, num edge types: 1
# Building blocks:
#     Node 0, Type 0, BuildingBlock: OJICUG_clean_sbu_0, # of connection points: 6
#     Node 1, Type 0, BuildingBlock: OJICUG_clean_sbu_0, # of connection points: 6
#     Node 2, Type 0, BuildingBlock: OJICUG_clean_sbu_0, # of connection points: 6
#     Node 3, Type 0, BuildingBlock: OJICUG_clean_sbu_0, # of connection points: 6
#     Node 4, Type 0, BuildingBlock: OJICUG_clean_sbu_0, # of connection points: 6
#     Node 5, Type 0, BuildingBlock: OJICUG_clean_sbu_0, # of connection points: 6
#     Node 6, Type 0, BuildingBlock: OJICUG_clean_sbu_0, # of connection points: 6
#     Node 7, Type 0, BuildingBlock: OJICUG_clean_sbu_0, # of connection points: 6
#     Node 8, Type 0, BuildingBlock: OJICUG_clean_sbu_0, # of connection points: 6
#     Node 9, Type 0, BuildingBlock: OJICUG_clean_sbu_0, # of connection points: 6
#     Node 10, Type 0, BuildingBlock: OJICUG_clean_sbu_0, # of connection points: 6
#     Node 11, Type 0, BuildingBlock: OJICUG_clean_sbu_0, # of connection points: 6
#     Node 12, Type 0, BuildingBlock: OJICUG_clean_sbu_0, # of connection points: 6
#     Node 13, Type 0, BuildingBlock: OJICUG_clean_sbu_0, # of connection points: 6
#     Node 14, Type 0, BuildingBlock: OJICUG_clean_sbu_0, # of connection points: 6
#     Node 15, Type 0, BuildingBlock: OJICUG_clean_sbu_0, # of connection points: 6
#     Edge 16, Type (0, 0), BuildingBlock: ZUJKAS_clean_linker_0, # of connection points: 2
#     Edge 17, Type (0, 0), BuildingBlock: ZUJKAS_clean_linker_0, # of connection points: 2
#     Edge 18, Type (0, 0), BuildingBlock: ZUJKAS_clean_linker_0, # of connection points: 2
#     Edge 19, Type (0, 0), BuildingBlock: ZUJKAS_clean_linker_0, # of connection points: 2
#     Edge 20, Type (0, 0), BuildingBlock: ZUJKAS_clean_linker_0, # of connection points: 2
#     Edge 21, Type (0, 0), BuildingBlock: ZUJKAS_clean_linker_0, # of connection points: 2
#     Edge 22, Type (0, 0), BuildingBlock: ZUJKAS_clean_linker_0, # of connection points: 2
#     Edge 23, Type (0, 0), BuildingBlock: ZUJKAS_clean_linker_0, # of connection points: 2
#     Edge 24, Type (0, 0), BuildingBlock: ZUJKAS_clean_linker_0, # of connection points: 2
#     Edge 25, Type (0, 0), BuildingBlock: ZUJKAS_clean_linker_0, # of connection points: 2
#     Edge 26, Type (0, 0), BuildingBlock: ZUJKAS_clean_linker_0, # of connection points: 2
#     Edge 27, Type (0, 0), BuildingBlock: ZUJKAS_clean_linker_0, # of connection points: 2
#     Edge 28, Type (0, 0), BuildingBlock: ZUJKAS_clean_linker_0, # of connection points: 2
#     Edge 29, Type (0, 0), BuildingBlock: ZUJKAS_clean_linker_0, # of connection points: 2
#     Edge 30, Type (0, 0), BuildingBlock: ZUJKAS_clean_linker_0, # of connection points: 2
#     Edge 31, Type (0, 0), BuildingBlock: ZUJKAS_clean_linker_0, # of connection points: 2
#     Edge 32, Type (0, 0), BuildingBlock: ZUJKAS_clean_linker_0, # of connection points: 2
#     Edge 33, Type (0, 0), BuildingBlock: ZUJKAS_clean_linker_0, # of connection points: 2
#     Edge 34, Type (0, 0), BuildingBlock: ZUJKAS_clean_linker_0, # of connection points: 2
#     Edge 35, Type (0, 0), BuildingBlock: ZUJKAS_clean_linker_0, # of connection points: 2
#     Edge 36, Type (0, 0), BuildingBlock: ZUJKAS_clean_linker_0, # of connection points: 2
#     Edge 37, Type (0, 0), BuildingBlock: ZUJKAS_clean_linker_0, # of connection points: 2
#     Edge 38, Type (0, 0), BuildingBlock: ZUJKAS_clean_linker_0, # of connection points: 2
#     Edge 39, Type (0, 0), BuildingBlock: ZUJKAS_clean_linker_0, # of connection points: 2
#     Edge 40, Type (0, 0), BuildingBlock: ZUJKAS_clean_linker_0, # of connection points: 2
#     Edge 41, Type (0, 0), BuildingBlock: ZUJKAS_clean_linker_0, # of connection points: 2
#     Edge 42, Type (0, 0), BuildingBlock: ZUJKAS_clean_linker_0, # of connection points: 2
#     Edge 43, Type (0, 0), BuildingBlock: ZUJKAS_clean_linker_0, # of connection points: 2
#     Edge 44, Type (0, 0), BuildingBlock: ZUJKAS_clean_linker_0, # of connection points: 2
#     Edge 45, Type (0, 0), BuildingBlock: ZUJKAS_clean_linker_0, # of connection points: 2
#     Edge 46, Type (0, 0), BuildingBlock: ZUJKAS_clean_linker_0, # of connection points: 2
#     Edge 47, Type (0, 0), BuildingBlock: ZUJKAS_clean_linker_0, # of connection points: 2
#     Edge 48, Type (0, 0), BuildingBlock: ZUJKAS_clean_linker_0, # of connection points: 2
#     Edge 49, Type (0, 0), BuildingBlock: ZUJKAS_clean_linker_0, # of connection points: 2
#     Edge 50, Type (0, 0), BuildingBlock: ZUJKAS_clean_linker_0, # of connection points: 2
#     Edge 51, Type (0, 0), BuildingBlock: ZUJKAS_clean_linker_0, # of connection points: 2
#     Edge 52, Type (0, 0), BuildingBlock: ZUJKAS_clean_linker_0, # of connection points: 2
#     Edge 53, Type (0, 0), BuildingBlock: ZUJKAS_clean_linker_0, # of connection points: 2
#     Edge 54, Type (0, 0), BuildingBlock: ZUJKAS_clean_linker_0, # of connection points: 2
#     Edge 55, Type (0, 0), BuildingBlock: ZUJKAS_clean_linker_0, # of connection points: 2
#     Edge 56, Type (0, 0), BuildingBlock: ZUJKAS_clean_linker_0, # of connection points: 2
#     Edge 57, Type (0, 0), BuildingBlock: ZUJKAS_clean_linker_0, # of connection points: 2
#     Edge 58, Type (0, 0), BuildingBlock: ZUJKAS_clean_linker_0, # of connection points: 2
#     Edge 59, Type (0, 0), BuildingBlock: ZUJKAS_clean_linker_0, # of connection points: 2
#     Edge 60, Type (0, 0), BuildingBlock: ZUJKAS_clean_linker_0, # of connection points: 2
#     Edge 61, Type (0, 0), BuildingBlock: ZUJKAS_clean_linker_0, # of connection points: 2
#     Edge 62, Type (0, 0), BuildingBlock: ZUJKAS_clean_linker_0, # of connection points: 2
#     Edge 63, Type (0, 0), BuildingBlock: ZUJKAS_clean_linker_0, # of connection points: 2
# Relax obj value: 0.258
# Max RMSD: 0.298
# Mean RMSD: 0.298
data_MOF--net-wig--node1-OJICUG_clean_sbu_0--edge1-ZUJKAS_clean_linker_0
_symmetry_space_group_name_H-M    P1
_symmetry_Int_Tables_number       1
_symmetry_cell_setting            triclinic
loop_
_symmetry_equiv_pos_as_xyz
'x, y, z'
_cell_length_a     36.697152
_cell_length_b     36.676562
_cell_length_c     110.26031
_cell_angle_alpha  90.016145
_cell_angle_beta   90.009847
_cell_angle_gamma 90.035493
loop_
_atom_site_label
_atom_site_type_symbol
_atom_site_fract_x
_atom_site_fract_y
_atom_site_fract_z
_atom_type_partial_charge
Sc0 Sc 0.15122 0.22019 0.29205 0.0
Sc1 Sc 0.21351 0.21335 0.26788 0.0
Sc2 Sc 0.21994 0.15285 0.29258 0.0
O3 O 0.19483 0.19539 0.28415 0.0
C4 C 0.20092 0.20386 0.3151 0.0
C5 C 0.19485 0.28799 0.28166 0.0
C6 C 0.28678 0.19925 0.28279 0.0
C7 C 0.12837 0.22037 0.26395 0.0
C8 C 0.13527 0.13539 0.29636 0.0
C9 C 0.2244 0.12775 0.26491 0.0
O10 O 0.17542 0.22098 0.30982 0.0
O11 O 0.20972 0.26934 0.2733 0.0
O12 O 0.27363 0.1757 0.29003 0.0
O13 O 0.12165 0.22343 0.27522 0.0
O14 O 0.16858 0.12583 0.29576 0.0
O15 O 0.21992 0.15933 0.26043 0.0
O16 O 0.12494 0.1684 0.29529 0.0
O17 O 0.16023 0.21502 0.25983 0.0
O18 O 0.22484 0.12176 0.27624 0.0
O19 O 0.17342 0.27415 0.28946 0.0
O20 O 0.21891 0.17866 0.30999 0.0
O21 O 0.26851 0.21449 0.27443 0.0
Sc22 Sc 0.21852 0.84263 0.71151 0.0
Sc23 Sc 0.21803 0.77613 0.73469 0.0
Sc24 Sc 0.15285 0.7726 0.7113 0.0
O25 O 0.19641 0.79722 0.7192 0.0
C26 C 0.13296 0.85688 0.70839 0.0
C27 C 0.22265 0.86136 0.73981 0.0
C28 C 0.13339 0.76437 0.73942 0.0
C29 C 0.28929 0.79896 0.71986 0.0
C30 C 0.20042 0.79473 0.68825 0.0
C31 C 0.201 0.70446 0.71915 0.0
O32 O 0.16592 0.86759 0.70884 0.0
O33 O 0.22198 0.82846 0.7434 0.0
O34 O 0.12527 0.76498 0.72823 0.0
O35 O 0.27358 0.82271 0.71329 0.0
O36 O 0.17571 0.77647 0.69352 0.0
O37 O 0.21716 0.72148 0.72763 0.0
O38 O 0.21839 0.8198 0.69349 0.0
O39 O 0.27257 0.78054 0.72788 0.0
O40 O 0.17713 0.71927 0.71241 0.0
O41 O 0.2213 0.87039 0.72868 0.0
O42 O 0.12395 0.82348 0.70929 0.0
O43 O 0.16571 0.76887 0.74328 0.0
Sc44 Sc 0.77296 0.84645 0.28401 0.0
Sc45 Sc 0.7762 0.77848 0.26153 0.0
Sc46 Sc 0.83713 0.77526 0.2863 0.0
O47 O 0.79552 0.80009 0.27727 0.0
C48 C 0.85814 0.85942 0.28868 0.0
C49 C 0.77444 0.86331 0.2556 0.0
C50 C 0.86112 0.76436 0.25859 0.0
C51 C 0.70289 0.80338 0.27471 0.0
C52 C 0.78639 0.80115 0.30819 0.0
C53 C 0.78888 0.70764 0.27798 0.0
O54 O 0.82548 0.8705 0.28751 0.0
O55 O 0.7749 0.83016 0.25226 0.0
O56 O 0.86741 0.7652 0.26993 0.0
O57 O 0.71786 0.82741 0.28136 0.0
O58 O 0.81193 0.78182 0.30382 0.0
O59 O 0.77488 0.72455 0.26906 0.0
O60 O 0.76954 0.82506 0.30205 0.0
O61 O 0.72063 0.78415 0.26718 0.0
O62 O 0.81168 0.72224 0.28519 0.0
O63 O 0.77391 0.87299 0.26666 0.0
O64 O 0.86681 0.82583 0.28827 0.0
O65 O 0.82968 0.76975 0.25413 0.0
Sc66 Sc 0.84392 0.22012 0.706 0.0
Sc67 Sc 0.7798 0.217 0.72968 0.0
Sc68 Sc 0.77276 0.15543 0.70522 0.0
O69 O 0.79884 0.19745 0.71364 0.0
C70 C 0.7958 0.20373 0.6825 0.0
C71 C 0.80078 0.28987 0.71521 0.0
C72 C 0.70628 0.20311 0.71472 0.0
C73 C 0.8649 0.22281 0.73418 0.0
C74 C 0.85722 0.13478 0.70233 0.0
C75 C 0.76698 0.13201 0.73315 0.0
O76 O 0.82164 0.21961 0.68803 0.0
O77 O 0.78445 0.27247 0.72359 0.0
O78 O 0.71969 0.18027 0.70727 0.0
O79 O 0.87248 0.22416 0.72295 0.0
O80 O 0.82349 0.12642 0.70252 0.0
O81 O 0.77265 0.16366 0.73745 0.0
O82 O 0.86863 0.1674 0.70349 0.0
O83 O 0.83261 0.21903 0.73809 0.0
O84 O 0.76605 0.1255 0.72183 0.0
O85 O 0.82291 0.27477 0.70789 0.0
O86 O 0.77552 0.18015 0.68754 0.0
O87 O 0.72479 0.21755 0.72319 0.0
Sc88 Sc 0.22296 0.34881 0.95805 0.0
Sc89 Sc 0.22016 0.2822 0.98102 0.0
Sc90 Sc 0.15666 0.27906 0.95709 0.0
O91 O 0.19983 0.30343 0.9654 0.0
C92 C 0.13807 0.36376 0.95405 0.0
C93 C 0.2274 0.36748 0.98622 0.0
C94 C 0.13504 0.27373 0.98523 0.0
C95 C 0.29189 0.30232 0.96628 0.0
C96 C 0.20614 0.30114 0.93449 0.0
C97 C 0.20147 0.21005 0.96593 0.0
O98 O 0.17095 0.3743 0.95504 0.0
O99 O 0.22692 0.33447 0.98968 0.0
O100 O 0.12784 0.27285 0.97394 0.0
O101 O 0.27768 0.32816 0.96024 0.0
O102 O 0.18118 0.28218 0.9394 0.0
O103 O 0.21682 0.22739 0.97448 0.0
O104 O 0.22334 0.32604 0.94011 0.0
O105 O 0.27453 0.28318 0.97394 0.0
O106 O 0.17927 0.22491 0.95861 0.0
O107 O 0.22515 0.37676 0.97515 0.0
O108 O 0.1288 0.33036 0.95463 0.0
O109 O 0.16714 0.2782 0.98934 0.0
Sc110 Sc 0.2752 0.84431 0.04015 0.0
Sc111 Sc 0.28217 0.78299 0.01562 0.0
Sc112 Sc 0.34421 0.77734 0.03975 0.0
O113 O 0.30053 0.80166 0.03184 0.0
C114 C 0.36002 0.86188 0.04413 0.0
C115 C 0.27071 0.8687 0.01245 0.0
C116 C 0.36711 0.77739 0.01168 0.0
C117 C 0.20871 0.79684 0.03028 0.0
C118 C 0.29426 0.79404 0.06278 0.0
C119 C 0.30192 0.70879 0.0295 0.0
O120 O 0.32656 0.87117 0.04388 0.0
O121 O 0.27336 0.83658 0.00825 0.0
O122 O 0.37332 0.77315 0.02293 0.0
O123 O 0.2214 0.82193 0.03706 0.0
O124 O 0.32062 0.77825 0.0575 0.0
O125 O 0.28795 0.72703 0.02089 0.0
O126 O 0.27468 0.81798 0.05761 0.0
O127 O 0.22751 0.78011 0.02237 0.0
O128 O 0.32196 0.72319 0.0376 0.0
O129 O 0.27208 0.87568 0.02373 0.0
O130 O 0.37054 0.82913 0.04261 0.0
O131 O 0.33547 0.78351 0.00747 0.0
Sc132 Sc 0.83781 0.72076 0.95344 0.0
Sc133 Sc 0.77913 0.7152 0.97864 0.0
Sc134 Sc 0.77281 0.65009 0.95532 0.0
O135 O 0.79665 0.69527 0.96248 0.0
C136 C 0.78607 0.69738 0.93156 0.0
C137 C 0.79247 0.78799 0.9631 0.0
C138 C 0.70511 0.69539 0.9651 0.0
C139 C 0.864 0.72679 0.98116 0.0
C140 C 0.85779 0.63657 0.95047 0.0
C141 C 0.77291 0.62959 0.98339 0.0
O142 O 0.81232 0.71573 0.93593 0.0
O143 O 0.7807 0.7705 0.97225 0.0
O144 O 0.71845 0.67033 0.9585 0.0
O145 O 0.86861 0.72969 0.96977 0.0
O146 O 0.82499 0.6256 0.95147 0.0
O147 O 0.7745 0.66233 0.98712 0.0
O148 O 0.86676 0.67007 0.95112 0.0
O149 O 0.83343 0.71907 0.98593 0.0
O150 O 0.77301 0.62134 0.97221 0.0
O151 O 0.81256 0.7736 0.95502 0.0
O152 O 0.76904 0.67337 0.93758 0.0
O153 O 0.72353 0.71391 0.97266 0.0
Sc154 Sc 0.65814 0.22056 0.03708 0.0
Sc155 Sc 0.71876 0.21417 0.01245 0.0
Sc156 Sc 0.72466 0.15122 0.03655 0.0
O157 O 0.70047 0.19523 0.02868 0.0
C158 C 0.70871 0.2009 0.05964 0.0
C159 C 0.70357 0.28798 0.02714 0.0
C160 C 0.7927 0.19599 0.02658 0.0
C161 C 0.63337 0.22377 0.00927 0.0
C162 C 0.63977 0.13612 0.04102 0.0
C163 C 0.72593 0.12855 0.00852 0.0
O164 O 0.68347 0.21892 0.05456 0.0
O165 O 0.71784 0.26977 0.01856 0.0
O166 O 0.77874 0.17289 0.03383 0.0
O167 O 0.62756 0.22565 0.02061 0.0
O168 O 0.67266 0.12543 0.04001 0.0
O169 O 0.72245 0.16075 0.00446 0.0
O170 O 0.63055 0.1695 0.0402 0.0
O171 O 0.66487 0.21859 0.00481 0.0
O172 O 0.72712 0.12137 0.01979 0.0
O173 O 0.68158 0.27407 0.03476 0.0
O174 O 0.72601 0.17562 0.0543 0.0
O175 O 0.77441 0.21221 0.01841 0.0
Sc176 Sc 0.65486 0.71902 0.78242 0.0
Sc177 Sc 0.72105 0.71798 0.75912 0.0
Sc178 Sc 0.72035 0.64908 0.78132 0.0
O179 O 0.69869 0.69536 0.77426 0.0
C180 C 0.70129 0.69466 0.80524 0.0
C181 C 0.70198 0.7885 0.77481 0.0
C182 C 0.79117 0.69469 0.77451 0.0
C183 C 0.6359 0.72686 0.75426 0.0
C184 C 0.6356 0.63418 0.78425 0.0
C185 C 0.72703 0.63364 0.75288 0.0
O186 O 0.67854 0.71589 0.8002 0.0
O187 O 0.72 0.77167 0.76674 0.0
O188 O 0.77495 0.67053 0.78077 0.0
O189 O 0.62699 0.72421 0.76538 0.0
O190 O 0.66797 0.62315 0.78249 0.0
O191 O 0.72538 0.66679 0.74961 0.0
O192 O 0.62704 0.66769 0.78496 0.0
O193 O 0.66874 0.72593 0.75058 0.0
O194 O 0.72598 0.62371 0.7639 0.0
O195 O 0.67704 0.77339 0.78103 0.0
O196 O 0.71718 0.66895 0.79962 0.0
O197 O 0.77536 0.71299 0.76624 0.0
Sc198 Sc 0.72388 0.34076 0.20675 0.0
Sc199 Sc 0.71503 0.27912 0.23111 0.0
Sc200 Sc 0.65606 0.27269 0.20609 0.0
O201 O 0.69829 0.29764 0.21467 0.0
C202 C 0.63921 0.35717 0.20215 0.0
C203 C 0.72436 0.36475 0.23464 0.0
C204 C 0.62985 0.26996 0.2338 0.0
C205 C 0.79015 0.29477 0.21737 0.0
C206 C 0.70764 0.29149 0.18367 0.0
C207 C 0.69976 0.20515 0.21639 0.0
O208 O 0.67244 0.36713 0.20288 0.0
O209 O 0.72016 0.3328 0.23885 0.0
O210 O 0.62499 0.26655 0.22245 0.0
O211 O 0.77732 0.31819 0.21 0.0
O212 O 0.68129 0.27475 0.18859 0.0
O213 O 0.71246 0.22318 0.2253 0.0
O214 O 0.72603 0.31571 0.18914 0.0
O215 O 0.7709 0.27911 0.22542 0.0
O216 O 0.6797 0.21938 0.20827 0.0
O217 O 0.72591 0.37137 0.22335 0.0
O218 O 0.62914 0.32409 0.20322 0.0
O219 O 0.66074 0.27685 0.23846 0.0
Sc220 Sc 0.2711 0.34125 0.78513 0.0
Sc221 Sc 0.27667 0.27619 0.76188 0.0
Sc222 Sc 0.34065 0.27524 0.78579 0.0
O223 O 0.29622 0.29753 0.77759 0.0
C224 C 0.35463 0.36121 0.78805 0.0
C225 C 0.26355 0.35991 0.75687 0.0
C226 C 0.36239 0.27113 0.75774 0.0
C227 C 0.20418 0.29245 0.77725 0.0
C228 C 0.29324 0.29559 0.80874 0.0
C229 C 0.29721 0.20477 0.77691 0.0
O230 O 0.32179 0.3705 0.78604 0.0
O231 O 0.27148 0.32828 0.75302 0.0
O232 O 0.37035 0.27305 0.76896 0.0
O233 O 0.2186 0.31507 0.78458 0.0
O234 O 0.31587 0.27483 0.80346 0.0
O235 O 0.27932 0.22188 0.76887 0.0
O236 O 0.27701 0.32145 0.80334 0.0
O237 O 0.22144 0.27826 0.76842 0.0
O238 O 0.32101 0.22003 0.78359 0.0
O239 O 0.26114 0.36741 0.76807 0.0
O240 O 0.36496 0.32818 0.78897 0.0
O241 O 0.32983 0.27126 0.75382 0.0
Sc242 Sc 0.34244 0.71518 0.21052 0.0
Sc243 Sc 0.27445 0.71368 0.23304 0.0
Sc244 Sc 0.27445 0.6471 0.20998 0.0
O245 O 0.29717 0.6919 0.21786 0.0
C246 C 0.29551 0.6957 0.18704 0.0
C247 C 0.29512 0.7845 0.21795 0.0
C248 C 0.20388 0.69168 0.21775 0.0
C249 C 0.35935 0.72175 0.23873 0.0
C250 C 0.35947 0.63037 0.20717 0.0
C251 C 0.26846 0.62867 0.23829 0.0
O252 O 0.31997 0.71381 0.19256 0.0
O253 O 0.27553 0.76745 0.22554 0.0
O254 O 0.21966 0.66806 0.21117 0.0
O255 O 0.36929 0.71868 0.22774 0.0
O256 O 0.32634 0.6204 0.20775 0.0
O257 O 0.27017 0.66157 0.24189 0.0
O258 O 0.3692 0.66354 0.20796 0.0
O259 O 0.32616 0.72157 0.24201 0.0
O260 O 0.2695 0.61957 0.22716 0.0
O261 O 0.32143 0.77002 0.21222 0.0
O262 O 0.27704 0.67057 0.19208 0.0
O263 O 0.22027 0.70936 0.226 0.0
Sc264 Sc 0.71967 0.8475 0.45924 0.0
Sc265 Sc 0.71745 0.77904 0.48153 0.0
Sc266 Sc 0.65495 0.77664 0.45735 0.0
O267 O 0.69729 0.80113 0.46605 0.0
C268 C 0.63412 0.86071 0.45549 0.0
C269 C 0.72269 0.86404 0.48749 0.0
C270 C 0.63303 0.76737 0.48542 0.0
C271 C 0.78928 0.8016 0.46736 0.0
C272 C 0.70398 0.80302 0.43507 0.0
C273 C 0.70112 0.70817 0.46537 0.0
O274 O 0.66699 0.87168 0.45601 0.0
O275 O 0.7241 0.83075 0.49063 0.0
O276 O 0.62665 0.76568 0.47408 0.0
O277 O 0.7749 0.82831 0.46179 0.0
O278 O 0.67812 0.78438 0.43958 0.0
O279 O 0.71409 0.7246 0.47455 0.0
O280 O 0.72222 0.826 0.44118 0.0
O281 O 0.77185 0.78074 0.47449 0.0
O282 O 0.68041 0.72368 0.45771 0.0
O283 O 0.71948 0.87414 0.47654 0.0
O284 O 0.62532 0.82721 0.45617 0.0
O285 O 0.66438 0.77452 0.48972 0.0
Sc286 Sc 0.77535 0.34473 0.53432 0.0
Sc287 Sc 0.77682 0.28045 0.51048 0.0
Sc288 Sc 0.84362 0.27717 0.53338 0.0
O289 O 0.79862 0.30084 0.52605 0.0
C290 C 0.8604 0.36187 0.53725 0.0
C291 C 0.76876 0.36585 0.50626 0.0
C292 C 0.86158 0.27439 0.50504 0.0
C293 C 0.70574 0.29899 0.526 0.0
C294 C 0.79676 0.29521 0.557 0.0
C295 C 0.79801 0.20781 0.5248 0.0
O296 O 0.82716 0.3717 0.53686 0.0
O297 O 0.77052 0.3333 0.50238 0.0
O298 O 0.87076 0.27432 0.51615 0.0
O299 O 0.72091 0.32273 0.53273 0.0
O300 O 0.82147 0.2778 0.55138 0.0
O301 O 0.78019 0.22537 0.51684 0.0
O302 O 0.77781 0.32011 0.55205 0.0
O303 O 0.72268 0.28205 0.51769 0.0
O304 O 0.822 0.22265 0.5315 0.0
O305 O 0.77031 0.37402 0.51746 0.0
O306 O 0.87026 0.32882 0.53613 0.0
O307 O 0.8287 0.27624 0.50151 0.0
Sc308 Sc 0.34198 0.22214 0.46178 0.0
Sc309 Sc 0.27594 0.21934 0.48498 0.0
Sc310 Sc 0.27276 0.15565 0.46114 0.0
O311 O 0.29699 0.19897 0.46933 0.0
C312 C 0.29466 0.20491 0.43839 0.0
C313 C 0.29684 0.29164 0.47057 0.0
C314 C 0.20431 0.20202 0.46938 0.0
C315 C 0.36131 0.225 0.48996 0.0
C316 C 0.35685 0.13673 0.45814 0.0
C317 C 0.26537 0.13465 0.48925 0.0
O318 O 0.31829 0.22386 0.44396 0.0
O319 O 0.27798 0.27405 0.47825 0.0
O320 O 0.2195 0.17995 0.46209 0.0
O321 O 0.37027 0.22318 0.47884 0.0
O322 O 0.32371 0.12722 0.45933 0.0
O323 O 0.2711 0.16655 0.49332 0.0
O324 O 0.36712 0.16988 0.45842 0.0
O325 O 0.32842 0.22495 0.49355 0.0
O326 O 0.26434 0.12741 0.47798 0.0
O327 O 0.32185 0.27696 0.46426 0.0
O328 O 0.27756 0.17876 0.44334 0.0
O329 O 0.22107 0.2167 0.47822 0.0
Sc330 Sc 0.15262 0.72343 0.53976 0.0
Sc331 Sc 0.21527 0.71906 0.51568 0.0
Sc332 Sc 0.2219 0.65696 0.54008 0.0
O333 O 0.19658 0.69972 0.53181 0.0
C334 C 0.2025 0.70708 0.56274 0.0
C335 C 0.19668 0.79225 0.53018 0.0
C336 C 0.28912 0.70314 0.53029 0.0
C337 C 0.12959 0.72562 0.51183 0.0
C338 C 0.13745 0.63841 0.54377 0.0
C339 C 0.2258 0.63385 0.51207 0.0
O340 O 0.17728 0.72404 0.55729 0.0
O341 O 0.21281 0.77456 0.52184 0.0
O342 O 0.27531 0.68058 0.53775 0.0
O343 O 0.12282 0.72647 0.52312 0.0
O344 O 0.17079 0.62904 0.54302 0.0
O345 O 0.2206 0.66563 0.50783 0.0
O346 O 0.127 0.6714 0.54292 0.0
O347 O 0.16169 0.72244 0.50764 0.0
O348 O 0.22713 0.62719 0.52337 0.0
O349 O 0.17394 0.77765 0.53738 0.0
O350 O 0.22063 0.68156 0.55784 0.0
O351 O 0.27079 0.71818 0.52187 0.0
H352 H 0.34222 0.84097 0.22063 0.0
H353 H 0.32545 0.90519 0.22327 0.0
H354 H 0.21417 0.87955 0.21384 0.0
H355 H 0.23051 0.81502 0.212 0.0
H356 H 0.29282 0.96198 0.21158 0.0
H357 H 0.20397 0.90986 0.24862 0.0
H358 H 0.23504 0.8808 0.24051 0.0
H359 H 0.19213 0.8935 0.23381 0.0
C360 C 0.31444 0.84936 0.21883 0.0
C361 C 0.28746 0.82338 0.21631 0.0
C362 C 0.30486 0.88596 0.22031 0.0
C363 C 0.26834 0.89689 0.21909 0.0
C364 C 0.24227 0.87147 0.21517 0.0
H365 H 0.20895 0.12247 0.24053 0.0
H366 H 0.21708 0.06874 0.2275 0.0
C367 C 0.25161 0.83477 0.21405 0.0
C368 C 0.25693 0.93307 0.22367 0.0
H369 H 0.20729 0.97292 0.24622 0.0
C370 C 0.27381 0.96454 0.21906 0.0
C371 C 0.23239 0.93617 0.23354 0.0
C372 C 0.21507 0.90332 0.2395 0.0
C373 C 0.26781 -0.00111 0.22436 0.0
C374 C 0.24379 0.00168 0.23433 0.0
C375 C 0.2256 0.97055 0.23853 0.0
C376 C 0.24046 0.03526 0.24166 0.0
C377 C 0.28863 0.03147 0.2197 0.0
C378 C 0.25061 0.03403 0.25391 0.0
C379 C 0.24548 0.06416 0.26136 0.0
C380 C 0.23028 0.09641 0.25672 0.0
C381 C 0.2208 0.098 0.24436 0.0
C382 C 0.22562 0.06747 0.23689 0.0
H383 H 0.31042 0.02356 0.21322 0.0
H384 H 0.26957 0.05016 0.21498 0.0
H385 H 0.30117 0.04672 0.22734 0.0
H386 H 0.2622 0.00944 0.25776 0.0
H387 H 0.25348 0.06209 0.27079 0.0
H388 H 0.13562 0.76699 0.76442 0.0
H389 H 0.08611 0.75127 0.77854 0.0
H390 H 0.01574 0.72759 0.74823 0.0
H391 H 0.06415 0.74319 0.73419 0.0
H392 H 0.01083 0.78392 0.77855 0.0
H393 H 0.01192 0.63507 0.77087 0.0
H394 H 0.05143 0.66361 0.76834 0.0
H395 H 0.01634 0.66021 0.75698 0.0
C396 C 0.10957 0.7584 0.76079 0.0
C397 C 0.1039 0.75628 0.74817 0.0
C398 C 0.08146 0.74939 0.76886 0.0
C399 C 0.04769 0.73764 0.76437 0.0
C400 C 0.04192 0.73595 0.75184 0.0
H401 H 0.83321 0.74836 0.76464 0.0
H402 H 0.89802 0.75841 0.76742 0.0
C403 C 0.06963 0.74517 0.74382 0.0
C404 C 0.01708 0.72847 0.77246 0.0
H405 H 0.95257 0.66227 0.77502 0.0
C406 C -0.00145 0.75703 0.77822 0.0
C407 C 0.00159 0.69322 0.77228 0.0
C408 C 0.02157 0.66117 0.76689 0.0
C409 C 0.96278 0.75219 0.7824 0.0
C410 C 0.94532 0.71825 0.78052 0.0
C411 C 0.96568 0.68852 0.77627 0.0
C412 C 0.90516 0.71488 0.78048 0.0
C413 C 0.94323 0.78413 0.78803 0.0
C414 C 0.88759 0.68655 0.78672 0.0
C415 C 0.85032 0.68034 0.78502 0.0
C416 C 0.83017 0.7021 0.77691 0.0
C417 C 0.8478 0.73094 0.77091 0.0
C418 C 0.88487 0.73713 0.77264 0.0
H419 H 0.96251 0.80135 0.79328 0.0
H420 H 0.93152 0.80139 0.78074 0.0
H421 H 0.92086 0.77509 0.79411 0.0
H422 H 0.9029 0.66872 0.79267 0.0
H423 H 0.83756 0.65795 0.78981 0.0
H424 H 0.748 0.85877 0.23239 0.0
H425 H 0.7396 0.9093 0.21803 0.0
H426 H 0.78956 0.98306 0.24358 0.0
H427 H 0.79772 0.93322 0.25791 0.0
H428 H 0.69737 0.97218 0.22457 0.0
H429 H 0.83669 0.01107 0.21077 0.0
H430 H 0.82543 0.96606 0.21634 0.0
H431 H 0.8336 0.00292 0.22679 0.0
C432 C 0.75786 0.88565 0.23481 0.0
C433 C 0.77328 0.89218 0.2463 0.0
C434 C 0.75306 0.91437 0.22661 0.0
C435 C 0.76446 0.94969 0.22969 0.0
C436 C 0.78126 0.95583 0.24093 0.0
H437 H 0.74307 0.16612 0.23169 0.0
H438 H 0.75789 0.10168 0.23074 0.0
C439 C 0.78555 0.9274 0.24917 0.0
C440 C 0.75481 0.98142 0.22212 0.0
H441 H 0.79225 0.0605 0.21178 0.0
C442 C 0.71791 0.9911 0.22133 0.0
C443 C 0.78173 0.00574 0.21785 0.0
C444 C 0.82158 0.99574 0.21786 0.0
C445 C 0.70751 0.02627 0.21773 0.0
C446 C 0.73482 0.05189 0.21469 0.0
C447 C 0.77141 0.04084 0.21423 0.0
C448 C 0.72694 0.09136 0.21439 0.0
C449 C 0.6678 0.03682 0.21833 0.0
C450 C 0.70475 0.10697 0.20543 0.0
C451 C 0.6959 0.14407 0.20599 0.0
C452 C 0.70923 0.166 0.2155 0.0
C453 C 0.73208 0.15017 0.22428 0.0
C454 C 0.74081 0.11331 0.22371 0.0
H455 H 0.65039 0.01436 0.22181 0.0
H456 H 0.66425 0.06099 0.22428 0.0
H457 H 0.65808 0.04427 0.20913 0.0
H458 H 0.69409 0.09046 0.1981 0.0
H459 H 0.67847 0.15546 0.19903 0.0
H460 H 0.15258 0.32604 0.79146 0.0
H461 H 0.08711 0.31278 0.79208 0.0
H462 H 0.103 0.22383 0.76703 0.0
H463 H 0.1679 0.23638 0.76647 0.0
H464 H 0.0445 0.31853 0.77231 0.0
H465 H 0.03057 0.17911 0.79013 0.0
H466 H 0.07112 0.20616 0.79258 0.0
H467 H 0.06562 0.18005 0.77883 0.0
C468 C 0.14218 0.30316 0.78629 0.0
C469 C 0.16539 0.28253 0.7788 0.0
C470 C 0.10483 0.29556 0.7867 0.0
C471 C 0.09028 0.26691 0.77977 0.0
C472 C 0.11369 0.24541 0.77272 0.0
H473 H 0.93614 0.2377 0.72923 0.0
H474 H 0.98486 0.25039 0.74357 0.0
C475 C 0.15082 0.25302 0.77226 0.0
C476 C 0.05049 0.26277 0.77818 0.0
H477 H 0.98636 0.19648 0.77417 0.0
C478 C 0.03132 0.29217 0.77314 0.0
C479 C 0.03301 0.22857 0.77942 0.0
C480 C 0.05114 0.19685 0.78567 0.0
C481 C 0.99679 0.28712 0.76801 0.0
C482 C 0.98143 0.25182 0.76786 0.0
C483 C -0.00137 0.2234 0.77413 0.0
C484 C 0.95137 0.2429 0.75952 0.0
C485 C 0.97815 0.31895 0.76198 0.0
C486 C 0.9167 0.23347 0.76381 0.0
C487 C 0.88852 0.22619 0.75559 0.0
C488 C 0.89488 0.2279 0.743 0.0
C489 C 0.93012 0.23624 0.73883 0.0
C490 C 0.95801 0.24368 0.74701 0.0
H491 H 0.98765 0.34534 0.7658 0.0
H492 H 0.98463 0.31874 0.75214 0.0
H493 H 0.9481 0.3171 0.763 0.0
H494 H 0.91132 0.23243 0.77346 0.0
H495 H 0.86173 0.2197 0.75911 0.0
H496 H 0.25791 0.36209 0.00884 0.0
H497 H 0.2699 0.41203 0.02317 0.0
H498 H 0.21906 0.48789 -0.00143 0.0
H499 H 0.20744 0.43862 0.98421 0.0
H500 H 0.31204 0.4785 0.01568 0.0
H501 H 0.17398 0.50906 0.03318 0.0
H502 H 0.18668 0.4648 0.02729 0.0
H503 H 0.17536 0.50132 0.01709 0.0
C504 C 0.24882 0.38935 0.00659 0.0
C505 C 0.23186 0.39652 0.99538 0.0
C506 C 0.25571 0.41774 0.01476 0.0
C507 C 0.24495 0.45341 0.01195 0.0
C508 C 0.22707 0.46038 0.00095 0.0
H509 H 0.25581 0.67086 0.01486 0.0
H510 H 0.24421 0.60582 0.01463 0.0
C511 C 0.22069 0.43226 0.99273 0.0
C512 C 0.25505 0.48445 0.01977 0.0
H513 H 0.21688 0.5591 0.03301 0.0
C514 C 0.29157 0.49572 0.01987 0.0
C515 C 0.22819 0.50648 0.02525 0.0
C516 C 0.18886 0.49468 0.02582 0.0
C517 C 0.30133 0.53045 0.02413 0.0
C518 C 0.27381 0.55394 0.02855 0.0
C519 C 0.2379 0.54107 0.02957 0.0
C520 C 0.28002 0.59362 0.02968 0.0
C521 C 0.3403 0.54301 0.02282 0.0
C522 C 0.30386 0.60847 0.03833 0.0
C523 C 0.31087 0.64606 0.03846 0.0
C524 C 0.29408 0.66918 0.02992 0.0
C525 C 0.26954 0.65403 0.02151 0.0
C526 C 0.26263 0.61677 0.02141 0.0
H527 H 0.35771 0.52232 0.01829 0.0
H528 H 0.34144 0.56868 0.0175 0.0
H529 H 0.35189 0.54868 0.03193 0.0
H530 H 0.31725 0.59102 0.04488 0.0
H531 H 0.32972 0.65688 0.0451 0.0
H532 H 0.36824 0.78858 0.98695 0.0
H533 H 0.42064 0.78164 0.97328 0.0
H534 H 0.48801 0.75103 0.00367 0.0
H535 H 0.43673 0.7584 0.01731 0.0
H536 H 0.51889 0.80391 0.98863 0.0
H537 H 0.46762 0.68395 0.96265 0.0
H538 H 0.43952 0.72412 0.96338 0.0
H539 H 0.44732 0.6978 0.97684 0.0
C540 C 0.39426 0.78042 0.9907 0.0
C541 C 0.39825 0.77404 0.00323 0.0
C542 C 0.42405 0.77631 0.98288 0.0
C543 C 0.45801 0.76555 0.98749 0.0
C544 C 0.46199 0.75942 -5e-05 0.0
H545 H 0.64769 0.65439 0.97228 0.0
H546 H 0.58439 0.67502 0.97418 0.0
C547 C 0.43254 0.76365 0.00774 0.0
C548 C 0.49015 0.76061 0.97961 0.0
H549 H 0.52902 0.69992 0.96007 0.0
C550 C 0.52107 0.78169 0.98216 0.0
C551 C 0.4926 0.73153 0.97124 0.0
C552 C 0.46015 0.70781 0.96834 0.0
C553 C 0.55519 0.77269 0.97737 0.0
C554 C 0.55811 0.74249 0.96941 0.0
C555 C 0.52661 0.72305 0.96614 0.0
C556 C 0.59409 0.72772 0.96589 0.0
C557 C 0.5881 0.79378 0.98172 0.0
C558 C 0.62003 0.74981 0.9601 0.0
C559 C 0.65623 0.73841 0.95933 0.0
C560 C 0.66649 0.70427 0.96391 0.0
C561 C 0.64005 0.68078 0.96867 0.0
C562 C 0.60401 0.69253 0.96971 0.0
H563 H 0.58179 0.81114 0.9897 0.0
H564 H 0.61062 0.77504 0.98423 0.0
H565 H 0.59784 0.81192 0.97435 0.0
H566 H 0.61274 0.77664 0.95681 0.0
H567 H 0.67646 0.75674 0.95557 0.0
H568 H 0.75879 0.32367 0.01568 0.0
H569 H 0.7712 0.3887 0.01557 0.0
H570 H 0.68258 0.40671 0.04055 0.0
H571 H 0.6695 0.34108 0.04063 0.0
H572 H 0.6779 0.44893 0.02028 0.0
H573 H 0.81678 0.46072 0.03887 0.0
H574 H 0.81517 0.42549 0.02762 0.0
H575 H 0.78872 0.42086 0.04132 0.0
C576 C 0.74212 0.34126 0.02129 0.0
C577 C 0.7129 0.32716 0.02808 0.0
C578 C 0.74963 0.37848 0.02135 0.0
C579 C 0.72829 0.40249 0.02824 0.0
C580 C 0.69967 0.38853 0.0353 0.0
H581 H 0.76508 0.63442 0.00821 0.0
H582 H 0.75308 0.58415 0.02241 0.0
C583 C 0.6922 0.35108 0.0353 0.0
C584 C 0.73313 0.44222 0.02656 0.0
H585 H 0.80028 0.50588 0.02325 0.0
C586 C 0.7043 0.46187 0.02135 0.0
C587 C 0.76746 0.45927 0.02805 0.0
C588 C 0.79863 0.44052 0.0344 0.0
C589 C 0.71001 0.49661 0.01642 0.0
C590 C 0.74535 0.51179 0.0167 0.0
C591 C 0.77327 0.49386 0.02297 0.0
C592 C 0.75495 0.5423 0.00863 0.0
C593 C 0.67904 0.51568 0.01006 0.0
C594 C 0.76063 0.53499 0.99631 0.0
C595 C 0.76753 0.56329 0.98823 0.0
C596 C 0.76881 0.59963 0.9923 0.0
C597 C 0.76421 0.60677 0.00477 0.0
C598 C 0.75734 0.57821 0.01289 0.0
H599 H 0.65216 0.5043 0.01275 0.0
H600 H 0.67946 0.54534 0.01209 0.0
H601 H 0.6822 0.51229 0.00011 0.0
H602 H 0.75902 0.5073 0.99291 0.0
H603 H 0.77112 0.55662 0.97874 0.0
H604 H 0.35042 0.34643 0.96962 0.0
H605 H 0.41424 0.32739 0.9704 0.0
H606 H 0.38317 0.21912 0.95889 0.0
H607 H 0.31914 0.23768 0.95899 0.0
H608 H 0.4189 0.21337 0.97796 0.0
H609 H 0.49859 0.30687 0.94947 0.0
H610 H 0.47108 0.33359 0.95949 0.0
H611 H 0.44955 0.30439 0.9484 0.0
C612 C 0.35754 0.3189 0.96696 0.0
C613 C 0.3303 0.29336 0.96432 0.0
C614 C 0.39403 0.30807 0.96726 0.0
C615 C 0.40377 0.27186 0.96454 0.0
C616 C 0.37645 0.24717 0.96101 0.0
H617 H 0.63107 0.21567 0.98442 0.0
H618 H 0.57758 0.22232 0.9712 0.0
C619 C 0.33995 0.25771 0.96107 0.0
C620 C 0.44077 0.25829 0.96756 0.0
H621 H 0.53049 0.28299 0.96759 0.0
C622 C 0.44333 0.22806 0.97534 0.0
C623 C 0.47301 0.27674 0.96406 0.0
C624 C 0.47285 0.30691 0.95477 0.0
C625 C 0.47655 0.21786 0.98052 0.0
C626 C 0.50784 0.23915 0.97819 0.0
C627 C 0.50618 0.26724 0.96957 0.0
C628 C 0.54066 0.23561 0.98583 0.0
C629 C 0.47747 0.18534 0.9889 0.0
C630 C 0.53757 0.24168 -0.00167 0.0
C631 C 0.56769 0.23779 0.00586 0.0
C632 C 0.60182 0.22814 0.00104 0.0
C633 C 0.60513 0.22294 0.98843 0.0
C634 C 0.5747 0.22675 0.98086 0.0
H635 H 0.45611 0.16517 0.98644 0.0
H636 H 0.50444 0.17163 0.9887 0.0
H637 H 0.47203 0.19452 -0.00168 0.0
H638 H 0.51168 0.24941 0.00229 0.0
H639 H 0.5641 0.24248 0.01549 0.0
H640 H 0.76049 0.63839 0.73069 0.0
H641 H 0.77256 0.58794 0.71652 0.0
H642 H 0.71434 0.51438 0.7401 0.0
H643 H 0.70271 0.56405 0.75425 0.0
H644 H 0.81127 0.52222 0.72464 0.0
H645 H 0.67597 0.49034 0.70534 0.0
H646 H 0.68761 0.53486 0.71127 0.0
H647 H 0.67424 0.49871 0.72138 0.0
C648 C 0.74972 0.61156 0.73269 0.0
C649 C 0.73088 0.60499 0.74359 0.0
C650 C 0.75662 0.58288 0.72462 0.0
C651 C 0.74389 0.54767 0.72722 0.0
C652 C 0.72383 0.54153 0.73784 0.0
H653 H 0.75369 0.33057 0.72869 0.0
H654 H 0.74252 0.39569 0.72747 0.0
C655 C 0.71749 0.56985 0.74597 0.0
C656 C 0.7548 0.51593 0.71983 0.0
H657 H 0.71765 0.43917 0.7076 0.0
C658 C 0.7912 0.50446 0.72048 0.0
C659 C 0.72849 0.49312 0.71438 0.0
C660 C 0.68943 0.50504 0.71293 0.0
C661 C 0.80114 0.46893 0.7171 0.0
C662 C 0.77394 0.44479 0.71283 0.0
C663 C 0.73838 0.45769 0.71097 0.0
C664 C 0.77993 0.40495 0.71263 0.0
C665 C 0.83977 0.45638 0.71925 0.0
C666 C 0.80455 0.38848 0.70458 0.0
C667 C 0.81128 0.35094 0.7053 0.0
C668 C 0.7934 0.32943 0.71406 0.0
C669 C 0.76817 0.34616 0.72188 0.0
C670 C 0.76155 0.38343 0.72116 0.0
H671 H 0.85682 0.47782 0.72355 0.0
H672 H 0.83994 0.43186 0.72515 0.0
H673 H 0.85243 0.44878 0.71047 0.0
H674 H 0.81872 0.40465 0.69785 0.0
H675 H 0.83068 0.3389 0.69908 0.0
H676 H 0.62122 0.29244 0.25742 0.0
H677 H 0.56676 0.28524 0.27014 0.0
H678 H 0.51318 0.22755 0.24105 0.0
H679 H 0.56655 0.23544 0.22828 0.0
H680 H 0.47211 0.28212 0.25012 0.0
H681 H 0.52602 0.19538 0.28742 0.0
H682 H 0.54996 0.23733 0.28462 0.0
H683 H 0.55031 0.20199 0.27336 0.0
C684 C 0.59786 0.27804 0.2538 0.0
C685 C 0.59805 0.26476 0.24182 0.0
C686 C 0.56692 0.27374 0.26109 0.0
C687 C 0.5361 0.25559 0.25656 0.0
C688 C 0.53667 0.24172 0.24471 0.0
H689 H 0.34496 0.1536 0.2821 0.0
H690 H 0.40842 0.17146 0.27838 0.0
C691 C 0.56719 0.24636 0.23741 0.0
C692 C 0.50211 0.25254 0.26368 0.0
H693 H 0.46376 0.2112 0.28832 0.0
C694 C 0.47029 0.26693 0.25854 0.0
C695 C 0.49998 0.23258 0.27463 0.0
C696 C 0.53328 0.21564 0.28033 0.0
C697 C 0.43606 0.26036 0.26366 0.0
C698 C 0.43373 0.24014 0.27458 0.0
C699 C 0.46573 0.22697 0.28002 0.0
C700 C 0.39797 0.22948 0.27968 0.0
C701 C 0.40271 0.27324 0.25685 0.0
C702 C 0.37164 0.25605 0.28232 0.0
C703 C 0.3354 0.24591 0.28405 0.0
C704 C 0.32538 0.20902 0.28369 0.0
C705 C 0.3523 0.1822 0.28243 0.0
C706 C 0.38845 0.19241 0.28033 0.0
H707 H 0.40905 0.28027 0.24728 0.0
H708 H 0.38108 0.25205 0.25685 0.0
H709 H 0.39177 0.29809 0.26128 0.0
H710 H 0.37866 0.28473 0.2822 0.0
H711 H 0.31491 0.26694 0.28514 0.0
H712 H 0.25181 0.66399 0.73119 0.0
H713 H 0.26306 0.59901 0.72946 0.0
H714 H 0.18259 0.59108 0.70105 0.0
H715 H 0.17049 0.65651 0.70287 0.0
H716 H 0.17018 0.54281 0.71853 0.0
H717 H 0.31493 0.53272 0.70621 0.0
H718 H 0.3103 0.56402 0.71858 0.0
H719 H 0.28925 0.57433 0.70419 0.0
C720 C 0.23678 0.64869 0.72443 0.0
C721 C 0.20998 0.66551 0.71725 0.0
C722 C 0.24366 0.6115 0.72333 0.0
C723 C 0.22425 0.59028 0.71494 0.0
C724 C 0.1982 0.60707 0.70748 0.0
H725 H 0.27694 0.3611 0.73227 0.0
H726 H 0.26434 0.41141 0.71812 0.0
C727 C 0.19124 0.64443 0.70858 0.0
C728 C 0.22775 0.5501 0.71539 0.0
H729 H 0.29203 0.48449 0.72002 0.0
C730 C 0.19668 0.52973 0.71842 0.0
C731 C 0.2621 0.53265 0.71497 0.0
C732 C 0.2959 0.5521 0.71066 0.0
C733 C 0.19976 0.49373 0.72251 0.0
C734 C 0.23475 0.47813 0.72376 0.0
C735 C 0.26526 0.49682 0.71929 0.0
C736 C 0.24079 0.44652 0.73179 0.0
C737 C 0.16578 0.47359 0.72631 0.0
C738 C 0.23229 0.45006 0.74412 0.0
C739 C 0.23969 0.42187 0.75217 0.0
C740 C 0.25586 0.38938 0.74808 0.0
C741 C 0.26434 0.38575 0.73568 0.0
C742 C 0.25714 0.41434 0.7276 0.0
H743 H 0.1418 0.48284 0.72099 0.0
H744 H 0.16899 0.44368 0.72516 0.0
H745 H 0.16017 0.47933 0.73602 0.0
H746 H 0.22046 0.47505 0.74758 0.0
H747 H 0.23271 0.42569 0.76163 0.0
H748 H 0.42887 0.69697 0.23785 0.0
H749 H 0.47857 0.71138 0.25172 0.0
H750 H 0.40506 0.77375 0.27409 0.0
H751 H 0.35463 0.75892 0.26023 0.0
H752 H 0.47002 0.81129 0.26506 0.0
H753 H 0.50365 0.68034 0.28716 0.0
H754 H 0.49513 0.67535 0.27121 0.0
H755 H 0.45896 0.69025 0.28106 0.0
C756 C 0.42309 0.71321 0.24584 0.0
C757 C 0.38798 0.72698 0.24795 0.0
C758 C 0.45142 0.72115 0.2538 0.0
C759 C 0.44529 0.74322 0.26399 0.0
C760 C 0.41009 0.75628 0.26635 0.0
H761 H 0.65376 0.83666 0.29005 0.0
H762 H 0.58801 0.82497 0.29147 0.0
C763 C 0.38143 0.74779 0.25844 0.0
C764 C 0.47702 0.7559 0.27105 0.0
H765 H 0.55431 0.72211 0.2839 0.0
C766 C 0.48805 0.79226 0.26961 0.0
C767 C 0.50018 0.73097 0.27701 0.0
C768 C 0.48872 0.69211 0.27932 0.0
C769 C 0.52349 0.80328 0.2727 0.0
C770 C 0.54797 0.77724 0.27748 0.0
C771 C 0.53552 0.74193 0.28013 0.0
C772 C 0.58771 0.78368 0.27745 0.0
C773 C 0.53558 0.84158 0.26972 0.0
C774 C 0.60917 0.76399 0.26924 0.0
C775 C 0.64642 0.77047 0.2684 0.0
C776 C 0.66318 0.79687 0.27579 0.0
C777 C 0.64168 0.81633 0.28416 0.0
C778 C 0.60415 0.80973 0.285 0.0
H779 H 0.51382 0.85762 0.26518 0.0
H780 H 0.54344 0.85591 0.27819 0.0
H781 H 0.55985 0.84089 0.26371 0.0
H782 H 0.5969 0.74388 0.26329 0.0
H783 H 0.66199 0.75482 0.26188 0.0
H784 H 0.75843 0.85991 0.50927 0.0
H785 H 0.77074 0.91039 0.52337 0.0
H786 H 0.70772 0.98263 0.50075 0.0
H787 H 0.69575 0.93286 0.48665 0.0
H788 H 0.80707 0.97606 0.51491 0.0
H789 H 0.67382 0.0067 0.53588 0.0
H790 H 0.68496 0.96241 0.52968 0.0
H791 H 0.67033 -0.00124 0.51985 0.0
C792 C 0.74659 0.88641 0.50748 0.0
C793 C 0.72632 0.89259 0.49684 0.0
C794 C 0.75364 0.91511 0.51552 0.0
C795 C 0.7397 0.95 0.51316 0.0
C796 C 0.71814 0.95571 0.50284 0.0
H797 H 0.74804 0.16767 0.51231 0.0
H798 H 0.73674 0.10261 0.5136 0.0
C799 C 0.7116 0.92734 0.49473 0.0
C800 C 0.75112 0.98192 0.52038 0.0
H801 H 0.71501 0.05815 0.53328 0.0
C802 C 0.78737 0.99363 0.51934 0.0
C803 C 0.72531 0.00446 0.52619 0.0
C804 C 0.68648 0.99228 0.52809 0.0
C805 C 0.79754 0.02912 0.52269 0.0
C806 C 0.77074 0.053 0.52738 0.0
C807 C 0.73543 0.03985 0.5296 0.0
C808 C 0.77665 0.09286 0.52767 0.0
C809 C 0.83586 0.0419 0.5201 0.0
C810 C 0.80266 0.1091 0.53529 0.0
C811 C 0.80951 0.14662 0.53451 0.0
C812 C 0.79032 0.16835 0.52614 0.0
C813 C 0.76358 0.1519 0.51881 0.0
C814 C 0.75687 0.11465 0.51958 0.0
H815 H 0.85231 0.02083 0.51536 0.0
H816 H 0.83532 0.06689 0.51442 0.0
H817 H 0.84969 0.04876 0.52875 0.0
H818 H 0.8179 0.09275 0.5417 0.0
H819 H 0.83007 0.15846 0.54036 0.0
H820 H 0.16287 0.24779 0.48311 0.0
H821 H 0.0984 0.2611 0.48098 0.0
H822 H 0.09252 0.19152 0.4495 0.0
H823 H 0.15752 0.17735 0.45165 0.0
H824 H 0.05804 0.29096 0.46125 0.0
H825 H 0.01567 0.14898 0.47294 0.0
H826 H 0.06167 0.16454 0.47552 0.0
H827 H 0.04611 0.15604 0.46036 0.0
C828 C 0.1481 0.23528 0.47569 0.0
C829 C 0.16537 0.21113 0.46764 0.0
C830 C 0.11122 0.24314 0.47445 0.0
C831 C 0.09073 0.22713 0.46514 0.0
C832 C 0.10788 0.20382 0.45683 0.0
H833 H 0.85721 0.24627 0.48205 0.0
H834 H 0.9078 0.23694 0.46776 0.0
C835 C 0.14498 0.19581 0.45808 0.0
C836 C 0.05105 0.23367 0.4649 0.0
H837 H 0.97216 0.19501 0.47495 0.0
C838 C 0.03891 0.26982 0.46386 0.0
C839 C 0.02612 0.20593 0.46816 0.0
C840 C 0.03781 0.16665 0.46937 0.0
C841 C 0.00344 0.2795 0.46724 0.0
C842 C 0.97986 0.25237 0.47181 0.0
C843 C 0.99055 0.2157 0.47149 0.0
C844 C 0.94818 0.26203 0.47936 0.0
C845 C 0.99232 0.31904 0.46681 0.0
C846 C 0.9544 0.27906 0.49056 0.0
C847 C 0.92599 0.28379 0.49876 0.0
C848 C 0.89071 0.27177 0.49588 0.0
C849 C 0.88416 0.2559 0.48446 0.0
C850 C 0.91289 0.25062 0.4763 0.0
H851 H 0.00764 0.33402 0.45968 0.0
H852 H 0.96265 0.32185 0.46505 0.0
H853 H -0.00147 0.332 0.47567 0.0
H854 H 0.98164 0.2874 0.49316 0.0
H855 H 0.93179 0.29632 0.50745 0.0
H856 H 0.24952 0.83092 0.5185 0.0
H857 H 0.26056 0.89612 0.51935 0.0
H858 H 0.17434 0.90838 0.54562 0.0
H859 H 0.16259 0.84264 0.54473 0.0
H860 H 0.16634 0.95352 0.5265 0.0
H861 H 0.30722 0.96573 0.54312 0.0
H862 H 0.30526 0.93199 0.53138 0.0
H863 H 0.28044 0.92486 0.5453 0.0
C864 C 0.23309 0.84726 0.52459 0.0
C865 C 0.2049 0.83155 0.53146 0.0
C866 C 0.23985 0.88456 0.5252 0.0
C867 C 0.21882 0.90699 0.53275 0.0
C868 C 0.19121 0.8914 0.53987 0.0
H869 H 0.2715 0.13552 0.51414 0.0
H870 H 0.25704 0.08567 0.52822 0.0
C871 C 0.18445 0.8539 0.53929 0.0
C872 C 0.22263 0.94697 0.53169 0.0
H873 H 0.28832 0.01179 0.52799 0.0
C874 C 0.19273 0.96668 0.52724 0.0
C875 C 0.25682 0.96445 0.53288 0.0
C876 C 0.2891 0.94566 0.53857 0.0
C877 C 0.19722 0.0019 0.52258 0.0
C878 C 0.23247 0.01735 0.52227 0.0
C879 C 0.26143 -0.0005 0.52804 0.0
C880 C 0.24083 0.04805 0.51411 0.0
C881 C 0.16474 0.02124 0.51722 0.0
C882 C 0.23729 0.04285 0.50158 0.0
C883 C 0.24576 0.07084 0.49356 0.0
C884 C 0.25799 0.10474 0.4979 0.0
C885 C 0.262 0.10978 0.5105 0.0
C886 C 0.25371 0.08146 0.51856 0.0
H887 H 0.13898 0.01206 0.52155 0.0
H888 H 0.16723 0.05126 0.51826 0.0
H889 H 0.16301 0.01486 0.50739 0.0
H890 H 0.22809 0.01692 0.49799 0.0
H891 H 0.24236 0.06588 0.48394 0.0
H892 H 0.05865 0.73794 0.5177 0.0
H893 H 0.00712 0.74496 0.50417 0.0
H894 H 0.07713 0.72889 0.47322 0.0
H895 H 0.12979 0.72229 0.48683 0.0
H896 H 0.02815 0.78754 0.47054 0.0
H897 H 0.95595 0.66373 0.48559 0.0
H898 H 0.96938 0.69068 0.4984 0.0
H899 H 0.00372 0.67124 0.48867 0.0
C900 C 0.06336 0.73563 0.50804 0.0
C901 C 0.09845 0.72923 0.50338 0.0
C902 C 0.03372 0.7395 0.5003 0.0
C903 C 0.03821 0.73664 0.48772 0.0
C904 C 0.07314 0.7308 0.48293 0.0
H905 H 0.8187 0.73917 0.45892 0.0
H906 H 0.88314 0.72205 0.45906 0.0
C907 C 0.10311 0.72699 0.49071 0.0
C908 C 0.00596 0.74085 0.47983 0.0
H909 H 0.91777 0.71294 0.47815 0.0
C910 C 0.00416 0.77075 0.47191 0.0
C911 C 0.97509 0.7183 0.48133 0.0
C912 C 0.97627 0.68395 0.48886 0.0
C913 C 0.97115 0.78061 0.46635 0.0
C914 C 0.93915 0.76065 0.46911 0.0
C915 C 0.94197 0.7288 0.47613 0.0
C916 C 0.90201 0.77394 0.46608 0.0
C917 C 0.97092 0.81273 0.45782 0.0
C918 C 0.89117 0.80929 0.46951 0.0
C919 C 0.85446 0.81938 0.46906 0.0
C920 C 0.82806 0.79389 0.46556 0.0
C921 C 0.83885 0.75918 0.46165 0.0
C922 C 0.87559 0.74945 0.46174 0.0
H923 H 0.99702 0.81444 0.45275 0.0
H924 H 0.94816 0.81107 0.4512 0.0
H925 H 0.96815 0.83826 0.46314 0.0
H926 H 0.91062 0.82836 0.47328 0.0
H927 H 0.84647 0.84614 0.47226 0.0
H928 H 0.17622 0.26199 0.32847 0.0
H929 H 0.19359 0.27839 0.34922 0.0
H930 H 0.26438 0.18467 0.35086 0.0
H931 H 0.24792 0.16848 0.3302 0.0
H932 H 0.18363 0.23979 0.36969 0.0
H933 H 0.33073 0.26378 0.36346 0.0
H934 H 0.29939 0.26162 0.35084 0.0
H935 H 0.31819 0.22045 0.35721 0.0
C936 C 0.19565 0.245 0.33323 0.0
C937 C 0.21076 0.21396 0.32766 0.0
C938 C 0.20564 0.25452 0.34505 0.0
C939 C 0.23095 0.23327 0.35144 0.0
C940 C 0.24572 0.20214 0.34594 0.0
H941 H 0.25269 0.16574 0.42268 0.0
H942 H 0.23622 0.18135 0.40197 0.0
C943 C 0.23595 0.19271 0.33416 0.0
C944 C 0.24 0.24143 0.36421 0.0
H945 H 0.31206 0.24428 0.3837 0.0
C946 C 0.21166 0.24167 0.37275 0.0
C947 C 0.27649 0.24487 0.36818 0.0
C948 C 0.30785 0.2481 0.3594 0.0
C949 C 0.21909 0.24192 0.3852 0.0
C950 C 0.25575 0.24102 0.38915 0.0
C951 C 0.28396 0.24418 0.38064 0.0
C952 C 0.26536 0.23269 0.40186 0.0
C953 C 0.1876 0.24194 0.394 0.0
C954 C 0.28845 0.25572 0.40851 0.0
C955 C 0.29844 0.2466 0.42036 0.0
C956 C 0.28555 0.21421 0.4257 0.0
C957 C 0.26285 0.19104 0.41891 0.0
C958 C 0.25309 0.20009 0.40709 0.0
H959 H 0.16348 0.2559 0.39006 0.0
H960 H 0.17961 0.21338 0.396 0.0
H961 H 0.19496 0.25558 0.40265 0.0
H962 H 0.29858 0.28078 0.40454 0.0
H963 H 0.31593 0.26506 0.42535 0.0
H964 H 0.23751 0.83603 0.67153 0.0
H965 H 0.24592 0.82232 0.64991 0.0
H966 H 0.19078 0.71947 0.65469 0.0
H967 H 0.18177 0.73294 0.6761 0.0
H968 H 0.27804 0.75985 0.63715 0.0
H969 H 0.1294 0.77613 0.62936 0.0
H970 H 0.15166 0.79199 0.64298 0.0
H971 H 0.14074 0.74449 0.6412 0.0
C972 C 0.22744 0.8104 0.66798 0.0
C973 C 0.20835 0.7859 0.67546 0.0
C974 C 0.23239 0.80258 0.65567 0.0
C975 C 0.21845 0.77018 0.65075 0.0
C976 C 0.20115 0.7449 0.65832 0.0
H977 H 0.23863 0.66806 0.58026 0.0
H978 H 0.24719 0.68533 0.60155 0.0
C979 C 0.19595 0.75274 0.67054 0.0
C980 C 0.2195 0.7636 0.63758 0.0
H981 H 0.16386 0.75118 0.61321 0.0
C982 C 0.2532 0.75818 0.63185 0.0
C983 C 0.18698 0.7619 0.63075 0.0
C984 C 0.15014 0.76926 0.63634 0.0
C985 C 0.2551 0.7502 0.61941 0.0
C986 C 0.22242 0.7472 0.61269 0.0
C987 C 0.18886 0.7533 0.61842 0.0
C988 C 0.22182 0.73831 0.59963 0.0
C989 C 0.29191 0.74543 0.61354 0.0
C990 C 0.2047 0.76232 0.59157 0.0
C991 C 0.19921 0.75233 0.57954 0.0
C992 C 0.21087 0.71811 0.57531 0.0
C993 C 0.22938 0.6946 0.58327 0.0
C994 C 0.23455 0.70454 0.5954 0.0
H995 H 0.314 0.75764 0.61911 0.0
H996 H 0.29769 0.71589 0.61252 0.0
H997 H 0.29243 0.758 0.60438 0.0
H998 H 0.19466 0.78848 0.59468 0.0
H999 H 0.18532 0.77129 0.57359 0.0
H1000 H 0.82457 0.76581 0.32601 0.0
H1001 H 0.80888 0.76139 0.34751 0.0
H1002 H 0.70908 0.8202 0.34086 0.0
H1003 H 0.72487 0.82554 0.31946 0.0
H1004 H 0.74686 0.84851 0.35947 0.0
H1005 H 0.73494 0.69876 0.36516 0.0
H1006 H 0.77765 0.71275 0.35874 0.0
H1007 H 0.73611 0.72035 0.35045 0.0
C1008 C 0.79909 0.77745 0.3291 0.0
C1009 C 0.77605 0.79618 0.32104 0.0
C1010 C 0.79005 0.77467 0.34138 0.0
C1011 C 0.75759 0.79005 0.34574 0.0
C1012 C 0.73422 0.80807 0.33766 0.0
H1013 H 0.66447 0.76679 0.41775 0.0
H1014 H 0.67762 0.76271 0.39604 0.0
C1015 C 0.74335 0.81115 0.32544 0.0
C1016 C 0.74916 0.78984 0.35885 0.0
H1017 H 0.73657 0.73426 0.38331 0.0
C1018 C 0.7444 0.82351 0.36467 0.0
C1019 C 0.7456 0.75718 0.36556 0.0
C1020 C 0.74847 0.72019 0.35964 0.0
C1021 C 0.73665 0.82549 0.37708 0.0
C1022 C 0.73455 0.79292 0.3839 0.0
C1023 C 0.73866 0.75918 0.37806 0.0
C1024 C 0.72782 0.79351 0.3971 0.0
C1025 C 0.73022 0.86245 0.38272 0.0
C1026 C 0.75219 0.81142 0.40488 0.0
C1027 C 0.74466 0.81409 0.41724 0.0
C1028 C 0.71281 0.79846 0.42208 0.0
C1029 C 0.68916 0.77926 0.41431 0.0
C1030 C 0.69663 0.77684 0.40192 0.0
H1031 H 0.72285 0.88319 0.3758 0.0
H1032 H 0.70817 0.86127 0.38961 0.0
H1033 H 0.75557 0.87169 0.38728 0.0
H1034 H 0.77685 0.82372 0.40135 0.0
H1035 H 0.76373 0.82861 0.42298 0.0
H1036 H 0.73717 0.18551 0.66825 0.0
H1037 H 0.72714 0.20174 0.64697 0.0
H1038 H 0.82976 0.25912 0.64642 0.0
H1039 H 0.83967 0.24388 0.66765 0.0
H1040 H 0.77468 0.29788 0.63566 0.0
H1041 H 0.77931 0.15554 0.61823 0.0
H1042 H 0.7457 0.16433 0.62971 0.0
H1043 H 0.79328 0.16727 0.63343 0.0
C1044 C 0.75763 0.20153 0.66359 0.0
C1045 C 0.78933 0.21322 0.66964 0.0
C1046 C 0.75188 0.21067 0.65143 0.0
C1047 C 0.77793 0.23123 0.6451 0.0
C1048 C 0.80932 0.24323 0.65115 0.0
H1049 H 0.83847 0.25235 0.57169 0.0
H1050 H 0.82826 0.23761 0.59294 0.0
C1051 C 0.81496 0.23439 0.66329 0.0
C1052 C 0.77319 0.24018 0.63212 0.0
H1053 H 0.77123 0.20221 0.60389 0.0
C1054 C 0.77354 0.27703 0.62869 0.0
C1055 C 0.77191 0.2128 0.6231 0.0
C1056 C 0.77281 0.17275 0.62624 0.0
C1057 C 0.77409 0.28729 0.61645 0.0
C1058 C 0.77339 0.2599 0.60742 0.0
C1059 C 0.7716 0.22309 0.61086 0.0
C1060 C 0.77827 0.26856 0.59443 0.0
C1061 C 0.77735 0.32722 0.6133 0.0
C1062 C 0.75334 0.29066 0.58819 0.0
C1063 C 0.75928 0.29951 0.57602 0.0
C1064 C 0.79004 0.28598 0.56986 0.0
C1065 C 0.81451 0.26327 0.57612 0.0
C1066 C 0.80868 0.25472 0.58828 0.0
H1067 H 0.78514 0.344 0.62128 0.0
H1068 H 0.7979 0.33146 0.60604 0.0
H1069 H 0.7507 0.33726 0.60992 0.0
H1070 H 0.72932 0.30105 0.59273 0.0
H1071 H 0.73971 0.31675 0.57142 0.0
H1072 H 0.24879 0.34275 0.91966 0.0
H1073 H 0.26374 0.33172 0.89844 0.0
H1074 H 0.2015 0.23193 0.89914 0.0
H1075 H 0.18559 0.24312 0.92037 0.0
H1076 H 0.29951 0.27446 0.88757 0.0
H1077 H 0.15719 0.28649 0.8706 0.0
H1078 H 0.17006 0.29988 0.88574 0.0
H1079 H 0.16443 0.25248 0.88206 0.0
C1080 C 0.23821 0.31844 0.91533 0.0
C1081 C 0.2157 0.29399 0.92169 0.0
C1082 C 0.24689 0.31213 0.90321 0.0
C1083 C 0.23337 0.28125 0.89721 0.0
C1084 C 0.21161 0.2563 0.90356 0.0
H1085 H 0.31282 0.23749 0.82306 0.0
H1086 H 0.2983 0.22823 0.84453 0.0
C1087 C 0.20263 0.26272 0.91569 0.0
C1088 C 0.24174 0.27598 0.88422 0.0
H1089 H 0.20287 0.27553 0.85612 0.0
C1090 C 0.27843 0.27432 0.88067 0.0
C1091 C 0.21406 0.27598 0.87529 0.0
C1092 C 0.17422 0.27909 0.87855 0.0
C1093 C 0.28831 0.27404 0.86839 0.0
C1094 C 0.26065 0.27468 0.85947 0.0
C1095 C 0.22394 0.27489 0.86302 0.0
C1096 C 0.26907 0.27914 0.84645 0.0
C1097 C 0.32821 0.275 0.86508 0.0
C1098 C 0.25678 0.3104 0.84041 0.0
C1099 C 0.26467 0.31562 0.82818 0.0
C1100 C 0.28513 0.28966 0.82173 0.0
C1101 C 0.29729 0.25816 0.82779 0.0
C1102 C 0.28912 0.25285 0.84006 0.0
H1103 H 0.34573 0.28157 0.873 0.0
H1104 H 0.3365 0.2479 0.86156 0.0
H1105 H 0.33336 0.29547 0.85786 0.0
H1106 H 0.2413 0.33103 0.8452 0.0
H1107 H 0.25488 0.34021 0.82383 0.0
H1108 H 0.23428 0.81179 0.07648 0.0
H1109 H 0.22203 0.79415 0.09753 0.0
H1110 H 0.32419 0.73616 0.09877 0.0
H1111 H 0.33632 0.75281 0.07781 0.0
H1112 H 0.26725 0.69696 0.10856 0.0
H1113 H 0.27261 0.83814 0.12711 0.0
H1114 H 0.24005 0.83002 0.11524 0.0
H1115 H 0.28792 0.82729 0.11199 0.0
C1116 C 0.25414 0.79533 0.08125 0.0
C1117 C 0.28637 0.78386 0.07548 0.0
C1118 C 0.24711 0.78535 0.09327 0.0
C1119 C 0.27239 0.76417 0.09971 0.0
C1120 C 0.3043 0.75246 0.09393 0.0
H1121 H 0.33664 0.73795 0.17199 0.0
H1122 H 0.32434 0.75369 0.15094 0.0
C1123 C 0.31122 0.76212 0.08195 0.0
C1124 C 0.26655 0.75441 0.11256 0.0
H1125 H 0.26591 0.79039 0.14108 0.0
C1126 C 0.26643 0.71732 0.1157 0.0
C1127 C 0.26564 0.78116 0.12178 0.0
C1128 C 0.26681 0.8214 0.11894 0.0
C1129 C 0.26734 0.70619 0.12785 0.0
C1130 C 0.26751 0.73297 0.13707 0.0
C1131 C 0.26571 0.77002 0.13394 0.0
C1132 C 0.27378 0.72344 0.14992 0.0
C1133 C 0.27034 0.66603 0.13068 0.0
C1134 C 0.24931 0.70125 0.15633 0.0
C1135 C 0.25647 0.69181 0.16838 0.0
C1136 C 0.28799 0.70484 0.17423 0.0
C1137 C 0.31212 0.72745 0.16778 0.0
C1138 C 0.30508 0.73658 0.15575 0.0
H1139 H 0.27691 0.64962 0.1225 0.0
H1140 H 0.29168 0.66109 0.13763 0.0
H1141 H 0.24398 0.65616 0.13436 0.0
H1142 H 0.22467 0.69136 0.15203 0.0
H1143 H 0.23714 0.67467 0.17313 0.0
H1144 H 0.82579 0.72877 0.91332 0.0
H1145 H 0.80841 0.73453 0.89199 0.0
H1146 H 0.70351 0.68703 0.89996 0.0
H1147 H 0.721 0.6802 0.92117 0.0
H1148 H 0.73564 0.65365 0.88149 0.0
H1149 H 0.74104 0.80299 0.87413 0.0
H1150 H 0.78259 0.78509 0.88029 0.0
H1151 H 0.74132 0.7829 0.88907 0.0
C1152 C 0.79886 0.72001 0.91055 0.0
C1153 C 0.77487 0.70376 0.91889 0.0
C1154 C 0.78886 0.72358 0.89838 0.0
C1155 C 0.7545 0.71163 0.89444 0.0
C1156 C 0.73014 0.69647 0.90284 0.0
H1157 H 0.66482 0.73706 0.82173 0.0
H1158 H 0.67706 0.74247 0.84348 0.0
C1159 C 0.74024 0.69248 0.91494 0.0
C1160 C 0.7451 0.71166 0.88141 0.0
H1161 H 0.7387 0.76566 0.8563 0.0
C1162 C 0.736 0.67822 0.87601 0.0
C1163 C 0.74521 0.74379 0.87432 0.0
C1164 C 0.7527 0.78078 0.87977 0.0
C1165 C 0.72772 0.67585 0.86366 0.0
C1166 C 0.7296 0.70764 0.85645 0.0
C1167 C 0.73779 0.74129 0.86186 0.0
C1168 C 0.7235 0.70617 0.84323 0.0
C1169 C 0.71673 0.63935 0.85848 0.0
C1170 C 0.74613 0.68467 0.83591 0.0
C1171 C 0.73908 0.68124 0.82355 0.0
C1172 C 0.70951 0.69967 0.81825 0.0
C1173 C 0.6877 0.72237 0.82554 0.0
C1174 C 0.69466 0.72556 0.83795 0.0
H1175 H 0.70659 0.62061 0.86564 0.0
H1176 H 0.69518 0.64246 0.85148 0.0
H1177 H 0.74079 0.6264 0.85417 0.0
H1178 H 0.76904 0.67017 0.8398 0.0
H1179 H 0.75677 0.66399 0.81817 0.0
H1180 H 0.76857 0.17895 0.07267 0.0
H1181 H 0.78347 0.19454 0.09371 0.0
H1182 H 0.68507 0.2584 0.0962 0.0
H1183 H 0.6704 0.24382 0.07525 0.0
H1184 H 0.74489 0.29328 0.10594 0.0
H1185 H 0.73234 0.15102 0.12319 0.0
H1186 H 0.76468 0.15857 0.11121 0.0
H1187 H 0.71686 0.16397 0.10828 0.0
C1188 C 0.7501 0.19628 0.07772 0.0
C1189 C 0.71817 0.20996 0.07231 0.0
C1190 C 0.75865 0.20509 0.08973 0.0
C1191 C 0.73517 0.2273 0.09652 0.0
C1192 C 0.7036 0.24129 0.09109 0.0
H1193 H 0.66761 0.25119 0.16775 0.0
H1194 H 0.68263 0.23579 0.14688 0.0
C1195 C 0.6952 0.2328 0.07911 0.0
C1196 C 0.74232 0.23559 0.10941 0.0
H1197 H 0.74066 0.19727 0.13757 0.0
C1198 C 0.74459 0.27233 0.11289 0.0
C1199 C 0.74189 0.20805 0.11837 0.0
C1200 C 0.73858 0.16818 0.11515 0.0
C1201 C 0.74404 0.28248 0.12514 0.0
C1202 C 0.74204 0.255 0.1341 0.0
C1203 C 0.7422 0.21818 0.13063 0.0
C1204 C 0.73458 0.26376 0.14694 0.0
C1205 C 0.74306 0.3225 0.12834 0.0
C1206 C 0.75897 0.28448 0.1539 0.0
C1207 C 0.75025 0.29378 0.16585 0.0
C1208 C 0.71721 0.28205 0.17104 0.0
C1209 C 0.69327 0.26069 0.16406 0.0
C1210 C 0.70186 0.25173 0.15213 0.0
H1211 H 0.73843 0.33998 0.12026 0.0
H1212 H 0.72121 0.32807 0.13506 0.0
H1213 H 0.76946 0.33048 0.13246 0.0
H1214 H 0.78465 0.29349 0.1501 0.0
H1215 H 0.76945 0.30992 0.17104 0.0
H1216 H 0.16793 0.33985 0.29742 0.0
H1217 H 0.18097 0.40555 0.2973 0.0
H1218 H 0.25308 0.39065 0.26682 0.0
H1219 H 0.24098 0.32569 0.26696 0.0
H1220 H 0.28121 0.43711 0.28493 0.0
H1221 H 0.13965 0.4745 0.27116 0.0
H1222 H 0.14607 0.44841 0.28481 0.0
H1223 H 0.15559 0.42804 0.27036 0.0
C1224 C 0.1867 0.3506 0.29074 0.0
C1225 C 0.2031 0.32749 0.28212 0.0
C1226 C 0.19404 0.38811 0.29068 0.0
C1227 C 0.21775 0.40289 0.28199 0.0
C1228 C 0.23477 0.37974 0.27362 0.0
H1229 H 0.28678 0.55718 0.23592 0.0
H1230 H 0.276 0.508 0.25039 0.0
C1231 C 0.22759 0.34254 0.27368 0.0
C1232 C 0.22403 0.44254 0.28087 0.0
H1233 H 0.18526 0.5182 0.26836 0.0
C1234 C 0.26005 0.45526 0.28165 0.0
C1235 C 0.1963 0.46618 0.27668 0.0
C1236 C 0.15719 0.4538 0.27563 0.0
C1237 C 0.26962 0.4898 0.27727 0.0
C1238 C 0.24248 0.51195 0.27201 0.0
C1239 C 0.20593 0.50088 0.27238 0.0
C1240 C 0.25217 0.54284 0.26409 0.0
C1241 C 0.30903 0.50141 0.27752 0.0
C1242 C 0.24226 0.57862 0.26707 0.0
C1243 C 0.24866 0.60693 0.25883 0.0
C1244 C 0.26426 0.59956 0.24743 0.0
C1245 C 0.27454 0.56368 0.2446 0.0
C1246 C 0.26866 0.53562 0.25288 0.0
H1247 H 0.32446 0.48679 0.2847 0.0
H1248 H 0.32176 0.49496 0.26865 0.0
H1249 H 0.31145 0.53125 0.27906 0.0
H1250 H 0.22911 0.58449 0.27564 0.0
H1251 H 0.2403 0.63432 0.26123 0.0
H1252 H 0.3316 0.75057 0.73223 0.0
H1253 H 0.39674 0.74074 0.73034 0.0
H1254 H 0.40233 0.82117 0.70188 0.0
H1255 H 0.33656 0.83184 0.70381 0.0
H1256 H 0.43945 0.71935 0.71005 0.0
H1257 H 0.47619 0.85759 0.72743 0.0
H1258 H 0.43061 0.83973 0.72899 0.0
H1259 H 0.44682 0.85409 0.71441 0.0
C1260 C 0.34644 0.76625 0.72552 0.0
C1261 C 0.32879 0.79231 0.71825 0.0
C1262 C 0.38373 0.76039 0.72442 0.0
C1263 C 0.40433 0.78036 0.71603 0.0
C1264 C 0.3869 0.80578 0.7085 0.0
H1265 H 0.63894 0.76203 0.73234 0.0
H1266 H 0.58758 0.77493 0.71865 0.0
C1267 C 0.34935 0.81177 0.70962 0.0
C1268 C 0.44425 0.77522 0.71589 0.0
H1269 H 0.52145 0.81282 0.72774 0.0
C1270 C 0.45772 0.74009 0.71356 0.0
C1271 C 0.46805 0.80245 0.72035 0.0
C1272 C 0.45491 0.84061 0.723 0.0
C1273 C 0.49343 0.73053 0.71671 0.0
C1274 C 0.51595 0.75673 0.72235 0.0
C1275 C 0.50388 0.79284 0.72344 0.0
C1276 C 0.54808 0.74566 0.72948 0.0
C1277 C 0.50597 0.69181 0.71482 0.0
C1278 C 0.54262 0.72508 0.74003 0.0
C1279 C 0.57145 0.71829 0.74791 0.0
C1280 C 0.60642 0.73172 0.74532 0.0
C1281 C 0.61224 0.75123 0.73451 0.0
C1282 C 0.58307 0.75859 0.72669 0.0
H1283 H 0.49096 0.6786 0.70725 0.0
H1284 H 0.53566 0.69075 0.71289 0.0
H1285 H 0.50066 0.67588 0.72319 0.0
H1286 H 0.51564 0.71542 0.74242 0.0
H1287 H 0.56622 0.70299 0.75613 0.0
H1288 H 0.74003 0.43549 0.22906 0.0
H1289 H 0.75205 0.48554 0.24297 0.0
H1290 H 0.73255 0.41475 0.27349 0.0
H1291 H 0.72041 0.36387 0.25958 0.0
H1292 H 0.69697 0.48753 0.274 0.0
H1293 H 0.8452 0.49336 0.26499 0.0
H1294 H 0.81854 0.49032 0.25136 0.0
H1295 H 0.818 0.4532 0.26203 0.0
C1296 C 0.73815 0.43034 0.23872 0.0
C1297 C 0.72946 0.3955 0.24319 0.0
C1298 C 0.74525 0.459 0.24665 0.0
C1299 C 0.74382 0.45355 0.25922 0.0
C1300 C 0.73413 0.41924 0.26379 0.0
H1301 H 0.82374 0.65571 0.29171 0.0
H1302 H 0.8116 0.58995 0.29184 0.0
C1303 C 0.72718 0.39031 0.25583 0.0
C1304 C 0.75206 0.48442 0.26735 0.0
H1305 H 0.81704 0.54941 0.27168 0.0
C1306 C 0.72346 0.50065 0.27381 0.0
C1307 C 0.78684 0.50093 0.26733 0.0
C1308 C 0.81903 0.48336 0.26116 0.0
C1309 C 0.72787 0.53501 0.27922 0.0
C1310 C 0.76149 0.55353 0.27792 0.0
C1311 C 0.7911 0.53545 0.27257 0.0
C1312 C 0.76482 0.59329 0.27994 0.0
C1313 C 0.69598 0.55188 0.28576 0.0
C1314 C 0.74231 0.61694 0.27333 0.0
C1315 C 0.74924 0.65426 0.27318 0.0
C1316 C 0.77906 0.6688 0.27957 0.0
C1317 C 0.80057 0.64535 0.28669 0.0
C1318 C 0.79364 0.60781 0.2868 0.0
H1319 H 0.67903 0.53056 0.29017 0.0
H1320 H 0.70506 0.5717 0.29276 0.0
H1321 H 0.67848 0.56632 0.27911 0.0
H1322 H 0.72053 0.60635 0.26771 0.0
H1323 H 0.73194 0.67152 0.26767 0.0
H1324 H 0.6698 0.25269 0.7285 0.0
H1325 H 0.60492 0.26477 0.72888 0.0
H1326 H 0.5884 0.18896 0.69947 0.0
H1327 H 0.65398 0.17573 0.69919 0.0
H1328 H 0.55585 0.2902 0.71192 0.0
H1329 H 0.52329 0.14782 0.72616 0.0
H1330 H 0.56943 0.16473 0.72599 0.0
H1331 H 0.54675 0.15406 0.712 0.0
C1332 C 0.65262 0.23855 0.72204 0.0
C1333 C 0.66714 0.21272 0.71394 0.0
C1334 C 0.61544 0.24573 0.72223 0.0
C1335 C 0.59179 0.22743 0.71432 0.0
C1336 C 0.60617 0.2029 0.70579 0.0
H1337 H 0.35953 0.24331 0.73471 0.0
H1338 H 0.41074 0.23393 0.72072 0.0
C1339 C 0.64363 0.1955 0.70562 0.0
C1340 C 0.55211 0.23278 0.71587 0.0
H1341 H 0.47788 0.19175 0.72859 0.0
C1342 C 0.53844 0.2685 0.71525 0.0
C1343 C 0.52942 0.20437 0.72019 0.0
C1344 C 0.5428 0.16558 0.72122 0.0
C1345 C 0.50382 0.27705 0.71979 0.0
C1346 C 0.48247 0.24918 0.725 0.0
C1347 C 0.49459 0.21298 0.72459 0.0
C1348 C 0.45082 0.25772 0.73272 0.0
C1349 C 0.49114 0.31614 0.71966 0.0
C1350 C 0.45669 0.27404 0.74406 0.0
C1351 C 0.42782 0.27891 0.7521 0.0
C1352 C 0.39246 0.26778 0.74891 0.0
C1353 C 0.38647 0.25231 0.73739 0.0
C1354 C 0.41557 0.24693 0.7294 0.0
H1355 H 0.50572 0.33237 0.71267 0.0
H1356 H 0.46136 0.31772 0.71793 0.0
H1357 H 0.49661 0.32862 0.72865 0.0
H1358 H 0.48388 0.28206 0.74681 0.0
H1359 H 0.43328 0.29108 0.76087 0.0
H1360 H 0.16183 0.15742 0.95395 0.0
H1361 H 0.17059 0.09112 0.95522 0.0
H1362 H 0.26646 0.10774 0.97718 0.0
H1363 H 0.25843 0.17334 0.97581 0.0
H1364 H 0.27308 0.04951 0.96055 0.0
H1365 H 0.14531 0.04302 0.98793 0.0
H1366 H 0.14255 0.06097 0.97279 0.0
H1367 H 0.16673 0.08588 0.98427 0.0
C1368 C 0.18516 0.14688 0.95884 0.0
C1369 C 0.20901 0.17057 0.96499 0.0
C1370 C 0.19004 0.10906 0.95958 0.0
C1371 C 0.21884 0.09463 0.96645 0.0
C1372 C 0.24401 0.11833 0.97185 0.0
H1373 H 0.26503 0.94115 0.01783 0.0
H1374 H 0.25022 0.99094 0.00408 0.0
C1375 C 0.23917 0.15587 0.97114 0.0
C1376 C 0.22113 0.0554 0.9694 0.0
H1377 H 0.1844 0.993 0.98881 0.0
C1378 C 0.25325 0.03659 0.96645 0.0
C1379 C 0.19523 0.03889 0.97716 0.0
C1380 C 0.16054 0.05811 0.98082 0.0
C1381 C 0.26141 0.00282 0.97178 0.0
C1382 C 0.23662 0.98761 0.98017 0.0
C1383 C 0.20328 0.00501 0.98238 0.0
C1384 C 0.2469 0.9569 0.9881 0.0
C1385 C 0.2976 0.98498 0.96918 0.0
C1386 C 0.25027 0.92135 0.98359 0.0
C1387 C 0.25885 0.89265 0.99144 0.0
C1388 C 0.26404 0.89916 0.00392 0.0
C1389 C 0.26116 0.93504 0.0083 0.0
C1390 C 0.25262 0.96356 0.00047 0.0
H1391 H 0.31487 0.00166 0.96304 0.0
H1392 H 0.31265 0.98032 0.97778 0.0
H1393 H 0.29297 0.95801 0.96488 0.0
H1394 H 0.24568 0.91574 0.97406 0.0
H1395 H 0.26075 0.86534 0.98776 0.0
H1396 H 0.17946 0.72925 0.03156 0.0
H1397 H 0.11556 0.71282 0.02824 0.0
H1398 H 0.08735 0.82688 0.02623 0.0
H1399 H 0.15101 0.84334 0.03028 0.0
H1400 H 0.03131 0.78602 0.03555 0.0
H1401 H 0.08546 0.72329 0.99334 0.0
H1402 H 0.10286 0.70316 0.00698 0.0
H1403 H 0.1136 0.74984 0.00339 0.0
C1404 C 0.15932 0.75072 0.03078 0.0
C1405 C 0.1699 0.78749 0.03101 0.0
C1406 C 0.12296 0.74136 0.02883 0.0
C1407 C 0.09701 0.76863 0.02659 0.0
C1408 C 0.10703 0.80542 0.02785 0.0
H1409 H 0.9255 0.76429 0.97553 0.0
H1410 H 0.97922 0.77362 0.98806 0.0
C1411 C 0.14332 0.81482 0.03015 0.0
C1412 C 0.06115 0.7591 0.02132 0.0
H1413 H 0.02241 0.72014 0.99636 0.0
C1414 C 0.02922 0.77142 0.02702 0.0
C1415 C 0.05866 0.74049 0.01009 0.0
C1416 C 0.09193 0.72872 0.00302 0.0
C1417 C 0.99484 0.7662 0.02166 0.0
C1418 C 0.99252 0.74755 0.01045 0.0
C1419 C 0.02434 0.73432 0.00498 0.0
C1420 C 0.95811 0.74415 0.00355 0.0
C1421 C 0.96159 0.782 0.02773 0.0
C1422 C 0.92814 0.72479 0.00816 0.0
C1423 C 0.89701 0.71968 0.00101 0.0
C1424 C 0.89579 0.73332 0.98909 0.0
C1425 C 0.92571 0.75307 0.98461 0.0
C1426 C 0.95642 0.75854 0.99178 0.0
H1427 H 0.96892 0.80201 0.0349 0.0
H1428 H 0.9437 0.79564 0.021 0.0
H1429 H 0.94577 0.75968 0.03203 0.0
H1430 H 0.92917 0.71286 0.01714 0.0
H1431 H 0.87439 0.70424 0.00468 0.0
H1432 H 0.74014 0.05723 0.01372 0.0
H1433 H 0.75178 0.00779 -0.00049 0.0
H1434 H 0.73418 0.08059 0.9694 0.0
H1435 H 0.72253 0.13085 0.9836 0.0
H1436 H 0.69703 0.00585 0.96911 0.0
H1437 H 0.84617 0.00333 0.97697 0.0
H1438 H 0.81971 0.00693 0.99064 0.0
H1439 H 0.81849 0.04328 0.97971 0.0
C1440 C 0.73856 0.06293 0.00409 0.0
C1441 C 0.73061 0.09815 -0.00019 0.0
C1442 C 0.74538 0.03462 0.99599 0.0
C1443 C 0.74435 0.04083 0.98346 0.0
C1444 C 0.73537 0.07552 0.97907 0.0
H1445 H 0.82491 0.84118 0.94922 0.0
H1446 H 0.8118 0.9068 0.94961 0.0
C1447 C 0.72872 0.10409 0.9872 0.0
C1448 C 0.75263 0.01041 0.97517 0.0
H1449 H 0.81888 0.94733 0.97006 0.0
C1450 C 0.72387 0.99348 0.96899 0.0
C1451 C 0.78781 0.99488 0.97482 0.0
C1452 C 0.81995 0.0132 0.9808 0.0
C1453 C 0.72869 0.95933 0.96348 0.0
C1454 C 0.76291 0.94178 0.96439 0.0
C1455 C 0.79253 0.96059 0.96946 0.0
C1456 C 0.76705 0.90216 0.9623 0.0
C1457 C 0.69664 0.94155 0.95729 0.0
C1458 C 0.74612 0.87791 0.96923 0.0
C1459 C 0.75367 0.84074 0.96911 0.0
C1460 C 0.78251 0.82694 0.9621 0.0
C1461 C 0.80253 0.85101 0.95472 0.0
C1462 C 0.79503 0.88844 0.95491 0.0
H1463 H 0.67844 0.96238 0.95319 0.0
H1464 H 0.70556 0.9223 0.9501 0.0
H1465 H 0.68046 0.92625 0.9641 0.0
H1466 H 0.72504 0.88792 0.97525 0.0
H1467 H 0.7375 0.82295 0.97482 0.0
H1468 H 0.13817 0.26732 0.01011 0.0
H1469 H 0.08771 0.25226 0.02389 0.0
H1470 H 0.01348 0.25064 0.9936 0.0
H1471 H 0.06299 0.26576 0.97984 0.0
H1472 H 0.0102 0.29312 0.02486 0.0
H1473 H 0.01099 0.14619 0.01281 0.0
H1474 H 0.0512 0.17466 0.01196 0.0
H1475 H 0.01727 0.17685 0.00024 0.0
C1476 C 0.11104 0.26407 0.0064 0.0
C1477 C 0.10472 0.26749 0.99384 0.0
C1478 C 0.08236 0.25544 0.01428 0.0
C1479 C 0.04721 0.24998 0.00968 0.0
C1480 C 0.04064 0.25442 0.99726 0.0
H1481 H 0.82905 0.25193 0.01574 0.0
H1482 H 0.89404 0.26425 0.01608 0.0
C1483 C 0.06903 0.26311 0.98942 0.0
C1484 C 0.01668 0.23908 0.01755 0.0
H1485 H 0.95432 0.17073 0.01999 0.0
C1486 C -0.00158 0.26607 0.02416 0.0
C1487 C 0.00184 0.20365 0.01676 0.0
C1488 C 0.02145 0.17348 0.01015 0.0
C1489 C 0.9637 0.25939 0.02901 0.0
C1490 C 0.94696 0.22517 0.02695 0.0
C1491 C 0.967 0.19709 0.02147 0.0
C1492 C 0.90721 0.21998 0.02831 0.0
C1493 C 0.94447 0.28964 0.0357 0.0
C1494 C 0.89298 0.19055 0.03492 0.0
C1495 C 0.85556 0.18312 0.03466 0.0
C1496 C 0.83197 0.2047 0.0276 0.0
C1497 C 0.84638 0.23459 0.02122 0.0
C1498 C 0.88355 0.24204 0.02154 0.0
H1499 H 0.96435 0.30735 0.04051 0.0
H1500 H 0.92963 0.30693 0.02908 0.0
H1501 H 0.9246 0.27874 0.04237 0.0
H1502 H 0.91091 0.17289 0.04005 0.0
H1503 H 0.84532 0.15991 0.03968 0.0
H1504 H 0.74893 0.062 0.72736 0.0
H1505 H 0.73421 0.01231 0.7411 0.0
H1506 H 0.75328 0.08236 0.77186 0.0
H1507 H 0.76829 0.13282 0.75812 0.0
H1508 H 0.78671 0.01137 0.77324 0.0
H1509 H 0.64042 0.00274 0.76178 0.0
H1510 H 0.6683 0.00489 0.74843 0.0
H1511 H 0.66756 0.04289 0.75877 0.0
C1512 C 0.75005 0.06708 0.73703 0.0
C1513 C 0.75962 0.10155 0.74162 0.0
C1514 C 0.74134 0.03865 0.74487 0.0
C1515 C 0.7419 0.04399 0.75746 0.0
C1516 C 0.75227 0.07796 0.76215 0.0
H1517 H 0.66207 0.83884 0.78767 0.0
H1518 H 0.67169 0.90497 0.78828 0.0
C1519 C 0.76088 0.10666 0.75428 0.0
C1520 C 0.73284 0.0131 0.76549 0.0
H1521 H 0.66892 0.94644 0.76849 0.0
C1522 C 0.76063 -0.00241 0.77252 0.0
C1523 C 0.69851 0.99577 0.76483 0.0
C1524 C 0.66686 0.01268 0.75815 0.0
C1525 C 0.75617 0.96308 0.7778 0.0
C1526 C 0.72342 0.94364 0.77576 0.0
C1527 C 0.69428 0.96105 0.7699 0.0
C1528 C 0.721 0.90371 0.77752 0.0
C1529 C 0.78724 0.94705 0.78498 0.0
C1530 C 0.7457 0.88112 0.77139 0.0
C1531 C 0.74024 0.84358 0.77097 0.0
C1532 C 0.70971 0.82775 0.7766 0.0
C1533 C 0.68582 0.85019 0.78322 0.0
C1534 C 0.69131 0.88794 0.78361 0.0
H1535 H 0.80245 0.96877 0.78986 0.0
H1536 H 0.77751 0.9266 0.79166 0.0
H1537 H 0.80661 0.93359 0.77868 0.0
H1538 H 0.76821 0.89266 0.76633 0.0
H1539 H 0.75935 0.82716 0.76586 0.0
H1540 H 0.84476 0.33004 0.20494 0.0
H1541 H 0.9102 0.31666 0.20568 0.0
H1542 H 0.88898 0.22531 0.2293 0.0
H1543 H 0.82416 0.23796 0.22849 0.0
H1544 H 0.9494 0.3197 0.22636 0.0
H1545 H 0.96452 0.18225 0.20693 0.0
H1546 H 0.92477 0.21012 0.20414 0.0
H1547 H 0.92779 0.18248 0.21763 0.0
C1548 C 0.85403 0.30668 0.21009 0.0
C1549 C 0.82927 0.28531 0.21676 0.0
C1550 C 0.89137 0.29902 0.21046 0.0
C1551 C 0.90437 0.26959 0.21736 0.0
C1552 C 0.87953 0.24753 0.22364 0.0
H1553 H 0.05751 0.23635 0.26921 0.0
H1554 H 0.00862 0.25023 0.25504 0.0
C1555 C 0.84242 0.25519 0.22331 0.0
C1556 C 0.94376 0.26475 0.21964 0.0
H1557 H 0.00694 0.19757 0.22355 0.0
C1558 C 0.96246 0.29333 0.22537 0.0
C1559 C 0.96109 0.23057 0.2182 0.0
C1560 C 0.94354 0.19979 0.21126 0.0
C1561 C 0.99635 0.28744 0.23086 0.0
C1562 C 0.01151 0.25205 0.23069 0.0
C1563 C 0.99479 0.22452 0.22385 0.0
C1564 C 0.04143 0.24214 0.23897 0.0
C1565 C 0.01463 0.31853 0.23744 0.0
C1566 C 0.07567 0.23175 0.23456 0.0
C1567 C 0.10389 0.22371 0.24266 0.0
C1568 C 0.09804 0.22564 0.25528 0.0
C1569 C 0.06315 0.23477 0.25958 0.0
C1570 C 0.03518 0.24292 0.2515 0.0
H1571 H 0.00588 0.34533 0.23376 0.0
H1572 H 0.00695 0.31757 0.24717 0.0
H1573 H 0.04476 0.31647 0.23679 0.0
H1574 H 0.08073 0.23064 0.22488 0.0
H1575 H 0.13039 0.21662 0.23904 0.0
H1576 H 0.3277 0.15641 0.79318 0.0
H1577 H 0.31532 0.09076 0.79482 0.0
H1578 H 0.23766 0.09887 0.76557 0.0
H1579 H 0.2491 0.16374 0.764 0.0
H1580 H 0.21323 0.05605 0.78515 0.0
H1581 H 0.35265 0.01682 0.76962 0.0
H1582 H 0.34812 0.04541 0.7828 0.0
H1583 H 0.3363 0.06298 0.76813 0.0
C1584 C 0.30789 0.14417 0.78714 0.0
C1585 C 0.28968 0.16535 0.77837 0.0
C1586 C 0.3009 0.1067 0.78809 0.0
C1587 C 0.27576 0.09001 0.78026 0.0
C1588 C 0.25705 0.11127 0.77174 0.0
H1589 H 0.201 0.93193 0.7377 0.0
H1590 H 0.21242 0.9818 0.75185 0.0
C1591 C 0.26385 0.14843 0.77081 0.0
C1592 C 0.26969 0.05019 0.78014 0.0
H1593 H 0.30675 0.97288 0.76819 0.0
C1594 C 0.23394 0.03748 0.78181 0.0
C1595 C 0.29684 0.02599 0.77589 0.0
C1596 C 0.33566 0.03826 0.77394 0.0
C1597 C 0.22382 0.00234 0.77815 0.0
C1598 C 0.25014 0.97958 0.77272 0.0
C1599 C 0.28668 0.99069 0.77232 0.0
C1600 C 0.2393 0.94807 0.76524 0.0
C1601 C 0.18455 0.99074 0.77926 0.0
C1602 C 0.2506 0.91265 0.76814 0.0
C1603 C 0.24381 0.88394 0.76009 0.0
C1604 C 0.22647 0.89059 0.74892 0.0
C1605 C 0.21457 0.92603 0.7462 0.0
C1606 C 0.22081 0.95446 0.75431 0.0
H1607 H 0.17047 0.00585 0.78664 0.0
H1608 H 0.17021 0.99668 0.77062 0.0
H1609 H 0.18242 0.96101 0.78105 0.0
H1610 H 0.26531 0.90742 0.77648 0.0
H1611 H 0.25344 0.85689 0.76238 0.0
H1612 H 0.86065 0.76233 0.23366 0.0
H1613 H 0.91079 0.74434 0.22022 0.0
H1614 H 0.98 0.72761 0.25133 0.0
H1615 H 0.93054 0.74528 0.26477 0.0
H1616 H 0.98147 0.77612 0.21832 0.0
H1617 H 0.9891 0.63154 0.23203 0.0
H1618 H 0.94932 0.65941 0.23475 0.0
H1619 H 0.98757 0.66117 0.24497 0.0
C1620 C 0.88655 0.75477 0.23764 0.0
C1621 C 0.89149 0.75509 0.25032 0.0
C1622 C 0.91506 0.74444 0.22995 0.0
C1623 C 0.9487 0.73388 0.23483 0.0
C1624 C 0.95389 0.73482 0.24742 0.0
H1625 H 0.16502 0.74927 0.22632 0.0
H1626 H 0.0995 0.75777 0.22581 0.0
C1627 C 0.92562 0.74525 0.25509 0.0
C1628 C 0.97948 0.72344 0.22694 0.0
H1629 H 0.04568 0.65876 0.22489 0.0
C1630 C 0.99507 0.75008 0.21945 0.0
C1631 C 0.99657 0.68912 0.22813 0.0
C1632 C 0.97952 0.65854 0.23531 0.0
C1633 C 0.02947 0.74468 0.21421 0.0
C1634 C 0.04871 0.71216 0.21676 0.0
C1635 C 0.0312 0.68396 0.22309 0.0
C1636 C 0.0886 0.70948 0.21509 0.0
C1637 C 0.04568 0.77462 0.20655 0.0
C1638 C 0.10441 0.67927 0.2093 0.0
C1639 C 0.14219 0.67405 0.20969 0.0
C1640 C 0.16454 0.69869 0.21605 0.0
C1641 C 0.14862 0.72958 0.22142 0.0
C1642 C 0.11111 0.73481 0.22098 0.0
H1643 H 0.02406 0.78937 0.20149 0.0
H1644 H 0.05946 0.79468 0.21254 0.0
H1645 H 0.0659 0.76379 0.19999 0.0
H1646 H 0.08743 0.65916 0.20484 0.0
H1647 H 0.15364 0.65 0.20545 0.0
H1648 H 0.67333 0.65885 0.44887 0.0
H1649 H 0.68568 0.59307 0.448 0.0
H1650 H 0.76123 0.60394 0.47777 0.0
H1651 H 0.74995 0.66896 0.47853 0.0
H1652 H 0.78596 0.55696 0.45972 0.0
H1653 H 0.64337 0.52501 0.4739 0.0
H1654 H 0.65031 0.55053 0.46016 0.0
H1655 H 0.66102 0.57088 0.47453 0.0
C1656 C 0.69287 0.64722 0.45512 0.0
C1657 C 0.71019 0.66911 0.4639 0.0
C1658 C 0.69979 0.60966 0.45463 0.0
C1659 C 0.724 0.59365 0.46293 0.0
C1660 C 0.74245 0.61576 0.47128 0.0
H1661 H 0.78546 0.43763 0.50927 0.0
H1662 H 0.77563 0.48734 0.49491 0.0
C1663 C 0.7357 0.653 0.47176 0.0
C1664 C 0.72867 0.55373 0.46388 0.0
H1665 H 0.68728 0.47973 0.47661 0.0
C1666 C 0.76416 0.53965 0.46304 0.0
C1667 C 0.70013 0.53119 0.46817 0.0
C1668 C 0.66153 0.54497 0.46932 0.0
C1669 C 0.77249 0.50489 0.46752 0.0
C1670 C 0.74461 0.48389 0.47287 0.0
C1671 C 0.70851 0.49624 0.47252 0.0
C1672 C 0.75323 0.45285 0.48083 0.0
C1673 C 0.81145 0.49188 0.46732 0.0
C1674 C 0.74376 0.41716 0.47761 0.0
C1675 C 0.74962 0.38858 0.48577 0.0
C1676 C 0.76428 0.39556 0.49735 0.0
C1677 C 0.77393 0.43142 0.50046 0.0
C1678 C 0.76858 0.45977 0.49225 0.0
H1679 H 0.82772 0.50639 0.46033 0.0
H1680 H 0.82406 0.49715 0.47631 0.0
H1681 H 0.81273 0.46209 0.46556 0.0
H1682 H 0.73151 0.41153 0.46886 0.0
H1683 H 0.74177 0.36121 0.48315 0.0
H1684 H 0.66498 0.24993 0.51335 0.0
H1685 H 0.60022 0.23804 0.51509 0.0
H1686 H 0.59221 0.3159 0.54429 0.0
H1687 H 0.65766 0.32875 0.54249 0.0
H1688 H 0.55727 0.21375 0.53463 0.0
H1689 H 0.51843 0.3534 0.51916 0.0
H1690 H 0.56451 0.33688 0.5177 0.0
H1691 H 0.54695 0.34893 0.53235 0.0
C1692 C 0.64971 0.2646 0.5202 0.0
C1693 C 0.66657 0.29068 0.52768 0.0
C1694 C 0.61262 0.25754 0.52123 0.0
C1695 C 0.5914 0.27627 0.52975 0.0
C1696 C 0.6081 0.3015 0.53755 0.0
H1697 H 0.35781 0.25673 0.51242 0.0
H1698 H 0.40879 0.268 0.52639 0.0
C1699 C 0.64547 0.30874 0.53651 0.0
C1700 C 0.55157 0.27029 0.52966 0.0
H1701 H 0.47408 0.30787 0.51804 0.0
C1702 C 0.53873 0.23458 0.53136 0.0
C1703 C 0.52739 0.2976 0.52551 0.0
C1704 C 0.5398 0.33638 0.52351 0.0
C1705 C 0.50338 0.22469 0.52786 0.0
C1706 C 0.48056 0.25118 0.52254 0.0
C1707 C 0.49191 0.28766 0.52209 0.0
C1708 C 0.44866 0.24058 0.5152 0.0
C1709 C 0.49157 0.18549 0.52906 0.0
C1710 C 0.45443 0.22149 0.50435 0.0
C1711 C 0.42576 0.2156 0.49631 0.0
C1712 C 0.39067 0.22846 0.49903 0.0
C1713 C 0.38458 0.24637 0.51014 0.0
C1714 C 0.41355 0.2528 0.51811 0.0
H1715 H 0.50663 0.17147 0.53645 0.0
H1716 H 0.46185 0.18353 0.53087 0.0
H1717 H 0.49741 0.17093 0.52045 0.0
H1718 H 0.48152 0.21242 0.50187 0.0
H1719 H 0.43122 0.20156 0.48786 0.0
H1720 H 0.24205 0.56333 0.51771 0.0
H1721 H 0.25768 0.51412 0.5039 0.0
H1722 H 0.24127 0.58532 0.47328 0.0
H1723 H 0.22546 0.63536 0.4871 0.0
H1724 H 0.20806 0.51245 0.47169 0.0
H1725 H 0.35418 0.50839 0.48379 0.0
H1726 H 0.32539 0.51054 0.49693 0.0
H1727 H 0.32589 0.54799 0.48638 0.0
C1728 C 0.24161 0.56875 0.50806 0.0
C1729 C 0.23272 0.60346 0.50354 0.0
C1730 C 0.25081 0.54059 0.50018 0.0
C1731 C 0.25137 0.54645 0.48762 0.0
C1732 C 0.2414 0.58056 0.48298 0.0
H1733 H 0.33667 0.34268 0.45796 0.0
H1734 H 0.32608 0.40867 0.45726 0.0
C1735 C 0.23232 0.609 0.49089 0.0
C1736 C 0.26164 0.51602 0.47958 0.0
H1737 H 0.32761 0.45133 0.47697 0.0
C1738 C 0.23453 0.49953 0.4725 0.0
C1739 C 0.29646 0.49983 0.48039 0.0
C1740 C 0.32729 0.51783 0.48719 0.0
C1741 C 0.24016 0.46503 0.46734 0.0
C1742 C 0.2734 0.44666 0.46956 0.0
C1743 C 0.30189 0.46514 0.47542 0.0
C1744 C 0.27686 0.40675 0.46805 0.0
C1745 C 0.20975 0.44777 0.46015 0.0
C1746 C 0.2527 0.38391 0.47432 0.0
C1747 C 0.25873 0.3465 0.47481 0.0
C1748 C 0.28932 0.33103 0.46912 0.0
C1749 C 0.3129 0.35376 0.46247 0.0
C1750 C 0.30683 0.3914 0.46201 0.0
H1751 H 0.19398 0.46883 0.45517 0.0
H1752 H 0.22027 0.42743 0.45356 0.0
H1753 H 0.19069 0.43388 0.46646 0.0
H1754 H 0.23001 0.3952 0.47936 0.0
H1755 H 0.23985 0.32987 0.47996 0.0
H1756 H 0.6325 0.77262 0.51033 0.0
H1757 H 0.58174 0.75853 0.52406 0.0
H1758 H 0.5144 0.73093 0.49335 0.0
H1759 H 0.56441 0.74466 0.47964 0.0
H1760 H 0.5107 0.79055 0.5242 0.0
H1761 H 0.50425 0.64205 0.51606 0.0
H1762 H 0.5441 0.66904 0.51253 0.0
H1763 H 0.50632 0.66721 0.50212 0.0
C1764 C 0.60691 0.76341 0.50651 0.0
C1765 C 0.60261 0.75966 0.49387 0.0
C1766 C 0.57803 0.75535 0.51437 0.0
C1767 C 0.54469 0.74299 0.5097 0.0
C1768 C 0.54024 0.73962 0.49713 0.0
H1769 H 0.32564 0.75769 0.51872 0.0
H1770 H 0.39104 0.76747 0.51788 0.0
C1771 C 0.56885 0.74779 0.4893 0.0
C1772 C 0.51341 0.73519 0.51772 0.0
H1773 H 0.44762 0.67101 0.52214 0.0
C1774 C 0.49732 0.76417 0.52406 0.0
C1775 C 0.4965 0.70056 0.51778 0.0
C1776 C 0.51392 0.66784 0.51186 0.0
C1777 C 0.46284 0.76029 0.5294 0.0
C1778 C 0.444 0.72682 0.52817 0.0
C1779 C 0.46181 0.69685 0.52294 0.0
C1780 C 0.40433 0.72387 0.53036 0.0
C1781 C 0.44624 0.79255 0.53583 0.0
C1782 C 0.38993 0.69585 0.53759 0.0
C1783 C 0.35227 0.68988 0.538 0.0
C1784 C 0.32852 0.71154 0.53103 0.0
C1785 C 0.34308 0.74034 0.52415 0.0
C1786 C 0.38054 0.74632 0.52378 0.0
H1787 H 0.46768 0.80973 0.54007 0.0
H1788 H 0.43156 0.80971 0.52913 0.0
H1789 H 0.42667 0.78382 0.54294 0.0
H1790 H 0.40789 0.67795 0.54262 0.0
H1791 H 0.34194 0.66746 0.54339 0.0
H1792 H 0.06101 0.14366 0.29698 0.0
H1793 H 0.01479 0.09572 0.2971 0.0
H1794 H 0.09901 0.01389 0.29818 0.0
H1795 H 0.14553 0.06151 0.2982 0.0
H1796 H 0.00791 0.04178 0.27928 0.0
H1797 H 0.02848 0.98017 0.32478 0.0
H1798 H 0.04605 0.0246 0.3208 0.0
H1799 H 0.06909 0.9841 0.31578 0.0
C1800 C 0.06981 0.11551 0.29743 0.0
C1801 C 0.1071 0.10654 0.29758 0.0
C1802 C 0.0433 0.08814 0.29748 0.0
C1803 C 0.05347 0.05129 0.29777 0.0
C1804 C 0.09056 0.04218 0.29818 0.0
H1805 H 0.9319 0.84823 0.29098 0.0
H1806 H 0.97962 0.89447 0.29316 0.0
C1807 C 0.11713 0.06951 0.29813 0.0
C1808 C 0.02534 0.02245 0.29678 0.0
H1809 H 0.98895 0.94868 0.31131 0.0
C1810 C 0.00362 0.02153 0.28631 0.0
C1811 C 0.02007 0.9959 0.30592 0.0
C1812 C 0.04191 0.99628 0.31751 0.0
C1813 C 0.97694 0.99458 0.28467 0.0
C1814 C 0.97139 0.96825 0.29385 0.0
C1815 C 0.99329 0.96894 0.30429 0.0
C1816 C 0.94247 0.94022 0.29286 0.0
C1817 C 0.95536 0.99415 0.27301 0.0
C1818 C 0.90578 0.95065 0.29218 0.0
C1819 C 0.87847 0.92441 0.29092 0.0
C1820 C 0.88727 0.88708 0.29038 0.0
C1821 C 0.92409 0.87669 0.29132 0.0
C1822 C 0.95142 0.90305 0.29258 0.0
H1823 H 0.96931 0.00967 0.2657 0.0
H1824 H 0.95074 0.9658 0.26982 0.0
H1825 H 0.92841 0.00699 0.2746 0.0
H1826 H 0.89825 0.97918 0.29262 0.0
H1827 H 0.85046 0.9335 0.29031 0.0
H1828 H 0.93148 0.14139 0.70114 0.0
H1829 H 0.97671 0.09268 0.70104 0.0
H1830 H 0.89093 0.01232 0.70155 0.0
H1831 H 0.84527 0.06084 0.70152 0.0
H1832 H 0.98495 0.04003 0.71908 0.0
H1833 H 0.95784 0.97573 0.67434 0.0
H1834 H 0.94133 0.02061 0.67824 0.0
H1835 H 0.91856 0.98074 0.68393 0.0
C1836 C 0.92208 0.11339 0.70108 0.0
C1837 C 0.88461 0.10513 0.70133 0.0
C1838 C 0.94805 0.08557 0.70104 0.0
C1839 C 0.9372 0.04891 0.70117 0.0
C1840 C 0.8999 0.04044 0.70122 0.0
H1841 H 0.05898 0.84595 0.70728 0.0
H1842 H 0.01121 0.89217 0.70558 0.0
C1843 C 0.87383 0.06827 0.70126 0.0
C1844 C 0.96503 0.01974 0.70199 0.0
H1845 H -0.00058 0.94528 0.68732 0.0
C1846 C 0.98821 0.01938 0.71212 0.0
C1847 C 0.96902 0.99272 0.69293 0.0
C1848 C 0.9456 0.99248 0.68169 0.0
C1849 C 0.01516 0.9926 0.71348 0.0
C1850 C 0.01947 0.96582 0.70436 0.0
C1851 C 0.99605 0.9659 0.69429 0.0
C1852 C 0.04849 0.93783 0.70506 0.0
C1853 C 0.03841 0.99284 0.72477 0.0
C1854 C 0.08529 0.94818 0.70512 0.0
C1855 C 0.11268 0.92191 0.7061 0.0
C1856 C 0.10383 0.88465 0.70698 0.0
C1857 C 0.06686 0.87435 0.70666 0.0
C1858 C 0.03948 0.90071 0.70568 0.0
H1859 H 0.02555 0.00876 0.7322 0.0
H1860 H 0.0435 0.96467 0.72806 0.0
H1861 H 0.0651 0.00559 0.72267 0.0
H1862 H 0.09284 0.97666 0.70442 0.0
H1863 H 0.14079 0.93092 0.70624 0.0
H1864 H 0.06417 0.35344 0.95229 0.0
H1865 H 0.01699 0.40006 0.95032 0.0
H1866 H 0.09935 0.48394 0.95009 0.0
H1867 H 0.14674 0.43773 0.9522 0.0
H1868 H 0.04251 0.49731 0.96622 0.0
H1869 H 0.98961 0.46129 0.92058 0.0
H1870 H 0.99103 0.42393 0.9311 0.0
H1871 H 0.03281 0.44486 0.9262 0.0
C1872 C 0.07235 0.38176 0.95172 0.0
C1873 C 0.10934 0.39175 0.95238 0.0
C1874 C 0.04531 0.40836 0.95052 0.0
C1875 C 0.05475 0.44538 0.94988 0.0
C1876 C 0.09155 0.45547 0.9505 0.0
H1877 H 0.93142 0.64803 0.94844 0.0
H1878 H 0.97957 0.60209 0.94773 0.0
C1879 C 0.1186 0.42896 0.9517 0.0
C1880 C 0.02618 0.47379 0.94917 0.0
H1881 H 0.95547 0.50467 0.93187 0.0
C1882 C 0.02362 0.49911 0.95868 0.0
C1883 C 0.00156 0.47592 0.93933 0.0
C1884 C 0.00397 0.45028 0.92866 0.0
C1885 C 0.9966 0.52612 0.95873 0.0
C1886 C 0.97192 0.52823 0.9489 0.0
C1887 C 0.97451 0.50298 0.93937 0.0
C1888 C 0.94276 0.55605 0.9485 0.0
C1889 C 0.99409 0.55159 0.96946 0.0
C1890 C 0.9061 0.54532 0.94872 0.0
C1891 C 0.87846 0.57146 0.94905 0.0
C1892 C 0.88698 0.6089 0.94912 0.0
C1893 C 0.92381 0.61949 0.94847 0.0
C1894 C 0.95141 0.59329 0.94813 0.0
H1895 H 0.00918 0.54094 0.97744 0.0
H1896 H 0.0061 0.57833 0.96697 0.0
H1897 H 0.96524 0.55613 0.9721 0.0
H1898 H 0.89891 0.51667 0.94894 0.0
H1899 H 0.85045 0.56224 0.9495 0.0
H1900 H 0.43415 0.85336 0.04521 0.0
H1901 H 0.48054 0.9009 0.04627 0.0
H1902 H 0.39674 0.98314 0.04756 0.0
H1903 H 0.34992 0.93579 0.04636 0.0
H1904 H 0.4504 0.99669 0.03026 0.0
H1905 H 0.51284 0.96437 0.07479 0.0
H1906 H 0.51009 0.92607 0.06469 0.0
H1907 H 0.46894 0.94679 0.07024 0.0
C1908 C 0.42543 0.8815 0.04586 0.0
C1909 C 0.38817 0.89064 0.04571 0.0
C1910 C 0.45208 0.90866 0.04654 0.0
C1911 C 0.44209 0.94552 0.04716 0.0
C1912 C 0.405 0.95481 0.04716 0.0
H1913 H 0.56652 0.1478 0.044 0.0
H1914 H 0.51836 0.10224 0.04592 0.0
C1915 C 0.37828 0.92766 0.04649 0.0
C1916 C 0.47039 0.9744 0.04705 0.0
H1917 H 0.54529 0.00597 0.06217 0.0
C1918 C 0.47095 -0.00104 0.03729 0.0
C1919 C 0.49728 0.97714 0.0562 0.0
C1920 C 0.49718 0.95242 0.06713 0.0
C1921 C 0.4982 0.02566 0.03628 0.0
C1922 C 0.52523 0.02826 0.04539 0.0
C1923 C 0.52455 0.00387 0.0552 0.0
C1924 C 0.55466 0.05592 0.04482 0.0
C1925 C 0.49842 0.05016 0.02528 0.0
C1926 C 0.59121 0.045 0.04396 0.0
C1927 C 0.61895 0.07099 0.04293 0.0
C1928 C 0.61065 0.10847 0.04279 0.0
C1929 C 0.57399 0.11924 0.04398 0.0
C1930 C 0.54633 0.09322 0.04502 0.0
H1931 H 0.48159 0.03886 0.01779 0.0
H1932 H 0.48703 0.07715 0.02779 0.0
H1933 H 0.52661 0.05439 0.0219 0.0
H1934 H 0.59821 0.0163 0.04385 0.0
H1935 H 0.64681 0.06164 0.04206 0.0
H1936 H 0.62753 0.57305 0.77067 0.0
H1937 H 0.57831 0.52821 0.77175 0.0
H1938 H 0.53082 0.58712 0.80176 0.0
H1939 H 0.57857 0.63349 0.80003 0.0
H1940 H 0.55936 0.48239 0.78745 0.0
H1941 H 0.44253 0.57609 0.78209 0.0
H1942 H 0.48888 0.59104 0.78008 0.0
H1943 H 0.46932 0.58811 0.79506 0.0
C1944 C 0.60634 0.57648 0.77742 0.0
C1945 C 0.60649 0.60675 0.7852 0.0
C1946 C 0.57826 0.55086 0.77806 0.0
C1947 C 0.55027 0.55456 0.78667 0.0
C1948 C 0.55119 0.58429 0.79473 0.0
H1949 H 0.41288 0.36547 0.80334 0.0
H1950 H 0.45975 0.41303 0.80387 0.0
C1951 C 0.57864 0.61058 0.79382 0.0
C1952 C 0.52085 0.52674 0.78736 0.0
H1953 H 0.42856 0.51578 0.78861 0.0
C1954 C 0.53074 0.48974 0.78759 0.0
C1955 C 0.4834 0.53614 0.78738 0.0
C1956 C 0.47042 0.57498 0.786 0.0
C1957 C 0.50444 0.46197 0.78775 0.0
C1958 C 0.46706 0.47142 0.78842 0.0
C1959 C 0.45717 0.50843 0.78826 0.0
C1960 C 0.43764 0.44353 0.78872 0.0
C1961 C 0.5172 0.42296 0.7867 0.0
C1962 C 0.40836 0.44589 0.78053 0.0
C1963 C 0.38082 0.41964 0.78059 0.0
C1964 C 0.38244 0.39008 0.78865 0.0
C1965 C 0.41137 0.38783 0.79694 0.0
C1966 C 0.43833 0.41477 0.79715 0.0
H1967 H 0.54437 0.42124 0.78229 0.0
H1968 H 0.51984 0.41106 0.79591 0.0
H1969 H 0.49775 0.40616 0.78138 0.0
H1970 H 0.40706 0.46778 0.77395 0.0
H1971 H 0.35883 0.42183 0.77407 0.0
H1972 H 0.35036 0.55649 0.20473 0.0
H1973 H 0.39769 0.51007 0.20269 0.0
H1974 H 0.48051 0.59336 0.20428 0.0
H1975 H 0.43349 0.64014 0.20616 0.0
H1976 H 0.49168 0.54141 0.1858 0.0
H1977 H 0.46442 0.4757 0.23027 0.0
H1978 H 0.42524 0.47962 0.2206 0.0
H1979 H 0.44678 0.5201 0.22636 0.0
C1980 C 0.37862 0.56504 0.20464 0.0
C1981 C 0.38805 0.60212 0.20568 0.0
C1982 C 0.40563 0.53841 0.20353 0.0
C1983 C 0.44257 0.54827 0.20352 0.0
C1984 C 0.45212 0.58521 0.20432 0.0
H1985 H 0.64803 0.43146 0.20119 0.0
H1986 H 0.60034 0.47789 0.20063 0.0
C1987 C 0.42516 0.61189 0.20542 0.0
C1988 C 0.4713 0.52007 0.20268 0.0
H1989 H 0.50645 0.44606 0.21732 0.0
C1990 C 0.49502 0.52058 0.1927 0.0
C1991 C 0.47555 0.49303 0.21171 0.0
C1992 C 0.45189 0.49213 0.22291 0.0
C1993 C 0.52258 0.49432 0.19139 0.0
C1994 C 0.52676 0.46726 0.20042 0.0
C1995 C 0.50304 0.46677 0.2104 0.0
C1996 C 0.55579 0.43929 0.19981 0.0
C1997 C 0.54652 0.49534 0.18028 0.0
C1998 C 0.54654 0.40221 0.19961 0.0
C1999 C 0.57367 0.37556 0.19999 0.0
C2000 C 0.61069 0.38549 0.20066 0.0
C2001 C 0.61987 0.42277 0.20061 0.0
C2002 C 0.59265 0.4494 0.20024 0.0
H2003 H 0.53401 0.51156 0.17286 0.0
H2004 H 0.57298 0.50816 0.18265 0.0
H2005 H 0.55205 0.46738 0.17688 0.0
H2006 H 0.51822 0.39387 0.19933 0.0
H2007 H 0.56551 0.34718 0.20001 0.0
H2008 H 0.6413 0.93502 0.45442 0.0
H2009 H 0.59279 0.98053 0.45388 0.0
H2010 H 0.51212 0.89503 0.45362 0.0
H2011 H 0.56033 0.84915 0.4543 0.0
H2012 H 0.53611 0.99083 0.43677 0.0
H2013 H 0.48273 0.95886 0.48274 0.0
H2014 H 0.52663 0.94317 0.47752 0.0
H2015 H 0.48574 0.92058 0.47262 0.0
C2016 C 0.61327 0.92577 0.45421 0.0
C2017 C 0.60478 0.88833 0.45449 0.0
C2018 C 0.5856 0.95187 0.45389 0.0
C2019 C 0.54894 0.94111 0.4539 0.0
C2020 C 0.54028 0.90386 0.45384 0.0
H2021 H 0.34628 0.06283 0.45692 0.0
H2022 H 0.39255 0.01532 0.45509 0.0
C2023 C 0.56792 0.87769 0.45417 0.0
C2024 C 0.51982 0.96897 0.45406 0.0
H2025 H 0.44972 0.00191 0.47119 0.0
C2026 C 0.5172 0.99332 0.44429 0.0
C2027 C 0.49527 0.97206 0.46389 0.0
C2028 C 0.49778 0.94752 0.47485 0.0
C2029 C 0.49035 0.02054 0.44402 0.0
C2030 C 0.46596 0.02378 0.45389 0.0
C2031 C 0.46844 -0.00074 0.46362 0.0
C2032 C 0.43802 0.05281 0.45444 0.0
C2033 C 0.48797 0.04524 0.43311 0.0
C2034 C 0.44833 0.08962 0.45475 0.0
C2035 C 0.42198 0.11692 0.45578 0.0
C2036 C 0.38478 0.10787 0.45661 0.0
C2037 C 0.37461 0.07087 0.45628 0.0
C2038 C 0.40101 0.04362 0.45524 0.0
H2039 H 0.50182 0.03323 0.42509 0.0
H2040 H 0.45914 0.05096 0.43071 0.0
H2041 H 0.50149 0.07156 0.43523 0.0
H2042 H 0.47684 0.09724 0.4544 0.0
H2043 H 0.43086 0.14507 0.45609 0.0
H2044 H 0.85162 0.436 0.53927 0.0
H2045 H 0.89924 0.48231 0.54132 0.0
H2046 H 0.98136 0.3983 0.54112 0.0
H2047 H 0.9342 0.35183 0.53894 0.0
H2048 H 0.95307 0.49058 0.55948 0.0
H2049 H 0.01471 0.46764 0.51412 0.0
H2050 H 0.97032 0.45029 0.51818 0.0
H2051 H 0.01078 0.42732 0.52326 0.0
C2052 C 0.87979 0.4273 0.53966 0.0
C2053 C 0.88901 0.39011 0.53886 0.0
C2054 C 0.90696 0.45383 0.54084 0.0
C2055 C 0.94381 0.44375 0.54118 0.0
C2056 C 0.9531 0.4067 0.54064 0.0
H2057 H 0.14744 0.56427 0.54456 0.0
H2058 H 0.10055 0.51691 0.54493 0.0
C2059 C 0.92602 0.38016 0.53945 0.0
C2060 C 0.9726 0.47195 0.54214 0.0
H2061 H 0.0464 0.5073 0.5274 0.0
C2062 C 0.97344 0.49435 0.55246 0.0
C2063 C -0.00088 0.47672 0.53297 0.0
C2064 C -0.00136 0.45448 0.52145 0.0
C2065 C 0.00048 0.52111 0.55394 0.0
C2066 C 0.02698 0.52588 0.54476 0.0
C2067 C 0.02616 0.50342 0.53446 0.0
C2068 C 0.05529 0.55464 0.54546 0.0
C2069 C 0.00085 0.54359 0.5654 0.0
C2070 C 0.04537 0.59155 0.54567 0.0
C2071 C 0.07207 0.61873 0.54548 0.0
C2072 C 0.1093 0.60953 0.54499 0.0
C2073 C 0.11911 0.57243 0.54498 0.0
C2074 C 0.09235 0.54528 0.54517 0.0
H2075 H 0.9853 0.53019 0.57281 0.0
H2076 H 0.02917 0.5485 0.56856 0.0
H2077 H 0.98801 0.57041 0.56357 0.0
H2078 H 0.01692 0.59939 0.54566 0.0
H2079 H 0.06341 0.64695 0.54544 0.0
loop_
_geom_bond_atom_site_label_1
_geom_bond_atom_site_label_2
_geom_bond_distance
_geom_bond_site_symmetry_2
_ccdc_geom_bond_type
Sc0 O3 2.025 . S
Sc0 O10 2.105 . S
Sc0 O13 2.105 . S
Sc0 O16 2.105 . S
Sc0 O19 2.105 . S
Sc1 O3 2.025 . S
Sc1 O11 2.105 . S
Sc1 O15 2.105 . S
Sc1 O17 2.105 . S
Sc1 O21 2.105 . S
Sc2 O3 2.025 . S
Sc2 O12 2.105 . S
Sc2 O14 2.105 . S
Sc2 O18 2.105 . S
Sc2 O20 2.105 . S
O3 Sc0 2.025 . S
O3 Sc1 2.025 . S
O3 Sc2 2.025 . S
C4 O10 1.268 . S
C4 O20 1.268 . S
C5 O11 1.268 . S
C5 O19 1.268 . S
C6 O12 1.268 . S
C6 O21 1.268 . S
C7 O13 1.268 . S
C7 O17 1.268 . S
C8 O14 1.268 . S
C8 O16 1.268 . S
C9 O15 1.268 . S
C9 O18 1.268 . S
O10 Sc0 2.105 . S
O10 C4 1.268 . S
O11 Sc1 2.105 . S
O11 C5 1.268 . S
O12 Sc2 2.105 . S
O12 C6 1.268 . S
O13 Sc0 2.105 . S
O13 C7 1.268 . S
O14 Sc2 2.105 . S
O14 C8 1.268 . S
O15 Sc1 2.105 . S
O15 C9 1.268 . S
O16 Sc0 2.105 . S
O16 C8 1.268 . S
O17 Sc1 2.105 . S
O17 C7 1.268 . S
O18 Sc2 2.105 . S
O18 C9 1.268 . S
O19 Sc0 2.105 . S
O19 C5 1.268 . S
O20 Sc2 2.105 . S
O20 C4 1.268 . S
O21 Sc1 2.105 . S
O21 C6 1.268 . S
Sc22 O25 2.025 . S
Sc22 O32 2.105 . S
Sc22 O35 2.105 . S
Sc22 O38 2.105 . S
Sc22 O41 2.105 . S
Sc23 O25 2.025 . S
Sc23 O33 2.105 . S
Sc23 O37 2.105 . S
Sc23 O39 2.105 . S
Sc23 O43 2.105 . S
Sc24 O25 2.025 . S
Sc24 O34 2.105 . S
Sc24 O36 2.105 . S
Sc24 O40 2.105 . S
Sc24 O42 2.105 . S
O25 Sc22 2.025 . S
O25 Sc23 2.025 . S
O25 Sc24 2.025 . S
C26 O32 1.268 . S
C26 O42 1.268 . S
C27 O33 1.268 . S
C27 O41 1.268 . S
C28 O34 1.268 . S
C28 O43 1.268 . S
C29 O35 1.268 . S
C29 O39 1.268 . S
C30 O36 1.268 . S
C30 O38 1.268 . S
C31 O37 1.268 . S
C31 O40 1.268 . S
O32 Sc22 2.105 . S
O32 C26 1.268 . S
O33 Sc23 2.105 . S
O33 C27 1.268 . S
O34 Sc24 2.105 . S
O34 C28 1.268 . S
O35 Sc22 2.105 . S
O35 C29 1.268 . S
O36 Sc24 2.105 . S
O36 C30 1.268 . S
O37 Sc23 2.105 . S
O37 C31 1.268 . S
O38 Sc22 2.105 . S
O38 C30 1.268 . S
O39 Sc23 2.105 . S
O39 C29 1.268 . S
O40 Sc24 2.105 . S
O40 C31 1.268 . S
O41 Sc22 2.105 . S
O41 C27 1.268 . S
O42 Sc24 2.105 . S
O42 C26 1.268 . S
O43 Sc23 2.105 . S
O43 C28 1.268 . S
Sc44 O47 2.025 . S
Sc44 O54 2.105 . S
Sc44 O57 2.105 . S
Sc44 O60 2.105 . S
Sc44 O63 2.105 . S
Sc45 O47 2.025 . S
Sc45 O55 2.105 . S
Sc45 O59 2.105 . S
Sc45 O61 2.105 . S
Sc45 O65 2.105 . S
Sc46 O47 2.025 . S
Sc46 O56 2.105 . S
Sc46 O58 2.105 . S
Sc46 O62 2.105 . S
Sc46 O64 2.105 . S
O47 Sc44 2.025 . S
O47 Sc45 2.025 . S
O47 Sc46 2.025 . S
C48 O54 1.268 . S
C48 O64 1.268 . S
C49 O55 1.268 . S
C49 O63 1.268 . S
C50 O56 1.268 . S
C50 O65 1.268 . S
C51 O57 1.268 . S
C51 O61 1.268 . S
C52 O58 1.268 . S
C52 O60 1.268 . S
C53 O59 1.268 . S
C53 O62 1.268 . S
O54 Sc44 2.105 . S
O54 C48 1.268 . S
O55 Sc45 2.105 . S
O55 C49 1.268 . S
O56 Sc46 2.105 . S
O56 C50 1.268 . S
O57 Sc44 2.105 . S
O57 C51 1.268 . S
O58 Sc46 2.105 . S
O58 C52 1.268 . S
O59 Sc45 2.105 . S
O59 C53 1.268 . S
O60 Sc44 2.105 . S
O60 C52 1.268 . S
O61 Sc45 2.105 . S
O61 C51 1.268 . S
O62 Sc46 2.105 . S
O62 C53 1.268 . S
O63 Sc44 2.105 . S
O63 C49 1.268 . S
O64 Sc46 2.105 . S
O64 C48 1.268 . S
O65 Sc45 2.105 . S
O65 C50 1.268 . S
Sc66 O69 2.025 . S
Sc66 O76 2.105 . S
Sc66 O79 2.105 . S
Sc66 O82 2.105 . S
Sc66 O85 2.105 . S
Sc67 O69 2.025 . S
Sc67 O77 2.105 . S
Sc67 O81 2.105 . S
Sc67 O83 2.105 . S
Sc67 O87 2.105 . S
Sc68 O69 2.025 . S
Sc68 O78 2.105 . S
Sc68 O80 2.105 . S
Sc68 O84 2.105 . S
Sc68 O86 2.105 . S
O69 Sc66 2.025 . S
O69 Sc67 2.025 . S
O69 Sc68 2.025 . S
C70 O76 1.268 . S
C70 O86 1.268 . S
C71 O77 1.268 . S
C71 O85 1.268 . S
C72 O78 1.268 . S
C72 O87 1.268 . S
C73 O79 1.268 . S
C73 O83 1.268 . S
C74 O80 1.268 . S
C74 O82 1.268 . S
C75 O81 1.268 . S
C75 O84 1.268 . S
O76 Sc66 2.105 . S
O76 C70 1.268 . S
O77 Sc67 2.105 . S
O77 C71 1.268 . S
O78 Sc68 2.105 . S
O78 C72 1.268 . S
O79 Sc66 2.105 . S
O79 C73 1.268 . S
O80 Sc68 2.105 . S
O80 C74 1.268 . S
O81 Sc67 2.105 . S
O81 C75 1.268 . S
O82 Sc66 2.105 . S
O82 C74 1.268 . S
O83 Sc67 2.105 . S
O83 C73 1.268 . S
O84 Sc68 2.105 . S
O84 C75 1.268 . S
O85 Sc66 2.105 . S
O85 C71 1.268 . S
O86 Sc68 2.105 . S
O86 C70 1.268 . S
O87 Sc67 2.105 . S
O87 C72 1.268 . S
Sc88 O91 2.025 . S
Sc88 O98 2.105 . S
Sc88 O101 2.105 . S
Sc88 O104 2.105 . S
Sc88 O107 2.105 . S
Sc89 O91 2.025 . S
Sc89 O99 2.105 . S
Sc89 O103 2.105 . S
Sc89 O105 2.105 . S
Sc89 O109 2.105 . S
Sc90 O91 2.025 . S
Sc90 O100 2.105 . S
Sc90 O102 2.105 . S
Sc90 O106 2.105 . S
Sc90 O108 2.105 . S
O91 Sc88 2.025 . S
O91 Sc89 2.025 . S
O91 Sc90 2.025 . S
C92 O98 1.268 . S
C92 O108 1.268 . S
C93 O99 1.268 . S
C93 O107 1.268 . S
C94 O100 1.268 . S
C94 O109 1.268 . S
C95 O101 1.268 . S
C95 O105 1.268 . S
C96 O102 1.268 . S
C96 O104 1.268 . S
C97 O103 1.268 . S
C97 O106 1.268 . S
O98 Sc88 2.105 . S
O98 C92 1.268 . S
O99 Sc89 2.105 . S
O99 C93 1.268 . S
O100 Sc90 2.105 . S
O100 C94 1.268 . S
O101 Sc88 2.105 . S
O101 C95 1.268 . S
O102 Sc90 2.105 . S
O102 C96 1.268 . S
O103 Sc89 2.105 . S
O103 C97 1.268 . S
O104 Sc88 2.105 . S
O104 C96 1.268 . S
O105 Sc89 2.105 . S
O105 C95 1.268 . S
O106 Sc90 2.105 . S
O106 C97 1.268 . S
O107 Sc88 2.105 . S
O107 C93 1.268 . S
O108 Sc90 2.105 . S
O108 C92 1.268 . S
O109 Sc89 2.105 . S
O109 C94 1.268 . S
Sc110 O113 2.025 . S
Sc110 O120 2.105 . S
Sc110 O123 2.105 . S
Sc110 O126 2.105 . S
Sc110 O129 2.105 . S
Sc111 O113 2.025 . S
Sc111 O121 2.105 . S
Sc111 O125 2.105 . S
Sc111 O127 2.105 . S
Sc111 O131 2.105 . S
Sc112 O113 2.025 . S
Sc112 O122 2.105 . S
Sc112 O124 2.105 . S
Sc112 O128 2.105 . S
Sc112 O130 2.105 . S
O113 Sc110 2.025 . S
O113 Sc111 2.025 . S
O113 Sc112 2.025 . S
C114 O120 1.268 . S
C114 O130 1.268 . S
C115 O121 1.268 . S
C115 O129 1.268 . S
C116 O122 1.268 . S
C116 O131 1.268 . S
C117 O123 1.268 . S
C117 O127 1.268 . S
C118 O124 1.268 . S
C118 O126 1.268 . S
C119 O125 1.268 . S
C119 O128 1.268 . S
O120 Sc110 2.105 . S
O120 C114 1.268 . S
O121 Sc111 2.105 . S
O121 C115 1.268 . S
O122 Sc112 2.105 . S
O122 C116 1.268 . S
O123 Sc110 2.105 . S
O123 C117 1.268 . S
O124 Sc112 2.105 . S
O124 C118 1.268 . S
O125 Sc111 2.105 . S
O125 C119 1.268 . S
O126 Sc110 2.105 . S
O126 C118 1.268 . S
O127 Sc111 2.105 . S
O127 C117 1.268 . S
O128 Sc112 2.105 . S
O128 C119 1.268 . S
O129 Sc110 2.105 . S
O129 C115 1.268 . S
O130 Sc112 2.105 . S
O130 C114 1.268 . S
O131 Sc111 2.105 . S
O131 C116 1.268 . S
Sc132 O135 2.025 . S
Sc132 O142 2.105 . S
Sc132 O145 2.105 . S
Sc132 O148 2.105 . S
Sc132 O151 2.105 . S
Sc133 O135 2.025 . S
Sc133 O143 2.105 . S
Sc133 O147 2.105 . S
Sc133 O149 2.105 . S
Sc133 O153 2.105 . S
Sc134 O135 2.025 . S
Sc134 O144 2.105 . S
Sc134 O146 2.105 . S
Sc134 O150 2.105 . S
Sc134 O152 2.105 . S
O135 Sc132 2.025 . S
O135 Sc133 2.025 . S
O135 Sc134 2.025 . S
C136 O142 1.268 . S
C136 O152 1.268 . S
C137 O143 1.268 . S
C137 O151 1.268 . S
C138 O144 1.268 . S
C138 O153 1.268 . S
C139 O145 1.268 . S
C139 O149 1.268 . S
C140 O146 1.268 . S
C140 O148 1.268 . S
C141 O147 1.268 . S
C141 O150 1.268 . S
O142 Sc132 2.105 . S
O142 C136 1.268 . S
O143 Sc133 2.105 . S
O143 C137 1.268 . S
O144 Sc134 2.105 . S
O144 C138 1.268 . S
O145 Sc132 2.105 . S
O145 C139 1.268 . S
O146 Sc134 2.105 . S
O146 C140 1.268 . S
O147 Sc133 2.105 . S
O147 C141 1.268 . S
O148 Sc132 2.105 . S
O148 C140 1.268 . S
O149 Sc133 2.105 . S
O149 C139 1.268 . S
O150 Sc134 2.105 . S
O150 C141 1.268 . S
O151 Sc132 2.105 . S
O151 C137 1.268 . S
O152 Sc134 2.105 . S
O152 C136 1.268 . S
O153 Sc133 2.105 . S
O153 C138 1.268 . S
Sc154 O157 2.025 . S
Sc154 O164 2.105 . S
Sc154 O167 2.105 . S
Sc154 O170 2.105 . S
Sc154 O173 2.105 . S
Sc155 O157 2.025 . S
Sc155 O165 2.105 . S
Sc155 O169 2.105 . S
Sc155 O171 2.105 . S
Sc155 O175 2.105 . S
Sc156 O157 2.025 . S
Sc156 O166 2.105 . S
Sc156 O168 2.105 . S
Sc156 O172 2.105 . S
Sc156 O174 2.105 . S
O157 Sc154 2.025 . S
O157 Sc155 2.025 . S
O157 Sc156 2.025 . S
C158 O164 1.268 . S
C158 O174 1.268 . S
C159 O165 1.268 . S
C159 O173 1.268 . S
C160 O166 1.268 . S
C160 O175 1.268 . S
C161 O167 1.268 . S
C161 O171 1.268 . S
C162 O168 1.268 . S
C162 O170 1.268 . S
C163 O169 1.268 . S
C163 O172 1.268 . S
O164 Sc154 2.105 . S
O164 C158 1.268 . S
O165 Sc155 2.105 . S
O165 C159 1.268 . S
O166 Sc156 2.105 . S
O166 C160 1.268 . S
O167 Sc154 2.105 . S
O167 C161 1.268 . S
O168 Sc156 2.105 . S
O168 C162 1.268 . S
O169 Sc155 2.105 . S
O169 C163 1.268 . S
O170 Sc154 2.105 . S
O170 C162 1.268 . S
O171 Sc155 2.105 . S
O171 C161 1.268 . S
O172 Sc156 2.105 . S
O172 C163 1.268 . S
O173 Sc154 2.105 . S
O173 C159 1.268 . S
O174 Sc156 2.105 . S
O174 C158 1.268 . S
O175 Sc155 2.105 . S
O175 C160 1.268 . S
Sc176 O179 2.025 . S
Sc176 O186 2.105 . S
Sc176 O189 2.105 . S
Sc176 O192 2.105 . S
Sc176 O195 2.105 . S
Sc177 O179 2.025 . S
Sc177 O187 2.105 . S
Sc177 O191 2.105 . S
Sc177 O193 2.105 . S
Sc177 O197 2.105 . S
Sc178 O179 2.025 . S
Sc178 O188 2.105 . S
Sc178 O190 2.105 . S
Sc178 O194 2.105 . S
Sc178 O196 2.105 . S
O179 Sc176 2.025 . S
O179 Sc177 2.025 . S
O179 Sc178 2.025 . S
C180 O186 1.268 . S
C180 O196 1.268 . S
C181 O187 1.268 . S
C181 O195 1.268 . S
C182 O188 1.268 . S
C182 O197 1.268 . S
C183 O189 1.268 . S
C183 O193 1.268 . S
C184 O190 1.268 . S
C184 O192 1.268 . S
C185 O191 1.268 . S
C185 O194 1.268 . S
O186 Sc176 2.105 . S
O186 C180 1.268 . S
O187 Sc177 2.105 . S
O187 C181 1.268 . S
O188 Sc178 2.105 . S
O188 C182 1.268 . S
O189 Sc176 2.105 . S
O189 C183 1.268 . S
O190 Sc178 2.105 . S
O190 C184 1.268 . S
O191 Sc177 2.105 . S
O191 C185 1.268 . S
O192 Sc176 2.105 . S
O192 C184 1.268 . S
O193 Sc177 2.105 . S
O193 C183 1.268 . S
O194 Sc178 2.105 . S
O194 C185 1.268 . S
O195 Sc176 2.105 . S
O195 C181 1.268 . S
O196 Sc178 2.105 . S
O196 C180 1.268 . S
O197 Sc177 2.105 . S
O197 C182 1.268 . S
Sc198 O201 2.025 . S
Sc198 O208 2.105 . S
Sc198 O211 2.105 . S
Sc198 O214 2.105 . S
Sc198 O217 2.105 . S
Sc199 O201 2.025 . S
Sc199 O209 2.105 . S
Sc199 O213 2.105 . S
Sc199 O215 2.105 . S
Sc199 O219 2.105 . S
Sc200 O201 2.025 . S
Sc200 O210 2.105 . S
Sc200 O212 2.105 . S
Sc200 O216 2.105 . S
Sc200 O218 2.105 . S
O201 Sc198 2.025 . S
O201 Sc199 2.025 . S
O201 Sc200 2.025 . S
C202 O208 1.268 . S
C202 O218 1.268 . S
C203 O209 1.268 . S
C203 O217 1.268 . S
C204 O210 1.268 . S
C204 O219 1.268 . S
C205 O211 1.268 . S
C205 O215 1.268 . S
C206 O212 1.268 . S
C206 O214 1.268 . S
C207 O213 1.268 . S
C207 O216 1.268 . S
O208 Sc198 2.105 . S
O208 C202 1.268 . S
O209 Sc199 2.105 . S
O209 C203 1.268 . S
O210 Sc200 2.105 . S
O210 C204 1.268 . S
O211 Sc198 2.105 . S
O211 C205 1.268 . S
O212 Sc200 2.105 . S
O212 C206 1.268 . S
O213 Sc199 2.105 . S
O213 C207 1.268 . S
O214 Sc198 2.105 . S
O214 C206 1.268 . S
O215 Sc199 2.105 . S
O215 C205 1.268 . S
O216 Sc200 2.105 . S
O216 C207 1.268 . S
O217 Sc198 2.105 . S
O217 C203 1.268 . S
O218 Sc200 2.105 . S
O218 C202 1.268 . S
O219 Sc199 2.105 . S
O219 C204 1.268 . S
Sc220 O223 2.025 . S
Sc220 O230 2.105 . S
Sc220 O233 2.105 . S
Sc220 O236 2.105 . S
Sc220 O239 2.105 . S
Sc221 O223 2.025 . S
Sc221 O231 2.105 . S
Sc221 O235 2.105 . S
Sc221 O237 2.105 . S
Sc221 O241 2.105 . S
Sc222 O223 2.025 . S
Sc222 O232 2.105 . S
Sc222 O234 2.105 . S
Sc222 O238 2.105 . S
Sc222 O240 2.105 . S
O223 Sc220 2.025 . S
O223 Sc221 2.025 . S
O223 Sc222 2.025 . S
C224 O230 1.268 . S
C224 O240 1.268 . S
C225 O231 1.268 . S
C225 O239 1.268 . S
C226 O232 1.268 . S
C226 O241 1.268 . S
C227 O233 1.268 . S
C227 O237 1.268 . S
C228 O234 1.268 . S
C228 O236 1.268 . S
C229 O235 1.268 . S
C229 O238 1.268 . S
O230 Sc220 2.105 . S
O230 C224 1.268 . S
O231 Sc221 2.105 . S
O231 C225 1.268 . S
O232 Sc222 2.105 . S
O232 C226 1.268 . S
O233 Sc220 2.105 . S
O233 C227 1.268 . S
O234 Sc222 2.105 . S
O234 C228 1.268 . S
O235 Sc221 2.105 . S
O235 C229 1.268 . S
O236 Sc220 2.105 . S
O236 C228 1.268 . S
O237 Sc221 2.105 . S
O237 C227 1.268 . S
O238 Sc222 2.105 . S
O238 C229 1.268 . S
O239 Sc220 2.105 . S
O239 C225 1.268 . S
O240 Sc222 2.105 . S
O240 C224 1.268 . S
O241 Sc221 2.105 . S
O241 C226 1.268 . S
Sc242 O245 2.025 . S
Sc242 O252 2.105 . S
Sc242 O255 2.105 . S
Sc242 O258 2.105 . S
Sc242 O261 2.105 . S
Sc243 O245 2.025 . S
Sc243 O253 2.105 . S
Sc243 O257 2.105 . S
Sc243 O259 2.105 . S
Sc243 O263 2.105 . S
Sc244 O245 2.025 . S
Sc244 O254 2.105 . S
Sc244 O256 2.105 . S
Sc244 O260 2.105 . S
Sc244 O262 2.105 . S
O245 Sc242 2.025 . S
O245 Sc243 2.025 . S
O245 Sc244 2.025 . S
C246 O252 1.268 . S
C246 O262 1.268 . S
C247 O253 1.268 . S
C247 O261 1.268 . S
C248 O254 1.268 . S
C248 O263 1.268 . S
C249 O255 1.268 . S
C249 O259 1.268 . S
C250 O256 1.268 . S
C250 O258 1.268 . S
C251 O257 1.268 . S
C251 O260 1.268 . S
O252 Sc242 2.105 . S
O252 C246 1.268 . S
O253 Sc243 2.105 . S
O253 C247 1.268 . S
O254 Sc244 2.105 . S
O254 C248 1.268 . S
O255 Sc242 2.105 . S
O255 C249 1.268 . S
O256 Sc244 2.105 . S
O256 C250 1.268 . S
O257 Sc243 2.105 . S
O257 C251 1.268 . S
O258 Sc242 2.105 . S
O258 C250 1.268 . S
O259 Sc243 2.105 . S
O259 C249 1.268 . S
O260 Sc244 2.105 . S
O260 C251 1.268 . S
O261 Sc242 2.105 . S
O261 C247 1.268 . S
O262 Sc244 2.105 . S
O262 C246 1.268 . S
O263 Sc243 2.105 . S
O263 C248 1.268 . S
Sc264 O267 2.025 . S
Sc264 O274 2.105 . S
Sc264 O277 2.105 . S
Sc264 O280 2.105 . S
Sc264 O283 2.105 . S
Sc265 O267 2.025 . S
Sc265 O275 2.105 . S
Sc265 O279 2.105 . S
Sc265 O281 2.105 . S
Sc265 O285 2.105 . S
Sc266 O267 2.025 . S
Sc266 O276 2.105 . S
Sc266 O278 2.105 . S
Sc266 O282 2.105 . S
Sc266 O284 2.105 . S
O267 Sc264 2.025 . S
O267 Sc265 2.025 . S
O267 Sc266 2.025 . S
C268 O274 1.268 . S
C268 O284 1.268 . S
C269 O275 1.268 . S
C269 O283 1.268 . S
C270 O276 1.268 . S
C270 O285 1.268 . S
C271 O277 1.268 . S
C271 O281 1.268 . S
C272 O278 1.268 . S
C272 O280 1.268 . S
C273 O279 1.268 . S
C273 O282 1.268 . S
O274 Sc264 2.105 . S
O274 C268 1.268 . S
O275 Sc265 2.105 . S
O275 C269 1.268 . S
O276 Sc266 2.105 . S
O276 C270 1.268 . S
O277 Sc264 2.105 . S
O277 C271 1.268 . S
O278 Sc266 2.105 . S
O278 C272 1.268 . S
O279 Sc265 2.105 . S
O279 C273 1.268 . S
O280 Sc264 2.105 . S
O280 C272 1.268 . S
O281 Sc265 2.105 . S
O281 C271 1.268 . S
O282 Sc266 2.105 . S
O282 C273 1.268 . S
O283 Sc264 2.105 . S
O283 C269 1.268 . S
O284 Sc266 2.105 . S
O284 C268 1.268 . S
O285 Sc265 2.105 . S
O285 C270 1.268 . S
Sc286 O289 2.025 . S
Sc286 O296 2.105 . S
Sc286 O299 2.105 . S
Sc286 O302 2.105 . S
Sc286 O305 2.105 . S
Sc287 O289 2.025 . S
Sc287 O297 2.105 . S
Sc287 O301 2.105 . S
Sc287 O303 2.105 . S
Sc287 O307 2.105 . S
Sc288 O289 2.025 . S
Sc288 O298 2.105 . S
Sc288 O300 2.105 . S
Sc288 O304 2.105 . S
Sc288 O306 2.105 . S
O289 Sc286 2.025 . S
O289 Sc287 2.025 . S
O289 Sc288 2.025 . S
C290 O296 1.268 . S
C290 O306 1.268 . S
C291 O297 1.268 . S
C291 O305 1.268 . S
C292 O298 1.268 . S
C292 O307 1.268 . S
C293 O299 1.268 . S
C293 O303 1.268 . S
C294 O300 1.268 . S
C294 O302 1.268 . S
C295 O301 1.268 . S
C295 O304 1.268 . S
O296 Sc286 2.105 . S
O296 C290 1.268 . S
O297 Sc287 2.105 . S
O297 C291 1.268 . S
O298 Sc288 2.105 . S
O298 C292 1.268 . S
O299 Sc286 2.105 . S
O299 C293 1.268 . S
O300 Sc288 2.105 . S
O300 C294 1.268 . S
O301 Sc287 2.105 . S
O301 C295 1.268 . S
O302 Sc286 2.105 . S
O302 C294 1.268 . S
O303 Sc287 2.105 . S
O303 C293 1.268 . S
O304 Sc288 2.105 . S
O304 C295 1.268 . S
O305 Sc286 2.105 . S
O305 C291 1.268 . S
O306 Sc288 2.105 . S
O306 C290 1.268 . S
O307 Sc287 2.105 . S
O307 C292 1.268 . S
Sc308 O311 2.025 . S
Sc308 O318 2.105 . S
Sc308 O321 2.105 . S
Sc308 O324 2.105 . S
Sc308 O327 2.105 . S
Sc309 O311 2.025 . S
Sc309 O319 2.105 . S
Sc309 O323 2.105 . S
Sc309 O325 2.105 . S
Sc309 O329 2.105 . S
Sc310 O311 2.025 . S
Sc310 O320 2.105 . S
Sc310 O322 2.105 . S
Sc310 O326 2.105 . S
Sc310 O328 2.105 . S
O311 Sc308 2.025 . S
O311 Sc309 2.025 . S
O311 Sc310 2.025 . S
C312 O318 1.268 . S
C312 O328 1.268 . S
C313 O319 1.268 . S
C313 O327 1.268 . S
C314 O320 1.268 . S
C314 O329 1.268 . S
C315 O321 1.268 . S
C315 O325 1.268 . S
C316 O322 1.268 . S
C316 O324 1.268 . S
C317 O323 1.268 . S
C317 O326 1.268 . S
O318 Sc308 2.105 . S
O318 C312 1.268 . S
O319 Sc309 2.105 . S
O319 C313 1.268 . S
O320 Sc310 2.105 . S
O320 C314 1.268 . S
O321 Sc308 2.105 . S
O321 C315 1.268 . S
O322 Sc310 2.105 . S
O322 C316 1.268 . S
O323 Sc309 2.105 . S
O323 C317 1.268 . S
O324 Sc308 2.105 . S
O324 C316 1.268 . S
O325 Sc309 2.105 . S
O325 C315 1.268 . S
O326 Sc310 2.105 . S
O326 C317 1.268 . S
O327 Sc308 2.105 . S
O327 C313 1.268 . S
O328 Sc310 2.105 . S
O328 C312 1.268 . S
O329 Sc309 2.105 . S
O329 C314 1.268 . S
Sc330 O333 2.025 . S
Sc330 O340 2.105 . S
Sc330 O343 2.105 . S
Sc330 O346 2.105 . S
Sc330 O349 2.105 . S
Sc331 O333 2.025 . S
Sc331 O341 2.105 . S
Sc331 O345 2.105 . S
Sc331 O347 2.105 . S
Sc331 O351 2.105 . S
Sc332 O333 2.025 . S
Sc332 O342 2.105 . S
Sc332 O344 2.105 . S
Sc332 O348 2.105 . S
Sc332 O350 2.105 . S
O333 Sc330 2.025 . S
O333 Sc331 2.025 . S
O333 Sc332 2.025 . S
C334 O340 1.268 . S
C334 O350 1.268 . S
C335 O341 1.268 . S
C335 O349 1.268 . S
C336 O342 1.268 . S
C336 O351 1.268 . S
C337 O343 1.268 . S
C337 O347 1.268 . S
C338 O344 1.268 . S
C338 O346 1.268 . S
C339 O345 1.268 . S
C339 O348 1.268 . S
O340 Sc330 2.105 . S
O340 C334 1.268 . S
O341 Sc331 2.105 . S
O341 C335 1.268 . S
O342 Sc332 2.105 . S
O342 C336 1.268 . S
O343 Sc330 2.105 . S
O343 C337 1.268 . S
O344 Sc332 2.105 . S
O344 C338 1.268 . S
O345 Sc331 2.105 . S
O345 C339 1.268 . S
O346 Sc330 2.105 . S
O346 C338 1.268 . S
O347 Sc331 2.105 . S
O347 C337 1.268 . S
O348 Sc332 2.105 . S
O348 C339 1.268 . S
O349 Sc330 2.105 . S
O349 C335 1.268 . S
O350 Sc332 2.105 . S
O350 C334 1.268 . S
O351 Sc331 2.105 . S
O351 C336 1.268 . S
H352 C360 0.929 . S
H353 C362 0.930 . S
H354 C364 0.930 . S
H355 C367 0.929 . S
H356 C370 0.930 . S
H357 C372 0.960 . S
H358 C372 0.960 . S
H359 C372 0.960 . S
C360 H352 0.929 . S
C360 C361 1.377 . S
C360 C362 1.384 . S
C361 C360 1.377 . S
C361 C367 1.390 . S
C362 H353 0.930 . S
C362 C360 1.384 . S
C362 C363 1.372 . S
C363 C362 1.372 . S
C363 C364 1.400 . S
C363 C368 1.490 . S
C364 H354 0.930 . S
C364 C363 1.400 . S
C364 C367 1.386 . S
H365 C381 0.930 . S
H366 C382 0.931 . S
C367 H355 0.929 . S
C367 C361 1.390 . S
C367 C364 1.386 . S
C368 C363 1.490 . S
C368 C370 1.395 . S
C368 C371 1.403 . S
H369 C375 0.930 . S
C370 H356 0.930 . S
C370 C368 1.395 . S
C370 C373 1.403 . S
C371 C368 1.403 . S
C371 C372 1.524 . S
C371 C375 1.400 . S
C372 H357 0.960 . S
C372 H358 0.960 . S
C372 H359 0.960 . S
C372 C371 1.524 . S
C373 C370 1.403 . S
C373 C374 1.392 . S
C373 C377 1.495 1_565 S
C374 C373 1.392 . S
C374 C375 1.385 . S
C374 C376 1.478 1_565 S
C375 H369 0.930 . S
C375 C371 1.400 . S
C375 C374 1.385 . S
C376 C374 1.478 1_545 S
C376 C378 1.381 . S
C376 C382 1.383 . S
C377 C373 1.495 1_545 S
C377 H383 0.959 . S
C377 H384 0.961 . S
C377 H385 0.960 . S
C378 C376 1.381 . S
C378 C379 1.394 . S
C378 H386 0.930 . S
C379 C378 1.394 . S
C379 C380 1.383 . S
C379 H387 0.929 . S
C380 C379 1.383 . S
C380 C381 1.377 . S
C381 H365 0.930 . S
C381 C380 1.377 . S
C381 C382 1.379 . S
C382 H366 0.931 . S
C382 C376 1.383 . S
C382 C381 1.379 . S
H383 C377 0.959 . S
H384 C377 0.961 . S
H385 C377 0.960 . S
H386 C378 0.930 . S
H387 C379 0.929 . S
H388 C396 0.929 . S
H389 C398 0.930 . S
H390 C400 0.930 . S
H391 C403 0.929 . S
H392 C406 0.930 1_455 S
H393 C408 0.960 . S
H394 C408 0.960 . S
H395 C408 0.960 . S
C396 H388 0.929 . S
C396 C397 1.377 . S
C396 C398 1.384 . S
C397 C396 1.377 . S
C397 C403 1.390 . S
C398 H389 0.930 . S
C398 C396 1.384 . S
C398 C399 1.372 . S
C399 C398 1.372 . S
C399 C400 1.400 . S
C399 C404 1.490 1_455 S
C400 H390 0.930 . S
C400 C399 1.400 . S
C400 C403 1.386 . S
H401 C417 0.930 . S
H402 C418 0.931 . S
C403 H391 0.929 . S
C403 C397 1.390 . S
C403 C400 1.386 . S
C404 C399 1.490 1_655 S
C404 C406 1.395 . S
C404 C407 1.403 . S
H405 C411 0.930 . S
C406 H392 0.930 1_655 S
C406 C404 1.395 . S
C406 C409 1.403 . S
C407 C404 1.403 . S
C407 C408 1.524 . S
C407 C411 1.400 . S
C408 H393 0.960 . S
C408 H394 0.960 . S
C408 H395 0.960 . S
C408 C407 1.524 . S
C409 C406 1.403 . S
C409 C410 1.392 . S
C409 C413 1.495 . S
C410 C409 1.392 . S
C410 C411 1.385 . S
C410 C412 1.478 . S
C411 H405 0.930 . S
C411 C407 1.400 . S
C411 C410 1.385 . S
C412 C410 1.478 . S
C412 C414 1.381 . S
C412 C418 1.383 . S
C413 C409 1.495 . S
C413 H419 0.959 . S
C413 H420 0.961 . S
C413 H421 0.960 . S
C414 C412 1.381 . S
C414 C415 1.394 . S
C414 H422 0.930 . S
C415 C414 1.394 . S
C415 C416 1.383 . S
C415 H423 0.929 . S
C416 C415 1.383 . S
C416 C417 1.377 . S
C417 H401 0.930 . S
C417 C416 1.377 . S
C417 C418 1.379 . S
C418 H402 0.931 . S
C418 C412 1.383 . S
C418 C417 1.379 . S
H419 C413 0.959 . S
H420 C413 0.961 . S
H421 C413 0.960 . S
H422 C414 0.930 . S
H423 C415 0.929 . S
H424 C432 0.929 . S
H425 C434 0.930 . S
H426 C436 0.930 . S
H427 C439 0.929 . S
H428 C442 0.930 1_565 S
H429 C444 0.960 . S
H430 C444 0.960 . S
H431 C444 0.960 . S
C432 H424 0.929 . S
C432 C433 1.377 . S
C432 C434 1.384 . S
C433 C432 1.377 . S
C433 C439 1.390 . S
C434 H425 0.930 . S
C434 C432 1.384 . S
C434 C435 1.372 . S
C435 C434 1.372 . S
C435 C436 1.400 . S
C435 C440 1.490 1_565 S
C436 H426 0.930 . S
C436 C435 1.400 . S
C436 C439 1.386 . S
H437 C453 0.930 . S
H438 C454 0.931 . S
C439 H427 0.929 . S
C439 C433 1.390 . S
C439 C436 1.386 . S
C440 C435 1.490 1_545 S
C440 C442 1.395 . S
C440 C443 1.403 . S
H441 C447 0.930 . S
C442 H428 0.930 1_545 S
C442 C440 1.395 . S
C442 C445 1.403 . S
C443 C440 1.403 . S
C443 C444 1.524 . S
C443 C447 1.400 . S
C444 H429 0.960 . S
C444 H430 0.960 . S
C444 H431 0.960 . S
C444 C443 1.524 . S
C445 C442 1.403 . S
C445 C446 1.392 . S
C445 C449 1.495 . S
C446 C445 1.392 . S
C446 C447 1.385 . S
C446 C448 1.478 . S
C447 H441 0.930 . S
C447 C443 1.400 . S
C447 C446 1.385 . S
C448 C446 1.478 . S
C448 C450 1.381 . S
C448 C454 1.383 . S
C449 C445 1.495 . S
C449 H455 0.959 . S
C449 H456 0.961 . S
C449 H457 0.960 . S
C450 C448 1.381 . S
C450 C451 1.394 . S
C450 H458 0.930 . S
C451 C450 1.394 . S
C451 C452 1.383 . S
C451 H459 0.929 . S
C452 C451 1.383 . S
C452 C453 1.377 . S
C453 H437 0.930 . S
C453 C452 1.377 . S
C453 C454 1.379 . S
C454 H438 0.931 . S
C454 C448 1.383 . S
C454 C453 1.379 . S
H455 C449 0.959 . S
H456 C449 0.961 . S
H457 C449 0.960 . S
H458 C450 0.930 . S
H459 C451 0.929 . S
H460 C468 0.929 . S
H461 C470 0.930 . S
H462 C472 0.930 . S
H463 C475 0.929 . S
H464 C478 0.930 . S
H465 C480 0.960 . S
H466 C480 0.960 . S
H467 C480 0.960 . S
C468 H460 0.929 . S
C468 C469 1.377 . S
C468 C470 1.384 . S
C469 C468 1.377 . S
C469 C475 1.390 . S
C470 H461 0.930 . S
C470 C468 1.384 . S
C470 C471 1.372 . S
C471 C470 1.372 . S
C471 C472 1.400 . S
C471 C476 1.490 . S
C472 H462 0.930 . S
C472 C471 1.400 . S
C472 C475 1.386 . S
H473 C489 0.930 . S
H474 C490 0.931 . S
C475 H463 0.929 . S
C475 C469 1.390 . S
C475 C472 1.386 . S
C476 C471 1.490 . S
C476 C478 1.395 . S
C476 C479 1.403 . S
H477 C483 0.930 . S
C478 H464 0.930 . S
C478 C476 1.395 . S
C478 C481 1.403 . S
C479 C476 1.403 . S
C479 C480 1.524 . S
C479 C483 1.400 . S
C480 H465 0.960 . S
C480 H466 0.960 . S
C480 H467 0.960 . S
C480 C479 1.524 . S
C481 C478 1.403 . S
C481 C482 1.392 . S
C481 C485 1.495 1_455 S
C482 C481 1.392 . S
C482 C483 1.385 . S
C482 C484 1.478 1_455 S
C483 H477 0.930 . S
C483 C479 1.400 . S
C483 C482 1.385 . S
C484 C482 1.478 1_655 S
C484 C486 1.381 . S
C484 C490 1.383 . S
C485 C481 1.495 1_655 S
C485 H491 0.959 . S
C485 H492 0.961 . S
C485 H493 0.960 . S
C486 C484 1.381 . S
C486 C487 1.394 . S
C486 H494 0.930 . S
C487 C486 1.394 . S
C487 C488 1.383 . S
C487 H495 0.929 . S
C488 C487 1.383 . S
C488 C489 1.377 . S
C489 H473 0.930 . S
C489 C488 1.377 . S
C489 C490 1.379 . S
C490 H474 0.931 . S
C490 C484 1.383 . S
C490 C489 1.379 . S
H491 C485 0.959 . S
H492 C485 0.961 . S
H493 C485 0.960 . S
H494 C486 0.930 . S
H495 C487 0.929 . S
H496 C504 0.929 . S
H497 C506 0.930 . S
H498 C508 0.930 . S
H499 C511 0.929 . S
H500 C514 0.930 . S
H501 C516 0.960 . S
H502 C516 0.960 . S
H503 C516 0.960 . S
C504 H496 0.929 . S
C504 C505 1.377 1_554 S
C504 C506 1.384 . S
C505 C504 1.377 1_556 S
C505 C511 1.390 . S
C506 H497 0.930 . S
C506 C504 1.384 . S
C506 C507 1.412 . S
C507 C506 1.412 . S
C507 C508 1.335 1_554 S
C507 C512 1.517 . S
C508 H498 0.930 . S
C508 C507 1.335 1_556 S
C508 C511 1.386 . S
H509 C525 0.930 . S
H510 C526 0.931 . S
C511 H499 0.929 . S
C511 C505 1.390 . S
C511 C508 1.386 . S
C512 C507 1.517 . S
C512 C514 1.395 . S
C512 C515 1.389 1_554 S
H513 C519 0.968 . S
C514 H500 0.930 . S
C514 C512 1.395 . S
C514 C517 1.403 . S
C515 C512 1.389 1_556 S
C515 C516 1.547 . S
C515 C519 1.389 1_556 S
C516 H501 0.960 . S
C516 H502 0.960 . S
C516 H503 0.960 . S
C516 C515 1.547 . S
C517 C514 1.403 . S
C517 C518 1.392 . S
C517 C521 1.495 . S
C518 C517 1.392 . S
C518 C519 1.385 . S
C518 C520 1.478 . S
C519 H513 0.968 . S
C519 C515 1.389 1_554 S
C519 C518 1.385 . S
C520 C518 1.478 . S
C520 C522 1.381 . S
C520 C526 1.383 . S
C521 C517 1.495 . S
C521 H527 0.959 . S
C521 H528 0.961 . S
C521 H529 0.960 . S
C522 C520 1.381 . S
C522 C523 1.394 . S
C522 H530 0.930 . S
C523 C522 1.394 . S
C523 C524 1.383 . S
C523 H531 0.929 . S
C524 C523 1.383 . S
C524 C525 1.377 . S
C525 H509 0.930 . S
C525 C524 1.377 . S
C525 C526 1.379 . S
C526 H510 0.931 . S
C526 C520 1.383 . S
C526 C525 1.379 . S
H527 C521 0.959 . S
H528 C521 0.961 . S
H529 C521 0.960 . S
H530 C522 0.930 . S
H531 C523 0.929 . S
H532 C540 0.929 . S
H533 C542 0.930 . S
H534 C544 0.918 1_556 S
H535 C547 0.929 . S
H536 C550 0.930 . S
H537 C552 0.960 . S
H538 C552 0.960 . S
H539 C552 0.960 . S
C540 H532 0.929 . S
C540 C541 1.377 . S
C540 C542 1.384 . S
C541 C540 1.377 . S
C541 C547 1.390 . S
C542 H533 0.930 . S
C542 C540 1.384 . S
C542 C543 1.366 1_554 S
C543 C542 1.366 1_556 S
C543 C544 1.397 1_556 S
C543 C548 1.497 . S
C544 H534 0.918 1_554 S
C544 C543 1.397 1_554 S
C544 C547 1.401 . S
H545 C561 0.930 . S
H546 C562 0.931 . S
C547 H535 0.929 . S
C547 C541 1.390 . S
C547 C544 1.401 . S
C548 C543 1.497 . S
C548 C550 1.395 1_556 S
C548 C551 1.403 . S
H549 C555 0.930 . S
C550 H536 0.930 . S
C550 C548 1.395 1_554 S
C550 C553 1.406 . S
C551 C548 1.403 . S
C551 C552 1.524 . S
C551 C555 1.400 . S
C552 H537 0.960 . S
C552 H538 0.960 . S
C552 H539 0.960 . S
C552 C551 1.524 . S
C553 C550 1.406 . S
C553 C554 1.384 1_554 S
C553 C557 1.502 . S
C554 C553 1.384 1_556 S
C554 C555 1.385 . S
C554 C556 1.478 . S
C555 H549 0.930 . S
C555 C551 1.400 . S
C555 C554 1.385 . S
C556 C554 1.478 . S
C556 C558 1.381 . S
C556 C562 1.383 . S
C557 C553 1.502 . S
C557 H563 0.959 . S
C557 H564 0.961 . S
C557 H565 0.960 . S
C558 C556 1.381 . S
C558 C559 1.394 . S
C558 H566 0.930 . S
C559 C558 1.394 . S
C559 C560 1.383 . S
C559 H567 0.929 . S
C560 C559 1.383 . S
C560 C561 1.377 . S
C561 H545 0.930 . S
C561 C560 1.377 . S
C561 C562 1.379 . S
C562 H546 0.931 . S
C562 C556 1.383 . S
C562 C561 1.379 . S
H563 C557 0.959 . S
H564 C557 0.961 . S
H565 C557 0.960 . S
H566 C558 0.930 . S
H567 C559 0.929 . S
H568 C576 0.929 . S
H569 C578 0.930 . S
H570 C580 0.930 . S
H571 C583 0.929 . S
H572 C586 0.924 1_556 S
H573 C588 0.960 . S
H574 C588 0.960 . S
H575 C588 0.960 . S
C576 H568 0.929 . S
C576 C577 1.377 . S
C576 C578 1.384 . S
C577 C576 1.377 . S
C577 C583 1.390 . S
C578 H569 0.930 . S
C578 C576 1.384 . S
C578 C579 1.372 . S
C579 C578 1.372 . S
C579 C580 1.400 . S
C579 C584 1.490 . S
C580 H570 0.930 . S
C580 C579 1.400 . S
C580 C583 1.386 . S
H581 C597 0.930 . S
H582 C598 0.931 1_554 S
C583 H571 0.929 . S
C583 C577 1.390 . S
C583 C580 1.386 . S
C584 C579 1.490 . S
C584 C586 1.405 . S
C584 C587 1.403 . S
H585 C591 0.930 . S
C586 H572 0.924 1_554 S
C586 C584 1.405 . S
C586 C589 1.399 1_554 S
C587 C584 1.403 . S
C587 C588 1.524 . S
C587 C591 1.400 . S
C588 H573 0.960 . S
C588 H574 0.960 . S
C588 H575 0.960 . S
C588 C587 1.524 . S
C589 C586 1.399 1_556 S
C589 C590 1.392 1_556 S
C589 C593 1.495 . S
C590 C589 1.392 1_554 S
C590 C591 1.385 . S
C590 C592 1.478 1_554 S
C591 H585 0.930 . S
C591 C587 1.400 . S
C591 C590 1.385 . S
C592 C590 1.478 1_556 S
C592 C594 1.381 . S
C592 C598 1.383 . S
C593 C589 1.495 . S
C593 H599 0.959 . S
C593 H600 0.961 . S
C593 H601 0.960 . S
C594 C592 1.381 . S
C594 C595 1.394 . S
C594 H602 0.930 . S
C595 C594 1.394 . S
C595 C596 1.383 . S
C595 H603 0.929 . S
C596 C595 1.383 . S
C596 C597 1.377 . S
C597 H581 0.930 . S
C597 C596 1.377 . S
C597 C598 1.379 . S
C598 H582 0.931 1_556 S
C598 C592 1.383 . S
C598 C597 1.379 . S
H599 C593 0.959 . S
H600 C593 0.961 . S
H601 C593 0.960 . S
H602 C594 0.930 . S
H603 C595 0.929 . S
H604 C612 0.929 . S
H605 C614 0.930 . S
H606 C616 0.930 . S
H607 C619 0.929 . S
H608 C622 0.927 . S
H609 C624 0.960 . S
H610 C624 0.960 . S
H611 C624 0.960 . S
C612 H604 0.929 . S
C612 C613 1.377 . S
C612 C614 1.384 . S
C613 C612 1.377 . S
C613 C619 1.390 . S
C614 H605 0.930 . S
C614 C612 1.384 . S
C614 C615 1.372 . S
C615 C614 1.372 . S
C615 C616 1.400 . S
C615 C620 1.490 . S
C616 H606 0.930 . S
C616 C615 1.400 . S
C616 C619 1.386 . S
H617 C633 0.928 . S
H618 C634 0.931 . S
C619 H607 0.929 . S
C619 C613 1.390 . S
C619 C616 1.386 . S
C620 C615 1.490 . S
C620 C622 1.400 1_556 S
C620 C623 1.403 . S
H621 C627 0.930 . S
C622 H608 0.927 . S
C622 C620 1.400 1_554 S
C622 C625 1.401 . S
C623 C620 1.403 . S
C623 C624 1.524 . S
C623 C627 1.400 . S
C624 H609 0.960 . S
C624 H610 0.960 . S
C624 H611 0.960 . S
C624 C623 1.524 . S
C625 C622 1.401 . S
C625 C626 1.392 1_554 S
C625 C629 1.495 . S
C626 C625 1.392 1_556 S
C626 C627 1.385 . S
C626 C628 1.478 1_556 S
C627 H621 0.930 . S
C627 C623 1.400 . S
C627 C626 1.385 . S
C628 C626 1.478 1_554 S
C628 C630 1.381 . S
C628 C634 1.383 1_554 S
C629 C625 1.495 . S
C629 H635 0.959 . S
C629 H636 0.961 . S
C629 H637 0.960 . S
C630 C628 1.381 . S
C630 C631 1.394 . S
C630 H638 0.930 . S
C631 C630 1.394 . S
C631 C632 1.383 . S
C631 H639 0.929 . S
C632 C631 1.383 . S
C632 C633 1.377 . S
C633 H617 0.928 . S
C633 C632 1.377 . S
C633 C634 1.379 1_554 S
C634 H618 0.931 . S
C634 C628 1.383 1_556 S
C634 C633 1.379 1_556 S
H635 C629 0.959 . S
H636 C629 0.961 . S
H637 C629 0.960 . S
H638 C630 0.930 . S
H639 C631 0.929 . S
H640 C648 0.929 . S
H641 C650 0.930 . S
H642 C652 0.930 . S
H643 C655 0.929 . S
H644 C658 0.930 . S
H645 C660 0.960 . S
H646 C660 0.960 . S
H647 C660 0.960 . S
C648 H640 0.929 . S
C648 C649 1.377 . S
C648 C650 1.384 . S
C649 C648 1.377 . S
C649 C655 1.390 . S
C650 H641 0.930 . S
C650 C648 1.384 . S
C650 C651 1.372 . S
C651 C650 1.372 . S
C651 C652 1.400 . S
C651 C656 1.490 . S
C652 H642 0.930 . S
C652 C651 1.400 . S
C652 C655 1.386 . S
H653 C669 0.930 . S
H654 C670 0.931 . S
C655 H643 0.929 . S
C655 C649 1.390 . S
C655 C652 1.386 . S
C656 C651 1.490 . S
C656 C658 1.395 . S
C656 C659 1.403 . S
H657 C663 0.930 . S
C658 H644 0.930 . S
C658 C656 1.395 . S
C658 C661 1.403 . S
C659 C656 1.403 . S
C659 C660 1.524 . S
C659 C663 1.400 . S
C660 H645 0.960 . S
C660 H646 0.960 . S
C660 H647 0.960 . S
C660 C659 1.524 . S
C661 C658 1.403 . S
C661 C662 1.392 . S
C661 C665 1.495 . S
C662 C661 1.392 . S
C662 C663 1.385 . S
C662 C664 1.478 . S
C663 H657 0.930 . S
C663 C659 1.400 . S
C663 C662 1.385 . S
C664 C662 1.478 . S
C664 C666 1.381 . S
C664 C670 1.383 . S
C665 C661 1.495 . S
C665 H671 0.959 . S
C665 H672 0.961 . S
C665 H673 0.960 . S
C666 C664 1.381 . S
C666 C667 1.394 . S
C666 H674 0.930 . S
C667 C666 1.394 . S
C667 C668 1.383 . S
C667 H675 0.929 . S
C668 C667 1.383 . S
C668 C669 1.377 . S
C669 H653 0.930 . S
C669 C668 1.377 . S
C669 C670 1.379 . S
C670 H654 0.931 . S
C670 C664 1.383 . S
C670 C669 1.379 . S
H671 C665 0.959 . S
H672 C665 0.961 . S
H673 C665 0.960 . S
H674 C666 0.930 . S
H675 C667 0.929 . S
H676 C684 0.929 . S
H677 C686 0.930 . S
H678 C688 0.930 . S
H679 C691 0.929 . S
H680 C694 0.930 . S
H681 C696 0.960 . S
H682 C696 0.960 . S
H683 C696 0.960 . S
C684 H676 0.929 . S
C684 C685 1.377 . S
C684 C686 1.384 . S
C685 C684 1.377 . S
C685 C691 1.390 . S
C686 H677 0.930 . S
C686 C684 1.384 . S
C686 C687 1.372 . S
C687 C686 1.372 . S
C687 C688 1.400 . S
C687 C692 1.490 . S
C688 H678 0.930 . S
C688 C687 1.400 . S
C688 C691 1.386 . S
H689 C705 0.930 . S
H690 C706 0.931 . S
C691 H679 0.929 . S
C691 C685 1.390 . S
C691 C688 1.386 . S
C692 C687 1.490 . S
C692 C694 1.395 . S
C692 C695 1.403 . S
H693 C699 0.930 . S
C694 H680 0.930 . S
C694 C692 1.395 . S
C694 C697 1.403 . S
C695 C692 1.403 . S
C695 C696 1.524 . S
C695 C699 1.400 . S
C696 H681 0.960 . S
C696 H682 0.960 . S
C696 H683 0.960 . S
C696 C695 1.524 . S
C697 C694 1.403 . S
C697 C698 1.392 . S
C697 C701 1.495 . S
C698 C697 1.392 . S
C698 C699 1.385 . S
C698 C700 1.478 . S
C699 H693 0.930 . S
C699 C695 1.400 . S
C699 C698 1.385 . S
C700 C698 1.478 . S
C700 C702 1.381 . S
C700 C706 1.383 . S
C701 C697 1.495 . S
C701 H707 0.959 . S
C701 H708 0.961 . S
C701 H709 0.960 . S
C702 C700 1.381 . S
C702 C703 1.394 . S
C702 H710 0.930 . S
C703 C702 1.394 . S
C703 C704 1.383 . S
C703 H711 0.929 . S
C704 C703 1.383 . S
C704 C705 1.377 . S
C705 H689 0.930 . S
C705 C704 1.377 . S
C705 C706 1.379 . S
C706 H690 0.931 . S
C706 C700 1.383 . S
C706 C705 1.379 . S
H707 C701 0.959 . S
H708 C701 0.961 . S
H709 C701 0.960 . S
H710 C702 0.930 . S
H711 C703 0.929 . S
H712 C720 0.929 . S
H713 C722 0.930 . S
H714 C724 0.930 . S
H715 C727 0.929 . S
H716 C730 0.930 . S
H717 C732 0.960 . S
H718 C732 0.960 . S
H719 C732 0.960 . S
C720 H712 0.929 . S
C720 C721 1.377 . S
C720 C722 1.384 . S
C721 C720 1.377 . S
C721 C727 1.390 . S
C722 H713 0.930 . S
C722 C720 1.384 . S
C722 C723 1.372 . S
C723 C722 1.372 . S
C723 C724 1.400 . S
C723 C728 1.490 . S
C724 H714 0.930 . S
C724 C723 1.400 . S
C724 C727 1.386 . S
H725 C741 0.930 . S
H726 C742 0.931 . S
C727 H715 0.929 . S
C727 C721 1.390 . S
C727 C724 1.386 . S
C728 C723 1.490 . S
C728 C730 1.395 . S
C728 C731 1.403 . S
H729 C735 0.930 . S
C730 H716 0.930 . S
C730 C728 1.395 . S
C730 C733 1.403 . S
C731 C728 1.403 . S
C731 C732 1.524 . S
C731 C735 1.400 . S
C732 H717 0.960 . S
C732 H718 0.960 . S
C732 H719 0.960 . S
C732 C731 1.524 . S
C733 C730 1.403 . S
C733 C734 1.392 . S
C733 C737 1.495 . S
C734 C733 1.392 . S
C734 C735 1.385 . S
C734 C736 1.478 . S
C735 H729 0.930 . S
C735 C731 1.400 . S
C735 C734 1.385 . S
C736 C734 1.478 . S
C736 C738 1.381 . S
C736 C742 1.383 . S
C737 C733 1.495 . S
C737 H743 0.959 . S
C737 H744 0.961 . S
C737 H745 0.960 . S
C738 C736 1.381 . S
C738 C739 1.394 . S
C738 H746 0.930 . S
C739 C738 1.394 . S
C739 C740 1.383 . S
C739 H747 0.929 . S
C740 C739 1.383 . S
C740 C741 1.377 . S
C741 H725 0.930 . S
C741 C740 1.377 . S
C741 C742 1.379 . S
C742 H726 0.931 . S
C742 C736 1.383 . S
C742 C741 1.379 . S
H743 C737 0.959 . S
H744 C737 0.961 . S
H745 C737 0.960 . S
H746 C738 0.930 . S
H747 C739 0.929 . S
H748 C756 0.929 . S
H749 C758 0.930 . S
H750 C760 0.930 . S
H751 C763 0.929 . S
H752 C766 0.930 . S
H753 C768 0.960 . S
H754 C768 0.960 . S
H755 C768 0.960 . S
C756 H748 0.929 . S
C756 C757 1.377 . S
C756 C758 1.384 . S
C757 C756 1.377 . S
C757 C763 1.390 . S
C758 H749 0.930 . S
C758 C756 1.384 . S
C758 C759 1.372 . S
C759 C758 1.372 . S
C759 C760 1.400 . S
C759 C764 1.490 . S
C760 H750 0.930 . S
C760 C759 1.400 . S
C760 C763 1.386 . S
H761 C777 0.930 . S
H762 C778 0.931 . S
C763 H751 0.929 . S
C763 C757 1.390 . S
C763 C760 1.386 . S
C764 C759 1.490 . S
C764 C766 1.395 . S
C764 C767 1.403 . S
H765 C771 0.930 . S
C766 H752 0.930 . S
C766 C764 1.395 . S
C766 C769 1.403 . S
C767 C764 1.403 . S
C767 C768 1.524 . S
C767 C771 1.400 . S
C768 H753 0.960 . S
C768 H754 0.960 . S
C768 H755 0.960 . S
C768 C767 1.524 . S
C769 C766 1.403 . S
C769 C770 1.392 . S
C769 C773 1.495 . S
C770 C769 1.392 . S
C770 C771 1.385 . S
C770 C772 1.478 . S
C771 H765 0.930 . S
C771 C767 1.400 . S
C771 C770 1.385 . S
C772 C770 1.478 . S
C772 C774 1.381 . S
C772 C778 1.383 . S
C773 C769 1.495 . S
C773 H779 0.959 . S
C773 H780 0.961 . S
C773 H781 0.960 . S
C774 C772 1.381 . S
C774 C775 1.394 . S
C774 H782 0.930 . S
C775 C774 1.394 . S
C775 C776 1.383 . S
C775 H783 0.929 . S
C776 C775 1.383 . S
C776 C777 1.377 . S
C777 H761 0.930 . S
C777 C776 1.377 . S
C777 C778 1.379 . S
C778 H762 0.931 . S
C778 C772 1.383 . S
C778 C777 1.379 . S
H779 C773 0.959 . S
H780 C773 0.961 . S
H781 C773 0.960 . S
H782 C774 0.930 . S
H783 C775 0.929 . S
H784 C792 0.929 . S
H785 C794 0.930 . S
H786 C796 0.930 . S
H787 C799 0.929 . S
H788 C802 0.930 1_565 S
H789 C804 0.960 . S
H790 C804 0.960 . S
H791 C804 0.960 . S
C792 H784 0.929 . S
C792 C793 1.377 . S
C792 C794 1.384 . S
C793 C792 1.377 . S
C793 C799 1.390 . S
C794 H785 0.930 . S
C794 C792 1.384 . S
C794 C795 1.372 . S
C795 C794 1.372 . S
C795 C796 1.400 . S
C795 C800 1.490 1_565 S
C796 H786 0.930 . S
C796 C795 1.400 . S
C796 C799 1.386 . S
H797 C813 0.930 . S
H798 C814 0.931 . S
C799 H787 0.929 . S
C799 C793 1.390 . S
C799 C796 1.386 . S
C800 C795 1.490 1_545 S
C800 C802 1.395 . S
C800 C803 1.403 . S
H801 C807 0.930 . S
C802 H788 0.930 1_545 S
C802 C800 1.395 . S
C802 C805 1.403 . S
C803 C800 1.403 . S
C803 C804 1.524 . S
C803 C807 1.400 . S
C804 H789 0.960 . S
C804 H790 0.960 . S
C804 H791 0.960 . S
C804 C803 1.524 . S
C805 C802 1.403 . S
C805 C806 1.392 . S
C805 C809 1.495 . S
C806 C805 1.392 . S
C806 C807 1.385 . S
C806 C808 1.478 . S
C807 H801 0.930 . S
C807 C803 1.400 . S
C807 C806 1.385 . S
C808 C806 1.478 . S
C808 C810 1.381 . S
C808 C814 1.383 . S
C809 C805 1.495 . S
C809 H815 0.959 . S
C809 H816 0.961 . S
C809 H817 0.960 . S
C810 C808 1.381 . S
C810 C811 1.394 . S
C810 H818 0.930 . S
C811 C810 1.394 . S
C811 C812 1.383 . S
C811 H819 0.929 . S
C812 C811 1.383 . S
C812 C813 1.377 . S
C813 H797 0.930 . S
C813 C812 1.377 . S
C813 C814 1.379 . S
C814 H798 0.931 . S
C814 C808 1.383 . S
C814 C813 1.379 . S
H815 C809 0.959 . S
H816 C809 0.961 . S
H817 C809 0.960 . S
H818 C810 0.930 . S
H819 C811 0.929 . S
H820 C828 0.929 . S
H821 C830 0.930 . S
H822 C832 0.930 . S
H823 C835 0.929 . S
H824 C838 0.930 . S
H825 C840 0.960 . S
H826 C840 0.960 . S
H827 C840 0.960 . S
C828 H820 0.929 . S
C828 C829 1.377 . S
C828 C830 1.384 . S
C829 C828 1.377 . S
C829 C835 1.390 . S
C830 H821 0.930 . S
C830 C828 1.384 . S
C830 C831 1.372 . S
C831 C830 1.372 . S
C831 C832 1.400 . S
C831 C836 1.490 . S
C832 H822 0.930 . S
C832 C831 1.400 . S
C832 C835 1.386 . S
H833 C849 0.930 . S
H834 C850 0.931 . S
C835 H823 0.929 . S
C835 C829 1.390 . S
C835 C832 1.386 . S
C836 C831 1.490 . S
C836 C838 1.395 . S
C836 C839 1.403 . S
H837 C843 0.930 1_655 S
C838 H824 0.930 . S
C838 C836 1.395 . S
C838 C841 1.403 . S
C839 C836 1.403 . S
C839 C840 1.524 . S
C839 C843 1.400 . S
C840 H825 0.960 . S
C840 H826 0.960 . S
C840 H827 0.960 . S
C840 C839 1.524 . S
C841 C838 1.403 . S
C841 C842 1.392 . S
C841 C845 1.495 . S
C842 C841 1.392 . S
C842 C843 1.385 . S
C842 C844 1.478 1_455 S
C843 H837 0.930 1_455 S
C843 C839 1.400 . S
C843 C842 1.385 . S
C844 C842 1.478 1_655 S
C844 C846 1.381 . S
C844 C850 1.383 . S
C845 C841 1.495 . S
C845 H851 0.959 . S
C845 H852 0.961 . S
C845 H853 0.960 . S
C846 C844 1.381 . S
C846 C847 1.394 . S
C846 H854 0.930 . S
C847 C846 1.394 . S
C847 C848 1.383 . S
C847 H855 0.929 . S
C848 C847 1.383 . S
C848 C849 1.377 . S
C849 H833 0.930 . S
C849 C848 1.377 . S
C849 C850 1.379 . S
C850 H834 0.931 . S
C850 C844 1.383 . S
C850 C849 1.379 . S
H851 C845 0.959 . S
H852 C845 0.961 . S
H853 C845 0.960 . S
H854 C846 0.930 . S
H855 C847 0.929 . S
H856 C864 0.929 . S
H857 C866 0.930 . S
H858 C868 0.930 . S
H859 C871 0.929 . S
H860 C874 0.930 . S
H861 C876 0.960 . S
H862 C876 0.960 . S
H863 C876 0.960 . S
C864 H856 0.929 . S
C864 C865 1.377 . S
C864 C866 1.384 . S
C865 C864 1.377 . S
C865 C871 1.390 . S
C866 H857 0.930 . S
C866 C864 1.384 . S
C866 C867 1.372 . S
C867 C866 1.372 . S
C867 C868 1.400 . S
C867 C872 1.490 . S
C868 H858 0.930 . S
C868 C867 1.400 . S
C868 C871 1.386 . S
H869 C885 0.930 . S
H870 C886 0.931 . S
C871 H859 0.929 . S
C871 C865 1.390 . S
C871 C868 1.386 . S
C872 C867 1.490 . S
C872 C874 1.395 . S
C872 C875 1.403 . S
H873 C879 0.930 . S
C874 H860 0.930 . S
C874 C872 1.395 . S
C874 C877 1.403 . S
C875 C872 1.403 . S
C875 C876 1.524 . S
C875 C879 1.400 . S
C876 H861 0.960 . S
C876 H862 0.960 . S
C876 H863 0.960 . S
C876 C875 1.524 . S
C877 C874 1.403 . S
C877 C878 1.392 . S
C877 C881 1.510 . S
C878 C877 1.392 . S
C878 C879 1.385 . S
C878 C880 1.478 1_565 S
C879 H873 0.930 . S
C879 C875 1.400 . S
C879 C878 1.385 . S
C880 C878 1.478 1_545 S
C880 C882 1.381 . S
C880 C886 1.383 . S
C881 C877 1.510 . S
C881 H887 0.976 . S
C881 H888 0.937 1_565 S
C881 H889 0.953 1_565 S
C882 C880 1.381 . S
C882 C883 1.394 . S
C882 H890 0.930 . S
C883 C882 1.394 . S
C883 C884 1.383 . S
C883 H891 0.929 . S
C884 C883 1.383 . S
C884 C885 1.377 . S
C885 H869 0.930 . S
C885 C884 1.377 . S
C885 C886 1.379 . S
C886 H870 0.931 . S
C886 C880 1.383 . S
C886 C885 1.379 . S
H887 C881 0.976 . S
H888 C881 0.937 1_545 S
H889 C881 0.953 1_545 S
H890 C882 0.930 . S
H891 C883 0.929 . S
H892 C900 0.929 . S
H893 C902 0.930 . S
H894 C904 0.930 . S
H895 C907 0.929 . S
H896 C910 0.930 1_455 S
H897 C912 0.960 . S
H898 C912 0.960 . S
H899 C912 0.960 . S
C900 H892 0.929 . S
C900 C901 1.377 . S
C900 C902 1.384 . S
C901 C900 1.377 . S
C901 C907 1.390 . S
C902 H893 0.930 . S
C902 C900 1.384 . S
C902 C903 1.372 . S
C903 C902 1.372 . S
C903 C904 1.400 . S
C903 C908 1.490 1_455 S
C904 H894 0.930 . S
C904 C903 1.400 . S
C904 C907 1.386 . S
H905 C921 0.930 . S
H906 C922 0.931 . S
C907 H895 0.929 . S
C907 C901 1.390 . S
C907 C904 1.386 . S
C908 C903 1.490 1_655 S
C908 C910 1.395 . S
C908 C911 1.403 . S
H909 C915 0.930 . S
C910 H896 0.930 1_655 S
C910 C908 1.395 . S
C910 C913 1.403 . S
C911 C908 1.403 . S
C911 C912 1.524 . S
C911 C915 1.400 . S
C912 H897 0.960 . S
C912 H898 0.960 . S
C912 H899 0.960 . S
C912 C911 1.524 . S
C913 C910 1.403 . S
C913 C914 1.392 . S
C913 C917 1.495 . S
C914 C913 1.392 . S
C914 C915 1.385 . S
C914 C916 1.478 . S
C915 H909 0.930 . S
C915 C911 1.400 . S
C915 C914 1.385 . S
C916 C914 1.478 . S
C916 C918 1.381 . S
C916 C922 1.383 . S
C917 C913 1.495 . S
C917 H923 0.959 . S
C917 H924 0.961 . S
C917 H925 0.960 . S
C918 C916 1.381 . S
C918 C919 1.394 . S
C918 H926 0.930 . S
C919 C918 1.394 . S
C919 C920 1.383 . S
C919 H927 0.929 . S
C920 C919 1.383 . S
C920 C921 1.377 . S
C921 H905 0.930 . S
C921 C920 1.377 . S
C921 C922 1.379 . S
C922 H906 0.931 . S
C922 C916 1.383 . S
C922 C921 1.379 . S
H923 C917 0.959 . S
H924 C917 0.961 . S
H925 C917 0.960 . S
H926 C918 0.930 . S
H927 C919 0.929 . S
H928 C936 0.929 . S
H929 C938 0.930 . S
H930 C940 0.930 . S
H931 C943 0.929 . S
H932 C946 0.930 . S
H933 C948 0.960 . S
H934 C948 0.960 . S
H935 C948 0.960 . S
C936 H928 0.929 . S
C936 C937 1.377 . S
C936 C938 1.384 . S
C937 C936 1.377 . S
C937 C943 1.390 . S
C938 H929 0.930 . S
C938 C936 1.384 . S
C938 C939 1.372 . S
C939 C938 1.372 . S
C939 C940 1.400 . S
C939 C944 1.490 . S
C940 H930 0.930 . S
C940 C939 1.400 . S
C940 C943 1.386 . S
H941 C957 0.930 . S
H942 C958 0.931 . S
C943 H931 0.929 . S
C943 C937 1.390 . S
C943 C940 1.386 . S
C944 C939 1.490 . S
C944 C946 1.395 . S
C944 C947 1.403 . S
H945 C951 0.930 . S
C946 H932 0.930 . S
C946 C944 1.395 . S
C946 C949 1.403 . S
C947 C944 1.403 . S
C947 C948 1.524 . S
C947 C951 1.400 . S
C948 H933 0.960 . S
C948 H934 0.960 . S
C948 H935 0.960 . S
C948 C947 1.524 . S
C949 C946 1.403 . S
C949 C950 1.392 . S
C949 C953 1.495 . S
C950 C949 1.392 . S
C950 C951 1.385 . S
C950 C952 1.478 . S
C951 H945 0.930 . S
C951 C947 1.400 . S
C951 C950 1.385 . S
C952 C950 1.478 . S
C952 C954 1.381 . S
C952 C958 1.383 . S
C953 C949 1.495 . S
C953 H959 0.959 . S
C953 H960 0.961 . S
C953 H961 0.960 . S
C954 C952 1.381 . S
C954 C955 1.394 . S
C954 H962 0.930 . S
C955 C954 1.394 . S
C955 C956 1.383 . S
C955 H963 0.929 . S
C956 C955 1.383 . S
C956 C957 1.377 . S
C957 H941 0.930 . S
C957 C956 1.377 . S
C957 C958 1.379 . S
C958 H942 0.931 . S
C958 C952 1.383 . S
C958 C957 1.379 . S
H959 C953 0.959 . S
H960 C953 0.961 . S
H961 C953 0.960 . S
H962 C954 0.930 . S
H963 C955 0.929 . S
H964 C972 0.929 . S
H965 C974 0.930 . S
H966 C976 0.930 . S
H967 C979 0.929 . S
H968 C982 0.930 . S
H969 C984 0.960 . S
H970 C984 0.960 . S
H971 C984 0.960 . S
C972 H964 0.929 . S
C972 C973 1.377 . S
C972 C974 1.384 . S
C973 C972 1.377 . S
C973 C979 1.390 . S
C974 H965 0.930 . S
C974 C972 1.384 . S
C974 C975 1.372 . S
C975 C974 1.372 . S
C975 C976 1.400 . S
C975 C980 1.490 . S
C976 H966 0.930 . S
C976 C975 1.400 . S
C976 C979 1.386 . S
H977 C993 0.930 . S
H978 C994 0.931 . S
C979 H967 0.929 . S
C979 C973 1.390 . S
C979 C976 1.386 . S
C980 C975 1.490 . S
C980 C982 1.395 . S
C980 C983 1.403 . S
H981 C987 0.930 . S
C982 H968 0.930 . S
C982 C980 1.395 . S
C982 C985 1.403 . S
C983 C980 1.403 . S
C983 C984 1.524 . S
C983 C987 1.400 . S
C984 H969 0.960 . S
C984 H970 0.960 . S
C984 H971 0.960 . S
C984 C983 1.524 . S
C985 C982 1.403 . S
C985 C986 1.392 . S
C985 C989 1.495 . S
C986 C985 1.392 . S
C986 C987 1.385 . S
C986 C988 1.478 . S
C987 H981 0.930 . S
C987 C983 1.400 . S
C987 C986 1.385 . S
C988 C986 1.478 . S
C988 C990 1.381 . S
C988 C994 1.383 . S
C989 C985 1.495 . S
C989 H995 0.959 . S
C989 H996 0.961 . S
C989 H997 0.960 . S
C990 C988 1.381 . S
C990 C991 1.394 . S
C990 H998 0.930 . S
C991 C990 1.394 . S
C991 C992 1.383 . S
C991 H999 0.929 . S
C992 C991 1.383 . S
C992 C993 1.377 . S
C993 H977 0.930 . S
C993 C992 1.377 . S
C993 C994 1.379 . S
C994 H978 0.931 . S
C994 C988 1.383 . S
C994 C993 1.379 . S
H995 C989 0.959 . S
H996 C989 0.961 . S
H997 C989 0.960 . S
H998 C990 0.930 . S
H999 C991 0.929 . S
H1000 C1008 0.929 . S
H1001 C1010 0.930 . S
H1002 C1012 0.930 . S
H1003 C1015 0.929 . S
H1004 C1018 0.930 . S
H1005 C1020 0.960 . S
H1006 C1020 0.960 . S
H1007 C1020 0.960 . S
C1008 H1000 0.929 . S
C1008 C1009 1.377 . S
C1008 C1010 1.384 . S
C1009 C1008 1.377 . S
C1009 C1015 1.390 . S
C1010 H1001 0.930 . S
C1010 C1008 1.384 . S
C1010 C1011 1.372 . S
C1011 C1010 1.372 . S
C1011 C1012 1.400 . S
C1011 C1016 1.490 . S
C1012 H1002 0.930 . S
C1012 C1011 1.400 . S
C1012 C1015 1.386 . S
H1013 C1029 0.930 . S
H1014 C1030 0.931 . S
C1015 H1003 0.929 . S
C1015 C1009 1.390 . S
C1015 C1012 1.386 . S
C1016 C1011 1.490 . S
C1016 C1018 1.395 . S
C1016 C1019 1.403 . S
H1017 C1023 0.930 . S
C1018 H1004 0.930 . S
C1018 C1016 1.395 . S
C1018 C1021 1.403 . S
C1019 C1016 1.403 . S
C1019 C1020 1.524 . S
C1019 C1023 1.400 . S
C1020 H1005 0.960 . S
C1020 H1006 0.960 . S
C1020 H1007 0.960 . S
C1020 C1019 1.524 . S
C1021 C1018 1.403 . S
C1021 C1022 1.392 . S
C1021 C1025 1.495 . S
C1022 C1021 1.392 . S
C1022 C1023 1.385 . S
C1022 C1024 1.478 . S
C1023 H1017 0.930 . S
C1023 C1019 1.400 . S
C1023 C1022 1.385 . S
C1024 C1022 1.478 . S
C1024 C1026 1.381 . S
C1024 C1030 1.383 . S
C1025 C1021 1.495 . S
C1025 H1031 0.959 . S
C1025 H1032 0.961 . S
C1025 H1033 0.960 . S
C1026 C1024 1.381 . S
C1026 C1027 1.394 . S
C1026 H1034 0.930 . S
C1027 C1026 1.394 . S
C1027 C1028 1.383 . S
C1027 H1035 0.929 . S
C1028 C1027 1.383 . S
C1028 C1029 1.377 . S
C1029 H1013 0.930 . S
C1029 C1028 1.377 . S
C1029 C1030 1.379 . S
C1030 H1014 0.931 . S
C1030 C1024 1.383 . S
C1030 C1029 1.379 . S
H1031 C1025 0.959 . S
H1032 C1025 0.961 . S
H1033 C1025 0.960 . S
H1034 C1026 0.930 . S
H1035 C1027 0.929 . S
H1036 C1044 0.929 . S
H1037 C1046 0.930 . S
H1038 C1048 0.930 . S
H1039 C1051 0.929 . S
H1040 C1054 0.930 . S
H1041 C1056 0.960 . S
H1042 C1056 0.960 . S
H1043 C1056 0.960 . S
C1044 H1036 0.929 . S
C1044 C1045 1.377 . S
C1044 C1046 1.384 . S
C1045 C1044 1.377 . S
C1045 C1051 1.390 . S
C1046 H1037 0.930 . S
C1046 C1044 1.384 . S
C1046 C1047 1.372 . S
C1047 C1046 1.372 . S
C1047 C1048 1.400 . S
C1047 C1052 1.490 . S
C1048 H1038 0.930 . S
C1048 C1047 1.400 . S
C1048 C1051 1.386 . S
H1049 C1065 0.930 . S
H1050 C1066 0.931 . S
C1051 H1039 0.929 . S
C1051 C1045 1.390 . S
C1051 C1048 1.386 . S
C1052 C1047 1.490 . S
C1052 C1054 1.395 . S
C1052 C1055 1.403 . S
H1053 C1059 0.930 . S
C1054 H1040 0.930 . S
C1054 C1052 1.395 . S
C1054 C1057 1.403 . S
C1055 C1052 1.403 . S
C1055 C1056 1.524 . S
C1055 C1059 1.400 . S
C1056 H1041 0.960 . S
C1056 H1042 0.960 . S
C1056 H1043 0.960 . S
C1056 C1055 1.524 . S
C1057 C1054 1.403 . S
C1057 C1058 1.392 . S
C1057 C1061 1.495 . S
C1058 C1057 1.392 . S
C1058 C1059 1.385 . S
C1058 C1060 1.478 . S
C1059 H1053 0.930 . S
C1059 C1055 1.400 . S
C1059 C1058 1.385 . S
C1060 C1058 1.478 . S
C1060 C1062 1.381 . S
C1060 C1066 1.383 . S
C1061 C1057 1.495 . S
C1061 H1067 0.959 . S
C1061 H1068 0.961 . S
C1061 H1069 0.960 . S
C1062 C1060 1.381 . S
C1062 C1063 1.394 . S
C1062 H1070 0.930 . S
C1063 C1062 1.394 . S
C1063 C1064 1.383 . S
C1063 H1071 0.929 . S
C1064 C1063 1.383 . S
C1064 C1065 1.377 . S
C1065 H1049 0.930 . S
C1065 C1064 1.377 . S
C1065 C1066 1.379 . S
C1066 H1050 0.931 . S
C1066 C1060 1.383 . S
C1066 C1065 1.379 . S
H1067 C1061 0.959 . S
H1068 C1061 0.961 . S
H1069 C1061 0.960 . S
H1070 C1062 0.930 . S
H1071 C1063 0.929 . S
H1072 C1080 0.929 . S
H1073 C1082 0.930 . S
H1074 C1084 0.930 . S
H1075 C1087 0.929 . S
H1076 C1090 0.930 . S
H1077 C1092 0.960 . S
H1078 C1092 0.960 . S
H1079 C1092 0.960 . S
C1080 H1072 0.929 . S
C1080 C1081 1.377 . S
C1080 C1082 1.384 . S
C1081 C1080 1.377 . S
C1081 C1087 1.390 . S
C1082 H1073 0.930 . S
C1082 C1080 1.384 . S
C1082 C1083 1.372 . S
C1083 C1082 1.372 . S
C1083 C1084 1.400 . S
C1083 C1088 1.490 . S
C1084 H1074 0.930 . S
C1084 C1083 1.400 . S
C1084 C1087 1.386 . S
H1085 C1101 0.930 . S
H1086 C1102 0.931 . S
C1087 H1075 0.929 . S
C1087 C1081 1.390 . S
C1087 C1084 1.386 . S
C1088 C1083 1.490 . S
C1088 C1090 1.395 . S
C1088 C1091 1.403 . S
H1089 C1095 0.930 . S
C1090 H1076 0.930 . S
C1090 C1088 1.395 . S
C1090 C1093 1.403 . S
C1091 C1088 1.403 . S
C1091 C1092 1.524 . S
C1091 C1095 1.400 . S
C1092 H1077 0.960 . S
C1092 H1078 0.960 . S
C1092 H1079 0.960 . S
C1092 C1091 1.524 . S
C1093 C1090 1.403 . S
C1093 C1094 1.392 . S
C1093 C1097 1.495 . S
C1094 C1093 1.392 . S
C1094 C1095 1.385 . S
C1094 C1096 1.478 . S
C1095 H1089 0.930 . S
C1095 C1091 1.400 . S
C1095 C1094 1.385 . S
C1096 C1094 1.478 . S
C1096 C1098 1.381 . S
C1096 C1102 1.383 . S
C1097 C1093 1.495 . S
C1097 H1103 0.959 . S
C1097 H1104 0.961 . S
C1097 H1105 0.960 . S
C1098 C1096 1.381 . S
C1098 C1099 1.394 . S
C1098 H1106 0.930 . S
C1099 C1098 1.394 . S
C1099 C1100 1.383 . S
C1099 H1107 0.929 . S
C1100 C1099 1.383 . S
C1100 C1101 1.377 . S
C1101 H1085 0.930 . S
C1101 C1100 1.377 . S
C1101 C1102 1.379 . S
C1102 H1086 0.931 . S
C1102 C1096 1.383 . S
C1102 C1101 1.379 . S
H1103 C1097 0.959 . S
H1104 C1097 0.961 . S
H1105 C1097 0.960 . S
H1106 C1098 0.930 . S
H1107 C1099 0.929 . S
H1108 C1116 0.929 . S
H1109 C1118 0.930 . S
H1110 C1120 0.930 . S
H1111 C1123 0.929 . S
H1112 C1126 0.930 . S
H1113 C1128 0.960 . S
H1114 C1128 0.960 . S
H1115 C1128 0.960 . S
C1116 H1108 0.929 . S
C1116 C1117 1.377 . S
C1116 C1118 1.384 . S
C1117 C1116 1.377 . S
C1117 C1123 1.390 . S
C1118 H1109 0.930 . S
C1118 C1116 1.384 . S
C1118 C1119 1.372 . S
C1119 C1118 1.372 . S
C1119 C1120 1.400 . S
C1119 C1124 1.490 . S
C1120 H1110 0.930 . S
C1120 C1119 1.400 . S
C1120 C1123 1.386 . S
H1121 C1137 0.930 . S
H1122 C1138 0.931 . S
C1123 H1111 0.929 . S
C1123 C1117 1.390 . S
C1123 C1120 1.386 . S
C1124 C1119 1.490 . S
C1124 C1126 1.395 . S
C1124 C1127 1.403 . S
H1125 C1131 0.930 . S
C1126 H1112 0.930 . S
C1126 C1124 1.395 . S
C1126 C1129 1.403 . S
C1127 C1124 1.403 . S
C1127 C1128 1.524 . S
C1127 C1131 1.400 . S
C1128 H1113 0.960 . S
C1128 H1114 0.960 . S
C1128 H1115 0.960 . S
C1128 C1127 1.524 . S
C1129 C1126 1.403 . S
C1129 C1130 1.392 . S
C1129 C1133 1.495 . S
C1130 C1129 1.392 . S
C1130 C1131 1.385 . S
C1130 C1132 1.478 . S
C1131 H1125 0.930 . S
C1131 C1127 1.400 . S
C1131 C1130 1.385 . S
C1132 C1130 1.478 . S
C1132 C1134 1.381 . S
C1132 C1138 1.383 . S
C1133 C1129 1.495 . S
C1133 H1139 0.959 . S
C1133 H1140 0.961 . S
C1133 H1141 0.960 . S
C1134 C1132 1.381 . S
C1134 C1135 1.394 . S
C1134 H1142 0.930 . S
C1135 C1134 1.394 . S
C1135 C1136 1.383 . S
C1135 H1143 0.929 . S
C1136 C1135 1.383 . S
C1136 C1137 1.377 . S
C1137 H1121 0.930 . S
C1137 C1136 1.377 . S
C1137 C1138 1.379 . S
C1138 H1122 0.931 . S
C1138 C1132 1.383 . S
C1138 C1137 1.379 . S
H1139 C1133 0.959 . S
H1140 C1133 0.961 . S
H1141 C1133 0.960 . S
H1142 C1134 0.930 . S
H1143 C1135 0.929 . S
H1144 C1152 0.929 . S
H1145 C1154 0.930 . S
H1146 C1156 0.930 . S
H1147 C1159 0.929 . S
H1148 C1162 0.930 . S
H1149 C1164 0.960 . S
H1150 C1164 0.960 . S
H1151 C1164 0.960 . S
C1152 H1144 0.929 . S
C1152 C1153 1.377 . S
C1152 C1154 1.384 . S
C1153 C1152 1.377 . S
C1153 C1159 1.390 . S
C1154 H1145 0.930 . S
C1154 C1152 1.384 . S
C1154 C1155 1.372 . S
C1155 C1154 1.372 . S
C1155 C1156 1.400 . S
C1155 C1160 1.490 . S
C1156 H1146 0.930 . S
C1156 C1155 1.400 . S
C1156 C1159 1.386 . S
H1157 C1173 0.930 . S
H1158 C1174 0.931 . S
C1159 H1147 0.929 . S
C1159 C1153 1.390 . S
C1159 C1156 1.386 . S
C1160 C1155 1.490 . S
C1160 C1162 1.395 . S
C1160 C1163 1.403 . S
H1161 C1167 0.930 . S
C1162 H1148 0.930 . S
C1162 C1160 1.395 . S
C1162 C1165 1.403 . S
C1163 C1160 1.403 . S
C1163 C1164 1.524 . S
C1163 C1167 1.400 . S
C1164 H1149 0.960 . S
C1164 H1150 0.960 . S
C1164 H1151 0.960 . S
C1164 C1163 1.524 . S
C1165 C1162 1.403 . S
C1165 C1166 1.392 . S
C1165 C1169 1.495 . S
C1166 C1165 1.392 . S
C1166 C1167 1.385 . S
C1166 C1168 1.478 . S
C1167 H1161 0.930 . S
C1167 C1163 1.400 . S
C1167 C1166 1.385 . S
C1168 C1166 1.478 . S
C1168 C1170 1.381 . S
C1168 C1174 1.383 . S
C1169 C1165 1.495 . S
C1169 H1175 0.959 . S
C1169 H1176 0.961 . S
C1169 H1177 0.960 . S
C1170 C1168 1.381 . S
C1170 C1171 1.394 . S
C1170 H1178 0.930 . S
C1171 C1170 1.394 . S
C1171 C1172 1.383 . S
C1171 H1179 0.929 . S
C1172 C1171 1.383 . S
C1172 C1173 1.377 . S
C1173 H1157 0.930 . S
C1173 C1172 1.377 . S
C1173 C1174 1.379 . S
C1174 H1158 0.931 . S
C1174 C1168 1.383 . S
C1174 C1173 1.379 . S
H1175 C1169 0.959 . S
H1176 C1169 0.961 . S
H1177 C1169 0.960 . S
H1178 C1170 0.930 . S
H1179 C1171 0.929 . S
H1180 C1188 0.929 . S
H1181 C1190 0.930 . S
H1182 C1192 0.930 . S
H1183 C1195 0.929 . S
H1184 C1198 0.930 . S
H1185 C1200 0.960 . S
H1186 C1200 0.960 . S
H1187 C1200 0.960 . S
C1188 H1180 0.929 . S
C1188 C1189 1.377 . S
C1188 C1190 1.384 . S
C1189 C1188 1.377 . S
C1189 C1195 1.390 . S
C1190 H1181 0.930 . S
C1190 C1188 1.384 . S
C1190 C1191 1.372 . S
C1191 C1190 1.372 . S
C1191 C1192 1.400 . S
C1191 C1196 1.490 . S
C1192 H1182 0.930 . S
C1192 C1191 1.400 . S
C1192 C1195 1.386 . S
H1193 C1209 0.930 . S
H1194 C1210 0.931 . S
C1195 H1183 0.929 . S
C1195 C1189 1.390 . S
C1195 C1192 1.386 . S
C1196 C1191 1.490 . S
C1196 C1198 1.395 . S
C1196 C1199 1.403 . S
H1197 C1203 0.930 . S
C1198 H1184 0.930 . S
C1198 C1196 1.395 . S
C1198 C1201 1.403 . S
C1199 C1196 1.403 . S
C1199 C1200 1.524 . S
C1199 C1203 1.400 . S
C1200 H1185 0.960 . S
C1200 H1186 0.960 . S
C1200 H1187 0.960 . S
C1200 C1199 1.524 . S
C1201 C1198 1.403 . S
C1201 C1202 1.392 . S
C1201 C1205 1.495 . S
C1202 C1201 1.392 . S
C1202 C1203 1.385 . S
C1202 C1204 1.478 . S
C1203 H1197 0.930 . S
C1203 C1199 1.400 . S
C1203 C1202 1.385 . S
C1204 C1202 1.478 . S
C1204 C1206 1.381 . S
C1204 C1210 1.383 . S
C1205 C1201 1.495 . S
C1205 H1211 0.959 . S
C1205 H1212 0.961 . S
C1205 H1213 0.960 . S
C1206 C1204 1.381 . S
C1206 C1207 1.394 . S
C1206 H1214 0.930 . S
C1207 C1206 1.394 . S
C1207 C1208 1.383 . S
C1207 H1215 0.929 . S
C1208 C1207 1.383 . S
C1208 C1209 1.377 . S
C1209 H1193 0.930 . S
C1209 C1208 1.377 . S
C1209 C1210 1.379 . S
C1210 H1194 0.931 . S
C1210 C1204 1.383 . S
C1210 C1209 1.379 . S
H1211 C1205 0.959 . S
H1212 C1205 0.961 . S
H1213 C1205 0.960 . S
H1214 C1206 0.930 . S
H1215 C1207 0.929 . S
H1216 C1224 0.929 . S
H1217 C1226 0.930 . S
H1218 C1228 0.930 . S
H1219 C1231 0.929 . S
H1220 C1234 0.930 . S
H1221 C1236 0.960 . S
H1222 C1236 0.960 . S
H1223 C1236 0.960 . S
C1224 H1216 0.929 . S
C1224 C1225 1.377 . S
C1224 C1226 1.384 . S
C1225 C1224 1.377 . S
C1225 C1231 1.390 . S
C1226 H1217 0.930 . S
C1226 C1224 1.384 . S
C1226 C1227 1.372 . S
C1227 C1226 1.372 . S
C1227 C1228 1.400 . S
C1227 C1232 1.490 . S
C1228 H1218 0.930 . S
C1228 C1227 1.400 . S
C1228 C1231 1.386 . S
H1229 C1245 0.930 . S
H1230 C1246 0.931 . S
C1231 H1219 0.929 . S
C1231 C1225 1.390 . S
C1231 C1228 1.386 . S
C1232 C1227 1.490 . S
C1232 C1234 1.395 . S
C1232 C1235 1.403 . S
H1233 C1239 0.930 . S
C1234 H1220 0.930 . S
C1234 C1232 1.395 . S
C1234 C1237 1.403 . S
C1235 C1232 1.403 . S
C1235 C1236 1.524 . S
C1235 C1239 1.400 . S
C1236 H1221 0.960 . S
C1236 H1222 0.960 . S
C1236 H1223 0.960 . S
C1236 C1235 1.524 . S
C1237 C1234 1.403 . S
C1237 C1238 1.392 . S
C1237 C1241 1.495 . S
C1238 C1237 1.392 . S
C1238 C1239 1.385 . S
C1238 C1240 1.478 . S
C1239 H1233 0.930 . S
C1239 C1235 1.400 . S
C1239 C1238 1.385 . S
C1240 C1238 1.478 . S
C1240 C1242 1.381 . S
C1240 C1246 1.383 . S
C1241 C1237 1.495 . S
C1241 H1247 0.959 . S
C1241 H1248 0.961 . S
C1241 H1249 0.960 . S
C1242 C1240 1.381 . S
C1242 C1243 1.394 . S
C1242 H1250 0.930 . S
C1243 C1242 1.394 . S
C1243 C1244 1.383 . S
C1243 H1251 0.929 . S
C1244 C1243 1.383 . S
C1244 C1245 1.377 . S
C1245 H1229 0.930 . S
C1245 C1244 1.377 . S
C1245 C1246 1.379 . S
C1246 H1230 0.931 . S
C1246 C1240 1.383 . S
C1246 C1245 1.379 . S
H1247 C1241 0.959 . S
H1248 C1241 0.961 . S
H1249 C1241 0.960 . S
H1250 C1242 0.930 . S
H1251 C1243 0.929 . S
H1252 C1260 0.929 . S
H1253 C1262 0.930 . S
H1254 C1264 0.930 . S
H1255 C1267 0.929 . S
H1256 C1270 0.930 . S
H1257 C1272 0.960 . S
H1258 C1272 0.960 . S
H1259 C1272 0.960 . S
C1260 H1252 0.929 . S
C1260 C1261 1.377 . S
C1260 C1262 1.384 . S
C1261 C1260 1.377 . S
C1261 C1267 1.390 . S
C1262 H1253 0.930 . S
C1262 C1260 1.384 . S
C1262 C1263 1.372 . S
C1263 C1262 1.372 . S
C1263 C1264 1.400 . S
C1263 C1268 1.490 . S
C1264 H1254 0.930 . S
C1264 C1263 1.400 . S
C1264 C1267 1.386 . S
H1265 C1281 0.930 . S
H1266 C1282 0.931 . S
C1267 H1255 0.929 . S
C1267 C1261 1.390 . S
C1267 C1264 1.386 . S
C1268 C1263 1.490 . S
C1268 C1270 1.395 . S
C1268 C1271 1.403 . S
H1269 C1275 0.930 . S
C1270 H1256 0.930 . S
C1270 C1268 1.395 . S
C1270 C1273 1.403 . S
C1271 C1268 1.403 . S
C1271 C1272 1.524 . S
C1271 C1275 1.400 . S
C1272 H1257 0.960 . S
C1272 H1258 0.960 . S
C1272 H1259 0.960 . S
C1272 C1271 1.524 . S
C1273 C1270 1.403 . S
C1273 C1274 1.392 . S
C1273 C1277 1.495 . S
C1274 C1273 1.392 . S
C1274 C1275 1.385 . S
C1274 C1276 1.478 . S
C1275 H1269 0.930 . S
C1275 C1271 1.400 . S
C1275 C1274 1.385 . S
C1276 C1274 1.478 . S
C1276 C1278 1.381 . S
C1276 C1282 1.383 . S
C1277 C1273 1.495 . S
C1277 H1283 0.959 . S
C1277 H1284 0.961 . S
C1277 H1285 0.960 . S
C1278 C1276 1.381 . S
C1278 C1279 1.394 . S
C1278 H1286 0.930 . S
C1279 C1278 1.394 . S
C1279 C1280 1.383 . S
C1279 H1287 0.929 . S
C1280 C1279 1.383 . S
C1280 C1281 1.377 . S
C1281 H1265 0.930 . S
C1281 C1280 1.377 . S
C1281 C1282 1.379 . S
C1282 H1266 0.931 . S
C1282 C1276 1.383 . S
C1282 C1281 1.379 . S
H1283 C1277 0.959 . S
H1284 C1277 0.961 . S
H1285 C1277 0.960 . S
H1286 C1278 0.930 . S
H1287 C1279 0.929 . S
H1288 C1296 0.929 . S
H1289 C1298 0.930 . S
H1290 C1300 0.930 . S
H1291 C1303 0.929 . S
H1292 C1306 0.930 . S
H1293 C1308 0.960 . S
H1294 C1308 0.960 . S
H1295 C1308 0.960 . S
C1296 H1288 0.929 . S
C1296 C1297 1.377 . S
C1296 C1298 1.384 . S
C1297 C1296 1.377 . S
C1297 C1303 1.390 . S
C1298 H1289 0.930 . S
C1298 C1296 1.384 . S
C1298 C1299 1.372 . S
C1299 C1298 1.372 . S
C1299 C1300 1.400 . S
C1299 C1304 1.490 . S
C1300 H1290 0.930 . S
C1300 C1299 1.400 . S
C1300 C1303 1.386 . S
H1301 C1317 0.930 . S
H1302 C1318 0.931 . S
C1303 H1291 0.929 . S
C1303 C1297 1.390 . S
C1303 C1300 1.386 . S
C1304 C1299 1.490 . S
C1304 C1306 1.395 . S
C1304 C1307 1.403 . S
H1305 C1311 0.930 . S
C1306 H1292 0.930 . S
C1306 C1304 1.395 . S
C1306 C1309 1.403 . S
C1307 C1304 1.403 . S
C1307 C1308 1.524 . S
C1307 C1311 1.400 . S
C1308 H1293 0.960 . S
C1308 H1294 0.960 . S
C1308 H1295 0.960 . S
C1308 C1307 1.524 . S
C1309 C1306 1.403 . S
C1309 C1310 1.392 . S
C1309 C1313 1.495 . S
C1310 C1309 1.392 . S
C1310 C1311 1.385 . S
C1310 C1312 1.478 . S
C1311 H1305 0.930 . S
C1311 C1307 1.400 . S
C1311 C1310 1.385 . S
C1312 C1310 1.478 . S
C1312 C1314 1.381 . S
C1312 C1318 1.383 . S
C1313 C1309 1.495 . S
C1313 H1319 0.959 . S
C1313 H1320 0.961 . S
C1313 H1321 0.960 . S
C1314 C1312 1.381 . S
C1314 C1315 1.394 . S
C1314 H1322 0.930 . S
C1315 C1314 1.394 . S
C1315 C1316 1.383 . S
C1315 H1323 0.929 . S
C1316 C1315 1.383 . S
C1316 C1317 1.377 . S
C1317 H1301 0.930 . S
C1317 C1316 1.377 . S
C1317 C1318 1.379 . S
C1318 H1302 0.931 . S
C1318 C1312 1.383 . S
C1318 C1317 1.379 . S
H1319 C1313 0.959 . S
H1320 C1313 0.961 . S
H1321 C1313 0.960 . S
H1322 C1314 0.930 . S
H1323 C1315 0.929 . S
H1324 C1332 0.929 . S
H1325 C1334 0.930 . S
H1326 C1336 0.930 . S
H1327 C1339 0.929 . S
H1328 C1342 0.930 . S
H1329 C1344 0.960 . S
H1330 C1344 0.960 . S
H1331 C1344 0.960 . S
C1332 H1324 0.929 . S
C1332 C1333 1.377 . S
C1332 C1334 1.384 . S
C1333 C1332 1.377 . S
C1333 C1339 1.390 . S
C1334 H1325 0.930 . S
C1334 C1332 1.384 . S
C1334 C1335 1.372 . S
C1335 C1334 1.372 . S
C1335 C1336 1.400 . S
C1335 C1340 1.490 . S
C1336 H1326 0.930 . S
C1336 C1335 1.400 . S
C1336 C1339 1.386 . S
H1337 C1353 0.930 . S
H1338 C1354 0.931 . S
C1339 H1327 0.929 . S
C1339 C1333 1.390 . S
C1339 C1336 1.386 . S
C1340 C1335 1.490 . S
C1340 C1342 1.395 . S
C1340 C1343 1.403 . S
H1341 C1347 0.930 . S
C1342 H1328 0.930 . S
C1342 C1340 1.395 . S
C1342 C1345 1.403 . S
C1343 C1340 1.403 . S
C1343 C1344 1.524 . S
C1343 C1347 1.400 . S
C1344 H1329 0.960 . S
C1344 H1330 0.960 . S
C1344 H1331 0.960 . S
C1344 C1343 1.524 . S
C1345 C1342 1.403 . S
C1345 C1346 1.392 . S
C1345 C1349 1.495 . S
C1346 C1345 1.392 . S
C1346 C1347 1.385 . S
C1346 C1348 1.478 . S
C1347 H1341 0.930 . S
C1347 C1343 1.400 . S
C1347 C1346 1.385 . S
C1348 C1346 1.478 . S
C1348 C1350 1.381 . S
C1348 C1354 1.383 . S
C1349 C1345 1.495 . S
C1349 H1355 0.959 . S
C1349 H1356 0.961 . S
C1349 H1357 0.960 . S
C1350 C1348 1.381 . S
C1350 C1351 1.394 . S
C1350 H1358 0.930 . S
C1351 C1350 1.394 . S
C1351 C1352 1.383 . S
C1351 H1359 0.929 . S
C1352 C1351 1.383 . S
C1352 C1353 1.377 . S
C1353 H1337 0.930 . S
C1353 C1352 1.377 . S
C1353 C1354 1.379 . S
C1354 H1338 0.931 . S
C1354 C1348 1.383 . S
C1354 C1353 1.379 . S
H1355 C1349 0.959 . S
H1356 C1349 0.961 . S
H1357 C1349 0.960 . S
H1358 C1350 0.930 . S
H1359 C1351 0.929 . S
H1360 C1368 0.929 . S
H1361 C1370 0.930 . S
H1362 C1372 0.930 . S
H1363 C1375 0.929 . S
H1364 C1378 0.930 . S
H1365 C1380 0.960 . S
H1366 C1380 0.960 . S
H1367 C1380 0.960 . S
C1368 H1360 0.929 . S
C1368 C1369 1.377 . S
C1368 C1370 1.384 . S
C1369 C1368 1.377 . S
C1369 C1375 1.390 . S
C1370 H1361 0.930 . S
C1370 C1368 1.384 . S
C1370 C1371 1.372 . S
C1371 C1370 1.372 . S
C1371 C1372 1.400 . S
C1371 C1376 1.490 . S
C1372 H1362 0.930 . S
C1372 C1371 1.400 . S
C1372 C1375 1.386 . S
H1373 C1389 0.930 . S
H1374 C1390 0.931 . S
C1375 H1363 0.929 . S
C1375 C1369 1.390 . S
C1375 C1372 1.386 . S
C1376 C1371 1.490 . S
C1376 C1378 1.395 . S
C1376 C1379 1.403 . S
H1377 C1383 0.930 . S
C1378 H1364 0.930 . S
C1378 C1376 1.395 . S
C1378 C1381 1.403 . S
C1379 C1376 1.403 . S
C1379 C1380 1.524 1_556 S
C1379 C1383 1.400 1_556 S
C1380 H1365 0.960 . S
C1380 H1366 0.960 . S
C1380 H1367 0.960 . S
C1380 C1379 1.524 1_554 S
C1381 C1378 1.403 . S
C1381 C1382 1.392 . S
C1381 C1385 1.495 1_545 S
C1382 C1381 1.392 . S
C1382 C1383 1.385 1_556 S
C1382 C1384 1.478 1_545 S
C1383 H1377 0.930 . S
C1383 C1379 1.400 1_554 S
C1383 C1382 1.385 1_554 S
C1384 C1382 1.478 1_565 S
C1384 C1386 1.381 . S
C1384 C1390 1.383 1_556 S
C1385 C1381 1.495 1_565 S
C1385 H1391 0.966 . S
C1385 H1392 0.961 . S
C1385 H1393 0.960 . S
C1386 C1384 1.381 . S
C1386 C1387 1.394 1_556 S
C1386 H1394 0.930 . S
C1387 C1386 1.394 1_554 S
C1387 C1388 1.383 . S
C1387 H1395 0.926 1_554 S
C1388 C1387 1.383 . S
C1388 C1389 1.377 . S
C1389 H1373 0.930 . S
C1389 C1388 1.377 . S
C1389 C1390 1.379 . S
C1390 H1374 0.931 . S
C1390 C1384 1.383 1_554 S
C1390 C1389 1.379 . S
H1391 C1385 0.966 . S
H1392 C1385 0.961 . S
H1393 C1385 0.960 . S
H1394 C1386 0.930 . S
H1395 C1387 0.926 1_556 S
H1396 C1404 0.929 . S
H1397 C1406 0.930 . S
H1398 C1408 0.930 . S
H1399 C1411 0.929 . S
H1400 C1414 0.930 . S
H1401 C1416 0.960 . S
H1402 C1416 0.960 . S
H1403 C1416 0.960 . S
C1404 H1396 0.929 . S
C1404 C1405 1.377 . S
C1404 C1406 1.384 . S
C1405 C1404 1.377 . S
C1405 C1411 1.390 . S
C1406 H1397 0.930 . S
C1406 C1404 1.384 . S
C1406 C1407 1.372 . S
C1407 C1406 1.372 . S
C1407 C1408 1.400 . S
C1407 C1412 1.490 . S
C1408 H1398 0.930 . S
C1408 C1407 1.400 . S
C1408 C1411 1.386 . S
H1409 C1425 0.930 . S
H1410 C1426 0.931 . S
C1411 H1399 0.929 . S
C1411 C1405 1.390 . S
C1411 C1408 1.386 . S
C1412 C1407 1.490 . S
C1412 C1414 1.395 . S
C1412 C1415 1.403 . S
H1413 C1419 0.930 . S
C1414 H1400 0.930 . S
C1414 C1412 1.395 . S
C1414 C1417 1.403 . S
C1415 C1412 1.403 . S
C1415 C1416 1.524 1_554 S
C1415 C1419 1.400 1_554 S
C1416 H1401 0.960 . S
C1416 H1402 0.960 . S
C1416 H1403 0.960 . S
C1416 C1415 1.524 1_556 S
C1417 C1414 1.403 . S
C1417 C1418 1.392 . S
C1417 C1421 1.495 1_455 S
C1418 C1417 1.392 . S
C1418 C1419 1.385 1_554 S
C1418 C1420 1.478 1_455 S
C1419 H1413 0.930 . S
C1419 C1415 1.400 1_556 S
C1419 C1418 1.385 1_556 S
C1420 C1418 1.478 1_655 S
C1420 C1422 1.381 . S
C1420 C1426 1.383 1_554 S
C1421 C1417 1.495 1_655 S
C1421 H1427 0.959 . S
C1421 H1428 0.961 . S
C1421 H1429 0.960 . S
C1422 C1420 1.381 . S
C1422 C1423 1.394 1_554 S
C1422 H1430 0.930 . S
C1423 C1422 1.394 1_556 S
C1423 C1424 1.383 . S
C1423 H1431 0.947 . S
C1424 C1423 1.383 . S
C1424 C1425 1.377 . S
C1425 H1409 0.930 . S
C1425 C1424 1.377 . S
C1425 C1426 1.379 . S
C1426 H1410 0.931 . S
C1426 C1420 1.383 1_556 S
C1426 C1425 1.379 . S
H1427 C1421 0.959 . S
H1428 C1421 0.961 . S
H1429 C1421 0.960 . S
H1430 C1422 0.930 . S
H1431 C1423 0.947 . S
H1432 C1440 0.929 . S
H1433 C1442 0.930 . S
H1434 C1444 0.930 . S
H1435 C1447 0.924 1_556 S
H1436 C1450 0.930 . S
H1437 C1452 0.960 . S
H1438 C1452 0.960 . S
H1439 C1452 0.995 1_545 S
C1440 H1432 0.929 . S
C1440 C1441 1.377 . S
C1440 C1442 1.384 . S
C1441 C1440 1.377 . S
C1441 C1447 1.390 . S
C1442 H1433 0.930 . S
C1442 C1440 1.384 . S
C1442 C1443 1.372 . S
C1443 C1442 1.372 . S
C1443 C1444 1.400 1_554 S
C1443 C1448 1.490 1_544 S
C1444 H1434 0.930 . S
C1444 C1443 1.400 1_556 S
C1444 C1447 1.386 1_556 S
H1445 C1461 0.930 . S
H1446 C1462 0.931 . S
C1447 H1435 0.924 1_554 S
C1447 C1441 1.390 . S
C1447 C1444 1.386 1_554 S
C1448 C1443 1.490 1_566 S
C1448 C1450 1.395 . S
C1448 C1451 1.403 . S
H1449 C1455 0.930 . S
C1450 H1436 0.930 . S
C1450 C1448 1.395 . S
C1450 C1453 1.403 . S
C1451 C1448 1.403 . S
C1451 C1452 1.524 1_556 S
C1451 C1455 1.400 . S
C1452 H1437 0.960 . S
C1452 H1438 0.960 . S
C1452 H1439 0.995 1_565 S
C1452 C1451 1.524 1_554 S
C1453 C1450 1.403 . S
C1453 C1454 1.392 . S
C1453 C1457 1.495 . S
C1454 C1453 1.392 . S
C1454 C1455 1.385 . S
C1454 C1456 1.478 . S
C1455 H1449 0.930 . S
C1455 C1451 1.400 . S
C1455 C1454 1.385 . S
C1456 C1454 1.478 . S
C1456 C1458 1.381 . S
C1456 C1462 1.383 . S
C1457 C1453 1.495 . S
C1457 H1463 0.959 . S
C1457 H1464 0.961 . S
C1457 H1465 0.960 . S
C1458 C1456 1.381 . S
C1458 C1459 1.394 . S
C1458 H1466 0.930 . S
C1459 C1458 1.394 . S
C1459 C1460 1.383 . S
C1459 H1467 0.929 . S
C1460 C1459 1.383 . S
C1460 C1461 1.377 . S
C1461 H1445 0.930 . S
C1461 C1460 1.377 . S
C1461 C1462 1.379 . S
C1462 H1446 0.931 . S
C1462 C1456 1.383 . S
C1462 C1461 1.379 . S
H1463 C1457 0.959 . S
H1464 C1457 0.961 . S
H1465 C1457 0.960 . S
H1466 C1458 0.930 . S
H1467 C1459 0.929 . S
H1468 C1476 0.929 . S
H1469 C1478 0.970 . S
H1470 C1480 0.930 . S
H1471 C1483 0.929 . S
H1472 C1486 0.904 1_556 S
H1473 C1488 0.960 . S
H1474 C1488 0.960 . S
H1475 C1488 0.960 . S
C1476 H1468 0.929 . S
C1476 C1477 1.377 . S
C1476 C1478 1.357 1_556 S
C1477 C1476 1.377 . S
C1477 C1483 1.390 . S
C1478 H1469 0.970 . S
C1478 C1476 1.357 1_554 S
C1478 C1479 1.361 1_554 S
C1479 C1478 1.361 1_556 S
C1479 C1480 1.442 . S
C1479 C1484 1.463 1_456 S
C1480 H1470 0.930 . S
C1480 C1479 1.442 . S
C1480 C1483 1.386 . S
H1481 C1497 0.930 . S
H1482 C1498 0.931 . S
C1483 H1471 0.929 . S
C1483 C1477 1.390 . S
C1483 C1480 1.386 . S
C1484 C1479 1.463 1_654 S
C1484 C1486 1.407 . S
C1484 C1487 1.403 . S
H1485 C1491 0.930 . S
C1486 H1472 0.904 1_554 S
C1486 C1484 1.407 . S
C1486 C1489 1.417 . S
C1487 C1484 1.403 . S
C1487 C1488 1.524 1_655 S
C1487 C1491 1.400 . S
C1488 H1473 0.960 . S
C1488 H1474 0.960 . S
C1488 H1475 0.960 . S
C1488 C1487 1.524 1_455 S
C1489 C1486 1.417 . S
C1489 C1490 1.392 . S
C1489 C1493 1.498 . S
C1490 C1489 1.392 . S
C1490 C1491 1.385 . S
C1490 C1492 1.478 . S
C1491 H1485 0.930 . S
C1491 C1487 1.400 . S
C1491 C1490 1.385 . S
C1492 C1490 1.478 . S
C1492 C1494 1.381 . S
C1492 C1498 1.383 . S
C1493 C1489 1.498 . S
C1493 H1499 0.954 1_554 S
C1493 H1500 0.957 1_554 S
C1493 H1501 0.966 . S
C1494 C1492 1.381 . S
C1494 C1495 1.394 . S
C1494 H1502 0.930 . S
C1495 C1494 1.394 . S
C1495 C1496 1.383 . S
C1495 H1503 0.929 . S
C1496 C1495 1.383 . S
C1496 C1497 1.377 . S
C1497 H1481 0.930 . S
C1497 C1496 1.377 . S
C1497 C1498 1.379 . S
C1498 H1482 0.931 . S
C1498 C1492 1.383 . S
C1498 C1497 1.379 . S
H1499 C1493 0.954 1_556 S
H1500 C1493 0.957 1_556 S
H1501 C1493 0.966 . S
H1502 C1494 0.930 . S
H1503 C1495 0.929 . S
H1504 C1512 0.929 . S
H1505 C1514 0.930 . S
H1506 C1516 0.930 . S
H1507 C1519 0.929 . S
H1508 C1522 0.930 . S
H1509 C1524 0.960 1_565 S
H1510 C1524 0.960 . S
H1511 C1524 0.960 . S
C1512 H1504 0.929 . S
C1512 C1513 1.377 . S
C1512 C1514 1.384 . S
C1513 C1512 1.377 . S
C1513 C1519 1.390 . S
C1514 H1505 0.930 . S
C1514 C1512 1.384 . S
C1514 C1515 1.372 . S
C1515 C1514 1.372 . S
C1515 C1516 1.400 . S
C1515 C1520 1.490 1_545 S
C1516 H1506 0.930 . S
C1516 C1515 1.400 . S
C1516 C1519 1.386 . S
H1517 C1533 0.930 . S
H1518 C1534 0.931 . S
C1519 H1507 0.929 . S
C1519 C1513 1.390 . S
C1519 C1516 1.386 . S
C1520 C1515 1.490 1_565 S
C1520 C1522 1.395 . S
C1520 C1523 1.403 . S
H1521 C1527 0.930 . S
C1522 H1508 0.930 . S
C1522 C1520 1.395 . S
C1522 C1525 1.403 . S
C1523 C1520 1.403 . S
C1523 C1524 1.524 1_565 S
C1523 C1527 1.400 . S
C1524 H1509 0.960 1_545 S
C1524 H1510 0.960 . S
C1524 H1511 0.960 . S
C1524 C1523 1.524 1_545 S
C1525 C1522 1.403 . S
C1525 C1526 1.392 . S
C1525 C1529 1.495 . S
C1526 C1525 1.392 . S
C1526 C1527 1.385 . S
C1526 C1528 1.478 . S
C1527 H1521 0.930 . S
C1527 C1523 1.400 . S
C1527 C1526 1.385 . S
C1528 C1526 1.478 . S
C1528 C1530 1.381 . S
C1528 C1534 1.383 . S
C1529 C1525 1.495 . S
C1529 H1535 0.959 . S
C1529 H1536 0.961 . S
C1529 H1537 0.960 . S
C1530 C1528 1.381 . S
C1530 C1531 1.394 . S
C1530 H1538 0.930 . S
C1531 C1530 1.394 . S
C1531 C1532 1.383 . S
C1531 H1539 0.929 . S
C1532 C1531 1.383 . S
C1532 C1533 1.377 . S
C1533 H1517 0.930 . S
C1533 C1532 1.377 . S
C1533 C1534 1.379 . S
C1534 H1518 0.931 . S
C1534 C1528 1.383 . S
C1534 C1533 1.379 . S
H1535 C1529 0.959 . S
H1536 C1529 0.961 . S
H1537 C1529 0.960 . S
H1538 C1530 0.930 . S
H1539 C1531 0.929 . S
H1540 C1548 0.929 . S
H1541 C1550 0.930 . S
H1542 C1552 0.930 . S
H1543 C1555 0.929 . S
H1544 C1558 0.930 . S
H1545 C1560 0.960 . S
H1546 C1560 0.960 . S
H1547 C1560 0.960 . S
C1548 H1540 0.929 . S
C1548 C1549 1.377 . S
C1548 C1550 1.384 . S
C1549 C1548 1.377 . S
C1549 C1555 1.390 . S
C1550 H1541 0.930 . S
C1550 C1548 1.384 . S
C1550 C1551 1.372 . S
C1551 C1550 1.372 . S
C1551 C1552 1.400 . S
C1551 C1556 1.490 . S
C1552 H1542 0.930 . S
C1552 C1551 1.400 . S
C1552 C1555 1.386 . S
H1553 C1569 0.930 . S
H1554 C1570 0.931 . S
C1555 H1543 0.929 . S
C1555 C1549 1.390 . S
C1555 C1552 1.386 . S
C1556 C1551 1.490 . S
C1556 C1558 1.395 . S
C1556 C1559 1.403 . S
H1557 C1563 0.930 . S
C1558 H1544 0.930 . S
C1558 C1556 1.395 . S
C1558 C1561 1.403 . S
C1559 C1556 1.403 . S
C1559 C1560 1.524 . S
C1559 C1563 1.400 . S
C1560 H1545 0.960 . S
C1560 H1546 0.960 . S
C1560 H1547 0.960 . S
C1560 C1559 1.524 . S
C1561 C1558 1.403 . S
C1561 C1562 1.392 . S
C1561 C1565 1.495 . S
C1562 C1561 1.392 . S
C1562 C1563 1.385 . S
C1562 C1564 1.478 1_655 S
C1563 H1557 0.930 . S
C1563 C1559 1.400 . S
C1563 C1562 1.385 . S
C1564 C1562 1.478 1_455 S
C1564 C1566 1.381 . S
C1564 C1570 1.383 . S
C1565 C1561 1.495 . S
C1565 H1571 0.959 . S
C1565 H1572 0.961 . S
C1565 H1573 0.936 1_655 S
C1566 C1564 1.381 . S
C1566 C1567 1.394 . S
C1566 H1574 0.930 . S
C1567 C1566 1.394 . S
C1567 C1568 1.383 . S
C1567 H1575 0.929 . S
C1568 C1567 1.383 . S
C1568 C1569 1.377 . S
C1569 H1553 0.930 . S
C1569 C1568 1.377 . S
C1569 C1570 1.379 . S
C1570 H1554 0.931 . S
C1570 C1564 1.383 . S
C1570 C1569 1.379 . S
H1571 C1565 0.959 . S
H1572 C1565 0.961 . S
H1573 C1565 0.936 1_455 S
H1574 C1566 0.930 . S
H1575 C1567 0.929 . S
H1576 C1584 0.929 . S
H1577 C1586 0.930 . S
H1578 C1588 0.930 . S
H1579 C1591 0.929 . S
H1580 C1594 0.930 . S
H1581 C1596 0.960 . S
H1582 C1596 0.960 . S
H1583 C1596 0.960 . S
C1584 H1576 0.929 . S
C1584 C1585 1.377 . S
C1584 C1586 1.384 . S
C1585 C1584 1.377 . S
C1585 C1591 1.390 . S
C1586 H1577 0.930 . S
C1586 C1584 1.384 . S
C1586 C1587 1.372 . S
C1587 C1586 1.372 . S
C1587 C1588 1.400 . S
C1587 C1592 1.490 . S
C1588 H1578 0.930 . S
C1588 C1587 1.400 . S
C1588 C1591 1.386 . S
H1589 C1605 0.930 . S
H1590 C1606 0.931 . S
C1591 H1579 0.929 . S
C1591 C1585 1.390 . S
C1591 C1588 1.386 . S
C1592 C1587 1.490 . S
C1592 C1594 1.395 . S
C1592 C1595 1.403 . S
H1593 C1599 0.930 . S
C1594 H1580 0.930 . S
C1594 C1592 1.395 . S
C1594 C1597 1.403 . S
C1595 C1592 1.403 . S
C1595 C1596 1.524 . S
C1595 C1599 1.400 . S
C1596 H1581 0.960 . S
C1596 H1582 0.960 . S
C1596 H1583 0.960 . S
C1596 C1595 1.524 . S
C1597 C1594 1.403 . S
C1597 C1598 1.392 . S
C1597 C1601 1.495 . S
C1598 C1597 1.392 . S
C1598 C1599 1.385 . S
C1598 C1600 1.478 1_545 S
C1599 H1593 0.930 . S
C1599 C1595 1.400 . S
C1599 C1598 1.385 . S
C1600 C1598 1.478 1_565 S
C1600 C1602 1.381 . S
C1600 C1606 1.383 . S
C1601 C1597 1.495 . S
C1601 H1607 0.959 . S
C1601 H1608 0.961 . S
C1601 H1609 0.960 . S
C1602 C1600 1.381 . S
C1602 C1603 1.394 . S
C1602 H1610 0.930 . S
C1603 C1602 1.394 . S
C1603 C1604 1.383 . S
C1603 H1611 0.929 . S
C1604 C1603 1.383 . S
C1604 C1605 1.377 . S
C1605 H1589 0.930 . S
C1605 C1604 1.377 . S
C1605 C1606 1.379 . S
C1606 H1590 0.931 . S
C1606 C1600 1.383 . S
C1606 C1605 1.379 . S
H1607 C1601 0.959 . S
H1608 C1601 0.961 . S
H1609 C1601 0.960 . S
H1610 C1602 0.930 . S
H1611 C1603 0.929 . S
H1612 C1620 0.929 . S
H1613 C1622 0.930 . S
H1614 C1624 0.930 . S
H1615 C1627 0.929 . S
H1616 C1630 0.930 . S
H1617 C1632 0.960 . S
H1618 C1632 0.960 1_655 S
H1619 C1632 0.960 . S
C1620 H1612 0.929 . S
C1620 C1621 1.377 . S
C1620 C1622 1.384 . S
C1621 C1620 1.377 . S
C1621 C1627 1.390 . S
C1622 H1613 0.930 . S
C1622 C1620 1.384 . S
C1622 C1623 1.372 . S
C1623 C1622 1.372 . S
C1623 C1624 1.400 . S
C1623 C1628 1.490 1_655 S
C1624 H1614 0.930 . S
C1624 C1623 1.400 . S
C1624 C1627 1.386 . S
H1625 C1641 0.930 . S
H1626 C1642 0.931 . S
C1627 H1615 0.929 . S
C1627 C1621 1.390 . S
C1627 C1624 1.386 . S
C1628 C1623 1.490 1_455 S
C1628 C1630 1.395 . S
C1628 C1631 1.403 . S
H1629 C1635 0.930 . S
C1630 H1616 0.930 . S
C1630 C1628 1.395 . S
C1630 C1633 1.403 . S
C1631 C1628 1.403 . S
C1631 C1632 1.524 . S
C1631 C1635 1.400 . S
C1632 H1617 0.960 . S
C1632 H1618 0.960 1_455 S
C1632 H1619 0.960 . S
C1632 C1631 1.524 . S
C1633 C1630 1.403 . S
C1633 C1634 1.392 . S
C1633 C1637 1.495 . S
C1634 C1633 1.392 . S
C1634 C1635 1.385 . S
C1634 C1636 1.478 . S
C1635 H1629 0.930 . S
C1635 C1631 1.400 . S
C1635 C1634 1.385 . S
C1636 C1634 1.478 . S
C1636 C1638 1.381 . S
C1636 C1642 1.383 . S
C1637 C1633 1.495 . S
C1637 H1643 0.959 . S
C1637 H1644 0.961 . S
C1637 H1645 0.960 . S
C1638 C1636 1.381 . S
C1638 C1639 1.394 . S
C1638 H1646 0.930 . S
C1639 C1638 1.394 . S
C1639 C1640 1.383 . S
C1639 H1647 0.929 . S
C1640 C1639 1.383 . S
C1640 C1641 1.377 . S
C1641 H1625 0.930 . S
C1641 C1640 1.377 . S
C1641 C1642 1.379 . S
C1642 H1626 0.931 . S
C1642 C1636 1.383 . S
C1642 C1641 1.379 . S
H1643 C1637 0.959 . S
H1644 C1637 0.961 . S
H1645 C1637 0.960 . S
H1646 C1638 0.930 . S
H1647 C1639 0.929 . S
H1648 C1656 0.929 . S
H1649 C1658 0.930 . S
H1650 C1660 0.930 . S
H1651 C1663 0.929 . S
H1652 C1666 0.930 . S
H1653 C1668 0.960 . S
H1654 C1668 0.960 . S
H1655 C1668 0.960 . S
C1656 H1648 0.929 . S
C1656 C1657 1.377 . S
C1656 C1658 1.384 . S
C1657 C1656 1.377 . S
C1657 C1663 1.390 . S
C1658 H1649 0.930 . S
C1658 C1656 1.384 . S
C1658 C1659 1.372 . S
C1659 C1658 1.372 . S
C1659 C1660 1.400 . S
C1659 C1664 1.490 . S
C1660 H1650 0.930 . S
C1660 C1659 1.400 . S
C1660 C1663 1.386 . S
H1661 C1677 0.930 . S
H1662 C1678 0.931 . S
C1663 H1651 0.929 . S
C1663 C1657 1.390 . S
C1663 C1660 1.386 . S
C1664 C1659 1.490 . S
C1664 C1666 1.395 . S
C1664 C1667 1.403 . S
H1665 C1671 0.930 . S
C1666 H1652 0.930 . S
C1666 C1664 1.395 . S
C1666 C1669 1.403 . S
C1667 C1664 1.403 . S
C1667 C1668 1.524 . S
C1667 C1671 1.400 . S
C1668 H1653 0.960 . S
C1668 H1654 0.960 . S
C1668 H1655 0.960 . S
C1668 C1667 1.524 . S
C1669 C1666 1.403 . S
C1669 C1670 1.392 . S
C1669 C1673 1.495 . S
C1670 C1669 1.392 . S
C1670 C1671 1.385 . S
C1670 C1672 1.478 . S
C1671 H1665 0.930 . S
C1671 C1667 1.400 . S
C1671 C1670 1.385 . S
C1672 C1670 1.478 . S
C1672 C1674 1.381 . S
C1672 C1678 1.383 . S
C1673 C1669 1.495 . S
C1673 H1679 0.959 . S
C1673 H1680 0.961 . S
C1673 H1681 0.960 . S
C1674 C1672 1.381 . S
C1674 C1675 1.394 . S
C1674 H1682 0.930 . S
C1675 C1674 1.394 . S
C1675 C1676 1.383 . S
C1675 H1683 0.929 . S
C1676 C1675 1.383 . S
C1676 C1677 1.377 . S
C1677 H1661 0.930 . S
C1677 C1676 1.377 . S
C1677 C1678 1.379 . S
C1678 H1662 0.931 . S
C1678 C1672 1.383 . S
C1678 C1677 1.379 . S
H1679 C1673 0.959 . S
H1680 C1673 0.961 . S
H1681 C1673 0.960 . S
H1682 C1674 0.930 . S
H1683 C1675 0.929 . S
H1684 C1692 0.929 . S
H1685 C1694 0.930 . S
H1686 C1696 0.930 . S
H1687 C1699 0.929 . S
H1688 C1702 0.930 . S
H1689 C1704 0.960 . S
H1690 C1704 0.960 . S
H1691 C1704 0.960 . S
C1692 H1684 0.929 . S
C1692 C1693 1.377 . S
C1692 C1694 1.384 . S
C1693 C1692 1.377 . S
C1693 C1699 1.390 . S
C1694 H1685 0.930 . S
C1694 C1692 1.384 . S
C1694 C1695 1.372 . S
C1695 C1694 1.372 . S
C1695 C1696 1.400 . S
C1695 C1700 1.490 . S
C1696 H1686 0.930 . S
C1696 C1695 1.400 . S
C1696 C1699 1.386 . S
H1697 C1713 0.930 . S
H1698 C1714 0.931 . S
C1699 H1687 0.929 . S
C1699 C1693 1.390 . S
C1699 C1696 1.386 . S
C1700 C1695 1.490 . S
C1700 C1702 1.395 . S
C1700 C1703 1.403 . S
H1701 C1707 0.930 . S
C1702 H1688 0.930 . S
C1702 C1700 1.395 . S
C1702 C1705 1.403 . S
C1703 C1700 1.403 . S
C1703 C1704 1.524 . S
C1703 C1707 1.400 . S
C1704 H1689 0.960 . S
C1704 H1690 0.960 . S
C1704 H1691 0.960 . S
C1704 C1703 1.524 . S
C1705 C1702 1.403 . S
C1705 C1706 1.392 . S
C1705 C1709 1.495 . S
C1706 C1705 1.392 . S
C1706 C1707 1.385 . S
C1706 C1708 1.478 . S
C1707 H1701 0.930 . S
C1707 C1703 1.400 . S
C1707 C1706 1.385 . S
C1708 C1706 1.478 . S
C1708 C1710 1.381 . S
C1708 C1714 1.383 . S
C1709 C1705 1.495 . S
C1709 H1715 0.959 . S
C1709 H1716 0.961 . S
C1709 H1717 0.960 . S
C1710 C1708 1.381 . S
C1710 C1711 1.394 . S
C1710 H1718 0.930 . S
C1711 C1710 1.394 . S
C1711 C1712 1.383 . S
C1711 H1719 0.929 . S
C1712 C1711 1.383 . S
C1712 C1713 1.377 . S
C1713 H1697 0.930 . S
C1713 C1712 1.377 . S
C1713 C1714 1.379 . S
C1714 H1698 0.931 . S
C1714 C1708 1.383 . S
C1714 C1713 1.379 . S
H1715 C1709 0.959 . S
H1716 C1709 0.961 . S
H1717 C1709 0.960 . S
H1718 C1710 0.930 . S
H1719 C1711 0.929 . S
H1720 C1728 0.929 . S
H1721 C1730 0.930 . S
H1722 C1732 0.930 . S
H1723 C1735 0.929 . S
H1724 C1738 0.930 . S
H1725 C1740 0.960 . S
H1726 C1740 0.960 . S
H1727 C1740 0.960 . S
C1728 H1720 0.929 . S
C1728 C1729 1.377 . S
C1728 C1730 1.384 . S
C1729 C1728 1.377 . S
C1729 C1735 1.390 . S
C1730 H1721 0.930 . S
C1730 C1728 1.384 . S
C1730 C1731 1.372 . S
C1731 C1730 1.372 . S
C1731 C1732 1.400 . S
C1731 C1736 1.490 . S
C1732 H1722 0.930 . S
C1732 C1731 1.400 . S
C1732 C1735 1.386 . S
H1733 C1749 0.930 . S
H1734 C1750 0.931 . S
C1735 H1723 0.929 . S
C1735 C1729 1.390 . S
C1735 C1732 1.386 . S
C1736 C1731 1.490 . S
C1736 C1738 1.395 . S
C1736 C1739 1.403 . S
H1737 C1743 0.930 . S
C1738 H1724 0.930 . S
C1738 C1736 1.395 . S
C1738 C1741 1.403 . S
C1739 C1736 1.403 . S
C1739 C1740 1.524 . S
C1739 C1743 1.400 . S
C1740 H1725 0.960 . S
C1740 H1726 0.960 . S
C1740 H1727 0.960 . S
C1740 C1739 1.524 . S
C1741 C1738 1.403 . S
C1741 C1742 1.392 . S
C1741 C1745 1.495 . S
C1742 C1741 1.392 . S
C1742 C1743 1.385 . S
C1742 C1744 1.478 . S
C1743 H1737 0.930 . S
C1743 C1739 1.400 . S
C1743 C1742 1.385 . S
C1744 C1742 1.478 . S
C1744 C1746 1.381 . S
C1744 C1750 1.383 . S
C1745 C1741 1.495 . S
C1745 H1751 0.959 . S
C1745 H1752 0.961 . S
C1745 H1753 0.960 . S
C1746 C1744 1.381 . S
C1746 C1747 1.394 . S
C1746 H1754 0.930 . S
C1747 C1746 1.394 . S
C1747 C1748 1.383 . S
C1747 H1755 0.929 . S
C1748 C1747 1.383 . S
C1748 C1749 1.377 . S
C1749 H1733 0.930 . S
C1749 C1748 1.377 . S
C1749 C1750 1.379 . S
C1750 H1734 0.931 . S
C1750 C1744 1.383 . S
C1750 C1749 1.379 . S
H1751 C1745 0.959 . S
H1752 C1745 0.961 . S
H1753 C1745 0.960 . S
H1754 C1746 0.930 . S
H1755 C1747 0.929 . S
H1756 C1764 0.929 . S
H1757 C1766 0.930 . S
H1758 C1768 0.930 . S
H1759 C1771 0.929 . S
H1760 C1774 0.930 . S
H1761 C1776 0.960 . S
H1762 C1776 0.960 . S
H1763 C1776 0.960 . S
C1764 H1756 0.929 . S
C1764 C1765 1.377 . S
C1764 C1766 1.384 . S
C1765 C1764 1.377 . S
C1765 C1771 1.390 . S
C1766 H1757 0.930 . S
C1766 C1764 1.384 . S
C1766 C1767 1.372 . S
C1767 C1766 1.372 . S
C1767 C1768 1.400 . S
C1767 C1772 1.490 . S
C1768 H1758 0.930 . S
C1768 C1767 1.400 . S
C1768 C1771 1.386 . S
H1769 C1785 0.930 . S
H1770 C1786 0.931 . S
C1771 H1759 0.929 . S
C1771 C1765 1.390 . S
C1771 C1768 1.386 . S
C1772 C1767 1.490 . S
C1772 C1774 1.395 . S
C1772 C1775 1.403 . S
H1773 C1779 0.930 . S
C1774 H1760 0.930 . S
C1774 C1772 1.395 . S
C1774 C1777 1.403 . S
C1775 C1772 1.403 . S
C1775 C1776 1.524 . S
C1775 C1779 1.400 . S
C1776 H1761 0.960 . S
C1776 H1762 0.960 . S
C1776 H1763 0.960 . S
C1776 C1775 1.524 . S
C1777 C1774 1.403 . S
C1777 C1778 1.392 . S
C1777 C1781 1.495 . S
C1778 C1777 1.392 . S
C1778 C1779 1.385 . S
C1778 C1780 1.478 . S
C1779 H1773 0.930 . S
C1779 C1775 1.400 . S
C1779 C1778 1.385 . S
C1780 C1778 1.478 . S
C1780 C1782 1.381 . S
C1780 C1786 1.383 . S
C1781 C1777 1.495 . S
C1781 H1787 0.959 . S
C1781 H1788 0.961 . S
C1781 H1789 0.960 . S
C1782 C1780 1.381 . S
C1782 C1783 1.394 . S
C1782 H1790 0.930 . S
C1783 C1782 1.394 . S
C1783 C1784 1.383 . S
C1783 H1791 0.929 . S
C1784 C1783 1.383 . S
C1784 C1785 1.377 . S
C1785 H1769 0.930 . S
C1785 C1784 1.377 . S
C1785 C1786 1.379 . S
C1786 H1770 0.931 . S
C1786 C1780 1.383 . S
C1786 C1785 1.379 . S
H1787 C1781 0.959 . S
H1788 C1781 0.961 . S
H1789 C1781 0.960 . S
H1790 C1782 0.930 . S
H1791 C1783 0.929 . S
H1792 C1800 0.929 . S
H1793 C1802 0.930 . S
H1794 C1804 0.930 . S
H1795 C1807 0.929 . S
H1796 C1810 0.930 . S
H1797 C1812 0.960 . S
H1798 C1812 0.960 . S
H1799 C1812 0.960 . S
C1800 H1792 0.929 . S
C1800 C1801 1.377 . S
C1800 C1802 1.384 . S
C1801 C1800 1.377 . S
C1801 C1807 1.390 . S
C1802 H1793 0.930 . S
C1802 C1800 1.384 . S
C1802 C1803 1.372 . S
C1803 C1802 1.372 . S
C1803 C1804 1.400 . S
C1803 C1808 1.490 . S
C1804 H1794 0.930 . S
C1804 C1803 1.400 . S
C1804 C1807 1.386 . S
H1805 C1821 0.930 . S
H1806 C1822 0.931 . S
C1807 H1795 0.929 . S
C1807 C1801 1.390 . S
C1807 C1804 1.386 . S
C1808 C1803 1.490 . S
C1808 C1810 1.395 1_455 S
C1808 C1811 1.403 1_545 S
H1809 C1815 0.930 . S
C1810 H1796 0.930 . S
C1810 C1808 1.395 1_655 S
C1810 C1813 1.403 . S
C1811 C1808 1.403 1_565 S
C1811 C1812 1.524 . S
C1811 C1815 1.400 . S
C1812 H1797 0.960 . S
C1812 H1798 0.960 . S
C1812 H1799 0.960 . S
C1812 C1811 1.524 . S
C1813 C1810 1.403 . S
C1813 C1814 1.392 1_545 S
C1813 C1817 1.495 . S
C1814 C1813 1.392 1_565 S
C1814 C1815 1.385 1_655 S
C1814 C1816 1.478 . S
C1815 H1809 0.930 . S
C1815 C1811 1.400 . S
C1815 C1814 1.385 1_455 S
C1816 C1814 1.478 . S
C1816 C1818 1.381 . S
C1816 C1822 1.383 . S
C1817 C1813 1.495 . S
C1817 H1823 0.959 . S
C1817 H1824 0.961 . S
C1817 H1825 0.960 . S
C1818 C1816 1.381 . S
C1818 C1819 1.394 . S
C1818 H1826 0.930 . S
C1819 C1818 1.394 . S
C1819 C1820 1.383 . S
C1819 H1827 0.929 . S
C1820 C1819 1.383 . S
C1820 C1821 1.377 . S
C1821 H1805 0.930 . S
C1821 C1820 1.377 . S
C1821 C1822 1.379 . S
C1822 H1806 0.931 . S
C1822 C1816 1.383 . S
C1822 C1821 1.379 . S
H1823 C1817 0.959 . S
H1824 C1817 0.961 . S
H1825 C1817 0.960 . S
H1826 C1818 0.930 . S
H1827 C1819 0.929 . S
H1828 C1836 0.929 . S
H1829 C1838 0.930 . S
H1830 C1840 0.930 . S
H1831 C1843 0.929 . S
H1832 C1846 0.930 . S
H1833 C1848 0.960 . S
H1834 C1848 0.960 . S
H1835 C1848 0.960 . S
C1836 H1828 0.929 . S
C1836 C1837 1.377 . S
C1836 C1838 1.384 . S
C1837 C1836 1.377 . S
C1837 C1843 1.390 . S
C1838 H1829 0.930 . S
C1838 C1836 1.384 . S
C1838 C1839 1.372 . S
C1839 C1838 1.372 . S
C1839 C1840 1.400 . S
C1839 C1844 1.490 . S
C1840 H1830 0.930 . S
C1840 C1839 1.400 . S
C1840 C1843 1.386 . S
H1841 C1857 0.930 . S
H1842 C1858 0.931 . S
C1843 H1831 0.929 . S
C1843 C1837 1.390 . S
C1843 C1840 1.386 . S
C1844 C1839 1.490 . S
C1844 C1846 1.395 1_655 S
C1844 C1847 1.403 1_545 S
H1845 C1851 0.930 . S
C1846 H1832 0.930 . S
C1846 C1844 1.395 1_455 S
C1846 C1849 1.403 . S
C1847 C1844 1.403 1_565 S
C1847 C1848 1.524 . S
C1847 C1851 1.400 . S
C1848 H1833 0.960 . S
C1848 H1834 0.960 . S
C1848 H1835 0.960 . S
C1848 C1847 1.524 . S
C1849 C1846 1.403 . S
C1849 C1850 1.392 1_545 S
C1849 C1853 1.495 . S
C1850 C1849 1.392 1_565 S
C1850 C1851 1.385 1_455 S
C1850 C1852 1.478 . S
C1851 H1845 0.930 . S
C1851 C1847 1.400 . S
C1851 C1850 1.385 1_655 S
C1852 C1850 1.478 . S
C1852 C1854 1.381 . S
C1852 C1858 1.383 . S
C1853 C1849 1.495 . S
C1853 H1859 0.959 . S
C1853 H1860 0.961 . S
C1853 H1861 0.960 . S
C1854 C1852 1.381 . S
C1854 C1855 1.394 . S
C1854 H1862 0.930 . S
C1855 C1854 1.394 . S
C1855 C1856 1.383 . S
C1855 H1863 0.929 . S
C1856 C1855 1.383 . S
C1856 C1857 1.377 . S
C1857 H1841 0.930 . S
C1857 C1856 1.377 . S
C1857 C1858 1.379 . S
C1858 H1842 0.931 . S
C1858 C1852 1.383 . S
C1858 C1857 1.379 . S
H1859 C1853 0.959 . S
H1860 C1853 0.961 . S
H1861 C1853 0.960 . S
H1862 C1854 0.930 . S
H1863 C1855 0.929 . S
H1864 C1872 0.929 . S
H1865 C1874 0.930 . S
H1866 C1876 0.930 . S
H1867 C1879 0.929 . S
H1868 C1882 0.930 . S
H1869 C1884 0.954 1_655 S
H1870 C1884 0.958 1_655 S
H1871 C1884 0.968 . S
C1872 H1864 0.929 . S
C1872 C1873 1.377 . S
C1872 C1874 1.384 . S
C1873 C1872 1.377 . S
C1873 C1879 1.390 . S
C1874 H1865 0.930 . S
C1874 C1872 1.384 . S
C1874 C1875 1.372 . S
C1875 C1874 1.372 . S
C1875 C1876 1.400 . S
C1875 C1880 1.490 . S
C1876 H1866 0.930 . S
C1876 C1875 1.400 . S
C1876 C1879 1.386 . S
H1877 C1893 0.930 . S
H1878 C1894 0.931 . S
C1879 H1867 0.929 . S
C1879 C1873 1.390 . S
C1879 C1876 1.386 . S
C1880 C1875 1.490 . S
C1880 C1882 1.395 . S
C1880 C1883 1.403 . S
H1881 C1887 0.930 . S
C1882 H1868 0.930 . S
C1882 C1880 1.395 . S
C1882 C1885 1.403 1_455 S
C1883 C1880 1.403 . S
C1883 C1884 1.524 . S
C1883 C1887 1.400 1_455 S
C1884 H1869 0.954 1_455 S
C1884 H1870 0.958 1_455 S
C1884 H1871 0.968 . S
C1884 C1883 1.524 . S
C1885 C1882 1.403 1_655 S
C1885 C1886 1.392 . S
C1885 C1889 1.495 . S
C1886 C1885 1.392 . S
C1886 C1887 1.385 . S
C1886 C1888 1.478 . S
C1887 H1881 0.930 . S
C1887 C1883 1.400 1_655 S
C1887 C1886 1.385 . S
C1888 C1886 1.478 . S
C1888 C1890 1.381 . S
C1888 C1894 1.383 . S
C1889 C1885 1.495 . S
C1889 H1895 0.959 1_655 S
C1889 H1896 0.961 1_655 S
C1889 H1897 0.960 . S
C1890 C1888 1.381 . S
C1890 C1891 1.394 . S
C1890 H1898 0.930 . S
C1891 C1890 1.394 . S
C1891 C1892 1.383 . S
C1891 H1899 0.929 . S
C1892 C1891 1.383 . S
C1892 C1893 1.377 . S
C1893 H1877 0.930 . S
C1893 C1892 1.377 . S
C1893 C1894 1.379 . S
C1894 H1878 0.931 . S
C1894 C1888 1.383 . S
C1894 C1893 1.379 . S
H1895 C1889 0.959 1_455 S
H1896 C1889 0.961 1_455 S
H1897 C1889 0.960 . S
H1898 C1890 0.930 . S
H1899 C1891 0.929 . S
H1900 C1908 0.929 . S
H1901 C1910 0.930 . S
H1902 C1912 0.930 . S
H1903 C1915 0.929 . S
H1904 C1918 0.930 . S
H1905 C1920 0.960 . S
H1906 C1920 0.960 . S
H1907 C1920 0.960 . S
C1908 H1900 0.929 . S
C1908 C1909 1.377 . S
C1908 C1910 1.384 . S
C1909 C1908 1.377 . S
C1909 C1915 1.390 . S
C1910 H1901 0.930 . S
C1910 C1908 1.384 . S
C1910 C1911 1.372 . S
C1911 C1910 1.372 . S
C1911 C1912 1.400 . S
C1911 C1916 1.490 . S
C1912 H1902 0.930 . S
C1912 C1911 1.400 . S
C1912 C1915 1.386 . S
H1913 C1929 0.930 . S
H1914 C1930 0.931 . S
C1915 H1903 0.929 . S
C1915 C1909 1.390 . S
C1915 C1912 1.386 . S
C1916 C1911 1.490 . S
C1916 C1918 1.395 . S
C1916 C1919 1.403 . S
H1917 C1923 0.930 . S
C1918 H1904 0.930 . S
C1918 C1916 1.395 . S
C1918 C1921 1.403 1_565 S
C1919 C1916 1.403 . S
C1919 C1920 1.524 . S
C1919 C1923 1.400 1_565 S
C1920 H1905 0.960 . S
C1920 H1906 0.960 . S
C1920 H1907 0.960 . S
C1920 C1919 1.524 . S
C1921 C1918 1.403 1_545 S
C1921 C1922 1.392 . S
C1921 C1925 1.495 . S
C1922 C1921 1.392 . S
C1922 C1923 1.385 . S
C1922 C1924 1.478 . S
C1923 H1917 0.930 . S
C1923 C1919 1.400 1_545 S
C1923 C1922 1.385 . S
C1924 C1922 1.478 . S
C1924 C1926 1.381 . S
C1924 C1930 1.383 . S
C1925 C1921 1.495 . S
C1925 H1931 0.959 . S
C1925 H1932 0.961 . S
C1925 H1933 0.960 . S
C1926 C1924 1.381 . S
C1926 C1927 1.394 . S
C1926 H1934 0.930 . S
C1927 C1926 1.394 . S
C1927 C1928 1.383 . S
C1927 H1935 0.929 . S
C1928 C1927 1.383 . S
C1928 C1929 1.377 . S
C1929 H1913 0.930 . S
C1929 C1928 1.377 . S
C1929 C1930 1.379 . S
C1930 H1914 0.931 . S
C1930 C1924 1.383 . S
C1930 C1929 1.379 . S
H1931 C1925 0.959 . S
H1932 C1925 0.961 . S
H1933 C1925 0.960 . S
H1934 C1926 0.930 . S
H1935 C1927 0.929 . S
H1936 C1944 0.929 . S
H1937 C1946 0.930 . S
H1938 C1948 0.930 . S
H1939 C1951 0.929 . S
H1940 C1954 0.930 . S
H1941 C1956 0.960 . S
H1942 C1956 0.960 . S
H1943 C1956 0.960 . S
C1944 H1936 0.929 . S
C1944 C1945 1.377 . S
C1944 C1946 1.384 . S
C1945 C1944 1.377 . S
C1945 C1951 1.390 . S
C1946 H1937 0.930 . S
C1946 C1944 1.384 . S
C1946 C1947 1.372 . S
C1947 C1946 1.372 . S
C1947 C1948 1.400 . S
C1947 C1952 1.490 . S
C1948 H1938 0.930 . S
C1948 C1947 1.400 . S
C1948 C1951 1.386 . S
H1949 C1965 0.930 . S
H1950 C1966 0.931 . S
C1951 H1939 0.929 . S
C1951 C1945 1.390 . S
C1951 C1948 1.386 . S
C1952 C1947 1.490 . S
C1952 C1954 1.395 . S
C1952 C1955 1.403 . S
H1953 C1959 0.930 . S
C1954 H1940 0.930 . S
C1954 C1952 1.395 . S
C1954 C1957 1.403 . S
C1955 C1952 1.403 . S
C1955 C1956 1.524 . S
C1955 C1959 1.400 . S
C1956 H1941 0.960 . S
C1956 H1942 0.960 . S
C1956 H1943 0.960 . S
C1956 C1955 1.524 . S
C1957 C1954 1.403 . S
C1957 C1958 1.392 . S
C1957 C1961 1.495 . S
C1958 C1957 1.392 . S
C1958 C1959 1.385 . S
C1958 C1960 1.478 . S
C1959 H1953 0.930 . S
C1959 C1955 1.400 . S
C1959 C1958 1.385 . S
C1960 C1958 1.478 . S
C1960 C1962 1.381 . S
C1960 C1966 1.383 . S
C1961 C1957 1.495 . S
C1961 H1967 0.959 . S
C1961 H1968 0.961 . S
C1961 H1969 0.960 . S
C1962 C1960 1.381 . S
C1962 C1963 1.394 . S
C1962 H1970 0.930 . S
C1963 C1962 1.394 . S
C1963 C1964 1.383 . S
C1963 H1971 0.929 . S
C1964 C1963 1.383 . S
C1964 C1965 1.377 . S
C1965 H1949 0.930 . S
C1965 C1964 1.377 . S
C1965 C1966 1.379 . S
C1966 H1950 0.931 . S
C1966 C1960 1.383 . S
C1966 C1965 1.379 . S
H1967 C1961 0.959 . S
H1968 C1961 0.961 . S
H1969 C1961 0.960 . S
H1970 C1962 0.930 . S
H1971 C1963 0.929 . S
H1972 C1980 0.929 . S
H1973 C1982 0.930 . S
H1974 C1984 0.930 . S
H1975 C1987 0.929 . S
H1976 C1990 0.930 . S
H1977 C1992 0.960 . S
H1978 C1992 0.960 . S
H1979 C1992 0.960 . S
C1980 H1972 0.929 . S
C1980 C1981 1.377 . S
C1980 C1982 1.384 . S
C1981 C1980 1.377 . S
C1981 C1987 1.390 . S
C1982 H1973 0.930 . S
C1982 C1980 1.384 . S
C1982 C1983 1.372 . S
C1983 C1982 1.372 . S
C1983 C1984 1.400 . S
C1983 C1988 1.490 . S
C1984 H1974 0.930 . S
C1984 C1983 1.400 . S
C1984 C1987 1.386 . S
H1985 C2001 0.930 . S
H1986 C2002 0.931 . S
C1987 H1975 0.929 . S
C1987 C1981 1.390 . S
C1987 C1984 1.386 . S
C1988 C1983 1.490 . S
C1988 C1990 1.395 . S
C1988 C1991 1.403 . S
H1989 C1995 0.930 . S
C1990 H1976 0.930 . S
C1990 C1988 1.395 . S
C1990 C1993 1.403 . S
C1991 C1988 1.403 . S
C1991 C1992 1.524 . S
C1991 C1995 1.400 . S
C1992 H1977 0.960 . S
C1992 H1978 0.960 . S
C1992 H1979 0.960 . S
C1992 C1991 1.524 . S
C1993 C1990 1.403 . S
C1993 C1994 1.392 . S
C1993 C1997 1.495 . S
C1994 C1993 1.392 . S
C1994 C1995 1.385 . S
C1994 C1996 1.478 . S
C1995 H1989 0.930 . S
C1995 C1991 1.400 . S
C1995 C1994 1.385 . S
C1996 C1994 1.478 . S
C1996 C1998 1.381 . S
C1996 C2002 1.383 . S
C1997 C1993 1.495 . S
C1997 H2003 0.959 . S
C1997 H2004 0.961 . S
C1997 H2005 0.960 . S
C1998 C1996 1.381 . S
C1998 C1999 1.394 . S
C1998 H2006 0.930 . S
C1999 C1998 1.394 . S
C1999 C2000 1.383 . S
C1999 H2007 0.929 . S
C2000 C1999 1.383 . S
C2000 C2001 1.377 . S
C2001 H1985 0.930 . S
C2001 C2000 1.377 . S
C2001 C2002 1.379 . S
C2002 H1986 0.931 . S
C2002 C1996 1.383 . S
C2002 C2001 1.379 . S
H2003 C1997 0.959 . S
H2004 C1997 0.961 . S
H2005 C1997 0.960 . S
H2006 C1998 0.930 . S
H2007 C1999 0.929 . S
H2008 C2016 0.929 . S
H2009 C2018 0.930 . S
H2010 C2020 0.930 . S
H2011 C2023 0.929 . S
H2012 C2026 0.930 . S
H2013 C2028 0.960 . S
H2014 C2028 0.960 . S
H2015 C2028 0.960 . S
C2016 H2008 0.929 . S
C2016 C2017 1.377 . S
C2016 C2018 1.384 . S
C2017 C2016 1.377 . S
C2017 C2023 1.390 . S
C2018 H2009 0.930 . S
C2018 C2016 1.384 . S
C2018 C2019 1.372 . S
C2019 C2018 1.372 . S
C2019 C2020 1.400 . S
C2019 C2024 1.490 . S
C2020 H2010 0.930 . S
C2020 C2019 1.400 . S
C2020 C2023 1.386 . S
H2021 C2037 0.930 . S
H2022 C2038 0.931 . S
C2023 H2011 0.929 . S
C2023 C2017 1.390 . S
C2023 C2020 1.386 . S
C2024 C2019 1.490 . S
C2024 C2026 1.395 1_565 S
C2024 C2027 1.403 . S
H2025 C2031 0.930 . S
C2026 H2012 0.930 . S
C2026 C2024 1.395 1_545 S
C2026 C2029 1.403 . S
C2027 C2024 1.403 . S
C2027 C2028 1.524 . S
C2027 C2031 1.400 . S
C2028 H2013 0.960 . S
C2028 H2014 0.960 . S
C2028 H2015 0.960 . S
C2028 C2027 1.524 . S
C2029 C2026 1.403 . S
C2029 C2030 1.392 . S
C2029 C2033 1.495 . S
C2030 C2029 1.392 . S
C2030 C2031 1.385 1_545 S
C2030 C2032 1.478 . S
C2031 H2025 0.930 . S
C2031 C2027 1.400 . S
C2031 C2030 1.385 1_565 S
C2032 C2030 1.478 . S
C2032 C2034 1.381 . S
C2032 C2038 1.383 . S
C2033 C2029 1.495 . S
C2033 H2039 0.959 . S
C2033 H2040 0.961 . S
C2033 H2041 0.960 . S
C2034 C2032 1.381 . S
C2034 C2035 1.394 . S
C2034 H2042 0.930 . S
C2035 C2034 1.394 . S
C2035 C2036 1.383 . S
C2035 H2043 0.929 . S
C2036 C2035 1.383 . S
C2036 C2037 1.377 . S
C2037 H2021 0.930 . S
C2037 C2036 1.377 . S
C2037 C2038 1.379 . S
C2038 H2022 0.931 . S
C2038 C2032 1.383 . S
C2038 C2037 1.379 . S
H2039 C2033 0.959 . S
H2040 C2033 0.961 . S
H2041 C2033 0.960 . S
H2042 C2034 0.930 . S
H2043 C2035 0.929 . S
H2044 C2052 0.929 . S
H2045 C2054 0.930 . S
H2046 C2056 0.930 . S
H2047 C2059 0.929 . S
H2048 C2062 0.930 . S
H2049 C2064 0.960 . S
H2050 C2064 0.960 1_655 S
H2051 C2064 0.960 . S
C2052 H2044 0.929 . S
C2052 C2053 1.377 . S
C2052 C2054 1.384 . S
C2053 C2052 1.377 . S
C2053 C2059 1.390 . S
C2054 H2045 0.930 . S
C2054 C2052 1.384 . S
C2054 C2055 1.372 . S
C2055 C2054 1.372 . S
C2055 C2056 1.400 . S
C2055 C2060 1.490 . S
C2056 H2046 0.930 . S
C2056 C2055 1.400 . S
C2056 C2059 1.386 . S
H2057 C2073 0.930 . S
H2058 C2074 0.931 . S
C2059 H2047 0.929 . S
C2059 C2053 1.390 . S
C2059 C2056 1.386 . S
C2060 C2055 1.490 . S
C2060 C2062 1.395 . S
C2060 C2063 1.403 . S
H2061 C2067 0.930 . S
C2062 H2048 0.930 . S
C2062 C2060 1.395 . S
C2062 C2065 1.403 . S
C2063 C2060 1.403 . S
C2063 C2064 1.524 1_655 S
C2063 C2067 1.400 1_655 S
C2064 H2049 0.960 . S
C2064 H2050 0.960 1_455 S
C2064 H2051 0.960 . S
C2064 C2063 1.524 1_455 S
C2065 C2062 1.403 . S
C2065 C2066 1.392 1_655 S
C2065 C2069 1.495 . S
C2066 C2065 1.392 1_455 S
C2066 C2067 1.385 . S
C2066 C2068 1.478 . S
C2067 H2061 0.930 . S
C2067 C2063 1.400 1_455 S
C2067 C2066 1.385 . S
C2068 C2066 1.478 . S
C2068 C2070 1.381 . S
C2068 C2074 1.383 . S
C2069 C2065 1.495 . S
C2069 H2075 0.959 . S
C2069 H2076 0.961 1_655 S
C2069 H2077 0.960 . S
C2070 C2068 1.381 . S
C2070 C2071 1.394 . S
C2070 H2078 0.930 . S
C2071 C2070 1.394 . S
C2071 C2072 1.383 . S
C2071 H2079 0.929 . S
C2072 C2071 1.383 . S
C2072 C2073 1.377 . S
C2073 H2057 0.930 . S
C2073 C2072 1.377 . S
C2073 C2074 1.379 . S
C2074 H2058 0.931 . S
C2074 C2068 1.383 . S
C2074 C2073 1.379 . S
H2075 C2069 0.959 . S
H2076 C2069 0.961 1_455 S
H2077 C2069 0.960 . S
H2078 C2070 0.930 . S
H2079 C2071 0.929 . S
C361 C247 1.393 . S
C380 C9 1.381 . S
C397 C28 1.371 . S
C416 C182 1.416 . S
C433 C49 1.382 . S
C452 C207 1.404 . S
C469 C227 1.397 . S
C488 C73 1.381 . S
C505 C93 1.381 . S
C524 C119 1.409 . S
C541 C116 1.382 . S
C560 C138 1.374 . S
C577 C159 1.400 . S
C596 C141 1.358 . S
C613 C95 1.398 . S
C632 C161 1.361 . S
C649 C185 1.377 . S
C668 C71 1.375 . S
C685 C204 1.381 . S
C704 C6 1.376 . S
C721 C31 1.398 . S
C740 C225 1.346 . S
C757 C249 1.377 . S
C776 C51 1.386 . S
C793 C269 1.382 . S
C812 C295 1.396 . S
C829 C314 1.394 . S
C848 C292 1.387 . S
C865 C335 1.395 . S
C884 C317 1.346 . S
C901 C337 1.370 . S
C920 C271 1.413 . S
C937 C4 1.428 . S
C956 C312 1.433 . S
C973 C30 1.417 . S
C992 C334 1.448 . S
C1009 C52 1.425 . S
C1028 C272 1.414 . S
C1045 C70 1.422 . S
C1064 C294 1.414 . S
C1081 C96 1.417 . S
C1100 C228 1.396 . S
C1117 C118 1.420 . S
C1136 C246 1.425 . S
C1153 C136 1.419 . S
C1172 C180 1.391 . S
C1189 C158 1.424 . S
C1208 C206 1.404 . S
C1225 C5 1.028 . S
C1244 C251 1.048 . S
C1261 C29 1.013 . S
C1280 C183 1.056 . S
C1297 C203 1.021 . S
C1316 C53 1.031 . S
C1333 C72 1.018 . S
C1352 C226 1.031 . S
C1369 C97 1.018 . S
C1388 C115 1.047 . S
C1405 C117 1.020 . S
C1424 C139 1.032 . S
C1441 C163 1.022 . S
C1460 C137 1.040 . S
C1477 C94 1.030 . S
C1496 C160 1.000 . S
C1513 C75 1.019 . S
C1532 C181 1.020 . S
C1549 C205 1.027 . S
C1568 C7 0.995 . S
C1585 C229 1.026 . S
C1604 C27 1.055 . S
C1621 C50 1.021 . S
C1640 C248 1.045 . S
C1657 C273 1.027 . S
C1676 C291 1.051 . S
C1693 C293 1.013 . S
C1712 C315 1.056 . S
C1729 C339 1.021 . S
C1748 C313 1.031 . S
C1765 C270 1.019 . S
C1784 C336 1.055 . S
C1801 C8 1.656 . S
C1820 C48 1.649 . S
C1837 C74 1.656 . S
C1856 C26 1.654 . S
C1873 C92 1.655 . S
C1892 C140 1.646 . S
C1909 C114 1.654 . S
C1928 C162 1.645 . S
C1945 C184 1.654 . S
C1964 C224 1.652 . S
C1981 C250 1.655 . S
C2000 C202 1.656 . S
C2017 C268 1.653 . S
C2036 C316 1.654 . S
C2053 C290 1.654 . S
C2072 C338 1.656 . S
