# Generated by pormake.
# Topology uku, (4)-cn, num edge types: 1
# Building blocks:
#     Node 0, Type 0, BuildingBlock: KUFVIS_clean_sbu_0, # of connection points: 4
#     Node 1, Type 0, BuildingBlock: KUFVIS_clean_sbu_0, # of connection points: 4
#     Node 2, Type 0, BuildingBlock: KUFVIS_clean_sbu_0, # of connection points: 4
#     Node 3, Type 0, BuildingBlock: KUFVIS_clean_sbu_0, # of connection points: 4
#     Node 4, Type 0, BuildingBlock: KUFVIS_clean_sbu_0, # of connection points: 4
#     Node 5, Type 0, BuildingBlock: KUFVIS_clean_sbu_0, # of connection points: 4
#     Node 6, Type 0, BuildingBlock: KUFVIS_clean_sbu_0, # of connection points: 4
#     Node 7, Type 0, BuildingBlock: KUFVIS_clean_sbu_0, # of connection points: 4
#     Node 8, Type 0, BuildingBlock: KUFVIS_clean_sbu_0, # of connection points: 4
#     Node 9, Type 0, BuildingBlock: KUFVIS_clean_sbu_0, # of connection points: 4
#     Node 10, Type 0, BuildingBlock: KUFVIS_clean_sbu_0, # of connection points: 4
#     Node 11, Type 0, BuildingBlock: KUFVIS_clean_sbu_0, # of connection points: 4
#     Edge 12, Type (0, 0), BuildingBlock: AJUNOK_clean_linker_0, # of connection points: 2
#     Edge 13, Type (0, 0), BuildingBlock: AJUNOK_clean_linker_0, # of connection points: 2
#     Edge 14, Type (0, 0), BuildingBlock: AJUNOK_clean_linker_0, # of connection points: 2
#     Edge 15, Type (0, 0), BuildingBlock: AJUNOK_clean_linker_0, # of connection points: 2
#     Edge 16, Type (0, 0), BuildingBlock: AJUNOK_clean_linker_0, # of connection points: 2
#     Edge 17, Type (0, 0), BuildingBlock: AJUNOK_clean_linker_0, # of connection points: 2
#     Edge 18, Type (0, 0), BuildingBlock: AJUNOK_clean_linker_0, # of connection points: 2
#     Edge 19, Type (0, 0), BuildingBlock: AJUNOK_clean_linker_0, # of connection points: 2
#     Edge 20, Type (0, 0), BuildingBlock: AJUNOK_clean_linker_0, # of connection points: 2
#     Edge 21, Type (0, 0), BuildingBlock: AJUNOK_clean_linker_0, # of connection points: 2
#     Edge 22, Type (0, 0), BuildingBlock: AJUNOK_clean_linker_0, # of connection points: 2
#     Edge 23, Type (0, 0), BuildingBlock: AJUNOK_clean_linker_0, # of connection points: 2
#     Edge 24, Type (0, 0), BuildingBlock: AJUNOK_clean_linker_0, # of connection points: 2
#     Edge 25, Type (0, 0), BuildingBlock: AJUNOK_clean_linker_0, # of connection points: 2
#     Edge 26, Type (0, 0), BuildingBlock: AJUNOK_clean_linker_0, # of connection points: 2
#     Edge 27, Type (0, 0), BuildingBlock: AJUNOK_clean_linker_0, # of connection points: 2
#     Edge 28, Type (0, 0), BuildingBlock: AJUNOK_clean_linker_0, # of connection points: 2
#     Edge 29, Type (0, 0), BuildingBlock: AJUNOK_clean_linker_0, # of connection points: 2
#     Edge 30, Type (0, 0), BuildingBlock: AJUNOK_clean_linker_0, # of connection points: 2
#     Edge 31, Type (0, 0), BuildingBlock: AJUNOK_clean_linker_0, # of connection points: 2
#     Edge 32, Type (0, 0), BuildingBlock: AJUNOK_clean_linker_0, # of connection points: 2
#     Edge 33, Type (0, 0), BuildingBlock: AJUNOK_clean_linker_0, # of connection points: 2
#     Edge 34, Type (0, 0), BuildingBlock: AJUNOK_clean_linker_0, # of connection points: 2
#     Edge 35, Type (0, 0), BuildingBlock: AJUNOK_clean_linker_0, # of connection points: 2
# Relax obj value: 0.400
# Max RMSD: 0.284
# Mean RMSD: 0.284
data_MOF--net-uku--node1-KUFVIS_clean_sbu_0--edge1-AJUNOK_clean_linker_0
_symmetry_space_group_name_H-M    P1
_symmetry_Int_Tables_number       1
_symmetry_cell_setting            triclinic
loop_
_symmetry_equiv_pos_as_xyz
'x, y, z'
_cell_length_a     30.16863
_cell_length_b     30.180991
_cell_length_c     30.212171
_cell_angle_alpha  90.121576
_cell_angle_beta   90.054186
_cell_angle_gamma 90.005149
loop_
_atom_site_label
_atom_site_type_symbol
_atom_site_fract_x
_atom_site_fract_y
_atom_site_fract_z
_atom_type_partial_charge
Mn0 Mn 0.07633 0.16152 0.65927 0.0
Mn1 Mn 0.9704 0.18519 0.68297 0.0
C2 C 0.0604 0.22396 0.70021 0.0
C3 C 0.13861 0.12097 0.67888 0.0
C4 C 0.01172 0.19648 0.59198 0.0
O5 O 0.0441 0.10472 0.64726 0.0
O6 O 0.9759 0.11967 0.67427 0.0
C7 C 0.95431 0.1402 0.76845 0.0
N8 N 0.95737 0.1783 0.74449 0.0
C9 C 0.93083 0.22172 0.80588 0.0
C10 C 0.92789 0.18304 0.83136 0.0
C11 C 0.93981 0.14213 0.81258 0.0
C12 C 0.94601 0.21783 0.76227 0.0
H13 H 0.96268 0.10856 0.75395 0.0
C14 C 0.00538 0.09312 0.6589 0.0
O15 O 0.13311 0.13438 0.63833 0.0
O16 O 0.10881 0.13234 0.70751 0.0
N17 N 0.96271 0.24733 0.69316 0.0
C18 C 0.96807 0.28163 0.6644 0.0
C19 C 0.95919 0.32505 0.6786 0.0
C20 C 0.94436 0.3327 0.722 0.0
C21 C 0.93902 0.29686 0.75097 0.0
C22 C 0.94927 0.25442 0.73523 0.0
H23 H 0.97909 0.27593 0.63089 0.0
O24 O 0.09768 0.22053 0.67896 0.0
O25 O 0.03358 0.19047 0.69599 0.0
O26 O 0.05162 0.18807 0.60276 0.0
O27 O 0.97932 0.19408 0.61899 0.0
C28 C 0.92347 0.30154 0.79468 0.0
C29 C 0.9187 0.2639 0.82184 0.0
H30 H 0.91638 0.18436 0.8653 0.0
H31 H 0.93743 0.1121 0.83194 0.0
H32 H 0.96343 0.35253 0.65605 0.0
H33 H 0.93708 0.36619 0.7327 0.0
H34 H 0.91468 0.33386 0.8076 0.0
H35 H 0.90575 0.2678 0.85504 0.0
Mn36 Mn 0.91299 0.8327 0.6553 0.0
Mn37 Mn 0.01845 0.81042 0.68113 0.0
C38 C 0.92925 0.76783 0.69154 0.0
C39 C 0.8513 0.87225 0.67822 0.0
C40 C 0.97998 0.80234 0.5882 0.0
O41 O 0.94443 0.89041 0.64634 0.0
O42 O 0.01141 0.87642 0.67585 0.0
C43 C 0.02401 0.85009 0.77077 0.0
N44 N 0.02744 0.81407 0.74376 0.0
C45 C 0.04614 0.76712 0.80535 0.0
C46 C 0.04377 0.80395 0.83361 0.0
C47 C 0.03255 0.84559 0.81624 0.0
C48 C 0.03816 0.77381 0.76014 0.0
H49 H 0.01426 0.88187 0.75783 0.0
C50 C 0.98221 0.90301 0.65989 0.0
O51 O 0.85571 0.86137 0.63668 0.0
O52 O 0.8812 0.85819 0.70532 0.0
N53 N 0.0281 0.74807 0.68813 0.0
C54 C 0.02553 0.71533 0.65711 0.0
C55 C 0.03322 0.67121 0.66962 0.0
C56 C 0.04345 0.66119 0.71384 0.0
C57 C 0.04587 0.69541 0.7452 0.0
C58 C 0.03818 0.7388 0.73075 0.0
H59 H 0.01736 0.72272 0.62314 0.0
O60 O 0.89174 0.77238 0.67092 0.0
O61 O 0.95532 0.80206 0.69038 0.0
O62 O 0.93948 0.8095 0.59805 0.0
O63 O 0.01184 0.80464 0.61617 0.0
C64 C 0.05468 0.68803 0.79041 0.0
C65 C 0.05492 0.72387 0.82045 0.0
H66 H 0.04977 0.80049 0.8688 0.0
H67 H 0.03005 0.87408 0.83791 0.0
H68 H 0.03106 0.64495 0.64527 0.0
H69 H 0.049 0.62707 0.72341 0.0
H70 H 0.06076 0.65482 0.80253 0.0
H71 H 0.06115 0.71769 0.85522 0.0
Mn72 Mn 0.08262 0.83527 0.33278 0.0
Mn73 Mn 0.97593 0.81158 0.31241 0.0
C74 C 0.06534 0.77269 0.29253 0.0
C75 C 0.14395 0.876 0.31147 0.0
C76 C 0.02045 0.79951 0.40196 0.0
O77 O 0.05091 0.89208 0.34647 0.0
O78 O 0.98203 0.87684 0.32217 0.0
C79 C 0.95699 0.85835 0.22846 0.0
N80 N 0.96061 0.81977 0.25156 0.0
C81 C 0.93379 0.77745 0.18945 0.0
C82 C 0.93018 0.81666 0.16488 0.0
C83 C 0.94186 0.85727 0.18449 0.0
C84 C 0.94896 0.78058 0.23318 0.0
H85 H 0.96548 0.88972 0.24348 0.0
C86 C 0.0117 0.90379 0.33662 0.0
O87 O 0.13997 0.86235 0.3521 0.0
O88 O 0.11322 0.8647 0.28372 0.0
N89 N 0.96745 0.7497 0.30128 0.0
C90 C 0.97355 0.71484 0.3292 0.0
C91 C 0.96442 0.6717 0.31429 0.0
C92 C 0.94883 0.66489 0.27098 0.0
C93 C 0.94287 0.70129 0.24284 0.0
C94 C 0.95295 0.74346 0.25937 0.0
H95 H 0.98546 0.71987 0.36253 0.0
O96 O 0.10352 0.77639 0.31212 0.0
O97 O 0.03864 0.80622 0.29728 0.0
O98 O 0.05991 0.80846 0.39003 0.0
O99 O 0.98725 0.80154 0.37585 0.0
C100 C 0.92731 0.69737 0.19904 0.0
C101 C 0.92277 0.73542 0.17234 0.0
H102 H 0.91852 0.81598 0.13096 0.0
H103 H 0.93915 0.88768 0.16578 0.0
H104 H 0.96924 0.64377 0.33617 0.0
H105 H 0.94166 0.63158 0.25965 0.0
H106 H 0.91865 0.66522 0.18561 0.0
H107 H 0.91081 0.73196 0.13868 0.0
Mn108 Mn 0.90907 0.16337 0.33621 0.0
Mn109 Mn 0.01595 0.18504 0.31496 0.0
C110 C 0.92707 0.22681 0.29848 0.0
C111 C 0.84834 0.12207 0.31301 0.0
C112 C 0.97283 0.19674 0.40536 0.0
O113 O 0.94028 0.10644 0.34902 0.0
O114 O 0.00873 0.11948 0.32281 0.0
C115 C 0.02882 0.14051 0.22848 0.0
N116 N 0.02883 0.17823 0.25334 0.0
C117 C 0.05176 0.22196 0.1909 0.0
C118 C 0.05209 0.18358 0.16467 0.0
C119 C 0.04064 0.14267 0.18358 0.0
C120 C 0.04044 0.21766 0.23565 0.0
H121 H 0.0199 0.10899 0.24277 0.0
C122 C 0.97847 0.0934 0.33745 0.0
O123 O 0.85136 0.13522 0.35401 0.0
O124 O 0.87894 0.13513 0.28614 0.0
N125 N 0.02589 0.24698 0.3055 0.0
C126 C 0.02137 0.28124 0.33459 0.0
C127 C 0.02984 0.32468 0.32038 0.0
C128 C 0.04285 0.33248 0.27645 0.0
C129 C 0.04723 0.29672 0.24707 0.0
C130 C 0.03855 0.25412 0.26317 0.0
H131 H 0.011 0.27554 0.36827 0.0
O132 O 0.88848 0.22279 0.3171 0.0
O133 O 0.95315 0.19268 0.30183 0.0
O134 O 0.93287 0.18904 0.39373 0.0
O135 O 0.00582 0.19377 0.37897 0.0
C136 C 0.05904 0.3018 0.20225 0.0
C137 C 0.06144 0.26443 0.17421 0.0
H138 H 0.0608 0.18517 0.12993 0.0
H139 H 0.04079 0.11289 0.16356 0.0
H140 H 0.02614 0.35214 0.34317 0.0
H141 H 0.04905 0.36608 0.26555 0.0
H142 H 0.06595 0.33435 0.18888 0.0
H143 H 0.07021 0.2688 0.13973 0.0
Mn144 Mn 0.65871 0.08106 0.15855 0.0
Mn145 Mn 0.67704 0.97363 0.18024 0.0
C146 C 0.69724 0.06197 0.22146 0.0
C147 C 0.68218 0.14344 0.12082 0.0
C148 C 0.58807 0.01895 0.19316 0.0
O149 O 0.64639 0.05138 0.10048 0.0
O150 O 0.66546 0.98084 0.11536 0.0
C151 C 0.75976 0.95536 0.13081 0.0
N152 N 0.73754 0.95786 0.17 0.0
C153 C 0.80038 0.9291 0.20978 0.0
C154 C 0.82401 0.92652 0.16992 0.0
C155 C 0.8036 0.93973 0.13027 0.0
C156 C 0.75674 0.94486 0.20827 0.0
H157 H 0.74412 0.96508 0.10017 0.0
C158 C 0.65313 0.01157 0.08869 0.0
O159 O 0.64096 0.13952 0.13289 0.0
O160 O 0.70907 0.11192 0.13179 0.0
N161 N 0.68968 0.96352 0.24147 0.0
C162 C 0.66266 0.96898 0.27717 0.0
C163 C 0.67851 0.95841 0.31956 0.0
C164 C 0.72178 0.942 0.32475 0.0
C165 C 0.74895 0.93666 0.28749 0.0
C166 C 0.73153 0.94822 0.24615 0.0
H167 H 0.62935 0.98146 0.27333 0.0
O168 O 0.67753 0.10009 0.2184 0.0
O169 O 0.69331 0.03602 0.18713 0.0
O170 O 0.60029 0.05805 0.18301 0.0
O171 O 0.61404 0.98561 0.19227 0.0
C172 C 0.79263 0.9203 0.28975 0.0
C173 C 0.81836 0.91656 0.25094 0.0
H174 H 0.85781 0.9145 0.16936 0.0
H175 H 0.82158 0.93772 0.09935 0.0
H176 H 0.65737 0.96274 0.34817 0.0
H177 H 0.73382 0.9337 0.35749 0.0
H178 H 0.80677 0.91054 0.32122 0.0
H179 H 0.85198 0.9041 0.25313 0.0
Mn180 Mn 0.33297 0.91559 0.15624 0.0
Mn181 Mn 0.30922 0.02181 0.17888 0.0
C182 C 0.29597 0.93275 0.22035 0.0
C183 C 0.31018 0.85347 0.11716 0.0
C184 C 0.40094 0.98149 0.18937 0.0
O185 O 0.34227 0.94621 0.09842 0.0
O186 O 0.3186 0.0154 0.11343 0.0
C187 C 0.22292 0.03193 0.1332 0.0
N188 N 0.24716 0.03239 0.17127 0.0
C189 C 0.18282 0.05128 0.21442 0.0
C190 C 0.15721 0.0511 0.17566 0.0
C191 C 0.17738 0.04146 0.13488 0.0
C192 C 0.22821 0.04225 0.21061 0.0
H193 H 0.23819 0.02438 0.10177 0.0
C194 C 0.33222 0.98523 0.08662 0.0
O195 O 0.35165 0.85798 0.12838 0.0
O196 O 0.28293 0.88359 0.13062 0.0
N197 N 0.29837 0.03093 0.24069 0.0
C198 C 0.32722 0.02753 0.27524 0.0
C199 C 0.31191 0.03461 0.31856 0.0
C200 C 0.26716 0.04509 0.32592 0.0
C201 C 0.23807 0.04841 0.28985 0.0
C202 C 0.25525 0.04121 0.2474 0.0
H203 H 0.36156 0.01907 0.26983 0.0
O204 O 0.31662 0.89519 0.21641 0.0
O205 O 0.29782 0.95872 0.1861 0.0
O206 O 0.39065 0.94161 0.17964 0.0
O207 O 0.37347 0.01376 0.1885 0.0
C208 C 0.19253 0.05779 0.29445 0.0
C209 C 0.16495 0.05937 0.25675 0.0
H210 H 0.122 0.05807 0.17686 0.0
H211 H 0.15785 0.04125 0.10481 0.0
H212 H 0.33451 0.03175 0.34625 0.0
H213 H 0.25542 0.05021 0.35941 0.0
H214 H 0.1783 0.06349 0.32687 0.0
H215 H 0.12995 0.06634 0.26074 0.0
Mn216 Mn 0.65453 0.90747 0.82942 0.0
Mn217 Mn 0.6777 0.01422 0.80901 0.0
C218 C 0.69637 0.92531 0.76851 0.0
C219 C 0.67489 0.84479 0.8689 0.0
C220 C 0.58755 0.97187 0.79268 0.0
O221 O 0.63998 0.93819 0.88636 0.0
O222 O 0.66517 0.00715 0.8738 0.0
C223 C 0.76022 0.03038 0.85971 0.0
N224 N 0.7387 0.0276 0.82011 0.0
C225 C 0.80407 0.05068 0.78077 0.0
C226 C 0.82698 0.0535 0.82108 0.0
C227 C 0.8049 0.04345 0.86073 0.0
C228 C 0.75936 0.03819 0.78187 0.0
H229 H 0.74342 0.02284 0.89032 0.0
C230 C 0.64976 0.97693 0.89951 0.0
O231 O 0.63439 0.84942 0.8547 0.0
O232 O 0.70281 0.87576 0.85914 0.0
N233 N 0.69165 0.02341 0.74788 0.0
C234 C 0.66496 0.0187 0.71177 0.0
C235 C 0.68235 0.02643 0.66939 0.0
C236 C 0.72691 0.03901 0.66457 0.0
C237 C 0.75374 0.04369 0.70221 0.0
C238 C 0.73461 0.03545 0.7436 0.0
H239 H 0.63076 0.00879 0.71525 0.0
O240 O 0.67606 0.88744 0.7707 0.0
O241 O 0.69136 0.95134 0.80255 0.0
O242 O 0.59823 0.93205 0.80174 0.0
O243 O 0.61441 0.00444 0.79595 0.0
C244 C 0.79881 0.05583 0.70025 0.0
C245 C 0.8239 0.05957 0.73952 0.0
H246 H 0.86153 0.06323 0.82197 0.0
H247 H 0.82231 0.04568 0.89199 0.0
H248 H 0.66148 0.02261 0.64048 0.0
H249 H 0.74021 0.04484 0.63181 0.0
H250 H 0.81451 0.0624 0.66871 0.0
H251 H 0.85847 0.06908 0.73761 0.0
Mn252 Mn 0.33724 0.08219 0.82608 0.0
Mn253 Mn 0.30975 0.97678 0.80637 0.0
C254 C 0.29428 0.06597 0.76512 0.0
C255 C 0.32065 0.14423 0.86819 0.0
C256 C 0.40181 0.01535 0.79141 0.0
O257 O 0.35211 0.0502 0.88229 0.0
O258 O 0.3182 0.98477 0.87165 0.0
C259 C 0.22328 0.9659 0.85128 0.0
N260 N 0.24776 0.9658 0.8134 0.0
C261 C 0.18573 0.93919 0.77083 0.0
C262 C 0.15989 0.93891 0.8094 0.0
C263 C 0.1787 0.95255 0.84974 0.0
C264 C 0.22994 0.95288 0.77439 0.0
H265 H 0.23776 0.97567 0.88251 0.0
C266 C 0.33682 0.01383 0.89667 0.0
O267 O 0.36039 0.13866 0.85237 0.0
O268 O 0.29096 0.11509 0.85768 0.0
N269 N 0.29966 0.96675 0.74456 0.0
C270 C 0.32864 0.97023 0.71017 0.0
C271 C 0.31428 0.96018 0.66709 0.0
C272 C 0.27048 0.94617 0.65985 0.0
C273 C 0.24128 0.94275 0.69576 0.0
C274 C 0.25726 0.95389 0.73786 0.0
H275 H 0.36242 0.98068 0.71548 0.0
O276 O 0.31506 0.1036 0.76795 0.0
O277 O 0.29863 0.03988 0.79899 0.0
O278 O 0.39182 0.05602 0.79683 0.0
O279 O 0.37424 0.98382 0.79738 0.0
C280 C 0.19701 0.92857 0.69144 0.0
C281 C 0.16947 0.92617 0.72904 0.0
H282 H 0.12559 0.92831 0.80843 0.0
H283 H 0.159 0.95236 0.87966 0.0
H284 H 0.33701 0.96298 0.63954 0.0
H285 H 0.25961 0.93816 0.6266 0.0
H286 H 0.18387 0.91916 0.65939 0.0
H287 H 0.13581 0.91431 0.72539 0.0
Mn288 Mn 0.16035 0.65679 0.07885 0.0
Mn289 Mn 0.18305 0.67801 0.9725 0.0
C290 C 0.22251 0.69735 0.06186 0.0
C291 C 0.11887 0.67983 0.13936 0.0
C292 C 0.19585 0.58794 0.0162 0.0
O293 O 0.10391 0.64267 0.04701 0.0
O294 O 0.11746 0.66854 0.97859 0.0
C295 C 0.13639 0.76248 0.95473 0.0
N296 N 0.17499 0.73933 0.95869 0.0
C297 C 0.21792 0.80317 0.93782 0.0
C298 C 0.17868 0.82777 0.93393 0.0
C299 C 0.13773 0.80726 0.94221 0.0
C300 C 0.21447 0.75844 0.94964 0.0
H301 H 0.10479 0.74693 0.96103 0.0
C302 C 0.09114 0.65374 0.00858 0.0
O303 O 0.13245 0.63894 0.13661 0.0
O304 O 0.13103 0.70646 0.10827 0.0
N305 N 0.24503 0.68921 0.96451 0.0
C306 C 0.27984 0.66095 0.96983 0.0
C307 C 0.32322 0.67654 0.96345 0.0
C308 C 0.33037 0.72096 0.95168 0.0
C309 C 0.29405 0.74944 0.94638 0.0
C310 C 0.25157 0.73204 0.95316 0.0
H311 H 0.27459 0.62686 0.97918 0.0
O312 O 0.2191 0.67771 0.09992 0.0
O313 O 0.18902 0.69208 0.0352 0.0
O314 O 0.18746 0.59961 0.0559 0.0
O315 O 0.19307 0.61421 0.98315 0.0
C316 C 0.29837 0.79452 0.93504 0.0
C317 C 0.26032 0.82131 0.93056 0.0
H318 H 0.17961 0.86242 0.92464 0.0
H319 H 0.10728 0.82596 0.9391 0.0
H320 H 0.3511 0.65439 0.96774 0.0
H321 H 0.3639 0.73288 0.94694 0.0
H322 H 0.33081 0.80891 0.92967 0.0
H323 H 0.26406 0.85587 0.92167 0.0
Mn324 Mn 0.16839 0.32993 0.91553 0.0
Mn325 Mn 0.1932 0.30889 0.02165 0.0
C326 C 0.23388 0.29468 0.93201 0.0
C327 C 0.1283 0.30637 0.85428 0.0
C328 C 0.19982 0.40017 0.97969 0.0
O329 O 0.11092 0.3384 0.94731 0.0
O330 O 0.12723 0.31509 0.01625 0.0
C331 C 0.15167 0.22088 0.03417 0.0
N332 N 0.18856 0.24693 0.03392 0.0
C333 C 0.23444 0.18605 0.05717 0.0
C334 C 0.19695 0.15859 0.05777 0.0
C335 C 0.15539 0.17609 0.04616 0.0
C336 C 0.22867 0.23046 0.04513 0.0
H337 H 0.11962 0.23418 0.02537 0.0
C338 C 0.09982 0.32774 0.98632 0.0
O339 O 0.1391 0.34792 0.85873 0.0
O340 O 0.14287 0.27917 0.88392 0.0
N341 N 0.25559 0.30116 0.03021 0.0
C342 C 0.28879 0.33142 0.02573 0.0
C343 C 0.33271 0.31873 0.03447 0.0
C344 C 0.34198 0.2752 0.04799 0.0
C345 C 0.30726 0.24464 0.05235 0.0
C346 C 0.26419 0.25911 0.04294 0.0
H347 H 0.28186 0.36493 0.01541 0.0
O348 O 0.22861 0.31464 0.89429 0.0
O349 O 0.19998 0.29605 0.95861 0.0
O350 O 0.19087 0.38848 0.94009 0.0
O351 O 0.19974 0.3733 0.01232 0.0
C352 C 0.31373 0.20032 0.06538 0.0
C353 C 0.27735 0.17103 0.06778 0.0
H354 H 0.1997 0.12401 0.06693 0.0
H355 H 0.12629 0.15512 0.04653 0.0
H356 H 0.35934 0.34246 0.03087 0.0
H357 H 0.3759 0.26555 0.05473 0.0
H358 H 0.34661 0.18837 0.07341 0.0
H359 H 0.28277 0.13694 0.07755 0.0
Mn360 Mn 0.83232 0.65328 0.90308 0.0
Mn361 Mn 0.80867 0.67684 0.00888 0.0
C362 C 0.76808 0.69114 0.91952 0.0
C363 C 0.8721 0.67448 0.84138 0.0
C364 C 0.7996 0.58504 0.96798 0.0
O365 O 0.88994 0.64308 0.93478 0.0
O366 O 0.87429 0.66918 0.00282 0.0
C367 C 0.85204 0.76408 0.02082 0.0
N368 N 0.81461 0.73883 0.02066 0.0
C369 C 0.76996 0.80105 0.043 0.0
C370 C 0.80803 0.82771 0.04339 0.0
C371 C 0.84924 0.80912 0.03228 0.0
C372 C 0.77485 0.75628 0.03173 0.0
H373 H 0.88382 0.74995 0.01236 0.0
C374 C 0.90151 0.65451 0.97357 0.0
O375 O 0.86008 0.63336 0.84628 0.0
O376 O 0.85943 0.70261 0.87117 0.0
N377 N 0.74649 0.6859 0.01764 0.0
C378 C 0.71265 0.65632 0.01327 0.0
C379 C 0.66899 0.67007 0.02165 0.0
C380 C 0.66061 0.71401 0.03457 0.0
C381 C 0.69597 0.74389 0.03874 0.0
C382 C 0.73876 0.72832 0.02988 0.0
H383 H 0.71886 0.62257 0.00317 0.0
O384 O 0.77238 0.67072 0.88187 0.0
O385 O 0.80208 0.68882 0.94589 0.0
O386 O 0.80798 0.59582 0.92809 0.0
O387 O 0.80088 0.61245 0.00025 0.0
C388 C 0.69034 0.78863 0.05084 0.0
C389 C 0.72729 0.81723 0.05295 0.0
H390 H 0.80597 0.86251 0.05201 0.0
H391 H 0.87879 0.82947 0.03255 0.0
H392 H 0.64186 0.64688 0.01812 0.0
H393 H 0.62687 0.72452 0.04091 0.0
H394 H 0.65768 0.80138 0.05843 0.0
H395 H 0.72248 0.85167 0.06193 0.0
Mn396 Mn 0.83939 0.33643 0.08261 0.0
Mn397 Mn 0.81732 0.30602 0.97829 0.0
C398 C 0.77598 0.29671 0.06784 0.0
C399 C 0.87896 0.31869 0.14558 0.0
C400 C 0.80617 0.39992 0.01356 0.0
O401 O 0.89702 0.34603 0.05084 0.0
O402 O 0.88291 0.31393 0.98512 0.0
C403 C 0.86072 0.21807 0.97359 0.0
N404 N 0.82337 0.24332 0.97097 0.0
C405 C 0.77872 0.17927 0.95439 0.0
C406 C 0.81678 0.1527 0.95651 0.0
C407 C 0.85795 0.17221 0.96613 0.0
C408 C 0.78364 0.22493 0.96131 0.0
H409 H 0.89237 0.23275 0.98152 0.0
C410 C 0.90961 0.33098 0.01363 0.0
O411 O 0.86646 0.35941 0.13878 0.0
O412 O 0.86705 0.28917 0.11688 0.0
N413 N 0.7552 0.29621 0.96937 0.0
C414 C 0.72127 0.32595 0.97132 0.0
C415 C 0.67759 0.31138 0.96453 0.0
C416 C 0.6692 0.26642 0.95583 0.0
C417 C 0.70461 0.23639 0.954 0.0
C418 C 0.74749 0.25288 0.9608 0.0
H419 H 0.72742 0.36049 0.97835 0.0
O420 O 0.77963 0.31907 0.10442 0.0
O421 O 0.8101 0.29828 0.04171 0.0
O422 O 0.81396 0.39164 0.05418 0.0
O423 O 0.80916 0.37097 0.98269 0.0
C424 C 0.69894 0.19062 0.94657 0.0
C425 C 0.73598 0.1621 0.94661 0.0
H426 H 0.8147 0.11724 0.95125 0.0
H427 H 0.88745 0.1519 0.96806 0.0
H428 H 0.6504 0.33471 0.96624 0.0
H429 H 0.63542 0.25527 0.95096 0.0
H430 H 0.66617 0.17694 0.94122 0.0
H431 H 0.73114 0.12692 0.94125 0.0
C432 C 0.94858 0.19765 0.48419 0.0
C433 C 0.98203 0.20527 0.45272 0.0
C434 C 0.95808 0.19757 0.5294 0.0
C435 C 0.00143 0.20498 0.54498 0.0
H436 H 0.91516 0.18938 0.47397 0.0
H437 H 0.93156 0.18918 0.55203 0.0
S438 S 0.09895 0.23585 0.47695 0.0
N439 N 0.05886 0.22732 0.44072 0.0
N440 N 0.07665 0.22682 0.52597 0.0
C441 C 0.03441 0.21636 0.51421 0.0
C442 C 0.02472 0.21662 0.46804 0.0
C443 C 0.04413 0.80317 0.48098 0.0
C444 C 0.01176 0.79156 0.44946 0.0
C445 C 0.03411 0.80437 0.52608 0.0
C446 C 0.99132 0.79409 0.54141 0.0
H447 H 0.07685 0.81379 0.47075 0.0
H448 H 0.05954 0.8157 0.54877 0.0
S449 S 0.89739 0.7528 0.47353 0.0
N450 N 0.9371 0.76304 0.43744 0.0
N451 N 0.91831 0.76557 0.52241 0.0
C452 C 0.9597 0.77896 0.51072 0.0
C453 C 0.96993 0.77755 0.46472 0.0
C454 C 0.46394 0.03474 0.18976 0.0
C455 C 0.44789 0.99188 0.19843 0.0
C456 C 0.50928 0.044 0.19107 0.0
C457 C 0.54036 0.01077 0.20124 0.0
H458 H 0.44163 0.0609 0.17945 0.0
H459 H 0.52 0.07691 0.18166 0.0
S460 S 0.5143 0.89552 0.23581 0.0
N461 N 0.46569 0.91765 0.22404 0.0
N462 N 0.55111 0.93497 0.22697 0.0
C463 C 0.52436 0.96874 0.21385 0.0
C464 C 0.4781 0.95929 0.21224 0.0
C465 C 0.52621 0.02649 0.78426 0.0
C466 C 0.54059 0.98212 0.78279 0.0
C467 C 0.48119 0.0371 0.78407 0.0
C468 C 0.44863 0.00382 0.78224 0.0
H469 H 0.54968 0.05338 0.78815 0.0
H470 H 0.47206 0.07162 0.78781 0.0
S471 S 0.46899 0.8832 0.76744 0.0
N472 N 0.51888 0.90516 0.77195 0.0
N473 N 0.43403 0.92508 0.77122 0.0
C474 C 0.46256 0.95961 0.77627 0.0
C475 C 0.50858 0.94877 0.77665 0.0
C476 C 0.19962 0.47893 0.95485 0.0
C477 C 0.20678 0.44792 0.98881 0.0
C478 C 0.19874 0.52431 0.96371 0.0
C479 C 0.20486 0.54066 0.00693 0.0
H480 H 0.19256 0.46819 0.92134 0.0
H481 H 0.19091 0.54648 0.93665 0.0
S482 S 0.2335 0.47418 0.10614 0.0
N483 N 0.22658 0.43727 0.06636 0.0
N484 N 0.22463 0.52284 0.08294 0.0
C485 C 0.21556 0.51039 0.04062 0.0
C486 C 0.21663 0.464 0.03157 0.0
C487 C 0.80454 0.50533 0.94659 0.0
C488 C 0.79282 0.5376 0.97817 0.0
C489 C 0.8064 0.46048 0.95774 0.0
C490 C 0.79672 0.44617 0.00092 0.0
H491 H 0.81467 0.51481 0.91355 0.0
H492 H 0.81784 0.43726 0.93286 0.0
S493 S 0.75543 0.51605 0.0933 0.0
N494 N 0.76487 0.55124 0.05265 0.0
N495 N 0.76861 0.46676 0.07356 0.0
C496 C 0.78146 0.47753 0.03182 0.0
C497 C 0.77941 0.52327 0.02045 0.0
C498 C 0.17546 0.07371 0.7348 0.0
C499 C 0.17753 0.09532 0.69362 0.0
C500 C 0.21377 0.05849 0.75568 0.0
C501 C 0.25545 0.06397 0.73595 0.0
H502 H 0.14446 0.07154 0.75274 0.0
H503 H 0.21103 0.04681 0.78943 0.0
S504 S 0.27803 0.11008 0.62479 0.0
N505 N 0.22383 0.11514 0.63082 0.0
N506 N 0.29626 0.08636 0.67056 0.0
C507 C 0.25753 0.081 0.69281 0.0
C508 C 0.21836 0.09658 0.67137 0.0
C509 C 0.73418 0.9127 0.69653 0.0
C510 C 0.73626 0.92695 0.74086 0.0
C511 C 0.7725 0.89858 0.67417 0.0
C512 C 0.81371 0.8981 0.69587 0.0
H513 H 0.70233 0.90915 0.68029 0.0
H514 H 0.76919 0.88466 0.64126 0.0
S515 S 0.83713 0.93617 0.81047 0.0
N516 N 0.78303 0.9413 0.80473 0.0
N517 N 0.85521 0.9189 0.76196 0.0
C518 C 0.81665 0.91656 0.73864 0.0
C519 C 0.77778 0.92982 0.7615 0.0
C520 C 0.21583 0.93865 0.23229 0.0
C521 C 0.2582 0.93385 0.25076 0.0
C522 C 0.1784 0.92346 0.25453 0.0
C523 C 0.18212 0.90194 0.29562 0.0
H524 H 0.21179 0.95005 0.19856 0.0
H525 H 0.14675 0.92554 0.23769 0.0
S526 S 0.28508 0.88811 0.36114 0.0
N527 N 0.3015 0.91194 0.31478 0.0
N528 N 0.23074 0.88253 0.35689 0.0
C529 C 0.22372 0.90099 0.31652 0.0
C530 C 0.26197 0.91691 0.29381 0.0
C531 C 0.73255 0.0779 0.29397 0.0
C532 C 0.73611 0.06039 0.25087 0.0
C533 C 0.76989 0.09453 0.31635 0.0
C534 C 0.81174 0.09422 0.29601 0.0
H535 H 0.70016 0.0825 0.30875 0.0
H536 H 0.76526 0.11103 0.34788 0.0
S537 S 0.83975 0.04591 0.1865 0.0
N538 N 0.78552 0.04057 0.1906 0.0
N539 N 0.85583 0.06818 0.23373 0.0
C540 C 0.8164 0.07207 0.25522 0.0
C541 C 0.77848 0.05603 0.23227 0.0
C542 C 0.74204 0.1788 0.0779 0.0
C543 C 0.69968 0.18222 0.09699 0.0
C544 C 0.76502 0.21633 0.06424 0.0
C545 C 0.74603 0.25854 0.06783 0.0
H546 H 0.75908 0.14723 0.0763 0.0
H547 H 0.79931 0.21245 0.05441 0.0
S548 S 0.63332 0.28496 0.10833 0.0
N549 N 0.63739 0.23063 0.11381 0.0
N550 N 0.68089 0.30162 0.087 0.0
C551 C 0.70223 0.2622 0.08297 0.0
C552 C 0.67876 0.22381 0.09746 0.0
C553 C 0.29384 0.73622 0.07567 0.0
C554 C 0.24963 0.73766 0.06089 0.0
C555 C 0.31537 0.77479 0.09052 0.0
C556 C 0.29293 0.81559 0.09135 0.0
H557 H 0.3106 0.70465 0.07898 0.0
H558 H 0.34828 0.77194 0.10461 0.0
S559 S 0.17821 0.83727 0.05237 0.0
N560 N 0.18508 0.78341 0.04634 0.0
N561 N 0.22617 0.85602 0.07064 0.0
C562 C 0.25022 0.81793 0.07261 0.0
C563 C 0.22827 0.77882 0.05838 0.0
C564 C 0.75463 0.77093 0.92865 0.0
C565 C 0.73703 0.72857 0.92125 0.0
C566 C 0.73166 0.80875 0.91554 0.0
C567 C 0.69078 0.80557 0.89329 0.0
H568 H 0.78822 0.77497 0.94061 0.0
H569 H 0.7479 0.84052 0.91971 0.0
S570 S 0.62747 0.70241 0.87244 0.0
N571 N 0.67395 0.68549 0.89593 0.0
N572 N 0.63071 0.75702 0.8701 0.0
C573 C 0.67077 0.76371 0.88952 0.0
C574 C 0.69416 0.72501 0.90347 0.0
C575 C 0.26949 0.17783 0.92253 0.0
C576 C 0.30791 0.18195 0.89651 0.0
C577 C 0.24842 0.21507 0.93997 0.0
C578 C 0.26548 0.25768 0.93274 0.0
H579 H 0.25333 0.14599 0.92629 0.0
H580 H 0.21593 0.21062 0.95446 0.0
S581 S 0.37064 0.28535 0.87603 0.0
N582 N 0.36643 0.23097 0.87095 0.0
N583 N 0.32678 0.3014 0.90459 0.0
C584 C 0.30686 0.26171 0.91183 0.0
C585 C 0.32828 0.22364 0.89362 0.0
C586 C 0.07966 0.7 0.25646 0.0
C587 C 0.06347 0.74363 0.25349 0.0
C588 C 0.09396 0.67706 0.21854 0.0
C589 C 0.09265 0.69741 0.17676 0.0
H590 H 0.0847 0.68497 0.28861 0.0
H591 H 0.10946 0.64494 0.22252 0.0
S592 S 0.04868 0.80925 0.1509 0.0
N593 N 0.04502 0.80511 0.20517 0.0
N594 N 0.06786 0.76102 0.13389 0.0
C595 C 0.07211 0.73914 0.173 0.0
C596 C 0.05862 0.76265 0.21147 0.0
C597 C 0.07795 0.29383 0.73993 0.0
C598 C 0.06171 0.25017 0.74116 0.0
C599 C 0.09673 0.31355 0.77772 0.0
C600 C 0.10066 0.28964 0.81743 0.0
H601 H 0.07932 0.31149 0.70877 0.0
H602 H 0.11119 0.34626 0.77482 0.0
S603 S 0.05886 0.17583 0.83867 0.0
N604 N 0.0474 0.1852 0.78617 0.0
N605 N 0.08217 0.22179 0.8569 0.0
C606 C 0.08114 0.24733 0.81986 0.0
C607 C 0.06166 0.22769 0.78174 0.0
C608 C 0.91998 0.73151 0.80812 0.0
C609 C 0.89835 0.69048 0.80364 0.0
C610 C 0.93501 0.75446 0.77119 0.0
C611 C 0.93027 0.73666 0.72857 0.0
H612 H 0.92212 0.74786 0.84002 0.0
H613 H 0.94611 0.78825 0.77586 0.0
S614 S 0.88404 0.6267 0.69974 0.0
N615 N 0.87854 0.63003 0.75408 0.0
N616 N 0.9081 0.67332 0.68415 0.0
C617 C 0.91323 0.69361 0.724 0.0
C618 C 0.89726 0.67024 0.76178 0.0
C619 C 0.93901 0.24054 0.21957 0.0
C620 C 0.93074 0.2581 0.26171 0.0
C621 C 0.92683 0.26358 0.18166 0.0
C622 C 0.90424 0.30423 0.18458 0.0
H623 H 0.95058 0.20681 0.21568 0.0
H624 H 0.9314 0.24731 0.14997 0.0
S625 S 0.8814 0.36754 0.28714 0.0
N626 N 0.90479 0.32117 0.30444 0.0
N627 N 0.88005 0.36431 0.23253 0.0
C628 C 0.89986 0.32439 0.22622 0.0
C629 C 0.91316 0.30106 0.26506 0.0
C630 C 0.96658 0.02493 0.6334 0.0
C631 C -0.00223 0.04538 0.66085 0.0
C632 C 0.96291 0.97869 0.63246 0.0
C633 C 0.99024 0.95145 0.6591 0.0
H634 H 0.94562 0.04465 0.61197 0.0
H635 H 0.93834 0.96423 0.61061 0.0
S636 S 0.07493 0.99111 0.73903 0.0
N637 N 0.05501 0.03665 0.71647 0.0
N638 N 0.04838 0.94966 0.71504 0.0
C639 C 0.02135 0.9721 0.68698 0.0
C640 C 0.02493 0.01912 0.68784 0.0
C641 C 0.02959 0.02821 0.34018 0.0
C642 C 0.98632 0.04506 0.33858 0.0
C643 C 0.03722 0.98249 0.34059 0.0
C644 C 0.00188 0.95179 0.33886 0.0
H645 H 0.05779 0.05043 0.34117 0.0
H646 H 0.07132 0.97126 0.34138 0.0
S647 S 0.8822 0.97914 0.33314 0.0
N648 N 0.90745 0.02753 0.33445 0.0
N649 N 0.92202 0.94175 0.33525 0.0
C650 C 0.95843 0.96824 0.33712 0.0
C651 C 0.95061 0.01478 0.337 0.0
C652 C 0.65508 0.02825 0.96449 0.0
C653 C 0.6466 0.98561 0.94779 0.0
C654 C 0.65618 0.03629 0.01008 0.0
C655 C 0.64931 0.00194 0.04089 0.0
H656 H 0.66169 0.05562 0.9423 0.0
H657 H 0.6637 0.06962 0.02119 0.0
S658 S 0.62327 0.88482 0.01494 0.0
N659 N 0.62911 0.9087 0.96626 0.0
N660 N 0.6318 0.92428 0.05183 0.0
C661 C 0.63993 0.95938 0.02489 0.0
C662 C 0.63831 0.95113 0.97843 0.0
C663 C 0.32559 0.95901 0.00883 0.0
C664 C 0.33395 0.99402 0.03868 0.0
C665 C 0.32715 0.96546 0.96306 0.0
C666 C 0.33766 0.00708 0.94526 0.0
H667 H 0.31712 0.9263 0.0209 0.0
H668 H 0.3199 0.93759 0.94158 0.0
S669 S 0.36347 0.10935 0.00958 0.0
N670 N 0.35362 0.07143 0.0476 0.0
N671 N 0.357 0.08409 0.96156 0.0
C672 C 0.34648 0.0424 0.97493 0.0
C673 C 0.34438 0.03579 0.0216 0.0
C674 C 0.98049 0.6539 0.94866 0.0
C675 C 0.94949 0.65295 0.98364 0.0
C676 C 0.02619 0.65384 0.95679 0.0
C677 C 0.04273 0.65225 0.00019 0.0
H678 H 0.96946 0.65553 0.91456 0.0
H679 H 0.04863 0.65509 0.92884 0.0
S680 S 0.97549 0.64923 0.10346 0.0
N681 N 0.93856 0.65029 0.0632 0.0
N682 N 0.02421 0.6501 0.07886 0.0
C683 C 0.012 0.65105 0.03552 0.0
C684 C 0.9655 0.65148 0.02717 0.0
C685 C 0.03346 0.34738 0.0317 0.0
C686 C 0.05195 0.3263 0.99482 0.0
C687 C 0.98734 0.34959 0.03683 0.0
C688 C 0.95815 0.33038 0.00544 0.0
H689 H 0.05465 0.36317 0.05605 0.0
H690 H 0.97461 0.36651 0.0658 0.0
S691 S 0.9919 0.26747 0.90533 0.0
N692 N 0.03893 0.28351 0.92805 0.0
N693 N 0.95236 0.28731 0.93742 0.0
C694 C 0.97679 0.30829 0.96892 0.0
C695 C 0.02364 0.30626 0.96377 0.0
loop_
_geom_bond_atom_site_label_1
_geom_bond_atom_site_label_2
_geom_bond_distance
_geom_bond_site_symmetry_2
_ccdc_geom_bond_type
Mn0 O5 2.095 . S
Mn0 O15 2.162 . S
Mn0 O16 2.297 . S
Mn0 O24 2.385 . S
Mn0 O25 2.209 . S
Mn0 O26 2.094 . S
Mn1 O6 2.121 . S
Mn1 N8 2.257 . S
Mn1 N17 2.282 . S
Mn1 O25 2.215 1_655 S
Mn1 O27 2.117 1_655 S
C2 O24 1.234 . S
C2 O25 1.283 . S
C3 O15 1.281 . S
C3 O16 1.236 . S
C4 O26 1.240 . S
C4 O27 1.264 . S
O5 Mn0 2.095 . S
O5 C14 1.250 . S
O6 Mn1 2.121 . S
O6 C14 1.258 1_655 S
C7 N8 1.326 . S
C7 C11 1.460 . S
C7 H13 0.929 . S
N8 Mn1 2.257 . S
N8 C7 1.326 . S
N8 C12 1.362 . S
C9 C10 1.258 . S
C9 C12 1.431 . S
C9 C29 1.449 . S
C10 C9 1.258 . S
C10 C11 1.477 . S
C10 H30 0.931 . S
C11 C7 1.460 . S
C11 C10 1.477 . S
C11 H31 0.930 . S
C12 N8 1.362 . S
C12 C9 1.431 . S
C12 C22 1.476 . S
H13 C7 0.929 . S
C14 O5 1.250 . S
C14 O6 1.258 1_455 S
O15 Mn0 2.162 . S
O15 C3 1.281 . S
O16 Mn0 2.297 . S
O16 C3 1.236 . S
N17 Mn1 2.282 . S
N17 C18 1.328 . S
N17 C22 1.318 . S
C18 N17 1.328 . S
C18 C19 1.457 . S
C18 H23 0.929 1_655 S
C19 C18 1.457 . S
C19 C20 1.291 . S
C19 H32 0.931 . S
C20 C19 1.291 . S
C20 C21 1.373 . S
C20 H33 0.929 . S
C21 C20 1.373 . S
C21 C22 1.396 . S
C21 C28 1.403 . S
C22 C12 1.476 . S
C22 N17 1.318 . S
C22 C21 1.396 . S
H23 C18 0.929 1_455 S
O24 Mn0 2.385 . S
O24 C2 1.234 . S
O25 Mn0 2.209 . S
O25 Mn1 2.215 1_455 S
O25 C2 1.283 . S
O26 Mn0 2.094 . S
O26 C4 1.240 . S
O27 Mn1 2.117 1_455 S
O27 C4 1.264 . S
C28 C21 1.403 . S
C28 C29 1.399 . S
C28 H34 0.929 . S
C29 C9 1.449 . S
C29 C28 1.399 . S
C29 H35 0.930 . S
H30 C10 0.931 . S
H31 C11 0.930 . S
H32 C19 0.931 . S
H33 C20 0.929 . S
H34 C28 0.929 . S
H35 C29 0.930 . S
Mn36 O41 2.095 . S
Mn36 O51 2.162 . S
Mn36 O52 2.297 . S
Mn36 O60 2.385 . S
Mn36 O61 2.209 . S
Mn36 O62 2.094 . S
Mn37 O42 2.121 . S
Mn37 N44 2.257 . S
Mn37 N53 2.282 . S
Mn37 O61 2.215 1_455 S
Mn37 O63 2.117 1_455 S
C38 O60 1.234 . S
C38 O61 1.283 . S
C39 O51 1.281 . S
C39 O52 1.236 . S
C40 O62 1.240 . S
C40 O63 1.264 . S
O41 Mn36 2.095 . S
O41 C50 1.250 . S
O42 Mn37 2.121 . S
O42 C50 1.258 1_455 S
C43 N44 1.326 . S
C43 C47 1.460 . S
C43 H49 0.929 . S
N44 Mn37 2.257 . S
N44 C43 1.326 . S
N44 C48 1.362 . S
C45 C46 1.258 . S
C45 C48 1.431 . S
C45 C65 1.449 . S
C46 C45 1.258 . S
C46 C47 1.477 . S
C46 H66 0.931 . S
C47 C43 1.460 . S
C47 C46 1.477 . S
C47 H67 0.930 . S
C48 N44 1.362 . S
C48 C45 1.431 . S
C48 C58 1.476 . S
H49 C43 0.929 . S
C50 O41 1.250 . S
C50 O42 1.258 1_655 S
O51 Mn36 2.162 . S
O51 C39 1.281 . S
O52 Mn36 2.297 . S
O52 C39 1.236 . S
N53 Mn37 2.282 . S
N53 C54 1.328 . S
N53 C58 1.318 . S
C54 N53 1.328 . S
C54 C55 1.457 . S
C54 H59 0.929 1_455 S
C55 C54 1.457 . S
C55 C56 1.291 . S
C55 H68 0.931 . S
C56 C55 1.291 . S
C56 C57 1.373 . S
C56 H69 0.929 . S
C57 C56 1.373 . S
C57 C58 1.396 . S
C57 C64 1.403 . S
C58 C48 1.476 . S
C58 N53 1.318 . S
C58 C57 1.396 . S
H59 C54 0.929 1_655 S
O60 Mn36 2.385 . S
O60 C38 1.234 . S
O61 Mn36 2.209 . S
O61 Mn37 2.215 1_655 S
O61 C38 1.283 . S
O62 Mn36 2.094 . S
O62 C40 1.240 . S
O63 Mn37 2.117 1_655 S
O63 C40 1.264 . S
C64 C57 1.403 . S
C64 C65 1.399 . S
C64 H70 0.929 . S
C65 C45 1.449 . S
C65 C64 1.399 . S
C65 H71 0.930 . S
H66 C46 0.931 . S
H67 C47 0.930 . S
H68 C55 0.931 . S
H69 C56 0.929 . S
H70 C64 0.929 . S
H71 C65 0.930 . S
Mn72 O77 2.095 . S
Mn72 O87 2.162 . S
Mn72 O88 2.297 . S
Mn72 O96 2.385 . S
Mn72 O97 2.209 . S
Mn72 O98 2.094 . S
Mn73 O78 2.121 . S
Mn73 N80 2.257 . S
Mn73 N89 2.282 . S
Mn73 O97 2.215 1_655 S
Mn73 O99 2.117 1_655 S
C74 O96 1.234 . S
C74 O97 1.283 . S
C75 O87 1.281 . S
C75 O88 1.236 . S
C76 O98 1.240 . S
C76 O99 1.264 . S
O77 Mn72 2.095 . S
O77 C86 1.250 . S
O78 Mn73 2.121 . S
O78 C86 1.258 1_655 S
C79 N80 1.326 . S
C79 C83 1.460 . S
C79 H85 0.929 . S
N80 Mn73 2.257 . S
N80 C79 1.326 . S
N80 C84 1.362 . S
C81 C82 1.258 . S
C81 C84 1.431 . S
C81 C101 1.449 . S
C82 C81 1.258 . S
C82 C83 1.477 . S
C82 H102 0.931 . S
C83 C79 1.460 . S
C83 C82 1.477 . S
C83 H103 0.930 . S
C84 N80 1.362 . S
C84 C81 1.431 . S
C84 C94 1.476 . S
H85 C79 0.929 . S
C86 O77 1.250 . S
C86 O78 1.258 1_455 S
O87 Mn72 2.162 . S
O87 C75 1.281 . S
O88 Mn72 2.297 . S
O88 C75 1.236 . S
N89 Mn73 2.282 . S
N89 C90 1.328 . S
N89 C94 1.318 . S
C90 N89 1.328 . S
C90 C91 1.457 . S
C90 H95 0.929 1_655 S
C91 C90 1.457 . S
C91 C92 1.291 . S
C91 H104 0.931 . S
C92 C91 1.291 . S
C92 C93 1.373 . S
C92 H105 0.929 . S
C93 C92 1.373 . S
C93 C94 1.396 . S
C93 C100 1.403 . S
C94 C84 1.476 . S
C94 N89 1.318 . S
C94 C93 1.396 . S
H95 C90 0.929 1_455 S
O96 Mn72 2.385 . S
O96 C74 1.234 . S
O97 Mn72 2.209 . S
O97 Mn73 2.215 1_455 S
O97 C74 1.283 . S
O98 Mn72 2.094 . S
O98 C76 1.240 . S
O99 Mn73 2.117 1_455 S
O99 C76 1.264 . S
C100 C93 1.403 . S
C100 C101 1.399 . S
C100 H106 0.929 . S
C101 C81 1.449 . S
C101 C100 1.399 . S
C101 H107 0.930 . S
H102 C82 0.931 . S
H103 C83 0.930 . S
H104 C91 0.931 . S
H105 C92 0.929 . S
H106 C100 0.929 . S
H107 C101 0.930 . S
Mn108 O113 2.095 . S
Mn108 O123 2.162 . S
Mn108 O124 2.297 . S
Mn108 O132 2.385 . S
Mn108 O133 2.209 . S
Mn108 O134 2.094 . S
Mn109 O114 2.121 . S
Mn109 N116 2.257 . S
Mn109 N125 2.282 . S
Mn109 O133 2.215 1_455 S
Mn109 O135 2.117 1_455 S
C110 O132 1.234 . S
C110 O133 1.283 . S
C111 O123 1.281 . S
C111 O124 1.236 . S
C112 O134 1.240 . S
C112 O135 1.264 . S
O113 Mn108 2.095 . S
O113 C122 1.250 . S
O114 Mn109 2.121 . S
O114 C122 1.258 1_455 S
C115 N116 1.326 . S
C115 C119 1.460 . S
C115 H121 0.929 . S
N116 Mn109 2.257 . S
N116 C115 1.326 . S
N116 C120 1.362 . S
C117 C118 1.258 . S
C117 C120 1.431 . S
C117 C137 1.449 . S
C118 C117 1.258 . S
C118 C119 1.477 . S
C118 H138 0.931 . S
C119 C115 1.460 . S
C119 C118 1.477 . S
C119 H139 0.930 . S
C120 N116 1.362 . S
C120 C117 1.431 . S
C120 C130 1.476 . S
H121 C115 0.929 . S
C122 O113 1.250 . S
C122 O114 1.258 1_655 S
O123 Mn108 2.162 . S
O123 C111 1.281 . S
O124 Mn108 2.297 . S
O124 C111 1.236 . S
N125 Mn109 2.282 . S
N125 C126 1.328 . S
N125 C130 1.318 . S
C126 N125 1.328 . S
C126 C127 1.457 . S
C126 H131 0.929 1_455 S
C127 C126 1.457 . S
C127 C128 1.291 . S
C127 H140 0.931 . S
C128 C127 1.291 . S
C128 C129 1.373 . S
C128 H141 0.929 . S
C129 C128 1.373 . S
C129 C130 1.396 . S
C129 C136 1.403 . S
C130 C120 1.476 . S
C130 N125 1.318 . S
C130 C129 1.396 . S
H131 C126 0.929 1_655 S
O132 Mn108 2.385 . S
O132 C110 1.234 . S
O133 Mn108 2.209 . S
O133 Mn109 2.215 1_655 S
O133 C110 1.283 . S
O134 Mn108 2.094 . S
O134 C112 1.240 . S
O135 Mn109 2.117 1_655 S
O135 C112 1.264 . S
C136 C129 1.403 . S
C136 C137 1.399 . S
C136 H142 0.929 . S
C137 C117 1.449 . S
C137 C136 1.399 . S
C137 H143 0.930 . S
H138 C118 0.931 . S
H139 C119 0.930 . S
H140 C127 0.931 . S
H141 C128 0.929 . S
H142 C136 0.929 . S
H143 C137 0.930 . S
Mn144 O149 2.095 . S
Mn144 O159 2.162 . S
Mn144 O160 2.297 . S
Mn144 O168 2.385 . S
Mn144 O169 2.209 . S
Mn144 O170 2.094 . S
Mn145 O150 2.121 . S
Mn145 N152 2.257 . S
Mn145 N161 2.282 . S
Mn145 O169 2.215 1_565 S
Mn145 O171 2.117 1_565 S
C146 O168 1.234 . S
C146 O169 1.283 . S
C147 O159 1.281 . S
C147 O160 1.236 . S
C148 O170 1.240 . S
C148 O171 1.264 . S
O149 Mn144 2.095 . S
O149 C158 1.250 . S
O150 Mn145 2.121 . S
O150 C158 1.258 1_565 S
C151 N152 1.326 . S
C151 C155 1.460 . S
C151 H157 0.929 . S
N152 Mn145 2.257 . S
N152 C151 1.326 . S
N152 C156 1.362 . S
C153 C154 1.258 . S
C153 C156 1.431 . S
C153 C173 1.449 . S
C154 C153 1.258 . S
C154 C155 1.477 . S
C154 H174 0.931 . S
C155 C151 1.460 . S
C155 C154 1.477 . S
C155 H175 0.930 . S
C156 N152 1.362 . S
C156 C153 1.431 . S
C156 C166 1.476 . S
H157 C151 0.929 . S
C158 O149 1.250 . S
C158 O150 1.258 1_545 S
O159 Mn144 2.162 . S
O159 C147 1.281 . S
O160 Mn144 2.297 . S
O160 C147 1.236 . S
N161 Mn145 2.282 . S
N161 C162 1.328 . S
N161 C166 1.318 . S
C162 N161 1.328 . S
C162 C163 1.457 . S
C162 H167 0.929 1_565 S
C163 C162 1.457 . S
C163 C164 1.291 . S
C163 H176 0.931 . S
C164 C163 1.291 . S
C164 C165 1.373 . S
C164 H177 0.929 . S
C165 C164 1.373 . S
C165 C166 1.396 . S
C165 C172 1.403 . S
C166 C156 1.476 . S
C166 N161 1.318 . S
C166 C165 1.396 . S
H167 C162 0.929 1_545 S
O168 Mn144 2.385 . S
O168 C146 1.234 . S
O169 Mn144 2.209 . S
O169 Mn145 2.215 1_545 S
O169 C146 1.283 . S
O170 Mn144 2.094 . S
O170 C148 1.240 . S
O171 Mn145 2.117 1_545 S
O171 C148 1.264 . S
C172 C165 1.403 . S
C172 C173 1.399 . S
C172 H178 0.929 . S
C173 C153 1.449 . S
C173 C172 1.399 . S
C173 H179 0.930 . S
H174 C154 0.931 . S
H175 C155 0.930 . S
H176 C163 0.931 . S
H177 C164 0.929 . S
H178 C172 0.929 . S
H179 C173 0.930 . S
Mn180 O185 2.095 . S
Mn180 O195 2.162 . S
Mn180 O196 2.297 . S
Mn180 O204 2.385 . S
Mn180 O205 2.209 . S
Mn180 O206 2.094 . S
Mn181 O186 2.121 . S
Mn181 N188 2.257 . S
Mn181 N197 2.282 . S
Mn181 O205 2.215 1_545 S
Mn181 O207 2.117 1_545 S
C182 O204 1.234 . S
C182 O205 1.283 . S
C183 O195 1.281 . S
C183 O196 1.236 . S
C184 O206 1.240 . S
C184 O207 1.264 . S
O185 Mn180 2.095 . S
O185 C194 1.250 . S
O186 Mn181 2.121 . S
O186 C194 1.258 1_545 S
C187 N188 1.326 . S
C187 C191 1.460 . S
C187 H193 0.929 . S
N188 Mn181 2.257 . S
N188 C187 1.326 . S
N188 C192 1.362 . S
C189 C190 1.258 . S
C189 C192 1.431 . S
C189 C209 1.449 . S
C190 C189 1.258 . S
C190 C191 1.477 . S
C190 H210 0.931 . S
C191 C187 1.460 . S
C191 C190 1.477 . S
C191 H211 0.930 . S
C192 N188 1.362 . S
C192 C189 1.431 . S
C192 C202 1.476 . S
H193 C187 0.929 . S
C194 O185 1.250 . S
C194 O186 1.258 1_565 S
O195 Mn180 2.162 . S
O195 C183 1.281 . S
O196 Mn180 2.297 . S
O196 C183 1.236 . S
N197 Mn181 2.282 . S
N197 C198 1.328 . S
N197 C202 1.318 . S
C198 N197 1.328 . S
C198 C199 1.457 . S
C198 H203 0.929 1_545 S
C199 C198 1.457 . S
C199 C200 1.291 . S
C199 H212 0.931 . S
C200 C199 1.291 . S
C200 C201 1.373 . S
C200 H213 0.929 . S
C201 C200 1.373 . S
C201 C202 1.396 . S
C201 C208 1.403 . S
C202 C192 1.476 . S
C202 N197 1.318 . S
C202 C201 1.396 . S
H203 C198 0.929 1_565 S
O204 Mn180 2.385 . S
O204 C182 1.234 . S
O205 Mn180 2.209 . S
O205 Mn181 2.215 1_565 S
O205 C182 1.283 . S
O206 Mn180 2.094 . S
O206 C184 1.240 . S
O207 Mn181 2.117 1_565 S
O207 C184 1.264 . S
C208 C201 1.403 . S
C208 C209 1.399 . S
C208 H214 0.929 . S
C209 C189 1.449 . S
C209 C208 1.399 . S
C209 H215 0.930 . S
H210 C190 0.931 . S
H211 C191 0.930 . S
H212 C199 0.931 . S
H213 C200 0.929 . S
H214 C208 0.929 . S
H215 C209 0.930 . S
Mn216 O221 2.095 . S
Mn216 O231 2.162 . S
Mn216 O232 2.297 . S
Mn216 O240 2.385 . S
Mn216 O241 2.209 . S
Mn216 O242 2.094 . S
Mn217 O222 2.121 . S
Mn217 N224 2.257 . S
Mn217 N233 2.282 . S
Mn217 O241 2.215 1_545 S
Mn217 O243 2.117 1_545 S
C218 O240 1.234 . S
C218 O241 1.283 . S
C219 O231 1.281 . S
C219 O232 1.236 . S
C220 O242 1.240 . S
C220 O243 1.264 . S
O221 Mn216 2.095 . S
O221 C230 1.250 . S
O222 Mn217 2.121 . S
O222 C230 1.258 1_545 S
C223 N224 1.326 . S
C223 C227 1.460 . S
C223 H229 0.929 . S
N224 Mn217 2.257 . S
N224 C223 1.326 . S
N224 C228 1.362 . S
C225 C226 1.258 . S
C225 C228 1.431 . S
C225 C245 1.449 . S
C226 C225 1.258 . S
C226 C227 1.477 . S
C226 H246 0.931 . S
C227 C223 1.460 . S
C227 C226 1.477 . S
C227 H247 0.930 . S
C228 N224 1.362 . S
C228 C225 1.431 . S
C228 C238 1.476 . S
H229 C223 0.929 . S
C230 O221 1.250 . S
C230 O222 1.258 1_565 S
O231 Mn216 2.162 . S
O231 C219 1.281 . S
O232 Mn216 2.297 . S
O232 C219 1.236 . S
N233 Mn217 2.282 . S
N233 C234 1.328 . S
N233 C238 1.318 . S
C234 N233 1.328 . S
C234 C235 1.457 . S
C234 H239 0.929 1_545 S
C235 C234 1.457 . S
C235 C236 1.291 . S
C235 H248 0.931 . S
C236 C235 1.291 . S
C236 C237 1.373 . S
C236 H249 0.929 . S
C237 C236 1.373 . S
C237 C238 1.396 . S
C237 C244 1.403 . S
C238 C228 1.476 . S
C238 N233 1.318 . S
C238 C237 1.396 . S
H239 C234 0.929 1_565 S
O240 Mn216 2.385 . S
O240 C218 1.234 . S
O241 Mn216 2.209 . S
O241 Mn217 2.215 1_565 S
O241 C218 1.283 . S
O242 Mn216 2.094 . S
O242 C220 1.240 . S
O243 Mn217 2.117 1_565 S
O243 C220 1.264 . S
C244 C237 1.403 . S
C244 C245 1.399 . S
C244 H250 0.929 . S
C245 C225 1.449 . S
C245 C244 1.399 . S
C245 H251 0.930 . S
H246 C226 0.931 . S
H247 C227 0.930 . S
H248 C235 0.931 . S
H249 C236 0.929 . S
H250 C244 0.929 . S
H251 C245 0.930 . S
Mn252 O257 2.095 . S
Mn252 O267 2.162 . S
Mn252 O268 2.297 . S
Mn252 O276 2.385 . S
Mn252 O277 2.209 . S
Mn252 O278 2.094 . S
Mn253 O258 2.121 . S
Mn253 N260 2.257 . S
Mn253 N269 2.282 . S
Mn253 O277 2.215 1_565 S
Mn253 O279 2.117 1_565 S
C254 O276 1.234 . S
C254 O277 1.283 . S
C255 O267 1.281 . S
C255 O268 1.236 . S
C256 O278 1.240 . S
C256 O279 1.264 . S
O257 Mn252 2.095 . S
O257 C266 1.250 . S
O258 Mn253 2.121 . S
O258 C266 1.258 1_565 S
C259 N260 1.326 . S
C259 C263 1.460 . S
C259 H265 0.929 . S
N260 Mn253 2.257 . S
N260 C259 1.326 . S
N260 C264 1.362 . S
C261 C262 1.258 . S
C261 C264 1.431 . S
C261 C281 1.449 . S
C262 C261 1.258 . S
C262 C263 1.477 . S
C262 H282 0.931 . S
C263 C259 1.460 . S
C263 C262 1.477 . S
C263 H283 0.930 . S
C264 N260 1.362 . S
C264 C261 1.431 . S
C264 C274 1.476 . S
H265 C259 0.929 . S
C266 O257 1.250 . S
C266 O258 1.258 1_545 S
O267 Mn252 2.162 . S
O267 C255 1.281 . S
O268 Mn252 2.297 . S
O268 C255 1.236 . S
N269 Mn253 2.282 . S
N269 C270 1.328 . S
N269 C274 1.318 . S
C270 N269 1.328 . S
C270 C271 1.457 . S
C270 H275 0.929 1_565 S
C271 C270 1.457 . S
C271 C272 1.291 . S
C271 H284 0.931 . S
C272 C271 1.291 . S
C272 C273 1.373 . S
C272 H285 0.929 . S
C273 C272 1.373 . S
C273 C274 1.396 . S
C273 C280 1.403 . S
C274 C264 1.476 . S
C274 N269 1.318 . S
C274 C273 1.396 . S
H275 C270 0.929 1_545 S
O276 Mn252 2.385 . S
O276 C254 1.234 . S
O277 Mn252 2.209 . S
O277 Mn253 2.215 1_545 S
O277 C254 1.283 . S
O278 Mn252 2.094 . S
O278 C256 1.240 . S
O279 Mn253 2.117 1_545 S
O279 C256 1.264 . S
C280 C273 1.403 . S
C280 C281 1.399 . S
C280 H286 0.929 . S
C281 C261 1.449 . S
C281 C280 1.399 . S
C281 H287 0.930 . S
H282 C262 0.931 . S
H283 C263 0.930 . S
H284 C271 0.931 . S
H285 C272 0.929 . S
H286 C280 0.929 . S
H287 C281 0.930 . S
Mn288 O293 2.095 . S
Mn288 O303 2.162 . S
Mn288 O304 2.297 . S
Mn288 O312 2.385 . S
Mn288 O313 2.209 . S
Mn288 O314 2.094 . S
Mn289 O294 2.121 . S
Mn289 N296 2.257 . S
Mn289 N305 2.282 . S
Mn289 O313 2.215 1_556 S
Mn289 O315 2.117 1_556 S
C290 O312 1.234 . S
C290 O313 1.283 . S
C291 O303 1.281 . S
C291 O304 1.236 . S
C292 O314 1.240 . S
C292 O315 1.264 . S
O293 Mn288 2.095 . S
O293 C302 1.250 . S
O294 Mn289 2.121 . S
O294 C302 1.258 1_556 S
C295 N296 1.326 . S
C295 C299 1.460 . S
C295 H301 0.929 . S
N296 Mn289 2.257 . S
N296 C295 1.326 . S
N296 C300 1.362 . S
C297 C298 1.258 . S
C297 C300 1.431 . S
C297 C317 1.449 . S
C298 C297 1.258 . S
C298 C299 1.477 . S
C298 H318 0.931 . S
C299 C295 1.460 . S
C299 C298 1.477 . S
C299 H319 0.930 . S
C300 N296 1.362 . S
C300 C297 1.431 . S
C300 C310 1.476 . S
H301 C295 0.929 . S
C302 O293 1.250 . S
C302 O294 1.258 1_554 S
O303 Mn288 2.162 . S
O303 C291 1.281 . S
O304 Mn288 2.297 . S
O304 C291 1.236 . S
N305 Mn289 2.282 . S
N305 C306 1.328 . S
N305 C310 1.318 . S
C306 N305 1.328 . S
C306 C307 1.457 . S
C306 H311 0.929 1_556 S
C307 C306 1.457 . S
C307 C308 1.291 . S
C307 H320 0.931 . S
C308 C307 1.291 . S
C308 C309 1.373 . S
C308 H321 0.929 . S
C309 C308 1.373 . S
C309 C310 1.396 . S
C309 C316 1.403 . S
C310 C300 1.476 . S
C310 N305 1.318 . S
C310 C309 1.396 . S
H311 C306 0.929 1_554 S
O312 Mn288 2.385 . S
O312 C290 1.234 . S
O313 Mn288 2.209 . S
O313 Mn289 2.215 1_554 S
O313 C290 1.283 . S
O314 Mn288 2.094 . S
O314 C292 1.240 . S
O315 Mn289 2.117 1_554 S
O315 C292 1.264 . S
C316 C309 1.403 . S
C316 C317 1.399 . S
C316 H322 0.929 . S
C317 C297 1.449 . S
C317 C316 1.399 . S
C317 H323 0.930 . S
H318 C298 0.931 . S
H319 C299 0.930 . S
H320 C307 0.931 . S
H321 C308 0.929 . S
H322 C316 0.929 . S
H323 C317 0.930 . S
Mn324 O329 2.095 . S
Mn324 O339 2.162 . S
Mn324 O340 2.297 . S
Mn324 O348 2.385 . S
Mn324 O349 2.209 . S
Mn324 O350 2.094 . S
Mn325 O330 2.121 . S
Mn325 N332 2.257 . S
Mn325 N341 2.282 . S
Mn325 O349 2.215 1_554 S
Mn325 O351 2.117 1_554 S
C326 O348 1.234 . S
C326 O349 1.283 . S
C327 O339 1.281 . S
C327 O340 1.236 . S
C328 O350 1.240 . S
C328 O351 1.264 . S
O329 Mn324 2.095 . S
O329 C338 1.250 . S
O330 Mn325 2.121 . S
O330 C338 1.258 1_554 S
C331 N332 1.326 . S
C331 C335 1.460 . S
C331 H337 0.929 . S
N332 Mn325 2.257 . S
N332 C331 1.326 . S
N332 C336 1.362 . S
C333 C334 1.258 . S
C333 C336 1.431 . S
C333 C353 1.449 . S
C334 C333 1.258 . S
C334 C335 1.477 . S
C334 H354 0.931 . S
C335 C331 1.460 . S
C335 C334 1.477 . S
C335 H355 0.930 . S
C336 N332 1.362 . S
C336 C333 1.431 . S
C336 C346 1.476 . S
H337 C331 0.929 . S
C338 O329 1.250 . S
C338 O330 1.258 1_556 S
O339 Mn324 2.162 . S
O339 C327 1.281 . S
O340 Mn324 2.297 . S
O340 C327 1.236 . S
N341 Mn325 2.282 . S
N341 C342 1.328 . S
N341 C346 1.318 . S
C342 N341 1.328 . S
C342 C343 1.457 . S
C342 H347 0.929 1_554 S
C343 C342 1.457 . S
C343 C344 1.291 . S
C343 H356 0.931 . S
C344 C343 1.291 . S
C344 C345 1.373 . S
C344 H357 0.929 . S
C345 C344 1.373 . S
C345 C346 1.396 . S
C345 C352 1.403 . S
C346 C336 1.476 . S
C346 N341 1.318 . S
C346 C345 1.396 . S
H347 C342 0.929 1_556 S
O348 Mn324 2.385 . S
O348 C326 1.234 . S
O349 Mn324 2.209 . S
O349 Mn325 2.215 1_556 S
O349 C326 1.283 . S
O350 Mn324 2.094 . S
O350 C328 1.240 . S
O351 Mn325 2.117 1_556 S
O351 C328 1.264 . S
C352 C345 1.403 . S
C352 C353 1.399 . S
C352 H358 0.929 . S
C353 C333 1.449 . S
C353 C352 1.399 . S
C353 H359 0.930 . S
H354 C334 0.931 . S
H355 C335 0.930 . S
H356 C343 0.931 . S
H357 C344 0.929 . S
H358 C352 0.929 . S
H359 C353 0.930 . S
Mn360 O365 2.095 . S
Mn360 O375 2.162 . S
Mn360 O376 2.297 . S
Mn360 O384 2.385 . S
Mn360 O385 2.209 . S
Mn360 O386 2.094 . S
Mn361 O366 2.121 . S
Mn361 N368 2.257 . S
Mn361 N377 2.282 . S
Mn361 O385 2.215 1_554 S
Mn361 O387 2.117 1_554 S
C362 O384 1.234 . S
C362 O385 1.283 . S
C363 O375 1.281 . S
C363 O376 1.236 . S
C364 O386 1.240 . S
C364 O387 1.264 . S
O365 Mn360 2.095 . S
O365 C374 1.250 . S
O366 Mn361 2.121 . S
O366 C374 1.258 1_554 S
C367 N368 1.326 . S
C367 C371 1.460 . S
C367 H373 0.929 . S
N368 Mn361 2.257 . S
N368 C367 1.326 . S
N368 C372 1.362 . S
C369 C370 1.258 . S
C369 C372 1.431 . S
C369 C389 1.449 . S
C370 C369 1.258 . S
C370 C371 1.477 . S
C370 H390 0.931 . S
C371 C367 1.460 . S
C371 C370 1.477 . S
C371 H391 0.930 . S
C372 N368 1.362 . S
C372 C369 1.431 . S
C372 C382 1.476 . S
H373 C367 0.929 . S
C374 O365 1.250 . S
C374 O366 1.258 1_556 S
O375 Mn360 2.162 . S
O375 C363 1.281 . S
O376 Mn360 2.297 . S
O376 C363 1.236 . S
N377 Mn361 2.282 . S
N377 C378 1.328 . S
N377 C382 1.318 . S
C378 N377 1.328 . S
C378 C379 1.457 . S
C378 H383 0.929 1_554 S
C379 C378 1.457 . S
C379 C380 1.291 . S
C379 H392 0.931 . S
C380 C379 1.291 . S
C380 C381 1.373 . S
C380 H393 0.929 . S
C381 C380 1.373 . S
C381 C382 1.396 . S
C381 C388 1.403 . S
C382 C372 1.476 . S
C382 N377 1.318 . S
C382 C381 1.396 . S
H383 C378 0.929 1_556 S
O384 Mn360 2.385 . S
O384 C362 1.234 . S
O385 Mn360 2.209 . S
O385 Mn361 2.215 1_556 S
O385 C362 1.283 . S
O386 Mn360 2.094 . S
O386 C364 1.240 . S
O387 Mn361 2.117 1_556 S
O387 C364 1.264 . S
C388 C381 1.403 . S
C388 C389 1.399 . S
C388 H394 0.929 . S
C389 C369 1.449 . S
C389 C388 1.399 . S
C389 H395 0.930 . S
H390 C370 0.931 . S
H391 C371 0.930 . S
H392 C379 0.931 . S
H393 C380 0.929 . S
H394 C388 0.929 . S
H395 C389 0.930 . S
Mn396 O401 2.095 . S
Mn396 O411 2.162 . S
Mn396 O412 2.297 . S
Mn396 O420 2.385 . S
Mn396 O421 2.209 . S
Mn396 O422 2.094 . S
Mn397 O402 2.121 . S
Mn397 N404 2.257 . S
Mn397 N413 2.282 . S
Mn397 O421 2.215 1_556 S
Mn397 O423 2.117 1_556 S
C398 O420 1.234 . S
C398 O421 1.283 . S
C399 O411 1.281 . S
C399 O412 1.236 . S
C400 O422 1.240 . S
C400 O423 1.264 . S
O401 Mn396 2.095 . S
O401 C410 1.250 . S
O402 Mn397 2.121 . S
O402 C410 1.258 1_556 S
C403 N404 1.326 . S
C403 C407 1.460 . S
C403 H409 0.929 . S
N404 Mn397 2.257 . S
N404 C403 1.326 . S
N404 C408 1.362 . S
C405 C406 1.258 . S
C405 C408 1.431 . S
C405 C425 1.449 . S
C406 C405 1.258 . S
C406 C407 1.477 . S
C406 H426 0.931 . S
C407 C403 1.460 . S
C407 C406 1.477 . S
C407 H427 0.930 . S
C408 N404 1.362 . S
C408 C405 1.431 . S
C408 C418 1.476 . S
H409 C403 0.929 . S
C410 O401 1.250 . S
C410 O402 1.258 1_554 S
O411 Mn396 2.162 . S
O411 C399 1.281 . S
O412 Mn396 2.297 . S
O412 C399 1.236 . S
N413 Mn397 2.282 . S
N413 C414 1.328 . S
N413 C418 1.318 . S
C414 N413 1.328 . S
C414 C415 1.457 . S
C414 H419 0.929 1_556 S
C415 C414 1.457 . S
C415 C416 1.291 . S
C415 H428 0.931 . S
C416 C415 1.291 . S
C416 C417 1.373 . S
C416 H429 0.929 . S
C417 C416 1.373 . S
C417 C418 1.396 . S
C417 C424 1.403 . S
C418 C408 1.476 . S
C418 N413 1.318 . S
C418 C417 1.396 . S
H419 C414 0.929 1_554 S
O420 Mn396 2.385 . S
O420 C398 1.234 . S
O421 Mn396 2.209 . S
O421 Mn397 2.215 1_554 S
O421 C398 1.283 . S
O422 Mn396 2.094 . S
O422 C400 1.240 . S
O423 Mn397 2.117 1_554 S
O423 C400 1.264 . S
C424 C417 1.403 . S
C424 C425 1.399 . S
C424 H430 0.929 . S
C425 C405 1.449 . S
C425 C424 1.399 . S
C425 H431 0.930 . S
H426 C406 0.931 . S
H427 C407 0.930 . S
H428 C415 0.931 . S
H429 C416 0.929 . S
H430 C424 0.929 . S
H431 C425 0.930 . S
C432 C433 1.369 . S
C432 C434 1.419 . S
C432 H436 0.930 . S
C433 C432 1.369 . S
C433 C442 1.429 1_655 S
C434 C432 1.419 . S
C434 C435 1.363 1_655 S
C434 H437 0.929 . S
C435 C434 1.363 1_455 S
C435 C441 1.428 . S
H436 C432 0.930 . S
H437 C434 0.929 . S
S438 N439 1.613 . S
S438 N440 1.610 . S
N439 S438 1.613 . S
N439 C442 1.350 . S
N440 S438 1.610 . S
N440 C441 1.351 . S
C441 C435 1.428 . S
C441 N440 1.351 . S
C441 C442 1.434 . S
C442 C433 1.429 1_455 S
C442 N439 1.350 . S
C442 C441 1.434 . S
C443 C444 1.369 . S
C443 C445 1.419 . S
C443 H447 0.930 . S
C444 C443 1.369 . S
C444 C453 1.429 1_455 S
C445 C443 1.419 . S
C445 C446 1.363 1_455 S
C445 H448 0.929 . S
C446 C445 1.363 1_655 S
C446 C452 1.428 . S
H447 C443 0.930 . S
H448 C445 0.929 . S
S449 N450 1.613 . S
S449 N451 1.610 . S
N450 S449 1.613 . S
N450 C453 1.350 . S
N451 S449 1.610 . S
N451 C452 1.351 . S
C452 C446 1.428 . S
C452 N451 1.351 . S
C452 C453 1.434 . S
C453 C444 1.429 1_655 S
C453 N450 1.350 . S
C453 C452 1.434 . S
C454 C455 1.369 1_545 S
C454 C456 1.419 . S
C454 H458 0.930 . S
C455 C454 1.369 1_565 S
C455 C464 1.429 . S
C456 C454 1.419 . S
C456 C457 1.363 . S
C456 H459 0.929 . S
C457 C456 1.363 . S
C457 C463 1.428 1_545 S
H458 C454 0.930 . S
H459 C456 0.929 . S
S460 N461 1.613 . S
S460 N462 1.610 . S
N461 S460 1.613 . S
N461 C464 1.350 . S
N462 S460 1.610 . S
N462 C463 1.351 . S
C463 C457 1.428 1_565 S
C463 N462 1.351 . S
C463 C464 1.434 . S
C464 C455 1.429 . S
C464 N461 1.350 . S
C464 C463 1.434 . S
C465 C466 1.369 1_545 S
C465 C467 1.419 . S
C465 H469 0.930 . S
C466 C465 1.369 1_565 S
C466 C475 1.429 . S
C467 C465 1.419 . S
C467 C468 1.363 . S
C467 H470 0.929 . S
C468 C467 1.363 . S
C468 C474 1.428 1_545 S
H469 C465 0.930 . S
H470 C467 0.929 . S
S471 N472 1.613 . S
S471 N473 1.610 . S
N472 S471 1.613 . S
N472 C475 1.350 . S
N473 S471 1.610 . S
N473 C474 1.351 . S
C474 C468 1.428 1_565 S
C474 N473 1.351 . S
C474 C475 1.434 . S
C475 C466 1.429 . S
C475 N472 1.350 . S
C475 C474 1.434 . S
C476 C477 1.369 . S
C476 C478 1.419 . S
C476 H480 0.930 . S
C477 C476 1.369 . S
C477 C486 1.429 1_556 S
C478 C476 1.419 . S
C478 C479 1.363 1_556 S
C478 H481 0.929 . S
C479 C478 1.363 1_554 S
C479 C485 1.428 . S
H480 C476 0.930 . S
H481 C478 0.929 . S
S482 N483 1.613 . S
S482 N484 1.610 . S
N483 S482 1.613 . S
N483 C486 1.350 . S
N484 S482 1.610 . S
N484 C485 1.351 . S
C485 C479 1.428 . S
C485 N484 1.351 . S
C485 C486 1.434 . S
C486 C477 1.429 1_554 S
C486 N483 1.350 . S
C486 C485 1.434 . S
C487 C488 1.369 . S
C487 C489 1.420 . S
C487 H491 0.930 . S
C488 C487 1.369 . S
C488 C497 1.429 1_556 S
C489 C487 1.420 . S
C489 C490 1.361 1_556 S
C489 H492 0.929 . S
C490 C489 1.361 1_554 S
C490 C496 1.428 . S
H491 C487 0.930 . S
H492 C489 0.929 . S
S493 N494 1.613 . S
S493 N495 1.610 . S
N494 S493 1.613 . S
N494 C497 1.350 . S
N495 S493 1.610 . S
N495 C496 1.351 . S
C496 C490 1.428 . S
C496 N495 1.351 . S
C496 C497 1.434 . S
C497 C488 1.429 1_554 S
C497 N494 1.350 . S
C497 C496 1.434 . S
C498 C499 1.369 . S
C498 C500 1.419 . S
C498 H502 0.930 . S
C499 C498 1.369 . S
C499 C508 1.429 . S
C500 C498 1.419 . S
C500 C501 1.363 . S
C500 H503 0.929 . S
C501 C500 1.363 . S
C501 C507 1.428 . S
H502 C498 0.930 . S
H503 C500 0.929 . S
S504 N505 1.613 1_565 S
S504 N506 1.610 1_565 S
N505 S504 1.613 1_545 S
N505 C508 1.350 . S
N506 S504 1.610 1_545 S
N506 C507 1.351 . S
C507 C501 1.428 . S
C507 N506 1.351 . S
C507 C508 1.434 . S
C508 C499 1.429 . S
C508 N505 1.350 . S
C508 C507 1.434 . S
C509 C510 1.369 . S
C509 C511 1.419 . S
C509 H513 0.930 . S
C510 C509 1.369 . S
C510 C519 1.429 . S
C511 C509 1.419 . S
C511 C512 1.363 . S
C511 H514 0.929 . S
C512 C511 1.363 . S
C512 C518 1.428 . S
H513 C509 0.930 . S
H514 C511 0.929 . S
S515 N516 1.613 . S
S515 N517 1.610 . S
N516 S515 1.613 . S
N516 C519 1.350 . S
N517 S515 1.610 . S
N517 C518 1.351 . S
C518 C512 1.428 . S
C518 N517 1.351 . S
C518 C519 1.434 . S
C519 C510 1.429 . S
C519 N516 1.350 . S
C519 C518 1.434 . S
C520 C521 1.369 . S
C520 C522 1.419 . S
C520 H524 0.930 . S
C521 C520 1.369 . S
C521 C530 1.429 . S
C522 C520 1.419 . S
C522 C523 1.363 . S
C522 H525 0.929 . S
C523 C522 1.363 . S
C523 C529 1.428 . S
H524 C520 0.930 . S
H525 C522 0.929 . S
S526 N527 1.613 . S
S526 N528 1.610 . S
N527 S526 1.613 . S
N527 C530 1.350 . S
N528 S526 1.610 . S
N528 C529 1.351 . S
C529 C523 1.428 . S
C529 N528 1.351 . S
C529 C530 1.434 . S
C530 C521 1.429 . S
C530 N527 1.350 . S
C530 C529 1.434 . S
C531 C532 1.369 . S
C531 C533 1.419 . S
C531 H535 0.930 . S
C532 C531 1.369 . S
C532 C541 1.429 . S
C533 C531 1.419 . S
C533 C534 1.363 . S
C533 H536 0.929 . S
C534 C533 1.363 . S
C534 C540 1.428 . S
H535 C531 0.930 . S
H536 C533 0.929 . S
S537 N538 1.613 . S
S537 N539 1.610 . S
N538 S537 1.613 . S
N538 C541 1.350 . S
N539 S537 1.610 . S
N539 C540 1.351 . S
C540 C534 1.428 . S
C540 N539 1.351 . S
C540 C541 1.434 . S
C541 C532 1.429 . S
C541 N538 1.350 . S
C541 C540 1.434 . S
C542 C543 1.369 . S
C542 C544 1.419 . S
C542 H546 0.930 . S
C543 C542 1.369 . S
C543 C552 1.429 . S
C544 C542 1.419 . S
C544 C545 1.363 . S
C544 H547 0.929 . S
C545 C544 1.363 . S
C545 C551 1.428 . S
H546 C542 0.930 . S
H547 C544 0.929 . S
S548 N549 1.613 . S
S548 N550 1.610 . S
N549 S548 1.613 . S
N549 C552 1.350 . S
N550 S548 1.610 . S
N550 C551 1.351 . S
C551 C545 1.428 . S
C551 N550 1.351 . S
C551 C552 1.434 . S
C552 C543 1.429 . S
C552 N549 1.350 . S
C552 C551 1.434 . S
C553 C554 1.369 . S
C553 C555 1.419 . S
C553 H557 0.930 . S
C554 C553 1.369 . S
C554 C563 1.429 . S
C555 C553 1.419 . S
C555 C556 1.363 . S
C555 H558 0.929 . S
C556 C555 1.363 . S
C556 C562 1.428 . S
H557 C553 0.930 . S
H558 C555 0.929 . S
S559 N560 1.613 . S
S559 N561 1.610 . S
N560 S559 1.613 . S
N560 C563 1.350 . S
N561 S559 1.610 . S
N561 C562 1.351 . S
C562 C556 1.428 . S
C562 N561 1.351 . S
C562 C563 1.434 . S
C563 C554 1.429 . S
C563 N560 1.350 . S
C563 C562 1.434 . S
C564 C565 1.369 . S
C564 C566 1.419 . S
C564 H568 0.930 . S
C565 C564 1.369 . S
C565 C574 1.429 . S
C566 C564 1.419 . S
C566 C567 1.363 . S
C566 H569 0.929 . S
C567 C566 1.363 . S
C567 C573 1.428 . S
H568 C564 0.930 . S
H569 C566 0.929 . S
S570 N571 1.613 . S
S570 N572 1.610 . S
N571 S570 1.613 . S
N571 C574 1.350 . S
N572 S570 1.610 . S
N572 C573 1.351 . S
C573 C567 1.428 . S
C573 N572 1.351 . S
C573 C574 1.434 . S
C574 C565 1.429 . S
C574 N571 1.350 . S
C574 C573 1.434 . S
C575 C576 1.369 . S
C575 C577 1.419 . S
C575 H579 0.930 . S
C576 C575 1.369 . S
C576 C585 1.429 . S
C577 C575 1.419 . S
C577 C578 1.363 . S
C577 H580 0.929 . S
C578 C577 1.363 . S
C578 C584 1.428 . S
H579 C575 0.930 . S
H580 C577 0.929 . S
S581 N582 1.613 . S
S581 N583 1.610 . S
N582 S581 1.613 . S
N582 C585 1.350 . S
N583 S581 1.610 . S
N583 C584 1.351 . S
C584 C578 1.428 . S
C584 N583 1.351 . S
C584 C585 1.434 . S
C585 C576 1.429 . S
C585 N582 1.350 . S
C585 C584 1.434 . S
C586 C587 1.369 . S
C586 C588 1.419 . S
C586 H590 0.930 . S
C587 C586 1.369 . S
C587 C596 1.429 . S
C588 C586 1.419 . S
C588 C589 1.363 . S
C588 H591 0.929 . S
C589 C588 1.363 . S
C589 C595 1.428 . S
H590 C586 0.930 . S
H591 C588 0.929 . S
S592 N593 1.613 . S
S592 N594 1.610 . S
N593 S592 1.613 . S
N593 C596 1.350 . S
N594 S592 1.610 . S
N594 C595 1.351 . S
C595 C589 1.428 . S
C595 N594 1.351 . S
C595 C596 1.434 . S
C596 C587 1.429 . S
C596 N593 1.350 . S
C596 C595 1.434 . S
C597 C598 1.369 . S
C597 C599 1.419 . S
C597 H601 0.930 . S
C598 C597 1.369 . S
C598 C607 1.429 . S
C599 C597 1.419 . S
C599 C600 1.363 . S
C599 H602 0.929 . S
C600 C599 1.363 . S
C600 C606 1.428 . S
H601 C597 0.930 . S
H602 C599 0.929 . S
S603 N604 1.613 . S
S603 N605 1.610 . S
N604 S603 1.613 . S
N604 C607 1.350 . S
N605 S603 1.610 . S
N605 C606 1.351 . S
C606 C600 1.428 . S
C606 N605 1.351 . S
C606 C607 1.434 . S
C607 C598 1.429 . S
C607 N604 1.350 . S
C607 C606 1.434 . S
C608 C609 1.369 . S
C608 C610 1.419 . S
C608 H612 0.930 . S
C609 C608 1.369 . S
C609 C618 1.429 . S
C610 C608 1.419 . S
C610 C611 1.363 . S
C610 H613 0.929 . S
C611 C610 1.363 . S
C611 C617 1.428 . S
H612 C608 0.930 . S
H613 C610 0.929 . S
S614 N615 1.613 . S
S614 N616 1.610 . S
N615 S614 1.613 . S
N615 C618 1.350 . S
N616 S614 1.610 . S
N616 C617 1.351 . S
C617 C611 1.428 . S
C617 N616 1.351 . S
C617 C618 1.434 . S
C618 C609 1.429 . S
C618 N615 1.350 . S
C618 C617 1.434 . S
C619 C620 1.369 . S
C619 C621 1.419 . S
C619 H623 0.930 . S
C620 C619 1.369 . S
C620 C629 1.429 . S
C621 C619 1.419 . S
C621 C622 1.363 . S
C621 H624 0.929 . S
C622 C621 1.363 . S
C622 C628 1.428 . S
H623 C619 0.930 . S
H624 C621 0.929 . S
S625 N626 1.613 1_455 S
S625 N627 1.610 1_455 S
N626 S625 1.613 1_655 S
N626 C629 1.350 . S
N627 S625 1.610 1_655 S
N627 C628 1.351 . S
C628 C622 1.428 . S
C628 N627 1.351 . S
C628 C629 1.434 . S
C629 C620 1.429 . S
C629 N626 1.350 . S
C629 C628 1.434 . S
C630 C631 1.369 . S
C630 C632 1.419 1_445 S
C630 H634 0.930 . S
C631 C630 1.369 . S
C631 C640 1.429 . S
C632 C630 1.419 1_665 S
C632 C633 1.363 . S
C632 H635 0.929 . S
C633 C632 1.363 . S
C633 C639 1.428 . S
H634 C630 0.930 . S
H635 C632 0.929 . S
S636 N637 1.613 1_565 S
S636 N638 1.610 1_455 S
N637 S636 1.613 1_545 S
N637 C640 1.350 . S
N638 S636 1.610 1_655 S
N638 C639 1.351 . S
C639 C633 1.428 . S
C639 N638 1.351 . S
C639 C640 1.434 1_665 S
C640 C631 1.429 . S
C640 N637 1.350 . S
C640 C639 1.434 1_445 S
C641 C642 1.369 1_455 S
C641 C643 1.419 1_545 S
C641 H645 0.930 . S
C642 C641 1.369 1_655 S
C642 C651 1.429 . S
C643 C641 1.419 1_565 S
C643 C644 1.363 . S
C643 H646 0.929 . S
C644 C643 1.363 . S
C644 C650 1.428 1_455 S
H645 C641 0.930 . S
H646 C643 0.929 . S
S647 N648 1.613 1_565 S
S647 N649 1.610 . S
N648 S647 1.613 1_545 S
N648 C651 1.350 . S
N649 S647 1.610 . S
N649 C650 1.351 . S
C650 C644 1.428 1_655 S
C650 N649 1.351 . S
C650 C651 1.434 1_565 S
C651 C642 1.429 . S
C651 N648 1.350 . S
C651 C650 1.434 1_545 S
C652 C653 1.369 1_545 S
C652 C654 1.419 1_556 S
C652 H656 0.930 . S
C653 C652 1.369 1_565 S
C653 C662 1.429 . S
C654 C652 1.419 1_554 S
C654 C655 1.363 . S
C654 H657 0.929 . S
C655 C654 1.363 . S
C655 C661 1.428 1_545 S
H656 C652 0.930 . S
H657 C654 0.929 . S
S658 N659 1.613 1_554 S
S658 N660 1.610 . S
N659 S658 1.613 1_556 S
N659 C662 1.350 . S
N660 S658 1.610 . S
N660 C661 1.351 . S
C661 C655 1.428 1_565 S
C661 N660 1.351 . S
C661 C662 1.434 1_554 S
C662 C653 1.429 . S
C662 N659 1.350 . S
C662 C661 1.434 1_556 S
C663 C664 1.369 . S
C663 C665 1.419 1_554 S
C663 H667 0.930 . S
C664 C663 1.369 . S
C664 C673 1.429 1_565 S
C665 C663 1.419 1_556 S
C665 C666 1.363 1_565 S
C665 H668 0.929 . S
C666 C665 1.363 1_545 S
C666 C672 1.428 . S
H667 C663 0.930 . S
H668 C665 0.929 . S
S669 N670 1.613 . S
S669 N671 1.610 1_554 S
N670 S669 1.613 . S
N670 C673 1.350 . S
N671 S669 1.610 1_556 S
N671 C672 1.351 . S
C672 C666 1.428 . S
C672 N671 1.351 . S
C672 C673 1.434 1_556 S
C673 C664 1.429 1_545 S
C673 N670 1.350 . S
C673 C672 1.434 1_554 S
C674 C675 1.369 . S
C674 C676 1.419 1_655 S
C674 H678 0.930 . S
C675 C674 1.369 . S
C675 C684 1.429 1_556 S
C676 C674 1.419 1_455 S
C676 C677 1.363 1_556 S
C676 H679 0.929 . S
C677 C676 1.363 1_554 S
C677 C683 1.428 . S
H678 C674 0.930 . S
H679 C676 0.929 . S
S680 N681 1.613 . S
S680 N682 1.610 1_655 S
N681 S680 1.613 . S
N681 C684 1.350 . S
N682 S680 1.610 1_455 S
N682 C683 1.351 . S
C683 C677 1.428 . S
C683 N682 1.351 . S
C683 C684 1.434 1_455 S
C684 C675 1.429 1_554 S
C684 N681 1.350 . S
C684 C683 1.434 1_655 S
C685 C686 1.369 1_554 S
C685 C687 1.419 1_455 S
C685 H689 0.930 . S
C686 C685 1.369 1_556 S
C686 C695 1.429 . S
C687 C685 1.419 1_655 S
C687 C688 1.363 . S
C687 H690 0.929 . S
C688 C687 1.363 . S
C688 C694 1.428 1_554 S
H689 C685 0.930 . S
H690 C687 0.929 . S
S691 N692 1.613 1_655 S
S691 N693 1.610 . S
N692 S691 1.613 1_455 S
N692 C695 1.350 . S
N693 S691 1.610 . S
N693 C694 1.351 . S
C694 C688 1.428 1_556 S
C694 N693 1.351 . S
C694 C695 1.434 1_655 S
C695 C686 1.429 . S
C695 N692 1.350 . S
C695 C694 1.434 1_455 S
C433 C112 1.173 . S
C435 C4 1.184 . S
C444 C76 1.172 . S
C446 C40 1.183 . S
C455 C184 1.186 . S
C457 C148 1.175 . S
C466 C220 1.184 . S
C468 C256 1.174 . S
C477 C328 1.174 . S
C479 C292 1.184 . S
C488 C364 1.174 . S
C490 C400 1.184 . S
C499 C3 1.134 . S
C501 C254 1.090 . S
C510 C218 1.085 . S
C512 C39 1.133 . S
C521 C182 1.081 . S
C523 C75 1.139 . S
C532 C146 1.084 . S
C534 C111 1.133 . S
C543 C147 1.139 . S
C545 C398 1.079 . S
C554 C290 1.083 . S
C556 C183 1.133 . S
C565 C362 1.077 . S
C567 C219 1.138 . S
C576 C255 1.140 . S
C578 C326 1.083 . S
C587 C74 1.083 . S
C589 C291 1.133 . S
C598 C2 1.090 . S
C600 C327 1.133 . S
C609 C363 1.137 . S
C611 C38 1.088 . S
C620 C110 1.091 . S
C622 C399 1.136 . S
C631 C14 1.239 . S
C633 C50 1.236 . S
C642 C122 1.238 . S
C644 C86 1.233 . S
C653 C230 1.235 . S
C655 C158 1.233 . S
C664 C194 1.232 . S
C666 C266 1.236 . S
C675 C374 1.232 . S
C677 C302 1.238 . S
C686 C338 1.239 . S
C688 C410 1.235 . S
