# Generated by pormake.
# Topology zni, (4)-cn, num edge types: 1
# Building blocks:
#     Node 0, Type 0, BuildingBlock: QUQFOY_clean_sbu_1, # of connection points: 4
#     Node 1, Type 0, BuildingBlock: QUQFOY_clean_sbu_1, # of connection points: 4
#     Node 2, Type 0, BuildingBlock: QUQFOY_clean_sbu_1, # of connection points: 4
#     Node 3, Type 0, BuildingBlock: QUQFOY_clean_sbu_1, # of connection points: 4
#     Node 4, Type 0, BuildingBlock: QUQFOY_clean_sbu_1, # of connection points: 4
#     Node 5, Type 0, BuildingBlock: QUQFOY_clean_sbu_1, # of connection points: 4
#     Node 6, Type 0, BuildingBlock: QUQFOY_clean_sbu_1, # of connection points: 4
#     Node 7, Type 0, BuildingBlock: QUQFOY_clean_sbu_1, # of connection points: 4
#     Node 8, Type 0, BuildingBlock: QUQFOY_clean_sbu_1, # of connection points: 4
#     Node 9, Type 0, BuildingBlock: QUQFOY_clean_sbu_1, # of connection points: 4
#     Node 10, Type 0, BuildingBlock: QUQFOY_clean_sbu_1, # of connection points: 4
#     Node 11, Type 0, BuildingBlock: QUQFOY_clean_sbu_1, # of connection points: 4
#     Node 12, Type 0, BuildingBlock: QUQFOY_clean_sbu_1, # of connection points: 4
#     Node 13, Type 0, BuildingBlock: QUQFOY_clean_sbu_1, # of connection points: 4
#     Node 14, Type 0, BuildingBlock: QUQFOY_clean_sbu_1, # of connection points: 4
#     Node 15, Type 0, BuildingBlock: QUQFOY_clean_sbu_1, # of connection points: 4
#     Node 16, Type 0, BuildingBlock: QUQFOY_clean_sbu_1, # of connection points: 4
#     Node 17, Type 0, BuildingBlock: QUQFOY_clean_sbu_1, # of connection points: 4
#     Node 18, Type 0, BuildingBlock: QUQFOY_clean_sbu_1, # of connection points: 4
#     Node 19, Type 0, BuildingBlock: QUQFOY_clean_sbu_1, # of connection points: 4
#     Node 20, Type 0, BuildingBlock: QUQFOY_clean_sbu_1, # of connection points: 4
#     Node 21, Type 0, BuildingBlock: QUQFOY_clean_sbu_1, # of connection points: 4
#     Node 22, Type 0, BuildingBlock: QUQFOY_clean_sbu_1, # of connection points: 4
#     Node 23, Type 0, BuildingBlock: QUQFOY_clean_sbu_1, # of connection points: 4
#     Node 24, Type 0, BuildingBlock: QUQFOY_clean_sbu_1, # of connection points: 4
#     Node 25, Type 0, BuildingBlock: QUQFOY_clean_sbu_1, # of connection points: 4
#     Node 26, Type 0, BuildingBlock: QUQFOY_clean_sbu_1, # of connection points: 4
#     Node 27, Type 0, BuildingBlock: QUQFOY_clean_sbu_1, # of connection points: 4
#     Node 28, Type 0, BuildingBlock: QUQFOY_clean_sbu_1, # of connection points: 4
#     Node 29, Type 0, BuildingBlock: QUQFOY_clean_sbu_1, # of connection points: 4
#     Node 30, Type 0, BuildingBlock: QUQFOY_clean_sbu_1, # of connection points: 4
#     Node 31, Type 0, BuildingBlock: QUQFOY_clean_sbu_1, # of connection points: 4
#     Edge 32, Type (0, 0), BuildingBlock: ZUJKAS_clean_linker_0, # of connection points: 2
#     Edge 33, Type (0, 0), BuildingBlock: ZUJKAS_clean_linker_0, # of connection points: 2
#     Edge 34, Type (0, 0), BuildingBlock: ZUJKAS_clean_linker_0, # of connection points: 2
#     Edge 35, Type (0, 0), BuildingBlock: ZUJKAS_clean_linker_0, # of connection points: 2
#     Edge 36, Type (0, 0), BuildingBlock: ZUJKAS_clean_linker_0, # of connection points: 2
#     Edge 37, Type (0, 0), BuildingBlock: ZUJKAS_clean_linker_0, # of connection points: 2
#     Edge 38, Type (0, 0), BuildingBlock: ZUJKAS_clean_linker_0, # of connection points: 2
#     Edge 39, Type (0, 0), BuildingBlock: ZUJKAS_clean_linker_0, # of connection points: 2
#     Edge 40, Type (0, 0), BuildingBlock: ZUJKAS_clean_linker_0, # of connection points: 2
#     Edge 41, Type (0, 0), BuildingBlock: ZUJKAS_clean_linker_0, # of connection points: 2
#     Edge 42, Type (0, 0), BuildingBlock: ZUJKAS_clean_linker_0, # of connection points: 2
#     Edge 43, Type (0, 0), BuildingBlock: ZUJKAS_clean_linker_0, # of connection points: 2
#     Edge 44, Type (0, 0), BuildingBlock: ZUJKAS_clean_linker_0, # of connection points: 2
#     Edge 45, Type (0, 0), BuildingBlock: ZUJKAS_clean_linker_0, # of connection points: 2
#     Edge 46, Type (0, 0), BuildingBlock: ZUJKAS_clean_linker_0, # of connection points: 2
#     Edge 47, Type (0, 0), BuildingBlock: ZUJKAS_clean_linker_0, # of connection points: 2
#     Edge 48, Type (0, 0), BuildingBlock: ZUJKAS_clean_linker_0, # of connection points: 2
#     Edge 49, Type (0, 0), BuildingBlock: ZUJKAS_clean_linker_0, # of connection points: 2
#     Edge 50, Type (0, 0), BuildingBlock: ZUJKAS_clean_linker_0, # of connection points: 2
#     Edge 51, Type (0, 0), BuildingBlock: ZUJKAS_clean_linker_0, # of connection points: 2
#     Edge 52, Type (0, 0), BuildingBlock: ZUJKAS_clean_linker_0, # of connection points: 2
#     Edge 53, Type (0, 0), BuildingBlock: ZUJKAS_clean_linker_0, # of connection points: 2
#     Edge 54, Type (0, 0), BuildingBlock: ZUJKAS_clean_linker_0, # of connection points: 2
#     Edge 55, Type (0, 0), BuildingBlock: ZUJKAS_clean_linker_0, # of connection points: 2
#     Edge 56, Type (0, 0), BuildingBlock: ZUJKAS_clean_linker_0, # of connection points: 2
#     Edge 57, Type (0, 0), BuildingBlock: ZUJKAS_clean_linker_0, # of connection points: 2
#     Edge 58, Type (0, 0), BuildingBlock: ZUJKAS_clean_linker_0, # of connection points: 2
#     Edge 59, Type (0, 0), BuildingBlock: ZUJKAS_clean_linker_0, # of connection points: 2
#     Edge 60, Type (0, 0), BuildingBlock: ZUJKAS_clean_linker_0, # of connection points: 2
#     Edge 61, Type (0, 0), BuildingBlock: ZUJKAS_clean_linker_0, # of connection points: 2
#     Edge 62, Type (0, 0), BuildingBlock: ZUJKAS_clean_linker_0, # of connection points: 2
#     Edge 63, Type (0, 0), BuildingBlock: ZUJKAS_clean_linker_0, # of connection points: 2
#     Edge 64, Type (0, 0), BuildingBlock: ZUJKAS_clean_linker_0, # of connection points: 2
#     Edge 65, Type (0, 0), BuildingBlock: ZUJKAS_clean_linker_0, # of connection points: 2
#     Edge 66, Type (0, 0), BuildingBlock: ZUJKAS_clean_linker_0, # of connection points: 2
#     Edge 67, Type (0, 0), BuildingBlock: ZUJKAS_clean_linker_0, # of connection points: 2
#     Edge 68, Type (0, 0), BuildingBlock: ZUJKAS_clean_linker_0, # of connection points: 2
#     Edge 69, Type (0, 0), BuildingBlock: ZUJKAS_clean_linker_0, # of connection points: 2
#     Edge 70, Type (0, 0), BuildingBlock: ZUJKAS_clean_linker_0, # of connection points: 2
#     Edge 71, Type (0, 0), BuildingBlock: ZUJKAS_clean_linker_0, # of connection points: 2
#     Edge 72, Type (0, 0), BuildingBlock: ZUJKAS_clean_linker_0, # of connection points: 2
#     Edge 73, Type (0, 0), BuildingBlock: ZUJKAS_clean_linker_0, # of connection points: 2
#     Edge 74, Type (0, 0), BuildingBlock: ZUJKAS_clean_linker_0, # of connection points: 2
#     Edge 75, Type (0, 0), BuildingBlock: ZUJKAS_clean_linker_0, # of connection points: 2
#     Edge 76, Type (0, 0), BuildingBlock: ZUJKAS_clean_linker_0, # of connection points: 2
#     Edge 77, Type (0, 0), BuildingBlock: ZUJKAS_clean_linker_0, # of connection points: 2
#     Edge 78, Type (0, 0), BuildingBlock: ZUJKAS_clean_linker_0, # of connection points: 2
#     Edge 79, Type (0, 0), BuildingBlock: ZUJKAS_clean_linker_0, # of connection points: 2
#     Edge 80, Type (0, 0), BuildingBlock: ZUJKAS_clean_linker_0, # of connection points: 2
#     Edge 81, Type (0, 0), BuildingBlock: ZUJKAS_clean_linker_0, # of connection points: 2
#     Edge 82, Type (0, 0), BuildingBlock: ZUJKAS_clean_linker_0, # of connection points: 2
#     Edge 83, Type (0, 0), BuildingBlock: ZUJKAS_clean_linker_0, # of connection points: 2
#     Edge 84, Type (0, 0), BuildingBlock: ZUJKAS_clean_linker_0, # of connection points: 2
#     Edge 85, Type (0, 0), BuildingBlock: ZUJKAS_clean_linker_0, # of connection points: 2
#     Edge 86, Type (0, 0), BuildingBlock: ZUJKAS_clean_linker_0, # of connection points: 2
#     Edge 87, Type (0, 0), BuildingBlock: ZUJKAS_clean_linker_0, # of connection points: 2
#     Edge 88, Type (0, 0), BuildingBlock: ZUJKAS_clean_linker_0, # of connection points: 2
#     Edge 89, Type (0, 0), BuildingBlock: ZUJKAS_clean_linker_0, # of connection points: 2
#     Edge 90, Type (0, 0), BuildingBlock: ZUJKAS_clean_linker_0, # of connection points: 2
#     Edge 91, Type (0, 0), BuildingBlock: ZUJKAS_clean_linker_0, # of connection points: 2
#     Edge 92, Type (0, 0), BuildingBlock: ZUJKAS_clean_linker_0, # of connection points: 2
#     Edge 93, Type (0, 0), BuildingBlock: ZUJKAS_clean_linker_0, # of connection points: 2
#     Edge 94, Type (0, 0), BuildingBlock: ZUJKAS_clean_linker_0, # of connection points: 2
#     Edge 95, Type (0, 0), BuildingBlock: ZUJKAS_clean_linker_0, # of connection points: 2
# Relax obj value: 0.189
# Max RMSD: 0.171
# Mean RMSD: 0.171
data_MOF--net-zni--node1-QUQFOY_clean_sbu_1--edge1-ZUJKAS_clean_linker_0
_symmetry_space_group_name_H-M    P1
_symmetry_Int_Tables_number       1
_symmetry_cell_setting            triclinic
loop_
_symmetry_equiv_pos_as_xyz
'x, y, z'
_cell_length_a     77.119208
_cell_length_b     77.117718
_cell_length_c     43.428723
_cell_angle_alpha  89.997946
_cell_angle_beta   90.000528
_cell_angle_gamma 89.997147
loop_
_atom_site_label
_atom_site_type_symbol
_atom_site_fract_x
_atom_site_fract_y
_atom_site_fract_z
_atom_type_partial_charge
O0 O 0.07599 0.10268 0.36631 0.0
Cd1 Cd 0.10257 0.10228 0.36122 0.0
Cd2 Cd 0.10128 0.10874 0.42556 0.0
O3 O 0.07536 0.10377 0.41707 0.0
O4 O 0.10683 0.09103 0.32064 0.0
O5 O 0.1149 0.07936 0.36493 0.0
C6 C 0.11379 0.07826 0.33529 0.0
C7 C 0.11146 0.10147 0.47487 0.0
C8 C 0.06751 0.10262 0.39141 0.0
C9 C 0.11706 0.13603 0.38286 0.0
O10 O 0.1118 0.13164 0.40948 0.0
O11 O 0.11537 0.12578 0.36015 0.0
O12 O 0.10035 0.11364 0.4705 0.0
O13 O 0.11671 0.09291 0.45109 0.0
O14 O 0.14914 0.82738 0.61575 0.0
Cd15 Cd 0.1491 0.85397 0.61091 0.0
Cd16 Cd 0.14266 0.85242 0.67453 0.0
O17 O 0.14788 0.8265 0.66647 0.0
O18 O 0.16058 0.85843 0.57062 0.0
O19 O 0.17177 0.86667 0.6152 0.0
C20 C 0.17315 0.86554 0.5856 0.0
C21 C 0.15056 0.86348 0.72287 0.0
C22 C 0.1492 0.81878 0.64071 0.0
C23 C 0.11496 0.86756 0.6321 0.0
O24 O 0.11945 0.86237 0.65871 0.0
O25 O 0.1253 0.8662 0.60944 0.0
O26 O 0.13856 0.85204 0.71975 0.0
O27 O 0.15859 0.86853 0.69839 0.0
O28 O 0.4233 0.89828 0.86587 0.0
Cd29 Cd 0.39668 0.8986 0.86138 0.0
Cd30 Cd 0.39861 0.89142 0.92519 0.0
O31 O 0.42454 0.89615 0.91649 0.0
O32 O 0.39234 0.9098 0.82076 0.0
O33 O 0.38432 0.92152 0.86501 0.0
C34 C 0.38539 0.92259 0.83537 0.0
C35 C 0.38814 0.89934 0.97392 0.0
C36 C 0.43208 0.89778 0.89062 0.0
C37 C 0.38249 0.86451 0.88243 0.0
O38 O 0.38797 0.8686 0.90906 0.0
O39 O 0.38397 0.87504 0.86006 0.0
O40 O 0.39922 0.88705 0.97033 0.0
O41 O 0.38309 0.90762 0.94969 0.0
O42 O 0.35358 0.17309 0.11785 0.0
Cd43 Cd 0.35331 0.14641 0.11442 0.0
Cd44 Cd 0.35966 0.14915 0.1781 0.0
O45 O 0.35446 0.17488 0.16852 0.0
O46 O 0.34306 0.14164 0.07321 0.0
O47 O 0.3302 0.13427 0.11682 0.0
C48 C 0.32987 0.13499 0.0871 0.0
C49 C 0.35121 0.13878 0.22658 0.0
C50 C 0.35337 0.18213 0.14231 0.0
C51 C 0.38735 0.13301 0.13722 0.0
O52 O 0.38301 0.13903 0.16336 0.0
O53 O 0.37689 0.13373 0.11463 0.0
O54 O 0.36325 0.15017 0.22341 0.0
O55 O 0.34345 0.13339 0.20205 0.0
O56 O 0.07721 0.89862 0.12925 0.0
Cd57 Cd 0.10389 0.89921 0.13245 0.0
Cd58 Cd 0.10096 0.89387 0.06849 0.0
O59 O 0.07521 0.89873 0.07858 0.0
O60 O 0.1087 0.90915 0.17391 0.0
O61 O 0.11567 0.92251 0.13057 0.0
C62 C 0.11506 0.92257 0.16032 0.0
C63 C 0.11126 0.90282 0.02023 0.0
C64 C 0.06806 0.89922 0.10494 0.0
C65 C 0.1176 0.86574 0.10792 0.0
O66 O 0.11137 0.87044 0.08214 0.0
O67 O 0.11689 0.87581 0.13106 0.0
O68 O 0.09984 0.89078 0.02306 0.0
O69 O 0.11665 0.91035 0.04498 0.0
O70 O 0.35286 0.82713 0.38201 0.0
Cd71 Cd 0.353 0.85373 0.38668 0.0
Cd72 Cd 0.35802 0.85206 0.32223 0.0
O73 O 0.35263 0.82628 0.33123 0.0
O74 O 0.34283 0.85834 0.42803 0.0
O75 O 0.33015 0.86634 0.38457 0.0
C76 C 0.32978 0.86537 0.41429 0.0
C77 C 0.34972 0.86258 0.2737 0.0
C78 C 0.35201 0.81856 0.35707 0.0
C79 C 0.38663 0.86724 0.36272 0.0
O80 O 0.38158 0.86193 0.3365 0.0
O81 O 0.37677 0.86601 0.38607 0.0
O82 O 0.36159 0.85102 0.27689 0.0
O83 O 0.34204 0.86808 0.29822 0.0
O84 O 0.42315 0.10278 0.63342 0.0
Cd85 Cd 0.39629 0.10218 0.63454 0.0
Cd86 Cd 0.4012 0.10847 0.57263 0.0
O87 O 0.42621 0.10132 0.58304 0.0
O88 O 0.39067 0.09212 0.67559 0.0
O89 O 0.38471 0.07879 0.63177 0.0
C90 C 0.38472 0.07866 0.66153 0.0
C91 C 0.38987 0.10032 0.52472 0.0
C92 C 0.4328 0.1012 0.60983 0.0
C93 C 0.38514 0.13665 0.61137 0.0
O94 O 0.39331 0.13271 0.58697 0.0
O95 O 0.38304 0.12551 0.63262 0.0
O96 O 0.40233 0.11133 0.52717 0.0
O97 O 0.38397 0.0934 0.54968 0.0
O98 O 0.14913 0.17406 0.88558 0.0
Cd99 Cd 0.14896 0.14749 0.89103 0.0
Cd100 Cd 0.14132 0.14867 0.82717 0.0
O101 O 0.14691 0.17453 0.83493 0.0
O102 O 0.16063 0.14323 0.93123 0.0
O103 O 0.17155 0.13464 0.88666 0.0
C104 C 0.17305 0.1359 0.91623 0.0
C105 C 0.14795 0.13799 0.77792 0.0
C106 C 0.14883 0.18244 0.86039 0.0
C107 C 0.1145 0.13364 0.87154 0.0
O108 O 0.11848 0.13867 0.84458 0.0
O109 O 0.12522 0.13524 0.89358 0.0
O110 O 0.13595 0.14929 0.78239 0.0
O111 O 0.15666 0.13281 0.80156 0.0
O112 O 0.92445 0.89934 0.62905 0.0
Cd113 Cd 0.89799 0.8989 0.63563 0.0
Cd114 Cd 0.89909 0.89263 0.57118 0.0
O115 O 0.92513 0.89757 0.5784 0.0
O116 O 0.89553 0.90939 0.67725 0.0
O117 O 0.88441 0.92127 0.63528 0.0
C118 C 0.8873 0.92206 0.66455 0.0
C119 C 0.88789 0.90065 0.52301 0.0
C120 C 0.93294 0.89916 0.604 0.0
C121 C 0.88427 0.86483 0.61416 0.0
O122 O 0.889 0.86956 0.58739 0.0
O123 O 0.88608 0.87493 0.63707 0.0
O124 O 0.89911 0.88844 0.52599 0.0
O125 O 0.88307 0.90877 0.54755 0.0
O126 O 0.85148 0.17428 0.38311 0.0
Cd127 Cd 0.85166 0.14772 0.38872 0.0
Cd128 Cd 0.85776 0.14878 0.32432 0.0
O129 O 0.85241 0.17465 0.33235 0.0
O130 O 0.84146 0.14375 0.43026 0.0
O131 O 0.82875 0.13517 0.38721 0.0
C132 C 0.82839 0.13656 0.41687 0.0
C133 C 0.84955 0.13793 0.276 0.0
C134 C 0.85117 0.18261 0.35787 0.0
C135 C 0.8856 0.13371 0.36639 0.0
O136 O 0.88105 0.1388 0.33975 0.0
O137 O 0.87537 0.1353 0.38917 0.0
O138 O 0.86164 0.14929 0.27905 0.0
O139 O 0.84168 0.13276 0.30057 0.0
O140 O 0.57798 0.10404 0.13567 0.0
Cd141 Cd 0.60463 0.10421 0.13989 0.0
Cd142 Cd 0.60246 0.11029 0.07592 0.0
O143 O 0.57681 0.10437 0.08492 0.0
O144 O 0.60936 0.09368 0.1809 0.0
O145 O 0.61721 0.08137 0.13705 0.0
C146 C 0.61634 0.08075 0.16675 0.0
C147 C 0.61312 0.10276 0.02711 0.0
C148 C 0.56926 0.10336 0.11086 0.0
C149 C 0.61779 0.13831 0.11733 0.0
O150 O 0.61204 0.13378 0.09111 0.0
O151 O 0.61702 0.12794 0.14003 0.0
O152 O 0.60144 0.11447 0.03078 0.0
O153 O 0.61862 0.09476 0.05133 0.0
O154 O 0.64854 0.82677 0.88362 0.0
Cd155 Cd 0.64833 0.85333 0.88905 0.0
Cd156 Cd 0.64259 0.852 0.82412 0.0
O157 O 0.64798 0.82618 0.83282 0.0
O158 O 0.65865 0.85752 0.93042 0.0
O159 O 0.67116 0.866 0.88712 0.0
C160 C 0.67164 0.86472 0.91679 0.0
C161 C 0.6498 0.86219 0.77478 0.0
C162 C 0.64902 0.81833 0.8585 0.0
C163 C 0.61456 0.86718 0.86614 0.0
O164 O 0.61939 0.8621 0.83966 0.0
O165 O 0.62454 0.86563 0.88926 0.0
O166 O 0.63786 0.85083 0.77914 0.0
O167 O 0.65819 0.86767 0.79858 0.0
O168 O 0.92517 0.10192 0.87237 0.0
Cd169 Cd 0.8988 0.10248 0.86456 0.0
Cd170 Cd 0.89892 0.10952 0.92897 0.0
O171 O 0.92498 0.10429 0.92295 0.0
O172 O 0.89683 0.09167 0.82311 0.0
O173 O 0.88504 0.08022 0.86488 0.0
C174 C 0.8883 0.07919 0.83575 0.0
C175 C 0.8873 0.10195 0.97704 0.0
C176 C 0.93322 0.10231 0.89787 0.0
C177 C 0.88476 0.13682 0.88441 0.0
O178 O 0.88912 0.13245 0.91156 0.0
O179 O 0.8869 0.12643 0.86199 0.0
O180 O 0.8985 0.11418 0.97399 0.0
O181 O 0.88266 0.09363 0.95261 0.0
O182 O 0.64714 0.17449 0.61666 0.0
Cd183 Cd 0.64778 0.1478 0.61413 0.0
Cd184 Cd 0.64252 0.15091 0.67771 0.0
O185 O 0.6473 0.17664 0.6673 0.0
O186 O 0.659 0.14235 0.574 0.0
O187 O 0.67085 0.13595 0.61901 0.0
C188 C 0.67192 0.13613 0.5893 0.0
C189 C 0.65098 0.14109 0.7266 0.0
C190 C 0.64775 0.18372 0.64088 0.0
C191 C 0.61441 0.13406 0.63829 0.0
O192 O 0.6192 0.14029 0.66401 0.0
O193 O 0.62438 0.1348 0.61502 0.0
O194 O 0.63889 0.15238 0.72296 0.0
O195 O 0.65888 0.13558 0.7023 0.0
O196 O 0.57791 0.89843 0.36306 0.0
Cd197 Cd 0.60456 0.89867 0.35922 0.0
Cd198 Cd 0.60217 0.8914 0.42269 0.0
O199 O 0.57637 0.89666 0.41368 0.0
O200 O 0.60928 0.91038 0.31922 0.0
O201 O 0.61698 0.92146 0.36417 0.0
C202 C 0.61612 0.92295 0.33456 0.0
C203 C 0.61244 0.8986 0.47193 0.0
C204 C 0.56899 0.89821 0.38766 0.0
C205 C 0.61821 0.86441 0.37987 0.0
O206 O 0.61248 0.86847 0.40635 0.0
O207 O 0.61716 0.87508 0.35763 0.0
O208 O 0.60118 0.88655 0.46763 0.0
O209 O 0.61776 0.90709 0.44813 0.0
O210 O 0.85235 0.82632 0.11877 0.0
Cd211 Cd 0.85228 0.85292 0.11408 0.0
Cd212 Cd 0.85816 0.85138 0.17767 0.0
O213 O 0.8532 0.82543 0.1695 0.0
O214 O 0.84094 0.85748 0.07369 0.0
O215 O 0.82953 0.86547 0.11823 0.0
C216 C 0.82827 0.86445 0.0886 0.0
C217 C 0.84959 0.86238 0.22566 0.0
C218 C 0.85215 0.81771 0.14372 0.0
C219 C 0.88618 0.86668 0.13621 0.0
O220 O 0.8815 0.86143 0.16268 0.0
O221 O 0.87602 0.86531 0.11329 0.0
O222 O 0.8617 0.85102 0.22302 0.0
O223 O 0.84184 0.86741 0.20087 0.0
O224 O 0.57669 0.60302 0.86624 0.0
Cd225 Cd 0.60336 0.60271 0.86258 0.0
Cd226 Cd 0.60095 0.60967 0.92589 0.0
O227 O 0.5751 0.60478 0.91685 0.0
O228 O 0.60817 0.59139 0.82225 0.0
O229 O 0.61565 0.5798 0.86691 0.0
C230 C 0.61491 0.57863 0.83725 0.0
C231 C 0.61147 0.60134 0.97434 0.0
C232 C 0.56774 0.6033 0.8908 0.0
C233 C 0.6171 0.63688 0.88395 0.0
O234 O 0.61134 0.63275 0.91038 0.0
O235 O 0.61603 0.6263 0.86159 0.0
O236 O 0.60026 0.61355 0.97115 0.0
O237 O 0.61662 0.59338 0.94985 0.0
O238 O 0.6487 0.32861 0.11482 0.0
Cd239 Cd 0.64862 0.35527 0.11084 0.0
Cd240 Cd 0.64404 0.35354 0.17397 0.0
O241 O 0.64968 0.32778 0.16552 0.0
O242 O 0.65901 0.36031 0.06985 0.0
O243 O 0.67151 0.3677 0.11382 0.0
C244 C 0.67204 0.36707 0.08408 0.0
C245 C 0.65413 0.36542 0.22007 0.0
C246 C 0.64997 0.32003 0.1397 0.0
C247 C 0.61493 0.36845 0.13515 0.0
O248 O 0.61994 0.36276 0.16113 0.0
O249 O 0.62492 0.36771 0.11191 0.0
O250 O 0.64247 0.35352 0.21966 0.0
O251 O 0.66055 0.37055 0.1942 0.0
O252 O 0.92219 0.39771 0.36774 0.0
Cd253 Cd 0.89559 0.39818 0.36281 0.0
Cd254 Cd 0.8974 0.39075 0.42727 0.0
O255 O 0.92332 0.39526 0.41833 0.0
O256 O 0.89171 0.40859 0.32139 0.0
O257 O 0.88341 0.42131 0.36458 0.0
C258 C 0.88473 0.42172 0.33492 0.0
C259 C 0.88766 0.39822 0.47675 0.0
C260 C 0.93091 0.397 0.39254 0.0
C261 C 0.88109 0.36415 0.384 0.0
O262 O 0.88647 0.36816 0.41074 0.0
O263 O 0.88276 0.37468 0.36169 0.0
O264 O 0.8984 0.38573 0.47218 0.0
O265 O 0.88248 0.4069 0.45306 0.0
O266 O 0.8522 0.67399 0.61853 0.0
Cd267 Cd 0.85192 0.64733 0.61447 0.0
Cd268 Cd 0.85858 0.64974 0.67824 0.0
O269 O 0.85326 0.67551 0.66922 0.0
O270 O 0.84172 0.64292 0.57308 0.0
O271 O 0.8288 0.63516 0.61641 0.0
C272 C 0.82852 0.63614 0.5867 0.0
C273 C 0.85046 0.63899 0.72664 0.0
C274 C 0.85207 0.6829 0.64314 0.0
C275 C 0.88607 0.63383 0.63667 0.0
O276 O 0.88187 0.63975 0.66294 0.0
O277 O 0.8755 0.63464 0.61425 0.0
O278 O 0.86239 0.6505 0.72352 0.0
O279 O 0.84261 0.6337 0.70213 0.0
O280 O 0.57579 0.40014 0.63082 0.0
Cd281 Cd 0.60241 0.39981 0.63516 0.0
Cd282 Cd 0.60016 0.39438 0.57092 0.0
O283 O 0.57454 0.40032 0.58008 0.0
O284 O 0.60705 0.4097 0.67671 0.0
O285 O 0.61506 0.42266 0.63355 0.0
C286 C 0.61407 0.42284 0.66326 0.0
C287 C 0.61084 0.40203 0.52222 0.0
C288 C 0.56702 0.40106 0.60609 0.0
C289 C 0.61516 0.36578 0.61149 0.0
O290 O 0.60946 0.37064 0.58541 0.0
O291 O 0.61454 0.37593 0.63452 0.0
O292 O 0.59878 0.3907 0.52566 0.0
O293 O 0.61672 0.40962 0.54655 0.0
O294 O 0.85294 0.32637 0.88538 0.0
Cd295 Cd 0.85346 0.35292 0.89085 0.0
Cd296 Cd 0.859 0.35206 0.82694 0.0
O297 O 0.85333 0.32621 0.83461 0.0
O298 O 0.84195 0.35755 0.93106 0.0
O299 O 0.83106 0.36603 0.88636 0.0
C300 C 0.82957 0.3649 0.91595 0.0
C301 C 0.8511 0.36326 0.77871 0.0
C302 C 0.85229 0.31814 0.86006 0.0
C303 C 0.88746 0.36634 0.86879 0.0
O304 O 0.88253 0.36151 0.84221 0.0
O305 O 0.87742 0.36484 0.89185 0.0
O306 O 0.86284 0.35155 0.78165 0.0
O307 O 0.84335 0.36857 0.8033 0.0
O308 O 0.92612 0.60037 0.13134 0.0
Cd309 Cd 0.89953 0.60156 0.13657 0.0
Cd310 Cd 0.90128 0.60934 0.07283 0.0
O311 O 0.92733 0.60547 0.08132 0.0
O312 O 0.89497 0.59024 0.17698 0.0
O313 O 0.88605 0.5793 0.13264 0.0
C314 C 0.88736 0.5779 0.16222 0.0
C315 C 0.89072 0.60111 0.02436 0.0
C316 C 0.93482 0.60223 0.10673 0.0
C317 C 0.88567 0.63612 0.11616 0.0
O318 O 0.89029 0.63182 0.08914 0.0
O319 O 0.88786 0.62577 0.13863 0.0
O320 O 0.90154 0.61366 0.02768 0.0
O321 O 0.88603 0.59274 0.0487 0.0
O322 O 0.64912 0.67454 0.38068 0.0
Cd323 Cd 0.64894 0.64797 0.38611 0.0
Cd324 Cd 0.64214 0.6491 0.32223 0.0
O325 O 0.64779 0.67494 0.32995 0.0
O326 O 0.66014 0.64373 0.42674 0.0
O327 O 0.67162 0.63519 0.38258 0.0
C328 C 0.67277 0.63646 0.41219 0.0
C329 C 0.64972 0.63805 0.27373 0.0
C330 C 0.64927 0.68289 0.35545 0.0
C331 C 0.61464 0.6343 0.3653 0.0
O332 O 0.61891 0.63942 0.33853 0.0
O333 O 0.62517 0.63569 0.38767 0.0
O334 O 0.63779 0.64953 0.27709 0.0
O335 O 0.6578 0.63286 0.29807 0.0
O336 O 0.42394 0.39797 0.13843 0.0
Cd337 Cd 0.3973 0.39808 0.14267 0.0
Cd338 Cd 0.39923 0.39322 0.07836 0.0
O339 O 0.42495 0.39871 0.08768 0.0
O340 O 0.3925 0.40847 0.18375 0.0
O341 O 0.38494 0.42102 0.13993 0.0
C342 C 0.38568 0.42152 0.16966 0.0
C343 C 0.3889 0.40111 0.02947 0.0
C344 C 0.4326 0.39905 0.11361 0.0
C345 C 0.38376 0.3646 0.11853 0.0
O346 O 0.38937 0.36964 0.09251 0.0
O347 O 0.38477 0.37445 0.1419 0.0
O348 O 0.40052 0.38935 0.03315 0.0
O349 O 0.38329 0.409 0.05372 0.0
O350 O 0.35164 0.67475 0.88213 0.0
Cd351 Cd 0.35173 0.6482 0.88774 0.0
Cd352 Cd 0.35712 0.64919 0.82316 0.0
O353 O 0.35183 0.67508 0.83133 0.0
O354 O 0.34103 0.64403 0.92882 0.0
O355 O 0.32897 0.63552 0.88512 0.0
C356 C 0.32819 0.63681 0.91477 0.0
C357 C 0.34917 0.63846 0.77457 0.0
C358 C 0.35101 0.68307 0.85689 0.0
C359 C 0.38539 0.63422 0.86478 0.0
O360 O 0.38047 0.63923 0.8383 0.0
O361 O 0.37547 0.63584 0.88797 0.0
O362 O 0.36113 0.6499 0.77792 0.0
O363 O 0.3412 0.63318 0.79897 0.0
O364 O 0.07618 0.60282 0.63561 0.0
Cd365 Cd 0.10278 0.60293 0.64032 0.0
Cd366 Cd 0.10118 0.60861 0.57607 0.0
O367 O 0.07538 0.60316 0.58484 0.0
O368 O 0.10746 0.59161 0.68068 0.0
O369 O 0.11543 0.58025 0.63607 0.0
C370 C 0.11446 0.57898 0.66571 0.0
C371 C 0.11163 0.60099 0.52713 0.0
C372 C 0.06763 0.60223 0.61062 0.0
C373 C 0.11645 0.63672 0.61776 0.0
O374 O 0.1112 0.6319 0.59137 0.0
O375 O 0.11508 0.6267 0.64086 0.0
O376 O 0.10016 0.61289 0.53092 0.0
O377 O 0.11707 0.59289 0.55127 0.0
O378 O 0.14731 0.32596 0.38693 0.0
Cd379 Cd 0.14716 0.35252 0.39236 0.0
Cd380 Cd 0.14185 0.35172 0.3282 0.0
O381 O 0.14722 0.32583 0.33614 0.0
O382 O 0.15861 0.35715 0.43261 0.0
O383 O 0.16976 0.36526 0.38789 0.0
C384 C 0.17113 0.36427 0.41751 0.0
C385 C 0.14948 0.36243 0.27942 0.0
C386 C 0.14802 0.31774 0.36161 0.0
C387 C 0.11349 0.36646 0.36994 0.0
O388 O 0.11847 0.36158 0.34343 0.0
O389 O 0.12338 0.36478 0.39314 0.0
O390 O 0.13753 0.351 0.28308 0.0
O391 O 0.15763 0.3677 0.30363 0.0
O392 O 0.42444 0.60318 0.36856 0.0
Cd393 Cd 0.39782 0.60303 0.36393 0.0
Cd394 Cd 0.39936 0.6097 0.42747 0.0
O395 O 0.42526 0.6045 0.41926 0.0
O396 O 0.39332 0.59144 0.32374 0.0
O397 O 0.3853 0.58027 0.36847 0.0
C398 C 0.38633 0.57886 0.33886 0.0
C399 C 0.38843 0.60156 0.47575 0.0
C400 C 0.43301 0.60315 0.39354 0.0
C401 C 0.38384 0.63709 0.38502 0.0
O402 O 0.3892 0.63283 0.41164 0.0
O403 O 0.38524 0.62663 0.36254 0.0
O404 O 0.39975 0.61369 0.47271 0.0
O405 O 0.3834 0.59357 0.45121 0.0
O406 O 0.14901 0.67447 0.11932 0.0
Cd407 Cd 0.14979 0.6476 0.11898 0.0
Cd408 Cd 0.14311 0.65321 0.1807 0.0
O409 O 0.15025 0.67814 0.16959 0.0
O410 O 0.15974 0.64177 0.07793 0.0
O411 O 0.17329 0.63621 0.1217 0.0
C412 C 0.1733 0.63601 0.09194 0.0
C413 C 0.15106 0.64213 0.2289 0.0
C414 C 0.15045 0.68441 0.14255 0.0
C415 C 0.11526 0.63654 0.14207 0.0
O416 O 0.11899 0.64511 0.16616 0.0
O417 O 0.12655 0.63419 0.12117 0.0
O418 O 0.14008 0.65459 0.22612 0.0
O419 O 0.15811 0.63613 0.20412 0.0
O420 O 0.07849 0.39802 0.86875 0.0
Cd421 Cd 0.1051 0.39834 0.86393 0.0
Cd422 Cd 0.10327 0.39136 0.92808 0.0
O423 O 0.07739 0.39633 0.91943 0.0
O424 O 0.10917 0.40889 0.8227 0.0
O425 O 0.11738 0.42139 0.86616 0.0
C426 C 0.11615 0.42194 0.83649 0.0
C427 C 0.11353 0.39878 0.97723 0.0
C428 C 0.06979 0.39778 0.89359 0.0
C429 C 0.11913 0.36425 0.88533 0.0
O430 O 0.11366 0.36843 0.91192 0.0
O431 O 0.11778 0.37476 0.86291 0.0
O432 O 0.10241 0.38659 0.97305 0.0
O433 O 0.11874 0.40727 0.95334 0.0
O434 O 0.35041 0.32623 0.62114 0.0
Cd435 Cd 0.35138 0.35281 0.61542 0.0
Cd436 Cd 0.35943 0.35114 0.67983 0.0
O437 O 0.35567 0.32509 0.67115 0.0
O438 O 0.34091 0.35686 0.57413 0.0
O439 O 0.32879 0.36593 0.61738 0.0
C440 C 0.32813 0.3644 0.58777 0.0
C441 C 0.35194 0.36132 0.72897 0.0
C442 C 0.35239 0.31757 0.64578 0.0
C443 C 0.38582 0.36708 0.63601 0.0
O444 O 0.38165 0.3624 0.66305 0.0
O445 O 0.37546 0.36476 0.6136 0.0
O446 O 0.36452 0.35066 0.72471 0.0
O447 O 0.34306 0.36604 0.70521 0.0
H448 H 0.12274 0.04665 0.35938 0.0
H449 H 0.12806 0.01968 0.33098 0.0
H450 H 0.12198 0.04705 0.24509 0.0
H451 H 0.11666 0.07398 0.27315 0.0
H452 H 0.1028 0.00572 0.2894 0.0
H453 H 0.16589 0.01699 0.23121 0.0
H454 H 0.15907 0.02915 0.26466 0.0
H455 H 0.15044 0.0343 0.22734 0.0
C456 C 0.12288 0.04699 0.33445 0.0
C457 C 0.11923 0.06244 0.31852 0.0
C458 C 0.12591 0.03158 0.31827 0.0
C459 C 0.12559 0.03142 0.28595 0.0
C460 C 0.12259 0.04695 0.27001 0.0
H461 H 0.12048 0.95573 0.13979 0.0
H462 H 0.12461 0.98177 0.17133 0.0
C463 C 0.11944 0.06231 0.28613 0.0
C464 C 0.1265 0.0148 0.26887 0.0
H465 H 0.14913 0.99302 0.21338 0.0
C466 C 0.11304 0.00281 0.27306 0.0
C467 C 0.13975 0.01121 0.2473 0.0
C468 C 0.15471 0.02351 0.24245 0.0
C469 C 0.11217 0.98753 0.25563 0.0
C470 C 0.12543 0.98388 0.23398 0.0
C471 C 0.13902 0.9958 0.23004 0.0
C472 C 0.12502 0.96797 0.21473 0.0
C473 C 0.09666 0.97579 0.25972 0.0
C474 C 0.12458 0.95152 0.22853 0.0
C475 C 0.12203 0.93669 0.21064 0.0
C476 C 0.1202 0.93797 0.1785 0.0
C477 C 0.12182 0.95433 0.16449 0.0
C478 C 0.12417 0.96922 0.18249 0.0
H479 H 0.08562 0.98268 0.27071 0.0
H480 H 0.09224 0.9705 0.23728 0.0
H481 H 0.10028 0.96477 0.27481 0.0
H482 H 0.12569 0.9502 0.25328 0.0
H483 H 0.12106 0.92425 0.22209 0.0
H484 H 0.17841 0.86717 0.52354 0.0
H485 H 0.20576 0.87223 0.49656 0.0
H486 H 0.23147 0.88098 0.58332 0.0
H487 H 0.2041 0.87589 0.61065 0.0
H488 H 0.23097 0.9012 0.49812 0.0
H489 H 0.25645 0.83843 0.54249 0.0
H490 H 0.23367 0.84377 0.54335 0.0
H491 H 0.24823 0.85343 0.57063 0.0
C492 C 0.18981 0.87041 0.53692 0.0
C493 C 0.18912 0.87096 0.56929 0.0
C494 C 0.20541 0.87335 0.52143 0.0
C495 C 0.22063 0.87677 0.53798 0.0
C496 C 0.21986 0.87818 0.57018 0.0
H497 H 0.32762 0.87014 0.47634 0.0
H498 H 0.30161 0.87573 0.50683 0.0
C499 C 0.20421 0.87533 0.58573 0.0
C500 C 0.23746 0.87749 0.52158 0.0
H501 H 0.27466 0.85447 0.50998 0.0
C502 C 0.24061 0.89108 0.50081 0.0
C503 C 0.24994 0.86422 0.52511 0.0
C504 C 0.24696 0.84904 0.54641 0.0
C505 C 0.25602 0.89177 0.48351 0.0
C506 C 0.26836 0.87829 0.48657 0.0
C507 C 0.26524 0.86484 0.50769 0.0
C508 C 0.28438 0.87738 0.4676 0.0
C509 C 0.25899 0.90703 0.46242 0.0
C510 C 0.28345 0.87676 0.4353 0.0
C511 C 0.29838 0.87374 0.41774 0.0
C512 C 0.31445 0.87099 0.43222 0.0
C513 C 0.31543 0.87215 0.46448 0.0
C514 C 0.30056 0.87535 0.48196 0.0
H515 H 0.25141 0.91853 0.46992 0.0
H516 H 0.27292 0.91061 0.46147 0.0
H517 H 0.25467 0.90358 0.43883 0.0
H518 H 0.27108 0.87785 0.42368 0.0
H519 H 0.29718 0.87277 0.39295 0.0
H520 H 0.3777 0.07674 0.72294 0.0
H521 H 0.37293 0.05065 0.75368 0.0
H522 H 0.37567 0.01932 0.67156 0.0
H523 H 0.37998 0.0455 0.64045 0.0
H524 H 0.3506 0.00769 0.71263 0.0
H525 H 0.4133 0.01863 0.7724 0.0
H526 H 0.39839 0.03638 0.77594 0.0
H527 H 0.40697 0.03076 0.73873 0.0
C528 C 0.37706 0.06433 0.71134 0.0
C529 C 0.37942 0.06316 0.6793 0.0
C530 C 0.37443 0.04941 0.72898 0.0
C531 C 0.37441 0.033 0.71503 0.0
C532 C 0.37578 0.03185 0.68283 0.0
H533 H 0.38284 0.9269 0.77319 0.0
H534 H 0.3776 0.95382 0.7451 0.0
C535 C 0.37823 0.04682 0.66508 0.0
C536 C 0.37396 0.01704 0.73415 0.0
H537 H 0.39617 0.99535 0.79026 0.0
C538 C 0.36054 0.00499 0.72964 0.0
C539 C 0.387 0.0135 0.75625 0.0
C540 C 0.40232 0.0254 0.76098 0.0
C541 C 0.35976 0.98955 0.74681 0.0
C542 C 0.3728 0.98605 0.76884 0.0
C543 C 0.38608 0.99817 0.77357 0.0
C544 C 0.37368 0.96942 0.7859 0.0
C545 C 0.34497 0.97713 0.74138 0.0
C546 C 0.37317 0.96923 0.81823 0.0
C547 C 0.37617 0.95382 0.83443 0.0
C548 C 0.37997 0.9384 0.81854 0.0
C549 C 0.37994 0.93855 0.78614 0.0
C550 C 0.37683 0.95391 0.77 0.0
H551 H 0.33382 0.98361 0.72997 0.0
H552 H 0.34946 0.96647 0.72618 0.0
H553 H 0.34048 0.97132 0.76338 0.0
H554 H 0.3709 0.98111 0.83092 0.0
H555 H 0.37617 0.95415 0.85936 0.0
H556 H 0.20429 0.12657 0.89114 0.0
H557 H 0.23151 0.12108 0.9187 0.0
H558 H 0.20506 0.12746 0.00542 0.0
H559 H 0.1779 0.13296 0.9782 0.0
H560 H 0.24588 0.14649 0.95977 0.0
H561 H 0.23522 0.08346 0.01853 0.0
H562 H 0.22278 0.09021 0.98534 0.0
H563 H 0.2179 0.09889 0.02273 0.0
C564 C 0.2042 0.12644 0.91608 0.0
C565 C 0.18896 0.13026 0.93249 0.0
C566 C 0.21975 0.12332 0.93177 0.0
C567 C 0.22024 0.12369 0.96408 0.0
C568 C 0.2049 0.12681 0.9805 0.0
H569 H 0.2969 0.12931 0.10834 0.0
H570 H 0.2707 0.12491 0.07734 0.0
C571 C 0.18941 0.13007 0.96487 0.0
C572 C 0.23702 0.1228 0.98063 0.0
H573 H 0.25929 0.10031 0.03567 0.0
C574 C 0.24895 0.13628 0.97606 0.0
C575 C 0.24082 0.10958 0.00216 0.0
C576 C 0.22859 0.09462 0.0074 0.0
C577 C 0.26436 0.13722 0.99313 0.0
C578 C 0.26821 0.12401 0.01475 0.0
C579 C 0.25637 0.11038 0.01903 0.0
C580 C 0.28423 0.12452 0.03368 0.0
C581 C 0.276 0.15277 0.9887 0.0
C582 C 0.30058 0.12505 0.01955 0.0
C583 C 0.31551 0.12777 0.03713 0.0
C584 C 0.31441 0.12966 0.06927 0.0
C585 C 0.29816 0.12793 0.08362 0.0
C586 C 0.28318 0.12542 0.06594 0.0
H587 H 0.269 0.16377 0.97781 0.0
H588 H 0.28143 0.15725 0.01101 0.0
H589 H 0.28694 0.14917 0.97339 0.0
H590 H 0.30176 0.1239 0.99478 0.0
H591 H 0.32787 0.12882 0.02542 0.0
H592 H 0.86146 0.9458 0.65364 0.0
H593 H 0.85524 0.97217 0.68332 0.0
H594 H 0.89756 0.96006 0.74477 0.0
H595 H 0.90292 0.93331 0.71666 0.0
H596 H 0.87292 0.97228 0.77671 0.0
H597 H 0.88089 0.01606 0.67623 0.0
H598 H 0.86332 0.00104 0.67209 0.0
H599 H 0.88531 0.99318 0.67391 0.0
C600 C 0.86928 0.94876 0.67367 0.0
C601 C 0.8827 0.93756 0.68281 0.0
C602 C 0.86585 0.96391 0.69046 0.0
C603 C 0.87621 0.96843 0.71591 0.0
C604 C 0.88935 0.95697 0.72528 0.0
H605 H 0.90447 0.06724 0.78467 0.0
H606 H 0.89879 0.04055 0.75657 0.0
C607 C 0.89244 0.94165 0.70913 0.0
C608 C 0.87389 0.98513 0.73272 0.0
H609 H 0.87421 0.02912 0.72357 0.0
C610 C 0.87318 0.98472 0.76506 0.0
C611 C 0.87426 0.00141 0.71759 0.0
C612 C 0.87615 0.00301 0.68309 0.0
C613 C 0.8738 0.99998 0.78271 0.0
C614 C 0.87418 0.01626 0.76759 0.0
C615 C 0.87391 0.01668 0.73522 0.0
C616 C 0.87679 0.03288 0.78448 0.0
C617 C 0.87517 0.99832 0.81728 0.0
C618 C 0.86621 0.03775 0.80944 0.0
C619 C 0.86982 0.05286 0.82624 0.0
C620 C 0.88364 0.06367 0.8176 0.0
C621 C 0.89367 0.05921 0.79181 0.0
C622 C 0.89039 0.04393 0.77566 0.0
H623 H 0.8794 0.98513 0.82434 0.0
H624 H 0.8845 0.00786 0.82686 0.0
H625 H 0.86226 0.00071 0.82773 0.0
H626 H 0.85526 0.02982 0.81614 0.0
H627 H 0.86177 0.05611 0.84585 0.0
H628 H 0.79561 0.1295 0.39604 0.0
H629 H 0.7695 0.12507 0.42729 0.0
H630 H 0.80047 0.12703 0.50991 0.0
H631 H 0.82646 0.13196 0.47898 0.0
H632 H 0.75888 0.10108 0.47081 0.0
H633 H 0.76635 0.16616 0.5238 0.0
H634 H 0.77902 0.15929 0.49112 0.0
H635 H 0.7848 0.15233 0.52932 0.0
C636 C 0.79687 0.12877 0.42084 0.0
C637 C 0.81304 0.13132 0.43508 0.0
C638 C 0.78195 0.12625 0.43867 0.0
C639 C 0.78298 0.12616 0.47097 0.0
C640 C 0.79929 0.12754 0.48508 0.0
H641 H 0.70368 0.12868 0.61428 0.0
H642 H 0.73089 0.12362 0.58651 0.0
C643 C 0.81415 0.13026 0.46734 0.0
C644 C 0.76696 0.12555 0.48992 0.0
H645 H 0.74394 0.14846 0.54341 0.0
C646 C 0.75561 0.11142 0.48671 0.0
C647 C 0.76267 0.13912 0.51056 0.0
C648 C 0.77375 0.15516 0.51375 0.0
C649 C 0.74015 0.11044 0.50379 0.0
C650 C 0.73592 0.12399 0.5244 0.0
C651 C 0.74734 0.138 0.52783 0.0
C652 C 0.71922 0.12458 0.54125 0.0
C653 C 0.72848 0.09492 0.49978 0.0
C654 C 0.70364 0.12662 0.52499 0.0
C655 C 0.68813 0.12961 0.54074 0.0
C656 C 0.6879 0.13064 0.57309 0.0
C657 C 0.70341 0.12789 0.58939 0.0
C658 C 0.71896 0.12502 0.57357 0.0
H659 H 0.73549 0.08378 0.48938 0.0
H660 H 0.72291 0.09081 0.5222 0.0
H661 H 0.71759 0.09843 0.48427 0.0
H662 H 0.70359 0.12664 0.50005 0.0
H663 H 0.67641 0.13169 0.52749 0.0
H664 H 0.62628 0.9538 0.36029 0.0
H665 H 0.63147 0.98131 0.33349 0.0
H666 H 0.62314 0.95606 0.24618 0.0
H667 H 0.61802 0.92856 0.27262 0.0
H668 H 0.65191 0.98118 0.24818 0.0
H669 H 0.5892 0.00659 0.29292 0.0
H670 H 0.60418 0.99832 0.32105 0.0
H671 H 0.59455 0.98381 0.29363 0.0
C672 C 0.62583 0.95404 0.33537 0.0
C673 C 0.62157 0.93903 0.3186 0.0
C674 C 0.62874 0.96977 0.32012 0.0
C675 C 0.62747 0.97072 0.28791 0.0
C676 C 0.62415 0.95558 0.27106 0.0
H677 H 0.62355 0.04829 0.14454 0.0
H678 H 0.62861 0.02193 0.17461 0.0
C679 C 0.62117 0.93989 0.28624 0.0
C680 C 0.62824 0.98764 0.27181 0.0
H681 H 0.60539 0.02501 0.26099 0.0
C682 C 0.64183 0.99085 0.25107 0.0
C683 C 0.61502 1.00015 0.27559 0.0
C684 C 0.59981 0.9971 0.2968 0.0
C685 C 0.64258 0.00636 0.23407 0.0
C686 C 0.62916 0.01875 0.23743 0.0
C687 C 0.61571 0.01556 0.25849 0.0
C688 C 0.62834 0.03491 0.21884 0.0
C689 C 0.65782 0.00939 0.21298 0.0
C690 C 0.62645 0.05099 0.23359 0.0
C691 C 0.62328 0.066 0.2165 0.0
C692 C 0.62199 0.06527 0.18423 0.0
C693 C 0.62462 0.0493 0.16934 0.0
C694 C 0.62762 0.03422 0.18652 0.0
H695 H 0.66929 0.00167 0.22022 0.0
H696 H 0.6543 0.0053 0.1893 0.0
H697 H 0.6615 0.0233 0.21237 0.0
H698 H 0.62691 0.05185 0.25848 0.0
H699 H 0.62137 0.07811 0.22867 0.0
H700 H 0.67396 0.86889 0.97896 0.0
H701 H 0.70003 0.87427 0.0094 0.0
H702 H 0.73034 0.87727 0.92608 0.0
H703 H 0.70417 0.87239 0.89541 0.0
H704 H 0.72708 0.85309 0.01172 0.0
H705 H 0.74994 0.91762 0.97333 0.0
H706 H 0.72844 0.90968 0.96482 0.0
H707 H 0.74667 0.9029 0.94189 0.0
C708 C 0.68611 0.87105 0.96706 0.0
C709 C 0.68701 0.87019 0.93476 0.0
C710 C 0.70101 0.87412 0.98451 0.0
C711 C 0.71715 0.87634 0.97009 0.0
C712 C 0.718 0.87602 0.93776 0.0
H713 H 0.82322 0.86633 0.02649 0.0
H714 H 0.79594 0.87133 0.99926 0.0
C715 C 0.70303 0.87312 0.92023 0.0
C716 C 0.73321 0.87715 0.98898 0.0
H717 H 0.77044 0.90022 0.00119 0.0
C718 C 0.73643 0.86354 0.00971 0.0
C719 C 0.74547 0.89074 0.98627 0.0
C720 C 0.7424 0.90615 0.96559 0.0
C721 C 0.75172 0.86288 0.02714 0.0
C722 C 0.7641 0.87628 0.024 0.0
C723 C 0.76087 0.89 0.00358 0.0
C724 C 0.78088 0.87558 0.04057 0.0
C725 C 0.75481 0.84755 0.04805 0.0
C726 C 0.78153 0.87685 0.07279 0.0
C727 C 0.79714 0.87403 0.08849 0.0
C728 C 0.81232 0.86984 0.07216 0.0
C729 C 0.81175 0.86943 0.03978 0.0
C730 C 0.79618 0.87233 0.02414 0.0
H731 H 0.7454 0.83689 0.04383 0.0
H732 H 0.76814 0.84241 0.04491 0.0
H733 H 0.75347 0.85173 0.07238 0.0
H734 H 0.76986 0.8795 0.08584 0.0
H735 H 0.79715 0.87447 0.11342 0.0
H736 H 0.61962 0.42441 0.72517 0.0
H737 H 0.62477 0.45025 0.75639 0.0
H738 H 0.62532 0.48173 0.67431 0.0
H739 H 0.62068 0.45578 0.64276 0.0
H740 H 0.64972 0.49239 0.71697 0.0
H741 H 0.58547 0.48381 0.77259 0.0
H742 H 0.59961 0.46552 0.7772 0.0
H743 H 0.59206 0.4714 0.73941 0.0
C744 C 0.62106 0.4368 0.7137 0.0
C745 C 0.61954 0.43809 0.68152 0.0
C746 C 0.62391 0.45157 0.7316 0.0
C747 C 0.62495 0.46798 0.71776 0.0
C748 C 0.62441 0.46921 0.6855 0.0
H749 H 0.61856 0.57421 0.77528 0.0
H750 H 0.62368 0.54713 0.74759 0.0
C751 C 0.62177 0.45437 0.66749 0.0
C752 C 0.62562 0.4839 0.73697 0.0
H753 H 0.60309 0.50641 0.79166 0.0
C754 C 0.63955 0.49545 0.73334 0.0
C755 C 0.61227 0.48793 0.75824 0.0
C756 C 0.59642 0.47662 0.76194 0.0
C757 C 0.64053 0.51087 0.75054 0.0
C758 C 0.62719 0.51485 0.77173 0.0
C759 C 0.6134 0.50321 0.77562 0.0
C760 C 0.62654 0.53152 0.78866 0.0
C761 C 0.65583 0.52278 0.74602 0.0
C762 C 0.62652 0.53176 0.82099 0.0
C763 C 0.62361 0.54726 0.83696 0.0
C764 C 0.62039 0.56273 0.8208 0.0
C765 C 0.62099 0.56252 0.78842 0.0
C766 C 0.62403 0.54707 0.77253 0.0
H767 H 0.66694 0.51595 0.73516 0.0
H768 H 0.65197 0.53364 0.73072 0.0
H769 H 0.66013 0.52837 0.76832 0.0
H770 H 0.62829 0.51985 0.83385 0.0
H771 H 0.62316 0.54697 0.86188 0.0
H772 H 0.82397 0.36629 0.97796 0.0
H773 H 0.79661 0.3719 0.00453 0.0
H774 H 0.77166 0.38186 0.91748 0.0
H775 H 0.79904 0.37621 0.89056 0.0
H776 H 0.77216 0.40146 0.00322 0.0
H777 H 0.74533 0.33974 0.95678 0.0
H778 H 0.76824 0.34451 0.95641 0.0
H779 H 0.75407 0.35474 0.92913 0.0
C780 C 0.81274 0.36991 0.96443 0.0
C781 C 0.81364 0.37063 0.93209 0.0
C782 C 0.79713 0.37316 0.97969 0.0
C783 C 0.7821 0.37708 0.96293 0.0
C784 C 0.78311 0.37867 0.93078 0.0
H785 H 0.67461 0.37259 0.02227 0.0
H786 H 0.70091 0.37797 0.99244 0.0
C787 C 0.79877 0.3755 0.91546 0.0
C788 C 0.7652 0.37813 0.97902 0.0
H789 H 0.72732 0.35604 0.98922 0.0
C790 C 0.76227 0.39163 1.00007 0.0
C791 C 0.75238 0.36523 0.97487 0.0
C792 C 0.75511 0.35014 0.95327 0.0
C793 C 0.74677 0.3926 0.01706 0.0
C794 C 0.73409 0.37948 0.01338 0.0
C795 C 0.73699 0.36613 0.99198 0.0
C796 C 0.71794 0.37883 0.03202 0.0
C797 C 0.74407 0.40775 0.03849 0.0
C798 C 0.71866 0.37787 0.06432 0.0
C799 C 0.70357 0.37498 0.08151 0.0
C800 C 0.68755 0.37268 0.06664 0.0
C801 C 0.68677 0.37424 0.03441 0.0
C802 C 0.7018 0.37731 0.01731 0.0
H803 H 0.75199 0.41911 0.03144 0.0
H804 H 0.73023 0.41169 0.03928 0.0
H805 H 0.74815 0.40399 0.06206 0.0
H806 H 0.73099 0.37857 0.07618 0.0
H807 H 0.70461 0.3737 0.10627 0.0
H808 H 0.87758 0.45443 0.35602 0.0
H809 H 0.87302 0.48058 0.3251 0.0
H810 H 0.87554 0.44997 0.24207 0.0
H811 H 0.8806 0.42394 0.27274 0.0
H812 H 0.89702 0.47675 0.23934 0.0
H813 H 0.83284 0.50052 0.27783 0.0
H814 H 0.84755 0.49717 0.30926 0.0
H815 H 0.84053 0.47896 0.28652 0.0
C816 C 0.87681 0.45324 0.33121 0.0
C817 C 0.87951 0.43714 0.31682 0.0
C818 C 0.8741 0.46819 0.31354 0.0
C819 C 0.87373 0.46725 0.28122 0.0
C820 C 0.87573 0.45104 0.26695 0.0
H821 H 0.87639 0.54706 0.1375 0.0
H822 H 0.87086 0.51988 0.16515 0.0
C823 C 0.87862 0.43615 0.28454 0.0
C824 C 0.87309 0.48325 0.26218 0.0
H825 H 0.85048 0.52076 0.24982 0.0
C826 C 0.88669 0.48624 0.24134 0.0
C827 C 0.85965 0.49569 0.26485 0.0
C828 C 0.84423 0.49286 0.28561 0.0
C829 C 0.88752 0.50148 0.22378 0.0
C830 C 0.8743 0.51405 0.22693 0.0
C831 C 0.86056 0.51104 0.24743 0.0
C832 C 0.87524 0.53081 0.21036 0.0
C833 C 0.90284 0.50431 0.20275 0.0
C834 C 0.87893 0.54602 0.22674 0.0
C835 C 0.88213 0.56152 0.21107 0.0
C836 C 0.88159 0.5621 0.1787 0.0
C837 C 0.87694 0.54704 0.16242 0.0
C838 C 0.87383 0.53149 0.17815 0.0
H839 H 0.91333 0.49469 0.20679 0.0
H840 H 0.89856 0.50313 0.17845 0.0
H841 H 0.90824 0.51754 0.20595 0.0
H842 H 0.88005 0.54574 0.25161 0.0
H843 H 0.88558 0.57291 0.22432 0.0
H844 H 0.70433 0.62731 0.38818 0.0
H845 H 0.7313 0.62209 0.41664 0.0
H846 H 0.70392 0.62839 0.50246 0.0
H847 H 0.677 0.63364 0.47434 0.0
H848 H 0.745 0.64775 0.45822 0.0
H849 H 0.73434 0.58458 0.51656 0.0
H850 H 0.72223 0.59118 0.4829 0.0
H851 H 0.71685 0.59987 0.52006 0.0
C852 C 0.70399 0.62722 0.41311 0.0
C853 C 0.68854 0.63095 0.429 0.0
C854 C 0.7194 0.62425 0.42932 0.0
C855 C 0.71956 0.62468 0.46164 0.0
C856 C 0.70403 0.6277 0.47754 0.0
H857 H 0.79549 0.63027 0.60751 0.0
H858 H 0.76939 0.62594 0.57617 0.0
C859 C 0.68867 0.63081 0.4614 0.0
C860 C 0.73618 0.62394 0.47871 0.0
H861 H 0.75823 0.6015 0.53409 0.0
C862 C 0.74802 0.63753 0.47452 0.0
C863 C 0.73991 0.61072 0.50026 0.0
C864 C 0.72775 0.59566 0.50514 0.0
C865 C 0.76331 0.63854 0.49193 0.0
C866 C 0.76712 0.6253 0.51351 0.0
C867 C 0.75534 0.61159 0.51748 0.0
C868 C 0.78307 0.62582 0.53264 0.0
C869 C 0.77486 0.65419 0.48787 0.0
C870 C 0.79947 0.6265 0.5187 0.0
C871 C 0.81432 0.62918 0.53647 0.0
C872 C 0.81311 0.6309 0.56863 0.0
C873 C 0.79683 0.62903 0.58278 0.0
C874 C 0.78191 0.62656 0.5649 0.0
H875 H 0.76782 0.66519 0.47705 0.0
H876 H 0.78018 0.65861 0.51029 0.0
H877 H 0.78587 0.65074 0.47262 0.0
H878 H 0.80073 0.62548 0.49392 0.0
H879 H 0.82672 0.63033 0.52491 0.0
H880 H 0.38049 0.42401 0.23156 0.0
H881 H 0.37501 0.45022 0.26155 0.0
H882 H 0.37378 0.48039 0.17793 0.0
H883 H 0.37876 0.45409 0.14768 0.0
H884 H 0.39668 0.47691 0.26455 0.0
H885 H 0.33309 0.5008 0.22328 0.0
H886 H 0.34076 0.47914 0.2153 0.0
H887 H 0.34816 0.49716 0.19248 0.0
C888 C 0.37869 0.43616 0.21948 0.0
C889 C 0.38009 0.43698 0.18724 0.0
C890 C 0.37556 0.45114 0.23668 0.0
C891 C 0.37382 0.46728 0.22205 0.0
C892 C 0.37465 0.46806 0.18974 0.0
H893 H 0.38474 0.57341 0.27685 0.0
H894 H 0.37955 0.54602 0.2501 0.0
C895 C 0.37761 0.45301 0.17246 0.0
C896 C 0.37304 0.4834 0.24077 0.0
H897 H 0.35052 0.5211 0.25155 0.0
C898 C 0.38643 0.48644 0.26201 0.0
C899 C 0.35972 0.49589 0.23736 0.0
C900 C 0.34453 0.49302 0.21609 0.0
C901 C 0.38717 0.5018 0.27924 0.0
C902 C 0.37406 0.51442 0.27539 0.0
C903 C 0.36052 0.51135 0.25449 0.0
C904 C 0.3749 0.53129 0.29164 0.0
C905 C 0.40232 0.50469 0.30065 0.0
C906 C 0.37347 0.53216 0.32384 0.0
C907 C 0.37642 0.54783 0.33926 0.0
C908 C 0.38088 0.56285 0.32268 0.0
C909 C 0.38144 0.56207 0.29033 0.0
C910 C 0.37842 0.54644 0.27496 0.0
H911 H 0.41287 0.49512 0.29684 0.0
H912 H 0.4077 0.51794 0.29761 0.0
H913 H 0.39786 0.50346 0.32484 0.0
H914 H 0.37059 0.52061 0.33707 0.0
H915 H 0.37584 0.54801 0.36417 0.0
H916 H 0.20661 0.63178 0.11263 0.0
H917 H 0.23268 0.62749 0.0812 0.0
H918 H 0.20097 0.62374 0.99968 0.0
H919 H 0.17498 0.62849 0.03071 0.0
H920 H 0.24439 0.60223 0.04058 0.0
H921 H 0.23242 0.66431 0.97942 0.0
H922 H 0.22055 0.65811 0.01345 0.0
H923 H 0.21482 0.64918 0.97655 0.0
C924 C 0.20519 0.62981 0.08807 0.0
C925 C 0.18877 0.63072 0.07408 0.0
C926 C 0.22009 0.62737 0.07014 0.0
C927 C 0.21879 0.62573 0.038 0.0
C928 C 0.20231 0.62545 0.02432 0.0
H929 H 0.29655 0.62699 0.89192 0.0
H930 H 0.26989 0.6217 0.92122 0.0
C931 C 0.18746 0.62807 0.04213 0.0
C932 C 0.23466 0.6253 0.01863 0.0
H933 H 0.25575 0.64726 0.96149 0.0
C934 C 0.24688 0.61205 0.02326 0.0
C935 C 0.23793 0.63819 0.99612 0.0
C936 C 0.22584 0.65335 0.99122 0.0
C937 C 0.26222 0.61129 0.00579 0.0
C938 C 0.26544 0.62417 0.98333 0.0
C939 C 0.25315 0.63729 0.97851 0.0
C940 C 0.28192 0.62504 0.96583 0.0
C941 C 0.27484 0.59668 0.01136 0.0
C942 C 0.29752 0.62852 0.98123 0.0
C943 C 0.31271 0.63164 0.96459 0.0
C944 C 0.3126 0.63136 0.9322 0.0
C945 C 0.29709 0.62723 0.91683 0.0
C946 C 0.28185 0.62422 0.93353 0.0
H947 H 0.26857 0.58558 0.02329 0.0
H948 H 0.2805 0.59203 0.98934 0.0
H949 H 0.28558 0.60142 0.02611 0.0
H950 H 0.2978 0.62953 0.0061 0.0
H951 H 0.32443 0.6348 0.97714 0.0
H952 H 0.12031 0.4245 0.77437 0.0
H953 H 0.1254 0.45072 0.74418 0.0
H954 H 0.12798 0.48083 0.82776 0.0
H955 H 0.12339 0.45451 0.8582 0.0
H956 H 0.10386 0.47757 0.74214 0.0
H957 H 0.1682 0.50094 0.78067 0.0
H958 H 0.16048 0.47934 0.78893 0.0
H959 H 0.15351 0.49741 0.81207 0.0
C960 C 0.12231 0.43665 0.78639 0.0
C961 C 0.12142 0.43744 0.81869 0.0
C962 C 0.12522 0.45163 0.76907 0.0
C963 C 0.12724 0.46775 0.78364 0.0
C964 C 0.12688 0.46851 0.81598 0.0
H965 H 0.11641 0.57387 0.7278 0.0
H966 H 0.1216 0.54658 0.75491 0.0
C967 C 0.12415 0.45346 0.83337 0.0
C968 C 0.12788 0.48387 0.76489 0.0
H969 H 0.15063 0.52131 0.75287 0.0
C970 C 0.11423 0.487 0.7442 0.0
C971 C 0.14136 0.49623 0.76766 0.0
C972 C 0.1568 0.49325 0.78831 0.0
C973 C 0.11344 0.50232 0.72686 0.0
C974 C 0.12673 0.51481 0.73004 0.0
C975 C 0.14049 0.51166 0.75044 0.0
C976 C 0.12591 0.5316 0.71355 0.0
C977 C 0.09807 0.50532 0.70598 0.0
C978 C 0.12714 0.53229 0.68132 0.0
C979 C 0.12422 0.5479 0.66568 0.0
C980 C 0.11995 0.56304 0.68208 0.0
C981 C 0.11957 0.56243 0.71446 0.0
C982 C 0.12258 0.54686 0.73003 0.0
H983 H 0.08749 0.49583 0.71021 0.0
H984 H 0.09284 0.51861 0.70916 0.0
H985 H 0.10225 0.50403 0.68164 0.0
H986 H 0.12986 0.52065 0.66822 0.0
H987 H 0.12465 0.54794 0.64076 0.0
H988 H 0.17587 0.36776 0.47945 0.0
H989 H 0.20307 0.37313 0.50668 0.0
H990 H 0.22975 0.37835 0.41994 0.0
H991 H 0.20251 0.37303 0.39239 0.0
H992 H 0.2434 0.35279 0.46221 0.0
H993 H 0.23418 0.41686 0.51827 0.0
H994 H 0.21648 0.40187 0.52253 0.0
H995 H 0.22182 0.41008 0.48502 0.0
C996 C 0.18745 0.37039 0.46612 0.0
C997 C 0.18705 0.36991 0.43374 0.0
C998 C 0.20296 0.37356 0.48174 0.0
C999 C 0.21837 0.3763 0.46532 0.0
C1000 C 0.21794 0.37641 0.43301 0.0
H1001 H 0.32595 0.3695 0.52583 0.0
H1002 H 0.29982 0.37454 0.49534 0.0
C1003 C 0.20237 0.37338 0.41732 0.0
C1004 C 0.23515 0.37701 0.4819 0.0
H1005 H 0.25806 0.39987 0.53561 0.0
C1006 C 0.24674 0.36319 0.47797 0.0
C1007 C 0.23928 0.39047 0.50275 0.0
C1008 C 0.22738 0.40576 0.50733 0.0
C1009 C 0.26216 0.36216 0.49497 0.0
C1010 C 0.26639 0.37565 0.51583 0.0
C1011 C 0.25486 0.3896 0.51953 0.0
C1012 C 0.2825 0.37512 0.53454 0.0
C1013 C 0.27341 0.34626 0.4913 0.0
C1014 C 0.28161 0.37487 0.56685 0.0
C1015 C 0.29662 0.37231 0.58443 0.0
C1016 C 0.31273 0.36986 0.56991 0.0
C1017 C 0.3137 0.37111 0.53766 0.0
C1018 C 0.29875 0.37389 0.52018 0.0
H1019 H 0.26609 0.33523 0.48121 0.0
H1020 H 0.28433 0.3493 0.47556 0.0
H1021 H 0.27888 0.34208 0.51376 0.0
H1022 H 0.26921 0.37592 0.57843 0.0
H1023 H 0.29547 0.37143 0.60923 0.0
H1024 H 0.1259 0.15191 0.32848 0.0
H1025 H 0.13559 0.1819 0.32126 0.0
H1026 H 0.13397 0.19 0.41945 0.0
H1027 H 0.12449 0.16015 0.42696 0.0
H1028 H 0.11659 0.211 0.33917 0.0
H1029 H 0.18093 0.21074 0.39589 0.0
H1030 H 0.17003 0.19107 0.38421 0.0
H1031 H 0.16405 0.20175 0.41947 0.0
C1032 C 0.12788 0.15999 0.34857 0.0
C1033 C 0.12439 0.15362 0.3783 0.0
C1034 C 0.1334 0.17712 0.34439 0.0
C1035 C 0.13572 0.18809 0.36985 0.0
C1036 C 0.13263 0.18165 0.39954 0.0
H1037 H 0.147 0.29592 0.41134 0.0
H1038 H 0.14548 0.26425 0.41091 0.0
C1039 C 0.12707 0.16459 0.40374 0.0
C1040 C 0.13986 0.20669 0.36544 0.0
H1041 H 0.16796 0.23859 0.38743 0.0
C1042 C 0.12796 0.21701 0.34928 0.0
C1043 C 0.15465 0.21448 0.37882 0.0
C1044 C 0.16824 0.20392 0.39533 0.0
C1045 C 0.13006 0.23505 0.34725 0.0
C1046 C 0.14464 0.24291 0.36127 0.0
C1047 C 0.15679 0.23253 0.37675 0.0
C1048 C 0.14701 0.26198 0.36134 0.0
C1049 C 0.11623 0.24561 0.33131 0.0
C1050 C 0.14886 0.27116 0.33364 0.0
C1051 C 0.14966 0.28926 0.33377 0.0
C1052 C 0.14875 0.29853 0.36165 0.0
C1053 C 0.14766 0.28922 0.38945 0.0
C1054 C 0.14681 0.27112 0.38927 0.0
H1055 H 0.10408 0.23811 0.32798 0.0
H1056 H 0.11317 0.25751 0.34465 0.0
H1057 H 0.12101 0.24963 0.30829 0.0
H1058 H 0.1494 0.26432 0.31188 0.0
H1059 H 0.15066 0.296 0.31195 0.0
H1060 H 0.9538 0.90114 0.65478 0.0
H1061 H 0.98535 0.89889 0.65674 0.0
H1062 H 0.98729 0.8956 0.55771 0.0
H1063 H 0.95566 0.89792 0.55539 0.0
H1064 H 0.00349 0.8696 0.63249 0.0
H1065 H 0.02565 0.93149 0.57972 0.0
H1066 H 0.00411 0.92876 0.59539 0.0
H1067 H 0.0095 0.91952 0.55868 0.0
C1068 C 0.9609 0.9002 0.63333 0.0
C1069 C 0.95216 0.89964 0.60491 0.0
C1070 C 0.97895 0.89892 0.63453 0.0
C1071 C 0.98864 0.89721 0.60738 0.0
C1072 C 0.98006 0.89719 0.5789 0.0
H1073 H 0.09828 0.87435 0.57752 0.0
H1074 H 0.06774 0.88228 0.57048 0.0
C1075 C 0.96196 0.89843 0.57765 0.0
C1076 C 0.00752 0.89391 0.60921 0.0
H1077 H 0.04728 0.91069 0.59145 0.0
C1078 C 0.01307 0.8786 0.62359 0.0
C1079 C 0.01994 0.90559 0.59724 0.0
C1080 C 0.01459 0.92234 0.58205 0.0
C1081 C 0.03073 0.87463 0.62638 0.0
C1082 C 0.0432 0.8865 0.61511 0.0
C1083 C 0.03767 0.90169 0.60022 0.0
C1084 C 0.06201 0.88336 0.6192 0.0
C1085 C 0.03586 0.85763 0.64101 0.0
C1086 C 0.069 0.88193 0.6489 0.0
C1087 C 0.08635 0.87732 0.65301 0.0
C1088 C 0.09713 0.87423 0.62746 0.0
C1089 C 0.09032 0.87657 0.59768 0.0
C1090 C 0.07288 0.88111 0.5936 0.0
H1091 H 0.02505 0.84811 0.64057 0.0
H1092 H 0.04723 0.85185 0.62915 0.0
H1093 H 0.03941 0.85991 0.66544 0.0
H1094 H 0.06091 0.88399 0.66896 0.0
H1095 H 0.0912 0.87585 0.67627 0.0
H1096 H 0.37352 0.84918 0.82764 0.0
H1097 H 0.3638 0.81927 0.81955 0.0
H1098 H 0.36561 0.8102 0.91746 0.0
H1099 H 0.37515 0.83996 0.92584 0.0
H1100 H 0.38286 0.78989 0.83672 0.0
H1101 H 0.31845 0.7899 0.89323 0.0
H1102 H 0.3294 0.80962 0.88194 0.0
H1103 H 0.33536 0.7987 0.91697 0.0
C1104 C 0.37159 0.8409 0.84749 0.0
C1105 C 0.37515 0.84698 0.87739 0.0
C1106 C 0.36604 0.82382 0.84281 0.0
C1107 C 0.36377 0.8126 0.86794 0.0
C1108 C 0.36693 0.81874 0.8978 0.0
H1109 H 0.3519 0.70464 0.90695 0.0
H1110 H 0.35355 0.73629 0.90706 0.0
C1111 C 0.37252 0.83575 0.90251 0.0
C1112 C 0.35957 0.79406 0.86298 0.0
H1113 H 0.3313 0.76209 0.88395 0.0
C1114 C 0.37145 0.78383 0.8466 0.0
C1115 C 0.34472 0.78622 0.87606 0.0
C1116 C 0.33116 0.7967 0.89279 0.0
C1117 C 0.36929 0.76582 0.84409 0.0
C1118 C 0.35465 0.7579 0.85782 0.0
C1119 C 0.34252 0.7682 0.87349 0.0
C1120 C 0.35224 0.73883 0.8575 0.0
C1121 C 0.38312 0.75534 0.82797 0.0
C1122 C 0.35048 0.7298 0.82963 0.0
C1123 C 0.34962 0.71169 0.82945 0.0
C1124 C 0.35036 0.70228 0.8572 0.0
C1125 C 0.35137 0.71145 0.88516 0.0
C1126 C 0.35229 0.72955 0.88528 0.0
H1127 H 0.3953 0.76283 0.82491 0.0
H1128 H 0.38611 0.74333 0.84104 0.0
H1129 H 0.37838 0.75152 0.80482 0.0
H1130 H 0.35006 0.73675 0.80797 0.0
H1131 H 0.34869 0.70508 0.80752 0.0
H1132 H 0.41253 0.12882 0.18087 0.0
H1133 H 0.44259 0.11994 0.17305 0.0
H1134 H 0.43259 0.1124 0.0763 0.0
H1135 H 0.40244 0.12147 0.08376 0.0
H1136 H 0.45737 0.08899 0.14771 0.0
H1137 H 0.47281 0.14787 0.07883 0.0
H1138 H 0.45337 0.1461 0.10176 0.0
H1139 H 0.45484 0.13509 0.06542 0.0
C1140 C 0.41664 0.12517 0.15792 0.0
C1141 C 0.4051 0.12604 0.13287 0.0
C1142 C 0.43383 0.12005 0.15354 0.0
C1143 C 0.43985 0.11576 0.12405 0.0
C1144 C 0.42824 0.11593 0.09917 0.0
H1145 H 0.54654 0.10066 0.06262 0.0
H1146 H 0.51487 0.10129 0.06464 0.0
C1147 C 0.411 0.12105 0.10352 0.0
C1148 C 0.45847 0.11187 0.11937 0.0
H1149 H 0.49541 0.12794 0.08686 0.0
C1150 C 0.4657 0.09742 0.13425 0.0
C1151 C 0.46926 0.12292 0.10181 0.0
C1152 C 0.46228 0.13895 0.08619 0.0
C1153 C 0.4835 0.09376 0.13214 0.0
C1154 C 0.49437 0.10506 0.11521 0.0
C1155 C 0.48705 0.11928 0.09978 0.0
C1156 C 0.51348 0.10294 0.1143 0.0
C1157 C 0.49048 0.07779 0.14794 0.0
C1158 C 0.52322 0.10359 0.14158 0.0
C1159 C 0.54133 0.10317 0.14055 0.0
C1160 C 0.55007 0.1023 0.11215 0.0
C1161 C 0.54025 0.10134 0.08489 0.0
C1162 C 0.52214 0.1017 0.08597 0.0
H1163 H 0.48016 0.06793 0.15145 0.0
H1164 H 0.50118 0.07185 0.13448 0.0
H1165 H 0.49559 0.08145 0.17092 0.0
H1166 H 0.51684 0.10497 0.16366 0.0
H1167 H 0.54847 0.10403 0.16197 0.0
H1168 H 0.15193 0.70951 0.18708 0.0
H1169 H 0.14961 0.74088 0.18008 0.0
H1170 H 0.14809 0.73396 0.08162 0.0
H1171 H 0.15021 0.70254 0.08829 0.0
H1172 H 0.16985 0.7655 0.14606 0.0
H1173 H 0.10244 0.75948 0.10203 0.0
H1174 H 0.11346 0.74194 0.12136 0.0
H1175 H 0.11827 0.74675 0.08179 0.0
C1176 C 0.15127 0.71464 0.16389 0.0
C1177 C 0.15104 0.70347 0.13825 0.0
C1178 C 0.14998 0.73258 0.15997 0.0
C1179 C 0.14839 0.73968 0.13038 0.0
C1180 C 0.149 0.72868 0.10468 0.0
H1181 H 0.12324 0.84202 0.06233 0.0
H1182 H 0.1326 0.81196 0.06786 0.0
C1183 C 0.15028 0.71073 0.10855 0.0
C1184 C 0.14517 0.75849 0.12653 0.0
H1185 H 0.11486 0.78743 0.10138 0.0
C1186 C 0.15785 0.77034 0.13629 0.0
C1187 C 0.12944 0.76472 0.11396 0.0
C1188 C 0.11503 0.7526 0.10441 0.0
C1189 C 0.15532 0.78832 0.13325 0.0
C1190 C 0.1396 0.79452 0.1206 0.0
C1191 C 0.12694 0.78264 0.11092 0.0
C1192 C 0.13578 0.81327 0.1173 0.0
C1193 C 0.1696 0.80049 0.14307 0.0
C1194 C 0.13462 0.82405 0.14327 0.0
C1195 C 0.12928 0.84131 0.1402 0.0
C1196 C 0.12486 0.84803 0.11111 0.0
C1197 C 0.12648 0.83728 0.08509 0.0
C1198 C 0.13185 0.82008 0.08818 0.0
H1199 H 0.18231 0.79376 0.14456 0.0
H1200 H 0.1708 0.81154 0.12682 0.0
H1201 H 0.16651 0.80578 0.16619 0.0
H1202 H 0.13725 0.81896 0.16603 0.0
H1203 H 0.12811 0.84921 0.16072 0.0
H1204 H 0.54876 0.89948 0.33593 0.0
H1205 H 0.51717 0.89759 0.33293 0.0
H1206 H 0.51411 0.89579 0.432 0.0
H1207 H 0.5457 0.89779 0.43534 0.0
H1208 H 0.49815 0.8693 0.35697 0.0
H1209 H 0.47668 0.93175 0.4082 0.0
H1210 H 0.49841 0.92841 0.3938 0.0
H1211 H 0.49219 0.91972 0.43054 0.0
C1212 C 0.54139 0.89895 0.35713 0.0
C1213 C 0.5498 0.89873 0.38588 0.0
C1214 C 0.52333 0.89787 0.35535 0.0
C1215 C 0.51332 0.89672 0.38223 0.0
C1216 C 0.52159 0.89697 0.41099 0.0
H1217 H 0.40432 0.87449 0.41607 0.0
H1218 H 0.43494 0.88253 0.4211 0.0
C1219 C 0.53967 0.89801 0.41282 0.0
C1220 C 0.49439 0.89371 0.38003 0.0
H1221 H 0.45483 0.91076 0.39839 0.0
C1222 C 0.48867 0.87841 0.36585 0.0
C1223 C 0.4821 0.90554 0.39197 0.0
C1224 C 0.48758 0.92236 0.40679 0.0
C1225 C 0.47097 0.8745 0.3635 0.0
C1226 C 0.45863 0.88643 0.37503 0.0
C1227 C 0.46433 0.90169 0.38947 0.0
C1228 C 0.43977 0.8832 0.37204 0.0
C1229 C 0.46567 0.85745 0.34926 0.0
C1230 C 0.43224 0.88148 0.34281 0.0
C1231 C 0.41484 0.87681 0.33984 0.0
C1232 C 0.40454 0.87394 0.36609 0.0
C1233 C 0.4119 0.87655 0.39539 0.0
C1234 C 0.42938 0.88114 0.39832 0.0
H1235 H 0.4765 0.84795 0.34926 0.0
H1236 H 0.45449 0.85168 0.36172 0.0
H1237 H 0.46174 0.85966 0.325 0.0
H1238 H 0.43995 0.8834 0.32223 0.0
H1239 H 0.40956 0.87513 0.31692 0.0
H1240 H 0.35706 0.14775 0.64469 0.0
H1241 H 0.34652 0.17762 0.65008 0.0
H1242 H 0.38922 0.19573 0.59442 0.0
H1243 H 0.39903 0.16598 0.5874 0.0
H1244 H 0.35873 0.20471 0.67514 0.0
H1245 H 0.35171 0.22064 0.55232 0.0
H1246 H 0.35579 0.1988 0.56518 0.0
H1247 H 0.37351 0.21374 0.55924 0.0
C1248 C 0.36403 0.15814 0.63335 0.0
C1249 C 0.37871 0.15455 0.61528 0.0
C1250 C 0.35802 0.17519 0.63644 0.0
C1251 C 0.36676 0.18897 0.62193 0.0
C1252 C 0.38176 0.18535 0.60474 0.0
H1253 H 0.37117 0.29492 0.68018 0.0
H1254 H 0.37229 0.26344 0.67526 0.0
C1255 C 0.38748 0.16833 0.60098 0.0
C1256 C 0.36083 0.2072 0.62583 0.0
H1257 H 0.35556 0.24515 0.58658 0.0
C1258 C 0.35774 0.21348 0.65569 0.0
C1259 C 0.35895 0.21864 0.60051 0.0
C1260 C 0.35996 0.21251 0.56755 0.0
C1261 C 0.35378 0.231 0.66103 0.0
C1262 C 0.35375 0.24279 0.63598 0.0
C1263 C 0.35591 0.2363 0.60599 0.0
C1264 C 0.3523 0.26191 0.64023 0.0
C1265 C 0.34952 0.23655 0.69349 0.0
C1266 C 0.34121 0.27177 0.6214 0.0
C1267 C 0.34109 0.28988 0.62334 0.0
C1268 C 0.35179 0.29845 0.64462 0.0
C1269 C 0.36258 0.28861 0.66393 0.0
C1270 C 0.36308 0.27057 0.66134 0.0
H1271 H 0.34331 0.2258 0.7065 0.0
H1272 H 0.36169 0.23994 0.70572 0.0
H1273 H 0.34069 0.24792 0.69388 0.0
H1274 H 0.3328 0.26548 0.60483 0.0
H1275 H 0.33265 0.29718 0.6082 0.0
H1276 H 0.0892 0.12686 0.82919 0.0
H1277 H 0.0594 0.11773 0.83885 0.0
H1278 H 0.06988 0.1154 0.93627 0.0
H1279 H 0.09981 0.12469 0.92693 0.0
H1280 H 0.04573 0.08761 0.86971 0.0
H1281 H 0.02855 0.14957 0.92811 0.0
H1282 H 0.04792 0.14721 0.90515 0.0
H1283 H 0.04699 0.13806 0.94312 0.0
C1284 C 0.08526 0.12432 0.8527 0.0
C1285 C 0.09688 0.12668 0.87733 0.0
C1286 C 0.06821 0.11905 0.85814 0.0
C1287 C 0.0624 0.11612 0.88827 0.0
C1288 C 0.07408 0.11784 0.91286 0.0
H1289 H 0.95487 0.10267 0.94795 0.0
H1290 H 0.98658 0.10357 0.94795 0.0
C1291 C 0.09119 0.12309 0.90746 0.0
C1292 C 0.04391 0.11196 0.89374 0.0
H1293 H 0.00638 0.12897 0.92239 0.0
C1294 C 0.03712 0.09656 0.88145 0.0
C1295 C 0.03277 0.12367 0.90912 0.0
C1296 C 0.03932 0.14063 0.92199 0.0
C1297 C 0.01939 0.09265 0.8838 0.0
C1298 C 0.00813 0.10464 0.89824 0.0
C1299 C 0.01504 0.11979 0.91134 0.0
C1300 C 0.98904 0.10236 0.89837 0.0
C1301 C 0.01289 0.07572 0.87077 0.0
C1302 C 0.97989 0.10133 0.8705 0.0
C1303 C 0.96178 0.10076 0.87039 0.0
C1304 C 0.95243 0.10141 0.89818 0.0
C1305 C 0.96165 0.10213 0.92612 0.0
C1306 C 0.97978 0.10265 0.92619 0.0
H1307 H 0.02338 0.06586 0.8698 0.0
H1308 H 0.002 0.07046 0.88465 0.0
H1309 H 0.0082 0.07788 0.84692 0.0
H1310 H 0.98673 0.10152 0.84872 0.0
H1311 H 0.95513 0.1003 0.84845 0.0
H1312 H 0.85251 0.7062 0.69081 0.0
H1313 H 0.85481 0.73777 0.68745 0.0
H1314 H 0.85315 0.73469 0.58837 0.0
H1315 H 0.85099 0.70313 0.59139 0.0
H1316 H 0.88152 0.75337 0.61219 0.0
H1317 H 0.81945 0.77565 0.66377 0.0
H1318 H 0.83138 0.76011 0.68617 0.0
H1319 H 0.82252 0.75384 0.64958 0.0
C1320 C 0.85237 0.71223 0.66829 0.0
C1321 C 0.85163 0.7021 0.64135 0.0
C1322 C 0.85358 0.7303 0.66644 0.0
C1323 C 0.85398 0.73856 0.63768 0.0
C1324 C 0.85278 0.72854 0.6108 0.0
H1325 H 0.87549 0.84146 0.56963 0.0
H1326 H 0.86714 0.8112 0.57639 0.0
C1327 C 0.85154 0.7105 0.6126 0.0
C1328 C 0.85721 0.75745 0.63543 0.0
H1329 H 0.8406 0.79726 0.65343 0.0
C1330 C 0.87254 0.76297 0.62106 0.0
C1331 C 0.84555 0.76991 0.64737 0.0
C1332 C 0.82872 0.76466 0.6624 0.0
C1333 C 0.87659 0.78062 0.6184 0.0
C1334 C 0.86481 0.79312 0.62985 0.0
C1335 C 0.84956 0.78763 0.64459 0.0
C1336 C 0.86811 0.81192 0.62615 0.0
C1337 C 0.8936 0.78572 0.60379 0.0
C1338 C 0.87067 0.82256 0.65197 0.0
C1339 C 0.87535 0.83998 0.64821 0.0
C1340 C 0.87753 0.847 0.61855 0.0
C1341 C 0.87415 0.83644 0.59281 0.0
C1342 C 0.86942 0.81911 0.5966 0.0
H1343 H 0.90302 0.77481 0.60378 0.0
H1344 H 0.89128 0.78956 0.57951 0.0
H1345 H 0.89952 0.79691 0.61599 0.0
H1346 H 0.8696 0.81725 0.67498 0.0
H1347 H 0.87779 0.84776 0.66851 0.0
H1348 H 0.9099 0.12669 0.32233 0.0
H1349 H 0.93987 0.11753 0.32994 0.0
H1350 H 0.93165 0.11576 0.42809 0.0
H1351 H 0.90156 0.1251 0.42077 0.0
H1352 H 0.96068 0.1351 0.41006 0.0
H1353 H 0.96079 0.07057 0.3539 0.0
H1354 H 0.95171 0.08742 0.33037 0.0
H1355 H 0.94107 0.08136 0.36561 0.0
C1356 C 0.91435 0.12415 0.34555 0.0
C1357 C 0.90331 0.12667 0.37096 0.0
C1358 C 0.93148 0.11878 0.34982 0.0
C1359 C 0.93791 0.11574 0.37954 0.0
C1360 C 0.92687 0.11792 0.40494 0.0
H1361 H 0.04523 0.10092 0.44044 0.0
H1362 H 0.01357 0.10253 0.43943 0.0
C1363 C 0.90969 0.12325 0.4007 0.0
C1364 C 0.95652 0.11171 0.38407 0.0
H1365 H 0.98853 0.08343 0.36326 0.0
C1366 C 0.96675 0.12368 0.40023 0.0
C1367 C 0.96439 0.09685 0.37105 0.0
C1368 C 0.95391 0.08322 0.3545 0.0
C1369 C 0.98477 0.12157 0.4027 0.0
C1370 C 0.99271 0.10687 0.38917 0.0
C1371 C 0.98241 0.09469 0.37359 0.0
C1372 C 0.01176 0.10437 0.38982 0.0
C1373 C 0.99524 0.13546 0.41865 0.0
C1374 C 0.02119 0.10414 0.36219 0.0
C1375 C 0.03928 0.10307 0.36264 0.0
C1376 C 0.04829 0.10219 0.39077 0.0
C1377 C 0.03873 0.10175 0.41837 0.0
C1378 C 0.02063 0.10275 0.41787 0.0
H1379 H 0.98778 0.1477 0.42129 0.0
H1380 H 0.9989 0.13089 0.44198 0.0
H1381 H 0.00733 0.13831 0.40572 0.0
H1382 H 0.01457 0.10529 0.34028 0.0
H1383 H 0.04621 0.10338 0.34095 0.0
H1384 H 0.65325 0.2976 0.18823 0.0
H1385 H 0.65208 0.26594 0.18696 0.0
H1386 H 0.64671 0.2673 0.08815 0.0
H1387 H 0.64815 0.29892 0.08909 0.0
H1388 H 0.6246 0.2468 0.16634 0.0
H1389 H 0.68345 0.2301 0.0995 0.0
H1390 H 0.68015 0.25126 0.11633 0.0
H1391 H 0.66992 0.24569 0.08042 0.0
C1392 C 0.65209 0.29118 0.16616 0.0
C1393 C 0.65078 0.30083 0.13875 0.0
C1394 C 0.65142 0.27307 0.1655 0.0
C1395 C 0.64953 0.26424 0.13744 0.0
C1396 C 0.64857 0.27381 0.11 0.0
H1397 H 0.62177 0.16336 0.07342 0.0
H1398 H 0.63095 0.19336 0.08069 0.0
C1399 C 0.64928 0.29192 0.11061 0.0
C1400 C 0.64708 0.24517 0.13708 0.0
H1401 H 0.66209 0.2077 0.10473 0.0
C1402 C 0.63294 0.2382 0.15324 0.0
C1403 C 0.65797 0.234 0.11992 0.0
C1404 C 0.67382 0.24061 0.1033 0.0
C1405 C 0.62896 0.22047 0.15172 0.0
C1406 C 0.63959 0.20938 0.13393 0.0
C1407 C 0.65397 0.21626 0.11835 0.0
C1408 C 0.6353 0.19081 0.12968 0.0
C1409 C 0.613 0.21389 0.16809 0.0
C1410 C 0.63508 0.17932 0.15475 0.0
C1411 C 0.62979 0.16211 0.15071 0.0
C1412 C 0.62467 0.1561 0.12149 0.0
C1413 C 0.62552 0.16754 0.09628 0.0
C1414 C 0.63081 0.1847 0.10035 0.0
H1415 H 0.60434 0.22463 0.17547 0.0
H1416 H 0.60553 0.20497 0.15302 0.0
H1417 H 0.61697 0.20657 0.18892 0.0
H1418 H 0.63878 0.18373 0.17749 0.0
H1419 H 0.6294 0.15363 0.17058 0.0
H1420 H 0.59137 0.8754 0.82097 0.0
H1421 H 0.56112 0.88392 0.82699 0.0
H1422 H 0.56675 0.88249 0.92575 0.0
H1423 H 0.59723 0.8742 0.91999 0.0
H1424 H 0.53654 0.86374 0.85561 0.0
H1425 H 0.54091 0.92818 0.91221 0.0
H1426 H 0.55917 0.91816 0.89319 0.0
H1427 H 0.55284 0.91121 0.93105 0.0
C1428 C 0.58629 0.87713 0.84402 0.0
C1429 C 0.59673 0.87404 0.87002 0.0
C1430 C 0.56898 0.88202 0.8474 0.0
C1431 C 0.56171 0.88398 0.87679 0.0
C1432 C 0.57218 0.88138 0.90284 0.0
H1433 H 0.45513 0.8956 0.93854 0.0
H1434 H 0.48673 0.89321 0.93546 0.0
C1435 C 0.58958 0.87655 0.8995 0.0
C1436 C 0.54284 0.88725 0.8799 0.0
H1437 H 0.51283 0.9156 0.9085 0.0
C1438 C 0.53137 0.87513 0.86703 0.0
C1439 C 0.53614 0.90205 0.89504 0.0
C1440 C 0.54788 0.91575 0.90846 0.0
C1441 C 0.51336 0.87733 0.869 0.0
C1442 C 0.50664 0.8922 0.88383 0.0
C1443 C 0.51807 0.90426 0.89703 0.0
C1444 C 0.48772 0.89529 0.88584 0.0
C1445 C 0.50167 0.86355 0.85564 0.0
C1446 C 0.4779 0.89774 0.859 0.0
C1447 C 0.45986 0.89907 0.86063 0.0
C1448 C 0.4513 0.89805 0.88918 0.0
C1449 C 0.46128 0.89635 0.91616 0.0
C1450 C 0.47934 0.89501 0.91448 0.0
H1451 H 0.5087 0.85116 0.85173 0.0
H1452 H 0.49047 0.86101 0.87107 0.0
H1453 H 0.49656 0.86807 0.83315 0.0
H1454 H 0.48418 0.89826 0.83671 0.0
H1455 H 0.45261 0.90051 0.83942 0.0
H1456 H 0.85123 0.2963 0.81036 0.0
H1457 H 0.85238 0.26462 0.81061 0.0
H1458 H 0.85307 0.26479 0.90989 0.0
H1459 H 0.85167 0.29642 0.90995 0.0
H1460 H 0.87898 0.24532 0.83486 0.0
H1461 H 0.81707 0.22764 0.89133 0.0
H1462 H 0.82106 0.24897 0.87567 0.0
H1463 H 0.82941 0.24316 0.91296 0.0
C1464 C 0.85135 0.28961 0.83228 0.0
C1465 C 0.85137 0.29893 0.86015 0.0
C1466 C 0.85201 0.2715 0.83235 0.0
C1467 C 0.85259 0.26234 0.86025 0.0
C1468 C 0.85223 0.27157 0.88809 0.0
H1469 H 0.87793 0.1618 0.92731 0.0
H1470 H 0.8687 0.19162 0.91842 0.0
C1471 C 0.85155 0.28968 0.88807 0.0
C1472 C 0.8551 0.24328 0.8603 0.0
H1473 H 0.83885 0.20545 0.88927 0.0
C1474 C 0.87008 0.23655 0.84633 0.0
C1475 C 0.84347 0.23189 0.87531 0.0
C1476 C 0.82677 0.23825 0.88941 0.0
C1477 C 0.87415 0.21884 0.84816 0.0
C1478 C 0.86277 0.20753 0.86396 0.0
C1479 C 0.84754 0.21417 0.87718 0.0
C1480 C 0.86712 0.18903 0.86891 0.0
C1481 C 0.89097 0.21252 0.83439 0.0
C1482 C 0.86893 0.17756 0.84402 0.0
C1483 C 0.87428 0.16043 0.84899 0.0
C1484 C 0.87784 0.1545 0.87898 0.0
C1485 C 0.87541 0.16592 0.90389 0.0
C1486 C 0.87007 0.18298 0.89889 0.0
H1487 H 0.89982 0.2234 0.82849 0.0
H1488 H 0.89777 0.20367 0.85056 0.0
H1489 H 0.88819 0.2052 0.81297 0.0
H1490 H 0.86643 0.18191 0.82073 0.0
H1491 H 0.87592 0.15197 0.82931 0.0
H1492 H 0.59112 0.12806 0.68438 0.0
H1493 H 0.56105 0.11868 0.67951 0.0
H1494 H 0.56718 0.11462 0.58108 0.0
H1495 H 0.59747 0.12379 0.58572 0.0
H1496 H 0.53629 0.13676 0.64672 0.0
H1497 H 0.54212 0.06937 0.60282 0.0
H1498 H 0.56004 0.08077 0.62037 0.0
H1499 H 0.55401 0.08528 0.58121 0.0
C1500 C 0.5862 0.12495 0.66168 0.0
C1501 C 0.59671 0.12675 0.6354 0.0
C1502 C 0.56899 0.11957 0.65898 0.0
C1503 C 0.56192 0.11581 0.63 0.0
C1504 C 0.57247 0.11713 0.60374 0.0
H1505 H 0.45731 0.09951 0.56431 0.0
H1506 H 0.48876 0.10181 0.56997 0.0
C1507 C 0.58975 0.12247 0.60642 0.0
C1508 C 0.54315 0.11203 0.62719 0.0
H1509 H 0.51385 0.08175 0.60287 0.0
C1510 C 0.53138 0.12468 0.63734 0.0
C1511 C 0.53681 0.09631 0.61474 0.0
C1512 C 0.54887 0.08207 0.60439 0.0
C1513 C 0.51343 0.12216 0.63502 0.0
C1514 C 0.50706 0.10642 0.62272 0.0
C1515 C 0.5188 0.09376 0.61244 0.0
C1516 C 0.48821 0.10317 0.6197 0.0
C1517 C 0.50143 0.13657 0.64504 0.0
C1518 C 0.47755 0.10263 0.64587 0.0
C1519 C 0.45955 0.10137 0.64275 0.0
C1520 C 0.45191 0.10054 0.61338 0.0
C1521 C 0.46273 0.10022 0.58728 0.0
C1522 C 0.48072 0.1015 0.59044 0.0
H1523 H 0.50832 0.14917 0.64701 0.0
H1524 H 0.49052 0.1381 0.62858 0.0
H1525 H 0.49593 0.13337 0.66795 0.0
H1526 H 0.48313 0.10359 0.66869 0.0
H1527 H 0.45163 0.10151 0.66334 0.0
H1528 H 0.65051 0.70489 0.306 0.0
H1529 H 0.6497 0.73658 0.30659 0.0
H1530 H 0.64873 0.73606 0.40587 0.0
H1531 H 0.64983 0.70442 0.40557 0.0
H1532 H 0.62354 0.75623 0.33021 0.0
H1533 H 0.68515 0.77275 0.38871 0.0
H1534 H 0.68092 0.75149 0.37299 0.0
H1535 H 0.67236 0.75748 0.41005 0.0
C1536 C 0.65038 0.71151 0.32799 0.0
C1537 C 0.65022 0.70209 0.35576 0.0
C1538 C 0.64992 0.72963 0.32826 0.0
C1539 C 0.64939 0.7387 0.35626 0.0
C1540 C 0.64955 0.72936 0.384 0.0
H1541 H 0.6239 0.83928 0.42301 0.0
H1542 H 0.63307 0.80939 0.41444 0.0
C1543 C 0.65006 0.71124 0.38378 0.0
C1544 C 0.64716 0.7578 0.35649 0.0
H1545 H 0.66368 0.79527 0.38643 0.0
C1546 C 0.63246 0.76481 0.34207 0.0
C1547 C 0.65881 0.76896 0.37201 0.0
C1548 C 0.67529 0.76231 0.38655 0.0
C1549 C 0.62867 0.78258 0.3439 0.0
C1550 C 0.64004 0.79365 0.36023 0.0
C1551 C 0.655 0.78673 0.37394 0.0
C1552 C 0.63592 0.8122 0.36515 0.0
C1553 C 0.61214 0.78924 0.32954 0.0
C1554 C 0.63488 0.82379 0.34031 0.0
C1555 C 0.62961 0.84095 0.34509 0.0
C1556 C 0.6253 0.84677 0.37484 0.0
C1557 C 0.627 0.83523 0.39977 0.0
C1558 C 0.6323 0.81814 0.39496 0.0
H1559 H 0.60324 0.77855 0.32288 0.0
H1560 H 0.60521 0.79802 0.34566 0.0
H1561 H 0.61534 0.79676 0.3085 0.0
H1562 H 0.63788 0.81949 0.31717 0.0
H1563 H 0.62852 0.84951 0.32541 0.0
H1564 H 0.90301 0.87431 0.08212 0.0
H1565 H 0.93352 0.88249 0.07573 0.0
H1566 H 0.9401 0.8827 0.17432 0.0
H1567 H 0.90983 0.87434 0.18097 0.0
H1568 H 0.95368 0.91081 0.09864 0.0
H1569 H 0.97629 0.84745 0.14413 0.0
H1570 H 0.95411 0.85124 0.13267 0.0
H1571 H 0.96177 0.85878 0.16941 0.0
C1572 C 0.91091 0.87626 0.10245 0.0
C1573 C 0.90402 0.87345 0.13205 0.0
C1574 C 0.92833 0.88093 0.09875 0.0
C1575 C 0.93912 0.88285 0.12454 0.0
C1576 C 0.93207 0.88091 0.1541 0.0
H1577 H 0.04834 0.89907 0.15733 0.0
H1578 H 0.01682 0.89677 0.16119 0.0
C1579 C 0.91473 0.87618 0.15783 0.0
C1580 C 0.95792 0.88618 0.12071 0.0
H1581 H 0.99774 0.86901 0.13637 0.0
C1582 C 0.96335 0.90167 0.10673 0.0
C1583 C 0.97046 0.87416 0.13117 0.0
C1584 C 0.96541 0.8569 0.14492 0.0
C1585 C 0.98106 0.90566 0.1037 0.0
C1586 C 0.99357 0.89374 0.11462 0.0
C1587 C 0.98811 0.87819 0.12827 0.0
C1588 C 0.01245 0.89693 0.11199 0.0
C1589 C 0.98625 0.92274 0.08952 0.0
C1590 C 0.02043 0.89791 0.08301 0.0
C1591 C 0.03848 0.89921 0.08069 0.0
C1592 C 0.04887 0.89945 0.10733 0.0
C1593 C 0.04076 0.89891 0.13633 0.0
C1594 C 0.02274 0.89759 0.13861 0.0
H1595 H 0.97529 0.93209 0.0891 0.0
H1596 H 0.99724 0.92863 0.10231 0.0
H1597 H 0.99051 0.92051 0.06544 0.0
H1598 H 0.01276 0.8971 0.06218 0.0
H1599 H 0.04428 0.89955 0.05799 0.0
H1600 H 0.64909 0.79703 0.90895 0.0
H1601 H 0.64776 0.76541 0.90971 0.0
H1602 H 0.64944 0.76439 0.81047 0.0
H1603 H 0.65048 0.79607 0.8094 0.0
H1604 H 0.62293 0.74503 0.83397 0.0
H1605 H 0.68412 0.72842 0.8938 0.0
H1606 H 0.6713 0.7439 0.9146 0.0
H1607 H 0.68013 0.74961 0.87761 0.0
C1608 C 0.64942 0.79011 0.88726 0.0
C1609 C 0.64986 0.79912 0.85911 0.0
C1610 C 0.64879 0.772 0.88776 0.0
C1611 C 0.64876 0.76252 0.86016 0.0
C1612 C 0.64956 0.77145 0.83204 0.0
H1613 H 0.62769 0.6518 0.8297 0.0
H1614 H 0.63711 0.6818 0.82161 0.0
C1615 C 0.65015 0.78957 0.8315 0.0
C1616 C 0.64641 0.74344 0.86065 0.0
H1617 H 0.66259 0.70599 0.89128 0.0
C1618 C 0.63174 0.73644 0.84609 0.0
C1619 C 0.65792 0.73228 0.87651 0.0
C1620 C 0.67434 0.7389 0.89126 0.0
C1621 C 0.62786 0.7187 0.84806 0.0
C1622 C 0.63909 0.70764 0.86467 0.0
C1623 C 0.654 0.71453 0.87857 0.0
C1624 C 0.63492 0.68909 0.86956 0.0
C1625 C 0.61137 0.71207 0.8335 0.0
C1626 C 0.63115 0.68314 0.89931 0.0
C1627 C 0.62582 0.66605 0.90404 0.0
C1628 C 0.62423 0.65452 0.87908 0.0
C1629 C 0.62869 0.66035 0.8494 0.0
C1630 C 0.634 0.6775 0.8447 0.0
H1631 H 0.60252 0.72279 0.82672 0.0
H1632 H 0.61463 0.70455 0.81251 0.0
H1633 H 0.60436 0.70332 0.84954 0.0
H1634 H 0.63185 0.69189 0.91881 0.0
H1635 H 0.6226 0.662 0.92722 0.0
H1636 H 0.45521 0.40301 0.06547 0.0
H1637 H 0.48685 0.40144 0.06697 0.0
H1638 H 0.48518 0.39449 0.16544 0.0
H1639 H 0.45354 0.39636 0.16432 0.0
H1640 H 0.51141 0.41715 0.14609 0.0
H1641 H 0.51247 0.3556 0.0795 0.0
H1642 H 0.5015 0.37324 0.06083 0.0
H1643 H 0.49283 0.36435 0.09586 0.0
C1644 C 0.46155 0.40128 0.08751 0.0
C1645 C 0.4518 0.39963 0.11475 0.0
C1646 C 0.47965 0.4003 0.08828 0.0
C1647 C 0.48833 0.3975 0.11623 0.0
C1648 C 0.47871 0.39656 0.1436 0.0
H1649 H 0.59072 0.373 0.18042 0.0
H1650 H 0.56056 0.38198 0.17454 0.0
C1651 C 0.46062 0.39761 0.14289 0.0
C1652 C 0.50738 0.39494 0.11692 0.0
H1653 H 0.53954 0.36782 0.09239 0.0
C1654 C 0.51759 0.40641 0.13429 0.0
C1655 C 0.51538 0.38089 0.10149 0.0
C1656 C 0.505 0.36771 0.08358 0.0
C1657 C 0.53562 0.40419 0.13666 0.0
C1658 C 0.54356 0.39 0.12159 0.0
C1659 C 0.5334 0.37873 0.10378 0.0
C1660 C 0.56224 0.38598 0.12532 0.0
C1661 C 0.54601 0.41708 0.15514 0.0
C1662 C 0.57316 0.38507 0.09952 0.0
C1663 C 0.59044 0.37985 0.10275 0.0
C1664 C 0.59704 0.37526 0.13184 0.0
C1665 C 0.5861 0.37647 0.15768 0.0
C1666 C 0.56887 0.38172 0.15442 0.0
H1667 H 0.53904 0.42961 0.15765 0.0
H1668 H 0.54828 0.41177 0.17855 0.0
H1669 H 0.55881 0.41956 0.14429 0.0
H1670 H 0.56824 0.38818 0.07682 0.0
H1671 H 0.59849 0.37903 0.08237 0.0
H1672 H 0.85018 0.20413 0.40801 0.0
H1673 H 0.85101 0.23577 0.40837 0.0
H1674 H 0.85079 0.23634 0.30908 0.0
H1675 H 0.85023 0.20464 0.30842 0.0
H1676 H 0.87666 0.25624 0.33371 0.0
H1677 H 0.81422 0.27207 0.38998 0.0
H1678 H 0.8269 0.25683 0.4116 0.0
H1679 H 0.81881 0.2509 0.37418 0.0
C1680 C 0.85007 0.21095 0.38621 0.0
C1681 C 0.85017 0.20181 0.35818 0.0
C1682 C 0.85042 0.22907 0.38648 0.0
C1683 C 0.8507 0.23843 0.35875 0.0
C1684 C 0.85046 0.22937 0.33074 0.0
H1685 H 0.87137 0.34935 0.32912 0.0
H1686 H 0.86209 0.31937 0.32039 0.0
C1687 C 0.85015 0.21125 0.33043 0.0
C1688 C 0.85271 0.25755 0.35908 0.0
H1689 H 0.83545 0.29482 0.38849 0.0
C1690 C 0.86752 0.26472 0.34525 0.0
C1691 C 0.84076 0.26857 0.37417 0.0
C1692 C 0.82419 0.26173 0.38806 0.0
C1693 C 0.87111 0.28252 0.34731 0.0
C1694 C 0.85944 0.29346 0.36323 0.0
C1695 C 0.84438 0.28638 0.37631 0.0
C1696 C 0.86333 0.31203 0.36842 0.0
C1697 C 0.88777 0.28934 0.33364 0.0
C1698 C 0.86646 0.31797 0.39841 0.0
C1699 C 0.8717 0.33506 0.40351 0.0
C1700 C 0.87384 0.34659 0.37869 0.0
C1701 C 0.86994 0.3408 0.34874 0.0
C1702 C 0.86472 0.32366 0.34367 0.0
H1703 H 0.89686 0.27874 0.32741 0.0
H1704 H 0.88478 0.29679 0.31244 0.0
H1705 H 0.89438 0.29821 0.35002 0.0
H1706 H 0.86539 0.30921 0.41783 0.0
H1707 H 0.87447 0.33909 0.42689 0.0
H1708 H 0.91129 0.62905 0.68004 0.0
H1709 H 0.94123 0.61989 0.67185 0.0
H1710 H 0.93106 0.61341 0.57492 0.0
H1711 H 0.90101 0.62274 0.58276 0.0
H1712 H 0.95546 0.58888 0.64537 0.0
H1713 H 0.97187 0.64827 0.57858 0.0
H1714 H 0.95244 0.6466 0.60156 0.0
H1715 H 0.95366 0.63593 0.56488 0.0
C1716 C 0.91534 0.62558 0.65696 0.0
C1717 C 0.90377 0.6268 0.63199 0.0
C1718 C 0.93246 0.62031 0.65237 0.0
C1719 C 0.9384 0.61622 0.62274 0.0
C1720 C 0.92677 0.61678 0.5979 0.0
H1721 H 0.04516 0.6003 0.56189 0.0
H1722 H 0.01348 0.60132 0.56338 0.0
C1723 C 0.90959 0.62204 0.60247 0.0
C1724 C 0.95695 0.61208 0.61791 0.0
H1725 H 0.99419 0.62799 0.58624 0.0
C1726 C 0.96393 0.59735 0.63228 0.0
C1727 C 0.96793 0.62316 0.6008 0.0
C1728 C 0.9612 0.63946 0.58572 0.0
C1729 C 0.98168 0.59345 0.63015 0.0
C1730 C 0.99275 0.6048 0.61375 0.0
C1731 C 0.98567 0.61929 0.59876 0.0
C1732 C 0.01184 0.60247 0.61306 0.0
C1733 C 0.98839 0.57721 0.6454 0.0
C1734 C 0.02144 0.60271 0.64052 0.0
C1735 C 0.03954 0.60209 0.63978 0.0
C1736 C 0.04843 0.60139 0.61152 0.0
C1737 C 0.03875 0.60083 0.58406 0.0
C1738 C 0.02064 0.60141 0.58484 0.0
H1739 H 0.97794 0.56743 0.64839 0.0
H1740 H 0.99907 0.57129 0.63184 0.0
H1741 H 0.99346 0.58051 0.66858 0.0
H1742 H 0.01495 0.60395 0.66253 0.0
H1743 H 0.04656 0.60264 0.66136 0.0
H1744 H 0.64692 0.20333 0.58837 0.0
H1745 H 0.64452 0.23485 0.58442 0.0
H1746 H 0.64609 0.23909 0.68336 0.0
H1747 H 0.64863 0.20758 0.68764 0.0
H1748 H 0.61699 0.25398 0.61053 0.0
H1749 H 0.6808 0.27648 0.65455 0.0
H1750 H 0.67716 0.25454 0.64147 0.0
H1751 H 0.66962 0.26123 0.67875 0.0
C1752 C 0.64702 0.21095 0.60932 0.0
C1753 C 0.64792 0.2029 0.63834 0.0
C1754 C 0.64564 0.22897 0.60699 0.0
C1755 C 0.6453 0.2393 0.63357 0.0
C1756 C 0.64665 0.23138 0.66254 0.0
H1757 H 0.6237 0.34875 0.66493 0.0
H1758 H 0.63175 0.31817 0.6706 0.0
C1759 C 0.64799 0.21334 0.66493 0.0
C1760 C 0.64206 0.25818 0.63099 0.0
H1761 H 0.65937 0.29807 0.64607 0.0
C1762 C 0.62629 0.26363 0.61814 0.0
C1763 C 0.65415 0.2707 0.64126 0.0
C1764 C 0.67146 0.26551 0.65458 0.0
C1765 C 0.62219 0.28127 0.61547 0.0
C1766 C 0.63437 0.29383 0.62532 0.0
C1767 C 0.6501 0.2884 0.63845 0.0
C1768 C 0.63096 0.31263 0.62179 0.0
C1769 C 0.60469 0.2863 0.6027 0.0
C1770 C 0.62837 0.31973 0.59243 0.0
C1771 C 0.6237 0.33712 0.5891 0.0
C1772 C 0.62168 0.34782 0.6151 0.0
C1773 C 0.62509 0.34086 0.64444 0.0
C1774 C 0.62969 0.3234 0.64774 0.0
H1775 H 0.59527 0.27542 0.60409 0.0
H1776 H 0.59925 0.29762 0.61521 0.0
H1777 H 0.60613 0.2899 0.57809 0.0
H1778 H 0.62966 0.31172 0.57206 0.0
H1779 H 0.62139 0.34207 0.56613 0.0
H1780 H 0.0491 0.39896 0.84242 0.0
H1781 H 0.01752 0.39674 0.84027 0.0
H1782 H 0.01532 0.39471 0.9394 0.0
H1783 H 0.04691 0.39705 0.94189 0.0
H1784 H 0.99901 0.36819 0.86467 0.0
H1785 H 0.97733 0.43034 0.91682 0.0
H1786 H 0.99897 0.42726 0.90184 0.0
H1787 H 0.99312 0.41836 0.93861 0.0
C1788 C 0.04192 0.3983 0.86382 0.0
C1789 C 0.05057 0.39813 0.89234 0.0
C1790 C 0.02386 0.39704 0.86252 0.0
C1791 C 0.01409 0.39572 0.88967 0.0
C1792 C 0.02261 0.39602 0.9182 0.0
H1793 H 0.90487 0.37282 0.92279 0.0
H1794 H 0.9355 0.3807 0.92868 0.0
C1795 C 0.04068 0.39725 0.91954 0.0
C1796 C 0.99518 0.39253 0.88792 0.0
H1797 H 0.95558 0.40933 0.90672 0.0
C1798 C 0.98951 0.37722 0.87373 0.0
C1799 C 0.98286 0.40425 0.90012 0.0
C1800 C 0.9883 0.42106 0.91502 0.0
C1801 C 0.97183 0.37323 0.87147 0.0
C1802 C 0.95946 0.38509 0.88313 0.0
C1803 C 0.96511 0.40032 0.89771 0.0
C1804 C 0.94061 0.3819 0.87975 0.0
C1805 C 0.96656 0.35621 0.85706 0.0
C1806 C 0.93326 0.38053 0.85033 0.0
C1807 C 0.91587 0.37597 0.84687 0.0
C1808 C 0.90539 0.37285 0.87281 0.0
C1809 C 0.91258 0.37508 0.90234 0.0
C1810 C 0.93007 0.37958 0.90576 0.0
H1811 H 0.97741 0.34673 0.85701 0.0
H1812 H 0.95538 0.3504 0.86943 0.0
H1813 H 0.96265 0.35849 0.8328 0.0
H1814 H 0.9411 0.38264 0.82997 0.0
H1815 H 0.91072 0.37458 0.82379 0.0
H1816 H 0.85097 0.79684 0.0928 0.0
H1817 H 0.85338 0.76527 0.09099 0.0
H1818 H 0.85549 0.76343 0.19014 0.0
H1819 H 0.85292 0.79501 0.19229 0.0
H1820 H 0.88205 0.74724 0.11507 0.0
H1821 H 0.82049 0.72483 0.16849 0.0
H1822 H 0.82323 0.74651 0.15347 0.0
H1823 H 0.83242 0.74076 0.19007 0.0
C1824 C 0.85167 0.78974 0.11428 0.0
C1825 C 0.85181 0.79849 0.1427 0.0
C1826 C 0.85305 0.77169 0.11318 0.0
C1827 C 0.85446 0.76201 0.14042 0.0
C1828 C 0.8541 0.77062 0.16886 0.0
H1829 H 0.87994 0.65284 0.17118 0.0
H1830 H 0.87152 0.68327 0.17848 0.0
C1831 C 0.85273 0.7887 0.17001 0.0
C1832 C 0.8579 0.74313 0.13883 0.0
H1833 H 0.84168 0.70332 0.15792 0.0
C1834 C 0.87319 0.73764 0.12435 0.0
C1835 C 0.84642 0.73067 0.1513 0.0
C1836 C 0.82964 0.73591 0.16653 0.0
C1837 C 0.87734 0.72 0.12193 0.0
C1838 C 0.8657 0.7075 0.13379 0.0
C1839 C 0.85053 0.71296 0.14878 0.0
C1840 C 0.86898 0.68871 0.12982 0.0
C1841 C 0.89426 0.71491 0.10696 0.0
C1842 C 0.86975 0.68162 0.10015 0.0
C1843 C 0.8746 0.66436 0.09589 0.0
C1844 C 0.87865 0.65378 0.12128 0.0
C1845 C 0.87697 0.66066 0.15115 0.0
C1846 C 0.87216 0.67802 0.15537 0.0
H1847 H 0.90362 0.72586 0.10656 0.0
H1848 H 0.90032 0.7038 0.11916 0.0
H1849 H 0.89177 0.71094 0.0828 0.0
H1850 H 0.86702 0.68958 0.08018 0.0
H1851 H 0.87554 0.65945 0.07259 0.0
H1852 H 0.58941 0.62857 0.3223 0.0
H1853 H 0.55945 0.61968 0.33113 0.0
H1854 H 0.56956 0.6155 0.42848 0.0
H1855 H 0.59963 0.62458 0.41998 0.0
H1856 H 0.5452 0.58939 0.35964 0.0
H1857 H 0.52874 0.65014 0.4224 0.0
H1858 H 0.54821 0.64797 0.39966 0.0
H1859 H 0.54691 0.63809 0.43703 0.0
C1860 C 0.58534 0.62568 0.34561 0.0
C1861 C 0.5969 0.62747 0.37049 0.0
C1862 C 0.56821 0.62055 0.35057 0.0
C1863 C 0.56225 0.61718 0.38047 0.0
C1864 C 0.57387 0.61832 0.40527 0.0
H1865 H 0.45551 0.60234 0.44233 0.0
H1866 H 0.48718 0.60344 0.44075 0.0
C1867 C 0.59105 0.62344 0.40034 0.0
C1868 C 0.54369 0.61314 0.38555 0.0
H1869 H 0.50644 0.62968 0.41614 0.0
C1870 C 0.53672 0.59812 0.37216 0.0
C1871 C 0.5327 0.62457 0.40192 0.0
C1872 C 0.53942 0.64118 0.41592 0.0
C1873 C 0.51897 0.59427 0.37452 0.0
C1874 C 0.50789 0.60594 0.39017 0.0
C1875 C 0.51496 0.62074 0.4042 0.0
C1876 C 0.48881 0.60361 0.39102 0.0
C1877 C 0.51226 0.57772 0.36034 0.0
C1878 C 0.4792 0.60329 0.36357 0.0
C1879 C 0.46109 0.60261 0.36437 0.0
C1880 C 0.45222 0.60244 0.39267 0.0
C1881 C 0.46191 0.60246 0.42013 0.0
C1882 C 0.48002 0.60309 0.41929 0.0
H1883 H 0.52273 0.5679 0.35796 0.0
H1884 H 0.5016 0.57207 0.3743 0.0
H1885 H 0.50718 0.58055 0.33698 0.0
H1886 H 0.48568 0.6041 0.34149 0.0
H1887 H 0.45406 0.6027 0.34278 0.0
H1888 H 0.37739 0.34136 0.0725 0.0
H1889 H 0.36875 0.31107 0.07753 0.0
H1890 H 0.36646 0.31673 0.17623 0.0
H1891 H 0.37489 0.34722 0.17144 0.0
H1892 H 0.38787 0.28651 0.10872 0.0
H1893 H 0.32134 0.29091 0.15705 0.0
H1894 H 0.33205 0.30913 0.13912 0.0
H1895 H 0.33747 0.30296 0.17784 0.0
C1896 C 0.37482 0.33628 0.0953 0.0
C1897 C 0.3769 0.34673 0.1216 0.0
C1898 C 0.36987 0.31895 0.0981 0.0
C1899 C 0.36682 0.31169 0.12721 0.0
C1900 C 0.36843 0.32216 0.1535 0.0
H1901 H 0.35361 0.20564 0.18964 0.0
H1902 H 0.35581 0.23722 0.18585 0.0
C1903 C 0.37334 0.33956 0.15072 0.0
C1904 C 0.36345 0.29283 0.12998 0.0
H1905 H 0.33415 0.26286 0.15548 0.0
C1906 C 0.37607 0.28135 0.11877 0.0
C1907 C 0.3481 0.28614 0.1433 0.0
C1908 C 0.33387 0.2979 0.1548 0.0
C1909 C 0.37386 0.26334 0.12075 0.0
C1910 C 0.35849 0.25664 0.13387 0.0
C1911 C 0.34588 0.26808 0.14532 0.0
C1912 C 0.35547 0.23773 0.13608 0.0
C1913 C 0.38817 0.25163 0.10933 0.0
C1914 C 0.35405 0.22763 0.10933 0.0
C1915 C 0.35282 0.20959 0.11136 0.0
C1916 C 0.35293 0.20132 0.14023 0.0
C1917 C 0.35359 0.21157 0.16703 0.0
C1918 C 0.35481 0.22962 0.16495 0.0
H1919 H 0.40063 0.25871 0.10659 0.0
H1920 H 0.39023 0.24061 0.12537 0.0
H1921 H 0.38449 0.24626 0.08655 0.0
H1922 H 0.35427 0.2337 0.08683 0.0
H1923 H 0.35221 0.20213 0.09026 0.0
H1924 H 0.40859 0.62617 0.81952 0.0
H1925 H 0.43883 0.61754 0.82547 0.0
H1926 H 0.43317 0.61863 0.92424 0.0
H1927 H 0.40272 0.62703 0.91855 0.0
H1928 H 0.46349 0.63749 0.85438 0.0
H1929 H 0.45877 0.57287 0.91019 0.0
H1930 H 0.44058 0.58305 0.89124 0.0
H1931 H 0.4469 0.58979 0.92923 0.0
C1932 C 0.41366 0.62435 0.84255 0.0
C1933 C 0.40322 0.62736 0.86858 0.0
C1934 C 0.43096 0.6194 0.84589 0.0
C1935 C 0.43821 0.6173 0.87526 0.0
C1936 C 0.42775 0.61984 0.90133 0.0
H1937 H 0.54438 0.60518 0.93827 0.0
H1938 H 0.51281 0.60757 0.93459 0.0
C1939 C 0.41037 0.62474 0.89803 0.0
C1940 C 0.45706 0.61392 0.87838 0.0
H1941 H 0.4869 0.5854 0.90697 0.0
C1942 C 0.4686 0.62605 0.86572 0.0
C1943 C 0.46368 0.59905 0.89341 0.0
C1944 C 0.45186 0.58535 0.90659 0.0
C1945 C 0.4866 0.6238 0.86784 0.0
C1946 C 0.49323 0.60886 0.8826 0.0
C1947 C 0.48173 0.59679 0.89555 0.0
C1948 C 0.51214 0.60576 0.88492 0.0
C1949 C 0.49836 0.6376 0.85477 0.0
C1950 C 0.52213 0.60345 0.85824 0.0
C1951 C 0.54016 0.60212 0.86021 0.0
C1952 C 0.54854 0.603 0.88895 0.0
C1953 C 0.53838 0.60454 0.91575 0.0
C1954 C 0.52033 0.60588 0.91373 0.0
H1955 H 0.49138 0.65001 0.8509 0.0
H1956 H 0.50951 0.64007 0.87036 0.0
H1957 H 0.50356 0.63314 0.83229 0.0
H1958 H 0.51599 0.60305 0.83582 0.0
H1959 H 0.54755 0.6008 0.83912 0.0
H1960 H 0.12346 0.65415 0.67153 0.0
H1961 H 0.13176 0.68469 0.67707 0.0
H1962 H 0.13339 0.69002 0.57829 0.0
H1963 H 0.1249 0.65974 0.57247 0.0
H1964 H 0.16045 0.70449 0.65476 0.0
H1965 H 0.09791 0.72669 0.60532 0.0
H1966 H 0.10144 0.70466 0.61781 0.0
H1967 H 0.10951 0.71181 0.5811 0.0
C1968 C 0.12574 0.66178 0.65099 0.0
C1969 C 0.12328 0.65456 0.62155 0.0
C1970 C 0.13049 0.67922 0.65421 0.0
C1971 C 0.13283 0.68967 0.62809 0.0
C1972 C 0.13126 0.68226 0.59874 0.0
H1973 H 0.15043 0.79794 0.58977 0.0
H1974 H 0.14819 0.76636 0.58793 0.0
C1975 C 0.12645 0.66492 0.59548 0.0
C1976 C 0.13619 0.7085 0.63127 0.0
H1977 H 0.11955 0.74814 0.61265 0.0
C1978 C 0.15149 0.71407 0.64573 0.0
C1979 C 0.12441 0.72094 0.61961 0.0
C1980 C 0.10731 0.71577 0.60535 0.0
C1981 C 0.15556 0.7318 0.648 0.0
C1982 C 0.14391 0.74418 0.63578 0.0
C1983 C 0.12853 0.73859 0.62173 0.0
C1984 C 0.14724 0.76308 0.63736 0.0
C1985 C 0.17243 0.73715 0.66277 0.0
C1986 C 0.1476 0.77167 0.66582 0.0
C1987 C 0.14885 0.78976 0.66699 0.0
C1988 C 0.14966 0.79957 0.63968 0.0
C1989 C 0.14981 0.79082 0.61125 0.0
C1990 C 0.14854 0.77277 0.61013 0.0
H1991 H 0.18163 0.72611 0.66464 0.0
H1992 H 0.17869 0.74773 0.64946 0.0
H1993 H 0.16981 0.74207 0.68633 0.0
H1994 H 0.14631 0.76445 0.68709 0.0
H1995 H 0.14866 0.79606 0.68927 0.0
H1996 H 0.0904 0.37464 0.32462 0.0
H1997 H 0.06009 0.38303 0.33041 0.0
H1998 H 0.06544 0.38144 0.42921 0.0
H1999 H 0.09597 0.37327 0.42368 0.0
H2000 H 0.03548 0.36265 0.35896 0.0
H2001 H 0.03959 0.42719 0.41535 0.0
H2002 H 0.05789 0.41722 0.39635 0.0
H2003 H 0.05156 0.41024 0.43418 0.0
C2004 C 0.08524 0.3763 0.34763 0.0
C2005 C 0.09562 0.37321 0.37371 0.0
C2006 C 0.0679 0.38111 0.35087 0.0
C2007 C 0.06054 0.38299 0.38021 0.0
C2008 C 0.07094 0.38038 0.40635 0.0
H2009 H 0.95378 0.39481 0.44069 0.0
H2010 H 0.98537 0.39231 0.43797 0.0
C2011 C 0.08837 0.37562 0.40314 0.0
C2012 C 0.04167 0.38623 0.38316 0.0
H2013 H 0.01155 0.41463 0.41118 0.0
C2014 C 0.03026 0.37406 0.37025 0.0
C2015 C 0.03491 0.40105 0.39811 0.0
C2016 C 0.04659 0.41477 0.41159 0.0
C2017 C 0.01224 0.37626 0.37198 0.0
C2018 C 0.00546 0.39117 0.3866 0.0
C2019 C 0.01683 0.40326 0.39986 0.0
C2020 C 0.98654 0.39426 0.38835 0.0
C2021 C 0.0006 0.36244 0.35861 0.0
C2022 C 0.97683 0.39667 0.36138 0.0
C2023 C 0.95878 0.39807 0.3628 0.0
C2024 C 0.95012 0.39716 0.39127 0.0
C2025 C 0.96001 0.39548 0.41837 0.0
C2026 C 0.97807 0.39408 0.4169 0.0
H2027 H 0.00765 0.35004 0.35488 0.0
H2028 H 0.98935 0.35994 0.37393 0.0
H2029 H 0.99557 0.3669 0.33602 0.0
H2030 H 0.98319 0.39711 0.33915 0.0
H2031 H 0.95161 0.39948 0.3415 0.0
H2032 H 0.37728 0.66182 0.42853 0.0
H2033 H 0.3678 0.69163 0.42033 0.0
H2034 H 0.36475 0.68237 0.32257 0.0
H2035 H 0.37442 0.65243 0.33048 0.0
H2036 H 0.38401 0.71173 0.33865 0.0
H2037 H 0.3204 0.71193 0.39798 0.0
H2038 H 0.33766 0.70327 0.42106 0.0
H2039 H 0.33119 0.69217 0.38649 0.0
C2040 C 0.3744 0.66601 0.40528 0.0
C2041 C 0.37665 0.65471 0.38014 0.0
C2042 C 0.36885 0.68304 0.40068 0.0
C2043 C 0.36534 0.68913 0.3709 0.0
C2044 C 0.36727 0.67785 0.34577 0.0
H2045 H 0.34911 0.79605 0.30852 0.0
H2046 H 0.35063 0.76439 0.30993 0.0
C2047 C 0.37278 0.66075 0.35035 0.0
C2048 C 0.36109 0.70766 0.36597 0.0
H2049 H 0.333 0.73969 0.38745 0.0
C2050 C 0.37272 0.71782 0.3489 0.0
C2051 C 0.3464 0.71556 0.37954 0.0
C2052 C 0.3331 0.70515 0.39706 0.0
C2053 C 0.37047 0.73581 0.34609 0.0
C2054 C 0.35598 0.74377 0.36022 0.0
C2055 C 0.3441 0.73355 0.37667 0.0
C2056 C 0.35343 0.76282 0.35942 0.0
C2057 C 0.38404 0.74621 0.32916 0.0
C2058 C 0.35377 0.77238 0.38689 0.0
C2059 C 0.35276 0.79047 0.38623 0.0
C2060 C 0.35138 0.79935 0.35802 0.0
C2061 C 0.35034 0.78966 0.33062 0.0
C2062 C 0.35128 0.77156 0.33134 0.0
H2063 H 0.39623 0.73876 0.32588 0.0
H2064 H 0.37901 0.74978 0.30608 0.0
H2065 H 0.38711 0.75836 0.34175 0.0
H2066 H 0.35534 0.76586 0.40882 0.0
H2067 H 0.35354 0.7975 0.40777 0.0
H2068 H 0.95752 0.62068 0.07187 0.0
H2069 H 0.98897 0.62192 0.07702 0.0
H2070 H 0.98685 0.5831 0.14861 0.0
H2071 H 0.95516 0.58282 0.14496 0.0
H2072 H 0.00698 0.60619 0.16643 0.0
H2073 H 0.0269 0.59282 0.0472 0.0
H2074 H 0.01264 0.61111 0.04716 0.0
H2075 H 0.00475 0.5902 0.0596 0.0
C2076 C 0.9638 0.61224 0.08841 0.0
C2077 C 0.95394 0.60162 0.10797 0.0
C2078 C 0.98184 0.61282 0.09115 0.0
C2079 C 0.99047 0.60228 0.11266 0.0
C2080 C 0.98058 0.59132 0.13172 0.0
H2081 H 0.1046 0.60798 0.10964 0.0
H2082 H 0.07485 0.59708 0.1042 0.0
C2083 C 0.96248 0.59114 0.12962 0.0
C2084 C 0.00955 0.60388 0.11712 0.0
H2085 H 0.04774 0.60877 0.07829 0.0
C2086 C 0.01589 0.60641 0.14712 0.0
C2087 C 0.02144 0.60373 0.09222 0.0
C2088 C 0.01606 0.5991 0.05984 0.0
C2089 C 0.03351 0.60966 0.15272 0.0
C2090 C 0.04503 0.61138 0.12749 0.0
C2091 C 0.0389 0.60791 0.09765 0.0
C2092 C 0.06318 0.61754 0.13142 0.0
C2093 C 0.03949 0.61109 0.18572 0.0
C2094 C 0.06656 0.63278 0.14809 0.0
C2095 C 0.08351 0.63871 0.15188 0.0
C2096 C 0.09744 0.62991 0.13812 0.0
C2097 C 0.09408 0.61498 0.12055 0.0
C2098 C 0.0771 0.60877 0.11744 0.0
H2099 H 0.03138 0.60294 0.20113 0.0
H2100 H 0.05323 0.60708 0.1884 0.0
H2101 H 0.03811 0.62472 0.19354 0.0
H2102 H 0.05606 0.64024 0.15798 0.0
H2103 H 0.08568 0.65044 0.16506 0.0
H2104 H 0.14947 0.20452 0.81099 0.0
H2105 H 0.14885 0.23621 0.81176 0.0
H2106 H 0.14916 0.23554 0.91105 0.0
H2107 H 0.1501 0.2039 0.91056 0.0
H2108 H 0.12318 0.25601 0.83641 0.0
H2109 H 0.18557 0.27201 0.89271 0.0
H2110 H 0.181 0.25079 0.87713 0.0
H2111 H 0.17291 0.25683 0.9145 0.0
C2112 C 0.14966 0.2111 0.83302 0.0
C2113 C 0.14982 0.20164 0.86073 0.0
C2114 C 0.14931 0.22922 0.83339 0.0
C2115 C 0.1492 0.23826 0.86144 0.0
C2116 C 0.14966 0.22887 0.88912 0.0
H2117 H 0.12524 0.33928 0.92862 0.0
H2118 H 0.13414 0.30929 0.92009 0.0
C2119 C 0.15007 0.21075 0.88879 0.0
C2120 C 0.14711 0.25738 0.86184 0.0
H2121 H 0.16429 0.29472 0.89115 0.0
C2122 C 0.1323 0.26452 0.84796 0.0
C2123 C 0.15903 0.26844 0.87695 0.0
C2124 C 0.17561 0.26165 0.8909 0.0
C2125 C 0.12869 0.28232 0.8499 0.0
C2126 C 0.14035 0.29329 0.86579 0.0
C2127 C 0.15539 0.28625 0.879 0.0
C2128 C 0.13649 0.3119 0.87069 0.0
C2129 C 0.11206 0.28912 0.83611 0.0
C2130 C 0.13529 0.32343 0.84576 0.0
C2131 C 0.13017 0.34063 0.85052 0.0
C2132 C 0.12618 0.34658 0.88033 0.0
C2133 C 0.12809 0.33513 0.90534 0.0
C2134 C 0.13323 0.31798 0.90054 0.0
H2135 H 0.10298 0.2785 0.82989 0.0
H2136 H 0.10543 0.29802 0.85241 0.0
H2137 H 0.11509 0.29654 0.81488 0.0
H2138 H 0.13801 0.31902 0.82258 0.0
H2139 H 0.12892 0.34912 0.83078 0.0
H2140 H 0.4023 0.37314 0.58087 0.0
H2141 H 0.43261 0.38191 0.57333 0.0
H2142 H 0.43918 0.38624 0.67161 0.0
H2143 H 0.40916 0.37739 0.67943 0.0
H2144 H 0.45251 0.41199 0.59435 0.0
H2145 H 0.47557 0.34981 0.64413 0.0
H2146 H 0.45347 0.35304 0.63165 0.0
H2147 H 0.46059 0.36143 0.66815 0.0
C2148 C 0.41015 0.37616 0.60085 0.0
C2149 C 0.40337 0.37433 0.63076 0.0
C2150 C 0.42744 0.38117 0.59649 0.0
C2151 C 0.43817 0.3844 0.62195 0.0
C2152 C 0.43118 0.38348 0.65169 0.0
H2153 H 0.54654 0.402 0.65751 0.0
H2154 H 0.51497 0.39979 0.65996 0.0
C2155 C 0.41399 0.37844 0.65608 0.0
C2156 C 0.45691 0.38781 0.61784 0.0
H2157 H 0.4968 0.37149 0.63559 0.0
C2158 C 0.46224 0.40312 0.60315 0.0
C2159 C 0.46952 0.37615 0.62927 0.0
C2160 C 0.46456 0.3591 0.64394 0.0
C2161 C 0.47992 0.40733 0.60047 0.0
C2162 C 0.49249 0.39581 0.61247 0.0
C2163 C 0.48712 0.38038 0.62668 0.0
C2164 C 0.51135 0.39929 0.61058 0.0
C2165 C 0.48501 0.42425 0.58558 0.0
C2166 C 0.51975 0.39994 0.58196 0.0
C2167 C 0.53783 0.40121 0.58045 0.0
C2168 C 0.54782 0.40171 0.60757 0.0
C2169 C 0.53928 0.40162 0.63618 0.0
C2170 C 0.52123 0.40035 0.63764 0.0
H2171 H 0.47391 0.4334 0.58421 0.0
H2172 H 0.49572 0.43055 0.59849 0.0
H2173 H 0.48962 0.42169 0.56181 0.0
H2174 H 0.5124 0.39882 0.5608 0.0
H2175 H 0.54397 0.40121 0.55803 0.0
H2176 H 0.09711 0.11147 0.52895 0.0
H2177 H 0.10999 0.11022 0.58011 0.0
H2178 H 0.15459 0.08367 0.54318 0.0
H2179 H 0.14164 0.08483 0.49138 0.0
H2180 H 0.12361 0.08061 0.61667 0.0
H2181 H 0.1727 0.13039 0.58363 0.0
H2182 H 0.15328 0.12716 0.56114 0.0
H2183 H 0.1702 0.11123 0.56029 0.0
C2184 C 0.10955 0.10513 0.53168 0.0
C2185 C 0.11843 0.09837 0.50611 0.0
C2186 C 0.11687 0.10437 0.56097 0.0
C2187 C 0.13328 0.09698 0.56535 0.0
C2188 C 0.14193 0.08951 0.54017 0.0
H2189 H 0.1645 0.10776 0.76146 0.0
H2190 H 0.16547 0.09465 0.70976 0.0
C2191 C 0.1345 0.09012 0.51069 0.0
C2192 C 0.14151 0.09856 0.59603 0.0
H2193 H 0.16837 0.12545 0.63631 0.0
C2194 C 0.1338 0.08999 0.62103 0.0
C2195 C 0.15471 0.1109 0.60149 0.0
C2196 C 0.16326 0.12055 0.57536 0.0
C2197 C 0.1381 0.09433 0.65149 0.0
C2198 C 0.15042 0.10756 0.65695 0.0
C2199 C 0.15901 0.11524 0.63196 0.0
C2200 C 0.15195 0.11582 0.6876 0.0
C2201 C 0.12843 0.08581 0.67763 0.0
C2202 C 0.14446 0.13219 0.69194 0.0
C2203 C 0.1438 0.13959 0.72117 0.0
C2204 C 0.15076 0.13085 0.74672 0.0
C2205 C 0.15905 0.1148 0.74217 0.0
C2206 C 0.15956 0.10728 0.71275 0.0
H2207 H 0.11868 0.07628 0.66937 0.0
H2208 H 0.13775 0.07899 0.69287 0.0
H2209 H 0.12172 0.0958 0.69167 0.0
H2210 H 0.13851 0.13899 0.67281 0.0
H2211 H 0.13742 0.15202 0.72386 0.0
H2212 H 0.16491 0.89515 0.73664 0.0
H2213 H 0.16614 0.909 0.78766 0.0
H2214 H 0.14479 0.86278 0.82872 0.0
H2215 H 0.14341 0.84904 0.77828 0.0
H2216 H 0.13584 0.91432 0.8242 0.0
H2217 H 0.18448 0.87584 0.88783 0.0
H2218 H 0.18377 0.87664 0.84623 0.0
H2219 H 0.1696 0.86228 0.8671 0.0
C2220 C 0.16089 0.88784 0.75671 0.0
C2221 C 0.15403 0.87104 0.75353 0.0
C2222 C 0.16156 0.89577 0.78576 0.0
C2223 C 0.15576 0.88683 0.812 0.0
C2224 C 0.14965 0.86979 0.8089 0.0
H2225 H 0.09631 0.89667 0.96485 0.0
H2226 H 0.10982 0.89832 0.91425 0.0
C2227 C 0.14876 0.862 0.78 0.0
C2228 C 0.15397 0.89563 0.84218 0.0
H2229 H 0.16144 0.8887 0.9186 0.0
C2230 C 0.14183 0.9091 0.84482 0.0
C2231 C 0.16195 0.88901 0.86902 0.0
C2232 C 0.17582 0.87526 0.86741 0.0
C2233 C 0.13621 0.91491 0.87379 0.0
C2234 C 0.14282 0.90693 0.90065 0.0
C2235 C 0.15623 0.8947 0.898 0.0
C2236 C 0.13411 0.9088 0.93089 0.0
C2237 C 0.12257 0.92888 0.87539 0.0
C2238 C 0.14323 0.91427 0.95715 0.0
C2239 C 0.13544 0.91343 0.98631 0.0
C2240 C 0.11858 0.90673 0.98956 0.0
C2241 C 0.10931 0.90189 0.96307 0.0
C2242 C 0.11698 0.90295 0.93407 0.0
H2243 H 0.12328 0.93758 0.85503 0.0
H2244 H 0.10954 0.92277 0.87553 0.0
H2245 H 0.12395 0.93679 0.89663 0.0
H2246 H 0.15653 0.91865 0.9552 0.0
H2247 H 0.14292 0.91711 0.00637 0.0
H2248 H 0.3571 0.9147 0.98878 0.0
H2249 H 0.34382 0.91635 0.04025 0.0
H2250 H 0.38962 0.89322 0.07972 0.0
H2251 H 0.40278 0.89141 0.02884 0.0
H2252 H 0.33794 0.88603 0.07726 0.0
H2253 H 0.37864 0.93376 0.13882 0.0
H2254 H 0.3772 0.93299 0.09728 0.0
H2255 H 0.39138 0.91839 0.11758 0.0
C2256 C 0.36445 0.91036 0.00859 0.0
C2257 C 0.38096 0.90289 0.00484 0.0
C2258 C 0.35685 0.91127 0.03789 0.0
C2259 C 0.36583 0.90511 0.06382 0.0
C2260 C 0.38258 0.89835 0.06014 0.0
H2261 H 0.35572 0.84717 0.21869 0.0
H2262 H 0.3543 0.86032 0.16776 0.0
C2263 C 0.39005 0.89722 0.03099 0.0
C2264 C 0.35732 0.90371 0.0943 0.0
H2265 H 0.36516 0.91148 0.17036 0.0
C2266 C 0.34352 0.89199 0.09759 0.0
C2267 C 0.36445 0.91165 0.12078 0.0
C2268 C 0.37863 0.92504 0.11845 0.0
C2269 C 0.33782 0.88675 0.12685 0.0
C2270 C 0.34621 0.89333 0.15333 0.0
C2271 C 0.35883 0.90631 0.15003 0.0
C2272 C 0.34429 0.88493 0.18383 0.0
C2273 C 0.32349 0.87352 0.12917 0.0
C2274 C 0.33902 0.89437 0.20987 0.0
C2275 C 0.33971 0.88678 0.23921 0.0
C2276 C 0.34608 0.86981 0.24286 0.0
C2277 C 0.35077 0.86027 0.2166 0.0
C2278 C 0.34984 0.86773 0.18742 0.0
H2279 H 0.31473 0.87418 0.10889 0.0
H2280 H 0.32925 0.86034 0.12983 0.0
H2281 H 0.31571 0.87541 0.15044 0.0
H2282 H 0.33488 0.90773 0.20758 0.0
H2283 H 0.33615 0.89447 0.2591 0.0
H2284 H 0.35744 0.0876 0.51158 0.0
H2285 H 0.34353 0.08632 0.46064 0.0
H2286 H 0.39086 0.10438 0.41861 0.0
H2287 H 0.40469 0.10574 0.46895 0.0
H2288 H 0.33952 0.11588 0.42307 0.0
H2289 H 0.37583 0.06509 0.36088 0.0
H2290 H 0.37538 0.0664 0.40244 0.0
H2291 H 0.39017 0.07965 0.38061 0.0
C2292 C 0.36496 0.09087 0.49134 0.0
C2293 C 0.38213 0.09681 0.49421 0.0
C2294 C 0.357 0.09016 0.46232 0.0
C2295 C 0.36624 0.09503 0.43581 0.0
C2296 C 0.3836 0.10021 0.43864 0.0
H2297 H 0.35822 0.15371 0.28166 0.0
H2298 H 0.35633 0.14053 0.33248 0.0
C2299 C 0.39145 0.10111 0.46749 0.0
C2300 C 0.35751 0.09689 0.40558 0.0
H2301 H 0.36406 0.08849 0.32936 0.0
C2302 C 0.34449 0.10951 0.40263 0.0
C2303 C 0.36378 0.08842 0.37895 0.0
C2304 C 0.37694 0.074 0.3809 0.0
C2305 C 0.33887 0.11508 0.37351 0.0
C2306 C 0.34658 0.10795 0.34683 0.0
C2307 C 0.35829 0.09411 0.34983 0.0
C2308 C 0.34503 0.11649 0.31638 0.0
C2309 C 0.3254 0.12921 0.37157 0.0
C2310 C 0.33923 0.10738 0.29033 0.0
C2311 C 0.34022 0.11498 0.26103 0.0
C2312 C 0.3474 0.13162 0.25742 0.0
C2313 C 0.35264 0.14086 0.28369 0.0
C2314 C 0.35144 0.13339 0.31283 0.0
H2315 H 0.31666 0.12894 0.39192 0.0
H2316 H 0.33198 0.142 0.3712 0.0
H2317 H 0.31747 0.12797 0.35034 0.0
H2318 H 0.33442 0.09425 0.29257 0.0
H2319 H 0.33621 0.10752 0.24113 0.0
H2320 H 0.85568 0.84771 0.28125 0.0
H2321 H 0.85374 0.86136 0.33169 0.0
H2322 H 0.83351 0.90791 0.29001 0.0
H2323 H 0.8353 0.89413 0.23896 0.0
H2324 H 0.86342 0.91281 0.32739 0.0
H2325 H 0.81383 0.87494 0.38978 0.0
H2326 H 0.82865 0.86114 0.36943 0.0
H2327 H 0.81487 0.87572 0.34819 0.0
C2328 C 0.85044 0.86072 0.28282 0.0
C2329 C 0.84567 0.86988 0.25618 0.0
C2330 C 0.84922 0.86846 0.31172 0.0
C2331 C 0.84328 0.88557 0.31466 0.0
C2332 C 0.83794 0.89462 0.28823 0.0
H2333 H 0.85644 0.91554 0.50937 0.0
H2334 H 0.84269 0.91729 0.45829 0.0
C2335 C 0.83893 0.88674 0.25916 0.0
C2336 C 0.84492 0.89433 0.34489 0.0
H2337 H 0.83701 0.88723 0.42113 0.0
C2338 C 0.85724 0.90762 0.34785 0.0
C2339 C 0.8367 0.88775 0.37154 0.0
C2340 C 0.82263 0.87422 0.36957 0.0
C2341 C 0.86282 0.91321 0.37697 0.0
C2342 C 0.85599 0.90521 0.40363 0.0
C2343 C 0.84239 0.89324 0.40066 0.0
C2344 C 0.86474 0.9067 0.43389 0.0
C2345 C 0.87672 0.92692 0.37895 0.0
C2346 C 0.88166 0.90028 0.43697 0.0
C2347 C 0.88939 0.89908 0.46589 0.0
C2348 C 0.88039 0.90435 0.4924 0.0
C2349 C 0.86371 0.91151 0.48927 0.0
C2350 C 0.85584 0.91248 0.46018 0.0
H2351 H 0.87631 0.93568 0.35864 0.0
H2352 H 0.87535 0.93479 0.40022 0.0
H2353 H 0.88963 0.92055 0.37931 0.0
H2354 H 0.88863 0.89542 0.4171 0.0
H2355 H 0.90225 0.89351 0.46757 0.0
H2356 H 0.90151 0.10938 0.03246 0.0
H2357 H 0.88797 0.1072 0.08297 0.0
H2358 H 0.84222 0.08494 0.0418 0.0
H2359 H 0.85591 0.08692 0.99067 0.0
H2360 H 0.83655 0.11511 0.07987 0.0
H2361 H 0.87611 0.06601 0.14035 0.0
H2362 H 0.88923 0.08127 0.11959 0.0
H2363 H 0.87477 0.06717 0.09881 0.0
C2364 C 0.8887 0.1037 0.03414 0.0
C2365 C 0.87974 0.09835 0.00763 0.0
C2366 C 0.88102 0.10235 0.06308 0.0
C2367 C 0.86419 0.09571 0.06618 0.0
C2368 C 0.85531 0.08991 0.03988 0.0
H2369 H 0.83515 0.10636 0.26172 0.0
H2370 H 0.83327 0.09309 0.21024 0.0
C2371 C 0.86314 0.09102 0.01077 0.0
C2372 C 0.85553 0.09688 0.09655 0.0
H2373 H 0.86322 0.08845 0.17242 0.0
C2374 C 0.84198 0.10887 0.10007 0.0
C2375 C 0.86245 0.08858 0.12285 0.0
C2376 C 0.87633 0.0749 0.12022 0.0
C2377 C 0.83642 0.11406 0.12944 0.0
C2378 C 0.84471 0.10716 0.15577 0.0
C2379 C 0.85698 0.09387 0.15221 0.0
C2380 C 0.84321 0.1156 0.1863 0.0
C2381 C 0.82243 0.12763 0.13205 0.0
C2382 C 0.84931 0.13262 0.18977 0.0
C2383 C 0.8506 0.14006 0.21891 0.0
C2384 C 0.84573 0.13069 0.24525 0.0
C2385 C 0.83887 0.11391 0.24175 0.0
C2386 C 0.83781 0.10632 0.21244 0.0
H2387 H 0.81358 0.12722 0.11187 0.0
H2388 H 0.8147 0.12589 0.15341 0.0
H2389 H 0.82851 0.14067 0.13269 0.0
H2390 H 0.85388 0.13988 0.17002 0.0
H2391 H 0.85593 0.15302 0.22088 0.0
H2392 H 0.66746 0.11067 0.74202 0.0
H2393 H 0.66879 0.09731 0.79345 0.0
H2394 H 0.64342 0.14214 0.83209 0.0
H2395 H 0.64207 0.15545 0.78131 0.0
H2396 H 0.67178 0.12803 0.86856 0.0
H2397 H 0.62255 0.07902 0.83269 0.0
H2398 H 0.64211 0.08123 0.81038 0.0
H2399 H 0.6264 0.09837 0.81036 0.0
C2400 C 0.66251 0.11778 0.76163 0.0
C2401 C 0.65451 0.13403 0.75762 0.0
C2402 C 0.6632 0.11011 0.79091 0.0
C2403 C 0.65603 0.11868 0.81646 0.0
C2404 C 0.64901 0.13531 0.81267 0.0
H2405 H 0.59896 0.11179 0.97231 0.0
H2406 H 0.61253 0.11088 0.92171 0.0
C2407 C 0.6482 0.14288 0.78358 0.0
C2408 C 0.65425 0.11013 0.84684 0.0
H2409 H 0.62733 0.08254 0.88552 0.0
C2410 C 0.66248 0.11769 0.87233 0.0
C2411 C 0.642 0.09673 0.85155 0.0
C2412 C 0.63265 0.08832 0.82493 0.0
C2413 C 0.65786 0.1131 0.90253 0.0
C2414 C 0.64474 0.10056 0.90723 0.0
C2415 C 0.63745 0.09208 0.88176 0.0
C2416 C 0.63615 0.09866 0.93755 0.0
C2417 C 0.66596 0.12272 0.92916 0.0
C2418 C 0.64475 0.09159 0.96315 0.0
C2419 C 0.63693 0.09202 0.99232 0.0
C2420 C 0.6205 0.09966 0.99617 0.0
C2421 C 0.61167 0.10594 0.97016 0.0
C2422 C 0.61939 0.10537 0.94118 0.0
H2423 H 0.67512 0.13294 0.92141 0.0
H2424 H 0.65572 0.12884 0.94347 0.0
H2425 H 0.67314 0.11344 0.94397 0.0
H2426 H 0.65766 0.08623 0.96073 0.0
H2427 H 0.64404 0.0871 0.01198 0.0
H2428 H 0.64274 0.91507 0.4882 0.0
H2429 H 0.65587 0.91611 0.53986 0.0
H2430 H 0.61127 0.88974 0.57718 0.0
H2431 H 0.5982 0.8886 0.52615 0.0
H2432 H 0.62508 0.91918 0.61368 0.0
H2433 H 0.67398 0.86936 0.57999 0.0
H2434 H 0.6715 0.88855 0.55674 0.0
H2435 H 0.65451 0.8727 0.55768 0.0
C2436 C 0.63564 0.90979 0.50757 0.0
C2437 C 0.61951 0.90163 0.50312 0.0
C2438 C 0.64317 0.91033 0.53697 0.0
C2439 C 0.63457 0.90287 0.56221 0.0
C2440 C 0.61811 0.89556 0.55798 0.0
H2441 H 0.63997 0.84768 0.72071 0.0
H2442 H 0.64096 0.86059 0.66956 0.0
C2443 C 0.61069 0.89488 0.52876 0.0
C2444 C 0.6429 0.90125 0.5928 0.0
H2445 H 0.67 0.87441 0.63271 0.0
C2446 C 0.6353 0.90981 0.6179 0.0
C2447 C 0.65614 0.88891 0.59808 0.0
C2448 C 0.66456 0.87925 0.57183 0.0
C2449 C 0.63974 0.90548 0.64831 0.0
C2450 C 0.65212 0.89228 0.65361 0.0
C2451 C 0.6606 0.8846 0.62848 0.0
C2452 C 0.65387 0.88407 0.68427 0.0
C2453 C 0.63015 0.914 0.67456 0.0
C2454 C 0.66126 0.89281 0.70941 0.0
C2455 C 0.6608 0.88537 0.7389 0.0
C2456 C 0.65279 0.86919 0.74352 0.0
C2457 C 0.64613 0.86021 0.71797 0.0
C2458 C 0.64673 0.86754 0.68867 0.0
H2459 H 0.62016 0.9233 0.6664 0.0
H2460 H 0.62374 0.90399 0.68901 0.0
H2461 H 0.63949 0.92109 0.68936 0.0
H2462 H 0.66692 0.90555 0.70638 0.0
H2463 H 0.66601 0.89258 0.75819 0.0
H2464 H 0.64274 0.58632 0.98872 0.0
H2465 H 0.65606 0.58441 0.04012 0.0
H2466 H 0.60985 0.6063 0.0803 0.0
H2467 H 0.59664 0.60836 0.02948 0.0
H2468 H 0.66148 0.61444 0.07756 0.0
H2469 H 0.62168 0.56586 0.13879 0.0
H2470 H 0.62294 0.56685 0.09724 0.0
H2471 H 0.60858 0.5811 0.11794 0.0
C2472 C 0.63531 0.59032 0.00866 0.0
C2473 C 0.61868 0.59753 0.00514 0.0
C2474 C 0.64294 0.58926 0.03793 0.0
C2475 C 0.63385 0.59501 0.06404 0.0
C2476 C 0.61696 0.60147 0.06058 0.0
H2477 H 0.6428 0.65297 0.21866 0.0
H2478 H 0.64429 0.63969 0.16785 0.0
C2479 C 0.60948 0.60276 0.03146 0.0
C2480 C 0.64238 0.59641 0.09451 0.0
H2481 H 0.63465 0.58842 0.17053 0.0
C2482 C 0.656 0.60834 0.09786 0.0
C2483 C 0.6354 0.58831 0.12095 0.0
C2484 C 0.62145 0.57467 0.11856 0.0
C2485 C 0.66159 0.61364 0.12714 0.0
C2486 C 0.65328 0.60691 0.15358 0.0
C2487 C 0.6409 0.59371 0.15023 0.0
C2488 C 0.65498 0.61539 0.18404 0.0
C2489 C 0.67568 0.62713 0.12954 0.0
C2490 C 0.66058 0.60616 0.21009 0.0
C2491 C 0.65986 0.61384 0.23936 0.0
C2492 C 0.65313 0.63067 0.24292 0.0
C2493 C 0.64803 0.63998 0.21665 0.0
C2494 C 0.649 0.63245 0.18754 0.0
H2495 H 0.68444 0.62668 0.10924 0.0
H2496 H 0.66968 0.64021 0.1303 0.0
H2497 H 0.68349 0.62534 0.15078 0.0
H2498 H 0.66506 0.59291 0.20787 0.0
H2499 H 0.66375 0.60632 0.25927 0.0
H2500 H 0.59427 0.39962 0.46748 0.0
H2501 H 0.60747 0.39802 0.41648 0.0
H2502 H 0.65775 0.40803 0.45618 0.0
H2503 H 0.6444 0.41027 0.5075 0.0
H2504 H 0.65329 0.42282 0.39628 0.0
H2505 H 0.63481 0.35351 0.39964 0.0
H2506 H 0.6165 0.36753 0.40495 0.0
H2507 H 0.63365 0.36731 0.4331 0.0
C2508 C 0.60807 0.40192 0.46526 0.0
C2509 C 0.61836 0.40487 0.4914 0.0
C2510 C 0.61561 0.40093 0.43615 0.0
C2511 C 0.63364 0.40242 0.4327 0.0
C2512 C 0.64382 0.40671 0.45842 0.0
H2513 H 0.67027 0.35036 0.26845 0.0
H2514 H 0.67077 0.36114 0.32146 0.0
C2515 C 0.63619 0.40802 0.48766 0.0
C2516 C 0.64175 0.39767 0.40292 0.0
H2517 H 0.64293 0.36478 0.35065 0.0
C2518 C 0.65126 0.41007 0.38635 0.0
C2519 C 0.63955 0.38087 0.39043 0.0
C2520 C 0.63074 0.36648 0.4081 0.0
C2521 C 0.65782 0.40637 0.35679 0.0
C2522 C 0.65437 0.38999 0.3433 0.0
C2523 C 0.64557 0.37739 0.36068 0.0
C2524 C 0.65853 0.38571 0.31068 0.0
C2525 C 0.66836 0.42003 0.34049 0.0
C2526 C 0.65236 0.39625 0.2866 0.0
C2527 C 0.65265 0.39028 0.25616 0.0
C2528 C 0.65871 0.37356 0.2495 0.0
C2529 C 0.66576 0.36341 0.27313 0.0
C2530 C 0.66593 0.36954 0.3034 0.0
H2531 H 0.67539 0.42833 0.35726 0.0
H2532 H 0.67792 0.41418 0.32444 0.0
H2533 H 0.65953 0.42856 0.32715 0.0
H2534 H 0.64611 0.40851 0.29148 0.0
H2535 H 0.64677 0.39812 0.23828 0.0
H2536 H 0.83954 0.39599 0.76479 0.0
H2537 H 0.83869 0.40945 0.71338 0.0
H2538 H 0.85435 0.36092 0.67265 0.0
H2539 H 0.85548 0.3476 0.72352 0.0
H2540 H 0.86954 0.41036 0.67469 0.0
H2541 H 0.81446 0.37843 0.61597 0.0
H2542 H 0.81605 0.38001 0.65744 0.0
H2543 H 0.8278 0.36345 0.63701 0.0
C2544 C 0.84236 0.38813 0.74473 0.0
C2545 C 0.84761 0.37077 0.74806 0.0
C2546 C 0.84191 0.39583 0.71547 0.0
C2547 C 0.84626 0.38611 0.68922 0.0
C2548 C 0.85065 0.36857 0.69252 0.0
H2549 H 0.90217 0.38789 0.53054 0.0
H2550 H 0.8901 0.39025 0.58216 0.0
C2551 C 0.85139 0.361 0.72163 0.0
C2552 C 0.84843 0.39442 0.65872 0.0
H2553 H 0.8379 0.38838 0.58319 0.0
C2554 C 0.86229 0.40599 0.65473 0.0
C2555 C 0.83888 0.38886 0.63277 0.0
C2556 C 0.82335 0.37713 0.63598 0.0
C2557 C 0.86784 0.41084 0.62518 0.0
C2558 C 0.85937 0.40385 0.59911 0.0
C2559 C 0.84449 0.39362 0.6032 0.0
C2560 C 0.86732 0.40457 0.56808 0.0
C2561 C 0.88333 0.42265 0.62207 0.0
C2562 C 0.85849 0.41185 0.5429 0.0
C2563 C 0.86546 0.41058 0.51313 0.0
C2564 C 0.88114 0.40169 0.50817 0.0
C2565 C 0.89007 0.39481 0.53358 0.0
C2566 C 0.88324 0.39625 0.56318 0.0
H2567 H 0.88468 0.43122 0.64249 0.0
H2568 H 0.89527 0.41467 0.62034 0.0
H2569 H 0.88236 0.43081 0.60106 0.0
H2570 H 0.84608 0.41816 0.54621 0.0
H2571 H 0.85825 0.41591 0.49394 0.0
H2572 H 0.85975 0.58544 0.01025 0.0
H2573 H 0.84608 0.58372 0.95911 0.0
H2574 H 0.89144 0.60711 0.91854 0.0
H2575 H 0.90498 0.609 0.96911 0.0
H2576 H 0.83975 0.61408 0.92264 0.0
H2577 H 0.88007 0.56681 0.85926 0.0
H2578 H 0.87902 0.56739 0.90085 0.0
H2579 H 0.89297 0.58212 0.88033 0.0
C2580 C 0.86692 0.58981 0.99026 0.0
C2581 C 0.8834 0.59739 0.99362 0.0
C2582 C 0.8591 0.58885 0.96114 0.0
C2583 C 0.86784 0.59509 0.93502 0.0
C2584 C 0.88459 0.60192 0.93828 0.0
H2585 H 0.85675 0.65397 0.78192 0.0
H2586 H 0.85554 0.64042 0.83255 0.0
C2587 C 0.89227 0.6031 0.96726 0.0
C2588 C 0.85906 0.59656 0.9048 0.0
H2589 H 0.86638 0.58931 0.82842 0.0
C2590 C 0.84519 0.60826 0.90206 0.0
C2591 C 0.866 0.58881 0.87801 0.0
C2592 C 0.88023 0.57544 0.87974 0.0
C2593 C 0.83927 0.61368 0.87304 0.0
C2594 C 0.84751 0.60731 0.84625 0.0
C2595 C 0.86017 0.59432 0.84899 0.0
C2596 C 0.84542 0.61596 0.81602 0.0
C2597 C 0.8249 0.62689 0.87131 0.0
C2598 C 0.83999 0.60674 0.78983 0.0
C2599 C 0.84055 0.61456 0.76068 0.0
C2600 C 0.84693 0.63154 0.75736 0.0
C2601 C 0.85177 0.64087 0.78377 0.0
C2602 C 0.85098 0.63318 0.81277 0.0
H2603 H 0.81627 0.62606 0.89175 0.0
H2604 H 0.83063 0.64009 0.87084 0.0
H2605 H 0.817 0.62514 0.85016 0.0
H2606 H 0.83585 0.59337 0.79185 0.0
H2607 H 0.83688 0.60704 0.74066 0.0
H2608 H 0.33399 0.39084 0.74485 0.0
H2609 H 0.33264 0.40435 0.79618 0.0
H2610 H 0.36162 0.36153 0.834 0.0
H2611 H 0.36305 0.34809 0.78331 0.0
H2612 H 0.3319 0.37396 0.87088 0.0
H2613 H 0.37847 0.42542 0.83465 0.0
H2614 H 0.35921 0.4217 0.81211 0.0
H2615 H 0.37602 0.40566 0.8128 0.0
C2616 C 0.33978 0.3842 0.76427 0.0
C2617 C 0.34875 0.36849 0.76005 0.0
C2618 C 0.33907 0.39195 0.79348 0.0
C2619 C 0.34717 0.38398 0.81875 0.0
C2620 C 0.35529 0.36789 0.81478 0.0
H2621 H 0.40366 0.39299 0.97475 0.0
H2622 H 0.39023 0.39363 0.92399 0.0
C2623 C 0.35615 0.36025 0.78575 0.0
C2624 C 0.34857 0.39264 0.84909 0.0
H2625 H 0.37424 0.42145 0.8876 0.0
C2626 C 0.34072 0.38472 0.87461 0.0
C2627 C 0.36017 0.40659 0.85371 0.0
C2628 C 0.36906 0.4154 0.827 0.0
C2629 C 0.34512 0.38956 0.90478 0.0
C2630 C 0.35766 0.40269 0.90941 0.0
C2631 C 0.36456 0.41146 0.88389 0.0
C2632 C 0.36617 0.40499 0.93972 0.0
C2633 C 0.33747 0.37962 0.93145 0.0
C2634 C 0.35726 0.41171 0.96529 0.0
C2635 C 0.365 0.41145 0.99454 0.0
C2636 C 0.38164 0.40431 0.99848 0.0
C2637 C 0.39078 0.39845 0.9725 0.0
C2638 C 0.38314 0.39886 0.94343 0.0
H2639 H 0.32875 0.36901 0.92376 0.0
H2640 H 0.34799 0.37394 0.94573 0.0
H2641 H 0.32993 0.38859 0.94628 0.0
H2642 H 0.34418 0.4166 0.9628 0.0
H2643 H 0.35766 0.41602 0.01418 0.0
H2644 H 0.35595 0.65354 0.71957 0.0
H2645 H 0.35452 0.64031 0.66872 0.0
H2646 H 0.33381 0.59345 0.70849 0.0
H2647 H 0.33508 0.60679 0.75995 0.0
H2648 H 0.36412 0.5889 0.67155 0.0
H2649 H 0.31481 0.62737 0.60951 0.0
H2650 H 0.32956 0.64089 0.63059 0.0
H2651 H 0.31562 0.62614 0.65107 0.0
C2652 C 0.35072 0.64055 0.71749 0.0
C2653 C 0.34565 0.63118 0.74373 0.0
C2654 C 0.3498 0.63304 0.68835 0.0
C2655 C 0.34386 0.61598 0.68476 0.0
C2656 C 0.33825 0.60671 0.71077 0.0
H2657 H 0.35697 0.58679 0.48963 0.0
H2658 H 0.34336 0.58502 0.54081 0.0
C2659 C 0.33894 0.61435 0.74008 0.0
C2660 C 0.34568 0.60751 0.65431 0.0
H2661 H 0.33792 0.61509 0.57815 0.0
C2662 C 0.358 0.59423 0.65115 0.0
C2663 C 0.33754 0.61429 0.62773 0.0
C2664 C 0.3235 0.62784 0.62989 0.0
C2665 C 0.36363 0.58881 0.62195 0.0
C2666 C 0.35683 0.59696 0.59541 0.0
C2667 C 0.34327 0.60896 0.59854 0.0
C2668 C 0.36551 0.59549 0.56508 0.0
C2669 C 0.3775 0.57508 0.61979 0.0
C2670 C 0.38245 0.60184 0.56188 0.0
C2671 C 0.39011 0.60305 0.53289 0.0
C2672 C 0.38102 0.59785 0.50643 0.0
C2673 C 0.36432 0.59076 0.50968 0.0
C2674 C 0.35652 0.58978 0.53883 0.0
H2675 H 0.37712 0.56627 0.64002 0.0
H2676 H 0.37607 0.56727 0.59845 0.0
H2677 H 0.39042 0.58143 0.61938 0.0
H2678 H 0.3895 0.60664 0.58171 0.0
H2679 H 0.40299 0.60856 0.53112 0.0
H2680 H 0.09668 0.60884 0.47243 0.0
H2681 H 0.10985 0.60784 0.42151 0.0
H2682 H 0.15628 0.58559 0.46028 0.0
H2683 H 0.14301 0.58648 0.51181 0.0
H2684 H 0.16171 0.61594 0.42458 0.0
H2685 H 0.12162 0.56877 0.36064 0.0
H2686 H 0.10854 0.58377 0.38205 0.0
H2687 H 0.12273 0.56911 0.40223 0.0
C2688 C 0.10956 0.60338 0.47011 0.0
C2689 C 0.11883 0.59776 0.49611 0.0
C2690 C 0.11703 0.6027 0.44092 0.0
C2691 C 0.13396 0.59644 0.43703 0.0
C2692 C 0.14312 0.59029 0.46278 0.0
H2693 H 0.16382 0.60977 0.24244 0.0
H2694 H 0.1647 0.59587 0.29339 0.0
C2695 C 0.13552 0.59077 0.49213 0.0
C2696 C 0.14245 0.59841 0.40661 0.0
H2697 H 0.13477 0.59177 0.33016 0.0
C2698 C 0.15618 0.61027 0.40395 0.0
C2699 C 0.13542 0.59085 0.37972 0.0
C2700 C 0.12138 0.57727 0.3813 0.0
C2701 C 0.16191 0.61598 0.37498 0.0
C2702 C 0.15359 0.60977 0.34814 0.0
C2703 C 0.14103 0.59668 0.35076 0.0
C2704 C 0.15565 0.61853 0.31798 0.0
C2705 C 0.17623 0.62926 0.3734 0.0
C2706 C 0.15042 0.63587 0.31501 0.0
C2707 C 0.14975 0.64372 0.28612 0.0
C2708 C 0.15435 0.63443 0.25953 0.0
C2709 C 0.16034 0.61728 0.26257 0.0
C2710 C 0.1608 0.60932 0.29161 0.0
H2711 H 0.185 0.62822 0.39361 0.0
H2712 H 0.184 0.62778 0.35202 0.0
H2713 H 0.17046 0.64244 0.37356 0.0
H2714 H 0.14605 0.64311 0.33492 0.0
H2715 H 0.14508 0.65694 0.28453 0.0
H2716 H 0.16544 0.39318 0.2642 0.0
H2717 H 0.16675 0.40656 0.21275 0.0
H2718 H 0.14196 0.36147 0.1739 0.0
H2719 H 0.14058 0.34816 0.22469 0.0
H2720 H 0.17121 0.37612 0.13845 0.0
H2721 H 0.12007 0.42377 0.17159 0.0
H2722 H 0.1392 0.42169 0.19512 0.0
H2723 H 0.12373 0.40435 0.19385 0.0
C2724 C 0.16058 0.38603 0.24454 0.0
C2725 C 0.15277 0.36969 0.24847 0.0
C2726 C 0.16127 0.39371 0.21526 0.0
C2727 C 0.15432 0.38504 0.18964 0.0
C2728 C 0.1474 0.36837 0.19338 0.0
H2729 H 0.09943 0.38865 0.03147 0.0
H2730 H 0.11238 0.39021 0.08253 0.0
C2731 C 0.14656 0.36081 0.22247 0.0
C2732 C 0.15274 0.39346 0.15913 0.0
H2733 H 0.12533 0.41984 0.11893 0.0
C2734 C 0.1616 0.38611 0.13413 0.0
C2735 C 0.1401 0.4064 0.15372 0.0
C2736 C 0.13012 0.41457 0.17985 0.0
C2737 C 0.15724 0.39041 0.10367 0.0
C2738 C 0.14372 0.40241 0.09824 0.0
C2739 C 0.13576 0.41072 0.12327 0.0
C2740 C 0.13543 0.40378 0.06758 0.0
C2741 C 0.16607 0.38103 0.07752 0.0
C2742 C 0.14392 0.41133 0.0423 0.0
C2743 C 0.13646 0.41053 0.01286 0.0
C2744 C 0.12052 0.40202 0.00841 0.0
C2745 C 0.11178 0.39518 0.03407 0.0
C2746 C 0.11913 0.39612 0.06333 0.0
H2747 H 0.1757 0.37138 0.08578 0.0
H2748 H 0.15628 0.37425 0.06315 0.0
H2749 H 0.17285 0.39055 0.06261 0.0
H2750 H 0.15648 0.41739 0.04522 0.0
H2751 H 0.14348 0.4159 0.99348 0.0
loop_
_geom_bond_atom_site_label_1
_geom_bond_atom_site_label_2
_geom_bond_distance
_geom_bond_site_symmetry_2
_ccdc_geom_bond_type
O0 Cd1 2.223 . S
O0 C8 1.315 . S
Cd1 O0 2.223 . S
Cd1 O4 2.297 . S
Cd1 O5 2.439 . S
Cd1 O11 2.240 . S
Cd2 O3 2.240 . S
Cd2 O10 2.223 . S
Cd2 O12 2.297 . S
Cd2 O13 2.439 . S
O3 Cd2 2.240 . S
O3 C8 1.279 . S
O4 Cd1 2.297 . S
O4 C6 1.247 . S
O5 Cd1 2.439 . S
O5 C6 1.208 . S
C6 O4 1.247 . S
C6 O5 1.208 . S
C7 O12 1.247 . S
C7 O13 1.208 . S
C8 O0 1.315 . S
C8 O3 1.279 . S
C9 O10 1.315 . S
C9 O11 1.279 . S
O10 Cd2 2.223 . S
O10 C9 1.315 . S
O11 Cd1 2.240 . S
O11 C9 1.279 . S
O12 Cd2 2.297 . S
O12 C7 1.247 . S
O13 Cd2 2.439 . S
O13 C7 1.208 . S
O14 Cd15 2.223 . S
O14 C22 1.315 . S
Cd15 O14 2.223 . S
Cd15 O18 2.297 . S
Cd15 O19 2.439 . S
Cd15 O25 2.240 . S
Cd16 O17 2.240 . S
Cd16 O24 2.223 . S
Cd16 O26 2.297 . S
Cd16 O27 2.439 . S
O17 Cd16 2.240 . S
O17 C22 1.279 . S
O18 Cd15 2.297 . S
O18 C20 1.247 . S
O19 Cd15 2.439 . S
O19 C20 1.208 . S
C20 O18 1.247 . S
C20 O19 1.208 . S
C21 O26 1.247 . S
C21 O27 1.208 . S
C22 O14 1.315 . S
C22 O17 1.279 . S
C23 O24 1.315 . S
C23 O25 1.279 . S
O24 Cd16 2.223 . S
O24 C23 1.315 . S
O25 Cd15 2.240 . S
O25 C23 1.279 . S
O26 Cd16 2.297 . S
O26 C21 1.247 . S
O27 Cd16 2.439 . S
O27 C21 1.208 . S
O28 Cd29 2.223 . S
O28 C36 1.315 . S
Cd29 O28 2.223 . S
Cd29 O32 2.297 . S
Cd29 O33 2.439 . S
Cd29 O39 2.240 . S
Cd30 O31 2.240 . S
Cd30 O38 2.223 . S
Cd30 O40 2.297 . S
Cd30 O41 2.439 . S
O31 Cd30 2.240 . S
O31 C36 1.279 . S
O32 Cd29 2.297 . S
O32 C34 1.247 . S
O33 Cd29 2.439 . S
O33 C34 1.208 . S
C34 O32 1.247 . S
C34 O33 1.208 . S
C35 O40 1.247 . S
C35 O41 1.208 . S
C36 O28 1.315 . S
C36 O31 1.279 . S
C37 O38 1.315 . S
C37 O39 1.279 . S
O38 Cd30 2.223 . S
O38 C37 1.315 . S
O39 Cd29 2.240 . S
O39 C37 1.279 . S
O40 Cd30 2.297 . S
O40 C35 1.247 . S
O41 Cd30 2.439 . S
O41 C35 1.208 . S
O42 Cd43 2.223 . S
O42 C50 1.315 . S
Cd43 O42 2.223 . S
Cd43 O46 2.297 . S
Cd43 O47 2.439 . S
Cd43 O53 2.240 . S
Cd44 O45 2.240 . S
Cd44 O52 2.223 . S
Cd44 O54 2.297 . S
Cd44 O55 2.439 . S
O45 Cd44 2.240 . S
O45 C50 1.279 . S
O46 Cd43 2.297 . S
O46 C48 1.247 . S
O47 Cd43 2.439 . S
O47 C48 1.208 . S
C48 O46 1.247 . S
C48 O47 1.208 . S
C49 O54 1.247 . S
C49 O55 1.208 . S
C50 O42 1.315 . S
C50 O45 1.279 . S
C51 O52 1.315 . S
C51 O53 1.279 . S
O52 Cd44 2.223 . S
O52 C51 1.315 . S
O53 Cd43 2.240 . S
O53 C51 1.279 . S
O54 Cd44 2.297 . S
O54 C49 1.247 . S
O55 Cd44 2.439 . S
O55 C49 1.208 . S
O56 Cd57 2.223 . S
O56 C64 1.315 . S
Cd57 O56 2.223 . S
Cd57 O60 2.297 . S
Cd57 O61 2.439 . S
Cd57 O67 2.240 . S
Cd58 O59 2.240 . S
Cd58 O66 2.223 . S
Cd58 O68 2.297 . S
Cd58 O69 2.439 . S
O59 Cd58 2.240 . S
O59 C64 1.279 . S
O60 Cd57 2.297 . S
O60 C62 1.247 . S
O61 Cd57 2.439 . S
O61 C62 1.208 . S
C62 O60 1.247 . S
C62 O61 1.208 . S
C63 O68 1.247 . S
C63 O69 1.208 . S
C64 O56 1.315 . S
C64 O59 1.279 . S
C65 O66 1.315 . S
C65 O67 1.279 . S
O66 Cd58 2.223 . S
O66 C65 1.315 . S
O67 Cd57 2.240 . S
O67 C65 1.279 . S
O68 Cd58 2.297 . S
O68 C63 1.247 . S
O69 Cd58 2.439 . S
O69 C63 1.208 . S
O70 Cd71 2.223 . S
O70 C78 1.315 . S
Cd71 O70 2.223 . S
Cd71 O74 2.297 . S
Cd71 O75 2.439 . S
Cd71 O81 2.240 . S
Cd72 O73 2.240 . S
Cd72 O80 2.223 . S
Cd72 O82 2.297 . S
Cd72 O83 2.439 . S
O73 Cd72 2.240 . S
O73 C78 1.279 . S
O74 Cd71 2.297 . S
O74 C76 1.247 . S
O75 Cd71 2.439 . S
O75 C76 1.208 . S
C76 O74 1.247 . S
C76 O75 1.208 . S
C77 O82 1.247 . S
C77 O83 1.208 . S
C78 O70 1.315 . S
C78 O73 1.279 . S
C79 O80 1.315 . S
C79 O81 1.279 . S
O80 Cd72 2.223 . S
O80 C79 1.315 . S
O81 Cd71 2.240 . S
O81 C79 1.279 . S
O82 Cd72 2.297 . S
O82 C77 1.247 . S
O83 Cd72 2.439 . S
O83 C77 1.208 . S
O84 Cd85 2.223 . S
O84 C92 1.315 . S
Cd85 O84 2.223 . S
Cd85 O88 2.297 . S
Cd85 O89 2.439 . S
Cd85 O95 2.240 . S
Cd86 O87 2.240 . S
Cd86 O94 2.223 . S
Cd86 O96 2.297 . S
Cd86 O97 2.439 . S
O87 Cd86 2.240 . S
O87 C92 1.279 . S
O88 Cd85 2.297 . S
O88 C90 1.247 . S
O89 Cd85 2.439 . S
O89 C90 1.208 . S
C90 O88 1.247 . S
C90 O89 1.208 . S
C91 O96 1.247 . S
C91 O97 1.208 . S
C92 O84 1.315 . S
C92 O87 1.279 . S
C93 O94 1.315 . S
C93 O95 1.279 . S
O94 Cd86 2.223 . S
O94 C93 1.315 . S
O95 Cd85 2.240 . S
O95 C93 1.279 . S
O96 Cd86 2.297 . S
O96 C91 1.247 . S
O97 Cd86 2.439 . S
O97 C91 1.208 . S
O98 Cd99 2.223 . S
O98 C106 1.315 . S
Cd99 O98 2.223 . S
Cd99 O102 2.297 . S
Cd99 O103 2.439 . S
Cd99 O109 2.240 . S
Cd100 O101 2.240 . S
Cd100 O108 2.223 . S
Cd100 O110 2.297 . S
Cd100 O111 2.439 . S
O101 Cd100 2.240 . S
O101 C106 1.279 . S
O102 Cd99 2.297 . S
O102 C104 1.247 . S
O103 Cd99 2.439 . S
O103 C104 1.208 . S
C104 O102 1.247 . S
C104 O103 1.208 . S
C105 O110 1.247 . S
C105 O111 1.208 . S
C106 O98 1.315 . S
C106 O101 1.279 . S
C107 O108 1.315 . S
C107 O109 1.279 . S
O108 Cd100 2.223 . S
O108 C107 1.315 . S
O109 Cd99 2.240 . S
O109 C107 1.279 . S
O110 Cd100 2.297 . S
O110 C105 1.247 . S
O111 Cd100 2.439 . S
O111 C105 1.208 . S
O112 Cd113 2.223 . S
O112 C120 1.315 . S
Cd113 O112 2.223 . S
Cd113 O116 2.297 . S
Cd113 O117 2.439 . S
Cd113 O123 2.240 . S
Cd114 O115 2.240 . S
Cd114 O122 2.223 . S
Cd114 O124 2.297 . S
Cd114 O125 2.439 . S
O115 Cd114 2.240 . S
O115 C120 1.279 . S
O116 Cd113 2.297 . S
O116 C118 1.247 . S
O117 Cd113 2.439 . S
O117 C118 1.208 . S
C118 O116 1.247 . S
C118 O117 1.208 . S
C119 O124 1.247 . S
C119 O125 1.208 . S
C120 O112 1.315 . S
C120 O115 1.279 . S
C121 O122 1.315 . S
C121 O123 1.279 . S
O122 Cd114 2.223 . S
O122 C121 1.315 . S
O123 Cd113 2.240 . S
O123 C121 1.279 . S
O124 Cd114 2.297 . S
O124 C119 1.247 . S
O125 Cd114 2.439 . S
O125 C119 1.208 . S
O126 Cd127 2.223 . S
O126 C134 1.315 . S
Cd127 O126 2.223 . S
Cd127 O130 2.297 . S
Cd127 O131 2.439 . S
Cd127 O137 2.240 . S
Cd128 O129 2.240 . S
Cd128 O136 2.223 . S
Cd128 O138 2.297 . S
Cd128 O139 2.439 . S
O129 Cd128 2.240 . S
O129 C134 1.279 . S
O130 Cd127 2.297 . S
O130 C132 1.247 . S
O131 Cd127 2.439 . S
O131 C132 1.208 . S
C132 O130 1.247 . S
C132 O131 1.208 . S
C133 O138 1.247 . S
C133 O139 1.208 . S
C134 O126 1.315 . S
C134 O129 1.279 . S
C135 O136 1.315 . S
C135 O137 1.279 . S
O136 Cd128 2.223 . S
O136 C135 1.315 . S
O137 Cd127 2.240 . S
O137 C135 1.279 . S
O138 Cd128 2.297 . S
O138 C133 1.247 . S
O139 Cd128 2.439 . S
O139 C133 1.208 . S
O140 Cd141 2.223 . S
O140 C148 1.315 . S
Cd141 O140 2.223 . S
Cd141 O144 2.297 . S
Cd141 O145 2.439 . S
Cd141 O151 2.240 . S
Cd142 O143 2.240 . S
Cd142 O150 2.223 . S
Cd142 O152 2.297 . S
Cd142 O153 2.439 . S
O143 Cd142 2.240 . S
O143 C148 1.279 . S
O144 Cd141 2.297 . S
O144 C146 1.247 . S
O145 Cd141 2.439 . S
O145 C146 1.208 . S
C146 O144 1.247 . S
C146 O145 1.208 . S
C147 O152 1.247 . S
C147 O153 1.208 . S
C148 O140 1.315 . S
C148 O143 1.279 . S
C149 O150 1.315 . S
C149 O151 1.279 . S
O150 Cd142 2.223 . S
O150 C149 1.315 . S
O151 Cd141 2.240 . S
O151 C149 1.279 . S
O152 Cd142 2.297 . S
O152 C147 1.247 . S
O153 Cd142 2.439 . S
O153 C147 1.208 . S
O154 Cd155 2.223 . S
O154 C162 1.315 . S
Cd155 O154 2.223 . S
Cd155 O158 2.297 . S
Cd155 O159 2.439 . S
Cd155 O165 2.240 . S
Cd156 O157 2.240 . S
Cd156 O164 2.223 . S
Cd156 O166 2.297 . S
Cd156 O167 2.439 . S
O157 Cd156 2.240 . S
O157 C162 1.279 . S
O158 Cd155 2.297 . S
O158 C160 1.247 . S
O159 Cd155 2.439 . S
O159 C160 1.208 . S
C160 O158 1.247 . S
C160 O159 1.208 . S
C161 O166 1.247 . S
C161 O167 1.208 . S
C162 O154 1.315 . S
C162 O157 1.279 . S
C163 O164 1.315 . S
C163 O165 1.279 . S
O164 Cd156 2.223 . S
O164 C163 1.315 . S
O165 Cd155 2.240 . S
O165 C163 1.279 . S
O166 Cd156 2.297 . S
O166 C161 1.247 . S
O167 Cd156 2.439 . S
O167 C161 1.208 . S
O168 Cd169 2.223 . S
O168 C176 1.315 . S
Cd169 O168 2.223 . S
Cd169 O172 2.297 . S
Cd169 O173 2.439 . S
Cd169 O179 2.240 . S
Cd170 O171 2.240 . S
Cd170 O178 2.223 . S
Cd170 O180 2.297 . S
Cd170 O181 2.439 . S
O171 Cd170 2.240 . S
O171 C176 1.279 . S
O172 Cd169 2.297 . S
O172 C174 1.247 . S
O173 Cd169 2.439 . S
O173 C174 1.208 . S
C174 O172 1.247 . S
C174 O173 1.208 . S
C175 O180 1.247 . S
C175 O181 1.208 . S
C176 O168 1.315 . S
C176 O171 1.279 . S
C177 O178 1.315 . S
C177 O179 1.279 . S
O178 Cd170 2.223 . S
O178 C177 1.315 . S
O179 Cd169 2.240 . S
O179 C177 1.279 . S
O180 Cd170 2.297 . S
O180 C175 1.247 . S
O181 Cd170 2.439 . S
O181 C175 1.208 . S
O182 Cd183 2.223 . S
O182 C190 1.315 . S
Cd183 O182 2.223 . S
Cd183 O186 2.297 . S
Cd183 O187 2.439 . S
Cd183 O193 2.240 . S
Cd184 O185 2.240 . S
Cd184 O192 2.223 . S
Cd184 O194 2.297 . S
Cd184 O195 2.439 . S
O185 Cd184 2.240 . S
O185 C190 1.279 . S
O186 Cd183 2.297 . S
O186 C188 1.247 . S
O187 Cd183 2.439 . S
O187 C188 1.208 . S
C188 O186 1.247 . S
C188 O187 1.208 . S
C189 O194 1.247 . S
C189 O195 1.208 . S
C190 O182 1.315 . S
C190 O185 1.279 . S
C191 O192 1.315 . S
C191 O193 1.279 . S
O192 Cd184 2.223 . S
O192 C191 1.315 . S
O193 Cd183 2.240 . S
O193 C191 1.279 . S
O194 Cd184 2.297 . S
O194 C189 1.247 . S
O195 Cd184 2.439 . S
O195 C189 1.208 . S
O196 Cd197 2.223 . S
O196 C204 1.315 . S
Cd197 O196 2.223 . S
Cd197 O200 2.297 . S
Cd197 O201 2.439 . S
Cd197 O207 2.240 . S
Cd198 O199 2.240 . S
Cd198 O206 2.223 . S
Cd198 O208 2.297 . S
Cd198 O209 2.439 . S
O199 Cd198 2.240 . S
O199 C204 1.279 . S
O200 Cd197 2.297 . S
O200 C202 1.247 . S
O201 Cd197 2.439 . S
O201 C202 1.208 . S
C202 O200 1.247 . S
C202 O201 1.208 . S
C203 O208 1.247 . S
C203 O209 1.208 . S
C204 O196 1.315 . S
C204 O199 1.279 . S
C205 O206 1.315 . S
C205 O207 1.279 . S
O206 Cd198 2.223 . S
O206 C205 1.315 . S
O207 Cd197 2.240 . S
O207 C205 1.279 . S
O208 Cd198 2.297 . S
O208 C203 1.247 . S
O209 Cd198 2.439 . S
O209 C203 1.208 . S
O210 Cd211 2.223 . S
O210 C218 1.315 . S
Cd211 O210 2.223 . S
Cd211 O214 2.297 . S
Cd211 O215 2.439 . S
Cd211 O221 2.240 . S
Cd212 O213 2.240 . S
Cd212 O220 2.223 . S
Cd212 O222 2.297 . S
Cd212 O223 2.439 . S
O213 Cd212 2.240 . S
O213 C218 1.279 . S
O214 Cd211 2.297 . S
O214 C216 1.247 . S
O215 Cd211 2.439 . S
O215 C216 1.208 . S
C216 O214 1.247 . S
C216 O215 1.208 . S
C217 O222 1.247 . S
C217 O223 1.208 . S
C218 O210 1.315 . S
C218 O213 1.279 . S
C219 O220 1.315 . S
C219 O221 1.279 . S
O220 Cd212 2.223 . S
O220 C219 1.315 . S
O221 Cd211 2.240 . S
O221 C219 1.279 . S
O222 Cd212 2.297 . S
O222 C217 1.247 . S
O223 Cd212 2.439 . S
O223 C217 1.208 . S
O224 Cd225 2.223 . S
O224 C232 1.315 . S
Cd225 O224 2.223 . S
Cd225 O228 2.297 . S
Cd225 O229 2.439 . S
Cd225 O235 2.240 . S
Cd226 O227 2.240 . S
Cd226 O234 2.223 . S
Cd226 O236 2.297 . S
Cd226 O237 2.439 . S
O227 Cd226 2.240 . S
O227 C232 1.279 . S
O228 Cd225 2.297 . S
O228 C230 1.247 . S
O229 Cd225 2.439 . S
O229 C230 1.208 . S
C230 O228 1.247 . S
C230 O229 1.208 . S
C231 O236 1.247 . S
C231 O237 1.208 . S
C232 O224 1.315 . S
C232 O227 1.279 . S
C233 O234 1.315 . S
C233 O235 1.279 . S
O234 Cd226 2.223 . S
O234 C233 1.315 . S
O235 Cd225 2.240 . S
O235 C233 1.279 . S
O236 Cd226 2.297 . S
O236 C231 1.247 . S
O237 Cd226 2.439 . S
O237 C231 1.208 . S
O238 Cd239 2.223 . S
O238 C246 1.315 . S
Cd239 O238 2.223 . S
Cd239 O242 2.297 . S
Cd239 O243 2.439 . S
Cd239 O249 2.240 . S
Cd240 O241 2.240 . S
Cd240 O248 2.223 . S
Cd240 O250 2.297 . S
Cd240 O251 2.439 . S
O241 Cd240 2.240 . S
O241 C246 1.279 . S
O242 Cd239 2.297 . S
O242 C244 1.247 . S
O243 Cd239 2.439 . S
O243 C244 1.208 . S
C244 O242 1.247 . S
C244 O243 1.208 . S
C245 O250 1.247 . S
C245 O251 1.208 . S
C246 O238 1.315 . S
C246 O241 1.279 . S
C247 O248 1.315 . S
C247 O249 1.279 . S
O248 Cd240 2.223 . S
O248 C247 1.315 . S
O249 Cd239 2.240 . S
O249 C247 1.279 . S
O250 Cd240 2.297 . S
O250 C245 1.247 . S
O251 Cd240 2.439 . S
O251 C245 1.208 . S
O252 Cd253 2.223 . S
O252 C260 1.315 . S
Cd253 O252 2.223 . S
Cd253 O256 2.297 . S
Cd253 O257 2.439 . S
Cd253 O263 2.240 . S
Cd254 O255 2.240 . S
Cd254 O262 2.223 . S
Cd254 O264 2.297 . S
Cd254 O265 2.439 . S
O255 Cd254 2.240 . S
O255 C260 1.279 . S
O256 Cd253 2.297 . S
O256 C258 1.247 . S
O257 Cd253 2.439 . S
O257 C258 1.208 . S
C258 O256 1.247 . S
C258 O257 1.208 . S
C259 O264 1.247 . S
C259 O265 1.208 . S
C260 O252 1.315 . S
C260 O255 1.279 . S
C261 O262 1.315 . S
C261 O263 1.279 . S
O262 Cd254 2.223 . S
O262 C261 1.315 . S
O263 Cd253 2.240 . S
O263 C261 1.279 . S
O264 Cd254 2.297 . S
O264 C259 1.247 . S
O265 Cd254 2.439 . S
O265 C259 1.208 . S
O266 Cd267 2.223 . S
O266 C274 1.315 . S
Cd267 O266 2.223 . S
Cd267 O270 2.297 . S
Cd267 O271 2.439 . S
Cd267 O277 2.240 . S
Cd268 O269 2.240 . S
Cd268 O276 2.223 . S
Cd268 O278 2.297 . S
Cd268 O279 2.439 . S
O269 Cd268 2.240 . S
O269 C274 1.279 . S
O270 Cd267 2.297 . S
O270 C272 1.247 . S
O271 Cd267 2.439 . S
O271 C272 1.208 . S
C272 O270 1.247 . S
C272 O271 1.208 . S
C273 O278 1.247 . S
C273 O279 1.208 . S
C274 O266 1.315 . S
C274 O269 1.279 . S
C275 O276 1.315 . S
C275 O277 1.279 . S
O276 Cd268 2.223 . S
O276 C275 1.315 . S
O277 Cd267 2.240 . S
O277 C275 1.279 . S
O278 Cd268 2.297 . S
O278 C273 1.247 . S
O279 Cd268 2.439 . S
O279 C273 1.208 . S
O280 Cd281 2.223 . S
O280 C288 1.315 . S
Cd281 O280 2.223 . S
Cd281 O284 2.297 . S
Cd281 O285 2.439 . S
Cd281 O291 2.240 . S
Cd282 O283 2.240 . S
Cd282 O290 2.223 . S
Cd282 O292 2.297 . S
Cd282 O293 2.439 . S
O283 Cd282 2.240 . S
O283 C288 1.279 . S
O284 Cd281 2.297 . S
O284 C286 1.247 . S
O285 Cd281 2.439 . S
O285 C286 1.208 . S
C286 O284 1.247 . S
C286 O285 1.208 . S
C287 O292 1.247 . S
C287 O293 1.208 . S
C288 O280 1.315 . S
C288 O283 1.279 . S
C289 O290 1.315 . S
C289 O291 1.279 . S
O290 Cd282 2.223 . S
O290 C289 1.315 . S
O291 Cd281 2.240 . S
O291 C289 1.279 . S
O292 Cd282 2.297 . S
O292 C287 1.247 . S
O293 Cd282 2.439 . S
O293 C287 1.208 . S
O294 Cd295 2.223 . S
O294 C302 1.315 . S
Cd295 O294 2.223 . S
Cd295 O298 2.297 . S
Cd295 O299 2.439 . S
Cd295 O305 2.240 . S
Cd296 O297 2.240 . S
Cd296 O304 2.223 . S
Cd296 O306 2.297 . S
Cd296 O307 2.439 . S
O297 Cd296 2.240 . S
O297 C302 1.279 . S
O298 Cd295 2.297 . S
O298 C300 1.247 . S
O299 Cd295 2.439 . S
O299 C300 1.208 . S
C300 O298 1.247 . S
C300 O299 1.208 . S
C301 O306 1.247 . S
C301 O307 1.208 . S
C302 O294 1.315 . S
C302 O297 1.279 . S
C303 O304 1.315 . S
C303 O305 1.279 . S
O304 Cd296 2.223 . S
O304 C303 1.315 . S
O305 Cd295 2.240 . S
O305 C303 1.279 . S
O306 Cd296 2.297 . S
O306 C301 1.247 . S
O307 Cd296 2.439 . S
O307 C301 1.208 . S
O308 Cd309 2.223 . S
O308 C316 1.315 . S
Cd309 O308 2.223 . S
Cd309 O312 2.297 . S
Cd309 O313 2.439 . S
Cd309 O319 2.240 . S
Cd310 O311 2.240 . S
Cd310 O318 2.223 . S
Cd310 O320 2.297 . S
Cd310 O321 2.439 . S
O311 Cd310 2.240 . S
O311 C316 1.279 . S
O312 Cd309 2.297 . S
O312 C314 1.247 . S
O313 Cd309 2.439 . S
O313 C314 1.208 . S
C314 O312 1.247 . S
C314 O313 1.208 . S
C315 O320 1.247 . S
C315 O321 1.208 . S
C316 O308 1.315 . S
C316 O311 1.279 . S
C317 O318 1.315 . S
C317 O319 1.279 . S
O318 Cd310 2.223 . S
O318 C317 1.315 . S
O319 Cd309 2.240 . S
O319 C317 1.279 . S
O320 Cd310 2.297 . S
O320 C315 1.247 . S
O321 Cd310 2.439 . S
O321 C315 1.208 . S
O322 Cd323 2.223 . S
O322 C330 1.315 . S
Cd323 O322 2.223 . S
Cd323 O326 2.297 . S
Cd323 O327 2.439 . S
Cd323 O333 2.240 . S
Cd324 O325 2.240 . S
Cd324 O332 2.223 . S
Cd324 O334 2.297 . S
Cd324 O335 2.439 . S
O325 Cd324 2.240 . S
O325 C330 1.279 . S
O326 Cd323 2.297 . S
O326 C328 1.247 . S
O327 Cd323 2.439 . S
O327 C328 1.208 . S
C328 O326 1.247 . S
C328 O327 1.208 . S
C329 O334 1.247 . S
C329 O335 1.208 . S
C330 O322 1.315 . S
C330 O325 1.279 . S
C331 O332 1.315 . S
C331 O333 1.279 . S
O332 Cd324 2.223 . S
O332 C331 1.315 . S
O333 Cd323 2.240 . S
O333 C331 1.279 . S
O334 Cd324 2.297 . S
O334 C329 1.247 . S
O335 Cd324 2.439 . S
O335 C329 1.208 . S
O336 Cd337 2.223 . S
O336 C344 1.315 . S
Cd337 O336 2.223 . S
Cd337 O340 2.297 . S
Cd337 O341 2.439 . S
Cd337 O347 2.240 . S
Cd338 O339 2.240 . S
Cd338 O346 2.223 . S
Cd338 O348 2.297 . S
Cd338 O349 2.439 . S
O339 Cd338 2.240 . S
O339 C344 1.279 . S
O340 Cd337 2.297 . S
O340 C342 1.247 . S
O341 Cd337 2.439 . S
O341 C342 1.208 . S
C342 O340 1.247 . S
C342 O341 1.208 . S
C343 O348 1.247 . S
C343 O349 1.208 . S
C344 O336 1.315 . S
C344 O339 1.279 . S
C345 O346 1.315 . S
C345 O347 1.279 . S
O346 Cd338 2.223 . S
O346 C345 1.315 . S
O347 Cd337 2.240 . S
O347 C345 1.279 . S
O348 Cd338 2.297 . S
O348 C343 1.247 . S
O349 Cd338 2.439 . S
O349 C343 1.208 . S
O350 Cd351 2.223 . S
O350 C358 1.315 . S
Cd351 O350 2.223 . S
Cd351 O354 2.297 . S
Cd351 O355 2.439 . S
Cd351 O361 2.240 . S
Cd352 O353 2.240 . S
Cd352 O360 2.223 . S
Cd352 O362 2.297 . S
Cd352 O363 2.439 . S
O353 Cd352 2.240 . S
O353 C358 1.279 . S
O354 Cd351 2.297 . S
O354 C356 1.247 . S
O355 Cd351 2.439 . S
O355 C356 1.208 . S
C356 O354 1.247 . S
C356 O355 1.208 . S
C357 O362 1.247 . S
C357 O363 1.208 . S
C358 O350 1.315 . S
C358 O353 1.279 . S
C359 O360 1.315 . S
C359 O361 1.279 . S
O360 Cd352 2.223 . S
O360 C359 1.315 . S
O361 Cd351 2.240 . S
O361 C359 1.279 . S
O362 Cd352 2.297 . S
O362 C357 1.247 . S
O363 Cd352 2.439 . S
O363 C357 1.208 . S
O364 Cd365 2.223 . S
O364 C372 1.315 . S
Cd365 O364 2.223 . S
Cd365 O368 2.297 . S
Cd365 O369 2.439 . S
Cd365 O375 2.240 . S
Cd366 O367 2.240 . S
Cd366 O374 2.223 . S
Cd366 O376 2.297 . S
Cd366 O377 2.439 . S
O367 Cd366 2.240 . S
O367 C372 1.279 . S
O368 Cd365 2.297 . S
O368 C370 1.247 . S
O369 Cd365 2.439 . S
O369 C370 1.208 . S
C370 O368 1.247 . S
C370 O369 1.208 . S
C371 O376 1.247 . S
C371 O377 1.208 . S
C372 O364 1.315 . S
C372 O367 1.279 . S
C373 O374 1.315 . S
C373 O375 1.279 . S
O374 Cd366 2.223 . S
O374 C373 1.315 . S
O375 Cd365 2.240 . S
O375 C373 1.279 . S
O376 Cd366 2.297 . S
O376 C371 1.247 . S
O377 Cd366 2.439 . S
O377 C371 1.208 . S
O378 Cd379 2.223 . S
O378 C386 1.315 . S
Cd379 O378 2.223 . S
Cd379 O382 2.297 . S
Cd379 O383 2.439 . S
Cd379 O389 2.240 . S
Cd380 O381 2.240 . S
Cd380 O388 2.223 . S
Cd380 O390 2.297 . S
Cd380 O391 2.439 . S
O381 Cd380 2.240 . S
O381 C386 1.279 . S
O382 Cd379 2.297 . S
O382 C384 1.247 . S
O383 Cd379 2.439 . S
O383 C384 1.208 . S
C384 O382 1.247 . S
C384 O383 1.208 . S
C385 O390 1.247 . S
C385 O391 1.208 . S
C386 O378 1.315 . S
C386 O381 1.279 . S
C387 O388 1.315 . S
C387 O389 1.279 . S
O388 Cd380 2.223 . S
O388 C387 1.315 . S
O389 Cd379 2.240 . S
O389 C387 1.279 . S
O390 Cd380 2.297 . S
O390 C385 1.247 . S
O391 Cd380 2.439 . S
O391 C385 1.208 . S
O392 Cd393 2.223 . S
O392 C400 1.315 . S
Cd393 O392 2.223 . S
Cd393 O396 2.297 . S
Cd393 O397 2.439 . S
Cd393 O403 2.240 . S
Cd394 O395 2.240 . S
Cd394 O402 2.223 . S
Cd394 O404 2.297 . S
Cd394 O405 2.439 . S
O395 Cd394 2.240 . S
O395 C400 1.279 . S
O396 Cd393 2.297 . S
O396 C398 1.247 . S
O397 Cd393 2.439 . S
O397 C398 1.208 . S
C398 O396 1.247 . S
C398 O397 1.208 . S
C399 O404 1.247 . S
C399 O405 1.208 . S
C400 O392 1.315 . S
C400 O395 1.279 . S
C401 O402 1.315 . S
C401 O403 1.279 . S
O402 Cd394 2.223 . S
O402 C401 1.315 . S
O403 Cd393 2.240 . S
O403 C401 1.279 . S
O404 Cd394 2.297 . S
O404 C399 1.247 . S
O405 Cd394 2.439 . S
O405 C399 1.208 . S
O406 Cd407 2.223 . S
O406 C414 1.315 . S
Cd407 O406 2.223 . S
Cd407 O410 2.297 . S
Cd407 O411 2.439 . S
Cd407 O417 2.240 . S
Cd408 O409 2.240 . S
Cd408 O416 2.223 . S
Cd408 O418 2.297 . S
Cd408 O419 2.439 . S
O409 Cd408 2.240 . S
O409 C414 1.279 . S
O410 Cd407 2.297 . S
O410 C412 1.247 . S
O411 Cd407 2.439 . S
O411 C412 1.208 . S
C412 O410 1.247 . S
C412 O411 1.208 . S
C413 O418 1.247 . S
C413 O419 1.208 . S
C414 O406 1.315 . S
C414 O409 1.279 . S
C415 O416 1.315 . S
C415 O417 1.279 . S
O416 Cd408 2.223 . S
O416 C415 1.315 . S
O417 Cd407 2.240 . S
O417 C415 1.279 . S
O418 Cd408 2.297 . S
O418 C413 1.247 . S
O419 Cd408 2.439 . S
O419 C413 1.208 . S
O420 Cd421 2.223 . S
O420 C428 1.315 . S
Cd421 O420 2.223 . S
Cd421 O424 2.297 . S
Cd421 O425 2.439 . S
Cd421 O431 2.240 . S
Cd422 O423 2.240 . S
Cd422 O430 2.223 . S
Cd422 O432 2.297 . S
Cd422 O433 2.439 . S
O423 Cd422 2.240 . S
O423 C428 1.279 . S
O424 Cd421 2.297 . S
O424 C426 1.247 . S
O425 Cd421 2.439 . S
O425 C426 1.208 . S
C426 O424 1.247 . S
C426 O425 1.208 . S
C427 O432 1.247 . S
C427 O433 1.208 . S
C428 O420 1.315 . S
C428 O423 1.279 . S
C429 O430 1.315 . S
C429 O431 1.279 . S
O430 Cd422 2.223 . S
O430 C429 1.315 . S
O431 Cd421 2.240 . S
O431 C429 1.279 . S
O432 Cd422 2.297 . S
O432 C427 1.247 . S
O433 Cd422 2.439 . S
O433 C427 1.208 . S
O434 Cd435 2.223 . S
O434 C442 1.315 . S
Cd435 O434 2.223 . S
Cd435 O438 2.297 . S
Cd435 O439 2.439 . S
Cd435 O445 2.240 . S
Cd436 O437 2.240 . S
Cd436 O444 2.223 . S
Cd436 O446 2.297 . S
Cd436 O447 2.439 . S
O437 Cd436 2.240 . S
O437 C442 1.279 . S
O438 Cd435 2.297 . S
O438 C440 1.247 . S
O439 Cd435 2.439 . S
O439 C440 1.208 . S
C440 O438 1.247 . S
C440 O439 1.208 . S
C441 O446 1.247 . S
C441 O447 1.208 . S
C442 O434 1.315 . S
C442 O437 1.279 . S
C443 O444 1.315 . S
C443 O445 1.279 . S
O444 Cd436 2.223 . S
O444 C443 1.315 . S
O445 Cd435 2.240 . S
O445 C443 1.279 . S
O446 Cd436 2.297 . S
O446 C441 1.247 . S
O447 Cd436 2.439 . S
O447 C441 1.208 . S
H448 C456 0.929 . S
H449 C458 0.930 . S
H450 C460 0.930 . S
H451 C463 0.929 . S
H452 C466 0.930 . S
H453 C468 0.960 . S
H454 C468 0.960 . S
H455 C468 0.960 . S
C456 H448 0.929 . S
C456 C457 1.377 . S
C456 C458 1.384 . S
C457 C456 1.377 . S
C457 C463 1.390 . S
C458 H449 0.930 . S
C458 C456 1.384 . S
C458 C459 1.372 . S
C459 C458 1.372 . S
C459 C460 1.400 . S
C459 C464 1.490 . S
C460 H450 0.930 . S
C460 C459 1.400 . S
C460 C463 1.386 . S
H461 C477 0.930 . S
H462 C478 0.931 . S
C463 H451 0.929 . S
C463 C457 1.390 . S
C463 C460 1.386 . S
C464 C459 1.490 . S
C464 C466 1.395 1_545 S
C464 C467 1.403 . S
H465 C471 0.930 . S
C466 H452 0.930 . S
C466 C464 1.395 1_565 S
C466 C469 1.403 . S
C467 C464 1.403 . S
C467 C468 1.524 . S
C467 C471 1.400 . S
C468 H453 0.960 . S
C468 H454 0.960 . S
C468 H455 0.960 . S
C468 C467 1.524 . S
C469 C466 1.403 . S
C469 C470 1.392 . S
C469 C473 1.495 . S
C470 C469 1.392 . S
C470 C471 1.385 1_565 S
C470 C472 1.478 . S
C471 H465 0.930 . S
C471 C467 1.400 . S
C471 C470 1.385 1_545 S
C472 C470 1.478 . S
C472 C474 1.381 . S
C472 C478 1.383 . S
C473 C469 1.495 . S
C473 H479 0.959 . S
C473 H480 0.961 . S
C473 H481 0.960 . S
C474 C472 1.381 . S
C474 C475 1.394 . S
C474 H482 0.930 . S
C475 C474 1.394 . S
C475 C476 1.383 . S
C475 H483 0.929 . S
C476 C475 1.383 . S
C476 C477 1.377 . S
C477 H461 0.930 . S
C477 C476 1.377 . S
C477 C478 1.379 . S
C478 H462 0.931 . S
C478 C472 1.383 . S
C478 C477 1.379 . S
H479 C473 0.959 . S
H480 C473 0.961 . S
H481 C473 0.960 . S
H482 C474 0.930 . S
H483 C475 0.929 . S
H484 C492 0.929 . S
H485 C494 0.930 . S
H486 C496 0.930 . S
H487 C499 0.929 . S
H488 C502 0.930 . S
H489 C504 0.960 . S
H490 C504 0.960 . S
H491 C504 0.960 . S
C492 H484 0.929 . S
C492 C493 1.377 . S
C492 C494 1.384 . S
C493 C492 1.377 . S
C493 C499 1.390 . S
C494 H485 0.930 . S
C494 C492 1.384 . S
C494 C495 1.372 . S
C495 C494 1.372 . S
C495 C496 1.400 . S
C495 C500 1.490 . S
C496 H486 0.930 . S
C496 C495 1.400 . S
C496 C499 1.386 . S
H497 C513 0.930 . S
H498 C514 0.931 . S
C499 H487 0.929 . S
C499 C493 1.390 . S
C499 C496 1.386 . S
C500 C495 1.490 . S
C500 C502 1.395 . S
C500 C503 1.403 . S
H501 C507 0.930 . S
C502 H488 0.930 . S
C502 C500 1.395 . S
C502 C505 1.403 . S
C503 C500 1.403 . S
C503 C504 1.524 . S
C503 C507 1.400 . S
C504 H489 0.960 . S
C504 H490 0.960 . S
C504 H491 0.960 . S
C504 C503 1.524 . S
C505 C502 1.403 . S
C505 C506 1.392 . S
C505 C509 1.495 . S
C506 C505 1.392 . S
C506 C507 1.385 . S
C506 C508 1.478 . S
C507 H501 0.930 . S
C507 C503 1.400 . S
C507 C506 1.385 . S
C508 C506 1.478 . S
C508 C510 1.381 . S
C508 C514 1.383 . S
C509 C505 1.495 . S
C509 H515 0.959 . S
C509 H516 0.961 . S
C509 H517 0.960 . S
C510 C508 1.381 . S
C510 C511 1.394 . S
C510 H518 0.930 . S
C511 C510 1.394 . S
C511 C512 1.383 . S
C511 H519 0.929 . S
C512 C511 1.383 . S
C512 C513 1.377 . S
C513 H497 0.930 . S
C513 C512 1.377 . S
C513 C514 1.379 . S
C514 H498 0.931 . S
C514 C508 1.383 . S
C514 C513 1.379 . S
H515 C509 0.959 . S
H516 C509 0.961 . S
H517 C509 0.960 . S
H518 C510 0.930 . S
H519 C511 0.929 . S
H520 C528 0.929 . S
H521 C530 0.930 . S
H522 C532 0.930 . S
H523 C535 0.929 . S
H524 C538 0.930 . S
H525 C540 0.960 . S
H526 C540 0.960 . S
H527 C540 0.960 . S
C528 H520 0.929 . S
C528 C529 1.377 . S
C528 C530 1.384 . S
C529 C528 1.377 . S
C529 C535 1.390 . S
C530 H521 0.930 . S
C530 C528 1.384 . S
C530 C531 1.372 . S
C531 C530 1.372 . S
C531 C532 1.400 . S
C531 C536 1.490 . S
C532 H522 0.930 . S
C532 C531 1.400 . S
C532 C535 1.386 . S
H533 C549 0.930 . S
H534 C550 0.931 . S
C535 H523 0.929 . S
C535 C529 1.390 . S
C535 C532 1.386 . S
C536 C531 1.490 . S
C536 C538 1.395 1_545 S
C536 C539 1.403 . S
H537 C543 0.929 . S
C538 H524 0.930 . S
C538 C536 1.395 1_565 S
C538 C541 1.403 . S
C539 C536 1.403 . S
C539 C540 1.524 . S
C539 C543 1.395 . S
C540 H525 0.960 . S
C540 H526 0.960 . S
C540 H527 0.960 . S
C540 C539 1.524 . S
C541 C538 1.403 . S
C541 C542 1.392 . S
C541 C545 1.495 . S
C542 C541 1.392 . S
C542 C543 1.390 1_565 S
C542 C544 1.478 . S
C543 H537 0.929 . S
C543 C539 1.395 . S
C543 C542 1.390 1_545 S
C544 C542 1.478 . S
C544 C546 1.381 . S
C544 C550 1.383 . S
C545 C541 1.495 . S
C545 H551 0.959 . S
C545 H552 0.961 . S
C545 H553 0.960 . S
C546 C544 1.381 . S
C546 C547 1.394 . S
C546 H554 0.930 . S
C547 C546 1.394 . S
C547 C548 1.383 . S
C547 H555 0.929 . S
C548 C547 1.383 . S
C548 C549 1.377 . S
C549 H533 0.930 . S
C549 C548 1.377 . S
C549 C550 1.379 . S
C550 H534 0.931 . S
C550 C544 1.383 . S
C550 C549 1.379 . S
H551 C545 0.959 . S
H552 C545 0.961 . S
H553 C545 0.960 . S
H554 C546 0.930 . S
H555 C547 0.929 . S
H556 C564 0.929 . S
H557 C566 0.930 . S
H558 C568 0.930 . S
H559 C571 0.929 . S
H560 C574 0.930 . S
H561 C576 0.960 . S
H562 C576 0.960 . S
H563 C576 0.960 . S
C564 H556 0.929 . S
C564 C565 1.377 . S
C564 C566 1.384 . S
C565 C564 1.377 . S
C565 C571 1.390 . S
C566 H557 0.930 . S
C566 C564 1.384 . S
C566 C567 1.372 . S
C567 C566 1.372 . S
C567 C568 1.400 . S
C567 C572 1.490 . S
C568 H558 0.930 . S
C568 C567 1.400 . S
C568 C571 1.386 . S
H569 C585 0.930 . S
H570 C586 0.931 . S
C571 H559 0.929 . S
C571 C565 1.390 . S
C571 C568 1.386 . S
C572 C567 1.490 . S
C572 C574 1.395 . S
C572 C575 1.403 . S
H573 C579 0.930 . S
C574 H560 0.930 . S
C574 C572 1.395 . S
C574 C577 1.403 1_556 S
C575 C572 1.403 . S
C575 C576 1.524 . S
C575 C579 1.400 1_556 S
C576 H561 0.960 . S
C576 H562 0.960 . S
C576 H563 0.960 . S
C576 C575 1.524 . S
C577 C574 1.403 1_554 S
C577 C578 1.392 . S
C577 C581 1.495 . S
C578 C577 1.392 . S
C578 C579 1.385 . S
C578 C580 1.478 . S
C579 H573 0.930 . S
C579 C575 1.400 1_554 S
C579 C578 1.385 . S
C580 C578 1.478 . S
C580 C582 1.381 . S
C580 C586 1.383 . S
C581 C577 1.495 . S
C581 H587 0.959 . S
C581 H588 0.961 . S
C581 H589 0.960 . S
C582 C580 1.381 . S
C582 C583 1.394 . S
C582 H590 0.930 . S
C583 C582 1.394 . S
C583 C584 1.383 . S
C583 H591 0.929 . S
C584 C583 1.383 . S
C584 C585 1.377 . S
C585 H569 0.930 . S
C585 C584 1.377 . S
C585 C586 1.379 . S
C586 H570 0.931 . S
C586 C580 1.383 . S
C586 C585 1.379 . S
H587 C581 0.959 . S
H588 C581 0.961 . S
H589 C581 0.960 . S
H590 C582 0.930 . S
H591 C583 0.929 . S
H592 C600 0.929 . S
H593 C602 0.930 . S
H594 C604 0.930 . S
H595 C607 0.929 . S
H596 C610 0.930 . S
H597 C612 0.960 . S
H598 C612 0.960 . S
H599 C612 0.960 . S
C600 H592 0.929 . S
C600 C601 1.377 . S
C600 C602 1.384 . S
C601 C600 1.377 . S
C601 C607 1.390 . S
C602 H593 0.930 . S
C602 C600 1.384 . S
C602 C603 1.372 . S
C603 C602 1.372 . S
C603 C604 1.400 . S
C603 C608 1.490 . S
C604 H594 0.930 . S
C604 C603 1.400 . S
C604 C607 1.386 . S
H605 C621 0.930 . S
H606 C622 0.931 . S
C607 H595 0.929 . S
C607 C601 1.390 . S
C607 C604 1.386 . S
C608 C603 1.490 . S
C608 C610 1.395 . S
C608 C611 1.403 1_565 S
H609 C615 0.930 . S
C610 H596 0.930 . S
C610 C608 1.395 . S
C610 C613 1.403 . S
C611 C608 1.403 1_545 S
C611 C612 1.524 . S
C611 C615 1.400 . S
C612 H597 0.960 . S
C612 H598 0.960 . S
C612 H599 0.960 . S
C612 C611 1.524 . S
C613 C610 1.403 . S
C613 C614 1.392 1_565 S
C613 C617 1.495 . S
C614 C613 1.392 1_545 S
C614 C615 1.385 . S
C614 C616 1.478 . S
C615 H609 0.930 . S
C615 C611 1.400 . S
C615 C614 1.385 . S
C616 C614 1.478 . S
C616 C618 1.381 . S
C616 C622 1.383 . S
C617 C613 1.495 . S
C617 H623 0.959 . S
C617 H624 0.961 . S
C617 H625 0.960 . S
C618 C616 1.381 . S
C618 C619 1.394 . S
C618 H626 0.930 . S
C619 C618 1.394 . S
C619 C620 1.383 . S
C619 H627 0.929 . S
C620 C619 1.383 . S
C620 C621 1.377 . S
C621 H605 0.930 . S
C621 C620 1.377 . S
C621 C622 1.379 . S
C622 H606 0.931 . S
C622 C616 1.383 . S
C622 C621 1.379 . S
H623 C617 0.959 . S
H624 C617 0.961 . S
H625 C617 0.960 . S
H626 C618 0.930 . S
H627 C619 0.929 . S
H628 C636 0.929 . S
H629 C638 0.930 . S
H630 C640 0.930 . S
H631 C643 0.929 . S
H632 C646 0.930 . S
H633 C648 0.960 . S
H634 C648 0.960 . S
H635 C648 0.960 . S
C636 H628 0.929 . S
C636 C637 1.377 . S
C636 C638 1.384 . S
C637 C636 1.377 . S
C637 C643 1.390 . S
C638 H629 0.930 . S
C638 C636 1.384 . S
C638 C639 1.372 . S
C639 C638 1.372 . S
C639 C640 1.400 . S
C639 C644 1.490 . S
C640 H630 0.930 . S
C640 C639 1.400 . S
C640 C643 1.386 . S
H641 C657 0.930 . S
H642 C658 0.931 . S
C643 H631 0.929 . S
C643 C637 1.390 . S
C643 C640 1.386 . S
C644 C639 1.490 . S
C644 C646 1.395 . S
C644 C647 1.403 . S
H645 C651 0.930 . S
C646 H632 0.930 . S
C646 C644 1.395 . S
C646 C649 1.403 . S
C647 C644 1.403 . S
C647 C648 1.524 . S
C647 C651 1.400 . S
C648 H633 0.960 . S
C648 H634 0.960 . S
C648 H635 0.960 . S
C648 C647 1.524 . S
C649 C646 1.403 . S
C649 C650 1.392 . S
C649 C653 1.495 . S
C650 C649 1.392 . S
C650 C651 1.385 . S
C650 C652 1.478 . S
C651 H645 0.930 . S
C651 C647 1.400 . S
C651 C650 1.385 . S
C652 C650 1.478 . S
C652 C654 1.381 . S
C652 C658 1.383 . S
C653 C649 1.495 . S
C653 H659 0.959 . S
C653 H660 0.961 . S
C653 H661 0.960 . S
C654 C652 1.381 . S
C654 C655 1.394 . S
C654 H662 0.930 . S
C655 C654 1.394 . S
C655 C656 1.383 . S
C655 H663 0.929 . S
C656 C655 1.383 . S
C656 C657 1.377 . S
C657 H641 0.930 . S
C657 C656 1.377 . S
C657 C658 1.379 . S
C658 H642 0.931 . S
C658 C652 1.383 . S
C658 C657 1.379 . S
H659 C653 0.959 . S
H660 C653 0.961 . S
H661 C653 0.960 . S
H662 C654 0.930 . S
H663 C655 0.929 . S
H664 C672 0.929 . S
H665 C674 0.930 . S
H666 C676 0.930 . S
H667 C679 0.929 . S
H668 C682 0.930 . S
H669 C684 0.960 . S
H670 C684 0.960 . S
H671 C684 0.960 1_565 S
C672 H664 0.929 . S
C672 C673 1.377 . S
C672 C674 1.384 . S
C673 C672 1.377 . S
C673 C679 1.390 . S
C674 H665 0.930 . S
C674 C672 1.384 . S
C674 C675 1.372 . S
C675 C674 1.372 . S
C675 C676 1.400 . S
C675 C680 1.490 . S
C676 H666 0.930 . S
C676 C675 1.400 . S
C676 C679 1.386 . S
H677 C693 0.930 . S
H678 C694 0.931 . S
C679 H667 0.929 . S
C679 C673 1.390 . S
C679 C676 1.386 . S
C680 C675 1.490 . S
C680 C682 1.395 . S
C680 C683 1.403 1_565 S
H681 C687 0.930 . S
C682 H668 0.930 . S
C682 C680 1.395 . S
C682 C685 1.403 . S
C683 C680 1.403 1_545 S
C683 C684 1.524 . S
C683 C687 1.400 . S
C684 H669 0.960 . S
C684 H670 0.960 . S
C684 H671 0.960 1_545 S
C684 C683 1.524 . S
C685 C682 1.403 . S
C685 C686 1.392 1_565 S
C685 C689 1.495 . S
C686 C685 1.392 1_545 S
C686 C687 1.385 . S
C686 C688 1.478 . S
C687 H681 0.930 . S
C687 C683 1.400 . S
C687 C686 1.385 . S
C688 C686 1.478 . S
C688 C690 1.381 . S
C688 C694 1.383 . S
C689 C685 1.495 . S
C689 H695 0.959 . S
C689 H696 0.961 . S
C689 H697 0.937 1_565 S
C690 C688 1.381 . S
C690 C691 1.394 . S
C690 H698 0.930 . S
C691 C690 1.394 . S
C691 C692 1.383 . S
C691 H699 0.929 . S
C692 C691 1.383 . S
C692 C693 1.377 . S
C693 H677 0.930 . S
C693 C692 1.377 . S
C693 C694 1.379 . S
C694 H678 0.931 . S
C694 C688 1.383 . S
C694 C693 1.379 . S
H695 C689 0.959 . S
H696 C689 0.961 . S
H697 C689 0.937 1_545 S
H698 C690 0.930 . S
H699 C691 0.929 . S
H700 C708 0.929 . S
H701 C710 0.930 . S
H702 C712 0.930 . S
H703 C715 0.929 . S
H704 C718 0.930 . S
H705 C720 0.960 . S
H706 C720 0.960 . S
H707 C720 0.960 . S
C708 H700 0.929 . S
C708 C709 1.377 . S
C708 C710 1.384 . S
C709 C708 1.377 . S
C709 C715 1.390 . S
C710 H701 0.930 . S
C710 C708 1.384 . S
C710 C711 1.372 . S
C711 C710 1.372 . S
C711 C712 1.400 . S
C711 C716 1.490 . S
C712 H702 0.930 . S
C712 C711 1.400 . S
C712 C715 1.386 . S
H713 C729 0.930 . S
H714 C730 0.931 . S
C715 H703 0.929 . S
C715 C709 1.390 . S
C715 C712 1.386 . S
C716 C711 1.490 . S
C716 C718 1.395 1_556 S
C716 C719 1.403 . S
H717 C723 0.930 . S
C718 H704 0.930 . S
C718 C716 1.395 1_554 S
C718 C721 1.403 . S
C719 C716 1.403 . S
C719 C720 1.524 . S
C719 C723 1.400 . S
C720 H705 0.960 . S
C720 H706 0.960 . S
C720 H707 0.960 . S
C720 C719 1.524 . S
C721 C718 1.403 . S
C721 C722 1.392 . S
C721 C725 1.495 . S
C722 C721 1.392 . S
C722 C723 1.385 1_554 S
C722 C724 1.478 . S
C723 H717 0.930 . S
C723 C719 1.400 . S
C723 C722 1.385 1_556 S
C724 C722 1.478 . S
C724 C726 1.381 . S
C724 C730 1.383 . S
C725 C721 1.495 . S
C725 H731 0.959 . S
C725 H732 0.961 . S
C725 H733 0.960 . S
C726 C724 1.381 . S
C726 C727 1.394 . S
C726 H734 0.930 . S
C727 C726 1.394 . S
C727 C728 1.383 . S
C727 H735 0.929 . S
C728 C727 1.383 . S
C728 C729 1.377 . S
C729 H713 0.930 . S
C729 C728 1.377 . S
C729 C730 1.379 . S
C730 H714 0.931 . S
C730 C724 1.383 . S
C730 C729 1.379 . S
H731 C725 0.959 . S
H732 C725 0.961 . S
H733 C725 0.960 . S
H734 C726 0.930 . S
H735 C727 0.929 . S
H736 C744 0.929 . S
H737 C746 0.930 . S
H738 C748 0.930 . S
H739 C751 0.929 . S
H740 C754 0.930 . S
H741 C756 0.960 . S
H742 C756 0.960 . S
H743 C756 0.960 . S
C744 H736 0.929 . S
C744 C745 1.377 . S
C744 C746 1.384 . S
C745 C744 1.377 . S
C745 C751 1.390 . S
C746 H737 0.930 . S
C746 C744 1.384 . S
C746 C747 1.372 . S
C747 C746 1.372 . S
C747 C748 1.400 . S
C747 C752 1.490 . S
C748 H738 0.930 . S
C748 C747 1.400 . S
C748 C751 1.386 . S
H749 C765 0.930 . S
H750 C766 0.931 . S
C751 H739 0.929 . S
C751 C745 1.390 . S
C751 C748 1.386 . S
C752 C747 1.490 . S
C752 C754 1.395 . S
C752 C755 1.403 . S
H753 C759 0.930 . S
C754 H740 0.930 . S
C754 C752 1.395 . S
C754 C757 1.403 . S
C755 C752 1.403 . S
C755 C756 1.524 . S
C755 C759 1.400 . S
C756 H741 0.960 . S
C756 H742 0.960 . S
C756 H743 0.960 . S
C756 C755 1.524 . S
C757 C754 1.403 . S
C757 C758 1.392 . S
C757 C761 1.495 . S
C758 C757 1.392 . S
C758 C759 1.385 . S
C758 C760 1.478 . S
C759 H753 0.930 . S
C759 C755 1.400 . S
C759 C758 1.385 . S
C760 C758 1.478 . S
C760 C762 1.381 . S
C760 C766 1.383 . S
C761 C757 1.495 . S
C761 H767 0.959 . S
C761 H768 0.961 . S
C761 H769 0.960 . S
C762 C760 1.381 . S
C762 C763 1.394 . S
C762 H770 0.930 . S
C763 C762 1.394 . S
C763 C764 1.383 . S
C763 H771 0.929 . S
C764 C763 1.383 . S
C764 C765 1.377 . S
C765 H749 0.930 . S
C765 C764 1.377 . S
C765 C766 1.379 . S
C766 H750 0.931 . S
C766 C760 1.383 . S
C766 C765 1.379 . S
H767 C761 0.959 . S
H768 C761 0.961 . S
H769 C761 0.960 . S
H770 C762 0.930 . S
H771 C763 0.929 . S
H772 C780 0.929 . S
H773 C782 0.930 . S
H774 C784 0.930 . S
H775 C787 0.929 . S
H776 C790 0.930 . S
H777 C792 0.960 . S
H778 C792 0.960 . S
H779 C792 0.960 . S
C780 H772 0.929 . S
C780 C781 1.377 . S
C780 C782 1.384 . S
C781 C780 1.377 . S
C781 C787 1.390 . S
C782 H773 0.930 . S
C782 C780 1.384 . S
C782 C783 1.372 . S
C783 C782 1.372 . S
C783 C784 1.400 . S
C783 C788 1.490 . S
C784 H774 0.930 . S
C784 C783 1.400 . S
C784 C787 1.386 . S
H785 C801 0.930 . S
H786 C802 0.931 . S
C787 H775 0.929 . S
C787 C781 1.390 . S
C787 C784 1.386 . S
C788 C783 1.490 . S
C788 C790 1.395 . S
C788 C791 1.403 . S
H789 C795 0.930 . S
C790 H776 0.930 . S
C790 C788 1.395 . S
C790 C793 1.403 1_556 S
C791 C788 1.403 . S
C791 C792 1.524 . S
C791 C795 1.400 1_556 S
C792 H777 0.960 . S
C792 H778 0.960 . S
C792 H779 0.960 . S
C792 C791 1.524 . S
C793 C790 1.403 1_554 S
C793 C794 1.392 . S
C793 C797 1.495 . S
C794 C793 1.392 . S
C794 C795 1.385 . S
C794 C796 1.478 . S
C795 H789 0.930 . S
C795 C791 1.400 1_554 S
C795 C794 1.385 . S
C796 C794 1.478 . S
C796 C798 1.381 . S
C796 C802 1.383 . S
C797 C793 1.495 . S
C797 H803 0.959 . S
C797 H804 0.961 . S
C797 H805 0.960 . S
C798 C796 1.381 . S
C798 C799 1.394 . S
C798 H806 0.930 . S
C799 C798 1.394 . S
C799 C800 1.383 . S
C799 H807 0.929 . S
C800 C799 1.383 . S
C800 C801 1.377 . S
C801 H785 0.930 . S
C801 C800 1.377 . S
C801 C802 1.379 . S
C802 H786 0.931 . S
C802 C796 1.383 . S
C802 C801 1.379 . S
H803 C797 0.959 . S
H804 C797 0.961 . S
H805 C797 0.960 . S
H806 C798 0.930 . S
H807 C799 0.929 . S
H808 C816 0.929 . S
H809 C818 0.930 . S
H810 C820 0.930 . S
H811 C823 0.929 . S
H812 C826 0.930 . S
H813 C828 0.960 . S
H814 C828 0.960 . S
H815 C828 0.960 . S
C816 H808 0.929 . S
C816 C817 1.377 . S
C816 C818 1.384 . S
C817 C816 1.377 . S
C817 C823 1.390 . S
C818 H809 0.930 . S
C818 C816 1.384 . S
C818 C819 1.372 . S
C819 C818 1.372 . S
C819 C820 1.400 . S
C819 C824 1.490 . S
C820 H810 0.930 . S
C820 C819 1.400 . S
C820 C823 1.386 . S
H821 C837 0.930 . S
H822 C838 0.931 . S
C823 H811 0.929 . S
C823 C817 1.390 . S
C823 C820 1.386 . S
C824 C819 1.490 . S
C824 C826 1.395 . S
C824 C827 1.403 . S
H825 C831 0.930 . S
C826 H812 0.930 . S
C826 C824 1.395 . S
C826 C829 1.403 . S
C827 C824 1.403 . S
C827 C828 1.524 . S
C827 C831 1.400 . S
C828 H813 0.960 . S
C828 H814 0.960 . S
C828 H815 0.960 . S
C828 C827 1.524 . S
C829 C826 1.403 . S
C829 C830 1.392 . S
C829 C833 1.495 . S
C830 C829 1.392 . S
C830 C831 1.385 . S
C830 C832 1.478 . S
C831 H825 0.930 . S
C831 C827 1.400 . S
C831 C830 1.385 . S
C832 C830 1.478 . S
C832 C834 1.381 . S
C832 C838 1.383 . S
C833 C829 1.495 . S
C833 H839 0.959 . S
C833 H840 0.961 . S
C833 H841 0.960 . S
C834 C832 1.381 . S
C834 C835 1.394 . S
C834 H842 0.930 . S
C835 C834 1.394 . S
C835 C836 1.383 . S
C835 H843 0.929 . S
C836 C835 1.383 . S
C836 C837 1.377 . S
C837 H821 0.930 . S
C837 C836 1.377 . S
C837 C838 1.379 . S
C838 H822 0.931 . S
C838 C832 1.383 . S
C838 C837 1.379 . S
H839 C833 0.959 . S
H840 C833 0.961 . S
H841 C833 0.960 . S
H842 C834 0.930 . S
H843 C835 0.929 . S
H844 C852 0.929 . S
H845 C854 0.930 . S
H846 C856 0.930 . S
H847 C859 0.929 . S
H848 C862 0.930 . S
H849 C864 0.960 . S
H850 C864 0.960 . S
H851 C864 0.960 . S
C852 H844 0.929 . S
C852 C853 1.377 . S
C852 C854 1.384 . S
C853 C852 1.377 . S
C853 C859 1.390 . S
C854 H845 0.930 . S
C854 C852 1.384 . S
C854 C855 1.372 . S
C855 C854 1.372 . S
C855 C856 1.400 . S
C855 C860 1.490 . S
C856 H846 0.930 . S
C856 C855 1.400 . S
C856 C859 1.386 . S
H857 C873 0.930 . S
H858 C874 0.931 . S
C859 H847 0.929 . S
C859 C853 1.390 . S
C859 C856 1.386 . S
C860 C855 1.490 . S
C860 C862 1.395 . S
C860 C863 1.403 . S
H861 C867 0.930 . S
C862 H848 0.930 . S
C862 C860 1.395 . S
C862 C865 1.403 . S
C863 C860 1.403 . S
C863 C864 1.524 . S
C863 C867 1.400 . S
C864 H849 0.960 . S
C864 H850 0.960 . S
C864 H851 0.960 . S
C864 C863 1.524 . S
C865 C862 1.403 . S
C865 C866 1.392 . S
C865 C869 1.495 . S
C866 C865 1.392 . S
C866 C867 1.385 . S
C866 C868 1.478 . S
C867 H861 0.930 . S
C867 C863 1.400 . S
C867 C866 1.385 . S
C868 C866 1.478 . S
C868 C870 1.381 . S
C868 C874 1.383 . S
C869 C865 1.495 . S
C869 H875 0.959 . S
C869 H876 0.961 . S
C869 H877 0.960 . S
C870 C868 1.381 . S
C870 C871 1.394 . S
C870 H878 0.930 . S
C871 C870 1.394 . S
C871 C872 1.383 . S
C871 H879 0.929 . S
C872 C871 1.383 . S
C872 C873 1.377 . S
C873 H857 0.930 . S
C873 C872 1.377 . S
C873 C874 1.379 . S
C874 H858 0.931 . S
C874 C868 1.383 . S
C874 C873 1.379 . S
H875 C869 0.959 . S
H876 C869 0.961 . S
H877 C869 0.960 . S
H878 C870 0.930 . S
H879 C871 0.929 . S
H880 C888 0.929 . S
H881 C890 0.930 . S
H882 C892 0.930 . S
H883 C895 0.929 . S
H884 C898 0.930 . S
H885 C900 0.960 . S
H886 C900 0.960 . S
H887 C900 0.960 . S
C888 H880 0.929 . S
C888 C889 1.377 . S
C888 C890 1.384 . S
C889 C888 1.377 . S
C889 C895 1.390 . S
C890 H881 0.930 . S
C890 C888 1.384 . S
C890 C891 1.372 . S
C891 C890 1.372 . S
C891 C892 1.400 . S
C891 C896 1.490 . S
C892 H882 0.930 . S
C892 C891 1.400 . S
C892 C895 1.386 . S
H893 C909 0.930 . S
H894 C910 0.931 . S
C895 H883 0.929 . S
C895 C889 1.390 . S
C895 C892 1.386 . S
C896 C891 1.490 . S
C896 C898 1.395 . S
C896 C899 1.403 . S
H897 C903 0.930 . S
C898 H884 0.930 . S
C898 C896 1.395 . S
C898 C901 1.403 . S
C899 C896 1.403 . S
C899 C900 1.524 . S
C899 C903 1.400 . S
C900 H885 0.960 . S
C900 H886 0.960 . S
C900 H887 0.960 . S
C900 C899 1.524 . S
C901 C898 1.403 . S
C901 C902 1.392 . S
C901 C905 1.495 . S
C902 C901 1.392 . S
C902 C903 1.385 . S
C902 C904 1.478 . S
C903 H897 0.930 . S
C903 C899 1.400 . S
C903 C902 1.385 . S
C904 C902 1.478 . S
C904 C906 1.381 . S
C904 C910 1.383 . S
C905 C901 1.495 . S
C905 H911 0.959 . S
C905 H912 0.961 . S
C905 H913 0.960 . S
C906 C904 1.381 . S
C906 C907 1.394 . S
C906 H914 0.930 . S
C907 C906 1.394 . S
C907 C908 1.383 . S
C907 H915 0.929 . S
C908 C907 1.383 . S
C908 C909 1.377 . S
C909 H893 0.930 . S
C909 C908 1.377 . S
C909 C910 1.379 . S
C910 H894 0.931 . S
C910 C904 1.383 . S
C910 C909 1.379 . S
H911 C905 0.959 . S
H912 C905 0.961 . S
H913 C905 0.960 . S
H914 C906 0.930 . S
H915 C907 0.929 . S
H916 C924 0.929 . S
H917 C926 0.930 . S
H918 C928 0.930 . S
H919 C931 0.929 . S
H920 C934 0.930 . S
H921 C936 0.960 . S
H922 C936 0.961 1_554 S
H923 C936 0.960 . S
C924 H916 0.929 . S
C924 C925 1.377 . S
C924 C926 1.384 . S
C925 C924 1.377 . S
C925 C931 1.390 . S
C926 H917 0.930 . S
C926 C924 1.384 . S
C926 C927 1.372 . S
C927 C926 1.372 . S
C927 C928 1.400 . S
C927 C932 1.490 . S
C928 H918 0.930 . S
C928 C927 1.400 . S
C928 C931 1.386 . S
H929 C945 0.930 . S
H930 C946 0.931 . S
C931 H919 0.929 . S
C931 C925 1.390 . S
C931 C928 1.386 . S
C932 C927 1.490 . S
C932 C934 1.395 . S
C932 C935 1.403 1_554 S
H933 C939 0.930 . S
C934 H920 0.930 . S
C934 C932 1.395 . S
C934 C937 1.403 . S
C935 C932 1.403 1_556 S
C935 C936 1.524 . S
C935 C939 1.400 . S
C936 H921 0.960 . S
C936 H922 0.961 1_556 S
C936 H923 0.960 . S
C936 C935 1.524 . S
C937 C934 1.403 . S
C937 C938 1.392 1_554 S
C937 C941 1.495 . S
C938 C937 1.392 1_556 S
C938 C939 1.385 . S
C938 C940 1.478 . S
C939 H933 0.930 . S
C939 C935 1.400 . S
C939 C938 1.385 . S
C940 C938 1.478 . S
C940 C942 1.381 . S
C940 C946 1.383 . S
C941 C937 1.495 . S
C941 H947 0.959 . S
C941 H948 0.961 . S
C941 H949 0.960 . S
C942 C940 1.381 . S
C942 C943 1.394 . S
C942 H950 0.930 . S
C943 C942 1.394 . S
C943 C944 1.383 . S
C943 H951 0.929 . S
C944 C943 1.383 . S
C944 C945 1.377 . S
C945 H929 0.930 . S
C945 C944 1.377 . S
C945 C946 1.379 . S
C946 H930 0.931 . S
C946 C940 1.383 . S
C946 C945 1.379 . S
H947 C941 0.959 . S
H948 C941 0.961 . S
H949 C941 0.960 . S
H950 C942 0.930 . S
H951 C943 0.929 . S
H952 C960 0.929 . S
H953 C962 0.930 . S
H954 C964 0.930 . S
H955 C967 0.929 . S
H956 C970 0.930 . S
H957 C972 0.960 . S
H958 C972 0.960 . S
H959 C972 0.960 . S
C960 H952 0.929 . S
C960 C961 1.377 . S
C960 C962 1.384 . S
C961 C960 1.377 . S
C961 C967 1.390 . S
C962 H953 0.930 . S
C962 C960 1.384 . S
C962 C963 1.372 . S
C963 C962 1.372 . S
C963 C964 1.400 . S
C963 C968 1.490 . S
C964 H954 0.930 . S
C964 C963 1.400 . S
C964 C967 1.386 . S
H965 C981 0.930 . S
H966 C982 0.931 . S
C967 H955 0.929 . S
C967 C961 1.390 . S
C967 C964 1.386 . S
C968 C963 1.490 . S
C968 C970 1.395 . S
C968 C971 1.403 . S
H969 C975 0.930 . S
C970 H956 0.930 . S
C970 C968 1.395 . S
C970 C973 1.403 . S
C971 C968 1.403 . S
C971 C972 1.524 . S
C971 C975 1.400 . S
C972 H957 0.960 . S
C972 H958 0.960 . S
C972 H959 0.960 . S
C972 C971 1.524 . S
C973 C970 1.403 . S
C973 C974 1.392 . S
C973 C977 1.495 . S
C974 C973 1.392 . S
C974 C975 1.385 . S
C974 C976 1.478 . S
C975 H969 0.930 . S
C975 C971 1.400 . S
C975 C974 1.385 . S
C976 C974 1.478 . S
C976 C978 1.381 . S
C976 C982 1.383 . S
C977 C973 1.495 . S
C977 H983 0.959 . S
C977 H984 0.961 . S
C977 H985 0.960 . S
C978 C976 1.381 . S
C978 C979 1.394 . S
C978 H986 0.930 . S
C979 C978 1.394 . S
C979 C980 1.383 . S
C979 H987 0.929 . S
C980 C979 1.383 . S
C980 C981 1.377 . S
C981 H965 0.930 . S
C981 C980 1.377 . S
C981 C982 1.379 . S
C982 H966 0.931 . S
C982 C976 1.383 . S
C982 C981 1.379 . S
H983 C977 0.959 . S
H984 C977 0.961 . S
H985 C977 0.960 . S
H986 C978 0.930 . S
H987 C979 0.929 . S
H988 C996 0.929 . S
H989 C998 0.930 . S
H990 C1000 0.930 . S
H991 C1003 0.929 . S
H992 C1006 0.930 . S
H993 C1008 0.960 . S
H994 C1008 0.960 . S
H995 C1008 0.960 . S
C996 H988 0.929 . S
C996 C997 1.377 . S
C996 C998 1.384 . S
C997 C996 1.377 . S
C997 C1003 1.390 . S
C998 H989 0.930 . S
C998 C996 1.384 . S
C998 C999 1.372 . S
C999 C998 1.372 . S
C999 C1000 1.400 . S
C999 C1004 1.490 . S
C1000 H990 0.930 . S
C1000 C999 1.400 . S
C1000 C1003 1.386 . S
H1001 C1017 0.930 . S
H1002 C1018 0.931 . S
C1003 H991 0.929 . S
C1003 C997 1.390 . S
C1003 C1000 1.386 . S
C1004 C999 1.490 . S
C1004 C1006 1.395 . S
C1004 C1007 1.403 . S
H1005 C1011 0.930 . S
C1006 H992 0.930 . S
C1006 C1004 1.395 . S
C1006 C1009 1.403 . S
C1007 C1004 1.403 . S
C1007 C1008 1.524 . S
C1007 C1011 1.400 . S
C1008 H993 0.960 . S
C1008 H994 0.960 . S
C1008 H995 0.960 . S
C1008 C1007 1.524 . S
C1009 C1006 1.403 . S
C1009 C1010 1.392 . S
C1009 C1013 1.495 . S
C1010 C1009 1.392 . S
C1010 C1011 1.385 . S
C1010 C1012 1.478 . S
C1011 H1005 0.930 . S
C1011 C1007 1.400 . S
C1011 C1010 1.385 . S
C1012 C1010 1.478 . S
C1012 C1014 1.381 . S
C1012 C1018 1.383 . S
C1013 C1009 1.495 . S
C1013 H1019 0.959 . S
C1013 H1020 0.961 . S
C1013 H1021 0.960 . S
C1014 C1012 1.381 . S
C1014 C1015 1.394 . S
C1014 H1022 0.930 . S
C1015 C1014 1.394 . S
C1015 C1016 1.383 . S
C1015 H1023 0.929 . S
C1016 C1015 1.383 . S
C1016 C1017 1.377 . S
C1017 H1001 0.930 . S
C1017 C1016 1.377 . S
C1017 C1018 1.379 . S
C1018 H1002 0.931 . S
C1018 C1012 1.383 . S
C1018 C1017 1.379 . S
H1019 C1013 0.959 . S
H1020 C1013 0.961 . S
H1021 C1013 0.960 . S
H1022 C1014 0.930 . S
H1023 C1015 0.929 . S
H1024 C1032 0.929 . S
H1025 C1034 0.930 . S
H1026 C1036 0.930 . S
H1027 C1039 0.929 . S
H1028 C1042 0.930 . S
H1029 C1044 0.960 . S
H1030 C1044 0.960 . S
H1031 C1044 0.960 . S
C1032 H1024 0.929 . S
C1032 C1033 1.377 . S
C1032 C1034 1.384 . S
C1033 C1032 1.377 . S
C1033 C1039 1.390 . S
C1034 H1025 0.930 . S
C1034 C1032 1.384 . S
C1034 C1035 1.372 . S
C1035 C1034 1.372 . S
C1035 C1036 1.400 . S
C1035 C1040 1.490 . S
C1036 H1026 0.930 . S
C1036 C1035 1.400 . S
C1036 C1039 1.386 . S
H1037 C1053 0.930 . S
H1038 C1054 0.931 . S
C1039 H1027 0.929 . S
C1039 C1033 1.390 . S
C1039 C1036 1.386 . S
C1040 C1035 1.490 . S
C1040 C1042 1.395 . S
C1040 C1043 1.403 . S
H1041 C1047 0.930 . S
C1042 H1028 0.930 . S
C1042 C1040 1.395 . S
C1042 C1045 1.403 . S
C1043 C1040 1.403 . S
C1043 C1044 1.524 . S
C1043 C1047 1.400 . S
C1044 H1029 0.960 . S
C1044 H1030 0.960 . S
C1044 H1031 0.960 . S
C1044 C1043 1.524 . S
C1045 C1042 1.403 . S
C1045 C1046 1.392 . S
C1045 C1049 1.495 . S
C1046 C1045 1.392 . S
C1046 C1047 1.385 . S
C1046 C1048 1.478 . S
C1047 H1041 0.930 . S
C1047 C1043 1.400 . S
C1047 C1046 1.385 . S
C1048 C1046 1.478 . S
C1048 C1050 1.381 . S
C1048 C1054 1.383 . S
C1049 C1045 1.495 . S
C1049 H1055 0.959 . S
C1049 H1056 0.961 . S
C1049 H1057 0.960 . S
C1050 C1048 1.381 . S
C1050 C1051 1.394 . S
C1050 H1058 0.930 . S
C1051 C1050 1.394 . S
C1051 C1052 1.383 . S
C1051 H1059 0.929 . S
C1052 C1051 1.383 . S
C1052 C1053 1.377 . S
C1053 H1037 0.930 . S
C1053 C1052 1.377 . S
C1053 C1054 1.379 . S
C1054 H1038 0.931 . S
C1054 C1048 1.383 . S
C1054 C1053 1.379 . S
H1055 C1049 0.959 . S
H1056 C1049 0.961 . S
H1057 C1049 0.960 . S
H1058 C1050 0.930 . S
H1059 C1051 0.929 . S
H1060 C1068 0.929 . S
H1061 C1070 0.930 . S
H1062 C1072 0.930 . S
H1063 C1075 0.929 . S
H1064 C1078 0.930 1_655 S
H1065 C1080 0.960 . S
H1066 C1080 0.960 . S
H1067 C1080 0.960 . S
C1068 H1060 0.929 . S
C1068 C1069 1.377 . S
C1068 C1070 1.384 . S
C1069 C1068 1.377 . S
C1069 C1075 1.390 . S
C1070 H1061 0.930 . S
C1070 C1068 1.384 . S
C1070 C1071 1.372 . S
C1071 C1070 1.372 . S
C1071 C1072 1.400 . S
C1071 C1076 1.490 1_655 S
C1072 H1062 0.930 . S
C1072 C1071 1.400 . S
C1072 C1075 1.386 . S
H1073 C1089 0.930 . S
H1074 C1090 0.931 . S
C1075 H1063 0.929 . S
C1075 C1069 1.390 . S
C1075 C1072 1.386 . S
C1076 C1071 1.490 1_455 S
C1076 C1078 1.395 . S
C1076 C1079 1.403 . S
H1077 C1083 0.930 . S
C1078 H1064 0.930 1_455 S
C1078 C1076 1.395 . S
C1078 C1081 1.403 . S
C1079 C1076 1.403 . S
C1079 C1080 1.524 . S
C1079 C1083 1.400 . S
C1080 H1065 0.960 . S
C1080 H1066 0.960 . S
C1080 H1067 0.960 . S
C1080 C1079 1.524 . S
C1081 C1078 1.403 . S
C1081 C1082 1.392 . S
C1081 C1085 1.495 . S
C1082 C1081 1.392 . S
C1082 C1083 1.385 . S
C1082 C1084 1.478 . S
C1083 H1077 0.930 . S
C1083 C1079 1.400 . S
C1083 C1082 1.385 . S
C1084 C1082 1.478 . S
C1084 C1086 1.381 . S
C1084 C1090 1.383 . S
C1085 C1081 1.495 . S
C1085 H1091 0.959 . S
C1085 H1092 0.961 . S
C1085 H1093 0.960 . S
C1086 C1084 1.381 . S
C1086 C1087 1.394 . S
C1086 H1094 0.930 . S
C1087 C1086 1.394 . S
C1087 C1088 1.383 . S
C1087 H1095 0.929 . S
C1088 C1087 1.383 . S
C1088 C1089 1.377 . S
C1089 H1073 0.930 . S
C1089 C1088 1.377 . S
C1089 C1090 1.379 . S
C1090 H1074 0.931 . S
C1090 C1084 1.383 . S
C1090 C1089 1.379 . S
H1091 C1085 0.959 . S
H1092 C1085 0.961 . S
H1093 C1085 0.960 . S
H1094 C1086 0.930 . S
H1095 C1087 0.929 . S
H1096 C1104 0.929 . S
H1097 C1106 0.930 . S
H1098 C1108 0.930 . S
H1099 C1111 0.929 . S
H1100 C1114 0.930 . S
H1101 C1116 0.960 . S
H1102 C1116 0.960 . S
H1103 C1116 0.960 . S
C1104 H1096 0.929 . S
C1104 C1105 1.377 . S
C1104 C1106 1.384 . S
C1105 C1104 1.377 . S
C1105 C1111 1.390 . S
C1106 H1097 0.930 . S
C1106 C1104 1.384 . S
C1106 C1107 1.372 . S
C1107 C1106 1.372 . S
C1107 C1108 1.400 . S
C1107 C1112 1.490 . S
C1108 H1098 0.930 . S
C1108 C1107 1.400 . S
C1108 C1111 1.386 . S
H1109 C1125 0.930 . S
H1110 C1126 0.931 . S
C1111 H1099 0.929 . S
C1111 C1105 1.390 . S
C1111 C1108 1.386 . S
C1112 C1107 1.490 . S
C1112 C1114 1.395 . S
C1112 C1115 1.403 . S
H1113 C1119 0.930 . S
C1114 H1100 0.930 . S
C1114 C1112 1.395 . S
C1114 C1117 1.403 . S
C1115 C1112 1.403 . S
C1115 C1116 1.524 . S
C1115 C1119 1.400 . S
C1116 H1101 0.960 . S
C1116 H1102 0.960 . S
C1116 H1103 0.960 . S
C1116 C1115 1.524 . S
C1117 C1114 1.403 . S
C1117 C1118 1.392 . S
C1117 C1121 1.495 . S
C1118 C1117 1.392 . S
C1118 C1119 1.385 . S
C1118 C1120 1.478 . S
C1119 H1113 0.930 . S
C1119 C1115 1.400 . S
C1119 C1118 1.385 . S
C1120 C1118 1.478 . S
C1120 C1122 1.381 . S
C1120 C1126 1.383 . S
C1121 C1117 1.495 . S
C1121 H1127 0.959 . S
C1121 H1128 0.961 . S
C1121 H1129 0.960 . S
C1122 C1120 1.381 . S
C1122 C1123 1.394 . S
C1122 H1130 0.930 . S
C1123 C1122 1.394 . S
C1123 C1124 1.383 . S
C1123 H1131 0.929 . S
C1124 C1123 1.383 . S
C1124 C1125 1.377 . S
C1125 H1109 0.930 . S
C1125 C1124 1.377 . S
C1125 C1126 1.379 . S
C1126 H1110 0.931 . S
C1126 C1120 1.383 . S
C1126 C1125 1.379 . S
H1127 C1121 0.959 . S
H1128 C1121 0.961 . S
H1129 C1121 0.960 . S
H1130 C1122 0.930 . S
H1131 C1123 0.929 . S
H1132 C1140 0.929 . S
H1133 C1142 0.930 . S
H1134 C1144 0.930 . S
H1135 C1147 0.929 . S
H1136 C1150 0.930 . S
H1137 C1152 0.960 . S
H1138 C1152 0.960 . S
H1139 C1152 0.960 . S
C1140 H1132 0.929 . S
C1140 C1141 1.377 . S
C1140 C1142 1.384 . S
C1141 C1140 1.377 . S
C1141 C1147 1.390 . S
C1142 H1133 0.930 . S
C1142 C1140 1.384 . S
C1142 C1143 1.372 . S
C1143 C1142 1.372 . S
C1143 C1144 1.400 . S
C1143 C1148 1.490 . S
C1144 H1134 0.930 . S
C1144 C1143 1.400 . S
C1144 C1147 1.386 . S
H1145 C1161 0.930 . S
H1146 C1162 0.931 . S
C1147 H1135 0.929 . S
C1147 C1141 1.390 . S
C1147 C1144 1.386 . S
C1148 C1143 1.490 . S
C1148 C1150 1.395 . S
C1148 C1151 1.403 . S
H1149 C1155 0.930 . S
C1150 H1136 0.930 . S
C1150 C1148 1.395 . S
C1150 C1153 1.403 . S
C1151 C1148 1.403 . S
C1151 C1152 1.524 . S
C1151 C1155 1.400 . S
C1152 H1137 0.960 . S
C1152 H1138 0.960 . S
C1152 H1139 0.960 . S
C1152 C1151 1.524 . S
C1153 C1150 1.403 . S
C1153 C1154 1.392 . S
C1153 C1157 1.495 . S
C1154 C1153 1.392 . S
C1154 C1155 1.385 . S
C1154 C1156 1.478 . S
C1155 H1149 0.930 . S
C1155 C1151 1.400 . S
C1155 C1154 1.385 . S
C1156 C1154 1.478 . S
C1156 C1158 1.381 . S
C1156 C1162 1.383 . S
C1157 C1153 1.495 . S
C1157 H1163 0.959 . S
C1157 H1164 0.961 . S
C1157 H1165 0.960 . S
C1158 C1156 1.381 . S
C1158 C1159 1.394 . S
C1158 H1166 0.930 . S
C1159 C1158 1.394 . S
C1159 C1160 1.383 . S
C1159 H1167 0.929 . S
C1160 C1159 1.383 . S
C1160 C1161 1.377 . S
C1161 H1145 0.930 . S
C1161 C1160 1.377 . S
C1161 C1162 1.379 . S
C1162 H1146 0.931 . S
C1162 C1156 1.383 . S
C1162 C1161 1.379 . S
H1163 C1157 0.959 . S
H1164 C1157 0.961 . S
H1165 C1157 0.960 . S
H1166 C1158 0.930 . S
H1167 C1159 0.929 . S
H1168 C1176 0.929 . S
H1169 C1178 0.930 . S
H1170 C1180 0.930 . S
H1171 C1183 0.929 . S
H1172 C1186 0.930 . S
H1173 C1188 0.960 . S
H1174 C1188 0.960 . S
H1175 C1188 0.960 . S
C1176 H1168 0.929 . S
C1176 C1177 1.377 . S
C1176 C1178 1.384 . S
C1177 C1176 1.377 . S
C1177 C1183 1.390 . S
C1178 H1169 0.930 . S
C1178 C1176 1.384 . S
C1178 C1179 1.372 . S
C1179 C1178 1.372 . S
C1179 C1180 1.400 . S
C1179 C1184 1.490 . S
C1180 H1170 0.930 . S
C1180 C1179 1.400 . S
C1180 C1183 1.386 . S
H1181 C1197 0.930 . S
H1182 C1198 0.931 . S
C1183 H1171 0.929 . S
C1183 C1177 1.390 . S
C1183 C1180 1.386 . S
C1184 C1179 1.490 . S
C1184 C1186 1.395 . S
C1184 C1187 1.403 . S
H1185 C1191 0.930 . S
C1186 H1172 0.930 . S
C1186 C1184 1.395 . S
C1186 C1189 1.403 . S
C1187 C1184 1.403 . S
C1187 C1188 1.524 . S
C1187 C1191 1.400 . S
C1188 H1173 0.960 . S
C1188 H1174 0.960 . S
C1188 H1175 0.960 . S
C1188 C1187 1.524 . S
C1189 C1186 1.403 . S
C1189 C1190 1.392 . S
C1189 C1193 1.495 . S
C1190 C1189 1.392 . S
C1190 C1191 1.385 . S
C1190 C1192 1.478 . S
C1191 H1185 0.930 . S
C1191 C1187 1.400 . S
C1191 C1190 1.385 . S
C1192 C1190 1.478 . S
C1192 C1194 1.381 . S
C1192 C1198 1.383 . S
C1193 C1189 1.495 . S
C1193 H1199 0.959 . S
C1193 H1200 0.961 . S
C1193 H1201 0.960 . S
C1194 C1192 1.381 . S
C1194 C1195 1.394 . S
C1194 H1202 0.930 . S
C1195 C1194 1.394 . S
C1195 C1196 1.383 . S
C1195 H1203 0.929 . S
C1196 C1195 1.383 . S
C1196 C1197 1.377 . S
C1197 H1181 0.930 . S
C1197 C1196 1.377 . S
C1197 C1198 1.379 . S
C1198 H1182 0.931 . S
C1198 C1192 1.383 . S
C1198 C1197 1.379 . S
H1199 C1193 0.959 . S
H1200 C1193 0.961 . S
H1201 C1193 0.960 . S
H1202 C1194 0.930 . S
H1203 C1195 0.929 . S
H1204 C1212 0.929 . S
H1205 C1214 0.930 . S
H1206 C1216 0.930 . S
H1207 C1219 0.929 . S
H1208 C1222 0.930 . S
H1209 C1224 0.960 . S
H1210 C1224 0.960 . S
H1211 C1224 0.960 . S
C1212 H1204 0.929 . S
C1212 C1213 1.377 . S
C1212 C1214 1.384 . S
C1213 C1212 1.377 . S
C1213 C1219 1.390 . S
C1214 H1205 0.930 . S
C1214 C1212 1.384 . S
C1214 C1215 1.372 . S
C1215 C1214 1.372 . S
C1215 C1216 1.400 . S
C1215 C1220 1.490 . S
C1216 H1206 0.930 . S
C1216 C1215 1.400 . S
C1216 C1219 1.386 . S
H1217 C1233 0.930 . S
H1218 C1234 0.931 . S
C1219 H1207 0.929 . S
C1219 C1213 1.390 . S
C1219 C1216 1.386 . S
C1220 C1215 1.490 . S
C1220 C1222 1.395 . S
C1220 C1223 1.403 . S
H1221 C1227 0.930 . S
C1222 H1208 0.930 . S
C1222 C1220 1.395 . S
C1222 C1225 1.403 . S
C1223 C1220 1.403 . S
C1223 C1224 1.524 . S
C1223 C1227 1.400 . S
C1224 H1209 0.960 . S
C1224 H1210 0.960 . S
C1224 H1211 0.960 . S
C1224 C1223 1.524 . S
C1225 C1222 1.403 . S
C1225 C1226 1.392 . S
C1225 C1229 1.495 . S
C1226 C1225 1.392 . S
C1226 C1227 1.385 . S
C1226 C1228 1.478 . S
C1227 H1221 0.930 . S
C1227 C1223 1.400 . S
C1227 C1226 1.385 . S
C1228 C1226 1.478 . S
C1228 C1230 1.381 . S
C1228 C1234 1.383 . S
C1229 C1225 1.495 . S
C1229 H1235 0.959 . S
C1229 H1236 0.961 . S
C1229 H1237 0.960 . S
C1230 C1228 1.381 . S
C1230 C1231 1.394 . S
C1230 H1238 0.930 . S
C1231 C1230 1.394 . S
C1231 C1232 1.383 . S
C1231 H1239 0.929 . S
C1232 C1231 1.383 . S
C1232 C1233 1.377 . S
C1233 H1217 0.930 . S
C1233 C1232 1.377 . S
C1233 C1234 1.379 . S
C1234 H1218 0.931 . S
C1234 C1228 1.383 . S
C1234 C1233 1.379 . S
H1235 C1229 0.959 . S
H1236 C1229 0.961 . S
H1237 C1229 0.960 . S
H1238 C1230 0.930 . S
H1239 C1231 0.929 . S
H1240 C1248 0.929 . S
H1241 C1250 0.930 . S
H1242 C1252 0.930 . S
H1243 C1255 0.929 . S
H1244 C1258 0.930 . S
H1245 C1260 0.960 . S
H1246 C1260 0.960 . S
H1247 C1260 0.960 . S
C1248 H1240 0.929 . S
C1248 C1249 1.377 . S
C1248 C1250 1.384 . S
C1249 C1248 1.377 . S
C1249 C1255 1.390 . S
C1250 H1241 0.930 . S
C1250 C1248 1.384 . S
C1250 C1251 1.372 . S
C1251 C1250 1.372 . S
C1251 C1252 1.400 . S
C1251 C1256 1.490 . S
C1252 H1242 0.930 . S
C1252 C1251 1.400 . S
C1252 C1255 1.386 . S
H1253 C1269 0.930 . S
H1254 C1270 0.931 . S
C1255 H1243 0.929 . S
C1255 C1249 1.390 . S
C1255 C1252 1.386 . S
C1256 C1251 1.490 . S
C1256 C1258 1.395 . S
C1256 C1259 1.403 . S
H1257 C1263 0.930 . S
C1258 H1244 0.930 . S
C1258 C1256 1.395 . S
C1258 C1261 1.403 . S
C1259 C1256 1.403 . S
C1259 C1260 1.524 . S
C1259 C1263 1.400 . S
C1260 H1245 0.960 . S
C1260 H1246 0.960 . S
C1260 H1247 0.960 . S
C1260 C1259 1.524 . S
C1261 C1258 1.403 . S
C1261 C1262 1.392 . S
C1261 C1265 1.495 . S
C1262 C1261 1.392 . S
C1262 C1263 1.385 . S
C1262 C1264 1.478 . S
C1263 H1257 0.930 . S
C1263 C1259 1.400 . S
C1263 C1262 1.385 . S
C1264 C1262 1.478 . S
C1264 C1266 1.381 . S
C1264 C1270 1.383 . S
C1265 C1261 1.495 . S
C1265 H1271 0.959 . S
C1265 H1272 0.961 . S
C1265 H1273 0.960 . S
C1266 C1264 1.381 . S
C1266 C1267 1.394 . S
C1266 H1274 0.930 . S
C1267 C1266 1.394 . S
C1267 C1268 1.383 . S
C1267 H1275 0.929 . S
C1268 C1267 1.383 . S
C1268 C1269 1.377 . S
C1269 H1253 0.930 . S
C1269 C1268 1.377 . S
C1269 C1270 1.379 . S
C1270 H1254 0.931 . S
C1270 C1264 1.383 . S
C1270 C1269 1.379 . S
H1271 C1265 0.959 . S
H1272 C1265 0.961 . S
H1273 C1265 0.960 . S
H1274 C1266 0.930 . S
H1275 C1267 0.929 . S
H1276 C1284 0.929 . S
H1277 C1286 0.930 . S
H1278 C1288 0.930 . S
H1279 C1291 0.929 . S
H1280 C1294 0.930 . S
H1281 C1296 0.960 . S
H1282 C1296 0.960 . S
H1283 C1296 0.960 . S
C1284 H1276 0.929 . S
C1284 C1285 1.377 . S
C1284 C1286 1.384 . S
C1285 C1284 1.377 . S
C1285 C1291 1.390 . S
C1286 H1277 0.930 . S
C1286 C1284 1.384 . S
C1286 C1287 1.372 . S
C1287 C1286 1.372 . S
C1287 C1288 1.400 . S
C1287 C1292 1.490 . S
C1288 H1278 0.930 . S
C1288 C1287 1.400 . S
C1288 C1291 1.386 . S
H1289 C1305 0.930 . S
H1290 C1306 0.931 . S
C1291 H1279 0.929 . S
C1291 C1285 1.390 . S
C1291 C1288 1.386 . S
C1292 C1287 1.490 . S
C1292 C1294 1.395 . S
C1292 C1295 1.403 . S
H1293 C1299 0.930 . S
C1294 H1280 0.930 . S
C1294 C1292 1.395 . S
C1294 C1297 1.403 . S
C1295 C1292 1.403 . S
C1295 C1296 1.524 . S
C1295 C1299 1.400 . S
C1296 H1281 0.960 . S
C1296 H1282 0.960 . S
C1296 H1283 0.960 . S
C1296 C1295 1.524 . S
C1297 C1294 1.403 . S
C1297 C1298 1.410 . S
C1297 C1301 1.495 1_455 S
C1298 C1297 1.410 . S
C1298 C1299 1.409 . S
C1298 C1300 1.437 1_455 S
C1299 H1293 0.930 . S
C1299 C1295 1.400 . S
C1299 C1298 1.409 . S
C1300 C1298 1.437 1_655 S
C1300 C1302 1.381 . S
C1300 C1306 1.383 . S
C1301 C1297 1.495 1_655 S
C1301 H1307 0.959 1_655 S
C1301 H1308 0.961 . S
C1301 H1309 0.960 . S
C1302 C1300 1.381 . S
C1302 C1303 1.394 . S
C1302 H1310 0.930 . S
C1303 C1302 1.394 . S
C1303 C1304 1.383 . S
C1303 H1311 0.929 . S
C1304 C1303 1.383 . S
C1304 C1305 1.377 . S
C1305 H1289 0.930 . S
C1305 C1304 1.377 . S
C1305 C1306 1.379 . S
C1306 H1290 0.931 . S
C1306 C1300 1.383 . S
C1306 C1305 1.379 . S
H1307 C1301 0.959 1_455 S
H1308 C1301 0.961 . S
H1309 C1301 0.960 . S
H1310 C1302 0.930 . S
H1311 C1303 0.929 . S
H1312 C1320 0.929 . S
H1313 C1322 0.930 . S
H1314 C1324 0.930 . S
H1315 C1327 0.929 . S
H1316 C1330 0.930 . S
H1317 C1332 0.960 . S
H1318 C1332 0.960 . S
H1319 C1332 0.960 . S
C1320 H1312 0.929 . S
C1320 C1321 1.377 . S
C1320 C1322 1.384 . S
C1321 C1320 1.377 . S
C1321 C1327 1.390 . S
C1322 H1313 0.930 . S
C1322 C1320 1.384 . S
C1322 C1323 1.372 . S
C1323 C1322 1.372 . S
C1323 C1324 1.400 . S
C1323 C1328 1.490 . S
C1324 H1314 0.930 . S
C1324 C1323 1.400 . S
C1324 C1327 1.386 . S
H1325 C1341 0.930 . S
H1326 C1342 0.931 . S
C1327 H1315 0.929 . S
C1327 C1321 1.390 . S
C1327 C1324 1.386 . S
C1328 C1323 1.490 . S
C1328 C1330 1.395 . S
C1328 C1331 1.403 . S
H1329 C1335 0.930 . S
C1330 H1316 0.930 . S
C1330 C1328 1.395 . S
C1330 C1333 1.403 . S
C1331 C1328 1.403 . S
C1331 C1332 1.524 . S
C1331 C1335 1.400 . S
C1332 H1317 0.960 . S
C1332 H1318 0.960 . S
C1332 H1319 0.960 . S
C1332 C1331 1.524 . S
C1333 C1330 1.403 . S
C1333 C1334 1.392 . S
C1333 C1337 1.495 . S
C1334 C1333 1.392 . S
C1334 C1335 1.385 . S
C1334 C1336 1.478 . S
C1335 H1329 0.930 . S
C1335 C1331 1.400 . S
C1335 C1334 1.385 . S
C1336 C1334 1.478 . S
C1336 C1338 1.381 . S
C1336 C1342 1.383 . S
C1337 C1333 1.495 . S
C1337 H1343 0.959 . S
C1337 H1344 0.961 . S
C1337 H1345 0.960 . S
C1338 C1336 1.381 . S
C1338 C1339 1.394 . S
C1338 H1346 0.930 . S
C1339 C1338 1.394 . S
C1339 C1340 1.383 . S
C1339 H1347 0.929 . S
C1340 C1339 1.383 . S
C1340 C1341 1.377 . S
C1341 H1325 0.930 . S
C1341 C1340 1.377 . S
C1341 C1342 1.379 . S
C1342 H1326 0.931 . S
C1342 C1336 1.383 . S
C1342 C1341 1.379 . S
H1343 C1337 0.959 . S
H1344 C1337 0.961 . S
H1345 C1337 0.960 . S
H1346 C1338 0.930 . S
H1347 C1339 0.929 . S
H1348 C1356 0.929 . S
H1349 C1358 0.930 . S
H1350 C1360 0.930 . S
H1351 C1363 0.929 . S
H1352 C1366 0.930 . S
H1353 C1368 0.960 . S
H1354 C1368 0.960 . S
H1355 C1368 0.960 . S
C1356 H1348 0.929 . S
C1356 C1357 1.377 . S
C1356 C1358 1.384 . S
C1357 C1356 1.377 . S
C1357 C1363 1.390 . S
C1358 H1349 0.930 . S
C1358 C1356 1.384 . S
C1358 C1359 1.372 . S
C1359 C1358 1.372 . S
C1359 C1360 1.400 . S
C1359 C1364 1.490 . S
C1360 H1350 0.930 . S
C1360 C1359 1.400 . S
C1360 C1363 1.386 . S
H1361 C1377 0.930 . S
H1362 C1378 0.931 . S
C1363 H1351 0.929 . S
C1363 C1357 1.390 . S
C1363 C1360 1.386 . S
C1364 C1359 1.490 . S
C1364 C1366 1.395 . S
C1364 C1367 1.403 . S
H1365 C1371 0.930 . S
C1366 H1352 0.930 . S
C1366 C1364 1.395 . S
C1366 C1369 1.403 . S
C1367 C1364 1.403 . S
C1367 C1368 1.524 . S
C1367 C1371 1.400 . S
C1368 H1353 0.960 . S
C1368 H1354 0.960 . S
C1368 H1355 0.960 . S
C1368 C1367 1.524 . S
C1369 C1366 1.403 . S
C1369 C1370 1.422 . S
C1369 C1373 1.513 . S
C1370 C1369 1.422 . S
C1370 C1371 1.416 . S
C1370 C1372 1.420 1_655 S
C1371 H1365 0.930 . S
C1371 C1367 1.400 . S
C1371 C1370 1.416 . S
C1372 C1370 1.420 1_455 S
C1372 C1374 1.381 . S
C1372 C1378 1.383 . S
C1373 C1369 1.513 . S
C1373 H1379 0.984 . S
C1373 H1380 0.947 1_655 S
C1373 H1381 0.934 1_655 S
C1374 C1372 1.381 . S
C1374 C1375 1.394 . S
C1374 H1382 0.930 . S
C1375 C1374 1.394 . S
C1375 C1376 1.383 . S
C1375 H1383 0.929 . S
C1376 C1375 1.383 . S
C1376 C1377 1.377 . S
C1377 H1361 0.930 . S
C1377 C1376 1.377 . S
C1377 C1378 1.379 . S
C1378 H1362 0.931 . S
C1378 C1372 1.383 . S
C1378 C1377 1.379 . S
H1379 C1373 0.984 . S
H1380 C1373 0.947 1_455 S
H1381 C1373 0.934 1_455 S
H1382 C1374 0.930 . S
H1383 C1375 0.929 . S
H1384 C1392 0.929 . S
H1385 C1394 0.930 . S
H1386 C1396 0.930 . S
H1387 C1399 0.929 . S
H1388 C1402 0.930 . S
H1389 C1404 0.960 . S
H1390 C1404 0.960 . S
H1391 C1404 0.960 . S
C1392 H1384 0.929 . S
C1392 C1393 1.377 . S
C1392 C1394 1.384 . S
C1393 C1392 1.377 . S
C1393 C1399 1.390 . S
C1394 H1385 0.930 . S
C1394 C1392 1.384 . S
C1394 C1395 1.372 . S
C1395 C1394 1.372 . S
C1395 C1396 1.400 . S
C1395 C1400 1.490 . S
C1396 H1386 0.930 . S
C1396 C1395 1.400 . S
C1396 C1399 1.386 . S
H1397 C1413 0.930 . S
H1398 C1414 0.931 . S
C1399 H1387 0.929 . S
C1399 C1393 1.390 . S
C1399 C1396 1.386 . S
C1400 C1395 1.490 . S
C1400 C1402 1.395 . S
C1400 C1403 1.403 . S
H1401 C1407 0.930 . S
C1402 H1388 0.930 . S
C1402 C1400 1.395 . S
C1402 C1405 1.403 . S
C1403 C1400 1.403 . S
C1403 C1404 1.524 . S
C1403 C1407 1.400 . S
C1404 H1389 0.960 . S
C1404 H1390 0.960 . S
C1404 H1391 0.960 . S
C1404 C1403 1.524 . S
C1405 C1402 1.403 . S
C1405 C1406 1.392 . S
C1405 C1409 1.495 . S
C1406 C1405 1.392 . S
C1406 C1407 1.385 . S
C1406 C1408 1.478 . S
C1407 H1401 0.930 . S
C1407 C1403 1.400 . S
C1407 C1406 1.385 . S
C1408 C1406 1.478 . S
C1408 C1410 1.381 . S
C1408 C1414 1.383 . S
C1409 C1405 1.495 . S
C1409 H1415 0.959 . S
C1409 H1416 0.961 . S
C1409 H1417 0.960 . S
C1410 C1408 1.381 . S
C1410 C1411 1.394 . S
C1410 H1418 0.930 . S
C1411 C1410 1.394 . S
C1411 C1412 1.383 . S
C1411 H1419 0.929 . S
C1412 C1411 1.383 . S
C1412 C1413 1.377 . S
C1413 H1397 0.930 . S
C1413 C1412 1.377 . S
C1413 C1414 1.379 . S
C1414 H1398 0.931 . S
C1414 C1408 1.383 . S
C1414 C1413 1.379 . S
H1415 C1409 0.959 . S
H1416 C1409 0.961 . S
H1417 C1409 0.960 . S
H1418 C1410 0.930 . S
H1419 C1411 0.929 . S
H1420 C1428 0.929 . S
H1421 C1430 0.930 . S
H1422 C1432 0.930 . S
H1423 C1435 0.929 . S
H1424 C1438 0.930 . S
H1425 C1440 0.960 . S
H1426 C1440 0.960 . S
H1427 C1440 0.960 . S
C1428 H1420 0.929 . S
C1428 C1429 1.377 . S
C1428 C1430 1.384 . S
C1429 C1428 1.377 . S
C1429 C1435 1.390 . S
C1430 H1421 0.930 . S
C1430 C1428 1.384 . S
C1430 C1431 1.372 . S
C1431 C1430 1.372 . S
C1431 C1432 1.400 . S
C1431 C1436 1.490 . S
C1432 H1422 0.930 . S
C1432 C1431 1.400 . S
C1432 C1435 1.386 . S
H1433 C1449 0.930 . S
H1434 C1450 0.931 . S
C1435 H1423 0.929 . S
C1435 C1429 1.390 . S
C1435 C1432 1.386 . S
C1436 C1431 1.490 . S
C1436 C1438 1.395 . S
C1436 C1439 1.403 . S
H1437 C1443 0.930 . S
C1438 H1424 0.930 . S
C1438 C1436 1.395 . S
C1438 C1441 1.403 . S
C1439 C1436 1.403 . S
C1439 C1440 1.524 . S
C1439 C1443 1.400 . S
C1440 H1425 0.960 . S
C1440 H1426 0.960 . S
C1440 H1427 0.960 . S
C1440 C1439 1.524 . S
C1441 C1438 1.403 . S
C1441 C1442 1.392 . S
C1441 C1445 1.495 . S
C1442 C1441 1.392 . S
C1442 C1443 1.385 . S
C1442 C1444 1.478 . S
C1443 H1437 0.930 . S
C1443 C1439 1.400 . S
C1443 C1442 1.385 . S
C1444 C1442 1.478 . S
C1444 C1446 1.381 . S
C1444 C1450 1.383 . S
C1445 C1441 1.495 . S
C1445 H1451 0.959 . S
C1445 H1452 0.961 . S
C1445 H1453 0.960 . S
C1446 C1444 1.381 . S
C1446 C1447 1.394 . S
C1446 H1454 0.930 . S
C1447 C1446 1.394 . S
C1447 C1448 1.383 . S
C1447 H1455 0.929 . S
C1448 C1447 1.383 . S
C1448 C1449 1.377 . S
C1449 H1433 0.930 . S
C1449 C1448 1.377 . S
C1449 C1450 1.379 . S
C1450 H1434 0.931 . S
C1450 C1444 1.383 . S
C1450 C1449 1.379 . S
H1451 C1445 0.959 . S
H1452 C1445 0.961 . S
H1453 C1445 0.960 . S
H1454 C1446 0.930 . S
H1455 C1447 0.929 . S
H1456 C1464 0.929 . S
H1457 C1466 0.930 . S
H1458 C1468 0.930 . S
H1459 C1471 0.929 . S
H1460 C1474 0.930 . S
H1461 C1476 0.960 . S
H1462 C1476 0.960 . S
H1463 C1476 0.960 . S
C1464 H1456 0.929 . S
C1464 C1465 1.377 . S
C1464 C1466 1.384 . S
C1465 C1464 1.377 . S
C1465 C1471 1.390 . S
C1466 H1457 0.930 . S
C1466 C1464 1.384 . S
C1466 C1467 1.372 . S
C1467 C1466 1.372 . S
C1467 C1468 1.400 . S
C1467 C1472 1.490 . S
C1468 H1458 0.930 . S
C1468 C1467 1.400 . S
C1468 C1471 1.386 . S
H1469 C1485 0.930 . S
H1470 C1486 0.931 . S
C1471 H1459 0.929 . S
C1471 C1465 1.390 . S
C1471 C1468 1.386 . S
C1472 C1467 1.490 . S
C1472 C1474 1.395 . S
C1472 C1475 1.403 . S
H1473 C1479 0.930 . S
C1474 H1460 0.930 . S
C1474 C1472 1.395 . S
C1474 C1477 1.403 . S
C1475 C1472 1.403 . S
C1475 C1476 1.524 . S
C1475 C1479 1.400 . S
C1476 H1461 0.960 . S
C1476 H1462 0.960 . S
C1476 H1463 0.960 . S
C1476 C1475 1.524 . S
C1477 C1474 1.403 . S
C1477 C1478 1.392 . S
C1477 C1481 1.495 . S
C1478 C1477 1.392 . S
C1478 C1479 1.385 . S
C1478 C1480 1.478 . S
C1479 H1473 0.930 . S
C1479 C1475 1.400 . S
C1479 C1478 1.385 . S
C1480 C1478 1.478 . S
C1480 C1482 1.381 . S
C1480 C1486 1.383 . S
C1481 C1477 1.495 . S
C1481 H1487 0.959 . S
C1481 H1488 0.961 . S
C1481 H1489 0.960 . S
C1482 C1480 1.381 . S
C1482 C1483 1.394 . S
C1482 H1490 0.930 . S
C1483 C1482 1.394 . S
C1483 C1484 1.383 . S
C1483 H1491 0.929 . S
C1484 C1483 1.383 . S
C1484 C1485 1.377 . S
C1485 H1469 0.930 . S
C1485 C1484 1.377 . S
C1485 C1486 1.379 . S
C1486 H1470 0.931 . S
C1486 C1480 1.383 . S
C1486 C1485 1.379 . S
H1487 C1481 0.959 . S
H1488 C1481 0.961 . S
H1489 C1481 0.960 . S
H1490 C1482 0.930 . S
H1491 C1483 0.929 . S
H1492 C1500 0.929 . S
H1493 C1502 0.930 . S
H1494 C1504 0.930 . S
H1495 C1507 0.929 . S
H1496 C1510 0.930 . S
H1497 C1512 0.960 . S
H1498 C1512 0.960 . S
H1499 C1512 0.960 . S
C1500 H1492 0.929 . S
C1500 C1501 1.377 . S
C1500 C1502 1.384 . S
C1501 C1500 1.377 . S
C1501 C1507 1.390 . S
C1502 H1493 0.930 . S
C1502 C1500 1.384 . S
C1502 C1503 1.372 . S
C1503 C1502 1.372 . S
C1503 C1504 1.400 . S
C1503 C1508 1.490 . S
C1504 H1494 0.930 . S
C1504 C1503 1.400 . S
C1504 C1507 1.386 . S
H1505 C1521 0.930 . S
H1506 C1522 0.931 . S
C1507 H1495 0.929 . S
C1507 C1501 1.390 . S
C1507 C1504 1.386 . S
C1508 C1503 1.490 . S
C1508 C1510 1.395 . S
C1508 C1511 1.403 . S
H1509 C1515 0.930 . S
C1510 H1496 0.930 . S
C1510 C1508 1.395 . S
C1510 C1513 1.403 . S
C1511 C1508 1.403 . S
C1511 C1512 1.524 . S
C1511 C1515 1.400 . S
C1512 H1497 0.960 . S
C1512 H1498 0.960 . S
C1512 H1499 0.960 . S
C1512 C1511 1.524 . S
C1513 C1510 1.403 . S
C1513 C1514 1.392 . S
C1513 C1517 1.495 . S
C1514 C1513 1.392 . S
C1514 C1515 1.385 . S
C1514 C1516 1.478 . S
C1515 H1509 0.930 . S
C1515 C1511 1.400 . S
C1515 C1514 1.385 . S
C1516 C1514 1.478 . S
C1516 C1518 1.381 . S
C1516 C1522 1.383 . S
C1517 C1513 1.495 . S
C1517 H1523 0.959 . S
C1517 H1524 0.961 . S
C1517 H1525 0.960 . S
C1518 C1516 1.381 . S
C1518 C1519 1.394 . S
C1518 H1526 0.930 . S
C1519 C1518 1.394 . S
C1519 C1520 1.383 . S
C1519 H1527 0.929 . S
C1520 C1519 1.383 . S
C1520 C1521 1.377 . S
C1521 H1505 0.930 . S
C1521 C1520 1.377 . S
C1521 C1522 1.379 . S
C1522 H1506 0.931 . S
C1522 C1516 1.383 . S
C1522 C1521 1.379 . S
H1523 C1517 0.959 . S
H1524 C1517 0.961 . S
H1525 C1517 0.960 . S
H1526 C1518 0.930 . S
H1527 C1519 0.929 . S
H1528 C1536 0.929 . S
H1529 C1538 0.930 . S
H1530 C1540 0.930 . S
H1531 C1543 0.929 . S
H1532 C1546 0.930 . S
H1533 C1548 0.960 . S
H1534 C1548 0.960 . S
H1535 C1548 0.960 . S
C1536 H1528 0.929 . S
C1536 C1537 1.377 . S
C1536 C1538 1.384 . S
C1537 C1536 1.377 . S
C1537 C1543 1.390 . S
C1538 H1529 0.930 . S
C1538 C1536 1.384 . S
C1538 C1539 1.372 . S
C1539 C1538 1.372 . S
C1539 C1540 1.400 . S
C1539 C1544 1.490 . S
C1540 H1530 0.930 . S
C1540 C1539 1.400 . S
C1540 C1543 1.386 . S
H1541 C1557 0.930 . S
H1542 C1558 0.931 . S
C1543 H1531 0.929 . S
C1543 C1537 1.390 . S
C1543 C1540 1.386 . S
C1544 C1539 1.490 . S
C1544 C1546 1.395 . S
C1544 C1547 1.403 . S
H1545 C1551 0.930 . S
C1546 H1532 0.930 . S
C1546 C1544 1.395 . S
C1546 C1549 1.403 . S
C1547 C1544 1.403 . S
C1547 C1548 1.524 . S
C1547 C1551 1.400 . S
C1548 H1533 0.960 . S
C1548 H1534 0.960 . S
C1548 H1535 0.960 . S
C1548 C1547 1.524 . S
C1549 C1546 1.403 . S
C1549 C1550 1.392 . S
C1549 C1553 1.495 . S
C1550 C1549 1.392 . S
C1550 C1551 1.385 . S
C1550 C1552 1.478 . S
C1551 H1545 0.930 . S
C1551 C1547 1.400 . S
C1551 C1550 1.385 . S
C1552 C1550 1.478 . S
C1552 C1554 1.381 . S
C1552 C1558 1.383 . S
C1553 C1549 1.495 . S
C1553 H1559 0.959 . S
C1553 H1560 0.961 . S
C1553 H1561 0.960 . S
C1554 C1552 1.381 . S
C1554 C1555 1.394 . S
C1554 H1562 0.930 . S
C1555 C1554 1.394 . S
C1555 C1556 1.383 . S
C1555 H1563 0.929 . S
C1556 C1555 1.383 . S
C1556 C1557 1.377 . S
C1557 H1541 0.930 . S
C1557 C1556 1.377 . S
C1557 C1558 1.379 . S
C1558 H1542 0.931 . S
C1558 C1552 1.383 . S
C1558 C1557 1.379 . S
H1559 C1553 0.959 . S
H1560 C1553 0.961 . S
H1561 C1553 0.960 . S
H1562 C1554 0.930 . S
H1563 C1555 0.929 . S
H1564 C1572 0.929 . S
H1565 C1574 0.930 . S
H1566 C1576 0.930 . S
H1567 C1579 0.929 . S
H1568 C1582 0.930 . S
H1569 C1584 0.960 . S
H1570 C1584 0.960 . S
H1571 C1584 0.960 . S
C1572 H1564 0.929 . S
C1572 C1573 1.377 . S
C1572 C1574 1.384 . S
C1573 C1572 1.377 . S
C1573 C1579 1.390 . S
C1574 H1565 0.930 . S
C1574 C1572 1.384 . S
C1574 C1575 1.372 . S
C1575 C1574 1.372 . S
C1575 C1576 1.400 . S
C1575 C1580 1.490 . S
C1576 H1566 0.930 . S
C1576 C1575 1.400 . S
C1576 C1579 1.386 . S
H1577 C1593 0.930 . S
H1578 C1594 0.931 . S
C1579 H1567 0.929 . S
C1579 C1573 1.390 . S
C1579 C1576 1.386 . S
C1580 C1575 1.490 . S
C1580 C1582 1.395 . S
C1580 C1583 1.403 . S
H1581 C1587 0.894 1_455 S
C1582 H1568 0.930 . S
C1582 C1580 1.395 . S
C1582 C1585 1.403 . S
C1583 C1580 1.403 . S
C1583 C1584 1.524 . S
C1583 C1587 1.400 . S
C1584 H1569 0.960 . S
C1584 H1570 0.960 . S
C1584 H1571 0.960 . S
C1584 C1583 1.524 . S
C1585 C1582 1.403 . S
C1585 C1586 1.392 . S
C1585 C1589 1.495 . S
C1586 C1585 1.392 . S
C1586 C1587 1.385 . S
C1586 C1588 1.478 1_655 S
C1587 H1581 0.894 1_655 S
C1587 C1583 1.400 . S
C1587 C1586 1.385 . S
C1588 C1586 1.478 1_455 S
C1588 C1590 1.381 . S
C1588 C1594 1.383 . S
C1589 C1585 1.495 . S
C1589 H1595 0.959 . S
C1589 H1596 0.961 . S
C1589 H1597 0.976 . S
C1590 C1588 1.381 . S
C1590 C1591 1.394 . S
C1590 H1598 0.930 . S
C1591 C1590 1.394 . S
C1591 C1592 1.383 . S
C1591 H1599 0.929 . S
C1592 C1591 1.383 . S
C1592 C1593 1.377 . S
C1593 H1577 0.930 . S
C1593 C1592 1.377 . S
C1593 C1594 1.379 . S
C1594 H1578 0.931 . S
C1594 C1588 1.383 . S
C1594 C1593 1.379 . S
H1595 C1589 0.959 . S
H1596 C1589 0.961 . S
H1597 C1589 0.976 . S
H1598 C1590 0.930 . S
H1599 C1591 0.929 . S
H1600 C1608 0.929 . S
H1601 C1610 0.930 . S
H1602 C1612 0.930 . S
H1603 C1615 0.929 . S
H1604 C1618 0.930 . S
H1605 C1620 0.960 . S
H1606 C1620 0.960 . S
H1607 C1620 0.960 . S
C1608 H1600 0.929 . S
C1608 C1609 1.377 . S
C1608 C1610 1.384 . S
C1609 C1608 1.377 . S
C1609 C1615 1.390 . S
C1610 H1601 0.930 . S
C1610 C1608 1.384 . S
C1610 C1611 1.372 . S
C1611 C1610 1.372 . S
C1611 C1612 1.400 . S
C1611 C1616 1.490 . S
C1612 H1602 0.930 . S
C1612 C1611 1.400 . S
C1612 C1615 1.386 . S
H1613 C1629 0.930 . S
H1614 C1630 0.931 . S
C1615 H1603 0.929 . S
C1615 C1609 1.390 . S
C1615 C1612 1.386 . S
C1616 C1611 1.490 . S
C1616 C1618 1.395 . S
C1616 C1619 1.403 . S
H1617 C1623 0.930 . S
C1618 H1604 0.930 . S
C1618 C1616 1.395 . S
C1618 C1621 1.403 . S
C1619 C1616 1.403 . S
C1619 C1620 1.524 . S
C1619 C1623 1.400 . S
C1620 H1605 0.960 . S
C1620 H1606 0.960 . S
C1620 H1607 0.960 . S
C1620 C1619 1.524 . S
C1621 C1618 1.403 . S
C1621 C1622 1.392 . S
C1621 C1625 1.495 . S
C1622 C1621 1.392 . S
C1622 C1623 1.385 . S
C1622 C1624 1.478 . S
C1623 H1617 0.930 . S
C1623 C1619 1.400 . S
C1623 C1622 1.385 . S
C1624 C1622 1.478 . S
C1624 C1626 1.381 . S
C1624 C1630 1.383 . S
C1625 C1621 1.495 . S
C1625 H1631 0.959 . S
C1625 H1632 0.961 . S
C1625 H1633 0.960 . S
C1626 C1624 1.381 . S
C1626 C1627 1.394 . S
C1626 H1634 0.930 . S
C1627 C1626 1.394 . S
C1627 C1628 1.383 . S
C1627 H1635 0.929 . S
C1628 C1627 1.383 . S
C1628 C1629 1.377 . S
C1629 H1613 0.930 . S
C1629 C1628 1.377 . S
C1629 C1630 1.379 . S
C1630 H1614 0.931 . S
C1630 C1624 1.383 . S
C1630 C1629 1.379 . S
H1631 C1625 0.959 . S
H1632 C1625 0.961 . S
H1633 C1625 0.960 . S
H1634 C1626 0.930 . S
H1635 C1627 0.929 . S
H1636 C1644 0.929 . S
H1637 C1646 0.930 . S
H1638 C1648 0.930 . S
H1639 C1651 0.929 . S
H1640 C1654 0.930 . S
H1641 C1656 0.960 . S
H1642 C1656 0.960 . S
H1643 C1656 0.960 . S
C1644 H1636 0.929 . S
C1644 C1645 1.377 . S
C1644 C1646 1.384 . S
C1645 C1644 1.377 . S
C1645 C1651 1.390 . S
C1646 H1637 0.930 . S
C1646 C1644 1.384 . S
C1646 C1647 1.372 . S
C1647 C1646 1.372 . S
C1647 C1648 1.400 . S
C1647 C1652 1.490 . S
C1648 H1638 0.930 . S
C1648 C1647 1.400 . S
C1648 C1651 1.386 . S
H1649 C1665 0.930 . S
H1650 C1666 0.931 . S
C1651 H1639 0.929 . S
C1651 C1645 1.390 . S
C1651 C1648 1.386 . S
C1652 C1647 1.490 . S
C1652 C1654 1.395 . S
C1652 C1655 1.403 . S
H1653 C1659 0.930 . S
C1654 H1640 0.930 . S
C1654 C1652 1.395 . S
C1654 C1657 1.403 . S
C1655 C1652 1.403 . S
C1655 C1656 1.524 . S
C1655 C1659 1.400 . S
C1656 H1641 0.960 . S
C1656 H1642 0.960 . S
C1656 H1643 0.960 . S
C1656 C1655 1.524 . S
C1657 C1654 1.403 . S
C1657 C1658 1.392 . S
C1657 C1661 1.495 . S
C1658 C1657 1.392 . S
C1658 C1659 1.385 . S
C1658 C1660 1.478 . S
C1659 H1653 0.930 . S
C1659 C1655 1.400 . S
C1659 C1658 1.385 . S
C1660 C1658 1.478 . S
C1660 C1662 1.381 . S
C1660 C1666 1.383 . S
C1661 C1657 1.495 . S
C1661 H1667 0.959 . S
C1661 H1668 0.961 . S
C1661 H1669 0.960 . S
C1662 C1660 1.381 . S
C1662 C1663 1.394 . S
C1662 H1670 0.930 . S
C1663 C1662 1.394 . S
C1663 C1664 1.383 . S
C1663 H1671 0.929 . S
C1664 C1663 1.383 . S
C1664 C1665 1.377 . S
C1665 H1649 0.930 . S
C1665 C1664 1.377 . S
C1665 C1666 1.379 . S
C1666 H1650 0.931 . S
C1666 C1660 1.383 . S
C1666 C1665 1.379 . S
H1667 C1661 0.959 . S
H1668 C1661 0.961 . S
H1669 C1661 0.960 . S
H1670 C1662 0.930 . S
H1671 C1663 0.929 . S
H1672 C1680 0.929 . S
H1673 C1682 0.930 . S
H1674 C1684 0.930 . S
H1675 C1687 0.929 . S
H1676 C1690 0.930 . S
H1677 C1692 0.960 . S
H1678 C1692 0.960 . S
H1679 C1692 0.960 . S
C1680 H1672 0.929 . S
C1680 C1681 1.377 . S
C1680 C1682 1.384 . S
C1681 C1680 1.377 . S
C1681 C1687 1.390 . S
C1682 H1673 0.930 . S
C1682 C1680 1.384 . S
C1682 C1683 1.372 . S
C1683 C1682 1.372 . S
C1683 C1684 1.400 . S
C1683 C1688 1.490 . S
C1684 H1674 0.930 . S
C1684 C1683 1.400 . S
C1684 C1687 1.386 . S
H1685 C1701 0.930 . S
H1686 C1702 0.931 . S
C1687 H1675 0.929 . S
C1687 C1681 1.390 . S
C1687 C1684 1.386 . S
C1688 C1683 1.490 . S
C1688 C1690 1.395 . S
C1688 C1691 1.403 . S
H1689 C1695 0.930 . S
C1690 H1676 0.930 . S
C1690 C1688 1.395 . S
C1690 C1693 1.403 . S
C1691 C1688 1.403 . S
C1691 C1692 1.524 . S
C1691 C1695 1.400 . S
C1692 H1677 0.960 . S
C1692 H1678 0.960 . S
C1692 H1679 0.960 . S
C1692 C1691 1.524 . S
C1693 C1690 1.403 . S
C1693 C1694 1.392 . S
C1693 C1697 1.495 . S
C1694 C1693 1.392 . S
C1694 C1695 1.385 . S
C1694 C1696 1.478 . S
C1695 H1689 0.930 . S
C1695 C1691 1.400 . S
C1695 C1694 1.385 . S
C1696 C1694 1.478 . S
C1696 C1698 1.381 . S
C1696 C1702 1.383 . S
C1697 C1693 1.495 . S
C1697 H1703 0.959 . S
C1697 H1704 0.961 . S
C1697 H1705 0.960 . S
C1698 C1696 1.381 . S
C1698 C1699 1.394 . S
C1698 H1706 0.930 . S
C1699 C1698 1.394 . S
C1699 C1700 1.383 . S
C1699 H1707 0.929 . S
C1700 C1699 1.383 . S
C1700 C1701 1.377 . S
C1701 H1685 0.930 . S
C1701 C1700 1.377 . S
C1701 C1702 1.379 . S
C1702 H1686 0.931 . S
C1702 C1696 1.383 . S
C1702 C1701 1.379 . S
H1703 C1697 0.959 . S
H1704 C1697 0.961 . S
H1705 C1697 0.960 . S
H1706 C1698 0.930 . S
H1707 C1699 0.929 . S
H1708 C1716 0.929 . S
H1709 C1718 0.930 . S
H1710 C1720 0.930 . S
H1711 C1723 0.929 . S
H1712 C1726 0.930 . S
H1713 C1728 0.960 . S
H1714 C1728 0.960 . S
H1715 C1728 0.960 . S
C1716 H1708 0.929 . S
C1716 C1717 1.377 . S
C1716 C1718 1.384 . S
C1717 C1716 1.377 . S
C1717 C1723 1.390 . S
C1718 H1709 0.930 . S
C1718 C1716 1.384 . S
C1718 C1719 1.372 . S
C1719 C1718 1.372 . S
C1719 C1720 1.400 . S
C1719 C1724 1.490 . S
C1720 H1710 0.930 . S
C1720 C1719 1.400 . S
C1720 C1723 1.386 . S
H1721 C1737 0.930 . S
H1722 C1738 0.931 . S
C1723 H1711 0.929 . S
C1723 C1717 1.390 . S
C1723 C1720 1.386 . S
C1724 C1719 1.490 . S
C1724 C1726 1.395 . S
C1724 C1727 1.403 . S
H1725 C1731 0.930 . S
C1726 H1712 0.930 . S
C1726 C1724 1.395 . S
C1726 C1729 1.403 . S
C1727 C1724 1.403 . S
C1727 C1728 1.524 . S
C1727 C1731 1.400 . S
C1728 H1713 0.960 . S
C1728 H1714 0.960 . S
C1728 H1715 0.960 . S
C1728 C1727 1.524 . S
C1729 C1726 1.403 . S
C1729 C1730 1.411 . S
C1729 C1733 1.495 1_655 S
C1730 C1729 1.411 . S
C1730 C1731 1.410 . S
C1730 C1732 1.436 1_655 S
C1731 H1725 0.930 . S
C1731 C1727 1.400 . S
C1731 C1730 1.410 . S
C1732 C1730 1.436 1_455 S
C1732 C1734 1.381 . S
C1732 C1738 1.383 . S
C1733 C1729 1.495 1_455 S
C1733 H1739 0.959 1_455 S
C1733 H1740 0.961 . S
C1733 H1741 0.960 . S
C1734 C1732 1.381 . S
C1734 C1735 1.394 . S
C1734 H1742 0.930 . S
C1735 C1734 1.394 . S
C1735 C1736 1.383 . S
C1735 H1743 0.929 . S
C1736 C1735 1.383 . S
C1736 C1737 1.377 . S
C1737 H1721 0.930 . S
C1737 C1736 1.377 . S
C1737 C1738 1.379 . S
C1738 H1722 0.931 . S
C1738 C1732 1.383 . S
C1738 C1737 1.379 . S
H1739 C1733 0.959 1_655 S
H1740 C1733 0.961 . S
H1741 C1733 0.960 . S
H1742 C1734 0.930 . S
H1743 C1735 0.929 . S
H1744 C1752 0.929 . S
H1745 C1754 0.930 . S
H1746 C1756 0.930 . S
H1747 C1759 0.929 . S
H1748 C1762 0.930 . S
H1749 C1764 0.960 . S
H1750 C1764 0.960 . S
H1751 C1764 0.960 . S
C1752 H1744 0.929 . S
C1752 C1753 1.377 . S
C1752 C1754 1.384 . S
C1753 C1752 1.377 . S
C1753 C1759 1.390 . S
C1754 H1745 0.930 . S
C1754 C1752 1.384 . S
C1754 C1755 1.372 . S
C1755 C1754 1.372 . S
C1755 C1756 1.400 . S
C1755 C1760 1.490 . S
C1756 H1746 0.930 . S
C1756 C1755 1.400 . S
C1756 C1759 1.386 . S
H1757 C1773 0.930 . S
H1758 C1774 0.931 . S
C1759 H1747 0.929 . S
C1759 C1753 1.390 . S
C1759 C1756 1.386 . S
C1760 C1755 1.490 . S
C1760 C1762 1.395 . S
C1760 C1763 1.403 . S
H1761 C1767 0.930 . S
C1762 H1748 0.930 . S
C1762 C1760 1.395 . S
C1762 C1765 1.403 . S
C1763 C1760 1.403 . S
C1763 C1764 1.524 . S
C1763 C1767 1.400 . S
C1764 H1749 0.960 . S
C1764 H1750 0.960 . S
C1764 H1751 0.960 . S
C1764 C1763 1.524 . S
C1765 C1762 1.403 . S
C1765 C1766 1.392 . S
C1765 C1769 1.495 . S
C1766 C1765 1.392 . S
C1766 C1767 1.385 . S
C1766 C1768 1.478 . S
C1767 H1761 0.930 . S
C1767 C1763 1.400 . S
C1767 C1766 1.385 . S
C1768 C1766 1.478 . S
C1768 C1770 1.381 . S
C1768 C1774 1.383 . S
C1769 C1765 1.495 . S
C1769 H1775 0.959 . S
C1769 H1776 0.961 . S
C1769 H1777 0.960 . S
C1770 C1768 1.381 . S
C1770 C1771 1.394 . S
C1770 H1778 0.930 . S
C1771 C1770 1.394 . S
C1771 C1772 1.383 . S
C1771 H1779 0.929 . S
C1772 C1771 1.383 . S
C1772 C1773 1.377 . S
C1773 H1757 0.930 . S
C1773 C1772 1.377 . S
C1773 C1774 1.379 . S
C1774 H1758 0.931 . S
C1774 C1768 1.383 . S
C1774 C1773 1.379 . S
H1775 C1769 0.959 . S
H1776 C1769 0.961 . S
H1777 C1769 0.960 . S
H1778 C1770 0.930 . S
H1779 C1771 0.929 . S
H1780 C1788 0.929 . S
H1781 C1790 0.930 . S
H1782 C1792 0.930 . S
H1783 C1795 0.929 . S
H1784 C1798 0.930 1_455 S
H1785 C1800 0.960 . S
H1786 C1800 0.960 . S
H1787 C1800 0.960 . S
C1788 H1780 0.929 . S
C1788 C1789 1.377 . S
C1788 C1790 1.384 . S
C1789 C1788 1.377 . S
C1789 C1795 1.390 . S
C1790 H1781 0.930 . S
C1790 C1788 1.384 . S
C1790 C1791 1.372 . S
C1791 C1790 1.372 . S
C1791 C1792 1.400 . S
C1791 C1796 1.490 1_455 S
C1792 H1782 0.930 . S
C1792 C1791 1.400 . S
C1792 C1795 1.386 . S
H1793 C1809 0.930 . S
H1794 C1810 0.931 . S
C1795 H1783 0.929 . S
C1795 C1789 1.390 . S
C1795 C1792 1.386 . S
C1796 C1791 1.490 1_655 S
C1796 C1798 1.395 . S
C1796 C1799 1.403 . S
H1797 C1803 0.930 . S
C1798 H1784 0.930 1_655 S
C1798 C1796 1.395 . S
C1798 C1801 1.403 . S
C1799 C1796 1.403 . S
C1799 C1800 1.524 . S
C1799 C1803 1.400 . S
C1800 H1785 0.960 . S
C1800 H1786 0.960 . S
C1800 H1787 0.960 . S
C1800 C1799 1.524 . S
C1801 C1798 1.403 . S
C1801 C1802 1.392 . S
C1801 C1805 1.495 . S
C1802 C1801 1.392 . S
C1802 C1803 1.385 . S
C1802 C1804 1.478 . S
C1803 H1797 0.930 . S
C1803 C1799 1.400 . S
C1803 C1802 1.385 . S
C1804 C1802 1.478 . S
C1804 C1806 1.381 . S
C1804 C1810 1.383 . S
C1805 C1801 1.495 . S
C1805 H1811 0.959 . S
C1805 H1812 0.961 . S
C1805 H1813 0.960 . S
C1806 C1804 1.381 . S
C1806 C1807 1.394 . S
C1806 H1814 0.930 . S
C1807 C1806 1.394 . S
C1807 C1808 1.383 . S
C1807 H1815 0.929 . S
C1808 C1807 1.383 . S
C1808 C1809 1.377 . S
C1809 H1793 0.930 . S
C1809 C1808 1.377 . S
C1809 C1810 1.379 . S
C1810 H1794 0.931 . S
C1810 C1804 1.383 . S
C1810 C1809 1.379 . S
H1811 C1805 0.959 . S
H1812 C1805 0.961 . S
H1813 C1805 0.960 . S
H1814 C1806 0.930 . S
H1815 C1807 0.929 . S
H1816 C1824 0.929 . S
H1817 C1826 0.930 . S
H1818 C1828 0.930 . S
H1819 C1831 0.929 . S
H1820 C1834 0.930 . S
H1821 C1836 0.960 . S
H1822 C1836 0.960 . S
H1823 C1836 0.960 . S
C1824 H1816 0.929 . S
C1824 C1825 1.377 . S
C1824 C1826 1.384 . S
C1825 C1824 1.377 . S
C1825 C1831 1.390 . S
C1826 H1817 0.930 . S
C1826 C1824 1.384 . S
C1826 C1827 1.372 . S
C1827 C1826 1.372 . S
C1827 C1828 1.400 . S
C1827 C1832 1.490 . S
C1828 H1818 0.930 . S
C1828 C1827 1.400 . S
C1828 C1831 1.386 . S
H1829 C1845 0.930 . S
H1830 C1846 0.931 . S
C1831 H1819 0.929 . S
C1831 C1825 1.390 . S
C1831 C1828 1.386 . S
C1832 C1827 1.490 . S
C1832 C1834 1.395 . S
C1832 C1835 1.403 . S
H1833 C1839 0.930 . S
C1834 H1820 0.930 . S
C1834 C1832 1.395 . S
C1834 C1837 1.403 . S
C1835 C1832 1.403 . S
C1835 C1836 1.524 . S
C1835 C1839 1.400 . S
C1836 H1821 0.960 . S
C1836 H1822 0.960 . S
C1836 H1823 0.960 . S
C1836 C1835 1.524 . S
C1837 C1834 1.403 . S
C1837 C1838 1.392 . S
C1837 C1841 1.495 . S
C1838 C1837 1.392 . S
C1838 C1839 1.385 . S
C1838 C1840 1.478 . S
C1839 H1833 0.930 . S
C1839 C1835 1.400 . S
C1839 C1838 1.385 . S
C1840 C1838 1.478 . S
C1840 C1842 1.381 . S
C1840 C1846 1.383 . S
C1841 C1837 1.495 . S
C1841 H1847 0.959 . S
C1841 H1848 0.961 . S
C1841 H1849 0.960 . S
C1842 C1840 1.381 . S
C1842 C1843 1.394 . S
C1842 H1850 0.930 . S
C1843 C1842 1.394 . S
C1843 C1844 1.383 . S
C1843 H1851 0.929 . S
C1844 C1843 1.383 . S
C1844 C1845 1.377 . S
C1845 H1829 0.930 . S
C1845 C1844 1.377 . S
C1845 C1846 1.379 . S
C1846 H1830 0.931 . S
C1846 C1840 1.383 . S
C1846 C1845 1.379 . S
H1847 C1841 0.959 . S
H1848 C1841 0.961 . S
H1849 C1841 0.960 . S
H1850 C1842 0.930 . S
H1851 C1843 0.929 . S
H1852 C1860 0.929 . S
H1853 C1862 0.930 . S
H1854 C1864 0.930 . S
H1855 C1867 0.929 . S
H1856 C1870 0.930 . S
H1857 C1872 0.960 . S
H1858 C1872 0.960 . S
H1859 C1872 0.960 . S
C1860 H1852 0.929 . S
C1860 C1861 1.377 . S
C1860 C1862 1.384 . S
C1861 C1860 1.377 . S
C1861 C1867 1.390 . S
C1862 H1853 0.930 . S
C1862 C1860 1.384 . S
C1862 C1863 1.372 . S
C1863 C1862 1.372 . S
C1863 C1864 1.400 . S
C1863 C1868 1.490 . S
C1864 H1854 0.930 . S
C1864 C1863 1.400 . S
C1864 C1867 1.386 . S
H1865 C1881 0.930 . S
H1866 C1882 0.931 . S
C1867 H1855 0.929 . S
C1867 C1861 1.390 . S
C1867 C1864 1.386 . S
C1868 C1863 1.490 . S
C1868 C1870 1.395 . S
C1868 C1871 1.403 . S
H1869 C1875 0.930 . S
C1870 H1856 0.930 . S
C1870 C1868 1.395 . S
C1870 C1873 1.403 . S
C1871 C1868 1.403 . S
C1871 C1872 1.524 . S
C1871 C1875 1.400 . S
C1872 H1857 0.960 . S
C1872 H1858 0.960 . S
C1872 H1859 0.960 . S
C1872 C1871 1.524 . S
C1873 C1870 1.403 . S
C1873 C1874 1.392 . S
C1873 C1877 1.495 . S
C1874 C1873 1.392 . S
C1874 C1875 1.385 . S
C1874 C1876 1.478 . S
C1875 H1869 0.930 . S
C1875 C1871 1.400 . S
C1875 C1874 1.385 . S
C1876 C1874 1.478 . S
C1876 C1878 1.381 . S
C1876 C1882 1.383 . S
C1877 C1873 1.495 . S
C1877 H1883 0.959 . S
C1877 H1884 0.961 . S
C1877 H1885 0.960 . S
C1878 C1876 1.381 . S
C1878 C1879 1.394 . S
C1878 H1886 0.930 . S
C1879 C1878 1.394 . S
C1879 C1880 1.383 . S
C1879 H1887 0.929 . S
C1880 C1879 1.383 . S
C1880 C1881 1.377 . S
C1881 H1865 0.930 . S
C1881 C1880 1.377 . S
C1881 C1882 1.379 . S
C1882 H1866 0.931 . S
C1882 C1876 1.383 . S
C1882 C1881 1.379 . S
H1883 C1877 0.959 . S
H1884 C1877 0.961 . S
H1885 C1877 0.960 . S
H1886 C1878 0.930 . S
H1887 C1879 0.929 . S
H1888 C1896 0.929 . S
H1889 C1898 0.930 . S
H1890 C1900 0.930 . S
H1891 C1903 0.929 . S
H1892 C1906 0.930 . S
H1893 C1908 0.960 . S
H1894 C1908 0.960 . S
H1895 C1908 0.960 . S
C1896 H1888 0.929 . S
C1896 C1897 1.377 . S
C1896 C1898 1.384 . S
C1897 C1896 1.377 . S
C1897 C1903 1.390 . S
C1898 H1889 0.930 . S
C1898 C1896 1.384 . S
C1898 C1899 1.372 . S
C1899 C1898 1.372 . S
C1899 C1900 1.400 . S
C1899 C1904 1.490 . S
C1900 H1890 0.930 . S
C1900 C1899 1.400 . S
C1900 C1903 1.386 . S
H1901 C1917 0.930 . S
H1902 C1918 0.931 . S
C1903 H1891 0.929 . S
C1903 C1897 1.390 . S
C1903 C1900 1.386 . S
C1904 C1899 1.490 . S
C1904 C1906 1.395 . S
C1904 C1907 1.403 . S
H1905 C1911 0.930 . S
C1906 H1892 0.930 . S
C1906 C1904 1.395 . S
C1906 C1909 1.403 . S
C1907 C1904 1.403 . S
C1907 C1908 1.524 . S
C1907 C1911 1.400 . S
C1908 H1893 0.960 . S
C1908 H1894 0.960 . S
C1908 H1895 0.960 . S
C1908 C1907 1.524 . S
C1909 C1906 1.403 . S
C1909 C1910 1.392 . S
C1909 C1913 1.495 . S
C1910 C1909 1.392 . S
C1910 C1911 1.385 . S
C1910 C1912 1.478 . S
C1911 H1905 0.930 . S
C1911 C1907 1.400 . S
C1911 C1910 1.385 . S
C1912 C1910 1.478 . S
C1912 C1914 1.381 . S
C1912 C1918 1.383 . S
C1913 C1909 1.495 . S
C1913 H1919 0.959 . S
C1913 H1920 0.961 . S
C1913 H1921 0.960 . S
C1914 C1912 1.381 . S
C1914 C1915 1.394 . S
C1914 H1922 0.930 . S
C1915 C1914 1.394 . S
C1915 C1916 1.383 . S
C1915 H1923 0.929 . S
C1916 C1915 1.383 . S
C1916 C1917 1.377 . S
C1917 H1901 0.930 . S
C1917 C1916 1.377 . S
C1917 C1918 1.379 . S
C1918 H1902 0.931 . S
C1918 C1912 1.383 . S
C1918 C1917 1.379 . S
H1919 C1913 0.959 . S
H1920 C1913 0.961 . S
H1921 C1913 0.960 . S
H1922 C1914 0.930 . S
H1923 C1915 0.929 . S
H1924 C1932 0.929 . S
H1925 C1934 0.930 . S
H1926 C1936 0.930 . S
H1927 C1939 0.929 . S
H1928 C1942 0.930 . S
H1929 C1944 0.960 . S
H1930 C1944 0.960 . S
H1931 C1944 0.960 . S
C1932 H1924 0.929 . S
C1932 C1933 1.377 . S
C1932 C1934 1.384 . S
C1933 C1932 1.377 . S
C1933 C1939 1.390 . S
C1934 H1925 0.930 . S
C1934 C1932 1.384 . S
C1934 C1935 1.372 . S
C1935 C1934 1.372 . S
C1935 C1936 1.400 . S
C1935 C1940 1.490 . S
C1936 H1926 0.930 . S
C1936 C1935 1.400 . S
C1936 C1939 1.386 . S
H1937 C1953 0.930 . S
H1938 C1954 0.931 . S
C1939 H1927 0.929 . S
C1939 C1933 1.390 . S
C1939 C1936 1.386 . S
C1940 C1935 1.490 . S
C1940 C1942 1.395 . S
C1940 C1943 1.403 . S
H1941 C1947 0.930 . S
C1942 H1928 0.930 . S
C1942 C1940 1.395 . S
C1942 C1945 1.403 . S
C1943 C1940 1.403 . S
C1943 C1944 1.524 . S
C1943 C1947 1.400 . S
C1944 H1929 0.960 . S
C1944 H1930 0.960 . S
C1944 H1931 0.960 . S
C1944 C1943 1.524 . S
C1945 C1942 1.403 . S
C1945 C1946 1.392 . S
C1945 C1949 1.495 . S
C1946 C1945 1.392 . S
C1946 C1947 1.385 . S
C1946 C1948 1.478 . S
C1947 H1941 0.930 . S
C1947 C1943 1.400 . S
C1947 C1946 1.385 . S
C1948 C1946 1.478 . S
C1948 C1950 1.381 . S
C1948 C1954 1.383 . S
C1949 C1945 1.495 . S
C1949 H1955 0.959 . S
C1949 H1956 0.961 . S
C1949 H1957 0.960 . S
C1950 C1948 1.381 . S
C1950 C1951 1.394 . S
C1950 H1958 0.930 . S
C1951 C1950 1.394 . S
C1951 C1952 1.383 . S
C1951 H1959 0.929 . S
C1952 C1951 1.383 . S
C1952 C1953 1.377 . S
C1953 H1937 0.930 . S
C1953 C1952 1.377 . S
C1953 C1954 1.379 . S
C1954 H1938 0.931 . S
C1954 C1948 1.383 . S
C1954 C1953 1.379 . S
H1955 C1949 0.959 . S
H1956 C1949 0.961 . S
H1957 C1949 0.960 . S
H1958 C1950 0.930 . S
H1959 C1951 0.929 . S
H1960 C1968 0.929 . S
H1961 C1970 0.930 . S
H1962 C1972 0.930 . S
H1963 C1975 0.929 . S
H1964 C1978 0.930 . S
H1965 C1980 0.960 . S
H1966 C1980 0.960 . S
H1967 C1980 0.960 . S
C1968 H1960 0.929 . S
C1968 C1969 1.377 . S
C1968 C1970 1.384 . S
C1969 C1968 1.377 . S
C1969 C1975 1.390 . S
C1970 H1961 0.930 . S
C1970 C1968 1.384 . S
C1970 C1971 1.372 . S
C1971 C1970 1.372 . S
C1971 C1972 1.400 . S
C1971 C1976 1.490 . S
C1972 H1962 0.930 . S
C1972 C1971 1.400 . S
C1972 C1975 1.386 . S
H1973 C1989 0.930 . S
H1974 C1990 0.931 . S
C1975 H1963 0.929 . S
C1975 C1969 1.390 . S
C1975 C1972 1.386 . S
C1976 C1971 1.490 . S
C1976 C1978 1.395 . S
C1976 C1979 1.403 . S
H1977 C1983 0.930 . S
C1978 H1964 0.930 . S
C1978 C1976 1.395 . S
C1978 C1981 1.403 . S
C1979 C1976 1.403 . S
C1979 C1980 1.524 . S
C1979 C1983 1.400 . S
C1980 H1965 0.960 . S
C1980 H1966 0.960 . S
C1980 H1967 0.960 . S
C1980 C1979 1.524 . S
C1981 C1978 1.403 . S
C1981 C1982 1.392 . S
C1981 C1985 1.495 . S
C1982 C1981 1.392 . S
C1982 C1983 1.385 . S
C1982 C1984 1.478 . S
C1983 H1977 0.930 . S
C1983 C1979 1.400 . S
C1983 C1982 1.385 . S
C1984 C1982 1.478 . S
C1984 C1986 1.381 . S
C1984 C1990 1.383 . S
C1985 C1981 1.495 . S
C1985 H1991 0.959 . S
C1985 H1992 0.961 . S
C1985 H1993 0.960 . S
C1986 C1984 1.381 . S
C1986 C1987 1.394 . S
C1986 H1994 0.930 . S
C1987 C1986 1.394 . S
C1987 C1988 1.383 . S
C1987 H1995 0.929 . S
C1988 C1987 1.383 . S
C1988 C1989 1.377 . S
C1989 H1973 0.930 . S
C1989 C1988 1.377 . S
C1989 C1990 1.379 . S
C1990 H1974 0.931 . S
C1990 C1984 1.383 . S
C1990 C1989 1.379 . S
H1991 C1985 0.959 . S
H1992 C1985 0.961 . S
H1993 C1985 0.960 . S
H1994 C1986 0.930 . S
H1995 C1987 0.929 . S
H1996 C2004 0.929 . S
H1997 C2006 0.930 . S
H1998 C2008 0.930 . S
H1999 C2011 0.929 . S
H2000 C2014 0.930 . S
H2001 C2016 0.960 . S
H2002 C2016 0.960 . S
H2003 C2016 0.960 . S
C2004 H1996 0.929 . S
C2004 C2005 1.377 . S
C2004 C2006 1.384 . S
C2005 C2004 1.377 . S
C2005 C2011 1.390 . S
C2006 H1997 0.930 . S
C2006 C2004 1.384 . S
C2006 C2007 1.372 . S
C2007 C2006 1.372 . S
C2007 C2008 1.400 . S
C2007 C2012 1.490 . S
C2008 H1998 0.930 . S
C2008 C2007 1.400 . S
C2008 C2011 1.386 . S
H2009 C2025 0.930 . S
H2010 C2026 0.931 . S
C2011 H1999 0.929 . S
C2011 C2005 1.390 . S
C2011 C2008 1.386 . S
C2012 C2007 1.490 . S
C2012 C2014 1.395 . S
C2012 C2015 1.403 . S
H2013 C2019 0.930 . S
C2014 H2000 0.930 . S
C2014 C2012 1.395 . S
C2014 C2017 1.403 . S
C2015 C2012 1.403 . S
C2015 C2016 1.524 . S
C2015 C2019 1.400 . S
C2016 H2001 0.960 . S
C2016 H2002 0.960 . S
C2016 H2003 0.960 . S
C2016 C2015 1.524 . S
C2017 C2014 1.403 . S
C2017 C2018 1.407 . S
C2017 C2021 1.495 1_455 S
C2018 C2017 1.407 . S
C2018 C2019 1.407 . S
C2018 C2020 1.443 1_455 S
C2019 H2013 0.930 . S
C2019 C2015 1.400 . S
C2019 C2018 1.407 . S
C2020 C2018 1.443 1_655 S
C2020 C2022 1.381 . S
C2020 C2026 1.383 . S
C2021 C2017 1.495 1_655 S
C2021 H2027 0.959 1_655 S
C2021 H2028 0.961 . S
C2021 H2029 0.960 . S
C2022 C2020 1.381 . S
C2022 C2023 1.394 . S
C2022 H2030 0.930 . S
C2023 C2022 1.394 . S
C2023 C2024 1.383 . S
C2023 H2031 0.929 . S
C2024 C2023 1.383 . S
C2024 C2025 1.377 . S
C2025 H2009 0.930 . S
C2025 C2024 1.377 . S
C2025 C2026 1.379 . S
C2026 H2010 0.931 . S
C2026 C2020 1.383 . S
C2026 C2025 1.379 . S
H2027 C2021 0.959 1_455 S
H2028 C2021 0.961 . S
H2029 C2021 0.960 . S
H2030 C2022 0.930 . S
H2031 C2023 0.929 . S
H2032 C2040 0.929 . S
H2033 C2042 0.930 . S
H2034 C2044 0.930 . S
H2035 C2047 0.929 . S
H2036 C2050 0.930 . S
H2037 C2052 0.960 . S
H2038 C2052 0.960 . S
H2039 C2052 0.960 . S
C2040 H2032 0.929 . S
C2040 C2041 1.377 . S
C2040 C2042 1.384 . S
C2041 C2040 1.377 . S
C2041 C2047 1.390 . S
C2042 H2033 0.930 . S
C2042 C2040 1.384 . S
C2042 C2043 1.372 . S
C2043 C2042 1.372 . S
C2043 C2044 1.400 . S
C2043 C2048 1.490 . S
C2044 H2034 0.930 . S
C2044 C2043 1.400 . S
C2044 C2047 1.386 . S
H2045 C2061 0.930 . S
H2046 C2062 0.931 . S
C2047 H2035 0.929 . S
C2047 C2041 1.390 . S
C2047 C2044 1.386 . S
C2048 C2043 1.490 . S
C2048 C2050 1.395 . S
C2048 C2051 1.403 . S
H2049 C2055 0.930 . S
C2050 H2036 0.930 . S
C2050 C2048 1.395 . S
C2050 C2053 1.403 . S
C2051 C2048 1.403 . S
C2051 C2052 1.524 . S
C2051 C2055 1.400 . S
C2052 H2037 0.960 . S
C2052 H2038 0.960 . S
C2052 H2039 0.960 . S
C2052 C2051 1.524 . S
C2053 C2050 1.403 . S
C2053 C2054 1.392 . S
C2053 C2057 1.495 . S
C2054 C2053 1.392 . S
C2054 C2055 1.385 . S
C2054 C2056 1.478 . S
C2055 H2049 0.930 . S
C2055 C2051 1.400 . S
C2055 C2054 1.385 . S
C2056 C2054 1.478 . S
C2056 C2058 1.381 . S
C2056 C2062 1.383 . S
C2057 C2053 1.495 . S
C2057 H2063 0.959 . S
C2057 H2064 0.961 . S
C2057 H2065 0.960 . S
C2058 C2056 1.381 . S
C2058 C2059 1.394 . S
C2058 H2066 0.930 . S
C2059 C2058 1.394 . S
C2059 C2060 1.383 . S
C2059 H2067 0.929 . S
C2060 C2059 1.383 . S
C2060 C2061 1.377 . S
C2061 H2045 0.930 . S
C2061 C2060 1.377 . S
C2061 C2062 1.379 . S
C2062 H2046 0.931 . S
C2062 C2056 1.383 . S
C2062 C2061 1.379 . S
H2063 C2057 0.959 . S
H2064 C2057 0.961 . S
H2065 C2057 0.960 . S
H2066 C2058 0.930 . S
H2067 C2059 0.929 . S
H2068 C2076 0.929 . S
H2069 C2078 0.930 . S
H2070 C2080 0.930 . S
H2071 C2083 0.929 . S
H2072 C2086 0.930 1_655 S
H2073 C2088 0.960 . S
H2074 C2088 0.960 . S
H2075 C2088 0.960 . S
C2076 H2068 0.929 . S
C2076 C2077 1.377 . S
C2076 C2078 1.384 . S
C2077 C2076 1.377 . S
C2077 C2083 1.390 . S
C2078 H2069 0.930 . S
C2078 C2076 1.384 . S
C2078 C2079 1.372 . S
C2079 C2078 1.372 . S
C2079 C2080 1.400 . S
C2079 C2084 1.490 1_655 S
C2080 H2070 0.930 . S
C2080 C2079 1.400 . S
C2080 C2083 1.386 . S
H2081 C2097 0.930 . S
H2082 C2098 0.931 . S
C2083 H2071 0.929 . S
C2083 C2077 1.390 . S
C2083 C2080 1.386 . S
C2084 C2079 1.490 1_455 S
C2084 C2086 1.395 . S
C2084 C2087 1.403 . S
H2085 C2091 0.930 . S
C2086 H2072 0.930 1_455 S
C2086 C2084 1.395 . S
C2086 C2089 1.403 . S
C2087 C2084 1.403 . S
C2087 C2088 1.524 . S
C2087 C2091 1.400 . S
C2088 H2073 0.960 . S
C2088 H2074 0.960 . S
C2088 H2075 0.960 . S
C2088 C2087 1.524 . S
C2089 C2086 1.403 . S
C2089 C2090 1.392 . S
C2089 C2093 1.495 . S
C2090 C2089 1.392 . S
C2090 C2091 1.385 . S
C2090 C2092 1.478 . S
C2091 H2085 0.930 . S
C2091 C2087 1.400 . S
C2091 C2090 1.385 . S
C2092 C2090 1.478 . S
C2092 C2094 1.381 . S
C2092 C2098 1.383 . S
C2093 C2089 1.495 . S
C2093 H2099 0.959 . S
C2093 H2100 0.961 . S
C2093 H2101 0.960 . S
C2094 C2092 1.381 . S
C2094 C2095 1.394 . S
C2094 H2102 0.930 . S
C2095 C2094 1.394 . S
C2095 C2096 1.383 . S
C2095 H2103 0.929 . S
C2096 C2095 1.383 . S
C2096 C2097 1.377 . S
C2097 H2081 0.930 . S
C2097 C2096 1.377 . S
C2097 C2098 1.379 . S
C2098 H2082 0.931 . S
C2098 C2092 1.383 . S
C2098 C2097 1.379 . S
H2099 C2093 0.959 . S
H2100 C2093 0.961 . S
H2101 C2093 0.960 . S
H2102 C2094 0.930 . S
H2103 C2095 0.929 . S
H2104 C2112 0.929 . S
H2105 C2114 0.930 . S
H2106 C2116 0.930 . S
H2107 C2119 0.929 . S
H2108 C2122 0.930 . S
H2109 C2124 0.960 . S
H2110 C2124 0.960 . S
H2111 C2124 0.960 . S
C2112 H2104 0.929 . S
C2112 C2113 1.377 . S
C2112 C2114 1.384 . S
C2113 C2112 1.377 . S
C2113 C2119 1.390 . S
C2114 H2105 0.930 . S
C2114 C2112 1.384 . S
C2114 C2115 1.372 . S
C2115 C2114 1.372 . S
C2115 C2116 1.400 . S
C2115 C2120 1.490 . S
C2116 H2106 0.930 . S
C2116 C2115 1.400 . S
C2116 C2119 1.386 . S
H2117 C2133 0.930 . S
H2118 C2134 0.931 . S
C2119 H2107 0.929 . S
C2119 C2113 1.390 . S
C2119 C2116 1.386 . S
C2120 C2115 1.490 . S
C2120 C2122 1.395 . S
C2120 C2123 1.403 . S
H2121 C2127 0.930 . S
C2122 H2108 0.930 . S
C2122 C2120 1.395 . S
C2122 C2125 1.403 . S
C2123 C2120 1.403 . S
C2123 C2124 1.524 . S
C2123 C2127 1.400 . S
C2124 H2109 0.960 . S
C2124 H2110 0.960 . S
C2124 H2111 0.960 . S
C2124 C2123 1.524 . S
C2125 C2122 1.403 . S
C2125 C2126 1.392 . S
C2125 C2129 1.495 . S
C2126 C2125 1.392 . S
C2126 C2127 1.385 . S
C2126 C2128 1.478 . S
C2127 H2121 0.930 . S
C2127 C2123 1.400 . S
C2127 C2126 1.385 . S
C2128 C2126 1.478 . S
C2128 C2130 1.381 . S
C2128 C2134 1.383 . S
C2129 C2125 1.495 . S
C2129 H2135 0.959 . S
C2129 H2136 0.961 . S
C2129 H2137 0.960 . S
C2130 C2128 1.381 . S
C2130 C2131 1.394 . S
C2130 H2138 0.930 . S
C2131 C2130 1.394 . S
C2131 C2132 1.383 . S
C2131 H2139 0.929 . S
C2132 C2131 1.383 . S
C2132 C2133 1.377 . S
C2133 H2117 0.930 . S
C2133 C2132 1.377 . S
C2133 C2134 1.379 . S
C2134 H2118 0.931 . S
C2134 C2128 1.383 . S
C2134 C2133 1.379 . S
H2135 C2129 0.959 . S
H2136 C2129 0.961 . S
H2137 C2129 0.960 . S
H2138 C2130 0.930 . S
H2139 C2131 0.929 . S
H2140 C2148 0.929 . S
H2141 C2150 0.930 . S
H2142 C2152 0.930 . S
H2143 C2155 0.929 . S
H2144 C2158 0.930 . S
H2145 C2160 0.960 . S
H2146 C2160 0.960 . S
H2147 C2160 0.960 . S
C2148 H2140 0.929 . S
C2148 C2149 1.377 . S
C2148 C2150 1.384 . S
C2149 C2148 1.377 . S
C2149 C2155 1.390 . S
C2150 H2141 0.930 . S
C2150 C2148 1.384 . S
C2150 C2151 1.372 . S
C2151 C2150 1.372 . S
C2151 C2152 1.400 . S
C2151 C2156 1.490 . S
C2152 H2142 0.930 . S
C2152 C2151 1.400 . S
C2152 C2155 1.386 . S
H2153 C2169 0.930 . S
H2154 C2170 0.931 . S
C2155 H2143 0.929 . S
C2155 C2149 1.390 . S
C2155 C2152 1.386 . S
C2156 C2151 1.490 . S
C2156 C2158 1.395 . S
C2156 C2159 1.403 . S
H2157 C2163 0.930 . S
C2158 H2144 0.930 . S
C2158 C2156 1.395 . S
C2158 C2161 1.403 . S
C2159 C2156 1.403 . S
C2159 C2160 1.524 . S
C2159 C2163 1.400 . S
C2160 H2145 0.960 . S
C2160 H2146 0.960 . S
C2160 H2147 0.960 . S
C2160 C2159 1.524 . S
C2161 C2158 1.403 . S
C2161 C2162 1.392 . S
C2161 C2165 1.495 . S
C2162 C2161 1.392 . S
C2162 C2163 1.385 . S
C2162 C2164 1.478 . S
C2163 H2157 0.930 . S
C2163 C2159 1.400 . S
C2163 C2162 1.385 . S
C2164 C2162 1.478 . S
C2164 C2166 1.381 . S
C2164 C2170 1.383 . S
C2165 C2161 1.495 . S
C2165 H2171 0.959 . S
C2165 H2172 0.961 . S
C2165 H2173 0.960 . S
C2166 C2164 1.381 . S
C2166 C2167 1.394 . S
C2166 H2174 0.930 . S
C2167 C2166 1.394 . S
C2167 C2168 1.383 . S
C2167 H2175 0.929 . S
C2168 C2167 1.383 . S
C2168 C2169 1.377 . S
C2169 H2153 0.930 . S
C2169 C2168 1.377 . S
C2169 C2170 1.379 . S
C2170 H2154 0.931 . S
C2170 C2164 1.383 . S
C2170 C2169 1.379 . S
H2171 C2165 0.959 . S
H2172 C2165 0.961 . S
H2173 C2165 0.960 . S
H2174 C2166 0.930 . S
H2175 C2167 0.929 . S
H2176 C2184 0.929 . S
H2177 C2186 0.930 . S
H2178 C2188 0.930 . S
H2179 C2191 0.929 . S
H2180 C2194 0.930 . S
H2181 C2196 0.960 . S
H2182 C2196 0.960 . S
H2183 C2196 0.960 . S
C2184 H2176 0.929 . S
C2184 C2185 1.377 . S
C2184 C2186 1.384 . S
C2185 C2184 1.377 . S
C2185 C2191 1.390 . S
C2186 H2177 0.930 . S
C2186 C2184 1.384 . S
C2186 C2187 1.372 . S
C2187 C2186 1.372 . S
C2187 C2188 1.400 . S
C2187 C2192 1.490 . S
C2188 H2178 0.930 . S
C2188 C2187 1.400 . S
C2188 C2191 1.386 . S
H2189 C2205 0.930 . S
H2190 C2206 0.931 . S
C2191 H2179 0.929 . S
C2191 C2185 1.390 . S
C2191 C2188 1.386 . S
C2192 C2187 1.490 . S
C2192 C2194 1.395 . S
C2192 C2195 1.403 . S
H2193 C2199 0.930 . S
C2194 H2180 0.930 . S
C2194 C2192 1.395 . S
C2194 C2197 1.403 . S
C2195 C2192 1.403 . S
C2195 C2196 1.524 . S
C2195 C2199 1.400 . S
C2196 H2181 0.960 . S
C2196 H2182 0.960 . S
C2196 H2183 0.960 . S
C2196 C2195 1.524 . S
C2197 C2194 1.403 . S
C2197 C2198 1.392 . S
C2197 C2201 1.495 . S
C2198 C2197 1.392 . S
C2198 C2199 1.385 . S
C2198 C2200 1.478 . S
C2199 H2193 0.930 . S
C2199 C2195 1.400 . S
C2199 C2198 1.385 . S
C2200 C2198 1.478 . S
C2200 C2202 1.381 . S
C2200 C2206 1.383 . S
C2201 C2197 1.495 . S
C2201 H2207 0.959 . S
C2201 H2208 0.961 . S
C2201 H2209 0.960 . S
C2202 C2200 1.381 . S
C2202 C2203 1.394 . S
C2202 H2210 0.930 . S
C2203 C2202 1.394 . S
C2203 C2204 1.383 . S
C2203 H2211 0.929 . S
C2204 C2203 1.383 . S
C2204 C2205 1.377 . S
C2205 H2189 0.930 . S
C2205 C2204 1.377 . S
C2205 C2206 1.379 . S
C2206 H2190 0.931 . S
C2206 C2200 1.383 . S
C2206 C2205 1.379 . S
H2207 C2201 0.959 . S
H2208 C2201 0.961 . S
H2209 C2201 0.960 . S
H2210 C2202 0.930 . S
H2211 C2203 0.929 . S
H2212 C2220 0.929 . S
H2213 C2222 0.930 . S
H2214 C2224 0.930 . S
H2215 C2227 0.929 . S
H2216 C2230 0.930 . S
H2217 C2232 0.960 . S
H2218 C2232 0.960 . S
H2219 C2232 0.960 . S
C2220 H2212 0.929 . S
C2220 C2221 1.377 . S
C2220 C2222 1.384 . S
C2221 C2220 1.377 . S
C2221 C2227 1.390 . S
C2222 H2213 0.930 . S
C2222 C2220 1.384 . S
C2222 C2223 1.372 . S
C2223 C2222 1.372 . S
C2223 C2224 1.400 . S
C2223 C2228 1.490 . S
C2224 H2214 0.930 . S
C2224 C2223 1.400 . S
C2224 C2227 1.386 . S
H2225 C2241 0.946 . S
H2226 C2242 0.931 . S
C2227 H2215 0.929 . S
C2227 C2221 1.390 . S
C2227 C2224 1.386 . S
C2228 C2223 1.490 . S
C2228 C2230 1.395 . S
C2228 C2231 1.403 . S
H2229 C2235 0.930 . S
C2230 H2216 0.930 . S
C2230 C2228 1.395 . S
C2230 C2233 1.403 . S
C2231 C2228 1.403 . S
C2231 C2232 1.524 . S
C2231 C2235 1.400 . S
C2232 H2217 0.960 . S
C2232 H2218 0.960 . S
C2232 H2219 0.960 . S
C2232 C2231 1.524 . S
C2233 C2230 1.403 . S
C2233 C2234 1.392 . S
C2233 C2237 1.495 . S
C2234 C2233 1.392 . S
C2234 C2235 1.385 . S
C2234 C2236 1.478 . S
C2235 H2229 0.930 . S
C2235 C2231 1.400 . S
C2235 C2234 1.385 . S
C2236 C2234 1.478 . S
C2236 C2238 1.381 . S
C2236 C2242 1.383 . S
C2237 C2233 1.495 . S
C2237 H2243 0.959 . S
C2237 H2244 0.961 . S
C2237 H2245 0.960 . S
C2238 C2236 1.381 . S
C2238 C2239 1.394 . S
C2238 H2246 0.930 . S
C2239 C2238 1.394 . S
C2239 C2240 1.383 1_556 S
C2239 H2247 0.929 . S
C2240 C2239 1.383 1_554 S
C2240 C2241 1.377 1_554 S
C2241 H2225 0.946 . S
C2241 C2240 1.377 1_556 S
C2241 C2242 1.379 . S
C2242 H2226 0.931 . S
C2242 C2236 1.383 . S
C2242 C2241 1.379 . S
H2243 C2237 0.959 . S
H2244 C2237 0.961 . S
H2245 C2237 0.960 . S
H2246 C2238 0.930 . S
H2247 C2239 0.929 . S
H2248 C2256 0.929 . S
H2249 C2258 0.930 . S
H2250 C2260 0.930 . S
H2251 C2263 0.929 1_556 S
H2252 C2266 0.930 . S
H2253 C2268 0.960 . S
H2254 C2268 0.960 . S
H2255 C2268 0.960 . S
C2256 H2248 0.929 . S
C2256 C2257 1.377 1_554 S
C2256 C2258 1.384 . S
C2257 C2256 1.377 1_556 S
C2257 C2263 1.390 1_556 S
C2258 H2249 0.930 . S
C2258 C2256 1.384 . S
C2258 C2259 1.372 . S
C2259 C2258 1.372 . S
C2259 C2260 1.400 . S
C2259 C2264 1.490 . S
C2260 H2250 0.930 . S
C2260 C2259 1.400 . S
C2260 C2263 1.386 . S
H2261 C2277 0.930 . S
H2262 C2278 0.931 . S
C2263 H2251 0.929 1_554 S
C2263 C2257 1.390 1_554 S
C2263 C2260 1.386 . S
C2264 C2259 1.490 . S
C2264 C2266 1.395 . S
C2264 C2267 1.403 . S
H2265 C2271 0.930 . S
C2266 H2252 0.930 . S
C2266 C2264 1.395 . S
C2266 C2269 1.403 . S
C2267 C2264 1.403 . S
C2267 C2268 1.524 . S
C2267 C2271 1.400 . S
C2268 H2253 0.960 . S
C2268 H2254 0.960 . S
C2268 H2255 0.960 . S
C2268 C2267 1.524 . S
C2269 C2266 1.403 . S
C2269 C2270 1.392 . S
C2269 C2273 1.495 . S
C2270 C2269 1.392 . S
C2270 C2271 1.385 . S
C2270 C2272 1.478 . S
C2271 H2265 0.930 . S
C2271 C2267 1.400 . S
C2271 C2270 1.385 . S
C2272 C2270 1.478 . S
C2272 C2274 1.381 . S
C2272 C2278 1.383 . S
C2273 C2269 1.495 . S
C2273 H2279 0.959 . S
C2273 H2280 0.961 . S
C2273 H2281 0.960 . S
C2274 C2272 1.381 . S
C2274 C2275 1.394 . S
C2274 H2282 0.930 . S
C2275 C2274 1.394 . S
C2275 C2276 1.383 . S
C2275 H2283 0.929 . S
C2276 C2275 1.383 . S
C2276 C2277 1.377 . S
C2277 H2261 0.930 . S
C2277 C2276 1.377 . S
C2277 C2278 1.379 . S
C2278 H2262 0.931 . S
C2278 C2272 1.383 . S
C2278 C2277 1.379 . S
H2279 C2273 0.959 . S
H2280 C2273 0.961 . S
H2281 C2273 0.960 . S
H2282 C2274 0.930 . S
H2283 C2275 0.929 . S
H2284 C2292 0.929 . S
H2285 C2294 0.930 . S
H2286 C2296 0.930 . S
H2287 C2299 0.929 . S
H2288 C2302 0.930 . S
H2289 C2304 0.960 . S
H2290 C2304 0.960 . S
H2291 C2304 0.960 . S
C2292 H2284 0.929 . S
C2292 C2293 1.377 . S
C2292 C2294 1.384 . S
C2293 C2292 1.377 . S
C2293 C2299 1.390 . S
C2294 H2285 0.930 . S
C2294 C2292 1.384 . S
C2294 C2295 1.372 . S
C2295 C2294 1.372 . S
C2295 C2296 1.400 . S
C2295 C2300 1.490 . S
C2296 H2286 0.930 . S
C2296 C2295 1.400 . S
C2296 C2299 1.386 . S
H2297 C2313 0.930 . S
H2298 C2314 0.931 . S
C2299 H2287 0.929 . S
C2299 C2293 1.390 . S
C2299 C2296 1.386 . S
C2300 C2295 1.490 . S
C2300 C2302 1.395 . S
C2300 C2303 1.403 . S
H2301 C2307 0.930 . S
C2302 H2288 0.930 . S
C2302 C2300 1.395 . S
C2302 C2305 1.403 . S
C2303 C2300 1.403 . S
C2303 C2304 1.524 . S
C2303 C2307 1.400 . S
C2304 H2289 0.960 . S
C2304 H2290 0.960 . S
C2304 H2291 0.960 . S
C2304 C2303 1.524 . S
C2305 C2302 1.403 . S
C2305 C2306 1.392 . S
C2305 C2309 1.495 . S
C2306 C2305 1.392 . S
C2306 C2307 1.385 . S
C2306 C2308 1.478 . S
C2307 H2301 0.930 . S
C2307 C2303 1.400 . S
C2307 C2306 1.385 . S
C2308 C2306 1.478 . S
C2308 C2310 1.381 . S
C2308 C2314 1.383 . S
C2309 C2305 1.495 . S
C2309 H2315 0.959 . S
C2309 H2316 0.961 . S
C2309 H2317 0.960 . S
C2310 C2308 1.381 . S
C2310 C2311 1.394 . S
C2310 H2318 0.930 . S
C2311 C2310 1.394 . S
C2311 C2312 1.383 . S
C2311 H2319 0.929 . S
C2312 C2311 1.383 . S
C2312 C2313 1.377 . S
C2313 H2297 0.930 . S
C2313 C2312 1.377 . S
C2313 C2314 1.379 . S
C2314 H2298 0.931 . S
C2314 C2308 1.383 . S
C2314 C2313 1.379 . S
H2315 C2309 0.959 . S
H2316 C2309 0.961 . S
H2317 C2309 0.960 . S
H2318 C2310 0.930 . S
H2319 C2311 0.929 . S
H2320 C2328 0.929 . S
H2321 C2330 0.930 . S
H2322 C2332 0.930 . S
H2323 C2335 0.929 . S
H2324 C2338 0.930 . S
H2325 C2340 0.960 . S
H2326 C2340 0.960 . S
H2327 C2340 0.960 . S
C2328 H2320 0.929 . S
C2328 C2329 1.377 . S
C2328 C2330 1.384 . S
C2329 C2328 1.377 . S
C2329 C2335 1.390 . S
C2330 H2321 0.930 . S
C2330 C2328 1.384 . S
C2330 C2331 1.372 . S
C2331 C2330 1.372 . S
C2331 C2332 1.400 . S
C2331 C2336 1.490 . S
C2332 H2322 0.930 . S
C2332 C2331 1.400 . S
C2332 C2335 1.386 . S
H2333 C2349 0.930 . S
H2334 C2350 0.931 . S
C2335 H2323 0.929 . S
C2335 C2329 1.390 . S
C2335 C2332 1.386 . S
C2336 C2331 1.490 . S
C2336 C2338 1.395 . S
C2336 C2339 1.403 . S
H2337 C2343 0.930 . S
C2338 H2324 0.930 . S
C2338 C2336 1.395 . S
C2338 C2341 1.403 . S
C2339 C2336 1.403 . S
C2339 C2340 1.524 . S
C2339 C2343 1.400 . S
C2340 H2325 0.960 . S
C2340 H2326 0.960 . S
C2340 H2327 0.960 . S
C2340 C2339 1.524 . S
C2341 C2338 1.403 . S
C2341 C2342 1.392 . S
C2341 C2345 1.495 . S
C2342 C2341 1.392 . S
C2342 C2343 1.385 . S
C2342 C2344 1.478 . S
C2343 H2337 0.930 . S
C2343 C2339 1.400 . S
C2343 C2342 1.385 . S
C2344 C2342 1.478 . S
C2344 C2346 1.381 . S
C2344 C2350 1.383 . S
C2345 C2341 1.495 . S
C2345 H2351 0.959 . S
C2345 H2352 0.961 . S
C2345 H2353 0.960 . S
C2346 C2344 1.381 . S
C2346 C2347 1.394 . S
C2346 H2354 0.930 . S
C2347 C2346 1.394 . S
C2347 C2348 1.383 . S
C2347 H2355 0.929 . S
C2348 C2347 1.383 . S
C2348 C2349 1.377 . S
C2349 H2333 0.930 . S
C2349 C2348 1.377 . S
C2349 C2350 1.379 . S
C2350 H2334 0.931 . S
C2350 C2344 1.383 . S
C2350 C2349 1.379 . S
H2351 C2345 0.959 . S
H2352 C2345 0.961 . S
H2353 C2345 0.960 . S
H2354 C2346 0.930 . S
H2355 C2347 0.929 . S
H2356 C2364 0.945 . S
H2357 C2366 0.930 . S
H2358 C2368 0.930 . S
H2359 C2371 0.929 . S
H2360 C2374 0.930 . S
H2361 C2376 0.960 . S
H2362 C2376 0.960 . S
H2363 C2376 0.960 . S
C2364 H2356 0.945 . S
C2364 C2365 1.377 1_554 S
C2364 C2366 1.384 . S
C2365 C2364 1.377 1_556 S
C2365 C2371 1.390 1_556 S
C2366 H2357 0.930 . S
C2366 C2364 1.384 . S
C2366 C2367 1.372 . S
C2367 C2366 1.372 . S
C2367 C2368 1.400 . S
C2367 C2372 1.490 . S
C2368 H2358 0.930 . S
C2368 C2367 1.400 . S
C2368 C2371 1.386 . S
H2369 C2385 0.930 . S
H2370 C2386 0.931 . S
C2371 H2359 0.929 . S
C2371 C2365 1.390 1_554 S
C2371 C2368 1.386 . S
C2372 C2367 1.490 . S
C2372 C2374 1.395 . S
C2372 C2375 1.403 . S
H2373 C2379 0.930 . S
C2374 H2360 0.930 . S
C2374 C2372 1.395 . S
C2374 C2377 1.403 . S
C2375 C2372 1.403 . S
C2375 C2376 1.524 . S
C2375 C2379 1.400 . S
C2376 H2361 0.960 . S
C2376 H2362 0.960 . S
C2376 H2363 0.960 . S
C2376 C2375 1.524 . S
C2377 C2374 1.403 . S
C2377 C2378 1.392 . S
C2377 C2381 1.495 . S
C2378 C2377 1.392 . S
C2378 C2379 1.385 . S
C2378 C2380 1.478 . S
C2379 H2373 0.930 . S
C2379 C2375 1.400 . S
C2379 C2378 1.385 . S
C2380 C2378 1.478 . S
C2380 C2382 1.381 . S
C2380 C2386 1.383 . S
C2381 C2377 1.495 . S
C2381 H2387 0.959 . S
C2381 H2388 0.961 . S
C2381 H2389 0.960 . S
C2382 C2380 1.381 . S
C2382 C2383 1.394 . S
C2382 H2390 0.930 . S
C2383 C2382 1.394 . S
C2383 C2384 1.383 . S
C2383 H2391 0.929 . S
C2384 C2383 1.383 . S
C2384 C2385 1.377 . S
C2385 H2369 0.930 . S
C2385 C2384 1.377 . S
C2385 C2386 1.379 . S
C2386 H2370 0.931 . S
C2386 C2380 1.383 . S
C2386 C2385 1.379 . S
H2387 C2381 0.959 . S
H2388 C2381 0.961 . S
H2389 C2381 0.960 . S
H2390 C2382 0.930 . S
H2391 C2383 0.929 . S
H2392 C2400 0.929 . S
H2393 C2402 0.930 . S
H2394 C2404 0.930 . S
H2395 C2407 0.929 . S
H2396 C2410 0.930 . S
H2397 C2412 0.960 . S
H2398 C2412 0.960 . S
H2399 C2412 0.960 . S
C2400 H2392 0.929 . S
C2400 C2401 1.377 . S
C2400 C2402 1.384 . S
C2401 C2400 1.377 . S
C2401 C2407 1.390 . S
C2402 H2393 0.930 . S
C2402 C2400 1.384 . S
C2402 C2403 1.372 . S
C2403 C2402 1.372 . S
C2403 C2404 1.400 . S
C2403 C2408 1.490 . S
C2404 H2394 0.930 . S
C2404 C2403 1.400 . S
C2404 C2407 1.386 . S
H2405 C2421 0.930 . S
H2406 C2422 0.931 . S
C2407 H2395 0.929 . S
C2407 C2401 1.390 . S
C2407 C2404 1.386 . S
C2408 C2403 1.490 . S
C2408 C2410 1.395 . S
C2408 C2411 1.403 . S
H2409 C2415 0.930 . S
C2410 H2396 0.930 . S
C2410 C2408 1.395 . S
C2410 C2413 1.403 . S
C2411 C2408 1.403 . S
C2411 C2412 1.524 . S
C2411 C2415 1.400 . S
C2412 H2397 0.960 . S
C2412 H2398 0.960 . S
C2412 H2399 0.960 . S
C2412 C2411 1.524 . S
C2413 C2410 1.403 . S
C2413 C2414 1.392 . S
C2413 C2417 1.495 . S
C2414 C2413 1.392 . S
C2414 C2415 1.385 . S
C2414 C2416 1.478 . S
C2415 H2409 0.930 . S
C2415 C2411 1.400 . S
C2415 C2414 1.385 . S
C2416 C2414 1.478 . S
C2416 C2418 1.381 . S
C2416 C2422 1.383 . S
C2417 C2413 1.495 . S
C2417 H2423 0.959 . S
C2417 H2424 0.961 . S
C2417 H2425 0.960 . S
C2418 C2416 1.381 . S
C2418 C2419 1.394 . S
C2418 H2426 0.930 . S
C2419 C2418 1.394 . S
C2419 C2420 1.383 1_556 S
C2419 H2427 0.929 1_556 S
C2420 C2419 1.383 1_554 S
C2420 C2421 1.377 1_554 S
C2421 H2405 0.930 . S
C2421 C2420 1.377 1_556 S
C2421 C2422 1.379 . S
C2422 H2406 0.931 . S
C2422 C2416 1.383 . S
C2422 C2421 1.379 . S
H2423 C2417 0.959 . S
H2424 C2417 0.961 . S
H2425 C2417 0.960 . S
H2426 C2418 0.930 . S
H2427 C2419 0.929 1_554 S
H2428 C2436 0.929 . S
H2429 C2438 0.930 . S
H2430 C2440 0.930 . S
H2431 C2443 0.929 . S
H2432 C2446 0.930 . S
H2433 C2448 0.960 . S
H2434 C2448 0.960 . S
H2435 C2448 0.960 . S
C2436 H2428 0.929 . S
C2436 C2437 1.377 . S
C2436 C2438 1.384 . S
C2437 C2436 1.377 . S
C2437 C2443 1.390 . S
C2438 H2429 0.930 . S
C2438 C2436 1.384 . S
C2438 C2439 1.372 . S
C2439 C2438 1.372 . S
C2439 C2440 1.400 . S
C2439 C2444 1.490 . S
C2440 H2430 0.930 . S
C2440 C2439 1.400 . S
C2440 C2443 1.386 . S
H2441 C2457 0.930 . S
H2442 C2458 0.931 . S
C2443 H2431 0.929 . S
C2443 C2437 1.390 . S
C2443 C2440 1.386 . S
C2444 C2439 1.490 . S
C2444 C2446 1.395 . S
C2444 C2447 1.403 . S
H2445 C2451 0.930 . S
C2446 H2432 0.930 . S
C2446 C2444 1.395 . S
C2446 C2449 1.403 . S
C2447 C2444 1.403 . S
C2447 C2448 1.524 . S
C2447 C2451 1.400 . S
C2448 H2433 0.960 . S
C2448 H2434 0.960 . S
C2448 H2435 0.960 . S
C2448 C2447 1.524 . S
C2449 C2446 1.403 . S
C2449 C2450 1.392 . S
C2449 C2453 1.495 . S
C2450 C2449 1.392 . S
C2450 C2451 1.385 . S
C2450 C2452 1.478 . S
C2451 H2445 0.930 . S
C2451 C2447 1.400 . S
C2451 C2450 1.385 . S
C2452 C2450 1.478 . S
C2452 C2454 1.381 . S
C2452 C2458 1.383 . S
C2453 C2449 1.495 . S
C2453 H2459 0.959 . S
C2453 H2460 0.961 . S
C2453 H2461 0.960 . S
C2454 C2452 1.381 . S
C2454 C2455 1.394 . S
C2454 H2462 0.930 . S
C2455 C2454 1.394 . S
C2455 C2456 1.383 . S
C2455 H2463 0.929 . S
C2456 C2455 1.383 . S
C2456 C2457 1.377 . S
C2457 H2441 0.930 . S
C2457 C2456 1.377 . S
C2457 C2458 1.379 . S
C2458 H2442 0.931 . S
C2458 C2452 1.383 . S
C2458 C2457 1.379 . S
H2459 C2453 0.959 . S
H2460 C2453 0.961 . S
H2461 C2453 0.960 . S
H2462 C2454 0.930 . S
H2463 C2455 0.929 . S
H2464 C2472 0.929 . S
H2465 C2474 0.930 . S
H2466 C2476 0.930 . S
H2467 C2479 0.926 1_556 S
H2468 C2482 0.930 . S
H2469 C2484 0.960 . S
H2470 C2484 0.960 . S
H2471 C2484 0.960 . S
C2472 H2464 0.929 . S
C2472 C2473 1.377 1_554 S
C2472 C2474 1.384 . S
C2473 C2472 1.377 1_556 S
C2473 C2479 1.390 1_556 S
C2474 H2465 0.930 . S
C2474 C2472 1.384 . S
C2474 C2475 1.372 . S
C2475 C2474 1.372 . S
C2475 C2476 1.400 . S
C2475 C2480 1.490 . S
C2476 H2466 0.930 . S
C2476 C2475 1.400 . S
C2476 C2479 1.386 . S
H2477 C2493 0.930 . S
H2478 C2494 0.931 . S
C2479 H2467 0.926 1_554 S
C2479 C2473 1.390 1_554 S
C2479 C2476 1.386 . S
C2480 C2475 1.490 . S
C2480 C2482 1.395 . S
C2480 C2483 1.403 . S
H2481 C2487 0.930 . S
C2482 H2468 0.930 . S
C2482 C2480 1.395 . S
C2482 C2485 1.403 . S
C2483 C2480 1.403 . S
C2483 C2484 1.524 . S
C2483 C2487 1.400 . S
C2484 H2469 0.960 . S
C2484 H2470 0.960 . S
C2484 H2471 0.960 . S
C2484 C2483 1.524 . S
C2485 C2482 1.403 . S
C2485 C2486 1.392 . S
C2485 C2489 1.495 . S
C2486 C2485 1.392 . S
C2486 C2487 1.385 . S
C2486 C2488 1.478 . S
C2487 H2481 0.930 . S
C2487 C2483 1.400 . S
C2487 C2486 1.385 . S
C2488 C2486 1.478 . S
C2488 C2490 1.381 . S
C2488 C2494 1.383 . S
C2489 C2485 1.495 . S
C2489 H2495 0.959 . S
C2489 H2496 0.961 . S
C2489 H2497 0.960 . S
C2490 C2488 1.381 . S
C2490 C2491 1.394 . S
C2490 H2498 0.930 . S
C2491 C2490 1.394 . S
C2491 C2492 1.383 . S
C2491 H2499 0.929 . S
C2492 C2491 1.383 . S
C2492 C2493 1.377 . S
C2493 H2477 0.930 . S
C2493 C2492 1.377 . S
C2493 C2494 1.379 . S
C2494 H2478 0.931 . S
C2494 C2488 1.383 . S
C2494 C2493 1.379 . S
H2495 C2489 0.959 . S
H2496 C2489 0.961 . S
H2497 C2489 0.960 . S
H2498 C2490 0.930 . S
H2499 C2491 0.929 . S
H2500 C2508 0.929 . S
H2501 C2510 0.930 . S
H2502 C2512 0.930 . S
H2503 C2515 0.929 . S
H2504 C2518 0.930 . S
H2505 C2520 0.960 . S
H2506 C2520 0.960 . S
H2507 C2520 0.960 . S
C2508 H2500 0.929 . S
C2508 C2509 1.377 . S
C2508 C2510 1.384 . S
C2509 C2508 1.377 . S
C2509 C2515 1.390 . S
C2510 H2501 0.930 . S
C2510 C2508 1.384 . S
C2510 C2511 1.372 . S
C2511 C2510 1.372 . S
C2511 C2512 1.400 . S
C2511 C2516 1.490 . S
C2512 H2502 0.930 . S
C2512 C2511 1.400 . S
C2512 C2515 1.386 . S
H2513 C2529 0.930 . S
H2514 C2530 0.931 . S
C2515 H2503 0.929 . S
C2515 C2509 1.390 . S
C2515 C2512 1.386 . S
C2516 C2511 1.490 . S
C2516 C2518 1.395 . S
C2516 C2519 1.403 . S
H2517 C2523 0.930 . S
C2518 H2504 0.930 . S
C2518 C2516 1.395 . S
C2518 C2521 1.403 . S
C2519 C2516 1.403 . S
C2519 C2520 1.524 . S
C2519 C2523 1.400 . S
C2520 H2505 0.960 . S
C2520 H2506 0.960 . S
C2520 H2507 0.960 . S
C2520 C2519 1.524 . S
C2521 C2518 1.403 . S
C2521 C2522 1.392 . S
C2521 C2525 1.495 . S
C2522 C2521 1.392 . S
C2522 C2523 1.385 . S
C2522 C2524 1.478 . S
C2523 H2517 0.930 . S
C2523 C2519 1.400 . S
C2523 C2522 1.385 . S
C2524 C2522 1.478 . S
C2524 C2526 1.381 . S
C2524 C2530 1.383 . S
C2525 C2521 1.495 . S
C2525 H2531 0.959 . S
C2525 H2532 0.961 . S
C2525 H2533 0.960 . S
C2526 C2524 1.381 . S
C2526 C2527 1.394 . S
C2526 H2534 0.930 . S
C2527 C2526 1.394 . S
C2527 C2528 1.383 . S
C2527 H2535 0.929 . S
C2528 C2527 1.383 . S
C2528 C2529 1.377 . S
C2529 H2513 0.930 . S
C2529 C2528 1.377 . S
C2529 C2530 1.379 . S
C2530 H2514 0.931 . S
C2530 C2524 1.383 . S
C2530 C2529 1.379 . S
H2531 C2525 0.959 . S
H2532 C2525 0.961 . S
H2533 C2525 0.960 . S
H2534 C2526 0.930 . S
H2535 C2527 0.929 . S
H2536 C2544 0.929 . S
H2537 C2546 0.930 . S
H2538 C2548 0.930 . S
H2539 C2551 0.929 . S
H2540 C2554 0.930 . S
H2541 C2556 0.960 . S
H2542 C2556 0.960 . S
H2543 C2556 0.960 . S
C2544 H2536 0.929 . S
C2544 C2545 1.377 . S
C2544 C2546 1.384 . S
C2545 C2544 1.377 . S
C2545 C2551 1.390 . S
C2546 H2537 0.930 . S
C2546 C2544 1.384 . S
C2546 C2547 1.372 . S
C2547 C2546 1.372 . S
C2547 C2548 1.400 . S
C2547 C2552 1.490 . S
C2548 H2538 0.930 . S
C2548 C2547 1.400 . S
C2548 C2551 1.386 . S
H2549 C2565 0.930 . S
H2550 C2566 0.931 . S
C2551 H2539 0.929 . S
C2551 C2545 1.390 . S
C2551 C2548 1.386 . S
C2552 C2547 1.490 . S
C2552 C2554 1.395 . S
C2552 C2555 1.403 . S
H2553 C2559 0.930 . S
C2554 H2540 0.930 . S
C2554 C2552 1.395 . S
C2554 C2557 1.403 . S
C2555 C2552 1.403 . S
C2555 C2556 1.524 . S
C2555 C2559 1.400 . S
C2556 H2541 0.960 . S
C2556 H2542 0.960 . S
C2556 H2543 0.960 . S
C2556 C2555 1.524 . S
C2557 C2554 1.403 . S
C2557 C2558 1.392 . S
C2557 C2561 1.495 . S
C2558 C2557 1.392 . S
C2558 C2559 1.385 . S
C2558 C2560 1.478 . S
C2559 H2553 0.930 . S
C2559 C2555 1.400 . S
C2559 C2558 1.385 . S
C2560 C2558 1.478 . S
C2560 C2562 1.381 . S
C2560 C2566 1.383 . S
C2561 C2557 1.495 . S
C2561 H2567 0.959 . S
C2561 H2568 0.961 . S
C2561 H2569 0.960 . S
C2562 C2560 1.381 . S
C2562 C2563 1.394 . S
C2562 H2570 0.930 . S
C2563 C2562 1.394 . S
C2563 C2564 1.383 . S
C2563 H2571 0.929 . S
C2564 C2563 1.383 . S
C2564 C2565 1.377 . S
C2565 H2549 0.930 . S
C2565 C2564 1.377 . S
C2565 C2566 1.379 . S
C2566 H2550 0.931 . S
C2566 C2560 1.383 . S
C2566 C2565 1.379 . S
H2567 C2561 0.959 . S
H2568 C2561 0.961 . S
H2569 C2561 0.960 . S
H2570 C2562 0.930 . S
H2571 C2563 0.929 . S
H2572 C2580 0.929 . S
H2573 C2582 0.930 . S
H2574 C2584 0.930 . S
H2575 C2587 0.929 . S
H2576 C2590 0.930 . S
H2577 C2592 0.960 . S
H2578 C2592 0.960 . S
H2579 C2592 0.960 . S
C2580 H2572 0.929 . S
C2580 C2581 1.377 1_556 S
C2580 C2582 1.384 . S
C2581 C2580 1.377 1_554 S
C2581 C2587 1.390 1_554 S
C2582 H2573 0.930 . S
C2582 C2580 1.384 . S
C2582 C2583 1.372 . S
C2583 C2582 1.372 . S
C2583 C2584 1.400 . S
C2583 C2588 1.490 . S
C2584 H2574 0.930 . S
C2584 C2583 1.400 . S
C2584 C2587 1.386 . S
H2585 C2601 0.930 . S
H2586 C2602 0.931 . S
C2587 H2575 0.929 . S
C2587 C2581 1.390 1_556 S
C2587 C2584 1.386 . S
C2588 C2583 1.490 . S
C2588 C2590 1.395 . S
C2588 C2591 1.403 . S
H2589 C2595 0.930 . S
C2590 H2576 0.930 . S
C2590 C2588 1.395 . S
C2590 C2593 1.403 . S
C2591 C2588 1.403 . S
C2591 C2592 1.524 . S
C2591 C2595 1.400 . S
C2592 H2577 0.960 . S
C2592 H2578 0.960 . S
C2592 H2579 0.960 . S
C2592 C2591 1.524 . S
C2593 C2590 1.403 . S
C2593 C2594 1.392 . S
C2593 C2597 1.495 . S
C2594 C2593 1.392 . S
C2594 C2595 1.385 . S
C2594 C2596 1.478 . S
C2595 H2589 0.930 . S
C2595 C2591 1.400 . S
C2595 C2594 1.385 . S
C2596 C2594 1.478 . S
C2596 C2598 1.381 . S
C2596 C2602 1.383 . S
C2597 C2593 1.495 . S
C2597 H2603 0.959 . S
C2597 H2604 0.961 . S
C2597 H2605 0.960 . S
C2598 C2596 1.381 . S
C2598 C2599 1.394 . S
C2598 H2606 0.930 . S
C2599 C2598 1.394 . S
C2599 C2600 1.383 . S
C2599 H2607 0.929 . S
C2600 C2599 1.383 . S
C2600 C2601 1.377 . S
C2601 H2585 0.930 . S
C2601 C2600 1.377 . S
C2601 C2602 1.379 . S
C2602 H2586 0.931 . S
C2602 C2596 1.383 . S
C2602 C2601 1.379 . S
H2603 C2597 0.959 . S
H2604 C2597 0.961 . S
H2605 C2597 0.960 . S
H2606 C2598 0.930 . S
H2607 C2599 0.929 . S
H2608 C2616 0.929 . S
H2609 C2618 0.930 . S
H2610 C2620 0.930 . S
H2611 C2623 0.929 . S
H2612 C2626 0.930 . S
H2613 C2628 0.960 . S
H2614 C2628 0.960 . S
H2615 C2628 0.960 . S
C2616 H2608 0.929 . S
C2616 C2617 1.377 . S
C2616 C2618 1.384 . S
C2617 C2616 1.377 . S
C2617 C2623 1.390 . S
C2618 H2609 0.930 . S
C2618 C2616 1.384 . S
C2618 C2619 1.372 . S
C2619 C2618 1.372 . S
C2619 C2620 1.400 . S
C2619 C2624 1.490 . S
C2620 H2610 0.930 . S
C2620 C2619 1.400 . S
C2620 C2623 1.386 . S
H2621 C2637 0.930 . S
H2622 C2638 0.931 . S
C2623 H2611 0.929 . S
C2623 C2617 1.390 . S
C2623 C2620 1.386 . S
C2624 C2619 1.490 . S
C2624 C2626 1.395 . S
C2624 C2627 1.403 . S
H2625 C2631 0.930 . S
C2626 H2612 0.930 . S
C2626 C2624 1.395 . S
C2626 C2629 1.403 . S
C2627 C2624 1.403 . S
C2627 C2628 1.524 . S
C2627 C2631 1.400 . S
C2628 H2613 0.960 . S
C2628 H2614 0.960 . S
C2628 H2615 0.960 . S
C2628 C2627 1.524 . S
C2629 C2626 1.403 . S
C2629 C2630 1.392 . S
C2629 C2633 1.495 . S
C2630 C2629 1.392 . S
C2630 C2631 1.385 . S
C2630 C2632 1.478 . S
C2631 H2625 0.930 . S
C2631 C2627 1.400 . S
C2631 C2630 1.385 . S
C2632 C2630 1.478 . S
C2632 C2634 1.381 . S
C2632 C2638 1.383 . S
C2633 C2629 1.495 . S
C2633 H2639 0.959 . S
C2633 H2640 0.961 . S
C2633 H2641 0.960 . S
C2634 C2632 1.381 . S
C2634 C2635 1.394 . S
C2634 H2642 0.930 . S
C2635 C2634 1.394 . S
C2635 C2636 1.383 1_556 S
C2635 H2643 0.929 1_556 S
C2636 C2635 1.383 1_554 S
C2636 C2637 1.377 1_554 S
C2637 H2621 0.930 . S
C2637 C2636 1.377 1_556 S
C2637 C2638 1.379 . S
C2638 H2622 0.931 . S
C2638 C2632 1.383 . S
C2638 C2637 1.379 . S
H2639 C2633 0.959 . S
H2640 C2633 0.961 . S
H2641 C2633 0.960 . S
H2642 C2634 0.930 . S
H2643 C2635 0.929 1_554 S
H2644 C2652 0.929 . S
H2645 C2654 0.930 . S
H2646 C2656 0.930 . S
H2647 C2659 0.929 . S
H2648 C2662 0.930 . S
H2649 C2664 0.960 . S
H2650 C2664 0.960 . S
H2651 C2664 0.960 . S
C2652 H2644 0.929 . S
C2652 C2653 1.377 . S
C2652 C2654 1.384 . S
C2653 C2652 1.377 . S
C2653 C2659 1.390 . S
C2654 H2645 0.930 . S
C2654 C2652 1.384 . S
C2654 C2655 1.372 . S
C2655 C2654 1.372 . S
C2655 C2656 1.400 . S
C2655 C2660 1.490 . S
C2656 H2646 0.930 . S
C2656 C2655 1.400 . S
C2656 C2659 1.386 . S
H2657 C2673 0.930 . S
H2658 C2674 0.931 . S
C2659 H2647 0.929 . S
C2659 C2653 1.390 . S
C2659 C2656 1.386 . S
C2660 C2655 1.490 . S
C2660 C2662 1.395 . S
C2660 C2663 1.403 . S
H2661 C2667 0.930 . S
C2662 H2648 0.930 . S
C2662 C2660 1.395 . S
C2662 C2665 1.403 . S
C2663 C2660 1.403 . S
C2663 C2664 1.524 . S
C2663 C2667 1.400 . S
C2664 H2649 0.960 . S
C2664 H2650 0.960 . S
C2664 H2651 0.960 . S
C2664 C2663 1.524 . S
C2665 C2662 1.403 . S
C2665 C2666 1.392 . S
C2665 C2669 1.495 . S
C2666 C2665 1.392 . S
C2666 C2667 1.385 . S
C2666 C2668 1.478 . S
C2667 H2661 0.930 . S
C2667 C2663 1.400 . S
C2667 C2666 1.385 . S
C2668 C2666 1.478 . S
C2668 C2670 1.381 . S
C2668 C2674 1.383 . S
C2669 C2665 1.495 . S
C2669 H2675 0.959 . S
C2669 H2676 0.961 . S
C2669 H2677 0.960 . S
C2670 C2668 1.381 . S
C2670 C2671 1.394 . S
C2670 H2678 0.930 . S
C2671 C2670 1.394 . S
C2671 C2672 1.383 . S
C2671 H2679 0.929 . S
C2672 C2671 1.383 . S
C2672 C2673 1.377 . S
C2673 H2657 0.930 . S
C2673 C2672 1.377 . S
C2673 C2674 1.379 . S
C2674 H2658 0.931 . S
C2674 C2668 1.383 . S
C2674 C2673 1.379 . S
H2675 C2669 0.959 . S
H2676 C2669 0.961 . S
H2677 C2669 0.960 . S
H2678 C2670 0.930 . S
H2679 C2671 0.929 . S
H2680 C2688 0.929 . S
H2681 C2690 0.930 . S
H2682 C2692 0.930 . S
H2683 C2695 0.929 . S
H2684 C2698 0.930 . S
H2685 C2700 0.960 . S
H2686 C2700 0.960 . S
H2687 C2700 0.960 . S
C2688 H2680 0.929 . S
C2688 C2689 1.377 . S
C2688 C2690 1.384 . S
C2689 C2688 1.377 . S
C2689 C2695 1.390 . S
C2690 H2681 0.930 . S
C2690 C2688 1.384 . S
C2690 C2691 1.372 . S
C2691 C2690 1.372 . S
C2691 C2692 1.400 . S
C2691 C2696 1.490 . S
C2692 H2682 0.930 . S
C2692 C2691 1.400 . S
C2692 C2695 1.386 . S
H2693 C2709 0.930 . S
H2694 C2710 0.931 . S
C2695 H2683 0.929 . S
C2695 C2689 1.390 . S
C2695 C2692 1.386 . S
C2696 C2691 1.490 . S
C2696 C2698 1.395 . S
C2696 C2699 1.403 . S
H2697 C2703 0.930 . S
C2698 H2684 0.930 . S
C2698 C2696 1.395 . S
C2698 C2701 1.403 . S
C2699 C2696 1.403 . S
C2699 C2700 1.524 . S
C2699 C2703 1.400 . S
C2700 H2685 0.960 . S
C2700 H2686 0.960 . S
C2700 H2687 0.960 . S
C2700 C2699 1.524 . S
C2701 C2698 1.403 . S
C2701 C2702 1.392 . S
C2701 C2705 1.495 . S
C2702 C2701 1.392 . S
C2702 C2703 1.385 . S
C2702 C2704 1.478 . S
C2703 H2697 0.930 . S
C2703 C2699 1.400 . S
C2703 C2702 1.385 . S
C2704 C2702 1.478 . S
C2704 C2706 1.381 . S
C2704 C2710 1.383 . S
C2705 C2701 1.495 . S
C2705 H2711 0.959 . S
C2705 H2712 0.961 . S
C2705 H2713 0.960 . S
C2706 C2704 1.381 . S
C2706 C2707 1.394 . S
C2706 H2714 0.930 . S
C2707 C2706 1.394 . S
C2707 C2708 1.383 . S
C2707 H2715 0.929 . S
C2708 C2707 1.383 . S
C2708 C2709 1.377 . S
C2709 H2693 0.930 . S
C2709 C2708 1.377 . S
C2709 C2710 1.379 . S
C2710 H2694 0.931 . S
C2710 C2704 1.383 . S
C2710 C2709 1.379 . S
H2711 C2705 0.959 . S
H2712 C2705 0.961 . S
H2713 C2705 0.960 . S
H2714 C2706 0.930 . S
H2715 C2707 0.929 . S
H2716 C2724 0.929 . S
H2717 C2726 0.930 . S
H2718 C2728 0.930 . S
H2719 C2731 0.929 . S
H2720 C2734 0.930 . S
H2721 C2736 0.960 . S
H2722 C2736 0.960 . S
H2723 C2736 0.960 . S
C2724 H2716 0.929 . S
C2724 C2725 1.377 . S
C2724 C2726 1.384 . S
C2725 C2724 1.377 . S
C2725 C2731 1.390 . S
C2726 H2717 0.930 . S
C2726 C2724 1.384 . S
C2726 C2727 1.372 . S
C2727 C2726 1.372 . S
C2727 C2728 1.400 . S
C2727 C2732 1.490 . S
C2728 H2718 0.930 . S
C2728 C2727 1.400 . S
C2728 C2731 1.386 . S
H2729 C2745 0.930 1_556 S
H2730 C2746 0.931 . S
C2731 H2719 0.929 . S
C2731 C2725 1.390 . S
C2731 C2728 1.386 . S
C2732 C2727 1.490 . S
C2732 C2734 1.395 . S
C2732 C2735 1.403 . S
H2733 C2739 0.930 . S
C2734 H2720 0.930 . S
C2734 C2732 1.395 . S
C2734 C2737 1.403 . S
C2735 C2732 1.403 . S
C2735 C2736 1.524 . S
C2735 C2739 1.400 . S
C2736 H2721 0.960 . S
C2736 H2722 0.960 . S
C2736 H2723 0.960 . S
C2736 C2735 1.524 . S
C2737 C2734 1.403 . S
C2737 C2738 1.392 . S
C2737 C2741 1.495 . S
C2738 C2737 1.392 . S
C2738 C2739 1.385 . S
C2738 C2740 1.478 . S
C2739 H2733 0.930 . S
C2739 C2735 1.400 . S
C2739 C2738 1.385 . S
C2740 C2738 1.478 . S
C2740 C2742 1.381 . S
C2740 C2746 1.383 . S
C2741 C2737 1.495 . S
C2741 H2747 0.959 . S
C2741 H2748 0.961 . S
C2741 H2749 0.960 . S
C2742 C2740 1.381 . S
C2742 C2743 1.394 . S
C2742 H2750 0.930 . S
C2743 C2742 1.394 . S
C2743 C2744 1.383 1_554 S
C2743 H2751 0.929 . S
C2744 C2743 1.383 1_556 S
C2744 C2745 1.377 1_556 S
C2745 H2729 0.930 1_554 S
C2745 C2744 1.377 1_554 S
C2745 C2746 1.379 . S
C2746 H2730 0.931 . S
C2746 C2740 1.383 . S
C2746 C2745 1.379 . S
H2747 C2741 0.959 . S
H2748 C2741 0.961 . S
H2749 C2741 0.960 . S
H2750 C2742 0.930 . S
H2751 C2743 0.929 . S
C457 C6 1.539 . S
C476 C62 1.508 . S
C493 C20 1.541 . S
C512 C76 1.566 . S
C529 C90 1.535 . S
C548 C34 1.515 . S
C565 C104 1.546 . S
C584 C48 1.533 . S
C601 C118 1.545 . S
C620 C174 1.565 . S
C637 C132 1.538 . S
C656 C188 1.511 . S
C673 C202 1.546 . S
C692 C146 1.563 . S
C709 C160 1.542 . S
C728 C216 1.564 . S
C745 C286 1.535 . S
C764 C230 1.514 . S
C781 C300 1.536 . S
C800 C244 1.551 . S
C817 C258 1.546 . S
C836 C314 1.545 . S
C853 C328 1.541 . S
C872 C272 1.510 . S
C889 C342 1.543 . S
C908 C398 1.564 . S
C925 C412 1.540 . S
C944 C356 1.516 . S
C961 C426 1.538 . S
C980 C370 1.547 . S
C997 C384 1.534 . S
C1016 C440 1.514 . S
C1033 C9 1.650 . S
C1052 C386 1.684 . S
C1069 C120 1.681 . S
C1088 C23 1.635 . S
C1105 C37 1.648 . S
C1124 C358 1.684 . S
C1141 C51 1.648 . S
C1160 C148 1.675 . S
C1177 C414 1.683 . S
C1196 C65 1.646 . S
C1213 C204 1.681 . S
C1232 C79 1.624 . S
C1249 C93 1.643 . S
C1268 C442 1.679 . S
C1285 C107 1.648 . S
C1304 C176 1.675 . S
C1321 C274 1.682 . S
C1340 C121 1.633 . S
C1357 C135 1.642 . S
C1376 C8 1.684 . S
C1393 C246 1.681 . S
C1412 C149 1.662 . S
C1429 C163 1.645 . S
C1448 C36 1.680 . S
C1465 C302 1.682 . S
C1484 C177 1.640 . S
C1501 C191 1.643 . S
C1520 C92 1.683 . S
C1537 C330 1.682 . S
C1556 C205 1.637 . S
C1573 C219 1.646 . S
C1592 C64 1.679 . S
C1609 C162 1.682 . S
C1628 C233 1.657 . S
C1645 C344 1.682 . S
C1664 C247 1.633 . S
C1681 C134 1.681 . S
C1700 C261 1.651 . S
C1717 C275 1.648 . S
C1736 C372 1.675 . S
C1753 C190 1.681 . S
C1772 C289 1.631 . S
C1789 C428 1.681 . S
C1808 C303 1.633 . S
C1825 C218 1.681 . S
C1844 C317 1.630 . S
C1861 C331 1.646 . S
C1880 C400 1.673 . S
C1897 C345 1.643 . S
C1916 C50 1.684 . S
C1933 C359 1.647 . S
C1952 C232 1.677 . S
C1969 C373 1.644 . S
C1988 C22 1.681 . S
C2005 C387 1.644 . S
C2024 C260 1.682 . S
C2041 C401 1.642 . S
C2060 C78 1.684 . S
C2077 C316 1.683 . S
C2096 C415 1.625 . S
C2113 C106 1.681 . S
C2132 C429 1.658 . S
C2149 C443 1.648 . S
C2168 C288 1.675 . S
C2185 C7 0.901 . S
C2204 C105 0.931 . S
C2221 C21 0.918 . S
C2240 C63 0.888 . S
C2257 C35 0.906 . S
C2276 C77 0.943 . S
C2293 C91 0.916 . S
C2312 C49 0.901 . S
C2329 C217 0.901 . S
C2348 C119 0.859 . S
C2365 C175 0.899 . S
C2384 C133 0.872 . S
C2401 C189 0.920 . S
C2420 C147 0.895 . S
C2437 C203 0.909 . S
C2456 C161 0.964 . S
C2473 C231 0.908 . S
C2492 C329 0.936 . S
C2509 C287 0.898 . S
C2528 C245 0.965 . S
C2545 C301 0.921 . S
C2564 C259 0.851 . S
C2581 C315 0.912 . S
C2600 C273 0.921 . S
C2617 C441 0.920 . S
C2636 C343 0.895 . S
C2653 C357 0.897 . S
C2672 C399 0.900 . S
C2689 C371 0.898 . S
C2708 C413 0.888 . S
C2725 C385 0.910 . S
C2744 C427 0.965 . S
