# Generated by pormake.
# Topology uog, (4)-cn, num edge types: 1
# Building blocks:
#     Node 0, Type 0, BuildingBlock: MUDLON_clean_sbu_0, # of connection points: 4
#     Node 1, Type 0, BuildingBlock: MUDLON_clean_sbu_0, # of connection points: 4
#     Node 2, Type 0, BuildingBlock: MUDLON_clean_sbu_0, # of connection points: 4
#     Node 3, Type 0, BuildingBlock: MUDLON_clean_sbu_0, # of connection points: 4
#     Node 4, Type 0, BuildingBlock: MUDLON_clean_sbu_0, # of connection points: 4
#     Node 5, Type 0, BuildingBlock: MUDLON_clean_sbu_0, # of connection points: 4
#     Edge 6, Type (0, 0), BuildingBlock: XIVTED_clean_linker_0, # of connection points: 2
#     Edge 7, Type (0, 0), BuildingBlock: XIVTED_clean_linker_0, # of connection points: 2
#     Edge 8, Type (0, 0), BuildingBlock: XIVTED_clean_linker_0, # of connection points: 2
#     Edge 9, Type (0, 0), BuildingBlock: XIVTED_clean_linker_0, # of connection points: 2
#     Edge 10, Type (0, 0), BuildingBlock: XIVTED_clean_linker_0, # of connection points: 2
#     Edge 11, Type (0, 0), BuildingBlock: XIVTED_clean_linker_0, # of connection points: 2
#     Edge 12, Type (0, 0), BuildingBlock: XIVTED_clean_linker_0, # of connection points: 2
#     Edge 13, Type (0, 0), BuildingBlock: XIVTED_clean_linker_0, # of connection points: 2
#     Edge 14, Type (0, 0), BuildingBlock: XIVTED_clean_linker_0, # of connection points: 2
#     Edge 15, Type (0, 0), BuildingBlock: XIVTED_clean_linker_0, # of connection points: 2
#     Edge 16, Type (0, 0), BuildingBlock: XIVTED_clean_linker_0, # of connection points: 2
#     Edge 17, Type (0, 0), BuildingBlock: XIVTED_clean_linker_0, # of connection points: 2
# Relax obj value: 0.035
# Max RMSD: 0.253
# Mean RMSD: 0.253
data_MOF--net-uog--node1-MUDLON_clean_sbu_0--edge1-XIVTED_clean_linker_0
_symmetry_space_group_name_H-M    P1
_symmetry_Int_Tables_number       1
_symmetry_cell_setting            triclinic
loop_
_symmetry_equiv_pos_as_xyz
'x, y, z'
_cell_length_a     30.077232
_cell_length_b     30.074501
_cell_length_c     44.879646
_cell_angle_alpha  90.229034
_cell_angle_beta   89.880538
_cell_angle_gamma 119.95974
loop_
_atom_site_label
_atom_site_type_symbol
_atom_site_fract_x
_atom_site_fract_y
_atom_site_fract_z
_atom_type_partial_charge
Mg0 Mg 0.59659 0.29572 0.185 0.0
C1 C 0.6528 0.35853 0.12953 0.0
O2 O 0.6494 0.39552 0.14305 0.0
C3 C 0.61535 0.28936 0.24824 0.0
O4 O 0.56745 0.25327 0.24407 0.0
C5 C 0.58129 0.19235 0.18366 0.0
O6 O 0.63132 0.22285 0.18385 0.0
O7 O 0.55275 0.21243 0.184 0.0
O8 O 0.63797 0.31624 0.14296 0.0
O9 O 0.55217 0.33466 0.18707 0.0
C10 C 0.57592 0.37981 0.19796 0.0
O11 O 0.62294 0.39765 0.20781 0.0
O12 O 0.6412 0.31551 0.2259 0.0
Mg13 Mg 0.29874 0.60299 0.52301 0.0
C14 C 0.2908 0.6196 0.45967 0.0
O15 O 0.25584 0.57143 0.46422 0.0
C16 C 0.35957 0.65793 0.57933 0.0
O17 O 0.3958 0.65192 0.56692 0.0
C18 C 0.3843 0.5843 0.51043 0.0
O19 O 0.40139 0.63115 0.50055 0.0
O20 O 0.33917 0.55998 0.52123 0.0
O21 O 0.31697 0.64651 0.4818 0.0
O22 O 0.21554 0.55759 0.52395 0.0
C23 C 0.19453 0.58519 0.52604 0.0
O24 O 0.22419 0.63527 0.52779 0.0
O25 O 0.3185 0.64513 0.56492 0.0
Mg26 Mg 0.70446 0.30013 0.85442 0.0
C27 C 0.68929 0.28716 0.79075 0.0
O28 O 0.70796 0.2578 0.79888 0.0
C29 C 0.70874 0.36222 0.90945 0.0
O30 O 0.75499 0.39404 0.89945 0.0
C31 C 0.80894 0.38543 0.84295 0.0
O32 O 0.77939 0.40156 0.83144 0.0
O33 O 0.78794 0.34093 0.85456 0.0
O34 O 0.68181 0.3129 0.81072 0.0
O35 O 0.66652 0.21707 0.85819 0.0
C36 C 0.61838 0.19585 0.85373 0.0
O37 O 0.59873 0.22522 0.84769 0.0
O38 O 0.67864 0.32346 0.89371 0.0
Mg39 Mg 0.4184 0.70684 0.186 0.0
C40 C 0.40938 0.68159 0.12283 0.0
O41 O 0.45671 0.69462 0.12997 0.0
C42 C 0.39692 0.71613 0.24825 0.0
O43 O 0.44502 0.75177 0.24422 0.0
C44 C 0.43327 0.80997 0.18259 0.0
O45 O 0.38326 0.77937 0.18223 0.0
O46 O 0.46189 0.79003 0.18387 0.0
O47 O 0.37984 0.68168 0.14317 0.0
O48 O 0.4619 0.66748 0.19117 0.0
C49 C 0.43395 0.61899 0.18875 0.0
O50 O 0.38457 0.59949 0.1839 0.0
O51 O 0.37173 0.68863 0.22604 0.0
Mg52 Mg 0.70811 0.42314 0.52163 0.0
C53 C 0.71454 0.4031 0.45871 0.0
O54 O 0.74914 0.45166 0.46259 0.0
C55 C 0.6839 0.34358 0.57193 0.0
O56 O 0.69953 0.32077 0.55305 0.0
C57 C 0.62056 0.43895 0.52139 0.0
O58 O 0.60151 0.38967 0.52631 0.0
O59 O 0.66887 0.46696 0.51811 0.0
O60 O 0.68875 0.37731 0.48116 0.0
O61 O 0.79151 0.46665 0.52375 0.0
C62 C 0.81272 0.4396 0.51957 0.0
O63 O 0.78341 0.39033 0.51414 0.0
O64 O 0.68216 0.38303 0.56374 0.0
Mg65 Mg 0.29364 0.70957 0.85424 0.0
C66 C 0.35582 0.71271 0.79937 0.0
O67 O 0.38968 0.75758 0.81031 0.0
C68 C 0.34055 0.67384 0.90474 0.0
O69 O 0.37183 0.67313 0.88451 0.0
C70 C 0.18992 0.62327 0.85623 0.0
O71 O 0.21994 0.60425 0.86199 0.0
O72 O 0.2105 0.67129 0.85159 0.0
O73 O 0.31567 0.68385 0.81437 0.0
O74 O 0.33402 0.79317 0.85419 0.0
C75 C 0.37913 0.81496 0.86509 0.0
O76 O 0.39656 0.78618 0.87607 0.0
O77 O 0.30743 0.68615 0.89732 0.0
H78 H 0.6335 0.13976 0.18337 0.0
H79 H 0.38094 0.86244 0.18111 0.0
H80 H 0.47975 0.11646 0.18311 0.0
H81 H 0.53471 0.88593 0.1834 0.0
H82 H 0.4164 0.95515 0.18122 0.0
H83 H 0.59798 0.04708 0.18283 0.0
C84 C 0.59219 0.11516 0.18319 0.0
C85 C 0.55953 0.13601 0.18328 0.0
C86 C 0.44244 0.94011 0.18167 0.0
C87 C 0.51855 0.02947 0.18265 0.0
C88 C 0.42224 0.88709 0.18159 0.0
C89 C 0.45493 0.86629 0.18224 0.0
C90 C 0.49581 0.97282 0.18239 0.0
C91 C 0.50808 0.90023 0.18287 0.0
C92 C 0.57194 0.06214 0.18289 0.0
C93 C 0.50636 0.10211 0.18304 0.0
N94 N 0.52686 0.95182 0.18293 0.0
N95 N 0.48753 0.05051 0.18274 0.0
H96 H 0.4846 0.63039 0.49292 0.0
H97 H 0.51751 0.38921 0.53196 0.0
H98 H 0.36292 0.48855 0.52892 0.0
H99 H 0.64385 0.53712 0.50685 0.0
H100 H 0.45967 0.42376 0.52867 0.0
H101 H 0.54233 0.5955 0.49531 0.0
C102 C 0.46989 0.59178 0.50123 0.0
C103 C 0.41874 0.56235 0.51077 0.0
C104 C 0.50002 0.44874 0.5239 0.0
C105 C 0.48494 0.52219 0.5136 0.0
C106 C 0.53317 0.42904 0.52574 0.0
C107 C 0.58572 0.46034 0.51967 0.0
C108 C 0.51935 0.50016 0.51578 0.0
C109 C 0.60367 0.51164 0.51176 0.0
C110 C 0.50302 0.57196 0.50266 0.0
C111 C 0.402 0.51262 0.52135 0.0
N112 N 0.57051 0.52993 0.50999 0.0
N113 N 0.43502 0.49412 0.52248 0.0
H114 H 0.86322 0.48487 0.82407 0.0
H115 H 0.13633 0.52138 0.86974 0.0
H116 H 0.88294 0.36591 0.86462 0.0
H117 H 0.11525 0.64563 0.83933 0.0
H118 H 0.04407 0.46338 0.86629 0.0
H119 H 0.95557 0.54324 0.82748 0.0
C120 C 0.88697 0.47089 0.83362 0.0
C121 C 0.8652 0.4203 0.84409 0.0
C122 C 0.0595 0.50331 0.86042 0.0
C123 C 0.97125 0.48724 0.84809 0.0
C124 C 0.11229 0.53657 0.86235 0.0
C125 C 0.13366 0.58856 0.85478 0.0
C126 C 0.02758 0.52194 0.85069 0.0
C127 C 0.10046 0.6059 0.84542 0.0
C128 C 0.93975 0.50439 0.83562 0.0
C129 C 0.89799 0.40452 0.85627 0.0
N130 N 0.04905 0.57261 0.84356 0.0
N131 N 0.94936 0.43787 0.85792 0.0
H132 H 0.12036 0.48372 0.51971 0.0
H133 H 0.88661 0.54035 0.52906 0.0
H134 H 0.14001 0.63501 0.53174 0.0
H135 H 0.86739 0.39008 0.51308 0.0
H136 H 0.97963 0.57565 0.53118 0.0
H137 H 0.02728 0.44825 0.51844 0.0
C138 C 0.10514 0.50944 0.52215 0.0
C139 C 0.13806 0.5624 0.52581 0.0
C140 C 0.95501 0.53494 0.52721 0.0
C141 C 0.03165 0.52217 0.52434 0.0
C142 C 0.90191 0.5148 0.526 0.0
C143 C 0.86913 0.46221 0.52087 0.0
C144 C 0.97546 0.50223 0.52332 0.0
C145 C 0.89113 0.43089 0.51707 0.0
C146 C 0.052 0.48921 0.52139 0.0
C147 C 0.11616 0.59394 0.52883 0.0
N148 N 0.94282 0.45135 0.51838 0.0
N149 N 0.06442 0.57337 0.52802 0.0
H150 H 0.35699 0.88771 0.84442 0.0
H151 H 0.64288 0.12241 0.86978 0.0
H152 H 0.47926 0.87072 0.88265 0.0
H153 H 0.51605 0.14085 0.84124 0.0
H154 H 0.58443 0.02955 0.87275 0.0
H155 H 0.41556 0.98044 0.84143 0.0
C156 C 0.39605 0.90345 0.85226 0.0
C157 C 0.41316 0.87135 0.86383 0.0
C158 C 0.56945 0.05398 0.86585 0.0
C159 C 0.48052 0.97738 0.86033 0.0
C160 C 0.60284 0.10697 0.8641 0.0
C161 C 0.58437 0.1395 0.85531 0.0
C162 C 0.51729 0.03339 0.85863 0.0
C163 C 0.53205 0.11733 0.84821 0.0
C164 C 0.42951 0.95639 0.85054 0.0
C165 C 0.46429 0.89392 0.87361 0.0
N166 N 0.50043 0.06576 0.85 0.0
N167 N 0.49613 0.94545 0.87158 0.0
H168 H 0.53289 0.6439 0.20236 0.0
H169 H 0.47918 0.35648 0.1802 0.0
H170 H 0.38455 0.51543 0.1797 0.0
H171 H 0.62116 0.48039 0.21493 0.0
H172 H 0.44447 0.41473 0.17838 0.0
H173 H 0.56704 0.58522 0.20538 0.0
C174 C 0.50753 0.60342 0.19803 0.0
C175 C 0.45579 0.58458 0.1908 0.0
C176 C 0.48317 0.4291 0.18649 0.0
C177 C 0.49454 0.51725 0.19414 0.0
C178 C 0.50297 0.39583 0.18754 0.0
C179 C 0.55314 0.41353 0.19773 0.0
C180 C 0.51386 0.48051 0.19553 0.0
C181 C 0.58226 0.46498 0.20694 0.0
C182 C 0.52699 0.5699 0.1998 0.0
C183 C 0.42467 0.53171 0.18541 0.0
N184 N 0.56228 0.49665 0.20551 0.0
N185 N 0.44453 0.49998 0.18713 0.0
H186 H 0.63147 0.28756 0.94275 0.0
H187 H 0.69982 0.4452 0.09489 0.0
H188 H 0.75771 0.44327 0.94828 0.0
H189 H 0.63228 0.28052 0.09068 0.0
H190 H 0.71172 0.44891 0.04057 0.0
H191 H 0.61898 0.28859 0.99647 0.0
C192 C 0.65606 0.3223 0.95515 0.0
C193 C 0.69591 0.36534 0.94098 0.0
C194 C 0.69458 0.41211 0.05168 0.0
C195 C 0.68186 0.36654 1.00255 0.0
C196 C 0.68787 0.40994 0.08261 0.0
C197 C 0.66517 0.3625 0.09736 0.0
C198 C 0.67739 0.36643 0.03542 0.0
C199 C 0.65024 0.31797 0.08033 0.0
C200 C 0.64919 0.32264 0.98586 0.0
C201 C 0.72669 0.40916 0.95832 0.0
N202 N 0.65615 0.321 0.05027 0.0
N203 N 0.71906 0.40867 0.98826 0.0
H204 H 0.30423 0.6367 0.26751 0.0
H205 H 0.36958 0.7121 0.43986 0.0
H206 H 0.44015 0.77257 0.29849 0.0
H207 H 0.23738 0.57252 0.40916 0.0
H208 H 0.39098 0.73978 0.38801 0.0
H209 H 0.27391 0.61731 0.3191 0.0
C210 C 0.32743 0.6627 0.28509 0.0
C211 C 0.37501 0.70603 0.27869 0.0
C212 C 0.35705 0.70326 0.39265 0.0
C213 C 0.34076 0.68403 0.33774 0.0
C214 C 0.34478 0.68753 0.42227 0.0
C215 C 0.30191 0.63973 0.42887 0.0
C216 C 0.32624 0.67095 0.36949 0.0
C217 C 0.27109 0.60949 0.40514 0.0
C218 C 0.31019 0.65158 0.31455 0.0
C219 C 0.40344 0.73845 0.30238 0.0
N220 N 0.28404 0.62543 0.37655 0.0
N221 N 0.38606 0.72661 0.33081 0.0
H222 H 0.66119 0.35169 0.76386 0.0
H223 H 0.69171 0.26625 0.59921 0.0
H224 H 0.69611 0.23164 0.74471 0.0
H225 H 0.65581 0.38602 0.61711 0.0
H226 H 0.68574 0.248 0.65252 0.0
H227 H 0.65188 0.3604 0.71025 0.0
C228 C 0.66652 0.32695 0.74843 0.0
C229 C 0.67987 0.29121 0.75878 0.0
C230 C 0.67877 0.27803 0.64477 0.0
C231 C 0.66939 0.30094 0.69753 0.0
C232 C 0.68205 0.28837 0.61428 0.0
C233 C 0.67471 0.32802 0.60364 0.0
C234 C 0.66825 0.30767 0.66482 0.0
C235 C 0.66215 0.35531 0.62429 0.0
C236 C 0.66124 0.33193 0.71784 0.0
C237 C 0.68622 0.26005 0.73779 0.0
N238 N 0.65974 0.34492 0.65388 0.0
N239 N 0.68121 0.26584 0.70823 0.0
H240 H 0.41487 0.65954 0.93112 0.0
H241 H 0.32076 0.66919 0.09717 0.0
H242 H 0.27936 0.66896 0.95122 0.0
H243 H 0.46133 0.66987 0.07646 0.0
H244 H 0.29964 0.65928 0.04394 0.0
H245 H 0.42727 0.65338 0.9845 0.0
C246 C 0.38748 0.65985 0.9467 0.0
C247 C 0.34632 0.66527 0.93665 0.0
C248 C 0.33493 0.66124 0.05111 0.0
C249 C 0.36035 0.65847 0.9978 0.0
C250 C 0.34691 0.66676 0.0815 0.0
C251 C 0.39309 0.67085 0.09127 0.0
C252 C 0.36934 0.6597 0.0304 0.0
C253 C 0.42552 0.6674 0.06995 0.0
C254 C 0.39462 0.65645 0.9772 0.0
C255 C 0.31194 0.66531 0.95792 0.0
N256 N 0.41319 0.66233 0.04058 0.0
N257 N 0.31991 0.66233 0.98744 0.0
H258 H 0.63753 0.30835 0.44021 0.0
H259 H 0.7068 0.37095 0.26721 0.0
H260 H 0.76797 0.44749 0.40788 0.0
H261 H 0.57094 0.23645 0.29921 0.0
H262 H 0.73532 0.39474 0.31882 0.0
H263 H 0.61779 0.27648 0.38886 0.0
C264 C 0.66226 0.33198 0.42238 0.0
C265 C 0.70415 0.38084 0.42833 0.0
C266 C 0.69945 0.3598 0.31452 0.0
C267 C 0.6818 0.34479 0.36957 0.0
C268 C 0.68326 0.34615 0.28504 0.0
C269 C 0.63621 0.30191 0.27888 0.0
C270 C 0.66838 0.32898 0.33797 0.0
C271 C 0.60727 0.27117 0.3029 0.0
C272 C 0.65095 0.31385 0.39306 0.0
C273 C 0.73498 0.40977 0.40434 0.0
N274 N 0.62364 0.28545 0.33135 0.0
N275 N 0.72301 0.39146 0.37604 0.0
H276 H 0.2798 0.63964 0.76449 0.0
H277 H 0.4444 0.70097 0.61567 0.0
H278 H 0.43905 0.75864 0.76195 0.0
H279 H 0.28085 0.64216 0.61635 0.0
H280 H 0.44584 0.7129 0.66993 0.0
H281 H 0.2825 0.6279 0.71079 0.0
C282 C 0.31559 0.6628 0.75275 0.0
C283 C 0.35924 0.70038 0.76776 0.0
C284 C 0.4098 0.69771 0.65807 0.0
C285 C 0.36237 0.68718 0.70619 0.0
C286 C 0.40893 0.69099 0.62716 0.0
C287 C 0.36245 0.67066 0.61143 0.0
C288 C 0.36373 0.68293 0.67334 0.0
C289 C 0.31761 0.65823 0.62748 0.0
C290 C 0.31692 0.65638 0.72203 0.0
C291 C 0.40445 0.72939 0.75124 0.0
N292 N 0.3193 0.66407 0.65755 0.0
N293 N 0.40489 0.72219 0.7213 0.0
loop_
_geom_bond_atom_site_label_1
_geom_bond_atom_site_label_2
_geom_bond_distance
_geom_bond_site_symmetry_2
_ccdc_geom_bond_type
Mg0 O7 2.141 . S
Mg0 O8 2.048 . S
Mg0 O9 2.048 . S
Mg0 O12 2.141 . S
C1 O2 1.313 . S
C1 O8 1.195 . S
O2 C1 1.313 . S
C3 O4 1.245 . S
C3 O12 1.289 . S
O4 C3 1.245 . S
C5 O6 1.245 . S
C5 O7 1.289 . S
O6 C5 1.245 . S
O7 Mg0 2.141 . S
O7 C5 1.289 . S
O8 Mg0 2.048 . S
O8 C1 1.195 . S
O9 Mg0 2.048 . S
O9 C10 1.195 . S
C10 O9 1.195 . S
C10 O11 1.313 . S
O11 C10 1.313 . S
O12 Mg0 2.141 . S
O12 C3 1.289 . S
Mg13 O20 2.141 . S
Mg13 O21 2.048 . S
Mg13 O22 2.048 . S
Mg13 O25 2.141 . S
C14 O15 1.313 . S
C14 O21 1.195 . S
O15 C14 1.313 . S
C16 O17 1.245 . S
C16 O25 1.289 . S
O17 C16 1.245 . S
C18 O19 1.245 . S
C18 O20 1.289 . S
O19 C18 1.245 . S
O20 Mg13 2.141 . S
O20 C18 1.289 . S
O21 Mg13 2.048 . S
O21 C14 1.195 . S
O22 Mg13 2.048 . S
O22 C23 1.195 . S
C23 O22 1.195 . S
C23 O24 1.313 . S
O24 C23 1.313 . S
O25 Mg13 2.141 . S
O25 C16 1.289 . S
Mg26 O33 2.141 . S
Mg26 O34 2.048 . S
Mg26 O35 2.048 . S
Mg26 O38 2.141 . S
C27 O28 1.313 . S
C27 O34 1.195 . S
O28 C27 1.313 . S
C29 O30 1.245 . S
C29 O38 1.289 . S
O30 C29 1.245 . S
C31 O32 1.245 . S
C31 O33 1.289 . S
O32 C31 1.245 . S
O33 Mg26 2.141 . S
O33 C31 1.289 . S
O34 Mg26 2.048 . S
O34 C27 1.195 . S
O35 Mg26 2.048 . S
O35 C36 1.195 . S
C36 O35 1.195 . S
C36 O37 1.313 . S
O37 C36 1.313 . S
O38 Mg26 2.141 . S
O38 C29 1.289 . S
Mg39 O46 2.141 . S
Mg39 O47 2.048 . S
Mg39 O48 2.048 . S
Mg39 O51 2.141 . S
C40 O41 1.313 . S
C40 O47 1.195 . S
O41 C40 1.313 . S
C42 O43 1.245 . S
C42 O51 1.289 . S
O43 C42 1.245 . S
C44 O45 1.245 . S
C44 O46 1.289 . S
O45 C44 1.245 . S
O46 Mg39 2.141 . S
O46 C44 1.289 . S
O47 Mg39 2.048 . S
O47 C40 1.195 . S
O48 Mg39 2.048 . S
O48 C49 1.195 . S
C49 O48 1.195 . S
C49 O50 1.313 . S
O50 C49 1.313 . S
O51 Mg39 2.141 . S
O51 C42 1.289 . S
Mg52 O59 2.141 . S
Mg52 O60 2.048 . S
Mg52 O61 2.048 . S
Mg52 O64 2.141 . S
C53 O54 1.313 . S
C53 O60 1.195 . S
O54 C53 1.313 . S
C55 O56 1.245 . S
C55 O64 1.289 . S
O56 C55 1.245 . S
C57 O58 1.245 . S
C57 O59 1.289 . S
O58 C57 1.245 . S
O59 Mg52 2.141 . S
O59 C57 1.289 . S
O60 Mg52 2.048 . S
O60 C53 1.195 . S
O61 Mg52 2.048 . S
O61 C62 1.195 . S
C62 O61 1.195 . S
C62 O63 1.313 . S
O63 C62 1.313 . S
O64 Mg52 2.141 . S
O64 C55 1.289 . S
Mg65 O72 2.141 . S
Mg65 O73 2.048 . S
Mg65 O74 2.048 . S
Mg65 O77 2.141 . S
C66 O67 1.313 . S
C66 O73 1.195 . S
O67 C66 1.313 . S
C68 O69 1.245 . S
C68 O77 1.289 . S
O69 C68 1.245 . S
C70 O71 1.245 . S
C70 O72 1.289 . S
O71 C70 1.245 . S
O72 Mg65 2.141 . S
O72 C70 1.289 . S
O73 Mg65 2.048 . S
O73 C66 1.195 . S
O74 Mg65 2.048 . S
O74 C75 1.195 . S
C75 O74 1.195 . S
C75 O76 1.313 . S
O76 C75 1.313 . S
O77 Mg65 2.141 . S
O77 C68 1.289 . S
H78 C84 0.930 . S
H79 C88 0.930 . S
H80 C93 0.929 . S
H81 C91 0.929 . S
H82 C86 0.929 . S
H83 C92 0.929 . S
C84 H78 0.930 . S
C84 C85 1.367 . S
C84 C92 1.378 . S
C85 C84 1.367 . S
C85 C93 1.433 . S
C86 H82 0.929 . S
C86 C88 1.378 . S
C86 C90 1.350 . S
C87 C90 1.463 1_545 S
C87 C92 1.350 . S
C87 N95 1.427 . S
C88 H79 0.930 . S
C88 C86 1.378 . S
C88 C89 1.367 . S
C89 C88 1.367 . S
C89 C91 1.433 . S
C90 C86 1.350 . S
C90 C87 1.463 1_565 S
C90 N94 1.427 . S
C91 H81 0.929 . S
C91 C89 1.433 . S
C91 N94 1.384 . S
C92 H83 0.929 . S
C92 C84 1.378 . S
C92 C87 1.350 . S
C93 H80 0.929 . S
C93 C85 1.433 . S
C93 N95 1.384 . S
N94 C90 1.427 . S
N94 C91 1.384 . S
N95 C87 1.427 . S
N95 C93 1.384 . S
H96 C102 0.930 . S
H97 C106 0.930 . S
H98 C111 0.929 . S
H99 C109 0.929 . S
H100 C104 0.929 . S
H101 C110 0.929 . S
C102 H96 0.930 . S
C102 C103 1.367 . S
C102 C110 1.378 . S
C103 C102 1.367 . S
C103 C111 1.433 . S
C104 H100 0.929 . S
C104 C106 1.378 . S
C104 C108 1.350 . S
C105 C108 1.463 . S
C105 C110 1.350 . S
C105 N113 1.427 . S
C106 H97 0.930 . S
C106 C104 1.378 . S
C106 C107 1.367 . S
C107 C106 1.367 . S
C107 C109 1.433 . S
C108 C104 1.350 . S
C108 C105 1.463 . S
C108 N112 1.427 . S
C109 H99 0.929 . S
C109 C107 1.433 . S
C109 N112 1.384 . S
C110 H101 0.929 . S
C110 C102 1.378 . S
C110 C105 1.350 . S
C111 H98 0.929 . S
C111 C103 1.433 . S
C111 N113 1.384 . S
N112 C108 1.427 . S
N112 C109 1.384 . S
N113 C105 1.427 . S
N113 C111 1.384 . S
H114 C120 0.930 . S
H115 C124 0.930 . S
H116 C129 0.929 . S
H117 C127 0.929 . S
H118 C122 0.929 . S
H119 C128 0.929 . S
C120 H114 0.930 . S
C120 C121 1.367 . S
C120 C128 1.378 . S
C121 C120 1.367 . S
C121 C129 1.433 . S
C122 H118 0.929 . S
C122 C124 1.378 . S
C122 C126 1.350 . S
C123 C126 1.463 1_655 S
C123 C128 1.350 . S
C123 N131 1.427 . S
C124 H115 0.930 . S
C124 C122 1.378 . S
C124 C125 1.367 . S
C125 C124 1.367 . S
C125 C127 1.433 . S
C126 C122 1.350 . S
C126 C123 1.463 1_455 S
C126 N130 1.427 . S
C127 H117 0.929 . S
C127 C125 1.433 . S
C127 N130 1.384 . S
C128 H119 0.929 . S
C128 C120 1.378 . S
C128 C123 1.350 . S
C129 H116 0.929 . S
C129 C121 1.433 . S
C129 N131 1.384 . S
N130 C126 1.427 . S
N130 C127 1.384 . S
N131 C123 1.427 . S
N131 C129 1.384 . S
H132 C138 0.930 . S
H133 C142 0.930 . S
H134 C147 0.929 . S
H135 C145 0.929 . S
H136 C140 0.929 . S
H137 C146 0.929 . S
C138 H132 0.930 . S
C138 C139 1.367 . S
C138 C146 1.378 . S
C139 C138 1.367 . S
C139 C147 1.433 . S
C140 H136 0.929 . S
C140 C142 1.378 . S
C140 C144 1.350 . S
C141 C144 1.463 1_455 S
C141 C146 1.350 . S
C141 N149 1.427 . S
C142 H133 0.930 . S
C142 C140 1.378 . S
C142 C143 1.367 . S
C143 C142 1.367 . S
C143 C145 1.433 . S
C144 C140 1.350 . S
C144 C141 1.463 1_655 S
C144 N148 1.427 . S
C145 H135 0.929 . S
C145 C143 1.433 . S
C145 N148 1.384 . S
C146 H137 0.929 . S
C146 C138 1.378 . S
C146 C141 1.350 . S
C147 H134 0.929 . S
C147 C139 1.433 . S
C147 N149 1.384 . S
N148 C144 1.427 . S
N148 C145 1.384 . S
N149 C141 1.427 . S
N149 C147 1.384 . S
H150 C156 0.930 . S
H151 C160 0.930 . S
H152 C165 0.929 . S
H153 C163 0.929 . S
H154 C158 0.929 . S
H155 C164 0.929 . S
C156 H150 0.930 . S
C156 C157 1.367 . S
C156 C164 1.378 . S
C157 C156 1.367 . S
C157 C165 1.433 . S
C158 H154 0.929 . S
C158 C160 1.378 . S
C158 C162 1.350 . S
C159 C162 1.463 1_565 S
C159 C164 1.350 . S
C159 N167 1.427 . S
C160 H151 0.930 . S
C160 C158 1.378 . S
C160 C161 1.367 . S
C161 C160 1.367 . S
C161 C163 1.433 . S
C162 C158 1.350 . S
C162 C159 1.463 1_545 S
C162 N166 1.427 . S
C163 H153 0.929 . S
C163 C161 1.433 . S
C163 N166 1.384 . S
C164 H155 0.929 . S
C164 C156 1.378 . S
C164 C159 1.350 . S
C165 H152 0.929 . S
C165 C157 1.433 . S
C165 N167 1.384 . S
N166 C162 1.427 . S
N166 C163 1.384 . S
N167 C159 1.427 . S
N167 C165 1.384 . S
H168 C174 0.930 . S
H169 C178 0.930 . S
H170 C183 0.929 . S
H171 C181 0.929 . S
H172 C176 0.929 . S
H173 C182 0.929 . S
C174 H168 0.930 . S
C174 C175 1.367 . S
C174 C182 1.378 . S
C175 C174 1.367 . S
C175 C183 1.433 . S
C176 H172 0.929 . S
C176 C178 1.378 . S
C176 C180 1.350 . S
C177 C180 1.463 . S
C177 C182 1.350 . S
C177 N185 1.427 . S
C178 H169 0.930 . S
C178 C176 1.378 . S
C178 C179 1.367 . S
C179 C178 1.367 . S
C179 C181 1.433 . S
C180 C176 1.350 . S
C180 C177 1.463 . S
C180 N184 1.427 . S
C181 H171 0.929 . S
C181 C179 1.433 . S
C181 N184 1.384 . S
C182 H173 0.929 . S
C182 C174 1.378 . S
C182 C177 1.350 . S
C183 H170 0.929 . S
C183 C175 1.433 . S
C183 N185 1.384 . S
N184 C180 1.427 . S
N184 C181 1.384 . S
N185 C177 1.427 . S
N185 C183 1.384 . S
H186 C192 0.930 . S
H187 C196 0.930 . S
H188 C201 0.929 . S
H189 C199 0.929 . S
H190 C194 0.929 . S
H191 C200 0.929 . S
C192 H186 0.930 . S
C192 C193 1.367 . S
C192 C200 1.378 . S
C193 C192 1.367 . S
C193 C201 1.433 . S
C194 H190 0.929 . S
C194 C196 1.378 . S
C194 C198 1.350 . S
C195 C198 1.463 1_556 S
C195 C200 1.350 . S
C195 N203 1.427 . S
C196 H187 0.930 . S
C196 C194 1.378 . S
C196 C197 1.367 . S
C197 C196 1.367 . S
C197 C199 1.433 . S
C198 C194 1.350 . S
C198 C195 1.463 1_554 S
C198 N202 1.427 . S
C199 H189 0.929 . S
C199 C197 1.433 . S
C199 N202 1.384 . S
C200 H191 0.929 . S
C200 C192 1.378 . S
C200 C195 1.350 . S
C201 H188 0.929 . S
C201 C193 1.433 . S
C201 N203 1.384 . S
N202 C198 1.427 . S
N202 C199 1.384 . S
N203 C195 1.427 . S
N203 C201 1.384 . S
H204 C210 0.930 . S
H205 C214 0.930 . S
H206 C219 0.929 . S
H207 C217 0.929 . S
H208 C212 0.929 . S
H209 C218 0.929 . S
C210 H204 0.930 . S
C210 C211 1.367 . S
C210 C218 1.378 . S
C211 C210 1.367 . S
C211 C219 1.433 . S
C212 H208 0.929 . S
C212 C214 1.378 . S
C212 C216 1.350 . S
C213 C216 1.463 . S
C213 C218 1.350 . S
C213 N221 1.427 . S
C214 H205 0.930 . S
C214 C212 1.378 . S
C214 C215 1.367 . S
C215 C214 1.367 . S
C215 C217 1.433 . S
C216 C212 1.350 . S
C216 C213 1.463 . S
C216 N220 1.427 . S
C217 H207 0.929 . S
C217 C215 1.433 . S
C217 N220 1.384 . S
C218 H209 0.929 . S
C218 C210 1.378 . S
C218 C213 1.350 . S
C219 H206 0.929 . S
C219 C211 1.433 . S
C219 N221 1.384 . S
N220 C216 1.427 . S
N220 C217 1.384 . S
N221 C213 1.427 . S
N221 C219 1.384 . S
H222 C228 0.930 . S
H223 C232 0.930 . S
H224 C237 0.929 . S
H225 C235 0.929 . S
H226 C230 0.929 . S
H227 C236 0.929 . S
C228 H222 0.930 . S
C228 C229 1.367 . S
C228 C236 1.378 . S
C229 C228 1.367 . S
C229 C237 1.433 . S
C230 H226 0.929 . S
C230 C232 1.378 . S
C230 C234 1.350 . S
C231 C234 1.463 . S
C231 C236 1.350 . S
C231 N239 1.427 . S
C232 H223 0.930 . S
C232 C230 1.378 . S
C232 C233 1.367 . S
C233 C232 1.367 . S
C233 C235 1.433 . S
C234 C230 1.350 . S
C234 C231 1.463 . S
C234 N238 1.427 . S
C235 H225 0.929 . S
C235 C233 1.433 . S
C235 N238 1.384 . S
C236 H227 0.929 . S
C236 C228 1.378 . S
C236 C231 1.350 . S
C237 H224 0.929 . S
C237 C229 1.433 . S
C237 N239 1.384 . S
N238 C234 1.427 . S
N238 C235 1.384 . S
N239 C231 1.427 . S
N239 C237 1.384 . S
H240 C246 0.930 . S
H241 C250 0.930 . S
H242 C255 0.929 . S
H243 C253 0.929 . S
H244 C248 0.929 . S
H245 C254 0.929 . S
C246 H240 0.930 . S
C246 C247 1.367 . S
C246 C254 1.378 . S
C247 C246 1.367 . S
C247 C255 1.433 . S
C248 H244 0.929 . S
C248 C250 1.378 . S
C248 C252 1.350 . S
C249 C252 1.463 1_556 S
C249 C254 1.350 . S
C249 N257 1.427 . S
C250 H241 0.930 . S
C250 C248 1.378 . S
C250 C251 1.367 . S
C251 C250 1.367 . S
C251 C253 1.433 . S
C252 C248 1.350 . S
C252 C249 1.463 1_554 S
C252 N256 1.427 . S
C253 H243 0.929 . S
C253 C251 1.433 . S
C253 N256 1.384 . S
C254 H245 0.929 . S
C254 C246 1.378 . S
C254 C249 1.350 . S
C255 H242 0.929 . S
C255 C247 1.433 . S
C255 N257 1.384 . S
N256 C252 1.427 . S
N256 C253 1.384 . S
N257 C249 1.427 . S
N257 C255 1.384 . S
H258 C264 0.930 . S
H259 C268 0.930 . S
H260 C273 0.929 . S
H261 C271 0.929 . S
H262 C266 0.929 . S
H263 C272 0.929 . S
C264 H258 0.930 . S
C264 C265 1.367 . S
C264 C272 1.378 . S
C265 C264 1.367 . S
C265 C273 1.433 . S
C266 H262 0.929 . S
C266 C268 1.378 . S
C266 C270 1.350 . S
C267 C270 1.463 . S
C267 C272 1.350 . S
C267 N275 1.427 . S
C268 H259 0.930 . S
C268 C266 1.378 . S
C268 C269 1.367 . S
C269 C268 1.367 . S
C269 C271 1.433 . S
C270 C266 1.350 . S
C270 C267 1.463 . S
C270 N274 1.427 . S
C271 H261 0.929 . S
C271 C269 1.433 . S
C271 N274 1.384 . S
C272 H263 0.929 . S
C272 C264 1.378 . S
C272 C267 1.350 . S
C273 H260 0.929 . S
C273 C265 1.433 . S
C273 N275 1.384 . S
N274 C270 1.427 . S
N274 C271 1.384 . S
N275 C267 1.427 . S
N275 C273 1.384 . S
H276 C282 0.930 . S
H277 C286 0.930 . S
H278 C291 0.929 . S
H279 C289 0.929 . S
H280 C284 0.929 . S
H281 C290 0.929 . S
C282 H276 0.930 . S
C282 C283 1.367 . S
C282 C290 1.378 . S
C283 C282 1.367 . S
C283 C291 1.433 . S
C284 H280 0.929 . S
C284 C286 1.378 . S
C284 C288 1.350 . S
C285 C288 1.463 . S
C285 C290 1.350 . S
C285 N293 1.427 . S
C286 H277 0.930 . S
C286 C284 1.378 . S
C286 C287 1.367 . S
C287 C286 1.367 . S
C287 C289 1.433 . S
C288 C284 1.350 . S
C288 C285 1.463 . S
C288 N292 1.427 . S
C289 H279 0.929 . S
C289 C287 1.433 . S
C289 N292 1.384 . S
C290 H281 0.929 . S
C290 C282 1.378 . S
C290 C285 1.350 . S
C291 H278 0.929 . S
C291 C283 1.433 . S
C291 N293 1.384 . S
N292 C288 1.427 . S
N292 C289 1.384 . S
N293 C285 1.427 . S
N293 C291 1.384 . S
C85 C5 1.945 . S
C89 C44 1.945 . S
C103 C18 1.945 . S
C107 C57 1.945 . S
C121 C31 1.946 . S
C125 C70 1.946 . S
C139 C23 2.020 . S
C143 C62 2.019 . S
C157 C75 2.016 . S
C161 C36 2.016 . S
C175 C49 2.020 . S
C179 C10 2.020 . S
C193 C29 1.625 . S
C197 C1 1.633 . S
C211 C42 1.628 . S
C215 C14 1.641 . S
C229 C27 1.635 . S
C233 C55 1.617 . S
C247 C68 1.617 . S
C251 C40 1.635 . S
C265 C53 1.641 . S
C269 C3 1.628 . S
C283 C66 1.635 . S
C287 C16 1.617 . S
