# Generated by pormake.
# Topology wjy, (5)-cn, num edge types: 1
# Building blocks:
#     Node 0, Type 0, BuildingBlock: BEQFEK_clean_sbu_0, # of connection points: 5
#     Node 1, Type 0, BuildingBlock: BEQFEK_clean_sbu_0, # of connection points: 5
#     Node 2, Type 0, BuildingBlock: BEQFEK_clean_sbu_0, # of connection points: 5
#     Node 3, Type 0, BuildingBlock: BEQFEK_clean_sbu_0, # of connection points: 5
#     Node 4, Type 0, BuildingBlock: BEQFEK_clean_sbu_0, # of connection points: 5
#     Node 5, Type 0, BuildingBlock: BEQFEK_clean_sbu_0, # of connection points: 5
#     Node 6, Type 0, BuildingBlock: BEQFEK_clean_sbu_0, # of connection points: 5
#     Node 7, Type 0, BuildingBlock: BEQFEK_clean_sbu_0, # of connection points: 5
#     Node 8, Type 0, BuildingBlock: BEQFEK_clean_sbu_0, # of connection points: 5
#     Node 9, Type 0, BuildingBlock: BEQFEK_clean_sbu_0, # of connection points: 5
#     Node 10, Type 0, BuildingBlock: BEQFEK_clean_sbu_0, # of connection points: 5
#     Node 11, Type 0, BuildingBlock: BEQFEK_clean_sbu_0, # of connection points: 5
#     Edge 12, Type (0, 0), BuildingBlock: ZUJKAS_clean_linker_0, # of connection points: 2
#     Edge 13, Type (0, 0), BuildingBlock: ZUJKAS_clean_linker_0, # of connection points: 2
#     Edge 14, Type (0, 0), BuildingBlock: ZUJKAS_clean_linker_0, # of connection points: 2
#     Edge 15, Type (0, 0), BuildingBlock: ZUJKAS_clean_linker_0, # of connection points: 2
#     Edge 16, Type (0, 0), BuildingBlock: ZUJKAS_clean_linker_0, # of connection points: 2
#     Edge 17, Type (0, 0), BuildingBlock: ZUJKAS_clean_linker_0, # of connection points: 2
#     Edge 18, Type (0, 0), BuildingBlock: ZUJKAS_clean_linker_0, # of connection points: 2
#     Edge 19, Type (0, 0), BuildingBlock: ZUJKAS_clean_linker_0, # of connection points: 2
#     Edge 20, Type (0, 0), BuildingBlock: ZUJKAS_clean_linker_0, # of connection points: 2
#     Edge 21, Type (0, 0), BuildingBlock: ZUJKAS_clean_linker_0, # of connection points: 2
#     Edge 22, Type (0, 0), BuildingBlock: ZUJKAS_clean_linker_0, # of connection points: 2
#     Edge 23, Type (0, 0), BuildingBlock: ZUJKAS_clean_linker_0, # of connection points: 2
#     Edge 24, Type (0, 0), BuildingBlock: ZUJKAS_clean_linker_0, # of connection points: 2
#     Edge 25, Type (0, 0), BuildingBlock: ZUJKAS_clean_linker_0, # of connection points: 2
#     Edge 26, Type (0, 0), BuildingBlock: ZUJKAS_clean_linker_0, # of connection points: 2
#     Edge 27, Type (0, 0), BuildingBlock: ZUJKAS_clean_linker_0, # of connection points: 2
#     Edge 28, Type (0, 0), BuildingBlock: ZUJKAS_clean_linker_0, # of connection points: 2
#     Edge 29, Type (0, 0), BuildingBlock: ZUJKAS_clean_linker_0, # of connection points: 2
#     Edge 30, Type (0, 0), BuildingBlock: ZUJKAS_clean_linker_0, # of connection points: 2
#     Edge 31, Type (0, 0), BuildingBlock: ZUJKAS_clean_linker_0, # of connection points: 2
#     Edge 32, Type (0, 0), BuildingBlock: ZUJKAS_clean_linker_0, # of connection points: 2
#     Edge 33, Type (0, 0), BuildingBlock: ZUJKAS_clean_linker_0, # of connection points: 2
#     Edge 34, Type (0, 0), BuildingBlock: ZUJKAS_clean_linker_0, # of connection points: 2
#     Edge 35, Type (0, 0), BuildingBlock: ZUJKAS_clean_linker_0, # of connection points: 2
#     Edge 36, Type (0, 0), BuildingBlock: ZUJKAS_clean_linker_0, # of connection points: 2
#     Edge 37, Type (0, 0), BuildingBlock: ZUJKAS_clean_linker_0, # of connection points: 2
#     Edge 38, Type (0, 0), BuildingBlock: ZUJKAS_clean_linker_0, # of connection points: 2
#     Edge 39, Type (0, 0), BuildingBlock: ZUJKAS_clean_linker_0, # of connection points: 2
#     Edge 40, Type (0, 0), BuildingBlock: ZUJKAS_clean_linker_0, # of connection points: 2
#     Edge 41, Type (0, 0), BuildingBlock: ZUJKAS_clean_linker_0, # of connection points: 2
# Relax obj value: 0.123
# Max RMSD: 0.152
# Mean RMSD: 0.152
data_MOF--net-wjy--node1-BEQFEK_clean_sbu_0--edge1-ZUJKAS_clean_linker_0
_symmetry_space_group_name_H-M    P1
_symmetry_Int_Tables_number       1
_symmetry_cell_setting            triclinic
loop_
_symmetry_equiv_pos_as_xyz
'x, y, z'
_cell_length_a     94.26571
_cell_length_b     94.240615
_cell_length_c     23.303157
_cell_angle_alpha  90.011472
_cell_angle_beta   89.97549
_cell_angle_gamma 119.9961
loop_
_atom_site_label
_atom_site_type_symbol
_atom_site_fract_x
_atom_site_fract_y
_atom_site_fract_z
_atom_type_partial_charge
Co0 Co 0.45564 0.11261 0.16754 0.0
Co1 Co 0.46936 0.11846 0.04289 0.0
C2 C 0.44176 0.08546 0.08531 0.0
O3 O 0.44068 0.09071 0.13454 0.0
O4 O 0.45242 0.09485 0.04894 0.0
C5 C 0.43659 0.10485 0.27443 0.0
O6 O 0.42415 0.09287 0.24731 0.0
C7 C 0.4636 0.11936 0.92054 0.0
C8 C 0.48852 0.13052 0.88398 0.0
C9 C 0.47219 0.12414 0.86917 0.0
N10 N 0.47436 0.12291 0.96354 0.0
N11 N 0.48925 0.12962 0.94149 0.0
C12 C 0.4454 0.11076 0.92878 0.0
H13 H 0.4419 0.10521 0.97197 0.0
H14 H 0.44108 0.1197 0.92486 0.0
H15 H 0.43917 0.10119 0.89544 0.0
C16 C 0.45182 0.14109 0.13846 0.0
N17 N 0.45563 0.12954 0.1243 0.0
N18 N 0.46201 0.13251 0.07249 0.0
C19 C 0.4628 0.14632 0.05239 0.0
C20 C 0.45624 0.15214 0.09337 0.0
C21 C 0.44564 0.14235 0.19631 0.0
H22 H 0.45482 0.14402 0.22933 0.0
H23 H 0.43418 0.13076 0.20599 0.0
H24 H 0.44331 0.15276 0.19892 0.0
O25 O 0.4783 0.11622 0.1725 0.0
O26 O 0.48903 0.12183 0.085 0.0
H27 H 0.48188 0.15421 0.98949 0.0
H28 H 0.47214 0.16659 0.99201 0.0
C29 C 0.47011 0.15399 0.99573 0.0
H30 H 0.46166 0.14655 0.96096 0.0
H31 H 0.49987 0.13341 0.96562 0.0
O32 O 0.44985 0.11388 0.2477 0.0
C33 C 0.49027 0.11997 0.13857 0.0
Co34 Co 0.34416 0.45498 0.33342 0.0
Co35 Co 0.35214 0.46922 0.2094 0.0
C36 C 0.35682 0.44098 0.2478 0.0
O37 O 0.35144 0.4405 0.29833 0.0
O38 O 0.35769 0.45145 0.2113 0.0
C39 C 0.33788 0.43747 0.44147 0.0
O40 O 0.34396 0.42912 0.41689 0.0
C41 C 0.34678 0.46421 0.08761 0.0
C42 C 0.35859 0.48926 0.05191 0.0
C43 C 0.35016 0.47284 0.03659 0.0
N44 N 0.35303 0.47497 0.13095 0.0
N45 N 0.36009 0.48996 0.10953 0.0
C46 C 0.33679 0.44606 0.096 0.0
H47 H 0.33122 0.44318 0.13943 0.0
H48 H 0.32704 0.44043 0.06296 0.0
H49 H 0.34485 0.44067 0.09208 0.0
C50 C 0.31179 0.45092 0.30373 0.0
N51 N 0.32732 0.45525 0.29028 0.0
N52 N 0.33078 0.46184 0.23883 0.0
C53 C 0.31758 0.46215 0.21809 0.0
C54 C 0.30505 0.45518 0.25847 0.0
C55 C 0.30359 0.44269 0.35869 0.0
H56 H 0.308 0.45192 0.39364 0.0
H57 H 0.3069 0.43327 0.36989 0.0
H58 H 0.29007 0.43681 0.35545 0.0
O59 O 0.36308 0.47753 0.3409 0.0
O60 O 0.36877 0.48836 0.25358 0.0
H61 H 0.32942 0.48166 0.15701 0.0
H62 H 0.3076 0.47343 0.16251 0.0
C63 C 0.31749 0.4703 0.16305 0.0
H64 H 0.31558 0.46191 0.12676 0.0
H65 H 0.36593 0.50062 0.13416 0.0
O66 O 0.33661 0.44824 0.41281 0.0
C67 C 0.37159 0.4895 0.30734 0.0
Co68 Co 0.8892 0.34455 0.48978 0.0
Co69 Co 0.88383 0.35147 0.36307 0.0
C70 C 0.91654 0.35687 0.40745 0.0
O71 O 0.91131 0.35182 0.45797 0.0
O72 O 0.90718 0.35737 0.36912 0.0
C73 C 0.89739 0.33375 0.59592 0.0
O74 O 0.9095 0.33382 0.56776 0.0
C75 C 0.88297 0.34435 0.24104 0.0
C76 C 0.87247 0.35856 0.20319 0.0
C77 C 0.87861 0.34835 0.1892 0.0
N78 N 0.87942 0.35173 0.28353 0.0
N79 N 0.87308 0.36015 0.2607 0.0
C80 C 0.89129 0.33452 0.25014 0.0
H81 H 0.9014 0.33821 0.21873 0.0
H82 H 0.89607 0.33596 0.29436 0.0
H83 H 0.88239 0.32134 0.24368 0.0
C84 C 0.8609 0.31196 0.46127 0.0
N85 N 0.87243 0.32729 0.4466 0.0
N86 N 0.86959 0.3304 0.39417 0.0
C87 C 0.85589 0.31725 0.3742 0.0
C88 C 0.85001 0.30509 0.41589 0.0
C89 C 0.85954 0.30472 0.51954 0.0
H90 H 0.85766 0.31226 0.55191 0.0
H91 H 0.87117 0.30503 0.53004 0.0
H92 H 0.84923 0.29193 0.52215 0.0
O93 O 0.88539 0.36344 0.49281 0.0
O94 O 0.8809 0.36838 0.40349 0.0
H95 H 0.84835 0.32812 0.3089 0.0
H96 H 0.83571 0.30606 0.31363 0.0
C97 C 0.84838 0.31653 0.3169 0.0
H98 H 0.8558 0.31509 0.28304 0.0
H99 H 0.86945 0.36721 0.28429 0.0
O100 O 0.88794 0.33764 0.57019 0.0
C101 C 0.88217 0.37164 0.45695 0.0
Co102 Co 0.54558 0.89018 0.66 0.0
Co103 Co 0.5343 0.88352 0.53204 0.0
C104 C 0.56268 0.91605 0.57224 0.0
O105 O 0.56161 0.91121 0.62392 0.0
O106 O 0.55288 0.90668 0.53359 0.0
C107 C 0.56391 0.89468 0.76772 0.0
O108 O 0.57751 0.90007 0.73817 0.0
C109 C 0.5378 0.88211 0.40762 0.0
C110 C 0.51357 0.86163 0.38234 0.0
C111 C 0.52895 0.87264 0.36113 0.0
N112 N 0.52825 0.87667 0.45446 0.0
N113 N 0.51371 0.86454 0.439 0.0
C114 C 0.55457 0.89686 0.40763 0.0
H115 H 0.55346 0.90753 0.42128 0.0
H116 H 0.56239 0.89516 0.43924 0.0
H117 H 0.56041 0.89966 0.36477 0.0
C118 C 0.54726 0.85968 0.64137 0.0
N119 N 0.54469 0.87178 0.62281 0.0
N120 N 0.54053 0.86934 0.56828 0.0
C121 C 0.54076 0.85588 0.55002 0.0
C122 C 0.54488 0.8492 0.5958 0.0
C123 C 0.55055 0.85745 0.70256 0.0
H124 H 0.54284 0.86014 0.73142 0.0
H125 H 0.5636 0.86612 0.71249 0.0
H126 H 0.54795 0.84478 0.7109 0.0
O127 O 0.52394 0.88853 0.65968 0.0
O128 O 0.51463 0.88198 0.5706 0.0
H129 H 0.5247 0.84434 0.479 0.0
H130 H 0.54184 0.84082 0.48164 0.0
C131 C 0.53791 0.84996 0.48921 0.0
H132 H 0.54495 0.86044 0.45995 0.0
H133 H 0.50401 0.85801 0.46738 0.0
O134 O 0.5505 0.89037 0.74193 0.0
C135 C 0.51278 0.88491 0.62256 0.0
Co136 Co 0.65872 0.54715 0.83494 0.0
Co137 Co 0.6518 0.53435 0.70905 0.0
C138 C 0.64666 0.56205 0.75143 0.0
O139 O 0.65181 0.56212 0.80198 0.0
O140 O 0.64596 0.55191 0.71386 0.0
C141 C 0.67047 0.56628 0.94143 0.0
O142 O 0.67218 0.57912 0.9133 0.0
C143 C 0.65912 0.5402 0.58702 0.0
C144 C 0.64502 0.51534 0.55013 0.0
C145 C 0.65527 0.53164 0.5356 0.0
N146 N 0.65163 0.52943 0.62984 0.0
N147 N 0.64327 0.51458 0.60759 0.0
C148 C 0.66894 0.55839 0.59532 0.0
H149 H 0.66731 0.56191 0.63904 0.0
H150 H 0.68213 0.56261 0.58977 0.0
H151 H 0.6654 0.56469 0.56292 0.0
C152 C 0.69119 0.55099 0.80795 0.0
N153 N 0.67593 0.5473 0.79274 0.0
N154 N 0.67286 0.54119 0.74052 0.0
C155 C 0.68599 0.54047 0.72119 0.0
C156 C 0.69808 0.54679 0.76313 0.0
C157 C 0.69832 0.55693 0.86633 0.0
H158 H 0.69041 0.5478 0.89891 0.0
H159 H 0.69852 0.56858 0.87562 0.0
H160 H 0.71089 0.55888 0.87003 0.0
O161 O 0.63973 0.52456 0.83849 0.0
O162 O 0.63483 0.51463 0.7499 0.0
H163 H 0.67519 0.5219 0.65639 0.0
H164 H 0.69725 0.53139 0.66119 0.0
C165 C 0.68675 0.53355 0.66418 0.0
H166 H 0.68818 0.54232 0.62999 0.0
H167 H 0.63617 0.50398 0.63153 0.0
O168 O 0.66534 0.55274 0.91544 0.0
C169 C 0.63153 0.51294 0.80335 0.0
Co170 Co 0.11257 0.65606 0.99095 0.0
Co171 Co 0.11965 0.6514 0.86364 0.0
C172 C 0.08656 0.6456 0.90216 0.0
O173 O 0.09126 0.64975 0.95377 0.0
O174 O 0.09629 0.64562 0.8642 0.0
C175 C 0.10776 0.67044 0.09697 0.0
O176 O 0.10475 0.68027 0.06595 0.0
C177 C 0.12101 0.65745 0.74059 0.0
C178 C 0.13959 0.65137 0.71077 0.0
C179 C 0.12935 0.65704 0.69232 0.0
N180 N 0.12606 0.65227 0.78568 0.0
N181 N 0.13707 0.6485 0.76756 0.0
C182 C 0.10979 0.66435 0.74506 0.0
H183 H 0.11026 0.66918 0.78887 0.0
H184 H 0.11315 0.67429 0.71317 0.0
H185 H 0.09708 0.6545 0.73608 0.0
C186 C 0.14239 0.68889 0.97168 0.0
N187 N 0.13053 0.67403 0.95358 0.0
N188 N 0.13331 0.67206 0.89959 0.0
C189 C 0.14687 0.68569 0.88147 0.0
C190 C 0.15307 0.69678 0.92651 0.0
C191 C 0.14448 0.69477 0.03239 0.0
H192 H 0.14123 0.68446 0.06234 0.0
H193 H 0.13626 0.69981 0.04042 0.0
H194 H 0.15727 0.70456 0.04086 0.0
O195 O 0.11609 0.63709 0.992 0.0
O196 O 0.1218 0.63373 0.90246 0.0
H197 H 0.15769 0.67911 0.81337 0.0
H198 H 0.16415 0.70069 0.81536 0.0
C199 C 0.15368 0.68814 0.82193 0.0
H200 H 0.14401 0.68613 0.79068 0.0
H201 H 0.14311 0.64433 0.79418 0.0
O202 O 0.1112 0.66046 0.07275 0.0
C203 C 0.11978 0.62951 0.9551 0.0
Co204 Co 0.89017 0.54831 0.66349 0.0
Co205 Co 0.88365 0.53336 0.78618 0.0
C206 C 0.91661 0.56176 0.75026 0.0
O207 O 0.91174 0.56249 0.69997 0.0
O208 O 0.90702 0.5511 0.78626 0.0
C209 C 0.90237 0.56211 0.55311 0.0
O210 O 0.91637 0.56449 0.57367 0.0
C211 C 0.88277 0.53632 0.90919 0.0
C212 C 0.86784 0.5107 0.9386 0.0
C213 C 0.8765 0.52675 0.95785 0.0
N214 N 0.87817 0.52642 0.86332 0.0
N215 N 0.86926 0.5111 0.88098 0.0
C216 C 0.89198 0.55462 0.90544 0.0
H217 H 0.88984 0.55867 0.86321 0.0
H218 H 0.88824 0.56006 0.94041 0.0
H219 H 0.90528 0.55911 0.90971 0.0
C220 C 0.86168 0.55206 0.69371 0.0
N221 N 0.87291 0.54773 0.70672 0.0
N222 N 0.86977 0.54099 0.75794 0.0
C223 C 0.85626 0.54063 0.77902 0.0
C224 C 0.85069 0.54768 0.73904 0.0
C225 C 0.86168 0.5604 0.63907 0.0
H226 H 0.85713 0.5513 0.6037 0.0
H227 H 0.87436 0.57005 0.62844 0.0
H228 H 0.85381 0.56603 0.6424 0.0
O229 O 0.88661 0.52583 0.65301 0.0
O230 O 0.88131 0.5147 0.73982 0.0
H231 H 0.84792 0.52055 0.83785 0.0
H232 H 0.83524 0.52985 0.83593 0.0
C233 C 0.84803 0.53232 0.83388 0.0
H234 H 0.85501 0.54024 0.87057 0.0
H235 H 0.86411 0.50095 0.85375 0.0
O236 O 0.88986 0.55604 0.58543 0.0
C237 C 0.8831 0.51375 0.68605 0.0
Co238 Co 0.34398 0.89076 0.83334 0.0
Co239 Co 0.35048 0.88222 0.95638 0.0
C240 C 0.35563 0.91585 0.92291 0.0
O241 O 0.34976 0.91158 0.87256 0.0
O242 O 0.35691 0.90588 0.95651 0.0
C243 C 0.33065 0.89647 0.72424 0.0
O244 O 0.32228 0.90196 0.75219 0.0
C245 C 0.3447 0.88111 0.079 0.0
C246 C 0.35212 0.8637 0.11077 0.0
C247 C 0.34575 0.87345 0.12813 0.0
N248 N 0.3502 0.87617 0.0345 0.0
N249 N 0.35476 0.86586 0.05375 0.0
C250 C 0.33741 0.89197 0.07332 0.0
H251 H 0.33159 0.89028 0.03056 0.0
H252 H 0.32822 0.88935 0.10751 0.0
H253 H 0.3473 0.90494 0.07717 0.0
C254 C 0.31121 0.86126 0.85573 0.0
N255 N 0.32657 0.8725 0.87147 0.0
N256 N 0.32943 0.86893 0.92322 0.0
C257 C 0.31604 0.85525 0.94191 0.0
C258 C 0.30399 0.84998 0.89999 0.0
C259 C 0.30354 0.86166 0.80002 0.0
H260 H 0.3035 0.87336 0.79693 0.0
H261 H 0.29074 0.85145 0.79619 0.0
H262 H 0.31095 0.86114 0.76395 0.0
O263 O 0.3637 0.88825 0.82949 0.0
O264 O 0.36714 0.87949 0.91388 0.0
H265 H 0.32662 0.84569 0.00053 0.0
H266 H 0.30462 0.83403 -0.00198 0.0
C267 C 0.31538 0.84657 0.99652 0.0
H268 H 0.31482 0.8537 0.03344 0.0
H269 H 0.35937 0.86006 0.02782 0.0
O270 O 0.33915 0.89164 0.75132 0.0
C271 C 0.3713 0.88337 0.86176 0.0
Co272 Co 0.45568 0.34377 0.00133 0.0
Co273 Co 0.46904 0.3508 0.12679 0.0
C274 C 0.44125 0.35604 0.08599 0.0
O275 O 0.44097 0.35096 0.03513 0.0
O276 O 0.45147 0.35661 0.1229 0.0
C277 C 0.43704 0.33412 0.89378 0.0
O278 O 0.42548 0.33545 0.9204 0.0
C279 C 0.46339 0.34331 0.24855 0.0
C280 C 0.48802 0.35852 0.28599 0.0
C281 C 0.47182 0.34768 0.30032 0.0
N282 N 0.47412 0.35112 0.20593 0.0
N283 N 0.48884 0.3601 0.22847 0.0
C284 C 0.4453 0.3328 0.23949 0.0
H285 H 0.4418 0.33421 0.19545 0.0
H286 H 0.44169 0.31975 0.24518 0.0
H287 H 0.43852 0.33591 0.27132 0.0
C288 C 0.45139 0.31114 0.02918 0.0
N289 N 0.45552 0.32656 0.04386 0.0
N290 N 0.4619 0.32969 0.09565 0.0
C291 C 0.46236 0.31646 0.11519 0.0
C292 C 0.45561 0.3042 0.07386 0.0
C293 C 0.44346 0.30328 0.97348 0.0
H294 H 0.43388 0.3064 0.96275 0.0
H295 H 0.43782 0.28976 0.9754 0.0
H296 H 0.4528 0.30814 0.9389 0.0
O297 O 0.47832 0.36272 0.9968 0.0
O298 O 0.48857 0.36764 0.08497 0.0
H299 H 0.47503 0.30717 0.16664 0.0
H300 H 0.46206 0.31272 0.20572 0.0
C301 C 0.47076 0.3162 0.16937 0.0
H302 H 0.48143 0.32849 0.17795 0.0
H303 H 0.49937 0.36761 0.20473 0.0
O304 O 0.44984 0.33684 0.92092 0.0
C305 C 0.49007 0.37092 0.03151 0.0
Co306 Co 0.11237 0.45344 0.16435 0.0
Co307 Co 0.11989 0.46917 0.28571 0.0
C308 C 0.08656 0.44079 0.2536 0.0
O309 O 0.09107 0.43972 0.20307 0.0
O310 O 0.09646 0.4516 0.28854 0.0
C311 C 0.10014 0.4438 0.05427 0.0
O312 O 0.08895 0.44669 0.07588 0.0
C313 C 0.12129 0.46694 0.40871 0.0
C314 C 0.13655 0.49269 0.43629 0.0
C315 C 0.12772 0.47677 0.45679 0.0
N316 N 0.12596 0.47658 0.36214 0.0
N317 N 0.13508 0.49198 0.37869 0.0
C318 C 0.11202 0.44861 0.40598 0.0
H319 H 0.11391 0.44435 0.36377 0.0
H320 H 0.11595 0.44332 0.44084 0.0
H321 H 0.09876 0.44417 0.41109 0.0
C322 C 0.14132 0.45019 0.19126 0.0
N323 N 0.12997 0.45425 0.20577 0.0
N324 N 0.13348 0.46122 0.25663 0.0
C325 C 0.14729 0.46193 0.27611 0.0
C326 C 0.1527 0.45492 0.23537 0.0
C327 C 0.14199 0.44343 0.13384 0.0
H328 H 0.14274 0.45203 0.09985 0.0
H329 H 0.13052 0.43162 0.12688 0.0
H330 H 0.15266 0.44156 0.12984 0.0
O331 O 0.11615 0.4759 0.15246 0.0
O332 O 0.12207 0.48765 0.23825 0.0
H333 H 0.1576 0.48205 0.335 0.0
H334 H 0.1667 0.46909 0.33909 0.0
C335 C 0.15514 0.46926 0.3325 0.0
H336 H 0.14661 0.46218 0.36767 0.0
H337 H 0.14027 0.50196 0.35074 0.0
O338 O 0.11147 0.44496 0.08674 0.0
C339 C 0.11999 0.48825 0.18448 0.0
Co340 Co 0.65844 0.11144 0.32785 0.0
Co341 Co 0.65318 0.11863 0.45434 0.0
C342 C 0.64767 0.08547 0.41623 0.0
O343 O 0.65211 0.09013 0.36477 0.0
O344 O 0.64741 0.09522 0.45357 0.0
C345 C 0.67173 0.10555 0.22064 0.0
O346 O 0.67985 0.1001 0.25049 0.0
C347 C 0.65996 0.12015 0.5764 0.0
C348 C 0.65227 0.1373 0.60897 0.0
C349 C 0.65909 0.1279 0.62557 0.0
N350 N 0.65393 0.12474 0.53251 0.0
N351 N 0.64922 0.13489 0.55223 0.0
C352 C 0.66763 0.10965 0.57011 0.0
H353 H 0.67264 0.11082 0.52617 0.0
H354 H 0.67752 0.11309 0.60218 0.0
H355 H 0.65815 0.09667 0.57735 0.0
C356 C 0.69134 0.14078 0.34883 0.0
N357 N 0.67625 0.12924 0.36606 0.0
N358 N 0.67393 0.13233 0.41925 0.0
C359 C 0.68747 0.14594 0.43756 0.0
C360 C 0.69899 0.15171 0.39371 0.0
C361 C 0.69829 0.14117 0.29073 0.0
H362 H 0.69926 0.13002 0.28524 0.0
H363 H 0.71065 0.15199 0.2849 0.0
H364 H 0.68991 0.14113 0.25722 0.0
O365 O 0.63941 0.11494 0.32618 0.0
O366 O 0.63571 0.12087 0.415 0.0
H367 H 0.69968 0.16657 0.49594 0.0
H368 H 0.68949 0.14657 0.52898 0.0
C369 C 0.68876 0.15413 0.49392 0.0
H370 H 0.6777 0.1552 0.50066 0.0
H371 H 0.64423 0.14041 0.52678 0.0
O372 O 0.66313 0.11058 0.24592 0.0
C373 C 0.63169 0.11872 0.36219 0.0
Co374 Co 0.5474 0.65781 0.50058 0.0
Co375 Co 0.53477 0.65288 0.62677 0.0
C376 C 0.56213 0.64688 0.59069 0.0
O377 O 0.56203 0.6512 0.53898 0.0
O378 O 0.55218 0.64689 0.62763 0.0
C379 C 0.56713 0.6718 0.39491 0.0
O380 O 0.58008 0.68144 0.4258 0.0
C381 C 0.53948 0.65943 0.74911 0.0
C382 C 0.51446 0.65134 0.78055 0.0
C383 C 0.53061 0.65813 0.79809 0.0
N384 N 0.52909 0.65364 0.70455 0.0
N385 N 0.51413 0.64874 0.72355 0.0
C386 C 0.55769 0.66731 0.74367 0.0
H387 H 0.56165 0.67214 0.69959 0.0
H388 H 0.5639 0.67739 0.77528 0.0
H389 H 0.56137 0.65804 0.75242 0.0
C390 C 0.55072 0.6908 0.52019 0.0
N391 N 0.54737 0.67579 0.53787 0.0
N392 N 0.54225 0.67368 0.59147 0.0
C393 C 0.5425 0.68737 0.60982 0.0
C394 C 0.54794 0.69868 0.56546 0.0
C395 C 0.55619 0.69735 0.4609 0.0
H396 H 0.54887 0.68775 0.42883 0.0
H397 H 0.56924 0.7009 0.4558 0.0
H398 H 0.55507 0.70834 0.45264 0.0
O399 O 0.52481 0.63901 0.49799 0.0
O400 O 0.51508 0.63548 0.58663 0.0
H401 H 0.52393 0.67846 0.67459 0.0
H402 H 0.53556 0.70048 0.6698 0.0
C403 C 0.53629 0.68911 0.66702 0.0
H404 H 0.5446 0.68936 0.70113 0.0
H405 H 0.50373 0.64379 0.69754 0.0
O406 O 0.55357 0.66222 0.41902 0.0
C407 C 0.51324 0.63143 0.53384 0.0
H408 H 0.46566 0.29038 0.99233 0.0
H409 H 0.46443 0.26381 0.9965 0.0
H410 H 0.44212 0.25506 0.16406 0.0
H411 H 0.44332 0.28166 0.15991 0.0
H412 H 0.4678 0.24876 0.1589 0.0
H413 H 0.42435 0.2181 0.97957 0.0
H414 H 0.44173 0.23746 0.96033 0.0
H415 H 0.42728 0.23675 0.01225 0.0
C416 C 0.46026 0.28265 0.0296 0.0
C417 C 0.45443 0.28794 0.07558 0.0
C418 C 0.45956 0.26749 0.03195 0.0
C419 C 0.45294 0.25734 0.08019 0.0
C420 C 0.44719 0.26267 0.12631 0.0
H421 H 0.42924 0.15535 0.10182 0.0
H422 H 0.42812 0.18086 0.10104 0.0
C423 C 0.4479 0.27784 0.12396 0.0
C424 C 0.45259 0.24145 0.08344 0.0
H425 H 0.43822 0.20466 0.01559 0.0
C426 C 0.46126 0.23907 0.12777 0.0
C427 C 0.44388 0.22876 0.04321 0.0
C428 C 0.43365 0.23028 0.99645 0.0
C429 C 0.46178 0.22448 0.13218 0.0
C430 C 0.45361 0.21206 0.09059 0.0
C431 C 0.44461 0.21427 0.04707 0.0
C432 C 0.45431 0.19669 0.09138 0.0
C433 C 0.47092 0.22244 0.18167 0.0
C434 C 0.46936 0.19714 0.08564 0.0
C435 C 0.46999 0.18264 0.08626 0.0
C436 C 0.45556 0.16745 0.09199 0.0
C437 C 0.4405 0.16697 0.09735 0.0
C438 C 0.43987 0.18148 0.0968 0.0
H439 H 0.4726 0.2309 0.21757 0.0
H440 H 0.46439 0.20967 0.19813 0.0
H441 H 0.48324 0.22523 0.16683 0.0
H442 H 0.48062 0.20871 0.08043 0.0
H443 H 0.48175 0.18327 0.08256 0.0
H444 H 0.18385 0.48026 0.24731 0.0
H445 H 0.20921 0.47899 0.24899 0.0
H446 H 0.18124 0.42661 0.22537 0.0
H447 H 0.1558 0.42784 0.22489 0.0
H448 H 0.20492 0.43645 0.312 0.0
H449 H 0.23154 0.47129 0.11102 0.0
H450 H 0.22567 0.48175 0.16181 0.0
H451 H 0.21025 0.46293 0.1299 0.0
C452 C 0.18317 0.46849 0.24272 0.0
C453 C 0.16797 0.45413 0.23613 0.0
C454 C 0.19763 0.46779 0.24313 0.0
C455 C 0.19712 0.45273 0.23647 0.0
C456 C 0.1819 0.43835 0.23026 0.0
H457 H 0.28287 0.44261 0.17134 0.0
H458 H 0.25607 0.44097 0.16569 0.0
C459 C 0.16742 0.43906 0.22984 0.0
C460 C 0.21245 0.45198 0.23733 0.0
H461 H 0.24933 0.46647 0.17008 0.0
C462 C 0.2146 0.44292 0.28079 0.0
C463 C 0.22495 0.46026 0.19609 0.0
C464 C 0.22298 0.46948 0.14671 0.0
C465 C 0.22913 0.44229 0.28506 0.0
C466 C 0.24191 0.45114 0.24527 0.0
C467 C 0.23958 0.45982 0.20086 0.0
C468 C 0.2579 0.45174 0.24935 0.0
C469 C 0.23062 0.43205 0.33187 0.0
C470 C 0.26785 0.45848 0.29795 0.0
C471 C 0.28311 0.45945 0.30112 0.0
C472 C 0.28872 0.45378 0.25561 0.0
C473 C 0.2788 0.4471 0.20689 0.0
C474 C 0.26353 0.44613 0.2037 0.0
H475 H 0.21843 0.42264 0.34826 0.0
H476 H 0.23726 0.42582 0.31635 0.0
H477 H 0.23762 0.44011 0.36828 0.0
H478 H 0.26392 0.46324 0.33306 0.0
H479 H 0.29067 0.46492 0.33869 0.0
H480 H 0.72369 0.16016 0.47027 0.0
H481 H 0.74999 0.18592 0.47451 0.0
H482 H 0.73694 0.20296 0.32261 0.0
H483 H 0.71057 0.17728 0.31868 0.0
H484 H 0.76993 0.20798 0.32388 0.0
H485 H 0.75438 0.23069 0.52086 0.0
H486 H 0.75167 0.21043 0.52557 0.0
H487 H 0.73905 0.21426 0.47764 0.0
C488 C 0.72651 0.16942 0.43779 0.0
C489 C 0.71522 0.16679 0.39405 0.0
C490 C 0.74146 0.1841 0.44031 0.0
C491 C 0.7453 0.19638 0.39919 0.0
C492 C 0.73418 0.19362 0.35472 0.0
H493 H 0.81882 0.29921 0.40616 0.0
H494 H 0.79354 0.27248 0.40179 0.0
C495 C 0.7192 0.17896 0.35234 0.0
C496 C 0.76083 0.21221 0.40294 0.0
H497 H 0.78135 0.24665 0.48508 0.0
C498 C 0.77247 0.21644 0.35912 0.0
C499 C 0.76397 0.22326 0.4487 0.0
C500 C 0.75159 0.21957 0.49573 0.0
C501 C 0.78729 0.23141 0.36013 0.0
C502 C 0.79055 0.24234 0.4064 0.0
C503 C 0.77884 0.23817 0.44995 0.0
C504 C 0.80586 0.25839 0.4095 0.0
C505 C 0.79922 0.23559 0.31118 0.0
C506 C 0.82109 0.25928 0.41609 0.0
C507 C 0.83548 0.27451 0.41856 0.0
C508 C 0.83482 0.28902 0.41435 0.0
C509 C 0.81958 0.28813 0.40874 0.0
C510 C 0.80519 0.27292 0.40647 0.0
H511 H 0.79345 0.22752 0.27344 0.0
H512 H 0.80425 0.24853 0.29769 0.0
H513 H 0.8096 0.23406 0.3255 0.0
H514 H 0.82182 0.24821 0.41947 0.0
H515 H 0.84714 0.27498 0.42329 0.0
H516 H 0.53054 0.70878 0.5013 0.0
H517 H 0.53117 0.73514 0.50778 0.0
H518 H 0.56839 0.75112 0.63859 0.0
H519 H 0.5677 0.72472 0.63238 0.0
H520 H 0.52687 0.74864 0.62615 0.0
H521 H 0.58438 0.78842 0.50522 0.0
H522 H 0.57209 0.76669 0.49142 0.0
H523 H 0.58409 0.77377 0.55563 0.0
C524 C 0.53901 0.71806 0.5307 0.0
C525 C 0.54921 0.71493 0.56592 0.0
C526 C 0.53932 0.73301 0.53457 0.0
C527 C 0.54991 0.74505 0.57336 0.0
C528 C 0.56026 0.74201 0.60805 0.0
H529 H 0.56922 0.84442 0.63775 0.0
H530 H 0.57037 0.81895 0.63657 0.0
C531 C 0.55986 0.727 0.60451 0.0
C532 C 0.54959 0.76049 0.57947 0.0
H533 H 0.57061 0.80113 0.54538 0.0
C534 C 0.5364 0.76014 0.60855 0.0
C535 C 0.56217 0.77543 0.55704 0.0
C536 C 0.57651 0.77625 0.5253 0.0
C537 C 0.53545 0.77443 0.61586 0.0
C538 C 0.54781 0.78935 0.59197 0.0
C539 C 0.56113 0.7897 0.56354 0.0
C540 C 0.54691 0.80462 0.59456 0.0
C541 C 0.52137 0.77342 0.65 0.0
C542 C 0.5334 0.80504 0.57115 0.0
C543 C 0.53265 0.81946 0.57251 0.0
C544 C 0.54553 0.83382 0.59634 0.0
C545 C 0.55908 0.83345 0.61959 0.0
C546 C 0.55978 0.81896 0.61861 0.0
H547 H 0.51618 0.76283 0.67998 0.0
H548 H 0.52522 0.78479 0.67513 0.0
H549 H 0.51147 0.77173 0.62016 0.0
H550 H 0.5235 0.79425 0.5512 0.0
H551 H 0.52202 0.81941 0.55468 0.0
H552 H 0.70402 0.5215 0.75184 0.0
H553 H 0.73072 0.52291 0.75021 0.0
H554 H 0.75487 0.57532 0.77306 0.0
H555 H 0.72812 0.57392 0.77351 0.0
H556 H 0.76874 0.56555 0.68644 0.0
H557 H 0.76096 0.53094 0.88764 0.0
H558 H 0.74461 0.52034 0.83704 0.0
H559 H 0.74786 0.53912 0.86884 0.0
C560 C 0.71507 0.5333 0.75622 0.0
C561 C 0.71414 0.54762 0.76243 0.0
C562 C 0.73027 0.53409 0.75586 0.0
C563 C 0.74476 0.5492 0.76227 0.0
C564 C 0.74383 0.56354 0.7683 0.0
H565 H 0.84106 0.56026 0.82615 0.0
H566 H 0.81578 0.56167 0.83215 0.0
C567 C 0.72861 0.56274 0.76866 0.0
C568 C 0.7609 0.55007 0.76125 0.0
H569 H 0.78358 0.5359 0.82834 0.0
C570 C 0.77204 0.55916 0.71765 0.0
C571 C 0.76525 0.5419 0.80248 0.0
C572 C 0.75412 0.53265 0.852 0.0
C573 C 0.78727 0.55993 0.71323 0.0
C574 C 0.79133 0.55119 0.75303 0.0
C575 C 0.78037 0.54247 0.79757 0.0
C576 C 0.80678 0.55073 0.74876 0.0
C577 C 0.79892 0.5702 0.66627 0.0
C578 C 0.81 0.54398 0.70018 0.0
C579 C 0.82437 0.54314 0.69682 0.0
C580 C 0.8357 0.54896 0.7421 0.0
C581 C 0.83246 0.55566 0.79078 0.0
C582 C 0.81808 0.55649 0.79417 0.0
H583 H 0.79601 0.57952 0.64984 0.0
H584 H 0.81179 0.57654 0.68167 0.0
H585 H 0.79791 0.56214 0.62993 0.0
H586 H 0.80127 0.53911 0.66525 0.0
H587 H 0.82647 0.53766 0.65928 0.0
H588 H 0.28086 0.84104 0.98328 0.0
H589 H 0.25449 0.81541 0.98985 0.0
H590 H 0.2639 0.79988 0.82714 0.0
H591 H 0.29042 0.82536 0.82099 0.0
H592 H 0.23048 0.7958 0.84551 0.0
H593 H 0.25142 0.76945 0.01726 0.0
H594 H 0.25526 0.78998 0.02827 0.0
H595 H 0.26554 0.78593 0.97128 0.0
C596 C 0.27723 0.83215 0.94891 0.0
C597 C 0.28758 0.83511 0.9016 0.0
C598 C 0.26223 0.81756 0.95271 0.0
C599 C 0.25735 0.80575 0.90916 0.0
C600 C 0.26748 0.80888 0.86111 0.0
H601 H 0.18379 0.70337 0.89879 0.0
H602 H 0.20889 0.73023 0.89588 0.0
C603 C 0.28254 0.82343 0.8575 0.0
C604 C 0.24188 0.78995 0.91437 0.0
H605 H 0.22373 0.75393 0.98893 0.0
C606 C 0.22894 0.78665 0.87694 0.0
C607 C 0.24005 0.77804 0.95514 0.0
C608 C 0.2538 0.78088 0.99516 0.0
C609 C 0.21411 0.7717 0.87944 0.0
C610 C 0.21222 0.75984 0.92058 0.0
C611 C 0.22521 0.76313 0.95779 0.0
C612 C 0.19709 0.74367 0.92402 0.0
C613 C 0.20068 0.76852 0.83734 0.0
C614 C 0.18224 0.74235 0.9418 0.0
C615 C 0.16793 0.72704 0.94356 0.0
C616 C 0.16829 0.71288 0.92725 0.0
C617 C 0.18322 0.71418 0.91077 0.0
C618 C 0.19752 0.72946 0.9093 0.0
H619 H 0.20513 0.77762 0.8019 0.0
H620 H 0.19543 0.75605 0.81866 0.0
H621 H 0.1907 0.7692 0.86009 0.0
H622 H 0.18173 0.75317 0.95409 0.0
H623 H 0.15654 0.72626 0.95665 0.0
H624 H 0.48385 0.11693 0.77378 0.0
H625 H 0.4733 0.11322 0.6758 0.0
H626 H 0.43535 0.12278 0.73304 0.0
H627 H 0.44637 0.1274 0.83025 0.0
H628 H 0.44274 0.09061 0.63501 0.0
H629 H 0.45536 0.15423 0.59922 0.0
H630 H 0.46383 0.14879 0.65903 0.0
H631 H 0.44283 0.14401 0.66053 0.0
C632 C 0.47332 0.11834 0.76542 0.0
C633 C 0.46572 0.12208 0.81008 0.0
C634 C 0.46725 0.11613 0.70955 0.0
C635 C 0.45355 0.11774 0.69719 0.0
C636 C 0.44599 0.12158 0.74157 0.0
H637 H 0.41144 0.08671 0.34985 0.0
H638 H 0.41216 0.08943 0.45476 0.0
C639 C 0.45213 0.12391 0.79744 0.0
C640 C 0.44733 0.11538 0.63765 0.0
H641 H 0.44282 0.13549 0.5236 0.0
C642 C 0.4426 0.10035 0.61067 0.0
C643 C 0.44718 0.12815 0.60625 0.0
C644 C 0.45269 0.14476 0.63242 0.0
C645 C 0.43838 0.09794 0.55235 0.0
C646 C 0.43854 0.11082 0.52061 0.0
C647 C 0.44259 0.12561 0.54826 0.0
C648 C 0.43689 0.11006 0.45736 0.0
C649 C 0.43474 0.08199 0.52456 0.0
C650 C 0.45023 0.12122 0.42414 0.0
C651 C 0.44979 0.11984 0.36464 0.0
C652 C 0.436 0.1072 0.33693 0.0
C653 C 0.4223 0.09647 0.37 0.0
C654 C 0.42272 0.09795 0.42988 0.0
H655 H 0.43808 0.0746 0.55268 0.0
H656 H 0.42144 0.07463 0.51527 0.0
H657 H 0.44147 0.08428 0.48338 0.0
H658 H 0.46127 0.13069 0.44443 0.0
H659 H 0.46051 0.12842 0.34055 0.0
H660 H 0.32669 0.45418 0.50482 0.0
H661 H 0.32568 0.45556 0.609 0.0
H662 H 0.34049 0.4192 0.62429 0.0
H663 H 0.34198 0.41803 0.51956 0.0
H664 H 0.3094 0.43337 0.69607 0.0
H665 H 0.37675 0.45847 0.70882 0.0
H666 H 0.36635 0.45632 0.64171 0.0
H667 H 0.36539 0.43871 0.67546 0.0
C668 C 0.32958 0.44633 0.53018 0.0
C669 C 0.33473 0.43622 0.50392 0.0
C670 C 0.32894 0.4471 0.58978 0.0
C671 C 0.33337 0.43776 0.62427 0.0
C672 C 0.3374 0.42679 0.59831 0.0
H673 H 0.35231 0.44713 0.99235 0.0
H674 H 0.34644 0.43665 0.89417 0.0
C675 C 0.33815 0.42607 0.53851 0.0
C676 C 0.33485 0.4405 0.687 0.0
H677 H 0.36289 0.45574 0.79552 0.0
C678 C 0.32105 0.43814 0.71798 0.0
C679 C 0.35012 0.44683 0.71528 0.0
C680 C 0.36555 0.45039 0.68369 0.0
C681 C 0.32217 0.44209 0.77648 0.0
C682 C 0.33749 0.4487 0.80429 0.0
C683 C 0.35117 0.45064 0.77381 0.0
C684 C 0.33981 0.45431 0.8645 0.0
C685 C 0.307 0.43926 0.80806 0.0
C686 C 0.33818 0.46781 0.87999 0.0
C687 C 0.34148 0.4738 0.93616 0.0
C688 C 0.34632 0.46627 0.97765 0.0
C689 C 0.34803 0.45282 0.96185 0.0
C690 C 0.34483 0.4469 0.90569 0.0
H691 H 0.29565 0.43059 0.78475 0.0
H692 H 0.30659 0.4344 0.85182 0.0
H693 H 0.3072 0.45109 0.81247 0.0
H694 H 0.33468 0.47392 0.84836 0.0
H695 H 0.34023 0.48429 0.94718 0.0
H696 H 0.91687 0.3281 0.66914 0.0
H697 H 0.91431 0.32516 0.77384 0.0
H698 H 0.8709 0.32951 0.76756 0.0
H699 H 0.87309 0.33203 0.6638 0.0
H700 H 0.91613 0.34793 0.84726 0.0
H701 H 0.85639 0.29179 0.87669 0.0
H702 H 0.86709 0.29699 0.80884 0.0
H703 H 0.85439 0.30552 0.82861 0.0
C704 C 0.90661 0.3281 0.69006 0.0
C705 C 0.89523 0.33036 0.6582 0.0
C706 C 0.90517 0.32643 0.74981 0.0
C707 C 0.89226 0.32685 0.7784 0.0
C708 C 0.8807 0.32869 0.74639 0.0
H709 H 0.88723 0.36772 0.09471 0.0
H710 H 0.89171 0.36112 0.99738 0.0
C711 C 0.88209 0.33031 0.68696 0.0
C712 C 0.89168 0.32718 0.84184 0.0
H713 H 0.86511 0.31167 0.95448 0.0
C714 C 0.90511 0.33977 0.87095 0.0
C715 C 0.87742 0.31637 0.87299 0.0
C716 C 0.8631 0.3018 0.84514 0.0
C717 C 0.90422 0.34257 0.92959 0.0
C718 C 0.88937 0.33275 0.95939 0.0
C719 C 0.87638 0.31942 0.93129 0.0
C720 C 0.88676 0.33668 0.01857 0.0
C721 C 0.9191 0.35618 0.95872 0.0
C722 C 0.88178 0.32489 0.06218 0.0
C723 C 0.87893 0.32855 0.11762 0.0
C724 C 0.88113 0.3441 0.13045 0.0
C725 C 0.88566 0.35571 0.08628 0.0
C726 C 0.88841 0.35202 0.03084 0.0
H727 H 0.93056 0.3586 0.93674 0.0
H728 H 0.91845 0.36761 0.95691 0.0
H729 H 0.91979 0.35325 0.00442 0.0
H730 H 0.88006 0.31285 0.05329 0.0
H731 H 0.8747 0.31906 0.14987 0.0
H732 H 0.53835 0.88706 0.83912 0.0
H733 H 0.53679 0.88222 0.94185 0.0
H734 H 0.58673 0.89226 0.94255 0.0
H735 H 0.58853 0.89736 0.83854 0.0
H736 H 0.54158 0.8582 -0.00179 0.0
H737 H 0.58504 0.92181 0.07188 0.0
H738 H 0.57637 0.91758 0.00061 0.0
H739 H 0.59207 0.91289 0.01865 0.0
C740 C 0.54909 0.88834 0.86086 0.0
C741 C 0.56359 0.89259 0.8306 0.0
C742 C 0.54814 0.88553 0.91965 0.0
C743 C 0.56164 0.88692 0.94966 0.0
C744 C 0.57624 0.8913 0.92005 0.0
H745 H 0.55775 0.8753 0.32493 0.0
H746 H 0.5674 0.87763 0.22575 0.0
C747 C 0.57723 0.89419 0.86077 0.0
C748 C 0.55993 0.88346 0.01185 0.0
H749 H 0.56988 0.90227 0.14255 0.0
C750 C 0.54796 0.86775 0.02991 0.0
C751 C 0.56834 0.89595 0.05291 0.0
C752 C 0.58113 0.91306 0.03542 0.0
C753 C 0.54358 0.86443 0.08783 0.0
C754 C 0.55127 0.87717 0.12839 0.0
C755 C 0.56396 0.89259 0.11097 0.0
C756 C 0.54533 0.87516 0.18803 0.0
C757 C 0.53041 0.84745 0.10502 0.0
C758 C 0.52974 0.873 0.19927 0.0
C759 C 0.52434 0.87198 0.2557 0.0
C760 C 0.53454 0.8733 0.30162 0.0
C761 C 0.54994 0.87493 0.29022 0.0
C762 C 0.55538 0.87607 0.23377 0.0
H763 H 0.52886 0.83816 0.07246 0.0
H764 H 0.53326 0.84393 0.1471 0.0
H765 H 0.51858 0.84724 0.10912 0.0
H766 H 0.52188 0.87241 0.16435 0.0
H767 H 0.51236 0.87054 0.26348 0.0
H768 H 0.66811 0.5417 0.00901 0.0
H769 H 0.67021 0.54143 0.11276 0.0
H770 H 0.6821 0.59194 0.12012 0.0
H771 H 0.67958 0.59223 0.01527 0.0
H772 H 0.695 0.55949 0.18875 0.0
H773 H 0.64171 0.56883 0.22277 0.0
H774 H 0.64675 0.56423 0.15313 0.0
H775 H 0.65866 0.58442 0.18285 0.0
C776 C 0.67125 0.55283 0.0324 0.0
C777 C 0.67344 0.56693 0.0039 0.0
C778 C 0.67252 0.55265 0.09182 0.0
C779 C 0.67607 0.56657 0.12417 0.0
C780 C 0.67904 0.58097 0.0959 0.0
H781 H 0.68476 0.55677 0.49663 0.0
H782 H 0.69136 0.56798 0.39958 0.0
C783 C 0.67768 0.58114 0.03607 0.0
C784 C 0.67566 0.56535 0.18749 0.0
H785 H 0.65258 0.56299 0.30381 0.0
C786 C 0.68591 0.56051 0.21423 0.0
C787 C 0.66367 0.56654 0.22028 0.0
C788 C 0.65196 0.57117 0.19349 0.0
C789 C 0.68397 0.55605 0.27234 0.0
C790 C 0.67169 0.55683 0.3047 0.0
C791 C 0.66197 0.56242 0.27868 0.0
C792 C 0.66774 0.55056 0.36414 0.0
C793 C 0.69443 0.54965 0.29765 0.0
C794 C 0.65218 0.53724 0.37656 0.0
C795 C 0.64825 0.53106 0.43227 0.0
C796 C 0.65976 0.53818 0.47667 0.0
C797 C 0.67541 0.5514 0.46398 0.0
C798 C 0.67931 0.55764 0.40825 0.0
H799 H 0.70087 0.54664 0.26402 0.0
H800 H 0.70383 0.55913 0.32611 0.0
H801 H 0.68689 0.53851 0.32381 0.0
H802 H 0.6431 0.53156 0.34298 0.0
H803 H 0.63612 0.52082 0.44074 0.0
H804 H 0.11622 0.69744 0.16412 0.0
H805 H 0.12164 0.69977 0.26802 0.0
H806 H 0.10648 0.64837 0.27482 0.0
H807 H 0.1016 0.64611 0.17168 0.0
H808 H 0.10344 0.68472 0.36463 0.0
H809 H 0.15251 0.66946 0.33845 0.0
H810 H 0.14368 0.67438 0.27833 0.0
H811 H 0.13373 0.65391 0.30738 0.0
C812 C 0.11387 0.68664 0.18813 0.0
C813 C 0.10872 0.67165 0.15999 0.0
C814 C 0.11701 0.68799 0.24725 0.0
C815 C 0.11492 0.67434 0.27864 0.0
C816 C 0.10869 0.65916 0.25104 0.0
H817 H 0.1016 0.64876 0.63195 0.0
H818 H 0.09954 0.65602 0.53293 0.0
C819 C 0.10581 0.65787 0.19221 0.0
C820 C 0.11958 0.67578 0.33989 0.0
H821 H 0.14098 0.66572 0.43319 0.0
C822 C 0.11184 0.68082 0.37974 0.0
C823 C 0.13093 0.67119 0.35939 0.0
C824 C 0.14082 0.66712 0.31852 0.0
C825 C 0.11436 0.68037 0.43896 0.0
C826 C 0.12449 0.67422 0.45858 0.0
C827 C 0.13299 0.67018 0.41842 0.0
C828 C 0.12576 0.67092 0.52008 0.0
C829 C 0.10611 0.68643 0.47966 0.0
C830 C 0.14117 0.67637 0.54538 0.0
C831 C 0.14233 0.67183 0.60149 0.0
C832 C 0.12812 0.66201 0.63347 0.0
C833 C 0.11273 0.65667 0.6085 0.0
C834 C 0.11156 0.66094 0.55208 0.0
H835 H 0.10434 0.6961 0.45927 0.0
H836 H 0.09381 0.67613 0.49102 0.0
H837 H 0.1133 0.69145 0.51968 0.0
H838 H 0.1523 0.68395 0.52141 0.0
H839 H 0.15433 0.67606 0.62 0.0
H840 H 0.90466 0.54973 0.00931 0.0
H841 H 0.90853 0.55819 0.1099 0.0
H842 H 0.85739 0.52436 0.14294 0.0
H843 H 0.85354 0.51565 0.04224 0.0
H844 H 0.89471 0.57189 0.17659 0.0
H845 H 0.87969 0.51086 0.26119 0.0
H846 H 0.88305 0.51584 0.18587 0.0
H847 H 0.86367 0.51042 0.21837 0.0
C848 C 0.8942 0.54427 0.03785 0.0
C849 C 0.87876 0.53217 0.01811 0.0
C850 C 0.89644 0.54905 0.09531 0.0
C851 C 0.88329 0.54178 0.13394 0.0
C852 C 0.86778 0.52989 0.11404 0.0
H853 H 0.87422 0.55473 0.49603 0.0
H854 H 0.86986 0.55214 0.39235 0.0
C855 C 0.86557 0.52497 0.05664 0.0
C856 C 0.88598 0.54643 0.19525 0.0
H857 H 0.88335 0.531 0.32974 0.0
C858 C 0.89225 0.56297 0.2101 0.0
C859 C 0.88289 0.53476 0.23876 0.0
C860 C 0.87711 0.51701 0.22534 0.0
C861 C 0.89535 0.56808 0.26756 0.0
C862 C 0.89202 0.55636 0.31075 0.0
C863 C 0.88574 0.53988 0.2961 0.0
C864 C 0.89526 0.56086 0.37175 0.0
C865 C 0.90209 0.5859 0.28215 0.0
C866 C 0.91108 0.567 0.39391 0.0
C867 C 0.91363 0.56839 0.45319 0.0
C868 C 0.90036 0.56359 0.49094 0.0
C869 C 0.8847 0.55844 0.46816 0.0
C870 C 0.88216 0.55697 0.40899 0.0
H871 H 0.90283 0.59331 0.24398 0.0
H872 H 0.89427 0.58713 0.31516 0.0
H873 H 0.91454 0.59095 0.30067 0.0
H874 H 0.92128 0.56993 0.36549 0.0
H875 H 0.92584 0.57245 0.46938 0.0
H876 H 0.30497 0.88978 0.65246 0.0
H877 H 0.30353 0.88427 0.54873 0.0
H878 H 0.35389 0.89555 0.55097 0.0
H879 H 0.35511 0.90028 0.6541 0.0
H880 H 0.31934 0.90125 0.45519 0.0
H881 H 0.33222 0.85067 0.48283 0.0
H882 H 0.32771 0.85987 0.54275 0.0
H883 H 0.34824 0.86903 0.51448 0.0
C884 C 0.31572 0.89118 0.63047 0.0
C885 C 0.33007 0.89521 0.66117 0.0
C886 C 0.31489 0.88799 0.57141 0.0
C887 C 0.32845 0.88898 0.54248 0.0
C888 C 0.34308 0.89408 0.57272 0.0
H889 H 0.35427 0.90156 0.18654 0.0
H890 H 0.3476 0.90423 0.28588 0.0
C891 C 0.34381 0.89692 0.63156 0.0
C892 C 0.3275 0.88455 0.48094 0.0
H893 H 0.33727 0.8627 0.38851 0.0
C894 C 0.32302 0.89264 0.44053 0.0
C895 C 0.33178 0.87292 0.4618 0.0
C896 C 0.33506 0.8625 0.50288 0.0
C897 C 0.32363 0.89011 0.38135 0.0
C898 C 0.32947 0.87968 0.36219 0.0
C899 C 0.33307 0.87093 0.40283 0.0
C900 C 0.33265 0.87809 0.30067 0.0
C901 C 0.31792 0.8986 0.34029 0.0
C902 C 0.32704 0.86253 0.27624 0.0
C903 C 0.33132 0.86102 0.22007 0.0
C904 C 0.34101 0.87504 0.18701 0.0
C905 C 0.34649 0.89058 0.21097 0.0
C906 C 0.34254 0.8921 0.26756 0.0
H907 H 0.30837 0.90061 0.36029 0.0
H908 H 0.32841 0.91081 0.32912 0.0
H909 H 0.31288 0.89144 0.30022 0.0
H910 H 0.3195 0.85153 0.3009 0.0
H911 H 0.32699 0.84891 0.20233 0.0
H912 H 0.44655 0.31838 0.34079 0.0
H913 H 0.43499 0.31247 0.43737 0.0
H914 H 0.47169 0.36086 0.49185 0.0
H915 H 0.4827 0.36719 0.3945 0.0
H916 H 0.44817 0.31134 0.53678 0.0
H917 H 0.43066 0.35907 0.55082 0.0
H918 H 0.43621 0.35352 0.4838 0.0
H919 H 0.45183 0.36782 0.53173 0.0
C920 C 0.45184 0.32796 0.37269 0.0
C921 C 0.46517 0.34349 0.35934 0.0
C922 C 0.44535 0.32447 0.42818 0.0
C923 C 0.45215 0.3364 0.47139 0.0
C924 C 0.46587 0.35167 0.45871 0.0
H925 H 0.45938 0.33138 0.82787 0.0
H926 H 0.45954 0.32887 0.72425 0.0
C927 C 0.47229 0.3552 0.4032 0.0
C928 C 0.4455 0.33271 0.53052 0.0
H929 H 0.43404 0.3485 0.64113 0.0
C930 C 0.44481 0.3193 0.55933 0.0
C931 C 0.44064 0.34279 0.55952 0.0
C932 C 0.43968 0.35648 0.5296 0.0
C933 C 0.4405 0.31639 0.61752 0.0
C934 C 0.43722 0.32745 0.64792 0.0
C935 C 0.43678 0.34016 0.61809 0.0
C936 C 0.436 0.32717 0.71134 0.0
C937 C 0.43977 0.30166 0.64596 0.0
C938 C 0.4228 0.32733 0.73881 0.0
C939 C 0.42279 0.32905 0.7985 0.0
C940 C 0.43603 0.33073 0.83149 0.0
C941 C 0.44897 0.3301 0.80387 0.0
C942 C 0.44901 0.32848 0.74448 0.0
H943 H 0.43627 0.29155 0.61466 0.0
H944 H 0.45207 0.30508 0.66287 0.0
H945 H 0.43088 0.29709 0.68205 0.0
H946 H 0.4127 0.32649 0.71394 0.0
H947 H 0.41265 0.3295 0.8185 0.0
H948 H 0.15016 0.4899 0.54271 0.0
H949 H 0.14635 0.48184 0.64417 0.0
H950 H 0.09636 0.44481 0.60935 0.0
H951 H 0.09999 0.45293 0.50872 0.0
H952 H 0.12329 0.48226 0.71842 0.0
H953 H 0.11431 0.41959 0.69969 0.0
H954 H 0.12331 0.43464 0.64316 0.0
H955 H 0.10147 0.42342 0.65281 0.0
C956 C 0.13842 0.47996 0.55676 0.0
C957 C 0.12552 0.47173 0.51758 0.0
C958 C 0.13628 0.47534 0.61449 0.0
C959 C 0.12121 0.46245 0.63375 0.0
C960 C 0.10825 0.4544 0.59487 0.0
H961 H 0.07986 0.44435 0.97187 0.0
H962 H 0.08485 0.44739 0.8685 0.0
C963 C 0.11037 0.45902 0.53729 0.0
C964 C 0.11858 0.45817 0.69525 0.0
H965 H 0.10698 0.42649 0.78945 0.0
C966 C 0.11987 0.47012 0.73405 0.0
C967 C 0.11422 0.44234 0.71536 0.0
C968 C 0.11338 0.42928 0.67571 0.0
C969 C 0.11644 0.46652 0.79241 0.0
C970 C 0.11142 0.45051 0.81211 0.0
C971 C 0.11062 0.43868 0.77376 0.0
C972 C 0.10706 0.44604 0.87276 0.0
C973 C 0.11818 0.47986 0.83265 0.0
C974 C 0.11752 0.4435 0.90858 0.0
C975 C 0.11471 0.44175 0.96768 0.0
C976 C 0.10138 0.44248 0.99157 0.0
C977 C 0.0903 0.44386 0.95487 0.0
C978 C 0.09314 0.44564 0.89587 0.0
H979 H 0.12535 0.49222 0.81308 0.0
H980 H 0.10584 0.47781 0.84357 0.0
H981 H 0.12425 0.47961 0.87319 0.0
H982 H 0.12828 0.44371 0.8912 0.0
H983 H 0.12342 0.4406 0.99481 0.0
H984 H 0.67848 0.1528 0.69748 0.0
H985 H 0.68651 0.15064 0.7957 0.0
H986 H 0.65816 0.09788 0.78396 0.0
H987 H 0.65102 0.10009 0.6849 0.0
H988 H 0.66898 0.14011 0.88354 0.0
H989 H 0.69718 0.1015 0.85933 0.0
H990 H 0.69273 0.1104 0.79829 0.0
H991 H 0.67715 0.09119 0.82814 0.0
C992 C 0.67424 0.14078 0.71584 0.0
C993 C 0.66431 0.12661 0.68389 0.0
C994 C 0.67884 0.13953 0.77178 0.0
C995 C 0.67326 0.12408 0.79708 0.0
C996 C 0.6632 0.10992 0.76493 0.0
H997 H 0.64814 0.10202 0.14687 0.0
H998 H 0.65057 0.10697 0.04377 0.0
C999 C 0.65896 0.11118 0.70854 0.0
C1000 C 0.67645 0.12276 0.85873 0.0
H1001 H 0.68558 0.10085 0.95361 0.0
C1002 C 0.67293 0.13175 0.89858 0.0
C1003 C 0.68198 0.11216 0.87887 0.0
C1004 C 0.68765 0.10344 0.83872 0.0
C1005 C 0.67386 0.12975 0.9577 0.0
C1006 C 0.67769 0.11788 0.97772 0.0
C1007 C 0.68223 0.10963 0.93819 0.0
C1008 C 0.676 0.11325 0.03915 0.0
C1009 C 0.6706 0.14034 -0.00197 0.0
C1010 C 0.68915 0.114 0.07013 0.0
C1011 C 0.68763 0.11071 0.12917 0.0
C1012 C 0.67298 0.10679 0.1577 0.0
C1013 C 0.65965 0.10528 0.12599 0.0
C1014 C 0.66107 0.10824 0.06719 0.0
H1015 H 0.67385 0.15227 0.97782 0.0
H1016 H 0.65734 0.13406 0.00844 0.0
H1017 H 0.67762 0.14277 0.03858 0.0
H1018 H 0.70073 0.11765 0.0491 0.0
H1019 H 0.69807 0.11195 0.15284 0.0
H1020 H 0.55141 0.64627 0.32267 0.0
H1021 H 0.5487 0.64714 0.2189 0.0
H1022 H 0.58006 0.6997 0.2215 0.0
H1023 H 0.58342 0.69873 0.32577 0.0
H1024 H 0.53447 0.66156 0.1681 0.0
H1025 H 0.59777 0.68802 0.0835 0.0
H1026 H 0.59244 0.68065 0.15621 0.0
H1027 H 0.59535 0.7004 0.13678 0.0
C1028 C 0.55803 0.65797 0.30086 0.0
C1029 C 0.56763 0.67243 0.33188 0.0
C1030 C 0.55645 0.65846 0.24165 0.0
C1031 C 0.56419 0.67347 0.21229 0.0
C1032 C 0.57424 0.68794 0.24299 0.0
H1033 H 0.52308 0.67488 0.87572 0.0
H1034 H 0.53242 0.68124 0.97553 0.0
C1035 C 0.57612 0.6874 0.30247 0.0
C1036 C 0.56038 0.67381 0.15075 0.0
H1037 H 0.57712 0.68399 0.01672 0.0
C1038 C 0.54381 0.66648 0.13499 0.0
C1039 C 0.57257 0.68021 0.10767 0.0
C1040 C 0.59053 0.68764 0.12167 0.0
C1041 C 0.53903 0.66485 0.07739 0.0
C1042 C 0.55121 0.67139 0.03421 0.0
C1043 C 0.56782 0.67911 0.04995 0.0
C1044 C 0.5469 0.66923 0.97244 0.0
C1045 C 0.52096 0.65544 0.06351 0.0
C1046 C 0.55253 0.66106 0.9369 0.0
C1047 C 0.54751 0.65776 0.87976 0.0
C1048 C 0.5367 0.66252 0.85731 0.0
C1049 C 0.53132 0.67099 0.89239 0.0
C1050 C 0.5366 0.67456 0.94932 0.0
H1051 H 0.51362 0.64758 0.09991 0.0
H1052 H 0.51664 0.66421 0.05447 0.0
H1053 H 0.51851 0.64754 0.02521 0.0
H1054 H 0.56044 0.65678 0.95385 0.0
H1055 H 0.55162 0.65098 0.85378 0.0
H1056 H 0.49848 0.12075 0.25141 0.0
H1057 H 0.52336 0.12269 0.29092 0.0
H1058 H 0.54172 0.12482 0.11972 0.0
H1059 H 0.51698 0.12324 0.07964 0.0
H1060 H 0.53437 0.1014 0.27676 0.0
H1061 H 0.58089 0.16263 0.19635 0.0
H1062 H 0.55923 0.15561 0.1949 0.0
H1063 H 0.56828 0.14904 0.1406 0.0
C1064 C 0.50786 0.12178 0.22202 0.0
C1065 C 0.50573 0.12186 0.16227 0.0
C1066 C 0.52208 0.12289 0.24476 0.0
C1067 C 0.5345 0.12412 0.20837 0.0
C1068 C 0.53247 0.12427 0.14869 0.0
H1069 H 0.62198 0.11811 0.25136 0.0
H1070 H 0.59854 0.12002 0.21705 0.0
C1071 C 0.51827 0.12327 0.12583 0.0
C1072 C 0.54913 0.12434 0.23302 0.0
H1073 H 0.59096 0.14603 0.23614 0.0
C1074 C 0.54673 0.11124 0.26831 0.0
C1075 C 0.56526 0.13719 0.22198 0.0
C1076 C 0.56861 0.15199 0.18685 0.0
C1077 C 0.56003 0.11043 0.29169 0.0
C1078 C 0.57614 0.12314 0.27993 0.0
C1079 C 0.57857 0.13631 0.24507 0.0
C1080 C 0.59064 0.12261 0.30153 0.0
C1081 C 0.55679 0.09576 0.32748 0.0
C1082 C 0.59408 0.12368 0.3605 0.0
C1083 C 0.60753 0.12262 0.38044 0.0
C1084 C 0.61774 0.12045 0.34167 0.0
C1085 C 0.61435 0.11968 0.28253 0.0
C1086 C 0.60098 0.12082 0.26272 0.0
H1087 H 0.54391 0.08563 0.32357 0.0
H1088 H 0.56508 0.09112 0.31466 0.0
H1089 H 0.55919 0.09943 0.37327 0.0
H1090 H 0.58632 0.12527 0.39106 0.0
H1091 H 0.60981 0.12333 0.42619 0.0
H1092 H 0.39549 0.51624 0.24976 0.0
H1093 H 0.41864 0.54079 0.29131 0.0
H1094 H 0.40132 0.52216 0.46143 0.0
H1095 H 0.37843 0.49752 0.42059 0.0
H1096 H 0.41974 0.56437 0.36485 0.0
H1097 H 0.44822 0.53147 0.46694 0.0
H1098 H 0.43206 0.52195 0.41445 0.0
H1099 H 0.42731 0.52386 0.48782 0.0
C1100 C 0.3966 0.51737 0.29602 0.0
C1101 C 0.38519 0.50481 0.33179 0.0
C1102 C 0.40983 0.53141 0.31968 0.0
C1103 C 0.41188 0.53314 0.37945 0.0
C1104 C 0.40022 0.52089 0.41521 0.0
H1105 H 0.48693 0.60908 0.59756 0.0
H1106 H 0.46151 0.58565 0.5618 0.0
C1107 C 0.38708 0.50683 0.39168 0.0
C1108 C 0.42622 0.54774 0.4045 0.0
H1109 H 0.4597 0.55959 0.49019 0.0
C1110 C 0.4285 0.56333 0.39215 0.0
C1111 C 0.43763 0.54636 0.4402 0.0
C1112 C 0.43631 0.53003 0.45277 0.0
C1113 C 0.44182 0.57757 0.4149 0.0
C1114 C 0.4532 0.57616 0.45045 0.0
C1115 C 0.45086 0.56059 0.46327 0.0
C1116 C 0.46815 0.59073 0.4722 0.0
C1117 C 0.44355 0.594 0.40112 0.0
C1118 C 0.48029 0.60123 0.43365 0.0
C1119 C 0.4948 0.61451 0.45382 0.0
C1120 C 0.49751 0.61758 0.51309 0.0
C1121 C 0.48523 0.60711 0.55169 0.0
C1122 C 0.47072 0.59372 0.53138 0.0
H1123 H 0.43184 0.59278 0.38566 0.0
H1124 H 0.44773 0.60213 0.43933 0.0
H1125 H 0.45285 0.59999 0.36679 0.0
H1126 H 0.47866 0.59897 0.38788 0.0
H1127 H 0.50397 0.6223 0.42279 0.0
H1128 H 0.88058 0.37969 0.5684 0.0
H1129 H 0.87897 0.40314 0.60428 0.0
H1130 H 0.87852 0.41875 0.43066 0.0
H1131 H 0.87981 0.39505 0.3941 0.0
H1132 H 0.90134 0.43535 0.58744 0.0
H1133 H 0.84071 0.42155 0.50267 0.0
H1134 H 0.84717 0.40646 0.50456 0.0
H1135 H 0.85452 0.42178 0.44911 0.0
C1136 C 0.87999 0.388 0.53766 0.0
C1137 C 0.88033 0.38546 0.47828 0.0
C1138 C 0.87907 0.40141 0.55834 0.0
C1139 C 0.87845 0.4126 0.52022 0.0
C1140 C 0.87864 0.41008 0.46088 0.0
H1141 H 0.88413 0.50657 0.57276 0.0
H1142 H 0.88267 0.48191 0.53255 0.0
C1143 C 0.87947 0.39657 0.44005 0.0
C1144 C 0.87854 0.42735 0.54301 0.0
H1145 H 0.85705 0.44772 0.5454 0.0
C1146 C 0.89161 0.43801 0.57844 0.0
C1147 C 0.86587 0.43082 0.53106 0.0
C1148 C 0.85119 0.41949 0.4952 0.0
C1149 C 0.89243 0.45211 0.60191 0.0
C1150 C 0.87974 0.45554 0.59015 0.0
C1151 C 0.86673 0.445 0.55435 0.0
C1152 C 0.87987 0.4701 0.61463 0.0
C1153 C 0.90699 0.46337 0.63839 0.0
C1154 C 0.87848 0.47146 0.67406 0.0
C1155 C 0.87927 0.48553 0.6973 0.0
C1156 C 0.88148 0.49849 0.66143 0.0
C1157 C 0.88251 0.49688 0.60171 0.0
C1158 C 0.88164 0.48278 0.57856 0.0
H1159 H 0.91731 0.46095 0.63299 0.0
H1160 H 0.91137 0.47639 0.62761 0.0
H1161 H 0.90333 0.46149 0.68425 0.0
H1162 H 0.87688 0.46168 0.70252 0.0
H1163 H 0.87837 0.48631 0.7434 0.0
H1164 H 0.38201 0.86212 0.89054 0.0
H1165 H 0.40464 0.86018 0.84692 0.0
H1166 H 0.41519 0.90115 0.73681 0.0
H1167 H 0.392 0.90239 0.77761 0.0
H1168 H 0.41747 0.87963 0.67736 0.0
H1169 H 0.45183 0.88753 0.87882 0.0
H1170 H 0.43175 0.86985 0.88081 0.0
H1171 H 0.4341 0.89 0.87606 0.0
C1172 C 0.38923 0.87073 0.85717 0.0
C1173 C 0.38532 0.88245 0.83762 0.0
C1174 C 0.40223 0.86969 0.83249 0.0
C1175 C 0.41191 0.88075 0.78931 0.0
C1176 C 0.40796 0.89247 0.76998 0.0
H1177 H 0.50987 0.90451 0.7008 0.0
H1178 H 0.48484 0.90293 0.73685 0.0
C1179 C 0.39473 0.89321 0.79348 0.0
C1180 C 0.42606 0.88015 0.76346 0.0
H1181 H 0.46169 0.88081 0.79577 0.0
C1182 C 0.42719 0.87997 0.7033 0.0
C1183 C 0.43884 0.88073 0.79713 0.0
C1184 C 0.43918 0.88221 0.86171 0.0
C1185 C 0.44082 0.88069 0.67593 0.0
C1186 C 0.45338 0.88083 0.70964 0.0
C1187 C 0.45206 0.88063 0.76978 0.0
C1188 C 0.4685 0.88216 0.68415 0.0
C1189 C 0.44186 0.88201 0.61134 0.0
C1190 C 0.46778 0.87118 0.64175 0.0
C1191 C 0.48221 0.87243 0.61971 0.0
C1192 C 0.49752 0.8843 0.6412 0.0
C1193 C 0.49821 0.8952 0.68362 0.0
C1194 C 0.48389 0.89426 0.70439 0.0
H1195 H 0.43405 0.88675 0.59396 0.0
H1196 H 0.45464 0.89021 0.59681 0.0
H1197 H 0.43744 0.86966 0.5927 0.0
H1198 H 0.45611 0.86143 0.62654 0.0
H1199 H 0.48137 0.86373 0.58756 0.0
H1200 H 0.5168 0.3937 0.09214 0.0
H1201 H 0.5417 0.41714 0.05374 0.0
H1202 H 0.52329 0.40283 0.88163 0.0
H1203 H 0.49844 0.37938 0.91926 0.0
H1204 H 0.55724 0.41178 0.89813 0.0
H1205 H 0.54258 0.45817 0.98264 0.0
H1206 H 0.54202 0.44369 0.03413 0.0
H1207 H 0.52739 0.43673 0.97664 0.0
C1208 C 0.51807 0.39549 0.04611 0.0
C1209 C 0.50555 0.38471 0.00885 0.0
C1210 C 0.53227 0.40892 0.02429 0.0
C1211 C 0.53421 0.4118 0.96493 0.0
C1212 C 0.52198 0.40084 0.92759 0.0
H1213 H 0.60829 0.48656 0.74228 0.0
H1214 H 0.58497 0.46156 0.7806 0.0
C1215 C 0.50776 0.38747 0.94929 0.0
C1216 C 0.54884 0.42638 0.94153 0.0
H1217 H 0.56813 0.46812 0.93673 0.0
C1218 C 0.55966 0.42412 0.90648 0.0
C1219 C 0.55188 0.44242 0.95244 0.0
C1220 C 0.54032 0.44549 0.98812 0.0
C1221 C 0.57366 0.43753 0.88281 0.0
C1222 C 0.57667 0.45359 0.89355 0.0
C1223 C 0.56581 0.45581 0.92857 0.0
C1224 C 0.59112 0.46834 0.86973 0.0
C1225 C 0.58526 0.4344 0.84766 0.0
C1226 C 0.60216 0.48056 0.90699 0.0
C1227 C 0.61536 0.4949 0.88529 0.0
C1228 C 0.61781 0.49736 0.82571 0.0
C1229 C 0.60682 0.48502 0.78835 0.0
C1230 C 0.59354 0.47067 0.8102 0.0
H1231 H 0.58362 0.42208 0.85635 0.0
H1232 H 0.58283 0.43502 0.8014 0.0
H1233 H 0.5982 0.44377 0.85649 0.0
H1234 H 0.60052 0.47904 0.95305 0.0
H1235 H 0.62358 0.5041 0.91541 0.0
H1236 H 0.11941 0.49481 0.07046 0.0
H1237 H 0.12165 0.51944 0.02726 0.0
H1238 H 0.12631 0.54045 0.19545 0.0
H1239 H 0.12446 0.51599 0.23914 0.0
H1240 H 0.10152 0.53186 0.0407 0.0
H1241 H 0.16408 0.57771 0.11137 0.0
H1242 H 0.15633 0.55593 0.11615 0.0
H1243 H 0.15099 0.56619 0.16986 0.0
C1244 C 0.12105 0.50471 0.09838 0.0
C1245 C 0.1218 0.50342 0.15836 0.0
C1246 C 0.12233 0.5188 0.07353 0.0
C1247 C 0.12441 0.5319 0.108 0.0
C1248 C 0.12513 0.53066 0.16788 0.0
H1249 H 0.11995 0.61976 0.06523 0.0
H1250 H 0.12181 0.59615 0.09782 0.0
C1251 C 0.12396 0.51661 0.19283 0.0
C1252 C 0.12496 0.54649 0.08142 0.0
H1253 H 0.14756 0.58824 0.07394 0.0
C1254 C 0.11167 0.54418 0.04741 0.0
C1255 C 0.13825 0.56254 0.09006 0.0
C1256 C 0.1533 0.56576 0.12336 0.0
C1257 C 0.11105 0.55752 0.02346 0.0
C1258 C 0.12412 0.57357 0.0334 0.0
C1259 C 0.13755 0.57589 0.0665 0.0
C1260 C 0.12363 0.58816 0.01257 0.0
C1261 C 0.09617 0.55443 0.98933 0.0
C1262 C 0.12427 0.5916 0.9537 0.0
C1263 C 0.12326 0.60517 0.93473 0.0
C1264 C 0.12153 0.61547 0.97441 0.0
C1265 C 0.12117 0.61206 0.03339 0.0
C1266 C 0.12228 0.59859 0.05221 0.0
H1267 H 0.08598 0.54158 0.99362 0.0
H1268 H 0.09175 0.56281 0.00336 0.0
H1269 H 0.0995 0.55686 0.94327 0.0
H1270 H 0.12549 0.58376 0.92249 0.0
H1271 H 0.12362 0.60746 0.88906 0.0
H1272 H 0.41107 0.06415 0.12682 0.0
H1273 H 0.39334 0.03536 0.09997 0.0
H1274 H 0.43079 0.03862 0.98503 0.0
H1275 H 0.448 0.06749 0.00901 0.0
H1276 H 0.40308 0.02244 0.93534 0.0
H1277 H 0.39582 0.99699 0.15479 0.0
H1278 H 0.38826 0.01099 0.14833 0.0
H1279 H 0.40979 0.01825 0.13902 0.0
C1280 C 0.41547 0.05867 0.09585 0.0
C1281 C 0.43093 0.06804 0.07015 0.0
C1282 C 0.40539 0.04218 0.08085 0.0
C1283 C 0.41083 0.03464 0.04133 0.0
C1284 C 0.42626 0.04408 0.01561 0.0
H1285 H 0.37906 0.93255 0.00332 0.0
H1286 H 0.39098 0.96123 0.03084 0.0
C1287 C 0.43613 0.0606 0.02945 0.0
C1288 C 0.40058 0.01701 0.02579 0.0
H1289 H 0.38047 0.97829 0.08131 0.0
C1290 C 0.39816 0.01279 0.96733 0.0
C1291 C 0.39424 0.00436 0.06742 0.0
C1292 C 0.39728 0.00784 0.13083 0.0
C1293 C 0.39007 0.99638 0.94925 0.0
C1294 C 0.38343 0.98373 0.99086 0.0
C1295 C 0.38544 0.98795 0.04935 0.0
C1296 C 0.37551 0.96607 0.97502 0.0
C1297 C 0.38952 0.99289 0.88578 0.0
C1298 C 0.3626 0.95904 0.9351 0.0
C1299 C 0.35606 0.94269 0.91805 0.0
C1300 C 0.36192 0.93293 0.94211 0.0
C1301 C 0.37428 0.93976 0.98399 0.0
C1302 C 0.38108 0.95617 -0.00014 0.0
H1303 H 0.39915 0.00359 0.86188 0.0
H1304 H 0.39119 0.98222 0.87745 0.0
H1305 H 0.37748 0.99017 0.86829 0.0
H1306 H 0.35766 0.9662 0.91676 0.0
H1307 H 0.34638 0.93768 0.8863 0.0
H1308 H 0.42402 0.3654 0.01576 0.0
H1309 H 0.40768 0.37787 0.04463 0.0
H1310 H 0.41631 0.37215 0.22266 0.0
H1311 H 0.433 0.3602 0.19431 0.0
H1312 H 0.38017 0.36768 0.10945 0.0
H1313 H 0.43279 0.42063 0.21448 0.0
H1314 H 0.43523 0.40639 0.1697 0.0
H1315 H 0.42876 0.40132 0.24319 0.0
C1316 C 0.42235 0.36673 0.06105 0.0
C1317 C 0.43001 0.36205 0.10272 0.0
C1318 C 0.41302 0.37385 0.07749 0.0
C1319 C 0.41112 0.37633 0.1358 0.0
C1320 C 0.41802 0.37084 0.17742 0.0
H1321 H 0.36208 0.4206 0.31758 0.0
H1322 H 0.37395 0.40358 0.29064 0.0
C1323 C 0.4275 0.36392 0.16109 0.0
C1324 C 0.40227 0.38498 0.15318 0.0
H1325 H 0.40666 0.41804 0.22864 0.0
C1326 C 0.38597 0.37871 0.13537 0.0
C1327 C 0.40989 0.39945 0.18676 0.0
C1328 C 0.42767 0.40745 0.20418 0.0
C1329 C 0.37705 0.38641 0.15094 0.0
C1330 C 0.38462 0.4007 0.18509 0.0
C1331 C 0.40086 0.40695 0.203 0.0
C1332 C 0.37621 0.40986 0.20056 0.0
C1333 C 0.35955 0.37922 0.13121 0.0
C1334 C 0.37359 0.41898 0.15875 0.0
C1335 C 0.36699 0.42883 0.17399 0.0
C1336 C 0.3628 0.42967 0.23138 0.0
C1337 C 0.3651 0.42019 0.273 0.0
C1338 C 0.37188 0.41047 0.25774 0.0
H1339 H 0.35459 0.36666 0.11359 0.0
H1340 H 0.35165 0.37881 0.16727 0.0
H1341 H 0.35893 0.38712 0.09717 0.0
H1342 H 0.37706 0.41882 0.11453 0.0
H1343 H 0.36545 0.43599 0.14084 0.0
H1344 H 0.07322 0.43752 0.36059 0.0
H1345 H 0.04446 0.42086 0.38828 0.0
H1346 H 0.03192 0.40301 0.21488 0.0
H1347 H 0.06072 0.41946 0.18666 0.0
H1348 H 0.01422 0.41915 0.27415 0.0
H1349 H 0.01426 0.3682 0.39509 0.0
H1350 H 0.03073 0.38878 0.4078 0.0
H1351 H 0.02905 0.37938 0.33938 0.0
C1352 C 0.06443 0.42988 0.32842 0.0
C1353 C 0.06932 0.42982 0.27136 0.0
C1354 C 0.048 0.42035 0.34443 0.0
C1355 C 0.03615 0.41065 0.30368 0.0
C1356 C 0.04095 0.41035 0.24696 0.0
H1357 H 0.93 0.36123 0.30078 0.0
H1358 H 0.95892 0.37335 0.27605 0.0
C1359 C 0.05741 0.41976 0.23098 0.0
C1360 C 0.0186 0.40182 0.31937 0.0
H1361 H 0.98958 0.36894 0.39425 0.0
C1362 C 0.00877 0.40812 0.30015 0.0
C1363 C 0.0117 0.38762 0.35396 0.0
C1364 C 0.02189 0.38045 0.37525 0.0
C1365 C 0.99216 0.40066 0.31511 0.0
C1366 C 0.98508 0.38619 0.34873 0.0
C1367 C 0.99499 0.37995 0.36823 0.0
C1368 C 0.96742 0.37745 0.36403 0.0
C1369 C 0.9825 0.40866 0.29608 0.0
C1370 C 0.96248 0.37488 0.42178 0.0
C1371 C 0.94587 0.36766 0.43614 0.0
C1372 C 0.93394 0.36297 0.39292 0.0
C1373 C 0.9389 0.36495 0.33514 0.0
C1374 C 0.95545 0.37196 0.32089 0.0
H1375 H 0.99064 0.42187 0.28627 0.0
H1376 H 0.97565 0.4026 0.25638 0.0
H1377 H 0.97358 0.40752 0.32943 0.0
H1378 H 0.97151 0.3789 0.45577 0.0
H1379 H 0.94244 0.36626 0.48103 0.0
H1380 H 0.57579 0.92853 0.4669 0.0
H1381 H 0.5933 0.95725 0.44069 0.0
H1382 H 0.59442 0.97129 0.61753 0.0
H1383 H 0.57699 0.9425 0.64408 0.0
H1384 H 0.58522 0.98085 0.45239 0.0
H1385 H 0.64222 0.99856 0.57389 0.0
H1386 H 0.62661 0.97745 0.56305 0.0
H1387 H 0.62422 0.98948 0.6181 0.0
C1388 C 0.5798 0.93769 0.50026 0.0
C1389 C 0.57481 0.93322 0.55741 0.0
C1390 C 0.58992 0.95412 0.48527 0.0
C1391 C 0.5953 0.96643 0.52716 0.0
C1392 C 0.59073 0.96199 0.58462 0.0
H1393 H 0.63777 0.07137 0.52224 0.0
H1394 H 0.62621 0.04252 0.54753 0.0
C1395 C 0.58069 0.94552 0.59969 0.0
C1396 C 0.60446 0.98394 0.50984 0.0
H1397 H 0.63938 0.02045 0.53456 0.0
C1398 C 0.59715 0.98946 0.46989 0.0
C1399 C 0.61999 0.99518 0.5329 0.0
C1400 C 0.6288 0.98986 0.57395 0.0
C1401 C 0.60474 0.00597 0.45337 0.0
C1402 C 0.62016 0.01724 0.47691 0.0
C1403 C 0.62756 0.01175 0.51656 0.0
C1404 C 0.62845 0.03488 0.46214 0.0
C1405 C 0.59598 0.01133 0.41212 0.0
C1406 C 0.6339 0.04018 0.40599 0.0
C1407 C 0.64056 0.0567 0.39129 0.0
C1408 C 0.64189 0.06821 0.43257 0.0
C1409 C 0.63691 0.06288 0.48929 0.0
C1410 C 0.63031 0.04638 0.50392 0.0
H1411 H 0.58287 0.00188 0.40704 0.0
H1412 H 0.59676 0.02291 0.42685 0.0
H1413 H 0.60192 0.01362 0.36937 0.0
H1414 H 0.63275 0.03149 0.37331 0.0
H1415 H 0.64433 0.06037 0.34731 0.0
H1416 H 0.56811 0.64008 0.69906 0.0
H1417 H 0.58532 0.62878 0.72755 0.0
H1418 H 0.59834 0.62811 0.5505 0.0
H1419 H 0.58155 0.63999 0.52173 0.0
H1420 H 0.58114 0.59967 0.69876 0.0
H1421 H 0.6426 0.64759 0.6255 0.0
H1422 H 0.62546 0.65106 0.62997 0.0
H1423 H 0.62759 0.64042 0.56935 0.0
C1424 C 0.57485 0.63782 0.66617 0.0
C1425 C 0.57348 0.64103 0.60808 0.0
C1426 C 0.58467 0.63131 0.68257 0.0
C1427 C 0.59332 0.62778 0.64133 0.0
C1428 C 0.59214 0.63112 0.58332 0.0
H1429 H 0.63966 0.56877 0.64446 0.0
H1430 H 0.62776 0.58583 0.61966 0.0
C1431 C 0.58243 0.63781 0.56687 0.0
C1432 C 0.6025 0.61947 0.65884 0.0
H1433 H 0.63983 0.62178 0.65183 0.0
C1434 C 0.59402 0.60461 0.68899 0.0
C1435 C 0.61931 0.6259 0.64602 0.0
C1436 C 0.62932 0.6422 0.61643 0.0
C1437 C 0.60177 0.59587 0.70566 0.0
C1438 C 0.61846 0.60216 0.69204 0.0
C1439 C 0.62702 0.61703 0.66216 0.0
C1440 C 0.62699 0.59309 0.70706 0.0
C1441 C 0.592 0.57975 0.73663 0.0
C1442 C 0.63079 0.59184 0.76437 0.0
C1443 C 0.63766 0.58215 0.77881 0.0
C1444 C 0.64072 0.57346 0.73611 0.0
C1445 C 0.63734 0.57519 0.67849 0.0
C1446 C 0.6306 0.58497 0.66413 0.0
H1447 H 0.57867 0.57545 0.73677 0.0
H1448 H 0.59397 0.5702 0.71639 0.0
H1449 H 0.59624 0.58116 0.78179 0.0
H1450 H 0.62814 0.59812 0.79802 0.0
H1451 H 0.64013 0.58111 0.82353 0.0
H1452 H 0.07299 0.6384 0.79495 0.0
H1453 H 0.04429 0.62717 0.76907 0.0
H1454 H 0.03203 0.62766 0.94712 0.0
H1455 H 0.06087 0.6394 0.9733 0.0
H1456 H 0.01937 0.59815 0.80187 0.0
H1457 H 0.00711 0.64722 0.87225 0.0
H1458 H 0.0276 0.65043 0.8657 0.0
H1459 H 0.01542 0.64041 0.92806 0.0
C1460 C 0.06427 0.63641 0.8286 0.0
C1461 C 0.06929 0.63988 0.88623 0.0
C1462 C 0.04783 0.62994 0.81369 0.0
C1463 C 0.03601 0.62675 0.856 0.0
C1464 C 0.04097 0.63038 0.91352 0.0
H1465 H 0.93086 0.56487 0.85535 0.0
H1466 H 0.95981 0.58175 0.88035 0.0
C1467 C 0.05747 0.637 0.92847 0.0
C1468 C 0.0184 0.61847 0.84016 0.0
H1469 H 0.98374 0.62142 0.8483 0.0
C1470 C 0.01164 0.60333 0.81161 0.0
C1471 C 0.0083 0.62523 0.85289 0.0
C1472 C 0.01499 0.64179 0.88091 0.0
C1473 C 0.99504 0.59467 0.79632 0.0
C1474 C 0.98493 0.60129 0.80993 0.0
C1475 C 0.9916 0.61643 0.83813 0.0
C1476 C 0.9673 0.59234 0.79584 0.0
C1477 C 0.98826 0.57837 0.76633 0.0
C1478 C 0.96198 0.59295 0.7402 0.0
C1479 C 0.94542 0.58337 0.72567 0.0
C1480 C 0.93394 0.57294 0.76658 0.0
C1481 C 0.93933 0.57273 0.82275 0.0
C1482 C 0.95587 0.58238 0.83723 0.0
H1483 H 0.99755 0.57449 0.76143 0.0
H1484 H 0.97766 0.56881 0.79077 0.0
H1485 H 0.98375 0.57915 0.72309 0.0
H1486 H 0.97071 0.60057 0.70772 0.0
H1487 H 0.94171 0.58383 0.68205 0.0
loop_
_geom_bond_atom_site_label_1
_geom_bond_atom_site_label_2
_geom_bond_distance
_geom_bond_site_symmetry_2
_ccdc_geom_bond_type
Co0 O3 1.970 . S
Co0 N17 1.989 . S
Co0 O25 1.967 . S
Co0 O32 1.920 . S
Co1 O4 1.966 . S
Co1 N10 2.022 1_554 S
Co1 N18 1.993 . S
Co1 O26 1.941 . S
C2 O3 1.258 . S
C2 O4 1.263 . S
O3 Co0 1.970 . S
O3 C2 1.258 . S
O4 Co1 1.966 . S
O4 C2 1.263 . S
C5 O6 1.235 . S
C5 O32 1.289 . S
O6 C5 1.235 . S
C7 C9 1.400 . S
C7 N10 1.351 . S
C7 C12 1.501 . S
C8 C9 1.387 . S
C8 N11 1.341 . S
C9 C7 1.400 . S
C9 C8 1.387 . S
N10 Co1 2.022 1_556 S
N10 C7 1.351 . S
N10 N11 1.365 . S
N11 C8 1.341 . S
N11 N10 1.365 . S
N11 H31 0.862 . S
C12 C7 1.501 . S
C12 H13 0.961 . S
C12 H14 0.961 . S
C12 H15 0.960 . S
H13 C12 0.961 . S
H14 C12 0.961 . S
H15 C12 0.960 . S
C16 N17 1.342 . S
C16 C20 1.401 . S
C16 C21 1.499 . S
N17 Co0 1.989 . S
N17 C16 1.342 . S
N17 N18 1.388 . S
N18 Co1 1.993 . S
N18 N17 1.388 . S
N18 C19 1.346 . S
C19 N18 1.346 . S
C19 C20 1.396 . S
C19 C29 1.510 1_554 S
C20 C16 1.401 . S
C20 C19 1.396 . S
C21 C16 1.499 . S
C21 H22 0.959 . S
C21 H23 0.960 . S
C21 H24 0.961 . S
H22 C21 0.959 . S
H23 C21 0.960 . S
H24 C21 0.961 . S
O25 Co0 1.967 . S
O25 C33 1.258 . S
O26 Co1 1.941 . S
O26 C33 1.266 . S
H27 C29 0.959 . S
H28 C29 0.961 . S
C29 C19 1.510 1_556 S
C29 H27 0.959 . S
C29 H28 0.961 . S
C29 H30 0.960 . S
H30 C29 0.960 . S
H31 N11 0.862 . S
O32 Co0 1.920 . S
O32 C5 1.289 . S
C33 O25 1.258 . S
C33 O26 1.266 . S
Co34 O37 1.970 . S
Co34 N51 1.989 . S
Co34 O59 1.967 . S
Co34 O66 1.920 . S
Co35 O38 1.966 . S
Co35 N44 2.022 . S
Co35 N52 1.993 . S
Co35 O60 1.941 . S
C36 O37 1.258 . S
C36 O38 1.263 . S
O37 Co34 1.970 . S
O37 C36 1.258 . S
O38 Co35 1.966 . S
O38 C36 1.263 . S
C39 O40 1.235 . S
C39 O66 1.289 . S
O40 C39 1.235 . S
C41 C43 1.400 . S
C41 N44 1.351 . S
C41 C46 1.501 . S
C42 C43 1.387 . S
C42 N45 1.341 . S
C43 C41 1.400 . S
C43 C42 1.387 . S
N44 Co35 2.022 . S
N44 C41 1.351 . S
N44 N45 1.365 . S
N45 C42 1.341 . S
N45 N44 1.365 . S
N45 H65 0.862 . S
C46 C41 1.501 . S
C46 H47 0.961 . S
C46 H48 0.961 . S
C46 H49 0.960 . S
H47 C46 0.961 . S
H48 C46 0.961 . S
H49 C46 0.960 . S
C50 N51 1.342 . S
C50 C54 1.401 . S
C50 C55 1.499 . S
N51 Co34 1.989 . S
N51 C50 1.342 . S
N51 N52 1.388 . S
N52 Co35 1.993 . S
N52 N51 1.388 . S
N52 C53 1.346 . S
C53 N52 1.346 . S
C53 C54 1.396 . S
C53 C63 1.510 . S
C54 C50 1.401 . S
C54 C53 1.396 . S
C55 C50 1.499 . S
C55 H56 0.959 . S
C55 H57 0.960 . S
C55 H58 0.961 . S
H56 C55 0.959 . S
H57 C55 0.960 . S
H58 C55 0.961 . S
O59 Co34 1.967 . S
O59 C67 1.258 . S
O60 Co35 1.941 . S
O60 C67 1.266 . S
H61 C63 0.959 . S
H62 C63 0.961 . S
C63 C53 1.510 . S
C63 H61 0.959 . S
C63 H62 0.961 . S
C63 H64 0.960 . S
H64 C63 0.960 . S
H65 N45 0.862 . S
O66 Co34 1.920 . S
O66 C39 1.289 . S
C67 O59 1.258 . S
C67 O60 1.266 . S
Co68 O71 1.970 . S
Co68 N85 1.989 . S
Co68 O93 1.967 . S
Co68 O100 1.920 . S
Co69 O72 1.966 . S
Co69 N78 2.022 . S
Co69 N86 1.993 . S
Co69 O94 1.941 . S
C70 O71 1.258 . S
C70 O72 1.263 . S
O71 Co68 1.970 . S
O71 C70 1.258 . S
O72 Co69 1.966 . S
O72 C70 1.263 . S
C73 O74 1.235 . S
C73 O100 1.289 . S
O74 C73 1.235 . S
C75 C77 1.400 . S
C75 N78 1.351 . S
C75 C80 1.501 . S
C76 C77 1.387 . S
C76 N79 1.341 . S
C77 C75 1.400 . S
C77 C76 1.387 . S
N78 Co69 2.022 . S
N78 C75 1.351 . S
N78 N79 1.365 . S
N79 C76 1.341 . S
N79 N78 1.365 . S
N79 H99 0.862 . S
C80 C75 1.501 . S
C80 H81 0.961 . S
C80 H82 0.961 . S
C80 H83 0.960 . S
H81 C80 0.961 . S
H82 C80 0.961 . S
H83 C80 0.960 . S
C84 N85 1.342 . S
C84 C88 1.401 . S
C84 C89 1.499 . S
N85 Co68 1.989 . S
N85 C84 1.342 . S
N85 N86 1.388 . S
N86 Co69 1.993 . S
N86 N85 1.388 . S
N86 C87 1.346 . S
C87 N86 1.346 . S
C87 C88 1.396 . S
C87 C97 1.510 . S
C88 C84 1.401 . S
C88 C87 1.396 . S
C89 C84 1.499 . S
C89 H90 0.959 . S
C89 H91 0.960 . S
C89 H92 0.961 . S
H90 C89 0.959 . S
H91 C89 0.960 . S
H92 C89 0.961 . S
O93 Co68 1.967 . S
O93 C101 1.258 . S
O94 Co69 1.941 . S
O94 C101 1.266 . S
H95 C97 0.959 . S
H96 C97 0.961 . S
C97 C87 1.510 . S
C97 H95 0.959 . S
C97 H96 0.961 . S
C97 H98 0.960 . S
H98 C97 0.960 . S
H99 N79 0.862 . S
O100 Co68 1.920 . S
O100 C73 1.289 . S
C101 O93 1.258 . S
C101 O94 1.266 . S
Co102 O105 1.970 . S
Co102 N119 1.989 . S
Co102 O127 1.967 . S
Co102 O134 1.920 . S
Co103 O106 1.966 . S
Co103 N112 2.022 . S
Co103 N120 1.993 . S
Co103 O128 1.941 . S
C104 O105 1.258 . S
C104 O106 1.263 . S
O105 Co102 1.970 . S
O105 C104 1.258 . S
O106 Co103 1.966 . S
O106 C104 1.263 . S
C107 O108 1.235 . S
C107 O134 1.289 . S
O108 C107 1.235 . S
C109 C111 1.400 . S
C109 N112 1.351 . S
C109 C114 1.501 . S
C110 C111 1.387 . S
C110 N113 1.341 . S
C111 C109 1.400 . S
C111 C110 1.387 . S
N112 Co103 2.022 . S
N112 C109 1.351 . S
N112 N113 1.365 . S
N113 C110 1.341 . S
N113 N112 1.365 . S
N113 H133 0.862 . S
C114 C109 1.501 . S
C114 H115 0.961 . S
C114 H116 0.961 . S
C114 H117 0.960 . S
H115 C114 0.961 . S
H116 C114 0.961 . S
H117 C114 0.960 . S
C118 N119 1.342 . S
C118 C122 1.401 . S
C118 C123 1.499 . S
N119 Co102 1.989 . S
N119 C118 1.342 . S
N119 N120 1.388 . S
N120 Co103 1.993 . S
N120 N119 1.388 . S
N120 C121 1.346 . S
C121 N120 1.346 . S
C121 C122 1.396 . S
C121 C131 1.510 . S
C122 C118 1.401 . S
C122 C121 1.396 . S
C123 C118 1.499 . S
C123 H124 0.959 . S
C123 H125 0.960 . S
C123 H126 0.961 . S
H124 C123 0.959 . S
H125 C123 0.960 . S
H126 C123 0.961 . S
O127 Co102 1.967 . S
O127 C135 1.258 . S
O128 Co103 1.941 . S
O128 C135 1.266 . S
H129 C131 0.959 . S
H130 C131 0.961 . S
C131 C121 1.510 . S
C131 H129 0.959 . S
C131 H130 0.961 . S
C131 H132 0.960 . S
H132 C131 0.960 . S
H133 N113 0.862 . S
O134 Co102 1.920 . S
O134 C107 1.289 . S
C135 O127 1.258 . S
C135 O128 1.266 . S
Co136 O139 1.970 . S
Co136 N153 1.989 . S
Co136 O161 1.967 . S
Co136 O168 1.920 . S
Co137 O140 1.966 . S
Co137 N146 2.022 . S
Co137 N154 1.993 . S
Co137 O162 1.941 . S
C138 O139 1.258 . S
C138 O140 1.263 . S
O139 Co136 1.970 . S
O139 C138 1.258 . S
O140 Co137 1.966 . S
O140 C138 1.263 . S
C141 O142 1.235 . S
C141 O168 1.289 . S
O142 C141 1.235 . S
C143 C145 1.400 . S
C143 N146 1.351 . S
C143 C148 1.501 . S
C144 C145 1.387 . S
C144 N147 1.341 . S
C145 C143 1.400 . S
C145 C144 1.387 . S
N146 Co137 2.022 . S
N146 C143 1.351 . S
N146 N147 1.365 . S
N147 C144 1.341 . S
N147 N146 1.365 . S
N147 H167 0.862 . S
C148 C143 1.501 . S
C148 H149 0.961 . S
C148 H150 0.961 . S
C148 H151 0.960 . S
H149 C148 0.961 . S
H150 C148 0.961 . S
H151 C148 0.960 . S
C152 N153 1.342 . S
C152 C156 1.401 . S
C152 C157 1.499 . S
N153 Co136 1.989 . S
N153 C152 1.342 . S
N153 N154 1.388 . S
N154 Co137 1.993 . S
N154 N153 1.388 . S
N154 C155 1.346 . S
C155 N154 1.346 . S
C155 C156 1.396 . S
C155 C165 1.510 . S
C156 C152 1.401 . S
C156 C155 1.396 . S
C157 C152 1.499 . S
C157 H158 0.959 . S
C157 H159 0.960 . S
C157 H160 0.961 . S
H158 C157 0.959 . S
H159 C157 0.960 . S
H160 C157 0.961 . S
O161 Co136 1.967 . S
O161 C169 1.258 . S
O162 Co137 1.941 . S
O162 C169 1.266 . S
H163 C165 0.959 . S
H164 C165 0.961 . S
C165 C155 1.510 . S
C165 H163 0.959 . S
C165 H164 0.961 . S
C165 H166 0.960 . S
H166 C165 0.960 . S
H167 N147 0.862 . S
O168 Co136 1.920 . S
O168 C141 1.289 . S
C169 O161 1.258 . S
C169 O162 1.266 . S
Co170 O173 1.970 . S
Co170 N187 1.989 . S
Co170 O195 1.967 . S
Co170 O202 1.920 1_556 S
Co171 O174 1.966 . S
Co171 N180 2.022 . S
Co171 N188 1.993 . S
Co171 O196 1.941 . S
C172 O173 1.258 . S
C172 O174 1.263 . S
O173 Co170 1.970 . S
O173 C172 1.258 . S
O174 Co171 1.966 . S
O174 C172 1.263 . S
C175 O176 1.235 . S
C175 O202 1.289 . S
O176 C175 1.235 . S
C177 C179 1.400 . S
C177 N180 1.351 . S
C177 C182 1.501 . S
C178 C179 1.387 . S
C178 N181 1.341 . S
C179 C177 1.400 . S
C179 C178 1.387 . S
N180 Co171 2.022 . S
N180 C177 1.351 . S
N180 N181 1.365 . S
N181 C178 1.341 . S
N181 N180 1.365 . S
N181 H201 0.862 . S
C182 C177 1.501 . S
C182 H183 0.961 . S
C182 H184 0.961 . S
C182 H185 0.960 . S
H183 C182 0.961 . S
H184 C182 0.961 . S
H185 C182 0.960 . S
C186 N187 1.342 . S
C186 C190 1.401 . S
C186 C191 1.499 1_556 S
N187 Co170 1.989 . S
N187 C186 1.342 . S
N187 N188 1.388 . S
N188 Co171 1.993 . S
N188 N187 1.388 . S
N188 C189 1.346 . S
C189 N188 1.346 . S
C189 C190 1.396 . S
C189 C199 1.510 . S
C190 C186 1.401 . S
C190 C189 1.396 . S
C191 C186 1.499 1_554 S
C191 H192 0.959 . S
C191 H193 0.960 . S
C191 H194 0.961 . S
H192 C191 0.959 . S
H193 C191 0.960 . S
H194 C191 0.961 . S
O195 Co170 1.967 . S
O195 C203 1.258 . S
O196 Co171 1.941 . S
O196 C203 1.266 . S
H197 C199 0.959 . S
H198 C199 0.961 . S
C199 C189 1.510 . S
C199 H197 0.959 . S
C199 H198 0.961 . S
C199 H200 0.960 . S
H200 C199 0.960 . S
H201 N181 0.862 . S
O202 Co170 1.920 1_554 S
O202 C175 1.289 . S
C203 O195 1.258 . S
C203 O196 1.266 . S
Co204 O207 1.970 . S
Co204 N221 1.989 . S
Co204 O229 1.967 . S
Co204 O236 1.920 . S
Co205 O208 1.966 . S
Co205 N214 2.022 . S
Co205 N222 1.993 . S
Co205 O230 1.941 . S
C206 O207 1.258 . S
C206 O208 1.263 . S
O207 Co204 1.970 . S
O207 C206 1.258 . S
O208 Co205 1.966 . S
O208 C206 1.263 . S
C209 O210 1.235 . S
C209 O236 1.289 . S
O210 C209 1.235 . S
C211 C213 1.400 . S
C211 N214 1.351 . S
C211 C216 1.501 . S
C212 C213 1.387 . S
C212 N215 1.341 . S
C213 C211 1.400 . S
C213 C212 1.387 . S
N214 Co205 2.022 . S
N214 C211 1.351 . S
N214 N215 1.365 . S
N215 C212 1.341 . S
N215 N214 1.365 . S
N215 H235 0.862 . S
C216 C211 1.501 . S
C216 H217 0.961 . S
C216 H218 0.961 . S
C216 H219 0.960 . S
H217 C216 0.961 . S
H218 C216 0.961 . S
H219 C216 0.960 . S
C220 N221 1.342 . S
C220 C224 1.401 . S
C220 C225 1.499 . S
N221 Co204 1.989 . S
N221 C220 1.342 . S
N221 N222 1.388 . S
N222 Co205 1.993 . S
N222 N221 1.388 . S
N222 C223 1.346 . S
C223 N222 1.346 . S
C223 C224 1.396 . S
C223 C233 1.510 . S
C224 C220 1.401 . S
C224 C223 1.396 . S
C225 C220 1.499 . S
C225 H226 0.959 . S
C225 H227 0.960 . S
C225 H228 0.961 . S
H226 C225 0.959 . S
H227 C225 0.960 . S
H228 C225 0.961 . S
O229 Co204 1.967 . S
O229 C237 1.258 . S
O230 Co205 1.941 . S
O230 C237 1.266 . S
H231 C233 0.959 . S
H232 C233 0.961 . S
C233 C223 1.510 . S
C233 H231 0.959 . S
C233 H232 0.961 . S
C233 H234 0.960 . S
H234 C233 0.960 . S
H235 N215 0.862 . S
O236 Co204 1.920 . S
O236 C209 1.289 . S
C237 O229 1.258 . S
C237 O230 1.266 . S
Co238 O241 1.970 . S
Co238 N255 1.989 . S
Co238 O263 1.967 . S
Co238 O270 1.920 . S
Co239 O242 1.966 . S
Co239 N248 2.022 1_556 S
Co239 N256 1.993 . S
Co239 O264 1.941 . S
C240 O241 1.258 . S
C240 O242 1.263 . S
O241 Co238 1.970 . S
O241 C240 1.258 . S
O242 Co239 1.966 . S
O242 C240 1.263 . S
C243 O244 1.235 . S
C243 O270 1.289 . S
O244 C243 1.235 . S
C245 C247 1.400 . S
C245 N248 1.351 . S
C245 C250 1.501 . S
C246 C247 1.387 . S
C246 N249 1.341 . S
C247 C245 1.400 . S
C247 C246 1.387 . S
N248 Co239 2.022 1_554 S
N248 C245 1.351 . S
N248 N249 1.365 . S
N249 C246 1.341 . S
N249 N248 1.365 . S
N249 H269 0.862 . S
C250 C245 1.501 . S
C250 H251 0.961 . S
C250 H252 0.961 . S
C250 H253 0.960 . S
H251 C250 0.961 . S
H252 C250 0.961 . S
H253 C250 0.960 . S
C254 N255 1.342 . S
C254 C258 1.401 . S
C254 C259 1.499 . S
N255 Co238 1.989 . S
N255 C254 1.342 . S
N255 N256 1.388 . S
N256 Co239 1.993 . S
N256 N255 1.388 . S
N256 C257 1.346 . S
C257 N256 1.346 . S
C257 C258 1.396 . S
C257 C267 1.510 1_556 S
C258 C254 1.401 . S
C258 C257 1.396 . S
C259 C254 1.499 . S
C259 H260 0.959 . S
C259 H261 0.960 . S
C259 H262 0.961 . S
H260 C259 0.959 . S
H261 C259 0.960 . S
H262 C259 0.961 . S
O263 Co238 1.967 . S
O263 C271 1.258 . S
O264 Co239 1.941 . S
O264 C271 1.266 . S
H265 C267 0.959 . S
H266 C267 0.961 . S
C267 C257 1.510 1_554 S
C267 H265 0.959 . S
C267 H266 0.961 . S
C267 H268 0.960 . S
H268 C267 0.960 . S
H269 N249 0.862 . S
O270 Co238 1.920 . S
O270 C243 1.289 . S
C271 O263 1.258 . S
C271 O264 1.266 . S
Co272 O275 1.970 . S
Co272 N289 1.989 . S
Co272 O297 1.967 . S
Co272 O304 1.920 1_554 S
Co273 O276 1.966 . S
Co273 N282 2.022 . S
Co273 N290 1.993 . S
Co273 O298 1.941 . S
C274 O275 1.258 . S
C274 O276 1.263 . S
O275 Co272 1.970 . S
O275 C274 1.258 . S
O276 Co273 1.966 . S
O276 C274 1.263 . S
C277 O278 1.235 . S
C277 O304 1.289 . S
O278 C277 1.235 . S
C279 C281 1.400 . S
C279 N282 1.351 . S
C279 C284 1.501 . S
C280 C281 1.387 . S
C280 N283 1.341 . S
C281 C279 1.400 . S
C281 C280 1.387 . S
N282 Co273 2.022 . S
N282 C279 1.351 . S
N282 N283 1.365 . S
N283 C280 1.341 . S
N283 N282 1.365 . S
N283 H303 0.862 . S
C284 C279 1.501 . S
C284 H285 0.961 . S
C284 H286 0.961 . S
C284 H287 0.960 . S
H285 C284 0.961 . S
H286 C284 0.961 . S
H287 C284 0.960 . S
C288 N289 1.342 . S
C288 C292 1.401 . S
C288 C293 1.499 1_554 S
N289 Co272 1.989 . S
N289 C288 1.342 . S
N289 N290 1.388 . S
N290 Co273 1.993 . S
N290 N289 1.388 . S
N290 C291 1.346 . S
C291 N290 1.346 . S
C291 C292 1.396 . S
C291 C301 1.510 . S
C292 C288 1.401 . S
C292 C291 1.396 . S
C293 C288 1.499 1_556 S
C293 H294 0.959 . S
C293 H295 0.960 . S
C293 H296 0.961 . S
H294 C293 0.959 . S
H295 C293 0.960 . S
H296 C293 0.961 . S
O297 Co272 1.967 . S
O297 C305 1.258 . S
O298 Co273 1.941 . S
O298 C305 1.266 . S
H299 C301 0.959 . S
H300 C301 0.961 . S
C301 C291 1.510 . S
C301 H299 0.959 . S
C301 H300 0.961 . S
C301 H302 0.960 . S
H302 C301 0.960 . S
H303 N283 0.862 . S
O304 Co272 1.920 1_556 S
O304 C277 1.289 . S
C305 O297 1.258 . S
C305 O298 1.266 . S
Co306 O309 1.970 . S
Co306 N323 1.989 . S
Co306 O331 1.967 . S
Co306 O338 1.920 . S
Co307 O310 1.966 . S
Co307 N316 2.022 . S
Co307 N324 1.993 . S
Co307 O332 1.941 . S
C308 O309 1.258 . S
C308 O310 1.263 . S
O309 Co306 1.970 . S
O309 C308 1.258 . S
O310 Co307 1.966 . S
O310 C308 1.263 . S
C311 O312 1.235 . S
C311 O338 1.289 . S
O312 C311 1.235 . S
C313 C315 1.400 . S
C313 N316 1.351 . S
C313 C318 1.501 . S
C314 C315 1.387 . S
C314 N317 1.341 . S
C315 C313 1.400 . S
C315 C314 1.387 . S
N316 Co307 2.022 . S
N316 C313 1.351 . S
N316 N317 1.365 . S
N317 C314 1.341 . S
N317 N316 1.365 . S
N317 H337 0.862 . S
C318 C313 1.501 . S
C318 H319 0.961 . S
C318 H320 0.961 . S
C318 H321 0.960 . S
H319 C318 0.961 . S
H320 C318 0.961 . S
H321 C318 0.960 . S
C322 N323 1.342 . S
C322 C326 1.401 . S
C322 C327 1.499 . S
N323 Co306 1.989 . S
N323 C322 1.342 . S
N323 N324 1.388 . S
N324 Co307 1.993 . S
N324 N323 1.388 . S
N324 C325 1.346 . S
C325 N324 1.346 . S
C325 C326 1.396 . S
C325 C335 1.510 . S
C326 C322 1.401 . S
C326 C325 1.396 . S
C327 C322 1.499 . S
C327 H328 0.959 . S
C327 H329 0.960 . S
C327 H330 0.961 . S
H328 C327 0.959 . S
H329 C327 0.960 . S
H330 C327 0.961 . S
O331 Co306 1.967 . S
O331 C339 1.258 . S
O332 Co307 1.941 . S
O332 C339 1.266 . S
H333 C335 0.959 . S
H334 C335 0.961 . S
C335 C325 1.510 . S
C335 H333 0.959 . S
C335 H334 0.961 . S
C335 H336 0.960 . S
H336 C335 0.960 . S
H337 N317 0.862 . S
O338 Co306 1.920 . S
O338 C311 1.289 . S
C339 O331 1.258 . S
C339 O332 1.266 . S
Co340 O343 1.970 . S
Co340 N357 1.989 . S
Co340 O365 1.967 . S
Co340 O372 1.920 . S
Co341 O344 1.966 . S
Co341 N350 2.022 . S
Co341 N358 1.993 . S
Co341 O366 1.941 . S
C342 O343 1.258 . S
C342 O344 1.263 . S
O343 Co340 1.970 . S
O343 C342 1.258 . S
O344 Co341 1.966 . S
O344 C342 1.263 . S
C345 O346 1.235 . S
C345 O372 1.289 . S
O346 C345 1.235 . S
C347 C349 1.400 . S
C347 N350 1.351 . S
C347 C352 1.501 . S
C348 C349 1.387 . S
C348 N351 1.341 . S
C349 C347 1.400 . S
C349 C348 1.387 . S
N350 Co341 2.022 . S
N350 C347 1.351 . S
N350 N351 1.365 . S
N351 C348 1.341 . S
N351 N350 1.365 . S
N351 H371 0.862 . S
C352 C347 1.501 . S
C352 H353 0.961 . S
C352 H354 0.961 . S
C352 H355 0.960 . S
H353 C352 0.961 . S
H354 C352 0.961 . S
H355 C352 0.960 . S
C356 N357 1.342 . S
C356 C360 1.401 . S
C356 C361 1.499 . S
N357 Co340 1.989 . S
N357 C356 1.342 . S
N357 N358 1.388 . S
N358 Co341 1.993 . S
N358 N357 1.388 . S
N358 C359 1.346 . S
C359 N358 1.346 . S
C359 C360 1.396 . S
C359 C369 1.510 . S
C360 C356 1.401 . S
C360 C359 1.396 . S
C361 C356 1.499 . S
C361 H362 0.959 . S
C361 H363 0.960 . S
C361 H364 0.961 . S
H362 C361 0.959 . S
H363 C361 0.960 . S
H364 C361 0.961 . S
O365 Co340 1.967 . S
O365 C373 1.258 . S
O366 Co341 1.941 . S
O366 C373 1.266 . S
H367 C369 0.959 . S
H368 C369 0.961 . S
C369 C359 1.510 . S
C369 H367 0.959 . S
C369 H368 0.961 . S
C369 H370 0.960 . S
H370 C369 0.960 . S
H371 N351 0.862 . S
O372 Co340 1.920 . S
O372 C345 1.289 . S
C373 O365 1.258 . S
C373 O366 1.266 . S
Co374 O377 1.970 . S
Co374 N391 1.989 . S
Co374 O399 1.967 . S
Co374 O406 1.920 . S
Co375 O378 1.966 . S
Co375 N384 2.022 . S
Co375 N392 1.993 . S
Co375 O400 1.941 . S
C376 O377 1.258 . S
C376 O378 1.263 . S
O377 Co374 1.970 . S
O377 C376 1.258 . S
O378 Co375 1.966 . S
O378 C376 1.263 . S
C379 O380 1.235 . S
C379 O406 1.289 . S
O380 C379 1.235 . S
C381 C383 1.400 . S
C381 N384 1.351 . S
C381 C386 1.501 . S
C382 C383 1.387 . S
C382 N385 1.341 . S
C383 C381 1.400 . S
C383 C382 1.387 . S
N384 Co375 2.022 . S
N384 C381 1.351 . S
N384 N385 1.365 . S
N385 C382 1.341 . S
N385 N384 1.365 . S
N385 H405 0.862 . S
C386 C381 1.501 . S
C386 H387 0.961 . S
C386 H388 0.961 . S
C386 H389 0.960 . S
H387 C386 0.961 . S
H388 C386 0.961 . S
H389 C386 0.960 . S
C390 N391 1.342 . S
C390 C394 1.401 . S
C390 C395 1.499 . S
N391 Co374 1.989 . S
N391 C390 1.342 . S
N391 N392 1.388 . S
N392 Co375 1.993 . S
N392 N391 1.388 . S
N392 C393 1.346 . S
C393 N392 1.346 . S
C393 C394 1.396 . S
C393 C403 1.510 . S
C394 C390 1.401 . S
C394 C393 1.396 . S
C395 C390 1.499 . S
C395 H396 0.959 . S
C395 H397 0.960 . S
C395 H398 0.961 . S
H396 C395 0.959 . S
H397 C395 0.960 . S
H398 C395 0.961 . S
O399 Co374 1.967 . S
O399 C407 1.258 . S
O400 Co375 1.941 . S
O400 C407 1.266 . S
H401 C403 0.959 . S
H402 C403 0.961 . S
C403 C393 1.510 . S
C403 H401 0.959 . S
C403 H402 0.961 . S
C403 H404 0.960 . S
H404 C403 0.960 . S
H405 N385 0.862 . S
O406 Co374 1.920 . S
O406 C379 1.289 . S
C407 O399 1.258 . S
C407 O400 1.266 . S
H408 C416 0.929 1_556 S
H409 C418 0.930 1_556 S
H410 C420 0.930 . S
H411 C423 0.929 . S
H412 C426 0.930 . S
H413 C428 0.960 . S
H414 C428 0.960 . S
H415 C428 0.960 . S
C416 H408 0.929 1_554 S
C416 C417 1.377 . S
C416 C418 1.384 . S
C417 C416 1.377 . S
C417 C423 1.390 . S
C418 H409 0.930 1_554 S
C418 C416 1.384 . S
C418 C419 1.372 . S
C419 C418 1.372 . S
C419 C420 1.400 . S
C419 C424 1.490 . S
C420 H410 0.930 . S
C420 C419 1.400 . S
C420 C423 1.386 . S
H421 C437 0.930 . S
H422 C438 0.931 . S
C423 H411 0.929 . S
C423 C417 1.390 . S
C423 C420 1.386 . S
C424 C419 1.490 . S
C424 C426 1.395 . S
C424 C427 1.403 . S
H425 C431 0.930 . S
C426 H412 0.930 . S
C426 C424 1.395 . S
C426 C429 1.403 . S
C427 C424 1.403 . S
C427 C428 1.524 . S
C427 C431 1.400 . S
C428 H413 0.960 . S
C428 H414 0.960 . S
C428 H415 0.960 . S
C428 C427 1.524 . S
C429 C426 1.403 . S
C429 C430 1.392 . S
C429 C433 1.495 . S
C430 C429 1.392 . S
C430 C431 1.385 . S
C430 C432 1.478 . S
C431 H425 0.930 . S
C431 C427 1.400 . S
C431 C430 1.385 . S
C432 C430 1.478 . S
C432 C434 1.381 . S
C432 C438 1.383 . S
C433 C429 1.495 . S
C433 H439 0.959 . S
C433 H440 0.961 . S
C433 H441 0.960 . S
C434 C432 1.381 . S
C434 C435 1.394 . S
C434 H442 0.930 1_554 S
C435 C434 1.394 . S
C435 C436 1.383 . S
C435 H443 0.929 1_554 S
C436 C435 1.383 . S
C436 C437 1.377 . S
C437 H421 0.930 . S
C437 C436 1.377 . S
C437 C438 1.379 . S
C438 H422 0.931 . S
C438 C432 1.383 . S
C438 C437 1.379 . S
H439 C433 0.959 . S
H440 C433 0.961 . S
H441 C433 0.960 . S
H442 C434 0.930 1_556 S
H443 C435 0.929 1_556 S
H444 C452 0.929 . S
H445 C454 0.930 . S
H446 C456 0.930 . S
H447 C459 0.929 . S
H448 C462 0.930 . S
H449 C464 0.960 . S
H450 C464 0.960 . S
H451 C464 0.960 . S
C452 H444 0.929 . S
C452 C453 1.377 . S
C452 C454 1.384 . S
C453 C452 1.377 . S
C453 C459 1.390 . S
C454 H445 0.930 . S
C454 C452 1.384 . S
C454 C455 1.372 . S
C455 C454 1.372 . S
C455 C456 1.400 . S
C455 C460 1.490 . S
C456 H446 0.930 . S
C456 C455 1.400 . S
C456 C459 1.386 . S
H457 C473 0.930 . S
H458 C474 0.931 . S
C459 H447 0.929 . S
C459 C453 1.390 . S
C459 C456 1.386 . S
C460 C455 1.490 . S
C460 C462 1.395 . S
C460 C463 1.403 . S
H461 C467 0.930 . S
C462 H448 0.930 . S
C462 C460 1.395 . S
C462 C465 1.403 . S
C463 C460 1.403 . S
C463 C464 1.524 . S
C463 C467 1.400 . S
C464 H449 0.960 . S
C464 H450 0.960 . S
C464 H451 0.960 . S
C464 C463 1.524 . S
C465 C462 1.403 . S
C465 C466 1.392 . S
C465 C469 1.495 . S
C466 C465 1.392 . S
C466 C467 1.385 . S
C466 C468 1.478 . S
C467 H461 0.930 . S
C467 C463 1.400 . S
C467 C466 1.385 . S
C468 C466 1.478 . S
C468 C470 1.381 . S
C468 C474 1.383 . S
C469 C465 1.495 . S
C469 H475 0.959 . S
C469 H476 0.961 . S
C469 H477 0.960 . S
C470 C468 1.381 . S
C470 C471 1.394 . S
C470 H478 0.930 . S
C471 C470 1.394 . S
C471 C472 1.383 . S
C471 H479 0.929 . S
C472 C471 1.383 . S
C472 C473 1.377 . S
C473 H457 0.930 . S
C473 C472 1.377 . S
C473 C474 1.379 . S
C474 H458 0.931 . S
C474 C468 1.383 . S
C474 C473 1.379 . S
H475 C469 0.959 . S
H476 C469 0.961 . S
H477 C469 0.960 . S
H478 C470 0.930 . S
H479 C471 0.929 . S
H480 C488 0.929 . S
H481 C490 0.930 . S
H482 C492 0.930 . S
H483 C495 0.929 . S
H484 C498 0.930 . S
H485 C500 0.960 . S
H486 C500 0.960 . S
H487 C500 0.960 . S
C488 H480 0.929 . S
C488 C489 1.377 . S
C488 C490 1.384 . S
C489 C488 1.377 . S
C489 C495 1.390 . S
C490 H481 0.930 . S
C490 C488 1.384 . S
C490 C491 1.372 . S
C491 C490 1.372 . S
C491 C492 1.400 . S
C491 C496 1.490 . S
C492 H482 0.930 . S
C492 C491 1.400 . S
C492 C495 1.386 . S
H493 C509 0.930 . S
H494 C510 0.931 . S
C495 H483 0.929 . S
C495 C489 1.390 . S
C495 C492 1.386 . S
C496 C491 1.490 . S
C496 C498 1.395 . S
C496 C499 1.403 . S
H497 C503 0.930 . S
C498 H484 0.930 . S
C498 C496 1.395 . S
C498 C501 1.403 . S
C499 C496 1.403 . S
C499 C500 1.524 . S
C499 C503 1.400 . S
C500 H485 0.960 . S
C500 H486 0.960 . S
C500 H487 0.960 . S
C500 C499 1.524 . S
C501 C498 1.403 . S
C501 C502 1.392 . S
C501 C505 1.495 . S
C502 C501 1.392 . S
C502 C503 1.385 . S
C502 C504 1.478 . S
C503 H497 0.930 . S
C503 C499 1.400 . S
C503 C502 1.385 . S
C504 C502 1.478 . S
C504 C506 1.381 . S
C504 C510 1.383 . S
C505 C501 1.495 . S
C505 H511 0.959 . S
C505 H512 0.961 . S
C505 H513 0.960 . S
C506 C504 1.381 . S
C506 C507 1.394 . S
C506 H514 0.930 . S
C507 C506 1.394 . S
C507 C508 1.383 . S
C507 H515 0.929 . S
C508 C507 1.383 . S
C508 C509 1.377 . S
C509 H493 0.930 . S
C509 C508 1.377 . S
C509 C510 1.379 . S
C510 H494 0.931 . S
C510 C504 1.383 . S
C510 C509 1.379 . S
H511 C505 0.959 . S
H512 C505 0.961 . S
H513 C505 0.960 . S
H514 C506 0.930 . S
H515 C507 0.929 . S
H516 C524 0.929 . S
H517 C526 0.930 . S
H518 C528 0.930 . S
H519 C531 0.929 . S
H520 C534 0.930 . S
H521 C536 0.960 . S
H522 C536 0.960 . S
H523 C536 0.960 . S
C524 H516 0.929 . S
C524 C525 1.377 . S
C524 C526 1.384 . S
C525 C524 1.377 . S
C525 C531 1.390 . S
C526 H517 0.930 . S
C526 C524 1.384 . S
C526 C527 1.372 . S
C527 C526 1.372 . S
C527 C528 1.400 . S
C527 C532 1.490 . S
C528 H518 0.930 . S
C528 C527 1.400 . S
C528 C531 1.386 . S
H529 C545 0.930 . S
H530 C546 0.931 . S
C531 H519 0.929 . S
C531 C525 1.390 . S
C531 C528 1.386 . S
C532 C527 1.490 . S
C532 C534 1.395 . S
C532 C535 1.403 . S
H533 C539 0.930 . S
C534 H520 0.930 . S
C534 C532 1.395 . S
C534 C537 1.403 . S
C535 C532 1.403 . S
C535 C536 1.524 . S
C535 C539 1.400 . S
C536 H521 0.960 . S
C536 H522 0.960 . S
C536 H523 0.960 . S
C536 C535 1.524 . S
C537 C534 1.403 . S
C537 C538 1.392 . S
C537 C541 1.495 . S
C538 C537 1.392 . S
C538 C539 1.385 . S
C538 C540 1.478 . S
C539 H533 0.930 . S
C539 C535 1.400 . S
C539 C538 1.385 . S
C540 C538 1.478 . S
C540 C542 1.381 . S
C540 C546 1.383 . S
C541 C537 1.495 . S
C541 H547 0.959 . S
C541 H548 0.961 . S
C541 H549 0.960 . S
C542 C540 1.381 . S
C542 C543 1.394 . S
C542 H550 0.930 . S
C543 C542 1.394 . S
C543 C544 1.383 . S
C543 H551 0.929 . S
C544 C543 1.383 . S
C544 C545 1.377 . S
C545 H529 0.930 . S
C545 C544 1.377 . S
C545 C546 1.379 . S
C546 H530 0.931 . S
C546 C540 1.383 . S
C546 C545 1.379 . S
H547 C541 0.959 . S
H548 C541 0.961 . S
H549 C541 0.960 . S
H550 C542 0.930 . S
H551 C543 0.929 . S
H552 C560 0.929 . S
H553 C562 0.930 . S
H554 C564 0.930 . S
H555 C567 0.929 . S
H556 C570 0.930 . S
H557 C572 0.960 . S
H558 C572 0.960 . S
H559 C572 0.960 . S
C560 H552 0.929 . S
C560 C561 1.377 . S
C560 C562 1.384 . S
C561 C560 1.377 . S
C561 C567 1.390 . S
C562 H553 0.930 . S
C562 C560 1.384 . S
C562 C563 1.372 . S
C563 C562 1.372 . S
C563 C564 1.400 . S
C563 C568 1.490 . S
C564 H554 0.930 . S
C564 C563 1.400 . S
C564 C567 1.386 . S
H565 C581 0.930 . S
H566 C582 0.931 . S
C567 H555 0.929 . S
C567 C561 1.390 . S
C567 C564 1.386 . S
C568 C563 1.490 . S
C568 C570 1.395 . S
C568 C571 1.403 . S
H569 C575 0.930 . S
C570 H556 0.930 . S
C570 C568 1.395 . S
C570 C573 1.403 . S
C571 C568 1.403 . S
C571 C572 1.524 . S
C571 C575 1.400 . S
C572 H557 0.960 . S
C572 H558 0.960 . S
C572 H559 0.960 . S
C572 C571 1.524 . S
C573 C570 1.403 . S
C573 C574 1.392 . S
C573 C577 1.495 . S
C574 C573 1.392 . S
C574 C575 1.385 . S
C574 C576 1.478 . S
C575 H569 0.930 . S
C575 C571 1.400 . S
C575 C574 1.385 . S
C576 C574 1.478 . S
C576 C578 1.381 . S
C576 C582 1.383 . S
C577 C573 1.495 . S
C577 H583 0.959 . S
C577 H584 0.961 . S
C577 H585 0.960 . S
C578 C576 1.381 . S
C578 C579 1.394 . S
C578 H586 0.930 . S
C579 C578 1.394 . S
C579 C580 1.383 . S
C579 H587 0.929 . S
C580 C579 1.383 . S
C580 C581 1.377 . S
C581 H565 0.930 . S
C581 C580 1.377 . S
C581 C582 1.379 . S
C582 H566 0.931 . S
C582 C576 1.383 . S
C582 C581 1.379 . S
H583 C577 0.959 . S
H584 C577 0.961 . S
H585 C577 0.960 . S
H586 C578 0.930 . S
H587 C579 0.929 . S
H588 C596 0.929 . S
H589 C598 0.930 . S
H590 C600 0.930 . S
H591 C603 0.929 . S
H592 C606 0.930 . S
H593 C608 0.960 . S
H594 C608 0.960 . S
H595 C608 0.960 . S
C596 H588 0.929 . S
C596 C597 1.377 . S
C596 C598 1.384 . S
C597 C596 1.377 . S
C597 C603 1.390 . S
C598 H589 0.930 . S
C598 C596 1.384 . S
C598 C599 1.372 . S
C599 C598 1.372 . S
C599 C600 1.400 . S
C599 C604 1.490 . S
C600 H590 0.930 . S
C600 C599 1.400 . S
C600 C603 1.386 . S
H601 C617 0.930 . S
H602 C618 0.931 . S
C603 H591 0.929 . S
C603 C597 1.390 . S
C603 C600 1.386 . S
C604 C599 1.490 . S
C604 C606 1.395 . S
C604 C607 1.403 . S
H605 C611 0.930 . S
C606 H592 0.930 . S
C606 C604 1.395 . S
C606 C609 1.403 . S
C607 C604 1.403 . S
C607 C608 1.524 . S
C607 C611 1.400 . S
C608 H593 0.960 . S
C608 H594 0.960 . S
C608 H595 0.960 . S
C608 C607 1.524 . S
C609 C606 1.403 . S
C609 C610 1.392 . S
C609 C613 1.495 . S
C610 C609 1.392 . S
C610 C611 1.385 . S
C610 C612 1.478 . S
C611 H605 0.930 . S
C611 C607 1.400 . S
C611 C610 1.385 . S
C612 C610 1.478 . S
C612 C614 1.381 . S
C612 C618 1.383 . S
C613 C609 1.495 . S
C613 H619 0.959 . S
C613 H620 0.961 . S
C613 H621 0.960 . S
C614 C612 1.381 . S
C614 C615 1.394 . S
C614 H622 0.930 . S
C615 C614 1.394 . S
C615 C616 1.383 . S
C615 H623 0.929 . S
C616 C615 1.383 . S
C616 C617 1.377 . S
C617 H601 0.930 . S
C617 C616 1.377 . S
C617 C618 1.379 . S
C618 H602 0.931 . S
C618 C612 1.383 . S
C618 C617 1.379 . S
H619 C613 0.959 . S
H620 C613 0.961 . S
H621 C613 0.960 . S
H622 C614 0.930 . S
H623 C615 0.929 . S
H624 C632 0.929 . S
H625 C634 0.930 . S
H626 C636 0.930 . S
H627 C639 0.929 . S
H628 C642 0.930 . S
H629 C644 0.960 . S
H630 C644 0.960 . S
H631 C644 0.960 . S
C632 H624 0.929 . S
C632 C633 1.377 . S
C632 C634 1.384 . S
C633 C632 1.377 . S
C633 C639 1.390 . S
C634 H625 0.930 . S
C634 C632 1.384 . S
C634 C635 1.372 . S
C635 C634 1.372 . S
C635 C636 1.400 . S
C635 C640 1.490 . S
C636 H626 0.930 . S
C636 C635 1.400 . S
C636 C639 1.386 . S
H637 C653 0.930 . S
H638 C654 0.931 . S
C639 H627 0.929 . S
C639 C633 1.390 . S
C639 C636 1.386 . S
C640 C635 1.490 . S
C640 C642 1.395 . S
C640 C643 1.403 . S
H641 C647 0.930 . S
C642 H628 0.930 . S
C642 C640 1.395 . S
C642 C645 1.403 . S
C643 C640 1.403 . S
C643 C644 1.524 . S
C643 C647 1.400 . S
C644 H629 0.960 . S
C644 H630 0.960 . S
C644 H631 0.960 . S
C644 C643 1.524 . S
C645 C642 1.403 . S
C645 C646 1.392 . S
C645 C649 1.495 . S
C646 C645 1.392 . S
C646 C647 1.385 . S
C646 C648 1.478 . S
C647 H641 0.930 . S
C647 C643 1.400 . S
C647 C646 1.385 . S
C648 C646 1.478 . S
C648 C650 1.381 . S
C648 C654 1.383 . S
C649 C645 1.495 . S
C649 H655 0.959 . S
C649 H656 0.961 . S
C649 H657 0.960 . S
C650 C648 1.381 . S
C650 C651 1.394 . S
C650 H658 0.930 . S
C651 C650 1.394 . S
C651 C652 1.383 . S
C651 H659 0.929 . S
C652 C651 1.383 . S
C652 C653 1.377 . S
C653 H637 0.930 . S
C653 C652 1.377 . S
C653 C654 1.379 . S
C654 H638 0.931 . S
C654 C648 1.383 . S
C654 C653 1.379 . S
H655 C649 0.959 . S
H656 C649 0.961 . S
H657 C649 0.960 . S
H658 C650 0.930 . S
H659 C651 0.929 . S
H660 C668 0.929 . S
H661 C670 0.930 . S
H662 C672 0.930 . S
H663 C675 0.929 . S
H664 C678 0.930 . S
H665 C680 0.960 . S
H666 C680 0.960 . S
H667 C680 0.960 . S
C668 H660 0.929 . S
C668 C669 1.377 . S
C668 C670 1.384 . S
C669 C668 1.377 . S
C669 C675 1.390 . S
C670 H661 0.930 . S
C670 C668 1.384 . S
C670 C671 1.372 . S
C671 C670 1.372 . S
C671 C672 1.400 . S
C671 C676 1.490 . S
C672 H662 0.930 . S
C672 C671 1.400 . S
C672 C675 1.386 . S
H673 C689 0.930 . S
H674 C690 0.931 . S
C675 H663 0.929 . S
C675 C669 1.390 . S
C675 C672 1.386 . S
C676 C671 1.490 . S
C676 C678 1.395 . S
C676 C679 1.403 . S
H677 C683 0.930 . S
C678 H664 0.930 . S
C678 C676 1.395 . S
C678 C681 1.403 . S
C679 C676 1.403 . S
C679 C680 1.524 . S
C679 C683 1.400 . S
C680 H665 0.960 . S
C680 H666 0.960 . S
C680 H667 0.960 . S
C680 C679 1.524 . S
C681 C678 1.403 . S
C681 C682 1.392 . S
C681 C685 1.495 . S
C682 C681 1.392 . S
C682 C683 1.385 . S
C682 C684 1.478 . S
C683 H677 0.930 . S
C683 C679 1.400 . S
C683 C682 1.385 . S
C684 C682 1.478 . S
C684 C686 1.381 . S
C684 C690 1.383 . S
C685 C681 1.495 . S
C685 H691 0.959 . S
C685 H692 0.961 . S
C685 H693 0.960 . S
C686 C684 1.381 . S
C686 C687 1.394 . S
C686 H694 0.930 . S
C687 C686 1.394 . S
C687 C688 1.383 . S
C687 H695 0.929 . S
C688 C687 1.383 . S
C688 C689 1.377 . S
C689 H673 0.930 . S
C689 C688 1.377 . S
C689 C690 1.379 . S
C690 H674 0.931 . S
C690 C684 1.383 . S
C690 C689 1.379 . S
H691 C685 0.959 . S
H692 C685 0.961 . S
H693 C685 0.960 . S
H694 C686 0.930 . S
H695 C687 0.929 . S
H696 C704 0.929 . S
H697 C706 0.930 . S
H698 C708 0.930 . S
H699 C711 0.929 . S
H700 C714 0.930 . S
H701 C716 0.960 . S
H702 C716 0.960 . S
H703 C716 0.960 . S
C704 H696 0.929 . S
C704 C705 1.377 . S
C704 C706 1.384 . S
C705 C704 1.377 . S
C705 C711 1.390 . S
C706 H697 0.930 . S
C706 C704 1.384 . S
C706 C707 1.372 . S
C707 C706 1.372 . S
C707 C708 1.400 . S
C707 C712 1.490 . S
C708 H698 0.930 . S
C708 C707 1.400 . S
C708 C711 1.386 . S
H709 C725 0.930 . S
H710 C726 0.931 . S
C711 H699 0.929 . S
C711 C705 1.390 . S
C711 C708 1.386 . S
C712 C707 1.490 . S
C712 C714 1.395 . S
C712 C715 1.403 . S
H713 C719 0.930 . S
C714 H700 0.930 . S
C714 C712 1.395 . S
C714 C717 1.403 . S
C715 C712 1.403 . S
C715 C716 1.524 . S
C715 C719 1.400 . S
C716 H701 0.960 . S
C716 H702 0.960 . S
C716 H703 0.960 . S
C716 C715 1.524 . S
C717 C714 1.403 . S
C717 C718 1.392 . S
C717 C721 1.495 . S
C718 C717 1.392 . S
C718 C719 1.385 . S
C718 C720 1.478 1_556 S
C719 H713 0.930 . S
C719 C715 1.400 . S
C719 C718 1.385 . S
C720 C718 1.478 1_554 S
C720 C722 1.381 . S
C720 C726 1.383 . S
C721 C717 1.495 . S
C721 H727 0.959 . S
C721 H728 0.961 . S
C721 H729 0.960 . S
C722 C720 1.381 . S
C722 C723 1.394 . S
C722 H730 0.930 . S
C723 C722 1.394 . S
C723 C724 1.383 . S
C723 H731 0.929 . S
C724 C723 1.383 . S
C724 C725 1.377 . S
C725 H709 0.930 . S
C725 C724 1.377 . S
C725 C726 1.379 . S
C726 H710 0.931 . S
C726 C720 1.383 . S
C726 C725 1.379 . S
H727 C721 0.959 . S
H728 C721 0.961 . S
H729 C721 0.960 . S
H730 C722 0.930 . S
H731 C723 0.929 . S
H732 C740 0.929 . S
H733 C742 0.930 . S
H734 C744 0.930 . S
H735 C747 0.929 . S
H736 C750 0.930 1_556 S
H737 C752 0.960 . S
H738 C752 0.960 1_556 S
H739 C752 0.960 1_556 S
C740 H732 0.929 . S
C740 C741 1.377 . S
C740 C742 1.384 . S
C741 C740 1.377 . S
C741 C747 1.390 . S
C742 H733 0.930 . S
C742 C740 1.384 . S
C742 C743 1.372 . S
C743 C742 1.372 . S
C743 C744 1.400 . S
C743 C748 1.480 1_556 S
C744 H734 0.930 . S
C744 C743 1.400 . S
C744 C747 1.386 . S
H745 C761 0.930 . S
H746 C762 0.931 . S
C747 H735 0.929 . S
C747 C741 1.390 . S
C747 C744 1.386 . S
C748 C743 1.480 1_554 S
C748 C750 1.399 . S
C748 C751 1.409 . S
H749 C755 0.930 . S
C750 H736 0.930 1_554 S
C750 C748 1.399 . S
C750 C753 1.403 . S
C751 C748 1.409 . S
C751 C752 1.524 . S
C751 C755 1.400 . S
C752 H737 0.960 . S
C752 H738 0.960 1_554 S
C752 H739 0.960 1_554 S
C752 C751 1.524 . S
C753 C750 1.403 . S
C753 C754 1.392 . S
C753 C757 1.495 . S
C754 C753 1.392 . S
C754 C755 1.385 . S
C754 C756 1.478 . S
C755 H749 0.930 . S
C755 C751 1.400 . S
C755 C754 1.385 . S
C756 C754 1.478 . S
C756 C758 1.381 . S
C756 C762 1.383 . S
C757 C753 1.495 . S
C757 H763 0.959 . S
C757 H764 0.961 . S
C757 H765 0.960 . S
C758 C756 1.381 . S
C758 C759 1.394 . S
C758 H766 0.930 . S
C759 C758 1.394 . S
C759 C760 1.383 . S
C759 H767 0.929 . S
C760 C759 1.383 . S
C760 C761 1.377 . S
C761 H745 0.930 . S
C761 C760 1.377 . S
C761 C762 1.379 . S
C762 H746 0.931 . S
C762 C756 1.383 . S
C762 C761 1.379 . S
H763 C757 0.959 . S
H764 C757 0.961 . S
H765 C757 0.960 . S
H766 C758 0.930 . S
H767 C759 0.929 . S
H768 C776 0.929 1_556 S
H769 C778 0.930 . S
H770 C780 0.930 . S
H771 C783 0.929 . S
H772 C786 0.930 . S
H773 C788 0.960 . S
H774 C788 0.960 . S
H775 C788 0.960 . S
C776 H768 0.929 1_554 S
C776 C777 1.377 1_554 S
C776 C778 1.384 . S
C777 C776 1.377 1_556 S
C777 C783 1.390 1_556 S
C778 H769 0.930 . S
C778 C776 1.384 . S
C778 C779 1.372 . S
C779 C778 1.372 . S
C779 C780 1.400 . S
C779 C784 1.490 . S
C780 H770 0.930 . S
C780 C779 1.400 . S
C780 C783 1.386 . S
H781 C797 0.930 . S
H782 C798 0.931 . S
C783 H771 0.929 . S
C783 C777 1.390 1_554 S
C783 C780 1.386 . S
C784 C779 1.490 . S
C784 C786 1.395 . S
C784 C787 1.403 . S
H785 C791 0.930 . S
C786 H772 0.930 . S
C786 C784 1.395 . S
C786 C789 1.403 . S
C787 C784 1.403 . S
C787 C788 1.524 . S
C787 C791 1.400 . S
C788 H773 0.960 . S
C788 H774 0.960 . S
C788 H775 0.960 . S
C788 C787 1.524 . S
C789 C786 1.403 . S
C789 C790 1.392 . S
C789 C793 1.495 . S
C790 C789 1.392 . S
C790 C791 1.385 . S
C790 C792 1.478 . S
C791 H785 0.930 . S
C791 C787 1.400 . S
C791 C790 1.385 . S
C792 C790 1.478 . S
C792 C794 1.381 . S
C792 C798 1.383 . S
C793 C789 1.495 . S
C793 H799 0.959 . S
C793 H800 0.961 . S
C793 H801 0.960 . S
C794 C792 1.381 . S
C794 C795 1.394 . S
C794 H802 0.930 . S
C795 C794 1.394 . S
C795 C796 1.383 . S
C795 H803 0.929 . S
C796 C795 1.383 . S
C796 C797 1.377 . S
C797 H781 0.930 . S
C797 C796 1.377 . S
C797 C798 1.379 . S
C798 H782 0.931 . S
C798 C792 1.383 . S
C798 C797 1.379 . S
H799 C793 0.959 . S
H800 C793 0.961 . S
H801 C793 0.960 . S
H802 C794 0.930 . S
H803 C795 0.929 . S
H804 C812 0.929 . S
H805 C814 0.930 . S
H806 C816 0.930 . S
H807 C819 0.929 . S
H808 C822 0.930 . S
H809 C824 0.960 . S
H810 C824 0.960 . S
H811 C824 0.960 . S
C812 H804 0.929 . S
C812 C813 1.377 . S
C812 C814 1.384 . S
C813 C812 1.377 . S
C813 C819 1.390 . S
C814 H805 0.930 . S
C814 C812 1.384 . S
C814 C815 1.372 . S
C815 C814 1.372 . S
C815 C816 1.400 . S
C815 C820 1.490 . S
C816 H806 0.930 . S
C816 C815 1.400 . S
C816 C819 1.386 . S
H817 C833 0.930 . S
H818 C834 0.931 . S
C819 H807 0.929 . S
C819 C813 1.390 . S
C819 C816 1.386 . S
C820 C815 1.490 . S
C820 C822 1.395 . S
C820 C823 1.403 . S
H821 C827 0.930 . S
C822 H808 0.930 . S
C822 C820 1.395 . S
C822 C825 1.403 . S
C823 C820 1.403 . S
C823 C824 1.524 . S
C823 C827 1.400 . S
C824 H809 0.960 . S
C824 H810 0.960 . S
C824 H811 0.960 . S
C824 C823 1.524 . S
C825 C822 1.403 . S
C825 C826 1.392 . S
C825 C829 1.495 . S
C826 C825 1.392 . S
C826 C827 1.385 . S
C826 C828 1.478 . S
C827 H821 0.930 . S
C827 C823 1.400 . S
C827 C826 1.385 . S
C828 C826 1.478 . S
C828 C830 1.381 . S
C828 C834 1.383 . S
C829 C825 1.495 . S
C829 H835 0.959 . S
C829 H836 0.961 . S
C829 H837 0.960 . S
C830 C828 1.381 . S
C830 C831 1.394 . S
C830 H838 0.930 . S
C831 C830 1.394 . S
C831 C832 1.383 . S
C831 H839 0.929 . S
C832 C831 1.383 . S
C832 C833 1.377 . S
C833 H817 0.930 . S
C833 C832 1.377 . S
C833 C834 1.379 . S
C834 H818 0.931 . S
C834 C828 1.383 . S
C834 C833 1.379 . S
H835 C829 0.959 . S
H836 C829 0.961 . S
H837 C829 0.960 . S
H838 C830 0.930 . S
H839 C831 0.929 . S
H840 C848 0.929 . S
H841 C850 0.930 . S
H842 C852 0.930 . S
H843 C855 0.929 . S
H844 C858 0.930 . S
H845 C860 0.960 . S
H846 C860 0.960 . S
H847 C860 0.960 . S
C848 H840 0.929 . S
C848 C849 1.377 . S
C848 C850 1.384 . S
C849 C848 1.377 . S
C849 C855 1.390 . S
C850 H841 0.930 . S
C850 C848 1.384 . S
C850 C851 1.372 . S
C851 C850 1.372 . S
C851 C852 1.400 . S
C851 C856 1.490 . S
C852 H842 0.930 . S
C852 C851 1.400 . S
C852 C855 1.386 . S
H853 C869 0.930 . S
H854 C870 0.931 . S
C855 H843 0.929 . S
C855 C849 1.390 . S
C855 C852 1.386 . S
C856 C851 1.490 . S
C856 C858 1.395 . S
C856 C859 1.403 . S
H857 C863 0.930 . S
C858 H844 0.930 . S
C858 C856 1.395 . S
C858 C861 1.403 . S
C859 C856 1.403 . S
C859 C860 1.524 . S
C859 C863 1.400 . S
C860 H845 0.960 . S
C860 H846 0.960 . S
C860 H847 0.960 . S
C860 C859 1.524 . S
C861 C858 1.403 . S
C861 C862 1.392 . S
C861 C865 1.495 . S
C862 C861 1.392 . S
C862 C863 1.385 . S
C862 C864 1.478 . S
C863 H857 0.930 . S
C863 C859 1.400 . S
C863 C862 1.385 . S
C864 C862 1.478 . S
C864 C866 1.381 . S
C864 C870 1.383 . S
C865 C861 1.495 . S
C865 H871 0.959 . S
C865 H872 0.961 . S
C865 H873 0.960 . S
C866 C864 1.381 . S
C866 C867 1.394 . S
C866 H874 0.930 . S
C867 C866 1.394 . S
C867 C868 1.383 . S
C867 H875 0.929 . S
C868 C867 1.383 . S
C868 C869 1.377 . S
C869 H853 0.930 . S
C869 C868 1.377 . S
C869 C870 1.379 . S
C870 H854 0.931 . S
C870 C864 1.383 . S
C870 C869 1.379 . S
H871 C865 0.959 . S
H872 C865 0.961 . S
H873 C865 0.960 . S
H874 C866 0.930 . S
H875 C867 0.929 . S
H876 C884 0.929 . S
H877 C886 0.930 . S
H878 C888 0.930 . S
H879 C891 0.929 . S
H880 C894 0.930 . S
H881 C896 0.960 . S
H882 C896 0.960 . S
H883 C896 0.960 . S
C884 H876 0.929 . S
C884 C885 1.377 . S
C884 C886 1.384 . S
C885 C884 1.377 . S
C885 C891 1.390 . S
C886 H877 0.930 . S
C886 C884 1.384 . S
C886 C887 1.372 . S
C887 C886 1.372 . S
C887 C888 1.400 . S
C887 C892 1.490 . S
C888 H878 0.930 . S
C888 C887 1.400 . S
C888 C891 1.386 . S
H889 C905 0.930 . S
H890 C906 0.931 . S
C891 H879 0.929 . S
C891 C885 1.390 . S
C891 C888 1.386 . S
C892 C887 1.490 . S
C892 C894 1.395 . S
C892 C895 1.403 . S
H893 C899 0.930 . S
C894 H880 0.930 . S
C894 C892 1.395 . S
C894 C897 1.403 . S
C895 C892 1.403 . S
C895 C896 1.524 . S
C895 C899 1.400 . S
C896 H881 0.960 . S
C896 H882 0.960 . S
C896 H883 0.960 . S
C896 C895 1.524 . S
C897 C894 1.403 . S
C897 C898 1.392 . S
C897 C901 1.495 . S
C898 C897 1.392 . S
C898 C899 1.385 . S
C898 C900 1.478 . S
C899 H893 0.930 . S
C899 C895 1.400 . S
C899 C898 1.385 . S
C900 C898 1.478 . S
C900 C902 1.381 . S
C900 C906 1.383 . S
C901 C897 1.495 . S
C901 H907 0.959 . S
C901 H908 0.961 . S
C901 H909 0.960 . S
C902 C900 1.381 . S
C902 C903 1.394 . S
C902 H910 0.930 . S
C903 C902 1.394 . S
C903 C904 1.383 . S
C903 H911 0.929 . S
C904 C903 1.383 . S
C904 C905 1.377 . S
C905 H889 0.930 . S
C905 C904 1.377 . S
C905 C906 1.379 . S
C906 H890 0.931 . S
C906 C900 1.383 . S
C906 C905 1.379 . S
H907 C901 0.959 . S
H908 C901 0.961 . S
H909 C901 0.960 . S
H910 C902 0.930 . S
H911 C903 0.929 . S
H912 C920 0.929 . S
H913 C922 0.930 . S
H914 C924 0.930 . S
H915 C927 0.929 . S
H916 C930 0.930 . S
H917 C932 0.960 . S
H918 C932 0.960 . S
H919 C932 0.960 . S
C920 H912 0.929 . S
C920 C921 1.377 . S
C920 C922 1.384 . S
C921 C920 1.377 . S
C921 C927 1.390 . S
C922 H913 0.930 . S
C922 C920 1.384 . S
C922 C923 1.372 . S
C923 C922 1.372 . S
C923 C924 1.400 . S
C923 C928 1.490 . S
C924 H914 0.930 . S
C924 C923 1.400 . S
C924 C927 1.386 . S
H925 C941 0.930 . S
H926 C942 0.931 . S
C927 H915 0.929 . S
C927 C921 1.390 . S
C927 C924 1.386 . S
C928 C923 1.490 . S
C928 C930 1.395 . S
C928 C931 1.403 . S
H929 C935 0.930 . S
C930 H916 0.930 . S
C930 C928 1.395 . S
C930 C933 1.403 . S
C931 C928 1.403 . S
C931 C932 1.524 . S
C931 C935 1.400 . S
C932 H917 0.960 . S
C932 H918 0.960 . S
C932 H919 0.960 . S
C932 C931 1.524 . S
C933 C930 1.403 . S
C933 C934 1.392 . S
C933 C937 1.495 . S
C934 C933 1.392 . S
C934 C935 1.385 . S
C934 C936 1.478 . S
C935 H929 0.930 . S
C935 C931 1.400 . S
C935 C934 1.385 . S
C936 C934 1.478 . S
C936 C938 1.381 . S
C936 C942 1.383 . S
C937 C933 1.495 . S
C937 H943 0.959 . S
C937 H944 0.961 . S
C937 H945 0.960 . S
C938 C936 1.381 . S
C938 C939 1.394 . S
C938 H946 0.930 . S
C939 C938 1.394 . S
C939 C940 1.383 . S
C939 H947 0.929 . S
C940 C939 1.383 . S
C940 C941 1.377 . S
C941 H925 0.930 . S
C941 C940 1.377 . S
C941 C942 1.379 . S
C942 H926 0.931 . S
C942 C936 1.383 . S
C942 C941 1.379 . S
H943 C937 0.959 . S
H944 C937 0.961 . S
H945 C937 0.960 . S
H946 C938 0.930 . S
H947 C939 0.929 . S
H948 C956 0.929 . S
H949 C958 0.930 . S
H950 C960 0.930 . S
H951 C963 0.929 . S
H952 C966 0.930 . S
H953 C968 0.960 . S
H954 C968 0.960 . S
H955 C968 0.960 . S
C956 H948 0.929 . S
C956 C957 1.377 . S
C956 C958 1.384 . S
C957 C956 1.377 . S
C957 C963 1.390 . S
C958 H949 0.930 . S
C958 C956 1.384 . S
C958 C959 1.372 . S
C959 C958 1.372 . S
C959 C960 1.400 . S
C959 C964 1.490 . S
C960 H950 0.930 . S
C960 C959 1.400 . S
C960 C963 1.386 . S
H961 C977 0.930 . S
H962 C978 0.931 . S
C963 H951 0.929 . S
C963 C957 1.390 . S
C963 C960 1.386 . S
C964 C959 1.490 . S
C964 C966 1.395 . S
C964 C967 1.403 . S
H965 C971 0.930 . S
C966 H952 0.930 . S
C966 C964 1.395 . S
C966 C969 1.403 . S
C967 C964 1.403 . S
C967 C968 1.524 . S
C967 C971 1.400 . S
C968 H953 0.960 . S
C968 H954 0.960 . S
C968 H955 0.960 . S
C968 C967 1.524 . S
C969 C966 1.403 . S
C969 C970 1.392 . S
C969 C973 1.495 . S
C970 C969 1.392 . S
C970 C971 1.385 . S
C970 C972 1.478 . S
C971 H965 0.930 . S
C971 C967 1.400 . S
C971 C970 1.385 . S
C972 C970 1.478 . S
C972 C974 1.381 . S
C972 C978 1.383 . S
C973 C969 1.495 . S
C973 H979 0.959 . S
C973 H980 0.961 . S
C973 H981 0.960 . S
C974 C972 1.381 . S
C974 C975 1.394 . S
C974 H982 0.930 . S
C975 C974 1.394 . S
C975 C976 1.383 1_556 S
C975 H983 0.929 1_556 S
C976 C975 1.383 1_554 S
C976 C977 1.377 1_554 S
C977 H961 0.930 . S
C977 C976 1.377 1_556 S
C977 C978 1.379 . S
C978 H962 0.931 . S
C978 C972 1.383 . S
C978 C977 1.379 . S
H979 C973 0.959 . S
H980 C973 0.961 . S
H981 C973 0.960 . S
H982 C974 0.930 . S
H983 C975 0.929 1_554 S
H984 C992 0.929 . S
H985 C994 0.930 . S
H986 C996 0.930 . S
H987 C999 0.929 . S
H988 C1002 0.930 . S
H989 C1004 0.960 . S
H990 C1004 0.960 . S
H991 C1004 0.960 . S
C992 H984 0.929 . S
C992 C993 1.377 . S
C992 C994 1.384 . S
C993 C992 1.377 . S
C993 C999 1.390 . S
C994 H985 0.930 . S
C994 C992 1.384 . S
C994 C995 1.372 . S
C995 C994 1.372 . S
C995 C996 1.400 . S
C995 C1000 1.490 . S
C996 H986 0.930 . S
C996 C995 1.400 . S
C996 C999 1.386 . S
H997 C1013 0.930 . S
H998 C1014 0.931 . S
C999 H987 0.929 . S
C999 C993 1.390 . S
C999 C996 1.386 . S
C1000 C995 1.490 . S
C1000 C1002 1.395 . S
C1000 C1003 1.403 . S
H1001 C1007 0.930 . S
C1002 H988 0.930 . S
C1002 C1000 1.395 . S
C1002 C1005 1.403 . S
C1003 C1000 1.403 . S
C1003 C1004 1.524 . S
C1003 C1007 1.400 . S
C1004 H989 0.960 . S
C1004 H990 0.960 . S
C1004 H991 0.960 . S
C1004 C1003 1.524 . S
C1005 C1002 1.403 . S
C1005 C1006 1.392 1_556 S
C1005 C1009 1.495 1_556 S
C1006 C1005 1.392 1_554 S
C1006 C1007 1.385 1_554 S
C1006 C1008 1.478 . S
C1007 H1001 0.930 . S
C1007 C1003 1.400 . S
C1007 C1006 1.385 1_556 S
C1008 C1006 1.478 . S
C1008 C1010 1.381 . S
C1008 C1014 1.383 . S
C1009 C1005 1.495 1_554 S
C1009 H1015 0.959 1_554 S
C1009 H1016 0.961 . S
C1009 H1017 0.960 . S
C1010 C1008 1.381 . S
C1010 C1011 1.394 . S
C1010 H1018 0.930 . S
C1011 C1010 1.394 . S
C1011 C1012 1.383 . S
C1011 H1019 0.929 . S
C1012 C1011 1.383 . S
C1012 C1013 1.377 . S
C1013 H997 0.930 . S
C1013 C1012 1.377 . S
C1013 C1014 1.379 . S
C1014 H998 0.931 . S
C1014 C1008 1.383 . S
C1014 C1013 1.379 . S
H1015 C1009 0.959 1_556 S
H1016 C1009 0.961 . S
H1017 C1009 0.960 . S
H1018 C1010 0.930 . S
H1019 C1011 0.929 . S
H1020 C1028 0.929 . S
H1021 C1030 0.930 . S
H1022 C1032 0.930 . S
H1023 C1035 0.929 . S
H1024 C1038 0.930 . S
H1025 C1040 0.960 . S
H1026 C1040 0.960 . S
H1027 C1040 0.960 . S
C1028 H1020 0.929 . S
C1028 C1029 1.377 . S
C1028 C1030 1.384 . S
C1029 C1028 1.377 . S
C1029 C1035 1.390 . S
C1030 H1021 0.930 . S
C1030 C1028 1.384 . S
C1030 C1031 1.372 . S
C1031 C1030 1.372 . S
C1031 C1032 1.400 . S
C1031 C1036 1.490 . S
C1032 H1022 0.930 . S
C1032 C1031 1.400 . S
C1032 C1035 1.386 . S
H1033 C1049 0.930 . S
H1034 C1050 0.931 . S
C1035 H1023 0.929 . S
C1035 C1029 1.390 . S
C1035 C1032 1.386 . S
C1036 C1031 1.490 . S
C1036 C1038 1.395 . S
C1036 C1039 1.403 . S
H1037 C1043 0.930 . S
C1038 H1024 0.930 . S
C1038 C1036 1.395 . S
C1038 C1041 1.403 . S
C1039 C1036 1.403 . S
C1039 C1040 1.524 . S
C1039 C1043 1.400 . S
C1040 H1025 0.960 . S
C1040 H1026 0.960 . S
C1040 H1027 0.960 . S
C1040 C1039 1.524 . S
C1041 C1038 1.403 . S
C1041 C1042 1.392 . S
C1041 C1045 1.495 . S
C1042 C1041 1.392 . S
C1042 C1043 1.385 . S
C1042 C1044 1.478 1_554 S
C1043 H1037 0.930 . S
C1043 C1039 1.400 . S
C1043 C1042 1.385 . S
C1044 C1042 1.478 1_556 S
C1044 C1046 1.381 . S
C1044 C1050 1.383 . S
C1045 C1041 1.495 . S
C1045 H1051 0.959 . S
C1045 H1052 0.961 . S
C1045 H1053 0.960 . S
C1046 C1044 1.381 . S
C1046 C1047 1.394 . S
C1046 H1054 0.930 . S
C1047 C1046 1.394 . S
C1047 C1048 1.383 . S
C1047 H1055 0.929 . S
C1048 C1047 1.383 . S
C1048 C1049 1.377 . S
C1049 H1033 0.930 . S
C1049 C1048 1.377 . S
C1049 C1050 1.379 . S
C1050 H1034 0.931 . S
C1050 C1044 1.383 . S
C1050 C1049 1.379 . S
H1051 C1045 0.959 . S
H1052 C1045 0.961 . S
H1053 C1045 0.960 . S
H1054 C1046 0.930 . S
H1055 C1047 0.929 . S
H1056 C1064 0.929 . S
H1057 C1066 0.930 . S
H1058 C1068 0.930 . S
H1059 C1071 0.929 . S
H1060 C1074 0.930 . S
H1061 C1076 0.960 . S
H1062 C1076 0.960 . S
H1063 C1076 0.960 . S
C1064 H1056 0.929 . S
C1064 C1065 1.377 . S
C1064 C1066 1.384 . S
C1065 C1064 1.377 . S
C1065 C1071 1.390 . S
C1066 H1057 0.930 . S
C1066 C1064 1.384 . S
C1066 C1067 1.372 . S
C1067 C1066 1.372 . S
C1067 C1068 1.400 . S
C1067 C1072 1.490 . S
C1068 H1058 0.930 . S
C1068 C1067 1.400 . S
C1068 C1071 1.386 . S
H1069 C1085 0.930 . S
H1070 C1086 0.931 . S
C1071 H1059 0.929 . S
C1071 C1065 1.390 . S
C1071 C1068 1.386 . S
C1072 C1067 1.490 . S
C1072 C1074 1.395 . S
C1072 C1075 1.403 . S
H1073 C1079 0.930 . S
C1074 H1060 0.930 . S
C1074 C1072 1.395 . S
C1074 C1077 1.403 . S
C1075 C1072 1.403 . S
C1075 C1076 1.524 . S
C1075 C1079 1.400 . S
C1076 H1061 0.960 . S
C1076 H1062 0.960 . S
C1076 H1063 0.960 . S
C1076 C1075 1.524 . S
C1077 C1074 1.403 . S
C1077 C1078 1.392 . S
C1077 C1081 1.495 . S
C1078 C1077 1.392 . S
C1078 C1079 1.385 . S
C1078 C1080 1.478 . S
C1079 H1073 0.930 . S
C1079 C1075 1.400 . S
C1079 C1078 1.385 . S
C1080 C1078 1.478 . S
C1080 C1082 1.381 . S
C1080 C1086 1.383 . S
C1081 C1077 1.495 . S
C1081 H1087 0.959 . S
C1081 H1088 0.961 . S
C1081 H1089 0.960 . S
C1082 C1080 1.381 . S
C1082 C1083 1.394 . S
C1082 H1090 0.930 . S
C1083 C1082 1.394 . S
C1083 C1084 1.383 . S
C1083 H1091 0.929 . S
C1084 C1083 1.383 . S
C1084 C1085 1.377 . S
C1085 H1069 0.930 . S
C1085 C1084 1.377 . S
C1085 C1086 1.379 . S
C1086 H1070 0.931 . S
C1086 C1080 1.383 . S
C1086 C1085 1.379 . S
H1087 C1081 0.959 . S
H1088 C1081 0.961 . S
H1089 C1081 0.960 . S
H1090 C1082 0.930 . S
H1091 C1083 0.929 . S
H1092 C1100 0.929 . S
H1093 C1102 0.930 . S
H1094 C1104 0.930 . S
H1095 C1107 0.929 . S
H1096 C1110 0.930 . S
H1097 C1112 0.960 . S
H1098 C1112 0.960 . S
H1099 C1112 0.960 . S
C1100 H1092 0.929 . S
C1100 C1101 1.377 . S
C1100 C1102 1.384 . S
C1101 C1100 1.377 . S
C1101 C1107 1.390 . S
C1102 H1093 0.930 . S
C1102 C1100 1.384 . S
C1102 C1103 1.372 . S
C1103 C1102 1.372 . S
C1103 C1104 1.400 . S
C1103 C1108 1.490 . S
C1104 H1094 0.930 . S
C1104 C1103 1.400 . S
C1104 C1107 1.386 . S
H1105 C1121 0.930 . S
H1106 C1122 0.931 . S
C1107 H1095 0.929 . S
C1107 C1101 1.390 . S
C1107 C1104 1.386 . S
C1108 C1103 1.490 . S
C1108 C1110 1.395 . S
C1108 C1111 1.403 . S
H1109 C1115 0.930 . S
C1110 H1096 0.930 . S
C1110 C1108 1.395 . S
C1110 C1113 1.403 . S
C1111 C1108 1.403 . S
C1111 C1112 1.524 . S
C1111 C1115 1.400 . S
C1112 H1097 0.960 . S
C1112 H1098 0.960 . S
C1112 H1099 0.960 . S
C1112 C1111 1.524 . S
C1113 C1110 1.403 . S
C1113 C1114 1.392 . S
C1113 C1117 1.495 . S
C1114 C1113 1.392 . S
C1114 C1115 1.385 . S
C1114 C1116 1.478 . S
C1115 H1109 0.930 . S
C1115 C1111 1.400 . S
C1115 C1114 1.385 . S
C1116 C1114 1.478 . S
C1116 C1118 1.381 . S
C1116 C1122 1.383 . S
C1117 C1113 1.495 . S
C1117 H1123 0.959 . S
C1117 H1124 0.961 . S
C1117 H1125 0.960 . S
C1118 C1116 1.381 . S
C1118 C1119 1.394 . S
C1118 H1126 0.930 . S
C1119 C1118 1.394 . S
C1119 C1120 1.383 . S
C1119 H1127 0.929 . S
C1120 C1119 1.383 . S
C1120 C1121 1.377 . S
C1121 H1105 0.930 . S
C1121 C1120 1.377 . S
C1121 C1122 1.379 . S
C1122 H1106 0.931 . S
C1122 C1116 1.383 . S
C1122 C1121 1.379 . S
H1123 C1117 0.959 . S
H1124 C1117 0.961 . S
H1125 C1117 0.960 . S
H1126 C1118 0.930 . S
H1127 C1119 0.929 . S
H1128 C1136 0.929 . S
H1129 C1138 0.930 . S
H1130 C1140 0.930 . S
H1131 C1143 0.929 . S
H1132 C1146 0.930 . S
H1133 C1148 0.960 . S
H1134 C1148 0.960 . S
H1135 C1148 0.960 . S
C1136 H1128 0.929 . S
C1136 C1137 1.377 . S
C1136 C1138 1.384 . S
C1137 C1136 1.377 . S
C1137 C1143 1.390 . S
C1138 H1129 0.930 . S
C1138 C1136 1.384 . S
C1138 C1139 1.372 . S
C1139 C1138 1.372 . S
C1139 C1140 1.400 . S
C1139 C1144 1.490 . S
C1140 H1130 0.930 . S
C1140 C1139 1.400 . S
C1140 C1143 1.386 . S
H1141 C1157 0.930 . S
H1142 C1158 0.931 . S
C1143 H1131 0.929 . S
C1143 C1137 1.390 . S
C1143 C1140 1.386 . S
C1144 C1139 1.490 . S
C1144 C1146 1.395 . S
C1144 C1147 1.403 . S
H1145 C1151 0.930 . S
C1146 H1132 0.930 . S
C1146 C1144 1.395 . S
C1146 C1149 1.403 . S
C1147 C1144 1.403 . S
C1147 C1148 1.524 . S
C1147 C1151 1.400 . S
C1148 H1133 0.960 . S
C1148 H1134 0.960 . S
C1148 H1135 0.960 . S
C1148 C1147 1.524 . S
C1149 C1146 1.403 . S
C1149 C1150 1.392 . S
C1149 C1153 1.495 . S
C1150 C1149 1.392 . S
C1150 C1151 1.385 . S
C1150 C1152 1.478 . S
C1151 H1145 0.930 . S
C1151 C1147 1.400 . S
C1151 C1150 1.385 . S
C1152 C1150 1.478 . S
C1152 C1154 1.381 . S
C1152 C1158 1.383 . S
C1153 C1149 1.495 . S
C1153 H1159 0.959 . S
C1153 H1160 0.961 . S
C1153 H1161 0.960 . S
C1154 C1152 1.381 . S
C1154 C1155 1.394 . S
C1154 H1162 0.930 . S
C1155 C1154 1.394 . S
C1155 C1156 1.383 . S
C1155 H1163 0.929 . S
C1156 C1155 1.383 . S
C1156 C1157 1.377 . S
C1157 H1141 0.930 . S
C1157 C1156 1.377 . S
C1157 C1158 1.379 . S
C1158 H1142 0.931 . S
C1158 C1152 1.383 . S
C1158 C1157 1.379 . S
H1159 C1153 0.959 . S
H1160 C1153 0.961 . S
H1161 C1153 0.960 . S
H1162 C1154 0.930 . S
H1163 C1155 0.929 . S
H1164 C1172 0.929 . S
H1165 C1174 0.930 . S
H1166 C1176 0.930 . S
H1167 C1179 0.929 . S
H1168 C1182 0.930 . S
H1169 C1184 0.960 . S
H1170 C1184 0.960 . S
H1171 C1184 0.960 . S
C1172 H1164 0.929 . S
C1172 C1173 1.377 . S
C1172 C1174 1.384 . S
C1173 C1172 1.377 . S
C1173 C1179 1.390 . S
C1174 H1165 0.930 . S
C1174 C1172 1.384 . S
C1174 C1175 1.372 . S
C1175 C1174 1.372 . S
C1175 C1176 1.400 . S
C1175 C1180 1.490 . S
C1176 H1166 0.930 . S
C1176 C1175 1.400 . S
C1176 C1179 1.386 . S
H1177 C1193 0.930 . S
H1178 C1194 0.931 . S
C1179 H1167 0.929 . S
C1179 C1173 1.390 . S
C1179 C1176 1.386 . S
C1180 C1175 1.490 . S
C1180 C1182 1.395 . S
C1180 C1183 1.403 . S
H1181 C1187 0.930 . S
C1182 H1168 0.930 . S
C1182 C1180 1.395 . S
C1182 C1185 1.403 . S
C1183 C1180 1.403 . S
C1183 C1184 1.524 . S
C1183 C1187 1.400 . S
C1184 H1169 0.960 . S
C1184 H1170 0.960 . S
C1184 H1171 0.960 . S
C1184 C1183 1.524 . S
C1185 C1182 1.403 . S
C1185 C1186 1.392 . S
C1185 C1189 1.495 . S
C1186 C1185 1.392 . S
C1186 C1187 1.385 . S
C1186 C1188 1.478 . S
C1187 H1181 0.930 . S
C1187 C1183 1.400 . S
C1187 C1186 1.385 . S
C1188 C1186 1.478 . S
C1188 C1190 1.381 . S
C1188 C1194 1.383 . S
C1189 C1185 1.495 . S
C1189 H1195 0.959 . S
C1189 H1196 0.961 . S
C1189 H1197 0.960 . S
C1190 C1188 1.381 . S
C1190 C1191 1.394 . S
C1190 H1198 0.930 . S
C1191 C1190 1.394 . S
C1191 C1192 1.383 . S
C1191 H1199 0.929 . S
C1192 C1191 1.383 . S
C1192 C1193 1.377 . S
C1193 H1177 0.930 . S
C1193 C1192 1.377 . S
C1193 C1194 1.379 . S
C1194 H1178 0.931 . S
C1194 C1188 1.383 . S
C1194 C1193 1.379 . S
H1195 C1189 0.959 . S
H1196 C1189 0.961 . S
H1197 C1189 0.960 . S
H1198 C1190 0.930 . S
H1199 C1191 0.929 . S
H1200 C1208 0.929 . S
H1201 C1210 0.930 . S
H1202 C1212 0.930 . S
H1203 C1215 0.929 . S
H1204 C1218 0.930 . S
H1205 C1220 0.960 . S
H1206 C1220 0.960 1_554 S
H1207 C1220 0.960 . S
C1208 H1200 0.929 . S
C1208 C1209 1.377 . S
C1208 C1210 1.384 . S
C1209 C1208 1.377 . S
C1209 C1215 1.390 1_554 S
C1210 H1201 0.930 . S
C1210 C1208 1.384 . S
C1210 C1211 1.372 1_554 S
C1211 C1210 1.372 1_556 S
C1211 C1212 1.400 . S
C1211 C1216 1.490 . S
C1212 H1202 0.930 . S
C1212 C1211 1.400 . S
C1212 C1215 1.386 . S
H1213 C1229 0.930 . S
H1214 C1230 0.931 . S
C1215 H1203 0.929 . S
C1215 C1209 1.390 1_556 S
C1215 C1212 1.386 . S
C1216 C1211 1.490 . S
C1216 C1218 1.395 . S
C1216 C1219 1.403 . S
H1217 C1223 0.930 . S
C1218 H1204 0.930 . S
C1218 C1216 1.395 . S
C1218 C1221 1.403 . S
C1219 C1216 1.403 . S
C1219 C1220 1.524 . S
C1219 C1223 1.400 . S
C1220 H1205 0.960 . S
C1220 H1206 0.960 1_556 S
C1220 H1207 0.960 . S
C1220 C1219 1.524 . S
C1221 C1218 1.403 . S
C1221 C1222 1.392 . S
C1221 C1225 1.495 . S
C1222 C1221 1.392 . S
C1222 C1223 1.385 . S
C1222 C1224 1.478 . S
C1223 H1217 0.930 . S
C1223 C1219 1.400 . S
C1223 C1222 1.385 . S
C1224 C1222 1.478 . S
C1224 C1226 1.381 . S
C1224 C1230 1.383 . S
C1225 C1221 1.495 . S
C1225 H1231 0.959 . S
C1225 H1232 0.961 . S
C1225 H1233 0.960 . S
C1226 C1224 1.381 . S
C1226 C1227 1.394 . S
C1226 H1234 0.930 . S
C1227 C1226 1.394 . S
C1227 C1228 1.383 . S
C1227 H1235 0.929 . S
C1228 C1227 1.383 . S
C1228 C1229 1.377 . S
C1229 H1213 0.930 . S
C1229 C1228 1.377 . S
C1229 C1230 1.379 . S
C1230 H1214 0.931 . S
C1230 C1224 1.383 . S
C1230 C1229 1.379 . S
H1231 C1225 0.959 . S
H1232 C1225 0.961 . S
H1233 C1225 0.960 . S
H1234 C1226 0.930 . S
H1235 C1227 0.929 . S
H1236 C1244 0.929 . S
H1237 C1246 0.930 . S
H1238 C1248 0.930 . S
H1239 C1251 0.929 . S
H1240 C1254 0.930 . S
H1241 C1256 0.960 . S
H1242 C1256 0.960 . S
H1243 C1256 0.960 . S
C1244 H1236 0.929 . S
C1244 C1245 1.377 . S
C1244 C1246 1.384 . S
C1245 C1244 1.377 . S
C1245 C1251 1.390 . S
C1246 H1237 0.930 . S
C1246 C1244 1.384 . S
C1246 C1247 1.372 . S
C1247 C1246 1.372 . S
C1247 C1248 1.400 . S
C1247 C1252 1.490 . S
C1248 H1238 0.930 . S
C1248 C1247 1.400 . S
C1248 C1251 1.386 . S
H1249 C1265 0.930 . S
H1250 C1266 0.931 . S
C1251 H1239 0.929 . S
C1251 C1245 1.390 . S
C1251 C1248 1.386 . S
C1252 C1247 1.490 . S
C1252 C1254 1.395 . S
C1252 C1255 1.403 . S
H1253 C1259 0.930 . S
C1254 H1240 0.930 . S
C1254 C1252 1.395 . S
C1254 C1257 1.403 . S
C1255 C1252 1.403 . S
C1255 C1256 1.524 . S
C1255 C1259 1.400 . S
C1256 H1241 0.960 . S
C1256 H1242 0.960 . S
C1256 H1243 0.960 . S
C1256 C1255 1.524 . S
C1257 C1254 1.403 . S
C1257 C1258 1.392 . S
C1257 C1261 1.495 1_554 S
C1258 C1257 1.392 . S
C1258 C1259 1.385 . S
C1258 C1260 1.478 . S
C1259 H1253 0.930 . S
C1259 C1255 1.400 . S
C1259 C1258 1.385 . S
C1260 C1258 1.478 . S
C1260 C1262 1.381 1_554 S
C1260 C1266 1.383 . S
C1261 C1257 1.495 1_556 S
C1261 H1267 0.959 . S
C1261 H1268 0.961 . S
C1261 H1269 0.960 . S
C1262 C1260 1.381 1_556 S
C1262 C1263 1.394 . S
C1262 H1270 0.930 . S
C1263 C1262 1.394 . S
C1263 C1264 1.383 . S
C1263 H1271 0.929 . S
C1264 C1263 1.383 . S
C1264 C1265 1.377 1_556 S
C1265 H1249 0.930 . S
C1265 C1264 1.377 1_554 S
C1265 C1266 1.379 . S
C1266 H1250 0.931 . S
C1266 C1260 1.383 . S
C1266 C1265 1.379 . S
H1267 C1261 0.959 . S
H1268 C1261 0.961 . S
H1269 C1261 0.960 . S
H1270 C1262 0.930 . S
H1271 C1263 0.929 . S
H1272 C1280 0.929 . S
H1273 C1282 0.930 . S
H1274 C1284 0.930 . S
H1275 C1287 0.929 . S
H1276 C1290 0.930 . S
H1277 C1292 0.960 1_565 S
H1278 C1292 0.960 . S
H1279 C1292 0.960 . S
C1280 H1272 0.929 . S
C1280 C1281 1.377 . S
C1280 C1282 1.384 . S
C1281 C1280 1.377 . S
C1281 C1287 1.390 . S
C1282 H1273 0.930 . S
C1282 C1280 1.384 . S
C1282 C1283 1.372 . S
C1283 C1282 1.372 . S
C1283 C1284 1.400 . S
C1283 C1288 1.490 . S
C1284 H1274 0.930 . S
C1284 C1283 1.400 . S
C1284 C1287 1.386 . S
H1285 C1301 0.930 . S
H1286 C1302 0.931 . S
C1287 H1275 0.929 . S
C1287 C1281 1.390 . S
C1287 C1284 1.386 . S
C1288 C1283 1.490 . S
C1288 C1290 1.395 1_554 S
C1288 C1291 1.403 . S
H1289 C1295 0.930 . S
C1290 H1276 0.930 . S
C1290 C1288 1.395 1_556 S
C1290 C1293 1.403 1_545 S
C1291 C1288 1.403 . S
C1291 C1292 1.524 . S
C1291 C1295 1.400 1_545 S
C1292 H1277 0.960 1_545 S
C1292 H1278 0.960 . S
C1292 H1279 0.960 . S
C1292 C1291 1.524 . S
C1293 C1290 1.403 1_565 S
C1293 C1294 1.392 . S
C1293 C1297 1.495 . S
C1294 C1293 1.392 . S
C1294 C1295 1.385 1_556 S
C1294 C1296 1.478 . S
C1295 H1289 0.930 . S
C1295 C1291 1.400 1_565 S
C1295 C1294 1.385 1_554 S
C1296 C1294 1.478 . S
C1296 C1298 1.381 . S
C1296 C1302 1.383 . S
C1297 C1293 1.495 . S
C1297 H1303 0.959 1_565 S
C1297 H1304 0.961 . S
C1297 H1305 0.960 . S
C1298 C1296 1.381 . S
C1298 C1299 1.394 . S
C1298 H1306 0.930 . S
C1299 C1298 1.394 . S
C1299 C1300 1.383 . S
C1299 H1307 0.929 . S
C1300 C1299 1.383 . S
C1300 C1301 1.377 . S
C1301 H1285 0.930 . S
C1301 C1300 1.377 . S
C1301 C1302 1.379 . S
C1302 H1286 0.931 . S
C1302 C1296 1.383 . S
C1302 C1301 1.379 . S
H1303 C1297 0.959 1_545 S
H1304 C1297 0.961 . S
H1305 C1297 0.960 . S
H1306 C1298 0.930 . S
H1307 C1299 0.929 . S
H1308 C1316 0.929 . S
H1309 C1318 0.930 . S
H1310 C1320 0.930 . S
H1311 C1323 0.929 . S
H1312 C1326 0.930 . S
H1313 C1328 0.960 . S
H1314 C1328 0.960 . S
H1315 C1328 0.960 . S
C1316 H1308 0.929 . S
C1316 C1317 1.377 . S
C1316 C1318 1.384 . S
C1317 C1316 1.377 . S
C1317 C1323 1.390 . S
C1318 H1309 0.930 . S
C1318 C1316 1.384 . S
C1318 C1319 1.372 . S
C1319 C1318 1.372 . S
C1319 C1320 1.400 . S
C1319 C1324 1.490 . S
C1320 H1310 0.930 . S
C1320 C1319 1.400 . S
C1320 C1323 1.386 . S
H1321 C1337 0.930 . S
H1322 C1338 0.931 . S
C1323 H1311 0.929 . S
C1323 C1317 1.390 . S
C1323 C1320 1.386 . S
C1324 C1319 1.490 . S
C1324 C1326 1.395 . S
C1324 C1327 1.403 . S
H1325 C1331 0.930 . S
C1326 H1312 0.930 . S
C1326 C1324 1.395 . S
C1326 C1329 1.403 . S
C1327 C1324 1.403 . S
C1327 C1328 1.524 . S
C1327 C1331 1.400 . S
C1328 H1313 0.960 . S
C1328 H1314 0.960 . S
C1328 H1315 0.960 . S
C1328 C1327 1.524 . S
C1329 C1326 1.403 . S
C1329 C1330 1.392 . S
C1329 C1333 1.495 . S
C1330 C1329 1.392 . S
C1330 C1331 1.385 . S
C1330 C1332 1.478 . S
C1331 H1325 0.930 . S
C1331 C1327 1.400 . S
C1331 C1330 1.385 . S
C1332 C1330 1.478 . S
C1332 C1334 1.381 . S
C1332 C1338 1.383 . S
C1333 C1329 1.495 . S
C1333 H1339 0.959 . S
C1333 H1340 0.961 . S
C1333 H1341 0.960 . S
C1334 C1332 1.381 . S
C1334 C1335 1.394 . S
C1334 H1342 0.930 . S
C1335 C1334 1.394 . S
C1335 C1336 1.383 . S
C1335 H1343 0.929 . S
C1336 C1335 1.383 . S
C1336 C1337 1.377 . S
C1337 H1321 0.930 . S
C1337 C1336 1.377 . S
C1337 C1338 1.379 . S
C1338 H1322 0.931 . S
C1338 C1332 1.383 . S
C1338 C1337 1.379 . S
H1339 C1333 0.959 . S
H1340 C1333 0.961 . S
H1341 C1333 0.960 . S
H1342 C1334 0.930 . S
H1343 C1335 0.929 . S
H1344 C1352 0.929 . S
H1345 C1354 0.930 . S
H1346 C1356 0.930 . S
H1347 C1359 0.929 . S
H1348 C1362 0.930 . S
H1349 C1364 0.960 . S
H1350 C1364 0.960 . S
H1351 C1364 0.960 . S
C1352 H1344 0.929 . S
C1352 C1353 1.377 . S
C1352 C1354 1.384 . S
C1353 C1352 1.377 . S
C1353 C1359 1.390 . S
C1354 H1345 0.930 . S
C1354 C1352 1.384 . S
C1354 C1355 1.372 . S
C1355 C1354 1.372 . S
C1355 C1356 1.400 . S
C1355 C1360 1.490 . S
C1356 H1346 0.930 . S
C1356 C1355 1.400 . S
C1356 C1359 1.386 . S
H1357 C1373 0.930 . S
H1358 C1374 0.931 . S
C1359 H1347 0.929 . S
C1359 C1353 1.390 . S
C1359 C1356 1.386 . S
C1360 C1355 1.490 . S
C1360 C1362 1.395 . S
C1360 C1363 1.403 . S
H1361 C1367 0.930 . S
C1362 H1348 0.930 . S
C1362 C1360 1.395 . S
C1362 C1365 1.403 1_455 S
C1363 C1360 1.403 . S
C1363 C1364 1.524 . S
C1363 C1367 1.400 1_455 S
C1364 H1349 0.960 . S
C1364 H1350 0.960 . S
C1364 H1351 0.960 . S
C1364 C1363 1.524 . S
C1365 C1362 1.403 1_655 S
C1365 C1366 1.392 . S
C1365 C1369 1.495 . S
C1366 C1365 1.392 . S
C1366 C1367 1.385 . S
C1366 C1368 1.478 . S
C1367 H1361 0.930 . S
C1367 C1363 1.400 1_655 S
C1367 C1366 1.385 . S
C1368 C1366 1.478 . S
C1368 C1370 1.381 . S
C1368 C1374 1.383 . S
C1369 C1365 1.495 . S
C1369 H1375 0.959 . S
C1369 H1376 0.961 . S
C1369 H1377 0.960 . S
C1370 C1368 1.381 . S
C1370 C1371 1.394 . S
C1370 H1378 0.930 . S
C1371 C1370 1.394 . S
C1371 C1372 1.383 . S
C1371 H1379 0.929 . S
C1372 C1371 1.383 . S
C1372 C1373 1.377 . S
C1373 H1357 0.930 . S
C1373 C1372 1.377 . S
C1373 C1374 1.379 . S
C1374 H1358 0.931 . S
C1374 C1368 1.383 . S
C1374 C1373 1.379 . S
H1375 C1369 0.959 . S
H1376 C1369 0.961 . S
H1377 C1369 0.960 . S
H1378 C1370 0.930 . S
H1379 C1371 0.929 . S
H1380 C1388 0.929 . S
H1381 C1390 0.930 . S
H1382 C1392 0.930 . S
H1383 C1395 0.929 . S
H1384 C1398 0.930 . S
H1385 C1400 0.960 1_545 S
H1386 C1400 0.960 . S
H1387 C1400 0.960 . S
C1388 H1380 0.929 . S
C1388 C1389 1.377 . S
C1388 C1390 1.384 . S
C1389 C1388 1.377 . S
C1389 C1395 1.390 . S
C1390 H1381 0.930 . S
C1390 C1388 1.384 . S
C1390 C1391 1.372 . S
C1391 C1390 1.372 . S
C1391 C1392 1.400 . S
C1391 C1396 1.490 . S
C1392 H1382 0.930 . S
C1392 C1391 1.400 . S
C1392 C1395 1.386 . S
H1393 C1409 0.930 . S
H1394 C1410 0.931 . S
C1395 H1383 0.929 . S
C1395 C1389 1.390 . S
C1395 C1392 1.386 . S
C1396 C1391 1.490 . S
C1396 C1398 1.395 . S
C1396 C1399 1.403 . S
H1397 C1403 0.930 . S
C1398 H1384 0.930 . S
C1398 C1396 1.395 . S
C1398 C1401 1.403 1_565 S
C1399 C1396 1.403 . S
C1399 C1400 1.524 . S
C1399 C1403 1.400 1_565 S
C1400 H1385 0.960 1_565 S
C1400 H1386 0.960 . S
C1400 H1387 0.960 . S
C1400 C1399 1.524 . S
C1401 C1398 1.403 1_545 S
C1401 C1402 1.392 . S
C1401 C1405 1.495 . S
C1402 C1401 1.392 . S
C1402 C1403 1.385 . S
C1402 C1404 1.478 . S
C1403 H1397 0.930 . S
C1403 C1399 1.400 1_545 S
C1403 C1402 1.385 . S
C1404 C1402 1.478 . S
C1404 C1406 1.381 . S
C1404 C1410 1.383 . S
C1405 C1401 1.495 . S
C1405 H1411 0.959 1_545 S
C1405 H1412 0.961 . S
C1405 H1413 0.960 . S
C1406 C1404 1.381 . S
C1406 C1407 1.394 . S
C1406 H1414 0.930 . S
C1407 C1406 1.394 . S
C1407 C1408 1.383 . S
C1407 H1415 0.929 . S
C1408 C1407 1.383 . S
C1408 C1409 1.377 . S
C1409 H1393 0.930 . S
C1409 C1408 1.377 . S
C1409 C1410 1.379 . S
C1410 H1394 0.931 . S
C1410 C1404 1.383 . S
C1410 C1409 1.379 . S
H1411 C1405 0.959 1_565 S
H1412 C1405 0.961 . S
H1413 C1405 0.960 . S
H1414 C1406 0.930 . S
H1415 C1407 0.929 . S
H1416 C1424 0.929 . S
H1417 C1426 0.930 . S
H1418 C1428 0.930 . S
H1419 C1431 0.929 . S
H1420 C1434 0.930 . S
H1421 C1436 0.960 . S
H1422 C1436 0.960 . S
H1423 C1436 0.960 . S
C1424 H1416 0.929 . S
C1424 C1425 1.377 . S
C1424 C1426 1.384 . S
C1425 C1424 1.377 . S
C1425 C1431 1.390 . S
C1426 H1417 0.930 . S
C1426 C1424 1.384 . S
C1426 C1427 1.372 . S
C1427 C1426 1.372 . S
C1427 C1428 1.400 . S
C1427 C1432 1.490 . S
C1428 H1418 0.930 . S
C1428 C1427 1.400 . S
C1428 C1431 1.386 . S
H1429 C1445 0.930 . S
H1430 C1446 0.931 . S
C1431 H1419 0.929 . S
C1431 C1425 1.390 . S
C1431 C1428 1.386 . S
C1432 C1427 1.490 . S
C1432 C1434 1.395 . S
C1432 C1435 1.403 . S
H1433 C1439 0.930 . S
C1434 H1420 0.930 . S
C1434 C1432 1.395 . S
C1434 C1437 1.403 . S
C1435 C1432 1.403 . S
C1435 C1436 1.524 . S
C1435 C1439 1.400 . S
C1436 H1421 0.960 . S
C1436 H1422 0.960 . S
C1436 H1423 0.960 . S
C1436 C1435 1.524 . S
C1437 C1434 1.403 . S
C1437 C1438 1.392 . S
C1437 C1441 1.495 . S
C1438 C1437 1.392 . S
C1438 C1439 1.385 . S
C1438 C1440 1.478 . S
C1439 H1433 0.930 . S
C1439 C1435 1.400 . S
C1439 C1438 1.385 . S
C1440 C1438 1.478 . S
C1440 C1442 1.381 . S
C1440 C1446 1.383 . S
C1441 C1437 1.495 . S
C1441 H1447 0.959 . S
C1441 H1448 0.961 . S
C1441 H1449 0.960 . S
C1442 C1440 1.381 . S
C1442 C1443 1.394 . S
C1442 H1450 0.930 . S
C1443 C1442 1.394 . S
C1443 C1444 1.383 . S
C1443 H1451 0.929 . S
C1444 C1443 1.383 . S
C1444 C1445 1.377 . S
C1445 H1429 0.930 . S
C1445 C1444 1.377 . S
C1445 C1446 1.379 . S
C1446 H1430 0.931 . S
C1446 C1440 1.383 . S
C1446 C1445 1.379 . S
H1447 C1441 0.959 . S
H1448 C1441 0.961 . S
H1449 C1441 0.960 . S
H1450 C1442 0.930 . S
H1451 C1443 0.929 . S
H1452 C1460 0.929 . S
H1453 C1462 0.930 . S
H1454 C1464 0.930 . S
H1455 C1467 0.929 . S
H1456 C1470 0.930 . S
H1457 C1472 1.027 . S
H1458 C1472 0.960 . S
H1459 C1472 0.960 . S
C1460 H1452 0.929 . S
C1460 C1461 1.377 . S
C1460 C1462 1.384 . S
C1461 C1460 1.377 . S
C1461 C1467 1.390 . S
C1462 H1453 0.930 . S
C1462 C1460 1.384 . S
C1462 C1463 1.372 . S
C1463 C1462 1.372 . S
C1463 C1464 1.400 . S
C1463 C1468 1.490 . S
C1464 H1454 0.930 . S
C1464 C1463 1.400 . S
C1464 C1467 1.386 . S
H1465 C1481 0.930 . S
H1466 C1482 0.931 . S
C1467 H1455 0.929 . S
C1467 C1461 1.390 . S
C1467 C1464 1.386 . S
C1468 C1463 1.490 . S
C1468 C1470 1.395 . S
C1468 C1471 1.403 . S
H1469 C1475 0.930 . S
C1470 H1456 0.930 . S
C1470 C1468 1.395 . S
C1470 C1473 1.403 1_455 S
C1471 C1468 1.403 . S
C1471 C1472 1.524 . S
C1471 C1475 1.400 1_455 S
C1472 H1457 1.027 . S
C1472 H1458 0.960 . S
C1472 H1459 0.960 . S
C1472 C1471 1.524 . S
C1473 C1470 1.403 1_655 S
C1473 C1474 1.392 . S
C1473 C1477 1.495 . S
C1474 C1473 1.392 . S
C1474 C1475 1.385 . S
C1474 C1476 1.478 . S
C1475 H1469 0.930 . S
C1475 C1471 1.400 1_655 S
C1475 C1474 1.385 . S
C1476 C1474 1.478 . S
C1476 C1478 1.381 . S
C1476 C1482 1.383 . S
C1477 C1473 1.495 . S
C1477 H1483 0.992 . S
C1477 H1484 0.961 . S
C1477 H1485 0.960 . S
C1478 C1476 1.381 . S
C1478 C1479 1.394 . S
C1478 H1486 0.930 . S
C1479 C1478 1.394 . S
C1479 C1480 1.383 . S
C1479 H1487 0.929 . S
C1480 C1479 1.383 . S
C1480 C1481 1.377 . S
C1481 H1465 0.930 . S
C1481 C1480 1.377 . S
C1481 C1482 1.379 . S
C1482 H1466 0.931 . S
C1482 C1476 1.383 . S
C1482 C1481 1.379 . S
H1483 C1477 0.992 . S
H1484 C1477 0.961 . S
H1485 C1477 0.960 . S
H1486 C1478 0.930 . S
H1487 C1479 0.929 . S
C417 C292 1.512 . S
C436 C20 1.513 . S
C453 C326 1.513 . S
C472 C54 1.508 . S
C489 C360 1.514 . S
C508 C88 1.508 . S
C525 C394 1.513 . S
C544 C122 1.512 . S
C561 C156 1.514 . S
C580 C224 1.507 . S
C597 C258 1.514 . S
C616 C190 1.508 . S
C633 C9 1.117 . S
C652 C5 1.148 . S
C669 C39 1.146 . S
C688 C43 1.141 1_556 S
C705 C73 1.148 . S
C724 C77 1.130 . S
C741 C107 1.147 . S
C760 C111 1.106 . S
C777 C141 1.148 . S
C796 C145 1.101 . S
C813 C175 1.147 . S
C832 C179 1.149 . S
C849 C213 1.118 1_554 S
C868 C209 1.151 . S
C885 C243 1.147 . S
C904 C247 1.150 . S
C921 C281 1.129 . S
C940 C277 1.140 . S
C957 C315 1.125 . S
C976 C311 1.140 . S
C993 C349 1.128 . S
C1012 C345 1.140 . S
C1029 C379 1.149 . S
C1048 C383 1.091 . S
C1065 C33 1.598 . S
C1084 C373 1.599 . S
C1101 C67 1.597 . S
C1120 C407 1.587 . S
C1137 C101 1.596 . S
C1156 C237 1.591 . S
C1173 C271 1.599 . S
C1192 C135 1.604 . S
C1209 C305 1.600 . S
C1228 C169 1.601 . S
C1245 C339 1.597 . S
C1264 C203 1.598 . S
C1281 C2 1.551 . S
C1300 C240 1.554 . S
C1317 C274 1.549 . S
C1336 C36 1.546 . S
C1353 C308 1.548 . S
C1372 C70 1.539 . S
C1389 C104 1.551 . S
C1408 C342 1.552 . S
C1425 C376 1.550 . S
C1444 C138 1.550 . S
C1461 C172 1.549 . S
C1480 C206 1.546 . S
