# Generated by pormake.
# Topology mok, (4)-cn, num edge types: 1
# Building blocks:
#     Node 0, Type 0, BuildingBlock: ICAMEG_clean_sbu_1, # of connection points: 4
#     Node 1, Type 0, BuildingBlock: ICAMEG_clean_sbu_1, # of connection points: 4
#     Node 2, Type 0, BuildingBlock: ICAMEG_clean_sbu_1, # of connection points: 4
#     Node 3, Type 0, BuildingBlock: ICAMEG_clean_sbu_1, # of connection points: 4
#     Node 4, Type 0, BuildingBlock: ICAMEG_clean_sbu_1, # of connection points: 4
#     Node 5, Type 0, BuildingBlock: ICAMEG_clean_sbu_1, # of connection points: 4
#     Node 6, Type 0, BuildingBlock: ICAMEG_clean_sbu_1, # of connection points: 4
#     Node 7, Type 0, BuildingBlock: ICAMEG_clean_sbu_1, # of connection points: 4
#     Edge 8, Type (0, 0), BuildingBlock: MIFKUJ_clean_linker_0, # of connection points: 2
#     Edge 9, Type (0, 0), BuildingBlock: MIFKUJ_clean_linker_0, # of connection points: 2
#     Edge 10, Type (0, 0), BuildingBlock: MIFKUJ_clean_linker_0, # of connection points: 2
#     Edge 11, Type (0, 0), BuildingBlock: MIFKUJ_clean_linker_0, # of connection points: 2
#     Edge 12, Type (0, 0), BuildingBlock: MIFKUJ_clean_linker_0, # of connection points: 2
#     Edge 13, Type (0, 0), BuildingBlock: MIFKUJ_clean_linker_0, # of connection points: 2
#     Edge 14, Type (0, 0), BuildingBlock: MIFKUJ_clean_linker_0, # of connection points: 2
#     Edge 15, Type (0, 0), BuildingBlock: MIFKUJ_clean_linker_0, # of connection points: 2
#     Edge 16, Type (0, 0), BuildingBlock: MIFKUJ_clean_linker_0, # of connection points: 2
#     Edge 17, Type (0, 0), BuildingBlock: MIFKUJ_clean_linker_0, # of connection points: 2
#     Edge 18, Type (0, 0), BuildingBlock: MIFKUJ_clean_linker_0, # of connection points: 2
#     Edge 19, Type (0, 0), BuildingBlock: MIFKUJ_clean_linker_0, # of connection points: 2
#     Edge 20, Type (0, 0), BuildingBlock: MIFKUJ_clean_linker_0, # of connection points: 2
#     Edge 21, Type (0, 0), BuildingBlock: MIFKUJ_clean_linker_0, # of connection points: 2
#     Edge 22, Type (0, 0), BuildingBlock: MIFKUJ_clean_linker_0, # of connection points: 2
#     Edge 23, Type (0, 0), BuildingBlock: MIFKUJ_clean_linker_0, # of connection points: 2
# Relax obj value: 0.014
# Max RMSD: 0.055
# Mean RMSD: 0.055
data_MOF--net-mok--node1-ICAMEG_clean_sbu_1--edge1-MIFKUJ_clean_linker_0
_symmetry_space_group_name_H-M    P1
_symmetry_Int_Tables_number       1
_symmetry_cell_setting            triclinic
loop_
_symmetry_equiv_pos_as_xyz
'x, y, z'
_cell_length_a     74.6884
_cell_length_b     18.631914
_cell_length_c     38.399085
_cell_angle_alpha  89.97929
_cell_angle_beta   89.977006
_cell_angle_gamma 90.066664
loop_
_atom_site_label
_atom_site_type_symbol
_atom_site_fract_x
_atom_site_fract_y
_atom_site_fract_z
_atom_type_partial_charge
Co0 Co 0.6253 0.4163 0.0417 0.0
Co1 Co 0.61957 0.23753 0.01909 0.0
O2 O 0.61326 0.32276 0.0467 0.0
C3 C 0.62922 0.38884 0.11767 0.0
O4 O 0.63556 0.32508 0.10996 0.0
C5 C 0.57888 0.23893 0.02063 0.0
O6 O 0.57859 0.30388 0.03371 0.0
O7 O 0.61762 0.29382 0.97491 0.0
O8 O 0.62668 0.40457 0.9901 0.0
H9 H 0.65425 0.10542 0.92715 0.0
H10 H 0.59152 0.4122 0.08246 0.0
O11 O 0.62425 0.43115 0.09347 0.0
H12 H 0.57949 0.57441 0.98372 0.0
H13 H 0.6348 0.67827 0.06827 0.0
H14 H 0.65575 0.47101 0.99969 0.0
H15 H 0.60904 0.51747 0.99036 0.0
H16 H 0.62015 0.56023 0.07425 0.0
O17 O 0.5937 0.20821 0.01372 0.0
H18 H 0.64562 0.21046 0.96244 0.0
H19 H 0.60701 0.08499 0.0164 0.0
H20 H 0.67067 0.58825 0.99263 0.0
H21 H 0.56185 0.46913 0.07713 0.0
H22 H 0.66018 0.69296 0.02705 0.0
H23 H 0.55565 0.55062 0.02737 0.0
O24 O 0.64934 0.37131 0.04636 0.0
H25 H 0.59934 0.15967 0.13824 0.0
H26 H 0.6455 0.13086 0.04765 0.0
H27 H 0.64824 0.06362 0.10265 0.0
H28 H 0.62499 0.07759 0.14841 0.0
H29 H 0.5973 0.2266 0.0831 0.0
H30 H 0.615 0.97901 0.98129 0.0
H31 H 0.63887 0.98869 0.93645 0.0
O32 O 0.64572 0.26132 0.02342 0.0
C33 C 0.62228 0.35791 0.96741 0.0
C34 C 0.64386 0.10048 0.94667 0.0
C35 C 0.62181 0.02956 0.97702 0.0
N36 N 0.62592 0.15381 0.99163 0.0
C37 C 0.63896 0.15971 0.96681 0.0
C38 C 0.61729 0.08988 0.99672 0.0
C39 C 0.63521 0.03502 0.95187 0.0
C40 C 0.58899 0.44813 0.06092 0.0
N41 N 0.602 0.4612 0.03672 0.0
C42 C 0.57213 0.47996 0.05795 0.0
C43 C 0.56865 0.52558 0.03 0.0
C44 C 0.58201 0.53885 0.00546 0.0
C45 C 0.59869 0.50605 0.00926 0.0
C46 C 0.63948 0.63308 0.05309 0.0
C47 C 0.65106 0.51637 0.01465 0.0
C48 C 0.63127 0.56604 0.05644 0.0
N49 N 0.63701 0.50885 0.03717 0.0
C50 C 0.65959 0.58259 0.0106 0.0
C51 C 0.65371 0.6413 0.02994 0.0
C52 C 0.65553 0.31144 0.03576 0.0
C53 C 0.60953 0.15299 0.11848 0.0
C54 C 0.63544 0.13776 0.06751 0.0
C55 C 0.637 0.09924 0.09856 0.0
C56 C 0.62394 0.10704 0.1242 0.0
N57 N 0.62125 0.18265 0.06202 0.0
C58 C 0.60841 0.19057 0.08708 0.0
Co59 Co 0.37821 0.58531 0.04471 0.0
Co60 Co 0.38365 0.75903 0.01571 0.0
O61 O 0.38936 0.6804 0.04786 0.0
C62 C 0.37318 0.62301 0.11953 0.0
O63 O 0.36908 0.68897 0.11058 0.0
C64 C 0.42017 0.80052 0.99201 0.0
O65 O 0.41499 0.78529 0.96017 0.0
O66 O 0.38871 0.69587 0.97489 0.0
O67 O 0.37867 0.58863 0.99278 0.0
H68 H 0.35552 0.8697 0.90969 0.0
H69 H 0.41098 0.60609 0.08678 0.0
O70 O 0.3775 0.57705 0.09655 0.0
H71 H 0.42656 0.41989 1.00074 0.0
H72 H 0.36854 0.32735 0.07947 0.0
H73 H 0.3492 0.52302 1.00162 0.0
H74 H 0.39634 0.47289 1.00175 0.0
H75 H 0.38299 0.44628 0.08238 0.0
O76 O 0.40953 0.79025 0.01759 0.0
H77 H 0.36228 0.77203 0.95102 0.0
H78 H 0.39387 0.91402 0.01199 0.0
H79 H 0.3345 0.40469 0.9976 0.0
H80 H 0.44135 0.55406 0.08695 0.0
H81 H 0.34416 0.30587 0.03673 0.0
H82 H 0.4493 0.4603 0.04367 0.0
O83 O 0.354 0.62964 0.04539 0.0
H84 H 0.39614 0.86699 0.13318 0.0
H85 H 0.35348 0.85615 0.03534 0.0
H86 H 0.34649 0.93126 0.08636 0.0
H87 H 0.36792 0.93721 0.13572 0.0
H88 H 0.40252 0.79174 0.08183 0.0
H89 H 0.38756 0.01311 0.97121 0.0
H90 H 0.36822 0.99127 0.91966 0.0
O91 O 0.3577 0.73038 0.01402 0.0
C92 C 0.3844 0.6307 0.9691 0.0
C93 C 0.36394 0.87993 0.93209 0.0
C94 C 0.38192 0.96042 0.96662 0.0
N95 N 0.37839 0.83735 0.98394 0.0
C96 C 0.36778 0.82486 0.95561 0.0
C97 C 0.38545 0.90409 0.98959 0.0
C98 C 0.37107 0.94812 0.9377 0.0
C99 C 0.41434 0.56516 0.06794 0.0
N100 N 0.4019 0.5426 0.04427 0.0
C101 C 0.43156 0.53598 0.06812 0.0
C102 C 0.43602 0.48342 0.04381 0.0
C103 C 0.42327 0.46078 0.0197 0.0
C104 C 0.40619 0.49123 0.02028 0.0
C105 C 0.36424 0.36995 0.06223 0.0
C106 C 0.35355 0.48015 0.01859 0.0
C107 C 0.37234 0.43746 0.06382 0.0
N108 N 0.36703 0.49141 0.04201 0.0
C109 C 0.34515 0.41332 0.01626 0.0
C110 C 0.35056 0.35792 0.03824 0.0
C111 C 0.34779 0.68425 0.0294 0.0
C112 C 0.38672 0.865 0.11179 0.0
C113 C 0.36285 0.85806 0.05678 0.0
C114 C 0.35883 0.90092 0.08556 0.0
C115 C 0.37087 0.90429 0.11323 0.0
N116 N 0.37844 0.81974 0.05552 0.0
C117 C 0.3903 0.82274 0.08257 0.0
Co118 Co 0.62778 0.61251 0.54811 0.0
Co119 Co 0.62353 0.78921 0.57348 0.0
O120 O 0.61667 0.70744 0.54435 0.0
C121 C 0.63256 0.64326 0.47259 0.0
O122 O 0.64007 0.70447 0.48123 0.0
C123 C 0.58375 0.78608 0.5823 0.0
O124 O 0.58438 0.71625 0.58678 0.0
O125 O 0.62027 0.7306 0.61671 0.0
O126 O 0.62901 0.62052 0.59996 0.0
H127 H 0.65693 0.91052 0.67058 0.0
H128 H 0.59392 0.62926 0.50874 0.0
O129 O 0.62667 0.6012 0.49614 0.0
H130 H 0.58019 0.45694 0.60255 0.0
H131 H 0.63513 0.3516 0.51713 0.0
H132 H 0.6578 0.55132 0.58897 0.0
H133 H 0.61054 0.50764 0.59655 0.0
H134 H 0.6213 0.47153 0.51349 0.0
O135 O 0.59802 0.82139 0.57639 0.0
H136 H 0.64828 0.80893 0.63296 0.0
H137 H 0.61284 0.94364 0.57639 0.0
H138 H 0.67192 0.43212 0.59365 0.0
H139 H 0.5634 0.57951 0.51371 0.0
H140 H 0.66058 0.33122 0.55757 0.0
H141 H 0.55637 0.49281 0.56095 0.0
O142 O 0.65226 0.65478 0.54438 0.0
H143 H 0.60553 0.8775 0.45498 0.0
H144 H 0.65136 0.89121 0.54701 0.0
H145 H 0.65563 0.95961 0.49267 0.0
H146 H 0.63257 0.95309 0.44618 0.0
H147 H 0.60195 0.8093 0.50961 0.0
H148 H 0.62096 0.04646 0.61363 0.0
H149 H 0.64322 0.03031 0.66102 0.0
O150 O 0.64937 0.76153 0.57091 0.0
C151 C 0.6245 0.66562 0.62336 0.0
C152 C 0.64725 0.91827 0.64996 0.0
C153 C 0.62704 0.99454 0.61803 0.0
N154 N 0.63014 0.8704 0.60241 0.0
C155 C 0.64233 0.861 0.62853 0.0
C156 C 0.62244 0.93604 0.59712 0.0
C157 C 0.63954 0.98545 0.64461 0.0
C158 C 0.59099 0.59113 0.52919 0.0
N159 N 0.60402 0.57116 0.55221 0.0
C160 C 0.57368 0.56334 0.53196 0.0
C161 C 0.56974 0.51478 0.5585 0.0
C162 C 0.58309 0.49469 0.58188 0.0
C163 C 0.60024 0.5237 0.57838 0.0
C164 C 0.64017 0.39509 0.53305 0.0
C165 C 0.65272 0.50758 0.57334 0.0
C166 C 0.63242 0.46316 0.53104 0.0
N167 N 0.63864 0.51821 0.55123 0.0
C168 C 0.6608 0.44025 0.57602 0.0
C169 C 0.65444 0.38369 0.55575 0.0
C170 C 0.65888 0.71218 0.55717 0.0
C171 C 0.61569 0.8807 0.47502 0.0
C172 C 0.64141 0.88741 0.52678 0.0
C173 C 0.64383 0.92663 0.49613 0.0
C174 C 0.63087 0.92304 0.47008 0.0
N175 N 0.62653 0.84579 0.5314 0.0
C176 C 0.61373 0.8423 0.50603 0.0
Co177 Co 0.3805 0.38743 0.54613 0.0
Co178 Co 0.38155 0.21147 0.57366 0.0
O179 O 0.38955 0.289 0.54281 0.0
C180 C 0.37435 0.35631 0.47099 0.0
O181 O 0.36661 0.29556 0.47969 0.0
C182 C 0.42122 0.20329 0.58036 0.0
O183 O 0.42158 0.27298 0.58541 0.0
O184 O 0.38665 0.27068 0.61589 0.0
O185 O 0.38005 0.38217 0.59798 0.0
H186 H 0.34761 0.10631 0.67453 0.0
H187 H 0.41322 0.3562 0.50536 0.0
O188 O 0.38093 0.39703 0.49431 0.0
H189 H 0.43209 0.5303 0.59483 0.0
H190 H 0.37773 0.64893 0.51319 0.0
H191 H 0.35242 0.4591 0.58807 0.0
H192 H 0.40066 0.49056 0.59119 0.0
H193 H 0.38926 0.52513 0.51006 0.0
O194 O 0.40639 0.17139 0.5751 0.0
H195 H 0.3576 0.2029 0.63509 0.0
H196 H 0.38909 0.05435 0.57783 0.0
H197 H 0.3406 0.58236 0.59228 0.0
H198 H 0.44477 0.39511 0.50775 0.0
H199 H 0.35327 0.67827 0.55465 0.0
H200 H 0.4544 0.48258 0.55283 0.0
O201 O 0.35521 0.35266 0.54397 0.0
H202 H 0.39538 0.10737 0.45604 0.0
H203 H 0.35053 0.12254 0.54999 0.0
H204 H 0.34372 0.05228 0.49724 0.0
H205 H 0.36625 0.04424 0.44981 0.0
H206 H 0.40158 0.17763 0.50913 0.0
H207 H 0.37957 0.95626 0.61684 0.0
H208 H 0.35862 0.98193 0.66552 0.0
O209 O 0.35645 0.24782 0.57263 0.0
C210 C 0.38387 0.33715 0.62183 0.0
C211 C 0.35671 0.09441 0.65336 0.0
C212 C 0.37466 0.01022 0.62101 0.0
N213 N 0.37383 0.13422 0.60407 0.0
C214 C 0.36238 0.14885 0.6309 0.0
C215 C 0.38005 0.06602 0.59906 0.0
C216 C 0.3629 0.02465 0.64831 0.0
C217 C 0.41728 0.39466 0.52489 0.0
N218 N 0.4051 0.42096 0.54817 0.0
C219 C 0.43518 0.41633 0.52619 0.0
C220 C 0.44058 0.46533 0.55151 0.0
C221 C 0.42807 0.49206 0.57511 0.0
C222 C 0.41029 0.4691 0.57304 0.0
C223 C 0.37211 0.60762 0.52975 0.0
C224 C 0.35806 0.50063 0.57173 0.0
C225 C 0.37855 0.53737 0.52801 0.0
N226 N 0.37158 0.48501 0.54898 0.0
C227 C 0.35129 0.57028 0.57417 0.0
C228 C 0.35839 0.62406 0.55303 0.0
C229 C 0.34771 0.2984 0.55814 0.0
C230 C 0.38547 0.11034 0.47655 0.0
C231 C 0.36037 0.11959 0.52942 0.0
C232 C 0.35646 0.07953 0.49964 0.0
C233 C 0.36912 0.075 0.47306 0.0
N234 N 0.37646 0.15402 0.53269 0.0
C235 C 0.38893 0.14984 0.50672 0.0
Co236 Co 0.12422 0.8939 0.04258 0.0
Co237 Co 0.12296 0.71953 0.01341 0.0
O238 O 0.11519 0.79527 0.04555 0.0
C239 C 0.13044 0.86216 0.11768 0.0
O240 O 0.13788 0.80098 0.10882 0.0
C241 C 0.08307 0.7076 0.01022 0.0
O242 O 0.08225 0.77754 0.00631 0.0
O243 O 0.11667 0.78005 0.9723 0.0
O244 O 0.1248 0.88954 0.99063 0.0
H245 H 0.15519 0.62132 0.90894 0.0
H246 H 0.09146 0.86311 0.08331 0.0
O247 O 0.12381 0.90307 0.0945 0.0
H248 H 0.07276 0.03591 0.99309 0.0
H249 H 0.12691 0.15513 0.07598 0.0
H250 H 0.15249 0.96613 1.00117 0.0
H251 H 0.10419 0.99655 0.99712 0.0
H252 H 0.11536 0.0312 0.07874 0.0
O253 O 0.09821 0.6769 0.01356 0.0
H254 H 0.14555 0.71552 0.94995 0.0
H255 H 0.11612 0.56195 0.00845 0.0
H256 H 0.16433 0.08953 0.99731 0.0
H257 H 0.0599 0.90179 0.08056 0.0
H258 H 0.15152 0.18502 0.03492 0.0
H259 H 0.05037 0.98856 0.0351 0.0
O260 O 0.14942 0.8588 0.04479 0.0
H261 H 0.11204 0.60864 0.13076 0.0
H262 H 0.15493 0.63266 0.03374 0.0
H263 H 0.16295 0.55928 0.08485 0.0
H264 H 0.14147 0.54706 0.13384 0.0
H265 H 0.1045 0.68134 0.07911 0.0
H266 H 0.1253 0.46621 0.96788 0.0
H267 H 0.14505 0.49561 0.91778 0.0
O268 O 0.14804 0.75827 0.01267 0.0
C269 C 0.12008 0.84618 0.96665 0.0
C270 C 0.14663 0.6078 0.93072 0.0
C271 C 0.12983 0.52076 0.96378 0.0
N272 N 0.13039 0.64419 0.9817 0.0
C273 C 0.14116 0.66087 0.95409 0.0
C274 C 0.12464 0.57524 0.98661 0.0
C275 C 0.14092 0.53729 0.93568 0.0
C276 C 0.08743 0.9014 0.06366 0.0
N277 N 0.09966 0.92751 0.0404 0.0
C278 C 0.06954 0.9229 0.06215 0.0
C279 C 0.06419 0.97151 0.03661 0.0
C280 C 0.07675 0.99804 0.01301 0.0
C281 C 0.09452 0.97532 0.01532 0.0
C282 C 0.13259 0.114 0.05944 0.0
C283 C 0.14679 0.00747 0.01751 0.0
C284 C 0.12614 0.04368 0.06097 0.0
N285 N 0.13319 0.99154 0.04003 0.0
C286 C 0.15358 0.07721 0.01526 0.0
C287 C 0.1464 0.13075 0.03638 0.0
C288 C 0.15686 0.80712 0.0285 0.0
C289 C 0.12151 0.6135 0.10955 0.0
C290 C 0.14549 0.62767 0.05497 0.0
C291 C 0.15012 0.58602 0.08383 0.0
C292 C 0.13804 0.57906 0.11129 0.0
N293 N 0.12921 0.66094 0.05337 0.0
C294 C 0.1173 0.65442 0.0802 0.0
Co295 Co 0.87777 0.09691 0.04187 0.0
Co296 Co 0.88166 0.27317 0.01648 0.0
O297 O 0.88854 0.19254 0.04647 0.0
C298 C 0.87398 0.12625 0.11771 0.0
O299 O 0.86867 0.19148 0.10998 0.0
C300 C 0.9217 0.27709 0.01123 0.0
O301 O 0.92172 0.20771 0.00519 0.0
O302 O 0.88673 0.21496 0.97387 0.0
O303 O 0.87661 0.10654 0.99006 0.0
H304 H 0.85006 0.38894 0.91562 0.0
H305 H 0.91144 0.1137 0.08173 0.0
O306 O 0.87855 0.08299 0.09364 0.0
H307 H 0.92602 0.94753 0.9859 0.0
H308 H 0.871 0.83438 0.07028 0.0
H309 H 0.84779 0.03627 1.00063 0.0
H310 H 0.89543 0.99511 0.99255 0.0
H311 H 0.88468 0.95456 0.07483 0.0
O312 O 0.90698 0.30982 0.01652 0.0
H313 H 0.85862 0.28871 0.95413 0.0
H314 H 0.89077 0.42924 0.01479 0.0
H315 H 0.83381 0.91685 0.99505 0.0
H316 H 0.94219 0.06659 0.07632 0.0
H317 H 0.84542 0.81487 0.03005 0.0
H318 H 0.94965 0.9831 0.02804 0.0
O319 O 0.85329 0.13817 0.04597 0.0
H320 H 0.89537 0.36931 0.13576 0.0
H321 H 0.85133 0.36575 0.0402 0.0
H322 H 0.84458 0.43349 0.09372 0.0
H323 H 0.86673 0.4358 0.14195 0.0
H324 H 0.9014 0.30107 0.08199 0.0
H325 H 0.88268 0.53084 0.97677 0.0
H326 H 0.86212 0.51105 0.92684 0.0
O327 O 0.85599 0.24092 0.01597 0.0
C328 C 0.88201 0.15064 0.96691 0.0
C329 C 0.859 0.39828 0.93734 0.0
C330 C 0.87733 0.47789 0.97162 0.0
N331 N 0.87511 0.35317 0.98678 0.0
C332 C 0.86386 0.34177 0.95927 0.0
C333 C 0.8819 0.4201 0.99301 0.0
C334 C 0.86578 0.46676 0.94363 0.0
C335 C 0.91456 0.07678 0.06089 0.0
N336 N 0.90164 0.05695 0.03761 0.0
C337 C 0.932 0.05052 0.05786 0.0
C338 C 0.93618 0.00376 0.03074 0.0
C339 C 0.92293 0.9838 0.00708 0.0
C340 C 0.90564 0.01109 0.01093 0.0
C341 C 0.86585 0.87834 0.05483 0.0
C342 C 0.85299 0.99206 0.01578 0.0
C343 C 0.87352 0.94654 0.05734 0.0
N344 N 0.86713 0.00224 0.03779 0.0
C345 C 0.84499 0.92461 0.01258 0.0
C346 C 0.8515 0.86743 0.03225 0.0
C347 C 0.84652 0.19283 0.03095 0.0
C348 C 0.88562 0.36881 0.11491 0.0
C349 C 0.86096 0.36591 0.06115 0.0
C350 C 0.85711 0.4047 0.09135 0.0
C351 C 0.86954 0.40602 0.11839 0.0
N352 N 0.87672 0.32931 0.05797 0.0
C353 C 0.889 0.33052 0.08434 0.0
Co354 Co 0.12486 0.09564 0.54514 0.0
Co355 Co 0.12225 0.27114 0.57286 0.0
O356 O 0.11536 0.19342 0.54099 0.0
C357 C 0.13125 0.1289 0.47011 0.0
O358 O 0.13632 0.19408 0.47857 0.0
C359 C 0.08237 0.27938 0.57525 0.0
O360 O 0.08171 0.2098 0.58063 0.0
O361 O 0.11592 0.21147 0.61433 0.0
O362 O 0.12395 0.10115 0.59702 0.0
H363 H 0.15243 0.37675 0.67799 0.0
H364 H 0.09297 0.12474 0.50177 0.0
O365 O 0.12591 0.08521 0.49336 0.0
H366 H 0.07306 0.94675 0.58864 0.0
H367 H 0.13026 0.83426 0.51315 0.0
H368 H 0.15215 0.02715 0.59011 0.0
H369 H 0.1043 0.9894 0.58787 0.0
H370 H 0.11806 0.95682 0.5084 0.0
O371 O 0.09737 0.31073 0.57132 0.0
H372 H 0.14403 0.28008 0.63727 0.0
H373 H 0.11441 0.42811 0.57604 0.0
H374 H 0.16455 0.90514 0.59605 0.0
H375 H 0.06161 0.08304 0.50128 0.0
H376 H 0.15361 0.8077 0.55735 0.0
H377 H 0.05146 0.99358 0.54504 0.0
O378 O 0.14991 0.13295 0.54494 0.0
H379 H 0.11198 0.37732 0.45425 0.0
H380 H 0.15402 0.35975 0.55285 0.0
H381 H 0.1625 0.43018 0.50105 0.0
H382 H 0.14138 0.43949 0.4513 0.0
H383 H 0.10415 0.30648 0.50637 0.0
H384 H 0.12236 0.52624 0.61626 0.0
H385 H 0.14156 0.50088 0.6676 0.0
O386 O 0.14741 0.23563 0.57499 0.0
C387 C 0.11906 0.14535 0.62049 0.0
C388 C 0.14409 0.38852 0.65566 0.0
C389 C 0.1272 0.4724 0.62104 0.0
N390 N 0.12882 0.34847 0.60421 0.0
C391 C 0.13932 0.33403 0.63247 0.0
C392 C 0.1227 0.41656 0.59841 0.0
C393 C 0.13798 0.45814 0.64984 0.0
C394 C 0.08867 0.08553 0.52077 0.0
N395 N 0.10045 0.05977 0.54494 0.0
C396 C 0.07089 0.06224 0.52042 0.0
C397 C 0.0652 0.01211 0.545 0.0
C398 C 0.0773 0.98589 0.56949 0.0
C399 C 0.09497 0.01051 0.56908 0.0
C400 C 0.13512 0.87625 0.53019 0.0
C401 C 0.14724 0.98493 0.57332 0.0
C402 C 0.1283 0.94581 0.52755 0.0
N403 N 0.13431 0.99901 0.54911 0.0
C404 C 0.15435 0.916 0.57674 0.0
C405 C 0.14822 0.86137 0.555 0.0
C406 C 0.15676 0.18684 0.56052 0.0
C407 C 0.12127 0.37382 0.47579 0.0
C408 C 0.14479 0.36315 0.53125 0.0
C409 C 0.14964 0.40336 0.50202 0.0
C410 C 0.13778 0.4086 0.47413 0.0
N411 N 0.12858 0.32907 0.53267 0.0
C412 C 0.11688 0.33405 0.50544 0.0
Co413 Co 0.88331 0.90822 0.54821 0.0
Co414 Co 0.88421 0.72851 0.57184 0.0
O415 O 0.89191 0.80932 0.54254 0.0
C416 C 0.87492 0.87677 0.47374 0.0
O417 O 0.86897 0.81329 0.4831 0.0
C418 C 0.92409 0.72224 0.57762 0.0
O419 O 0.9246 0.79229 0.58129 0.0
O420 O 0.88876 0.78452 0.61543 0.0
O421 O 0.88577 0.90038 0.59985 0.0
H422 H 0.85 0.61237 0.66947 0.0
H423 H 0.91391 0.87502 0.50185 0.0
O424 O 0.8811 0.91988 0.49649 0.0
H425 H 0.93722 0.05011 0.58681 0.0
H426 H 0.87903 0.17083 0.51788 0.0
H427 H 0.85814 0.97924 0.59673 0.0
H428 H 0.90563 0.01163 0.58879 0.0
H429 H 0.89013 0.04694 0.51132 0.0
O430 O 0.90921 0.69015 0.5734 0.0
H431 H 0.85978 0.71288 0.6322 0.0
H432 H 0.89254 0.57174 0.57325 0.0
H433 H 0.84686 0.10256 0.6045 0.0
H434 H 0.94555 0.91256 0.49861 0.0
H435 H 0.8573 0.19936 0.56485 0.0
H436 H 0.95742 1.0005 0.54141 0.0
O437 O 0.85777 0.87545 0.55049 0.0
H438 H 0.89973 0.63531 0.45287 0.0
H439 H 0.85406 0.63773 0.54556 0.0
H440 H 0.84817 0.57102 0.49133 0.0
H441 H 0.87113 0.56938 0.44453 0.0
H442 H 0.90495 0.70213 0.50737 0.0
H443 H 0.88324 0.46982 0.61007 0.0
H444 H 0.86175 0.48977 0.6585 0.0
O445 O 0.85901 0.76267 0.57077 0.0
C446 C 0.88841 0.85148 0.62251 0.0
C447 C 0.85934 0.60296 0.64841 0.0
C448 C 0.87802 0.52299 0.61511 0.0
N449 N 0.87668 0.6482 0.60053 0.0
C450 C 0.86491 0.65965 0.62719 0.0
C451 C 0.88329 0.58096 0.59443 0.0
C452 C 0.86596 0.53421 0.64226 0.0
C453 C 0.91896 0.91352 0.52048 0.0
N454 N 0.90798 0.94066 0.54569 0.0
C455 C 0.9369 0.93448 0.51855 0.0
C456 C 0.94355 0.98377 0.54259 0.0
C457 C 0.93223 0.01155 0.5681 0.0
C458 C 0.91438 0.98925 0.56925 0.0
C459 C 0.87439 0.12913 0.53533 0.0
C460 C 0.86283 0.02118 0.57953 0.0
C461 C 0.88058 0.05883 0.53166 0.0
N462 N 0.87485 0.00599 0.55373 0.0
C463 C 0.85636 0.09086 0.58398 0.0
C464 C 0.86221 0.14512 0.56171 0.0
C465 C 0.85028 0.81779 0.56107 0.0
C466 C 0.88963 0.63559 0.47308 0.0
C467 C 0.86404 0.63782 0.52523 0.0
C468 C 0.86067 0.59965 0.49463 0.0
C469 C 0.87357 0.59868 0.4684 0.0
N470 N 0.87981 0.67394 0.52964 0.0
C471 C 0.89253 0.67313 0.50404 0.0
H472 H 0.82728 0.30909 0.00847 0.0
H473 H 0.79496 0.32663 0.01057 0.0
H474 H 0.78823 0.11494 0.05391 0.0
H475 H 0.82076 0.09712 0.05278 0.0
H476 H 0.76389 0.15487 0.99601 0.0
H477 H 0.78521 0.24192 0.10737 0.0
H478 H 0.80509 0.31572 0.14407 0.0
H479 H 0.78511 0.50714 0.09549 0.0
H480 H 0.76533 0.43435 0.05804 0.0
H481 H 0.67318 0.1835 0.04122 0.0
H482 H 0.70529 0.16264 0.04249 0.0
H483 H 0.71472 0.3904 0.03284 0.0
H484 H 0.6824 0.41182 0.03404 0.0
H485 H 0.73828 0.34136 0.07363 0.0
H486 H 0.71801 0.26417 0.9619 0.0
H487 H 0.69902 0.19748 0.92049 0.0
H488 H 0.71776 0.99782 0.9627 0.0
H489 H 0.73665 0.06333 0.00476 0.0
C490 C 0.81903 0.26615 0.01866 0.0
C491 C 0.82674 0.20197 0.03094 0.0
C492 C 0.80051 0.27634 0.01972 0.0
C493 C 0.78923 0.22232 0.03261 0.0
C494 C 0.79674 0.15734 0.04393 0.0
C495 C 0.81534 0.14742 0.04338 0.0
C496 C 0.76964 0.23469 0.03486 0.0
C497 C 0.75821 0.19481 0.01333 0.0
C498 C 0.76237 0.28872 0.05652 0.0
C499 C 0.7739 0.33263 0.0797 0.0
C500 C 0.78514 0.29972 0.10436 0.0
C501 C 0.79639 0.34137 0.1253 0.0
C502 C 0.7964 0.41606 0.12205 0.0
C503 C 0.7851 0.44927 0.09795 0.0
C504 C 0.77386 0.40784 0.07688 0.0
C505 C 0.68203 0.22926 0.03958 0.0
C506 C 0.67515 0.2993 0.03733 0.0
C507 C 0.70048 0.21721 0.04001 0.0
C508 C 0.71258 0.27467 0.03676 0.0
C509 C 0.70575 0.34494 0.03521 0.0
C510 C 0.68723 0.35717 0.03579 0.0
C511 C 0.73228 0.26126 0.03478 0.0
C512 C 0.74382 0.30114 0.0563 0.0
C513 C 0.73969 0.20831 0.01243 0.0
C514 C 0.72862 0.16869 0.9867 0.0
C515 C 0.71801 0.20604 0.96247 0.0
C516 C 0.70726 0.16845 0.93888 0.0
C517 C 0.70715 0.09347 0.93903 0.0
C518 C 0.71784 0.05591 0.96266 0.0
C519 C 0.72859 0.09323 0.98636 0.0
H520 H 0.69879 0.06447 0.92079 0.0
H521 H 0.80514 0.44821 0.13825 0.0
H522 H 0.17774 0.73173 0.98312 0.0
H523 H 0.21008 0.71547 0.98458 0.0
H524 H 0.21341 0.85062 0.07558 0.0
H525 H 0.18094 0.86948 0.07342 0.0
H526 H 0.24089 0.87694 0.03649 0.0
H527 H 0.21562 0.66182 0.08209 0.0
H528 H 0.19559 0.55668 0.08391 0.0
H529 H 0.21834 0.47857 0.98847 0.0
H530 H 0.23859 0.58328 0.98618 0.0
H531 H 0.32246 0.61971 0.07059 0.0
H532 H 0.29035 0.64429 0.07258 0.0
H533 H 0.29631 0.79823 0.98938 0.0
H534 H 0.32849 0.77592 0.98813 0.0
H535 H 0.26414 0.62782 0.03071 0.0
H536 H 0.26631 0.93199 0.99627 0.0
H537 H 0.28676 0.03493 0.0037 0.0
H538 H 0.31034 0.93372 0.09305 0.0
H539 H 0.28986 0.83077 0.08649 0.0
C540 C 0.18533 0.75842 0.00337 0.0
C541 C 0.1767 0.80151 0.02833 0.0
C542 C 0.20386 0.7487 0.0043 0.0
C543 C 0.21423 0.78032 0.03069 0.0
C544 C 0.20574 0.8253 0.05503 0.0
C545 C 0.18716 0.83602 0.05379 0.0
C546 C 0.23381 0.76504 0.0331 0.0
C547 C 0.24596 0.82248 0.03525 0.0
C548 C 0.24054 0.69394 0.03251 0.0
C549 C 0.2285 0.63063 0.03382 0.0
C550 C 0.21628 0.62239 0.0614 0.0
C551 C 0.2049 0.56287 0.06252 0.0
C552 C 0.20559 0.5112 0.03619 0.0
C553 C 0.21779 0.51871 0.00881 0.0
C554 C 0.22927 0.57799 0.00766 0.0
C555 C 0.31695 0.65876 0.05267 0.0
C556 C 0.32812 0.69611 0.02934 0.0
C557 C 0.29854 0.67273 0.05381 0.0
C558 C 0.29085 0.72399 0.03152 0.0
C559 C 0.30191 0.75975 0.00748 0.0
C560 C 0.32034 0.74656 0.00664 0.0
C561 C 0.27128 0.73976 0.03332 0.0
C562 C 0.25911 0.68235 0.03198 0.0
C563 C 0.26457 0.81075 0.03597 0.0
C564 C 0.27665 0.87335 0.04065 0.0
C565 C 0.27579 0.9319 0.01761 0.0
C566 C 0.2874 0.99022 0.02166 0.0
C567 C 0.29989 0.99075 0.04875 0.0
C568 C 0.30072 0.93314 0.07199 0.0
C569 C 0.28911 0.87478 0.06811 0.0
H570 H 0.3089 0.03586 0.05179 0.0
H571 H 0.19673 0.46524 0.03707 0.0
H572 H 0.82523 0.92411 0.54927 0.0
H573 H 0.79247 0.91074 0.54786 0.0
H574 H 0.79774 0.6853 0.57068 0.0
H575 H 0.83007 0.69808 0.57336 0.0
H576 H 0.77476 0.7226 0.51095 0.0
H577 H 0.78536 0.77978 0.63308 0.0
H578 H 0.79529 0.85359 0.68279 0.0
H579 H 0.76214 0.02742 0.64784 0.0
H580 H 0.75217 0.9549 0.59771 0.0
H581 H 0.68541 0.61216 0.54653 0.0
H582 H 0.71779 0.63247 0.54621 0.0
H583 H 0.70904 0.85898 0.56265 0.0
H584 H 0.67708 0.83811 0.56588 0.0
H585 H 0.73431 0.82575 0.60019 0.0
H586 H 0.72244 0.7766 0.48018 0.0
H587 H 0.71092 0.70829 0.42994 0.0
H588 H 0.74548 0.53204 0.45564 0.0
H589 H 0.75703 0.59893 0.50633 0.0
C590 C 0.81941 0.87178 0.55412 0.0
C591 C 0.8304 0.8121 0.56106 0.0
C592 C 0.80071 0.86427 0.55331 0.0
C593 C 0.79275 0.79687 0.55894 0.0
C594 C 0.80364 0.7376 0.566 0.0
C595 C 0.8222 0.74521 0.56747 0.0
C596 C 0.77306 0.78706 0.55732 0.0
C597 C 0.76585 0.74485 0.53049 0.0
C598 C 0.76148 0.81766 0.58227 0.0
C599 C 0.76819 0.86224 0.61143 0.0
C600 C 0.7804 0.83411 0.6357 0.0
C601 C 0.78597 0.87559 0.66405 0.0
C602 C 0.77934 0.94513 0.66846 0.0
C603 C 0.76726 0.97356 0.64439 0.0
C604 C 0.76165 0.93231 0.61603 0.0
C605 C 0.69042 0.66627 0.55 0.0
C606 C 0.67855 0.72359 0.55582 0.0
C607 C 0.70897 0.67802 0.54952 0.0
C608 C 0.716 0.74767 0.55369 0.0
C609 C 0.7041 0.80472 0.55933 0.0
C610 C 0.68569 0.79272 0.56085 0.0
C611 C 0.73571 0.76146 0.55352 0.0
C612 C 0.74303 0.80413 0.58018 0.0
C613 C 0.74731 0.73274 0.52784 0.0
C614 C 0.74048 0.69254 0.49724 0.0
C615 C 0.7275 0.72309 0.47525 0.0
C616 C 0.72098 0.68465 0.44668 0.0
C617 C 0.72743 0.61581 0.43965 0.0
C618 C 0.74047 0.58534 0.46114 0.0
C619 C 0.74703 0.62352 0.48977 0.0
H620 H 0.72236 0.58612 0.41753 0.0
H621 H 0.78348 0.97694 0.69062 0.0
H622 H 0.17591 0.2883 0.59581 0.0
H623 H 0.20793 0.31069 0.5937 0.0
H624 H 0.2148 0.12992 0.52485 0.0
H625 H 0.18244 0.10753 0.52626 0.0
H626 H 0.23577 0.23521 0.6132 0.0
H627 H 0.24933 0.16938 0.46806 0.0
H628 H 0.23306 0.16988 0.41211 0.0
H629 H 0.19775 0.33329 0.45068 0.0
H630 H 0.21396 0.33455 0.5066 0.0
H631 H 0.32747 0.19054 0.58592 0.0
H632 H 0.2952 0.17629 0.58433 0.0
H633 H 0.29021 0.37542 0.52791 0.0
H634 H 0.3229 0.38976 0.52864 0.0
H635 H 0.26796 0.27178 0.50147 0.0
H636 H 0.28082 0.37145 0.61322 0.0
H637 H 0.29644 0.38121 0.66958 0.0
H638 H 0.27754 0.17183 0.69859 0.0
H639 H 0.262 0.16036 0.64217 0.0
C640 C 0.18414 0.25292 0.58021 0.0
C641 C 0.17651 0.1962 0.56102 0.0
C642 C 0.20252 0.26584 0.57913 0.0
C643 C 0.21377 0.22258 0.55884 0.0
C644 C 0.20633 0.16471 0.54029 0.0
C645 C 0.18785 0.15167 0.54132 0.0
C646 C 0.23325 0.23859 0.55734 0.0
C647 C 0.24279 0.24302 0.58875 0.0
C648 C 0.24235 0.25065 0.52549 0.0
C649 C 0.23276 0.25146 0.49165 0.0
C650 C 0.23815 0.20565 0.46453 0.0
C651 C 0.22893 0.2056 0.43283 0.0
C652 C 0.21435 0.25142 0.42788 0.0
C653 C 0.20901 0.29764 0.45457 0.0
C654 C 0.2182 0.29799 0.48628 0.0
C655 C 0.31964 0.23157 0.57304 0.0
C656 C 0.32789 0.29159 0.55748 0.0
C657 C 0.3011 0.22327 0.57226 0.0
C658 C 0.29025 0.27511 0.55635 0.0
C659 C 0.29835 0.33475 0.54036 0.0
C660 C 0.31702 0.34308 0.54099 0.0
C661 C 0.27047 0.26693 0.55731 0.0
C662 C 0.2609 0.26395 0.52587 0.0
C663 C 0.2612 0.25784 0.58919 0.0
C664 C 0.27035 0.26485 0.62334 0.0
C665 C 0.28008 0.3273 0.63152 0.0
C666 C 0.28891 0.33316 0.66349 0.0
C667 C 0.28801 0.27712 0.68762 0.0
C668 C 0.27823 0.21517 0.67986 0.0
C669 C 0.26939 0.209 0.64791 0.0
H670 H 0.29486 0.28174 0.71235 0.0
H671 H 0.20722 0.25123 0.40335 0.0
H672 H 0.61464 0.51318 0.1426 0.0
H673 H 0.61486 0.55778 0.20238 0.0
H674 H 0.64232 0.36643 0.23595 0.0
H675 H 0.64226 0.32136 0.17601 0.0
H676 H 0.60084 0.50741 0.26249 0.0
H677 H 0.67194 0.41489 0.3007 0.0
H678 H 0.70095 0.38873 0.27266 0.0
H679 H 0.68823 0.53396 0.18944 0.0
H680 H 0.65928 0.56173 0.21722 0.0
H681 H 0.61451 0.52839 0.44551 0.0
H682 H 0.61354 0.48854 0.38496 0.0
H683 H 0.64724 0.66622 0.35501 0.0
H684 H 0.6483 0.70669 0.41573 0.0
H685 H 0.6583 0.53882 0.32558 0.0
H686 H 0.60383 0.67236 0.3368 0.0
H687 H 0.57503 0.70586 0.36361 0.0
H688 H 0.55474 0.4935 0.34526 0.0
H689 H 0.58353 0.4584 0.31878 0.0
C690 C 0.62069 0.4803 0.16266 0.0
C691 C 0.62854 0.41376 0.1544 0.0
C692 C 0.62074 0.50587 0.19689 0.0
C693 C 0.62875 0.46588 0.22364 0.0
C694 C 0.63626 0.39869 0.21567 0.0
C695 C 0.63615 0.37285 0.1814 0.0
C696 C 0.62948 0.49527 0.25967 0.0
C697 C 0.6134 0.51403 0.2763 0.0
C698 C 0.64588 0.5052 0.27755 0.0
C699 C 0.66337 0.48976 0.26087 0.0
C700 C 0.67538 0.44143 0.27649 0.0
C701 C 0.6918 0.4263 0.26063 0.0
C702 C 0.6964 0.45948 0.22923 0.0
C703 C 0.68462 0.50809 0.21369 0.0
C704 C 0.6682 0.52347 0.22946 0.0
C705 C 0.62168 0.55929 0.42608 0.0
C706 C 0.63147 0.62091 0.43552 0.0
C707 C 0.62107 0.53644 0.39142 0.0
C708 C 0.63024 0.57454 0.36539 0.0
C709 C 0.64007 0.63596 0.37468 0.0
C710 C 0.64059 0.65922 0.40937 0.0
C711 C 0.62964 0.54981 0.32856 0.0
C712 C 0.64573 0.53191 0.3118 0.0
C713 C 0.61327 0.54151 0.31039 0.0
C714 C 0.5959 0.56257 0.32609 0.0
C715 C 0.59328 0.63263 0.33872 0.0
C716 C 0.57695 0.65194 0.35382 0.0
C717 C 0.56308 0.60179 0.35622 0.0
C718 C 0.5655 0.53227 0.34343 0.0
C719 C 0.58182 0.51266 0.32834 0.0
H720 H 0.55044 0.61684 0.36792 0.0
H721 H 0.70911 0.44763 0.21698 0.0
H722 H 0.3676 0.48772 0.14331 0.0
H723 H 0.36708 0.44613 0.20357 0.0
H724 H 0.37676 0.66204 0.23931 0.0
H725 H 0.37691 0.70481 0.1786 0.0
H726 H 0.40024 0.54433 0.26761 0.0
H727 H 0.33844 0.61008 0.25257 0.0
H728 H 0.30931 0.61057 0.22239 0.0
H729 H 0.30569 0.38165 0.23332 0.0
H730 H 0.33495 0.37966 0.2631 0.0
H731 H 0.38667 0.48445 0.44648 0.0
H732 H 0.38609 0.52917 0.38711 0.0
H733 H 0.36245 0.33034 0.35233 0.0
H734 H 0.36253 0.28542 0.41243 0.0
H735 H 0.34597 0.44072 0.32294 0.0
H736 H 0.40686 0.37059 0.33654 0.0
H737 H 0.43649 0.3639 0.36462 0.0
H738 H 0.44276 0.59196 0.35397 0.0
H739 H 0.41303 0.60019 0.32626 0.0
C740 C 0.36957 0.52656 0.16394 0.0
C741 C 0.37235 0.59958 0.15627 0.0
C742 C 0.36921 0.50266 0.19835 0.0
C743 C 0.37186 0.55102 0.22578 0.0
C744 C 0.37468 0.62401 0.21836 0.0
C745 C 0.37469 0.64835 0.1838 0.0
C746 C 0.37202 0.52419 0.26206 0.0
C747 C 0.38834 0.52286 0.28006 0.0
C748 C 0.35661 0.49362 0.27752 0.0
C749 C 0.33898 0.49466 0.25975 0.0
C750 C 0.33152 0.55975 0.24824 0.0
C751 C 0.31496 0.56032 0.23127 0.0
C752 C 0.30568 0.49615 0.22585 0.0
C753 C 0.31291 0.4313 0.23749 0.0
C754 C 0.32947 0.43043 0.25444 0.0
C755 C 0.3814 0.44976 0.42631 0.0
C756 C 0.37468 0.38108 0.43429 0.0
C757 C 0.38116 0.47548 0.39222 0.0
C758 C 0.37447 0.43284 0.36509 0.0
C759 C 0.36773 0.36416 0.37285 0.0
C760 C 0.36784 0.33843 0.40717 0.0
C761 C 0.37422 0.46111 0.32887 0.0
C762 C 0.35791 0.46242 0.31072 0.0
C763 C 0.38971 0.49077 0.31305 0.0
C764 C 0.40764 0.48608 0.32961 0.0
C765 C 0.41449 0.41941 0.34043 0.0
C766 C 0.43132 0.41532 0.35624 0.0
C767 C 0.44148 0.47749 0.36116 0.0
C768 C 0.43486 0.54386 0.35018 0.0
C769 C 0.41803 0.54826 0.33439 0.0
H770 H 0.45451 0.47422 0.3734 0.0
H771 H 0.29286 0.49671 0.21272 0.0
H772 H 0.39162 0.7031 0.90809 0.0
H773 H 0.3931 0.6528 0.84911 0.0
H774 H 0.38217 0.44184 0.89011 0.0
H775 H 0.38031 0.49111 0.94863 0.0
H776 H 0.41023 0.44498 0.83966 0.0
H777 H 0.3493 0.52763 0.85596 0.0
H778 H 0.32651 0.61863 0.87027 0.0
H779 H 0.34526 0.75163 0.78646 0.0
H780 H 0.36836 0.66181 0.77199 0.0
H781 H 0.3864 0.26097 0.68324 0.0
H782 H 0.38752 0.30951 0.7425 0.0
H783 H 0.38577 0.52482 0.70116 0.0
H784 H 0.38363 0.47723 0.64263 0.0
H785 H 0.36485 0.52001 0.75271 0.0
H786 H 0.42529 0.44182 0.73451 0.0
H787 H 0.44918 0.35573 0.71979 0.0
H788 H 0.4334 0.22147 0.80539 0.0
H789 H 0.40924 0.3063 0.82034 0.0
C790 C 0.38964 0.64596 0.90459 0.0
C791 C 0.38591 0.60128 0.93326 0.0
C792 C 0.39049 0.61733 0.87089 0.0
C793 C 0.38778 0.54355 0.86533 0.0
C794 C 0.38444 0.49877 0.89388 0.0
C795 C 0.38335 0.52731 0.92739 0.0
C796 C 0.38753 0.51306 0.82966 0.0
C797 C 0.40025 0.46087 0.82062 0.0
C798 C 0.37472 0.53487 0.80477 0.0
C799 C 0.36067 0.58836 0.81313 0.0
C800 C 0.34865 0.57652 0.84075 0.0
C801 C 0.33567 0.62785 0.84887 0.0
C802 C 0.33447 0.69097 0.82935 0.0
C803 C 0.34622 0.70277 0.80159 0.0
C804 C 0.35925 0.65165 0.79341 0.0
C805 C 0.38631 0.31863 0.68682 0.0
C806 C 0.38511 0.36501 0.658 0.0
C807 C 0.38705 0.34641 0.72073 0.0
C808 C 0.387 0.42107 0.72642 0.0
C809 C 0.38583 0.46713 0.69763 0.0
C810 C 0.38475 0.43957 0.66397 0.0
C811 C 0.38771 0.45197 0.76218 0.0
C812 C 0.37497 0.50414 0.77144 0.0
C813 C 0.40071 0.43085 0.78704 0.0
C814 C 0.41533 0.38007 0.77833 0.0
C815 C 0.42684 0.3937 0.75006 0.0
C816 C 0.44044 0.34516 0.74169 0.0
C817 C 0.44277 0.28306 0.76157 0.0
C818 C 0.43155 0.26953 0.78997 0.0
C819 C 0.41791 0.31785 0.79842 0.0
H820 H 0.4533 0.24552 0.75503 0.0
H821 H 0.32441 0.73066 0.83568 0.0
H822 H 0.64642 0.44531 0.93605 0.0
H823 H 0.64519 0.49541 0.87742 0.0
H824 H 0.59626 0.37859 0.85784 0.0
H825 H 0.59813 0.32482 0.91615 0.0
H826 H 0.61388 0.38101 0.80141 0.0
H827 H 0.59726 0.5632 0.88084 0.0
H828 H 0.6001 0.63891 0.9332 0.0
H829 H 0.6485 0.73121 0.89258 0.0
H830 H 0.64614 0.65506 0.84024 0.0
H831 H 0.60498 0.7185 0.67849 0.0
H832 H 0.60227 0.66626 0.73699 0.0
H833 H 0.64055 0.50271 0.70916 0.0
H834 H 0.64273 0.55252 0.65076 0.0
H835 H 0.62272 0.64405 0.78988 0.0
H836 H 0.63204 0.34645 0.74559 0.0
H837 H 0.62512 0.2717 0.6943 0.0
H838 H 0.58256 0.41509 0.66608 0.0
H839 H 0.58909 0.4902 0.71735 0.0
C840 C 0.63552 0.42967 0.91907 0.0
C841 C 0.62231 0.38157 0.93066 0.0
C842 C 0.63472 0.45885 0.88563 0.0
C843 C 0.62031 0.44282 0.86341 0.0
C844 C 0.60745 0.3924 0.87448 0.0
C845 C 0.60852 0.36159 0.90776 0.0
C846 C 0.61862 0.4798 0.82905 0.0
C847 C 0.61577 0.43852 0.79897 0.0
C848 C 0.62038 0.55539 0.82573 0.0
C849 C 0.62157 0.60305 0.85667 0.0
C850 C 0.60854 0.59948 0.8831 0.0
C851 C 0.61008 0.64241 0.91281 0.0
C852 C 0.62449 0.68976 0.91623 0.0
C853 C 0.63735 0.69448 0.88989 0.0
C854 C 0.63591 0.65148 0.86017 0.0
C855 C 0.61286 0.67158 0.68498 0.0
C856 C 0.62391 0.63922 0.65982 0.0
C857 C 0.6113 0.64171 0.71842 0.0
C858 C 0.62087 0.57935 0.72737 0.0
C859 C 0.63256 0.54936 0.70271 0.0
C860 C 0.63389 0.57828 0.66929 0.0
C861 C 0.61868 0.54482 0.76221 0.0
C862 C 0.62072 0.58661 0.79237 0.0
C863 C 0.61542 0.47014 0.76573 0.0
C864 C 0.61116 0.42425 0.7352 0.0
C865 C 0.62114 0.3618 0.72855 0.0
C866 C 0.61731 0.31945 0.69942 0.0
C867 C 0.60345 0.33879 0.67686 0.0
C868 C 0.59335 0.40035 0.68345 0.0
C869 C 0.59712 0.44286 0.71253 0.0
H870 H 0.60053 0.306 0.6543 0.0
H871 H 0.62567 0.72285 0.93928 0.0
H872 H 0.13968 0.78654 0.17657 0.0
H873 H 0.14068 0.83131 0.2367 0.0
H874 H 0.1232 0.03952 0.2015 0.0
H875 H 0.12204 0.99559 0.1418 0.0
H876 H 0.15231 0.04596 0.24774 0.0
H877 H 0.09397 0.93314 0.23913 0.0
H878 H 0.07351 0.83213 0.22713 0.0
H879 H 0.09963 0.70587 0.30565 0.0
H880 H 0.1204 0.80586 0.31778 0.0
H881 H 0.1299 0.20849 0.40993 0.0
H882 H 0.13024 0.16327 0.34994 0.0
H883 H 0.13604 0.94684 0.38855 0.0
H884 H 0.1348 0.99131 0.44809 0.0
H885 H 0.11348 0.94303 0.33993 0.0
H886 H 0.17163 0.04914 0.35021 0.0
H887 H 0.19341 0.14512 0.363 0.0
H888 H 0.17029 0.27653 0.28293 0.0
H889 H 0.14821 0.18163 0.26995 0.0
C890 C 0.13601 0.84177 0.18168 0.0
C891 C 0.13072 0.8873 0.15435 0.0
C892 C 0.13658 0.86726 0.21601 0.0
C893 C 0.132 0.93878 0.22352 0.0
C894 C 0.12685 0.98429 0.19627 0.0
C895 C 0.1261 0.95878 0.16214 0.0
C896 C 0.1323 0.96646 0.25978 0.0
C897 C 0.14373 0.02396 0.2679 0.0
C898 C 0.12144 0.93654 0.2862 0.0
C899 C 0.10885 0.8767 0.27911 0.0
C900 C 0.09544 0.88364 0.25364 0.0
C901 C 0.08377 0.82661 0.24685 0.0
C902 C 0.0853 0.76255 0.26555 0.0
C903 C 0.09847 0.75548 0.29115 0.0
C904 C 0.11019 0.81233 0.29802 0.0
C905 C 0.1313 0.15136 0.40548 0.0
C906 C 0.13226 0.10348 0.43367 0.0
C907 C 0.13159 0.12548 0.3712 0.0
C908 C 0.13337 0.05147 0.36452 0.0
C909 C 0.13455 0.004 0.39282 0.0
C910 C 0.13388 0.02959 0.42693 0.0
C911 C 0.1336 0.02273 0.32827 0.0
C912 C 0.1222 0.96505 0.32 0.0
C913 C 0.14476 0.05168 0.3019 0.0
C914 C 0.15816 0.10853 0.30933 0.0
C915 C 0.17112 0.09868 0.33547 0.0
C916 C 0.18353 0.15287 0.34274 0.0
C917 C 0.18321 0.21697 0.32386 0.0
C918 C 0.17051 0.22689 0.29756 0.0
C919 C 0.15806 0.17288 0.29021 0.0
H920 H 0.19281 0.25889 0.32956 0.0
H921 H 0.07626 0.71846 0.26025 0.0
H922 H 0.8812 0.01093 0.44793 0.0
H923 H 0.88049 0.05031 0.38742 0.0
H924 H 0.867 0.8356 0.35475 0.0
H925 H 0.86765 0.79532 0.41567 0.0
H926 H 0.89421 0.90019 0.31435 0.0
H927 H 0.83515 0.95817 0.35584 0.0
H928 H 0.81343 0.01224 0.39643 0.0
H929 H 0.83538 0.22122 0.37613 0.0
H930 H 0.85742 0.16825 0.33578 0.0
H931 H 0.8728 0.98795 0.14057 0.0
H932 H 0.87236 0.94471 0.20043 0.0
H933 H 0.87531 0.1629 0.23777 0.0
H934 H 0.87486 0.20672 0.17754 0.0
H935 H 0.85316 0.09416 0.27627 0.0
H936 H 0.91252 0.04121 0.23704 0.0
H937 H 0.93553 0.99114 0.19792 0.0
H938 H 0.91504 0.77878 0.21552 0.0
H939 H 0.89174 0.82769 0.25438 0.0
C940 C 0.87807 0.97182 0.42799 0.0
C941 C 0.87442 0.89987 0.43674 0.0
C942 C 0.87761 0.99462 0.39335 0.0
C943 C 0.87353 0.9461 0.36658 0.0
C944 C 0.87012 0.87398 0.37505 0.0
C945 C 0.87043 0.85112 0.40986 0.0
C946 C 0.87295 0.97114 0.32982 0.0
C947 C 0.88505 0.94179 0.30581 0.0
C948 C 0.86141 0.0271 0.31903 0.0
C949 C 0.84803 0.05914 0.343 0.0
C950 C 0.83543 0.01559 0.36021 0.0
C951 C 0.82305 0.04605 0.38315 0.0
C952 C 0.82305 0.1201 0.38891 0.0
C953 C 0.8354 0.16386 0.37166 0.0
C954 C 0.84783 0.13366 0.34873 0.0
C955 C 0.87342 0.02683 0.1615 0.0
C956 C 0.874 0.10082 0.1543 0.0
C957 C 0.87327 0.00194 0.19582 0.0
C958 C 0.87422 0.05027 0.22385 0.0
C959 C 0.87463 0.12436 0.2167 0.0
C960 C 0.87442 0.14942 0.18226 0.0
C961 C 0.8745 0.02344 0.2605 0.0
C962 C 0.86234 0.05247 0.2846 0.0
C963 C 0.88619 0.96786 0.27151 0.0
C964 C 0.90028 0.93822 0.24838 0.0
C965 C 0.91285 0.98388 0.2324 0.0
C966 C 0.92595 0.9557 0.21029 0.0
C967 C 0.92672 0.88185 0.20418 0.0
C968 C 0.91442 0.83598 0.22025 0.0
C969 C 0.90127 0.8639 0.24234 0.0
H970 H 0.93687 0.86014 0.18704 0.0
H971 H 0.81346 0.14358 0.40669 0.0
H972 H 0.87521 0.78917 0.68179 0.0
H973 H 0.87604 0.83884 0.74107 0.0
H974 H 0.90818 0.01599 0.70465 0.0
H975 H 0.90713 0.96744 0.64556 0.0
H976 H 0.91863 0.95755 0.77283 0.0
H977 H 0.86865 0.05426 0.71042 0.0
H978 H 0.84233 0.04271 0.67213 0.0
H979 H 0.81603 0.91198 0.74881 0.0
H980 H 0.84241 0.92173 0.78739 0.0
H981 H 0.90089 0.20635 0.91143 0.0
H982 H 0.90338 0.15554 0.85257 0.0
H983 H 0.86747 0.98421 0.88146 0.0
H984 H 0.86499 0.03381 0.93992 0.0
H985 H 0.85965 0.04187 0.81624 0.0
H986 H 0.91053 0.95274 0.88032 0.0
H987 H 0.93774 0.96519 0.91614 0.0
H988 H 0.96303 0.08637 0.83464 0.0
H989 H 0.93583 0.07571 0.79855 0.0
C990 C 0.8827 0.83797 0.6866 0.0
C991 C 0.8909 0.87499 0.65899 0.0
C992 C 0.88316 0.86631 0.7204 0.0
C993 C 0.89213 0.93125 0.72716 0.0
C994 C 0.90123 0.96582 0.70001 0.0
C995 C 0.90046 0.93835 0.66619 0.0
C996 C 0.89049 0.96688 0.76159 0.0
C997 C 0.90579 0.97657 0.78226 0.0
C998 C 0.87375 0.99165 0.7738 0.0
C999 C 0.85755 0.98812 0.7516 0.0
C1000 C 0.85729 0.02278 0.71906 0.0
C1001 C 0.84238 0.01657 0.69732 0.0
C1002 C 0.82757 0.97646 0.70801 0.0
C1003 C 0.82756 0.94293 0.74059 0.0
C1004 C 0.84248 0.94881 0.76242 0.0
C1005 C 0.89342 0.15821 0.90512 0.0
C1006 C 0.88282 0.12403 0.93049 0.0
C1007 C 0.89491 0.12909 0.87155 0.0
C1008 C 0.88569 0.06578 0.86273 0.0
C1009 C 0.87469 0.03302 0.88767 0.0
C1010 C 0.87337 0.06144 0.92119 0.0
C1011 C 0.88778 0.03206 0.82789 0.0
C1012 C 0.87252 0.02286 0.80698 0.0
C1013 C 0.90462 0.00841 0.81541 0.0
C1014 C 0.92107 0.0141 0.83688 0.0
C1015 C 0.92184 0.98255 0.87014 0.0
C1016 C 0.93727 0.98921 0.89049 0.0
C1017 C 0.95209 0.02671 0.87771 0.0
C1018 C 0.95153 0.05744 0.84452 0.0
C1019 C 0.93611 0.05109 0.82411 0.0
H1020 H 0.96403 0.03181 0.89349 0.0
H1021 H 0.81613 0.97146 0.69101 0.0
H1022 H 0.12334 0.9862 0.94638 0.0
H1023 H 0.12149 0.03564 0.88795 0.0
H1024 H 0.11271 0.82374 0.84625 0.0
H1025 H 0.11428 0.77303 0.90523 0.0
H1026 H 0.13932 0.90645 0.8107 0.0
H1027 H 0.07857 0.93224 0.85086 0.0
H1028 H 0.05526 0.96995 0.89248 0.0
H1029 H 0.07173 0.18962 0.88126 0.0
H1030 H 0.09535 0.15308 0.84 0.0
H1031 H 0.11854 0.00511 0.6409 0.0
H1032 H 0.11687 0.95688 0.69931 0.0
H1033 H 0.11539 0.17149 0.74135 0.0
H1034 H 0.116 0.22088 0.68205 0.0
H1035 H 0.09387 0.08833 0.77761 0.0
H1036 H 0.15454 0.06854 0.74038 0.0
H1037 H 0.17918 0.03653 0.70056 0.0
H1038 H 0.16497 0.81378 0.70872 0.0
H1039 H 0.14007 0.84456 0.7482 0.0
C1040 C 0.12083 0.94971 0.925 0.0
C1041 C 0.11877 0.87541 0.93073 0.0
C1042 C 0.11978 0.97835 0.89152 0.0
C1043 C 0.11678 0.93354 0.86283 0.0
C1044 C 0.11494 0.85926 0.86816 0.0
C1045 C 0.11579 0.83043 0.90186 0.0
C1046 C 0.11599 0.96472 0.82731 0.0
C1047 C 0.12921 0.94528 0.8032 0.0
C1048 C 0.10322 0.01761 0.81815 0.0
C1049 C 0.08884 0.03981 0.84255 0.0
C1050 C 0.07731 0.98852 0.85746 0.0
C1051 C 0.06403 0.0097 0.88097 0.0
C1052 C 0.06205 0.08211 0.88958 0.0
C1053 C 0.0733 0.13353 0.8746 0.0
C1054 C 0.08663 0.11262 0.85112 0.0
C1055 C 0.11759 0.04253 0.66232 0.0
C1056 C 0.11737 0.11715 0.65655 0.0
C1057 C 0.11683 0.01461 0.69594 0.0
C1058 C 0.11646 0.06037 0.7249 0.0
C1059 C 0.11578 0.135 0.71941 0.0
C1060 C 0.11616 0.16319 0.68551 0.0
C1061 C 0.11714 0.0296 0.76069 0.0
C1062 C 0.10396 0.04934 0.78495 0.0
C1063 C 0.13017 0.97786 0.77028 0.0
C1064 C 0.14534 0.95895 0.74704 0.0
C1065 C 0.15661 0.01276 0.73354 0.0
C1066 C 0.17062 0.99484 0.71103 0.0
C1067 C 0.17361 0.92319 0.70205 0.0
C1068 C 0.16263 0.86927 0.71567 0.0
C1069 C 0.14857 0.88692 0.73815 0.0
H1070 H 0.18445 0.90942 0.68458 0.0
H1071 H 0.05177 0.09838 0.9078 0.0
H1072 H 0.42976 0.88485 0.04733 0.0
H1073 H 0.45682 0.95836 0.05335 0.0
H1074 H 0.47642 0.87754 0.95534 0.0
H1075 H 0.44925 0.80488 0.94876 0.0
H1076 H 0.50273 0.88378 0.01191 0.0
H1077 H 0.45844 0.03036 0.95357 0.0
H1078 H 0.4288 0.08729 0.94805 0.0
H1079 H 0.43756 0.2025 0.04337 0.0
H1080 H 0.46713 0.14507 0.04984 0.0
H1081 H 0.5727 0.12579 0.97726 0.0
H1082 H 0.54577 0.05209 0.973 0.0
H1083 H 0.52039 0.18117 0.05219 0.0
H1084 H 0.54706 0.25764 0.05508 0.0
H1085 H 0.49658 0.14882 0.00765 0.0
H1086 H 0.53997 0.00811 0.06794 0.0
H1087 H 0.5692 0.95013 0.07774 0.0
H1088 H 0.56197 0.82269 0.98566 0.0
H1089 H 0.53281 0.88075 0.97498 0.0
C1090 C 0.43993 0.88196 0.02726 0.0
C1091 C 0.43735 0.83902 0.99752 0.0
C1092 C 0.45534 0.92427 0.03068 0.0
C1093 C 0.46858 0.9237 0.00469 0.0
C1094 C 0.46637 0.87877 0.97568 0.0
C1095 C 0.45082 0.83741 0.97194 0.0
C1096 C 0.48438 0.97203 0.00706 0.0
C1097 C 0.50146 0.94173 0.01062 0.0
C1098 C 0.48261 0.04764 0.00648 0.0
C1099 C 0.46492 0.08276 1.0024 0.0
C1100 C 0.45398 0.06729 0.97354 0.0
C1101 C 0.4372 0.09972 0.97021 0.0
C1102 C 0.43127 0.14832 0.99539 0.0
C1103 C 0.44215 0.16473 0.02392 0.0
C1104 C 0.45892 0.13224 0.02743 0.0
C1105 C 0.56133 0.13883 0.99358 0.0
C1106 C 0.56205 0.19738 0.01663 0.0
C1107 C 0.54595 0.09619 0.99136 0.0
C1108 C 0.53111 0.10949 0.01297 0.0
C1109 C 0.53164 0.16928 0.03534 0.0
C1110 C 0.5469 0.21305 0.03699 0.0
C1111 C 0.51517 0.06083 0.01235 0.0
C1112 C 0.49799 0.09096 0.00912 0.0
C1113 C 0.51682 0.98495 0.01394 0.0
C1114 C 0.53427 0.94928 0.02049 0.0
C1115 C 0.54466 0.96804 0.04966 0.0
C1116 C 0.56122 0.93514 0.05538 0.0
C1117 C 0.56746 0.88289 0.03229 0.0
C1118 C 0.55713 0.86325 0.00349 0.0
C1119 C 0.54058 0.8961 0.99761 0.0
H1120 H 0.58028 0.85751 0.03676 0.0
H1121 H 0.41828 0.17341 0.99276 0.0
H1122 H 0.54945 0.73157 0.58311 0.0
H1123 H 0.52132 0.7997 0.58466 0.0
H1124 H 0.55117 0.99789 0.58738 0.0
H1125 H 0.57911 0.93089 0.58593 0.0
H1126 H 0.5234 0.99897 0.6338 0.0
H1127 H 0.53305 0.94169 0.51271 0.0
H1128 H 0.53827 0.86053 0.46302 0.0
H1129 H 0.48875 0.75175 0.48443 0.0
H1130 H 0.48337 0.83168 0.5346 0.0
H1131 H 0.45592 0.25074 0.58725 0.0
H1132 H 0.48319 0.17779 0.58889 0.0
H1133 H 0.45146 0.98559 0.57759 0.0
H1134 H 0.42433 0.05774 0.5752 0.0
H1135 H 0.47973 0.97788 0.53703 0.0
H1136 H 0.46926 0.03666 0.65676 0.0
H1137 H 0.46376 0.11729 0.70654 0.0
H1138 H 0.5143 0.22117 0.68882 0.0
H1139 H 0.51998 0.14188 0.63856 0.0
C1140 C 0.55 0.78962 0.58419 0.0
C1141 C 0.56655 0.82568 0.5842 0.0
C1142 C 0.53393 0.82849 0.58498 0.0
C1143 C 0.53415 0.90397 0.58593 0.0
C1144 C 0.55065 0.93978 0.58669 0.0
C1145 C 0.56665 0.9012 0.58565 0.0
C1146 C 0.51729 0.94631 0.58531 0.0
C1147 C 0.51391 0.99483 0.61251 0.0
C1148 C 0.50475 0.93992 0.55788 0.0
C1149 C 0.50791 0.89212 0.52763 0.0
C1150 C 0.52335 0.90008 0.50699 0.0
C1151 C 0.52632 0.85438 0.47872 0.0
C1152 C 0.51387 0.80088 0.47064 0.0
C1153 C 0.4984 0.79313 0.49076 0.0
C1154 C 0.49537 0.83863 0.51911 0.0
C1155 C 0.45476 0.19296 0.58512 0.0
C1156 C 0.43791 0.16021 0.58122 0.0
C1157 C 0.47036 0.15125 0.5862 0.0
C1158 C 0.46938 0.07599 0.58378 0.0
C1159 C 0.45259 0.04343 0.57951 0.0
C1160 C 0.43705 0.08495 0.57826 0.0
C1161 C 0.4858 0.03087 0.5855 0.0
C1162 C 0.48913 0.98185 0.55847 0.0
C1163 C 0.49825 0.03657 0.6132 0.0
C1164 C 0.49497 0.08377 0.64367 0.0
C1165 C 0.47915 0.07703 0.66332 0.0
C1166 C 0.476 0.12245 0.69164 0.0
C1167 C 0.48865 0.17444 0.70078 0.0
C1168 C 0.5045 0.18094 0.68168 0.0
C1169 C 0.5077 0.13574 0.65329 0.0
H1170 H 0.48618 0.20959 0.72269 0.0
H1171 H 0.5162 0.76555 0.44873 0.0
H1172 H 0.08049 0.56111 0.01015 0.0
H1173 H 0.05343 0.48755 0.0104 0.0
H1174 H 0.02093 0.67864 0.01128 0.0
H1175 H 0.04805 0.75308 0.01112 0.0
H1176 H 0.00905 0.57739 0.05832 0.0
H1177 H 0.02571 0.58328 0.9374 0.0
H1178 H 0.04609 0.56872 0.88737 0.0
H1179 H 0.05207 0.34488 0.91129 0.0
H1180 H 0.03192 0.35833 0.96181 0.0
H1181 H 0.92563 0.42242 0.01689 0.0
H1182 H 0.95318 0.49226 0.017 0.0
H1183 H 0.98406 0.29787 0.00692 0.0
H1184 H 0.95631 0.22717 0.00595 0.0
H1185 H 0.99732 0.39842 0.9654 0.0
H1186 H 0.98087 0.38963 0.08537 0.0
H1187 H 0.96092 0.4017 0.1362 0.0
H1188 H 0.95525 0.62712 0.11578 0.0
H1189 H 0.97497 0.61622 0.06449 0.0
C1190 C 0.06761 0.58777 0.01038 0.0
C1191 C 0.06649 0.66323 0.01049 0.0
C1192 C 0.05212 0.54545 0.01038 0.0
C1193 C 0.03511 0.57742 0.0105 0.0
C1194 C 0.03391 0.65271 0.01109 0.0
C1195 C 0.04943 0.69522 0.01088 0.0
C1196 C 0.01863 0.53214 0.01026 0.0
C1197 C 0.00635 0.53897 0.03775 0.0
C1198 C 0.01537 0.48025 0.98403 0.0
C1199 C 0.02745 0.472 0.9536 0.0
C1200 C 0.03149 0.53108 0.93217 0.0
C1201 C 0.04298 0.52301 0.9037 0.0
C1202 C 0.05041 0.45597 0.89622 0.0
C1203 C 0.04633 0.39681 0.91715 0.0
C1204 C 0.03486 0.40462 0.94569 0.0
C1205 C 0.93825 0.39416 0.01476 0.0
C1206 C 0.9387 0.31889 0.01156 0.0
C1207 C 0.95406 0.43438 0.015 0.0
C1208 C 0.9708 0.4005 0.01256 0.0
C1209 C 0.97133 0.32537 0.00897 0.0
C1210 C 0.95545 0.28495 0.00851 0.0
C1211 C 0.98763 0.44389 0.01339 0.0
C1212 C 0.99999 0.43669 0.98604 0.0
C1213 C 0.99105 0.49505 0.03992 0.0
C1214 C 0.97927 0.50195 0.07088 0.0
C1215 C 0.97527 0.44168 0.09156 0.0
C1216 C 0.96402 0.44833 0.12048 0.0
C1217 C 0.95679 0.5151 0.12916 0.0
C1218 C 0.96084 0.57542 0.109 0.0
C1219 C 0.97207 0.56905 0.08001 0.0
H1220 H 0.94808 0.52013 0.15156 0.0
H1221 H 0.0593 0.44982 0.87415 0.0
H1222 H 0.07985 0.42457 0.56752 0.0
H1223 H 0.05302 0.49854 0.56814 0.0
H1224 H 0.0204 0.30967 0.5823 0.0
H1225 H 0.04737 0.23442 0.58153 0.0
H1226 H 0.00643 0.4029 0.53329 0.0
H1227 H 0.0287 0.4173 0.65032 0.0
H1228 H 0.05154 0.43791 0.69558 0.0
H1229 H 0.05788 0.6557 0.66107 0.0
H1230 H 0.03525 0.63609 0.61525 0.0
H1231 H 0.92673 0.57667 0.58146 0.0
H1232 H 0.95365 0.50347 0.58108 0.0
H1233 H 0.9862 0.69434 0.57417 0.0
H1234 H 0.95909 0.76881 0.57532 0.0
H1235 H 1.00043 0.60056 0.61913 0.0
H1236 H 0.97835 0.58783 0.50244 0.0
H1237 H 0.95575 0.56846 0.4566 0.0
H1238 H 0.94946 0.34939 0.48919 0.0
H1239 H 0.97184 0.36775 0.5356 0.0
C1240 C 0.06701 0.39836 0.57076 0.0
C1241 C 0.0658 0.32335 0.5747 0.0
C1242 C 0.05166 0.44099 0.57123 0.0
C1243 C 0.03472 0.40983 0.57576 0.0
C1244 C 0.03336 0.33486 0.57893 0.0
C1245 C 0.04878 0.29195 0.57857 0.0
C1246 C 0.01851 0.45598 0.57716 0.0
C1247 C 0.00498 0.44542 0.55238 0.0
C1248 C 0.01689 0.51289 0.60142 0.0
C1249 C 0.03039 0.52501 0.62914 0.0
C1250 C 0.03506 0.46943 0.65221 0.0
C1251 C 0.04796 0.48096 0.67799 0.0
C1252 C 0.05619 0.54802 0.68114 0.0
C1253 C 0.0515 0.60376 0.65857 0.0
C1254 C 0.03863 0.59249 0.63271 0.0
C1255 C 0.93958 0.60344 0.57982 0.0
C1256 C 0.94072 0.67878 0.57815 0.0
C1257 C 0.955 0.56128 0.57947 0.0
C1258 C 0.97197 0.59317 0.5769 0.0
C1259 C 0.97324 0.66848 0.57598 0.0
C1260 C 0.95774 0.71098 0.57659 0.0
C1261 C 0.98828 0.54745 0.57529 0.0
C1262 C 1.00186 0.55809 0.60001 0.0
C1263 C 0.98999 0.49083 0.55085 0.0
C1264 C 0.97666 0.47936 0.52271 0.0
C1265 C 0.97206 0.53565 0.49999 0.0
C1266 C 0.9593 0.52484 0.47389 0.0
C1267 C 0.95115 0.45779 0.47004 0.0
C1268 C 0.95578 0.40133 0.49223 0.0
C1269 C 0.96851 0.41189 0.51842 0.0
H1270 H 0.94126 0.44953 0.44982 0.0
H1271 H 0.06617 0.55683 0.70112 0.0
loop_
_geom_bond_atom_site_label_1
_geom_bond_atom_site_label_2
_geom_bond_distance
_geom_bond_site_symmetry_2
_ccdc_geom_bond_type
Co0 O2 2.143 . S
Co0 O8 2.074 1_554 S
Co0 O11 2.093 . S
Co0 O24 2.097 . S
Co0 N41 2.151 . S
Co0 N49 2.214 . S
Co1 O2 2.160 . S
Co1 O7 2.058 1_554 S
Co1 O17 2.057 . S
Co1 O32 2.037 . S
Co1 N36 2.145 1_554 S
Co1 N57 2.257 . S
O2 Co0 2.143 . S
O2 Co1 2.160 . S
C3 O4 1.278 . S
C3 O11 1.224 . S
O4 C3 1.278 . S
C5 O6 1.245 . S
C5 O17 1.232 . S
O6 C5 1.245 . S
O7 Co1 2.058 1_556 S
O7 C33 1.269 . S
O8 Co0 2.074 1_556 S
O8 C33 1.257 . S
H9 C34 0.930 . S
H10 C40 0.930 . S
O11 Co0 2.093 . S
O11 C3 1.224 . S
H12 C44 0.929 1_556 S
H13 C46 0.930 . S
H14 C47 0.930 . S
H15 C45 0.914 1_556 S
H16 C48 0.928 . S
O17 Co1 2.057 . S
O17 C5 1.232 . S
H18 C37 0.929 . S
H19 C38 0.929 . S
H20 C50 0.931 1_556 S
H21 C42 0.929 . S
H22 C51 0.930 . S
H23 C43 0.931 . S
O24 Co0 2.097 . S
O24 C52 1.214 . S
H25 C53 0.929 . S
H26 C54 0.929 . S
H27 C55 0.930 . S
H28 C56 0.929 . S
H29 C58 0.930 . S
H30 C35 0.930 1_565 S
H31 C39 0.930 1_565 S
O32 Co1 2.037 . S
O32 C52 1.234 . S
C33 O7 1.269 . S
C33 O8 1.257 . S
C34 H9 0.930 . S
C34 C37 1.388 . S
C34 C39 1.418 . S
C35 H30 0.930 1_545 S
C35 C38 1.404 . S
C35 C39 1.353 . S
N36 Co1 2.145 1_556 S
N36 C37 1.397 . S
N36 C38 1.334 . S
C37 H18 0.929 . S
C37 C34 1.388 . S
C37 N36 1.397 . S
C38 H19 0.929 . S
C38 C35 1.404 . S
C38 N36 1.334 . S
C39 H31 0.930 1_545 S
C39 C34 1.418 . S
C39 C35 1.353 . S
C40 H10 0.930 . S
C40 N41 1.330 . S
C40 C42 1.446 . S
N41 Co0 2.151 . S
N41 C40 1.330 . S
N41 C45 1.418 . S
C42 H21 0.929 . S
C42 C40 1.446 . S
C42 C43 1.332 . S
C43 H23 0.931 . S
C43 C42 1.332 . S
C43 C44 1.267 . S
C44 H12 0.929 1_554 S
C44 C43 1.267 . S
C44 C45 1.251 . S
C45 H15 0.914 1_554 S
C45 N41 1.418 . S
C45 C44 1.251 . S
C46 H13 0.930 . S
C46 C48 1.406 . S
C46 C51 1.261 . S
C47 H14 0.930 . S
C47 N49 1.325 . S
C47 C50 1.357 . S
C48 H16 0.928 . S
C48 C46 1.406 . S
C48 N49 1.261 . S
N49 Co0 2.214 . S
N49 C47 1.325 . S
N49 C48 1.261 . S
C50 H20 0.931 1_554 S
C50 C47 1.357 . S
C50 C51 1.312 . S
C51 H22 0.930 . S
C51 C46 1.261 . S
C51 C50 1.312 . S
C52 O24 1.214 . S
C52 O32 1.234 . S
C53 H25 0.929 . S
C53 C56 1.391 . S
C53 C58 1.391 . S
C54 H26 0.929 . S
C54 C55 1.390 . S
C54 N57 1.391 . S
C55 H27 0.930 . S
C55 C54 1.390 . S
C55 C56 1.392 . S
C56 H28 0.929 . S
C56 C53 1.391 . S
C56 C55 1.392 . S
N57 Co1 2.257 . S
N57 C54 1.391 . S
N57 C58 1.388 . S
C58 H29 0.930 . S
C58 C53 1.391 . S
C58 N57 1.388 . S
Co59 O61 2.143 . S
Co59 O67 2.074 1_554 S
Co59 O70 2.093 . S
Co59 O83 2.097 . S
Co59 N100 2.151 . S
Co59 N108 2.214 . S
Co60 O61 2.160 . S
Co60 O66 2.058 1_554 S
Co60 O76 2.057 . S
Co60 O91 2.037 . S
Co60 N95 2.145 1_554 S
Co60 N116 2.257 . S
O61 Co59 2.143 . S
O61 Co60 2.160 . S
C62 O63 1.278 . S
C62 O70 1.224 . S
O63 C62 1.278 . S
C64 O65 1.245 . S
C64 O76 1.232 . S
O65 C64 1.245 . S
O66 Co60 2.058 1_556 S
O66 C92 1.269 . S
O67 Co59 2.074 1_556 S
O67 C92 1.257 . S
H68 C93 0.930 . S
H69 C99 0.930 . S
O70 Co59 2.093 . S
O70 C62 1.224 . S
H71 C103 0.929 1_556 S
H72 C105 0.930 . S
H73 C106 0.930 . S
H74 C104 0.914 1_556 S
H75 C107 0.928 . S
O76 Co60 2.057 . S
O76 C64 1.232 . S
H77 C96 0.929 . S
H78 C97 0.929 . S
H79 C109 0.931 1_556 S
H80 C101 0.929 . S
H81 C110 0.930 . S
H82 C102 0.931 . S
O83 Co59 2.097 . S
O83 C111 1.214 . S
H84 C112 0.929 . S
H85 C113 0.929 . S
H86 C114 0.930 . S
H87 C115 0.929 . S
H88 C117 0.930 . S
H89 C94 0.930 1_545 S
H90 C98 0.930 1_545 S
O91 Co60 2.037 . S
O91 C111 1.234 . S
C92 O66 1.269 . S
C92 O67 1.257 . S
C93 H68 0.930 . S
C93 C96 1.388 . S
C93 C98 1.418 . S
C94 H89 0.930 1_565 S
C94 C97 1.404 . S
C94 C98 1.353 . S
N95 Co60 2.145 1_556 S
N95 C96 1.397 . S
N95 C97 1.334 . S
C96 H77 0.929 . S
C96 C93 1.388 . S
C96 N95 1.397 . S
C97 H78 0.929 . S
C97 C94 1.404 . S
C97 N95 1.334 . S
C98 H90 0.930 1_565 S
C98 C93 1.418 . S
C98 C94 1.353 . S
C99 H69 0.930 . S
C99 N100 1.330 . S
C99 C101 1.446 . S
N100 Co59 2.151 . S
N100 C99 1.330 . S
N100 C104 1.418 . S
C101 H80 0.929 . S
C101 C99 1.446 . S
C101 C102 1.332 . S
C102 H82 0.931 . S
C102 C101 1.332 . S
C102 C103 1.267 . S
C103 H71 0.929 1_554 S
C103 C102 1.267 . S
C103 C104 1.251 . S
C104 H74 0.914 1_554 S
C104 N100 1.418 . S
C104 C103 1.251 . S
C105 H72 0.930 . S
C105 C107 1.406 . S
C105 C110 1.261 . S
C106 H73 0.930 . S
C106 N108 1.325 . S
C106 C109 1.357 . S
C107 H75 0.928 . S
C107 C105 1.406 . S
C107 N108 1.261 . S
N108 Co59 2.214 . S
N108 C106 1.325 . S
N108 C107 1.261 . S
C109 H79 0.931 1_554 S
C109 C106 1.357 . S
C109 C110 1.312 . S
C110 H81 0.930 . S
C110 C105 1.261 . S
C110 C109 1.312 . S
C111 O83 1.214 . S
C111 O91 1.234 . S
C112 H84 0.929 . S
C112 C115 1.391 . S
C112 C117 1.391 . S
C113 H85 0.929 . S
C113 C114 1.390 . S
C113 N116 1.391 . S
C114 H86 0.930 . S
C114 C113 1.390 . S
C114 C115 1.392 . S
C115 H87 0.929 . S
C115 C112 1.391 . S
C115 C114 1.392 . S
N116 Co60 2.257 . S
N116 C113 1.391 . S
N116 C117 1.388 . S
C117 H88 0.930 . S
C117 C112 1.391 . S
C117 N116 1.388 . S
Co118 O120 2.143 . S
Co118 O126 2.074 . S
Co118 O129 2.093 . S
Co118 O142 2.097 . S
Co118 N159 2.151 . S
Co118 N167 2.214 . S
Co119 O120 2.160 . S
Co119 O125 2.058 . S
Co119 O135 2.057 . S
Co119 O150 2.037 . S
Co119 N154 2.145 . S
Co119 N175 2.257 . S
O120 Co118 2.143 . S
O120 Co119 2.160 . S
C121 O122 1.278 . S
C121 O129 1.224 . S
O122 C121 1.278 . S
C123 O124 1.245 . S
C123 O135 1.232 . S
O124 C123 1.245 . S
O125 Co119 2.058 . S
O125 C151 1.269 . S
O126 Co118 2.074 . S
O126 C151 1.257 . S
H127 C152 0.930 . S
H128 C158 0.930 . S
O129 Co118 2.093 . S
O129 C121 1.224 . S
H130 C162 0.929 . S
H131 C164 0.930 . S
H132 C165 0.930 . S
H133 C163 0.929 . S
H134 C166 0.928 . S
O135 Co119 2.057 . S
O135 C123 1.232 . S
H136 C155 0.929 . S
H137 C156 0.929 . S
H138 C168 0.931 . S
H139 C160 0.929 . S
H140 C169 0.930 . S
H141 C161 0.931 . S
O142 Co118 2.097 . S
O142 C170 1.214 . S
H143 C171 0.929 . S
H144 C172 0.929 . S
H145 C173 0.930 . S
H146 C174 0.929 . S
H147 C176 0.930 . S
H148 C153 0.930 1_545 S
H149 C157 0.930 1_545 S
O150 Co119 2.037 . S
O150 C170 1.234 . S
C151 O125 1.269 . S
C151 O126 1.257 . S
C152 H127 0.930 . S
C152 C155 1.388 . S
C152 C157 1.418 . S
C153 H148 0.930 1_565 S
C153 C156 1.404 . S
C153 C157 1.353 . S
N154 Co119 2.145 . S
N154 C155 1.397 . S
N154 C156 1.334 . S
C155 H136 0.929 . S
C155 C152 1.388 . S
C155 N154 1.397 . S
C156 H137 0.929 . S
C156 C153 1.404 . S
C156 N154 1.334 . S
C157 H149 0.930 1_565 S
C157 C152 1.418 . S
C157 C153 1.353 . S
C158 H128 0.930 . S
C158 N159 1.330 . S
C158 C160 1.446 . S
N159 Co118 2.151 . S
N159 C158 1.330 . S
N159 C163 1.418 . S
C160 H139 0.929 . S
C160 C158 1.446 . S
C160 C161 1.332 . S
C161 H141 0.931 . S
C161 C160 1.332 . S
C161 C162 1.267 . S
C162 H130 0.929 . S
C162 C161 1.267 . S
C162 C163 1.251 . S
C163 H133 0.929 . S
C163 N159 1.418 . S
C163 C162 1.251 . S
C164 H131 0.930 . S
C164 C166 1.406 . S
C164 C169 1.261 . S
C165 H132 0.930 . S
C165 N167 1.325 . S
C165 C168 1.357 . S
C166 H134 0.928 . S
C166 C164 1.406 . S
C166 N167 1.261 . S
N167 Co118 2.214 . S
N167 C165 1.325 . S
N167 C166 1.261 . S
C168 H138 0.931 . S
C168 C165 1.357 . S
C168 C169 1.312 . S
C169 H140 0.930 . S
C169 C164 1.261 . S
C169 C168 1.312 . S
C170 O142 1.214 . S
C170 O150 1.234 . S
C171 H143 0.929 . S
C171 C174 1.391 . S
C171 C176 1.391 . S
C172 H144 0.929 . S
C172 C173 1.390 . S
C172 N175 1.391 . S
C173 H145 0.930 . S
C173 C172 1.390 . S
C173 C174 1.392 . S
C174 H146 0.929 . S
C174 C171 1.391 . S
C174 C173 1.392 . S
N175 Co119 2.257 . S
N175 C172 1.391 . S
N175 C176 1.388 . S
C176 H147 0.930 . S
C176 C171 1.391 . S
C176 N175 1.388 . S
Co177 O179 2.143 . S
Co177 O185 2.074 . S
Co177 O188 2.093 . S
Co177 O201 2.097 . S
Co177 N218 2.151 . S
Co177 N226 2.214 . S
Co178 O179 2.160 . S
Co178 O184 2.058 . S
Co178 O194 2.057 . S
Co178 O209 2.037 . S
Co178 N213 2.145 . S
Co178 N234 2.257 . S
O179 Co177 2.143 . S
O179 Co178 2.160 . S
C180 O181 1.278 . S
C180 O188 1.224 . S
O181 C180 1.278 . S
C182 O183 1.245 . S
C182 O194 1.232 . S
O183 C182 1.245 . S
O184 Co178 2.058 . S
O184 C210 1.269 . S
O185 Co177 2.074 . S
O185 C210 1.257 . S
H186 C211 0.930 . S
H187 C217 0.930 . S
O188 Co177 2.093 . S
O188 C180 1.224 . S
H189 C221 0.929 . S
H190 C223 0.930 . S
H191 C224 0.930 . S
H192 C222 0.929 . S
H193 C225 0.928 . S
O194 Co178 2.057 . S
O194 C182 1.232 . S
H195 C214 0.929 . S
H196 C215 0.929 . S
H197 C227 0.931 . S
H198 C219 0.929 . S
H199 C228 0.930 . S
H200 C220 0.931 . S
O201 Co177 2.097 . S
O201 C229 1.214 . S
H202 C230 0.929 . S
H203 C231 0.929 . S
H204 C232 0.930 . S
H205 C233 0.929 . S
H206 C235 0.930 . S
H207 C212 0.930 1_565 S
H208 C216 0.930 1_565 S
O209 Co178 2.037 . S
O209 C229 1.234 . S
C210 O184 1.269 . S
C210 O185 1.257 . S
C211 H186 0.930 . S
C211 C214 1.388 . S
C211 C216 1.418 . S
C212 H207 0.930 1_545 S
C212 C215 1.404 . S
C212 C216 1.353 . S
N213 Co178 2.145 . S
N213 C214 1.397 . S
N213 C215 1.334 . S
C214 H195 0.929 . S
C214 C211 1.388 . S
C214 N213 1.397 . S
C215 H196 0.929 . S
C215 C212 1.404 . S
C215 N213 1.334 . S
C216 H208 0.930 1_545 S
C216 C211 1.418 . S
C216 C212 1.353 . S
C217 H187 0.930 . S
C217 N218 1.330 . S
C217 C219 1.446 . S
N218 Co177 2.151 . S
N218 C217 1.330 . S
N218 C222 1.418 . S
C219 H198 0.929 . S
C219 C217 1.446 . S
C219 C220 1.332 . S
C220 H200 0.931 . S
C220 C219 1.332 . S
C220 C221 1.267 . S
C221 H189 0.929 . S
C221 C220 1.267 . S
C221 C222 1.251 . S
C222 H192 0.929 . S
C222 N218 1.418 . S
C222 C221 1.251 . S
C223 H190 0.930 . S
C223 C225 1.406 . S
C223 C228 1.261 . S
C224 H191 0.930 . S
C224 N226 1.325 . S
C224 C227 1.357 . S
C225 H193 0.928 . S
C225 C223 1.406 . S
C225 N226 1.261 . S
N226 Co177 2.214 . S
N226 C224 1.325 . S
N226 C225 1.261 . S
C227 H197 0.931 . S
C227 C224 1.357 . S
C227 C228 1.312 . S
C228 H199 0.930 . S
C228 C223 1.261 . S
C228 C227 1.312 . S
C229 O201 1.214 . S
C229 O209 1.234 . S
C230 H202 0.929 . S
C230 C233 1.391 . S
C230 C235 1.391 . S
C231 H203 0.929 . S
C231 C232 1.390 . S
C231 N234 1.391 . S
C232 H204 0.930 . S
C232 C231 1.390 . S
C232 C233 1.392 . S
C233 H205 0.929 . S
C233 C230 1.391 . S
C233 C232 1.392 . S
N234 Co178 2.257 . S
N234 C231 1.391 . S
N234 C235 1.388 . S
C235 H206 0.930 . S
C235 C230 1.391 . S
C235 N234 1.388 . S
Co236 O238 2.143 . S
Co236 O244 2.074 1_554 S
Co236 O247 2.093 . S
Co236 O260 2.097 . S
Co236 N277 2.151 . S
Co236 N285 2.214 1_565 S
Co237 O238 2.160 . S
Co237 O243 2.058 1_554 S
Co237 O253 2.057 . S
Co237 O268 2.037 . S
Co237 N272 2.145 1_554 S
Co237 N293 2.257 . S
O238 Co236 2.143 . S
O238 Co237 2.160 . S
C239 O240 1.278 . S
C239 O247 1.224 . S
O240 C239 1.278 . S
C241 O242 1.245 . S
C241 O253 1.232 . S
O242 C241 1.245 . S
O243 Co237 2.058 1_556 S
O243 C269 1.269 . S
O244 Co236 2.074 1_556 S
O244 C269 1.257 . S
H245 C270 0.930 . S
H246 C276 0.930 . S
O247 Co236 2.093 . S
O247 C239 1.224 . S
H248 C280 0.929 1_556 S
H249 C282 0.930 . S
H250 C283 0.925 1_565 S
H251 C281 0.914 1_556 S
H252 C284 0.928 . S
O253 Co237 2.057 . S
O253 C241 1.232 . S
H254 C273 0.929 . S
H255 C274 0.929 . S
H256 C286 0.931 1_556 S
H257 C278 0.929 . S
H258 C287 0.930 . S
H259 C279 0.931 . S
O260 Co236 2.097 . S
O260 C288 1.214 . S
H261 C289 0.929 . S
H262 C290 0.929 . S
H263 C291 0.930 . S
H264 C292 0.929 . S
H265 C294 0.930 . S
H266 C271 0.930 . S
H267 C275 0.930 . S
O268 Co237 2.037 . S
O268 C288 1.234 . S
C269 O243 1.269 . S
C269 O244 1.257 . S
C270 H245 0.930 . S
C270 C273 1.388 . S
C270 C275 1.418 . S
C271 H266 0.930 . S
C271 C274 1.404 . S
C271 C275 1.353 . S
N272 Co237 2.145 1_556 S
N272 C273 1.397 . S
N272 C274 1.334 . S
C273 H254 0.929 . S
C273 C270 1.388 . S
C273 N272 1.397 . S
C274 H255 0.929 . S
C274 C271 1.404 . S
C274 N272 1.334 . S
C275 H267 0.930 . S
C275 C270 1.418 . S
C275 C271 1.353 . S
C276 H246 0.930 . S
C276 N277 1.330 . S
C276 C278 1.446 1_565 S
N277 Co236 2.151 . S
N277 C276 1.330 . S
N277 C281 1.418 1_565 S
C278 H257 0.929 . S
C278 C276 1.446 1_545 S
C278 C279 1.332 . S
C279 H259 0.931 . S
C279 C278 1.332 . S
C279 C280 1.267 . S
C280 H248 0.929 1_554 S
C280 C279 1.267 . S
C280 C281 1.251 . S
C281 H251 0.914 1_554 S
C281 N277 1.418 1_545 S
C281 C280 1.251 . S
C282 H249 0.930 . S
C282 C284 1.406 . S
C282 C287 1.261 . S
C283 H250 0.925 1_545 S
C283 N285 1.325 . S
C283 C286 1.361 . S
C284 H252 0.928 . S
C284 C282 1.406 . S
C284 N285 1.261 . S
N285 Co236 2.214 1_545 S
N285 C283 1.325 . S
N285 C284 1.261 . S
C286 H256 0.931 1_554 S
C286 C283 1.361 . S
C286 C287 1.312 . S
C287 H258 0.930 . S
C287 C282 1.261 . S
C287 C286 1.312 . S
C288 O260 1.214 . S
C288 O268 1.234 . S
C289 H261 0.929 . S
C289 C292 1.391 . S
C289 C294 1.391 . S
C290 H262 0.929 . S
C290 C291 1.390 . S
C290 N293 1.391 . S
C291 H263 0.930 . S
C291 C290 1.390 . S
C291 C292 1.392 . S
C292 H264 0.929 . S
C292 C289 1.391 . S
C292 C291 1.392 . S
N293 Co237 2.257 . S
N293 C290 1.391 . S
N293 C294 1.388 . S
C294 H265 0.930 . S
C294 C289 1.391 . S
C294 N293 1.388 . S
Co295 O297 2.143 . S
Co295 O303 2.074 1_554 S
Co295 O306 2.093 . S
Co295 O319 2.097 . S
Co295 N336 2.151 . S
Co295 N344 2.214 1_545 S
Co296 O297 2.160 . S
Co296 O302 2.058 1_554 S
Co296 O312 2.057 . S
Co296 O327 2.037 . S
Co296 N331 2.145 1_554 S
Co296 N352 2.257 . S
O297 Co295 2.143 . S
O297 Co296 2.160 . S
C298 O299 1.278 . S
C298 O306 1.224 . S
O299 C298 1.278 . S
C300 O301 1.245 . S
C300 O312 1.232 . S
O301 C300 1.245 . S
O302 Co296 2.058 1_556 S
O302 C328 1.269 . S
O303 Co295 2.074 1_556 S
O303 C328 1.257 . S
H304 C329 0.930 . S
H305 C335 0.930 . S
O306 Co295 2.093 . S
O306 C298 1.224 . S
H307 C339 0.929 1_556 S
H308 C341 0.930 . S
H309 C342 0.925 1_545 S
H310 C340 0.914 1_556 S
H311 C343 0.928 . S
O312 Co296 2.057 . S
O312 C300 1.232 . S
H313 C332 0.929 . S
H314 C333 0.929 . S
H315 C345 0.931 1_556 S
H316 C337 0.929 . S
H317 C346 0.930 . S
H318 C338 0.931 . S
O319 Co295 2.097 . S
O319 C347 1.214 . S
H320 C348 0.929 . S
H321 C349 0.929 . S
H322 C350 0.930 . S
H323 C351 0.929 . S
H324 C353 0.930 . S
H325 C330 0.930 . S
H326 C334 0.930 . S
O327 Co296 2.037 . S
O327 C347 1.234 . S
C328 O302 1.269 . S
C328 O303 1.257 . S
C329 H304 0.930 . S
C329 C332 1.388 . S
C329 C334 1.418 . S
C330 H325 0.930 . S
C330 C333 1.404 . S
C330 C334 1.353 . S
N331 Co296 2.145 1_556 S
N331 C332 1.397 . S
N331 C333 1.334 . S
C332 H313 0.929 . S
C332 C329 1.388 . S
C332 N331 1.397 . S
C333 H314 0.929 . S
C333 C330 1.404 . S
C333 N331 1.334 . S
C334 H326 0.930 . S
C334 C329 1.418 . S
C334 C330 1.353 . S
C335 H305 0.930 . S
C335 N336 1.330 . S
C335 C337 1.446 1_545 S
N336 Co295 2.151 . S
N336 C335 1.330 . S
N336 C340 1.418 1_545 S
C337 H316 0.929 . S
C337 C335 1.446 1_565 S
C337 C338 1.332 . S
C338 H318 0.931 . S
C338 C337 1.332 . S
C338 C339 1.267 . S
C339 H307 0.929 1_554 S
C339 C338 1.267 . S
C339 C340 1.251 . S
C340 H310 0.914 1_554 S
C340 N336 1.418 1_565 S
C340 C339 1.251 . S
C341 H308 0.930 . S
C341 C343 1.406 . S
C341 C346 1.261 . S
C342 H309 0.925 1_565 S
C342 N344 1.325 . S
C342 C345 1.361 . S
C343 H311 0.928 . S
C343 C341 1.406 . S
C343 N344 1.261 . S
N344 Co295 2.214 1_565 S
N344 C342 1.325 . S
N344 C343 1.261 . S
C345 H315 0.931 1_554 S
C345 C342 1.361 . S
C345 C346 1.312 . S
C346 H317 0.930 . S
C346 C341 1.261 . S
C346 C345 1.312 . S
C347 O319 1.214 . S
C347 O327 1.234 . S
C348 H320 0.929 . S
C348 C351 1.391 . S
C348 C353 1.391 . S
C349 H321 0.929 . S
C349 C350 1.390 . S
C349 N352 1.391 . S
C350 H322 0.930 . S
C350 C349 1.390 . S
C350 C351 1.392 . S
C351 H323 0.929 . S
C351 C348 1.391 . S
C351 C350 1.392 . S
N352 Co296 2.257 . S
N352 C349 1.391 . S
N352 C353 1.388 . S
C353 H324 0.930 . S
C353 C348 1.391 . S
C353 N352 1.388 . S
Co354 O356 2.143 . S
Co354 O362 2.074 . S
Co354 O365 2.093 . S
Co354 O378 2.097 . S
Co354 N395 2.151 . S
Co354 N403 2.214 1_545 S
Co355 O356 2.160 . S
Co355 O361 2.058 . S
Co355 O371 2.057 . S
Co355 O386 2.037 . S
Co355 N390 2.145 . S
Co355 N411 2.257 . S
O356 Co354 2.143 . S
O356 Co355 2.160 . S
C357 O358 1.278 . S
C357 O365 1.224 . S
O358 C357 1.278 . S
C359 O360 1.245 . S
C359 O371 1.232 . S
O360 C359 1.245 . S
O361 Co355 2.058 . S
O361 C387 1.269 . S
O362 Co354 2.074 . S
O362 C387 1.257 . S
H363 C388 0.930 . S
H364 C394 0.930 . S
O365 Co354 2.093 . S
O365 C357 1.224 . S
H366 C398 0.929 . S
H367 C400 0.930 . S
H368 C401 0.925 1_545 S
H369 C399 0.929 . S
H370 C402 0.928 . S
O371 Co355 2.057 . S
O371 C359 1.232 . S
H372 C391 0.929 . S
H373 C392 0.929 . S
H374 C404 0.931 . S
H375 C396 0.929 . S
H376 C405 0.930 . S
H377 C397 0.931 . S
O378 Co354 2.097 . S
O378 C406 1.214 . S
H379 C407 0.929 . S
H380 C408 0.929 . S
H381 C409 0.930 . S
H382 C410 0.929 . S
H383 C412 0.930 . S
H384 C389 0.930 . S
H385 C393 0.930 . S
O386 Co355 2.037 . S
O386 C406 1.234 . S
C387 O361 1.269 . S
C387 O362 1.257 . S
C388 H363 0.930 . S
C388 C391 1.388 . S
C388 C393 1.418 . S
C389 H384 0.930 . S
C389 C392 1.404 . S
C389 C393 1.353 . S
N390 Co355 2.145 . S
N390 C391 1.397 . S
N390 C392 1.334 . S
C391 H372 0.929 . S
C391 C388 1.388 . S
C391 N390 1.397 . S
C392 H373 0.929 . S
C392 C389 1.404 . S
C392 N390 1.334 . S
C393 H385 0.930 . S
C393 C388 1.418 . S
C393 C389 1.353 . S
C394 H364 0.930 . S
C394 N395 1.330 . S
C394 C396 1.446 1_545 S
N395 Co354 2.151 . S
N395 C394 1.330 . S
N395 C399 1.418 1_545 S
C396 H375 0.929 . S
C396 C394 1.446 1_565 S
C396 C397 1.332 . S
C397 H377 0.931 . S
C397 C396 1.332 . S
C397 C398 1.267 . S
C398 H366 0.929 . S
C398 C397 1.267 . S
C398 C399 1.251 . S
C399 H369 0.929 . S
C399 N395 1.418 1_565 S
C399 C398 1.251 . S
C400 H367 0.930 . S
C400 C402 1.406 . S
C400 C405 1.261 . S
C401 H368 0.925 1_565 S
C401 N403 1.325 . S
C401 C404 1.361 . S
C402 H370 0.928 . S
C402 C400 1.406 . S
C402 N403 1.261 . S
N403 Co354 2.214 1_565 S
N403 C401 1.325 . S
N403 C402 1.261 . S
C404 H374 0.931 . S
C404 C401 1.361 . S
C404 C405 1.312 . S
C405 H376 0.930 . S
C405 C400 1.261 . S
C405 C404 1.312 . S
C406 O378 1.214 . S
C406 O386 1.234 . S
C407 H379 0.929 . S
C407 C410 1.391 . S
C407 C412 1.391 . S
C408 H380 0.929 . S
C408 C409 1.390 . S
C408 N411 1.391 . S
C409 H381 0.930 . S
C409 C408 1.390 . S
C409 C410 1.392 . S
C410 H382 0.929 . S
C410 C407 1.391 . S
C410 C409 1.392 . S
N411 Co355 2.257 . S
N411 C408 1.391 . S
N411 C412 1.388 . S
C412 H383 0.930 . S
C412 C407 1.391 . S
C412 N411 1.388 . S
Co413 O415 2.143 . S
Co413 O421 2.074 . S
Co413 O424 2.093 . S
Co413 O437 2.097 . S
Co413 N454 2.151 . S
Co413 N462 2.214 1_565 S
Co414 O415 2.160 . S
Co414 O420 2.058 . S
Co414 O430 2.057 . S
Co414 O445 2.037 . S
Co414 N449 2.145 . S
Co414 N470 2.257 . S
O415 Co413 2.143 . S
O415 Co414 2.160 . S
C416 O417 1.278 . S
C416 O424 1.224 . S
O417 C416 1.278 . S
C418 O419 1.245 . S
C418 O430 1.232 . S
O419 C418 1.245 . S
O420 Co414 2.058 . S
O420 C446 1.269 . S
O421 Co413 2.074 . S
O421 C446 1.257 . S
H422 C447 0.930 . S
H423 C453 0.930 . S
O424 Co413 2.093 . S
O424 C416 1.224 . S
H425 C457 0.929 . S
H426 C459 0.930 . S
H427 C460 0.925 1_565 S
H428 C458 0.929 . S
H429 C461 0.928 . S
O430 Co414 2.057 . S
O430 C418 1.232 . S
H431 C450 0.929 . S
H432 C451 0.929 . S
H433 C463 0.931 . S
H434 C455 0.929 . S
H435 C464 0.930 . S
H436 C456 0.931 . S
O437 Co413 2.097 . S
O437 C465 1.214 . S
H438 C466 0.929 . S
H439 C467 0.929 . S
H440 C468 0.930 . S
H441 C469 0.929 . S
H442 C471 0.930 . S
H443 C448 0.930 . S
H444 C452 0.930 . S
O445 Co414 2.037 . S
O445 C465 1.234 . S
C446 O420 1.269 . S
C446 O421 1.257 . S
C447 H422 0.930 . S
C447 C450 1.388 . S
C447 C452 1.418 . S
C448 H443 0.930 . S
C448 C451 1.404 . S
C448 C452 1.353 . S
N449 Co414 2.145 . S
N449 C450 1.397 . S
N449 C451 1.334 . S
C450 H431 0.929 . S
C450 C447 1.388 . S
C450 N449 1.397 . S
C451 H432 0.929 . S
C451 C448 1.404 . S
C451 N449 1.334 . S
C452 H444 0.930 . S
C452 C447 1.418 . S
C452 C448 1.353 . S
C453 H423 0.930 . S
C453 N454 1.330 . S
C453 C455 1.446 1_565 S
N454 Co413 2.151 . S
N454 C453 1.330 . S
N454 C458 1.418 1_565 S
C455 H434 0.929 . S
C455 C453 1.446 1_545 S
C455 C456 1.332 . S
C456 H436 0.931 . S
C456 C455 1.332 . S
C456 C457 1.267 . S
C457 H425 0.929 . S
C457 C456 1.267 . S
C457 C458 1.251 . S
C458 H428 0.929 . S
C458 N454 1.418 1_545 S
C458 C457 1.251 . S
C459 H426 0.930 . S
C459 C461 1.406 . S
C459 C464 1.261 . S
C460 H427 0.925 1_545 S
C460 N462 1.325 . S
C460 C463 1.361 . S
C461 H429 0.928 . S
C461 C459 1.406 . S
C461 N462 1.261 . S
N462 Co413 2.214 1_545 S
N462 C460 1.325 . S
N462 C461 1.261 . S
C463 H433 0.931 . S
C463 C460 1.361 . S
C463 C464 1.312 . S
C464 H435 0.930 . S
C464 C459 1.261 . S
C464 C463 1.312 . S
C465 O437 1.214 . S
C465 O445 1.234 . S
C466 H438 0.929 . S
C466 C469 1.391 . S
C466 C471 1.391 . S
C467 H439 0.929 . S
C467 C468 1.390 . S
C467 N470 1.391 . S
C468 H440 0.930 . S
C468 C467 1.390 . S
C468 C469 1.392 . S
C469 H441 0.929 . S
C469 C466 1.391 . S
C469 C468 1.392 . S
N470 Co414 2.257 . S
N470 C467 1.391 . S
N470 C471 1.388 . S
C471 H442 0.930 . S
C471 C466 1.391 . S
C471 N470 1.388 . S
H472 C490 0.951 . S
H473 C492 0.951 . S
H474 C494 0.950 . S
H475 C495 0.950 . S
H476 C497 0.950 . S
H477 C500 0.950 . S
H478 C501 0.950 . S
H479 C503 0.950 . S
H480 C504 0.950 . S
H481 C505 0.951 . S
H482 C507 0.951 . S
H483 C509 0.950 . S
H484 C510 0.950 . S
H485 C512 0.950 . S
H486 C515 0.950 . S
H487 C516 0.950 . S
H488 C518 0.950 1_565 S
H489 C519 0.950 1_554 S
C490 H472 0.951 . S
C490 C491 1.366 . S
C490 C492 1.388 . S
C491 C490 1.366 . S
C491 C495 1.385 . S
C492 H473 0.951 . S
C492 C490 1.388 . S
C492 C493 1.366 . S
C493 C492 1.366 . S
C493 C494 1.414 . S
C493 C496 1.499 . S
C494 H474 0.950 . S
C494 C493 1.414 . S
C494 C495 1.374 . S
C495 H475 0.950 . S
C495 C491 1.385 . S
C495 C494 1.374 . S
C496 C493 1.499 . S
C496 C497 1.373 . S
C496 C498 1.389 . S
C497 H476 0.950 . S
C497 C496 1.373 . S
C497 C513 1.377 . S
C498 C496 1.389 . S
C498 C499 1.524 . S
C498 C512 1.377 . S
C499 C498 1.524 . S
C499 C500 1.397 . S
C499 C504 1.363 . S
C500 H477 0.950 . S
C500 C499 1.397 . S
C500 C501 1.334 . S
C501 H478 0.950 . S
C501 C500 1.334 . S
C501 C502 1.287 . S
C502 C501 1.287 . S
C502 C503 1.524 . S
C502 H521 0.913 . S
C503 H479 0.950 . S
C503 C502 1.524 . S
C503 C504 1.415 . S
C504 H480 0.950 . S
C504 C499 1.363 . S
C504 C503 1.415 . S
C505 H481 0.951 . S
C505 C506 1.366 . S
C505 C507 1.388 . S
C506 C505 1.366 . S
C506 C510 1.385 . S
C507 H482 0.951 . S
C507 C505 1.388 . S
C507 C508 1.366 . S
C508 C507 1.366 . S
C508 C509 1.414 . S
C508 C511 1.499 . S
C509 H483 0.950 . S
C509 C508 1.414 . S
C509 C510 1.374 . S
C510 H484 0.950 . S
C510 C506 1.385 . S
C510 C509 1.374 . S
C511 C508 1.499 . S
C511 C512 1.373 . S
C511 C513 1.389 . S
C512 H485 0.950 . S
C512 C498 1.377 . S
C512 C511 1.373 . S
C513 C497 1.377 . S
C513 C511 1.389 . S
C513 C514 1.524 1_554 S
C514 C513 1.524 1_556 S
C514 C515 1.397 . S
C514 C519 1.363 . S
C515 H486 0.950 . S
C515 C514 1.397 . S
C515 C516 1.334 . S
C516 H487 0.950 . S
C516 C515 1.334 . S
C516 C517 1.287 . S
C517 C516 1.287 . S
C517 C518 1.524 . S
C517 H520 0.999 . S
C518 H488 0.950 1_545 S
C518 C517 1.524 . S
C518 C519 1.415 . S
C519 H489 0.950 1_556 S
C519 C514 1.363 . S
C519 C518 1.415 . S
H520 C517 0.999 . S
H521 C502 0.913 . S
H522 C540 0.951 . S
H523 C542 0.951 . S
H524 C544 0.950 . S
H525 C545 0.950 . S
H526 C547 0.950 . S
H527 C550 0.950 . S
H528 C551 0.950 . S
H529 C553 0.950 . S
H530 C554 0.950 . S
H531 C555 0.951 . S
H532 C557 0.951 . S
H533 C559 0.950 . S
H534 C560 0.950 . S
H535 C562 0.950 . S
H536 C565 0.950 1_556 S
H537 C566 0.973 . S
H538 C568 0.950 1_545 S
H539 C569 0.950 . S
C540 H522 0.951 . S
C540 C541 1.366 1_556 S
C540 C542 1.388 . S
C541 C540 1.366 1_554 S
C541 C545 1.385 . S
C542 H523 0.951 . S
C542 C540 1.388 . S
C542 C543 1.366 1_556 S
C543 C542 1.366 1_554 S
C543 C544 1.414 . S
C543 C546 1.499 . S
C544 H524 0.950 . S
C544 C543 1.414 . S
C544 C545 1.374 . S
C545 H525 0.950 . S
C545 C541 1.385 . S
C545 C544 1.374 . S
C546 C543 1.499 . S
C546 C547 1.373 . S
C546 C548 1.389 . S
C547 H526 0.950 . S
C547 C546 1.373 . S
C547 C563 1.377 . S
C548 C546 1.389 . S
C548 C549 1.524 . S
C548 C562 1.377 . S
C549 C548 1.524 . S
C549 C550 1.397 . S
C549 C554 1.363 1_554 S
C550 H527 0.950 . S
C550 C549 1.397 . S
C550 C551 1.334 . S
C551 H528 0.950 . S
C551 C550 1.334 . S
C551 C552 1.287 . S
C552 C551 1.287 . S
C552 C553 1.524 1_554 S
C552 H571 0.917 . S
C553 H529 0.950 . S
C553 C552 1.524 1_556 S
C553 C554 1.415 . S
C554 H530 0.950 . S
C554 C549 1.363 1_556 S
C554 C553 1.415 . S
C555 H531 0.951 . S
C555 C556 1.366 . S
C555 C557 1.388 . S
C556 C555 1.366 . S
C556 C560 1.385 1_554 S
C557 H532 0.951 . S
C557 C555 1.388 . S
C557 C558 1.366 . S
C558 C557 1.366 . S
C558 C559 1.414 1_554 S
C558 C561 1.499 . S
C559 H533 0.950 . S
C559 C558 1.414 1_556 S
C559 C560 1.374 . S
C560 H534 0.950 . S
C560 C556 1.385 1_556 S
C560 C559 1.374 . S
C561 C558 1.499 . S
C561 C562 1.373 . S
C561 C563 1.389 . S
C562 H535 0.950 . S
C562 C548 1.377 . S
C562 C561 1.373 . S
C563 C547 1.377 . S
C563 C561 1.389 . S
C563 C564 1.524 . S
C564 C563 1.524 . S
C564 C565 1.397 . S
C564 C569 1.363 . S
C565 H536 0.950 1_554 S
C565 C564 1.397 . S
C565 C566 1.334 . S
C566 H537 0.973 . S
C566 C565 1.334 . S
C566 C567 1.287 . S
C567 C566 1.287 . S
C567 C568 1.524 . S
C567 H570 0.999 1_565 S
C568 H538 0.950 1_565 S
C568 C567 1.524 . S
C568 C569 1.415 . S
C569 H539 0.950 . S
C569 C564 1.363 . S
C569 C568 1.415 . S
H570 C567 0.999 1_545 S
H571 C552 0.917 . S
H572 C590 0.951 . S
H573 C592 0.951 . S
H574 C594 0.950 . S
H575 C595 0.950 . S
H576 C597 0.950 . S
H577 C600 0.950 . S
H578 C601 0.950 . S
H579 C603 0.950 1_545 S
H580 C604 0.950 . S
H581 C605 0.951 . S
H582 C607 0.951 . S
H583 C609 0.950 . S
H584 C610 0.950 . S
H585 C612 0.950 . S
H586 C615 0.950 . S
H587 C616 0.950 . S
H588 C618 0.950 . S
H589 C619 0.950 . S
C590 H572 0.951 . S
C590 C591 1.366 . S
C590 C592 1.388 . S
C591 C590 1.366 . S
C591 C595 1.385 . S
C592 H573 0.951 . S
C592 C590 1.388 . S
C592 C593 1.366 . S
C593 C592 1.366 . S
C593 C594 1.414 . S
C593 C596 1.499 . S
C594 H574 0.950 . S
C594 C593 1.414 . S
C594 C595 1.374 . S
C595 H575 0.950 . S
C595 C591 1.385 . S
C595 C594 1.374 . S
C596 C593 1.499 . S
C596 C597 1.373 . S
C596 C598 1.389 . S
C597 H576 0.950 . S
C597 C596 1.373 . S
C597 C613 1.377 . S
C598 C596 1.389 . S
C598 C599 1.524 . S
C598 C612 1.377 . S
C599 C598 1.524 . S
C599 C600 1.397 . S
C599 C604 1.363 . S
C600 H577 0.950 . S
C600 C599 1.397 . S
C600 C601 1.334 . S
C601 H578 0.950 . S
C601 C600 1.334 . S
C601 C602 1.287 . S
C602 C601 1.287 . S
C602 C603 1.524 . S
C602 H621 0.913 . S
C603 H579 0.950 1_565 S
C603 C602 1.524 . S
C603 C604 1.415 . S
C604 H580 0.950 . S
C604 C599 1.363 . S
C604 C603 1.415 . S
C605 H581 0.951 . S
C605 C606 1.366 . S
C605 C607 1.388 . S
C606 C605 1.366 . S
C606 C610 1.385 . S
C607 H582 0.951 . S
C607 C605 1.388 . S
C607 C608 1.366 . S
C608 C607 1.366 . S
C608 C609 1.414 . S
C608 C611 1.499 . S
C609 H583 0.950 . S
C609 C608 1.414 . S
C609 C610 1.374 . S
C610 H584 0.950 . S
C610 C606 1.385 . S
C610 C609 1.374 . S
C611 C608 1.499 . S
C611 C612 1.373 . S
C611 C613 1.389 . S
C612 H585 0.950 . S
C612 C598 1.377 . S
C612 C611 1.373 . S
C613 C597 1.377 . S
C613 C611 1.389 . S
C613 C614 1.524 . S
C614 C613 1.524 . S
C614 C615 1.397 . S
C614 C619 1.363 . S
C615 H586 0.950 . S
C615 C614 1.397 . S
C615 C616 1.334 . S
C616 H587 0.950 . S
C616 C615 1.334 . S
C616 C617 1.287 . S
C617 C616 1.287 . S
C617 C618 1.524 . S
C617 H620 0.999 . S
C618 H588 0.950 . S
C618 C617 1.524 . S
C618 C619 1.415 . S
C619 H589 0.950 . S
C619 C614 1.363 . S
C619 C618 1.415 . S
H620 C617 0.999 . S
H621 C602 0.913 . S
H622 C640 0.951 . S
H623 C642 0.951 . S
H624 C644 0.950 . S
H625 C645 0.950 . S
H626 C647 0.950 . S
H627 C650 0.950 . S
H628 C651 0.950 . S
H629 C653 0.950 . S
H630 C654 0.950 . S
H631 C655 0.951 . S
H632 C657 0.951 . S
H633 C659 0.950 . S
H634 C660 0.950 . S
H635 C662 0.950 . S
H636 C665 0.950 . S
H637 C666 0.950 . S
H638 C668 0.950 . S
H639 C669 0.950 . S
C640 H622 0.951 . S
C640 C641 1.366 . S
C640 C642 1.388 . S
C641 C640 1.366 . S
C641 C645 1.385 . S
C642 H623 0.951 . S
C642 C640 1.388 . S
C642 C643 1.366 . S
C643 C642 1.366 . S
C643 C644 1.414 . S
C643 C646 1.499 . S
C644 H624 0.950 . S
C644 C643 1.414 . S
C644 C645 1.374 . S
C645 H625 0.950 . S
C645 C641 1.385 . S
C645 C644 1.374 . S
C646 C643 1.499 . S
C646 C647 1.373 . S
C646 C648 1.389 . S
C647 H626 0.950 . S
C647 C646 1.373 . S
C647 C663 1.377 . S
C648 C646 1.389 . S
C648 C649 1.524 . S
C648 C662 1.377 . S
C649 C648 1.524 . S
C649 C650 1.397 . S
C649 C654 1.363 . S
C650 H627 0.950 . S
C650 C649 1.397 . S
C650 C651 1.334 . S
C651 H628 0.950 . S
C651 C650 1.334 . S
C651 C652 1.287 . S
C652 C651 1.287 . S
C652 C653 1.524 . S
C652 H671 0.913 . S
C653 H629 0.950 . S
C653 C652 1.524 . S
C653 C654 1.415 . S
C654 H630 0.950 . S
C654 C649 1.363 . S
C654 C653 1.415 . S
C655 H631 0.951 . S
C655 C656 1.366 . S
C655 C657 1.388 . S
C656 C655 1.366 . S
C656 C660 1.385 . S
C657 H632 0.951 . S
C657 C655 1.388 . S
C657 C658 1.366 . S
C658 C657 1.366 . S
C658 C659 1.414 . S
C658 C661 1.499 . S
C659 H633 0.950 . S
C659 C658 1.414 . S
C659 C660 1.374 . S
C660 H634 0.950 . S
C660 C656 1.385 . S
C660 C659 1.374 . S
C661 C658 1.499 . S
C661 C662 1.373 . S
C661 C663 1.389 . S
C662 H635 0.950 . S
C662 C648 1.377 . S
C662 C661 1.373 . S
C663 C647 1.377 . S
C663 C661 1.389 . S
C663 C664 1.524 . S
C664 C663 1.524 . S
C664 C665 1.397 . S
C664 C669 1.363 . S
C665 H636 0.950 . S
C665 C664 1.397 . S
C665 C666 1.334 . S
C666 H637 0.950 . S
C666 C665 1.334 . S
C666 C667 1.287 . S
C667 C666 1.287 . S
C667 C668 1.524 . S
C667 H670 0.999 . S
C668 H638 0.950 . S
C668 C667 1.524 . S
C668 C669 1.415 . S
C669 H639 0.950 . S
C669 C664 1.363 . S
C669 C668 1.415 . S
H670 C667 0.999 . S
H671 C652 0.913 . S
H672 C690 0.951 . S
H673 C692 0.951 . S
H674 C694 0.950 . S
H675 C695 0.950 . S
H676 C697 0.950 . S
H677 C700 0.950 . S
H678 C701 0.950 . S
H679 C703 0.950 . S
H680 C704 0.950 . S
H681 C705 0.951 . S
H682 C707 0.951 . S
H683 C709 0.950 . S
H684 C710 0.950 . S
H685 C712 0.950 . S
H686 C715 0.950 . S
H687 C716 0.950 . S
H688 C718 0.950 . S
H689 C719 0.950 . S
C690 H672 0.951 . S
C690 C691 1.366 . S
C690 C692 1.388 . S
C691 C690 1.366 . S
C691 C695 1.385 . S
C692 H673 0.951 . S
C692 C690 1.388 . S
C692 C693 1.366 . S
C693 C692 1.366 . S
C693 C694 1.414 . S
C693 C696 1.499 . S
C694 H674 0.950 . S
C694 C693 1.414 . S
C694 C695 1.374 . S
C695 H675 0.950 . S
C695 C691 1.385 . S
C695 C694 1.374 . S
C696 C693 1.499 . S
C696 C697 1.373 . S
C696 C698 1.389 . S
C697 H676 0.950 . S
C697 C696 1.373 . S
C697 C713 1.377 . S
C698 C696 1.389 . S
C698 C699 1.524 . S
C698 C712 1.377 . S
C699 C698 1.524 . S
C699 C700 1.397 . S
C699 C704 1.363 . S
C700 H677 0.950 . S
C700 C699 1.397 . S
C700 C701 1.334 . S
C701 H678 0.950 . S
C701 C700 1.334 . S
C701 C702 1.287 . S
C702 C701 1.287 . S
C702 C703 1.524 . S
C702 H721 0.913 . S
C703 H679 0.950 . S
C703 C702 1.524 . S
C703 C704 1.415 . S
C704 H680 0.950 . S
C704 C699 1.363 . S
C704 C703 1.415 . S
C705 H681 0.951 . S
C705 C706 1.366 . S
C705 C707 1.388 . S
C706 C705 1.366 . S
C706 C710 1.385 . S
C707 H682 0.951 . S
C707 C705 1.388 . S
C707 C708 1.366 . S
C708 C707 1.366 . S
C708 C709 1.414 . S
C708 C711 1.499 . S
C709 H683 0.950 . S
C709 C708 1.414 . S
C709 C710 1.374 . S
C710 H684 0.950 . S
C710 C706 1.385 . S
C710 C709 1.374 . S
C711 C708 1.499 . S
C711 C712 1.373 . S
C711 C713 1.389 . S
C712 H685 0.950 . S
C712 C698 1.377 . S
C712 C711 1.373 . S
C713 C697 1.377 . S
C713 C711 1.389 . S
C713 C714 1.524 . S
C714 C713 1.524 . S
C714 C715 1.397 . S
C714 C719 1.363 . S
C715 H686 0.950 . S
C715 C714 1.397 . S
C715 C716 1.334 . S
C716 H687 0.950 . S
C716 C715 1.334 . S
C716 C717 1.287 . S
C717 C716 1.287 . S
C717 C718 1.524 . S
C717 H720 0.999 . S
C718 H688 0.950 . S
C718 C717 1.524 . S
C718 C719 1.415 . S
C719 H689 0.950 . S
C719 C714 1.363 . S
C719 C718 1.415 . S
H720 C717 0.999 . S
H721 C702 0.913 . S
H722 C740 0.951 . S
H723 C742 0.951 . S
H724 C744 0.950 . S
H725 C745 0.950 . S
H726 C747 0.950 . S
H727 C750 0.950 . S
H728 C751 0.950 . S
H729 C753 0.950 . S
H730 C754 0.950 . S
H731 C755 0.951 . S
H732 C757 0.951 . S
H733 C759 0.950 . S
H734 C760 0.950 . S
H735 C762 0.950 . S
H736 C765 0.950 . S
H737 C766 0.950 . S
H738 C768 0.950 . S
H739 C769 0.950 . S
C740 H722 0.951 . S
C740 C741 1.366 . S
C740 C742 1.388 . S
C741 C740 1.366 . S
C741 C745 1.385 . S
C742 H723 0.951 . S
C742 C740 1.388 . S
C742 C743 1.366 . S
C743 C742 1.366 . S
C743 C744 1.414 . S
C743 C746 1.499 . S
C744 H724 0.950 . S
C744 C743 1.414 . S
C744 C745 1.374 . S
C745 H725 0.950 . S
C745 C741 1.385 . S
C745 C744 1.374 . S
C746 C743 1.499 . S
C746 C747 1.373 . S
C746 C748 1.389 . S
C747 H726 0.950 . S
C747 C746 1.373 . S
C747 C763 1.377 . S
C748 C746 1.389 . S
C748 C749 1.524 . S
C748 C762 1.377 . S
C749 C748 1.524 . S
C749 C750 1.397 . S
C749 C754 1.363 . S
C750 H727 0.950 . S
C750 C749 1.397 . S
C750 C751 1.334 . S
C751 H728 0.950 . S
C751 C750 1.334 . S
C751 C752 1.287 . S
C752 C751 1.287 . S
C752 C753 1.524 . S
C752 H771 0.913 . S
C753 H729 0.950 . S
C753 C752 1.524 . S
C753 C754 1.415 . S
C754 H730 0.950 . S
C754 C749 1.363 . S
C754 C753 1.415 . S
C755 H731 0.951 . S
C755 C756 1.366 . S
C755 C757 1.388 . S
C756 C755 1.366 . S
C756 C760 1.385 . S
C757 H732 0.951 . S
C757 C755 1.388 . S
C757 C758 1.366 . S
C758 C757 1.366 . S
C758 C759 1.414 . S
C758 C761 1.499 . S
C759 H733 0.950 . S
C759 C758 1.414 . S
C759 C760 1.374 . S
C760 H734 0.950 . S
C760 C756 1.385 . S
C760 C759 1.374 . S
C761 C758 1.499 . S
C761 C762 1.373 . S
C761 C763 1.389 . S
C762 H735 0.950 . S
C762 C748 1.377 . S
C762 C761 1.373 . S
C763 C747 1.377 . S
C763 C761 1.389 . S
C763 C764 1.524 . S
C764 C763 1.524 . S
C764 C765 1.397 . S
C764 C769 1.363 . S
C765 H736 0.950 . S
C765 C764 1.397 . S
C765 C766 1.334 . S
C766 H737 0.950 . S
C766 C765 1.334 . S
C766 C767 1.287 . S
C767 C766 1.287 . S
C767 C768 1.524 . S
C767 H770 0.999 . S
C768 H738 0.950 . S
C768 C767 1.524 . S
C768 C769 1.415 . S
C769 H739 0.950 . S
C769 C764 1.363 . S
C769 C768 1.415 . S
H770 C767 0.999 . S
H771 C752 0.913 . S
H772 C790 0.951 . S
H773 C792 0.951 . S
H774 C794 0.950 . S
H775 C795 0.950 . S
H776 C797 0.950 . S
H777 C800 0.950 . S
H778 C801 0.950 . S
H779 C803 0.950 . S
H780 C804 0.950 . S
H781 C805 0.951 . S
H782 C807 0.951 . S
H783 C809 0.950 . S
H784 C810 0.950 . S
H785 C812 0.950 . S
H786 C815 0.950 . S
H787 C816 0.950 . S
H788 C818 0.950 . S
H789 C819 0.950 . S
C790 H772 0.951 . S
C790 C791 1.366 . S
C790 C792 1.388 . S
C791 C790 1.366 . S
C791 C795 1.385 . S
C792 H773 0.951 . S
C792 C790 1.388 . S
C792 C793 1.366 . S
C793 C792 1.366 . S
C793 C794 1.414 . S
C793 C796 1.499 . S
C794 H774 0.950 . S
C794 C793 1.414 . S
C794 C795 1.374 . S
C795 H775 0.950 . S
C795 C791 1.385 . S
C795 C794 1.374 . S
C796 C793 1.499 . S
C796 C797 1.373 . S
C796 C798 1.389 . S
C797 H776 0.950 . S
C797 C796 1.373 . S
C797 C813 1.377 . S
C798 C796 1.389 . S
C798 C799 1.524 . S
C798 C812 1.377 . S
C799 C798 1.524 . S
C799 C800 1.397 . S
C799 C804 1.363 . S
C800 H777 0.950 . S
C800 C799 1.397 . S
C800 C801 1.334 . S
C801 H778 0.950 . S
C801 C800 1.334 . S
C801 C802 1.287 . S
C802 C801 1.287 . S
C802 C803 1.524 . S
C802 H821 0.913 . S
C803 H779 0.950 . S
C803 C802 1.524 . S
C803 C804 1.415 . S
C804 H780 0.950 . S
C804 C799 1.363 . S
C804 C803 1.415 . S
C805 H781 0.951 . S
C805 C806 1.366 . S
C805 C807 1.388 . S
C806 C805 1.366 . S
C806 C810 1.385 . S
C807 H782 0.951 . S
C807 C805 1.388 . S
C807 C808 1.366 . S
C808 C807 1.366 . S
C808 C809 1.414 . S
C808 C811 1.499 . S
C809 H783 0.950 . S
C809 C808 1.414 . S
C809 C810 1.374 . S
C810 H784 0.950 . S
C810 C806 1.385 . S
C810 C809 1.374 . S
C811 C808 1.499 . S
C811 C812 1.373 . S
C811 C813 1.389 . S
C812 H785 0.950 . S
C812 C798 1.377 . S
C812 C811 1.373 . S
C813 C797 1.377 . S
C813 C811 1.389 . S
C813 C814 1.524 . S
C814 C813 1.524 . S
C814 C815 1.397 . S
C814 C819 1.363 . S
C815 H786 0.950 . S
C815 C814 1.397 . S
C815 C816 1.334 . S
C816 H787 0.950 . S
C816 C815 1.334 . S
C816 C817 1.287 . S
C817 C816 1.287 . S
C817 C818 1.524 . S
C817 H820 0.999 . S
C818 H788 0.950 . S
C818 C817 1.524 . S
C818 C819 1.415 . S
C819 H789 0.950 . S
C819 C814 1.363 . S
C819 C818 1.415 . S
H820 C817 0.999 . S
H821 C802 0.913 . S
H822 C840 0.951 . S
H823 C842 0.951 . S
H824 C844 0.950 . S
H825 C845 0.950 . S
H826 C847 0.950 . S
H827 C850 0.950 . S
H828 C851 0.950 . S
H829 C853 0.950 . S
H830 C854 0.950 . S
H831 C855 0.951 . S
H832 C857 0.951 . S
H833 C859 0.950 . S
H834 C860 0.950 . S
H835 C862 0.950 . S
H836 C865 0.950 . S
H837 C866 0.950 . S
H838 C868 0.950 . S
H839 C869 0.950 . S
C840 H822 0.951 . S
C840 C841 1.366 . S
C840 C842 1.388 . S
C841 C840 1.366 . S
C841 C845 1.385 . S
C842 H823 0.951 . S
C842 C840 1.388 . S
C842 C843 1.366 . S
C843 C842 1.366 . S
C843 C844 1.414 . S
C843 C846 1.499 . S
C844 H824 0.950 . S
C844 C843 1.414 . S
C844 C845 1.374 . S
C845 H825 0.950 . S
C845 C841 1.385 . S
C845 C844 1.374 . S
C846 C843 1.499 . S
C846 C847 1.373 . S
C846 C848 1.389 . S
C847 H826 0.950 . S
C847 C846 1.373 . S
C847 C863 1.377 . S
C848 C846 1.389 . S
C848 C849 1.524 . S
C848 C862 1.377 . S
C849 C848 1.524 . S
C849 C850 1.397 . S
C849 C854 1.363 . S
C850 H827 0.950 . S
C850 C849 1.397 . S
C850 C851 1.334 . S
C851 H828 0.950 . S
C851 C850 1.334 . S
C851 C852 1.287 . S
C852 C851 1.287 . S
C852 C853 1.524 . S
C852 H871 0.913 . S
C853 H829 0.950 . S
C853 C852 1.524 . S
C853 C854 1.415 . S
C854 H830 0.950 . S
C854 C849 1.363 . S
C854 C853 1.415 . S
C855 H831 0.951 . S
C855 C856 1.366 . S
C855 C857 1.388 . S
C856 C855 1.366 . S
C856 C860 1.385 . S
C857 H832 0.951 . S
C857 C855 1.388 . S
C857 C858 1.366 . S
C858 C857 1.366 . S
C858 C859 1.414 . S
C858 C861 1.499 . S
C859 H833 0.950 . S
C859 C858 1.414 . S
C859 C860 1.374 . S
C860 H834 0.950 . S
C860 C856 1.385 . S
C860 C859 1.374 . S
C861 C858 1.499 . S
C861 C862 1.373 . S
C861 C863 1.389 . S
C862 H835 0.950 . S
C862 C848 1.377 . S
C862 C861 1.373 . S
C863 C847 1.377 . S
C863 C861 1.389 . S
C863 C864 1.524 . S
C864 C863 1.524 . S
C864 C865 1.397 . S
C864 C869 1.363 . S
C865 H836 0.950 . S
C865 C864 1.397 . S
C865 C866 1.334 . S
C866 H837 0.950 . S
C866 C865 1.334 . S
C866 C867 1.287 . S
C867 C866 1.287 . S
C867 C868 1.524 . S
C867 H870 0.999 . S
C868 H838 0.950 . S
C868 C867 1.524 . S
C868 C869 1.415 . S
C869 H839 0.950 . S
C869 C864 1.363 . S
C869 C868 1.415 . S
H870 C867 0.999 . S
H871 C852 0.913 . S
H872 C890 0.951 . S
H873 C892 0.951 . S
H874 C894 0.950 1_545 S
H875 C895 0.950 . S
H876 C897 0.950 . S
H877 C900 0.950 . S
H878 C901 0.950 . S
H879 C903 0.950 . S
H880 C904 0.950 . S
H881 C905 0.951 . S
H882 C907 0.951 . S
H883 C909 0.950 1_565 S
H884 C910 0.950 . S
H885 C912 0.950 . S
H886 C915 0.950 . S
H887 C916 0.950 . S
H888 C918 0.950 . S
H889 C919 0.950 . S
C890 H872 0.951 . S
C890 C891 1.366 . S
C890 C892 1.388 . S
C891 C890 1.366 . S
C891 C895 1.385 . S
C892 H873 0.951 . S
C892 C890 1.388 . S
C892 C893 1.366 . S
C893 C892 1.366 . S
C893 C894 1.414 . S
C893 C896 1.499 . S
C894 H874 0.950 1_565 S
C894 C893 1.414 . S
C894 C895 1.374 . S
C895 H875 0.950 . S
C895 C891 1.385 . S
C895 C894 1.374 . S
C896 C893 1.499 . S
C896 C897 1.373 1_565 S
C896 C898 1.389 . S
C897 H876 0.950 . S
C897 C896 1.373 1_545 S
C897 C913 1.377 . S
C898 C896 1.389 . S
C898 C899 1.524 . S
C898 C912 1.377 . S
C899 C898 1.524 . S
C899 C900 1.397 . S
C899 C904 1.363 . S
C900 H877 0.950 . S
C900 C899 1.397 . S
C900 C901 1.334 . S
C901 H878 0.950 . S
C901 C900 1.334 . S
C901 C902 1.287 . S
C902 C901 1.287 . S
C902 C903 1.524 . S
C902 H921 0.913 . S
C903 H879 0.950 . S
C903 C902 1.524 . S
C903 C904 1.415 . S
C904 H880 0.950 . S
C904 C899 1.363 . S
C904 C903 1.415 . S
C905 H881 0.951 . S
C905 C906 1.366 . S
C905 C907 1.388 . S
C906 C905 1.366 . S
C906 C910 1.385 . S
C907 H882 0.951 . S
C907 C905 1.388 . S
C907 C908 1.366 . S
C908 C907 1.366 . S
C908 C909 1.414 . S
C908 C911 1.499 . S
C909 H883 0.950 1_545 S
C909 C908 1.414 . S
C909 C910 1.374 . S
C910 H884 0.950 . S
C910 C906 1.385 . S
C910 C909 1.374 . S
C911 C908 1.499 . S
C911 C912 1.373 1_545 S
C911 C913 1.389 . S
C912 H885 0.950 . S
C912 C898 1.377 . S
C912 C911 1.373 1_565 S
C913 C897 1.377 . S
C913 C911 1.389 . S
C913 C914 1.524 . S
C914 C913 1.524 . S
C914 C915 1.397 . S
C914 C919 1.363 . S
C915 H886 0.950 . S
C915 C914 1.397 . S
C915 C916 1.334 . S
C916 H887 0.950 . S
C916 C915 1.334 . S
C916 C917 1.287 . S
C917 C916 1.287 . S
C917 C918 1.524 . S
C917 H920 0.999 . S
C918 H888 0.950 . S
C918 C917 1.524 . S
C918 C919 1.415 . S
C919 H889 0.950 . S
C919 C914 1.363 . S
C919 C918 1.415 . S
H920 C917 0.999 . S
H921 C902 0.913 . S
H922 C940 0.951 . S
H923 C942 0.951 1_545 S
H924 C944 0.950 . S
H925 C945 0.950 . S
H926 C947 0.950 . S
H927 C950 0.950 . S
H928 C951 0.950 . S
H929 C953 0.950 . S
H930 C954 0.950 . S
H931 C955 0.951 . S
H932 C957 0.951 1_565 S
H933 C959 0.950 . S
H934 C960 0.950 . S
H935 C962 0.950 . S
H936 C965 0.950 . S
H937 C966 0.950 . S
H938 C968 0.950 . S
H939 C969 0.950 . S
C940 H922 0.951 . S
C940 C941 1.366 . S
C940 C942 1.388 . S
C941 C940 1.366 . S
C941 C945 1.385 . S
C942 H923 0.951 1_565 S
C942 C940 1.388 . S
C942 C943 1.366 . S
C943 C942 1.366 . S
C943 C944 1.414 . S
C943 C946 1.499 . S
C944 H924 0.950 . S
C944 C943 1.414 . S
C944 C945 1.374 . S
C945 H925 0.950 . S
C945 C941 1.385 . S
C945 C944 1.374 . S
C946 C943 1.499 . S
C946 C947 1.373 . S
C946 C948 1.389 1_565 S
C947 H926 0.950 . S
C947 C946 1.373 . S
C947 C963 1.377 . S
C948 C946 1.389 1_545 S
C948 C949 1.524 . S
C948 C962 1.377 . S
C949 C948 1.524 . S
C949 C950 1.397 . S
C949 C954 1.363 . S
C950 H927 0.950 . S
C950 C949 1.397 . S
C950 C951 1.334 . S
C951 H928 0.950 . S
C951 C950 1.334 . S
C951 C952 1.287 . S
C952 C951 1.287 . S
C952 C953 1.524 . S
C952 H971 0.913 . S
C953 H929 0.950 . S
C953 C952 1.524 . S
C953 C954 1.415 . S
C954 H930 0.950 . S
C954 C949 1.363 . S
C954 C953 1.415 . S
C955 H931 0.951 . S
C955 C956 1.366 . S
C955 C957 1.388 . S
C956 C955 1.366 . S
C956 C960 1.385 . S
C957 H932 0.951 1_545 S
C957 C955 1.388 . S
C957 C958 1.366 . S
C958 C957 1.366 . S
C958 C959 1.414 . S
C958 C961 1.499 . S
C959 H933 0.950 . S
C959 C958 1.414 . S
C959 C960 1.374 . S
C960 H934 0.950 . S
C960 C956 1.385 . S
C960 C959 1.374 . S
C961 C958 1.499 . S
C961 C962 1.373 . S
C961 C963 1.389 1_545 S
C962 H935 0.950 . S
C962 C948 1.377 . S
C962 C961 1.373 . S
C963 C947 1.377 . S
C963 C961 1.389 1_565 S
C963 C964 1.524 . S
C964 C963 1.524 . S
C964 C965 1.397 . S
C964 C969 1.363 . S
C965 H936 0.950 . S
C965 C964 1.397 . S
C965 C966 1.334 . S
C966 H937 0.950 . S
C966 C965 1.334 . S
C966 C967 1.287 . S
C967 C966 1.287 . S
C967 C968 1.524 . S
C967 H970 0.999 . S
C968 H938 0.950 . S
C968 C967 1.524 . S
C968 C969 1.415 . S
C969 H939 0.950 . S
C969 C964 1.363 . S
C969 C968 1.415 . S
H970 C967 0.999 . S
H971 C952 0.913 . S
H972 C990 0.951 . S
H973 C992 0.951 . S
H974 C994 0.951 . S
H975 C995 0.950 . S
H976 C997 0.950 . S
H977 C1000 0.950 . S
H978 C1001 0.950 . S
H979 C1003 0.950 . S
H980 C1004 0.950 . S
H981 C1005 0.951 . S
H982 C1007 0.951 . S
H983 C1009 0.951 . S
H984 C1010 0.950 . S
H985 C1012 0.950 . S
H986 C1015 0.950 . S
H987 C1016 0.950 . S
H988 C1018 0.950 . S
H989 C1019 0.950 . S
C990 H972 0.951 . S
C990 C991 1.366 . S
C990 C992 1.388 . S
C991 C990 1.366 . S
C991 C995 1.385 . S
C992 H973 0.951 . S
C992 C990 1.388 . S
C992 C993 1.366 . S
C993 C992 1.366 . S
C993 C994 1.414 . S
C993 C996 1.499 . S
C994 H974 0.951 . S
C994 C993 1.414 . S
C994 C995 1.374 . S
C995 H975 0.950 . S
C995 C991 1.385 . S
C995 C994 1.374 . S
C996 C993 1.499 . S
C996 C997 1.373 . S
C996 C998 1.389 1_565 S
C997 H976 0.950 . S
C997 C996 1.373 . S
C997 C1013 1.377 . S
C998 C996 1.389 1_545 S
C998 C999 1.524 . S
C998 C1012 1.377 . S
C999 C998 1.524 . S
C999 C1000 1.397 . S
C999 C1004 1.363 1_545 S
C1000 H977 0.950 . S
C1000 C999 1.397 . S
C1000 C1001 1.334 . S
C1001 H978 0.950 . S
C1001 C1000 1.334 . S
C1001 C1002 1.287 . S
C1002 C1001 1.287 . S
C1002 C1003 1.524 1_545 S
C1002 H1021 0.913 . S
C1003 H979 0.950 . S
C1003 C1002 1.524 1_565 S
C1003 C1004 1.415 . S
C1004 H980 0.950 . S
C1004 C999 1.363 1_565 S
C1004 C1003 1.415 . S
C1005 H981 0.951 . S
C1005 C1006 1.366 . S
C1005 C1007 1.388 . S
C1006 C1005 1.366 . S
C1006 C1010 1.385 . S
C1007 H982 0.951 . S
C1007 C1005 1.388 . S
C1007 C1008 1.366 . S
C1008 C1007 1.366 . S
C1008 C1009 1.414 . S
C1008 C1011 1.499 . S
C1009 H983 0.951 . S
C1009 C1008 1.414 . S
C1009 C1010 1.374 . S
C1010 H984 0.950 . S
C1010 C1006 1.385 . S
C1010 C1009 1.374 . S
C1011 C1008 1.499 . S
C1011 C1012 1.373 . S
C1011 C1013 1.389 1_545 S
C1012 H985 0.950 . S
C1012 C998 1.377 . S
C1012 C1011 1.373 . S
C1013 C997 1.377 . S
C1013 C1011 1.389 1_565 S
C1013 C1014 1.524 . S
C1014 C1013 1.524 . S
C1014 C1015 1.397 . S
C1014 C1019 1.363 1_565 S
C1015 H986 0.950 . S
C1015 C1014 1.397 . S
C1015 C1016 1.334 . S
C1016 H987 0.950 . S
C1016 C1015 1.334 . S
C1016 C1017 1.287 . S
C1017 C1016 1.287 . S
C1017 C1018 1.524 1_565 S
C1017 H1020 0.999 . S
C1018 H988 0.950 . S
C1018 C1017 1.524 1_545 S
C1018 C1019 1.415 . S
C1019 H989 0.950 . S
C1019 C1014 1.363 1_545 S
C1019 C1018 1.415 . S
H1020 C1017 0.999 . S
H1021 C1002 0.913 . S
H1022 C1040 0.951 . S
H1023 C1042 0.951 1_545 S
H1024 C1044 0.950 . S
H1025 C1045 0.950 . S
H1026 C1047 0.950 . S
H1027 C1050 0.950 . S
H1028 C1051 0.950 . S
H1029 C1053 0.950 . S
H1030 C1054 0.950 . S
H1031 C1055 0.951 . S
H1032 C1057 0.951 1_565 S
H1033 C1059 0.950 . S
H1034 C1060 0.950 . S
H1035 C1062 0.950 . S
H1036 C1065 0.950 . S
H1037 C1066 0.950 . S
H1038 C1068 0.950 . S
H1039 C1069 0.950 . S
C1040 H1022 0.951 . S
C1040 C1041 1.366 . S
C1040 C1042 1.388 . S
C1041 C1040 1.366 . S
C1041 C1045 1.385 . S
C1042 H1023 0.951 1_565 S
C1042 C1040 1.388 . S
C1042 C1043 1.366 . S
C1043 C1042 1.366 . S
C1043 C1044 1.414 . S
C1043 C1046 1.499 . S
C1044 H1024 0.950 . S
C1044 C1043 1.414 . S
C1044 C1045 1.374 . S
C1045 H1025 0.950 . S
C1045 C1041 1.385 . S
C1045 C1044 1.374 . S
C1046 C1043 1.499 . S
C1046 C1047 1.373 . S
C1046 C1048 1.389 1_565 S
C1047 H1026 0.950 . S
C1047 C1046 1.373 . S
C1047 C1063 1.377 . S
C1048 C1046 1.389 1_545 S
C1048 C1049 1.524 . S
C1048 C1062 1.377 . S
C1049 C1048 1.524 . S
C1049 C1050 1.397 1_545 S
C1049 C1054 1.363 . S
C1050 H1027 0.950 . S
C1050 C1049 1.397 1_565 S
C1050 C1051 1.334 . S
C1051 H1028 0.950 . S
C1051 C1050 1.334 . S
C1051 C1052 1.287 1_565 S
C1052 C1051 1.287 1_545 S
C1052 C1053 1.524 . S
C1052 H1071 0.913 . S
C1053 H1029 0.950 . S
C1053 C1052 1.524 . S
C1053 C1054 1.415 . S
C1054 H1030 0.950 . S
C1054 C1049 1.363 . S
C1054 C1053 1.415 . S
C1055 H1031 0.951 . S
C1055 C1056 1.366 . S
C1055 C1057 1.388 . S
C1056 C1055 1.366 . S
C1056 C1060 1.385 . S
C1057 H1032 0.951 1_545 S
C1057 C1055 1.388 . S
C1057 C1058 1.366 . S
C1058 C1057 1.366 . S
C1058 C1059 1.414 . S
C1058 C1061 1.499 . S
C1059 H1033 0.950 . S
C1059 C1058 1.414 . S
C1059 C1060 1.374 . S
C1060 H1034 0.950 . S
C1060 C1056 1.385 . S
C1060 C1059 1.374 . S
C1061 C1058 1.499 . S
C1061 C1062 1.373 . S
C1061 C1063 1.389 1_545 S
C1062 H1035 0.950 . S
C1062 C1048 1.377 . S
C1062 C1061 1.373 . S
C1063 C1047 1.377 . S
C1063 C1061 1.389 1_565 S
C1063 C1064 1.524 . S
C1064 C1063 1.524 . S
C1064 C1065 1.397 1_565 S
C1064 C1069 1.363 . S
C1065 H1036 0.950 . S
C1065 C1064 1.397 1_545 S
C1065 C1066 1.334 . S
C1066 H1037 0.950 . S
C1066 C1065 1.334 . S
C1066 C1067 1.287 1_545 S
C1067 C1066 1.287 1_565 S
C1067 C1068 1.524 . S
C1067 H1070 0.999 . S
C1068 H1038 0.950 . S
C1068 C1067 1.524 . S
C1068 C1069 1.415 . S
C1069 H1039 0.950 . S
C1069 C1064 1.363 . S
C1069 C1068 1.415 . S
H1070 C1067 0.999 . S
H1071 C1052 0.913 . S
H1072 C1090 0.951 . S
H1073 C1092 0.951 . S
H1074 C1094 0.950 . S
H1075 C1095 0.950 . S
H1076 C1097 0.950 . S
H1077 C1100 0.950 1_556 S
H1078 C1101 0.950 1_556 S
H1079 C1103 0.950 . S
H1080 C1104 0.950 . S
H1081 C1105 0.957 . S
H1082 C1107 0.950 1_556 S
H1083 C1109 0.950 . S
H1084 C1110 0.950 . S
H1085 C1112 0.950 . S
H1086 C1115 0.950 . S
H1087 C1116 0.950 . S
H1088 C1118 0.950 . S
H1089 C1119 0.950 . S
C1090 H1072 0.951 . S
C1090 C1091 1.366 . S
C1090 C1092 1.388 . S
C1091 C1090 1.366 . S
C1091 C1095 1.385 1_554 S
C1092 H1073 0.951 . S
C1092 C1090 1.388 . S
C1092 C1093 1.366 . S
C1093 C1092 1.366 . S
C1093 C1094 1.414 1_554 S
C1093 C1096 1.499 . S
C1094 H1074 0.950 . S
C1094 C1093 1.414 1_556 S
C1094 C1095 1.374 . S
C1095 H1075 0.950 . S
C1095 C1091 1.385 1_556 S
C1095 C1094 1.374 . S
C1096 C1093 1.499 . S
C1096 C1097 1.373 . S
C1096 C1098 1.389 1_565 S
C1097 H1076 0.950 . S
C1097 C1096 1.373 . S
C1097 C1113 1.377 . S
C1098 C1096 1.389 1_545 S
C1098 C1099 1.524 . S
C1098 C1112 1.377 . S
C1099 C1098 1.524 . S
C1099 C1100 1.397 . S
C1099 C1104 1.363 . S
C1100 H1077 0.950 1_554 S
C1100 C1099 1.397 . S
C1100 C1101 1.334 . S
C1101 H1078 0.950 1_554 S
C1101 C1100 1.334 . S
C1101 C1102 1.287 . S
C1102 C1101 1.287 . S
C1102 C1103 1.524 . S
C1102 H1121 0.913 . S
C1103 H1079 0.950 . S
C1103 C1102 1.524 . S
C1103 C1104 1.415 . S
C1104 H1080 0.950 . S
C1104 C1099 1.363 . S
C1104 C1103 1.415 . S
C1105 H1081 0.957 . S
C1105 C1106 1.360 1_556 S
C1105 C1107 1.388 1_556 S
C1106 C1105 1.360 1_554 S
C1106 C1110 1.385 . S
C1107 H1082 0.950 1_554 S
C1107 C1105 1.388 1_554 S
C1107 C1108 1.367 . S
C1108 C1107 1.367 . S
C1108 C1109 1.414 . S
C1108 C1111 1.499 . S
C1109 H1083 0.950 . S
C1109 C1108 1.414 . S
C1109 C1110 1.374 . S
C1110 H1084 0.950 . S
C1110 C1106 1.385 . S
C1110 C1109 1.374 . S
C1111 C1108 1.499 . S
C1111 C1112 1.373 . S
C1111 C1113 1.389 1_545 S
C1112 H1085 0.950 . S
C1112 C1098 1.377 . S
C1112 C1111 1.373 . S
C1113 C1097 1.377 . S
C1113 C1111 1.389 1_565 S
C1113 C1114 1.524 . S
C1114 C1113 1.524 . S
C1114 C1115 1.397 . S
C1114 C1119 1.363 1_554 S
C1115 H1086 0.950 . S
C1115 C1114 1.397 . S
C1115 C1116 1.334 . S
C1116 H1087 0.950 . S
C1116 C1115 1.334 . S
C1116 C1117 1.287 . S
C1117 C1116 1.287 . S
C1117 C1118 1.524 1_554 S
C1117 H1120 0.999 . S
C1118 H1088 0.950 . S
C1118 C1117 1.524 1_556 S
C1118 C1119 1.415 . S
C1119 H1089 0.950 . S
C1119 C1114 1.363 1_556 S
C1119 C1118 1.415 . S
H1120 C1117 0.999 . S
H1121 C1102 0.913 . S
H1122 C1140 0.951 . S
H1123 C1142 0.951 . S
H1124 C1144 0.950 . S
H1125 C1145 0.950 . S
H1126 C1147 0.950 . S
H1127 C1150 0.950 . S
H1128 C1151 0.950 . S
H1129 C1153 0.950 . S
H1130 C1154 0.950 . S
H1131 C1155 0.951 . S
H1132 C1157 0.951 . S
H1133 C1159 0.950 . S
H1134 C1160 0.950 . S
H1135 C1162 0.950 . S
H1136 C1165 0.950 . S
H1137 C1166 0.950 . S
H1138 C1168 0.950 . S
H1139 C1169 0.950 . S
C1140 H1122 0.951 . S
C1140 C1141 1.366 . S
C1140 C1142 1.388 . S
C1141 C1140 1.366 . S
C1141 C1145 1.385 . S
C1142 H1123 0.951 . S
C1142 C1140 1.388 . S
C1142 C1143 1.366 . S
C1143 C1142 1.366 . S
C1143 C1144 1.414 . S
C1143 C1146 1.499 . S
C1144 H1124 0.950 . S
C1144 C1143 1.414 . S
C1144 C1145 1.374 . S
C1145 H1125 0.950 . S
C1145 C1141 1.385 . S
C1145 C1144 1.374 . S
C1146 C1143 1.499 . S
C1146 C1147 1.373 1_565 S
C1146 C1148 1.389 . S
C1147 H1126 0.950 . S
C1147 C1146 1.373 1_545 S
C1147 C1163 1.377 . S
C1148 C1146 1.389 . S
C1148 C1149 1.524 . S
C1148 C1162 1.377 . S
C1149 C1148 1.524 . S
C1149 C1150 1.397 . S
C1149 C1154 1.363 . S
C1150 H1127 0.950 . S
C1150 C1149 1.397 . S
C1150 C1151 1.334 . S
C1151 H1128 0.950 . S
C1151 C1150 1.334 . S
C1151 C1152 1.287 . S
C1152 C1151 1.287 . S
C1152 C1153 1.524 . S
C1152 H1171 0.913 . S
C1153 H1129 0.950 . S
C1153 C1152 1.524 . S
C1153 C1154 1.415 . S
C1154 H1130 0.950 . S
C1154 C1149 1.363 . S
C1154 C1153 1.415 . S
C1155 H1131 0.951 . S
C1155 C1156 1.366 . S
C1155 C1157 1.388 . S
C1156 C1155 1.366 . S
C1156 C1160 1.385 . S
C1157 H1132 0.951 . S
C1157 C1155 1.388 . S
C1157 C1158 1.366 . S
C1158 C1157 1.366 . S
C1158 C1159 1.414 . S
C1158 C1161 1.499 . S
C1159 H1133 0.950 . S
C1159 C1158 1.414 . S
C1159 C1160 1.374 . S
C1160 H1134 0.950 . S
C1160 C1156 1.385 . S
C1160 C1159 1.374 . S
C1161 C1158 1.499 . S
C1161 C1162 1.373 1_545 S
C1161 C1163 1.389 . S
C1162 H1135 0.950 . S
C1162 C1148 1.377 . S
C1162 C1161 1.373 1_565 S
C1163 C1147 1.377 . S
C1163 C1161 1.389 . S
C1163 C1164 1.524 . S
C1164 C1163 1.524 . S
C1164 C1165 1.397 . S
C1164 C1169 1.363 . S
C1165 H1136 0.950 . S
C1165 C1164 1.397 . S
C1165 C1166 1.334 . S
C1166 H1137 0.950 . S
C1166 C1165 1.334 . S
C1166 C1167 1.287 . S
C1167 C1166 1.287 . S
C1167 C1168 1.524 . S
C1167 H1170 0.999 . S
C1168 H1138 0.950 . S
C1168 C1167 1.524 . S
C1168 C1169 1.415 . S
C1169 H1139 0.950 . S
C1169 C1164 1.363 . S
C1169 C1168 1.415 . S
H1170 C1167 0.999 . S
H1171 C1152 0.913 . S
H1172 C1190 0.951 . S
H1173 C1192 0.957 . S
H1174 C1194 0.950 . S
H1175 C1195 0.950 . S
H1176 C1197 0.950 . S
H1177 C1200 0.950 . S
H1178 C1201 0.950 . S
H1179 C1203 0.950 . S
H1180 C1204 0.950 . S
H1181 C1205 0.951 . S
H1182 C1207 0.951 . S
H1183 C1209 0.950 . S
H1184 C1210 0.950 . S
H1185 C1212 0.950 . S
H1186 C1215 0.950 . S
H1187 C1216 0.950 . S
H1188 C1218 0.950 . S
H1189 C1219 0.950 . S
C1190 H1172 0.951 . S
C1190 C1191 1.366 . S
C1190 C1192 1.388 . S
C1191 C1190 1.366 . S
C1191 C1195 1.385 . S
C1192 H1173 0.957 . S
C1192 C1190 1.388 . S
C1192 C1193 1.366 . S
C1193 C1192 1.366 . S
C1193 C1194 1.414 . S
C1193 C1196 1.499 . S
C1194 H1174 0.950 . S
C1194 C1193 1.414 . S
C1194 C1195 1.374 . S
C1195 H1175 0.950 . S
C1195 C1191 1.385 . S
C1195 C1194 1.374 . S
C1196 C1193 1.499 . S
C1196 C1197 1.373 . S
C1196 C1198 1.389 1_554 S
C1197 H1176 0.950 . S
C1197 C1196 1.373 . S
C1197 C1213 1.377 1_455 S
C1198 C1196 1.389 1_556 S
C1198 C1199 1.524 . S
C1198 C1212 1.377 1_455 S
C1199 C1198 1.524 . S
C1199 C1200 1.397 . S
C1199 C1204 1.363 . S
C1200 H1177 0.950 . S
C1200 C1199 1.397 . S
C1200 C1201 1.334 . S
C1201 H1178 0.950 . S
C1201 C1200 1.334 . S
C1201 C1202 1.287 . S
C1202 C1201 1.287 . S
C1202 C1203 1.524 . S
C1202 H1221 0.913 . S
C1203 H1179 0.950 . S
C1203 C1202 1.524 . S
C1203 C1204 1.415 . S
C1204 H1180 0.950 . S
C1204 C1199 1.363 . S
C1204 C1203 1.415 . S
C1205 H1181 0.951 . S
C1205 C1206 1.366 . S
C1205 C1207 1.388 . S
C1206 C1205 1.366 . S
C1206 C1210 1.385 . S
C1207 H1182 0.951 . S
C1207 C1205 1.388 . S
C1207 C1208 1.366 . S
C1208 C1207 1.366 . S
C1208 C1209 1.414 . S
C1208 C1211 1.499 . S
C1209 H1183 0.950 . S
C1209 C1208 1.414 . S
C1209 C1210 1.374 . S
C1210 H1184 0.950 . S
C1210 C1206 1.385 . S
C1210 C1209 1.374 . S
C1211 C1208 1.499 . S
C1211 C1212 1.373 1_554 S
C1211 C1213 1.389 . S
C1212 H1185 0.950 . S
C1212 C1198 1.377 1_655 S
C1212 C1211 1.373 1_556 S
C1213 C1197 1.377 1_655 S
C1213 C1211 1.389 . S
C1213 C1214 1.524 . S
C1214 C1213 1.524 . S
C1214 C1215 1.397 . S
C1214 C1219 1.363 . S
C1215 H1186 0.950 . S
C1215 C1214 1.397 . S
C1215 C1216 1.334 . S
C1216 H1187 0.950 . S
C1216 C1215 1.334 . S
C1216 C1217 1.287 . S
C1217 C1216 1.287 . S
C1217 C1218 1.524 . S
C1217 H1220 0.999 . S
C1218 H1188 0.950 . S
C1218 C1217 1.524 . S
C1218 C1219 1.415 . S
C1219 H1189 0.950 . S
C1219 C1214 1.363 . S
C1219 C1218 1.415 . S
H1220 C1217 0.999 . S
H1221 C1202 0.913 . S
H1222 C1240 0.951 . S
H1223 C1242 0.951 . S
H1224 C1244 0.950 . S
H1225 C1245 0.950 . S
H1226 C1247 0.950 . S
H1227 C1250 0.950 . S
H1228 C1251 0.950 . S
H1229 C1253 0.950 . S
H1230 C1254 0.950 . S
H1231 C1255 0.951 . S
H1232 C1257 0.951 . S
H1233 C1259 0.950 . S
H1234 C1260 0.950 . S
H1235 C1262 0.950 . S
H1236 C1265 0.950 . S
H1237 C1266 0.950 . S
H1238 C1268 0.950 . S
H1239 C1269 0.950 . S
C1240 H1222 0.951 . S
C1240 C1241 1.366 . S
C1240 C1242 1.388 . S
C1241 C1240 1.366 . S
C1241 C1245 1.385 . S
C1242 H1223 0.951 . S
C1242 C1240 1.388 . S
C1242 C1243 1.366 . S
C1243 C1242 1.366 . S
C1243 C1244 1.414 . S
C1243 C1246 1.499 . S
C1244 H1224 0.950 . S
C1244 C1243 1.414 . S
C1244 C1245 1.374 . S
C1245 H1225 0.950 . S
C1245 C1241 1.385 . S
C1245 C1244 1.374 . S
C1246 C1243 1.499 . S
C1246 C1247 1.373 . S
C1246 C1248 1.389 . S
C1247 H1226 0.950 . S
C1247 C1246 1.373 . S
C1247 C1263 1.377 1_455 S
C1248 C1246 1.389 . S
C1248 C1249 1.524 . S
C1248 C1262 1.377 1_455 S
C1249 C1248 1.524 . S
C1249 C1250 1.397 . S
C1249 C1254 1.363 . S
C1250 H1227 0.950 . S
C1250 C1249 1.397 . S
C1250 C1251 1.334 . S
C1251 H1228 0.950 . S
C1251 C1250 1.334 . S
C1251 C1252 1.287 . S
C1252 C1251 1.287 . S
C1252 C1253 1.524 . S
C1252 H1271 0.913 . S
C1253 H1229 0.950 . S
C1253 C1252 1.524 . S
C1253 C1254 1.415 . S
C1254 H1230 0.950 . S
C1254 C1249 1.363 . S
C1254 C1253 1.415 . S
C1255 H1231 0.951 . S
C1255 C1256 1.366 . S
C1255 C1257 1.388 . S
C1256 C1255 1.366 . S
C1256 C1260 1.385 . S
C1257 H1232 0.951 . S
C1257 C1255 1.388 . S
C1257 C1258 1.366 . S
C1258 C1257 1.366 . S
C1258 C1259 1.414 . S
C1258 C1261 1.499 . S
C1259 H1233 0.950 . S
C1259 C1258 1.414 . S
C1259 C1260 1.374 . S
C1260 H1234 0.950 . S
C1260 C1256 1.385 . S
C1260 C1259 1.374 . S
C1261 C1258 1.499 . S
C1261 C1262 1.373 . S
C1261 C1263 1.389 . S
C1262 H1235 0.950 . S
C1262 C1248 1.377 1_655 S
C1262 C1261 1.373 . S
C1263 C1247 1.377 1_655 S
C1263 C1261 1.389 . S
C1263 C1264 1.524 . S
C1264 C1263 1.524 . S
C1264 C1265 1.397 . S
C1264 C1269 1.363 . S
C1265 H1236 0.950 . S
C1265 C1264 1.397 . S
C1265 C1266 1.334 . S
C1266 H1237 0.950 . S
C1266 C1265 1.334 . S
C1266 C1267 1.287 . S
C1267 C1266 1.287 . S
C1267 C1268 1.524 . S
C1267 H1270 0.999 . S
C1268 H1238 0.950 . S
C1268 C1267 1.524 . S
C1268 C1269 1.415 . S
C1269 H1239 0.950 . S
C1269 C1264 1.363 . S
C1269 C1268 1.415 . S
H1270 C1267 0.999 . S
H1271 C1252 0.913 . S
C491 C347 1.513 . S
C506 C52 1.512 . S
C541 C288 1.512 . S
C556 C111 1.512 . S
C591 C465 1.512 . S
C606 C170 1.513 . S
C641 C406 1.513 . S
C656 C229 1.512 . S
C691 C3 1.498 . S
C706 C121 1.498 . S
C741 C62 1.498 . S
C756 C180 1.498 . S
C791 C92 1.514 . S
C806 C210 1.514 . S
C841 C33 1.514 . S
C856 C151 1.514 . S
C891 C239 1.498 . S
C906 C357 1.498 . S
C941 C416 1.498 . S
C956 C298 1.498 . S
C991 C446 1.514 . S
C1006 C328 1.514 . S
C1041 C269 1.514 . S
C1056 C387 1.514 . S
C1091 C64 1.507 . S
C1106 C5 1.507 . S
C1141 C123 1.507 . S
C1156 C182 1.507 . S
C1191 C241 1.507 . S
C1206 C300 1.507 . S
C1241 C359 1.507 . S
C1256 C418 1.507 . S
