# Generated by pormake.
# Topology una, (4)-cn, num edge types: 1
# Building blocks:
#     Node 0, Type 0, BuildingBlock: GALJAG_clean_sbu_0, # of connection points: 4
#     Node 1, Type 0, BuildingBlock: GALJAG_clean_sbu_0, # of connection points: 4
#     Node 2, Type 0, BuildingBlock: GALJAG_clean_sbu_0, # of connection points: 4
#     Node 3, Type 0, BuildingBlock: GALJAG_clean_sbu_0, # of connection points: 4
#     Node 4, Type 0, BuildingBlock: GALJAG_clean_sbu_0, # of connection points: 4
#     Node 5, Type 0, BuildingBlock: GALJAG_clean_sbu_0, # of connection points: 4
#     Node 6, Type 0, BuildingBlock: GALJAG_clean_sbu_0, # of connection points: 4
#     Node 7, Type 0, BuildingBlock: GALJAG_clean_sbu_0, # of connection points: 4
#     Node 8, Type 0, BuildingBlock: GALJAG_clean_sbu_0, # of connection points: 4
#     Node 9, Type 0, BuildingBlock: GALJAG_clean_sbu_0, # of connection points: 4
#     Node 10, Type 0, BuildingBlock: GALJAG_clean_sbu_0, # of connection points: 4
#     Node 11, Type 0, BuildingBlock: GALJAG_clean_sbu_0, # of connection points: 4
#     Edge 12, Type (0, 0), BuildingBlock: UVAHIK_clean_linker_0, # of connection points: 2
#     Edge 13, Type (0, 0), BuildingBlock: UVAHIK_clean_linker_0, # of connection points: 2
#     Edge 14, Type (0, 0), BuildingBlock: UVAHIK_clean_linker_0, # of connection points: 2
#     Edge 15, Type (0, 0), BuildingBlock: UVAHIK_clean_linker_0, # of connection points: 2
#     Edge 16, Type (0, 0), BuildingBlock: UVAHIK_clean_linker_0, # of connection points: 2
#     Edge 17, Type (0, 0), BuildingBlock: UVAHIK_clean_linker_0, # of connection points: 2
#     Edge 18, Type (0, 0), BuildingBlock: UVAHIK_clean_linker_0, # of connection points: 2
#     Edge 19, Type (0, 0), BuildingBlock: UVAHIK_clean_linker_0, # of connection points: 2
#     Edge 20, Type (0, 0), BuildingBlock: UVAHIK_clean_linker_0, # of connection points: 2
#     Edge 21, Type (0, 0), BuildingBlock: UVAHIK_clean_linker_0, # of connection points: 2
#     Edge 22, Type (0, 0), BuildingBlock: UVAHIK_clean_linker_0, # of connection points: 2
#     Edge 23, Type (0, 0), BuildingBlock: UVAHIK_clean_linker_0, # of connection points: 2
#     Edge 24, Type (0, 0), BuildingBlock: UVAHIK_clean_linker_0, # of connection points: 2
#     Edge 25, Type (0, 0), BuildingBlock: UVAHIK_clean_linker_0, # of connection points: 2
#     Edge 26, Type (0, 0), BuildingBlock: UVAHIK_clean_linker_0, # of connection points: 2
#     Edge 27, Type (0, 0), BuildingBlock: UVAHIK_clean_linker_0, # of connection points: 2
#     Edge 28, Type (0, 0), BuildingBlock: UVAHIK_clean_linker_0, # of connection points: 2
#     Edge 29, Type (0, 0), BuildingBlock: UVAHIK_clean_linker_0, # of connection points: 2
#     Edge 30, Type (0, 0), BuildingBlock: UVAHIK_clean_linker_0, # of connection points: 2
#     Edge 31, Type (0, 0), BuildingBlock: UVAHIK_clean_linker_0, # of connection points: 2
#     Edge 32, Type (0, 0), BuildingBlock: UVAHIK_clean_linker_0, # of connection points: 2
#     Edge 33, Type (0, 0), BuildingBlock: UVAHIK_clean_linker_0, # of connection points: 2
#     Edge 34, Type (0, 0), BuildingBlock: UVAHIK_clean_linker_0, # of connection points: 2
#     Edge 35, Type (0, 0), BuildingBlock: UVAHIK_clean_linker_0, # of connection points: 2
# Relax obj value: 0.044
# Max RMSD: 0.038
# Mean RMSD: 0.038
data_MOF--net-una--node1-GALJAG_clean_sbu_0--edge1-UVAHIK_clean_linker_0
_symmetry_space_group_name_H-M    P1
_symmetry_Int_Tables_number       1
_symmetry_cell_setting            triclinic
loop_
_symmetry_equiv_pos_as_xyz
'x, y, z'
_cell_length_a     78.68619
_cell_length_b     78.651291
_cell_length_c     25.871786
_cell_angle_alpha  89.994023
_cell_angle_beta   90.007059
_cell_angle_gamma 119.99341
loop_
_atom_site_label
_atom_site_type_symbol
_atom_site_fract_x
_atom_site_fract_y
_atom_site_fract_z
_atom_type_partial_charge
In0 In 0.12473 0.43922 0.0602 0.0
O1 O 0.09232 0.41495 0.06546 0.0
O2 O 0.10498 0.42505 0.99134 0.0
C3 C 0.14088 0.4324 0.1439 0.0
C4 C 0.11933 0.46994 0.07851 0.0
C5 C 0.15263 0.44265 0.99427 0.0
O6 O 0.12649 0.41867 0.12038 0.0
O7 O 0.14643 0.44933 0.12631 0.0
O8 O 0.15153 0.45736 0.00928 0.0
O9 O 0.13969 0.4264 0.01249 0.0
C10 C 0.08997 0.41362 0.017 0.0
O11 O 0.1264 0.46793 0.0367 0.0
O12 O 0.11485 0.45638 0.111 0.0
In13 In 0.6826 0.12594 0.23081 0.0
O14 O 0.67584 0.09385 0.23401 0.0
O15 O 0.67585 0.10638 0.16122 0.0
C16 C 0.70566 0.14329 0.31368 0.0
C17 C 0.64639 0.12016 0.24945 0.0
C18 C 0.70724 0.15307 0.16354 0.0
O19 O 0.70475 0.12837 0.29251 0.0
O20 O 0.6943 0.14859 0.2946 0.0
O21 O 0.69156 0.15233 0.17813 0.0
O22 O 0.71037 0.14017 0.18294 0.0
C23 C 0.67364 0.09156 0.18559 0.0
O24 O 0.65609 0.12872 0.2095 0.0
O25 O 0.65492 0.11441 0.28027 0.0
In26 In 0.55601 0.68432 0.39108 0.0
O27 O 0.58109 0.67742 0.39495 0.0
O28 O 0.56752 0.67536 0.32239 0.0
C29 C 0.56253 0.70783 0.47374 0.0
C30 C 0.52484 0.64876 0.41162 0.0
C31 C 0.55403 0.70855 0.3212 0.0
O32 O 0.57632 0.70711 0.45084 0.0
O33 O 0.54567 0.69606 0.45658 0.0
O34 O 0.53909 0.69278 0.33524 0.0
O35 O 0.56991 0.71196 0.34215 0.0
C36 C 0.58042 0.67377 0.34717 0.0
O37 O 0.52486 0.65988 0.37649 0.0
O38 O 0.54068 0.65556 0.4368 0.0
In39 In 0.86872 0.55768 0.56095 0.0
O40 O 0.85939 0.52549 0.55419 0.0
O41 O 0.88309 0.54295 0.60512 0.0
C42 C 0.84153 0.55483 0.49285 0.0
C43 C 0.90317 0.57893 0.51125 0.0
C44 C 0.85555 0.56748 0.64609 0.0
O45 O 0.84118 0.53996 0.51227 0.0
O46 O 0.85553 0.57106 0.50787 0.0
O47 O 0.86751 0.58025 0.61511 0.0
O48 O 0.85102 0.55013 0.63514 0.0
C49 C 0.872 0.52622 0.58563 0.0
O50 O 0.90054 0.58315 0.5566 0.0
O51 O 0.88859 0.56415 0.49181 0.0
In52 In 0.31298 0.87069 0.72776 0.0
O53 O 0.33951 0.86767 0.70847 0.0
O54 O 0.3401 0.88165 0.77934 0.0
C55 C 0.2882 0.84378 0.6602 0.0
C56 C 0.32254 0.90506 0.68146 0.0
C57 C 0.28943 0.85353 0.80987 0.0
O58 O 0.30391 0.84447 0.6743 0.0
O59 O 0.28513 0.85663 0.68018 0.0
O60 O 0.2912 0.86898 0.78964 0.0
O61 O 0.30018 0.84758 0.79024 0.0
C62 C 0.34883 0.87593 0.74912 0.0
O63 O 0.31956 0.90273 0.72966 0.0
O64 O 0.32084 0.8903 0.65787 0.0
In65 In 0.43731 0.31108 0.8951 0.0
O66 O 0.41288 0.31886 0.90138 0.0
O67 O 0.42326 0.31734 0.82677 0.0
C68 C 0.42947 0.2879 0.97892 0.0
C69 C 0.46784 0.34724 0.91421 0.0
C70 C 0.44205 0.28707 0.83011 0.0
O71 O 0.41601 0.28784 0.95219 0.0
O72 O 0.44663 0.30003 0.96429 0.0
O73 O 0.4564 0.30276 0.84691 0.0
O74 O 0.42547 0.28369 0.8458 0.0
C75 C 0.41169 0.32051 0.85315 0.0
O76 O 0.46581 0.33843 0.87192 0.0
O77 O 0.45439 0.33786 0.94678 0.0
In78 In 0.55902 0.87223 0.88233 0.0
O79 O 0.53038 0.87086 0.90482 0.0
O80 O 0.54207 0.88203 0.83036 0.0
C81 C 0.55568 0.84514 0.95113 0.0
C82 C 0.58474 0.90747 0.92305 0.0
C83 C 0.56544 0.85506 0.80014 0.0
O84 O 0.54092 0.84577 0.93436 0.0
O85 O 0.57194 0.8581 0.93311 0.0
O86 O 0.57932 0.8695 0.82314 0.0
O87 O 0.54859 0.84994 0.81754 0.0
C88 C 0.52848 0.87777 0.86261 0.0
O89 O 0.58381 0.90436 0.87492 0.0
O90 O 0.57285 0.89296 0.94964 0.0
In91 In 0.68314 0.55628 0.04729 0.0
O92 O 0.65572 0.52773 0.0692 0.0
O93 O 0.65694 0.53884 0.99361 0.0
C94 C 0.70665 0.55328 0.11739 0.0
C95 C 0.67396 0.58217 0.08856 0.0
C96 C 0.70803 0.56307 0.96811 0.0
O97 O 0.69088 0.53851 0.10241 0.0
O98 O 0.71036 0.56938 0.09715 0.0
O99 O 0.70537 0.57647 0.98639 0.0
O100 O 0.69745 0.54638 0.988 0.0
C101 C 0.64731 0.52549 0.02622 0.0
O102 O 0.67489 0.5805 0.0402 0.0
O103 O 0.67758 0.57093 0.11493 0.0
In104 In 0.12616 0.68516 0.21716 0.0
O105 O 0.09461 0.67983 0.2138 0.0
O106 O 0.10376 0.67076 0.28051 0.0
C107 C 0.14262 0.7092 0.13541 0.0
C108 C 0.12229 0.65015 0.1927 0.0
C109 C 0.15196 0.70897 0.28868 0.0
O110 O 0.1285 0.70865 0.16012 0.0
O111 O 0.14775 0.69724 0.1509 0.0
O112 O 0.15311 0.69503 0.26822 0.0
O113 O 0.13778 0.71082 0.2732 0.0
C114 C 0.09015 0.6718 0.25786 0.0
O115 O 0.13046 0.65928 0.23369 0.0
O116 O 0.11609 0.65874 0.16343 0.0
In117 In 0.43781 0.12581 0.38888 0.0
O118 O 0.46529 0.12452 0.40956 0.0
O119 O 0.45505 0.1179 0.33215 0.0
C120 C 0.44255 0.15163 0.46328 0.0
C121 C 0.41098 0.09013 0.42506 0.0
C122 C 0.43136 0.14537 0.31276 0.0
O123 O 0.45689 0.15074 0.44433 0.0
O124 O 0.42601 0.13954 0.44465 0.0
O125 O 0.4177 0.12942 0.33079 0.0
O126 O 0.44805 0.15077 0.33169 0.0
C127 C 0.46775 0.11974 0.36487 0.0
O128 O 0.41315 0.0938 0.37718 0.0
O129 O 0.42216 0.10431 0.4536 0.0
In130 In 0.31068 0.43963 0.55076 0.0
O131 O 0.33521 0.47069 0.56593 0.0
O132 O 0.33967 0.45482 0.50602 0.0
C133 C 0.28698 0.44252 0.62059 0.0
C134 C 0.32069 0.41498 0.59588 0.0
C135 C 0.28713 0.43289 0.46802 0.0
O136 O 0.30268 0.45726 0.60531 0.0
O137 O 0.28329 0.42639 0.60059 0.0
O138 O 0.28749 0.41911 0.49204 0.0
O139 O 0.29927 0.4498 0.48412 0.0
C140 C 0.34645 0.47064 0.53126 0.0
O141 O 0.3182 0.4149 0.54758 0.0
O142 O 0.31825 0.42741 0.62042 0.0
In143 In 0.86878 0.31253 0.72163 0.0
O144 O 0.86261 0.3371 0.74033 0.0
O145 O 0.88161 0.34148 0.67701 0.0
C146 C 0.84245 0.28809 0.79095 0.0
C147 C 0.90408 0.32295 0.76324 0.0
C148 C 0.85226 0.28966 0.63762 0.0
O149 O 0.84283 0.30352 0.77575 0.0
O150 O 0.85536 0.28505 0.77123 0.0
O151 O 0.86604 0.28955 0.66229 0.0
O152 O 0.84754 0.30181 0.65403 0.0
C153 C 0.87313 0.3483 0.70451 0.0
O154 O 0.90083 0.31982 0.71536 0.0
O155 O 0.88966 0.3209 0.78932 0.0
C156 C 0.16707 0.44531 0.21087 0.0
C157 C 0.15186 0.42911 0.18526 0.0
C158 C 0.17925 0.4428 0.24533 0.0
C159 C 0.19818 0.40961 0.27391 0.0
H160 H 0.21982 0.44361 0.3933 0.0
C161 C 0.25648 0.41076 0.41808 0.0
C162 C 0.27193 0.42972 0.4296 0.0
C163 C 0.24049 0.40823 0.38832 0.0
C164 C 0.21391 0.43403 0.36003 0.0
H165 H 0.13701 0.39747 0.17694 0.0
H166 H 0.15833 0.39303 0.23795 0.0
H167 H 0.19282 0.44301 0.34577 0.0
H168 H 0.28329 0.46082 0.41655 0.0
H169 H 0.2555 0.45639 0.36506 0.0
H170 H 0.21955 0.40079 0.28852 0.0
C171 C 0.1609 0.4077 0.23082 0.0
C172 C 0.19846 0.43369 0.33279 0.0
C173 C 0.14861 0.41022 0.19628 0.0
C174 C 0.27158 0.44602 0.40864 0.0
C175 C 0.2556 0.44351 0.37946 0.0
C176 C 0.2136 0.40983 0.3016 0.0
C177 C 0.17654 0.42403 0.25516 0.0
C178 C 0.1908 0.42195 0.28846 0.0
C179 C 0.23966 0.42465 0.37021 0.0
C180 C 0.22197 0.4225 0.34395 0.0
H181 H 0.16998 0.46006 0.20311 0.0
H182 H 0.19131 0.45575 0.2627 0.0
H183 H 0.19269 0.40049 0.23975 0.0
H184 H 0.25636 0.39793 0.43379 0.0
H185 H 0.22838 0.39354 0.38152 0.0
C186 C 0.84382 0.25942 0.58602 0.0
C187 C 0.84095 0.27533 0.59667 0.0
C188 C 0.83127 0.24456 0.55196 0.0
C189 C 0.79359 0.23312 0.45048 0.0
H190 H 0.77239 0.17916 0.49522 0.0
C191 C 0.72096 0.17226 0.37211 0.0
C192 C 0.72061 0.15544 0.35254 0.0
C193 C 0.73674 0.18579 0.40173 0.0
C194 C 0.77837 0.19415 0.48201 0.0
H195 H 0.82318 0.28853 0.57876 0.0
H196 H 0.80135 0.26277 0.52 0.0
H197 H 0.79922 0.20574 0.54394 0.0
H198 H 0.73598 0.13899 0.35119 0.0
H199 H 0.76365 0.16272 0.40404 0.0
H200 H 0.77236 0.22165 0.38972 0.0
C201 C 0.81334 0.26174 0.53727 0.0
C202 C 0.79377 0.20936 0.50969 0.0
C203 C 0.82581 0.2765 0.57122 0.0
C204 C 0.73585 0.15182 0.36584 0.0
C205 C 0.75168 0.16539 0.39594 0.0
C206 C 0.77817 0.21799 0.4232 0.0
C207 C 0.8157 0.24543 0.5278 0.0
C208 C 0.80123 0.22907 0.49491 0.0
C209 C 0.75252 0.1828 0.41271 0.0
C210 C 0.77008 0.19841 0.43938 0.0
H211 H 0.85536 0.25812 0.60521 0.0
H212 H 0.83359 0.23229 0.54506 0.0
H213 H 0.79929 0.24808 0.43732 0.0
H214 H 0.70938 0.17541 0.36288 0.0
H215 H 0.73682 0.19888 0.41512 0.0
C216 C 0.54952 0.72381 0.53209 0.0
C217 C 0.56573 0.72303 0.51228 0.0
C218 C 0.5522 0.73977 0.56166 0.0
C219 C 0.58612 0.78091 0.64214 0.0
H220 H 0.5541 0.80306 0.5983 0.0
C221 C 0.58719 0.84654 0.74846 0.0
C222 C 0.56844 0.84372 0.75927 0.0
C223 C 0.58942 0.83403 0.71399 0.0
C224 C 0.5631 0.79703 0.61119 0.0
H225 H 0.59752 0.73783 0.51038 0.0
H226 H 0.60221 0.76579 0.56323 0.0
H227 H 0.55303 0.77601 0.54983 0.0
H228 H 0.53747 0.8261 0.74125 0.0
H229 H 0.54128 0.80443 0.68171 0.0
H230 H 0.59565 0.80153 0.70472 0.0
C231 C 0.58744 0.75403 0.5553 0.0
C232 C 0.56248 0.78154 0.58342 0.0
C233 C 0.58475 0.73804 0.52519 0.0
C234 C 0.55211 0.82868 0.73365 0.0
C235 C 0.55433 0.81631 0.69923 0.0
C236 C 0.58663 0.79638 0.67031 0.0
C237 C 0.57116 0.75528 0.57241 0.0
C238 C 0.57358 0.77299 0.59935 0.0
C239 C 0.57295 0.81862 0.68948 0.0
C240 C 0.57471 0.80425 0.65586 0.0
H241 H 0.53468 0.71243 0.52309 0.0
H242 H 0.53939 0.74019 0.57526 0.0
H243 H 0.59484 0.77458 0.65515 0.0
H244 H 0.60003 0.85799 0.76781 0.0
H245 H 0.60397 0.83629 0.70695 0.0
C246 C 0.84674 0.59027 0.69121 0.0
C247 C 0.84567 0.57192 0.68813 0.0
C248 C 0.83486 0.59324 0.72615 0.0
C249 C 0.80264 0.57119 0.841 0.0
H250 H 0.77288 0.59391 0.78366 0.0
C251 C 0.72737 0.55142 0.91871 0.0
C252 C 0.72398 0.56682 0.93161 0.0
C253 C 0.74396 0.55508 0.89063 0.0
C254 C 0.78128 0.58781 0.8004 0.0
H255 H 0.83215 0.54265 0.72082 0.0
H256 H 0.81152 0.54772 0.78123 0.0
H257 H 0.80025 0.59552 0.73456 0.0
H258 H 0.73484 0.59801 0.92304 0.0
H259 H 0.76387 0.60434 0.87247 0.0
H260 H 0.78311 0.56267 0.90563 0.0
C261 C 0.82155 0.55992 0.75722 0.0
C262 C 0.797 0.58878 0.77248 0.0
C263 C 0.83331 0.55696 0.72231 0.0
C264 C 0.73707 0.58586 0.91357 0.0
C265 C 0.75367 0.58949 0.88481 0.0
C266 C 0.78688 0.57008 0.86856 0.0
C267 C 0.82184 0.57794 0.75883 0.0
C268 C 0.80746 0.57994 0.79183 0.0
C269 C 0.75749 0.57418 0.87437 0.0
C270 C 0.7757 0.57785 0.84787 0.0
H271 H 0.85613 0.60206 0.66521 0.0
H272 H 0.83556 0.60734 0.72684 0.0
H273 H 0.81067 0.56464 0.85755 0.0
H274 H 0.71754 0.53658 0.93184 0.0
H275 H 0.74637 0.54295 0.88222 0.0
C276 C 0.25986 0.84638 0.86329 0.0
C277 C 0.27419 0.84165 0.84842 0.0
C278 C 0.24377 0.83325 0.89336 0.0
C279 C 0.21449 0.78059 0.91758 0.0
H280 H 0.19676 0.79342 0.04374 0.0
C281 C 0.16811 0.72228 0.06663 0.0
C282 C 0.15366 0.72378 0.09473 0.0
C283 C 0.18029 0.73704 0.03234 0.0
C284 C 0.20127 0.78968 0.00799 0.0
H285 H 0.28352 0.82004 0.85581 0.0
H286 H 0.25561 0.79731 0.90787 0.0
H287 H 0.22375 0.81955 0.9942 0.0
H288 H 0.14023 0.74166 0.10793 0.0
H289 H 0.16161 0.76762 0.04735 0.0
H290 H 0.19235 0.75082 0.93115 0.0
C291 C 0.25661 0.81097 0.89581 0.0
C292 C 0.21676 0.80463 0.97983 0.0
C293 C 0.27267 0.82407 0.86628 0.0
C294 C 0.15121 0.7401 0.08659 0.0
C295 C 0.16354 0.75501 0.05229 0.0
C296 C 0.199 0.76575 0.94535 0.0
C297 C 0.24174 0.81516 0.90846 0.0
C298 C 0.22388 0.80008 0.93527 0.0
C299 C 0.17837 0.75373 0.02526 0.0
C300 C 0.19261 0.77 0.99177 0.0
H301 H 0.26066 0.85982 0.85 0.0
H302 H 0.23251 0.83683 0.90282 0.0
H303 H 0.21941 0.77676 0.88266 0.0
H304 H 0.1704 0.70992 0.07214 0.0
H305 H 0.19174 0.73569 0.01282 0.0
C306 C 0.40915 0.15274 0.25904 0.0
C307 C 0.42808 0.15796 0.27649 0.0
C308 C 0.40616 0.16591 0.22926 0.0
C309 C 0.42846 0.21881 0.20587 0.0
H310 H 0.40005 0.20491 0.07605 0.0
C311 C 0.44143 0.27587 0.05144 0.0
C312 C 0.42574 0.27378 0.02102 0.0
C313 C 0.43868 0.2615 0.08735 0.0
C314 C 0.40768 0.20894 0.11276 0.0
H315 H 0.45874 0.18071 0.27486 0.0
H316 H 0.45351 0.20351 0.22328 0.0
H317 H 0.40086 0.17937 0.12838 0.0
H318 H 0.39467 0.2553 0.00535 0.0
H319 H 0.38982 0.23003 0.0686 0.0
H320 H 0.43562 0.24834 0.19021 0.0
C321 C 0.44096 0.18941 0.23304 0.0
C322 C 0.40819 0.19433 0.14257 0.0
C323 C 0.44397 0.17627 0.26226 0.0
C324 C 0.40703 0.2573 0.02843 0.0
C325 C 0.40428 0.24279 0.0643 0.0
C326 C 0.42788 0.23334 0.17634 0.0
C327 C 0.42201 0.18455 0.21705 0.0
C328 C 0.41911 0.19927 0.18859 0.0
C329 C 0.42017 0.24463 0.09366 0.0
C330 C 0.41802 0.2287 0.12866 0.0
H331 H 0.39663 0.13872 0.2695 0.0
H332 H 0.3914 0.1618 0.21727 0.0
H333 H 0.43662 0.22295 0.2418 0.0
H334 H 0.45603 0.28838 0.04654 0.0
H335 H 0.4513 0.26327 0.10875 0.0
C336 C 0.11448 0.49158 0.14019 0.0
C337 C 0.11727 0.48724 0.08932 0.0
C338 C 0.11379 0.50863 0.15092 0.0
C339 C 0.10376 0.54534 0.09553 0.0
H340 H 0.13961 0.57999 0.20019 0.0
C341 C 0.11634 0.62357 0.12967 0.0
C342 C 0.12027 0.63092 0.18033 0.0
C343 C 0.1152 0.60564 0.1181 0.0
C344 C 0.12923 0.57037 0.17152 0.0
H345 H 0.12088 0.49691 0.00956 0.0
H346 H 0.11923 0.52657 0.02831 0.0
H347 H 0.13823 0.549 0.18163 0.0
H348 H 0.12537 0.62508 0.25896 0.0
H349 H 0.12254 0.59355 0.23949 0.0
H350 H 0.09433 0.56638 0.08617 0.0
C351 C 0.11774 0.51683 0.05979 0.0
C352 C 0.12854 0.55266 0.16077 0.0
C353 C 0.11877 0.49994 0.04916 0.0
C354 C 0.12255 0.61986 0.21941 0.0
C355 C 0.12107 0.60182 0.20809 0.0
C356 C 0.1042 0.56294 0.10687 0.0
C357 C 0.11554 0.52146 0.11086 0.0
C358 C 0.11585 0.54001 0.12264 0.0
C359 C 0.11764 0.59457 0.15716 0.0
C360 C 0.11698 0.57573 0.14499 0.0
H361 H 0.1133 0.48204 0.17189 0.0
H362 H 0.11196 0.51184 0.19058 0.0
H363 H 0.09377 0.53574 0.06612 0.0
H364 H 0.1146 0.63187 0.09877 0.0
H365 H 0.11281 0.60071 0.07832 0.0
C366 C 0.6184 0.1124 0.30912 0.0
C367 C 0.6268 0.11762 0.25969 0.0
C368 C 0.6003 0.11105 0.31923 0.0
C369 C 0.56688 0.12749 0.26709 0.0
H370 H 0.53002 0.08963 0.36484 0.0
C371 C 0.48941 0.11643 0.29978 0.0
C372 C 0.48456 0.11715 0.35167 0.0
C373 C 0.506 0.1151 0.28737 0.0
C374 C 0.54023 0.1003 0.33756 0.0
H375 H 0.62262 0.1248 0.18158 0.0
H376 H 0.5908 0.12176 0.19853 0.0
H377 H 0.56031 0.08958 0.34466 0.0
H378 H 0.49284 0.11645 0.43124 0.0
H379 H 0.52166 0.1138 0.40948 0.0
H380 H 0.54658 0.13797 0.25956 0.0
C381 C 0.59838 0.11932 0.23008 0.0
C382 C 0.55763 0.10036 0.32615 0.0
C383 C 0.61657 0.12093 0.22022 0.0
C384 C 0.49627 0.11597 0.39091 0.0
C385 C 0.51269 0.11435 0.3785 0.0
C386 C 0.54938 0.12725 0.278 0.0
C387 C 0.59011 0.11464 0.2799 0.0
C388 C 0.57125 0.11406 0.291 0.0
C389 C 0.51784 0.11416 0.32662 0.0
C390 C 0.53596 0.11375 0.31358 0.0
H391 H 0.62602 0.10984 0.34034 0.0
H392 H 0.59457 0.10768 0.35822 0.0
H393 H 0.57715 0.13854 0.2407 0.0
H394 H 0.48064 0.11731 0.26876 0.0
H395 H 0.50959 0.11484 0.24707 0.0
C396 C 0.37154 0.50564 0.54731 0.0
C397 C 0.36576 0.48805 0.52053 0.0
C398 C 0.38938 0.52243 0.53614 0.0
C399 C 0.43802 0.54007 0.47834 0.0
H400 H 0.43702 0.58856 0.46122 0.0
C401 C 0.50797 0.61701 0.46064 0.0
C402 C 0.50739 0.62954 0.42282 0.0
C403 C 0.49113 0.59909 0.47192 0.0
C404 C 0.43752 0.57513 0.46563 0.0
H405 H 0.3743 0.47406 0.46193 0.0
H406 H 0.40566 0.50355 0.44238 0.0
H407 H 0.40685 0.5584 0.48234 0.0
H408 H 0.48892 0.63301 0.3665 0.0
H409 H 0.45963 0.60186 0.38629 0.0
H410 H 0.46878 0.55693 0.4613 0.0
C411 C 0.39635 0.50427 0.47212 0.0
C412 C 0.42029 0.55789 0.4782 0.0
C413 C 0.37838 0.48745 0.48309 0.0
C414 C 0.4898 0.62371 0.39603 0.0
C415 C 0.473 0.60592 0.4075 0.0
C416 C 0.45535 0.5574 0.46614 0.0
C417 C 0.40189 0.52199 0.49812 0.0
C418 C 0.42033 0.54018 0.48468 0.0
C419 C 0.47343 0.59349 0.44585 0.0
C420 C 0.45524 0.57508 0.45945 0.0
H421 H 0.36217 0.50654 0.57655 0.0
H422 H 0.39339 0.5358 0.55729 0.0
H423 H 0.43848 0.52664 0.48342 0.0
H424 H 0.52135 0.62112 0.48183 0.0
H425 H 0.49184 0.58985 0.5019 0.0
C426 C 0.85983 0.49034 0.57779 0.0
C427 C 0.87341 0.50868 0.59865 0.0
C428 C 0.86078 0.47359 0.59035 0.0
C429 C 0.89374 0.45669 0.63873 0.0
H430 H 0.845 0.40912 0.67072 0.0
C431 C 0.8867 0.3798 0.65484 0.0
C432 C 0.87485 0.36761 0.69499 0.0
C433 C 0.88759 0.39772 0.6449 0.0
C434 C 0.85876 0.42231 0.66227 0.0
H435 H 0.89881 0.52394 0.64849 0.0
H436 H 0.90047 0.49453 0.67057 0.0
H437 H 0.84454 0.43911 0.65037 0.0
H438 H 0.85504 0.36478 0.75697 0.0
H439 H 0.85663 0.39599 0.73971 0.0
H440 H 0.90794 0.43979 0.65094 0.0
C441 C 0.88915 0.49319 0.6443 0.0
C442 C 0.85847 0.43944 0.65009 0.0
C443 C 0.88814 0.50998 0.6319 0.0
C444 C 0.86422 0.37381 0.72557 0.0
C445 C 0.86506 0.39165 0.71554 0.0
C446 C 0.89402 0.43947 0.65066 0.0
C447 C 0.87538 0.4748 0.62392 0.0
C448 C 0.87593 0.45679 0.638 0.0
C449 C 0.87658 0.40371 0.67479 0.0
C450 C 0.87652 0.42211 0.66255 0.0
H451 H 0.84836 0.48888 0.55187 0.0
H452 H 0.85014 0.45968 0.57345 0.0
H453 H 0.90741 0.46982 0.62923 0.0
H454 H 0.89507 0.37539 0.63068 0.0
H455 H 0.89648 0.40664 0.61297 0.0
C456 C 0.37914 0.87588 0.72117 0.0
C457 C 0.36826 0.87828 0.76059 0.0
C458 C 0.39722 0.8774 0.73195 0.0
C459 C 0.4365 0.89436 0.83219 0.0
H460 H 0.44968 0.85961 0.75823 0.0
C461 C 0.49873 0.87893 0.89118 0.0
C462 C 0.51132 0.87999 0.85123 0.0
C463 C 0.482 0.88018 0.88013 0.0
C464 C 0.44625 0.86951 0.77884 0.0
H465 H 0.36775 0.88422 0.84214 0.0
H466 H 0.39899 0.88611 0.86159 0.0
H467 H 0.4189 0.85865 0.73963 0.0
H468 H 0.51645 0.88337 0.76857 0.0
H469 H 0.48692 0.88511 0.74916 0.0
H470 H 0.46369 0.90458 0.87275 0.0
C471 C 0.39387 0.8836 0.82198 0.0
C472 C 0.42865 0.86906 0.76806 0.0
C473 C 0.37589 0.88241 0.81097 0.0
C474 C 0.507 0.88254 0.80011 0.0
C475 C 0.4901 0.88345 0.78898 0.0
C476 C 0.45398 0.89457 0.84353 0.0
C477 C 0.40473 0.88099 0.78263 0.0
C478 C 0.42355 0.88154 0.7944 0.0
C479 C 0.4774 0.88218 0.82886 0.0
C480 C 0.45903 0.8822 0.81678 0.0
H481 H 0.37368 0.87288 0.68184 0.0
H482 H 0.40532 0.87578 0.70035 0.0
H483 H 0.43326 0.90441 0.85271 0.0
H484 H 0.50174 0.877 0.93095 0.0
H485 H 0.47237 0.87905 0.9115 0.0
C486 C 0.49789 0.3779 0.8856 0.0
C487 C 0.48499 0.36667 0.92538 0.0
C488 C 0.51458 0.39592 0.89656 0.0
C489 C 0.54932 0.42191 1e-05 0.0
H490 H 0.56389 0.46877 0.91927 0.0
C491 C 0.61632 0.49599 0.05505 0.0
C492 C 0.6279 0.50834 0.01487 0.0
C493 C 0.59823 0.47939 0.04444 0.0
C494 C 0.56019 0.45576 0.94179 0.0
H495 H 0.47926 0.36553 0.00765 0.0
H496 H 0.50864 0.3969 0.0269 0.0
H497 H 0.53348 0.43845 0.89959 0.0
H498 H 0.62965 0.51313 0.93211 0.0
H499 H 0.59836 0.48377 0.9132 0.0
H500 H 0.57618 0.43878 0.04112 0.0
C501 C 0.50578 0.39177 0.98728 0.0
C502 C 0.54273 0.43844 0.93062 0.0
C503 C 0.48895 0.37389 0.97622 0.0
C504 C 0.62096 0.5039 0.96387 0.0
C505 C 0.60296 0.48712 0.95313 0.0
C506 C 0.56688 0.43911 0.01075 0.0
C507 C 0.51881 0.40289 0.94761 0.0
C508 C 0.53713 0.42138 0.95971 0.0
C509 C 0.5914 0.47457 0.99328 0.0
C510 C 0.57256 0.4563 0.98188 0.0
H511 H 0.49517 0.37269 0.84604 0.0
H512 H 0.52447 0.40416 0.86533 0.0
H513 H 0.54548 0.40886 0.02253 0.0
H514 H 0.62124 0.49917 0.09482 0.0
H515 H 0.58958 0.47036 0.0765 0.0
C516 C 0.27788 0.46225 0.67817 0.0
C517 C 0.27412 0.4439 0.65968 0.0
C518 C 0.26579 0.46342 0.71587 0.0
C519 C 0.2316 0.43468 0.81933 0.0
H520 H 0.2113 0.47029 0.80325 0.0
C521 C 0.16727 0.42702 0.94051 0.0
C522 C 0.16771 0.44413 0.95792 0.0
C523 C 0.18137 0.42817 0.90589 0.0
C524 C 0.2171 0.4605 0.80872 0.0
H525 H 0.25478 0.41241 0.66568 0.0
H526 H 0.23374 0.41446 0.73154 0.0
H527 H 0.23402 0.47022 0.73902 0.0
H528 H 0.18326 0.4759 0.9531 0.0
H529 H 0.20818 0.47797 0.89286 0.0
H530 H 0.21476 0.42491 0.88883 0.0
C531 C 0.24608 0.42792 0.71721 0.0
C532 C 0.23006 0.46043 0.77191 0.0
C533 C 0.25805 0.42676 0.67932 0.0
C534 C 0.18256 0.46247 0.94016 0.0
C535 C 0.19675 0.46364 0.90554 0.0
C536 C 0.21876 0.43481 0.85621 0.0
C537 C 0.24987 0.44625 0.73599 0.0
C538 C 0.23717 0.4473 0.77649 0.0
C539 C 0.1963 0.44648 0.88809 0.0
C540 C 0.2111 0.44748 0.85088 0.0
H541 H 0.29018 0.4757 0.66362 0.0
H542 H 0.26908 0.47772 0.7299 0.0
H543 H 0.23716 0.42466 0.82427 0.0
H544 H 0.15593 0.41266 0.95334 0.0
H545 H 0.18038 0.41466 0.89247 0.0
C546 C 0.73688 0.16632 0.1075 0.0
C547 C 0.72075 0.16756 0.12585 0.0
C548 C 0.74949 0.17965 0.07087 0.0
C549 C 0.7668 0.22867 0.01735 0.0
H550 H 0.78255 0.20857 0.90108 0.0
C551 C 0.81325 0.27791 0.84784 0.0
C552 C 0.82808 0.27461 0.82892 0.0
C553 C 0.79959 0.265 0.88359 0.0
C554 C 0.77846 0.21444 0.9336 0.0
H555 H 0.70526 0.18384 0.121 0.0
H556 H 0.72746 0.2073 0.0568 0.0
H557 H 0.75978 0.18583 0.96492 0.0
H558 H 0.84044 0.25541 0.8328 0.0
H559 H 0.81684 0.23308 0.89576 0.0
H560 H 0.78573 0.25732 0.98643 0.0
C561 C 0.73031 0.196 0.07093 0.0
C562 C 0.7654 0.20142 0.97006 0.0
C563 C 0.71759 0.18255 0.10741 0.0
C564 C 0.82909 0.25826 0.84653 0.0
C565 C 0.8155 0.2454 0.88235 0.0
C566 C 0.77996 0.24174 0.98095 0.0
C567 C 0.74629 0.19456 0.05204 0.0
C568 C 0.75956 0.20841 0.01249 0.0
C569 C 0.80055 0.24858 0.90114 0.0
C570 C 0.78605 0.23476 0.93891 0.0
H571 H 0.73971 0.15494 0.12114 0.0
H572 H 0.76185 0.17837 0.0575 0.0
H573 H 0.76266 0.23445 0.04999 0.0
H574 H 0.81212 0.29039 0.83479 0.0
H575 H 0.78812 0.26772 0.89693 0.0
C576 C 0.53492 0.71851 0.26387 0.0
C577 C 0.55305 0.72208 0.28358 0.0
C578 C 0.53408 0.7316 0.22889 0.0
C579 C 0.5629 0.78282 0.18305 0.0
H580 H 0.52862 0.76347 0.06354 0.0
C581 C 0.57134 0.83194 0.01001 0.0
C582 C 0.55421 0.83063 0.98948 0.0
C583 C 0.57016 0.8185 0.04696 0.0
C584 C 0.53808 0.76906 0.09709 0.0
H585 H 0.5845 0.74194 0.28184 0.0
H586 H 0.58309 0.76458 0.2202 0.0
H587 H 0.52853 0.7402 0.12629 0.0
H588 H 0.52241 0.81415 0.99096 0.0
H589 H 0.52034 0.79049 0.05573 0.0
H590 H 0.57271 0.81164 0.15339 0.0
C591 C 0.56948 0.7519 0.23243 0.0
C592 C 0.53803 0.75577 0.13301 0.0
C593 C 0.57031 0.73887 0.26747 0.0
C594 C 0.53584 0.8155 0.00622 0.0
C595 C 0.53466 0.80194 0.04305 0.0
C596 C 0.56302 0.79607 0.14708 0.0
C597 C 0.55136 0.74848 0.21295 0.0
C598 C 0.55061 0.76251 0.17606 0.0
C599 C 0.55183 0.80341 0.06398 0.0
C600 C 0.55079 0.78932 0.10345 0.0
H601 H 0.52137 0.70569 0.2758 0.0
H602 H 0.51988 0.72866 0.21494 0.0
H603 H 0.57246 0.7885 0.2164 0.0
H604 H 0.58571 0.84342 0.99772 0.0
H605 H 0.58363 0.81981 0.0619 0.0
C606 C 0.8112 0.53509 0.44022 0.0
C607 C 0.82698 0.55343 0.45471 0.0
C608 C 0.79771 0.53386 0.40316 0.0
C609 C 0.79293 0.56132 0.29478 0.0
H610 H 0.7369 0.52831 0.3163 0.0
C611 C 0.73689 0.56918 0.17123 0.0
C612 C 0.71989 0.55203 0.15551 0.0
C613 C 0.74966 0.56823 0.20689 0.0
C614 C 0.7525 0.53737 0.30942 0.0
H615 H 0.84095 0.58486 0.44245 0.0
H616 H 0.81741 0.58273 0.37791 0.0
H617 H 0.75981 0.52868 0.38071 0.0
H618 H 0.70283 0.52043 0.16473 0.0
H619 H 0.72534 0.51873 0.22699 0.0
H620 H 0.78574 0.57009 0.22374 0.0
C621 C 0.81556 0.56929 0.39473 0.0
C622 C 0.7656 0.5376 0.34629 0.0
C623 C 0.82896 0.57052 0.43188 0.0
C624 C 0.71583 0.53388 0.17628 0.0
C625 C 0.72866 0.53292 0.21204 0.0
C626 C 0.77987 0.56105 0.25794 0.0
C627 C 0.79987 0.55095 0.37978 0.0
C628 C 0.78593 0.5498 0.33963 0.0
C629 C 0.74575 0.5501 0.22751 0.0
C630 C 0.75952 0.5493 0.2652 0.0
H631 H 0.80933 0.52168 0.45727 0.0
H632 H 0.78581 0.51953 0.39211 0.0
H633 H 0.80854 0.57056 0.28817 0.0
H634 H 0.74036 0.58339 0.15607 0.0
H635 H 0.76251 0.58176 0.21873 0.0
C636 C 0.16393 0.73732 0.34923 0.0
C637 C 0.16618 0.72225 0.32725 0.0
C638 C 0.17753 0.75015 0.38511 0.0
C639 C 0.2158 0.75534 0.47634 0.0
H640 H 0.23239 0.81071 0.46706 0.0
C641 C 0.27818 0.815 0.60157 0.0
C642 C 0.27455 0.82934 0.62264 0.0
C643 C 0.26528 0.80159 0.56527 0.0
C644 C 0.22777 0.79527 0.4704 0.0
H645 H 0.18429 0.70865 0.32559 0.0
H646 H 0.20822 0.73124 0.38803 0.0
H647 H 0.20926 0.7879 0.40397 0.0
H648 H 0.25454 0.84079 0.6229 0.0
H649 H 0.23204 0.81737 0.55985 0.0
H650 H 0.23437 0.7628 0.54292 0.0
C651 C 0.19583 0.73299 0.37795 0.0
C652 C 0.21451 0.78221 0.43432 0.0
C653 C 0.1822 0.72013 0.34204 0.0
C654 C 0.25776 0.82995 0.60714 0.0
C655 C 0.24494 0.81662 0.57082 0.0
C656 C 0.22911 0.76844 0.51244 0.0
C657 C 0.19368 0.74819 0.39966 0.0
C658 C 0.20825 0.76208 0.43716 0.0
C659 C 0.24861 0.80237 0.5493 0.0
C660 C 0.23508 0.78851 0.51007 0.0
H661 H 0.15167 0.73924 0.33871 0.0
H662 H 0.1753 0.76151 0.40178 0.0
H663 H 0.21108 0.73988 0.47984 0.0
H664 H 0.29102 0.81421 0.61287 0.0
H665 H 0.26854 0.79085 0.54902 0.0
C666 C 0.46295 0.27743 0.779 0.0
C667 C 0.4443 0.2735 0.79531 0.0
C668 C 0.46486 0.2643 0.74636 0.0
C669 C 0.43793 0.21271 0.70238 0.0
H670 H 0.47205 0.23207 0.58258 0.0
C671 C 0.42799 0.16433 0.52716 0.0
C672 C 0.44474 0.16558 0.50428 0.0
C673 C 0.42981 0.17745 0.56588 0.0
C674 C 0.4627 0.22647 0.61632 0.0
H675 H 0.41305 0.2529 0.79017 0.0
H676 H 0.41635 0.23021 0.73296 0.0
H677 H 0.47187 0.25536 0.64487 0.0
H678 H 0.47656 0.18151 0.50371 0.0
H679 H 0.47975 0.20467 0.57159 0.0
H680 H 0.42837 0.18388 0.67321 0.0
C681 C 0.42953 0.24321 0.74593 0.0
C682 C 0.4626 0.23978 0.65196 0.0
C683 C 0.42763 0.25629 0.7784 0.0
C684 C 0.4634 0.18023 0.52078 0.0
C685 C 0.46523 0.19349 0.55939 0.0
C686 C 0.438 0.19945 0.66676 0.0
C687 C 0.44815 0.24701 0.72969 0.0
C688 C 0.44987 0.23303 0.69472 0.0
C689 C 0.44842 0.19216 0.5824 0.0
C690 C 0.45005 0.2062 0.62281 0.0
H691 H 0.47605 0.29059 0.79156 0.0
H692 H 0.4794 0.26756 0.73468 0.0
H693 H 0.4283 0.20705 0.73558 0.0
H694 H 0.41341 0.15321 0.51516 0.0
H695 H 0.4166 0.17626 0.58235 0.0
C696 C 0.0706 0.39782 0.93766 0.0
C697 C 0.07112 0.40043 0.99145 0.0
C698 C 0.05278 0.38674 0.91207 0.0
C699 C -7e-05 0.35098 0.93148 0.0
H700 H 0.99427 0.3738 0.80423 0.0
C701 C 0.9251 0.33037 0.84147 0.0
C702 C 0.92323 0.32887 0.78741 0.0
C703 C 0.94327 0.33678 0.8649 0.0
C704 C 0.99569 0.36705 0.83922 0.0
H705 H 0.0535 0.39298 0.06099 0.0
H706 H 0.02215 0.37389 0.01608 0.0
H707 H 0.02568 0.38923 0.84874 0.0
H708 H 0.93877 0.33244 0.71547 0.0
H709 H 0.97071 0.3438 0.75655 0.0
H710 H 0.96966 0.3291 0.92242 0.0
C711 C 0.03558 0.38018 0.99375 0.0
C712 C 0.01372 0.37589 0.8648 0.0
C713 C 0.0535 0.39118 0.01949 0.0
C714 C 0.93982 0.33353 0.75722 0.0
C715 C 0.95807 0.34008 0.7807 0.0
C716 C 0.98185 0.34218 0.90594 0.0
C717 C 0.03502 0.37815 0.93959 0.0
C718 C 0.01602 0.36806 0.91145 0.0
C719 C 0.96 0.34194 0.83478 0.0
C720 C 0.9795 0.35024 0.85981 0.0
H721 H 0.08399 0.40459 0.91508 0.0
H722 H 0.05292 0.38511 0.87053 0.0
H723 H 0.00129 0.34442 0.9669 0.0
H724 H 0.91255 0.32683 0.86578 0.0
H725 H 0.94432 0.33829 0.90657 0.0
C726 C 0.60846 0.94365 0.91711 0.0
C727 C 0.59805 0.92663 0.94713 0.0
C728 C 0.61971 0.96193 0.94099 0.0
C729 C 0.64269 0.98583 0.06537 0.0
H730 H 0.63369 0.02726 0.01657 0.0
C731 C 0.66189 0.05541 0.18563 0.0
C732 C 0.66847 0.07307 0.15856 0.0
C733 C 0.65565 0.03781 0.15868 0.0
C734 C 0.63667 0.016 0.03025 0.0
H735 H 0.59186 0.91521 0.0254 0.0
H736 H 0.61139 0.94697 0.06684 0.0
H737 H 0.61934 0.99628 0.97011 0.0
H738 H 0.67466 0.08641 0.08241 0.0
H739 H 0.66426 0.05599 0.03576 0.0
H740 H 0.65986 0.00554 0.12597 0.0
C741 C 0.61099 0.94628 0.02501 0.0
C742 C 0.62844 0.99823 0.00352 0.0
C743 C 0.59967 0.9281 0.00123 0.0
C744 C 0.66941 0.07297 0.10436 0.0
C745 C 0.66335 0.0555 0.07756 0.0
C746 C 0.65102 0.00368 0.09206 0.0
C747 C 0.62086 0.96344 0.99524 0.0
C748 C 0.63117 0.98287 0.02108 0.0
C749 C 0.65602 0.03764 0.10424 0.0
C750 C 0.64795 0.01891 0.07506 0.0
H751 H 0.6075 0.94293 0.87532 0.0
H752 H 0.62732 0.97492 0.91706 0.0
H753 H 0.6452 0.97431 0.07953 0.0
H754 H 0.66101 0.05509 0.22744 0.0
H755 H 0.64994 0.02428 0.18042 0.0
C756 C 0.65936 0.60417 0.08544 0.0
C757 C 0.66841 0.59557 0.11345 0.0
C758 C 0.65247 0.61524 0.11101 0.0
C759 C 0.63645 0.62072 0.24105 0.0
H760 H 0.63733 0.66638 0.18148 0.0
C761 C 0.60597 0.66362 0.35062 0.0
C762 C 0.59337 0.66775 0.32169 0.0
C763 C 0.61739 0.65697 0.326 0.0
C764 C 0.63695 0.65361 0.1985 0.0
H765 H 0.6784 0.59272 0.18939 0.0
H766 H 0.6669 0.61233 0.23353 0.0
H767 H 0.65332 0.65092 0.13602 0.0
H768 H 0.58325 0.66875 0.24433 0.0
H769 H 0.60307 0.65712 0.20158 0.0
H770 H 0.61993 0.62324 0.30319 0.0
C771 C 0.66455 0.61011 0.19225 0.0
C772 C 0.64605 0.64473 0.17241 0.0
C773 C 0.67124 0.59896 0.16688 0.0
C774 C 0.59279 0.66563 0.26769 0.0
C775 C 0.60426 0.65911 0.24311 0.0
C776 C 0.62745 0.62963 0.26717 0.0
C777 C 0.65465 0.61799 0.16492 0.0
C778 C 0.64577 0.62808 0.19322 0.0
C779 C 0.61651 0.65447 0.27201 0.0
C780 C 0.62742 0.64605 0.24598 0.0
H781 H 0.65698 0.60176 0.04421 0.0
H782 H 0.64479 0.621 0.08884 0.0
H783 H 0.6356 0.60769 0.25776 0.0
H784 H 0.60675 0.66519 0.39228 0.0
H785 H 0.62684 0.65367 0.34921 0.0
C786 C 0.06588 0.65159 0.3252 0.0
C787 C 0.07053 0.66369 0.28142 0.0
C788 C 0.04736 0.6434 0.3477 0.0
C789 C 0.00482 0.64911 0.366 0.0
H790 H 0.97782 0.59306 0.3926 0.0
C791 C 0.93727 0.60772 0.50219 0.0
C792 C 0.92183 0.59003 0.48277 0.0
C793 C 0.95498 0.6178 0.47499 0.0
C794 C 0.98513 0.6087 0.38519 0.0
H795 H 0.0596 0.67704 0.2274 0.0
H796 H 0.02701 0.66282 0.26771 0.0
H797 H 0.00957 0.60867 0.34908 0.0
H798 H 0.91265 0.56921 0.4194 0.0
H799 H 0.94356 0.58662 0.37259 0.0
H800 H 0.9804 0.6491 0.40315 0.0
C801 C 0.03781 0.65968 0.28415 0.0
C802 C 0.00331 0.61763 0.36055 0.0
C803 C 0.05636 0.66771 0.26103 0.0
C804 C 0.92431 0.58276 0.43548 0.0
C805 C 0.94201 0.59269 0.4087 0.0
C806 C 0.98668 0.64019 0.39141 0.0
C807 C 0.03313 0.64728 0.32734 0.0
C808 C 0.01337 0.63791 0.35094 0.0
C809 C 0.95757 0.61021 0.42834 0.0
C810 C 0.9767 0.61989 0.40122 0.0
H811 H 0.07649 0.64824 0.34186 0.0
H812 H 0.04417 0.63404 0.38126 0.0
H813 H 0.01238 0.6648 0.35924 0.0
H814 H 0.93572 0.61368 0.53846 0.0
H815 H 0.96683 0.63123 0.49109 0.0
C816 C 0.39394 0.0687 0.50052 0.0
C817 C 0.39723 0.07067 0.44692 0.0
C818 C 0.3825 0.05023 0.52272 0.0
C819 C 0.36823 -0.00093 0.50089 0.0
H820 H 0.33329 0.98933 0.61694 0.0
C821 C 0.32829 0.92373 0.59956 0.0
C822 C 0.32784 0.92348 0.65385 0.0
C823 C 0.33421 0.94112 0.57249 0.0
C824 C 0.34312 0.99188 0.58484 0.0
H825 H 0.39052 0.05497 0.37419 0.0
H826 H 0.37048 0.02246 0.41319 0.0
H827 H 0.3475 0.02067 0.57116 0.0
H828 H 0.33276 0.94113 0.72245 0.0
H829 H 0.34357 0.97181 0.67505 0.0
H830 H 0.36439 0.97062 0.51524 0.0
C831 C 0.37688 0.03528 0.43796 0.0
C832 C 0.35118 0.00978 0.5585 0.0
C833 C 0.38825 0.05385 0.41562 0.0
C834 C 0.33298 0.94092 0.6806 0.0
C835 C 0.33905 0.95844 0.65341 0.0
C836 C 0.36024 0.98123 0.52729 0.0
C837 C 0.37417 0.03328 0.49187 0.0
C838 C 0.36399 0.01363 0.5166 0.0
C839 C 0.33998 0.95876 0.59901 0.0
C840 C 0.34773 0.97748 0.56988 0.0
H841 H 0.40062 0.08142 0.52562 0.0
H842 H 0.38088 0.04919 0.56437 0.0
H843 H 0.37833 0.00173 0.4694 0.0
H844 H 0.3242 0.91046 0.57779 0.0
H845 H 0.33435 0.94074 0.53065 0.0
C846 C 0.32584 0.40095 0.6766 0.0
C847 C 0.3264 0.40198 0.62239 0.0
C848 C 0.33227 0.3897 0.70268 0.0
C849 C 0.3451 0.35061 0.68583 0.0
H850 H 0.3771 0.37479 0.80735 0.0
C851 C 0.39694 0.32649 0.77485 0.0
C852 C 0.39848 0.32646 0.82896 0.0
C853 C 0.38563 0.33342 0.75127 0.0
C854 C 0.36793 0.36767 0.77402 0.0
H855 H 0.33361 0.39163 0.55277 0.0
H856 H 0.34536 0.37223 0.59846 0.0
H857 H 0.36231 0.39128 0.76224 0.0
H858 H 0.38889 0.33305 0.90092 0.0
H859 H 0.3691 0.34528 0.85959 0.0
H860 H 0.35129 0.32724 0.6971 0.0
C861 C 0.33965 0.3799 0.6208 0.0
C862 C 0.35944 0.37713 0.74808 0.0
C863 C 0.33303 0.39108 0.5946 0.0
C864 C 0.38801 0.33297 0.85913 0.0
C865 C 0.37677 0.34003 0.83548 0.0
C866 C 0.3537 0.34119 0.7117 0.0
C867 C 0.33961 0.37934 0.67521 0.0
C868 C 0.34801 0.36878 0.7035 0.0
C869 C 0.37569 0.34057 0.78127 0.0
C870 C 0.36532 0.3497 0.75586 0.0
H871 H 0.32058 0.40901 0.69907 0.0
H872 H 0.33162 0.38925 0.74451 0.0
H873 H 0.33616 0.34365 0.65207 0.0
H874 H 0.40481 0.3215 0.75058 0.0
H875 H 0.38526 0.33383 0.70945 0.0
loop_
_geom_bond_atom_site_label_1
_geom_bond_atom_site_label_2
_geom_bond_distance
_geom_bond_site_symmetry_2
_ccdc_geom_bond_type
In0 O1 2.294 . S
In0 O2 2.336 . S
In0 O6 2.266 . S
In0 O7 2.326 . S
In0 O8 2.266 1_554 S
In0 O9 2.326 . S
In0 O11 2.294 . S
In0 O12 2.326 . S
O1 In0 2.294 . S
O1 C10 1.240 . S
O2 In0 2.336 . S
O2 C10 1.260 . S
C3 O6 1.252 . S
C3 O7 1.260 . S
C4 O11 1.240 . S
C4 O12 1.252 . S
C5 O8 1.252 . S
C5 O9 1.260 1_556 S
O6 In0 2.266 . S
O6 C3 1.252 . S
O7 In0 2.326 . S
O7 C3 1.260 . S
O8 In0 2.266 1_556 S
O8 C5 1.252 . S
O9 In0 2.326 . S
O9 C5 1.260 1_554 S
C10 O1 1.240 . S
C10 O2 1.260 . S
O11 In0 2.294 . S
O11 C4 1.240 . S
O12 In0 2.326 . S
O12 C4 1.252 . S
In13 O14 2.294 . S
In13 O15 2.326 . S
In13 O19 2.266 . S
In13 O20 2.326 . S
In13 O21 2.266 . S
In13 O22 2.326 . S
In13 O24 2.294 . S
In13 O25 2.326 . S
O14 In13 2.294 . S
O14 C23 1.240 . S
O15 In13 2.326 . S
O15 C23 1.252 . S
C16 O19 1.252 . S
C16 O20 1.260 . S
C17 O24 1.240 . S
C17 O25 1.252 . S
C18 O21 1.252 . S
C18 O22 1.260 . S
O19 In13 2.266 . S
O19 C16 1.252 . S
O20 In13 2.326 . S
O20 C16 1.260 . S
O21 In13 2.266 . S
O21 C18 1.252 . S
O22 In13 2.326 . S
O22 C18 1.260 . S
C23 O14 1.240 . S
C23 O15 1.252 . S
O24 In13 2.294 . S
O24 C17 1.240 . S
O25 In13 2.326 . S
O25 C17 1.252 . S
In26 O27 2.294 . S
In26 O28 2.326 . S
In26 O32 2.266 . S
In26 O33 2.326 . S
In26 O34 2.266 . S
In26 O35 2.326 . S
In26 O37 2.294 . S
In26 O38 2.326 . S
O27 In26 2.294 . S
O27 C36 1.240 . S
O28 In26 2.326 . S
O28 C36 1.252 . S
C29 O32 1.252 . S
C29 O33 1.260 . S
C30 O37 1.240 . S
C30 O38 1.252 . S
C31 O34 1.252 . S
C31 O35 1.260 . S
O32 In26 2.266 . S
O32 C29 1.252 . S
O33 In26 2.326 . S
O33 C29 1.260 . S
O34 In26 2.266 . S
O34 C31 1.252 . S
O35 In26 2.326 . S
O35 C31 1.260 . S
C36 O27 1.240 . S
C36 O28 1.252 . S
O37 In26 2.294 . S
O37 C30 1.240 . S
O38 In26 2.326 . S
O38 C30 1.252 . S
In39 O40 2.294 . S
In39 O41 2.326 . S
In39 O45 2.266 . S
In39 O46 2.326 . S
In39 O47 2.266 . S
In39 O48 2.326 . S
In39 O50 2.294 . S
In39 O51 2.326 . S
O40 In39 2.294 . S
O40 C49 1.240 . S
O41 In39 2.326 . S
O41 C49 1.252 . S
C42 O45 1.252 . S
C42 O46 1.260 . S
C43 O50 1.240 . S
C43 O51 1.252 . S
C44 O47 1.252 . S
C44 O48 1.260 . S
O45 In39 2.266 . S
O45 C42 1.252 . S
O46 In39 2.326 . S
O46 C42 1.260 . S
O47 In39 2.266 . S
O47 C44 1.252 . S
O48 In39 2.326 . S
O48 C44 1.260 . S
C49 O40 1.240 . S
C49 O41 1.252 . S
O50 In39 2.294 . S
O50 C43 1.240 . S
O51 In39 2.326 . S
O51 C43 1.252 . S
In52 O53 2.294 . S
In52 O54 2.326 . S
In52 O58 2.266 . S
In52 O59 2.326 . S
In52 O60 2.266 . S
In52 O61 2.326 . S
In52 O63 2.294 . S
In52 O64 2.326 . S
O53 In52 2.294 . S
O53 C62 1.240 . S
O54 In52 2.326 . S
O54 C62 1.252 . S
C55 O58 1.252 . S
C55 O59 1.260 . S
C56 O63 1.240 . S
C56 O64 1.252 . S
C57 O60 1.252 . S
C57 O61 1.260 . S
O58 In52 2.266 . S
O58 C55 1.252 . S
O59 In52 2.326 . S
O59 C55 1.260 . S
O60 In52 2.266 . S
O60 C57 1.252 . S
O61 In52 2.326 . S
O61 C57 1.260 . S
C62 O53 1.240 . S
C62 O54 1.252 . S
O63 In52 2.294 . S
O63 C56 1.240 . S
O64 In52 2.326 . S
O64 C56 1.252 . S
In65 O66 2.294 . S
In65 O67 2.326 . S
In65 O71 2.266 . S
In65 O72 2.326 . S
In65 O73 2.266 . S
In65 O74 2.326 . S
In65 O76 2.294 . S
In65 O77 2.326 . S
O66 In65 2.294 . S
O66 C75 1.240 . S
O67 In65 2.326 . S
O67 C75 1.252 . S
C68 O71 1.252 . S
C68 O72 1.260 . S
C69 O76 1.240 . S
C69 O77 1.252 . S
C70 O73 1.252 . S
C70 O74 1.260 . S
O71 In65 2.266 . S
O71 C68 1.252 . S
O72 In65 2.326 . S
O72 C68 1.260 . S
O73 In65 2.266 . S
O73 C70 1.252 . S
O74 In65 2.326 . S
O74 C70 1.260 . S
C75 O66 1.240 . S
C75 O67 1.252 . S
O76 In65 2.294 . S
O76 C69 1.240 . S
O77 In65 2.326 . S
O77 C69 1.252 . S
In78 O79 2.294 . S
In78 O80 2.326 . S
In78 O84 2.266 . S
In78 O85 2.326 . S
In78 O86 2.266 . S
In78 O87 2.326 . S
In78 O89 2.294 . S
In78 O90 2.326 . S
O79 In78 2.294 . S
O79 C88 1.240 . S
O80 In78 2.326 . S
O80 C88 1.252 . S
C81 O84 1.252 . S
C81 O85 1.260 . S
C82 O89 1.240 . S
C82 O90 1.252 . S
C83 O86 1.252 . S
C83 O87 1.260 . S
O84 In78 2.266 . S
O84 C81 1.252 . S
O85 In78 2.326 . S
O85 C81 1.260 . S
O86 In78 2.266 . S
O86 C83 1.252 . S
O87 In78 2.326 . S
O87 C83 1.260 . S
C88 O79 1.240 . S
C88 O80 1.252 . S
O89 In78 2.294 . S
O89 C82 1.240 . S
O90 In78 2.326 . S
O90 C82 1.252 . S
In91 O92 2.294 . S
In91 O93 2.326 . S
In91 O97 2.266 . S
In91 O98 2.326 . S
In91 O99 2.266 1_554 S
In91 O100 2.326 . S
In91 O102 2.294 . S
In91 O103 2.326 . S
O92 In91 2.294 . S
O92 C101 1.240 . S
O93 In91 2.326 . S
O93 C101 1.252 . S
C94 O97 1.252 . S
C94 O98 1.260 . S
C95 O102 1.240 . S
C95 O103 1.252 . S
C96 O99 1.252 . S
C96 O100 1.260 1_556 S
O97 In91 2.266 . S
O97 C94 1.252 . S
O98 In91 2.326 . S
O98 C94 1.260 . S
O99 In91 2.266 1_556 S
O99 C96 1.252 . S
O100 In91 2.326 . S
O100 C96 1.260 1_554 S
C101 O92 1.240 . S
C101 O93 1.252 . S
O102 In91 2.294 . S
O102 C95 1.240 . S
O103 In91 2.326 . S
O103 C95 1.252 . S
In104 O105 2.294 . S
In104 O106 2.326 . S
In104 O110 2.266 . S
In104 O111 2.326 . S
In104 O112 2.266 . S
In104 O113 2.326 . S
In104 O115 2.294 . S
In104 O116 2.326 . S
O105 In104 2.294 . S
O105 C114 1.240 . S
O106 In104 2.326 . S
O106 C114 1.252 . S
C107 O110 1.252 . S
C107 O111 1.260 . S
C108 O115 1.240 . S
C108 O116 1.252 . S
C109 O112 1.252 . S
C109 O113 1.260 . S
O110 In104 2.266 . S
O110 C107 1.252 . S
O111 In104 2.326 . S
O111 C107 1.260 . S
O112 In104 2.266 . S
O112 C109 1.252 . S
O113 In104 2.326 . S
O113 C109 1.260 . S
C114 O105 1.240 . S
C114 O106 1.252 . S
O115 In104 2.294 . S
O115 C108 1.240 . S
O116 In104 2.326 . S
O116 C108 1.252 . S
In117 O118 2.294 . S
In117 O119 2.326 . S
In117 O123 2.266 . S
In117 O124 2.326 . S
In117 O125 2.266 . S
In117 O126 2.326 . S
In117 O128 2.294 . S
In117 O129 2.326 . S
O118 In117 2.294 . S
O118 C127 1.240 . S
O119 In117 2.326 . S
O119 C127 1.252 . S
C120 O123 1.252 . S
C120 O124 1.260 . S
C121 O128 1.240 . S
C121 O129 1.252 . S
C122 O125 1.252 . S
C122 O126 1.260 . S
O123 In117 2.266 . S
O123 C120 1.252 . S
O124 In117 2.326 . S
O124 C120 1.260 . S
O125 In117 2.266 . S
O125 C122 1.252 . S
O126 In117 2.326 . S
O126 C122 1.260 . S
C127 O118 1.240 . S
C127 O119 1.252 . S
O128 In117 2.294 . S
O128 C121 1.240 . S
O129 In117 2.326 . S
O129 C121 1.252 . S
In130 O131 2.294 . S
In130 O132 2.326 . S
In130 O136 2.266 . S
In130 O137 2.326 . S
In130 O138 2.266 . S
In130 O139 2.326 . S
In130 O141 2.294 . S
In130 O142 2.326 . S
O131 In130 2.294 . S
O131 C140 1.240 . S
O132 In130 2.326 . S
O132 C140 1.252 . S
C133 O136 1.252 . S
C133 O137 1.260 . S
C134 O141 1.240 . S
C134 O142 1.252 . S
C135 O138 1.252 . S
C135 O139 1.260 . S
O136 In130 2.266 . S
O136 C133 1.252 . S
O137 In130 2.326 . S
O137 C133 1.260 . S
O138 In130 2.266 . S
O138 C135 1.252 . S
O139 In130 2.326 . S
O139 C135 1.260 . S
C140 O131 1.240 . S
C140 O132 1.252 . S
O141 In130 2.294 . S
O141 C134 1.240 . S
O142 In130 2.326 . S
O142 C134 1.252 . S
In143 O144 2.294 . S
In143 O145 2.326 . S
In143 O149 2.266 . S
In143 O150 2.326 . S
In143 O151 2.266 . S
In143 O152 2.326 . S
In143 O154 2.294 . S
In143 O155 2.326 . S
O144 In143 2.294 . S
O144 C153 1.240 . S
O145 In143 2.326 . S
O145 C153 1.252 . S
C146 O149 1.252 . S
C146 O150 1.260 . S
C147 O154 1.240 . S
C147 O155 1.252 . S
C148 O151 1.252 . S
C148 O152 1.260 . S
O149 In143 2.266 . S
O149 C146 1.252 . S
O150 In143 2.326 . S
O150 C146 1.260 . S
O151 In143 2.266 . S
O151 C148 1.252 . S
O152 In143 2.326 . S
O152 C148 1.260 . S
C153 O144 1.240 . S
C153 O145 1.252 . S
O154 In143 2.294 . S
O154 C147 1.240 . S
O155 In143 2.326 . S
O155 C147 1.252 . S
C156 C157 1.349 . S
C156 C158 1.327 . S
C156 H181 0.950 . S
C157 C156 1.349 . S
C157 C173 1.349 . S
C158 C156 1.327 . S
C158 C177 1.429 . S
C158 H182 0.950 . S
C159 C176 1.574 . S
C159 C178 1.368 . S
C159 H183 0.949 . S
H160 C164 0.949 . S
C161 C162 1.349 . S
C161 C163 1.327 . S
C161 H184 0.950 . S
C162 C161 1.349 . S
C162 C174 1.349 . S
C163 C161 1.327 . S
C163 C179 1.429 . S
C163 H185 0.950 . S
C164 H160 0.949 . S
C164 C172 1.574 . S
C164 C180 1.368 . S
H165 C173 0.950 . S
H166 C171 0.950 . S
H167 C172 0.949 . S
H168 C174 0.950 . S
H169 C175 0.950 . S
H170 C176 0.949 . S
C171 H166 0.950 . S
C171 C173 1.327 . S
C171 C177 1.429 . S
C172 C164 1.574 . S
C172 H167 0.949 . S
C172 C178 1.368 . S
C173 C157 1.349 . S
C173 H165 0.950 . S
C173 C171 1.327 . S
C174 C162 1.349 . S
C174 H168 0.950 . S
C174 C175 1.327 . S
C175 H169 0.950 . S
C175 C174 1.327 . S
C175 C179 1.429 . S
C176 C159 1.574 . S
C176 H170 0.949 . S
C176 C180 1.368 . S
C177 C158 1.429 . S
C177 C171 1.429 . S
C177 C178 1.523 . S
C178 C159 1.368 . S
C178 C172 1.368 . S
C178 C177 1.523 . S
C179 C163 1.429 . S
C179 C175 1.429 . S
C179 C180 1.523 . S
C180 C164 1.368 . S
C180 C176 1.368 . S
C180 C179 1.523 . S
H181 C156 0.950 . S
H182 C158 0.950 . S
H183 C159 0.949 . S
H184 C161 0.950 . S
H185 C163 0.950 . S
C186 C187 1.349 . S
C186 C188 1.327 . S
C186 H211 0.950 . S
C187 C186 1.349 . S
C187 C203 1.349 . S
C188 C186 1.327 . S
C188 C207 1.429 . S
C188 H212 0.950 . S
C189 C206 1.574 . S
C189 C208 1.368 . S
C189 H213 0.949 . S
H190 C194 0.949 . S
C191 C192 1.349 . S
C191 C193 1.327 . S
C191 H214 0.950 . S
C192 C191 1.349 . S
C192 C204 1.349 . S
C193 C191 1.327 . S
C193 C209 1.429 . S
C193 H215 0.950 . S
C194 H190 0.949 . S
C194 C202 1.574 . S
C194 C210 1.368 . S
H195 C203 0.950 . S
H196 C201 0.950 . S
H197 C202 0.949 . S
H198 C204 0.950 . S
H199 C205 0.950 . S
H200 C206 0.949 . S
C201 H196 0.950 . S
C201 C203 1.327 . S
C201 C207 1.429 . S
C202 C194 1.574 . S
C202 H197 0.949 . S
C202 C208 1.368 . S
C203 C187 1.349 . S
C203 H195 0.950 . S
C203 C201 1.327 . S
C204 C192 1.349 . S
C204 H198 0.950 . S
C204 C205 1.327 . S
C205 H199 0.950 . S
C205 C204 1.327 . S
C205 C209 1.429 . S
C206 C189 1.574 . S
C206 H200 0.949 . S
C206 C210 1.368 . S
C207 C188 1.429 . S
C207 C201 1.429 . S
C207 C208 1.523 . S
C208 C189 1.368 . S
C208 C202 1.368 . S
C208 C207 1.523 . S
C209 C193 1.429 . S
C209 C205 1.429 . S
C209 C210 1.523 . S
C210 C194 1.368 . S
C210 C206 1.368 . S
C210 C209 1.523 . S
H211 C186 0.950 . S
H212 C188 0.950 . S
H213 C189 0.949 . S
H214 C191 0.950 . S
H215 C193 0.950 . S
C216 C217 1.349 . S
C216 C218 1.327 . S
C216 H241 0.950 . S
C217 C216 1.349 . S
C217 C233 1.349 . S
C218 C216 1.327 . S
C218 C237 1.429 . S
C218 H242 0.950 . S
C219 C236 1.574 . S
C219 C238 1.368 . S
C219 H243 0.949 . S
H220 C224 0.949 . S
C221 C222 1.349 . S
C221 C223 1.327 . S
C221 H244 0.950 . S
C222 C221 1.349 . S
C222 C234 1.349 . S
C223 C221 1.327 . S
C223 C239 1.429 . S
C223 H245 0.950 . S
C224 H220 0.949 . S
C224 C232 1.574 . S
C224 C240 1.368 . S
H225 C233 0.950 . S
H226 C231 0.950 . S
H227 C232 0.949 . S
H228 C234 0.950 . S
H229 C235 0.950 . S
H230 C236 0.949 . S
C231 H226 0.950 . S
C231 C233 1.327 . S
C231 C237 1.429 . S
C232 C224 1.574 . S
C232 H227 0.949 . S
C232 C238 1.368 . S
C233 C217 1.349 . S
C233 H225 0.950 . S
C233 C231 1.327 . S
C234 C222 1.349 . S
C234 H228 0.950 . S
C234 C235 1.327 . S
C235 H229 0.950 . S
C235 C234 1.327 . S
C235 C239 1.429 . S
C236 C219 1.574 . S
C236 H230 0.949 . S
C236 C240 1.368 . S
C237 C218 1.429 . S
C237 C231 1.429 . S
C237 C238 1.523 . S
C238 C219 1.368 . S
C238 C232 1.368 . S
C238 C237 1.523 . S
C239 C223 1.429 . S
C239 C235 1.429 . S
C239 C240 1.523 . S
C240 C224 1.368 . S
C240 C236 1.368 . S
C240 C239 1.523 . S
H241 C216 0.950 . S
H242 C218 0.950 . S
H243 C219 0.949 . S
H244 C221 0.950 . S
H245 C223 0.950 . S
C246 C247 1.349 . S
C246 C248 1.327 . S
C246 H271 0.950 . S
C247 C246 1.349 . S
C247 C263 1.349 . S
C248 C246 1.327 . S
C248 C267 1.429 . S
C248 H272 0.950 . S
C249 C266 1.574 . S
C249 C268 1.368 . S
C249 H273 0.949 . S
H250 C254 0.949 . S
C251 C252 1.349 . S
C251 C253 1.327 . S
C251 H274 0.950 . S
C252 C251 1.349 . S
C252 C264 1.349 . S
C253 C251 1.327 . S
C253 C269 1.429 . S
C253 H275 0.950 . S
C254 H250 0.949 . S
C254 C262 1.574 . S
C254 C270 1.368 . S
H255 C263 0.950 . S
H256 C261 0.950 . S
H257 C262 0.949 . S
H258 C264 0.950 . S
H259 C265 0.950 . S
H260 C266 0.949 . S
C261 H256 0.950 . S
C261 C263 1.327 . S
C261 C267 1.429 . S
C262 C254 1.574 . S
C262 H257 0.949 . S
C262 C268 1.368 . S
C263 C247 1.349 . S
C263 H255 0.950 . S
C263 C261 1.327 . S
C264 C252 1.349 . S
C264 H258 0.950 . S
C264 C265 1.327 . S
C265 H259 0.950 . S
C265 C264 1.327 . S
C265 C269 1.429 . S
C266 C249 1.574 . S
C266 H260 0.949 . S
C266 C270 1.368 . S
C267 C248 1.429 . S
C267 C261 1.429 . S
C267 C268 1.523 . S
C268 C249 1.368 . S
C268 C262 1.368 . S
C268 C267 1.523 . S
C269 C253 1.429 . S
C269 C265 1.429 . S
C269 C270 1.523 . S
C270 C254 1.368 . S
C270 C266 1.368 . S
C270 C269 1.523 . S
H271 C246 0.950 . S
H272 C248 0.950 . S
H273 C249 0.949 . S
H274 C251 0.950 . S
H275 C253 0.950 . S
C276 C277 1.349 . S
C276 C278 1.327 . S
C276 H301 0.950 . S
C277 C276 1.349 . S
C277 C293 1.349 . S
C278 C276 1.327 . S
C278 C297 1.429 . S
C278 H302 0.950 . S
C279 C296 1.574 . S
C279 C298 1.368 . S
C279 H303 0.949 . S
H280 C284 0.949 . S
C281 C282 1.349 . S
C281 C283 1.327 . S
C281 H304 0.950 . S
C282 C281 1.349 . S
C282 C294 1.349 . S
C283 C281 1.327 . S
C283 C299 1.429 . S
C283 H305 0.950 . S
C284 H280 0.949 . S
C284 C292 1.574 1_554 S
C284 C300 1.368 . S
H285 C293 0.950 . S
H286 C291 0.950 . S
H287 C292 0.949 . S
H288 C294 0.950 . S
H289 C295 0.950 . S
H290 C296 0.949 . S
C291 H286 0.950 . S
C291 C293 1.327 . S
C291 C297 1.429 . S
C292 C284 1.574 1_556 S
C292 H287 0.949 . S
C292 C298 1.368 . S
C293 C277 1.349 . S
C293 H285 0.950 . S
C293 C291 1.327 . S
C294 C282 1.349 . S
C294 H288 0.950 . S
C294 C295 1.327 . S
C295 H289 0.950 . S
C295 C294 1.327 . S
C295 C299 1.429 . S
C296 C279 1.574 . S
C296 H290 0.949 . S
C296 C300 1.368 1_556 S
C297 C278 1.429 . S
C297 C291 1.429 . S
C297 C298 1.523 . S
C298 C279 1.368 . S
C298 C292 1.368 . S
C298 C297 1.523 . S
C299 C283 1.429 . S
C299 C295 1.429 . S
C299 C300 1.523 . S
C300 C284 1.368 . S
C300 C296 1.368 1_554 S
C300 C299 1.523 . S
H301 C276 0.950 . S
H302 C278 0.950 . S
H303 C279 0.949 . S
H304 C281 0.950 . S
H305 C283 0.950 . S
C306 C307 1.349 . S
C306 C308 1.327 . S
C306 H331 0.950 . S
C307 C306 1.349 . S
C307 C323 1.349 . S
C308 C306 1.327 . S
C308 C327 1.429 . S
C308 H332 0.950 . S
C309 C326 1.574 . S
C309 C328 1.368 . S
C309 H333 0.949 . S
H310 C314 0.949 . S
C311 C312 1.349 . S
C311 C313 1.327 . S
C311 H334 0.950 . S
C312 C311 1.349 . S
C312 C324 1.349 1_554 S
C313 C311 1.327 . S
C313 C329 1.429 . S
C313 H335 0.950 . S
C314 H310 0.949 . S
C314 C322 1.574 . S
C314 C330 1.368 . S
H315 C323 0.950 . S
H316 C321 0.950 . S
H317 C322 0.949 . S
H318 C324 0.950 . S
H319 C325 0.950 . S
H320 C326 0.949 . S
C321 H316 0.950 . S
C321 C323 1.327 . S
C321 C327 1.429 . S
C322 C314 1.574 . S
C322 H317 0.949 . S
C322 C328 1.368 . S
C323 C307 1.349 . S
C323 H315 0.950 . S
C323 C321 1.327 . S
C324 C312 1.349 1_556 S
C324 H318 0.950 . S
C324 C325 1.327 1_556 S
C325 H319 0.950 . S
C325 C324 1.327 1_554 S
C325 C329 1.429 . S
C326 C309 1.574 . S
C326 H320 0.949 . S
C326 C330 1.368 . S
C327 C308 1.429 . S
C327 C321 1.429 . S
C327 C328 1.523 . S
C328 C309 1.368 . S
C328 C322 1.368 . S
C328 C327 1.523 . S
C329 C313 1.429 . S
C329 C325 1.429 . S
C329 C330 1.523 . S
C330 C314 1.368 . S
C330 C326 1.368 . S
C330 C329 1.523 . S
H331 C306 0.950 . S
H332 C308 0.950 . S
H333 C309 0.949 . S
H334 C311 0.950 . S
H335 C313 0.950 . S
C336 C337 1.349 . S
C336 C338 1.327 . S
C336 H361 0.950 . S
C337 C336 1.349 . S
C337 C353 1.349 . S
C338 C336 1.327 . S
C338 C357 1.429 . S
C338 H362 0.950 . S
C339 C356 1.574 . S
C339 C358 1.368 . S
C339 H363 0.949 . S
H340 C344 0.949 . S
C341 C342 1.349 . S
C341 C343 1.327 . S
C341 H364 0.950 . S
C342 C341 1.349 . S
C342 C354 1.349 . S
C343 C341 1.327 . S
C343 C359 1.429 . S
C343 H365 0.950 . S
C344 H340 0.949 . S
C344 C352 1.574 . S
C344 C360 1.368 . S
H345 C353 0.950 . S
H346 C351 0.950 . S
H347 C352 0.949 . S
H348 C354 0.950 . S
H349 C355 0.950 . S
H350 C356 0.949 . S
C351 H346 0.950 . S
C351 C353 1.327 . S
C351 C357 1.429 . S
C352 C344 1.574 . S
C352 H347 0.949 . S
C352 C358 1.368 . S
C353 C337 1.349 . S
C353 H345 0.950 . S
C353 C351 1.327 . S
C354 C342 1.349 . S
C354 H348 0.950 . S
C354 C355 1.327 . S
C355 H349 0.950 . S
C355 C354 1.327 . S
C355 C359 1.429 . S
C356 C339 1.574 . S
C356 H350 0.949 . S
C356 C360 1.368 . S
C357 C338 1.429 . S
C357 C351 1.429 . S
C357 C358 1.523 . S
C358 C339 1.368 . S
C358 C352 1.368 . S
C358 C357 1.523 . S
C359 C343 1.429 . S
C359 C355 1.429 . S
C359 C360 1.523 . S
C360 C344 1.368 . S
C360 C356 1.368 . S
C360 C359 1.523 . S
H361 C336 0.950 . S
H362 C338 0.950 . S
H363 C339 0.949 . S
H364 C341 0.950 . S
H365 C343 0.950 . S
C366 C367 1.349 . S
C366 C368 1.327 . S
C366 H391 0.950 . S
C367 C366 1.349 . S
C367 C383 1.349 . S
C368 C366 1.327 . S
C368 C387 1.429 . S
C368 H392 0.950 . S
C369 C386 1.574 . S
C369 C388 1.368 . S
C369 H393 0.949 . S
H370 C374 0.949 . S
C371 C372 1.349 . S
C371 C373 1.327 . S
C371 H394 0.950 . S
C372 C371 1.349 . S
C372 C384 1.349 . S
C373 C371 1.327 . S
C373 C389 1.429 . S
C373 H395 0.950 . S
C374 H370 0.949 . S
C374 C382 1.574 . S
C374 C390 1.368 . S
H375 C383 0.950 . S
H376 C381 0.950 . S
H377 C382 0.949 . S
H378 C384 0.950 . S
H379 C385 0.950 . S
H380 C386 0.949 . S
C381 H376 0.950 . S
C381 C383 1.327 . S
C381 C387 1.429 . S
C382 C374 1.574 . S
C382 H377 0.949 . S
C382 C388 1.368 . S
C383 C367 1.349 . S
C383 H375 0.950 . S
C383 C381 1.327 . S
C384 C372 1.349 . S
C384 H378 0.950 . S
C384 C385 1.327 . S
C385 H379 0.950 . S
C385 C384 1.327 . S
C385 C389 1.429 . S
C386 C369 1.574 . S
C386 H380 0.949 . S
C386 C390 1.368 . S
C387 C368 1.429 . S
C387 C381 1.429 . S
C387 C388 1.523 . S
C388 C369 1.368 . S
C388 C382 1.368 . S
C388 C387 1.523 . S
C389 C373 1.429 . S
C389 C385 1.429 . S
C389 C390 1.523 . S
C390 C374 1.368 . S
C390 C386 1.368 . S
C390 C389 1.523 . S
H391 C366 0.950 . S
H392 C368 0.950 . S
H393 C369 0.949 . S
H394 C371 0.950 . S
H395 C373 0.950 . S
C396 C397 1.349 . S
C396 C398 1.327 . S
C396 H421 0.950 . S
C397 C396 1.349 . S
C397 C413 1.349 . S
C398 C396 1.327 . S
C398 C417 1.429 . S
C398 H422 0.950 . S
C399 C416 1.574 . S
C399 C418 1.368 . S
C399 H423 0.949 . S
H400 C404 0.949 . S
C401 C402 1.349 . S
C401 C403 1.327 . S
C401 H424 0.950 . S
C402 C401 1.349 . S
C402 C414 1.349 . S
C403 C401 1.327 . S
C403 C419 1.429 . S
C403 H425 0.950 . S
C404 H400 0.949 . S
C404 C412 1.574 . S
C404 C420 1.368 . S
H405 C413 0.950 . S
H406 C411 0.950 . S
H407 C412 0.949 . S
H408 C414 0.950 . S
H409 C415 0.950 . S
H410 C416 0.949 . S
C411 H406 0.950 . S
C411 C413 1.327 . S
C411 C417 1.429 . S
C412 C404 1.574 . S
C412 H407 0.949 . S
C412 C418 1.368 . S
C413 C397 1.349 . S
C413 H405 0.950 . S
C413 C411 1.327 . S
C414 C402 1.349 . S
C414 H408 0.950 . S
C414 C415 1.327 . S
C415 H409 0.950 . S
C415 C414 1.327 . S
C415 C419 1.429 . S
C416 C399 1.574 . S
C416 H410 0.949 . S
C416 C420 1.368 . S
C417 C398 1.429 . S
C417 C411 1.429 . S
C417 C418 1.523 . S
C418 C399 1.368 . S
C418 C412 1.368 . S
C418 C417 1.523 . S
C419 C403 1.429 . S
C419 C415 1.429 . S
C419 C420 1.523 . S
C420 C404 1.368 . S
C420 C416 1.368 . S
C420 C419 1.523 . S
H421 C396 0.950 . S
H422 C398 0.950 . S
H423 C399 0.949 . S
H424 C401 0.950 . S
H425 C403 0.950 . S
C426 C427 1.349 . S
C426 C428 1.327 . S
C426 H451 0.950 . S
C427 C426 1.349 . S
C427 C443 1.349 . S
C428 C426 1.327 . S
C428 C447 1.429 . S
C428 H452 0.950 . S
C429 C446 1.574 . S
C429 C448 1.368 . S
C429 H453 0.949 . S
H430 C434 0.949 . S
C431 C432 1.349 . S
C431 C433 1.327 . S
C431 H454 0.950 . S
C432 C431 1.349 . S
C432 C444 1.349 . S
C433 C431 1.327 . S
C433 C449 1.429 . S
C433 H455 0.950 . S
C434 H430 0.949 . S
C434 C442 1.574 . S
C434 C450 1.368 . S
H435 C443 0.950 . S
H436 C441 0.950 . S
H437 C442 0.949 . S
H438 C444 0.950 . S
H439 C445 0.950 . S
H440 C446 0.949 . S
C441 H436 0.950 . S
C441 C443 1.327 . S
C441 C447 1.429 . S
C442 C434 1.574 . S
C442 H437 0.949 . S
C442 C448 1.368 . S
C443 C427 1.349 . S
C443 H435 0.950 . S
C443 C441 1.327 . S
C444 C432 1.349 . S
C444 H438 0.950 . S
C444 C445 1.327 . S
C445 H439 0.950 . S
C445 C444 1.327 . S
C445 C449 1.429 . S
C446 C429 1.574 . S
C446 H440 0.949 . S
C446 C450 1.368 . S
C447 C428 1.429 . S
C447 C441 1.429 . S
C447 C448 1.523 . S
C448 C429 1.368 . S
C448 C442 1.368 . S
C448 C447 1.523 . S
C449 C433 1.429 . S
C449 C445 1.429 . S
C449 C450 1.523 . S
C450 C434 1.368 . S
C450 C446 1.368 . S
C450 C449 1.523 . S
H451 C426 0.950 . S
H452 C428 0.950 . S
H453 C429 0.949 . S
H454 C431 0.950 . S
H455 C433 0.950 . S
C456 C457 1.349 . S
C456 C458 1.327 . S
C456 H481 0.950 . S
C457 C456 1.349 . S
C457 C473 1.349 . S
C458 C456 1.327 . S
C458 C477 1.429 . S
C458 H482 0.950 . S
C459 C476 1.574 . S
C459 C478 1.368 . S
C459 H483 0.949 . S
H460 C464 0.949 . S
C461 C462 1.349 . S
C461 C463 1.327 . S
C461 H484 0.950 . S
C462 C461 1.349 . S
C462 C474 1.349 . S
C463 C461 1.327 . S
C463 C479 1.429 . S
C463 H485 0.950 . S
C464 H460 0.949 . S
C464 C472 1.574 . S
C464 C480 1.368 . S
H465 C473 0.950 . S
H466 C471 0.950 . S
H467 C472 0.949 . S
H468 C474 0.950 . S
H469 C475 0.950 . S
H470 C476 0.949 . S
C471 H466 0.950 . S
C471 C473 1.327 . S
C471 C477 1.429 . S
C472 C464 1.574 . S
C472 H467 0.949 . S
C472 C478 1.368 . S
C473 C457 1.349 . S
C473 H465 0.950 . S
C473 C471 1.327 . S
C474 C462 1.349 . S
C474 H468 0.950 . S
C474 C475 1.327 . S
C475 H469 0.950 . S
C475 C474 1.327 . S
C475 C479 1.429 . S
C476 C459 1.574 . S
C476 H470 0.949 . S
C476 C480 1.368 . S
C477 C458 1.429 . S
C477 C471 1.429 . S
C477 C478 1.523 . S
C478 C459 1.368 . S
C478 C472 1.368 . S
C478 C477 1.523 . S
C479 C463 1.429 . S
C479 C475 1.429 . S
C479 C480 1.523 . S
C480 C464 1.368 . S
C480 C476 1.368 . S
C480 C479 1.523 . S
H481 C456 0.950 . S
H482 C458 0.950 . S
H483 C459 0.949 . S
H484 C461 0.950 . S
H485 C463 0.950 . S
C486 C487 1.349 . S
C486 C488 1.327 . S
C486 H511 0.950 . S
C487 C486 1.349 . S
C487 C503 1.349 . S
C488 C486 1.327 . S
C488 C507 1.429 . S
C488 H512 0.950 . S
C489 C506 1.574 . S
C489 C508 1.368 1_554 S
C489 H513 0.949 . S
H490 C494 0.949 . S
C491 C492 1.349 . S
C491 C493 1.327 . S
C491 H514 0.950 . S
C492 C491 1.349 . S
C492 C504 1.349 1_554 S
C493 C491 1.327 . S
C493 C509 1.429 1_554 S
C493 H515 0.950 . S
C494 H490 0.949 . S
C494 C502 1.574 . S
C494 C510 1.368 . S
H495 C503 0.950 . S
H496 C501 0.950 1_554 S
H497 C502 0.949 . S
H498 C504 0.950 . S
H499 C505 0.950 . S
H500 C506 0.949 . S
C501 H496 0.950 1_556 S
C501 C503 1.327 . S
C501 C507 1.429 . S
C502 C494 1.574 . S
C502 H497 0.949 . S
C502 C508 1.368 . S
C503 C487 1.349 . S
C503 H495 0.950 . S
C503 C501 1.327 . S
C504 C492 1.349 1_556 S
C504 H498 0.950 . S
C504 C505 1.327 . S
C505 H499 0.950 . S
C505 C504 1.327 . S
C505 C509 1.429 . S
C506 C489 1.574 . S
C506 H500 0.949 . S
C506 C510 1.368 1_554 S
C507 C488 1.429 . S
C507 C501 1.429 . S
C507 C508 1.523 . S
C508 C489 1.368 1_556 S
C508 C502 1.368 . S
C508 C507 1.523 . S
C509 C493 1.429 1_556 S
C509 C505 1.429 . S
C509 C510 1.523 . S
C510 C494 1.368 . S
C510 C506 1.368 1_556 S
C510 C509 1.523 . S
H511 C486 0.950 . S
H512 C488 0.950 . S
H513 C489 0.949 . S
H514 C491 0.950 . S
H515 C493 0.950 . S
C516 C517 1.349 . S
C516 C518 1.327 . S
C516 H541 0.950 . S
C517 C516 1.349 . S
C517 C533 1.349 . S
C518 C516 1.327 . S
C518 C537 1.429 . S
C518 H542 0.950 . S
C519 C536 1.574 . S
C519 C538 1.368 . S
C519 H543 0.949 . S
H520 C524 0.949 . S
C521 C522 1.349 . S
C521 C523 1.327 . S
C521 H544 0.950 . S
C522 C521 1.349 . S
C522 C534 1.349 . S
C523 C521 1.327 . S
C523 C539 1.429 . S
C523 H545 0.950 . S
C524 H520 0.949 . S
C524 C532 1.574 . S
C524 C540 1.368 . S
H525 C533 0.950 . S
H526 C531 0.950 . S
H527 C532 0.949 . S
H528 C534 0.950 . S
H529 C535 0.950 . S
H530 C536 0.949 . S
C531 H526 0.950 . S
C531 C533 1.327 . S
C531 C537 1.429 . S
C532 C524 1.574 . S
C532 H527 0.949 . S
C532 C538 1.368 . S
C533 C517 1.349 . S
C533 H525 0.950 . S
C533 C531 1.327 . S
C534 C522 1.349 . S
C534 H528 0.950 . S
C534 C535 1.327 . S
C535 H529 0.950 . S
C535 C534 1.327 . S
C535 C539 1.429 . S
C536 C519 1.574 . S
C536 H530 0.949 . S
C536 C540 1.368 . S
C537 C518 1.429 . S
C537 C531 1.429 . S
C537 C538 1.523 . S
C538 C519 1.368 . S
C538 C532 1.368 . S
C538 C537 1.523 . S
C539 C523 1.429 . S
C539 C535 1.429 . S
C539 C540 1.523 . S
C540 C524 1.368 . S
C540 C536 1.368 . S
C540 C539 1.523 . S
H541 C516 0.950 . S
H542 C518 0.950 . S
H543 C519 0.949 . S
H544 C521 0.950 . S
H545 C523 0.950 . S
C546 C547 1.349 . S
C546 C548 1.327 . S
C546 H571 0.950 . S
C547 C546 1.349 . S
C547 C563 1.349 . S
C548 C546 1.327 . S
C548 C567 1.429 . S
C548 H572 0.940 1_554 S
C549 C566 1.574 1_554 S
C549 C568 1.368 . S
C549 H573 0.949 . S
H550 C554 0.949 . S
C551 C552 1.349 . S
C551 C553 1.327 . S
C551 H574 0.950 . S
C552 C551 1.349 . S
C552 C564 1.349 . S
C553 C551 1.327 . S
C553 C569 1.429 . S
C553 H575 0.950 . S
C554 H550 0.949 . S
C554 C562 1.574 . S
C554 C570 1.368 . S
H555 C563 0.950 . S
H556 C561 0.950 . S
H557 C562 0.949 . S
H558 C564 0.950 . S
H559 C565 0.950 . S
H560 C566 0.949 . S
C561 H556 0.950 . S
C561 C563 1.327 . S
C561 C567 1.429 . S
C562 C554 1.574 . S
C562 H557 0.949 . S
C562 C568 1.368 1_556 S
C563 C547 1.349 . S
C563 H555 0.950 . S
C563 C561 1.327 . S
C564 C552 1.349 . S
C564 H558 0.950 . S
C564 C565 1.327 . S
C565 H559 0.950 . S
C565 C564 1.327 . S
C565 C569 1.429 . S
C566 C549 1.574 1_556 S
C566 H560 0.949 . S
C566 C570 1.368 . S
C567 C548 1.429 . S
C567 C561 1.429 . S
C567 C568 1.523 . S
C568 C549 1.368 . S
C568 C562 1.368 1_554 S
C568 C567 1.523 . S
C569 C553 1.429 . S
C569 C565 1.429 . S
C569 C570 1.523 . S
C570 C554 1.368 . S
C570 C566 1.368 . S
C570 C569 1.523 . S
H571 C546 0.950 . S
H572 C548 0.940 1_556 S
H573 C549 0.949 . S
H574 C551 0.950 . S
H575 C553 0.950 . S
C576 C577 1.349 . S
C576 C578 1.327 . S
C576 H601 0.950 . S
C577 C576 1.349 . S
C577 C593 1.349 . S
C578 C576 1.327 . S
C578 C597 1.429 . S
C578 H602 0.950 . S
C579 C596 1.574 . S
C579 C598 1.368 . S
C579 H603 0.949 . S
H580 C584 0.949 . S
C581 C582 1.349 1_554 S
C581 C583 1.327 . S
C581 H604 0.950 . S
C582 C581 1.349 1_556 S
C582 C594 1.349 1_556 S
C583 C581 1.327 . S
C583 C599 1.429 . S
C583 H605 0.950 . S
C584 H580 0.949 . S
C584 C592 1.574 . S
C584 C600 1.368 . S
H585 C593 0.950 . S
H586 C591 0.950 . S
H587 C592 0.949 . S
H588 C594 0.950 1_556 S
H589 C595 0.950 . S
H590 C596 0.949 . S
C591 H586 0.950 . S
C591 C593 1.327 . S
C591 C597 1.429 . S
C592 C584 1.574 . S
C592 H587 0.949 . S
C592 C598 1.368 . S
C593 C577 1.349 . S
C593 H585 0.950 . S
C593 C591 1.327 . S
C594 C582 1.349 1_554 S
C594 H588 0.950 1_554 S
C594 C595 1.327 . S
C595 H589 0.950 . S
C595 C594 1.327 . S
C595 C599 1.429 . S
C596 C579 1.574 . S
C596 H590 0.949 . S
C596 C600 1.368 . S
C597 C578 1.429 . S
C597 C591 1.429 . S
C597 C598 1.523 . S
C598 C579 1.368 . S
C598 C592 1.368 . S
C598 C597 1.523 . S
C599 C583 1.429 . S
C599 C595 1.429 . S
C599 C600 1.523 . S
C600 C584 1.368 . S
C600 C596 1.368 . S
C600 C599 1.523 . S
H601 C576 0.950 . S
H602 C578 0.950 . S
H603 C579 0.949 . S
H604 C581 0.950 . S
H605 C583 0.950 . S
C606 C607 1.349 . S
C606 C608 1.327 . S
C606 H631 0.950 . S
C607 C606 1.349 . S
C607 C623 1.349 . S
C608 C606 1.327 . S
C608 C627 1.429 . S
C608 H632 0.950 . S
C609 C626 1.574 . S
C609 C628 1.368 . S
C609 H633 0.949 . S
H610 C614 0.949 . S
C611 C612 1.349 . S
C611 C613 1.327 . S
C611 H634 0.950 . S
C612 C611 1.349 . S
C612 C624 1.349 . S
C613 C611 1.327 . S
C613 C629 1.429 . S
C613 H635 0.950 . S
C614 H610 0.949 . S
C614 C622 1.574 . S
C614 C630 1.368 . S
H615 C623 0.950 . S
H616 C621 0.950 . S
H617 C622 0.949 . S
H618 C624 0.950 . S
H619 C625 0.950 . S
H620 C626 0.949 . S
C621 H616 0.950 . S
C621 C623 1.327 . S
C621 C627 1.429 . S
C622 C614 1.574 . S
C622 H617 0.949 . S
C622 C628 1.368 . S
C623 C607 1.349 . S
C623 H615 0.950 . S
C623 C621 1.327 . S
C624 C612 1.349 . S
C624 H618 0.950 . S
C624 C625 1.327 . S
C625 H619 0.950 . S
C625 C624 1.327 . S
C625 C629 1.429 . S
C626 C609 1.574 . S
C626 H620 0.949 . S
C626 C630 1.368 . S
C627 C608 1.429 . S
C627 C621 1.429 . S
C627 C628 1.523 . S
C628 C609 1.368 . S
C628 C622 1.368 . S
C628 C627 1.523 . S
C629 C613 1.429 . S
C629 C625 1.429 . S
C629 C630 1.523 . S
C630 C614 1.368 . S
C630 C626 1.368 . S
C630 C629 1.523 . S
H631 C606 0.950 . S
H632 C608 0.950 . S
H633 C609 0.949 . S
H634 C611 0.950 . S
H635 C613 0.950 . S
C636 C637 1.349 . S
C636 C638 1.327 . S
C636 H661 0.950 . S
C637 C636 1.349 . S
C637 C653 1.349 . S
C638 C636 1.327 . S
C638 C657 1.429 . S
C638 H662 0.950 . S
C639 C656 1.574 . S
C639 C658 1.368 . S
C639 H663 0.949 . S
H640 C644 0.949 . S
C641 C642 1.349 . S
C641 C643 1.327 . S
C641 H664 0.950 . S
C642 C641 1.349 . S
C642 C654 1.349 . S
C643 C641 1.327 . S
C643 C659 1.429 . S
C643 H665 0.950 . S
C644 H640 0.949 . S
C644 C652 1.574 . S
C644 C660 1.368 . S
H645 C653 0.950 . S
H646 C651 0.950 . S
H647 C652 0.949 . S
H648 C654 0.950 . S
H649 C655 0.950 . S
H650 C656 0.949 . S
C651 H646 0.950 . S
C651 C653 1.327 . S
C651 C657 1.429 . S
C652 C644 1.574 . S
C652 H647 0.949 . S
C652 C658 1.368 . S
C653 C637 1.349 . S
C653 H645 0.950 . S
C653 C651 1.327 . S
C654 C642 1.349 . S
C654 H648 0.950 . S
C654 C655 1.327 . S
C655 H649 0.950 . S
C655 C654 1.327 . S
C655 C659 1.429 . S
C656 C639 1.574 . S
C656 H650 0.949 . S
C656 C660 1.368 . S
C657 C638 1.429 . S
C657 C651 1.429 . S
C657 C658 1.523 . S
C658 C639 1.368 . S
C658 C652 1.368 . S
C658 C657 1.523 . S
C659 C643 1.429 . S
C659 C655 1.429 . S
C659 C660 1.523 . S
C660 C644 1.368 . S
C660 C656 1.368 . S
C660 C659 1.523 . S
H661 C636 0.950 . S
H662 C638 0.950 . S
H663 C639 0.949 . S
H664 C641 0.950 . S
H665 C643 0.950 . S
C666 C667 1.349 . S
C666 C668 1.327 . S
C666 H691 0.950 . S
C667 C666 1.349 . S
C667 C683 1.349 . S
C668 C666 1.327 . S
C668 C687 1.429 . S
C668 H692 0.950 . S
C669 C686 1.574 . S
C669 C688 1.368 . S
C669 H693 0.949 . S
H670 C674 0.949 . S
C671 C672 1.349 . S
C671 C673 1.327 . S
C671 H694 0.950 . S
C672 C671 1.349 . S
C672 C684 1.349 . S
C673 C671 1.327 . S
C673 C689 1.429 . S
C673 H695 0.950 . S
C674 H670 0.949 . S
C674 C682 1.574 . S
C674 C690 1.368 . S
H675 C683 0.950 . S
H676 C681 0.950 . S
H677 C682 0.949 . S
H678 C684 0.950 . S
H679 C685 0.950 . S
H680 C686 0.949 . S
C681 H676 0.950 . S
C681 C683 1.327 . S
C681 C687 1.429 . S
C682 C674 1.574 . S
C682 H677 0.949 . S
C682 C688 1.368 . S
C683 C667 1.349 . S
C683 H675 0.950 . S
C683 C681 1.327 . S
C684 C672 1.349 . S
C684 H678 0.950 . S
C684 C685 1.327 . S
C685 H679 0.950 . S
C685 C684 1.327 . S
C685 C689 1.429 . S
C686 C669 1.574 . S
C686 H680 0.949 . S
C686 C690 1.368 . S
C687 C668 1.429 . S
C687 C681 1.429 . S
C687 C688 1.523 . S
C688 C669 1.368 . S
C688 C682 1.368 . S
C688 C687 1.523 . S
C689 C673 1.429 . S
C689 C685 1.429 . S
C689 C690 1.523 . S
C690 C674 1.368 . S
C690 C686 1.368 . S
C690 C689 1.523 . S
H691 C666 0.950 . S
H692 C668 0.950 . S
H693 C669 0.949 . S
H694 C671 0.950 . S
H695 C673 0.950 . S
C696 C697 1.349 1_556 S
C696 C698 1.327 . S
C696 H721 0.950 . S
C697 C696 1.349 1_554 S
C697 C713 1.349 . S
C698 C696 1.327 . S
C698 C717 1.429 . S
C698 H722 0.950 . S
C699 C716 1.574 1_455 S
C699 C718 1.368 . S
C699 H723 0.949 . S
H700 C704 0.949 . S
C701 C702 1.349 . S
C701 C703 1.327 . S
C701 H724 0.950 . S
C702 C701 1.349 . S
C702 C714 1.349 . S
C703 C701 1.327 . S
C703 C719 1.429 . S
C703 H725 0.950 . S
C704 H700 0.949 . S
C704 C712 1.574 1_655 S
C704 C720 1.368 . S
H705 C713 0.950 . S
H706 C711 0.944 1_554 S
H707 C712 0.949 . S
H708 C714 0.950 . S
H709 C715 0.950 . S
H710 C716 0.949 . S
C711 H706 0.944 1_556 S
C711 C713 1.321 1_556 S
C711 C717 1.440 . S
C712 C704 1.574 1_455 S
C712 H707 0.949 . S
C712 C718 1.368 . S
C713 C697 1.349 . S
C713 H705 0.950 . S
C713 C711 1.321 1_554 S
C714 C702 1.349 . S
C714 H708 0.950 . S
C714 C715 1.327 . S
C715 H709 0.950 . S
C715 C714 1.327 . S
C715 C719 1.429 . S
C716 C699 1.574 1_655 S
C716 H710 0.949 . S
C716 C720 1.368 . S
C717 C698 1.429 . S
C717 C711 1.440 . S
C717 C718 1.523 . S
C718 C699 1.368 . S
C718 C712 1.368 . S
C718 C717 1.523 . S
C719 C703 1.429 . S
C719 C715 1.429 . S
C719 C720 1.523 . S
C720 C704 1.368 . S
C720 C716 1.368 . S
C720 C719 1.523 . S
H721 C696 0.950 . S
H722 C698 0.950 . S
H723 C699 0.949 . S
H724 C701 0.950 . S
H725 C703 0.950 . S
C726 C727 1.349 . S
C726 C728 1.327 . S
C726 H751 0.950 . S
C727 C726 1.349 . S
C727 C743 1.349 . S
C728 C726 1.327 . S
C728 C747 1.429 1_556 S
C728 H752 0.950 . S
C729 C746 1.574 1_565 S
C729 C748 1.368 . S
C729 H753 0.949 . S
H730 C734 0.949 . S
C731 C732 1.349 . S
C731 C733 1.327 . S
C731 H754 0.950 . S
C732 C731 1.349 . S
C732 C744 1.349 . S
C733 C731 1.327 . S
C733 C749 1.429 . S
C733 H755 0.950 . S
C734 H730 0.949 . S
C734 C742 1.574 1_545 S
C734 C750 1.368 . S
H735 C743 0.950 1_554 S
H736 C741 0.950 . S
H737 C742 0.949 1_556 S
H738 C744 0.950 . S
H739 C745 0.950 . S
H740 C746 0.949 . S
C741 H736 0.950 . S
C741 C743 1.327 1_554 S
C741 C747 1.429 . S
C742 C734 1.574 1_565 S
C742 H737 0.949 1_554 S
C742 C748 1.368 . S
C743 C727 1.349 . S
C743 H735 0.950 1_556 S
C743 C741 1.327 1_556 S
C744 C732 1.349 . S
C744 H738 0.950 . S
C744 C745 1.327 . S
C745 H739 0.950 . S
C745 C744 1.327 . S
C745 C749 1.429 . S
C746 C729 1.574 1_545 S
C746 H740 0.949 . S
C746 C750 1.368 . S
C747 C728 1.429 1_554 S
C747 C741 1.429 . S
C747 C748 1.523 . S
C748 C729 1.368 . S
C748 C742 1.368 . S
C748 C747 1.523 . S
C749 C733 1.429 . S
C749 C745 1.429 . S
C749 C750 1.523 . S
C750 C734 1.368 . S
C750 C746 1.368 . S
C750 C749 1.523 . S
H751 C726 0.950 . S
H752 C728 0.950 . S
H753 C729 0.949 . S
H754 C731 0.950 . S
H755 C733 0.950 . S
C756 C757 1.349 . S
C756 C758 1.327 . S
C756 H781 0.950 . S
C757 C756 1.349 . S
C757 C773 1.349 . S
C758 C756 1.327 . S
C758 C777 1.429 . S
C758 H782 0.950 . S
C759 C776 1.574 . S
C759 C778 1.368 . S
C759 H783 0.949 . S
H760 C764 0.949 . S
C761 C762 1.349 . S
C761 C763 1.327 . S
C761 H784 0.950 . S
C762 C761 1.349 . S
C762 C774 1.349 . S
C763 C761 1.327 . S
C763 C779 1.429 . S
C763 H785 0.950 . S
C764 H760 0.949 . S
C764 C772 1.574 . S
C764 C780 1.368 . S
H765 C773 0.950 . S
H766 C771 0.950 . S
H767 C772 0.949 . S
H768 C774 0.950 . S
H769 C775 0.950 . S
H770 C776 0.949 . S
C771 H766 0.950 . S
C771 C773 1.327 . S
C771 C777 1.429 . S
C772 C764 1.574 . S
C772 H767 0.949 . S
C772 C778 1.368 . S
C773 C757 1.349 . S
C773 H765 0.950 . S
C773 C771 1.327 . S
C774 C762 1.349 . S
C774 H768 0.950 . S
C774 C775 1.327 . S
C775 H769 0.950 . S
C775 C774 1.327 . S
C775 C779 1.429 . S
C776 C759 1.574 . S
C776 H770 0.949 . S
C776 C780 1.368 . S
C777 C758 1.429 . S
C777 C771 1.429 . S
C777 C778 1.523 . S
C778 C759 1.368 . S
C778 C772 1.368 . S
C778 C777 1.523 . S
C779 C763 1.429 . S
C779 C775 1.429 . S
C779 C780 1.523 . S
C780 C764 1.368 . S
C780 C776 1.368 . S
C780 C779 1.523 . S
H781 C756 0.950 . S
H782 C758 0.950 . S
H783 C759 0.949 . S
H784 C761 0.950 . S
H785 C763 0.950 . S
C786 C787 1.349 . S
C786 C788 1.327 . S
C786 H811 0.950 . S
C787 C786 1.349 . S
C787 C803 1.349 . S
C788 C786 1.327 . S
C788 C807 1.429 . S
C788 H812 0.950 . S
C789 C806 1.574 1_455 S
C789 C808 1.368 . S
C789 H813 0.949 . S
H790 C794 0.949 . S
C791 C792 1.349 . S
C791 C793 1.327 . S
C791 H814 0.950 . S
C792 C791 1.349 . S
C792 C804 1.349 . S
C793 C791 1.327 . S
C793 C809 1.429 . S
C793 H815 0.950 . S
C794 H790 0.949 . S
C794 C802 1.574 1_655 S
C794 C810 1.368 . S
H795 C803 0.950 . S
H796 C801 0.950 . S
H797 C802 0.949 . S
H798 C804 0.950 . S
H799 C805 0.950 . S
H800 C806 0.949 . S
C801 H796 0.950 . S
C801 C803 1.327 . S
C801 C807 1.429 . S
C802 C794 1.574 1_455 S
C802 H797 0.949 . S
C802 C808 1.368 . S
C803 C787 1.349 . S
C803 H795 0.950 . S
C803 C801 1.327 . S
C804 C792 1.349 . S
C804 H798 0.950 . S
C804 C805 1.327 . S
C805 H799 0.950 . S
C805 C804 1.327 . S
C805 C809 1.429 . S
C806 C789 1.574 1_655 S
C806 H800 0.949 . S
C806 C810 1.368 . S
C807 C788 1.429 . S
C807 C801 1.429 . S
C807 C808 1.523 . S
C808 C789 1.368 . S
C808 C802 1.368 . S
C808 C807 1.523 . S
C809 C793 1.429 . S
C809 C805 1.429 . S
C809 C810 1.523 . S
C810 C794 1.368 . S
C810 C806 1.368 . S
C810 C809 1.523 . S
H811 C786 0.950 . S
H812 C788 0.950 . S
H813 C789 0.949 . S
H814 C791 0.950 . S
H815 C793 0.950 . S
C816 C817 1.349 . S
C816 C818 1.327 . S
C816 H841 0.950 . S
C817 C816 1.349 . S
C817 C833 1.349 . S
C818 C816 1.327 . S
C818 C837 1.429 . S
C818 H842 0.950 . S
C819 C836 1.574 1_545 S
C819 C838 1.368 . S
C819 H843 0.949 . S
H820 C824 0.949 . S
C821 C822 1.349 . S
C821 C823 1.327 . S
C821 H844 0.950 . S
C822 C821 1.349 . S
C822 C834 1.349 . S
C823 C821 1.327 . S
C823 C839 1.429 . S
C823 H845 0.950 . S
C824 H820 0.949 . S
C824 C832 1.574 1_565 S
C824 C840 1.368 . S
H825 C833 0.950 . S
H826 C831 0.950 . S
H827 C832 0.949 . S
H828 C834 0.950 . S
H829 C835 0.950 . S
H830 C836 0.949 . S
C831 H826 0.950 . S
C831 C833 1.327 . S
C831 C837 1.429 . S
C832 C824 1.574 1_545 S
C832 H827 0.949 . S
C832 C838 1.368 . S
C833 C817 1.349 . S
C833 H825 0.950 . S
C833 C831 1.327 . S
C834 C822 1.349 . S
C834 H828 0.950 . S
C834 C835 1.327 . S
C835 H829 0.950 . S
C835 C834 1.327 . S
C835 C839 1.429 . S
C836 C819 1.574 1_565 S
C836 H830 0.949 . S
C836 C840 1.368 . S
C837 C818 1.429 . S
C837 C831 1.429 . S
C837 C838 1.523 . S
C838 C819 1.368 . S
C838 C832 1.368 . S
C838 C837 1.523 . S
C839 C823 1.429 . S
C839 C835 1.429 . S
C839 C840 1.523 . S
C840 C824 1.368 . S
C840 C836 1.368 . S
C840 C839 1.523 . S
H841 C816 0.950 . S
H842 C818 0.950 . S
H843 C819 0.949 . S
H844 C821 0.950 . S
H845 C823 0.950 . S
C846 C847 1.349 . S
C846 C848 1.327 . S
C846 H871 0.950 . S
C847 C846 1.349 . S
C847 C863 1.349 . S
C848 C846 1.327 . S
C848 C867 1.429 . S
C848 H872 0.950 . S
C849 C866 1.574 . S
C849 C868 1.368 . S
C849 H873 0.949 . S
H850 C854 0.949 . S
C851 C852 1.349 . S
C851 C853 1.327 . S
C851 H874 0.950 . S
C852 C851 1.349 . S
C852 C864 1.349 . S
C853 C851 1.327 . S
C853 C869 1.429 . S
C853 H875 0.950 . S
C854 H850 0.949 . S
C854 C862 1.574 . S
C854 C870 1.368 . S
H855 C863 0.950 . S
H856 C861 0.950 . S
H857 C862 0.949 . S
H858 C864 0.950 . S
H859 C865 0.950 . S
H860 C866 0.949 . S
C861 H856 0.950 . S
C861 C863 1.327 . S
C861 C867 1.429 . S
C862 C854 1.574 . S
C862 H857 0.949 . S
C862 C868 1.368 . S
C863 C847 1.349 . S
C863 H855 0.950 . S
C863 C861 1.327 . S
C864 C852 1.349 . S
C864 H858 0.950 . S
C864 C865 1.327 . S
C865 H859 0.950 . S
C865 C864 1.327 . S
C865 C869 1.429 . S
C866 C849 1.574 . S
C866 H860 0.949 . S
C866 C870 1.368 . S
C867 C848 1.429 . S
C867 C861 1.429 . S
C867 C868 1.523 . S
C868 C849 1.368 . S
C868 C862 1.368 . S
C868 C867 1.523 . S
C869 C853 1.429 . S
C869 C865 1.429 . S
C869 C870 1.523 . S
C870 C854 1.368 . S
C870 C866 1.368 . S
C870 C869 1.523 . S
H871 C846 0.950 . S
H872 C848 0.950 . S
H873 C849 0.949 . S
H874 C851 0.950 . S
H875 C853 0.950 . S
C157 C3 1.485 . S
C162 C135 1.485 . S
C187 C148 1.486 . S
C192 C16 1.486 . S
C217 C29 1.485 . S
C222 C83 1.485 . S
C247 C44 1.485 . S
C252 C96 1.485 . S
C277 C57 1.485 . S
C282 C107 1.485 . S
C307 C122 1.486 . S
C312 C68 1.486 1_554 S
C337 C4 1.805 . S
C342 C108 1.805 . S
C367 C17 1.805 . S
C372 C127 1.805 . S
C397 C140 1.805 . S
C402 C30 1.805 . S
C427 C49 1.805 . S
C432 C153 1.805 . S
C457 C62 1.805 . S
C462 C88 1.805 . S
C487 C69 1.805 . S
C492 C101 1.805 . S
C517 C133 1.462 . S
C522 C5 1.462 . S
C547 C18 1.462 . S
C552 C146 1.462 . S
C577 C31 1.462 . S
C582 C81 1.462 . S
C607 C42 1.462 . S
C612 C94 1.462 . S
C637 C109 1.462 . S
C642 C55 1.462 . S
C667 C70 1.462 . S
C672 C120 1.462 . S
C697 C10 1.363 . S
C702 C147 1.363 . S
C727 C82 1.364 . S
C732 C23 1.364 . S
C757 C95 1.363 . S
C762 C36 1.363 . S
C787 C114 1.363 . S
C792 C43 1.363 . S
C817 C121 1.363 . S
C822 C56 1.363 . S
C847 C134 1.364 . S
C852 C75 1.364 . S
