# Generated by pormake.
# Topology fnt, (5)-cn, num edge types: 1
# Building blocks:
#     Node 0, Type 0, BuildingBlock: XOMCOT_clean_sbu_0, # of connection points: 5
#     Node 1, Type 0, BuildingBlock: XOMCOT_clean_sbu_0, # of connection points: 5
#     Node 2, Type 0, BuildingBlock: XOMCOT_clean_sbu_0, # of connection points: 5
#     Node 3, Type 0, BuildingBlock: XOMCOT_clean_sbu_0, # of connection points: 5
#     Node 4, Type 0, BuildingBlock: XOMCOT_clean_sbu_0, # of connection points: 5
#     Node 5, Type 0, BuildingBlock: XOMCOT_clean_sbu_0, # of connection points: 5
#     Edge 6, Type (0, 0), BuildingBlock: FUNLAD_clean_linker_1, # of connection points: 2
#     Edge 7, Type (0, 0), BuildingBlock: FUNLAD_clean_linker_1, # of connection points: 2
#     Edge 8, Type (0, 0), BuildingBlock: FUNLAD_clean_linker_1, # of connection points: 2
#     Edge 9, Type (0, 0), BuildingBlock: FUNLAD_clean_linker_1, # of connection points: 2
#     Edge 10, Type (0, 0), BuildingBlock: FUNLAD_clean_linker_1, # of connection points: 2
#     Edge 11, Type (0, 0), BuildingBlock: FUNLAD_clean_linker_1, # of connection points: 2
#     Edge 12, Type (0, 0), BuildingBlock: FUNLAD_clean_linker_1, # of connection points: 2
#     Edge 13, Type (0, 0), BuildingBlock: FUNLAD_clean_linker_1, # of connection points: 2
#     Edge 14, Type (0, 0), BuildingBlock: FUNLAD_clean_linker_1, # of connection points: 2
#     Edge 15, Type (0, 0), BuildingBlock: FUNLAD_clean_linker_1, # of connection points: 2
#     Edge 16, Type (0, 0), BuildingBlock: FUNLAD_clean_linker_1, # of connection points: 2
#     Edge 17, Type (0, 0), BuildingBlock: FUNLAD_clean_linker_1, # of connection points: 2
#     Edge 18, Type (0, 0), BuildingBlock: FUNLAD_clean_linker_1, # of connection points: 2
#     Edge 19, Type (0, 0), BuildingBlock: FUNLAD_clean_linker_1, # of connection points: 2
#     Edge 20, Type (0, 0), BuildingBlock: FUNLAD_clean_linker_1, # of connection points: 2
# Relax obj value: 0.137
# Max RMSD: 0.163
# Mean RMSD: 0.163
data_MOF--net-fnt--node1-XOMCOT_clean_sbu_0--edge1-FUNLAD_clean_linker_1
_symmetry_space_group_name_H-M    P1
_symmetry_Int_Tables_number       1
_symmetry_cell_setting            triclinic
loop_
_symmetry_equiv_pos_as_xyz
'x, y, z'
_cell_length_a     28.752185
_cell_length_b     28.747325
_cell_length_c     50.381352
_cell_angle_alpha  90.249535
_cell_angle_beta   89.80241
_cell_angle_gamma 119.75557
loop_
_atom_site_label
_atom_site_type_symbol
_atom_site_fract_x
_atom_site_fract_y
_atom_site_fract_z
_atom_type_partial_charge
Co0 Co 0.16973 0.28386 0.0293 0.0
C1 C 0.12208 0.26693 0.08288 0.0
C2 C 0.19822 0.26999 0.08364 0.0
C3 C 0.17791 0.26134 0.10911 0.0
N4 N 0.16327 0.27374 0.06732 0.0
N5 N 0.13001 0.25945 0.10851 0.0
H6 H 0.08697 0.26747 0.07559 0.0
H7 H 0.2357 0.27307 0.07746 0.0
C8 C 0.2809 0.37893 1.02382 0.0
O9 O 0.26249 0.40508 1.01016 0.0
N10 N 0.17653 0.29329 0.99062 0.0
C11 C 0.17676 0.33262 0.97586 0.0
C12 C 0.18286 0.3241 0.94954 0.0
C13 C 0.18307 0.26166 0.97265 0.0
N14 N 0.18662 0.2795 0.94751 0.0
C15 C 0.10502 0.3315 1.02232 0.0
C16 C 0.15719 0.41489 0.05797 0.0
C17 C 0.10927 0.40642 0.04641 0.0
C18 C 0.08331 0.36406 0.02827 0.0
C19 C 0.17787 0.38129 0.05129 0.0
N20 N 0.15194 0.34045 0.03346 0.0
H21 H 0.08327 0.2979 1.00908 0.0
H22 H 0.21305 0.38628 0.06151 0.0
H23 H 0.17414 0.36645 0.98336 0.0
H24 H 0.18595 0.22677 0.97781 0.0
O25 O 0.09785 0.22509 1.02538 0.0
O26 O 0.17113 0.2176 0.02603 0.0
O27 O 0.24924 0.33277 0.03336 0.0
C28 C 0.11917 0.19446 1.02464 0.0
H29 H 0.19725 0.25709 0.12656 0.0
H30 H 0.18516 0.34928 0.93308 0.0
H31 H 0.17766 0.44625 0.07261 0.0
H32 H 0.04503 0.35396 1.01964 0.0
Co33 Co 0.9044 0.20174 0.37037 0.0
C34 C 0.86562 0.14871 0.42235 0.0
C35 C 0.92933 0.22999 0.4266 0.0
C36 C 0.91536 0.2072 0.45143 0.0
N37 N 0.89802 0.19335 0.40846 0.0
N38 N 0.87537 0.15603 0.44867 0.0
H39 H 0.8363 0.11128 0.41334 0.0
H40 H 0.9611 0.27004 0.42205 0.0
C41 C 0.96702 0.31808 0.36665 0.0
O42 O 0.00376 0.31005 0.35544 0.0
N43 N 0.91143 0.21126 0.33201 0.0
C44 C 0.888 0.23268 0.31705 0.0
C45 C 0.90556 0.23693 0.29122 0.0
C46 C 0.94343 0.20334 0.31502 0.0
N47 N 0.94041 0.21841 0.29006 0.0
C48 C 0.7981 0.13536 0.35269 0.0
C49 C 0.75105 0.18131 0.38304 0.0
C50 C 0.71842 0.13514 0.36815 0.0
C51 C 0.74271 0.11294 0.3523 0.0
C52 C 0.80661 0.20253 0.3829 0.0
N53 N 0.82914 0.17908 0.36803 0.0
H54 H 0.81633 0.11721 0.34086 0.0
H55 H 0.83132 0.23664 0.39539 0.0
H56 H 0.86113 0.24585 0.32455 0.0
H57 H 0.96978 0.18835 0.32069 0.0
O58 O 0.89817 0.13242 0.36733 0.0
O59 O 0.97487 0.2085 0.37273 0.0
O60 O 0.92302 0.27839 0.3743 0.0
C61 C 0.94969 0.15643 0.37053 0.0
H62 H 0.93408 0.22676 0.46989 0.0
H63 H 0.89485 0.25413 0.27492 0.0
H64 H 0.73362 0.19973 0.39533 0.0
H65 H 0.71937 0.07852 0.33969 0.0
Co66 Co 0.69252 0.87368 0.69747 0.0
C67 C 0.701 0.82918 0.74922 0.0
C68 C 0.6689 0.88222 0.75327 0.0
C69 C 0.67388 0.8657 0.77816 0.0
N70 N 0.68571 0.85922 0.73517 0.0
N71 N 0.69435 0.83258 0.77559 0.0
H72 H 0.71786 0.8064 0.7404 0.0
H73 H 0.65521 0.91018 0.74878 0.0
C74 C 0.62653 0.92403 0.69301 0.0
O75 O 0.67098 0.96674 0.68555 0.0
N76 N 0.69819 0.88879 0.65958 0.0
C77 C 0.65719 0.8651 0.64228 0.0
C78 C 0.67407 0.88824 0.61774 0.0
C79 C 0.73953 0.92657 0.64526 0.0
N80 N 0.72585 0.92702 0.61967 0.0
C81 C 0.67231 0.77652 0.6735 0.0
C82 C 0.5751 0.71075 0.69787 0.0
C83 C 0.59799 0.68798 0.68127 0.0
C84 C 0.64651 0.72173 0.66861 0.0
C85 C 0.60206 0.76625 0.70195 0.0
N86 N 0.6502 0.79805 0.68996 0.0
H87 H 0.71065 0.80198 0.66421 0.0
H88 H 0.58505 0.78355 0.71521 0.0
H89 H 0.61714 0.83391 0.64733 0.0
H90 H 0.77843 0.95439 0.65334 0.0
O91 O 0.76089 0.87771 0.69772 0.0
O92 O 0.74817 0.94674 0.70524 0.0
O93 O 0.62688 0.88113 0.69872 0.0
C94 C 0.78108 0.92789 0.70392 0.0
H95 H 0.66375 0.87793 0.7966 0.0
H96 H 0.64939 0.87794 0.60017 0.0
H97 H 0.53702 0.68625 0.70763 0.0
H98 H 0.66529 0.70568 0.65562 0.0
Co99 Co 0.80128 0.70115 0.03692 0.0
C100 C 0.85482 0.72042 0.08908 0.0
C101 C 0.77191 0.69783 0.09325 0.0
C102 C 0.79443 0.70646 0.11818 0.0
N103 N 0.80976 0.70632 0.07508 0.0
N104 N 0.84655 0.72057 0.11546 0.0
H105 H 0.89295 0.73044 0.08012 0.0
H106 H 0.73095 0.68674 0.08871 0.0
C107 C 0.69677 0.5976 0.03037 0.0
O108 O 0.71924 0.57781 1.01472 0.0
N109 N 0.7922 0.69634 0.99813 0.0
C110 C 0.79569 0.66165 0.98111 0.0
C111 C 0.7867 0.67226 0.95565 0.0
C112 C 0.7804 0.72723 0.98238 0.0
N113 N 0.77727 0.71367 0.95647 0.0
C114 C 0.87688 0.66928 1.02313 0.0
C115 C 0.83699 0.57922 0.05483 0.0
C116 C 0.88479 0.59556 0.04062 0.0
C117 C 0.90412 0.64072 1.02442 0.0
C118 C 0.81026 0.60867 0.05261 0.0
N119 N 0.82992 0.65259 0.03652 0.0
H120 H 0.89349 0.7051 1.01116 0.0
H121 H 0.77476 0.59723 0.06442 0.0
H122 H 0.80324 0.62969 0.98643 0.0
H123 H 0.77401 0.75915 0.98951 0.0
O124 O 0.86817 0.76689 0.03327 0.0
O125 O 0.78863 0.76117 0.03796 0.0
O126 O 0.72445 0.64321 0.04141 0.0
C127 C 0.84026 0.79105 0.03532 0.0
H128 H 0.774 0.70343 0.1367 0.0
H129 H 0.78647 0.6504 0.93809 0.0
H130 H 0.82035 0.54433 0.06751 0.0
H131 H 0.94099 0.6548 1.01328 0.0
Co132 Co 0.11342 0.82468 0.3687 0.0
C133 C 0.14366 0.86533 0.42331 0.0
C134 C 0.09027 0.78029 0.42305 0.0
C135 C 0.10116 0.79762 0.44908 0.0
N136 N 0.11703 0.82286 0.40699 0.0
N137 N 0.13466 0.85117 0.4491 0.0
H138 H 0.16807 0.90614 0.41647 0.0
H139 H 0.06349 0.7398 0.41638 0.0
C140 C 0.1126 0.72688 0.34896 0.0
O141 O 0.14733 0.75715 0.3309 0.0
N142 N 0.10815 0.82632 0.33001 0.0
C143 C 0.14596 0.85456 0.31154 0.0
C144 C 0.12245 0.84407 0.28686 0.0
C145 C 0.06221 0.79896 0.31598 0.0
N146 N 0.06973 0.80913 0.28972 0.0
C147 C 0.22274 0.90479 0.36186 0.0
C148 C 0.268 0.84542 0.37941 0.0
C149 C 0.30172 0.89864 0.37166 0.0
C150 C 0.27821 0.92872 0.36333 0.0
C151 C 0.21239 0.82307 0.37779 0.0
N152 N 0.19038 0.85192 0.36778 0.0
H153 H 0.20581 0.92915 0.35572 0.0
H154 H 0.18729 0.78317 0.3854 0.0
H155 H 0.18794 0.8809 0.31506 0.0
H156 H 0.02365 0.77232 0.32483 0.0
O157 O 0.11531 0.89217 0.37107 0.0
O158 O 0.04101 0.81304 0.37156 0.0
O159 O 0.09581 0.74745 0.36645 0.0
C160 C 0.06347 0.86505 0.37242 0.0
H161 H 0.08422 0.77286 0.46646 0.0
H162 H 0.14278 0.86171 0.26841 0.0
H163 H 0.28448 0.82146 0.38704 0.0
H164 H 0.30181 0.9708 0.35858 0.0
Co165 Co 0.27474 0.09314 0.70892 0.0
C166 C 0.26113 0.10619 0.76676 0.0
C167 C 0.33178 0.101 0.75897 0.0
C168 C 0.3298 0.11003 0.78568 0.0
N169 N 0.28855 0.09827 0.747 0.0
N170 N 0.28576 0.11379 0.79049 0.0
H171 H 0.22501 0.10823 0.76372 0.0
H172 H 0.36411 0.09901 0.74907 0.0
C173 C 0.32864 0.02903 0.70509 0.0
O174 O 0.283 0.98767 0.71241 0.0
N175 N 0.26131 0.08776 0.67112 0.0
C176 C 0.25574 0.12273 0.6556 0.0
C177 C 0.24221 0.10151 0.63035 0.0
C178 C 0.25041 0.04555 0.65531 0.0
N179 N 0.23891 0.05297 0.63028 0.0
C180 C 0.31405 0.20277 0.7194 0.0
C181 C 0.4013 0.24372 0.68553 0.0
C182 C 0.3892 0.27905 0.69933 0.0
C183 C 0.34527 0.25782 0.71651 0.0
C184 C 0.36862 0.18831 0.68898 0.0
N185 N 0.32548 0.16875 0.70566 0.0
H186 H 0.27959 0.1874 0.7323 0.0
H187 H 0.37678 0.16127 0.67754 0.0
H188 H 0.25983 0.16036 0.66233 0.0
H189 H 0.24962 0.00951 0.66212 0.0
O190 O 0.21175 0.09886 0.71439 0.0
O191 O 0.21268 0.02224 0.71338 0.0
O192 O 0.33285 0.07503 0.70269 0.0
C193 C 0.18531 0.04702 0.7157 0.0
H194 H 0.3597 0.11575 0.80031 0.0
H195 H 0.23368 0.11971 0.6137 0.0
H196 H 0.4342 0.25825 0.67157 0.0
H197 H 0.33448 0.28368 0.72742 0.0
H198 H 0.35235 0.37537 0.03642 0.0
C199 C 0.33905 0.40102 0.02736 0.0
H200 H 0.3629 0.4756 1.00933 0.0
H201 H 0.58057 0.49831 0.07123 0.0
H202 H 0.53003 0.48086 0.11215 0.0
H203 H 0.4361 0.4609 0.11162 0.0
H204 H 0.39178 0.45678 0.07014 0.0
C205 C 0.37568 0.45019 1.01909 0.0
C206 C 0.43424 0.46874 1.02011 0.0
C207 C 0.46045 0.47406 0.04471 0.0
C208 C 0.51567 0.48904 0.04517 0.0
C209 C 0.53961 0.48996 0.06983 0.0
C210 C 0.51092 0.47958 0.09347 0.0
C211 C 0.45797 0.46809 0.09316 0.0
C212 C 0.43286 0.46538 0.06915 0.0
H213 H 0.62135 0.59093 0.04473 0.0
C214 C 0.63803 0.57021 0.03352 0.0
H215 H 0.62086 0.50329 1.00954 0.0
H216 H 0.39635 0.46088 0.96945 0.0
H217 H 0.44822 0.48332 0.92884 0.0
H218 H 0.54537 0.51608 0.92992 0.0
H219 H 0.59103 0.52567 0.97157 0.0
C220 C 0.60472 0.52346 1.02156 0.0
C221 C 0.54564 0.50245 1.02121 0.0
C222 C 0.51964 0.49794 0.99666 0.0
C223 C 0.46386 0.48052 0.99609 0.0
C224 C 0.43879 0.47501 0.97118 0.0
C225 C 0.46806 0.48763 0.94765 0.0
C226 C 0.52272 0.50596 0.94826 0.0
C227 C 0.54842 0.51115 0.97237 0.0
H228 H 0.9436 0.37748 0.37887 0.0
C229 C 0.97531 0.37271 0.36974 0.0
H230 H 0.05194 0.41231 0.35178 0.0
H231 H 0.00362 0.60271 0.32306 0.0
H232 H 0.96198 0.54704 0.28436 0.0
H233 H 0.94982 0.45598 0.28123 0.0
H234 H 0.97871 0.41984 0.31696 0.0
C235 C 0.01995 0.41612 0.36119 0.0
C236 C 0.0263 0.47054 0.3634 0.0
C237 C 0.01018 0.4914 0.34214 0.0
C238 C 0.01854 0.54443 0.34364 0.0
C239 C 7e-05 0.56346 0.32256 0.0
C240 C 0.97567 0.53174 0.30031 0.0
C241 C 0.96873 0.48043 0.29858 0.0
C242 C 0.98556 0.46021 0.31921 0.0
H243 H 0.11324 0.65485 0.33465 0.0
C244 C 0.09553 0.66936 0.34928 0.0
H245 H 0.04205 0.64842 0.38171 0.0
H246 H 0.05912 0.4414 0.40807 0.0
H247 H 0.10016 0.4967 0.44702 0.0
H248 H 0.11631 0.58931 0.44935 0.0
H249 H 0.09145 0.62721 0.41281 0.0
C250 C 0.05919 0.63458 0.36646 0.0
C251 C 0.04454 0.57704 0.36607 0.0
C252 C 0.05883 0.5554 0.38775 0.0
C253 C 0.04974 0.50207 0.38638 0.0
C254 C 0.06511 0.48166 0.40811 0.0
C255 C 0.08872 0.51297 0.43057 0.0
C256 C 0.0978 0.56511 0.43188 0.0
C257 C 0.08327 0.58636 0.41076 0.0
H258 H 0.41425 0.06 0.69656 0.0
C259 C 0.37674 0.02394 0.70118 0.0
H260 H 0.3389 0.94038 0.70773 0.0
H261 H 0.52411 0.92167 0.64751 0.0
H262 H 0.45327 0.88251 0.61464 0.0
H263 H 0.36923 0.88475 0.6208 0.0
H264 H 0.35549 0.92615 0.6599 0.0
C265 C 0.37615 0.9772 0.70387 0.0
C266 C 0.42611 0.97424 0.70074 0.0
C267 C 0.43307 0.94901 0.67804 0.0
C268 C 0.48141 0.94745 0.67456 0.0
C269 C 0.48789 0.92328 0.65135 0.0
C270 C 0.44763 0.90083 0.63227 0.0
C271 C 0.40031 0.9021 0.63573 0.0
C272 C 0.39292 0.92593 0.65828 0.0
H273 H 0.5398 0.88851 0.70058 0.0
C274 C 0.5759 0.92513 0.69493 0.0
H275 H 0.60932 0.00723 0.68561 0.0
H276 H 0.42374 0.0214 0.74778 0.0
H277 H 0.49473 0.06092 0.78047 0.0
H278 H 0.57931 0.05994 0.77393 0.0
H279 H 0.59324 0.0191 0.73469 0.0
C280 C 0.57336 0.96981 0.69038 0.0
C281 C 0.52246 0.97074 0.69393 0.0
C282 C 0.51537 -0.00433 0.7167 0.0
C283 C 0.46693 -0.00304 0.72027 0.0
C284 C 0.46021 0.02047 0.74369 0.0
C285 C 0.50054 0.04303 0.76272 0.0
C286 C 0.54814 0.04242 0.75906 0.0
C287 C 0.55564 0.01894 0.73641 0.0
H288 H 0.58528 0.61602 0.65922 0.0
C289 C 0.57355 0.62954 0.67692 0.0
H290 H 0.53335 0.60502 0.71378 0.0
H291 H 0.42652 0.37881 0.643 0.0
H292 H 0.38984 0.4205 0.61437 0.0
H293 H 0.41381 0.5149 0.62106 0.0
H294 H 0.47491 0.56827 0.65609 0.0
C295 C 0.5422 0.5929 0.69485 0.0
C296 C 0.52595 0.53555 0.69105 0.0
C297 C 0.48924 0.50483 0.67077 0.0
C298 C 0.47391 0.44997 0.6675 0.0
C299 C 0.43823 0.4203 0.64674 0.0
C300 C 0.41714 0.44379 0.63012 0.0
C301 C 0.43076 0.49698 0.63384 0.0
C302 C 0.46622 0.52729 0.65394 0.0
H303 H 0.3989 0.35971 0.70244 0.0
C304 C 0.41868 0.33784 0.69565 0.0
H305 H 0.4917 0.34745 0.68016 0.0
H306 H 0.60026 0.58416 0.73055 0.0
H307 H 0.63611 0.54183 0.75911 0.0
H308 H 0.60731 0.44585 0.75411 0.0
H309 H 0.54269 0.39171 0.72032 0.0
C310 C 0.46836 0.36623 0.68572 0.0
C311 C 0.4937 0.42553 0.68508 0.0
C312 C 0.53189 0.45663 0.70465 0.0
C313 C 0.54801 0.51176 0.70769 0.0
C314 C 0.5861 0.54194 0.72753 0.0
C315 C 0.6071 0.51816 0.74404 0.0
C316 C 0.59089 0.46413 0.74122 0.0
C317 C 0.55371 0.4335 0.7218 0.0
H318 H 0.94287 0.57323 1.02525 0.0
C319 C 0.91599 0.56725 0.04178 0.0
H320 H 0.89082 0.53141 0.07971 0.0
H321 H 0.96014 0.35939 0.04518 0.0
H322 H 0.86362 0.3031 0.04855 0.0
H323 H 0.80616 0.34249 0.05809 0.0
H324 H 0.84495 0.43845 0.06446 0.0
C325 C 0.91624 0.53816 0.06253 0.0
C326 C 0.95125 0.51362 0.06175 0.0
C327 C 0.92804 0.45755 0.0585 0.0
C328 C 0.96115 0.435 0.05271 0.0
C329 C 0.93683 0.37879 0.04926 0.0
C330 C 0.8815 0.34598 0.05123 0.0
C331 C 0.84915 0.36815 0.05662 0.0
C332 C 0.8719 0.42327 0.0602 0.0
H333 H 0.09344 0.45595 0.07502 0.0
C334 C 0.08441 0.43858 0.0552 0.0
H335 H 0.04105 0.42924 1.01987 0.0
H336 H 0.00887 0.62078 0.07278 0.0
H337 H 0.10557 0.6774 0.06999 0.0
H338 H 0.16284 0.63931 0.05739 0.0
H339 H 0.12401 0.54444 0.04793 0.0
C340 C 0.04996 0.44533 0.03989 0.0
C341 C 0.0174 0.46864 0.05017 0.0
C342 C 0.04096 0.52435 0.0552 0.0
C343 C 0.00782 0.54668 0.06149 0.0
C344 C 0.0322 0.60218 0.06708 0.0
C345 C 0.0876 0.63501 0.06569 0.0
C346 C 0.11985 0.61354 0.05867 0.0
C347 C 0.09703 0.55891 0.05339 0.0
H348 H 0.37613 0.90127 0.38549 0.0
C349 C 0.36074 0.92223 0.37367 0.0
H350 H 0.38235 0.98745 0.34751 0.0
H351 H 0.60689 0.06895 0.41572 0.0
H352 H 0.55671 0.07076 0.45411 0.0
H353 H 0.45954 0.03725 0.45109 0.0
H354 H 0.41187 0.00084 0.40982 0.0
C355 C 0.39583 0.96751 0.36112 0.0
C356 C 0.45453 0.98931 0.36308 0.0
C357 C 0.48195 0.01218 0.38718 0.0
C358 C 0.53834 0.03366 0.38863 0.0
C359 C 0.56444 0.05389 0.41324 0.0
C360 C 0.53605 0.0549 0.43549 0.0
C361 C 0.48133 0.03587 0.43381 0.0
C362 C 0.45439 0.01478 0.41 0.0
H363 H 0.64261 0.13674 0.3732 0.0
C364 C 0.65939 0.1108 0.36931 0.0
H365 H 0.64213 0.03082 0.36338 0.0
H366 H 0.41383 0.94735 0.31409 0.0
H367 H 0.46445 0.94805 0.27535 0.0
H368 H 0.56273 0.98856 0.27737 0.0
H369 H 0.61092 0.02834 0.31816 0.0
C370 C 0.62632 0.05774 0.36659 0.0
C371 C 0.56728 0.03416 0.36568 0.0
C372 C 0.53986 0.01139 0.34161 0.0
C373 C 0.48338 0.98881 0.34033 0.0
C374 C 0.45685 0.96577 0.31609 0.0
C375 C 0.48539 0.96576 0.2937 0.0
C376 C 0.5407 0.9885 0.29485 0.0
C377 C 0.56784 0.01111 0.31844 0.0
H378 H 0.1056 0.11227 1.02066 0.0
C379 C 0.08596 0.13598 1.02328 0.0
H380 H 0.01275 0.13467 0.03054 0.0
H381 H 0.92874 0.89215 0.98116 0.0
H382 H 0.95537 0.93797 0.93877 0.0
H383 H 0.00144 0.03675 0.93662 0.0
H384 H 0.02269 0.09022 0.97674 0.0
C385 C 0.0327 0.11163 0.02664 0.0
C386 C 0.00039 0.05251 0.02767 0.0
C387 C 0.98825 0.02202 1.00399 0.0
C388 C 0.96081 0.96523 1.00525 0.0
C389 C 0.9495 0.93551 0.98133 0.0
C390 C 0.96441 0.96128 0.95686 0.0
C391 C 0.99057 0.01686 0.95563 0.0
C392 C 0.00259 0.04711 0.97884 0.0
H393 H 0.84105 0.86821 0.03679 0.0
C394 C 0.86588 0.8497 0.03461 0.0
H395 H 0.9441 0.86224 0.02852 0.0
H396 H 0.01475 0.0998 0.07655 0.0
H397 H 0.98648 0.05413 0.11892 0.0
H398 H 0.93904 0.95538 0.12119 0.0
H399 H 0.91969 0.90172 0.08113 0.0
C400 C 0.91898 0.88025 0.03141 0.0
C401 C 0.94496 0.93932 0.03017 0.0
C402 C 0.9556 0.96982 0.05382 0.0
C403 C 0.98317 0.02664 0.05253 0.0
C404 C -0.00611 0.05644 0.07641 0.0
C405 C 0.97788 0.03074 0.10086 0.0
C406 C 0.95118 0.97515 0.10214 0.0
C407 C 0.94019 0.94482 0.07897 0.0
H408 H 0.98863 0.86925 0.37311 0.0
C409 C 0.03207 0.89262 0.37408 0.0
H410 H 0.10048 0.96978 0.37604 0.0
H411 H 0.99369 0.0907 0.32346 0.0
H412 H 0.04696 0.08798 0.28673 0.0
H413 H 0.09205 0.03416 0.28946 0.0
H414 H 0.08392 0.98261 0.32891 0.0
C415 C 0.05699 0.9463 0.3758 0.0
C416 C 0.02763 0.97634 0.37408 0.0
C417 C 0.03353 0.00685 0.351 0.0
C418 C 0.00804 0.03825 0.34952 0.0
C419 C 0.01319 0.06709 0.32592 0.0
C420 C 0.04341 0.06564 0.30459 0.0
C421 C 0.06877 0.03533 0.30612 0.0
C422 C 0.06391 0.00608 0.32895 0.0
H423 H 0.02131 0.14685 0.37284 0.0
C424 C 0.97791 0.12563 0.37119 0.0
H425 H 0.90685 0.05035 0.36919 0.0
H426 H 0.01021 0.92411 0.42165 0.0
H427 H 0.95553 0.92557 0.45808 0.0
H428 H 0.90953 0.97852 0.45506 0.0
H429 H 0.91893 0.03124 0.4159 0.0
C430 C 0.95037 0.07186 0.36993 0.0
C431 C 0.9773 0.03943 0.37129 0.0
C432 C 0.97057 0.00816 0.39417 0.0
C433 C -0.00376 0.97689 0.39569 0.0
C434 C 0.99063 0.94764 0.41919 0.0
C435 C 0.95954 0.94831 0.44031 0.0
C436 C 0.93376 0.97823 0.43865 0.0
C437 C 0.93931 0.00812 0.41598 0.0
H438 H 0.1048 0.97498 0.71518 0.0
C439 C 0.12664 0.01821 0.71784 0.0
H440 H 0.12162 0.08856 0.72384 0.0
H441 H 0.89528 0.94348 0.66101 0.0
H442 H 0.9519 0.95961 0.62239 0.0
H443 H 0.05022 0.00438 0.62688 0.0
H444 H 0.09238 0.0329 0.66996 0.0
C445 C 0.10014 0.04547 0.72064 0.0
C446 C 0.04123 0.01906 0.7179 0.0
C447 C 0.01753 0.00346 0.69242 0.0
C448 C 0.96105 0.97837 0.68977 0.0
C449 C 0.93809 0.96262 0.66416 0.0
C450 C 0.97012 0.97179 0.6418 0.0
C451 C 0.02545 -0.00304 0.64434 0.0
C452 C 0.04912 0.01288 0.66926 0.0
H453 H 0.85615 0.00412 0.71185 0.0
C454 C 0.83884 0.96121 0.70897 0.0
H455 H 0.85264 0.89554 0.70655 0.0
H456 H 0.0748 0.04739 0.7692 0.0
H457 H 0.01813 0.03282 0.80771 0.0
H458 H 0.91984 0.98851 0.80314 0.0
H459 H 0.87763 0.95919 0.75997 0.0
C460 C 0.8698 0.93837 0.70978 0.0
C461 C 0.92869 0.96982 0.7125 0.0
C462 C 0.95245 0.98679 0.73786 0.0
C463 C 0.00899 0.0118 0.74054 0.0
C464 C 0.03197 0.02822 0.76607 0.0
C465 C -8e-05 0.01998 0.78834 0.0
C466 C 0.94457 0.99508 0.78576 0.0
C467 C 0.92086 0.97849 0.76087 0.0
H468 H 0.2005 0.28154 0.90491 0.0
C469 C 0.19512 0.25875 0.92296 0.0
H470 H 0.19026 0.18827 0.93865 0.0
H471 H 0.14087 0.06728 0.82797 0.0
H472 H 0.05661 0.01457 0.85114 0.0
H473 H 0.04032 0.04381 0.89443 0.0
H474 H 0.10851 0.12579 0.91531 0.0
C475 C 0.1976 0.21328 0.92134 0.0
C476 C 0.20811 0.19478 0.89539 0.0
C477 C 0.16776 0.1468 0.88353 0.0
C478 C 0.17684 0.13019 0.85828 0.0
C479 C 0.13598 0.08197 0.84699 0.0
C480 C 0.08741 0.05132 0.86007 0.0
C481 C 0.07829 0.06778 0.88452 0.0
C482 C 0.11779 0.11489 0.89624 0.0
H483 H 0.29601 0.12949 0.83302 0.0
C484 C 0.27269 0.12811 0.81577 0.0
H485 H 0.21119 0.14206 0.80199 0.0
H486 H 0.29707 0.28477 0.9139 0.0
H487 H 0.37961 0.33944 0.88984 0.0
H488 H 0.39208 0.31489 0.84446 0.0
H489 H 0.32256 0.23486 0.82316 0.0
C490 C 0.23562 0.14334 0.81863 0.0
C491 C 0.22616 0.16151 0.84488 0.0
C492 C 0.2663 0.20985 0.85657 0.0
C493 C 0.25789 0.22565 0.88215 0.0
C494 C 0.30013 0.27221 0.89402 0.0
C495 C 0.34798 0.30379 0.88051 0.0
C496 C 0.35509 0.28984 0.85502 0.0
C497 C 0.31492 0.24351 0.8431 0.0
H498 H 0.05902 0.25617 0.12614 0.0
C499 C 0.09416 0.25243 0.13017 0.0
H500 H 0.13793 0.23902 0.1599 0.0
H501 H 0.05114 0.31893 0.25463 0.0
H502 H 0.1428 0.39151 0.2514 0.0
H503 H 0.20101 0.39507 0.21447 0.0
H504 H 0.16777 0.32617 0.18046 0.0
C505 C 0.10268 0.24184 0.15513 0.0
C506 C 0.06717 0.23856 0.17756 0.0
C507 C 0.08749 0.27865 0.19758 0.0
C508 C 0.05409 0.27628 0.21907 0.0
C509 C 0.07499 0.31795 0.23823 0.0
C510 C 0.12752 0.36009 0.23654 0.0
C511 C 0.16027 0.36212 0.21574 0.0
C512 C 0.14068 0.32215 0.19638 0.0
H513 H 0.00416 0.2093 0.27153 0.0
C514 C 0.97243 0.21864 0.26789 0.0
H515 H 0.93247 0.23807 0.23848 0.0
H516 H 0.01683 0.15247 0.14391 0.0
H517 H 0.92498 0.08003 0.14711 0.0
H518 H 0.86664 0.07697 0.18385 0.0
H519 H 0.89992 0.14624 0.21777 0.0
C520 C 0.96522 0.23092 0.24304 0.0
C521 C 0.00056 0.23333 0.22073 0.0
C522 C 0.98025 0.19322 0.20073 0.0
C523 C 0.01369 0.19549 0.17927 0.0
C524 C 0.99286 0.15364 0.16021 0.0
C525 C 0.94028 0.11157 0.16191 0.0
C526 C 0.90743 0.10982 0.18262 0.0
C527 C 0.92701 0.14992 0.20191 0.0
H528 H 0.81739 0.07622 0.46291 0.0
C529 C 0.84877 0.1159 0.46889 0.0
H530 H 0.8912 0.16517 0.50163 0.0
H531 H 0.69569 0.02015 0.57869 0.0
H532 H 0.67279 0.08869 0.56837 0.0
H533 H 0.722 0.1561 0.53377 0.0
H534 H 0.79444 0.15536 0.50924 0.0
C535 C 0.86096 0.12587 0.49482 0.0
C536 C 0.83107 0.08457 0.51539 0.0
C537 C 0.78889 0.08555 0.52954 0.0
C538 C 0.76038 0.04654 0.54941 0.0
C539 C 0.71842 0.04854 0.56324 0.0
C540 C 0.70493 0.08775 0.55757 0.0
C541 C 0.73266 0.12573 0.5381 0.0
C542 C 0.77417 0.12485 0.52419 0.0
H543 H 0.79988 0.99513 0.60498 0.0
C544 C 0.75946 0.96455 0.59961 0.0
H545 H 0.70121 0.93535 0.56911 0.0
H546 H 0.91177 0.07337 0.49301 0.0
H547 H 0.93543 0.00536 0.50365 0.0
H548 H 0.8848 0.93654 0.53742 0.0
H549 H 0.81076 0.93572 0.56116 0.0
C550 C 0.74179 0.96424 0.57485 0.0
C551 C 0.77432 0.00678 0.55523 0.0
C552 C 0.817 0.0062 0.54132 0.0
C553 C 0.84559 0.04533 0.52145 0.0
C554 C 0.88845 0.04428 0.50808 0.0
C555 C 0.90241 0.00547 0.51397 0.0
C556 C 0.87396 0.96677 0.53305 0.0
C557 C 0.83163 0.96684 0.54657 0.0
H558 H 0.72167 0.77902 0.79066 0.0
C559 C 0.70838 0.80712 0.79628 0.0
H560 H 0.69582 0.84748 0.82833 0.0
H561 H 0.68009 0.6434 0.89495 0.0
H562 H 0.599 0.58851 0.86984 0.0
H563 H 0.57315 0.62676 0.83279 0.0
H564 H 0.6283 0.72003 0.82056 0.0
C565 C 0.70647 0.81778 0.82221 0.0
C566 C 0.72307 0.79334 0.84359 0.0
C567 C 0.69022 0.73869 0.85053 0.0
C568 C 0.7049 0.71674 0.87208 0.0
C569 C 0.67111 0.66212 0.87869 0.0
C570 C 0.62431 0.63016 0.86449 0.0
C571 C 0.60977 0.65169 0.84363 0.0
C572 C 0.642 0.70531 0.83673 0.0
H573 H 0.75462 0.76923 0.93926 0.0
C574 C 0.76531 0.73869 0.93476 0.0
H575 H 0.77676 0.69478 0.90409 0.0
H576 H 0.79559 0.89905 0.83504 0.0
H577 H 0.87748 0.95366 0.85966 0.0
H578 H 0.90347 0.91546 0.89663 0.0
H579 H 0.84763 0.8225 0.90939 0.0
C580 C 0.76712 0.72569 0.90918 0.0
C581 C 0.75199 0.74957 0.88691 0.0
C582 C 0.78525 0.80405 0.87971 0.0
C583 C 0.77055 0.82598 0.85816 0.0
C584 C 0.80461 0.88042 0.85133 0.0
C585 C 0.85185 0.91219 0.86523 0.0
C586 C 0.86646 0.89068 0.88607 0.0
C587 C 0.83384 0.83727 0.89327 0.0
H588 H 0.9283 0.75154 0.12979 0.0
C589 C 0.88669 0.73486 0.13581 0.0
H590 H 0.83339 0.71195 0.16842 0.0
H591 H 0.04923 0.72274 0.22295 0.0
H592 H 0.03309 0.64934 0.19341 0.0
H593 H 0.96245 0.61794 0.15929 0.0
H594 H 0.90784 0.65992 0.15435 0.0
C595 C 0.87447 0.7279 0.16187 0.0
C596 C 0.91658 0.74546 0.18281 0.0
C597 C 0.94758 0.71977 0.18572 0.0
C598 C 0.98769 0.7372 0.20576 0.0
C599 C 0.0183 0.71113 0.20809 0.0
C600 C 0.00935 0.66884 0.19131 0.0
C601 C 0.96962 0.65121 0.17209 0.0
C602 C 0.9388 0.67599 0.16933 0.0
H603 H 0.98674 0.76591 0.27607 0.0
C604 C 0.02831 0.78892 0.26973 0.0
H605 H 0.08024 0.8193 0.23658 0.0
H606 H 0.86389 0.80287 0.18303 0.0
H607 H 0.8796 0.87559 0.21287 0.0
H608 H 0.94918 0.9058 0.24748 0.0
H609 H 0.00331 0.86336 0.25254 0.0
C610 C 0.03921 0.79848 0.24365 0.0
C611 C -0.00406 0.77934 0.22329 0.0
C612 C 0.96459 0.80465 0.22058 0.0
C613 C 0.92472 0.78749 0.20044 0.0
C614 C 0.89442 0.81391 0.19806 0.0
C615 C 0.90314 0.85589 0.215 0.0
C616 C 0.94229 0.87288 0.23449 0.0
C617 C 0.97292 0.84791 0.23727 0.0
H618 H 0.21248 0.97343 0.61371 0.0
C619 C 0.22281 0.01432 0.60897 0.0
H620 H 0.23081 0.06773 0.57835 0.0
H621 H 0.22691 0.86471 0.51151 0.0
H622 H 0.30775 0.88485 0.53562 0.0
H623 H 0.34217 0.95316 0.5711 0.0
H624 H 0.29583 0.00131 0.58289 0.0
C625 C 0.22093 0.02724 0.58348 0.0
C626 C 0.20155 0.98649 0.56165 0.0
C627 C 0.23007 0.95963 0.55456 0.0
C628 C 0.21107 0.92122 0.53356 0.0
C629 C 0.23978 0.89443 0.52716 0.0
C630 C 0.28629 0.90568 0.5408 0.0
C631 C 0.30561 0.94407 0.5608 0.0
C632 C 0.27824 0.9711 0.56756 0.0
H633 H 0.17548 0.93071 0.46717 0.0
C634 C 0.15396 0.88794 0.47127 0.0
H635 H 0.12621 0.82938 0.5016 0.0
H636 H 0.13672 0.02988 0.57016 0.0
H637 H 0.05698 0.01066 0.5454 0.0
H638 H 0.02539 0.94556 0.50847 0.0
H639 H 0.07324 0.89904 0.49616 0.0
C640 C 0.14575 0.87163 0.49671 0.0
C641 C 0.16478 0.91103 0.51905 0.0
C642 C 0.1365 0.93808 0.52598 0.0
C643 C 0.15484 0.97576 0.54727 0.0
C644 C 0.12514 0.00143 0.55398 0.0
C645 C 0.07911 0.99063 0.53999 0.0
C646 C 0.06132 0.95396 0.5192 0.0
C647 C 0.08934 0.92771 0.51227 0.0
loop_
_geom_bond_atom_site_label_1
_geom_bond_atom_site_label_2
_geom_bond_distance
_geom_bond_site_symmetry_2
_ccdc_geom_bond_type
Co0 N4 2.148 . S
Co0 N10 2.128 1_554 S
Co0 N20 2.194 . S
Co0 O25 2.351 . S
Co0 O26 2.155 . S
Co0 O27 2.096 . S
C1 N4 1.301 . S
C1 N5 1.328 . S
C1 H6 0.930 . S
C2 C3 1.333 . S
C2 N4 1.317 . S
C2 H7 0.930 . S
C3 C2 1.333 . S
C3 N5 1.350 . S
C3 H29 0.931 . S
N4 Co0 2.148 . S
N4 C1 1.301 . S
N4 C2 1.317 . S
N5 C1 1.328 . S
N5 C3 1.350 . S
H6 C1 0.930 . S
H7 C2 0.930 . S
C8 O9 1.224 . S
C8 O27 1.247 . S
O9 C8 1.224 . S
N10 Co0 2.128 1_556 S
N10 C11 1.355 . S
N10 C13 1.311 . S
C11 N10 1.355 . S
C11 C12 1.363 . S
C11 H23 0.929 . S
C12 C11 1.363 . S
C12 N14 1.375 . S
C12 H30 0.931 . S
C13 N10 1.311 . S
C13 N14 1.347 . S
C13 H24 0.929 . S
N14 C12 1.375 . S
N14 C13 1.347 . S
C15 C18 1.365 . S
C15 N20 1.328 . S
C15 H21 0.929 . S
C16 C17 1.364 . S
C16 C19 1.372 1_556 S
C16 H31 0.933 . S
C17 C16 1.364 . S
C17 C18 1.366 1_556 S
C18 C15 1.365 . S
C18 C17 1.366 1_554 S
C18 H32 0.930 . S
C19 C16 1.372 1_554 S
C19 N20 1.315 . S
C19 H22 0.930 . S
N20 Co0 2.194 . S
N20 C15 1.328 . S
N20 C19 1.315 . S
H21 C15 0.929 . S
H22 C19 0.930 . S
H23 C11 0.929 . S
H24 C13 0.929 . S
O25 Co0 2.351 . S
O25 C28 1.244 . S
O26 Co0 2.155 . S
O26 C28 1.240 . S
O27 Co0 2.096 . S
O27 C8 1.247 . S
C28 O25 1.244 . S
C28 O26 1.240 . S
H29 C3 0.931 . S
H30 C12 0.931 . S
H31 C16 0.933 . S
H32 C18 0.930 . S
Co33 N37 2.148 . S
Co33 N43 2.128 . S
Co33 N53 2.194 . S
Co33 O58 2.351 . S
Co33 O59 2.155 . S
Co33 O60 2.096 . S
C34 N37 1.301 . S
C34 N38 1.328 . S
C34 H39 0.930 . S
C35 C36 1.333 . S
C35 N37 1.317 . S
C35 H40 0.930 . S
C36 C35 1.333 . S
C36 N38 1.350 . S
C36 H62 0.931 . S
N37 Co33 2.148 . S
N37 C34 1.301 . S
N37 C35 1.317 . S
N38 C34 1.328 . S
N38 C36 1.350 . S
H39 C34 0.930 . S
H40 C35 0.930 . S
C41 O42 1.224 . S
C41 O60 1.247 . S
O42 C41 1.224 . S
N43 Co33 2.128 . S
N43 C44 1.355 . S
N43 C46 1.311 . S
C44 N43 1.355 . S
C44 C45 1.363 . S
C44 H56 0.929 . S
C45 C44 1.363 . S
C45 N47 1.375 . S
C45 H63 0.931 . S
C46 N43 1.311 . S
C46 N47 1.347 . S
C46 H57 0.929 . S
N47 C45 1.375 . S
N47 C46 1.347 . S
C48 C51 1.365 . S
C48 N53 1.328 . S
C48 H54 0.929 . S
C49 C50 1.362 . S
C49 C52 1.378 . S
C49 H64 0.929 . S
C50 C49 1.362 . S
C50 C51 1.366 . S
C51 C48 1.365 . S
C51 C50 1.366 . S
C51 H65 0.930 . S
C52 C49 1.378 . S
C52 N53 1.315 . S
C52 H55 0.930 . S
N53 Co33 2.194 . S
N53 C48 1.328 . S
N53 C52 1.315 . S
H54 C48 0.929 . S
H55 C52 0.930 . S
H56 C44 0.929 . S
H57 C46 0.929 . S
O58 Co33 2.351 . S
O58 C61 1.244 . S
O59 Co33 2.155 . S
O59 C61 1.240 . S
O60 Co33 2.096 . S
O60 C41 1.247 . S
C61 O58 1.244 . S
C61 O59 1.240 . S
H62 C36 0.931 . S
H63 C45 0.931 . S
H64 C49 0.929 . S
H65 C51 0.930 . S
Co66 N70 2.148 . S
Co66 N76 2.128 . S
Co66 N86 2.194 . S
Co66 O91 2.351 . S
Co66 O92 2.155 . S
Co66 O93 2.096 . S
C67 N70 1.301 . S
C67 N71 1.328 . S
C67 H72 0.930 . S
C68 C69 1.333 . S
C68 N70 1.317 . S
C68 H73 0.930 . S
C69 C68 1.333 . S
C69 N71 1.350 . S
C69 H95 0.931 . S
N70 Co66 2.148 . S
N70 C67 1.301 . S
N70 C68 1.317 . S
N71 C67 1.328 . S
N71 C69 1.350 . S
H72 C67 0.930 . S
H73 C68 0.930 . S
C74 O75 1.224 . S
C74 O93 1.247 . S
O75 C74 1.224 . S
N76 Co66 2.128 . S
N76 C77 1.355 . S
N76 C79 1.311 . S
C77 N76 1.355 . S
C77 C78 1.363 . S
C77 H89 0.929 . S
C78 C77 1.363 . S
C78 N80 1.375 . S
C78 H96 0.931 . S
C79 N76 1.311 . S
C79 N80 1.347 . S
C79 H90 0.929 . S
N80 C78 1.375 . S
N80 C79 1.347 . S
C81 C84 1.365 . S
C81 N86 1.328 . S
C81 H87 0.929 . S
C82 C83 1.362 . S
C82 C85 1.378 . S
C82 H97 0.929 . S
C83 C82 1.362 . S
C83 C84 1.366 . S
C84 C81 1.365 . S
C84 C83 1.366 . S
C84 H98 0.930 . S
C85 C82 1.378 . S
C85 N86 1.315 . S
C85 H88 0.930 . S
N86 Co66 2.194 . S
N86 C81 1.328 . S
N86 C85 1.315 . S
H87 C81 0.929 . S
H88 C85 0.930 . S
H89 C77 0.929 . S
H90 C79 0.929 . S
O91 Co66 2.351 . S
O91 C94 1.244 . S
O92 Co66 2.155 . S
O92 C94 1.240 . S
O93 Co66 2.096 . S
O93 C74 1.247 . S
C94 O91 1.244 . S
C94 O92 1.240 . S
H95 C69 0.931 . S
H96 C78 0.931 . S
H97 C82 0.929 . S
H98 C84 0.930 . S
Co99 N103 2.148 . S
Co99 N109 2.128 1_554 S
Co99 N119 2.194 . S
Co99 O124 2.351 . S
Co99 O125 2.155 . S
Co99 O126 2.096 . S
C100 N103 1.301 . S
C100 N104 1.328 . S
C100 H105 0.930 . S
C101 C102 1.333 . S
C101 N103 1.317 . S
C101 H106 0.930 . S
C102 C101 1.333 . S
C102 N104 1.350 . S
C102 H128 0.931 . S
N103 Co99 2.148 . S
N103 C100 1.301 . S
N103 C101 1.317 . S
N104 C100 1.328 . S
N104 C102 1.350 . S
H105 C100 0.930 . S
H106 C101 0.930 . S
C107 O108 1.224 . S
C107 O126 1.247 . S
O108 C107 1.224 . S
N109 Co99 2.128 1_556 S
N109 C110 1.355 . S
N109 C112 1.311 . S
C110 N109 1.355 . S
C110 C111 1.363 . S
C110 H122 0.929 . S
C111 C110 1.363 . S
C111 N113 1.375 . S
C111 H129 0.931 . S
C112 N109 1.311 . S
C112 N113 1.347 . S
C112 H123 0.929 . S
N113 C111 1.375 . S
N113 C112 1.347 . S
C114 C117 1.365 . S
C114 N119 1.328 . S
C114 H120 0.929 . S
C115 C116 1.364 . S
C115 C118 1.372 1_556 S
C115 H130 0.933 . S
C116 C115 1.364 . S
C116 C117 1.366 1_556 S
C117 C114 1.365 . S
C117 C116 1.366 1_554 S
C117 H131 0.930 . S
C118 C115 1.372 1_554 S
C118 N119 1.315 . S
C118 H121 0.930 . S
N119 Co99 2.194 . S
N119 C114 1.328 . S
N119 C118 1.315 . S
H120 C114 0.929 . S
H121 C118 0.930 . S
H122 C110 0.929 . S
H123 C112 0.929 . S
O124 Co99 2.351 . S
O124 C127 1.244 . S
O125 Co99 2.155 . S
O125 C127 1.240 . S
O126 Co99 2.096 . S
O126 C107 1.247 . S
C127 O124 1.244 . S
C127 O125 1.240 . S
H128 C102 0.931 . S
H129 C111 0.931 . S
H130 C115 0.933 . S
H131 C117 0.930 . S
Co132 N136 2.148 . S
Co132 N142 2.128 . S
Co132 N152 2.194 . S
Co132 O157 2.351 . S
Co132 O158 2.155 . S
Co132 O159 2.096 . S
C133 N136 1.301 . S
C133 N137 1.328 . S
C133 H138 0.930 . S
C134 C135 1.333 . S
C134 N136 1.317 . S
C134 H139 0.930 . S
C135 C134 1.333 . S
C135 N137 1.350 . S
C135 H161 0.931 . S
N136 Co132 2.148 . S
N136 C133 1.301 . S
N136 C134 1.317 . S
N137 C133 1.328 . S
N137 C135 1.350 . S
H138 C133 0.930 . S
H139 C134 0.930 . S
C140 O141 1.224 . S
C140 O159 1.247 . S
O141 C140 1.224 . S
N142 Co132 2.128 . S
N142 C143 1.355 . S
N142 C145 1.311 . S
C143 N142 1.355 . S
C143 C144 1.363 . S
C143 H155 0.929 . S
C144 C143 1.363 . S
C144 N146 1.375 . S
C144 H162 0.931 . S
C145 N142 1.311 . S
C145 N146 1.347 . S
C145 H156 0.929 . S
N146 C144 1.375 . S
N146 C145 1.347 . S
C147 C150 1.365 . S
C147 N152 1.328 . S
C147 H153 0.929 . S
C148 C149 1.362 . S
C148 C151 1.378 . S
C148 H163 0.929 . S
C149 C148 1.362 . S
C149 C150 1.366 . S
C150 C147 1.365 . S
C150 C149 1.366 . S
C150 H164 0.930 . S
C151 C148 1.378 . S
C151 N152 1.315 . S
C151 H154 0.930 . S
N152 Co132 2.194 . S
N152 C147 1.328 . S
N152 C151 1.315 . S
H153 C147 0.929 . S
H154 C151 0.930 . S
H155 C143 0.929 . S
H156 C145 0.929 . S
O157 Co132 2.351 . S
O157 C160 1.244 . S
O158 Co132 2.155 . S
O158 C160 1.240 . S
O159 Co132 2.096 . S
O159 C140 1.247 . S
C160 O157 1.244 . S
C160 O158 1.240 . S
H161 C135 0.931 . S
H162 C144 0.931 . S
H163 C148 0.929 . S
H164 C150 0.930 . S
Co165 N169 2.148 . S
Co165 N175 2.128 . S
Co165 N185 2.194 . S
Co165 O190 2.351 . S
Co165 O191 2.155 . S
Co165 O192 2.096 . S
C166 N169 1.301 . S
C166 N170 1.328 . S
C166 H171 0.930 . S
C167 C168 1.333 . S
C167 N169 1.317 . S
C167 H172 0.930 . S
C168 C167 1.333 . S
C168 N170 1.350 . S
C168 H194 0.931 . S
N169 Co165 2.148 . S
N169 C166 1.301 . S
N169 C167 1.317 . S
N170 C166 1.328 . S
N170 C168 1.350 . S
H171 C166 0.930 . S
H172 C167 0.930 . S
C173 O174 1.224 . S
C173 O192 1.247 . S
O174 C173 1.224 . S
N175 Co165 2.128 . S
N175 C176 1.355 . S
N175 C178 1.311 . S
C176 N175 1.355 . S
C176 C177 1.363 . S
C176 H188 0.929 . S
C177 C176 1.363 . S
C177 N179 1.375 . S
C177 H195 0.931 . S
C178 N175 1.311 . S
C178 N179 1.347 . S
C178 H189 0.929 . S
N179 C177 1.375 . S
N179 C178 1.347 . S
C180 C183 1.365 . S
C180 N185 1.328 . S
C180 H186 0.929 . S
C181 C182 1.362 . S
C181 C184 1.378 . S
C181 H196 0.929 . S
C182 C181 1.362 . S
C182 C183 1.366 . S
C183 C180 1.365 . S
C183 C182 1.366 . S
C183 H197 0.930 . S
C184 C181 1.378 . S
C184 N185 1.315 . S
C184 H187 0.930 . S
N185 Co165 2.194 . S
N185 C180 1.328 . S
N185 C184 1.315 . S
H186 C180 0.929 . S
H187 C184 0.930 . S
H188 C176 0.929 . S
H189 C178 0.929 . S
O190 Co165 2.351 . S
O190 C193 1.244 . S
O191 Co165 2.155 . S
O191 C193 1.240 . S
O192 Co165 2.096 . S
O192 C173 1.247 . S
C193 O190 1.244 . S
C193 O191 1.240 . S
H194 C168 0.931 . S
H195 C177 0.931 . S
H196 C181 0.929 . S
H197 C183 0.930 . S
H198 C199 0.951 . S
C199 H198 0.951 . S
C199 C205 1.265 . S
H200 C205 0.950 . S
H201 C209 0.949 . S
H202 C210 0.950 . S
H203 C211 0.951 . S
H204 C212 0.951 . S
C205 C199 1.265 . S
C205 H200 0.950 . S
C205 C206 1.478 . S
C206 C205 1.478 . S
C206 C207 1.397 . S
C206 C223 1.394 1_554 S
C207 C206 1.397 . S
C207 C208 1.438 . S
C207 C212 1.429 . S
C208 C207 1.438 . S
C208 C209 1.428 . S
C208 C221 1.394 . S
C209 H201 0.949 . S
C209 C208 1.428 . S
C209 C210 1.345 . S
C210 H202 0.950 . S
C210 C209 1.345 . S
C210 C211 1.424 . S
C211 H203 0.951 . S
C211 C210 1.424 . S
C211 C212 1.347 . S
C212 H204 0.951 . S
C212 C207 1.429 . S
C212 C211 1.347 . S
H213 C214 0.951 . S
C214 H213 0.951 . S
C214 C220 1.265 . S
H215 C220 0.950 . S
H216 C224 0.949 . S
H217 C225 0.950 . S
H218 C226 0.951 . S
H219 C227 0.951 . S
C220 C214 1.265 . S
C220 H215 0.950 . S
C220 C221 1.478 . S
C221 C208 1.394 . S
C221 C220 1.478 . S
C221 C222 1.397 1_554 S
C222 C221 1.397 1_556 S
C222 C223 1.438 . S
C222 C227 1.429 . S
C223 C206 1.394 1_556 S
C223 C222 1.438 . S
C223 C224 1.428 . S
C224 H216 0.949 . S
C224 C223 1.428 . S
C224 C225 1.345 . S
C225 H217 0.950 . S
C225 C224 1.345 . S
C225 C226 1.424 . S
C226 H218 0.951 . S
C226 C225 1.424 . S
C226 C227 1.347 . S
C227 H219 0.951 . S
C227 C222 1.429 . S
C227 C226 1.347 . S
H228 C229 0.951 . S
C229 H228 0.951 . S
C229 C235 1.265 . S
H230 C235 0.950 1_455 S
H231 C239 0.949 . S
H232 C240 0.950 . S
H233 C241 0.951 . S
H234 C242 0.951 . S
C235 C229 1.265 . S
C235 H230 0.950 1_655 S
C235 C236 1.478 . S
C236 C235 1.478 . S
C236 C237 1.397 1_655 S
C236 C253 1.394 . S
C237 C236 1.397 1_455 S
C237 C238 1.438 . S
C237 C242 1.429 . S
C238 C237 1.438 . S
C238 C239 1.428 . S
C238 C251 1.394 . S
C239 H231 0.949 . S
C239 C238 1.428 . S
C239 C240 1.345 . S
C240 H232 0.950 . S
C240 C239 1.345 . S
C240 C241 1.424 . S
C241 H233 0.951 . S
C241 C240 1.424 . S
C241 C242 1.347 . S
C242 H234 0.951 . S
C242 C237 1.429 . S
C242 C241 1.347 . S
H243 C244 0.951 . S
C244 H243 0.951 . S
C244 C250 1.265 . S
H245 C250 0.950 1_655 S
H246 C254 0.949 . S
H247 C255 0.950 . S
H248 C256 0.951 . S
H249 C257 0.951 . S
C250 C244 1.265 . S
C250 H245 0.950 1_455 S
C250 C251 1.478 . S
C251 C238 1.394 . S
C251 C250 1.478 . S
C251 C252 1.397 1_455 S
C252 C251 1.397 1_655 S
C252 C253 1.438 . S
C252 C257 1.429 . S
C253 C236 1.394 . S
C253 C252 1.438 . S
C253 C254 1.428 . S
C254 H246 0.949 . S
C254 C253 1.428 . S
C254 C255 1.345 . S
C255 H247 0.950 . S
C255 C254 1.345 . S
C255 C256 1.424 . S
C256 H248 0.951 . S
C256 C255 1.424 . S
C256 C257 1.347 . S
C257 H249 0.951 . S
C257 C252 1.429 . S
C257 C256 1.347 . S
H258 C259 0.951 . S
C259 H258 0.951 . S
C259 C265 1.265 . S
H260 C265 0.950 1_565 S
H261 C269 0.949 . S
H262 C270 0.950 . S
H263 C271 0.951 . S
H264 C272 0.951 . S
C265 C259 1.265 . S
C265 H260 0.950 1_545 S
C265 C266 1.478 . S
C266 C265 1.478 . S
C266 C267 1.397 1_545 S
C266 C283 1.394 . S
C267 C266 1.397 1_565 S
C267 C268 1.438 . S
C267 C272 1.429 . S
C268 C267 1.438 . S
C268 C269 1.428 . S
C268 C281 1.394 . S
C269 H261 0.949 . S
C269 C268 1.428 . S
C269 C270 1.345 . S
C270 H262 0.950 . S
C270 C269 1.345 . S
C270 C271 1.424 . S
C271 H263 0.951 . S
C271 C270 1.424 . S
C271 C272 1.347 . S
C272 H264 0.951 . S
C272 C267 1.429 . S
C272 C271 1.347 . S
H273 C274 0.951 . S
C274 H273 0.951 . S
C274 C280 1.265 . S
H275 C280 0.950 1_545 S
H276 C284 0.949 . S
H277 C285 0.950 . S
H278 C286 0.951 . S
H279 C287 0.951 . S
C280 C274 1.265 . S
C280 H275 0.950 1_565 S
C280 C281 1.478 . S
C281 C268 1.394 . S
C281 C280 1.478 . S
C281 C282 1.397 1_565 S
C282 C281 1.397 1_545 S
C282 C283 1.438 . S
C282 C287 1.429 . S
C283 C266 1.394 . S
C283 C282 1.438 . S
C283 C284 1.428 . S
C284 H276 0.949 . S
C284 C283 1.428 . S
C284 C285 1.345 . S
C285 H277 0.950 . S
C285 C284 1.345 . S
C285 C286 1.424 . S
C286 H278 0.951 . S
C286 C285 1.424 . S
C286 C287 1.347 . S
C287 H279 0.951 . S
C287 C282 1.429 . S
C287 C286 1.347 . S
H288 C289 0.951 . S
C289 H288 0.951 . S
C289 C295 1.265 . S
H290 C295 0.950 . S
H291 C299 0.949 . S
H292 C300 0.950 . S
H293 C301 0.951 . S
H294 C302 0.951 . S
C295 C289 1.265 . S
C295 H290 0.950 . S
C295 C296 1.478 . S
C296 C295 1.478 . S
C296 C297 1.397 . S
C296 C313 1.394 . S
C297 C296 1.397 . S
C297 C298 1.438 . S
C297 C302 1.429 . S
C298 C297 1.438 . S
C298 C299 1.428 . S
C298 C311 1.394 . S
C299 H291 0.949 . S
C299 C298 1.428 . S
C299 C300 1.345 . S
C300 H292 0.950 . S
C300 C299 1.345 . S
C300 C301 1.424 . S
C301 H293 0.951 . S
C301 C300 1.424 . S
C301 C302 1.347 . S
C302 H294 0.951 . S
C302 C297 1.429 . S
C302 C301 1.347 . S
H303 C304 0.951 . S
C304 H303 0.951 . S
C304 C310 1.265 . S
H305 C310 0.950 . S
H306 C314 0.949 . S
H307 C315 0.950 . S
H308 C316 0.951 . S
H309 C317 0.951 . S
C310 C304 1.265 . S
C310 H305 0.950 . S
C310 C311 1.478 . S
C311 C298 1.394 . S
C311 C310 1.478 . S
C311 C312 1.397 . S
C312 C311 1.397 . S
C312 C313 1.438 . S
C312 C317 1.429 . S
C313 C296 1.394 . S
C313 C312 1.438 . S
C313 C314 1.428 . S
C314 H306 0.949 . S
C314 C313 1.428 . S
C314 C315 1.345 . S
C315 H307 0.950 . S
C315 C314 1.345 . S
C315 C316 1.424 . S
C316 H308 0.951 . S
C316 C315 1.424 . S
C316 C317 1.347 . S
C317 H309 0.951 . S
C317 C312 1.429 . S
C317 C316 1.347 . S
H318 C319 0.951 . S
C319 H318 0.951 . S
C319 C325 1.265 . S
H320 C325 0.950 . S
H321 C329 0.949 . S
H322 C330 0.950 . S
H323 C331 0.951 . S
H324 C332 0.951 . S
C325 C319 1.265 . S
C325 H320 0.950 . S
C325 C326 1.478 . S
C326 C325 1.478 . S
C326 C327 1.397 . S
C326 C343 1.394 1_556 S
C327 C326 1.397 . S
C327 C328 1.438 1_655 S
C327 C332 1.429 . S
C328 C327 1.438 1_455 S
C328 C329 1.428 . S
C328 C341 1.394 . S
C329 H321 0.949 . S
C329 C328 1.428 . S
C329 C330 1.345 1_455 S
C330 H322 0.950 . S
C330 C329 1.345 1_655 S
C330 C331 1.424 . S
C331 H323 0.951 . S
C331 C330 1.424 . S
C331 C332 1.347 . S
C332 H324 0.951 . S
C332 C327 1.429 . S
C332 C331 1.347 . S
H333 C334 0.951 . S
C334 H333 0.951 . S
C334 C340 1.265 . S
H335 C340 0.950 . S
H336 C344 0.949 . S
H337 C345 0.950 . S
H338 C346 0.951 . S
H339 C347 0.951 . S
C340 C334 1.265 . S
C340 H335 0.950 . S
C340 C341 1.478 . S
C341 C328 1.394 . S
C341 C340 1.478 . S
C341 C342 1.397 1_556 S
C342 C341 1.397 1_554 S
C342 C343 1.438 1_455 S
C342 C347 1.429 . S
C343 C326 1.394 1_554 S
C343 C342 1.438 1_655 S
C343 C344 1.428 . S
C344 H336 0.949 . S
C344 C343 1.428 . S
C344 C345 1.345 1_655 S
C345 H337 0.950 . S
C345 C344 1.345 1_455 S
C345 C346 1.424 . S
C346 H338 0.951 . S
C346 C345 1.424 . S
C346 C347 1.347 . S
C347 H339 0.951 . S
C347 C342 1.429 . S
C347 C346 1.347 . S
H348 C349 0.951 . S
C349 H348 0.951 . S
C349 C355 1.265 . S
H350 C355 0.950 1_545 S
H351 C359 0.949 . S
H352 C360 0.950 . S
H353 C361 0.951 . S
H354 C362 0.951 . S
C355 C349 1.265 . S
C355 H350 0.950 1_565 S
C355 C356 1.478 . S
C356 C355 1.478 . S
C356 C357 1.397 1_565 S
C356 C373 1.394 . S
C357 C356 1.397 1_545 S
C357 C358 1.438 . S
C357 C362 1.429 . S
C358 C357 1.438 . S
C358 C359 1.428 . S
C358 C371 1.394 . S
C359 H351 0.949 . S
C359 C358 1.428 . S
C359 C360 1.345 . S
C360 H352 0.950 . S
C360 C359 1.345 . S
C360 C361 1.424 . S
C361 H353 0.951 . S
C361 C360 1.424 . S
C361 C362 1.347 . S
C362 H354 0.951 . S
C362 C357 1.429 . S
C362 C361 1.347 . S
H363 C364 0.951 . S
C364 H363 0.951 . S
C364 C370 1.265 . S
H365 C370 0.950 1_565 S
H366 C374 0.949 . S
H367 C375 0.950 . S
H368 C376 0.951 . S
H369 C377 0.951 . S
C370 C364 1.265 . S
C370 H365 0.950 1_545 S
C370 C371 1.478 . S
C371 C358 1.394 . S
C371 C370 1.478 . S
C371 C372 1.397 1_545 S
C372 C371 1.397 1_565 S
C372 C373 1.438 . S
C372 C377 1.429 . S
C373 C356 1.394 . S
C373 C372 1.438 . S
C373 C374 1.428 . S
C374 H366 0.949 . S
C374 C373 1.428 . S
C374 C375 1.345 . S
C375 H367 0.950 . S
C375 C374 1.345 . S
C375 C376 1.424 . S
C376 H368 0.951 . S
C376 C375 1.424 . S
C376 C377 1.347 . S
C377 H369 0.951 . S
C377 C372 1.429 . S
C377 C376 1.347 . S
H378 C379 0.951 . S
C379 H378 0.951 . S
C379 C385 1.265 . S
H380 C385 0.950 . S
H381 C389 0.949 . S
H382 C390 0.950 . S
H383 C391 0.951 . S
H384 C392 0.951 1_455 S
C385 C379 1.265 . S
C385 H380 0.950 . S
C385 C386 1.478 . S
C386 C385 1.478 . S
C386 C387 1.397 1_454 S
C386 C403 1.394 . S
C387 C386 1.397 1_656 S
C387 C388 1.438 1_545 S
C387 C392 1.429 . S
C388 C387 1.438 1_565 S
C388 C389 1.428 . S
C388 C401 1.394 1_556 S
C389 H381 0.949 . S
C389 C388 1.428 . S
C389 C390 1.345 . S
C390 H382 0.950 . S
C390 C389 1.345 . S
C390 C391 1.424 1_565 S
C391 H383 0.951 . S
C391 C390 1.424 1_545 S
C391 C392 1.347 . S
C392 H384 0.951 1_655 S
C392 C387 1.429 . S
C392 C391 1.347 . S
H393 C394 0.951 . S
C394 H393 0.951 . S
C394 C400 1.265 . S
H395 C400 0.950 . S
H396 C404 0.949 . S
H397 C405 0.950 . S
H398 C406 0.951 . S
H399 C407 0.951 1_655 S
C400 C394 1.265 . S
C400 H395 0.950 . S
C400 C401 1.478 . S
C401 C388 1.394 1_554 S
C401 C400 1.478 . S
C401 C402 1.397 1_655 S
C402 C401 1.397 1_455 S
C402 C403 1.438 1_565 S
C402 C407 1.429 . S
C403 C386 1.394 . S
C403 C402 1.438 1_545 S
C403 C404 1.428 . S
C404 H396 0.949 . S
C404 C403 1.428 . S
C404 C405 1.345 . S
C405 H397 0.950 . S
C405 C404 1.345 . S
C405 C406 1.424 1_545 S
C406 H398 0.951 . S
C406 C405 1.424 1_565 S
C406 C407 1.347 . S
C407 H399 0.951 1_455 S
C407 C402 1.429 . S
C407 C406 1.347 . S
H408 C409 0.951 . S
C409 H408 0.951 . S
C409 C415 1.265 . S
H410 C415 0.950 . S
H411 C419 0.949 . S
H412 C420 0.950 . S
H413 C421 0.951 . S
H414 C422 0.951 . S
C415 C409 1.265 . S
C415 H410 0.950 . S
C415 C416 1.478 . S
C416 C415 1.478 . S
C416 C417 1.397 1_565 S
C416 C433 1.394 1_455 S
C417 C416 1.397 1_545 S
C417 C418 1.438 . S
C417 C422 1.429 . S
C418 C417 1.438 . S
C418 C419 1.428 . S
C418 C431 1.394 1_455 S
C419 H411 0.949 . S
C419 C418 1.428 . S
C419 C420 1.345 . S
C420 H412 0.950 . S
C420 C419 1.345 . S
C420 C421 1.424 . S
C421 H413 0.951 . S
C421 C420 1.424 . S
C421 C422 1.347 . S
C422 H414 0.951 . S
C422 C417 1.429 . S
C422 C421 1.347 . S
H423 C424 0.951 . S
C424 H423 0.951 . S
C424 C430 1.265 . S
H425 C430 0.950 . S
H426 C434 0.949 . S
H427 C435 0.950 . S
H428 C436 0.951 . S
H429 C437 0.951 . S
C430 C424 1.265 . S
C430 H425 0.950 . S
C430 C431 1.478 . S
C431 C418 1.394 1_655 S
C431 C430 1.478 . S
C431 C432 1.397 1_545 S
C432 C431 1.397 1_565 S
C432 C433 1.438 . S
C432 C437 1.429 . S
C433 C416 1.394 1_655 S
C433 C432 1.438 . S
C433 C434 1.428 . S
C434 H426 0.949 . S
C434 C433 1.428 . S
C434 C435 1.345 . S
C435 H427 0.950 . S
C435 C434 1.345 . S
C435 C436 1.424 . S
C436 H428 0.951 . S
C436 C435 1.424 . S
C436 C437 1.347 . S
C437 H429 0.951 . S
C437 C432 1.429 . S
C437 C436 1.347 . S
H438 C439 0.951 . S
C439 H438 0.951 . S
C439 C445 1.265 . S
H440 C445 0.950 . S
H441 C449 0.949 . S
H442 C450 0.950 . S
H443 C451 0.951 . S
H444 C452 0.951 . S
C445 C439 1.265 . S
C445 H440 0.950 . S
C445 C446 1.478 . S
C446 C445 1.478 . S
C446 C447 1.397 1_545 S
C446 C463 1.394 . S
C447 C446 1.397 1_565 S
C447 C448 1.438 1_455 S
C447 C452 1.429 . S
C448 C447 1.438 1_655 S
C448 C449 1.428 . S
C448 C461 1.394 . S
C449 H441 0.949 . S
C449 C448 1.428 . S
C449 C450 1.345 . S
C450 H442 0.950 . S
C450 C449 1.345 . S
C450 C451 1.424 1_655 S
C451 H443 0.951 . S
C451 C450 1.424 1_455 S
C451 C452 1.347 . S
C452 H444 0.951 . S
C452 C447 1.429 . S
C452 C451 1.347 . S
H453 C454 0.951 . S
C454 H453 0.951 . S
C454 C460 1.265 . S
H455 C460 0.950 . S
H456 C464 0.949 . S
H457 C465 0.950 . S
H458 C466 0.951 . S
H459 C467 0.951 . S
C460 C454 1.265 . S
C460 H455 0.950 . S
C460 C461 1.478 . S
C461 C448 1.394 . S
C461 C460 1.478 . S
C461 C462 1.397 1_565 S
C462 C461 1.397 1_545 S
C462 C463 1.438 1_655 S
C462 C467 1.429 . S
C463 C446 1.394 . S
C463 C462 1.438 1_455 S
C463 C464 1.428 . S
C464 H456 0.949 . S
C464 C463 1.428 . S
C464 C465 1.345 . S
C465 H457 0.950 . S
C465 C464 1.345 . S
C465 C466 1.424 1_455 S
C466 H458 0.951 . S
C466 C465 1.424 1_655 S
C466 C467 1.347 . S
C467 H459 0.951 . S
C467 C462 1.429 . S
C467 C466 1.347 . S
H468 C469 0.951 . S
C469 H468 0.951 . S
C469 C475 1.265 . S
H470 C475 0.950 . S
H471 C479 0.949 . S
H472 C480 0.950 . S
H473 C481 0.951 . S
H474 C482 0.951 . S
C475 C469 1.265 . S
C475 H470 0.950 . S
C475 C476 1.478 . S
C476 C475 1.478 . S
C476 C477 1.397 . S
C476 C493 1.394 . S
C477 C476 1.397 . S
C477 C478 1.438 . S
C477 C482 1.429 . S
C478 C477 1.438 . S
C478 C479 1.428 . S
C478 C491 1.394 . S
C479 H471 0.949 . S
C479 C478 1.428 . S
C479 C480 1.345 . S
C480 H472 0.950 . S
C480 C479 1.345 . S
C480 C481 1.424 . S
C481 H473 0.951 . S
C481 C480 1.424 . S
C481 C482 1.347 . S
C482 H474 0.951 . S
C482 C477 1.429 . S
C482 C481 1.347 . S
H483 C484 0.951 . S
C484 H483 0.951 . S
C484 C490 1.265 . S
H485 C490 0.950 . S
H486 C494 0.949 . S
H487 C495 0.950 . S
H488 C496 0.951 . S
H489 C497 0.951 . S
C490 C484 1.265 . S
C490 H485 0.950 . S
C490 C491 1.478 . S
C491 C478 1.394 . S
C491 C490 1.478 . S
C491 C492 1.397 . S
C492 C491 1.397 . S
C492 C493 1.438 . S
C492 C497 1.429 . S
C493 C476 1.394 . S
C493 C492 1.438 . S
C493 C494 1.428 . S
C494 H486 0.949 . S
C494 C493 1.428 . S
C494 C495 1.345 . S
C495 H487 0.950 . S
C495 C494 1.345 . S
C495 C496 1.424 . S
C496 H488 0.951 . S
C496 C495 1.424 . S
C496 C497 1.347 . S
C497 H489 0.951 . S
C497 C492 1.429 . S
C497 C496 1.347 . S
H498 C499 0.951 . S
C499 H498 0.951 . S
C499 C505 1.265 . S
H500 C505 0.950 . S
H501 C509 0.949 . S
H502 C510 0.950 . S
H503 C511 0.951 . S
H504 C512 0.951 . S
C505 C499 1.265 . S
C505 H500 0.950 . S
C505 C506 1.478 . S
C506 C505 1.478 . S
C506 C507 1.397 . S
C506 C523 1.402 . S
C507 C506 1.397 . S
C507 C508 1.438 . S
C507 C512 1.429 . S
C508 C507 1.438 . S
C508 C509 1.428 . S
C508 C521 1.394 1_455 S
C509 H501 0.949 . S
C509 C508 1.428 . S
C509 C510 1.345 . S
C510 H502 0.950 . S
C510 C509 1.345 . S
C510 C511 1.424 . S
C511 H503 0.951 . S
C511 C510 1.424 . S
C511 C512 1.347 . S
C512 H504 0.951 . S
C512 C507 1.429 . S
C512 C511 1.347 . S
H513 C514 0.951 . S
C514 H513 0.951 . S
C514 C520 1.265 . S
H515 C520 0.950 . S
H516 C524 0.949 1_455 S
H517 C525 0.950 . S
H518 C526 0.951 . S
H519 C527 0.951 . S
C520 C514 1.265 . S
C520 H515 0.950 . S
C520 C521 1.478 . S
C521 C508 1.394 1_655 S
C521 C520 1.478 . S
C521 C522 1.397 . S
C522 C521 1.397 . S
C522 C523 1.428 1_655 S
C522 C527 1.429 . S
C523 C506 1.402 . S
C523 C522 1.428 1_455 S
C523 C524 1.430 1_455 S
C524 H516 0.949 1_655 S
C524 C523 1.430 1_655 S
C524 C525 1.345 . S
C525 H517 0.950 . S
C525 C524 1.345 . S
C525 C526 1.424 . S
C526 H518 0.951 . S
C526 C525 1.424 . S
C526 C527 1.347 . S
C527 H519 0.951 . S
C527 C522 1.429 . S
C527 C526 1.347 . S
H528 C529 0.951 . S
C529 H528 0.951 . S
C529 C535 1.265 . S
H530 C535 0.950 . S
H531 C539 0.949 . S
H532 C540 0.950 . S
H533 C541 0.951 . S
H534 C542 0.951 . S
C535 C529 1.265 . S
C535 H530 0.950 . S
C535 C536 1.478 . S
C536 C535 1.478 . S
C536 C537 1.397 . S
C536 C553 1.394 1_545 S
C537 C536 1.397 . S
C537 C538 1.438 . S
C537 C542 1.429 . S
C538 C537 1.438 . S
C538 C539 1.428 . S
C538 C551 1.394 1_545 S
C539 H531 0.949 . S
C539 C538 1.428 . S
C539 C540 1.345 . S
C540 H532 0.950 . S
C540 C539 1.345 . S
C540 C541 1.424 . S
C541 H533 0.951 . S
C541 C540 1.424 . S
C541 C542 1.347 . S
C542 H534 0.951 . S
C542 C537 1.429 . S
C542 C541 1.347 . S
H543 C544 0.951 . S
C544 H543 0.951 . S
C544 C550 1.265 . S
H545 C550 0.950 . S
H546 C554 0.949 . S
H547 C555 0.950 . S
H548 C556 0.951 . S
H549 C557 0.951 . S
C550 C544 1.265 . S
C550 H545 0.950 . S
C550 C551 1.478 . S
C551 C538 1.394 1_565 S
C551 C550 1.478 . S
C551 C552 1.397 . S
C552 C551 1.397 . S
C552 C553 1.438 . S
C552 C557 1.429 . S
C553 C536 1.394 1_565 S
C553 C552 1.438 . S
C553 C554 1.428 . S
C554 H546 0.949 . S
C554 C553 1.428 . S
C554 C555 1.345 . S
C555 H547 0.950 . S
C555 C554 1.345 . S
C555 C556 1.424 . S
C556 H548 0.951 . S
C556 C555 1.424 . S
C556 C557 1.347 . S
C557 H549 0.951 . S
C557 C552 1.429 . S
C557 C556 1.347 . S
H558 C559 0.951 . S
C559 H558 0.951 . S
C559 C565 1.265 . S
H560 C565 0.950 . S
H561 C569 0.949 . S
H562 C570 0.950 . S
H563 C571 0.951 . S
H564 C572 0.951 . S
C565 C559 1.265 . S
C565 H560 0.950 . S
C565 C566 1.478 . S
C566 C565 1.478 . S
C566 C567 1.397 . S
C566 C583 1.394 . S
C567 C566 1.397 . S
C567 C568 1.438 . S
C567 C572 1.429 . S
C568 C567 1.438 . S
C568 C569 1.428 . S
C568 C581 1.394 . S
C569 H561 0.949 . S
C569 C568 1.428 . S
C569 C570 1.345 . S
C570 H562 0.950 . S
C570 C569 1.345 . S
C570 C571 1.424 . S
C571 H563 0.951 . S
C571 C570 1.424 . S
C571 C572 1.347 . S
C572 H564 0.951 . S
C572 C567 1.429 . S
C572 C571 1.347 . S
H573 C574 0.951 . S
C574 H573 0.951 . S
C574 C580 1.265 . S
H575 C580 0.950 . S
H576 C584 0.949 . S
H577 C585 0.950 . S
H578 C586 0.951 . S
H579 C587 0.951 . S
C580 C574 1.265 . S
C580 H575 0.950 . S
C580 C581 1.478 . S
C581 C568 1.394 . S
C581 C580 1.478 . S
C581 C582 1.397 . S
C582 C581 1.397 . S
C582 C583 1.438 . S
C582 C587 1.429 . S
C583 C566 1.394 . S
C583 C582 1.438 . S
C583 C584 1.428 . S
C584 H576 0.949 . S
C584 C583 1.428 . S
C584 C585 1.345 . S
C585 H577 0.950 . S
C585 C584 1.345 . S
C585 C586 1.424 . S
C586 H578 0.951 . S
C586 C585 1.424 . S
C586 C587 1.347 . S
C587 H579 0.951 . S
C587 C582 1.429 . S
C587 C586 1.347 . S
H588 C589 0.951 . S
C589 H588 0.951 . S
C589 C595 1.265 . S
H590 C595 0.950 . S
H591 C599 0.949 . S
H592 C600 0.950 . S
H593 C601 0.951 . S
H594 C602 0.951 . S
C595 C589 1.265 . S
C595 H590 0.950 . S
C595 C596 1.478 . S
C596 C595 1.478 . S
C596 C597 1.397 1_655 S
C596 C613 1.394 . S
C597 C596 1.397 1_455 S
C597 C598 1.438 . S
C597 C602 1.429 . S
C598 C597 1.438 . S
C598 C599 1.428 . S
C598 C611 1.394 . S
C599 H591 0.949 . S
C599 C598 1.428 . S
C599 C600 1.345 . S
C600 H592 0.950 . S
C600 C599 1.345 . S
C600 C601 1.424 . S
C601 H593 0.951 . S
C601 C600 1.424 . S
C601 C602 1.347 . S
C602 H594 0.951 . S
C602 C597 1.429 . S
C602 C601 1.347 . S
H603 C604 0.951 . S
C604 H603 0.951 . S
C604 C610 1.265 . S
H605 C610 0.950 . S
H606 C614 0.949 . S
H607 C615 0.950 . S
H608 C616 0.951 . S
H609 C617 0.951 . S
C610 C604 1.265 . S
C610 H605 0.950 . S
C610 C611 1.478 . S
C611 C598 1.394 . S
C611 C610 1.478 . S
C611 C612 1.397 1_455 S
C612 C611 1.397 1_655 S
C612 C613 1.438 . S
C612 C617 1.429 . S
C613 C596 1.394 . S
C613 C612 1.438 . S
C613 C614 1.428 . S
C614 H606 0.949 . S
C614 C613 1.428 . S
C614 C615 1.345 . S
C615 H607 0.950 . S
C615 C614 1.345 . S
C615 C616 1.424 . S
C616 H608 0.951 . S
C616 C615 1.424 . S
C616 C617 1.347 . S
C617 H609 0.951 . S
C617 C612 1.429 . S
C617 C616 1.347 . S
H618 C619 0.951 . S
C619 H618 0.951 . S
C619 C625 1.265 . S
H620 C625 0.950 . S
H621 C629 0.949 . S
H622 C630 0.950 . S
H623 C631 0.951 . S
H624 C632 0.951 . S
C625 C619 1.265 . S
C625 H620 0.950 . S
C625 C626 1.478 . S
C626 C625 1.478 . S
C626 C627 1.397 1_545 S
C626 C643 1.394 . S
C627 C626 1.397 1_565 S
C627 C628 1.438 . S
C627 C632 1.429 . S
C628 C627 1.438 . S
C628 C629 1.428 . S
C628 C641 1.394 . S
C629 H621 0.949 . S
C629 C628 1.428 . S
C629 C630 1.345 . S
C630 H622 0.950 . S
C630 C629 1.345 . S
C630 C631 1.424 . S
C631 H623 0.951 . S
C631 C630 1.424 . S
C631 C632 1.347 . S
C632 H624 0.951 . S
C632 C627 1.429 . S
C632 C631 1.347 . S
H633 C634 0.951 . S
C634 H633 0.951 . S
C634 C640 1.265 . S
H635 C640 0.950 . S
H636 C644 0.949 . S
H637 C645 0.950 . S
H638 C646 0.951 . S
H639 C647 0.951 . S
C640 C634 1.265 . S
C640 H635 0.950 . S
C640 C641 1.478 . S
C641 C628 1.394 . S
C641 C640 1.478 . S
C641 C642 1.397 1_565 S
C642 C641 1.397 1_545 S
C642 C643 1.438 . S
C642 C647 1.429 . S
C643 C626 1.394 . S
C643 C642 1.438 . S
C643 C644 1.428 . S
C644 H636 0.949 . S
C644 C643 1.428 . S
C644 C645 1.345 . S
C645 H637 0.950 . S
C645 C644 1.345 . S
C645 C646 1.424 . S
C646 H638 0.951 . S
C646 C645 1.424 . S
C646 C647 1.347 . S
C647 H639 0.951 . S
C647 C642 1.429 . S
C647 C646 1.347 . S
C199 C8 1.921 . S
C214 C107 1.922 . S
C229 C41 1.889 . S
C244 C140 1.888 . S
C259 C173 1.888 . S
C274 C74 1.888 . S
C289 C83 0.722 . S
C304 C182 0.730 . S
C319 C116 0.725 . S
C334 C17 0.727 . S
C349 C149 0.712 . S
C364 C50 0.705 . S
C379 C28 0.709 . S
C394 C127 0.704 . S
C409 C160 0.694 . S
C424 C61 0.739 . S
C439 C193 0.739 . S
C454 C94 0.734 . S
C469 N14 1.680 . S
C484 N170 1.756 . S
C499 N5 1.767 . S
C514 N47 1.646 . S
C529 N38 1.757 . S
C544 N80 1.620 . S
C559 N71 1.773 . S
C574 N113 1.697 . S
C589 N104 1.771 . S
C604 N146 1.717 . S
C619 N179 1.628 . S
C634 N137 1.752 . S
