# Generated by pormake.
# Topology soq, (7)-cn, num edge types: 1
# Building blocks:
#     Node 0, Type 0, BuildingBlock: NUHQUE_clean_sbu_2, # of connection points: 7
#     Node 1, Type 0, BuildingBlock: NUHQUE_clean_sbu_2, # of connection points: 7
#     Node 2, Type 0, BuildingBlock: NUHQUE_clean_sbu_2, # of connection points: 7
#     Node 3, Type 0, BuildingBlock: NUHQUE_clean_sbu_2, # of connection points: 7
#     Node 4, Type 0, BuildingBlock: NUHQUE_clean_sbu_2, # of connection points: 7
#     Node 5, Type 0, BuildingBlock: NUHQUE_clean_sbu_2, # of connection points: 7
#     Node 6, Type 0, BuildingBlock: NUHQUE_clean_sbu_2, # of connection points: 7
#     Node 7, Type 0, BuildingBlock: NUHQUE_clean_sbu_2, # of connection points: 7
#     Node 8, Type 0, BuildingBlock: NUHQUE_clean_sbu_2, # of connection points: 7
#     Node 9, Type 0, BuildingBlock: NUHQUE_clean_sbu_2, # of connection points: 7
#     Node 10, Type 0, BuildingBlock: NUHQUE_clean_sbu_2, # of connection points: 7
#     Node 11, Type 0, BuildingBlock: NUHQUE_clean_sbu_2, # of connection points: 7
#     Node 12, Type 0, BuildingBlock: NUHQUE_clean_sbu_2, # of connection points: 7
#     Node 13, Type 0, BuildingBlock: NUHQUE_clean_sbu_2, # of connection points: 7
#     Node 14, Type 0, BuildingBlock: NUHQUE_clean_sbu_2, # of connection points: 7
#     Node 15, Type 0, BuildingBlock: NUHQUE_clean_sbu_2, # of connection points: 7
#     Node 16, Type 0, BuildingBlock: NUHQUE_clean_sbu_2, # of connection points: 7
#     Node 17, Type 0, BuildingBlock: NUHQUE_clean_sbu_2, # of connection points: 7
#     Node 18, Type 0, BuildingBlock: NUHQUE_clean_sbu_2, # of connection points: 7
#     Node 19, Type 0, BuildingBlock: NUHQUE_clean_sbu_2, # of connection points: 7
#     Node 20, Type 0, BuildingBlock: NUHQUE_clean_sbu_2, # of connection points: 7
#     Node 21, Type 0, BuildingBlock: NUHQUE_clean_sbu_2, # of connection points: 7
#     Node 22, Type 0, BuildingBlock: NUHQUE_clean_sbu_2, # of connection points: 7
#     Node 23, Type 0, BuildingBlock: NUHQUE_clean_sbu_2, # of connection points: 7
#     Node 24, Type 0, BuildingBlock: NUHQUE_clean_sbu_2, # of connection points: 7
#     Node 25, Type 0, BuildingBlock: NUHQUE_clean_sbu_2, # of connection points: 7
#     Node 26, Type 0, BuildingBlock: NUHQUE_clean_sbu_2, # of connection points: 7
#     Node 27, Type 0, BuildingBlock: NUHQUE_clean_sbu_2, # of connection points: 7
#     Node 28, Type 0, BuildingBlock: NUHQUE_clean_sbu_2, # of connection points: 7
#     Node 29, Type 0, BuildingBlock: NUHQUE_clean_sbu_2, # of connection points: 7
#     Node 30, Type 0, BuildingBlock: NUHQUE_clean_sbu_2, # of connection points: 7
#     Node 31, Type 0, BuildingBlock: NUHQUE_clean_sbu_2, # of connection points: 7
#     Edge 32, Type (0, 0), None
#     Edge 33, Type (0, 0), None
#     Edge 34, Type (0, 0), None
#     Edge 35, Type (0, 0), None
#     Edge 36, Type (0, 0), None
#     Edge 37, Type (0, 0), None
#     Edge 38, Type (0, 0), None
#     Edge 39, Type (0, 0), None
#     Edge 40, Type (0, 0), None
#     Edge 41, Type (0, 0), None
#     Edge 42, Type (0, 0), None
#     Edge 43, Type (0, 0), None
#     Edge 44, Type (0, 0), None
#     Edge 45, Type (0, 0), None
#     Edge 46, Type (0, 0), None
#     Edge 47, Type (0, 0), None
#     Edge 48, Type (0, 0), None
#     Edge 49, Type (0, 0), None
#     Edge 50, Type (0, 0), None
#     Edge 51, Type (0, 0), None
#     Edge 52, Type (0, 0), None
#     Edge 53, Type (0, 0), None
#     Edge 54, Type (0, 0), None
#     Edge 55, Type (0, 0), None
#     Edge 56, Type (0, 0), None
#     Edge 57, Type (0, 0), None
#     Edge 58, Type (0, 0), None
#     Edge 59, Type (0, 0), None
#     Edge 60, Type (0, 0), None
#     Edge 61, Type (0, 0), None
#     Edge 62, Type (0, 0), None
#     Edge 63, Type (0, 0), None
#     Edge 64, Type (0, 0), None
#     Edge 65, Type (0, 0), None
#     Edge 66, Type (0, 0), None
#     Edge 67, Type (0, 0), None
#     Edge 68, Type (0, 0), None
#     Edge 69, Type (0, 0), None
#     Edge 70, Type (0, 0), None
#     Edge 71, Type (0, 0), None
#     Edge 72, Type (0, 0), None
#     Edge 73, Type (0, 0), None
#     Edge 74, Type (0, 0), None
#     Edge 75, Type (0, 0), None
#     Edge 76, Type (0, 0), None
#     Edge 77, Type (0, 0), None
#     Edge 78, Type (0, 0), None
#     Edge 79, Type (0, 0), None
#     Edge 80, Type (0, 0), None
#     Edge 81, Type (0, 0), None
#     Edge 82, Type (0, 0), None
#     Edge 83, Type (0, 0), None
#     Edge 84, Type (0, 0), None
#     Edge 85, Type (0, 0), None
#     Edge 86, Type (0, 0), None
#     Edge 87, Type (0, 0), None
#     Edge 88, Type (0, 0), None
#     Edge 89, Type (0, 0), None
#     Edge 90, Type (0, 0), None
#     Edge 91, Type (0, 0), None
#     Edge 92, Type (0, 0), None
#     Edge 93, Type (0, 0), None
#     Edge 94, Type (0, 0), None
#     Edge 95, Type (0, 0), None
#     Edge 96, Type (0, 0), None
#     Edge 97, Type (0, 0), None
#     Edge 98, Type (0, 0), None
#     Edge 99, Type (0, 0), None
#     Edge 100, Type (0, 0), None
#     Edge 101, Type (0, 0), None
#     Edge 102, Type (0, 0), None
#     Edge 103, Type (0, 0), None
#     Edge 104, Type (0, 0), None
#     Edge 105, Type (0, 0), None
#     Edge 106, Type (0, 0), None
#     Edge 107, Type (0, 0), None
#     Edge 108, Type (0, 0), None
#     Edge 109, Type (0, 0), None
#     Edge 110, Type (0, 0), None
#     Edge 111, Type (0, 0), None
#     Edge 112, Type (0, 0), None
#     Edge 113, Type (0, 0), None
#     Edge 114, Type (0, 0), None
#     Edge 115, Type (0, 0), None
#     Edge 116, Type (0, 0), None
#     Edge 117, Type (0, 0), None
#     Edge 118, Type (0, 0), None
#     Edge 119, Type (0, 0), None
#     Edge 120, Type (0, 0), None
#     Edge 121, Type (0, 0), None
#     Edge 122, Type (0, 0), None
#     Edge 123, Type (0, 0), None
#     Edge 124, Type (0, 0), None
#     Edge 125, Type (0, 0), None
#     Edge 126, Type (0, 0), None
#     Edge 127, Type (0, 0), None
#     Edge 128, Type (0, 0), None
#     Edge 129, Type (0, 0), None
#     Edge 130, Type (0, 0), None
#     Edge 131, Type (0, 0), None
#     Edge 132, Type (0, 0), None
#     Edge 133, Type (0, 0), None
#     Edge 134, Type (0, 0), None
#     Edge 135, Type (0, 0), None
#     Edge 136, Type (0, 0), None
#     Edge 137, Type (0, 0), None
#     Edge 138, Type (0, 0), None
#     Edge 139, Type (0, 0), None
#     Edge 140, Type (0, 0), None
#     Edge 141, Type (0, 0), None
#     Edge 142, Type (0, 0), None
#     Edge 143, Type (0, 0), None
# Relax obj value: 0.301
# Max RMSD: 0.256
# Mean RMSD: 0.256
data_MOF--net-soq--node1-NUHQUE_clean_sbu_2--edge1-none
_symmetry_space_group_name_H-M    P1
_symmetry_Int_Tables_number       1
_symmetry_cell_setting            triclinic
loop_
_symmetry_equiv_pos_as_xyz
'x, y, z'
_cell_length_a     39.224887
_cell_length_b     24.252826
_cell_length_c     24.118004
_cell_angle_alpha  89.982359
_cell_angle_beta   90.001296
_cell_angle_gamma 90.032276
loop_
_atom_site_label
_atom_site_type_symbol
_atom_site_fract_x
_atom_site_fract_y
_atom_site_fract_z
_atom_type_partial_charge
O0 O 0.08787 0.30028 1.05377 0.0
Tb1 Tb 0.06422 0.25226 1.12047 0.0
Eu2 Eu -0.00184 0.23027 0.19892 0.0
C3 C 0.08416 0.35423 1.05058 0.0
O4 O 0.07247 0.38105 1.09388 0.0
C5 C -0.00525 0.22523 1.06789 0.0
O6 O -0.03998 0.16438 0.2171 0.0
C7 C -0.01729 0.33066 0.22265 0.0
C8 C -0.04484 0.1471 0.26762 0.0
O9 O -0.03598 0.17924 0.30903 0.0
C10 C 0.06903 0.24757 0.24847 0.0
C11 C -0.03711 0.38214 0.21919 0.0
C12 C -0.03353 0.41787 0.17398 0.0
C13 C 0.95016 0.46973 0.17311 0.0
C14 C 0.93022 0.48496 0.21972 0.0
C15 C 0.92934 0.45183 0.26717 0.0
C16 C 0.94489 0.39979 0.26585 0.0
O17 O 0.01905 0.2626 1.06814 0.0
O18 O -0.0145 0.20141 1.11393 0.0
O19 O 0.1008 0.18504 1.10889 0.0
O20 O 0.049 0.16612 1.12828 0.0
C21 C 0.07879 0.14563 1.1177 0.0
O22 O 0.04584 0.20887 0.24451 0.0
O23 O 0.07451 0.2811 0.20585 0.0
O24 O -0.02996 0.28829 0.25021 0.0
O25 O 0.00296 0.31721 0.18104 0.0
H26 H -0.01666 0.40558 1.14093 0.0
H27 H 0.91611 0.52312 0.22081 0.0
H28 H 0.94402 0.37341 0.30214 0.0
O29 O 0.07565 0.93441 1.05622 0.0
Tb30 Tb 0.10004 0.97982 1.12402 0.0
Eu31 Eu 0.16407 0.00374 0.20396 0.0
C32 C 0.07567 0.88013 1.05335 0.0
O33 O 0.08452 0.8514 1.0972 0.0
C34 C 0.17103 0.00148 1.07452 0.0
O35 O 0.20294 0.0684 0.22208 0.0
C36 C 0.1775 0.90287 0.22823 0.0
C37 C 0.20757 0.08608 0.27246 0.0
O38 O 0.19829 0.05439 0.31401 0.0
C39 C 0.09278 0.98656 0.25155 0.0
C40 C 0.197 0.85145 0.22304 0.0
C41 C 0.19325 0.81726 0.1767 0.0
C42 C 0.20906 0.76515 0.1744 0.0
C43 C 0.22892 0.74824 0.2207 0.0
C44 C 0.22998 0.78001 0.2691 0.0
C45 C 0.2148 0.83225 0.26916 0.0
O46 O 0.14655 0.96442 1.07613 0.0
O47 O 0.17863 0.02946 1.11884 0.0
O48 O 0.06417 0.04756 1.11039 0.0
O49 O 0.11596 0.06602 1.12972 0.0
C50 C 0.08636 0.08679 1.11828 0.0
O51 O 0.11576 0.0257 0.24763 0.0
O52 O 0.08793 0.95245 0.20923 0.0
O53 O 0.19097 0.94464 0.25572 0.0
O54 O 0.15729 0.91724 0.18694 0.0
H55 H 0.17663 0.83094 1.14389 0.0
H56 H 0.24287 0.70993 0.22085 0.0
H57 H 0.2158 0.85768 0.30612 0.0
O58 O 0.08515 0.93436 0.49517 0.0
Tb59 Tb 0.0615 0.98049 0.42716 0.0
Eu60 Eu -0.0018 0.0049 0.34617 0.0
C61 C 0.08398 0.8801 0.49811 0.0
O62 O 0.07452 0.85189 0.45427 0.0
C63 C -0.00987 0.00335 0.47556 0.0
O64 O -0.03983 0.07047 0.32657 0.0
C65 C -0.01603 0.90399 0.323 0.0
C66 C -0.04447 0.08746 0.27591 0.0
O67 O -0.03495 0.05557 0.23469 0.0
C68 C 0.06963 0.98689 0.29981 0.0
C69 C -0.03681 0.8539 0.32904 0.0
C70 C -0.03317 0.81919 0.37502 0.0
C71 C 0.94971 0.76813 0.3777 0.0
C72 C 0.92905 0.75235 0.33202 0.0
C73 C 0.92797 0.7846 0.28394 0.0
C74 C 0.94413 0.83612 0.28374 0.0
O75 O 0.01474 0.9665 0.47517 0.0
O76 O -0.01694 0.031 0.43076 0.0
O77 O 0.09783 0.04789 0.44027 0.0
O78 O 0.0462 0.0668 0.42034 0.0
C79 C 0.07592 0.08733 0.43153 0.0
O80 O 0.04683 0.02625 0.30322 0.0
O81 O 0.07388 0.95262 0.3422 0.0
O82 O -0.02853 0.94582 0.29441 0.0
O83 O 0.00405 0.91834 0.36447 0.0
H84 H -0.01562 0.83137 0.40724 0.0
H85 H 0.91456 0.71448 0.33227 0.0
H86 H 0.94313 0.86192 0.24703 0.0
O87 O 0.07267 0.29857 0.49202 0.0
Tb88 Tb 0.09785 0.25306 0.42521 0.0
Eu89 Eu 0.16242 0.22893 0.34632 0.0
C90 C 0.07257 0.35285 0.49451 0.0
O91 O 0.08193 0.38134 0.45078 0.0
C92 C 0.16858 0.23196 0.47615 0.0
O93 O 0.20083 0.16314 0.33005 0.0
C94 C 0.17692 0.32928 0.32148 0.0
C95 C 0.20694 0.14577 0.27997 0.0
O96 O 0.19848 0.1772 0.23778 0.0
C97 C 0.09166 0.24716 0.29737 0.0
C98 C 0.19675 0.38031 0.32736 0.0
C99 C 0.19267 0.4144 0.37366 0.0
C100 C 0.20866 0.46632 0.37661 0.0
C101 C 0.22907 0.48324 0.33086 0.0
C102 C 0.23065 0.45144 0.28244 0.0
C103 C 0.21522 0.39934 0.28187 0.0
O104 O 0.14389 0.26862 0.47441 0.0
O105 O 0.17634 0.20392 0.43193 0.0
O106 O 0.0616 0.18561 0.43809 0.0
O107 O 0.11349 0.1667 0.42016 0.0
C108 C 0.0837 0.14617 0.43093 0.0
O109 O 0.11437 0.20767 0.30159 0.0
O110 O 0.08654 0.28092 0.33987 0.0
O111 O 0.19053 0.28703 0.29495 0.0
O112 O 0.15593 0.31562 0.362 0.0
H113 H 0.17558 0.40085 0.40591 0.0
H114 H 0.24306 0.52154 0.33119 0.0
H115 H 0.21652 0.3739 0.24495 0.0
O116 O 0.82119 0.68466 0.24515 0.0
Tb117 Tb 0.84481 0.73179 0.17766 0.0
Eu118 Eu 0.91406 0.7557 1.10189 0.0
C119 C 0.82276 0.6304 0.24804 0.0
O120 O 0.83256 0.60245 0.20423 0.0
C121 C 0.91241 0.76481 0.23182 0.0
O122 O 0.94916 0.82613 1.08467 0.0
C123 C 0.93817 0.65825 1.09192 0.0
C124 C -0.04543 0.84253 1.03397 0.0
O125 O 0.94798 0.80844 0.993 0.0
C126 C 0.843 0.73016 1.04858 0.0
C127 C 0.95184 0.60201 1.08723 0.0
C128 C 0.94851 0.56545 1.13164 0.0
C129 C -0.0443 0.50879 1.12556 0.0
C130 C -0.03142 0.49049 1.07385 0.0
C131 C -0.02575 0.5277 1.03042 0.0
C132 C -0.03474 0.58329 1.03712 0.0
O133 O 0.88998 0.72454 0.23039 0.0
O134 O 0.92093 0.79034 0.18629 0.0
O135 O 0.80738 0.79807 0.18856 0.0
O136 O 0.85854 0.81815 0.16644 0.0
C137 C 0.82875 0.83795 0.17797 0.0
O138 O 0.86723 0.76747 1.05003 0.0
O139 O 0.83603 0.69989 1.09308 0.0
O140 O 0.9484 0.69896 1.05954 0.0
O141 O 0.91542 0.67106 1.13014 0.0
H142 H 0.94017 0.58228 0.17074 0.0
H143 H -0.02648 0.44744 1.06581 0.0
H144 H -0.03174 0.61203 1.00302 0.0
O145 O 0.83162 0.04891 0.24244 0.0
Tb146 Tb 0.80694 0.00363 0.1749 0.0
Eu147 Eu 0.74379 0.97903 1.09638 0.0
C148 C 0.83151 0.10319 0.24521 0.0
O149 O 0.82232 0.13178 0.20145 0.0
C150 C 0.7364 0.98034 0.22562 0.0
O151 O 0.7053 0.91408 1.07744 0.0
C152 C 0.72982 0.07989 1.07332 0.0
C153 C 0.70175 0.89605 1.02698 0.0
O154 O 0.71122 0.92803 0.98577 0.0
C155 C 0.81451 -0.00158 1.04764 0.0
C156 C 0.71028 0.13121 1.0784 0.0
C157 C 0.71392 0.16558 1.1246 0.0
C158 C 0.6981 0.21773 1.12658 0.0
C159 C 0.67859 0.23462 1.07987 0.0
C160 C 0.67767 0.20254 1.03167 0.0
C161 C 0.69263 0.15018 1.03213 0.0
O162 O 0.76077 0.01763 0.22421 0.0
O163 O 0.72899 0.95246 0.18116 0.0
O164 O 0.843 0.93594 0.18711 0.0
O165 O 0.79126 0.91741 0.16752 0.0
C166 C 0.82094 0.89669 0.17837 0.0
O167 O 0.79198 0.95859 1.05149 0.0
O168 O 0.81898 0.03234 1.09018 0.0
O169 O 0.7166 0.03824 1.04531 0.0
O170 O 0.74999 0.06543 1.11462 0.0
H171 H 0.73047 0.15194 0.15753 0.0
H172 H 0.6648 0.27307 1.07922 0.0
H173 H 0.69169 0.12451 0.99534 0.0
O174 O 0.81995 0.05 0.80427 0.0
Tb175 Tb 0.84381 0.00309 0.87156 0.0
Eu176 Eu 0.90941 0.98293 0.95194 0.0
C177 C 0.82269 0.10413 0.80111 0.0
O178 O 0.83354 0.13156 0.8446 0.0
C179 C 0.9141 0.97873 0.82076 0.0
O180 O 0.94714 0.91716 0.9728 0.0
C181 C 0.92423 0.08367 0.97581 0.0
C182 C 0.95238 0.90182 1.02389 0.0
O183 O 0.94257 0.93435 1.06441 0.0
C184 C 0.83769 -0.00095 0.99939 0.0
C185 C 0.94438 0.13468 0.97052 0.0
C186 C 0.94093 0.16904 0.92424 0.0
C187 C -0.04246 0.22055 0.92171 0.0
C188 C -0.02214 0.23692 0.96762 0.0
C189 C -0.02121 0.20513 1.01603 0.0
C190 C -0.03725 0.15338 1.01637 0.0
O191 O 0.88935 0.01526 0.82052 0.0
O192 O 0.92329 0.95513 0.867 0.0
O193 O 0.8082 0.93448 0.85966 0.0
O194 O 0.86013 0.91746 0.87972 0.0
C195 C 0.83066 0.89587 0.86882 0.0
O196 O 0.86133 0.96099 0.9964 0.0
O197 O 0.83234 0.03213 0.95641 0.0
O198 O 0.93731 0.04148 1.00307 0.0
O199 O 0.90357 0.0698 0.93488 0.0
H200 H 0.9239 0.15613 0.8916 0.0
H201 H -0.00778 0.2749 0.96729 0.0
H202 H -0.03636 0.12788 1.0533 0.0
O203 O 0.83586 0.68481 0.80527 0.0
Tb204 Tb 0.81117 0.72928 0.87316 0.0
Eu205 Eu 0.74793 0.75156 0.95402 0.0
C206 C 0.83643 0.63055 0.80299 0.0
O207 O 0.82803 0.60207 0.84724 0.0
C208 C 0.73989 0.74989 0.82417 0.0
O209 O 0.71078 0.81929 0.96985 0.0
C210 C 0.73203 0.65193 0.97932 0.0
C211 C 0.70373 0.83643 1.01966 0.0
O212 O 0.71165 0.80519 1.06227 0.0
C213 C 0.81944 0.73143 1.00076 0.0
C214 C 0.71157 0.60154 0.97337 0.0
C215 C 0.71518 0.56761 0.92687 0.0
C216 C 0.69872 0.51612 0.92374 0.0
C217 C 0.67826 0.4994 0.96949 0.0
C218 C 0.677 0.53105 1.01809 0.0
C219 C 0.69298 0.58276 1.01886 0.0
O220 O 0.76483 0.71364 0.82472 0.0
O221 O 0.73246 0.77711 0.86905 0.0
O222 O 0.84628 0.79826 0.85987 0.0
O223 O 0.79458 0.81493 0.88124 0.0
C224 C 0.82382 0.83674 0.8692 0.0
O225 O 0.7965 0.7708 0.99855 0.0
O226 O 0.82422 0.69924 0.957 0.0
O227 O 0.71896 0.69473 1.00571 0.0
O228 O 0.75327 0.66471 0.93882 0.0
H229 H 0.73235 0.58083 0.8946 0.0
H230 H 0.664 0.46134 0.96895 0.0
H231 H 0.69201 0.60806 1.0559 0.0
O232 O 0.08388 0.7985 0.55592 0.0
Tb233 Tb 0.05963 0.75303 0.62387 0.0
Eu234 Eu -0.00537 0.7324 0.70467 0.0
C235 C 0.08379 0.85279 0.5531 0.0
O236 O 0.07506 0.88143 0.59705 0.0
C237 C -0.01167 0.73248 0.57478 0.0
O238 O -0.04475 0.66869 0.72371 0.0
C239 C -0.01832 0.83371 0.72854 0.0
C240 C 0.94984 0.65223 0.77435 0.0
O241 O -0.03992 0.68352 0.81558 0.0
C242 C 0.06653 0.7474 0.75181 0.0
C243 C -0.03734 0.88575 0.72342 0.0
C244 C -0.03373 0.91937 0.67666 0.0
C245 C 0.95048 0.9715 0.67372 0.0
C246 C 0.93094 0.98925 0.72013 0.0
C247 C 0.92989 0.95801 0.76895 0.0
C248 C 0.94512 0.9057 0.76952 0.0
O249 O 0.01314 0.76897 0.57601 0.0
O250 O -0.01968 0.70544 0.61956 0.0
O251 O 0.09545 0.68508 0.61051 0.0
O252 O 0.04352 0.66687 0.62913 0.0
C253 C 0.07315 0.64592 0.61802 0.0
O254 O 0.04271 0.70949 0.74878 0.0
O255 O 0.07191 0.78067 0.70896 0.0
O256 O -0.03213 0.7922 0.75596 0.0
O257 O 0.00186 0.81885 0.68738 0.0
H258 H -0.01733 0.90506 0.64384 0.0
H259 H 0.91705 0.02762 0.71992 0.0
H260 H 0.94406 0.88055 0.80668 0.0
O261 O 0.07071 0.43452 0.55203 0.0
Tb262 Tb 0.09416 0.47976 0.62066 0.0
Eu263 Eu 0.15691 0.50239 0.70218 0.0
C264 C 0.07158 0.38027 0.54933 0.0
O265 O 0.08033 0.35209 0.59359 0.0
C266 C 0.16568 0.50134 0.57243 0.0
O267 O 0.19362 0.5706 0.71905 0.0
C268 C 0.17311 0.40288 0.72777 0.0
C269 C 0.20108 0.58654 0.76912 0.0
O270 O 0.19372 0.55408 0.81107 0.0
C271 C 0.08499 0.48258 0.74812 0.0
C272 C 0.19369 0.35249 0.7226 0.0
C273 C 0.19075 0.31846 0.67601 0.0
C274 C 0.20742 0.2671 0.67354 0.0
C275 C 0.22737 0.25066 0.71981 0.0
C276 C 0.22786 0.28222 0.76842 0.0
C277 C 0.21171 0.33379 0.76877 0.0
O278 O 0.14079 0.46497 0.57253 0.0
O279 O 0.17277 0.52852 0.6175 0.0
O280 O 0.05847 0.54794 0.6074 0.0
O281 O 0.11 0.56574 0.6291 0.0
C282 C 0.08055 0.58692 0.61727 0.0
O283 O 0.10815 0.52167 0.74626 0.0
O284 O 0.08064 0.44997 0.70449 0.0
O285 O 0.18585 0.44588 0.75428 0.0
O286 O 0.1521 0.41538 0.68686 0.0
H287 H 0.17396 0.33144 0.6431 0.0
H288 H 0.24181 0.21279 0.71957 0.0
H289 H 0.21215 0.35901 0.80589 0.0
O290 O 0.08181 0.436 0.9934 0.0
Tb291 Tb 0.05792 0.48142 0.92501 0.0
Eu292 Eu -0.01034 0.50601 0.84803 0.0
C293 C 0.08374 0.38177 0.99569 0.0
O294 O 0.07693 0.35265 0.95115 0.0
C295 C -0.01133 0.50955 0.97706 0.0
O296 O 0.95343 0.57524 0.83293 0.0
C297 C -0.03302 0.40779 0.83774 0.0
C298 C 0.94755 0.59273 0.7828 0.0
O299 O -0.04593 0.5598 0.74087 0.0
C300 C 0.06119 0.48147 0.79577 0.0
C301 C -0.04569 0.351 0.83363 0.0
C302 C -0.04187 0.31523 0.87853 0.0
C303 C 0.95171 0.25834 0.87327 0.0
C304 C 0.93904 0.23876 0.82181 0.0
C305 C 0.93298 0.27522 0.77777 0.0
C306 C 0.94124 0.33118 0.78378 0.0
O307 O 0.01156 0.47002 0.9744 0.0
O308 O -0.0184 0.53853 0.93308 0.0
O309 O 0.09552 0.54718 0.93748 0.0
O310 O 0.04432 0.56836 0.91721 0.0
C311 C 0.07429 0.58758 0.92883 0.0
O312 O 0.03692 0.51877 0.79711 0.0
O313 O 0.0679 0.45092 0.84021 0.0
O314 O -0.04388 0.44802 0.80529 0.0
O315 O -0.01032 0.42143 0.87568 0.0
H316 H -0.03384 0.33283 0.9175 0.0
H317 H 0.93453 0.19541 0.81461 0.0
H318 H 0.93784 0.35945 0.74938 0.0
O319 O 0.07394 0.79872 0.9953 0.0
Tb320 Tb 0.09773 0.75278 0.92736 0.0
Eu321 Eu 0.16077 0.7282 0.84823 0.0
C322 C 0.07529 0.85295 0.99834 0.0
O323 O 0.08486 0.88118 0.95454 0.0
C324 C 0.1685 0.72927 0.97764 0.0
O325 O 0.19878 0.66272 0.82875 0.0
C326 C 0.17514 0.82883 0.82414 0.0
C327 C 0.20294 0.64597 0.77796 0.0
O328 O 0.19405 0.67893 0.7372 0.0
C329 C 0.08972 0.74687 0.80015 0.0
C330 C 0.19485 0.88016 0.82859 0.0
C331 C 0.19179 0.91454 0.87489 0.0
C332 C 0.20793 0.96648 0.87654 0.0
C333 C 0.2272 0.98316 0.82962 0.0
C334 C 0.22749 0.95127 0.78133 0.0
C335 C 0.21217 0.8991 0.78188 0.0
O336 O 0.14404 0.76636 0.97663 0.0
O337 O 0.17573 0.70154 0.93299 0.0
O338 O 0.06101 0.68587 0.93928 0.0
O339 O 0.11266 0.66626 0.92004 0.0
C340 C 0.0827 0.64615 0.93036 0.0
O341 O 0.11244 0.70735 0.80381 0.0
O342 O 0.08553 0.78116 0.84251 0.0
O343 O 0.18818 0.78681 0.79654 0.0
O344 O 0.15499 0.81487 0.86566 0.0
H345 H 0.17542 0.90118 0.90822 0.0
H346 H 0.24124 0.02142 0.82901 0.0
H347 H 0.21264 0.87357 0.74497 0.0
O348 O 0.82462 0.18582 0.74363 0.0
Tb349 Tb 0.84843 0.23081 0.67485 0.0
Eu350 Eu 0.91601 0.25396 0.59525 0.0
C351 C 0.82303 0.13155 0.74616 0.0
O352 O 0.83013 0.10243 0.70176 0.0
C353 C 0.91868 0.25631 0.72456 0.0
O354 O 0.95173 0.32343 0.57787 0.0
C355 C 0.93889 0.15593 0.58451 0.0
C356 C -0.0417 0.33887 0.52724 0.0
O357 O 0.95071 0.30545 0.48619 0.0
C358 C 0.84336 0.2307 0.54587 0.0
C359 C 0.95155 0.09907 0.58115 0.0
C360 C 0.94844 0.0646 0.62718 0.0
C361 C -0.04403 0.00795 0.62394 0.0
C362 C -0.03071 0.98748 0.57314 0.0
C363 C -0.02536 0.02275 0.52787 0.0
C364 C -0.03501 0.07837 0.53195 0.0
O365 O 0.89525 0.21755 0.72257 0.0
O366 O 0.92555 0.28526 0.6804 0.0
O367 O 0.81197 0.29806 0.68806 0.0
O368 O 0.86326 0.31723 0.66648 0.0
C369 C 0.83371 0.33763 0.67869 0.0
O370 O 0.86811 0.26723 0.54604 0.0
O371 O 0.83698 0.2004 0.59057 0.0
O372 O 0.9495 0.19607 0.55172 0.0
O373 O 0.91603 0.16946 0.6222 0.0
H374 H 0.94027 0.08323 0.66552 0.0
H375 H -0.02501 0.94437 0.56722 0.0
H376 H -0.03201 0.10586 0.49681 0.0
O377 O 0.83692 0.54864 0.74592 0.0
Tb378 Tb 0.81251 0.50372 0.67805 0.0
Eu379 Eu 0.74998 0.48048 0.59801 0.0
C380 C 0.83663 0.60291 0.7483 0.0
O381 O 0.8277 0.63107 0.70412 0.0
C382 C 0.74146 0.48154 0.72779 0.0
O383 O 0.71334 0.41221 0.58127 0.0
C384 C 0.7336 0.57993 0.57294 0.0
C385 C 0.70662 0.39565 0.53115 0.0
O386 O 0.71421 0.42796 0.48918 0.0
C387 C 0.82119 0.50195 0.55069 0.0
C388 C 0.71307 0.63026 0.57831 0.0
C389 C 0.71624 0.66437 0.62474 0.0
C390 C 0.69964 0.71577 0.62731 0.0
C391 C 0.67969 0.73233 0.581 0.0
C392 C 0.67896 0.70051 0.53252 0.0
C393 C 0.6949 0.64881 0.53234 0.0
O394 O 0.76636 0.51791 0.72755 0.0
O395 O 0.73428 0.45436 0.68276 0.0
O396 O 0.84829 0.43546 0.68992 0.0
O397 O 0.79663 0.41776 0.66899 0.0
C398 C 0.82618 0.39654 0.68004 0.0
O399 O 0.79851 0.46215 0.55289 0.0
O400 O 0.82548 0.53442 0.59439 0.0
O401 O 0.7208 0.537 0.54639 0.0
O402 O 0.75472 0.5674 0.61367 0.0
H403 H 0.73317 0.65136 0.65744 0.0
H404 H 0.66545 0.77039 0.58106 0.0
H405 H 0.69427 0.62337 0.49537 0.0
O406 O 0.82229 0.5486 0.30575 0.0
Tb407 Tb 0.84619 0.50209 0.37341 0.0
Eu408 Eu 0.91649 0.4822 0.44974 0.0
C409 C 0.82288 0.60292 0.303 0.0
O410 O 0.83194 0.63131 0.34695 0.0
C411 C 0.91433 0.47151 0.31981 0.0
O412 O 0.95326 0.41406 0.46646 0.0
C413 C 0.93917 0.58064 0.46059 0.0
C414 C -0.04072 0.39818 0.51712 0.0
O415 O 0.95202 0.43188 0.55809 0.0
C416 C 0.84469 0.504 0.50274 0.0
C417 C 0.95197 0.63754 0.46553 0.0
C418 C 0.94863 0.67342 0.42063 0.0
C419 C -0.04466 0.73021 0.42602 0.0
C420 C -0.03203 0.74967 0.47751 0.0
C421 C -0.02639 0.71333 0.52174 0.0
C422 C -0.03511 0.65737 0.51574 0.0
O423 O 0.89154 0.5112 0.3215 0.0
O424 O 0.92356 0.44674 0.36539 0.0
O425 O 0.80912 0.43532 0.36216 0.0
O426 O 0.86057 0.41574 0.38286 0.0
C427 C 0.83079 0.39561 0.37153 0.0
O428 O 0.86978 0.46819 0.50158 0.0
O429 O 0.83703 0.53356 0.45806 0.0
O430 O 0.94967 0.54028 0.49312 0.0
O431 O 0.91705 0.56689 0.42168 0.0
H432 H 0.94074 0.65603 0.38148 0.0
H433 H -0.0272 0.79297 0.48456 0.0
H434 H -0.03201 0.62918 0.55027 0.0
O435 O 0.83283 0.18472 0.30303 0.0
Tb436 Tb 0.80939 0.22963 0.3719 0.0
Eu437 Eu 0.74751 0.25289 0.45261 0.0
C438 C 0.83214 0.13046 0.30013 0.0
O439 O 0.82341 0.10202 0.34425 0.0
C440 C 0.73825 0.25299 0.3234 0.0
O441 O 0.71007 0.31923 0.47204 0.0
C442 C 0.73235 0.15252 0.47601 0.0
C443 C 0.70566 0.33612 0.52271 0.0
O444 O 0.71468 0.30363 0.56376 0.0
C445 C 0.81912 0.23193 0.49885 0.0
C446 C 0.71239 0.10149 0.4715 0.0
C447 C 0.71525 0.06723 0.42509 0.0
C448 C 0.69904 0.01535 0.42343 0.0
C449 C 0.67991 -0.00138 0.4705 0.0
C450 C 0.67981 0.03044 0.51887 0.0
C451 C 0.69518 0.08255 0.51828 0.0
O452 O 0.76274 0.21594 0.32364 0.0
O453 O 0.73142 0.28032 0.36846 0.0
O454 O 0.84513 0.29786 0.35948 0.0
O455 O 0.7937 0.31555 0.3818 0.0
C456 C 0.82316 0.33676 0.37017 0.0
O457 O 0.79632 0.27155 0.49697 0.0
O458 O 0.823 0.19914 0.4553 0.0
O459 O 0.71975 0.19457 0.50414 0.0
O460 O 0.75245 0.16635 0.43436 0.0
H461 H 0.73155 0.0806 0.39169 0.0
H462 H 0.66585 0.96039 0.47118 0.0
H463 H 0.69487 0.10803 0.55523 0.0
O464 O 0.5887 0.30016 0.5534 0.0
Tb465 Tb 0.56443 0.25389 0.62056 0.0
Eu466 Eu 0.49975 0.23336 0.69964 0.0
C467 C 0.58592 0.35425 0.55049 0.0
O468 O 0.57494 0.38136 0.5941 0.0
C469 C 0.49484 0.22839 0.5682 0.0
O470 O 0.46369 0.16441 0.71719 0.0
C471 C 0.48246 0.33233 0.72509 0.0
C472 C 0.45822 0.14737 0.76757 0.0
O473 O 0.46614 0.17986 0.80921 0.0
C474 C 0.57075 0.25455 0.74806 0.0
C475 C 0.46249 0.38344 0.72101 0.0
C476 C 0.4657 0.41806 0.67494 0.0
C477 C 0.44963 0.46994 0.67335 0.0
C478 C 0.42995 0.48622 0.71998 0.0
C479 C 0.42929 0.45405 0.76817 0.0
C480 C 0.44487 0.40201 0.76767 0.0
O481 O 0.51967 0.26478 0.5676 0.0
O482 O 0.4855 0.20557 0.61473 0.0
O483 O 0.59953 0.1845 0.61059 0.0
O484 O 0.54762 0.16882 0.63207 0.0
C485 C 0.5769 0.14652 0.62148 0.0
O486 O 0.54783 0.21518 0.74586 0.0
O487 O 0.57588 0.28619 0.70401 0.0
O488 O 0.46946 0.28902 0.75073 0.0
O489 O 0.50391 0.32047 0.68458 0.0
H490 H 0.48222 0.40498 0.64174 0.0
H491 H 0.41587 0.52442 0.72046 0.0
H492 H 0.44428 0.37631 0.80447 0.0
O493 O 0.57298 0.93442 0.55631 0.0
Tb494 Tb 0.59713 0.98028 0.62421 0.0
Eu495 Eu 0.66709 0.00078 0.70186 0.0
C496 C 0.57329 0.88008 0.55341 0.0
O497 O 0.58226 0.85149 0.59728 0.0
C498 C 0.66558 0.00971 0.57159 0.0
O499 O 0.7029 0.06999 0.72038 0.0
C500 C 0.68968 0.90238 0.71251 0.0
C501 C 0.7077 0.08639 0.77126 0.0
O502 O 0.69931 0.05316 0.81208 0.0
C503 C 0.59491 0.978 0.75313 0.0
C504 C 0.7023 0.84539 0.71672 0.0
C505 C 0.69844 0.80991 0.67161 0.0
C506 C 0.70528 0.75312 0.6762 0.0
C507 C 0.71838 0.73324 0.72733 0.0
C508 C 0.72456 0.76923 0.77164 0.0
C509 C 0.71579 0.8252 0.76631 0.0
O510 O 0.64268 0.97018 0.57322 0.0
O511 O 0.67486 0.03464 0.61711 0.0
O512 O 0.56126 0.04864 0.61262 0.0
O513 O 0.61273 0.06594 0.63507 0.0
C514 C 0.58346 0.08737 0.62305 0.0
O515 O 0.6198 0.0142 0.75231 0.0
O516 O 0.58757 0.94838 0.70841 0.0
O517 O 0.70039 0.94258 0.74508 0.0
O518 O 0.66733 0.91626 0.67406 0.0
H519 H 0.69015 0.82772 0.63289 0.0
H520 H 0.72324 0.68996 0.73416 0.0
H521 H 0.71935 0.85319 0.80089 0.0
O522 O 0.58546 0.93464 0.99556 0.0
Tb523 Tb 0.56123 0.97897 0.92709 0.0
Eu524 Eu 0.49946 0.00229 0.84553 0.0
C525 C 0.58523 0.88035 0.99827 0.0
O526 O 0.57641 0.85195 0.9542 0.0
C527 C 0.48975 0.00042 0.97508 0.0
O528 O 0.46357 0.07101 0.8266 0.0
C529 C 0.48343 0.90271 0.82072 0.0
C530 C 0.4584 0.08781 0.77605 0.0
O531 O 0.46686 0.05542 0.73462 0.0
C532 C 0.57099 0.98018 0.80032 0.0
C533 C 0.46255 0.85296 0.82733 0.0
C534 C 0.46581 0.81939 0.87418 0.0
C535 C 0.44897 0.76827 0.87751 0.0
C536 C 0.42864 0.7514 0.83176 0.0
C537 C 0.42782 0.78264 0.78294 0.0
C538 C 0.44396 0.83418 0.78196 0.0
O539 O 0.51474 0.96429 0.97544 0.0
O540 O 0.48274 0.02743 0.92985 0.0
O541 O 0.59625 0.04833 0.93881 0.0
O542 O 0.54461 0.0644 0.91661 0.0
C543 C 0.57385 0.08653 0.92794 0.0
O544 O 0.54854 0.02029 0.80198 0.0
O545 O 0.57481 0.94773 0.8441 0.0
O546 O 0.47061 0.94545 0.79388 0.0
O547 O 0.50463 0.91552 0.86121 0.0
H548 H 0.48297 0.83242 0.90659 0.0
H549 H 0.41421 0.71347 0.83255 0.0
H550 H 0.44326 0.85926 0.74472 0.0
O551 O 0.5704 0.29868 0.99209 0.0
Tb552 Tb 0.5952 0.25256 0.9251 0.0
Eu553 Eu 0.66577 0.23189 0.84852 0.0
C554 C 0.57063 0.35302 0.99458 0.0
O555 O 0.58008 0.38133 0.95078 0.0
C556 C 0.66332 0.22318 0.97897 0.0
O557 O 0.70137 0.16209 0.83147 0.0
C558 C 0.68919 0.32984 0.83822 0.0
C559 C 0.70739 0.14586 0.78088 0.0
O560 O 0.69989 0.17902 0.73955 0.0
C561 C 0.59417 0.25588 0.79594 0.0
C562 C 0.70223 0.38661 0.83433 0.0
C563 C 0.698 0.42211 0.8793 0.0
C564 C 0.70504 0.47884 0.87494 0.0
C565 C 0.71895 0.49858 0.82423 0.0
C566 C 0.72553 0.46248 0.78008 0.0
C567 C 0.71641 0.40661 0.78516 0.0
O568 O 0.64032 0.26252 0.97726 0.0
O569 O 0.6726 0.19814 0.93351 0.0
O570 O 0.55876 0.18475 0.93598 0.0
O571 O 0.61033 0.1666 0.91501 0.0
C572 C 0.58079 0.14563 0.92635 0.0
O573 O 0.61886 0.21938 0.79696 0.0
O574 O 0.58646 0.28498 0.84083 0.0
O575 O 0.69986 0.28944 0.80589 0.0
O576 O 0.66643 0.31637 0.8762 0.0
H577 H 0.68923 0.40434 0.91774 0.0
H578 H 0.72411 0.5418 0.81756 0.0
H579 H 0.7202 0.37856 0.75071 0.0
O580 O 0.32021 0.68485 0.74536 0.0
Tb581 Tb 0.34446 0.73025 0.67744 0.0
Eu582 Eu 0.41221 0.75277 0.60061 0.0
C583 C 0.32096 0.63055 0.74811 0.0
O584 O 0.33023 0.60237 0.70414 0.0
C585 C 0.41231 0.76198 0.73106 0.0
O586 O 0.44581 0.82507 0.58358 0.0
C587 C 0.43754 0.65643 0.58986 0.0
C588 C 0.4511 0.84183 0.53301 0.0
O589 O 0.44472 0.80796 0.49179 0.0
C590 C 0.3409 0.7236 0.54915 0.0
C591 C 0.45172 0.6006 0.5856 0.0
C592 C 0.44861 0.56473 0.63053 0.0
C593 C 0.45536 0.50802 0.62507 0.0
C594 C 0.4681 0.4889 0.5735 0.0
C595 C 0.47386 0.52553 0.52953 0.0
C596 C 0.46492 0.58126 0.53557 0.0
O597 O 0.38943 0.72241 0.73042 0.0
O598 O 0.42078 0.78684 0.68509 0.0
O599 O 0.30853 0.79875 0.68715 0.0
O600 O 0.35964 0.81546 0.66216 0.0
C601 C 0.33044 0.83714 0.67407 0.0
O602 O 0.36489 0.76146 0.54892 0.0
O603 O 0.33437 0.69512 0.59488 0.0
O604 O 0.44721 0.69744 0.55737 0.0
O605 O 0.41483 0.66849 0.62841 0.0
H606 H 0.4406 0.58213 0.66957 0.0
H607 H 0.47291 0.44572 0.56599 0.0
H608 H 0.46779 0.60959 0.50109 0.0
O609 O 0.33423 0.04893 0.74234 0.0
Tb610 Tb 0.3097 0.00319 0.67475 0.0
Eu611 Eu 0.2405 0.9819 0.59866 0.0
C612 C 0.33389 0.10327 0.74515 0.0
O613 O 0.32463 0.13176 0.70137 0.0
C614 C 0.24187 0.97202 0.72873 0.0
O615 O 0.20506 0.91243 0.57942 0.0
C616 C 0.21765 0.08019 0.58901 0.0
C617 C 0.20123 0.89579 0.52842 0.0
O618 O 0.20987 0.92924 0.48791 0.0
C619 C 0.31196 0.00698 0.54621 0.0
C620 C 0.2048 0.13699 0.58492 0.0
C621 C 0.20853 0.17265 0.6299 0.0
C622 C 0.20188 0.22951 0.62486 0.0
C623 C 0.18913 0.24922 0.57346 0.0
C624 C 0.18315 0.21298 0.52929 0.0
C625 C 0.19163 0.15699 0.53511 0.0
O626 O 0.26464 0.01177 0.72722 0.0
O627 O 0.23264 0.94727 0.6831 0.0
O628 O 0.34575 0.93488 0.68474 0.0
O629 O 0.2943 0.91765 0.66212 0.0
C630 C 0.32366 0.89622 0.67347 0.0
O631 O 0.28754 0.96993 0.54713 0.0
O632 O 0.31901 0.03646 0.5911 0.0
O633 O 0.20687 0.04004 0.55641 0.0
O634 O 0.24016 0.06631 0.62721 0.0
H635 H 0.21664 0.15496 0.66878 0.0
H636 H 0.18446 0.29252 0.56635 0.0
H637 H 0.18827 0.12884 0.50062 0.0
O638 O 0.31906 0.05 0.30388 0.0
Tb639 Tb 0.34346 0.0048 0.37163 0.0
Eu640 Eu 0.40774 0.98592 0.45261 0.0
C641 C 0.32102 0.1042 0.30089 0.0
O642 O 0.33128 0.13188 0.34461 0.0
C643 C 0.41383 0.98193 0.32104 0.0
O644 O 0.4433 0.91686 0.47259 0.0
C645 C 0.42448 0.08525 0.47825 0.0
C646 C 0.44906 0.90117 0.5234 0.0
O647 O 0.44037 0.93385 0.56446 0.0
C648 C 0.33585 0.00586 0.49891 0.0
C649 C 0.44482 0.13583 0.47217 0.0
C650 C 0.44177 0.16894 0.42494 0.0
C651 C 0.45816 0.22047 0.42163 0.0
C652 C 0.47824 0.23792 0.46746 0.0
C653 C 0.47889 0.20729 0.51667 0.0
C654 C 0.4628 0.15558 0.51797 0.0
O655 O 0.38862 0.01756 0.32001 0.0
O656 O 0.42306 0.95923 0.36774 0.0
O657 O 0.30931 0.93415 0.36124 0.0
O658 O 0.36128 0.92026 0.38336 0.0
C659 C 0.33234 0.89694 0.3724 0.0
O660 O 0.35923 0.96717 0.49765 0.0
O661 O 0.33085 0.0371 0.45457 0.0
O662 O 0.43791 0.04206 0.50345 0.0
O663 O 0.40253 0.07304 0.43859 0.0
H664 H 0.4251 0.15516 0.39217 0.0
H665 H 0.49262 0.27589 0.46643 0.0
H666 H 0.46339 0.13091 0.55548 0.0
O667 O 0.33791 0.68495 0.30528 0.0
Tb668 Tb 0.3136 0.73012 0.3733 0.0
Eu669 Eu 0.24424 0.74906 0.45191 0.0
C670 C 0.33808 0.63061 0.30298 0.0
O671 O 0.32953 0.60229 0.34726 0.0
C672 C 0.24493 0.75908 0.32133 0.0
O673 O 0.20974 0.8204 0.46859 0.0
C674 C 0.21939 0.65211 0.46231 0.0
C675 C 0.20256 0.83635 0.51886 0.0
O676 O 0.20917 0.80318 0.56057 0.0
C677 C 0.31671 0.72307 0.50217 0.0
C678 C 0.20555 0.59581 0.46606 0.0
C679 C 0.20933 0.56037 0.42096 0.0
C680 C 0.20211 0.50371 0.42528 0.0
C681 C 0.18807 0.48413 0.47595 0.0
C682 C 0.18176 0.52026 0.5202 0.0
C683 C 0.19133 0.57596 0.51525 0.0
O684 O 0.2681 0.72 0.32209 0.0
O685 O 0.23601 0.78352 0.36731 0.0
O686 O 0.34878 0.79954 0.36165 0.0
O687 O 0.29759 0.81518 0.38675 0.0
C688 C 0.32646 0.83756 0.3738 0.0
O689 O 0.2917 0.75912 0.50313 0.0
O690 O 0.32417 0.69577 0.45609 0.0
O691 O 0.20963 0.69273 0.49516 0.0
O692 O 0.24201 0.6649 0.42383 0.0
H693 H 0.21806 0.57814 0.38251 0.0
H694 H 0.1826 0.44101 0.48256 0.0
H695 H 0.18787 0.60398 0.54982 0.0
O696 O 0.58422 0.79866 1.05567 0.0
Tb697 Tb 0.5594 0.75487 1.12399 0.0
Eu698 Eu 0.49589 0.73515 0.20546 0.0
C699 C 0.58503 0.85293 1.0531 0.0
O700 O 0.57687 0.88171 1.09725 0.0
C701 C 0.48799 0.73563 1.07529 0.0
O702 O 0.45842 0.66841 0.22384 0.0
C703 C 0.48121 0.8353 0.23086 0.0
C704 C 0.45275 0.65159 0.27424 0.0
O705 O 0.46222 0.68293 0.31592 0.0
C706 C 0.56803 0.75373 0.25141 0.0
C707 C 0.46202 0.88699 0.22504 0.0
C708 C 0.46534 0.91951 0.17749 0.0
C709 C 0.44983 0.97167 0.1738 0.0
C710 C 0.43048 0.99046 0.22006 0.0
C711 C 0.42961 0.96025 0.26957 0.0
C712 C 0.44482 0.90793 0.27104 0.0
O713 O 0.51319 0.77142 1.07574 0.0
O714 O 0.48011 0.70916 1.1205 0.0
O715 O 0.59398 0.68515 1.11175 0.0
O716 O 0.54206 0.6695 1.13259 0.0
C717 C 0.57123 0.6471 1.12124 0.0
O718 O 0.54445 0.71521 0.25002 0.0
O719 O 0.57295 0.7854 0.20731 0.0
O720 O 0.46709 0.79294 0.25656 0.0
O721 O 0.50252 0.82181 0.19073 0.0
H722 H 0.48141 0.9044 1.14461 0.0
H723 H 0.41662 0.02886 0.21916 0.0
H724 H 0.44399 0.8835 0.3087 0.0
O725 O 0.56882 0.435 1.05197 0.0
Tb726 Tb 0.5919 0.48085 1.12073 0.0
Eu727 Eu 0.66035 0.5004 0.20049 0.0
C728 C 0.56969 0.38069 1.04936 0.0
O729 O 0.57823 0.35257 1.09377 0.0
C730 C 0.66101 0.51062 1.06986 0.0
O731 O 0.69482 0.57162 0.21798 0.0
C732 C 0.68523 0.40353 0.21184 0.0
C733 C 0.70247 0.58646 0.26841 0.0
O734 O 0.69626 0.55233 0.3095 0.0
C735 C 0.58747 0.47504 0.24962 0.0
C736 C 0.69913 0.3473 0.2162 0.0
C737 C 0.69631 0.3119 0.17086 0.0
C738 C 0.70372 0.2553 0.1754 0.0
C739 C 0.71698 0.23585 0.22657 0.0
C740 C 0.72241 0.27194 0.2711 0.0
C741 C 0.71264 0.32752 0.26597 0.0
O742 O 0.63776 0.47158 1.06996 0.0
O743 O 0.66931 0.53513 1.11612 0.0
O744 O 0.55598 0.54923 1.1091 0.0
O745 O 0.60705 0.56634 1.13405 0.0
C746 C 0.57786 0.58788 1.12146 0.0
O747 O 0.61259 0.51093 0.25094 0.0
O748 O 0.58065 0.44703 0.20366 0.0
O749 O 0.69461 0.44432 0.24477 0.0
O750 O 0.66295 0.41608 0.17276 0.0
H751 H 0.68818 0.32971 1.1321 0.0
H752 H 0.72259 0.19282 0.23333 0.0
H753 H 0.71547 0.35549 0.30072 0.0
O754 O 0.58252 0.43599 0.4936 0.0
Tb755 Tb 0.55792 0.47975 0.42495 0.0
Eu756 Eu 0.49125 0.50319 0.347 0.0
C757 C 0.58528 0.38186 0.49572 0.0
O758 O 0.57886 0.35265 0.4511 0.0
C759 C 0.48844 0.50673 0.47643 0.0
O760 O 0.45638 0.5742 0.33221 0.0
C761 C 0.4675 0.40592 0.33585 0.0
C762 C 0.45056 0.59206 0.28223 0.0
O763 O 0.45687 0.55935 0.24005 0.0
C764 C 0.56303 0.47548 0.29644 0.0
C765 C 0.45436 0.34947 0.33203 0.0
C766 C 0.458 0.31429 0.37735 0.0
C767 C 0.45207 0.25733 0.37258 0.0
C768 C 0.43954 0.23704 0.32127 0.0
C769 C 0.43337 0.273 0.27678 0.0
C770 C 0.44154 0.3291 0.28222 0.0
O771 O 0.51172 0.46777 0.47455 0.0
O772 O 0.4815 0.53519 0.43202 0.0
O773 O 0.59423 0.54746 0.43648 0.0
O774 O 0.54307 0.56583 0.41339 0.0
C775 C 0.57254 0.58666 0.42546 0.0
O776 O 0.53897 0.51327 0.29624 0.0
O777 O 0.56924 0.44644 0.34195 0.0
O778 O 0.45715 0.44647 0.30331 0.0
O779 O 0.49011 0.41888 0.37421 0.0
H780 H 0.46565 0.33238 0.4163 0.0
H781 H 0.43517 0.19358 0.31455 0.0
H782 H 0.43825 0.35701 0.2475 0.0
O783 O 0.57172 0.79841 0.49542 0.0
Tb784 Tb 0.59528 0.75211 0.42732 0.0
Eu785 Eu 0.6639 0.73053 0.35001 0.0
C786 C 0.57295 0.85271 0.49839 0.0
O787 O 0.58224 0.88097 0.45447 0.0
C788 C 0.66356 0.72077 0.48033 0.0
O789 O 0.69925 0.66113 0.33042 0.0
C790 C 0.68704 0.82863 0.33912 0.0
C791 C 0.70381 0.64566 0.27922 0.0
O792 O 0.6958 0.67996 0.23911 0.0
C793 C 0.59202 0.75472 0.2987 0.0
C794 C 0.70006 0.88536 0.33449 0.0
C795 C 0.69716 0.92091 0.37969 0.0
C796 C 0.70404 0.97772 0.37464 0.0
C797 C 0.71636 -0.00263 0.323 0.0
C798 C 0.72167 0.96123 0.27857 0.0
C799 C 0.71279 0.90535 0.28432 0.0
O800 O 0.64064 0.76028 0.47943 0.0
O801 O 0.67224 0.69595 0.43443 0.0
O802 O 0.55845 0.68481 0.43723 0.0
O803 O 0.6098 0.66615 0.41516 0.0
C804 C 0.5801 0.64554 0.426 0.0
O805 O 0.61657 0.71795 0.29926 0.0
O806 O 0.58547 0.78476 0.34345 0.0
O807 O 0.69737 0.78822 0.30652 0.0
O808 O 0.6648 0.81513 0.37791 0.0
H809 H 0.68951 0.9031 0.41875 0.0
H810 H 0.7213 0.04059 0.31586 0.0
H811 H 0.71563 0.87729 0.24963 0.0
O812 O 0.32403 0.18583 0.24365 0.0
Tb813 Tb 0.34851 0.22914 0.17456 0.0
Eu814 Eu 0.41451 0.25135 1.09412 0.0
C815 C 0.32158 0.13166 0.24605 0.0
O816 O 0.32826 0.10237 0.20158 0.0
C817 C 0.41891 0.25353 0.22381 0.0
O818 O 0.44881 0.32278 1.0774 0.0
C819 C 0.43843 0.15425 1.0826 0.0
C820 C 0.45528 0.3391 1.02705 0.0
O821 O 0.44816 0.30606 0.98545 0.0
C822 C 0.34167 0.22467 1.04634 0.0
C823 C 0.45156 0.09772 1.07968 0.0
C824 C 0.44863 0.06392 1.12617 0.0
C825 C 0.45558 0.00717 1.12346 0.0
C826 C 0.46868 0.98587 1.07282 0.0
C827 C 0.47417 0.02055 1.02709 0.0
C828 C 0.46472 0.07635 1.03055 0.0
O829 O 0.39513 0.2153 0.22253 0.0
O830 O 0.42563 0.28203 0.17926 0.0
O831 O 0.31334 0.29824 0.18689 0.0
O832 O 0.36449 0.31467 0.16243 0.0
C833 C 0.33548 0.33663 0.17518 0.0
O834 O 0.36614 0.26176 1.04501 0.0
O835 O 0.33577 0.19592 1.09213 0.0
O836 O 0.44863 0.19471 1.04981 0.0
O837 O 0.41559 0.16712 1.12059 0.0
H838 H 0.44087 0.0831 0.16447 0.0
H839 H 0.47413 0.94261 1.06738 0.0
H840 H 0.46762 0.10338 0.99504 0.0
O841 O 0.33876 0.54843 0.24594 0.0
Tb842 Tb 0.31473 0.50279 0.17795 0.0
Eu843 Eu 0.24628 0.48253 1.09996 0.0
C844 C 0.33825 0.60276 0.2483 0.0
O845 O 0.32931 0.63081 0.20406 0.0
C846 C 0.2463 0.47213 0.23055 0.0
O847 O 0.21208 0.41101 1.08242 0.0
C848 C 0.22118 0.57925 1.08943 0.0
C849 C 0.20518 0.39568 1.03187 0.0
O850 O 0.2116 0.42975 0.99081 0.0
C851 C 0.31834 0.50984 1.04932 0.0
C852 C 0.20712 0.63532 1.08536 0.0
C853 C 0.21024 0.67085 1.1305 0.0
C854 C 0.20304 0.72752 1.12577 0.0
C855 C 0.18962 0.74689 1.07465 0.0
C856 C 0.18396 0.71061 1.03032 0.0
C857 C 0.19351 0.65498 1.03569 0.0
O858 O 0.26946 0.51131 0.2302 0.0
O859 O 0.23775 0.44769 0.18437 0.0
O860 O 0.3507 0.4343 0.18806 0.0
O861 O 0.29949 0.41744 0.16374 0.0
C862 C 0.32875 0.39579 0.17556 0.0
O863 O 0.29368 0.47313 1.04842 0.0
O864 O 0.32521 0.53769 1.09532 0.0
O865 O 0.21158 0.53847 1.05664 0.0
O866 O 0.24375 0.56676 1.12808 0.0
H867 H 0.21849 0.65312 0.16925 0.0
H868 H 0.18417 0.78997 1.06777 0.0
H869 H 0.19056 0.62687 1.00107 0.0
O870 O 0.32131 0.54872 0.80558 0.0
Tb871 Tb 0.34585 0.50386 0.8736 0.0
Eu872 Eu 0.41464 0.48519 0.95103 0.0
C873 C 0.32113 0.60304 0.80296 0.0
O874 O 0.32974 0.63161 0.84703 0.0
C875 C 0.41424 0.47455 0.82054 0.0
O876 O 0.45006 0.41516 0.96742 0.0
C877 C 0.43842 0.58268 0.96265 0.0
C878 C 0.45594 0.39855 1.01785 0.0
O879 O 0.44873 0.43168 1.05931 0.0
C880 C 0.34252 0.51029 1.0022 0.0
C881 C 0.45169 0.63925 0.96715 0.0
C882 C 0.4485 0.67447 0.92177 0.0
C883 C 0.45477 0.73132 0.92653 0.0
C884 C 0.46729 0.75158 0.97784 0.0
C885 C 0.47307 0.71581 1.02256 0.0
C886 C 0.46443 0.65971 1.01723 0.0
O887 O 0.391 0.51356 0.82143 0.0
O888 O 0.42334 0.45038 0.86657 0.0
O889 O 0.31025 0.43499 0.86334 0.0
O890 O 0.36165 0.41857 0.88686 0.0
C891 C 0.33245 0.39667 0.87507 0.0
O892 O 0.36739 0.47397 1.00264 0.0
O893 O 0.33532 0.53822 0.95639 0.0
O894 O 0.44846 0.54202 0.99522 0.0
O895 O 0.41632 0.56959 0.92347 0.0
H896 H 0.44092 0.65653 0.88271 0.0
H897 H 0.47197 0.79499 0.98438 0.0
H898 H 0.46746 0.63194 1.05212 0.0
O899 O 0.33532 0.18503 0.80297 0.0
Tb900 Tb 0.31205 0.23045 0.87186 0.0
Eu901 Eu 0.24435 0.25057 0.95058 0.0
C902 C 0.33451 0.13071 0.80008 0.0
O903 O 0.32579 0.10234 0.84425 0.0
C904 C 0.24343 0.26165 0.82035 0.0
O905 O 0.20968 0.32089 0.9702 0.0
C906 C 0.22042 0.15298 0.96099 0.0
C907 C 0.20465 0.3364 1.02127 0.0
O908 O 0.21245 0.30235 1.06169 0.0
C909 C 0.31684 0.22422 1.00011 0.0
C910 C 0.20694 0.09652 0.96537 0.0
C911 C 0.20966 0.061 0.92011 0.0
C912 C 0.20284 0.00418 0.92524 0.0
C913 C 0.19065 0.98451 0.97694 0.0
C914 C 0.18547 0.02064 1.0214 0.0
C915 C 0.19433 0.07652 1.01561 0.0
O916 O 0.26637 0.22217 0.82063 0.0
O917 O 0.23496 0.28596 0.86661 0.0
O918 O 0.34776 0.29924 0.86137 0.0
O919 O 0.29672 0.31559 0.88693 0.0
C920 C 0.32583 0.33749 0.87465 0.0
O921 O 0.29214 0.26084 1.00117 0.0
O922 O 0.32319 0.1958 0.9543 0.0
O923 O 0.21064 0.19334 0.99412 0.0
O924 O 0.24247 0.16632 0.92185 0.0
H925 H 0.21725 0.0788 0.88101 0.0
H926 H 0.18577 0.94128 0.9841 0.0
H927 H 0.19166 0.10454 1.05036 0.0
loop_
_geom_bond_atom_site_label_1
_geom_bond_atom_site_label_2
_geom_bond_distance
_geom_bond_site_symmetry_2
_ccdc_geom_bond_type
O0 Tb1 2.292 . S
O0 C3 1.255 . S
Tb1 O0 2.292 . S
Tb1 O17 2.326 . S
Tb1 O19 2.500 . S
Tb1 O20 2.473 . S
Tb1 O23 2.324 1_556 S
Eu2 O6 2.292 . S
Eu2 C7 2.852 . S
Eu2 O18 2.324 1_554 S
Eu2 O22 2.326 . S
Eu2 O24 2.500 . S
Eu2 O25 2.473 . S
C3 O0 1.255 . S
C3 O4 1.247 . S
O4 C3 1.247 . S
C5 O17 1.242 . S
C5 O18 1.258 . S
O6 Eu2 2.292 . S
O6 C8 1.255 . S
C7 Eu2 2.852 . S
C7 C11 1.503 1_455 S
C7 O24 1.273 . S
C7 O25 1.257 . S
C8 O6 1.255 . S
C8 O9 1.247 . S
O9 C8 1.247 . S
C10 O22 1.242 . S
C10 O23 1.258 . S
C11 C7 1.503 1_655 S
C11 C12 1.379 1_655 S
C11 C16 1.392 . S
C12 C11 1.379 1_455 S
C12 C13 1.404 1_455 S
C12 H26 0.929 . S
C13 C12 1.404 1_655 S
C13 C14 1.389 . S
C14 C13 1.389 . S
C14 C15 1.399 . S
C14 H27 0.931 . S
C15 C14 1.399 . S
C15 C16 1.390 . S
C16 C11 1.392 . S
C16 C15 1.390 . S
C16 H28 0.929 . S
O17 Tb1 2.326 . S
O17 C5 1.242 . S
O18 Eu2 2.324 1_556 S
O18 C5 1.258 . S
O19 Tb1 2.500 . S
O19 C21 1.273 . S
O20 Tb1 2.473 . S
O20 C21 1.257 . S
C21 O19 1.273 . S
C21 O20 1.257 . S
O22 Eu2 2.326 . S
O22 C10 1.242 . S
O23 Tb1 2.324 1_554 S
O23 C10 1.258 . S
O24 Eu2 2.500 . S
O24 C7 1.273 . S
O25 Eu2 2.473 . S
O25 C7 1.257 . S
H26 C12 0.929 . S
H27 C14 0.931 . S
H28 C16 0.929 . S
O29 Tb30 2.292 . S
O29 C32 1.255 . S
Tb30 O29 2.292 . S
Tb30 O46 2.326 1_565 S
Tb30 O48 2.500 1_565 S
Tb30 O49 2.473 1_565 S
Tb30 O52 2.324 1_556 S
Eu31 O35 2.292 . S
Eu31 C36 2.852 1_545 S
Eu31 O47 2.324 1_554 S
Eu31 O51 2.326 1_545 S
Eu31 O53 2.500 1_545 S
Eu31 O54 2.473 1_545 S
C32 O29 1.255 . S
C32 O33 1.247 . S
O33 C32 1.247 . S
C34 O46 1.242 . S
C34 O47 1.258 . S
O35 Eu31 2.292 . S
O35 C37 1.255 . S
C36 Eu31 2.852 1_565 S
C36 C40 1.503 . S
C36 O53 1.273 . S
C36 O54 1.257 . S
C37 O35 1.255 . S
C37 O38 1.247 . S
O38 C37 1.247 . S
C39 O51 1.242 . S
C39 O52 1.258 . S
C40 C36 1.503 . S
C40 C41 1.379 . S
C40 C45 1.392 . S
C41 C40 1.379 . S
C41 C42 1.404 . S
C41 H55 0.929 . S
C42 C41 1.404 . S
C42 C43 1.389 . S
C43 C42 1.389 . S
C43 C44 1.399 . S
C43 H56 0.931 . S
C44 C43 1.399 . S
C44 C45 1.390 . S
C45 C40 1.392 . S
C45 C44 1.390 . S
C45 H57 0.929 . S
O46 Tb30 2.326 1_545 S
O46 C34 1.242 . S
O47 Eu31 2.324 1_556 S
O47 C34 1.258 . S
O48 Tb30 2.500 1_545 S
O48 C50 1.273 . S
O49 Tb30 2.473 1_545 S
O49 C50 1.257 . S
C50 O48 1.273 . S
C50 O49 1.257 . S
O51 Eu31 2.326 1_565 S
O51 C39 1.242 . S
O52 Tb30 2.324 1_554 S
O52 C39 1.258 . S
O53 Eu31 2.500 1_565 S
O53 C36 1.273 . S
O54 Eu31 2.473 1_565 S
O54 C36 1.257 . S
H55 C41 0.929 . S
H56 C43 0.931 . S
H57 C45 0.929 . S
O58 Tb59 2.292 . S
O58 C61 1.255 . S
Tb59 O58 2.292 . S
Tb59 O75 2.326 1_565 S
Tb59 O77 2.500 1_565 S
Tb59 O78 2.473 1_565 S
Tb59 O81 2.324 . S
Eu60 O64 2.292 . S
Eu60 C65 2.852 1_545 S
Eu60 O76 2.324 . S
Eu60 O80 2.326 1_545 S
Eu60 O82 2.500 1_545 S
Eu60 O83 2.473 1_545 S
C61 O58 1.255 . S
C61 O62 1.247 . S
O62 C61 1.247 . S
C63 O75 1.242 . S
C63 O76 1.258 . S
O64 Eu60 2.292 . S
O64 C66 1.255 . S
C65 Eu60 2.852 1_565 S
C65 C69 1.503 1_455 S
C65 O82 1.273 . S
C65 O83 1.257 . S
C66 O64 1.255 . S
C66 O67 1.247 . S
O67 C66 1.247 . S
C68 O80 1.242 . S
C68 O81 1.258 . S
C69 C65 1.503 1_655 S
C69 C70 1.379 1_655 S
C69 C74 1.392 . S
C70 C69 1.379 1_455 S
C70 C71 1.404 1_455 S
C70 H84 0.929 . S
C71 C70 1.404 1_655 S
C71 C72 1.389 . S
C72 C71 1.389 . S
C72 C73 1.399 . S
C72 H85 0.931 . S
C73 C72 1.399 . S
C73 C74 1.390 . S
C74 C69 1.392 . S
C74 C73 1.390 . S
C74 H86 0.929 . S
O75 Tb59 2.326 1_545 S
O75 C63 1.242 . S
O76 Eu60 2.324 . S
O76 C63 1.258 . S
O77 Tb59 2.500 1_545 S
O77 C79 1.273 . S
O78 Tb59 2.473 1_545 S
O78 C79 1.257 . S
C79 O77 1.273 . S
C79 O78 1.257 . S
O80 Eu60 2.326 1_565 S
O80 C68 1.242 . S
O81 Tb59 2.324 . S
O81 C68 1.258 . S
O82 Eu60 2.500 1_565 S
O82 C65 1.273 . S
O83 Eu60 2.473 1_565 S
O83 C65 1.257 . S
H84 C70 0.929 . S
H85 C72 0.931 . S
H86 C74 0.929 . S
O87 Tb88 2.292 . S
O87 C90 1.255 . S
Tb88 O87 2.292 . S
Tb88 O104 2.326 . S
Tb88 O106 2.500 . S
Tb88 O107 2.473 . S
Tb88 O110 2.324 . S
Eu89 O93 2.292 . S
Eu89 C94 2.852 . S
Eu89 O105 2.324 . S
Eu89 O109 2.326 . S
Eu89 O111 2.500 . S
Eu89 O112 2.473 . S
C90 O87 1.255 . S
C90 O91 1.247 . S
O91 C90 1.247 . S
C92 O104 1.242 . S
C92 O105 1.258 . S
O93 Eu89 2.292 . S
O93 C95 1.255 . S
C94 Eu89 2.852 . S
C94 C98 1.503 . S
C94 O111 1.273 . S
C94 O112 1.257 . S
C95 O93 1.255 . S
C95 O96 1.247 . S
O96 C95 1.247 . S
C97 O109 1.242 . S
C97 O110 1.258 . S
C98 C94 1.503 . S
C98 C99 1.379 . S
C98 C103 1.392 . S
C99 C98 1.379 . S
C99 C100 1.404 . S
C99 H113 0.929 . S
C100 C99 1.404 . S
C100 C101 1.389 . S
C101 C100 1.389 . S
C101 C102 1.399 . S
C101 H114 0.931 . S
C102 C101 1.399 . S
C102 C103 1.390 . S
C103 C98 1.392 . S
C103 C102 1.390 . S
C103 H115 0.929 . S
O104 Tb88 2.326 . S
O104 C92 1.242 . S
O105 Eu89 2.324 . S
O105 C92 1.258 . S
O106 Tb88 2.500 . S
O106 C108 1.273 . S
O107 Tb88 2.473 . S
O107 C108 1.257 . S
C108 O106 1.273 . S
C108 O107 1.257 . S
O109 Eu89 2.326 . S
O109 C97 1.242 . S
O110 Tb88 2.324 . S
O110 C97 1.258 . S
O111 Eu89 2.500 . S
O111 C94 1.273 . S
O112 Eu89 2.473 . S
O112 C94 1.257 . S
H113 C99 0.929 . S
H114 C101 0.931 . S
H115 C103 0.929 . S
O116 Tb117 2.292 . S
O116 C119 1.255 . S
Tb117 O116 2.292 . S
Tb117 O133 2.326 . S
Tb117 O135 2.500 . S
Tb117 O136 2.473 . S
Tb117 O139 2.324 1_554 S
Eu118 O122 2.292 . S
Eu118 C123 2.852 . S
Eu118 O134 2.324 1_556 S
Eu118 O138 2.326 . S
Eu118 O140 2.500 . S
Eu118 O141 2.473 . S
C119 O116 1.255 . S
C119 O120 1.247 . S
O120 C119 1.247 . S
C121 O133 1.242 . S
C121 O134 1.258 . S
O122 Eu118 2.292 . S
O122 C124 1.255 . S
C123 Eu118 2.852 . S
C123 C127 1.503 1_655 S
C123 O140 1.273 . S
C123 O141 1.257 . S
C124 O122 1.255 . S
C124 O125 1.247 . S
O125 C124 1.247 . S
C126 O138 1.242 . S
C126 O139 1.258 . S
C127 C123 1.503 1_455 S
C127 C128 1.379 1_455 S
C127 C132 1.392 . S
C128 C127 1.379 1_655 S
C128 C129 1.404 1_655 S
C128 H142 0.929 . S
C129 C128 1.404 1_455 S
C129 C130 1.389 . S
C130 C129 1.389 . S
C130 C131 1.399 . S
C130 H143 0.931 . S
C131 C130 1.399 . S
C131 C132 1.390 . S
C132 C127 1.392 . S
C132 C131 1.390 . S
C132 H144 0.929 . S
O133 Tb117 2.326 . S
O133 C121 1.242 . S
O134 Eu118 2.324 1_554 S
O134 C121 1.258 . S
O135 Tb117 2.500 . S
O135 C137 1.273 . S
O136 Tb117 2.473 . S
O136 C137 1.257 . S
C137 O135 1.273 . S
C137 O136 1.257 . S
O138 Eu118 2.326 . S
O138 C126 1.242 . S
O139 Tb117 2.324 1_556 S
O139 C126 1.258 . S
O140 Eu118 2.500 . S
O140 C123 1.273 . S
O141 Eu118 2.473 . S
O141 C123 1.257 . S
H142 C128 0.929 . S
H143 C130 0.931 . S
H144 C132 0.929 . S
O145 Tb146 2.292 . S
O145 C148 1.255 . S
Tb146 O145 2.292 . S
Tb146 O162 2.326 1_545 S
Tb146 O164 2.500 1_545 S
Tb146 O165 2.473 1_545 S
Tb146 O168 2.324 1_554 S
Eu147 O151 2.292 . S
Eu147 C152 2.852 1_565 S
Eu147 O163 2.324 1_556 S
Eu147 O167 2.326 1_565 S
Eu147 O169 2.500 1_565 S
Eu147 O170 2.473 1_565 S
C148 O145 1.255 . S
C148 O149 1.247 . S
O149 C148 1.247 . S
C150 O162 1.242 . S
C150 O163 1.258 . S
O151 Eu147 2.292 . S
O151 C153 1.255 . S
C152 Eu147 2.852 1_545 S
C152 C156 1.503 . S
C152 O169 1.273 . S
C152 O170 1.257 . S
C153 O151 1.255 . S
C153 O154 1.247 . S
O154 C153 1.247 . S
C155 O167 1.242 . S
C155 O168 1.258 . S
C156 C152 1.503 . S
C156 C157 1.379 . S
C156 C161 1.392 . S
C157 C156 1.379 . S
C157 C158 1.404 . S
C157 H171 0.929 . S
C158 C157 1.404 . S
C158 C159 1.389 . S
C159 C158 1.389 . S
C159 C160 1.399 . S
C159 H172 0.931 . S
C160 C159 1.399 . S
C160 C161 1.390 . S
C161 C156 1.392 . S
C161 C160 1.390 . S
C161 H173 0.929 . S
O162 Tb146 2.326 1_565 S
O162 C150 1.242 . S
O163 Eu147 2.324 1_554 S
O163 C150 1.258 . S
O164 Tb146 2.500 1_565 S
O164 C166 1.273 . S
O165 Tb146 2.473 1_565 S
O165 C166 1.257 . S
C166 O164 1.273 . S
C166 O165 1.257 . S
O167 Eu147 2.326 1_545 S
O167 C155 1.242 . S
O168 Tb146 2.324 1_556 S
O168 C155 1.258 . S
O169 Eu147 2.500 1_545 S
O169 C152 1.273 . S
O170 Eu147 2.473 1_545 S
O170 C152 1.257 . S
H171 C157 0.929 . S
H172 C159 0.931 . S
H173 C161 0.929 . S
O174 Tb175 2.292 . S
O174 C177 1.255 . S
Tb175 O174 2.292 . S
Tb175 O191 2.326 1_545 S
Tb175 O193 2.500 1_545 S
Tb175 O194 2.473 1_545 S
Tb175 O197 2.324 . S
Eu176 O180 2.292 . S
Eu176 C181 2.852 1_565 S
Eu176 O192 2.324 . S
Eu176 O196 2.326 1_565 S
Eu176 O198 2.500 1_565 S
Eu176 O199 2.473 1_565 S
C177 O174 1.255 . S
C177 O178 1.247 . S
O178 C177 1.247 . S
C179 O191 1.242 . S
C179 O192 1.258 . S
O180 Eu176 2.292 . S
O180 C182 1.255 . S
C181 Eu176 2.852 1_545 S
C181 C185 1.503 1_655 S
C181 O198 1.273 . S
C181 O199 1.257 . S
C182 O180 1.255 . S
C182 O183 1.247 . S
O183 C182 1.247 . S
C184 O196 1.242 . S
C184 O197 1.258 . S
C185 C181 1.503 1_455 S
C185 C186 1.379 1_455 S
C185 C190 1.392 . S
C186 C185 1.379 1_655 S
C186 C187 1.404 1_655 S
C186 H200 0.929 . S
C187 C186 1.404 1_455 S
C187 C188 1.389 . S
C188 C187 1.389 . S
C188 C189 1.399 . S
C188 H201 0.931 . S
C189 C188 1.399 . S
C189 C190 1.390 . S
C190 C185 1.392 . S
C190 C189 1.390 . S
C190 H202 0.929 . S
O191 Tb175 2.326 1_565 S
O191 C179 1.242 . S
O192 Eu176 2.324 . S
O192 C179 1.258 . S
O193 Tb175 2.500 1_565 S
O193 C195 1.273 . S
O194 Tb175 2.473 1_565 S
O194 C195 1.257 . S
C195 O193 1.273 . S
C195 O194 1.257 . S
O196 Eu176 2.326 1_545 S
O196 C184 1.242 . S
O197 Tb175 2.324 . S
O197 C184 1.258 . S
O198 Eu176 2.500 1_545 S
O198 C181 1.273 . S
O199 Eu176 2.473 1_545 S
O199 C181 1.257 . S
H200 C186 0.929 . S
H201 C188 0.931 . S
H202 C190 0.929 . S
O203 Tb204 2.292 . S
O203 C206 1.255 . S
Tb204 O203 2.292 . S
Tb204 O220 2.326 . S
Tb204 O222 2.500 . S
Tb204 O223 2.473 . S
Tb204 O226 2.324 . S
Eu205 O209 2.292 . S
Eu205 C210 2.852 . S
Eu205 O221 2.324 . S
Eu205 O225 2.326 . S
Eu205 O227 2.500 . S
Eu205 O228 2.473 . S
C206 O203 1.255 . S
C206 O207 1.247 . S
O207 C206 1.247 . S
C208 O220 1.242 . S
C208 O221 1.258 . S
O209 Eu205 2.292 . S
O209 C211 1.255 . S
C210 Eu205 2.852 . S
C210 C214 1.503 . S
C210 O227 1.273 . S
C210 O228 1.257 . S
C211 O209 1.255 . S
C211 O212 1.247 . S
O212 C211 1.247 . S
C213 O225 1.242 . S
C213 O226 1.258 . S
C214 C210 1.503 . S
C214 C215 1.379 . S
C214 C219 1.392 . S
C215 C214 1.379 . S
C215 C216 1.404 . S
C215 H229 0.929 . S
C216 C215 1.404 . S
C216 C217 1.389 . S
C217 C216 1.389 . S
C217 C218 1.399 . S
C217 H230 0.931 . S
C218 C217 1.399 . S
C218 C219 1.390 . S
C219 C214 1.392 . S
C219 C218 1.390 . S
C219 H231 0.929 . S
O220 Tb204 2.326 . S
O220 C208 1.242 . S
O221 Eu205 2.324 . S
O221 C208 1.258 . S
O222 Tb204 2.500 . S
O222 C224 1.273 . S
O223 Tb204 2.473 . S
O223 C224 1.257 . S
C224 O222 1.273 . S
C224 O223 1.257 . S
O225 Eu205 2.326 . S
O225 C213 1.242 . S
O226 Tb204 2.324 . S
O226 C213 1.258 . S
O227 Eu205 2.500 . S
O227 C210 1.273 . S
O228 Eu205 2.473 . S
O228 C210 1.257 . S
H229 C215 0.929 . S
H230 C217 0.931 . S
H231 C219 0.929 . S
O232 Tb233 2.292 . S
O232 C235 1.255 . S
Tb233 O232 2.292 . S
Tb233 O249 2.326 . S
Tb233 O251 2.500 . S
Tb233 O252 2.473 . S
Tb233 O255 2.324 . S
Eu234 O238 2.292 . S
Eu234 C239 2.852 . S
Eu234 O250 2.324 . S
Eu234 O254 2.326 . S
Eu234 O256 2.500 . S
Eu234 O257 2.473 . S
C235 O232 1.255 . S
C235 O236 1.247 . S
O236 C235 1.247 . S
C237 O249 1.242 . S
C237 O250 1.258 . S
O238 Eu234 2.292 . S
O238 C240 1.255 . S
C239 Eu234 2.852 . S
C239 C243 1.503 1_455 S
C239 O256 1.273 . S
C239 O257 1.257 . S
C240 O238 1.255 . S
C240 O241 1.247 . S
O241 C240 1.247 . S
C242 O254 1.242 . S
C242 O255 1.258 . S
C243 C239 1.503 1_655 S
C243 C244 1.379 1_655 S
C243 C248 1.392 . S
C244 C243 1.379 1_455 S
C244 C245 1.404 1_455 S
C244 H258 0.929 . S
C245 C244 1.404 1_655 S
C245 C246 1.389 1_565 S
C246 C245 1.389 1_545 S
C246 C247 1.399 1_545 S
C246 H259 0.931 . S
C247 C246 1.399 1_565 S
C247 C248 1.390 . S
C248 C243 1.392 . S
C248 C247 1.390 . S
C248 H260 0.929 . S
O249 Tb233 2.326 . S
O249 C237 1.242 . S
O250 Eu234 2.324 . S
O250 C237 1.258 . S
O251 Tb233 2.500 . S
O251 C253 1.273 . S
O252 Tb233 2.473 . S
O252 C253 1.257 . S
C253 O251 1.273 . S
C253 O252 1.257 . S
O254 Eu234 2.326 . S
O254 C242 1.242 . S
O255 Tb233 2.324 . S
O255 C242 1.258 . S
O256 Eu234 2.500 . S
O256 C239 1.273 . S
O257 Eu234 2.473 . S
O257 C239 1.257 . S
H258 C244 0.929 . S
H259 C246 0.931 . S
H260 C248 0.929 . S
O261 Tb262 2.292 . S
O261 C264 1.255 . S
Tb262 O261 2.292 . S
Tb262 O278 2.326 . S
Tb262 O280 2.500 . S
Tb262 O281 2.473 . S
Tb262 O284 2.324 . S
Eu263 O267 2.292 . S
Eu263 C268 2.852 . S
Eu263 O279 2.324 . S
Eu263 O283 2.326 . S
Eu263 O285 2.500 . S
Eu263 O286 2.473 . S
C264 O261 1.255 . S
C264 O265 1.247 . S
O265 C264 1.247 . S
C266 O278 1.242 . S
C266 O279 1.258 . S
O267 Eu263 2.292 . S
O267 C269 1.255 . S
C268 Eu263 2.852 . S
C268 C272 1.503 . S
C268 O285 1.273 . S
C268 O286 1.257 . S
C269 O267 1.255 . S
C269 O270 1.247 . S
O270 C269 1.247 . S
C271 O283 1.242 . S
C271 O284 1.258 . S
C272 C268 1.503 . S
C272 C273 1.379 . S
C272 C277 1.392 . S
C273 C272 1.379 . S
C273 C274 1.404 . S
C273 H287 0.929 . S
C274 C273 1.404 . S
C274 C275 1.389 . S
C275 C274 1.389 . S
C275 C276 1.399 . S
C275 H288 0.931 . S
C276 C275 1.399 . S
C276 C277 1.390 . S
C277 C272 1.392 . S
C277 C276 1.390 . S
C277 H289 0.929 . S
O278 Tb262 2.326 . S
O278 C266 1.242 . S
O279 Eu263 2.324 . S
O279 C266 1.258 . S
O280 Tb262 2.500 . S
O280 C282 1.273 . S
O281 Tb262 2.473 . S
O281 C282 1.257 . S
C282 O280 1.273 . S
C282 O281 1.257 . S
O283 Eu263 2.326 . S
O283 C271 1.242 . S
O284 Tb262 2.324 . S
O284 C271 1.258 . S
O285 Eu263 2.500 . S
O285 C268 1.273 . S
O286 Eu263 2.473 . S
O286 C268 1.257 . S
H287 C273 0.929 . S
H288 C275 0.931 . S
H289 C277 0.929 . S
O290 Tb291 2.292 . S
O290 C293 1.255 . S
Tb291 O290 2.292 . S
Tb291 O307 2.326 . S
Tb291 O309 2.500 . S
Tb291 O310 2.473 . S
Tb291 O313 2.324 . S
Eu292 O296 2.292 . S
Eu292 C297 2.852 . S
Eu292 O308 2.324 . S
Eu292 O312 2.326 . S
Eu292 O314 2.500 . S
Eu292 O315 2.473 . S
C293 O290 1.255 . S
C293 O294 1.247 . S
O294 C293 1.247 . S
C295 O307 1.242 . S
C295 O308 1.258 . S
O296 Eu292 2.292 . S
O296 C298 1.255 . S
C297 Eu292 2.852 . S
C297 C301 1.503 1_455 S
C297 O314 1.273 . S
C297 O315 1.257 . S
C298 O296 1.255 . S
C298 O299 1.247 . S
O299 C298 1.247 . S
C300 O312 1.242 . S
C300 O313 1.258 . S
C301 C297 1.503 1_655 S
C301 C302 1.379 1_655 S
C301 C306 1.392 . S
C302 C301 1.379 1_455 S
C302 C303 1.404 1_455 S
C302 H316 0.929 . S
C303 C302 1.404 1_655 S
C303 C304 1.389 . S
C304 C303 1.389 . S
C304 C305 1.399 . S
C304 H317 0.931 . S
C305 C304 1.399 . S
C305 C306 1.390 . S
C306 C301 1.392 . S
C306 C305 1.390 . S
C306 H318 0.929 . S
O307 Tb291 2.326 . S
O307 C295 1.242 . S
O308 Eu292 2.324 . S
O308 C295 1.258 . S
O309 Tb291 2.500 . S
O309 C311 1.273 . S
O310 Tb291 2.473 . S
O310 C311 1.257 . S
C311 O309 1.273 . S
C311 O310 1.257 . S
O312 Eu292 2.326 . S
O312 C300 1.242 . S
O313 Tb291 2.324 . S
O313 C300 1.258 . S
O314 Eu292 2.500 . S
O314 C297 1.273 . S
O315 Eu292 2.473 . S
O315 C297 1.257 . S
H316 C302 0.929 . S
H317 C304 0.931 . S
H318 C306 0.929 . S
O319 Tb320 2.292 . S
O319 C322 1.255 . S
Tb320 O319 2.292 . S
Tb320 O336 2.326 . S
Tb320 O338 2.500 . S
Tb320 O339 2.473 . S
Tb320 O342 2.324 . S
Eu321 O325 2.292 . S
Eu321 C326 2.852 . S
Eu321 O337 2.324 . S
Eu321 O341 2.326 . S
Eu321 O343 2.500 . S
Eu321 O344 2.473 . S
C322 O319 1.255 . S
C322 O323 1.247 . S
O323 C322 1.247 . S
C324 O336 1.242 . S
C324 O337 1.258 . S
O325 Eu321 2.292 . S
O325 C327 1.255 . S
C326 Eu321 2.852 . S
C326 C330 1.503 . S
C326 O343 1.273 . S
C326 O344 1.257 . S
C327 O325 1.255 . S
C327 O328 1.247 . S
O328 C327 1.247 . S
C329 O341 1.242 . S
C329 O342 1.258 . S
C330 C326 1.503 . S
C330 C331 1.379 . S
C330 C335 1.392 . S
C331 C330 1.379 . S
C331 C332 1.404 . S
C331 H345 0.929 . S
C332 C331 1.404 . S
C332 C333 1.389 1_565 S
C333 C332 1.389 1_545 S
C333 C334 1.399 1_545 S
C333 H346 0.931 . S
C334 C333 1.399 1_565 S
C334 C335 1.390 . S
C335 C330 1.392 . S
C335 C334 1.390 . S
C335 H347 0.929 . S
O336 Tb320 2.326 . S
O336 C324 1.242 . S
O337 Eu321 2.324 . S
O337 C324 1.258 . S
O338 Tb320 2.500 . S
O338 C340 1.273 . S
O339 Tb320 2.473 . S
O339 C340 1.257 . S
C340 O338 1.273 . S
C340 O339 1.257 . S
O341 Eu321 2.326 . S
O341 C329 1.242 . S
O342 Tb320 2.324 . S
O342 C329 1.258 . S
O343 Eu321 2.500 . S
O343 C326 1.273 . S
O344 Eu321 2.473 . S
O344 C326 1.257 . S
H345 C331 0.929 . S
H346 C333 0.931 . S
H347 C335 0.929 . S
O348 Tb349 2.292 . S
O348 C351 1.255 . S
Tb349 O348 2.292 . S
Tb349 O365 2.326 . S
Tb349 O367 2.500 . S
Tb349 O368 2.473 . S
Tb349 O371 2.324 . S
Eu350 O354 2.292 . S
Eu350 C355 2.852 . S
Eu350 O366 2.324 . S
Eu350 O370 2.326 . S
Eu350 O372 2.500 . S
Eu350 O373 2.473 . S
C351 O348 1.255 . S
C351 O352 1.247 . S
O352 C351 1.247 . S
C353 O365 1.242 . S
C353 O366 1.258 . S
O354 Eu350 2.292 . S
O354 C356 1.255 . S
C355 Eu350 2.852 . S
C355 C359 1.503 1_655 S
C355 O372 1.273 . S
C355 O373 1.257 . S
C356 O354 1.255 . S
C356 O357 1.247 . S
O357 C356 1.247 . S
C358 O370 1.242 . S
C358 O371 1.258 . S
C359 C355 1.503 1_455 S
C359 C360 1.379 1_455 S
C359 C364 1.392 . S
C360 C359 1.379 1_655 S
C360 C361 1.404 1_655 S
C360 H374 0.929 . S
C361 C360 1.404 1_455 S
C361 C362 1.389 1_545 S
C362 C361 1.389 1_565 S
C362 C363 1.399 1_565 S
C362 H375 0.931 . S
C363 C362 1.399 1_545 S
C363 C364 1.390 . S
C364 C359 1.392 . S
C364 C363 1.390 . S
C364 H376 0.929 . S
O365 Tb349 2.326 . S
O365 C353 1.242 . S
O366 Eu350 2.324 . S
O366 C353 1.258 . S
O367 Tb349 2.500 . S
O367 C369 1.273 . S
O368 Tb349 2.473 . S
O368 C369 1.257 . S
C369 O367 1.273 . S
C369 O368 1.257 . S
O370 Eu350 2.326 . S
O370 C358 1.242 . S
O371 Tb349 2.324 . S
O371 C358 1.258 . S
O372 Eu350 2.500 . S
O372 C355 1.273 . S
O373 Eu350 2.473 . S
O373 C355 1.257 . S
H374 C360 0.929 . S
H375 C362 0.931 . S
H376 C364 0.929 . S
O377 Tb378 2.292 . S
O377 C380 1.255 . S
Tb378 O377 2.292 . S
Tb378 O394 2.326 . S
Tb378 O396 2.500 . S
Tb378 O397 2.473 . S
Tb378 O400 2.324 . S
Eu379 O383 2.292 . S
Eu379 C384 2.852 . S
Eu379 O395 2.324 . S
Eu379 O399 2.326 . S
Eu379 O401 2.500 . S
Eu379 O402 2.473 . S
C380 O377 1.255 . S
C380 O381 1.247 . S
O381 C380 1.247 . S
C382 O394 1.242 . S
C382 O395 1.258 . S
O383 Eu379 2.292 . S
O383 C385 1.255 . S
C384 Eu379 2.852 . S
C384 C388 1.503 . S
C384 O401 1.273 . S
C384 O402 1.257 . S
C385 O383 1.255 . S
C385 O386 1.247 . S
O386 C385 1.247 . S
C387 O399 1.242 . S
C387 O400 1.258 . S
C388 C384 1.503 . S
C388 C389 1.379 . S
C388 C393 1.392 . S
C389 C388 1.379 . S
C389 C390 1.404 . S
C389 H403 0.929 . S
C390 C389 1.404 . S
C390 C391 1.389 . S
C391 C390 1.389 . S
C391 C392 1.399 . S
C391 H404 0.931 . S
C392 C391 1.399 . S
C392 C393 1.390 . S
C393 C388 1.392 . S
C393 C392 1.390 . S
C393 H405 0.929 . S
O394 Tb378 2.326 . S
O394 C382 1.242 . S
O395 Eu379 2.324 . S
O395 C382 1.258 . S
O396 Tb378 2.500 . S
O396 C398 1.273 . S
O397 Tb378 2.473 . S
O397 C398 1.257 . S
C398 O396 1.273 . S
C398 O397 1.257 . S
O399 Eu379 2.326 . S
O399 C387 1.242 . S
O400 Tb378 2.324 . S
O400 C387 1.258 . S
O401 Eu379 2.500 . S
O401 C384 1.273 . S
O402 Eu379 2.473 . S
O402 C384 1.257 . S
H403 C389 0.929 . S
H404 C391 0.931 . S
H405 C393 0.929 . S
O406 Tb407 2.292 . S
O406 C409 1.255 . S
Tb407 O406 2.292 . S
Tb407 O423 2.326 . S
Tb407 O425 2.500 . S
Tb407 O426 2.473 . S
Tb407 O429 2.324 . S
Eu408 O412 2.292 . S
Eu408 C413 2.852 . S
Eu408 O424 2.324 . S
Eu408 O428 2.326 . S
Eu408 O430 2.500 . S
Eu408 O431 2.473 . S
C409 O406 1.255 . S
C409 O410 1.247 . S
O410 C409 1.247 . S
C411 O423 1.242 . S
C411 O424 1.258 . S
O412 Eu408 2.292 . S
O412 C414 1.255 . S
C413 Eu408 2.852 . S
C413 C417 1.503 1_655 S
C413 O430 1.273 . S
C413 O431 1.257 . S
C414 O412 1.255 . S
C414 O415 1.247 . S
O415 C414 1.247 . S
C416 O428 1.242 . S
C416 O429 1.258 . S
C417 C413 1.503 1_455 S
C417 C418 1.379 1_455 S
C417 C422 1.392 . S
C418 C417 1.379 1_655 S
C418 C419 1.404 1_655 S
C418 H432 0.929 . S
C419 C418 1.404 1_455 S
C419 C420 1.389 . S
C420 C419 1.389 . S
C420 C421 1.399 . S
C420 H433 0.931 . S
C421 C420 1.399 . S
C421 C422 1.390 . S
C422 C417 1.392 . S
C422 C421 1.390 . S
C422 H434 0.929 . S
O423 Tb407 2.326 . S
O423 C411 1.242 . S
O424 Eu408 2.324 . S
O424 C411 1.258 . S
O425 Tb407 2.500 . S
O425 C427 1.273 . S
O426 Tb407 2.473 . S
O426 C427 1.257 . S
C427 O425 1.273 . S
C427 O426 1.257 . S
O428 Eu408 2.326 . S
O428 C416 1.242 . S
O429 Tb407 2.324 . S
O429 C416 1.258 . S
O430 Eu408 2.500 . S
O430 C413 1.273 . S
O431 Eu408 2.473 . S
O431 C413 1.257 . S
H432 C418 0.929 . S
H433 C420 0.931 . S
H434 C422 0.929 . S
O435 Tb436 2.292 . S
O435 C438 1.255 . S
Tb436 O435 2.292 . S
Tb436 O452 2.326 . S
Tb436 O454 2.500 . S
Tb436 O455 2.473 . S
Tb436 O458 2.324 . S
Eu437 O441 2.292 . S
Eu437 C442 2.852 . S
Eu437 O453 2.324 . S
Eu437 O457 2.326 . S
Eu437 O459 2.500 . S
Eu437 O460 2.473 . S
C438 O435 1.255 . S
C438 O439 1.247 . S
O439 C438 1.247 . S
C440 O452 1.242 . S
C440 O453 1.258 . S
O441 Eu437 2.292 . S
O441 C443 1.255 . S
C442 Eu437 2.852 . S
C442 C446 1.503 . S
C442 O459 1.273 . S
C442 O460 1.257 . S
C443 O441 1.255 . S
C443 O444 1.247 . S
O444 C443 1.247 . S
C445 O457 1.242 . S
C445 O458 1.258 . S
C446 C442 1.503 . S
C446 C447 1.379 . S
C446 C451 1.392 . S
C447 C446 1.379 . S
C447 C448 1.404 . S
C447 H461 0.929 . S
C448 C447 1.404 . S
C448 C449 1.389 1_545 S
C449 C448 1.389 1_565 S
C449 C450 1.399 1_565 S
C449 H462 0.931 . S
C450 C449 1.399 1_545 S
C450 C451 1.390 . S
C451 C446 1.392 . S
C451 C450 1.390 . S
C451 H463 0.929 . S
O452 Tb436 2.326 . S
O452 C440 1.242 . S
O453 Eu437 2.324 . S
O453 C440 1.258 . S
O454 Tb436 2.500 . S
O454 C456 1.273 . S
O455 Tb436 2.473 . S
O455 C456 1.257 . S
C456 O454 1.273 . S
C456 O455 1.257 . S
O457 Eu437 2.326 . S
O457 C445 1.242 . S
O458 Tb436 2.324 . S
O458 C445 1.258 . S
O459 Eu437 2.500 . S
O459 C442 1.273 . S
O460 Eu437 2.473 . S
O460 C442 1.257 . S
H461 C447 0.929 . S
H462 C449 0.931 . S
H463 C451 0.929 . S
O464 Tb465 2.292 . S
O464 C467 1.255 . S
Tb465 O464 2.292 . S
Tb465 O481 2.326 . S
Tb465 O483 2.500 . S
Tb465 O484 2.473 . S
Tb465 O487 2.324 . S
Eu466 O470 2.292 . S
Eu466 C471 2.852 . S
Eu466 O482 2.324 . S
Eu466 O486 2.326 . S
Eu466 O488 2.500 . S
Eu466 O489 2.473 . S
C467 O464 1.255 . S
C467 O468 1.247 . S
O468 C467 1.247 . S
C469 O481 1.242 . S
C469 O482 1.258 . S
O470 Eu466 2.292 . S
O470 C472 1.255 . S
C471 Eu466 2.852 . S
C471 C475 1.503 . S
C471 O488 1.273 . S
C471 O489 1.257 . S
C472 O470 1.255 . S
C472 O473 1.247 . S
O473 C472 1.247 . S
C474 O486 1.242 . S
C474 O487 1.258 . S
C475 C471 1.503 . S
C475 C476 1.379 . S
C475 C480 1.392 . S
C476 C475 1.379 . S
C476 C477 1.404 . S
C476 H490 0.929 . S
C477 C476 1.404 . S
C477 C478 1.389 . S
C478 C477 1.389 . S
C478 C479 1.399 . S
C478 H491 0.931 . S
C479 C478 1.399 . S
C479 C480 1.390 . S
C480 C475 1.392 . S
C480 C479 1.390 . S
C480 H492 0.929 . S
O481 Tb465 2.326 . S
O481 C469 1.242 . S
O482 Eu466 2.324 . S
O482 C469 1.258 . S
O483 Tb465 2.500 . S
O483 C485 1.273 . S
O484 Tb465 2.473 . S
O484 C485 1.257 . S
C485 O483 1.273 . S
C485 O484 1.257 . S
O486 Eu466 2.326 . S
O486 C474 1.242 . S
O487 Tb465 2.324 . S
O487 C474 1.258 . S
O488 Eu466 2.500 . S
O488 C471 1.273 . S
O489 Eu466 2.473 . S
O489 C471 1.257 . S
H490 C476 0.929 . S
H491 C478 0.931 . S
H492 C480 0.929 . S
O493 Tb494 2.292 . S
O493 C496 1.255 . S
Tb494 O493 2.292 . S
Tb494 O510 2.326 1_565 S
Tb494 O512 2.500 1_565 S
Tb494 O513 2.473 1_565 S
Tb494 O516 2.324 . S
Eu495 O499 2.292 . S
Eu495 C500 2.852 1_545 S
Eu495 O511 2.324 . S
Eu495 O515 2.326 1_545 S
Eu495 O517 2.500 1_545 S
Eu495 O518 2.473 1_545 S
C496 O493 1.255 . S
C496 O497 1.247 . S
O497 C496 1.247 . S
C498 O510 1.242 . S
C498 O511 1.258 . S
O499 Eu495 2.292 . S
O499 C501 1.255 . S
C500 Eu495 2.852 1_565 S
C500 C504 1.503 . S
C500 O517 1.273 . S
C500 O518 1.257 . S
C501 O499 1.255 . S
C501 O502 1.247 . S
O502 C501 1.247 . S
C503 O515 1.242 . S
C503 O516 1.258 . S
C504 C500 1.503 . S
C504 C505 1.379 . S
C504 C509 1.392 . S
C505 C504 1.379 . S
C505 C506 1.404 . S
C505 H519 0.929 . S
C506 C505 1.404 . S
C506 C507 1.389 . S
C507 C506 1.389 . S
C507 C508 1.399 . S
C507 H520 0.931 . S
C508 C507 1.399 . S
C508 C509 1.390 . S
C509 C504 1.392 . S
C509 C508 1.390 . S
C509 H521 0.929 . S
O510 Tb494 2.326 1_545 S
O510 C498 1.242 . S
O511 Eu495 2.324 . S
O511 C498 1.258 . S
O512 Tb494 2.500 1_545 S
O512 C514 1.273 . S
O513 Tb494 2.473 1_545 S
O513 C514 1.257 . S
C514 O512 1.273 . S
C514 O513 1.257 . S
O515 Eu495 2.326 1_565 S
O515 C503 1.242 . S
O516 Tb494 2.324 . S
O516 C503 1.258 . S
O517 Eu495 2.500 1_565 S
O517 C500 1.273 . S
O518 Eu495 2.473 1_565 S
O518 C500 1.257 . S
H519 C505 0.929 . S
H520 C507 0.931 . S
H521 C509 0.929 . S
O522 Tb523 2.292 . S
O522 C525 1.255 . S
Tb523 O522 2.292 . S
Tb523 O539 2.326 1_565 S
Tb523 O541 2.500 1_565 S
Tb523 O542 2.473 1_565 S
Tb523 O545 2.324 . S
Eu524 O528 2.292 . S
Eu524 C529 2.852 1_545 S
Eu524 O540 2.324 . S
Eu524 O544 2.326 1_545 S
Eu524 O546 2.500 1_545 S
Eu524 O547 2.473 1_545 S
C525 O522 1.255 . S
C525 O526 1.247 . S
O526 C525 1.247 . S
C527 O539 1.242 . S
C527 O540 1.258 . S
O528 Eu524 2.292 . S
O528 C530 1.255 . S
C529 Eu524 2.852 1_565 S
C529 C533 1.503 . S
C529 O546 1.273 . S
C529 O547 1.257 . S
C530 O528 1.255 . S
C530 O531 1.247 . S
O531 C530 1.247 . S
C532 O544 1.242 . S
C532 O545 1.258 . S
C533 C529 1.503 . S
C533 C534 1.379 . S
C533 C538 1.392 . S
C534 C533 1.379 . S
C534 C535 1.404 . S
C534 H548 0.929 . S
C535 C534 1.404 . S
C535 C536 1.389 . S
C536 C535 1.389 . S
C536 C537 1.399 . S
C536 H549 0.931 . S
C537 C536 1.399 . S
C537 C538 1.390 . S
C538 C533 1.392 . S
C538 C537 1.390 . S
C538 H550 0.929 . S
O539 Tb523 2.326 1_545 S
O539 C527 1.242 . S
O540 Eu524 2.324 . S
O540 C527 1.258 . S
O541 Tb523 2.500 1_545 S
O541 C543 1.273 . S
O542 Tb523 2.473 1_545 S
O542 C543 1.257 . S
C543 O541 1.273 . S
C543 O542 1.257 . S
O544 Eu524 2.326 1_565 S
O544 C532 1.242 . S
O545 Tb523 2.324 . S
O545 C532 1.258 . S
O546 Eu524 2.500 1_565 S
O546 C529 1.273 . S
O547 Eu524 2.473 1_565 S
O547 C529 1.257 . S
H548 C534 0.929 . S
H549 C536 0.931 . S
H550 C538 0.929 . S
O551 Tb552 2.292 . S
O551 C554 1.255 . S
Tb552 O551 2.292 . S
Tb552 O568 2.326 . S
Tb552 O570 2.500 . S
Tb552 O571 2.473 . S
Tb552 O574 2.324 . S
Eu553 O557 2.292 . S
Eu553 C558 2.852 . S
Eu553 O569 2.324 . S
Eu553 O573 2.326 . S
Eu553 O575 2.500 . S
Eu553 O576 2.473 . S
C554 O551 1.255 . S
C554 O555 1.247 . S
O555 C554 1.247 . S
C556 O568 1.242 . S
C556 O569 1.258 . S
O557 Eu553 2.292 . S
O557 C559 1.255 . S
C558 Eu553 2.852 . S
C558 C562 1.503 . S
C558 O575 1.273 . S
C558 O576 1.257 . S
C559 O557 1.255 . S
C559 O560 1.247 . S
O560 C559 1.247 . S
C561 O573 1.242 . S
C561 O574 1.258 . S
C562 C558 1.503 . S
C562 C563 1.379 . S
C562 C567 1.392 . S
C563 C562 1.379 . S
C563 C564 1.404 . S
C563 H577 0.929 . S
C564 C563 1.404 . S
C564 C565 1.389 . S
C565 C564 1.389 . S
C565 C566 1.399 . S
C565 H578 0.931 . S
C566 C565 1.399 . S
C566 C567 1.390 . S
C567 C562 1.392 . S
C567 C566 1.390 . S
C567 H579 0.929 . S
O568 Tb552 2.326 . S
O568 C556 1.242 . S
O569 Eu553 2.324 . S
O569 C556 1.258 . S
O570 Tb552 2.500 . S
O570 C572 1.273 . S
O571 Tb552 2.473 . S
O571 C572 1.257 . S
C572 O570 1.273 . S
C572 O571 1.257 . S
O573 Eu553 2.326 . S
O573 C561 1.242 . S
O574 Tb552 2.324 . S
O574 C561 1.258 . S
O575 Eu553 2.500 . S
O575 C558 1.273 . S
O576 Eu553 2.473 . S
O576 C558 1.257 . S
H577 C563 0.929 . S
H578 C565 0.931 . S
H579 C567 0.929 . S
O580 Tb581 2.292 . S
O580 C583 1.255 . S
Tb581 O580 2.292 . S
Tb581 O597 2.326 . S
Tb581 O599 2.500 . S
Tb581 O600 2.473 . S
Tb581 O603 2.324 . S
Eu582 O586 2.292 . S
Eu582 C587 2.852 . S
Eu582 O598 2.324 . S
Eu582 O602 2.326 . S
Eu582 O604 2.500 . S
Eu582 O605 2.473 . S
C583 O580 1.255 . S
C583 O584 1.247 . S
O584 C583 1.247 . S
C585 O597 1.242 . S
C585 O598 1.258 . S
O586 Eu582 2.292 . S
O586 C588 1.255 . S
C587 Eu582 2.852 . S
C587 C591 1.503 . S
C587 O604 1.273 . S
C587 O605 1.257 . S
C588 O586 1.255 . S
C588 O589 1.247 . S
O589 C588 1.247 . S
C590 O602 1.242 . S
C590 O603 1.258 . S
C591 C587 1.503 . S
C591 C592 1.379 . S
C591 C596 1.392 . S
C592 C591 1.379 . S
C592 C593 1.404 . S
C592 H606 0.929 . S
C593 C592 1.404 . S
C593 C594 1.389 . S
C594 C593 1.389 . S
C594 C595 1.399 . S
C594 H607 0.931 . S
C595 C594 1.399 . S
C595 C596 1.390 . S
C596 C591 1.392 . S
C596 C595 1.390 . S
C596 H608 0.929 . S
O597 Tb581 2.326 . S
O597 C585 1.242 . S
O598 Eu582 2.324 . S
O598 C585 1.258 . S
O599 Tb581 2.500 . S
O599 C601 1.273 . S
O600 Tb581 2.473 . S
O600 C601 1.257 . S
C601 O599 1.273 . S
C601 O600 1.257 . S
O602 Eu582 2.326 . S
O602 C590 1.242 . S
O603 Tb581 2.324 . S
O603 C590 1.258 . S
O604 Eu582 2.500 . S
O604 C587 1.273 . S
O605 Eu582 2.473 . S
O605 C587 1.257 . S
H606 C592 0.929 . S
H607 C594 0.931 . S
H608 C596 0.929 . S
O609 Tb610 2.292 . S
O609 C612 1.255 . S
Tb610 O609 2.292 . S
Tb610 O626 2.326 1_545 S
Tb610 O628 2.500 1_545 S
Tb610 O629 2.473 1_545 S
Tb610 O632 2.324 . S
Eu611 O615 2.292 . S
Eu611 C616 2.852 1_565 S
Eu611 O627 2.324 . S
Eu611 O631 2.326 1_565 S
Eu611 O633 2.500 1_565 S
Eu611 O634 2.473 1_565 S
C612 O609 1.255 . S
C612 O613 1.247 . S
O613 C612 1.247 . S
C614 O626 1.242 . S
C614 O627 1.258 . S
O615 Eu611 2.292 . S
O615 C617 1.255 . S
C616 Eu611 2.852 1_545 S
C616 C620 1.503 . S
C616 O633 1.273 . S
C616 O634 1.257 . S
C617 O615 1.255 . S
C617 O618 1.247 . S
O618 C617 1.247 . S
C619 O631 1.242 . S
C619 O632 1.258 . S
C620 C616 1.503 . S
C620 C621 1.379 . S
C620 C625 1.392 . S
C621 C620 1.379 . S
C621 C622 1.404 . S
C621 H635 0.929 . S
C622 C621 1.404 . S
C622 C623 1.389 . S
C623 C622 1.389 . S
C623 C624 1.399 . S
C623 H636 0.931 . S
C624 C623 1.399 . S
C624 C625 1.390 . S
C625 C620 1.392 . S
C625 C624 1.390 . S
C625 H637 0.929 . S
O626 Tb610 2.326 1_565 S
O626 C614 1.242 . S
O627 Eu611 2.324 . S
O627 C614 1.258 . S
O628 Tb610 2.500 1_565 S
O628 C630 1.273 . S
O629 Tb610 2.473 1_565 S
O629 C630 1.257 . S
C630 O628 1.273 . S
C630 O629 1.257 . S
O631 Eu611 2.326 1_545 S
O631 C619 1.242 . S
O632 Tb610 2.324 . S
O632 C619 1.258 . S
O633 Eu611 2.500 1_545 S
O633 C616 1.273 . S
O634 Eu611 2.473 1_545 S
O634 C616 1.257 . S
H635 C621 0.929 . S
H636 C623 0.931 . S
H637 C625 0.929 . S
O638 Tb639 2.292 . S
O638 C641 1.255 . S
Tb639 O638 2.292 . S
Tb639 O655 2.326 1_545 S
Tb639 O657 2.500 1_545 S
Tb639 O658 2.473 1_545 S
Tb639 O661 2.324 . S
Eu640 O644 2.292 . S
Eu640 C645 2.852 1_565 S
Eu640 O656 2.324 . S
Eu640 O660 2.326 1_565 S
Eu640 O662 2.500 1_565 S
Eu640 O663 2.473 1_565 S
C641 O638 1.255 . S
C641 O642 1.247 . S
O642 C641 1.247 . S
C643 O655 1.242 . S
C643 O656 1.258 . S
O644 Eu640 2.292 . S
O644 C646 1.255 . S
C645 Eu640 2.852 1_545 S
C645 C649 1.503 . S
C645 O662 1.273 . S
C645 O663 1.257 . S
C646 O644 1.255 . S
C646 O647 1.247 . S
O647 C646 1.247 . S
C648 O660 1.242 . S
C648 O661 1.258 . S
C649 C645 1.503 . S
C649 C650 1.379 . S
C649 C654 1.392 . S
C650 C649 1.379 . S
C650 C651 1.404 . S
C650 H664 0.929 . S
C651 C650 1.404 . S
C651 C652 1.389 . S
C652 C651 1.389 . S
C652 C653 1.399 . S
C652 H665 0.931 . S
C653 C652 1.399 . S
C653 C654 1.390 . S
C654 C649 1.392 . S
C654 C653 1.390 . S
C654 H666 0.929 . S
O655 Tb639 2.326 1_565 S
O655 C643 1.242 . S
O656 Eu640 2.324 . S
O656 C643 1.258 . S
O657 Tb639 2.500 1_565 S
O657 C659 1.273 . S
O658 Tb639 2.473 1_565 S
O658 C659 1.257 . S
C659 O657 1.273 . S
C659 O658 1.257 . S
O660 Eu640 2.326 1_545 S
O660 C648 1.242 . S
O661 Tb639 2.324 . S
O661 C648 1.258 . S
O662 Eu640 2.500 1_545 S
O662 C645 1.273 . S
O663 Eu640 2.473 1_545 S
O663 C645 1.257 . S
H664 C650 0.929 . S
H665 C652 0.931 . S
H666 C654 0.929 . S
O667 Tb668 2.292 . S
O667 C670 1.255 . S
Tb668 O667 2.292 . S
Tb668 O684 2.326 . S
Tb668 O686 2.500 . S
Tb668 O687 2.473 . S
Tb668 O690 2.324 . S
Eu669 O673 2.292 . S
Eu669 C674 2.852 . S
Eu669 O685 2.324 . S
Eu669 O689 2.326 . S
Eu669 O691 2.500 . S
Eu669 O692 2.473 . S
C670 O667 1.255 . S
C670 O671 1.247 . S
O671 C670 1.247 . S
C672 O684 1.242 . S
C672 O685 1.258 . S
O673 Eu669 2.292 . S
O673 C675 1.255 . S
C674 Eu669 2.852 . S
C674 C678 1.503 . S
C674 O691 1.273 . S
C674 O692 1.257 . S
C675 O673 1.255 . S
C675 O676 1.247 . S
O676 C675 1.247 . S
C677 O689 1.242 . S
C677 O690 1.258 . S
C678 C674 1.503 . S
C678 C679 1.379 . S
C678 C683 1.392 . S
C679 C678 1.379 . S
C679 C680 1.404 . S
C679 H693 0.929 . S
C680 C679 1.404 . S
C680 C681 1.389 . S
C681 C680 1.389 . S
C681 C682 1.399 . S
C681 H694 0.931 . S
C682 C681 1.399 . S
C682 C683 1.390 . S
C683 C678 1.392 . S
C683 C682 1.390 . S
C683 H695 0.929 . S
O684 Tb668 2.326 . S
O684 C672 1.242 . S
O685 Eu669 2.324 . S
O685 C672 1.258 . S
O686 Tb668 2.500 . S
O686 C688 1.273 . S
O687 Tb668 2.473 . S
O687 C688 1.257 . S
C688 O686 1.273 . S
C688 O687 1.257 . S
O689 Eu669 2.326 . S
O689 C677 1.242 . S
O690 Tb668 2.324 . S
O690 C677 1.258 . S
O691 Eu669 2.500 . S
O691 C674 1.273 . S
O692 Eu669 2.473 . S
O692 C674 1.257 . S
H693 C679 0.929 . S
H694 C681 0.931 . S
H695 C683 0.929 . S
O696 Tb697 2.292 . S
O696 C699 1.255 . S
Tb697 O696 2.292 . S
Tb697 O713 2.326 . S
Tb697 O715 2.500 . S
Tb697 O716 2.473 . S
Tb697 O719 2.324 1_556 S
Eu698 O702 2.292 . S
Eu698 C703 2.852 . S
Eu698 O714 2.324 1_554 S
Eu698 O718 2.326 . S
Eu698 O720 2.500 . S
Eu698 O721 2.473 . S
C699 O696 1.255 . S
C699 O700 1.247 . S
O700 C699 1.247 . S
C701 O713 1.242 . S
C701 O714 1.258 . S
O702 Eu698 2.292 . S
O702 C704 1.255 . S
C703 Eu698 2.852 . S
C703 C707 1.503 . S
C703 O720 1.273 . S
C703 O721 1.257 . S
C704 O702 1.255 . S
C704 O705 1.247 . S
O705 C704 1.247 . S
C706 O718 1.242 . S
C706 O719 1.258 . S
C707 C703 1.503 . S
C707 C708 1.379 . S
C707 C712 1.392 . S
C708 C707 1.379 . S
C708 C709 1.404 . S
C708 H722 0.929 . S
C709 C708 1.404 . S
C709 C710 1.389 1_565 S
C710 C709 1.389 1_545 S
C710 C711 1.399 1_545 S
C710 H723 0.931 . S
C711 C710 1.399 1_565 S
C711 C712 1.390 . S
C712 C707 1.392 . S
C712 C711 1.390 . S
C712 H724 0.929 . S
O713 Tb697 2.326 . S
O713 C701 1.242 . S
O714 Eu698 2.324 1_556 S
O714 C701 1.258 . S
O715 Tb697 2.500 . S
O715 C717 1.273 . S
O716 Tb697 2.473 . S
O716 C717 1.257 . S
C717 O715 1.273 . S
C717 O716 1.257 . S
O718 Eu698 2.326 . S
O718 C706 1.242 . S
O719 Tb697 2.324 1_554 S
O719 C706 1.258 . S
O720 Eu698 2.500 . S
O720 C703 1.273 . S
O721 Eu698 2.473 . S
O721 C703 1.257 . S
H722 C708 0.929 . S
H723 C710 0.931 . S
H724 C712 0.929 . S
O725 Tb726 2.292 . S
O725 C728 1.255 . S
Tb726 O725 2.292 . S
Tb726 O742 2.326 . S
Tb726 O744 2.500 . S
Tb726 O745 2.473 . S
Tb726 O748 2.324 1_556 S
Eu727 O731 2.292 . S
Eu727 C732 2.852 . S
Eu727 O743 2.324 1_554 S
Eu727 O747 2.326 . S
Eu727 O749 2.500 . S
Eu727 O750 2.473 . S
C728 O725 1.255 . S
C728 O729 1.247 . S
O729 C728 1.247 . S
C730 O742 1.242 . S
C730 O743 1.258 . S
O731 Eu727 2.292 . S
O731 C733 1.255 . S
C732 Eu727 2.852 . S
C732 C736 1.503 . S
C732 O749 1.273 . S
C732 O750 1.257 . S
C733 O731 1.255 . S
C733 O734 1.247 . S
O734 C733 1.247 . S
C735 O747 1.242 . S
C735 O748 1.258 . S
C736 C732 1.503 . S
C736 C737 1.379 . S
C736 C741 1.392 . S
C737 C736 1.379 . S
C737 C738 1.404 . S
C737 H751 0.929 . S
C738 C737 1.404 . S
C738 C739 1.389 . S
C739 C738 1.389 . S
C739 C740 1.399 . S
C739 H752 0.931 . S
C740 C739 1.399 . S
C740 C741 1.390 . S
C741 C736 1.392 . S
C741 C740 1.390 . S
C741 H753 0.929 . S
O742 Tb726 2.326 . S
O742 C730 1.242 . S
O743 Eu727 2.324 1_556 S
O743 C730 1.258 . S
O744 Tb726 2.500 . S
O744 C746 1.273 . S
O745 Tb726 2.473 . S
O745 C746 1.257 . S
C746 O744 1.273 . S
C746 O745 1.257 . S
O747 Eu727 2.326 . S
O747 C735 1.242 . S
O748 Tb726 2.324 1_554 S
O748 C735 1.258 . S
O749 Eu727 2.500 . S
O749 C732 1.273 . S
O750 Eu727 2.473 . S
O750 C732 1.257 . S
H751 C737 0.929 . S
H752 C739 0.931 . S
H753 C741 0.929 . S
O754 Tb755 2.292 . S
O754 C757 1.255 . S
Tb755 O754 2.292 . S
Tb755 O771 2.326 . S
Tb755 O773 2.500 . S
Tb755 O774 2.473 . S
Tb755 O777 2.324 . S
Eu756 O760 2.292 . S
Eu756 C761 2.852 . S
Eu756 O772 2.324 . S
Eu756 O776 2.326 . S
Eu756 O778 2.500 . S
Eu756 O779 2.473 . S
C757 O754 1.255 . S
C757 O758 1.247 . S
O758 C757 1.247 . S
C759 O771 1.242 . S
C759 O772 1.258 . S
O760 Eu756 2.292 . S
O760 C762 1.255 . S
C761 Eu756 2.852 . S
C761 C765 1.503 . S
C761 O778 1.273 . S
C761 O779 1.257 . S
C762 O760 1.255 . S
C762 O763 1.247 . S
O763 C762 1.247 . S
C764 O776 1.242 . S
C764 O777 1.258 . S
C765 C761 1.503 . S
C765 C766 1.379 . S
C765 C770 1.392 . S
C766 C765 1.379 . S
C766 C767 1.404 . S
C766 H780 0.929 . S
C767 C766 1.404 . S
C767 C768 1.389 . S
C768 C767 1.389 . S
C768 C769 1.399 . S
C768 H781 0.931 . S
C769 C768 1.399 . S
C769 C770 1.390 . S
C770 C765 1.392 . S
C770 C769 1.390 . S
C770 H782 0.929 . S
O771 Tb755 2.326 . S
O771 C759 1.242 . S
O772 Eu756 2.324 . S
O772 C759 1.258 . S
O773 Tb755 2.500 . S
O773 C775 1.273 . S
O774 Tb755 2.473 . S
O774 C775 1.257 . S
C775 O773 1.273 . S
C775 O774 1.257 . S
O776 Eu756 2.326 . S
O776 C764 1.242 . S
O777 Tb755 2.324 . S
O777 C764 1.258 . S
O778 Eu756 2.500 . S
O778 C761 1.273 . S
O779 Eu756 2.473 . S
O779 C761 1.257 . S
H780 C766 0.929 . S
H781 C768 0.931 . S
H782 C770 0.929 . S
O783 Tb784 2.292 . S
O783 C786 1.255 . S
Tb784 O783 2.292 . S
Tb784 O800 2.326 . S
Tb784 O802 2.500 . S
Tb784 O803 2.473 . S
Tb784 O806 2.324 . S
Eu785 O789 2.292 . S
Eu785 C790 2.852 . S
Eu785 O801 2.324 . S
Eu785 O805 2.326 . S
Eu785 O807 2.500 . S
Eu785 O808 2.473 . S
C786 O783 1.255 . S
C786 O787 1.247 . S
O787 C786 1.247 . S
C788 O800 1.242 . S
C788 O801 1.258 . S
O789 Eu785 2.292 . S
O789 C791 1.255 . S
C790 Eu785 2.852 . S
C790 C794 1.503 . S
C790 O807 1.273 . S
C790 O808 1.257 . S
C791 O789 1.255 . S
C791 O792 1.247 . S
O792 C791 1.247 . S
C793 O805 1.242 . S
C793 O806 1.258 . S
C794 C790 1.503 . S
C794 C795 1.379 . S
C794 C799 1.392 . S
C795 C794 1.379 . S
C795 C796 1.404 . S
C795 H809 0.929 . S
C796 C795 1.404 . S
C796 C797 1.389 1_565 S
C797 C796 1.389 1_545 S
C797 C798 1.399 1_545 S
C797 H810 0.931 . S
C798 C797 1.399 1_565 S
C798 C799 1.390 . S
C799 C794 1.392 . S
C799 C798 1.390 . S
C799 H811 0.929 . S
O800 Tb784 2.326 . S
O800 C788 1.242 . S
O801 Eu785 2.324 . S
O801 C788 1.258 . S
O802 Tb784 2.500 . S
O802 C804 1.273 . S
O803 Tb784 2.473 . S
O803 C804 1.257 . S
C804 O802 1.273 . S
C804 O803 1.257 . S
O805 Eu785 2.326 . S
O805 C793 1.242 . S
O806 Tb784 2.324 . S
O806 C793 1.258 . S
O807 Eu785 2.500 . S
O807 C790 1.273 . S
O808 Eu785 2.473 . S
O808 C790 1.257 . S
H809 C795 0.929 . S
H810 C797 0.931 . S
H811 C799 0.929 . S
O812 Tb813 2.292 . S
O812 C815 1.255 . S
Tb813 O812 2.292 . S
Tb813 O829 2.326 . S
Tb813 O831 2.500 . S
Tb813 O832 2.473 . S
Tb813 O835 2.324 1_554 S
Eu814 O818 2.292 . S
Eu814 C819 2.852 . S
Eu814 O830 2.324 1_556 S
Eu814 O834 2.326 . S
Eu814 O836 2.500 . S
Eu814 O837 2.473 . S
C815 O812 1.255 . S
C815 O816 1.247 . S
O816 C815 1.247 . S
C817 O829 1.242 . S
C817 O830 1.258 . S
O818 Eu814 2.292 . S
O818 C820 1.255 . S
C819 Eu814 2.852 . S
C819 C823 1.503 . S
C819 O836 1.273 . S
C819 O837 1.257 . S
C820 O818 1.255 . S
C820 O821 1.247 . S
O821 C820 1.247 . S
C822 O834 1.242 . S
C822 O835 1.258 . S
C823 C819 1.503 . S
C823 C824 1.379 . S
C823 C828 1.392 . S
C824 C823 1.379 . S
C824 C825 1.404 . S
C824 H838 0.929 . S
C825 C824 1.404 . S
C825 C826 1.389 1_545 S
C826 C825 1.389 1_565 S
C826 C827 1.399 1_565 S
C826 H839 0.931 . S
C827 C826 1.399 1_545 S
C827 C828 1.390 . S
C828 C823 1.392 . S
C828 C827 1.390 . S
C828 H840 0.929 . S
O829 Tb813 2.326 . S
O829 C817 1.242 . S
O830 Eu814 2.324 1_554 S
O830 C817 1.258 . S
O831 Tb813 2.500 . S
O831 C833 1.273 . S
O832 Tb813 2.473 . S
O832 C833 1.257 . S
C833 O831 1.273 . S
C833 O832 1.257 . S
O834 Eu814 2.326 . S
O834 C822 1.242 . S
O835 Tb813 2.324 1_556 S
O835 C822 1.258 . S
O836 Eu814 2.500 . S
O836 C819 1.273 . S
O837 Eu814 2.473 . S
O837 C819 1.257 . S
H838 C824 0.929 . S
H839 C826 0.931 . S
H840 C828 0.929 . S
O841 Tb842 2.292 . S
O841 C844 1.255 . S
Tb842 O841 2.292 . S
Tb842 O858 2.326 . S
Tb842 O860 2.500 . S
Tb842 O861 2.473 . S
Tb842 O864 2.324 1_554 S
Eu843 O847 2.292 . S
Eu843 C848 2.852 . S
Eu843 O859 2.324 1_556 S
Eu843 O863 2.326 . S
Eu843 O865 2.500 . S
Eu843 O866 2.473 . S
C844 O841 1.255 . S
C844 O845 1.247 . S
O845 C844 1.247 . S
C846 O858 1.242 . S
C846 O859 1.258 . S
O847 Eu843 2.292 . S
O847 C849 1.255 . S
C848 Eu843 2.852 . S
C848 C852 1.503 . S
C848 O865 1.273 . S
C848 O866 1.257 . S
C849 O847 1.255 . S
C849 O850 1.247 . S
O850 C849 1.247 . S
C851 O863 1.242 . S
C851 O864 1.258 . S
C852 C848 1.503 . S
C852 C853 1.379 . S
C852 C857 1.392 . S
C853 C852 1.379 . S
C853 C854 1.404 . S
C853 H867 0.929 . S
C854 C853 1.404 . S
C854 C855 1.389 . S
C855 C854 1.389 . S
C855 C856 1.399 . S
C855 H868 0.931 . S
C856 C855 1.399 . S
C856 C857 1.390 . S
C857 C852 1.392 . S
C857 C856 1.390 . S
C857 H869 0.929 . S
O858 Tb842 2.326 . S
O858 C846 1.242 . S
O859 Eu843 2.324 1_554 S
O859 C846 1.258 . S
O860 Tb842 2.500 . S
O860 C862 1.273 . S
O861 Tb842 2.473 . S
O861 C862 1.257 . S
C862 O860 1.273 . S
C862 O861 1.257 . S
O863 Eu843 2.326 . S
O863 C851 1.242 . S
O864 Tb842 2.324 1_556 S
O864 C851 1.258 . S
O865 Eu843 2.500 . S
O865 C848 1.273 . S
O866 Eu843 2.473 . S
O866 C848 1.257 . S
H867 C853 0.929 . S
H868 C855 0.931 . S
H869 C857 0.929 . S
O870 Tb871 2.292 . S
O870 C873 1.255 . S
Tb871 O870 2.292 . S
Tb871 O887 2.326 . S
Tb871 O889 2.500 . S
Tb871 O890 2.473 . S
Tb871 O893 2.324 . S
Eu872 O876 2.292 . S
Eu872 C877 2.852 . S
Eu872 O888 2.324 . S
Eu872 O892 2.326 . S
Eu872 O894 2.500 . S
Eu872 O895 2.473 . S
C873 O870 1.255 . S
C873 O874 1.247 . S
O874 C873 1.247 . S
C875 O887 1.242 . S
C875 O888 1.258 . S
O876 Eu872 2.292 . S
O876 C878 1.255 . S
C877 Eu872 2.852 . S
C877 C881 1.503 . S
C877 O894 1.273 . S
C877 O895 1.257 . S
C878 O876 1.255 . S
C878 O879 1.247 . S
O879 C878 1.247 . S
C880 O892 1.242 . S
C880 O893 1.258 . S
C881 C877 1.503 . S
C881 C882 1.379 . S
C881 C886 1.392 . S
C882 C881 1.379 . S
C882 C883 1.404 . S
C882 H896 0.929 . S
C883 C882 1.404 . S
C883 C884 1.389 . S
C884 C883 1.389 . S
C884 C885 1.399 . S
C884 H897 0.931 . S
C885 C884 1.399 . S
C885 C886 1.390 . S
C886 C881 1.392 . S
C886 C885 1.390 . S
C886 H898 0.929 . S
O887 Tb871 2.326 . S
O887 C875 1.242 . S
O888 Eu872 2.324 . S
O888 C875 1.258 . S
O889 Tb871 2.500 . S
O889 C891 1.273 . S
O890 Tb871 2.473 . S
O890 C891 1.257 . S
C891 O889 1.273 . S
C891 O890 1.257 . S
O892 Eu872 2.326 . S
O892 C880 1.242 . S
O893 Tb871 2.324 . S
O893 C880 1.258 . S
O894 Eu872 2.500 . S
O894 C877 1.273 . S
O895 Eu872 2.473 . S
O895 C877 1.257 . S
H896 C882 0.929 . S
H897 C884 0.931 . S
H898 C886 0.929 . S
O899 Tb900 2.292 . S
O899 C902 1.255 . S
Tb900 O899 2.292 . S
Tb900 O916 2.326 . S
Tb900 O918 2.500 . S
Tb900 O919 2.473 . S
Tb900 O922 2.324 . S
Eu901 O905 2.292 . S
Eu901 C906 2.852 . S
Eu901 O917 2.324 . S
Eu901 O921 2.326 . S
Eu901 O923 2.500 . S
Eu901 O924 2.473 . S
C902 O899 1.255 . S
C902 O903 1.247 . S
O903 C902 1.247 . S
C904 O916 1.242 . S
C904 O917 1.258 . S
O905 Eu901 2.292 . S
O905 C907 1.255 . S
C906 Eu901 2.852 . S
C906 C910 1.503 . S
C906 O923 1.273 . S
C906 O924 1.257 . S
C907 O905 1.255 . S
C907 O908 1.247 . S
O908 C907 1.247 . S
C909 O921 1.242 . S
C909 O922 1.258 . S
C910 C906 1.503 . S
C910 C911 1.379 . S
C910 C915 1.392 . S
C911 C910 1.379 . S
C911 C912 1.404 . S
C911 H925 0.929 . S
C912 C911 1.404 . S
C912 C913 1.389 1_545 S
C913 C912 1.389 1_565 S
C913 C914 1.399 1_565 S
C913 H926 0.931 . S
C914 C913 1.399 1_545 S
C914 C915 1.390 . S
C915 C910 1.392 . S
C915 C914 1.390 . S
C915 H927 0.929 . S
O916 Tb900 2.326 . S
O916 C904 1.242 . S
O917 Eu901 2.324 . S
O917 C904 1.258 . S
O918 Tb900 2.500 . S
O918 C920 1.273 . S
O919 Tb900 2.473 . S
O919 C920 1.257 . S
C920 O918 1.273 . S
C920 O919 1.257 . S
O921 Eu901 2.326 . S
O921 C909 1.242 . S
O922 Tb900 2.324 . S
O922 C909 1.258 . S
O923 Eu901 2.500 . S
O923 C906 1.273 . S
O924 Eu901 2.473 . S
O924 C906 1.257 . S
H925 C911 0.929 . S
H926 C913 0.931 . S
H927 C915 0.929 . S
C129 C13 3.123 1_456 S
C854 C42 3.123 1_556 S
C419 C71 3.123 1_455 S
C100 C680 3.123 . S
C738 C158 3.123 1_554 S
C187 C303 3.123 1_455 S
C216 C564 3.123 . S
C245 C361 3.123 1_665 S
C622 C274 3.123 . S
C912 C332 3.123 1_545 S
C506 C390 3.123 . S
C796 C448 3.123 1_565 S
C593 C477 3.123 . S
C883 C535 3.123 . S
C651 C767 3.123 . S
C709 C825 3.123 1_564 S
C5 C189 2.585 . S
C34 C914 2.585 . S
C363 C63 2.585 . S
C624 C92 2.585 . S
C73 C121 2.585 . S
C150 C798 2.585 . S
C179 C247 2.585 . S
C208 C508 2.585 . S
C237 C421 2.585 . S
C266 C682 2.585 . S
C131 C295 2.585 . S
C324 C856 2.585 . S
C353 C305 2.585 . S
C382 C566 2.585 . S
C411 C15 2.585 . S
C440 C740 2.585 . S
C653 C469 2.585 . S
C498 C450 2.585 . S
C827 C527 2.585 . S
C160 C556 2.585 . S
C585 C537 2.585 . S
C334 C614 2.585 . S
C711 C643 2.585 . S
C44 C672 2.585 . S
C885 C701 2.585 . S
C730 C218 2.585 . S
C595 C759 2.585 . S
C392 C788 2.585 . S
C769 C817 2.585 . S
C102 C846 2.585 . S
C875 C479 2.585 . S
C904 C276 2.585 . S
C293 C3 1.469 . S
C322 C32 1.469 . S
C235 C61 1.469 . S
C264 C90 1.469 . S
C409 C119 1.469 . S
C148 C438 1.469 . S
C351 C177 1.469 . S
C206 C380 1.469 . S
C467 C757 1.469 . S
C496 C786 1.469 . S
C699 C525 1.469 . S
C728 C554 1.469 . S
C873 C583 1.469 . S
C902 C612 1.469 . S
C815 C641 1.469 . S
C670 C844 1.469 . S
C21 C50 2.661 . S
C79 C108 2.661 . S
C137 C166 2.661 . S
C195 C224 2.661 . S
C253 C282 2.661 . S
C340 C311 2.661 . S
C398 C369 2.661 . S
C456 C427 2.661 . S
C514 C485 2.661 . S
C572 C543 2.661 . S
C601 C630 2.661 . S
C659 C688 2.661 . S
C717 C746 2.661 . S
C804 C775 2.661 . S
C862 C833 2.661 . S
C920 C891 2.661 . S
C66 C8 2.268 . S
C37 C95 2.268 . S
C124 C182 2.268 . S
C211 C153 2.268 . S
C240 C298 2.268 . S
C327 C269 2.268 . S
C356 C414 2.268 . S
C385 C443 2.268 . S
C472 C530 2.268 . S
C501 C559 2.268 . S
C646 C588 2.268 . S
C675 C617 2.268 . S
C704 C762 2.268 . S
C733 C791 2.268 . S
C878 C820 2.268 . S
C907 C849 2.268 . S
C10 C97 3.750 . S
C39 C68 3.750 . S
C213 C126 3.750 . S
C155 C184 3.750 . S
C242 C329 3.750 . S
C300 C271 3.750 . S
C445 C358 3.750 . S
C387 C416 3.750 . S
C561 C474 3.750 . S
C503 C532 3.750 . S
C590 C677 3.750 . S
C619 C648 3.750 . S
C706 C793 3.750 . S
C735 C764 3.750 . S
C822 C909 3.750 . S
C851 C880 3.750 . S
