# Generated by pormake.
# Topology noy, (5)-cn, num edge types: 1
# Building blocks:
#     Node 0, Type 0, BuildingBlock: BEQFEK_clean_sbu_0, # of connection points: 5
#     Node 1, Type 0, BuildingBlock: BEQFEK_clean_sbu_0, # of connection points: 5
#     Node 2, Type 0, BuildingBlock: BEQFEK_clean_sbu_0, # of connection points: 5
#     Node 3, Type 0, BuildingBlock: BEQFEK_clean_sbu_0, # of connection points: 5
#     Node 4, Type 0, BuildingBlock: BEQFEK_clean_sbu_0, # of connection points: 5
#     Node 5, Type 0, BuildingBlock: BEQFEK_clean_sbu_0, # of connection points: 5
#     Node 6, Type 0, BuildingBlock: BEQFEK_clean_sbu_0, # of connection points: 5
#     Node 7, Type 0, BuildingBlock: BEQFEK_clean_sbu_0, # of connection points: 5
#     Edge 8, Type (0, 0), BuildingBlock: ZUJKAS_clean_linker_0, # of connection points: 2
#     Edge 9, Type (0, 0), BuildingBlock: ZUJKAS_clean_linker_0, # of connection points: 2
#     Edge 10, Type (0, 0), BuildingBlock: ZUJKAS_clean_linker_0, # of connection points: 2
#     Edge 11, Type (0, 0), BuildingBlock: ZUJKAS_clean_linker_0, # of connection points: 2
#     Edge 12, Type (0, 0), BuildingBlock: ZUJKAS_clean_linker_0, # of connection points: 2
#     Edge 13, Type (0, 0), BuildingBlock: ZUJKAS_clean_linker_0, # of connection points: 2
#     Edge 14, Type (0, 0), BuildingBlock: ZUJKAS_clean_linker_0, # of connection points: 2
#     Edge 15, Type (0, 0), BuildingBlock: ZUJKAS_clean_linker_0, # of connection points: 2
#     Edge 16, Type (0, 0), BuildingBlock: ZUJKAS_clean_linker_0, # of connection points: 2
#     Edge 17, Type (0, 0), BuildingBlock: ZUJKAS_clean_linker_0, # of connection points: 2
#     Edge 18, Type (0, 0), BuildingBlock: ZUJKAS_clean_linker_0, # of connection points: 2
#     Edge 19, Type (0, 0), BuildingBlock: ZUJKAS_clean_linker_0, # of connection points: 2
#     Edge 20, Type (0, 0), BuildingBlock: ZUJKAS_clean_linker_0, # of connection points: 2
#     Edge 21, Type (0, 0), BuildingBlock: ZUJKAS_clean_linker_0, # of connection points: 2
#     Edge 22, Type (0, 0), BuildingBlock: ZUJKAS_clean_linker_0, # of connection points: 2
#     Edge 23, Type (0, 0), BuildingBlock: ZUJKAS_clean_linker_0, # of connection points: 2
#     Edge 24, Type (0, 0), BuildingBlock: ZUJKAS_clean_linker_0, # of connection points: 2
#     Edge 25, Type (0, 0), BuildingBlock: ZUJKAS_clean_linker_0, # of connection points: 2
#     Edge 26, Type (0, 0), BuildingBlock: ZUJKAS_clean_linker_0, # of connection points: 2
#     Edge 27, Type (0, 0), BuildingBlock: ZUJKAS_clean_linker_0, # of connection points: 2
# Relax obj value: 0.042
# Max RMSD: 0.089
# Mean RMSD: 0.089
data_MOF--net-noy--node1-BEQFEK_clean_sbu_0--edge1-ZUJKAS_clean_linker_0
_symmetry_space_group_name_H-M    P1
_symmetry_Int_Tables_number       1
_symmetry_cell_setting            triclinic
loop_
_symmetry_equiv_pos_as_xyz
'x, y, z'
_cell_length_a     57.596007
_cell_length_b     59.157897
_cell_length_c     30.299148
_cell_angle_alpha  89.949559
_cell_angle_beta   89.980899
_cell_angle_gamma 89.998573
loop_
_atom_site_label
_atom_site_type_symbol
_atom_site_fract_x
_atom_site_fract_y
_atom_site_fract_z
_atom_type_partial_charge
Co0 Co 0.32991 0.39952 0.25183 0.0
Co1 Co 0.3339 0.36464 0.17415 0.0
C2 C 0.32053 0.41336 0.15867 0.0
O3 O 0.32156 0.41781 0.1997 0.0
O4 O 0.32481 0.39354 0.14429 0.0
C5 C 0.33169 0.4384 0.30631 0.0
O6 O 0.34251 0.4467 0.27172 0.0
C7 C 0.31645 0.33489 0.10316 0.0
C8 C 0.34605 0.31155 0.09451 0.0
C9 C 0.32388 0.31619 0.07927 0.0
N10 N 0.33336 0.34078 0.13157 0.0
N11 N 0.35102 0.3268 0.12603 0.0
C12 C 0.29419 0.34766 0.0977 0.0
H13 H 0.29586 0.36506 0.11083 0.0
H14 H 0.28017 0.33903 0.11627 0.0
H15 H 0.2891 0.34822 0.06238 0.0
C16 C 0.29966 0.36374 0.28795 0.0
N17 N 0.31232 0.37255 0.25476 0.0
N18 N 0.31439 0.35747 0.22308 0.0
C19 C 0.30354 0.3383 0.23573 0.0
C20 C 0.29367 0.34173 0.27706 0.0
C21 C 0.29597 0.37532 0.33129 0.0
H22 H 0.31307 0.37899 0.34653 0.0
H23 H 0.28707 0.3917 0.32562 0.0
H24 H 0.28555 0.36489 0.3544 0.0
O25 O 0.36354 0.3923 0.25002 0.0
O26 O 0.36635 0.36734 0.19552 0.0
H27 H 0.32207 0.31253 0.20075 0.0
H28 H 0.29637 0.30242 0.22904 0.0
C29 C 0.30395 0.31667 0.21013 0.0
H30 H 0.29372 0.31882 0.17952 0.0
H31 H 0.36647 0.3276 0.14396 0.0
O32 O 0.32442 0.41813 0.30511 0.0
C33 C 0.37562 0.37909 0.22602 0.0
Co34 Co 0.67042 0.60935 0.75153 0.0
Co35 Co 0.66836 0.64574 0.67599 0.0
C36 C 0.68154 0.59741 0.65763 0.0
O37 O 0.67939 0.59211 0.69818 0.0
O38 O 0.678 0.6176 0.64442 0.0
C39 C 0.68919 0.57387 0.80641 0.0
O40 O 0.70304 0.57022 0.7727 0.0
C41 C 0.68621 0.67585 0.60626 0.0
C42 C 0.6593 0.70245 0.60481 0.0
C43 C 0.68025 0.69614 0.58596 0.0
N44 N 0.66957 0.67057 0.63569 0.0
N45 N 0.65344 0.68643 0.63433 0.0
C46 C 0.70812 0.66256 0.60087 0.0
H47 H 0.71149 0.65222 0.6308 0.0
H48 H 0.72305 0.67398 0.59452 0.0
H49 H 0.70621 0.65096 0.57233 0.0
C50 C 0.70033 0.64433 0.79204 0.0
N51 N 0.68812 0.63619 0.75765 0.0
N52 N 0.68735 0.65158 0.72627 0.0
C53 C 0.69905 0.67008 0.73988 0.0
C54 C 0.70766 0.66609 0.78201 0.0
C55 C 0.70429 0.63163 0.83411 0.0
H56 H 0.68734 0.62829 0.85029 0.0
H57 H 0.71243 0.61511 0.82647 0.0
H58 H 0.71575 0.64102 0.85709 0.0
O59 O 0.637 0.61689 0.748 0.0
O60 O 0.63544 0.64282 0.69505 0.0
H61 H 0.6817 0.69678 0.70542 0.0
H62 H 0.70703 0.70589 0.73548 0.0
C63 C 0.69957 0.69204 0.71531 0.0
H64 H 0.71015 0.69002 0.685 0.0
H65 H 0.63866 0.68657 0.65425 0.0
O66 O 0.67434 0.58973 0.8042 0.0
C67 C 0.62548 0.6306 0.72408 0.0
Co68 Co 0.33257 0.60963 0.75637 0.0
Co69 Co 0.33496 0.6456 0.83259 0.0
C70 C 0.3221 0.59679 0.84958 0.0
O71 O 0.32381 0.59174 0.80889 0.0
O72 O 0.32588 0.61687 0.86304 0.0
C73 C 0.31951 0.57139 0.70221 0.0
O74 O 0.31081 0.56323 0.73899 0.0
C75 C 0.31519 0.67569 0.90054 0.0
C76 C 0.34455 0.69883 0.91318 0.0
C77 C 0.32183 0.69433 0.9255 0.0
N78 N 0.33308 0.66971 0.87447 0.0
N79 N 0.35057 0.68359 0.88228 0.0
C80 C 0.29278 0.66292 0.90295 0.0
H81 H 0.29493 0.64558 0.88979 0.0
H82 H 0.27951 0.67164 0.88265 0.0
H83 H 0.28643 0.6622 0.93752 0.0
C84 C 0.30165 0.64429 0.71781 0.0
N85 N 0.31449 0.63628 0.7515 0.0
N86 N 0.31597 0.65182 0.78244 0.0
C87 C 0.30452 0.67048 0.76882 0.0
C88 C 0.29494 0.66628 0.72749 0.0
C89 C 0.29629 0.63109 0.67695 0.0
H90 H 0.291 0.61368 0.6861 0.0
H91 H 0.28216 0.63906 0.65751 0.0
H92 H 0.31216 0.62993 0.6563 0.0
O93 O 0.36597 0.61753 0.76028 0.0
O94 O 0.36783 0.64332 0.81339 0.0
H95 H 0.32288 0.69545 0.80653 0.0
H96 H 0.30171 0.707 0.76896 0.0
C97 C 0.30546 0.69284 0.79191 0.0
H98 H 0.29238 0.69308 0.81873 0.0
H99 H 0.36665 0.68267 0.8665 0.0
O100 O 0.3291 0.59075 0.7025 0.0
C101 C 0.37762 0.63119 0.78406 0.0
Co102 Co 0.66752 0.40246 0.25448 0.0
Co103 Co 0.66694 0.36665 0.3311 0.0
C104 C 0.68041 0.41484 0.34774 0.0
O105 O 0.67757 0.41972 0.30713 0.0
O106 O 0.67703 0.39481 0.36198 0.0
C107 C 0.68883 0.4344 0.19523 0.0
O108 O 0.70604 0.43379 0.22365 0.0
C109 C 0.68392 0.33686 0.40264 0.0
C110 C 0.65903 0.30854 0.39807 0.0
C111 C 0.6786 0.31581 0.42057 0.0
N112 N 0.66828 0.3416 0.37095 0.0
N113 N 0.65331 0.32472 0.36882 0.0
C114 C 0.7047 0.35126 0.41202 0.0
H115 H 0.70864 0.36227 0.38331 0.0
H116 H 0.72002 0.3406 0.41982 0.0
H117 H 0.70095 0.36219 0.44088 0.0
C118 C 0.69622 0.36687 0.21229 0.0
N119 N 0.68486 0.37545 0.24738 0.0
N120 N 0.68526 0.36063 0.27983 0.0
C121 C 0.69726 0.34225 0.26652 0.0
C122 C 0.70455 0.34555 0.22323 0.0
C123 C 0.69668 0.37779 0.16769 0.0
H124 H 0.67963 0.38568 0.16061 0.0
H125 H 0.71013 0.39121 0.16743 0.0
H126 H 0.70068 0.36542 0.14128 0.0
O127 O 0.63422 0.39519 0.25989 0.0
O128 O 0.6337 0.36964 0.31358 0.0
H129 H 0.68499 0.3129 0.30051 0.0
H130 H 0.71423 0.31016 0.27932 0.0
C131 C 0.7016 0.32191 0.29472 0.0
H132 H 0.70863 0.32733 0.327 0.0
H133 H 0.63952 0.32397 0.34652 0.0
O134 O 0.67095 0.42231 0.20212 0.0
C135 C 0.62319 0.38163 0.2849 0.0
Co136 Co 0.83201 0.90161 0.25162 0.0
Co137 Co 0.83507 0.86599 0.17496 0.0
C138 C 0.82179 0.9148 0.15863 0.0
O139 O 0.82338 0.91977 0.19937 0.0
O140 O 0.82571 0.89477 0.14504 0.0
C141 C 0.81324 0.93626 0.30852 0.0
O142 O 0.79873 0.93981 0.27579 0.0
C143 C 0.81545 0.83571 0.10725 0.0
C144 C 0.84564 0.81416 0.09134 0.0
C145 C 0.82251 0.81774 0.08089 0.0
N146 N 0.83354 0.84222 0.1323 0.0
N147 N 0.85153 0.82928 0.12254 0.0
C148 C 0.79245 0.84748 0.10693 0.0
H149 H 0.79404 0.86472 0.12096 0.0
H150 H 0.77993 0.83788 0.12747 0.0
H151 H 0.78549 0.84839 0.07281 0.0
C152 C 0.8015 0.86621 0.28954 0.0
N153 N 0.81412 0.8747 0.25595 0.0
N154 N 0.81615 0.85924 0.22494 0.0
C155 C 0.80546 0.84015 0.23854 0.0
C156 C 0.79567 0.84396 0.27983 0.0
C157 C 0.79549 0.87924 0.33029 0.0
H158 H 0.78875 0.89609 0.32082 0.0
H159 H 0.78212 0.87048 0.35036 0.0
H160 H 0.81139 0.88174 0.35038 0.0
O161 O 0.86554 0.89384 0.24829 0.0
O162 O 0.86779 0.86842 0.19457 0.0
H163 H 0.80532 0.80355 0.23923 0.0
H164 H 0.79412 0.81645 0.18989 0.0
C165 C 0.80763 0.81778 0.21577 0.0
H166 H 0.82493 0.81624 0.20007 0.0
H167 H 0.86786 0.8308 0.13716 0.0
O168 O 0.82828 0.92063 0.30518 0.0
C169 C 0.87737 0.88036 0.22441 0.0
Co170 Co 0.16898 0.1089 0.75222 0.0
Co171 Co 0.16734 0.14534 0.67678 0.0
C172 C 0.18015 0.09696 0.65839 0.0
O173 O 0.17786 0.09162 0.69888 0.0
O174 O 0.17676 0.11718 0.64523 0.0
C175 C 0.18764 0.07341 0.80717 0.0
O176 O 0.20181 0.07004 0.77383 0.0
C177 C 0.18578 0.17508 0.60723 0.0
C178 C 0.15956 0.20234 0.6059 0.0
C179 C 0.18037 0.19556 0.58712 0.0
N180 N 0.16897 0.17014 0.63651 0.0
N181 N 0.15324 0.18638 0.63519 0.0
C182 C 0.2074 0.16134 0.60192 0.0
H183 H 0.21049 0.1509 0.6318 0.0
H184 H 0.22259 0.17245 0.59575 0.0
H185 H 0.2053 0.14984 0.57328 0.0
C186 C 0.19955 0.14342 0.79257 0.0
N187 N 0.187 0.13552 0.75841 0.0
N188 N 0.18643 0.15091 0.727 0.0
C189 C 0.19865 0.16914 0.74033 0.0
C190 C 0.20738 0.16497 0.78228 0.0
C191 C 0.20349 0.13064 0.83455 0.0
H192 H 0.18655 0.1272 0.85063 0.0
H193 H 0.2117 0.11416 0.82678 0.0
H194 H 0.2149 0.14 0.85766 0.0
O195 O 0.13564 0.1168 0.74866 0.0
O196 O 0.13438 0.14278 0.69577 0.0
H197 H 0.182 0.19617 0.70558 0.0
H198 H 0.2075 0.20473 0.73571 0.0
C199 C 0.19974 0.19103 0.71559 0.0
H200 H 0.21033 0.18872 0.68538 0.0
H201 H 0.13845 0.18683 0.65509 0.0
O202 O 0.17266 0.08915 0.80476 0.0
C203 C 0.12428 0.13064 0.72476 0.0
Co204 Co 0.83139 0.11041 0.75469 0.0
Co205 Co 0.83393 0.14608 0.83127 0.0
C206 C 0.8203 0.09754 0.84783 0.0
O207 O 0.82234 0.09261 0.80712 0.0
O208 O 0.82405 0.11757 0.86164 0.0
C209 C 0.81283 0.07549 0.69813 0.0
O210 O 0.79828 0.07198 0.73083 0.0
C211 C 0.81474 0.17646 0.89897 0.0
C212 C 0.84392 0.20008 0.90947 0.0
C213 C 0.82131 0.19562 0.92264 0.0
N214 N 0.83262 0.17015 0.87319 0.0
N215 N 0.85006 0.18422 0.87992 0.0
C216 C 0.79151 0.16518 0.89783 0.0
H217 H 0.7896 0.15505 0.86721 0.0
H218 H 0.77739 0.17791 0.89982 0.0
H219 H 0.79 0.15356 0.92645 0.0
C220 C 0.80106 0.14567 0.71593 0.0
N221 N 0.81367 0.13735 0.74967 0.0
N222 N 0.81523 0.15275 0.78087 0.0
C223 C 0.80408 0.17162 0.76738 0.0
C224 C 0.79463 0.16773 0.72584 0.0
C225 C 0.79547 0.13261 0.67501 0.0
H226 H 0.78854 0.1158 0.68433 0.0
H227 H 0.78239 0.14137 0.6543 0.0
H228 H 0.81159 0.12997 0.65563 0.0
O229 O 0.86491 0.11794 0.75854 0.0
O230 O 0.86678 0.1433 0.81238 0.0
H231 H 0.80132 0.20814 0.76854 0.0
H232 H 0.79199 0.19384 0.81794 0.0
C233 C 0.80505 0.19381 0.79106 0.0
H234 H 0.82248 0.19629 0.80571 0.0
H235 H 0.86601 0.18325 0.8637 0.0
O236 O 0.82781 0.09118 0.70139 0.0
C237 C 0.87658 0.13134 0.78282 0.0
Co238 Co 0.1694 0.90134 0.25585 0.0
Co239 Co 0.16817 0.86598 0.33349 0.0
C240 C 0.18143 0.91467 0.34837 0.0
O241 O 0.17922 0.91931 0.30755 0.0
O242 O 0.17766 0.89477 0.36288 0.0
C243 C 0.19002 0.93339 0.19575 0.0
O244 O 0.20711 0.93366 0.22447 0.0
C245 C 0.18636 0.83649 0.40511 0.0
C246 C 0.15828 0.81117 0.40996 0.0
C247 C 0.17964 0.81702 0.42751 0.0
N248 N 0.16982 0.84165 0.3753 0.0
N249 N 0.15307 0.82647 0.3786 0.0
C250 C 0.20764 0.85044 0.41306 0.0
H251 H 0.20515 0.86795 0.40107 0.0
H252 H 0.22251 0.84301 0.3949 0.0
H253 H 0.21202 0.85061 0.44874 0.0
C254 C 0.19848 0.86555 0.21555 0.0
N255 N 0.18688 0.87432 0.25015 0.0
N256 N 0.18658 0.85948 0.28256 0.0
C257 C 0.19804 0.84074 0.26949 0.0
C258 C 0.20602 0.84398 0.22663 0.0
C259 C 0.19982 0.87655 0.17109 0.0
H260 H 0.18269 0.8838 0.1623 0.0
H261 H 0.21265 0.89052 0.17234 0.0
H262 H 0.20509 0.86443 0.14504 0.0
O263 O 0.13607 0.89395 0.26141 0.0
O264 O 0.13501 0.86851 0.31531 0.0
H265 H 0.18335 0.81293 0.30502 0.0
H266 H 0.21137 0.80684 0.28053 0.0
C267 C 0.20074 0.81993 0.29714 0.0
H268 H 0.20937 0.82444 0.32849 0.0
H269 H 0.13808 0.8265 0.35928 0.0
O270 O 0.17261 0.92067 0.2027 0.0
C271 C 0.12478 0.88048 0.28622 0.0
H272 H 0.40569 0.34731 0.19369 0.0
H273 H 0.44751 0.34463 0.20646 0.0
H274 H 0.44485 0.40471 0.28688 0.0
H275 H 0.40297 0.40711 0.27547 0.0
H276 H 0.48117 0.37287 0.18448 0.0
H277 H 0.481 0.36332 0.36605 0.0
H278 H 0.45492 0.36078 0.33344 0.0
H279 H 0.46571 0.38823 0.34895 0.0
C280 C 0.41397 0.35987 0.21436 0.0
C281 C 0.40096 0.37737 0.23375 0.0
C282 C 0.43789 0.3583 0.22165 0.0
C283 C 0.44928 0.37421 0.24833 0.0
C284 C 0.43637 0.39184 0.26727 0.0
H285 H 0.59417 0.40971 0.23927 0.0
H286 H 0.55221 0.4065 0.23067 0.0
C287 C 0.41242 0.39329 0.26041 0.0
C288 C 0.47482 0.37303 0.25456 0.0
H289 H 0.51738 0.37348 0.33298 0.0
C290 C 0.48907 0.37278 0.21697 0.0
C291 C 0.48516 0.37247 0.29693 0.0
C292 C 0.47089 0.37096 0.3386 0.0
C293 C 0.51336 0.37275 0.22056 0.0
C294 C 0.52369 0.37368 0.2629 0.0
C295 C 0.50946 0.37313 0.30052 0.0
C296 C 0.54918 0.37569 0.26884 0.0
C297 C 0.52766 0.37151 0.17887 0.0
C298 C 0.56136 0.35993 0.29464 0.0
C299 C 0.58539 0.36192 0.30027 0.0
C300 C 0.59766 0.37971 0.2801 0.0
C301 C 0.58533 0.39564 0.25483 0.0
C302 C 0.56132 0.39376 0.2496 0.0
H303 H 0.51774 0.36358 0.1515 0.0
H304 H 0.5324 0.38887 0.16834 0.0
H305 H 0.54387 0.36172 0.18412 0.0
H306 H 0.55231 0.34595 0.31008 0.0
H307 H 0.59436 0.34938 0.31998 0.0
H308 H 0.59733 0.60195 0.77037 0.0
H309 H 0.55528 0.60414 0.77935 0.0
H310 H 0.5539 0.66539 0.70202 0.0
H311 H 0.59596 0.66295 0.69169 0.0
H312 H 0.52855 0.6356 0.81735 0.0
H313 H 0.50522 0.62818 0.6403 0.0
H314 H 0.5342 0.6229 0.66034 0.0
H315 H 0.52426 0.65142 0.65198 0.0
C316 C 0.58811 0.61586 0.75511 0.0
C317 C 0.6 0.63219 0.73003 0.0
C318 C 0.56405 0.6171 0.76033 0.0
C319 C 0.55137 0.63472 0.74078 0.0
C320 C 0.56323 0.65132 0.71646 0.0
H321 H 0.40738 0.66332 0.8164 0.0
H322 H 0.44943 0.66558 0.80572 0.0
C323 C 0.5873 0.64996 0.7108 0.0
C324 C 0.52579 0.63571 0.74648 0.0
H325 H 0.47452 0.63612 0.68996 0.0
C326 C 0.51672 0.63572 0.7895 0.0
C327 C 0.51038 0.6356 0.7101 0.0
C328 C 0.51896 0.6343 0.66309 0.0
C329 C 0.49269 0.63548 0.79721 0.0
C330 C 0.47728 0.63588 0.76083 0.0
C331 C 0.48635 0.63601 0.7178 0.0
C332 C 0.45169 0.63507 0.76654 0.0
C333 C 0.4841 0.63402 0.8442 0.0
C334 C 0.43887 0.61762 0.74683 0.0
C335 C 0.41482 0.61649 0.75225 0.0
C336 C 0.40308 0.63275 0.77769 0.0
C337 C 0.41592 0.65038 0.79701 0.0
C338 C 0.43998 0.65163 0.79115 0.0
H339 H 0.49779 0.62769 0.86689 0.0
H340 H 0.47894 0.65113 0.85556 0.0
H341 H 0.46877 0.62272 0.84679 0.0
H342 H 0.44752 0.60469 0.72758 0.0
H343 H 0.40549 0.60268 0.7369 0.0
H344 H 0.09553 0.84822 0.32 0.0
H345 H 0.05352 0.8451 0.30906 0.0
H346 H 0.05434 0.90602 0.23075 0.0
H347 H 0.09626 0.9089 0.24034 0.0
H348 H 0.01875 0.87265 0.33183 0.0
H349 H 0.0198 0.86401 0.15013 0.0
H350 H 0.04578 0.86177 0.18307 0.0
H351 H 0.03456 0.8891 0.16777 0.0
C352 C 0.08677 0.8609 0.3003 0.0
C353 C 0.09929 0.8787 0.28072 0.0
C354 C 0.06276 0.85909 0.29406 0.0
C355 C 0.05085 0.87505 0.26826 0.0
C356 C 0.06324 0.89311 0.24962 0.0
H357 H 0.90508 0.90803 0.27391 0.0
H358 H 0.94692 0.90516 0.28529 0.0
C359 C 0.08722 0.89481 0.25543 0.0
C360 C 0.02536 0.87329 0.26186 0.0
H361 H 0.98316 0.87351 0.18277 0.0
C362 C 0.01097 0.87261 0.29923 0.0
C363 C 0.0152 0.87278 0.21933 0.0
C364 C 0.02966 0.8717 0.17782 0.0
C365 C 0.98668 0.87225 0.29525 0.0
C366 C 0.97652 0.87323 0.25275 0.0
C367 C 0.99093 0.87309 0.21537 0.0
C368 C 0.95102 0.87479 0.24622 0.0
C369 C 0.97221 0.87059 0.33666 0.0
C370 C 0.93948 0.85913 0.21921 0.0
C371 C 0.91558 0.86096 0.21197 0.0
C372 C 0.90273 0.87848 0.23172 0.0
C373 C 0.91438 0.8942 0.25857 0.0
C374 C 0.93831 0.89248 0.26541 0.0
H375 H 0.98212 0.86266 0.36407 0.0
H376 H 0.96716 0.88783 0.34737 0.0
H377 H 0.95617 0.8606 0.33097 0.0
H378 H 0.94896 0.84543 0.20381 0.0
H379 H 0.90716 0.84856 0.19113 0.0
H380 H 0.09507 0.16297 0.69128 0.0
H381 H 0.0531 0.16616 0.70227 0.0
H382 H 0.05389 0.10555 0.7815 0.0
H383 H 0.09582 0.10259 0.77182 0.0
H384 H 0.01871 0.13834 0.67923 0.0
H385 H 0.01859 0.14771 0.86081 0.0
H386 H 0.04477 0.14994 0.82837 0.0
H387 H 0.03356 0.12262 0.84378 0.0
C388 C 0.08633 0.15039 0.71126 0.0
C389 C 0.09884 0.13261 0.73093 0.0
C390 C 0.06234 0.15224 0.71751 0.0
C391 C 0.0504 0.13635 0.74345 0.0
C392 C 0.0628 0.11839 0.76245 0.0
H393 H 0.90465 0.10332 0.73481 0.0
H394 H 0.9466 0.10602 0.72471 0.0
C395 C 0.08678 0.11664 0.7566 0.0
C396 C 0.02488 0.13802 0.74935 0.0
H397 H 0.98217 0.13812 0.8275 0.0
C398 C 0.01072 0.13851 0.71165 0.0
C399 C 0.01445 0.1387 0.79164 0.0
C400 C 0.02865 0.13997 0.83342 0.0
C401 C 0.98641 0.13888 0.71508 0.0
C402 C 0.97598 0.13808 0.75737 0.0
C403 C 0.99015 0.13839 0.79507 0.0
C404 C 0.95044 0.13657 0.76332 0.0
C405 C 0.97222 0.14035 0.67332 0.0
C406 C 0.93871 0.15239 0.78968 0.0
C407 C 0.91473 0.15067 0.79619 0.0
C408 C 0.90202 0.1331 0.77635 0.0
C409 C 0.91386 0.1172 0.75019 0.0
C410 C 0.93785 0.11881 0.74409 0.0
H411 H 0.9823 0.14814 0.646 0.0
H412 H 0.96723 0.12306 0.6628 0.0
H413 H 0.95614 0.15037 0.67847 0.0
H414 H 0.94809 0.16615 0.8051 0.0
H415 H 0.90616 0.1632 0.81652 0.0
H416 H 0.31615 0.55167 0.83324 0.0
H417 H 0.31144 0.52125 0.88678 0.0
H418 H 0.31192 0.5698 0.99284 0.0
H419 H 0.31704 0.60047 0.93943 0.0
H420 H 0.34218 0.53488 0.00651 0.0
H421 H 0.25617 0.5007 0.95919 0.0
H422 H 0.276 0.50255 0.91366 0.0
H423 H 0.26639 0.52796 0.94067 0.0
C424 C 0.31493 0.556 0.86788 0.0
C425 C 0.31701 0.57858 0.88196 0.0
C426 C 0.31207 0.53853 0.89848 0.0
C427 C 0.31098 0.54324 0.9438 0.0
C428 C 0.31258 0.56579 0.95798 0.0
H429 H 0.31167 0.45772 0.17779 0.0
H430 H 0.30781 0.48918 0.12617 0.0
C431 C 0.31549 0.58331 0.92738 0.0
C432 C 0.31005 0.52451 0.97642 0.0
H433 H 0.27933 0.47751 0.00661 0.0
C434 C 0.3283 0.52249 0.00685 0.0
C435 C 0.292 0.50825 0.97663 0.0
C436 C 0.27141 0.51005 0.94606 0.0
C437 C 0.32931 0.50439 0.03676 0.0
C438 C 0.3114 0.48802 0.03667 0.0
C439 C 0.29305 0.49007 0.0065 0.0
C440 C 0.31164 0.46861 0.06767 0.0
C441 C 0.34989 0.50258 0.06741 0.0
C442 C 0.31419 0.44646 0.0518 0.0
C443 C 0.31634 0.42833 0.08126 0.0
C444 C 0.31587 0.43205 0.12713 0.0
C445 C 0.31229 0.4542 0.14274 0.0
C446 C 0.31017 0.47226 0.11329 0.0
H447 H 0.36456 0.51342 0.0565 0.0
H448 H 0.34464 0.50809 0.10096 0.0
H449 H 0.35606 0.48483 0.06967 0.0
H450 H 0.31523 0.4433 0.01664 0.0
H451 H 0.31896 0.41151 0.06807 0.0
H452 H 0.68831 0.45942 0.32892 0.0
H453 H 0.69347 0.4905 0.38088 0.0
H454 H 0.68989 0.44363 0.48971 0.0
H455 H 0.68489 0.41226 0.43792 0.0
H456 H 0.66083 0.50217 0.44514 0.0
H457 H 0.7463 0.4831 0.52122 0.0
H458 H 0.73695 0.47054 0.46989 0.0
H459 H 0.72606 0.45999 0.52152 0.0
C460 C 0.68895 0.45559 0.36386 0.0
C461 C 0.68608 0.43328 0.37919 0.0
C462 C 0.6919 0.47342 0.39352 0.0
C463 C 0.69225 0.46938 0.43913 0.0
C464 C 0.69008 0.4471 0.45461 0.0
H465 H 0.68674 0.55211 0.67322 0.0
H466 H 0.6908 0.52189 0.61899 0.0
C467 C 0.68711 0.42919 0.42493 0.0
C468 C 0.69292 0.4887 0.47035 0.0
H469 H 0.72381 0.51202 0.55508 0.0
C470 C 0.67471 0.50445 0.46894 0.0
C471 C 0.71095 0.49153 0.50151 0.0
C472 C 0.73131 0.47552 0.50355 0.0
C473 C 0.67373 0.52268 0.49849 0.0
C474 C 0.69177 0.52556 0.52971 0.0
C475 C 0.71007 0.50986 0.53099 0.0
C476 C 0.69135 0.54422 0.56245 0.0
C477 C 0.65297 0.53824 0.49696 0.0
C478 C 0.69102 0.56692 0.5488 0.0
C479 C 0.68856 0.58432 0.57975 0.0
C480 C 0.68659 0.57933 0.62502 0.0
C481 C 0.68807 0.55661 0.63866 0.0
C482 C 0.69043 0.53927 0.60769 0.0
H483 H 0.63816 0.53052 0.47896 0.0
H484 H 0.64712 0.54274 0.53075 0.0
H485 H 0.65782 0.55406 0.47955 0.0
H486 H 0.69223 0.57116 0.5141 0.0
H487 H 0.68771 0.60161 0.56808 0.0
H488 H 0.6627 0.57664 0.88112 0.0
H489 H 0.66502 0.55298 0.94707 0.0
H490 H 0.72184 0.51579 0.88949 0.0
H491 H 0.7194 0.53914 0.82293 0.0
H492 H 0.68866 0.48808 0.92563 0.0
H493 H 0.71348 0.55491 0.04468 0.0
H494 H 0.68764 0.56154 0.0142 0.0
H495 H 0.71491 0.55899 0.98569 0.0
C496 C 0.67578 0.5635 0.8825 0.0
C497 C 0.69091 0.55981 0.84676 0.0
C498 C 0.67718 0.55009 0.92039 0.0
C499 C 0.69386 0.53288 0.9235 0.0
C500 C 0.70893 0.52908 0.88786 0.0
H501 H 0.72548 0.46024 0.16729 0.0
H502 H 0.72781 0.48341 0.10043 0.0
C503 C 0.70752 0.54246 0.84987 0.0
C504 C 0.69499 0.51831 0.9633 0.0
H505 H 0.70116 0.51971 0.07535 0.0
C506 C 0.69156 0.49496 0.95834 0.0
C507 C 0.6991 0.52728 0.00587 0.0
C508 C 0.70423 0.55202 0.013 0.0
C509 C 0.69149 0.4804 0.99495 0.0
C510 C 0.6945 0.48952 0.03773 0.0
C511 C 0.6986 0.51278 0.04257 0.0
C512 C 0.69316 0.47527 0.07794 0.0
C513 C 0.68838 0.45537 0.98739 0.0
C514 C 0.67279 0.46325 0.08775 0.0
C515 C 0.67143 0.44995 0.12577 0.0
C516 C 0.69034 0.44859 0.15503 0.0
C517 C 0.71062 0.46088 0.14543 0.0
C518 C 0.71199 0.47414 0.10725 0.0
H519 H 0.69311 0.45051 0.95314 0.0
H520 H 0.69909 0.44534 0.01075 0.0
H521 H 0.66989 0.45086 0.99262 0.0
H522 H 0.65785 0.46431 0.06615 0.0
H523 H 0.65549 0.44083 0.1323 0.0
H524 H 0.3127 0.42553 0.38527 0.0
H525 H 0.30853 0.44836 0.45216 0.0
H526 H 0.33965 0.50522 0.38549 0.0
H527 H 0.34377 0.48264 0.31842 0.0
H528 H 0.34484 0.46983 0.49964 0.0
H529 H 0.27967 0.53167 0.43904 0.0
H530 H 0.28517 0.50513 0.41156 0.0
H531 H 0.30472 0.52851 0.40423 0.0
C532 C 0.31851 0.44295 0.38472 0.0
C533 C 0.32853 0.45229 0.34647 0.0
C534 C 0.31613 0.45594 0.42297 0.0
C535 C 0.3235 0.47854 0.42354 0.0
C536 C 0.33346 0.48793 0.38545 0.0
H537 H 0.3342 0.58397 0.61989 0.0
H538 H 0.33469 0.56098 0.55281 0.0
C539 C 0.33592 0.47495 0.34724 0.0
C540 C 0.32169 0.49203 0.46453 0.0
H541 H 0.29739 0.5397 0.50809 0.0
C542 C 0.33434 0.48501 0.50167 0.0
C543 C 0.30804 0.51186 0.46689 0.0
C544 C 0.29345 0.5197 0.42846 0.0
C545 C 0.33412 0.4976 0.5409 0.0
C546 C 0.32053 0.51749 0.54322 0.0
C547 C 0.30778 0.52444 0.50616 0.0
C548 C 0.31959 0.53146 0.5837 0.0
C549 C 0.34892 0.48986 0.57913 0.0
C550 C 0.31054 0.52259 0.62306 0.0
C551 C 0.31023 0.53565 0.66147 0.0
C552 C 0.31892 0.55787 0.66114 0.0
C553 C 0.3275 0.56687 0.62135 0.0
C554 C 0.32776 0.55379 0.58296 0.0
H555 H 0.36241 0.47758 0.56857 0.0
H556 H 0.35758 0.50444 0.59527 0.0
H557 H 0.33772 0.48144 0.60402 0.0
H558 H 0.30375 0.50552 0.62409 0.0
H559 H 0.3034 0.52825 0.69148 0.0
H560 H 0.81251 0.05286 0.83005 0.0
H561 H 0.80814 0.02192 0.8827 0.0
H562 H 0.81261 0.06915 0.99063 0.0
H563 H 0.81686 0.10038 0.93815 0.0
H564 H 0.84174 0.01087 0.94646 0.0
H565 H 0.75649 0.0293 0.02423 0.0
H566 H 0.76527 0.04156 0.9722 0.0
H567 H 0.77651 0.0526 0.02311 0.0
C568 C 0.81223 0.0568 0.86495 0.0
C569 C 0.81513 0.07917 0.87981 0.0
C570 C 0.80973 0.03904 0.895 0.0
C571 C 0.80987 0.04323 0.94054 0.0
C572 C 0.81207 0.06557 0.95559 0.0
H573 H 0.8165 0.96004 0.17486 0.0
H574 H 0.81235 0.99051 0.12102 0.0
C575 C 0.81461 0.0834 0.92552 0.0
C576 C 0.80962 0.02402 0.97208 0.0
H577 H 0.7793 1.00044 0.05741 0.0
C578 C 0.828 0.00847 0.97051 0.0
C579 C 0.79175 0.02105 0.00358 0.0
C580 C 0.77126 0.03688 0.00583 0.0
C581 C 0.82929 0.99028 1.00017 0.0
C582 C 0.81138 0.98722 0.03163 0.0
C583 C 0.79294 1.00274 0.03314 0.0
C584 C 0.812 0.96843 0.06417 0.0
C585 C 0.85022 0.97493 0.99841 0.0
C586 C 0.8125 0.9458 0.0502 0.0
C587 C 0.81501 0.92828 0.08091 0.0
C588 C 0.81686 0.93306 0.12627 0.0
C589 C 0.81526 0.95571 0.14022 0.0
C590 C 0.81285 0.97319 0.10948 0.0
H591 H 0.86493 0.98289 0.98047 0.0
H592 H 0.85613 0.97035 0.03212 0.0
H593 H 0.84553 0.95914 0.98079 0.0
H594 H 0.81132 0.9417 0.01544 0.0
H595 H 0.81594 0.91105 0.069 0.0
H596 H 0.18741 0.10144 0.56922 0.0
H597 H 0.19246 0.07117 0.51504 0.0
H598 H 0.1892 0.02151 0.6191 0.0
H599 H 0.18461 0.05155 0.67356 0.0
H600 H 0.22314 0.01178 0.55682 0.0
H601 H 0.13869 0.03096 0.4765 0.0
H602 H 0.15849 0.05438 0.47846 0.0
H603 H 0.14695 0.04295 0.52891 0.0
C604 C 0.18794 0.08409 0.58067 0.0
C605 C 0.18533 0.07895 0.62575 0.0
C606 C 0.19071 0.06681 0.5496 0.0
C607 C 0.19071 0.04406 0.56295 0.0
C608 C 0.18911 0.03893 0.60804 0.0
H609 H 0.18498 0.91237 0.43865 0.0
H610 H 0.1897 0.94385 0.4902 0.0
C611 C 0.18645 0.05617 0.63913 0.0
C612 C 0.19152 0.02553 0.52999 0.0
H613 H 0.16161 1.00249 0.44376 0.0
C614 C 0.20972 0.00975 0.53203 0.0
C615 C 0.17391 0.02284 0.49784 0.0
C616 C 0.15328 0.03853 0.49539 0.0
C617 C 0.2109 0.99148 0.50247 0.0
C618 C 0.19325 0.98879 0.47046 0.0
C619 C 0.17518 1.00466 0.46822 0.0
C620 C 0.19277 0.96942 0.4394 0.0
C621 C 0.23112 0.97535 0.50541 0.0
C622 C 0.19289 0.97333 0.39375 0.0
C623 C 0.19008 0.95542 0.3642 0.0
C624 C 0.18689 0.93319 0.37972 0.0
C625 C 0.18744 0.92924 0.42552 0.0
C626 C 0.19027 0.94721 0.45508 0.0
H627 H 0.24599 0.9829 0.52351 0.0
H628 H 0.22561 0.95992 0.52343 0.0
H629 H 0.23707 0.97021 0.47203 0.0
H630 H 0.19471 0.99035 0.38097 0.0
H631 H 0.1898 0.95913 0.32919 0.0
H632 H 0.21828 0.03912 0.8244 0.0
H633 H 0.22015 0.01533 0.8904 0.0
H634 H 0.16208 0.05135 0.94626 0.0
H635 H 0.16031 0.07548 0.88085 0.0
H636 H 0.19756 0.04487 0.00593 0.0
H637 H 0.17516 0.96449 0.92163 0.0
H638 H 0.19971 0.97894 0.89835 0.0
H639 H 0.17143 0.99175 0.89579 0.0
C640 C 0.20589 0.04198 0.8507 0.0
C641 C 0.18905 0.05912 0.84722 0.0
C642 C 0.20691 0.02828 0.88829 0.0
C643 C 0.19101 0.03133 0.9229 0.0
C644 C 0.17444 0.04864 0.91983 0.0
H645 H 0.15624 0.93885 0.13337 0.0
H646 H 0.15732 0.96294 0.06792 0.0
C647 C 0.17344 0.06239 0.88236 0.0
C648 C 0.19168 0.01664 0.96255 0.0
H649 H 0.18637 0.96187 0.99669 0.0
C650 C 0.19513 0.02672 0.00397 0.0
C651 C 0.1882 0.99301 0.9599 0.0
C652 C 0.1832 0.98138 0.91661 0.0
C653 C 0.19528 0.01378 0.04284 0.0
C654 C 0.19237 0.99007 0.04008 0.0
C655 C 0.18883 0.98002 0.99867 0.0
C656 C 0.19205 0.97546 0.07988 0.0
C657 C 0.19793 0.0257 0.08657 0.0
C658 C 0.21134 0.97428 0.1081 0.0
C659 C 0.21073 0.96061 0.14579 0.0
C660 C 0.1909 0.94769 0.15565 0.0
C661 C 0.17178 0.94862 0.12684 0.0
C662 C 0.17236 0.96236 0.08935 0.0
H663 H 0.19394 0.04403 0.08386 0.0
H664 H 0.18638 0.01815 0.11195 0.0
H665 H 0.21614 0.02399 0.09806 0.0
H666 H 0.22691 0.98385 0.10089 0.0
H667 H 0.22582 0.96013 0.16709 0.0
H668 H 0.78032 0.04365 0.67622 0.0
H669 H 0.77923 0.02003 0.61003 0.0
H670 H 0.84227 0.05132 0.56333 0.0
H671 H 0.84318 0.07539 0.62877 0.0
H672 H 0.81045 0.04761 0.4984 0.0
H673 H 0.81947 0.9655 0.58518 0.0
H674 H 0.79515 0.98188 0.60378 0.0
H675 H 0.82418 0.99223 0.61236 0.0
C676 C 0.79397 0.04549 0.65189 0.0
C677 C 0.81191 0.06132 0.6579 0.0
C678 C 0.7934 0.03187 0.6142 0.0
C679 C 0.81091 0.0336 0.58212 0.0
C680 C 0.82864 0.04961 0.58775 0.0
H681 H 0.84371 0.9366 0.37764 0.0
H682 H 0.84266 0.96058 0.44321 0.0
C683 C 0.82914 0.06335 0.62523 0.0
C684 C 0.81068 0.01898 0.54233 0.0
H685 H 0.81105 0.96392 0.50854 0.0
C686 C 0.81061 0.02931 0.50059 0.0
C687 C 0.81123 0.9951 0.54525 0.0
C688 C 0.81275 0.98299 0.58902 0.0
C689 C 0.81094 0.01643 0.46169 0.0
C690 C 0.81073 0.99255 0.46461 0.0
C691 C 0.81095 0.98223 0.50635 0.0
C692 C 0.81103 0.97794 0.42481 0.0
C693 C 0.81214 0.02857 0.4179 0.0
C694 C 0.79341 0.97949 0.39292 0.0
C695 C 0.79407 0.96593 0.35514 0.0
C696 C 0.8122 0.95033 0.34887 0.0
C697 C 0.82952 0.94846 0.38139 0.0
C698 C 0.82894 0.96215 0.41893 0.0
H699 H 0.81866 0.04614 0.42166 0.0
H700 H 0.8236 0.01948 0.39438 0.0
H701 H 0.79448 0.02947 0.4034 0.0
H702 H 0.7791 0.99114 0.39728 0.0
H703 H 0.78035 0.96763 0.33095 0.0
H704 H 0.27805 0.30352 0.07936 0.0
H705 H 0.25845 0.27882 0.02653 0.0
H706 H 0.32184 0.27315 0.9515 0.0
H707 H 0.3416 0.29768 0.00457 0.0
H708 H 0.25064 0.28199 0.93777 0.0
H709 H 0.3061 0.2076 0.97409 0.0
H710 H 0.30631 0.2327 0.00786 0.0
H711 H 0.32231 0.23195 0.95685 0.0
C712 C 0.28769 0.29744 0.05113 0.0
C713 C 0.31129 0.30278 0.04576 0.0
C714 C 0.27651 0.28313 0.02116 0.0
C715 C 0.28877 0.27383 0.98546 0.0
C716 C 0.31217 0.27968 0.97937 0.0
H717 H 0.24844 0.18638 0.76735 0.0
H718 H 0.26825 0.21351 0.81603 0.0
C719 C 0.32339 0.29381 0.00952 0.0
C720 C 0.27713 0.25783 0.95494 0.0
H721 H 0.28025 0.20422 0.91335 0.0
C722 C 0.25707 0.26497 0.93254 0.0
C723 C 0.28548 0.23556 0.94833 0.0
C724 C 0.30609 0.22638 0.97336 0.0
C725 C 0.24536 0.25054 0.90327 0.0
C726 C 0.25389 0.22845 0.89637 0.0
C727 C 0.27391 0.22128 0.91859 0.0
C728 C 0.24192 0.21231 0.86691 0.0
C729 C 0.22404 0.259 0.87953 0.0
C730 C 0.22075 0.20261 0.87978 0.0
C731 C 0.2096 0.18706 0.85231 0.0
C732 C 0.21944 0.18107 0.81159 0.0
C733 C 0.2406 0.19081 0.79868 0.0
C734 C 0.25187 0.20622 0.82635 0.0
H735 H 0.22181 0.27757 0.88303 0.0
H736 H 0.22499 0.25473 0.84389 0.0
H737 H 0.20844 0.25056 0.89336 0.0
H738 H 0.21293 0.207 0.91115 0.0
H739 H 0.19318 0.17986 0.86267 0.0
H740 H 0.6833 0.7418 0.58147 0.0
H741 H 0.70331 0.7647 0.52616 0.0
H742 H 0.72597 0.70412 0.45977 0.0
H743 H 0.70606 0.68107 0.51534 0.0
H744 H 0.76078 0.73533 0.46651 0.0
H745 H 0.68134 0.77603 0.40136 0.0
H746 H 0.68437 0.77982 0.4598 0.0
H747 H 0.68037 0.75185 0.43767 0.0
C748 C 0.69255 0.73335 0.55509 0.0
C749 C 0.69328 0.70963 0.55302 0.0
C750 C 0.70387 0.74646 0.52336 0.0
C751 C 0.71578 0.73614 0.48835 0.0
C752 C 0.71684 0.71244 0.48647 0.0
H753 H 0.76064 0.81492 0.25891 0.0
H754 H 0.74206 0.78684 0.30702 0.0
C755 C 0.70562 0.69927 0.51847 0.0
C756 C 0.72728 0.7502 0.4541 0.0
H757 H 0.71744 0.79312 0.38103 0.0
C758 C 0.75128 0.74783 0.44751 0.0
C759 C 0.71481 0.76621 0.42868 0.0
C760 C 0.68876 0.76849 0.43185 0.0
C761 C 0.76329 0.76161 0.41738 0.0
C762 C 0.75103 0.77856 0.39396 0.0
C763 C 0.7269 0.78035 0.39939 0.0
C764 C 0.7629 0.79492 0.36435 0.0
C765 C 0.78895 0.75774 0.41074 0.0
C766 C 0.78064 0.8089 0.38062 0.0
C767 C 0.79137 0.82473 0.3531 0.0
C768 C 0.78427 0.82719 0.30902 0.0
C769 C 0.76645 0.8133 0.29276 0.0
C770 C 0.75582 0.79733 0.32022 0.0
H771 H 0.79397 0.74017 0.41959 0.0
H772 H 0.79415 0.761 0.37602 0.0
H773 H 0.79882 0.76938 0.43245 0.0
H774 H 0.78606 0.80774 0.41476 0.0
H775 H 0.8053 0.835 0.36628 0.0
H776 H 0.24582 0.84979 0.1797 0.0
H777 H 0.2642 0.82292 0.1288 0.0
H778 H 0.21032 0.77428 0.15634 0.0
H779 H 0.19179 0.80121 0.20688 0.0
H780 H 0.25665 0.75648 0.15858 0.0
H781 H 0.23849 0.80521 0.00566 0.0
H782 H 0.25258 0.82102 0.04863 0.0
H783 H 0.22363 0.81057 0.05711 0.0
C784 C 0.23796 0.83335 0.17478 0.0
C785 C 0.21753 0.82744 0.19728 0.0
C786 C 0.24838 0.81808 0.14569 0.0
C787 C 0.23847 0.79672 0.13853 0.0
C788 C 0.21822 0.79069 0.16144 0.0
H789 H 0.27543 0.70544 0.92403 0.0
H790 H 0.25423 0.72856 0.97739 0.0
C791 C 0.20774 0.80599 0.1904 0.0
C792 C 0.2493 0.78063 0.10725 0.0
H793 H 0.26374 0.77367 0.99882 0.0
C794 C 0.25813 0.76016 0.12361 0.0
C795 C 0.25088 0.78537 0.0616 0.0
C796 C 0.24072 0.80663 0.04198 0.0
C797 C 0.26908 0.74454 0.09562 0.0
C798 C 0.27143 0.74966 0.05022 0.0
C799 C 0.26206 0.76986 0.0337 0.0
C800 C 0.28397 0.73451 0.01941 0.0
C801 C 0.27791 0.72262 0.11479 0.0
C802 C 0.30773 0.73028 0.02522 0.0
C803 C 0.31983 0.71689 0.99501 0.0
C804 C 0.30839 0.70739 0.95848 0.0
C805 C 0.28459 0.71174 0.95262 0.0
C806 C 0.2725 0.72521 0.98282 0.0
H807 H 0.26947 0.71866 0.14686 0.0
H808 H 0.27489 0.70835 0.09172 0.0
H809 H 0.29688 0.72403 0.12058 0.0
H810 H 0.31704 0.73771 0.05266 0.0
H811 H 0.33822 0.71405 1.00012 0.0
H812 H 0.70109 0.33042 0.49555 0.0
H813 H 0.72132 0.30713 0.5503 0.0
H814 H 0.70472 0.24725 0.47557 0.0
H815 H 0.6844 0.27036 0.42107 0.0
H816 H 0.69553 0.24196 0.56259 0.0
H817 H 0.78435 0.27665 0.54009 0.0
H818 H 0.76266 0.29745 0.55288 0.0
H819 H 0.76111 0.28221 0.50166 0.0
C820 C 0.70217 0.31236 0.49034 0.0
C821 C 0.69152 0.30226 0.45356 0.0
C822 C 0.71369 0.29905 0.52172 0.0
C823 C 0.71488 0.27547 0.51667 0.0
C824 C 0.7041 0.26541 0.4801 0.0
H825 H 0.80501 0.17784 0.64033 0.0
H826 H 0.78505 0.20452 0.59154 0.0
C827 C 0.6925 0.27864 0.44898 0.0
C828 C 0.72668 0.26102 0.5499 0.0
H829 H 0.77916 0.25023 0.59799 0.0
C830 C 0.71381 0.2438 0.57042 0.0
C831 C 0.75058 0.26329 0.55973 0.0
C832 C 0.76558 0.28075 0.5372 0.0
C833 C 0.72419 0.22868 0.60021 0.0
C834 C 0.74801 0.23117 0.61059 0.0
C835 C 0.76086 0.24848 0.59028 0.0
C836 C 0.76017 0.21532 0.64076 0.0
C837 C 0.70972 0.20972 0.61912 0.0
C838 C 0.753 0.21271 0.6848 0.0
C839 C 0.76418 0.19721 0.71249 0.0
C840 C 0.78282 0.18423 0.69669 0.0
C841 C 0.79035 0.18729 0.65301 0.0
C842 C 0.77911 0.20267 0.62528 0.0
H843 H 0.69372 0.20677 0.59947 0.0
H844 H 0.71979 0.19373 0.62049 0.0
H845 H 0.70439 0.21417 0.65321 0.0
H846 H 0.73876 0.22265 0.69775 0.0
H847 H 0.75817 0.19524 0.74616 0.0
H848 H 0.69245 0.67994 0.86245 0.0
H849 H 0.71071 0.7075 0.91189 0.0
H850 H 0.76649 0.71643 0.81836 0.0
H851 H 0.74792 0.68917 0.76851 0.0
H852 H 0.75253 0.7062 0.95168 0.0
H853 H 0.74821 0.78114 0.84204 0.0
H854 H 0.73244 0.75544 0.83067 0.0
H855 H 0.7628 0.75756 0.81723 0.0
C856 C 0.70861 0.68783 0.85259 0.0
C857 C 0.71888 0.68252 0.81189 0.0
C858 C 0.71899 0.70358 0.88071 0.0
C859 C 0.73978 0.71433 0.86855 0.0
C860 C 0.75016 0.70881 0.82797 0.0
H861 H 0.83784 0.80072 1.00299 0.0
H862 H 0.81685 0.77626 0.95141 0.0
C863 C 0.73968 0.69316 0.7997 0.0
C864 C 0.75093 0.73067 0.89909 0.0
H865 H 0.7715 0.78473 0.90676 0.0
C866 C 0.7565 0.72342 0.94195 0.0
C867 C 0.75607 0.75317 0.8864 0.0
C868 C 0.74937 0.76239 0.84173 0.0
C869 C 0.76752 0.73788 0.97211 0.0
C870 C 0.77295 0.76022 0.95916 0.0
C871 C 0.76731 0.76756 0.91646 0.0
C872 C 0.78503 0.776 0.9893 0.0
C873 C 0.77375 0.72904 0.01731 0.0
C874 C 0.77393 0.78419 0.0273 0.0
C875 C 0.78585 0.79825 0.05671 0.0
C876 C 0.80903 0.80438 0.04849 0.0
C877 C 0.81996 0.79634 0.01009 0.0
C878 C 0.808 0.78243 0.98057 0.0
H879 H 0.77213 0.71036 0.01941 0.0
H880 H 0.79179 0.7339 0.0261 0.0
H881 H 0.76193 0.73663 0.04216 0.0
H882 H 0.75617 0.77943 0.0345 0.0
H883 H 0.77714 0.80358 0.08656 0.0
H884 H 0.20547 0.18013 0.51603 0.0
H885 H 0.22695 0.20288 0.46196 0.0
H886 H 0.20646 0.26371 0.52985 0.0
H887 H 0.18517 0.24113 0.58414 0.0
H888 H 0.20677 0.23976 0.40764 0.0
H889 H 0.27919 0.26758 0.51598 0.0
H890 H 0.26173 0.24293 0.52783 0.0
H891 H 0.25051 0.27068 0.53871 0.0
C892 C 0.20593 0.19831 0.51994 0.0
C893 C 0.19399 0.20884 0.55478 0.0
C894 C 0.21802 0.21128 0.48882 0.0
C895 C 0.21851 0.23492 0.49233 0.0
C896 C 0.20655 0.24546 0.52697 0.0
H897 H 0.24992 0.34278 0.31034 0.0
H898 H 0.23187 0.3154 0.3609 0.0
C899 C 0.19432 0.23255 0.55778 0.0
C900 C 0.23082 0.24879 0.45906 0.0
H901 H 0.27559 0.28609 0.44669 0.0
C902 C 0.22193 0.24976 0.41599 0.0
C903 C 0.25065 0.26167 0.4701 0.0
C904 C 0.26127 0.26062 0.51556 0.0
C905 C 0.23199 0.26386 0.38394 0.0
C906 C 0.25132 0.27735 0.39544 0.0
C907 C 0.26065 0.27584 0.43812 0.0
C908 C 0.2619 0.29345 0.36384 0.0
C909 C 0.22188 0.26428 0.33803 0.0
C910 C 0.28481 0.29029 0.34931 0.0
C911 C 0.29504 0.30583 0.32047 0.0
C912 C 0.28256 0.32484 0.30608 0.0
C913 C 0.25972 0.3281 0.32083 0.0
C914 C 0.24943 0.31248 0.34946 0.0
H915 H 0.21055 0.24942 0.33177 0.0
H916 H 0.21126 0.27979 0.33394 0.0
H917 H 0.23587 0.26463 0.31281 0.0
H918 H 0.29476 0.27581 0.36035 0.0
H919 H 0.3128 0.30321 0.30988 0.0
H920 H 0.82581 0.24074 0.93594 0.0
H921 H 0.80486 0.26465 0.98807 0.0
H922 H 0.76488 0.20708 0.0312 0.0
H923 H 0.78657 0.18282 0.98071 0.0
H924 H 0.75863 0.27426 0.99349 0.0
H925 H 0.78855 0.23213 0.14718 0.0
H926 H 0.80166 0.22669 0.09414 0.0
H927 H 0.77453 0.21358 0.10864 0.0
C928 C 0.81262 0.2331 0.95662 0.0
C929 C 0.80767 0.20987 0.95353 0.0
C930 C 0.80059 0.24683 0.98629 0.0
C931 C 0.78344 0.23764 0.01384 0.0
C932 C 0.77827 0.2145 0.01069 0.0
H933 H 0.69268 0.30159 0.20782 0.0
H934 H 0.71144 0.27493 0.15707 0.0
C935 C 0.79041 0.20069 0.98109 0.0
C936 C 0.77097 0.25249 0.04544 0.0
H937 H 0.76038 0.26103 0.15517 0.0
C938 C 0.75903 0.27137 0.02884 0.0
C939 C 0.77152 0.24869 0.09158 0.0
C940 C 0.78492 0.2293 0.11159 0.0
C941 C 0.7476 0.28652 0.05707 0.0
C942 C 0.7483 0.28281 0.10313 0.0
C943 C 0.75991 0.26378 0.11979 0.0
C944 C 0.73738 0.29874 0.13458 0.0
C945 C 0.73468 0.30631 0.03745 0.0
C946 C 0.74602 0.3208 0.13918 0.0
C947 C 0.73552 0.33592 0.16846 0.0
C948 C 0.71624 0.32921 0.19362 0.0
C949 C 0.70775 0.30706 0.18927 0.0
C950 C 0.71834 0.29189 0.16018 0.0
H951 H 0.73145 0.30402 1.00158 0.0
H952 H 0.71778 0.30884 0.05441 0.0
H953 H 0.74515 0.32189 0.04187 0.0
H954 H 0.76091 0.32629 0.12013 0.0
H955 H 0.74245 0.35288 0.17146 0.0
H956 H 0.16093 0.79583 0.4986 0.0
H957 H 0.18074 0.77215 0.55315 0.0
H958 H 0.24597 0.78397 0.4871 0.0
H959 H 0.22629 0.8077 0.43272 0.0
H960 H 0.20424 0.73329 0.5383 0.0
H961 H 0.26338 0.79615 0.6144 0.0
H962 H 0.23925 0.80425 0.57984 0.0
H963 H 0.26596 0.79464 0.55545 0.0
C964 C 0.17956 0.79363 0.49612 0.0
C965 C 0.19213 0.80409 0.46201 0.0
C966 C 0.19085 0.7801 0.52727 0.0
C967 C 0.21492 0.77663 0.52476 0.0
C968 C 0.22752 0.78698 0.49058 0.0
H969 H 0.30522 0.6765 0.64195 0.0
H970 H 0.28523 0.70351 0.59354 0.0
C971 C 0.21624 0.80065 0.45955 0.0
C972 C 0.22653 0.76106 0.55627 0.0
H973 H 0.27052 0.75737 0.63171 0.0
C974 C 0.21861 0.73863 0.55894 0.0
C975 C 0.24526 0.76804 0.5833 0.0
C976 C 0.25384 0.79214 0.58351 0.0
C977 C 0.22921 0.72292 0.58724 0.0
C978 C 0.24817 0.72981 0.61343 0.0
C979 C 0.25599 0.75222 0.61129 0.0
C980 C 0.26023 0.71373 0.64286 0.0
C981 C 0.22031 0.69896 0.58891 0.0
C982 C 0.2527 0.71067 0.68648 0.0
C983 C 0.26397 0.69518 0.71405 0.0
C984 C 0.28287 0.68254 0.69827 0.0
C985 C 0.29044 0.68578 0.65463 0.0
C986 C 0.27919 0.70127 0.62712 0.0
H987 H 0.20527 0.69627 0.56656 0.0
H988 H 0.23441 0.68712 0.57948 0.0
H989 H 0.21499 0.69473 0.62316 0.0
H990 H 0.23805 0.72019 0.69905 0.0
H991 H 0.25784 0.69294 0.74757 0.0
loop_
_geom_bond_atom_site_label_1
_geom_bond_atom_site_label_2
_geom_bond_distance
_geom_bond_site_symmetry_2
_ccdc_geom_bond_type
Co0 O3 1.970 . S
Co0 N17 1.989 . S
Co0 O25 1.967 . S
Co0 O32 1.920 . S
Co1 O4 1.966 . S
Co1 N10 2.022 . S
Co1 N18 1.993 . S
Co1 O26 1.941 . S
C2 O3 1.258 . S
C2 O4 1.263 . S
O3 Co0 1.970 . S
O3 C2 1.258 . S
O4 Co1 1.966 . S
O4 C2 1.263 . S
C5 O6 1.235 . S
C5 O32 1.289 . S
O6 C5 1.235 . S
C7 C9 1.400 . S
C7 N10 1.351 . S
C7 C12 1.501 . S
C8 C9 1.387 . S
C8 N11 1.341 . S
C9 C7 1.400 . S
C9 C8 1.387 . S
N10 Co1 2.022 . S
N10 C7 1.351 . S
N10 N11 1.365 . S
N11 C8 1.341 . S
N11 N10 1.365 . S
N11 H31 0.862 . S
C12 C7 1.501 . S
C12 H13 0.961 . S
C12 H14 0.961 . S
C12 H15 0.960 . S
H13 C12 0.961 . S
H14 C12 0.961 . S
H15 C12 0.960 . S
C16 N17 1.342 . S
C16 C20 1.401 . S
C16 C21 1.499 . S
N17 Co0 1.989 . S
N17 C16 1.342 . S
N17 N18 1.388 . S
N18 Co1 1.993 . S
N18 N17 1.388 . S
N18 C19 1.346 . S
C19 N18 1.346 . S
C19 C20 1.396 . S
C19 C29 1.510 . S
C20 C16 1.401 . S
C20 C19 1.396 . S
C21 C16 1.499 . S
C21 H22 0.959 . S
C21 H23 0.960 . S
C21 H24 0.961 . S
H22 C21 0.959 . S
H23 C21 0.960 . S
H24 C21 0.961 . S
O25 Co0 1.967 . S
O25 C33 1.258 . S
O26 Co1 1.941 . S
O26 C33 1.266 . S
H27 C29 0.959 . S
H28 C29 0.961 . S
C29 C19 1.510 . S
C29 H27 0.959 . S
C29 H28 0.961 . S
C29 H30 0.960 . S
H30 C29 0.960 . S
H31 N11 0.862 . S
O32 Co0 1.920 . S
O32 C5 1.289 . S
C33 O25 1.258 . S
C33 O26 1.266 . S
Co34 O37 1.970 . S
Co34 N51 1.989 . S
Co34 O59 1.967 . S
Co34 O66 1.920 . S
Co35 O38 1.966 . S
Co35 N44 2.022 . S
Co35 N52 1.993 . S
Co35 O60 1.941 . S
C36 O37 1.258 . S
C36 O38 1.263 . S
O37 Co34 1.970 . S
O37 C36 1.258 . S
O38 Co35 1.966 . S
O38 C36 1.263 . S
C39 O40 1.235 . S
C39 O66 1.289 . S
O40 C39 1.235 . S
C41 C43 1.400 . S
C41 N44 1.351 . S
C41 C46 1.501 . S
C42 C43 1.387 . S
C42 N45 1.341 . S
C43 C41 1.400 . S
C43 C42 1.387 . S
N44 Co35 2.022 . S
N44 C41 1.351 . S
N44 N45 1.365 . S
N45 C42 1.341 . S
N45 N44 1.365 . S
N45 H65 0.862 . S
C46 C41 1.501 . S
C46 H47 0.961 . S
C46 H48 0.961 . S
C46 H49 0.960 . S
H47 C46 0.961 . S
H48 C46 0.961 . S
H49 C46 0.960 . S
C50 N51 1.342 . S
C50 C54 1.401 . S
C50 C55 1.499 . S
N51 Co34 1.989 . S
N51 C50 1.342 . S
N51 N52 1.388 . S
N52 Co35 1.993 . S
N52 N51 1.388 . S
N52 C53 1.346 . S
C53 N52 1.346 . S
C53 C54 1.396 . S
C53 C63 1.510 . S
C54 C50 1.401 . S
C54 C53 1.396 . S
C55 C50 1.499 . S
C55 H56 0.959 . S
C55 H57 0.960 . S
C55 H58 0.961 . S
H56 C55 0.959 . S
H57 C55 0.960 . S
H58 C55 0.961 . S
O59 Co34 1.967 . S
O59 C67 1.258 . S
O60 Co35 1.941 . S
O60 C67 1.266 . S
H61 C63 0.959 . S
H62 C63 0.961 . S
C63 C53 1.510 . S
C63 H61 0.959 . S
C63 H62 0.961 . S
C63 H64 0.960 . S
H64 C63 0.960 . S
H65 N45 0.862 . S
O66 Co34 1.920 . S
O66 C39 1.289 . S
C67 O59 1.258 . S
C67 O60 1.266 . S
Co68 O71 1.970 . S
Co68 N85 1.989 . S
Co68 O93 1.967 . S
Co68 O100 1.920 . S
Co69 O72 1.966 . S
Co69 N78 2.022 . S
Co69 N86 1.993 . S
Co69 O94 1.941 . S
C70 O71 1.258 . S
C70 O72 1.263 . S
O71 Co68 1.970 . S
O71 C70 1.258 . S
O72 Co69 1.966 . S
O72 C70 1.263 . S
C73 O74 1.235 . S
C73 O100 1.289 . S
O74 C73 1.235 . S
C75 C77 1.400 . S
C75 N78 1.351 . S
C75 C80 1.501 . S
C76 C77 1.387 . S
C76 N79 1.341 . S
C77 C75 1.400 . S
C77 C76 1.387 . S
N78 Co69 2.022 . S
N78 C75 1.351 . S
N78 N79 1.365 . S
N79 C76 1.341 . S
N79 N78 1.365 . S
N79 H99 0.862 . S
C80 C75 1.501 . S
C80 H81 0.961 . S
C80 H82 0.961 . S
C80 H83 0.960 . S
H81 C80 0.961 . S
H82 C80 0.961 . S
H83 C80 0.960 . S
C84 N85 1.342 . S
C84 C88 1.401 . S
C84 C89 1.499 . S
N85 Co68 1.989 . S
N85 C84 1.342 . S
N85 N86 1.388 . S
N86 Co69 1.993 . S
N86 N85 1.388 . S
N86 C87 1.346 . S
C87 N86 1.346 . S
C87 C88 1.396 . S
C87 C97 1.510 . S
C88 C84 1.401 . S
C88 C87 1.396 . S
C89 C84 1.499 . S
C89 H90 0.959 . S
C89 H91 0.960 . S
C89 H92 0.961 . S
H90 C89 0.959 . S
H91 C89 0.960 . S
H92 C89 0.961 . S
O93 Co68 1.967 . S
O93 C101 1.258 . S
O94 Co69 1.941 . S
O94 C101 1.266 . S
H95 C97 0.959 . S
H96 C97 0.961 . S
C97 C87 1.510 . S
C97 H95 0.959 . S
C97 H96 0.961 . S
C97 H98 0.960 . S
H98 C97 0.960 . S
H99 N79 0.862 . S
O100 Co68 1.920 . S
O100 C73 1.289 . S
C101 O93 1.258 . S
C101 O94 1.266 . S
Co102 O105 1.970 . S
Co102 N119 1.989 . S
Co102 O127 1.967 . S
Co102 O134 1.920 . S
Co103 O106 1.966 . S
Co103 N112 2.022 . S
Co103 N120 1.993 . S
Co103 O128 1.941 . S
C104 O105 1.258 . S
C104 O106 1.263 . S
O105 Co102 1.970 . S
O105 C104 1.258 . S
O106 Co103 1.966 . S
O106 C104 1.263 . S
C107 O108 1.235 . S
C107 O134 1.289 . S
O108 C107 1.235 . S
C109 C111 1.400 . S
C109 N112 1.351 . S
C109 C114 1.501 . S
C110 C111 1.387 . S
C110 N113 1.341 . S
C111 C109 1.400 . S
C111 C110 1.387 . S
N112 Co103 2.022 . S
N112 C109 1.351 . S
N112 N113 1.365 . S
N113 C110 1.341 . S
N113 N112 1.365 . S
N113 H133 0.862 . S
C114 C109 1.501 . S
C114 H115 0.961 . S
C114 H116 0.961 . S
C114 H117 0.960 . S
H115 C114 0.961 . S
H116 C114 0.961 . S
H117 C114 0.960 . S
C118 N119 1.342 . S
C118 C122 1.401 . S
C118 C123 1.499 . S
N119 Co102 1.989 . S
N119 C118 1.342 . S
N119 N120 1.388 . S
N120 Co103 1.993 . S
N120 N119 1.388 . S
N120 C121 1.346 . S
C121 N120 1.346 . S
C121 C122 1.396 . S
C121 C131 1.510 . S
C122 C118 1.401 . S
C122 C121 1.396 . S
C123 C118 1.499 . S
C123 H124 0.959 . S
C123 H125 0.960 . S
C123 H126 0.961 . S
H124 C123 0.959 . S
H125 C123 0.960 . S
H126 C123 0.961 . S
O127 Co102 1.967 . S
O127 C135 1.258 . S
O128 Co103 1.941 . S
O128 C135 1.266 . S
H129 C131 0.959 . S
H130 C131 0.961 . S
C131 C121 1.510 . S
C131 H129 0.959 . S
C131 H130 0.961 . S
C131 H132 0.960 . S
H132 C131 0.960 . S
H133 N113 0.862 . S
O134 Co102 1.920 . S
O134 C107 1.289 . S
C135 O127 1.258 . S
C135 O128 1.266 . S
Co136 O139 1.970 . S
Co136 N153 1.989 . S
Co136 O161 1.967 . S
Co136 O168 1.920 . S
Co137 O140 1.966 . S
Co137 N146 2.022 . S
Co137 N154 1.993 . S
Co137 O162 1.941 . S
C138 O139 1.258 . S
C138 O140 1.263 . S
O139 Co136 1.970 . S
O139 C138 1.258 . S
O140 Co137 1.966 . S
O140 C138 1.263 . S
C141 O142 1.235 . S
C141 O168 1.289 . S
O142 C141 1.235 . S
C143 C145 1.400 . S
C143 N146 1.351 . S
C143 C148 1.501 . S
C144 C145 1.387 . S
C144 N147 1.341 . S
C145 C143 1.400 . S
C145 C144 1.387 . S
N146 Co137 2.022 . S
N146 C143 1.351 . S
N146 N147 1.365 . S
N147 C144 1.341 . S
N147 N146 1.365 . S
N147 H167 0.862 . S
C148 C143 1.501 . S
C148 H149 0.961 . S
C148 H150 0.961 . S
C148 H151 0.960 . S
H149 C148 0.961 . S
H150 C148 0.961 . S
H151 C148 0.960 . S
C152 N153 1.342 . S
C152 C156 1.401 . S
C152 C157 1.499 . S
N153 Co136 1.989 . S
N153 C152 1.342 . S
N153 N154 1.388 . S
N154 Co137 1.993 . S
N154 N153 1.388 . S
N154 C155 1.346 . S
C155 N154 1.346 . S
C155 C156 1.396 . S
C155 C165 1.510 . S
C156 C152 1.401 . S
C156 C155 1.396 . S
C157 C152 1.499 . S
C157 H158 0.959 . S
C157 H159 0.960 . S
C157 H160 0.961 . S
H158 C157 0.959 . S
H159 C157 0.960 . S
H160 C157 0.961 . S
O161 Co136 1.967 . S
O161 C169 1.258 . S
O162 Co137 1.941 . S
O162 C169 1.266 . S
H163 C165 0.959 . S
H164 C165 0.961 . S
C165 C155 1.510 . S
C165 H163 0.959 . S
C165 H164 0.961 . S
C165 H166 0.960 . S
H166 C165 0.960 . S
H167 N147 0.862 . S
O168 Co136 1.920 . S
O168 C141 1.289 . S
C169 O161 1.258 . S
C169 O162 1.266 . S
Co170 O173 1.970 . S
Co170 N187 1.989 . S
Co170 O195 1.967 . S
Co170 O202 1.920 . S
Co171 O174 1.966 . S
Co171 N180 2.022 . S
Co171 N188 1.993 . S
Co171 O196 1.941 . S
C172 O173 1.258 . S
C172 O174 1.263 . S
O173 Co170 1.970 . S
O173 C172 1.258 . S
O174 Co171 1.966 . S
O174 C172 1.263 . S
C175 O176 1.235 . S
C175 O202 1.289 . S
O176 C175 1.235 . S
C177 C179 1.400 . S
C177 N180 1.351 . S
C177 C182 1.501 . S
C178 C179 1.387 . S
C178 N181 1.341 . S
C179 C177 1.400 . S
C179 C178 1.387 . S
N180 Co171 2.022 . S
N180 C177 1.351 . S
N180 N181 1.365 . S
N181 C178 1.341 . S
N181 N180 1.365 . S
N181 H201 0.862 . S
C182 C177 1.501 . S
C182 H183 0.961 . S
C182 H184 0.961 . S
C182 H185 0.960 . S
H183 C182 0.961 . S
H184 C182 0.961 . S
H185 C182 0.960 . S
C186 N187 1.342 . S
C186 C190 1.401 . S
C186 C191 1.499 . S
N187 Co170 1.989 . S
N187 C186 1.342 . S
N187 N188 1.388 . S
N188 Co171 1.993 . S
N188 N187 1.388 . S
N188 C189 1.346 . S
C189 N188 1.346 . S
C189 C190 1.396 . S
C189 C199 1.510 . S
C190 C186 1.401 . S
C190 C189 1.396 . S
C191 C186 1.499 . S
C191 H192 0.959 . S
C191 H193 0.960 . S
C191 H194 0.961 . S
H192 C191 0.959 . S
H193 C191 0.960 . S
H194 C191 0.961 . S
O195 Co170 1.967 . S
O195 C203 1.258 . S
O196 Co171 1.941 . S
O196 C203 1.266 . S
H197 C199 0.959 . S
H198 C199 0.961 . S
C199 C189 1.510 . S
C199 H197 0.959 . S
C199 H198 0.961 . S
C199 H200 0.960 . S
H200 C199 0.960 . S
H201 N181 0.862 . S
O202 Co170 1.920 . S
O202 C175 1.289 . S
C203 O195 1.258 . S
C203 O196 1.266 . S
Co204 O207 1.970 . S
Co204 N221 1.989 . S
Co204 O229 1.967 . S
Co204 O236 1.920 . S
Co205 O208 1.966 . S
Co205 N214 2.022 . S
Co205 N222 1.993 . S
Co205 O230 1.941 . S
C206 O207 1.258 . S
C206 O208 1.263 . S
O207 Co204 1.970 . S
O207 C206 1.258 . S
O208 Co205 1.966 . S
O208 C206 1.263 . S
C209 O210 1.235 . S
C209 O236 1.289 . S
O210 C209 1.235 . S
C211 C213 1.400 . S
C211 N214 1.351 . S
C211 C216 1.501 . S
C212 C213 1.387 . S
C212 N215 1.341 . S
C213 C211 1.400 . S
C213 C212 1.387 . S
N214 Co205 2.022 . S
N214 C211 1.351 . S
N214 N215 1.365 . S
N215 C212 1.341 . S
N215 N214 1.365 . S
N215 H235 0.862 . S
C216 C211 1.501 . S
C216 H217 0.961 . S
C216 H218 0.961 . S
C216 H219 0.960 . S
H217 C216 0.961 . S
H218 C216 0.961 . S
H219 C216 0.960 . S
C220 N221 1.342 . S
C220 C224 1.401 . S
C220 C225 1.499 . S
N221 Co204 1.989 . S
N221 C220 1.342 . S
N221 N222 1.388 . S
N222 Co205 1.993 . S
N222 N221 1.388 . S
N222 C223 1.346 . S
C223 N222 1.346 . S
C223 C224 1.396 . S
C223 C233 1.510 . S
C224 C220 1.401 . S
C224 C223 1.396 . S
C225 C220 1.499 . S
C225 H226 0.959 . S
C225 H227 0.960 . S
C225 H228 0.961 . S
H226 C225 0.959 . S
H227 C225 0.960 . S
H228 C225 0.961 . S
O229 Co204 1.967 . S
O229 C237 1.258 . S
O230 Co205 1.941 . S
O230 C237 1.266 . S
H231 C233 0.959 . S
H232 C233 0.961 . S
C233 C223 1.510 . S
C233 H231 0.959 . S
C233 H232 0.961 . S
C233 H234 0.960 . S
H234 C233 0.960 . S
H235 N215 0.862 . S
O236 Co204 1.920 . S
O236 C209 1.289 . S
C237 O229 1.258 . S
C237 O230 1.266 . S
Co238 O241 1.970 . S
Co238 N255 1.989 . S
Co238 O263 1.967 . S
Co238 O270 1.920 . S
Co239 O242 1.966 . S
Co239 N248 2.022 . S
Co239 N256 1.993 . S
Co239 O264 1.941 . S
C240 O241 1.258 . S
C240 O242 1.263 . S
O241 Co238 1.970 . S
O241 C240 1.258 . S
O242 Co239 1.966 . S
O242 C240 1.263 . S
C243 O244 1.235 . S
C243 O270 1.289 . S
O244 C243 1.235 . S
C245 C247 1.400 . S
C245 N248 1.351 . S
C245 C250 1.501 . S
C246 C247 1.387 . S
C246 N249 1.341 . S
C247 C245 1.400 . S
C247 C246 1.387 . S
N248 Co239 2.022 . S
N248 C245 1.351 . S
N248 N249 1.365 . S
N249 C246 1.341 . S
N249 N248 1.365 . S
N249 H269 0.862 . S
C250 C245 1.501 . S
C250 H251 0.961 . S
C250 H252 0.961 . S
C250 H253 0.960 . S
H251 C250 0.961 . S
H252 C250 0.961 . S
H253 C250 0.960 . S
C254 N255 1.342 . S
C254 C258 1.401 . S
C254 C259 1.499 . S
N255 Co238 1.989 . S
N255 C254 1.342 . S
N255 N256 1.388 . S
N256 Co239 1.993 . S
N256 N255 1.388 . S
N256 C257 1.346 . S
C257 N256 1.346 . S
C257 C258 1.396 . S
C257 C267 1.510 . S
C258 C254 1.401 . S
C258 C257 1.396 . S
C259 C254 1.499 . S
C259 H260 0.959 . S
C259 H261 0.960 . S
C259 H262 0.961 . S
H260 C259 0.959 . S
H261 C259 0.960 . S
H262 C259 0.961 . S
O263 Co238 1.967 . S
O263 C271 1.258 . S
O264 Co239 1.941 . S
O264 C271 1.266 . S
H265 C267 0.959 . S
H266 C267 0.961 . S
C267 C257 1.510 . S
C267 H265 0.959 . S
C267 H266 0.961 . S
C267 H268 0.960 . S
H268 C267 0.960 . S
H269 N249 0.862 . S
O270 Co238 1.920 . S
O270 C243 1.289 . S
C271 O263 1.258 . S
C271 O264 1.266 . S
H272 C280 0.929 . S
H273 C282 0.930 . S
H274 C284 0.930 . S
H275 C287 0.929 . S
H276 C290 0.930 . S
H277 C292 0.960 . S
H278 C292 0.960 . S
H279 C292 0.960 . S
C280 H272 0.929 . S
C280 C281 1.377 . S
C280 C282 1.384 . S
C281 C280 1.377 . S
C281 C287 1.390 . S
C282 H273 0.930 . S
C282 C280 1.384 . S
C282 C283 1.372 . S
C283 C282 1.372 . S
C283 C284 1.400 . S
C283 C288 1.490 . S
C284 H274 0.930 . S
C284 C283 1.400 . S
C284 C287 1.386 . S
H285 C301 0.930 . S
H286 C302 0.931 . S
C287 H275 0.929 . S
C287 C281 1.390 . S
C287 C284 1.386 . S
C288 C283 1.490 . S
C288 C290 1.395 . S
C288 C291 1.403 . S
H289 C295 0.930 . S
C290 H276 0.930 . S
C290 C288 1.395 . S
C290 C293 1.403 . S
C291 C288 1.403 . S
C291 C292 1.524 . S
C291 C295 1.400 . S
C292 H277 0.960 . S
C292 H278 0.960 . S
C292 H279 0.960 . S
C292 C291 1.524 . S
C293 C290 1.403 . S
C293 C294 1.392 . S
C293 C297 1.495 . S
C294 C293 1.392 . S
C294 C295 1.385 . S
C294 C296 1.478 . S
C295 H289 0.930 . S
C295 C291 1.400 . S
C295 C294 1.385 . S
C296 C294 1.478 . S
C296 C298 1.381 . S
C296 C302 1.383 . S
C297 C293 1.495 . S
C297 H303 0.959 . S
C297 H304 0.961 . S
C297 H305 0.960 . S
C298 C296 1.381 . S
C298 C299 1.394 . S
C298 H306 0.930 . S
C299 C298 1.394 . S
C299 C300 1.383 . S
C299 H307 0.929 . S
C300 C299 1.383 . S
C300 C301 1.377 . S
C301 H285 0.930 . S
C301 C300 1.377 . S
C301 C302 1.379 . S
C302 H286 0.931 . S
C302 C296 1.383 . S
C302 C301 1.379 . S
H303 C297 0.959 . S
H304 C297 0.961 . S
H305 C297 0.960 . S
H306 C298 0.930 . S
H307 C299 0.929 . S
H308 C316 0.929 . S
H309 C318 0.930 . S
H310 C320 0.930 . S
H311 C323 0.929 . S
H312 C326 0.930 . S
H313 C328 0.960 . S
H314 C328 0.960 . S
H315 C328 0.960 . S
C316 H308 0.929 . S
C316 C317 1.377 . S
C316 C318 1.384 . S
C317 C316 1.377 . S
C317 C323 1.390 . S
C318 H309 0.930 . S
C318 C316 1.384 . S
C318 C319 1.372 . S
C319 C318 1.372 . S
C319 C320 1.400 . S
C319 C324 1.490 . S
C320 H310 0.930 . S
C320 C319 1.400 . S
C320 C323 1.386 . S
H321 C337 0.930 . S
H322 C338 0.931 . S
C323 H311 0.929 . S
C323 C317 1.390 . S
C323 C320 1.386 . S
C324 C319 1.490 . S
C324 C326 1.395 . S
C324 C327 1.403 . S
H325 C331 0.930 . S
C326 H312 0.930 . S
C326 C324 1.395 . S
C326 C329 1.403 . S
C327 C324 1.403 . S
C327 C328 1.524 . S
C327 C331 1.400 . S
C328 H313 0.960 . S
C328 H314 0.960 . S
C328 H315 0.960 . S
C328 C327 1.524 . S
C329 C326 1.403 . S
C329 C330 1.392 . S
C329 C333 1.495 . S
C330 C329 1.392 . S
C330 C331 1.385 . S
C330 C332 1.478 . S
C331 H325 0.930 . S
C331 C327 1.400 . S
C331 C330 1.385 . S
C332 C330 1.478 . S
C332 C334 1.381 . S
C332 C338 1.383 . S
C333 C329 1.495 . S
C333 H339 0.959 . S
C333 H340 0.961 . S
C333 H341 0.960 . S
C334 C332 1.381 . S
C334 C335 1.394 . S
C334 H342 0.930 . S
C335 C334 1.394 . S
C335 C336 1.383 . S
C335 H343 0.929 . S
C336 C335 1.383 . S
C336 C337 1.377 . S
C337 H321 0.930 . S
C337 C336 1.377 . S
C337 C338 1.379 . S
C338 H322 0.931 . S
C338 C332 1.383 . S
C338 C337 1.379 . S
H339 C333 0.959 . S
H340 C333 0.961 . S
H341 C333 0.960 . S
H342 C334 0.930 . S
H343 C335 0.929 . S
H344 C352 0.929 . S
H345 C354 0.930 . S
H346 C356 0.930 . S
H347 C359 0.929 . S
H348 C362 0.930 . S
H349 C364 0.960 . S
H350 C364 0.960 . S
H351 C364 0.960 . S
C352 H344 0.929 . S
C352 C353 1.377 . S
C352 C354 1.384 . S
C353 C352 1.377 . S
C353 C359 1.390 . S
C354 H345 0.930 . S
C354 C352 1.384 . S
C354 C355 1.372 . S
C355 C354 1.372 . S
C355 C356 1.400 . S
C355 C360 1.490 . S
C356 H346 0.930 . S
C356 C355 1.400 . S
C356 C359 1.386 . S
H357 C373 0.930 . S
H358 C374 0.931 . S
C359 H347 0.929 . S
C359 C353 1.390 . S
C359 C356 1.386 . S
C360 C355 1.490 . S
C360 C362 1.395 . S
C360 C363 1.403 . S
H361 C367 0.930 . S
C362 H348 0.930 . S
C362 C360 1.395 . S
C362 C365 1.403 1_455 S
C363 C360 1.403 . S
C363 C364 1.524 . S
C363 C367 1.400 1_455 S
C364 H349 0.960 . S
C364 H350 0.960 . S
C364 H351 0.960 . S
C364 C363 1.524 . S
C365 C362 1.403 1_655 S
C365 C366 1.392 . S
C365 C369 1.495 . S
C366 C365 1.392 . S
C366 C367 1.385 . S
C366 C368 1.478 . S
C367 H361 0.930 . S
C367 C363 1.400 1_655 S
C367 C366 1.385 . S
C368 C366 1.478 . S
C368 C370 1.381 . S
C368 C374 1.383 . S
C369 C365 1.495 . S
C369 H375 0.959 . S
C369 H376 0.961 . S
C369 H377 0.960 . S
C370 C368 1.381 . S
C370 C371 1.394 . S
C370 H378 0.930 . S
C371 C370 1.394 . S
C371 C372 1.383 . S
C371 H379 0.929 . S
C372 C371 1.383 . S
C372 C373 1.377 . S
C373 H357 0.930 . S
C373 C372 1.377 . S
C373 C374 1.379 . S
C374 H358 0.931 . S
C374 C368 1.383 . S
C374 C373 1.379 . S
H375 C369 0.959 . S
H376 C369 0.961 . S
H377 C369 0.960 . S
H378 C370 0.930 . S
H379 C371 0.929 . S
H380 C388 0.929 . S
H381 C390 0.930 . S
H382 C392 0.930 . S
H383 C395 0.929 . S
H384 C398 0.930 . S
H385 C400 0.960 . S
H386 C400 0.960 . S
H387 C400 0.960 . S
C388 H380 0.929 . S
C388 C389 1.377 . S
C388 C390 1.384 . S
C389 C388 1.377 . S
C389 C395 1.390 . S
C390 H381 0.930 . S
C390 C388 1.384 . S
C390 C391 1.372 . S
C391 C390 1.372 . S
C391 C392 1.400 . S
C391 C396 1.490 . S
C392 H382 0.930 . S
C392 C391 1.400 . S
C392 C395 1.386 . S
H393 C409 0.930 . S
H394 C410 0.931 . S
C395 H383 0.929 . S
C395 C389 1.390 . S
C395 C392 1.386 . S
C396 C391 1.490 . S
C396 C398 1.395 . S
C396 C399 1.403 . S
H397 C403 0.930 . S
C398 H384 0.930 . S
C398 C396 1.395 . S
C398 C401 1.403 1_455 S
C399 C396 1.403 . S
C399 C400 1.524 . S
C399 C403 1.400 1_455 S
C400 H385 0.960 . S
C400 H386 0.960 . S
C400 H387 0.960 . S
C400 C399 1.524 . S
C401 C398 1.403 1_655 S
C401 C402 1.392 . S
C401 C405 1.495 . S
C402 C401 1.392 . S
C402 C403 1.385 . S
C402 C404 1.478 . S
C403 H397 0.930 . S
C403 C399 1.400 1_655 S
C403 C402 1.385 . S
C404 C402 1.478 . S
C404 C406 1.381 . S
C404 C410 1.383 . S
C405 C401 1.495 . S
C405 H411 0.959 . S
C405 H412 0.961 . S
C405 H413 0.960 . S
C406 C404 1.381 . S
C406 C407 1.394 . S
C406 H414 0.930 . S
C407 C406 1.394 . S
C407 C408 1.383 . S
C407 H415 0.929 . S
C408 C407 1.383 . S
C408 C409 1.377 . S
C409 H393 0.930 . S
C409 C408 1.377 . S
C409 C410 1.379 . S
C410 H394 0.931 . S
C410 C404 1.383 . S
C410 C409 1.379 . S
H411 C405 0.959 . S
H412 C405 0.961 . S
H413 C405 0.960 . S
H414 C406 0.930 . S
H415 C407 0.929 . S
H416 C424 0.929 . S
H417 C426 0.930 . S
H418 C428 0.930 . S
H419 C431 0.929 . S
H420 C434 0.930 . S
H421 C436 0.960 . S
H422 C436 0.960 . S
H423 C436 0.960 . S
C424 H416 0.929 . S
C424 C425 1.377 . S
C424 C426 1.384 . S
C425 C424 1.377 . S
C425 C431 1.390 . S
C426 H417 0.930 . S
C426 C424 1.384 . S
C426 C427 1.372 . S
C427 C426 1.372 . S
C427 C428 1.400 . S
C427 C432 1.490 . S
C428 H418 0.930 . S
C428 C427 1.400 . S
C428 C431 1.386 . S
H429 C445 0.930 . S
H430 C446 0.931 . S
C431 H419 0.929 . S
C431 C425 1.390 . S
C431 C428 1.386 . S
C432 C427 1.490 . S
C432 C434 1.395 1_556 S
C432 C435 1.403 . S
H433 C439 0.930 . S
C434 H420 0.930 . S
C434 C432 1.395 1_554 S
C434 C437 1.403 . S
C435 C432 1.403 . S
C435 C436 1.524 . S
C435 C439 1.400 . S
C436 H421 0.960 . S
C436 H422 0.960 . S
C436 H423 0.960 . S
C436 C435 1.524 . S
C437 C434 1.403 . S
C437 C438 1.392 . S
C437 C441 1.495 . S
C438 C437 1.392 . S
C438 C439 1.385 1_554 S
C438 C440 1.478 . S
C439 H433 0.930 . S
C439 C435 1.400 . S
C439 C438 1.385 1_556 S
C440 C438 1.478 . S
C440 C442 1.381 . S
C440 C446 1.383 . S
C441 C437 1.495 . S
C441 H447 0.959 . S
C441 H448 0.961 . S
C441 H449 0.960 . S
C442 C440 1.381 . S
C442 C443 1.394 . S
C442 H450 0.930 . S
C443 C442 1.394 . S
C443 C444 1.383 . S
C443 H451 0.929 . S
C444 C443 1.383 . S
C444 C445 1.377 . S
C445 H429 0.930 . S
C445 C444 1.377 . S
C445 C446 1.379 . S
C446 H430 0.931 . S
C446 C440 1.383 . S
C446 C445 1.379 . S
H447 C441 0.959 . S
H448 C441 0.961 . S
H449 C441 0.960 . S
H450 C442 0.930 . S
H451 C443 0.929 . S
H452 C460 0.929 . S
H453 C462 0.930 . S
H454 C464 0.930 . S
H455 C467 0.929 . S
H456 C470 0.930 . S
H457 C472 0.960 . S
H458 C472 0.960 . S
H459 C472 0.960 . S
C460 H452 0.929 . S
C460 C461 1.377 . S
C460 C462 1.384 . S
C461 C460 1.377 . S
C461 C467 1.390 . S
C462 H453 0.930 . S
C462 C460 1.384 . S
C462 C463 1.372 . S
C463 C462 1.372 . S
C463 C464 1.400 . S
C463 C468 1.490 . S
C464 H454 0.930 . S
C464 C463 1.400 . S
C464 C467 1.386 . S
H465 C481 0.930 . S
H466 C482 0.931 . S
C467 H455 0.929 . S
C467 C461 1.390 . S
C467 C464 1.386 . S
C468 C463 1.490 . S
C468 C470 1.395 . S
C468 C471 1.403 . S
H469 C475 0.930 . S
C470 H456 0.930 . S
C470 C468 1.395 . S
C470 C473 1.403 . S
C471 C468 1.403 . S
C471 C472 1.524 . S
C471 C475 1.400 . S
C472 H457 0.960 . S
C472 H458 0.960 . S
C472 H459 0.960 . S
C472 C471 1.524 . S
C473 C470 1.403 . S
C473 C474 1.392 . S
C473 C477 1.495 . S
C474 C473 1.392 . S
C474 C475 1.385 . S
C474 C476 1.478 . S
C475 H469 0.930 . S
C475 C471 1.400 . S
C475 C474 1.385 . S
C476 C474 1.478 . S
C476 C478 1.381 . S
C476 C482 1.383 . S
C477 C473 1.495 . S
C477 H483 0.959 . S
C477 H484 0.961 . S
C477 H485 0.960 . S
C478 C476 1.381 . S
C478 C479 1.394 . S
C478 H486 0.930 . S
C479 C478 1.394 . S
C479 C480 1.383 . S
C479 H487 0.929 . S
C480 C479 1.383 . S
C480 C481 1.377 . S
C481 H465 0.930 . S
C481 C480 1.377 . S
C481 C482 1.379 . S
C482 H466 0.931 . S
C482 C476 1.383 . S
C482 C481 1.379 . S
H483 C477 0.959 . S
H484 C477 0.961 . S
H485 C477 0.960 . S
H486 C478 0.930 . S
H487 C479 0.929 . S
H488 C496 0.929 . S
H489 C498 0.930 . S
H490 C500 0.930 . S
H491 C503 0.929 . S
H492 C506 0.930 . S
H493 C508 0.960 . S
H494 C508 0.960 . S
H495 C508 0.950 1_556 S
C496 H488 0.929 . S
C496 C497 1.377 . S
C496 C498 1.384 . S
C497 C496 1.377 . S
C497 C503 1.390 . S
C498 H489 0.930 . S
C498 C496 1.384 . S
C498 C499 1.372 . S
C499 C498 1.372 . S
C499 C500 1.400 . S
C499 C504 1.490 . S
C500 H490 0.930 . S
C500 C499 1.400 . S
C500 C503 1.386 . S
H501 C517 0.930 . S
H502 C518 0.931 . S
C503 H491 0.929 . S
C503 C497 1.390 . S
C503 C500 1.386 . S
C504 C499 1.490 . S
C504 C506 1.395 . S
C504 C507 1.403 1_556 S
H505 C511 0.930 . S
C506 H492 0.930 . S
C506 C504 1.395 . S
C506 C509 1.403 . S
C507 C504 1.403 1_554 S
C507 C508 1.524 . S
C507 C511 1.400 . S
C508 H493 0.960 . S
C508 H494 0.960 . S
C508 H495 0.950 1_554 S
C508 C507 1.524 . S
C509 C506 1.403 . S
C509 C510 1.392 1_556 S
C509 C513 1.495 . S
C510 C509 1.392 1_554 S
C510 C511 1.385 . S
C510 C512 1.478 . S
C511 H505 0.930 . S
C511 C507 1.400 . S
C511 C510 1.385 . S
C512 C510 1.478 . S
C512 C514 1.381 . S
C512 C518 1.383 . S
C513 C509 1.495 . S
C513 H519 0.959 . S
C513 H520 0.961 . S
C513 H521 0.960 . S
C514 C512 1.381 . S
C514 C515 1.394 . S
C514 H522 0.930 . S
C515 C514 1.394 . S
C515 C516 1.383 . S
C515 H523 0.929 . S
C516 C515 1.383 . S
C516 C517 1.377 . S
C517 H501 0.930 . S
C517 C516 1.377 . S
C517 C518 1.379 . S
C518 H502 0.931 . S
C518 C512 1.383 . S
C518 C517 1.379 . S
H519 C513 0.959 . S
H520 C513 0.961 . S
H521 C513 0.960 . S
H522 C514 0.930 . S
H523 C515 0.929 . S
H524 C532 0.929 . S
H525 C534 0.930 . S
H526 C536 0.930 . S
H527 C539 0.929 . S
H528 C542 0.930 . S
H529 C544 0.960 . S
H530 C544 0.960 . S
H531 C544 0.960 . S
C532 H524 0.929 . S
C532 C533 1.377 . S
C532 C534 1.384 . S
C533 C532 1.377 . S
C533 C539 1.390 . S
C534 H525 0.930 . S
C534 C532 1.384 . S
C534 C535 1.372 . S
C535 C534 1.372 . S
C535 C536 1.400 . S
C535 C540 1.490 . S
C536 H526 0.930 . S
C536 C535 1.400 . S
C536 C539 1.386 . S
H537 C553 0.930 . S
H538 C554 0.931 . S
C539 H527 0.929 . S
C539 C533 1.390 . S
C539 C536 1.386 . S
C540 C535 1.490 . S
C540 C542 1.395 . S
C540 C543 1.403 . S
H541 C547 0.930 . S
C542 H528 0.930 . S
C542 C540 1.395 . S
C542 C545 1.403 . S
C543 C540 1.403 . S
C543 C544 1.524 . S
C543 C547 1.400 . S
C544 H529 0.960 . S
C544 H530 0.960 . S
C544 H531 0.960 . S
C544 C543 1.524 . S
C545 C542 1.403 . S
C545 C546 1.392 . S
C545 C549 1.495 . S
C546 C545 1.392 . S
C546 C547 1.385 . S
C546 C548 1.478 . S
C547 H541 0.930 . S
C547 C543 1.400 . S
C547 C546 1.385 . S
C548 C546 1.478 . S
C548 C550 1.381 . S
C548 C554 1.383 . S
C549 C545 1.495 . S
C549 H555 0.959 . S
C549 H556 0.961 . S
C549 H557 0.960 . S
C550 C548 1.381 . S
C550 C551 1.394 . S
C550 H558 0.930 . S
C551 C550 1.394 . S
C551 C552 1.383 . S
C551 H559 0.929 . S
C552 C551 1.383 . S
C552 C553 1.377 . S
C553 H537 0.930 . S
C553 C552 1.377 . S
C553 C554 1.379 . S
C554 H538 0.931 . S
C554 C548 1.383 . S
C554 C553 1.379 . S
H555 C549 0.959 . S
H556 C549 0.961 . S
H557 C549 0.960 . S
H558 C550 0.930 . S
H559 C551 0.929 . S
H560 C568 0.929 . S
H561 C570 0.930 . S
H562 C572 0.930 . S
H563 C575 0.929 . S
H564 C578 0.930 . S
H565 C580 0.960 1_565 S
H566 C580 0.960 . S
H567 C580 0.960 . S
C568 H560 0.929 . S
C568 C569 1.377 . S
C568 C570 1.384 . S
C569 C568 1.377 . S
C569 C575 1.390 . S
C570 H561 0.930 . S
C570 C568 1.384 . S
C570 C571 1.372 . S
C571 C570 1.372 . S
C571 C572 1.400 . S
C571 C576 1.490 . S
C572 H562 0.930 . S
C572 C571 1.400 . S
C572 C575 1.386 . S
H573 C589 0.930 . S
H574 C590 0.931 . S
C575 H563 0.929 . S
C575 C569 1.390 . S
C575 C572 1.386 . S
C576 C571 1.490 . S
C576 C578 1.395 . S
C576 C579 1.403 . S
H577 C583 0.930 . S
C578 H564 0.930 . S
C578 C576 1.395 . S
C578 C581 1.403 1_546 S
C579 C576 1.403 . S
C579 C580 1.524 . S
C579 C583 1.400 1_546 S
C580 H565 0.960 1_545 S
C580 H566 0.960 . S
C580 H567 0.960 . S
C580 C579 1.524 . S
C581 C578 1.403 1_564 S
C581 C582 1.392 . S
C581 C585 1.495 . S
C582 C581 1.392 . S
C582 C583 1.385 . S
C582 C584 1.478 . S
C583 H577 0.930 . S
C583 C579 1.400 1_564 S
C583 C582 1.385 . S
C584 C582 1.478 . S
C584 C586 1.381 . S
C584 C590 1.383 . S
C585 C581 1.495 . S
C585 H591 0.935 1_565 S
C585 H592 0.961 . S
C585 H593 0.960 . S
C586 C584 1.381 . S
C586 C587 1.394 . S
C586 H594 0.930 . S
C587 C586 1.394 . S
C587 C588 1.383 . S
C587 H595 0.929 . S
C588 C587 1.383 . S
C588 C589 1.377 . S
C589 H573 0.930 . S
C589 C588 1.377 . S
C589 C590 1.379 . S
C590 H574 0.931 . S
C590 C584 1.383 . S
C590 C589 1.379 . S
H591 C585 0.935 1_545 S
H592 C585 0.961 . S
H593 C585 0.960 . S
H594 C586 0.930 . S
H595 C587 0.929 . S
H596 C604 0.929 . S
H597 C606 0.930 . S
H598 C608 0.930 . S
H599 C611 0.929 . S
H600 C614 0.930 . S
H601 C616 0.960 . S
H602 C616 0.960 . S
H603 C616 0.960 . S
C604 H596 0.929 . S
C604 C605 1.377 . S
C604 C606 1.384 . S
C605 C604 1.377 . S
C605 C611 1.390 . S
C606 H597 0.930 . S
C606 C604 1.384 . S
C606 C607 1.372 . S
C607 C606 1.372 . S
C607 C608 1.400 . S
C607 C612 1.490 . S
C608 H598 0.930 . S
C608 C607 1.400 . S
C608 C611 1.386 . S
H609 C625 0.930 . S
H610 C626 0.931 . S
C611 H599 0.929 . S
C611 C605 1.390 . S
C611 C608 1.386 . S
C612 C607 1.490 . S
C612 C614 1.395 1_545 S
C612 C615 1.403 . S
H613 C619 0.929 1_545 S
C614 H600 0.930 . S
C614 C612 1.395 1_565 S
C614 C617 1.403 . S
C615 C612 1.403 . S
C615 C616 1.524 . S
C615 C619 1.404 1_545 S
C616 H601 0.960 . S
C616 H602 0.960 . S
C616 H603 0.960 . S
C616 C615 1.524 . S
C617 C614 1.403 . S
C617 C618 1.392 . S
C617 C621 1.495 . S
C618 C617 1.392 . S
C618 C619 1.381 . S
C618 C620 1.478 . S
C619 H613 0.929 1_565 S
C619 C615 1.404 1_565 S
C619 C618 1.381 . S
C620 C618 1.478 . S
C620 C622 1.381 . S
C620 C626 1.383 . S
C621 C617 1.495 . S
C621 H627 0.959 . S
C621 H628 0.961 . S
C621 H629 0.960 . S
C622 C620 1.381 . S
C622 C623 1.394 . S
C622 H630 0.930 . S
C623 C622 1.394 . S
C623 C624 1.383 . S
C623 H631 0.929 . S
C624 C623 1.383 . S
C624 C625 1.377 . S
C625 H609 0.930 . S
C625 C624 1.377 . S
C625 C626 1.379 . S
C626 H610 0.931 . S
C626 C620 1.383 . S
C626 C625 1.379 . S
H627 C621 0.959 . S
H628 C621 0.961 . S
H629 C621 0.960 . S
H630 C622 0.930 . S
H631 C623 0.929 . S
H632 C640 0.929 . S
H633 C642 0.930 . S
H634 C644 0.930 . S
H635 C647 0.929 . S
H636 C650 0.931 . S
H637 C652 0.960 . S
H638 C652 0.960 . S
H639 C652 0.998 . S
C640 H632 0.929 . S
C640 C641 1.377 . S
C640 C642 1.384 . S
C641 C640 1.377 . S
C641 C647 1.390 . S
C642 H633 0.930 . S
C642 C640 1.384 . S
C642 C643 1.372 . S
C643 C642 1.372 . S
C643 C644 1.400 . S
C643 C648 1.490 . S
C644 H634 0.930 . S
C644 C643 1.400 . S
C644 C647 1.386 . S
H645 C661 0.930 . S
H646 C662 0.931 . S
C647 H635 0.929 . S
C647 C641 1.390 . S
C647 C644 1.386 . S
C648 C643 1.490 . S
C648 C650 1.395 1_556 S
C648 C651 1.403 1_545 S
H649 C655 0.930 . S
C650 H636 0.931 . S
C650 C648 1.395 1_554 S
C650 C653 1.403 . S
C651 C648 1.403 1_565 S
C651 C652 1.524 . S
C651 C655 1.400 1_556 S
C652 H637 0.960 . S
C652 H638 0.960 . S
C652 H639 0.998 . S
C652 C651 1.524 . S
C653 C650 1.403 . S
C653 C654 1.392 1_545 S
C653 C657 1.495 . S
C654 C653 1.392 1_565 S
C654 C655 1.385 . S
C654 C656 1.478 . S
C655 H649 0.930 . S
C655 C651 1.400 1_554 S
C655 C654 1.385 . S
C656 C654 1.478 . S
C656 C658 1.381 . S
C656 C662 1.383 . S
C657 C653 1.495 . S
C657 H663 0.959 . S
C657 H664 0.961 . S
C657 H665 0.960 . S
C658 C656 1.381 . S
C658 C659 1.394 . S
C658 H666 0.930 . S
C659 C658 1.394 . S
C659 C660 1.383 . S
C659 H667 0.929 . S
C660 C659 1.383 . S
C660 C661 1.377 . S
C661 H645 0.930 . S
C661 C660 1.377 . S
C661 C662 1.379 . S
C662 H646 0.931 . S
C662 C656 1.383 . S
C662 C661 1.379 . S
H663 C657 0.959 . S
H664 C657 0.961 . S
H665 C657 0.960 . S
H666 C658 0.930 . S
H667 C659 0.929 . S
H668 C676 0.929 . S
H669 C678 0.930 . S
H670 C680 0.930 . S
H671 C683 0.929 . S
H672 C686 0.930 . S
H673 C688 0.960 . S
H674 C688 0.960 . S
H675 C688 0.960 . S
C676 H668 0.929 . S
C676 C677 1.377 . S
C676 C678 1.384 . S
C677 C676 1.377 . S
C677 C683 1.390 . S
C678 H669 0.930 . S
C678 C676 1.384 . S
C678 C679 1.372 . S
C679 C678 1.372 . S
C679 C680 1.400 . S
C679 C684 1.490 . S
C680 H670 0.930 . S
C680 C679 1.400 . S
C680 C683 1.386 . S
H681 C697 0.930 . S
H682 C698 0.931 . S
C683 H671 0.929 . S
C683 C677 1.390 . S
C683 C680 1.386 . S
C684 C679 1.490 . S
C684 C686 1.395 . S
C684 C687 1.403 1_545 S
H685 C691 0.930 . S
C686 H672 0.930 . S
C686 C684 1.395 . S
C686 C689 1.403 . S
C687 C684 1.403 1_565 S
C687 C688 1.524 . S
C687 C691 1.400 . S
C688 H673 0.960 . S
C688 H674 0.960 . S
C688 H675 0.960 . S
C688 C687 1.524 . S
C689 C686 1.403 . S
C689 C690 1.392 1_545 S
C689 C693 1.495 . S
C690 C689 1.392 1_565 S
C690 C691 1.385 . S
C690 C692 1.478 . S
C691 H685 0.930 . S
C691 C687 1.400 . S
C691 C690 1.385 . S
C692 C690 1.478 . S
C692 C694 1.381 . S
C692 C698 1.383 . S
C693 C689 1.495 . S
C693 H699 0.959 . S
C693 H700 0.961 . S
C693 H701 0.960 . S
C694 C692 1.381 . S
C694 C695 1.394 . S
C694 H702 0.930 . S
C695 C694 1.394 . S
C695 C696 1.383 . S
C695 H703 0.929 . S
C696 C695 1.383 . S
C696 C697 1.377 . S
C697 H681 0.930 . S
C697 C696 1.377 . S
C697 C698 1.379 . S
C698 H682 0.931 . S
C698 C692 1.383 . S
C698 C697 1.379 . S
H699 C693 0.959 . S
H700 C693 0.961 . S
H701 C693 0.960 . S
H702 C694 0.930 . S
H703 C695 0.929 . S
H704 C712 0.929 . S
H705 C714 0.930 . S
H706 C716 0.930 1_556 S
H707 C719 0.929 . S
H708 C722 0.930 . S
H709 C724 0.955 1_556 S
H710 C724 0.960 . S
H711 C724 0.960 . S
C712 H704 0.929 . S
C712 C713 1.377 . S
C712 C714 1.384 . S
C713 C712 1.377 . S
C713 C719 1.390 . S
C714 H705 0.930 . S
C714 C712 1.384 . S
C714 C715 1.372 . S
C715 C714 1.372 . S
C715 C716 1.400 . S
C715 C720 1.490 1_554 S
C716 H706 0.930 1_554 S
C716 C715 1.400 . S
C716 C719 1.386 . S
H717 C733 0.930 . S
H718 C734 0.931 . S
C719 H707 0.929 . S
C719 C713 1.390 . S
C719 C716 1.386 . S
C720 C715 1.490 1_556 S
C720 C722 1.395 . S
C720 C723 1.403 . S
H721 C727 0.930 . S
C722 H708 0.930 . S
C722 C720 1.395 . S
C722 C725 1.403 . S
C723 C720 1.403 . S
C723 C724 1.524 1_556 S
C723 C727 1.400 . S
C724 H709 0.955 1_554 S
C724 H710 0.960 . S
C724 H711 0.960 . S
C724 C723 1.524 1_554 S
C725 C722 1.403 . S
C725 C726 1.392 . S
C725 C729 1.495 . S
C726 C725 1.392 . S
C726 C727 1.385 . S
C726 C728 1.478 . S
C727 H721 0.930 . S
C727 C723 1.400 . S
C727 C726 1.385 . S
C728 C726 1.478 . S
C728 C730 1.381 . S
C728 C734 1.383 . S
C729 C725 1.495 . S
C729 H735 0.959 . S
C729 H736 0.961 . S
C729 H737 0.960 . S
C730 C728 1.381 . S
C730 C731 1.394 . S
C730 H738 0.930 . S
C731 C730 1.394 . S
C731 C732 1.383 . S
C731 H739 0.929 . S
C732 C731 1.383 . S
C732 C733 1.377 . S
C733 H717 0.930 . S
C733 C732 1.377 . S
C733 C734 1.379 . S
C734 H718 0.931 . S
C734 C728 1.383 . S
C734 C733 1.379 . S
H735 C729 0.959 . S
H736 C729 0.961 . S
H737 C729 0.960 . S
H738 C730 0.930 . S
H739 C731 0.929 . S
H740 C748 0.929 . S
H741 C750 0.930 . S
H742 C752 0.930 . S
H743 C755 0.929 . S
H744 C758 0.930 . S
H745 C760 0.960 . S
H746 C760 0.960 . S
H747 C760 0.960 . S
C748 H740 0.929 . S
C748 C749 1.377 . S
C748 C750 1.384 . S
C749 C748 1.377 . S
C749 C755 1.390 . S
C750 H741 0.930 . S
C750 C748 1.384 . S
C750 C751 1.372 . S
C751 C750 1.372 . S
C751 C752 1.400 . S
C751 C756 1.490 . S
C752 H742 0.930 . S
C752 C751 1.400 . S
C752 C755 1.386 . S
H753 C769 0.930 . S
H754 C770 0.931 . S
C755 H743 0.929 . S
C755 C749 1.390 . S
C755 C752 1.386 . S
C756 C751 1.490 . S
C756 C758 1.395 . S
C756 C759 1.403 . S
H757 C763 0.930 . S
C758 H744 0.930 . S
C758 C756 1.395 . S
C758 C761 1.403 . S
C759 C756 1.403 . S
C759 C760 1.524 . S
C759 C763 1.400 . S
C760 H745 0.960 . S
C760 H746 0.960 . S
C760 H747 0.960 . S
C760 C759 1.524 . S
C761 C758 1.403 . S
C761 C762 1.392 . S
C761 C765 1.495 . S
C762 C761 1.392 . S
C762 C763 1.385 . S
C762 C764 1.478 . S
C763 H757 0.930 . S
C763 C759 1.400 . S
C763 C762 1.385 . S
C764 C762 1.478 . S
C764 C766 1.381 . S
C764 C770 1.383 . S
C765 C761 1.495 . S
C765 H771 0.959 . S
C765 H772 0.961 . S
C765 H773 0.960 . S
C766 C764 1.381 . S
C766 C767 1.394 . S
C766 H774 0.930 . S
C767 C766 1.394 . S
C767 C768 1.383 . S
C767 H775 0.929 . S
C768 C767 1.383 . S
C768 C769 1.377 . S
C769 H753 0.930 . S
C769 C768 1.377 . S
C769 C770 1.379 . S
C770 H754 0.931 . S
C770 C764 1.383 . S
C770 C769 1.379 . S
H771 C765 0.959 . S
H772 C765 0.961 . S
H773 C765 0.960 . S
H774 C766 0.930 . S
H775 C767 0.929 . S
H776 C784 0.929 . S
H777 C786 0.930 . S
H778 C788 0.930 . S
H779 C791 0.929 . S
H780 C794 0.930 . S
H781 C796 0.960 1_556 S
H782 C796 0.960 . S
H783 C796 0.960 . S
C784 H776 0.929 . S
C784 C785 1.377 . S
C784 C786 1.384 . S
C785 C784 1.377 . S
C785 C791 1.390 . S
C786 H777 0.930 . S
C786 C784 1.384 . S
C786 C787 1.372 . S
C787 C786 1.372 . S
C787 C788 1.400 . S
C787 C792 1.490 . S
C788 H778 0.930 . S
C788 C787 1.400 . S
C788 C791 1.386 . S
H789 C805 0.930 . S
H790 C806 0.931 1_554 S
C791 H779 0.929 . S
C791 C785 1.390 . S
C791 C788 1.386 . S
C792 C787 1.490 . S
C792 C794 1.395 . S
C792 C795 1.403 . S
H793 C799 0.930 1_556 S
C794 H780 0.930 . S
C794 C792 1.395 . S
C794 C797 1.403 . S
C795 C792 1.403 . S
C795 C796 1.524 . S
C795 C799 1.400 . S
C796 H781 0.960 1_554 S
C796 H782 0.960 . S
C796 H783 0.960 . S
C796 C795 1.524 . S
C797 C794 1.403 . S
C797 C798 1.392 . S
C797 C801 1.495 . S
C798 C797 1.392 . S
C798 C799 1.385 . S
C798 C800 1.478 1_554 S
C799 H793 0.930 1_554 S
C799 C795 1.400 . S
C799 C798 1.385 . S
C800 C798 1.478 1_556 S
C800 C802 1.381 . S
C800 C806 1.383 . S
C801 C797 1.495 . S
C801 H807 0.959 . S
C801 H808 0.961 . S
C801 H809 0.960 . S
C802 C800 1.381 . S
C802 C803 1.394 . S
C802 H810 0.930 . S
C803 C802 1.394 . S
C803 C804 1.383 . S
C803 H811 0.929 . S
C804 C803 1.383 . S
C804 C805 1.377 . S
C805 H789 0.930 . S
C805 C804 1.377 . S
C805 C806 1.379 . S
C806 H790 0.931 1_556 S
C806 C800 1.383 . S
C806 C805 1.379 . S
H807 C801 0.959 . S
H808 C801 0.961 . S
H809 C801 0.960 . S
H810 C802 0.930 . S
H811 C803 0.929 . S
H812 C820 0.929 . S
H813 C822 0.930 . S
H814 C824 0.930 . S
H815 C827 0.929 . S
H816 C830 0.930 . S
H817 C832 0.960 . S
H818 C832 0.960 . S
H819 C832 0.960 . S
C820 H812 0.929 . S
C820 C821 1.377 . S
C820 C822 1.384 . S
C821 C820 1.377 . S
C821 C827 1.390 . S
C822 H813 0.930 . S
C822 C820 1.384 . S
C822 C823 1.372 . S
C823 C822 1.372 . S
C823 C824 1.400 . S
C823 C828 1.490 . S
C824 H814 0.930 . S
C824 C823 1.400 . S
C824 C827 1.386 . S
H825 C841 0.930 . S
H826 C842 0.931 . S
C827 H815 0.929 . S
C827 C821 1.390 . S
C827 C824 1.386 . S
C828 C823 1.490 . S
C828 C830 1.395 . S
C828 C831 1.403 . S
H829 C835 0.930 . S
C830 H816 0.930 . S
C830 C828 1.395 . S
C830 C833 1.403 . S
C831 C828 1.403 . S
C831 C832 1.524 . S
C831 C835 1.400 . S
C832 H817 0.960 . S
C832 H818 0.960 . S
C832 H819 0.960 . S
C832 C831 1.524 . S
C833 C830 1.403 . S
C833 C834 1.392 . S
C833 C837 1.495 . S
C834 C833 1.392 . S
C834 C835 1.385 . S
C834 C836 1.478 . S
C835 H829 0.930 . S
C835 C831 1.400 . S
C835 C834 1.385 . S
C836 C834 1.478 . S
C836 C838 1.381 . S
C836 C842 1.383 . S
C837 C833 1.495 . S
C837 H843 0.959 . S
C837 H844 0.961 . S
C837 H845 0.960 . S
C838 C836 1.381 . S
C838 C839 1.394 . S
C838 H846 0.930 . S
C839 C838 1.394 . S
C839 C840 1.383 . S
C839 H847 0.929 . S
C840 C839 1.383 . S
C840 C841 1.377 . S
C841 H825 0.930 . S
C841 C840 1.377 . S
C841 C842 1.379 . S
C842 H826 0.931 . S
C842 C836 1.383 . S
C842 C841 1.379 . S
H843 C837 0.959 . S
H844 C837 0.961 . S
H845 C837 0.960 . S
H846 C838 0.930 . S
H847 C839 0.929 . S
H848 C856 0.929 . S
H849 C858 0.930 . S
H850 C860 0.930 . S
H851 C863 0.929 . S
H852 C866 0.930 . S
H853 C868 0.960 . S
H854 C868 0.960 . S
H855 C868 0.960 . S
C856 H848 0.929 . S
C856 C857 1.377 . S
C856 C858 1.384 . S
C857 C856 1.377 . S
C857 C863 1.390 . S
C858 H849 0.930 . S
C858 C856 1.384 . S
C858 C859 1.372 . S
C859 C858 1.372 . S
C859 C860 1.400 . S
C859 C864 1.490 . S
C860 H850 0.930 . S
C860 C859 1.400 . S
C860 C863 1.386 . S
H861 C877 0.930 . S
H862 C878 0.931 1_556 S
C863 H851 0.929 . S
C863 C857 1.390 . S
C863 C860 1.386 . S
C864 C859 1.490 . S
C864 C866 1.395 . S
C864 C867 1.403 . S
H865 C871 0.930 . S
C866 H852 0.930 . S
C866 C864 1.395 . S
C866 C869 1.403 . S
C867 C864 1.403 . S
C867 C868 1.524 . S
C867 C871 1.400 . S
C868 H853 0.960 . S
C868 H854 0.960 . S
C868 H855 0.960 . S
C868 C867 1.524 . S
C869 C866 1.403 . S
C869 C870 1.392 . S
C869 C873 1.495 1_556 S
C870 C869 1.392 . S
C870 C871 1.385 . S
C870 C872 1.478 1_556 S
C871 H865 0.930 . S
C871 C867 1.400 . S
C871 C870 1.385 . S
C872 C870 1.478 1_554 S
C872 C874 1.381 . S
C872 C878 1.383 . S
C873 C869 1.495 1_554 S
C873 H879 0.959 . S
C873 H880 0.961 . S
C873 H881 0.960 . S
C874 C872 1.381 . S
C874 C875 1.394 . S
C874 H882 0.930 . S
C875 C874 1.394 . S
C875 C876 1.383 . S
C875 H883 0.929 . S
C876 C875 1.383 . S
C876 C877 1.377 . S
C877 H861 0.930 . S
C877 C876 1.377 . S
C877 C878 1.379 . S
C878 H862 0.931 1_554 S
C878 C872 1.383 . S
C878 C877 1.379 . S
H879 C873 0.959 . S
H880 C873 0.961 . S
H881 C873 0.960 . S
H882 C874 0.930 . S
H883 C875 0.929 . S
H884 C892 0.929 . S
H885 C894 0.930 . S
H886 C896 0.930 . S
H887 C899 0.929 . S
H888 C902 0.930 . S
H889 C904 0.960 . S
H890 C904 0.960 . S
H891 C904 0.960 . S
C892 H884 0.929 . S
C892 C893 1.377 . S
C892 C894 1.384 . S
C893 C892 1.377 . S
C893 C899 1.390 . S
C894 H885 0.930 . S
C894 C892 1.384 . S
C894 C895 1.372 . S
C895 C894 1.372 . S
C895 C896 1.400 . S
C895 C900 1.490 . S
C896 H886 0.930 . S
C896 C895 1.400 . S
C896 C899 1.386 . S
H897 C913 0.930 . S
H898 C914 0.931 . S
C899 H887 0.929 . S
C899 C893 1.390 . S
C899 C896 1.386 . S
C900 C895 1.490 . S
C900 C902 1.395 . S
C900 C903 1.403 . S
H901 C907 0.930 . S
C902 H888 0.930 . S
C902 C900 1.395 . S
C902 C905 1.403 . S
C903 C900 1.403 . S
C903 C904 1.524 . S
C903 C907 1.400 . S
C904 H889 0.960 . S
C904 H890 0.960 . S
C904 H891 0.960 . S
C904 C903 1.524 . S
C905 C902 1.403 . S
C905 C906 1.392 . S
C905 C909 1.495 . S
C906 C905 1.392 . S
C906 C907 1.385 . S
C906 C908 1.478 . S
C907 H901 0.930 . S
C907 C903 1.400 . S
C907 C906 1.385 . S
C908 C906 1.478 . S
C908 C910 1.381 . S
C908 C914 1.383 . S
C909 C905 1.495 . S
C909 H915 0.959 . S
C909 H916 0.961 . S
C909 H917 0.960 . S
C910 C908 1.381 . S
C910 C911 1.394 . S
C910 H918 0.930 . S
C911 C910 1.394 . S
C911 C912 1.383 . S
C911 H919 0.929 . S
C912 C911 1.383 . S
C912 C913 1.377 . S
C913 H897 0.930 . S
C913 C912 1.377 . S
C913 C914 1.379 . S
C914 H898 0.931 . S
C914 C908 1.383 . S
C914 C913 1.379 . S
H915 C909 0.959 . S
H916 C909 0.961 . S
H917 C909 0.960 . S
H918 C910 0.930 . S
H919 C911 0.929 . S
H920 C928 0.929 . S
H921 C930 0.930 . S
H922 C932 0.930 . S
H923 C935 0.929 . S
H924 C938 0.930 1_556 S
H925 C940 0.960 . S
H926 C940 0.960 . S
H927 C940 0.960 . S
C928 H920 0.929 . S
C928 C929 1.377 . S
C928 C930 1.384 . S
C929 C928 1.377 . S
C929 C935 1.390 . S
C930 H921 0.930 . S
C930 C928 1.384 . S
C930 C931 1.372 . S
C931 C930 1.372 . S
C931 C932 1.400 1_556 S
C931 C936 1.490 1_556 S
C932 H922 0.930 . S
C932 C931 1.400 1_554 S
C932 C935 1.386 1_554 S
H933 C949 0.930 . S
H934 C950 0.931 . S
C935 H923 0.929 . S
C935 C929 1.390 . S
C935 C932 1.386 1_556 S
C936 C931 1.490 1_554 S
C936 C938 1.395 . S
C936 C939 1.403 . S
H937 C943 0.930 . S
C938 H924 0.930 1_554 S
C938 C936 1.395 . S
C938 C941 1.403 . S
C939 C936 1.403 . S
C939 C940 1.524 . S
C939 C943 1.400 . S
C940 H925 0.960 . S
C940 H926 0.960 . S
C940 H927 0.960 . S
C940 C939 1.524 . S
C941 C938 1.403 . S
C941 C942 1.392 . S
C941 C945 1.495 . S
C942 C941 1.392 . S
C942 C943 1.385 . S
C942 C944 1.478 . S
C943 H937 0.930 . S
C943 C939 1.400 . S
C943 C942 1.385 . S
C944 C942 1.478 . S
C944 C946 1.381 . S
C944 C950 1.383 . S
C945 C941 1.495 . S
C945 H951 0.959 1_554 S
C945 H952 0.961 . S
C945 H953 0.960 . S
C946 C944 1.381 . S
C946 C947 1.394 . S
C946 H954 0.930 . S
C947 C946 1.394 . S
C947 C948 1.383 . S
C947 H955 0.929 . S
C948 C947 1.383 . S
C948 C949 1.377 . S
C949 H933 0.930 . S
C949 C948 1.377 . S
C949 C950 1.379 . S
C950 H934 0.931 . S
C950 C944 1.383 . S
C950 C949 1.379 . S
H951 C945 0.959 1_556 S
H952 C945 0.961 . S
H953 C945 0.960 . S
H954 C946 0.930 . S
H955 C947 0.929 . S
H956 C964 0.929 . S
H957 C966 0.930 . S
H958 C968 0.930 . S
H959 C971 0.929 . S
H960 C974 0.930 . S
H961 C976 0.960 . S
H962 C976 0.960 . S
H963 C976 0.960 . S
C964 H956 0.929 . S
C964 C965 1.377 . S
C964 C966 1.384 . S
C965 C964 1.377 . S
C965 C971 1.390 . S
C966 H957 0.930 . S
C966 C964 1.384 . S
C966 C967 1.372 . S
C967 C966 1.372 . S
C967 C968 1.400 . S
C967 C972 1.490 . S
C968 H958 0.930 . S
C968 C967 1.400 . S
C968 C971 1.386 . S
H969 C985 0.930 . S
H970 C986 0.931 . S
C971 H959 0.929 . S
C971 C965 1.390 . S
C971 C968 1.386 . S
C972 C967 1.490 . S
C972 C974 1.395 . S
C972 C975 1.403 . S
H973 C979 0.930 . S
C974 H960 0.930 . S
C974 C972 1.395 . S
C974 C977 1.403 . S
C975 C972 1.403 . S
C975 C976 1.524 . S
C975 C979 1.400 . S
C976 H961 0.960 . S
C976 H962 0.960 . S
C976 H963 0.960 . S
C976 C975 1.524 . S
C977 C974 1.403 . S
C977 C978 1.392 . S
C977 C981 1.495 . S
C978 C977 1.392 . S
C978 C979 1.385 . S
C978 C980 1.478 . S
C979 H973 0.930 . S
C979 C975 1.400 . S
C979 C978 1.385 . S
C980 C978 1.478 . S
C980 C982 1.381 . S
C980 C986 1.383 . S
C981 C977 1.495 . S
C981 H987 0.959 . S
C981 H988 0.961 . S
C981 H989 0.960 . S
C982 C980 1.381 . S
C982 C983 1.394 . S
C982 H990 0.930 . S
C983 C982 1.394 . S
C983 C984 1.383 . S
C983 H991 0.929 . S
C984 C983 1.383 . S
C984 C985 1.377 . S
C985 H969 0.930 . S
C985 C984 1.377 . S
C985 C986 1.379 . S
C986 H970 0.931 . S
C986 C980 1.383 . S
C986 C985 1.379 . S
H987 C981 0.959 . S
H988 C981 0.961 . S
H989 C981 0.960 . S
H990 C982 0.930 . S
H991 C983 0.929 . S
C281 C33 1.524 . S
C300 C135 1.516 . S
C317 C67 1.524 . S
C336 C101 1.526 . S
C353 C271 1.523 . S
C372 C169 1.520 . S
C389 C203 1.524 . S
C408 C237 1.516 . S
C425 C70 2.053 . S
C444 C2 2.046 . S
C461 C104 2.054 . S
C480 C36 2.047 . S
C497 C39 1.344 . S
C516 C107 1.346 . S
C533 C5 1.339 . S
C552 C73 1.351 . S
C569 C206 2.054 . S
C588 C138 2.045 . S
C605 C172 2.055 . S
C624 C240 2.054 . S
C641 C175 1.340 . S
C660 C243 1.328 . S
C677 C209 1.339 . S
C696 C141 1.335 . S
C713 C9 1.284 . S
C732 C190 1.319 . S
C749 C43 1.281 . S
C768 C156 1.317 . S
C785 C258 1.321 . S
C804 C77 1.278 . S
C821 C111 1.290 . S
C840 C224 1.320 . S
C857 C54 1.321 . S
C876 C145 1.271 . S
C893 C179 1.291 . S
C912 C20 1.321 . S
C929 C213 1.280 . S
C948 C122 1.316 . S
C965 C247 1.288 . S
C984 C88 1.319 . S
