# Generated by pormake.
# Topology wim, (6)-cn, num edge types: 1
# Building blocks:
#     Node 0, Type 0, BuildingBlock: IZENUY_clean_sbu_0, # of connection points: 6
#     Node 1, Type 0, BuildingBlock: IZENUY_clean_sbu_0, # of connection points: 6
#     Node 2, Type 0, BuildingBlock: IZENUY_clean_sbu_0, # of connection points: 6
#     Node 3, Type 0, BuildingBlock: IZENUY_clean_sbu_0, # of connection points: 6
#     Node 4, Type 0, BuildingBlock: IZENUY_clean_sbu_0, # of connection points: 6
#     Node 5, Type 0, BuildingBlock: IZENUY_clean_sbu_0, # of connection points: 6
#     Node 6, Type 0, BuildingBlock: IZENUY_clean_sbu_0, # of connection points: 6
#     Node 7, Type 0, BuildingBlock: IZENUY_clean_sbu_0, # of connection points: 6
#     Node 8, Type 0, BuildingBlock: IZENUY_clean_sbu_0, # of connection points: 6
#     Node 9, Type 0, BuildingBlock: IZENUY_clean_sbu_0, # of connection points: 6
#     Node 10, Type 0, BuildingBlock: IZENUY_clean_sbu_0, # of connection points: 6
#     Node 11, Type 0, BuildingBlock: IZENUY_clean_sbu_0, # of connection points: 6
#     Node 12, Type 0, BuildingBlock: IZENUY_clean_sbu_0, # of connection points: 6
#     Node 13, Type 0, BuildingBlock: IZENUY_clean_sbu_0, # of connection points: 6
#     Node 14, Type 0, BuildingBlock: IZENUY_clean_sbu_0, # of connection points: 6
#     Node 15, Type 0, BuildingBlock: IZENUY_clean_sbu_0, # of connection points: 6
#     Node 16, Type 0, BuildingBlock: IZENUY_clean_sbu_0, # of connection points: 6
#     Node 17, Type 0, BuildingBlock: IZENUY_clean_sbu_0, # of connection points: 6
#     Node 18, Type 0, BuildingBlock: IZENUY_clean_sbu_0, # of connection points: 6
#     Node 19, Type 0, BuildingBlock: IZENUY_clean_sbu_0, # of connection points: 6
#     Node 20, Type 0, BuildingBlock: IZENUY_clean_sbu_0, # of connection points: 6
#     Node 21, Type 0, BuildingBlock: IZENUY_clean_sbu_0, # of connection points: 6
#     Node 22, Type 0, BuildingBlock: IZENUY_clean_sbu_0, # of connection points: 6
#     Node 23, Type 0, BuildingBlock: IZENUY_clean_sbu_0, # of connection points: 6
#     Node 24, Type 0, BuildingBlock: IZENUY_clean_sbu_0, # of connection points: 6
#     Node 25, Type 0, BuildingBlock: IZENUY_clean_sbu_0, # of connection points: 6
#     Node 26, Type 0, BuildingBlock: IZENUY_clean_sbu_0, # of connection points: 6
#     Node 27, Type 0, BuildingBlock: IZENUY_clean_sbu_0, # of connection points: 6
#     Node 28, Type 0, BuildingBlock: IZENUY_clean_sbu_0, # of connection points: 6
#     Node 29, Type 0, BuildingBlock: IZENUY_clean_sbu_0, # of connection points: 6
#     Node 30, Type 0, BuildingBlock: IZENUY_clean_sbu_0, # of connection points: 6
#     Node 31, Type 0, BuildingBlock: IZENUY_clean_sbu_0, # of connection points: 6
#     Edge 32, Type (0, 0), None
#     Edge 33, Type (0, 0), None
#     Edge 34, Type (0, 0), None
#     Edge 35, Type (0, 0), None
#     Edge 36, Type (0, 0), None
#     Edge 37, Type (0, 0), None
#     Edge 38, Type (0, 0), None
#     Edge 39, Type (0, 0), None
#     Edge 40, Type (0, 0), None
#     Edge 41, Type (0, 0), None
#     Edge 42, Type (0, 0), None
#     Edge 43, Type (0, 0), None
#     Edge 44, Type (0, 0), None
#     Edge 45, Type (0, 0), None
#     Edge 46, Type (0, 0), None
#     Edge 47, Type (0, 0), None
#     Edge 48, Type (0, 0), None
#     Edge 49, Type (0, 0), None
#     Edge 50, Type (0, 0), None
#     Edge 51, Type (0, 0), None
#     Edge 52, Type (0, 0), None
#     Edge 53, Type (0, 0), None
#     Edge 54, Type (0, 0), None
#     Edge 55, Type (0, 0), None
#     Edge 56, Type (0, 0), None
#     Edge 57, Type (0, 0), None
#     Edge 58, Type (0, 0), None
#     Edge 59, Type (0, 0), None
#     Edge 60, Type (0, 0), None
#     Edge 61, Type (0, 0), None
#     Edge 62, Type (0, 0), None
#     Edge 63, Type (0, 0), None
#     Edge 64, Type (0, 0), None
#     Edge 65, Type (0, 0), None
#     Edge 66, Type (0, 0), None
#     Edge 67, Type (0, 0), None
#     Edge 68, Type (0, 0), None
#     Edge 69, Type (0, 0), None
#     Edge 70, Type (0, 0), None
#     Edge 71, Type (0, 0), None
#     Edge 72, Type (0, 0), None
#     Edge 73, Type (0, 0), None
#     Edge 74, Type (0, 0), None
#     Edge 75, Type (0, 0), None
#     Edge 76, Type (0, 0), None
#     Edge 77, Type (0, 0), None
#     Edge 78, Type (0, 0), None
#     Edge 79, Type (0, 0), None
#     Edge 80, Type (0, 0), None
#     Edge 81, Type (0, 0), None
#     Edge 82, Type (0, 0), None
#     Edge 83, Type (0, 0), None
#     Edge 84, Type (0, 0), None
#     Edge 85, Type (0, 0), None
#     Edge 86, Type (0, 0), None
#     Edge 87, Type (0, 0), None
#     Edge 88, Type (0, 0), None
#     Edge 89, Type (0, 0), None
#     Edge 90, Type (0, 0), None
#     Edge 91, Type (0, 0), None
#     Edge 92, Type (0, 0), None
#     Edge 93, Type (0, 0), None
#     Edge 94, Type (0, 0), None
#     Edge 95, Type (0, 0), None
#     Edge 96, Type (0, 0), None
#     Edge 97, Type (0, 0), None
#     Edge 98, Type (0, 0), None
#     Edge 99, Type (0, 0), None
#     Edge 100, Type (0, 0), None
#     Edge 101, Type (0, 0), None
#     Edge 102, Type (0, 0), None
#     Edge 103, Type (0, 0), None
#     Edge 104, Type (0, 0), None
#     Edge 105, Type (0, 0), None
#     Edge 106, Type (0, 0), None
#     Edge 107, Type (0, 0), None
#     Edge 108, Type (0, 0), None
#     Edge 109, Type (0, 0), None
#     Edge 110, Type (0, 0), None
#     Edge 111, Type (0, 0), None
#     Edge 112, Type (0, 0), None
#     Edge 113, Type (0, 0), None
#     Edge 114, Type (0, 0), None
#     Edge 115, Type (0, 0), None
#     Edge 116, Type (0, 0), None
#     Edge 117, Type (0, 0), None
#     Edge 118, Type (0, 0), None
#     Edge 119, Type (0, 0), None
#     Edge 120, Type (0, 0), None
#     Edge 121, Type (0, 0), None
#     Edge 122, Type (0, 0), None
#     Edge 123, Type (0, 0), None
#     Edge 124, Type (0, 0), None
#     Edge 125, Type (0, 0), None
#     Edge 126, Type (0, 0), None
#     Edge 127, Type (0, 0), None
# Relax obj value: 0.278
# Max RMSD: 0.228
# Mean RMSD: 0.228
data_MOF--net-wim--node1-IZENUY_clean_sbu_0--edge1-none
_symmetry_space_group_name_H-M    P1
_symmetry_Int_Tables_number       1
_symmetry_cell_setting            triclinic
loop_
_symmetry_equiv_pos_as_xyz
'x, y, z'
_cell_length_a     33.418764
_cell_length_b     33.418763
_cell_length_c     13.082012
_cell_angle_alpha  89.999975
_cell_angle_beta   90.000369
_cell_angle_gamma 90.0
loop_
_atom_site_label
_atom_site_type_symbol
_atom_site_fract_x
_atom_site_fract_y
_atom_site_fract_z
_atom_type_partial_charge
Fe0 Fe 0.0535 0.1767 0.2555 0.0
Fe1 Fe 1.01612 0.10254 0.34918 0.0
O2 O 0.05855 0.13333 0.32937 0.0
Fe3 Fe 0.10574 0.11965 0.38213 0.0
O4 O 0.10934 0.16561 0.45492 0.0
O5 O 0.0901 0.20583 0.33025 0.0
O6 O 1.01579 0.19706 0.34097 0.0
C7 C 0.98322 0.1797 0.35964 0.0
C8 C 0.12688 0.15367 0.18964 0.0
O9 O 0.97881 0.14297 0.33954 0.0
C10 C 0.07707 0.04771 0.31553 0.0
O11 O 1.01629 0.15459 0.16822 0.0
O12 O 1.01237 0.09126 0.21374 0.0
O13 O 0.13619 0.14249 0.27906 0.0
O14 O 0.0907 0.15844 0.16669 0.0
C15 C 0.0497 0.10731 0.53816 0.0
O16 O 0.04535 0.05671 0.36268 0.0
O17 O 0.1054 0.07262 0.30976 0.0
C18 C 1.01028 0.11805 0.14621 0.0
O19 O 1.019 0.1132 0.48406 0.0
O20 O 0.08287 0.09713 0.49781 0.0
C21 C 0.1058 0.20023 0.41744 0.0
Fe22 Fe 0.18781 0.85575 0.63213 0.0
Fe23 Fe 0.13077 0.80351 0.50551 0.0
O24 O 0.17413 0.80855 0.57937 0.0
Fe25 Fe 0.20493 0.76612 0.59919 0.0
O26 O 0.19427 0.769 0.73407 0.0
O27 O 0.21034 0.83288 0.74782 0.0
O28 O 0.14185 0.85934 0.70492 0.0
C29 C 0.10723 0.8558 0.66745 0.0
C30 C 0.25975 0.82708 0.56554 0.0
O31 O 0.10163 0.8401 0.58025 0.0
C32 C 0.18941 0.76029 0.39622 0.0
O33 O 0.16497 0.88619 0.52906 0.0
O34 O 0.14902 0.8407 0.41669 0.0
O35 O 0.25076 0.79536 0.61269 0.0
O36 O 0.23484 0.8554 0.55977 0.0
C37 C 0.12776 0.73323 0.60964 0.0
O38 O 0.15288 0.76629 0.41823 0.0
O39 O 0.2162 0.76237 0.46375 0.0
C40 C 0.1538 0.87688 0.43964 0.0
O41 O 0.11041 0.76579 0.59098 0.0
O42 O 0.16449 0.72881 0.58955 0.0
C43 C 0.20015 0.79971 0.78817 0.0
Fe44 Fe 0.54134 0.95492 0.84918 0.0
Fe45 Fe 0.45171 0.93781 0.88212 0.0
O46 O 0.4989 0.92413 0.82937 0.0
Fe47 Fe 0.50395 0.88076 0.7555 0.0
O48 O 0.54167 0.8604 0.84098 0.0
O49 O 0.57865 0.91449 0.83954 0.0
O50 O 0.53846 0.94426 0.98406 0.0
C51 C 0.50775 0.95015 0.03816 0.0
C52 C 0.54717 0.93941 0.64621 0.0
O53 O 0.47458 0.96033 0.99781 0.0
C54 C 0.43058 0.90379 0.68963 0.0
O55 O 0.5121 1.00075 0.86268 0.0
O56 O 0.45206 0.98484 0.80976 0.0
O57 O 0.54117 0.90287 0.66823 0.0
O58 O 0.54509 0.9662 0.71374 0.0
C59 C 0.45166 0.85723 0.91744 0.0
O60 O 0.42127 0.91497 0.77905 0.0
O61 O 0.46676 0.89902 0.66668 0.0
C62 C 0.48039 1.00975 0.81553 0.0
O63 O 0.44812 0.89185 0.95491 0.0
O64 O 0.46736 0.85163 0.83025 0.0
C65 C 0.57423 0.87776 0.85964 0.0
Fe66 Fe 0.4267 0.25395 1.0055 0.0
Fe67 Fe 0.35254 0.29134 0.09918 0.0
O68 O 0.38333 0.24891 0.07937 0.0
Fe69 Fe 0.36965 0.20171 0.13212 0.0
O70 O 0.41561 0.19812 0.20491 0.0
O71 O 0.45583 0.21736 0.08025 0.0
O72 O 0.44706 0.29167 0.09097 0.0
C73 C 0.4297 0.32423 0.10963 0.0
C74 C 0.40367 0.18058 0.93964 0.0
O75 O 0.39297 0.32865 0.08954 0.0
C76 C 0.29771 0.23039 0.06553 0.0
O77 O 0.40459 0.29117 0.91822 0.0
O78 O 0.34126 0.29509 0.96374 0.0
O79 O 0.39249 0.17127 1.02906 0.0
O80 O 0.40844 0.21676 0.91668 0.0
C81 C 0.35731 0.25775 0.28816 0.0
O82 O 0.30671 0.2621 0.11268 0.0
O83 O 0.32262 0.20206 0.05976 0.0
C84 C 0.36805 0.29717 0.89621 0.0
O85 O 0.3632 0.28846 0.23406 0.0
O86 O 0.34713 0.22458 0.24781 0.0
C87 C 0.45023 0.20166 0.16744 0.0
Fe88 Fe 0.10575 0.93781 0.19249 0.0
Fe89 Fe 0.05349 0.88076 0.3191 0.0
O90 O 0.05855 0.92413 0.24525 0.0
Fe91 Fe 1.01612 0.95492 0.22542 0.0
O92 O 1.019 0.94427 0.09055 0.0
O93 O 0.08288 0.96033 0.07679 0.0
O94 O 0.10934 0.89185 0.11972 0.0
C95 C 0.10581 0.85723 0.1572 0.0
C96 C 0.07707 1.00975 0.25907 0.0
O97 O 0.0901 0.85163 0.24439 0.0
C98 C 1.01028 0.93941 0.42839 0.0
O99 O 0.13618 0.91497 0.29558 0.0
O100 O 0.09068 0.89901 0.40796 0.0
O101 O 0.04535 1.00076 0.21193 0.0
O102 O 0.1054 0.98484 0.26484 0.0
C103 C 0.98323 0.87776 0.21493 0.0
O104 O 1.01627 0.90287 0.40636 0.0
O105 O 1.01237 0.9662 0.36086 0.0
C106 C 0.12685 0.90384 0.38501 0.0
O107 O 1.01579 0.86041 0.2336 0.0
O108 O 0.97881 0.91449 0.23505 0.0
C109 C 0.04971 0.95015 1.03645 0.0
Fe110 Fe 0.35253 0.76612 0.47542 0.0
Fe111 Fe 0.36965 0.85575 0.44248 0.0
O112 O 0.38333 0.80855 0.49524 0.0
Fe113 Fe 0.42669 0.80349 0.5691 0.0
O114 O 0.44705 0.76579 0.4836 0.0
O115 O 0.39297 0.72881 0.48505 0.0
O116 O 0.36319 0.769 0.34054 0.0
C117 C 0.35731 0.7997 0.28644 0.0
C118 C 0.36805 0.76028 0.67839 0.0
O119 O 0.34713 0.83288 0.32678 0.0
C120 C 0.40362 0.87685 0.635 0.0
O121 O 0.3067 0.79535 0.46192 0.0
O122 O 0.32262 0.8554 0.51483 0.0
O123 O 0.40458 0.76627 0.65636 0.0
O124 O 0.34125 0.76237 0.61086 0.0
C125 C 0.45023 0.8558 0.40719 0.0
O126 O 0.39249 0.88618 0.54557 0.0
O127 O 0.40844 0.84067 0.65795 0.0
C128 C 0.29771 0.82708 0.50906 0.0
O129 O 0.41561 0.85934 0.36971 0.0
O130 O 0.45583 0.8401 0.49439 0.0
C131 C 0.42969 0.73323 0.46493 0.0
Fe132 Fe 0.54135 0.10254 0.72543 0.0
Fe133 Fe 0.45172 0.11965 0.69249 0.0
O134 O 0.49891 0.13333 0.74524 0.0
Fe135 Fe 0.50397 0.1767 0.8191 0.0
O136 O 0.54167 0.19705 0.7336 0.0
O137 O 0.57865 0.14297 0.73505 0.0
O138 O 0.53846 0.11319 0.59055 0.0
C139 C 0.50776 0.10731 0.53645 0.0
C140 C 0.54718 0.11805 0.92839 0.0
O141 O 0.47458 0.09713 0.57679 0.0
C142 C 0.43061 0.15362 0.885 0.0
O143 O 0.51211 0.0567 0.71193 0.0
O144 O 0.45206 0.07262 0.76484 0.0
O145 O 0.5412 0.15459 0.90636 0.0
O146 O 0.54509 0.09126 0.86087 0.0
C147 C 0.45166 0.20023 0.6572 0.0
O148 O 0.42128 0.14249 0.79557 0.0
O149 O 0.46679 0.15845 0.90796 0.0
C150 C 0.48039 0.04771 0.75906 0.0
O151 O 0.44812 0.16561 0.61971 0.0
O152 O 0.46736 0.20583 0.74439 0.0
C153 C 0.57423 0.1797 0.71493 0.0
Fe154 Fe 0.20492 0.29134 0.97543 0.0
Fe155 Fe 0.18781 0.20171 0.94249 0.0
O156 O 0.17413 0.24891 0.99525 0.0
Fe157 Fe 0.13076 0.25397 0.06911 0.0
O158 O 0.11041 0.29167 0.9836 0.0
O159 O 0.16449 0.32865 0.98506 0.0
O160 O 0.19427 0.28846 0.84055 0.0
C161 C 0.20015 0.25776 0.78645 0.0
C162 C 0.18941 0.29718 0.17839 0.0
O163 O 0.21033 0.22458 0.82679 0.0
C164 C 0.15384 0.18061 0.13501 0.0
O165 O 0.25076 0.26211 0.96193 0.0
O166 O 0.23484 0.20206 1.01484 0.0
O167 O 0.15287 0.29119 0.15636 0.0
O168 O 0.2162 0.29509 0.11087 0.0
C169 C 0.10723 0.20166 0.9072 0.0
O170 O 0.16497 0.17128 0.04558 0.0
O171 O 0.14901 0.21678 0.15796 0.0
C172 C 0.25975 0.23039 1.00907 0.0
O173 O 0.14184 0.19812 0.86972 0.0
O174 O 0.10163 0.21736 0.99439 0.0
C175 C 0.12776 0.32423 0.96493 0.0
Fe176 Fe 0.95171 0.93781 0.69246 0.0
Fe177 Fe 0.04134 0.95492 0.72543 0.0
O178 O 0.9989 0.92413 0.74523 0.0
Fe179 Fe 1.00395 0.88076 0.81908 0.0
O180 O 0.96735 0.85163 0.74432 0.0
O181 O 0.94812 0.89185 0.61966 0.0
O182 O 0.97458 0.96034 0.57679 0.0
C183 C 1.00776 0.95016 0.53645 0.0
C184 C 0.93057 0.9038 0.88494 0.0
O185 O 0.03846 0.94426 0.59055 0.0
C186 C 0.04717 0.9394 0.92839 0.0
O187 O 0.95206 0.98484 0.76483 0.0
O188 O 1.01211 1.00075 0.71193 0.0
O189 O 0.96674 0.899 0.90789 0.0
O190 O 0.92126 0.91497 0.79551 0.0
C191 C 0.07423 0.87776 0.71495 0.0
O192 O 0.04508 0.96619 0.86087 0.0
O193 O 0.04116 0.90286 0.90638 0.0
C194 C 0.98039 1.00974 0.75908 0.0
O195 O 0.07864 0.91449 0.73507 0.0
O196 O 0.04166 0.8604 0.73361 0.0
C197 C 0.95165 0.85724 0.65713 0.0
Fe198 Fe 0.9267 0.25395 0.56908 0.0
Fe199 Fe 0.86965 0.20171 0.44245 0.0
O200 O 0.88333 0.2489 0.49522 0.0
Fe201 Fe 0.85254 0.29134 0.47542 0.0
O202 O 0.89297 0.32864 0.48505 0.0
O203 O 0.94706 0.29166 0.48361 0.0
O204 O 0.95583 0.21735 0.49432 0.0
C205 C 0.95022 0.20167 0.40711 0.0
C206 C 0.86806 0.29717 0.67839 0.0
O207 O 0.9156 0.19812 0.36966 0.0
C208 C 0.79771 0.23039 0.50908 0.0
O209 O 0.90845 0.21674 0.65789 0.0
O210 O 0.89249 0.17127 0.5455 0.0
O211 O 0.84126 0.29509 0.61086 0.0
O212 O 0.90459 0.29116 0.65638 0.0
C213 C 0.85731 0.25775 0.28644 0.0
O214 O 0.82262 0.20206 0.51483 0.0
O215 O 0.80671 0.26211 0.46192 0.0
C216 C 0.90366 0.18057 0.63493 0.0
O217 O 0.84711 0.22459 0.32679 0.0
O218 O 0.8632 0.28846 0.34053 0.0
C219 C 0.9297 0.32423 0.46494 0.0
Fe220 Fe 0.60575 0.11965 0.19247 0.0
Fe221 Fe 0.51612 0.10254 0.22543 0.0
O222 O 0.55856 0.13333 0.24523 0.0
Fe223 Fe 0.55352 0.1767 0.31908 0.0
O224 O 0.59011 0.20583 0.24432 0.0
O225 O 0.60935 0.1656 0.11967 0.0
O226 O 0.58288 0.09712 0.07679 0.0
C227 C 0.54971 0.1073 1.03645 0.0
C228 C 0.62689 0.15366 0.38495 0.0
O229 O 0.51901 0.1132 0.09055 0.0
C230 C 0.51029 0.11806 0.42839 0.0
O231 O 0.6054 0.07262 0.26484 0.0
O232 O 0.54536 0.05671 0.21193 0.0
O233 O 0.59072 0.15846 0.4079 0.0
O234 O 0.6362 0.14249 0.29552 0.0
C235 C 0.48323 0.1797 0.21495 0.0
O236 O 0.51238 0.09127 0.36087 0.0
O237 O 0.5163 0.1546 0.40638 0.0
C238 C 0.57707 0.04771 0.25909 0.0
O239 O 0.47882 0.14297 0.23507 0.0
O240 O 0.5158 0.19706 0.2336 0.0
C241 C 0.60581 0.20022 0.15713 0.0
Fe242 Fe 0.63076 0.80351 0.06908 0.0
Fe243 Fe 0.68781 0.85575 0.94246 0.0
O244 O 0.67413 0.80856 0.99523 0.0
Fe245 Fe 0.70492 0.76612 0.97542 0.0
O246 O 0.66448 0.72882 0.98506 0.0
O247 O 0.6104 0.7658 0.98362 0.0
O248 O 0.60163 0.84011 0.99433 0.0
C249 C 0.60724 0.85579 0.90712 0.0
C250 C 0.6894 0.76029 0.1784 0.0
O251 O 0.64186 0.85934 0.86966 0.0
C252 C 0.75974 0.82707 1.00909 0.0
O253 O 0.64901 0.84072 0.1579 0.0
O254 O 0.66497 0.88619 0.04551 0.0
O255 O 0.71619 0.76237 0.11087 0.0
O256 O 0.65287 0.7663 0.15638 0.0
C257 C 0.70015 0.79971 0.78645 0.0
O258 O 0.73484 0.8554 1.01484 0.0
O259 O 0.75075 0.79535 0.96193 0.0
C260 C 0.6538 0.87689 0.13494 0.0
O261 O 0.71034 0.83287 0.82679 0.0
O262 O 0.69426 0.769 0.84054 0.0
C263 C 0.62775 0.73323 0.96495 0.0
Fe264 Fe 0.04134 0.10254 0.84918 0.0
Fe265 Fe 1.00395 0.1767 0.75552 0.0
O266 O 0.9989 0.13333 0.82937 0.0
Fe267 Fe 0.95171 0.11965 0.88213 0.0
O268 O 0.97458 0.09712 0.99782 0.0
O269 O 0.03846 0.11319 0.98406 0.0
O270 O 0.07864 0.14297 0.83955 0.0
C271 C 0.07423 0.1797 0.8597 0.0
C272 C 0.98039 0.04771 0.81553 0.0
O273 O 0.04166 0.19705 0.84104 0.0
C274 C 0.9306 0.15362 0.68962 0.0
O275 O 0.04508 0.09126 0.71373 0.0
O276 O 0.04118 0.1546 0.66825 0.0
O277 O 0.95206 0.07261 0.80977 0.0
O278 O 1.01211 0.05671 0.86267 0.0
C279 C 0.95165 0.20022 0.91744 0.0
O280 O 0.96677 0.15846 0.66667 0.0
O281 O 0.92127 0.14248 0.77906 0.0
C282 C 0.04718 0.11806 0.64622 0.0
O283 O 0.96735 0.20583 0.83025 0.0
O284 O 0.94811 0.16561 0.95491 0.0
C285 C 1.00775 0.1073 0.03816 0.0
Fe286 Fe 0.68781 0.20171 0.63214 0.0
Fe287 Fe 0.70492 0.29134 0.59919 0.0
O288 O 0.67413 0.2489 0.57938 0.0
Fe289 Fe 0.63076 0.25396 0.50552 0.0
O290 O 0.60163 0.21736 0.58025 0.0
O291 O 0.64186 0.19812 0.70493 0.0
O292 O 0.71034 0.22459 0.74782 0.0
C293 C 0.70016 0.25776 0.78817 0.0
C294 C 0.65385 0.1806 0.43963 0.0
O295 O 0.69427 0.28846 0.73407 0.0
C296 C 0.6894 0.29717 0.39622 0.0
O297 O 0.73485 0.20206 0.55978 0.0
O298 O 0.75076 0.26211 0.61268 0.0
O299 O 0.649 0.21677 0.41667 0.0
O300 O 0.66498 0.17127 0.52907 0.0
C301 C 0.62776 0.32423 0.6097 0.0
O302 O 0.7162 0.29509 0.46375 0.0
O303 O 0.65287 0.29118 0.41825 0.0
C304 C 0.75975 0.23039 0.56553 0.0
O305 O 0.66449 0.32865 0.58957 0.0
O306 O 0.61041 0.29166 0.59103 0.0
C307 C 0.60724 0.20167 0.66746 0.0
Fe308 Fe 0.60575 0.93781 0.38214 0.0
Fe309 Fe 0.51612 0.95492 0.34918 0.0
O310 O 0.55856 0.92413 0.32937 0.0
Fe311 Fe 0.5535 0.88076 0.25552 0.0
O312 O 0.5901 0.85163 0.33026 0.0
O313 O 0.60934 0.89185 0.45492 0.0
O314 O 0.58288 0.96034 0.49782 0.0
C315 C 0.5497 0.95016 0.53816 0.0
C316 C 0.62686 0.90384 0.18963 0.0
O317 O 0.519 0.94427 0.48405 0.0
C318 C 0.51028 0.9394 0.14622 0.0
O319 O 0.6054 0.98485 0.30978 0.0
O320 O 0.54535 1.00075 0.36267 0.0
O321 O 0.59069 0.899 0.16667 0.0
O322 O 0.63619 0.91498 0.27906 0.0
C323 C 0.48323 0.87776 0.35969 0.0
O324 O 0.51237 0.9662 0.21373 0.0
O325 O 0.51628 0.90286 0.16824 0.0
C326 C 0.57707 1.00975 0.31553 0.0
O327 O 0.47882 0.91449 0.33955 0.0
O328 O 0.5158 0.86041 0.34103 0.0
C329 C 0.60581 0.85724 0.41744 0.0
Fe330 Fe 0.85254 0.76611 0.09918 0.0
Fe331 Fe 0.9267 0.8035 1.00552 0.0
O332 O 0.88333 0.80855 0.07937 0.0
Fe333 Fe 0.86965 0.85575 0.13213 0.0
O334 O 0.84712 0.83287 0.24781 0.0
O335 O 0.8632 0.769 0.23406 0.0
O336 O 0.89298 0.72881 0.08956 0.0
C337 C 0.9297 0.73323 0.1097 0.0
C338 C 0.79771 0.82707 0.06553 0.0
O339 O 0.94706 0.7658 0.09102 0.0
C340 C 0.90362 0.87686 0.93962 0.0
O341 O 0.84127 0.76237 0.96374 0.0
O342 O 0.9046 0.76628 0.91824 0.0
O343 O 0.82261 0.8554 0.05977 0.0
O344 O 0.80671 0.79535 0.11267 0.0
C345 C 0.95022 0.8558 0.16745 0.0
O346 O 0.90846 0.84069 0.91667 0.0
O347 O 0.89248 0.88619 1.02906 0.0
C348 C 0.86806 0.76029 0.89621 0.0
O349 O 0.95583 0.84011 0.08025 0.0
O350 O 0.91561 0.85934 0.20492 0.0
C351 C 0.85731 0.7997 0.28816 0.0
Fe352 Fe 0.55351 0.6767 0.75551 0.0
Fe353 Fe 0.51612 0.60254 0.84919 0.0
O354 O 0.55855 0.63333 0.82938 0.0
Fe355 Fe 0.60575 0.61965 0.88214 0.0
O356 O 0.60934 0.66561 0.95493 0.0
O357 O 0.5901 0.70583 0.83025 0.0
O358 O 0.51579 0.69705 0.84097 0.0
C359 C 0.48323 0.6797 0.85964 0.0
C360 C 0.62688 0.65366 0.68965 0.0
O361 O 0.47881 0.64297 0.83955 0.0
C362 C 0.57708 0.54771 0.81554 0.0
O363 O 0.51629 0.65458 0.66823 0.0
O364 O 0.51237 0.59126 0.71375 0.0
O365 O 0.63619 0.64249 0.77907 0.0
O366 O 0.5907 0.65843 0.66669 0.0
C367 C 0.54971 0.60731 0.03817 0.0
O368 O 0.54536 0.5567 0.86268 0.0
O369 O 0.6054 0.57262 0.80977 0.0
C370 C 0.51028 0.61805 0.64621 0.0
O371 O 0.519 0.6132 0.98406 0.0
O372 O 0.58288 0.59712 0.99782 0.0
C373 C 0.60579 0.70023 0.91746 0.0
Fe374 Fe 0.68781 0.35575 0.13213 0.0
Fe375 Fe 0.63076 0.30351 1.00551 0.0
O376 O 0.67413 0.30856 0.07937 0.0
Fe377 Fe 0.70493 0.26612 0.09918 0.0
O378 O 0.69427 0.26901 0.23406 0.0
O379 O 0.71033 0.33288 0.24782 0.0
O380 O 0.64185 0.35934 0.20492 0.0
C381 C 0.60723 0.3558 0.16745 0.0
C382 C 0.75975 0.32708 0.06554 0.0
O383 O 0.60163 0.3401 0.08026 0.0
C384 C 0.68941 0.26028 0.89622 0.0
O385 O 0.66497 0.38619 1.02906 0.0
O386 O 0.64902 0.3407 0.91669 0.0
O387 O 0.75076 0.29536 0.11268 0.0
O388 O 0.73484 0.35541 0.05977 0.0
C389 C 0.62777 0.23323 0.10964 0.0
O390 O 0.65287 0.26629 0.91823 0.0
O391 O 0.71621 0.26238 0.96374 0.0
C392 C 0.65379 0.37688 0.93964 0.0
O393 O 0.61041 0.26579 0.09099 0.0
O394 O 0.6645 0.22882 0.08954 0.0
C395 C 0.70016 0.29971 0.28816 0.0
Fe396 Fe 0.04134 0.45492 0.34919 0.0
Fe397 Fe 0.95171 0.43781 0.38213 0.0
O398 O 0.9989 0.42413 0.32937 0.0
Fe399 Fe 1.00395 0.38076 0.25551 0.0
O400 O 0.04167 0.36041 0.34097 0.0
O401 O 0.07864 0.41449 0.33955 0.0
O402 O 0.03845 0.44426 0.48406 0.0
C403 C 1.00775 0.45015 0.53816 0.0
C404 C 0.04717 0.43941 0.14621 0.0
O405 O 0.97458 0.46034 0.49782 0.0
C406 C 0.93058 0.4038 0.18964 0.0
O407 O 1.0121 0.50076 0.36268 0.0
O408 O 0.95206 0.48484 0.30976 0.0
O409 O 0.04117 0.40288 0.16823 0.0
O410 O 0.04509 0.4662 0.21375 0.0
C411 C 0.95167 0.35723 0.41746 0.0
O412 O 0.92127 0.41497 0.27906 0.0
O413 O 0.96676 0.39902 0.16669 0.0
C414 C 0.98038 0.50975 0.31553 0.0
O415 O 0.94812 0.39185 0.45492 0.0
O416 O 0.96736 0.35163 0.33025 0.0
C417 C 0.07423 0.37776 0.35964 0.0
Fe418 Fe 0.86965 0.70171 0.63213 0.0
Fe419 Fe 0.9267 0.75395 0.50551 0.0
O420 O 0.88333 0.7489 0.57937 0.0
Fe421 Fe 0.85254 0.79134 0.59917 0.0
O422 O 0.8632 0.78845 0.73405 0.0
O423 O 0.84713 0.72458 0.74782 0.0
O424 O 0.91561 0.69812 0.70491 0.0
C425 C 0.95023 0.70166 0.66744 0.0
C426 C 0.79771 0.73038 0.56553 0.0
O427 O 0.95584 0.71736 0.58025 0.0
C428 C 0.86806 0.79718 0.39621 0.0
O429 O 0.89249 0.67127 0.52905 0.0
O430 O 0.90844 0.71676 0.41669 0.0
O431 O 0.80671 0.7621 0.61268 0.0
O432 O 0.82262 0.70206 0.55976 0.0
C433 C 0.9297 0.82423 0.60963 0.0
O434 O 0.90459 0.79117 0.41822 0.0
O435 O 0.84126 0.79508 0.46373 0.0
C436 C 0.90367 0.68058 0.43964 0.0
O437 O 0.94705 0.79167 0.59098 0.0
O438 O 0.89297 0.82864 0.58953 0.0
C439 C 0.85731 0.75775 0.78815 0.0
Fe440 Fe 0.60575 0.43781 0.69248 0.0
Fe441 Fe 0.5535 0.38076 0.8191 0.0
O442 O 0.55855 0.42413 0.74524 0.0
Fe443 Fe 0.51612 0.45493 0.72542 0.0
O444 O 0.519 0.44427 0.59054 0.0
O445 O 0.58288 0.46033 0.57679 0.0
O446 O 0.60934 0.39185 0.61971 0.0
C447 C 0.60579 0.35723 0.65718 0.0
C448 C 0.57708 0.50975 0.75906 0.0
O449 O 0.5901 0.35163 0.74439 0.0
C450 C 0.51028 0.43941 0.92839 0.0
O451 O 0.63619 0.41497 0.79557 0.0
O452 O 0.59068 0.39902 0.90796 0.0
O453 O 0.54536 0.50076 0.71192 0.0
O454 O 0.6054 0.48484 0.76484 0.0
C455 C 0.48323 0.37777 0.71493 0.0
O456 O 0.51627 0.40288 0.90636 0.0
O457 O 0.51237 0.46621 0.86086 0.0
C458 C 0.62685 0.40384 0.885 0.0
O459 O 0.51579 0.36041 0.7336 0.0
O460 O 0.47881 0.41449 0.73505 0.0
C461 C 0.54971 0.45015 0.53644 0.0
Fe462 Fe 0.9267 0.3035 0.0691 0.0
Fe463 Fe 0.85253 0.26612 0.97543 0.0
O464 O 0.88333 0.30856 0.99524 0.0
Fe465 Fe 0.86965 0.35575 0.94248 0.0
O466 O 0.91561 0.35934 0.86971 0.0
O467 O 0.95583 0.3401 0.99438 0.0
O468 O 0.94705 0.26579 0.98359 0.0
C469 C 0.92969 0.23323 0.96493 0.0
C470 C 0.90362 0.37685 0.135 0.0
O471 O 0.89296 0.22882 0.98506 0.0
C472 C 0.79771 0.32708 1.00906 0.0
O473 O 0.90459 0.26627 0.15636 0.0
O474 O 0.84125 0.26238 0.11087 0.0
O475 O 0.89249 0.38619 0.04557 0.0
O476 O 0.90845 0.34068 0.15795 0.0
C477 C 0.8573 0.2997 0.78644 0.0
O478 O 0.8067 0.29536 0.96192 0.0
O479 O 0.82262 0.3554 1.01483 0.0
C480 C 0.86805 0.26027 0.17838 0.0
O481 O 0.86319 0.269 0.84055 0.0
O482 O 0.84713 0.33288 0.82678 0.0
C483 C 0.95023 0.35581 0.90719 0.0
Fe484 Fe 0.04134 0.60253 0.22542 0.0
Fe485 Fe 0.95171 0.61965 0.19248 0.0
O486 O 0.99891 0.63333 0.24524 0.0
Fe487 Fe 1.00397 0.6767 0.3191 0.0
O488 O 0.04167 0.69705 0.2336 0.0
O489 O 0.07865 0.64297 0.23505 0.0
O490 O 0.03846 0.61319 0.09054 0.0
C491 C 1.00776 0.60731 1.03644 0.0
C492 C 0.04718 0.61805 0.42839 0.0
O493 O 0.97458 0.59713 0.07678 0.0
C494 C 0.93061 0.65362 0.385 0.0
O495 O 1.01211 0.5567 0.21192 0.0
O496 O 0.95206 0.57262 0.26483 0.0
O497 O 0.04119 0.65458 0.40636 0.0
O498 O 0.04509 0.59125 0.36086 0.0
C499 C 0.95167 0.70023 0.15718 0.0
O500 O 0.92128 0.64249 0.29556 0.0
O501 O 0.96679 0.65844 0.40795 0.0
C502 C 0.98038 0.54771 0.25906 0.0
O503 O 0.94812 0.66561 0.1197 0.0
O504 O 0.96736 0.70583 0.24439 0.0
C505 C 0.07423 0.67969 0.21493 0.0
Fe506 Fe 0.70493 0.79134 0.47543 0.0
Fe507 Fe 0.68781 0.70171 0.44249 0.0
O508 O 0.67413 0.7489 0.49525 0.0
Fe509 Fe 0.63076 0.75396 0.5691 0.0
O510 O 0.61041 0.79167 0.48359 0.0
O511 O 0.66449 0.82864 0.48507 0.0
O512 O 0.69427 0.78846 0.34056 0.0
C513 C 0.70016 0.75776 0.28645 0.0
C514 C 0.6894 0.79719 0.67839 0.0
O515 O 0.71033 0.72458 0.32679 0.0
C516 C 0.65383 0.68061 0.63501 0.0
O517 O 0.75076 0.7621 0.46193 0.0
O518 O 0.73484 0.70206 0.51484 0.0
O519 O 0.65287 0.79119 0.65636 0.0
O520 O 0.7162 0.79508 0.61088 0.0
C521 C 0.60723 0.70165 0.4072 0.0
O522 O 0.66497 0.67127 0.54558 0.0
O523 O 0.64901 0.71678 0.65796 0.0
C524 C 0.75975 0.73038 0.50906 0.0
O525 O 0.64184 0.69812 0.36972 0.0
O526 O 0.60163 0.71736 0.49439 0.0
C527 C 0.62777 0.82423 0.46493 0.0
Fe528 Fe 0.45171 0.43781 0.19245 0.0
Fe529 Fe 0.54134 0.45492 0.22542 0.0
O530 O 0.4989 0.42413 0.24522 0.0
Fe531 Fe 0.50394 0.38076 0.31908 0.0
O532 O 0.46735 0.35163 0.24432 0.0
O533 O 0.44812 0.39186 0.11965 0.0
O534 O 0.47458 0.46034 0.07678 0.0
C535 C 0.50775 0.45016 1.03644 0.0
C536 C 0.43057 0.4038 0.38493 0.0
O537 O 0.53846 0.44427 0.09054 0.0
C538 C 0.54717 0.4394 0.42839 0.0
O539 O 0.45206 0.48484 0.26483 0.0
O540 O 0.5121 0.50075 0.21193 0.0
O541 O 0.46674 0.39901 0.40789 0.0
O542 O 0.42126 0.41497 0.2955 0.0
C543 C 0.57423 0.37776 0.21495 0.0
O544 O 0.54508 0.4662 0.36087 0.0
O545 O 0.54116 0.40287 0.40638 0.0
C546 C 0.48038 0.50975 0.25908 0.0
O547 O 0.57864 0.41449 0.23506 0.0
O548 O 0.54166 0.3604 0.23361 0.0
C549 C 0.45167 0.35724 0.15711 0.0
Fe550 Fe 0.35254 0.79134 0.97542 0.0
Fe551 Fe 0.4267 0.75394 0.06907 0.0
O552 O 0.38333 0.7489 0.99522 0.0
Fe553 Fe 0.36965 0.70171 0.94245 0.0
O554 O 0.34712 0.72458 0.82678 0.0
O555 O 0.36319 0.78845 0.84054 0.0
O556 O 0.39297 0.82864 0.98506 0.0
C557 C 0.4297 0.82423 0.96494 0.0
C558 C 0.29771 0.73038 1.00908 0.0
O559 O 0.44705 0.79166 0.9836 0.0
C560 C 0.40366 0.68057 0.13493 0.0
O561 O 0.34126 0.79508 0.11086 0.0
O562 O 0.40459 0.79116 0.15638 0.0
O563 O 0.32262 0.70206 1.01483 0.0
O564 O 0.30671 0.7621 0.96193 0.0
C565 C 0.45022 0.70167 0.90711 0.0
O566 O 0.40845 0.71674 0.15789 0.0
O567 O 0.39249 0.67126 0.04551 0.0
C568 C 0.36806 0.79717 0.17839 0.0
O569 O 0.45583 0.71735 0.99432 0.0
O570 O 0.4156 0.69811 0.86965 0.0
C571 C 0.3573 0.75775 0.78644 0.0
Fe572 Fe 0.10575 0.61965 0.69246 0.0
Fe573 Fe 1.01612 0.60254 0.72542 0.0
O574 O 0.05856 0.63333 0.74523 0.0
Fe575 Fe 0.05352 0.6767 0.81908 0.0
O576 O 0.09011 0.70583 0.74432 0.0
O577 O 0.10935 0.6656 0.61966 0.0
O578 O 0.08288 0.59712 0.57678 0.0
C579 C 0.04971 0.6073 0.53644 0.0
C580 C 0.1269 0.65366 0.88494 0.0
O581 O 1.01901 0.61319 0.59054 0.0
C582 C 1.01029 0.61806 0.92839 0.0
O583 O 0.10541 0.57262 0.76483 0.0
O584 O 0.04536 0.55671 0.71193 0.0
O585 O 0.09072 0.65845 0.90789 0.0
O586 O 0.1362 0.64249 0.79551 0.0
C587 C 0.98324 0.6797 0.71495 0.0
O588 O 1.01238 0.59126 0.86087 0.0
O589 O 1.0163 0.65459 0.90638 0.0
C590 C 0.07708 0.54771 0.75909 0.0
O591 O 0.97882 0.64297 0.73506 0.0
O592 O 1.0158 0.69706 0.7336 0.0
C593 C 0.1058 0.70022 0.65712 0.0
Fe594 Fe 0.13076 0.30352 0.56908 0.0
Fe595 Fe 0.18781 0.35575 0.44246 0.0
O596 O 0.17413 0.30856 0.49523 0.0
Fe597 Fe 0.20492 0.26612 0.47543 0.0
O598 O 0.16449 0.22882 0.48507 0.0
O599 O 0.1104 0.2658 0.48361 0.0
O600 O 0.10163 0.34011 0.49432 0.0
C601 C 0.10724 0.35579 0.40712 0.0
C602 C 0.1894 0.26029 0.6784 0.0
O603 O 0.14185 0.35935 0.36966 0.0
C604 C 0.25974 0.32707 0.50909 0.0
O605 O 0.149 0.34072 0.6579 0.0
O606 O 0.16497 0.3862 0.54552 0.0
O607 O 0.21619 0.26238 0.61087 0.0
O608 O 0.15286 0.2663 0.65638 0.0
C609 C 0.20016 0.29971 0.28645 0.0
O610 O 0.23484 0.3554 0.51483 0.0
O611 O 0.25075 0.29536 0.46193 0.0
C612 C 0.1538 0.37689 0.63494 0.0
O613 O 0.21034 0.33288 0.32679 0.0
O614 O 0.19426 0.269 0.34055 0.0
C615 C 0.12776 0.23323 0.46495 0.0
Fe616 Fe 0.45171 0.61965 0.38214 0.0
Fe617 Fe 0.54134 0.60253 0.34918 0.0
O618 O 0.4989 0.63333 0.32937 0.0
Fe619 Fe 0.50395 0.6767 0.25553 0.0
O620 O 0.46735 0.70583 0.33025 0.0
O621 O 0.44811 0.66561 0.45492 0.0
O622 O 0.47458 0.59712 0.49782 0.0
C623 C 0.50775 0.6073 0.53816 0.0
C624 C 0.4306 0.65362 0.18963 0.0
O625 O 0.53845 0.61319 0.48406 0.0
C626 C 0.54718 0.61806 0.14622 0.0
O627 O 0.45206 0.57261 0.30978 0.0
O628 O 0.5121 0.5567 0.36268 0.0
O629 O 0.46677 0.65846 0.16667 0.0
O630 O 0.42127 0.64248 0.27906 0.0
C631 C 0.57422 0.67969 0.3597 0.0
O632 O 0.54508 0.59126 0.21374 0.0
O633 O 0.54118 0.65459 0.16825 0.0
C634 C 0.48038 0.54771 0.31553 0.0
O635 O 0.57864 0.64297 0.33955 0.0
O636 O 0.54166 0.69705 0.34103 0.0
C637 C 0.45166 0.70022 0.41745 0.0
Fe638 Fe 0.18781 0.70171 0.13214 0.0
Fe639 Fe 0.20493 0.79134 0.09918 0.0
O640 O 0.17413 0.7489 0.07937 0.0
Fe641 Fe 0.13076 0.75396 1.00553 0.0
O642 O 0.10163 0.71735 0.08026 0.0
O643 O 0.14185 0.69811 0.20493 0.0
O644 O 0.21034 0.72458 0.24783 0.0
C645 C 0.20016 0.75775 0.28816 0.0
C646 C 0.15384 0.6806 0.93963 0.0
O647 O 0.19427 0.78846 0.23406 0.0
C648 C 0.1894 0.79718 0.89622 0.0
O649 O 0.23485 0.70206 0.05978 0.0
O650 O 0.25076 0.7621 0.11268 0.0
O651 O 0.149 0.71677 0.91668 0.0
O652 O 0.16498 0.67127 1.02907 0.0
C653 C 0.12777 0.82423 0.1097 0.0
O654 O 0.2162 0.79508 0.96374 0.0
O655 O 0.15287 0.79118 0.91825 0.0
C656 C 0.25975 0.73039 0.06553 0.0
O657 O 0.16449 0.82864 0.08956 0.0
O658 O 0.11041 0.79166 0.09104 0.0
C659 C 0.10724 0.70166 0.16746 0.0
Fe660 Fe 0.10575 0.43781 0.88214 0.0
Fe661 Fe 1.01612 0.45492 0.84918 0.0
O662 O 0.05856 0.42413 0.82937 0.0
Fe663 Fe 0.0535 0.38076 0.75553 0.0
O664 O 0.09011 0.35163 0.83026 0.0
O665 O 0.10934 0.39185 0.95493 0.0
O666 O 0.08288 0.46034 0.99783 0.0
C667 C 0.0497 0.45016 0.03816 0.0
C668 C 0.12686 0.40384 0.68963 0.0
O669 O 1.019 0.44427 0.98406 0.0
C670 C 1.01028 0.4394 0.64622 0.0
O671 O 0.1054 0.48485 0.80978 0.0
O672 O 0.04536 0.50076 0.86268 0.0
O673 O 0.09069 0.399 0.66667 0.0
O674 O 0.13619 0.41498 0.77907 0.0
C675 C 0.98323 0.37777 0.85969 0.0
O676 O 1.01238 0.4662 0.71374 0.0
O677 O 1.01628 0.40287 0.66825 0.0
C678 C 0.07707 0.50975 0.81553 0.0
O679 O 0.97882 0.41449 0.83955 0.0
O680 O 1.0158 0.36041 0.84103 0.0
C681 C 0.1058 0.35724 0.91746 0.0
Fe682 Fe 0.35254 0.26612 0.59917 0.0
Fe683 Fe 0.4267 0.30351 0.50552 0.0
O684 O 0.38333 0.30856 0.57937 0.0
Fe685 Fe 0.36965 0.35575 0.63213 0.0
O686 O 0.34712 0.33288 0.74782 0.0
O687 O 0.36319 0.269 0.73405 0.0
O688 O 0.39297 0.22882 0.58955 0.0
C689 C 0.4297 0.23323 0.60969 0.0
C690 C 0.29771 0.32707 0.56553 0.0
O691 O 0.44706 0.2658 0.59103 0.0
C692 C 0.40362 0.37686 0.43962 0.0
O693 O 0.34126 0.26238 0.46373 0.0
O694 O 0.4046 0.26628 0.41824 0.0
O695 O 0.32261 0.3554 0.55978 0.0
O696 O 0.30671 0.29535 0.61267 0.0
C697 C 0.45022 0.3558 0.66745 0.0
O698 O 0.40846 0.34069 0.41667 0.0
O699 O 0.39248 0.38619 0.52906 0.0
C700 C 0.36806 0.26028 0.39621 0.0
O701 O 0.45583 0.34011 0.58025 0.0
O702 O 0.41561 0.35935 0.70492 0.0
C703 C 0.3573 0.2997 0.78815 0.0
loop_
_geom_bond_atom_site_label_1
_geom_bond_atom_site_label_2
_geom_bond_distance
_geom_bond_site_symmetry_2
_ccdc_geom_bond_type
Fe0 O2 1.918 . S
Fe0 O5 1.997 . S
Fe0 O6 2.002 1_455 S
Fe0 O11 1.976 . S
Fe0 O14 1.996 . S
Fe1 O2 1.918 1_655 S
Fe1 O9 1.997 . S
Fe1 O12 1.996 . S
Fe1 O16 1.976 1_655 S
Fe1 O19 2.002 1_655 S
O2 Fe0 1.918 . S
O2 Fe1 1.918 1_455 S
O2 Fe3 1.918 . S
Fe3 O2 1.918 . S
Fe3 O4 2.002 . S
Fe3 O13 1.976 . S
Fe3 O17 1.996 . S
Fe3 O20 1.997 . S
O4 Fe3 2.002 . S
O4 C21 1.295 . S
O5 Fe0 1.997 . S
O5 C21 1.235 . S
O6 Fe0 2.002 1_655 S
O6 C7 1.295 . S
C7 O6 1.295 . S
C7 O9 1.235 . S
C8 O13 1.287 . S
C8 O14 1.255 . S
O9 Fe1 1.997 . S
O9 C7 1.235 . S
C10 O16 1.287 . S
C10 O17 1.255 . S
O11 Fe0 1.976 . S
O11 C18 1.287 1_455 S
O12 Fe1 1.996 . S
O12 C18 1.255 . S
O13 Fe3 1.976 . S
O13 C8 1.287 . S
O14 Fe0 1.996 . S
O14 C8 1.255 . S
C15 O19 1.295 . S
C15 O20 1.235 . S
O16 Fe1 1.976 1_455 S
O16 C10 1.287 . S
O17 Fe3 1.996 . S
O17 C10 1.255 . S
C18 O11 1.287 1_655 S
C18 O12 1.255 . S
O19 Fe1 2.002 1_455 S
O19 C15 1.295 . S
O20 Fe3 1.997 . S
O20 C15 1.235 . S
C21 O4 1.295 . S
C21 O5 1.235 . S
Fe22 O24 1.918 . S
Fe22 O27 1.997 . S
Fe22 O28 2.002 . S
Fe22 O33 1.976 . S
Fe22 O36 1.996 . S
Fe23 O24 1.918 . S
Fe23 O31 1.997 . S
Fe23 O34 1.996 . S
Fe23 O38 1.976 . S
Fe23 O41 2.002 . S
O24 Fe22 1.918 . S
O24 Fe23 1.918 . S
O24 Fe25 1.918 . S
Fe25 O24 1.918 . S
Fe25 O26 2.002 . S
Fe25 O35 1.976 . S
Fe25 O39 1.996 . S
Fe25 O42 1.997 . S
O26 Fe25 2.002 . S
O26 C43 1.295 . S
O27 Fe22 1.997 . S
O27 C43 1.235 . S
O28 Fe22 2.002 . S
O28 C29 1.295 . S
C29 O28 1.295 . S
C29 O31 1.235 . S
C30 O35 1.287 . S
C30 O36 1.255 . S
O31 Fe23 1.997 . S
O31 C29 1.235 . S
C32 O38 1.287 . S
C32 O39 1.255 . S
O33 Fe22 1.976 . S
O33 C40 1.287 . S
O34 Fe23 1.996 . S
O34 C40 1.255 . S
O35 Fe25 1.976 . S
O35 C30 1.287 . S
O36 Fe22 1.996 . S
O36 C30 1.255 . S
C37 O41 1.295 . S
C37 O42 1.235 . S
O38 Fe23 1.976 . S
O38 C32 1.287 . S
O39 Fe25 1.996 . S
O39 C32 1.255 . S
C40 O33 1.287 . S
C40 O34 1.255 . S
O41 Fe23 2.002 . S
O41 C37 1.295 . S
O42 Fe25 1.997 . S
O42 C37 1.235 . S
C43 O26 1.295 . S
C43 O27 1.235 . S
Fe44 O46 1.918 . S
Fe44 O49 1.997 . S
Fe44 O50 2.002 . S
Fe44 O55 1.976 . S
Fe44 O58 1.996 . S
Fe45 O46 1.918 . S
Fe45 O53 1.997 . S
Fe45 O56 1.996 . S
Fe45 O60 1.976 . S
Fe45 O63 2.002 . S
O46 Fe44 1.918 . S
O46 Fe45 1.918 . S
O46 Fe47 1.918 . S
Fe47 O46 1.918 . S
Fe47 O48 2.002 . S
Fe47 O57 1.976 . S
Fe47 O61 1.996 . S
Fe47 O64 1.997 . S
O48 Fe47 2.002 . S
O48 C65 1.295 . S
O49 Fe44 1.997 . S
O49 C65 1.235 . S
O50 Fe44 2.002 . S
O50 C51 1.295 1_556 S
C51 O50 1.295 1_554 S
C51 O53 1.235 1_554 S
C52 O57 1.287 . S
C52 O58 1.255 . S
O53 Fe45 1.997 . S
O53 C51 1.235 1_556 S
C54 O60 1.287 . S
C54 O61 1.255 . S
O55 Fe44 1.976 . S
O55 C62 1.287 . S
O56 Fe45 1.996 . S
O56 C62 1.255 . S
O57 Fe47 1.976 . S
O57 C52 1.287 . S
O58 Fe44 1.996 . S
O58 C52 1.255 . S
C59 O63 1.295 . S
C59 O64 1.235 . S
O60 Fe45 1.976 . S
O60 C54 1.287 . S
O61 Fe47 1.996 . S
O61 C54 1.255 . S
C62 O55 1.287 . S
C62 O56 1.255 . S
O63 Fe45 2.002 . S
O63 C59 1.295 . S
O64 Fe47 1.997 . S
O64 C59 1.235 . S
C65 O48 1.295 . S
C65 O49 1.235 . S
Fe66 O68 1.918 1_556 S
Fe66 O71 1.997 1_556 S
Fe66 O72 2.002 1_556 S
Fe66 O77 1.976 . S
Fe66 O80 1.996 . S
Fe67 O68 1.918 . S
Fe67 O75 1.997 . S
Fe67 O78 1.996 1_554 S
Fe67 O82 1.976 . S
Fe67 O85 2.002 . S
O68 Fe66 1.918 1_554 S
O68 Fe67 1.918 . S
O68 Fe69 1.918 . S
Fe69 O68 1.918 . S
Fe69 O70 2.002 . S
Fe69 O79 1.976 1_554 S
Fe69 O83 1.996 . S
Fe69 O86 1.997 . S
O70 Fe69 2.002 . S
O70 C87 1.295 . S
O71 Fe66 1.997 1_554 S
O71 C87 1.235 . S
O72 Fe66 2.002 1_554 S
O72 C73 1.295 . S
C73 O72 1.295 . S
C73 O75 1.235 . S
C74 O79 1.287 . S
C74 O80 1.255 . S
O75 Fe67 1.997 . S
O75 C73 1.235 . S
C76 O82 1.287 . S
C76 O83 1.255 . S
O77 Fe66 1.976 . S
O77 C84 1.287 . S
O78 Fe67 1.996 1_556 S
O78 C84 1.255 . S
O79 Fe69 1.976 1_556 S
O79 C74 1.287 . S
O80 Fe66 1.996 . S
O80 C74 1.255 . S
C81 O85 1.295 . S
C81 O86 1.235 . S
O82 Fe67 1.976 . S
O82 C76 1.287 . S
O83 Fe69 1.996 . S
O83 C76 1.255 . S
C84 O77 1.287 . S
C84 O78 1.255 . S
O85 Fe67 2.002 . S
O85 C81 1.295 . S
O86 Fe69 1.997 . S
O86 C81 1.235 . S
C87 O70 1.295 . S
C87 O71 1.235 . S
Fe88 O90 1.918 . S
Fe88 O93 1.997 . S
Fe88 O94 2.002 . S
Fe88 O99 1.976 . S
Fe88 O102 1.996 . S
Fe89 O90 1.918 . S
Fe89 O97 1.997 . S
Fe89 O100 1.996 . S
Fe89 O104 1.976 . S
Fe89 O107 2.002 1_455 S
O90 Fe88 1.918 . S
O90 Fe89 1.918 . S
O90 Fe91 1.918 1_455 S
Fe91 O90 1.918 1_655 S
Fe91 O92 2.002 1_655 S
Fe91 O101 1.976 1_655 S
Fe91 O105 1.996 . S
Fe91 O108 1.997 . S
O92 Fe91 2.002 1_455 S
O92 C109 1.295 1_554 S
O93 Fe88 1.997 . S
O93 C109 1.235 1_554 S
O94 Fe88 2.002 . S
O94 C95 1.295 . S
C95 O94 1.295 . S
C95 O97 1.235 . S
C96 O101 1.287 . S
C96 O102 1.255 . S
O97 Fe89 1.997 . S
O97 C95 1.235 . S
C98 O104 1.287 1_655 S
C98 O105 1.255 . S
O99 Fe88 1.976 . S
O99 C106 1.287 . S
O100 Fe89 1.996 . S
O100 C106 1.255 . S
O101 Fe91 1.976 1_455 S
O101 C96 1.287 . S
O102 Fe88 1.996 . S
O102 C96 1.255 . S
C103 O107 1.295 . S
C103 O108 1.235 . S
O104 Fe89 1.976 . S
O104 C98 1.287 1_455 S
O105 Fe91 1.996 . S
O105 C98 1.255 . S
C106 O99 1.287 . S
C106 O100 1.255 . S
O107 Fe89 2.002 1_655 S
O107 C103 1.295 . S
O108 Fe91 1.997 . S
O108 C103 1.235 . S
C109 O92 1.295 1_556 S
C109 O93 1.235 1_556 S
Fe110 O112 1.918 . S
Fe110 O115 1.997 . S
Fe110 O116 2.002 . S
Fe110 O121 1.976 . S
Fe110 O124 1.996 . S
Fe111 O112 1.918 . S
Fe111 O119 1.997 . S
Fe111 O122 1.996 . S
Fe111 O126 1.976 . S
Fe111 O129 2.002 . S
O112 Fe110 1.918 . S
O112 Fe111 1.918 . S
O112 Fe113 1.918 . S
Fe113 O112 1.918 . S
Fe113 O114 2.002 . S
Fe113 O123 1.976 . S
Fe113 O127 1.996 . S
Fe113 O130 1.997 . S
O114 Fe113 2.002 . S
O114 C131 1.295 . S
O115 Fe110 1.997 . S
O115 C131 1.235 . S
O116 Fe110 2.002 . S
O116 C117 1.295 . S
C117 O116 1.295 . S
C117 O119 1.235 . S
C118 O123 1.287 . S
C118 O124 1.255 . S
O119 Fe111 1.997 . S
O119 C117 1.235 . S
C120 O126 1.287 . S
C120 O127 1.255 . S
O121 Fe110 1.976 . S
O121 C128 1.287 . S
O122 Fe111 1.996 . S
O122 C128 1.255 . S
O123 Fe113 1.976 . S
O123 C118 1.287 . S
O124 Fe110 1.996 . S
O124 C118 1.255 . S
C125 O129 1.295 . S
C125 O130 1.235 . S
O126 Fe111 1.976 . S
O126 C120 1.287 . S
O127 Fe113 1.996 . S
O127 C120 1.255 . S
C128 O121 1.287 . S
C128 O122 1.255 . S
O129 Fe111 2.002 . S
O129 C125 1.295 . S
O130 Fe113 1.997 . S
O130 C125 1.235 . S
C131 O114 1.295 . S
C131 O115 1.235 . S
Fe132 O134 1.918 . S
Fe132 O137 1.997 . S
Fe132 O138 2.002 . S
Fe132 O143 1.976 . S
Fe132 O146 1.996 . S
Fe133 O134 1.918 . S
Fe133 O141 1.997 . S
Fe133 O144 1.996 . S
Fe133 O148 1.976 . S
Fe133 O151 2.002 . S
O134 Fe132 1.918 . S
O134 Fe133 1.918 . S
O134 Fe135 1.918 . S
Fe135 O134 1.918 . S
Fe135 O136 2.002 . S
Fe135 O145 1.976 . S
Fe135 O149 1.996 . S
Fe135 O152 1.997 . S
O136 Fe135 2.002 . S
O136 C153 1.295 . S
O137 Fe132 1.997 . S
O137 C153 1.235 . S
O138 Fe132 2.002 . S
O138 C139 1.295 . S
C139 O138 1.295 . S
C139 O141 1.235 . S
C140 O145 1.287 . S
C140 O146 1.255 . S
O141 Fe133 1.997 . S
O141 C139 1.235 . S
C142 O148 1.287 . S
C142 O149 1.255 . S
O143 Fe132 1.976 . S
O143 C150 1.287 . S
O144 Fe133 1.996 . S
O144 C150 1.255 . S
O145 Fe135 1.976 . S
O145 C140 1.287 . S
O146 Fe132 1.996 . S
O146 C140 1.255 . S
C147 O151 1.295 . S
C147 O152 1.235 . S
O148 Fe133 1.976 . S
O148 C142 1.287 . S
O149 Fe135 1.996 . S
O149 C142 1.255 . S
C150 O143 1.287 . S
C150 O144 1.255 . S
O151 Fe133 2.002 . S
O151 C147 1.295 . S
O152 Fe135 1.997 . S
O152 C147 1.235 . S
C153 O136 1.295 . S
C153 O137 1.235 . S
Fe154 O156 1.918 . S
Fe154 O159 1.997 . S
Fe154 O160 2.002 . S
Fe154 O165 1.976 . S
Fe154 O168 1.996 1_556 S
Fe155 O156 1.918 . S
Fe155 O163 1.997 . S
Fe155 O166 1.996 . S
Fe155 O170 1.976 1_556 S
Fe155 O173 2.002 . S
O156 Fe154 1.918 . S
O156 Fe155 1.918 . S
O156 Fe157 1.918 1_556 S
Fe157 O156 1.918 1_554 S
Fe157 O158 2.002 1_554 S
Fe157 O167 1.976 . S
Fe157 O171 1.996 . S
Fe157 O174 1.997 1_554 S
O158 Fe157 2.002 1_556 S
O158 C175 1.295 . S
O159 Fe154 1.997 . S
O159 C175 1.235 . S
O160 Fe154 2.002 . S
O160 C161 1.295 . S
C161 O160 1.295 . S
C161 O163 1.235 . S
C162 O167 1.287 . S
C162 O168 1.255 . S
O163 Fe155 1.997 . S
O163 C161 1.235 . S
C164 O170 1.287 . S
C164 O171 1.255 . S
O165 Fe154 1.976 . S
O165 C172 1.287 . S
O166 Fe155 1.996 . S
O166 C172 1.255 . S
O167 Fe157 1.976 . S
O167 C162 1.287 . S
O168 Fe154 1.996 1_554 S
O168 C162 1.255 . S
C169 O173 1.295 . S
C169 O174 1.235 . S
O170 Fe155 1.976 1_554 S
O170 C164 1.287 . S
O171 Fe157 1.996 . S
O171 C164 1.255 . S
C172 O165 1.287 . S
C172 O166 1.255 . S
O173 Fe155 2.002 . S
O173 C169 1.295 . S
O174 Fe157 1.997 1_556 S
O174 C169 1.235 . S
C175 O158 1.295 . S
C175 O159 1.235 . S
Fe176 O178 1.918 . S
Fe176 O181 1.997 . S
Fe176 O182 2.002 . S
Fe176 O187 1.976 . S
Fe176 O190 1.996 . S
Fe177 O178 1.918 1_455 S
Fe177 O185 1.997 1_455 S
Fe177 O188 1.996 1_455 S
Fe177 O192 1.976 . S
Fe177 O195 2.002 . S
O178 Fe176 1.918 . S
O178 Fe177 1.918 1_655 S
O178 Fe179 1.918 . S
Fe179 O178 1.918 . S
Fe179 O180 2.002 . S
Fe179 O189 1.976 . S
Fe179 O193 1.996 . S
Fe179 O196 1.997 1_655 S
O180 Fe179 2.002 . S
O180 C197 1.295 . S
O181 Fe176 1.997 . S
O181 C197 1.235 . S
O182 Fe176 2.002 . S
O182 C183 1.295 . S
C183 O182 1.295 . S
C183 O185 1.235 . S
C184 O189 1.287 . S
C184 O190 1.255 . S
O185 Fe177 1.997 1_655 S
O185 C183 1.235 . S
C186 O192 1.287 . S
C186 O193 1.255 1_455 S
O187 Fe176 1.976 . S
O187 C194 1.287 . S
O188 Fe177 1.996 1_655 S
O188 C194 1.255 . S
O189 Fe179 1.976 . S
O189 C184 1.287 . S
O190 Fe176 1.996 . S
O190 C184 1.255 . S
C191 O195 1.295 . S
C191 O196 1.235 . S
O192 Fe177 1.976 . S
O192 C186 1.287 . S
O193 Fe179 1.996 . S
O193 C186 1.255 1_655 S
C194 O187 1.287 . S
C194 O188 1.255 . S
O195 Fe177 2.002 . S
O195 C191 1.295 . S
O196 Fe179 1.997 1_455 S
O196 C191 1.235 . S
C197 O180 1.295 . S
C197 O181 1.235 . S
Fe198 O200 1.918 . S
Fe198 O203 1.997 . S
Fe198 O204 2.002 . S
Fe198 O209 1.976 . S
Fe198 O212 1.996 . S
Fe199 O200 1.918 . S
Fe199 O207 1.997 . S
Fe199 O210 1.996 . S
Fe199 O214 1.976 . S
Fe199 O217 2.002 . S
O200 Fe198 1.918 . S
O200 Fe199 1.918 . S
O200 Fe201 1.918 . S
Fe201 O200 1.918 . S
Fe201 O202 2.002 . S
Fe201 O211 1.976 . S
Fe201 O215 1.996 . S
Fe201 O218 1.997 . S
O202 Fe201 2.002 . S
O202 C219 1.295 . S
O203 Fe198 1.997 . S
O203 C219 1.235 . S
O204 Fe198 2.002 . S
O204 C205 1.295 . S
C205 O204 1.295 . S
C205 O207 1.235 . S
C206 O211 1.287 . S
C206 O212 1.255 . S
O207 Fe199 1.997 . S
O207 C205 1.235 . S
C208 O214 1.287 . S
C208 O215 1.255 . S
O209 Fe198 1.976 . S
O209 C216 1.287 . S
O210 Fe199 1.996 . S
O210 C216 1.255 . S
O211 Fe201 1.976 . S
O211 C206 1.287 . S
O212 Fe198 1.996 . S
O212 C206 1.255 . S
C213 O217 1.295 . S
C213 O218 1.235 . S
O214 Fe199 1.976 . S
O214 C208 1.287 . S
O215 Fe201 1.996 . S
O215 C208 1.255 . S
C216 O209 1.287 . S
C216 O210 1.255 . S
O217 Fe199 2.002 . S
O217 C213 1.295 . S
O218 Fe201 1.997 . S
O218 C213 1.235 . S
C219 O202 1.295 . S
C219 O203 1.235 . S
Fe220 O222 1.918 . S
Fe220 O225 1.997 . S
Fe220 O226 2.002 . S
Fe220 O231 1.976 . S
Fe220 O234 1.996 . S
Fe221 O222 1.918 . S
Fe221 O229 1.997 . S
Fe221 O232 1.996 . S
Fe221 O236 1.976 . S
Fe221 O239 2.002 . S
O222 Fe220 1.918 . S
O222 Fe221 1.918 . S
O222 Fe223 1.918 . S
Fe223 O222 1.918 . S
Fe223 O224 2.002 . S
Fe223 O233 1.976 . S
Fe223 O237 1.996 . S
Fe223 O240 1.997 . S
O224 Fe223 2.002 . S
O224 C241 1.295 . S
O225 Fe220 1.997 . S
O225 C241 1.235 . S
O226 Fe220 2.002 . S
O226 C227 1.295 1_554 S
C227 O226 1.295 1_556 S
C227 O229 1.235 1_556 S
C228 O233 1.287 . S
C228 O234 1.255 . S
O229 Fe221 1.997 . S
O229 C227 1.235 1_554 S
C230 O236 1.287 . S
C230 O237 1.255 . S
O231 Fe220 1.976 . S
O231 C238 1.287 . S
O232 Fe221 1.996 . S
O232 C238 1.255 . S
O233 Fe223 1.976 . S
O233 C228 1.287 . S
O234 Fe220 1.996 . S
O234 C228 1.255 . S
C235 O239 1.295 . S
C235 O240 1.235 . S
O236 Fe221 1.976 . S
O236 C230 1.287 . S
O237 Fe223 1.996 . S
O237 C230 1.255 . S
C238 O231 1.287 . S
C238 O232 1.255 . S
O239 Fe221 2.002 . S
O239 C235 1.295 . S
O240 Fe223 1.997 . S
O240 C235 1.235 . S
C241 O224 1.295 . S
C241 O225 1.235 . S
Fe242 O244 1.918 1_554 S
Fe242 O247 1.997 1_554 S
Fe242 O248 2.002 1_554 S
Fe242 O253 1.976 . S
Fe242 O256 1.996 . S
Fe243 O244 1.918 . S
Fe243 O251 1.997 . S
Fe243 O254 1.996 1_556 S
Fe243 O258 1.976 . S
Fe243 O261 2.002 . S
O244 Fe242 1.918 1_556 S
O244 Fe243 1.918 . S
O244 Fe245 1.918 . S
Fe245 O244 1.918 . S
Fe245 O246 2.002 . S
Fe245 O255 1.976 1_556 S
Fe245 O259 1.996 . S
Fe245 O262 1.997 . S
O246 Fe245 2.002 . S
O246 C263 1.295 . S
O247 Fe242 1.997 1_556 S
O247 C263 1.235 . S
O248 Fe242 2.002 1_556 S
O248 C249 1.295 . S
C249 O248 1.295 . S
C249 O251 1.235 . S
C250 O255 1.287 . S
C250 O256 1.255 . S
O251 Fe243 1.997 . S
O251 C249 1.235 . S
C252 O258 1.287 . S
C252 O259 1.255 . S
O253 Fe242 1.976 . S
O253 C260 1.287 . S
O254 Fe243 1.996 1_554 S
O254 C260 1.255 . S
O255 Fe245 1.976 1_554 S
O255 C250 1.287 . S
O256 Fe242 1.996 . S
O256 C250 1.255 . S
C257 O261 1.295 . S
C257 O262 1.235 . S
O258 Fe243 1.976 . S
O258 C252 1.287 . S
O259 Fe245 1.996 . S
O259 C252 1.255 . S
C260 O253 1.287 . S
C260 O254 1.255 . S
O261 Fe243 2.002 . S
O261 C257 1.295 . S
O262 Fe245 1.997 . S
O262 C257 1.235 . S
C263 O246 1.295 . S
C263 O247 1.235 . S
Fe264 O266 1.918 1_455 S
Fe264 O269 1.997 1_455 S
Fe264 O270 2.002 . S
Fe264 O275 1.976 . S
Fe264 O278 1.996 1_455 S
Fe265 O266 1.918 . S
Fe265 O273 1.997 1_655 S
Fe265 O276 1.996 . S
Fe265 O280 1.976 . S
Fe265 O283 2.002 . S
O266 Fe264 1.918 1_655 S
O266 Fe265 1.918 . S
O266 Fe267 1.918 . S
Fe267 O266 1.918 . S
Fe267 O268 2.002 . S
Fe267 O277 1.976 . S
Fe267 O281 1.996 . S
Fe267 O284 1.997 . S
O268 Fe267 2.002 . S
O268 C285 1.295 1_556 S
O269 Fe264 1.997 1_655 S
O269 C285 1.235 1_556 S
O270 Fe264 2.002 . S
O270 C271 1.295 . S
C271 O270 1.295 . S
C271 O273 1.235 . S
C272 O277 1.287 . S
C272 O278 1.255 . S
O273 Fe265 1.997 1_455 S
O273 C271 1.235 . S
C274 O280 1.287 . S
C274 O281 1.255 . S
O275 Fe264 1.976 . S
O275 C282 1.287 . S
O276 Fe265 1.996 . S
O276 C282 1.255 1_655 S
O277 Fe267 1.976 . S
O277 C272 1.287 . S
O278 Fe264 1.996 1_655 S
O278 C272 1.255 . S
C279 O283 1.295 . S
C279 O284 1.235 . S
O280 Fe265 1.976 . S
O280 C274 1.287 . S
O281 Fe267 1.996 . S
O281 C274 1.255 . S
C282 O275 1.287 . S
C282 O276 1.255 1_455 S
O283 Fe265 2.002 . S
O283 C279 1.295 . S
O284 Fe267 1.997 . S
O284 C279 1.235 . S
C285 O268 1.295 1_554 S
C285 O269 1.235 1_554 S
Fe286 O288 1.918 . S
Fe286 O291 1.997 . S
Fe286 O292 2.002 . S
Fe286 O297 1.976 . S
Fe286 O300 1.996 . S
Fe287 O288 1.918 . S
Fe287 O295 1.997 . S
Fe287 O298 1.996 . S
Fe287 O302 1.976 . S
Fe287 O305 2.002 . S
O288 Fe286 1.918 . S
O288 Fe287 1.918 . S
O288 Fe289 1.918 . S
Fe289 O288 1.918 . S
Fe289 O290 2.002 . S
Fe289 O299 1.976 . S
Fe289 O303 1.996 . S
Fe289 O306 1.997 . S
O290 Fe289 2.002 . S
O290 C307 1.295 . S
O291 Fe286 1.997 . S
O291 C307 1.235 . S
O292 Fe286 2.002 . S
O292 C293 1.295 . S
C293 O292 1.295 . S
C293 O295 1.235 . S
C294 O299 1.287 . S
C294 O300 1.255 . S
O295 Fe287 1.997 . S
O295 C293 1.235 . S
C296 O302 1.287 . S
C296 O303 1.255 . S
O297 Fe286 1.976 . S
O297 C304 1.287 . S
O298 Fe287 1.996 . S
O298 C304 1.255 . S
O299 Fe289 1.976 . S
O299 C294 1.287 . S
O300 Fe286 1.996 . S
O300 C294 1.255 . S
C301 O305 1.295 . S
C301 O306 1.235 . S
O302 Fe287 1.976 . S
O302 C296 1.287 . S
O303 Fe289 1.996 . S
O303 C296 1.255 . S
C304 O297 1.287 . S
C304 O298 1.255 . S
O305 Fe287 2.002 . S
O305 C301 1.295 . S
O306 Fe289 1.997 . S
O306 C301 1.235 . S
C307 O290 1.295 . S
C307 O291 1.235 . S
Fe308 O310 1.918 . S
Fe308 O313 1.997 . S
Fe308 O314 2.002 . S
Fe308 O319 1.976 . S
Fe308 O322 1.996 . S
Fe309 O310 1.918 . S
Fe309 O317 1.997 . S
Fe309 O320 1.996 . S
Fe309 O324 1.976 . S
Fe309 O327 2.002 . S
O310 Fe308 1.918 . S
O310 Fe309 1.918 . S
O310 Fe311 1.918 . S
Fe311 O310 1.918 . S
Fe311 O312 2.002 . S
Fe311 O321 1.976 . S
Fe311 O325 1.996 . S
Fe311 O328 1.997 . S
O312 Fe311 2.002 . S
O312 C329 1.295 . S
O313 Fe308 1.997 . S
O313 C329 1.235 . S
O314 Fe308 2.002 . S
O314 C315 1.295 . S
C315 O314 1.295 . S
C315 O317 1.235 . S
C316 O321 1.287 . S
C316 O322 1.255 . S
O317 Fe309 1.997 . S
O317 C315 1.235 . S
C318 O324 1.287 . S
C318 O325 1.255 . S
O319 Fe308 1.976 . S
O319 C326 1.287 . S
O320 Fe309 1.996 . S
O320 C326 1.255 . S
O321 Fe311 1.976 . S
O321 C316 1.287 . S
O322 Fe308 1.996 . S
O322 C316 1.255 . S
C323 O327 1.295 . S
C323 O328 1.235 . S
O324 Fe309 1.976 . S
O324 C318 1.287 . S
O325 Fe311 1.996 . S
O325 C318 1.255 . S
C326 O319 1.287 . S
C326 O320 1.255 . S
O327 Fe309 2.002 . S
O327 C323 1.295 . S
O328 Fe311 1.997 . S
O328 C323 1.235 . S
C329 O312 1.295 . S
C329 O313 1.235 . S
Fe330 O332 1.918 . S
Fe330 O335 1.997 . S
Fe330 O336 2.002 . S
Fe330 O341 1.976 1_554 S
Fe330 O344 1.996 . S
Fe331 O332 1.918 1_556 S
Fe331 O339 1.997 1_556 S
Fe331 O342 1.996 . S
Fe331 O346 1.976 . S
Fe331 O349 2.002 1_556 S
O332 Fe330 1.918 . S
O332 Fe331 1.918 1_554 S
O332 Fe333 1.918 . S
Fe333 O332 1.918 . S
Fe333 O334 2.002 . S
Fe333 O343 1.976 . S
Fe333 O347 1.996 1_554 S
Fe333 O350 1.997 . S
O334 Fe333 2.002 . S
O334 C351 1.295 . S
O335 Fe330 1.997 . S
O335 C351 1.235 . S
O336 Fe330 2.002 . S
O336 C337 1.295 . S
C337 O336 1.295 . S
C337 O339 1.235 . S
C338 O343 1.287 . S
C338 O344 1.255 . S
O339 Fe331 1.997 1_554 S
O339 C337 1.235 . S
C340 O346 1.287 . S
C340 O347 1.255 . S
O341 Fe330 1.976 1_556 S
O341 C348 1.287 . S
O342 Fe331 1.996 . S
O342 C348 1.255 . S
O343 Fe333 1.976 . S
O343 C338 1.287 . S
O344 Fe330 1.996 . S
O344 C338 1.255 . S
C345 O349 1.295 . S
C345 O350 1.235 . S
O346 Fe331 1.976 . S
O346 C340 1.287 . S
O347 Fe333 1.996 1_556 S
O347 C340 1.255 . S
C348 O341 1.287 . S
C348 O342 1.255 . S
O349 Fe331 2.002 1_554 S
O349 C345 1.295 . S
O350 Fe333 1.997 . S
O350 C345 1.235 . S
C351 O334 1.295 . S
C351 O335 1.235 . S
Fe352 O354 1.918 . S
Fe352 O357 1.997 . S
Fe352 O358 2.002 . S
Fe352 O363 1.976 . S
Fe352 O366 1.996 . S
Fe353 O354 1.918 . S
Fe353 O361 1.997 . S
Fe353 O364 1.996 . S
Fe353 O368 1.976 . S
Fe353 O371 2.002 . S
O354 Fe352 1.918 . S
O354 Fe353 1.918 . S
O354 Fe355 1.918 . S
Fe355 O354 1.918 . S
Fe355 O356 2.002 . S
Fe355 O365 1.976 . S
Fe355 O369 1.996 . S
Fe355 O372 1.997 . S
O356 Fe355 2.002 . S
O356 C373 1.295 . S
O357 Fe352 1.997 . S
O357 C373 1.235 . S
O358 Fe352 2.002 . S
O358 C359 1.295 . S
C359 O358 1.295 . S
C359 O361 1.235 . S
C360 O365 1.287 . S
C360 O366 1.255 . S
O361 Fe353 1.997 . S
O361 C359 1.235 . S
C362 O368 1.287 . S
C362 O369 1.255 . S
O363 Fe352 1.976 . S
O363 C370 1.287 . S
O364 Fe353 1.996 . S
O364 C370 1.255 . S
O365 Fe355 1.976 . S
O365 C360 1.287 . S
O366 Fe352 1.996 . S
O366 C360 1.255 . S
C367 O371 1.295 1_554 S
C367 O372 1.235 1_554 S
O368 Fe353 1.976 . S
O368 C362 1.287 . S
O369 Fe355 1.996 . S
O369 C362 1.255 . S
C370 O363 1.287 . S
C370 O364 1.255 . S
O371 Fe353 2.002 . S
O371 C367 1.295 1_556 S
O372 Fe355 1.997 . S
O372 C367 1.235 1_556 S
C373 O356 1.295 . S
C373 O357 1.235 . S
Fe374 O376 1.918 . S
Fe374 O379 1.997 . S
Fe374 O380 2.002 . S
Fe374 O385 1.976 1_554 S
Fe374 O388 1.996 . S
Fe375 O376 1.918 1_556 S
Fe375 O383 1.997 1_556 S
Fe375 O386 1.996 . S
Fe375 O390 1.976 . S
Fe375 O393 2.002 1_556 S
O376 Fe374 1.918 . S
O376 Fe375 1.918 1_554 S
O376 Fe377 1.918 . S
Fe377 O376 1.918 . S
Fe377 O378 2.002 . S
Fe377 O387 1.976 . S
Fe377 O391 1.996 1_554 S
Fe377 O394 1.997 . S
O378 Fe377 2.002 . S
O378 C395 1.295 . S
O379 Fe374 1.997 . S
O379 C395 1.235 . S
O380 Fe374 2.002 . S
O380 C381 1.295 . S
C381 O380 1.295 . S
C381 O383 1.235 . S
C382 O387 1.287 . S
C382 O388 1.255 . S
O383 Fe375 1.997 1_554 S
O383 C381 1.235 . S
C384 O390 1.287 . S
C384 O391 1.255 . S
O385 Fe374 1.976 1_556 S
O385 C392 1.287 . S
O386 Fe375 1.996 . S
O386 C392 1.255 . S
O387 Fe377 1.976 . S
O387 C382 1.287 . S
O388 Fe374 1.996 . S
O388 C382 1.255 . S
C389 O393 1.295 . S
C389 O394 1.235 . S
O390 Fe375 1.976 . S
O390 C384 1.287 . S
O391 Fe377 1.996 1_556 S
O391 C384 1.255 . S
C392 O385 1.287 . S
C392 O386 1.255 . S
O393 Fe375 2.002 1_554 S
O393 C389 1.295 . S
O394 Fe377 1.997 . S
O394 C389 1.235 . S
C395 O378 1.295 . S
C395 O379 1.235 . S
Fe396 O398 1.918 1_455 S
Fe396 O401 1.997 . S
Fe396 O402 2.002 1_455 S
Fe396 O407 1.976 1_455 S
Fe396 O410 1.996 . S
Fe397 O398 1.918 . S
Fe397 O405 1.997 . S
Fe397 O408 1.996 . S
Fe397 O412 1.976 . S
Fe397 O415 2.002 . S
O398 Fe396 1.918 1_655 S
O398 Fe397 1.918 . S
O398 Fe399 1.918 . S
Fe399 O398 1.918 . S
Fe399 O400 2.002 1_655 S
Fe399 O409 1.976 . S
Fe399 O413 1.996 . S
Fe399 O416 1.997 . S
O400 Fe399 2.002 1_455 S
O400 C417 1.295 . S
O401 Fe396 1.997 . S
O401 C417 1.235 . S
O402 Fe396 2.002 1_655 S
O402 C403 1.295 . S
C403 O402 1.295 . S
C403 O405 1.235 . S
C404 O409 1.287 1_455 S
C404 O410 1.255 . S
O405 Fe397 1.997 . S
O405 C403 1.235 . S
C406 O412 1.287 . S
C406 O413 1.255 . S
O407 Fe396 1.976 1_655 S
O407 C414 1.287 . S
O408 Fe397 1.996 . S
O408 C414 1.255 . S
O409 Fe399 1.976 . S
O409 C404 1.287 1_655 S
O410 Fe396 1.996 . S
O410 C404 1.255 . S
C411 O415 1.295 . S
C411 O416 1.235 . S
O412 Fe397 1.976 . S
O412 C406 1.287 . S
O413 Fe399 1.996 . S
O413 C406 1.255 . S
C414 O407 1.287 . S
C414 O408 1.255 . S
O415 Fe397 2.002 . S
O415 C411 1.295 . S
O416 Fe399 1.997 . S
O416 C411 1.235 . S
C417 O400 1.295 . S
C417 O401 1.235 . S
Fe418 O420 1.918 . S
Fe418 O423 1.997 . S
Fe418 O424 2.002 . S
Fe418 O429 1.976 . S
Fe418 O432 1.996 . S
Fe419 O420 1.918 . S
Fe419 O427 1.997 . S
Fe419 O430 1.996 . S
Fe419 O434 1.976 . S
Fe419 O437 2.002 . S
O420 Fe418 1.918 . S
O420 Fe419 1.918 . S
O420 Fe421 1.918 . S
Fe421 O420 1.918 . S
Fe421 O422 2.002 . S
Fe421 O431 1.976 . S
Fe421 O435 1.996 . S
Fe421 O438 1.997 . S
O422 Fe421 2.002 . S
O422 C439 1.295 . S
O423 Fe418 1.997 . S
O423 C439 1.235 . S
O424 Fe418 2.002 . S
O424 C425 1.295 . S
C425 O424 1.295 . S
C425 O427 1.235 . S
C426 O431 1.287 . S
C426 O432 1.255 . S
O427 Fe419 1.997 . S
O427 C425 1.235 . S
C428 O434 1.287 . S
C428 O435 1.255 . S
O429 Fe418 1.976 . S
O429 C436 1.287 . S
O430 Fe419 1.996 . S
O430 C436 1.255 . S
O431 Fe421 1.976 . S
O431 C426 1.287 . S
O432 Fe418 1.996 . S
O432 C426 1.255 . S
C433 O437 1.295 . S
C433 O438 1.235 . S
O434 Fe419 1.976 . S
O434 C428 1.287 . S
O435 Fe421 1.996 . S
O435 C428 1.255 . S
C436 O429 1.287 . S
C436 O430 1.255 . S
O437 Fe419 2.002 . S
O437 C433 1.295 . S
O438 Fe421 1.997 . S
O438 C433 1.235 . S
C439 O422 1.295 . S
C439 O423 1.235 . S
Fe440 O442 1.918 . S
Fe440 O445 1.997 . S
Fe440 O446 2.002 . S
Fe440 O451 1.976 . S
Fe440 O454 1.996 . S
Fe441 O442 1.918 . S
Fe441 O449 1.997 . S
Fe441 O452 1.996 . S
Fe441 O456 1.976 . S
Fe441 O459 2.002 . S
O442 Fe440 1.918 . S
O442 Fe441 1.918 . S
O442 Fe443 1.918 . S
Fe443 O442 1.918 . S
Fe443 O444 2.002 . S
Fe443 O453 1.976 . S
Fe443 O457 1.996 . S
Fe443 O460 1.997 . S
O444 Fe443 2.002 . S
O444 C461 1.295 . S
O445 Fe440 1.997 . S
O445 C461 1.235 . S
O446 Fe440 2.002 . S
O446 C447 1.295 . S
C447 O446 1.295 . S
C447 O449 1.235 . S
C448 O453 1.287 . S
C448 O454 1.255 . S
O449 Fe441 1.997 . S
O449 C447 1.235 . S
C450 O456 1.287 . S
C450 O457 1.255 . S
O451 Fe440 1.976 . S
O451 C458 1.287 . S
O452 Fe441 1.996 . S
O452 C458 1.255 . S
O453 Fe443 1.976 . S
O453 C448 1.287 . S
O454 Fe440 1.996 . S
O454 C448 1.255 . S
C455 O459 1.295 . S
C455 O460 1.235 . S
O456 Fe441 1.976 . S
O456 C450 1.287 . S
O457 Fe443 1.996 . S
O457 C450 1.255 . S
C458 O451 1.287 . S
C458 O452 1.255 . S
O459 Fe441 2.002 . S
O459 C455 1.295 . S
O460 Fe443 1.997 . S
O460 C455 1.235 . S
C461 O444 1.295 . S
C461 O445 1.235 . S
Fe462 O464 1.918 1_554 S
Fe462 O467 1.997 1_554 S
Fe462 O468 2.002 1_554 S
Fe462 O473 1.976 . S
Fe462 O476 1.996 . S
Fe463 O464 1.918 . S
Fe463 O471 1.997 . S
Fe463 O474 1.996 1_556 S
Fe463 O478 1.976 . S
Fe463 O481 2.002 . S
O464 Fe462 1.918 1_556 S
O464 Fe463 1.918 . S
O464 Fe465 1.918 . S
Fe465 O464 1.918 . S
Fe465 O466 2.002 . S
Fe465 O475 1.976 1_556 S
Fe465 O479 1.996 . S
Fe465 O482 1.997 . S
O466 Fe465 2.002 . S
O466 C483 1.295 . S
O467 Fe462 1.997 1_556 S
O467 C483 1.235 . S
O468 Fe462 2.002 1_556 S
O468 C469 1.295 . S
C469 O468 1.295 . S
C469 O471 1.235 . S
C470 O475 1.287 . S
C470 O476 1.255 . S
O471 Fe463 1.997 . S
O471 C469 1.235 . S
C472 O478 1.287 . S
C472 O479 1.255 . S
O473 Fe462 1.976 . S
O473 C480 1.287 . S
O474 Fe463 1.996 1_554 S
O474 C480 1.255 . S
O475 Fe465 1.976 1_554 S
O475 C470 1.287 . S
O476 Fe462 1.996 . S
O476 C470 1.255 . S
C477 O481 1.295 . S
C477 O482 1.235 . S
O478 Fe463 1.976 . S
O478 C472 1.287 . S
O479 Fe465 1.996 . S
O479 C472 1.255 . S
C480 O473 1.287 . S
C480 O474 1.255 . S
O481 Fe463 2.002 . S
O481 C477 1.295 . S
O482 Fe465 1.997 . S
O482 C477 1.235 . S
C483 O466 1.295 . S
C483 O467 1.235 . S
Fe484 O486 1.918 1_455 S
Fe484 O489 1.997 . S
Fe484 O490 2.002 1_455 S
Fe484 O495 1.976 1_455 S
Fe484 O498 1.996 . S
Fe485 O486 1.918 . S
Fe485 O493 1.997 . S
Fe485 O496 1.996 . S
Fe485 O500 1.976 . S
Fe485 O503 2.002 . S
O486 Fe484 1.918 1_655 S
O486 Fe485 1.918 . S
O486 Fe487 1.918 . S
Fe487 O486 1.918 . S
Fe487 O488 2.002 1_655 S
Fe487 O497 1.976 . S
Fe487 O501 1.996 . S
Fe487 O504 1.997 . S
O488 Fe487 2.002 1_455 S
O488 C505 1.295 . S
O489 Fe484 1.997 . S
O489 C505 1.235 . S
O490 Fe484 2.002 1_655 S
O490 C491 1.295 1_554 S
C491 O490 1.295 1_556 S
C491 O493 1.235 1_556 S
C492 O497 1.287 1_455 S
C492 O498 1.255 . S
O493 Fe485 1.997 . S
O493 C491 1.235 1_554 S
C494 O500 1.287 . S
C494 O501 1.255 . S
O495 Fe484 1.976 1_655 S
O495 C502 1.287 . S
O496 Fe485 1.996 . S
O496 C502 1.255 . S
O497 Fe487 1.976 . S
O497 C492 1.287 1_655 S
O498 Fe484 1.996 . S
O498 C492 1.255 . S
C499 O503 1.295 . S
C499 O504 1.235 . S
O500 Fe485 1.976 . S
O500 C494 1.287 . S
O501 Fe487 1.996 . S
O501 C494 1.255 . S
C502 O495 1.287 . S
C502 O496 1.255 . S
O503 Fe485 2.002 . S
O503 C499 1.295 . S
O504 Fe487 1.997 . S
O504 C499 1.235 . S
C505 O488 1.295 . S
C505 O489 1.235 . S
Fe506 O508 1.918 . S
Fe506 O511 1.997 . S
Fe506 O512 2.002 . S
Fe506 O517 1.976 . S
Fe506 O520 1.996 . S
Fe507 O508 1.918 . S
Fe507 O515 1.997 . S
Fe507 O518 1.996 . S
Fe507 O522 1.976 . S
Fe507 O525 2.002 . S
O508 Fe506 1.918 . S
O508 Fe507 1.918 . S
O508 Fe509 1.918 . S
Fe509 O508 1.918 . S
Fe509 O510 2.002 . S
Fe509 O519 1.976 . S
Fe509 O523 1.996 . S
Fe509 O526 1.997 . S
O510 Fe509 2.002 . S
O510 C527 1.295 . S
O511 Fe506 1.997 . S
O511 C527 1.235 . S
O512 Fe506 2.002 . S
O512 C513 1.295 . S
C513 O512 1.295 . S
C513 O515 1.235 . S
C514 O519 1.287 . S
C514 O520 1.255 . S
O515 Fe507 1.997 . S
O515 C513 1.235 . S
C516 O522 1.287 . S
C516 O523 1.255 . S
O517 Fe506 1.976 . S
O517 C524 1.287 . S
O518 Fe507 1.996 . S
O518 C524 1.255 . S
O519 Fe509 1.976 . S
O519 C514 1.287 . S
O520 Fe506 1.996 . S
O520 C514 1.255 . S
C521 O525 1.295 . S
C521 O526 1.235 . S
O522 Fe507 1.976 . S
O522 C516 1.287 . S
O523 Fe509 1.996 . S
O523 C516 1.255 . S
C524 O517 1.287 . S
C524 O518 1.255 . S
O525 Fe507 2.002 . S
O525 C521 1.295 . S
O526 Fe509 1.997 . S
O526 C521 1.235 . S
C527 O510 1.295 . S
C527 O511 1.235 . S
Fe528 O530 1.918 . S
Fe528 O533 1.997 . S
Fe528 O534 2.002 . S
Fe528 O539 1.976 . S
Fe528 O542 1.996 . S
Fe529 O530 1.918 . S
Fe529 O537 1.997 . S
Fe529 O540 1.996 . S
Fe529 O544 1.976 . S
Fe529 O547 2.002 . S
O530 Fe528 1.918 . S
O530 Fe529 1.918 . S
O530 Fe531 1.918 . S
Fe531 O530 1.918 . S
Fe531 O532 2.002 . S
Fe531 O541 1.976 . S
Fe531 O545 1.996 . S
Fe531 O548 1.997 . S
O532 Fe531 2.002 . S
O532 C549 1.295 . S
O533 Fe528 1.997 . S
O533 C549 1.235 . S
O534 Fe528 2.002 . S
O534 C535 1.295 1_554 S
C535 O534 1.295 1_556 S
C535 O537 1.235 1_556 S
C536 O541 1.287 . S
C536 O542 1.255 . S
O537 Fe529 1.997 . S
O537 C535 1.235 1_554 S
C538 O544 1.287 . S
C538 O545 1.255 . S
O539 Fe528 1.976 . S
O539 C546 1.287 . S
O540 Fe529 1.996 . S
O540 C546 1.255 . S
O541 Fe531 1.976 . S
O541 C536 1.287 . S
O542 Fe528 1.996 . S
O542 C536 1.255 . S
C543 O547 1.295 . S
C543 O548 1.235 . S
O544 Fe529 1.976 . S
O544 C538 1.287 . S
O545 Fe531 1.996 . S
O545 C538 1.255 . S
C546 O539 1.287 . S
C546 O540 1.255 . S
O547 Fe529 2.002 . S
O547 C543 1.295 . S
O548 Fe531 1.997 . S
O548 C543 1.235 . S
C549 O532 1.295 . S
C549 O533 1.235 . S
Fe550 O552 1.918 . S
Fe550 O555 1.997 . S
Fe550 O556 2.002 . S
Fe550 O561 1.976 1_556 S
Fe550 O564 1.996 . S
Fe551 O552 1.918 1_554 S
Fe551 O559 1.997 1_554 S
Fe551 O562 1.996 . S
Fe551 O566 1.976 . S
Fe551 O569 2.002 1_554 S
O552 Fe550 1.918 . S
O552 Fe551 1.918 1_556 S
O552 Fe553 1.918 . S
Fe553 O552 1.918 . S
Fe553 O554 2.002 . S
Fe553 O563 1.976 . S
Fe553 O567 1.996 1_556 S
Fe553 O570 1.997 . S
O554 Fe553 2.002 . S
O554 C571 1.295 . S
O555 Fe550 1.997 . S
O555 C571 1.235 . S
O556 Fe550 2.002 . S
O556 C557 1.295 . S
C557 O556 1.295 . S
C557 O559 1.235 . S
C558 O563 1.287 . S
C558 O564 1.255 . S
O559 Fe551 1.997 1_556 S
O559 C557 1.235 . S
C560 O566 1.287 . S
C560 O567 1.255 . S
O561 Fe550 1.976 1_554 S
O561 C568 1.287 . S
O562 Fe551 1.996 . S
O562 C568 1.255 . S
O563 Fe553 1.976 . S
O563 C558 1.287 . S
O564 Fe550 1.996 . S
O564 C558 1.255 . S
C565 O569 1.295 . S
C565 O570 1.235 . S
O566 Fe551 1.976 . S
O566 C560 1.287 . S
O567 Fe553 1.996 1_554 S
O567 C560 1.255 . S
C568 O561 1.287 . S
C568 O562 1.255 . S
O569 Fe551 2.002 1_556 S
O569 C565 1.295 . S
O570 Fe553 1.997 . S
O570 C565 1.235 . S
C571 O554 1.295 . S
C571 O555 1.235 . S
Fe572 O574 1.918 . S
Fe572 O577 1.997 . S
Fe572 O578 2.002 . S
Fe572 O583 1.976 . S
Fe572 O586 1.996 . S
Fe573 O574 1.918 1_655 S
Fe573 O581 1.997 1_655 S
Fe573 O584 1.996 1_655 S
Fe573 O588 1.976 . S
Fe573 O591 2.002 . S
O574 Fe572 1.918 . S
O574 Fe573 1.918 1_455 S
O574 Fe575 1.918 . S
Fe575 O574 1.918 . S
Fe575 O576 2.002 . S
Fe575 O585 1.976 . S
Fe575 O589 1.996 . S
Fe575 O592 1.997 1_455 S
O576 Fe575 2.002 . S
O576 C593 1.295 . S
O577 Fe572 1.997 . S
O577 C593 1.235 . S
O578 Fe572 2.002 . S
O578 C579 1.295 . S
C579 O578 1.295 . S
C579 O581 1.235 . S
C580 O585 1.287 . S
C580 O586 1.255 . S
O581 Fe573 1.997 1_455 S
O581 C579 1.235 . S
C582 O588 1.287 . S
C582 O589 1.255 1_655 S
O583 Fe572 1.976 . S
O583 C590 1.287 . S
O584 Fe573 1.996 1_455 S
O584 C590 1.255 . S
O585 Fe575 1.976 . S
O585 C580 1.287 . S
O586 Fe572 1.996 . S
O586 C580 1.255 . S
C587 O591 1.295 . S
C587 O592 1.235 . S
O588 Fe573 1.976 . S
O588 C582 1.287 . S
O589 Fe575 1.996 . S
O589 C582 1.255 1_455 S
C590 O583 1.287 . S
C590 O584 1.255 . S
O591 Fe573 2.002 . S
O591 C587 1.295 . S
O592 Fe575 1.997 1_655 S
O592 C587 1.235 . S
C593 O576 1.295 . S
C593 O577 1.235 . S
Fe594 O596 1.918 . S
Fe594 O599 1.997 . S
Fe594 O600 2.002 . S
Fe594 O605 1.976 . S
Fe594 O608 1.996 . S
Fe595 O596 1.918 . S
Fe595 O603 1.997 . S
Fe595 O606 1.996 . S
Fe595 O610 1.976 . S
Fe595 O613 2.002 . S
O596 Fe594 1.918 . S
O596 Fe595 1.918 . S
O596 Fe597 1.918 . S
Fe597 O596 1.918 . S
Fe597 O598 2.002 . S
Fe597 O607 1.976 . S
Fe597 O611 1.996 . S
Fe597 O614 1.997 . S
O598 Fe597 2.002 . S
O598 C615 1.295 . S
O599 Fe594 1.997 . S
O599 C615 1.235 . S
O600 Fe594 2.002 . S
O600 C601 1.295 . S
C601 O600 1.295 . S
C601 O603 1.235 . S
C602 O607 1.287 . S
C602 O608 1.255 . S
O603 Fe595 1.997 . S
O603 C601 1.235 . S
C604 O610 1.287 . S
C604 O611 1.255 . S
O605 Fe594 1.976 . S
O605 C612 1.287 . S
O606 Fe595 1.996 . S
O606 C612 1.255 . S
O607 Fe597 1.976 . S
O607 C602 1.287 . S
O608 Fe594 1.996 . S
O608 C602 1.255 . S
C609 O613 1.295 . S
C609 O614 1.235 . S
O610 Fe595 1.976 . S
O610 C604 1.287 . S
O611 Fe597 1.996 . S
O611 C604 1.255 . S
C612 O605 1.287 . S
C612 O606 1.255 . S
O613 Fe595 2.002 . S
O613 C609 1.295 . S
O614 Fe597 1.997 . S
O614 C609 1.235 . S
C615 O598 1.295 . S
C615 O599 1.235 . S
Fe616 O618 1.918 . S
Fe616 O621 1.997 . S
Fe616 O622 2.002 . S
Fe616 O627 1.976 . S
Fe616 O630 1.996 . S
Fe617 O618 1.918 . S
Fe617 O625 1.997 . S
Fe617 O628 1.996 . S
Fe617 O632 1.976 . S
Fe617 O635 2.002 . S
O618 Fe616 1.918 . S
O618 Fe617 1.918 . S
O618 Fe619 1.918 . S
Fe619 O618 1.918 . S
Fe619 O620 2.002 . S
Fe619 O629 1.976 . S
Fe619 O633 1.996 . S
Fe619 O636 1.997 . S
O620 Fe619 2.002 . S
O620 C637 1.295 . S
O621 Fe616 1.997 . S
O621 C637 1.235 . S
O622 Fe616 2.002 . S
O622 C623 1.295 . S
C623 O622 1.295 . S
C623 O625 1.235 . S
C624 O629 1.287 . S
C624 O630 1.255 . S
O625 Fe617 1.997 . S
O625 C623 1.235 . S
C626 O632 1.287 . S
C626 O633 1.255 . S
O627 Fe616 1.976 . S
O627 C634 1.287 . S
O628 Fe617 1.996 . S
O628 C634 1.255 . S
O629 Fe619 1.976 . S
O629 C624 1.287 . S
O630 Fe616 1.996 . S
O630 C624 1.255 . S
C631 O635 1.295 . S
C631 O636 1.235 . S
O632 Fe617 1.976 . S
O632 C626 1.287 . S
O633 Fe619 1.996 . S
O633 C626 1.255 . S
C634 O627 1.287 . S
C634 O628 1.255 . S
O635 Fe617 2.002 . S
O635 C631 1.295 . S
O636 Fe619 1.997 . S
O636 C631 1.235 . S
C637 O620 1.295 . S
C637 O621 1.235 . S
Fe638 O640 1.918 . S
Fe638 O643 1.997 . S
Fe638 O644 2.002 . S
Fe638 O649 1.976 . S
Fe638 O652 1.996 1_554 S
Fe639 O640 1.918 . S
Fe639 O647 1.997 . S
Fe639 O650 1.996 . S
Fe639 O654 1.976 1_554 S
Fe639 O657 2.002 . S
O640 Fe638 1.918 . S
O640 Fe639 1.918 . S
O640 Fe641 1.918 1_554 S
Fe641 O640 1.918 1_556 S
Fe641 O642 2.002 1_556 S
Fe641 O651 1.976 . S
Fe641 O655 1.996 . S
Fe641 O658 1.997 1_556 S
O642 Fe641 2.002 1_554 S
O642 C659 1.295 . S
O643 Fe638 1.997 . S
O643 C659 1.235 . S
O644 Fe638 2.002 . S
O644 C645 1.295 . S
C645 O644 1.295 . S
C645 O647 1.235 . S
C646 O651 1.287 . S
C646 O652 1.255 . S
O647 Fe639 1.997 . S
O647 C645 1.235 . S
C648 O654 1.287 . S
C648 O655 1.255 . S
O649 Fe638 1.976 . S
O649 C656 1.287 . S
O650 Fe639 1.996 . S
O650 C656 1.255 . S
O651 Fe641 1.976 . S
O651 C646 1.287 . S
O652 Fe638 1.996 1_556 S
O652 C646 1.255 . S
C653 O657 1.295 . S
C653 O658 1.235 . S
O654 Fe639 1.976 1_556 S
O654 C648 1.287 . S
O655 Fe641 1.996 . S
O655 C648 1.255 . S
C656 O649 1.287 . S
C656 O650 1.255 . S
O657 Fe639 2.002 . S
O657 C653 1.295 . S
O658 Fe641 1.997 1_554 S
O658 C653 1.235 . S
C659 O642 1.295 . S
C659 O643 1.235 . S
Fe660 O662 1.918 . S
Fe660 O665 1.997 . S
Fe660 O666 2.002 . S
Fe660 O671 1.976 . S
Fe660 O674 1.996 . S
Fe661 O662 1.918 1_655 S
Fe661 O669 1.997 1_655 S
Fe661 O672 1.996 1_655 S
Fe661 O676 1.976 . S
Fe661 O679 2.002 . S
O662 Fe660 1.918 . S
O662 Fe661 1.918 1_455 S
O662 Fe663 1.918 . S
Fe663 O662 1.918 . S
Fe663 O664 2.002 . S
Fe663 O673 1.976 . S
Fe663 O677 1.996 . S
Fe663 O680 1.997 1_455 S
O664 Fe663 2.002 . S
O664 C681 1.295 . S
O665 Fe660 1.997 . S
O665 C681 1.235 . S
O666 Fe660 2.002 . S
O666 C667 1.295 1_556 S
C667 O666 1.295 1_554 S
C667 O669 1.235 1_554 S
C668 O673 1.287 . S
C668 O674 1.255 . S
O669 Fe661 1.997 1_455 S
O669 C667 1.235 1_556 S
C670 O676 1.287 . S
C670 O677 1.255 1_655 S
O671 Fe660 1.976 . S
O671 C678 1.287 . S
O672 Fe661 1.996 1_455 S
O672 C678 1.255 . S
O673 Fe663 1.976 . S
O673 C668 1.287 . S
O674 Fe660 1.996 . S
O674 C668 1.255 . S
C675 O679 1.295 . S
C675 O680 1.235 . S
O676 Fe661 1.976 . S
O676 C670 1.287 . S
O677 Fe663 1.996 . S
O677 C670 1.255 1_455 S
C678 O671 1.287 . S
C678 O672 1.255 . S
O679 Fe661 2.002 . S
O679 C675 1.295 . S
O680 Fe663 1.997 1_655 S
O680 C675 1.235 . S
C681 O664 1.295 . S
C681 O665 1.235 . S
Fe682 O684 1.918 . S
Fe682 O687 1.997 . S
Fe682 O688 2.002 . S
Fe682 O693 1.976 . S
Fe682 O696 1.996 . S
Fe683 O684 1.918 . S
Fe683 O691 1.997 . S
Fe683 O694 1.996 . S
Fe683 O698 1.976 . S
Fe683 O701 2.002 . S
O684 Fe682 1.918 . S
O684 Fe683 1.918 . S
O684 Fe685 1.918 . S
Fe685 O684 1.918 . S
Fe685 O686 2.002 . S
Fe685 O695 1.976 . S
Fe685 O699 1.996 . S
Fe685 O702 1.997 . S
O686 Fe685 2.002 . S
O686 C703 1.295 . S
O687 Fe682 1.997 . S
O687 C703 1.235 . S
O688 Fe682 2.002 . S
O688 C689 1.295 . S
C689 O688 1.295 . S
C689 O691 1.235 . S
C690 O695 1.287 . S
C690 O696 1.255 . S
O691 Fe683 1.997 . S
O691 C689 1.235 . S
C692 O698 1.287 . S
C692 O699 1.255 . S
O693 Fe682 1.976 . S
O693 C700 1.287 . S
O694 Fe683 1.996 . S
O694 C700 1.255 . S
O695 Fe685 1.976 . S
O695 C690 1.287 . S
O696 Fe682 1.996 . S
O696 C690 1.255 . S
C697 O701 1.295 . S
C697 O702 1.235 . S
O698 Fe683 1.976 . S
O698 C692 1.287 . S
O699 Fe685 1.996 . S
O699 C692 1.255 . S
C700 O693 1.287 . S
C700 O694 1.255 . S
O701 Fe683 2.002 . S
O701 C697 1.295 . S
O702 Fe685 1.997 . S
O702 C697 1.235 . S
C703 O686 1.295 . S
C703 O687 1.235 . S
C10 C96 1.576 1_545 S
C30 C128 1.576 . S
C150 C62 1.576 1_545 S
C172 C76 1.576 1_556 S
C194 C272 1.533 1_565 S
C304 C208 1.533 . S
C326 C238 1.533 1_565 S
C338 C252 1.533 1_554 S
C448 C362 1.576 . S
C472 C382 1.576 1_556 S
C502 C414 1.576 . S
C524 C426 1.576 . S
C634 C546 1.533 . S
C656 C558 1.533 1_554 S
C590 C678 1.533 . S
C690 C604 1.533 . S
C18 C285 1.881 . S
C645 C32 1.881 . S
C52 C315 1.881 . S
C84 C703 1.881 . S
C183 C98 1.881 . S
C118 C571 1.881 . S
C227 C140 1.881 . S
C609 C162 1.881 . S
C109 C186 1.891 . S
C206 C477 1.891 . S
C139 C230 1.891 . S
C513 C250 1.891 . S
C15 C282 1.891 . S
C296 C395 1.891 . S
C318 C51 1.891 . S
C439 C348 1.891 . S
C623 C370 1.881 . S
C384 C293 1.881 . S
C404 C667 1.881 . S
C428 C351 1.881 . S
C535 C450 1.881 . S
C480 C213 1.881 . S
C579 C492 1.881 . S
C257 C514 1.881 . S
C461 C538 1.891 . S
C117 C568 1.891 . S
C491 C582 1.891 . S
C161 C602 1.891 . S
C367 C626 1.891 . S
C43 C648 1.891 . S
C403 C670 1.891 . S
C81 C700 1.891 . S
C615 C21 1.505 . S
C29 C191 1.505 . S
C557 C59 1.505 . S
C87 C235 1.505 . S
C653 C95 1.505 . S
C323 C125 1.505 . S
C689 C147 1.505 . S
C169 C271 1.505 . S
C197 C433 1.514 . S
C205 C7 1.514 . S
C389 C241 1.514 . S
C65 C249 1.514 . S
C279 C469 1.514 . S
C307 C153 1.514 . S
C527 C329 1.514 . S
C103 C345 1.514 . S
C263 C373 1.505 . S
C381 C543 1.505 . S
C219 C411 1.505 . S
C587 C425 1.505 . S
C301 C447 1.505 . S
C483 C675 1.505 . S
C499 C337 1.505 . S
C631 C521 1.505 . S
C73 C549 1.514 . S
C359 C565 1.514 . S
C593 C37 1.514 . S
C601 C417 1.514 . S
C131 C637 1.514 . S
C505 C659 1.514 . S
C681 C175 1.514 . S
C455 C697 1.514 . S
C164 C8 1.236 . S
C40 C106 1.236 . S
C54 C120 1.236 . S
C142 C74 1.236 . S
C184 C340 1.320 . S
C274 C216 1.320 . S
C294 C228 1.320 . S
C260 C316 1.320 . S
C360 C516 1.236 . S
C458 C392 1.236 . S
C470 C406 1.236 . S
C494 C436 1.236 . S
C536 C692 1.320 . S
C624 C560 1.320 . S
C580 C646 1.320 . S
C668 C612 1.320 . S
