# Generated by pormake.
# Topology umx, (4)-cn, num edge types: 1
# Building blocks:
#     Node 0, Type 0, BuildingBlock: CEKHIL_clean_sbu_0, # of connection points: 4
#     Node 1, Type 0, BuildingBlock: CEKHIL_clean_sbu_0, # of connection points: 4
#     Node 2, Type 0, BuildingBlock: CEKHIL_clean_sbu_0, # of connection points: 4
#     Node 3, Type 0, BuildingBlock: CEKHIL_clean_sbu_0, # of connection points: 4
#     Node 4, Type 0, BuildingBlock: CEKHIL_clean_sbu_0, # of connection points: 4
#     Node 5, Type 0, BuildingBlock: CEKHIL_clean_sbu_0, # of connection points: 4
#     Node 6, Type 0, BuildingBlock: CEKHIL_clean_sbu_0, # of connection points: 4
#     Node 7, Type 0, BuildingBlock: CEKHIL_clean_sbu_0, # of connection points: 4
#     Edge 8, Type (0, 0), BuildingBlock: UVAHIK_clean_linker_0, # of connection points: 2
#     Edge 9, Type (0, 0), BuildingBlock: UVAHIK_clean_linker_0, # of connection points: 2
#     Edge 10, Type (0, 0), BuildingBlock: UVAHIK_clean_linker_0, # of connection points: 2
#     Edge 11, Type (0, 0), BuildingBlock: UVAHIK_clean_linker_0, # of connection points: 2
#     Edge 12, Type (0, 0), BuildingBlock: UVAHIK_clean_linker_0, # of connection points: 2
#     Edge 13, Type (0, 0), BuildingBlock: UVAHIK_clean_linker_0, # of connection points: 2
#     Edge 14, Type (0, 0), BuildingBlock: UVAHIK_clean_linker_0, # of connection points: 2
#     Edge 15, Type (0, 0), BuildingBlock: UVAHIK_clean_linker_0, # of connection points: 2
#     Edge 16, Type (0, 0), BuildingBlock: UVAHIK_clean_linker_0, # of connection points: 2
#     Edge 17, Type (0, 0), BuildingBlock: UVAHIK_clean_linker_0, # of connection points: 2
#     Edge 18, Type (0, 0), BuildingBlock: UVAHIK_clean_linker_0, # of connection points: 2
#     Edge 19, Type (0, 0), BuildingBlock: UVAHIK_clean_linker_0, # of connection points: 2
#     Edge 20, Type (0, 0), BuildingBlock: UVAHIK_clean_linker_0, # of connection points: 2
#     Edge 21, Type (0, 0), BuildingBlock: UVAHIK_clean_linker_0, # of connection points: 2
#     Edge 22, Type (0, 0), BuildingBlock: UVAHIK_clean_linker_0, # of connection points: 2
#     Edge 23, Type (0, 0), BuildingBlock: UVAHIK_clean_linker_0, # of connection points: 2
# Relax obj value: 0.077
# Max RMSD: 0.187
# Mean RMSD: 0.187
data_MOF--net-umx--node1-CEKHIL_clean_sbu_0--edge1-UVAHIK_clean_linker_0
_symmetry_space_group_name_H-M    P1
_symmetry_Int_Tables_number       1
_symmetry_cell_setting            triclinic
loop_
_symmetry_equiv_pos_as_xyz
'x, y, z'
_cell_length_a     50.195324
_cell_length_b     50.239299
_cell_length_c     36.366345
_cell_angle_alpha  89.961699
_cell_angle_beta   90.105537
_cell_angle_gamma 89.992105
loop_
_atom_site_label
_atom_site_type_symbol
_atom_site_fract_x
_atom_site_fract_y
_atom_site_fract_z
_atom_type_partial_charge
Co0 Co 0.19204 0.44198 0.00726 0.0
O1 O 0.22509 0.42314 0.00657 0.0
O2 O 0.18776 0.40732 0.03041 0.0
C3 C 0.19337 0.45422 0.94783 0.0
O4 O 0.15397 0.45612 0.01122 0.0
Co5 Co 0.19216 0.50286 -0.00737 0.0
O6 O 0.15369 0.4964 0.9839 0.0
C7 C 0.20868 0.48259 0.06537 0.0
C8 C 0.21272 0.40354 0.02215 0.0
C9 C 0.14165 0.47637 -0.00247 0.0
O10 O 0.202 0.45892 0.05553 0.0
O11 O 0.20787 0.50262 0.04356 0.0
O12 O 0.18479 0.43082 0.95711 0.0
O13 O 0.20313 0.46846 0.97424 0.0
Co14 Co 0.55704 0.18981 0.51325 0.0
O15 O 0.57797 0.22161 0.51521 0.0
O16 O 0.59169 0.18204 0.53458 0.0
C17 C 0.54346 0.19484 0.45485 0.0
O18 O 0.54069 0.15254 0.51423 0.0
Co19 Co 0.49589 0.19453 0.50225 0.0
O20 O 0.49811 0.15552 0.49515 0.0
C21 C 0.51921 0.20667 0.57461 0.0
C22 C 0.59678 0.20717 0.52933 0.0
C23 C 0.51838 0.14182 0.50461 0.0
O24 O 0.54191 0.19827 0.56308 0.0
O25 O 0.49865 0.20855 0.55388 0.0
O26 O 0.56661 0.18459 0.46213 0.0
O27 O 0.53045 0.20412 0.48271 0.0
Co28 Co 0.80942 0.55671 0.0149 0.0
O29 O 0.77571 0.57429 0.01281 0.0
O30 O 0.81246 0.59233 0.03547 0.0
C31 C 0.80856 0.54217 0.95651 0.0
O32 O 0.84803 0.54415 0.01972 0.0
Co33 Co 0.81141 0.49544 0.00538 0.0
O34 O 0.84949 0.50296 -0.00462 0.0
C35 C 0.7942 0.51802 0.07623 0.0
C36 C 0.78735 0.59487 0.027 0.0
C37 C 0.86094 0.52391 0.00719 0.0
O38 O 0.8001 0.54141 0.06436 0.0
O39 O 0.79578 0.49709 0.05624 0.0
O40 O 0.81623 0.5662 0.9641 0.0
O41 O 0.79926 0.52857 0.98388 0.0
Co42 Co 0.44611 0.80771 0.50881 0.0
O43 O 0.42717 0.77489 0.50484 0.0
O44 O 0.41124 0.81097 0.53188 0.0
C45 C 0.4587 0.80932 0.44955 0.0
O46 O 0.46053 0.84542 0.5162 0.0
Co47 Co 0.50715 0.80629 0.49588 0.0
O48 O 0.50362 0.84546 0.49867 0.0
C49 C 0.48575 0.78687 0.56604 0.0
C50 C 0.40754 0.78642 0.52147 0.0
C51 C 0.48274 0.85747 0.50975 0.0
O52 O 0.46257 0.79536 0.55647 0.0
O53 O 0.50592 0.78743 0.54455 0.0
O54 O 0.43528 0.81752 0.45941 0.0
O55 O 0.47265 0.79792 0.47505 0.0
Co56 Co 0.18946 0.55777 0.51448 0.0
O57 O 0.22175 0.57793 0.51309 0.0
O58 O 0.18274 0.59243 0.49253 0.0
C59 C 0.19334 0.54447 0.57318 0.0
O60 O 0.15186 0.54204 0.51294 0.0
Co61 Co 0.19348 0.49666 0.52598 0.0
O62 O 0.15463 0.50001 0.53418 0.0
C63 C 0.20638 0.51934 0.45364 0.0
C64 C 0.20796 0.59692 0.4983 0.0
C65 C 0.14102 0.52014 0.52393 0.0
O66 O 0.19821 0.54216 0.46497 0.0
O67 O 0.20781 0.49883 0.47449 0.0
O68 O 0.18376 0.5678 0.56537 0.0
O69 O 0.20287 0.53119 0.54571 0.0
Co70 Co 0.44178 0.19063 0.02096 0.0
O71 O 0.42086 0.22234 0.01712 0.0
O72 O 0.40819 0.18267 -0.00316 0.0
C73 C 0.45283 0.1958 0.08038 0.0
O74 O 0.45821 0.15343 0.02144 0.0
Co75 Co 0.50235 0.19538 0.03733 0.0
O76 O 0.50002 0.15628 0.04357 0.0
C77 C 0.48229 0.20768 0.9631 0.0
C78 C 0.40277 0.20777 0.00155 0.0
C79 C 0.48014 0.14266 0.03252 0.0
O80 O 0.45913 0.19909 0.97247 0.0
O81 O 0.50177 0.20969 0.98573 0.0
O82 O 0.43005 0.18546 0.07136 0.0
O83 O 0.46693 0.20501 0.05351 0.0
Co84 Co 0.80777 0.44135 0.52212 0.0
O85 O 0.77503 0.42199 0.52211 0.0
O86 O 0.81274 0.40692 0.49853 0.0
C87 C 0.80605 0.45313 0.58166 0.0
O88 O 0.84563 0.45627 0.51898 0.0
Co89 Co 0.80582 0.50215 0.5371 0.0
O90 O 0.84461 0.4971 0.5445 0.0
C91 C 0.79031 0.48189 0.46415 0.0
C92 C 0.78775 0.40275 0.50629 0.0
C93 C 0.85734 0.4772 0.53172 0.0
O94 O 0.79782 0.45843 0.4739 0.0
O95 O 0.7902 0.5018 0.48615 0.0
O96 O 0.81495 0.4299 0.57216 0.0
O97 O 0.79602 0.46735 0.55538 0.0
Co98 Co 0.55497 0.80988 0.01334 0.0
O99 O 0.57529 0.77769 0.01412 0.0
O100 O 0.58966 0.81604 -0.00867 0.0
C101 C 0.54147 0.80799 0.07204 0.0
O102 O 0.53923 0.8473 0.00942 0.0
Co103 Co 0.49384 0.80586 0.0237 0.0
O104 O 0.49598 0.84517 0.02572 0.0
C105 C 0.51717 0.79031 0.95304 0.0
C106 C 0.59426 0.79107 -0.00138 0.0
C107 C 0.51664 0.85837 0.01661 0.0
O108 O 0.5397 0.79942 0.9642 0.0
O109 O 0.49651 0.78924 0.97357 0.0
O110 O 0.5648 0.81732 0.06378 0.0
O111 O 0.52824 0.79741 0.04514 0.0
C112 C 0.22054 0.5131 0.11757 0.0
C113 C 0.21612 0.48715 0.10437 0.0
C114 C 0.22482 0.51763 0.15502 0.0
C115 C 0.2414 0.48485 0.24352 0.0
H116 H 0.19782 0.54096 0.28508 0.0
C117 C 0.21631 0.49126 0.39824 0.0
C118 C 0.21341 0.51655 0.41427 0.0
C119 C 0.22087 0.4887 0.36049 0.0
C120 C 0.21054 0.52553 0.27397 0.0
H121 H 0.21415 0.44549 0.12015 0.0
H122 H 0.22142 0.4535 0.18539 0.0
H123 H 0.19891 0.53477 0.21886 0.0
H124 H 0.21443 0.55904 0.40341 0.0
H125 H 0.22285 0.55456 0.33785 0.0
H126 H 0.2527 0.47538 0.29883 0.0
C127 C 0.22168 0.47031 0.16674 0.0
C128 C 0.21115 0.52198 0.23593 0.0
C129 C 0.21732 0.46576 0.12931 0.0
C130 C 0.2162 0.53923 0.39192 0.0
C131 C 0.22094 0.53667 0.35426 0.0
C132 C 0.24088 0.48847 0.28165 0.0
C133 C 0.22488 0.49635 0.18011 0.0
C134 C 0.22629 0.50139 0.22029 0.0
C135 C 0.2228 0.51138 0.33795 0.0
C136 C 0.22515 0.50865 0.29736 0.0
H137 H 0.21995 0.53006 0.09919 0.0
H138 H 0.22762 0.53789 0.16445 0.0
H139 H 0.2535 0.469 0.23223 0.0
H140 H 0.21424 0.47336 0.4146 0.0
H141 H 0.2219 0.46891 0.34881 0.0
C142 C 0.49132 0.21651 0.63016 0.0
C143 C 0.51659 0.21337 0.6141 0.0
C144 C 0.48885 0.2207 0.66798 0.0
C145 C 0.52556 0.20898 0.75433 0.0
H146 H 0.46934 0.25206 0.79671 0.0
C147 C 0.51294 0.21887 0.9109 0.0
C148 C 0.48696 0.21432 0.92393 0.0
C149 C 0.51757 0.22294 0.87345 0.0
C150 C 0.4851 0.23993 0.78521 0.0
H151 H 0.55913 0.21357 0.62499 0.0
H152 H 0.5548 0.22138 0.69074 0.0
H153 H 0.47589 0.25195 0.73014 0.0
H154 H 0.44535 0.21174 0.90789 0.0
H155 H 0.45351 0.21876 0.84259 0.0
H156 H 0.53458 0.19674 0.80928 0.0
C157 C 0.53686 0.21993 0.67426 0.0
C158 C 0.48882 0.2398 0.74712 0.0
C159 C 0.53934 0.21556 0.63651 0.0
C160 C 0.46563 0.215 0.89881 0.0
C161 C 0.47026 0.21923 0.8614 0.0
C162 C 0.52193 0.20924 0.79236 0.0
C163 C 0.51158 0.22203 0.69058 0.0
C164 C 0.50886 0.22401 0.73119 0.0
C165 C 0.49632 0.22274 0.84825 0.0
C166 C 0.50144 0.22441 0.80817 0.0
H167 H 0.47337 0.2149 0.61374 0.0
H168 H 0.46905 0.22191 0.67965 0.0
H169 H 0.54087 0.19621 0.74303 0.0
H170 H 0.52984 0.2186 0.92945 0.0
H171 H 0.53784 0.2259 0.86413 0.0
C172 C 0.77778 0.51217 0.41191 0.0
C173 C 0.78294 0.48635 0.4251 0.0
C174 C 0.77342 0.51664 0.37444 0.0
C175 C 0.75802 0.48325 0.28591 0.0
H176 H 0.79941 0.54097 0.24422 0.0
C177 C 0.7846 0.48986 0.13175 0.0
C178 C 0.78642 0.51515 0.11535 0.0
C179 C 0.77956 0.48735 0.16939 0.0
C180 C 0.7873 0.52507 0.25538 0.0
H181 H 0.78622 0.44479 0.40927 0.0
H182 H 0.77885 0.45267 0.34404 0.0
H183 H 0.79838 0.53489 0.31049 0.0
H184 H 0.78291 0.55761 0.12545 0.0
H185 H 0.77377 0.55317 0.19084 0.0
H186 H 0.74739 0.47314 0.23058 0.0
C187 C 0.77803 0.46945 0.36269 0.0
C188 C 0.78672 0.52159 0.29345 0.0
C189 C 0.78246 0.46497 0.40013 0.0
C190 C 0.78199 0.53782 0.1372 0.0
C191 C 0.77684 0.53529 0.17476 0.0
C192 C 0.75855 0.48678 0.24777 0.0
C193 C 0.77402 0.49539 0.34933 0.0
C194 C 0.77241 0.50041 0.30913 0.0
C195 C 0.77611 0.51006 0.19146 0.0
C196 C 0.77352 0.50751 0.23203 0.0
H197 H 0.77782 0.5291 0.43033 0.0
H198 H 0.76999 0.53681 0.36504 0.0
H199 H 0.74654 0.46694 0.29723 0.0
H200 H 0.7879 0.47197 0.1158 0.0
H201 H 0.7794 0.46763 0.1814 0.0
C202 C 0.538 0.77804 0.89286 0.0
C203 C 0.51494 0.78182 0.91414 0.0
C204 C 0.53606 0.77224 0.85541 0.0
C205 C 0.48879 0.75184 0.78146 0.0
H206 H 0.53678 0.79241 0.7196 0.0
C207 C 0.46807 0.77672 0.62902 0.0
C208 C 0.48972 0.77793 0.60455 0.0
C209 C 0.4722 0.7715 0.66634 0.0
C210 C 0.52354 0.78052 0.7364 0.0
H211 H 0.47173 0.78141 0.91294 0.0
H212 H 0.46835 0.77193 0.84742 0.0
H213 H 0.54207 0.79388 0.78591 0.0
H214 H 0.53256 0.77293 0.59996 0.0
H215 H 0.53967 0.76378 0.66503 0.0
H216 H 0.46969 0.73932 0.7316 0.0
C217 C 0.48796 0.77302 0.85979 0.0
C218 C 0.52658 0.78135 0.77452 0.0
C219 C 0.48989 0.77863 0.89737 0.0
C220 C 0.51543 0.77239 0.618 0.0
C221 C 0.51955 0.76725 0.65534 0.0
C222 C 0.48568 0.75112 0.74323 0.0
C223 C 0.51103 0.77028 0.83821 0.0
C224 C 0.50902 0.76733 0.79759 0.0
C225 C 0.49807 0.76742 0.68007 0.0
C226 C 0.5028 0.76576 0.72033 0.0
H227 H 0.55763 0.77996 0.90499 0.0
H228 H 0.55423 0.76969 0.8398 0.0
H229 H 0.47519 0.74047 0.79839 0.0
H230 H 0.44796 0.7807 0.61964 0.0
H231 H 0.45525 0.77194 0.68472 0.0
C232 C 0.81173 0.44357 0.6483 0.0
C233 C 0.80721 0.46217 0.62011 0.0
C234 C 0.81258 0.45168 0.68493 0.0
C235 C 0.82707 0.5079 0.74378 0.0
H236 H 0.78195 0.47261 0.81526 0.0
C237 C 0.81344 0.54952 0.88934 0.0
C238 C 0.80982 0.53178 0.91872 0.0
C239 C 0.81406 0.54027 0.85326 0.0
C240 C 0.79506 0.48237 0.79587 0.0
H241 H 0.80043 0.50385 0.60787 0.0
H242 H 0.80254 0.51821 0.67227 0.0
H243 H 0.78128 0.45811 0.75127 0.0
H244 H 0.80457 0.49038 0.93369 0.0
H245 H 0.80663 0.47391 0.87052 0.0
H246 H 0.84152 0.53167 0.78817 0.0
C247 C 0.80518 0.49732 0.66582 0.0
C248 C 0.7945 0.47417 0.7592 0.0
C249 C 0.80386 0.48912 0.62912 0.0
C250 C 0.8072 0.50449 0.91145 0.0
C251 C 0.80824 0.49512 0.87525 0.0
C252 C 0.82798 0.51583 0.78053 0.0
C253 C 0.80937 0.47861 0.69398 0.0
C254 C 0.8103 0.48705 0.73283 0.0
C255 C 0.81152 0.51295 0.84568 0.0
C256 C 0.81173 0.50339 0.80699 0.0
H257 H 0.81434 0.42264 0.64212 0.0
H258 H 0.81602 0.43695 0.70618 0.0
H259 H 0.83973 0.51785 0.72396 0.0
H260 H 0.81529 0.57072 0.89412 0.0
H261 H 0.816 0.55469 0.83129 0.0
C262 C 0.50453 0.80668 0.11831 0.0
C263 C 0.53176 0.80856 0.11017 0.0
C264 C 0.49585 0.808 0.15484 0.0
C265 C 0.51932 0.82783 0.24847 0.0
H266 H 0.45962 0.78489 0.28079 0.0
C267 C 0.49405 0.80625 0.40121 0.0
C268 C 0.46745 0.81105 0.41101 0.0
C269 C 0.50173 0.80717 0.36427 0.0
C270 C 0.47626 0.79706 0.272 0.0
H271 H 0.57134 0.81251 0.13347 0.0
H272 H 0.55652 0.81351 0.1968 0.0
H273 H 0.47294 0.78387 0.21633 0.0
H274 H 0.42806 0.8207 0.39014 0.0
H275 H 0.44143 0.82173 0.32574 0.0
H276 H 0.52308 0.84016 0.30466 0.0
C277 C 0.54161 0.81213 0.17534 0.0
C278 C 0.48379 0.79665 0.23505 0.0
C279 C 0.55016 0.81133 0.13897 0.0
C280 C 0.44873 0.81693 0.38339 0.0
C281 C 0.4563 0.8174 0.34655 0.0
C282 C 0.51206 0.82785 0.28549 0.0
C283 C 0.51434 0.81076 0.18382 0.0
C284 C 0.50552 0.81194 0.22282 0.0
C285 C 0.48281 0.81244 0.33667 0.0
C286 C 0.49052 0.81243 0.29753 0.0
H287 H 0.48995 0.8047 0.09648 0.0
H288 H 0.47467 0.80723 0.16026 0.0
H289 H 0.53572 0.84039 0.23999 0.0
H290 H 0.50886 0.80174 0.422 0.0
H291 H 0.52231 0.80322 0.35717 0.0
C292 C 0.18805 0.44501 0.881 0.0
C293 C 0.19236 0.46344 0.90943 0.0
C294 C 0.18771 0.45331 0.84442 0.0
C295 C 0.1746 0.50999 0.78559 0.0
H296 H 0.22072 0.47483 0.71524 0.0
C297 C 0.18958 0.55198 0.64044 0.0
C298 C 0.19311 0.53423 0.6111 0.0
C299 C 0.18915 0.54274 0.67655 0.0
C300 C 0.20736 0.48457 0.73431 0.0
H301 H 0.19919 0.50503 0.92212 0.0
H302 H 0.19797 0.51971 0.85784 0.0
H303 H 0.22016 0.4599 0.77908 0.0
H304 H 0.19866 0.49287 0.59623 0.0
H305 H 0.19687 0.47641 0.65943 0.0
H306 H 0.16109 0.53415 0.74101 0.0
C307 C 0.1951 0.49882 0.86405 0.0
C308 C 0.2072 0.47611 0.77089 0.0
C309 C 0.19591 0.49043 0.9007 0.0
C310 C 0.19609 0.50698 0.61845 0.0
C311 C 0.19519 0.49762 0.65467 0.0
C312 C 0.17441 0.51818 0.74892 0.0
C313 C 0.19122 0.48027 0.83564 0.0
C314 C 0.19101 0.48893 0.79685 0.0
C315 C 0.19173 0.51543 0.68419 0.0
C316 C 0.19102 0.50579 0.72286 0.0
H317 H 0.18529 0.42406 0.88697 0.0
H318 H 0.18449 0.43871 0.82296 0.0
H319 H 0.16167 0.5199 0.80508 0.0
H320 H 0.18749 0.57316 0.63556 0.0
H321 H 0.18711 0.55715 0.69849 0.0
C322 C 0.55111 0.19378 0.38749 0.0
C323 C 0.53326 0.19604 0.41695 0.0
C324 C 0.54191 0.19461 0.35136 0.0
C325 C 0.48338 0.21326 0.29422 0.0
H326 H 0.51915 0.16901 0.22216 0.0
C327 C 0.44353 0.19262 0.14746 0.0
C328 C 0.46186 0.19672 0.11887 0.0
C329 C 0.45187 0.19342 0.18405 0.0
C330 C 0.50913 0.18158 0.242 0.0
H331 H 0.49183 0.20089 0.43203 0.0
H332 H 0.47544 0.20121 0.3687 0.0
H333 H 0.53368 0.1679 0.28603 0.0
H334 H 0.50321 0.20479 0.10589 0.0
H335 H 0.51796 0.20551 0.17011 0.0
H336 H 0.45822 0.22611 0.2499 0.0
C337 C 0.49667 0.19955 0.37343 0.0
C338 C 0.51749 0.18109 0.27857 0.0
C339 C 0.50599 0.19921 0.40971 0.0
C340 C 0.48869 0.20158 0.12744 0.0
C341 C 0.49712 0.20192 0.16406 0.0
C342 C 0.47474 0.2134 0.25768 0.0
C343 C 0.51455 0.19716 0.3438 0.0
C344 C 0.50491 0.19712 0.30512 0.0
C345 C 0.47876 0.19787 0.19262 0.0
C346 C 0.48771 0.19772 0.23128 0.0
H347 H 0.57231 0.19166 0.39232 0.0
H348 H 0.55637 0.19343 0.32937 0.0
H349 H 0.47347 0.22616 0.31373 0.0
H350 H 0.42269 0.18892 0.14159 0.0
H351 H 0.43742 0.19006 0.20565 0.0
C352 C 0.90397 0.51245 0.97765 0.0
C353 C 0.89028 0.52393 0.00732 0.0
C354 C 0.93156 0.50937 0.97892 0.0
C355 C 0.98421 0.49008 0.03249 0.0
H356 H 0.03241 0.53192 0.97267 0.0
C357 C 0.09871 0.47224 0.03186 0.0
C358 C 0.11239 0.47781 -0.00084 0.0
C359 C 0.07151 0.47812 0.03487 0.0
C360 C 0.01926 0.51972 0.98916 0.0
H361 H 0.89453 0.54148 0.0614 0.0
H362 H 0.94323 0.5353 0.06403 0.0
H363 H 0.98523 0.54338 0.97457 0.0
H364 H 0.10843 0.49218 0.94332 0.0
H365 H 0.06086 0.50077 0.94753 0.0
H366 H 0.01764 0.46539 0.04556 0.0
C367 C 0.9324 0.52916 0.03968 0.0
C368 C 0.99233 0.52661 -0.00941 0.0
C369 C 0.90473 0.53283 0.03806 0.0
C370 C 0.09827 0.48791 0.96893 0.0
C371 C 0.07107 0.49318 0.9716 0.0
C372 C 0.0111 0.48284 0.03059 0.0
C373 C 0.94586 0.51719 0.0102 0.0
C374 C 0.97465 0.51175 0.01206 0.0
C375 C 0.05744 0.48922 0.00495 0.0
C376 C 0.02896 0.49737 0.00848 0.0
H377 H 0.89323 0.50546 0.95364 0.0
H378 H 0.94167 0.50012 0.95593 0.0
H379 H 0.97067 0.47818 0.04885 0.0
H380 H 0.10932 0.46473 0.05567 0.0
H381 H 0.06184 0.47494 0.06109 0.0
C382 C 0.4628 0.90346 0.51033 0.0
C383 C 0.48485 0.88659 0.51509 0.0
C384 C 0.46605 0.93117 0.5115 0.0
C385 C 0.51889 0.98235 0.50063 0.0
H386 H 0.46563 0.03011 0.54041 0.0
C387 C 0.53649 0.0958 0.51663 0.0
C388 C 0.51532 0.11243 0.50587 0.0
C389 C 0.5329 0.0682 0.51889 0.0
C390 C 0.48061 0.017 0.52899 0.0
H391 H 0.52717 0.88539 0.52724 0.0
H392 H 0.53262 0.93331 0.5305 0.0
H393 H 0.45849 0.98209 0.54347 0.0
H394 H 0.47382 0.1128 0.48858 0.0
H395 H 0.46777 0.06497 0.49243 0.0
H396 H 0.54105 0.01726 0.48635 0.0
C397 C 0.51303 0.92541 0.52444 0.0
C398 C 0.47648 0.98949 0.53065 0.0
C399 C 0.50985 0.89788 0.52281 0.0
C400 C 0.49061 0.10074 0.49713 0.0
C401 C 0.48702 0.07326 0.49957 0.0
C402 C 0.52308 0.00982 0.4992 0.0
C403 C 0.49136 0.94246 0.51788 0.0
C404 C 0.49557 0.9718 0.51646 0.0
C405 C 0.50804 0.05668 0.51064 0.0
C406 C 0.50395 0.02745 0.51322 0.0
H407 H 0.44332 0.89529 0.50422 0.0
H408 H 0.44894 0.94371 0.50613 0.0
H409 H 0.53379 0.9694 0.48869 0.0
H410 H 0.55577 0.10409 0.5236 0.0
H411 H 0.54946 0.0559 0.52769 0.0
C412 C 0.09988 0.49462 0.53982 0.0
C413 C 0.11159 0.51723 0.52367 0.0
C414 C 0.07244 0.49062 0.53822 0.0
C415 C 0.01672 0.47829 0.51258 0.0
H416 H 0.96763 0.53642 0.52984 0.0
C417 C 0.90181 0.46526 0.50439 0.0
C418 C 0.88673 0.4794 0.53037 0.0
C419 C 0.92928 0.46975 0.50124 0.0
C420 C 0.98107 0.51991 0.52519 0.0
H421 H 0.10333 0.55366 0.49372 0.0
H422 H 0.05512 0.54653 0.49073 0.0
H423 H 0.01536 0.54509 0.52904 0.0
H424 H 0.88883 0.50828 0.57464 0.0
H425 H 0.93649 0.51543 0.56993 0.0
H426 H 0.98253 0.45291 0.51016 0.0
C427 C 0.06736 0.53198 0.50481 0.0
C428 C 0.00844 0.52497 0.52423 0.0
C429 C 0.09499 0.53606 0.50647 0.0
C430 C 0.8998 0.49733 0.55396 0.0
C431 C 0.92715 0.50161 0.55105 0.0
C432 C 0.98936 0.4732 0.51368 0.0
C433 C 0.05584 0.50903 0.52034 0.0
C434 C 0.02663 0.50415 0.5185 0.0
C435 C 0.94219 0.48829 0.52423 0.0
C436 C 0.9712 0.49387 0.52059 0.0
H437 H 0.11192 0.4798 0.5537 0.0
H438 H 0.06422 0.47308 0.55131 0.0
H439 H 0.03016 0.46184 0.50745 0.0
H440 H 0.89226 0.45144 0.4857 0.0
H441 H 0.94023 0.45923 0.48015 0.0
C442 C 0.48861 0.899 0.00904 0.0
C443 C 0.51393 0.88766 0.01439 0.0
C444 C 0.48523 0.92653 0.00928 0.0
C445 C 0.52164 0.99071 0.00329 0.0
H446 H 0.45796 0.01793 0.05055 0.0
C447 C 0.50795 0.10155 0.03947 0.0
C448 C 0.48321 0.11329 0.03102 0.0
C449 C 0.51152 0.07409 0.0367 0.0
C450 C 0.47569 0.01063 0.03694 0.0
H451 H 0.55569 0.89637 0.02345 0.0
H452 H 0.54973 0.94469 0.02489 0.0
H453 H 0.46521 0.97008 0.04702 0.0
H454 H 0.44268 0.10507 0.01353 0.0
H455 H 0.44895 0.05691 0.00898 0.0
H456 H 0.53229 0.03145 -0.00599 0.0
C457 C 0.53252 0.93223 0.01982 0.0
C458 C 0.47986 0.98318 0.0348 0.0
C459 C 0.53596 0.90454 0.01911 0.0
C460 C 0.46199 0.09674 0.02026 0.0
C461 C 0.46554 0.06915 0.01775 0.0
C462 C 0.51755 0.01819 0.00572 0.0
C463 C 0.50702 0.94354 0.01538 0.0
C464 C 0.50285 0.97284 0.01784 0.0
C465 C 0.49043 0.05759 0.02566 0.0
C466 C 0.49452 0.02842 0.02254 0.0
H467 H 0.47126 0.88655 0.00476 0.0
H468 H 0.46544 0.93447 0.00475 0.0
H469 H 0.53935 0.98351 0.98956 0.0
H470 H 0.52478 0.11357 0.04793 0.0
H471 H 0.53081 0.06572 0.04351 0.0
C472 C 0.21183 0.35359 0.02857 0.0
C473 C 0.22622 0.37754 0.02566 0.0
C474 C 0.22483 0.32905 0.02393 0.0
C475 C 0.27883 0.30221 0.97162 0.0
H476 H 0.2932 0.24869 0.04587 0.0
C477 C 0.37602 0.24621 0.98061 0.0
C478 C 0.37686 0.2196 -0.00792 0.0
C479 C 0.35184 0.25966 0.97827 0.0
C480 C 0.28874 0.26301 0.02445 0.0
H481 H 0.26565 0.39452 0.01865 0.0
H482 H 0.28798 0.35205 0.01047 0.0
H483 H 0.26052 0.28394 0.05824 0.0
H484 H 0.35318 0.18567 0.00879 0.0
H485 H 0.31043 0.20961 0.00552 0.0
H486 H 0.30799 0.28249 0.93862 0.0
C487 C 0.26674 0.35219 0.01581 0.0
C488 C 0.27013 0.28316 0.03162 0.0
C489 C 0.25393 0.37646 0.02063 0.0
C490 C 0.35292 0.20616 -0.00051 0.0
C491 C 0.32858 0.21986 -0.0021 0.0
C492 C 0.29725 0.28213 0.96443 0.0
C493 C 0.25222 0.32838 0.01615 0.0
C494 C 0.26604 0.30355 0.00586 0.0
C495 C 0.32794 0.24692 0.98799 0.0
C496 C 0.30337 0.26311 -0.00854 0.0
H497 H 0.19043 0.35387 0.03232 0.0
H498 H 0.21334 0.3108 0.02451 0.0
H499 H 0.27578 0.31769 0.95128 0.0
H500 H 0.39426 0.25699 0.97487 0.0
H501 H 0.35208 0.28058 0.971 0.0
C502 C 0.789 0.35281 0.49981 0.0
C503 C 0.77447 0.37673 0.50167 0.0
C504 C 0.77589 0.32824 0.50367 0.0
C505 C 0.72178 0.30138 0.55414 0.0
H506 H 0.70571 0.24871 0.47949 0.0
C507 C 0.62401 0.24589 0.54798 0.0
C508 C 0.62294 0.21921 0.53688 0.0
C509 C 0.64821 0.25939 0.54907 0.0
C510 C 0.71063 0.2628 0.50098 0.0
H511 H 0.7348 0.39364 0.50585 0.0
H512 H 0.71227 0.35112 0.51266 0.0
H513 H 0.73869 0.28367 0.4668 0.0
H514 H 0.64627 0.18528 0.51929 0.0
H515 H 0.68903 0.20932 0.52035 0.0
H516 H 0.69277 0.28178 0.58757 0.0
C517 C 0.73367 0.3513 0.50867 0.0
C518 C 0.72942 0.28277 0.49365 0.0
C519 C 0.7466 0.3756 0.5047 0.0
C520 C 0.64671 0.20582 0.52834 0.0
C521 C 0.67105 0.21957 0.52866 0.0
C522 C 0.70317 0.28151 0.56148 0.0
C523 C 0.74824 0.32753 0.50948 0.0
C524 C 0.7342 0.30281 0.51967 0.0
C525 C 0.67189 0.24665 0.53844 0.0
C526 C 0.69646 0.26278 0.53436 0.0
H527 H 0.81051 0.35313 0.49763 0.0
H528 H 0.78743 0.31002 0.50412 0.0
H529 H 0.7253 0.31665 0.57462 0.0
H530 H 0.60592 0.25665 0.55458 0.0
H531 H 0.64812 0.28032 0.55625 0.0
C532 C 0.74516 0.62034 0.02313 0.0
C533 C 0.77282 0.62041 0.02907 0.0
C534 C 0.73144 0.64404 0.01761 0.0
C535 C 0.72697 0.71393 0.03226 0.0
H536 H 0.68617 0.71188 0.94151 0.0
C537 C 0.64424 0.79117 -0.00279 0.0
C538 C 0.61992 0.778 -0.00874 0.0
C539 C 0.66823 0.77682 -0.00332 0.0
C540 C 0.69768 0.71296 0.9667 0.0
H541 H 0.80751 0.64555 0.03654 0.0
H542 H 0.78299 0.6876 0.02749 0.0
H543 H 0.71873 0.67705 0.95439 0.0
H544 H 0.6015 0.74022 0.97803 0.0
H545 H 0.64304 0.71549 0.9761 0.0
H546 H 0.70447 0.74896 0.04562 0.0
C547 C 0.77226 0.66891 0.02672 0.0
C548 C 0.71628 0.69307 0.97405 0.0
C549 C 0.78619 0.64493 0.03204 0.0
C550 C 0.62001 0.75082 0.98265 0.0
C551 C 0.64384 0.73669 0.98139 0.0
C552 C 0.70817 0.73391 0.02494 0.0
C553 C 0.74496 0.66845 0.01815 0.0
C554 C 0.73022 0.69275 0.00755 0.0
C555 C 0.66814 0.74934 0.98928 0.0
C556 C 0.69252 0.73287 -0.0072 0.0
H557 H 0.73419 0.60182 0.02112 0.0
H558 H 0.71028 0.64326 0.01177 0.0
H559 H 0.7375 0.71401 0.05828 0.0
H560 H 0.64456 0.81211 0.00428 0.0
H561 H 0.68672 0.787 0.00287 0.0
C562 C 0.38117 0.74486 0.51768 0.0
C563 C 0.38177 0.77237 0.52448 0.0
C564 C 0.35707 0.73166 0.51297 0.0
C565 C 0.28755 0.72793 0.531 0.0
H566 H 0.28651 0.68895 0.43887 0.0
C567 C 0.20827 0.64687 0.49791 0.0
C568 C 0.22091 0.62255 0.49029 0.0
C569 C 0.22289 0.6707 0.49718 0.0
C570 C 0.28629 0.69996 0.46448 0.0
H571 H 0.35746 0.80731 0.53433 0.0
H572 H 0.31471 0.7837 0.52668 0.0
H573 H 0.32214 0.72077 0.45102 0.0
H574 H 0.25795 0.604 0.47384 0.0
H575 H 0.28311 0.64525 0.47153 0.0
H576 H 0.2526 0.70564 0.54544 0.0
C577 C 0.33319 0.77268 0.52462 0.0
C578 C 0.30663 0.71814 0.47141 0.0
C579 C 0.35756 0.78609 0.52915 0.0
C580 C 0.24775 0.62253 0.47973 0.0
C581 C 0.26212 0.64619 0.47828 0.0
C582 C 0.26711 0.70954 0.5241 0.0
C583 C 0.33292 0.74555 0.51516 0.0
C584 C 0.30808 0.73141 0.50532 0.0
C585 C 0.2501 0.67046 0.48794 0.0
C586 C 0.26703 0.69453 0.49142 0.0
H587 H 0.39943 0.73362 0.51439 0.0
H588 H 0.35733 0.71061 0.50644 0.0
H589 H 0.28834 0.73793 0.55736 0.0
H590 H 0.18763 0.64728 0.50653 0.0
H591 H 0.21317 0.68915 0.50473 0.0
loop_
_geom_bond_atom_site_label_1
_geom_bond_atom_site_label_2
_geom_bond_distance
_geom_bond_site_symmetry_2
_ccdc_geom_bond_type
Co0 O1 2.216 . S
Co0 O2 2.091 . S
Co0 O4 2.004 . S
Co0 O10 2.021 . S
Co0 O12 2.137 1_554 S
Co0 O13 2.244 1_554 S
O1 Co0 2.216 . S
O1 C8 1.247 . S
O2 Co0 2.091 . S
O2 C8 1.261 . S
C3 O12 1.247 . S
C3 O13 1.272 . S
O4 Co0 2.004 . S
O4 C9 1.259 . S
Co5 O6 2.061 . S
Co5 O11 2.052 . S
Co5 O13 2.135 1_554 S
O6 Co5 2.061 . S
O6 C9 1.235 . S
C7 O10 1.238 . S
C7 O11 1.241 . S
C8 O1 1.247 . S
C8 O2 1.261 . S
C9 O4 1.259 . S
C9 O6 1.235 . S
O10 Co0 2.021 . S
O10 C7 1.238 . S
O11 Co5 2.052 . S
O11 C7 1.241 . S
O12 Co0 2.137 1_556 S
O12 C3 1.247 . S
O13 Co0 2.244 1_556 S
O13 C3 1.272 . S
O13 Co5 2.135 1_556 S
Co14 O15 2.216 . S
Co14 O16 2.091 . S
Co14 O18 2.004 . S
Co14 O24 2.021 . S
Co14 O26 2.137 . S
Co14 O27 2.244 . S
O15 Co14 2.216 . S
O15 C22 1.247 . S
O16 Co14 2.091 . S
O16 C22 1.261 . S
C17 O26 1.247 . S
C17 O27 1.272 . S
O18 Co14 2.004 . S
O18 C23 1.259 . S
Co19 O20 2.061 . S
Co19 O25 2.052 . S
Co19 O27 2.135 . S
O20 Co19 2.061 . S
O20 C23 1.235 . S
C21 O24 1.238 . S
C21 O25 1.241 . S
C22 O15 1.247 . S
C22 O16 1.261 . S
C23 O18 1.259 . S
C23 O20 1.235 . S
O24 Co14 2.021 . S
O24 C21 1.238 . S
O25 Co19 2.052 . S
O25 C21 1.241 . S
O26 Co14 2.137 . S
O26 C17 1.247 . S
O27 Co14 2.244 . S
O27 C17 1.272 . S
O27 Co19 2.135 . S
Co28 O29 2.216 . S
Co28 O30 2.091 . S
Co28 O32 2.004 . S
Co28 O38 2.021 . S
Co28 O40 2.137 1_554 S
Co28 O41 2.244 1_554 S
O29 Co28 2.216 . S
O29 C36 1.247 . S
O30 Co28 2.091 . S
O30 C36 1.261 . S
C31 O40 1.247 . S
C31 O41 1.272 . S
O32 Co28 2.004 . S
O32 C37 1.259 . S
Co33 O34 2.061 . S
Co33 O39 2.052 . S
Co33 O41 2.135 1_554 S
O34 Co33 2.061 . S
O34 C37 1.235 . S
C35 O38 1.238 . S
C35 O39 1.241 . S
C36 O29 1.247 . S
C36 O30 1.261 . S
C37 O32 1.259 . S
C37 O34 1.235 . S
O38 Co28 2.021 . S
O38 C35 1.238 . S
O39 Co33 2.052 . S
O39 C35 1.241 . S
O40 Co28 2.137 1_556 S
O40 C31 1.247 . S
O41 Co28 2.244 1_556 S
O41 C31 1.272 . S
O41 Co33 2.135 1_556 S
Co42 O43 2.216 . S
Co42 O44 2.091 . S
Co42 O46 2.004 . S
Co42 O52 2.021 . S
Co42 O54 2.137 . S
Co42 O55 2.244 . S
O43 Co42 2.216 . S
O43 C50 1.247 . S
O44 Co42 2.091 . S
O44 C50 1.261 . S
C45 O54 1.247 . S
C45 O55 1.272 . S
O46 Co42 2.004 . S
O46 C51 1.259 . S
Co47 O48 2.061 . S
Co47 O53 2.052 . S
Co47 O55 2.135 . S
O48 Co47 2.061 . S
O48 C51 1.235 . S
C49 O52 1.238 . S
C49 O53 1.241 . S
C50 O43 1.247 . S
C50 O44 1.261 . S
C51 O46 1.259 . S
C51 O48 1.235 . S
O52 Co42 2.021 . S
O52 C49 1.238 . S
O53 Co47 2.052 . S
O53 C49 1.241 . S
O54 Co42 2.137 . S
O54 C45 1.247 . S
O55 Co42 2.244 . S
O55 C45 1.272 . S
O55 Co47 2.135 . S
Co56 O57 2.216 . S
Co56 O58 2.091 . S
Co56 O60 2.004 . S
Co56 O66 2.021 . S
Co56 O68 2.137 . S
Co56 O69 2.244 . S
O57 Co56 2.216 . S
O57 C64 1.247 . S
O58 Co56 2.091 . S
O58 C64 1.261 . S
C59 O68 1.247 . S
C59 O69 1.272 . S
O60 Co56 2.004 . S
O60 C65 1.259 . S
Co61 O62 2.061 . S
Co61 O67 2.052 . S
Co61 O69 2.135 . S
O62 Co61 2.061 . S
O62 C65 1.235 . S
C63 O66 1.238 . S
C63 O67 1.241 . S
C64 O57 1.247 . S
C64 O58 1.261 . S
C65 O60 1.259 . S
C65 O62 1.235 . S
O66 Co56 2.021 . S
O66 C63 1.238 . S
O67 Co61 2.052 . S
O67 C63 1.241 . S
O68 Co56 2.137 . S
O68 C59 1.247 . S
O69 Co56 2.244 . S
O69 C59 1.272 . S
O69 Co61 2.135 . S
Co70 O71 2.216 . S
Co70 O72 2.091 . S
Co70 O74 2.004 . S
Co70 O80 2.021 1_554 S
Co70 O82 2.137 . S
Co70 O83 2.244 . S
O71 Co70 2.216 . S
O71 C78 1.247 . S
O72 Co70 2.091 . S
O72 C78 1.261 . S
C73 O82 1.247 . S
C73 O83 1.272 . S
O74 Co70 2.004 . S
O74 C79 1.259 . S
Co75 O76 2.061 . S
Co75 O81 2.052 1_554 S
Co75 O83 2.135 . S
O76 Co75 2.061 . S
O76 C79 1.235 . S
C77 O80 1.238 . S
C77 O81 1.241 . S
C78 O71 1.247 . S
C78 O72 1.261 . S
C79 O74 1.259 . S
C79 O76 1.235 . S
O80 Co70 2.021 1_556 S
O80 C77 1.238 . S
O81 Co75 2.052 1_556 S
O81 C77 1.241 . S
O82 Co70 2.137 . S
O82 C73 1.247 . S
O83 Co70 2.244 . S
O83 C73 1.272 . S
O83 Co75 2.135 . S
Co84 O85 2.216 . S
Co84 O86 2.091 . S
Co84 O88 2.004 . S
Co84 O94 2.021 . S
Co84 O96 2.137 . S
Co84 O97 2.244 . S
O85 Co84 2.216 . S
O85 C92 1.247 . S
O86 Co84 2.091 . S
O86 C92 1.261 . S
C87 O96 1.247 . S
C87 O97 1.272 . S
O88 Co84 2.004 . S
O88 C93 1.259 . S
Co89 O90 2.061 . S
Co89 O95 2.052 . S
Co89 O97 2.135 . S
O90 Co89 2.061 . S
O90 C93 1.235 . S
C91 O94 1.238 . S
C91 O95 1.241 . S
C92 O85 1.247 . S
C92 O86 1.261 . S
C93 O88 1.259 . S
C93 O90 1.235 . S
O94 Co84 2.021 . S
O94 C91 1.238 . S
O95 Co89 2.052 . S
O95 C91 1.241 . S
O96 Co84 2.137 . S
O96 C87 1.247 . S
O97 Co84 2.244 . S
O97 C87 1.272 . S
O97 Co89 2.135 . S
Co98 O99 2.216 . S
Co98 O100 2.091 . S
Co98 O102 2.004 . S
Co98 O108 2.021 1_554 S
Co98 O110 2.137 . S
Co98 O111 2.244 . S
O99 Co98 2.216 . S
O99 C106 1.247 . S
O100 Co98 2.091 . S
O100 C106 1.261 . S
C101 O110 1.247 . S
C101 O111 1.272 . S
O102 Co98 2.004 . S
O102 C107 1.259 . S
Co103 O104 2.061 . S
Co103 O109 2.052 1_554 S
Co103 O111 2.135 . S
O104 Co103 2.061 . S
O104 C107 1.235 . S
C105 O108 1.238 . S
C105 O109 1.241 . S
C106 O99 1.247 . S
C106 O100 1.261 . S
C107 O102 1.259 . S
C107 O104 1.235 . S
O108 Co98 2.021 1_556 S
O108 C105 1.238 . S
O109 Co103 2.052 1_556 S
O109 C105 1.241 . S
O110 Co98 2.137 . S
O110 C101 1.247 . S
O111 Co98 2.244 . S
O111 C101 1.272 . S
O111 Co103 2.135 . S
C112 C113 1.349 . S
C112 C114 1.327 . S
C112 H137 0.950 . S
C113 C112 1.349 . S
C113 C129 1.349 . S
C114 C112 1.327 . S
C114 C133 1.429 . S
C114 H138 0.950 . S
C115 C132 1.574 . S
C115 C134 1.368 . S
C115 H139 0.949 . S
H116 C120 0.949 . S
C117 C118 1.349 . S
C117 C119 1.327 . S
C117 H140 0.950 . S
C118 C117 1.349 . S
C118 C130 1.349 . S
C119 C117 1.327 . S
C119 C135 1.429 . S
C119 H141 0.950 . S
C120 H116 0.949 . S
C120 C128 1.574 . S
C120 C136 1.368 . S
H121 C129 0.950 . S
H122 C127 0.950 . S
H123 C128 0.949 . S
H124 C130 0.950 . S
H125 C131 0.950 . S
H126 C132 0.949 . S
C127 H122 0.950 . S
C127 C129 1.327 . S
C127 C133 1.429 . S
C128 C120 1.574 . S
C128 H123 0.949 . S
C128 C134 1.368 . S
C129 C113 1.349 . S
C129 H121 0.950 . S
C129 C127 1.327 . S
C130 C118 1.349 . S
C130 H124 0.950 . S
C130 C131 1.327 . S
C131 H125 0.950 . S
C131 C130 1.327 . S
C131 C135 1.429 . S
C132 C115 1.574 . S
C132 H126 0.949 . S
C132 C136 1.368 . S
C133 C114 1.429 . S
C133 C127 1.429 . S
C133 C134 1.523 . S
C134 C115 1.368 . S
C134 C128 1.368 . S
C134 C133 1.523 . S
C135 C119 1.429 . S
C135 C131 1.429 . S
C135 C136 1.523 . S
C136 C120 1.368 . S
C136 C132 1.368 . S
C136 C135 1.523 . S
H137 C112 0.950 . S
H138 C114 0.950 . S
H139 C115 0.949 . S
H140 C117 0.950 . S
H141 C119 0.950 . S
C142 C143 1.349 . S
C142 C144 1.327 . S
C142 H167 0.950 . S
C143 C142 1.349 . S
C143 C159 1.349 . S
C144 C142 1.327 . S
C144 C163 1.429 . S
C144 H168 0.950 . S
C145 C162 1.574 . S
C145 C164 1.368 . S
C145 H169 0.949 . S
H146 C150 0.949 . S
C147 C148 1.349 . S
C147 C149 1.327 . S
C147 H170 0.950 . S
C148 C147 1.349 . S
C148 C160 1.349 . S
C149 C147 1.327 . S
C149 C165 1.429 . S
C149 H171 0.950 . S
C150 H146 0.949 . S
C150 C158 1.574 . S
C150 C166 1.368 . S
H151 C159 0.950 . S
H152 C157 0.950 . S
H153 C158 0.949 . S
H154 C160 0.950 . S
H155 C161 0.950 . S
H156 C162 0.949 . S
C157 H152 0.950 . S
C157 C159 1.327 . S
C157 C163 1.429 . S
C158 C150 1.574 . S
C158 H153 0.949 . S
C158 C164 1.368 . S
C159 C143 1.349 . S
C159 H151 0.950 . S
C159 C157 1.327 . S
C160 C148 1.349 . S
C160 H154 0.950 . S
C160 C161 1.327 . S
C161 H155 0.950 . S
C161 C160 1.327 . S
C161 C165 1.429 . S
C162 C145 1.574 . S
C162 H156 0.949 . S
C162 C166 1.368 . S
C163 C144 1.429 . S
C163 C157 1.429 . S
C163 C164 1.523 . S
C164 C145 1.368 . S
C164 C158 1.368 . S
C164 C163 1.523 . S
C165 C149 1.429 . S
C165 C161 1.429 . S
C165 C166 1.523 . S
C166 C150 1.368 . S
C166 C162 1.368 . S
C166 C165 1.523 . S
H167 C142 0.950 . S
H168 C144 0.950 . S
H169 C145 0.949 . S
H170 C147 0.950 . S
H171 C149 0.950 . S
C172 C173 1.349 . S
C172 C174 1.327 . S
C172 H197 0.950 . S
C173 C172 1.349 . S
C173 C189 1.349 . S
C174 C172 1.327 . S
C174 C193 1.429 . S
C174 H198 0.950 . S
C175 C192 1.574 . S
C175 C194 1.368 . S
C175 H199 0.949 . S
H176 C180 0.949 . S
C177 C178 1.349 . S
C177 C179 1.327 . S
C177 H200 0.950 . S
C178 C177 1.349 . S
C178 C190 1.349 . S
C179 C177 1.327 . S
C179 C195 1.429 . S
C179 H201 0.950 . S
C180 H176 0.949 . S
C180 C188 1.574 . S
C180 C196 1.368 . S
H181 C189 0.950 . S
H182 C187 0.950 . S
H183 C188 0.949 . S
H184 C190 0.950 . S
H185 C191 0.950 . S
H186 C192 0.949 . S
C187 H182 0.950 . S
C187 C189 1.327 . S
C187 C193 1.429 . S
C188 C180 1.574 . S
C188 H183 0.949 . S
C188 C194 1.368 . S
C189 C173 1.349 . S
C189 H181 0.950 . S
C189 C187 1.327 . S
C190 C178 1.349 . S
C190 H184 0.950 . S
C190 C191 1.327 . S
C191 H185 0.950 . S
C191 C190 1.327 . S
C191 C195 1.429 . S
C192 C175 1.574 . S
C192 H186 0.949 . S
C192 C196 1.368 . S
C193 C174 1.429 . S
C193 C187 1.429 . S
C193 C194 1.523 . S
C194 C175 1.368 . S
C194 C188 1.368 . S
C194 C193 1.523 . S
C195 C179 1.429 . S
C195 C191 1.429 . S
C195 C196 1.523 . S
C196 C180 1.368 . S
C196 C192 1.368 . S
C196 C195 1.523 . S
H197 C172 0.950 . S
H198 C174 0.950 . S
H199 C175 0.949 . S
H200 C177 0.950 . S
H201 C179 0.950 . S
C202 C203 1.349 . S
C202 C204 1.327 . S
C202 H227 0.950 . S
C203 C202 1.349 . S
C203 C219 1.349 . S
C204 C202 1.327 . S
C204 C223 1.429 . S
C204 H228 0.950 . S
C205 C222 1.574 . S
C205 C224 1.368 . S
C205 H229 0.949 . S
H206 C210 0.949 . S
C207 C208 1.349 . S
C207 C209 1.327 . S
C207 H230 0.950 . S
C208 C207 1.349 . S
C208 C220 1.349 . S
C209 C207 1.327 . S
C209 C225 1.429 . S
C209 H231 0.950 . S
C210 H206 0.949 . S
C210 C218 1.574 . S
C210 C226 1.368 . S
H211 C219 0.950 . S
H212 C217 0.950 . S
H213 C218 0.949 . S
H214 C220 0.950 . S
H215 C221 0.950 . S
H216 C222 0.949 . S
C217 H212 0.950 . S
C217 C219 1.327 . S
C217 C223 1.429 . S
C218 C210 1.574 . S
C218 H213 0.949 . S
C218 C224 1.368 . S
C219 C203 1.349 . S
C219 H211 0.950 . S
C219 C217 1.327 . S
C220 C208 1.349 . S
C220 H214 0.950 . S
C220 C221 1.327 . S
C221 H215 0.950 . S
C221 C220 1.327 . S
C221 C225 1.429 . S
C222 C205 1.574 . S
C222 H216 0.949 . S
C222 C226 1.368 . S
C223 C204 1.429 . S
C223 C217 1.429 . S
C223 C224 1.523 . S
C224 C205 1.368 . S
C224 C218 1.368 . S
C224 C223 1.523 . S
C225 C209 1.429 . S
C225 C221 1.429 . S
C225 C226 1.523 . S
C226 C210 1.368 . S
C226 C222 1.368 . S
C226 C225 1.523 . S
H227 C202 0.950 . S
H228 C204 0.950 . S
H229 C205 0.949 . S
H230 C207 0.950 . S
H231 C209 0.950 . S
C232 C233 1.349 . S
C232 C234 1.327 . S
C232 H257 0.950 . S
C233 C232 1.349 . S
C233 C249 1.349 . S
C234 C232 1.327 . S
C234 C253 1.429 . S
C234 H258 0.950 . S
C235 C252 1.574 . S
C235 C254 1.368 . S
C235 H259 0.949 . S
H236 C240 0.949 . S
C237 C238 1.349 . S
C237 C239 1.327 . S
C237 H260 0.950 . S
C238 C237 1.349 . S
C238 C250 1.349 . S
C239 C237 1.327 . S
C239 C255 1.429 . S
C239 H261 0.950 . S
C240 H236 0.949 . S
C240 C248 1.574 . S
C240 C256 1.368 . S
H241 C249 0.950 . S
H242 C247 0.950 . S
H243 C248 0.949 . S
H244 C250 0.950 . S
H245 C251 0.950 . S
H246 C252 0.949 . S
C247 H242 0.950 . S
C247 C249 1.327 . S
C247 C253 1.429 . S
C248 C240 1.574 . S
C248 H243 0.949 . S
C248 C254 1.368 . S
C249 C233 1.349 . S
C249 H241 0.950 . S
C249 C247 1.327 . S
C250 C238 1.349 . S
C250 H244 0.950 . S
C250 C251 1.327 . S
C251 H245 0.950 . S
C251 C250 1.327 . S
C251 C255 1.429 . S
C252 C235 1.574 . S
C252 H246 0.949 . S
C252 C256 1.368 . S
C253 C234 1.429 . S
C253 C247 1.429 . S
C253 C254 1.523 . S
C254 C235 1.368 . S
C254 C248 1.368 . S
C254 C253 1.523 . S
C255 C239 1.429 . S
C255 C251 1.429 . S
C255 C256 1.523 . S
C256 C240 1.368 . S
C256 C252 1.368 . S
C256 C255 1.523 . S
H257 C232 0.950 . S
H258 C234 0.950 . S
H259 C235 0.949 . S
H260 C237 0.950 . S
H261 C239 0.950 . S
C262 C263 1.349 . S
C262 C264 1.327 . S
C262 H287 0.950 . S
C263 C262 1.349 . S
C263 C279 1.349 . S
C264 C262 1.327 . S
C264 C283 1.429 . S
C264 H288 0.950 . S
C265 C282 1.574 . S
C265 C284 1.368 . S
C265 H289 0.949 . S
H266 C270 0.949 . S
C267 C268 1.349 . S
C267 C269 1.327 . S
C267 H290 0.950 . S
C268 C267 1.349 . S
C268 C280 1.349 . S
C269 C267 1.327 . S
C269 C285 1.429 . S
C269 H291 0.950 . S
C270 H266 0.949 . S
C270 C278 1.574 . S
C270 C286 1.368 . S
H271 C279 0.950 . S
H272 C277 0.950 . S
H273 C278 0.949 . S
H274 C280 0.950 . S
H275 C281 0.950 . S
H276 C282 0.949 . S
C277 H272 0.950 . S
C277 C279 1.327 . S
C277 C283 1.429 . S
C278 C270 1.574 . S
C278 H273 0.949 . S
C278 C284 1.368 . S
C279 C263 1.349 . S
C279 H271 0.950 . S
C279 C277 1.327 . S
C280 C268 1.349 . S
C280 H274 0.950 . S
C280 C281 1.327 . S
C281 H275 0.950 . S
C281 C280 1.327 . S
C281 C285 1.429 . S
C282 C265 1.574 . S
C282 H276 0.949 . S
C282 C286 1.368 . S
C283 C264 1.429 . S
C283 C277 1.429 . S
C283 C284 1.523 . S
C284 C265 1.368 . S
C284 C278 1.368 . S
C284 C283 1.523 . S
C285 C269 1.429 . S
C285 C281 1.429 . S
C285 C286 1.523 . S
C286 C270 1.368 . S
C286 C282 1.368 . S
C286 C285 1.523 . S
H287 C262 0.950 . S
H288 C264 0.950 . S
H289 C265 0.949 . S
H290 C267 0.950 . S
H291 C269 0.950 . S
C292 C293 1.349 . S
C292 C294 1.327 . S
C292 H317 0.950 . S
C293 C292 1.349 . S
C293 C309 1.349 . S
C294 C292 1.327 . S
C294 C313 1.429 . S
C294 H318 0.950 . S
C295 C312 1.574 . S
C295 C314 1.368 . S
C295 H319 0.949 . S
H296 C300 0.949 . S
C297 C298 1.349 . S
C297 C299 1.327 . S
C297 H320 0.950 . S
C298 C297 1.349 . S
C298 C310 1.349 . S
C299 C297 1.327 . S
C299 C315 1.429 . S
C299 H321 0.950 . S
C300 H296 0.949 . S
C300 C308 1.574 . S
C300 C316 1.368 . S
H301 C309 0.950 . S
H302 C307 0.950 . S
H303 C308 0.949 . S
H304 C310 0.950 . S
H305 C311 0.950 . S
H306 C312 0.949 . S
C307 H302 0.950 . S
C307 C309 1.327 . S
C307 C313 1.429 . S
C308 C300 1.574 . S
C308 H303 0.949 . S
C308 C314 1.368 . S
C309 C293 1.349 . S
C309 H301 0.950 . S
C309 C307 1.327 . S
C310 C298 1.349 . S
C310 H304 0.950 . S
C310 C311 1.327 . S
C311 H305 0.950 . S
C311 C310 1.327 . S
C311 C315 1.429 . S
C312 C295 1.574 . S
C312 H306 0.949 . S
C312 C316 1.368 . S
C313 C294 1.429 . S
C313 C307 1.429 . S
C313 C314 1.523 . S
C314 C295 1.368 . S
C314 C308 1.368 . S
C314 C313 1.523 . S
C315 C299 1.429 . S
C315 C311 1.429 . S
C315 C316 1.523 . S
C316 C300 1.368 . S
C316 C312 1.368 . S
C316 C315 1.523 . S
H317 C292 0.950 . S
H318 C294 0.950 . S
H319 C295 0.949 . S
H320 C297 0.950 . S
H321 C299 0.950 . S
C322 C323 1.349 . S
C322 C324 1.327 . S
C322 H347 0.950 . S
C323 C322 1.349 . S
C323 C339 1.349 . S
C324 C322 1.327 . S
C324 C343 1.429 . S
C324 H348 0.950 . S
C325 C342 1.574 . S
C325 C344 1.368 . S
C325 H349 0.949 . S
H326 C330 0.949 . S
C327 C328 1.349 . S
C327 C329 1.327 . S
C327 H350 0.950 . S
C328 C327 1.349 . S
C328 C340 1.349 . S
C329 C327 1.327 . S
C329 C345 1.429 . S
C329 H351 0.950 . S
C330 H326 0.949 . S
C330 C338 1.574 . S
C330 C346 1.368 . S
H331 C339 0.950 . S
H332 C337 0.950 . S
H333 C338 0.949 . S
H334 C340 0.950 . S
H335 C341 0.950 . S
H336 C342 0.949 . S
C337 H332 0.950 . S
C337 C339 1.327 . S
C337 C343 1.429 . S
C338 C330 1.574 . S
C338 H333 0.949 . S
C338 C344 1.368 . S
C339 C323 1.349 . S
C339 H331 0.950 . S
C339 C337 1.327 . S
C340 C328 1.349 . S
C340 H334 0.950 . S
C340 C341 1.327 . S
C341 H335 0.950 . S
C341 C340 1.327 . S
C341 C345 1.429 . S
C342 C325 1.574 . S
C342 H336 0.949 . S
C342 C346 1.368 . S
C343 C324 1.429 . S
C343 C337 1.429 . S
C343 C344 1.523 . S
C344 C325 1.368 . S
C344 C338 1.368 . S
C344 C343 1.523 . S
C345 C329 1.429 . S
C345 C341 1.429 . S
C345 C346 1.523 . S
C346 C330 1.368 . S
C346 C342 1.368 . S
C346 C345 1.523 . S
H347 C322 0.950 . S
H348 C324 0.950 . S
H349 C325 0.949 . S
H350 C327 0.950 . S
H351 C329 0.950 . S
C352 C353 1.349 1_556 S
C352 C354 1.327 . S
C352 H377 0.950 . S
C353 C352 1.349 1_554 S
C353 C369 1.349 . S
C354 C352 1.327 . S
C354 C373 1.429 1_556 S
C354 H378 0.950 . S
C355 C372 1.574 1_655 S
C355 C374 1.368 . S
C355 H379 0.949 . S
H356 C360 0.949 . S
C357 C358 1.349 . S
C357 C359 1.327 . S
C357 H380 0.950 . S
C358 C357 1.349 . S
C358 C370 1.349 1_554 S
C359 C357 1.327 . S
C359 C375 1.429 . S
C359 H381 0.950 . S
C360 H356 0.949 . S
C360 C368 1.574 1_455 S
C360 C376 1.368 1_556 S
H361 C369 0.950 . S
H362 C367 0.950 . S
H363 C368 0.949 . S
H364 C370 0.950 . S
H365 C371 0.950 . S
H366 C372 0.949 . S
C367 H362 0.950 . S
C367 C369 1.327 . S
C367 C373 1.429 . S
C368 C360 1.574 1_655 S
C368 H363 0.949 . S
C368 C374 1.368 1_556 S
C369 C353 1.349 . S
C369 H361 0.950 . S
C369 C367 1.327 . S
C370 C358 1.349 1_556 S
C370 H364 0.950 . S
C370 C371 1.327 . S
C371 H365 0.950 . S
C371 C370 1.327 . S
C371 C375 1.429 1_556 S
C372 C355 1.574 1_455 S
C372 H366 0.949 . S
C372 C376 1.368 . S
C373 C354 1.429 1_554 S
C373 C367 1.429 . S
C373 C374 1.523 . S
C374 C355 1.368 . S
C374 C368 1.368 1_554 S
C374 C373 1.523 . S
C375 C359 1.429 . S
C375 C371 1.429 1_554 S
C375 C376 1.523 . S
C376 C360 1.368 1_554 S
C376 C372 1.368 . S
C376 C375 1.523 . S
H377 C352 0.950 . S
H378 C354 0.950 . S
H379 C355 0.949 . S
H380 C357 0.950 . S
H381 C359 0.950 . S
C382 C383 1.349 . S
C382 C384 1.327 . S
C382 H407 0.950 . S
C383 C382 1.349 . S
C383 C399 1.349 . S
C384 C382 1.327 . S
C384 C403 1.429 . S
C384 H408 0.950 . S
C385 C402 1.574 1_565 S
C385 C404 1.368 . S
C385 H409 0.949 . S
H386 C390 0.949 . S
C387 C388 1.349 . S
C387 C389 1.327 . S
C387 H410 0.950 . S
C388 C387 1.349 . S
C388 C400 1.349 . S
C389 C387 1.327 . S
C389 C405 1.429 . S
C389 H411 0.950 . S
C390 H386 0.949 . S
C390 C398 1.574 1_545 S
C390 C406 1.368 . S
H391 C399 0.950 . S
H392 C397 0.950 . S
H393 C398 0.949 . S
H394 C400 0.950 . S
H395 C401 0.950 . S
H396 C402 0.949 . S
C397 H392 0.950 . S
C397 C399 1.327 . S
C397 C403 1.429 . S
C398 C390 1.574 1_565 S
C398 H393 0.949 . S
C398 C404 1.368 . S
C399 C383 1.349 . S
C399 H391 0.950 . S
C399 C397 1.327 . S
C400 C388 1.349 . S
C400 H394 0.950 . S
C400 C401 1.327 . S
C401 H395 0.950 . S
C401 C400 1.327 . S
C401 C405 1.429 . S
C402 C385 1.574 1_545 S
C402 H396 0.949 . S
C402 C406 1.368 . S
C403 C384 1.429 . S
C403 C397 1.429 . S
C403 C404 1.523 . S
C404 C385 1.368 . S
C404 C398 1.368 . S
C404 C403 1.523 . S
C405 C389 1.429 . S
C405 C401 1.429 . S
C405 C406 1.523 . S
C406 C390 1.368 . S
C406 C402 1.368 . S
C406 C405 1.523 . S
H407 C382 0.950 . S
H408 C384 0.950 . S
H409 C385 0.949 . S
H410 C387 0.950 . S
H411 C389 0.950 . S
C412 C413 1.349 . S
C412 C414 1.327 . S
C412 H437 0.950 . S
C413 C412 1.349 . S
C413 C429 1.349 . S
C414 C412 1.327 . S
C414 C433 1.429 . S
C414 H438 0.950 . S
C415 C432 1.574 1_455 S
C415 C434 1.368 . S
C415 H439 0.949 . S
H416 C420 0.949 . S
C417 C418 1.349 . S
C417 C419 1.327 . S
C417 H440 0.950 . S
C418 C417 1.349 . S
C418 C430 1.349 . S
C419 C417 1.327 . S
C419 C435 1.429 . S
C419 H441 0.950 . S
C420 H416 0.949 . S
C420 C428 1.574 1_655 S
C420 C436 1.368 . S
H421 C429 0.950 . S
H422 C427 0.950 . S
H423 C428 0.949 . S
H424 C430 0.950 . S
H425 C431 0.950 . S
H426 C432 0.949 . S
C427 H422 0.950 . S
C427 C429 1.327 . S
C427 C433 1.429 . S
C428 C420 1.574 1_455 S
C428 H423 0.949 . S
C428 C434 1.368 . S
C429 C413 1.349 . S
C429 H421 0.950 . S
C429 C427 1.327 . S
C430 C418 1.349 . S
C430 H424 0.950 . S
C430 C431 1.327 . S
C431 H425 0.950 . S
C431 C430 1.327 . S
C431 C435 1.429 . S
C432 C415 1.574 1_655 S
C432 H426 0.949 . S
C432 C436 1.368 . S
C433 C414 1.429 . S
C433 C427 1.429 . S
C433 C434 1.523 . S
C434 C415 1.368 . S
C434 C428 1.368 . S
C434 C433 1.523 . S
C435 C419 1.429 . S
C435 C431 1.429 . S
C435 C436 1.523 . S
C436 C420 1.368 . S
C436 C432 1.368 . S
C436 C435 1.523 . S
H437 C412 0.950 . S
H438 C414 0.950 . S
H439 C415 0.949 . S
H440 C417 0.950 . S
H441 C419 0.950 . S
C442 C443 1.330 1_556 S
C442 C444 1.328 . S
C442 H467 0.968 . S
C443 C442 1.330 1_554 S
C443 C459 1.349 . S
C444 C442 1.328 . S
C444 C463 1.429 1_556 S
C444 H468 0.950 . S
C445 C462 1.574 1_565 S
C445 C464 1.368 . S
C445 H469 0.949 . S
H446 C450 0.949 . S
C447 C448 1.349 . S
C447 C449 1.327 . S
C447 H470 0.950 . S
C448 C447 1.349 . S
C448 C460 1.330 1_554 S
C449 C447 1.327 . S
C449 C465 1.429 . S
C449 H471 0.950 . S
C450 H446 0.949 . S
C450 C458 1.574 1_545 S
C450 C466 1.368 1_556 S
H451 C459 0.950 . S
H452 C457 0.950 . S
H453 C458 0.949 . S
H454 C460 0.968 . S
H455 C461 0.950 . S
H456 C462 0.949 . S
C457 H452 0.950 . S
C457 C459 1.327 . S
C457 C463 1.429 . S
C458 C450 1.574 1_565 S
C458 H453 0.949 . S
C458 C464 1.368 1_556 S
C459 C443 1.349 . S
C459 H451 0.950 . S
C459 C457 1.327 . S
C460 C448 1.330 1_556 S
C460 H454 0.968 . S
C460 C461 1.328 . S
C461 H455 0.950 . S
C461 C460 1.328 . S
C461 C465 1.429 1_556 S
C462 C445 1.574 1_545 S
C462 H456 0.949 . S
C462 C466 1.368 . S
C463 C444 1.429 1_554 S
C463 C457 1.429 . S
C463 C464 1.523 . S
C464 C445 1.368 . S
C464 C458 1.368 1_554 S
C464 C463 1.523 . S
C465 C449 1.429 . S
C465 C461 1.429 1_554 S
C465 C466 1.523 . S
C466 C450 1.368 1_554 S
C466 C462 1.368 . S
C466 C465 1.523 . S
H467 C442 0.968 . S
H468 C444 0.950 . S
H469 C445 0.949 . S
H470 C447 0.950 . S
H471 C449 0.950 . S
C472 C473 1.349 . S
C472 C474 1.327 . S
C472 H497 0.950 . S
C473 C472 1.349 . S
C473 C489 1.349 1_554 S
C474 C472 1.327 . S
C474 C493 1.429 . S
C474 H498 0.950 . S
C475 C492 1.574 . S
C475 C494 1.368 1_556 S
C475 H499 0.949 . S
H476 C480 0.949 . S
C477 C478 1.349 1_556 S
C477 C479 1.327 . S
C477 H500 0.950 . S
C478 C477 1.349 1_554 S
C478 C490 1.349 . S
C479 C477 1.327 . S
C479 C495 1.429 1_556 S
C479 H501 0.950 . S
C480 H476 0.949 . S
C480 C488 1.574 . S
C480 C496 1.368 . S
H481 C489 0.950 . S
H482 C487 0.950 . S
H483 C488 0.949 . S
H484 C490 0.950 . S
H485 C491 0.950 . S
H486 C492 0.949 . S
C487 H482 0.950 . S
C487 C489 1.327 . S
C487 C493 1.429 1_556 S
C488 C480 1.574 . S
C488 H483 0.949 . S
C488 C494 1.368 . S
C489 C473 1.349 1_556 S
C489 H481 0.950 . S
C489 C487 1.327 . S
C490 C478 1.349 . S
C490 H484 0.950 . S
C490 C491 1.327 . S
C491 H485 0.950 . S
C491 C490 1.327 . S
C491 C495 1.429 . S
C492 C475 1.574 . S
C492 H486 0.949 . S
C492 C496 1.368 1_556 S
C493 C474 1.429 . S
C493 C487 1.429 1_554 S
C493 C494 1.523 . S
C494 C475 1.368 1_554 S
C494 C488 1.368 . S
C494 C493 1.523 . S
C495 C479 1.429 1_554 S
C495 C491 1.429 . S
C495 C496 1.523 . S
C496 C480 1.368 . S
C496 C492 1.368 1_554 S
C496 C495 1.523 . S
H497 C472 0.950 . S
H498 C474 0.950 . S
H499 C475 0.949 . S
H500 C477 0.950 . S
H501 C479 0.950 . S
C502 C503 1.349 . S
C502 C504 1.327 . S
C502 H527 0.950 . S
C503 C502 1.349 . S
C503 C519 1.349 . S
C504 C502 1.327 . S
C504 C523 1.429 . S
C504 H528 0.950 . S
C505 C522 1.574 . S
C505 C524 1.368 . S
C505 H529 0.949 . S
H506 C510 0.949 . S
C507 C508 1.349 . S
C507 C509 1.327 . S
C507 H530 0.950 . S
C508 C507 1.349 . S
C508 C520 1.349 . S
C509 C507 1.327 . S
C509 C525 1.429 . S
C509 H531 0.950 . S
C510 H506 0.949 . S
C510 C518 1.574 . S
C510 C526 1.368 . S
H511 C519 0.950 . S
H512 C517 0.950 . S
H513 C518 0.949 . S
H514 C520 0.950 . S
H515 C521 0.950 . S
H516 C522 0.949 . S
C517 H512 0.950 . S
C517 C519 1.327 . S
C517 C523 1.429 . S
C518 C510 1.574 . S
C518 H513 0.949 . S
C518 C524 1.368 . S
C519 C503 1.349 . S
C519 H511 0.950 . S
C519 C517 1.327 . S
C520 C508 1.349 . S
C520 H514 0.950 . S
C520 C521 1.327 . S
C521 H515 0.950 . S
C521 C520 1.327 . S
C521 C525 1.429 . S
C522 C505 1.574 . S
C522 H516 0.949 . S
C522 C526 1.368 . S
C523 C504 1.429 . S
C523 C517 1.429 . S
C523 C524 1.523 . S
C524 C505 1.368 . S
C524 C518 1.368 . S
C524 C523 1.523 . S
C525 C509 1.429 . S
C525 C521 1.429 . S
C525 C526 1.523 . S
C526 C510 1.368 . S
C526 C522 1.368 . S
C526 C525 1.523 . S
H527 C502 0.950 . S
H528 C504 0.950 . S
H529 C505 0.949 . S
H530 C507 0.950 . S
H531 C509 0.950 . S
C532 C533 1.349 1_556 S
C532 C534 1.327 . S
C532 H557 0.950 . S
C533 C532 1.349 1_554 S
C533 C549 1.349 . S
C534 C532 1.327 . S
C534 C553 1.429 1_556 S
C534 H558 0.950 . S
C535 C552 1.574 . S
C535 C554 1.368 . S
C535 H559 0.949 . S
H536 C540 0.949 . S
C537 C538 1.349 . S
C537 C539 1.327 . S
C537 H560 0.950 . S
C538 C537 1.349 . S
C538 C550 1.349 1_554 S
C539 C537 1.327 . S
C539 C555 1.429 . S
C539 H561 0.950 . S
C540 H536 0.949 . S
C540 C548 1.574 . S
C540 C556 1.368 1_556 S
H541 C549 0.950 . S
H542 C547 0.950 . S
H543 C548 0.949 . S
H544 C550 0.950 . S
H545 C551 0.950 . S
H546 C552 0.949 . S
C547 H542 0.950 . S
C547 C549 1.327 . S
C547 C553 1.429 . S
C548 C540 1.574 . S
C548 H543 0.949 . S
C548 C554 1.368 1_556 S
C549 C533 1.349 . S
C549 H541 0.950 . S
C549 C547 1.327 . S
C550 C538 1.349 1_556 S
C550 H544 0.950 . S
C550 C551 1.327 . S
C551 H545 0.950 . S
C551 C550 1.327 . S
C551 C555 1.429 1_556 S
C552 C535 1.574 . S
C552 H546 0.949 . S
C552 C556 1.368 . S
C553 C534 1.429 1_554 S
C553 C547 1.429 . S
C553 C554 1.523 . S
C554 C535 1.368 . S
C554 C548 1.368 1_554 S
C554 C553 1.523 . S
C555 C539 1.429 . S
C555 C551 1.429 1_554 S
C555 C556 1.523 . S
C556 C540 1.368 1_554 S
C556 C552 1.368 . S
C556 C555 1.523 . S
H557 C532 0.950 . S
H558 C534 0.950 . S
H559 C535 0.949 . S
H560 C537 0.950 . S
H561 C539 0.950 . S
C562 C563 1.349 . S
C562 C564 1.327 . S
C562 H587 0.950 . S
C563 C562 1.349 . S
C563 C579 1.349 . S
C564 C562 1.327 . S
C564 C583 1.429 . S
C564 H588 0.950 . S
C565 C582 1.574 . S
C565 C584 1.368 . S
C565 H589 0.949 . S
H566 C570 0.949 . S
C567 C568 1.349 . S
C567 C569 1.327 . S
C567 H590 0.950 . S
C568 C567 1.349 . S
C568 C580 1.349 . S
C569 C567 1.327 . S
C569 C585 1.429 . S
C569 H591 0.950 . S
C570 H566 0.949 . S
C570 C578 1.574 . S
C570 C586 1.368 . S
H571 C579 0.950 . S
H572 C577 0.950 . S
H573 C578 0.949 . S
H574 C580 0.950 . S
H575 C581 0.950 . S
H576 C582 0.949 . S
C577 H572 0.950 . S
C577 C579 1.327 . S
C577 C583 1.429 . S
C578 C570 1.574 . S
C578 H573 0.949 . S
C578 C584 1.368 . S
C579 C563 1.349 . S
C579 H571 0.950 . S
C579 C577 1.327 . S
C580 C568 1.349 . S
C580 H574 0.950 . S
C580 C581 1.327 . S
C581 H575 0.950 . S
C581 C580 1.327 . S
C581 C585 1.429 . S
C582 C565 1.574 . S
C582 H576 0.949 . S
C582 C586 1.368 . S
C583 C564 1.429 . S
C583 C577 1.429 . S
C583 C584 1.523 . S
C584 C565 1.368 . S
C584 C578 1.368 . S
C584 C583 1.523 . S
C585 C569 1.429 . S
C585 C581 1.429 . S
C585 C586 1.523 . S
C586 C570 1.368 . S
C586 C582 1.368 . S
C586 C585 1.523 . S
H587 C562 0.950 . S
H588 C564 0.950 . S
H589 C565 0.949 . S
H590 C567 0.950 . S
H591 C569 0.950 . S
C113 C7 1.206 . S
C118 C63 1.206 . S
C143 C21 1.206 . S
C148 C77 1.206 . S
C173 C91 1.206 . S
C178 C35 1.206 . S
C203 C105 1.206 . S
C208 C49 1.206 . S
C233 C87 1.082 . S
C238 C31 1.082 . S
C263 C101 1.082 . S
C268 C45 1.082 . S
C293 C3 1.082 . S
C298 C59 1.082 . S
C323 C17 1.082 . S
C328 C73 1.082 . S
C353 C37 1.304 . S
C358 C9 1.304 . S
C383 C51 1.304 . S
C388 C23 1.304 . S
C413 C65 1.304 . S
C418 C93 1.304 . S
C443 C107 1.304 . S
C448 C79 1.304 . S
C473 C8 1.314 . S
C478 C78 1.314 . S
C503 C92 1.314 . S
C508 C22 1.314 . S
C533 C36 1.314 . S
C538 C106 1.314 . S
C563 C50 1.314 . S
C568 C64 1.314 . S
