# Generated by pormake.
# Topology umz, (4)-cn, num edge types: 1
# Building blocks:
#     Node 0, Type 0, BuildingBlock: QUQFOY_clean_sbu_3, # of connection points: 4
#     Node 1, Type 0, BuildingBlock: QUQFOY_clean_sbu_3, # of connection points: 4
#     Node 2, Type 0, BuildingBlock: QUQFOY_clean_sbu_3, # of connection points: 4
#     Node 3, Type 0, BuildingBlock: QUQFOY_clean_sbu_3, # of connection points: 4
#     Node 4, Type 0, BuildingBlock: QUQFOY_clean_sbu_3, # of connection points: 4
#     Node 5, Type 0, BuildingBlock: QUQFOY_clean_sbu_3, # of connection points: 4
#     Node 6, Type 0, BuildingBlock: QUQFOY_clean_sbu_3, # of connection points: 4
#     Node 7, Type 0, BuildingBlock: QUQFOY_clean_sbu_3, # of connection points: 4
#     Node 8, Type 0, BuildingBlock: QUQFOY_clean_sbu_3, # of connection points: 4
#     Node 9, Type 0, BuildingBlock: QUQFOY_clean_sbu_3, # of connection points: 4
#     Node 10, Type 0, BuildingBlock: QUQFOY_clean_sbu_3, # of connection points: 4
#     Node 11, Type 0, BuildingBlock: QUQFOY_clean_sbu_3, # of connection points: 4
#     Node 12, Type 0, BuildingBlock: QUQFOY_clean_sbu_3, # of connection points: 4
#     Node 13, Type 0, BuildingBlock: QUQFOY_clean_sbu_3, # of connection points: 4
#     Node 14, Type 0, BuildingBlock: QUQFOY_clean_sbu_3, # of connection points: 4
#     Node 15, Type 0, BuildingBlock: QUQFOY_clean_sbu_3, # of connection points: 4
#     Edge 16, Type (0, 0), BuildingBlock: KIFKEQ_clean_linker_1, # of connection points: 2
#     Edge 17, Type (0, 0), BuildingBlock: KIFKEQ_clean_linker_1, # of connection points: 2
#     Edge 18, Type (0, 0), BuildingBlock: KIFKEQ_clean_linker_1, # of connection points: 2
#     Edge 19, Type (0, 0), BuildingBlock: KIFKEQ_clean_linker_1, # of connection points: 2
#     Edge 20, Type (0, 0), BuildingBlock: KIFKEQ_clean_linker_1, # of connection points: 2
#     Edge 21, Type (0, 0), BuildingBlock: KIFKEQ_clean_linker_1, # of connection points: 2
#     Edge 22, Type (0, 0), BuildingBlock: KIFKEQ_clean_linker_1, # of connection points: 2
#     Edge 23, Type (0, 0), BuildingBlock: KIFKEQ_clean_linker_1, # of connection points: 2
#     Edge 24, Type (0, 0), BuildingBlock: KIFKEQ_clean_linker_1, # of connection points: 2
#     Edge 25, Type (0, 0), BuildingBlock: KIFKEQ_clean_linker_1, # of connection points: 2
#     Edge 26, Type (0, 0), BuildingBlock: KIFKEQ_clean_linker_1, # of connection points: 2
#     Edge 27, Type (0, 0), BuildingBlock: KIFKEQ_clean_linker_1, # of connection points: 2
#     Edge 28, Type (0, 0), BuildingBlock: KIFKEQ_clean_linker_1, # of connection points: 2
#     Edge 29, Type (0, 0), BuildingBlock: KIFKEQ_clean_linker_1, # of connection points: 2
#     Edge 30, Type (0, 0), BuildingBlock: KIFKEQ_clean_linker_1, # of connection points: 2
#     Edge 31, Type (0, 0), BuildingBlock: KIFKEQ_clean_linker_1, # of connection points: 2
#     Edge 32, Type (0, 0), BuildingBlock: KIFKEQ_clean_linker_1, # of connection points: 2
#     Edge 33, Type (0, 0), BuildingBlock: KIFKEQ_clean_linker_1, # of connection points: 2
#     Edge 34, Type (0, 0), BuildingBlock: KIFKEQ_clean_linker_1, # of connection points: 2
#     Edge 35, Type (0, 0), BuildingBlock: KIFKEQ_clean_linker_1, # of connection points: 2
#     Edge 36, Type (0, 0), BuildingBlock: KIFKEQ_clean_linker_1, # of connection points: 2
#     Edge 37, Type (0, 0), BuildingBlock: KIFKEQ_clean_linker_1, # of connection points: 2
#     Edge 38, Type (0, 0), BuildingBlock: KIFKEQ_clean_linker_1, # of connection points: 2
#     Edge 39, Type (0, 0), BuildingBlock: KIFKEQ_clean_linker_1, # of connection points: 2
#     Edge 40, Type (0, 0), BuildingBlock: KIFKEQ_clean_linker_1, # of connection points: 2
#     Edge 41, Type (0, 0), BuildingBlock: KIFKEQ_clean_linker_1, # of connection points: 2
#     Edge 42, Type (0, 0), BuildingBlock: KIFKEQ_clean_linker_1, # of connection points: 2
#     Edge 43, Type (0, 0), BuildingBlock: KIFKEQ_clean_linker_1, # of connection points: 2
#     Edge 44, Type (0, 0), BuildingBlock: KIFKEQ_clean_linker_1, # of connection points: 2
#     Edge 45, Type (0, 0), BuildingBlock: KIFKEQ_clean_linker_1, # of connection points: 2
#     Edge 46, Type (0, 0), BuildingBlock: KIFKEQ_clean_linker_1, # of connection points: 2
#     Edge 47, Type (0, 0), BuildingBlock: KIFKEQ_clean_linker_1, # of connection points: 2
# Relax obj value: 0.249
# Max RMSD: 0.161
# Mean RMSD: 0.161
data_MOF--net-umz--node1-QUQFOY_clean_sbu_3--edge1-KIFKEQ_clean_linker_1
_symmetry_space_group_name_H-M    P1
_symmetry_Int_Tables_number       1
_symmetry_cell_setting            triclinic
loop_
_symmetry_equiv_pos_as_xyz
'x, y, z'
_cell_length_a     61.705807
_cell_length_b     61.648771
_cell_length_c     23.031005
_cell_angle_alpha  89.968359
_cell_angle_beta   90.074588
_cell_angle_gamma 89.883534
loop_
_atom_site_label
_atom_site_type_symbol
_atom_site_fract_x
_atom_site_fract_y
_atom_site_fract_z
_atom_type_partial_charge
C0 C 0.94177 0.58531 0.05129 0.0
O1 O 0.94386 0.56994 0.01501 0.0
Cd2 Cd 0.97497 0.56669 0.95185 0.0
O3 O 0.95501 0.6011 0.05087 0.0
Cd4 Cd 0.98669 0.61369 -0.00469 0.0
C5 C 0.01348 0.57202 0.05839 0.0
O6 O 0.98268 0.59884 0.89691 0.0
O7 O 0.01478 0.60827 0.92503 0.0
O8 O 0.97117 0.64952 0.98014 0.0
C9 C 0.00262 0.60144 0.88462 0.0
O10 O 0.00446 0.55993 0.02058 0.0
C11 C 0.98663 0.65972 0.00424 0.0
O12 O 0.00895 0.59219 0.06139 0.0
O13 O 0.00191 0.6484 0.02568 0.0
C14 C 0.89492 0.95302 0.55953 0.0
O15 O 0.90945 0.95215 0.52057 0.0
Cd16 Cd 0.9143 0.98203 0.45342 0.0
O17 O 0.88034 0.96762 0.55774 0.0
Cd18 Cd 0.86725 -0.00288 0.49455 0.0
C19 C 0.90971 0.02361 0.55327 0.0
O20 O 0.88234 0.9896 0.39835 0.0
O21 O 0.87154 0.02239 0.41617 0.0
O22 O 0.83244 0.97956 0.48395 0.0
C23 C 0.87937 0.00891 0.38028 0.0
O24 O 0.92143 0.01256 0.51857 0.0
C25 C 0.82136 -0.0046 0.50307 0.0
O26 O 0.88926 0.02074 0.5557 0.0
O27 O 0.83177 0.01204 0.52002 0.0
C28 C 0.52926 0.89132 0.05552 0.0
O29 O 0.53151 0.90509 0.01498 0.0
Cd30 Cd 0.5016 0.91132 0.94868 0.0
O31 O 0.51365 0.87791 0.05433 0.0
Cd32 Cd 0.48411 0.86584 0.99021 0.0
C33 C 0.46027 0.90933 0.05006 0.0
O34 O 0.49113 0.88034 0.893 0.0
O35 O 0.45785 0.87326 0.91617 0.0
O36 O 0.5009 0.83081 0.97691 0.0
C37 C 0.47126 0.87958 0.87805 0.0
O38 O 0.47183 0.92027 0.01478 0.0
C39 C 0.48519 0.81982 -0.00313 0.0
O40 O 0.46197 0.88872 0.05291 0.0
O41 O 0.46878 0.83035 0.01505 0.0
C42 C 0.58537 0.53683 0.55645 0.0
O43 O 0.56987 0.5365 0.52002 0.0
Cd44 Cd 0.56586 0.50897 0.44592 0.0
O45 O 0.60099 0.52343 0.55199 0.0
Cd46 Cd 0.61333 0.49379 0.4881 0.0
C47 C 0.56984 0.46571 0.53908 0.0
O48 O 0.59894 0.50463 0.39281 0.0
O49 O 0.61125 0.47193 0.40214 0.0
O50 O 0.64936 0.50968 0.49219 0.0
C51 C 0.60316 0.48639 0.36957 0.0
O52 O 0.55813 0.47686 0.50452 0.0
C53 C 0.65898 0.49195 0.50374 0.0
O54 O 0.59015 0.46922 0.54345 0.0
O55 O 0.64726 0.47518 0.50994 0.0
C56 C 0.95036 0.895 0.93093 0.0
O57 O 0.94792 0.90849 0.97203 0.0
Cd58 Cd 0.97859 0.91461 0.03557 0.0
O59 O 0.9661 0.88166 0.93183 0.0
Cd60 Cd -0.00478 0.86909 -0.00301 0.0
C61 C 0.01972 0.91121 0.93387 0.0
O62 O 0.98939 0.8843 0.09431 0.0
O63 O 0.02221 0.87619 0.06849 0.0
O64 O 0.97774 0.83449 0.01239 0.0
C65 C 0.00943 0.88303 0.10751 0.0
O66 O 0.0077 0.92271 0.96675 0.0
C67 C -0.00679 0.82307 0.99257 0.0
O68 O 0.01845 0.89056 0.93405 0.0
O69 O 0.00973 0.83316 0.97357 0.0
C70 C 0.58585 0.94799 0.42662 0.0
O71 O 0.57175 0.94681 0.46657 0.0
Cd72 Cd 0.56699 0.97748 0.53117 0.0
O73 O 0.59994 0.96301 0.42742 0.0
Cd74 Cd 0.61213 0.99264 0.49097 0.0
C75 C 0.57003 0.01853 0.43024 0.0
O76 O 0.59787 0.9868 0.58963 0.0
O77 O 0.60522 0.01966 0.56266 0.0
O78 O 0.64755 0.97654 0.50569 0.0
C79 C 0.59949 0.00681 0.60278 0.0
O80 O 0.55844 0.00764 0.46552 0.0
C81 C 0.65813 0.9924 0.48494 0.0
O82 O 0.59047 0.01564 0.42775 0.0
O83 O 0.6472 0.00831 0.4653 0.0
C84 C 0.53811 0.5836 0.94336 0.0
O85 O 0.53839 0.56815 0.97992 0.0
Cd86 Cd 0.51046 0.56275 0.05197 0.0
O87 O 0.52405 0.59867 0.94751 0.0
Cd88 Cd 0.49401 0.61047 0.01089 0.0
C89 C 0.4673 0.56656 0.95752 0.0
O90 O 0.50396 0.59536 0.10558 0.0
O91 O 0.47117 0.60725 0.09447 0.0
O92 O 0.50913 0.64665 0.01779 0.0
C93 C 0.48534 0.59883 0.12741 0.0
O94 O 0.47939 0.5549 0.98985 0.0
C95 C 0.49245 0.65634 -0.00177 0.0
O96 O 0.46949 0.58713 0.95555 0.0
O97 O 0.47657 0.64454 0.98283 0.0
C98 C 0.89377 0.53343 0.42999 0.0
O99 O 0.90921 0.53426 0.46653 0.0
Cd100 Cd 0.91582 0.506 0.53708 0.0
O101 O 0.8793 0.51883 0.43424 0.0
Cd102 Cd 0.8682 0.48872 0.49849 0.0
C103 C 0.91176 0.46315 0.44076 0.0
O104 O 0.88393 0.49883 0.59235 0.0
O105 O 0.87261 0.46586 0.58197 0.0
O106 O 0.83267 0.50557 0.50064 0.0
C107 C 0.88119 0.48009 0.61429 0.0
O108 O 0.92326 0.47535 0.47309 0.0
C109 C 0.82228 0.48833 0.48921 0.0
O110 O 0.89114 0.46482 0.43982 0.0
O111 O 0.83332 0.4712 0.48046 0.0
C112 C 0.03984 0.39808 0.9347 0.0
O113 O 0.04073 0.41229 0.97449 0.0
Cd114 Cd 0.00968 0.41727 0.03748 0.0
O115 O 0.02484 0.38397 0.93492 0.0
Cd116 Cd -0.0054 0.37165 -0.00408 0.0
C117 C 0.96972 0.41408 0.93313 0.0
O118 O -0.00031 0.38623 0.09435 0.0
O119 O 0.96705 0.37858 0.06623 0.0
O120 O 0.01083 0.33629 0.01126 0.0
C121 C 0.9796 0.38473 0.1066 0.0
O122 O 0.9803 0.42562 0.96926 0.0
C123 C -0.00479 0.3256 0.98961 0.0
O124 O 0.97245 0.39358 0.93089 0.0
O125 O 0.97935 0.33644 0.96936 0.0
C126 C 0.08891 0.03738 0.43556 0.0
O127 O 0.07411 0.03724 0.47385 0.0
Cd128 Cd 0.06981 0.00707 0.53978 0.0
O129 O 0.10396 0.02325 0.43701 0.0
Cd130 Cd 0.1171 0.99298 0.49774 0.0
C131 C 0.07498 0.96664 0.43687 0.0
O132 O 0.10171 -0.00148 0.59459 0.0
O133 O 0.11185 0.96605 0.57103 0.0
O134 O 0.15182 0.01039 0.51269 0.0
C135 C 0.1041 0.97872 0.60909 0.0
O136 O 0.0631 0.97757 0.47141 0.0
C137 C 0.16307 -0.00488 0.49107 0.0
O138 O 0.09548 0.96934 0.43534 0.0
O139 O 0.15282 0.97885 0.47115 0.0
C140 C 0.45476 0.09213 0.92584 0.0
O141 O 0.45398 0.07713 0.96366 0.0
Cd142 Cd 0.48156 0.07152 0.03649 0.0
O143 O 0.46914 0.10688 0.9292 0.0
Cd144 Cd 0.49903 0.11888 0.99345 0.0
C145 C 0.52498 0.07428 0.94203 0.0
O146 O 0.48779 0.10452 0.08772 0.0
O147 O 0.52077 0.1159 0.07973 0.0
O148 O 0.48312 0.1549 0.99038 0.0
C149 C 0.50615 0.10769 0.11136 0.0
O150 O 0.51262 0.06315 0.9748 0.0
C151 C 0.50076 0.16463 0.97919 0.0
O152 O 0.52324 0.09489 0.93907 0.0
O153 O 0.5176 0.15297 0.97263 0.0
C154 C 0.39856 0.44659 0.44118 0.0
O155 O 0.41259 0.4444 0.48115 0.0
Cd156 Cd 0.41835 0.47391 0.54901 0.0
O157 O 0.38489 0.46202 0.44336 0.0
Cd158 Cd 0.37331 0.49148 0.50829 0.0
C159 C 0.41686 0.51565 0.44971 0.0
O160 O 0.38749 0.48417 0.60627 0.0
O161 O 0.38088 0.51752 0.58198 0.0
O162 O 0.33718 0.47689 0.5206 0.0
C163 C 0.38659 0.5041 0.62088 0.0
O164 O 0.42795 0.50408 0.48477 0.0
C165 C 0.32736 0.49333 0.50006 0.0
O166 O 0.3963 0.51374 0.44686 0.0
O167 O 0.33904 0.50889 0.48185 0.0
C168 C 0.03457 0.08665 0.05744 0.0
O169 O 0.03283 0.07102 0.02177 0.0
Cd170 Cd 0.0034 0.0677 0.95279 0.0
O171 O 0.02172 0.10279 0.05433 0.0
Cd172 Cd 0.99138 0.1162 0.99441 0.0
C173 C 0.9625 0.07466 0.05237 0.0
O174 O -0.00167 0.1004 0.89874 0.0
O175 O 0.96631 0.11346 0.91472 0.0
O176 O 0.00904 0.15109 0.98393 0.0
C177 C 0.97942 0.10458 0.87966 0.0
O178 O 0.97238 0.06231 0.01675 0.0
C179 C -0.00663 0.16213 0.00421 0.0
O180 O 0.96701 0.09482 0.05562 0.0
O181 O 0.97688 0.15167 0.02169 0.0
C182 C 0.40272 0.04037 0.54819 0.0
O183 O 0.41804 0.03822 0.51178 0.0
Cd184 Cd 0.42081 0.00818 0.44499 0.0
O185 O 0.38646 0.02769 0.54666 0.0
Cd186 Cd 0.37222 -0.00289 0.4885 0.0
C187 C 0.41361 0.96765 0.54598 0.0
O188 O 0.38773 0.00346 0.39215 0.0
O189 O 0.3738 0.97191 0.40916 0.0
O190 O 0.33689 0.01437 0.47891 0.0
C191 C 0.38296 0.98462 0.37363 0.0
O192 O 0.4262 0.97788 0.5118 0.0
C193 C 0.32638 -0.00126 0.50121 0.0
O194 O 0.39337 0.97183 0.54771 0.0
O195 O 0.33734 0.98262 0.51937 0.0
C196 C 0.45492 0.39847 0.06106 0.0
O197 O 0.45212 0.41282 0.02216 0.0
Cd198 Cd 0.47999 0.41926 0.95007 0.0
O199 O 0.4704 0.38491 0.05698 0.0
Cd200 Cd 0.49895 0.37378 0.9884 0.0
C201 C 0.52416 0.418 0.04182 0.0
O202 O 0.48743 0.38767 0.89281 0.0
O203 O 0.52111 0.37857 0.90441 0.0
O204 O 0.4832 0.3378 0.98965 0.0
C205 C 0.5062 0.38518 0.87087 0.0
O206 O 0.51153 0.42898 0.00921 0.0
C207 C 0.50091 0.32794 -0.00029 0.0
O208 O 0.52264 0.39739 0.0446 0.0
O209 O 0.51778 0.3395 0.00635 0.0
C210 C 0.0935 0.45541 0.5629 0.0
O211 O 0.07937 0.45259 0.52349 0.0
Cd212 Cd 0.07155 0.48156 0.45564 0.0
O213 O 0.10661 0.47129 0.56015 0.0
Cd214 Cd 0.11803 0.50067 0.49421 0.0
C215 C 0.0741 0.52445 0.55323 0.0
O216 O 0.1026 0.49121 0.39988 0.0
O217 O 0.11221 0.52461 0.41357 0.0
O218 O 0.15311 0.48379 0.48362 0.0
C219 C 0.10427 0.5104 0.37995 0.0
O220 O 0.06314 0.51152 0.52155 0.0
C221 C 0.16399 0.49989 0.50176 0.0
O222 O 0.09479 0.524 0.55322 0.0
O223 O 0.15337 0.51657 0.51778 0.0
H224 H 0.95544 0.68773 0.96586 0.0
H225 H 0.0192 0.68587 0.04361 0.0
H226 H 0.95711 0.72721 0.96228 0.0
H227 H 0.02075 0.72543 0.04055 0.0
H228 H 0.02495 0.79413 0.96244 0.0
H229 H 0.0232 0.75456 0.96631 0.0
H230 H 0.95736 0.75845 0.02901 0.0
H231 H 0.95899 0.79789 0.0246 0.0
C232 C 0.96975 0.69575 0.98257 0.0
C233 C 0.98719 0.68368 0.00502 0.0
C234 C 0.97067 0.71837 0.98068 0.0
C235 C 0.98909 0.72941 0.00096 0.0
C236 C 0.00646 0.71735 0.02391 0.0
C237 C 0.0055 0.69471 0.02607 0.0
C238 C 0.01009 0.78652 0.97682 0.0
C239 C 0.99211 0.79912 0.99314 0.0
C240 C 0.00914 0.76388 0.97942 0.0
C241 C 0.99015 0.75342 -0.00191 0.0
C242 C 0.97213 0.76604 0.01391 0.0
C243 C 0.97311 0.78864 0.01159 0.0
H244 H 0.68515 0.96039 0.52313 0.0
H245 H 0.68521 0.02493 0.44977 0.0
H246 H 0.72454 0.96122 0.52944 0.0
H247 H 0.72474 0.0256 0.45527 0.0
H248 H 0.79314 0.02766 0.53414 0.0
H249 H 0.75359 0.02687 0.52946 0.0
H250 H 0.75609 0.96103 0.46558 0.0
H251 H 0.79549 0.96168 0.47109 0.0
C252 C 0.69359 0.9747 0.50794 0.0
C253 C 0.68208 0.99259 0.4859 0.0
C254 C 0.71617 0.97513 0.51139 0.0
C255 C 0.72774 -0.00651 0.49297 0.0
C256 C 0.71624 0.01134 0.47053 0.0
C257 C 0.69363 0.01088 0.46694 0.0
C258 C 0.78522 0.01298 0.51947 0.0
C259 C 0.79742 -0.00527 0.50307 0.0
C260 C 0.7626 0.01259 0.51635 0.0
C261 C 0.75174 -0.00609 0.49696 0.0
C262 C 0.76396 0.97559 0.48127 0.0
C263 C 0.78655 0.976 0.48424 0.0
H264 H 0.51847 0.79395 0.96169 0.0
H265 H 0.45376 0.7915 0.03295 0.0
H266 H 0.51988 0.75454 0.96023 0.0
H267 H 0.45535 0.75186 0.03239 0.0
H268 H 0.52403 0.68509 0.02814 0.0
H269 H 0.52187 0.72451 0.02867 0.0
H270 H 0.45629 0.72128 0.96333 0.0
H271 H 0.45831 0.68169 0.96372 0.0
C272 C 0.50457 0.78499 0.97736 0.0
C273 C 0.48601 0.79585 -0.00243 0.0
C274 C 0.50543 0.76238 0.97675 0.0
C275 C 0.48775 0.75007 -0.0037 0.0
C276 C 0.46915 0.76091 0.01646 0.0
C277 C 0.46829 0.78359 0.01717 0.0
C278 C 0.50917 0.69277 0.01364 0.0
C279 C 0.49136 0.68027 -0.00422 0.0
C280 C 0.50796 0.71537 0.01376 0.0
C281 C 0.48891 0.72602 -0.00397 0.0
C282 C 0.4711 0.71353 0.97789 0.0
C283 C 0.47233 0.69088 0.97767 0.0
H284 H 0.68437 0.45698 0.47988 0.0
H285 H 0.68722 0.52415 0.53181 0.0
H286 H 0.7237 0.45575 0.47393 0.0
H287 H 0.72662 0.52268 0.53025 0.0
H288 H 0.7952 0.52197 0.46521 0.0
H289 H 0.75583 0.52229 0.46888 0.0
H290 H 0.75634 0.45487 0.52173 0.0
H291 H 0.79567 0.45436 0.51368 0.0
C292 C 0.69351 0.47136 0.49126 0.0
C293 C 0.68282 0.49068 0.5061 0.0
C294 C 0.71611 0.47067 0.48815 0.0
C295 C 0.72857 0.48916 0.5012 0.0
C296 C 0.71771 0.50826 0.51818 0.0
C297 C 0.6951 0.50909 0.51978 0.0
C298 C 0.7868 0.5072 0.47704 0.0
C299 C 0.79841 0.48813 0.48896 0.0
C300 C 0.7642 0.5074 0.47987 0.0
C301 C 0.75268 0.48867 0.4963 0.0
C302 C 0.76446 0.46954 0.50796 0.0
C303 C 0.78705 0.46922 0.50362 0.0
H304 H 0.96299 0.29827 0.9538 0.0
H305 H 0.02747 0.29874 0.02724 0.0
H306 H 0.9627 0.25868 0.95842 0.0
H307 H 0.02705 0.25928 0.03255 0.0
H308 H 0.02693 0.18827 0.97235 0.0
H309 H 0.02738 0.22775 0.96774 0.0
H310 H 0.96176 0.22974 0.03268 0.0
H311 H 0.96118 0.19016 0.03658 0.0
C312 C 0.97711 0.28993 0.97079 0.0
C313 C -0.00474 0.30162 0.99008 0.0
C314 C 0.97687 0.26728 0.97386 0.0
C315 C -0.00518 0.25588 -0.00395 0.0
C316 C 0.01305 0.26759 0.01472 0.0
C317 C 0.01326 0.2902 0.01185 0.0
C318 C 0.01263 0.19712 0.98594 0.0
C319 C -0.00599 0.1861 0.00483 0.0
C320 C 0.01292 0.21974 0.98347 0.0
C321 C -0.00542 0.23185 -0.00033 0.0
C322 C 0.97604 0.22084 0.01917 0.0
C323 C 0.97577 0.19818 0.02185 0.0
H324 H 0.29902 0.03134 0.46796 0.0
H325 H 0.29962 0.96624 0.53768 0.0
H326 H 0.25953 0.03058 0.46469 0.0
H327 H 0.26009 0.96561 0.535 0.0
H328 H 0.18866 0.02869 0.52606 0.0
H329 H 0.22811 0.02978 0.53047 0.0
H330 H 0.23111 0.96483 0.46063 0.0
H331 H 0.19157 0.96361 0.45681 0.0
C332 C 0.29072 0.01694 0.48307 0.0
C333 C 0.30244 -0.00116 0.50303 0.0
C334 C 0.26809 0.01654 0.48134 0.0
C335 C 0.25671 -0.00201 0.49932 0.0
C336 C 0.26843 0.98001 0.52008 0.0
C337 C 0.29105 0.98045 0.52205 0.0
C338 C 0.19773 0.01466 0.51143 0.0
C339 C 0.187 -0.00395 0.4911 0.0
C340 C 0.22033 0.01533 0.51378 0.0
C341 C 0.23271 -0.00263 0.49608 0.0
C342 C 0.22199 0.97881 0.4753 0.0
C343 C 0.19937 0.97818 0.47269 0.0
H344 H 0.46812 0.1927 0.95321 0.0
H345 H 0.53554 0.19028 0.00282 0.0
H346 H 0.46893 0.2321 0.95711 0.0
H347 H 0.53615 0.22966 0.01088 0.0
H348 H 0.53546 0.3022 0.97337 0.0
H349 H 0.53596 0.26283 0.96444 0.0
H350 H 0.46917 0.26057 0.02146 0.0
H351 H 0.46844 0.29995 0.02624 0.0
C352 C 0.48311 0.20067 0.96518 0.0
C353 C 0.50176 0.1885 0.97765 0.0
C354 C 0.48355 0.22328 0.96814 0.0
C355 C 0.50252 0.23425 0.98523 0.0
C356 C 0.5213 0.22195 -0.0032 0.0
C357 C 0.52097 0.19933 0.99242 0.0
C358 C 0.52096 0.29319 0.98425 0.0
C359 C 0.50189 0.30406 0.00026 0.0
C360 C 0.52123 0.27058 0.97936 0.0
C361 C 0.50254 0.25833 0.99167 0.0
C362 C 0.48371 0.26935 0.00984 0.0
C363 C 0.48332 0.29195 0.01331 0.0
H364 H 0.30172 0.52689 0.46288 0.0
H365 H 0.29892 0.46237 0.53598 0.0
H366 H 0.26215 0.52879 0.46379 0.0
H367 H 0.25954 0.46443 0.53778 0.0
H368 H 0.1921 0.53214 0.53374 0.0
H369 H 0.23172 0.53081 0.53313 0.0
H370 H 0.2294 0.46492 0.4696 0.0
H371 H 0.19002 0.4661 0.47113 0.0
C372 C 0.29267 0.51312 0.4791 0.0
C373 C 0.30343 0.49445 0.49914 0.0
C374 C 0.27003 0.51428 0.48004 0.0
C375 C 0.25772 0.49676 0.50086 0.0
C376 C 0.26853 0.47809 0.52077 0.0
C377 C 0.29112 0.47695 0.51993 0.0
C378 C 0.20009 0.51737 0.51988 0.0
C379 C 0.18794 0.49921 0.50268 0.0
C380 C 0.22276 0.51665 0.51914 0.0
C381 C 0.23369 0.49775 0.50137 0.0
C382 C 0.22148 0.47962 0.48428 0.0
C383 C 0.19889 0.48035 0.48492 0.0
H384 H 0.98164 0.58879 0.78505 0.0
H385 H 0.04533 0.59633 0.86037 0.0
H386 H -0.00198 0.57376 0.69721 0.0
H387 H 0.06153 0.58041 0.77496 0.0
H388 H 0.08918 0.56134 0.6054 0.0
H389 H 0.07071 0.58353 0.67765 0.0
H390 H 0.01469 0.54165 0.6665 0.0
H391 H 0.03269 0.52037 0.59222 0.0
C392 C -0.00089 0.58727 0.78276 0.0
C393 C 0.01217 0.59364 0.82966 0.0
C394 C 0.00853 0.57854 0.73263 0.0
C395 C 0.03116 0.57574 0.72882 0.0
C396 C 0.04413 0.58266 0.77545 0.0
C397 C 0.03478 0.59164 0.82492 0.0
C398 C 0.07281 0.5571 0.61795 0.0
C399 C 0.06246 0.53903 0.5935 0.0
C400 C 0.06224 0.56973 0.65963 0.0
C401 C 0.04125 0.56428 0.6787 0.0
C402 C 0.03068 0.54661 0.65254 0.0
C403 C 0.04109 0.53426 0.61013 0.0
H404 H 0.94649 0.0333 0.05201 0.0
H405 H 0.943 0.09398 0.14557 0.0
H406 H 0.92323 0.01638 0.12437 0.0
H407 H 0.9203 0.07693 0.21859 0.0
H408 H 0.86866 0.04619 0.32442 0.0
H409 H 0.88559 0.06153 0.23837 0.0
H410 H 0.92638 0.0047 0.22386 0.0
H411 H 0.90886 0.98905 0.3091 0.0
C412 C 0.94067 0.04308 0.08782 0.0
C413 C 0.94671 0.06499 0.09317 0.0
C414 C 0.92743 0.03333 0.12947 0.0
C415 C 0.91999 0.04524 0.17747 0.0
C416 C 0.92547 0.06733 0.18176 0.0
C417 C 0.93861 0.07711 0.14 0.0
C418 C 0.88103 0.03683 0.3023 0.0
C419 C 0.88761 0.01652 0.32373 0.0
C420 C 0.89082 0.04569 0.2532 0.0
C421 C 0.90759 0.03453 0.22472 0.0
C422 C 0.9134 0.01368 0.24447 0.0
C423 C 0.90343 0.00472 0.29341 0.0
H424 H 0.42982 0.89031 0.85102 0.0
H425 H 0.49476 0.89056 0.78131 0.0
H426 H 0.41671 0.90916 0.76596 0.0
H427 H 0.48139 0.90849 0.69356 0.0
H428 H 0.39336 0.9331 0.59619 0.0
H429 H 0.40811 0.90829 0.66856 0.0
H430 H 0.4693 0.9424 0.66254 0.0
H431 H 0.45488 0.96617 0.58766 0.0
C432 C 0.44126 0.894 0.81679 0.0
C433 C 0.46337 0.88908 0.82304 0.0
C434 C 0.43367 0.90469 0.76749 0.0
C435 C 0.44792 0.91041 0.72243 0.0
C436 C 0.46998 0.90472 0.72775 0.0
C437 C 0.47765 0.89431 0.7778 0.0
C438 C 0.41004 0.93506 0.60996 0.0
C439 C 0.42292 0.95164 0.58668 0.0
C440 C 0.4185 0.92095 0.65173 0.0
C441 C 0.43987 0.92346 0.67231 0.0
C442 C 0.45291 0.93968 0.64743 0.0
C443 C 0.44459 0.95346 0.60471 0.0
H444 H 0.53236 0.46166 0.04653 0.0
H445 H 0.55066 0.4005 0.12459 0.0
H446 H 0.55495 0.48083 0.11664 0.0
H447 H 0.57264 0.41961 0.19527 0.0
H448 H 0.61997 0.45527 0.3001 0.0
H449 H 0.60432 0.44072 0.21128 0.0
H450 H 0.55346 0.48896 0.2191 0.0
H451 H 0.56974 0.50404 0.307 0.0
C452 C 0.54133 0.45228 0.07829 0.0
C453 C 0.53959 0.42952 0.08016 0.0
C454 C 0.55419 0.4633 0.11865 0.0
C455 C 0.56556 0.45181 0.16173 0.0
C456 C 0.5644 0.42901 0.16216 0.0
C457 C 0.55164 0.41801 0.12178 0.0
C458 C 0.6057 0.46304 0.28206 0.0
C459 C 0.59589 0.48059 0.31065 0.0
C460 C 0.59665 0.45462 0.23142 0.0
C461 C 0.57736 0.46334 0.20875 0.0
C462 C 0.56838 0.48189 0.2352 0.0
C463 C 0.57765 0.49053 0.28563 0.0
H464 H 0.09286 0.93118 0.38423 0.0
H465 H 0.03346 0.96799 0.39719 0.0
H466 H 0.07604 0.90756 0.31245 0.0
H467 H 0.01702 0.94537 0.32302 0.0
H468 H 0.98746 0.89523 0.20603 0.0
H469 H 0.0027 0.9122 0.29291 0.0
H470 H 0.06652 0.90935 0.2156 0.0
H471 H 0.05156 0.8915 0.13144 0.0
C472 C 0.07622 0.93424 0.37153 0.0
C473 C 0.06454 0.9515 0.39591 0.0
C474 C 0.06657 0.92079 0.33014 0.0
C475 C 0.04519 0.92466 0.31111 0.0
C476 C 0.03336 0.94161 0.33697 0.0
C477 C 0.04286 0.95474 0.37925 0.0
C478 C 0.00477 0.89801 0.20826 0.0
C479 C 0.01828 0.89208 0.16193 0.0
C480 C 0.01352 0.90786 0.25781 0.0
C481 C 0.0359 0.91226 0.2615 0.0
C482 C 0.04933 0.90587 0.21531 0.0
C483 C 0.04068 0.89576 0.16653 0.0
H484 H 0.52242 0.03243 0.90513 0.0
H485 H 0.56139 0.09026 0.88988 0.0
H486 H 0.54361 0.01512 0.82949 0.0
H487 H 0.58358 0.07249 0.81641 0.0
H488 H 0.59356 0.04908 0.6308 0.0
H489 H 0.57892 0.06402 0.71926 0.0
H490 H 0.5755 -0.0004 0.79333 0.0
H491 H 0.58925 0.98445 0.70236 0.0
C492 C 0.53592 0.04125 0.88663 0.0
C493 C 0.54005 0.06283 0.90276 0.0
C494 C 0.54821 0.03124 0.8434 0.0
C495 C 0.56519 0.04246 0.81599 0.0
C496 C 0.57024 0.06355 0.83525 0.0
C497 C 0.55764 0.07372 0.87764 0.0
C498 C 0.58987 0.03805 0.66603 0.0
C499 C 0.59239 0.01554 0.65938 0.0
C500 C 0.58165 0.04669 0.71731 0.0
C501 C 0.57602 0.0331 0.76391 0.0
C502 C 0.57932 0.01056 0.75808 0.0
C503 C 0.5873 0.00185 0.70613 0.0
H504 H 0.3991 0.53999 0.36273 0.0
H505 H 0.4602 0.52518 0.44604 0.0
H506 H 0.41784 0.56241 0.29234 0.0
H507 H 0.47896 0.5482 0.37615 0.0
H508 H 0.50363 0.56544 0.18887 0.0
H509 H 0.48822 0.54741 0.27386 0.0
H510 H 0.43726 0.59558 0.28014 0.0
H511 H 0.45222 0.61301 0.19433 0.0
C512 C 0.4165 0.54177 0.3666 0.0
C513 C 0.42814 0.5307 0.40989 0.0
C514 C 0.42727 0.55478 0.32641 0.0
C515 C 0.44992 0.55717 0.3287 0.0
C516 C 0.46153 0.54651 0.37284 0.0
C517 C 0.45075 0.53341 0.41303 0.0
C518 C 0.48941 0.57238 0.20928 0.0
C519 C 0.47892 0.5904 0.1847 0.0
C520 C 0.48058 0.5621 0.25799 0.0
C521 C 0.46126 0.56984 0.28311 0.0
C522 C 0.45181 0.58886 0.2609 0.0
C523 C 0.46045 0.59893 0.212 0.0
H524 H 0.95829 0.45702 0.92878 0.0
H525 H 0.94708 0.39544 0.84428 0.0
H526 H 0.93447 0.4748 0.85874 0.0
H527 H 0.9238 0.41326 0.7737 0.0
H528 H 0.86999 0.44554 0.68025 0.0
H529 H 0.88932 0.43085 0.76361 0.0
H530 H 0.93422 0.48451 0.75644 0.0
H531 H 0.91433 0.49958 0.67378 0.0
C532 C 0.95073 0.44726 0.89536 0.0
C533 C 0.95461 0.42478 0.89213 0.0
C534 C 0.93716 0.45749 0.85509 0.0
C535 C 0.92718 0.44547 0.81073 0.0
C536 C 0.93089 0.42297 0.80797 0.0
C537 C 0.94438 0.41274 0.84825 0.0
C538 C 0.88377 0.4544 0.69715 0.0
C539 C 0.89081 0.47357 0.67028 0.0
C540 C 0.89494 0.4459 0.74463 0.0
C541 C 0.91357 0.45626 0.76594 0.0
C542 C 0.91987 0.47617 0.74122 0.0
C543 C 0.90851 0.48481 0.69387 0.0
H544 H 0.93723 0.3918 0.13128 0.0
H545 H 0.00125 0.39575 0.20663 0.0
H546 H 0.92184 0.40788 0.21751 0.0
H547 H 0.98563 0.41094 0.29531 0.0
H548 H 0.95346 0.46525 0.40283 0.0
H549 H 0.97051 0.44353 0.32791 0.0
H550 H 0.91251 0.40452 0.31455 0.0
H551 H 0.89502 0.42723 0.38742 0.0
C552 C 0.94802 0.39573 0.1669 0.0
C553 C 0.9705 0.39267 0.16195 0.0
C554 C 0.93912 0.4048 0.21685 0.0
C555 C 0.95242 0.41075 0.26378 0.0
C556 C 0.9749 0.40691 0.2597 0.0
C557 C 0.98387 0.3981 0.20908 0.0
C558 C 0.94441 0.45189 0.38433 0.0
C559 C 0.92279 0.44811 0.40048 0.0
C560 C 0.95428 0.43927 0.34153 0.0
C561 C 0.94288 0.42232 0.3145 0.0
C562 C 0.92163 0.41779 0.33321 0.0
C563 C 0.91161 0.4307 0.37525 0.0
H564 H 0.01615 0.95206 0.89004 0.0
H565 H 0.05693 0.89508 0.88653 0.0
H566 H 0.03883 0.96914 0.81708 0.0
H567 H 0.08052 0.91261 0.81606 0.0
H568 H 0.09813 0.93628 0.63529 0.0
H569 H 0.07982 0.92099 0.71829 0.0
H570 H 0.07158 0.98529 0.79033 0.0
H571 H 0.08903 0.00076 0.70454 0.0
C572 C 0.03025 0.94336 0.87442 0.0
C573 C 0.03464 0.92214 0.89337 0.0
C574 C 0.0434 0.95324 0.83286 0.0
C575 C 0.0615 0.94226 0.81009 0.0
C576 C 0.06643 0.92138 0.83135 0.0
C577 C 0.05299 0.91133 0.87198 0.0
C578 C 0.09259 0.9472 0.669 0.0
C579 C 0.09489 0.96976 0.66317 0.0
C580 C 0.08221 0.93838 0.71713 0.0
C581 C 0.07416 0.95184 0.76141 0.0
C582 C 0.07721 0.97443 0.75663 0.0
C583 C 0.08734 0.98332 0.70774 0.0
H584 H 0.52712 0.02998 0.42561 0.0
H585 H 0.589 0.04237 0.34436 0.0
H586 H 0.50959 0.05446 0.35669 0.0
H587 H 0.57145 0.06629 0.27493 0.0
H588 H 0.53958 0.11971 0.18042 0.0
H589 H 0.55355 0.10065 0.26517 0.0
H590 H 0.50059 0.05504 0.25395 0.0
H591 H 0.48623 0.07465 0.17001 0.0
C592 C 0.537 0.03796 0.39321 0.0
C593 C 0.55947 0.03417 0.39041 0.0
C594 C 0.52692 0.05192 0.3536 0.0
C595 C 0.5391 0.06237 0.31039 0.0
C596 C 0.56161 0.05883 0.30832 0.0
C597 C 0.57168 0.04496 0.34792 0.0
C598 C 0.53069 0.10586 0.19681 0.0
C599 C 0.51198 0.09848 0.16835 0.0
C600 C 0.53877 0.09485 0.24508 0.0
C601 C 0.52845 0.07606 0.26555 0.0
C602 C 0.50889 0.06952 0.2394 0.0
C603 C 0.50066 0.08071 0.19129 0.0
H604 H 0.39363 0.54593 0.65137 0.0
H605 H 0.39818 0.48048 0.71751 0.0
H606 H 0.41012 0.55963 0.73891 0.0
H607 H 0.41385 0.49441 0.80772 0.0
H608 H 0.46905 0.52518 0.9165 0.0
H609 H 0.44658 0.50904 0.8415 0.0
H610 H 0.40714 0.56713 0.83696 0.0
H611 H 0.43057 0.58371 0.90958 0.0
C612 C 0.39778 0.53445 0.68527 0.0
C613 C 0.39475 0.51208 0.67729 0.0
C614 C 0.40708 0.54238 0.73604 0.0
C615 C 0.41333 0.5282 0.78087 0.0
C616 C 0.40956 0.50581 0.77381 0.0
C617 C 0.40047 0.4978 0.72232 0.0
C618 C 0.45541 0.5344 0.89992 0.0
C619 C 0.45174 0.55583 0.91821 0.0
C620 C 0.44239 0.52507 0.8571 0.0
C621 C 0.42514 0.53684 0.83233 0.0
C622 C 0.42064 0.55778 0.85369 0.0
C623 C 0.43397 0.56728 0.8956 0.0
H624 H 0.95215 0.03642 0.55427 0.0
H625 H 0.89139 0.04516 0.64463 0.0
H626 H 0.97029 0.05899 0.62616 0.0
H627 H 0.90962 0.06716 0.71722 0.0
H628 H 0.94332 0.1174 0.82151 0.0
H629 H 0.92732 0.10083 0.73574 0.0
H630 H 0.98115 0.05599 0.72626 0.0
H631 H -0.00249 0.07313 0.81115 0.0
C632 C 0.94262 0.04324 0.58929 0.0
C633 C 0.92032 0.03889 0.59386 0.0
C634 C 0.95307 0.05608 0.63067 0.0
C635 C 0.94147 0.06481 0.67764 0.0
C636 C 0.91903 0.06098 0.68117 0.0
C637 C 0.90856 0.04824 0.63966 0.0
C638 C 0.9519 0.10421 0.80054 0.0
C639 C 0.97155 0.0964 0.82327 0.0
C640 C 0.94266 0.09463 0.75161 0.0
C641 C 0.95275 0.07685 0.72464 0.0
C642 C 0.973 0.06975 0.74568 0.0
C643 C 0.98237 0.07952 0.79443 0.0
H644 H 0.41523 0.00091 0.30488 0.0
H645 H 0.36825 0.94925 0.31596 0.0
H646 H 0.43161 0.98335 0.22059 0.0
H647 H 0.38407 0.93208 0.23084 0.0
H648 H 0.43791 0.89266 0.14221 0.0
H649 H 0.41687 0.91245 0.21394 0.0
H650 H 0.42823 0.97221 0.12069 0.0
H651 H 0.44983 0.95248 0.04966 0.0
C652 C 0.40809 0.9861 0.28839 0.0
C653 C 0.39067 0.97629 0.3173 0.0
C654 C 0.41742 0.97604 0.24002 0.0
C655 C 0.40934 0.95612 0.21948 0.0
C656 C 0.39102 0.94712 0.24639 0.0
C657 C 0.38187 0.95703 0.29492 0.0
C658 C 0.43575 0.90998 0.1366 0.0
C659 C 0.44569 0.92099 0.09042 0.0
C660 C 0.42355 0.92134 0.1776 0.0
C661 C 0.42088 0.94396 0.17315 0.0
C662 C 0.43024 0.95486 0.12587 0.0
C663 C 0.44253 0.94351 0.085 0.0
H664 H 0.53881 0.37011 0.80365 0.0
H665 H 0.48636 0.41654 0.80532 0.0
H666 H 0.55251 0.38588 0.71411 0.0
H667 H 0.50054 0.43302 0.71657 0.0
H668 H 0.52698 0.45412 0.54287 0.0
H669 H 0.50925 0.43096 0.61432 0.0
H670 H 0.57117 0.41896 0.69633 0.0
H671 H 0.58889 0.44151 0.62442 0.0
C672 C 0.53006 0.38356 0.78432 0.0
C673 C 0.5117 0.3923 0.81163 0.0
C674 C 0.53799 0.39269 0.73324 0.0
C675 C 0.52793 0.41101 0.70883 0.0
C676 C 0.50865 0.41885 0.73405 0.0
C677 C 0.50052 0.40947 0.78494 0.0
C678 C 0.53685 0.44626 0.57566 0.0
C679 C 0.55936 0.44978 0.57811 0.0
C680 C 0.52664 0.43308 0.61679 0.0
C681 C 0.53874 0.42315 0.6612 0.0
C682 C 0.56135 0.42606 0.66224 0.0
C683 C 0.57154 0.43915 0.62112 0.0
H684 H 0.07349 0.48896 0.31636 0.0
H685 H 0.1123 0.54718 0.31914 0.0
H686 H 0.05303 0.50327 0.2338 0.0
H687 H 0.09242 0.56117 0.23586 0.0
H688 H 0.03279 0.59172 0.15114 0.0
H689 H 0.05659 0.57542 0.22309 0.0
H690 H 0.05322 0.51413 0.13256 0.0
H691 H 0.02886 0.53032 0.06114 0.0
C692 C 0.07798 0.50456 0.29843 0.0
C693 C 0.09429 0.51707 0.32451 0.0
C694 C 0.0663 0.51276 0.2511 0.0
C695 C 0.07088 0.53353 0.22884 0.0
C696 C 0.08812 0.54537 0.25287 0.0
C697 C 0.09961 0.53729 0.30033 0.0
C698 C 0.0372 0.5748 0.14628 0.0
C699 C 0.02887 0.56234 0.10042 0.0
C700 C 0.05099 0.56547 0.18738 0.0
C701 C 0.0569 0.54347 0.18345 0.0
C702 C 0.04881 0.53105 0.13715 0.0
C703 C 0.03493 0.54038 0.09609 0.0
H704 H 0.86575 0.53325 0.33759 0.0
H705 H 0.92332 0.56488 0.40269 0.0
H706 H 0.87105 0.55053 0.24345 0.0
H707 H 0.92874 0.58182 0.30858 0.0
H708 H 0.93442 0.61408 0.13968 0.0
H709 H 0.91691 0.60642 0.23219 0.0
H710 H 0.89797 0.54332 0.16864 0.0
H711 H 0.91509 0.55107 0.07599 0.0
C712 C 0.87928 0.54424 0.33231 0.0
C713 C 0.89432 0.54739 0.37753 0.0
C714 C 0.88235 0.55406 0.27818 0.0
C715 C 0.90046 0.56732 0.26817 0.0
C716 C 0.91452 0.57183 0.31478 0.0
C717 C 0.91148 0.56199 0.36882 0.0
C718 C 0.92601 0.5988 0.14482 0.0
C719 C 0.92654 0.58301 0.10072 0.0
C720 C 0.91607 0.59438 0.19804 0.0
C721 C 0.90642 0.57411 0.20827 0.0
C722 C 0.90519 0.55914 0.16228 0.0
C723 C 0.91511 0.56356 0.10905 0.0
H724 H 0.88212 0.96329 0.66856 0.0
H725 H 0.91274 0.91239 0.56956 0.0
H726 H 0.89164 0.9451 0.75784 0.0
H727 H 0.92074 0.89284 0.65913 0.0
H728 H 0.96248 0.88416 0.82173 0.0
H729 H 0.94508 0.89419 0.73185 0.0
H730 H 0.89044 0.91972 0.82818 0.0
H731 H 0.90912 0.91122 0.91877 0.0
C732 C 0.89025 0.94773 0.6659 0.0
C733 C 0.89694 0.93939 0.6121 0.0
C734 C 0.89563 0.93709 0.71746 0.0
C735 C 0.90736 0.91746 0.71663 0.0
C736 C 0.91241 0.90826 0.66216 0.0
C737 C 0.90762 0.9193 0.61056 0.0
C738 C 0.94657 0.8916 0.82374 0.0
C739 C 0.93729 0.89715 0.87736 0.0
C740 C 0.93639 0.89727 0.77178 0.0
C741 C 0.9163 0.90816 0.77184 0.0
C742 C 0.90621 0.91206 0.82584 0.0
C743 C 0.91676 0.90697 0.878 0.0
H744 H 0.57065 0.90696 0.06734 0.0
H745 H 0.51723 0.8804 0.16473 0.0
H746 H 0.5896 0.91496 0.15776 0.0
H747 H 0.53492 0.88997 0.25454 0.0
H748 H 0.56774 0.90752 0.41663 0.0
H749 H 0.55938 0.88821 0.32703 0.0
H750 H 0.58878 0.9402 0.22828 0.0
H751 H 0.59862 0.95815 0.31745 0.0
C752 C 0.56306 0.90271 0.10816 0.0
C753 C 0.54244 0.89318 0.10896 0.0
C754 C 0.57377 0.90752 0.16023 0.0
C755 C 0.56374 0.90364 0.21433 0.0
C756 C 0.54355 0.89302 0.21453 0.0
C757 C 0.53321 0.88762 0.16262 0.0
C758 C 0.57286 0.91442 0.37562 0.0
C759 C 0.58371 0.93438 0.37406 0.0
C760 C 0.56785 0.90351 0.32399 0.0
C761 C 0.57288 0.91273 0.26951 0.0
C762 C 0.58479 0.93219 0.26865 0.0
C763 C 0.59037 0.94269 0.32019 0.0
H764 H 0.61419 0.53971 0.64665 0.0
H765 H 0.55253 0.56455 0.58672 0.0
H766 H 0.60788 0.55599 0.74156 0.0
H767 H 0.54612 0.58046 0.68171 0.0
H768 H 0.53972 0.61227 0.85257 0.0
H769 H 0.55591 0.60619 0.75748 0.0
H770 H 0.58291 0.54561 0.81845 0.0
H771 H 0.56709 0.5518 0.91361 0.0
C772 C 0.59948 0.549 0.65325 0.0
C773 C 0.5837 0.55052 0.60923 0.0
C774 C 0.59583 0.55823 0.70782 0.0
C775 C 0.57637 0.56925 0.71955 0.0
C776 C 0.56137 0.57221 0.67415 0.0
C777 C 0.565 0.56297 0.61961 0.0
C778 C 0.54956 0.5979 0.84618 0.0
C779 C 0.55181 0.58234 0.89056 0.0
C780 C 0.55873 0.59437 0.7915 0.0
C781 C 0.57041 0.57526 0.78003 0.0
C782 C 0.57412 0.56058 0.82578 0.0
C783 C 0.56494 0.56408 0.88044 0.0
H784 H 0.08049 0.4132 0.57586 0.0
H785 H 0.10386 0.46856 0.67158 0.0
H786 H 0.07386 0.39408 0.66679 0.0
H787 H 0.09556 0.45062 0.76202 0.0
H788 H 0.03093 0.38366 0.82613 0.0
H789 H 0.04859 0.39379 0.737 0.0
H790 H 0.09866 0.42655 0.83531 0.0
H791 H 0.07956 0.4178 0.92491 0.0
C792 C 0.08432 0.42119 0.61646 0.0
C793 C 0.09254 0.44238 0.61669 0.0
C794 C 0.0803 0.41037 0.66882 0.0
C795 C 0.08362 0.42084 0.72262 0.0
C796 C 0.09298 0.44166 0.72224 0.0
C797 C 0.09764 0.45214 0.67001 0.0
C798 C 0.04593 0.3927 0.82887 0.0
C799 C 0.05367 0.40021 0.88257 0.0
C800 C 0.05628 0.39845 0.77731 0.0
C801 C 0.07504 0.41142 0.77799 0.0
C802 C 0.08385 0.41724 0.8324 0.0
C803 C 0.07308 0.41201 0.88404 0.0
H804 H 0.06237 0.05332 0.08333 0.0
H805 H 0.0397 0.11522 0.14743 0.0
H806 H 0.0802 0.04649 0.17579 0.0
H807 H 0.05783 0.10844 0.23978 0.0
H808 H 0.05675 0.06676 0.41146 0.0
H809 H 0.04869 0.08307 0.31772 0.0
H810 H 0.1078 0.05617 0.24757 0.0
H811 H 0.11578 0.03956 0.34123 0.0
C812 C 0.06166 0.06574 0.11653 0.0
C813 C 0.0493 0.08465 0.10815 0.0
C814 C 0.072 0.06186 0.16958 0.0
C815 C 0.07021 0.07682 0.21548 0.0
C816 C 0.05921 0.09646 0.20561 0.0
C817 C 0.04892 0.10036 0.15249 0.0
C818 C 0.06834 0.06476 0.37657 0.0
C819 C 0.08672 0.05152 0.38372 0.0
C820 C 0.06375 0.07422 0.32273 0.0
C821 C 0.07745 0.07065 0.27487 0.0
C822 C 0.09673 0.05889 0.28331 0.0
C823 C 0.10135 0.04948 0.33718 0.0
H824 H 0.37455 0.04739 0.63814 0.0
H825 H 0.43716 0.06683 0.57241 0.0
H826 H 0.38241 0.06542 0.7299 0.0
H827 H 0.44512 0.08443 0.66432 0.0
H828 H 0.45493 0.11883 0.83062 0.0
H829 H 0.43784 0.11207 0.73686 0.0
H830 H 0.40705 0.05495 0.80717 0.0
H831 H 0.42373 0.06187 0.90089 0.0
C832 C 0.3898 0.05588 0.64272 0.0
C833 C 0.40538 0.05532 0.59816 0.0
C834 C 0.39434 0.06612 0.69551 0.0
C835 C 0.41453 0.07606 0.70488 0.0
C836 C 0.42936 0.07705 0.6586 0.0
C837 C 0.42482 0.06683 0.60582 0.0
C838 C 0.44409 0.10512 0.82651 0.0
C839 C 0.44098 0.0907 0.87315 0.0
C840 C 0.4344 0.10119 0.7726 0.0
C841 C 0.42131 0.08281 0.76421 0.0
C842 C 0.41689 0.06935 0.81209 0.0
C843 C 0.42659 0.07326 0.86591 0.0
H844 H 0.46821 0.38655 0.16862 0.0
H845 H 0.41323 0.41285 0.07635 0.0
H846 H 0.45064 0.39388 0.26019 0.0
H847 H 0.39449 0.41857 0.16822 0.0
H848 H 0.38453 0.45822 0.33394 0.0
H849 H 0.39462 0.44241 0.24222 0.0
H850 H 0.42644 0.38959 0.33272 0.0
H851 H 0.41773 0.40676 0.42515 0.0
C852 C 0.45197 0.39326 0.16797 0.0
C853 C 0.44219 0.39938 0.11536 0.0
C854 C 0.4417 0.39735 0.22083 0.0
C855 C 0.42107 0.40716 0.22255 0.0
C856 C 0.41063 0.4117 0.1693 0.0
C857 C 0.42124 0.40822 0.11638 0.0
C858 C 0.39335 0.443 0.33438 0.0
C859 C 0.40059 0.4339 0.38688 0.0
C860 C 0.39908 0.43374 0.28131 0.0
C861 C 0.41178 0.41475 0.27912 0.0
C862 C 0.41735 0.40461 0.33209 0.0
C863 C 0.41213 0.41428 0.38533 0.0
loop_
_geom_bond_atom_site_label_1
_geom_bond_atom_site_label_2
_geom_bond_distance
_geom_bond_site_symmetry_2
_ccdc_geom_bond_type
C0 O1 1.306 . S
C0 O3 1.160 . S
O1 C0 1.306 . S
O1 Cd2 2.228 1_655 S
Cd2 O1 2.228 1_455 S
Cd2 O6 2.273 . S
Cd2 O10 2.277 . S
O3 C0 1.160 . S
O3 Cd4 2.203 1_655 S
Cd4 O3 2.203 1_455 S
Cd4 O6 2.411 . S
Cd4 O7 2.333 . S
Cd4 O8 2.352 1_455 S
Cd4 O12 2.277 . S
Cd4 O13 2.356 . S
C5 O10 1.209 . S
C5 O12 1.226 . S
O6 Cd2 2.273 . S
O6 Cd4 2.411 . S
O6 C9 1.320 . S
O7 Cd4 2.333 . S
O7 C9 1.214 . S
O8 Cd4 2.352 1_655 S
O8 C11 1.258 1_655 S
C9 O6 1.320 . S
C9 O7 1.214 . S
O10 Cd2 2.277 . S
O10 C5 1.209 . S
C11 O8 1.258 1_455 S
C11 O13 1.282 . S
O12 Cd4 2.277 . S
O12 C5 1.226 . S
O13 Cd4 2.356 . S
O13 C11 1.282 . S
C14 O15 1.306 . S
C14 O17 1.160 . S
O15 C14 1.306 . S
O15 Cd16 2.228 1_565 S
Cd16 O15 2.228 1_545 S
Cd16 O20 2.273 . S
Cd16 O24 2.277 . S
O17 C14 1.160 . S
O17 Cd18 2.203 1_565 S
Cd18 O17 2.203 1_545 S
Cd18 O20 2.411 . S
Cd18 O21 2.333 . S
Cd18 O22 2.352 1_545 S
Cd18 O26 2.277 . S
Cd18 O27 2.356 . S
C19 O24 1.209 . S
C19 O26 1.226 . S
O20 Cd16 2.273 . S
O20 Cd18 2.411 . S
O20 C23 1.320 . S
O21 Cd18 2.333 . S
O21 C23 1.214 . S
O22 Cd18 2.352 1_565 S
O22 C25 1.258 1_565 S
C23 O20 1.320 . S
C23 O21 1.214 . S
O24 Cd16 2.277 . S
O24 C19 1.209 . S
C25 O22 1.258 1_545 S
C25 O27 1.282 . S
O26 Cd18 2.277 . S
O26 C19 1.226 . S
O27 Cd18 2.356 . S
O27 C25 1.282 . S
C28 O29 1.306 . S
C28 O31 1.160 . S
O29 C28 1.306 . S
O29 Cd30 2.228 . S
Cd30 O29 2.228 . S
Cd30 O34 2.273 . S
Cd30 O38 2.277 . S
O31 C28 1.160 . S
O31 Cd32 2.203 . S
Cd32 O31 2.203 . S
Cd32 O34 2.411 . S
Cd32 O35 2.333 . S
Cd32 O36 2.352 . S
Cd32 O40 2.277 . S
Cd32 O41 2.356 . S
C33 O38 1.209 . S
C33 O40 1.226 . S
O34 Cd30 2.273 . S
O34 Cd32 2.411 . S
O34 C37 1.320 . S
O35 Cd32 2.333 . S
O35 C37 1.214 . S
O36 Cd32 2.352 . S
O36 C39 1.258 . S
C37 O34 1.320 . S
C37 O35 1.214 . S
O38 Cd30 2.277 . S
O38 C33 1.209 . S
C39 O36 1.258 . S
C39 O41 1.282 . S
O40 Cd32 2.277 . S
O40 C33 1.226 . S
O41 Cd32 2.356 . S
O41 C39 1.282 . S
C42 O43 1.306 . S
C42 O45 1.160 . S
O43 C42 1.306 . S
O43 Cd44 2.228 . S
Cd44 O43 2.228 . S
Cd44 O48 2.273 . S
Cd44 O52 2.277 . S
O45 C42 1.160 . S
O45 Cd46 2.203 . S
Cd46 O45 2.203 . S
Cd46 O48 2.411 . S
Cd46 O49 2.333 . S
Cd46 O50 2.352 . S
Cd46 O54 2.277 . S
Cd46 O55 2.356 . S
C47 O52 1.209 . S
C47 O54 1.226 . S
O48 Cd44 2.273 . S
O48 Cd46 2.411 . S
O48 C51 1.320 . S
O49 Cd46 2.333 . S
O49 C51 1.214 . S
O50 Cd46 2.352 . S
O50 C53 1.258 . S
C51 O48 1.320 . S
C51 O49 1.214 . S
O52 Cd44 2.277 . S
O52 C47 1.209 . S
C53 O50 1.258 . S
C53 O55 1.282 . S
O54 Cd46 2.277 . S
O54 C47 1.226 . S
O55 Cd46 2.356 . S
O55 C53 1.282 . S
C56 O57 1.306 . S
C56 O59 1.160 . S
O57 C56 1.306 . S
O57 Cd58 2.228 1_655 S
Cd58 O57 2.228 1_455 S
Cd58 O62 2.273 . S
Cd58 O66 2.277 . S
O59 C56 1.160 . S
O59 Cd60 2.203 1_655 S
Cd60 O59 2.203 1_455 S
Cd60 O62 2.411 . S
Cd60 O63 2.333 . S
Cd60 O64 2.352 1_455 S
Cd60 O68 2.277 . S
Cd60 O69 2.356 . S
C61 O66 1.209 . S
C61 O68 1.226 . S
O62 Cd58 2.273 . S
O62 Cd60 2.411 . S
O62 C65 1.320 . S
O63 Cd60 2.333 . S
O63 C65 1.214 . S
O64 Cd60 2.352 1_655 S
O64 C67 1.258 1_655 S
C65 O62 1.320 . S
C65 O63 1.214 . S
O66 Cd58 2.277 . S
O66 C61 1.209 . S
C67 O64 1.258 1_455 S
C67 O69 1.282 . S
O68 Cd60 2.277 . S
O68 C61 1.226 . S
O69 Cd60 2.356 . S
O69 C67 1.282 . S
C70 O71 1.306 . S
C70 O73 1.160 . S
O71 C70 1.306 . S
O71 Cd72 2.228 1_565 S
Cd72 O71 2.228 1_545 S
Cd72 O76 2.273 . S
Cd72 O80 2.277 . S
O73 C70 1.160 . S
O73 Cd74 2.203 1_565 S
Cd74 O73 2.203 1_545 S
Cd74 O76 2.411 . S
Cd74 O77 2.333 . S
Cd74 O78 2.352 1_545 S
Cd74 O82 2.277 . S
Cd74 O83 2.356 . S
C75 O80 1.209 . S
C75 O82 1.226 . S
O76 Cd72 2.273 . S
O76 Cd74 2.411 . S
O76 C79 1.320 . S
O77 Cd74 2.333 . S
O77 C79 1.214 . S
O78 Cd74 2.352 1_565 S
O78 C81 1.258 1_565 S
C79 O76 1.320 . S
C79 O77 1.214 . S
O80 Cd72 2.277 . S
O80 C75 1.209 . S
C81 O78 1.258 1_545 S
C81 O83 1.282 . S
O82 Cd74 2.277 . S
O82 C75 1.226 . S
O83 Cd74 2.356 . S
O83 C81 1.282 . S
C84 O85 1.306 . S
C84 O87 1.160 . S
O85 C84 1.306 . S
O85 Cd86 2.228 . S
Cd86 O85 2.228 . S
Cd86 O90 2.273 . S
Cd86 O94 2.277 . S
O87 C84 1.160 . S
O87 Cd88 2.203 . S
Cd88 O87 2.203 . S
Cd88 O90 2.411 . S
Cd88 O91 2.333 . S
Cd88 O92 2.352 . S
Cd88 O96 2.277 . S
Cd88 O97 2.356 . S
C89 O94 1.209 . S
C89 O96 1.226 . S
O90 Cd86 2.273 . S
O90 Cd88 2.411 . S
O90 C93 1.320 . S
O91 Cd88 2.333 . S
O91 C93 1.214 . S
O92 Cd88 2.352 . S
O92 C95 1.258 . S
C93 O90 1.320 . S
C93 O91 1.214 . S
O94 Cd86 2.277 . S
O94 C89 1.209 . S
C95 O92 1.258 . S
C95 O97 1.282 . S
O96 Cd88 2.277 . S
O96 C89 1.226 . S
O97 Cd88 2.356 . S
O97 C95 1.282 . S
C98 O99 1.306 . S
C98 O101 1.160 . S
O99 C98 1.306 . S
O99 Cd100 2.228 . S
Cd100 O99 2.228 . S
Cd100 O104 2.273 . S
Cd100 O108 2.277 . S
O101 C98 1.160 . S
O101 Cd102 2.203 . S
Cd102 O101 2.203 . S
Cd102 O104 2.411 . S
Cd102 O105 2.333 . S
Cd102 O106 2.352 . S
Cd102 O110 2.277 . S
Cd102 O111 2.356 . S
C103 O108 1.209 . S
C103 O110 1.226 . S
O104 Cd100 2.273 . S
O104 Cd102 2.411 . S
O104 C107 1.320 . S
O105 Cd102 2.333 . S
O105 C107 1.214 . S
O106 Cd102 2.352 . S
O106 C109 1.258 . S
C107 O104 1.320 . S
C107 O105 1.214 . S
O108 Cd100 2.277 . S
O108 C103 1.209 . S
C109 O106 1.258 . S
C109 O111 1.282 . S
O110 Cd102 2.277 . S
O110 C103 1.226 . S
O111 Cd102 2.356 . S
O111 C109 1.282 . S
C112 O113 1.306 . S
C112 O115 1.160 . S
O113 C112 1.306 . S
O113 Cd114 2.228 1_455 S
Cd114 O113 2.228 1_655 S
Cd114 O118 2.273 . S
Cd114 O122 2.277 . S
O115 C112 1.160 . S
O115 Cd116 2.203 1_455 S
Cd116 O115 2.203 1_655 S
Cd116 O118 2.411 . S
Cd116 O119 2.333 . S
Cd116 O120 2.352 1_655 S
Cd116 O124 2.277 . S
Cd116 O125 2.356 . S
C117 O122 1.209 . S
C117 O124 1.226 . S
O118 Cd114 2.273 . S
O118 Cd116 2.411 . S
O118 C121 1.320 . S
O119 Cd116 2.333 . S
O119 C121 1.214 . S
O120 Cd116 2.352 1_455 S
O120 C123 1.258 1_455 S
C121 O118 1.320 . S
C121 O119 1.214 . S
O122 Cd114 2.277 . S
O122 C117 1.209 . S
C123 O120 1.258 1_655 S
C123 O125 1.282 . S
O124 Cd116 2.277 . S
O124 C117 1.226 . S
O125 Cd116 2.356 . S
O125 C123 1.282 . S
C126 O127 1.306 . S
C126 O129 1.160 . S
O127 C126 1.306 . S
O127 Cd128 2.228 1_545 S
Cd128 O127 2.228 1_565 S
Cd128 O132 2.273 . S
Cd128 O136 2.277 . S
O129 C126 1.160 . S
O129 Cd130 2.203 1_545 S
Cd130 O129 2.203 1_565 S
Cd130 O132 2.411 . S
Cd130 O133 2.333 . S
Cd130 O134 2.352 1_565 S
Cd130 O138 2.277 . S
Cd130 O139 2.356 . S
C131 O136 1.209 . S
C131 O138 1.226 . S
O132 Cd128 2.273 . S
O132 Cd130 2.411 . S
O132 C135 1.320 . S
O133 Cd130 2.333 . S
O133 C135 1.214 . S
O134 Cd130 2.352 1_545 S
O134 C137 1.258 1_545 S
C135 O132 1.320 . S
C135 O133 1.214 . S
O136 Cd128 2.277 . S
O136 C131 1.209 . S
C137 O134 1.258 1_565 S
C137 O139 1.282 . S
O138 Cd130 2.277 . S
O138 C131 1.226 . S
O139 Cd130 2.356 . S
O139 C137 1.282 . S
C140 O141 1.306 . S
C140 O143 1.160 . S
O141 C140 1.306 . S
O141 Cd142 2.228 . S
Cd142 O141 2.228 . S
Cd142 O146 2.273 . S
Cd142 O150 2.277 . S
O143 C140 1.160 . S
O143 Cd144 2.203 . S
Cd144 O143 2.203 . S
Cd144 O146 2.411 . S
Cd144 O147 2.333 . S
Cd144 O148 2.352 . S
Cd144 O152 2.277 . S
Cd144 O153 2.356 . S
C145 O150 1.209 . S
C145 O152 1.226 . S
O146 Cd142 2.273 . S
O146 Cd144 2.411 . S
O146 C149 1.320 . S
O147 Cd144 2.333 . S
O147 C149 1.214 . S
O148 Cd144 2.352 . S
O148 C151 1.258 . S
C149 O146 1.320 . S
C149 O147 1.214 . S
O150 Cd142 2.277 . S
O150 C145 1.209 . S
C151 O148 1.258 . S
C151 O153 1.282 . S
O152 Cd144 2.277 . S
O152 C145 1.226 . S
O153 Cd144 2.356 . S
O153 C151 1.282 . S
C154 O155 1.306 . S
C154 O157 1.160 . S
O155 C154 1.306 . S
O155 Cd156 2.228 . S
Cd156 O155 2.228 . S
Cd156 O160 2.273 . S
Cd156 O164 2.277 . S
O157 C154 1.160 . S
O157 Cd158 2.203 . S
Cd158 O157 2.203 . S
Cd158 O160 2.411 . S
Cd158 O161 2.333 . S
Cd158 O162 2.352 . S
Cd158 O166 2.277 . S
Cd158 O167 2.356 . S
C159 O164 1.209 . S
C159 O166 1.226 . S
O160 Cd156 2.273 . S
O160 Cd158 2.411 . S
O160 C163 1.320 . S
O161 Cd158 2.333 . S
O161 C163 1.214 . S
O162 Cd158 2.352 . S
O162 C165 1.258 . S
C163 O160 1.320 . S
C163 O161 1.214 . S
O164 Cd156 2.277 . S
O164 C159 1.209 . S
C165 O162 1.258 . S
C165 O167 1.282 . S
O166 Cd158 2.277 . S
O166 C159 1.226 . S
O167 Cd158 2.356 . S
O167 C165 1.282 . S
C168 O169 1.306 . S
C168 O171 1.160 . S
O169 C168 1.306 . S
O169 Cd170 2.228 1_455 S
Cd170 O169 2.228 1_655 S
Cd170 O174 2.273 . S
Cd170 O178 2.277 . S
O171 C168 1.160 . S
O171 Cd172 2.203 1_455 S
Cd172 O171 2.203 1_655 S
Cd172 O174 2.411 . S
Cd172 O175 2.333 . S
Cd172 O176 2.352 1_655 S
Cd172 O180 2.277 . S
Cd172 O181 2.356 . S
C173 O178 1.209 . S
C173 O180 1.226 . S
O174 Cd170 2.273 . S
O174 Cd172 2.411 . S
O174 C177 1.320 . S
O175 Cd172 2.333 . S
O175 C177 1.214 . S
O176 Cd172 2.352 1_455 S
O176 C179 1.258 1_455 S
C177 O174 1.320 . S
C177 O175 1.214 . S
O178 Cd170 2.277 . S
O178 C173 1.209 . S
C179 O176 1.258 1_655 S
C179 O181 1.282 . S
O180 Cd172 2.277 . S
O180 C173 1.226 . S
O181 Cd172 2.356 . S
O181 C179 1.282 . S
C182 O183 1.306 . S
C182 O185 1.160 . S
O183 C182 1.306 . S
O183 Cd184 2.228 1_545 S
Cd184 O183 2.228 1_565 S
Cd184 O188 2.273 . S
Cd184 O192 2.277 . S
O185 C182 1.160 . S
O185 Cd186 2.203 1_545 S
Cd186 O185 2.203 1_565 S
Cd186 O188 2.411 . S
Cd186 O189 2.333 . S
Cd186 O190 2.352 1_565 S
Cd186 O194 2.277 . S
Cd186 O195 2.356 . S
C187 O192 1.209 . S
C187 O194 1.226 . S
O188 Cd184 2.273 . S
O188 Cd186 2.411 . S
O188 C191 1.320 . S
O189 Cd186 2.333 . S
O189 C191 1.214 . S
O190 Cd186 2.352 1_545 S
O190 C193 1.258 1_545 S
C191 O188 1.320 . S
C191 O189 1.214 . S
O192 Cd184 2.277 . S
O192 C187 1.209 . S
C193 O190 1.258 1_565 S
C193 O195 1.282 . S
O194 Cd186 2.277 . S
O194 C187 1.226 . S
O195 Cd186 2.356 . S
O195 C193 1.282 . S
C196 O197 1.306 . S
C196 O199 1.160 . S
O197 C196 1.306 . S
O197 Cd198 2.228 . S
Cd198 O197 2.228 . S
Cd198 O202 2.273 . S
Cd198 O206 2.277 . S
O199 C196 1.160 . S
O199 Cd200 2.203 . S
Cd200 O199 2.203 . S
Cd200 O202 2.411 . S
Cd200 O203 2.333 . S
Cd200 O204 2.352 . S
Cd200 O208 2.277 . S
Cd200 O209 2.356 . S
C201 O206 1.209 . S
C201 O208 1.226 . S
O202 Cd198 2.273 . S
O202 Cd200 2.411 . S
O202 C205 1.320 . S
O203 Cd200 2.333 . S
O203 C205 1.214 . S
O204 Cd200 2.352 . S
O204 C207 1.258 . S
C205 O202 1.320 . S
C205 O203 1.214 . S
O206 Cd198 2.277 . S
O206 C201 1.209 . S
C207 O204 1.258 . S
C207 O209 1.282 . S
O208 Cd200 2.277 . S
O208 C201 1.226 . S
O209 Cd200 2.356 . S
O209 C207 1.282 . S
C210 O211 1.306 . S
C210 O213 1.160 . S
O211 C210 1.306 . S
O211 Cd212 2.228 . S
Cd212 O211 2.228 . S
Cd212 O216 2.273 . S
Cd212 O220 2.277 . S
O213 C210 1.160 . S
O213 Cd214 2.203 . S
Cd214 O213 2.203 . S
Cd214 O216 2.411 . S
Cd214 O217 2.333 . S
Cd214 O218 2.352 . S
Cd214 O222 2.277 . S
Cd214 O223 2.356 . S
C215 O220 1.209 . S
C215 O222 1.226 . S
O216 Cd212 2.273 . S
O216 Cd214 2.411 . S
O216 C219 1.320 . S
O217 Cd214 2.333 . S
O217 C219 1.214 . S
O218 Cd214 2.352 . S
O218 C221 1.258 . S
C219 O216 1.320 . S
C219 O217 1.214 . S
O220 Cd212 2.277 . S
O220 C215 1.209 . S
C221 O218 1.258 . S
C221 O223 1.282 . S
O222 Cd214 2.277 . S
O222 C215 1.226 . S
O223 Cd214 2.356 . S
O223 C221 1.282 . S
H224 C232 0.950 . S
H225 C237 0.950 . S
H226 C234 0.951 . S
H227 C236 0.950 . S
H228 C238 0.950 . S
H229 C240 0.951 . S
H230 C242 0.950 . S
H231 C243 0.950 . S
C232 H224 0.950 . S
C232 C233 1.386 1_655 S
C232 C234 1.391 . S
C233 C232 1.386 1_455 S
C233 C237 1.393 . S
C234 H226 0.951 . S
C234 C232 1.391 . S
C234 C235 1.400 1_655 S
C235 C234 1.400 1_455 S
C235 C236 1.398 . S
C235 C241 1.491 1_554 S
C236 H227 0.950 . S
C236 C235 1.398 . S
C236 C237 1.391 . S
C237 H225 0.950 . S
C237 C233 1.393 . S
C237 C236 1.391 . S
C238 H228 0.950 . S
C238 C239 1.386 . S
C238 C240 1.391 . S
C239 C238 1.386 . S
C239 C243 1.393 1_455 S
C240 H229 0.951 . S
C240 C238 1.391 . S
C240 C241 1.400 . S
C241 C235 1.491 1_556 S
C241 C240 1.400 . S
C241 C242 1.398 1_455 S
C242 H230 0.950 . S
C242 C241 1.398 1_655 S
C242 C243 1.391 . S
C243 H231 0.950 . S
C243 C239 1.393 1_655 S
C243 C242 1.391 . S
H244 C252 0.950 . S
H245 C257 0.950 . S
H246 C254 0.950 . S
H247 C256 0.950 . S
H248 C258 0.950 . S
H249 C260 0.950 . S
H250 C262 0.950 . S
H251 C263 0.950 . S
C252 H244 0.950 . S
C252 C253 1.386 1_565 S
C252 C254 1.391 . S
C253 C252 1.386 1_545 S
C253 C257 1.393 . S
C254 H246 0.950 . S
C254 C252 1.391 . S
C254 C255 1.400 1_565 S
C255 C254 1.400 1_545 S
C255 C256 1.398 . S
C255 C261 1.491 . S
C256 H247 0.950 . S
C256 C255 1.398 . S
C256 C257 1.391 . S
C257 H245 0.950 . S
C257 C253 1.393 . S
C257 C256 1.391 . S
C258 H248 0.950 . S
C258 C259 1.386 . S
C258 C260 1.391 . S
C259 C258 1.386 . S
C259 C263 1.393 1_545 S
C260 H249 0.950 . S
C260 C258 1.391 . S
C260 C261 1.400 . S
C261 C255 1.491 . S
C261 C260 1.400 . S
C261 C262 1.398 1_545 S
C262 H250 0.950 . S
C262 C261 1.398 1_565 S
C262 C263 1.391 . S
C263 H251 0.950 . S
C263 C259 1.393 1_565 S
C263 C262 1.391 . S
H264 C272 0.950 1_556 S
H265 C277 0.950 . S
H266 C274 0.950 . S
H267 C276 0.950 . S
H268 C278 0.950 1_554 S
H269 C280 0.950 . S
H270 C282 0.950 . S
H271 C283 0.950 . S
C272 H264 0.950 1_554 S
C272 C273 1.386 . S
C272 C274 1.391 1_554 S
C273 C272 1.386 . S
C273 C277 1.393 . S
C274 H266 0.950 . S
C274 C272 1.391 1_556 S
C274 C275 1.400 1_556 S
C275 C274 1.400 1_554 S
C275 C276 1.398 . S
C275 C281 1.491 1_554 S
C276 H267 0.950 . S
C276 C275 1.398 . S
C276 C277 1.391 . S
C277 H265 0.950 . S
C277 C273 1.393 . S
C277 C276 1.391 . S
C278 H268 0.950 1_556 S
C278 C279 1.386 . S
C278 C280 1.391 1_556 S
C279 C278 1.386 . S
C279 C283 1.393 . S
C280 H269 0.950 . S
C280 C278 1.391 1_554 S
C280 C281 1.400 1_554 S
C281 C275 1.491 1_556 S
C281 C280 1.400 1_556 S
C281 C282 1.398 . S
C282 H270 0.950 . S
C282 C281 1.398 . S
C282 C283 1.391 . S
C283 H271 0.950 . S
C283 C279 1.393 . S
C283 C282 1.391 . S
H284 C292 0.950 . S
H285 C297 0.950 . S
H286 C294 0.950 . S
H287 C296 0.950 . S
H288 C298 0.950 . S
H289 C300 0.950 . S
H290 C302 0.950 . S
H291 C303 0.950 . S
C292 H284 0.950 . S
C292 C293 1.386 . S
C292 C294 1.391 . S
C293 C292 1.386 . S
C293 C297 1.393 . S
C294 H286 0.950 . S
C294 C292 1.391 . S
C294 C295 1.400 . S
C295 C294 1.400 . S
C295 C296 1.398 . S
C295 C301 1.491 . S
C296 H287 0.950 . S
C296 C295 1.398 . S
C296 C297 1.391 . S
C297 H285 0.950 . S
C297 C293 1.393 . S
C297 C296 1.391 . S
C298 H288 0.950 . S
C298 C299 1.386 . S
C298 C300 1.391 . S
C299 C298 1.386 . S
C299 C303 1.393 . S
C300 H289 0.950 . S
C300 C298 1.391 . S
C300 C301 1.400 . S
C301 C295 1.491 . S
C301 C300 1.400 . S
C301 C302 1.398 . S
C302 H290 0.950 . S
C302 C301 1.398 . S
C302 C303 1.391 . S
C303 H291 0.950 . S
C303 C299 1.393 . S
C303 C302 1.391 . S
H304 C312 0.950 . S
H305 C317 0.950 . S
H306 C314 0.950 . S
H307 C316 0.950 . S
H308 C318 0.950 . S
H309 C320 0.950 . S
H310 C322 0.950 . S
H311 C323 0.950 . S
C312 H304 0.950 . S
C312 C313 1.386 . S
C312 C314 1.391 . S
C313 C312 1.386 . S
C313 C317 1.393 1_655 S
C314 H306 0.950 . S
C314 C312 1.391 . S
C314 C315 1.400 . S
C315 C314 1.400 . S
C315 C316 1.398 1_655 S
C315 C321 1.491 1_556 S
C316 H307 0.950 . S
C316 C315 1.398 1_455 S
C316 C317 1.391 . S
C317 H305 0.950 . S
C317 C313 1.393 1_455 S
C317 C316 1.391 . S
C318 H308 0.950 . S
C318 C319 1.386 1_455 S
C318 C320 1.391 . S
C319 C318 1.386 1_655 S
C319 C323 1.393 . S
C320 H309 0.950 . S
C320 C318 1.391 . S
C320 C321 1.400 1_455 S
C321 C315 1.491 1_554 S
C321 C320 1.400 1_655 S
C321 C322 1.398 . S
C322 H310 0.950 . S
C322 C321 1.398 . S
C322 C323 1.391 . S
C323 H311 0.950 . S
C323 C319 1.393 . S
C323 C322 1.391 . S
H324 C332 0.950 . S
H325 C337 0.950 . S
H326 C334 0.950 . S
H327 C336 0.950 . S
H328 C338 0.950 . S
H329 C340 0.950 . S
H330 C342 0.950 . S
H331 C343 0.950 . S
C332 H324 0.950 . S
C332 C333 1.386 1_545 S
C332 C334 1.391 . S
C333 C332 1.386 1_565 S
C333 C337 1.393 . S
C334 H326 0.950 . S
C334 C332 1.391 . S
C334 C335 1.400 1_545 S
C335 C334 1.400 1_565 S
C335 C336 1.398 . S
C335 C341 1.491 . S
C336 H327 0.950 . S
C336 C335 1.398 . S
C336 C337 1.391 . S
C337 H325 0.950 . S
C337 C333 1.393 . S
C337 C336 1.391 . S
C338 H328 0.950 . S
C338 C339 1.386 . S
C338 C340 1.391 . S
C339 C338 1.386 . S
C339 C343 1.393 1_565 S
C340 H329 0.950 . S
C340 C338 1.391 . S
C340 C341 1.400 . S
C341 C335 1.491 . S
C341 C340 1.400 . S
C341 C342 1.398 1_565 S
C342 H330 0.950 . S
C342 C341 1.398 1_545 S
C342 C343 1.391 . S
C343 H331 0.950 . S
C343 C339 1.393 1_545 S
C343 C342 1.391 . S
H344 C352 0.950 . S
H345 C357 0.950 . S
H346 C354 0.950 . S
H347 C356 0.950 . S
H348 C358 0.950 . S
H349 C360 0.950 . S
H350 C362 0.950 . S
H351 C363 0.950 . S
C352 H344 0.950 . S
C352 C353 1.386 . S
C352 C354 1.391 . S
C353 C352 1.386 . S
C353 C357 1.393 . S
C354 H346 0.950 . S
C354 C352 1.391 . S
C354 C355 1.400 . S
C355 C354 1.400 . S
C355 C356 1.398 . S
C355 C361 1.491 1_556 S
C356 H347 0.950 . S
C356 C355 1.398 . S
C356 C357 1.391 . S
C357 H345 0.950 . S
C357 C353 1.393 . S
C357 C356 1.391 . S
C358 H348 0.950 . S
C358 C359 1.386 . S
C358 C360 1.391 . S
C359 C358 1.386 . S
C359 C363 1.393 . S
C360 H349 0.950 . S
C360 C358 1.391 . S
C360 C361 1.400 . S
C361 C355 1.491 1_554 S
C361 C360 1.400 . S
C361 C362 1.398 . S
C362 H350 0.950 . S
C362 C361 1.398 . S
C362 C363 1.391 . S
C363 H351 0.950 . S
C363 C359 1.393 . S
C363 C362 1.391 . S
H364 C372 0.950 . S
H365 C377 0.950 . S
H366 C374 0.950 . S
H367 C376 0.950 . S
H368 C378 0.950 . S
H369 C380 0.950 . S
H370 C382 0.950 . S
H371 C383 0.950 . S
C372 H364 0.950 . S
C372 C373 1.386 . S
C372 C374 1.391 . S
C373 C372 1.386 . S
C373 C377 1.393 . S
C374 H366 0.950 . S
C374 C372 1.391 . S
C374 C375 1.400 . S
C375 C374 1.400 . S
C375 C376 1.398 . S
C375 C381 1.491 . S
C376 H367 0.950 . S
C376 C375 1.398 . S
C376 C377 1.391 . S
C377 H365 0.950 . S
C377 C373 1.393 . S
C377 C376 1.391 . S
C378 H368 0.950 . S
C378 C379 1.386 . S
C378 C380 1.391 . S
C379 C378 1.386 . S
C379 C383 1.393 . S
C380 H369 0.950 . S
C380 C378 1.391 . S
C380 C381 1.400 . S
C381 C375 1.491 . S
C381 C380 1.400 . S
C381 C382 1.398 . S
C382 H370 0.950 . S
C382 C381 1.398 . S
C382 C383 1.391 . S
C383 H371 0.950 . S
C383 C379 1.393 . S
C383 C382 1.391 . S
H384 C392 0.950 . S
H385 C397 0.950 1_554 S
H386 C394 0.950 . S
H387 C396 0.950 . S
H388 C398 0.950 . S
H389 C400 0.950 . S
H390 C402 0.950 . S
H391 C403 0.950 . S
C392 H384 0.950 . S
C392 C393 1.386 . S
C392 C394 1.391 . S
C393 C392 1.386 . S
C393 C397 1.393 . S
C394 H386 0.950 . S
C394 C392 1.391 . S
C394 C395 1.400 . S
C395 C394 1.400 . S
C395 C396 1.398 . S
C395 C401 1.491 . S
C396 H387 0.950 . S
C396 C395 1.398 . S
C396 C397 1.391 . S
C397 H385 0.950 1_556 S
C397 C393 1.393 . S
C397 C396 1.391 . S
C398 H388 0.950 . S
C398 C399 1.386 . S
C398 C400 1.391 . S
C399 C398 1.386 . S
C399 C403 1.393 . S
C400 H389 0.950 . S
C400 C398 1.391 . S
C400 C401 1.400 . S
C401 C395 1.491 . S
C401 C400 1.400 . S
C401 C402 1.398 . S
C402 H390 0.950 . S
C402 C401 1.398 . S
C402 C403 1.391 . S
C403 H391 0.950 . S
C403 C399 1.393 . S
C403 C402 1.391 . S
H404 C412 0.950 . S
H405 C417 0.950 . S
H406 C414 0.950 . S
H407 C416 0.950 . S
H408 C418 0.950 . S
H409 C420 0.950 . S
H410 C422 0.950 . S
H411 C423 0.950 . S
C412 H404 0.950 . S
C412 C413 1.386 . S
C412 C414 1.391 . S
C413 C412 1.386 . S
C413 C417 1.393 . S
C414 H406 0.950 . S
C414 C412 1.391 . S
C414 C415 1.400 . S
C415 C414 1.400 . S
C415 C416 1.398 . S
C415 C421 1.491 . S
C416 H407 0.950 . S
C416 C415 1.398 . S
C416 C417 1.391 . S
C417 H405 0.950 . S
C417 C413 1.393 . S
C417 C416 1.391 . S
C418 H408 0.950 . S
C418 C419 1.386 . S
C418 C420 1.391 . S
C419 C418 1.386 . S
C419 C423 1.393 . S
C420 H409 0.950 . S
C420 C418 1.391 . S
C420 C421 1.400 . S
C421 C415 1.491 . S
C421 C420 1.400 . S
C421 C422 1.398 . S
C422 H410 0.950 . S
C422 C421 1.398 . S
C422 C423 1.391 . S
C423 H411 0.950 . S
C423 C419 1.393 . S
C423 C422 1.391 . S
H424 C432 0.950 1_554 S
H425 C437 0.950 . S
H426 C434 0.950 . S
H427 C436 0.950 . S
H428 C438 0.950 . S
H429 C440 0.950 . S
H430 C442 0.950 . S
H431 C443 0.950 . S
C432 H424 0.950 1_556 S
C432 C433 1.386 . S
C432 C434 1.391 . S
C433 C432 1.386 . S
C433 C437 1.393 . S
C434 H426 0.950 . S
C434 C432 1.391 . S
C434 C435 1.400 . S
C435 C434 1.400 . S
C435 C436 1.398 . S
C435 C441 1.491 . S
C436 H427 0.950 . S
C436 C435 1.398 . S
C436 C437 1.391 . S
C437 H425 0.950 . S
C437 C433 1.393 . S
C437 C436 1.391 . S
C438 H428 0.950 . S
C438 C439 1.386 . S
C438 C440 1.391 . S
C439 C438 1.386 . S
C439 C443 1.393 . S
C440 H429 0.950 . S
C440 C438 1.391 . S
C440 C441 1.400 . S
C441 C435 1.491 . S
C441 C440 1.400 . S
C441 C442 1.398 . S
C442 H430 0.950 . S
C442 C441 1.398 . S
C442 C443 1.391 . S
C443 H431 0.950 . S
C443 C439 1.393 . S
C443 C442 1.391 . S
H444 C452 0.950 . S
H445 C457 0.950 . S
H446 C454 0.950 . S
H447 C456 0.950 . S
H448 C458 0.950 . S
H449 C460 0.950 . S
H450 C462 0.950 . S
H451 C463 0.950 . S
C452 H444 0.950 . S
C452 C453 1.386 . S
C452 C454 1.391 . S
C453 C452 1.386 . S
C453 C457 1.393 . S
C454 H446 0.950 . S
C454 C452 1.391 . S
C454 C455 1.400 . S
C455 C454 1.400 . S
C455 C456 1.398 . S
C455 C461 1.491 . S
C456 H447 0.950 . S
C456 C455 1.398 . S
C456 C457 1.391 . S
C457 H445 0.950 . S
C457 C453 1.393 . S
C457 C456 1.391 . S
C458 H448 0.950 . S
C458 C459 1.386 . S
C458 C460 1.391 . S
C459 C458 1.386 . S
C459 C463 1.393 . S
C460 H449 0.950 . S
C460 C458 1.391 . S
C460 C461 1.400 . S
C461 C455 1.491 . S
C461 C460 1.400 . S
C461 C462 1.398 . S
C462 H450 0.950 . S
C462 C461 1.398 . S
C462 C463 1.391 . S
C463 H451 0.950 . S
C463 C459 1.393 . S
C463 C462 1.391 . S
H464 C472 0.950 . S
H465 C477 0.950 . S
H466 C474 0.950 . S
H467 C476 0.950 . S
H468 C478 0.950 1_556 S
H469 C480 0.950 . S
H470 C482 0.950 . S
H471 C483 0.950 . S
C472 H464 0.950 . S
C472 C473 1.386 . S
C472 C474 1.391 . S
C473 C472 1.386 . S
C473 C477 1.393 . S
C474 H466 0.950 . S
C474 C472 1.391 . S
C474 C475 1.400 . S
C475 C474 1.400 . S
C475 C476 1.398 . S
C475 C481 1.491 . S
C476 H467 0.950 . S
C476 C475 1.398 . S
C476 C477 1.391 . S
C477 H465 0.950 . S
C477 C473 1.393 . S
C477 C476 1.391 . S
C478 H468 0.950 1_554 S
C478 C479 1.386 . S
C478 C480 1.391 . S
C479 C478 1.386 . S
C479 C483 1.393 . S
C480 H469 0.950 . S
C480 C478 1.391 . S
C480 C481 1.400 . S
C481 C475 1.491 . S
C481 C480 1.400 . S
C481 C482 1.398 . S
C482 H470 0.950 . S
C482 C481 1.398 . S
C482 C483 1.391 . S
C483 H471 0.950 . S
C483 C479 1.393 . S
C483 C482 1.391 . S
H484 C492 0.950 . S
H485 C497 0.950 . S
H486 C494 0.950 . S
H487 C496 0.950 . S
H488 C498 0.950 . S
H489 C500 0.950 . S
H490 C502 0.950 . S
H491 C503 0.950 . S
C492 H484 0.950 . S
C492 C493 1.386 . S
C492 C494 1.391 . S
C493 C492 1.386 . S
C493 C497 1.393 . S
C494 H486 0.950 . S
C494 C492 1.391 . S
C494 C495 1.400 . S
C495 C494 1.400 . S
C495 C496 1.398 . S
C495 C501 1.491 . S
C496 H487 0.950 . S
C496 C495 1.398 . S
C496 C497 1.391 . S
C497 H485 0.950 . S
C497 C493 1.393 . S
C497 C496 1.391 . S
C498 H488 0.950 . S
C498 C499 1.386 . S
C498 C500 1.391 . S
C499 C498 1.386 . S
C499 C503 1.393 . S
C500 H489 0.950 . S
C500 C498 1.391 . S
C500 C501 1.400 . S
C501 C495 1.491 . S
C501 C500 1.400 . S
C501 C502 1.398 . S
C502 H490 0.950 . S
C502 C501 1.398 . S
C502 C503 1.391 . S
C503 H491 0.950 . S
C503 C499 1.393 . S
C503 C502 1.391 . S
H504 C512 0.950 . S
H505 C517 0.950 . S
H506 C514 0.950 . S
H507 C516 0.950 . S
H508 C518 0.950 . S
H509 C520 0.950 . S
H510 C522 0.950 . S
H511 C523 0.950 1_556 S
C512 H504 0.950 . S
C512 C513 1.386 . S
C512 C514 1.391 . S
C513 C512 1.386 . S
C513 C517 1.393 . S
C514 H506 0.950 . S
C514 C512 1.391 . S
C514 C515 1.400 . S
C515 C514 1.400 . S
C515 C516 1.398 . S
C515 C521 1.491 . S
C516 H507 0.950 . S
C516 C515 1.398 . S
C516 C517 1.391 . S
C517 H505 0.950 . S
C517 C513 1.393 . S
C517 C516 1.391 . S
C518 H508 0.950 . S
C518 C519 1.386 . S
C518 C520 1.391 . S
C519 C518 1.386 . S
C519 C523 1.393 . S
C520 H509 0.950 . S
C520 C518 1.391 . S
C520 C521 1.400 . S
C521 C515 1.491 . S
C521 C520 1.400 . S
C521 C522 1.398 . S
C522 H510 0.950 . S
C522 C521 1.398 . S
C522 C523 1.391 . S
C523 H511 0.950 1_554 S
C523 C519 1.393 . S
C523 C522 1.391 . S
H524 C532 0.950 . S
H525 C537 0.950 . S
H526 C534 0.950 . S
H527 C536 0.950 . S
H528 C538 0.950 . S
H529 C540 0.950 . S
H530 C542 0.950 . S
H531 C543 0.950 . S
C532 H524 0.950 . S
C532 C533 1.386 . S
C532 C534 1.391 . S
C533 C532 1.386 . S
C533 C537 1.393 . S
C534 H526 0.950 . S
C534 C532 1.391 . S
C534 C535 1.400 . S
C535 C534 1.400 . S
C535 C536 1.398 . S
C535 C541 1.491 . S
C536 H527 0.950 . S
C536 C535 1.398 . S
C536 C537 1.391 . S
C537 H525 0.950 . S
C537 C533 1.393 . S
C537 C536 1.391 . S
C538 H528 0.950 . S
C538 C539 1.386 . S
C538 C540 1.391 . S
C539 C538 1.386 . S
C539 C543 1.393 . S
C540 H529 0.950 . S
C540 C538 1.391 . S
C540 C541 1.400 . S
C541 C535 1.491 . S
C541 C540 1.400 . S
C541 C542 1.398 . S
C542 H530 0.950 . S
C542 C541 1.398 . S
C542 C543 1.391 . S
C543 H531 0.950 . S
C543 C539 1.393 . S
C543 C542 1.391 . S
H544 C552 0.950 . S
H545 C557 0.950 . S
H546 C554 0.950 . S
H547 C556 0.950 . S
H548 C558 0.950 . S
H549 C560 0.950 . S
H550 C562 0.950 . S
H551 C563 0.950 . S
C552 H544 0.950 . S
C552 C553 1.386 . S
C552 C554 1.391 . S
C553 C552 1.386 . S
C553 C557 1.393 . S
C554 H546 0.950 . S
C554 C552 1.391 . S
C554 C555 1.400 . S
C555 C554 1.400 . S
C555 C556 1.398 . S
C555 C561 1.491 . S
C556 H547 0.950 . S
C556 C555 1.398 . S
C556 C557 1.391 . S
C557 H545 0.950 . S
C557 C553 1.393 . S
C557 C556 1.391 . S
C558 H548 0.950 . S
C558 C559 1.386 . S
C558 C560 1.391 . S
C559 C558 1.386 . S
C559 C563 1.393 . S
C560 H549 0.950 . S
C560 C558 1.391 . S
C560 C561 1.400 . S
C561 C555 1.491 . S
C561 C560 1.400 . S
C561 C562 1.398 . S
C562 H550 0.950 . S
C562 C561 1.398 . S
C562 C563 1.391 . S
C563 H551 0.950 . S
C563 C559 1.393 . S
C563 C562 1.391 . S
H564 C572 0.950 . S
H565 C577 0.950 . S
H566 C574 0.950 . S
H567 C576 0.950 . S
H568 C578 0.950 . S
H569 C580 0.950 . S
H570 C582 0.950 . S
H571 C583 0.950 . S
C572 H564 0.950 . S
C572 C573 1.386 . S
C572 C574 1.391 . S
C573 C572 1.386 . S
C573 C577 1.393 . S
C574 H566 0.950 . S
C574 C572 1.391 . S
C574 C575 1.400 . S
C575 C574 1.400 . S
C575 C576 1.398 . S
C575 C581 1.491 . S
C576 H567 0.950 . S
C576 C575 1.398 . S
C576 C577 1.391 . S
C577 H565 0.950 . S
C577 C573 1.393 . S
C577 C576 1.391 . S
C578 H568 0.950 . S
C578 C579 1.386 . S
C578 C580 1.391 . S
C579 C578 1.386 . S
C579 C583 1.393 . S
C580 H569 0.950 . S
C580 C578 1.391 . S
C580 C581 1.400 . S
C581 C575 1.491 . S
C581 C580 1.400 . S
C581 C582 1.398 . S
C582 H570 0.950 . S
C582 C581 1.398 . S
C582 C583 1.391 . S
C583 H571 0.950 . S
C583 C579 1.393 . S
C583 C582 1.391 . S
H584 C592 0.950 . S
H585 C597 0.950 . S
H586 C594 0.950 . S
H587 C596 0.950 . S
H588 C598 0.950 1_556 S
H589 C600 0.950 . S
H590 C602 0.950 . S
H591 C603 0.950 . S
C592 H584 0.950 . S
C592 C593 1.386 . S
C592 C594 1.391 . S
C593 C592 1.386 . S
C593 C597 1.393 . S
C594 H586 0.950 . S
C594 C592 1.391 . S
C594 C595 1.400 . S
C595 C594 1.400 . S
C595 C596 1.398 . S
C595 C601 1.491 . S
C596 H587 0.950 . S
C596 C595 1.398 . S
C596 C597 1.391 . S
C597 H585 0.950 . S
C597 C593 1.393 . S
C597 C596 1.391 . S
C598 H588 0.950 1_554 S
C598 C599 1.386 . S
C598 C600 1.391 . S
C599 C598 1.386 . S
C599 C603 1.393 . S
C600 H589 0.950 . S
C600 C598 1.391 . S
C600 C601 1.400 . S
C601 C595 1.491 . S
C601 C600 1.400 . S
C601 C602 1.398 . S
C602 H590 0.950 . S
C602 C601 1.398 . S
C602 C603 1.391 . S
C603 H591 0.950 . S
C603 C599 1.393 . S
C603 C602 1.391 . S
H604 C612 0.950 . S
H605 C617 0.950 . S
H606 C614 0.950 . S
H607 C616 0.950 . S
H608 C618 0.950 . S
H609 C620 0.950 . S
H610 C622 0.950 . S
H611 C623 0.950 . S
C612 H604 0.950 . S
C612 C613 1.386 . S
C612 C614 1.391 . S
C613 C612 1.386 . S
C613 C617 1.393 . S
C614 H606 0.950 . S
C614 C612 1.391 . S
C614 C615 1.400 . S
C615 C614 1.400 . S
C615 C616 1.398 . S
C615 C621 1.491 . S
C616 H607 0.950 . S
C616 C615 1.398 . S
C616 C617 1.391 . S
C617 H605 0.950 . S
C617 C613 1.393 . S
C617 C616 1.391 . S
C618 H608 0.950 . S
C618 C619 1.386 . S
C618 C620 1.391 . S
C619 C618 1.386 . S
C619 C623 1.393 . S
C620 H609 0.950 . S
C620 C618 1.391 . S
C620 C621 1.400 . S
C621 C615 1.491 . S
C621 C620 1.400 . S
C621 C622 1.398 . S
C622 H610 0.950 . S
C622 C621 1.398 . S
C622 C623 1.391 . S
C623 H611 0.950 . S
C623 C619 1.393 . S
C623 C622 1.391 . S
H624 C632 0.950 . S
H625 C637 0.950 . S
H626 C634 0.950 . S
H627 C636 0.950 . S
H628 C638 0.950 1_554 S
H629 C640 0.950 . S
H630 C642 0.950 . S
H631 C643 0.950 . S
C632 H624 0.950 . S
C632 C633 1.386 . S
C632 C634 1.391 . S
C633 C632 1.386 . S
C633 C637 1.393 . S
C634 H626 0.950 . S
C634 C632 1.391 . S
C634 C635 1.400 . S
C635 C634 1.400 . S
C635 C636 1.398 . S
C635 C641 1.491 . S
C636 H627 0.950 . S
C636 C635 1.398 . S
C636 C637 1.391 . S
C637 H625 0.950 . S
C637 C633 1.393 . S
C637 C636 1.391 . S
C638 H628 0.950 1_556 S
C638 C639 1.386 . S
C638 C640 1.391 . S
C639 C638 1.386 . S
C639 C643 1.393 . S
C640 H629 0.950 . S
C640 C638 1.391 . S
C640 C641 1.400 . S
C641 C635 1.491 . S
C641 C640 1.400 . S
C641 C642 1.398 . S
C642 H630 0.950 . S
C642 C641 1.398 . S
C642 C643 1.391 . S
C643 H631 0.950 . S
C643 C639 1.393 . S
C643 C642 1.391 . S
H644 C652 0.950 . S
H645 C657 0.950 . S
H646 C654 0.950 . S
H647 C656 0.950 . S
H648 C658 0.950 . S
H649 C660 0.950 . S
H650 C662 0.950 . S
H651 C663 0.950 . S
C652 H644 0.950 . S
C652 C653 1.386 . S
C652 C654 1.391 . S
C653 C652 1.386 . S
C653 C657 1.393 . S
C654 H646 0.950 . S
C654 C652 1.391 . S
C654 C655 1.400 . S
C655 C654 1.400 . S
C655 C656 1.398 . S
C655 C661 1.491 . S
C656 H647 0.950 . S
C656 C655 1.398 . S
C656 C657 1.391 . S
C657 H645 0.950 . S
C657 C653 1.393 . S
C657 C656 1.391 . S
C658 H648 0.950 . S
C658 C659 1.386 . S
C658 C660 1.391 . S
C659 C658 1.386 . S
C659 C663 1.393 . S
C660 H649 0.950 . S
C660 C658 1.391 . S
C660 C661 1.400 . S
C661 C655 1.491 . S
C661 C660 1.400 . S
C661 C662 1.398 . S
C662 H650 0.950 . S
C662 C661 1.398 . S
C662 C663 1.391 . S
C663 H651 0.950 . S
C663 C659 1.393 . S
C663 C662 1.391 . S
H664 C672 0.950 1_554 S
H665 C677 0.950 . S
H666 C674 0.950 . S
H667 C676 0.950 . S
H668 C678 0.950 . S
H669 C680 0.950 . S
H670 C682 0.950 . S
H671 C683 0.950 . S
C672 H664 0.950 1_556 S
C672 C673 1.386 . S
C672 C674 1.391 . S
C673 C672 1.386 . S
C673 C677 1.393 . S
C674 H666 0.950 . S
C674 C672 1.391 . S
C674 C675 1.400 . S
C675 C674 1.400 . S
C675 C676 1.398 . S
C675 C681 1.491 . S
C676 H667 0.950 . S
C676 C675 1.398 . S
C676 C677 1.391 . S
C677 H665 0.950 . S
C677 C673 1.393 . S
C677 C676 1.391 . S
C678 H668 0.950 . S
C678 C679 1.386 . S
C678 C680 1.391 . S
C679 C678 1.386 . S
C679 C683 1.393 . S
C680 H669 0.950 . S
C680 C678 1.391 . S
C680 C681 1.400 . S
C681 C675 1.491 . S
C681 C680 1.400 . S
C681 C682 1.398 . S
C682 H670 0.950 . S
C682 C681 1.398 . S
C682 C683 1.391 . S
C683 H671 0.950 . S
C683 C679 1.393 . S
C683 C682 1.391 . S
H684 C692 0.950 . S
H685 C697 0.950 . S
H686 C694 0.950 . S
H687 C696 0.950 . S
H688 C698 0.950 . S
H689 C700 0.950 . S
H690 C702 0.950 . S
H691 C703 0.950 . S
C692 H684 0.950 . S
C692 C693 1.386 . S
C692 C694 1.391 . S
C693 C692 1.386 . S
C693 C697 1.393 . S
C694 H686 0.950 . S
C694 C692 1.391 . S
C694 C695 1.400 . S
C695 C694 1.400 . S
C695 C696 1.398 . S
C695 C701 1.491 . S
C696 H687 0.950 . S
C696 C695 1.398 . S
C696 C697 1.391 . S
C697 H685 0.950 . S
C697 C693 1.393 . S
C697 C696 1.391 . S
C698 H688 0.950 . S
C698 C699 1.386 . S
C698 C700 1.391 . S
C699 C698 1.386 . S
C699 C703 1.393 . S
C700 H689 0.950 . S
C700 C698 1.391 . S
C700 C701 1.400 . S
C701 C695 1.491 . S
C701 C700 1.400 . S
C701 C702 1.398 . S
C702 H690 0.950 . S
C702 C701 1.398 . S
C702 C703 1.391 . S
C703 H691 0.950 . S
C703 C699 1.393 . S
C703 C702 1.391 . S
H704 C712 0.950 . S
H705 C717 0.950 . S
H706 C714 0.950 . S
H707 C716 0.950 . S
H708 C718 0.950 . S
H709 C720 0.950 . S
H710 C722 0.950 . S
H711 C723 0.950 . S
C712 H704 0.950 . S
C712 C713 1.386 . S
C712 C714 1.391 . S
C713 C712 1.386 . S
C713 C717 1.393 . S
C714 H706 0.950 . S
C714 C712 1.391 . S
C714 C715 1.400 . S
C715 C714 1.400 . S
C715 C716 1.398 . S
C715 C721 1.491 . S
C716 H707 0.950 . S
C716 C715 1.398 . S
C716 C717 1.391 . S
C717 H705 0.950 . S
C717 C713 1.393 . S
C717 C716 1.391 . S
C718 H708 0.950 . S
C718 C719 1.386 . S
C718 C720 1.391 . S
C719 C718 1.386 . S
C719 C723 1.393 . S
C720 H709 0.950 . S
C720 C718 1.391 . S
C720 C721 1.400 . S
C721 C715 1.491 . S
C721 C720 1.400 . S
C721 C722 1.398 . S
C722 H710 0.950 . S
C722 C721 1.398 . S
C722 C723 1.391 . S
C723 H711 0.950 . S
C723 C719 1.393 . S
C723 C722 1.391 . S
H724 C732 0.950 . S
H725 C737 0.950 . S
H726 C734 0.950 . S
H727 C736 0.950 . S
H728 C738 0.950 . S
H729 C740 0.950 . S
H730 C742 0.950 . S
H731 C743 0.950 . S
C732 H724 0.950 . S
C732 C733 1.386 . S
C732 C734 1.391 . S
C733 C732 1.386 . S
C733 C737 1.393 . S
C734 H726 0.950 . S
C734 C732 1.391 . S
C734 C735 1.400 . S
C735 C734 1.400 . S
C735 C736 1.398 . S
C735 C741 1.491 . S
C736 H727 0.950 . S
C736 C735 1.398 . S
C736 C737 1.391 . S
C737 H725 0.950 . S
C737 C733 1.393 . S
C737 C736 1.391 . S
C738 H728 0.950 . S
C738 C739 1.386 . S
C738 C740 1.391 . S
C739 C738 1.386 . S
C739 C743 1.393 . S
C740 H729 0.950 . S
C740 C738 1.391 . S
C740 C741 1.400 . S
C741 C735 1.491 . S
C741 C740 1.400 . S
C741 C742 1.398 . S
C742 H730 0.950 . S
C742 C741 1.398 . S
C742 C743 1.391 . S
C743 H731 0.950 . S
C743 C739 1.393 . S
C743 C742 1.391 . S
H744 C752 0.950 . S
H745 C757 0.950 . S
H746 C754 0.950 . S
H747 C756 0.950 . S
H748 C758 0.950 . S
H749 C760 0.950 . S
H750 C762 0.950 . S
H751 C763 0.950 . S
C752 H744 0.950 . S
C752 C753 1.386 . S
C752 C754 1.391 . S
C753 C752 1.386 . S
C753 C757 1.393 . S
C754 H746 0.950 . S
C754 C752 1.391 . S
C754 C755 1.400 . S
C755 C754 1.400 . S
C755 C756 1.398 . S
C755 C761 1.491 . S
C756 H747 0.950 . S
C756 C755 1.398 . S
C756 C757 1.391 . S
C757 H745 0.950 . S
C757 C753 1.393 . S
C757 C756 1.391 . S
C758 H748 0.950 . S
C758 C759 1.386 . S
C758 C760 1.391 . S
C759 C758 1.386 . S
C759 C763 1.393 . S
C760 H749 0.950 . S
C760 C758 1.391 . S
C760 C761 1.400 . S
C761 C755 1.491 . S
C761 C760 1.400 . S
C761 C762 1.398 . S
C762 H750 0.950 . S
C762 C761 1.398 . S
C762 C763 1.391 . S
C763 H751 0.950 . S
C763 C759 1.393 . S
C763 C762 1.391 . S
H764 C772 0.950 . S
H765 C777 0.950 . S
H766 C774 0.950 . S
H767 C776 0.950 . S
H768 C778 0.950 . S
H769 C780 0.950 . S
H770 C782 0.950 . S
H771 C783 0.950 . S
C772 H764 0.950 . S
C772 C773 1.386 . S
C772 C774 1.391 . S
C773 C772 1.386 . S
C773 C777 1.393 . S
C774 H766 0.950 . S
C774 C772 1.391 . S
C774 C775 1.400 . S
C775 C774 1.400 . S
C775 C776 1.398 . S
C775 C781 1.491 . S
C776 H767 0.950 . S
C776 C775 1.398 . S
C776 C777 1.391 . S
C777 H765 0.950 . S
C777 C773 1.393 . S
C777 C776 1.391 . S
C778 H768 0.950 . S
C778 C779 1.386 . S
C778 C780 1.391 . S
C779 C778 1.386 . S
C779 C783 1.393 . S
C780 H769 0.950 . S
C780 C778 1.391 . S
C780 C781 1.400 . S
C781 C775 1.491 . S
C781 C780 1.400 . S
C781 C782 1.398 . S
C782 H770 0.950 . S
C782 C781 1.398 . S
C782 C783 1.391 . S
C783 H771 0.950 . S
C783 C779 1.393 . S
C783 C782 1.391 . S
H784 C792 0.950 . S
H785 C797 0.950 . S
H786 C794 0.950 . S
H787 C796 0.950 . S
H788 C798 0.950 . S
H789 C800 0.950 . S
H790 C802 0.950 . S
H791 C803 0.950 . S
C792 H784 0.950 . S
C792 C793 1.386 . S
C792 C794 1.391 . S
C793 C792 1.386 . S
C793 C797 1.393 . S
C794 H786 0.950 . S
C794 C792 1.391 . S
C794 C795 1.400 . S
C795 C794 1.400 . S
C795 C796 1.398 . S
C795 C801 1.491 . S
C796 H787 0.950 . S
C796 C795 1.398 . S
C796 C797 1.391 . S
C797 H785 0.950 . S
C797 C793 1.393 . S
C797 C796 1.391 . S
C798 H788 0.950 . S
C798 C799 1.386 . S
C798 C800 1.391 . S
C799 C798 1.386 . S
C799 C803 1.393 . S
C800 H789 0.950 . S
C800 C798 1.391 . S
C800 C801 1.400 . S
C801 C795 1.491 . S
C801 C800 1.400 . S
C801 C802 1.398 . S
C802 H790 0.950 . S
C802 C801 1.398 . S
C802 C803 1.391 . S
C803 H791 0.950 . S
C803 C799 1.393 . S
C803 C802 1.391 . S
H804 C812 0.950 . S
H805 C817 0.950 . S
H806 C814 0.950 . S
H807 C816 0.950 . S
H808 C818 0.950 . S
H809 C820 0.950 . S
H810 C822 0.950 . S
H811 C823 0.950 . S
C812 H804 0.950 . S
C812 C813 1.386 . S
C812 C814 1.391 . S
C813 C812 1.386 . S
C813 C817 1.393 . S
C814 H806 0.950 . S
C814 C812 1.391 . S
C814 C815 1.400 . S
C815 C814 1.400 . S
C815 C816 1.398 . S
C815 C821 1.491 . S
C816 H807 0.950 . S
C816 C815 1.398 . S
C816 C817 1.391 . S
C817 H805 0.950 . S
C817 C813 1.393 . S
C817 C816 1.391 . S
C818 H808 0.950 . S
C818 C819 1.386 . S
C818 C820 1.391 . S
C819 C818 1.386 . S
C819 C823 1.393 . S
C820 H809 0.950 . S
C820 C818 1.391 . S
C820 C821 1.400 . S
C821 C815 1.491 . S
C821 C820 1.400 . S
C821 C822 1.398 . S
C822 H810 0.950 . S
C822 C821 1.398 . S
C822 C823 1.391 . S
C823 H811 0.950 . S
C823 C819 1.393 . S
C823 C822 1.391 . S
H824 C832 0.950 . S
H825 C837 0.950 . S
H826 C834 0.950 . S
H827 C836 0.950 . S
H828 C838 0.950 . S
H829 C840 0.950 . S
H830 C842 0.950 . S
H831 C843 0.950 . S
C832 H824 0.950 . S
C832 C833 1.386 . S
C832 C834 1.391 . S
C833 C832 1.386 . S
C833 C837 1.393 . S
C834 H826 0.950 . S
C834 C832 1.391 . S
C834 C835 1.400 . S
C835 C834 1.400 . S
C835 C836 1.398 . S
C835 C841 1.491 . S
C836 H827 0.950 . S
C836 C835 1.398 . S
C836 C837 1.391 . S
C837 H825 0.950 . S
C837 C833 1.393 . S
C837 C836 1.391 . S
C838 H828 0.950 . S
C838 C839 1.386 . S
C838 C840 1.391 . S
C839 C838 1.386 . S
C839 C843 1.393 . S
C840 H829 0.950 . S
C840 C838 1.391 . S
C840 C841 1.400 . S
C841 C835 1.491 . S
C841 C840 1.400 . S
C841 C842 1.398 . S
C842 H830 0.950 . S
C842 C841 1.398 . S
C842 C843 1.391 . S
C843 H831 0.950 . S
C843 C839 1.393 . S
C843 C842 1.391 . S
H844 C852 0.950 . S
H845 C857 0.950 . S
H846 C854 0.950 . S
H847 C856 0.950 . S
H848 C858 0.950 . S
H849 C860 0.950 . S
H850 C862 0.950 . S
H851 C863 0.950 . S
C852 H844 0.950 . S
C852 C853 1.386 . S
C852 C854 1.391 . S
C853 C852 1.386 . S
C853 C857 1.393 . S
C854 H846 0.950 . S
C854 C852 1.391 . S
C854 C855 1.400 . S
C855 C854 1.400 . S
C855 C856 1.398 . S
C855 C861 1.491 . S
C856 H847 0.950 . S
C856 C855 1.398 . S
C856 C857 1.391 . S
C857 H845 0.950 . S
C857 C853 1.393 . S
C857 C856 1.391 . S
C858 H848 0.950 . S
C858 C859 1.386 . S
C858 C860 1.391 . S
C859 C858 1.386 . S
C859 C863 1.393 . S
C860 H849 0.950 . S
C860 C858 1.391 . S
C860 C861 1.400 . S
C861 C855 1.491 . S
C861 C860 1.400 . S
C861 C862 1.398 . S
C862 H850 0.950 . S
C862 C861 1.398 . S
C862 C863 1.391 . S
C863 H851 0.950 . S
C863 C859 1.393 . S
C863 C862 1.391 . S
C233 C11 1.079 . S
C239 C67 1.077 . S
C253 C81 1.083 . S
C259 C25 1.073 . S
C273 C39 1.083 . S
C279 C95 1.066 . S
C293 C53 1.069 . S
C299 C109 1.077 . S
C313 C123 1.078 . S
C319 C179 1.078 . S
C333 C193 1.065 . S
C339 C137 1.084 . S
C353 C151 1.072 . S
C359 C207 1.074 . S
C373 C165 1.084 . S
C379 C221 1.065 . S
C393 C9 1.473 1_556 S
C399 C215 1.462 . S
C413 C173 1.461 . S
C419 C23 1.473 . S
C433 C37 1.476 1_556 S
C439 C187 1.471 . S
C453 C201 1.463 . S
C459 C51 1.474 . S
C473 C131 1.462 . S
C479 C65 1.473 1_554 S
C493 C145 1.461 . S
C499 C79 1.473 . S
C513 C159 1.472 . S
C519 C93 1.475 1_554 S
C533 C117 1.461 . S
C539 C107 1.473 . S
C553 C121 1.475 1_554 S
C559 C103 1.469 . S
C573 C61 1.468 . S
C579 C135 1.474 . S
C593 C75 1.471 . S
C599 C149 1.476 1_554 S
C613 C163 1.475 . S
C619 C89 1.468 . S
C633 C19 1.471 . S
C639 C177 1.475 1_556 S
C653 C191 1.475 . S
C659 C33 1.471 . S
C673 C205 1.474 1_556 S
C679 C47 1.464 . S
C693 C219 1.475 . S
C699 C5 1.472 . S
C713 C98 1.088 . S
C719 C0 1.062 . S
C733 C14 1.094 . S
C739 C56 1.057 . S
C753 C28 1.063 . S
C759 C70 1.091 . S
C773 C42 1.088 . S
C779 C84 1.061 . S
C793 C210 1.074 . S
C799 C112 1.075 . S
C813 C168 1.089 . S
C819 C126 1.064 . S
C833 C182 1.071 . S
C839 C140 1.083 . S
C853 C196 1.057 . S
C859 C154 1.095 . S
