# Generated by pormake.
# Topology fcp, (5)-cn, num edge types: 1
# Building blocks:
#     Node 0, Type 0, BuildingBlock: XOMCOT_clean_sbu_0, # of connection points: 5
#     Node 1, Type 0, BuildingBlock: XOMCOT_clean_sbu_0, # of connection points: 5
#     Node 2, Type 0, BuildingBlock: XOMCOT_clean_sbu_0, # of connection points: 5
#     Node 3, Type 0, BuildingBlock: XOMCOT_clean_sbu_0, # of connection points: 5
#     Node 4, Type 0, BuildingBlock: XOMCOT_clean_sbu_0, # of connection points: 5
#     Node 5, Type 0, BuildingBlock: XOMCOT_clean_sbu_0, # of connection points: 5
#     Node 6, Type 0, BuildingBlock: XOMCOT_clean_sbu_0, # of connection points: 5
#     Node 7, Type 0, BuildingBlock: XOMCOT_clean_sbu_0, # of connection points: 5
#     Node 8, Type 0, BuildingBlock: XOMCOT_clean_sbu_0, # of connection points: 5
#     Node 9, Type 0, BuildingBlock: XOMCOT_clean_sbu_0, # of connection points: 5
#     Node 10, Type 0, BuildingBlock: XOMCOT_clean_sbu_0, # of connection points: 5
#     Node 11, Type 0, BuildingBlock: XOMCOT_clean_sbu_0, # of connection points: 5
#     Node 12, Type 0, BuildingBlock: XOMCOT_clean_sbu_0, # of connection points: 5
#     Node 13, Type 0, BuildingBlock: XOMCOT_clean_sbu_0, # of connection points: 5
#     Node 14, Type 0, BuildingBlock: XOMCOT_clean_sbu_0, # of connection points: 5
#     Node 15, Type 0, BuildingBlock: XOMCOT_clean_sbu_0, # of connection points: 5
#     Node 16, Type 0, BuildingBlock: XOMCOT_clean_sbu_0, # of connection points: 5
#     Node 17, Type 0, BuildingBlock: XOMCOT_clean_sbu_0, # of connection points: 5
#     Node 18, Type 0, BuildingBlock: XOMCOT_clean_sbu_0, # of connection points: 5
#     Node 19, Type 0, BuildingBlock: XOMCOT_clean_sbu_0, # of connection points: 5
#     Node 20, Type 0, BuildingBlock: XOMCOT_clean_sbu_0, # of connection points: 5
#     Node 21, Type 0, BuildingBlock: XOMCOT_clean_sbu_0, # of connection points: 5
#     Node 22, Type 0, BuildingBlock: XOMCOT_clean_sbu_0, # of connection points: 5
#     Node 23, Type 0, BuildingBlock: XOMCOT_clean_sbu_0, # of connection points: 5
#     Edge 24, Type (0, 0), BuildingBlock: CIFDUS_clean_linker_0, # of connection points: 2
#     Edge 25, Type (0, 0), BuildingBlock: CIFDUS_clean_linker_0, # of connection points: 2
#     Edge 26, Type (0, 0), BuildingBlock: CIFDUS_clean_linker_0, # of connection points: 2
#     Edge 27, Type (0, 0), BuildingBlock: CIFDUS_clean_linker_0, # of connection points: 2
#     Edge 28, Type (0, 0), BuildingBlock: CIFDUS_clean_linker_0, # of connection points: 2
#     Edge 29, Type (0, 0), BuildingBlock: CIFDUS_clean_linker_0, # of connection points: 2
#     Edge 30, Type (0, 0), BuildingBlock: CIFDUS_clean_linker_0, # of connection points: 2
#     Edge 31, Type (0, 0), BuildingBlock: CIFDUS_clean_linker_0, # of connection points: 2
#     Edge 32, Type (0, 0), BuildingBlock: CIFDUS_clean_linker_0, # of connection points: 2
#     Edge 33, Type (0, 0), BuildingBlock: CIFDUS_clean_linker_0, # of connection points: 2
#     Edge 34, Type (0, 0), BuildingBlock: CIFDUS_clean_linker_0, # of connection points: 2
#     Edge 35, Type (0, 0), BuildingBlock: CIFDUS_clean_linker_0, # of connection points: 2
#     Edge 36, Type (0, 0), BuildingBlock: CIFDUS_clean_linker_0, # of connection points: 2
#     Edge 37, Type (0, 0), BuildingBlock: CIFDUS_clean_linker_0, # of connection points: 2
#     Edge 38, Type (0, 0), BuildingBlock: CIFDUS_clean_linker_0, # of connection points: 2
#     Edge 39, Type (0, 0), BuildingBlock: CIFDUS_clean_linker_0, # of connection points: 2
#     Edge 40, Type (0, 0), BuildingBlock: CIFDUS_clean_linker_0, # of connection points: 2
#     Edge 41, Type (0, 0), BuildingBlock: CIFDUS_clean_linker_0, # of connection points: 2
#     Edge 42, Type (0, 0), BuildingBlock: CIFDUS_clean_linker_0, # of connection points: 2
#     Edge 43, Type (0, 0), BuildingBlock: CIFDUS_clean_linker_0, # of connection points: 2
#     Edge 44, Type (0, 0), BuildingBlock: CIFDUS_clean_linker_0, # of connection points: 2
#     Edge 45, Type (0, 0), BuildingBlock: CIFDUS_clean_linker_0, # of connection points: 2
#     Edge 46, Type (0, 0), BuildingBlock: CIFDUS_clean_linker_0, # of connection points: 2
#     Edge 47, Type (0, 0), BuildingBlock: CIFDUS_clean_linker_0, # of connection points: 2
#     Edge 48, Type (0, 0), BuildingBlock: CIFDUS_clean_linker_0, # of connection points: 2
#     Edge 49, Type (0, 0), BuildingBlock: CIFDUS_clean_linker_0, # of connection points: 2
#     Edge 50, Type (0, 0), BuildingBlock: CIFDUS_clean_linker_0, # of connection points: 2
#     Edge 51, Type (0, 0), BuildingBlock: CIFDUS_clean_linker_0, # of connection points: 2
#     Edge 52, Type (0, 0), BuildingBlock: CIFDUS_clean_linker_0, # of connection points: 2
#     Edge 53, Type (0, 0), BuildingBlock: CIFDUS_clean_linker_0, # of connection points: 2
#     Edge 54, Type (0, 0), BuildingBlock: CIFDUS_clean_linker_0, # of connection points: 2
#     Edge 55, Type (0, 0), BuildingBlock: CIFDUS_clean_linker_0, # of connection points: 2
#     Edge 56, Type (0, 0), BuildingBlock: CIFDUS_clean_linker_0, # of connection points: 2
#     Edge 57, Type (0, 0), BuildingBlock: CIFDUS_clean_linker_0, # of connection points: 2
#     Edge 58, Type (0, 0), BuildingBlock: CIFDUS_clean_linker_0, # of connection points: 2
#     Edge 59, Type (0, 0), BuildingBlock: CIFDUS_clean_linker_0, # of connection points: 2
#     Edge 60, Type (0, 0), BuildingBlock: CIFDUS_clean_linker_0, # of connection points: 2
#     Edge 61, Type (0, 0), BuildingBlock: CIFDUS_clean_linker_0, # of connection points: 2
#     Edge 62, Type (0, 0), BuildingBlock: CIFDUS_clean_linker_0, # of connection points: 2
#     Edge 63, Type (0, 0), BuildingBlock: CIFDUS_clean_linker_0, # of connection points: 2
#     Edge 64, Type (0, 0), BuildingBlock: CIFDUS_clean_linker_0, # of connection points: 2
#     Edge 65, Type (0, 0), BuildingBlock: CIFDUS_clean_linker_0, # of connection points: 2
#     Edge 66, Type (0, 0), BuildingBlock: CIFDUS_clean_linker_0, # of connection points: 2
#     Edge 67, Type (0, 0), BuildingBlock: CIFDUS_clean_linker_0, # of connection points: 2
#     Edge 68, Type (0, 0), BuildingBlock: CIFDUS_clean_linker_0, # of connection points: 2
#     Edge 69, Type (0, 0), BuildingBlock: CIFDUS_clean_linker_0, # of connection points: 2
#     Edge 70, Type (0, 0), BuildingBlock: CIFDUS_clean_linker_0, # of connection points: 2
#     Edge 71, Type (0, 0), BuildingBlock: CIFDUS_clean_linker_0, # of connection points: 2
#     Edge 72, Type (0, 0), BuildingBlock: CIFDUS_clean_linker_0, # of connection points: 2
#     Edge 73, Type (0, 0), BuildingBlock: CIFDUS_clean_linker_0, # of connection points: 2
#     Edge 74, Type (0, 0), BuildingBlock: CIFDUS_clean_linker_0, # of connection points: 2
#     Edge 75, Type (0, 0), BuildingBlock: CIFDUS_clean_linker_0, # of connection points: 2
#     Edge 76, Type (0, 0), BuildingBlock: CIFDUS_clean_linker_0, # of connection points: 2
#     Edge 77, Type (0, 0), BuildingBlock: CIFDUS_clean_linker_0, # of connection points: 2
#     Edge 78, Type (0, 0), BuildingBlock: CIFDUS_clean_linker_0, # of connection points: 2
#     Edge 79, Type (0, 0), BuildingBlock: CIFDUS_clean_linker_0, # of connection points: 2
#     Edge 80, Type (0, 0), BuildingBlock: CIFDUS_clean_linker_0, # of connection points: 2
#     Edge 81, Type (0, 0), BuildingBlock: CIFDUS_clean_linker_0, # of connection points: 2
#     Edge 82, Type (0, 0), BuildingBlock: CIFDUS_clean_linker_0, # of connection points: 2
#     Edge 83, Type (0, 0), BuildingBlock: CIFDUS_clean_linker_0, # of connection points: 2
# Relax obj value: 0.053
# Max RMSD: 0.111
# Mean RMSD: 0.111
data_MOF--net-fcp--node1-XOMCOT_clean_sbu_0--edge1-CIFDUS_clean_linker_0
_symmetry_space_group_name_H-M    P1
_symmetry_Int_Tables_number       1
_symmetry_cell_setting            triclinic
loop_
_symmetry_equiv_pos_as_xyz
'x, y, z'
_cell_length_a     45.744027
_cell_length_b     45.932926
_cell_length_c     46.002759
_cell_angle_alpha  90.0639
_cell_angle_beta   90.094249
_cell_angle_gamma 90.036242
loop_
_atom_site_label
_atom_site_type_symbol
_atom_site_fract_x
_atom_site_fract_y
_atom_site_fract_z
_atom_type_partial_charge
Co0 Co 0.083 0.33146 0.19011 0.0
C1 C 0.13533 0.30762 0.16015 0.0
C2 C 0.14665 0.33703 0.19459 0.0
C3 C 0.17191 0.32486 0.18394 0.0
N4 N 0.1237 0.32675 0.17927 0.0
N5 N 0.16475 0.30624 0.16239 0.0
H6 H 0.12267 0.29395 0.14584 0.0
H7 H 0.145 0.35135 0.21319 0.0
C8 C 0.10664 0.3924 0.18422 0.0
O9 O 0.12237 0.38454 0.16167 0.0
N10 N 0.04282 0.33549 0.20163 0.0
C11 C 0.02022 0.31932 0.19205 0.0
C12 C 0.99573 0.32681 0.20761 0.0
C13 C 0.03192 0.3526 0.22285 0.0
N14 N 1.00314 0.34764 0.22699 0.0
C15 C 0.06748 0.30992 0.13358 0.0
C16 C 0.0494 0.36223 0.10999 0.0
C17 C 0.04603 0.33674 0.09368 0.0
C18 C 0.05523 0.31036 0.10574 0.0
C19 C 0.06118 0.36077 0.13809 0.0
N20 N 0.07072 0.33491 0.14944 0.0
H21 H 0.07321 0.28912 0.14281 0.0
H22 H 0.0611 0.38036 0.15093 0.0
H23 H 0.02163 0.30265 0.1755 0.0
H24 H 0.045 0.36741 0.23579 0.0
O25 O 0.08049 0.2894 0.1954 0.0
O26 O 0.09316 0.32122 0.22932 0.0
O27 O 0.08835 0.37477 0.19555 0.0
C28 C 0.08892 0.29424 0.22204 0.0
H29 H 0.19369 0.32813 0.1926 0.0
H30 H 0.97416 0.31741 0.2051 0.0
H31 H 0.04164 0.38289 0.10167 0.0
H32 H 0.0524 0.29012 0.09395 0.0
Co33 Co 0.82967 0.43803 0.32859 0.0
C34 C 0.805 0.38981 0.3636 0.0
C35 C 0.83874 0.37556 0.33443 0.0
C36 C 0.82775 0.35169 0.34854 0.0
N37 N 0.82475 0.39943 0.34407 0.0
N38 N 0.80651 0.36059 0.36683 0.0
H39 H 0.78939 0.40373 0.3745 0.0
H40 H 0.85466 0.37526 0.31714 0.0
C41 C 0.89619 0.44211 0.32289 0.0
O42 O 0.8971 0.46874 0.33332 0.0
N43 N 0.83473 0.47653 0.31184 0.0
C44 C 0.8193 0.50102 0.31705 0.0
C45 C 0.82959 0.52292 0.29935 0.0
C46 C 0.85321 0.48366 0.29009 0.0
N47 N 0.85111 0.51195 0.28267 0.0
C48 C 0.81746 0.46955 0.38118 0.0
C49 C 0.86707 0.45328 0.41143 0.0
C50 C 0.84722 0.4723 0.42473 0.0
C51 C 0.8219 0.48001 0.40938 0.0
C52 C 0.86152 0.44294 0.38329 0.0
N53 N 0.83774 0.45233 0.36785 0.0
H54 H 0.79726 0.47482 0.37036 0.0
H55 H 0.87611 0.42683 0.37438 0.0
H56 H 0.80141 0.50307 0.33212 0.0
H57 H 0.8678 0.46845 0.27957 0.0
O58 O 0.78741 0.44257 0.32743 0.0
O59 O 0.81452 0.42466 0.29183 0.0
O60 O 0.87196 0.4284 0.32083 0.0
C61 C 0.78864 0.43109 0.30155 0.0
H62 H 0.83372 0.32928 0.34434 0.0
H63 H 0.82226 0.54532 0.29922 0.0
H64 H 0.8863 0.44581 0.42298 0.0
H65 H 0.80563 0.49413 0.41905 0.0
Co66 Co 0.93837 0.69824 0.18407 0.0
C67 C 0.88442 0.73014 0.16401 0.0
C68 C 0.88788 0.68673 0.14707 0.0
C69 C 0.86284 0.69905 0.13629 0.0
N70 N 0.90137 0.70596 0.16476 0.0
N71 N 0.86059 0.72628 0.14693 0.0
H72 H 0.88921 0.75008 0.17558 0.0
H73 H 0.89598 0.66527 0.14178 0.0
C74 C 0.93701 0.63239 0.19515 0.0
O75 O 0.96538 0.63007 0.19882 0.0
N76 N 0.97562 0.69026 0.2029 0.0
C77 C 1.00235 0.69279 0.19078 0.0
C78 C 0.02301 0.68335 0.21032 0.0
C79 C 0.98056 0.68041 0.23023 0.0
N80 N 1.00931 0.67559 0.23499 0.0
C81 C 0.96032 0.71905 0.13032 0.0
C82 C 0.97721 0.66646 0.10648 0.0
C83 C 0.98287 0.69222 0.0912 0.0
C84 C 0.97407 0.71869 0.10332 0.0
C85 C 0.96387 0.66781 0.13388 0.0
N86 N 0.95598 0.69399 0.14568 0.0
H87 H 0.95329 0.73973 0.13894 0.0
H88 H 0.96032 0.64781 0.14541 0.0
H89 H 1.00677 0.70045 0.16904 0.0
H90 H 0.96346 0.67529 0.24564 0.0
O91 O 0.94505 0.73952 0.19027 0.0
O92 O 0.92221 0.71019 0.22089 0.0
O93 O 0.92554 0.65633 0.1869 0.0
C94 C 0.93146 0.73624 0.21488 0.0
H95 H 0.8478 0.68895 0.12113 0.0
H96 H 0.04633 0.68183 0.20661 0.0
H97 H 0.98363 0.64556 0.09763 0.0
H98 H 0.97761 0.739 0.09189 0.0
Co99 Co 0.18579 0.57929 0.33914 0.0
C100 C 0.20675 0.63108 0.37156 0.0
C101 C 0.17763 0.64256 0.33693 0.0
C102 C 0.1892 0.6677 0.34844 0.0
N103 N 0.18814 0.61954 0.35179 0.0
N104 N 0.20771 0.66045 0.3701 0.0
H105 H 0.22072 0.61836 0.3855 0.0
H106 H 0.16401 0.64109 0.31774 0.0
C107 C 0.12282 0.60016 0.33932 0.0
O108 O 0.12691 0.6148 0.36354 0.0
N109 N 0.18417 0.53954 0.32575 0.0
C110 C 0.20131 0.51753 0.33491 0.0
C111 C 0.19737 0.49411 0.3166 0.0
C112 C 0.16993 0.52928 0.30213 0.0
N113 N 0.17765 0.50158 0.29612 0.0
C114 C 0.20197 0.56335 0.39733 0.0
C115 C 0.14807 0.54314 0.41518 0.0
C116 C 0.17169 0.54128 0.43468 0.0
C117 C 0.19896 0.55152 0.42515 0.0
C118 C 0.15212 0.55483 0.38731 0.0
N119 N 0.17866 0.56563 0.37888 0.0
H120 H 0.22352 0.56972 0.39034 0.0
H121 H 0.13396 0.55412 0.37241 0.0
H122 H 0.21667 0.51891 0.35275 0.0
H123 H 0.15566 0.54232 0.28861 0.0
O124 O 0.2284 0.57805 0.33818 0.0
O125 O 0.19976 0.59085 0.30145 0.0
O126 O 0.14294 0.58362 0.32939 0.0
C127 C 0.226 0.58673 0.31135 0.0
H128 H 0.18592 0.68946 0.34003 0.0
H129 H 0.20867 0.47344 0.31774 0.0
H130 H 0.12657 0.53537 0.42116 0.0
H131 H 0.21827 0.54954 0.43864 0.0
Co132 Co 0.08281 0.69405 0.83329 0.0
C133 C 0.13751 0.72349 0.85434 0.0
C134 C 0.1333 0.67957 0.86959 0.0
C135 C 0.15825 0.69134 0.88133 0.0
N136 N 0.12036 0.69951 0.85237 0.0
N137 N 0.16093 0.71894 0.87177 0.0
H138 H 0.13298 0.74391 0.8436 0.0
H139 H 0.12469 0.65815 0.87425 0.0
C140 C 0.08135 0.62817 0.82047 0.0
O141 O 0.05313 0.62667 0.81557 0.0
N142 N 0.04496 0.68913 0.81483 0.0
C143 C 0.01975 0.7003 0.82505 0.0
C144 C 0.99777 0.69459 0.80549 0.0
C145 C 0.03814 0.67765 0.78857 0.0
N146 N 1.00927 0.68015 0.78272 0.0
C147 C 0.0657 0.71316 0.88991 0.0
C148 C 0.03959 0.66184 0.90751 0.0
C149 C 0.03985 0.68551 0.92681 0.0
C150 C 0.05316 0.7115 0.91759 0.0
C151 C 0.05207 0.66454 0.87998 0.0
N152 N 0.06503 0.68989 0.87148 0.0
H153 H 0.07596 0.73324 0.88315 0.0
H154 H 0.05097 0.64618 0.86562 0.0
H155 H 0.01746 0.71199 0.84533 0.0
H156 H 0.05381 0.66736 0.77425 0.0
O157 O 0.07895 0.73594 0.8272 0.0
O158 O 0.09928 0.70459 0.79661 0.0
O159 O 0.09316 0.65146 0.8301 0.0
C160 C 0.09178 0.73122 0.80228 0.0
H161 H 0.17274 0.68068 0.89658 0.0
H162 H 0.97487 0.69993 0.80814 0.0
H163 H 0.03003 0.64117 0.91361 0.0
H164 H 0.05357 0.73059 0.93141 0.0
Co165 Co 0.19316 0.43471 0.69057 0.0
C166 C 0.2133 0.3843 0.65424 0.0
C167 C 0.1885 0.37159 0.69173 0.0
C168 C 0.19679 0.3469 0.67717 0.0
N169 N 0.19814 0.3951 0.67703 0.0
N170 N 0.21237 0.35494 0.6537 0.0
H171 H 0.22506 0.39722 0.63858 0.0
H172 H 0.17634 0.37242 0.71186 0.0
C173 C 0.1322 0.41001 0.68444 0.0
O174 O 0.13957 0.39621 0.66053 0.0
N175 N 0.188 0.47364 0.70518 0.0
C176 C 0.20508 0.49711 0.70072 0.0
C177 C 0.19339 0.52034 0.71582 0.0
C178 C 0.1663 0.48275 0.72273 0.0
N179 N 0.16897 0.51115 0.72943 0.0
C180 C 0.21213 0.45358 0.63441 0.0
C181 C 0.15887 0.47314 0.61384 0.0
C182 C 0.18386 0.47729 0.59673 0.0
C183 C 0.21068 0.46721 0.60734 0.0
C184 C 0.16136 0.45979 0.64121 0.0
N185 N 0.1877 0.44954 0.65099 0.0
H186 H 0.2333 0.44691 0.64228 0.0
H187 H 0.14222 0.45899 0.65479 0.0
H188 H 0.22455 0.49732 0.68742 0.0
H189 H 0.14905 0.46889 0.73089 0.0
O190 O 0.23535 0.43837 0.69385 0.0
O191 O 0.20624 0.42236 0.72866 0.0
O192 O 0.1501 0.42731 0.69693 0.0
C193 C 0.23269 0.42796 0.71999 0.0
H194 H 0.19253 0.32468 0.68376 0.0
H195 H 0.20181 0.54237 0.71631 0.0
H196 H 0.13785 0.48135 0.60674 0.0
H197 H 0.23056 0.47021 0.59494 0.0
Co198 Co 0.94384 0.33246 0.83608 0.0
C199 C 0.8887 0.31815 0.86825 0.0
C200 C 0.88254 0.34995 0.83477 0.0
C201 C 0.85572 0.343 0.84607 0.0
N202 N 0.90348 0.3351 0.84915 0.0
N203 N 0.85951 0.32291 0.86704 0.0
H204 H 0.89863 0.30157 0.88157 0.0
H205 H 0.88627 0.36354 0.81596 0.0
C206 C 0.93126 0.39724 0.83662 0.0
O207 O 0.91839 0.39528 0.86207 0.0
N208 N 0.98337 0.32963 0.82184 0.0
C209 C 1.0039 0.31038 0.83022 0.0
C210 C 0.02777 0.31322 0.81216 0.0
C211 C 0.99492 0.34399 0.79899 0.0
N212 N 0.02203 0.33437 0.79265 0.0
C213 C 0.95695 0.31752 0.89516 0.0
C214 C 0.98798 0.36723 0.90908 0.0
C215 C 0.98532 0.34531 0.93022 0.0
C216 C 0.96964 0.3201 0.92269 0.0
C217 C 0.97528 0.36355 0.88159 0.0
N218 N 0.95913 0.33933 0.87516 0.0
H219 H 0.94636 0.29731 0.88961 0.0
H220 H 0.97936 0.37991 0.8653 0.0
H221 H 1.00134 0.2948 0.84764 0.0
H222 H 0.98327 0.36017 0.78644 0.0
O223 O 0.94104 0.29018 0.83653 0.0
O224 O 0.92958 0.31866 0.79933 0.0
O225 O 0.94381 0.37505 0.82548 0.0
C226 C 0.93127 0.29256 0.81003 0.0
H227 H 0.83484 0.35062 0.83801 0.0
H228 H 0.04771 0.30056 0.81311 0.0
H229 H 1.00002 0.38704 0.91351 0.0
H230 H 0.96795 0.30191 0.93753 0.0
Co231 Co 0.84066 0.58144 0.68001 0.0
C232 C 0.81086 0.63503 0.65811 0.0
C233 C 0.85618 0.63343 0.64636 0.0
C234 C 0.84401 0.65792 0.63423 0.0
N235 N 0.83551 0.61913 0.66158 0.0
N236 N 0.81551 0.65887 0.64157 0.0
H237 H 0.78983 0.62919 0.66703 0.0
H238 H 0.8784 0.62609 0.64325 0.0
C239 C 0.90656 0.57706 0.69199 0.0
O240 O 0.90615 0.54854 0.69377 0.0
N241 N 0.84571 0.54379 0.69834 0.0
C242 C 0.84074 0.51739 0.68641 0.0
C243 C 0.84863 0.49629 0.70613 0.0
C244 C 0.8552 0.53838 0.72567 0.0
N245 N 0.85763 0.50956 0.73067 0.0
C246 C 0.82056 0.56663 0.62389 0.0
C247 C 0.86883 0.53679 0.6037 0.0
C248 C 0.84351 0.53766 0.58636 0.0
C249 C 0.81952 0.55357 0.59661 0.0
C250 C 0.86904 0.55052 0.63106 0.0
N251 N 0.84472 0.56452 0.6412 0.0
H252 H 0.80153 0.57836 0.63129 0.0
H253 H 0.88843 0.54897 0.64409 0.0
H254 H 0.83247 0.51358 0.66472 0.0
H255 H 0.86189 0.55511 0.7409 0.0
O256 O 0.79881 0.57685 0.68437 0.0
O257 O 0.82791 0.59752 0.71686 0.0
O258 O 0.88367 0.59123 0.6845 0.0
C259 C 0.80156 0.58982 0.70937 0.0
H260 H 0.85508 0.67324 0.62018 0.0
H261 H 0.8483 0.47298 0.70261 0.0
H262 H 0.88797 0.52489 0.59665 0.0
H263 H 0.79982 0.55581 0.58372 0.0
Co264 Co 0.19092 0.08427 0.3369 0.0
C265 C 0.15675 0.13337 0.31098 0.0
C266 C 0.19001 0.14771 0.34065 0.0
C267 C 0.17685 0.17179 0.32883 0.0
N268 N 0.17697 0.12356 0.33011 0.0
N269 N 0.15601 0.16278 0.31014 0.0
H270 H 0.14358 0.11958 0.29721 0.0
H271 H 0.20864 0.14779 0.35515 0.0
C272 C 0.1837 0.11055 0.39703 0.0
O273 O 0.15825 0.12209 0.3905 0.0
N274 N 0.20578 0.04559 0.34372 0.0
C275 C 0.20241 0.02193 0.3267 0.0
C276 C 0.21814 0.99927 0.33866 0.0
C277 C 0.2233 0.03709 0.36576 0.0
N278 N 0.23109 1.00892 0.36322 0.0
C279 C 0.1345 0.06456 0.31725 0.0
C280 C 0.11257 0.04914 0.37102 0.0
C281 C 0.09487 0.04522 0.34644 0.0
C282 C 0.10635 0.05269 0.31922 0.0
C283 C 0.14083 0.06051 0.36802 0.0
N284 N 0.1511 0.06931 0.34153 0.0
H285 H 0.14306 0.0696 0.29601 0.0
H286 H 0.1545 0.0614 0.38708 0.0
H287 H 0.18967 0.0213 0.30689 0.0
H288 H 0.23087 0.05131 0.38296 0.0
O289 O 0.19639 0.07953 0.29501 0.0
O290 O 0.22943 0.09657 0.32584 0.0
O291 O 0.19628 0.09314 0.37941 0.0
C292 C 0.22257 0.08998 0.29928 0.0
H293 H 0.18319 0.19421 0.33253 0.0
H294 H 0.21971 0.97733 0.33017 0.0
H295 H 0.10492 0.04272 0.39235 0.0
H296 H 0.09359 0.04959 0.2996 0.0
Co297 Co 0.58473 0.33187 0.18161 0.0
C298 C 0.64061 0.36143 0.20088 0.0
C299 C 0.6473 0.32268 0.17568 0.0
C300 C 0.67408 0.33343 0.18368 0.0
N301 N 0.62619 0.34045 0.18585 0.0
N302 N 0.66995 0.35777 0.19951 0.0
H303 H 0.63022 0.37877 0.21282 0.0
H304 H 0.64338 0.30291 0.16349 0.0
C305 C 0.60853 0.33625 0.12117 0.0
O306 O 0.6233 0.35952 0.12901 0.0
N307 N 0.54397 0.32195 0.17735 0.0
C308 C 0.52078 0.33604 0.18861 0.0
C309 C 0.49566 0.32248 0.17905 0.0
C310 C 0.5328 0.29971 0.16165 0.0
N311 N 0.50332 0.29965 0.16224 0.0
C312 C 0.57403 0.39102 0.19955 0.0
C313 C 0.55146 0.41037 0.14731 0.0
C314 C 0.55049 0.42922 0.17136 0.0
C315 C 0.56232 0.41915 0.1977 0.0
C316 C 0.56294 0.38229 0.15021 0.0
N317 N 0.5746 0.37294 0.17595 0.0
H318 H 0.58127 0.38328 0.2205 0.0
H319 H 0.56084 0.36773 0.13195 0.0
H320 H 0.522 0.35505 0.20244 0.0
H321 H 0.54593 0.2844 0.14942 0.0
O322 O 0.58147 0.32901 0.22375 0.0
O323 O 0.59251 0.29273 0.19395 0.0
O324 O 0.59046 0.32444 0.13871 0.0
C325 C 0.58829 0.30166 0.22039 0.0
H326 H 0.69503 0.32354 0.17898 0.0
H327 H 0.47345 0.3289 0.184 0.0
H328 H 0.54272 0.41686 0.12643 0.0
H329 H 0.56135 0.43228 0.21723 0.0
Co330 Co 0.83864 0.93439 0.34021 0.0
C331 C 0.86739 0.87821 0.32387 0.0
C332 C 0.8305 0.87257 0.35199 0.0
C333 C 0.8406 0.84557 0.34412 0.0
N334 N 0.84756 0.89311 0.33975 0.0
N335 N 0.86377 0.84906 0.32636 0.0
H336 H 0.88346 0.88824 0.31 0.0
H337 H 0.8113 0.87698 0.36495 0.0
C338 C 0.84359 0.9166 0.40319 0.0
O339 O 0.86565 0.89918 0.39758 0.0
N340 N 0.8285 0.975 0.34074 0.0
C341 C 0.83941 0.99647 0.32411 0.0
C342 C 0.82356 0.02143 0.32935 0.0
C343 C 0.80625 0.98697 0.35576 0.0
N344 N 0.80267 0.01535 0.34918 0.0
C345 C 0.89564 0.94456 0.31638 0.0
C346 C 0.9219 0.96604 0.36607 0.0
C347 C 0.93832 0.96526 0.34027 0.0
C348 C 0.92453 0.9544 0.3152 0.0
C349 C 0.89281 0.95631 0.36623 0.0
N350 N 0.88014 0.94501 0.34173 0.0
H351 H 0.8855 0.93719 0.29651 0.0
H352 H 0.88048 0.95883 0.38599 0.0
H353 H 0.85701 0.99398 0.30864 0.0
H354 H 0.79213 0.97475 0.37013 0.0
O355 O 0.83242 0.93312 0.29826 0.0
O356 O 0.79856 0.92512 0.33158 0.0
O357 O 0.83384 0.93377 0.38366 0.0
C358 C 0.80533 0.92676 0.30426 0.0
H359 H 0.83058 0.825 0.34978 0.0
H360 H 0.82693 0.04233 0.31905 0.0
H361 H 0.93127 0.97427 0.38607 0.0
H362 H 0.9356 0.9542 0.29442 0.0
Co363 Co 0.43667 0.68315 0.18995 0.0
C364 C 0.38584 0.65798 0.22221 0.0
C365 C 0.38214 0.65194 0.17616 0.0
C366 C 0.35832 0.63943 0.18922 0.0
N367 N 0.39933 0.66399 0.19672 0.0
N368 N 0.36055 0.64305 0.21829 0.0
H369 H 0.39462 0.66384 0.24322 0.0
H370 H 0.38661 0.65154 0.15313 0.0
C371 C 0.43826 0.69472 0.1242 0.0
O372 O 0.4669 0.69544 0.12252 0.0
N373 N 0.47419 0.70199 0.18357 0.0
C374 C 0.50063 0.69076 0.19009 0.0
C375 C 0.52192 0.70971 0.18086 0.0
C376 C 0.47981 0.72833 0.17153 0.0
N377 N 0.50885 0.73322 0.16923 0.0
C378 C 0.46051 0.62989 0.21131 0.0
C379 C 0.47551 0.60503 0.1587 0.0
C380 C 0.48306 0.59048 0.18444 0.0
C381 C 0.47502 0.60314 0.21095 0.0
C382 C 0.46135 0.63211 0.16003 0.0
N383 N 0.45457 0.64459 0.18618 0.0
H384 H 0.45448 0.63899 0.23207 0.0
H385 H 0.45618 0.64278 0.13992 0.0
H386 H 0.50443 0.66984 0.20008 0.0
H387 H 0.46315 0.74258 0.16278 0.0
O388 O 0.44157 0.68971 0.23156 0.0
O389 O 0.42009 0.72004 0.20089 0.0
O390 O 0.42551 0.68666 0.14755 0.0
C391 C 0.42801 0.71427 0.22734 0.0
H392 H 0.34074 0.62862 0.1778 0.0
H393 H 0.54529 0.70599 0.18146 0.0
H394 H 0.48115 0.59591 0.13773 0.0
H395 H 0.47984 0.59238 0.23134 0.0
Co396 Co 0.19096 0.94149 0.68528 0.0
C397 C 0.15876 0.89155 0.71193 0.0
C398 C 0.1919 0.87796 0.68191 0.0
C399 C 0.17969 0.8536 0.6942 0.0
N400 N 0.17835 0.9018 0.69245 0.0
N401 N 0.15892 0.86216 0.71311 0.0
H402 H 0.14529 0.90503 0.72564 0.0
H403 H 0.21005 0.87834 0.66687 0.0
C404 C 0.1791 0.91586 0.62587 0.0
O405 O 0.15649 0.90136 0.63586 0.0
N406 N 0.20461 0.98051 0.67823 0.0
C407 C 0.19393 1.00566 0.68889 0.0
C408 C 0.21036 0.02831 0.67802 0.0
C409 C 0.22756 0.98804 0.66147 0.0
N410 N 0.2315 0.01713 0.66089 0.0
C411 C 0.13677 0.96011 0.71061 0.0
C412 C 0.10816 0.97495 0.65987 0.0
C413 C 0.09345 0.97895 0.6864 0.0
C414 C 0.10852 0.97161 0.71199 0.0
C415 C 0.13674 0.96383 0.6595 0.0
N416 N 0.15044 0.95557 0.68463 0.0
H417 H 0.14787 0.95535 0.73076 0.0
H418 H 0.1478 0.96266 0.6389 0.0
H419 H 0.17564 1.0075 0.70361 0.0
H420 H 0.24091 0.97254 0.64972 0.0
O421 O 0.19988 0.94548 0.72657 0.0
O422 O 0.23055 0.92957 0.69301 0.0
O423 O 0.19252 0.9342 0.64198 0.0
C424 C 0.22567 0.93532 0.72019 0.0
H425 H 0.18652 0.83134 0.6905 0.0
H426 H 0.20734 0.05121 0.68273 0.0
H427 H 0.09784 0.98036 0.6394 0.0
H428 H 0.09894 0.97527 0.73317 0.0
Co429 Co 0.43414 0.33385 0.84101 0.0
C430 C 0.3788 0.36597 0.82653 0.0
C431 C 0.37298 0.33338 0.85921 0.0
C432 C 0.34606 0.34443 0.85208 0.0
N433 N 0.39381 0.34736 0.84387 0.0
N434 N 0.34961 0.36491 0.83141 0.0
H435 H 0.38854 0.37865 0.80945 0.0
H436 H 0.37686 0.31491 0.87323 0.0
C437 C 0.42268 0.3389 0.90485 0.0
O438 O 0.41106 0.36466 0.90033 0.0
N439 N 0.47356 0.31919 0.83776 0.0
C440 C 0.49305 0.32638 0.81705 0.0
C441 C 0.5172 0.30871 0.81988 0.0
C442 C 0.48613 0.29747 0.85312 0.0
N443 N 0.5128 0.2907 0.84257 0.0
C444 C 0.4466 0.39391 0.82598 0.0
C445 C 0.48366 0.40454 0.87232 0.0
C446 C 0.47921 0.42667 0.85187 0.0
C447 C 0.46023 0.42117 0.82853 0.0
C448 C 0.46922 0.37788 0.86924 0.0
N449 N 0.45029 0.37294 0.84671 0.0
H450 H 0.43439 0.38925 0.8065 0.0
H451 H 0.47443 0.36076 0.88443 0.0
H452 H 0.48952 0.3427 0.80049 0.0
H453 H 0.47553 0.28598 0.87073 0.0
O454 O 0.43015 0.33274 0.79878 0.0
O455 O 0.41949 0.29667 0.82891 0.0
O456 O 0.43468 0.32506 0.88396 0.0
C457 C 0.4206 0.30619 0.80238 0.0
H458 H 0.32532 0.3364 0.86002 0.0
H459 H 0.53638 0.30876 0.80612 0.0
H460 H 0.49866 0.40762 0.89031 0.0
H461 H 0.45713 0.43726 0.81162 0.0
Co462 Co 0.83981 0.09498 0.67719 0.0
C463 C 0.86489 0.15026 0.70171 0.0
C464 C 0.84117 0.15646 0.66208 0.0
C465 C 0.84897 0.18317 0.67258 0.0
N466 N 0.85195 0.13553 0.6796 0.0
N467 N 0.86353 0.1795 0.69781 0.0
H468 H 0.87276 0.14013 0.72137 0.0
H469 H 0.82657 0.15289 0.64396 0.0
C470 C 0.85351 0.1109 0.61523 0.0
O471 O 0.87894 0.12119 0.62375 0.0
N472 N 0.82608 0.05546 0.67438 0.0
C473 C 0.83007 0.03349 0.69334 0.0
C474 C 0.81397 1.00981 0.68394 0.0
C475 C 0.80783 0.04506 0.65384 0.0
N476 N 0.80018 0.01726 0.65908 0.0
C477 C 0.89843 0.08443 0.69836 0.0
C478 C 0.91737 0.05318 0.65054 0.0
C479 C 0.93681 0.0577 0.67363 0.0
C480 C 0.92691 0.07311 0.69802 0.0
C481 C 0.88891 0.06419 0.65209 0.0
N482 N 0.88009 0.08079 0.67517 0.0
H483 H 0.89094 0.0954 0.71766 0.0
H484 H 0.87386 0.05894 0.63477 0.0
H485 H 0.84329 0.03476 0.71281 0.0
H486 H 0.79948 0.05782 0.63591 0.0
O487 O 0.83376 0.09445 0.71906 0.0
O488 O 0.80068 0.10733 0.68628 0.0
O489 O 0.83659 0.09848 0.63349 0.0
C490 C 0.8074 0.10374 0.71352 0.0
H491 H 0.84301 0.20371 0.66279 0.0
H492 H 0.81256 0.98878 0.69443 0.0
H493 H 0.92391 0.04057 0.63172 0.0
H494 H 0.9411 0.07647 0.7166 0.0
Co495 Co 0.59641 0.67632 0.83218 0.0
C496 C 0.65479 0.65505 0.81178 0.0
C497 C 0.64901 0.64861 0.85752 0.0
C498 C 0.6762 0.6384 0.84988 0.0
N499 N 0.63555 0.65939 0.83374 0.0
N500 N 0.67976 0.6424 0.82112 0.0
H501 H 0.65085 0.66092 0.78937 0.0
H502 H 0.6397 0.64744 0.87894 0.0
C503 C 0.60151 0.68744 0.89945 0.0
O504 O 0.59617 0.6611 0.90916 0.0
N505 N 0.55797 0.69379 0.83077 0.0
C506 C 0.53354 0.68266 0.81866 0.0
C507 C 0.51079 0.70172 0.82356 0.0
C508 C 0.55007 0.71979 0.842 0.0
N509 N 0.52137 0.72502 0.83799 0.0
C510 C 0.58767 0.61497 0.82984 0.0
C511 C 0.54172 0.61196 0.86868 0.0
C512 C 0.54954 0.5868 0.85314 0.0
C513 C 0.57327 0.58847 0.83399 0.0
C514 C 0.5571 0.63802 0.86426 0.0
N515 N 0.57954 0.63939 0.84472 0.0
H516 H 0.60459 0.61619 0.81354 0.0
H517 H 0.54997 0.65747 0.87544 0.0
H518 H 0.53225 0.66184 0.80773 0.0
H519 H 0.56477 0.73419 0.85355 0.0
O520 O 0.59469 0.67061 0.79021 0.0
O521 O 0.61139 0.70997 0.81297 0.0
O522 O 0.60178 0.69295 0.87228 0.0
C523 C 0.60515 0.69704 0.78864 0.0
H524 H 0.69185 0.62811 0.86425 0.0
H525 H 0.48817 0.69864 0.8173 0.0
H526 H 0.52348 0.61166 0.88366 0.0
H527 H 0.57973 0.5698 0.82112 0.0
Co528 Co 0.33349 0.18352 0.08543 0.0
C529 C 0.31276 0.1485 0.13554 0.0
C530 C 0.34619 0.17883 0.14774 0.0
C531 C 0.33535 0.16614 0.17252 0.0
N532 N 0.33253 0.16734 0.1244 0.0
N533 N 0.31415 0.14719 0.16488 0.0
H534 H 0.29643 0.13737 0.12277 0.0
H535 H 0.36152 0.19675 0.14699 0.0
C536 C 0.39742 0.17698 0.10209 0.0
O537 O 0.39316 0.1514 0.11413 0.0
N538 N 0.33387 0.20035 0.04711 0.0
C539 C 0.31398 0.19578 0.02596 0.0
C540 C 0.31904 0.21533 1.00384 0.0
C541 C 0.35087 0.2224 0.03762 0.0
N542 N 0.34222 0.2319 0.01125 0.0
C543 C 0.31086 0.12864 0.06548 0.0
C544 C 0.3619 0.10753 0.04127 0.0
C545 C 0.33646 0.09062 0.03912 0.0
C546 C 0.31069 0.10161 0.05141 0.0
C547 C 0.36103 0.13471 0.05519 0.0
N548 N 0.3359 0.14468 0.06788 0.0
H549 H 0.29048 0.13697 0.07378 0.0
H550 H 0.38045 0.14794 0.05466 0.0
H551 H 0.29627 0.18022 0.02713 0.0
H552 H 0.36809 0.23237 0.05036 0.0
O553 O 0.29113 0.18901 0.08737 0.0
O554 O 0.32447 0.221 0.10139 0.0
O555 O 0.37709 0.18919 0.08753 0.0
C556 C 0.29705 0.21454 0.09839 0.0
H557 H 0.34106 0.17212 0.19458 0.0
H558 H 0.30633 0.21766 0.9841 0.0
H559 H 0.38207 0.10033 0.03129 0.0
H560 H 0.29042 0.08948 0.05002 0.0
Co561 Co 0.34249 0.83538 0.92842 0.0
C562 C 0.3212 0.87089 0.87886 0.0
C563 C 0.34799 0.8352 0.86503 0.0
C564 C 0.33665 0.84854 0.8408 0.0
N565 N 0.33892 0.84958 0.88892 0.0
N566 N 0.31966 0.87089 0.84949 0.0
H567 H 0.30844 0.88504 0.89264 0.0
H568 H 0.36065 0.81532 0.86526 0.0
C569 C 0.40483 0.83434 0.90457 0.0
O570 O 0.40166 0.85758 0.88826 0.0
N571 N 0.34574 0.82046 0.96759 0.0
C572 C 0.32759 0.82516 0.99014 0.0
C573 C 0.33735 0.80916 0.01366 0.0
C574 C 0.36617 0.80179 0.97761 0.0
N575 N 0.36168 0.79462 1.00566 0.0
C576 C 0.32326 0.89068 0.94999 0.0
C577 C 0.37743 0.9142 0.96226 0.0
C578 C 0.35242 0.93066 0.96904 0.0
C579 C 0.32507 0.91829 0.96268 0.0
C580 C 0.37465 0.88639 0.94987 0.0
N581 N 0.34777 0.87501 0.94344 0.0
H582 H 0.30185 0.88175 0.94588 0.0
H583 H 0.39429 0.87409 0.94617 0.0
H584 H 0.30851 0.83903 0.9895 0.0
H585 H 0.38369 0.79301 0.96458 0.0
O586 O 0.29996 0.83202 0.9299 0.0
O587 O 0.33029 0.79746 0.9154 0.0
O588 O 0.38553 0.82752 0.92338 0.0
C589 C 0.30357 0.80575 0.91984 0.0
H590 H 0.33904 0.84107 0.81861 0.0
H591 H 0.32754 0.80855 0.03504 0.0
H592 H 0.39913 0.9226 0.96657 0.0
H593 H 0.30497 0.92944 0.96815 0.0
Co594 Co 0.34222 0.20055 0.57642 0.0
C595 C 0.35859 0.22725 0.63364 0.0
C596 C 0.36755 0.18153 0.63251 0.0
C597 C 0.37705 0.19242 0.65868 0.0
N598 N 0.35573 0.20324 0.61667 0.0
N599 N 0.37148 0.22121 0.65939 0.0
H600 H 0.35207 0.2489 0.62721 0.0
H601 H 0.37057 0.15948 0.62531 0.0
C602 C 0.33573 0.13321 0.5863 0.0
O603 O 0.36326 0.12535 0.58439 0.0
N604 N 0.3286 0.19785 0.53677 0.0
C605 C 0.34114 0.21 0.51324 0.0
C606 C 0.32634 0.20072 0.48884 0.0
C607 C 0.30593 0.18201 0.52657 0.0
N608 N 0.30423 0.18328 0.49734 0.0
C609 C 0.40386 0.20691 0.57332 0.0
C610 C 0.41497 0.16211 0.53468 0.0
C611 C 0.4384 0.17932 0.54451 0.0
C612 C 0.43241 0.202 0.56403 0.0
C613 C 0.38656 0.16772 0.5447 0.0
N614 N 0.38141 0.1896 0.56418 0.0
H615 H 0.39963 0.22518 0.58749 0.0
H616 H 0.36862 0.15483 0.53637 0.0
H617 H 0.3604 0.22367 0.51377 0.0
H618 H 0.29181 0.1688 0.54002 0.0
O619 O 0.3451 0.24265 0.57224 0.0
O620 O 0.30596 0.21814 0.58687 0.0
O621 O 0.32805 0.15974 0.5835 0.0
C622 C 0.31788 0.24304 0.58079 0.0
H623 H 0.38842 0.18023 0.67534 0.0
H624 H 0.33179 0.20575 0.46651 0.0
H625 H 0.41851 0.14451 0.51941 0.0
H626 H 0.44954 0.21649 0.5715 0.0
Co627 Co 0.69593 0.18889 0.93211 0.0
C628 C 0.71662 0.15704 0.87936 0.0
C629 C 0.68644 0.19118 0.86926 0.0
C630 C 0.6973 0.18026 0.84368 0.0
N631 N 0.69789 0.1762 0.89177 0.0
N632 N 0.71646 0.15888 0.84998 0.0
H633 H 0.73147 0.14338 0.8914 0.0
H634 H 0.67266 0.21019 0.87133 0.0
C635 C 0.63325 0.18849 0.91189 0.0
O636 O 0.63775 0.1635 0.89871 0.0
N637 N 0.6946 0.20251 0.97173 0.0
C638 C 0.71198 0.19363 0.99365 0.0
C639 C 0.70711 0.21126 0.01739 0.0
C640 C 0.67919 0.22519 0.98235 0.0
N641 N 0.68648 0.23094 1.0102 0.0
C642 C 0.70803 0.12911 0.94689 0.0
C643 C 0.65478 0.11709 0.97241 0.0
C644 C 0.67655 0.09552 0.97327 0.0
C645 C 0.70351 0.10201 0.96013 0.0
C646 C 0.66041 0.14408 0.95944 0.0
N647 N 0.68649 0.14968 0.94607 0.0
H648 H 0.72952 0.134 0.93867 0.0
H649 H 0.644 0.16079 0.96143 0.0
H650 H 0.72783 0.17624 0.99213 0.0
H651 H 0.66407 0.2381 0.96964 0.0
O652 O 0.73844 0.18759 0.93397 0.0
O653 O 0.71222 0.22574 0.92039 0.0
O654 O 0.65343 0.20016 0.92722 0.0
C655 C 0.73787 0.21441 0.92477 0.0
H656 H 0.69312 0.18897 0.82222 0.0
H657 H 0.71816 0.21008 0.03818 0.0
H658 H 0.63357 0.11353 0.98218 0.0
H659 H 0.72157 0.08685 0.96109 0.0
Co660 Co 0.6882 0.83298 0.59093 0.0
C661 C 0.65772 0.80686 0.64167 0.0
C662 C 0.68698 0.84158 0.65352 0.0
C663 C 0.6742 0.83111 0.67832 0.0
N664 N 0.67637 0.82674 0.63057 0.0
N665 N 0.65586 0.80934 0.67088 0.0
H666 H 0.64586 0.79104 0.62877 0.0
H667 H 0.70346 0.8584 0.6524 0.0
C668 C 0.69852 0.89855 0.5864 0.0
O669 O 0.70104 0.89811 0.55803 0.0
N670 N 0.70092 0.8394 0.55095 0.0
C671 C 0.6844 0.84558 0.52732 0.0
C672 C 0.7025 0.85292 0.50459 0.0
C673 C 0.72891 0.84263 0.54186 0.0
N674 N 0.73034 0.85103 0.51385 0.0
C675 C 0.63517 0.81213 0.56509 0.0
C676 C 0.60078 0.85996 0.57768 0.0
C677 C 0.58841 0.83685 0.56185 0.0
C678 C 0.60603 0.81256 0.55593 0.0
C679 C 0.6301 0.85867 0.58648 0.0
N680 N 0.64715 0.83526 0.57951 0.0
H681 H 0.64839 0.79339 0.55988 0.0
H682 H 0.63882 0.87657 0.59895 0.0
H683 H 0.66088 0.84694 0.52674 0.0
H684 H 0.74786 0.84109 0.55586 0.0
O685 O 0.69476 0.79141 0.58651 0.0
O686 O 0.72756 0.82339 0.60204 0.0
O687 O 0.69097 0.87579 0.60041 0.0
C688 C 0.72105 0.7965 0.59619 0.0
H689 H 0.67866 0.83833 0.7003 0.0
H690 H 0.69574 0.86036 0.48329 0.0
H691 H 0.58808 0.87915 0.5829 0.0
H692 H 0.59737 0.79388 0.5444 0.0
Co693 Co 0.67965 0.84402 0.09272 0.0
C694 C 0.70514 0.87584 0.14317 0.0
C695 C 0.67051 0.84704 0.15557 0.0
C696 C 0.68324 0.85794 0.18035 0.0
N697 N 0.68371 0.85874 0.13213 0.0
N698 N 0.70517 0.87591 0.17257 0.0
H699 H 0.72159 0.88647 0.13024 0.0
H700 H 0.65417 0.83004 0.15479 0.0
C701 C 0.61734 0.85311 0.11288 0.0
O702 O 0.62431 0.87844 0.12426 0.0
N703 N 0.67583 0.82828 0.05403 0.0
C704 C 0.68897 0.8378 0.02967 0.0
C705 C 0.68068 0.82007 1.00693 0.0
C706 C 0.6601 0.80472 0.046 0.0
N707 N 0.66256 0.79928 0.01724 0.0
C708 C 0.70136 0.89956 0.07425 0.0
C709 C 0.65047 0.92019 0.04927 0.0
C710 C 0.67611 0.93668 0.04664 0.0
C711 C 0.70171 0.92608 0.05944 0.0
C712 C 0.65117 0.89332 0.06385 0.0
N713 N 0.67633 0.88346 0.07668 0.0
H714 H 0.72183 0.89132 0.08236 0.0
H715 H 0.63178 0.87999 0.0634 0.0
H716 H 0.70375 0.85614 0.02852 0.0
H717 H 0.64703 0.79196 0.06088 0.0
O718 O 0.72183 0.83908 0.09093 0.0
O719 O 0.69045 0.80598 0.10674 0.0
O720 O 0.63612 0.83891 0.09801 0.0
C721 C 0.71743 0.81334 0.10189 0.0
H722 H 0.67822 0.85132 0.20236 0.0
H723 H 0.68792 0.82198 0.98463 0.0
H724 H 0.63043 0.92731 0.03892 0.0
H725 H 0.7221 0.93791 0.05737 0.0
Co726 Co 0.33554 0.82642 0.44371 0.0
C727 C 0.35751 0.79769 0.38941 0.0
C728 C 0.37214 0.84186 0.39371 0.0
C729 C 0.38441 0.8302 0.3691 0.0
N730 N 0.35493 0.82168 0.40637 0.0
N731 N 0.37528 0.80244 0.36642 0.0
H732 H 0.34713 0.77704 0.39393 0.0
H733 H 0.37667 0.86328 0.40234 0.0
C734 C 0.32519 0.89238 0.44829 0.0
O735 O 0.31937 0.89238 0.4762 0.0
N736 N 0.31653 0.83058 0.48117 0.0
C737 C 0.32575 0.8182 0.50613 0.0
C738 C 0.30488 0.82237 0.52723 0.0
C739 C 0.28969 0.84141 0.48725 0.0
N740 N 0.28243 0.83709 0.51534 0.0
C741 C 0.39135 0.80358 0.45877 0.0
C742 C 0.41236 0.85162 0.48849 0.0
C743 C 0.43092 0.82761 0.48451 0.0
C744 C 0.41984 0.80323 0.46972 0.0
C745 C 0.38393 0.85112 0.47703 0.0
N746 N 0.37393 0.82744 0.46204 0.0
H747 H 0.38335 0.78476 0.44711 0.0
H748 H 0.37015 0.86983 0.48019 0.0
H749 H 0.34592 0.80622 0.50869 0.0
H750 H 0.27573 0.85202 0.47147 0.0
O751 O 0.32708 0.78485 0.4455 0.0
O752 O 0.29835 0.81851 0.42611 0.0
O753 O 0.33499 0.86962 0.43567 0.0
C754 C 0.30258 0.79129 0.43238 0.0
H755 H 0.39989 0.84098 0.35495 0.0
H756 H 0.30608 0.81527 0.54963 0.0
H757 H 0.41994 0.87095 0.49972 0.0
H758 H 0.4331 0.78397 0.46655 0.0
Co759 Co 0.68973 0.18569 0.42897 0.0
C760 C 0.65553 0.21342 0.38167 0.0
C761 C 0.68157 0.17767 0.36636 0.0
C762 C 0.66732 0.18979 0.34305 0.0
N763 N 0.67397 0.19225 0.39058 0.0
N764 N 0.651 0.21228 0.35262 0.0
H765 H 0.6461 0.22956 0.39602 0.0
H766 H 0.69734 0.16024 0.36543 0.0
C767 C 0.69304 0.11945 0.43213 0.0
O768 O 0.68209 0.11878 0.45852 0.0
N769 N 0.7067 0.17938 0.46733 0.0
C770 C 0.70456 0.19702 0.4908 0.0
C771 C 0.72405 0.18801 0.51173 0.0
C772 C 0.72839 0.16051 0.47417 0.0
N773 N 0.73877 0.16503 0.5012 0.0
C774 C 0.6384 0.19916 0.46215 0.0
C775 C 0.60426 0.15359 0.44235 0.0
C776 C 0.5926 0.1727 0.46311 0.0
C777 C 0.61001 0.1959 0.47274 0.0
C778 C 0.63299 0.15749 0.43254 0.0
N779 N 0.65012 0.1794 0.44334 0.0
H780 H 0.65054 0.21821 0.46844 0.0
H781 H 0.64112 0.1432 0.41578 0.0
H782 H 0.69138 0.21639 0.49225 0.0
H783 H 0.73765 0.14484 0.45925 0.0
O784 O 0.69321 0.22758 0.43434 0.0
O785 O 0.72729 0.19856 0.41594 0.0
O786 O 0.69553 0.14353 0.41855 0.0
C787 C 0.71935 0.22462 0.42349 0.0
H788 H 0.66993 0.18342 0.32054 0.0
H789 H 0.72763 0.1979 0.53281 0.0
H790 H 0.59133 0.13578 0.43377 0.0
H791 H 0.60146 0.21197 0.48773 0.0
H792 H 0.12292 0.49196 0.27717 0.0
H793 H 0.21326 0.47224 0.26023 0.0
H794 H 0.19907 0.43976 0.22039 0.0
H795 H 0.16087 0.41356 0.1935 0.0
H796 H 0.07028 0.42859 0.21415 0.0
H797 H 0.08433 0.46657 0.24897 0.0
C798 C 0.13934 0.48077 0.26439 0.0
C799 C 0.16903 0.4843 0.27148 0.0
C800 C 0.1309 0.46133 0.24221 0.0
C801 C 0.19029 0.46954 0.25516 0.0
C802 C 0.18217 0.45108 0.2324 0.0
C803 C 0.14421 0.42573 0.20507 0.0
C804 C 0.11459 0.41869 0.20099 0.0
C805 C 0.15254 0.44636 0.22609 0.0
C806 C 0.09321 0.43393 0.21676 0.0
C807 C 0.10126 0.45546 0.23679 0.0
H808 H 1.00408 0.40306 0.24689 0.0
H809 H 0.95993 0.32057 0.25581 0.0
H810 H 0.92497 0.34225 0.28933 0.0
H811 H 0.90479 0.38498 0.31299 0.0
H812 H 0.94629 0.46863 0.30294 0.0
H813 H 0.98508 0.4461 0.2738 0.0
C814 C 0.98701 0.38986 0.25654 0.0
C815 C 0.9843 0.36035 0.24859 0.0
C816 C 0.96662 0.40266 0.27559 0.0
C817 C 0.96207 0.34344 0.26113 0.0
C818 C 0.94218 0.35578 0.28041 0.0
C819 C 0.92234 0.39835 0.30455 0.0
C820 C 0.92236 0.4285 0.30973 0.0
C821 C 0.94387 0.38544 0.28725 0.0
C822 C 0.94572 0.44535 0.29924 0.0
C823 C 0.96777 0.4325 0.28238 0.0
H824 H 0.83598 0.55578 0.24722 0.0
H825 H 0.90916 0.50417 0.27566 0.0
H826 H 0.94267 0.53528 0.24824 0.0
H827 H 0.95143 0.58026 0.22027 0.0
H828 H 0.87753 0.63121 0.19139 0.0
H829 H 0.84418 0.59717 0.21448 0.0
C830 C 0.85924 0.55127 0.24713 0.0
C831 C 0.87015 0.528 0.26363 0.0
C832 C 0.8783 0.56921 0.23131 0.0
C833 C 0.90027 0.52196 0.26302 0.0
C834 C 0.91944 0.53984 0.24748 0.0
C835 C 0.92803 0.58364 0.21855 0.0
C836 C 0.91716 0.60859 0.20445 0.0
C837 C 0.90876 0.56397 0.23209 0.0
C838 C 0.88668 0.61243 0.20232 0.0
C839 C 0.86748 0.59299 0.21563 0.0
H840 H 0.08081 0.64241 0.34604 0.0
H841 H 0.10769 0.5726 0.28904 0.0
H842 H 0.07278 0.58858 0.25252 0.0
H843 H 0.03896 0.62583 0.23415 0.0
H844 H 1.01078 0.69512 0.29029 0.0
H845 H 0.0415 0.67593 0.32987 0.0
C846 C 0.0786 0.63031 0.32591 0.0
C847 C 0.09734 0.60659 0.32023 0.0
C848 C 0.05843 0.63976 0.30468 0.0
C849 C 0.09395 0.59114 0.29399 0.0
C850 C 0.07399 0.6003 0.27295 0.0
C851 C 0.03924 0.63628 0.2553 0.0
C852 C 0.02298 0.66182 0.2595 0.0
C853 C 0.05685 0.6251 0.27767 0.0
C854 C 0.02316 0.67534 0.28684 0.0
C855 C 0.04083 0.66445 0.30929 0.0
H856 H 0.18306 0.5526 0.76806 0.0
H857 H 0.11016 0.50745 0.72944 0.0
H858 H 0.07593 0.53785 0.75681 0.0
H859 H 0.06692 0.57974 0.78899 0.0
H860 H 0.14033 0.62409 0.82834 0.0
H861 H 0.17403 0.59128 0.80393 0.0
C862 C 0.15967 0.5495 0.76576 0.0
C863 C 0.14907 0.52818 0.7466 0.0
C864 C 0.1402 0.5668 0.7818 0.0
C865 C 0.11875 0.52381 0.74412 0.0
C866 C 0.09921 0.54119 0.75972 0.0
C867 C 0.09024 0.58189 0.7927 0.0
C868 C 0.10097 0.60462 0.81026 0.0
C869 C 0.10968 0.56305 0.77834 0.0
C870 C 0.13134 0.60698 0.8148 0.0
C871 C 0.15074 0.5883 0.80071 0.0
H872 H 0.03134 0.38941 0.77516 0.0
H873 H 0.05444 0.30024 0.75771 0.0
H874 H 0.08785 0.31588 0.71924 0.0
H875 H 0.11324 0.35512 0.69315 0.0
H876 H 0.09438 0.44454 0.71433 0.0
H877 H 0.05624 0.42888 0.7483 0.0
C878 C 0.0435 0.37351 0.76264 0.0
C879 C 0.04056 0.34375 0.76919 0.0
C880 C 0.06332 0.38278 0.74117 0.0
C881 C 0.05664 0.32326 0.75316 0.0
C882 C 0.07562 0.33219 0.73113 0.0
C883 C 0.10021 0.37113 0.70468 0.0
C884 C 0.10611 0.40091 0.70092 0.0
C885 C 0.07946 0.36191 0.72522 0.0
C886 C 0.08986 0.4215 0.71667 0.0
C887 C 0.06825 0.41254 0.73621 0.0
H888 H 0.89055 0.44055 0.8431 0.0
H889 H 0.95928 0.41049 0.78625 0.0
H890 H 0.94353 0.44447 0.74885 0.0
H891 H 0.90646 0.47824 0.72986 0.0
H892 H 0.83832 0.50951 0.78595 0.0
H893 H 0.85749 0.47977 0.82618 0.0
C894 C 0.90253 0.44195 0.82283 0.0
C895 C 0.92578 0.42258 0.81738 0.0
C896 C 0.89313 0.46145 0.8011 0.0
C897 C 0.94107 0.42479 0.79094 0.0
C898 C 0.93202 0.44417 0.76943 0.0
C899 C 0.89622 0.47874 0.7511 0.0
C900 C 0.87098 0.49553 0.75515 0.0
C901 C 0.90746 0.46179 0.77387 0.0
C902 C 0.85779 0.49654 0.78262 0.0
C903 C 0.8687 0.47951 0.80545 0.0
H904 H 0.01508 0.62585 0.76143 0.0
H905 H 0.96553 0.70504 0.7528 0.0
H906 H 0.93109 0.6807 0.72009 0.0
H907 H 0.91179 0.63566 0.6992 0.0
H908 H 0.95925 0.55523 0.71042 0.0
H909 H 0.99794 0.58124 0.73636 0.0
C910 C 0.99716 0.63784 0.7517 0.0
C911 C 0.99272 0.66714 0.75946 0.0
C912 C 0.97687 0.62337 0.73368 0.0
C913 C 0.96919 0.68244 0.74716 0.0
C914 C 0.9495 0.6685 0.72857 0.0
C915 C 0.93081 0.62381 0.70684 0.0
C916 C 0.93235 0.59341 0.70306 0.0
C917 C 0.95257 0.63874 0.72246 0.0
C918 C 0.9573 0.57857 0.71312 0.0
C919 C 0.97944 0.59343 0.72808 0.0
H920 H 0.24234 0.10822 0.40245 0.0
H921 H 0.16518 0.14062 0.44552 0.0
H922 H 0.19602 0.16459 0.48219 0.0
H923 H 0.24555 0.1789 0.49999 0.0
H924 H 0.32146 0.14983 0.45301 0.0
H925 H 0.29053 0.12188 0.41975 0.0
C926 C 0.23208 0.12011 0.42008 0.0
C927 C 0.20141 0.1224 0.42136 0.0
C928 C 0.24985 0.13468 0.44018 0.0
C929 C 0.18871 0.13841 0.44411 0.0
C930 C 0.20635 0.1522 0.46499 0.0
C931 C 0.25509 0.16622 0.48254 0.0
C932 C 0.28561 0.16633 0.47872 0.0
C933 C 0.237 0.15091 0.46294 0.0
C934 C 0.29799 0.15014 0.45601 0.0
C935 C 0.28034 0.13415 0.43714 0.0
H936 H 0.66313 0.33059 0.09997 0.0
H937 H 0.57414 0.30331 0.08547 0.0
H938 H 0.59033 0.26992 0.04711 0.0
H939 H 0.63062 0.24525 0.02081 0.0
H940 H 0.71965 0.26883 0.03994 0.0
H941 H 0.70292 0.30693 0.07327 0.0
C942 C 0.64724 0.31784 0.0879 0.0
C943 C 0.61747 0.31967 0.09515 0.0
C944 C 0.65687 0.29773 0.06699 0.0
C945 C 0.59716 0.30241 0.08 0.0
C946 C 0.60643 0.28322 0.05822 0.0
C947 C 0.64616 0.25908 0.03208 0.0
C948 C 0.67625 0.25446 0.02809 0.0
C949 C 0.63632 0.2802 0.052 0.0
C950 C 0.69641 0.27207 0.04296 0.0
C951 C 0.68684 0.29381 0.06191 0.0
H952 H 0.73743 0.90238 0.4878 0.0
H953 H 0.78037 0.82117 0.50602 0.0
H954 H 0.82221 0.83585 0.47586 0.0
H955 H 0.84379 0.87003 0.44031 0.0
H956 H 0.80057 0.95194 0.42366 0.0
H957 H 0.762 0.93915 0.45771 0.0
C958 C 0.75611 0.88809 0.4852 0.0
C959 C 0.75584 0.86059 0.49842 0.0
C960 C 0.78001 0.89688 0.46826 0.0
C961 C 0.78025 0.84235 0.49569 0.0
C962 C 0.80405 0.85075 0.4785 0.0
C963 C 0.82636 0.88541 0.4447 0.0
C964 C 0.82493 0.91173 0.42907 0.0
C965 C 0.80389 0.87776 0.46415 0.0
C966 C 0.80212 0.93138 0.4351 0.0
C967 C 0.77989 0.92404 0.45447 0.0
H968 H 0.34331 0.75804 0.04747 0.0
H969 H 0.42039 0.78859 1.00328 0.0
H970 H 0.45115 0.75803 0.03429 0.0
H971 H 0.45632 0.72496 0.07618 0.0
H972 H 0.37873 0.6943 0.11993 0.0
H973 H 0.34818 0.72212 0.08677 0.0
C974 C 0.36684 0.75798 0.0447 0.0
C975 C 0.37956 0.77574 0.02332 0.0
C976 C 0.38436 0.7402 0.06248 0.0
C977 C 0.41005 0.77504 0.01954 0.0
C978 C 0.42766 0.75762 0.03732 0.0
C979 C 0.43272 0.72391 0.07815 0.0
C980 C 0.42 0.70758 0.10073 0.0
C981 C 0.41509 0.74033 0.0591 0.0
C982 C 0.38929 0.70666 0.10289 0.0
C983 C 0.3717 0.72274 0.08399 0.0
H984 H 0.26622 0.89256 0.5228 0.0
H985 H 0.24323 0.80421 0.54342 0.0
H986 H 0.2048 0.82129 0.57641 0.0
H987 H 0.18232 0.86129 0.60392 0.0
H988 H 0.20962 0.94963 0.58784 0.0
H989 H 0.24137 0.93303 0.54835 0.0
C990 C 0.25218 0.87725 0.53404 0.0
C991 C 0.25709 0.84726 0.53066 0.0
C992 C 0.23111 0.88733 0.55394 0.0
C993 C 0.23947 0.82738 0.54572 0.0
C994 C 0.21768 0.83716 0.5646 0.0
C995 C 0.19458 0.87696 0.59119 0.0
C996 C 0.19343 0.90666 0.59855 0.0
C997 C 0.21386 0.86708 0.56953 0.0
C998 C 0.21004 0.92667 0.58242 0.0
C999 C 0.22831 0.91716 0.55996 0.0
H1000 H 0.36992 0.33782 0.9306 0.0
H1001 H 0.45621 0.30057 0.93535 0.0
H1002 H 0.43933 0.26554 0.97188 0.0
H1003 H 0.39846 0.24213 0.99836 0.0
H1004 H 0.31127 0.27573 0.9881 0.0
H1005 H 0.32974 0.31554 0.95786 0.0
C1006 C 0.38518 0.32255 0.94029 0.0
C1007 C 0.41435 0.32201 0.93079 0.0
C1008 C 0.37491 0.30148 0.95987 0.0
C1009 C 0.43374 0.30154 0.94272 0.0
C1010 C 0.42402 0.2814 0.96337 0.0
C1011 C 0.38375 0.25849 0.98973 0.0
C1012 C 0.35364 0.2562 0.99525 0.0
C1013 C 0.39445 0.28062 0.97148 0.0
C1014 C 0.3345 0.27713 0.98381 0.0
C1015 C 0.34507 0.29985 0.96665 0.0
H1016 H 0.81076 0.08473 0.58352 0.0
H1017 H 0.86599 0.16086 0.58604 0.0
H1018 H 0.83608 0.18399 0.54865 0.0
H1019 H 0.7901 0.18519 0.52034 0.0
H1020 H 0.73612 0.10867 0.51588 0.0
H1021 H 0.76955 0.08284 0.54882 0.0
C1022 C 0.81664 0.10608 0.5753 0.0
C1023 C 0.84036 0.12118 0.58771 0.0
C1024 C 0.79928 0.11929 0.55381 0.0
C1025 C 0.84793 0.14872 0.57677 0.0
C1026 C 0.83064 0.16211 0.55559 0.0
C1027 C 0.78618 0.16267 0.52624 0.0
C1028 C 0.7608 0.14874 0.51623 0.0
C1029 C 0.80567 0.14803 0.54477 0.0
C1030 C 0.75568 0.11957 0.52355 0.0
C1031 C 0.77467 0.10496 0.5424 0.0
H1032 H 0.64496 0.80188 0.96177 0.0
H1033 H 0.64963 0.74458 0.03564 0.0
H1034 H 0.6295 0.70463 1.00634 0.0
H1035 H 0.613 0.68538 0.95844 0.0
H1036 H 0.60892 0.74432 0.88534 0.0
H1037 H 0.62632 0.78389 0.91552 0.0
C1038 C 0.64168 0.78063 0.97144 0.0
C1039 C 0.64911 0.77614 1.0007 0.0
C1040 C 0.6302 0.7579 0.95451 0.0
C1041 C 0.64402 0.74863 0.01314 0.0
C1042 C 0.63264 0.72574 0.99634 0.0
C1043 C 0.61568 0.70693 0.94921 0.0
C1044 C 0.60982 0.71156 0.91947 0.0
C1045 C 0.62595 0.73001 0.96682 0.0
C1046 C 0.61338 0.73978 0.90801 0.0
C1047 C 0.62341 0.76261 0.92526 0.0
H1048 H 0.5063 0.24108 0.15877 0.0
H1049 H 0.45634 0.31562 0.13136 0.0
H1050 H 0.42098 0.28386 0.10714 0.0
H1051 H 0.40257 0.23537 0.09679 0.0
H1052 H 0.44916 0.15976 0.12763 0.0
H1053 H 0.48783 0.19133 0.14716 0.0
C1054 C 0.4878 0.25018 0.14718 0.0
C1055 C 0.48376 0.28057 0.1468 0.0
C1056 C 0.46704 0.23163 0.13401 0.0
C1057 C 0.45962 0.29229 0.13207 0.0
C1058 C 0.43951 0.27415 0.11819 0.0
C1059 C 0.42137 0.22558 0.10733 0.0
C1060 C 0.42298 0.19512 0.11057 0.0
C1061 C 0.44276 0.24382 0.11942 0.0
C1062 C 0.44739 0.18309 0.12473 0.0
C1063 C 0.46943 0.20116 0.13602 0.0
H1064 H 0.45535 0.84013 0.8723 0.0
H1065 H 0.40364 0.77725 0.91953 0.0
H1066 H 0.4353 0.73834 0.90347 0.0
H1067 H 0.47588 0.72098 0.87357 0.0
H1068 H 0.53008 0.7823 0.82821 0.0
H1069 H 0.4995 0.82282 0.84569 0.0
C1070 C 0.4513 0.81798 0.87936 0.0
C1071 C 0.42707 0.8119 0.89726 0.0
C1072 C 0.46988 0.79526 0.87005 0.0
C1073 C 0.42223 0.78295 0.90619 0.0
C1074 C 0.44022 0.76043 0.89677 0.0
C1075 C 0.48091 0.74329 0.8677 0.0
C1076 C 0.50471 0.74888 0.84945 0.0
C1077 C 0.46375 0.76622 0.87834 0.0
C1078 C 0.51164 0.77774 0.84221 0.0
C1079 C 0.49417 0.80078 0.85217 0.0
H1080 H 0.22456 0.06819 0.63401 0.0
H1081 H 0.28807 1.00176 0.65297 0.0
H1082 H 0.3264 0.03084 0.62954 0.0
H1083 H 0.34223 0.07706 0.6064 0.0
H1084 H 0.27713 0.14244 0.58712 0.0
H1085 H 0.23925 0.11189 0.60764 0.0
C1086 C 0.24681 0.06013 0.63296 0.0
C1087 C 0.25362 0.03315 0.64546 0.0
C1088 C 0.26851 0.07683 0.61938 0.0
C1089 C 0.28237 0.02254 0.64344 0.0
C1090 C 0.30427 0.0392 0.63016 0.0
C1091 C 0.31972 0.08443 0.60635 0.0
C1092 C 0.3128 0.11226 0.59552 0.0
C1093 C 0.29768 0.06664 0.61838 0.0
C1094 C 0.28337 0.12133 0.59555 0.0
C1095 C 0.26154 0.10388 0.60735 0.0
H1096 H 0.53199 0.28087 0.89691 0.0
H1097 H 0.53695 0.24962 0.80885 0.0
H1098 H 0.57235 0.21236 0.82344 0.0
H1099 H 0.60457 0.19114 0.86054 0.0
H1100 H 0.604 0.22586 0.9476 0.0
H1101 H 0.56415 0.25904 0.93449 0.0
C1102 C 0.54065 0.26557 0.88116 0.0
C1103 C 0.53197 0.26774 0.85192 0.0
C1104 C 0.56181 0.24493 0.88958 0.0
C1105 C 0.54352 0.24825 0.83143 0.0
C1106 C 0.56369 0.227 0.83979 0.0
C1107 C 0.59528 0.20557 0.87677 0.0
C1108 C 0.60688 0.20584 0.90508 0.0
C1109 C 0.57335 0.22543 0.8687 0.0
C1110 C 0.59524 0.22518 0.92571 0.0
C1111 C 0.57256 0.24421 0.91818 0.0
H1112 H 0.75908 0.98026 0.67818 0.0
H1113 H 0.7984 0.01501 0.60063 0.0
H1114 H 0.76763 0.98343 0.57049 0.0
H1115 H 0.73232 0.94322 0.56658 0.0
H1116 H 0.69177 0.90965 0.64433 0.0
H1117 H 0.7198 0.94375 0.67394 0.0
C1118 C 0.7608 0.98082 0.65468 0.0
C1119 C 0.78117 0.99949 0.64157 0.0
C1120 C 0.74276 0.96292 0.63756 0.0
C1121 C 0.78286 1.00067 0.61111 0.0
C1122 C 0.76531 0.98263 0.59392 0.0
C1123 C 0.72912 0.94375 0.58993 0.0
C1124 C 0.71039 0.92344 0.60322 0.0
C1125 C 0.74546 0.96336 0.60692 0.0
C1126 C 0.70648 0.9246 0.63354 0.0
C1127 C 0.72255 0.94408 0.65055 0.0
H1128 H 0.51618 0.79007 0.18164 0.0
H1129 H 0.53518 0.72366 0.11849 0.0
H1130 H 0.56787 0.75689 0.09253 0.0
H1131 H 0.59547 0.80243 0.09145 0.0
H1132 H 0.57869 0.86875 0.15579 0.0
H1133 H 0.54039 0.83847 0.17726 0.0
C1134 C 0.52701 0.78335 0.16179 0.0
C1135 C 0.52345 0.75465 0.15178 0.0
C1136 C 0.54634 0.80246 0.14741 0.0
C1137 C 0.53774 0.74577 0.12633 0.0
C1138 C 0.55645 0.76469 0.11164 0.0
C1139 C 0.58313 0.81055 0.10987 0.0
C1140 C 0.59027 0.83774 0.12215 0.0
C1141 C 0.56163 0.79276 0.1225 0.0
C1142 C 0.57377 0.84792 0.14587 0.0
C1143 C 0.55196 0.8305 0.15831 0.0
H1144 H 0.27232 0.97006 0.34885 0.0
H1145 H 0.23043 0.01126 0.4218 0.0
H1146 H 0.25858 0.98086 0.4555 0.0
H1147 H 0.29206 0.93956 0.46377 0.0
H1148 H 0.33467 0.89946 0.39018 0.0
H1149 H 0.30982 0.93271 0.35735 0.0
C1150 C 0.26951 0.97236 0.37214 0.0
C1151 C 0.24912 0.99246 0.3829 0.0
C1152 C 0.28599 0.95508 0.39128 0.0
C1153 C 0.24602 0.99582 0.41311 0.0
C1154 C 0.26205 0.97842 0.43232 0.0
C1155 C 0.29641 0.93848 0.44063 0.0
C1156 C 0.315 0.91669 0.42957 0.0
C1157 C 0.28177 0.9576 0.42164 0.0
C1158 C 0.32035 0.91576 0.39944 0.0
C1159 C 0.30599 0.93471 0.38052 0.0
H1160 H 0.77593 0.014 0.40162 0.0
H1161 H 0.77811 0.05991 0.31986 0.0
H1162 H 0.74148 0.09403 0.33753 0.0
H1163 H 0.71127 0.11253 0.37675 0.0
H1164 H 0.70996 0.06898 0.45974 0.0
H1165 H 0.74293 0.03148 0.44068 0.0
C1166 C 0.76812 0.03129 0.38761 0.0
C1167 C 0.78007 0.03461 0.35955 0.0
C1168 C 0.74706 0.05106 0.39803 0.0
C1169 C 0.76982 0.05722 0.34171 0.0
C1170 C 0.74867 0.07661 0.35172 0.0
C1171 C 0.71792 0.09477 0.39071 0.0
C1172 C 0.70831 0.0938 0.41973 0.0
C1173 C 0.73753 0.07401 0.37995 0.0
C1174 C 0.7169 0.07026 0.43728 0.0
C1175 C 0.736 0.04897 0.42646 0.0
H1176 H 0.9661 0.32431 0.98254 0.0
H1177 H 0.03753 0.3721 0.94393 0.0
H1178 H 0.06155 0.3753 0.99113 0.0
H1179 H 0.06346 0.36283 0.04348 0.0
H1180 H 0.99431 0.31128 0.08064 0.0
H1181 H 0.96857 0.31076 0.03393 0.0
C1182 C 0.98709 0.33516 0.98421 0.0
C1183 C 0.99976 0.34796 0.95938 0.0
C1184 C 1.00136 0.33612 0.0113 0.0
C1185 C 0.02675 0.36248 0.96251 0.0
C1186 C 0.04075 0.3641 0.98955 0.0
C1187 C 0.04271 0.35161 0.04121 0.0
C1188 C 0.03069 0.33712 0.0653 0.0
C1189 C 0.02838 0.35084 0.01408 0.0
C1190 C 1.00393 0.32245 0.06225 0.0
C1191 C 0.98924 0.3222 0.0356 0.0
H1192 H 0.80877 0.47358 0.46958 0.0
H1193 H 0.89735 0.49605 0.44708 0.0
H1194 H 0.90483 0.51717 0.49549 0.0
H1195 H 0.88505 0.53164 0.54351 0.0
H1196 H 0.7967 0.50724 0.56572 0.0
H1197 H 0.79028 0.48482 0.51823 0.0
C1198 C 0.8297 0.48314 0.47528 0.0
C1199 C 0.85236 0.48353 0.45468 0.0
C1200 C 0.83385 0.4951 0.50311 0.0
C1201 C 0.87957 0.49545 0.46258 0.0
C1202 C 0.88381 0.50763 0.49022 0.0
C1203 C 0.86455 0.52109 0.5381 0.0
C1204 C 0.84123 0.52174 0.55811 0.0
C1205 C 0.86098 0.50787 0.51061 0.0
C1206 C 0.8148 0.50787 0.55058 0.0
C1207 C 0.81111 0.49484 0.52343 0.0
H1208 H 0.05828 0.70999 0.97794 0.0
H1209 H 0.99022 0.6555 0.94198 0.0
H1210 H 0.96809 0.65081 0.98986 0.0
H1211 H 0.96686 0.66354 0.04199 0.0
H1212 H 0.03257 0.72103 0.07696 0.0
H1213 H 0.05656 0.72347 0.0295 0.0
C1214 C 0.03842 0.69735 0.9804 0.0
C1215 C 0.02614 0.68306 0.95617 0.0
C1216 C 0.02531 0.69526 1.00795 0.0
C1217 C 1.00062 0.66635 0.96016 0.0
C1218 C 0.98775 0.66379 0.98758 0.0
C1219 C 0.98659 0.67633 0.03916 0.0
C1220 C 0.99809 0.69196 0.06282 0.0
C1221 C 0.99984 0.6782 0.01163 0.0
C1222 C 0.0234 0.70883 0.05894 0.0
C1223 C 0.03707 0.71025 0.03185 0.0
H1224 H 0.1494 0.4667 0.54918 0.0
H1225 H 0.21615 0.52447 0.58178 0.0
H1226 H 0.21705 0.55033 0.5354 0.0
H1227 H 0.20006 0.55573 0.48523 0.0
H1228 H 0.13611 0.49556 0.45088 0.0
H1229 H 0.13242 0.47212 0.49825 0.0
C1230 C 0.16392 0.48511 0.54611 0.0
C1231 C 0.18272 0.49364 0.56884 0.0
C1232 C 0.16479 0.49955 0.51904 0.0
C1233 C 0.20162 0.51738 0.56453 0.0
C1234 C 0.20212 0.5322 0.53803 0.0
C1235 C 0.18548 0.53731 0.48786 0.0
C1236 C 0.16847 0.5276 0.46414 0.0
C1237 C 0.18408 0.52326 0.515 0.0
C1238 C 0.14922 0.50404 0.46858 0.0
C1239 C 0.14725 0.49035 0.49572 0.0
H1240 H 0.9632 1.01053 0.37096 0.0
H1241 H 0.98371 0.94484 0.30686 0.0
H1242 H 0.03299 0.96425 0.30238 0.0
H1243 H 0.07071 1.00001 0.31638 0.0
H1244 H 0.0516 0.06326 0.38293 0.0
H1245 H 1.00175 0.04428 0.38714 0.0
C1246 C 0.97847 1.00005 0.35632 0.0
C1247 C 0.96921 0.97632 0.33904 0.0
C1248 C 1.00724 1.01092 0.35427 0.0
C1249 C 0.98961 0.96353 0.31996 0.0
C1250 C 0.01803 0.97449 0.3175 0.0
C1251 C 0.05556 1.00965 0.33173 0.0
C1252 C 0.06477 0.03313 0.34918 0.0
C1253 C 0.02706 0.99829 0.33438 0.0
C1254 C 0.04506 0.04512 0.36931 0.0
C1255 C 0.01653 0.03431 0.37167 0.0
H1256 H 0.56432 0.48002 0.19999 0.0
H1257 H 0.50234 0.44416 0.13867 0.0
H1258 H 0.47749 0.49086 0.13586 0.0
H1259 H 0.47179 0.54176 0.15215 0.0
H1260 H 0.53149 0.5765 0.21597 0.0
H1261 H 0.5582 0.53042 0.21686 0.0
C1262 C 0.54524 0.48221 0.18617 0.0
C1263 C 0.5356 0.45829 0.16942 0.0
C1264 C 0.53037 0.50907 0.18521 0.0
C1265 C 0.51095 0.46208 0.15136 0.0
C1266 C 0.49642 0.48884 0.14991 0.0
C1267 C 0.49079 0.53926 0.16606 0.0
C1268 C 0.49961 0.56254 0.18397 0.0
C1269 C 0.50581 0.51247 0.16683 0.0
C1270 C 0.52409 0.55885 0.20215 0.0
C1271 C 0.53943 0.53252 0.20261 0.0
H1272 H 0.06722 0.0187 0.64976 0.0
H1273 H 0.05012 0.96635 0.7259 0.0
H1274 H 1.00146 0.98725 0.72967 0.0
H1275 H 0.96295 0.02004 0.71119 0.0
H1276 H 0.97815 0.06869 0.63267 0.0
H1277 H 0.02792 0.04921 0.62972 0.0
C1278 C 0.05284 0.0114 0.66697 0.0
C1279 C 0.06294 0.99105 0.68768 0.0
C1280 C 0.02431 0.0229 0.66861 0.0
C1281 C 0.04366 0.98247 0.71 0.0
C1282 C 0.01555 0.99425 0.71209 0.0
C1283 C 0.97729 0.02641 0.69354 0.0
C1284 C 0.96706 0.04593 0.6723 0.0
C1285 C 1.00563 0.01455 0.6916 0.0
C1286 C 0.98561 0.05371 0.64927 0.0
C1287 C 0.01405 0.04258 0.6476 0.0
H1288 H 0.56939 0.53111 0.85879 0.0
H1289 H 0.49008 0.5812 0.85118 0.0
H1290 H 0.46121 0.53634 0.84993 0.0
H1291 H 0.45862 0.48247 0.84929 0.0
H1292 H 0.53797 0.43274 0.85857 0.0
H1293 H 0.56663 0.47763 0.86068 0.0
C1294 C 0.54577 0.53219 0.85696 0.0
C1295 C 0.53195 0.5595 0.85503 0.0
C1296 C 0.5293 0.50628 0.85636 0.0
C1297 C 0.50128 0.56051 0.853 0.0
C1298 C 0.48476 0.53483 0.85206 0.0
C1299 C 0.48218 0.48156 0.85177 0.0
C1300 C 0.49615 0.45432 0.85369 0.0
C1301 C 0.49854 0.50756 0.85343 0.0
C1302 C 0.52668 0.45342 0.85722 0.0
C1303 C 0.54309 0.47909 0.85835 0.0
H1304 H 0.37547 0.0456 0.04317 0.0
H1305 H 0.297 0.07234 0.99854 0.0
H1306 H 0.29567 0.02612 0.97228 0.0
H1307 H 0.31646 0.97804 0.9621 0.0
H1308 H 0.39322 0.94969 1.00897 0.0
H1309 H 0.39596 0.99673 0.0334 0.0
C1310 C 0.35819 0.04133 0.02757 0.0
C1311 C 0.3363 0.06242 0.02295 0.0
C1312 C 0.35734 0.01443 0.01272 0.0
C1313 C 0.31391 0.05641 1.00281 0.0
C1314 C 0.31321 0.03 0.98766 0.0
C1315 C 0.33366 0.98185 0.97788 0.0
C1316 C 0.35458 0.95995 0.98346 0.0
C1317 C 0.33469 1.00876 0.99257 0.0
C1318 C 0.37703 0.966 1.00362 0.0
C1319 C 0.37849 0.99293 0.01791 0.0
H1320 H 0.45688 0.16703 0.48918 0.0
H1321 H 0.48866 0.1813 0.57644 0.0
H1322 H 0.53894 0.17939 0.55913 0.0
H1323 H 0.57397 0.17643 0.51896 0.0
H1324 H 0.54285 0.16175 0.43165 0.0
H1325 H 0.49239 0.1604 0.44927 0.0
C1326 C 0.4748 0.1692 0.50448 0.0
C1327 C 0.46889 0.17469 0.53405 0.0
C1328 C 0.50384 0.16809 0.49435 0.0
C1329 C 0.49249 0.17765 0.5535 0.0
C1330 C 0.5213 0.17646 0.54364 0.0
C1331 C 0.55613 0.17288 0.5038 0.0
C1332 C 0.56215 0.16944 0.47402 0.0
C1333 C 0.52723 0.17226 0.51406 0.0
C1334 C 0.53884 0.16433 0.45471 0.0
C1335 C 0.50996 0.16372 0.46476 0.0
H1336 H 0.69963 0.04155 0.961 0.0
H1337 H 0.643 0.08544 0.02204 0.0
H1338 H 0.63589 0.04011 0.04834 0.0
H1339 H 0.64749 0.98799 0.05583 0.0
H1340 H 0.70765 0.94557 0.99767 0.0
H1341 H 0.712 0.9902 0.96895 0.0
C1342 C 0.68594 0.04146 0.98021 0.0
C1343 C 0.67181 0.06728 0.98913 0.0
C1344 C 0.68264 0.01538 0.996 0.0
C1345 C 0.65374 0.06609 0.01393 0.0
C1346 C 0.64984 0.0401 0.02932 0.0
C1347 C 0.66132 0.98858 0.03671 0.0
C1348 C 0.67713 0.96357 0.02874 0.0
C1349 C 0.66432 0.01462 0.02071 0.0
C1350 C 0.69529 0.96461 1.00416 0.0
C1351 C 0.69779 0.99012 0.98777 0.0
H1352 H 0.45242 0.84843 0.53623 0.0
H1353 H 0.47925 0.8079 0.45591 0.0
H1354 H 0.52984 0.80726 0.47261 0.0
H1355 H 0.56666 0.81818 0.5098 0.0
H1356 H 0.54029 0.85819 0.59051 0.0
H1357 H 0.48964 0.85968 0.57359 0.0
C1358 C 0.46937 0.83967 0.52229 0.0
C1359 C 0.46187 0.82804 0.4949 0.0
C1360 C 0.49861 0.83938 0.53204 0.0
C1361 C 0.48419 0.81654 0.47728 0.0
C1362 C 0.51322 0.81631 0.48674 0.0
C1363 C 0.54984 0.82698 0.52387 0.0
C1364 C 0.55744 0.83797 0.55147 0.0
C1365 C 0.52068 0.82753 0.51412 0.0
C1366 C 0.53527 0.84985 0.56905 0.0
C1367 C 0.50621 0.85055 0.55945 0.0
H1368 H 0.09855 0.23652 0.21048 0.0
H1369 H 0.09537 0.29937 0.28025 0.0
H1370 H 0.1136 0.26314 0.31429 0.0
H1371 H 0.1346 0.21518 0.32353 0.0
H1372 H 0.13948 0.15205 0.25445 0.0
H1373 H 0.11602 0.18645 0.221 0.0
C1374 C 0.10137 0.24205 0.23324 0.0
C1375 C 0.09584 0.27066 0.24277 0.0
C1376 C 0.11236 0.22112 0.25279 0.0
C1377 C 0.0997 0.27759 0.27229 0.0
C1378 C 0.11017 0.2569 0.29181 0.0
C1379 C 0.13035 0.20894 0.30118 0.0
C1380 C 0.13901 0.18131 0.29137 0.0
C1381 C 0.11728 0.22888 0.28215 0.0
C1382 C 0.13289 0.17319 0.26253 0.0
C1383 C 0.11967 0.19293 0.24337 0.0
H1384 H 0.78597 0.4131 0.24564 0.0
H1385 H 0.73171 0.43063 0.32018 0.0
H1386 H 0.689 0.41151 0.29416 0.0
H1387 H 0.66809 0.3857 0.25143 0.0
H1388 H 0.7234 0.36812 0.17768 0.0
H1389 H 0.76458 0.39137 0.20208 0.0
C1390 C 0.76475 0.41305 0.25613 0.0
C1391 C 0.76208 0.4231 0.28486 0.0
C1392 C 0.74046 0.40177 0.24119 0.0
C1393 C 0.73436 0.42305 0.29804 0.0
C1394 C 0.70995 0.41198 0.28321 0.0
C1395 C 0.68902 0.38748 0.24057 0.0
C1396 C 0.69277 0.37486 0.2129 0.0
C1397 C 0.71285 0.40073 0.25495 0.0
C1398 C 0.7201 0.37717 0.19916 0.0
C1399 C 0.74365 0.39054 0.21307 0.0
H1400 H 0.89196 0.85316 0.2747 0.0
H1401 H 0.86989 0.79309 0.34336 0.0
H1402 H 0.89041 0.75298 0.31541 0.0
H1403 H 0.91165 0.73436 0.27024 0.0
H1404 H 0.93475 0.79414 0.20178 0.0
H1405 H 0.91739 0.83504 0.23116 0.0
C1406 C 0.8921 0.83144 0.28383 0.0
C1407 C 0.87892 0.82618 0.31099 0.0
C1408 C 0.90407 0.80836 0.26763 0.0
C1409 C 0.87922 0.79772 0.32227 0.0
C1410 C 0.8911 0.77474 0.30635 0.0
C1411 C 0.91314 0.75638 0.26186 0.0
C1412 C 0.92425 0.76121 0.23382 0.0
C1413 C 0.90304 0.77971 0.27879 0.0
C1414 C 0.9263 0.78986 0.22334 0.0
C1415 C 0.91625 0.81324 0.24007 0.0
H1416 H 0.31626 0.60449 0.21087 0.0
H1417 H 0.35786 0.65876 0.27567 0.0
H1418 H 0.32164 0.64354 0.31137 0.0
H1419 H 0.27571 0.61722 0.32344 0.0
H1420 H 0.23225 0.56765 0.25651 0.0
H1421 H 0.27148 0.57886 0.22236 0.0
C1422 C 0.31754 0.61339 0.2326 0.0
C1423 C 0.33995 0.63311 0.2401 0.0
C1424 C 0.29611 0.60531 0.2528 0.0
C1425 C 0.34117 0.6435 0.26894 0.0
C1426 C 0.32027 0.63489 0.28948 0.0
C1427 C 0.27524 0.6086 0.30148 0.0
C1428 C 0.25142 0.59147 0.2924 0.0
C1429 C 0.29739 0.61609 0.28157 0.0
C1430 C 0.2505 0.58083 0.26384 0.0
C1431 C 0.27286 0.58727 0.24434 0.0
H1432 H 0.09998 0.78948 0.81293 0.0
H1433 H 0.1008 0.7248 0.74481 0.0
H1434 H 0.1197 0.76043 0.71057 0.0
H1435 H 0.13975 0.80859 0.70074 0.0
H1436 H 0.14091 0.87366 0.7682 0.0
H1437 H 0.11715 0.83963 0.80173 0.0
C1438 C 0.10383 0.78344 0.79046 0.0
C1439 C 0.09922 0.75452 0.78146 0.0
C1440 C 0.11528 0.80405 0.77081 0.0
C1441 C 0.10446 0.74687 0.75234 0.0
C1442 C 0.11529 0.76721 0.73271 0.0
C1443 C 0.13473 0.81532 0.72277 0.0
C1444 C 0.14236 0.84343 0.73206 0.0
C1445 C 0.12147 0.79561 0.74188 0.0
C1446 C 0.13516 0.85214 0.76048 0.0
C1447 C 0.12173 0.83262 0.77971 0.0
H1448 H 0.35149 0.38669 0.77646 0.0
H1449 H 0.29493 0.37605 0.85074 0.0
H1450 H 0.254 0.39564 0.82314 0.0
H1451 H 0.2334 0.41331 0.77716 0.0
H1452 H 0.28989 0.42548 0.70319 0.0
H1453 H 0.33172 0.40836 0.73159 0.0
C1454 C 0.33041 0.38909 0.78685 0.0
C1455 C 0.32638 0.37938 0.81565 0.0
C1456 C 0.30682 0.40063 0.77085 0.0
C1457 C 0.29864 0.38262 0.82847 0.0
C1458 C 0.27517 0.394 0.81274 0.0
C1459 C 0.25491 0.41247 0.76733 0.0
C1460 C 0.25846 0.4205 0.73806 0.0
C1461 C 0.27887 0.4026 0.78377 0.0
C1462 C 0.28654 0.41946 0.7257 0.0
C1463 C 0.31047 0.40956 0.7419 0.0
H1464 H 0.89141 0.29338 0.76748 0.0
H1465 H 0.94803 0.2353 0.81476 0.0
H1466 H 0.93186 0.19441 0.78413 0.0
H1467 H 0.90259 0.176 0.74245 0.0
H1468 H 0.84371 0.23525 0.6987 0.0
H1469 H 0.86011 0.27473 0.72918 0.0
C1470 C 0.90028 0.27177 0.77107 0.0
C1471 C 0.92112 0.26733 0.79297 0.0
C1472 C 0.89061 0.24858 0.75383 0.0
C1473 C 0.93198 0.23917 0.79786 0.0
C1474 C 0.92279 0.21587 0.78034 0.0
C1475 C 0.89314 0.19743 0.73973 0.0
C1476 C 0.87238 0.20242 0.71756 0.0
C1477 C 0.90221 0.22038 0.75804 0.0
C1478 C 0.86039 0.23053 0.71465 0.0
C1479 C 0.86955 0.25332 0.73236 0.0
H1480 H 0.67994 0.62177 0.76626 0.0
H1481 H 0.73621 0.6444 0.83802 0.0
H1482 H 0.77911 0.62977 0.80995 0.0
H1483 H 0.80071 0.61068 0.76481 0.0
H1484 H 0.74424 0.58661 0.69352 0.0
H1485 H 0.70146 0.60157 0.72147 0.0
C1486 C 0.70163 0.62369 0.7756 0.0
C1487 C 0.70492 0.63425 0.80412 0.0
C1488 C 0.72617 0.61483 0.75945 0.0
C1489 C 0.73312 0.63615 0.81618 0.0
C1490 C 0.75765 0.62786 0.80011 0.0
C1491 C 0.77903 0.60862 0.75545 0.0
C1492 C 0.7757 0.59753 0.72713 0.0
C1493 C 0.75445 0.61711 0.77174 0.0
C1494 C 0.74744 0.59492 0.71533 0.0
C1495 C 0.72294 0.60359 0.73126 0.0
H1496 H 0.21139 0.09775 0.24119 0.0
H1497 H 0.28111 0.09551 0.30445 0.0
H1498 H 0.31608 0.11081 0.26769 0.0
H1499 H 0.32645 0.12838 0.21871 0.0
H1500 H 0.25707 0.13314 0.15539 0.0
H1501 H 0.22268 0.11288 0.19063 0.0
C1502 C 0.23432 0.10018 0.24672 0.0
C1503 C 0.2436 0.09565 0.27555 0.0
C1504 C 0.25441 0.1096 0.22547 0.0
C1505 C 0.27334 0.09907 0.28248 0.0
C1506 C 0.2934 0.10785 0.26148 0.0
C1507 C 0.30382 0.12495 0.21259 0.0
C1508 C 0.29441 0.13252 0.18451 0.0
C1509 C 0.28409 0.11383 0.2331 0.0
C1510 C 0.26507 0.12735 0.17676 0.0
C1511 C 0.24529 0.11594 0.19701 0.0
H1512 H 0.62262 0.19917 0.30346 0.0
H1513 H 0.64346 0.27038 0.36086 0.0
H1514 H 0.62236 0.30494 0.32607 0.0
H1515 H 0.603 0.31508 0.27658 0.0
H1516 H 0.58489 0.24302 0.21902 0.0
H1517 H 0.59981 0.20868 0.25648 0.0
C1518 C 0.62238 0.22224 0.30842 0.0
C1519 C 0.63491 0.23223 0.33447 0.0
C1520 C 0.61084 0.24187 0.28812 0.0
C1521 C 0.63387 0.26213 0.34096 0.0
C1522 C 0.622 0.2819 0.32096 0.0
C1523 C 0.60181 0.29185 0.27254 0.0
C1524 C 0.59307 0.28159 0.24501 0.0
C1525 C 0.61112 0.27208 0.29409 0.0
C1526 C 0.59179 0.25145 0.23994 0.0
C1527 C 0.60035 0.23178 0.26134 0.0
H1528 H 0.81359 0.91781 0.24592 0.0
H1529 H 0.74688 0.92202 0.31207 0.0
H1530 H 0.70976 0.90858 0.27659 0.0
H1531 H 0.69634 0.89314 0.22755 0.0
H1532 H 0.76253 0.88686 0.16125 0.0
H1533 H 0.79948 0.90412 0.19567 0.0
C1534 C 0.79089 0.91604 0.25243 0.0
C1535 C 0.78308 0.92074 0.28165 0.0
C1536 C 0.76949 0.90793 0.23187 0.0
C1537 C 0.75357 0.91832 0.28979 0.0
C1538 C 0.73226 0.91064 0.26951 0.0
C1539 C 0.71885 0.89554 0.22063 0.0
C1540 C 0.72659 0.88855 0.19191 0.0
C1541 C 0.74002 0.90494 0.24063 0.0
C1542 C 0.75581 0.89233 0.18312 0.0
C1543 C 0.77704 0.90199 0.20289 0.0
H1544 H 0.41678 0.7009 0.28406 0.0
H1545 H 0.4212 0.77253 0.22366 0.0
H1546 H 0.40512 0.80615 0.26148 0.0
H1547 H 0.38862 0.81512 0.31115 0.0
H1548 H 0.38214 0.74394 0.37174 0.0
H1549 H 0.39952 0.71008 0.33436 0.0
C1550 C 0.41452 0.72393 0.27939 0.0
C1551 C 0.42039 0.73433 0.25123 0.0
C1552 C 0.40449 0.7431 0.30112 0.0
C1553 C 0.41685 0.76408 0.24521 0.0
C1554 C 0.4076 0.78329 0.26678 0.0
C1555 C 0.39122 0.79224 0.31625 0.0
C1556 C 0.38425 0.78212 0.34422 0.0
C1557 C 0.40115 0.77303 0.29472 0.0
C1558 C 0.38712 0.75226 0.35031 0.0
C1559 C 0.39728 0.73294 0.329 0.0
H1560 H 0.33033 0.88725 0.79465 0.0
H1561 H 0.26591 0.89231 0.86268 0.0
H1562 H 0.23154 0.91569 0.82921 0.0
H1563 H 0.21828 0.93043 0.77907 0.0
H1564 H 0.28294 0.92348 0.71118 0.0
H1565 H 0.31859 0.90517 0.74598 0.0
C1566 C 0.30881 0.89361 0.80216 0.0
C1567 C 0.30064 0.8878 0.83101 0.0
C1568 C 0.28909 0.90657 0.78271 0.0
C1569 C 0.27286 0.89667 0.84063 0.0
C1570 C 0.2531 0.90985 0.82142 0.0
C1571 C 0.24032 0.92536 0.77205 0.0
C1572 C 0.24785 0.92813 0.74252 0.0
C1573 C 0.26075 0.91434 0.7922 0.0
C1574 C 0.27647 0.92135 0.73372 0.0
C1575 C 0.29691 0.91083 0.75361 0.0
H1576 H 0.41281 0.32057 0.74488 0.0
H1577 H 0.40657 0.24908 0.80547 0.0
H1578 H 0.39006 0.21697 0.76681 0.0
H1579 H 0.37741 0.20872 0.71608 0.0
H1580 H 0.3837 0.27905 0.65441 0.0
H1581 H 0.39949 0.31207 0.69317 0.0
C1582 C 0.40791 0.29795 0.74953 0.0
C1583 C 0.41105 0.28729 0.77805 0.0
C1584 C 0.39819 0.27938 0.72705 0.0
C1585 C 0.40439 0.25795 0.78376 0.0
C1586 C 0.3949 0.23948 0.76165 0.0
C1587 C 0.38245 0.2312 0.711 0.0
C1588 C 0.37953 0.24123 0.6823 0.0
C1589 C 0.39176 0.24991 0.73326 0.0
C1590 C 0.3855 0.2707 0.67632 0.0
C1591 C 0.39476 0.28958 0.69847 0.0
H1592 H 0.81704 0.10721 0.77224 0.0
H1593 H 0.75011 0.11749 0.70679 0.0
H1594 H 0.71556 0.13357 0.74367 0.0
H1595 H 0.70483 0.14714 0.79393 0.0
H1596 H 0.77161 0.13876 0.85963 0.0
H1597 H 0.80539 0.11899 0.82351 0.0
C1598 C 0.79482 0.11271 0.76614 0.0
C1599 C 0.78627 0.11127 0.73673 0.0
C1600 C 0.77497 0.12229 0.78753 0.0
C1601 C 0.75738 0.11853 0.72919 0.0
C1602 C 0.73755 0.12775 0.75029 0.0
C1603 C 0.72678 0.14101 0.80038 0.0
C1604 C 0.73563 0.14465 0.82945 0.0
C1605 C 0.74621 0.13014 0.77941 0.0
C1606 C 0.76402 0.136 0.83751 0.0
C1607 C 0.78347 0.12489 0.81677 0.0
H1608 H 0.59942 0.75409 0.78023 0.0
H1609 H 0.62159 0.67466 0.73558 0.0
H1610 H 0.63644 0.70283 0.69256 0.0
H1611 H 0.64845 0.75094 0.67035 0.0
H1612 H 0.62652 0.82941 0.71686 0.0
H1613 H 0.60584 0.80082 0.75644 0.0
C1614 C 0.60721 0.74291 0.76093 0.0
C1615 C 0.60989 0.71251 0.76104 0.0
C1616 C 0.6158 0.75916 0.73674 0.0
C1617 C 0.61944 0.69814 0.73586 0.0
C1618 C 0.62805 0.71425 0.7114 0.0
C1619 C 0.63847 0.76159 0.68888 0.0
C1620 C 0.63923 0.79217 0.69101 0.0
C1621 C 0.62707 0.74488 0.71191 0.0
C1622 C 0.62645 0.80589 0.7151 0.0
C1623 C 0.61469 0.78959 0.73769 0.0
H1624 H 0.238 0.20558 0.1047 0.0
H1625 H 0.30552 0.27073 0.11374 0.0
H1626 H 0.27023 0.30516 0.133 0.0
H1627 H 0.22086 0.31647 0.14938 0.0
H1628 H 0.15282 0.25198 0.14181 0.0
H1629 H 0.18732 0.21794 0.11952 0.0
C1630 C 0.24485 0.22739 0.11065 0.0
C1631 C 0.27441 0.23544 0.10794 0.0
C1632 C 0.22434 0.24728 0.12203 0.0
C1633 C 0.28297 0.2638 0.11578 0.0
C1634 C 0.2628 0.28361 0.12682 0.0
C1635 C 0.21359 0.29495 0.1429 0.0
C1636 C 0.18438 0.28678 0.14743 0.0
C1637 C 0.23356 0.27547 0.13043 0.0
C1638 C 0.17514 0.25897 0.13837 0.0
C1639 C 0.19493 0.2394 0.12579 0.0
H1640 H 0.24684 0.82029 0.90751 0.0
H1641 H 0.30548 0.74715 0.9155 0.0
H1642 H 0.26653 0.71397 0.90105 0.0
H1643 H 0.21638 0.70559 0.88519 0.0
H1644 H 0.1571 0.77789 0.87591 0.0
H1645 H 0.19578 0.81159 0.89116 0.0
C1646 C 0.25091 0.79706 0.90634 0.0
C1647 C 0.27894 0.78616 0.91272 0.0
C1648 C 0.22842 0.778 0.89743 0.0
C1649 C 0.28409 0.75608 0.91069 0.0
C1650 C 0.26185 0.73707 0.90239 0.0
C1651 C 0.21179 0.72868 0.88675 0.0
C1652 C 0.18382 0.73913 0.87961 0.0
C1653 C 0.23402 0.74778 0.89555 0.0
C1654 C 0.17849 0.76926 0.88107 0.0
C1655 C 0.20055 0.78851 0.89 0.0
H1656 H 0.25979 0.24837 0.58566 0.0
H1657 H 0.33965 0.29806 0.59025 0.0
H1658 H 0.31264 0.33968 0.61022 0.0
H1659 H 0.26721 0.35897 0.63277 0.0
H1660 H 0.18884 0.30697 0.63045 0.0
H1661 H 0.21422 0.26913 0.60304 0.0
C1662 C 0.27125 0.26848 0.59059 0.0
C1663 C 0.30166 0.2701 0.58688 0.0
C1664 C 0.25581 0.29173 0.60275 0.0
C1665 C 0.3162 0.29635 0.59294 0.0
C1666 C 0.30079 0.32002 0.60457 0.0
C1667 C 0.25569 0.33962 0.62559 0.0
C1668 C 0.22635 0.33545 0.63371 0.0
C1669 C 0.27074 0.31758 0.61051 0.0
C1670 C 0.21152 0.31029 0.62463 0.0
C1671 C 0.22601 0.28874 0.60901 0.0
H1672 H 0.85927 0.26652 0.88462 0.0
H1673 H 0.80725 0.34477 0.88243 0.0
H1674 H 0.76535 0.31822 0.90155 0.0
H1675 H 0.74244 0.27233 0.91569 0.0
H1676 H 0.79368 0.19362 0.91845 0.0
H1677 H 0.83701 0.22078 0.90274 0.0
C1678 C 0.83894 0.27783 0.88887 0.0
C1679 C 0.83632 0.30757 0.88179 0.0
C1680 C 0.81473 0.2623 0.89978 0.0
C1681 C 0.80969 0.32183 0.88721 0.0
C1682 C 0.78573 0.30667 0.89821 0.0
C1683 C 0.76314 0.26112 0.91307 0.0
C1684 C 0.76479 0.23098 0.91802 0.0
C1685 C 0.78781 0.27681 0.90398 0.0
C1686 C 0.79183 0.21684 0.91479 0.0
C1687 C 0.81659 0.23235 0.90571 0.0
H1688 H 0.71009 0.73884 0.60491 0.0
H1689 H 0.77979 0.80203 0.60084 0.0
H1690 H 0.81529 0.76477 0.61417 0.0
H1691 H 0.82633 0.71492 0.62895 0.0
H1692 H 0.75706 0.65142 0.63411 0.0
H1693 H 0.72154 0.68816 0.61893 0.0
C1694 C 0.7331 0.74428 0.60661 0.0
C1695 C 0.74235 0.77308 0.60183 0.0
C1696 C 0.7534 0.72282 0.61488 0.0
C1697 C 0.77215 0.78001 0.60448 0.0
C1698 C 0.79247 0.75874 0.61215 0.0
C1699 C 0.80353 0.70899 0.62644 0.0
C1700 C 0.79444 0.68044 0.63266 0.0
C1701 C 0.7833 0.73017 0.6177 0.0
C1702 C 0.76465 0.67332 0.62983 0.0
C1703 C 0.74434 0.69427 0.62094 0.0
H1704 H 0.80443 0.71316 0.13681 0.0
H1705 H 0.86462 0.78511 0.14271 0.0
H1706 H 0.82561 0.81888 0.12847 0.0
H1707 H 0.7743 0.82753 0.11316 0.0
H1708 H 0.71459 0.75489 0.10867 0.0
H1709 H 0.75361 0.72169 0.12299 0.0
C1710 C 0.80907 0.73621 0.13481 0.0
C1711 C 0.83743 0.74658 0.14052 0.0
C1712 C 0.78665 0.75531 0.12661 0.0
C1713 C 0.84293 0.77662 0.13857 0.0
C1714 C 0.82068 0.79587 0.13022 0.0
C1715 C 0.76998 0.8044 0.11512 0.0
C1716 C 0.74169 0.7936 0.10961 0.0
C1717 C 0.79249 0.78541 0.12392 0.0
C1718 C 0.73619 0.76369 0.11273 0.0
C1719 C 0.75848 0.7447 0.12095 0.0
H1720 H 0.19841 0.71682 0.38245 0.0
H1721 H 0.26171 0.64793 0.39165 0.0
H1722 H 0.29622 0.68187 0.41398 0.0
H1723 H 0.30969 0.73222 0.42802 0.0
H1724 H 0.2464 0.80096 0.41672 0.0
H1725 H 0.21088 0.76617 0.39803 0.0
C1726 C 0.21975 0.70923 0.38931 0.0
C1727 C 0.22738 0.67988 0.38523 0.0
C1728 C 0.23966 0.72895 0.40169 0.0
C1729 C 0.25502 0.67029 0.39476 0.0
C1730 C 0.27491 0.68978 0.40736 0.0
C1731 C 0.288 0.73944 0.42178 0.0
C1732 C 0.28078 0.76915 0.42363 0.0
C1733 C 0.26763 0.71928 0.41059 0.0
C1734 C 0.25264 0.77825 0.41531 0.0
C1735 C 0.23225 0.75837 0.40461 0.0
H1736 H 0.70562 0.28179 0.41444 0.0
H1737 H 0.77819 0.22239 0.42273 0.0
H1738 H 0.81223 0.26094 0.40955 0.0
H1739 H 0.82095 0.3097 0.39083 0.0
H1740 H 0.74894 0.36887 0.37877 0.0
H1741 H 0.71519 0.33271 0.39897 0.0
C1742 C 0.72893 0.27756 0.41382 0.0
C1743 C 0.73943 0.24931 0.41925 0.0
C1744 C 0.74844 0.29974 0.40545 0.0
C1745 C 0.76962 0.24392 0.41828 0.0
C1746 C 0.7891 0.26593 0.41078 0.0
C1747 C 0.79789 0.31473 0.3928 0.0
C1748 C 0.78739 0.34168 0.38295 0.0
C1749 C 0.77867 0.29362 0.4035 0.0
C1750 C 0.75757 0.34827 0.38627 0.0
C1751 C 0.73824 0.32749 0.39757 0.0
loop_
_geom_bond_atom_site_label_1
_geom_bond_atom_site_label_2
_geom_bond_distance
_geom_bond_site_symmetry_2
_ccdc_geom_bond_type
Co0 N4 2.148 . S
Co0 N10 2.128 . S
Co0 N20 2.194 . S
Co0 O25 2.351 . S
Co0 O26 2.155 . S
Co0 O27 2.096 . S
C1 N4 1.301 . S
C1 N5 1.328 . S
C1 H6 0.930 . S
C2 C3 1.333 . S
C2 N4 1.317 . S
C2 H7 0.930 . S
C3 C2 1.333 . S
C3 N5 1.350 . S
C3 H29 0.931 . S
N4 Co0 2.148 . S
N4 C1 1.301 . S
N4 C2 1.317 . S
N5 C1 1.328 . S
N5 C3 1.350 . S
H6 C1 0.930 . S
H7 C2 0.930 . S
C8 O9 1.224 . S
C8 O27 1.247 . S
O9 C8 1.224 . S
N10 Co0 2.128 . S
N10 C11 1.355 . S
N10 C13 1.311 . S
C11 N10 1.355 . S
C11 C12 1.363 1_455 S
C11 H23 0.929 . S
C12 C11 1.363 1_655 S
C12 N14 1.362 1_655 S
C12 H30 0.931 . S
C13 N10 1.311 . S
C13 N14 1.383 . S
C13 H24 0.929 . S
N14 C12 1.362 1_455 S
N14 C13 1.383 . S
C15 C18 1.365 . S
C15 N20 1.328 . S
C15 H21 0.929 . S
C16 C17 1.362 . S
C16 C19 1.378 . S
C16 H31 0.929 . S
C17 C16 1.362 . S
C17 C18 1.366 . S
C18 C15 1.365 . S
C18 C17 1.366 . S
C18 H32 0.930 . S
C19 C16 1.378 . S
C19 N20 1.315 . S
C19 H22 0.930 . S
N20 Co0 2.194 . S
N20 C15 1.328 . S
N20 C19 1.315 . S
H21 C15 0.929 . S
H22 C19 0.930 . S
H23 C11 0.929 . S
H24 C13 0.929 . S
O25 Co0 2.351 . S
O25 C28 1.244 . S
O26 Co0 2.155 . S
O26 C28 1.240 . S
O27 Co0 2.096 . S
O27 C8 1.247 . S
C28 O25 1.244 . S
C28 O26 1.240 . S
H29 C3 0.931 . S
H30 C12 0.931 . S
H31 C16 0.929 . S
H32 C18 0.930 . S
Co33 N37 2.148 . S
Co33 N43 2.128 . S
Co33 N53 2.194 . S
Co33 O58 2.351 . S
Co33 O59 2.155 . S
Co33 O60 2.096 . S
C34 N37 1.301 . S
C34 N38 1.328 . S
C34 H39 0.930 . S
C35 C36 1.333 . S
C35 N37 1.317 . S
C35 H40 0.930 . S
C36 C35 1.333 . S
C36 N38 1.350 . S
C36 H62 0.931 . S
N37 Co33 2.148 . S
N37 C34 1.301 . S
N37 C35 1.317 . S
N38 C34 1.328 . S
N38 C36 1.350 . S
H39 C34 0.930 . S
H40 C35 0.930 . S
C41 O42 1.224 . S
C41 O60 1.247 . S
O42 C41 1.224 . S
N43 Co33 2.128 . S
N43 C44 1.355 . S
N43 C46 1.311 . S
C44 N43 1.355 . S
C44 C45 1.363 . S
C44 H56 0.929 . S
C45 C44 1.363 . S
C45 N47 1.375 . S
C45 H63 0.931 . S
C46 N43 1.311 . S
C46 N47 1.347 . S
C46 H57 0.929 . S
N47 C45 1.375 . S
N47 C46 1.347 . S
C48 C51 1.365 . S
C48 N53 1.328 . S
C48 H54 0.929 . S
C49 C50 1.362 . S
C49 C52 1.378 . S
C49 H64 0.929 . S
C50 C49 1.362 . S
C50 C51 1.366 . S
C51 C48 1.365 . S
C51 C50 1.366 . S
C51 H65 0.930 . S
C52 C49 1.378 . S
C52 N53 1.315 . S
C52 H55 0.930 . S
N53 Co33 2.194 . S
N53 C48 1.328 . S
N53 C52 1.315 . S
H54 C48 0.929 . S
H55 C52 0.930 . S
H56 C44 0.929 . S
H57 C46 0.929 . S
O58 Co33 2.351 . S
O58 C61 1.244 . S
O59 Co33 2.155 . S
O59 C61 1.240 . S
O60 Co33 2.096 . S
O60 C41 1.247 . S
C61 O58 1.244 . S
C61 O59 1.240 . S
H62 C36 0.931 . S
H63 C45 0.931 . S
H64 C49 0.929 . S
H65 C51 0.930 . S
Co66 N70 2.148 . S
Co66 N76 2.128 . S
Co66 N86 2.194 . S
Co66 O91 2.351 . S
Co66 O92 2.155 . S
Co66 O93 2.096 . S
C67 N70 1.301 . S
C67 N71 1.328 . S
C67 H72 0.930 . S
C68 C69 1.333 . S
C68 N70 1.317 . S
C68 H73 0.930 . S
C69 C68 1.333 . S
C69 N71 1.350 . S
C69 H95 0.931 . S
N70 Co66 2.148 . S
N70 C67 1.301 . S
N70 C68 1.317 . S
N71 C67 1.328 . S
N71 C69 1.350 . S
H72 C67 0.930 . S
H73 C68 0.930 . S
C74 O75 1.224 . S
C74 O93 1.247 . S
O75 C74 1.224 . S
N76 Co66 2.128 . S
N76 C77 1.355 . S
N76 C79 1.311 . S
C77 N76 1.355 . S
C77 C78 1.363 1_655 S
C77 H89 0.929 . S
C78 C77 1.363 1_455 S
C78 N80 1.362 1_455 S
C78 H96 0.931 . S
C79 N76 1.311 . S
C79 N80 1.383 . S
C79 H90 0.929 . S
N80 C78 1.362 1_655 S
N80 C79 1.383 . S
C81 C84 1.365 . S
C81 N86 1.328 . S
C81 H87 0.929 . S
C82 C83 1.362 . S
C82 C85 1.378 . S
C82 H97 0.929 . S
C83 C82 1.362 . S
C83 C84 1.366 . S
C84 C81 1.365 . S
C84 C83 1.366 . S
C84 H98 0.930 . S
C85 C82 1.378 . S
C85 N86 1.315 . S
C85 H88 0.930 . S
N86 Co66 2.194 . S
N86 C81 1.328 . S
N86 C85 1.315 . S
H87 C81 0.929 . S
H88 C85 0.930 . S
H89 C77 0.929 . S
H90 C79 0.929 . S
O91 Co66 2.351 . S
O91 C94 1.244 . S
O92 Co66 2.155 . S
O92 C94 1.240 . S
O93 Co66 2.096 . S
O93 C74 1.247 . S
C94 O91 1.244 . S
C94 O92 1.240 . S
H95 C69 0.931 . S
H96 C78 0.931 . S
H97 C82 0.929 . S
H98 C84 0.930 . S
Co99 N103 2.148 . S
Co99 N109 2.128 . S
Co99 N119 2.194 . S
Co99 O124 2.351 . S
Co99 O125 2.155 . S
Co99 O126 2.096 . S
C100 N103 1.301 . S
C100 N104 1.328 . S
C100 H105 0.930 . S
C101 C102 1.333 . S
C101 N103 1.317 . S
C101 H106 0.930 . S
C102 C101 1.333 . S
C102 N104 1.350 . S
C102 H128 0.931 . S
N103 Co99 2.148 . S
N103 C100 1.301 . S
N103 C101 1.317 . S
N104 C100 1.328 . S
N104 C102 1.350 . S
H105 C100 0.930 . S
H106 C101 0.930 . S
C107 O108 1.224 . S
C107 O126 1.247 . S
O108 C107 1.224 . S
N109 Co99 2.128 . S
N109 C110 1.355 . S
N109 C112 1.311 . S
C110 N109 1.355 . S
C110 C111 1.363 . S
C110 H122 0.929 . S
C111 C110 1.363 . S
C111 N113 1.375 . S
C111 H129 0.931 . S
C112 N109 1.311 . S
C112 N113 1.347 . S
C112 H123 0.929 . S
N113 C111 1.375 . S
N113 C112 1.347 . S
C114 C117 1.365 . S
C114 N119 1.328 . S
C114 H120 0.929 . S
C115 C116 1.362 . S
C115 C118 1.378 . S
C115 H130 0.929 . S
C116 C115 1.362 . S
C116 C117 1.366 . S
C117 C114 1.365 . S
C117 C116 1.366 . S
C117 H131 0.930 . S
C118 C115 1.378 . S
C118 N119 1.315 . S
C118 H121 0.930 . S
N119 Co99 2.194 . S
N119 C114 1.328 . S
N119 C118 1.315 . S
H120 C114 0.929 . S
H121 C118 0.930 . S
H122 C110 0.929 . S
H123 C112 0.929 . S
O124 Co99 2.351 . S
O124 C127 1.244 . S
O125 Co99 2.155 . S
O125 C127 1.240 . S
O126 Co99 2.096 . S
O126 C107 1.247 . S
C127 O124 1.244 . S
C127 O125 1.240 . S
H128 C102 0.931 . S
H129 C111 0.931 . S
H130 C115 0.929 . S
H131 C117 0.930 . S
Co132 N136 2.148 . S
Co132 N142 2.128 . S
Co132 N152 2.194 . S
Co132 O157 2.351 . S
Co132 O158 2.155 . S
Co132 O159 2.096 . S
C133 N136 1.301 . S
C133 N137 1.328 . S
C133 H138 0.930 . S
C134 C135 1.333 . S
C134 N136 1.317 . S
C134 H139 0.930 . S
C135 C134 1.333 . S
C135 N137 1.350 . S
C135 H161 0.931 . S
N136 Co132 2.148 . S
N136 C133 1.301 . S
N136 C134 1.317 . S
N137 C133 1.328 . S
N137 C135 1.350 . S
H138 C133 0.930 . S
H139 C134 0.930 . S
C140 O141 1.224 . S
C140 O159 1.247 . S
O141 C140 1.224 . S
N142 Co132 2.128 . S
N142 C143 1.355 . S
N142 C145 1.311 . S
C143 N142 1.355 . S
C143 C144 1.363 1_455 S
C143 H155 0.929 . S
C144 C143 1.363 1_655 S
C144 N146 1.362 1_655 S
C144 H162 0.931 . S
C145 N142 1.311 . S
C145 N146 1.383 . S
C145 H156 0.929 . S
N146 C144 1.362 1_455 S
N146 C145 1.383 . S
C147 C150 1.365 . S
C147 N152 1.328 . S
C147 H153 0.929 . S
C148 C149 1.362 . S
C148 C151 1.378 . S
C148 H163 0.929 . S
C149 C148 1.362 . S
C149 C150 1.366 . S
C150 C147 1.365 . S
C150 C149 1.366 . S
C150 H164 0.930 . S
C151 C148 1.378 . S
C151 N152 1.315 . S
C151 H154 0.930 . S
N152 Co132 2.194 . S
N152 C147 1.328 . S
N152 C151 1.315 . S
H153 C147 0.929 . S
H154 C151 0.930 . S
H155 C143 0.929 . S
H156 C145 0.929 . S
O157 Co132 2.351 . S
O157 C160 1.244 . S
O158 Co132 2.155 . S
O158 C160 1.240 . S
O159 Co132 2.096 . S
O159 C140 1.247 . S
C160 O157 1.244 . S
C160 O158 1.240 . S
H161 C135 0.931 . S
H162 C144 0.931 . S
H163 C148 0.929 . S
H164 C150 0.930 . S
Co165 N169 2.148 . S
Co165 N175 2.128 . S
Co165 N185 2.194 . S
Co165 O190 2.351 . S
Co165 O191 2.155 . S
Co165 O192 2.096 . S
C166 N169 1.301 . S
C166 N170 1.328 . S
C166 H171 0.930 . S
C167 C168 1.333 . S
C167 N169 1.317 . S
C167 H172 0.930 . S
C168 C167 1.333 . S
C168 N170 1.350 . S
C168 H194 0.931 . S
N169 Co165 2.148 . S
N169 C166 1.301 . S
N169 C167 1.317 . S
N170 C166 1.328 . S
N170 C168 1.350 . S
H171 C166 0.930 . S
H172 C167 0.930 . S
C173 O174 1.224 . S
C173 O192 1.247 . S
O174 C173 1.224 . S
N175 Co165 2.128 . S
N175 C176 1.355 . S
N175 C178 1.311 . S
C176 N175 1.355 . S
C176 C177 1.363 . S
C176 H188 0.929 . S
C177 C176 1.363 . S
C177 N179 1.375 . S
C177 H195 0.931 . S
C178 N175 1.311 . S
C178 N179 1.347 . S
C178 H189 0.929 . S
N179 C177 1.375 . S
N179 C178 1.347 . S
C180 C183 1.365 . S
C180 N185 1.328 . S
C180 H186 0.929 . S
C181 C182 1.362 . S
C181 C184 1.378 . S
C181 H196 0.929 . S
C182 C181 1.362 . S
C182 C183 1.366 . S
C183 C180 1.365 . S
C183 C182 1.366 . S
C183 H197 0.930 . S
C184 C181 1.378 . S
C184 N185 1.315 . S
C184 H187 0.930 . S
N185 Co165 2.194 . S
N185 C180 1.328 . S
N185 C184 1.315 . S
H186 C180 0.929 . S
H187 C184 0.930 . S
H188 C176 0.929 . S
H189 C178 0.929 . S
O190 Co165 2.351 . S
O190 C193 1.244 . S
O191 Co165 2.155 . S
O191 C193 1.240 . S
O192 Co165 2.096 . S
O192 C173 1.247 . S
C193 O190 1.244 . S
C193 O191 1.240 . S
H194 C168 0.931 . S
H195 C177 0.931 . S
H196 C181 0.929 . S
H197 C183 0.930 . S
Co198 N202 2.148 . S
Co198 N208 2.128 . S
Co198 N218 2.194 . S
Co198 O223 2.351 . S
Co198 O224 2.155 . S
Co198 O225 2.096 . S
C199 N202 1.301 . S
C199 N203 1.328 . S
C199 H204 0.930 . S
C200 C201 1.333 . S
C200 N202 1.317 . S
C200 H205 0.930 . S
C201 C200 1.333 . S
C201 N203 1.350 . S
C201 H227 0.931 . S
N202 Co198 2.148 . S
N202 C199 1.301 . S
N202 C200 1.317 . S
N203 C199 1.328 . S
N203 C201 1.350 . S
H204 C199 0.930 . S
H205 C200 0.930 . S
C206 O207 1.224 . S
C206 O225 1.247 . S
O207 C206 1.224 . S
N208 Co198 2.128 . S
N208 C209 1.355 . S
N208 C211 1.311 . S
C209 N208 1.355 . S
C209 C210 1.363 1_655 S
C209 H221 0.929 . S
C210 C209 1.363 1_455 S
C210 N212 1.362 1_455 S
C210 H228 0.931 . S
C211 N208 1.311 . S
C211 N212 1.383 . S
C211 H222 0.929 . S
N212 C210 1.362 1_655 S
N212 C211 1.383 . S
C213 C216 1.365 . S
C213 N218 1.328 . S
C213 H219 0.929 . S
C214 C215 1.362 . S
C214 C217 1.378 . S
C214 H229 0.929 . S
C215 C214 1.362 . S
C215 C216 1.366 . S
C216 C213 1.365 . S
C216 C215 1.366 . S
C216 H230 0.930 . S
C217 C214 1.378 . S
C217 N218 1.315 . S
C217 H220 0.930 . S
N218 Co198 2.194 . S
N218 C213 1.328 . S
N218 C217 1.315 . S
H219 C213 0.929 . S
H220 C217 0.930 . S
H221 C209 0.929 . S
H222 C211 0.929 . S
O223 Co198 2.351 . S
O223 C226 1.244 . S
O224 Co198 2.155 . S
O224 C226 1.240 . S
O225 Co198 2.096 . S
O225 C206 1.247 . S
C226 O223 1.244 . S
C226 O224 1.240 . S
H227 C201 0.931 . S
H228 C210 0.931 . S
H229 C214 0.929 . S
H230 C216 0.930 . S
Co231 N235 2.148 . S
Co231 N241 2.128 . S
Co231 N251 2.194 . S
Co231 O256 2.351 . S
Co231 O257 2.155 . S
Co231 O258 2.096 . S
C232 N235 1.301 . S
C232 N236 1.328 . S
C232 H237 0.930 . S
C233 C234 1.333 . S
C233 N235 1.317 . S
C233 H238 0.930 . S
C234 C233 1.333 . S
C234 N236 1.350 . S
C234 H260 0.931 . S
N235 Co231 2.148 . S
N235 C232 1.301 . S
N235 C233 1.317 . S
N236 C232 1.328 . S
N236 C234 1.350 . S
H237 C232 0.930 . S
H238 C233 0.930 . S
C239 O240 1.224 . S
C239 O258 1.247 . S
O240 C239 1.224 . S
N241 Co231 2.128 . S
N241 C242 1.355 . S
N241 C244 1.311 . S
C242 N241 1.355 . S
C242 C243 1.363 . S
C242 H254 0.929 . S
C243 C242 1.363 . S
C243 N245 1.375 . S
C243 H261 0.931 . S
C244 N241 1.311 . S
C244 N245 1.347 . S
C244 H255 0.929 . S
N245 C243 1.375 . S
N245 C244 1.347 . S
C246 C249 1.365 . S
C246 N251 1.328 . S
C246 H252 0.929 . S
C247 C248 1.362 . S
C247 C250 1.378 . S
C247 H262 0.929 . S
C248 C247 1.362 . S
C248 C249 1.366 . S
C249 C246 1.365 . S
C249 C248 1.366 . S
C249 H263 0.930 . S
C250 C247 1.378 . S
C250 N251 1.315 . S
C250 H253 0.930 . S
N251 Co231 2.194 . S
N251 C246 1.328 . S
N251 C250 1.315 . S
H252 C246 0.929 . S
H253 C250 0.930 . S
H254 C242 0.929 . S
H255 C244 0.929 . S
O256 Co231 2.351 . S
O256 C259 1.244 . S
O257 Co231 2.155 . S
O257 C259 1.240 . S
O258 Co231 2.096 . S
O258 C239 1.247 . S
C259 O256 1.244 . S
C259 O257 1.240 . S
H260 C234 0.931 . S
H261 C243 0.931 . S
H262 C247 0.929 . S
H263 C249 0.930 . S
Co264 N268 2.148 . S
Co264 N274 2.128 . S
Co264 N284 2.194 . S
Co264 O289 2.351 . S
Co264 O290 2.155 . S
Co264 O291 2.096 . S
C265 N268 1.301 . S
C265 N269 1.328 . S
C265 H270 0.930 . S
C266 C267 1.333 . S
C266 N268 1.317 . S
C266 H271 0.930 . S
C267 C266 1.333 . S
C267 N269 1.350 . S
C267 H293 0.931 . S
N268 Co264 2.148 . S
N268 C265 1.301 . S
N268 C266 1.317 . S
N269 C265 1.328 . S
N269 C267 1.350 . S
H270 C265 0.930 . S
H271 C266 0.930 . S
C272 O273 1.224 . S
C272 O291 1.247 . S
O273 C272 1.224 . S
N274 Co264 2.128 . S
N274 C275 1.355 . S
N274 C277 1.311 . S
C275 N274 1.355 . S
C275 C276 1.363 1_545 S
C275 H287 0.929 . S
C276 C275 1.363 1_565 S
C276 N278 1.362 1_565 S
C276 H294 0.931 . S
C277 N274 1.311 . S
C277 N278 1.383 . S
C277 H288 0.929 . S
N278 C276 1.362 1_545 S
N278 C277 1.383 . S
C279 C282 1.365 . S
C279 N284 1.328 . S
C279 H285 0.929 . S
C280 C281 1.362 . S
C280 C283 1.378 . S
C280 H295 0.929 . S
C281 C280 1.362 . S
C281 C282 1.366 . S
C282 C279 1.365 . S
C282 C281 1.366 . S
C282 H296 0.930 . S
C283 C280 1.378 . S
C283 N284 1.315 . S
C283 H286 0.930 . S
N284 Co264 2.194 . S
N284 C279 1.328 . S
N284 C283 1.315 . S
H285 C279 0.929 . S
H286 C283 0.930 . S
H287 C275 0.929 . S
H288 C277 0.929 . S
O289 Co264 2.351 . S
O289 C292 1.244 . S
O290 Co264 2.155 . S
O290 C292 1.240 . S
O291 Co264 2.096 . S
O291 C272 1.247 . S
C292 O289 1.244 . S
C292 O290 1.240 . S
H293 C267 0.931 . S
H294 C276 0.931 . S
H295 C280 0.929 . S
H296 C282 0.930 . S
Co297 N301 2.148 . S
Co297 N307 2.128 . S
Co297 N317 2.194 . S
Co297 O322 2.351 . S
Co297 O323 2.155 . S
Co297 O324 2.096 . S
C298 N301 1.301 . S
C298 N302 1.328 . S
C298 H303 0.930 . S
C299 C300 1.333 . S
C299 N301 1.317 . S
C299 H304 0.930 . S
C300 C299 1.333 . S
C300 N302 1.350 . S
C300 H326 0.931 . S
N301 Co297 2.148 . S
N301 C298 1.301 . S
N301 C299 1.317 . S
N302 C298 1.328 . S
N302 C300 1.350 . S
H303 C298 0.930 . S
H304 C299 0.930 . S
C305 O306 1.224 . S
C305 O324 1.247 . S
O306 C305 1.224 . S
N307 Co297 2.128 . S
N307 C308 1.355 . S
N307 C310 1.311 . S
C308 N307 1.355 . S
C308 C309 1.363 . S
C308 H320 0.929 . S
C309 C308 1.363 . S
C309 N311 1.375 . S
C309 H327 0.931 . S
C310 N307 1.311 . S
C310 N311 1.347 . S
C310 H321 0.929 . S
N311 C309 1.375 . S
N311 C310 1.347 . S
C312 C315 1.365 . S
C312 N317 1.328 . S
C312 H318 0.929 . S
C313 C314 1.362 . S
C313 C316 1.378 . S
C313 H328 0.929 . S
C314 C313 1.362 . S
C314 C315 1.366 . S
C315 C312 1.365 . S
C315 C314 1.366 . S
C315 H329 0.930 . S
C316 C313 1.378 . S
C316 N317 1.315 . S
C316 H319 0.930 . S
N317 Co297 2.194 . S
N317 C312 1.328 . S
N317 C316 1.315 . S
H318 C312 0.929 . S
H319 C316 0.930 . S
H320 C308 0.929 . S
H321 C310 0.929 . S
O322 Co297 2.351 . S
O322 C325 1.244 . S
O323 Co297 2.155 . S
O323 C325 1.240 . S
O324 Co297 2.096 . S
O324 C305 1.247 . S
C325 O322 1.244 . S
C325 O323 1.240 . S
H326 C300 0.931 . S
H327 C309 0.931 . S
H328 C313 0.929 . S
H329 C315 0.930 . S
Co330 N334 2.148 . S
Co330 N340 2.128 . S
Co330 N350 2.194 . S
Co330 O355 2.351 . S
Co330 O356 2.155 . S
Co330 O357 2.096 . S
C331 N334 1.301 . S
C331 N335 1.328 . S
C331 H336 0.930 . S
C332 C333 1.333 . S
C332 N334 1.317 . S
C332 H337 0.930 . S
C333 C332 1.333 . S
C333 N335 1.350 . S
C333 H359 0.931 . S
N334 Co330 2.148 . S
N334 C331 1.301 . S
N334 C332 1.317 . S
N335 C331 1.328 . S
N335 C333 1.350 . S
H336 C331 0.930 . S
H337 C332 0.930 . S
C338 O339 1.224 . S
C338 O357 1.247 . S
O339 C338 1.224 . S
N340 Co330 2.128 . S
N340 C341 1.355 . S
N340 C343 1.311 . S
C341 N340 1.355 . S
C341 C342 1.363 1_565 S
C341 H353 0.929 . S
C342 C341 1.363 1_545 S
C342 N344 1.362 1_545 S
C342 H360 0.931 . S
C343 N340 1.311 . S
C343 N344 1.383 . S
C343 H354 0.929 . S
N344 C342 1.362 1_565 S
N344 C343 1.383 . S
C345 C348 1.365 . S
C345 N350 1.328 . S
C345 H351 0.929 . S
C346 C347 1.362 . S
C346 C349 1.378 . S
C346 H361 0.929 . S
C347 C346 1.362 . S
C347 C348 1.366 . S
C348 C345 1.365 . S
C348 C347 1.366 . S
C348 H362 0.930 . S
C349 C346 1.378 . S
C349 N350 1.315 . S
C349 H352 0.930 . S
N350 Co330 2.194 . S
N350 C345 1.328 . S
N350 C349 1.315 . S
H351 C345 0.929 . S
H352 C349 0.930 . S
H353 C341 0.929 . S
H354 C343 0.929 . S
O355 Co330 2.351 . S
O355 C358 1.244 . S
O356 Co330 2.155 . S
O356 C358 1.240 . S
O357 Co330 2.096 . S
O357 C338 1.247 . S
C358 O355 1.244 . S
C358 O356 1.240 . S
H359 C333 0.931 . S
H360 C342 0.931 . S
H361 C346 0.929 . S
H362 C348 0.930 . S
Co363 N367 2.148 . S
Co363 N373 2.128 . S
Co363 N383 2.194 . S
Co363 O388 2.351 . S
Co363 O389 2.155 . S
Co363 O390 2.096 . S
C364 N367 1.301 . S
C364 N368 1.328 . S
C364 H369 0.930 . S
C365 C366 1.333 . S
C365 N367 1.317 . S
C365 H370 0.930 . S
C366 C365 1.333 . S
C366 N368 1.350 . S
C366 H392 0.931 . S
N367 Co363 2.148 . S
N367 C364 1.301 . S
N367 C365 1.317 . S
N368 C364 1.328 . S
N368 C366 1.350 . S
H369 C364 0.930 . S
H370 C365 0.930 . S
C371 O372 1.224 . S
C371 O390 1.247 . S
O372 C371 1.224 . S
N373 Co363 2.128 . S
N373 C374 1.355 . S
N373 C376 1.311 . S
C374 N373 1.355 . S
C374 C375 1.363 . S
C374 H386 0.929 . S
C375 C374 1.363 . S
C375 N377 1.375 . S
C375 H393 0.931 . S
C376 N373 1.311 . S
C376 N377 1.347 . S
C376 H387 0.929 . S
N377 C375 1.375 . S
N377 C376 1.347 . S
C378 C381 1.365 . S
C378 N383 1.328 . S
C378 H384 0.929 . S
C379 C380 1.362 . S
C379 C382 1.378 . S
C379 H394 0.929 . S
C380 C379 1.362 . S
C380 C381 1.366 . S
C381 C378 1.365 . S
C381 C380 1.366 . S
C381 H395 0.930 . S
C382 C379 1.378 . S
C382 N383 1.315 . S
C382 H385 0.930 . S
N383 Co363 2.194 . S
N383 C378 1.328 . S
N383 C382 1.315 . S
H384 C378 0.929 . S
H385 C382 0.930 . S
H386 C374 0.929 . S
H387 C376 0.929 . S
O388 Co363 2.351 . S
O388 C391 1.244 . S
O389 Co363 2.155 . S
O389 C391 1.240 . S
O390 Co363 2.096 . S
O390 C371 1.247 . S
C391 O388 1.244 . S
C391 O389 1.240 . S
H392 C366 0.931 . S
H393 C375 0.931 . S
H394 C379 0.929 . S
H395 C381 0.930 . S
Co396 N400 2.148 . S
Co396 N406 2.128 . S
Co396 N416 2.194 . S
Co396 O421 2.351 . S
Co396 O422 2.155 . S
Co396 O423 2.096 . S
C397 N400 1.301 . S
C397 N401 1.328 . S
C397 H402 0.930 . S
C398 C399 1.333 . S
C398 N400 1.317 . S
C398 H403 0.930 . S
C399 C398 1.333 . S
C399 N401 1.350 . S
C399 H425 0.931 . S
N400 Co396 2.148 . S
N400 C397 1.301 . S
N400 C398 1.317 . S
N401 C397 1.328 . S
N401 C399 1.350 . S
H402 C397 0.930 . S
H403 C398 0.930 . S
C404 O405 1.224 . S
C404 O423 1.247 . S
O405 C404 1.224 . S
N406 Co396 2.128 . S
N406 C407 1.355 . S
N406 C409 1.311 . S
C407 N406 1.355 . S
C407 C408 1.363 1_565 S
C407 H419 0.929 . S
C408 C407 1.363 1_545 S
C408 N410 1.362 1_545 S
C408 H426 0.931 . S
C409 N406 1.311 . S
C409 N410 1.383 . S
C409 H420 0.929 . S
N410 C408 1.362 1_565 S
N410 C409 1.383 . S
C411 C414 1.365 . S
C411 N416 1.328 . S
C411 H417 0.929 . S
C412 C413 1.362 . S
C412 C415 1.378 . S
C412 H427 0.929 . S
C413 C412 1.362 . S
C413 C414 1.366 . S
C414 C411 1.365 . S
C414 C413 1.366 . S
C414 H428 0.930 . S
C415 C412 1.378 . S
C415 N416 1.315 . S
C415 H418 0.930 . S
N416 Co396 2.194 . S
N416 C411 1.328 . S
N416 C415 1.315 . S
H417 C411 0.929 . S
H418 C415 0.930 . S
H419 C407 0.929 . S
H420 C409 0.929 . S
O421 Co396 2.351 . S
O421 C424 1.244 . S
O422 Co396 2.155 . S
O422 C424 1.240 . S
O423 Co396 2.096 . S
O423 C404 1.247 . S
C424 O421 1.244 . S
C424 O422 1.240 . S
H425 C399 0.931 . S
H426 C408 0.931 . S
H427 C412 0.929 . S
H428 C414 0.930 . S
Co429 N433 2.148 . S
Co429 N439 2.128 . S
Co429 N449 2.194 . S
Co429 O454 2.351 . S
Co429 O455 2.155 . S
Co429 O456 2.096 . S
C430 N433 1.301 . S
C430 N434 1.328 . S
C430 H435 0.930 . S
C431 C432 1.333 . S
C431 N433 1.317 . S
C431 H436 0.930 . S
C432 C431 1.333 . S
C432 N434 1.350 . S
C432 H458 0.931 . S
N433 Co429 2.148 . S
N433 C430 1.301 . S
N433 C431 1.317 . S
N434 C430 1.328 . S
N434 C432 1.350 . S
H435 C430 0.930 . S
H436 C431 0.930 . S
C437 O438 1.224 . S
C437 O456 1.247 . S
O438 C437 1.224 . S
N439 Co429 2.128 . S
N439 C440 1.355 . S
N439 C442 1.311 . S
C440 N439 1.355 . S
C440 C441 1.363 . S
C440 H452 0.929 . S
C441 C440 1.363 . S
C441 N443 1.375 . S
C441 H459 0.931 . S
C442 N439 1.311 . S
C442 N443 1.347 . S
C442 H453 0.929 . S
N443 C441 1.375 . S
N443 C442 1.347 . S
C444 C447 1.365 . S
C444 N449 1.328 . S
C444 H450 0.929 . S
C445 C446 1.362 . S
C445 C448 1.378 . S
C445 H460 0.929 . S
C446 C445 1.362 . S
C446 C447 1.366 . S
C447 C444 1.365 . S
C447 C446 1.366 . S
C447 H461 0.930 . S
C448 C445 1.378 . S
C448 N449 1.315 . S
C448 H451 0.930 . S
N449 Co429 2.194 . S
N449 C444 1.328 . S
N449 C448 1.315 . S
H450 C444 0.929 . S
H451 C448 0.930 . S
H452 C440 0.929 . S
H453 C442 0.929 . S
O454 Co429 2.351 . S
O454 C457 1.244 . S
O455 Co429 2.155 . S
O455 C457 1.240 . S
O456 Co429 2.096 . S
O456 C437 1.247 . S
C457 O454 1.244 . S
C457 O455 1.240 . S
H458 C432 0.931 . S
H459 C441 0.931 . S
H460 C445 0.929 . S
H461 C447 0.930 . S
Co462 N466 2.148 . S
Co462 N472 2.128 . S
Co462 N482 2.194 . S
Co462 O487 2.351 . S
Co462 O488 2.155 . S
Co462 O489 2.096 . S
C463 N466 1.301 . S
C463 N467 1.328 . S
C463 H468 0.930 . S
C464 C465 1.333 . S
C464 N466 1.317 . S
C464 H469 0.930 . S
C465 C464 1.333 . S
C465 N467 1.350 . S
C465 H491 0.931 . S
N466 Co462 2.148 . S
N466 C463 1.301 . S
N466 C464 1.317 . S
N467 C463 1.328 . S
N467 C465 1.350 . S
H468 C463 0.930 . S
H469 C464 0.930 . S
C470 O471 1.224 . S
C470 O489 1.247 . S
O471 C470 1.224 . S
N472 Co462 2.128 . S
N472 C473 1.355 . S
N472 C475 1.311 . S
C473 N472 1.355 . S
C473 C474 1.363 1_545 S
C473 H485 0.929 . S
C474 C473 1.363 1_565 S
C474 N476 1.362 1_565 S
C474 H492 0.931 . S
C475 N472 1.311 . S
C475 N476 1.383 . S
C475 H486 0.929 . S
N476 C474 1.362 1_545 S
N476 C475 1.383 . S
C477 C480 1.365 . S
C477 N482 1.328 . S
C477 H483 0.929 . S
C478 C479 1.362 . S
C478 C481 1.378 . S
C478 H493 0.929 . S
C479 C478 1.362 . S
C479 C480 1.366 . S
C480 C477 1.365 . S
C480 C479 1.366 . S
C480 H494 0.930 . S
C481 C478 1.378 . S
C481 N482 1.315 . S
C481 H484 0.930 . S
N482 Co462 2.194 . S
N482 C477 1.328 . S
N482 C481 1.315 . S
H483 C477 0.929 . S
H484 C481 0.930 . S
H485 C473 0.929 . S
H486 C475 0.929 . S
O487 Co462 2.351 . S
O487 C490 1.244 . S
O488 Co462 2.155 . S
O488 C490 1.240 . S
O489 Co462 2.096 . S
O489 C470 1.247 . S
C490 O487 1.244 . S
C490 O488 1.240 . S
H491 C465 0.931 . S
H492 C474 0.931 . S
H493 C478 0.929 . S
H494 C480 0.930 . S
Co495 N499 2.148 . S
Co495 N505 2.128 . S
Co495 N515 2.194 . S
Co495 O520 2.351 . S
Co495 O521 2.155 . S
Co495 O522 2.096 . S
C496 N499 1.301 . S
C496 N500 1.328 . S
C496 H501 0.930 . S
C497 C498 1.333 . S
C497 N499 1.317 . S
C497 H502 0.930 . S
C498 C497 1.333 . S
C498 N500 1.350 . S
C498 H524 0.931 . S
N499 Co495 2.148 . S
N499 C496 1.301 . S
N499 C497 1.317 . S
N500 C496 1.328 . S
N500 C498 1.350 . S
H501 C496 0.930 . S
H502 C497 0.930 . S
C503 O504 1.224 . S
C503 O522 1.247 . S
O504 C503 1.224 . S
N505 Co495 2.128 . S
N505 C506 1.355 . S
N505 C508 1.311 . S
C506 N505 1.355 . S
C506 C507 1.363 . S
C506 H518 0.929 . S
C507 C506 1.363 . S
C507 N509 1.375 . S
C507 H525 0.931 . S
C508 N505 1.311 . S
C508 N509 1.347 . S
C508 H519 0.929 . S
N509 C507 1.375 . S
N509 C508 1.347 . S
C510 C513 1.365 . S
C510 N515 1.328 . S
C510 H516 0.929 . S
C511 C512 1.362 . S
C511 C514 1.378 . S
C511 H526 0.929 . S
C512 C511 1.362 . S
C512 C513 1.366 . S
C513 C510 1.365 . S
C513 C512 1.366 . S
C513 H527 0.930 . S
C514 C511 1.378 . S
C514 N515 1.315 . S
C514 H517 0.930 . S
N515 Co495 2.194 . S
N515 C510 1.328 . S
N515 C514 1.315 . S
H516 C510 0.929 . S
H517 C514 0.930 . S
H518 C506 0.929 . S
H519 C508 0.929 . S
O520 Co495 2.351 . S
O520 C523 1.244 . S
O521 Co495 2.155 . S
O521 C523 1.240 . S
O522 Co495 2.096 . S
O522 C503 1.247 . S
C523 O520 1.244 . S
C523 O521 1.240 . S
H524 C498 0.931 . S
H525 C507 0.931 . S
H526 C511 0.929 . S
H527 C513 0.930 . S
Co528 N532 2.148 . S
Co528 N538 2.128 . S
Co528 N548 2.194 . S
Co528 O553 2.351 . S
Co528 O554 2.155 . S
Co528 O555 2.096 . S
C529 N532 1.301 . S
C529 N533 1.328 . S
C529 H534 0.930 . S
C530 C531 1.333 . S
C530 N532 1.317 . S
C530 H535 0.930 . S
C531 C530 1.333 . S
C531 N533 1.350 . S
C531 H557 0.931 . S
N532 Co528 2.148 . S
N532 C529 1.301 . S
N532 C530 1.317 . S
N533 C529 1.328 . S
N533 C531 1.350 . S
H534 C529 0.930 . S
H535 C530 0.930 . S
C536 O537 1.224 . S
C536 O555 1.247 . S
O537 C536 1.224 . S
N538 Co528 2.128 . S
N538 C539 1.355 . S
N538 C541 1.311 . S
C539 N538 1.355 . S
C539 C540 1.363 1_554 S
C539 H551 0.929 . S
C540 C539 1.363 1_556 S
C540 N542 1.362 1_556 S
C540 H558 0.931 . S
C541 N538 1.311 . S
C541 N542 1.383 . S
C541 H552 0.929 . S
N542 C540 1.362 1_554 S
N542 C541 1.383 . S
C543 C546 1.365 . S
C543 N548 1.328 . S
C543 H549 0.929 . S
C544 C545 1.362 . S
C544 C547 1.378 . S
C544 H559 0.929 . S
C545 C544 1.362 . S
C545 C546 1.366 . S
C546 C543 1.365 . S
C546 C545 1.366 . S
C546 H560 0.930 . S
C547 C544 1.378 . S
C547 N548 1.315 . S
C547 H550 0.930 . S
N548 Co528 2.194 . S
N548 C543 1.328 . S
N548 C547 1.315 . S
H549 C543 0.929 . S
H550 C547 0.930 . S
H551 C539 0.929 . S
H552 C541 0.929 . S
O553 Co528 2.351 . S
O553 C556 1.244 . S
O554 Co528 2.155 . S
O554 C556 1.240 . S
O555 Co528 2.096 . S
O555 C536 1.247 . S
C556 O553 1.244 . S
C556 O554 1.240 . S
H557 C531 0.931 . S
H558 C540 0.931 . S
H559 C544 0.929 . S
H560 C546 0.930 . S
Co561 N565 2.148 . S
Co561 N571 2.128 . S
Co561 N581 2.194 . S
Co561 O586 2.351 . S
Co561 O587 2.155 . S
Co561 O588 2.096 . S
C562 N565 1.301 . S
C562 N566 1.328 . S
C562 H567 0.930 . S
C563 C564 1.333 . S
C563 N565 1.317 . S
C563 H568 0.930 . S
C564 C563 1.333 . S
C564 N566 1.350 . S
C564 H590 0.931 . S
N565 Co561 2.148 . S
N565 C562 1.301 . S
N565 C563 1.317 . S
N566 C562 1.328 . S
N566 C564 1.350 . S
H567 C562 0.930 . S
H568 C563 0.930 . S
C569 O570 1.224 . S
C569 O588 1.247 . S
O570 C569 1.224 . S
N571 Co561 2.128 . S
N571 C572 1.355 . S
N571 C574 1.311 . S
C572 N571 1.355 . S
C572 C573 1.363 1_556 S
C572 H584 0.929 . S
C573 C572 1.363 1_554 S
C573 N575 1.362 1_554 S
C573 H591 0.931 . S
C574 N571 1.311 . S
C574 N575 1.383 . S
C574 H585 0.929 . S
N575 C573 1.362 1_556 S
N575 C574 1.383 . S
C576 C579 1.365 . S
C576 N581 1.328 . S
C576 H582 0.929 . S
C577 C578 1.362 . S
C577 C580 1.378 . S
C577 H592 0.929 . S
C578 C577 1.362 . S
C578 C579 1.366 . S
C579 C576 1.365 . S
C579 C578 1.366 . S
C579 H593 0.930 . S
C580 C577 1.378 . S
C580 N581 1.315 . S
C580 H583 0.930 . S
N581 Co561 2.194 . S
N581 C576 1.328 . S
N581 C580 1.315 . S
H582 C576 0.929 . S
H583 C580 0.930 . S
H584 C572 0.929 . S
H585 C574 0.929 . S
O586 Co561 2.351 . S
O586 C589 1.244 . S
O587 Co561 2.155 . S
O587 C589 1.240 . S
O588 Co561 2.096 . S
O588 C569 1.247 . S
C589 O586 1.244 . S
C589 O587 1.240 . S
H590 C564 0.931 . S
H591 C573 0.931 . S
H592 C577 0.929 . S
H593 C579 0.930 . S
Co594 N598 2.148 . S
Co594 N604 2.128 . S
Co594 N614 2.194 . S
Co594 O619 2.351 . S
Co594 O620 2.155 . S
Co594 O621 2.096 . S
C595 N598 1.301 . S
C595 N599 1.328 . S
C595 H600 0.930 . S
C596 C597 1.333 . S
C596 N598 1.317 . S
C596 H601 0.930 . S
C597 C596 1.333 . S
C597 N599 1.350 . S
C597 H623 0.931 . S
N598 Co594 2.148 . S
N598 C595 1.301 . S
N598 C596 1.317 . S
N599 C595 1.328 . S
N599 C597 1.350 . S
H600 C595 0.930 . S
H601 C596 0.930 . S
C602 O603 1.224 . S
C602 O621 1.247 . S
O603 C602 1.224 . S
N604 Co594 2.128 . S
N604 C605 1.355 . S
N604 C607 1.311 . S
C605 N604 1.355 . S
C605 C606 1.363 . S
C605 H617 0.929 . S
C606 C605 1.363 . S
C606 N608 1.375 . S
C606 H624 0.931 . S
C607 N604 1.311 . S
C607 N608 1.347 . S
C607 H618 0.929 . S
N608 C606 1.375 . S
N608 C607 1.347 . S
C609 C612 1.365 . S
C609 N614 1.328 . S
C609 H615 0.929 . S
C610 C611 1.362 . S
C610 C613 1.378 . S
C610 H625 0.929 . S
C611 C610 1.362 . S
C611 C612 1.366 . S
C612 C609 1.365 . S
C612 C611 1.366 . S
C612 H626 0.930 . S
C613 C610 1.378 . S
C613 N614 1.315 . S
C613 H616 0.930 . S
N614 Co594 2.194 . S
N614 C609 1.328 . S
N614 C613 1.315 . S
H615 C609 0.929 . S
H616 C613 0.930 . S
H617 C605 0.929 . S
H618 C607 0.929 . S
O619 Co594 2.351 . S
O619 C622 1.244 . S
O620 Co594 2.155 . S
O620 C622 1.240 . S
O621 Co594 2.096 . S
O621 C602 1.247 . S
C622 O619 1.244 . S
C622 O620 1.240 . S
H623 C597 0.931 . S
H624 C606 0.931 . S
H625 C610 0.929 . S
H626 C612 0.930 . S
Co627 N631 2.148 . S
Co627 N637 2.128 . S
Co627 N647 2.194 . S
Co627 O652 2.351 . S
Co627 O653 2.155 . S
Co627 O654 2.096 . S
C628 N631 1.301 . S
C628 N632 1.328 . S
C628 H633 0.930 . S
C629 C630 1.333 . S
C629 N631 1.317 . S
C629 H634 0.930 . S
C630 C629 1.333 . S
C630 N632 1.350 . S
C630 H656 0.931 . S
N631 Co627 2.148 . S
N631 C628 1.301 . S
N631 C629 1.317 . S
N632 C628 1.328 . S
N632 C630 1.350 . S
H633 C628 0.930 . S
H634 C629 0.930 . S
C635 O636 1.224 . S
C635 O654 1.247 . S
O636 C635 1.224 . S
N637 Co627 2.128 . S
N637 C638 1.355 . S
N637 C640 1.311 . S
C638 N637 1.355 . S
C638 C639 1.363 1_556 S
C638 H650 0.929 . S
C639 C638 1.363 1_554 S
C639 N641 1.362 1_554 S
C639 H657 0.931 . S
C640 N637 1.311 . S
C640 N641 1.383 . S
C640 H651 0.929 . S
N641 C639 1.362 1_556 S
N641 C640 1.383 . S
C642 C645 1.365 . S
C642 N647 1.328 . S
C642 H648 0.929 . S
C643 C644 1.362 . S
C643 C646 1.378 . S
C643 H658 0.929 . S
C644 C643 1.362 . S
C644 C645 1.366 . S
C645 C642 1.365 . S
C645 C644 1.366 . S
C645 H659 0.930 . S
C646 C643 1.378 . S
C646 N647 1.315 . S
C646 H649 0.930 . S
N647 Co627 2.194 . S
N647 C642 1.328 . S
N647 C646 1.315 . S
H648 C642 0.929 . S
H649 C646 0.930 . S
H650 C638 0.929 . S
H651 C640 0.929 . S
O652 Co627 2.351 . S
O652 C655 1.244 . S
O653 Co627 2.155 . S
O653 C655 1.240 . S
O654 Co627 2.096 . S
O654 C635 1.247 . S
C655 O652 1.244 . S
C655 O653 1.240 . S
H656 C630 0.931 . S
H657 C639 0.931 . S
H658 C643 0.929 . S
H659 C645 0.930 . S
Co660 N664 2.148 . S
Co660 N670 2.128 . S
Co660 N680 2.194 . S
Co660 O685 2.351 . S
Co660 O686 2.155 . S
Co660 O687 2.096 . S
C661 N664 1.301 . S
C661 N665 1.328 . S
C661 H666 0.930 . S
C662 C663 1.333 . S
C662 N664 1.317 . S
C662 H667 0.930 . S
C663 C662 1.333 . S
C663 N665 1.350 . S
C663 H689 0.931 . S
N664 Co660 2.148 . S
N664 C661 1.301 . S
N664 C662 1.317 . S
N665 C661 1.328 . S
N665 C663 1.350 . S
H666 C661 0.930 . S
H667 C662 0.930 . S
C668 O669 1.224 . S
C668 O687 1.247 . S
O669 C668 1.224 . S
N670 Co660 2.128 . S
N670 C671 1.355 . S
N670 C673 1.311 . S
C671 N670 1.355 . S
C671 C672 1.363 . S
C671 H683 0.929 . S
C672 C671 1.363 . S
C672 N674 1.375 . S
C672 H690 0.931 . S
C673 N670 1.311 . S
C673 N674 1.347 . S
C673 H684 0.929 . S
N674 C672 1.375 . S
N674 C673 1.347 . S
C675 C678 1.365 . S
C675 N680 1.328 . S
C675 H681 0.929 . S
C676 C677 1.362 . S
C676 C679 1.378 . S
C676 H691 0.929 . S
C677 C676 1.362 . S
C677 C678 1.366 . S
C678 C675 1.365 . S
C678 C677 1.366 . S
C678 H692 0.930 . S
C679 C676 1.378 . S
C679 N680 1.315 . S
C679 H682 0.930 . S
N680 Co660 2.194 . S
N680 C675 1.328 . S
N680 C679 1.315 . S
H681 C675 0.929 . S
H682 C679 0.930 . S
H683 C671 0.929 . S
H684 C673 0.929 . S
O685 Co660 2.351 . S
O685 C688 1.244 . S
O686 Co660 2.155 . S
O686 C688 1.240 . S
O687 Co660 2.096 . S
O687 C668 1.247 . S
C688 O685 1.244 . S
C688 O686 1.240 . S
H689 C663 0.931 . S
H690 C672 0.931 . S
H691 C676 0.929 . S
H692 C678 0.930 . S
Co693 N697 2.148 . S
Co693 N703 2.128 . S
Co693 N713 2.194 . S
Co693 O718 2.351 . S
Co693 O719 2.155 . S
Co693 O720 2.096 . S
C694 N697 1.301 . S
C694 N698 1.328 . S
C694 H699 0.930 . S
C695 C696 1.333 . S
C695 N697 1.317 . S
C695 H700 0.930 . S
C696 C695 1.333 . S
C696 N698 1.350 . S
C696 H722 0.931 . S
N697 Co693 2.148 . S
N697 C694 1.301 . S
N697 C695 1.317 . S
N698 C694 1.328 . S
N698 C696 1.350 . S
H699 C694 0.930 . S
H700 C695 0.930 . S
C701 O702 1.224 . S
C701 O720 1.247 . S
O702 C701 1.224 . S
N703 Co693 2.128 . S
N703 C704 1.355 . S
N703 C706 1.311 . S
C704 N703 1.355 . S
C704 C705 1.363 1_554 S
C704 H716 0.929 . S
C705 C704 1.363 1_556 S
C705 N707 1.362 1_556 S
C705 H723 0.931 . S
C706 N703 1.311 . S
C706 N707 1.383 . S
C706 H717 0.929 . S
N707 C705 1.362 1_554 S
N707 C706 1.383 . S
C708 C711 1.365 . S
C708 N713 1.328 . S
C708 H714 0.929 . S
C709 C710 1.362 . S
C709 C712 1.378 . S
C709 H724 0.929 . S
C710 C709 1.362 . S
C710 C711 1.366 . S
C711 C708 1.365 . S
C711 C710 1.366 . S
C711 H725 0.930 . S
C712 C709 1.378 . S
C712 N713 1.315 . S
C712 H715 0.930 . S
N713 Co693 2.194 . S
N713 C708 1.328 . S
N713 C712 1.315 . S
H714 C708 0.929 . S
H715 C712 0.930 . S
H716 C704 0.929 . S
H717 C706 0.929 . S
O718 Co693 2.351 . S
O718 C721 1.244 . S
O719 Co693 2.155 . S
O719 C721 1.240 . S
O720 Co693 2.096 . S
O720 C701 1.247 . S
C721 O718 1.244 . S
C721 O719 1.240 . S
H722 C696 0.931 . S
H723 C705 0.931 . S
H724 C709 0.929 . S
H725 C711 0.930 . S
Co726 N730 2.148 . S
Co726 N736 2.128 . S
Co726 N746 2.194 . S
Co726 O751 2.351 . S
Co726 O752 2.155 . S
Co726 O753 2.096 . S
C727 N730 1.301 . S
C727 N731 1.328 . S
C727 H732 0.930 . S
C728 C729 1.333 . S
C728 N730 1.317 . S
C728 H733 0.930 . S
C729 C728 1.333 . S
C729 N731 1.350 . S
C729 H755 0.931 . S
N730 Co726 2.148 . S
N730 C727 1.301 . S
N730 C728 1.317 . S
N731 C727 1.328 . S
N731 C729 1.350 . S
H732 C727 0.930 . S
H733 C728 0.930 . S
C734 O735 1.224 . S
C734 O753 1.247 . S
O735 C734 1.224 . S
N736 Co726 2.128 . S
N736 C737 1.355 . S
N736 C739 1.311 . S
C737 N736 1.355 . S
C737 C738 1.363 . S
C737 H749 0.929 . S
C738 C737 1.363 . S
C738 N740 1.375 . S
C738 H756 0.931 . S
C739 N736 1.311 . S
C739 N740 1.347 . S
C739 H750 0.929 . S
N740 C738 1.375 . S
N740 C739 1.347 . S
C741 C744 1.365 . S
C741 N746 1.328 . S
C741 H747 0.929 . S
C742 C743 1.362 . S
C742 C745 1.378 . S
C742 H757 0.929 . S
C743 C742 1.362 . S
C743 C744 1.366 . S
C744 C741 1.365 . S
C744 C743 1.366 . S
C744 H758 0.930 . S
C745 C742 1.378 . S
C745 N746 1.315 . S
C745 H748 0.930 . S
N746 Co726 2.194 . S
N746 C741 1.328 . S
N746 C745 1.315 . S
H747 C741 0.929 . S
H748 C745 0.930 . S
H749 C737 0.929 . S
H750 C739 0.929 . S
O751 Co726 2.351 . S
O751 C754 1.244 . S
O752 Co726 2.155 . S
O752 C754 1.240 . S
O753 Co726 2.096 . S
O753 C734 1.247 . S
C754 O751 1.244 . S
C754 O752 1.240 . S
H755 C729 0.931 . S
H756 C738 0.931 . S
H757 C742 0.929 . S
H758 C744 0.930 . S
Co759 N763 2.148 . S
Co759 N769 2.128 . S
Co759 N779 2.194 . S
Co759 O784 2.351 . S
Co759 O785 2.155 . S
Co759 O786 2.096 . S
C760 N763 1.301 . S
C760 N764 1.328 . S
C760 H765 0.930 . S
C761 C762 1.333 . S
C761 N763 1.317 . S
C761 H766 0.930 . S
C762 C761 1.333 . S
C762 N764 1.350 . S
C762 H788 0.931 . S
N763 Co759 2.148 . S
N763 C760 1.301 . S
N763 C761 1.317 . S
N764 C760 1.328 . S
N764 C762 1.350 . S
H765 C760 0.930 . S
H766 C761 0.930 . S
C767 O768 1.224 . S
C767 O786 1.247 . S
O768 C767 1.224 . S
N769 Co759 2.128 . S
N769 C770 1.355 . S
N769 C772 1.311 . S
C770 N769 1.355 . S
C770 C771 1.363 . S
C770 H782 0.929 . S
C771 C770 1.363 . S
C771 N773 1.375 . S
C771 H789 0.931 . S
C772 N769 1.311 . S
C772 N773 1.347 . S
C772 H783 0.929 . S
N773 C771 1.375 . S
N773 C772 1.347 . S
C774 C777 1.365 . S
C774 N779 1.328 . S
C774 H780 0.929 . S
C775 C776 1.362 . S
C775 C778 1.378 . S
C775 H790 0.929 . S
C776 C775 1.362 . S
C776 C777 1.366 . S
C777 C774 1.365 . S
C777 C776 1.366 . S
C777 H791 0.930 . S
C778 C775 1.378 . S
C778 N779 1.315 . S
C778 H781 0.930 . S
N779 Co759 2.194 . S
N779 C774 1.328 . S
N779 C778 1.315 . S
H780 C774 0.929 . S
H781 C778 0.930 . S
H782 C770 0.929 . S
H783 C772 0.929 . S
O784 Co759 2.351 . S
O784 C787 1.244 . S
O785 Co759 2.155 . S
O785 C787 1.240 . S
O786 Co759 2.096 . S
O786 C767 1.247 . S
C787 O784 1.244 . S
C787 O785 1.240 . S
H788 C762 0.931 . S
H789 C771 0.931 . S
H790 C775 0.929 . S
H791 C777 0.930 . S
H792 C798 0.930 . S
H793 C801 0.930 . S
H794 C802 0.930 . S
H795 C803 0.930 . S
H796 C806 0.930 . S
H797 C807 0.930 . S
C798 H792 0.930 . S
C798 C799 1.355 . S
C798 C800 1.415 . S
C799 C798 1.355 . S
C799 C801 1.419 . S
C800 C798 1.415 . S
C800 C805 1.425 . S
C800 C807 1.409 . S
C801 H793 0.930 . S
C801 C799 1.419 . S
C801 C802 1.362 . S
C802 H794 0.930 . S
C802 C801 1.362 . S
C802 C805 1.409 . S
C803 H795 0.930 . S
C803 C804 1.355 . S
C803 C805 1.415 . S
C804 C803 1.355 . S
C804 C806 1.419 . S
C805 C800 1.425 . S
C805 C802 1.409 . S
C805 C803 1.415 . S
C806 H796 0.930 . S
C806 C804 1.419 . S
C806 C807 1.362 . S
C807 H797 0.930 . S
C807 C800 1.409 . S
C807 C806 1.362 . S
H808 C814 0.930 . S
H809 C817 0.930 . S
H810 C818 0.930 . S
H811 C819 0.930 . S
H812 C822 0.930 . S
H813 C823 0.930 . S
C814 H808 0.930 . S
C814 C815 1.355 . S
C814 C816 1.415 . S
C815 C814 1.355 . S
C815 C817 1.419 . S
C816 C814 1.415 . S
C816 C821 1.425 . S
C816 C823 1.409 . S
C817 H809 0.930 . S
C817 C815 1.419 . S
C817 C818 1.362 . S
C818 H810 0.930 . S
C818 C817 1.362 . S
C818 C821 1.409 . S
C819 H811 0.930 . S
C819 C820 1.355 . S
C819 C821 1.415 . S
C820 C819 1.355 . S
C820 C822 1.419 . S
C821 C816 1.425 . S
C821 C818 1.409 . S
C821 C819 1.415 . S
C822 H812 0.930 . S
C822 C820 1.419 . S
C822 C823 1.362 . S
C823 H813 0.930 . S
C823 C816 1.409 . S
C823 C822 1.362 . S
H824 C830 0.930 . S
H825 C833 0.930 . S
H826 C834 0.930 . S
H827 C835 0.930 . S
H828 C838 0.930 . S
H829 C839 0.930 . S
C830 H824 0.930 . S
C830 C831 1.355 . S
C830 C832 1.415 . S
C831 C830 1.355 . S
C831 C833 1.419 . S
C832 C830 1.415 . S
C832 C837 1.425 . S
C832 C839 1.409 . S
C833 H825 0.930 . S
C833 C831 1.419 . S
C833 C834 1.362 . S
C834 H826 0.930 . S
C834 C833 1.362 . S
C834 C837 1.409 . S
C835 H827 0.930 . S
C835 C836 1.355 . S
C835 C837 1.415 . S
C836 C835 1.355 . S
C836 C838 1.419 . S
C837 C832 1.425 . S
C837 C834 1.409 . S
C837 C835 1.415 . S
C838 H828 0.930 . S
C838 C836 1.419 . S
C838 C839 1.362 . S
C839 H829 0.930 . S
C839 C832 1.409 . S
C839 C838 1.362 . S
H840 C846 0.930 . S
H841 C849 0.930 . S
H842 C850 0.930 . S
H843 C851 0.930 . S
H844 C854 0.930 1_655 S
H845 C855 0.930 . S
C846 H840 0.930 . S
C846 C847 1.355 . S
C846 C848 1.415 . S
C847 C846 1.355 . S
C847 C849 1.419 . S
C848 C846 1.415 . S
C848 C853 1.425 . S
C848 C855 1.409 . S
C849 H841 0.930 . S
C849 C847 1.419 . S
C849 C850 1.362 . S
C850 H842 0.930 . S
C850 C849 1.362 . S
C850 C853 1.409 . S
C851 H843 0.930 . S
C851 C852 1.355 . S
C851 C853 1.415 . S
C852 C851 1.355 . S
C852 C854 1.419 . S
C853 C848 1.425 . S
C853 C850 1.409 . S
C853 C851 1.415 . S
C854 H844 0.930 1_455 S
C854 C852 1.419 . S
C854 C855 1.362 . S
C855 H845 0.930 . S
C855 C848 1.409 . S
C855 C854 1.362 . S
H856 C862 0.930 . S
H857 C865 0.930 . S
H858 C866 0.930 . S
H859 C867 0.930 . S
H860 C870 0.930 . S
H861 C871 0.930 . S
C862 H856 0.930 . S
C862 C863 1.355 . S
C862 C864 1.415 . S
C863 C862 1.355 . S
C863 C865 1.419 . S
C864 C862 1.415 . S
C864 C869 1.425 . S
C864 C871 1.409 . S
C865 H857 0.930 . S
C865 C863 1.419 . S
C865 C866 1.362 . S
C866 H858 0.930 . S
C866 C865 1.362 . S
C866 C869 1.409 . S
C867 H859 0.930 . S
C867 C868 1.355 . S
C867 C869 1.415 . S
C868 C867 1.355 . S
C868 C870 1.419 . S
C869 C864 1.425 . S
C869 C866 1.409 . S
C869 C867 1.415 . S
C870 H860 0.930 . S
C870 C868 1.419 . S
C870 C871 1.362 . S
C871 H861 0.930 . S
C871 C864 1.409 . S
C871 C870 1.362 . S
H872 C878 0.930 . S
H873 C881 0.930 1_655 S
H874 C882 0.930 . S
H875 C883 0.930 . S
H876 C886 0.930 . S
H877 C887 0.930 . S
C878 H872 0.930 . S
C878 C879 1.355 . S
C878 C880 1.415 . S
C879 C878 1.355 . S
C879 C881 1.419 . S
C880 C878 1.415 . S
C880 C885 1.425 . S
C880 C887 1.409 . S
C881 H873 0.930 1_455 S
C881 C879 1.419 . S
C881 C882 1.362 . S
C882 H874 0.930 . S
C882 C881 1.362 . S
C882 C885 1.409 . S
C883 H875 0.930 . S
C883 C884 1.355 . S
C883 C885 1.415 . S
C884 C883 1.355 . S
C884 C886 1.419 . S
C885 C880 1.425 . S
C885 C882 1.409 . S
C885 C883 1.415 . S
C886 H876 0.930 . S
C886 C884 1.419 . S
C886 C887 1.362 . S
C887 H877 0.930 . S
C887 C880 1.409 . S
C887 C886 1.362 . S
H888 C894 0.930 . S
H889 C897 0.930 . S
H890 C898 0.930 . S
H891 C899 0.930 . S
H892 C902 0.930 . S
H893 C903 0.930 . S
C894 H888 0.930 . S
C894 C895 1.355 . S
C894 C896 1.415 . S
C895 C894 1.355 . S
C895 C897 1.419 . S
C896 C894 1.415 . S
C896 C901 1.425 . S
C896 C903 1.409 . S
C897 H889 0.930 . S
C897 C895 1.419 . S
C897 C898 1.362 . S
C898 H890 0.930 . S
C898 C897 1.362 . S
C898 C901 1.409 . S
C899 H891 0.930 . S
C899 C900 1.355 . S
C899 C901 1.415 . S
C900 C899 1.355 . S
C900 C902 1.419 . S
C901 C896 1.425 . S
C901 C898 1.409 . S
C901 C899 1.415 . S
C902 H892 0.930 . S
C902 C900 1.419 . S
C902 C903 1.362 . S
C903 H893 0.930 . S
C903 C896 1.409 . S
C903 C902 1.362 . S
H904 C910 0.930 . S
H905 C913 0.930 . S
H906 C914 0.930 . S
H907 C915 0.930 . S
H908 C918 0.930 . S
H909 C919 0.930 . S
C910 H904 0.930 . S
C910 C911 1.355 . S
C910 C912 1.415 . S
C911 C910 1.355 . S
C911 C913 1.419 . S
C912 C910 1.415 . S
C912 C917 1.425 . S
C912 C919 1.409 . S
C913 H905 0.930 . S
C913 C911 1.419 . S
C913 C914 1.362 . S
C914 H906 0.930 . S
C914 C913 1.362 . S
C914 C917 1.409 . S
C915 H907 0.930 . S
C915 C916 1.355 . S
C915 C917 1.415 . S
C916 C915 1.355 . S
C916 C918 1.419 . S
C917 C912 1.425 . S
C917 C914 1.409 . S
C917 C915 1.415 . S
C918 H908 0.930 . S
C918 C916 1.419 . S
C918 C919 1.362 . S
C919 H909 0.930 . S
C919 C912 1.409 . S
C919 C918 1.362 . S
H920 C926 0.930 . S
H921 C929 0.930 . S
H922 C930 0.930 . S
H923 C931 0.930 . S
H924 C934 0.930 . S
H925 C935 0.930 . S
C926 H920 0.930 . S
C926 C927 1.355 . S
C926 C928 1.415 . S
C927 C926 1.355 . S
C927 C929 1.419 . S
C928 C926 1.415 . S
C928 C933 1.425 . S
C928 C935 1.409 . S
C929 H921 0.930 . S
C929 C927 1.419 . S
C929 C930 1.362 . S
C930 H922 0.930 . S
C930 C929 1.362 . S
C930 C933 1.409 . S
C931 H923 0.930 . S
C931 C932 1.355 . S
C931 C933 1.415 . S
C932 C931 1.355 . S
C932 C934 1.419 . S
C933 C928 1.425 . S
C933 C930 1.409 . S
C933 C931 1.415 . S
C934 H924 0.930 . S
C934 C932 1.419 . S
C934 C935 1.362 . S
C935 H925 0.930 . S
C935 C928 1.409 . S
C935 C934 1.362 . S
H936 C942 0.930 . S
H937 C945 0.930 . S
H938 C946 0.930 . S
H939 C947 0.930 . S
H940 C950 0.944 . S
H941 C951 0.930 . S
C942 H936 0.930 . S
C942 C943 1.355 . S
C942 C944 1.415 . S
C943 C942 1.355 . S
C943 C945 1.419 . S
C944 C942 1.415 . S
C944 C949 1.425 . S
C944 C951 1.409 . S
C945 H937 0.930 . S
C945 C943 1.419 . S
C945 C946 1.362 . S
C946 H938 0.930 . S
C946 C945 1.362 . S
C946 C949 1.409 . S
C947 H939 0.930 . S
C947 C948 1.355 . S
C947 C949 1.415 . S
C948 C947 1.355 . S
C948 C950 1.419 . S
C949 C944 1.425 . S
C949 C946 1.409 . S
C949 C947 1.415 . S
C950 H940 0.944 . S
C950 C948 1.419 . S
C950 C951 1.362 . S
C951 H941 0.930 . S
C951 C944 1.409 . S
C951 C950 1.362 . S
H952 C958 0.930 . S
H953 C961 0.930 . S
H954 C962 0.930 . S
H955 C963 0.930 . S
H956 C966 0.930 . S
H957 C967 0.930 . S
C958 H952 0.930 . S
C958 C959 1.355 . S
C958 C960 1.415 . S
C959 C958 1.355 . S
C959 C961 1.419 . S
C960 C958 1.415 . S
C960 C965 1.425 . S
C960 C967 1.409 . S
C961 H953 0.930 . S
C961 C959 1.419 . S
C961 C962 1.362 . S
C962 H954 0.930 . S
C962 C961 1.362 . S
C962 C965 1.409 . S
C963 H955 0.930 . S
C963 C964 1.355 . S
C963 C965 1.415 . S
C964 C963 1.355 . S
C964 C966 1.419 . S
C965 C960 1.425 . S
C965 C962 1.409 . S
C965 C963 1.415 . S
C966 H956 0.930 . S
C966 C964 1.419 . S
C966 C967 1.362 . S
C967 H957 0.930 . S
C967 C960 1.409 . S
C967 C966 1.362 . S
H968 C974 0.930 . S
H969 C977 0.930 . S
H970 C978 0.930 . S
H971 C979 0.930 . S
H972 C982 0.930 . S
H973 C983 0.930 . S
C974 H968 0.930 . S
C974 C975 1.355 . S
C974 C976 1.415 . S
C975 C974 1.355 . S
C975 C977 1.419 . S
C976 C974 1.415 . S
C976 C981 1.425 . S
C976 C983 1.409 . S
C977 H969 0.930 . S
C977 C975 1.419 . S
C977 C978 1.362 . S
C978 H970 0.930 . S
C978 C977 1.362 . S
C978 C981 1.409 . S
C979 H971 0.930 . S
C979 C980 1.355 . S
C979 C981 1.415 . S
C980 C979 1.355 . S
C980 C982 1.419 . S
C981 C976 1.425 . S
C981 C978 1.409 . S
C981 C979 1.415 . S
C982 H972 0.930 . S
C982 C980 1.419 . S
C982 C983 1.362 . S
C983 H973 0.930 . S
C983 C976 1.409 . S
C983 C982 1.362 . S
H984 C990 0.930 . S
H985 C993 0.930 . S
H986 C994 0.930 . S
H987 C995 0.930 . S
H988 C998 0.930 . S
H989 C999 0.930 . S
C990 H984 0.930 . S
C990 C991 1.355 . S
C990 C992 1.415 . S
C991 C990 1.355 . S
C991 C993 1.419 . S
C992 C990 1.415 . S
C992 C997 1.425 . S
C992 C999 1.409 . S
C993 H985 0.930 . S
C993 C991 1.419 . S
C993 C994 1.362 . S
C994 H986 0.930 . S
C994 C993 1.362 . S
C994 C997 1.409 . S
C995 H987 0.930 . S
C995 C996 1.355 . S
C995 C997 1.415 . S
C996 C995 1.355 . S
C996 C998 1.419 . S
C997 C992 1.425 . S
C997 C994 1.409 . S
C997 C995 1.415 . S
C998 H988 0.930 . S
C998 C996 1.419 . S
C998 C999 1.362 . S
C999 H989 0.930 . S
C999 C992 1.409 . S
C999 C998 1.362 . S
H1000 C1006 0.930 . S
H1001 C1009 0.930 . S
H1002 C1010 0.930 . S
H1003 C1011 0.930 . S
H1004 C1014 0.930 . S
H1005 C1015 0.930 . S
C1006 H1000 0.930 . S
C1006 C1007 1.355 . S
C1006 C1008 1.415 . S
C1007 C1006 1.355 . S
C1007 C1009 1.419 . S
C1008 C1006 1.415 . S
C1008 C1013 1.425 . S
C1008 C1015 1.409 . S
C1009 H1001 0.930 . S
C1009 C1007 1.419 . S
C1009 C1010 1.362 . S
C1010 H1002 0.930 . S
C1010 C1009 1.362 . S
C1010 C1013 1.409 . S
C1011 H1003 0.930 . S
C1011 C1012 1.355 . S
C1011 C1013 1.415 . S
C1012 C1011 1.355 . S
C1012 C1014 1.419 . S
C1013 C1008 1.425 . S
C1013 C1010 1.409 . S
C1013 C1011 1.415 . S
C1014 H1004 0.930 . S
C1014 C1012 1.419 . S
C1014 C1015 1.362 . S
C1015 H1005 0.930 . S
C1015 C1008 1.409 . S
C1015 C1014 1.362 . S
H1016 C1022 0.930 . S
H1017 C1025 0.930 . S
H1018 C1026 0.930 . S
H1019 C1027 0.930 . S
H1020 C1030 0.930 . S
H1021 C1031 0.930 . S
C1022 H1016 0.930 . S
C1022 C1023 1.355 . S
C1022 C1024 1.415 . S
C1023 C1022 1.355 . S
C1023 C1025 1.419 . S
C1024 C1022 1.415 . S
C1024 C1029 1.425 . S
C1024 C1031 1.409 . S
C1025 H1017 0.930 . S
C1025 C1023 1.419 . S
C1025 C1026 1.362 . S
C1026 H1018 0.930 . S
C1026 C1025 1.362 . S
C1026 C1029 1.409 . S
C1027 H1019 0.930 . S
C1027 C1028 1.355 . S
C1027 C1029 1.415 . S
C1028 C1027 1.355 . S
C1028 C1030 1.419 . S
C1029 C1024 1.425 . S
C1029 C1026 1.409 . S
C1029 C1027 1.415 . S
C1030 H1020 0.930 . S
C1030 C1028 1.419 . S
C1030 C1031 1.362 . S
C1031 H1021 0.930 . S
C1031 C1024 1.409 . S
C1031 C1030 1.362 . S
H1032 C1038 0.930 . S
H1033 C1041 0.930 1_554 S
H1034 C1042 0.930 . S
H1035 C1043 0.930 . S
H1036 C1046 0.930 . S
H1037 C1047 0.930 . S
C1038 H1032 0.930 . S
C1038 C1039 1.355 . S
C1038 C1040 1.415 . S
C1039 C1038 1.355 . S
C1039 C1041 1.419 . S
C1040 C1038 1.415 . S
C1040 C1045 1.425 . S
C1040 C1047 1.409 . S
C1041 H1033 0.930 1_556 S
C1041 C1039 1.419 . S
C1041 C1042 1.362 . S
C1042 H1034 0.930 . S
C1042 C1041 1.362 . S
C1042 C1045 1.409 . S
C1043 H1035 0.930 . S
C1043 C1044 1.355 . S
C1043 C1045 1.415 . S
C1044 C1043 1.355 . S
C1044 C1046 1.419 . S
C1045 C1040 1.425 . S
C1045 C1042 1.409 . S
C1045 C1043 1.415 . S
C1046 H1036 0.930 . S
C1046 C1044 1.419 . S
C1046 C1047 1.362 . S
C1047 H1037 0.930 . S
C1047 C1040 1.409 . S
C1047 C1046 1.362 . S
H1048 C1054 0.930 . S
H1049 C1057 0.930 . S
H1050 C1058 0.930 . S
H1051 C1059 0.930 . S
H1052 C1062 0.930 . S
H1053 C1063 0.930 . S
C1054 H1048 0.930 . S
C1054 C1055 1.355 . S
C1054 C1056 1.415 . S
C1055 C1054 1.355 . S
C1055 C1057 1.419 . S
C1056 C1054 1.415 . S
C1056 C1061 1.425 . S
C1056 C1063 1.409 . S
C1057 H1049 0.930 . S
C1057 C1055 1.419 . S
C1057 C1058 1.362 . S
C1058 H1050 0.930 . S
C1058 C1057 1.362 . S
C1058 C1061 1.409 . S
C1059 H1051 0.930 . S
C1059 C1060 1.355 . S
C1059 C1061 1.415 . S
C1060 C1059 1.355 . S
C1060 C1062 1.419 . S
C1061 C1056 1.425 . S
C1061 C1058 1.409 . S
C1061 C1059 1.415 . S
C1062 H1052 0.930 . S
C1062 C1060 1.419 . S
C1062 C1063 1.362 . S
C1063 H1053 0.930 . S
C1063 C1056 1.409 . S
C1063 C1062 1.362 . S
H1064 C1070 0.930 . S
H1065 C1073 0.930 . S
H1066 C1074 0.930 . S
H1067 C1075 0.930 . S
H1068 C1078 0.930 . S
H1069 C1079 0.930 . S
C1070 H1064 0.930 . S
C1070 C1071 1.355 . S
C1070 C1072 1.415 . S
C1071 C1070 1.355 . S
C1071 C1073 1.419 . S
C1072 C1070 1.415 . S
C1072 C1077 1.425 . S
C1072 C1079 1.409 . S
C1073 H1065 0.930 . S
C1073 C1071 1.419 . S
C1073 C1074 1.362 . S
C1074 H1066 0.930 . S
C1074 C1073 1.362 . S
C1074 C1077 1.409 . S
C1075 H1067 0.930 . S
C1075 C1076 1.355 . S
C1075 C1077 1.415 . S
C1076 C1075 1.355 . S
C1076 C1078 1.419 . S
C1077 C1072 1.425 . S
C1077 C1074 1.409 . S
C1077 C1075 1.415 . S
C1078 H1068 0.930 . S
C1078 C1076 1.419 . S
C1078 C1079 1.362 . S
C1079 H1069 0.930 . S
C1079 C1072 1.409 . S
C1079 C1078 1.362 . S
H1080 C1086 0.930 . S
H1081 C1089 0.930 1_565 S
H1082 C1090 0.930 . S
H1083 C1091 0.930 . S
H1084 C1094 0.930 . S
H1085 C1095 0.930 . S
C1086 H1080 0.930 . S
C1086 C1087 1.355 . S
C1086 C1088 1.415 . S
C1087 C1086 1.355 . S
C1087 C1089 1.419 . S
C1088 C1086 1.415 . S
C1088 C1093 1.425 . S
C1088 C1095 1.409 . S
C1089 H1081 0.930 1_545 S
C1089 C1087 1.419 . S
C1089 C1090 1.362 . S
C1090 H1082 0.930 . S
C1090 C1089 1.362 . S
C1090 C1093 1.409 . S
C1091 H1083 0.930 . S
C1091 C1092 1.355 . S
C1091 C1093 1.415 . S
C1092 C1091 1.355 . S
C1092 C1094 1.419 . S
C1093 C1088 1.425 . S
C1093 C1090 1.409 . S
C1093 C1091 1.415 . S
C1094 H1084 0.930 . S
C1094 C1092 1.419 . S
C1094 C1095 1.362 . S
C1095 H1085 0.930 . S
C1095 C1088 1.409 . S
C1095 C1094 1.362 . S
H1096 C1102 0.930 . S
H1097 C1105 0.930 . S
H1098 C1106 0.930 . S
H1099 C1107 0.930 . S
H1100 C1110 0.930 . S
H1101 C1111 0.930 . S
C1102 H1096 0.930 . S
C1102 C1103 1.355 . S
C1102 C1104 1.415 . S
C1103 C1102 1.355 . S
C1103 C1105 1.419 . S
C1104 C1102 1.415 . S
C1104 C1109 1.425 . S
C1104 C1111 1.409 . S
C1105 H1097 0.930 . S
C1105 C1103 1.419 . S
C1105 C1106 1.362 . S
C1106 H1098 0.930 . S
C1106 C1105 1.362 . S
C1106 C1109 1.409 . S
C1107 H1099 0.930 . S
C1107 C1108 1.355 . S
C1107 C1109 1.415 . S
C1108 C1107 1.355 . S
C1108 C1110 1.419 . S
C1109 C1104 1.425 . S
C1109 C1106 1.409 . S
C1109 C1107 1.415 . S
C1110 H1100 0.930 . S
C1110 C1108 1.419 . S
C1110 C1111 1.362 . S
C1111 H1101 0.930 . S
C1111 C1104 1.409 . S
C1111 C1110 1.362 . S
H1112 C1118 0.930 . S
H1113 C1121 0.930 . S
H1114 C1122 0.930 . S
H1115 C1123 0.930 . S
H1116 C1126 0.930 . S
H1117 C1127 0.930 . S
C1118 H1112 0.930 . S
C1118 C1119 1.355 . S
C1118 C1120 1.415 . S
C1119 C1118 1.355 . S
C1119 C1121 1.419 . S
C1120 C1118 1.415 . S
C1120 C1125 1.425 . S
C1120 C1127 1.409 . S
C1121 H1113 0.930 . S
C1121 C1119 1.419 . S
C1121 C1122 1.362 . S
C1122 H1114 0.930 . S
C1122 C1121 1.362 . S
C1122 C1125 1.409 . S
C1123 H1115 0.930 . S
C1123 C1124 1.355 . S
C1123 C1125 1.415 . S
C1124 C1123 1.355 . S
C1124 C1126 1.419 . S
C1125 C1120 1.425 . S
C1125 C1122 1.409 . S
C1125 C1123 1.415 . S
C1126 H1116 0.930 . S
C1126 C1124 1.419 . S
C1126 C1127 1.362 . S
C1127 H1117 0.930 . S
C1127 C1120 1.409 . S
C1127 C1126 1.362 . S
H1128 C1134 0.930 . S
H1129 C1137 0.930 . S
H1130 C1138 0.930 . S
H1131 C1139 0.930 . S
H1132 C1142 0.930 . S
H1133 C1143 0.930 . S
C1134 H1128 0.930 . S
C1134 C1135 1.355 . S
C1134 C1136 1.415 . S
C1135 C1134 1.355 . S
C1135 C1137 1.419 . S
C1136 C1134 1.415 . S
C1136 C1141 1.425 . S
C1136 C1143 1.409 . S
C1137 H1129 0.930 . S
C1137 C1135 1.419 . S
C1137 C1138 1.362 . S
C1138 H1130 0.930 . S
C1138 C1137 1.362 . S
C1138 C1141 1.409 . S
C1139 H1131 0.930 . S
C1139 C1140 1.355 . S
C1139 C1141 1.415 . S
C1140 C1139 1.355 . S
C1140 C1142 1.419 . S
C1141 C1136 1.425 . S
C1141 C1138 1.409 . S
C1141 C1139 1.415 . S
C1142 H1132 0.930 . S
C1142 C1140 1.419 . S
C1142 C1143 1.362 . S
C1143 H1133 0.930 . S
C1143 C1136 1.409 . S
C1143 C1142 1.362 . S
H1144 C1150 0.930 . S
H1145 C1153 0.930 1_545 S
H1146 C1154 0.930 . S
H1147 C1155 0.930 . S
H1148 C1158 0.930 . S
H1149 C1159 0.930 . S
C1150 H1144 0.930 . S
C1150 C1151 1.355 . S
C1150 C1152 1.415 . S
C1151 C1150 1.355 . S
C1151 C1153 1.419 . S
C1152 C1150 1.415 . S
C1152 C1157 1.425 . S
C1152 C1159 1.409 . S
C1153 H1145 0.930 1_565 S
C1153 C1151 1.419 . S
C1153 C1154 1.362 . S
C1154 H1146 0.930 . S
C1154 C1153 1.362 . S
C1154 C1157 1.409 . S
C1155 H1147 0.930 . S
C1155 C1156 1.355 . S
C1155 C1157 1.415 . S
C1156 C1155 1.355 . S
C1156 C1158 1.419 . S
C1157 C1152 1.425 . S
C1157 C1154 1.409 . S
C1157 C1155 1.415 . S
C1158 H1148 0.930 . S
C1158 C1156 1.419 . S
C1158 C1159 1.362 . S
C1159 H1149 0.930 . S
C1159 C1152 1.409 . S
C1159 C1158 1.362 . S
H1160 C1166 0.930 . S
H1161 C1169 0.930 . S
H1162 C1170 0.930 . S
H1163 C1171 0.930 . S
H1164 C1174 0.930 . S
H1165 C1175 0.930 . S
C1166 H1160 0.930 . S
C1166 C1167 1.355 . S
C1166 C1168 1.415 . S
C1167 C1166 1.355 . S
C1167 C1169 1.419 . S
C1168 C1166 1.415 . S
C1168 C1173 1.425 . S
C1168 C1175 1.409 . S
C1169 H1161 0.930 . S
C1169 C1167 1.419 . S
C1169 C1170 1.362 . S
C1170 H1162 0.930 . S
C1170 C1169 1.362 . S
C1170 C1173 1.409 . S
C1171 H1163 0.930 . S
C1171 C1172 1.355 . S
C1171 C1173 1.415 . S
C1172 C1171 1.355 . S
C1172 C1174 1.419 . S
C1173 C1168 1.425 . S
C1173 C1170 1.409 . S
C1173 C1171 1.415 . S
C1174 H1164 0.930 . S
C1174 C1172 1.419 . S
C1174 C1175 1.362 . S
C1175 H1165 0.930 . S
C1175 C1168 1.409 . S
C1175 C1174 1.362 . S
H1176 C1182 0.930 . S
H1177 C1185 0.930 . S
H1178 C1186 0.930 . S
H1179 C1187 0.930 . S
H1180 C1190 0.930 . S
H1181 C1191 0.930 . S
C1182 H1176 0.930 . S
C1182 C1183 1.355 . S
C1182 C1184 1.415 . S
C1183 C1182 1.355 . S
C1183 C1185 1.419 1_655 S
C1184 C1182 1.415 . S
C1184 C1189 1.425 1_656 S
C1184 C1191 1.409 1_556 S
C1185 H1177 0.930 . S
C1185 C1183 1.419 1_455 S
C1185 C1186 1.362 . S
C1186 H1178 0.930 . S
C1186 C1185 1.362 . S
C1186 C1189 1.409 1_556 S
C1187 H1179 0.930 . S
C1187 C1188 1.355 . S
C1187 C1189 1.415 . S
C1188 C1187 1.355 . S
C1188 C1190 1.419 1_455 S
C1189 C1184 1.425 1_454 S
C1189 C1186 1.409 1_554 S
C1189 C1187 1.415 . S
C1190 H1180 0.930 . S
C1190 C1188 1.419 1_655 S
C1190 C1191 1.362 . S
C1191 H1181 0.930 . S
C1191 C1184 1.409 1_554 S
C1191 C1190 1.362 . S
H1192 C1198 0.930 . S
H1193 C1201 0.930 . S
H1194 C1202 0.930 . S
H1195 C1203 0.930 . S
H1196 C1206 0.930 . S
H1197 C1207 0.930 . S
C1198 H1192 0.930 . S
C1198 C1199 1.355 . S
C1198 C1200 1.415 . S
C1199 C1198 1.355 . S
C1199 C1201 1.419 . S
C1200 C1198 1.415 . S
C1200 C1205 1.425 . S
C1200 C1207 1.409 . S
C1201 H1193 0.930 . S
C1201 C1199 1.419 . S
C1201 C1202 1.362 . S
C1202 H1194 0.930 . S
C1202 C1201 1.362 . S
C1202 C1205 1.409 . S
C1203 H1195 0.930 . S
C1203 C1204 1.355 . S
C1203 C1205 1.415 . S
C1204 C1203 1.355 . S
C1204 C1206 1.419 . S
C1205 C1200 1.425 . S
C1205 C1202 1.409 . S
C1205 C1203 1.415 . S
C1206 H1196 0.930 . S
C1206 C1204 1.419 . S
C1206 C1207 1.362 . S
C1207 H1197 0.930 . S
C1207 C1200 1.409 . S
C1207 C1206 1.362 . S
H1208 C1214 0.930 . S
H1209 C1217 0.934 . S
H1210 C1218 0.930 . S
H1211 C1219 0.930 . S
H1212 C1222 0.934 . S
H1213 C1223 0.930 . S
C1214 H1208 0.930 . S
C1214 C1215 1.355 . S
C1214 C1216 1.415 . S
C1215 C1214 1.355 . S
C1215 C1217 1.404 1_455 S
C1216 C1214 1.415 . S
C1216 C1221 1.425 1_456 S
C1216 C1223 1.409 1_556 S
C1217 H1209 0.934 . S
C1217 C1215 1.404 1_655 S
C1217 C1218 1.373 . S
C1218 H1210 0.930 . S
C1218 C1217 1.373 . S
C1218 C1221 1.409 1_556 S
C1219 H1211 0.930 . S
C1219 C1220 1.355 . S
C1219 C1221 1.415 . S
C1220 C1219 1.355 . S
C1220 C1222 1.404 1_655 S
C1221 C1216 1.425 1_654 S
C1221 C1218 1.409 1_554 S
C1221 C1219 1.415 . S
C1222 H1212 0.934 . S
C1222 C1220 1.404 1_455 S
C1222 C1223 1.373 . S
C1223 H1213 0.930 . S
C1223 C1216 1.409 1_554 S
C1223 C1222 1.373 . S
H1224 C1230 0.930 . S
H1225 C1233 0.930 . S
H1226 C1234 0.930 . S
H1227 C1235 0.930 . S
H1228 C1238 0.930 . S
H1229 C1239 0.930 . S
C1230 H1224 0.930 . S
C1230 C1231 1.355 . S
C1230 C1232 1.415 . S
C1231 C1230 1.355 . S
C1231 C1233 1.419 . S
C1232 C1230 1.415 . S
C1232 C1237 1.425 . S
C1232 C1239 1.409 . S
C1233 H1225 0.930 . S
C1233 C1231 1.419 . S
C1233 C1234 1.362 . S
C1234 H1226 0.930 . S
C1234 C1233 1.362 . S
C1234 C1237 1.409 . S
C1235 H1227 0.930 . S
C1235 C1236 1.355 . S
C1235 C1237 1.415 . S
C1236 C1235 1.355 . S
C1236 C1238 1.419 . S
C1237 C1232 1.425 . S
C1237 C1234 1.409 . S
C1237 C1235 1.415 . S
C1238 H1228 0.930 . S
C1238 C1236 1.419 . S
C1238 C1239 1.362 . S
C1239 H1229 0.930 . S
C1239 C1232 1.409 . S
C1239 C1238 1.362 . S
H1240 C1246 0.930 . S
H1241 C1249 0.930 . S
H1242 C1250 0.909 1_455 S
H1243 C1251 0.930 . S
H1244 C1254 0.930 . S
H1245 C1255 0.909 1_655 S
C1246 H1240 0.930 . S
C1246 C1247 1.355 1_545 S
C1246 C1248 1.415 . S
C1247 C1246 1.355 1_565 S
C1247 C1249 1.419 . S
C1248 C1246 1.415 . S
C1248 C1253 1.425 1_645 S
C1248 C1255 1.397 1_655 S
C1249 H1241 0.930 . S
C1249 C1247 1.419 . S
C1249 C1250 1.396 . S
C1250 H1242 0.909 1_655 S
C1250 C1249 1.396 . S
C1250 C1253 1.397 1_655 S
C1251 H1243 0.930 . S
C1251 C1252 1.355 1_565 S
C1251 C1253 1.415 . S
C1252 C1251 1.355 1_545 S
C1252 C1254 1.419 . S
C1253 C1248 1.425 1_465 S
C1253 C1250 1.397 1_455 S
C1253 C1251 1.415 . S
C1254 H1244 0.930 . S
C1254 C1252 1.419 . S
C1254 C1255 1.396 . S
C1255 H1245 0.909 1_455 S
C1255 C1248 1.397 1_455 S
C1255 C1254 1.396 . S
H1256 C1262 0.930 . S
H1257 C1265 0.930 . S
H1258 C1266 0.930 . S
H1259 C1267 0.930 . S
H1260 C1270 0.930 . S
H1261 C1271 0.930 . S
C1262 H1256 0.930 . S
C1262 C1263 1.355 . S
C1262 C1264 1.415 . S
C1263 C1262 1.355 . S
C1263 C1265 1.419 . S
C1264 C1262 1.415 . S
C1264 C1269 1.425 . S
C1264 C1271 1.409 . S
C1265 H1257 0.930 . S
C1265 C1263 1.419 . S
C1265 C1266 1.362 . S
C1266 H1258 0.930 . S
C1266 C1265 1.362 . S
C1266 C1269 1.409 . S
C1267 H1259 0.930 . S
C1267 C1268 1.355 . S
C1267 C1269 1.415 . S
C1268 C1267 1.355 . S
C1268 C1270 1.419 . S
C1269 C1264 1.425 . S
C1269 C1266 1.409 . S
C1269 C1267 1.415 . S
C1270 H1260 0.930 . S
C1270 C1268 1.419 . S
C1270 C1271 1.362 . S
C1271 H1261 0.930 . S
C1271 C1264 1.409 . S
C1271 C1270 1.362 . S
H1272 C1278 0.930 . S
H1273 C1281 0.930 . S
H1274 C1282 0.930 1_655 S
H1275 C1283 0.930 . S
H1276 C1286 0.930 . S
H1277 C1287 0.930 1_455 S
C1278 H1272 0.930 . S
C1278 C1279 1.355 1_545 S
C1278 C1280 1.415 . S
C1279 C1278 1.355 1_565 S
C1279 C1281 1.419 . S
C1280 C1278 1.415 . S
C1280 C1285 1.425 1_445 S
C1280 C1287 1.409 1_455 S
C1281 H1273 0.930 . S
C1281 C1279 1.419 . S
C1281 C1282 1.362 . S
C1282 H1274 0.930 1_455 S
C1282 C1281 1.362 . S
C1282 C1285 1.409 1_455 S
C1283 H1275 0.930 . S
C1283 C1284 1.355 1_565 S
C1283 C1285 1.415 . S
C1284 C1283 1.355 1_545 S
C1284 C1286 1.419 . S
C1285 C1280 1.425 1_665 S
C1285 C1282 1.409 1_655 S
C1285 C1283 1.415 . S
C1286 H1276 0.930 . S
C1286 C1284 1.419 . S
C1286 C1287 1.362 . S
C1287 H1277 0.930 1_655 S
C1287 C1280 1.409 1_655 S
C1287 C1286 1.362 . S
H1288 C1294 0.930 . S
H1289 C1297 0.930 . S
H1290 C1298 0.930 . S
H1291 C1299 0.930 . S
H1292 C1302 0.930 . S
H1293 C1303 0.930 . S
C1294 H1288 0.930 . S
C1294 C1295 1.355 . S
C1294 C1296 1.415 . S
C1295 C1294 1.355 . S
C1295 C1297 1.419 . S
C1296 C1294 1.415 . S
C1296 C1301 1.425 . S
C1296 C1303 1.409 . S
C1297 H1289 0.930 . S
C1297 C1295 1.419 . S
C1297 C1298 1.362 . S
C1298 H1290 0.930 . S
C1298 C1297 1.362 . S
C1298 C1301 1.409 . S
C1299 H1291 0.930 . S
C1299 C1300 1.355 . S
C1299 C1301 1.415 . S
C1300 C1299 1.355 . S
C1300 C1302 1.419 . S
C1301 C1296 1.425 . S
C1301 C1298 1.409 . S
C1301 C1299 1.415 . S
C1302 H1292 0.930 . S
C1302 C1300 1.419 . S
C1302 C1303 1.362 . S
C1303 H1293 0.930 . S
C1303 C1296 1.409 . S
C1303 C1302 1.362 . S
H1304 C1310 0.930 . S
H1305 C1313 0.930 . S
H1306 C1314 0.929 1_556 S
H1307 C1315 0.930 . S
H1308 C1318 0.930 . S
H1309 C1319 0.929 1_554 S
C1310 H1304 0.930 . S
C1310 C1311 1.355 . S
C1310 C1312 1.415 . S
C1311 C1310 1.355 . S
C1311 C1313 1.419 . S
C1312 C1310 1.415 . S
C1312 C1317 1.425 1_544 S
C1312 C1319 1.409 1_544 S
C1313 H1305 0.930 . S
C1313 C1311 1.419 . S
C1313 C1314 1.362 . S
C1314 H1306 0.929 1_554 S
C1314 C1313 1.362 . S
C1314 C1317 1.409 1_544 S
C1315 H1307 0.930 . S
C1315 C1316 1.355 . S
C1315 C1317 1.415 . S
C1316 C1315 1.355 . S
C1316 C1318 1.419 . S
C1317 C1312 1.425 1_566 S
C1317 C1314 1.409 1_566 S
C1317 C1315 1.415 . S
C1318 H1308 0.930 . S
C1318 C1316 1.419 . S
C1318 C1319 1.362 . S
C1319 H1309 0.929 1_556 S
C1319 C1312 1.409 1_566 S
C1319 C1318 1.362 . S
H1320 C1326 0.930 . S
H1321 C1329 0.930 . S
H1322 C1330 0.930 . S
H1323 C1331 0.930 . S
H1324 C1334 0.930 . S
H1325 C1335 0.930 . S
C1326 H1320 0.930 . S
C1326 C1327 1.355 . S
C1326 C1328 1.415 . S
C1327 C1326 1.355 . S
C1327 C1329 1.419 . S
C1328 C1326 1.415 . S
C1328 C1333 1.425 . S
C1328 C1335 1.409 . S
C1329 H1321 0.930 . S
C1329 C1327 1.419 . S
C1329 C1330 1.362 . S
C1330 H1322 0.930 . S
C1330 C1329 1.362 . S
C1330 C1333 1.409 . S
C1331 H1323 0.930 . S
C1331 C1332 1.355 . S
C1331 C1333 1.415 . S
C1332 C1331 1.355 . S
C1332 C1334 1.419 . S
C1333 C1328 1.425 . S
C1333 C1330 1.409 . S
C1333 C1331 1.415 . S
C1334 H1324 0.930 . S
C1334 C1332 1.419 . S
C1334 C1335 1.362 . S
C1335 H1325 0.930 . S
C1335 C1328 1.409 . S
C1335 C1334 1.362 . S
H1336 C1342 0.930 . S
H1337 C1345 0.930 . S
H1338 C1346 0.930 . S
H1339 C1347 0.930 . S
H1340 C1350 0.930 . S
H1341 C1351 0.930 . S
C1342 H1336 0.930 . S
C1342 C1343 1.355 . S
C1342 C1344 1.412 . S
C1343 C1342 1.355 . S
C1343 C1345 1.419 1_556 S
C1344 C1342 1.412 . S
C1344 C1349 1.425 1_546 S
C1344 C1351 1.412 1_545 S
C1345 H1337 0.930 . S
C1345 C1343 1.419 1_554 S
C1345 C1346 1.362 . S
C1346 H1338 0.930 . S
C1346 C1345 1.362 . S
C1346 C1349 1.412 1_545 S
C1347 H1339 0.930 . S
C1347 C1348 1.355 . S
C1347 C1349 1.412 . S
C1348 C1347 1.355 . S
C1348 C1350 1.419 1_554 S
C1349 C1344 1.425 1_564 S
C1349 C1346 1.412 1_565 S
C1349 C1347 1.412 . S
C1350 H1340 0.930 . S
C1350 C1348 1.419 1_556 S
C1350 C1351 1.362 . S
C1351 H1341 0.930 . S
C1351 C1344 1.412 1_565 S
C1351 C1350 1.362 . S
H1352 C1358 0.930 . S
H1353 C1361 0.930 . S
H1354 C1362 0.930 . S
H1355 C1363 0.930 . S
H1356 C1366 0.930 . S
H1357 C1367 0.930 . S
C1358 H1352 0.930 . S
C1358 C1359 1.355 . S
C1358 C1360 1.415 . S
C1359 C1358 1.355 . S
C1359 C1361 1.419 . S
C1360 C1358 1.415 . S
C1360 C1365 1.425 . S
C1360 C1367 1.409 . S
C1361 H1353 0.930 . S
C1361 C1359 1.419 . S
C1361 C1362 1.362 . S
C1362 H1354 0.930 . S
C1362 C1361 1.362 . S
C1362 C1365 1.409 . S
C1363 H1355 0.930 . S
C1363 C1364 1.355 . S
C1363 C1365 1.415 . S
C1364 C1363 1.355 . S
C1364 C1366 1.419 . S
C1365 C1360 1.425 . S
C1365 C1362 1.409 . S
C1365 C1363 1.415 . S
C1366 H1356 0.930 . S
C1366 C1364 1.419 . S
C1366 C1367 1.362 . S
C1367 H1357 0.930 . S
C1367 C1360 1.409 . S
C1367 C1366 1.362 . S
H1368 C1374 0.930 . S
H1369 C1377 0.930 . S
H1370 C1378 0.930 . S
H1371 C1379 0.930 . S
H1372 C1382 0.930 . S
H1373 C1383 0.930 . S
C1374 H1368 0.930 . S
C1374 C1375 1.355 . S
C1374 C1376 1.415 . S
C1375 C1374 1.355 . S
C1375 C1377 1.419 . S
C1376 C1374 1.415 . S
C1376 C1381 1.425 . S
C1376 C1383 1.409 . S
C1377 H1369 0.930 . S
C1377 C1375 1.419 . S
C1377 C1378 1.362 . S
C1378 H1370 0.930 . S
C1378 C1377 1.362 . S
C1378 C1381 1.409 . S
C1379 H1371 0.930 . S
C1379 C1380 1.355 . S
C1379 C1381 1.415 . S
C1380 C1379 1.355 . S
C1380 C1382 1.419 . S
C1381 C1376 1.425 . S
C1381 C1378 1.409 . S
C1381 C1379 1.415 . S
C1382 H1372 0.930 . S
C1382 C1380 1.419 . S
C1382 C1383 1.362 . S
C1383 H1373 0.930 . S
C1383 C1376 1.409 . S
C1383 C1382 1.362 . S
H1384 C1390 0.930 . S
H1385 C1393 0.930 . S
H1386 C1394 0.930 . S
H1387 C1395 0.930 . S
H1388 C1398 0.930 . S
H1389 C1399 0.930 . S
C1390 H1384 0.930 . S
C1390 C1391 1.355 . S
C1390 C1392 1.415 . S
C1391 C1390 1.355 . S
C1391 C1393 1.419 . S
C1392 C1390 1.415 . S
C1392 C1397 1.425 . S
C1392 C1399 1.409 . S
C1393 H1385 0.930 . S
C1393 C1391 1.419 . S
C1393 C1394 1.362 . S
C1394 H1386 0.930 . S
C1394 C1393 1.362 . S
C1394 C1397 1.409 . S
C1395 H1387 0.930 . S
C1395 C1396 1.355 . S
C1395 C1397 1.415 . S
C1396 C1395 1.355 . S
C1396 C1398 1.419 . S
C1397 C1392 1.425 . S
C1397 C1394 1.409 . S
C1397 C1395 1.415 . S
C1398 H1388 0.930 . S
C1398 C1396 1.419 . S
C1398 C1399 1.362 . S
C1399 H1389 0.930 . S
C1399 C1392 1.409 . S
C1399 C1398 1.362 . S
H1400 C1406 0.930 . S
H1401 C1409 0.930 . S
H1402 C1410 0.930 . S
H1403 C1411 0.930 . S
H1404 C1414 0.930 . S
H1405 C1415 0.930 . S
C1406 H1400 0.930 . S
C1406 C1407 1.355 . S
C1406 C1408 1.415 . S
C1407 C1406 1.355 . S
C1407 C1409 1.419 . S
C1408 C1406 1.415 . S
C1408 C1413 1.425 . S
C1408 C1415 1.409 . S
C1409 H1401 0.930 . S
C1409 C1407 1.419 . S
C1409 C1410 1.362 . S
C1410 H1402 0.930 . S
C1410 C1409 1.362 . S
C1410 C1413 1.409 . S
C1411 H1403 0.930 . S
C1411 C1412 1.355 . S
C1411 C1413 1.415 . S
C1412 C1411 1.355 . S
C1412 C1414 1.419 . S
C1413 C1408 1.425 . S
C1413 C1410 1.409 . S
C1413 C1411 1.415 . S
C1414 H1404 0.930 . S
C1414 C1412 1.419 . S
C1414 C1415 1.362 . S
C1415 H1405 0.930 . S
C1415 C1408 1.409 . S
C1415 C1414 1.362 . S
H1416 C1422 0.930 . S
H1417 C1425 0.930 . S
H1418 C1426 0.930 . S
H1419 C1427 0.930 . S
H1420 C1430 0.930 . S
H1421 C1431 0.930 . S
C1422 H1416 0.930 . S
C1422 C1423 1.355 . S
C1422 C1424 1.415 . S
C1423 C1422 1.355 . S
C1423 C1425 1.419 . S
C1424 C1422 1.415 . S
C1424 C1429 1.425 . S
C1424 C1431 1.409 . S
C1425 H1417 0.930 . S
C1425 C1423 1.419 . S
C1425 C1426 1.362 . S
C1426 H1418 0.930 . S
C1426 C1425 1.362 . S
C1426 C1429 1.409 . S
C1427 H1419 0.930 . S
C1427 C1428 1.355 . S
C1427 C1429 1.415 . S
C1428 C1427 1.355 . S
C1428 C1430 1.419 . S
C1429 C1424 1.425 . S
C1429 C1426 1.409 . S
C1429 C1427 1.415 . S
C1430 H1420 0.930 . S
C1430 C1428 1.419 . S
C1430 C1431 1.362 . S
C1431 H1421 0.930 . S
C1431 C1424 1.409 . S
C1431 C1430 1.362 . S
H1432 C1438 0.930 . S
H1433 C1441 0.930 . S
H1434 C1442 0.930 . S
H1435 C1443 0.930 . S
H1436 C1446 0.930 . S
H1437 C1447 0.930 . S
C1438 H1432 0.930 . S
C1438 C1439 1.355 . S
C1438 C1440 1.415 . S
C1439 C1438 1.355 . S
C1439 C1441 1.419 . S
C1440 C1438 1.415 . S
C1440 C1445 1.425 . S
C1440 C1447 1.409 . S
C1441 H1433 0.930 . S
C1441 C1439 1.419 . S
C1441 C1442 1.362 . S
C1442 H1434 0.930 . S
C1442 C1441 1.362 . S
C1442 C1445 1.409 . S
C1443 H1435 0.930 . S
C1443 C1444 1.355 . S
C1443 C1445 1.415 . S
C1444 C1443 1.355 . S
C1444 C1446 1.419 . S
C1445 C1440 1.425 . S
C1445 C1442 1.409 . S
C1445 C1443 1.415 . S
C1446 H1436 0.930 . S
C1446 C1444 1.419 . S
C1446 C1447 1.362 . S
C1447 H1437 0.930 . S
C1447 C1440 1.409 . S
C1447 C1446 1.362 . S
H1448 C1454 0.930 . S
H1449 C1457 0.930 . S
H1450 C1458 0.930 . S
H1451 C1459 0.930 . S
H1452 C1462 0.930 . S
H1453 C1463 0.930 . S
C1454 H1448 0.930 . S
C1454 C1455 1.355 . S
C1454 C1456 1.415 . S
C1455 C1454 1.355 . S
C1455 C1457 1.419 . S
C1456 C1454 1.415 . S
C1456 C1461 1.425 . S
C1456 C1463 1.409 . S
C1457 H1449 0.930 . S
C1457 C1455 1.419 . S
C1457 C1458 1.362 . S
C1458 H1450 0.930 . S
C1458 C1457 1.362 . S
C1458 C1461 1.409 . S
C1459 H1451 0.930 . S
C1459 C1460 1.355 . S
C1459 C1461 1.415 . S
C1460 C1459 1.355 . S
C1460 C1462 1.419 . S
C1461 C1456 1.425 . S
C1461 C1458 1.409 . S
C1461 C1459 1.415 . S
C1462 H1452 0.930 . S
C1462 C1460 1.419 . S
C1462 C1463 1.362 . S
C1463 H1453 0.930 . S
C1463 C1456 1.409 . S
C1463 C1462 1.362 . S
H1464 C1470 0.930 . S
H1465 C1473 0.930 . S
H1466 C1474 0.930 . S
H1467 C1475 0.930 . S
H1468 C1478 0.930 . S
H1469 C1479 0.930 . S
C1470 H1464 0.930 . S
C1470 C1471 1.355 . S
C1470 C1472 1.415 . S
C1471 C1470 1.355 . S
C1471 C1473 1.419 . S
C1472 C1470 1.415 . S
C1472 C1477 1.425 . S
C1472 C1479 1.409 . S
C1473 H1465 0.930 . S
C1473 C1471 1.419 . S
C1473 C1474 1.362 . S
C1474 H1466 0.930 . S
C1474 C1473 1.362 . S
C1474 C1477 1.409 . S
C1475 H1467 0.930 . S
C1475 C1476 1.355 . S
C1475 C1477 1.415 . S
C1476 C1475 1.355 . S
C1476 C1478 1.419 . S
C1477 C1472 1.425 . S
C1477 C1474 1.409 . S
C1477 C1475 1.415 . S
C1478 H1468 0.930 . S
C1478 C1476 1.419 . S
C1478 C1479 1.362 . S
C1479 H1469 0.930 . S
C1479 C1472 1.409 . S
C1479 C1478 1.362 . S
H1480 C1486 0.930 . S
H1481 C1489 0.930 . S
H1482 C1490 0.930 . S
H1483 C1491 0.930 . S
H1484 C1494 0.930 . S
H1485 C1495 0.930 . S
C1486 H1480 0.930 . S
C1486 C1487 1.355 . S
C1486 C1488 1.415 . S
C1487 C1486 1.355 . S
C1487 C1489 1.419 . S
C1488 C1486 1.415 . S
C1488 C1493 1.425 . S
C1488 C1495 1.409 . S
C1489 H1481 0.930 . S
C1489 C1487 1.419 . S
C1489 C1490 1.362 . S
C1490 H1482 0.930 . S
C1490 C1489 1.362 . S
C1490 C1493 1.409 . S
C1491 H1483 0.930 . S
C1491 C1492 1.355 . S
C1491 C1493 1.415 . S
C1492 C1491 1.355 . S
C1492 C1494 1.419 . S
C1493 C1488 1.425 . S
C1493 C1490 1.409 . S
C1493 C1491 1.415 . S
C1494 H1484 0.930 . S
C1494 C1492 1.419 . S
C1494 C1495 1.362 . S
C1495 H1485 0.930 . S
C1495 C1488 1.409 . S
C1495 C1494 1.362 . S
H1496 C1502 0.930 . S
H1497 C1505 0.930 . S
H1498 C1506 0.930 . S
H1499 C1507 0.930 . S
H1500 C1510 0.930 . S
H1501 C1511 0.930 . S
C1502 H1496 0.930 . S
C1502 C1503 1.355 . S
C1502 C1504 1.415 . S
C1503 C1502 1.355 . S
C1503 C1505 1.419 . S
C1504 C1502 1.415 . S
C1504 C1509 1.425 . S
C1504 C1511 1.409 . S
C1505 H1497 0.930 . S
C1505 C1503 1.419 . S
C1505 C1506 1.362 . S
C1506 H1498 0.930 . S
C1506 C1505 1.362 . S
C1506 C1509 1.409 . S
C1507 H1499 0.930 . S
C1507 C1508 1.355 . S
C1507 C1509 1.415 . S
C1508 C1507 1.355 . S
C1508 C1510 1.419 . S
C1509 C1504 1.425 . S
C1509 C1506 1.409 . S
C1509 C1507 1.415 . S
C1510 H1500 0.930 . S
C1510 C1508 1.419 . S
C1510 C1511 1.362 . S
C1511 H1501 0.930 . S
C1511 C1504 1.409 . S
C1511 C1510 1.362 . S
H1512 C1518 0.930 . S
H1513 C1521 0.930 . S
H1514 C1522 0.930 . S
H1515 C1523 0.930 . S
H1516 C1526 0.930 . S
H1517 C1527 0.930 . S
C1518 H1512 0.930 . S
C1518 C1519 1.355 . S
C1518 C1520 1.415 . S
C1519 C1518 1.355 . S
C1519 C1521 1.419 . S
C1520 C1518 1.415 . S
C1520 C1525 1.425 . S
C1520 C1527 1.409 . S
C1521 H1513 0.930 . S
C1521 C1519 1.419 . S
C1521 C1522 1.362 . S
C1522 H1514 0.930 . S
C1522 C1521 1.362 . S
C1522 C1525 1.409 . S
C1523 H1515 0.930 . S
C1523 C1524 1.355 . S
C1523 C1525 1.415 . S
C1524 C1523 1.355 . S
C1524 C1526 1.419 . S
C1525 C1520 1.425 . S
C1525 C1522 1.409 . S
C1525 C1523 1.415 . S
C1526 H1516 0.930 . S
C1526 C1524 1.419 . S
C1526 C1527 1.362 . S
C1527 H1517 0.930 . S
C1527 C1520 1.409 . S
C1527 C1526 1.362 . S
H1528 C1534 0.930 . S
H1529 C1537 0.930 . S
H1530 C1538 0.930 . S
H1531 C1539 0.930 . S
H1532 C1542 0.930 . S
H1533 C1543 0.930 . S
C1534 H1528 0.930 . S
C1534 C1535 1.355 . S
C1534 C1536 1.415 . S
C1535 C1534 1.355 . S
C1535 C1537 1.419 . S
C1536 C1534 1.415 . S
C1536 C1541 1.425 . S
C1536 C1543 1.409 . S
C1537 H1529 0.930 . S
C1537 C1535 1.419 . S
C1537 C1538 1.362 . S
C1538 H1530 0.930 . S
C1538 C1537 1.362 . S
C1538 C1541 1.409 . S
C1539 H1531 0.930 . S
C1539 C1540 1.355 . S
C1539 C1541 1.415 . S
C1540 C1539 1.355 . S
C1540 C1542 1.419 . S
C1541 C1536 1.425 . S
C1541 C1538 1.409 . S
C1541 C1539 1.415 . S
C1542 H1532 0.930 . S
C1542 C1540 1.419 . S
C1542 C1543 1.362 . S
C1543 H1533 0.930 . S
C1543 C1536 1.409 . S
C1543 C1542 1.362 . S
H1544 C1550 0.930 . S
H1545 C1553 0.930 . S
H1546 C1554 0.930 . S
H1547 C1555 0.930 . S
H1548 C1558 0.930 . S
H1549 C1559 0.930 . S
C1550 H1544 0.930 . S
C1550 C1551 1.355 . S
C1550 C1552 1.415 . S
C1551 C1550 1.355 . S
C1551 C1553 1.419 . S
C1552 C1550 1.415 . S
C1552 C1557 1.425 . S
C1552 C1559 1.409 . S
C1553 H1545 0.930 . S
C1553 C1551 1.419 . S
C1553 C1554 1.362 . S
C1554 H1546 0.930 . S
C1554 C1553 1.362 . S
C1554 C1557 1.409 . S
C1555 H1547 0.930 . S
C1555 C1556 1.355 . S
C1555 C1557 1.415 . S
C1556 C1555 1.355 . S
C1556 C1558 1.419 . S
C1557 C1552 1.425 . S
C1557 C1554 1.409 . S
C1557 C1555 1.415 . S
C1558 H1548 0.930 . S
C1558 C1556 1.419 . S
C1558 C1559 1.362 . S
C1559 H1549 0.930 . S
C1559 C1552 1.409 . S
C1559 C1558 1.362 . S
H1560 C1566 0.930 . S
H1561 C1569 0.930 . S
H1562 C1570 0.930 . S
H1563 C1571 0.930 . S
H1564 C1574 0.930 . S
H1565 C1575 0.930 . S
C1566 H1560 0.930 . S
C1566 C1567 1.355 . S
C1566 C1568 1.415 . S
C1567 C1566 1.355 . S
C1567 C1569 1.419 . S
C1568 C1566 1.415 . S
C1568 C1573 1.425 . S
C1568 C1575 1.409 . S
C1569 H1561 0.930 . S
C1569 C1567 1.419 . S
C1569 C1570 1.362 . S
C1570 H1562 0.930 . S
C1570 C1569 1.362 . S
C1570 C1573 1.409 . S
C1571 H1563 0.930 . S
C1571 C1572 1.355 . S
C1571 C1573 1.415 . S
C1572 C1571 1.355 . S
C1572 C1574 1.419 . S
C1573 C1568 1.425 . S
C1573 C1570 1.409 . S
C1573 C1571 1.415 . S
C1574 H1564 0.930 . S
C1574 C1572 1.419 . S
C1574 C1575 1.362 . S
C1575 H1565 0.930 . S
C1575 C1568 1.409 . S
C1575 C1574 1.362 . S
H1576 C1582 0.930 . S
H1577 C1585 0.930 . S
H1578 C1586 0.930 . S
H1579 C1587 0.930 . S
H1580 C1590 0.930 . S
H1581 C1591 0.930 . S
C1582 H1576 0.930 . S
C1582 C1583 1.355 . S
C1582 C1584 1.415 . S
C1583 C1582 1.355 . S
C1583 C1585 1.419 . S
C1584 C1582 1.415 . S
C1584 C1589 1.425 . S
C1584 C1591 1.409 . S
C1585 H1577 0.930 . S
C1585 C1583 1.419 . S
C1585 C1586 1.362 . S
C1586 H1578 0.930 . S
C1586 C1585 1.362 . S
C1586 C1589 1.409 . S
C1587 H1579 0.930 . S
C1587 C1588 1.355 . S
C1587 C1589 1.415 . S
C1588 C1587 1.355 . S
C1588 C1590 1.419 . S
C1589 C1584 1.425 . S
C1589 C1586 1.409 . S
C1589 C1587 1.415 . S
C1590 H1580 0.930 . S
C1590 C1588 1.419 . S
C1590 C1591 1.362 . S
C1591 H1581 0.930 . S
C1591 C1584 1.409 . S
C1591 C1590 1.362 . S
H1592 C1598 0.930 . S
H1593 C1601 0.930 . S
H1594 C1602 0.930 . S
H1595 C1603 0.930 . S
H1596 C1606 0.930 . S
H1597 C1607 0.930 . S
C1598 H1592 0.930 . S
C1598 C1599 1.355 . S
C1598 C1600 1.415 . S
C1599 C1598 1.355 . S
C1599 C1601 1.419 . S
C1600 C1598 1.415 . S
C1600 C1605 1.425 . S
C1600 C1607 1.409 . S
C1601 H1593 0.930 . S
C1601 C1599 1.419 . S
C1601 C1602 1.362 . S
C1602 H1594 0.930 . S
C1602 C1601 1.362 . S
C1602 C1605 1.409 . S
C1603 H1595 0.930 . S
C1603 C1604 1.355 . S
C1603 C1605 1.415 . S
C1604 C1603 1.355 . S
C1604 C1606 1.419 . S
C1605 C1600 1.425 . S
C1605 C1602 1.409 . S
C1605 C1603 1.415 . S
C1606 H1596 0.930 . S
C1606 C1604 1.419 . S
C1606 C1607 1.362 . S
C1607 H1597 0.930 . S
C1607 C1600 1.409 . S
C1607 C1606 1.362 . S
H1608 C1614 0.930 . S
H1609 C1617 0.930 . S
H1610 C1618 0.930 . S
H1611 C1619 0.930 . S
H1612 C1622 0.930 . S
H1613 C1623 0.930 . S
C1614 H1608 0.930 . S
C1614 C1615 1.355 . S
C1614 C1616 1.415 . S
C1615 C1614 1.355 . S
C1615 C1617 1.419 . S
C1616 C1614 1.415 . S
C1616 C1621 1.425 . S
C1616 C1623 1.409 . S
C1617 H1609 0.930 . S
C1617 C1615 1.419 . S
C1617 C1618 1.362 . S
C1618 H1610 0.930 . S
C1618 C1617 1.362 . S
C1618 C1621 1.409 . S
C1619 H1611 0.930 . S
C1619 C1620 1.355 . S
C1619 C1621 1.415 . S
C1620 C1619 1.355 . S
C1620 C1622 1.419 . S
C1621 C1616 1.425 . S
C1621 C1618 1.409 . S
C1621 C1619 1.415 . S
C1622 H1612 0.930 . S
C1622 C1620 1.419 . S
C1622 C1623 1.362 . S
C1623 H1613 0.930 . S
C1623 C1616 1.409 . S
C1623 C1622 1.362 . S
H1624 C1630 0.930 . S
H1625 C1633 0.930 . S
H1626 C1634 0.930 . S
H1627 C1635 0.930 . S
H1628 C1638 0.930 . S
H1629 C1639 0.930 . S
C1630 H1624 0.930 . S
C1630 C1631 1.355 . S
C1630 C1632 1.415 . S
C1631 C1630 1.355 . S
C1631 C1633 1.419 . S
C1632 C1630 1.415 . S
C1632 C1637 1.425 . S
C1632 C1639 1.409 . S
C1633 H1625 0.930 . S
C1633 C1631 1.419 . S
C1633 C1634 1.362 . S
C1634 H1626 0.930 . S
C1634 C1633 1.362 . S
C1634 C1637 1.409 . S
C1635 H1627 0.930 . S
C1635 C1636 1.355 . S
C1635 C1637 1.415 . S
C1636 C1635 1.355 . S
C1636 C1638 1.419 . S
C1637 C1632 1.425 . S
C1637 C1634 1.409 . S
C1637 C1635 1.415 . S
C1638 H1628 0.930 . S
C1638 C1636 1.419 . S
C1638 C1639 1.362 . S
C1639 H1629 0.930 . S
C1639 C1632 1.409 . S
C1639 C1638 1.362 . S
H1640 C1646 0.930 . S
H1641 C1649 0.930 . S
H1642 C1650 0.930 . S
H1643 C1651 0.930 . S
H1644 C1654 0.930 . S
H1645 C1655 0.930 . S
C1646 H1640 0.930 . S
C1646 C1647 1.355 . S
C1646 C1648 1.415 . S
C1647 C1646 1.355 . S
C1647 C1649 1.419 . S
C1648 C1646 1.415 . S
C1648 C1653 1.425 . S
C1648 C1655 1.409 . S
C1649 H1641 0.930 . S
C1649 C1647 1.419 . S
C1649 C1650 1.362 . S
C1650 H1642 0.930 . S
C1650 C1649 1.362 . S
C1650 C1653 1.409 . S
C1651 H1643 0.930 . S
C1651 C1652 1.355 . S
C1651 C1653 1.415 . S
C1652 C1651 1.355 . S
C1652 C1654 1.419 . S
C1653 C1648 1.425 . S
C1653 C1650 1.409 . S
C1653 C1651 1.415 . S
C1654 H1644 0.930 . S
C1654 C1652 1.419 . S
C1654 C1655 1.362 . S
C1655 H1645 0.930 . S
C1655 C1648 1.409 . S
C1655 C1654 1.362 . S
H1656 C1662 0.930 . S
H1657 C1665 0.930 . S
H1658 C1666 0.930 . S
H1659 C1667 0.930 . S
H1660 C1670 0.930 . S
H1661 C1671 0.930 . S
C1662 H1656 0.930 . S
C1662 C1663 1.355 . S
C1662 C1664 1.415 . S
C1663 C1662 1.355 . S
C1663 C1665 1.419 . S
C1664 C1662 1.415 . S
C1664 C1669 1.425 . S
C1664 C1671 1.409 . S
C1665 H1657 0.930 . S
C1665 C1663 1.419 . S
C1665 C1666 1.362 . S
C1666 H1658 0.930 . S
C1666 C1665 1.362 . S
C1666 C1669 1.409 . S
C1667 H1659 0.930 . S
C1667 C1668 1.355 . S
C1667 C1669 1.415 . S
C1668 C1667 1.355 . S
C1668 C1670 1.419 . S
C1669 C1664 1.425 . S
C1669 C1666 1.409 . S
C1669 C1667 1.415 . S
C1670 H1660 0.930 . S
C1670 C1668 1.419 . S
C1670 C1671 1.362 . S
C1671 H1661 0.930 . S
C1671 C1664 1.409 . S
C1671 C1670 1.362 . S
H1672 C1678 0.930 . S
H1673 C1681 0.930 . S
H1674 C1682 0.930 . S
H1675 C1683 0.930 . S
H1676 C1686 0.930 . S
H1677 C1687 0.930 . S
C1678 H1672 0.930 . S
C1678 C1679 1.355 . S
C1678 C1680 1.415 . S
C1679 C1678 1.355 . S
C1679 C1681 1.419 . S
C1680 C1678 1.415 . S
C1680 C1685 1.425 . S
C1680 C1687 1.409 . S
C1681 H1673 0.930 . S
C1681 C1679 1.419 . S
C1681 C1682 1.362 . S
C1682 H1674 0.930 . S
C1682 C1681 1.362 . S
C1682 C1685 1.409 . S
C1683 H1675 0.930 . S
C1683 C1684 1.355 . S
C1683 C1685 1.415 . S
C1684 C1683 1.355 . S
C1684 C1686 1.419 . S
C1685 C1680 1.425 . S
C1685 C1682 1.409 . S
C1685 C1683 1.415 . S
C1686 H1676 0.930 . S
C1686 C1684 1.419 . S
C1686 C1687 1.362 . S
C1687 H1677 0.930 . S
C1687 C1680 1.409 . S
C1687 C1686 1.362 . S
H1688 C1694 0.930 . S
H1689 C1697 0.930 . S
H1690 C1698 0.930 . S
H1691 C1699 0.930 . S
H1692 C1702 0.930 . S
H1693 C1703 0.930 . S
C1694 H1688 0.930 . S
C1694 C1695 1.355 . S
C1694 C1696 1.415 . S
C1695 C1694 1.355 . S
C1695 C1697 1.419 . S
C1696 C1694 1.415 . S
C1696 C1701 1.425 . S
C1696 C1703 1.409 . S
C1697 H1689 0.930 . S
C1697 C1695 1.419 . S
C1697 C1698 1.362 . S
C1698 H1690 0.930 . S
C1698 C1697 1.362 . S
C1698 C1701 1.409 . S
C1699 H1691 0.930 . S
C1699 C1700 1.355 . S
C1699 C1701 1.415 . S
C1700 C1699 1.355 . S
C1700 C1702 1.419 . S
C1701 C1696 1.425 . S
C1701 C1698 1.409 . S
C1701 C1699 1.415 . S
C1702 H1692 0.930 . S
C1702 C1700 1.419 . S
C1702 C1703 1.362 . S
C1703 H1693 0.930 . S
C1703 C1696 1.409 . S
C1703 C1702 1.362 . S
H1704 C1710 0.930 . S
H1705 C1713 0.930 . S
H1706 C1714 0.930 . S
H1707 C1715 0.930 . S
H1708 C1718 0.930 . S
H1709 C1719 0.930 . S
C1710 H1704 0.930 . S
C1710 C1711 1.355 . S
C1710 C1712 1.415 . S
C1711 C1710 1.355 . S
C1711 C1713 1.419 . S
C1712 C1710 1.415 . S
C1712 C1717 1.425 . S
C1712 C1719 1.409 . S
C1713 H1705 0.930 . S
C1713 C1711 1.419 . S
C1713 C1714 1.362 . S
C1714 H1706 0.930 . S
C1714 C1713 1.362 . S
C1714 C1717 1.409 . S
C1715 H1707 0.930 . S
C1715 C1716 1.355 . S
C1715 C1717 1.415 . S
C1716 C1715 1.355 . S
C1716 C1718 1.419 . S
C1717 C1712 1.425 . S
C1717 C1714 1.409 . S
C1717 C1715 1.415 . S
C1718 H1708 0.930 . S
C1718 C1716 1.419 . S
C1718 C1719 1.362 . S
C1719 H1709 0.930 . S
C1719 C1712 1.409 . S
C1719 C1718 1.362 . S
H1720 C1726 0.930 . S
H1721 C1729 0.930 . S
H1722 C1730 0.930 . S
H1723 C1731 0.930 . S
H1724 C1734 0.930 . S
H1725 C1735 0.930 . S
C1726 H1720 0.930 . S
C1726 C1727 1.355 . S
C1726 C1728 1.415 . S
C1727 C1726 1.355 . S
C1727 C1729 1.419 . S
C1728 C1726 1.415 . S
C1728 C1733 1.425 . S
C1728 C1735 1.409 . S
C1729 H1721 0.930 . S
C1729 C1727 1.419 . S
C1729 C1730 1.362 . S
C1730 H1722 0.930 . S
C1730 C1729 1.362 . S
C1730 C1733 1.409 . S
C1731 H1723 0.930 . S
C1731 C1732 1.355 . S
C1731 C1733 1.415 . S
C1732 C1731 1.355 . S
C1732 C1734 1.419 . S
C1733 C1728 1.425 . S
C1733 C1730 1.409 . S
C1733 C1731 1.415 . S
C1734 H1724 0.930 . S
C1734 C1732 1.419 . S
C1734 C1735 1.362 . S
C1735 H1725 0.930 . S
C1735 C1728 1.409 . S
C1735 C1734 1.362 . S
H1736 C1742 0.930 . S
H1737 C1745 0.930 . S
H1738 C1746 0.930 . S
H1739 C1747 0.930 . S
H1740 C1750 0.930 . S
H1741 C1751 0.930 . S
C1742 H1736 0.930 . S
C1742 C1743 1.355 . S
C1742 C1744 1.415 . S
C1743 C1742 1.355 . S
C1743 C1745 1.419 . S
C1744 C1742 1.415 . S
C1744 C1749 1.425 . S
C1744 C1751 1.409 . S
C1745 H1737 0.930 . S
C1745 C1743 1.419 . S
C1745 C1746 1.362 . S
C1746 H1738 0.930 . S
C1746 C1745 1.362 . S
C1746 C1749 1.409 . S
C1747 H1739 0.930 . S
C1747 C1748 1.355 . S
C1747 C1749 1.415 . S
C1748 C1747 1.355 . S
C1748 C1750 1.419 . S
C1749 C1744 1.425 . S
C1749 C1746 1.409 . S
C1749 C1747 1.415 . S
C1750 H1740 0.930 . S
C1750 C1748 1.419 . S
C1750 C1751 1.362 . S
C1751 H1741 0.930 . S
C1751 C1744 1.409 . S
C1751 C1750 1.362 . S
C799 N113 1.378 . S
C804 C8 1.428 . S
C815 N14 1.361 1_655 S
C820 C41 1.437 . S
C831 N47 1.416 . S
C836 C74 1.443 . S
C847 C107 1.415 . S
C852 N80 1.373 1_455 S
C863 N179 1.434 . S
C868 C140 1.427 . S
C879 N212 1.409 1_455 S
C884 C173 1.422 . S
C895 C206 1.417 . S
C900 N245 1.387 . S
C911 N146 1.362 1_655 S
C916 C239 1.437 . S
C927 C272 1.434 . S
C932 N608 1.382 . S
C943 C305 1.417 . S
C948 N641 1.364 1_554 S
C959 N674 1.408 . S
C964 C338 1.415 . S
C975 N575 1.397 1_554 S
C980 C371 1.442 . S
C991 N740 1.391 . S
C996 C404 1.416 . S
C1007 C437 1.424 . S
C1012 N542 1.354 1_556 S
C1023 C470 1.436 . S
C1028 N773 1.385 . S
C1039 N707 1.389 1_556 S
C1044 C503 1.415 . S
C1055 N311 1.401 . S
C1060 C536 1.442 . S
C1071 C569 1.415 . S
C1076 N509 1.411 . S
C1087 N410 1.411 1_545 S
C1092 C602 1.424 . S
C1103 N443 1.409 . S
C1108 C635 1.415 . S
C1119 N476 1.387 1_565 S
C1124 C668 1.443 . S
C1135 N377 1.393 . S
C1140 C701 1.440 . S
C1151 N278 1.413 1_565 S
C1156 C734 1.434 . S
C1167 N344 1.368 1_545 S
C1172 C767 1.440 . S
C1183 C215 1.621 . S
C1188 C17 1.625 . S
C1199 C50 1.625 . S
C1204 C248 1.620 . S
C1215 C149 1.621 . S
C1220 C83 1.613 . S
C1231 C182 1.621 . S
C1236 C116 1.625 . S
C1247 C347 1.602 . S
C1252 C281 1.606 . S
C1263 C314 1.622 . S
C1268 C380 1.615 . S
C1279 C413 1.603 . S
C1284 C479 1.609 . S
C1295 C512 1.625 . S
C1300 C446 1.621 . S
C1311 C545 1.614 . S
C1316 C578 1.622 . S
C1327 C611 1.603 . S
C1332 C776 1.602 . S
C1343 C644 1.624 . S
C1348 C710 1.618 . S
C1359 C743 1.603 . S
C1364 C677 1.610 . S
C1375 C28 1.274 . S
C1380 N269 1.260 . S
C1391 C61 1.288 . S
C1396 N302 1.262 . S
C1407 N335 1.260 . S
C1412 C94 1.272 . S
C1423 N368 1.262 . S
C1428 C127 1.268 . S
C1439 C160 1.236 . S
C1444 N401 1.279 . S
C1455 N434 1.275 . S
C1460 C193 1.275 . S
C1471 C226 1.283 . S
C1476 N467 1.258 . S
C1487 N500 1.259 . S
C1492 C259 1.287 . S
C1503 C292 1.265 . S
C1508 N533 1.263 . S
C1519 N764 1.270 . S
C1524 C325 1.249 . S
C1535 C358 1.269 . S
C1540 N698 1.261 . S
C1551 C391 1.231 . S
C1556 N731 1.289 . S
C1567 N566 1.281 . S
C1572 C424 1.234 . S
C1583 C457 1.255 . S
C1588 N599 1.267 . S
C1599 C490 1.244 . S
C1604 N632 1.274 . S
C1615 C523 1.277 . S
C1620 N665 1.274 . S
C1631 C556 1.245 . S
C1636 N5 1.289 . S
C1647 C589 1.235 . S
C1652 N137 1.280 . S
C1663 C622 1.286 . S
C1668 N170 1.267 . S
C1679 N203 1.262 . S
C1684 C655 1.266 . S
C1695 C688 1.230 . S
C1700 N236 1.287 . S
C1711 N71 1.290 . S
C1716 C721 1.232 . S
C1727 N104 1.266 . S
C1732 C754 1.257 . S
C1743 C787 1.269 . S
C1748 N38 1.261 . S
