# Generated by pormake.
# Topology umv, (4)-cn, num edge types: 1
# Building blocks:
#     Node 0, Type 0, BuildingBlock: AZAVOO_clean_sbu_0, # of connection points: 4
#     Node 1, Type 0, BuildingBlock: AZAVOO_clean_sbu_0, # of connection points: 4
#     Node 2, Type 0, BuildingBlock: AZAVOO_clean_sbu_0, # of connection points: 4
#     Node 3, Type 0, BuildingBlock: AZAVOO_clean_sbu_0, # of connection points: 4
#     Node 4, Type 0, BuildingBlock: AZAVOO_clean_sbu_0, # of connection points: 4
#     Node 5, Type 0, BuildingBlock: AZAVOO_clean_sbu_0, # of connection points: 4
#     Node 6, Type 0, BuildingBlock: AZAVOO_clean_sbu_0, # of connection points: 4
#     Node 7, Type 0, BuildingBlock: AZAVOO_clean_sbu_0, # of connection points: 4
#     Node 8, Type 0, BuildingBlock: AZAVOO_clean_sbu_0, # of connection points: 4
#     Node 9, Type 0, BuildingBlock: AZAVOO_clean_sbu_0, # of connection points: 4
#     Node 10, Type 0, BuildingBlock: AZAVOO_clean_sbu_0, # of connection points: 4
#     Node 11, Type 0, BuildingBlock: AZAVOO_clean_sbu_0, # of connection points: 4
#     Node 12, Type 0, BuildingBlock: AZAVOO_clean_sbu_0, # of connection points: 4
#     Node 13, Type 0, BuildingBlock: AZAVOO_clean_sbu_0, # of connection points: 4
#     Node 14, Type 0, BuildingBlock: AZAVOO_clean_sbu_0, # of connection points: 4
#     Node 15, Type 0, BuildingBlock: AZAVOO_clean_sbu_0, # of connection points: 4
#     Node 16, Type 0, BuildingBlock: AZAVOO_clean_sbu_0, # of connection points: 4
#     Node 17, Type 0, BuildingBlock: AZAVOO_clean_sbu_0, # of connection points: 4
#     Node 18, Type 0, BuildingBlock: AZAVOO_clean_sbu_0, # of connection points: 4
#     Node 19, Type 0, BuildingBlock: AZAVOO_clean_sbu_0, # of connection points: 4
#     Node 20, Type 0, BuildingBlock: AZAVOO_clean_sbu_0, # of connection points: 4
#     Node 21, Type 0, BuildingBlock: AZAVOO_clean_sbu_0, # of connection points: 4
#     Node 22, Type 0, BuildingBlock: AZAVOO_clean_sbu_0, # of connection points: 4
#     Node 23, Type 0, BuildingBlock: AZAVOO_clean_sbu_0, # of connection points: 4
#     Node 24, Type 0, BuildingBlock: AZAVOO_clean_sbu_0, # of connection points: 4
#     Node 25, Type 0, BuildingBlock: AZAVOO_clean_sbu_0, # of connection points: 4
#     Node 26, Type 0, BuildingBlock: AZAVOO_clean_sbu_0, # of connection points: 4
#     Node 27, Type 0, BuildingBlock: AZAVOO_clean_sbu_0, # of connection points: 4
#     Node 28, Type 0, BuildingBlock: AZAVOO_clean_sbu_0, # of connection points: 4
#     Node 29, Type 0, BuildingBlock: AZAVOO_clean_sbu_0, # of connection points: 4
#     Node 30, Type 0, BuildingBlock: AZAVOO_clean_sbu_0, # of connection points: 4
#     Node 31, Type 0, BuildingBlock: AZAVOO_clean_sbu_0, # of connection points: 4
#     Edge 32, Type (0, 0), BuildingBlock: OJICUG_clean_linker_0, # of connection points: 2
#     Edge 33, Type (0, 0), BuildingBlock: OJICUG_clean_linker_0, # of connection points: 2
#     Edge 34, Type (0, 0), BuildingBlock: OJICUG_clean_linker_0, # of connection points: 2
#     Edge 35, Type (0, 0), BuildingBlock: OJICUG_clean_linker_0, # of connection points: 2
#     Edge 36, Type (0, 0), BuildingBlock: OJICUG_clean_linker_0, # of connection points: 2
#     Edge 37, Type (0, 0), BuildingBlock: OJICUG_clean_linker_0, # of connection points: 2
#     Edge 38, Type (0, 0), BuildingBlock: OJICUG_clean_linker_0, # of connection points: 2
#     Edge 39, Type (0, 0), BuildingBlock: OJICUG_clean_linker_0, # of connection points: 2
#     Edge 40, Type (0, 0), BuildingBlock: OJICUG_clean_linker_0, # of connection points: 2
#     Edge 41, Type (0, 0), BuildingBlock: OJICUG_clean_linker_0, # of connection points: 2
#     Edge 42, Type (0, 0), BuildingBlock: OJICUG_clean_linker_0, # of connection points: 2
#     Edge 43, Type (0, 0), BuildingBlock: OJICUG_clean_linker_0, # of connection points: 2
#     Edge 44, Type (0, 0), BuildingBlock: OJICUG_clean_linker_0, # of connection points: 2
#     Edge 45, Type (0, 0), BuildingBlock: OJICUG_clean_linker_0, # of connection points: 2
#     Edge 46, Type (0, 0), BuildingBlock: OJICUG_clean_linker_0, # of connection points: 2
#     Edge 47, Type (0, 0), BuildingBlock: OJICUG_clean_linker_0, # of connection points: 2
#     Edge 48, Type (0, 0), BuildingBlock: OJICUG_clean_linker_0, # of connection points: 2
#     Edge 49, Type (0, 0), BuildingBlock: OJICUG_clean_linker_0, # of connection points: 2
#     Edge 50, Type (0, 0), BuildingBlock: OJICUG_clean_linker_0, # of connection points: 2
#     Edge 51, Type (0, 0), BuildingBlock: OJICUG_clean_linker_0, # of connection points: 2
#     Edge 52, Type (0, 0), BuildingBlock: OJICUG_clean_linker_0, # of connection points: 2
#     Edge 53, Type (0, 0), BuildingBlock: OJICUG_clean_linker_0, # of connection points: 2
#     Edge 54, Type (0, 0), BuildingBlock: OJICUG_clean_linker_0, # of connection points: 2
#     Edge 55, Type (0, 0), BuildingBlock: OJICUG_clean_linker_0, # of connection points: 2
#     Edge 56, Type (0, 0), BuildingBlock: OJICUG_clean_linker_0, # of connection points: 2
#     Edge 57, Type (0, 0), BuildingBlock: OJICUG_clean_linker_0, # of connection points: 2
#     Edge 58, Type (0, 0), BuildingBlock: OJICUG_clean_linker_0, # of connection points: 2
#     Edge 59, Type (0, 0), BuildingBlock: OJICUG_clean_linker_0, # of connection points: 2
#     Edge 60, Type (0, 0), BuildingBlock: OJICUG_clean_linker_0, # of connection points: 2
#     Edge 61, Type (0, 0), BuildingBlock: OJICUG_clean_linker_0, # of connection points: 2
#     Edge 62, Type (0, 0), BuildingBlock: OJICUG_clean_linker_0, # of connection points: 2
#     Edge 63, Type (0, 0), BuildingBlock: OJICUG_clean_linker_0, # of connection points: 2
#     Edge 64, Type (0, 0), BuildingBlock: OJICUG_clean_linker_0, # of connection points: 2
#     Edge 65, Type (0, 0), BuildingBlock: OJICUG_clean_linker_0, # of connection points: 2
#     Edge 66, Type (0, 0), BuildingBlock: OJICUG_clean_linker_0, # of connection points: 2
#     Edge 67, Type (0, 0), BuildingBlock: OJICUG_clean_linker_0, # of connection points: 2
#     Edge 68, Type (0, 0), BuildingBlock: OJICUG_clean_linker_0, # of connection points: 2
#     Edge 69, Type (0, 0), BuildingBlock: OJICUG_clean_linker_0, # of connection points: 2
#     Edge 70, Type (0, 0), BuildingBlock: OJICUG_clean_linker_0, # of connection points: 2
#     Edge 71, Type (0, 0), BuildingBlock: OJICUG_clean_linker_0, # of connection points: 2
#     Edge 72, Type (0, 0), BuildingBlock: OJICUG_clean_linker_0, # of connection points: 2
#     Edge 73, Type (0, 0), BuildingBlock: OJICUG_clean_linker_0, # of connection points: 2
#     Edge 74, Type (0, 0), BuildingBlock: OJICUG_clean_linker_0, # of connection points: 2
#     Edge 75, Type (0, 0), BuildingBlock: OJICUG_clean_linker_0, # of connection points: 2
#     Edge 76, Type (0, 0), BuildingBlock: OJICUG_clean_linker_0, # of connection points: 2
#     Edge 77, Type (0, 0), BuildingBlock: OJICUG_clean_linker_0, # of connection points: 2
#     Edge 78, Type (0, 0), BuildingBlock: OJICUG_clean_linker_0, # of connection points: 2
#     Edge 79, Type (0, 0), BuildingBlock: OJICUG_clean_linker_0, # of connection points: 2
#     Edge 80, Type (0, 0), BuildingBlock: OJICUG_clean_linker_0, # of connection points: 2
#     Edge 81, Type (0, 0), BuildingBlock: OJICUG_clean_linker_0, # of connection points: 2
#     Edge 82, Type (0, 0), BuildingBlock: OJICUG_clean_linker_0, # of connection points: 2
#     Edge 83, Type (0, 0), BuildingBlock: OJICUG_clean_linker_0, # of connection points: 2
#     Edge 84, Type (0, 0), BuildingBlock: OJICUG_clean_linker_0, # of connection points: 2
#     Edge 85, Type (0, 0), BuildingBlock: OJICUG_clean_linker_0, # of connection points: 2
#     Edge 86, Type (0, 0), BuildingBlock: OJICUG_clean_linker_0, # of connection points: 2
#     Edge 87, Type (0, 0), BuildingBlock: OJICUG_clean_linker_0, # of connection points: 2
#     Edge 88, Type (0, 0), BuildingBlock: OJICUG_clean_linker_0, # of connection points: 2
#     Edge 89, Type (0, 0), BuildingBlock: OJICUG_clean_linker_0, # of connection points: 2
#     Edge 90, Type (0, 0), BuildingBlock: OJICUG_clean_linker_0, # of connection points: 2
#     Edge 91, Type (0, 0), BuildingBlock: OJICUG_clean_linker_0, # of connection points: 2
#     Edge 92, Type (0, 0), BuildingBlock: OJICUG_clean_linker_0, # of connection points: 2
#     Edge 93, Type (0, 0), BuildingBlock: OJICUG_clean_linker_0, # of connection points: 2
#     Edge 94, Type (0, 0), BuildingBlock: OJICUG_clean_linker_0, # of connection points: 2
#     Edge 95, Type (0, 0), BuildingBlock: OJICUG_clean_linker_0, # of connection points: 2
# Relax obj value: 0.130
# Max RMSD: 0.103
# Mean RMSD: 0.103
data_MOF--net-umv--node1-AZAVOO_clean_sbu_0--edge1-OJICUG_clean_linker_0
_symmetry_space_group_name_H-M    P1
_symmetry_Int_Tables_number       1
_symmetry_cell_setting            triclinic
loop_
_symmetry_equiv_pos_as_xyz
'x, y, z'
_cell_length_a     66.905139
_cell_length_b     17.356615
_cell_length_c     61.06088
_cell_angle_alpha  90.03219
_cell_angle_beta   89.950446
_cell_angle_gamma 90.049953
loop_
_atom_site_label
_atom_site_type_symbol
_atom_site_fract_x
_atom_site_fract_y
_atom_site_fract_z
_atom_type_partial_charge
Mg0 Mg 0.0317 0.11299 0.30684 0.0
O1 O 0.03248 0.21943 0.32959 0.0
O2 O 0.05268 0.19004 0.35762 0.0
Mg3 Mg 0.06606 0.0715 0.3522 0.0
C4 C 0.04086 0.23615 0.34782 0.0
C5 C 0.00556 0.21981 0.27768 0.0
O6 O 0.02246 0.25841 0.27743 0.0
O7 O 0.01222 0.04602 0.33109 0.0
O8 O 0.03493 0.02029 0.35691 0.0
O9 O 0.05762 0.15771 0.28757 0.0
O10 O 0.06048 0.08455 0.31699 0.0
C11 C 0.01721 0.01541 0.34927 0.0
C12 C 0.06897 0.12446 0.30186 0.0
O13 O 0.00436 0.15853 0.289 0.0
Mg14 Mg 0.19227 0.15788 0.2999 0.0
O15 O 0.19211 0.05594 0.3239 0.0
O16 O 0.17408 0.08821 0.35336 0.0
Mg17 Mg 0.16144 0.20819 0.34758 0.0
C18 C 0.18496 0.04067 0.3428 0.0
C19 C 0.21504 0.07229 0.26273 0.0
O20 O 0.19751 0.08046 0.25334 0.0
O21 O 0.21383 0.22637 0.32166 0.0
O22 O 0.19318 0.25637 0.34918 0.0
O23 O 0.16483 0.11281 0.28362 0.0
O24 O 0.1644 0.19239 0.3119 0.0
C25 C 0.21031 0.25908 0.33999 0.0
C26 C 0.15468 0.15033 0.29817 0.0
O27 O 0.21785 0.10065 0.28168 0.0
Mg28 Mg 0.03921 0.11521 0.93437 0.0
O29 O 0.03874 0.00974 0.91138 0.0
O30 O 0.0567 0.04019 0.88164 0.0
Mg31 Mg 0.06969 0.16002 0.88592 0.0
C32 C 0.04585 -0.00665 0.8925 0.0
C33 C 0.01845 0.06622 0.97573 0.0
O34 O 0.03455 0.10329 0.98213 0.0
O35 O 0.01734 0.18125 0.91245 0.0
O36 O 0.03802 0.20859 0.88472 0.0
O37 O 0.06659 0.07132 0.95064 0.0
O38 O 0.06702 0.14687 0.92152 0.0
C39 C 0.0209 0.21253 0.89392 0.0
C40 C 0.07672 0.10629 0.93559 0.0
O41 O 0.01462 0.06289 0.95535 0.0
Mg42 Mg 0.19976 0.07012 0.93151 0.0
O43 O 0.20017 0.17516 0.90844 0.0
O44 O 0.18159 0.14547 0.87914 0.0
Mg45 Mg 0.16824 0.02643 0.88393 0.0
C46 C 0.19285 0.19171 0.88969 0.0
C47 C 0.22208 0.11805 0.97212 0.0
O48 O 0.20621 0.08167 0.97949 0.0
O49 O 0.221 0.00371 0.90905 0.0
O50 O 0.19984 0.97707 0.88173 0.0
O51 O 0.17296 0.11536 0.94859 0.0
O52 O 0.1716 0.03966 0.91949 0.0
C53 C 0.21711 0.97289 0.89055 0.0
C54 C 0.16237 0.08066 0.93388 0.0
O55 O 0.22496 0.12124 0.95157 0.0
Mg56 Mg 0.9423 0.88994 0.68321 0.0
O57 O 0.94084 0.7875 0.65918 0.0
O58 O 0.91896 0.81836 0.63285 0.0
Mg59 Mg 0.90871 0.94161 0.63798 0.0
C60 C 0.93105 0.77133 0.64182 0.0
C61 C 0.96508 0.82452 0.72164 0.0
O62 O 0.94904 0.85517 0.73049 0.0
O63 O 0.96298 0.957 0.66033 0.0
O64 O 0.94081 0.98587 0.63422 0.0
O65 O 0.91577 0.84481 0.70102 0.0
O66 O 0.91384 0.92535 0.67306 0.0
C67 C 0.95846 0.98866 0.64214 0.0
C68 C 0.90491 0.88223 0.68715 0.0
O69 O 0.96789 0.83224 0.70116 0.0
Mg70 Mg 0.78204 0.8381 0.68684 0.0
O71 O 0.78131 0.94359 0.66388 0.0
O72 O 0.79931 0.91385 0.63412 0.0
Mg73 Mg 0.81254 0.79447 0.63843 0.0
C74 C 0.78835 0.96025 0.64499 0.0
C75 C 0.76151 0.88753 0.72818 0.0
O76 O 0.77783 0.85208 0.73457 0.0
O77 O 0.76028 0.77152 0.66488 0.0
O78 O 0.78088 0.74499 0.63703 0.0
O79 O 0.80915 0.8834 0.70321 0.0
O80 O 0.80997 0.80769 0.67409 0.0
C81 C 0.7638 0.74062 0.64629 0.0
C82 C 0.81946 0.84885 0.68825 0.0
O83 O 0.75746 0.88938 0.70784 0.0
Mg84 Mg 0.96193 0.8107 0.08266 0.0
O85 O 0.96013 0.91937 0.10521 0.0
O86 O 0.94312 0.88995 0.13589 0.0
Mg87 Mg 0.94476 0.7611 0.13777 0.0
C88 C 0.95121 0.93879 0.123 0.0
C89 C 0.97392 0.88619 0.03872 0.0
O90 O 0.95708 0.85238 0.03324 0.0
O91 O 0.9898 0.75524 0.09793 0.0
O92 O 0.97686 0.78685 0.12867 0.0
O93 O 0.93128 0.83916 0.07382 0.0
O94 O 0.93827 0.7604 0.10158 0.0
C95 C 0.98546 0.73578 0.11735 0.0
C96 C 0.92531 0.79927 0.09048 0.0
O97 O 0.98046 0.8785 0.05815 0.0
Mg98 Mg 0.80671 0.88513 0.08404 0.0
O99 O 0.7972 0.79068 0.10723 0.0
O100 O 0.8107 0.80471 0.14034 0.0
Mg101 Mg 0.82872 0.91665 0.13811 0.0
C102 C 0.7997 0.76798 0.12685 0.0
C103 C 0.78824 0.81274 0.04223 0.0
O104 O 0.80719 0.81411 0.03661 0.0
O105 O 0.78519 0.96689 0.10047 0.0
O106 O 0.79938 0.98453 0.13326 0.0
O107 O 0.83297 0.81595 0.07534 0.0
O108 O 0.83283 0.90199 0.10224 0.0
C109 C 0.78537 -0.00268 0.11949 0.0
C110 C 0.84209 0.84853 0.09158 0.0
O111 O 0.78299 0.84199 0.06044 0.0
Mg112 Mg 0.03899 0.56945 0.81368 0.0
O113 O 0.03926 0.67312 0.83717 0.0
O114 O 0.05796 0.64245 0.86625 0.0
Mg115 Mg 0.0707 0.52263 0.86086 0.0
C116 C 0.04677 0.68927 0.85585 0.0
C117 C 0.01702 0.63395 0.77418 0.0
O118 O 0.03346 0.60551 0.76563 0.0
O119 O 0.01769 0.50277 0.83613 0.0
O120 O 0.03895 0.47455 0.8632 0.0
O121 O 0.06589 0.61405 0.79661 0.0
O122 O 0.06714 0.53646 0.82528 0.0
C123 C 0.02162 0.4712 0.85451 0.0
C124 C 0.07644 0.57779 0.81102 0.0
O125 O 0.0138 0.62491 0.79454 0.0
Mg126 Mg 0.19949 0.61551 0.8105 0.0
O127 O 0.20031 0.51091 0.83376 0.0
O128 O 0.1821 0.54104 0.86335 0.0
Mg129 Mg 0.16865 0.65981 0.85869 0.0
C130 C 0.19322 0.49467 0.85267 0.0
C131 C 0.22188 0.56518 0.76957 0.0
O132 O 0.20538 0.59569 0.7618 0.0
O133 O 0.22094 0.6832 0.83247 0.0
O134 O 0.20019 0.70986 0.86017 0.0
O135 O 0.17238 0.56932 0.7941 0.0
O136 O 0.17156 0.64544 0.82313 0.0
C137 C 0.2173 0.71431 0.85099 0.0
C138 C 0.16207 0.60389 0.80909 0.0
O139 O 0.22474 0.56557 0.79015 0.0
Mg140 Mg 0.03751 0.65582 0.42891 0.0
O141 O 0.03656 0.5531 0.405 0.0
O142 O 0.05408 0.58506 0.37511 0.0
Mg143 Mg 0.06742 0.70407 0.38037 0.0
C144 C 0.04323 0.53791 0.38586 0.0
C145 C 0.01621 0.59356 0.46939 0.0
O146 O 0.03299 0.62076 0.47748 0.0
O147 O 0.01556 0.72429 0.40779 0.0
O148 O 0.0358 0.75336 0.37982 0.0
O149 O 0.06505 0.61003 0.44453 0.0
O150 O 0.06518 0.68848 0.41602 0.0
C151 C 0.01885 0.75674 0.38939 0.0
C152 C 0.07503 0.64676 0.42969 0.0
O153 O 0.01275 0.60156 0.44905 0.0
Mg154 Mg 0.19808 0.6178 0.42174 0.0
O155 O 0.19644 0.72209 0.39844 0.0
O156 O 0.1764 0.6901 0.37052 0.0
Mg157 Mg 0.16404 0.56999 0.37646 0.0
C158 C 0.1879 0.73767 0.38026 0.0
C159 C 0.22257 0.6829 0.45978 0.0
O160 O 0.20604 0.65978 0.46938 0.0
O161 O 0.21814 0.55046 0.39799 0.0
O162 O 0.19549 0.52151 0.37237 0.0
O163 O 0.17177 0.66168 0.44037 0.0
O164 O 0.16952 0.58455 0.41167 0.0
C165 C 0.21322 0.51815 0.37999 0.0
C166 C 0.16073 0.62552 0.42635 0.0
O167 O 0.22461 0.67184 0.43931 0.0
Mg168 Mg 0.91824 0.3804 0.18107 0.0
O169 O 0.92745 0.27293 0.16215 0.0
O170 O 0.9137 0.27746 0.12884 0.0
Mg171 Mg 0.89429 0.38579 0.1274 0.0
C172 C 0.92478 0.24477 0.14308 0.0
C173 C 0.94172 0.29992 0.21824 0.0
O174 O 0.92599 0.25494 0.21664 0.0
O175 O 0.93887 0.4518 0.16013 0.0
O176 O 0.9232 0.45998 0.12794 0.0
O177 O 0.89236 0.31933 0.19473 0.0
O178 O 0.8912 0.38457 0.16365 0.0
C179 C 0.93786 0.47667 0.14053 0.0
C180 C 0.88232 0.34025 0.17763 0.0
O181 O 0.94317 0.35786 0.20562 0.0
Mg182 Mg 0.7601 0.31629 0.17973 0.0
O183 O 0.76646 0.43393 0.16269 0.0
O184 O 0.78577 0.41436 0.13295 0.0
Mg185 Mg 0.78433 0.28759 0.12607 0.0
C186 C 0.77701 0.45867 0.14662 0.0
C187 C 0.74614 0.42243 0.21779 0.0
O188 O 0.76544 0.43636 0.21799 0.0
O189 O 0.73379 0.28252 0.15754 0.0
O190 O 0.75148 0.31712 0.13006 0.0
O191 O 0.78967 0.32483 0.19511 0.0
O192 O 0.78552 0.27109 0.16249 0.0
C193 C 0.74048 0.26633 0.13867 0.0
C194 C 0.79746 0.29517 0.17765 0.0
O195 O 0.73912 0.37526 0.20382 0.0
Mg196 Mg 0.94053 0.35117 0.56312 0.0
O197 O 0.9395 0.4516 0.58794 0.0
O198 O 0.91847 0.4165 0.6147 0.0
Mg199 Mg 0.90821 0.2936 0.60899 0.0
C200 C 0.93007 0.46556 0.60573 0.0
C201 C 0.96257 0.41756 0.52419 0.0
O202 O 0.94627 0.38765 0.51573 0.0
O203 O 0.96192 0.28278 0.58484 0.0
O204 O 0.94045 0.25039 0.61137 0.0
O205 O 0.91332 0.39648 0.54651 0.0
O206 O 0.91252 0.31366 0.57399 0.0
C207 C 0.95791 0.24919 0.60291 0.0
C208 C 0.90302 0.35728 0.56054 0.0
O209 O 0.96567 0.41014 0.54462 0.0
Mg210 Mg 0.77985 0.38366 0.56612 0.0
O211 O 0.78034 0.27975 0.58953 0.0
O212 O 0.79895 0.31155 0.6186 0.0
Mg213 Mg 0.81147 0.43182 0.61331 0.0
C214 C 0.7879 0.2641 0.60821 0.0
C215 C 0.75981 0.32988 0.52572 0.0
O216 O 0.77485 0.37371 0.51963 0.0
O217 O 0.75822 0.44951 0.58846 0.0
O218 O 0.77966 0.47892 0.61529 0.0
O219 O 0.80691 0.34064 0.54908 0.0
O220 O 0.80795 0.41823 0.57776 0.0
C221 C 0.76227 0.48181 0.60674 0.0
C222 C 0.81737 0.37773 0.56339 0.0
O223 O 0.75555 0.32618 0.54599 0.0
Mg224 Mg 0.53521 0.14417 0.82851 0.0
O225 O 0.54053 0.2542 0.85002 0.0
O226 O 0.5624 0.22524 0.87678 0.0
Mg227 Mg 0.5576 0.09737 0.88116 0.0
C228 C 0.55246 0.27384 0.8655 0.0
C229 C 0.52196 0.21047 0.78483 0.0
O230 O 0.53708 0.16582 0.77961 0.0
O231 O 0.50794 0.10044 0.84784 0.0
O232 O 0.52543 0.1336 0.87569 0.0
O233 O 0.56548 0.15801 0.81515 0.0
O234 O 0.55962 0.08773 0.84481 0.0
C235 C 0.51296 0.08713 0.86749 0.0
C236 C 0.57227 0.11714 0.83119 0.0
O237 O 0.51635 0.21356 0.80472 0.0
Mg238 Mg 0.69535 0.10595 0.83399 0.0
O239 O 0.69793 -0.00029 0.85612 0.0
O240 O 0.68153 0.02512 0.88724 0.0
Mg241 Mg 0.6674 0.14359 0.88449 0.0
C242 C 0.69222 0.98096 0.87534 0.0
C243 C 0.71432 0.05596 0.79132 0.0
O244 O 0.69746 0.08839 0.78529 0.0
O245 O 0.71806 0.17103 0.855 0.0
O246 O 0.69912 0.1937 0.88451 0.0
O247 O 0.66762 0.0603 0.81925 0.0
O248 O 0.66793 0.13506 0.84854 0.0
C249 C 0.71564 0.19931 0.87412 0.0
C250 C 0.65784 0.09471 0.83467 0.0
O251 O 0.71905 0.05658 0.81149 0.0
Mg252 Mg 0.56895 0.11578 0.41297 0.0
O253 O 0.55822 0.01107 0.3942 0.0
O254 O 0.57069 0.01277 0.36027 0.0
Mg255 Mg 0.58979 0.12173 0.35771 0.0
C256 C 0.56008 0.98151 0.37521 0.0
C257 C 0.5498 0.07073 0.45792 0.0
O258 O 0.56874 0.06833 0.46353 0.0
O259 O 0.54763 0.19037 0.39392 0.0
O260 O 0.56102 0.19569 0.36044 0.0
O261 O 0.59475 0.04858 0.42391 0.0
O262 O 0.59489 0.11936 0.39369 0.0
C263 C 0.54737 0.214 0.37416 0.0
C264 C 0.6038 0.07004 0.40618 0.0
O265 O 0.54516 0.09075 0.43856 0.0
Mg266 Mg 0.722 0.03126 0.41859 0.0
O267 O 0.7188 0.14596 0.39944 0.0
O268 O 0.7058 0.12466 0.36605 0.0
Mg269 Mg 0.7089 -0.00273 0.36066 0.0
C270 C 0.71159 0.16998 0.38125 0.0
C271 C 0.72778 0.11054 0.46383 0.0
O272 O 0.71037 0.07756 0.46716 0.0
O273 O 0.75208 -0.00249 0.40334 0.0
O274 O 0.74058 0.02539 0.37167 0.0
O275 O 0.69034 0.04178 0.42651 0.0
O276 O 0.70058 0.98238 0.39625 0.0
C277 C 0.74862 0.97556 0.38391 0.0
C278 C 0.6861 0.0091 0.40807 0.0
O279 O 0.737 0.09834 0.44594 0.0
Mg280 Mg 0.46174 0.9549 0.1916 0.0
O281 O 0.45968 0.85394 0.16727 0.0
O282 O 0.43885 0.88719 0.14021 0.0
Mg283 Mg 0.42684 0.00679 0.14745 0.0
C284 C 0.45064 0.83927 0.14931 0.0
C285 C 0.48422 0.88787 0.22895 0.0
O286 O 0.46925 0.9266 0.23749 0.0
O287 O 0.48159 0.02548 0.16831 0.0
O288 O 0.45823 0.05534 0.14358 0.0
O289 O 0.43602 0.90615 0.20993 0.0
O290 O 0.43281 0.9879 0.18238 0.0
C291 C 0.47613 0.05906 0.15069 0.0
C292 C 0.42458 0.94233 0.19639 0.0
O293 O 0.48756 0.89447 0.20854 0.0
Mg294 Mg 0.30562 0.82889 0.18719 0.0
O295 O 0.30593 0.92246 0.16046 0.0
O296 O 0.3304 0.89447 0.13669 0.0
Mg297 Mg 0.34399 0.77947 0.14653 0.0
C298 C 0.31634 0.93803 0.14345 0.0
C299 C 0.27746 0.8949 0.2211 0.0
O300 O 0.29371 0.87798 0.23216 0.0
O301 O 0.28958 0.7461 0.1644 0.0
O302 O 0.314 0.71832 0.1406 0.0
O303 O 0.3287 0.89311 0.20584 0.0
O304 O 0.33555 0.8057 0.18047 0.0
C305 C 0.29609 0.71055 0.14754 0.0
C306 C 0.34175 0.85796 0.19384 0.0
O307 O 0.27671 0.87782 0.20087 0.0
Mg308 Mg 0.46608 0.88278 0.55457 0.0
O309 O 0.4658 0.98719 0.57794 0.0
O310 O 0.44656 0.95642 0.60667 0.0
Mg311 Mg 0.4334 0.83729 0.60129 0.0
C312 C 0.45801 0.00314 0.59654 0.0
C313 C 0.48873 0.95186 0.51576 0.0
O314 O 0.47078 0.93922 0.50786 0.0
O315 O 0.48672 0.81536 0.57756 0.0
O316 O 0.4649 0.78795 0.60421 0.0
O317 O 0.43922 0.9272 0.53698 0.0
O318 O 0.43765 0.85101 0.56585 0.0
C319 C 0.48237 0.78396 0.59586 0.0
C320 C 0.42848 0.89125 0.55131 0.0
O321 O 0.49234 0.93374 0.53555 0.0
Mg322 Mg 0.30501 0.91565 0.54935 0.0
O323 O 0.30452 0.81278 0.57309 0.0
O324 O 0.32242 0.84421 0.60273 0.0
Mg325 Mg 0.33553 0.96359 0.59751 0.0
C326 C 0.31146 0.7972 0.59206 0.0
C327 C 0.28249 0.84641 0.5098 0.0
O328 O 0.29959 0.86574 0.50073 0.0
O329 O 0.28334 0.98357 0.57107 0.0
O330 O 0.30388 0.01216 0.59879 0.0
O331 O 0.33259 0.87067 0.53326 0.0
O332 O 0.33279 0.9486 0.56189 0.0
C333 C 0.2868 0.0155 0.58952 0.0
C334 C 0.34261 0.90725 0.5481 0.0
O335 O 0.27966 0.86131 0.52996 0.0
Mg336 Mg 0.52485 0.5388 0.32083 0.0
O337 O 0.52665 0.64916 0.34201 0.0
O338 O 0.54042 0.62435 0.37478 0.0
Mg339 Mg 0.53736 0.49591 0.37819 0.0
C340 C 0.53405 0.67132 0.36029 0.0
C341 C 0.51898 0.63961 0.27897 0.0
O342 O 0.53752 0.6178 0.27557 0.0
O343 O 0.49504 0.49478 0.33457 0.0
O344 O 0.50588 0.52264 0.36654 0.0
O345 O 0.55651 0.55771 0.3143 0.0
O346 O 0.54628 0.48698 0.34256 0.0
C347 C 0.49837 0.47247 0.35398 0.0
C348 C 0.56064 0.52015 0.33199 0.0
O349 O 0.50936 0.61202 0.29514 0.0
Mg350 Mg 0.67819 0.61202 0.32741 0.0
O351 O 0.68882 0.50944 0.34706 0.0
O352 O 0.67663 0.51463 0.38108 0.0
Mg353 Mg 0.65827 0.62544 0.38307 0.0
C354 C 0.68701 0.48157 0.36626 0.0
C355 C 0.69395 0.55767 0.28268 0.0
O356 O 0.6745 0.55628 0.27976 0.0
O357 O 0.70029 0.6878 0.34513 0.0
O358 O 0.6873 0.6964 0.37878 0.0
O359 O 0.65176 0.54507 0.31803 0.0
O360 O 0.65267 0.62067 0.34729 0.0
C361 C 0.70084 0.71299 0.36475 0.0
C362 C 0.64319 0.57056 0.33558 0.0
O363 O 0.70083 0.58136 0.30089 0.0
Mg364 Mg 0.55255 0.69449 0.94205 0.0
O365 O 0.55256 0.59666 0.91646 0.0
O366 O 0.57686 0.62216 0.89225 0.0
Mg367 Mg 0.59082 0.73786 0.90083 0.0
C368 C 0.56284 0.57927 0.89949 0.0
C369 C 0.52497 0.64753 0.97796 0.0
O370 O 0.54083 0.67722 0.98745 0.0
O371 O 0.53646 0.7735 0.91833 0.0
O372 O 0.56088 0.79921 0.89435 0.0
O373 O 0.57543 0.63357 0.96161 0.0
O374 O 0.58253 0.7161 0.93506 0.0
C375 C 0.54295 0.80751 0.90121 0.0
C376 C 0.58862 0.66668 0.94933 0.0
O377 O 0.52389 0.64902 0.95718 0.0
Mg378 Mg 0.70837 0.56312 0.95394 0.0
O379 O 0.70821 0.66325 0.92926 0.0
O380 O 0.68799 0.63119 0.90148 0.0
Mg381 Mg 0.67467 0.51355 0.90835 0.0
C382 C 0.6999 0.67805 0.91089 0.0
C383 C 0.73139 0.63738 0.99129 0.0
O384 O 0.71396 0.62045 -6e-05 0.0
O385 O 0.72829 0.48929 0.93162 0.0
O386 O 0.70579 0.46197 0.90571 0.0
O387 O 0.68233 0.61632 0.97085 0.0
O388 O 0.67956 0.53397 0.94338 0.0
C389 C 0.72335 0.45657 0.91369 0.0
C390 C 0.67117 0.58135 0.95674 0.0
O391 O 0.73488 0.61739 0.97161 0.0
Mg392 Mg 0.46201 0.42864 0.67577 0.0
O393 O 0.4635 0.32271 0.65292 0.0
O394 O 0.44613 0.35204 0.62271 0.0
Mg395 Mg 0.43249 0.47085 0.62657 0.0
C396 C 0.45695 0.30596 0.63383 0.0
C397 C 0.48194 0.38801 0.71798 0.0
O398 O 0.4662 0.42928 0.7233 0.0
O399 O 0.48419 0.49504 0.65431 0.0
O400 O 0.4641 0.52085 0.626 0.0
O401 O 0.43459 0.3834 0.69155 0.0
O402 O 0.43436 0.45808 0.66224 0.0
C403 C 0.481 0.52561 0.63562 0.0
C404 C 0.42458 0.41735 0.67626 0.0
O405 O 0.48603 0.37892 0.6978 0.0
Mg406 Mg 0.30181 0.37241 0.67083 0.0
O407 O 0.30178 0.47785 0.64783 0.0
O408 O 0.32113 0.44836 0.61906 0.0
Mg409 Mg 0.33449 0.32964 0.62401 0.0
C410 C 0.30961 0.49449 0.62931 0.0
C411 C 0.27833 0.41988 0.71098 0.0
O412 O 0.29463 0.38827 0.71889 0.0
O413 O 0.28127 0.30487 0.64778 0.0
O414 O 0.30309 0.27902 0.62101 0.0
O415 O 0.32816 0.41882 0.68852 0.0
O416 O 0.33026 0.3434 0.65942 0.0
C417 C 0.28565 0.27411 0.62941 0.0
C418 C 0.3391 0.38498 0.67395 0.0
O419 O 0.27585 0.42123 0.69034 0.0
Mg420 Mg 0.44747 0.41228 0.07174 0.0
O421 O 0.44909 0.51742 0.09443 0.0
O422 O 0.43287 0.48928 0.12545 0.0
Mg423 Mg 0.41953 0.36933 0.12195 0.0
C424 C 0.44321 0.53506 0.11368 0.0
C425 C 0.46793 0.47917 0.03052 0.0
O426 O 0.4507 0.45725 0.02229 0.0
O427 O 0.47028 0.34717 0.09265 0.0
O428 O 0.45139 0.32091 0.12195 0.0
O429 O 0.41936 0.45564 0.05695 0.0
O430 O 0.42024 0.37978 0.08599 0.0
C431 C 0.46794 0.31707 0.11155 0.0
C432 C 0.40987 0.41972 0.07234 0.0
O433 O 0.47162 0.46592 0.05059 0.0
Mg434 Mg 0.28685 0.37145 0.07331 0.0
O435 O 0.29359 0.26239 0.09457 0.0
O436 O 0.31748 0.2915 0.11916 0.0
Mg437 Mg 0.31296 0.41962 0.12367 0.0
C438 C 0.30661 0.24279 0.10894 0.0
C439 C 0.27017 0.29808 0.0317 0.0
O440 O 0.28554 0.33759 0.02436 0.0
O441 O 0.26114 0.41603 0.09487 0.0
O442 O 0.2805 0.38292 0.12121 0.0
O443 O 0.31617 0.35683 0.05738 0.0
O444 O 0.3124 0.42818 0.08723 0.0
C445 C 0.26725 0.42849 0.11419 0.0
C446 C 0.32408 0.39818 0.07271 0.0
O447 O 0.26597 0.30097 0.05199 0.0
C448 C 0.10073 0.1341 0.28073 0.0
C449 C 0.09084 0.13292 0.30101 0.0
H450 H 0.12893 0.13845 0.26404 0.0
C451 C 0.10205 0.13759 0.32037 0.0
H452 H 0.09237 0.13016 0.26558 0.0
C453 C 0.12285 0.14372 0.31948 0.0
C454 C 0.13278 0.14362 0.29923 0.0
H455 H 0.09477 0.1376 0.33619 0.0
H456 H 0.13112 0.14699 0.33465 0.0
C457 C 0.12158 0.13825 0.27986 0.0
C458 C 0.12961 0.08921 0.91427 0.0
C459 C 0.14048 0.08781 0.93391 0.0
H460 H 0.10069 0.0972 0.89937 0.0
C461 C 0.13026 0.09231 0.95394 0.0
H462 H 0.13718 0.08635 0.89863 0.0
C463 C 0.10946 0.09688 0.95437 0.0
C464 C 0.09858 0.0994 0.93476 0.0
H465 H 0.13835 0.09092 0.96931 0.0
H466 H 0.1019 0.09975 0.97005 0.0
C467 C 0.10878 0.09603 0.91469 0.0
C468 C 0.87273 0.87123 0.70707 0.0
C469 C 0.8831 0.87333 0.68713 0.0
H470 H 0.84425 0.86362 0.72291 0.0
C471 C 0.87247 0.86687 0.6674 0.0
H472 H 0.88066 0.87617 0.72247 0.0
C473 C 0.85171 0.85794 0.66765 0.0
C474 C 0.84131 0.85725 0.68761 0.0
H475 H 0.88019 0.86718 0.65184 0.0
H476 H 0.84382 0.85298 0.65226 0.0
C477 C 0.85196 0.86444 0.7073 0.0
C478 C 0.89649 0.87111 0.10536 0.0
C479 C 0.90428 0.80255 0.09674 0.0
H480 H 0.87022 0.9386 0.11114 0.0
C481 C 0.89132 0.74446 0.08959 0.0
H482 H 0.90638 0.91703 0.11059 0.0
C483 C 0.87074 0.75739 0.08936 0.0
C484 C 0.86294 0.82822 0.09654 0.0
H485 H 0.89718 0.69172 0.08258 0.0
H486 H 0.86104 0.71373 0.08243 0.0
C487 C 0.87586 0.88345 0.10559 0.0
C488 C 0.10851 0.58859 0.79083 0.0
C489 C 0.09834 0.58406 0.81089 0.0
H490 H 0.13685 0.59636 0.77465 0.0
C491 C 0.10926 0.58512 0.8305 0.0
H492 H 0.10037 0.58745 0.7755 0.0
C493 C 0.13008 0.59198 0.83002 0.0
C494 C 0.14023 0.59575 0.80992 0.0
H495 H 0.10173 0.58225 0.84617 0.0
H496 H 0.13821 0.59314 0.84532 0.0
C497 C 0.12931 0.59318 0.79034 0.0
C498 C 0.10806 0.63533 0.44801 0.0
C499 C 0.09692 0.64076 0.4286 0.0
H500 H 0.13721 0.62842 0.46242 0.0
C501 C 0.10691 0.64195 0.40839 0.0
H502 H 0.10066 0.63482 0.4638 0.0
C503 C 0.12773 0.63673 0.40759 0.0
C504 C 0.13886 0.63214 0.42702 0.0
H505 H 0.09866 0.64557 0.3932 0.0
H506 H 0.1351 0.63765 0.39182 0.0
C507 C 0.12889 0.63224 0.44723 0.0
C508 C 0.85137 0.28494 0.19374 0.0
C509 C 0.86102 0.31816 0.1756 0.0
H510 H 0.82364 0.25209 0.20841 0.0
C511 C 0.84973 0.335 0.15676 0.0
H512 H 0.85956 0.27087 0.2085 0.0
C513 C 0.82899 0.32214 0.15658 0.0
C514 C 0.81935 0.29403 0.1754 0.0
H515 H 0.85676 0.36037 0.14251 0.0
H516 H 0.82042 0.33841 0.14229 0.0
C517 C 0.83077 0.27398 0.19373 0.0
C518 C 0.87008 0.36397 0.54206 0.0
C519 C 0.88119 0.36432 0.5615 0.0
H520 H 0.84095 0.36599 0.5276 0.0
C521 C 0.87127 0.3701 0.58169 0.0
H522 H 0.87747 0.35945 0.52632 0.0
C523 C 0.85044 0.37557 0.58243 0.0
C524 C 0.83929 0.37336 0.56299 0.0
H525 H 0.87958 0.37163 0.59687 0.0
H526 H 0.8431 0.37994 0.59817 0.0
C527 C 0.84926 0.36724 0.54282 0.0
C528 C 0.62476 0.10681 0.85408 0.0
C529 C 0.63581 0.09309 0.83486 0.0
H530 H 0.59557 0.12299 0.86815 0.0
C531 C 0.62563 0.0826 0.815 0.0
H532 H 0.63226 0.1149 0.86961 0.0
C533 C 0.60492 0.08933 0.8141 0.0
C534 C 0.59389 0.1043 0.83314 0.0
H535 H 0.63373 0.07237 0.7999 0.0
H536 H 0.59751 0.08354 0.7984 0.0
C537 C 0.60384 0.11114 0.85328 0.0
C538 C 0.65192 0.96156 0.41324 0.0
C539 C 0.66518 0.00723 0.40116 0.0
H540 H 0.62184 0.9449 0.42393 0.0
C541 C 0.65763 0.06567 0.38761 0.0
H542 H 0.65751 0.91707 0.42407 0.0
C543 C 0.63714 0.08238 0.38764 0.0
C544 C 0.62413 0.04136 0.40147 0.0
H545 H 0.6677 0.10279 0.37859 0.0
H546 H 0.63182 0.13129 0.37831 0.0
C547 C 0.63154 0.9782 0.41333 0.0
C548 C 0.37214 0.89609 0.21451 0.0
C549 C 0.36279 0.88133 0.19439 0.0
H550 H 0.39945 0.92582 0.23084 0.0
C551 C 0.37366 0.88948 0.17489 0.0
H552 H 0.36396 0.8902 0.22974 0.0
C553 C 0.39368 0.91167 0.17548 0.0
C554 C 0.40318 0.92459 0.19561 0.0
H555 H 0.36667 0.87974 0.15918 0.0
H556 H 0.40183 0.91622 0.16025 0.0
C557 C 0.39233 0.91633 0.21514 0.0
C558 C 0.37574 0.90062 0.52973 0.0
C559 C 0.36452 0.90159 0.54915 0.0
H560 H 0.40496 0.89883 0.51533 0.0
C561 C 0.37444 0.89936 0.56938 0.0
H562 H 0.3684 0.90272 0.51394 0.0
C563 C 0.3953 0.89554 0.57018 0.0
C564 C 0.40653 0.89594 0.55076 0.0
H565 H 0.36611 0.89932 0.58457 0.0
H566 H 0.4026 0.89365 0.58596 0.0
C567 C 0.3966 0.89902 0.53054 0.0
C568 C 0.60949 0.59759 0.35137 0.0
C569 C 0.62257 0.54677 0.34066 0.0
H570 H 0.57887 0.62824 0.35699 0.0
C571 C 0.61497 0.47846 0.33151 0.0
H572 H 0.61498 0.65078 0.35846 0.0
C573 C 0.59443 0.46496 0.3311 0.0
C574 C 0.58127 0.51965 0.33977 0.0
H575 H 0.62479 0.43809 0.32328 0.0
H576 H 0.58876 0.41528 0.3223 0.0
C577 C 0.58887 0.58454 0.35066 0.0
C578 C 0.63819 0.60979 0.97353 0.0
C579 C 0.64999 0.60157 0.9547 0.0
H580 H 0.60915 0.63546 0.98642 0.0
C581 C 0.64157 0.61541 0.93404 0.0
H582 H 0.64447 0.59963 0.98963 0.0
C583 C 0.62161 0.63774 0.93224 0.0
C584 C 0.60974 0.64498 0.95105 0.0
H585 H 0.65048 0.61091 0.91933 0.0
H586 H 0.61544 0.64791 0.91614 0.0
C587 C 0.61809 0.63011 0.97169 0.0
C588 C 0.37188 0.39834 0.65455 0.0
C589 C 0.36093 0.39423 0.67413 0.0
H590 H 0.40083 0.41011 0.63983 0.0
C591 C 0.371 0.39809 0.69423 0.0
H592 H 0.36441 0.39623 0.63886 0.0
C593 C 0.39176 0.40442 0.69478 0.0
C594 C 0.40274 0.40936 0.67524 0.0
H595 H 0.36285 0.39473 0.70954 0.0
H596 H 0.39922 0.4066 0.71051 0.0
C597 C 0.39267 0.40691 0.6551 0.0
C598 C 0.35651 0.40848 0.09311 0.0
C599 C 0.34588 0.4093 0.0733 0.0
H600 H 0.3854 0.40988 0.10838 0.0
C601 C 0.35632 0.41778 0.05352 0.0
H602 H 0.34876 0.40176 0.10855 0.0
C603 C 0.37708 0.42455 0.05346 0.0
C604 C 0.38786 0.42048 0.07312 0.0
H605 H 0.34841 0.41895 0.03804 0.0
H606 H 0.38476 0.43004 0.0379 0.0
C607 C 0.37743 0.41276 0.09299 0.0
C608 C 0.97108 0.19961 0.26285 0.0
C609 C 0.98873 0.24348 0.2635 0.0
H610 H 0.94244 0.18298 0.24807 0.0
C611 C 0.9905 0.30795 0.24971 0.0
H612 H 0.96921 0.14967 0.27328 0.0
C613 C 0.97513 0.32706 0.2352 0.0
C614 C 0.95768 0.28203 0.23419 0.0
H615 H 0.0039 0.34301 0.24982 0.0
H616 H 0.97706 0.37643 0.22456 0.0
C617 C 0.95574 0.21864 0.24834 0.0
C618 C 0.2285 -0.00025 0.23041 0.0
C619 C 0.23096 0.02714 0.25192 0.0
H620 H 0.24125 0.93622 0.20374 0.0
C621 C 0.24862 0.0094 0.26325 0.0
H622 H 0.21503 0.0123 0.22126 0.0
C623 C 0.26351 0.96536 0.25331 0.0
C624 C 0.26116 0.93843 0.23175 0.0
H625 H 0.25095 0.02922 0.27988 0.0
H626 H 0.27697 0.95309 0.26251 0.0
C627 C 0.24349 0.95601 0.22039 0.0
C628 C 0.01226 0.02086 0.01395 0.0
C629 C 0.00631 0.02324 0.99188 0.0
H630 H 0.00684 0.97551 0.04595 0.0
C631 C 0.98934 0.98129 0.9854 0.0
H632 H 0.02527 0.05243 0.01952 0.0
C633 C 0.97873 0.93709 0.00064 0.0
C634 C 0.98493 0.93368 0.02262 0.0
H635 H 0.98439 0.98186 0.96851 0.0
H636 H 0.96579 0.90496 0.99512 0.0
C637 C 0.00174 0.97645 0.02912 0.0
C638 C 0.23086 0.16105 0.00999 0.0
C639 C 0.23512 0.16068 0.98744 0.0
H640 H 0.23849 0.20494 0.04165 0.0
C641 C 0.25128 0.20454 0.97964 0.0
H642 H 0.2185 0.1279 0.01654 0.0
C643 C 0.26271 0.24886 0.99405 0.0
C644 C 0.25822 0.25028 0.01655 0.0
H645 H 0.25493 0.20556 0.96236 0.0
H646 H 0.27497 0.28254 0.9875 0.0
C647 C 0.24227 0.20544 0.02439 0.0
C648 C 0.97459 0.76528 0.75745 0.0
C649 C 0.97862 0.77682 0.73508 0.0
H650 H 0.98341 0.71058 0.78729 0.0
C651 C 0.99519 0.74 0.72561 0.0
H652 H 0.96188 0.79258 0.76523 0.0
C653 C 0.00749 0.69269 0.73827 0.0
C654 C 0.00346 0.68121 0.76064 0.0
H655 H -0.00136 0.74743 0.70841 0.0
H656 H 0.02021 0.66541 0.7305 0.0
C657 C 0.98686 0.71793 0.77009 0.0
C658 C 0.72105 0.01291 0.7529 0.0
C659 C 0.72663 0.01422 0.7751 0.0
H660 H 0.72758 0.97144 0.72065 0.0
C661 C 0.74359 0.97279 0.78173 0.0
H662 H 0.70801 0.04407 0.74727 0.0
C663 C 0.75471 0.93082 0.7665 0.0
C664 C 0.74914 0.92951 0.7443 0.0
H665 H 0.74822 0.97231 0.79873 0.0
H666 H 0.76774 0.89968 0.77216 0.0
C667 C 0.7322 0.97102 0.73764 0.0
C668 C 0.76534 0.69709 0.99587 0.0
C669 C 0.74605 0.68274 0.00402 0.0
H670 H 0.79384 0.74981 0.00154 0.0
C671 C 0.7406 0.71355 0.02446 0.0
H672 H 0.76996 0.67437 0.98014 0.0
C673 C 0.75415 0.7573 0.03658 0.0
C674 C 0.77354 0.77081 0.02863 0.0
H675 H 0.72581 0.70405 0.03117 0.0
H676 H 0.74949 0.77949 0.05236 0.0
C677 C 0.77899 0.74049 0.00811 0.0
C678 C 0.2536 0.49243 0.76282 0.0
C679 C 0.2364 0.52851 0.75458 0.0
H680 H 0.28024 0.4295 0.75553 0.0
C681 C 0.23298 0.52799 0.73186 0.0
H682 H 0.25664 0.49163 0.78024 0.0
C683 C 0.24649 0.49223 0.71767 0.0
C684 C 0.2637 0.45619 0.72591 0.0
H685 H 0.21985 0.55518 0.72498 0.0
H686 H 0.24347 0.49306 0.70025 0.0
C687 C 0.2671 0.45662 0.74864 0.0
C688 C 0.98504 0.51592 0.47465 0.0
C689 C 0.00226 0.55003 0.48352 0.0
H690 H 0.95911 0.44696 0.48049 0.0
C691 C 0.0064 0.54003 0.50592 0.0
H692 H 0.98146 0.52232 0.45745 0.0
C693 C 0.99361 0.4966 0.51915 0.0
C694 C 0.97642 0.46224 0.51024 0.0
H695 H 0.01958 0.56547 0.51325 0.0
H696 H -0.00282 0.49006 0.53635 0.0
C697 C 0.97227 0.47245 0.48786 0.0
C698 C 0.23506 0.73937 0.4949 0.0
C699 C 0.23806 0.72397 0.47253 0.0
H700 H 0.24662 0.79036 0.52416 0.0
C701 C 0.25576 0.74959 0.46248 0.0
H702 H 0.22157 0.7206 0.50315 0.0
C703 C 0.27014 0.78972 0.47456 0.0
C704 C 0.2671 0.8052 0.49692 0.0
H705 H 0.25851 0.73879 0.44526 0.0
H706 H 0.28364 0.80855 0.46634 0.0
C707 C 0.2494 0.77961 0.50695 0.0
C708 C 0.74083 0.50056 0.25181 0.0
C709 C 0.73283 0.45975 0.23395 0.0
H710 H 0.73484 0.56343 0.2813 0.0
C711 C 0.71198 0.45386 0.23188 0.0
H712 H 0.75685 0.50615 0.25387 0.0
C713 C 0.6994 0.48725 0.24747 0.0
C714 C 0.70739 0.52662 0.26559 0.0
H715 H 0.70534 0.42313 0.21826 0.0
H716 H 0.6834 0.4809 0.24549 0.0
C717 C 0.72824 0.53335 0.26755 0.0
C718 C 0.7347 0.22804 0.51569 0.0
C719 C 0.75056 0.27682 0.50972 0.0
H720 H 0.71504 0.1368 0.50584 0.0
C721 C 0.7587 0.27063 0.48855 0.0
H722 H 0.72817 0.23123 0.5319 0.0
C723 C 0.75146 0.21595 0.47383 0.0
C724 C 0.73573 0.16669 0.47981 0.0
H725 H 0.771 0.30704 0.48342 0.0
H726 H 0.75816 0.21265 0.4577 0.0
C727 C 0.72727 0.17374 0.50081 0.0
C728 C 0.50877 0.29608 0.72964 0.0
C729 C 0.49308 0.34614 0.73515 0.0
H730 H 0.53013 0.21371 0.741 0.0
C731 C 0.48724 0.35247 0.75722 0.0
H732 H 0.51359 0.28977 0.71279 0.0
C733 C 0.49662 0.30858 0.77337 0.0
C734 C 0.51208 0.25753 0.76782 0.0
H735 H 0.47518 0.3905 0.76203 0.0
H736 H 0.49166 0.31437 0.79018 0.0
C737 C 0.51818 0.25226 0.74581 0.0
C738 C 0.49945 0.01079 0.48037 0.0
C739 C 0.50437 0.98552 0.50155 0.0
H740 H 0.50981 0.05805 0.45013 0.0
C741 C 0.52428 0.99163 0.50867 0.0
H742 H 0.48423 0.00736 0.47439 0.0
C743 C 0.53903 0.02075 0.49466 0.0
C744 C 0.53412 0.0446 0.47332 0.0
H745 H 0.52853 0.97282 0.52492 0.0
H746 H 0.5543 0.02356 0.50047 0.0
C747 C 0.51413 0.04012 0.46644 0.0
C748 C 0.48597 0.80583 0.26235 0.0
C749 C 0.49413 0.82728 0.24202 0.0
H750 H 0.4871 0.72902 0.28961 0.0
C751 C 0.51063 0.78628 0.23383 0.0
H752 H 0.47317 0.83578 0.2691 0.0
C753 C 0.51874 0.72488 0.24576 0.0
C754 C 0.51025 0.70268 0.26587 0.0
H755 H 0.51718 0.80124 0.21817 0.0
H756 H 0.5315 0.69437 0.23914 0.0
C757 C 0.49382 0.74395 0.27403 0.0
C758 C 0.49938 0.55555 0.02657 0.0
C759 C 0.48239 0.52233 0.01693 0.0
H760 H 0.52592 0.62186 0.0219 0.0
C761 C 0.47916 0.53232 0.99435 0.0
H762 H 0.50225 0.5494 0.04394 0.0
C763 C 0.4928 0.57399 0.98163 0.0
C764 C 0.50985 0.60683 0.9913 0.0
H765 H 0.46616 0.5076 0.98645 0.0
H766 H 0.49006 0.58001 0.96424 0.0
C767 C 0.51291 0.59751 0.01392 0.0
C768 C 0.03853 0.45229 0.35334 0.0
C769 C 0.03947 0.46136 0.3762 0.0
H770 H 0.03758 0.37312 0.32636 0.0
C771 C 0.0386 0.39588 0.38963 0.0
H772 H 0.03907 0.50201 0.34263 0.0
C773 C 0.03819 0.32238 0.38032 0.0
C774 C 0.03808 0.31322 0.35745 0.0
H775 H 0.03936 0.40127 0.40729 0.0
H776 H 0.03854 0.27256 0.39101 0.0
C777 C 0.03756 0.37875 0.34403 0.0
C778 C 0.18988 0.82487 0.34789 0.0
C779 C 0.19005 0.81518 0.37073 0.0
H780 H 0.18867 0.90444 0.32111 0.0
C781 C 0.19028 0.88045 0.3843 0.0
H782 H 0.18974 0.7753 0.3371 0.0
C783 C 0.18914 0.95417 0.37519 0.0
C784 C 0.18834 0.96377 0.35235 0.0
H785 H 0.19028 0.8744 0.40196 0.0
H786 H 0.1885 0.00363 0.386 0.0
C787 C 0.18933 0.89862 0.33876 0.0
C788 C 0.04306 0.85093 0.89711 0.0
C789 C 0.04285 0.91566 0.88335 0.0
H790 H 0.04474 0.72785 0.89905 0.0
C791 C 0.04192 0.9051 0.86056 0.0
H792 H 0.04388 0.85761 0.91473 0.0
C793 C 0.04199 0.83103 0.85161 0.0
C794 C 0.04354 0.76642 0.8653 0.0
H795 H 0.04169 0.95424 0.84962 0.0
H796 H 0.04191 0.82454 0.83396 0.0
C797 C 0.04367 0.77688 0.88814 0.0
C798 C 0.19706 0.35255 0.84838 0.0
C799 C 0.19656 0.41755 0.86203 0.0
H800 H 0.19604 0.22935 0.84659 0.0
C801 C 0.1971 0.40757 0.88486 0.0
H802 H 0.19656 0.35872 0.83073 0.0
C803 C 0.19724 0.3337 0.89393 0.0
C804 C 0.19628 0.26874 0.88029 0.0
H805 H 0.19681 0.45695 0.89573 0.0
H806 H 0.19691 0.32754 0.91158 0.0
C807 C 0.19665 0.27869 0.85744 0.0
C808 C 0.94911 0.66087 0.62437 0.0
C809 C 0.9316 0.69248 0.63328 0.0
H810 H 0.96229 0.56354 0.60799 0.0
C811 C 0.91394 0.64912 0.63339 0.0
H812 H 0.96284 0.69398 0.62409 0.0
C813 C 0.91373 0.57478 0.62483 0.0
C814 C 0.93105 0.5432 0.61543 0.0
H815 H 0.90029 0.67283 0.64017 0.0
H816 H 0.89984 0.54264 0.62508 0.0
C817 C 0.94876 0.58685 0.61514 0.0
C818 C 0.7841 0.04795 0.61299 0.0
C819 C 0.78505 0.03767 0.6358 0.0
H820 H 0.78371 0.12827 0.58636 0.0
C821 C 0.78488 0.10253 0.64952 0.0
H822 H 0.78413 -0.00129 0.60208 0.0
C823 C 0.78512 0.17654 0.64052 0.0
C824 C 0.78497 0.18679 0.61768 0.0
H825 H 0.78571 0.0961 0.66715 0.0
H826 H 0.78592 0.22575 0.65141 0.0
C827 C 0.78378 0.12194 0.60401 0.0
C828 C 0.93966 0.11941 0.1546 0.0
C829 C 0.93406 0.16996 0.13772 0.0
H830 H 0.94958 0.00611 0.16305 0.0
C831 C 0.93652 0.14664 0.11582 0.0
H832 H 0.938 0.13575 0.17163 0.0
C833 C 0.94362 0.07285 0.11093 0.0
C834 C 0.94796 0.02085 0.12786 0.0
H835 H 0.93252 0.18472 0.10248 0.0
H836 H 0.94456 0.05503 0.09395 0.0
C837 C 0.94632 0.04528 0.14971 0.0
C838 C 0.78596 0.5904 0.1598 0.0
C839 C 0.77924 0.54158 0.14304 0.0
H840 H 0.79804 0.70147 0.16779 0.0
C841 C 0.77718 0.57014 0.12173 0.0
H842 H 0.78774 0.5689 0.17634 0.0
C843 C 0.78276 0.64531 0.11688 0.0
C844 C 0.79094 0.69308 0.13318 0.0
H845 H 0.77194 0.53323 0.10861 0.0
H846 H 0.78158 0.66442 0.10004 0.0
C847 C 0.79196 0.66577 0.15486 0.0
C848 C 0.53788 0.3969 0.87909 0.0
C849 C 0.55445 0.35534 0.87142 0.0
H850 H 0.52761 0.50078 0.89456 0.0
C851 C 0.57345 0.38927 0.87188 0.0
H852 H 0.52313 0.371 0.87911 0.0
C853 C 0.57594 0.46357 0.88016 0.0
C854 C 0.55956 0.50413 0.8888 0.0
H855 H 0.58642 0.35763 0.86621 0.0
H856 H 0.59085 0.48793 0.88069 0.0
C857 C 0.54046 0.47052 0.88804 0.0
C858 C 0.70256 0.82018 0.91523 0.0
C859 C 0.70185 0.7556 0.90142 0.0
H860 H 0.69971 0.94274 0.91769 0.0
C861 C 0.70014 0.76633 0.87869 0.0
H862 H 0.70371 0.81339 0.93282 0.0
C863 C 0.6982 0.84036 0.87 0.0
C864 C 0.6974 0.90444 0.88399 0.0
H865 H 0.69956 0.71728 0.86772 0.0
H866 H 0.69618 0.84703 0.8525 0.0
C867 C 0.70009 0.89399 0.9066 0.0
C868 C 0.53917 0.78291 0.38524 0.0
C869 C 0.53757 0.75402 0.36386 0.0
H870 H 0.54722 0.87801 0.40556 0.0
C871 C 0.54164 0.80283 0.34605 0.0
H872 H 0.53604 0.74649 0.39924 0.0
C873 C 0.54842 0.87792 0.34964 0.0
C874 C 0.55086 0.90569 0.37109 0.0
H875 H 0.54063 0.78175 0.32938 0.0
H876 H 0.55223 0.91346 0.33567 0.0
C877 C 0.54556 0.85826 0.38882 0.0
C878 C 0.70811 0.2832 0.35678 0.0
C879 C 0.70834 0.25293 0.37807 0.0
H880 H 0.70152 0.37952 0.33643 0.0
C881 C 0.70339 0.30069 0.39583 0.0
H882 H 0.71201 0.24763 0.34283 0.0
C883 C 0.69704 0.37631 0.39216 0.0
C884 C 0.6959 0.40543 0.37071 0.0
H885 H 0.70339 0.27844 0.4124 0.0
H886 H 0.6925 0.4111 0.40603 0.0
C887 C 0.70212 0.35885 0.35315 0.0
C888 C 0.45046 0.62286 0.14505 0.0
C889 C 0.44778 0.61216 0.12243 0.0
H890 H 0.45415 0.70375 0.17124 0.0
C891 C 0.44823 0.67636 0.10847 0.0
H892 H 0.45032 0.57409 0.15612 0.0
C893 C 0.45001 0.75052 0.11716 0.0
C894 C 0.45197 0.76139 0.13986 0.0
H895 H 0.44617 0.66956 0.09098 0.0
H896 H 0.44933 0.79951 0.10619 0.0
C897 C 0.45281 0.69685 0.15367 0.0
C898 C 0.2942 0.04527 0.13069 0.0
C899 C 0.31332 0.01251 0.1324 0.0
H900 H 0.27702 0.14404 0.121 0.0
C901 C 0.32996 0.0538 0.12467 0.0
H902 H 0.28117 0.01441 0.13655 0.0
C903 C 0.32765 0.12816 0.1164 0.0
C904 C 0.30861 0.16138 0.11503 0.0
H905 H 0.34488 0.03002 0.12596 0.0
H906 H 0.34078 0.16033 0.11142 0.0
C907 C 0.29182 0.11887 0.12171 0.0
C908 C 0.46063 0.16372 0.6382 0.0
C909 C 0.46066 0.22883 0.6246 0.0
H910 H 0.45954 0.04049 0.63982 0.0
C911 C 0.46209 0.21899 0.60179 0.0
H912 H 0.45945 0.1698 0.65581 0.0
C913 C 0.46258 0.14519 0.59267 0.0
C914 C 0.46109 0.0801 0.60619 0.0
H915 H 0.46223 0.26844 0.59097 0.0
H916 H 0.46294 0.13921 0.57501 0.0
C917 C 0.46057 0.08991 0.62904 0.0
C918 C 0.30638 0.5816 0.59709 0.0
C919 C 0.30669 0.57178 0.61992 0.0
H920 H 0.30713 0.66129 0.57032 0.0
C921 C 0.30648 0.6369 0.63354 0.0
H922 H 0.30649 0.5321 0.58626 0.0
C923 C 0.30734 0.71068 0.62443 0.0
C924 C 0.30787 0.72041 0.60158 0.0
H925 H 0.30683 0.63076 0.65119 0.0
H926 H 0.30811 0.76006 0.63526 0.0
C927 C 0.30669 0.65537 0.58798 0.0
C928 C 0.00168 0.81804 0.35834 0.0
C929 C 0.00507 0.81544 0.38103 0.0
H930 H 0.00167 0.88944 0.32984 0.0
C931 C 0.00343 0.88363 0.39324 0.0
H932 H 0.00282 0.76597 0.34862 0.0
C933 C 0.0034 0.95459 0.38244 0.0
C934 C 0.00436 0.957 0.35947 0.0
H935 H 0.00595 0.88302 0.41077 0.0
H936 H 0.00585 0.0065 0.39194 0.0
C937 C 0.00103 0.88902 0.34758 0.0
C938 C 0.22734 0.45589 0.34724 0.0
C939 C 0.22607 0.45888 0.37019 0.0
H940 H 0.2244 0.38432 0.31891 0.0
C941 C 0.22851 0.39058 0.38218 0.0
H942 H 0.22553 0.50797 0.33767 0.0
C943 C 0.22722 0.31955 0.37146 0.0
C944 C 0.22419 0.31703 0.34871 0.0
H945 H 0.2276 0.3914 0.3999 0.0
H946 H 0.22542 0.26786 0.38121 0.0
C947 C 0.22667 0.3848 0.33649 0.0
C948 C 0.00597 0.41052 0.88671 0.0
C949 C 0.00799 0.41348 0.86382 0.0
H950 H 0.0071 0.33823 0.91499 0.0
C951 C 0.00494 0.34596 0.85163 0.0
H952 H 0.00816 0.46209 0.89643 0.0
C953 C 0.00488 0.27467 0.86227 0.0
C954 C 0.00736 0.27133 0.8851 0.0
H955 H 0.00636 0.34682 0.83395 0.0
H956 H 0.0063 0.22284 0.85249 0.0
C957 C 0.00532 0.33929 0.89735 0.0
C958 C 0.2335 0.84736 0.8934 0.0
C959 C 0.23064 0.91498 0.88123 0.0
H960 H 0.23176 0.72432 0.89249 0.0
C961 C 0.23268 0.91204 0.85835 0.0
H962 H 0.23208 0.84826 0.91108 0.0
C963 C 0.23309 0.84082 0.84767 0.0
C964 C 0.23085 0.77297 0.85991 0.0
H965 H 0.23064 0.9637 0.84865 0.0
H966 H 0.23132 0.83983 0.83003 0.0
C967 C 0.23332 0.77612 0.88273 0.0
C968 C 0.97355 0.12272 0.59923 0.0
C969 C 0.97146 0.19032 0.61165 0.0
H970 H 0.97117 -0.00025 0.59991 0.0
C971 C 0.97406 0.18654 0.63443 0.0
H972 H 0.9716 0.12422 0.58162 0.0
C973 C 0.9745 0.11497 0.64491 0.0
C974 C 0.97165 0.04748 0.63262 0.0
H975 H 0.97252 0.23806 0.64433 0.0
H976 H 0.9733 0.11361 0.66261 0.0
C977 C 0.97329 0.05116 0.60972 0.0
C978 C 0.74689 0.54383 0.63882 0.0
C979 C 0.74887 0.5405 0.61593 0.0
H980 H 0.74904 0.61582 0.66714 0.0
C981 C 0.74664 0.60854 0.60377 0.0
H982 H 0.74847 0.49193 0.64852 0.0
C983 C 0.74757 0.67974 0.61444 0.0
C984 C 0.75007 0.68264 0.63727 0.0
H985 H 0.74804 0.60747 0.58609 0.0
H986 H 0.74959 0.7313 0.60468 0.0
C987 C 0.74724 0.61509 0.6495 0.0
C988 C 0.96643 0.56533 0.14829 0.0
C989 C 0.95325 0.53212 0.13301 0.0
H990 H 0.9872 0.65613 0.15493 0.0
C991 C 0.95385 0.55772 0.11116 0.0
H992 H 0.96656 0.54668 0.16521 0.0
C993 C 0.96618 0.61946 0.10517 0.0
C994 C 0.97778 0.65731 0.12107 0.0
H995 H 0.94407 0.53272 0.09893 0.0
H996 H 0.96533 0.64149 0.0886 0.0
C997 C 0.97841 0.62768 0.1424 0.0
C998 C 0.75507 0.14178 0.15171 0.0
C999 C 0.74721 0.1869 0.13469 0.0
H1000 H 0.77371 0.04606 0.16016 0.0
C1001 C 0.74933 0.16195 0.11296 0.0
H1002 H 0.7537 0.15993 0.16862 0.0
C1003 C 0.7605 0.09635 0.10813 0.0
C1004 C 0.77012 0.0556 0.12496 0.0
H1005 H 0.74339 0.19603 0.0996 0.0
H1006 H 0.7628 0.0811 0.09111 0.0
C1007 C 0.76666 0.07704 0.14685 0.0
C1008 C 0.53354 0.8866 0.86872 0.0
C1009 C 0.53063 0.86768 0.89087 0.0
H1010 H 0.52938 0.97097 0.84355 0.0
C1011 C 0.51854 0.91528 0.90394 0.0
H1012 H 0.5428 0.85076 0.85832 0.0
C1013 C 0.51128 0.98478 0.89563 0.0
C1014 C 0.51544 0.00629 0.87398 0.0
H1015 H 0.5162 0.90235 0.92111 0.0
H1016 H 0.5035 0.02399 0.90651 0.0
C1017 C 0.52579 0.95508 0.86025 0.0
C1018 C 0.73706 0.39113 0.8814 0.0
C1019 C 0.73567 0.39489 0.90434 0.0
H1020 H 0.73227 0.32075 0.85312 0.0
C1021 C 0.7365 0.32618 0.91639 0.0
H1022 H 0.73657 0.44353 0.87177 0.0
C1023 C 0.73338 0.25591 0.90575 0.0
C1024 C 0.73026 0.25432 0.88301 0.0
H1025 H 0.73557 0.32755 0.93411 0.0
H1026 H 0.7304 0.20514 0.91555 0.0
C1027 C 0.73447 0.32059 0.8707 0.0
C1028 C 0.51727 0.35637 0.34057 0.0
C1029 C 0.50656 0.39437 0.35719 0.0
H1030 H 0.53904 0.26984 0.33299 0.0
C1031 C 0.50686 0.36424 0.3785 0.0
H1032 H 0.51726 0.37822 0.32396 0.0
C1033 C 0.51917 0.30217 0.38365 0.0
C1034 C 0.53162 0.26934 0.36761 0.0
H1035 H 0.4986 0.39221 0.39154 0.0
H1036 H 0.51983 0.28335 0.40054 0.0
C1037 C 0.5299 0.29479 0.34581 0.0
C1038 C 0.73122 0.85639 0.39755 0.0
C1039 C 0.74086 0.89684 0.38063 0.0
H1040 H 0.71056 0.76653 0.40571 0.0
C1041 C 0.74 0.8678 0.3592 0.0
H1042 H 0.73172 0.87717 0.41427 0.0
C1043 C 0.72807 0.8043 0.35432 0.0
C1044 C 0.71657 0.76904 0.37077 0.0
H1045 H 0.7475 0.89759 0.34593 0.0
H1046 H 0.72684 0.78637 0.33738 0.0
C1047 C 0.71896 0.79342 0.3926 0.0
C1048 C 0.48629 0.25963 0.14262 0.0
C1049 C 0.48264 0.2616 0.11998 0.0
H1050 H 0.4891 0.18768 0.17081 0.0
C1051 C 0.48638 0.19528 0.10748 0.0
H1052 H 0.48362 0.31034 0.15256 0.0
C1053 C 0.48909 0.12453 0.11801 0.0
C1054 C 0.48834 0.12053 0.14099 0.0
H1055 H 0.48374 0.19542 0.08997 0.0
H1056 H 0.48823 0.07228 0.10834 0.0
C1057 C 0.48958 0.18915 0.15307 0.0
C1058 C 0.27277 0.59955 0.15109 0.0
C1059 C 0.28386 0.64933 0.13761 0.0
H1060 H 0.2589 0.48853 0.15398 0.0
C1061 C 0.28614 0.6315 0.11531 0.0
H1062 H 0.27101 0.61165 0.16839 0.0
C1063 C 0.27876 0.56219 0.10698 0.0
C1064 C 0.26941 0.50912 0.12099 0.0
H1065 H 0.29468 0.66897 0.10463 0.0
H1066 H 0.28187 0.54733 0.09009 0.0
C1067 C 0.26588 0.52922 0.1429 0.0
C1068 C 0.49708 0.6517 0.63909 0.0
C1069 C 0.49479 0.58381 0.62687 0.0
H1070 H 0.49523 0.7747 0.63799 0.0
C1071 C 0.49767 0.58655 0.60409 0.0
H1072 H 0.495 0.65102 0.6567 0.0
C1073 C 0.49837 0.65764 0.59337 0.0
C1074 C 0.49561 0.72563 0.60544 0.0
H1075 H 0.49607 0.5347 0.59435 0.0
H1076 H 0.49726 0.65834 0.57567 0.0
C1077 C 0.49722 0.72281 0.62836 0.0
C1078 C 0.27023 0.07642 0.62107 0.0
C1079 C 0.27304 0.07367 0.59829 0.0
H1080 H 0.2708 0.14817 0.64952 0.0
C1081 C 0.27084 0.14161 0.58609 0.0
H1082 H 0.27178 0.02453 0.63079 0.0
C1083 C 0.27087 0.2127 0.59685 0.0
C1084 C 0.27249 0.21546 0.61977 0.0
H1085 H 0.27289 0.1409 0.56848 0.0
H1086 H 0.27292 0.26458 0.58724 0.0
C1087 C 0.26966 0.14751 0.63182 0.0
loop_
_geom_bond_atom_site_label_1
_geom_bond_atom_site_label_2
_geom_bond_distance
_geom_bond_site_symmetry_2
_ccdc_geom_bond_type
Mg0 O1 2.028 . S
Mg0 O7 1.986 . S
Mg0 O9 2.114 . S
Mg0 O10 2.251 . S
Mg0 O13 2.010 . S
O1 Mg0 2.028 . S
O1 C4 1.250 . S
O2 Mg3 2.028 . S
O2 C4 1.248 . S
Mg3 O2 2.028 . S
Mg3 O8 2.032 . S
Mg3 O10 2.079 . S
C4 O1 1.250 . S
C4 O2 1.248 . S
C5 O6 1.264 . S
C5 O13 1.249 . S
O6 C5 1.264 . S
O7 Mg0 1.986 . S
O7 C11 1.246 . S
O8 Mg3 2.032 . S
O8 C11 1.259 . S
O9 Mg0 2.114 . S
O9 C12 1.252 . S
O10 Mg0 2.251 . S
O10 Mg3 2.079 . S
O10 C12 1.273 . S
C11 O7 1.246 . S
C11 O8 1.259 . S
C12 O9 1.252 . S
C12 O10 1.273 . S
O13 Mg0 2.010 . S
O13 C5 1.249 . S
Mg14 O15 2.028 . S
Mg14 O21 1.986 . S
Mg14 O23 2.114 . S
Mg14 O24 2.251 . S
Mg14 O27 2.010 . S
O15 Mg14 2.028 . S
O15 C18 1.250 . S
O16 Mg17 2.028 . S
O16 C18 1.248 . S
Mg17 O16 2.028 . S
Mg17 O22 2.032 . S
Mg17 O24 2.079 . S
C18 O15 1.250 . S
C18 O16 1.248 . S
C19 O20 1.264 . S
C19 O27 1.249 . S
O20 C19 1.264 . S
O21 Mg14 1.986 . S
O21 C25 1.246 . S
O22 Mg17 2.032 . S
O22 C25 1.259 . S
O23 Mg14 2.114 . S
O23 C26 1.252 . S
O24 Mg14 2.251 . S
O24 Mg17 2.079 . S
O24 C26 1.273 . S
C25 O21 1.246 . S
C25 O22 1.259 . S
C26 O23 1.252 . S
C26 O24 1.273 . S
O27 Mg14 2.010 . S
O27 C19 1.249 . S
Mg28 O29 2.028 . S
Mg28 O35 1.986 . S
Mg28 O37 2.114 . S
Mg28 O38 2.251 . S
Mg28 O41 2.010 . S
O29 Mg28 2.028 . S
O29 C32 1.250 . S
O30 Mg31 2.028 . S
O30 C32 1.248 . S
Mg31 O30 2.028 . S
Mg31 O36 2.032 . S
Mg31 O38 2.079 . S
C32 O29 1.250 . S
C32 O30 1.248 . S
C33 O34 1.264 . S
C33 O41 1.249 . S
O34 C33 1.264 . S
O35 Mg28 1.986 . S
O35 C39 1.246 . S
O36 Mg31 2.032 . S
O36 C39 1.259 . S
O37 Mg28 2.114 . S
O37 C40 1.252 . S
O38 Mg28 2.251 . S
O38 Mg31 2.079 . S
O38 C40 1.273 . S
C39 O35 1.246 . S
C39 O36 1.259 . S
C40 O37 1.252 . S
C40 O38 1.273 . S
O41 Mg28 2.010 . S
O41 C33 1.249 . S
Mg42 O43 2.028 . S
Mg42 O49 1.986 . S
Mg42 O51 2.114 . S
Mg42 O52 2.251 . S
Mg42 O55 2.010 . S
O43 Mg42 2.028 . S
O43 C46 1.250 . S
O44 Mg45 2.028 . S
O44 C46 1.248 . S
Mg45 O44 2.028 . S
Mg45 O50 2.032 . S
Mg45 O52 2.079 . S
C46 O43 1.250 . S
C46 O44 1.248 . S
C47 O48 1.264 . S
C47 O55 1.249 . S
O48 C47 1.264 . S
O49 Mg42 1.986 . S
O49 C53 1.246 . S
O50 Mg45 2.032 . S
O50 C53 1.259 . S
O51 Mg42 2.114 . S
O51 C54 1.252 . S
O52 Mg42 2.251 . S
O52 Mg45 2.079 . S
O52 C54 1.273 . S
C53 O49 1.246 . S
C53 O50 1.259 . S
C54 O51 1.252 . S
C54 O52 1.273 . S
O55 Mg42 2.010 . S
O55 C47 1.249 . S
Mg56 O57 2.028 . S
Mg56 O63 1.986 . S
Mg56 O65 2.114 . S
Mg56 O66 2.251 . S
Mg56 O69 2.010 . S
O57 Mg56 2.028 . S
O57 C60 1.250 . S
O58 Mg59 2.028 . S
O58 C60 1.248 . S
Mg59 O58 2.028 . S
Mg59 O64 2.032 . S
Mg59 O66 2.079 . S
C60 O57 1.250 . S
C60 O58 1.248 . S
C61 O62 1.264 . S
C61 O69 1.249 . S
O62 C61 1.264 . S
O63 Mg56 1.986 . S
O63 C67 1.246 . S
O64 Mg59 2.032 . S
O64 C67 1.259 . S
O65 Mg56 2.114 . S
O65 C68 1.252 . S
O66 Mg56 2.251 . S
O66 Mg59 2.079 . S
O66 C68 1.273 . S
C67 O63 1.246 . S
C67 O64 1.259 . S
C68 O65 1.252 . S
C68 O66 1.273 . S
O69 Mg56 2.010 . S
O69 C61 1.249 . S
Mg70 O71 2.028 . S
Mg70 O77 1.986 . S
Mg70 O79 2.114 . S
Mg70 O80 2.251 . S
Mg70 O83 2.010 . S
O71 Mg70 2.028 . S
O71 C74 1.250 . S
O72 Mg73 2.028 . S
O72 C74 1.248 . S
Mg73 O72 2.028 . S
Mg73 O78 2.032 . S
Mg73 O80 2.079 . S
C74 O71 1.250 . S
C74 O72 1.248 . S
C75 O76 1.264 . S
C75 O83 1.249 . S
O76 C75 1.264 . S
O77 Mg70 1.986 . S
O77 C81 1.246 . S
O78 Mg73 2.032 . S
O78 C81 1.259 . S
O79 Mg70 2.114 . S
O79 C82 1.252 . S
O80 Mg70 2.251 . S
O80 Mg73 2.079 . S
O80 C82 1.273 . S
C81 O77 1.246 . S
C81 O78 1.259 . S
C82 O79 1.252 . S
C82 O80 1.273 . S
O83 Mg70 2.010 . S
O83 C75 1.249 . S
Mg84 O85 2.028 . S
Mg84 O91 1.986 . S
Mg84 O93 2.114 . S
Mg84 O94 2.251 . S
Mg84 O97 2.010 . S
O85 Mg84 2.028 . S
O85 C88 1.250 . S
O86 Mg87 2.028 . S
O86 C88 1.248 . S
Mg87 O86 2.028 . S
Mg87 O92 2.032 . S
Mg87 O94 2.079 . S
C88 O85 1.250 . S
C88 O86 1.248 . S
C89 O90 1.264 . S
C89 O97 1.249 . S
O90 C89 1.264 . S
O91 Mg84 1.986 . S
O91 C95 1.246 . S
O92 Mg87 2.032 . S
O92 C95 1.259 . S
O93 Mg84 2.114 . S
O93 C96 1.252 . S
O94 Mg84 2.251 . S
O94 Mg87 2.079 . S
O94 C96 1.273 . S
C95 O91 1.246 . S
C95 O92 1.259 . S
C96 O93 1.252 . S
C96 O94 1.273 . S
O97 Mg84 2.010 . S
O97 C89 1.249 . S
Mg98 O99 2.028 . S
Mg98 O105 1.986 . S
Mg98 O107 2.114 . S
Mg98 O108 2.251 . S
Mg98 O111 2.010 . S
O99 Mg98 2.028 . S
O99 C102 1.250 . S
O100 Mg101 2.028 . S
O100 C102 1.248 . S
Mg101 O100 2.028 . S
Mg101 O106 2.032 . S
Mg101 O108 2.079 . S
C102 O99 1.250 . S
C102 O100 1.248 . S
C103 O104 1.264 . S
C103 O111 1.249 . S
O104 C103 1.264 . S
O105 Mg98 1.986 . S
O105 C109 1.246 . S
O106 Mg101 2.032 . S
O106 C109 1.259 . S
O107 Mg98 2.114 . S
O107 C110 1.252 . S
O108 Mg98 2.251 . S
O108 Mg101 2.079 . S
O108 C110 1.273 . S
C109 O105 1.246 . S
C109 O106 1.259 . S
C110 O107 1.252 . S
C110 O108 1.273 . S
O111 Mg98 2.010 . S
O111 C103 1.249 . S
Mg112 O113 2.028 . S
Mg112 O119 1.986 . S
Mg112 O121 2.114 . S
Mg112 O122 2.251 . S
Mg112 O125 2.010 . S
O113 Mg112 2.028 . S
O113 C116 1.250 . S
O114 Mg115 2.028 . S
O114 C116 1.248 . S
Mg115 O114 2.028 . S
Mg115 O120 2.032 . S
Mg115 O122 2.079 . S
C116 O113 1.250 . S
C116 O114 1.248 . S
C117 O118 1.264 . S
C117 O125 1.249 . S
O118 C117 1.264 . S
O119 Mg112 1.986 . S
O119 C123 1.246 . S
O120 Mg115 2.032 . S
O120 C123 1.259 . S
O121 Mg112 2.114 . S
O121 C124 1.252 . S
O122 Mg112 2.251 . S
O122 Mg115 2.079 . S
O122 C124 1.273 . S
C123 O119 1.246 . S
C123 O120 1.259 . S
C124 O121 1.252 . S
C124 O122 1.273 . S
O125 Mg112 2.010 . S
O125 C117 1.249 . S
Mg126 O127 2.028 . S
Mg126 O133 1.986 . S
Mg126 O135 2.114 . S
Mg126 O136 2.251 . S
Mg126 O139 2.010 . S
O127 Mg126 2.028 . S
O127 C130 1.250 . S
O128 Mg129 2.028 . S
O128 C130 1.248 . S
Mg129 O128 2.028 . S
Mg129 O134 2.032 . S
Mg129 O136 2.079 . S
C130 O127 1.250 . S
C130 O128 1.248 . S
C131 O132 1.264 . S
C131 O139 1.249 . S
O132 C131 1.264 . S
O133 Mg126 1.986 . S
O133 C137 1.246 . S
O134 Mg129 2.032 . S
O134 C137 1.259 . S
O135 Mg126 2.114 . S
O135 C138 1.252 . S
O136 Mg126 2.251 . S
O136 Mg129 2.079 . S
O136 C138 1.273 . S
C137 O133 1.246 . S
C137 O134 1.259 . S
C138 O135 1.252 . S
C138 O136 1.273 . S
O139 Mg126 2.010 . S
O139 C131 1.249 . S
Mg140 O141 2.028 . S
Mg140 O147 1.986 . S
Mg140 O149 2.114 . S
Mg140 O150 2.251 . S
Mg140 O153 2.010 . S
O141 Mg140 2.028 . S
O141 C144 1.250 . S
O142 Mg143 2.028 . S
O142 C144 1.248 . S
Mg143 O142 2.028 . S
Mg143 O148 2.032 . S
Mg143 O150 2.079 . S
C144 O141 1.250 . S
C144 O142 1.248 . S
C145 O146 1.264 . S
C145 O153 1.249 . S
O146 C145 1.264 . S
O147 Mg140 1.986 . S
O147 C151 1.246 . S
O148 Mg143 2.032 . S
O148 C151 1.259 . S
O149 Mg140 2.114 . S
O149 C152 1.252 . S
O150 Mg140 2.251 . S
O150 Mg143 2.079 . S
O150 C152 1.273 . S
C151 O147 1.246 . S
C151 O148 1.259 . S
C152 O149 1.252 . S
C152 O150 1.273 . S
O153 Mg140 2.010 . S
O153 C145 1.249 . S
Mg154 O155 2.028 . S
Mg154 O161 1.986 . S
Mg154 O163 2.114 . S
Mg154 O164 2.251 . S
Mg154 O167 2.010 . S
O155 Mg154 2.028 . S
O155 C158 1.250 . S
O156 Mg157 2.028 . S
O156 C158 1.248 . S
Mg157 O156 2.028 . S
Mg157 O162 2.032 . S
Mg157 O164 2.079 . S
C158 O155 1.250 . S
C158 O156 1.248 . S
C159 O160 1.264 . S
C159 O167 1.249 . S
O160 C159 1.264 . S
O161 Mg154 1.986 . S
O161 C165 1.246 . S
O162 Mg157 2.032 . S
O162 C165 1.259 . S
O163 Mg154 2.114 . S
O163 C166 1.252 . S
O164 Mg154 2.251 . S
O164 Mg157 2.079 . S
O164 C166 1.273 . S
C165 O161 1.246 . S
C165 O162 1.259 . S
C166 O163 1.252 . S
C166 O164 1.273 . S
O167 Mg154 2.010 . S
O167 C159 1.249 . S
Mg168 O169 2.028 . S
Mg168 O175 1.986 . S
Mg168 O177 2.114 . S
Mg168 O178 2.251 . S
Mg168 O181 2.010 . S
O169 Mg168 2.028 . S
O169 C172 1.250 . S
O170 Mg171 2.028 . S
O170 C172 1.248 . S
Mg171 O170 2.028 . S
Mg171 O176 2.032 . S
Mg171 O178 2.079 . S
C172 O169 1.250 . S
C172 O170 1.248 . S
C173 O174 1.264 . S
C173 O181 1.249 . S
O174 C173 1.264 . S
O175 Mg168 1.986 . S
O175 C179 1.246 . S
O176 Mg171 2.032 . S
O176 C179 1.259 . S
O177 Mg168 2.114 . S
O177 C180 1.252 . S
O178 Mg168 2.251 . S
O178 Mg171 2.079 . S
O178 C180 1.273 . S
C179 O175 1.246 . S
C179 O176 1.259 . S
C180 O177 1.252 . S
C180 O178 1.273 . S
O181 Mg168 2.010 . S
O181 C173 1.249 . S
Mg182 O183 2.028 . S
Mg182 O189 1.986 . S
Mg182 O191 2.114 . S
Mg182 O192 2.251 . S
Mg182 O195 2.010 . S
O183 Mg182 2.028 . S
O183 C186 1.250 . S
O184 Mg185 2.028 . S
O184 C186 1.248 . S
Mg185 O184 2.028 . S
Mg185 O190 2.032 . S
Mg185 O192 2.079 . S
C186 O183 1.250 . S
C186 O184 1.248 . S
C187 O188 1.264 . S
C187 O195 1.249 . S
O188 C187 1.264 . S
O189 Mg182 1.986 . S
O189 C193 1.246 . S
O190 Mg185 2.032 . S
O190 C193 1.259 . S
O191 Mg182 2.114 . S
O191 C194 1.252 . S
O192 Mg182 2.251 . S
O192 Mg185 2.079 . S
O192 C194 1.273 . S
C193 O189 1.246 . S
C193 O190 1.259 . S
C194 O191 1.252 . S
C194 O192 1.273 . S
O195 Mg182 2.010 . S
O195 C187 1.249 . S
Mg196 O197 2.028 . S
Mg196 O203 1.986 . S
Mg196 O205 2.114 . S
Mg196 O206 2.251 . S
Mg196 O209 2.010 . S
O197 Mg196 2.028 . S
O197 C200 1.250 . S
O198 Mg199 2.028 . S
O198 C200 1.248 . S
Mg199 O198 2.028 . S
Mg199 O204 2.032 . S
Mg199 O206 2.079 . S
C200 O197 1.250 . S
C200 O198 1.248 . S
C201 O202 1.264 . S
C201 O209 1.249 . S
O202 C201 1.264 . S
O203 Mg196 1.986 . S
O203 C207 1.246 . S
O204 Mg199 2.032 . S
O204 C207 1.259 . S
O205 Mg196 2.114 . S
O205 C208 1.252 . S
O206 Mg196 2.251 . S
O206 Mg199 2.079 . S
O206 C208 1.273 . S
C207 O203 1.246 . S
C207 O204 1.259 . S
C208 O205 1.252 . S
C208 O206 1.273 . S
O209 Mg196 2.010 . S
O209 C201 1.249 . S
Mg210 O211 2.028 . S
Mg210 O217 1.986 . S
Mg210 O219 2.114 . S
Mg210 O220 2.251 . S
Mg210 O223 2.010 . S
O211 Mg210 2.028 . S
O211 C214 1.250 . S
O212 Mg213 2.028 . S
O212 C214 1.248 . S
Mg213 O212 2.028 . S
Mg213 O218 2.032 . S
Mg213 O220 2.079 . S
C214 O211 1.250 . S
C214 O212 1.248 . S
C215 O216 1.264 . S
C215 O223 1.249 . S
O216 C215 1.264 . S
O217 Mg210 1.986 . S
O217 C221 1.246 . S
O218 Mg213 2.032 . S
O218 C221 1.259 . S
O219 Mg210 2.114 . S
O219 C222 1.252 . S
O220 Mg210 2.251 . S
O220 Mg213 2.079 . S
O220 C222 1.273 . S
C221 O217 1.246 . S
C221 O218 1.259 . S
C222 O219 1.252 . S
C222 O220 1.273 . S
O223 Mg210 2.010 . S
O223 C215 1.249 . S
Mg224 O225 2.028 . S
Mg224 O231 1.986 . S
Mg224 O233 2.114 . S
Mg224 O234 2.251 . S
Mg224 O237 2.010 . S
O225 Mg224 2.028 . S
O225 C228 1.250 . S
O226 Mg227 2.028 . S
O226 C228 1.248 . S
Mg227 O226 2.028 . S
Mg227 O232 2.032 . S
Mg227 O234 2.079 . S
C228 O225 1.250 . S
C228 O226 1.248 . S
C229 O230 1.264 . S
C229 O237 1.249 . S
O230 C229 1.264 . S
O231 Mg224 1.986 . S
O231 C235 1.246 . S
O232 Mg227 2.032 . S
O232 C235 1.259 . S
O233 Mg224 2.114 . S
O233 C236 1.252 . S
O234 Mg224 2.251 . S
O234 Mg227 2.079 . S
O234 C236 1.273 . S
C235 O231 1.246 . S
C235 O232 1.259 . S
C236 O233 1.252 . S
C236 O234 1.273 . S
O237 Mg224 2.010 . S
O237 C229 1.249 . S
Mg238 O239 2.028 . S
Mg238 O245 1.986 . S
Mg238 O247 2.114 . S
Mg238 O248 2.251 . S
Mg238 O251 2.010 . S
O239 Mg238 2.028 . S
O239 C242 1.250 . S
O240 Mg241 2.028 . S
O240 C242 1.248 . S
Mg241 O240 2.028 . S
Mg241 O246 2.032 . S
Mg241 O248 2.079 . S
C242 O239 1.250 . S
C242 O240 1.248 . S
C243 O244 1.264 . S
C243 O251 1.249 . S
O244 C243 1.264 . S
O245 Mg238 1.986 . S
O245 C249 1.246 . S
O246 Mg241 2.032 . S
O246 C249 1.259 . S
O247 Mg238 2.114 . S
O247 C250 1.252 . S
O248 Mg238 2.251 . S
O248 Mg241 2.079 . S
O248 C250 1.273 . S
C249 O245 1.246 . S
C249 O246 1.259 . S
C250 O247 1.252 . S
C250 O248 1.273 . S
O251 Mg238 2.010 . S
O251 C243 1.249 . S
Mg252 O253 2.028 . S
Mg252 O259 1.986 . S
Mg252 O261 2.114 . S
Mg252 O262 2.251 . S
Mg252 O265 2.010 . S
O253 Mg252 2.028 . S
O253 C256 1.250 . S
O254 Mg255 2.028 . S
O254 C256 1.248 . S
Mg255 O254 2.028 . S
Mg255 O260 2.032 . S
Mg255 O262 2.079 . S
C256 O253 1.250 . S
C256 O254 1.248 . S
C257 O258 1.264 . S
C257 O265 1.249 . S
O258 C257 1.264 . S
O259 Mg252 1.986 . S
O259 C263 1.246 . S
O260 Mg255 2.032 . S
O260 C263 1.259 . S
O261 Mg252 2.114 . S
O261 C264 1.252 . S
O262 Mg252 2.251 . S
O262 Mg255 2.079 . S
O262 C264 1.273 . S
C263 O259 1.246 . S
C263 O260 1.259 . S
C264 O261 1.252 . S
C264 O262 1.273 . S
O265 Mg252 2.010 . S
O265 C257 1.249 . S
Mg266 O267 2.028 . S
Mg266 O273 1.986 . S
Mg266 O275 2.114 . S
Mg266 O276 2.251 . S
Mg266 O279 2.010 . S
O267 Mg266 2.028 . S
O267 C270 1.250 . S
O268 Mg269 2.028 . S
O268 C270 1.248 . S
Mg269 O268 2.028 . S
Mg269 O274 2.032 . S
Mg269 O276 2.079 . S
C270 O267 1.250 . S
C270 O268 1.248 . S
C271 O272 1.264 . S
C271 O279 1.249 . S
O272 C271 1.264 . S
O273 Mg266 1.986 . S
O273 C277 1.246 . S
O274 Mg269 2.032 . S
O274 C277 1.259 . S
O275 Mg266 2.114 . S
O275 C278 1.252 . S
O276 Mg266 2.251 . S
O276 Mg269 2.079 . S
O276 C278 1.273 . S
C277 O273 1.246 . S
C277 O274 1.259 . S
C278 O275 1.252 . S
C278 O276 1.273 . S
O279 Mg266 2.010 . S
O279 C271 1.249 . S
Mg280 O281 2.028 . S
Mg280 O287 1.986 . S
Mg280 O289 2.114 . S
Mg280 O290 2.251 . S
Mg280 O293 2.010 . S
O281 Mg280 2.028 . S
O281 C284 1.250 . S
O282 Mg283 2.028 . S
O282 C284 1.248 . S
Mg283 O282 2.028 . S
Mg283 O288 2.032 . S
Mg283 O290 2.079 . S
C284 O281 1.250 . S
C284 O282 1.248 . S
C285 O286 1.264 . S
C285 O293 1.249 . S
O286 C285 1.264 . S
O287 Mg280 1.986 . S
O287 C291 1.246 . S
O288 Mg283 2.032 . S
O288 C291 1.259 . S
O289 Mg280 2.114 . S
O289 C292 1.252 . S
O290 Mg280 2.251 . S
O290 Mg283 2.079 . S
O290 C292 1.273 . S
C291 O287 1.246 . S
C291 O288 1.259 . S
C292 O289 1.252 . S
C292 O290 1.273 . S
O293 Mg280 2.010 . S
O293 C285 1.249 . S
Mg294 O295 2.028 . S
Mg294 O301 1.986 . S
Mg294 O303 2.114 . S
Mg294 O304 2.251 . S
Mg294 O307 2.010 . S
O295 Mg294 2.028 . S
O295 C298 1.250 . S
O296 Mg297 2.028 . S
O296 C298 1.248 . S
Mg297 O296 2.028 . S
Mg297 O302 2.032 . S
Mg297 O304 2.079 . S
C298 O295 1.250 . S
C298 O296 1.248 . S
C299 O300 1.264 . S
C299 O307 1.249 . S
O300 C299 1.264 . S
O301 Mg294 1.986 . S
O301 C305 1.246 . S
O302 Mg297 2.032 . S
O302 C305 1.259 . S
O303 Mg294 2.114 . S
O303 C306 1.252 . S
O304 Mg294 2.251 . S
O304 Mg297 2.079 . S
O304 C306 1.273 . S
C305 O301 1.246 . S
C305 O302 1.259 . S
C306 O303 1.252 . S
C306 O304 1.273 . S
O307 Mg294 2.010 . S
O307 C299 1.249 . S
Mg308 O309 2.028 . S
Mg308 O315 1.986 . S
Mg308 O317 2.114 . S
Mg308 O318 2.251 . S
Mg308 O321 2.010 . S
O309 Mg308 2.028 . S
O309 C312 1.250 . S
O310 Mg311 2.028 . S
O310 C312 1.248 . S
Mg311 O310 2.028 . S
Mg311 O316 2.032 . S
Mg311 O318 2.079 . S
C312 O309 1.250 . S
C312 O310 1.248 . S
C313 O314 1.264 . S
C313 O321 1.249 . S
O314 C313 1.264 . S
O315 Mg308 1.986 . S
O315 C319 1.246 . S
O316 Mg311 2.032 . S
O316 C319 1.259 . S
O317 Mg308 2.114 . S
O317 C320 1.252 . S
O318 Mg308 2.251 . S
O318 Mg311 2.079 . S
O318 C320 1.273 . S
C319 O315 1.246 . S
C319 O316 1.259 . S
C320 O317 1.252 . S
C320 O318 1.273 . S
O321 Mg308 2.010 . S
O321 C313 1.249 . S
Mg322 O323 2.028 . S
Mg322 O329 1.986 . S
Mg322 O331 2.114 . S
Mg322 O332 2.251 . S
Mg322 O335 2.010 . S
O323 Mg322 2.028 . S
O323 C326 1.250 . S
O324 Mg325 2.028 . S
O324 C326 1.248 . S
Mg325 O324 2.028 . S
Mg325 O330 2.032 . S
Mg325 O332 2.079 . S
C326 O323 1.250 . S
C326 O324 1.248 . S
C327 O328 1.264 . S
C327 O335 1.249 . S
O328 C327 1.264 . S
O329 Mg322 1.986 . S
O329 C333 1.246 . S
O330 Mg325 2.032 . S
O330 C333 1.259 . S
O331 Mg322 2.114 . S
O331 C334 1.252 . S
O332 Mg322 2.251 . S
O332 Mg325 2.079 . S
O332 C334 1.273 . S
C333 O329 1.246 . S
C333 O330 1.259 . S
C334 O331 1.252 . S
C334 O332 1.273 . S
O335 Mg322 2.010 . S
O335 C327 1.249 . S
Mg336 O337 2.028 . S
Mg336 O343 1.986 . S
Mg336 O345 2.114 . S
Mg336 O346 2.251 . S
Mg336 O349 2.010 . S
O337 Mg336 2.028 . S
O337 C340 1.250 . S
O338 Mg339 2.028 . S
O338 C340 1.248 . S
Mg339 O338 2.028 . S
Mg339 O344 2.032 . S
Mg339 O346 2.079 . S
C340 O337 1.250 . S
C340 O338 1.248 . S
C341 O342 1.264 . S
C341 O349 1.249 . S
O342 C341 1.264 . S
O343 Mg336 1.986 . S
O343 C347 1.246 . S
O344 Mg339 2.032 . S
O344 C347 1.259 . S
O345 Mg336 2.114 . S
O345 C348 1.252 . S
O346 Mg336 2.251 . S
O346 Mg339 2.079 . S
O346 C348 1.273 . S
C347 O343 1.246 . S
C347 O344 1.259 . S
C348 O345 1.252 . S
C348 O346 1.273 . S
O349 Mg336 2.010 . S
O349 C341 1.249 . S
Mg350 O351 2.028 . S
Mg350 O357 1.986 . S
Mg350 O359 2.114 . S
Mg350 O360 2.251 . S
Mg350 O363 2.010 . S
O351 Mg350 2.028 . S
O351 C354 1.250 . S
O352 Mg353 2.028 . S
O352 C354 1.248 . S
Mg353 O352 2.028 . S
Mg353 O358 2.032 . S
Mg353 O360 2.079 . S
C354 O351 1.250 . S
C354 O352 1.248 . S
C355 O356 1.264 . S
C355 O363 1.249 . S
O356 C355 1.264 . S
O357 Mg350 1.986 . S
O357 C361 1.246 . S
O358 Mg353 2.032 . S
O358 C361 1.259 . S
O359 Mg350 2.114 . S
O359 C362 1.252 . S
O360 Mg350 2.251 . S
O360 Mg353 2.079 . S
O360 C362 1.273 . S
C361 O357 1.246 . S
C361 O358 1.259 . S
C362 O359 1.252 . S
C362 O360 1.273 . S
O363 Mg350 2.010 . S
O363 C355 1.249 . S
Mg364 O365 2.028 . S
Mg364 O371 1.986 . S
Mg364 O373 2.114 . S
Mg364 O374 2.251 . S
Mg364 O377 2.010 . S
O365 Mg364 2.028 . S
O365 C368 1.250 . S
O366 Mg367 2.028 . S
O366 C368 1.248 . S
Mg367 O366 2.028 . S
Mg367 O372 2.032 . S
Mg367 O374 2.079 . S
C368 O365 1.250 . S
C368 O366 1.248 . S
C369 O370 1.264 . S
C369 O377 1.249 . S
O370 C369 1.264 . S
O371 Mg364 1.986 . S
O371 C375 1.246 . S
O372 Mg367 2.032 . S
O372 C375 1.259 . S
O373 Mg364 2.114 . S
O373 C376 1.252 . S
O374 Mg364 2.251 . S
O374 Mg367 2.079 . S
O374 C376 1.273 . S
C375 O371 1.246 . S
C375 O372 1.259 . S
C376 O373 1.252 . S
C376 O374 1.273 . S
O377 Mg364 2.010 . S
O377 C369 1.249 . S
Mg378 O379 2.028 . S
Mg378 O385 1.986 . S
Mg378 O387 2.114 . S
Mg378 O388 2.251 . S
Mg378 O391 2.010 . S
O379 Mg378 2.028 . S
O379 C382 1.250 . S
O380 Mg381 2.028 . S
O380 C382 1.248 . S
Mg381 O380 2.028 . S
Mg381 O386 2.032 . S
Mg381 O388 2.079 . S
C382 O379 1.250 . S
C382 O380 1.248 . S
C383 O384 1.264 . S
C383 O391 1.249 . S
O384 C383 1.264 . S
O385 Mg378 1.986 . S
O385 C389 1.246 . S
O386 Mg381 2.032 . S
O386 C389 1.259 . S
O387 Mg378 2.114 . S
O387 C390 1.252 . S
O388 Mg378 2.251 . S
O388 Mg381 2.079 . S
O388 C390 1.273 . S
C389 O385 1.246 . S
C389 O386 1.259 . S
C390 O387 1.252 . S
C390 O388 1.273 . S
O391 Mg378 2.010 . S
O391 C383 1.249 . S
Mg392 O393 2.028 . S
Mg392 O399 1.986 . S
Mg392 O401 2.114 . S
Mg392 O402 2.251 . S
Mg392 O405 2.010 . S
O393 Mg392 2.028 . S
O393 C396 1.250 . S
O394 Mg395 2.028 . S
O394 C396 1.248 . S
Mg395 O394 2.028 . S
Mg395 O400 2.032 . S
Mg395 O402 2.079 . S
C396 O393 1.250 . S
C396 O394 1.248 . S
C397 O398 1.264 . S
C397 O405 1.249 . S
O398 C397 1.264 . S
O399 Mg392 1.986 . S
O399 C403 1.246 . S
O400 Mg395 2.032 . S
O400 C403 1.259 . S
O401 Mg392 2.114 . S
O401 C404 1.252 . S
O402 Mg392 2.251 . S
O402 Mg395 2.079 . S
O402 C404 1.273 . S
C403 O399 1.246 . S
C403 O400 1.259 . S
C404 O401 1.252 . S
C404 O402 1.273 . S
O405 Mg392 2.010 . S
O405 C397 1.249 . S
Mg406 O407 2.028 . S
Mg406 O413 1.986 . S
Mg406 O415 2.114 . S
Mg406 O416 2.251 . S
Mg406 O419 2.010 . S
O407 Mg406 2.028 . S
O407 C410 1.250 . S
O408 Mg409 2.028 . S
O408 C410 1.248 . S
Mg409 O408 2.028 . S
Mg409 O414 2.032 . S
Mg409 O416 2.079 . S
C410 O407 1.250 . S
C410 O408 1.248 . S
C411 O412 1.264 . S
C411 O419 1.249 . S
O412 C411 1.264 . S
O413 Mg406 1.986 . S
O413 C417 1.246 . S
O414 Mg409 2.032 . S
O414 C417 1.259 . S
O415 Mg406 2.114 . S
O415 C418 1.252 . S
O416 Mg406 2.251 . S
O416 Mg409 2.079 . S
O416 C418 1.273 . S
C417 O413 1.246 . S
C417 O414 1.259 . S
C418 O415 1.252 . S
C418 O416 1.273 . S
O419 Mg406 2.010 . S
O419 C411 1.249 . S
Mg420 O421 2.028 . S
Mg420 O427 1.986 . S
Mg420 O429 2.114 . S
Mg420 O430 2.251 . S
Mg420 O433 2.010 . S
O421 Mg420 2.028 . S
O421 C424 1.250 . S
O422 Mg423 2.028 . S
O422 C424 1.248 . S
Mg423 O422 2.028 . S
Mg423 O428 2.032 . S
Mg423 O430 2.079 . S
C424 O421 1.250 . S
C424 O422 1.248 . S
C425 O426 1.264 . S
C425 O433 1.249 . S
O426 C425 1.264 . S
O427 Mg420 1.986 . S
O427 C431 1.246 . S
O428 Mg423 2.032 . S
O428 C431 1.259 . S
O429 Mg420 2.114 . S
O429 C432 1.252 . S
O430 Mg420 2.251 . S
O430 Mg423 2.079 . S
O430 C432 1.273 . S
C431 O427 1.246 . S
C431 O428 1.259 . S
C432 O429 1.252 . S
C432 O430 1.273 . S
O433 Mg420 2.010 . S
O433 C425 1.249 . S
Mg434 O435 2.028 . S
Mg434 O441 1.986 . S
Mg434 O443 2.114 . S
Mg434 O444 2.251 . S
Mg434 O447 2.010 . S
O435 Mg434 2.028 . S
O435 C438 1.250 . S
O436 Mg437 2.028 . S
O436 C438 1.248 . S
Mg437 O436 2.028 . S
Mg437 O442 2.032 . S
Mg437 O444 2.079 . S
C438 O435 1.250 . S
C438 O436 1.248 . S
C439 O440 1.264 . S
C439 O447 1.249 . S
O440 C439 1.264 . S
O441 Mg434 1.986 . S
O441 C445 1.246 . S
O442 Mg437 2.032 . S
O442 C445 1.259 . S
O443 Mg434 2.114 . S
O443 C446 1.252 . S
O444 Mg434 2.251 . S
O444 Mg437 2.079 . S
O444 C446 1.273 . S
C445 O441 1.246 . S
C445 O442 1.259 . S
C446 O443 1.252 . S
C446 O444 1.273 . S
O447 Mg434 2.010 . S
O447 C439 1.249 . S
C448 C449 1.387 . S
C448 H452 0.950 . S
C448 C457 1.390 . S
C449 C448 1.387 . S
C449 C451 1.387 . S
H450 C457 0.950 . S
C451 C449 1.387 . S
C451 C453 1.390 . S
C451 H455 0.950 . S
H452 C448 0.950 . S
C453 C451 1.390 . S
C453 C454 1.387 . S
C453 H456 0.950 . S
C454 C453 1.387 . S
C454 C457 1.387 . S
H455 C451 0.950 . S
H456 C453 0.950 . S
C457 C448 1.390 . S
C457 H450 0.950 . S
C457 C454 1.387 . S
C458 C459 1.387 . S
C458 H462 0.950 . S
C458 C467 1.390 . S
C459 C458 1.387 . S
C459 C461 1.387 . S
H460 C467 0.950 . S
C461 C459 1.387 . S
C461 C463 1.390 . S
C461 H465 0.950 . S
H462 C458 0.950 . S
C463 C461 1.390 . S
C463 C464 1.387 . S
C463 H466 0.950 . S
C464 C463 1.387 . S
C464 C467 1.387 . S
H465 C461 0.950 . S
H466 C463 0.950 . S
C467 C458 1.390 . S
C467 H460 0.950 . S
C467 C464 1.387 . S
C468 C469 1.387 . S
C468 H472 0.950 . S
C468 C477 1.390 . S
C469 C468 1.387 . S
C469 C471 1.387 . S
H470 C477 0.950 . S
C471 C469 1.387 . S
C471 C473 1.390 . S
C471 H475 0.950 . S
H472 C468 0.950 . S
C473 C471 1.390 . S
C473 C474 1.387 . S
C473 H476 0.950 . S
C474 C473 1.387 . S
C474 C477 1.387 . S
H475 C471 0.950 . S
H476 C473 0.950 . S
C477 C468 1.390 . S
C477 H470 0.950 . S
C477 C474 1.387 . S
C478 C479 1.387 . S
C478 H482 0.950 . S
C478 C487 1.390 . S
C479 C478 1.387 . S
C479 C481 1.387 . S
H480 C487 0.950 . S
C481 C479 1.387 . S
C481 C483 1.390 . S
C481 H485 0.950 . S
H482 C478 0.950 . S
C483 C481 1.390 . S
C483 C484 1.387 . S
C483 H486 0.950 . S
C484 C483 1.387 . S
C484 C487 1.387 . S
H485 C481 0.950 . S
H486 C483 0.950 . S
C487 C478 1.390 . S
C487 H480 0.950 . S
C487 C484 1.387 . S
C488 C489 1.387 . S
C488 H492 0.950 . S
C488 C497 1.390 . S
C489 C488 1.387 . S
C489 C491 1.387 . S
H490 C497 0.950 . S
C491 C489 1.387 . S
C491 C493 1.390 . S
C491 H495 0.950 . S
H492 C488 0.950 . S
C493 C491 1.390 . S
C493 C494 1.387 . S
C493 H496 0.950 . S
C494 C493 1.387 . S
C494 C497 1.387 . S
H495 C491 0.950 . S
H496 C493 0.950 . S
C497 C488 1.390 . S
C497 H490 0.950 . S
C497 C494 1.387 . S
C498 C499 1.387 . S
C498 H502 0.950 . S
C498 C507 1.390 . S
C499 C498 1.387 . S
C499 C501 1.387 . S
H500 C507 0.950 . S
C501 C499 1.387 . S
C501 C503 1.390 . S
C501 H505 0.950 . S
H502 C498 0.950 . S
C503 C501 1.390 . S
C503 C504 1.387 . S
C503 H506 0.950 . S
C504 C503 1.387 . S
C504 C507 1.387 . S
H505 C501 0.950 . S
H506 C503 0.950 . S
C507 C498 1.390 . S
C507 H500 0.950 . S
C507 C504 1.387 . S
C508 C509 1.387 . S
C508 H512 0.950 . S
C508 C517 1.390 . S
C509 C508 1.387 . S
C509 C511 1.387 . S
H510 C517 0.950 . S
C511 C509 1.387 . S
C511 C513 1.390 . S
C511 H515 0.950 . S
H512 C508 0.950 . S
C513 C511 1.390 . S
C513 C514 1.387 . S
C513 H516 0.950 . S
C514 C513 1.387 . S
C514 C517 1.387 . S
H515 C511 0.950 . S
H516 C513 0.950 . S
C517 C508 1.390 . S
C517 H510 0.950 . S
C517 C514 1.387 . S
C518 C519 1.387 . S
C518 H522 0.950 . S
C518 C527 1.390 . S
C519 C518 1.387 . S
C519 C521 1.387 . S
H520 C527 0.950 . S
C521 C519 1.387 . S
C521 C523 1.390 . S
C521 H525 0.950 . S
H522 C518 0.950 . S
C523 C521 1.390 . S
C523 C524 1.387 . S
C523 H526 0.950 . S
C524 C523 1.387 . S
C524 C527 1.387 . S
H525 C521 0.950 . S
H526 C523 0.950 . S
C527 C518 1.390 . S
C527 H520 0.950 . S
C527 C524 1.387 . S
C528 C529 1.387 . S
C528 H532 0.950 . S
C528 C537 1.390 . S
C529 C528 1.387 . S
C529 C531 1.387 . S
H530 C537 0.950 . S
C531 C529 1.387 . S
C531 C533 1.390 . S
C531 H535 0.950 . S
H532 C528 0.950 . S
C533 C531 1.390 . S
C533 C534 1.387 . S
C533 H536 0.950 . S
C534 C533 1.387 . S
C534 C537 1.387 . S
H535 C531 0.950 . S
H536 C533 0.950 . S
C537 C528 1.390 . S
C537 H530 0.950 . S
C537 C534 1.387 . S
C538 C539 1.387 . S
C538 H542 0.950 . S
C538 C547 1.390 . S
C539 C538 1.387 . S
C539 C541 1.387 . S
H540 C547 0.950 . S
C541 C539 1.387 . S
C541 C543 1.390 . S
C541 H545 0.950 . S
H542 C538 0.950 . S
C543 C541 1.390 . S
C543 C544 1.387 . S
C543 H546 0.950 . S
C544 C543 1.387 . S
C544 C547 1.387 . S
H545 C541 0.950 . S
H546 C543 0.950 . S
C547 C538 1.390 . S
C547 H540 0.950 . S
C547 C544 1.387 . S
C548 C549 1.387 . S
C548 H552 0.950 . S
C548 C557 1.390 . S
C549 C548 1.387 . S
C549 C551 1.387 . S
H550 C557 0.950 . S
C551 C549 1.387 . S
C551 C553 1.390 . S
C551 H555 0.950 . S
H552 C548 0.950 . S
C553 C551 1.390 . S
C553 C554 1.387 . S
C553 H556 0.950 . S
C554 C553 1.387 . S
C554 C557 1.387 . S
H555 C551 0.950 . S
H556 C553 0.950 . S
C557 C548 1.390 . S
C557 H550 0.950 . S
C557 C554 1.387 . S
C558 C559 1.387 . S
C558 H562 0.950 . S
C558 C567 1.390 . S
C559 C558 1.387 . S
C559 C561 1.387 . S
H560 C567 0.950 . S
C561 C559 1.387 . S
C561 C563 1.390 . S
C561 H565 0.950 . S
H562 C558 0.950 . S
C563 C561 1.390 . S
C563 C564 1.387 . S
C563 H566 0.950 . S
C564 C563 1.387 . S
C564 C567 1.387 . S
H565 C561 0.950 . S
H566 C563 0.950 . S
C567 C558 1.390 . S
C567 H560 0.950 . S
C567 C564 1.387 . S
C568 C569 1.387 . S
C568 H572 0.950 . S
C568 C577 1.390 . S
C569 C568 1.387 . S
C569 C571 1.387 . S
H570 C577 0.950 . S
C571 C569 1.387 . S
C571 C573 1.390 . S
C571 H575 0.950 . S
H572 C568 0.950 . S
C573 C571 1.390 . S
C573 C574 1.387 . S
C573 H576 0.950 . S
C574 C573 1.387 . S
C574 C577 1.387 . S
H575 C571 0.950 . S
H576 C573 0.950 . S
C577 C568 1.390 . S
C577 H570 0.950 . S
C577 C574 1.387 . S
C578 C579 1.387 . S
C578 H582 0.950 . S
C578 C587 1.390 . S
C579 C578 1.387 . S
C579 C581 1.387 . S
H580 C587 0.950 . S
C581 C579 1.387 . S
C581 C583 1.390 . S
C581 H585 0.950 . S
H582 C578 0.950 . S
C583 C581 1.390 . S
C583 C584 1.387 . S
C583 H586 0.950 . S
C584 C583 1.387 . S
C584 C587 1.387 . S
H585 C581 0.950 . S
H586 C583 0.950 . S
C587 C578 1.390 . S
C587 H580 0.950 . S
C587 C584 1.387 . S
C588 C589 1.387 . S
C588 H592 0.950 . S
C588 C597 1.390 . S
C589 C588 1.387 . S
C589 C591 1.387 . S
H590 C597 0.950 . S
C591 C589 1.387 . S
C591 C593 1.390 . S
C591 H595 0.950 . S
H592 C588 0.950 . S
C593 C591 1.390 . S
C593 C594 1.387 . S
C593 H596 0.950 . S
C594 C593 1.387 . S
C594 C597 1.387 . S
H595 C591 0.950 . S
H596 C593 0.950 . S
C597 C588 1.390 . S
C597 H590 0.950 . S
C597 C594 1.387 . S
C598 C599 1.387 . S
C598 H602 0.950 . S
C598 C607 1.390 . S
C599 C598 1.387 . S
C599 C601 1.387 . S
H600 C607 0.950 . S
C601 C599 1.387 . S
C601 C603 1.390 . S
C601 H605 0.950 . S
H602 C598 0.950 . S
C603 C601 1.390 . S
C603 C604 1.387 . S
C603 H606 0.950 . S
C604 C603 1.387 . S
C604 C607 1.387 . S
H605 C601 0.950 . S
H606 C603 0.950 . S
C607 C598 1.390 . S
C607 H600 0.950 . S
C607 C604 1.387 . S
C608 C609 1.387 . S
C608 H612 0.950 . S
C608 C617 1.390 . S
C609 C608 1.387 . S
C609 C611 1.387 1_455 S
H610 C617 0.950 . S
C611 C609 1.387 1_655 S
C611 C613 1.390 . S
C611 H615 0.950 . S
H612 C608 0.950 . S
C613 C611 1.390 . S
C613 C614 1.387 . S
C613 H616 0.950 . S
C614 C613 1.387 . S
C614 C617 1.387 1_655 S
H615 C611 0.950 . S
H616 C613 0.950 . S
C617 C608 1.390 . S
C617 H610 0.950 . S
C617 C614 1.387 1_455 S
C618 C619 1.387 . S
C618 H622 0.950 . S
C618 C627 1.390 . S
C619 C618 1.387 . S
C619 C621 1.387 1_545 S
H620 C627 0.950 . S
C621 C619 1.387 1_565 S
C621 C623 1.390 . S
C621 H625 0.950 . S
H622 C618 0.950 . S
C623 C621 1.390 . S
C623 C624 1.387 . S
C623 H626 0.950 . S
C624 C623 1.387 . S
C624 C627 1.387 1_565 S
H625 C621 0.950 . S
H626 C623 0.950 . S
C627 C618 1.390 . S
C627 H620 0.950 . S
C627 C624 1.387 1_545 S
C628 C629 1.387 . S
C628 H632 0.950 . S
C628 C637 1.390 1_546 S
C629 C628 1.387 . S
C629 C631 1.387 1_455 S
H630 C637 0.950 . S
C631 C629 1.387 1_655 S
C631 C633 1.390 1_546 S
C631 H635 0.950 . S
H632 C628 0.950 . S
C633 C631 1.390 1_564 S
C633 C634 1.387 . S
C633 H636 0.950 . S
C634 C633 1.387 . S
C634 C637 1.387 1_655 S
H635 C631 0.950 . S
H636 C633 0.950 . S
C637 C628 1.390 1_564 S
C637 H630 0.950 . S
C637 C634 1.387 1_455 S
C638 C639 1.387 1_554 S
C638 H642 0.950 . S
C638 C647 1.390 . S
C639 C638 1.387 1_556 S
C639 C641 1.387 . S
H640 C647 0.950 . S
C641 C639 1.387 . S
C641 C643 1.390 . S
C641 H645 0.950 . S
H642 C638 0.950 . S
C643 C641 1.390 . S
C643 C644 1.387 1_556 S
C643 H646 0.950 . S
C644 C643 1.387 1_554 S
C644 C647 1.387 . S
H645 C641 0.950 . S
H646 C643 0.950 . S
C647 C638 1.390 . S
C647 H640 0.950 . S
C647 C644 1.387 . S
C648 C649 1.387 . S
C648 H652 0.950 . S
C648 C657 1.390 . S
C649 C648 1.387 . S
C649 C651 1.387 1_655 S
H650 C657 0.950 . S
C651 C649 1.387 1_455 S
C651 C653 1.390 . S
C651 H655 0.950 . S
H652 C648 0.950 . S
C653 C651 1.390 . S
C653 C654 1.387 . S
C653 H656 0.950 . S
C654 C653 1.387 . S
C654 C657 1.387 1_455 S
H655 C651 0.950 . S
H656 C653 0.950 . S
C657 C648 1.390 . S
C657 H650 0.950 . S
C657 C654 1.387 1_655 S
C658 C659 1.387 . S
C658 H662 0.950 . S
C658 C667 1.390 . S
C659 C658 1.387 . S
C659 C661 1.387 1_545 S
H660 C667 0.950 . S
C661 C659 1.387 1_565 S
C661 C663 1.390 . S
C661 H665 0.950 . S
H662 C658 0.950 . S
C663 C661 1.390 . S
C663 C664 1.387 . S
C663 H666 0.950 . S
C664 C663 1.387 . S
C664 C667 1.387 1_565 S
H665 C661 0.950 . S
H666 C663 0.950 . S
C667 C658 1.390 . S
C667 H660 0.950 . S
C667 C664 1.387 1_545 S
C668 C669 1.387 . S
C668 H672 0.950 . S
C668 C677 1.408 . S
C669 C668 1.387 . S
C669 C671 1.369 1_556 S
H670 C677 0.949 . S
C671 C669 1.369 1_554 S
C671 C673 1.408 . S
C671 H675 0.949 . S
H672 C668 0.950 . S
C673 C671 1.408 . S
C673 C674 1.387 . S
C673 H676 0.950 . S
C674 C673 1.387 . S
C674 C677 1.369 1_554 S
H675 C671 0.949 . S
H676 C673 0.950 . S
C677 C668 1.408 . S
C677 H670 0.949 . S
C677 C674 1.369 1_556 S
C678 C679 1.387 . S
C678 H682 0.950 . S
C678 C687 1.390 . S
C679 C678 1.387 . S
C679 C681 1.387 . S
H680 C687 0.950 . S
C681 C679 1.387 . S
C681 C683 1.390 . S
C681 H685 0.950 . S
H682 C678 0.950 . S
C683 C681 1.390 . S
C683 C684 1.387 . S
C683 H686 0.950 . S
C684 C683 1.387 . S
C684 C687 1.387 . S
H685 C681 0.950 . S
H686 C683 0.950 . S
C687 C678 1.390 . S
C687 H680 0.950 . S
C687 C684 1.387 . S
C688 C689 1.387 1_655 S
C688 H692 0.950 . S
C688 C697 1.390 . S
C689 C688 1.387 1_455 S
C689 C691 1.387 . S
H690 C697 0.950 . S
C691 C689 1.387 . S
C691 C693 1.390 . S
C691 H695 0.950 . S
H692 C688 0.950 . S
C693 C691 1.390 . S
C693 C694 1.387 1_455 S
C693 H696 0.950 . S
C694 C693 1.387 1_655 S
C694 C697 1.387 . S
H695 C691 0.950 . S
H696 C693 0.950 . S
C697 C688 1.390 . S
C697 H690 0.950 . S
C697 C694 1.387 . S
C698 C699 1.387 . S
C698 H702 0.950 . S
C698 C707 1.390 . S
C699 C698 1.387 . S
C699 C701 1.387 . S
H700 C707 0.950 . S
C701 C699 1.387 . S
C701 C703 1.390 . S
C701 H705 0.950 . S
H702 C698 0.950 . S
C703 C701 1.390 . S
C703 C704 1.387 . S
C703 H706 0.950 . S
C704 C703 1.387 . S
C704 C707 1.387 . S
H705 C701 0.950 . S
H706 C703 0.950 . S
C707 C698 1.390 . S
C707 H700 0.950 . S
C707 C704 1.387 . S
C708 C709 1.387 . S
C708 H712 0.950 . S
C708 C717 1.390 . S
C709 C708 1.387 . S
C709 C711 1.387 . S
H710 C717 0.950 . S
C711 C709 1.387 . S
C711 C713 1.390 . S
C711 H715 0.950 . S
H712 C708 0.950 . S
C713 C711 1.390 . S
C713 C714 1.387 . S
C713 H716 0.950 . S
C714 C713 1.387 . S
C714 C717 1.387 . S
H715 C711 0.950 . S
H716 C713 0.950 . S
C717 C708 1.390 . S
C717 H710 0.950 . S
C717 C714 1.387 . S
C718 C719 1.387 . S
C718 H722 0.950 . S
C718 C727 1.390 . S
C719 C718 1.387 . S
C719 C721 1.387 . S
H720 C727 0.950 . S
C721 C719 1.387 . S
C721 C723 1.390 . S
C721 H725 0.950 . S
H722 C718 0.950 . S
C723 C721 1.390 . S
C723 C724 1.387 . S
C723 H726 0.950 . S
C724 C723 1.387 . S
C724 C727 1.387 . S
H725 C721 0.950 . S
H726 C723 0.950 . S
C727 C718 1.390 . S
C727 H720 0.950 . S
C727 C724 1.387 . S
C728 C729 1.387 . S
C728 H732 0.950 . S
C728 C737 1.390 . S
C729 C728 1.387 . S
C729 C731 1.387 . S
H730 C737 0.950 . S
C731 C729 1.387 . S
C731 C733 1.390 . S
C731 H735 0.950 . S
H732 C728 0.950 . S
C733 C731 1.390 . S
C733 C734 1.387 . S
C733 H736 0.950 . S
C734 C733 1.387 . S
C734 C737 1.387 . S
H735 C731 0.950 . S
H736 C733 0.950 . S
C737 C728 1.390 . S
C737 H730 0.950 . S
C737 C734 1.387 . S
C738 C739 1.387 1_545 S
C738 H742 0.950 . S
C738 C747 1.390 . S
C739 C738 1.387 1_565 S
C739 C741 1.387 . S
H740 C747 0.950 . S
C741 C739 1.387 . S
C741 C743 1.390 . S
C741 H745 0.950 . S
H742 C738 0.950 . S
C743 C741 1.390 . S
C743 C744 1.387 1_565 S
C743 H746 0.950 . S
C744 C743 1.387 1_545 S
C744 C747 1.387 . S
H745 C741 0.950 . S
H746 C743 0.950 . S
C747 C738 1.390 . S
C747 H740 0.950 . S
C747 C744 1.387 . S
C748 C749 1.387 . S
C748 H752 0.950 . S
C748 C757 1.390 . S
C749 C748 1.387 . S
C749 C751 1.387 . S
H750 C757 0.950 . S
C751 C749 1.387 . S
C751 C753 1.390 . S
C751 H755 0.950 . S
H752 C748 0.950 . S
C753 C751 1.390 . S
C753 C754 1.387 . S
C753 H756 0.950 . S
C754 C753 1.387 . S
C754 C757 1.387 . S
H755 C751 0.950 . S
H756 C753 0.950 . S
C757 C748 1.390 . S
C757 H750 0.950 . S
C757 C754 1.387 . S
C758 C759 1.387 . S
C758 H762 0.950 . S
C758 C767 1.390 1_554 S
C759 C758 1.387 . S
C759 C761 1.387 . S
H760 C767 0.950 . S
C761 C759 1.387 . S
C761 C763 1.390 1_554 S
C761 H765 0.950 . S
H762 C758 0.950 . S
C763 C761 1.390 1_556 S
C763 C764 1.387 . S
C763 H766 0.950 . S
C764 C763 1.387 . S
C764 C767 1.387 . S
H765 C761 0.950 . S
H766 C763 0.950 . S
C767 C758 1.390 1_556 S
C767 H760 0.950 . S
C767 C764 1.387 . S
C768 C769 1.387 . S
C768 H772 0.950 . S
C768 C777 1.390 . S
C769 C768 1.387 . S
C769 C771 1.387 . S
H770 C777 0.950 . S
C771 C769 1.387 . S
C771 C773 1.390 . S
C771 H775 0.950 . S
H772 C768 0.950 . S
C773 C771 1.390 . S
C773 C774 1.387 . S
C773 H776 0.950 . S
C774 C773 1.387 . S
C774 C777 1.387 . S
H775 C771 0.950 . S
H776 C773 0.950 . S
C777 C768 1.390 . S
C777 H770 0.950 . S
C777 C774 1.387 . S
C778 C779 1.387 . S
C778 H782 0.950 . S
C778 C787 1.390 . S
C779 C778 1.387 . S
C779 C781 1.387 . S
H780 C787 0.950 . S
C781 C779 1.387 . S
C781 C783 1.390 . S
C781 H785 0.950 . S
H782 C778 0.950 . S
C783 C781 1.390 . S
C783 C784 1.387 . S
C783 H786 0.950 . S
C784 C783 1.387 . S
C784 C787 1.387 . S
H785 C781 0.950 . S
H786 C783 0.950 . S
C787 C778 1.390 . S
C787 H780 0.950 . S
C787 C784 1.387 . S
C788 C789 1.387 . S
C788 H792 0.950 . S
C788 C797 1.390 . S
C789 C788 1.387 . S
C789 C791 1.387 . S
H790 C797 0.950 . S
C791 C789 1.387 . S
C791 C793 1.390 . S
C791 H795 0.950 . S
H792 C788 0.950 . S
C793 C791 1.390 . S
C793 C794 1.387 . S
C793 H796 0.950 . S
C794 C793 1.387 . S
C794 C797 1.387 . S
H795 C791 0.950 . S
H796 C793 0.950 . S
C797 C788 1.390 . S
C797 H790 0.950 . S
C797 C794 1.387 . S
C798 C799 1.387 . S
C798 H802 0.950 . S
C798 C807 1.390 . S
C799 C798 1.387 . S
C799 C801 1.387 . S
H800 C807 0.950 . S
C801 C799 1.387 . S
C801 C803 1.390 . S
C801 H805 0.950 . S
H802 C798 0.950 . S
C803 C801 1.390 . S
C803 C804 1.387 . S
C803 H806 0.950 . S
C804 C803 1.387 . S
C804 C807 1.387 . S
H805 C801 0.950 . S
H806 C803 0.950 . S
C807 C798 1.390 . S
C807 H800 0.950 . S
C807 C804 1.387 . S
C808 C809 1.387 . S
C808 H812 0.950 . S
C808 C817 1.390 . S
C809 C808 1.387 . S
C809 C811 1.387 . S
H810 C817 0.950 . S
C811 C809 1.387 . S
C811 C813 1.390 . S
C811 H815 0.950 . S
H812 C808 0.950 . S
C813 C811 1.390 . S
C813 C814 1.387 . S
C813 H816 0.950 . S
C814 C813 1.387 . S
C814 C817 1.387 . S
H815 C811 0.950 . S
H816 C813 0.950 . S
C817 C808 1.390 . S
C817 H810 0.950 . S
C817 C814 1.387 . S
C818 C819 1.387 . S
C818 H822 0.950 . S
C818 C827 1.390 . S
C819 C818 1.387 . S
C819 C821 1.387 . S
H820 C827 0.950 . S
C821 C819 1.387 . S
C821 C823 1.390 . S
C821 H825 0.950 . S
H822 C818 0.950 . S
C823 C821 1.390 . S
C823 C824 1.387 . S
C823 H826 0.950 . S
C824 C823 1.387 . S
C824 C827 1.387 . S
H825 C821 0.950 . S
H826 C823 0.950 . S
C827 C818 1.390 . S
C827 H820 0.950 . S
C827 C824 1.387 . S
C828 C829 1.387 . S
C828 H832 0.950 . S
C828 C837 1.390 . S
C829 C828 1.387 . S
C829 C831 1.387 . S
H830 C837 0.950 . S
C831 C829 1.387 . S
C831 C833 1.390 . S
C831 H835 0.950 . S
H832 C828 0.950 . S
C833 C831 1.390 . S
C833 C834 1.387 . S
C833 H836 0.950 . S
C834 C833 1.387 . S
C834 C837 1.387 . S
H835 C831 0.950 . S
H836 C833 0.950 . S
C837 C828 1.390 . S
C837 H830 0.950 . S
C837 C834 1.387 . S
C838 C839 1.387 . S
C838 H842 0.950 . S
C838 C847 1.390 . S
C839 C838 1.387 . S
C839 C841 1.387 . S
H840 C847 0.950 . S
C841 C839 1.387 . S
C841 C843 1.390 . S
C841 H845 0.950 . S
H842 C838 0.950 . S
C843 C841 1.390 . S
C843 C844 1.387 . S
C843 H846 0.950 . S
C844 C843 1.387 . S
C844 C847 1.387 . S
H845 C841 0.950 . S
H846 C843 0.950 . S
C847 C838 1.390 . S
C847 H840 0.950 . S
C847 C844 1.387 . S
C848 C849 1.387 . S
C848 H852 0.950 . S
C848 C857 1.390 . S
C849 C848 1.387 . S
C849 C851 1.387 . S
H850 C857 0.950 . S
C851 C849 1.387 . S
C851 C853 1.390 . S
C851 H855 0.950 . S
H852 C848 0.950 . S
C853 C851 1.390 . S
C853 C854 1.387 . S
C853 H856 0.950 . S
C854 C853 1.387 . S
C854 C857 1.387 . S
H855 C851 0.950 . S
H856 C853 0.950 . S
C857 C848 1.390 . S
C857 H850 0.950 . S
C857 C854 1.387 . S
C858 C859 1.387 . S
C858 H862 0.950 . S
C858 C867 1.390 . S
C859 C858 1.387 . S
C859 C861 1.387 . S
H860 C867 0.950 . S
C861 C859 1.387 . S
C861 C863 1.390 . S
C861 H865 0.950 . S
H862 C858 0.950 . S
C863 C861 1.390 . S
C863 C864 1.387 . S
C863 H866 0.950 . S
C864 C863 1.387 . S
C864 C867 1.387 . S
H865 C861 0.950 . S
H866 C863 0.950 . S
C867 C858 1.390 . S
C867 H860 0.950 . S
C867 C864 1.387 . S
C868 C869 1.387 . S
C868 H872 0.950 . S
C868 C877 1.390 . S
C869 C868 1.387 . S
C869 C871 1.387 . S
H870 C877 0.950 . S
C871 C869 1.387 . S
C871 C873 1.390 . S
C871 H875 0.950 . S
H872 C868 0.950 . S
C873 C871 1.390 . S
C873 C874 1.387 . S
C873 H876 0.950 . S
C874 C873 1.387 . S
C874 C877 1.387 . S
H875 C871 0.950 . S
H876 C873 0.950 . S
C877 C868 1.390 . S
C877 H870 0.950 . S
C877 C874 1.387 . S
C878 C879 1.387 . S
C878 H882 0.950 . S
C878 C887 1.390 . S
C879 C878 1.387 . S
C879 C881 1.387 . S
H880 C887 0.950 . S
C881 C879 1.387 . S
C881 C883 1.390 . S
C881 H885 0.950 . S
H882 C878 0.950 . S
C883 C881 1.390 . S
C883 C884 1.387 . S
C883 H886 0.950 . S
C884 C883 1.387 . S
C884 C887 1.387 . S
H885 C881 0.950 . S
H886 C883 0.950 . S
C887 C878 1.390 . S
C887 H880 0.950 . S
C887 C884 1.387 . S
C888 C889 1.387 . S
C888 H892 0.950 . S
C888 C897 1.390 . S
C889 C888 1.387 . S
C889 C891 1.387 . S
H890 C897 0.950 . S
C891 C889 1.387 . S
C891 C893 1.390 . S
C891 H895 0.950 . S
H892 C888 0.950 . S
C893 C891 1.390 . S
C893 C894 1.387 . S
C893 H896 0.950 . S
C894 C893 1.387 . S
C894 C897 1.387 . S
H895 C891 0.950 . S
H896 C893 0.950 . S
C897 C888 1.390 . S
C897 H890 0.950 . S
C897 C894 1.387 . S
C898 C899 1.387 . S
C898 H902 0.950 . S
C898 C907 1.390 . S
C899 C898 1.387 . S
C899 C901 1.387 . S
H900 C907 0.950 . S
C901 C899 1.387 . S
C901 C903 1.390 . S
C901 H905 0.950 . S
H902 C898 0.950 . S
C903 C901 1.390 . S
C903 C904 1.387 . S
C903 H906 0.950 . S
C904 C903 1.387 . S
C904 C907 1.387 . S
H905 C901 0.950 . S
H906 C903 0.950 . S
C907 C898 1.390 . S
C907 H900 0.950 . S
C907 C904 1.387 . S
C908 C909 1.387 . S
C908 H912 0.950 . S
C908 C917 1.390 . S
C909 C908 1.387 . S
C909 C911 1.387 . S
H910 C917 0.950 . S
C911 C909 1.387 . S
C911 C913 1.390 . S
C911 H915 0.950 . S
H912 C908 0.950 . S
C913 C911 1.390 . S
C913 C914 1.387 . S
C913 H916 0.950 . S
C914 C913 1.387 . S
C914 C917 1.387 . S
H915 C911 0.950 . S
H916 C913 0.950 . S
C917 C908 1.390 . S
C917 H910 0.950 . S
C917 C914 1.387 . S
C918 C919 1.387 . S
C918 H922 0.950 . S
C918 C927 1.390 . S
C919 C918 1.387 . S
C919 C921 1.387 . S
H920 C927 0.950 . S
C921 C919 1.387 . S
C921 C923 1.390 . S
C921 H925 0.950 . S
H922 C918 0.950 . S
C923 C921 1.390 . S
C923 C924 1.387 . S
C923 H926 0.950 . S
C924 C923 1.387 . S
C924 C927 1.387 . S
H925 C921 0.950 . S
H926 C923 0.950 . S
C927 C918 1.390 . S
C927 H920 0.950 . S
C927 C924 1.387 . S
C928 C929 1.387 . S
C928 H932 0.950 . S
C928 C937 1.390 . S
C929 C928 1.387 . S
C929 C931 1.387 . S
H930 C937 0.950 . S
C931 C929 1.387 . S
C931 C933 1.390 . S
C931 H935 0.950 1_455 S
H932 C928 0.950 . S
C933 C931 1.390 . S
C933 C934 1.387 . S
C933 H936 0.950 1_455 S
C934 C933 1.387 . S
C934 C937 1.387 . S
H935 C931 0.950 1_655 S
H936 C933 0.950 1_655 S
C937 C928 1.390 . S
C937 H930 0.950 . S
C937 C934 1.387 . S
C938 C939 1.387 . S
C938 H942 0.950 . S
C938 C947 1.390 . S
C939 C938 1.387 . S
C939 C941 1.387 . S
H940 C947 0.950 . S
C941 C939 1.387 . S
C941 C943 1.390 . S
C941 H945 0.950 . S
H942 C938 0.950 . S
C943 C941 1.390 . S
C943 C944 1.387 . S
C943 H946 0.950 . S
C944 C943 1.387 . S
C944 C947 1.387 . S
H945 C941 0.950 . S
H946 C943 0.950 . S
C947 C938 1.390 . S
C947 H940 0.950 . S
C947 C944 1.387 . S
C948 C949 1.387 . S
C948 H952 0.950 1_455 S
C948 C957 1.390 . S
C949 C948 1.387 . S
C949 C951 1.387 . S
H950 C957 0.950 1_655 S
C951 C949 1.387 . S
C951 C953 1.390 . S
C951 H955 0.950 . S
H952 C948 0.950 1_655 S
C953 C951 1.390 . S
C953 C954 1.387 . S
C953 H956 0.950 . S
C954 C953 1.387 . S
C954 C957 1.387 . S
H955 C951 0.950 . S
H956 C953 0.950 . S
C957 C948 1.390 . S
C957 H950 0.950 1_455 S
C957 C954 1.387 . S
C958 C959 1.387 . S
C958 H962 0.950 . S
C958 C967 1.390 . S
C959 C958 1.387 . S
C959 C961 1.387 . S
H960 C967 0.950 . S
C961 C959 1.387 . S
C961 C963 1.390 . S
C961 H965 0.950 . S
H962 C958 0.950 . S
C963 C961 1.390 . S
C963 C964 1.387 . S
C963 H966 0.950 . S
C964 C963 1.387 . S
C964 C967 1.387 . S
H965 C961 0.950 . S
H966 C963 0.950 . S
C967 C958 1.390 . S
C967 H960 0.950 . S
C967 C964 1.387 . S
C968 C969 1.387 . S
C968 H972 0.950 1_655 S
C968 C977 1.390 . S
C969 C968 1.387 . S
C969 C971 1.387 . S
H970 C977 0.950 1_455 S
C971 C969 1.387 . S
C971 C973 1.390 . S
C971 H975 0.950 . S
H972 C968 0.950 1_455 S
C973 C971 1.390 . S
C973 C974 1.387 . S
C973 H976 0.950 . S
C974 C973 1.387 . S
C974 C977 1.387 . S
H975 C971 0.950 . S
H976 C973 0.950 . S
C977 C968 1.390 . S
C977 H970 0.950 1_655 S
C977 C974 1.387 . S
C978 C979 1.387 . S
C978 H982 0.950 . S
C978 C987 1.390 . S
C979 C978 1.387 . S
C979 C981 1.387 . S
H980 C987 0.950 . S
C981 C979 1.387 . S
C981 C983 1.390 . S
C981 H985 0.950 . S
H982 C978 0.950 . S
C983 C981 1.390 . S
C983 C984 1.387 . S
C983 H986 0.950 . S
C984 C983 1.387 . S
C984 C987 1.387 . S
H985 C981 0.950 . S
H986 C983 0.950 . S
C987 C978 1.390 . S
C987 H980 0.950 . S
C987 C984 1.387 . S
C988 C989 1.387 . S
C988 H992 0.950 1_655 S
C988 C997 1.390 . S
C989 C988 1.387 . S
C989 C991 1.387 . S
H990 C997 0.950 1_455 S
C991 C989 1.387 . S
C991 C993 1.390 . S
C991 H995 0.950 . S
H992 C988 0.950 1_455 S
C993 C991 1.390 . S
C993 C994 1.387 . S
C993 H996 0.950 . S
C994 C993 1.387 . S
C994 C997 1.387 . S
H995 C991 0.950 . S
H996 C993 0.950 . S
C997 C988 1.390 . S
C997 H990 0.950 1_655 S
C997 C994 1.387 . S
C998 C999 1.387 . S
C998 H1002 0.950 . S
C998 C1007 1.390 . S
C999 C998 1.387 . S
C999 C1001 1.387 . S
H1000 C1007 0.950 . S
C1001 C999 1.387 . S
C1001 C1003 1.390 . S
C1001 H1005 0.950 . S
H1002 C998 0.950 . S
C1003 C1001 1.390 . S
C1003 C1004 1.387 . S
C1003 H1006 0.950 . S
C1004 C1003 1.387 . S
C1004 C1007 1.387 . S
H1005 C1001 0.950 . S
H1006 C1003 0.950 . S
C1007 C998 1.390 . S
C1007 H1000 0.950 . S
C1007 C1004 1.387 . S
C1008 C1009 1.387 . S
C1008 H1012 0.950 . S
C1008 C1017 1.390 . S
C1009 C1008 1.387 . S
C1009 C1011 1.387 . S
H1010 C1017 0.950 . S
C1011 C1009 1.387 . S
C1011 C1013 1.390 . S
C1011 H1015 0.950 . S
H1012 C1008 0.950 . S
C1013 C1011 1.390 . S
C1013 C1014 1.387 . S
C1013 H1016 0.950 . S
C1014 C1013 1.387 . S
C1014 C1017 1.387 . S
H1015 C1011 0.950 . S
H1016 C1013 0.950 . S
C1017 C1008 1.390 . S
C1017 H1010 0.950 . S
C1017 C1014 1.387 . S
C1018 C1019 1.387 . S
C1018 H1022 0.950 . S
C1018 C1027 1.390 . S
C1019 C1018 1.387 . S
C1019 C1021 1.387 . S
H1020 C1027 0.950 . S
C1021 C1019 1.387 . S
C1021 C1023 1.390 . S
C1021 H1025 0.950 . S
H1022 C1018 0.950 . S
C1023 C1021 1.390 . S
C1023 C1024 1.387 . S
C1023 H1026 0.950 . S
C1024 C1023 1.387 . S
C1024 C1027 1.387 . S
H1025 C1021 0.950 . S
H1026 C1023 0.950 . S
C1027 C1018 1.390 . S
C1027 H1020 0.950 . S
C1027 C1024 1.387 . S
C1028 C1029 1.387 . S
C1028 H1032 0.950 . S
C1028 C1037 1.390 . S
C1029 C1028 1.387 . S
C1029 C1031 1.387 . S
H1030 C1037 0.950 . S
C1031 C1029 1.387 . S
C1031 C1033 1.390 . S
C1031 H1035 0.950 . S
H1032 C1028 0.950 . S
C1033 C1031 1.390 . S
C1033 C1034 1.387 . S
C1033 H1036 0.950 . S
C1034 C1033 1.387 . S
C1034 C1037 1.387 . S
H1035 C1031 0.950 . S
H1036 C1033 0.950 . S
C1037 C1028 1.390 . S
C1037 H1030 0.950 . S
C1037 C1034 1.387 . S
C1038 C1039 1.387 . S
C1038 H1042 0.950 . S
C1038 C1047 1.390 . S
C1039 C1038 1.387 . S
C1039 C1041 1.387 . S
H1040 C1047 0.950 . S
C1041 C1039 1.387 . S
C1041 C1043 1.390 . S
C1041 H1045 0.950 . S
H1042 C1038 0.950 . S
C1043 C1041 1.390 . S
C1043 C1044 1.387 . S
C1043 H1046 0.950 . S
C1044 C1043 1.387 . S
C1044 C1047 1.387 . S
H1045 C1041 0.950 . S
H1046 C1043 0.950 . S
C1047 C1038 1.390 . S
C1047 H1040 0.950 . S
C1047 C1044 1.387 . S
C1048 C1049 1.387 . S
C1048 H1052 0.950 . S
C1048 C1057 1.390 . S
C1049 C1048 1.387 . S
C1049 C1051 1.387 . S
H1050 C1057 0.950 . S
C1051 C1049 1.387 . S
C1051 C1053 1.390 . S
C1051 H1055 0.950 . S
H1052 C1048 0.950 . S
C1053 C1051 1.390 . S
C1053 C1054 1.387 . S
C1053 H1056 0.950 . S
C1054 C1053 1.387 . S
C1054 C1057 1.387 . S
H1055 C1051 0.950 . S
H1056 C1053 0.950 . S
C1057 C1048 1.390 . S
C1057 H1050 0.950 . S
C1057 C1054 1.387 . S
C1058 C1059 1.387 . S
C1058 H1062 0.950 . S
C1058 C1067 1.390 . S
C1059 C1058 1.387 . S
C1059 C1061 1.387 . S
H1060 C1067 0.950 . S
C1061 C1059 1.387 . S
C1061 C1063 1.390 . S
C1061 H1065 0.950 . S
H1062 C1058 0.950 . S
C1063 C1061 1.390 . S
C1063 C1064 1.387 . S
C1063 H1066 0.950 . S
C1064 C1063 1.387 . S
C1064 C1067 1.387 . S
H1065 C1061 0.950 . S
H1066 C1063 0.950 . S
C1067 C1058 1.390 . S
C1067 H1060 0.950 . S
C1067 C1064 1.387 . S
C1068 C1069 1.387 . S
C1068 H1072 0.950 . S
C1068 C1077 1.390 . S
C1069 C1068 1.387 . S
C1069 C1071 1.387 . S
H1070 C1077 0.950 . S
C1071 C1069 1.387 . S
C1071 C1073 1.390 . S
C1071 H1075 0.950 . S
H1072 C1068 0.950 . S
C1073 C1071 1.390 . S
C1073 C1074 1.387 . S
C1073 H1076 0.950 . S
C1074 C1073 1.387 . S
C1074 C1077 1.387 . S
H1075 C1071 0.950 . S
H1076 C1073 0.950 . S
C1077 C1068 1.390 . S
C1077 H1070 0.950 . S
C1077 C1074 1.387 . S
C1078 C1079 1.387 . S
C1078 H1082 0.950 . S
C1078 C1087 1.390 . S
C1079 C1078 1.387 . S
C1079 C1081 1.387 . S
H1080 C1087 0.950 . S
C1081 C1079 1.387 . S
C1081 C1083 1.390 . S
C1081 H1085 0.950 . S
H1082 C1078 0.950 . S
C1083 C1081 1.390 . S
C1083 C1084 1.387 . S
C1083 H1086 0.950 . S
C1084 C1083 1.387 . S
C1084 C1087 1.387 . S
H1085 C1081 0.950 . S
H1086 C1083 0.950 . S
C1087 C1078 1.390 . S
C1087 H1080 0.950 . S
C1087 C1084 1.387 . S
C449 C12 1.493 . S
C454 C26 1.493 . S
C459 C54 1.493 . S
C464 C40 1.493 . S
C469 C68 1.493 . S
C474 C82 1.493 . S
C479 C96 1.493 . S
C484 C110 1.493 . S
C489 C124 1.493 . S
C494 C138 1.493 . S
C499 C152 1.493 . S
C504 C166 1.493 . S
C509 C180 1.493 . S
C514 C194 1.493 . S
C519 C208 1.493 . S
C524 C222 1.493 . S
C529 C250 1.493 . S
C534 C236 1.493 . S
C539 C278 1.493 . S
C544 C264 1.493 . S
C549 C306 1.493 . S
C554 C292 1.493 . S
C559 C334 1.493 . S
C564 C320 1.493 . S
C569 C362 1.493 . S
C574 C348 1.493 . S
C579 C390 1.493 . S
C584 C376 1.493 . S
C589 C418 1.493 . S
C594 C404 1.493 . S
C599 C446 1.493 . S
C604 C432 1.493 . S
C609 C5 1.259 . S
C614 C173 1.259 . S
C619 C19 1.255 . S
C624 C299 1.255 . S
C629 C33 1.259 . S
C634 C89 1.259 . S
C639 C47 1.257 . S
C644 C439 1.257 . S
C649 C61 1.256 . S
C654 C117 1.256 . S
C659 C243 1.258 . S
C664 C75 1.258 . S
C669 C383 1.259 . S
C674 C103 1.259 . S
C679 C131 1.256 . S
C684 C411 1.256 . S
C689 C145 1.254 . S
C694 C201 1.254 . S
C699 C159 1.256 . S
C704 C327 1.256 . S
C709 C187 1.258 . S
C714 C355 1.258 . S
C719 C215 1.259 . S
C724 C271 1.259 . S
C729 C397 1.259 . S
C734 C229 1.259 . S
C739 C313 1.254 . S
C744 C257 1.254 . S
C749 C285 1.257 . S
C754 C341 1.257 . S
C759 C425 1.255 . S
C764 C369 1.255 . S
C769 C144 1.342 . S
C774 C4 1.342 . S
C779 C158 1.342 . S
C784 C18 1.342 1_565 S
C789 C32 1.340 1_565 S
C794 C116 1.340 . S
C799 C130 1.342 . S
C804 C46 1.342 . S
C809 C60 1.340 . S
C814 C200 1.340 . S
C819 C74 1.342 1_545 S
C824 C214 1.342 . S
C829 C172 1.340 . S
C834 C88 1.340 1_545 S
C839 C186 1.342 . S
C844 C102 1.342 . S
C849 C228 1.342 . S
C854 C368 1.342 . S
C859 C382 1.342 . S
C864 C242 1.342 1_565 S
C869 C340 1.342 . S
C874 C256 1.342 1_565 S
C879 C270 1.342 . S
C884 C354 1.342 . S
C889 C424 1.342 . S
C894 C284 1.342 . S
C899 C298 1.340 1_545 S
C904 C438 1.340 . S
C909 C396 1.342 . S
C914 C312 1.342 1_545 S
C919 C410 1.340 . S
C924 C326 1.340 . S
C929 C151 1.292 . S
C934 C11 1.292 1_565 S
C939 C165 1.292 . S
C944 C25 1.292 . S
C949 C123 1.289 . S
C954 C39 1.289 . S
C959 C53 1.289 1_565 S
C964 C137 1.289 . S
C969 C207 1.292 . S
C974 C67 1.292 1_545 S
C979 C221 1.289 . S
C984 C81 1.289 . S
C989 C179 1.292 . S
C994 C95 1.292 . S
C999 C193 1.289 . S
C1004 C109 1.289 1_545 S
C1009 C375 1.292 . S
C1014 C235 1.292 1_565 S
C1019 C389 1.292 . S
C1024 C249 1.292 . S
C1029 C347 1.292 . S
C1034 C263 1.292 . S
C1039 C277 1.292 1_565 S
C1044 C361 1.292 . S
C1049 C431 1.292 . S
C1054 C291 1.292 1_545 S
C1059 C305 1.292 . S
C1064 C445 1.292 . S
C1069 C403 1.289 . S
C1074 C319 1.289 . S
C1079 C333 1.289 1_545 S
C1084 C417 1.289 . S
