# Generated by pormake.
# Topology wjf, (4)-cn, num edge types: 1
# Building blocks:
#     Node 0, Type 0, BuildingBlock: QUQFOY_clean_sbu_3, # of connection points: 4
#     Node 1, Type 0, BuildingBlock: QUQFOY_clean_sbu_3, # of connection points: 4
#     Node 2, Type 0, BuildingBlock: QUQFOY_clean_sbu_3, # of connection points: 4
#     Node 3, Type 0, BuildingBlock: QUQFOY_clean_sbu_3, # of connection points: 4
#     Node 4, Type 0, BuildingBlock: QUQFOY_clean_sbu_3, # of connection points: 4
#     Node 5, Type 0, BuildingBlock: QUQFOY_clean_sbu_3, # of connection points: 4
#     Node 6, Type 0, BuildingBlock: QUQFOY_clean_sbu_3, # of connection points: 4
#     Node 7, Type 0, BuildingBlock: QUQFOY_clean_sbu_3, # of connection points: 4
#     Node 8, Type 0, BuildingBlock: QUQFOY_clean_sbu_3, # of connection points: 4
#     Node 9, Type 0, BuildingBlock: QUQFOY_clean_sbu_3, # of connection points: 4
#     Node 10, Type 0, BuildingBlock: QUQFOY_clean_sbu_3, # of connection points: 4
#     Node 11, Type 0, BuildingBlock: QUQFOY_clean_sbu_3, # of connection points: 4
#     Edge 12, Type (0, 0), BuildingBlock: TEMPAE_clean_linker_10, # of connection points: 2
#     Edge 13, Type (0, 0), BuildingBlock: TEMPAE_clean_linker_10, # of connection points: 2
#     Edge 14, Type (0, 0), BuildingBlock: TEMPAE_clean_linker_10, # of connection points: 2
#     Edge 15, Type (0, 0), BuildingBlock: TEMPAE_clean_linker_10, # of connection points: 2
#     Edge 16, Type (0, 0), BuildingBlock: TEMPAE_clean_linker_10, # of connection points: 2
#     Edge 17, Type (0, 0), BuildingBlock: TEMPAE_clean_linker_10, # of connection points: 2
#     Edge 18, Type (0, 0), BuildingBlock: TEMPAE_clean_linker_10, # of connection points: 2
#     Edge 19, Type (0, 0), BuildingBlock: TEMPAE_clean_linker_10, # of connection points: 2
#     Edge 20, Type (0, 0), BuildingBlock: TEMPAE_clean_linker_10, # of connection points: 2
#     Edge 21, Type (0, 0), BuildingBlock: TEMPAE_clean_linker_10, # of connection points: 2
#     Edge 22, Type (0, 0), BuildingBlock: TEMPAE_clean_linker_10, # of connection points: 2
#     Edge 23, Type (0, 0), BuildingBlock: TEMPAE_clean_linker_10, # of connection points: 2
#     Edge 24, Type (0, 0), BuildingBlock: TEMPAE_clean_linker_10, # of connection points: 2
#     Edge 25, Type (0, 0), BuildingBlock: TEMPAE_clean_linker_10, # of connection points: 2
#     Edge 26, Type (0, 0), BuildingBlock: TEMPAE_clean_linker_10, # of connection points: 2
#     Edge 27, Type (0, 0), BuildingBlock: TEMPAE_clean_linker_10, # of connection points: 2
#     Edge 28, Type (0, 0), BuildingBlock: TEMPAE_clean_linker_10, # of connection points: 2
#     Edge 29, Type (0, 0), BuildingBlock: TEMPAE_clean_linker_10, # of connection points: 2
#     Edge 30, Type (0, 0), BuildingBlock: TEMPAE_clean_linker_10, # of connection points: 2
#     Edge 31, Type (0, 0), BuildingBlock: TEMPAE_clean_linker_10, # of connection points: 2
#     Edge 32, Type (0, 0), BuildingBlock: TEMPAE_clean_linker_10, # of connection points: 2
#     Edge 33, Type (0, 0), BuildingBlock: TEMPAE_clean_linker_10, # of connection points: 2
#     Edge 34, Type (0, 0), BuildingBlock: TEMPAE_clean_linker_10, # of connection points: 2
#     Edge 35, Type (0, 0), BuildingBlock: TEMPAE_clean_linker_10, # of connection points: 2
# Relax obj value: 0.105
# Max RMSD: 0.136
# Mean RMSD: 0.136
data_MOF--net-wjf--node1-QUQFOY_clean_sbu_3--edge1-TEMPAE_clean_linker_10
_symmetry_space_group_name_H-M    P1
_symmetry_Int_Tables_number       1
_symmetry_cell_setting            triclinic
loop_
_symmetry_equiv_pos_as_xyz
'x, y, z'
_cell_length_a     52.931761
_cell_length_b     52.839476
_cell_length_c     29.119807
_cell_angle_alpha  89.983452
_cell_angle_beta   90.190571
_cell_angle_gamma 120.04929
loop_
_atom_site_label
_atom_site_type_symbol
_atom_site_fract_x
_atom_site_fract_y
_atom_site_fract_z
_atom_type_partial_charge
C0 C 0.32042 0.32834 0.13125 0.0
O1 O 0.33301 0.31963 0.10365 0.0
Cd2 Cd 0.34095 0.33008 0.02321 0.0
O3 O 0.31156 0.34559 0.11814 0.0
Cd4 Cd 0.31572 0.37165 0.04553 0.0
C5 C 0.38935 0.40211 0.03708 0.0
O6 O 0.29894 0.33001 -0.0073 0.0
O7 O 0.31778 0.3729 0.96279 0.0
O8 O 0.27108 0.37339 0.05845 0.0
C9 C 0.30426 0.34549 0.95692 0.0
O10 O 0.38482 0.37806 0.01979 0.0
C11 C 0.28243 0.40029 0.04809 0.0
O12 O 0.36833 0.40461 0.05305 0.0
O13 O 0.30974 0.41423 0.04107 0.0
C14 C 0.98369 0.32073 0.4735 0.0
O15 O 0.00631 0.33172 0.44849 0.0
Cd16 Cd 0.00788 0.3479 0.37125 0.0
O17 O 0.95912 0.31535 0.45721 0.0
Cd18 Cd 0.93911 0.31798 0.38178 0.0
C19 C 0.97682 0.39143 0.3857 0.0
O20 O 0.96973 0.30895 0.32961 0.0
O21 O 0.94639 0.32915 0.30105 0.0
O22 O 0.90184 0.2674 0.37935 0.0
C23 C 0.96182 0.31733 0.29434 0.0
O24 O -0.00126 0.38885 0.37496 0.0
C25 C 0.88049 0.27172 0.37423 0.0
O26 O 0.95204 0.36898 0.39383 0.0
O27 O 0.88584 0.29797 0.37708 0.0
C28 C 0.65698 0.9843 0.78538 0.0
O29 O 0.66403 0.0039 0.75492 0.0
Cd30 Cd 0.64562 -0.00428 0.67779 0.0
O31 O 0.6379 0.95775 0.77716 0.0
Cd32 Cd 0.6059 0.9307 0.71171 0.0
C33 C 0.57467 0.97294 0.70413 0.0
O34 O 0.6426 0.95161 0.65083 0.0
O35 O 0.59755 0.92604 0.63007 0.0
O36 O 0.60812 0.88689 0.72971 0.0
C37 C 0.62418 0.9391 0.61881 0.0
O38 O 0.59763 0.99133 0.683 0.0
C39 C 0.58111 0.86946 0.72257 0.0
O40 O 0.57291 0.95013 0.72213 0.0
O41 O 0.56525 0.88086 0.71582 0.0
C42 C 0.65995 0.65248 0.13881 0.0
O43 O 0.64583 0.66037 0.11286 0.0
Cd44 Cd 0.63774 0.6509 0.03224 0.0
O45 O 0.66984 0.63649 0.12385 0.0
Cd46 Cd 0.66576 0.61192 0.04978 0.0
C47 C 0.59208 0.57793 0.04129 0.0
O48 O 0.6811 0.65477 0.00027 0.0
O49 O 0.66336 0.61285 0.96711 0.0
O50 O 0.71207 0.61352 0.0628 0.0
C51 C 0.67642 0.64039 0.96337 0.0
O52 O 0.59553 0.60201 0.02591 0.0
C53 C 0.70293 0.58752 0.0491 0.0
O54 O 0.61369 0.57623 0.05684 0.0
O55 O 0.6759 0.57217 0.04004 0.0
C56 C 0.00125 0.66568 0.48052 0.0
O57 O 0.97926 0.65231 0.45422 0.0
Cd58 Cd 0.98069 0.64254 0.37438 0.0
O59 O 0.02698 0.6741 0.46623 0.0
Cd60 Cd 0.04778 0.6689 0.39343 0.0
C61 C 0.0057 0.59506 0.38858 0.0
O62 O 0.02151 0.6845 0.34177 0.0
O63 O 0.04465 0.66506 0.31081 0.0
O64 O 0.09213 0.71545 0.40716 0.0
C65 C 0.03088 0.67872 0.3056 0.0
O66 O 0.98577 0.59926 0.37223 0.0
C67 C 0.10937 0.70677 0.39391 0.0
O68 O 0.0296 0.61639 0.40338 0.0
O69 O 0.09806 0.67974 0.38479 0.0
C70 C 0.33357 0.01254 0.80351 0.0
O71 O 0.32086 0.99148 0.77533 0.0
Cd72 Cd 0.33522 0.99271 0.69732 0.0
O73 O 0.35486 0.03708 0.79082 0.0
Cd74 Cd 0.38082 0.0587 0.71792 0.0
C75 C 0.40706 0.01236 0.71364 0.0
O76 O 0.3389 0.03601 0.66554 0.0
O77 O 0.38158 0.05601 0.63497 0.0
O78 O 0.38221 0.10464 0.73326 0.0
C79 C 0.35427 0.04453 0.62952 0.0
O80 O 0.3819 0.99337 0.6989 0.0
C81 C 0.40841 0.12068 0.72012 0.0
O82 O 0.41214 0.03752 0.72648 0.0
O83 O 0.42262 0.10787 0.71065 0.0
C84 C 0.65411 0.67092 0.47857 0.0
O85 O 0.6637 0.65859 0.50518 0.0
Cd86 Cd 0.65403 0.64963 0.58551 0.0
O87 O 0.63651 0.67897 0.49293 0.0
Cd88 Cd 0.6115 0.67345 0.56683 0.0
C89 C 0.58231 0.60002 0.57253 0.0
O90 O 0.65378 0.69087 0.6186 0.0
O91 O 0.61105 0.66938 0.64912 0.0
O92 O 0.60966 0.71822 0.55582 0.0
C93 C 0.63842 0.68433 0.65462 0.0
O94 O 0.60669 0.60507 0.58913 0.0
C95 C 0.58339 0.70719 0.56916 0.0
O96 O 0.57901 0.62079 0.55738 0.0
O97 O 0.56948 0.67986 0.57649 0.0
C98 C 0.979 0.65681 0.82007 0.0
O99 O 0.00091 0.6655 0.84654 0.0
Cd100 Cd -0.00049 0.65484 0.92668 0.0
O101 O 0.9532 0.63959 0.83424 0.0
Cd102 Cd 0.93247 0.61374 0.90715 0.0
C103 C 0.97472 0.58239 0.91255 0.0
O104 O 0.95854 0.65562 0.95912 0.0
O105 O 0.93521 0.61284 -0.01031 0.0
O106 O 0.88753 0.61468 0.89368 0.0
C107 C 0.94906 0.64029 -0.00484 0.0
O108 O -0.00543 0.60654 0.92917 0.0
C109 C 0.87083 0.58846 0.90648 0.0
O110 O 0.95091 0.57979 0.89745 0.0
O111 O 0.88276 0.5733 0.9152 0.0
C112 C 0.30295 0.97565 0.13956 0.0
O113 O 0.3101 -0.00153 0.16314 0.0
Cd114 Cd 0.32905 0.00514 0.23934 0.0
O115 O 0.30224 0.95334 0.1577 0.0
Cd116 Cd 0.30836 0.93774 0.23532 0.0
C117 C 0.38051 0.98411 0.22447 0.0
O118 O 0.2938 0.96581 0.28519 0.0
O119 O 0.31822 0.94732 0.31558 0.0
O120 O 0.26218 0.892 0.23038 0.0
C121 C 0.30373 0.96021 0.32111 0.0
O122 O 0.37491 0.00465 0.23076 0.0
C123 C 0.27236 0.87613 0.24451 0.0
O124 O 0.36024 0.95747 0.22325 0.0
O125 O 0.29979 0.88863 0.25054 0.0
C126 C 0.34044 0.32289 0.47102 0.0
O127 O 0.33129 0.33632 0.49591 0.0
Cd128 Cd 0.33978 0.34567 0.57648 0.0
O129 O 0.35719 0.31423 0.48727 0.0
Cd130 Cd 0.38123 0.32014 0.56267 0.0
C131 C 0.41217 0.39377 0.568 0.0
O132 O 0.33809 0.30398 0.61163 0.0
O133 O 0.38009 0.32449 0.64496 0.0
O134 O 0.38144 0.27442 0.55315 0.0
C135 C 0.35259 0.31032 0.6487 0.0
O136 O 0.38761 0.38931 0.58245 0.0
C137 C 0.40748 0.2846 0.56736 0.0
O138 O 0.4152 0.37264 0.55382 0.0
O139 O 0.42207 0.31188 0.57509 0.0
C140 C 0.02159 0.34588 0.81008 0.0
O141 O 0.00018 0.3319 0.837 0.0
Cd142 Cd -0.00086 0.34533 0.91513 0.0
O143 O 0.04536 0.36762 0.82435 0.0
Cd144 Cd 0.06565 0.39264 0.89833 0.0
C145 C 0.01841 0.41757 0.90038 0.0
O146 O 0.0421 0.35066 0.95026 0.0
O147 O 0.0615 0.39361 -0.01944 0.0
O148 O 0.11074 0.39263 0.88404 0.0
C149 C 0.04967 0.36627 -0.01376 0.0
O150 O -0.00041 0.39194 0.91352 0.0
C151 C 0.1273 0.41842 0.89886 0.0
O152 O 0.04403 0.42359 0.88886 0.0
O153 O 0.11528 0.43334 0.90874 0.0
C154 C 0.65422 0.00635 0.12017 0.0
O155 O 0.63608 0.98217 0.13829 0.0
Cd156 Cd 0.61697 0.9752 0.21357 0.0
O157 O 0.66408 0.03032 0.1422 0.0
Cd158 Cd 0.65513 0.04368 0.21999 0.0
C159 C 0.58256 0.01522 0.20469 0.0
O160 O 0.65573 0.00507 0.26523 0.0
O161 O 0.63737 0.02921 0.29701 0.0
O162 O 0.7045 0.07731 0.24398 0.0
C163 C 0.64681 0.01151 0.30133 0.0
O164 O 0.58073 0.99035 0.20784 0.0
C165 C 0.70203 0.09994 0.24446 0.0
O166 O 0.60712 0.03879 0.2065 0.0
O167 O 0.6781 0.09721 0.23014 0.0
C168 C 0.2952 0.31571 0.20705 0.0
C169 C 0.31932 0.32121 0.18024 0.0
C170 C 0.29543 0.31164 0.25465 0.0
C171 C 0.3209 0.31455 0.27579 0.0
C172 C 0.34503 0.31944 0.24854 0.0
C173 C 0.34368 0.32213 0.2009 0.0
C174 C 0.26888 0.30527 0.28246 0.0
C175 C 0.37299 0.32379 0.26987 0.0
C176 C 0.33779 0.34427 0.39698 0.0
C177 C 0.33373 0.31984 0.42175 0.0
C178 C 0.33349 0.34273 0.34941 0.0
C179 C 0.32371 0.31574 0.32652 0.0
C180 C 0.31838 0.29064 0.3518 0.0
C181 C 0.32415 0.29316 0.3992 0.0
C182 C 0.34049 0.37026 0.32349 0.0
C183 C 0.30683 0.26128 0.32876 0.0
H184 H 0.27629 0.3148 0.19083 0.0
H185 H 0.36244 0.32669 0.18006 0.0
H186 H 0.26357 0.28729 0.30714 0.0
H187 H 0.27341 0.32489 0.30269 0.0
H188 H 0.24951 0.29913 0.26034 0.0
H189 H 0.38924 0.32614 0.24366 0.0
H190 H 0.38283 0.34375 0.29159 0.0
H191 H 0.36852 0.30513 0.29248 0.0
H192 H 0.34546 0.36493 0.41467 0.0
H193 H 0.32084 0.27428 0.41873 0.0
H194 H 0.32086 0.36728 0.30495 0.0
H195 H 0.35752 0.37495 0.29739 0.0
H196 H 0.3484 0.38956 0.34648 0.0
H197 H 0.28721 0.25606 0.30792 0.0
H198 H 0.30103 0.24343 0.35397 0.0
H199 H 0.32346 0.26191 0.30501 0.0
C200 C 0.00923 0.31299 0.53949 0.0
C201 C 0.9867 0.31721 0.52304 0.0
C202 C 0.0147 0.31358 0.58675 0.0
C203 C -0.00218 0.31948 0.61788 0.0
C204 C 0.97429 0.32258 0.6015 0.0
C205 C 0.96875 0.32098 0.55422 0.0
C206 C 0.03932 0.3092 0.60315 0.0
C207 C 0.95616 0.32948 0.63357 0.0
C208 C -0.00179 0.30959 0.74669 0.0
C209 C 0.01798 0.33819 0.76096 0.0
C210 C -0.00743 0.30273 0.69989 0.0
C211 C 0.00634 0.32524 0.66695 0.0
C212 C 0.0269 0.35399 0.6812 0.0
C213 C 0.03279 0.36001 0.72808 0.0
C214 C 0.97125 0.27166 0.68579 0.0
C215 C 0.04158 0.37872 0.64713 0.0
H216 H 0.02295 0.3098 0.51535 0.0
H217 H 0.95144 0.32443 0.54152 0.0
H218 H 0.05772 0.33032 0.61538 0.0
H219 H 0.03213 0.29377 0.63252 0.0
H220 H 0.04748 0.30068 0.57551 0.0
H221 H 0.93774 0.32973 0.6156 0.0
H222 H 0.94722 0.31322 0.66173 0.0
H223 H 0.97015 0.35124 0.64956 0.0
H224 H 0.98695 0.29264 0.77216 0.0
H225 H 0.04793 0.38218 0.73912 0.0
H226 H 0.98063 0.26456 0.65799 0.0
H227 H 0.95105 0.27033 0.67208 0.0
H228 H 0.96526 0.25618 0.71499 0.0
H229 H 0.05308 0.37327 0.6206 0.0
H230 H 0.05757 0.39964 0.66379 0.0
H231 H 0.02487 0.38197 0.62925 0.0
C232 C 0.67099 0.97344 0.86148 0.0
C233 C 0.66794 0.99292 0.83258 0.0
C234 C 0.67588 0.97907 0.90868 0.0
C235 C 0.67644 0.0041 0.92731 0.0
C236 C 0.67562 0.02492 0.89769 0.0
C237 C 0.67182 0.01926 0.85043 0.0
C238 C 0.67783 0.95694 0.939 0.0
C239 C 0.67537 0.0515 0.91617 0.0
C240 C 0.63767 0.99057 0.04087 0.0
C241 C 0.6608 0.00658 0.07127 0.0
C242 C 0.64261 0.99013 -0.0061 0.0
C243 C 0.67158 0.00525 -0.02283 0.0
C244 C 0.69517 0.02122 0.00786 0.0
C245 C 0.68942 0.02216 0.05476 0.0
C246 C 0.61671 0.97357 0.96222 0.0
C247 C 0.72634 0.03668 -0.00867 0.0
H248 H 0.66841 0.95325 0.84749 0.0
H249 H 0.66941 0.03432 0.82803 0.0
H250 H 0.69446 0.96798 0.96636 0.0
H251 H 0.6565 0.94305 0.95595 0.0
H252 H 0.68338 0.94249 0.919 0.0
H253 H 0.67946 0.06775 0.88879 0.0
H254 H 0.6537 0.04459 0.9315 0.0
H255 H 0.69196 0.06226 0.9436 0.0
H256 H 0.61552 0.97878 0.05386 0.0
H257 H 0.70723 0.03436 0.07864 0.0
H258 H 0.61773 0.95516 0.94584 0.0
H259 H 0.61714 0.98813 0.93439 0.0
H260 H 0.59557 0.96457 -0.01944 0.0
H261 H 0.73155 0.02047 -0.02343 0.0
H262 H 0.74213 0.04872 0.0194 0.0
H263 H 0.72934 0.05232 0.96359 0.0
C264 C 0.63779 0.65486 0.21203 0.0
C265 C 0.66261 0.65982 0.18777 0.0
C266 C 0.63901 0.65927 0.25955 0.0
C267 C 0.66602 0.67007 0.28281 0.0
C268 C 0.6915 0.67654 0.25793 0.0
C269 C 0.68934 0.67064 0.21065 0.0
C270 C 0.61113 0.65106 0.28507 0.0
C271 C 0.72085 0.68919 0.28136 0.0
C272 C 0.66493 0.69671 0.40319 0.0
C273 C 0.66068 0.67266 0.42933 0.0
C274 C 0.66874 0.69708 0.35546 0.0
C275 C 0.66685 0.67225 0.33358 0.0
C276 C 0.66309 0.64816 0.36013 0.0
C277 C 0.66063 0.64894 0.40785 0.0
C278 C 0.67391 0.7236 0.32837 0.0
C279 C 0.65989 0.62084 0.33798 0.0
H280 H 0.6171 0.64625 0.19408 0.0
H281 H 0.70853 0.67465 0.19149 0.0
H282 H 0.60678 0.63371 0.31054 0.0
H283 H 0.61333 0.67016 0.30432 0.0
H284 H 0.59198 0.64298 0.26172 0.0
H285 H 0.73895 0.69634 0.25633 0.0
H286 H 0.72491 0.70817 0.303 0.0
H287 H 0.72112 0.67261 0.30437 0.0
H288 H 0.66515 0.71511 0.42004 0.0
H289 H 0.65703 0.63023 0.42818 0.0
H290 H 0.65414 0.71838 0.30799 0.0
H291 H 0.69213 0.73003 0.30384 0.0
H292 H 0.67907 0.74253 0.35098 0.0
H293 H 0.64024 0.61081 0.31557 0.0
H294 H 0.65776 0.60435 0.36369 0.0
H295 H 0.67897 0.62629 0.31592 0.0
C296 C 0.96641 0.67238 0.74681 0.0
C297 C 0.98384 0.66393 0.77107 0.0
C298 C 0.96973 0.67701 0.69921 0.0
C299 C 0.98987 0.67158 0.67553 0.0
C300 C 0.00776 0.66342 0.70023 0.0
C301 C 0.00493 0.6603 0.74795 0.0
C302 C 0.95121 0.68695 0.67418 0.0
C303 C 0.02872 0.65636 0.67609 0.0
C304 C 0.9741 0.64509 0.55265 0.0
C305 C -0.00341 0.66878 0.52935 0.0
C306 C 0.9712 0.64603 0.60026 0.0
C307 C 0.99057 0.67176 0.62467 0.0
C308 C 0.0122 0.69644 0.60077 0.0
C309 C 0.01542 0.69441 0.55333 0.0
C310 C 0.94853 0.61888 0.62468 0.0
C311 C 0.03241 0.72462 0.62545 0.0
H312 H 0.95024 0.67532 0.76505 0.0
H313 H 0.01814 0.65346 0.76694 0.0
H314 H 0.96486 0.70515 0.65043 0.0
H315 H 0.93447 0.66873 0.65315 0.0
H316 H 0.93991 0.6943 0.69823 0.0
H317 H 0.04123 0.65062 0.70051 0.0
H318 H 0.01645 0.63768 0.65229 0.0
H319 H 0.0444 0.67523 0.65518 0.0
H320 H 0.95974 0.62521 0.53394 0.0
H321 H 0.03266 0.71278 0.53498 0.0
H322 H 0.93407 0.62388 0.64548 0.0
H323 H 0.9595 0.61104 0.64862 0.0
H324 H 0.93481 0.6009 0.60044 0.0
H325 H 0.01984 0.73073 0.64891 0.0
H326 H 0.0449 0.74291 0.60116 0.0
H327 H 0.04817 0.7217 0.64674 0.0
C328 C 0.30634 0.96006 0.06029 0.0
C329 C 0.29926 0.97665 0.0895 0.0
C330 C 0.30858 0.96488 0.01279 0.0
C331 C 0.3029 0.98629 -0.00588 0.0
C332 C 0.29352 0.00146 0.02307 0.0
C333 C 0.29218 -0.00328 0.0706 0.0
C334 C 0.31904 0.94855 -0.01692 0.0
C335 C 0.28644 0.02381 0.00419 0.0
C336 C 0.34492 0.02396 0.88655 0.0
C337 C 0.32468 0.00776 0.85212 0.0
C338 C 0.33785 0.0175 0.93301 0.0
C339 C 0.30963 0.99478 0.94522 0.0
C340 C 0.28864 0.9793 0.91066 0.0
C341 C 0.29655 0.98573 0.86439 0.0
C342 C 0.361 0.03419 0.96894 0.0
C343 C 0.25811 0.9555 0.9225 0.0
H344 H 0.31198 0.94463 0.0748 0.0
H345 H 0.28644 0.00939 0.09312 0.0
H346 H 0.30422 0.93842 0.9533 0.0
H347 H 0.34098 0.96411 0.96929 0.0
H348 H 0.32049 0.93117 0.00236 0.0
H349 H 0.27546 0.03046 0.03001 0.0
H350 H 0.30685 0.04357 -0.0067 0.0
H351 H 0.27215 0.01506 -0.02653 0.0
H352 H 0.36673 0.04089 0.87715 0.0
H353 H 0.28076 0.97333 0.83777 0.0
H354 H 0.3657 0.01891 -0.01169 0.0
H355 H 0.35308 0.04443 -0.00602 0.0
H356 H 0.38168 0.05157 0.95372 0.0
H357 H 0.25884 0.93667 0.93791 0.0
H358 H 0.24359 0.94765 0.89189 0.0
H359 H 0.24842 0.96351 0.94841 0.0
C360 C 0.17 0.44755 0.95012 0.0
C361 C 0.15743 0.42774 0.91356 0.0
C362 C 0.19405 0.44984 -0.02572 0.0
C363 C 0.20594 0.43223 0.96095 0.0
C364 C 0.19533 0.41468 0.92093 0.0
C365 C 0.17102 0.41248 0.89789 0.0
C366 C 0.20481 0.46893 0.01655 0.0
C367 C 0.20798 0.39621 0.90473 0.0
C368 C 0.27544 0.43802 0.00785 0.0
C369 C 0.26405 0.41306 0.03583 0.0
C370 C 0.25692 0.44595 -0.01457 0.0
C371 C 0.22642 0.42871 -0.00827 0.0
C372 C 0.21512 0.40531 0.02359 0.0
C373 C 0.23409 0.39764 0.04505 0.0
C374 C 0.26985 0.47112 0.95198 0.0
C375 C 0.18274 0.38686 0.03224 0.0
H376 H 0.15955 0.4594 0.96247 0.0
H377 H 0.16152 0.39735 0.86939 0.0
H378 H 0.19589 0.45504 0.04754 0.0
H379 H 0.22896 0.48034 0.01908 0.0
H380 H 0.19771 0.48547 0.01685 0.0
H381 H 0.19992 0.38688 0.87001 0.0
H382 H 0.23216 0.40931 0.90391 0.0
H383 H 0.20187 0.37789 0.9291 0.0
H384 H 0.29863 0.45011 0.0006 0.0
H385 H 0.22521 0.37852 0.06698 0.0
H386 H 0.2589 0.48429 0.95452 0.0
H387 H 0.26653 0.46239 0.91646 0.0
H388 H 0.29364 0.48567 0.95774 0.0
H389 H 0.17311 0.40096 0.03866 0.0
H390 H 0.17786 0.37197 0.06199 0.0
H391 H 0.17185 0.37342 0.00136 0.0
C392 C 0.85178 0.22703 0.32801 0.0
C393 C 0.85208 0.24782 0.35817 0.0
C394 C 0.82566 0.20494 0.30918 0.0
C395 C 0.79896 0.20288 0.32219 0.0
C396 C 0.79903 0.22369 0.35299 0.0
C397 C 0.82578 0.2464 0.36997 0.0
C398 C 0.8267 0.18373 0.27547 0.0
C399 C 0.7709 0.22153 0.3688 0.0
C400 C 0.73473 0.15428 0.2448 0.0
C401 C 0.72487 0.12709 0.26564 0.0
C402 C 0.75823 0.17967 0.26384 0.0
C403 C 0.77119 0.17768 0.3054 0.0
C404 C 0.75982 0.15044 0.32798 0.0
C405 C 0.73718 0.12538 0.30732 0.0
C406 C 0.77032 0.20816 0.23807 0.0
C407 C 0.77238 0.14747 0.37297 0.0
H408 H 0.87221 0.22849 0.31808 0.0
H409 H 0.8261 0.26262 0.39312 0.0
H410 H 0.81615 0.16151 0.29064 0.0
H411 H 0.81442 0.18249 0.24378 0.0
H412 H 0.84939 0.19001 0.26583 0.0
H413 H 0.77472 0.23995 0.39168 0.0
H414 H 0.75776 0.2212 0.33883 0.0
H415 H 0.7577 0.2007 0.3876 0.0
H416 H 0.72503 0.15545 0.21259 0.0
H417 H 0.72907 0.1043 0.32378 0.0
H418 H 0.79212 0.21419 0.22417 0.0
H419 H 0.7733 0.22604 0.26141 0.0
H420 H 0.75598 0.20675 0.20906 0.0
H421 H 0.79426 0.15009 0.36704 0.0
H422 H 0.75837 0.12584 0.38926 0.0
H423 H 0.77517 0.16485 0.39731 0.0
C424 C 0.58736 0.82581 0.72243 0.0
C425 C 0.57039 0.83847 0.71132 0.0
C426 C 0.58272 0.80025 0.70035 0.0
C427 C 0.56097 0.78749 0.66578 0.0
C428 C 0.54192 0.79853 0.65775 0.0
C429 C 0.54669 0.82381 0.68104 0.0
C430 C 0.60286 0.78849 0.71108 0.0
C431 C 0.51844 0.78556 0.62132 0.0
C432 C 0.58613 0.75561 0.57254 0.0
C433 C 0.57193 0.72606 0.58492 0.0
C434 C 0.58082 0.77551 0.59639 0.0
C435 C 0.56129 0.76565 0.63404 0.0
C436 C 0.54507 0.73545 0.64414 0.0
C437 C 0.5504 0.71592 0.6191 0.0
C438 C 0.59787 0.80747 0.58356 0.0
C439 C 0.52409 0.72404 0.68394 0.0
H440 H 0.60553 0.83694 0.74613 0.0
H441 H 0.53346 0.83349 0.67226 0.0
H442 H 0.59025 0.76437 0.71488 0.0
H443 H 0.61835 0.7936 0.68227 0.0
H444 H 0.61566 0.79817 0.74301 0.0
H445 H 0.50197 0.79253 0.62578 0.0
H446 H 0.5286 0.79296 0.58703 0.0
H447 H 0.50717 0.76134 0.62167 0.0
H448 H 0.6026 0.76347 0.54591 0.0
H449 H 0.53937 0.69307 0.62894 0.0
H450 H 0.61447 0.81975 0.61047 0.0
H451 H 0.58321 0.81679 0.5815 0.0
H452 H 0.60924 0.811 0.55015 0.0
H453 H 0.53665 0.72876 0.71647 0.0
H454 H 0.50911 0.70004 0.68153 0.0
H455 H 0.51091 0.735 0.68586 0.0
C456 C 0.75284 0.59383 0.04942 0.0
C457 C 0.72355 0.57771 0.03577 0.0
C458 C 0.7741 0.58947 0.02824 0.0
C459 C 0.76588 0.56887 -0.00794 0.0
C460 C 0.73605 0.55091 -0.01931 0.0
C461 C 0.71516 0.55539 0.00301 0.0
C462 C 0.80566 0.6085 0.04228 0.0
C463 C 0.7264 0.52873 0.94234 0.0
C464 C 0.8268 0.59402 0.9056 0.0
C465 C 0.84026 0.57823 0.91942 0.0
C466 C 0.80107 0.58944 0.92667 0.0
C467 C 0.78889 0.56893 0.96291 0.0
C468 C 0.80104 0.55124 -0.02561 0.0
C469 C 0.82652 0.55594 0.95216 0.0
C470 C 0.78824 0.60816 0.9125 0.0
C471 C 0.78873 0.52917 0.01279 0.0
H472 H 0.75938 0.61093 0.07498 0.0
H473 H 0.69253 0.54287 -0.00778 0.0
H474 H 0.81617 0.59505 0.0472 0.0
H475 H 0.81766 0.62451 0.01464 0.0
H476 H 0.80799 0.62075 0.0745 0.0
H477 H 0.70253 0.51312 0.94328 0.0
H478 H 0.73172 0.54028 0.90886 0.0
H479 H 0.73809 0.51624 0.94399 0.0
H480 H 0.83723 0.61109 0.88005 0.0
H481 H 0.83687 0.54367 0.96308 0.0
H482 H 0.79215 0.62425 0.94004 0.0
H483 H 0.76429 0.5945 0.90766 0.0
H484 H 0.79801 0.6203 0.8802 0.0
H485 H 0.7949 0.54083 0.04624 0.0
H486 H 0.79721 0.51373 0.01193 0.0
H487 H 0.76456 0.51647 0.01114 0.0
C488 C 0.15411 0.72016 0.34827 0.0
C489 C 0.13975 0.72797 0.38092 0.0
C490 C 0.17918 0.74161 0.32584 0.0
C491 C 0.19029 0.7714 0.33694 0.0
C492 C 0.17758 0.77907 0.37318 0.0
C493 C 0.1523 0.75725 0.39452 0.0
C494 C 0.1921 0.73251 0.28752 0.0
C495 C 0.18926 0.81056 0.38692 0.0
C496 C 0.26238 0.83351 0.29387 0.0
C497 C 0.25271 0.84597 0.26053 0.0
C498 C 0.24249 0.80813 0.31756 0.0
C499 C 0.21238 0.79479 0.30707 0.0
C500 C 0.2029 0.80588 0.27069 0.0
C501 C 0.22317 0.83149 0.24811 0.0
C502 C 0.25346 0.79703 0.3561 0.0
C503 C 0.17104 0.79185 0.25764 0.0
H504 H 0.14451 0.69754 0.33755 0.0
H505 H 0.14143 0.76336 0.42002 0.0
H506 H 0.18541 0.73737 0.25402 0.0
H507 H 0.21629 0.74496 0.28896 0.0
H508 H 0.18458 0.70876 0.28873 0.0
H509 H 0.17943 0.81253 0.41943 0.0
H510 H 0.21331 0.82193 0.39119 0.0
H511 H 0.18435 0.82203 0.35942 0.0
H512 H 0.28521 0.84468 0.30376 0.0
H513 H 0.21565 0.84093 0.22214 0.0
H514 H 0.24279 0.77284 0.35518 0.0
H515 H 0.24797 0.80317 0.38949 0.0
H516 H 0.2775 0.80644 0.35466 0.0
H517 H 0.16148 0.76792 0.25308 0.0
H518 H 0.1677 0.80112 0.22546 0.0
H519 H 0.15886 0.79525 0.28563 0.0
C520 C 0.40394 0.16541 0.71986 0.0
C521 C 0.4194 0.15145 0.70694 0.0
C522 C 0.40861 0.19089 0.69752 0.0
C523 C 0.42894 0.2024 0.66105 0.0
C524 C 0.44658 0.19002 0.65089 0.0
C525 C 0.44172 0.16473 0.67426 0.0
C526 C 0.38993 0.20397 0.71031 0.0
C527 C 0.46861 0.20172 0.61252 0.0
C528 C 0.4026 0.23523 0.57077 0.0
C529 C 0.41814 0.2649 0.58258 0.0
C530 C 0.40765 0.21487 0.5938 0.0
C531 C 0.42845 0.22443 0.62991 0.0
C532 C 0.44592 0.25466 0.63931 0.0
C533 C 0.44067 0.27461 0.61526 0.0
C534 C 0.38908 0.18286 0.58186 0.0
C535 C 0.46838 0.26575 0.67735 0.0
H536 H 0.38687 0.15539 0.74542 0.0
H537 H 0.45381 0.15408 0.66411 0.0
H538 H 0.40349 0.22807 0.71365 0.0
H539 H 0.37363 0.19928 0.68274 0.0
H540 H 0.37807 0.19494 0.74306 0.0
H541 H 0.48436 0.19368 0.615 0.0
H542 H 0.45702 0.19446 0.57909 0.0
H543 H 0.4809 0.22597 0.61254 0.0
H544 H 0.38535 0.22766 0.54526 0.0
H545 H 0.45279 0.29755 0.62459 0.0
H546 H 0.37344 0.17132 0.61009 0.0
H547 H 0.40289 0.17267 0.57802 0.0
H548 H 0.37649 0.17941 0.54959 0.0
H549 H 0.45714 0.26156 0.71093 0.0
H550 H 0.48383 0.28962 0.67438 0.0
H551 H 0.48097 0.25414 0.67743 0.0
C552 C 0.30878 0.2961 0.69789 0.0
C553 C 0.33874 0.30616 0.69398 0.0
C554 C 0.29654 0.29609 0.7406 0.0
C555 C 0.31484 0.30662 0.77976 0.0
C556 C 0.34463 0.31473 0.77641 0.0
C557 C 0.35616 0.31428 0.73356 0.0
C558 C 0.26454 0.28662 0.74315 0.0
C559 C 0.36491 0.326 0.81744 0.0
C560 C 0.30683 0.35144 0.87233 0.0
C561 C 0.30058 0.3331 0.91045 0.0
C562 C 0.30897 0.34203 0.82844 0.0
C563 C 0.30457 0.31351 0.82263 0.0
C564 C 0.29538 0.29391 0.86016 0.0
C565 C 0.29358 0.30401 0.90393 0.0
C566 C 0.31862 0.36358 0.7892 0.0
C567 C 0.28975 0.2631 0.8549 0.0
H568 H 0.29514 0.28943 0.6674 0.0
H569 H 0.37923 0.32157 0.73083 0.0
H570 H 0.25463 0.27399 0.77496 0.0
H571 H 0.26203 0.30623 0.74393 0.0
H572 H 0.25227 0.2731 0.71301 0.0
H573 H 0.38682 0.32908 0.80977 0.0
H574 H 0.36765 0.34734 0.82849 0.0
H575 H 0.35552 0.31069 0.84674 0.0
H576 H 0.31164 0.37377 0.87711 0.0
H577 H 0.2883 0.28961 0.93326 0.0
H578 H 0.30467 0.35344 0.75854 0.0
H579 H 0.34136 0.37012 0.77961 0.0
H580 H 0.31786 0.38361 0.79827 0.0
H581 H 0.27814 0.25323 0.82222 0.0
H582 H 0.27672 0.24897 0.8839 0.0
H583 H 0.31089 0.26347 0.85406 0.0
C584 C -0.00519 0.30945 0.24248 0.0
C585 C 0.97335 0.31731 0.24842 0.0
C586 C 0.008 0.31246 0.19959 0.0
C587 C -0.00054 0.32362 0.16222 0.0
C588 C 0.9766 0.32992 0.16747 0.0
C589 C 0.96381 0.32665 0.21056 0.0
C590 C 0.0321 0.30525 0.19497 0.0
C591 C 0.96679 0.34175 0.12828 0.0
C592 C 0.05131 0.37163 0.0709 0.0
C593 C 0.04047 0.35348 0.03225 0.0
C594 C 0.03957 0.36135 0.11438 0.0
C595 C 0.01643 0.33222 0.11914 0.0
C596 C 0.00702 0.31308 0.08092 0.0
C597 C 0.01923 0.32398 0.03768 0.0
C598 C 0.05039 0.38237 0.15446 0.0
C599 C 0.98264 0.28179 0.08497 0.0
H600 H 0.00206 0.30195 0.27165 0.0
H601 H 0.94692 0.33234 0.21486 0.0
H602 H 0.02944 0.29282 0.16289 0.0
H603 H 0.05343 0.32582 0.19301 0.0
H604 H 0.03275 0.29233 0.22459 0.0
H605 H 0.94716 0.34323 0.1371 0.0
H606 H 0.98465 0.36393 0.119 0.0
H607 H 0.96178 0.32768 0.09746 0.0
H608 H 0.06814 0.39432 0.06688 0.0
H609 H 0.01101 0.30982 0.00786 0.0
H610 H 0.05471 0.37229 0.18467 0.0
H611 H 0.03334 0.38767 0.16444 0.0
H612 H 0.07066 0.40311 0.14613 0.0
H613 H 0.98526 0.2715 0.11648 0.0
H614 H 0.98165 0.26851 0.05472 0.0
H615 H 0.96149 0.28129 0.08761 0.0
C616 C 0.61161 0.9279 0.53643 0.0
C617 C 0.63249 0.9441 0.57011 0.0
C618 C 0.61686 0.93587 0.49018 0.0
C619 C 0.64359 0.96066 0.47762 0.0
C620 C 0.66585 0.97532 0.51086 0.0
C621 C 0.66003 0.96679 0.55698 0.0
C622 C 0.59269 0.91948 0.45563 0.0
C623 C 0.69476 0.00166 0.49854 0.0
C624 C 0.65681 0.9788 0.35084 0.0
C625 C 0.64652 -0.00148 0.34617 0.0
C626 C 0.65663 0.9666 0.39373 0.0
C627 C 0.64586 0.97435 0.4324 0.0
C628 C 0.63579 0.99449 0.42787 0.0
C629 C 0.63626 0.00633 0.38479 0.0
C630 C 0.66757 0.94521 0.39758 0.0
C631 C 0.62408 0.00328 0.46841 0.0
H632 H 0.59049 0.90992 0.54646 0.0
H633 H 0.67635 0.97913 0.58295 0.0
H634 H 0.58248 0.9328 0.44684 0.0
H635 H 0.60139 0.91563 0.42344 0.0
H636 H 0.57545 0.8981 0.4692 0.0
H637 H 0.71143 0.00696 0.52578 0.0
H638 H 0.7031 -0.00191 0.46571 0.0
H639 H 0.69179 0.02085 0.49389 0.0
H640 H 0.66491 0.97284 0.32102 0.0
H641 H 0.62843 0.02168 0.3814 0.0
H642 H 0.64937 0.92341 0.40761 0.0
H643 H 0.68446 0.95231 0.42486 0.0
H644 H 0.67694 0.94293 0.36483 0.0
H645 H 0.60461 0.98378 0.48251 0.0
H646 H 0.61782 0.0198 0.45915 0.0
H647 H 0.64072 0.01243 0.49615 0.0
C648 C 0.6808 0.69763 0.70713 0.0
C649 C 0.65123 0.68876 0.7009 0.0
C650 C 0.69161 0.6968 0.75085 0.0
C651 C 0.67224 0.68665 0.78857 0.0
C652 C 0.64307 0.6803 0.78299 0.0
C653 C 0.63297 0.68155 0.73918 0.0
C654 C 0.72306 0.70458 0.75588 0.0
C655 C 0.62172 0.66958 0.82244 0.0
C656 C 0.67447 0.63689 0.87843 0.0
C657 C 0.68099 0.65421 0.91792 0.0
C658 C 0.67391 0.64809 0.83524 0.0
C659 C 0.68029 0.67741 0.83151 0.0
C660 C 0.68954 0.6958 0.87061 0.0
C661 C 0.68964 0.6839 0.91365 0.0
C662 C 0.66405 0.62774 0.79428 0.0
C663 C 0.69728 0.72739 0.86764 0.0
H664 H 0.69512 0.70369 0.67764 0.0
H665 H 0.61024 0.67533 0.73461 0.0
H666 H 0.73248 0.71628 0.78868 0.0
H667 H 0.72434 0.68425 0.75624 0.0
H668 H 0.73659 0.7184 0.72697 0.0
H669 H 0.60082 0.66854 0.81334 0.0
H670 H 0.6169 0.64735 0.8326 0.0
H671 H 0.63123 0.68404 0.85276 0.0
H672 H 0.66834 0.61407 0.88147 0.0
H673 H 0.69517 0.69749 0.94408 0.0
H674 H 0.67926 0.63796 0.76514 0.0
H675 H 0.64219 0.62337 0.78288 0.0
H676 H 0.66261 0.60649 0.80224 0.0
H677 H 0.70952 0.73768 0.8357 0.0
H678 H 0.71052 0.74021 0.89764 0.0
H679 H 0.67695 0.7286 0.86692 0.0
C680 C 0.03239 0.67519 0.22086 0.0
C681 C 0.02197 0.68281 0.25952 0.0
C682 C 0.02097 0.67443 0.17725 0.0
C683 C -0.00127 0.68166 0.17224 0.0
C684 C 0.98995 0.69188 0.21045 0.0
C685 C 0.00163 0.69222 0.25393 0.0
C686 C 0.03107 0.66355 0.13724 0.0
C687 C 0.96681 0.70045 0.20609 0.0
C688 C 0.97975 0.68236 0.04735 0.0
C689 C 0.95812 0.65302 0.04137 0.0
C690 C 0.99168 0.69304 0.09097 0.0
C691 C 0.98179 0.67377 0.12892 0.0
C692 C 0.95826 0.64487 0.12355 0.0
C693 C 0.94665 0.63488 0.0798 0.0
C694 C 0.01626 0.72421 0.09572 0.0
C695 C 0.94693 0.62365 0.16328 0.0
H696 H 0.04853 0.66845 0.22492 0.0
H697 H -0.00616 0.69857 0.2837 0.0
H698 H 0.01317 0.64173 0.12633 0.0
H699 H 0.03659 0.67849 0.10749 0.0
H700 H 0.05045 0.66157 0.14604 0.0
H701 H 0.96716 0.71381 0.2358 0.0
H702 H 0.96965 0.71292 0.17401 0.0
H703 H 0.94499 0.68044 0.20458 0.0
H704 H 0.98838 0.69659 0.01774 0.0
H705 H 0.92951 0.61233 0.07542 0.0
H706 H 0.03737 0.72454 0.09702 0.0
H707 H 0.01423 0.73417 0.12802 0.0
H708 H 0.01687 0.73787 0.06627 0.0
H709 H 0.9638 0.6182 0.17394 0.0
H710 H 0.9267 0.60301 0.15425 0.0
H711 H 0.94235 0.63364 0.19325 0.0
C712 C 0.30921 0.96031 0.40545 0.0
C713 C 0.30216 0.97127 0.36673 0.0
C714 C 0.31239 0.97317 0.44852 0.0
C715 C 0.30841 -0.00239 0.45291 0.0
C716 C 0.29906 0.00739 0.41468 0.0
C717 C 0.29603 0.99403 0.37174 0.0
C718 C 0.32211 0.96185 0.48858 0.0
C719 C 0.29416 0.03309 0.41834 0.0
C720 C 0.31104 0.01787 0.57766 0.0
C721 C 0.34112 0.03684 0.58334 0.0
C722 C 0.29928 0.00682 0.53411 0.0
C723 C 0.31815 0.01492 0.49585 0.0
C724 C 0.34804 0.03611 0.50091 0.0
C725 C 0.35916 0.04684 0.54467 0.0
C726 C 0.26719 0.98473 0.52976 0.0
C727 C 0.36886 0.04552 0.46083 0.0
H728 H 0.3134 0.94232 0.40179 0.0
H729 H 0.29033 0.00238 0.34182 0.0
H730 H 0.34472 0.97841 0.49862 0.0
H731 H 0.30792 0.95804 0.51874 0.0
H732 H 0.32171 0.94113 0.48027 0.0
H733 H 0.28105 0.03385 0.38905 0.0
H734 H 0.28296 0.03233 0.45089 0.0
H735 H 0.31555 0.05366 0.41838 0.0
H736 H 0.29692 0.01044 0.60744 0.0
H737 H 0.38233 0.062 0.54882 0.0
H738 H 0.26423 0.96244 0.52787 0.0
H739 H 0.25792 0.98836 0.49786 0.0
H740 H 0.25464 0.98559 0.55965 0.0
H741 H 0.37223 0.0272 0.45054 0.0
H742 H 0.39046 0.06472 0.46937 0.0
H743 H 0.35965 0.05108 0.43079 0.0
C744 C 0.4264 0.45091 0.06833 0.0
C745 C 0.41934 0.42746 0.03846 0.0
C746 C 0.45475 0.47511 0.06994 0.0
C747 C 0.4764 0.47607 0.04038 0.0
C748 C 0.46941 0.4525 0.01009 0.0
C749 C 0.44101 0.42834 0.00978 0.0
C750 C 0.46154 0.49966 0.10319 0.0
C751 C 0.49181 0.453 -0.02245 0.0
C752 C 0.54062 0.55086 0.01281 0.0
C753 C 0.56261 0.55173 0.04091 0.0
C754 C 0.51255 0.52623 0.01195 0.0
C755 C 0.5062 0.50207 0.04044 0.0
C756 C 0.52824 0.50283 0.06906 0.0
C757 C 0.55629 0.52757 0.06866 0.0
C758 C 0.48972 0.52602 -0.01957 0.0
C759 C 0.52211 0.47762 0.10039 0.0
H760 H 0.4098 0.45024 0.09083 0.0
H761 H 0.43565 0.41036 -0.01356 0.0
H762 H 0.48003 0.50344 0.12579 0.0
H763 H 0.46833 0.52022 0.08405 0.0
H764 H 0.44253 0.49504 0.12502 0.0
H765 H 0.48287 0.43287 0.95624 0.0
H766 H 0.49986 0.47217 0.95439 0.0
H767 H 0.51089 0.45536 -0.00289 0.0
H768 H 0.54541 0.56937 -0.00897 0.0
H769 H 0.57316 0.52818 0.09063 0.0
H770 H 0.47099 0.52363 0.00083 0.0
H771 H 0.48123 0.507 0.9568 0.0
H772 H 0.4984 0.54629 0.95963 0.0
H773 H 0.50418 0.47349 0.12432 0.0
H774 H 0.54158 0.48176 0.12085 0.0
H775 H 0.51476 0.4574 0.07993 0.0
C776 C 0.01618 0.55747 0.42145 0.0
C777 C 0.00088 0.56499 0.39006 0.0
C778 C 0.01152 0.52889 0.42318 0.0
C779 C 0.99164 0.50757 0.39202 0.0
C780 C 0.9762 0.51508 0.36022 0.0
C781 C 0.98077 0.54361 0.35997 0.0
C782 C 0.02797 0.52152 0.45815 0.0
C783 C 0.95531 0.49315 0.32576 0.0
C784 C 0.00289 0.44396 0.36303 0.0
C785 C 0.98041 0.42102 0.38783 0.0
C786 C 0.00668 0.47217 0.364 0.0
C787 C 0.98792 0.47776 0.39124 0.0
C788 C 0.96539 0.4548 0.41687 0.0
C789 C 0.96167 0.42657 0.41443 0.0
C790 C 0.03054 0.4959 0.33537 0.0
C791 C 0.94532 0.46011 0.44696 0.0
H792 H 0.03154 0.57386 0.44506 0.0
H793 H 0.96901 0.54935 0.33546 0.0
H794 H 0.01245 0.50243 0.47893 0.0
H795 H 0.04261 0.51533 0.44043 0.0
H796 H 0.04133 0.5401 0.48165 0.0
H797 H 0.9448 0.50241 0.30363 0.0
H798 H 0.96714 0.48551 0.30347 0.0
H799 H 0.938 0.4737 0.34374 0.0
H800 H 0.01729 0.43974 0.3421 0.0
H801 H 0.94439 0.40894 0.43389 0.0
H802 H 0.04597 0.51415 0.35776 0.0
H803 H 0.02096 0.50494 0.31093 0.0
H804 H 0.04301 0.48784 0.31557 0.0
H805 H 0.95833 0.47769 0.47215 0.0
H806 H 0.92956 0.44017 0.46595 0.0
H807 H 0.93292 0.46763 0.42574 0.0
C808 C 0.5479 -0.00205 0.67725 0.0
C809 C 0.5497 0.9781 0.70715 0.0
C810 C 0.52427 0.00292 0.6791 0.0
C811 C 0.50213 0.98802 0.71215 0.0
C812 C 0.50392 0.96813 0.74273 0.0
C813 C 0.52758 0.96321 0.73961 0.0
C814 C 0.52291 0.02397 0.64544 0.0
C815 C 0.48091 0.95218 0.77885 0.0
C816 C 0.45615 0.02251 0.74091 0.0
C817 C 0.43085 0.00534 0.71491 0.0
C818 C 0.47922 0.01662 0.74131 0.0
C819 C 0.4771 0.9933 0.71448 0.0
C820 C 0.45152 0.97572 0.68849 0.0
C821 C 0.42859 0.98181 0.6893 0.0
C822 C 0.506 0.03557 0.76999 0.0
C823 C 0.44866 0.95092 0.65893 0.0
H824 H 0.5648 0.00938 0.65184 0.0
H825 H 0.52893 0.94795 0.76297 0.0
H826 H 0.50241 0.01264 0.62514 0.0
H827 H 0.52268 0.04211 0.66423 0.0
H828 H 0.54166 0.03343 0.62137 0.0
H829 H 0.48576 0.9378 0.8005 0.0
H830 H 0.47919 0.96817 0.80141 0.0
H831 H 0.4593 0.93862 0.76229 0.0
H832 H 0.45795 0.0406 0.76105 0.0
H833 H 0.40916 0.96853 0.66896 0.0
H834 H 0.52526 0.04749 0.74737 0.0
H835 H 0.51061 0.02178 0.79338 0.0
H836 H 0.50356 0.05181 0.79086 0.0
H837 H 0.46594 0.95959 0.63232 0.0
H838 H 0.42707 0.93892 0.64158 0.0
H839 H 0.45179 0.93524 0.68008 0.0
C840 C 0.53411 0.56196 0.54086 0.0
C841 C 0.55761 0.56965 0.57094 0.0
C842 C 0.51064 0.53316 0.5389 0.0
C843 C 0.51044 0.51175 0.56836 0.0
C844 C 0.53404 0.51942 0.59892 0.0
C845 C 0.55748 0.54823 0.59954 0.0
C846 C 0.48605 0.52564 0.50534 0.0
C847 C 0.53434 0.49729 0.63144 0.0
C848 C 0.43711 0.44544 0.59567 0.0
C849 C 0.43739 0.42388 0.56795 0.0
C850 C 0.46085 0.47407 0.59634 0.0
C851 C 0.48523 0.48145 0.56799 0.0
C852 C 0.48556 0.45987 0.53961 0.0
C853 C 0.46173 0.43123 0.54025 0.0
C854 C 0.45993 0.49638 0.62766 0.0
C855 C 0.51102 0.46709 0.50839 0.0
H856 H 0.53421 0.57838 0.51843 0.0
H857 H 0.57552 0.5541 0.62305 0.0
H858 H 0.48307 0.50748 0.48264 0.0
H859 H 0.46531 0.51802 0.5242 0.0
H860 H 0.49004 0.54458 0.48362 0.0
H861 H 0.55434 0.5068 0.6531 0.0
H862 H 0.51502 0.48842 0.65426 0.0
H863 H 0.5329 0.47862 0.61182 0.0
H864 H 0.41845 0.43984 0.6174 0.0
H865 H 0.46198 0.41469 0.51856 0.0
H866 H 0.46169 0.5149 0.60717 0.0
H867 H 0.47881 0.50543 0.65162 0.0
H868 H 0.43953 0.48698 0.64812 0.0
H869 H 0.51455 0.48499 0.48466 0.0
H870 H 0.50761 0.44795 0.48773 0.0
H871 H 0.53126 0.47497 0.529 0.0
C872 C 0.00056 0.55643 0.93916 0.0
C873 C 0.97974 0.55731 0.91033 0.0
C874 C 0.00604 0.53311 0.9371 0.0
C875 C 0.99074 0.5104 0.90481 0.0
C876 C 0.96972 0.51116 0.87552 0.0
C877 C 0.96425 0.53449 0.87896 0.0
C878 C 0.02821 0.53278 0.96954 0.0
C879 C 0.95333 0.48754 0.84017 0.0
C880 C 0.02663 0.46607 0.8734 0.0
C881 C 0.01058 0.44079 0.89983 0.0
C882 C 0.01984 0.48856 0.87366 0.0
C883 C -0.00313 0.48593 0.90176 0.0
C884 C 0.98048 0.46039 0.9283 0.0
C885 C 0.98736 0.43799 0.92666 0.0
C886 C 0.03746 0.51527 0.84428 0.0
C887 C 0.95619 0.45704 0.95933 0.0
H888 H 0.01245 0.57391 0.96372 0.0
H889 H 0.94827 0.53517 0.8564 0.0
H890 H 0.01794 0.5123 -0.01007 0.0
H891 H 0.04628 0.53321 0.94972 0.0
H892 H 0.03758 0.55167 -0.00644 0.0
H893 H 0.93786 0.49148 0.81976 0.0
H894 H 0.96899 0.48628 0.81636 0.0
H895 H 0.94092 0.46597 0.85724 0.0
H896 H 0.04445 0.46823 0.85233 0.0
H897 H 0.97499 0.41858 0.9474 0.0
H898 H 0.04949 0.53485 0.86646 0.0
H899 H 0.02273 0.51913 0.82186 0.0
H900 H 0.05345 0.51318 0.82235 0.0
H901 H 0.96507 0.47461 -0.01435 0.0
H902 H 0.94518 0.43556 -0.02292 0.0
H903 H 0.93964 0.45938 0.93923 0.0
C904 C 0.5337 -0.0021 0.17027 0.0
C905 C 0.55541 0.01624 0.20135 0.0
C906 C 0.5061 0.99547 0.17074 0.0
C907 C 0.49982 0.01084 0.20441 0.0
C908 C 0.52204 0.03011 0.23502 0.0
C909 C 0.54984 0.03296 0.23257 0.0
C910 C 0.48332 0.9755 0.13649 0.0
C911 C 0.51594 0.04618 0.27228 0.0
C912 C 0.43078 0.01567 0.19399 0.0
C913 C 0.41104 0.99124 0.21947 0.0
C914 C 0.45978 0.02227 0.18835 0.0
C915 C 0.46937 0.00461 0.21021 0.0
C916 C 0.4496 0.98034 0.23695 0.0
C917 C 0.42049 0.97362 0.24052 0.0
C918 C 0.47996 0.04766 0.15825 0.0
C919 C 0.45919 0.96148 0.26192 0.0
H920 H 0.5382 0.98506 0.14609 0.0
H921 H 0.56665 0.04685 0.25694 0.0
H922 H 0.46628 0.95578 0.15431 0.0
H923 H 0.47243 0.98663 0.12054 0.0
H924 H 0.49282 0.96835 0.10889 0.0
H925 H 0.53606 0.06193 0.29103 0.0
H926 H 0.50561 0.05818 0.25762 0.0
H927 H 0.50033 0.03016 0.29728 0.0
H928 H 0.4233 0.02915 0.17749 0.0
H929 H 0.40522 0.9549 0.26061 0.0
H930 H 0.48798 0.03973 0.12962 0.0
H931 H 0.49933 0.0636 0.17819 0.0
H932 H 0.46906 0.05917 0.14358 0.0
H933 H 0.46588 0.9502 0.23678 0.0
H934 H 0.44162 0.94469 0.28378 0.0
H935 H 0.47842 0.97529 0.28392 0.0
loop_
_geom_bond_atom_site_label_1
_geom_bond_atom_site_label_2
_geom_bond_distance
_geom_bond_site_symmetry_2
_ccdc_geom_bond_type
C0 O1 1.306 . S
C0 O3 1.160 . S
O1 C0 1.306 . S
O1 Cd2 2.228 . S
Cd2 O1 2.228 . S
Cd2 O6 2.273 . S
Cd2 O10 2.277 . S
O3 C0 1.160 . S
O3 Cd4 2.203 . S
Cd4 O3 2.203 . S
Cd4 O6 2.411 . S
Cd4 O7 2.333 1_554 S
Cd4 O8 2.352 . S
Cd4 O12 2.277 . S
Cd4 O13 2.356 . S
C5 O10 1.209 . S
C5 O12 1.226 . S
O6 Cd2 2.273 . S
O6 Cd4 2.411 . S
O6 C9 1.320 1_554 S
O7 Cd4 2.333 1_556 S
O7 C9 1.214 . S
O8 Cd4 2.352 . S
O8 C11 1.258 . S
C9 O6 1.320 1_556 S
C9 O7 1.214 . S
O10 Cd2 2.277 . S
O10 C5 1.209 . S
C11 O8 1.258 . S
C11 O13 1.282 . S
O12 Cd4 2.277 . S
O12 C5 1.226 . S
O13 Cd4 2.356 . S
O13 C11 1.282 . S
C14 O15 1.306 1_655 S
C14 O17 1.160 . S
O15 C14 1.306 1_455 S
O15 Cd16 2.228 . S
Cd16 O15 2.228 . S
Cd16 O20 2.273 1_455 S
Cd16 O24 2.277 1_455 S
O17 C14 1.160 . S
O17 Cd18 2.203 . S
Cd18 O17 2.203 . S
Cd18 O20 2.411 . S
Cd18 O21 2.333 . S
Cd18 O22 2.352 . S
Cd18 O26 2.277 . S
Cd18 O27 2.356 . S
C19 O24 1.209 . S
C19 O26 1.226 . S
O20 Cd16 2.273 1_655 S
O20 Cd18 2.411 . S
O20 C23 1.320 . S
O21 Cd18 2.333 . S
O21 C23 1.214 . S
O22 Cd18 2.352 . S
O22 C25 1.258 . S
C23 O20 1.320 . S
C23 O21 1.214 . S
O24 Cd16 2.277 1_655 S
O24 C19 1.209 . S
C25 O22 1.258 . S
C25 O27 1.282 . S
O26 Cd18 2.277 . S
O26 C19 1.226 . S
O27 Cd18 2.356 . S
O27 C25 1.282 . S
C28 O29 1.306 1_565 S
C28 O31 1.160 . S
O29 C28 1.306 1_545 S
O29 Cd30 2.228 . S
Cd30 O29 2.228 . S
Cd30 O34 2.273 1_545 S
Cd30 O38 2.277 1_545 S
O31 C28 1.160 . S
O31 Cd32 2.203 . S
Cd32 O31 2.203 . S
Cd32 O34 2.411 . S
Cd32 O35 2.333 . S
Cd32 O36 2.352 . S
Cd32 O40 2.277 . S
Cd32 O41 2.356 . S
C33 O38 1.209 . S
C33 O40 1.226 . S
O34 Cd30 2.273 1_565 S
O34 Cd32 2.411 . S
O34 C37 1.320 . S
O35 Cd32 2.333 . S
O35 C37 1.214 . S
O36 Cd32 2.352 . S
O36 C39 1.258 . S
C37 O34 1.320 . S
C37 O35 1.214 . S
O38 Cd30 2.277 1_565 S
O38 C33 1.209 . S
C39 O36 1.258 . S
C39 O41 1.282 . S
O40 Cd32 2.277 . S
O40 C33 1.226 . S
O41 Cd32 2.356 . S
O41 C39 1.282 . S
C42 O43 1.306 . S
C42 O45 1.160 . S
O43 C42 1.306 . S
O43 Cd44 2.228 . S
Cd44 O43 2.228 . S
Cd44 O48 2.273 . S
Cd44 O52 2.277 . S
O45 C42 1.160 . S
O45 Cd46 2.203 . S
Cd46 O45 2.203 . S
Cd46 O48 2.411 . S
Cd46 O49 2.333 1_554 S
Cd46 O50 2.352 . S
Cd46 O54 2.277 . S
Cd46 O55 2.356 . S
C47 O52 1.209 . S
C47 O54 1.226 . S
O48 Cd44 2.273 . S
O48 Cd46 2.411 . S
O48 C51 1.320 1_554 S
O49 Cd46 2.333 1_556 S
O49 C51 1.214 . S
O50 Cd46 2.352 . S
O50 C53 1.258 . S
C51 O48 1.320 1_556 S
C51 O49 1.214 . S
O52 Cd44 2.277 . S
O52 C47 1.209 . S
C53 O50 1.258 . S
C53 O55 1.282 . S
O54 Cd46 2.277 . S
O54 C47 1.226 . S
O55 Cd46 2.356 . S
O55 C53 1.282 . S
C56 O57 1.306 1_455 S
C56 O59 1.160 . S
O57 C56 1.306 1_655 S
O57 Cd58 2.228 . S
Cd58 O57 2.228 . S
Cd58 O62 2.273 1_655 S
Cd58 O66 2.277 1_655 S
O59 C56 1.160 . S
O59 Cd60 2.203 . S
Cd60 O59 2.203 . S
Cd60 O62 2.411 . S
Cd60 O63 2.333 . S
Cd60 O64 2.352 . S
Cd60 O68 2.277 . S
Cd60 O69 2.356 . S
C61 O66 1.209 . S
C61 O68 1.226 . S
O62 Cd58 2.273 1_455 S
O62 Cd60 2.411 . S
O62 C65 1.320 . S
O63 Cd60 2.333 . S
O63 C65 1.214 . S
O64 Cd60 2.352 . S
O64 C67 1.258 . S
C65 O62 1.320 . S
C65 O63 1.214 . S
O66 Cd58 2.277 1_455 S
O66 C61 1.209 . S
C67 O64 1.258 . S
C67 O69 1.282 . S
O68 Cd60 2.277 . S
O68 C61 1.226 . S
O69 Cd60 2.356 . S
O69 C67 1.282 . S
C70 O71 1.306 1_545 S
C70 O73 1.160 . S
O71 C70 1.306 1_565 S
O71 Cd72 2.228 . S
Cd72 O71 2.228 . S
Cd72 O76 2.273 1_565 S
Cd72 O80 2.277 1_565 S
O73 C70 1.160 . S
O73 Cd74 2.203 . S
Cd74 O73 2.203 . S
Cd74 O76 2.411 . S
Cd74 O77 2.333 . S
Cd74 O78 2.352 . S
Cd74 O82 2.277 . S
Cd74 O83 2.356 . S
C75 O80 1.209 . S
C75 O82 1.226 . S
O76 Cd72 2.273 1_545 S
O76 Cd74 2.411 . S
O76 C79 1.320 . S
O77 Cd74 2.333 . S
O77 C79 1.214 . S
O78 Cd74 2.352 . S
O78 C81 1.258 . S
C79 O76 1.320 . S
C79 O77 1.214 . S
O80 Cd72 2.277 1_545 S
O80 C75 1.209 . S
C81 O78 1.258 . S
C81 O83 1.282 . S
O82 Cd74 2.277 . S
O82 C75 1.226 . S
O83 Cd74 2.356 . S
O83 C81 1.282 . S
C84 O85 1.306 . S
C84 O87 1.160 . S
O85 C84 1.306 . S
O85 Cd86 2.228 . S
Cd86 O85 2.228 . S
Cd86 O90 2.273 . S
Cd86 O94 2.277 . S
O87 C84 1.160 . S
O87 Cd88 2.203 . S
Cd88 O87 2.203 . S
Cd88 O90 2.411 . S
Cd88 O91 2.333 . S
Cd88 O92 2.352 . S
Cd88 O96 2.277 . S
Cd88 O97 2.356 . S
C89 O94 1.209 . S
C89 O96 1.226 . S
O90 Cd86 2.273 . S
O90 Cd88 2.411 . S
O90 C93 1.320 . S
O91 Cd88 2.333 . S
O91 C93 1.214 . S
O92 Cd88 2.352 . S
O92 C95 1.258 . S
C93 O90 1.320 . S
C93 O91 1.214 . S
O94 Cd86 2.277 . S
O94 C89 1.209 . S
C95 O92 1.258 . S
C95 O97 1.282 . S
O96 Cd88 2.277 . S
O96 C89 1.226 . S
O97 Cd88 2.356 . S
O97 C95 1.282 . S
C98 O99 1.306 1_655 S
C98 O101 1.160 . S
O99 C98 1.306 1_455 S
O99 Cd100 2.228 . S
Cd100 O99 2.228 . S
Cd100 O104 2.273 1_455 S
Cd100 O108 2.277 1_455 S
O101 C98 1.160 . S
O101 Cd102 2.203 . S
Cd102 O101 2.203 . S
Cd102 O104 2.411 . S
Cd102 O105 2.333 1_556 S
Cd102 O106 2.352 . S
Cd102 O110 2.277 . S
Cd102 O111 2.356 . S
C103 O108 1.209 . S
C103 O110 1.226 . S
O104 Cd100 2.273 1_655 S
O104 Cd102 2.411 . S
O104 C107 1.320 1_556 S
O105 Cd102 2.333 1_554 S
O105 C107 1.214 . S
O106 Cd102 2.352 . S
O106 C109 1.258 . S
C107 O104 1.320 1_554 S
C107 O105 1.214 . S
O108 Cd100 2.277 1_655 S
O108 C103 1.209 . S
C109 O106 1.258 . S
C109 O111 1.282 . S
O110 Cd102 2.277 . S
O110 C103 1.226 . S
O111 Cd102 2.356 . S
O111 C109 1.282 . S
C112 O113 1.306 1_565 S
C112 O115 1.160 . S
O113 C112 1.306 1_545 S
O113 Cd114 2.228 . S
Cd114 O113 2.228 . S
Cd114 O118 2.273 1_545 S
Cd114 O122 2.277 1_545 S
O115 C112 1.160 . S
O115 Cd116 2.203 . S
Cd116 O115 2.203 . S
Cd116 O118 2.411 . S
Cd116 O119 2.333 . S
Cd116 O120 2.352 . S
Cd116 O124 2.277 . S
Cd116 O125 2.356 . S
C117 O122 1.209 . S
C117 O124 1.226 . S
O118 Cd114 2.273 1_565 S
O118 Cd116 2.411 . S
O118 C121 1.320 . S
O119 Cd116 2.333 . S
O119 C121 1.214 . S
O120 Cd116 2.352 . S
O120 C123 1.258 . S
C121 O118 1.320 . S
C121 O119 1.214 . S
O122 Cd114 2.277 1_565 S
O122 C117 1.209 . S
C123 O120 1.258 . S
C123 O125 1.282 . S
O124 Cd116 2.277 . S
O124 C117 1.226 . S
O125 Cd116 2.356 . S
O125 C123 1.282 . S
C126 O127 1.306 . S
C126 O129 1.160 . S
O127 C126 1.306 . S
O127 Cd128 2.228 . S
Cd128 O127 2.228 . S
Cd128 O132 2.273 . S
Cd128 O136 2.277 . S
O129 C126 1.160 . S
O129 Cd130 2.203 . S
Cd130 O129 2.203 . S
Cd130 O132 2.411 . S
Cd130 O133 2.333 . S
Cd130 O134 2.352 . S
Cd130 O138 2.277 . S
Cd130 O139 2.356 . S
C131 O136 1.209 . S
C131 O138 1.226 . S
O132 Cd128 2.273 . S
O132 Cd130 2.411 . S
O132 C135 1.320 . S
O133 Cd130 2.333 . S
O133 C135 1.214 . S
O134 Cd130 2.352 . S
O134 C137 1.258 . S
C135 O132 1.320 . S
C135 O133 1.214 . S
O136 Cd128 2.277 . S
O136 C131 1.209 . S
C137 O134 1.258 . S
C137 O139 1.282 . S
O138 Cd130 2.277 . S
O138 C131 1.226 . S
O139 Cd130 2.356 . S
O139 C137 1.282 . S
C140 O141 1.306 1_455 S
C140 O143 1.160 . S
O141 C140 1.306 1_655 S
O141 Cd142 2.228 . S
Cd142 O141 2.228 . S
Cd142 O146 2.273 1_655 S
Cd142 O150 2.277 1_655 S
O143 C140 1.160 . S
O143 Cd144 2.203 . S
Cd144 O143 2.203 . S
Cd144 O146 2.411 . S
Cd144 O147 2.333 1_556 S
Cd144 O148 2.352 . S
Cd144 O152 2.277 . S
Cd144 O153 2.356 . S
C145 O150 1.209 . S
C145 O152 1.226 . S
O146 Cd142 2.273 1_455 S
O146 Cd144 2.411 . S
O146 C149 1.320 1_556 S
O147 Cd144 2.333 1_554 S
O147 C149 1.214 . S
O148 Cd144 2.352 . S
O148 C151 1.258 . S
C149 O146 1.320 1_554 S
C149 O147 1.214 . S
O150 Cd142 2.277 1_455 S
O150 C145 1.209 . S
C151 O148 1.258 . S
C151 O153 1.282 . S
O152 Cd144 2.277 . S
O152 C145 1.226 . S
O153 Cd144 2.356 . S
O153 C151 1.282 . S
C154 O155 1.306 1_545 S
C154 O157 1.160 . S
O155 C154 1.306 1_565 S
O155 Cd156 2.228 . S
Cd156 O155 2.228 . S
Cd156 O160 2.273 1_565 S
Cd156 O164 2.277 1_565 S
O157 C154 1.160 . S
O157 Cd158 2.203 . S
Cd158 O157 2.203 . S
Cd158 O160 2.411 . S
Cd158 O161 2.333 . S
Cd158 O162 2.352 . S
Cd158 O166 2.277 . S
Cd158 O167 2.356 . S
C159 O164 1.209 . S
C159 O166 1.226 . S
O160 Cd156 2.273 1_545 S
O160 Cd158 2.411 . S
O160 C163 1.320 . S
O161 Cd158 2.333 . S
O161 C163 1.214 . S
O162 Cd158 2.352 . S
O162 C165 1.258 . S
C163 O160 1.320 . S
C163 O161 1.214 . S
O164 Cd156 2.277 1_545 S
O164 C159 1.209 . S
C165 O162 1.258 . S
C165 O167 1.282 . S
O166 Cd158 2.277 . S
O166 C159 1.226 . S
O167 Cd158 2.356 . S
O167 C165 1.282 . S
C168 C169 1.391 . S
C168 C170 1.394 . S
C168 H184 0.931 . S
C169 C168 1.391 . S
C169 C173 1.376 . S
C170 C168 1.394 . S
C170 C171 1.369 . S
C170 C174 1.531 . S
C171 C170 1.369 . S
C171 C172 1.410 . S
C171 C179 1.503 . S
C172 C171 1.410 . S
C172 C173 1.392 . S
C172 C175 1.511 . S
C173 C169 1.376 . S
C173 C172 1.392 . S
C173 H185 0.929 . S
C174 C170 1.531 . S
C174 H186 0.960 . S
C174 H187 0.962 . S
C174 H188 0.960 . S
C175 C172 1.511 . S
C175 H189 0.961 . S
C175 H190 0.961 . S
C175 H191 0.961 . S
C176 C177 1.370 . S
C176 C178 1.363 . S
C176 H192 0.931 . S
C177 C176 1.370 . S
C177 C181 1.408 . S
C178 C176 1.363 . S
C178 C179 1.370 . S
C178 C182 1.524 . S
C179 C171 1.503 . S
C179 C178 1.370 . S
C179 C180 1.403 . S
C180 C179 1.403 . S
C180 C181 1.404 . S
C180 C183 1.539 . S
C181 C177 1.408 . S
C181 C180 1.404 . S
C181 H193 0.930 . S
C182 C178 1.524 . S
C182 H194 0.956 . S
C182 H195 0.961 . S
C182 H196 0.961 . S
C183 C180 1.539 . S
C183 H197 0.958 . S
C183 H198 0.961 . S
C183 H199 0.960 . S
H184 C168 0.931 . S
H185 C173 0.929 . S
H186 C174 0.960 . S
H187 C174 0.962 . S
H188 C174 0.960 . S
H189 C175 0.961 . S
H190 C175 0.961 . S
H191 C175 0.961 . S
H192 C176 0.931 . S
H193 C181 0.930 . S
H194 C182 0.956 . S
H195 C182 0.961 . S
H196 C182 0.961 . S
H197 C183 0.958 . S
H198 C183 0.961 . S
H199 C183 0.960 . S
C200 C201 1.391 1_455 S
C200 C202 1.394 . S
C200 H216 0.931 . S
C201 C200 1.391 1_655 S
C201 C205 1.376 . S
C202 C200 1.394 . S
C202 C203 1.369 1_455 S
C202 C206 1.531 . S
C203 C202 1.369 1_655 S
C203 C204 1.410 . S
C203 C211 1.503 1_655 S
C204 C203 1.410 . S
C204 C205 1.392 . S
C204 C207 1.511 . S
C205 C201 1.376 . S
C205 C204 1.392 . S
C205 H217 0.929 . S
C206 C202 1.531 . S
C206 H218 0.960 . S
C206 H219 0.962 . S
C206 H220 0.960 . S
C207 C204 1.511 . S
C207 H221 0.961 . S
C207 H222 0.961 . S
C207 H223 0.961 . S
C208 C209 1.370 . S
C208 C210 1.363 . S
C208 H224 0.931 . S
C209 C208 1.370 . S
C209 C213 1.408 . S
C210 C208 1.363 . S
C210 C211 1.370 . S
C210 C214 1.524 1_455 S
C211 C203 1.503 1_455 S
C211 C210 1.370 . S
C211 C212 1.403 . S
C212 C211 1.403 . S
C212 C213 1.404 . S
C212 C215 1.539 . S
C213 C209 1.408 . S
C213 C212 1.404 . S
C213 H225 0.930 . S
C214 C210 1.524 1_655 S
C214 H226 0.956 1_655 S
C214 H227 0.961 . S
C214 H228 0.961 . S
C215 C212 1.539 . S
C215 H229 0.958 . S
C215 H230 0.961 1_455 S
C215 H231 0.960 1_455 S
H216 C200 0.931 . S
H217 C205 0.929 . S
H218 C206 0.960 . S
H219 C206 0.962 . S
H220 C206 0.960 . S
H221 C207 0.961 . S
H222 C207 0.961 . S
H223 C207 0.961 . S
H224 C208 0.931 . S
H225 C213 0.930 . S
H226 C214 0.956 1_455 S
H227 C214 0.961 . S
H228 C214 0.961 . S
H229 C215 0.958 . S
H230 C215 0.961 1_655 S
H231 C215 0.960 1_655 S
C232 C233 1.391 . S
C232 C234 1.394 . S
C232 H248 0.931 . S
C233 C232 1.391 . S
C233 C237 1.392 . S
C234 C232 1.394 . S
C234 C235 1.369 1_565 S
C234 C238 1.531 . S
C235 C234 1.369 1_545 S
C235 C236 1.410 . S
C235 C243 1.503 1_556 S
C236 C235 1.410 . S
C236 C237 1.388 1_545 S
C236 C239 1.511 . S
C237 C233 1.392 . S
C237 C236 1.388 1_565 S
C237 H249 0.898 1_565 S
C238 C234 1.531 . S
C238 H250 0.960 1_566 S
C238 H251 0.962 . S
C238 H252 0.960 . S
C239 C236 1.511 . S
C239 H253 0.961 . S
C239 H254 0.961 1_556 S
C239 H255 0.961 . S
C240 C241 1.370 1_565 S
C240 C242 1.363 . S
C240 H256 0.931 . S
C241 C240 1.370 1_545 S
C241 C245 1.408 . S
C242 C240 1.363 . S
C242 C243 1.370 1_565 S
C242 C246 1.524 . S
C243 C235 1.503 1_554 S
C243 C242 1.370 1_545 S
C243 C244 1.403 . S
C244 C243 1.403 . S
C244 C245 1.404 . S
C244 C247 1.539 . S
C245 C241 1.408 . S
C245 C244 1.404 . S
C245 H257 0.930 . S
C246 C242 1.524 . S
C246 H258 0.956 . S
C246 H259 0.961 . S
C246 H260 0.961 . S
C247 C244 1.539 . S
C247 H261 0.958 . S
C247 H262 0.961 . S
C247 H263 0.960 1_554 S
H248 C232 0.931 . S
H249 C237 0.898 1_545 S
H250 C238 0.960 1_544 S
H251 C238 0.962 . S
H252 C238 0.960 . S
H253 C239 0.961 . S
H254 C239 0.961 1_554 S
H255 C239 0.961 . S
H256 C240 0.931 . S
H257 C245 0.930 . S
H258 C246 0.956 . S
H259 C246 0.961 . S
H260 C246 0.961 . S
H261 C247 0.958 . S
H262 C247 0.961 . S
H263 C247 0.960 1_556 S
C264 C265 1.391 . S
C264 C266 1.394 . S
C264 H280 0.931 . S
C265 C264 1.391 . S
C265 C269 1.376 . S
C266 C264 1.394 . S
C266 C267 1.369 . S
C266 C270 1.531 . S
C267 C266 1.369 . S
C267 C268 1.410 . S
C267 C275 1.503 . S
C268 C267 1.410 . S
C268 C269 1.392 . S
C268 C271 1.511 . S
C269 C265 1.376 . S
C269 C268 1.392 . S
C269 H281 0.929 . S
C270 C266 1.531 . S
C270 H282 0.960 . S
C270 H283 0.962 . S
C270 H284 0.960 . S
C271 C268 1.511 . S
C271 H285 0.961 . S
C271 H286 0.961 . S
C271 H287 0.961 . S
C272 C273 1.370 . S
C272 C274 1.363 . S
C272 H288 0.931 . S
C273 C272 1.370 . S
C273 C277 1.408 . S
C274 C272 1.363 . S
C274 C275 1.370 . S
C274 C278 1.524 . S
C275 C267 1.503 . S
C275 C274 1.370 . S
C275 C276 1.403 . S
C276 C275 1.403 . S
C276 C277 1.404 . S
C276 C279 1.539 . S
C277 C273 1.408 . S
C277 C276 1.404 . S
C277 H289 0.930 . S
C278 C274 1.524 . S
C278 H290 0.956 . S
C278 H291 0.961 . S
C278 H292 0.961 . S
C279 C276 1.539 . S
C279 H293 0.958 . S
C279 H294 0.961 . S
C279 H295 0.960 . S
H280 C264 0.931 . S
H281 C269 0.929 . S
H282 C270 0.960 . S
H283 C270 0.962 . S
H284 C270 0.960 . S
H285 C271 0.961 . S
H286 C271 0.961 . S
H287 C271 0.961 . S
H288 C272 0.931 . S
H289 C277 0.930 . S
H290 C278 0.956 . S
H291 C278 0.961 . S
H292 C278 0.961 . S
H293 C279 0.958 . S
H294 C279 0.961 . S
H295 C279 0.960 . S
C296 C297 1.391 . S
C296 C298 1.394 . S
C296 H312 0.931 . S
C297 C296 1.391 . S
C297 C301 1.376 1_655 S
C298 C296 1.394 . S
C298 C299 1.369 1_655 S
C298 C302 1.531 . S
C299 C298 1.369 1_455 S
C299 C300 1.410 . S
C299 C307 1.503 . S
C300 C299 1.410 . S
C300 C301 1.392 . S
C300 C303 1.511 . S
C301 C297 1.376 1_455 S
C301 C300 1.392 . S
C301 H313 0.929 . S
C302 C298 1.531 . S
C302 H314 0.960 1_655 S
C302 H315 0.962 . S
C302 H316 0.960 . S
C303 C300 1.511 . S
C303 H317 0.961 . S
C303 H318 0.961 . S
C303 H319 0.961 . S
C304 C305 1.370 1_655 S
C304 C306 1.363 . S
C304 H320 0.931 . S
C305 C304 1.370 1_455 S
C305 C309 1.408 . S
C306 C304 1.363 . S
C306 C307 1.370 1_655 S
C306 C310 1.524 . S
C307 C299 1.503 . S
C307 C306 1.370 1_455 S
C307 C308 1.403 . S
C308 C307 1.403 . S
C308 C309 1.404 . S
C308 C311 1.539 . S
C309 C305 1.408 . S
C309 C308 1.404 . S
C309 H321 0.930 . S
C310 C306 1.524 . S
C310 H322 0.956 . S
C310 H323 0.961 . S
C310 H324 0.961 . S
C311 C308 1.539 . S
C311 H325 0.958 . S
C311 H326 0.961 . S
C311 H327 0.960 . S
H312 C296 0.931 . S
H313 C301 0.929 . S
H314 C302 0.960 1_455 S
H315 C302 0.962 . S
H316 C302 0.960 . S
H317 C303 0.961 . S
H318 C303 0.961 . S
H319 C303 0.961 . S
H320 C304 0.931 . S
H321 C309 0.930 . S
H322 C310 0.956 . S
H323 C310 0.961 . S
H324 C310 0.961 . S
H325 C311 0.958 . S
H326 C311 0.961 . S
H327 C311 0.960 . S
C328 C329 1.391 . S
C328 C330 1.394 . S
C328 H344 0.931 . S
C329 C328 1.391 . S
C329 C333 1.376 . S
C330 C328 1.394 . S
C330 C331 1.369 . S
C330 C334 1.531 . S
C331 C330 1.369 . S
C331 C332 1.410 1_565 S
C331 C339 1.503 1_554 S
C332 C331 1.410 1_545 S
C332 C333 1.392 1_545 S
C332 C335 1.511 . S
C333 C329 1.376 . S
C333 C332 1.392 1_565 S
C333 H345 0.929 1_565 S
C334 C330 1.531 . S
C334 H346 0.960 1_554 S
C334 H347 0.962 . S
C334 H348 0.960 . S
C335 C332 1.511 . S
C335 H349 0.961 . S
C335 H350 0.961 . S
C335 H351 0.961 . S
C336 C337 1.370 . S
C336 C338 1.363 . S
C336 H352 0.931 . S
C337 C336 1.370 . S
C337 C341 1.408 1_545 S
C338 C336 1.363 . S
C338 C339 1.370 1_545 S
C338 C342 1.524 . S
C339 C331 1.503 1_556 S
C339 C338 1.370 1_565 S
C339 C340 1.403 . S
C340 C339 1.403 . S
C340 C341 1.404 . S
C340 C343 1.539 . S
C341 C337 1.408 1_565 S
C341 C340 1.404 . S
C341 H353 0.930 . S
C342 C338 1.524 . S
C342 H354 0.956 1_556 S
C342 H355 0.961 1_556 S
C342 H356 0.961 . S
C343 C340 1.539 . S
C343 H357 0.958 . S
C343 H358 0.961 . S
C343 H359 0.960 . S
H344 C328 0.931 . S
H345 C333 0.929 1_545 S
H346 C334 0.960 1_556 S
H347 C334 0.962 . S
H348 C334 0.960 . S
H349 C335 0.961 . S
H350 C335 0.961 . S
H351 C335 0.961 . S
H352 C336 0.931 . S
H353 C341 0.930 . S
H354 C342 0.956 1_554 S
H355 C342 0.961 1_554 S
H356 C342 0.961 . S
H357 C343 0.958 . S
H358 C343 0.961 . S
H359 C343 0.960 . S
C360 C361 1.392 1_554 S
C360 C362 1.393 . S
C360 H376 0.930 . S
C361 C360 1.392 1_556 S
C361 C365 1.376 . S
C362 C360 1.393 . S
C362 C363 1.369 1_554 S
C362 C366 1.531 . S
C363 C362 1.369 1_556 S
C363 C364 1.410 . S
C363 C371 1.503 1_556 S
C364 C363 1.410 . S
C364 C365 1.392 . S
C364 C367 1.511 . S
C365 C361 1.376 . S
C365 C364 1.392 . S
C365 H377 0.929 . S
C366 C362 1.531 . S
C366 H378 0.960 . S
C366 H379 0.962 . S
C366 H380 0.960 . S
C367 C364 1.511 . S
C367 H381 0.961 . S
C367 H382 0.961 . S
C367 H383 0.961 . S
C368 C369 1.370 . S
C368 C370 1.363 . S
C368 H384 0.931 . S
C369 C368 1.370 . S
C369 C373 1.408 . S
C370 C368 1.363 . S
C370 C371 1.370 . S
C370 C374 1.524 . S
C371 C363 1.503 1_554 S
C371 C370 1.370 . S
C371 C372 1.403 1_554 S
C372 C371 1.403 1_556 S
C372 C373 1.404 1_556 S
C372 C375 1.539 . S
C373 C369 1.408 . S
C373 C372 1.404 1_554 S
C373 H385 0.930 . S
C374 C370 1.524 . S
C374 H386 0.956 . S
C374 H387 0.961 . S
C374 H388 0.961 . S
C375 C372 1.539 . S
C375 H389 0.958 . S
C375 H390 0.961 . S
C375 H391 0.960 . S
H376 C360 0.930 . S
H377 C365 0.929 . S
H378 C366 0.960 . S
H379 C366 0.962 . S
H380 C366 0.960 . S
H381 C367 0.961 . S
H382 C367 0.961 . S
H383 C367 0.961 . S
H384 C368 0.931 . S
H385 C373 0.930 . S
H386 C374 0.956 . S
H387 C374 0.961 . S
H388 C374 0.961 . S
H389 C375 0.958 . S
H390 C375 0.961 . S
H391 C375 0.960 . S
C392 C393 1.391 . S
C392 C394 1.394 . S
C392 H408 0.931 . S
C393 C392 1.391 . S
C393 C397 1.376 . S
C394 C392 1.394 . S
C394 C395 1.369 . S
C394 C398 1.531 . S
C395 C394 1.369 . S
C395 C396 1.410 . S
C395 C403 1.503 . S
C396 C395 1.410 . S
C396 C397 1.392 . S
C396 C399 1.511 . S
C397 C393 1.376 . S
C397 C396 1.392 . S
C397 H409 0.929 . S
C398 C394 1.531 . S
C398 H410 0.960 . S
C398 H411 0.962 . S
C398 H412 0.960 . S
C399 C396 1.511 . S
C399 H413 0.961 . S
C399 H414 0.961 . S
C399 H415 0.961 . S
C400 C401 1.370 . S
C400 C402 1.363 . S
C400 H416 0.931 . S
C401 C400 1.370 . S
C401 C405 1.408 . S
C402 C400 1.363 . S
C402 C403 1.370 . S
C402 C406 1.524 . S
C403 C395 1.503 . S
C403 C402 1.370 . S
C403 C404 1.403 . S
C404 C403 1.403 . S
C404 C405 1.404 . S
C404 C407 1.539 . S
C405 C401 1.408 . S
C405 C404 1.404 . S
C405 H417 0.930 . S
C406 C402 1.524 . S
C406 H418 0.956 . S
C406 H419 0.961 . S
C406 H420 0.961 . S
C407 C404 1.539 . S
C407 H421 0.958 . S
C407 H422 0.961 . S
C407 H423 0.960 . S
H408 C392 0.931 . S
H409 C397 0.929 . S
H410 C398 0.960 . S
H411 C398 0.962 . S
H412 C398 0.960 . S
H413 C399 0.961 . S
H414 C399 0.961 . S
H415 C399 0.961 . S
H416 C400 0.931 . S
H417 C405 0.930 . S
H418 C406 0.956 . S
H419 C406 0.961 . S
H420 C406 0.961 . S
H421 C407 0.958 . S
H422 C407 0.961 . S
H423 C407 0.960 . S
C424 C425 1.391 . S
C424 C426 1.394 . S
C424 H440 0.931 . S
C425 C424 1.391 . S
C425 C429 1.376 . S
C426 C424 1.394 . S
C426 C427 1.369 . S
C426 C430 1.531 . S
C427 C426 1.369 . S
C427 C428 1.410 . S
C427 C435 1.503 . S
C428 C427 1.410 . S
C428 C429 1.392 . S
C428 C431 1.511 . S
C429 C425 1.376 . S
C429 C428 1.392 . S
C429 H441 0.929 . S
C430 C426 1.531 . S
C430 H442 0.960 . S
C430 H443 0.962 . S
C430 H444 0.960 . S
C431 C428 1.511 . S
C431 H445 0.961 . S
C431 H446 0.961 . S
C431 H447 0.961 . S
C432 C433 1.370 . S
C432 C434 1.363 . S
C432 H448 0.931 . S
C433 C432 1.370 . S
C433 C437 1.408 . S
C434 C432 1.363 . S
C434 C435 1.370 . S
C434 C438 1.524 . S
C435 C427 1.503 . S
C435 C434 1.370 . S
C435 C436 1.403 . S
C436 C435 1.403 . S
C436 C437 1.404 . S
C436 C439 1.539 . S
C437 C433 1.408 . S
C437 C436 1.404 . S
C437 H449 0.930 . S
C438 C434 1.524 . S
C438 H450 0.956 . S
C438 H451 0.961 . S
C438 H452 0.961 . S
C439 C436 1.539 . S
C439 H453 0.958 . S
C439 H454 0.961 . S
C439 H455 0.960 . S
H440 C424 0.931 . S
H441 C429 0.929 . S
H442 C430 0.960 . S
H443 C430 0.962 . S
H444 C430 0.960 . S
H445 C431 0.961 . S
H446 C431 0.961 . S
H447 C431 0.961 . S
H448 C432 0.931 . S
H449 C437 0.930 . S
H450 C438 0.956 . S
H451 C438 0.961 . S
H452 C438 0.961 . S
H453 C439 0.958 . S
H454 C439 0.961 . S
H455 C439 0.960 . S
C456 C457 1.391 . S
C456 C458 1.392 1_554 S
C456 H472 0.931 . S
C457 C456 1.391 . S
C457 C461 1.376 . S
C458 C456 1.392 1_556 S
C458 C459 1.367 1_556 S
C458 C462 1.534 . S
C459 C458 1.367 1_554 S
C459 C460 1.410 . S
C459 C467 1.503 1_554 S
C460 C459 1.410 . S
C460 C461 1.392 . S
C460 C463 1.511 . S
C461 C457 1.376 . S
C461 C460 1.392 . S
C461 H473 0.929 . S
C462 C458 1.534 . S
C462 H474 0.960 . S
C462 H475 0.962 . S
C462 H476 0.960 . S
C463 C460 1.511 . S
C463 H477 0.961 . S
C463 H478 0.961 . S
C463 H479 0.961 . S
C464 C465 1.370 . S
C464 C466 1.363 . S
C464 H480 0.931 . S
C465 C464 1.370 . S
C465 C469 1.399 1_556 S
C466 C464 1.363 . S
C466 C467 1.370 . S
C466 C470 1.524 . S
C467 C459 1.503 1_556 S
C467 C466 1.370 . S
C467 C468 1.403 1_556 S
C468 C467 1.403 1_554 S
C468 C469 1.408 . S
C468 C471 1.539 . S
C469 C465 1.399 1_554 S
C469 C468 1.408 . S
C469 H481 0.935 . S
C470 C466 1.524 . S
C470 H482 0.956 . S
C470 H483 0.961 . S
C470 H484 0.961 . S
C471 C468 1.539 . S
C471 H485 0.958 . S
C471 H486 0.961 . S
C471 H487 0.960 . S
H472 C456 0.931 . S
H473 C461 0.929 . S
H474 C462 0.960 . S
H475 C462 0.962 . S
H476 C462 0.960 . S
H477 C463 0.961 . S
H478 C463 0.961 . S
H479 C463 0.961 . S
H480 C464 0.931 . S
H481 C469 0.935 . S
H482 C470 0.956 . S
H483 C470 0.961 . S
H484 C470 0.961 . S
H485 C471 0.958 . S
H486 C471 0.961 . S
H487 C471 0.960 . S
C488 C489 1.391 . S
C488 C490 1.394 . S
C488 H504 0.931 . S
C489 C488 1.391 . S
C489 C493 1.376 . S
C490 C488 1.394 . S
C490 C491 1.369 . S
C490 C494 1.531 . S
C491 C490 1.369 . S
C491 C492 1.410 . S
C491 C499 1.503 . S
C492 C491 1.410 . S
C492 C493 1.392 . S
C492 C495 1.511 . S
C493 C489 1.376 . S
C493 C492 1.392 . S
C493 H505 0.929 . S
C494 C490 1.531 . S
C494 H506 0.960 . S
C494 H507 0.962 . S
C494 H508 0.960 . S
C495 C492 1.511 . S
C495 H509 0.961 . S
C495 H510 0.961 . S
C495 H511 0.961 . S
C496 C497 1.370 . S
C496 C498 1.363 . S
C496 H512 0.931 . S
C497 C496 1.370 . S
C497 C501 1.408 . S
C498 C496 1.363 . S
C498 C499 1.370 . S
C498 C502 1.524 . S
C499 C491 1.503 . S
C499 C498 1.370 . S
C499 C500 1.403 . S
C500 C499 1.403 . S
C500 C501 1.404 . S
C500 C503 1.539 . S
C501 C497 1.408 . S
C501 C500 1.404 . S
C501 H513 0.930 . S
C502 C498 1.524 . S
C502 H514 0.956 . S
C502 H515 0.961 . S
C502 H516 0.961 . S
C503 C500 1.539 . S
C503 H517 0.958 . S
C503 H518 0.961 . S
C503 H519 0.960 . S
H504 C488 0.931 . S
H505 C493 0.929 . S
H506 C494 0.960 . S
H507 C494 0.962 . S
H508 C494 0.960 . S
H509 C495 0.961 . S
H510 C495 0.961 . S
H511 C495 0.961 . S
H512 C496 0.931 . S
H513 C501 0.930 . S
H514 C502 0.956 . S
H515 C502 0.961 . S
H516 C502 0.961 . S
H517 C503 0.958 . S
H518 C503 0.961 . S
H519 C503 0.960 . S
C520 C521 1.391 . S
C520 C522 1.394 . S
C520 H536 0.931 . S
C521 C520 1.391 . S
C521 C525 1.376 . S
C522 C520 1.394 . S
C522 C523 1.369 . S
C522 C526 1.531 . S
C523 C522 1.369 . S
C523 C524 1.410 . S
C523 C531 1.503 . S
C524 C523 1.410 . S
C524 C525 1.392 . S
C524 C527 1.511 . S
C525 C521 1.376 . S
C525 C524 1.392 . S
C525 H537 0.929 . S
C526 C522 1.531 . S
C526 H538 0.960 . S
C526 H539 0.962 . S
C526 H540 0.960 . S
C527 C524 1.511 . S
C527 H541 0.961 . S
C527 H542 0.961 . S
C527 H543 0.961 . S
C528 C529 1.370 . S
C528 C530 1.363 . S
C528 H544 0.931 . S
C529 C528 1.370 . S
C529 C533 1.408 . S
C530 C528 1.363 . S
C530 C531 1.370 . S
C530 C534 1.524 . S
C531 C523 1.503 . S
C531 C530 1.370 . S
C531 C532 1.403 . S
C532 C531 1.403 . S
C532 C533 1.404 . S
C532 C535 1.539 . S
C533 C529 1.408 . S
C533 C532 1.404 . S
C533 H545 0.930 . S
C534 C530 1.524 . S
C534 H546 0.956 . S
C534 H547 0.961 . S
C534 H548 0.961 . S
C535 C532 1.539 . S
C535 H549 0.958 . S
C535 H550 0.961 . S
C535 H551 0.960 . S
H536 C520 0.931 . S
H537 C525 0.929 . S
H538 C526 0.960 . S
H539 C526 0.962 . S
H540 C526 0.960 . S
H541 C527 0.961 . S
H542 C527 0.961 . S
H543 C527 0.961 . S
H544 C528 0.931 . S
H545 C533 0.930 . S
H546 C534 0.956 . S
H547 C534 0.961 . S
H548 C534 0.961 . S
H549 C535 0.958 . S
H550 C535 0.961 . S
H551 C535 0.960 . S
C552 C553 1.391 . S
C552 C554 1.394 . S
C552 H568 0.931 . S
C553 C552 1.391 . S
C553 C557 1.376 . S
C554 C552 1.394 . S
C554 C555 1.369 . S
C554 C558 1.531 . S
C555 C554 1.369 . S
C555 C556 1.410 . S
C555 C563 1.503 . S
C556 C555 1.410 . S
C556 C557 1.392 . S
C556 C559 1.511 . S
C557 C553 1.376 . S
C557 C556 1.392 . S
C557 H569 0.929 . S
C558 C554 1.531 . S
C558 H570 0.960 . S
C558 H571 0.962 . S
C558 H572 0.960 . S
C559 C556 1.511 . S
C559 H573 0.961 . S
C559 H574 0.961 . S
C559 H575 0.961 . S
C560 C561 1.370 . S
C560 C562 1.363 . S
C560 H576 0.931 . S
C561 C560 1.370 . S
C561 C565 1.408 . S
C562 C560 1.363 . S
C562 C563 1.370 . S
C562 C566 1.524 . S
C563 C555 1.503 . S
C563 C562 1.370 . S
C563 C564 1.403 . S
C564 C563 1.403 . S
C564 C565 1.404 . S
C564 C567 1.539 . S
C565 C561 1.408 . S
C565 C564 1.404 . S
C565 H577 0.930 . S
C566 C562 1.524 . S
C566 H578 0.956 . S
C566 H579 0.961 . S
C566 H580 0.961 . S
C567 C564 1.539 . S
C567 H581 0.958 . S
C567 H582 0.961 . S
C567 H583 0.960 . S
H568 C552 0.931 . S
H569 C557 0.929 . S
H570 C558 0.960 . S
H571 C558 0.962 . S
H572 C558 0.960 . S
H573 C559 0.961 . S
H574 C559 0.961 . S
H575 C559 0.961 . S
H576 C560 0.931 . S
H577 C565 0.930 . S
H578 C566 0.956 . S
H579 C566 0.961 . S
H580 C566 0.961 . S
H581 C567 0.958 . S
H582 C567 0.961 . S
H583 C567 0.960 . S
C584 C585 1.391 . S
C584 C586 1.394 . S
C584 H600 0.931 1_655 S
C585 C584 1.391 . S
C585 C589 1.376 . S
C586 C584 1.394 . S
C586 C587 1.369 . S
C586 C590 1.531 1_655 S
C587 C586 1.369 . S
C587 C588 1.410 . S
C587 C595 1.503 . S
C588 C587 1.410 . S
C588 C589 1.392 . S
C588 C591 1.511 . S
C589 C585 1.376 . S
C589 C588 1.392 . S
C589 H601 0.929 . S
C590 C586 1.531 1_455 S
C590 H602 0.960 1_455 S
C590 H603 0.962 . S
C590 H604 0.960 1_455 S
C591 C588 1.511 . S
C591 H605 0.961 . S
C591 H606 0.961 . S
C591 H607 0.961 . S
C592 C593 1.370 . S
C592 C594 1.363 . S
C592 H608 0.931 . S
C593 C592 1.370 . S
C593 C597 1.408 1_455 S
C594 C592 1.363 . S
C594 C595 1.370 1_455 S
C594 C598 1.524 . S
C595 C587 1.503 . S
C595 C594 1.370 1_655 S
C595 C596 1.403 . S
C596 C595 1.403 . S
C596 C597 1.404 . S
C596 C599 1.539 . S
C597 C593 1.408 1_655 S
C597 C596 1.404 . S
C597 H609 0.930 . S
C598 C594 1.524 . S
C598 H610 0.956 . S
C598 H611 0.961 . S
C598 H612 0.961 . S
C599 C596 1.539 . S
C599 H613 0.958 . S
C599 H614 0.961 . S
C599 H615 0.960 . S
H600 C584 0.931 1_455 S
H601 C589 0.929 . S
H602 C590 0.960 1_655 S
H603 C590 0.962 . S
H604 C590 0.960 1_655 S
H605 C591 0.961 . S
H606 C591 0.961 . S
H607 C591 0.961 . S
H608 C592 0.931 . S
H609 C597 0.930 . S
H610 C598 0.956 . S
H611 C598 0.961 . S
H612 C598 0.961 . S
H613 C599 0.958 . S
H614 C599 0.961 . S
H615 C599 0.960 . S
C616 C617 1.391 1_545 S
C616 C618 1.394 . S
C616 H632 0.931 . S
C617 C616 1.391 1_565 S
C617 C621 1.376 . S
C618 C616 1.394 . S
C618 C619 1.369 . S
C618 C622 1.531 . S
C619 C618 1.369 . S
C619 C620 1.410 1_545 S
C619 C627 1.503 . S
C620 C619 1.410 1_565 S
C620 C621 1.392 . S
C620 C623 1.511 . S
C621 C617 1.376 . S
C621 C620 1.392 . S
C621 H633 0.929 . S
C622 C618 1.531 . S
C622 H634 0.960 . S
C622 H635 0.962 . S
C622 H636 0.960 . S
C623 C620 1.511 . S
C623 H637 0.961 . S
C623 H638 0.961 . S
C623 H639 0.961 . S
C624 C625 1.370 1_565 S
C624 C626 1.363 . S
C624 H640 0.931 . S
C625 C624 1.370 1_545 S
C625 C629 1.408 . S
C626 C624 1.363 . S
C626 C627 1.370 1_565 S
C626 C630 1.524 . S
C627 C619 1.503 . S
C627 C626 1.370 1_545 S
C627 C628 1.403 . S
C628 C627 1.403 . S
C628 C629 1.404 . S
C628 C631 1.539 . S
C629 C625 1.408 . S
C629 C628 1.404 . S
C629 H641 0.930 . S
C630 C626 1.524 . S
C630 H642 0.956 . S
C630 H643 0.961 . S
C630 H644 0.961 . S
C631 C628 1.539 . S
C631 H645 0.958 . S
C631 H646 0.961 . S
C631 H647 0.960 . S
H632 C616 0.931 . S
H633 C621 0.929 . S
H634 C622 0.960 . S
H635 C622 0.962 . S
H636 C622 0.960 . S
H637 C623 0.961 . S
H638 C623 0.961 . S
H639 C623 0.961 . S
H640 C624 0.931 . S
H641 C629 0.930 . S
H642 C630 0.956 . S
H643 C630 0.961 . S
H644 C630 0.961 . S
H645 C631 0.958 . S
H646 C631 0.961 . S
H647 C631 0.960 . S
C648 C649 1.391 . S
C648 C650 1.394 . S
C648 H664 0.931 . S
C649 C648 1.391 . S
C649 C653 1.376 . S
C650 C648 1.394 . S
C650 C651 1.369 . S
C650 C654 1.531 . S
C651 C650 1.369 . S
C651 C652 1.410 . S
C651 C659 1.503 . S
C652 C651 1.410 . S
C652 C653 1.392 . S
C652 C655 1.511 . S
C653 C649 1.376 . S
C653 C652 1.392 . S
C653 H665 0.929 . S
C654 C650 1.531 . S
C654 H666 0.960 . S
C654 H667 0.962 . S
C654 H668 0.960 . S
C655 C652 1.511 . S
C655 H669 0.961 . S
C655 H670 0.961 . S
C655 H671 0.961 . S
C656 C657 1.370 . S
C656 C658 1.363 . S
C656 H672 0.931 . S
C657 C656 1.370 . S
C657 C661 1.408 . S
C658 C656 1.363 . S
C658 C659 1.370 . S
C658 C662 1.524 . S
C659 C651 1.503 . S
C659 C658 1.370 . S
C659 C660 1.403 . S
C660 C659 1.403 . S
C660 C661 1.404 . S
C660 C663 1.539 . S
C661 C657 1.408 . S
C661 C660 1.404 . S
C661 H673 0.930 . S
C662 C658 1.524 . S
C662 H674 0.956 . S
C662 H675 0.961 . S
C662 H676 0.961 . S
C663 C660 1.539 . S
C663 H677 0.958 . S
C663 H678 0.961 . S
C663 H679 0.960 . S
H664 C648 0.931 . S
H665 C653 0.929 . S
H666 C654 0.960 . S
H667 C654 0.962 . S
H668 C654 0.960 . S
H669 C655 0.961 . S
H670 C655 0.961 . S
H671 C655 0.961 . S
H672 C656 0.931 . S
H673 C661 0.930 . S
H674 C662 0.956 . S
H675 C662 0.961 . S
H676 C662 0.961 . S
H677 C663 0.958 . S
H678 C663 0.961 . S
H679 C663 0.960 . S
C680 C681 1.391 1_655 S
C680 C682 1.394 . S
C680 H696 0.931 . S
C681 C680 1.391 1_455 S
C681 C685 1.376 . S
C682 C680 1.394 . S
C682 C683 1.369 . S
C682 C686 1.531 . S
C683 C682 1.369 . S
C683 C684 1.410 1_655 S
C683 C691 1.503 . S
C684 C683 1.410 1_455 S
C684 C685 1.392 . S
C684 C687 1.511 . S
C685 C681 1.376 . S
C685 C684 1.392 . S
C685 H697 0.929 . S
C686 C682 1.531 . S
C686 H698 0.960 . S
C686 H699 0.960 1_655 S
C686 H700 0.960 . S
C687 C684 1.511 . S
C687 H701 0.961 . S
C687 H702 0.961 . S
C687 H703 0.961 1_455 S
C688 C689 1.370 1_455 S
C688 C690 1.363 . S
C688 H704 0.931 . S
C689 C688 1.370 1_655 S
C689 C693 1.408 . S
C690 C688 1.363 . S
C690 C691 1.370 1_455 S
C690 C694 1.524 . S
C691 C683 1.503 . S
C691 C690 1.370 1_655 S
C691 C692 1.403 . S
C692 C691 1.403 . S
C692 C693 1.404 . S
C692 C695 1.539 . S
C693 C689 1.408 . S
C693 C692 1.404 . S
C693 H705 0.930 . S
C694 C690 1.524 . S
C694 H706 0.956 . S
C694 H707 0.961 . S
C694 H708 0.961 . S
C695 C692 1.539 . S
C695 H709 0.958 . S
C695 H710 0.961 . S
C695 H711 0.960 . S
H696 C680 0.931 . S
H697 C685 0.929 . S
H698 C686 0.960 . S
H699 C686 0.960 1_455 S
H700 C686 0.960 . S
H701 C687 0.961 . S
H702 C687 0.961 . S
H703 C687 0.961 1_655 S
H704 C688 0.931 . S
H705 C693 0.930 . S
H706 C694 0.956 . S
H707 C694 0.961 . S
H708 C694 0.961 . S
H709 C695 0.958 . S
H710 C695 0.961 . S
H711 C695 0.960 . S
C712 C713 1.391 . S
C712 C714 1.394 . S
C712 H728 0.931 . S
C713 C712 1.391 . S
C713 C717 1.376 1_565 S
C714 C712 1.394 . S
C714 C715 1.369 . S
C714 C718 1.531 . S
C715 C714 1.369 . S
C715 C716 1.410 1_565 S
C715 C723 1.504 . S
C716 C715 1.410 1_545 S
C716 C717 1.392 . S
C716 C719 1.511 . S
C717 C713 1.376 1_545 S
C717 C716 1.392 . S
C717 H729 0.929 . S
C718 C714 1.531 . S
C718 H730 0.960 . S
C718 H731 0.962 . S
C718 H732 0.960 . S
C719 C716 1.511 . S
C719 H733 0.961 . S
C719 H734 0.961 . S
C719 H735 0.961 . S
C720 C721 1.370 . S
C720 C722 1.363 . S
C720 H736 0.931 . S
C721 C720 1.370 . S
C721 C725 1.408 1_545 S
C722 C720 1.363 . S
C722 C723 1.368 1_545 S
C722 C726 1.524 . S
C723 C715 1.504 . S
C723 C722 1.368 1_565 S
C723 C724 1.405 . S
C724 C723 1.405 . S
C724 C725 1.404 . S
C724 C727 1.539 . S
C725 C721 1.408 1_565 S
C725 C724 1.404 . S
C725 H737 0.930 . S
C726 C722 1.524 . S
C726 H738 0.956 1_545 S
C726 H739 0.961 . S
C726 H740 0.961 . S
C727 C724 1.539 . S
C727 H741 0.958 . S
C727 H742 0.961 . S
C727 H743 0.960 . S
H728 C712 0.931 . S
H729 C717 0.929 . S
H730 C718 0.960 . S
H731 C718 0.962 . S
H732 C718 0.960 . S
H733 C719 0.961 . S
H734 C719 0.961 . S
H735 C719 0.961 . S
H736 C720 0.931 . S
H737 C725 0.930 . S
H738 C726 0.956 1_565 S
H739 C726 0.961 . S
H740 C726 0.961 . S
H741 C727 0.958 . S
H742 C727 0.961 . S
H743 C727 0.960 . S
C744 C745 1.391 . S
C744 C746 1.394 . S
C744 H760 0.931 . S
C745 C744 1.391 . S
C745 C749 1.376 . S
C746 C744 1.394 . S
C746 C747 1.369 . S
C746 C750 1.531 . S
C747 C746 1.369 . S
C747 C748 1.410 . S
C747 C755 1.503 . S
C748 C747 1.410 . S
C748 C749 1.392 . S
C748 C751 1.511 1_554 S
C749 C745 1.376 . S
C749 C748 1.392 . S
C749 H761 0.929 1_554 S
C750 C746 1.531 . S
C750 H762 0.960 . S
C750 H763 0.962 . S
C750 H764 0.960 . S
C751 C748 1.511 1_556 S
C751 H765 0.961 . S
C751 H766 0.961 . S
C751 H767 0.961 . S
C752 C753 1.370 . S
C752 C754 1.363 . S
C752 H768 0.931 . S
C753 C752 1.370 . S
C753 C757 1.408 . S
C754 C752 1.363 . S
C754 C755 1.370 . S
C754 C758 1.524 . S
C755 C747 1.503 . S
C755 C754 1.370 . S
C755 C756 1.403 . S
C756 C755 1.403 . S
C756 C757 1.404 . S
C756 C759 1.539 . S
C757 C753 1.408 . S
C757 C756 1.404 . S
C757 H769 0.930 . S
C758 C754 1.524 . S
C758 H770 0.956 . S
C758 H771 0.961 . S
C758 H772 0.961 . S
C759 C756 1.539 . S
C759 H773 0.958 . S
C759 H774 0.961 . S
C759 H775 0.960 . S
H760 C744 0.931 . S
H761 C749 0.929 1_556 S
H762 C750 0.960 . S
H763 C750 0.962 . S
H764 C750 0.960 . S
H765 C751 0.961 . S
H766 C751 0.961 . S
H767 C751 0.961 . S
H768 C752 0.931 . S
H769 C757 0.930 . S
H770 C758 0.956 . S
H771 C758 0.961 . S
H772 C758 0.961 . S
H773 C759 0.958 . S
H774 C759 0.961 . S
H775 C759 0.960 . S
C776 C777 1.391 . S
C776 C778 1.394 . S
C776 H792 0.931 . S
C777 C776 1.391 . S
C777 C781 1.376 . S
C778 C776 1.394 . S
C778 C779 1.369 1_455 S
C778 C782 1.531 . S
C779 C778 1.369 1_655 S
C779 C780 1.410 . S
C779 C787 1.503 . S
C780 C779 1.410 . S
C780 C781 1.392 1_655 S
C780 C783 1.511 . S
C781 C777 1.376 . S
C781 C780 1.392 1_455 S
C781 H793 0.929 . S
C782 C778 1.531 . S
C782 H794 0.960 1_455 S
C782 H795 0.962 . S
C782 H796 0.960 . S
C783 C780 1.511 . S
C783 H797 0.961 . S
C783 H798 0.961 . S
C783 H799 0.961 . S
C784 C785 1.370 1_455 S
C784 C786 1.363 . S
C784 H800 0.931 . S
C785 C784 1.370 1_655 S
C785 C789 1.408 . S
C786 C784 1.363 . S
C786 C787 1.370 1_455 S
C786 C790 1.524 . S
C787 C779 1.503 . S
C787 C786 1.370 1_655 S
C787 C788 1.403 . S
C788 C787 1.403 . S
C788 C789 1.404 . S
C788 C791 1.539 . S
C789 C785 1.408 . S
C789 C788 1.404 . S
C789 H801 0.930 . S
C790 C786 1.524 . S
C790 H802 0.956 . S
C790 H803 0.961 . S
C790 H804 0.961 . S
C791 C788 1.539 . S
C791 H805 0.958 . S
C791 H806 0.961 . S
C791 H807 0.960 . S
H792 C776 0.931 . S
H793 C781 0.929 . S
H794 C782 0.960 1_655 S
H795 C782 0.962 . S
H796 C782 0.960 . S
H797 C783 0.961 . S
H798 C783 0.961 . S
H799 C783 0.961 . S
H800 C784 0.931 . S
H801 C789 0.930 . S
H802 C790 0.956 . S
H803 C790 0.961 . S
H804 C790 0.961 . S
H805 C791 0.958 . S
H806 C791 0.961 . S
H807 C791 0.960 . S
C808 C809 1.391 1_545 S
C808 C810 1.394 . S
C808 H824 0.931 . S
C809 C808 1.391 1_565 S
C809 C813 1.376 . S
C810 C808 1.394 . S
C810 C811 1.369 1_545 S
C810 C814 1.531 . S
C811 C810 1.369 1_565 S
C811 C812 1.410 . S
C811 C819 1.503 1_565 S
C812 C811 1.410 . S
C812 C813 1.392 . S
C812 C815 1.511 . S
C813 C809 1.376 . S
C813 C812 1.392 . S
C813 H825 0.929 . S
C814 C810 1.531 . S
C814 H826 0.960 . S
C814 H827 0.962 . S
C814 H828 0.960 . S
C815 C812 1.511 . S
C815 H829 0.961 . S
C815 H830 0.961 . S
C815 H831 0.961 . S
C816 C817 1.370 . S
C816 C818 1.363 . S
C816 H832 0.931 . S
C817 C816 1.370 . S
C817 C821 1.408 . S
C818 C816 1.363 . S
C818 C819 1.370 . S
C818 C822 1.524 . S
C819 C811 1.503 1_545 S
C819 C818 1.370 . S
C819 C820 1.403 1_545 S
C820 C819 1.403 1_565 S
C820 C821 1.404 1_565 S
C820 C823 1.539 . S
C821 C817 1.408 . S
C821 C820 1.404 1_545 S
C821 H833 0.927 . S
C822 C818 1.524 . S
C822 H834 0.956 . S
C822 H835 0.961 . S
C822 H836 0.961 . S
C823 C820 1.539 . S
C823 H837 0.958 . S
C823 H838 0.961 . S
C823 H839 0.960 . S
H824 C808 0.931 . S
H825 C813 0.929 . S
H826 C814 0.960 . S
H827 C814 0.962 . S
H828 C814 0.960 . S
H829 C815 0.961 . S
H830 C815 0.961 . S
H831 C815 0.961 . S
H832 C816 0.931 . S
H833 C821 0.927 . S
H834 C822 0.956 . S
H835 C822 0.961 . S
H836 C822 0.961 . S
H837 C823 0.958 . S
H838 C823 0.961 . S
H839 C823 0.960 . S
C840 C841 1.391 . S
C840 C842 1.394 . S
C840 H856 0.931 . S
C841 C840 1.391 . S
C841 C845 1.376 . S
C842 C840 1.394 . S
C842 C843 1.369 . S
C842 C846 1.531 . S
C843 C842 1.369 . S
C843 C844 1.410 . S
C843 C851 1.503 . S
C844 C843 1.410 . S
C844 C845 1.392 . S
C844 C847 1.511 . S
C845 C841 1.376 . S
C845 C844 1.392 . S
C845 H857 0.929 . S
C846 C842 1.531 . S
C846 H858 0.960 . S
C846 H859 0.962 . S
C846 H860 0.960 . S
C847 C844 1.511 . S
C847 H861 0.961 . S
C847 H862 0.961 . S
C847 H863 0.961 . S
C848 C849 1.370 . S
C848 C850 1.363 . S
C848 H864 0.931 . S
C849 C848 1.370 . S
C849 C853 1.408 . S
C850 C848 1.363 . S
C850 C851 1.370 . S
C850 C854 1.524 . S
C851 C843 1.503 . S
C851 C850 1.370 . S
C851 C852 1.403 . S
C852 C851 1.403 . S
C852 C853 1.404 . S
C852 C855 1.539 . S
C853 C849 1.408 . S
C853 C852 1.404 . S
C853 H865 0.930 . S
C854 C850 1.524 . S
C854 H866 0.956 . S
C854 H867 0.961 . S
C854 H868 0.961 . S
C855 C852 1.539 . S
C855 H869 0.958 . S
C855 H870 0.961 . S
C855 H871 0.960 . S
H856 C840 0.931 . S
H857 C845 0.929 . S
H858 C846 0.960 . S
H859 C846 0.962 . S
H860 C846 0.960 . S
H861 C847 0.961 . S
H862 C847 0.961 . S
H863 C847 0.961 . S
H864 C848 0.931 . S
H865 C853 0.930 . S
H866 C854 0.956 . S
H867 C854 0.961 . S
H868 C854 0.961 . S
H869 C855 0.958 . S
H870 C855 0.961 . S
H871 C855 0.960 . S
C872 C873 1.391 1_455 S
C872 C874 1.394 . S
C872 H888 0.931 . S
C873 C872 1.391 1_655 S
C873 C877 1.376 . S
C874 C872 1.394 . S
C874 C875 1.369 1_455 S
C874 C878 1.531 . S
C875 C874 1.369 1_655 S
C875 C876 1.410 . S
C875 C883 1.503 1_655 S
C876 C875 1.410 . S
C876 C877 1.392 . S
C876 C879 1.511 . S
C877 C873 1.376 . S
C877 C876 1.392 . S
C877 H889 0.929 . S
C878 C874 1.531 . S
C878 H890 0.960 . S
C878 H891 0.962 . S
C878 H892 0.960 . S
C879 C876 1.511 . S
C879 H893 0.961 . S
C879 H894 0.961 . S
C879 H895 0.961 1_556 S
C880 C881 1.370 . S
C880 C882 1.363 . S
C880 H896 0.931 . S
C881 C880 1.370 . S
C881 C885 1.408 . S
C882 C880 1.363 . S
C882 C883 1.370 . S
C882 C886 1.524 1_455 S
C883 C875 1.503 1_455 S
C883 C882 1.370 . S
C883 C884 1.403 . S
C884 C883 1.403 . S
C884 C885 1.404 . S
C884 C887 1.539 1_556 S
C885 C881 1.408 . S
C885 C884 1.404 . S
C885 H897 0.930 1_556 S
C886 C882 1.524 1_655 S
C886 H898 0.956 1_655 S
C886 H899 0.961 . S
C886 H900 0.961 . S
C887 C884 1.539 1_554 S
C887 H901 0.958 . S
C887 H902 0.961 . S
C887 H903 0.960 . S
H888 C872 0.931 . S
H889 C877 0.929 . S
H890 C878 0.960 . S
H891 C878 0.962 . S
H892 C878 0.960 . S
H893 C879 0.961 . S
H894 C879 0.961 . S
H895 C879 0.961 1_554 S
H896 C880 0.931 . S
H897 C885 0.930 1_554 S
H898 C886 0.956 1_455 S
H899 C886 0.961 . S
H900 C886 0.961 . S
H901 C887 0.958 . S
H902 C887 0.961 . S
H903 C887 0.960 . S
C904 C905 1.391 1_565 S
C904 C906 1.394 . S
C904 H920 0.931 . S
C905 C904 1.391 1_545 S
C905 C909 1.376 . S
C906 C904 1.394 . S
C906 C907 1.369 . S
C906 C910 1.531 . S
C907 C906 1.369 . S
C907 C908 1.410 1_565 S
C907 C915 1.503 . S
C908 C907 1.410 1_545 S
C908 C909 1.392 . S
C908 C911 1.511 . S
C909 C905 1.376 . S
C909 C908 1.392 . S
C909 H921 0.929 . S
C910 C906 1.531 . S
C910 H922 0.960 . S
C910 H923 0.962 . S
C910 H924 0.960 . S
C911 C908 1.511 . S
C911 H925 0.961 . S
C911 H926 0.961 . S
C911 H927 0.961 . S
C912 C913 1.370 1_545 S
C912 C914 1.363 . S
C912 H928 0.931 . S
C913 C912 1.370 1_565 S
C913 C917 1.408 . S
C914 C912 1.363 . S
C914 C915 1.370 1_545 S
C914 C918 1.524 . S
C915 C907 1.503 . S
C915 C914 1.370 1_565 S
C915 C916 1.403 . S
C916 C915 1.403 . S
C916 C917 1.404 . S
C916 C919 1.539 . S
C917 C913 1.408 . S
C917 C916 1.404 . S
C917 H929 0.930 . S
C918 C914 1.524 . S
C918 H930 0.956 . S
C918 H931 0.961 . S
C918 H932 0.961 . S
C919 C916 1.539 . S
C919 H933 0.958 . S
C919 H934 0.961 . S
C919 H935 0.960 . S
H920 C904 0.931 . S
H921 C909 0.929 . S
H922 C910 0.960 . S
H923 C910 0.962 . S
H924 C910 0.960 . S
H925 C911 0.961 . S
H926 C911 0.961 . S
H927 C911 0.961 . S
H928 C912 0.931 . S
H929 C917 0.930 . S
H930 C918 0.956 . S
H931 C918 0.961 . S
H932 C918 0.961 . S
H933 C919 0.958 . S
H934 C919 0.961 . S
H935 C919 0.960 . S
C169 C0 1.509 . S
C177 C126 1.507 . S
C201 C14 1.482 . S
C209 C140 1.497 . S
C233 C28 1.504 . S
C241 C154 1.505 . S
C265 C42 1.492 . S
C273 C84 1.502 . S
C297 C98 1.506 . S
C305 C56 1.506 . S
C329 C112 1.510 . S
C337 C70 1.509 . S
C361 C151 1.552 . S
C369 C11 1.540 . S
C393 C25 1.554 . S
C401 C165 1.538 . S
C425 C39 1.549 . S
C433 C95 1.535 . S
C457 C53 1.556 . S
C465 C109 1.537 . S
C489 C67 1.521 . S
C497 C123 1.550 . S
C521 C81 1.547 . S
C529 C137 1.535 . S
C553 C135 0.723 . S
C561 C9 0.757 . S
C585 C23 0.678 . S
C593 C149 0.759 . S
C617 C37 0.796 . S
C625 C163 0.722 . S
C649 C93 0.685 . S
C657 C51 0.760 . S
C681 C65 0.797 . S
C689 C107 0.712 . S
C713 C121 0.695 . S
C721 C79 0.725 . S
C745 C5 1.496 . S
C753 C47 1.511 . S
C777 C61 1.497 . S
C785 C19 1.511 . S
C809 C33 1.505 . S
C817 C75 1.505 . S
C841 C89 1.498 . S
C849 C131 1.511 . S
C873 C103 1.500 . S
C881 C145 1.507 . S
C905 C159 1.497 . S
C913 C117 1.510 . S
