# Generated by pormake.
# Topology uoh, (4)-cn, num edge types: 1
# Building blocks:
#     Node 0, Type 0, BuildingBlock: GALJAG_clean_sbu_0, # of connection points: 4
#     Node 1, Type 0, BuildingBlock: GALJAG_clean_sbu_0, # of connection points: 4
#     Node 2, Type 0, BuildingBlock: GALJAG_clean_sbu_0, # of connection points: 4
#     Node 3, Type 0, BuildingBlock: GALJAG_clean_sbu_0, # of connection points: 4
#     Node 4, Type 0, BuildingBlock: GALJAG_clean_sbu_0, # of connection points: 4
#     Node 5, Type 0, BuildingBlock: GALJAG_clean_sbu_0, # of connection points: 4
#     Node 6, Type 0, BuildingBlock: GALJAG_clean_sbu_0, # of connection points: 4
#     Node 7, Type 0, BuildingBlock: GALJAG_clean_sbu_0, # of connection points: 4
#     Node 8, Type 0, BuildingBlock: GALJAG_clean_sbu_0, # of connection points: 4
#     Node 9, Type 0, BuildingBlock: GALJAG_clean_sbu_0, # of connection points: 4
#     Node 10, Type 0, BuildingBlock: GALJAG_clean_sbu_0, # of connection points: 4
#     Node 11, Type 0, BuildingBlock: GALJAG_clean_sbu_0, # of connection points: 4
#     Node 12, Type 0, BuildingBlock: GALJAG_clean_sbu_0, # of connection points: 4
#     Node 13, Type 0, BuildingBlock: GALJAG_clean_sbu_0, # of connection points: 4
#     Node 14, Type 0, BuildingBlock: GALJAG_clean_sbu_0, # of connection points: 4
#     Node 15, Type 0, BuildingBlock: GALJAG_clean_sbu_0, # of connection points: 4
#     Node 16, Type 0, BuildingBlock: GALJAG_clean_sbu_0, # of connection points: 4
#     Node 17, Type 0, BuildingBlock: GALJAG_clean_sbu_0, # of connection points: 4
#     Node 18, Type 0, BuildingBlock: GALJAG_clean_sbu_0, # of connection points: 4
#     Node 19, Type 0, BuildingBlock: GALJAG_clean_sbu_0, # of connection points: 4
#     Node 20, Type 0, BuildingBlock: GALJAG_clean_sbu_0, # of connection points: 4
#     Node 21, Type 0, BuildingBlock: GALJAG_clean_sbu_0, # of connection points: 4
#     Node 22, Type 0, BuildingBlock: GALJAG_clean_sbu_0, # of connection points: 4
#     Node 23, Type 0, BuildingBlock: GALJAG_clean_sbu_0, # of connection points: 4
#     Node 24, Type 0, BuildingBlock: GALJAG_clean_sbu_0, # of connection points: 4
#     Node 25, Type 0, BuildingBlock: GALJAG_clean_sbu_0, # of connection points: 4
#     Node 26, Type 0, BuildingBlock: GALJAG_clean_sbu_0, # of connection points: 4
#     Node 27, Type 0, BuildingBlock: GALJAG_clean_sbu_0, # of connection points: 4
#     Node 28, Type 0, BuildingBlock: GALJAG_clean_sbu_0, # of connection points: 4
#     Node 29, Type 0, BuildingBlock: GALJAG_clean_sbu_0, # of connection points: 4
#     Node 30, Type 0, BuildingBlock: GALJAG_clean_sbu_0, # of connection points: 4
#     Node 31, Type 0, BuildingBlock: GALJAG_clean_sbu_0, # of connection points: 4
#     Node 32, Type 0, BuildingBlock: GALJAG_clean_sbu_0, # of connection points: 4
#     Node 33, Type 0, BuildingBlock: GALJAG_clean_sbu_0, # of connection points: 4
#     Node 34, Type 0, BuildingBlock: GALJAG_clean_sbu_0, # of connection points: 4
#     Node 35, Type 0, BuildingBlock: GALJAG_clean_sbu_0, # of connection points: 4
#     Edge 36, Type (0, 0), BuildingBlock: UVAHIK_clean_linker_0, # of connection points: 2
#     Edge 37, Type (0, 0), BuildingBlock: UVAHIK_clean_linker_0, # of connection points: 2
#     Edge 38, Type (0, 0), BuildingBlock: UVAHIK_clean_linker_0, # of connection points: 2
#     Edge 39, Type (0, 0), BuildingBlock: UVAHIK_clean_linker_0, # of connection points: 2
#     Edge 40, Type (0, 0), BuildingBlock: UVAHIK_clean_linker_0, # of connection points: 2
#     Edge 41, Type (0, 0), BuildingBlock: UVAHIK_clean_linker_0, # of connection points: 2
#     Edge 42, Type (0, 0), BuildingBlock: UVAHIK_clean_linker_0, # of connection points: 2
#     Edge 43, Type (0, 0), BuildingBlock: UVAHIK_clean_linker_0, # of connection points: 2
#     Edge 44, Type (0, 0), BuildingBlock: UVAHIK_clean_linker_0, # of connection points: 2
#     Edge 45, Type (0, 0), BuildingBlock: UVAHIK_clean_linker_0, # of connection points: 2
#     Edge 46, Type (0, 0), BuildingBlock: UVAHIK_clean_linker_0, # of connection points: 2
#     Edge 47, Type (0, 0), BuildingBlock: UVAHIK_clean_linker_0, # of connection points: 2
#     Edge 48, Type (0, 0), BuildingBlock: UVAHIK_clean_linker_0, # of connection points: 2
#     Edge 49, Type (0, 0), BuildingBlock: UVAHIK_clean_linker_0, # of connection points: 2
#     Edge 50, Type (0, 0), BuildingBlock: UVAHIK_clean_linker_0, # of connection points: 2
#     Edge 51, Type (0, 0), BuildingBlock: UVAHIK_clean_linker_0, # of connection points: 2
#     Edge 52, Type (0, 0), BuildingBlock: UVAHIK_clean_linker_0, # of connection points: 2
#     Edge 53, Type (0, 0), BuildingBlock: UVAHIK_clean_linker_0, # of connection points: 2
#     Edge 54, Type (0, 0), BuildingBlock: UVAHIK_clean_linker_0, # of connection points: 2
#     Edge 55, Type (0, 0), BuildingBlock: UVAHIK_clean_linker_0, # of connection points: 2
#     Edge 56, Type (0, 0), BuildingBlock: UVAHIK_clean_linker_0, # of connection points: 2
#     Edge 57, Type (0, 0), BuildingBlock: UVAHIK_clean_linker_0, # of connection points: 2
#     Edge 58, Type (0, 0), BuildingBlock: UVAHIK_clean_linker_0, # of connection points: 2
#     Edge 59, Type (0, 0), BuildingBlock: UVAHIK_clean_linker_0, # of connection points: 2
#     Edge 60, Type (0, 0), BuildingBlock: UVAHIK_clean_linker_0, # of connection points: 2
#     Edge 61, Type (0, 0), BuildingBlock: UVAHIK_clean_linker_0, # of connection points: 2
#     Edge 62, Type (0, 0), BuildingBlock: UVAHIK_clean_linker_0, # of connection points: 2
#     Edge 63, Type (0, 0), BuildingBlock: UVAHIK_clean_linker_0, # of connection points: 2
#     Edge 64, Type (0, 0), BuildingBlock: UVAHIK_clean_linker_0, # of connection points: 2
#     Edge 65, Type (0, 0), BuildingBlock: UVAHIK_clean_linker_0, # of connection points: 2
#     Edge 66, Type (0, 0), BuildingBlock: UVAHIK_clean_linker_0, # of connection points: 2
#     Edge 67, Type (0, 0), BuildingBlock: UVAHIK_clean_linker_0, # of connection points: 2
#     Edge 68, Type (0, 0), BuildingBlock: UVAHIK_clean_linker_0, # of connection points: 2
#     Edge 69, Type (0, 0), BuildingBlock: UVAHIK_clean_linker_0, # of connection points: 2
#     Edge 70, Type (0, 0), BuildingBlock: UVAHIK_clean_linker_0, # of connection points: 2
#     Edge 71, Type (0, 0), BuildingBlock: UVAHIK_clean_linker_0, # of connection points: 2
#     Edge 72, Type (0, 0), BuildingBlock: UVAHIK_clean_linker_0, # of connection points: 2
#     Edge 73, Type (0, 0), BuildingBlock: UVAHIK_clean_linker_0, # of connection points: 2
#     Edge 74, Type (0, 0), BuildingBlock: UVAHIK_clean_linker_0, # of connection points: 2
#     Edge 75, Type (0, 0), BuildingBlock: UVAHIK_clean_linker_0, # of connection points: 2
#     Edge 76, Type (0, 0), BuildingBlock: UVAHIK_clean_linker_0, # of connection points: 2
#     Edge 77, Type (0, 0), BuildingBlock: UVAHIK_clean_linker_0, # of connection points: 2
#     Edge 78, Type (0, 0), BuildingBlock: UVAHIK_clean_linker_0, # of connection points: 2
#     Edge 79, Type (0, 0), BuildingBlock: UVAHIK_clean_linker_0, # of connection points: 2
#     Edge 80, Type (0, 0), BuildingBlock: UVAHIK_clean_linker_0, # of connection points: 2
#     Edge 81, Type (0, 0), BuildingBlock: UVAHIK_clean_linker_0, # of connection points: 2
#     Edge 82, Type (0, 0), BuildingBlock: UVAHIK_clean_linker_0, # of connection points: 2
#     Edge 83, Type (0, 0), BuildingBlock: UVAHIK_clean_linker_0, # of connection points: 2
#     Edge 84, Type (0, 0), BuildingBlock: UVAHIK_clean_linker_0, # of connection points: 2
#     Edge 85, Type (0, 0), BuildingBlock: UVAHIK_clean_linker_0, # of connection points: 2
#     Edge 86, Type (0, 0), BuildingBlock: UVAHIK_clean_linker_0, # of connection points: 2
#     Edge 87, Type (0, 0), BuildingBlock: UVAHIK_clean_linker_0, # of connection points: 2
#     Edge 88, Type (0, 0), BuildingBlock: UVAHIK_clean_linker_0, # of connection points: 2
#     Edge 89, Type (0, 0), BuildingBlock: UVAHIK_clean_linker_0, # of connection points: 2
#     Edge 90, Type (0, 0), BuildingBlock: UVAHIK_clean_linker_0, # of connection points: 2
#     Edge 91, Type (0, 0), BuildingBlock: UVAHIK_clean_linker_0, # of connection points: 2
#     Edge 92, Type (0, 0), BuildingBlock: UVAHIK_clean_linker_0, # of connection points: 2
#     Edge 93, Type (0, 0), BuildingBlock: UVAHIK_clean_linker_0, # of connection points: 2
#     Edge 94, Type (0, 0), BuildingBlock: UVAHIK_clean_linker_0, # of connection points: 2
#     Edge 95, Type (0, 0), BuildingBlock: UVAHIK_clean_linker_0, # of connection points: 2
#     Edge 96, Type (0, 0), BuildingBlock: UVAHIK_clean_linker_0, # of connection points: 2
#     Edge 97, Type (0, 0), BuildingBlock: UVAHIK_clean_linker_0, # of connection points: 2
#     Edge 98, Type (0, 0), BuildingBlock: UVAHIK_clean_linker_0, # of connection points: 2
#     Edge 99, Type (0, 0), BuildingBlock: UVAHIK_clean_linker_0, # of connection points: 2
#     Edge 100, Type (0, 0), BuildingBlock: UVAHIK_clean_linker_0, # of connection points: 2
#     Edge 101, Type (0, 0), BuildingBlock: UVAHIK_clean_linker_0, # of connection points: 2
#     Edge 102, Type (0, 0), BuildingBlock: UVAHIK_clean_linker_0, # of connection points: 2
#     Edge 103, Type (0, 0), BuildingBlock: UVAHIK_clean_linker_0, # of connection points: 2
#     Edge 104, Type (0, 0), BuildingBlock: UVAHIK_clean_linker_0, # of connection points: 2
#     Edge 105, Type (0, 0), BuildingBlock: UVAHIK_clean_linker_0, # of connection points: 2
#     Edge 106, Type (0, 0), BuildingBlock: UVAHIK_clean_linker_0, # of connection points: 2
#     Edge 107, Type (0, 0), BuildingBlock: UVAHIK_clean_linker_0, # of connection points: 2
# Relax obj value: 0.044
# Max RMSD: 0.095
# Mean RMSD: 0.095
data_MOF--net-uoh--node1-GALJAG_clean_sbu_0--edge1-UVAHIK_clean_linker_0
_symmetry_space_group_name_H-M    P1
_symmetry_Int_Tables_number       1
_symmetry_cell_setting            triclinic
loop_
_symmetry_equiv_pos_as_xyz
'x, y, z'
_cell_length_a     111.6526
_cell_length_b     111.56257
_cell_length_c     37.239861
_cell_angle_alpha  90.001782
_cell_angle_beta   89.989275
_cell_angle_gamma 120.02013
loop_
_atom_site_label
_atom_site_type_symbol
_atom_site_fract_x
_atom_site_fract_y
_atom_site_fract_z
_atom_type_partial_charge
In0 In 0.22773 0.13212 0.18645 0.0
O1 O 0.23071 0.15372 0.19405 0.0
O2 O 0.21115 0.13629 0.20726 0.0
C3 C 0.25394 0.14159 0.16497 0.0
C4 C 0.22581 0.12092 0.25197 0.0
C5 C 0.21416 0.12001 0.12511 0.0
O6 O 0.24927 0.14955 0.17221 0.0
O7 O 0.24534 0.12884 0.16847 0.0
O8 O 0.21695 0.11349 0.14826 0.0
O9 O 0.21795 0.13234 0.1334 0.0
C10 C 0.21858 0.1493 0.20567 0.0
O11 O 0.21596 0.11558 0.22971 0.0
O12 O 0.23657 0.1314 0.24053 0.0
In13 In 0.85662 0.09578 0.19587 0.0
O14 O 0.83577 0.07602 0.20135 0.0
O15 O 0.85414 0.07456 0.20225 0.0
C16 C 0.84816 0.1145 0.19038 0.0
C17 C 0.86857 0.10036 0.26109 0.0
C18 C 0.86656 0.09663 0.12944 0.0
O19 O 0.83978 0.10168 0.19301 0.0
O20 O 0.86074 0.11783 0.19053 0.0
O21 O 0.87428 0.10409 0.15465 0.0
O22 O 0.85405 0.08894 0.13786 0.0
C23 C 0.84109 0.06835 0.20411 0.0
O24 O 0.87547 0.10234 0.23257 0.0
O25 O 0.85601 0.09659 0.25635 0.0
In26 In 0.8952 0.76453 0.20584 0.0
O27 O 0.89014 0.77756 0.24428 0.0
O28 O 0.89512 0.763 0.26625 0.0
C29 C 0.89283 0.77482 0.14226 0.0
C30 C 0.92242 0.7745 0.21149 0.0
C31 C 0.87741 0.73719 0.19786 0.0
O32 O 0.88361 0.77098 0.16615 0.0
O33 O 0.90306 0.77358 0.1507 0.0
O34 O 0.89022 0.74258 0.19219 0.0
O35 O 0.8736 0.74559 0.20754 0.0
C36 C 0.89213 0.77231 0.27213 0.0
O37 O 0.91391 0.76163 0.20976 0.0
O38 O 0.91712 0.7822 0.21026 0.0
In39 In 0.13082 0.23177 0.30705 0.0
O40 O 0.15193 0.23487 0.29079 0.0
O41 O 0.1349 0.21433 0.29457 0.0
C42 C 0.14095 0.25888 0.31935 0.0
C43 C 0.11523 0.22571 0.24692 0.0
C44 C 0.12255 0.22195 0.37412 0.0
O45 O 0.14833 0.25412 0.30734 0.0
O46 O 0.12846 0.24992 0.32526 0.0
O47 O 0.11426 0.22206 0.35117 0.0
O48 O 0.13476 0.22672 0.36307 0.0
C49 C 0.14761 0.22207 0.28815 0.0
O50 O 0.11305 0.21666 0.27031 0.0
O51 O 0.12483 0.23769 0.25449 0.0
In52 In 0.76347 0.89732 0.30592 0.0
O53 O 0.76037 0.91547 0.29109 0.0
O54 O 0.78071 0.91841 0.28903 0.0
C55 C 0.7363 0.87982 0.31567 0.0
C56 C 0.77016 0.88782 0.24691 0.0
C57 C 0.77296 0.8993 0.37364 0.0
O58 O 0.74099 0.89202 0.30409 0.0
O59 O 0.74536 0.8765 0.3225 0.0
O60 O 0.77301 0.89083 0.35121 0.0
O61 O 0.76823 0.90667 0.36177 0.0
C62 C 0.77304 0.92359 0.28475 0.0
O63 O 0.7789 0.8945 0.27111 0.0
O64 O 0.75814 0.88559 0.25316 0.0
In65 In 0.09384 0.86128 0.29928 0.0
O66 O 0.10126 0.87946 0.25964 0.0
O67 O 0.09732 0.85991 0.24003 0.0
C68 C 0.09368 0.87307 0.36244 0.0
C69 C 0.06693 0.8453 0.28466 0.0
C70 C 0.11105 0.85167 0.31547 0.0
O71 O 0.10264 0.87962 0.33852 0.0
O72 O 0.0848 0.86087 0.35408 0.0
O73 O 0.09813 0.84383 0.31284 0.0
O74 O 0.11526 0.86429 0.3096 0.0
C75 C 0.10076 0.87226 0.23284 0.0
O76 O 0.07456 0.84026 0.29211 0.0
O77 O 0.07287 0.85837 0.28527 0.0
In78 In 0.76067 0.85958 0.80574 0.0
O79 O 0.75708 0.83782 0.79817 0.0
O80 O 0.77737 0.85389 0.812 0.0
C81 C 0.73393 0.85269 0.80249 0.0
C82 C 0.77104 0.87301 0.74313 0.0
C83 C 0.76703 0.86741 0.8748 0.0
O84 O 0.73783 0.84387 0.80041 0.0
O85 O 0.74358 0.86509 0.80529 0.0
O86 O 0.77463 0.87489 0.84939 0.0
O87 O 0.75638 0.85647 0.86501 0.0
C88 C 0.76948 0.84124 0.80483 0.0
O89 O 0.77133 0.87946 0.77135 0.0
O90 O 0.76558 0.86012 0.74686 0.0
In91 In 0.13708 0.9 0.79562 0.0
O92 O 0.11839 0.89403 0.75871 0.0
O93 O 0.13702 0.89665 0.7359 0.0
C94 C 0.1269 0.90039 0.86113 0.0
C95 C 0.1538 0.92681 0.78041 0.0
C96 C 0.14533 0.88126 0.80504 0.0
O97 O 0.11949 0.89201 0.83697 0.0
O98 O 0.13922 0.9086 0.85199 0.0
O99 O 0.15375 0.89409 0.80299 0.0
O100 O 0.13277 0.87792 0.80246 0.0
C101 C 0.12485 0.89418 0.73064 0.0
O102 O 0.15845 0.91885 0.78813 0.0
O103 O 0.14079 0.9213 0.78156 0.0
In104 In 0.09529 0.23591 0.80457 0.0
O105 O 0.07634 0.23839 0.80019 0.0
O106 O 0.0733 0.21833 0.81153 0.0
C107 C 0.11408 0.26292 0.7969 0.0
C108 C 0.09813 0.22514 0.74242 0.0
C109 C 0.09806 0.23052 0.87365 0.0
O110 O 0.10122 0.25829 0.79492 0.0
O111 O 0.11751 0.25386 0.80226 0.0
O112 O 0.09793 0.22286 0.84843 0.0
O113 O 0.09717 0.24084 0.86368 0.0
C114 C 0.06788 0.22575 0.80608 0.0
O115 O 0.10483 0.22557 0.77023 0.0
O116 O 0.09029 0.23012 0.74631 0.0
In117 In 0.85964 0.76278 0.70084 0.0
O118 O 0.83787 0.75941 0.7065 0.0
O119 O 0.85503 0.77931 0.71905 0.0
C120 C 0.85194 0.73647 0.68334 0.0
C121 C 0.86984 0.76663 0.76793 0.0
C122 C 0.87178 0.77647 0.63974 0.0
O123 O 0.84349 0.74086 0.68442 0.0
O124 O 0.86426 0.74538 0.6909 0.0
O125 O 0.87831 0.77374 0.66298 0.0
O126 O 0.85938 0.77245 0.64763 0.0
C127 C 0.84205 0.7716 0.7175 0.0
O128 O 0.87685 0.77448 0.74235 0.0
O129 O 0.85822 0.75665 0.75903 0.0
In130 In 0.23323 0.09609 0.69791 0.0
O131 O 0.23709 0.07789 0.69894 0.0
O132 O 0.2169 0.07393 0.68554 0.0
C133 C 0.25959 0.1159 0.70966 0.0
C134 C 0.22119 0.09643 0.76048 0.0
C135 C 0.22883 0.10168 0.63033 0.0
O136 O 0.256 0.10329 0.70597 0.0
O137 O 0.24982 0.1185 0.70798 0.0
O138 O 0.21989 0.09859 0.65473 0.0
O139 O 0.2398 0.10206 0.64028 0.0
C140 C 0.22481 0.06906 0.69071 0.0
O141 O 0.22082 0.10299 0.73323 0.0
O142 O 0.22758 0.08992 0.7559 0.0
In143 In 0.8997 0.13417 0.69058 0.0
O144 O 0.9185 0.15553 0.69771 0.0
O145 O 0.92073 0.13788 0.7074 0.0
C146 C 0.88175 0.14279 0.67379 0.0
C147 C 0.89266 0.12335 0.75706 0.0
C148 C 0.90067 0.12253 0.62793 0.0
O149 O 0.89458 0.15101 0.67657 0.0
O150 O 0.87799 0.13026 0.67959 0.0
O151 O 0.89179 0.11576 0.65183 0.0
O152 O 0.90912 0.1349 0.63611 0.0
C153 C 0.92629 0.15092 0.70733 0.0
O154 O 0.89271 0.11621 0.73074 0.0
O155 O 0.89557 0.1355 0.74932 0.0
In156 In 0.89478 0.46276 0.51722 0.0
O157 O 0.89982 0.48451 0.53338 0.0
O158 O 0.87917 0.46796 0.54017 0.0
C159 C 0.92126 0.47193 0.49903 0.0
C160 C 0.89005 0.44775 0.5779 0.0
C161 C 0.88245 0.45394 0.45252 0.0
O162 O 0.91691 0.47998 0.50821 0.0
O163 O 0.91222 0.45923 0.49896 0.0
O164 O 0.88385 0.446 0.4741 0.0
O165 O 0.88694 0.46606 0.46397 0.0
C166 C 0.88766 0.48071 0.5437 0.0
O167 O 0.88048 0.4455 0.55612 0.0
O168 O 0.90191 0.45707 0.56825 0.0
In169 In 0.52501 0.42894 0.52415 0.0
O170 O 0.50363 0.40972 0.52861 0.0
O171 O 0.52139 0.40772 0.5383 0.0
C172 C 0.51677 0.44749 0.51204 0.0
C173 C 0.53625 0.43528 0.59034 0.0
C174 C 0.53627 0.42883 0.4602 0.0
O175 O 0.50831 0.43477 0.51664 0.0
O176 O 0.52934 0.4508 0.51323 0.0
O177 O 0.54334 0.43706 0.48505 0.0
O178 O 0.52375 0.42076 0.46785 0.0
C179 C 0.50836 0.40189 0.53694 0.0
O180 O 0.54262 0.43391 0.56403 0.0
O181 O 0.52464 0.43393 0.58274 0.0
In182 In 0.56555 0.09599 0.53824 0.0
O183 O 0.58532 0.09502 0.54359 0.0
O184 O 0.58647 0.11463 0.54904 0.0
C185 C 0.54756 0.06886 0.52786 0.0
C186 C 0.55999 0.10149 0.60453 0.0
C187 C 0.56509 0.10671 0.47377 0.0
O188 O 0.56047 0.07368 0.52935 0.0
O189 O 0.54379 0.07771 0.53163 0.0
O190 O 0.55694 0.10562 0.49874 0.0
O191 O 0.57333 0.10249 0.48151 0.0
C192 C 0.59277 0.10787 0.54943 0.0
O193 O 0.55843 0.10722 0.57701 0.0
O194 O 0.5638 0.09281 0.5982 0.0
In195 In 0.80399 0.56653 0.62669 0.0
O196 O 0.82563 0.56941 0.62387 0.0
O197 O 0.80832 0.54883 0.62511 0.0
C198 C 0.81153 0.59351 0.63183 0.0
C199 C 0.79346 0.55829 0.56028 0.0
C200 C 0.79247 0.55684 0.69154 0.0
O201 O 0.82012 0.58934 0.63378 0.0
O202 O 0.79916 0.58408 0.62729 0.0
O203 O 0.78545 0.55733 0.66554 0.0
O204 O 0.80502 0.56124 0.68471 0.0
C205 C 0.82132 0.55654 0.62385 0.0
O206 O 0.78614 0.55316 0.58808 0.0
O207 O 0.80573 0.56764 0.56624 0.0
In208 In 0.42921 0.23187 0.64283 0.0
O209 O 0.42561 0.24944 0.62522 0.0
O210 O 0.44628 0.25322 0.62751 0.0
C211 C 0.40273 0.21497 0.66168 0.0
C212 C 0.43375 0.22186 0.58142 0.0
C213 C 0.4409 0.23447 0.70787 0.0
O214 O 0.40722 0.22737 0.6522 0.0
O215 O 0.4116 0.21109 0.66148 0.0
O216 O 0.4398 0.22545 0.68551 0.0
O217 O 0.43628 0.24208 0.69715 0.0
C218 C 0.43834 0.25796 0.62103 0.0
O219 O 0.44313 0.22808 0.60454 0.0
O220 O 0.42216 0.22033 0.5899 0.0
In221 In 0.76496 0.19696 0.63248 0.0
O222 O 0.74564 0.17587 0.62578 0.0
O223 O 0.74318 0.19322 0.63755 0.0
C224 C 0.7838 0.18883 0.6254 0.0
C225 C 0.76822 0.21073 0.5705 0.0
C226 C 0.76725 0.20436 0.70212 0.0
O227 O 0.77093 0.18044 0.62525 0.0
O228 O 0.78719 0.20141 0.62868 0.0
O229 O 0.7677 0.21235 0.67737 0.0
O230 O 0.76604 0.1931 0.69144 0.0
C231 C 0.73744 0.18042 0.63103 0.0
O232 O 0.77439 0.21704 0.59889 0.0
O233 O 0.76081 0.19781 0.57373 0.0
In234 In 0.42425 0.19364 0.13614 0.0
O235 O 0.42212 0.17234 0.12991 0.0
O236 O 0.44196 0.18948 0.14252 0.0
C237 C 0.39767 0.18668 0.12696 0.0
C238 C 0.4355 0.20714 0.07433 0.0
C239 C 0.42886 0.2011 0.20576 0.0
O240 O 0.40153 0.17781 0.12821 0.0
O241 O 0.40725 0.1991 0.13011 0.0
O242 O 0.43662 0.20901 0.1812 0.0
O243 O 0.41884 0.18984 0.19491 0.0
C244 C 0.4348 0.17671 0.13579 0.0
O245 O 0.43601 0.21363 0.1027 0.0
O246 O 0.42928 0.19417 0.07749 0.0
In247 In 0.79586 0.23322 0.13621 0.0
O248 O 0.81732 0.25121 0.12212 0.0
O249 O 0.79973 0.25335 0.11161 0.0
C250 C 0.80458 0.21521 0.15022 0.0
C251 C 0.7801 0.22282 0.07694 0.0
C252 C 0.78836 0.23699 0.2024 0.0
O253 O 0.81264 0.22737 0.13922 0.0
O254 O 0.79214 0.21219 0.15434 0.0
O255 O 0.77983 0.22797 0.18103 0.0
O256 O 0.80042 0.24411 0.1901 0.0
C257 C 0.8127 0.25871 0.11011 0.0
O258 O 0.77752 0.2294 0.10041 0.0
O259 O 0.79016 0.2211 0.08416 0.0
In260 In 0.76432 0.56521 0.13103 0.0
O261 O 0.74549 0.56785 0.1257 0.0
O262 O 0.74295 0.54776 0.11741 0.0
C263 C 0.78212 0.59207 0.14556 0.0
C264 C 0.76973 0.56053 0.06367 0.0
C265 C 0.7647 0.55271 0.19276 0.0
O266 O 0.76919 0.5868 0.14819 0.0
O267 O 0.78606 0.58378 0.13575 0.0
O268 O 0.77376 0.55581 0.16871 0.0
O269 O 0.75553 0.55573 0.18534 0.0
C270 C 0.73745 0.55528 0.11774 0.0
O271 O 0.77039 0.55376 0.09008 0.0
O272 O 0.76695 0.56984 0.07169 0.0
In273 In 0.52386 0.09435 0.03888 0.0
O274 O 0.50289 0.09291 0.04421 0.0
O275 O 0.52111 0.11272 0.04966 0.0
C276 C 0.51518 0.06726 0.02972 0.0
C277 C 0.53516 0.10039 0.10488 0.0
C278 C 0.53472 0.10494 0.97404 0.0
O279 O 0.50692 0.07187 0.03113 0.0
O280 O 0.52777 0.07631 0.03284 0.0
O281 O 0.54197 0.10415 -0.00102 0.0
O282 O 0.52223 0.10047 0.98198 0.0
C283 C 0.50805 0.10574 0.05007 0.0
O284 O 0.54228 0.10611 0.07712 0.0
O285 O 0.52272 0.09145 0.09892 0.0
In286 In 0.90048 0.42991 0.024 0.0
O287 O 0.88889 0.43832 0.05747 0.0
O288 O 0.89515 0.42521 0.08258 0.0
C289 C 0.89611 0.43315 0.95445 0.0
C290 C 0.8897 0.40237 0.02239 0.0
C291 C 0.92715 0.44944 0.03295 0.0
O292 O 0.88831 0.43323 0.97902 0.0
O293 O 0.90606 0.4318 0.96528 0.0
O294 O 0.92318 0.43667 0.03223 0.0
O295 O 0.91762 0.45233 0.02952 0.0
C296 C 0.88918 0.4322 0.08579 0.0
O297 O 0.90224 0.41051 0.03035 0.0
O298 O 0.8828 0.40819 0.01497 0.0
In299 In 0.5667 0.47079 0.02729 0.0
O300 O 0.58591 0.492 0.03287 0.0
O301 O 0.58848 0.47436 0.02784 0.0
C302 C 0.54702 0.47797 0.0235 0.0
C303 C 0.56317 0.45938 0.09296 0.0
C304 C 0.56546 0.461 0.96054 0.0
O305 O 0.55975 0.48678 0.0246 0.0
O306 O 0.5442 0.46553 0.02472 0.0
O307 O 0.56097 0.453 0.98742 0.0
O308 O 0.57037 0.47365 0.96762 0.0
C309 C 0.59414 0.48733 0.03152 0.0
O310 O 0.55975 0.45207 0.06478 0.0
O311 O 0.56795 0.47213 0.08772 0.0
In312 In 0.56456 0.80401 0.8571 0.0
O313 O 0.55389 0.78427 0.89192 0.0
O314 O 0.55971 0.80369 0.91601 0.0
C315 C 0.55848 0.79576 0.78824 0.0
C316 C 0.55542 0.82211 0.85651 0.0
C317 C 0.59135 0.81109 0.86108 0.0
O318 O 0.55086 0.78837 0.81374 0.0
O319 O 0.569 0.80686 0.79785 0.0
O320 O 0.58738 0.81987 0.86258 0.0
O321 O 0.58174 0.79866 0.85847 0.0
C322 C 0.55425 0.79081 0.92001 0.0
O323 O 0.56785 0.82572 0.86346 0.0
O324 O 0.54766 0.80939 0.84987 0.0
In325 In 0.19647 0.76168 0.86087 0.0
O326 O 0.21364 0.76377 0.89902 0.0
O327 O 0.20095 0.77193 0.91553 0.0
C328 C 0.20575 0.76049 0.79486 0.0
C329 C 0.17854 0.73513 0.87703 0.0
C330 C 0.1882 0.78009 0.84767 0.0
O331 O 0.21373 0.76863 0.81871 0.0
O332 O 0.19335 0.7531 0.8045 0.0
O333 O 0.17981 0.76762 0.85567 0.0
O334 O 0.20073 0.78321 0.84609 0.0
C335 C 0.21071 0.7698 0.9232 0.0
O336 O 0.17477 0.74405 0.8745 0.0
O337 O 0.19128 0.73971 0.872 0.0
In338 In 0.22676 0.4349 0.85526 0.0
O339 O 0.2237 0.45039 0.88911 0.0
O340 O 0.21384 0.42944 0.90616 0.0
C341 C 0.23044 0.44386 0.7866 0.0
C342 C 0.25246 0.4441 0.88062 0.0
C343 C 0.2089 0.40804 0.84332 0.0
O344 O 0.22306 0.44614 0.80822 0.0
O345 O 0.2359 0.43737 0.79987 0.0
O346 O 0.22087 0.4123 0.85596 0.0
O347 O 0.20587 0.41737 0.83714 0.0
C348 C 0.21641 0.44158 0.91259 0.0
O349 O 0.24408 0.43138 0.87578 0.0
O350 O 0.24785 0.45201 0.87258 0.0
In351 In 0.46219 0.89664 0.9624 0.0
O352 O 0.48419 0.90095 0.95355 0.0
O353 O 0.46742 0.88086 0.94099 0.0
C354 C 0.47042 0.92314 0.9788 0.0
C355 C 0.44953 0.89195 0.89812 0.0
C356 C 0.4516 0.88392 0.02573 0.0
O357 O 0.47883 0.91881 0.97459 0.0
O358 O 0.45785 0.91406 0.97501 0.0
O359 O 0.4446 0.88646 0.00356 0.0
O360 O 0.46368 0.88751 0.01556 0.0
C361 C 0.48034 0.88896 0.94162 0.0
O362 O 0.44464 0.88316 0.92323 0.0
O363 O 0.4603 0.90311 0.9062 0.0
In364 In 0.09786 0.56609 0.98055 0.0
O365 O 0.11166 0.56267 0.9409 0.0
O366 O 0.09041 0.55418 0.92817 0.0
C367 C 0.10994 0.56841 0.04512 0.0
C368 C 0.10614 0.59191 0.95774 0.0
C369 C 0.07124 0.54891 0.99785 0.0
O370 O 0.10841 0.55933 0.02248 0.0
O371 O 0.1057 0.57638 0.03477 0.0
O372 O 0.07569 0.56128 0.98818 0.0
O373 O 0.08025 0.54522 -0.00122 0.0
C374 C 0.10205 0.55608 0.9186 0.0
O375 O 0.09397 0.58393 0.96866 0.0
O376 O 0.11404 0.58686 0.95863 0.0
In377 In 0.42378 0.52443 0.97607 0.0
O378 O 0.40371 0.50382 0.9698 0.0
O379 O 0.4026 0.5223 0.97381 0.0
C380 C 0.44319 0.51701 0.97895 0.0
C381 C 0.42908 0.53615 0.91058 0.0
C382 C 0.42544 0.53287 0.0444 0.0
O383 O 0.43043 0.50824 0.97681 0.0
O384 O 0.44612 0.52952 0.97937 0.0
O385 O 0.42866 0.54129 0.01848 0.0
O386 O 0.42156 0.52056 0.03548 0.0
C387 C 0.39617 0.50931 0.97021 0.0
O388 O 0.43094 0.54326 0.93871 0.0
O389 O 0.42483 0.52349 0.916 0.0
In390 In 0.09196 0.52341 0.47362 0.0
O391 O 0.1035 0.54334 0.43984 0.0
O392 O 0.09647 0.52385 0.41451 0.0
C393 C 0.09656 0.53123 0.54307 0.0
C394 C 0.10293 0.50682 0.47386 0.0
C395 C 0.06526 0.51622 0.46528 0.0
O396 O 0.10418 0.5391 0.51825 0.0
O397 O 0.08672 0.51978 0.53258 0.0
O398 O 0.06922 0.50741 0.46599 0.0
O399 O 0.0748 0.52866 0.4685 0.0
C400 C 0.10268 0.53682 0.41127 0.0
O401 O 0.0902 0.50221 0.46823 0.0
O402 O 0.10994 0.51966 0.47989 0.0
In403 In 0.46607 0.56811 0.47488 0.0
O404 O 0.44874 0.56659 0.43852 0.0
O405 O 0.45994 0.55688 0.42129 0.0
C406 C 0.4576 0.56888 0.54237 0.0
C407 C 0.48365 0.59451 0.45596 0.0
C408 C 0.47425 0.54936 0.48281 0.0
O409 O 0.44916 0.56247 0.51734 0.0
O410 O 0.47013 0.57487 0.53319 0.0
O411 O 0.48253 0.56183 0.47442 0.0
O412 O 0.46184 0.5464 0.48735 0.0
C413 C 0.45064 0.55978 0.4144 0.0
O414 O 0.48777 0.58602 0.46187 0.0
O415 O 0.47084 0.58968 0.45995 0.0
In416 In 0.42765 0.89884 0.45966 0.0
O417 O 0.43398 0.88642 0.42275 0.0
O418 O 0.43026 0.90172 0.39974 0.0
C419 C 0.42614 0.88789 0.5252 0.0
C420 C 0.40091 0.88934 0.44499 0.0
C421 C 0.44723 0.9255 0.46979 0.0
O422 O 0.43326 0.88689 0.50021 0.0
O423 O 0.41987 0.89424 0.51684 0.0
O424 O 0.43453 0.9216 0.46733 0.0
O425 O 0.45009 0.91594 0.46701 0.0
C426 C 0.43321 0.89233 0.39457 0.0
O427 O 0.40923 0.90198 0.45144 0.0
O428 O 0.40605 0.88152 0.44687 0.0
In429 In 0.1966 0.43121 0.35825 0.0
O430 O 0.1753 0.4274 0.37617 0.0
O431 O 0.19214 0.44805 0.37497 0.0
C432 C 0.18884 0.40429 0.35457 0.0
C433 C 0.21458 0.44057 0.41385 0.0
C434 C 0.20107 0.43838 0.28812 0.0
O435 O 0.18099 0.4085 0.36656 0.0
O436 O 0.20069 0.41372 0.34457 0.0
O437 O 0.21095 0.44195 0.30995 0.0
O438 O 0.18922 0.43136 0.30174 0.0
C439 C 0.17952 0.44007 0.38161 0.0
O440 O 0.21505 0.44843 0.38885 0.0
O441 O 0.20558 0.42802 0.40982 0.0
In442 In 0.56357 0.76461 0.35611 0.0
O443 O 0.54784 0.76644 0.39229 0.0
O444 O 0.56869 0.77586 0.40963 0.0
C445 C 0.55405 0.76343 0.28879 0.0
C446 C 0.55459 0.73807 0.37354 0.0
C447 C 0.59066 0.78248 0.34645 0.0
O448 O 0.55387 0.77154 0.3122 0.0
O449 O 0.55896 0.75607 0.29947 0.0
O450 O 0.58614 0.77025 0.35758 0.0
O451 O 0.58148 0.78565 0.33997 0.0
C452 C 0.55656 0.77317 0.41645 0.0
O453 O 0.56728 0.74672 0.36945 0.0
O454 O 0.5466 0.74289 0.36923 0.0
In455 In 0.2307 0.80208 0.36421 0.0
O456 O 0.24924 0.82387 0.36863 0.0
O457 O 0.25287 0.80727 0.35662 0.0
C458 C 0.21059 0.80852 0.37092 0.0
C459 C 0.22896 0.78943 0.4272 0.0
C460 C 0.22791 0.79337 0.29568 0.0
O461 O 0.22326 0.81757 0.36985 0.0
O462 O 0.20805 0.79616 0.36906 0.0
O463 O 0.22821 0.78611 0.32139 0.0
O464 O 0.22864 0.80458 0.3049 0.0
C465 C 0.25796 0.82007 0.36221 0.0
O466 O 0.2229 0.78259 0.39934 0.0
O467 O 0.23561 0.80236 0.423 0.0
C468 C 0.21502 0.08797 0.82334 0.0
C469 C 0.21518 0.09661 0.79566 0.0
C470 C 0.21051 0.08879 0.85767 0.0
C471 C 0.20857 0.11376 0.91681 0.0
H472 H 0.18994 0.08208 0.98033 0.0
C473 C 0.20426 0.12176 0.06674 0.0
C474 C 0.20842 0.11442 0.08932 0.0
C475 C 0.20108 0.11799 0.03078 0.0
C476 C 0.19514 0.09102 0.96293 0.0
H477 H 0.2102 0.11247 0.78177 0.0
H478 H 0.2023 0.11395 0.84216 0.0
H479 H 0.19154 0.07847 0.91619 0.0
H480 H 0.21165 0.09686 0.09273 0.0
H481 H 0.20636 0.0904 0.02965 0.0
H482 H 0.2127 0.12634 0.96346 0.0
C483 C 0.20576 0.1066 0.83721 0.0
C484 C 0.19605 0.08896 0.92621 0.0
C485 C 0.21023 0.10573 0.80266 0.0
C486 C 0.20846 0.10269 0.0759 0.0
C487 C 0.20537 0.09897 0.03978 0.0
C488 C 0.20768 0.11582 0.95345 0.0
C489 C 0.20608 0.09829 0.86523 0.0
C490 C 0.20309 0.10032 0.90291 0.0
C491 C 0.2021 0.10688 0.01653 0.0
C492 C 0.20126 0.10449 0.9771 0.0
H493 H 0.21872 0.08079 0.81874 0.0
H494 H 0.21108 0.08238 0.87868 0.0
H495 H 0.21423 0.12273 0.89974 0.0
H496 H 0.20398 0.13077 0.07649 0.0
H497 H 0.1983 0.12411 0.01382 0.0
C498 C 0.89529 0.12829 0.82251 0.0
C499 C 0.89057 0.1185 0.79461 0.0
C500 C 0.89387 0.12408 0.85822 0.0
C501 C 0.87216 0.09676 0.91816 0.0
H502 H 0.90333 0.11382 0.98361 0.0
C503 C 0.86397 0.08585 0.06937 0.0
C504 C 0.87141 0.09717 0.09238 0.0
C505 C 0.86753 0.08672 0.03317 0.0
C506 C 0.89448 0.10904 0.96584 0.0
H507 H 0.88061 0.09663 0.78208 0.0
H508 H 0.87761 0.08917 0.84524 0.0
H509 H 0.90703 0.11859 0.91937 0.0
H510 H 0.88866 0.1181 0.09615 0.0
H511 H 0.89455 0.11994 0.03257 0.0
H512 H 0.85941 0.08794 0.9643 0.0
C513 C 0.88261 0.10011 0.83909 0.0
C514 C 0.89664 0.11169 0.92903 0.0
C515 C 0.8843 0.10437 0.80312 0.0
C516 C 0.88281 0.10921 0.07892 0.0
C517 C 0.88621 0.1102 0.04246 0.0
C518 C 0.86994 0.0943 0.95501 0.0
C519 C 0.88748 0.10997 0.86686 0.0
C520 C 0.88547 0.10575 0.905 0.0
C521 C 0.87844 0.09905 0.01892 0.0
C522 C 0.88105 0.1006 0.97946 0.0
H523 H 0.90025 0.13927 0.81676 0.0
H524 H 0.89756 0.13185 0.87918 0.0
H525 H 0.86336 0.09219 0.90014 0.0
H526 H 0.85523 0.07637 0.07927 0.0
H527 H 0.86155 0.07777 0.01625 0.0
C528 C 0.90327 0.78685 0.08482 0.0
C529 C 0.89142 0.77909 0.10587 0.0
C530 C 0.90209 0.78895 0.04838 0.0
C531 C 0.87663 0.78371 0.97612 0.0
H532 H 0.90227 0.77857 0.91667 0.0
C533 C 0.86415 0.76237 0.83286 0.0
C534 C 0.87398 0.76962 0.80595 0.0
C535 C 0.86734 0.76586 0.86887 0.0
C536 C 0.89518 0.78023 0.93291 0.0
H537 H 0.86904 0.76805 0.1061 0.0
H538 H 0.86686 0.77121 0.04214 0.0
H539 H 0.90572 0.781 0.98137 0.0
H540 H 0.89498 0.78601 0.79565 0.0
H541 H 0.90076 0.79184 0.85932 0.0
H542 H 0.86567 0.78206 0.92745 0.0
C543 C 0.87712 0.77601 0.05373 0.0
C544 C 0.89716 0.7817 0.97003 0.0
C545 C 0.87833 0.77414 0.09041 0.0
C546 C 0.88723 0.78023 0.81587 0.0
C547 C 0.89051 0.78358 0.85216 0.0
C548 C 0.87456 0.78203 0.93906 0.0
C549 C 0.889 0.78308 0.03202 0.0
C550 C 0.88776 0.78319 0.99223 0.0
C551 C 0.8805 0.77655 0.87885 0.0
C552 C 0.88366 0.78001 0.91727 0.0
H553 H 0.9135 0.79091 0.09629 0.0
H554 H 0.91145 0.79479 0.03281 0.0
H555 H 0.86936 0.78513 0.99219 0.0
H556 H 0.85383 0.75418 0.82608 0.0
H557 H 0.85952 0.76014 0.88901 0.0
C558 C 0.10604 0.21502 0.42587 0.0
C559 C 0.11869 0.2174 0.41165 0.0
C560 C 0.10319 0.21219 0.46247 0.0
C561 C 0.12169 0.21863 0.54832 0.0
H562 H 0.08486 0.19529 0.58675 0.0
C563 C 0.11063 0.21767 0.69986 0.0
C564 C 0.09952 0.21982 0.70731 0.0
C565 C 0.11253 0.21411 0.66508 0.0
C566 C 0.09521 0.20181 0.5764 0.0
H567 H 0.1379 0.21786 0.42393 0.0
H568 H 0.13284 0.21268 0.48747 0.0
H569 H 0.08888 0.19504 0.52234 0.0
H570 H 0.08126 0.21917 0.68495 0.0
H571 H 0.08457 0.21305 0.62472 0.0
H572 H 0.12793 0.22575 0.60208 0.0
C573 C 0.12525 0.21332 0.47069 0.0
C574 C 0.09751 0.20171 0.53952 0.0
C575 C 0.12812 0.21623 0.43424 0.0
C576 C 0.08998 0.21767 0.67997 0.0
C577 C 0.09181 0.21402 0.64547 0.0
C578 C 0.1194 0.21872 0.58515 0.0
C579 C 0.11291 0.21162 0.48545 0.0
C580 C 0.1107 0.21038 0.52495 0.0
C581 C 0.10326 0.2125 0.63738 0.0
C582 C 0.10607 0.21059 0.59947 0.0
H583 H 0.09859 0.21586 0.40905 0.0
H584 H 0.09364 0.21106 0.47301 0.0
H585 H 0.13195 0.22559 0.538 0.0
H586 H 0.11811 0.21923 0.7205 0.0
H587 H 0.1214 0.21291 0.65966 0.0
C588 C 0.78 0.89011 0.42598 0.0
C589 C 0.7773 0.90012 0.41143 0.0
C590 C 0.78278 0.89023 0.46265 0.0
C591 C 0.77604 0.9022 0.54844 0.0
H592 H 0.80009 0.88954 0.58666 0.0
C593 C 0.77815 0.89286 0.70029 0.0
C594 C 0.77611 0.87963 0.7078 0.0
C595 C 0.7814 0.89819 0.66531 0.0
C596 C 0.79338 0.89315 0.57637 0.0
H597 H 0.77611 0.91853 0.4233 0.0
H598 H 0.7812 0.91889 0.48701 0.0
H599 H 0.80007 0.89361 0.52223 0.0
H600 H 0.7766 0.86194 0.68534 0.0
H601 H 0.78229 0.8712 0.62482 0.0
H602 H 0.76907 0.90136 0.6024 0.0
C603 C 0.78087 0.91076 0.4704 0.0
C604 C 0.79332 0.89542 0.53947 0.0
C605 C 0.77802 0.91059 0.43385 0.0
C606 C 0.77805 0.87215 0.68031 0.0
C607 C 0.78143 0.87751 0.64564 0.0
C608 C 0.77614 0.89997 0.58533 0.0
C609 C 0.78299 0.90041 0.48543 0.0
C610 C 0.78438 0.89963 0.52496 0.0
C611 C 0.78284 0.89045 0.63753 0.0
C612 C 0.78453 0.89506 0.59956 0.0
H613 H 0.7795 0.88191 0.40932 0.0
H614 H 0.7842 0.882 0.47337 0.0
H615 H 0.7689 0.90527 0.5382 0.0
H616 H 0.77672 0.89883 0.72103 0.0
H617 H 0.78251 0.90823 0.65984 0.0
C618 C 0.10511 0.88755 0.68775 0.0
C619 C 0.11929 0.89286 0.69401 0.0
C620 C 0.10021 0.88674 0.65265 0.0
C621 C 0.11099 0.90197 0.56315 0.0
H622 H 0.08427 0.86595 0.52563 0.0
C623 C 0.10683 0.8891 0.41277 0.0
C624 C 0.09431 0.87849 0.39892 0.0
C625 C 0.10799 0.89247 0.44925 0.0
C626 C 0.09147 0.87619 0.53567 0.0
H627 H 0.13947 0.90168 0.66875 0.0
H628 H 0.13096 0.90048 0.60797 0.0
H629 H 0.08949 0.86866 0.58957 0.0
H630 H 0.07288 0.86386 0.4114 0.0
H631 H 0.07471 0.87014 0.47464 0.0
H632 H 0.11311 0.90956 0.50946 0.0
C633 C 0.12363 0.8969 0.62999 0.0
C634 C 0.09448 0.87769 0.57237 0.0
C635 C 0.12847 0.89746 0.66476 0.0
C636 C 0.08271 0.87199 0.42154 0.0
C637 C 0.0838 0.87552 0.45785 0.0
C638 C 0.10784 0.90053 0.52655 0.0
C639 C 0.10948 0.89153 0.62356 0.0
C640 C 0.10457 0.89049 0.58619 0.0
C641 C 0.09658 0.88544 0.47249 0.0
C642 C 0.09837 0.88752 0.51209 0.0
H643 H 0.09783 0.88397 0.70987 0.0
H644 H 0.08923 0.88251 0.64824 0.0
H645 H 0.11872 0.91199 0.57334 0.0
H646 H 0.11594 0.89422 0.39593 0.0
H647 H 0.11806 0.90005 0.45946 0.0
C648 C 0.78717 0.89232 0.19769 0.0
C649 C 0.77382 0.88427 0.21206 0.0
C650 C 0.78985 0.89045 0.16198 0.0
C651 C 0.77644 0.86625 0.08563 0.0
H652 H 0.78909 0.89886 0.0258 0.0
C653 C 0.76088 0.86178 0.93907 0.0
C654 C 0.77042 0.87053 0.91324 0.0
C655 C 0.76407 0.86384 0.97546 0.0
C656 C 0.78584 0.88971 0.04212 0.0
H657 H 0.75307 0.86748 0.20144 0.0
H658 H 0.75782 0.86395 0.13967 0.0
H659 H 0.79026 0.90121 0.09122 0.0
H660 H 0.79073 0.88847 0.9053 0.0
H661 H 0.79637 0.89214 0.9696 0.0
H662 H 0.77164 0.85466 0.03685 0.0
C663 C 0.76619 0.87176 0.1557 0.0
C664 C 0.78652 0.89106 0.07956 0.0
C665 C 0.76345 0.8738 0.191 0.0
C666 C 0.78318 0.8816 0.92468 0.0
C667 C 0.7864 0.88368 0.9614 0.0
C668 C 0.77585 0.86491 0.04834 0.0
C669 C 0.7793 0.8803 0.14052 0.0
C670 C 0.78133 0.87927 0.10159 0.0
C671 C 0.77692 0.87468 0.98712 0.0
C672 C 0.78 0.87654 0.02619 0.0
H673 H 0.79531 0.90054 0.21335 0.0
H674 H 0.80004 0.89714 0.15088 0.0
H675 H 0.77256 0.85702 0.10203 0.0
H676 H 0.75091 0.85322 0.93119 0.0
H677 H 0.75638 0.85695 0.99456 0.0
C678 C 0.09788 0.86773 0.16717 0.0
C679 C 0.10293 0.87733 0.19548 0.0
C680 C 0.0994 0.87219 0.13166 0.0
C681 C 0.12157 0.8998 0.07245 0.0
H682 H 0.09029 0.88349 0.00725 0.0
C683 C 0.12955 0.9113 0.92123 0.0
C684 C 0.12205 0.9 0.89819 0.0
C685 C 0.12606 0.91041 0.95754 0.0
C686 C 0.09916 0.88807 0.02496 0.0
H687 H 0.11361 0.89915 0.20892 0.0
H688 H 0.11674 0.90704 0.14614 0.0
H689 H 0.08663 0.87836 0.07133 0.0
H690 H 0.10476 0.87908 0.89459 0.0
H691 H 0.09897 0.87723 0.95814 0.0
H692 H 0.13428 0.90881 0.02628 0.0
C693 C 0.11142 0.89604 0.15179 0.0
C694 C 0.09703 0.8852 0.06168 0.0
C695 C 0.10964 0.89155 0.18756 0.0
C696 C 0.11066 0.88797 0.91176 0.0
C697 C 0.10732 0.88697 0.94824 0.0
C698 C 0.12375 0.90249 0.03566 0.0
C699 C 0.10621 0.88637 0.1236 0.0
C700 C 0.10824 0.89085 0.08562 0.0
C701 C 0.11515 0.89808 0.9718 0.0
C702 C 0.11261 0.89644 0.01129 0.0
H703 H 0.09258 0.8567 0.17245 0.0
H704 H 0.09544 0.86454 0.11039 0.0
H705 H 0.1304 0.90416 0.09038 0.0
H706 H 0.13831 0.92077 0.91133 0.0
H707 H 0.13212 0.91931 0.97454 0.0
C708 C 0.09674 0.21473 0.92365 0.0
C709 C 0.0983 0.22743 0.91211 0.0
C710 C 0.09587 0.21164 0.9604 0.0
C711 C 0.08807 0.22237 0.0476 0.0
H712 H 0.10939 0.20718 0.08962 0.0
C713 C 0.10849 0.23315 0.19132 0.0
C714 C 0.10835 0.2225 0.21164 0.0
C715 C 0.10399 0.23086 0.15577 0.0
C716 C 0.10314 0.21116 0.07819 0.0
H717 H 0.10062 0.247 0.92986 0.0
H718 H 0.0994 0.24179 0.99338 0.0
H719 H 0.10838 0.20878 0.02429 0.0
H720 H 0.10298 0.20095 0.21131 0.0
H721 H 0.09532 0.19699 0.14843 0.0
H722 H 0.08342 0.22541 0.10146 0.0
C723 C 0.09846 0.23403 0.97433 0.0
C724 C 0.10258 0.21209 0.0408 0.0
C725 C 0.09931 0.23708 0.93786 0.0
C726 C 0.10309 0.20931 0.19623 0.0
C727 C 0.09881 0.20707 0.16029 0.0
C728 C 0.08871 0.22153 0.08484 0.0
C729 C 0.09652 0.22121 0.98609 0.0
C730 C 0.09542 0.21816 0.02518 0.0
C731 C 0.09945 0.21791 0.1396 0.0
C732 C 0.09661 0.21632 0.10052 0.0
H733 H 0.09588 0.20708 0.90433 0.0
H734 H 0.09438 0.20168 0.96865 0.0
H735 H 0.08216 0.22676 0.03636 0.0
H736 H 0.11252 0.24342 0.20257 0.0
H737 H 0.10473 0.23944 0.14037 0.0
C738 C 0.8858 0.78521 0.31646 0.0
C739 C 0.89182 0.77705 0.30889 0.0
C740 C 0.88548 0.78937 0.35178 0.0
C741 C 0.90187 0.79415 0.44055 0.0
H742 H 0.86556 0.78294 0.47929 0.0
C743 C 0.88846 0.78142 0.58957 0.0
C744 C 0.87752 0.78254 0.60439 0.0
C745 C 0.89213 0.78483 0.55356 0.0
C746 C 0.87587 0.78652 0.46896 0.0
H747 H 0.9026 0.76722 0.3319 0.0
H748 H 0.90216 0.77457 0.39311 0.0
H749 H 0.86837 0.78159 0.41498 0.0
H750 H 0.86267 0.78928 0.59452 0.0
H751 H 0.86944 0.79579 0.53221 0.0
H752 H 0.90938 0.79885 0.4945 0.0
C753 C 0.89769 0.77776 0.37196 0.0
C754 C 0.87744 0.78569 0.43201 0.0
C755 C 0.8978 0.77343 0.33696 0.0
C756 C 0.87104 0.78814 0.58353 0.0
C757 C 0.87485 0.79177 0.54777 0.0
C758 C 0.90035 0.79515 0.47748 0.0
C759 C 0.89143 0.78566 0.3798 0.0
C760 C 0.89035 0.78905 0.41764 0.0
C761 C 0.88506 0.78963 0.53188 0.0
C762 C 0.88724 0.79089 0.49231 0.0
H763 H 0.88115 0.78817 0.29525 0.0
H764 H 0.88056 0.79544 0.35724 0.0
H765 H 0.91199 0.79696 0.42998 0.0
H766 H 0.8936 0.77708 0.60509 0.0
H767 H 0.89995 0.7829 0.54229 0.0
C768 C 0.2382 0.1108 0.56967 0.0
C769 C 0.22672 0.10422 0.59262 0.0
C770 C 0.23644 0.11254 0.53339 0.0
C771 C 0.21233 0.09755 0.45933 0.0
H772 H 0.23697 0.13259 0.41323 0.0
C773 C 0.21155 0.10823 0.30581 0.0
C774 C 0.22456 0.11652 0.28981 0.0
C775 C 0.21046 0.10605 0.34303 0.0
C776 C 0.23009 0.12269 0.42561 0.0
H777 H 0.20439 0.09435 0.59579 0.0
H778 H 0.20127 0.09722 0.5316 0.0
H779 H 0.23726 0.13071 0.47829 0.0
H780 H 0.24664 0.12823 0.29965 0.0
H781 H 0.2448 0.12415 0.36402 0.0
H782 H 0.20546 0.08943 0.40635 0.0
C783 C 0.21162 0.10108 0.54201 0.0
C784 C 0.2302 0.12165 0.46288 0.0
C785 C 0.21341 0.09953 0.57865 0.0
C786 C 0.23647 0.12192 0.31128 0.0
C787 C 0.23539 0.11968 0.34823 0.0
C788 C 0.21227 0.09856 0.42182 0.0
C789 C 0.22315 0.10759 0.51908 0.0
C790 C 0.22157 0.10901 0.48007 0.0
C791 C 0.22237 0.11209 0.36474 0.0
C792 C 0.22141 0.11107 0.40454 0.0
H793 H 0.24858 0.11452 0.57969 0.0
H794 H 0.2455 0.11746 0.51629 0.0
H795 H 0.20562 0.08765 0.47195 0.0
H796 H 0.20219 0.10399 0.28987 0.0
H797 H 0.20028 0.10014 0.35495 0.0
C798 C 0.91177 0.12415 0.56868 0.0
C799 C 0.90033 0.11713 0.59159 0.0
C800 C 0.91077 0.12058 0.53243 0.0
C801 C 0.88755 0.09464 0.46429 0.0
H802 H 0.90353 0.12662 0.40125 0.0
C803 C 0.86523 0.0955 0.32658 0.0
C804 C 0.87431 0.10146 0.29743 0.0
C805 C 0.87034 0.09621 0.36112 0.0
C806 C 0.89922 0.11757 0.41842 0.0
H807 H 0.87912 0.10039 0.59517 0.0
H808 H 0.87714 0.09443 0.53174 0.0
H809 H 0.90906 0.12967 0.46497 0.0
H810 H 0.89585 0.11282 0.28146 0.0
H811 H 0.90486 0.11446 0.3426 0.0
H812 H 0.87704 0.08273 0.41769 0.0
C813 C 0.88703 0.1025 0.54169 0.0
C814 C 0.90241 0.11928 0.455 0.0
C815 C 0.88811 0.10594 0.5781 0.0
C816 C 0.88864 0.10817 0.3035 0.0
C817 C 0.89378 0.10909 0.33835 0.0
C818 C 0.88424 0.09297 0.42777 0.0
C819 C 0.89822 0.11005 0.51814 0.0
C820 C 0.89635 0.10788 0.4786 0.0
C821 C 0.88464 0.10306 0.36742 0.0
C822 C 0.88978 0.10448 0.40469 0.0
H823 H 0.92137 0.13274 0.57853 0.0
H824 H 0.91971 0.12639 0.51537 0.0
H825 H 0.88293 0.08559 0.48143 0.0
H826 H 0.85413 0.09019 0.32271 0.0
H827 H 0.86307 0.09165 0.3831 0.0
C828 C 0.88023 0.44368 0.12742 0.0
C829 C 0.88342 0.43321 0.1206 0.0
C830 C 0.87609 0.44521 0.16185 0.0
C831 C 0.86352 0.42736 0.24971 0.0
H832 H 0.88504 0.46419 0.28991 0.0
C833 C 0.87546 0.43758 0.40051 0.0
C834 C 0.87733 0.44996 0.41539 0.0
C835 C 0.87265 0.43487 0.36388 0.0
C836 C 0.87868 0.45388 0.27906 0.0
H837 H 0.88413 0.41573 0.14375 0.0
H838 H 0.87693 0.41836 0.20333 0.0
H839 H 0.88625 0.46072 0.22585 0.0
H840 H 0.87678 0.46876 0.40428 0.0
H841 H 0.8716 0.46391 0.34059 0.0
H842 H 0.8563 0.42045 0.30318 0.0
C843 C 0.87755 0.42538 0.18235 0.0
C844 C 0.87939 0.4519 0.24225 0.0
C845 C 0.8818 0.42395 0.14824 0.0
C846 C 0.87552 0.45918 0.39347 0.0
C847 C 0.87263 0.45644 0.35693 0.0
C848 C 0.86278 0.42934 0.28653 0.0
C849 C 0.87489 0.43617 0.18979 0.0
C850 C 0.87215 0.43856 0.22736 0.0
C851 C 0.87157 0.44445 0.34146 0.0
C852 C 0.87067 0.44256 0.30181 0.0
H853 H 0.88138 0.45095 0.10655 0.0
H854 H 0.87404 0.45359 0.1668 0.0
H855 H 0.85766 0.41698 0.23888 0.0
H856 H 0.87683 0.4303 0.41676 0.0
H857 H 0.87204 0.4256 0.35285 0.0
C858 C 0.56889 0.46287 0.15801 0.0
C859 C 0.56203 0.45376 0.12945 0.0
C860 C 0.56767 0.4579 0.19293 0.0
C861 C 0.54368 0.43026 0.25067 0.0
H862 H 0.57469 0.44484 0.31672 0.0
C863 C 0.53442 0.41789 0.40068 0.0
C864 C 0.54172 0.42916 0.42395 0.0
C865 C 0.53837 0.41876 0.36479 0.0
C866 C 0.56591 0.44071 0.29869 0.0
H867 H 0.54872 0.43226 0.11481 0.0
H868 H 0.5463 0.42351 0.17647 0.0
H869 H 0.57881 0.45027 0.25281 0.0
H870 H 0.55923 0.44992 0.42859 0.0
H871 H 0.56587 0.4517 0.36558 0.0
H872 H 0.53067 0.42136 0.29637 0.0
C873 C 0.5527 0.43452 0.17156 0.0
C874 C 0.56829 0.44377 0.26209 0.0
C875 C 0.55409 0.4395 0.13638 0.0
C876 C 0.55345 0.44107 0.41119 0.0
C877 C 0.55728 0.44204 0.37508 0.0
C878 C 0.54128 0.42732 0.28727 0.0
C879 C 0.55943 0.4437 0.20016 0.0
C880 C 0.55716 0.43882 0.23787 0.0
C881 C 0.54955 0.43101 0.3512 0.0
C882 C 0.55234 0.43276 0.31189 0.0
H883 H 0.57516 0.47392 0.15347 0.0
H884 H 0.57281 0.46524 0.21447 0.0
H885 H 0.5349 0.42645 0.23268 0.0
H886 H 0.52543 0.4085 0.41 0.0
H887 H 0.53239 0.40994 0.34747 0.0
C888 C 0.57598 0.1161 0.41442 0.0
C889 C 0.56452 0.1115 0.4373 0.0
C890 C 0.57499 0.11881 0.37831 0.0
C891 C 0.5518 0.12175 0.31066 0.0
H892 H 0.56875 0.10714 0.24635 0.0
C893 C 0.53106 0.10043 0.17043 0.0
C894 C 0.54047 0.10436 0.14178 0.0
C895 C 0.53576 0.10428 0.20549 0.0
C896 C 0.56417 0.11149 0.26391 0.0
H897 H 0.54323 0.10671 0.44105 0.0
H898 H 0.54123 0.11087 0.37765 0.0
H899 H 0.57374 0.10876 0.31028 0.0
H900 H 0.56217 0.11541 0.12722 0.0
H901 H 0.57047 0.1218 0.18927 0.0
H902 H 0.54154 0.12359 0.2641 0.0
C903 C 0.55114 0.11277 0.38758 0.0
C904 C 0.56704 0.11248 0.30062 0.0
C905 C 0.55223 0.1103 0.42393 0.0
C906 C 0.55472 0.11222 0.14887 0.0
C907 C 0.55945 0.11588 0.18423 0.0
C908 C 0.54878 0.12057 0.27399 0.0
C909 C 0.56241 0.1167 0.36409 0.0
C910 C 0.56066 0.11734 0.32462 0.0
C911 C 0.54997 0.11198 0.21277 0.0
C912 C 0.55471 0.11515 0.25045 0.0
H913 H 0.58564 0.11727 0.42425 0.0
H914 H 0.58399 0.12219 0.36134 0.0
H915 H 0.54693 0.12582 0.32814 0.0
H916 H 0.52001 0.09443 0.16576 0.0
H917 H 0.52825 0.10097 0.22706 0.0
C918 C 0.77636 0.55426 0.74141 0.0
C919 C 0.7869 0.55219 0.72787 0.0
C920 C 0.77278 0.55191 0.77779 0.0
C921 C 0.7883 0.55032 0.86448 0.0
H922 H 0.75242 0.54158 0.90183 0.0
C923 C 0.77639 0.54871 0.01686 0.0
C924 C 0.77098 0.55728 0.02595 0.0
C925 C 0.77724 0.54563 0.9808 0.0
C926 C 0.76247 0.54395 0.89169 0.0
H927 H 0.80115 0.54496 0.74047 0.0
H928 H 0.79443 0.54012 0.80326 0.0
H929 H 0.75529 0.53979 0.83739 0.0
H930 H 0.76196 0.56911 0.00471 0.0
H931 H 0.76328 0.56358 0.94213 0.0
H932 H 0.79542 0.55448 0.91891 0.0
C933 C 0.78933 0.54417 0.78655 0.0
C934 C 0.76415 0.54302 0.85479 0.0
C935 C 0.79311 0.54682 0.75049 0.0
C936 C 0.76626 0.56254 -0.00148 0.0
C937 C 0.76688 0.55928 0.96272 0.0
C938 C 0.78655 0.55103 0.90138 0.0
C939 C 0.7795 0.54718 0.80105 0.0
C940 C 0.77718 0.54652 0.84058 0.0
C941 C 0.77241 0.55085 0.95349 0.0
C942 C 0.77372 0.54818 0.91519 0.0
H943 H 0.77147 0.55847 0.72443 0.0
H944 H 0.76526 0.55449 0.78792 0.0
H945 H 0.79856 0.55337 0.85468 0.0
H946 H 0.78004 0.54449 0.03753 0.0
H947 H 0.78157 0.53912 0.97425 0.0
C948 C 0.44836 0.24673 0.7666 0.0
C949 C 0.44612 0.23551 0.74481 0.0
C950 C 0.45151 0.24697 0.80294 0.0
C951 C 0.46138 0.22968 0.87297 0.0
H952 H 0.43876 0.23847 0.93446 0.0
C953 C 0.44282 0.20604 0.01204 0.0
C954 C 0.44136 0.21383 0.03953 0.0
C955 C 0.44711 0.21162 0.97787 0.0
C956 C 0.44541 0.23629 0.91783 0.0
H957 H 0.44612 0.21611 0.74339 0.0
H958 H 0.45134 0.21634 0.80713 0.0
H959 H 0.43956 0.24278 0.8703 0.0
H960 H 0.4438 0.23379 0.05332 0.0
H961 H 0.4512 0.24361 0.99294 0.0
H962 H 0.46668 0.22259 0.92055 0.0
C963 C 0.45087 0.22507 0.79608 0.0
C964 C 0.44587 0.23875 0.88096 0.0
C965 C 0.44781 0.22488 0.75958 0.0
C966 C 0.44481 0.22756 0.03256 0.0
C967 C 0.44899 0.23314 0.99805 0.0
C968 C 0.46089 0.22719 0.90988 0.0
C969 C 0.45239 0.23594 0.81837 0.0
C970 C 0.45355 0.23512 0.85795 0.0
C971 C 0.44997 0.22512 0.97023 0.0
C972 C 0.45257 0.23009 0.93253 0.0
H973 H 0.44728 0.25516 0.75582 0.0
H974 H 0.45288 0.25562 0.81917 0.0
H975 H 0.4676 0.22702 0.85609 0.0
H976 H 0.44031 0.19544 0.01668 0.0
H977 H 0.44755 0.20509 0.95698 0.0
C978 C 0.76792 0.19832 0.766 0.0
C979 C 0.76714 0.20725 0.74078 0.0
C980 C 0.76665 0.20003 0.80256 0.0
C981 C 0.76953 0.22513 0.87083 0.0
H982 H 0.75013 0.19185 0.92863 0.0
C983 C 0.76786 0.22677 0.02605 0.0
C984 C 0.77328 0.21901 0.04158 0.0
C985 C 0.76395 0.2249 0.98983 0.0
C986 C 0.75548 0.20123 0.9128 0.0
H987 H 0.76467 0.22519 0.73407 0.0
H988 H 0.76237 0.2282 0.79851 0.0
H989 H 0.74982 0.19002 0.86336 0.0
H990 H 0.77806 0.20268 0.03247 0.0
H991 H 0.77089 0.19914 0.96975 0.0
H992 H 0.77541 0.23628 0.92061 0.0
C993 C 0.76404 0.21989 0.78981 0.0
C994 C 0.75539 0.2002 0.87546 0.0
C995 C 0.76537 0.21818 0.75298 0.0
C996 C 0.77389 0.20877 0.02112 0.0
C997 C 0.76974 0.20673 0.98526 0.0
C998 C 0.76952 0.22617 0.90829 0.0
C999 C 0.76446 0.21068 0.81495 0.0
C1000 C 0.76284 0.21209 0.85409 0.0
C1001 C 0.76513 0.21505 0.96896 0.0
C1002 C 0.76289 0.21418 0.92962 0.0
H1003 H 0.76939 0.18985 0.75749 0.0
H1004 H 0.76743 0.193 0.82118 0.0
H1005 H 0.7754 0.23448 0.85518 0.0
H1006 H 0.76741 0.23482 0.04123 0.0
H1007 H 0.76038 0.23141 0.97788 0.0
C1008 C 0.42513 0.20816 0.52518 0.0
C1009 C 0.4363 0.21802 0.54555 0.0
C1010 C 0.42698 0.20587 0.48931 0.0
C1011 C 0.44713 0.22411 0.41171 0.0
H1012 H 0.42975 0.18754 0.36892 0.0
C1013 C 0.44421 0.21498 0.25702 0.0
C1014 C 0.43153 0.20413 0.24447 0.0
C1015 C 0.4469 0.21687 0.29399 0.0
C1016 C 0.4346 0.19784 0.3804 0.0
H1017 H 0.45825 0.23295 0.54491 0.0
H1018 H 0.46144 0.22913 0.48153 0.0
H1019 H 0.43095 0.1899 0.43409 0.0
H1020 H 0.41156 0.1871 0.26059 0.0
H1021 H 0.41604 0.1906 0.32452 0.0
H1022 H 0.45015 0.23204 0.35805 0.0
C1023 C 0.4513 0.22311 0.49359 0.0
C1024 C 0.43536 0.19917 0.4177 0.0
C1025 C 0.44949 0.22521 0.5298 0.0
C1026 C 0.42148 0.19548 0.26942 0.0
C1027 C 0.42412 0.19741 0.30613 0.0
C1028 C 0.44625 0.22278 0.37429 0.0
C1029 C 0.43999 0.21357 0.47291 0.0
C1030 C 0.4413 0.21229 0.43372 0.0
C1031 C 0.43693 0.20797 0.31893 0.0
C1032 C 0.43959 0.2096 0.35825 0.0
H1033 H 0.41485 0.2025 0.53668 0.0
H1034 H 0.41806 0.19854 0.47392 0.0
H1035 H 0.45167 0.23435 0.42343 0.0
H1036 H 0.45216 0.22176 0.23833 0.0
H1037 H 0.45688 0.2251 0.30298 0.0
C1038 C 0.78044 0.23094 0.52835 0.0
C1039 C 0.76948 0.21756 0.53564 0.0
C1040 C 0.78209 0.23656 0.49381 0.0
C1041 C 0.76397 0.23193 0.40669 0.0
H1042 H 0.80015 0.24479 0.36478 0.0
C1043 C 0.7725 0.22847 0.25554 0.0
C1044 C 0.785 0.23844 0.23992 0.0
C1045 C 0.77021 0.22893 0.29232 0.0
C1046 C 0.79004 0.24153 0.37611 0.0
H1047 H 0.75127 0.19987 0.51329 0.0
H1048 H 0.7541 0.20962 0.45358 0.0
H1049 H 0.79696 0.24063 0.4291 0.0
H1050 H 0.80452 0.2572 0.2499 0.0
H1051 H 0.80042 0.25813 0.31384 0.0
H1052 H 0.75695 0.23237 0.35347 0.0
C1053 C 0.76141 0.21583 0.47423 0.0
C1054 C 0.78823 0.23916 0.41306 0.0
C1055 C 0.75987 0.21019 0.50842 0.0
C1056 C 0.79483 0.24929 0.2613 0.0
C1057 C 0.79252 0.24979 0.29797 0.0
C1058 C 0.76579 0.23433 0.36973 0.0
C1059 C 0.77267 0.22896 0.46629 0.0
C1060 C 0.77508 0.23392 0.42857 0.0
C1061 C 0.78035 0.2394 0.31413 0.0
C1062 C 0.77876 0.23877 0.35385 0.0
H1063 H 0.78798 0.23684 0.54891 0.0
H1064 H 0.79083 0.24674 0.48844 0.0
H1065 H 0.75375 0.22808 0.41801 0.0
H1066 H 0.76475 0.21999 0.23971 0.0
H1067 H 0.76078 0.22067 0.30391 0.0
C1068 C 0.79798 0.55747 0.49521 0.0
C1069 C 0.78842 0.55357 0.52347 0.0
C1070 C 0.7935 0.55334 0.46011 0.0
C1071 C 0.76472 0.54504 0.40124 0.0
H1072 H 0.78391 0.53316 0.33619 0.0
C1073 C 0.75361 0.54137 0.25055 0.0
C1074 C 0.76534 0.54729 0.22834 0.0
C1075 C 0.7546 0.53823 0.28631 0.0
C1076 C 0.77847 0.53652 0.35394 0.0
H1077 H 0.76666 0.54212 0.53737 0.0
H1078 H 0.75873 0.53512 0.47536 0.0
H1079 H 0.78904 0.5351 0.40038 0.0
H1080 H 0.78714 0.55387 0.22533 0.0
H1081 H 0.78906 0.54887 0.28809 0.0
H1082 H 0.75475 0.5473 0.35501 0.0
C1083 C 0.76972 0.5413 0.48066 0.0
C1084 C 0.78136 0.53755 0.39069 0.0
C1085 C 0.77424 0.54529 0.51603 0.0
C1086 C 0.77793 0.54928 0.24189 0.0
C1087 C 0.77898 0.54634 0.27788 0.0
C1088 C 0.76193 0.54415 0.36449 0.0
C1089 C 0.77933 0.54534 0.45239 0.0
C1090 C 0.77475 0.54215 0.41454 0.0
C1091 C 0.76741 0.54117 0.30082 0.0
C1092 C 0.76902 0.5402 0.34023 0.0
H1093 H 0.80899 0.5638 0.50015 0.0
H1094 H 0.80112 0.55677 0.43882 0.0
H1095 H 0.75959 0.54876 0.41897 0.0
H1096 H 0.74373 0.53958 0.24059 0.0
H1097 H 0.7454 0.53392 0.30287 0.0
C1098 C 0.56412 0.10138 0.67004 0.0
C1099 C 0.55842 0.10516 0.64159 0.0
C1100 C 0.563 0.10489 0.70527 0.0
C1101 C 0.54084 0.11062 0.76398 0.0
H1102 H 0.57219 0.12553 0.82898 0.0
C1103 C 0.53281 0.11406 0.91466 0.0
C1104 C 0.53996 0.1098 0.93752 0.0
C1105 C 0.53654 0.11696 0.87861 0.0
C1106 C 0.56331 0.12128 0.81128 0.0
H1107 H 0.54713 0.11562 0.62756 0.0
H1108 H 0.54476 0.12141 0.68989 0.0
H1109 H 0.57575 0.12392 0.76487 0.0
H1110 H 0.55698 0.10578 0.94126 0.0
H1111 H 0.56321 0.11026 0.87795 0.0
H1112 H 0.52822 0.10711 0.81018 0.0
C1113 C 0.55024 0.11587 0.68456 0.0
C1114 C 0.56538 0.12046 0.77457 0.0
C1115 C 0.55158 0.11256 0.64905 0.0
C1116 C 0.55134 0.1091 0.92416 0.0
C1117 C 0.55493 0.11175 0.88787 0.0
C1118 C 0.53873 0.11125 0.80072 0.0
C1119 C 0.556 0.11209 0.71292 0.0
C1120 C 0.55412 0.11485 0.75074 0.0
C1121 C 0.54734 0.11538 0.86442 0.0
C1122 C 0.5499 0.11632 0.82498 0.0
H1123 H 0.56953 0.09575 0.66509 0.0
H1124 H 0.56736 0.10169 0.72668 0.0
H1125 H 0.53197 0.10611 0.74619 0.0
H1126 H 0.52409 0.11485 0.92448 0.0
H1127 H 0.53071 0.12009 0.86167 0.0
C1128 C 0.89863 0.4422 0.63354 0.0
C1129 C 0.88755 0.44148 0.61395 0.0
C1130 C 0.89699 0.43838 0.66965 0.0
C1131 C 0.87793 0.43819 0.74848 0.0
H1132 H 0.89464 0.41842 0.79146 0.0
C1133 C 0.88094 0.43211 0.90322 0.0
C1134 C 0.8935 0.43365 0.91574 0.0
C1135 C 0.87826 0.4314 0.86627 0.0
C1136 C 0.88999 0.42404 0.77991 0.0
H1137 H 0.86594 0.43577 0.61627 0.0
H1138 H 0.86312 0.42926 0.67994 0.0
H1139 H 0.89308 0.41918 0.7263 0.0
H1140 H 0.91329 0.43615 0.89953 0.0
H1141 H 0.9088 0.43526 0.83558 0.0
H1142 H 0.87539 0.44357 0.80206 0.0
C1143 C 0.87304 0.43271 0.66716 0.0
C1144 C 0.88903 0.42439 0.74261 0.0
C1145 C 0.87462 0.43632 0.63074 0.0
C1146 C 0.90345 0.43484 0.89074 0.0
C1147 C 0.90082 0.43419 0.85403 0.0
C1148 C 0.87899 0.43792 0.78589 0.0
C1149 C 0.88429 0.43396 0.68709 0.0
C1150 C 0.88331 0.43176 0.72649 0.0
C1151 C 0.88811 0.43223 0.84128 0.0
C1152 C 0.88539 0.43117 0.80198 0.0
H1153 H 0.90871 0.44617 0.62126 0.0
H1154 H 0.90588 0.43957 0.6844 0.0
H1155 H 0.87358 0.44405 0.73672 0.0
H1156 H 0.87306 0.43111 0.92194 0.0
H1157 H 0.86836 0.42986 0.85731 0.0
C1158 C 0.55335 0.43698 0.63685 0.0
C1159 C 0.54124 0.43719 0.62777 0.0
C1160 C 0.55727 0.43772 0.6729 0.0
C1161 C 0.54274 0.43199 0.76477 0.0
H1162 H 0.58039 0.45742 0.79452 0.0
C1163 C 0.57135 0.46593 0.89581 0.0
C1164 C 0.56485 0.45617 0.92333 0.0
C1165 C 0.57005 0.46172 0.86011 0.0
C1166 C 0.56984 0.45021 0.78659 0.0
H1167 H 0.52394 0.43867 0.64911 0.0
H1168 H 0.53084 0.44014 0.71149 0.0
H1169 H 0.57477 0.45387 0.73061 0.0
H1170 H 0.55234 0.43429 0.93531 0.0
H1171 H 0.54999 0.42687 0.87248 0.0
H1172 H 0.53762 0.42886 0.82058 0.0
C1173 C 0.53718 0.43912 0.69104 0.0
C1174 C 0.56666 0.4481 0.75 0.0
C1175 C 0.5333 0.43842 0.65522 0.0
C1176 C 0.55741 0.44204 0.91457 0.0
C1177 C 0.55604 0.43781 0.87866 0.0
C1178 C 0.54592 0.4341 0.80129 0.0
C1179 C 0.5491 0.43861 0.70037 0.0
C1180 C 0.55297 0.43931 0.73876 0.0
C1181 C 0.56218 0.44765 0.851 0.0
C1182 C 0.55941 0.44357 0.81262 0.0
H1183 H 0.55964 0.43598 0.61621 0.0
H1184 H 0.56653 0.43732 0.67931 0.0
H1185 H 0.53214 0.42495 0.75689 0.0
H1186 H 0.57721 0.4769 0.90172 0.0
H1187 H 0.57474 0.46959 0.83951 0.0
C1188 C 0.54265 0.78103 0.73849 0.0
C1189 C 0.55526 0.79233 0.74985 0.0
C1190 C 0.53961 0.77861 0.70174 0.0
C1191 C 0.55025 0.7967 0.6139 0.0
H1192 H 0.5365 0.76013 0.57326 0.0
C1193 C 0.56318 0.78712 0.47248 0.0
C1194 C 0.55287 0.77655 0.45152 0.0
C1195 C 0.56039 0.78923 0.50766 0.0
C1196 C 0.54007 0.77035 0.58429 0.0
H1197 H 0.57469 0.80972 0.73176 0.0
H1198 H 0.56952 0.80541 0.66837 0.0
H1199 H 0.53744 0.763 0.63854 0.0
H1200 H 0.53146 0.76009 0.45036 0.0
H1201 H 0.52664 0.7636 0.51268 0.0
H1202 H 0.5536 0.80414 0.55977 0.0
C1203 C 0.56181 0.79858 0.68751 0.0
C1204 C 0.54061 0.772 0.62164 0.0
C1205 C 0.56483 0.80098 0.72394 0.0
C1206 C 0.53955 0.76839 0.46595 0.0
C1207 C 0.53682 0.77032 0.50156 0.0
C1208 C 0.54981 0.79506 0.57672 0.0
C1209 C 0.54911 0.7875 0.6759 0.0
C1210 C 0.5462 0.78527 0.6368 0.0
C1211 C 0.54729 0.78065 0.52284 0.0
C1212 C 0.54515 0.78195 0.56158 0.0
H1213 H 0.53508 0.77421 0.75793 0.0
H1214 H 0.52974 0.76996 0.69358 0.0
H1215 H 0.55428 0.80702 0.62476 0.0
H1216 H 0.57354 0.79353 0.46199 0.0
H1217 H 0.56869 0.79717 0.52357 0.0
C1218 C 0.23715 0.79128 0.4901 0.0
C1219 C 0.22818 0.78312 0.46256 0.0
C1220 C 0.23587 0.78595 0.52461 0.0
C1221 C 0.20967 0.761 0.58451 0.0
H1222 H 0.24097 0.77075 0.64726 0.0
C1223 C 0.20136 0.74919 0.73492 0.0
C1224 C 0.21015 0.7601 0.75775 0.0
C1225 C 0.20453 0.74948 0.69859 0.0
C1226 C 0.23212 0.76798 0.63011 0.0
H1227 H 0.21118 0.76279 0.44907 0.0
H1228 H 0.20879 0.75343 0.50994 0.0
H1229 H 0.24476 0.77557 0.58298 0.0
H1230 H 0.22945 0.77955 0.761 0.0
H1231 H 0.23485 0.78031 0.6972 0.0
H1232 H 0.19708 0.75403 0.63151 0.0
C1233 C 0.21682 0.76399 0.50464 0.0
C1234 C 0.23429 0.77068 0.59331 0.0
C1235 C 0.2182 0.76931 0.46986 0.0
C1236 C 0.22251 0.771 0.74397 0.0
C1237 C 0.22562 0.77138 0.70744 0.0
C1238 C 0.20751 0.75837 0.62126 0.0
C1239 C 0.22552 0.77235 0.53247 0.0
C1240 C 0.22311 0.76752 0.57027 0.0
C1241 C 0.21647 0.76078 0.68415 0.0
C1242 C 0.21874 0.7621 0.64465 0.0
H1243 H 0.24501 0.80195 0.48521 0.0
H1244 H 0.24261 0.79272 0.54551 0.0
H1245 H 0.20087 0.75863 0.56756 0.0
H1246 H 0.19184 0.74055 0.74496 0.0
H1247 H 0.19742 0.741 0.68163 0.0
C1248 C 0.22487 0.45864 0.46156 0.0
C1249 C 0.2221 0.44574 0.44799 0.0
C1250 C 0.2291 0.46222 0.49724 0.0
C1251 C 0.24427 0.4553 0.57542 0.0
H1252 H 0.21598 0.45692 0.63214 0.0
C1253 C 0.23775 0.44194 0.72482 0.0
C1254 C 0.23211 0.4477 0.7482 0.0
C1255 C 0.23882 0.44479 0.68817 0.0
C1256 C 0.22421 0.45688 0.61688 0.0
H1257 H 0.22243 0.42692 0.45993 0.0
H1258 H 0.23043 0.43346 0.5218 0.0
H1259 H 0.21483 0.45708 0.56682 0.0
H1260 H 0.22357 0.46132 0.75175 0.0
H1261 H 0.2259 0.46677 0.68755 0.0
H1262 H 0.25376 0.45516 0.62506 0.0
C1263 C 0.22915 0.44068 0.50505 0.0
C1264 C 0.2235 0.45692 0.5794 0.0
C1265 C 0.22457 0.43694 0.46975 0.0
C1266 C 0.22788 0.45668 0.73426 0.0
C1267 C 0.22916 0.45973 0.69745 0.0
C1268 C 0.24518 0.45557 0.61286 0.0
C1269 C 0.23098 0.45312 0.51944 0.0
C1270 C 0.23327 0.45568 0.55844 0.0
C1271 C 0.23451 0.45368 0.67382 0.0
C1272 C 0.23486 0.45581 0.63417 0.0
H1273 H 0.22287 0.46553 0.44541 0.0
H1274 H 0.23043 0.47185 0.50787 0.0
H1275 H 0.25197 0.45443 0.5597 0.0
H1276 H 0.24101 0.43489 0.73469 0.0
H1277 H 0.24265 0.43961 0.671 0.0
C1278 C 0.45409 0.87411 0.08356 0.0
C1279 C 0.44678 0.87869 0.06234 0.0
C1280 C 0.451 0.87124 0.11998 0.0
C1281 C 0.42587 0.86794 0.19136 0.0
H1282 H 0.45852 0.8836 0.25193 0.0
C1283 C 0.42894 0.89179 0.32904 0.0
C1284 C 0.43436 0.88795 0.35799 0.0
C1285 C 0.42937 0.88738 0.29434 0.0
C1286 C 0.44929 0.87894 0.23541 0.0
H1287 H 0.43005 0.88321 0.06193 0.0
H1288 H 0.42492 0.87872 0.12561 0.0
H1289 H 0.46084 0.88137 0.18762 0.0
H1290 H 0.44457 0.87656 0.37342 0.0
H1291 H 0.44583 0.86923 0.31182 0.0
H1292 H 0.41454 0.86649 0.23918 0.0
C1293 C 0.43284 0.87698 0.11422 0.0
C1294 C 0.45058 0.8776 0.19851 0.0
C1295 C 0.43581 0.87964 0.07767 0.0
C1296 C 0.44035 0.87967 0.35152 0.0
C1297 C 0.44104 0.87548 0.31645 0.0
C1298 C 0.42464 0.86948 0.22815 0.0
C1299 C 0.44066 0.87312 0.13609 0.0
C1300 C 0.43893 0.87245 0.17583 0.0
C1301 C 0.43544 0.87923 0.28767 0.0
C1302 C 0.43639 0.87534 0.25029 0.0
H1303 H 0.46252 0.87315 0.07227 0.0
H1304 H 0.457 0.86797 0.13572 0.0
H1305 H 0.41664 0.86362 0.17493 0.0
H1306 H 0.42418 0.89809 0.33322 0.0
H1307 H 0.42517 0.89058 0.27253 0.0
C1308 C 0.11709 0.57982 0.10508 0.0
C1309 C 0.11488 0.5689 0.08216 0.0
C1310 C 0.1198 0.57941 0.14152 0.0
C1311 C 0.1284 0.56049 0.20997 0.0
H1312 H 0.10604 0.56932 0.27231 0.0
C1313 C 0.10914 0.53569 0.34799 0.0
C1314 C 0.1082 0.54353 0.37622 0.0
C1315 C 0.1133 0.54139 0.31385 0.0
C1316 C 0.11259 0.56709 0.25544 0.0
H1317 H 0.11449 0.54932 0.07896 0.0
H1318 H 0.11896 0.54842 0.14272 0.0
H1319 H 0.10742 0.57457 0.20855 0.0
H1320 H 0.1113 0.56365 0.39121 0.0
H1321 H 0.11848 0.57367 0.33096 0.0
H1322 H 0.13303 0.55243 0.25685 0.0
C1323 C 0.1188 0.55743 0.13254 0.0
C1324 C 0.11339 0.5701 0.21881 0.0
C1325 C 0.11617 0.5579 0.09599 0.0
C1326 C 0.11192 0.55737 0.3699 0.0
C1327 C 0.11597 0.56308 0.33546 0.0
C1328 C 0.12755 0.55744 0.24661 0.0
C1329 C 0.12027 0.56801 0.15593 0.0
C1330 C 0.12102 0.56651 0.19545 0.0
C1331 C 0.11654 0.55507 0.30699 0.0
C1332 C 0.11933 0.56036 0.26956 0.0
H1333 H 0.11628 0.58851 0.09508 0.0
H1334 H 0.12116 0.58786 0.1586 0.0
H1335 H 0.13458 0.55784 0.19289 0.0
H1336 H 0.10639 0.52499 0.35206 0.0
H1337 H 0.11343 0.53488 0.29246 0.0
C1338 C 0.42791 0.54971 0.09288 0.0
C1339 C 0.426 0.53676 0.08252 0.0
C1340 C 0.42798 0.55287 0.12937 0.0
C1341 C 0.4181 0.53581 0.21932 0.0
H1342 H 0.44591 0.57167 0.25545 0.0
C1343 C 0.44248 0.54539 0.35917 0.0
C1344 C 0.44362 0.55653 0.37933 0.0
C1345 C 0.43747 0.54323 0.32407 0.0
C1346 C 0.43792 0.5617 0.24563 0.0
H1347 H 0.42295 0.5171 0.10208 0.0
H1348 H 0.4235 0.52271 0.16499 0.0
H1349 H 0.44295 0.56776 0.19064 0.0
H1350 H 0.44025 0.57405 0.37911 0.0
H1351 H 0.43186 0.5705 0.31683 0.0
H1352 H 0.41377 0.52952 0.27439 0.0
C1353 C 0.42449 0.53031 0.14535 0.0
C1354 C 0.4362 0.55945 0.20854 0.0
C1355 C 0.42431 0.52713 0.10915 0.0
C1356 C 0.43933 0.5653 0.36415 0.0
C1357 C 0.43462 0.56333 0.3286 0.0
C1358 C 0.41997 0.538 0.25627 0.0
C1359 C 0.42619 0.54315 0.15603 0.0
C1360 C 0.42657 0.54633 0.19497 0.0
C1361 C 0.4338 0.55236 0.30822 0.0
C1362 C 0.43015 0.55084 0.2697 0.0
H1363 H 0.42919 0.5573 0.07285 0.0
H1364 H 0.42927 0.56285 0.13667 0.0
H1365 H 0.4103 0.5257 0.20985 0.0
H1366 H 0.44576 0.53851 0.37028 0.0
H1367 H 0.43704 0.53476 0.30875 0.0
C1368 C 0.09301 0.54199 0.86299 0.0
C1369 C 0.1043 0.55213 0.8825 0.0
C1370 C 0.09457 0.53943 0.82712 0.0
C1371 C 0.11405 0.55685 0.74763 0.0
H1372 H 0.09717 0.51975 0.70827 0.0
C1373 C 0.11157 0.54586 0.59398 0.0
C1374 C 0.0991 0.53461 0.58168 0.0
C1375 C 0.1141 0.54824 0.63092 0.0
C1376 C 0.10185 0.53019 0.71876 0.0
H1377 H 0.12615 0.56734 0.88022 0.0
H1378 H 0.12883 0.56303 0.81686 0.0
H1379 H 0.09841 0.52299 0.77316 0.0
H1380 H 0.07935 0.51734 0.59821 0.0
H1381 H 0.08354 0.52168 0.66204 0.0
H1382 H 0.1169 0.56404 0.69325 0.0
C1383 C 0.11882 0.557 0.82959 0.0
C1384 C 0.10264 0.53203 0.75593 0.0
C1385 C 0.11731 0.55939 0.86581 0.0
C1386 C 0.08912 0.52602 0.60684 0.0
C1387 C 0.09159 0.52844 0.64353 0.0
C1388 C 0.11314 0.55501 0.71033 0.0
C1389 C 0.10741 0.54712 0.80982 0.0
C1390 C 0.10845 0.54535 0.77072 0.0
C1391 C 0.10418 0.53944 0.65613 0.0
C1392 C 0.10669 0.54162 0.69548 0.0
H1393 H 0.08286 0.53628 0.8752 0.0
H1394 H 0.08558 0.53184 0.81245 0.0
H1395 H 0.11849 0.56724 0.75838 0.0
H1396 H 0.11947 0.55261 0.57514 0.0
H1397 H 0.12392 0.55678 0.6397 0.0
C1398 C 0.42969 0.53312 0.84466 0.0
C1399 C 0.43125 0.54179 0.87375 0.0
C1400 C 0.43118 0.53792 0.80954 0.0
C1401 C 0.44673 0.56947 0.75463 0.0
H1402 H 0.42343 0.54343 0.68159 0.0
C1403 C 0.46337 0.57416 0.60721 0.0
C1404 C 0.45334 0.56877 0.57996 0.0
C1405 C 0.45945 0.573 0.64319 0.0
C1406 C 0.42988 0.55099 0.70151 0.0
H1407 H 0.4357 0.56237 0.88891 0.0
H1408 H 0.43826 0.57084 0.82693 0.0
H1409 H 0.41848 0.53735 0.7445 0.0
H1410 H 0.43138 0.55865 0.56876 0.0
H1411 H 0.42449 0.55692 0.63168 0.0
H1412 H 0.45809 0.58315 0.7115 0.0
C1413 C 0.43594 0.56031 0.83153 0.0
C1414 C 0.42715 0.5474 0.73768 0.0
C1415 C 0.43447 0.55547 0.86695 0.0
C1416 C 0.43932 0.56277 0.58927 0.0
C1417 C 0.43539 0.56173 0.62533 0.0
C1418 C 0.4494 0.57313 0.71835 0.0
C1419 C 0.43419 0.55152 0.80243 0.0
C1420 C 0.43584 0.55637 0.76461 0.0
C1421 C 0.4454 0.56654 0.65281 0.0
C1422 C 0.44128 0.56373 0.6913 0.0
H1423 H 0.4273 0.52255 0.84895 0.0
H1424 H 0.43013 0.53097 0.78789 0.0
H1425 H 0.45361 0.57663 0.77469 0.0
H1426 H 0.47427 0.57884 0.60087 0.0
H1427 H 0.46746 0.57663 0.66348 0.0
C1428 C 0.45061 0.89937 0.83471 0.0
C1429 C 0.4443 0.889 0.8609 0.0
C1430 C 0.44723 0.89635 0.79859 0.0
C1431 C 0.42115 0.87229 0.73569 0.0
H1432 H 0.45224 0.88811 0.66974 0.0
C1433 C 0.41692 0.88374 0.5876 0.0
C1434 C 0.42583 0.883 0.56219 0.0
C1435 C 0.41772 0.88089 0.6237 0.0
C1436 C 0.44343 0.88338 0.68771 0.0
H1437 H 0.42906 0.86744 0.87003 0.0
H1438 H 0.42301 0.86215 0.80638 0.0
H1439 H 0.45642 0.89043 0.73412 0.0
H1440 H 0.44197 0.87788 0.55415 0.0
H1441 H 0.44339 0.87287 0.61754 0.0
H1442 H 0.40816 0.86548 0.68906 0.0
C1443 C 0.43062 0.87261 0.81403 0.0
C1444 C 0.44583 0.88488 0.72461 0.0
C1445 C 0.43406 0.87564 0.85038 0.0
C1446 C 0.43504 0.8786 0.57323 0.0
C1447 C 0.43587 0.8758 0.60949 0.0
C1448 C 0.41874 0.87083 0.69864 0.0
C1449 C 0.43745 0.88288 0.78774 0.0
C1450 C 0.43473 0.87971 0.74895 0.0
C1451 C 0.42747 0.87727 0.63524 0.0
C1452 C 0.42986 0.87668 0.67425 0.0
H1453 H 0.45848 0.90979 0.84198 0.0
H1454 H 0.45242 0.90455 0.77901 0.0
H1455 H 0.41241 0.86818 0.75385 0.0
H1456 H 0.40966 0.88702 0.57985 0.0
H1457 H 0.4112 0.88228 0.64281 0.0
C1458 C 0.19179 0.43459 0.22586 0.0
C1459 C 0.20297 0.44175 0.24944 0.0
C1460 C 0.19335 0.43744 0.18916 0.0
C1461 C 0.22014 0.45338 0.11813 0.0
H1462 H 0.18844 0.44723 0.06127 0.0
C1463 C 0.22215 0.45817 0.9634 0.0
C1464 C 0.21308 0.44531 0.94765 0.0
C1465 C 0.22074 0.46054 -0.00033 0.0
C1466 C 0.1974 0.44911 0.0769 0.0
H1467 H 0.22449 0.45774 0.2533 0.0
H1468 H 0.22715 0.46313 0.18911 0.0
H1469 H 0.18687 0.44655 0.12665 0.0
H1470 H 0.1949 0.42525 0.9564 0.0
H1471 H 0.19209 0.4296 0.01933 0.0
H1472 H 0.23063 0.45602 0.068 0.0
C1473 C 0.21724 0.45503 0.19883 0.0
C1474 C 0.19649 0.44858 0.11435 0.0
C1475 C 0.21573 0.452 0.23564 0.0
C1476 C 0.20199 0.43526 0.96792 0.0
C1477 C 0.20038 0.43775 0.00385 0.0
C1478 C 0.22112 0.45419 0.08068 0.0
C1479 C 0.20607 0.44772 0.17503 0.0
C1480 C 0.2077 0.45024 0.13549 0.0
C1481 C 0.21002 0.45022 0.02035 0.0
C1482 C 0.20964 0.45167 0.05975 0.0
H1483 H 0.18185 0.42656 0.23567 0.0
H1484 H 0.18459 0.4313 0.17182 0.0
H1485 H 0.22895 0.45456 0.13326 0.0
H1486 H 0.23088 0.46603 0.94843 0.0
H1487 H 0.22829 0.47022 0.01188 0.0
C1488 C 0.54709 0.77098 0.96289 0.0
C1489 C 0.54933 0.78429 0.95551 0.0
C1490 C 0.54402 0.76571 0.99794 0.0
C1491 C 0.53301 0.77115 0.08783 0.0
H1492 H 0.55714 0.75822 0.1237 0.0
C1493 C 0.54699 0.77317 0.23767 0.0
C1494 C 0.54956 0.76294 0.25127 0.0
C1495 C 0.54407 0.77333 0.20119 0.0
C1496 C 0.55009 0.76152 0.11412 0.0
H1497 H 0.54936 0.8022 0.97833 0.0
H1498 H 0.544 0.79304 0.03903 0.0
H1499 H 0.55663 0.7623 0.05975 0.0
H1500 H 0.55034 0.74442 0.23794 0.0
H1501 H 0.54498 0.74452 0.17463 0.0
H1502 H 0.52673 0.77071 0.14238 0.0
C1503 C 0.54456 0.78663 0.01802 0.0
C1504 C 0.5498 0.76385 0.07737 0.0
C1505 C 0.54775 0.79192 0.98326 0.0
C1506 C 0.54856 0.75253 0.22812 0.0
C1507 C 0.54554 0.75262 0.19179 0.0
C1508 C 0.53325 0.76877 0.12461 0.0
C1509 C 0.54297 0.7736 0.02597 0.0
C1510 C 0.54152 0.76902 0.06393 0.0
C1511 C 0.54359 0.7632 0.17767 0.0
C1512 C 0.54205 0.76424 0.1383 0.0
H1513 H 0.54823 0.76488 0.94197 0.0
H1514 H 0.54275 0.75559 0.00327 0.0
H1515 H 0.52639 0.77498 0.07816 0.0
H1516 H 0.54771 0.78132 0.25492 0.0
H1517 H 0.54277 0.78172 0.19119 0.0
C1518 C 0.22667 0.79817 0.23108 0.0
C1519 C 0.22767 0.78973 0.25746 0.0
C1520 C 0.22751 0.79568 0.19482 0.0
C1521 C 0.22322 0.76913 0.12995 0.0
H1522 H 0.24254 0.80121 0.06798 0.0
C1523 C 0.22261 0.76538 0.9742 0.0
C1524 C 0.21726 0.77323 0.95888 0.0
C1525 C 0.22687 0.76742 0.01018 0.0
C1526 C 0.23722 0.79215 0.08498 0.0
H1527 H 0.23004 0.77184 0.26658 0.0
H1528 H 0.23151 0.76742 0.20259 0.0
H1529 H 0.24398 0.80424 0.13298 0.0
H1530 H 0.2128 0.78978 0.96815 0.0
H1531 H 0.22057 0.7936 0.03036 0.0
H1532 H 0.2162 0.75712 0.08157 0.0
C1533 C 0.23006 0.77598 0.21021 0.0
C1534 C 0.23796 0.79387 0.12215 0.0
C1535 C 0.22921 0.77849 0.24676 0.0
C1536 C 0.2169 0.7836 0.97935 0.0
C1537 C 0.2214 0.78582 0.01489 0.0
C1538 C 0.22257 0.7674 0.09262 0.0
C1539 C 0.22943 0.7847 0.18389 0.0
C1540 C 0.23052 0.78245 0.14501 0.0
C1541 C 0.22612 0.77755 0.03091 0.0
C1542 C 0.22915 0.77897 0.06986 0.0
H1543 H 0.22538 0.80686 0.23843 0.0
H1544 H 0.2266 0.80237 0.17525 0.0
H1545 H 0.21736 0.76014 0.14683 0.0
H1546 H 0.22289 0.75725 0.95896 0.0
H1547 H 0.23048 0.76093 0.02199 0.0
C1548 C 0.17073 0.22514 0.27141 0.0
C1549 C 0.15671 0.2164 0.28003 0.0
C1550 C 0.17934 0.21959 0.26524 0.0
C1551 C 0.18224 0.18904 0.28626 0.0
H1552 H 0.20462 0.19784 0.20012 0.0
C1553 C 0.19998 0.15289 0.23084 0.0
C1554 C 0.21337 0.15854 0.21661 0.0
C1555 C 0.19486 0.16147 0.24109 0.0
C1556 C 0.19863 0.19547 0.22462 0.0
H1557 H 0.14067 0.19506 0.2885 0.0
H1558 H 0.15565 0.18544 0.27786 0.0
H1559 H 0.19233 0.21036 0.21327 0.0
H1560 H 0.23194 0.17759 0.20201 0.0
H1561 H 0.22292 0.19269 0.22005 0.0
H1562 H 0.18824 0.174 0.2974 0.0
C1563 C 0.16003 0.19655 0.27617 0.0
C1564 C 0.1916 0.20262 0.23209 0.0
C1565 C 0.15143 0.20206 0.282 0.0
C1566 C 0.22157 0.17297 0.2129 0.0
C1567 C 0.21641 0.18159 0.22308 0.0
C1568 C 0.18928 0.18196 0.2789 0.0
C1569 C 0.17408 0.20525 0.26805 0.0
C1570 C 0.18302 0.19916 0.26243 0.0
C1571 C 0.203 0.1759 0.23734 0.0
C1572 C 0.1972 0.1848 0.24747 0.0
H1573 H 0.17504 0.23624 0.2697 0.0
H1574 H 0.19015 0.22649 0.25898 0.0
H1575 H 0.17591 0.18638 0.31023 0.0
H1576 H 0.19341 0.1418 0.23393 0.0
H1577 H 0.18439 0.15676 0.25137 0.0
C1578 C 0.79294 0.94658 0.2686 0.0
C1579 C 0.77867 0.93818 0.27444 0.0
C1580 C 0.79857 0.96058 0.26072 0.0
C1581 C 0.79064 0.98663 0.22667 0.0
H1582 H 0.82453 0.01187 0.27664 0.0
C1583 C 0.81838 0.04667 0.21391 0.0
C1584 C 0.83283 0.05332 0.21031 0.0
C1585 C 0.81077 0.03251 0.22167 0.0
C1586 C 0.81512 0.00494 0.26229 0.0
H1587 H 0.75902 0.9377 0.27568 0.0
H1588 H 0.76895 0.96236 0.26187 0.0
H1589 H 0.81294 0.98726 0.29029 0.0
H1590 H 0.85063 0.05038 0.21096 0.0
H1591 H 0.83739 0.02577 0.22419 0.0
H1592 H 0.79298 0.00443 0.19838 0.0
C1593 C 0.77572 0.95803 0.26335 0.0
C1594 C 0.80849 0.99087 0.27011 0.0
C1595 C 0.77007 0.94397 0.27136 0.0
C1596 C 0.83951 0.04555 0.21382 0.0
C1597 C 0.83194 0.03147 0.22161 0.0
C1598 C 0.79731 0.00078 0.2188 0.0
C1599 C 0.79006 0.9665 0.25851 0.0
C1600 C 0.79634 0.98153 0.2519 0.0
C1601 C 0.81753 0.02484 0.2261 0.0
C1602 C 0.80976 0.01002 0.23607 0.0
H1603 H 0.79982 0.94239 0.27054 0.0
H1604 H 0.80963 0.9668 0.25643 0.0
H1605 H 0.7813 0.97963 0.21218 0.0
H1606 H 0.81298 0.05243 0.2113 0.0
H1607 H 0.79968 0.02765 0.22511 0.0
C1608 C 0.94303 0.77152 0.21963 0.0
C1609 C 0.93744 0.78023 0.2147 0.0
C1610 C 0.9573 0.77715 0.22355 0.0
C1611 C 0.99057 0.80887 0.20631 0.0
H1612 H 0.0041 0.79703 0.28695 0.0
C1613 C 0.04454 0.84289 0.2649 0.0
C1614 C 0.05225 0.83664 0.27491 0.0
C1615 C 0.03076 0.8348 0.25463 0.0
C1616 C 0.00049 0.80028 0.26397 0.0
H1617 H 0.94232 0.80157 0.20955 0.0
H1618 H 0.96714 0.81136 0.21647 0.0
H1619 H 0.97938 0.78477 0.27325 0.0
H1620 H 0.05165 0.81706 0.28227 0.0
H1621 H 0.02742 0.80286 0.26431 0.0
H1622 H 0.01158 0.82457 0.1975 0.0
C1623 C 0.96056 0.80021 0.21698 0.0
C1624 C 0.98636 0.79327 0.25612 0.0
C1625 C 0.94634 0.79461 0.21329 0.0
C1626 C 0.04591 0.82213 0.27473 0.0
C1627 C 0.03206 0.81402 0.26455 0.0
C1628 C 0.00466 0.81586 0.21413 0.0
C1629 C 0.96618 0.79155 0.22228 0.0
C1630 C 0.98124 0.79774 0.22777 0.0
C1631 C 0.02439 0.8203 0.2542 0.0
C1632 C 0.00971 0.81186 0.24358 0.0
H1633 H 0.93637 0.76038 0.22079 0.0
H1634 H 0.96139 0.77025 0.22746 0.0
H1635 H 0.98692 0.81236 0.18388 0.0
H1636 H 0.04916 0.85405 0.26485 0.0
H1637 H 0.02502 0.83992 0.24742 0.0
C1638 C 0.81821 0.76807 0.72514 0.0
C1639 C 0.83259 0.77643 0.72927 0.0
C1640 C 0.80936 0.77268 0.73733 0.0
C1641 C 0.80798 0.79744 0.80008 0.0
H1642 H 0.78079 0.79713 0.73475 0.0
C1643 C 0.78841 0.83575 0.81112 0.0
C1644 C 0.77458 0.83138 0.80269 0.0
C1645 C 0.79359 0.82678 0.80679 0.0
C1646 C 0.78812 0.79703 0.75362 0.0
H1647 H 0.84902 0.79608 0.74939 0.0
H1648 H 0.83363 0.8041 0.77051 0.0
H1649 H 0.79342 0.78536 0.71788 0.0
H1650 H 0.75517 0.81412 0.78419 0.0
H1651 H 0.76427 0.79837 0.77661 0.0
H1652 H 0.803 0.80942 0.83539 0.0
C1653 C 0.82916 0.79396 0.75821 0.0
C1654 C 0.79535 0.79031 0.74393 0.0
C1655 C 0.83798 0.78942 0.7458 0.0
C1656 C 0.7659 0.81775 0.79079 0.0
C1657 C 0.7711 0.80877 0.78633 0.0
C1658 C 0.80073 0.8041 0.80981 0.0
C1659 C 0.81478 0.78564 0.75418 0.0
C1660 C 0.80565 0.79084 0.76661 0.0
C1661 C 0.78505 0.81326 0.7939 0.0
C1662 C 0.79105 0.80434 0.78619 0.0
H1663 H 0.81381 0.75799 0.71253 0.0
H1664 H 0.7983 0.76608 0.73394 0.0
H1665 H 0.81569 0.79776 0.81833 0.0
H1666 H 0.79533 0.8462 0.82035 0.0
H1667 H 0.80443 0.83062 0.81232 0.0
C1668 C 0.20572 0.04474 0.6831 0.0
C1669 C 0.2197 0.05406 0.69041 0.0
C1670 C 0.2004 0.03054 0.68705 0.0
C1671 C 0.20665 0.00625 0.73832 0.0
H1672 H 0.17659 0.97909 0.6797 0.0
C1673 C 0.17724 0.94734 0.76938 0.0
C1674 C 0.16277 0.94122 0.76862 0.0
C1675 C 0.18563 0.9608 0.7565 0.0
C1676 C 0.18499 0.98657 0.69627 0.0
H1677 H 0.23928 0.05587 0.70572 0.0
H1678 H 0.22998 0.03096 0.71227 0.0
H1679 H 0.18915 0.00324 0.66063 0.0
H1680 H 0.14571 0.94432 0.75397 0.0
H1681 H 0.16032 0.96776 0.73156 0.0
H1682 H 0.20226 0.98956 0.77429 0.0
C1683 C 0.2231 0.03466 0.70402 0.0
C1684 C 0.19217 0.00038 0.68538 0.0
C1685 C 0.22843 0.0489 0.70008 0.0
C1686 C 0.15683 0.94878 0.75495 0.0
C1687 C 0.16519 0.96214 0.7418 0.0
C1688 C 0.19951 0.9924 0.74909 0.0
C1689 C 0.20896 0.02535 0.6983 0.0
C1690 C 0.20281 0.01044 0.70682 0.0
C1691 C 0.17965 0.96826 0.74228 0.0
C1692 C 0.18836 0.98252 0.72867 0.0
H1693 H 0.19875 0.04842 0.67559 0.0
H1694 H 0.18942 0.02368 0.68288 0.0
H1695 H 0.2147 0.01376 0.75565 0.0
H1696 H 0.18208 0.94171 0.77971 0.0
H1697 H 0.19676 0.9653 0.75712 0.0
C1698 C 0.94817 0.15422 0.73408 0.0
C1699 C 0.94059 0.16 0.71961 0.0
C1700 C 0.96144 0.16272 0.74755 0.0
C1701 C 0.99137 0.19744 0.74067 0.0
H1702 H 0.00214 0.18736 0.82967 0.0
C1703 C 0.04715 0.22814 0.79417 0.0
C1704 C 0.0528 0.21986 0.80409 0.0
C1705 C 0.03292 0.2222 0.78877 0.0
C1706 C -0.00071 0.1903 0.80477 0.0
H1707 H 0.94094 0.17919 0.7075 0.0
H1708 H 0.9643 0.19412 0.73083 0.0
H1709 H 0.97816 0.17424 0.80958 0.0
H1710 H 0.04802 0.19902 0.8176 0.0
H1711 H 0.02327 0.18863 0.80785 0.0
H1712 H 0.01258 0.21318 0.73517 0.0
C1713 C 0.95993 0.183 0.73173 0.0
C1714 C 0.98558 0.18279 0.79328 0.0
C1715 C 0.94659 0.17447 0.71843 0.0
C1716 C 0.04395 0.20565 0.80994 0.0
C1717 C 0.02975 0.19972 0.80459 0.0
C1718 C 0.0051 0.20492 0.7521 0.0
C1719 C 0.96742 0.17719 0.74668 0.0
C1720 C 0.98157 0.18609 0.7607 0.0
C1721 C 0.02411 0.20788 0.79331 0.0
C1722 C 0.00926 0.20121 0.78384 0.0
H1723 H 0.9438 0.1431 0.73536 0.0
H1724 H 0.96708 0.15798 0.75836 0.0
H1725 H 0.98856 0.20014 0.71533 0.0
H1726 H 0.05375 0.23915 0.78962 0.0
H1727 H 0.02883 0.22876 0.78048 0.0
C1728 C 0.82528 0.53653 0.6267 0.0
C1729 C 0.83067 0.55083 0.62261 0.0
C1730 C 0.83394 0.53092 0.62468 0.0
C1731 C 0.86606 0.53692 0.58419 0.0
H1732 H 0.86013 0.50634 0.6456 0.0
C1733 C 0.89281 0.5047 0.5588 0.0
C1734 C 0.88358 0.49035 0.5587 0.0
C1735 C 0.88863 0.51375 0.57208 0.0
C1736 C 0.86193 0.51489 0.62832 0.0
H1737 H 0.84934 0.57053 0.61374 0.0
H1738 H 0.86456 0.56063 0.60984 0.0
H1739 H 0.84863 0.51948 0.65946 0.0
H1740 H 0.8629 0.47418 0.57311 0.0
H1741 H 0.85561 0.48992 0.59602 0.0
H1742 H 0.87894 0.53197 0.55223 0.0
C1743 C 0.85362 0.55381 0.61463 0.0
C1744 C 0.85536 0.52241 0.63624 0.0
C1745 C 0.84493 0.55946 0.61692 0.0
C1746 C 0.87023 0.48519 0.57278 0.0
C1747 C 0.8661 0.49421 0.58622 0.0
C1748 C 0.87264 0.52939 0.57624 0.0
C1749 C 0.84817 0.53948 0.61836 0.0
C1750 C 0.85699 0.53318 0.61357 0.0
C1751 C 0.87521 0.50858 0.58576 0.0
C1752 C 0.87025 0.51801 0.59756 0.0
H1753 H 0.81433 0.52963 0.63116 0.0
H1754 H 0.82941 0.51981 0.62705 0.0
H1755 H 0.86744 0.54513 0.56613 0.0
H1756 H 0.90319 0.50893 0.54817 0.0
H1757 H 0.89587 0.52479 0.57154 0.0
C1758 C 0.4348 0.27767 0.60356 0.0
C1759 C 0.44375 0.27255 0.61116 0.0
C1760 C 0.44016 0.29174 0.59612 0.0
C1761 C 0.47096 0.32536 0.61303 0.0
H1762 H 0.46028 0.33843 0.52914 0.0
C1763 C 0.50551 0.37931 0.55641 0.0
C1764 C 0.49946 0.38711 0.5454 0.0
C1765 C 0.49727 0.36544 0.56565 0.0
C1766 C 0.46319 0.33493 0.55299 0.0
H1767 H 0.46525 0.27799 0.61612 0.0
H1768 H 0.47453 0.30241 0.60326 0.0
H1769 H 0.4482 0.31362 0.54306 0.0
H1770 H 0.48006 0.3865 0.53487 0.0
H1771 H 0.46555 0.36203 0.55109 0.0
H1772 H 0.48607 0.3465 0.62276 0.0
C1773 C 0.46341 0.29564 0.6034 0.0
C1774 C 0.4563 0.32077 0.5609 0.0
C1775 C 0.45809 0.28164 0.61054 0.0
C1776 C 0.48498 0.38071 0.54331 0.0
C1777 C 0.47669 0.36674 0.55247 0.0
C1778 C 0.47779 0.33944 0.60521 0.0
C1779 C 0.45451 0.30086 0.59658 0.0
C1780 C 0.46042 0.31586 0.59042 0.0
C1781 C 0.48279 0.35903 0.56409 0.0
C1782 C 0.47426 0.34433 0.57456 0.0
H1783 H 0.42369 0.27086 0.60381 0.0
H1784 H 0.4331 0.29555 0.5909 0.0
H1785 H 0.47413 0.32186 0.6364 0.0
H1786 H 0.51664 0.38395 0.55814 0.0
H1787 H 0.50226 0.35969 0.57384 0.0
C1788 C 0.61514 0.12867 0.56554 0.0
C1789 C 0.60769 0.11454 0.55698 0.0
C1790 C 0.62919 0.13506 0.57347 0.0
C1791 C 0.65642 0.12793 0.6033 0.0
H1792 H 0.68061 0.16509 0.5676 0.0
C1793 C 0.71633 0.15774 0.61728 0.0
C1794 C 0.72236 0.17176 0.62685 0.0
C1795 C 0.70219 0.14998 0.6098 0.0
C1796 C 0.67395 0.15476 0.57799 0.0
H1797 H 0.60903 0.09596 0.54985 0.0
H1798 H 0.63377 0.10722 0.56324 0.0
H1799 H 0.65629 0.15294 0.55075 0.0
H1800 H 0.71831 0.18852 0.63762 0.0
H1801 H 0.69366 0.17497 0.62466 0.0
H1802 H 0.67423 0.12983 0.6304 0.0
C1803 C 0.62867 0.1133 0.56425 0.0
C1804 C 0.66004 0.1478 0.56836 0.0
C1805 C 0.61455 0.10688 0.55639 0.0
C1806 C 0.71395 0.17775 0.6301 0.0
C1807 C 0.69987 0.17003 0.62249 0.0
C1808 C 0.6704 0.13489 0.6128 0.0
C1809 C 0.63612 0.12746 0.57283 0.0
C1810 C 0.65107 0.1344 0.58133 0.0
C1811 C 0.69391 0.15616 0.61159 0.0
C1812 C 0.67923 0.14845 0.60064 0.0
H1813 H 0.61009 0.13481 0.56645 0.0
H1814 H 0.63458 0.14593 0.58062 0.0
H1815 H 0.64973 0.11765 0.61395 0.0
H1816 H 0.72259 0.15287 0.61462 0.0
H1817 H 0.69783 0.1393 0.60136 0.0
C1818 C 0.43313 0.15403 0.1211 0.0
C1819 C 0.44111 0.16794 0.13166 0.0
C1820 C 0.43951 0.14629 0.11315 0.0
C1821 C 0.47258 0.15142 0.08108 0.0
H1822 H 0.46002 0.11412 0.11498 0.0
C1823 C 0.50601 0.12621 0.06683 0.0
C1824 C 0.49957 0.11213 0.05781 0.0
C1825 C 0.49812 0.13234 0.07506 0.0
C1826 C 0.46351 0.12446 0.10487 0.0
H1827 H 0.46188 0.18449 0.14388 0.0
H1828 H 0.47296 0.171 0.13006 0.0
H1829 H 0.44743 0.12595 0.13243 0.0
H1830 H 0.47983 0.09337 0.05016 0.0
H1831 H 0.46596 0.10418 0.06403 0.0
H1832 H 0.48856 0.15002 0.05336 0.0
C1833 C 0.46183 0.16612 0.12749 0.0
C1834 C 0.45634 0.13121 0.11496 0.0
C1835 C 0.45547 0.17381 0.13558 0.0
C1836 C 0.48506 0.10427 0.05704 0.0
C1837 C 0.47713 0.11042 0.06518 0.0
C1838 C 0.47967 0.14467 0.07084 0.0
C1839 C 0.45395 0.15241 0.11543 0.0
C1840 C 0.46098 0.14485 0.10363 0.0
C1841 C 0.4836 0.12453 0.07424 0.0
C1842 C 0.47537 0.13121 0.08311 0.0
H1843 H 0.42203 0.14926 0.1179 0.0
H1844 H 0.43322 0.13573 0.10386 0.0
H1845 H 0.47617 0.16182 0.07131 0.0
H1846 H 0.51718 0.13251 0.06791 0.0
H1847 H 0.50342 0.14317 0.0826 0.0
C1848 C 0.89047 0.38094 0.03813 0.0
C1849 C 0.88322 0.3872 0.02431 0.0
C1850 C 0.88369 0.36663 0.04374 0.0
C1851 C 0.84891 0.33817 0.06251 0.0
H1852 H 0.86378 0.3141 0.04147 0.0
C1853 C 0.81561 0.27974 0.07924 0.0
C1854 C 0.82163 0.2728 0.09616 0.0
C1855 C 0.82379 0.29338 0.06787 0.0
C1856 C 0.85958 0.32074 0.04778 0.0
H1857 H 0.86346 0.38337 0.0035 0.0
H1858 H 0.8517 0.35847 0.01299 0.0
H1859 H 0.87711 0.33869 0.02548 0.0
H1860 H 0.84094 0.27446 0.11345 0.0
H1861 H 0.85531 0.29854 0.09409 0.0
H1862 H 0.83153 0.32046 0.08522 0.0
C1863 C 0.86253 0.36461 0.02012 0.0
C1864 C 0.86718 0.33478 0.03859 0.0
C1865 C 0.86929 0.37886 0.01455 0.0
C1866 C 0.83605 0.27961 0.10052 0.0
C1867 C 0.84426 0.29335 0.08929 0.0
C1868 C 0.84138 0.32423 0.07176 0.0
C1869 C 0.86955 0.3584 0.03565 0.0
C1870 C 0.86182 0.34357 0.04555 0.0
C1871 C 0.83816 0.30044 0.07344 0.0
C1872 C 0.84653 0.31532 0.06417 0.0
H1873 H 0.90124 0.38715 0.04583 0.0
H1874 H 0.88933 0.3621 0.05585 0.0
H1875 H 0.84467 0.34477 0.06903 0.0
H1876 H 0.80454 0.27469 0.0751 0.0
H1877 H 0.81882 0.29846 0.055 0.0
C1878 C 0.71699 0.55842 0.10843 0.0
C1879 C 0.72289 0.54986 0.10772 0.0
C1880 C 0.70334 0.55332 0.09722 0.0
C1881 C 0.67634 0.52593 0.04151 0.0
H1882 H 0.65061 0.53106 0.10038 0.0
C1883 C 0.61781 0.49045 0.03191 0.0
C1884 C 0.60921 0.49622 0.03513 0.0
C1885 C 0.63203 0.49861 0.03702 0.0
C1886 C 0.65773 0.52976 0.0833 0.0
H1887 H 0.71916 0.52928 0.09519 0.0
H1888 H 0.69537 0.52039 0.07588 0.0
H1889 H 0.67502 0.54246 0.11718 0.0
H1890 H 0.60871 0.51509 0.04553 0.0
H1891 H 0.63369 0.52944 0.05449 0.0
H1892 H 0.65906 0.513 0.00807 0.0
C1893 C 0.70132 0.53106 0.08464 0.0
C1894 C 0.67168 0.53626 0.09295 0.0
C1895 C 0.71489 0.53612 0.09598 0.0
C1896 C 0.61512 0.51038 0.04294 0.0
C1897 C 0.62938 0.51857 0.04821 0.0
C1898 C 0.66244 0.51946 0.03185 0.0
C1899 C 0.69544 0.53963 0.08488 0.0
C1900 C 0.68103 0.5341 0.07263 0.0
C1901 C 0.63795 0.51272 0.04551 0.0
C1902 C 0.65293 0.52103 0.05315 0.0
H1903 H 0.72296 0.56907 0.11731 0.0
H1904 H 0.69905 0.56014 0.09759 0.0
H1905 H 0.68341 0.52433 0.02495 0.0
H1906 H 0.61354 0.47955 0.02595 0.0
H1907 H 0.63834 0.49377 0.03531 0.0
C1908 C 0.50445 0.89341 0.93257 0.0
C1909 C 0.49011 0.88473 0.92846 0.0
C1910 C 0.51359 0.88925 0.9199 0.0
C1911 C 0.51587 0.86493 0.85709 0.0
H1912 H 0.54316 0.86597 0.92335 0.0
C1913 C 0.53632 0.82727 0.84871 0.0
C1914 C 0.55015 0.83184 0.85769 0.0
C1915 C 0.53097 0.83612 0.85217 0.0
C1916 C 0.53582 0.86587 0.9042 0.0
H1917 H 0.47407 0.86503 0.90759 0.0
H1918 H 0.48998 0.85777 0.88564 0.0
H1919 H 0.53008 0.87733 0.93943 0.0
H1920 H 0.56938 0.84935 0.87618 0.0
H1921 H 0.55997 0.86489 0.88227 0.0
H1922 H 0.52127 0.8531 0.82235 0.0
C1923 C 0.49418 0.86783 0.89831 0.0
C1924 C 0.52832 0.87236 0.91344 0.0
C1925 C 0.48507 0.87192 0.91118 0.0
C1926 C 0.55866 0.84556 0.86919 0.0
C1927 C 0.55327 0.85442 0.87278 0.0
C1928 C 0.52338 0.85848 0.84782 0.0
C1929 C 0.50852 0.87642 0.9026 0.0
C1930 C 0.51797 0.87155 0.89046 0.0
C1931 C 0.53932 0.84972 0.86473 0.0
C1932 C 0.5331 0.8585 0.87179 0.0
H1933 H 0.50859 0.90337 0.94573 0.0
H1934 H 0.52461 0.89607 0.92348 0.0
H1935 H 0.50812 0.86438 0.8386 0.0
H1936 H 0.52953 0.81675 0.83974 0.0
H1937 H 0.52012 0.83213 0.84628 0.0
C1938 C 0.1242 0.61387 0.93015 0.0
C1939 C 0.11094 0.60611 0.94509 0.0
C1940 C 0.12903 0.62742 0.91883 0.0
C1941 C 0.12514 0.65749 0.93496 0.0
H1942 H 0.14779 0.67106 0.84921 0.0
C1943 C 0.15484 0.71548 0.89143 0.0
C1944 C 0.16883 0.72033 0.88344 0.0
C1945 C 0.14569 0.70131 0.89624 0.0
C1946 C 0.14145 0.6674 0.87316 0.0
H1947 H 0.09224 0.60633 0.9596 0.0
H1948 H 0.10079 0.63022 0.93986 0.0
H1949 H 0.13512 0.64629 0.86164 0.0
H1950 H 0.18425 0.71424 0.87442 0.0
H1951 H 0.16835 0.68963 0.88267 0.0
H1952 H 0.13187 0.67874 0.9469 0.0
C1953 C 0.10741 0.62576 0.93702 0.0
C1954 C 0.13422 0.65325 0.88029 0.0
C1955 C 0.10252 0.61211 0.94818 0.0
C1956 C 0.17353 0.71082 0.88052 0.0
C1957 C 0.1644 0.69672 0.88494 0.0
C1958 C 0.13237 0.67169 0.92774 0.0
C1959 C 0.12073 0.63354 0.92227 0.0
C1960 C 0.12639 0.6482 0.91187 0.0
C1961 C 0.1504 0.69181 0.89262 0.0
C1962 C 0.14096 0.67679 0.89741 0.0
H1963 H 0.13092 0.60952 0.92744 0.0
H1964 H 0.13943 0.63323 0.90816 0.0
H1965 H 0.11923 0.65388 0.95958 0.0
H1966 H 0.15097 0.72262 0.89383 0.0
H1967 H 0.13493 0.69776 0.90221 0.0
C1968 C 0.27238 0.44084 0.89736 0.0
C1969 C 0.2667 0.44952 0.89361 0.0
C1970 C 0.28621 0.44635 0.90754 0.0
C1971 C 0.31906 0.47942 0.90656 0.0
H1972 H 0.33162 0.46181 0.9748 0.0
C1973 C 0.37347 0.50828 0.96508 0.0
C1974 C 0.38107 0.50136 0.96523 0.0
C1975 C 0.35935 0.5011 0.95786 0.0
C1976 C 0.32824 0.46675 0.95545 0.0
H1977 H 0.27077 0.47059 0.89902 0.0
H1978 H 0.29473 0.48013 0.91725 0.0
H1979 H 0.30701 0.4507 0.95942 0.0
H1980 H 0.37979 0.48142 0.95921 0.0
H1981 H 0.35492 0.46879 0.94644 0.0
H1982 H 0.34015 0.49549 0.90271 0.0
C1983 C 0.28866 0.46915 0.91155 0.0
C1984 C 0.31419 0.4604 0.94664 0.0
C1985 C 0.27492 0.46367 0.90129 0.0
C1986 C 0.37417 0.48701 0.95918 0.0
C1987 C 0.35997 0.47978 0.95203 0.0
C1988 C 0.33302 0.48575 0.91543 0.0
C1989 C 0.29455 0.46061 0.91413 0.0
C1990 C 0.30945 0.4668 0.92249 0.0
C1991 C 0.3525 0.48683 0.95065 0.0
C1992 C 0.33773 0.47959 0.94032 0.0
H1993 H 0.26624 0.42987 0.89163 0.0
H1994 H 0.29049 0.43953 0.90919 0.0
H1995 H 0.31578 0.48443 0.88716 0.0
H1996 H 0.37849 0.51932 0.96992 0.0
H1997 H 0.35379 0.50674 0.9576 0.0
C1998 C 0.10168 0.48419 0.4607 0.0
C1999 C 0.10947 0.49821 0.47052 0.0
C2000 C 0.10828 0.47658 0.45358 0.0
C2001 C 0.14145 0.48229 0.4213 0.0
H2002 H 0.13033 0.44553 0.45715 0.0
C2003 C 0.17653 0.45931 0.40441 0.0
C2004 C 0.17055 0.44537 0.39433 0.0
C2005 C 0.16825 0.46474 0.41496 0.0
C2006 C 0.13343 0.45572 0.44658 0.0
H2007 H 0.1301 0.51507 0.48241 0.0
H2008 H 0.14155 0.50183 0.46995 0.0
H2009 H 0.11712 0.4568 0.47427 0.0
H2010 H 0.15126 0.42602 0.38824 0.0
H2011 H 0.13664 0.43564 0.40616 0.0
H2012 H 0.1576 0.4813 0.39332 0.0
C2013 C 0.13041 0.49676 0.46736 0.0
C2014 C 0.1259 0.46216 0.45645 0.0
C2015 C 0.12384 0.50431 0.47464 0.0
C2016 C 0.15611 0.43683 0.39583 0.0
C2017 C 0.14777 0.44231 0.40622 0.0
C2018 C 0.14887 0.47586 0.41128 0.0
C2019 C 0.12274 0.48294 0.45594 0.0
C2020 C 0.13004 0.47561 0.44439 0.0
C2021 C 0.15377 0.45639 0.41535 0.0
C2022 C 0.14513 0.46262 0.42435 0.0
H2023 H 0.09057 0.47923 0.45741 0.0
H2024 H 0.10215 0.46593 0.44476 0.0
H2025 H 0.14465 0.49253 0.41092 0.0
H2026 H 0.18764 0.4661 0.40397 0.0
H2027 H 0.17322 0.47554 0.4227 0.0
C2028 C 0.50732 0.61463 0.44362 0.0
C2029 C 0.4929 0.60894 0.44472 0.0
C2030 C 0.51589 0.62838 0.4329 0.0
C2031 C 0.51506 0.65626 0.38214 0.0
H2032 H 0.54578 0.68152 0.44225 0.0
C2033 C 0.53496 0.71414 0.38189 0.0
C2034 C 0.54929 0.72329 0.38105 0.0
C2035 C 0.52974 0.70003 0.38714 0.0
C2036 C 0.53739 0.67454 0.42488 0.0
H2037 H 0.47612 0.61308 0.43544 0.0
H2038 H 0.49099 0.63693 0.41686 0.0
H2039 H 0.5336 0.65666 0.45539 0.0
H2040 H 0.56943 0.72496 0.3858 0.0
H2041 H 0.5602 0.7001 0.3954 0.0
H2042 H 0.51849 0.67408 0.35236 0.0
C2043 C 0.49571 0.6308 0.4239 0.0
C2044 C 0.53044 0.66034 0.43236 0.0
C2045 C 0.4872 0.61717 0.43482 0.0
C2046 C 0.55833 0.71811 0.3863 0.0
C2047 C 0.55307 0.70393 0.39183 0.0
C2048 C 0.52196 0.67039 0.37473 0.0
C2049 C 0.51012 0.63655 0.42275 0.0
C2050 C 0.51892 0.65116 0.41172 0.0
C2051 C 0.53872 0.69476 0.3918 0.0
C2052 C 0.53289 0.6797 0.39672 0.0
H2053 H 0.51196 0.60848 0.45115 0.0
H2054 H 0.52698 0.63259 0.4322 0.0
H2055 H 0.5064 0.64936 0.36535 0.0
H2056 H 0.52774 0.71784 0.37808 0.0
H2057 H 0.51862 0.69323 0.3877 0.0
C2058 C 0.37847 0.87055 0.42147 0.0
C2059 C 0.38647 0.88416 0.43413 0.0
C2060 C 0.36501 0.86572 0.40947 0.0
C2061 C 0.33539 0.87063 0.41894 0.0
H2062 H 0.32319 0.84888 0.33146 0.0
C2063 C 0.27842 0.84358 0.37291 0.0
C2064 C 0.273 0.82964 0.36327 0.0
C2065 C 0.29269 0.85227 0.37676 0.0
C2066 C 0.32644 0.85492 0.35596 0.0
H2067 H 0.38667 0.90338 0.44462 0.0
H2068 H 0.3629 0.8948 0.42404 0.0
H2069 H 0.34753 0.86024 0.34849 0.0
H2070 H 0.2782 0.81395 0.34894 0.0
H2071 H 0.30298 0.82898 0.35607 0.0
H2072 H 0.31421 0.86483 0.42725 0.0
C2073 C 0.36714 0.88794 0.42331 0.0
C2074 C 0.34035 0.86142 0.36566 0.0
C2075 C 0.3807 0.89282 0.43502 0.0
C2076 C 0.28209 0.82466 0.35639 0.0
C2077 C 0.29631 0.83331 0.36021 0.0
C2078 C 0.32143 0.86405 0.40934 0.0
C2079 C 0.35924 0.87438 0.41012 0.0
C2080 C 0.34488 0.86902 0.3977 0.0
C2081 C 0.30176 0.84716 0.37092 0.0
C2082 C 0.31676 0.85581 0.37825 0.0
H2083 H 0.38266 0.86364 0.42044 0.0
H2084 H 0.35905 0.85515 0.39998 0.0
H2085 H 0.33863 0.87639 0.44387 0.0
H2086 H 0.27163 0.8477 0.37827 0.0
H2087 H 0.29662 0.86293 0.38472 0.0
C2088 C 0.27333 0.13756 0.14843 0.0
C2089 C 0.26847 0.14681 0.15458 0.0
C2090 C 0.28725 0.14252 0.14047 0.0
C2091 C 0.32151 0.17329 0.15267 0.0
H2092 H 0.33311 0.15482 0.08446 0.0
C2093 C 0.37909 0.19294 0.12415 0.0
C2094 C 0.38298 0.18276 0.12377 0.0
C2095 C 0.36513 0.18916 0.1235 0.0
C2096 C 0.33002 0.16004 0.10371 0.0
H2097 H 0.27425 0.16848 0.15625 0.0
H2098 H 0.29856 0.17715 0.14202 0.0
H2099 H 0.30855 0.14708 0.09127 0.0
H2100 H 0.37537 0.16069 0.1214 0.0
H2101 H 0.35101 0.15408 0.12062 0.0
H2102 H 0.34292 0.18607 0.16561 0.0
C2103 C 0.29165 0.16607 0.14384 0.0
C2104 C 0.31597 0.15561 0.10762 0.0
C2105 C 0.27772 0.16111 0.15181 0.0
C2106 C 0.37268 0.16876 0.12172 0.0
C2107 C 0.35872 0.16498 0.12104 0.0
C2108 C 0.33555 0.17771 0.14875 0.0
C2109 C 0.2966 0.15683 0.13848 0.0
C2110 C 0.31155 0.16208 0.13245 0.0
C2111 C 0.35479 0.17513 0.12241 0.0
C2112 C 0.33995 0.17104 0.12454 0.0
H2113 H 0.26643 0.12648 0.15043 0.0
H2114 H 0.29077 0.13514 0.13693 0.0
H2115 H 0.31844 0.17836 0.17243 0.0
H2116 H 0.38683 0.20383 0.12555 0.0
H2117 H 0.36242 0.19723 0.1241 0.0
C2118 C 0.7996 0.19134 0.16549 0.0
C2119 C 0.80921 0.2051 0.15658 0.0
C2120 C 0.80388 0.18163 0.1702 0.0
C2121 C 0.83235 0.1752 0.14697 0.0
H2122 H 0.81631 0.14737 0.22178 0.0
C2123 C 0.85346 0.13887 0.1819 0.0
C2124 C 0.84366 0.12484 0.18726 0.0
C2125 C 0.84926 0.1487 0.1787 0.0
C2126 C 0.82078 0.15501 0.20057 0.0
H2127 H 0.83087 0.2196 0.14624 0.0
H2128 H 0.83842 0.20273 0.1551 0.0
H2129 H 0.80912 0.16465 0.21587 0.0
H2130 H 0.82182 0.11008 0.19366 0.0
H2131 H 0.81446 0.12727 0.18805 0.0
H2132 H 0.84408 0.1656 0.13186 0.0
C2133 C 0.82752 0.19935 0.15779 0.0
C2134 C 0.81666 0.1649 0.19715 0.0
C2135 C 0.82322 0.20904 0.15295 0.0
C2136 C 0.82959 0.12083 0.18956 0.0
C2137 C 0.82539 0.13067 0.18654 0.0
C2138 C 0.83651 0.16536 0.15051 0.0
C2139 C 0.81789 0.18551 0.16622 0.0
C2140 C 0.82239 0.1751 0.17027 0.0
C2141 C 0.83519 0.1447 0.18096 0.0
C2142 C 0.83076 0.15515 0.17731 0.0
H2143 H 0.78871 0.18799 0.16833 0.0
H2144 H 0.79617 0.17102 0.1762 0.0
H2145 H 0.83679 0.18275 0.12557 0.0
H2146 H 0.86439 0.14228 0.1801 0.0
H2147 H 0.85706 0.15945 0.17482 0.0
C2148 C 0.80616 0.61228 0.14807 0.0
C2149 C 0.79188 0.60684 0.15271 0.0
C2150 C 0.81538 0.62633 0.15402 0.0
C2151 C 0.81699 0.66011 0.15812 0.0
H2152 H 0.85199 0.67193 0.20604 0.0
C2153 C 0.85345 0.71683 0.19977 0.0
C2154 C 0.86764 0.72225 0.19348 0.0
C2155 C 0.84418 0.7027 0.19547 0.0
C2156 C 0.84232 0.66879 0.1923 0.0
H2157 H 0.77604 0.61173 0.16763 0.0
H2158 H 0.79216 0.63624 0.17844 0.0
H2159 H 0.8358 0.64729 0.19772 0.0
H2160 H 0.88328 0.71717 0.17782 0.0
H2161 H 0.86706 0.69248 0.17005 0.0
H2162 H 0.82352 0.68161 0.15267 0.0
C2163 C 0.79622 0.6297 0.1697 0.0
C2164 C 0.83305 0.65468 0.18753 0.0
C2165 C 0.78699 0.61566 0.16372 0.0
C2166 C 0.8724 0.71327 0.18292 0.0
C2167 C 0.86312 0.69913 0.17868 0.0
C2168 C 0.82626 0.67421 0.16292 0.0
C2169 C 0.81051 0.63521 0.16476 0.0
C2170 C 0.82029 0.65019 0.17033 0.0
C2171 C 0.84891 0.6937 0.18485 0.0
C2172 C 0.83903 0.67871 0.18001 0.0
H2173 H 0.81021 0.60573 0.1395 0.0
H2174 H 0.82631 0.63028 0.14955 0.0
H2175 H 0.80735 0.65699 0.14424 0.0
H2176 H 0.8495 0.72351 0.20804 0.0
H2177 H 0.83331 0.69881 0.20086 0.0
C2178 C 0.19356 0.38518 0.33957 0.0
C2179 C 0.18447 0.38944 0.35249 0.0
C2180 C 0.18934 0.37111 0.3373 0.0
C2181 C 0.16321 0.33676 0.37209 0.0
H2182 H 0.17274 0.3231 0.28733 0.0
C2183 C 0.13784 0.27859 0.33878 0.0
C2184 C 0.14642 0.27381 0.32515 0.0
C2185 C 0.14291 0.29275 0.34339 0.0
C2186 C 0.17014 0.32678 0.31137 0.0
H2187 H 0.16385 0.38236 0.37324 0.0
H2188 H 0.15641 0.35782 0.36889 0.0
H2189 H 0.18083 0.34776 0.29297 0.0
H2190 H 0.16707 0.28006 0.306 0.0
H2191 H 0.17596 0.3048 0.31422 0.0
H2192 H 0.1524 0.31575 0.39029 0.0
C2193 C 0.16687 0.36533 0.36098 0.0
C2194 C 0.17478 0.34091 0.31462 0.0
C2195 C 0.1711 0.37939 0.36326 0.0
C2196 C 0.16021 0.28345 0.31649 0.0
C2197 C 0.16527 0.29761 0.32101 0.0
C2198 C 0.15855 0.32263 0.36881 0.0
C2199 C 0.17593 0.36102 0.34791 0.0
C2200 C 0.17132 0.34605 0.34493 0.0
C2201 C 0.15666 0.30242 0.33437 0.0
C2202 C 0.16191 0.31748 0.33834 0.0
H2203 H 0.20396 0.39271 0.33119 0.0
H2204 H 0.19662 0.36813 0.32753 0.0
H2205 H 0.16055 0.34043 0.39604 0.0
H2206 H 0.12715 0.2714 0.34563 0.0
H2207 H 0.13597 0.29614 0.35335 0.0
C2208 C 0.61013 0.80598 0.33043 0.0
C2209 C 0.60557 0.79242 0.34236 0.0
C2210 C 0.62426 0.8155 0.32748 0.0
C2211 C 0.65825 0.82253 0.36089 0.0
H2212 H 0.67238 0.84712 0.27874 0.0
C2213 C 0.71664 0.85651 0.33211 0.0
C2214 C 0.72136 0.87005 0.3199 0.0
C2215 C 0.70248 0.84714 0.33525 0.0
C2216 C 0.66857 0.84043 0.30206 0.0
H2217 H 0.61218 0.77815 0.36023 0.0
H2218 H 0.63685 0.79472 0.35477 0.0
H2219 H 0.64769 0.83048 0.28301 0.0
H2220 H 0.715 0.88449 0.30172 0.0
H2221 H 0.69027 0.86818 0.30753 0.0
H2222 H 0.67912 0.83247 0.37994 0.0
C2223 C 0.62952 0.79806 0.34813 0.0
C2224 C 0.65443 0.8309 0.30448 0.0
C2225 C 0.61539 0.78853 0.35103 0.0
C2226 C 0.71166 0.8741 0.31113 0.0
C2227 C 0.6975 0.86473 0.31424 0.0
C2228 C 0.67238 0.83207 0.35847 0.0
C2229 C 0.63411 0.81166 0.33646 0.0
C2230 C 0.64912 0.82182 0.33389 0.0
C2231 C 0.69275 0.85114 0.32622 0.0
C2232 C 0.67771 0.84111 0.329 0.0
H2233 H 0.60278 0.80928 0.32365 0.0
H2234 H 0.62746 0.82594 0.31878 0.0
H2235 H 0.65445 0.81583 0.38417 0.0
H2236 H 0.72388 0.85308 0.33897 0.0
H2237 H 0.69916 0.8367 0.34415 0.0
C2238 C 0.20305 0.82613 0.37208 0.0
C2239 C 0.1996 0.81218 0.37213 0.0
C2240 C 0.1927 0.82966 0.3705 0.0
C2241 C 0.15687 0.81586 0.34028 0.0
H2242 H 0.16002 0.84764 0.39122 0.0
C2243 C 0.11543 0.83231 0.33006 0.0
C2244 C 0.1205 0.84652 0.32498 0.0
C2245 C 0.12443 0.82748 0.33899 0.0
C2246 C 0.15905 0.83878 0.37668 0.0
H2247 H 0.18264 0.79096 0.37175 0.0
H2248 H 0.16453 0.79714 0.36938 0.0
H2249 H 0.17686 0.8402 0.40234 0.0
H2250 H 0.1389 0.86685 0.32545 0.0
H2251 H 0.15462 0.85843 0.34079 0.0
H2252 H 0.13916 0.81455 0.31428 0.0
C2253 C 0.17524 0.80534 0.37004 0.0
C2254 C 0.16868 0.83452 0.38305 0.0
C2255 C 0.1856 0.80181 0.3716 0.0
C2256 C 0.1347 0.85583 0.32922 0.0
C2257 C 0.14369 0.85102 0.33826 0.0
C2258 C 0.14721 0.82009 0.33397 0.0
C2259 C 0.17869 0.81931 0.36898 0.0
C2260 C 0.16782 0.82314 0.36453 0.0
C2261 C 0.13866 0.83679 0.34316 0.0
C2262 C 0.14833 0.83172 0.35172 0.0
H2263 H 0.21375 0.83434 0.37241 0.0
H2264 H 0.19573 0.84051 0.36926 0.0
H2265 H 0.15602 0.80717 0.32518 0.0
H2266 H 0.10451 0.82491 0.32707 0.0
H2267 H 0.12025 0.81647 0.34289 0.0
C2268 C 0.70893 0.83461 0.80337 0.0
C2269 C 0.7192 0.84865 0.80466 0.0
C2270 C 0.69507 0.83063 0.80887 0.0
C2271 C 0.67333 0.84263 0.85188 0.0
H2272 H 0.6439 0.81315 0.79662 0.0
C2273 C 0.61633 0.82923 0.86053 0.0
C2274 C 0.6061 0.81518 0.8593 0.0
C2275 C 0.63021 0.83325 0.85528 0.0
C2276 C 0.652 0.82128 0.81259 0.0
H2277 H 0.723 0.86957 0.81151 0.0
H2278 H 0.69871 0.86261 0.82069 0.0
H2279 H 0.66793 0.82057 0.78236 0.0
H2280 H 0.60237 0.79427 0.85291 0.0
H2281 H 0.62668 0.80128 0.84411 0.0
H2282 H 0.65739 0.84334 0.88208 0.0
C2283 C 0.70142 0.85468 0.81599 0.0
C2284 C 0.66576 0.82555 0.80435 0.0
C2285 C 0.7153 0.85867 0.81045 0.0
C2286 C 0.61005 0.80518 0.85389 0.0
C2287 C 0.62394 0.8092 0.84858 0.0
C2288 C 0.65957 0.83836 0.86011 0.0
C2289 C 0.69119 0.8406 0.81578 0.0
C2290 C 0.67657 0.83627 0.82391 0.0
C2291 C 0.63414 0.82329 0.84866 0.0
C2292 C 0.64876 0.82763 0.84056 0.0
H2293 H 0.71164 0.82666 0.79903 0.0
H2294 H 0.68745 0.81969 0.80887 0.0
H2295 H 0.68143 0.85075 0.86786 0.0
H2296 H 0.61358 0.83717 0.86459 0.0
H2297 H 0.63782 0.84419 0.85521 0.0
C2298 C 0.19363 0.80433 0.83557 0.0
C2299 C 0.18377 0.79038 0.84173 0.0
C2300 C 0.1895 0.81416 0.83112 0.0
C2301 C 0.15958 0.81794 0.80718 0.0
H2302 H 0.17984 0.85309 0.85684 0.0
C2303 C 0.13994 0.85684 0.81336 0.0
C2304 C 0.14979 0.87094 0.8096 0.0
C2305 C 0.14412 0.84703 0.81723 0.0
C2306 C 0.17417 0.8434 0.84243 0.0
H2307 H 0.16187 0.77572 0.8477 0.0
H2308 H 0.15464 0.79291 0.83992 0.0
H2309 H 0.1871 0.8359 0.86307 0.0
H2310 H 0.17172 0.88585 0.80689 0.0
H2311 H 0.17905 0.8687 0.81312 0.0
H2312 H 0.1467 0.82544 0.78636 0.0
C2313 C 0.16555 0.79623 0.83831 0.0
C2314 C 0.17833 0.83355 0.84603 0.0
C2315 C 0.16969 0.7864 0.84293 0.0
C2316 C 0.1639 0.87505 0.80988 0.0
C2317 C 0.16809 0.86523 0.81364 0.0
C2318 C 0.15545 0.8278 0.80346 0.0
C2319 C 0.17542 0.81023 0.83257 0.0
C2320 C 0.17106 0.82071 0.82848 0.0
C2321 C 0.15825 0.8511 0.8173 0.0
C2322 C 0.16268 0.84064 0.82111 0.0
H2323 H 0.20455 0.80769 0.83446 0.0
H2324 H 0.19732 0.82484 0.82629 0.0
H2325 H 0.15389 0.80821 0.79294 0.0
H2326 H 0.12898 0.85338 0.81339 0.0
H2327 H 0.13628 0.83626 0.82055 0.0
C2328 C 0.20334 0.3834 0.84164 0.0
C2329 C 0.19923 0.39326 0.83602 0.0
C2330 C 0.19425 0.36942 0.83447 0.0
C2331 C 0.15727 0.34404 0.82609 0.0
H2332 H 0.1702 0.32173 0.77822 0.0
C2333 C 0.11979 0.28739 0.78814 0.0
C2334 C 0.1242 0.27786 0.79547 0.0
C2335 C 0.12911 0.3016 0.78975 0.0
C2336 C 0.16646 0.3278 0.79188 0.0
H2337 H 0.18241 0.39629 0.8184 0.0
H2338 H 0.16651 0.37185 0.80588 0.0
H2339 H 0.18615 0.34636 0.7881 0.0
H2340 H 0.14188 0.27567 0.80919 0.0
H2341 H 0.15814 0.3005 0.81257 0.0
H2342 H 0.13767 0.3255 0.83048 0.0
C2343 C 0.17673 0.37491 0.81606 0.0
C2344 C 0.17559 0.3419 0.79752 0.0
C2345 C 0.18585 0.3889 0.8231 0.0
C2346 C 0.1382 0.28279 0.80335 0.0
C2347 C 0.14752 0.29702 0.80512 0.0
C2348 C 0.14816 0.32995 0.82057 0.0
C2349 C 0.18084 0.36503 0.82168 0.0
C2350 C 0.1711 0.35015 0.81481 0.0
C2351 C 0.14303 0.30658 0.7989 0.0
C2352 C 0.15266 0.32165 0.80351 0.0
H2353 H 0.21359 0.38647 0.8516 0.0
H2354 H 0.19764 0.36202 0.83949 0.0
H2355 H 0.15356 0.35008 0.83998 0.0
H2356 H 0.10907 0.28388 0.78174 0.0
H2357 H 0.12537 0.30868 0.78414 0.0
C2358 C 0.83381 0.71233 0.66739 0.0
C2359 C 0.84771 0.72197 0.67485 0.0
C2360 C 0.82975 0.6985 0.66057 0.0
C2361 C 0.84325 0.67555 0.63412 0.0
H2362 H 0.80982 0.64704 0.67964 0.0
C2363 C 0.82948 0.61837 0.64029 0.0
C2364 C 0.81558 0.60825 0.63483 0.0
C2365 C 0.83328 0.63231 0.64356 0.0
C2366 C 0.81909 0.65487 0.66636 0.0
H2367 H 0.86829 0.72478 0.68063 0.0
H2368 H 0.86119 0.70062 0.66906 0.0
H2369 H 0.81665 0.6713 0.68781 0.0
H2370 H 0.79477 0.60473 0.62815 0.0
H2371 H 0.80142 0.62908 0.63356 0.0
H2372 H 0.84574 0.65909 0.6129 0.0
C2373 C 0.85345 0.70376 0.66806 0.0
C2374 C 0.82299 0.66877 0.67103 0.0
C2375 C 0.8575 0.71758 0.67489 0.0
C2376 C 0.80556 0.61231 0.63248 0.0
C2377 C 0.80936 0.62624 0.63576 0.0
C2378 C 0.83934 0.66164 0.62945 0.0
C2379 C 0.83951 0.69404 0.66105 0.0
C2380 C 0.83515 0.67927 0.6551 0.0
C2381 C 0.82325 0.63639 0.64144 0.0
C2382 C 0.82725 0.65115 0.64566 0.0
H2383 H 0.82605 0.71544 0.66706 0.0
H2384 H 0.81897 0.69129 0.6548 0.0
H2385 H 0.85257 0.68339 0.62107 0.0
H2386 H 0.83742 0.61553 0.64228 0.0
H2387 H 0.84405 0.63986 0.64837 0.0
C2388 C 0.27794 0.14086 0.71221 0.0
C2389 C 0.27422 0.12683 0.71295 0.0
C2390 C 0.29186 0.15119 0.71181 0.0
C2391 C 0.32734 0.15793 0.72903 0.0
H2392 H 0.3377 0.18637 0.65642 0.0
C2393 C 0.38347 0.19169 0.67991 0.0
C2394 C 0.38816 0.20563 0.67177 0.0
C2395 C 0.36961 0.18275 0.6886 0.0
C2396 C 0.33498 0.17866 0.67725 0.0
H2397 H 0.28209 0.1126 0.71525 0.0
H2398 H 0.30639 0.1306 0.71449 0.0
H2399 H 0.31337 0.16965 0.66634 0.0
H2400 H 0.38211 0.22125 0.66701 0.0
H2401 H 0.35793 0.20569 0.68266 0.0
H2402 H 0.34898 0.16685 0.73964 0.0
C2403 C 0.29857 0.13365 0.71442 0.0
C2404 C 0.32103 0.16907 0.68293 0.0
C2405 C 0.28466 0.12333 0.71466 0.0
C2406 C 0.37877 0.21053 0.67298 0.0
C2407 C 0.36491 0.2016 0.68178 0.0
C2408 C 0.3413 0.16755 0.72343 0.0
C2409 C 0.30232 0.14767 0.71233 0.0
C2410 C 0.31707 0.1585 0.70855 0.0
C2411 C 0.36015 0.18758 0.68946 0.0
C2412 C 0.3453 0.17791 0.69714 0.0
H2413 H 0.2701 0.14387 0.71099 0.0
H2414 H 0.29445 0.16192 0.71064 0.0
H2415 H 0.32458 0.15001 0.74928 0.0
H2416 H 0.39047 0.18762 0.67911 0.0
H2417 H 0.36625 0.17197 0.69384 0.0
C2418 C 0.85776 0.13774 0.66041 0.0
C2419 C 0.87185 0.14744 0.66486 0.0
C2420 C 0.84831 0.14211 0.65279 0.0
C2421 C 0.84567 0.172 0.6197 0.0
H2422 H 0.81058 0.15385 0.67012 0.0
C2423 C 0.80824 0.19373 0.62631 0.0
C2424 C 0.79402 0.18415 0.62409 0.0
C2425 C 0.81783 0.18916 0.62794 0.0
C2426 C 0.82025 0.1589 0.65545 0.0
H2427 H 0.88716 0.1693 0.66446 0.0
H2428 H 0.87062 0.17698 0.65174 0.0
H2429 H 0.82716 0.14606 0.67963 0.0
H2430 H 0.77868 0.16233 0.62052 0.0
H2431 H 0.7954 0.15437 0.62316 0.0
H2432 H 0.83877 0.185 0.59598 0.0
C2433 C 0.86689 0.16598 0.6536 0.0
C2434 C 0.82975 0.15443 0.66088 0.0
C2435 C 0.87636 0.1616 0.66112 0.0
C2436 C 0.78958 0.16995 0.62242 0.0
C2437 C 0.79914 0.16539 0.62413 0.0
C2438 C 0.83616 0.1765 0.61434 0.0
C2439 C 0.85274 0.15629 0.6496 0.0
C2440 C 0.84258 0.16094 0.64313 0.0
C2441 C 0.81334 0.17493 0.62749 0.0
C2442 C 0.82335 0.17 0.6322 0.0
H2443 H 0.85401 0.12675 0.66291 0.0
H2444 H 0.83752 0.13437 0.6493 0.0
H2445 H 0.85539 0.17711 0.60526 0.0
H2446 H 0.81196 0.20474 0.62764 0.0
H2447 H 0.8287 0.19675 0.63079 0.0
C2448 C 0.0466 0.52237 0.46433 0.0
C2449 C 0.05055 0.51224 0.46259 0.0
C2450 C 0.03263 0.51854 0.46411 0.0
C2451 C -0.00236 0.48982 0.44228 0.0
H2452 H 0.98586 0.50709 0.51367 0.0
C2453 C 0.94048 0.46759 0.48272 0.0
C2454 C 0.9359 0.47698 0.49023 0.0
C2455 C 0.95446 0.47235 0.47602 0.0
C2456 C 0.98899 0.50231 0.49319 0.0
H2457 H 0.04303 0.49023 0.45827 0.0
H2458 H 0.01861 0.48353 0.45808 0.0
H2459 H 0.01033 0.51465 0.5074 0.0
H2460 H 0.94226 0.49871 0.4957 0.0
H2461 H 0.96664 0.50705 0.48355 0.0
H2462 H 0.97625 0.47738 0.42834 0.0
C2463 C 0.02631 0.49443 0.45933 0.0
C2464 C 0.00302 0.50665 0.48961 0.0
C2465 C 0.04028 0.49825 0.45965 0.0
C2466 C 0.94551 0.49123 0.49019 0.0
C2467 C 0.95948 0.496 0.48341 0.0
C2468 C 0.98359 0.4855 0.44581 0.0
C2469 C 0.02233 0.50452 0.46204 0.0
C2470 C 0.00749 0.50038 0.46433 0.0
C2471 C 0.96414 0.48661 0.47663 0.0
C2472 C 0.9791 0.49162 0.47152 0.0
H2473 H 0.0543 0.53325 0.46647 0.0
H2474 H 0.02988 0.52656 0.46576 0.0
H2475 H 0.0008 0.48492 0.42225 0.0
H2476 H 0.9333 0.45654 0.48263 0.0
H2477 H 0.95773 0.46484 0.47133 0.0
C2478 C 0.49263 0.54281 0.48175 0.0
C2479 C 0.47866 0.53896 0.48605 0.0
C2480 C 0.49676 0.53291 0.48415 0.0
C2481 C 0.48356 0.49548 0.47618 0.0
H2482 H 0.51665 0.5037 0.52943 0.0
C2483 C 0.49827 0.45386 0.50875 0.0
C2484 C 0.51233 0.45781 0.5069 0.0
C2485 C 0.49415 0.46375 0.50533 0.0
C2486 C 0.50749 0.5013 0.51406 0.0
H2487 H 0.45806 0.52176 0.49635 0.0
H2488 H 0.46529 0.50446 0.50067 0.0
H2489 H 0.50951 0.52104 0.52549 0.0
H2490 H 0.53309 0.47512 0.49933 0.0
H2491 H 0.52589 0.49234 0.49277 0.0
H2492 H 0.48155 0.47577 0.46461 0.0
C2493 C 0.47303 0.51511 0.49513 0.0
C2494 C 0.50339 0.51123 0.51186 0.0
C2495 C 0.4689 0.52503 0.49289 0.0
C2496 C 0.52218 0.47178 0.50103 0.0
C2497 C 0.51806 0.48166 0.49751 0.0
C2498 C 0.48768 0.48556 0.47828 0.0
C2499 C 0.487 0.51895 0.49074 0.0
C2500 C 0.49137 0.50842 0.49295 0.0
C2501 C 0.50401 0.47778 0.4999 0.0
C2502 C 0.49968 0.48835 0.49728 0.0
H2503 H 0.50037 0.55347 0.47637 0.0
H2504 H 0.50758 0.53615 0.48027 0.0
H2505 H 0.47436 0.49308 0.46098 0.0
H2506 H 0.49046 0.44316 0.51338 0.0
H2507 H 0.48326 0.46043 0.50772 0.0
C2508 C 0.52338 0.04934 0.52057 0.0
C2509 C 0.53761 0.05403 0.52224 0.0
C2510 C 0.5139 0.03532 0.51538 0.0
C2511 C 0.5109 0.0029 0.48144 0.0
H2512 H 0.47662 0.98587 0.53559 0.0
C2513 C 0.4719 0.94404 0.478 0.0
C2514 C 0.45785 0.9401 0.47576 0.0
C2515 C 0.48191 0.95786 0.48403 0.0
C2516 C 0.48609 0.99051 0.52003 0.0
H2517 H 0.55312 0.04779 0.51977 0.0
H2518 H 0.53652 0.02322 0.51101 0.0
H2519 H 0.49364 0.01015 0.54565 0.0
H2520 H 0.44323 0.94751 0.47783 0.0
H2521 H 0.46068 0.97163 0.48809 0.0
H2522 H 0.5033 0.98323 0.45577 0.0
C2523 C 0.53271 0.03041 0.51333 0.0
C2524 C 0.49584 0.00441 0.52578 0.0
C2525 C 0.5422 0.04445 0.51853 0.0
C2526 C 0.45398 0.95023 0.47954 0.0
C2527 C 0.46397 0.96403 0.48564 0.0
C2528 C 0.50114 0.98897 0.47571 0.0
C2529 C 0.51845 0.02569 0.51178 0.0
C2530 C 0.5083 0.0108 0.50638 0.0
C2531 C 0.47804 0.96799 0.48804 0.0
C2532 C 0.48859 0.98266 0.49477 0.0
H2533 H 0.51954 0.0565 0.5232 0.0
H2534 H 0.503 0.03205 0.51376 0.0
H2535 H 0.52033 0.00757 0.46576 0.0
H2536 H 0.47517 0.93643 0.47524 0.0
H2537 H 0.49266 0.96058 0.48609 0.0
C2538 C 0.5202 0.04792 0.02346 0.0
C2539 C 0.51051 0.05243 0.02501 0.0
C2540 C 0.51583 0.03389 0.01915 0.0
C2541 C 0.48554 -0.00095 0.03063 0.0
H2542 H 0.5054 0.98812 0.96521 0.0
C2543 C 0.46523 0.9422 0.98924 0.0
C2544 C 0.47496 0.93778 0.98633 0.0
C2545 C 0.46956 0.95616 0.99497 0.0
C2546 C 0.49985 0.99101 0.98392 0.0
H2547 H 0.48867 0.04586 0.02322 0.0
H2548 H 0.48102 0.02133 0.01539 0.0
H2549 H 0.51294 0.01258 0.97288 0.0
H2550 H 0.49682 0.9444 0.98775 0.0
H2551 H 0.50439 0.96876 0.99817 0.0
H2552 H 0.47245 0.97746 0.04164 0.0
C2553 C 0.49198 0.02862 0.01791 0.0
C2554 C 0.50416 0.00502 0.98828 0.0
C2555 C 0.49636 0.04266 0.02218 0.0
C2556 C 0.48909 0.94753 0.98975 0.0
C2557 C 0.49342 0.96149 0.99549 0.0
C2558 C 0.48124 0.98503 0.02629 0.0
C2559 C 0.50167 0.02409 0.01633 0.0
C2560 C 0.49706 0.00919 0.01168 0.0
C2561 C 0.48371 0.96597 0.99792 0.0
C2562 C 0.48834 0.98086 0.00288 0.0
H2563 H 0.53118 0.05522 0.02569 0.0
H2564 H 0.52353 0.0307 0.01848 0.0
H2565 H 0.47998 0.00196 0.04925 0.0
H2566 H 0.45426 0.93491 0.98661 0.0
H2567 H 0.46184 0.95931 0.99632 0.0
C2568 C 0.95211 0.45647 0.03893 0.0
C2569 C 0.94186 0.46019 0.03568 0.0
C2570 C 0.9661 0.46663 0.03907 0.0
C2571 C 0.98939 0.50197 0.00751 0.0
H2572 H 0.0162 0.49983 0.06935 0.0
C2573 C 0.04698 0.54403 0.00577 0.0
C2574 C 0.05656 0.53936 0.00642 0.0
C2575 C 0.03299 0.53487 0.0126 0.0
C2576 C 0.00885 0.5005 0.05171 0.0
H2577 H 0.93815 0.47744 0.03111 0.0
H2578 H 0.96258 0.49519 0.0315 0.0
H2579 H 0.99166 0.48287 0.0759 0.0
H2580 H 0.05909 0.52155 0.0152 0.0
H2581 H 0.03465 0.50551 0.02657 0.0
H2582 H 0.00654 0.5194 0.9828 0.0
C2583 C 0.95981 0.48442 0.03353 0.0
C2584 C 0.9948 0.49081 0.05551 0.0
C2585 C 0.94583 0.47427 0.03351 0.0
C2586 C 0.05194 0.52543 0.01458 0.0
C2587 C 0.03795 0.51627 0.02132 0.0
C2588 C 0.00342 0.51163 0.00364 0.0
C2589 C 0.9701 0.4807 0.03586 0.0
C2590 C 0.98494 0.49138 0.03327 0.0
C2591 C 0.02829 0.52086 0.02013 0.0
C2592 C 0.01333 0.51095 0.02551 0.0
H2593 H 0.94935 0.4457 0.04065 0.0
H2594 H 0.97378 0.46343 0.04055 0.0
H2595 H 0.98206 0.50255 0.98958 0.0
H2596 H 0.05026 0.55473 -0.00026 0.0
H2597 H 0.02585 0.53877 0.01199 0.0
C2598 C 0.54001 0.49594 0.0183 0.0
C2599 C 0.53629 0.48192 0.01998 0.0
C2600 C 0.52989 0.49968 0.01385 0.0
C2601 C 0.49434 0.48629 0.98099 0.0
H2602 H 0.49633 0.51685 0.03553 0.0
C2603 C 0.45011 0.49892 0.98271 0.0
C2604 C 0.45386 0.51296 0.98178 0.0
C2605 C 0.46019 0.49511 0.98669 0.0
C2606 C 0.49572 0.5084 0.01978 0.0
H2607 H 0.5191 0.46083 0.01872 0.0
H2608 H 0.50142 0.46739 0.01126 0.0
H2609 H 0.51384 0.51019 0.04451 0.0
H2610 H 0.4711 0.53402 0.98363 0.0
H2611 H 0.48872 0.52735 0.99018 0.0
H2612 H 0.47623 0.48451 0.95623 0.0
C2613 C 0.51216 0.47547 0.01294 0.0
C2614 C 0.50574 0.50458 0.02496 0.0
C2615 C 0.52227 0.47172 0.01744 0.0
C2616 C 0.4679 0.52311 0.98441 0.0
C2617 C 0.47798 0.5193 0.98838 0.0
C2618 C 0.48432 0.49012 0.97578 0.0
C2619 C 0.51587 0.48949 0.01096 0.0
C2620 C 0.50516 0.49348 0.00562 0.0
C2621 C 0.47423 0.50525 0.98982 0.0
C2622 C 0.48491 0.50122 0.99511 0.0
H2623 H 0.55074 0.50402 0.02007 0.0
H2624 H 0.53309 0.51057 0.01202 0.0
H2625 H 0.49374 0.47783 0.96529 0.0
H2626 H 0.43936 0.49088 0.98081 0.0
H2627 H 0.45696 0.4842 0.98808 0.0
loop_
_geom_bond_atom_site_label_1
_geom_bond_atom_site_label_2
_geom_bond_distance
_geom_bond_site_symmetry_2
_ccdc_geom_bond_type
In0 O1 2.294 . S
In0 O2 2.326 . S
In0 O6 2.266 . S
In0 O7 2.326 . S
In0 O8 2.266 . S
In0 O9 2.326 . S
In0 O11 2.294 . S
In0 O12 2.326 . S
O1 In0 2.294 . S
O1 C10 1.240 . S
O2 In0 2.326 . S
O2 C10 1.252 . S
C3 O6 1.252 . S
C3 O7 1.260 . S
C4 O11 1.240 . S
C4 O12 1.252 . S
C5 O8 1.252 . S
C5 O9 1.260 . S
O6 In0 2.266 . S
O6 C3 1.252 . S
O7 In0 2.326 . S
O7 C3 1.260 . S
O8 In0 2.266 . S
O8 C5 1.252 . S
O9 In0 2.326 . S
O9 C5 1.260 . S
C10 O1 1.240 . S
C10 O2 1.252 . S
O11 In0 2.294 . S
O11 C4 1.240 . S
O12 In0 2.326 . S
O12 C4 1.252 . S
In13 O14 2.294 . S
In13 O15 2.326 . S
In13 O19 2.266 . S
In13 O20 2.326 . S
In13 O21 2.266 . S
In13 O22 2.326 . S
In13 O24 2.294 . S
In13 O25 2.326 . S
O14 In13 2.294 . S
O14 C23 1.240 . S
O15 In13 2.326 . S
O15 C23 1.252 . S
C16 O19 1.252 . S
C16 O20 1.260 . S
C17 O24 1.240 . S
C17 O25 1.252 . S
C18 O21 1.252 . S
C18 O22 1.260 . S
O19 In13 2.266 . S
O19 C16 1.252 . S
O20 In13 2.326 . S
O20 C16 1.260 . S
O21 In13 2.266 . S
O21 C18 1.252 . S
O22 In13 2.326 . S
O22 C18 1.260 . S
C23 O14 1.240 . S
C23 O15 1.252 . S
O24 In13 2.294 . S
O24 C17 1.240 . S
O25 In13 2.326 . S
O25 C17 1.252 . S
In26 O27 2.294 . S
In26 O28 2.326 . S
In26 O32 2.266 . S
In26 O33 2.326 . S
In26 O34 2.266 . S
In26 O35 2.326 . S
In26 O37 2.294 . S
In26 O38 2.326 . S
O27 In26 2.294 . S
O27 C36 1.240 . S
O28 In26 2.326 . S
O28 C36 1.252 . S
C29 O32 1.252 . S
C29 O33 1.260 . S
C30 O37 1.240 . S
C30 O38 1.252 . S
C31 O34 1.252 . S
C31 O35 1.260 . S
O32 In26 2.266 . S
O32 C29 1.252 . S
O33 In26 2.326 . S
O33 C29 1.260 . S
O34 In26 2.266 . S
O34 C31 1.252 . S
O35 In26 2.326 . S
O35 C31 1.260 . S
C36 O27 1.240 . S
C36 O28 1.252 . S
O37 In26 2.294 . S
O37 C30 1.240 . S
O38 In26 2.326 . S
O38 C30 1.252 . S
In39 O40 2.294 . S
In39 O41 2.326 . S
In39 O45 2.266 . S
In39 O46 2.326 . S
In39 O47 2.266 . S
In39 O48 2.326 . S
In39 O50 2.294 . S
In39 O51 2.326 . S
O40 In39 2.294 . S
O40 C49 1.240 . S
O41 In39 2.326 . S
O41 C49 1.252 . S
C42 O45 1.252 . S
C42 O46 1.260 . S
C43 O50 1.240 . S
C43 O51 1.252 . S
C44 O47 1.252 . S
C44 O48 1.260 . S
O45 In39 2.266 . S
O45 C42 1.252 . S
O46 In39 2.326 . S
O46 C42 1.260 . S
O47 In39 2.266 . S
O47 C44 1.252 . S
O48 In39 2.326 . S
O48 C44 1.260 . S
C49 O40 1.240 . S
C49 O41 1.252 . S
O50 In39 2.294 . S
O50 C43 1.240 . S
O51 In39 2.326 . S
O51 C43 1.252 . S
In52 O53 2.294 . S
In52 O54 2.326 . S
In52 O58 2.266 . S
In52 O59 2.326 . S
In52 O60 2.266 . S
In52 O61 2.326 . S
In52 O63 2.294 . S
In52 O64 2.326 . S
O53 In52 2.294 . S
O53 C62 1.240 . S
O54 In52 2.326 . S
O54 C62 1.252 . S
C55 O58 1.252 . S
C55 O59 1.260 . S
C56 O63 1.240 . S
C56 O64 1.252 . S
C57 O60 1.252 . S
C57 O61 1.260 . S
O58 In52 2.266 . S
O58 C55 1.252 . S
O59 In52 2.326 . S
O59 C55 1.260 . S
O60 In52 2.266 . S
O60 C57 1.252 . S
O61 In52 2.326 . S
O61 C57 1.260 . S
C62 O53 1.240 . S
C62 O54 1.252 . S
O63 In52 2.294 . S
O63 C56 1.240 . S
O64 In52 2.326 . S
O64 C56 1.252 . S
In65 O66 2.294 . S
In65 O67 2.326 . S
In65 O71 2.266 . S
In65 O72 2.326 . S
In65 O73 2.266 . S
In65 O74 2.326 . S
In65 O76 2.294 . S
In65 O77 2.326 . S
O66 In65 2.294 . S
O66 C75 1.240 . S
O67 In65 2.326 . S
O67 C75 1.252 . S
C68 O71 1.252 . S
C68 O72 1.260 . S
C69 O76 1.240 . S
C69 O77 1.252 . S
C70 O73 1.252 . S
C70 O74 1.260 . S
O71 In65 2.266 . S
O71 C68 1.252 . S
O72 In65 2.326 . S
O72 C68 1.260 . S
O73 In65 2.266 . S
O73 C70 1.252 . S
O74 In65 2.326 . S
O74 C70 1.260 . S
C75 O66 1.240 . S
C75 O67 1.252 . S
O76 In65 2.294 . S
O76 C69 1.240 . S
O77 In65 2.326 . S
O77 C69 1.252 . S
In78 O79 2.294 . S
In78 O80 2.326 . S
In78 O84 2.266 . S
In78 O85 2.326 . S
In78 O86 2.266 . S
In78 O87 2.326 . S
In78 O89 2.294 . S
In78 O90 2.326 . S
O79 In78 2.294 . S
O79 C88 1.240 . S
O80 In78 2.326 . S
O80 C88 1.252 . S
C81 O84 1.252 . S
C81 O85 1.260 . S
C82 O89 1.240 . S
C82 O90 1.252 . S
C83 O86 1.252 . S
C83 O87 1.260 . S
O84 In78 2.266 . S
O84 C81 1.252 . S
O85 In78 2.326 . S
O85 C81 1.260 . S
O86 In78 2.266 . S
O86 C83 1.252 . S
O87 In78 2.326 . S
O87 C83 1.260 . S
C88 O79 1.240 . S
C88 O80 1.252 . S
O89 In78 2.294 . S
O89 C82 1.240 . S
O90 In78 2.326 . S
O90 C82 1.252 . S
In91 O92 2.294 . S
In91 O93 2.326 . S
In91 O97 2.266 . S
In91 O98 2.326 . S
In91 O99 2.266 . S
In91 O100 2.326 . S
In91 O102 2.294 . S
In91 O103 2.326 . S
O92 In91 2.294 . S
O92 C101 1.240 . S
O93 In91 2.326 . S
O93 C101 1.252 . S
C94 O97 1.252 . S
C94 O98 1.260 . S
C95 O102 1.240 . S
C95 O103 1.252 . S
C96 O99 1.252 . S
C96 O100 1.260 . S
O97 In91 2.266 . S
O97 C94 1.252 . S
O98 In91 2.326 . S
O98 C94 1.260 . S
O99 In91 2.266 . S
O99 C96 1.252 . S
O100 In91 2.326 . S
O100 C96 1.260 . S
C101 O92 1.240 . S
C101 O93 1.252 . S
O102 In91 2.294 . S
O102 C95 1.240 . S
O103 In91 2.326 . S
O103 C95 1.252 . S
In104 O105 2.294 . S
In104 O106 2.326 . S
In104 O110 2.266 . S
In104 O111 2.326 . S
In104 O112 2.266 . S
In104 O113 2.326 . S
In104 O115 2.294 . S
In104 O116 2.326 . S
O105 In104 2.294 . S
O105 C114 1.240 . S
O106 In104 2.326 . S
O106 C114 1.252 . S
C107 O110 1.252 . S
C107 O111 1.260 . S
C108 O115 1.240 . S
C108 O116 1.252 . S
C109 O112 1.252 . S
C109 O113 1.260 . S
O110 In104 2.266 . S
O110 C107 1.252 . S
O111 In104 2.326 . S
O111 C107 1.260 . S
O112 In104 2.266 . S
O112 C109 1.252 . S
O113 In104 2.326 . S
O113 C109 1.260 . S
C114 O105 1.240 . S
C114 O106 1.252 . S
O115 In104 2.294 . S
O115 C108 1.240 . S
O116 In104 2.326 . S
O116 C108 1.252 . S
In117 O118 2.294 . S
In117 O119 2.326 . S
In117 O123 2.266 . S
In117 O124 2.326 . S
In117 O125 2.266 . S
In117 O126 2.326 . S
In117 O128 2.294 . S
In117 O129 2.326 . S
O118 In117 2.294 . S
O118 C127 1.240 . S
O119 In117 2.326 . S
O119 C127 1.252 . S
C120 O123 1.252 . S
C120 O124 1.260 . S
C121 O128 1.240 . S
C121 O129 1.252 . S
C122 O125 1.252 . S
C122 O126 1.260 . S
O123 In117 2.266 . S
O123 C120 1.252 . S
O124 In117 2.326 . S
O124 C120 1.260 . S
O125 In117 2.266 . S
O125 C122 1.252 . S
O126 In117 2.326 . S
O126 C122 1.260 . S
C127 O118 1.240 . S
C127 O119 1.252 . S
O128 In117 2.294 . S
O128 C121 1.240 . S
O129 In117 2.326 . S
O129 C121 1.252 . S
In130 O131 2.294 . S
In130 O132 2.326 . S
In130 O136 2.266 . S
In130 O137 2.326 . S
In130 O138 2.266 . S
In130 O139 2.326 . S
In130 O141 2.294 . S
In130 O142 2.326 . S
O131 In130 2.294 . S
O131 C140 1.240 . S
O132 In130 2.326 . S
O132 C140 1.252 . S
C133 O136 1.252 . S
C133 O137 1.260 . S
C134 O141 1.240 . S
C134 O142 1.252 . S
C135 O138 1.252 . S
C135 O139 1.260 . S
O136 In130 2.266 . S
O136 C133 1.252 . S
O137 In130 2.326 . S
O137 C133 1.260 . S
O138 In130 2.266 . S
O138 C135 1.252 . S
O139 In130 2.326 . S
O139 C135 1.260 . S
C140 O131 1.240 . S
C140 O132 1.252 . S
O141 In130 2.294 . S
O141 C134 1.240 . S
O142 In130 2.326 . S
O142 C134 1.252 . S
In143 O144 2.294 . S
In143 O145 2.326 . S
In143 O149 2.266 . S
In143 O150 2.326 . S
In143 O151 2.266 . S
In143 O152 2.326 . S
In143 O154 2.294 . S
In143 O155 2.326 . S
O144 In143 2.294 . S
O144 C153 1.240 . S
O145 In143 2.326 . S
O145 C153 1.252 . S
C146 O149 1.252 . S
C146 O150 1.260 . S
C147 O154 1.240 . S
C147 O155 1.252 . S
C148 O151 1.252 . S
C148 O152 1.260 . S
O149 In143 2.266 . S
O149 C146 1.252 . S
O150 In143 2.326 . S
O150 C146 1.260 . S
O151 In143 2.266 . S
O151 C148 1.252 . S
O152 In143 2.326 . S
O152 C148 1.260 . S
C153 O144 1.240 . S
C153 O145 1.252 . S
O154 In143 2.294 . S
O154 C147 1.240 . S
O155 In143 2.326 . S
O155 C147 1.252 . S
In156 O157 2.294 . S
In156 O158 2.326 . S
In156 O162 2.266 . S
In156 O163 2.326 . S
In156 O164 2.266 . S
In156 O165 2.326 . S
In156 O167 2.294 . S
In156 O168 2.326 . S
O157 In156 2.294 . S
O157 C166 1.240 . S
O158 In156 2.326 . S
O158 C166 1.252 . S
C159 O162 1.252 . S
C159 O163 1.260 . S
C160 O167 1.240 . S
C160 O168 1.252 . S
C161 O164 1.252 . S
C161 O165 1.260 . S
O162 In156 2.266 . S
O162 C159 1.252 . S
O163 In156 2.326 . S
O163 C159 1.260 . S
O164 In156 2.266 . S
O164 C161 1.252 . S
O165 In156 2.326 . S
O165 C161 1.260 . S
C166 O157 1.240 . S
C166 O158 1.252 . S
O167 In156 2.294 . S
O167 C160 1.240 . S
O168 In156 2.326 . S
O168 C160 1.252 . S
In169 O170 2.294 . S
In169 O171 2.326 . S
In169 O175 2.266 . S
In169 O176 2.326 . S
In169 O177 2.266 . S
In169 O178 2.326 . S
In169 O180 2.294 . S
In169 O181 2.326 . S
O170 In169 2.294 . S
O170 C179 1.240 . S
O171 In169 2.326 . S
O171 C179 1.252 . S
C172 O175 1.252 . S
C172 O176 1.260 . S
C173 O180 1.240 . S
C173 O181 1.252 . S
C174 O177 1.252 . S
C174 O178 1.260 . S
O175 In169 2.266 . S
O175 C172 1.252 . S
O176 In169 2.326 . S
O176 C172 1.260 . S
O177 In169 2.266 . S
O177 C174 1.252 . S
O178 In169 2.326 . S
O178 C174 1.260 . S
C179 O170 1.240 . S
C179 O171 1.252 . S
O180 In169 2.294 . S
O180 C173 1.240 . S
O181 In169 2.326 . S
O181 C173 1.252 . S
In182 O183 2.294 . S
In182 O184 2.326 . S
In182 O188 2.266 . S
In182 O189 2.326 . S
In182 O190 2.266 . S
In182 O191 2.326 . S
In182 O193 2.294 . S
In182 O194 2.326 . S
O183 In182 2.294 . S
O183 C192 1.240 . S
O184 In182 2.326 . S
O184 C192 1.252 . S
C185 O188 1.252 . S
C185 O189 1.260 . S
C186 O193 1.240 . S
C186 O194 1.252 . S
C187 O190 1.252 . S
C187 O191 1.260 . S
O188 In182 2.266 . S
O188 C185 1.252 . S
O189 In182 2.326 . S
O189 C185 1.260 . S
O190 In182 2.266 . S
O190 C187 1.252 . S
O191 In182 2.326 . S
O191 C187 1.260 . S
C192 O183 1.240 . S
C192 O184 1.252 . S
O193 In182 2.294 . S
O193 C186 1.240 . S
O194 In182 2.326 . S
O194 C186 1.252 . S
In195 O196 2.294 . S
In195 O197 2.326 . S
In195 O201 2.266 . S
In195 O202 2.326 . S
In195 O203 2.266 . S
In195 O204 2.326 . S
In195 O206 2.294 . S
In195 O207 2.326 . S
O196 In195 2.294 . S
O196 C205 1.240 . S
O197 In195 2.326 . S
O197 C205 1.252 . S
C198 O201 1.252 . S
C198 O202 1.260 . S
C199 O206 1.240 . S
C199 O207 1.252 . S
C200 O203 1.252 . S
C200 O204 1.260 . S
O201 In195 2.266 . S
O201 C198 1.252 . S
O202 In195 2.326 . S
O202 C198 1.260 . S
O203 In195 2.266 . S
O203 C200 1.252 . S
O204 In195 2.326 . S
O204 C200 1.260 . S
C205 O196 1.240 . S
C205 O197 1.252 . S
O206 In195 2.294 . S
O206 C199 1.240 . S
O207 In195 2.326 . S
O207 C199 1.252 . S
In208 O209 2.294 . S
In208 O210 2.326 . S
In208 O214 2.266 . S
In208 O215 2.326 . S
In208 O216 2.266 . S
In208 O217 2.326 . S
In208 O219 2.294 . S
In208 O220 2.326 . S
O209 In208 2.294 . S
O209 C218 1.240 . S
O210 In208 2.326 . S
O210 C218 1.252 . S
C211 O214 1.252 . S
C211 O215 1.260 . S
C212 O219 1.240 . S
C212 O220 1.252 . S
C213 O216 1.252 . S
C213 O217 1.260 . S
O214 In208 2.266 . S
O214 C211 1.252 . S
O215 In208 2.326 . S
O215 C211 1.260 . S
O216 In208 2.266 . S
O216 C213 1.252 . S
O217 In208 2.326 . S
O217 C213 1.260 . S
C218 O209 1.240 . S
C218 O210 1.252 . S
O219 In208 2.294 . S
O219 C212 1.240 . S
O220 In208 2.326 . S
O220 C212 1.252 . S
In221 O222 2.294 . S
In221 O223 2.326 . S
In221 O227 2.266 . S
In221 O228 2.326 . S
In221 O229 2.266 . S
In221 O230 2.326 . S
In221 O232 2.294 . S
In221 O233 2.326 . S
O222 In221 2.294 . S
O222 C231 1.240 . S
O223 In221 2.326 . S
O223 C231 1.252 . S
C224 O227 1.252 . S
C224 O228 1.260 . S
C225 O232 1.240 . S
C225 O233 1.252 . S
C226 O229 1.252 . S
C226 O230 1.260 . S
O227 In221 2.266 . S
O227 C224 1.252 . S
O228 In221 2.326 . S
O228 C224 1.260 . S
O229 In221 2.266 . S
O229 C226 1.252 . S
O230 In221 2.326 . S
O230 C226 1.260 . S
C231 O222 1.240 . S
C231 O223 1.252 . S
O232 In221 2.294 . S
O232 C225 1.240 . S
O233 In221 2.326 . S
O233 C225 1.252 . S
In234 O235 2.294 . S
In234 O236 2.326 . S
In234 O240 2.266 . S
In234 O241 2.326 . S
In234 O242 2.266 . S
In234 O243 2.326 . S
In234 O245 2.294 . S
In234 O246 2.326 . S
O235 In234 2.294 . S
O235 C244 1.240 . S
O236 In234 2.326 . S
O236 C244 1.252 . S
C237 O240 1.252 . S
C237 O241 1.260 . S
C238 O245 1.240 . S
C238 O246 1.252 . S
C239 O242 1.252 . S
C239 O243 1.260 . S
O240 In234 2.266 . S
O240 C237 1.252 . S
O241 In234 2.326 . S
O241 C237 1.260 . S
O242 In234 2.266 . S
O242 C239 1.252 . S
O243 In234 2.326 . S
O243 C239 1.260 . S
C244 O235 1.240 . S
C244 O236 1.252 . S
O245 In234 2.294 . S
O245 C238 1.240 . S
O246 In234 2.326 . S
O246 C238 1.252 . S
In247 O248 2.294 . S
In247 O249 2.326 . S
In247 O253 2.266 . S
In247 O254 2.326 . S
In247 O255 2.266 . S
In247 O256 2.326 . S
In247 O258 2.294 . S
In247 O259 2.326 . S
O248 In247 2.294 . S
O248 C257 1.240 . S
O249 In247 2.326 . S
O249 C257 1.252 . S
C250 O253 1.252 . S
C250 O254 1.260 . S
C251 O258 1.240 . S
C251 O259 1.252 . S
C252 O255 1.252 . S
C252 O256 1.260 . S
O253 In247 2.266 . S
O253 C250 1.252 . S
O254 In247 2.326 . S
O254 C250 1.260 . S
O255 In247 2.266 . S
O255 C252 1.252 . S
O256 In247 2.326 . S
O256 C252 1.260 . S
C257 O248 1.240 . S
C257 O249 1.252 . S
O258 In247 2.294 . S
O258 C251 1.240 . S
O259 In247 2.326 . S
O259 C251 1.252 . S
In260 O261 2.294 . S
In260 O262 2.326 . S
In260 O266 2.266 . S
In260 O267 2.326 . S
In260 O268 2.266 . S
In260 O269 2.326 . S
In260 O271 2.294 . S
In260 O272 2.326 . S
O261 In260 2.294 . S
O261 C270 1.240 . S
O262 In260 2.326 . S
O262 C270 1.252 . S
C263 O266 1.252 . S
C263 O267 1.260 . S
C264 O271 1.240 . S
C264 O272 1.252 . S
C265 O268 1.252 . S
C265 O269 1.260 . S
O266 In260 2.266 . S
O266 C263 1.252 . S
O267 In260 2.326 . S
O267 C263 1.260 . S
O268 In260 2.266 . S
O268 C265 1.252 . S
O269 In260 2.326 . S
O269 C265 1.260 . S
C270 O261 1.240 . S
C270 O262 1.252 . S
O271 In260 2.294 . S
O271 C264 1.240 . S
O272 In260 2.326 . S
O272 C264 1.252 . S
In273 O274 2.294 . S
In273 O275 2.326 . S
In273 O279 2.266 . S
In273 O280 2.326 . S
In273 O281 2.266 . S
In273 O282 2.326 1_554 S
In273 O284 2.294 . S
In273 O285 2.326 . S
O274 In273 2.294 . S
O274 C283 1.240 . S
O275 In273 2.326 . S
O275 C283 1.252 . S
C276 O279 1.252 . S
C276 O280 1.260 . S
C277 O284 1.240 . S
C277 O285 1.252 . S
C278 O281 1.252 1_556 S
C278 O282 1.260 . S
O279 In273 2.266 . S
O279 C276 1.252 . S
O280 In273 2.326 . S
O280 C276 1.260 . S
O281 In273 2.266 . S
O281 C278 1.252 1_554 S
O282 In273 2.326 1_556 S
O282 C278 1.260 . S
C283 O274 1.240 . S
C283 O275 1.252 . S
O284 In273 2.294 . S
O284 C277 1.240 . S
O285 In273 2.326 . S
O285 C277 1.252 . S
In286 O287 2.294 . S
In286 O288 2.326 . S
In286 O292 2.266 . S
In286 O293 2.326 1_554 S
In286 O294 2.266 . S
In286 O295 2.326 . S
In286 O297 2.294 . S
In286 O298 2.326 . S
O287 In286 2.294 . S
O287 C296 1.240 . S
O288 In286 2.326 . S
O288 C296 1.252 . S
C289 O292 1.252 1_556 S
C289 O293 1.260 . S
C290 O297 1.240 . S
C290 O298 1.252 . S
C291 O294 1.252 . S
C291 O295 1.260 . S
O292 In286 2.266 . S
O292 C289 1.252 1_554 S
O293 In286 2.326 1_556 S
O293 C289 1.260 . S
O294 In286 2.266 . S
O294 C291 1.252 . S
O295 In286 2.326 . S
O295 C291 1.260 . S
C296 O287 1.240 . S
C296 O288 1.252 . S
O297 In286 2.294 . S
O297 C290 1.240 . S
O298 In286 2.326 . S
O298 C290 1.252 . S
In299 O300 2.294 . S
In299 O301 2.326 . S
In299 O305 2.266 . S
In299 O306 2.326 . S
In299 O307 2.266 . S
In299 O308 2.326 1_554 S
In299 O310 2.294 . S
In299 O311 2.326 . S
O300 In299 2.294 . S
O300 C309 1.240 . S
O301 In299 2.326 . S
O301 C309 1.252 . S
C302 O305 1.252 . S
C302 O306 1.260 . S
C303 O310 1.240 . S
C303 O311 1.252 . S
C304 O307 1.252 1_556 S
C304 O308 1.260 . S
O305 In299 2.266 . S
O305 C302 1.252 . S
O306 In299 2.326 . S
O306 C302 1.260 . S
O307 In299 2.266 . S
O307 C304 1.252 1_554 S
O308 In299 2.326 1_556 S
O308 C304 1.260 . S
C309 O300 1.240 . S
C309 O301 1.252 . S
O310 In299 2.294 . S
O310 C303 1.240 . S
O311 In299 2.326 . S
O311 C303 1.252 . S
In312 O313 2.294 . S
In312 O314 2.326 . S
In312 O318 2.266 . S
In312 O319 2.326 . S
In312 O320 2.266 . S
In312 O321 2.326 . S
In312 O323 2.294 . S
In312 O324 2.326 . S
O313 In312 2.294 . S
O313 C322 1.240 . S
O314 In312 2.326 . S
O314 C322 1.252 . S
C315 O318 1.252 . S
C315 O319 1.260 . S
C316 O323 1.240 . S
C316 O324 1.252 . S
C317 O320 1.252 . S
C317 O321 1.260 . S
O318 In312 2.266 . S
O318 C315 1.252 . S
O319 In312 2.326 . S
O319 C315 1.260 . S
O320 In312 2.266 . S
O320 C317 1.252 . S
O321 In312 2.326 . S
O321 C317 1.260 . S
C322 O313 1.240 . S
C322 O314 1.252 . S
O323 In312 2.294 . S
O323 C316 1.240 . S
O324 In312 2.326 . S
O324 C316 1.252 . S
In325 O326 2.294 . S
In325 O327 2.326 . S
In325 O331 2.266 . S
In325 O332 2.326 . S
In325 O333 2.266 . S
In325 O334 2.326 . S
In325 O336 2.294 . S
In325 O337 2.326 . S
O326 In325 2.294 . S
O326 C335 1.240 . S
O327 In325 2.326 . S
O327 C335 1.252 . S
C328 O331 1.252 . S
C328 O332 1.260 . S
C329 O336 1.240 . S
C329 O337 1.252 . S
C330 O333 1.252 . S
C330 O334 1.260 . S
O331 In325 2.266 . S
O331 C328 1.252 . S
O332 In325 2.326 . S
O332 C328 1.260 . S
O333 In325 2.266 . S
O333 C330 1.252 . S
O334 In325 2.326 . S
O334 C330 1.260 . S
C335 O326 1.240 . S
C335 O327 1.252 . S
O336 In325 2.294 . S
O336 C329 1.240 . S
O337 In325 2.326 . S
O337 C329 1.252 . S
In338 O339 2.294 . S
In338 O340 2.326 . S
In338 O344 2.266 . S
In338 O345 2.326 . S
In338 O346 2.266 . S
In338 O347 2.326 . S
In338 O349 2.294 . S
In338 O350 2.326 . S
O339 In338 2.294 . S
O339 C348 1.240 . S
O340 In338 2.326 . S
O340 C348 1.252 . S
C341 O344 1.252 . S
C341 O345 1.260 . S
C342 O349 1.240 . S
C342 O350 1.252 . S
C343 O346 1.252 . S
C343 O347 1.260 . S
O344 In338 2.266 . S
O344 C341 1.252 . S
O345 In338 2.326 . S
O345 C341 1.260 . S
O346 In338 2.266 . S
O346 C343 1.252 . S
O347 In338 2.326 . S
O347 C343 1.260 . S
C348 O339 1.240 . S
C348 O340 1.252 . S
O349 In338 2.294 . S
O349 C342 1.240 . S
O350 In338 2.326 . S
O350 C342 1.252 . S
In351 O352 2.294 . S
In351 O353 2.326 . S
In351 O357 2.266 . S
In351 O358 2.326 . S
In351 O359 2.266 . S
In351 O360 2.326 1_556 S
In351 O362 2.294 . S
In351 O363 2.326 . S
O352 In351 2.294 . S
O352 C361 1.240 . S
O353 In351 2.326 . S
O353 C361 1.252 . S
C354 O357 1.252 . S
C354 O358 1.260 . S
C355 O362 1.240 . S
C355 O363 1.252 . S
C356 O359 1.252 1_554 S
C356 O360 1.260 . S
O357 In351 2.266 . S
O357 C354 1.252 . S
O358 In351 2.326 . S
O358 C354 1.260 . S
O359 In351 2.266 . S
O359 C356 1.252 1_556 S
O360 In351 2.326 1_554 S
O360 C356 1.260 . S
C361 O352 1.240 . S
C361 O353 1.252 . S
O362 In351 2.294 . S
O362 C355 1.240 . S
O363 In351 2.326 . S
O363 C355 1.252 . S
In364 O365 2.294 . S
In364 O366 2.326 . S
In364 O370 2.266 . S
In364 O371 2.326 1_556 S
In364 O372 2.266 . S
In364 O373 2.326 . S
In364 O375 2.294 . S
In364 O376 2.326 . S
O365 In364 2.294 . S
O365 C374 1.240 . S
O366 In364 2.326 . S
O366 C374 1.252 . S
C367 O370 1.252 1_554 S
C367 O371 1.260 . S
C368 O375 1.240 . S
C368 O376 1.252 . S
C369 O372 1.252 . S
C369 O373 1.260 . S
O370 In364 2.266 . S
O370 C367 1.252 1_556 S
O371 In364 2.326 1_554 S
O371 C367 1.260 . S
O372 In364 2.266 . S
O372 C369 1.252 . S
O373 In364 2.326 . S
O373 C369 1.260 . S
C374 O365 1.240 . S
C374 O366 1.252 . S
O375 In364 2.294 . S
O375 C368 1.240 . S
O376 In364 2.326 . S
O376 C368 1.252 . S
In377 O378 2.294 . S
In377 O379 2.326 . S
In377 O383 2.266 . S
In377 O384 2.326 . S
In377 O385 2.266 . S
In377 O386 2.326 1_556 S
In377 O388 2.294 . S
In377 O389 2.326 . S
O378 In377 2.294 . S
O378 C387 1.240 . S
O379 In377 2.326 . S
O379 C387 1.252 . S
C380 O383 1.252 . S
C380 O384 1.260 . S
C381 O388 1.240 . S
C381 O389 1.252 . S
C382 O385 1.252 1_554 S
C382 O386 1.260 . S
O383 In377 2.266 . S
O383 C380 1.252 . S
O384 In377 2.326 . S
O384 C380 1.260 . S
O385 In377 2.266 . S
O385 C382 1.252 1_556 S
O386 In377 2.326 1_554 S
O386 C382 1.260 . S
C387 O378 1.240 . S
C387 O379 1.252 . S
O388 In377 2.294 . S
O388 C381 1.240 . S
O389 In377 2.326 . S
O389 C381 1.252 . S
In390 O391 2.294 . S
In390 O392 2.326 . S
In390 O396 2.266 . S
In390 O397 2.326 . S
In390 O398 2.266 . S
In390 O399 2.326 . S
In390 O401 2.294 . S
In390 O402 2.326 . S
O391 In390 2.294 . S
O391 C400 1.240 . S
O392 In390 2.326 . S
O392 C400 1.252 . S
C393 O396 1.252 . S
C393 O397 1.260 . S
C394 O401 1.240 . S
C394 O402 1.252 . S
C395 O398 1.252 . S
C395 O399 1.260 . S
O396 In390 2.266 . S
O396 C393 1.252 . S
O397 In390 2.326 . S
O397 C393 1.260 . S
O398 In390 2.266 . S
O398 C395 1.252 . S
O399 In390 2.326 . S
O399 C395 1.260 . S
C400 O391 1.240 . S
C400 O392 1.252 . S
O401 In390 2.294 . S
O401 C394 1.240 . S
O402 In390 2.326 . S
O402 C394 1.252 . S
In403 O404 2.294 . S
In403 O405 2.326 . S
In403 O409 2.266 . S
In403 O410 2.326 . S
In403 O411 2.266 . S
In403 O412 2.326 . S
In403 O414 2.294 . S
In403 O415 2.326 . S
O404 In403 2.294 . S
O404 C413 1.240 . S
O405 In403 2.326 . S
O405 C413 1.252 . S
C406 O409 1.252 . S
C406 O410 1.260 . S
C407 O414 1.240 . S
C407 O415 1.252 . S
C408 O411 1.252 . S
C408 O412 1.260 . S
O409 In403 2.266 . S
O409 C406 1.252 . S
O410 In403 2.326 . S
O410 C406 1.260 . S
O411 In403 2.266 . S
O411 C408 1.252 . S
O412 In403 2.326 . S
O412 C408 1.260 . S
C413 O404 1.240 . S
C413 O405 1.252 . S
O414 In403 2.294 . S
O414 C407 1.240 . S
O415 In403 2.326 . S
O415 C407 1.252 . S
In416 O417 2.294 . S
In416 O418 2.326 . S
In416 O422 2.266 . S
In416 O423 2.326 . S
In416 O424 2.266 . S
In416 O425 2.326 . S
In416 O427 2.294 . S
In416 O428 2.326 . S
O417 In416 2.294 . S
O417 C426 1.240 . S
O418 In416 2.326 . S
O418 C426 1.252 . S
C419 O422 1.252 . S
C419 O423 1.260 . S
C420 O427 1.240 . S
C420 O428 1.252 . S
C421 O424 1.252 . S
C421 O425 1.260 . S
O422 In416 2.266 . S
O422 C419 1.252 . S
O423 In416 2.326 . S
O423 C419 1.260 . S
O424 In416 2.266 . S
O424 C421 1.252 . S
O425 In416 2.326 . S
O425 C421 1.260 . S
C426 O417 1.240 . S
C426 O418 1.252 . S
O427 In416 2.294 . S
O427 C420 1.240 . S
O428 In416 2.326 . S
O428 C420 1.252 . S
In429 O430 2.294 . S
In429 O431 2.326 . S
In429 O435 2.266 . S
In429 O436 2.326 . S
In429 O437 2.266 . S
In429 O438 2.326 . S
In429 O440 2.294 . S
In429 O441 2.326 . S
O430 In429 2.294 . S
O430 C439 1.240 . S
O431 In429 2.326 . S
O431 C439 1.252 . S
C432 O435 1.252 . S
C432 O436 1.260 . S
C433 O440 1.240 . S
C433 O441 1.252 . S
C434 O437 1.252 . S
C434 O438 1.260 . S
O435 In429 2.266 . S
O435 C432 1.252 . S
O436 In429 2.326 . S
O436 C432 1.260 . S
O437 In429 2.266 . S
O437 C434 1.252 . S
O438 In429 2.326 . S
O438 C434 1.260 . S
C439 O430 1.240 . S
C439 O431 1.252 . S
O440 In429 2.294 . S
O440 C433 1.240 . S
O441 In429 2.326 . S
O441 C433 1.252 . S
In442 O443 2.294 . S
In442 O444 2.326 . S
In442 O448 2.266 . S
In442 O449 2.326 . S
In442 O450 2.266 . S
In442 O451 2.326 . S
In442 O453 2.294 . S
In442 O454 2.326 . S
O443 In442 2.294 . S
O443 C452 1.240 . S
O444 In442 2.326 . S
O444 C452 1.252 . S
C445 O448 1.252 . S
C445 O449 1.260 . S
C446 O453 1.240 . S
C446 O454 1.252 . S
C447 O450 1.252 . S
C447 O451 1.260 . S
O448 In442 2.266 . S
O448 C445 1.252 . S
O449 In442 2.326 . S
O449 C445 1.260 . S
O450 In442 2.266 . S
O450 C447 1.252 . S
O451 In442 2.326 . S
O451 C447 1.260 . S
C452 O443 1.240 . S
C452 O444 1.252 . S
O453 In442 2.294 . S
O453 C446 1.240 . S
O454 In442 2.326 . S
O454 C446 1.252 . S
In455 O456 2.294 . S
In455 O457 2.326 . S
In455 O461 2.266 . S
In455 O462 2.326 . S
In455 O463 2.266 . S
In455 O464 2.326 . S
In455 O466 2.294 . S
In455 O467 2.326 . S
O456 In455 2.294 . S
O456 C465 1.240 . S
O457 In455 2.326 . S
O457 C465 1.252 . S
C458 O461 1.252 . S
C458 O462 1.260 . S
C459 O466 1.240 . S
C459 O467 1.252 . S
C460 O463 1.252 . S
C460 O464 1.260 . S
O461 In455 2.266 . S
O461 C458 1.252 . S
O462 In455 2.326 . S
O462 C458 1.260 . S
O463 In455 2.266 . S
O463 C460 1.252 . S
O464 In455 2.326 . S
O464 C460 1.260 . S
C465 O456 1.240 . S
C465 O457 1.252 . S
O466 In455 2.294 . S
O466 C459 1.240 . S
O467 In455 2.326 . S
O467 C459 1.252 . S
C468 C469 1.349 . S
C468 C470 1.327 . S
C468 H493 0.950 . S
C469 C468 1.349 . S
C469 C485 1.349 . S
C470 C468 1.327 . S
C470 C489 1.429 . S
C470 H494 0.950 . S
C471 C488 1.574 . S
C471 C490 1.368 . S
C471 H495 0.949 . S
H472 C476 0.933 1_554 S
C473 C474 1.349 . S
C473 C475 1.327 . S
C473 H496 0.950 . S
C474 C473 1.349 . S
C474 C486 1.349 . S
C475 C473 1.327 . S
C475 C491 1.429 . S
C475 H497 0.950 . S
C476 H472 0.933 1_556 S
C476 C484 1.574 . S
C476 C492 1.368 . S
H477 C485 0.950 . S
H478 C483 0.950 . S
H479 C484 0.949 . S
H480 C486 0.950 . S
H481 C487 0.950 . S
H482 C488 0.949 . S
C483 H478 0.950 . S
C483 C485 1.327 . S
C483 C489 1.429 . S
C484 C476 1.574 . S
C484 H479 0.949 . S
C484 C490 1.368 . S
C485 C469 1.349 . S
C485 H477 0.950 . S
C485 C483 1.327 . S
C486 C474 1.349 . S
C486 H480 0.950 . S
C486 C487 1.327 . S
C487 H481 0.950 . S
C487 C486 1.327 . S
C487 C491 1.429 . S
C488 C471 1.574 . S
C488 H482 0.949 . S
C488 C492 1.368 . S
C489 C470 1.429 . S
C489 C483 1.429 . S
C489 C490 1.523 . S
C490 C471 1.368 . S
C490 C484 1.368 . S
C490 C489 1.523 . S
C491 C475 1.429 . S
C491 C487 1.429 . S
C491 C492 1.523 1_554 S
C492 C476 1.368 . S
C492 C488 1.368 . S
C492 C491 1.523 1_556 S
H493 C468 0.950 . S
H494 C470 0.950 . S
H495 C471 0.949 . S
H496 C473 0.950 . S
H497 C475 0.950 . S
C498 C499 1.349 . S
C498 C500 1.327 . S
C498 H523 0.950 . S
C499 C498 1.349 . S
C499 C515 1.349 . S
C500 C498 1.327 . S
C500 C519 1.429 . S
C500 H524 0.950 . S
C501 C518 1.574 . S
C501 C520 1.368 . S
C501 H525 0.949 . S
H502 C506 0.949 . S
C503 C504 1.349 . S
C503 C505 1.327 . S
C503 H526 0.950 . S
C504 C503 1.349 . S
C504 C516 1.349 . S
C505 C503 1.327 . S
C505 C521 1.429 . S
C505 H527 0.950 . S
C506 H502 0.949 . S
C506 C514 1.574 . S
C506 C522 1.368 . S
H507 C515 0.950 . S
H508 C513 0.950 . S
H509 C514 0.949 . S
H510 C516 0.950 . S
H511 C517 0.950 . S
H512 C518 0.949 . S
C513 H508 0.950 . S
C513 C515 1.327 . S
C513 C519 1.429 . S
C514 C506 1.574 . S
C514 H509 0.949 . S
C514 C520 1.368 . S
C515 C499 1.349 . S
C515 H507 0.950 . S
C515 C513 1.327 . S
C516 C504 1.349 . S
C516 H510 0.950 . S
C516 C517 1.327 . S
C517 H511 0.950 . S
C517 C516 1.327 . S
C517 C521 1.429 . S
C518 C501 1.574 . S
C518 H512 0.949 . S
C518 C522 1.368 . S
C519 C500 1.429 . S
C519 C513 1.429 . S
C519 C520 1.523 . S
C520 C501 1.368 . S
C520 C514 1.368 . S
C520 C519 1.523 . S
C521 C505 1.429 . S
C521 C517 1.429 . S
C521 C522 1.523 1_554 S
C522 C506 1.368 . S
C522 C518 1.368 . S
C522 C521 1.523 1_556 S
H523 C498 0.950 . S
H524 C500 0.950 . S
H525 C501 0.949 . S
H526 C503 0.950 . S
H527 C505 0.950 . S
C528 C529 1.349 . S
C528 C530 1.327 . S
C528 H553 0.950 . S
C529 C528 1.349 . S
C529 C545 1.349 . S
C530 C528 1.327 . S
C530 C549 1.429 . S
C530 H554 0.950 . S
C531 C548 1.574 . S
C531 C550 1.368 . S
C531 H555 0.949 . S
H532 C536 0.949 . S
C533 C534 1.349 . S
C533 C535 1.327 . S
C533 H556 0.950 . S
C534 C533 1.349 . S
C534 C546 1.349 . S
C535 C533 1.327 . S
C535 C551 1.429 . S
C535 H557 0.950 . S
C536 H532 0.949 . S
C536 C544 1.574 . S
C536 C552 1.368 . S
H537 C545 0.950 . S
H538 C543 0.950 . S
H539 C544 0.949 . S
H540 C546 0.950 . S
H541 C547 0.950 . S
H542 C548 0.949 . S
C543 H538 0.950 . S
C543 C545 1.327 . S
C543 C549 1.429 . S
C544 C536 1.574 . S
C544 H539 0.949 . S
C544 C550 1.368 . S
C545 C529 1.349 . S
C545 H537 0.950 . S
C545 C543 1.327 . S
C546 C534 1.349 . S
C546 H540 0.950 . S
C546 C547 1.327 . S
C547 H541 0.950 . S
C547 C546 1.327 . S
C547 C551 1.429 . S
C548 C531 1.574 . S
C548 H542 0.949 . S
C548 C552 1.368 . S
C549 C530 1.429 . S
C549 C543 1.429 . S
C549 C550 1.523 1_554 S
C550 C531 1.368 . S
C550 C544 1.368 . S
C550 C549 1.523 1_556 S
C551 C535 1.429 . S
C551 C547 1.429 . S
C551 C552 1.523 . S
C552 C536 1.368 . S
C552 C548 1.368 . S
C552 C551 1.523 . S
H553 C528 0.950 . S
H554 C530 0.950 . S
H555 C531 0.949 . S
H556 C533 0.950 . S
H557 C535 0.950 . S
C558 C559 1.349 . S
C558 C560 1.327 . S
C558 H583 0.950 . S
C559 C558 1.349 . S
C559 C575 1.349 . S
C560 C558 1.327 . S
C560 C579 1.429 . S
C560 H584 0.950 . S
C561 C578 1.574 . S
C561 C580 1.368 . S
C561 H585 0.949 . S
H562 C566 0.949 . S
C563 C564 1.349 . S
C563 C565 1.327 . S
C563 H586 0.950 . S
C564 C563 1.349 . S
C564 C576 1.349 . S
C565 C563 1.327 . S
C565 C581 1.429 . S
C565 H587 0.950 . S
C566 H562 0.949 . S
C566 C574 1.574 . S
C566 C582 1.368 . S
H567 C575 0.950 . S
H568 C573 0.950 . S
H569 C574 0.949 . S
H570 C576 0.950 . S
H571 C577 0.950 . S
H572 C578 0.949 . S
C573 H568 0.950 . S
C573 C575 1.327 . S
C573 C579 1.429 . S
C574 C566 1.574 . S
C574 H569 0.949 . S
C574 C580 1.368 . S
C575 C559 1.349 . S
C575 H567 0.950 . S
C575 C573 1.327 . S
C576 C564 1.349 . S
C576 H570 0.950 . S
C576 C577 1.327 . S
C577 H571 0.950 . S
C577 C576 1.327 . S
C577 C581 1.429 . S
C578 C561 1.574 . S
C578 H572 0.949 . S
C578 C582 1.368 . S
C579 C560 1.429 . S
C579 C573 1.429 . S
C579 C580 1.523 . S
C580 C561 1.368 . S
C580 C574 1.368 . S
C580 C579 1.523 . S
C581 C565 1.429 . S
C581 C577 1.429 . S
C581 C582 1.523 . S
C582 C566 1.368 . S
C582 C578 1.368 . S
C582 C581 1.523 . S
H583 C558 0.950 . S
H584 C560 0.950 . S
H585 C561 0.949 . S
H586 C563 0.950 . S
H587 C565 0.950 . S
C588 C589 1.349 . S
C588 C590 1.327 . S
C588 H613 0.950 . S
C589 C588 1.349 . S
C589 C605 1.349 . S
C590 C588 1.327 . S
C590 C609 1.429 . S
C590 H614 0.950 . S
C591 C608 1.574 . S
C591 C610 1.368 . S
C591 H615 0.949 . S
H592 C596 0.949 . S
C593 C594 1.349 . S
C593 C595 1.327 . S
C593 H616 0.950 . S
C594 C593 1.349 . S
C594 C606 1.349 . S
C595 C593 1.327 . S
C595 C611 1.429 . S
C595 H617 0.950 . S
C596 H592 0.949 . S
C596 C604 1.574 . S
C596 C612 1.368 . S
H597 C605 0.950 . S
H598 C603 0.950 . S
H599 C604 0.949 . S
H600 C606 0.950 . S
H601 C607 0.950 . S
H602 C608 0.949 . S
C603 H598 0.950 . S
C603 C605 1.327 . S
C603 C609 1.429 . S
C604 C596 1.574 . S
C604 H599 0.949 . S
C604 C610 1.368 . S
C605 C589 1.349 . S
C605 H597 0.950 . S
C605 C603 1.327 . S
C606 C594 1.349 . S
C606 H600 0.950 . S
C606 C607 1.327 . S
C607 H601 0.950 . S
C607 C606 1.327 . S
C607 C611 1.429 . S
C608 C591 1.574 . S
C608 H602 0.949 . S
C608 C612 1.368 . S
C609 C590 1.429 . S
C609 C603 1.429 . S
C609 C610 1.523 . S
C610 C591 1.368 . S
C610 C604 1.368 . S
C610 C609 1.523 . S
C611 C595 1.429 . S
C611 C607 1.429 . S
C611 C612 1.523 . S
C612 C596 1.368 . S
C612 C608 1.368 . S
C612 C611 1.523 . S
H613 C588 0.950 . S
H614 C590 0.950 . S
H615 C591 0.949 . S
H616 C593 0.950 . S
H617 C595 0.950 . S
C618 C619 1.349 . S
C618 C620 1.327 . S
C618 H643 0.950 . S
C619 C618 1.349 . S
C619 C635 1.349 . S
C620 C618 1.327 . S
C620 C639 1.429 . S
C620 H644 0.950 . S
C621 C638 1.574 . S
C621 C640 1.368 . S
C621 H645 0.949 . S
H622 C626 0.949 . S
C623 C624 1.349 . S
C623 C625 1.327 . S
C623 H646 0.950 . S
C624 C623 1.349 . S
C624 C636 1.349 . S
C625 C623 1.327 . S
C625 C641 1.429 . S
C625 H647 0.950 . S
C626 H622 0.949 . S
C626 C634 1.574 . S
C626 C642 1.368 . S
H627 C635 0.950 . S
H628 C633 0.950 . S
H629 C634 0.949 . S
H630 C636 0.950 . S
H631 C637 0.950 . S
H632 C638 0.949 . S
C633 H628 0.950 . S
C633 C635 1.327 . S
C633 C639 1.429 . S
C634 C626 1.574 . S
C634 H629 0.949 . S
C634 C640 1.368 . S
C635 C619 1.349 . S
C635 H627 0.950 . S
C635 C633 1.327 . S
C636 C624 1.349 . S
C636 H630 0.950 . S
C636 C637 1.327 . S
C637 H631 0.950 . S
C637 C636 1.327 . S
C637 C641 1.429 . S
C638 C621 1.574 . S
C638 H632 0.949 . S
C638 C642 1.368 . S
C639 C620 1.429 . S
C639 C633 1.429 . S
C639 C640 1.523 . S
C640 C621 1.368 . S
C640 C634 1.368 . S
C640 C639 1.523 . S
C641 C625 1.429 . S
C641 C637 1.429 . S
C641 C642 1.523 . S
C642 C626 1.368 . S
C642 C638 1.368 . S
C642 C641 1.523 . S
H643 C618 0.950 . S
H644 C620 0.950 . S
H645 C621 0.949 . S
H646 C623 0.950 . S
H647 C625 0.950 . S
C648 C649 1.349 . S
C648 C650 1.327 . S
C648 H673 0.950 . S
C649 C648 1.349 . S
C649 C665 1.349 . S
C650 C648 1.327 . S
C650 C669 1.429 . S
C650 H674 0.950 . S
C651 C668 1.574 . S
C651 C670 1.368 . S
C651 H675 0.949 . S
H652 C656 0.949 . S
C653 C654 1.349 . S
C653 C655 1.327 . S
C653 H676 0.950 . S
C654 C653 1.349 . S
C654 C666 1.349 . S
C655 C653 1.327 . S
C655 C671 1.429 . S
C655 H677 0.950 . S
C656 H652 0.949 . S
C656 C664 1.574 . S
C656 C672 1.368 . S
H657 C665 0.950 . S
H658 C663 0.950 . S
H659 C664 0.949 . S
H660 C666 0.950 . S
H661 C667 0.950 . S
H662 C668 0.949 . S
C663 H658 0.950 . S
C663 C665 1.327 . S
C663 C669 1.429 . S
C664 C656 1.574 . S
C664 H659 0.949 . S
C664 C670 1.368 . S
C665 C649 1.349 . S
C665 H657 0.950 . S
C665 C663 1.327 . S
C666 C654 1.349 . S
C666 H660 0.950 . S
C666 C667 1.327 . S
C667 H661 0.950 . S
C667 C666 1.327 . S
C667 C671 1.429 . S
C668 C651 1.574 . S
C668 H662 0.949 . S
C668 C672 1.368 . S
C669 C650 1.429 . S
C669 C663 1.429 . S
C669 C670 1.523 . S
C670 C651 1.368 . S
C670 C664 1.368 . S
C670 C669 1.523 . S
C671 C655 1.429 . S
C671 C667 1.429 . S
C671 C672 1.523 1_556 S
C672 C656 1.368 . S
C672 C668 1.368 . S
C672 C671 1.523 1_554 S
H673 C648 0.950 . S
H674 C650 0.950 . S
H675 C651 0.949 . S
H676 C653 0.950 . S
H677 C655 0.950 . S
C678 C679 1.349 . S
C678 C680 1.327 . S
C678 H703 0.950 . S
C679 C678 1.349 . S
C679 C695 1.349 . S
C680 C678 1.327 . S
C680 C699 1.429 . S
C680 H704 0.950 . S
C681 C698 1.574 . S
C681 C700 1.368 . S
C681 H705 0.949 . S
H682 C686 0.940 1_556 S
C683 C684 1.349 . S
C683 C685 1.327 . S
C683 H706 0.950 . S
C684 C683 1.349 . S
C684 C696 1.349 . S
C685 C683 1.327 . S
C685 C701 1.429 . S
C685 H707 0.950 . S
C686 H682 0.940 1_554 S
C686 C694 1.574 . S
C686 C702 1.368 . S
H687 C695 0.950 . S
H688 C693 0.950 . S
H689 C694 0.949 . S
H690 C696 0.950 . S
H691 C697 0.950 . S
H692 C698 0.949 . S
C693 H688 0.950 . S
C693 C695 1.327 . S
C693 C699 1.429 . S
C694 C686 1.574 . S
C694 H689 0.949 . S
C694 C700 1.368 . S
C695 C679 1.349 . S
C695 H687 0.950 . S
C695 C693 1.327 . S
C696 C684 1.349 . S
C696 H690 0.950 . S
C696 C697 1.327 . S
C697 H691 0.950 . S
C697 C696 1.327 . S
C697 C701 1.429 . S
C698 C681 1.574 . S
C698 H692 0.949 . S
C698 C702 1.368 . S
C699 C680 1.429 . S
C699 C693 1.429 . S
C699 C700 1.523 . S
C700 C681 1.368 . S
C700 C694 1.368 . S
C700 C699 1.523 . S
C701 C685 1.429 . S
C701 C697 1.429 . S
C701 C702 1.523 1_556 S
C702 C686 1.368 . S
C702 C698 1.368 . S
C702 C701 1.523 1_554 S
H703 C678 0.950 . S
H704 C680 0.950 . S
H705 C681 0.949 . S
H706 C683 0.950 . S
H707 C685 0.950 . S
C708 C709 1.349 . S
C708 C710 1.327 . S
C708 H733 0.950 . S
C709 C708 1.349 . S
C709 C725 1.349 . S
C710 C708 1.327 . S
C710 C729 1.429 . S
C710 H734 0.950 . S
C711 C728 1.574 . S
C711 C730 1.368 . S
C711 H735 0.949 . S
H712 C716 0.949 . S
C713 C714 1.349 . S
C713 C715 1.327 . S
C713 H736 0.950 . S
C714 C713 1.349 . S
C714 C726 1.349 . S
C715 C713 1.327 . S
C715 C731 1.429 . S
C715 H737 0.950 . S
C716 H712 0.949 . S
C716 C724 1.574 . S
C716 C732 1.368 . S
H717 C725 0.950 . S
H718 C723 0.950 . S
H719 C724 0.949 . S
H720 C726 0.950 . S
H721 C727 0.950 . S
H722 C728 0.949 . S
C723 H718 0.950 . S
C723 C725 1.327 . S
C723 C729 1.429 . S
C724 C716 1.574 . S
C724 H719 0.949 . S
C724 C730 1.368 . S
C725 C709 1.349 . S
C725 H717 0.950 . S
C725 C723 1.327 . S
C726 C714 1.349 . S
C726 H720 0.950 . S
C726 C727 1.327 . S
C727 H721 0.950 . S
C727 C726 1.327 . S
C727 C731 1.429 . S
C728 C711 1.574 . S
C728 H722 0.949 . S
C728 C732 1.368 . S
C729 C710 1.429 . S
C729 C723 1.429 . S
C729 C730 1.523 1_556 S
C730 C711 1.368 . S
C730 C724 1.368 . S
C730 C729 1.523 1_554 S
C731 C715 1.429 . S
C731 C727 1.429 . S
C731 C732 1.523 . S
C732 C716 1.368 . S
C732 C728 1.368 . S
C732 C731 1.523 . S
H733 C708 0.950 . S
H734 C710 0.950 . S
H735 C711 0.949 . S
H736 C713 0.950 . S
H737 C715 0.950 . S
C738 C739 1.349 . S
C738 C740 1.327 . S
C738 H763 0.950 . S
C739 C738 1.349 . S
C739 C755 1.349 . S
C740 C738 1.327 . S
C740 C759 1.429 . S
C740 H764 0.950 . S
C741 C758 1.574 . S
C741 C760 1.368 . S
C741 H765 0.949 . S
H742 C746 0.949 . S
C743 C744 1.349 . S
C743 C745 1.327 . S
C743 H766 0.950 . S
C744 C743 1.349 . S
C744 C756 1.349 . S
C745 C743 1.327 . S
C745 C761 1.429 . S
C745 H767 0.950 . S
C746 H742 0.949 . S
C746 C754 1.574 . S
C746 C762 1.368 . S
H747 C755 0.950 . S
H748 C753 0.950 . S
H749 C754 0.949 . S
H750 C756 0.950 . S
H751 C757 0.950 . S
H752 C758 0.949 . S
C753 H748 0.950 . S
C753 C755 1.327 . S
C753 C759 1.429 . S
C754 C746 1.574 . S
C754 H749 0.949 . S
C754 C760 1.368 . S
C755 C739 1.349 . S
C755 H747 0.950 . S
C755 C753 1.327 . S
C756 C744 1.349 . S
C756 H750 0.950 . S
C756 C757 1.327 . S
C757 H751 0.950 . S
C757 C756 1.327 . S
C757 C761 1.429 . S
C758 C741 1.574 . S
C758 H752 0.949 . S
C758 C762 1.368 . S
C759 C740 1.429 . S
C759 C753 1.429 . S
C759 C760 1.523 . S
C760 C741 1.368 . S
C760 C754 1.368 . S
C760 C759 1.523 . S
C761 C745 1.429 . S
C761 C757 1.429 . S
C761 C762 1.523 . S
C762 C746 1.368 . S
C762 C758 1.368 . S
C762 C761 1.523 . S
H763 C738 0.950 . S
H764 C740 0.950 . S
H765 C741 0.949 . S
H766 C743 0.950 . S
H767 C745 0.950 . S
C768 C769 1.349 . S
C768 C770 1.327 . S
C768 H793 0.950 . S
C769 C768 1.349 . S
C769 C785 1.349 . S
C770 C768 1.327 . S
C770 C789 1.429 . S
C770 H794 0.950 . S
C771 C788 1.574 . S
C771 C790 1.368 . S
C771 H795 0.949 . S
H772 C776 0.949 . S
C773 C774 1.349 . S
C773 C775 1.327 . S
C773 H796 0.950 . S
C774 C773 1.349 . S
C774 C786 1.349 . S
C775 C773 1.327 . S
C775 C791 1.429 . S
C775 H797 0.950 . S
C776 H772 0.949 . S
C776 C784 1.574 . S
C776 C792 1.368 . S
H777 C785 0.950 . S
H778 C783 0.950 . S
H779 C784 0.949 . S
H780 C786 0.950 . S
H781 C787 0.950 . S
H782 C788 0.949 . S
C783 H778 0.950 . S
C783 C785 1.327 . S
C783 C789 1.429 . S
C784 C776 1.574 . S
C784 H779 0.949 . S
C784 C790 1.368 . S
C785 C769 1.349 . S
C785 H777 0.950 . S
C785 C783 1.327 . S
C786 C774 1.349 . S
C786 H780 0.950 . S
C786 C787 1.327 . S
C787 H781 0.950 . S
C787 C786 1.327 . S
C787 C791 1.429 . S
C788 C771 1.574 . S
C788 H782 0.949 . S
C788 C792 1.368 . S
C789 C770 1.429 . S
C789 C783 1.429 . S
C789 C790 1.523 . S
C790 C771 1.368 . S
C790 C784 1.368 . S
C790 C789 1.523 . S
C791 C775 1.429 . S
C791 C787 1.429 . S
C791 C792 1.523 . S
C792 C776 1.368 . S
C792 C788 1.368 . S
C792 C791 1.523 . S
H793 C768 0.950 . S
H794 C770 0.950 . S
H795 C771 0.949 . S
H796 C773 0.950 . S
H797 C775 0.950 . S
C798 C799 1.349 . S
C798 C800 1.327 . S
C798 H823 0.950 . S
C799 C798 1.349 . S
C799 C815 1.349 . S
C800 C798 1.327 . S
C800 C819 1.429 . S
C800 H824 0.950 . S
C801 C818 1.574 . S
C801 C820 1.368 . S
C801 H825 0.949 . S
H802 C806 0.949 . S
C803 C804 1.349 . S
C803 C805 1.327 . S
C803 H826 0.950 . S
C804 C803 1.349 . S
C804 C816 1.349 . S
C805 C803 1.327 . S
C805 C821 1.429 . S
C805 H827 0.950 . S
C806 H802 0.949 . S
C806 C814 1.574 . S
C806 C822 1.368 . S
H807 C815 0.950 . S
H808 C813 0.950 . S
H809 C814 0.949 . S
H810 C816 0.950 . S
H811 C817 0.950 . S
H812 C818 0.949 . S
C813 H808 0.950 . S
C813 C815 1.327 . S
C813 C819 1.429 . S
C814 C806 1.574 . S
C814 H809 0.949 . S
C814 C820 1.368 . S
C815 C799 1.349 . S
C815 H807 0.950 . S
C815 C813 1.327 . S
C816 C804 1.349 . S
C816 H810 0.950 . S
C816 C817 1.327 . S
C817 H811 0.950 . S
C817 C816 1.327 . S
C817 C821 1.429 . S
C818 C801 1.574 . S
C818 H812 0.949 . S
C818 C822 1.368 . S
C819 C800 1.429 . S
C819 C813 1.429 . S
C819 C820 1.523 . S
C820 C801 1.368 . S
C820 C814 1.368 . S
C820 C819 1.523 . S
C821 C805 1.429 . S
C821 C817 1.429 . S
C821 C822 1.523 . S
C822 C806 1.368 . S
C822 C818 1.368 . S
C822 C821 1.523 . S
H823 C798 0.950 . S
H824 C800 0.950 . S
H825 C801 0.949 . S
H826 C803 0.950 . S
H827 C805 0.950 . S
C828 C829 1.349 . S
C828 C830 1.327 . S
C828 H853 0.950 . S
C829 C828 1.349 . S
C829 C845 1.349 . S
C830 C828 1.327 . S
C830 C849 1.429 . S
C830 H854 0.950 . S
C831 C848 1.574 . S
C831 C850 1.368 . S
C831 H855 0.949 . S
H832 C836 0.949 . S
C833 C834 1.349 . S
C833 C835 1.327 . S
C833 H856 0.950 . S
C834 C833 1.349 . S
C834 C846 1.349 . S
C835 C833 1.327 . S
C835 C851 1.429 . S
C835 H857 0.950 . S
C836 H832 0.949 . S
C836 C844 1.574 . S
C836 C852 1.368 . S
H837 C845 0.950 . S
H838 C843 0.950 . S
H839 C844 0.949 . S
H840 C846 0.950 . S
H841 C847 0.950 . S
H842 C848 0.949 . S
C843 H838 0.950 . S
C843 C845 1.327 . S
C843 C849 1.429 . S
C844 C836 1.574 . S
C844 H839 0.949 . S
C844 C850 1.368 . S
C845 C829 1.349 . S
C845 H837 0.950 . S
C845 C843 1.327 . S
C846 C834 1.349 . S
C846 H840 0.950 . S
C846 C847 1.327 . S
C847 H841 0.950 . S
C847 C846 1.327 . S
C847 C851 1.429 . S
C848 C831 1.574 . S
C848 H842 0.949 . S
C848 C852 1.368 . S
C849 C830 1.429 . S
C849 C843 1.429 . S
C849 C850 1.523 . S
C850 C831 1.368 . S
C850 C844 1.368 . S
C850 C849 1.523 . S
C851 C835 1.429 . S
C851 C847 1.429 . S
C851 C852 1.523 . S
C852 C836 1.368 . S
C852 C848 1.368 . S
C852 C851 1.523 . S
H853 C828 0.950 . S
H854 C830 0.950 . S
H855 C831 0.949 . S
H856 C833 0.950 . S
H857 C835 0.950 . S
C858 C859 1.349 . S
C858 C860 1.327 . S
C858 H883 0.950 . S
C859 C858 1.349 . S
C859 C875 1.349 . S
C860 C858 1.327 . S
C860 C879 1.429 . S
C860 H884 0.950 . S
C861 C878 1.574 . S
C861 C880 1.368 . S
C861 H885 0.949 . S
H862 C866 0.949 . S
C863 C864 1.349 . S
C863 C865 1.327 . S
C863 H886 0.950 . S
C864 C863 1.349 . S
C864 C876 1.349 . S
C865 C863 1.327 . S
C865 C881 1.429 . S
C865 H887 0.950 . S
C866 H862 0.949 . S
C866 C874 1.574 . S
C866 C882 1.368 . S
H867 C875 0.950 . S
H868 C873 0.950 . S
H869 C874 0.949 . S
H870 C876 0.950 . S
H871 C877 0.950 . S
H872 C878 0.949 . S
C873 H868 0.950 . S
C873 C875 1.327 . S
C873 C879 1.429 . S
C874 C866 1.574 . S
C874 H869 0.949 . S
C874 C880 1.368 . S
C875 C859 1.349 . S
C875 H867 0.950 . S
C875 C873 1.327 . S
C876 C864 1.349 . S
C876 H870 0.950 . S
C876 C877 1.327 . S
C877 H871 0.950 . S
C877 C876 1.327 . S
C877 C881 1.429 . S
C878 C861 1.574 . S
C878 H872 0.949 . S
C878 C882 1.368 . S
C879 C860 1.429 . S
C879 C873 1.429 . S
C879 C880 1.523 . S
C880 C861 1.368 . S
C880 C874 1.368 . S
C880 C879 1.523 . S
C881 C865 1.429 . S
C881 C877 1.429 . S
C881 C882 1.523 . S
C882 C866 1.368 . S
C882 C878 1.368 . S
C882 C881 1.523 . S
H883 C858 0.950 . S
H884 C860 0.950 . S
H885 C861 0.949 . S
H886 C863 0.950 . S
H887 C865 0.950 . S
C888 C889 1.349 . S
C888 C890 1.327 . S
C888 H913 0.950 . S
C889 C888 1.349 . S
C889 C905 1.349 . S
C890 C888 1.327 . S
C890 C909 1.429 . S
C890 H914 0.950 . S
C891 C908 1.574 . S
C891 C910 1.368 . S
C891 H915 0.949 . S
H892 C896 0.949 . S
C893 C894 1.349 . S
C893 C895 1.327 . S
C893 H916 0.950 . S
C894 C893 1.349 . S
C894 C906 1.349 . S
C895 C893 1.327 . S
C895 C911 1.429 . S
C895 H917 0.950 . S
C896 H892 0.949 . S
C896 C904 1.574 . S
C896 C912 1.368 . S
H897 C905 0.950 . S
H898 C903 0.950 . S
H899 C904 0.949 . S
H900 C906 0.950 . S
H901 C907 0.950 . S
H902 C908 0.949 . S
C903 H898 0.950 . S
C903 C905 1.327 . S
C903 C909 1.429 . S
C904 C896 1.574 . S
C904 H899 0.949 . S
C904 C910 1.368 . S
C905 C889 1.349 . S
C905 H897 0.950 . S
C905 C903 1.327 . S
C906 C894 1.349 . S
C906 H900 0.950 . S
C906 C907 1.327 . S
C907 H901 0.950 . S
C907 C906 1.327 . S
C907 C911 1.429 . S
C908 C891 1.574 . S
C908 H902 0.949 . S
C908 C912 1.368 . S
C909 C890 1.429 . S
C909 C903 1.429 . S
C909 C910 1.523 . S
C910 C891 1.368 . S
C910 C904 1.368 . S
C910 C909 1.523 . S
C911 C895 1.429 . S
C911 C907 1.429 . S
C911 C912 1.523 . S
C912 C896 1.368 . S
C912 C908 1.368 . S
C912 C911 1.523 . S
H913 C888 0.950 . S
H914 C890 0.950 . S
H915 C891 0.949 . S
H916 C893 0.950 . S
H917 C895 0.950 . S
C918 C919 1.349 . S
C918 C920 1.327 . S
C918 H943 0.950 . S
C919 C918 1.349 . S
C919 C935 1.349 . S
C920 C918 1.327 . S
C920 C939 1.429 . S
C920 H944 0.950 . S
C921 C938 1.574 . S
C921 C940 1.368 . S
C921 H945 0.949 . S
H922 C926 0.949 . S
C923 C924 1.349 . S
C923 C925 1.327 1_554 S
C923 H946 0.950 . S
C924 C923 1.349 . S
C924 C936 1.349 . S
C925 C923 1.327 1_556 S
C925 C941 1.429 . S
C925 H947 0.950 . S
C926 H922 0.949 . S
C926 C934 1.574 . S
C926 C942 1.368 . S
H927 C935 0.950 . S
H928 C933 0.950 . S
H929 C934 0.949 . S
H930 C936 0.950 . S
H931 C937 0.950 . S
H932 C938 0.949 . S
C933 H928 0.950 . S
C933 C935 1.327 . S
C933 C939 1.429 . S
C934 C926 1.574 . S
C934 H929 0.949 . S
C934 C940 1.368 . S
C935 C919 1.349 . S
C935 H927 0.950 . S
C935 C933 1.327 . S
C936 C924 1.349 . S
C936 H930 0.950 . S
C936 C937 1.327 1_554 S
C937 H931 0.950 . S
C937 C936 1.327 1_556 S
C937 C941 1.429 . S
C938 C921 1.574 . S
C938 H932 0.949 . S
C938 C942 1.368 . S
C939 C920 1.429 . S
C939 C933 1.429 . S
C939 C940 1.523 . S
C940 C921 1.368 . S
C940 C934 1.368 . S
C940 C939 1.523 . S
C941 C925 1.429 . S
C941 C937 1.429 . S
C941 C942 1.523 . S
C942 C926 1.368 . S
C942 C938 1.368 . S
C942 C941 1.523 . S
H943 C918 0.950 . S
H944 C920 0.950 . S
H945 C921 0.949 . S
H946 C923 0.950 . S
H947 C925 0.950 . S
C948 C949 1.349 . S
C948 C950 1.327 . S
C948 H973 0.950 . S
C949 C948 1.349 . S
C949 C965 1.349 . S
C950 C948 1.327 . S
C950 C969 1.429 . S
C950 H974 0.950 . S
C951 C968 1.574 . S
C951 C970 1.368 . S
C951 H975 0.949 . S
H952 C956 0.949 . S
C953 C954 1.349 . S
C953 C955 1.327 1_554 S
C953 H976 0.950 . S
C954 C953 1.349 . S
C954 C966 1.349 . S
C955 C953 1.327 1_556 S
C955 C971 1.429 . S
C955 H977 0.950 . S
C956 H952 0.949 . S
C956 C964 1.574 . S
C956 C972 1.368 . S
H957 C965 0.950 . S
H958 C963 0.950 . S
H959 C964 0.949 . S
H960 C966 0.950 . S
H961 C967 0.950 . S
H962 C968 0.949 . S
C963 H958 0.950 . S
C963 C965 1.327 . S
C963 C969 1.429 . S
C964 C956 1.574 . S
C964 H959 0.949 . S
C964 C970 1.368 . S
C965 C949 1.349 . S
C965 H957 0.950 . S
C965 C963 1.327 . S
C966 C954 1.349 . S
C966 H960 0.950 . S
C966 C967 1.327 1_554 S
C967 H961 0.950 . S
C967 C966 1.327 1_556 S
C967 C971 1.429 . S
C968 C951 1.574 . S
C968 H962 0.949 . S
C968 C972 1.368 . S
C969 C950 1.429 . S
C969 C963 1.429 . S
C969 C970 1.523 . S
C970 C951 1.368 . S
C970 C964 1.368 . S
C970 C969 1.523 . S
C971 C955 1.429 . S
C971 C967 1.429 . S
C971 C972 1.523 . S
C972 C956 1.368 . S
C972 C968 1.368 . S
C972 C971 1.523 . S
H973 C948 0.950 . S
H974 C950 0.950 . S
H975 C951 0.949 . S
H976 C953 0.950 . S
H977 C955 0.950 . S
C978 C979 1.349 . S
C978 C980 1.327 . S
C978 H1003 0.950 . S
C979 C978 1.349 . S
C979 C995 1.349 . S
C980 C978 1.327 . S
C980 C999 1.429 . S
C980 H1004 0.950 . S
C981 C998 1.574 . S
C981 C1000 1.368 . S
C981 H1005 0.949 . S
H982 C986 0.949 . S
C983 C984 1.349 . S
C983 C985 1.327 1_554 S
C983 H1006 0.950 . S
C984 C983 1.349 . S
C984 C996 1.349 . S
C985 C983 1.327 1_556 S
C985 C1001 1.429 . S
C985 H1007 0.950 . S
C986 H982 0.949 . S
C986 C994 1.574 . S
C986 C1002 1.368 . S
H987 C995 0.950 . S
H988 C993 0.950 . S
H989 C994 0.949 . S
H990 C996 0.950 . S
H991 C997 0.950 . S
H992 C998 0.949 . S
C993 H988 0.950 . S
C993 C995 1.327 . S
C993 C999 1.429 . S
C994 C986 1.574 . S
C994 H989 0.949 . S
C994 C1000 1.368 . S
C995 C979 1.349 . S
C995 H987 0.950 . S
C995 C993 1.327 . S
C996 C984 1.349 . S
C996 H990 0.950 . S
C996 C997 1.327 1_554 S
C997 H991 0.950 . S
C997 C996 1.327 1_556 S
C997 C1001 1.429 . S
C998 C981 1.574 . S
C998 H992 0.949 . S
C998 C1002 1.368 . S
C999 C980 1.429 . S
C999 C993 1.429 . S
C999 C1000 1.523 . S
C1000 C981 1.368 . S
C1000 C994 1.368 . S
C1000 C999 1.523 . S
C1001 C985 1.429 . S
C1001 C997 1.429 . S
C1001 C1002 1.523 . S
C1002 C986 1.368 . S
C1002 C998 1.368 . S
C1002 C1001 1.523 . S
H1003 C978 0.950 . S
H1004 C980 0.950 . S
H1005 C981 0.949 . S
H1006 C983 0.950 . S
H1007 C985 0.950 . S
C1008 C1009 1.349 . S
C1008 C1010 1.327 . S
C1008 H1033 0.950 . S
C1009 C1008 1.349 . S
C1009 C1025 1.349 . S
C1010 C1008 1.327 . S
C1010 C1029 1.429 . S
C1010 H1034 0.950 . S
C1011 C1028 1.574 . S
C1011 C1030 1.368 . S
C1011 H1035 0.949 . S
H1012 C1016 0.949 . S
C1013 C1014 1.349 . S
C1013 C1015 1.327 . S
C1013 H1036 0.950 . S
C1014 C1013 1.349 . S
C1014 C1026 1.349 . S
C1015 C1013 1.327 . S
C1015 C1031 1.429 . S
C1015 H1037 0.950 . S
C1016 H1012 0.949 . S
C1016 C1024 1.574 . S
C1016 C1032 1.368 . S
H1017 C1025 0.950 . S
H1018 C1023 0.950 . S
H1019 C1024 0.949 . S
H1020 C1026 0.950 . S
H1021 C1027 0.950 . S
H1022 C1028 0.949 . S
C1023 H1018 0.950 . S
C1023 C1025 1.327 . S
C1023 C1029 1.429 . S
C1024 C1016 1.574 . S
C1024 H1019 0.949 . S
C1024 C1030 1.368 . S
C1025 C1009 1.349 . S
C1025 H1017 0.950 . S
C1025 C1023 1.327 . S
C1026 C1014 1.349 . S
C1026 H1020 0.950 . S
C1026 C1027 1.327 . S
C1027 H1021 0.950 . S
C1027 C1026 1.327 . S
C1027 C1031 1.429 . S
C1028 C1011 1.574 . S
C1028 H1022 0.949 . S
C1028 C1032 1.368 . S
C1029 C1010 1.429 . S
C1029 C1023 1.429 . S
C1029 C1030 1.523 . S
C1030 C1011 1.368 . S
C1030 C1024 1.368 . S
C1030 C1029 1.523 . S
C1031 C1015 1.429 . S
C1031 C1027 1.429 . S
C1031 C1032 1.523 . S
C1032 C1016 1.368 . S
C1032 C1028 1.368 . S
C1032 C1031 1.523 . S
H1033 C1008 0.950 . S
H1034 C1010 0.950 . S
H1035 C1011 0.949 . S
H1036 C1013 0.950 . S
H1037 C1015 0.950 . S
C1038 C1039 1.349 . S
C1038 C1040 1.327 . S
C1038 H1063 0.950 . S
C1039 C1038 1.349 . S
C1039 C1055 1.349 . S
C1040 C1038 1.327 . S
C1040 C1059 1.429 . S
C1040 H1064 0.950 . S
C1041 C1058 1.574 . S
C1041 C1060 1.368 . S
C1041 H1065 0.949 . S
H1042 C1046 0.949 . S
C1043 C1044 1.349 . S
C1043 C1045 1.327 . S
C1043 H1066 0.950 . S
C1044 C1043 1.349 . S
C1044 C1056 1.349 . S
C1045 C1043 1.327 . S
C1045 C1061 1.429 . S
C1045 H1067 0.950 . S
C1046 H1042 0.949 . S
C1046 C1054 1.574 . S
C1046 C1062 1.368 . S
H1047 C1055 0.950 . S
H1048 C1053 0.950 . S
H1049 C1054 0.949 . S
H1050 C1056 0.950 . S
H1051 C1057 0.950 . S
H1052 C1058 0.949 . S
C1053 H1048 0.950 . S
C1053 C1055 1.327 . S
C1053 C1059 1.429 . S
C1054 C1046 1.574 . S
C1054 H1049 0.949 . S
C1054 C1060 1.368 . S
C1055 C1039 1.349 . S
C1055 H1047 0.950 . S
C1055 C1053 1.327 . S
C1056 C1044 1.349 . S
C1056 H1050 0.950 . S
C1056 C1057 1.327 . S
C1057 H1051 0.950 . S
C1057 C1056 1.327 . S
C1057 C1061 1.429 . S
C1058 C1041 1.574 . S
C1058 H1052 0.949 . S
C1058 C1062 1.368 . S
C1059 C1040 1.429 . S
C1059 C1053 1.429 . S
C1059 C1060 1.523 . S
C1060 C1041 1.368 . S
C1060 C1054 1.368 . S
C1060 C1059 1.523 . S
C1061 C1045 1.429 . S
C1061 C1057 1.429 . S
C1061 C1062 1.523 . S
C1062 C1046 1.368 . S
C1062 C1058 1.368 . S
C1062 C1061 1.523 . S
H1063 C1038 0.950 . S
H1064 C1040 0.950 . S
H1065 C1041 0.949 . S
H1066 C1043 0.950 . S
H1067 C1045 0.950 . S
C1068 C1069 1.349 . S
C1068 C1070 1.327 . S
C1068 H1093 0.950 . S
C1069 C1068 1.349 . S
C1069 C1085 1.349 . S
C1070 C1068 1.327 . S
C1070 C1089 1.429 . S
C1070 H1094 0.950 . S
C1071 C1088 1.574 . S
C1071 C1090 1.368 . S
C1071 H1095 0.949 . S
H1072 C1076 0.949 . S
C1073 C1074 1.349 . S
C1073 C1075 1.327 . S
C1073 H1096 0.950 . S
C1074 C1073 1.349 . S
C1074 C1086 1.349 . S
C1075 C1073 1.327 . S
C1075 C1091 1.429 . S
C1075 H1097 0.950 . S
C1076 H1072 0.949 . S
C1076 C1084 1.574 . S
C1076 C1092 1.368 . S
H1077 C1085 0.950 . S
H1078 C1083 0.950 . S
H1079 C1084 0.949 . S
H1080 C1086 0.950 . S
H1081 C1087 0.950 . S
H1082 C1088 0.949 . S
C1083 H1078 0.950 . S
C1083 C1085 1.327 . S
C1083 C1089 1.429 . S
C1084 C1076 1.574 . S
C1084 H1079 0.949 . S
C1084 C1090 1.368 . S
C1085 C1069 1.349 . S
C1085 H1077 0.950 . S
C1085 C1083 1.327 . S
C1086 C1074 1.349 . S
C1086 H1080 0.950 . S
C1086 C1087 1.327 . S
C1087 H1081 0.950 . S
C1087 C1086 1.327 . S
C1087 C1091 1.429 . S
C1088 C1071 1.574 . S
C1088 H1082 0.949 . S
C1088 C1092 1.368 . S
C1089 C1070 1.429 . S
C1089 C1083 1.429 . S
C1089 C1090 1.523 . S
C1090 C1071 1.368 . S
C1090 C1084 1.368 . S
C1090 C1089 1.523 . S
C1091 C1075 1.429 . S
C1091 C1087 1.429 . S
C1091 C1092 1.523 . S
C1092 C1076 1.368 . S
C1092 C1088 1.368 . S
C1092 C1091 1.523 . S
H1093 C1068 0.950 . S
H1094 C1070 0.950 . S
H1095 C1071 0.949 . S
H1096 C1073 0.950 . S
H1097 C1075 0.950 . S
C1098 C1099 1.349 . S
C1098 C1100 1.327 . S
C1098 H1123 0.950 . S
C1099 C1098 1.349 . S
C1099 C1115 1.349 . S
C1100 C1098 1.327 . S
C1100 C1119 1.429 . S
C1100 H1124 0.950 . S
C1101 C1118 1.574 . S
C1101 C1120 1.368 . S
C1101 H1125 0.949 . S
H1102 C1106 0.949 . S
C1103 C1104 1.349 . S
C1103 C1105 1.327 . S
C1103 H1126 0.950 . S
C1104 C1103 1.349 . S
C1104 C1116 1.349 . S
C1105 C1103 1.327 . S
C1105 C1121 1.429 . S
C1105 H1127 0.950 . S
C1106 H1102 0.949 . S
C1106 C1114 1.574 . S
C1106 C1122 1.368 . S
H1107 C1115 0.950 . S
H1108 C1113 0.950 . S
H1109 C1114 0.949 . S
H1110 C1116 0.950 . S
H1111 C1117 0.950 . S
H1112 C1118 0.949 . S
C1113 H1108 0.950 . S
C1113 C1115 1.327 . S
C1113 C1119 1.429 . S
C1114 C1106 1.574 . S
C1114 H1109 0.949 . S
C1114 C1120 1.368 . S
C1115 C1099 1.349 . S
C1115 H1107 0.950 . S
C1115 C1113 1.327 . S
C1116 C1104 1.349 . S
C1116 H1110 0.950 . S
C1116 C1117 1.327 . S
C1117 H1111 0.950 . S
C1117 C1116 1.327 . S
C1117 C1121 1.429 . S
C1118 C1101 1.574 . S
C1118 H1112 0.949 . S
C1118 C1122 1.368 . S
C1119 C1100 1.429 . S
C1119 C1113 1.429 . S
C1119 C1120 1.523 . S
C1120 C1101 1.368 . S
C1120 C1114 1.368 . S
C1120 C1119 1.523 . S
C1121 C1105 1.429 . S
C1121 C1117 1.429 . S
C1121 C1122 1.523 . S
C1122 C1106 1.368 . S
C1122 C1118 1.368 . S
C1122 C1121 1.523 . S
H1123 C1098 0.950 . S
H1124 C1100 0.950 . S
H1125 C1101 0.949 . S
H1126 C1103 0.950 . S
H1127 C1105 0.950 . S
C1128 C1129 1.349 . S
C1128 C1130 1.327 . S
C1128 H1153 0.950 . S
C1129 C1128 1.349 . S
C1129 C1145 1.349 . S
C1130 C1128 1.327 . S
C1130 C1149 1.429 . S
C1130 H1154 0.950 . S
C1131 C1148 1.574 . S
C1131 C1150 1.368 . S
C1131 H1155 0.949 . S
H1132 C1136 0.949 . S
C1133 C1134 1.349 . S
C1133 C1135 1.327 . S
C1133 H1156 0.950 . S
C1134 C1133 1.349 . S
C1134 C1146 1.349 . S
C1135 C1133 1.327 . S
C1135 C1151 1.429 . S
C1135 H1157 0.950 . S
C1136 H1132 0.949 . S
C1136 C1144 1.574 . S
C1136 C1152 1.368 . S
H1137 C1145 0.950 . S
H1138 C1143 0.950 . S
H1139 C1144 0.949 . S
H1140 C1146 0.950 . S
H1141 C1147 0.950 . S
H1142 C1148 0.949 . S
C1143 H1138 0.950 . S
C1143 C1145 1.327 . S
C1143 C1149 1.429 . S
C1144 C1136 1.574 . S
C1144 H1139 0.949 . S
C1144 C1150 1.368 . S
C1145 C1129 1.349 . S
C1145 H1137 0.950 . S
C1145 C1143 1.327 . S
C1146 C1134 1.349 . S
C1146 H1140 0.950 . S
C1146 C1147 1.327 . S
C1147 H1141 0.950 . S
C1147 C1146 1.327 . S
C1147 C1151 1.429 . S
C1148 C1131 1.574 . S
C1148 H1142 0.949 . S
C1148 C1152 1.368 . S
C1149 C1130 1.429 . S
C1149 C1143 1.429 . S
C1149 C1150 1.523 . S
C1150 C1131 1.368 . S
C1150 C1144 1.368 . S
C1150 C1149 1.523 . S
C1151 C1135 1.429 . S
C1151 C1147 1.429 . S
C1151 C1152 1.523 . S
C1152 C1136 1.368 . S
C1152 C1148 1.368 . S
C1152 C1151 1.523 . S
H1153 C1128 0.950 . S
H1154 C1130 0.950 . S
H1155 C1131 0.949 . S
H1156 C1133 0.950 . S
H1157 C1135 0.950 . S
C1158 C1159 1.349 . S
C1158 C1160 1.327 . S
C1158 H1183 0.950 . S
C1159 C1158 1.349 . S
C1159 C1175 1.349 . S
C1160 C1158 1.327 . S
C1160 C1179 1.429 . S
C1160 H1184 0.950 . S
C1161 C1178 1.574 . S
C1161 C1180 1.368 . S
C1161 H1185 0.949 . S
H1162 C1166 0.949 . S
C1163 C1164 1.349 . S
C1163 C1165 1.327 . S
C1163 H1186 0.950 . S
C1164 C1163 1.349 . S
C1164 C1176 1.349 . S
C1165 C1163 1.327 . S
C1165 C1181 1.429 . S
C1165 H1187 0.950 . S
C1166 H1162 0.949 . S
C1166 C1174 1.574 . S
C1166 C1182 1.368 . S
H1167 C1175 0.950 . S
H1168 C1173 0.950 . S
H1169 C1174 0.949 . S
H1170 C1176 0.950 . S
H1171 C1177 0.950 . S
H1172 C1178 0.949 . S
C1173 H1168 0.950 . S
C1173 C1175 1.327 . S
C1173 C1179 1.429 . S
C1174 C1166 1.574 . S
C1174 H1169 0.949 . S
C1174 C1180 1.368 . S
C1175 C1159 1.349 . S
C1175 H1167 0.950 . S
C1175 C1173 1.327 . S
C1176 C1164 1.349 . S
C1176 H1170 0.950 . S
C1176 C1177 1.327 . S
C1177 H1171 0.950 . S
C1177 C1176 1.327 . S
C1177 C1181 1.429 . S
C1178 C1161 1.574 . S
C1178 H1172 0.949 . S
C1178 C1182 1.368 . S
C1179 C1160 1.429 . S
C1179 C1173 1.429 . S
C1179 C1180 1.523 . S
C1180 C1161 1.368 . S
C1180 C1174 1.368 . S
C1180 C1179 1.523 . S
C1181 C1165 1.429 . S
C1181 C1177 1.429 . S
C1181 C1182 1.523 . S
C1182 C1166 1.368 . S
C1182 C1178 1.368 . S
C1182 C1181 1.523 . S
H1183 C1158 0.950 . S
H1184 C1160 0.950 . S
H1185 C1161 0.949 . S
H1186 C1163 0.950 . S
H1187 C1165 0.950 . S
C1188 C1189 1.349 . S
C1188 C1190 1.327 . S
C1188 H1213 0.950 . S
C1189 C1188 1.349 . S
C1189 C1205 1.349 . S
C1190 C1188 1.327 . S
C1190 C1209 1.429 . S
C1190 H1214 0.950 . S
C1191 C1208 1.574 . S
C1191 C1210 1.368 . S
C1191 H1215 0.949 . S
H1192 C1196 0.949 . S
C1193 C1194 1.349 . S
C1193 C1195 1.327 . S
C1193 H1216 0.950 . S
C1194 C1193 1.349 . S
C1194 C1206 1.349 . S
C1195 C1193 1.327 . S
C1195 C1211 1.429 . S
C1195 H1217 0.950 . S
C1196 H1192 0.949 . S
C1196 C1204 1.574 . S
C1196 C1212 1.368 . S
H1197 C1205 0.950 . S
H1198 C1203 0.950 . S
H1199 C1204 0.949 . S
H1200 C1206 0.950 . S
H1201 C1207 0.950 . S
H1202 C1208 0.949 . S
C1203 H1198 0.950 . S
C1203 C1205 1.327 . S
C1203 C1209 1.429 . S
C1204 C1196 1.574 . S
C1204 H1199 0.949 . S
C1204 C1210 1.368 . S
C1205 C1189 1.349 . S
C1205 H1197 0.950 . S
C1205 C1203 1.327 . S
C1206 C1194 1.349 . S
C1206 H1200 0.950 . S
C1206 C1207 1.327 . S
C1207 H1201 0.950 . S
C1207 C1206 1.327 . S
C1207 C1211 1.429 . S
C1208 C1191 1.574 . S
C1208 H1202 0.949 . S
C1208 C1212 1.368 . S
C1209 C1190 1.429 . S
C1209 C1203 1.429 . S
C1209 C1210 1.523 . S
C1210 C1191 1.368 . S
C1210 C1204 1.368 . S
C1210 C1209 1.523 . S
C1211 C1195 1.429 . S
C1211 C1207 1.429 . S
C1211 C1212 1.523 . S
C1212 C1196 1.368 . S
C1212 C1208 1.368 . S
C1212 C1211 1.523 . S
H1213 C1188 0.950 . S
H1214 C1190 0.950 . S
H1215 C1191 0.949 . S
H1216 C1193 0.950 . S
H1217 C1195 0.950 . S
C1218 C1219 1.349 . S
C1218 C1220 1.327 . S
C1218 H1243 0.950 . S
C1219 C1218 1.349 . S
C1219 C1235 1.349 . S
C1220 C1218 1.327 . S
C1220 C1239 1.429 . S
C1220 H1244 0.950 . S
C1221 C1238 1.574 . S
C1221 C1240 1.368 . S
C1221 H1245 0.949 . S
H1222 C1226 0.949 . S
C1223 C1224 1.349 . S
C1223 C1225 1.327 . S
C1223 H1246 0.950 . S
C1224 C1223 1.349 . S
C1224 C1236 1.349 . S
C1225 C1223 1.327 . S
C1225 C1241 1.429 . S
C1225 H1247 0.950 . S
C1226 H1222 0.949 . S
C1226 C1234 1.574 . S
C1226 C1242 1.368 . S
H1227 C1235 0.950 . S
H1228 C1233 0.950 . S
H1229 C1234 0.949 . S
H1230 C1236 0.950 . S
H1231 C1237 0.950 . S
H1232 C1238 0.949 . S
C1233 H1228 0.950 . S
C1233 C1235 1.327 . S
C1233 C1239 1.429 . S
C1234 C1226 1.574 . S
C1234 H1229 0.949 . S
C1234 C1240 1.368 . S
C1235 C1219 1.349 . S
C1235 H1227 0.950 . S
C1235 C1233 1.327 . S
C1236 C1224 1.349 . S
C1236 H1230 0.950 . S
C1236 C1237 1.327 . S
C1237 H1231 0.950 . S
C1237 C1236 1.327 . S
C1237 C1241 1.429 . S
C1238 C1221 1.574 . S
C1238 H1232 0.949 . S
C1238 C1242 1.368 . S
C1239 C1220 1.429 . S
C1239 C1233 1.429 . S
C1239 C1240 1.523 . S
C1240 C1221 1.368 . S
C1240 C1234 1.368 . S
C1240 C1239 1.523 . S
C1241 C1225 1.429 . S
C1241 C1237 1.429 . S
C1241 C1242 1.523 . S
C1242 C1226 1.368 . S
C1242 C1238 1.368 . S
C1242 C1241 1.523 . S
H1243 C1218 0.950 . S
H1244 C1220 0.950 . S
H1245 C1221 0.949 . S
H1246 C1223 0.950 . S
H1247 C1225 0.950 . S
C1248 C1249 1.349 . S
C1248 C1250 1.327 . S
C1248 H1273 0.950 . S
C1249 C1248 1.349 . S
C1249 C1265 1.349 . S
C1250 C1248 1.327 . S
C1250 C1269 1.429 . S
C1250 H1274 0.950 . S
C1251 C1268 1.574 . S
C1251 C1270 1.368 . S
C1251 H1275 0.949 . S
H1252 C1256 0.949 . S
C1253 C1254 1.349 . S
C1253 C1255 1.327 . S
C1253 H1276 0.950 . S
C1254 C1253 1.349 . S
C1254 C1266 1.349 . S
C1255 C1253 1.327 . S
C1255 C1271 1.429 . S
C1255 H1277 0.950 . S
C1256 H1252 0.949 . S
C1256 C1264 1.574 . S
C1256 C1272 1.368 . S
H1257 C1265 0.950 . S
H1258 C1263 0.950 . S
H1259 C1264 0.949 . S
H1260 C1266 0.950 . S
H1261 C1267 0.950 . S
H1262 C1268 0.949 . S
C1263 H1258 0.950 . S
C1263 C1265 1.327 . S
C1263 C1269 1.429 . S
C1264 C1256 1.574 . S
C1264 H1259 0.949 . S
C1264 C1270 1.368 . S
C1265 C1249 1.349 . S
C1265 H1257 0.950 . S
C1265 C1263 1.327 . S
C1266 C1254 1.349 . S
C1266 H1260 0.950 . S
C1266 C1267 1.327 . S
C1267 H1261 0.950 . S
C1267 C1266 1.327 . S
C1267 C1271 1.429 . S
C1268 C1251 1.574 . S
C1268 H1262 0.949 . S
C1268 C1272 1.368 . S
C1269 C1250 1.429 . S
C1269 C1263 1.429 . S
C1269 C1270 1.523 . S
C1270 C1251 1.368 . S
C1270 C1264 1.368 . S
C1270 C1269 1.523 . S
C1271 C1255 1.429 . S
C1271 C1267 1.429 . S
C1271 C1272 1.523 . S
C1272 C1256 1.368 . S
C1272 C1268 1.368 . S
C1272 C1271 1.523 . S
H1273 C1248 0.950 . S
H1274 C1250 0.950 . S
H1275 C1251 0.949 . S
H1276 C1253 0.950 . S
H1277 C1255 0.950 . S
C1278 C1279 1.349 . S
C1278 C1280 1.327 . S
C1278 H1303 0.950 . S
C1279 C1278 1.349 . S
C1279 C1295 1.349 . S
C1280 C1278 1.327 . S
C1280 C1299 1.429 . S
C1280 H1304 0.950 . S
C1281 C1298 1.574 . S
C1281 C1300 1.368 . S
C1281 H1305 0.949 . S
H1282 C1286 0.949 . S
C1283 C1284 1.349 . S
C1283 C1285 1.327 . S
C1283 H1306 0.950 . S
C1284 C1283 1.349 . S
C1284 C1296 1.349 . S
C1285 C1283 1.327 . S
C1285 C1301 1.429 . S
C1285 H1307 0.950 . S
C1286 H1282 0.949 . S
C1286 C1294 1.574 . S
C1286 C1302 1.368 . S
H1287 C1295 0.950 . S
H1288 C1293 0.950 . S
H1289 C1294 0.949 . S
H1290 C1296 0.950 . S
H1291 C1297 0.950 . S
H1292 C1298 0.949 . S
C1293 H1288 0.950 . S
C1293 C1295 1.327 . S
C1293 C1299 1.429 . S
C1294 C1286 1.574 . S
C1294 H1289 0.949 . S
C1294 C1300 1.368 . S
C1295 C1279 1.349 . S
C1295 H1287 0.950 . S
C1295 C1293 1.327 . S
C1296 C1284 1.349 . S
C1296 H1290 0.950 . S
C1296 C1297 1.327 . S
C1297 H1291 0.950 . S
C1297 C1296 1.327 . S
C1297 C1301 1.429 . S
C1298 C1281 1.574 . S
C1298 H1292 0.949 . S
C1298 C1302 1.368 . S
C1299 C1280 1.429 . S
C1299 C1293 1.429 . S
C1299 C1300 1.523 . S
C1300 C1281 1.368 . S
C1300 C1294 1.368 . S
C1300 C1299 1.523 . S
C1301 C1285 1.429 . S
C1301 C1297 1.429 . S
C1301 C1302 1.523 . S
C1302 C1286 1.368 . S
C1302 C1298 1.368 . S
C1302 C1301 1.523 . S
H1303 C1278 0.950 . S
H1304 C1280 0.950 . S
H1305 C1281 0.949 . S
H1306 C1283 0.950 . S
H1307 C1285 0.950 . S
C1308 C1309 1.349 . S
C1308 C1310 1.327 . S
C1308 H1333 0.950 . S
C1309 C1308 1.349 . S
C1309 C1325 1.349 . S
C1310 C1308 1.327 . S
C1310 C1329 1.429 . S
C1310 H1334 0.950 . S
C1311 C1328 1.574 . S
C1311 C1330 1.368 . S
C1311 H1335 0.949 . S
H1312 C1316 0.949 . S
C1313 C1314 1.349 . S
C1313 C1315 1.327 . S
C1313 H1336 0.950 . S
C1314 C1313 1.349 . S
C1314 C1326 1.349 . S
C1315 C1313 1.327 . S
C1315 C1331 1.429 . S
C1315 H1337 0.950 . S
C1316 H1312 0.949 . S
C1316 C1324 1.574 . S
C1316 C1332 1.368 . S
H1317 C1325 0.950 . S
H1318 C1323 0.950 . S
H1319 C1324 0.949 . S
H1320 C1326 0.950 . S
H1321 C1327 0.950 . S
H1322 C1328 0.949 . S
C1323 H1318 0.950 . S
C1323 C1325 1.327 . S
C1323 C1329 1.429 . S
C1324 C1316 1.574 . S
C1324 H1319 0.949 . S
C1324 C1330 1.368 . S
C1325 C1309 1.349 . S
C1325 H1317 0.950 . S
C1325 C1323 1.327 . S
C1326 C1314 1.349 . S
C1326 H1320 0.950 . S
C1326 C1327 1.327 . S
C1327 H1321 0.950 . S
C1327 C1326 1.327 . S
C1327 C1331 1.429 . S
C1328 C1311 1.574 . S
C1328 H1322 0.949 . S
C1328 C1332 1.368 . S
C1329 C1310 1.429 . S
C1329 C1323 1.429 . S
C1329 C1330 1.523 . S
C1330 C1311 1.368 . S
C1330 C1324 1.368 . S
C1330 C1329 1.523 . S
C1331 C1315 1.429 . S
C1331 C1327 1.429 . S
C1331 C1332 1.523 . S
C1332 C1316 1.368 . S
C1332 C1328 1.368 . S
C1332 C1331 1.523 . S
H1333 C1308 0.950 . S
H1334 C1310 0.950 . S
H1335 C1311 0.949 . S
H1336 C1313 0.950 . S
H1337 C1315 0.950 . S
C1338 C1339 1.349 . S
C1338 C1340 1.327 . S
C1338 H1363 0.950 . S
C1339 C1338 1.349 . S
C1339 C1355 1.349 . S
C1340 C1338 1.327 . S
C1340 C1359 1.429 . S
C1340 H1364 0.950 . S
C1341 C1358 1.574 . S
C1341 C1360 1.368 . S
C1341 H1365 0.949 . S
H1342 C1346 0.949 . S
C1343 C1344 1.349 . S
C1343 C1345 1.327 . S
C1343 H1366 0.950 . S
C1344 C1343 1.349 . S
C1344 C1356 1.349 . S
C1345 C1343 1.327 . S
C1345 C1361 1.429 . S
C1345 H1367 0.950 . S
C1346 H1342 0.949 . S
C1346 C1354 1.574 . S
C1346 C1362 1.368 . S
H1347 C1355 0.950 . S
H1348 C1353 0.950 . S
H1349 C1354 0.949 . S
H1350 C1356 0.950 . S
H1351 C1357 0.950 . S
H1352 C1358 0.949 . S
C1353 H1348 0.950 . S
C1353 C1355 1.327 . S
C1353 C1359 1.429 . S
C1354 C1346 1.574 . S
C1354 H1349 0.949 . S
C1354 C1360 1.368 . S
C1355 C1339 1.349 . S
C1355 H1347 0.950 . S
C1355 C1353 1.327 . S
C1356 C1344 1.349 . S
C1356 H1350 0.950 . S
C1356 C1357 1.327 . S
C1357 H1351 0.950 . S
C1357 C1356 1.327 . S
C1357 C1361 1.429 . S
C1358 C1341 1.574 . S
C1358 H1352 0.949 . S
C1358 C1362 1.368 . S
C1359 C1340 1.429 . S
C1359 C1353 1.429 . S
C1359 C1360 1.523 . S
C1360 C1341 1.368 . S
C1360 C1354 1.368 . S
C1360 C1359 1.523 . S
C1361 C1345 1.429 . S
C1361 C1357 1.429 . S
C1361 C1362 1.523 . S
C1362 C1346 1.368 . S
C1362 C1358 1.368 . S
C1362 C1361 1.523 . S
H1363 C1338 0.950 . S
H1364 C1340 0.950 . S
H1365 C1341 0.949 . S
H1366 C1343 0.950 . S
H1367 C1345 0.950 . S
C1368 C1369 1.349 . S
C1368 C1370 1.327 . S
C1368 H1393 0.950 . S
C1369 C1368 1.349 . S
C1369 C1385 1.349 . S
C1370 C1368 1.327 . S
C1370 C1389 1.429 . S
C1370 H1394 0.950 . S
C1371 C1388 1.574 . S
C1371 C1390 1.368 . S
C1371 H1395 0.949 . S
H1372 C1376 0.949 . S
C1373 C1374 1.349 . S
C1373 C1375 1.327 . S
C1373 H1396 0.950 . S
C1374 C1373 1.349 . S
C1374 C1386 1.349 . S
C1375 C1373 1.327 . S
C1375 C1391 1.429 . S
C1375 H1397 0.950 . S
C1376 H1372 0.949 . S
C1376 C1384 1.574 . S
C1376 C1392 1.368 . S
H1377 C1385 0.950 . S
H1378 C1383 0.950 . S
H1379 C1384 0.949 . S
H1380 C1386 0.950 . S
H1381 C1387 0.950 . S
H1382 C1388 0.949 . S
C1383 H1378 0.950 . S
C1383 C1385 1.327 . S
C1383 C1389 1.429 . S
C1384 C1376 1.574 . S
C1384 H1379 0.949 . S
C1384 C1390 1.368 . S
C1385 C1369 1.349 . S
C1385 H1377 0.950 . S
C1385 C1383 1.327 . S
C1386 C1374 1.349 . S
C1386 H1380 0.950 . S
C1386 C1387 1.327 . S
C1387 H1381 0.950 . S
C1387 C1386 1.327 . S
C1387 C1391 1.429 . S
C1388 C1371 1.574 . S
C1388 H1382 0.949 . S
C1388 C1392 1.368 . S
C1389 C1370 1.429 . S
C1389 C1383 1.429 . S
C1389 C1390 1.523 . S
C1390 C1371 1.368 . S
C1390 C1384 1.368 . S
C1390 C1389 1.523 . S
C1391 C1375 1.429 . S
C1391 C1387 1.429 . S
C1391 C1392 1.523 . S
C1392 C1376 1.368 . S
C1392 C1388 1.368 . S
C1392 C1391 1.523 . S
H1393 C1368 0.950 . S
H1394 C1370 0.950 . S
H1395 C1371 0.949 . S
H1396 C1373 0.950 . S
H1397 C1375 0.950 . S
C1398 C1399 1.349 . S
C1398 C1400 1.327 . S
C1398 H1423 0.950 . S
C1399 C1398 1.349 . S
C1399 C1415 1.349 . S
C1400 C1398 1.327 . S
C1400 C1419 1.429 . S
C1400 H1424 0.950 . S
C1401 C1418 1.574 . S
C1401 C1420 1.368 . S
C1401 H1425 0.949 . S
H1402 C1406 0.949 . S
C1403 C1404 1.349 . S
C1403 C1405 1.327 . S
C1403 H1426 0.950 . S
C1404 C1403 1.349 . S
C1404 C1416 1.349 . S
C1405 C1403 1.327 . S
C1405 C1421 1.429 . S
C1405 H1427 0.950 . S
C1406 H1402 0.949 . S
C1406 C1414 1.574 . S
C1406 C1422 1.368 . S
H1407 C1415 0.950 . S
H1408 C1413 0.950 . S
H1409 C1414 0.949 . S
H1410 C1416 0.950 . S
H1411 C1417 0.950 . S
H1412 C1418 0.949 . S
C1413 H1408 0.950 . S
C1413 C1415 1.327 . S
C1413 C1419 1.429 . S
C1414 C1406 1.574 . S
C1414 H1409 0.949 . S
C1414 C1420 1.368 . S
C1415 C1399 1.349 . S
C1415 H1407 0.950 . S
C1415 C1413 1.327 . S
C1416 C1404 1.349 . S
C1416 H1410 0.950 . S
C1416 C1417 1.327 . S
C1417 H1411 0.950 . S
C1417 C1416 1.327 . S
C1417 C1421 1.429 . S
C1418 C1401 1.574 . S
C1418 H1412 0.949 . S
C1418 C1422 1.368 . S
C1419 C1400 1.429 . S
C1419 C1413 1.429 . S
C1419 C1420 1.523 . S
C1420 C1401 1.368 . S
C1420 C1414 1.368 . S
C1420 C1419 1.523 . S
C1421 C1405 1.429 . S
C1421 C1417 1.429 . S
C1421 C1422 1.523 . S
C1422 C1406 1.368 . S
C1422 C1418 1.368 . S
C1422 C1421 1.523 . S
H1423 C1398 0.950 . S
H1424 C1400 0.950 . S
H1425 C1401 0.949 . S
H1426 C1403 0.950 . S
H1427 C1405 0.950 . S
C1428 C1429 1.349 . S
C1428 C1430 1.327 . S
C1428 H1453 0.950 . S
C1429 C1428 1.349 . S
C1429 C1445 1.349 . S
C1430 C1428 1.327 . S
C1430 C1449 1.429 . S
C1430 H1454 0.950 . S
C1431 C1448 1.574 . S
C1431 C1450 1.368 . S
C1431 H1455 0.949 . S
H1432 C1436 0.949 . S
C1433 C1434 1.349 . S
C1433 C1435 1.327 . S
C1433 H1456 0.950 . S
C1434 C1433 1.349 . S
C1434 C1446 1.349 . S
C1435 C1433 1.327 . S
C1435 C1451 1.429 . S
C1435 H1457 0.950 . S
C1436 H1432 0.949 . S
C1436 C1444 1.574 . S
C1436 C1452 1.368 . S
H1437 C1445 0.950 . S
H1438 C1443 0.950 . S
H1439 C1444 0.949 . S
H1440 C1446 0.950 . S
H1441 C1447 0.950 . S
H1442 C1448 0.949 . S
C1443 H1438 0.950 . S
C1443 C1445 1.327 . S
C1443 C1449 1.429 . S
C1444 C1436 1.574 . S
C1444 H1439 0.949 . S
C1444 C1450 1.368 . S
C1445 C1429 1.349 . S
C1445 H1437 0.950 . S
C1445 C1443 1.327 . S
C1446 C1434 1.349 . S
C1446 H1440 0.950 . S
C1446 C1447 1.327 . S
C1447 H1441 0.950 . S
C1447 C1446 1.327 . S
C1447 C1451 1.429 . S
C1448 C1431 1.574 . S
C1448 H1442 0.949 . S
C1448 C1452 1.368 . S
C1449 C1430 1.429 . S
C1449 C1443 1.429 . S
C1449 C1450 1.523 . S
C1450 C1431 1.368 . S
C1450 C1444 1.368 . S
C1450 C1449 1.523 . S
C1451 C1435 1.429 . S
C1451 C1447 1.429 . S
C1451 C1452 1.523 . S
C1452 C1436 1.368 . S
C1452 C1448 1.368 . S
C1452 C1451 1.523 . S
H1453 C1428 0.950 . S
H1454 C1430 0.950 . S
H1455 C1431 0.949 . S
H1456 C1433 0.950 . S
H1457 C1435 0.950 . S
C1458 C1459 1.349 . S
C1458 C1460 1.327 . S
C1458 H1483 0.950 . S
C1459 C1458 1.349 . S
C1459 C1475 1.349 . S
C1460 C1458 1.327 . S
C1460 C1479 1.429 . S
C1460 H1484 0.950 . S
C1461 C1478 1.574 . S
C1461 C1480 1.368 . S
C1461 H1485 0.949 . S
H1462 C1466 0.949 . S
C1463 C1464 1.349 . S
C1463 C1465 1.327 1_556 S
C1463 H1486 0.950 . S
C1464 C1463 1.349 . S
C1464 C1476 1.349 . S
C1465 C1463 1.327 1_554 S
C1465 C1481 1.429 . S
C1465 H1487 0.950 . S
C1466 H1462 0.949 . S
C1466 C1474 1.574 . S
C1466 C1482 1.368 . S
H1467 C1475 0.950 . S
H1468 C1473 0.950 . S
H1469 C1474 0.949 . S
H1470 C1476 0.950 . S
H1471 C1477 0.950 . S
H1472 C1478 0.949 . S
C1473 H1468 0.950 . S
C1473 C1475 1.327 . S
C1473 C1479 1.429 . S
C1474 C1466 1.574 . S
C1474 H1469 0.949 . S
C1474 C1480 1.368 . S
C1475 C1459 1.349 . S
C1475 H1467 0.950 . S
C1475 C1473 1.327 . S
C1476 C1464 1.349 . S
C1476 H1470 0.950 . S
C1476 C1477 1.327 1_556 S
C1477 H1471 0.950 . S
C1477 C1476 1.327 1_554 S
C1477 C1481 1.429 . S
C1478 C1461 1.574 . S
C1478 H1472 0.949 . S
C1478 C1482 1.368 . S
C1479 C1460 1.429 . S
C1479 C1473 1.429 . S
C1479 C1480 1.523 . S
C1480 C1461 1.368 . S
C1480 C1474 1.368 . S
C1480 C1479 1.523 . S
C1481 C1465 1.429 . S
C1481 C1477 1.429 . S
C1481 C1482 1.523 . S
C1482 C1466 1.368 . S
C1482 C1478 1.368 . S
C1482 C1481 1.523 . S
H1483 C1458 0.950 . S
H1484 C1460 0.950 . S
H1485 C1461 0.949 . S
H1486 C1463 0.950 . S
H1487 C1465 0.950 . S
C1488 C1489 1.349 . S
C1488 C1490 1.327 1_556 S
C1488 H1513 0.950 . S
C1489 C1488 1.349 . S
C1489 C1505 1.349 . S
C1490 C1488 1.327 1_554 S
C1490 C1509 1.429 . S
C1490 H1514 0.950 . S
C1491 C1508 1.574 . S
C1491 C1510 1.368 . S
C1491 H1515 0.949 . S
H1492 C1496 0.949 . S
C1493 C1494 1.349 . S
C1493 C1495 1.327 . S
C1493 H1516 0.950 . S
C1494 C1493 1.349 . S
C1494 C1506 1.349 . S
C1495 C1493 1.327 . S
C1495 C1511 1.429 . S
C1495 H1517 0.950 . S
C1496 H1492 0.949 . S
C1496 C1504 1.574 . S
C1496 C1512 1.368 . S
H1497 C1505 0.950 . S
H1498 C1503 0.950 . S
H1499 C1504 0.949 . S
H1500 C1506 0.950 . S
H1501 C1507 0.950 . S
H1502 C1508 0.949 . S
C1503 H1498 0.950 . S
C1503 C1505 1.327 1_554 S
C1503 C1509 1.429 . S
C1504 C1496 1.574 . S
C1504 H1499 0.949 . S
C1504 C1510 1.368 . S
C1505 C1489 1.349 . S
C1505 H1497 0.950 . S
C1505 C1503 1.327 1_556 S
C1506 C1494 1.349 . S
C1506 H1500 0.950 . S
C1506 C1507 1.327 . S
C1507 H1501 0.950 . S
C1507 C1506 1.327 . S
C1507 C1511 1.429 . S
C1508 C1491 1.574 . S
C1508 H1502 0.949 . S
C1508 C1512 1.368 . S
C1509 C1490 1.429 . S
C1509 C1503 1.429 . S
C1509 C1510 1.523 . S
C1510 C1491 1.368 . S
C1510 C1504 1.368 . S
C1510 C1509 1.523 . S
C1511 C1495 1.429 . S
C1511 C1507 1.429 . S
C1511 C1512 1.523 . S
C1512 C1496 1.368 . S
C1512 C1508 1.368 . S
C1512 C1511 1.523 . S
H1513 C1488 0.950 . S
H1514 C1490 0.950 . S
H1515 C1491 0.949 . S
H1516 C1493 0.950 . S
H1517 C1495 0.950 . S
C1518 C1519 1.349 . S
C1518 C1520 1.327 . S
C1518 H1543 0.950 . S
C1519 C1518 1.349 . S
C1519 C1535 1.349 . S
C1520 C1518 1.327 . S
C1520 C1539 1.429 . S
C1520 H1544 0.950 . S
C1521 C1538 1.574 . S
C1521 C1540 1.368 . S
C1521 H1545 0.949 . S
H1522 C1526 0.949 . S
C1523 C1524 1.349 . S
C1523 C1525 1.327 1_556 S
C1523 H1546 0.950 . S
C1524 C1523 1.349 . S
C1524 C1536 1.349 . S
C1525 C1523 1.327 1_554 S
C1525 C1541 1.429 . S
C1525 H1547 0.950 . S
C1526 H1522 0.949 . S
C1526 C1534 1.574 . S
C1526 C1542 1.368 . S
H1527 C1535 0.950 . S
H1528 C1533 0.950 . S
H1529 C1534 0.949 . S
H1530 C1536 0.950 . S
H1531 C1537 0.950 . S
H1532 C1538 0.949 . S
C1533 H1528 0.950 . S
C1533 C1535 1.327 . S
C1533 C1539 1.429 . S
C1534 C1526 1.574 . S
C1534 H1529 0.949 . S
C1534 C1540 1.368 . S
C1535 C1519 1.349 . S
C1535 H1527 0.950 . S
C1535 C1533 1.327 . S
C1536 C1524 1.349 . S
C1536 H1530 0.950 . S
C1536 C1537 1.327 1_556 S
C1537 H1531 0.950 . S
C1537 C1536 1.327 1_554 S
C1537 C1541 1.429 . S
C1538 C1521 1.574 . S
C1538 H1532 0.949 . S
C1538 C1542 1.368 . S
C1539 C1520 1.429 . S
C1539 C1533 1.429 . S
C1539 C1540 1.523 . S
C1540 C1521 1.368 . S
C1540 C1534 1.368 . S
C1540 C1539 1.523 . S
C1541 C1525 1.429 . S
C1541 C1537 1.429 . S
C1541 C1542 1.523 . S
C1542 C1526 1.368 . S
C1542 C1538 1.368 . S
C1542 C1541 1.523 . S
H1543 C1518 0.950 . S
H1544 C1520 0.950 . S
H1545 C1521 0.949 . S
H1546 C1523 0.950 . S
H1547 C1525 0.950 . S
C1548 C1549 1.349 . S
C1548 C1550 1.327 . S
C1548 H1573 0.950 . S
C1549 C1548 1.349 . S
C1549 C1565 1.349 . S
C1550 C1548 1.327 . S
C1550 C1569 1.429 . S
C1550 H1574 0.950 . S
C1551 C1568 1.574 . S
C1551 C1570 1.368 . S
C1551 H1575 0.949 . S
H1552 C1556 0.949 . S
C1553 C1554 1.349 . S
C1553 C1555 1.327 . S
C1553 H1576 0.950 . S
C1554 C1553 1.349 . S
C1554 C1566 1.349 . S
C1555 C1553 1.327 . S
C1555 C1571 1.429 . S
C1555 H1577 0.950 . S
C1556 H1552 0.949 . S
C1556 C1564 1.574 . S
C1556 C1572 1.368 . S
H1557 C1565 0.950 . S
H1558 C1563 0.950 . S
H1559 C1564 0.949 . S
H1560 C1566 0.950 . S
H1561 C1567 0.950 . S
H1562 C1568 0.949 . S
C1563 H1558 0.950 . S
C1563 C1565 1.327 . S
C1563 C1569 1.429 . S
C1564 C1556 1.574 . S
C1564 H1559 0.949 . S
C1564 C1570 1.368 . S
C1565 C1549 1.349 . S
C1565 H1557 0.950 . S
C1565 C1563 1.327 . S
C1566 C1554 1.349 . S
C1566 H1560 0.950 . S
C1566 C1567 1.327 . S
C1567 H1561 0.950 . S
C1567 C1566 1.327 . S
C1567 C1571 1.429 . S
C1568 C1551 1.574 . S
C1568 H1562 0.949 . S
C1568 C1572 1.368 . S
C1569 C1550 1.429 . S
C1569 C1563 1.429 . S
C1569 C1570 1.523 . S
C1570 C1551 1.368 . S
C1570 C1564 1.368 . S
C1570 C1569 1.523 . S
C1571 C1555 1.429 . S
C1571 C1567 1.429 . S
C1571 C1572 1.523 . S
C1572 C1556 1.368 . S
C1572 C1568 1.368 . S
C1572 C1571 1.523 . S
H1573 C1548 0.950 . S
H1574 C1550 0.950 . S
H1575 C1551 0.949 . S
H1576 C1553 0.950 . S
H1577 C1555 0.950 . S
C1578 C1579 1.349 . S
C1578 C1580 1.327 . S
C1578 H1603 0.950 . S
C1579 C1578 1.349 . S
C1579 C1595 1.349 . S
C1580 C1578 1.327 . S
C1580 C1599 1.429 . S
C1580 H1604 0.950 . S
C1581 C1598 1.574 1_565 S
C1581 C1600 1.368 . S
C1581 H1605 0.949 . S
H1582 C1586 0.949 . S
C1583 C1584 1.349 . S
C1583 C1585 1.327 . S
C1583 H1606 0.950 . S
C1584 C1583 1.349 . S
C1584 C1596 1.349 . S
C1585 C1583 1.327 . S
C1585 C1601 1.429 . S
C1585 H1607 0.950 . S
C1586 H1582 0.949 . S
C1586 C1594 1.574 1_545 S
C1586 C1602 1.368 . S
H1587 C1595 0.950 . S
H1588 C1593 0.950 . S
H1589 C1594 0.949 . S
H1590 C1596 0.950 . S
H1591 C1597 0.950 . S
H1592 C1598 0.949 . S
C1593 H1588 0.950 . S
C1593 C1595 1.327 . S
C1593 C1599 1.429 . S
C1594 C1586 1.574 1_565 S
C1594 H1589 0.949 . S
C1594 C1600 1.368 . S
C1595 C1579 1.349 . S
C1595 H1587 0.950 . S
C1595 C1593 1.327 . S
C1596 C1584 1.349 . S
C1596 H1590 0.950 . S
C1596 C1597 1.327 . S
C1597 H1591 0.950 . S
C1597 C1596 1.327 . S
C1597 C1601 1.429 . S
C1598 C1581 1.574 1_545 S
C1598 H1592 0.949 . S
C1598 C1602 1.368 . S
C1599 C1580 1.429 . S
C1599 C1593 1.429 . S
C1599 C1600 1.523 . S
C1600 C1581 1.368 . S
C1600 C1594 1.368 . S
C1600 C1599 1.523 . S
C1601 C1585 1.429 . S
C1601 C1597 1.429 . S
C1601 C1602 1.523 . S
C1602 C1586 1.368 . S
C1602 C1598 1.368 . S
C1602 C1601 1.523 . S
H1603 C1578 0.950 . S
H1604 C1580 0.950 . S
H1605 C1581 0.949 . S
H1606 C1583 0.950 . S
H1607 C1585 0.950 . S
C1608 C1609 1.349 . S
C1608 C1610 1.327 . S
C1608 H1633 0.950 . S
C1609 C1608 1.349 . S
C1609 C1625 1.349 . S
C1610 C1608 1.327 . S
C1610 C1629 1.429 . S
C1610 H1634 0.950 . S
C1611 C1628 1.574 1_655 S
C1611 C1630 1.368 . S
C1611 H1635 0.949 . S
H1612 C1616 0.949 . S
C1613 C1614 1.349 . S
C1613 C1615 1.327 . S
C1613 H1636 0.950 . S
C1614 C1613 1.349 . S
C1614 C1626 1.349 . S
C1615 C1613 1.327 . S
C1615 C1631 1.429 . S
C1615 H1637 0.950 . S
C1616 H1612 0.949 . S
C1616 C1624 1.574 1_455 S
C1616 C1632 1.368 . S
H1617 C1625 0.950 . S
H1618 C1623 0.950 . S
H1619 C1624 0.949 . S
H1620 C1626 0.950 . S
H1621 C1627 0.950 . S
H1622 C1628 0.949 . S
C1623 H1618 0.950 . S
C1623 C1625 1.327 . S
C1623 C1629 1.429 . S
C1624 C1616 1.574 1_655 S
C1624 H1619 0.949 . S
C1624 C1630 1.368 . S
C1625 C1609 1.349 . S
C1625 H1617 0.950 . S
C1625 C1623 1.327 . S
C1626 C1614 1.349 . S
C1626 H1620 0.950 . S
C1626 C1627 1.327 . S
C1627 H1621 0.950 . S
C1627 C1626 1.327 . S
C1627 C1631 1.429 . S
C1628 C1611 1.574 1_455 S
C1628 H1622 0.949 . S
C1628 C1632 1.368 . S
C1629 C1610 1.429 . S
C1629 C1623 1.429 . S
C1629 C1630 1.523 . S
C1630 C1611 1.368 . S
C1630 C1624 1.368 . S
C1630 C1629 1.523 . S
C1631 C1615 1.429 . S
C1631 C1627 1.429 . S
C1631 C1632 1.523 . S
C1632 C1616 1.368 . S
C1632 C1628 1.368 . S
C1632 C1631 1.523 . S
H1633 C1608 0.950 . S
H1634 C1610 0.950 . S
H1635 C1611 0.949 . S
H1636 C1613 0.950 . S
H1637 C1615 0.950 . S
C1638 C1639 1.349 . S
C1638 C1640 1.327 . S
C1638 H1663 0.950 . S
C1639 C1638 1.349 . S
C1639 C1655 1.349 . S
C1640 C1638 1.327 . S
C1640 C1659 1.429 . S
C1640 H1664 0.950 . S
C1641 C1658 1.574 . S
C1641 C1660 1.368 . S
C1641 H1665 0.949 . S
H1642 C1646 0.949 . S
C1643 C1644 1.349 . S
C1643 C1645 1.327 . S
C1643 H1666 0.950 . S
C1644 C1643 1.349 . S
C1644 C1656 1.349 . S
C1645 C1643 1.327 . S
C1645 C1661 1.429 . S
C1645 H1667 0.950 . S
C1646 H1642 0.949 . S
C1646 C1654 1.574 . S
C1646 C1662 1.368 . S
H1647 C1655 0.950 . S
H1648 C1653 0.950 . S
H1649 C1654 0.949 . S
H1650 C1656 0.950 . S
H1651 C1657 0.950 . S
H1652 C1658 0.949 . S
C1653 H1648 0.950 . S
C1653 C1655 1.327 . S
C1653 C1659 1.429 . S
C1654 C1646 1.574 . S
C1654 H1649 0.949 . S
C1654 C1660 1.368 . S
C1655 C1639 1.349 . S
C1655 H1647 0.950 . S
C1655 C1653 1.327 . S
C1656 C1644 1.349 . S
C1656 H1650 0.950 . S
C1656 C1657 1.327 . S
C1657 H1651 0.950 . S
C1657 C1656 1.327 . S
C1657 C1661 1.429 . S
C1658 C1641 1.574 . S
C1658 H1652 0.949 . S
C1658 C1662 1.368 . S
C1659 C1640 1.429 . S
C1659 C1653 1.429 . S
C1659 C1660 1.523 . S
C1660 C1641 1.368 . S
C1660 C1654 1.368 . S
C1660 C1659 1.523 . S
C1661 C1645 1.429 . S
C1661 C1657 1.429 . S
C1661 C1662 1.523 . S
C1662 C1646 1.368 . S
C1662 C1658 1.368 . S
C1662 C1661 1.523 . S
H1663 C1638 0.950 . S
H1664 C1640 0.950 . S
H1665 C1641 0.949 . S
H1666 C1643 0.950 . S
H1667 C1645 0.950 . S
C1668 C1669 1.349 . S
C1668 C1670 1.327 . S
C1668 H1693 0.950 . S
C1669 C1668 1.349 . S
C1669 C1685 1.349 . S
C1670 C1668 1.327 . S
C1670 C1689 1.429 . S
C1670 H1694 0.950 . S
C1671 C1688 1.574 1_545 S
C1671 C1690 1.368 . S
C1671 H1695 0.949 . S
H1672 C1676 0.949 . S
C1673 C1674 1.349 . S
C1673 C1675 1.327 . S
C1673 H1696 0.950 . S
C1674 C1673 1.349 . S
C1674 C1686 1.349 . S
C1675 C1673 1.327 . S
C1675 C1691 1.429 . S
C1675 H1697 0.950 . S
C1676 H1672 0.949 . S
C1676 C1684 1.574 1_565 S
C1676 C1692 1.368 . S
H1677 C1685 0.950 . S
H1678 C1683 0.950 . S
H1679 C1684 0.949 . S
H1680 C1686 0.950 . S
H1681 C1687 0.950 . S
H1682 C1688 0.949 . S
C1683 H1678 0.950 . S
C1683 C1685 1.327 . S
C1683 C1689 1.429 . S
C1684 C1676 1.574 1_545 S
C1684 H1679 0.949 . S
C1684 C1690 1.368 . S
C1685 C1669 1.349 . S
C1685 H1677 0.950 . S
C1685 C1683 1.327 . S
C1686 C1674 1.349 . S
C1686 H1680 0.950 . S
C1686 C1687 1.327 . S
C1687 H1681 0.950 . S
C1687 C1686 1.327 . S
C1687 C1691 1.429 . S
C1688 C1671 1.574 1_565 S
C1688 H1682 0.949 . S
C1688 C1692 1.368 . S
C1689 C1670 1.429 . S
C1689 C1683 1.429 . S
C1689 C1690 1.523 . S
C1690 C1671 1.368 . S
C1690 C1684 1.368 . S
C1690 C1689 1.523 . S
C1691 C1675 1.429 . S
C1691 C1687 1.429 . S
C1691 C1692 1.523 . S
C1692 C1676 1.368 . S
C1692 C1688 1.368 . S
C1692 C1691 1.523 . S
H1693 C1668 0.950 . S
H1694 C1670 0.950 . S
H1695 C1671 0.949 . S
H1696 C1673 0.950 . S
H1697 C1675 0.950 . S
C1698 C1699 1.349 . S
C1698 C1700 1.327 . S
C1698 H1723 0.950 . S
C1699 C1698 1.349 . S
C1699 C1715 1.349 . S
C1700 C1698 1.327 . S
C1700 C1719 1.429 . S
C1700 H1724 0.950 . S
C1701 C1718 1.574 1_655 S
C1701 C1720 1.368 . S
C1701 H1725 0.949 . S
H1702 C1706 0.949 . S
C1703 C1704 1.349 . S
C1703 C1705 1.327 . S
C1703 H1726 0.950 . S
C1704 C1703 1.349 . S
C1704 C1716 1.349 . S
C1705 C1703 1.327 . S
C1705 C1721 1.429 . S
C1705 H1727 0.950 . S
C1706 H1702 0.949 . S
C1706 C1714 1.574 1_455 S
C1706 C1722 1.368 . S
H1707 C1715 0.950 . S
H1708 C1713 0.950 . S
H1709 C1714 0.949 . S
H1710 C1716 0.950 . S
H1711 C1717 0.950 . S
H1712 C1718 0.949 . S
C1713 H1708 0.950 . S
C1713 C1715 1.327 . S
C1713 C1719 1.429 . S
C1714 C1706 1.574 1_655 S
C1714 H1709 0.949 . S
C1714 C1720 1.368 . S
C1715 C1699 1.349 . S
C1715 H1707 0.950 . S
C1715 C1713 1.327 . S
C1716 C1704 1.349 . S
C1716 H1710 0.950 . S
C1716 C1717 1.327 . S
C1717 H1711 0.950 . S
C1717 C1716 1.327 . S
C1717 C1721 1.429 . S
C1718 C1701 1.574 1_455 S
C1718 H1712 0.949 . S
C1718 C1722 1.368 . S
C1719 C1700 1.429 . S
C1719 C1713 1.429 . S
C1719 C1720 1.523 . S
C1720 C1701 1.368 . S
C1720 C1714 1.368 . S
C1720 C1719 1.523 . S
C1721 C1705 1.429 . S
C1721 C1717 1.429 . S
C1721 C1722 1.523 . S
C1722 C1706 1.368 . S
C1722 C1718 1.368 . S
C1722 C1721 1.523 . S
H1723 C1698 0.950 . S
H1724 C1700 0.950 . S
H1725 C1701 0.949 . S
H1726 C1703 0.950 . S
H1727 C1705 0.950 . S
C1728 C1729 1.349 . S
C1728 C1730 1.327 . S
C1728 H1753 0.950 . S
C1729 C1728 1.349 . S
C1729 C1745 1.349 . S
C1730 C1728 1.327 . S
C1730 C1749 1.429 . S
C1730 H1754 0.950 . S
C1731 C1748 1.574 . S
C1731 C1750 1.368 . S
C1731 H1755 0.949 . S
H1732 C1736 0.949 . S
C1733 C1734 1.349 . S
C1733 C1735 1.327 . S
C1733 H1756 0.950 . S
C1734 C1733 1.349 . S
C1734 C1746 1.349 . S
C1735 C1733 1.327 . S
C1735 C1751 1.429 . S
C1735 H1757 0.950 . S
C1736 H1732 0.949 . S
C1736 C1744 1.574 . S
C1736 C1752 1.368 . S
H1737 C1745 0.950 . S
H1738 C1743 0.950 . S
H1739 C1744 0.949 . S
H1740 C1746 0.950 . S
H1741 C1747 0.950 . S
H1742 C1748 0.949 . S
C1743 H1738 0.950 . S
C1743 C1745 1.327 . S
C1743 C1749 1.429 . S
C1744 C1736 1.574 . S
C1744 H1739 0.949 . S
C1744 C1750 1.368 . S
C1745 C1729 1.349 . S
C1745 H1737 0.950 . S
C1745 C1743 1.327 . S
C1746 C1734 1.349 . S
C1746 H1740 0.950 . S
C1746 C1747 1.327 . S
C1747 H1741 0.950 . S
C1747 C1746 1.327 . S
C1747 C1751 1.429 . S
C1748 C1731 1.574 . S
C1748 H1742 0.949 . S
C1748 C1752 1.368 . S
C1749 C1730 1.429 . S
C1749 C1743 1.429 . S
C1749 C1750 1.523 . S
C1750 C1731 1.368 . S
C1750 C1744 1.368 . S
C1750 C1749 1.523 . S
C1751 C1735 1.429 . S
C1751 C1747 1.429 . S
C1751 C1752 1.523 . S
C1752 C1736 1.368 . S
C1752 C1748 1.368 . S
C1752 C1751 1.523 . S
H1753 C1728 0.950 . S
H1754 C1730 0.950 . S
H1755 C1731 0.949 . S
H1756 C1733 0.950 . S
H1757 C1735 0.950 . S
C1758 C1759 1.349 . S
C1758 C1760 1.327 . S
C1758 H1783 0.950 . S
C1759 C1758 1.349 . S
C1759 C1775 1.349 . S
C1760 C1758 1.327 . S
C1760 C1779 1.429 . S
C1760 H1784 0.950 . S
C1761 C1778 1.574 . S
C1761 C1780 1.368 . S
C1761 H1785 0.949 . S
H1762 C1766 0.949 . S
C1763 C1764 1.349 . S
C1763 C1765 1.327 . S
C1763 H1786 0.950 . S
C1764 C1763 1.349 . S
C1764 C1776 1.349 . S
C1765 C1763 1.327 . S
C1765 C1781 1.429 . S
C1765 H1787 0.950 . S
C1766 H1762 0.949 . S
C1766 C1774 1.574 . S
C1766 C1782 1.368 . S
H1767 C1775 0.950 . S
H1768 C1773 0.950 . S
H1769 C1774 0.949 . S
H1770 C1776 0.950 . S
H1771 C1777 0.950 . S
H1772 C1778 0.949 . S
C1773 H1768 0.950 . S
C1773 C1775 1.327 . S
C1773 C1779 1.429 . S
C1774 C1766 1.574 . S
C1774 H1769 0.949 . S
C1774 C1780 1.368 . S
C1775 C1759 1.349 . S
C1775 H1767 0.950 . S
C1775 C1773 1.327 . S
C1776 C1764 1.349 . S
C1776 H1770 0.950 . S
C1776 C1777 1.327 . S
C1777 H1771 0.950 . S
C1777 C1776 1.327 . S
C1777 C1781 1.429 . S
C1778 C1761 1.574 . S
C1778 H1772 0.949 . S
C1778 C1782 1.368 . S
C1779 C1760 1.429 . S
C1779 C1773 1.429 . S
C1779 C1780 1.523 . S
C1780 C1761 1.368 . S
C1780 C1774 1.368 . S
C1780 C1779 1.523 . S
C1781 C1765 1.429 . S
C1781 C1777 1.429 . S
C1781 C1782 1.523 . S
C1782 C1766 1.368 . S
C1782 C1778 1.368 . S
C1782 C1781 1.523 . S
H1783 C1758 0.950 . S
H1784 C1760 0.950 . S
H1785 C1761 0.949 . S
H1786 C1763 0.950 . S
H1787 C1765 0.950 . S
C1788 C1789 1.349 . S
C1788 C1790 1.327 . S
C1788 H1813 0.950 . S
C1789 C1788 1.349 . S
C1789 C1805 1.349 . S
C1790 C1788 1.327 . S
C1790 C1809 1.429 . S
C1790 H1814 0.950 . S
C1791 C1808 1.574 . S
C1791 C1810 1.368 . S
C1791 H1815 0.949 . S
H1792 C1796 0.949 . S
C1793 C1794 1.349 . S
C1793 C1795 1.327 . S
C1793 H1816 0.950 . S
C1794 C1793 1.349 . S
C1794 C1806 1.349 . S
C1795 C1793 1.327 . S
C1795 C1811 1.429 . S
C1795 H1817 0.950 . S
C1796 H1792 0.949 . S
C1796 C1804 1.574 . S
C1796 C1812 1.368 . S
H1797 C1805 0.950 . S
H1798 C1803 0.950 . S
H1799 C1804 0.949 . S
H1800 C1806 0.950 . S
H1801 C1807 0.950 . S
H1802 C1808 0.949 . S
C1803 H1798 0.950 . S
C1803 C1805 1.327 . S
C1803 C1809 1.429 . S
C1804 C1796 1.574 . S
C1804 H1799 0.949 . S
C1804 C1810 1.368 . S
C1805 C1789 1.349 . S
C1805 H1797 0.950 . S
C1805 C1803 1.327 . S
C1806 C1794 1.349 . S
C1806 H1800 0.950 . S
C1806 C1807 1.327 . S
C1807 H1801 0.950 . S
C1807 C1806 1.327 . S
C1807 C1811 1.429 . S
C1808 C1791 1.574 . S
C1808 H1802 0.949 . S
C1808 C1812 1.368 . S
C1809 C1790 1.429 . S
C1809 C1803 1.429 . S
C1809 C1810 1.523 . S
C1810 C1791 1.368 . S
C1810 C1804 1.368 . S
C1810 C1809 1.523 . S
C1811 C1795 1.429 . S
C1811 C1807 1.429 . S
C1811 C1812 1.523 . S
C1812 C1796 1.368 . S
C1812 C1808 1.368 . S
C1812 C1811 1.523 . S
H1813 C1788 0.950 . S
H1814 C1790 0.950 . S
H1815 C1791 0.949 . S
H1816 C1793 0.950 . S
H1817 C1795 0.950 . S
C1818 C1819 1.349 . S
C1818 C1820 1.327 . S
C1818 H1843 0.950 . S
C1819 C1818 1.349 . S
C1819 C1835 1.349 . S
C1820 C1818 1.327 . S
C1820 C1839 1.429 . S
C1820 H1844 0.950 . S
C1821 C1838 1.574 . S
C1821 C1840 1.368 . S
C1821 H1845 0.949 . S
H1822 C1826 0.949 . S
C1823 C1824 1.349 . S
C1823 C1825 1.327 . S
C1823 H1846 0.950 . S
C1824 C1823 1.349 . S
C1824 C1836 1.349 . S
C1825 C1823 1.327 . S
C1825 C1841 1.429 . S
C1825 H1847 0.950 . S
C1826 H1822 0.949 . S
C1826 C1834 1.574 . S
C1826 C1842 1.368 . S
H1827 C1835 0.950 . S
H1828 C1833 0.950 . S
H1829 C1834 0.949 . S
H1830 C1836 0.950 . S
H1831 C1837 0.950 . S
H1832 C1838 0.949 . S
C1833 H1828 0.950 . S
C1833 C1835 1.327 . S
C1833 C1839 1.429 . S
C1834 C1826 1.574 . S
C1834 H1829 0.949 . S
C1834 C1840 1.368 . S
C1835 C1819 1.349 . S
C1835 H1827 0.950 . S
C1835 C1833 1.327 . S
C1836 C1824 1.349 . S
C1836 H1830 0.950 . S
C1836 C1837 1.327 . S
C1837 H1831 0.950 . S
C1837 C1836 1.327 . S
C1837 C1841 1.429 . S
C1838 C1821 1.574 . S
C1838 H1832 0.949 . S
C1838 C1842 1.368 . S
C1839 C1820 1.429 . S
C1839 C1833 1.429 . S
C1839 C1840 1.523 . S
C1840 C1821 1.368 . S
C1840 C1834 1.368 . S
C1840 C1839 1.523 . S
C1841 C1825 1.429 . S
C1841 C1837 1.429 . S
C1841 C1842 1.523 . S
C1842 C1826 1.368 . S
C1842 C1838 1.368 . S
C1842 C1841 1.523 . S
H1843 C1818 0.950 . S
H1844 C1820 0.950 . S
H1845 C1821 0.949 . S
H1846 C1823 0.950 . S
H1847 C1825 0.950 . S
C1848 C1849 1.349 . S
C1848 C1850 1.327 . S
C1848 H1873 0.950 . S
C1849 C1848 1.349 . S
C1849 C1865 1.349 . S
C1850 C1848 1.327 . S
C1850 C1869 1.429 . S
C1850 H1874 0.950 . S
C1851 C1868 1.574 . S
C1851 C1870 1.368 . S
C1851 H1875 0.949 . S
H1852 C1856 0.949 . S
C1853 C1854 1.349 . S
C1853 C1855 1.327 . S
C1853 H1876 0.950 . S
C1854 C1853 1.349 . S
C1854 C1866 1.349 . S
C1855 C1853 1.327 . S
C1855 C1871 1.429 . S
C1855 H1877 0.950 . S
C1856 H1852 0.949 . S
C1856 C1864 1.574 . S
C1856 C1872 1.368 . S
H1857 C1865 0.950 . S
H1858 C1863 0.950 . S
H1859 C1864 0.949 . S
H1860 C1866 0.950 . S
H1861 C1867 0.950 . S
H1862 C1868 0.949 . S
C1863 H1858 0.950 . S
C1863 C1865 1.327 . S
C1863 C1869 1.429 . S
C1864 C1856 1.574 . S
C1864 H1859 0.949 . S
C1864 C1870 1.368 . S
C1865 C1849 1.349 . S
C1865 H1857 0.950 . S
C1865 C1863 1.327 . S
C1866 C1854 1.349 . S
C1866 H1860 0.950 . S
C1866 C1867 1.327 . S
C1867 H1861 0.950 . S
C1867 C1866 1.327 . S
C1867 C1871 1.429 . S
C1868 C1851 1.574 . S
C1868 H1862 0.949 . S
C1868 C1872 1.368 . S
C1869 C1850 1.429 . S
C1869 C1863 1.429 . S
C1869 C1870 1.523 . S
C1870 C1851 1.368 . S
C1870 C1864 1.368 . S
C1870 C1869 1.523 . S
C1871 C1855 1.429 . S
C1871 C1867 1.429 . S
C1871 C1872 1.523 . S
C1872 C1856 1.368 . S
C1872 C1868 1.368 . S
C1872 C1871 1.523 . S
H1873 C1848 0.950 . S
H1874 C1850 0.950 . S
H1875 C1851 0.949 . S
H1876 C1853 0.950 . S
H1877 C1855 0.950 . S
C1878 C1879 1.349 . S
C1878 C1880 1.327 . S
C1878 H1903 0.950 . S
C1879 C1878 1.349 . S
C1879 C1895 1.349 . S
C1880 C1878 1.327 . S
C1880 C1899 1.429 . S
C1880 H1904 0.950 . S
C1881 C1898 1.574 . S
C1881 C1900 1.368 . S
C1881 H1905 0.949 . S
H1882 C1886 0.949 . S
C1883 C1884 1.349 . S
C1883 C1885 1.327 . S
C1883 H1906 0.950 . S
C1884 C1883 1.349 . S
C1884 C1896 1.349 . S
C1885 C1883 1.327 . S
C1885 C1901 1.429 . S
C1885 H1907 0.950 . S
C1886 H1882 0.949 . S
C1886 C1894 1.574 . S
C1886 C1902 1.368 . S
H1887 C1895 0.950 . S
H1888 C1893 0.950 . S
H1889 C1894 0.949 . S
H1890 C1896 0.950 . S
H1891 C1897 0.950 . S
H1892 C1898 0.949 . S
C1893 H1888 0.950 . S
C1893 C1895 1.327 . S
C1893 C1899 1.429 . S
C1894 C1886 1.574 . S
C1894 H1889 0.949 . S
C1894 C1900 1.368 . S
C1895 C1879 1.349 . S
C1895 H1887 0.950 . S
C1895 C1893 1.327 . S
C1896 C1884 1.349 . S
C1896 H1890 0.950 . S
C1896 C1897 1.327 . S
C1897 H1891 0.950 . S
C1897 C1896 1.327 . S
C1897 C1901 1.429 . S
C1898 C1881 1.574 . S
C1898 H1892 0.949 . S
C1898 C1902 1.368 . S
C1899 C1880 1.429 . S
C1899 C1893 1.429 . S
C1899 C1900 1.523 . S
C1900 C1881 1.368 . S
C1900 C1894 1.368 . S
C1900 C1899 1.523 . S
C1901 C1885 1.429 . S
C1901 C1897 1.429 . S
C1901 C1902 1.523 . S
C1902 C1886 1.368 . S
C1902 C1898 1.368 . S
C1902 C1901 1.523 . S
H1903 C1878 0.950 . S
H1904 C1880 0.950 . S
H1905 C1881 0.949 . S
H1906 C1883 0.950 . S
H1907 C1885 0.950 . S
C1908 C1909 1.349 . S
C1908 C1910 1.327 . S
C1908 H1933 0.950 . S
C1909 C1908 1.349 . S
C1909 C1925 1.349 . S
C1910 C1908 1.327 . S
C1910 C1929 1.429 . S
C1910 H1934 0.950 . S
C1911 C1928 1.574 . S
C1911 C1930 1.368 . S
C1911 H1935 0.949 . S
H1912 C1916 0.949 . S
C1913 C1914 1.349 . S
C1913 C1915 1.327 . S
C1913 H1936 0.950 . S
C1914 C1913 1.349 . S
C1914 C1926 1.349 . S
C1915 C1913 1.327 . S
C1915 C1931 1.429 . S
C1915 H1937 0.950 . S
C1916 H1912 0.949 . S
C1916 C1924 1.574 . S
C1916 C1932 1.368 . S
H1917 C1925 0.950 . S
H1918 C1923 0.950 . S
H1919 C1924 0.949 . S
H1920 C1926 0.950 . S
H1921 C1927 0.950 . S
H1922 C1928 0.949 . S
C1923 H1918 0.950 . S
C1923 C1925 1.327 . S
C1923 C1929 1.429 . S
C1924 C1916 1.574 . S
C1924 H1919 0.949 . S
C1924 C1930 1.368 . S
C1925 C1909 1.349 . S
C1925 H1917 0.950 . S
C1925 C1923 1.327 . S
C1926 C1914 1.349 . S
C1926 H1920 0.950 . S
C1926 C1927 1.327 . S
C1927 H1921 0.950 . S
C1927 C1926 1.327 . S
C1927 C1931 1.429 . S
C1928 C1911 1.574 . S
C1928 H1922 0.949 . S
C1928 C1932 1.368 . S
C1929 C1910 1.429 . S
C1929 C1923 1.429 . S
C1929 C1930 1.523 . S
C1930 C1911 1.368 . S
C1930 C1924 1.368 . S
C1930 C1929 1.523 . S
C1931 C1915 1.429 . S
C1931 C1927 1.429 . S
C1931 C1932 1.523 . S
C1932 C1916 1.368 . S
C1932 C1928 1.368 . S
C1932 C1931 1.523 . S
H1933 C1908 0.950 . S
H1934 C1910 0.950 . S
H1935 C1911 0.949 . S
H1936 C1913 0.950 . S
H1937 C1915 0.950 . S
C1938 C1939 1.349 . S
C1938 C1940 1.327 . S
C1938 H1963 0.950 . S
C1939 C1938 1.349 . S
C1939 C1955 1.349 . S
C1940 C1938 1.327 . S
C1940 C1959 1.429 . S
C1940 H1964 0.950 . S
C1941 C1958 1.574 . S
C1941 C1960 1.368 . S
C1941 H1965 0.949 . S
H1942 C1946 0.949 . S
C1943 C1944 1.349 . S
C1943 C1945 1.327 . S
C1943 H1966 0.950 . S
C1944 C1943 1.349 . S
C1944 C1956 1.349 . S
C1945 C1943 1.327 . S
C1945 C1961 1.429 . S
C1945 H1967 0.950 . S
C1946 H1942 0.949 . S
C1946 C1954 1.574 . S
C1946 C1962 1.368 . S
H1947 C1955 0.950 . S
H1948 C1953 0.950 . S
H1949 C1954 0.949 . S
H1950 C1956 0.950 . S
H1951 C1957 0.950 . S
H1952 C1958 0.949 . S
C1953 H1948 0.950 . S
C1953 C1955 1.327 . S
C1953 C1959 1.429 . S
C1954 C1946 1.574 . S
C1954 H1949 0.949 . S
C1954 C1960 1.368 . S
C1955 C1939 1.349 . S
C1955 H1947 0.950 . S
C1955 C1953 1.327 . S
C1956 C1944 1.349 . S
C1956 H1950 0.950 . S
C1956 C1957 1.327 . S
C1957 H1951 0.950 . S
C1957 C1956 1.327 . S
C1957 C1961 1.429 . S
C1958 C1941 1.574 . S
C1958 H1952 0.949 . S
C1958 C1962 1.368 . S
C1959 C1940 1.429 . S
C1959 C1953 1.429 . S
C1959 C1960 1.523 . S
C1960 C1941 1.368 . S
C1960 C1954 1.368 . S
C1960 C1959 1.523 . S
C1961 C1945 1.429 . S
C1961 C1957 1.429 . S
C1961 C1962 1.523 . S
C1962 C1946 1.368 . S
C1962 C1958 1.368 . S
C1962 C1961 1.523 . S
H1963 C1938 0.950 . S
H1964 C1940 0.950 . S
H1965 C1941 0.949 . S
H1966 C1943 0.950 . S
H1967 C1945 0.950 . S
C1968 C1969 1.349 . S
C1968 C1970 1.327 . S
C1968 H1993 0.950 . S
C1969 C1968 1.349 . S
C1969 C1985 1.349 . S
C1970 C1968 1.327 . S
C1970 C1989 1.429 . S
C1970 H1994 0.950 . S
C1971 C1988 1.574 . S
C1971 C1990 1.368 . S
C1971 H1995 0.949 . S
H1972 C1976 0.949 . S
C1973 C1974 1.349 . S
C1973 C1975 1.327 . S
C1973 H1996 0.950 . S
C1974 C1973 1.349 . S
C1974 C1986 1.349 . S
C1975 C1973 1.327 . S
C1975 C1991 1.429 . S
C1975 H1997 0.950 . S
C1976 H1972 0.949 . S
C1976 C1984 1.574 . S
C1976 C1992 1.368 . S
H1977 C1985 0.950 . S
H1978 C1983 0.950 . S
H1979 C1984 0.949 . S
H1980 C1986 0.950 . S
H1981 C1987 0.950 . S
H1982 C1988 0.949 . S
C1983 H1978 0.950 . S
C1983 C1985 1.327 . S
C1983 C1989 1.429 . S
C1984 C1976 1.574 . S
C1984 H1979 0.949 . S
C1984 C1990 1.368 . S
C1985 C1969 1.349 . S
C1985 H1977 0.950 . S
C1985 C1983 1.327 . S
C1986 C1974 1.349 . S
C1986 H1980 0.950 . S
C1986 C1987 1.327 . S
C1987 H1981 0.950 . S
C1987 C1986 1.327 . S
C1987 C1991 1.429 . S
C1988 C1971 1.574 . S
C1988 H1982 0.949 . S
C1988 C1992 1.368 . S
C1989 C1970 1.429 . S
C1989 C1983 1.429 . S
C1989 C1990 1.523 . S
C1990 C1971 1.368 . S
C1990 C1984 1.368 . S
C1990 C1989 1.523 . S
C1991 C1975 1.429 . S
C1991 C1987 1.429 . S
C1991 C1992 1.523 . S
C1992 C1976 1.368 . S
C1992 C1988 1.368 . S
C1992 C1991 1.523 . S
H1993 C1968 0.950 . S
H1994 C1970 0.950 . S
H1995 C1971 0.949 . S
H1996 C1973 0.950 . S
H1997 C1975 0.950 . S
C1998 C1999 1.349 . S
C1998 C2000 1.327 . S
C1998 H2023 0.950 . S
C1999 C1998 1.349 . S
C1999 C2015 1.349 . S
C2000 C1998 1.327 . S
C2000 C2019 1.429 . S
C2000 H2024 0.950 . S
C2001 C2018 1.574 . S
C2001 C2020 1.368 . S
C2001 H2025 0.949 . S
H2002 C2006 0.949 . S
C2003 C2004 1.349 . S
C2003 C2005 1.327 . S
C2003 H2026 0.950 . S
C2004 C2003 1.349 . S
C2004 C2016 1.349 . S
C2005 C2003 1.327 . S
C2005 C2021 1.429 . S
C2005 H2027 0.950 . S
C2006 H2002 0.949 . S
C2006 C2014 1.574 . S
C2006 C2022 1.368 . S
H2007 C2015 0.950 . S
H2008 C2013 0.950 . S
H2009 C2014 0.949 . S
H2010 C2016 0.950 . S
H2011 C2017 0.950 . S
H2012 C2018 0.949 . S
C2013 H2008 0.950 . S
C2013 C2015 1.327 . S
C2013 C2019 1.429 . S
C2014 C2006 1.574 . S
C2014 H2009 0.949 . S
C2014 C2020 1.368 . S
C2015 C1999 1.349 . S
C2015 H2007 0.950 . S
C2015 C2013 1.327 . S
C2016 C2004 1.349 . S
C2016 H2010 0.950 . S
C2016 C2017 1.327 . S
C2017 H2011 0.950 . S
C2017 C2016 1.327 . S
C2017 C2021 1.429 . S
C2018 C2001 1.574 . S
C2018 H2012 0.949 . S
C2018 C2022 1.368 . S
C2019 C2000 1.429 . S
C2019 C2013 1.429 . S
C2019 C2020 1.523 . S
C2020 C2001 1.368 . S
C2020 C2014 1.368 . S
C2020 C2019 1.523 . S
C2021 C2005 1.429 . S
C2021 C2017 1.429 . S
C2021 C2022 1.523 . S
C2022 C2006 1.368 . S
C2022 C2018 1.368 . S
C2022 C2021 1.523 . S
H2023 C1998 0.950 . S
H2024 C2000 0.950 . S
H2025 C2001 0.949 . S
H2026 C2003 0.950 . S
H2027 C2005 0.950 . S
C2028 C2029 1.349 . S
C2028 C2030 1.327 . S
C2028 H2053 0.950 . S
C2029 C2028 1.349 . S
C2029 C2045 1.349 . S
C2030 C2028 1.327 . S
C2030 C2049 1.429 . S
C2030 H2054 0.950 . S
C2031 C2048 1.574 . S
C2031 C2050 1.368 . S
C2031 H2055 0.949 . S
H2032 C2036 0.949 . S
C2033 C2034 1.349 . S
C2033 C2035 1.327 . S
C2033 H2056 0.950 . S
C2034 C2033 1.349 . S
C2034 C2046 1.349 . S
C2035 C2033 1.327 . S
C2035 C2051 1.429 . S
C2035 H2057 0.950 . S
C2036 H2032 0.949 . S
C2036 C2044 1.574 . S
C2036 C2052 1.368 . S
H2037 C2045 0.950 . S
H2038 C2043 0.950 . S
H2039 C2044 0.949 . S
H2040 C2046 0.950 . S
H2041 C2047 0.950 . S
H2042 C2048 0.949 . S
C2043 H2038 0.950 . S
C2043 C2045 1.327 . S
C2043 C2049 1.429 . S
C2044 C2036 1.574 . S
C2044 H2039 0.949 . S
C2044 C2050 1.368 . S
C2045 C2029 1.349 . S
C2045 H2037 0.950 . S
C2045 C2043 1.327 . S
C2046 C2034 1.349 . S
C2046 H2040 0.950 . S
C2046 C2047 1.327 . S
C2047 H2041 0.950 . S
C2047 C2046 1.327 . S
C2047 C2051 1.429 . S
C2048 C2031 1.574 . S
C2048 H2042 0.949 . S
C2048 C2052 1.368 . S
C2049 C2030 1.429 . S
C2049 C2043 1.429 . S
C2049 C2050 1.523 . S
C2050 C2031 1.368 . S
C2050 C2044 1.368 . S
C2050 C2049 1.523 . S
C2051 C2035 1.429 . S
C2051 C2047 1.429 . S
C2051 C2052 1.523 . S
C2052 C2036 1.368 . S
C2052 C2048 1.368 . S
C2052 C2051 1.523 . S
H2053 C2028 0.950 . S
H2054 C2030 0.950 . S
H2055 C2031 0.949 . S
H2056 C2033 0.950 . S
H2057 C2035 0.950 . S
C2058 C2059 1.349 . S
C2058 C2060 1.327 . S
C2058 H2083 0.950 . S
C2059 C2058 1.349 . S
C2059 C2075 1.349 . S
C2060 C2058 1.327 . S
C2060 C2079 1.429 . S
C2060 H2084 0.950 . S
C2061 C2078 1.574 . S
C2061 C2080 1.368 . S
C2061 H2085 0.949 . S
H2062 C2066 0.949 . S
C2063 C2064 1.349 . S
C2063 C2065 1.327 . S
C2063 H2086 0.950 . S
C2064 C2063 1.349 . S
C2064 C2076 1.349 . S
C2065 C2063 1.327 . S
C2065 C2081 1.429 . S
C2065 H2087 0.950 . S
C2066 H2062 0.949 . S
C2066 C2074 1.574 . S
C2066 C2082 1.368 . S
H2067 C2075 0.950 . S
H2068 C2073 0.950 . S
H2069 C2074 0.949 . S
H2070 C2076 0.950 . S
H2071 C2077 0.950 . S
H2072 C2078 0.949 . S
C2073 H2068 0.950 . S
C2073 C2075 1.327 . S
C2073 C2079 1.429 . S
C2074 C2066 1.574 . S
C2074 H2069 0.949 . S
C2074 C2080 1.368 . S
C2075 C2059 1.349 . S
C2075 H2067 0.950 . S
C2075 C2073 1.327 . S
C2076 C2064 1.349 . S
C2076 H2070 0.950 . S
C2076 C2077 1.327 . S
C2077 H2071 0.950 . S
C2077 C2076 1.327 . S
C2077 C2081 1.429 . S
C2078 C2061 1.574 . S
C2078 H2072 0.949 . S
C2078 C2082 1.368 . S
C2079 C2060 1.429 . S
C2079 C2073 1.429 . S
C2079 C2080 1.523 . S
C2080 C2061 1.368 . S
C2080 C2074 1.368 . S
C2080 C2079 1.523 . S
C2081 C2065 1.429 . S
C2081 C2077 1.429 . S
C2081 C2082 1.523 . S
C2082 C2066 1.368 . S
C2082 C2078 1.368 . S
C2082 C2081 1.523 . S
H2083 C2058 0.950 . S
H2084 C2060 0.950 . S
H2085 C2061 0.949 . S
H2086 C2063 0.950 . S
H2087 C2065 0.950 . S
C2088 C2089 1.349 . S
C2088 C2090 1.327 . S
C2088 H2113 0.950 . S
C2089 C2088 1.349 . S
C2089 C2105 1.349 . S
C2090 C2088 1.327 . S
C2090 C2109 1.429 . S
C2090 H2114 0.950 . S
C2091 C2108 1.574 . S
C2091 C2110 1.368 . S
C2091 H2115 0.949 . S
H2092 C2096 0.949 . S
C2093 C2094 1.349 . S
C2093 C2095 1.327 . S
C2093 H2116 0.950 . S
C2094 C2093 1.349 . S
C2094 C2106 1.349 . S
C2095 C2093 1.327 . S
C2095 C2111 1.429 . S
C2095 H2117 0.950 . S
C2096 H2092 0.949 . S
C2096 C2104 1.574 . S
C2096 C2112 1.368 . S
H2097 C2105 0.950 . S
H2098 C2103 0.950 . S
H2099 C2104 0.949 . S
H2100 C2106 0.950 . S
H2101 C2107 0.950 . S
H2102 C2108 0.949 . S
C2103 H2098 0.950 . S
C2103 C2105 1.327 . S
C2103 C2109 1.429 . S
C2104 C2096 1.574 . S
C2104 H2099 0.949 . S
C2104 C2110 1.368 . S
C2105 C2089 1.349 . S
C2105 H2097 0.950 . S
C2105 C2103 1.327 . S
C2106 C2094 1.349 . S
C2106 H2100 0.950 . S
C2106 C2107 1.327 . S
C2107 H2101 0.950 . S
C2107 C2106 1.327 . S
C2107 C2111 1.429 . S
C2108 C2091 1.574 . S
C2108 H2102 0.949 . S
C2108 C2112 1.368 . S
C2109 C2090 1.429 . S
C2109 C2103 1.429 . S
C2109 C2110 1.523 . S
C2110 C2091 1.368 . S
C2110 C2104 1.368 . S
C2110 C2109 1.523 . S
C2111 C2095 1.429 . S
C2111 C2107 1.429 . S
C2111 C2112 1.523 . S
C2112 C2096 1.368 . S
C2112 C2108 1.368 . S
C2112 C2111 1.523 . S
H2113 C2088 0.950 . S
H2114 C2090 0.950 . S
H2115 C2091 0.949 . S
H2116 C2093 0.950 . S
H2117 C2095 0.950 . S
C2118 C2119 1.349 . S
C2118 C2120 1.327 . S
C2118 H2143 0.950 . S
C2119 C2118 1.349 . S
C2119 C2135 1.349 . S
C2120 C2118 1.327 . S
C2120 C2139 1.429 . S
C2120 H2144 0.950 . S
C2121 C2138 1.574 . S
C2121 C2140 1.368 . S
C2121 H2145 0.949 . S
H2122 C2126 0.949 . S
C2123 C2124 1.349 . S
C2123 C2125 1.327 . S
C2123 H2146 0.950 . S
C2124 C2123 1.349 . S
C2124 C2136 1.349 . S
C2125 C2123 1.327 . S
C2125 C2141 1.429 . S
C2125 H2147 0.950 . S
C2126 H2122 0.949 . S
C2126 C2134 1.574 . S
C2126 C2142 1.368 . S
H2127 C2135 0.950 . S
H2128 C2133 0.950 . S
H2129 C2134 0.949 . S
H2130 C2136 0.950 . S
H2131 C2137 0.950 . S
H2132 C2138 0.949 . S
C2133 H2128 0.950 . S
C2133 C2135 1.327 . S
C2133 C2139 1.429 . S
C2134 C2126 1.574 . S
C2134 H2129 0.949 . S
C2134 C2140 1.368 . S
C2135 C2119 1.349 . S
C2135 H2127 0.950 . S
C2135 C2133 1.327 . S
C2136 C2124 1.349 . S
C2136 H2130 0.950 . S
C2136 C2137 1.327 . S
C2137 H2131 0.950 . S
C2137 C2136 1.327 . S
C2137 C2141 1.429 . S
C2138 C2121 1.574 . S
C2138 H2132 0.949 . S
C2138 C2142 1.368 . S
C2139 C2120 1.429 . S
C2139 C2133 1.429 . S
C2139 C2140 1.523 . S
C2140 C2121 1.368 . S
C2140 C2134 1.368 . S
C2140 C2139 1.523 . S
C2141 C2125 1.429 . S
C2141 C2137 1.429 . S
C2141 C2142 1.523 . S
C2142 C2126 1.368 . S
C2142 C2138 1.368 . S
C2142 C2141 1.523 . S
H2143 C2118 0.950 . S
H2144 C2120 0.950 . S
H2145 C2121 0.949 . S
H2146 C2123 0.950 . S
H2147 C2125 0.950 . S
C2148 C2149 1.349 . S
C2148 C2150 1.327 . S
C2148 H2173 0.950 . S
C2149 C2148 1.349 . S
C2149 C2165 1.349 . S
C2150 C2148 1.327 . S
C2150 C2169 1.429 . S
C2150 H2174 0.950 . S
C2151 C2168 1.574 . S
C2151 C2170 1.368 . S
C2151 H2175 0.949 . S
H2152 C2156 0.949 . S
C2153 C2154 1.349 . S
C2153 C2155 1.327 . S
C2153 H2176 0.950 . S
C2154 C2153 1.349 . S
C2154 C2166 1.349 . S
C2155 C2153 1.327 . S
C2155 C2171 1.429 . S
C2155 H2177 0.950 . S
C2156 H2152 0.949 . S
C2156 C2164 1.574 . S
C2156 C2172 1.368 . S
H2157 C2165 0.950 . S
H2158 C2163 0.950 . S
H2159 C2164 0.949 . S
H2160 C2166 0.950 . S
H2161 C2167 0.950 . S
H2162 C2168 0.949 . S
C2163 H2158 0.950 . S
C2163 C2165 1.327 . S
C2163 C2169 1.429 . S
C2164 C2156 1.574 . S
C2164 H2159 0.949 . S
C2164 C2170 1.368 . S
C2165 C2149 1.349 . S
C2165 H2157 0.950 . S
C2165 C2163 1.327 . S
C2166 C2154 1.349 . S
C2166 H2160 0.950 . S
C2166 C2167 1.327 . S
C2167 H2161 0.950 . S
C2167 C2166 1.327 . S
C2167 C2171 1.429 . S
C2168 C2151 1.574 . S
C2168 H2162 0.949 . S
C2168 C2172 1.368 . S
C2169 C2150 1.429 . S
C2169 C2163 1.429 . S
C2169 C2170 1.523 . S
C2170 C2151 1.368 . S
C2170 C2164 1.368 . S
C2170 C2169 1.523 . S
C2171 C2155 1.429 . S
C2171 C2167 1.429 . S
C2171 C2172 1.523 . S
C2172 C2156 1.368 . S
C2172 C2168 1.368 . S
C2172 C2171 1.523 . S
H2173 C2148 0.950 . S
H2174 C2150 0.950 . S
H2175 C2151 0.949 . S
H2176 C2153 0.950 . S
H2177 C2155 0.950 . S
C2178 C2179 1.349 . S
C2178 C2180 1.327 . S
C2178 H2203 0.950 . S
C2179 C2178 1.349 . S
C2179 C2195 1.349 . S
C2180 C2178 1.327 . S
C2180 C2199 1.429 . S
C2180 H2204 0.950 . S
C2181 C2198 1.574 . S
C2181 C2200 1.368 . S
C2181 H2205 0.949 . S
H2182 C2186 0.949 . S
C2183 C2184 1.349 . S
C2183 C2185 1.327 . S
C2183 H2206 0.950 . S
C2184 C2183 1.349 . S
C2184 C2196 1.349 . S
C2185 C2183 1.327 . S
C2185 C2201 1.429 . S
C2185 H2207 0.950 . S
C2186 H2182 0.949 . S
C2186 C2194 1.574 . S
C2186 C2202 1.368 . S
H2187 C2195 0.950 . S
H2188 C2193 0.950 . S
H2189 C2194 0.949 . S
H2190 C2196 0.950 . S
H2191 C2197 0.950 . S
H2192 C2198 0.949 . S
C2193 H2188 0.950 . S
C2193 C2195 1.327 . S
C2193 C2199 1.429 . S
C2194 C2186 1.574 . S
C2194 H2189 0.949 . S
C2194 C2200 1.368 . S
C2195 C2179 1.349 . S
C2195 H2187 0.950 . S
C2195 C2193 1.327 . S
C2196 C2184 1.349 . S
C2196 H2190 0.950 . S
C2196 C2197 1.327 . S
C2197 H2191 0.950 . S
C2197 C2196 1.327 . S
C2197 C2201 1.429 . S
C2198 C2181 1.574 . S
C2198 H2192 0.949 . S
C2198 C2202 1.368 . S
C2199 C2180 1.429 . S
C2199 C2193 1.429 . S
C2199 C2200 1.523 . S
C2200 C2181 1.368 . S
C2200 C2194 1.368 . S
C2200 C2199 1.523 . S
C2201 C2185 1.429 . S
C2201 C2197 1.429 . S
C2201 C2202 1.523 . S
C2202 C2186 1.368 . S
C2202 C2198 1.368 . S
C2202 C2201 1.523 . S
H2203 C2178 0.950 . S
H2204 C2180 0.950 . S
H2205 C2181 0.949 . S
H2206 C2183 0.950 . S
H2207 C2185 0.950 . S
C2208 C2209 1.349 . S
C2208 C2210 1.327 . S
C2208 H2233 0.950 . S
C2209 C2208 1.349 . S
C2209 C2225 1.349 . S
C2210 C2208 1.327 . S
C2210 C2229 1.429 . S
C2210 H2234 0.950 . S
C2211 C2228 1.574 . S
C2211 C2230 1.368 . S
C2211 H2235 0.949 . S
H2212 C2216 0.949 . S
C2213 C2214 1.349 . S
C2213 C2215 1.327 . S
C2213 H2236 0.950 . S
C2214 C2213 1.349 . S
C2214 C2226 1.349 . S
C2215 C2213 1.327 . S
C2215 C2231 1.429 . S
C2215 H2237 0.950 . S
C2216 H2212 0.949 . S
C2216 C2224 1.574 . S
C2216 C2232 1.368 . S
H2217 C2225 0.950 . S
H2218 C2223 0.950 . S
H2219 C2224 0.949 . S
H2220 C2226 0.950 . S
H2221 C2227 0.950 . S
H2222 C2228 0.949 . S
C2223 H2218 0.950 . S
C2223 C2225 1.327 . S
C2223 C2229 1.429 . S
C2224 C2216 1.574 . S
C2224 H2219 0.949 . S
C2224 C2230 1.368 . S
C2225 C2209 1.349 . S
C2225 H2217 0.950 . S
C2225 C2223 1.327 . S
C2226 C2214 1.349 . S
C2226 H2220 0.950 . S
C2226 C2227 1.327 . S
C2227 H2221 0.950 . S
C2227 C2226 1.327 . S
C2227 C2231 1.429 . S
C2228 C2211 1.574 . S
C2228 H2222 0.949 . S
C2228 C2232 1.368 . S
C2229 C2210 1.429 . S
C2229 C2223 1.429 . S
C2229 C2230 1.523 . S
C2230 C2211 1.368 . S
C2230 C2224 1.368 . S
C2230 C2229 1.523 . S
C2231 C2215 1.429 . S
C2231 C2227 1.429 . S
C2231 C2232 1.523 . S
C2232 C2216 1.368 . S
C2232 C2228 1.368 . S
C2232 C2231 1.523 . S
H2233 C2208 0.950 . S
H2234 C2210 0.950 . S
H2235 C2211 0.949 . S
H2236 C2213 0.950 . S
H2237 C2215 0.950 . S
C2238 C2239 1.349 . S
C2238 C2240 1.327 . S
C2238 H2263 0.950 . S
C2239 C2238 1.349 . S
C2239 C2255 1.349 . S
C2240 C2238 1.327 . S
C2240 C2259 1.429 . S
C2240 H2264 0.950 . S
C2241 C2258 1.574 . S
C2241 C2260 1.368 . S
C2241 H2265 0.949 . S
H2242 C2246 0.949 . S
C2243 C2244 1.349 . S
C2243 C2245 1.327 . S
C2243 H2266 0.950 . S
C2244 C2243 1.349 . S
C2244 C2256 1.349 . S
C2245 C2243 1.327 . S
C2245 C2261 1.429 . S
C2245 H2267 0.950 . S
C2246 H2242 0.949 . S
C2246 C2254 1.574 . S
C2246 C2262 1.368 . S
H2247 C2255 0.950 . S
H2248 C2253 0.950 . S
H2249 C2254 0.949 . S
H2250 C2256 0.950 . S
H2251 C2257 0.950 . S
H2252 C2258 0.949 . S
C2253 H2248 0.950 . S
C2253 C2255 1.327 . S
C2253 C2259 1.429 . S
C2254 C2246 1.574 . S
C2254 H2249 0.949 . S
C2254 C2260 1.368 . S
C2255 C2239 1.349 . S
C2255 H2247 0.950 . S
C2255 C2253 1.327 . S
C2256 C2244 1.349 . S
C2256 H2250 0.950 . S
C2256 C2257 1.327 . S
C2257 H2251 0.950 . S
C2257 C2256 1.327 . S
C2257 C2261 1.429 . S
C2258 C2241 1.574 . S
C2258 H2252 0.949 . S
C2258 C2262 1.368 . S
C2259 C2240 1.429 . S
C2259 C2253 1.429 . S
C2259 C2260 1.523 . S
C2260 C2241 1.368 . S
C2260 C2254 1.368 . S
C2260 C2259 1.523 . S
C2261 C2245 1.429 . S
C2261 C2257 1.429 . S
C2261 C2262 1.523 . S
C2262 C2246 1.368 . S
C2262 C2258 1.368 . S
C2262 C2261 1.523 . S
H2263 C2238 0.950 . S
H2264 C2240 0.950 . S
H2265 C2241 0.949 . S
H2266 C2243 0.950 . S
H2267 C2245 0.950 . S
C2268 C2269 1.349 . S
C2268 C2270 1.327 . S
C2268 H2293 0.950 . S
C2269 C2268 1.349 . S
C2269 C2285 1.349 . S
C2270 C2268 1.327 . S
C2270 C2289 1.429 . S
C2270 H2294 0.950 . S
C2271 C2288 1.574 . S
C2271 C2290 1.368 . S
C2271 H2295 0.949 . S
H2272 C2276 0.949 . S
C2273 C2274 1.349 . S
C2273 C2275 1.327 . S
C2273 H2296 0.950 . S
C2274 C2273 1.349 . S
C2274 C2286 1.349 . S
C2275 C2273 1.327 . S
C2275 C2291 1.429 . S
C2275 H2297 0.950 . S
C2276 H2272 0.949 . S
C2276 C2284 1.574 . S
C2276 C2292 1.368 . S
H2277 C2285 0.950 . S
H2278 C2283 0.950 . S
H2279 C2284 0.949 . S
H2280 C2286 0.950 . S
H2281 C2287 0.950 . S
H2282 C2288 0.949 . S
C2283 H2278 0.950 . S
C2283 C2285 1.327 . S
C2283 C2289 1.429 . S
C2284 C2276 1.574 . S
C2284 H2279 0.949 . S
C2284 C2290 1.368 . S
C2285 C2269 1.349 . S
C2285 H2277 0.950 . S
C2285 C2283 1.327 . S
C2286 C2274 1.349 . S
C2286 H2280 0.950 . S
C2286 C2287 1.327 . S
C2287 H2281 0.950 . S
C2287 C2286 1.327 . S
C2287 C2291 1.429 . S
C2288 C2271 1.574 . S
C2288 H2282 0.949 . S
C2288 C2292 1.368 . S
C2289 C2270 1.429 . S
C2289 C2283 1.429 . S
C2289 C2290 1.523 . S
C2290 C2271 1.368 . S
C2290 C2284 1.368 . S
C2290 C2289 1.523 . S
C2291 C2275 1.429 . S
C2291 C2287 1.429 . S
C2291 C2292 1.523 . S
C2292 C2276 1.368 . S
C2292 C2288 1.368 . S
C2292 C2291 1.523 . S
H2293 C2268 0.950 . S
H2294 C2270 0.950 . S
H2295 C2271 0.949 . S
H2296 C2273 0.950 . S
H2297 C2275 0.950 . S
C2298 C2299 1.349 . S
C2298 C2300 1.327 . S
C2298 H2323 0.950 . S
C2299 C2298 1.349 . S
C2299 C2315 1.349 . S
C2300 C2298 1.327 . S
C2300 C2319 1.429 . S
C2300 H2324 0.950 . S
C2301 C2318 1.574 . S
C2301 C2320 1.368 . S
C2301 H2325 0.949 . S
H2302 C2306 0.949 . S
C2303 C2304 1.349 . S
C2303 C2305 1.327 . S
C2303 H2326 0.950 . S
C2304 C2303 1.349 . S
C2304 C2316 1.349 . S
C2305 C2303 1.327 . S
C2305 C2321 1.429 . S
C2305 H2327 0.950 . S
C2306 H2302 0.949 . S
C2306 C2314 1.574 . S
C2306 C2322 1.368 . S
H2307 C2315 0.950 . S
H2308 C2313 0.950 . S
H2309 C2314 0.949 . S
H2310 C2316 0.950 . S
H2311 C2317 0.950 . S
H2312 C2318 0.949 . S
C2313 H2308 0.950 . S
C2313 C2315 1.327 . S
C2313 C2319 1.429 . S
C2314 C2306 1.574 . S
C2314 H2309 0.949 . S
C2314 C2320 1.368 . S
C2315 C2299 1.349 . S
C2315 H2307 0.950 . S
C2315 C2313 1.327 . S
C2316 C2304 1.349 . S
C2316 H2310 0.950 . S
C2316 C2317 1.327 . S
C2317 H2311 0.950 . S
C2317 C2316 1.327 . S
C2317 C2321 1.429 . S
C2318 C2301 1.574 . S
C2318 H2312 0.949 . S
C2318 C2322 1.368 . S
C2319 C2300 1.429 . S
C2319 C2313 1.429 . S
C2319 C2320 1.523 . S
C2320 C2301 1.368 . S
C2320 C2314 1.368 . S
C2320 C2319 1.523 . S
C2321 C2305 1.429 . S
C2321 C2317 1.429 . S
C2321 C2322 1.523 . S
C2322 C2306 1.368 . S
C2322 C2318 1.368 . S
C2322 C2321 1.523 . S
H2323 C2298 0.950 . S
H2324 C2300 0.950 . S
H2325 C2301 0.949 . S
H2326 C2303 0.950 . S
H2327 C2305 0.950 . S
C2328 C2329 1.349 . S
C2328 C2330 1.327 . S
C2328 H2353 0.950 . S
C2329 C2328 1.349 . S
C2329 C2345 1.349 . S
C2330 C2328 1.327 . S
C2330 C2349 1.429 . S
C2330 H2354 0.950 . S
C2331 C2348 1.574 . S
C2331 C2350 1.368 . S
C2331 H2355 0.949 . S
H2332 C2336 0.949 . S
C2333 C2334 1.349 . S
C2333 C2335 1.327 . S
C2333 H2356 0.950 . S
C2334 C2333 1.349 . S
C2334 C2346 1.349 . S
C2335 C2333 1.327 . S
C2335 C2351 1.429 . S
C2335 H2357 0.950 . S
C2336 H2332 0.949 . S
C2336 C2344 1.574 . S
C2336 C2352 1.368 . S
H2337 C2345 0.950 . S
H2338 C2343 0.950 . S
H2339 C2344 0.949 . S
H2340 C2346 0.950 . S
H2341 C2347 0.950 . S
H2342 C2348 0.949 . S
C2343 H2338 0.950 . S
C2343 C2345 1.327 . S
C2343 C2349 1.429 . S
C2344 C2336 1.574 . S
C2344 H2339 0.949 . S
C2344 C2350 1.368 . S
C2345 C2329 1.349 . S
C2345 H2337 0.950 . S
C2345 C2343 1.327 . S
C2346 C2334 1.349 . S
C2346 H2340 0.950 . S
C2346 C2347 1.327 . S
C2347 H2341 0.950 . S
C2347 C2346 1.327 . S
C2347 C2351 1.429 . S
C2348 C2331 1.574 . S
C2348 H2342 0.949 . S
C2348 C2352 1.368 . S
C2349 C2330 1.429 . S
C2349 C2343 1.429 . S
C2349 C2350 1.523 . S
C2350 C2331 1.368 . S
C2350 C2344 1.368 . S
C2350 C2349 1.523 . S
C2351 C2335 1.429 . S
C2351 C2347 1.429 . S
C2351 C2352 1.523 . S
C2352 C2336 1.368 . S
C2352 C2348 1.368 . S
C2352 C2351 1.523 . S
H2353 C2328 0.950 . S
H2354 C2330 0.950 . S
H2355 C2331 0.949 . S
H2356 C2333 0.950 . S
H2357 C2335 0.950 . S
C2358 C2359 1.349 . S
C2358 C2360 1.327 . S
C2358 H2383 0.950 . S
C2359 C2358 1.349 . S
C2359 C2375 1.349 . S
C2360 C2358 1.327 . S
C2360 C2379 1.429 . S
C2360 H2384 0.950 . S
C2361 C2378 1.574 . S
C2361 C2380 1.368 . S
C2361 H2385 0.949 . S
H2362 C2366 0.949 . S
C2363 C2364 1.349 . S
C2363 C2365 1.327 . S
C2363 H2386 0.950 . S
C2364 C2363 1.349 . S
C2364 C2376 1.349 . S
C2365 C2363 1.327 . S
C2365 C2381 1.429 . S
C2365 H2387 0.950 . S
C2366 H2362 0.949 . S
C2366 C2374 1.574 . S
C2366 C2382 1.368 . S
H2367 C2375 0.950 . S
H2368 C2373 0.950 . S
H2369 C2374 0.949 . S
H2370 C2376 0.950 . S
H2371 C2377 0.950 . S
H2372 C2378 0.949 . S
C2373 H2368 0.950 . S
C2373 C2375 1.327 . S
C2373 C2379 1.429 . S
C2374 C2366 1.574 . S
C2374 H2369 0.949 . S
C2374 C2380 1.368 . S
C2375 C2359 1.349 . S
C2375 H2367 0.950 . S
C2375 C2373 1.327 . S
C2376 C2364 1.349 . S
C2376 H2370 0.950 . S
C2376 C2377 1.327 . S
C2377 H2371 0.950 . S
C2377 C2376 1.327 . S
C2377 C2381 1.429 . S
C2378 C2361 1.574 . S
C2378 H2372 0.949 . S
C2378 C2382 1.368 . S
C2379 C2360 1.429 . S
C2379 C2373 1.429 . S
C2379 C2380 1.523 . S
C2380 C2361 1.368 . S
C2380 C2374 1.368 . S
C2380 C2379 1.523 . S
C2381 C2365 1.429 . S
C2381 C2377 1.429 . S
C2381 C2382 1.523 . S
C2382 C2366 1.368 . S
C2382 C2378 1.368 . S
C2382 C2381 1.523 . S
H2383 C2358 0.950 . S
H2384 C2360 0.950 . S
H2385 C2361 0.949 . S
H2386 C2363 0.950 . S
H2387 C2365 0.950 . S
C2388 C2389 1.349 . S
C2388 C2390 1.327 . S
C2388 H2413 0.950 . S
C2389 C2388 1.349 . S
C2389 C2405 1.349 . S
C2390 C2388 1.327 . S
C2390 C2409 1.429 . S
C2390 H2414 0.950 . S
C2391 C2408 1.574 . S
C2391 C2410 1.368 . S
C2391 H2415 0.949 . S
H2392 C2396 0.949 . S
C2393 C2394 1.349 . S
C2393 C2395 1.327 . S
C2393 H2416 0.950 . S
C2394 C2393 1.349 . S
C2394 C2406 1.349 . S
C2395 C2393 1.327 . S
C2395 C2411 1.429 . S
C2395 H2417 0.950 . S
C2396 H2392 0.949 . S
C2396 C2404 1.574 . S
C2396 C2412 1.368 . S
H2397 C2405 0.950 . S
H2398 C2403 0.950 . S
H2399 C2404 0.949 . S
H2400 C2406 0.950 . S
H2401 C2407 0.950 . S
H2402 C2408 0.949 . S
C2403 H2398 0.950 . S
C2403 C2405 1.327 . S
C2403 C2409 1.429 . S
C2404 C2396 1.574 . S
C2404 H2399 0.949 . S
C2404 C2410 1.368 . S
C2405 C2389 1.349 . S
C2405 H2397 0.950 . S
C2405 C2403 1.327 . S
C2406 C2394 1.349 . S
C2406 H2400 0.950 . S
C2406 C2407 1.327 . S
C2407 H2401 0.950 . S
C2407 C2406 1.327 . S
C2407 C2411 1.429 . S
C2408 C2391 1.574 . S
C2408 H2402 0.949 . S
C2408 C2412 1.368 . S
C2409 C2390 1.429 . S
C2409 C2403 1.429 . S
C2409 C2410 1.523 . S
C2410 C2391 1.368 . S
C2410 C2404 1.368 . S
C2410 C2409 1.523 . S
C2411 C2395 1.429 . S
C2411 C2407 1.429 . S
C2411 C2412 1.523 . S
C2412 C2396 1.368 . S
C2412 C2408 1.368 . S
C2412 C2411 1.523 . S
H2413 C2388 0.950 . S
H2414 C2390 0.950 . S
H2415 C2391 0.949 . S
H2416 C2393 0.950 . S
H2417 C2395 0.950 . S
C2418 C2419 1.349 . S
C2418 C2420 1.327 . S
C2418 H2443 0.950 . S
C2419 C2418 1.349 . S
C2419 C2435 1.349 . S
C2420 C2418 1.327 . S
C2420 C2439 1.429 . S
C2420 H2444 0.950 . S
C2421 C2438 1.574 . S
C2421 C2440 1.368 . S
C2421 H2445 0.949 . S
H2422 C2426 0.949 . S
C2423 C2424 1.349 . S
C2423 C2425 1.327 . S
C2423 H2446 0.950 . S
C2424 C2423 1.349 . S
C2424 C2436 1.349 . S
C2425 C2423 1.327 . S
C2425 C2441 1.429 . S
C2425 H2447 0.950 . S
C2426 H2422 0.949 . S
C2426 C2434 1.574 . S
C2426 C2442 1.368 . S
H2427 C2435 0.950 . S
H2428 C2433 0.950 . S
H2429 C2434 0.949 . S
H2430 C2436 0.950 . S
H2431 C2437 0.950 . S
H2432 C2438 0.949 . S
C2433 H2428 0.950 . S
C2433 C2435 1.327 . S
C2433 C2439 1.429 . S
C2434 C2426 1.574 . S
C2434 H2429 0.949 . S
C2434 C2440 1.368 . S
C2435 C2419 1.349 . S
C2435 H2427 0.950 . S
C2435 C2433 1.327 . S
C2436 C2424 1.349 . S
C2436 H2430 0.950 . S
C2436 C2437 1.327 . S
C2437 H2431 0.950 . S
C2437 C2436 1.327 . S
C2437 C2441 1.429 . S
C2438 C2421 1.574 . S
C2438 H2432 0.949 . S
C2438 C2442 1.368 . S
C2439 C2420 1.429 . S
C2439 C2433 1.429 . S
C2439 C2440 1.523 . S
C2440 C2421 1.368 . S
C2440 C2434 1.368 . S
C2440 C2439 1.523 . S
C2441 C2425 1.429 . S
C2441 C2437 1.429 . S
C2441 C2442 1.523 . S
C2442 C2426 1.368 . S
C2442 C2438 1.368 . S
C2442 C2441 1.523 . S
H2443 C2418 0.950 . S
H2444 C2420 0.950 . S
H2445 C2421 0.949 . S
H2446 C2423 0.950 . S
H2447 C2425 0.950 . S
C2448 C2449 1.349 . S
C2448 C2450 1.327 . S
C2448 H2473 0.950 . S
C2449 C2448 1.349 . S
C2449 C2465 1.349 . S
C2450 C2448 1.327 . S
C2450 C2469 1.429 . S
C2450 H2474 0.950 . S
C2451 C2468 1.574 1_455 S
C2451 C2470 1.368 . S
C2451 H2475 0.949 . S
H2452 C2456 0.949 . S
C2453 C2454 1.349 . S
C2453 C2455 1.327 . S
C2453 H2476 0.950 . S
C2454 C2453 1.349 . S
C2454 C2466 1.349 . S
C2455 C2453 1.327 . S
C2455 C2471 1.429 . S
C2455 H2477 0.950 . S
C2456 H2452 0.949 . S
C2456 C2464 1.574 1_655 S
C2456 C2472 1.368 . S
H2457 C2465 0.950 . S
H2458 C2463 0.950 . S
H2459 C2464 0.949 . S
H2460 C2466 0.950 . S
H2461 C2467 0.950 . S
H2462 C2468 0.949 . S
C2463 H2458 0.950 . S
C2463 C2465 1.327 . S
C2463 C2469 1.429 . S
C2464 C2456 1.574 1_455 S
C2464 H2459 0.949 . S
C2464 C2470 1.368 . S
C2465 C2449 1.349 . S
C2465 H2457 0.950 . S
C2465 C2463 1.327 . S
C2466 C2454 1.349 . S
C2466 H2460 0.950 . S
C2466 C2467 1.327 . S
C2467 H2461 0.950 . S
C2467 C2466 1.327 . S
C2467 C2471 1.429 . S
C2468 C2451 1.574 1_655 S
C2468 H2462 0.949 . S
C2468 C2472 1.368 . S
C2469 C2450 1.429 . S
C2469 C2463 1.429 . S
C2469 C2470 1.523 . S
C2470 C2451 1.368 . S
C2470 C2464 1.368 . S
C2470 C2469 1.523 . S
C2471 C2455 1.429 . S
C2471 C2467 1.429 . S
C2471 C2472 1.523 . S
C2472 C2456 1.368 . S
C2472 C2468 1.368 . S
C2472 C2471 1.523 . S
H2473 C2448 0.950 . S
H2474 C2450 0.950 . S
H2475 C2451 0.949 . S
H2476 C2453 0.950 . S
H2477 C2455 0.950 . S
C2478 C2479 1.349 . S
C2478 C2480 1.327 . S
C2478 H2503 0.950 . S
C2479 C2478 1.349 . S
C2479 C2495 1.349 . S
C2480 C2478 1.327 . S
C2480 C2499 1.429 . S
C2480 H2504 0.950 . S
C2481 C2498 1.574 . S
C2481 C2500 1.368 . S
C2481 H2505 0.949 . S
H2482 C2486 0.949 . S
C2483 C2484 1.349 . S
C2483 C2485 1.327 . S
C2483 H2506 0.950 . S
C2484 C2483 1.349 . S
C2484 C2496 1.349 . S
C2485 C2483 1.327 . S
C2485 C2501 1.429 . S
C2485 H2507 0.950 . S
C2486 H2482 0.949 . S
C2486 C2494 1.574 . S
C2486 C2502 1.368 . S
H2487 C2495 0.950 . S
H2488 C2493 0.950 . S
H2489 C2494 0.949 . S
H2490 C2496 0.950 . S
H2491 C2497 0.950 . S
H2492 C2498 0.949 . S
C2493 H2488 0.950 . S
C2493 C2495 1.327 . S
C2493 C2499 1.429 . S
C2494 C2486 1.574 . S
C2494 H2489 0.949 . S
C2494 C2500 1.368 . S
C2495 C2479 1.349 . S
C2495 H2487 0.950 . S
C2495 C2493 1.327 . S
C2496 C2484 1.349 . S
C2496 H2490 0.950 . S
C2496 C2497 1.327 . S
C2497 H2491 0.950 . S
C2497 C2496 1.327 . S
C2497 C2501 1.429 . S
C2498 C2481 1.574 . S
C2498 H2492 0.949 . S
C2498 C2502 1.368 . S
C2499 C2480 1.429 . S
C2499 C2493 1.429 . S
C2499 C2500 1.523 . S
C2500 C2481 1.368 . S
C2500 C2494 1.368 . S
C2500 C2499 1.523 . S
C2501 C2485 1.429 . S
C2501 C2497 1.429 . S
C2501 C2502 1.523 . S
C2502 C2486 1.368 . S
C2502 C2498 1.368 . S
C2502 C2501 1.523 . S
H2503 C2478 0.950 . S
H2504 C2480 0.950 . S
H2505 C2481 0.949 . S
H2506 C2483 0.950 . S
H2507 C2485 0.950 . S
C2508 C2509 1.349 . S
C2508 C2510 1.327 . S
C2508 H2533 0.950 . S
C2509 C2508 1.349 . S
C2509 C2525 1.349 . S
C2510 C2508 1.327 . S
C2510 C2529 1.429 . S
C2510 H2534 0.950 . S
C2511 C2528 1.574 1_545 S
C2511 C2530 1.368 . S
C2511 H2535 0.949 . S
H2512 C2516 0.949 . S
C2513 C2514 1.349 . S
C2513 C2515 1.327 . S
C2513 H2536 0.950 . S
C2514 C2513 1.349 . S
C2514 C2526 1.349 . S
C2515 C2513 1.327 . S
C2515 C2531 1.429 . S
C2515 H2537 0.950 . S
C2516 H2512 0.949 . S
C2516 C2524 1.574 1_565 S
C2516 C2532 1.368 . S
H2517 C2525 0.950 . S
H2518 C2523 0.950 . S
H2519 C2524 0.949 . S
H2520 C2526 0.950 . S
H2521 C2527 0.950 . S
H2522 C2528 0.949 . S
C2523 H2518 0.950 . S
C2523 C2525 1.327 . S
C2523 C2529 1.429 . S
C2524 C2516 1.574 1_545 S
C2524 H2519 0.949 . S
C2524 C2530 1.368 . S
C2525 C2509 1.349 . S
C2525 H2517 0.950 . S
C2525 C2523 1.327 . S
C2526 C2514 1.349 . S
C2526 H2520 0.950 . S
C2526 C2527 1.327 . S
C2527 H2521 0.950 . S
C2527 C2526 1.327 . S
C2527 C2531 1.429 . S
C2528 C2511 1.574 1_565 S
C2528 H2522 0.949 . S
C2528 C2532 1.368 . S
C2529 C2510 1.429 . S
C2529 C2523 1.429 . S
C2529 C2530 1.523 . S
C2530 C2511 1.368 . S
C2530 C2524 1.368 . S
C2530 C2529 1.523 . S
C2531 C2515 1.429 . S
C2531 C2527 1.429 . S
C2531 C2532 1.523 . S
C2532 C2516 1.368 . S
C2532 C2528 1.368 . S
C2532 C2531 1.523 . S
H2533 C2508 0.950 . S
H2534 C2510 0.950 . S
H2535 C2511 0.949 . S
H2536 C2513 0.950 . S
H2537 C2515 0.950 . S
C2538 C2539 1.349 1_556 S
C2538 C2540 1.327 . S
C2538 H2563 0.950 . S
C2539 C2538 1.349 1_554 S
C2539 C2555 1.349 . S
C2540 C2538 1.327 . S
C2540 C2559 1.429 1_556 S
C2540 H2564 0.950 . S
C2541 C2558 1.574 1_545 S
C2541 C2560 1.368 . S
C2541 H2565 0.949 . S
H2542 C2546 0.949 . S
C2543 C2544 1.349 1_554 S
C2543 C2545 1.327 . S
C2543 H2566 0.950 . S
C2544 C2543 1.349 1_556 S
C2544 C2556 1.349 . S
C2545 C2543 1.327 . S
C2545 C2561 1.429 1_554 S
C2545 H2567 0.950 . S
C2546 H2542 0.949 . S
C2546 C2554 1.574 1_565 S
C2546 C2562 1.368 . S
H2547 C2555 0.950 . S
H2548 C2553 0.950 . S
H2549 C2554 0.949 . S
H2550 C2556 0.950 . S
H2551 C2557 0.950 . S
H2552 C2558 0.949 . S
C2553 H2548 0.950 . S
C2553 C2555 1.327 . S
C2553 C2559 1.429 . S
C2554 C2546 1.574 1_545 S
C2554 H2549 0.949 . S
C2554 C2560 1.368 1_556 S
C2555 C2539 1.349 . S
C2555 H2547 0.950 . S
C2555 C2553 1.327 . S
C2556 C2544 1.349 . S
C2556 H2550 0.950 . S
C2556 C2557 1.327 . S
C2557 H2551 0.950 . S
C2557 C2556 1.327 . S
C2557 C2561 1.429 . S
C2558 C2541 1.574 1_565 S
C2558 H2552 0.949 . S
C2558 C2562 1.368 1_554 S
C2559 C2540 1.429 1_554 S
C2559 C2553 1.429 . S
C2559 C2560 1.523 . S
C2560 C2541 1.368 . S
C2560 C2554 1.368 1_554 S
C2560 C2559 1.523 . S
C2561 C2545 1.429 1_556 S
C2561 C2557 1.429 . S
C2561 C2562 1.523 . S
C2562 C2546 1.368 . S
C2562 C2558 1.368 1_556 S
C2562 C2561 1.523 . S
H2563 C2538 0.950 . S
H2564 C2540 0.950 . S
H2565 C2541 0.949 . S
H2566 C2543 0.950 . S
H2567 C2545 0.950 . S
C2568 C2569 1.349 . S
C2568 C2570 1.327 . S
C2568 H2593 0.950 . S
C2569 C2568 1.349 . S
C2569 C2585 1.349 1_554 S
C2570 C2568 1.327 . S
C2570 C2589 1.429 . S
C2570 H2594 0.950 . S
C2571 C2588 1.574 1_655 S
C2571 C2590 1.368 1_556 S
C2571 H2595 0.949 . S
H2572 C2576 0.949 . S
C2573 C2574 1.349 . S
C2573 C2575 1.327 . S
C2573 H2596 0.950 . S
C2574 C2573 1.349 . S
C2574 C2586 1.349 1_556 S
C2575 C2573 1.327 . S
C2575 C2591 1.429 . S
C2575 H2597 0.950 . S
C2576 H2572 0.949 . S
C2576 C2584 1.574 1_455 S
C2576 C2592 1.368 1_554 S
H2577 C2585 0.950 . S
H2578 C2583 0.950 . S
H2579 C2584 0.949 . S
H2580 C2586 0.950 . S
H2581 C2587 0.950 . S
H2582 C2588 0.949 . S
C2583 H2578 0.950 . S
C2583 C2585 1.327 . S
C2583 C2589 1.429 1_556 S
C2584 C2576 1.574 1_655 S
C2584 H2579 0.949 . S
C2584 C2590 1.368 . S
C2585 C2569 1.349 1_556 S
C2585 H2577 0.950 . S
C2585 C2583 1.327 . S
C2586 C2574 1.349 1_554 S
C2586 H2580 0.950 . S
C2586 C2587 1.327 . S
C2587 H2581 0.950 . S
C2587 C2586 1.327 . S
C2587 C2591 1.429 1_554 S
C2588 C2571 1.574 1_455 S
C2588 H2582 0.949 . S
C2588 C2592 1.368 . S
C2589 C2570 1.429 . S
C2589 C2583 1.429 1_554 S
C2589 C2590 1.523 . S
C2590 C2571 1.368 1_554 S
C2590 C2584 1.368 . S
C2590 C2589 1.523 . S
C2591 C2575 1.429 . S
C2591 C2587 1.429 1_556 S
C2591 C2592 1.523 . S
C2592 C2576 1.368 1_556 S
C2592 C2588 1.368 . S
C2592 C2591 1.523 . S
H2593 C2568 0.950 . S
H2594 C2570 0.950 . S
H2595 C2571 0.949 . S
H2596 C2573 0.950 . S
H2597 C2575 0.950 . S
C2598 C2599 1.349 . S
C2598 C2600 1.327 . S
C2598 H2623 0.950 . S
C2599 C2598 1.349 . S
C2599 C2615 1.349 . S
C2600 C2598 1.327 . S
C2600 C2619 1.429 . S
C2600 H2624 0.950 . S
C2601 C2618 1.576 . S
C2601 C2620 1.366 1_556 S
C2601 H2625 0.949 . S
H2602 C2606 0.949 . S
C2603 C2604 1.349 . S
C2603 C2605 1.327 . S
C2603 H2626 0.950 . S
C2604 C2603 1.349 . S
C2604 C2616 1.349 . S
C2605 C2603 1.327 . S
C2605 C2621 1.429 . S
C2605 H2627 0.950 . S
C2606 H2602 0.949 . S
C2606 C2614 1.576 . S
C2606 C2622 1.366 1_554 S
H2607 C2615 0.950 . S
H2608 C2613 0.950 . S
H2609 C2614 0.949 . S
H2610 C2616 0.950 . S
H2611 C2617 0.950 . S
H2612 C2618 0.949 . S
C2613 H2608 0.950 . S
C2613 C2615 1.327 . S
C2613 C2619 1.429 . S
C2614 C2606 1.576 . S
C2614 H2609 0.949 . S
C2614 C2620 1.368 . S
C2615 C2599 1.349 . S
C2615 H2607 0.950 . S
C2615 C2613 1.327 . S
C2616 C2604 1.349 . S
C2616 H2610 0.950 . S
C2616 C2617 1.327 . S
C2617 H2611 0.950 . S
C2617 C2616 1.327 . S
C2617 C2621 1.429 . S
C2618 C2601 1.576 . S
C2618 H2612 0.949 . S
C2618 C2622 1.368 . S
C2619 C2600 1.429 . S
C2619 C2613 1.429 . S
C2619 C2620 1.523 . S
C2620 C2601 1.366 1_554 S
C2620 C2614 1.368 . S
C2620 C2619 1.523 . S
C2621 C2605 1.429 . S
C2621 C2617 1.429 . S
C2621 C2622 1.523 . S
C2622 C2606 1.366 1_556 S
C2622 C2618 1.368 . S
C2622 C2621 1.523 . S
H2623 C2598 0.950 . S
H2624 C2600 0.950 . S
H2625 C2601 0.949 . S
H2626 C2603 0.950 . S
H2627 C2605 0.950 . S
C469 C134 1.280 . S
C474 C5 1.277 . S
C499 C147 1.280 . S
C504 C18 1.277 . S
C529 C29 1.277 . S
C534 C121 1.280 . S
C559 C44 1.277 . S
C564 C108 1.280 . S
C589 C57 1.277 . S
C594 C82 1.280 . S
C619 C101 1.280 . S
C624 C68 1.277 . S
C649 C56 1.280 . S
C654 C83 1.277 . S
C679 C75 1.280 . S
C684 C94 1.277 . S
C709 C109 1.277 . S
C714 C43 1.280 . S
C739 C36 1.280 . S
C744 C122 1.277 . S
C769 C135 1.277 . S
C774 C4 1.280 . S
C799 C148 1.277 . S
C804 C17 1.280 . S
C829 C296 1.280 . S
C834 C161 1.277 . S
C859 C303 1.280 . S
C864 C174 1.277 . S
C889 C187 1.277 . S
C894 C277 1.280 . S
C919 C200 1.277 . S
C924 C264 1.280 . S
C949 C213 1.277 . S
C954 C238 1.280 . S
C979 C226 1.277 . S
C984 C251 1.280 . S
C1009 C212 1.280 . S
C1014 C239 1.277 . S
C1039 C225 1.280 . S
C1044 C252 1.277 . S
C1069 C199 1.280 . S
C1074 C265 1.277 . S
C1099 C186 1.280 . S
C1104 C278 1.277 . S
C1129 C160 1.280 . S
C1134 C289 1.277 . S
C1159 C173 1.280 . S
C1164 C304 1.277 . S
C1189 C315 1.277 . S
C1194 C452 1.280 . S
C1219 C459 1.280 . S
C1224 C328 1.277 . S
C1249 C433 1.280 . S
C1254 C341 1.277 . S
C1279 C356 1.277 . S
C1284 C426 1.280 . S
C1309 C367 1.277 . S
C1314 C400 1.280 . S
C1339 C382 1.277 . S
C1344 C413 1.280 . S
C1369 C374 1.280 . S
C1374 C393 1.277 . S
C1399 C381 1.280 . S
C1404 C406 1.277 . S
C1429 C355 1.280 . S
C1434 C419 1.277 . S
C1459 C434 1.277 . S
C1464 C348 1.280 . S
C1489 C322 1.280 . S
C1494 C445 1.277 . S
C1519 C460 1.277 . S
C1524 C335 1.280 . S
C1549 C49 1.585 . S
C1554 C10 1.585 . S
C1579 C62 1.585 . S
C1584 C23 1.585 . S
C1609 C30 1.585 . S
C1614 C69 1.585 . S
C1639 C127 1.585 . S
C1644 C88 1.585 . S
C1669 C140 1.585 . S
C1674 C95 1.585 . S
C1699 C153 1.585 . S
C1704 C114 1.585 . S
C1729 C205 1.585 . S
C1734 C166 1.585 . S
C1759 C218 1.585 . S
C1764 C179 1.585 . S
C1789 C192 1.585 . S
C1794 C231 1.585 . S
C1819 C244 1.585 . S
C1824 C283 1.585 . S
C1849 C290 1.585 . S
C1854 C257 1.585 . S
C1879 C270 1.585 . S
C1884 C309 1.585 . S
C1909 C361 1.585 . S
C1914 C316 1.585 . S
C1939 C368 1.585 . S
C1944 C329 1.585 . S
C1969 C342 1.585 . S
C1974 C387 1.585 . S
C1999 C394 1.585 . S
C2004 C439 1.585 . S
C2029 C407 1.585 . S
C2034 C446 1.585 . S
C2059 C420 1.585 . S
C2064 C465 1.585 . S
C2089 C3 1.569 . S
C2094 C237 1.569 . S
C2119 C250 1.568 . S
C2124 C16 1.568 . S
C2149 C263 1.568 . S
C2154 C31 1.568 . S
C2179 C432 1.569 . S
C2184 C42 1.569 . S
C2209 C447 1.568 . S
C2214 C55 1.568 . S
C2239 C458 1.568 . S
C2244 C70 1.568 . S
C2269 C81 1.569 . S
C2274 C317 1.569 . S
C2299 C330 1.568 . S
C2304 C96 1.568 . S
C2329 C343 1.568 . S
C2334 C107 1.568 . S
C2359 C120 1.569 . S
C2364 C198 1.569 . S
C2389 C133 1.568 . S
C2394 C211 1.568 . S
C2419 C146 1.568 . S
C2424 C224 1.568 . S
C2449 C395 1.569 . S
C2454 C159 1.569 . S
C2479 C408 1.568 . S
C2484 C172 1.568 . S
C2509 C185 1.568 . S
C2514 C421 1.568 . S
C2539 C276 1.569 . S
C2544 C354 1.569 . S
C2569 C291 1.568 . S
C2574 C369 1.568 . S
C2599 C302 1.568 . S
C2604 C380 1.568 . S
