# Generated by pormake.
# Topology wir, (6)-cn, num edge types: 1
# Building blocks:
#     Node 0, Type 0, BuildingBlock: GEDQOX_clean_sbu_0, # of connection points: 6
#     Node 1, Type 0, BuildingBlock: GEDQOX_clean_sbu_0, # of connection points: 6
#     Node 2, Type 0, BuildingBlock: GEDQOX_clean_sbu_0, # of connection points: 6
#     Node 3, Type 0, BuildingBlock: GEDQOX_clean_sbu_0, # of connection points: 6
#     Node 4, Type 0, BuildingBlock: GEDQOX_clean_sbu_0, # of connection points: 6
#     Node 5, Type 0, BuildingBlock: GEDQOX_clean_sbu_0, # of connection points: 6
#     Node 6, Type 0, BuildingBlock: GEDQOX_clean_sbu_0, # of connection points: 6
#     Node 7, Type 0, BuildingBlock: GEDQOX_clean_sbu_0, # of connection points: 6
#     Node 8, Type 0, BuildingBlock: GEDQOX_clean_sbu_0, # of connection points: 6
#     Node 9, Type 0, BuildingBlock: GEDQOX_clean_sbu_0, # of connection points: 6
#     Node 10, Type 0, BuildingBlock: GEDQOX_clean_sbu_0, # of connection points: 6
#     Node 11, Type 0, BuildingBlock: GEDQOX_clean_sbu_0, # of connection points: 6
#     Node 12, Type 0, BuildingBlock: GEDQOX_clean_sbu_0, # of connection points: 6
#     Node 13, Type 0, BuildingBlock: GEDQOX_clean_sbu_0, # of connection points: 6
#     Node 14, Type 0, BuildingBlock: GEDQOX_clean_sbu_0, # of connection points: 6
#     Node 15, Type 0, BuildingBlock: GEDQOX_clean_sbu_0, # of connection points: 6
#     Node 16, Type 0, BuildingBlock: GEDQOX_clean_sbu_0, # of connection points: 6
#     Node 17, Type 0, BuildingBlock: GEDQOX_clean_sbu_0, # of connection points: 6
#     Node 18, Type 0, BuildingBlock: GEDQOX_clean_sbu_0, # of connection points: 6
#     Node 19, Type 0, BuildingBlock: GEDQOX_clean_sbu_0, # of connection points: 6
#     Node 20, Type 0, BuildingBlock: GEDQOX_clean_sbu_0, # of connection points: 6
#     Node 21, Type 0, BuildingBlock: GEDQOX_clean_sbu_0, # of connection points: 6
#     Node 22, Type 0, BuildingBlock: GEDQOX_clean_sbu_0, # of connection points: 6
#     Node 23, Type 0, BuildingBlock: GEDQOX_clean_sbu_0, # of connection points: 6
#     Node 24, Type 0, BuildingBlock: GEDQOX_clean_sbu_0, # of connection points: 6
#     Node 25, Type 0, BuildingBlock: GEDQOX_clean_sbu_0, # of connection points: 6
#     Node 26, Type 0, BuildingBlock: GEDQOX_clean_sbu_0, # of connection points: 6
#     Node 27, Type 0, BuildingBlock: GEDQOX_clean_sbu_0, # of connection points: 6
#     Node 28, Type 0, BuildingBlock: GEDQOX_clean_sbu_0, # of connection points: 6
#     Node 29, Type 0, BuildingBlock: GEDQOX_clean_sbu_0, # of connection points: 6
#     Node 30, Type 0, BuildingBlock: GEDQOX_clean_sbu_0, # of connection points: 6
#     Node 31, Type 0, BuildingBlock: GEDQOX_clean_sbu_0, # of connection points: 6
#     Edge 32, Type (0, 0), BuildingBlock: TEMPAE_clean_linker_10, # of connection points: 2
#     Edge 33, Type (0, 0), BuildingBlock: TEMPAE_clean_linker_10, # of connection points: 2
#     Edge 34, Type (0, 0), BuildingBlock: TEMPAE_clean_linker_10, # of connection points: 2
#     Edge 35, Type (0, 0), BuildingBlock: TEMPAE_clean_linker_10, # of connection points: 2
#     Edge 36, Type (0, 0), BuildingBlock: TEMPAE_clean_linker_10, # of connection points: 2
#     Edge 37, Type (0, 0), BuildingBlock: TEMPAE_clean_linker_10, # of connection points: 2
#     Edge 38, Type (0, 0), BuildingBlock: TEMPAE_clean_linker_10, # of connection points: 2
#     Edge 39, Type (0, 0), BuildingBlock: TEMPAE_clean_linker_10, # of connection points: 2
#     Edge 40, Type (0, 0), BuildingBlock: TEMPAE_clean_linker_10, # of connection points: 2
#     Edge 41, Type (0, 0), BuildingBlock: TEMPAE_clean_linker_10, # of connection points: 2
#     Edge 42, Type (0, 0), BuildingBlock: TEMPAE_clean_linker_10, # of connection points: 2
#     Edge 43, Type (0, 0), BuildingBlock: TEMPAE_clean_linker_10, # of connection points: 2
#     Edge 44, Type (0, 0), BuildingBlock: TEMPAE_clean_linker_10, # of connection points: 2
#     Edge 45, Type (0, 0), BuildingBlock: TEMPAE_clean_linker_10, # of connection points: 2
#     Edge 46, Type (0, 0), BuildingBlock: TEMPAE_clean_linker_10, # of connection points: 2
#     Edge 47, Type (0, 0), BuildingBlock: TEMPAE_clean_linker_10, # of connection points: 2
#     Edge 48, Type (0, 0), BuildingBlock: TEMPAE_clean_linker_10, # of connection points: 2
#     Edge 49, Type (0, 0), BuildingBlock: TEMPAE_clean_linker_10, # of connection points: 2
#     Edge 50, Type (0, 0), BuildingBlock: TEMPAE_clean_linker_10, # of connection points: 2
#     Edge 51, Type (0, 0), BuildingBlock: TEMPAE_clean_linker_10, # of connection points: 2
#     Edge 52, Type (0, 0), BuildingBlock: TEMPAE_clean_linker_10, # of connection points: 2
#     Edge 53, Type (0, 0), BuildingBlock: TEMPAE_clean_linker_10, # of connection points: 2
#     Edge 54, Type (0, 0), BuildingBlock: TEMPAE_clean_linker_10, # of connection points: 2
#     Edge 55, Type (0, 0), BuildingBlock: TEMPAE_clean_linker_10, # of connection points: 2
#     Edge 56, Type (0, 0), BuildingBlock: TEMPAE_clean_linker_10, # of connection points: 2
#     Edge 57, Type (0, 0), BuildingBlock: TEMPAE_clean_linker_10, # of connection points: 2
#     Edge 58, Type (0, 0), BuildingBlock: TEMPAE_clean_linker_10, # of connection points: 2
#     Edge 59, Type (0, 0), BuildingBlock: TEMPAE_clean_linker_10, # of connection points: 2
#     Edge 60, Type (0, 0), BuildingBlock: TEMPAE_clean_linker_10, # of connection points: 2
#     Edge 61, Type (0, 0), BuildingBlock: TEMPAE_clean_linker_10, # of connection points: 2
#     Edge 62, Type (0, 0), BuildingBlock: TEMPAE_clean_linker_10, # of connection points: 2
#     Edge 63, Type (0, 0), BuildingBlock: TEMPAE_clean_linker_10, # of connection points: 2
#     Edge 64, Type (0, 0), BuildingBlock: TEMPAE_clean_linker_10, # of connection points: 2
#     Edge 65, Type (0, 0), BuildingBlock: TEMPAE_clean_linker_10, # of connection points: 2
#     Edge 66, Type (0, 0), BuildingBlock: TEMPAE_clean_linker_10, # of connection points: 2
#     Edge 67, Type (0, 0), BuildingBlock: TEMPAE_clean_linker_10, # of connection points: 2
#     Edge 68, Type (0, 0), BuildingBlock: TEMPAE_clean_linker_10, # of connection points: 2
#     Edge 69, Type (0, 0), BuildingBlock: TEMPAE_clean_linker_10, # of connection points: 2
#     Edge 70, Type (0, 0), BuildingBlock: TEMPAE_clean_linker_10, # of connection points: 2
#     Edge 71, Type (0, 0), BuildingBlock: TEMPAE_clean_linker_10, # of connection points: 2
#     Edge 72, Type (0, 0), BuildingBlock: TEMPAE_clean_linker_10, # of connection points: 2
#     Edge 73, Type (0, 0), BuildingBlock: TEMPAE_clean_linker_10, # of connection points: 2
#     Edge 74, Type (0, 0), BuildingBlock: TEMPAE_clean_linker_10, # of connection points: 2
#     Edge 75, Type (0, 0), BuildingBlock: TEMPAE_clean_linker_10, # of connection points: 2
#     Edge 76, Type (0, 0), BuildingBlock: TEMPAE_clean_linker_10, # of connection points: 2
#     Edge 77, Type (0, 0), BuildingBlock: TEMPAE_clean_linker_10, # of connection points: 2
#     Edge 78, Type (0, 0), BuildingBlock: TEMPAE_clean_linker_10, # of connection points: 2
#     Edge 79, Type (0, 0), BuildingBlock: TEMPAE_clean_linker_10, # of connection points: 2
#     Edge 80, Type (0, 0), BuildingBlock: TEMPAE_clean_linker_10, # of connection points: 2
#     Edge 81, Type (0, 0), BuildingBlock: TEMPAE_clean_linker_10, # of connection points: 2
#     Edge 82, Type (0, 0), BuildingBlock: TEMPAE_clean_linker_10, # of connection points: 2
#     Edge 83, Type (0, 0), BuildingBlock: TEMPAE_clean_linker_10, # of connection points: 2
#     Edge 84, Type (0, 0), BuildingBlock: TEMPAE_clean_linker_10, # of connection points: 2
#     Edge 85, Type (0, 0), BuildingBlock: TEMPAE_clean_linker_10, # of connection points: 2
#     Edge 86, Type (0, 0), BuildingBlock: TEMPAE_clean_linker_10, # of connection points: 2
#     Edge 87, Type (0, 0), BuildingBlock: TEMPAE_clean_linker_10, # of connection points: 2
#     Edge 88, Type (0, 0), BuildingBlock: TEMPAE_clean_linker_10, # of connection points: 2
#     Edge 89, Type (0, 0), BuildingBlock: TEMPAE_clean_linker_10, # of connection points: 2
#     Edge 90, Type (0, 0), BuildingBlock: TEMPAE_clean_linker_10, # of connection points: 2
#     Edge 91, Type (0, 0), BuildingBlock: TEMPAE_clean_linker_10, # of connection points: 2
#     Edge 92, Type (0, 0), BuildingBlock: TEMPAE_clean_linker_10, # of connection points: 2
#     Edge 93, Type (0, 0), BuildingBlock: TEMPAE_clean_linker_10, # of connection points: 2
#     Edge 94, Type (0, 0), BuildingBlock: TEMPAE_clean_linker_10, # of connection points: 2
#     Edge 95, Type (0, 0), BuildingBlock: TEMPAE_clean_linker_10, # of connection points: 2
#     Edge 96, Type (0, 0), BuildingBlock: TEMPAE_clean_linker_10, # of connection points: 2
#     Edge 97, Type (0, 0), BuildingBlock: TEMPAE_clean_linker_10, # of connection points: 2
#     Edge 98, Type (0, 0), BuildingBlock: TEMPAE_clean_linker_10, # of connection points: 2
#     Edge 99, Type (0, 0), BuildingBlock: TEMPAE_clean_linker_10, # of connection points: 2
#     Edge 100, Type (0, 0), BuildingBlock: TEMPAE_clean_linker_10, # of connection points: 2
#     Edge 101, Type (0, 0), BuildingBlock: TEMPAE_clean_linker_10, # of connection points: 2
#     Edge 102, Type (0, 0), BuildingBlock: TEMPAE_clean_linker_10, # of connection points: 2
#     Edge 103, Type (0, 0), BuildingBlock: TEMPAE_clean_linker_10, # of connection points: 2
#     Edge 104, Type (0, 0), BuildingBlock: TEMPAE_clean_linker_10, # of connection points: 2
#     Edge 105, Type (0, 0), BuildingBlock: TEMPAE_clean_linker_10, # of connection points: 2
#     Edge 106, Type (0, 0), BuildingBlock: TEMPAE_clean_linker_10, # of connection points: 2
#     Edge 107, Type (0, 0), BuildingBlock: TEMPAE_clean_linker_10, # of connection points: 2
#     Edge 108, Type (0, 0), BuildingBlock: TEMPAE_clean_linker_10, # of connection points: 2
#     Edge 109, Type (0, 0), BuildingBlock: TEMPAE_clean_linker_10, # of connection points: 2
#     Edge 110, Type (0, 0), BuildingBlock: TEMPAE_clean_linker_10, # of connection points: 2
#     Edge 111, Type (0, 0), BuildingBlock: TEMPAE_clean_linker_10, # of connection points: 2
#     Edge 112, Type (0, 0), BuildingBlock: TEMPAE_clean_linker_10, # of connection points: 2
#     Edge 113, Type (0, 0), BuildingBlock: TEMPAE_clean_linker_10, # of connection points: 2
#     Edge 114, Type (0, 0), BuildingBlock: TEMPAE_clean_linker_10, # of connection points: 2
#     Edge 115, Type (0, 0), BuildingBlock: TEMPAE_clean_linker_10, # of connection points: 2
#     Edge 116, Type (0, 0), BuildingBlock: TEMPAE_clean_linker_10, # of connection points: 2
#     Edge 117, Type (0, 0), BuildingBlock: TEMPAE_clean_linker_10, # of connection points: 2
#     Edge 118, Type (0, 0), BuildingBlock: TEMPAE_clean_linker_10, # of connection points: 2
#     Edge 119, Type (0, 0), BuildingBlock: TEMPAE_clean_linker_10, # of connection points: 2
#     Edge 120, Type (0, 0), BuildingBlock: TEMPAE_clean_linker_10, # of connection points: 2
#     Edge 121, Type (0, 0), BuildingBlock: TEMPAE_clean_linker_10, # of connection points: 2
#     Edge 122, Type (0, 0), BuildingBlock: TEMPAE_clean_linker_10, # of connection points: 2
#     Edge 123, Type (0, 0), BuildingBlock: TEMPAE_clean_linker_10, # of connection points: 2
#     Edge 124, Type (0, 0), BuildingBlock: TEMPAE_clean_linker_10, # of connection points: 2
#     Edge 125, Type (0, 0), BuildingBlock: TEMPAE_clean_linker_10, # of connection points: 2
#     Edge 126, Type (0, 0), BuildingBlock: TEMPAE_clean_linker_10, # of connection points: 2
#     Edge 127, Type (0, 0), BuildingBlock: TEMPAE_clean_linker_10, # of connection points: 2
# Relax obj value: 0.555
# Max RMSD: 0.218
# Mean RMSD: 0.218
data_MOF--net-wir--node1-GEDQOX_clean_sbu_0--edge1-TEMPAE_clean_linker_10
_symmetry_space_group_name_H-M    P1
_symmetry_Int_Tables_number       1
_symmetry_cell_setting            triclinic
loop_
_symmetry_equiv_pos_as_xyz
'x, y, z'
_cell_length_a     40.021087
_cell_length_b     40.006216
_cell_length_c     109.18412
_cell_angle_alpha  90.001544
_cell_angle_beta   90.018317
_cell_angle_gamma 90.101524
loop_
_atom_site_label
_atom_site_type_symbol
_atom_site_fract_x
_atom_site_fract_y
_atom_site_fract_z
_atom_type_partial_charge
Nd0 Nd 0.13342 0.09902 0.39813 0.0
Nd1 Nd 0.17597 0.13278 0.39411 0.0
C2 C 0.07399 0.06991 0.39677 0.0
C3 C 1.04096 0.08551 0.39567 0.0
C4 C 1.03797 0.11714 0.39018 0.0
C5 C 1.00997 0.13691 0.39246 0.0
C6 C 0.98477 0.12539 0.40034 0.0
C7 C 0.98607 0.09219 0.40462 0.0
C8 C 1.0141 0.07243 0.40233 0.0
C9 C 0.18148 0.06768 0.41432 0.0
C10 C 0.15004 0.14301 0.42029 0.0
C11 C 0.2347 0.1565 0.38702 0.0
C12 C 0.24529 0.17761 0.37687 0.0
C13 C 0.2793 0.18149 0.37428 0.0
C14 C 0.2893 0.20055 0.36422 0.0
C15 C 0.26531 0.21587 0.35669 0.0
C16 C 0.23121 0.21194 0.35938 0.0
C17 C 0.22127 0.19287 0.3694 0.0
C18 C 0.12477 0.18319 0.39447 0.0
C19 C 0.15707 0.08936 0.36989 0.0
O20 O 0.09383 0.07314 0.3874 0.0
O21 O 0.0892 0.07603 0.40706 0.0
O22 O 0.14969 0.07106 0.416 0.0
O23 O 0.188 0.08056 0.4036 0.0
O24 O 0.12322 0.13479 0.41416 0.0
O25 O 0.17863 0.13835 0.41482 0.0
O26 O 0.22338 0.1272 0.38386 0.0
O27 O 0.21607 0.17092 0.39522 0.0
O28 O 0.15467 0.1855 0.39892 0.0
O29 O 0.12175 0.15312 0.38998 0.0
O30 O 0.16705 0.1195 0.37306 0.0
O31 O 0.14652 0.07166 0.37931 0.0
H32 H 0.05847 0.12776 0.38499 0.0
H33 H 1.00944 0.16229 0.389 0.0
H34 H 0.96721 0.0827 0.41083 0.0
H35 H 1.01607 0.04819 0.4067 0.0
H36 H 0.29803 0.16964 0.37997 0.0
H37 H 0.31574 0.20349 0.36238 0.0
H38 H 0.21225 0.22315 0.35362 0.0
H39 H 0.19485 0.18973 0.37127 0.0
Nd40 Nd 0.24647 0.87585 0.64778 0.0
Nd41 Nd 0.21114 0.91972 0.6446 0.0
C42 C 0.27471 0.81617 0.64595 0.0
C43 C 0.25791 0.78362 0.6463 0.0
C44 C 0.22317 0.78287 0.64778 0.0
C45 C 0.20687 0.75301 0.65037 0.0
C46 C 0.22499 0.72305 0.65149 0.0
C47 C 0.25952 0.72347 0.64885 0.0
C48 C 0.27595 0.75369 0.64638 0.0
C49 C 0.27816 0.92389 0.66394 0.0
C50 C 0.20456 0.8897 0.67042 0.0
C51 C 0.18374 0.97819 0.63916 0.0
C52 C 0.15671 0.98837 0.63102 0.0
C53 C 0.14988 1.02231 0.62925 0.0
C54 C 0.125 1.03201 0.62103 0.0
C55 C 0.10677 1.0078 0.61449 0.0
C56 C 0.11331 0.97375 0.61651 0.0
C57 C 0.13816 0.9641 0.62472 0.0
C58 C 0.16225 0.86688 0.64449 0.0
C59 C 0.25571 0.90324 0.62007 0.0
O60 O 0.26755 0.83469 0.63651 0.0
O61 O 0.27312 0.83294 0.65614 0.0
O62 O 0.27554 0.8919 0.66542 0.0
O63 O 0.26437 0.93077 0.65339 0.0
O64 O 0.21106 0.86363 0.66367 0.0
O65 O 0.20943 0.91899 0.66548 0.0
O66 O 0.21028 0.96657 0.63374 0.0
O67 O 0.17483 0.96009 0.6485 0.0
O68 O 0.15886 0.89632 0.64918 0.0
O69 O 0.19206 0.8656 0.63975 0.0
O70 O 0.22602 0.91411 0.62347 0.0
O71 O 0.27322 0.89053 0.62914 0.0
H72 H 0.20885 0.80578 0.64776 0.0
H73 H 0.18048 0.75421 0.65252 0.0
H74 H 0.27418 0.7008 0.64939 0.0
H75 H 0.3028 0.75387 0.64514 0.0
H76 H 0.16414 1.04125 0.63406 0.0
H77 H 0.1207 0.05842 0.61953 0.0
H78 H 0.09938 0.9546 0.61169 0.0
H79 H 0.1432 0.93773 0.62604 0.0
Nd80 Nd 0.46127 0.99375 0.89822 0.0
Nd81 Nd 0.41755 0.9596 0.89493 0.0
C82 C 0.52177 1.02006 0.8963 0.0
C83 C 0.55351 1.00193 0.89512 0.0
C84 C 0.55375 0.97009 0.88964 0.0
C85 C 0.57957 0.94771 0.89214 0.0
C86 C 0.60544 0.95691 0.90012 0.0
C87 C 0.60727 0.99015 0.90431 0.0
C88 C 0.58131 1.01248 0.90188 0.0
C89 C 0.41379 1.02729 0.91412 0.0
C90 C 0.44471 0.9539 0.92113 0.0
C91 C 0.35892 0.93389 0.88861 0.0
C92 C 0.34835 0.91229 0.87857 0.0
C93 C 0.31437 0.90609 0.87657 0.0
C94 C 0.30431 0.88695 0.86653 0.0
C95 C 0.32819 0.87399 0.85838 0.0
C96 C 0.36228 0.88001 0.86054 0.0
C97 C 0.37228 0.89906 0.87057 0.0
C98 C 0.46933 0.90978 0.89535 0.0
C99 C 0.43577 1.00255 0.8703 0.0
O100 O 0.50122 1.01774 0.88709 0.0
O101 O 0.50672 1.01555 0.90674 0.0
O102 O 0.44577 1.02462 0.91557 0.0
O103 O 0.40671 1.01284 0.90371 0.0
O104 O 0.47143 0.9591 0.91456 0.0
O105 O 0.41599 0.95884 0.91579 0.0
O106 O 0.369 0.96351 0.8853 0.0
O107 O 0.37869 0.92028 0.89664 0.0
O108 O 0.44038 0.90803 0.90059 0.0
O109 O 0.47111 0.93912 0.89021 0.0
O110 O 0.42496 0.97289 0.87376 0.0
O111 O 0.44777 1.02041 0.87942 0.0
H112 H 0.53257 0.96137 0.88436 0.0
H113 H 0.57775 0.92229 0.88879 0.0
H114 H 0.62677 0.9978 0.9106 0.0
H115 H 0.58145 1.0368 0.90625 0.0
H116 H 0.29568 0.91642 0.88266 0.0
H117 H 0.27787 0.88289 0.865 0.0
H118 H 0.38121 0.86992 0.8545 0.0
H119 H 0.39867 0.90376 0.87202 0.0
Nd120 Nd 0.34958 0.20952 0.14759 0.0
Nd121 Nd 0.38327 0.166 0.14382 0.0
C122 C 0.32158 0.26941 0.14608 0.0
C123 C 0.33819 0.30202 0.14635 0.0
C124 C 0.37297 0.30308 0.1477 0.0
C125 C 0.38905 0.33311 0.15024 0.0
C126 C 0.37062 0.36285 0.15146 0.0
C127 C 0.33607 0.36213 0.14888 0.0
C128 C 0.31988 0.33178 0.14646 0.0
C129 C 0.31773 0.16158 0.16369 0.0
C130 C 0.39293 0.19321 0.16989 0.0
C131 C 0.40844 0.10691 0.13782 0.0
C132 C 0.43542 0.09545 0.12992 0.0
C133 C 0.44223 0.06127 0.12896 0.0
C134 C 0.4677 0.05021 0.12125 0.0
C135 C 0.48659 0.0733 0.11443 0.0
C136 C 0.4799 0.10763 0.11559 0.0
C137 C 0.45446 0.11863 0.1233 0.0
C138 C 0.43387 0.2174 0.14411 0.0
C139 C 0.33888 0.18406 0.11963 0.0
O140 O 0.32828 0.25105 0.13656 0.0
O141 O 0.32377 0.25251 0.15623 0.0
O142 O 0.32158 0.19334 0.16544 0.0
O143 O 0.33043 0.155 0.15293 0.0
O144 O 0.38524 0.21995 0.16364 0.0
O145 O 0.38776 0.1645 0.16456 0.0
O146 O 0.38303 0.12041 0.13226 0.0
O147 O 0.41774 0.12387 0.14738 0.0
O148 O 0.43607 0.18757 0.14858 0.0
O149 O 0.40397 0.2201 0.13952 0.0
O150 O 0.36876 0.1733 0.12278 0.0
O151 O 0.32171 0.19584 0.12897 0.0
H152 H 0.3875 0.28029 0.14762 0.0
H153 H 0.41551 0.33221 0.15229 0.0
H154 H 0.3212 0.38466 0.14948 0.0
H155 H 0.293 0.33135 0.14529 0.0
H156 H 0.42774 1.04319 0.13411 0.0
H157 H 0.47255 1.02365 0.12058 0.0
H158 H 0.49374 0.12591 0.1103 0.0
H159 H 0.44937 0.14517 0.12399 0.0
Nd160 Nd 0.13075 0.99098 0.24908 0.0
Nd161 Nd 0.17429 0.95763 0.25289 0.0
C162 C 0.07059 1.01816 0.25048 0.0
C163 C 1.03845 1.00069 0.25167 0.0
C164 C 1.03741 0.96898 0.25723 0.0
C165 C 1.01103 0.94712 0.25479 0.0
C166 C 0.98544 0.95671 0.24676 0.0
C167 C 0.98447 0.98989 0.24248 0.0
C168 C 1.01096 1.0117 0.24487 0.0
C169 C 0.17847 1.02294 0.23288 0.0
C170 C 0.14754 0.94716 0.22686 0.0
C171 C 0.23304 0.93314 0.25946 0.0
C172 C 0.2429 0.90874 0.26867 0.0
C173 C 0.27558 0.90866 0.27321 0.0
C174 C 0.28422 0.88704 0.28272 0.0
C175 C 0.26018 0.86537 0.28776 0.0
C176 C 0.2276 0.86518 0.28298 0.0
C177 C 0.21897 0.88686 0.27354 0.0
C178 C 0.12295 0.90704 0.25286 0.0
C179 C 0.15572 1.00122 0.2772 0.0
O180 O 0.09076 1.01608 0.25981 0.0
O181 O 0.08591 1.01269 0.24017 0.0
O182 O 0.14669 1.01924 0.23122 0.0
O183 O 0.18516 1.01026 0.24361 0.0
O184 O 0.1208 0.95478 0.23312 0.0
O185 O 0.17622 0.95263 0.23217 0.0
O186 O 0.22091 0.96089 0.26381 0.0
O187 O 0.21552 0.92147 0.25037 0.0
O188 O 0.15253 0.90486 0.24816 0.0
O189 O 0.12041 0.93695 0.25746 0.0
O190 O 0.16686 0.97157 0.27396 0.0
O191 O 0.14363 1.01842 0.26791 0.0
H192 H 0.05837 0.95993 0.26254 0.0
H193 H 1.0122 0.92175 0.25822 0.0
H194 H 0.96521 0.99785 0.23615 0.0
H195 H 1.01144 1.03594 0.24044 0.0
H196 H 0.29414 0.92575 0.26959 0.0
H197 H 0.30941 0.88792 0.28635 0.0
H198 H 0.20873 0.84841 0.28658 0.0
H199 H 0.1935 0.88691 0.27017 0.0
Nd200 Nd 0.35149 0.8795 0.49949 0.0
Nd201 Nd 0.38684 0.92251 0.50279 0.0
C202 C 0.3215 0.82072 0.50162 0.0
C203 C 0.33732 0.7878 0.5028 0.0
C204 C 0.36952 0.78556 0.5079 0.0
C205 C 0.38982 0.75823 0.50525 0.0
C206 C 0.37814 0.73293 0.49746 0.0
C207 C 0.3445 0.73304 0.49375 0.0
C208 C 0.3242 0.76052 0.49635 0.0
C209 C 0.32047 0.92787 0.4833 0.0
C210 C 0.39417 0.89172 0.47698 0.0
C211 C 0.41419 0.98122 0.50797 0.0
C212 C 0.44342 0.99123 0.51504 0.0
C213 C 0.44999 1.02511 0.5171 0.0
C214 C 0.47687 1.03454 0.52448 0.0
C215 C 0.49738 1.01009 0.52987 0.0
C216 C 0.49125 0.97616 0.52742 0.0
C217 C 0.46437 0.96679 0.52008 0.0
C218 C 0.43653 0.87067 0.503 0.0
C219 C 0.34284 0.9057 0.52741 0.0
O220 O 0.32566 0.84111 0.5108 0.0
O221 O 0.32673 0.83533 0.49114 0.0
O222 O 0.32292 0.89592 0.48179 0.0
O223 O 0.33397 0.93447 0.49393 0.0
O224 O 0.38613 0.86589 0.48362 0.0
O225 O 0.39023 0.92112 0.48193 0.0
O226 O 0.38984 0.96813 0.51429 0.0
O227 O 0.42051 0.9645 0.49803 0.0
O228 O 0.43984 0.90076 0.4989 0.0
O229 O 0.40612 0.86794 0.50719 0.0
O230 O 0.37239 0.9169 0.52397 0.0
O231 O 0.32527 0.89319 0.51832 0.0
H232 H 0.38022 0.80636 0.5129 0.0
H233 H 0.4157 0.75861 0.50815 0.0
H234 H 0.33514 0.71393 0.4876 0.0
H235 H 0.29954 0.76191 0.49228 0.0
H236 H 0.43391 1.04417 0.51325 0.0
H237 H 0.48081 0.06084 0.52636 0.0
H238 H 0.50686 0.95687 0.53137 0.0
H239 H 0.45952 0.94048 0.51853 0.0
Nd240 Nd 0.46328 0.09607 0.74956 0.0
Nd241 Nd 0.41888 0.12999 0.75256 0.0
C242 C 0.52386 0.07026 0.75163 0.0
C243 C 0.55551 0.08867 0.75278 0.0
C244 C 0.55559 0.12063 0.75816 0.0
C245 C 0.58122 0.14322 0.75556 0.0
C246 C 0.60704 0.13413 0.74756 0.0
C247 C 0.60908 0.1008 0.74349 0.0
C248 C 0.58332 0.07824 0.74603 0.0
C249 C 0.41608 0.062 0.73365 0.0
C250 C 0.44742 0.13548 0.72654 0.0
C251 C 0.35997 0.1567 0.75782 0.0
C252 C 0.34898 0.18327 0.76601 0.0
C253 C 0.31501 0.19107 0.76692 0.0
C254 C 0.30446 0.21584 0.77505 0.0
C255 C 0.32785 0.23304 0.78233 0.0
C256 C 0.36197 0.22539 0.7812 0.0
C257 C 0.37246 0.20067 0.77309 0.0
C258 C 0.47064 0.18013 0.75241 0.0
C259 C 0.43646 0.08702 0.77736 0.0
O260 O 0.50325 0.07268 0.76082 0.0
O261 O 0.50885 0.07437 0.74117 0.0
O262 O 0.44804 0.06499 0.73223 0.0
O263 O 0.40884 0.07634 0.74405 0.0
O264 O 0.47389 0.13087 0.73329 0.0
O265 O 0.41855 0.12997 0.73169 0.0
O266 O 0.37165 0.13008 0.76318 0.0
O267 O 0.37846 0.16624 0.74868 0.0
O268 O 0.4418 0.18178 0.74712 0.0
O269 O 0.4723 0.15083 0.75755 0.0
O270 O 0.42449 0.11613 0.77378 0.0
O271 O 0.44994 0.06968 0.7684 0.0
H272 H 0.53439 0.12926 0.76343 0.0
H273 H 0.57925 0.1687 0.75884 0.0
H274 H 0.62854 0.0932 0.73718 0.0
H275 H 0.58359 0.05383 0.74173 0.0
H276 H 0.29669 0.17782 0.76145 0.0
H277 H 0.27805 0.22146 0.77567 0.0
H278 H 0.38048 0.23788 0.78682 0.0
H279 H 0.39883 0.19477 0.77245 0.0
Nd280 Nd 0.2405 0.21252 0.99944 0.0
Nd281 Nd 0.20634 0.16844 1.00238 0.0
C282 C 0.26733 0.27272 1.00171 0.0
C283 C 0.24967 0.30477 1.00268 0.0
C284 C 0.21754 0.30569 1.00789 0.0
C285 C 0.19588 0.332 1.00522 0.0
C286 C 0.20604 0.35761 0.99728 0.0
C287 C 0.23954 0.35869 0.99335 0.0
C288 C 0.26118 0.33231 0.99599 0.0
C289 C 0.27388 0.16529 0.98335 0.0
C290 C 0.20015 0.19829 0.97649 0.0
C291 C 0.17987 0.10909 1.00737 0.0
C292 C 0.15257 0.09699 1.01503 0.0
C293 C 0.14617 0.06267 1.01584 0.0
C294 C 0.12085 0.05094 1.0235 0.0
C295 C 0.1017 0.07346 1.03045 0.0
C296 C 0.10786 0.10795 1.02939 0.0
C297 C 0.13316 0.11963 1.02173 0.0
C298 C 0.15608 0.21996 1.00235 0.0
C299 C 0.24994 0.18541 1.02715 0.0
O300 O 0.26379 0.25221 1.01089 0.0
O301 O 0.26361 0.25773 0.99122 0.0
O302 O 0.27092 0.19727 0.98196 0.0
O303 O 0.25978 0.15808 0.99381 0.0
O304 O 0.20608 0.22445 0.98326 0.0
O305 O 0.20517 0.16912 0.98148 0.0
O306 O 0.2054 0.12152 1.01321 0.0
O307 O 0.17108 0.12734 0.99807 0.0
O308 O 0.15427 0.1909 0.99723 0.0
O309 O 0.1856 0.22194 1.00734 0.0
O310 O 0.22057 0.17381 1.02362 0.0
O311 O 0.26726 0.19869 1.01814 0.0
H312 H 0.20807 0.2847 1.0131 0.0
H313 H 0.17027 0.33074 1.0084 0.0
H314 H 0.24799 0.37796 0.98709 0.0
H315 H 0.28575 0.33194 0.99183 0.0
H316 H 0.16097 1.04499 1.01065 0.0
H317 H 0.11641 1.02426 1.02408 0.0
H318 H 0.09383 0.12583 1.03477 0.0
H319 H 0.13796 0.14626 1.02117 0.0
Nd320 Nd 0.91065 0.95704 0.7527 0.0
Nd321 Nd 0.95392 0.99225 0.74975 0.0
C322 C 0.85181 0.9295 0.75773 0.0
C323 C 0.84051 0.90074 0.76483 0.0
C324 C 0.80637 0.89353 0.76565 0.0
C325 C 0.79541 0.8668 0.77282 0.0
C326 C 0.81853 0.84702 0.77925 0.0
C327 C 0.85285 0.85394 0.77813 0.0
C328 C 0.86376 0.88065 0.77096 0.0
C329 C 0.96271 0.90755 0.75258 0.0
C330 C 0.92687 1.0012 0.77735 0.0
C331 C 1.01297 1.02172 0.75199 0.0
C332 C 0.04608 1.00639 0.75131 0.0
C333 C 0.04853 0.97143 0.75139 0.0
C334 C 0.07787 0.95586 0.74766 0.0
C335 C 0.1053 0.97507 0.74376 0.0
C336 C 0.10394 1.01013 0.74502 0.0
C337 C 0.07431 1.02573 0.74864 0.0
C338 C 0.90592 1.0239 0.73361 0.0
C339 C 0.94133 0.95102 0.72686 0.0
O340 O 0.86472 0.95398 0.76402 0.0
O341 O 0.86919 0.92256 0.74801 0.0
O342 O 0.93339 0.90513 0.74771 0.0
O343 O 0.96474 0.93727 0.7574 0.0
O344 O 0.91646 0.97132 0.77391 0.0
O345 O 0.93897 1.01905 0.76827 0.0
O346 O 0.99478 1.01281 0.76132 0.0
O347 O 0.99622 1.02079 0.74178 0.0
O348 O 0.93786 1.02123 0.73208 0.0
O349 O 0.8992 1.01031 0.7442 0.0
O350 O 0.96722 0.95836 0.73359 0.0
O351 O 0.91194 0.95496 0.73181 0.0
H352 H 0.78822 0.90881 0.76088 0.0
H353 H 0.76885 0.86182 0.77345 0.0
H354 H 0.8712 0.83946 0.78312 0.0
H355 H 0.89027 0.88602 0.77038 0.0
H356 H 1.02692 0.9561 0.75341 0.0
H357 H 0.07776 0.9289 0.74674 0.0
H358 H 0.12492 1.02558 0.74231 0.0
H359 H 0.07281 0.05276 0.74858 0.0
Nd360 Nd 0.88325 0.16491 0.50391 0.0
Nd361 Nd 0.84986 0.20394 0.49978 0.0
C362 C 0.90513 0.10768 0.51312 0.0
C363 C 0.9237 0.09858 0.52412 0.0
C364 C 0.92687 0.06494 0.52741 0.0
C365 C 0.94411 0.05623 0.53805 0.0
C366 C 0.95836 0.08112 0.54551 0.0
C367 C 0.95487 0.11487 0.54219 0.0
C368 C 0.93761 0.12354 0.53157 0.0
C369 C 0.93431 0.21492 0.50269 0.0
C370 C 0.83928 0.18239 0.52746 0.0
C371 C 0.82117 0.26313 0.50225 0.0
C372 C 0.838 0.29583 0.50274 0.0
C373 C 0.86979 0.29849 0.50818 0.0
C374 C 0.89079 0.32521 0.50528 0.0
C375 C 0.88024 0.34966 0.49695 0.0
C376 C 0.84705 0.34905 0.49268 0.0
C377 C 0.8261 0.32217 0.49552 0.0
C378 C 0.819 0.15722 0.48313 0.0
C379 C 0.8931 0.18766 0.4774 0.0
O380 O 0.87521 0.1193 0.51505 0.0
O381 O 0.92152 0.12504 0.50502 0.0
O382 O 0.93613 0.18467 0.4985 0.0
O383 O 0.90435 0.21891 0.50713 0.0
O384 O 0.87104 0.18091 0.52454 0.0
O385 O 0.82072 0.18466 0.51757 0.0
O386 O 0.82664 0.24314 0.51144 0.0
O387 O 0.82374 0.24779 0.49178 0.0
O388 O 0.82172 0.18927 0.4818 0.0
O389 O 0.83244 0.14981 0.4937 0.0
O390 O 0.88359 0.21455 0.48321 0.0
O391 O 0.89034 0.15951 0.48333 0.0
H392 H 0.91609 0.04547 0.52175 0.0
H393 H 0.94679 1.03002 0.54033 0.0
H394 H 0.96531 0.13454 0.54784 0.0
H395 H 0.93506 0.14969 0.52916 0.0
H396 H 0.87957 0.27856 0.51384 0.0
H397 H 0.9162 0.32528 0.50869 0.0
H398 H 0.83842 0.36743 0.48612 0.0
H399 H 0.80181 0.32049 0.49117 0.0
Nd400 Nd 0.67756 0.13196 0.25268 0.0
Nd401 Nd 0.6341 0.09822 0.24905 0.0
C402 C 0.73653 0.15712 0.25881 0.0
C403 C 0.74639 0.183 0.26746 0.0
C404 C 0.78019 0.18879 0.26995 0.0
C405 C 0.78932 0.21235 0.27877 0.0
C406 C 0.76464 0.23019 0.28518 0.0
C407 C 0.73079 0.22476 0.28241 0.0
C408 C 0.72173 0.20126 0.27362 0.0
C409 C 0.62672 0.1827 0.25279 0.0
C410 C 0.65929 0.08815 0.27705 0.0
C411 C 0.57431 0.0701 0.25056 0.0
C412 C 0.54188 0.08707 0.25144 0.0
C413 C 0.54007 0.11887 0.2569 0.0
C414 C 0.51326 0.13999 0.25435 0.0
C415 C 0.488 0.12963 0.24629 0.0
C416 C 0.48792 0.09641 0.24203 0.0
C417 C 0.51483 0.0753 0.24455 0.0
C418 C 0.68215 0.06691 0.2328 0.0
C419 C 0.64866 0.14234 0.22685 0.0
O420 O 0.72401 0.13022 0.26372 0.0
O421 O 0.7192 0.16744 0.24948 0.0
O422 O 0.65644 0.18489 0.24823 0.0
O423 O 0.6236 0.15259 0.25721 0.0
O424 O 0.67036 0.11789 0.27379 0.0
O425 O 0.64721 0.07087 0.2678 0.0
O426 O 0.59418 0.07337 0.25993 0.0
O427 O 0.58984 0.07488 0.24024 0.0
O428 O 0.65041 0.0707 0.23106 0.0
O429 O 0.6885 0.07924 0.24361 0.0
O430 O 0.62246 0.13443 0.23336 0.0
O431 O 0.67777 0.13714 0.23189 0.0
H432 H 0.7994 0.1747 0.26525 0.0
H433 H 0.81556 0.21589 0.28083 0.0
H434 H 0.71134 0.23847 0.28713 0.0
H435 H 0.69547 0.19694 0.27175 0.0
H436 H 0.56071 0.12854 0.26226 0.0
H437 H 0.51374 0.1654 0.25777 0.0
H438 H 0.46895 0.08787 0.23568 0.0
H439 H 0.5159 0.05099 0.24019 0.0
Nd440 Nd 0.70666 0.91998 1.00356 0.0
Nd441 Nd 0.74048 0.88124 0.9996 0.0
C442 C 0.68488 0.97789 1.01219 0.0
C443 C 0.66726 0.98842 1.0232 0.0
C444 C 0.66412 1.02247 1.02586 0.0
C445 C 0.64813 1.0326 1.03658 0.0
C446 C 0.63522 1.00872 1.04476 0.0
C447 C 0.63863 0.97455 1.04205 0.0
C448 C 0.65457 0.96447 1.03134 0.0
C449 C 0.65614 0.8694 1.00271 0.0
C450 C 0.75047 0.90397 1.02722 0.0
C451 C 0.77104 0.82306 1.00239 0.0
C452 C 0.75563 0.78975 1.00314 0.0
C453 C 0.72411 0.78598 1.00869 0.0
C454 C 0.70419 0.75832 1.00597 0.0
C455 C 0.71546 0.73416 0.99764 0.0
C456 C 0.74859 0.73591 0.99334 0.0
C457 C 0.7685 0.76365 0.99604 0.0
C458 C 0.77051 0.92802 0.98279 0.0
C459 C 0.69634 0.89551 0.97727 0.0
O460 O 0.71501 0.96669 1.014 0.0
O461 O 0.66792 0.95941 1.00458 0.0
O462 O 0.65386 0.89954 0.99844 0.0
O463 O 0.68627 0.86579 1.00707 0.0
O464 O 0.71871 0.90499 1.02428 0.0
O465 O 0.76909 0.9016 1.01735 0.0
O466 O 0.76491 0.84326 1.01146 0.0
O467 O 0.76764 0.83776 0.99182 0.0
O468 O 0.76781 0.89598 0.98145 0.0
O469 O 0.75735 0.93533 0.99339 0.0
O470 O 0.70626 0.86906 0.98326 0.0
O471 O 0.69927 0.92401 0.98296 0.0
H472 H 0.67413 1.04115 1.01968 0.0
H473 H 0.64607 0.05908 1.03852 0.0
H474 H 0.62849 0.95565 1.04811 0.0
H475 H 0.65698 0.93803 1.02938 0.0
H476 H 0.71359 0.80576 1.01424 0.0
H477 H 0.67886 0.7574 1.00945 0.0
H478 H 0.75787 0.71781 0.98679 0.0
H479 H 0.79264 0.76616 0.99164 0.0
Nd480 Nd 0.91399 0.13307 0.89458 0.0
Nd481 Nd 0.95731 0.09775 0.89729 0.0
C482 C 0.85577 0.16195 0.88981 0.0
C483 C 0.84625 0.19215 0.8832 0.0
C484 C 0.81253 0.19906 0.88101 0.0
C485 C 0.80361 0.22675 0.87396 0.0
C486 C 0.8284 0.24773 0.86901 0.0
C487 C 0.86216 0.24127 0.87162 0.0
C488 C 0.87103 0.2136 0.87864 0.0
C489 C 0.96647 0.18234 0.89452 0.0
C490 C 0.92904 0.08869 0.86983 0.0
C491 C 1.01624 0.06836 0.89485 0.0
C492 C 0.04935 0.0839 0.89525 0.0
C493 C 0.05155 0.11884 0.89575 0.0
C494 C 0.0814 0.13428 0.89901 0.0
C495 C 0.10973 0.115 0.90183 0.0
C496 C 0.10832 0.08012 0.89999 0.0
C497 C 0.07814 0.06461 0.89685 0.0
C498 C 0.90931 0.06589 0.91344 0.0
C499 C 0.94547 0.13864 0.92031 0.0
O500 O 0.86845 0.13819 0.88313 0.0
O501 O 0.87256 0.1668 0.89984 0.0
O502 O 0.93755 0.18467 0.89968 0.0
O503 O 0.96794 0.15275 0.88958 0.0
O504 O 0.91841 0.11838 0.87336 0.0
O505 O 0.94196 0.07103 0.87879 0.0
O506 O 0.99765 0.07692 0.88559 0.0
O507 O 0.99993 0.06959 0.90515 0.0
O508 O 0.94128 0.06856 0.91494 0.0
O509 O 0.90254 0.07961 0.90288 0.0
O510 O 0.97113 0.13162 0.91343 0.0
O511 O 0.91592 0.13462 0.91548 0.0
H512 H 0.7932 0.18261 0.88449 0.0
H513 H 0.77744 0.23093 0.87196 0.0
H514 H 0.88172 0.25721 0.868 0.0
H515 H 0.89723 0.20851 0.88028 0.0
H516 H 1.02952 0.13412 0.89454 0.0
H517 H 0.08115 0.16108 0.90041 0.0
H518 H 0.12989 0.0646 0.90182 0.0
H519 H 0.07684 1.03759 0.89642 0.0
Nd520 Nd 0.70361 0.17018 0.64334 0.0
Nd521 Nd 0.7376 0.20816 0.64725 0.0
C522 C 0.68156 0.11282 0.63431 0.0
C523 C 0.66484 0.10365 0.62294 0.0
C524 C 0.66467 0.0703 0.61909 0.0
C525 C 0.65034 0.06175 0.60787 0.0
C526 C 0.63607 0.08653 0.6004 0.0
C527 C 0.63644 0.11998 0.6043 0.0
C528 C 0.65083 0.1285 0.6155 0.0
C529 C 0.65324 0.22067 0.64427 0.0
C530 C 0.74744 0.18549 0.61967 0.0
C531 C 0.76879 0.26607 0.64437 0.0
C532 C 0.75387 0.2996 0.64393 0.0
C533 C 0.72213 0.30403 0.63863 0.0
C534 C 0.70286 0.33186 0.64164 0.0
C535 C 0.71501 0.35554 0.65002 0.0
C536 C 0.74832 0.3531 0.65408 0.0
C537 C 0.76758 0.3252 0.65109 0.0
C538 C 0.76732 0.16153 0.66416 0.0
C539 C 0.69354 0.19451 0.66964 0.0
O540 O 0.71213 0.1234 0.63299 0.0
O541 O 0.66439 0.13119 0.64187 0.0
O542 O 0.65088 0.19048 0.64852 0.0
O543 O 0.68341 0.22438 0.63994 0.0
O544 O 0.7157 0.18547 0.62264 0.0
O545 O 0.76605 0.18714 0.62956 0.0
O546 O 0.76158 0.24625 0.63528 0.0
O547 O 0.76607 0.25107 0.6549 0.0
O548 O 0.76493 0.19361 0.66543 0.0
O549 O 0.75393 0.15409 0.6536 0.0
O550 O 0.70379 0.22081 0.66363 0.0
O551 O 0.69596 0.16598 0.66394 0.0
H552 H 0.67574 0.05097 0.62473 0.0
H553 H 0.64999 1.03574 0.60512 0.0
H554 H 0.62586 0.13955 0.59865 0.0
H555 H 0.65125 0.15447 0.61831 0.0
H556 H 0.71095 0.28465 0.63304 0.0
H557 H 0.67739 0.3333 0.63832 0.0
H558 H 0.7583 0.3708 0.66065 0.0
H559 H 0.79191 0.32218 0.6553 0.0
Nd560 Nd 0.67462 0.95435 0.39406 0.0
Nd561 Nd 0.63127 0.98918 0.3972 0.0
C562 C 0.73345 0.92755 0.38872 0.0
C563 C 0.74424 0.89945 0.38121 0.0
C564 C 0.77819 0.89157 0.38038 0.0
C565 C 0.7886 0.8654 0.37284 0.0
C566 C 0.76508 0.8469 0.36607 0.0
C567 C 0.73094 0.85454 0.36718 0.0
C568 C 0.7206 0.88065 0.37471 0.0
C569 C 0.62286 0.90434 0.39414 0.0
C570 C 0.65815 0.99877 0.3695 0.0
C571 C 0.57181 1.01779 0.39515 0.0
C572 C 0.53909 1.00142 0.39568 0.0
C573 C 0.53791 0.96666 0.39713 0.0
C574 C 0.50801 0.95079 0.39999 0.0
C575 C 0.47846 0.9694 0.40145 0.0
C576 C 0.4792 1.00393 0.39879 0.0
C577 C 0.50947 1.01991 0.39604 0.0
C578 C 0.67933 1.02069 0.41343 0.0
C579 C 0.64455 0.94734 0.41995 0.0
O580 O 0.72065 0.95267 0.38278 0.0
O581 O 0.71611 0.9197 0.39837 0.0
O582 O 0.65241 0.90199 0.39882 0.0
O583 O 0.62046 0.93424 0.38949 0.0
O584 O 0.66864 0.9689 0.37288 0.0
O585 O 0.64596 1.01634 0.37864 0.0
O586 O 0.59017 1.00974 0.38577 0.0
O587 O 0.58864 1.01676 0.40534 0.0
O588 O 0.64739 1.01789 0.41495 0.0
O589 O 0.68598 1.00743 0.40278 0.0
O590 O 0.61853 0.95486 0.41333 0.0
O591 O 0.67384 0.95151 0.41493 0.0
H592 H 0.79663 0.90586 0.38543 0.0
H593 H 0.81502 0.85983 0.37222 0.0
H594 H 0.71232 0.84105 0.36193 0.0
H595 H 0.69423 0.88656 0.37531 0.0
H596 H 0.56058 0.95199 0.39688 0.0
H597 H 0.50894 0.92436 0.40209 0.0
H598 H 0.45683 1.01895 0.39955 0.0
H599 H 0.50997 0.04678 0.39482 0.0
Nd600 Nd 0.88601 0.92081 0.14305 0.0
Nd601 Nd 0.85211 0.88221 0.14699 0.0
C602 C 0.90797 0.9785 0.13418 0.0
C603 C 0.92556 0.98854 0.12308 0.0
C604 C 0.92886 1.02247 0.12022 0.0
C605 C 0.9447 1.03212 0.1094 0.0
C606 C 0.95731 1.00788 0.10131 0.0
C607 C 0.9538 0.97384 0.10423 0.0
C608 C 0.93801 0.96424 0.11505 0.0
C609 C 0.93661 0.87058 0.14405 0.0
C610 C 0.84221 0.90455 0.11939 0.0
C611 C 0.82167 0.82387 0.14423 0.0
C612 C 0.83714 0.79057 0.14385 0.0
C613 C 0.86896 0.78661 0.13857 0.0
C614 C 0.88868 0.75912 0.14161 0.0
C615 C 0.87689 0.73531 0.15 0.0
C616 C 0.84357 0.73725 0.15407 0.0
C617 C 0.82387 0.76482 0.15105 0.0
C618 C 0.822 0.92885 0.16379 0.0
C619 C 0.89608 0.89634 0.16935 0.0
O620 O 0.87775 0.96731 0.13247 0.0
O621 O 0.92487 0.96026 0.14186 0.0
O622 O 0.93881 0.90083 0.14824 0.0
O623 O 0.90648 0.86668 0.1397 0.0
O624 O 0.87395 0.9053 0.12236 0.0
O625 O 0.82354 0.90254 0.12925 0.0
O626 O 0.82854 0.84367 0.1351 0.0
O627 O 0.8242 0.83906 0.15473 0.0
O628 O 0.82452 0.89679 0.16509 0.0
O629 O 0.83542 0.93629 0.15324 0.0
O630 O 0.88606 0.86994 0.16335 0.0
O631 O 0.89342 0.92488 0.16367 0.0
H632 H 0.91904 1.04143 0.12631 0.0
H633 H 0.94683 0.0585 0.1073 0.0
H634 H 0.96369 0.95467 0.09824 0.0
H635 H 0.93551 0.93789 0.11716 0.0
H636 H 0.87981 0.80611 0.13295 0.0
H637 H 0.91417 0.75804 0.1383 0.0
H638 H 0.83391 0.71942 0.16065 0.0
H639 H 0.7995 0.7675 0.15526 0.0
Nd640 Nd 0.63472 0.60236 0.89761 0.0
Nd641 Nd 0.67353 0.63579 0.89343 0.0
C642 C 0.57579 0.57297 0.89502 0.0
C643 C 0.54276 0.58899 0.89462 0.0
C644 C 0.53933 0.62093 0.88936 0.0
C645 C 0.51193 0.64091 0.89228 0.0
C646 C 0.48762 0.62925 0.90049 0.0
C647 C 0.48915 0.5959 0.90457 0.0
C648 C 0.51665 0.57595 0.90169 0.0
C649 C 0.68101 0.57165 0.91437 0.0
C650 C 0.65092 0.64606 0.91991 0.0
C651 C 0.731 0.65698 0.88414 0.0
C652 C 0.74084 0.67294 0.87267 0.0
C653 C 0.77467 0.67527 0.86957 0.0
C654 C 0.7841 0.68943 0.85841 0.0
C655 C 0.75972 0.70128 0.85021 0.0
C656 C 0.72578 0.69865 0.85337 0.0
C657 C 0.71641 0.68457 0.86453 0.0
C658 C 0.62341 0.68664 0.89458 0.0
C659 C 0.6568 0.59142 0.87 0.0
O660 O 0.59563 0.5792 0.88585 0.0
O661 O 0.5911 0.57554 0.9055 0.0
O662 O 0.64896 0.57432 0.91563 0.0
O663 O 0.68873 0.58531 0.90387 0.0
O664 O 0.62405 0.6362 0.91415 0.0
O665 O 0.67903 0.64346 0.91396 0.0
O666 O 0.7201 0.62644 0.88304 0.0
O667 O 0.71263 0.67481 0.89148 0.0
O668 O 0.65365 0.68865 0.8988 0.0
O669 O 0.61959 0.65661 0.89014 0.0
O670 O 0.65762 0.62324 0.87285 0.0
O671 O 0.65477 0.57305 0.87996 0.0
H672 H 0.55911 0.63158 0.88383 0.0
H673 H 0.51118 0.66643 0.88897 0.0
H674 H 0.47094 0.58634 0.91103 0.0
H675 H 0.51892 0.55151 0.90588 0.0
H676 H 0.79374 0.66602 0.87574 0.0
H677 H 0.81042 0.69093 0.85614 0.0
H678 H 0.70651 0.70803 0.84731 0.0
H679 H 0.69012 0.68279 0.86681 0.0
Nd680 Nd 0.7401 0.38169 0.14839 0.0
Nd681 Nd 0.70619 0.42546 0.14502 0.0
C682 C 0.76702 0.32153 0.14661 0.0
C683 C 0.74904 0.28967 0.14535 0.0
C684 C 0.71721 0.2893 0.13987 0.0
C685 C 0.69495 0.26324 0.14228 0.0
C686 C 0.7043 0.23722 0.15015 0.0
C687 C 0.73751 0.23559 0.15436 0.0
C688 C 0.75971 0.26182 0.15203 0.0
C689 C 0.77245 0.4296 0.16451 0.0
C690 C 0.6975 0.39657 0.17095 0.0
C691 C 0.67924 0.48411 0.13957 0.0
C692 C 0.65061 0.49388 0.13217 0.0
C693 C 0.64404 0.52769 0.13 0.0
C694 C 0.61767 0.53682 0.12235 0.0
C695 C 0.59773 0.51214 0.11678 0.0
C696 C 0.60388 0.47828 0.11931 0.0
C697 C 0.63021 0.46921 0.12693 0.0
C698 C 0.65602 0.37359 0.14493 0.0
C699 C 0.75046 0.40815 0.12052 0.0
O700 O 0.76484 0.34204 0.13738 0.0
O701 O 0.76215 0.33659 0.15702 0.0
O702 O 0.76902 0.39775 0.16612 0.0
O703 O 0.75929 0.43629 0.15385 0.0
O704 O 0.7047 0.37029 0.16438 0.0
O705 O 0.70262 0.42561 0.16584 0.0
O706 O 0.7041 0.47114 0.13353 0.0
O707 O 0.67213 0.46733 0.14942 0.0
O708 O 0.65386 0.40282 0.14988 0.0
O709 O 0.68574 0.37169 0.14014 0.0
O710 O 0.72117 0.42009 0.12389 0.0
O711 O 0.76731 0.39475 0.12963 0.0
H712 H 0.70842 0.31053 0.13465 0.0
H713 H 0.66953 0.26493 0.13893 0.0
H714 H 0.74524 0.21597 0.16058 0.0
H715 H 0.78401 0.26178 0.15641 0.0
H716 H 0.6597 0.54691 0.13401 0.0
H717 H 0.61365 0.56307 0.12042 0.0
H718 H 0.58867 0.45883 0.11522 0.0
H719 H 0.63506 0.44295 0.12858 0.0
Nd720 Nd 0.96167 0.48996 0.39831 0.0
Nd721 Nd 0.91868 0.45624 0.39437 0.0
C722 C 1.02149 0.51842 0.39692 0.0
C723 C 0.05429 0.50228 0.39707 0.0
C724 C 0.05581 0.46752 0.39843 0.0
C725 C 0.08615 0.4519 0.40076 0.0
C726 C 0.11576 0.47077 0.40175 0.0
C727 C 0.11448 0.50533 0.3992 0.0
C728 C 0.08382 0.52105 0.39699 0.0
C729 C 0.91394 0.52136 0.41454 0.0
C730 C 0.94447 0.44626 0.42055 0.0
C731 C 0.86016 0.43218 0.38721 0.0
C732 C 0.85021 0.41142 0.37688 0.0
C733 C 0.8164 0.40754 0.37396 0.0
C734 C 0.80713 0.38887 0.36372 0.0
C735 C 0.83166 0.37393 0.35632 0.0
C736 C 0.86555 0.37791 0.35932 0.0
C737 C 0.87477 0.39659 0.36953 0.0
C738 C 0.97012 0.40604 0.39471 0.0
C739 C 0.93691 0.50058 0.37031 0.0
O740 O 1.00313 0.51191 0.38738 0.0
O741 O 1.0047 0.51557 0.40706 0.0
O742 O 0.94574 0.51787 0.41621 0.0
O743 O 0.90721 0.50856 0.40382 0.0
O744 O 0.9714 0.45428 0.41444 0.0
O745 O 0.91592 0.45102 0.41506 0.0
O746 O 0.87101 0.46181 0.38427 0.0
O747 O 0.87896 0.41768 0.39534 0.0
O748 O 0.94055 0.40382 0.39944 0.0
O749 O 0.97262 0.43588 0.39001 0.0
O750 O 0.92726 0.47025 0.37338 0.0
O751 O 0.94759 0.5181 0.37975 0.0
H752 H 1.03319 0.45264 0.3985 0.0
H753 H 0.08567 0.42543 0.40282 0.0
H754 H 0.13685 0.52055 0.39964 0.0
H755 H 0.08302 0.54792 0.39581 0.0
H756 H 0.79727 0.41909 0.37956 0.0
H757 H 0.78083 0.38588 0.36163 0.0
H758 H 0.88492 0.36698 0.35367 0.0
H759 H 0.90106 0.39977 0.37163 0.0
Nd760 Nd 0.85253 0.70582 0.64835 0.0
Nd761 Nd 0.88684 0.66393 0.64437 0.0
C762 C 0.82095 0.76399 0.64691 0.0
C763 C 0.83514 0.79768 0.64728 0.0
C764 C 0.86978 0.80112 0.64845 0.0
C765 C 0.88381 0.83208 0.65107 0.0
C766 C 0.86342 0.8604 0.65255 0.0
C767 C 0.82886 0.85735 0.65022 0.0
C768 C 0.81475 0.82603 0.64771 0.0
C769 C 0.8227 0.65744 0.66476 0.0
C770 C 0.89811 0.69253 0.67019 0.0
C771 C 0.90997 0.6048 0.63762 0.0
C772 C 0.93238 0.59424 0.62787 0.0
C773 C 0.937 0.56023 0.62546 0.0
C774 C 0.95698 0.55034 0.61564 0.0
C775 C 0.97232 0.57446 0.60814 0.0
C776 C 0.96794 0.60855 0.61075 0.0
C777 C 0.94805 0.61837 0.62055 0.0
C778 C 0.93762 0.71469 0.64429 0.0
C779 C 0.8434 0.68187 0.62017 0.0
O780 O 0.82917 0.74631 0.63737 0.0
O781 O 0.8242 0.74715 0.65703 0.0
O782 O 0.82643 0.68917 0.66655 0.0
O783 O 0.83488 0.65115 0.65391 0.0
O784 O 0.88899 0.71863 0.66385 0.0
O785 O 0.89359 0.66338 0.66507 0.0
O786 O 0.8815 0.61685 0.6339 0.0
O787 O 0.92356 0.62286 0.6462 0.0
O788 O 0.94067 0.684 0.64785 0.0
O789 O 0.90683 0.71876 0.64062 0.0
O790 O 0.87381 0.67289 0.62332 0.0
O791 O 0.82539 0.69156 0.62961 0.0
H792 H 0.88579 0.77936 0.64815 0.0
H793 H 0.91032 0.83302 0.65299 0.0
H794 H 0.81249 0.87874 0.65108 0.0
H795 H 0.78791 0.82373 0.64672 0.0
H796 H 0.9248 0.54143 0.63103 0.0
H797 H 0.95981 0.52392 0.61374 0.0
H798 H 0.97987 0.62758 0.6052 0.0
H799 H 0.94456 0.64478 0.62234 0.0
Nd800 Nd 0.6365 0.48764 0.75032 0.0
Nd801 Nd 0.67494 0.45412 0.75461 0.0
C802 C 0.57763 0.5171 0.75262 0.0
C803 C 0.5445 0.50115 0.75261 0.0
C804 C 0.54055 0.46891 0.75757 0.0
C805 C 0.51306 0.4493 0.75434 0.0
C806 C 0.48913 0.46164 0.74613 0.0
C807 C 0.49125 0.49518 0.74228 0.0
C808 C 0.51886 0.51475 0.74547 0.0
C809 C 0.68342 0.518 0.73368 0.0
C810 C 0.65249 0.4437 0.72809 0.0
C811 C 0.73172 0.43288 0.76432 0.0
C812 C 0.74003 0.41681 0.77592 0.0
C813 C 0.77302 0.41713 0.78015 0.0
C814 C 0.78073 0.40321 0.79152 0.0
C815 C 0.75546 0.38884 0.79876 0.0
C816 C 0.72235 0.38884 0.79449 0.0
C817 C 0.71468 0.40282 0.78315 0.0
C818 C 0.62477 0.40333 0.75336 0.0
C819 C 0.65781 0.49857 0.77798 0.0
O820 O 0.59685 0.5103 0.76192 0.0
O821 O 0.59359 0.51509 0.74226 0.0
O822 O 0.65136 0.51556 0.73234 0.0
O823 O 0.69081 0.50437 0.74421 0.0
O824 O 0.62569 0.45376 0.73381 0.0
O825 O 0.6806 0.44613 0.73408 0.0
O826 O 0.72106 0.46349 0.7653 0.0
O827 O 0.71393 0.41522 0.7567 0.0
O828 O 0.6551 0.40125 0.74925 0.0
O829 O 0.62088 0.43339 0.75774 0.0
O830 O 0.65843 0.46674 0.77513 0.0
O831 O 0.65625 0.51696 0.76803 0.0
H832 H 0.55996 0.45782 0.76315 0.0
H833 H 0.51188 0.42362 0.75748 0.0
H834 H 0.47337 0.50526 0.73582 0.0
H835 H 0.52154 0.53942 0.74149 0.0
H836 H 0.79275 0.42819 0.77468 0.0
H837 H 0.80651 0.40315 0.79456 0.0
H838 H 0.7024 0.3782 0.79996 0.0
H839 H 0.68896 0.40286 0.78005 0.0
Nd840 Nd 0.8479 0.38271 1.00019 0.0
Nd841 Nd 0.88279 0.42552 1.00322 0.0
C842 C 0.81866 0.32349 1.00236 0.0
C843 C 0.83429 0.29048 1.00174 0.0
C844 C 0.86917 0.28855 1.00094 0.0
C845 C 0.88454 0.25875 0.99762 0.0
C846 C 0.86524 0.23019 0.99504 0.0
C847 C 0.83047 0.23139 0.99714 0.0
C848 C 0.81503 0.26152 1.00034 0.0
C849 C 0.81613 0.4307 0.98399 0.0
C850 C 0.88898 0.39537 0.97733 0.0
C851 C 0.9101 0.48401 1.00876 0.0
C852 C 0.93726 0.49368 1.01691 0.0
C853 C 0.94362 0.52746 1.01925 0.0
C854 C 0.96835 0.53649 1.02764 0.0
C855 C 0.98681 0.51173 1.03377 0.0
C856 C 0.98084 0.47789 1.03112 0.0
C857 C 0.95617 0.46892 1.02275 0.0
C858 C 0.93258 0.37377 1.00291 0.0
C859 C 0.83893 0.40903 1.02791 0.0
O860 O 0.82732 0.34175 1.01171 0.0
O861 O 0.81968 0.34026 0.99215 0.0
O862 O 0.81866 0.39871 0.98253 0.0
O863 O 0.82992 0.43752 0.99454 0.0
O864 O 0.88183 0.36943 0.98405 0.0
O865 O 0.88492 0.42472 0.98231 0.0
O866 O 0.88364 0.47216 1.01419 0.0
O867 O 0.91883 0.46622 0.99934 0.0
O868 O 0.93468 0.40308 0.99801 0.0
O869 O 0.90295 0.37164 1.00783 0.0
O870 O 0.86897 0.41897 1.02447 0.0
O871 O 0.82094 0.39752 1.01875 0.0
H872 H 0.88443 0.31071 1.00199 0.0
H873 H 0.91123 0.25918 0.99601 0.0
H874 H 0.81494 0.20966 0.99549 0.0
H875 H 0.78805 0.26261 1.00101 0.0
H876 H 0.92904 0.54675 1.01479 0.0
H877 H 0.97225 0.56273 1.02964 0.0
H878 H 0.99498 0.45837 1.03563 0.0
H879 H 0.95142 0.44267 1.02099 0.0
Nd880 Nd 0.95924 0.60108 0.24981 0.0
Nd881 Nd 0.91577 0.63451 0.25395 0.0
C882 C 1.01974 0.57458 0.25112 0.0
C883 C 0.05178 0.5923 0.25217 0.0
C884 C 0.05269 0.62432 0.25747 0.0
C885 C 0.07921 0.64599 0.25501 0.0
C886 C 0.10517 0.63584 0.24725 0.0
C887 C 0.10613 0.60247 0.24317 0.0
C888 C 0.07945 0.58087 0.24556 0.0
C889 C 0.91158 0.56929 0.2336 0.0
C890 C 0.94064 0.64451 0.2276 0.0
C891 C 0.85706 0.65704 0.26154 0.0
C892 C 0.84608 0.67368 0.27272 0.0
C893 C 0.81197 0.67682 0.27526 0.0
C894 C 0.80158 0.69131 0.28624 0.0
C895 C 0.82527 0.70263 0.29481 0.0
C896 C 0.85947 0.69932 0.2922 0.0
C897 C 0.8698 0.68494 0.28122 0.0
C898 C 0.96712 0.68484 0.25336 0.0
C899 C 0.9354 0.5903 0.27792 0.0
O900 O 0.99978 0.57669 0.2605 0.0
O901 O 1.00413 0.57969 0.24084 0.0
O902 O 0.94344 0.57253 0.23203 0.0
O903 O 0.90477 0.58223 0.24429 0.0
O904 O 0.96781 0.63652 0.23357 0.0
O905 O 0.91226 0.64018 0.23327 0.0
O906 O 0.86699 0.62635 0.26304 0.0
O907 O 0.87707 0.67412 0.25453 0.0
O908 O 0.93747 0.68689 0.24865 0.0
O909 O 0.96971 0.65512 0.25813 0.0
O910 O 0.92529 0.62044 0.27487 0.0
O911 O 0.94609 0.57289 0.26846 0.0
H912 H 1.0316 0.63367 0.26264 0.0
H913 H 0.07802 0.67154 0.25826 0.0
H914 H 0.12566 0.59411 0.23703 0.0
H915 H 0.07908 0.55639 0.24132 0.0
H916 H 0.79345 0.66786 0.2688 0.0
H917 H 0.77507 0.69339 0.28809 0.0
H918 H 0.87824 0.7083 0.29855 0.0
H919 H 0.89628 0.68254 0.27938 0.0
Nd920 Nd 0.7451 0.70973 0.49962 0.0
Nd921 Nd 0.70995 0.66637 0.50347 0.0
C922 C 0.77516 0.76878 0.50077 0.0
C923 C 0.75937 0.80173 0.50032 0.0
C924 C 0.7245 0.80335 0.49951 0.0
C925 C 0.7088 0.83331 0.49666 0.0
C926 C 0.7277 0.86247 0.49461 0.0
C927 C 0.76251 0.86138 0.49666 0.0
C928 C 0.77831 0.83104 0.49937 0.0
C929 C 0.77493 0.66078 0.48346 0.0
C930 C 0.69941 0.69596 0.47774 0.0
C931 C 0.6832 0.60777 0.5092 0.0
C932 C 0.65452 0.59796 0.51659 0.0
C933 C 0.64752 0.56412 0.51855 0.0
C934 C 0.62093 0.55487 0.5261 0.0
C935 C 0.60118 0.57946 0.53176 0.0
C936 C 0.60784 0.61338 0.52948 0.0
C937 C 0.6344 0.62256 0.52196 0.0
C938 C 0.66066 0.71875 0.50372 0.0
C939 C 0.75494 0.68369 0.52767 0.0
O940 O 0.76806 0.75096 0.5104 0.0
O941 O 0.77236 0.75152 0.49072 0.0
O942 O 0.77145 0.6925 0.4816 0.0
O943 O 0.76262 0.65472 0.49433 0.0
O944 O 0.7083 0.72204 0.48416 0.0
O945 O 0.70428 0.66675 0.48274 0.0
O946 O 0.70794 0.62118 0.51522 0.0
O947 O 0.67612 0.62407 0.49923 0.0
O948 O 0.65669 0.68843 0.49992 0.0
O949 O 0.69119 0.72121 0.50775 0.0
O950 O 0.72527 0.67241 0.52447 0.0
O951 O 0.77205 0.69624 0.51844 0.0
H952 H 0.70949 0.78092 0.50023 0.0
H953 H 0.68214 0.83266 0.49503 0.0
H954 H 0.7778 0.88348 0.49544 0.0
H955 H 0.80529 0.83019 0.5001 0.0
H956 H 0.66295 0.54493 0.51444 0.0
H957 H 0.61654 0.52857 0.52784 0.0
H958 H 0.59278 0.63278 0.53364 0.0
H959 H 0.63957 0.64885 0.52048 0.0
Nd960 Nd 0.42063 0.45491 0.25221 0.0
Nd961 Nd 0.46418 0.48972 0.24928 0.0
C962 C 0.36211 0.42789 0.25784 0.0
C963 C 0.3523 0.40252 0.2667 0.0
C964 C 0.3185 0.39666 0.26915 0.0
C965 C 0.30937 0.37388 0.27824 0.0
C966 C 0.33404 0.35689 0.28496 0.0
C967 C 0.3679 0.36237 0.28224 0.0
C968 C 0.37697 0.3851 0.27319 0.0
C969 C 0.47265 0.40548 0.25213 0.0
C970 C 0.43741 0.49839 0.27696 0.0
C971 C 0.52413 0.51686 0.25172 0.0
C972 C 0.55588 0.49883 0.25311 0.0
C973 C 0.55597 0.46709 0.25868 0.0
C974 C 0.58173 0.44457 0.25628 0.0
C975 C 0.60771 0.45353 0.24832 0.0
C976 C 0.60974 0.4867 0.24407 0.0
C977 C 0.58383 0.50917 0.2464 0.0
C978 C 0.41645 0.52206 0.23316 0.0
C979 C 0.45009 0.4492 0.22624 0.0
O980 O 0.37302 0.45572 0.26257 0.0
O981 O 0.38082 0.41743 0.2489 0.0
O982 O 0.4438 0.40341 0.24686 0.0
O983 O 0.47428 0.43493 0.25719 0.0
O984 O 0.42687 0.46861 0.27345 0.0
O985 O 0.44967 0.51629 0.26792 0.0
O986 O 0.50308 0.5142 0.26077 0.0
O987 O 0.50968 0.51252 0.24116 0.0
O988 O 0.44848 0.5198 0.23177 0.0
O989 O 0.40958 0.50813 0.24366 0.0
O990 O 0.47623 0.45614 0.2329 0.0
O991 O 0.42086 0.45305 0.23132 0.0
H992 H 0.29928 0.41015 0.26422 0.0
H993 H 0.2831 0.37032 0.28026 0.0
H994 H 0.38736 0.3493 0.2872 0.0
H995 H 0.40324 0.38952 0.27136 0.0
H996 H 0.53468 0.45851 0.26393 0.0
H997 H 0.57974 0.41919 0.25966 0.0
H998 H 0.62935 0.49415 0.23779 0.0
H999 H 0.58411 0.5334 0.24196 0.0
Nd1000 Nd 0.38353 0.66335 1.00383 0.0
Nd1001 Nd 0.34943 0.70058 1.00009 0.0
C1002 C 0.40578 0.60631 1.01299 0.0
C1003 C 0.42338 0.59793 1.02426 0.0
C1004 C 0.42498 0.56469 1.02817 0.0
C1005 C 0.44047 0.55691 1.03925 0.0
C1006 C 0.45444 0.58237 1.04652 0.0
C1007 C 0.45259 0.61571 1.04255 0.0
C1008 C 0.4371 0.62344 1.03149 0.0
C1009 C 0.43389 0.71386 1.00283 0.0
C1010 C 0.34066 0.67871 1.02765 0.0
C1011 C 0.31647 0.75742 1.00315 0.0
C1012 C 0.32914 0.79172 1.00248 0.0
C1013 C 0.36351 0.79754 1.00394 0.0
C1014 C 0.37776 0.82717 0.99977 0.0
C1015 C 0.35779 0.85141 0.99405 0.0
C1016 C 0.32281 0.84724 0.99405 0.0
C1017 C 0.30859 0.81733 0.99812 0.0
C1018 C 0.31995 0.65416 0.98306 0.0
C1019 C 0.39347 0.68817 0.97761 0.0
O1020 O 0.37538 0.61706 1.01455 0.0
O1021 O 0.42247 0.62419 1.00512 0.0
O1022 O 0.43624 0.68367 0.9986 0.0
O1023 O 0.40374 0.71756 1.00716 0.0
O1024 O 0.37224 0.67967 1.0245 0.0
O1025 O 0.32172 0.67898 1.01783 0.0
O1026 O 0.32769 0.73953 1.01221 0.0
O1027 O 0.31738 0.74124 0.99283 0.0
O1028 O 0.32245 0.68626 0.98183 0.0
O1029 O 0.33333 0.64658 0.9936 0.0
O1030 O 0.38267 0.71422 0.98363 0.0
O1031 O 0.39151 0.65953 0.98327 0.0
H1032 H 0.41419 0.54484 1.02268 0.0
H1033 H 0.44195 0.53098 1.04206 0.0
H1034 H 0.46289 0.63579 1.04804 0.0
H1035 H 0.43565 0.64932 1.02861 0.0
H1036 H 0.37981 0.77809 1.00734 0.0
H1037 H 0.40474 0.82943 0.99989 0.0
H1038 H 0.30675 0.86586 0.98991 0.0
H1039 H 0.282 0.81325 0.99696 0.0
Nd1040 Nd 0.17149 0.63704 0.75273 0.0
Nd1041 Nd 0.12849 0.60201 0.74948 0.0
C1042 C 0.22986 0.66387 0.75882 0.0
C1043 C 0.24046 0.68795 0.76807 0.0
C1044 C 0.2744 0.69521 0.76958 0.0
C1045 C 0.2846 0.71732 0.77874 0.0
C1046 C 0.26087 0.73236 0.78647 0.0
C1047 C 0.22679 0.7252 0.78479 0.0
C1048 C 0.21666 0.70311 0.77565 0.0
C1049 C 0.11917 0.6862 0.75244 0.0
C1050 C 0.15504 0.59208 0.77714 0.0
C1051 C 0.06879 0.57416 0.75182 0.0
C1052 C 1.03661 0.59142 0.75313 0.0
C1053 C 1.03556 0.623 0.75879 0.0
C1054 C 1.00928 0.6449 0.75637 0.0
C1055 C 0.98382 0.6355 0.74824 0.0
C1056 C 0.98271 0.60236 0.74391 0.0
C1057 C 1.00909 0.58049 0.7463 0.0
C1058 C 0.17626 0.57043 0.73325 0.0
C1059 C 0.1433 0.64297 0.72655 0.0
O1060 O 0.21915 0.63539 0.76306 0.0
O1061 O 0.21073 0.67561 0.75022 0.0
O1062 O 0.1483 0.68854 0.74739 0.0
O1063 O 0.11746 0.65662 0.75741 0.0
O1064 O 0.16495 0.62228 0.77388 0.0
O1065 O 0.14331 0.57449 0.76792 0.0
O1066 O 0.08964 0.57728 0.76091 0.0
O1067 O 0.08329 0.5788 0.74128 0.0
O1068 O 0.14418 0.57222 0.73195 0.0
O1069 O 0.18324 0.58439 0.74375 0.0
O1070 O 0.1169 0.63535 0.73298 0.0
O1071 O 0.1723 0.63963 0.73187 0.0
H1072 H 0.29298 0.68361 0.76376 0.0
H1073 H 0.31099 0.72268 0.77978 0.0
H1074 H 0.20804 0.73607 0.79073 0.0
H1075 H 0.1903 0.6975 0.77459 0.0
H1076 H 0.05651 0.63202 0.76414 0.0
H1077 H 1.01051 0.67023 0.75984 0.0
H1078 H 0.96353 0.59454 0.73752 0.0
H1079 H 1.00953 0.55635 0.7418 0.0
Nd1080 Nd 0.20774 0.41976 0.50198 0.0
Nd1081 Nd 0.24271 0.37995 0.49926 0.0
C1082 C 0.18234 0.4781 0.50865 0.0
C1083 C 0.15904 0.48856 0.51812 0.0
C1084 C 0.15309 0.52256 0.52009 0.0
C1085 C 0.13144 0.53254 0.5294 0.0
C1086 C 0.11557 0.50852 0.53679 0.0
C1087 C 0.1215 0.47441 0.53468 0.0
C1088 C 0.14315 0.46449 0.5254 0.0
C1089 C 0.15802 0.36839 0.50145 0.0
C1090 C 0.25029 0.40594 0.52654 0.0
C1091 C 0.27191 0.32159 0.50305 0.0
C1092 C 0.25519 0.28884 0.5037 0.0
C1093 C 0.22313 0.2864 0.50894 0.0
C1094 C 0.20213 0.25976 0.50593 0.0
C1095 C 0.21289 0.23521 0.49767 0.0
C1096 C 0.24635 0.23551 0.49368 0.0
C1097 C 0.26733 0.26227 0.49664 0.0
C1098 C 0.27417 0.42625 0.4825 0.0
C1099 C 0.2023 0.39098 0.47595 0.0
O1100 O 0.21089 0.46685 0.51261 0.0
O1101 O 0.1697 0.4595 0.50004 0.0
O1102 O 0.15605 0.39759 0.4964 0.0
O1103 O 0.1876 0.36604 0.50639 0.0
O1104 O 0.21882 0.40827 0.52316 0.0
O1105 O 0.26986 0.40114 0.51706 0.0
O1106 O 0.26517 0.34249 0.51185 0.0
O1107 O 0.27056 0.33582 0.49234 0.0
O1108 O 0.27243 0.39404 0.4815 0.0
O1109 O 0.25974 0.43404 0.49281 0.0
O1110 O 0.21123 0.36535 0.48254 0.0
O1111 O 0.20418 0.42026 0.48114 0.0
H1112 H 0.16529 0.54132 0.51449 0.0
H1113 H 0.12701 0.55897 0.5308 0.0
H1114 H 0.10993 0.45545 0.54036 0.0
H1115 H 0.14776 0.43809 0.52397 0.0
H1116 H 0.21311 0.30652 0.51445 0.0
H1117 H 0.17655 0.25992 0.50917 0.0
H1118 H 0.25522 0.21706 0.4872 0.0
H1119 H 0.29183 0.26375 0.49246 0.0
Nd1120 Nd 0.41606 0.63066 0.39345 0.0
Nd1121 Nd 0.46064 0.59779 0.39745 0.0
C1122 C 0.35671 0.65379 0.38686 0.0
C1123 C 0.34295 0.67388 0.37684 0.0
C1124 C 0.34762 0.66452 0.36456 0.0
C1125 C 0.3359 0.68488 0.35516 0.0
C1126 C 0.31955 0.71496 0.3579 0.0
C1127 C 0.31435 0.72401 0.37017 0.0
C1128 C 0.32586 0.7035 0.37958 0.0
C1129 C 0.46718 0.68158 0.39401 0.0
C1130 C 0.43589 0.58677 0.36938 0.0
C1131 C 0.52197 0.57325 0.39637 0.0
C1132 C 0.55339 0.59222 0.39568 0.0
C1133 C 0.55348 0.62429 0.39039 0.0
C1134 C 0.57892 0.64698 0.39315 0.0
C1135 C 0.60463 0.63784 0.40119 0.0
C1136 C 0.60651 0.60454 0.40531 0.0
C1137 C 0.5809 0.58192 0.40262 0.0
C1138 C 0.41305 0.56449 0.41327 0.0
C1139 C 0.43994 0.6391 0.4199 0.0
O1140 O 0.36748 0.62401 0.38409 0.0
O1141 O 0.37649 0.66936 0.39441 0.0
O1142 O 0.4377 0.68315 0.39885 0.0
O1143 O 0.4698 0.65201 0.38915 0.0
O1144 O 0.42436 0.6164 0.37249 0.0
O1145 O 0.44809 0.56985 0.37873 0.0
O1146 O 0.50238 0.57514 0.38687 0.0
O1147 O 0.50569 0.57719 0.40657 0.0
O1148 O 0.44481 0.56821 0.41501 0.0
O1149 O 0.40647 0.57752 0.40257 0.0
O1150 O 0.46756 0.63308 0.4139 0.0
O1151 O 0.41203 0.63367 0.41409 0.0
H1152 H 0.36078 0.64181 0.36219 0.0
H1153 H 0.34046 0.67759 0.34575 0.0
H1154 H 0.30153 0.74699 0.37247 0.0
H1155 H 0.32193 0.71103 0.389 0.0
H1156 H 0.53251 0.6328 0.38497 0.0
H1157 H 0.57708 0.67244 0.38986 0.0
H1158 H 0.62587 0.59694 0.41166 0.0
H1159 H 0.58114 0.55744 0.40687 0.0
Nd1160 Nd 0.20954 0.66561 0.14427 0.0
Nd1161 Nd 0.2435 0.70562 0.14779 0.0
C1162 C 0.18642 0.60757 0.13622 0.0
C1163 C 0.16667 0.59805 0.12557 0.0
C1164 C 0.16356 0.56437 0.12234 0.0
C1165 C 0.14581 0.55547 0.11183 0.0
C1166 C 0.13105 0.58024 0.10448 0.0
C1167 C 0.13431 0.61401 0.1078 0.0
C1168 C 0.15206 0.62286 0.11827 0.0
C1169 C 0.15918 0.71629 0.14488 0.0
C1170 C 0.25264 0.6817 0.12024 0.0
C1171 C 0.27193 0.76486 0.14497 0.0
C1172 C 0.2545 0.79719 0.14449 0.0
C1173 C 0.22247 0.79899 0.13918 0.0
C1174 C 0.20084 0.82498 0.14225 0.0
C1175 C 0.21102 0.84965 0.15057 0.0
C1176 C 0.24437 0.85 0.15467 0.0
C1177 C 0.26593 0.82379 0.1517 0.0
C1178 C 0.27473 0.65902 0.16442 0.0
C1179 C 0.20049 0.69153 0.17044 0.0
O1180 O 0.21622 0.61878 0.13374 0.0
O1181 O 0.17106 0.62573 0.14435 0.0
O1182 O 0.15714 0.68666 0.14961 0.0
O1183 O 0.189 0.71933 0.14022 0.0
O1184 O 0.22106 0.67916 0.12337 0.0
O1185 O 0.2717 0.68589 0.12992 0.0
O1186 O 0.26641 0.74453 0.13588 0.0
O1187 O 0.26999 0.74972 0.1555 0.0
O1188 O 0.27182 0.69103 0.16578 0.0
O1189 O 0.26123 0.65164 0.15388 0.0
O1190 O 0.20963 0.71778 0.16418 0.0
O1191 O 0.20358 0.66272 0.16497 0.0
H1192 H 0.17494 0.54505 0.12789 0.0
H1193 H 0.14333 0.52925 0.10952 0.0
H1194 H 0.12348 0.63357 0.10221 0.0
H1195 H 0.15463 0.64905 0.12064 0.0
H1196 H 0.21302 0.77885 0.13353 0.0
H1197 H 0.17531 0.8243 0.13895 0.0
H1198 H 0.25274 0.86857 0.16122 0.0
H1199 H 0.29038 0.82277 0.15595 0.0
Nd1200 Nd 0.17487 0.45376 0.89289 0.0
Nd1201 Nd 0.13272 0.48799 0.89686 0.0
C1202 C 0.23333 0.4302 0.88544 0.0
C1203 C 0.24397 0.41166 0.87463 0.0
C1204 C 0.27799 0.40671 0.87235 0.0
C1205 C 0.28813 0.3901 0.86174 0.0
C1206 C 0.26427 0.37841 0.85329 0.0
C1207 C 0.23015 0.38348 0.85567 0.0
C1208 C 0.22008 0.4 0.86626 0.0
C1209 C 0.12336 0.40375 0.89337 0.0
C1210 C 0.1571 0.49896 0.86901 0.0
C1211 C 0.0737 0.5177 0.89522 0.0
C1212 C 1.04053 0.50243 0.89582 0.0
C1213 C 1.03812 0.46762 0.89693 0.0
C1214 C 1.00788 0.45275 0.90003 0.0
C1215 C 0.97936 0.47248 0.90209 0.0
C1216 C 0.98116 0.50709 0.89969 0.0
C1217 C 1.01173 0.52204 0.8967 0.0
C1218 C 0.1807 0.51797 0.91335 0.0
C1219 C 0.14799 0.44375 0.91905 0.0
O1220 O 0.22317 0.46053 0.8833 0.0
O1221 O 0.2137 0.41426 0.89293 0.0
O1222 O 0.15321 0.4013 0.89785 0.0
O1223 O 0.12053 0.43376 0.88882 0.0
O1224 O 0.1653 0.46812 0.87194 0.0
O1225 O 0.14786 0.51665 0.87858 0.0
O1226 O 0.09149 0.50942 0.88573 0.0
O1227 O 0.09078 0.51582 0.90534 0.0
O1228 O 0.14883 0.51476 0.91497 0.0
O1229 O 0.18728 0.50562 0.90255 0.0
O1230 O 0.12148 0.45262 0.91287 0.0
O1231 O 0.17683 0.44758 0.91362 0.0
H1232 H 0.29666 0.41589 0.87871 0.0
H1233 H 0.31459 0.38674 0.86007 0.0
H1234 H 0.21124 0.37431 0.84941 0.0
H1235 H 0.19366 0.40376 0.86793 0.0
H1236 H 0.06017 0.45211 0.89626 0.0
H1237 H 1.00784 0.42617 0.9019 0.0
H1238 H 0.95951 0.52291 0.90094 0.0
H1239 H 1.01321 0.54895 0.89575 0.0
Nd1240 Nd 0.38059 0.42617 0.64302 0.0
Nd1241 Nd 0.34665 0.38843 0.64695 0.0
C1242 C 0.40263 0.48323 0.63372 0.0
C1243 C 0.42048 0.49172 0.62251 0.0
C1244 C 0.42246 0.52503 0.61869 0.0
C1245 C 0.43854 0.53299 0.60774 0.0
C1246 C 0.45275 0.50765 0.60051 0.0
C1247 C 0.45043 0.47423 0.60436 0.0
C1248 C 0.43435 0.46632 0.61529 0.0
C1249 C 0.4311 0.37586 0.6441 0.0
C1250 C 0.33753 0.40974 0.61928 0.0
C1251 C 0.31448 0.33088 0.64432 0.0
C1252 C 0.3279 0.29694 0.64528 0.0
C1253 C 0.36233 0.29184 0.6437 0.0
C1254 C 0.37739 0.26291 0.6481 0.0
C1255 C 0.35819 0.23858 0.65415 0.0
C1256 C 0.32314 0.24195 0.65433 0.0
C1257 C 0.30811 0.27119 0.65005 0.0
C1258 C 0.31697 0.43517 0.66378 0.0
C1259 C 0.39098 0.40212 0.66931 0.0
O1260 O 0.37237 0.47205 0.63208 0.0
O1261 O 0.41927 0.46571 0.6417 0.0
O1262 O 0.43341 0.40613 0.64826 0.0
O1263 O 0.40094 0.37201 0.63978 0.0
O1264 O 0.36916 0.40958 0.6224 0.0
O1265 O 0.31863 0.40904 0.62911 0.0
O1266 O 0.3253 0.3485 0.63512 0.0
O1267 O 0.31506 0.34771 0.65451 0.0
O1268 O 0.31992 0.40318 0.66519 0.0
O1269 O 0.3301 0.44248 0.65316 0.0
O1270 O 0.38031 0.37579 0.66339 0.0
O1271 O 0.38872 0.43061 0.66357 0.0
H1272 H 0.4116 0.5448 0.62417 0.0
H1273 H 0.44035 0.55898 0.60503 0.0
H1274 H 0.4609 0.45424 0.59889 0.0
H1275 H 0.43263 0.44039 0.6181 0.0
H1276 H 0.37807 0.31138 0.64 0.0
H1277 H 0.4044 0.26129 0.64783 0.0
H1278 H 0.30764 0.22322 0.65871 0.0
H1279 H 0.28149 0.27471 0.65131 0.0
C1280 C 0.17577 0.17574 0.43693 0.0
C1281 C 0.14906 0.15618 0.43284 0.0
C1282 C 0.17773 0.18621 0.4491 0.0
C1283 C 0.15253 0.17633 0.45748 0.0
C1284 C 0.1248 0.15743 0.45332 0.0
C1285 C 0.12328 0.14766 0.44095 0.0
C1286 C 0.20735 0.2072 0.45302 0.0
C1287 C 0.09768 0.14611 0.46198 0.0
C1288 C 0.19485 0.18173 0.48785 0.0
C1289 C 0.18817 0.21512 0.49078 0.0
C1290 C 0.1789 0.16641 0.47787 0.0
C1291 C 0.15674 0.18544 0.47056 0.0
C1292 C 0.14651 0.21747 0.47453 0.0
C1293 C 0.16213 0.23183 0.48474 0.0
C1294 C 0.18934 0.13162 0.47419 0.0
C1295 C 0.12294 0.23851 0.46699 0.0
H1296 H 0.1955 0.18262 0.4306 0.0
H1297 H 0.10271 0.13229 0.43776 0.0
H1298 H 0.19872 0.23037 0.45761 0.0
H1299 H 0.22277 0.1931 0.45969 0.0
H1300 H 0.22351 0.21438 0.44517 0.0
H1301 H 0.07457 0.13888 0.45699 0.0
H1302 H 0.10662 0.12401 0.46716 0.0
H1303 H 0.09146 0.16584 0.46874 0.0
H1304 H 0.21458 0.16862 0.49266 0.0
H1305 H 0.15673 0.25765 0.48702 0.0
H1306 H 0.20839 0.13324 0.46683 0.0
H1307 H 0.16775 0.11728 0.47056 0.0
H1308 H 0.20039 0.11773 0.48202 0.0
H1309 H 0.1356 0.24638 0.45841 0.0
H1310 H 0.11487 0.26135 0.47195 0.0
H1311 H 0.10054 0.2238 0.46436 0.0
C1312 C 0.221 0.89725 0.69192 0.0
C1313 C 0.19687 0.88713 0.68343 0.0
C1314 C 0.21206 0.90492 0.70398 0.0
C1315 C 0.17802 0.90319 0.70739 0.0
C1316 C 0.15424 0.88936 0.69917 0.0
C1317 C 0.16405 0.88145 0.68719 0.0
C1318 C 0.23838 0.91859 0.71253 0.0
C1319 C 0.11771 0.88685 0.70249 0.0
C1320 C 0.14221 0.92637 0.73838 0.0
C1321 C 0.1313 0.95913 0.73604 0.0
C1322 C 0.1596 0.90816 0.72943 0.0
C1323 C 0.16601 0.92314 0.71794 0.0
C1324 C 0.15764 0.95709 0.71595 0.0
C1325 C 0.14046 0.97462 0.72503 0.0
C1326 C 0.16901 0.87233 0.732 0.0
C1327 C 0.1643 0.97422 0.70384 0.0
H1328 H 0.24643 0.90144 0.68891 0.0
H1329 H 0.14554 0.8737 0.6805 0.0
H1330 H 0.23826 0.94631 0.7121 0.0
H1331 H 0.23336 0.91115 0.72215 0.0
H1332 H 0.26375 0.9099 0.7099 0.0
H1333 H 0.1036 0.87106 0.6959 0.0
H1334 H 0.11459 0.87633 0.71182 0.0
H1335 H 0.10655 0.91224 0.70248 0.0
H1336 H 0.13566 0.9144 0.74696 0.0
H1337 H 0.13185 0.9997 0.72302 0.0
H1338 H 0.19381 0.8663 0.72804 0.0
H1339 H 0.15037 0.85545 0.7277 0.0
H1340 H 0.16949 0.86701 0.74198 0.0
H1341 H 0.19104 0.97195 0.70133 0.0
H1342 H 0.15774 1.00119 0.70404 0.0
H1343 H 0.14944 0.962 0.69651 0.0
C1344 C 0.45835 0.91674 0.93858 0.0
C1345 C 0.44604 0.94713 0.93425 0.0
C1346 C 0.45055 0.90609 0.95049 0.0
C1347 C 0.43035 0.92668 0.95804 0.0
C1348 C 0.42211 0.95936 0.95419 0.0
C1349 C 0.42954 0.96895 0.94219 0.0
C1350 C 0.46023 0.87123 0.95436 0.0
C1351 C 0.40175 0.9826 0.96211 0.0
C1352 C 0.36128 0.87951 0.97388 0.0
C1353 C 0.37374 0.87612 0.98581 0.0
C1354 C 0.37923 0.89672 0.96493 0.0
C1355 C 0.41048 0.91117 0.96797 0.0
C1356 C 0.42245 0.90959 0.98014 0.0
C1357 C 0.40396 0.89183 0.98894 0.0
C1358 C 0.3654 0.89785 0.95203 0.0
C1359 C 0.45537 0.92512 0.98378 0.0
H1360 H 0.47124 0.90006 0.93234 0.0
H1361 H 0.42044 0.99264 0.93878 0.0
H1362 H 0.46867 0.87099 0.96404 0.0
H1363 H 0.4381 0.85457 0.95365 0.0
H1364 H 0.4804 0.86086 0.9485 0.0
H1365 H 0.40448 1.00904 0.95914 0.0
H1366 H 0.37494 0.97572 0.96141 0.0
H1367 H 0.40922 0.98051 0.97187 0.0
H1368 H 0.3384 0.86683 0.97128 0.0
H1369 H 0.41369 0.88931 0.99817 0.0
H1370 H 0.38293 0.88533 0.94564 0.0
H1371 H 0.36268 0.92415 0.94898 0.0
H1372 H 0.34065 0.88542 0.95126 0.0
H1373 H 0.47597 0.90786 0.98131 0.0
H1374 H 0.45665 0.92964 0.99381 0.0
H1375 H 0.45969 0.94909 0.97892 0.0
C1376 C 0.43383 0.14798 0.23717 0.0
C1377 C 0.4674 0.15468 0.23983 0.0
C1378 C 0.41789 0.16413 0.22739 0.0
C1379 C 0.43646 0.18654 0.21999 0.0
C1380 C 0.46868 0.19685 0.22375 0.0
C1381 C 0.48367 0.18104 0.23378 0.0
C1382 C 0.38297 0.15346 0.22391 0.0
C1383 C 0.48925 0.22062 0.21608 0.0
C1384 C 0.42606 0.16772 0.18639 0.0
C1385 C 0.40628 0.19431 0.1824 0.0
C1386 C 0.43671 0.16568 0.19853 0.0
C1387 C 0.42683 0.19069 0.20697 0.0
C1388 C 0.40769 0.21831 0.20292 0.0
C1389 C 0.39771 0.2199 0.19057 0.0
C1390 C 0.458 0.13622 0.20233 0.0
C1391 C 0.39643 0.24524 0.21165 0.0
H1392 H 0.42107 0.12799 0.24199 0.0
H1393 H 0.50962 0.18646 0.23586 0.0
H1394 H 0.3684 0.17497 0.22038 0.0
H1395 H 0.38432 0.13442 0.21653 0.0
H1396 H 0.36949 0.1423 0.23181 0.0
H1397 H 0.51283 0.22801 0.22073 0.0
H1398 H 0.49583 0.20849 0.20726 0.0
H1399 H 0.47464 0.2434 0.21392 0.0
H1400 H 0.43298 0.14815 0.18001 0.0
H1401 H 0.38215 0.24036 0.18744 0.0
H1402 H 0.44432 0.12075 0.20912 0.0
H1403 H 0.48137 0.14506 0.20675 0.0
H1404 H 0.46482 0.12002 0.19446 0.0
H1405 H 0.37483 0.23585 0.21702 0.0
H1406 H 0.38851 0.26819 0.20672 0.0
H1407 H 0.41648 0.25186 0.21824 0.0
C1408 C 0.17337 0.91339 0.21057 0.0
C1409 C 0.14641 0.93279 0.21449 0.0
C1410 C 0.17513 0.90161 0.19856 0.0
C1411 C 0.14948 0.90998 0.19015 0.0
C1412 C 0.12146 0.9286 0.19416 0.0
C1413 C 0.12015 0.93971 0.20638 0.0
C1414 C 0.20506 0.88092 0.19483 0.0
C1415 C 0.09377 0.93821 0.18548 0.0
C1416 C 0.19164 0.90327 0.15983 0.0
C1417 C 0.18588 0.86946 0.1573 0.0
C1418 C 0.17526 0.91896 0.16961 0.0
C1419 C 0.1537 0.89989 0.17718 0.0
C1420 C 0.1444 0.86719 0.1736 0.0
C1421 C 0.16038 0.85244 0.16355 0.0
C1422 C 0.18471 0.95439 0.17286 0.0
C1423 C 0.12147 0.84609 0.18141 0.0
H1424 H 0.19343 0.90765 0.2169 0.0
H1425 H 0.09934 0.95487 0.20945 0.0
H1426 H 0.19678 0.85706 0.19062 0.0
H1427 H 0.22 0.89465 0.1879 0.0
H1428 H 0.22161 0.87498 0.2027 0.0
H1429 H 0.07054 0.94486 0.19048 0.0
H1430 H 0.10178 0.9603 0.18008 0.0
H1431 H 0.08811 0.91778 0.17892 0.0
H1432 H 0.21099 0.91656 0.15486 0.0
H1433 H 0.15574 0.82628 0.16156 0.0
H1434 H 0.20381 0.95405 0.18024 0.0
H1435 H 0.16271 0.96834 0.17632 0.0
H1436 H 0.19533 0.96791 0.16487 0.0
H1437 H 0.13434 0.83948 0.19008 0.0
H1438 H 0.1141 0.82253 0.17674 0.0
H1439 H 0.09864 0.86029 0.18384 0.0
C1440 C 0.43407 0.97242 0.41745 0.0
C1441 C 0.44994 0.95405 0.40818 0.0
C1442 C 0.41682 0.95623 0.42688 0.0
C1443 C 0.416 0.92088 0.42714 0.0
C1444 C 0.42726 0.90256 0.41688 0.0
C1445 C 0.4438 0.91948 0.40739 0.0
C1446 C 0.40352 0.97684 0.4374 0.0
C1447 C 0.42547 0.86491 0.41658 0.0
C1448 C 0.43302 0.89427 0.45956 0.0
C1449 C 0.40069 0.88905 0.46388 0.0
C1450 C 0.43861 0.9013 0.44717 0.0
C1451 C 0.41093 0.90401 0.43909 0.0
C1452 C 0.37845 0.89603 0.44329 0.0
C1453 C 0.37374 0.88853 0.45571 0.0
C1454 C 0.47381 0.90901 0.44302 0.0
C1455 C 0.34822 0.89848 0.43507 0.0
H1456 H 0.43804 0.99913 0.41817 0.0
H1457 H 0.4546 0.90518 0.39995 0.0
H1458 H 0.37865 0.96758 0.44033 0.0
H1459 H 0.42073 0.97468 0.44534 0.0
H1460 H 0.40129 1.0037 0.43494 0.0
H1461 H 0.42775 0.85514 0.40709 0.0
H1462 H 0.44629 0.8545 0.4221 0.0
H1463 H 0.4017 0.85581 0.42062 0.0
H1464 H 0.45365 0.89491 0.466 0.0
H1465 H 0.34866 0.88469 0.45918 0.0
H1466 H 0.47619 0.93618 0.44115 0.0
H1467 H 0.4796 0.89549 0.43441 0.0
H1468 H 0.49269 0.90206 0.45003 0.0
H1469 H 0.33808 0.92425 0.43552 0.0
H1470 H 0.32818 0.88114 0.43813 0.0
H1471 H 0.35449 0.89293 0.42539 0.0
C1472 C 0.40542 0.19936 0.65911 0.0
C1473 C 0.37503 0.21443 0.66237 0.0
C1474 C 0.42444 0.18182 0.66781 0.0
C1475 C 0.41279 0.17972 0.68001 0.0
C1476 C 0.38145 0.19362 0.6832 0.0
C1477 C 0.36302 0.21071 0.67435 0.0
C1478 C 0.4575 0.16698 0.66403 0.0
C1479 C 0.36794 0.19188 0.69613 0.0
C1480 C 0.43285 0.12093 0.70536 0.0
C1481 C 0.44913 0.14262 0.71345 0.0
C1482 C 0.42517 0.13101 0.69345 0.0
C1483 C 0.43299 0.16401 0.6898 0.0
C1484 C 0.45306 0.18451 0.69747 0.0
C1485 C 0.46107 0.1734 0.7093 0.0
C1486 C 0.40487 0.10791 0.68542 0.0
C1487 C 0.46229 0.2197 0.69382 0.0
H1488 H 0.41481 0.20212 0.64985 0.0
H1489 H 0.34003 0.22291 0.67706 0.0
H1490 H 0.47797 0.18411 0.66682 0.0
H1491 H 0.46184 0.14257 0.66858 0.0
H1492 H 0.45901 0.16348 0.65395 0.0
H1493 H 0.34305 0.20388 0.69702 0.0
H1494 H 0.36561 0.16545 0.69908 0.0
H1495 H 0.38545 0.20448 0.70252 0.0
H1496 H 0.424 0.09697 0.70864 0.0
H1497 H 0.47373 0.19001 0.71565 0.0
H1498 H 0.41212 0.11057 0.67566 0.0
H1499 H 0.37801 0.11441 0.68622 0.0
H1500 H 0.4079 0.08136 0.6882 0.0
H1501 H 0.47035 0.22062 0.68411 0.0
H1502 H 0.4826 0.22996 0.69966 0.0
H1503 H 0.44006 0.23604 0.69477 0.0
C1504 C 0.16036 0.20119 0.95931 0.0
C1505 C 0.19333 0.2007 0.96341 0.0
C1506 C 0.15288 0.19325 0.94711 0.0
C1507 C 0.17917 0.18435 0.93902 0.0
C1508 C 0.21277 0.18735 0.94288 0.0
C1509 C 0.21943 0.19531 0.95513 0.0
C1510 C 0.11667 0.19069 0.94333 0.0
C1511 C 0.24163 0.17869 0.93458 0.0
C1512 C 0.14904 0.11334 0.91948 0.0
C1513 C 0.13701 0.13041 0.90917 0.0
C1514 C 0.166 0.1303 0.92879 0.0
C1515 C 0.17087 0.16524 0.92779 0.0
C1516 C 0.16256 0.18187 0.91679 0.0
C1517 C 0.14583 0.16415 0.90753 0.0
C1518 C 0.17533 0.11138 0.94028 0.0
C1519 C 0.16863 0.21885 0.91523 0.0
H1520 H 0.14034 0.20518 0.96584 0.0
H1521 H 0.24494 0.19501 0.95842 0.0
H1522 H 0.11269 0.20259 0.93427 0.0
H1523 H 0.10959 0.16395 0.94248 0.0
H1524 H 0.09973 0.20263 0.95009 0.0
H1525 H 0.26449 0.19275 0.93722 0.0
H1526 H 0.24728 0.15165 0.93545 0.0
H1527 H 0.23578 0.184 0.92484 0.0
H1528 H 0.14249 0.08736 0.92093 0.0
H1529 H 0.13754 0.17732 0.8994 0.0
H1530 H 0.15881 0.11922 0.94792 0.0
H1531 H 0.20143 0.11711 0.94299 0.0
H1532 H 0.17289 0.0839 0.9391 0.0
H1533 H 0.1499 0.23298 0.92064 0.0
H1534 H 0.16653 0.22668 0.9055 0.0
H1535 H 0.19373 0.22585 0.91873 0.0
C1536 C 0.94139 0.97127 0.70558 0.0
C1537 C 0.944 0.94452 0.71377 0.0
C1538 C 0.93348 0.96571 0.69324 0.0
C1539 C 0.92806 0.93257 0.68918 0.0
C1540 C 0.93405 0.90536 0.69724 0.0
C1541 C 0.94164 0.91175 0.70953 0.0
C1542 C 0.92774 0.99547 0.68502 0.0
C1543 C 0.92905 0.86954 0.69322 0.0
C1544 C 0.85899 0.90429 0.66864 0.0
C1545 C 0.87734 0.88999 0.65903 0.0
C1546 C 0.87502 0.92247 0.67787 0.0
C1547 C 0.9102 0.92596 0.67754 0.0
C1548 C 0.92803 0.91621 0.66696 0.0
C1549 C 0.91123 0.8986 0.65771 0.0
C1550 C 0.85481 0.93392 0.68878 0.0
C1551 C 0.96536 0.92079 0.66604 0.0
H1552 H 0.94314 0.99664 0.70898 0.0
H1553 H 0.94342 0.89125 0.716 0.0
H1554 H 0.93296 0.98952 0.67528 0.0
H1555 H 0.90126 1.00341 0.68576 0.0
H1556 H 0.94357 1.01697 0.68785 0.0
H1557 H 0.93846 0.85146 0.70013 0.0
H1558 H 0.90201 0.86472 0.69178 0.0
H1559 H 0.94201 0.86485 0.68442 0.0
H1560 H 0.83276 0.89831 0.66975 0.0
H1561 H 0.92536 0.88885 0.65004 0.0
H1562 H 0.86219 0.95955 0.69155 0.0
H1563 H 0.85965 0.91705 0.69665 0.0
H1564 H 0.82755 0.93371 0.68685 0.0
H1565 H 0.97328 0.94487 0.67018 0.0
H1566 H 0.97394 0.91989 0.65637 0.0
H1567 H 0.97797 0.90036 0.67112 0.0
C1568 C 0.89336 0.21242 0.45638 0.0
C1569 C 0.90458 0.1881 0.46465 0.0
C1570 C 0.90147 0.21025 0.44387 0.0
C1571 C 0.92199 0.18373 0.43977 0.0
C1572 C 0.93433 0.15993 0.44825 0.0
C1573 C 0.92514 0.16224 0.46055 0.0
C1574 C 0.88783 0.23603 0.43512 0.0
C1575 C 0.95699 0.13162 0.44435 0.0
C1576 C 0.92984 0.1406 0.40968 0.0
C1577 C 0.96274 0.14945 0.40671 0.0
C1578 C 0.9135 0.15587 0.41956 0.0
C1579 C 0.93096 0.17978 0.42668 0.0
C1580 C 0.96202 0.19233 0.42254 0.0
C1581 C 0.97743 0.17721 0.41246 0.0
C1582 C 0.87966 0.14292 0.4234 0.0
C1583 C 0.98117 0.21811 0.42982 0.0
H1584 H 0.87728 0.23235 0.4596 0.0
H1585 H 0.93397 0.14361 0.46699 0.0
H1586 H 0.90783 0.25417 0.4328 0.0
H1587 H 0.87934 0.22423 0.42646 0.0
H1588 H 0.86664 0.2501 0.43918 0.0
H1589 H 0.96551 0.11625 0.45223 0.0
H1590 H 0.94367 0.11503 0.43783 0.0
H1591 H 0.97936 0.14166 0.4396 0.0
H1592 H 0.91816 0.11962 0.40506 0.0
H1593 H 1.00276 0.18444 0.41013 0.0
H1594 H 0.86392 0.16343 0.42706 0.0
H1595 H 0.88287 0.12411 0.43079 0.0
H1596 H 0.86637 0.13075 0.41566 0.0
H1597 H 0.9654 0.24045 0.43139 0.0
H1598 H 1.00456 0.22594 0.42515 0.0
H1599 H 0.9879 0.20775 0.43892 0.0
C1600 C 0.68332 0.18343 0.1588 0.0
C1601 C 0.6785 0.21755 0.15662 0.0
C1602 C 0.66757 0.16777 0.16873 0.0
C1603 C 0.64774 0.18716 0.17678 0.0
C1604 C 0.63878 0.22012 0.17347 0.0
C1605 C 0.65401 0.23486 0.16326 0.0
C1606 C 0.67627 0.13197 0.17164 0.0
C1607 C 0.61739 0.24144 0.18173 0.0
C1608 C 0.61846 0.14914 0.20692 0.0
C1609 C 0.64628 0.15568 0.21435 0.0
C1610 C 0.61811 0.15929 0.19458 0.0
C1611 C 0.64582 0.17713 0.18983 0.0
C1612 C 0.67323 0.18501 0.19755 0.0
C1613 C 0.67322 0.17384 0.20966 0.0
C1614 C 0.58836 0.15066 0.18669 0.0
C1615 C 0.70302 0.20477 0.19301 0.0
H1616 H 0.7018 0.1699 0.15351 0.0
H1617 H 0.64996 0.26123 0.1615 0.0
H1618 H 0.69678 0.13149 0.17849 0.0
H1619 H 0.65449 0.11865 0.17564 0.0
H1620 H 0.68479 0.11834 0.16335 0.0
H1621 H 0.61082 0.26573 0.17743 0.0
H1622 H 0.59407 0.22798 0.18414 0.0
H1623 H 0.63102 0.24665 0.19039 0.0
H1624 H 0.59755 0.13512 0.21061 0.0
H1625 H 0.69452 0.17927 0.21547 0.0
H1626 H 0.59624 0.14309 0.17735 0.0
H1627 H 0.57215 0.17297 0.18578 0.0
H1628 H 0.57318 0.13022 0.19077 0.0
H1629 H 0.71618 0.19051 0.18576 0.0
H1630 H 0.7212 0.21037 0.20042 0.0
H1631 H 0.69471 0.22879 0.18895 0.0
C1632 C 0.65863 0.93554 0.90911 0.0
C1633 C 0.62457 0.93098 0.90671 0.0
C1634 C 0.67377 0.91937 0.91906 0.0
C1635 C 0.65392 0.89931 0.9269 0.0
C1636 C 0.62091 0.89088 0.92343 0.0
C1637 C 0.60673 0.90651 0.91321 0.0
C1638 C 0.70951 0.92779 0.92221 0.0
C1639 C 0.59892 0.86971 0.93157 0.0
C1640 C 0.69044 0.86718 0.95689 0.0
C1641 C 0.68361 0.89425 0.96464 0.0
C1642 C 0.68062 0.86791 0.94451 0.0
C1643 C 0.66357 0.8963 0.93996 0.0
C1644 C 0.65566 0.92308 0.94795 0.0
C1645 C 0.66594 0.92174 0.96014 0.0
C1646 C 0.68973 0.83905 0.93628 0.0
C1647 C 0.63676 0.9536 0.9436 0.0
H1648 H 0.67255 0.95408 0.90396 0.0
H1649 H 0.58038 0.90275 0.91131 0.0
H1650 H 0.7099 0.94787 0.92922 0.0
H1651 H 0.72254 0.90573 0.92608 0.0
H1652 H 0.72348 0.93679 0.91405 0.0
H1653 H 0.57494 0.86302 0.92706 0.0
H1654 H 0.61209 0.84648 0.93427 0.0
H1655 H 0.59307 0.88369 0.94009 0.0
H1656 H 0.70432 0.84596 0.96038 0.0
H1657 H 0.66034 0.94254 0.96617 0.0
H1658 H 0.71206 0.84595 0.93081 0.0
H1659 H 0.66928 0.8332 0.92976 0.0
H1660 H 0.69573 0.8162 0.94162 0.0
H1661 H 0.6516 0.96701 0.93656 0.0
H1662 H 0.63127 0.97133 0.95116 0.0
H1663 H 0.61276 0.94606 0.93932 0.0
C1664 C 0.94398 0.11964 0.94173 0.0
C1665 C 0.94862 0.14568 0.93335 0.0
C1666 C 0.93643 0.12643 0.95401 0.0
C1667 C 0.93315 0.16008 0.9578 0.0
C1668 C 0.9413 0.18635 0.94957 0.0
C1669 C 0.94876 0.17875 0.93735 0.0
C1670 C 0.92853 0.09762 0.96245 0.0
C1671 C 0.93846 0.22261 0.95327 0.0
C1672 C 0.86291 0.19001 0.97765 0.0
C1673 C 0.88041 0.2027 0.98777 0.0
C1674 C 0.87951 0.17277 0.96834 0.0
C1675 C 0.91453 0.16833 0.96913 0.0
C1676 C 0.93163 0.17727 0.97997 0.0
C1677 C 0.91426 0.19424 0.98925 0.0
C1678 C 0.86009 0.16277 0.95703 0.0
C1679 C 0.96873 0.17178 0.98132 0.0
H1680 H 0.94384 0.09404 0.93851 0.0
H1681 H 0.95213 0.19872 0.93074 0.0
H1682 H 0.93483 0.10362 0.9721 0.0
H1683 H 0.90141 0.09197 0.96197 0.0
H1684 H 0.94224 0.07471 0.95967 0.0
H1685 H 0.94974 0.23962 0.94637 0.0
H1686 H 0.91169 0.22925 0.95432 0.0
H1687 H 0.95085 0.22697 0.96222 0.0
H1688 H 0.83683 0.19625 0.97634 0.0
H1689 H 0.92779 0.20302 0.99723 0.0
H1690 H 0.86607 0.13673 0.95436 0.0
H1691 H 0.8672 0.17928 0.94928 0.0
H1692 H 0.83266 0.16471 0.95842 0.0
H1693 H 0.97614 0.14722 0.97747 0.0
H1694 H 0.97671 0.17308 0.99106 0.0
H1695 H 0.98238 0.19143 0.97617 0.0
C1696 C 0.66396 0.16848 0.68703 0.0
C1697 C 0.68138 0.19594 0.68233 0.0
C1698 C 0.65435 0.16734 0.6993 0.0
C1699 C 0.66269 0.1943 0.70715 0.0
C1700 C 0.67945 0.22268 0.70241 0.0
C1701 C 0.68861 0.2232 0.68997 0.0
C1702 C 0.63575 0.13682 0.70387 0.0
C1703 C 0.68898 0.25175 0.7105 0.0
C1704 C 0.60745 0.18435 0.73436 0.0
C1705 C 0.62573 0.16013 0.7408 0.0
C1706 C 0.621 0.19985 0.72399 0.0
C1707 C 0.65381 0.19152 0.7203 0.0
C1708 C 0.67417 0.17176 0.72804 0.0
C1709 C 0.65967 0.15576 0.73816 0.0
C1710 C 0.59849 0.22074 0.71596 0.0
C1711 C 0.70974 0.16346 0.72464 0.0
H1712 H 0.65807 0.14753 0.6811 0.0
H1713 H 0.7023 0.2444 0.68634 0.0
H1714 H 0.65099 0.12364 0.71084 0.0
H1715 H 0.61197 0.14433 0.70829 0.0
H1716 H 0.62988 0.11889 0.6964 0.0
H1717 H 0.69456 0.27455 0.70505 0.0
H1718 H 0.66891 0.25759 0.71717 0.0
H1719 H 0.71167 0.24511 0.7158 0.0
H1720 H 0.5812 0.18799 0.73643 0.0
H1721 H 0.67395 0.13744 0.74327 0.0
H1722 H 0.59218 0.20657 0.70753 0.0
H1723 H 0.61146 0.24399 0.71311 0.0
H1724 H 0.57478 0.2274 0.72065 0.0
H1725 H 0.70974 0.14324 0.71768 0.0
H1726 H 0.7242 0.1547 0.73271 0.0
H1727 H 0.7225 0.18551 0.72061 0.0
C1728 C 0.64665 0.90809 0.43727 0.0
C1729 C 0.64217 0.94063 0.43304 0.0
C1730 C 0.65449 0.90216 0.44957 0.0
C1731 C 0.65874 0.92968 0.45764 0.0
C1732 C 0.65128 0.96241 0.45359 0.0
C1733 C 0.64297 0.96747 0.44125 0.0
C1734 C 0.66157 0.86672 0.45359 0.0
C1735 C 0.6553 0.99247 0.46181 0.0
C1736 C 0.6776 0.89734 0.48921 0.0
C1737 C 0.71194 0.89076 0.4879 0.0
C1738 C 0.65977 0.91357 0.47989 0.0
C1739 C 0.67698 0.92422 0.46928 0.0
C1740 C 0.7123 0.92288 0.46895 0.0
C1741 C 0.72937 0.90588 0.47822 0.0
C1742 C 0.62223 0.91581 0.48079 0.0
C1743 C 0.7318 0.93548 0.45803 0.0
H1744 H 0.64624 0.88753 0.43079 0.0
H1745 H 0.63962 0.99268 0.43786 0.0
H1746 H 0.68885 0.86356 0.45501 0.0
H1747 H 0.64898 0.86125 0.46242 0.0
H1748 H 0.65317 0.84808 0.4467 0.0
H1749 H 0.63845 1.01307 0.45893 0.0
H1750 H 0.6502 0.98624 0.47153 0.0
H1751 H 0.68135 1.00183 0.46115 0.0
H1752 H 0.66408 0.88714 0.49696 0.0
H1753 H 0.75589 0.90152 0.47709 0.0
H1754 H 0.61085 0.89491 0.47556 0.0
H1755 H 0.61298 0.93954 0.47678 0.0
H1756 H 0.6136 0.91396 0.49044 0.0
H1757 H 0.72806 0.9182 0.45019 0.0
H1758 H 0.75901 0.9371 0.45997 0.0
H1759 H 0.72285 0.96053 0.4552 0.0
C1760 C 0.983 0.90573 0.23398 0.0
C1761 C 0.96572 0.93105 0.24021 0.0
C1762 C 0.96885 0.89023 0.22371 0.0
C1763 C 0.93646 0.89976 0.21991 0.0
C1764 C 0.91688 0.92072 0.2275 0.0
C1765 C 0.93198 0.93663 0.23752 0.0
C1766 C 0.99044 0.86788 0.21588 0.0
C1767 C 0.88171 0.93029 0.22401 0.0
C1768 C 0.92707 0.92179 0.18652 0.0
C1769 C 0.90845 0.8949 0.18201 0.0
C1770 C 0.93695 0.92297 0.19877 0.0
C1771 C 0.92754 0.89671 0.20678 0.0
C1772 C 0.90955 0.86887 0.20221 0.0
C1773 C 0.90025 0.86824 0.18979 0.0
C1774 C 0.95697 0.9528 0.20314 0.0
C1775 C 0.89884 0.84058 0.21047 0.0
H1776 H 1.00907 0.90112 0.2361 0.0
H1777 H 0.91845 0.95578 0.24249 0.0
H1778 H 0.97657 0.84491 0.21331 0.0
H1779 H 0.99714 0.88111 0.20729 0.0
H1780 H 1.01395 0.86072 0.2206 0.0
H1781 H 0.86759 0.9401 0.23199 0.0
H1782 H 0.88257 0.95011 0.2169 0.0
H1783 H 0.86806 0.90857 0.22013 0.0
H1784 H 0.93372 0.94223 0.18046 0.0
H1785 H 0.88563 0.8475 0.18629 0.0
H1786 H 0.98043 0.94439 0.20759 0.0
H1787 H 0.94242 0.96697 0.21005 0.0
H1788 H 0.96359 0.9701 0.19556 0.0
H1789 H 0.91846 0.83443 0.21727 0.0
H1790 H 0.89267 0.8177 0.20515 0.0
H1791 H 0.87619 0.84825 0.2156 0.0
C1792 C 0.69938 0.68037 0.98759 0.0
C1793 C 0.69116 0.71315 0.99091 0.0
C1794 C 0.68372 0.66503 0.97756 0.0
C1795 C 0.66012 0.68342 0.97063 0.0
C1796 C 0.64841 0.71449 0.97504 0.0
C1797 C 0.66385 0.72886 0.98528 0.0
C1798 C 0.6959 0.63124 0.97337 0.0
C1799 C 0.6233 0.73482 0.96791 0.0
C1800 C 0.67663 0.67828 0.9367 0.0
C1801 C 0.65055 0.65785 0.93264 0.0
C1802 C 0.67929 0.68736 0.949 0.0
C1803 C 0.65547 0.67518 0.95751 0.0
C1804 C 0.6284 0.65527 0.95342 0.0
C1805 C 0.62615 0.64692 0.94093 0.0
C1806 C 0.70809 0.7095 0.95288 0.0
C1807 C 0.60281 0.64152 0.96223 0.0
H1808 H 0.7201 0.66798 0.99209 0.0
H1809 H 0.65724 0.75417 0.98786 0.0
H1810 H 0.67498 0.61601 0.96971 0.0
H1811 H 0.71444 0.63461 0.96591 0.0
H1812 H 0.70814 0.6173 0.98094 0.0
H1813 H 0.61499 0.75728 0.97304 0.0
H1814 H 0.63467 0.74328 0.95917 0.0
H1815 H 0.60118 0.71933 0.96559 0.0
H1816 H 0.69531 0.68694 0.93023 0.0
H1817 H 0.60613 0.6308 0.93777 0.0
H1818 H 0.72462 0.69572 0.95928 0.0
H1819 H 0.69861 0.73186 0.95778 0.0
H1820 H 0.72337 0.71806 0.94498 0.0
H1821 H 0.61375 0.61997 0.9672 0.0
H1822 H 0.57996 0.63278 0.95741 0.0
H1823 H 0.59561 0.66047 0.96916 0.0
C1824 C 0.60845 0.40344 0.2351 0.0
C1825 C 0.62658 0.42741 0.24174 0.0
C1826 C 0.62247 0.38811 0.22478 0.0
C1827 C 0.65556 0.39635 0.22137 0.0
C1828 C 0.67569 0.41559 0.22939 0.0
C1829 C 0.66073 0.43154 0.23942 0.0
C1830 C 0.6002 0.36767 0.21649 0.0
C1831 C 0.71161 0.42349 0.22636 0.0
C1832 C 0.69114 0.3664 0.19093 0.0
C1833 C 0.68494 0.39442 0.18357 0.0
C1834 C 0.68145 0.36612 0.20332 0.0
C1835 C 0.66502 0.3944 0.20826 0.0
C1836 C 0.65766 0.42212 0.20065 0.0
C1837 C 0.66796 0.42184 0.18845 0.0
C1838 C 0.69014 0.33631 0.21115 0.0
C1839 C 0.63933 0.45254 0.2054 0.0
H1840 H 0.58204 0.39997 0.23694 0.0
H1841 H 0.67488 0.44965 0.2447 0.0
H1842 H 0.59396 0.38249 0.2082 0.0
H1843 H 0.61329 0.34474 0.21341 0.0
H1844 H 0.57645 0.36047 0.22106 0.0
H1845 H 0.7257 0.43158 0.23462 0.0
H1846 H 0.72419 0.40145 0.22228 0.0
H1847 H 0.71246 0.44409 0.21956 0.0
H1848 H 0.7045 0.34524 0.18715 0.0
H1849 H 0.66285 0.44335 0.1827 0.0
H1850 H 0.67022 0.33078 0.21792 0.0
H1851 H 0.71336 0.34186 0.21633 0.0
H1852 H 0.69459 0.31365 0.2055 0.0
H1853 H 0.61535 0.44501 0.20969 0.0
H1854 H 0.63385 0.47094 0.19805 0.0
H1855 H 0.65459 0.46519 0.21251 0.0
C1856 C 0.89861 0.40375 0.48771 0.0
C1857 C 0.90511 0.37013 0.49031 0.0
C1858 C 0.91485 0.41977 0.47796 0.0
C1859 C 0.93702 0.40119 0.47049 0.0
C1860 C 0.94696 0.36878 0.47414 0.0
C1861 C 0.93114 0.35374 0.48417 0.0
C1862 C 0.90467 0.4549 0.47462 0.0
C1863 C 0.97037 0.34813 0.46639 0.0
C1864 C 0.91833 0.41303 0.43694 0.0
C1865 C 0.94523 0.43261 0.43303 0.0
C1866 C 0.91615 0.40195 0.44903 0.0
C1867 C 0.94133 0.41119 0.45751 0.0
C1868 C 0.96923 0.43014 0.45354 0.0
C1869 C 0.97096 0.44056 0.44125 0.0
C1870 C 0.88635 0.38094 0.45273 0.0
C1871 C 0.99635 0.44074 0.46233 0.0
H1872 H 0.87883 0.41656 0.4926 0.0
H1873 H 0.93634 0.32773 0.48621 0.0
H1874 H 0.92637 0.46936 0.47115 0.0
H1875 H 0.88561 0.45396 0.46724 0.0
H1876 H 0.89371 0.46827 0.48258 0.0
H1877 H 0.97795 0.32467 0.47106 0.0
H1878 H 0.95781 0.34134 0.45767 0.0
H1879 H 0.99305 0.36274 0.46404 0.0
H1880 H 0.89865 0.40656 0.43053 0.0
H1881 H 0.99168 0.45594 0.43819 0.0
H1882 H 0.87101 0.3947 0.45953 0.0
H1883 H 0.89478 0.35739 0.45711 0.0
H1884 H 0.87014 0.37443 0.44482 0.0
H1885 H 0.98735 0.46231 0.46779 0.0
H1886 H 1.01943 0.4485 0.45743 0.0
H1887 H 1.00262 0.42039 0.46883 0.0
C1888 C 0.9028 0.72229 0.6903 0.0
C1889 C 0.91052 0.69487 0.68283 0.0
C1890 C 0.91163 0.72234 0.70278 0.0
C1891 C 0.92866 0.69441 0.7077 0.0
C1892 C 0.93767 0.66739 0.69999 0.0
C1893 C 0.92827 0.66792 0.68768 0.0
C1894 C 0.90133 0.75143 0.7107 0.0
C1895 C 0.95665 0.63739 0.70475 0.0
C1896 C 0.98286 0.68601 0.73524 0.0
C1897 C 0.96481 0.66132 0.74155 0.0
C1898 C 0.96944 0.70118 0.72479 0.0
C1899 C 0.93697 0.69208 0.72091 0.0
C1900 C 0.91664 0.67197 0.72856 0.0
C1901 C 0.93105 0.65625 0.73875 0.0
C1902 C 0.9919 0.72248 0.71687 0.0
C1903 C 0.88135 0.66297 0.72498 0.0
H1904 H 0.8888 0.74307 0.68654 0.0
H1905 H 0.93451 0.64687 0.68186 0.0
H1906 H 0.87819 0.74469 0.71573 0.0
H1907 H 0.92075 0.75752 0.7176 0.0
H1908 H 0.89614 0.7741 0.70515 0.0
H1909 H 0.9633 0.61953 0.69735 0.0
H1910 H 0.98003 0.64552 0.70934 0.0
H1911 H 0.9413 0.62392 0.71163 0.0
H1912 H 1.00896 0.69021 0.73744 0.0
H1913 H 0.91693 0.63758 0.74377 0.0
H1914 H 0.97854 0.74524 0.71378 0.0
H1915 H 0.99912 0.7082 0.70856 0.0
H1916 H 1.01512 0.72997 0.72173 0.0
H1917 H 0.86842 0.68473 0.72085 0.0
H1918 H 0.86671 0.65403 0.73299 0.0
H1919 H 0.88192 0.64267 0.71806 0.0
C1920 C 0.70085 0.40928 0.66046 0.0
C1921 C 0.6915 0.37693 0.65693 0.0
C1922 C 0.68568 0.42467 0.67056 0.0
C1923 C 0.66132 0.40681 0.67733 0.0
C1924 C 0.64849 0.37637 0.67271 0.0
C1925 C 0.66359 0.36188 0.66244 0.0
C1926 C 0.69902 0.45788 0.67495 0.0
C1927 C 0.62228 0.35677 0.67961 0.0
C1928 C 0.67735 0.41075 0.71134 0.0
C1929 C 0.65198 0.43201 0.71536 0.0
C1930 C 0.6798 0.40167 0.69903 0.0
C1931 C 0.65662 0.41479 0.69047 0.0
C1932 C 0.63027 0.43557 0.69453 0.0
C1933 C 0.62812 0.44382 0.70702 0.0
C1934 C 0.70777 0.37856 0.69517 0.0
C1935 C 0.6054 0.45042 0.68569 0.0
H1936 H 0.72198 0.42123 0.65604 0.0
H1937 H 0.65606 0.33692 0.6597 0.0
H1938 H 0.67856 0.4737 0.67858 0.0
H1939 H 0.71714 0.45362 0.68249 0.0
H1940 H 0.71205 0.47163 0.66751 0.0
H1941 H 0.61294 0.33508 0.67425 0.0
H1942 H 0.63309 0.34724 0.68829 0.0
H1943 H 0.6009 0.37309 0.68201 0.0
H1944 H 0.69559 0.40143 0.71784 0.0
H1945 H 0.60867 0.46059 0.71017 0.0
H1946 H 0.725 0.39187 0.68887 0.0
H1947 H 0.6975 0.35669 0.69017 0.0
H1948 H 0.72249 0.36926 0.7031 0.0
H1949 H 0.61701 0.4722 0.68105 0.0
H1950 H 0.5825 0.45915 0.69046 0.0
H1951 H 0.59816 0.4322 0.67851 0.0
C1952 C 0.93818 0.47634 0.91909 0.0
C1953 C 0.95119 0.45807 0.90923 0.0
C1954 C 0.92081 0.46036 0.92853 0.0
C1955 C 0.9166 0.42525 0.92812 0.0
C1956 C 0.92555 0.40739 0.91745 0.0
C1957 C 0.94261 0.42413 0.90804 0.0
C1958 C 0.91066 0.48058 0.93962 0.0
C1959 C 0.92026 0.37014 0.91649 0.0
C1960 C 0.92867 0.39323 0.96013 0.0
C1961 C 0.89574 0.39265 0.96426 0.0
C1962 C 0.93572 0.4003 0.94784 0.0
C1963 C 0.90902 0.40741 0.93968 0.0
C1964 C 0.87559 0.40362 0.94363 0.0
C1965 C 0.86935 0.39636 0.95597 0.0
C1966 C 0.97179 0.40368 0.94395 0.0
C1967 C 0.84637 0.4105 0.93527 0.0
H1968 H 0.94443 0.50253 0.92016 0.0
H1969 H 0.95158 0.41002 0.90023 0.0
H1970 H 0.88479 0.47427 0.94244 0.0
H1971 H 0.92746 0.47454 0.9474 0.0
H1972 H 0.91206 0.50791 0.93789 0.0
H1973 H 0.92101 0.36156 0.90681 0.0
H1974 H 0.94037 0.35706 0.92158 0.0
H1975 H 0.89602 0.36269 0.9206 0.0
H1976 H 0.94889 0.39052 0.96668 0.0
H1977 H 0.84386 0.39589 0.95929 0.0
H1978 H 0.97788 0.4305 0.94258 0.0
H1979 H 0.97609 0.39066 0.93513 0.0
H1980 H 0.98924 0.39334 0.9509 0.0
H1981 H 0.84017 0.43751 0.93565 0.0
H1982 H 0.82385 0.39635 0.93821 0.0
H1983 H 0.85217 0.40401 0.92562 0.0
C1984 C 0.92815 0.72974 0.16256 0.0
C1985 C 0.90073 0.71423 0.15688 0.0
C1986 C 0.94349 0.71513 0.17276 0.0
C1987 C 0.93149 0.68408 0.17712 0.0
C1988 C 0.90764 0.66597 0.17019 0.0
C1989 C 0.89213 0.68151 0.16019 0.0
C1990 C 0.96898 0.73513 0.17987 0.0
C1991 C 0.89516 0.63218 0.17432 0.0
C1992 C 0.96545 0.64633 0.2066 0.0
C1993 C 0.94112 0.65693 0.21496 0.0
C1994 C 0.96321 0.65524 0.19417 0.0
C1995 C 0.93631 0.67549 0.19021 0.0
C1996 C 0.91265 0.68743 0.19882 0.0
C1997 C 0.9152 0.67768 0.21105 0.0
C1998 C 0.98859 0.64165 0.18526 0.0
C1999 C 0.88407 0.70995 0.19509 0.0
H2000 H 0.93504 0.75502 0.15999 0.0
H2001 H 0.87133 0.66928 0.15565 0.0
H2002 H 0.95778 0.74374 0.18862 0.0
H2003 H 0.99086 0.71936 0.18218 0.0
H2004 H 0.97767 0.75745 0.17473 0.0
H2005 H 0.88259 0.61849 0.16675 0.0
H2006 H 0.916 0.61673 0.17787 0.0
H2007 H 0.87684 0.63554 0.18185 0.0
H2008 H 0.98533 0.62996 0.20966 0.0
H2009 H 0.8966 0.68607 0.21758 0.0
H2010 H 0.99564 0.66064 0.17832 0.0
H2011 H 0.97751 0.62009 0.18031 0.0
H2012 H 1.01153 0.63293 0.19001 0.0
H2013 H 0.89375 0.73234 0.19024 0.0
H2014 H 0.86907 0.71845 0.20306 0.0
H2015 H 0.86723 0.69649 0.18869 0.0
C2016 C 0.69228 0.72589 0.45774 0.0
C2017 C 0.68552 0.69842 0.46532 0.0
C2018 C 0.68165 0.72604 0.44545 0.0
C2019 C 0.66377 0.69818 0.44083 0.0
C2020 C 0.65562 0.67119 0.4487 0.0
C2021 C 0.66682 0.6716 0.4608 0.0
C2022 C 0.69103 0.75517 0.43737 0.0
C2023 C 0.63572 0.6413 0.44431 0.0
C2024 C 0.60656 0.68852 0.41418 0.0
C2025 C 0.62403 0.66377 0.40772 0.0
C2026 C 0.62116 0.70435 0.42431 0.0
C2027 C 0.65406 0.69559 0.42775 0.0
C2028 C 0.67358 0.67532 0.4199 0.0
C2029 C 0.6581 0.65909 0.41003 0.0
C2030 C 0.59974 0.72621 0.43238 0.0
C2031 C 0.70928 0.66673 0.42298 0.0
H2032 H 0.7069 0.74661 0.46126 0.0
H2033 H 0.66121 0.65056 0.46672 0.0
H2034 H 0.71435 0.74901 0.43237 0.0
H2035 H 0.67141 0.76052 0.43047 0.0
H2036 H 0.69567 0.77813 0.44285 0.0
H2037 H 0.62993 0.62349 0.45183 0.0
H2038 H 0.61181 0.64956 0.44016 0.0
H2039 H 0.64997 0.62771 0.43716 0.0
H2040 H 0.58023 0.69246 0.41233 0.0
H2041 H 0.67176 0.64041 0.40487 0.0
H2042 H 0.61352 0.74922 0.43499 0.0
H2043 H 0.59358 0.71259 0.44095 0.0
H2044 H 0.57594 0.73334 0.42786 0.0
H2045 H 0.72259 0.6888 0.42675 0.0
H2046 H 0.72301 0.65745 0.41482 0.0
H2047 H 0.70959 0.64681 0.43006 0.0
C2048 C 0.44773 0.4101 0.20889 0.0
C2049 C 0.45243 0.44259 0.21314 0.0
C2050 C 0.44048 0.40423 0.19654 0.0
C2051 C 0.43719 0.43177 0.18842 0.0
C2052 C 0.4448 0.46444 0.19253 0.0
C2053 C 0.45237 0.46945 0.20494 0.0
C2054 C 0.4331 0.36885 0.19249 0.0
C2055 C 0.4419 0.49451 0.18426 0.0
C2056 C 0.42067 0.39782 0.15696 0.0
C2057 C 0.38616 0.39169 0.15794 0.0
C2058 C 0.43788 0.41479 0.16628 0.0
C2059 C 0.41991 0.42634 0.17657 0.0
C2060 C 0.38457 0.42542 0.1765 0.0
C2061 C 0.36808 0.40786 0.16721 0.0
C2062 C 0.47549 0.41685 0.16578 0.0
C2063 C 0.36433 0.4389 0.18708 0.0
H2064 H 0.44761 0.38954 0.21537 0.0
H2065 H 0.45589 0.49463 0.20836 0.0
H2066 H 0.40594 0.36614 0.19066 0.0
H2067 H 0.44658 0.36301 0.18388 0.0
H2068 H 0.44031 0.35017 0.19954 0.0
H2069 H 0.45943 0.51458 0.18716 0.0
H2070 H 0.4469 0.48808 0.17455 0.0
H2071 H 0.4162 0.50473 0.1849 0.0
H2072 H 0.43471 0.3867 0.14951 0.0
H2073 H 0.34142 0.40385 0.16807 0.0
H2074 H 0.4863 0.39696 0.17164 0.0
H2075 H 0.48441 0.44125 0.16935 0.0
H2076 H 0.48501 0.41336 0.15631 0.0
H2077 H 0.36718 0.42212 0.19511 0.0
H2078 H 0.33732 0.44063 0.18481 0.0
H2079 H 0.37336 0.46405 0.18979 0.0
C2080 C 0.42746 0.6646 0.96092 0.0
C2081 C 0.40621 0.68991 0.96502 0.0
C2082 C 0.43758 0.66309 0.94871 0.0
C2083 C 0.4257 0.68732 0.94031 0.0
C2084 C 0.40507 0.71372 0.94446 0.0
C2085 C 0.39561 0.71479 0.95687 0.0
C2086 C 0.46039 0.63494 0.94479 0.0
C2087 C 0.39169 0.7398 0.93579 0.0
C2088 C 0.48128 0.68047 0.91304 0.0
C2089 C 0.46613 0.65316 0.90716 0.0
C2090 C 0.46602 0.69562 0.92315 0.0
C2091 C 0.43471 0.68352 0.92721 0.0
C2092 C 0.41697 0.65998 0.92001 0.0
C2093 C 0.43314 0.64465 0.91011 0.0
C2094 C 0.48555 0.72089 0.93053 0.0
C2095 C 0.38294 0.64743 0.9238 0.0
H2096 H 0.43593 0.64558 0.96728 0.0
H2097 H 0.37893 0.73425 0.96006 0.0
H2098 H 0.4473 0.61859 0.93812 0.0
H2099 H 0.48293 0.64513 0.94019 0.0
H2100 H 0.46862 0.61927 0.95262 0.0
H2101 H 0.38323 0.76251 0.94075 0.0
H2102 H 0.41068 0.74716 0.9289 0.0
H2103 H 0.36997 0.72928 0.93077 0.0
H2104 H 0.50673 0.68734 0.91072 0.0
H2105 H 0.42118 0.62397 0.90541 0.0
H2106 H 0.49338 0.70954 0.93935 0.0
H2107 H 0.4697 0.74282 0.9327 0.0
H2108 H 0.50833 0.72954 0.92566 0.0
H2109 H 0.38581 0.62872 0.93123 0.0
H2110 H 0.36964 0.63529 0.91604 0.0
H2111 H 0.36736 0.66817 0.92737 0.0
C2112 C 0.14877 0.68056 0.70885 0.0
C2113 C 0.14168 0.6488 0.71338 0.0
C2114 C 0.15642 0.68508 0.69645 0.0
C2115 C 0.15799 0.65682 0.6886 0.0
C2116 C 0.1483 0.625 0.69301 0.0
C2117 C 0.14005 0.62142 0.70542 0.0
C2118 C 0.16572 0.71968 0.69205 0.0
C2119 C 0.14953 0.59422 0.68504 0.0
C2120 C 0.17445 0.68881 0.65696 0.0
C2121 C 0.20911 0.6942 0.65786 0.0
C2122 C 0.15705 0.67238 0.66635 0.0
C2123 C 0.17496 0.66051 0.67661 0.0
C2124 C 0.2103 0.66016 0.67635 0.0
C2125 C 0.22702 0.67733 0.66702 0.0
C2126 C 0.11939 0.67158 0.666 0.0
C2127 C 0.23044 0.64592 0.68682 0.0
H2128 H 0.15018 0.70153 0.71513 0.0
H2129 H 0.1347 0.5968 0.70906 0.0
H2130 H 0.19291 0.72067 0.69006 0.0
H2131 H 0.15225 0.72571 0.68345 0.0
H2132 H 0.15988 0.73923 0.69894 0.0
H2133 H 0.13137 0.57507 0.68823 0.0
H2134 H 0.14434 0.60015 0.6753 0.0
H2135 H 0.17486 0.58308 0.68559 0.0
H2136 H 0.16048 0.7003 0.64957 0.0
H2137 H 0.25381 0.68059 0.66778 0.0
H2138 H 0.10948 0.69309 0.67128 0.0
H2139 H 0.10955 0.64837 0.67025 0.0
H2140 H 0.10989 0.6734 0.65646 0.0
H2141 H 0.22943 0.66336 0.69472 0.0
H2142 H 0.25705 0.64224 0.68427 0.0
H2143 H 0.21998 0.6216 0.68985 0.0
C2144 C 0.16361 0.39418 0.45853 0.0
C2145 C 0.19587 0.38855 0.46284 0.0
C2146 C 0.15812 0.40175 0.44619 0.0
C2147 C 0.18585 0.40464 0.43814 0.0
C2148 C 0.21825 0.39627 0.44231 0.0
C2149 C 0.22284 0.38815 0.45469 0.0
C2150 C 0.12298 0.40982 0.44208 0.0
C2151 C 0.24854 0.39891 0.43414 0.0
C2152 C 0.15156 0.42113 0.40681 0.0
C2153 C 0.14523 0.45556 0.40791 0.0
C2154 C 0.16902 0.40396 0.41601 0.0
C2155 C 0.18088 0.42192 0.42627 0.0
C2156 C 0.18007 0.45727 0.4262 0.0
C2157 C 0.16196 0.47372 0.41705 0.0
C2158 C 0.17097 0.36636 0.41549 0.0
C2159 C 0.19413 0.47752 0.43668 0.0
H2160 H 0.14297 0.39471 0.46497 0.0
H2161 H 0.24786 0.38401 0.45816 0.0
H2162 H 0.12087 0.43704 0.44028 0.0
H2163 H 0.11699 0.39651 0.43344 0.0
H2164 H 0.10404 0.40286 0.44907 0.0
H2165 H 0.26816 0.3809 0.437 0.0
H2166 H 0.24222 0.39441 0.42438 0.0
H2167 H 0.25928 0.42441 0.43493 0.0
H2168 H 0.1401 0.40705 0.39944 0.0
H2169 H 0.15792 0.50037 0.41796 0.0
H2170 H 0.15086 0.35555 0.42126 0.0
H2171 H 0.19522 0.35737 0.41914 0.0
H2172 H 0.16771 0.35691 0.40599 0.0
H2173 H 0.17735 0.47522 0.44474 0.0
H2174 H 0.19644 0.50443 0.43431 0.0
H2175 H 0.21909 0.46807 0.4394 0.0
C2176 C 0.39924 0.67893 0.48895 0.0
C2177 C 0.40221 0.71361 0.49015 0.0
C2178 C 0.41468 0.66233 0.47914 0.0
C2179 C 0.43194 0.6813 0.47018 0.0
C2180 C 0.43796 0.71571 0.47215 0.0
C2181 C 0.42316 0.73139 0.4822 0.0
C2182 C 0.409 0.62531 0.47755 0.0
C2183 C 0.45594 0.73686 0.46275 0.0
C2184 C 0.4669 0.64605 0.44049 0.0
C2185 C 0.43922 0.64989 0.43276 0.0
C2186 C 0.46479 0.65478 0.45294 0.0
C2187 C 0.43459 0.66828 0.45754 0.0
C2188 C 0.4067 0.67218 0.44968 0.0
C2189 C 0.40936 0.66272 0.43744 0.0
C2190 C 0.49491 0.64994 0.46106 0.0
C2191 C 0.37414 0.68718 0.45408 0.0
H2192 H 0.38299 0.66525 0.49513 0.0
H2193 H 0.42498 0.75833 0.48306 0.0
H2194 H 0.38783 0.62118 0.47116 0.0
H2195 H 0.43143 0.61314 0.47357 0.0
H2196 H 0.40281 0.61308 0.4864 0.0
H2197 H 0.48103 0.72632 0.4609 0.0
H2198 H 0.44184 0.73673 0.45399 0.0
H2199 H 0.45884 0.76325 0.46573 0.0
H2200 H 0.48993 0.6358 0.43687 0.0
H2201 H 0.38793 0.66577 0.43146 0.0
H2202 H 0.48749 0.64248 0.47046 0.0
H2203 H 0.50894 0.67381 0.4617 0.0
H2204 H 0.51207 0.63073 0.45727 0.0
H2205 H 0.36365 0.67193 0.46164 0.0
H2206 H 0.35511 0.68876 0.44669 0.0
H2207 H 0.37855 0.71274 0.45769 0.0
C2208 C 0.1092 0.68615 0.23417 0.0
C2209 C 0.12567 0.66103 0.24078 0.0
C2210 C 0.12449 0.70111 0.22401 0.0
C2211 C 0.15718 0.69119 0.22072 0.0
C2212 C 0.17585 0.67057 0.22872 0.0
C2213 C 0.15963 0.65515 0.23861 0.0
C2214 C 0.10388 0.72326 0.21576 0.0
C2215 C 0.21136 0.6608 0.22582 0.0
C2216 C 0.1692 0.66677 0.18766 0.0
C2217 C 0.18786 0.6935 0.18305 0.0
C2218 C 0.15854 0.66638 0.19982 0.0
C2219 C 0.16728 0.69324 0.20768 0.0
C2220 C 0.1855 0.72081 0.20302 0.0
C2221 C 0.19551 0.72069 0.19067 0.0
C2222 C 0.13828 0.6368 0.20428 0.0
C2223 C 0.19572 0.74966 0.2111 0.0
H2224 H 0.08297 0.69101 0.2359 0.0
H2225 H 0.17254 0.63618 0.24388 0.0
H2226 H 0.11816 0.74604 0.21326 0.0
H2227 H 0.09799 0.70971 0.20715 0.0
H2228 H 0.07995 0.73078 0.2201 0.0
H2229 H 0.22462 0.65155 0.23409 0.0
H2230 H 0.21125 0.64052 0.21888 0.0
H2231 H 0.22538 0.68229 0.22194 0.0
H2232 H 0.16298 0.64592 0.18173 0.0
H2233 H 0.21019 0.74129 0.18709 0.0
H2234 H 0.11455 0.64545 0.20846 0.0
H2235 H 0.15243 0.62307 0.21142 0.0
H2236 H 0.13214 0.61903 0.19679 0.0
H2237 H 0.17597 0.75589 0.21785 0.0
H2238 H 0.20161 0.77234 0.20564 0.0
H2239 H 0.21845 0.74256 0.2163 0.0
C2240 C 0.17317 0.41381 0.9365 0.0
C2241 C 0.14635 0.43203 0.93179 0.0
C2242 C 0.17413 0.40462 0.94883 0.0
C2243 C 0.14782 0.4145 0.95672 0.0
C2244 C 0.12026 0.43249 0.95198 0.0
C2245 C 0.11963 0.4407 0.93945 0.0
C2246 C 0.20374 0.38474 0.95341 0.0
C2247 C 0.09172 0.44336 0.96007 0.0
C2248 C 0.15547 0.36 0.98425 0.0
C2249 C 0.18087 0.37729 0.99047 0.0
C2250 C 0.14039 0.37389 0.97386 0.0
C2251 C 0.15047 0.40602 0.96991 0.0
C2252 C 0.17149 0.42571 0.97746 0.0
C2253 C 0.18693 0.41088 0.98762 0.0
C2254 C 0.11776 0.35229 0.96612 0.0
C2255 C 0.18153 0.4607 0.97383 0.0
H2256 H 0.19367 0.40686 0.93053 0.0
H2257 H 0.09888 0.45489 0.93577 0.0
H2258 H 0.21795 0.39965 0.96022 0.0
H2259 H 0.19511 0.36158 0.95802 0.0
H2260 H 0.22107 0.37761 0.9459 0.0
H2261 H 0.07672 0.4635 0.95575 0.0
H2262 H 0.07496 0.42175 0.96177 0.0
H2263 H 0.10094 0.45232 0.96909 0.0
H2264 H 0.15041 0.33408 0.9865 0.0
H2265 H 0.20607 0.42448 0.9926 0.0
H2266 H 0.13052 0.34582 0.95741 0.0
H2267 H 0.09466 0.36611 0.96375 0.0
H2268 H 0.11082 0.32866 0.97082 0.0
H2269 H 0.20164 0.45944 0.96684 0.0
H2270 H 0.19113 0.4751 0.98179 0.0
H2271 H 0.16011 0.47432 0.96974 0.0
C2272 C 0.3934 0.37645 0.6902 0.0
C2273 C 0.40423 0.40072 0.68184 0.0
C2274 C 0.40345 0.37786 0.70254 0.0
C2275 C 0.42499 0.40393 0.70641 0.0
C2276 C 0.43712 0.42749 0.69778 0.0
C2277 C 0.42633 0.42571 0.68565 0.0
C2278 C 0.38967 0.35255 0.71146 0.0
C2279 C 0.46089 0.45523 0.7014 0.0
C2280 C 0.43434 0.44762 0.73639 0.0
C2281 C 0.4671 0.43836 0.73934 0.0
C2282 C 0.41763 0.43246 0.72656 0.0
C2283 C 0.43455 0.40822 0.71944 0.0
C2284 C 0.46557 0.39547 0.7235 0.0
C2285 C 0.48143 0.41058 0.73352 0.0
C2286 C 0.38387 0.44568 0.72279 0.0
C2287 C 0.48414 0.36929 0.71625 0.0
H2288 H 0.37605 0.35725 0.68723 0.0
H2289 H 0.43496 0.44425 0.67912 0.0
H2290 H 0.40855 0.34537 0.71841 0.0
H2291 H 0.36815 0.3637 0.71637 0.0
H2292 H 0.38079 0.32966 0.70669 0.0
H2293 H 0.4693 0.47025 0.69341 0.0
H2294 H 0.44852 0.47227 0.70801 0.0
H2295 H 0.48328 0.4447 0.70597 0.0
H2296 H 0.42297 0.46863 0.74106 0.0
H2297 H 0.5067 0.40311 0.73583 0.0
H2298 H 0.36761 0.42516 0.71942 0.0
H2299 H 0.38709 0.46389 0.71521 0.0
H2300 H 0.37114 0.45858 0.7305 0.0
H2301 H 0.46742 0.34796 0.71408 0.0
H2302 H 0.5064 0.35984 0.72123 0.0
H2303 H 0.49265 0.38018 0.70743 0.0
C2304 C 0.10963 0.24549 0.39971 0.0
C2305 C 0.10082 0.21509 0.39367 0.0
C2306 C 0.08956 0.27565 0.39957 0.0
C2307 C 0.05856 0.27789 0.39304 0.0
C2308 C 0.04933 0.24729 0.38687 0.0
C2309 C 0.06984 0.21711 0.38729 0.0
C2310 C 0.1017 0.30547 0.40676 0.0
C2311 C 1.01714 0.24607 0.37976 0.0
C2312 C 0.98952 0.34655 0.40196 0.0
C2313 C 0.99428 0.37434 0.39395 0.0
C2314 C 1.0096 0.31641 0.40179 0.0
C2315 C 1.03601 0.31125 0.39313 0.0
C2316 C 1.04091 0.33907 0.38489 0.0
C2317 C 1.02092 0.36958 0.38549 0.0
C2318 C 1.00238 0.28975 0.41116 0.0
C2319 C 0.06738 0.33647 0.37516 0.0
H2320 H 0.13282 0.2458 0.40483 0.0
H2321 H 0.06144 0.19498 0.38247 0.0
H2322 H 0.10658 0.32668 0.40047 0.0
H2323 H 0.08213 0.31364 0.4133 0.0
H2324 H 0.12494 0.30006 0.41194 0.0
H2325 H 0.99593 0.24374 0.38624 0.0
H2326 H 1.01356 0.26944 0.37443 0.0
H2327 H 1.01631 0.22442 0.3734 0.0
H2328 H 0.9697 0.34844 0.40868 0.0
H2329 H 1.02592 0.38956 0.37905 0.0
H2330 H 1.02572 0.28267 0.416 0.0
H2331 H 0.99276 0.26705 0.40651 0.0
H2332 H 0.98367 0.29791 0.41805 0.0
H2333 H 0.09244 0.33609 0.37949 0.0
H2334 H 0.0664 0.35765 0.36859 0.0
H2335 H 0.06442 0.31267 0.37003 0.0
C2336 C 1.00181 0.72521 0.6405 0.0
C2337 C 0.96948 0.73852 0.64292 0.0
C2338 C 1.03231 0.74488 0.6401 0.0
C2339 C 1.03303 0.78005 0.64283 0.0
C2340 C 1.00037 0.79369 0.6455 0.0
C2341 C 0.96996 0.7735 0.64528 0.0
C2342 C 0.0641 0.727 0.6367 0.0
C2343 C 0.99668 0.82993 0.64901 0.0
C2344 C 0.12386 0.81698 0.65192 0.0
C2345 C 0.13146 0.84193 0.64307 0.0
C2346 C 0.09311 0.79753 0.65204 0.0
C2347 C 0.0672 0.80164 0.64295 0.0
C2348 C 0.07507 0.82666 0.63389 0.0
C2349 C 0.10572 0.8463 0.63422 0.0
C2350 C 0.08889 0.77285 0.66235 0.0
C2351 C 0.05089 0.83351 0.62362 0.0
H2352 H 1.00349 0.69859 0.63876 0.0
H2353 H 0.94645 0.7853 0.6475 0.0
H2354 H 0.08239 0.74391 0.63222 0.0
H2355 H 0.07563 0.71667 0.64511 0.0
H2356 H 0.05893 0.7057 0.63045 0.0
H2357 H 0.97826 0.83263 0.65655 0.0
H2358 H 1.0206 0.84147 0.65193 0.0
H2359 H 0.98674 0.84401 0.64105 0.0
H2360 H 0.1419 0.81304 0.65919 0.0
H2361 H 0.10932 0.86569 0.62741 0.0
H2362 H 0.1047 0.75067 0.66048 0.0
H2363 H 0.06265 0.7646 0.66359 0.0
H2364 H 0.09786 0.78387 0.67109 0.0
H2365 H 1.03618 0.81095 0.62115 0.0
H2366 H 0.06414 0.84262 0.61533 0.0
H2367 H 1.03333 0.85339 0.62654 0.0
C2368 C 0.52035 0.87354 0.88619 0.0
C2369 C 0.49331 0.87796 0.8945 0.0
C2370 C 0.54062 0.84322 0.88566 0.0
C2371 C 0.53514 0.81496 0.89364 0.0
C2372 C 0.50817 0.81967 0.9021 0.0
C2373 C 0.4882 0.84988 0.90234 0.0
C2374 C 0.5683 0.84143 0.87637 0.0
C2375 C 0.50042 0.79255 0.91124 0.0
C2376 C 0.56945 0.72144 0.88711 0.0
C2377 C 0.59956 0.7186 0.89399 0.0
C2378 C 0.54912 0.75173 0.88676 0.0
C2379 C 0.55765 0.78159 0.89351 0.0
C2380 C 0.58785 0.77856 0.9005 0.0
C2381 C 0.60772 0.74828 0.90059 0.0
C2382 C 0.51802 0.75168 0.87901 0.0
C2383 C 0.59901 0.80736 0.90839 0.0
H2384 H 0.52562 0.89375 0.87988 0.0
H2385 H 0.46813 0.85154 0.90897 0.0
H2386 H 0.5927 0.83925 0.88113 0.0
H2387 H 0.56519 0.81874 0.87062 0.0
H2388 H 0.56898 0.86378 0.87034 0.0
H2389 H 0.47878 0.79886 0.91717 0.0
H2390 H 0.49498 0.76876 0.90641 0.0
H2391 H 0.52256 0.78822 0.91714 0.0
H2392 H 0.56172 0.69992 0.8818 0.0
H2393 H 0.63018 0.74788 0.90613 0.0
H2394 H 0.51557 0.72849 0.87349 0.0
H2395 H 0.51817 0.77357 0.87276 0.0
H2396 H 0.49572 0.754 0.88498 0.0
H2397 H 0.59789 0.83124 0.90325 0.0
H2398 H 0.62478 0.80393 0.91195 0.0
H2399 H 0.58175 0.80948 0.91629 0.0
C2400 C 0.49538 0.23381 0.15004 0.0
C2401 C 0.46566 0.24157 0.1434 0.0
C2402 C 0.52547 0.25406 0.14997 0.0
C2403 C 0.52834 0.28414 0.14291 0.0
C2404 C 0.49847 0.29227 0.13611 0.0
C2405 C 0.46827 0.27169 0.13651 0.0
C2406 C 0.55432 0.24342 0.15793 0.0
C2407 C 0.49823 0.32323 0.12829 0.0
C2408 C 0.59584 0.35469 0.15164 0.0
C2409 C 0.62431 0.34936 0.14402 0.0
C2410 C 0.56575 0.33443 0.15137 0.0
C2411 C 0.56155 0.30699 0.14307 0.0
C2412 C 0.59012 0.30139 0.13526 0.0
C2413 C 0.62035 0.32188 0.13586 0.0
C2414 C 0.53816 0.34248 0.16028 0.0
C2415 C 0.58873 0.27346 0.12605 0.0
H2416 H 0.49513 0.21139 0.1556 0.0
H2417 H 0.44661 0.27932 0.13126 0.0
H2418 H 0.57759 0.2418 0.15245 0.0
H2419 H 0.55848 0.26255 0.16512 0.0
H2420 H 0.54986 0.21892 0.16243 0.0
H2421 H 0.47619 0.32405 0.12211 0.0
H2422 H 0.49766 0.34566 0.13426 0.0
H2423 H 0.52134 0.32463 0.12269 0.0
H2424 H 0.5971 0.37516 0.15812 0.0
H2425 H 0.64085 0.31646 0.12971 0.0
H2426 H 0.53224 0.32011 0.1659 0.0
H2427 H 0.51513 0.34927 0.15521 0.0
H2428 H 0.54482 0.36342 0.16651 0.0
H2429 H 0.58731 0.24911 0.13088 0.0
H2430 H 0.61092 0.27328 0.11994 0.0
H2431 H 0.56583 0.2758 0.12037 0.0
C2432 C 0.98485 0.74542 0.24672 0.0
C2433 C 0.99126 0.71662 0.25405 0.0
C2434 C 1.005 0.77557 0.24685 0.0
C2435 C 1.03362 0.77937 0.25463 0.0
C2436 C 1.04039 0.75041 0.2621 0.0
C2437 C 1.01984 0.7202 0.26171 0.0
C2438 C 0.99585 0.80341 0.2382 0.0
C2439 C 0.06977 0.75128 0.2707 0.0
C2440 C 0.10537 0.84614 0.24658 0.0
C2441 C 0.09884 0.87528 0.25372 0.0
C2442 C 0.08519 0.81602 0.24682 0.0
C2443 C 0.05644 0.81257 0.25456 0.0
C2444 C 0.04955 0.84187 0.26184 0.0
C2445 C 0.07012 0.87205 0.26132 0.0
C2446 C 0.09447 0.78775 0.23838 0.0
C2447 C 1.02 0.84141 0.27035 0.0
H2448 H 0.9636 0.74439 0.24059 0.0
H2449 H 1.02616 0.69939 0.26761 0.0
H2450 H 0.99492 0.82768 0.2431 0.0
H2451 H 1.0154 0.80547 0.23104 0.0
H2452 H 0.9714 0.79909 0.23364 0.0
H2453 H 0.09326 0.75329 0.26536 0.0
H2454 H 0.06823 0.7737 0.27666 0.0
H2455 H 0.0711 0.7286 0.27655 0.0
H2456 H 0.12673 0.84689 0.24049 0.0
H2457 H 0.0637 0.89313 0.26707 0.0
H2458 H 0.07458 0.78467 0.23139 0.0
H2459 H 0.09619 0.76391 0.24353 0.0
H2460 H 0.11858 0.79223 0.23361 0.0
H2461 H 0.99662 0.83912 0.26495 0.0
H2462 H 1.01853 0.86436 0.27605 0.0
H2463 H 1.02142 0.81928 0.27647 0.0
C2464 C 0.49916 0.85922 0.50933 0.0
C2465 C 0.46812 0.84688 0.50479 0.0
C2466 C 0.5298 0.83982 0.50989 0.0
C2467 C 0.53217 0.80628 0.50516 0.0
C2468 C 0.5009 0.79389 0.5003 0.0
C2469 C 0.47022 0.81352 0.50036 0.0
C2470 C 0.55982 0.85631 0.51564 0.0
C2471 C 0.49919 0.76005 0.49431 0.0
C2472 C 0.62591 0.77326 0.49819 0.0
C2473 C 0.62992 0.74363 0.50525 0.0
C2474 C 0.59545 0.79313 0.49799 0.0
C2475 C 0.56641 0.78489 0.50526 0.0
C2476 C 0.57083 0.75532 0.51263 0.0
C2477 C 0.60109 0.73528 0.51224 0.0
C2478 C 0.59494 0.82287 0.48952 0.0
C2479 C 0.54329 0.74398 0.52107 0.0
H2480 H 0.49969 0.88478 0.51262 0.0
H2481 H 0.44793 0.80292 0.49628 0.0
H2482 H 0.57823 0.83793 0.51912 0.0
H2483 H 0.5722 0.87242 0.50871 0.0
H2484 H 0.55212 0.87274 0.52333 0.0
H2485 H 0.4893 0.76294 0.4849 0.0
H2486 H 0.52364 0.74725 0.49366 0.0
H2487 H 0.48144 0.74392 0.49943 0.0
H2488 H 0.64642 0.78047 0.49228 0.0
H2489 H 0.60204 0.71249 0.5176 0.0
H2490 H 0.60853 0.84386 0.49393 0.0
H2491 H 0.56925 0.83116 0.48725 0.0
H2492 H 0.60829 0.81708 0.48085 0.0
H2493 H 0.5285 0.76538 0.52459 0.0
H2494 H 0.55347 0.72985 0.529 0.0
H2495 H 0.52624 0.727 0.51601 0.0
C2496 C 0.57057 0.36864 0.76068 0.0
C2497 C 0.60086 0.37139 0.75392 0.0
C2498 C 0.55021 0.33831 0.76101 0.0
C2499 C 0.55893 0.30839 0.75436 0.0
C2500 C 0.5893 0.31135 0.74748 0.0
C2501 C 0.6092 0.34165 0.74741 0.0
C2502 C 0.51892 0.33837 0.76865 0.0
C2503 C 0.60062 0.28247 0.73968 0.0
C2504 C 0.52143 0.21653 0.76169 0.0
C2505 C 0.4946 0.21198 0.75329 0.0
C2506 C 0.54169 0.2469 0.76224 0.0
C2507 C 0.53641 0.27502 0.7542 0.0
C2508 C 0.50967 0.27017 0.74564 0.0
C2509 C 0.48968 0.23993 0.74538 0.0
C2510 C 0.56913 0.24889 0.77164 0.0
C2511 C 0.50219 0.29718 0.73643 0.0
H2512 H 0.56269 0.39023 0.7659 0.0
H2513 H 0.63182 0.34202 0.74196 0.0
H2514 H 0.49677 0.3357 0.76261 0.0
H2515 H 0.519 0.31667 0.77498 0.0
H2516 H 0.51625 0.3617 0.77407 0.0
H2517 H 0.62645 0.28593 0.73618 0.0
H2518 H 0.59942 0.25867 0.74488 0.0
H2519 H 0.58351 0.28013 0.73174 0.0
H2520 H 0.52654 0.19639 0.76804 0.0
H2521 H 0.46977 0.23813 0.73869 0.0
H2522 H 0.5659 0.27165 0.77733 0.0
H2523 H 0.59366 0.25105 0.76697 0.0
H2524 H 0.56962 0.22662 0.77772 0.0
H2525 H 0.4962 0.32089 0.74121 0.0
H2526 H 0.48097 0.29057 0.73033 0.0
H2527 H 0.52462 0.30187 0.7307 0.0
C2528 C 0.12034 0.27199 1.0111 0.0
C2529 C 0.12407 0.24374 1.00328 0.0
C2530 C 0.08996 0.29218 1.01166 0.0
C2531 C 0.06092 0.28542 1.0042 0.0
C2532 C 0.06486 0.25718 0.99624 0.0
C2533 C 0.09517 0.23733 0.99598 0.0
C2534 C 0.08898 0.32117 1.02043 0.0
C2535 C 1.03672 0.24776 0.98773 0.0
C2536 C 0.96786 0.32068 1.0111 0.0
C2537 C 0.96446 0.3498 1.0037 0.0
C2538 C 0.99825 0.30045 1.01154 0.0
C2539 C 1.02752 0.30793 1.0043 0.0
C2540 C 1.02385 0.33701 0.99674 0.0
C2541 C 0.99359 0.35691 0.99662 0.0
C2542 C 0.99895 0.27062 1.01992 0.0
C2543 C 0.05201 0.34696 0.98834 0.0
H2544 H 0.14118 0.27832 1.01699 0.0
H2545 H 0.09621 0.21626 0.98976 0.0
H2546 H 0.08678 0.34489 1.01523 0.0
H2547 H 0.06662 0.31915 1.0264 0.0
H2548 H 0.11169 0.32246 1.02626 0.0
H2549 H 1.04323 0.22636 0.98171 0.0
H2550 H 1.01422 0.241 0.99313 0.0
H2551 H 1.02997 0.26945 0.9819 0.0
H2552 H 0.94673 0.31361 1.01673 0.0
H2553 H 0.99275 0.37853 0.99065 0.0
H2554 H 1.02181 0.27124 1.02569 0.0
H2555 H 0.99985 0.24738 1.01439 0.0
H2556 H 0.97667 0.26953 1.02598 0.0
H2557 H 0.07586 0.34867 0.99348 0.0
H2558 H 0.04736 0.37124 0.98371 0.0
H2559 H 0.05516 0.32741 0.98123 0.0
C2560 C 0.10052 0.74643 0.74575 0.0
C2561 C 0.09488 0.71779 0.75327 0.0
C2562 C 0.08026 0.77645 0.74596 0.0
C2563 C 0.05241 0.78035 0.75409 0.0
C2564 C 0.04641 0.75156 0.76176 0.0
C2565 C 0.06701 0.72147 0.76126 0.0
C2566 C 0.0888 0.80432 0.73721 0.0
C2567 C 1.01781 0.75253 0.77069 0.0
C2568 C 1.01639 0.87321 0.76069 0.0
C2569 C 0.98693 0.87593 0.75344 0.0
C2570 C 1.03699 0.84309 0.76117 0.0
C2571 C 1.02949 0.81343 0.75415 0.0
C2572 C 1.0 0.81639 0.74677 0.0
C2573 C 0.9798 0.84642 0.74658 0.0
C2574 C 0.06723 0.84311 0.76936 0.0
C2575 C 0.99 0.78782 0.73857 0.0
H2576 H 0.12129 0.74539 0.7394 0.0
H2577 H 0.06135 0.70084 0.76733 0.0
H2578 H 0.06673 0.81038 0.73147 0.0
H2579 H 0.0954 0.82721 0.74241 0.0
H2580 H 0.11002 0.79785 0.7311 0.0
H2581 H 1.01694 0.72995 0.7766 0.0
H2582 H 1.01994 0.77505 0.77659 0.0
H2583 H 0.99385 0.75445 0.76562 0.0
H2584 H 1.02348 0.89469 0.76615 0.0
H2585 H 0.95793 0.84677 0.74073 0.0
H2586 H 0.09019 0.84208 0.76369 0.0
H2587 H 0.06709 0.82057 0.77529 0.0
H2588 H 0.06844 0.86575 0.77524 0.0
H2589 H 1.0082 0.78607 0.73094 0.0
H2590 H 0.96465 0.7912 0.73461 0.0
H2591 H 0.99066 0.76377 0.74361 0.0
C2592 C 0.99541 0.23108 0.49615 0.0
C2593 C 0.96635 0.23874 0.50316 0.0
C2594 C 1.02579 0.25088 0.49615 0.0
C2595 C 1.02957 0.28036 0.5035 0.0
C2596 C 1.00034 0.28837 0.51066 0.0
C2597 C 0.96991 0.26817 0.51037 0.0
C2598 C 0.05391 0.24039 0.48784 0.0
C2599 C 1.00117 0.3187 0.5188 0.0
C2600 C 0.12225 0.31658 0.51031 0.0
C2601 C 0.12615 0.34444 0.50232 0.0
C2602 C 0.09185 0.29638 0.5109 0.0
C2603 C 0.06303 0.30276 0.50331 0.0
C2604 C 0.0672 0.33059 0.49518 0.0
C2605 C 0.09751 0.35045 0.49487 0.0
C2606 C 0.09059 0.26782 0.51986 0.0
C2607 C 1.03948 0.33926 0.48641 0.0
H2608 H 0.99441 0.20912 0.49036 0.0
H2609 H 0.94891 0.2754 0.51602 0.0
H2610 H 0.05631 0.25886 0.48032 0.0
H2611 H 0.07799 0.24008 0.49288 0.0
H2612 H 0.04964 0.21532 0.48375 0.0
H2613 H 0.97823 0.32099 0.52446 0.0
H2614 H 1.02326 0.31757 0.52494 0.0
H2615 H 1.00375 0.34155 0.51312 0.0
H2616 H 0.14294 0.31062 0.51631 0.0
H2617 H 0.09878 0.37116 0.48849 0.0
H2618 H 0.08778 0.24389 0.51483 0.0
H2619 H 0.06843 0.27049 0.5259 0.0
H2620 H 0.11342 0.26646 0.52562 0.0
H2621 H 1.04462 0.36262 0.48124 0.0
H2622 H 1.01551 0.34215 0.4914 0.0
H2623 H 1.03623 0.31851 0.47977 0.0
C2624 C 0.61135 0.2446 0.24722 0.0
C2625 C 0.60293 0.21463 0.2536 0.0
C2626 C 0.59151 0.27486 0.24738 0.0
C2627 C 0.56101 0.27754 0.25419 0.0
C2628 C 0.55218 0.2474 0.26071 0.0
C2629 C 0.57258 0.21715 0.26034 0.0
C2630 C 0.60307 0.30406 0.23976 0.0
C2631 C 0.52062 0.24691 0.26819 0.0
C2632 C 0.52323 0.36918 0.26157 0.0
C2633 C 0.49671 0.37379 0.25305 0.0
C2634 C 0.54345 0.33884 0.26217 0.0
C2635 C 0.53846 0.31084 0.25403 0.0
C2636 C 0.51202 0.31576 0.24536 0.0
C2637 C 0.49206 0.34594 0.24508 0.0
C2638 C 0.57047 0.33673 0.27172 0.0
C2639 C 0.50483 0.28889 0.23607 0.0
H2640 H 0.63401 0.24445 0.2418 0.0
H2641 H 0.56464 0.19541 0.26547 0.0
H2642 H 0.58599 0.30687 0.23183 0.0
H2643 H 0.60205 0.3276 0.24511 0.0
H2644 H 0.62888 0.30065 0.23624 0.0
H2645 H 0.51863 0.2241 0.27394 0.0
H2646 H 0.51949 0.26929 0.27419 0.0
H2647 H 0.49868 0.24783 0.26199 0.0
H2648 H 0.52807 0.38921 0.26801 0.0
H2649 H 0.47237 0.34776 0.2383 0.0
H2650 H 0.59519 0.33469 0.26718 0.0
H2651 H 0.56695 0.31386 0.27733 0.0
H2652 H 0.57073 0.35888 0.27785 0.0
H2653 H 0.52741 0.28452 0.2304 0.0
H2654 H 0.48372 0.29548 0.22992 0.0
H2655 H 0.49883 0.26505 0.24078 0.0
C2656 C 0.59486 0.85272 0.99655 0.0
C2657 C 0.62439 0.84523 1.00333 0.0
C2658 C 0.56476 0.83249 0.99666 0.0
C2659 C 0.56168 0.80288 1.00397 0.0
C2660 C 0.59137 0.79506 1.01091 0.0
C2661 C 0.62159 0.81554 1.01044 0.0
C2662 C 0.53591 0.84297 0.98865 0.0
C2663 C 0.59134 0.76463 1.01901 0.0
C2664 C 0.46934 0.76645 1.01115 0.0
C2665 C 0.46555 0.73812 1.00338 0.0
C2666 C 0.49972 0.78671 1.01164 0.0
C2667 C 0.52839 0.78023 1.00399 0.0
C2668 C 0.52424 0.75205 0.99602 0.0
C2669 C 0.49413 0.73186 0.99594 0.0
C2670 C 0.50116 0.81528 1.02059 0.0
C2671 C 0.55176 0.74334 0.98718 0.0
H2672 H 0.59525 0.87491 0.99087 0.0
H2673 H 0.64303 0.80831 1.01588 0.0
H2674 H 0.52847 0.82202 0.98256 0.0
H2675 H 0.51398 0.84913 0.99443 0.0
H2676 H 0.54203 0.86506 0.98291 0.0
H2677 H 0.61346 0.76393 1.02516 0.0
H2678 H 0.5683 0.76395 1.02467 0.0
H2679 H 0.59149 0.74179 1.01326 0.0
H2680 H 0.44865 0.77267 1.01712 0.0
H2681 H 0.49291 0.71076 0.98973 0.0
H2682 H 0.50174 0.8393 1.01553 0.0
H2683 H 0.52444 0.81382 1.0261 0.0
H2684 H 0.47935 0.81545 1.02688 0.0
H2685 H 0.55607 0.7647 0.98089 0.0
H2686 H 0.54585 0.72082 0.98163 0.0
H2687 H 0.57542 0.7389 0.9922 0.0
C2688 C 0.06926 0.36935 0.88565 0.0
C2689 C 0.09898 0.37213 0.89275 0.0
C2690 C 0.04864 0.33918 0.88526 0.0
C2691 C 0.05625 0.30962 0.89231 0.0
C2692 C 0.08588 0.3127 0.8996 0.0
C2693 C 0.10629 0.34268 0.89961 0.0
C2694 C 1.01829 0.33906 0.87712 0.0
C2695 C 0.0962 0.28399 0.9077 0.0
C2696 C 0.98488 0.24294 0.90083 0.0
C2697 C 0.99075 0.21395 0.89353 0.0
C2698 C 1.00523 0.27295 0.90052 0.0
C2699 C 1.0333 0.27652 0.89247 0.0
C2700 C 1.03944 0.24743 0.88498 0.0
C2701 C 1.01893 0.21723 0.88566 0.0
C2702 C 0.99655 0.30114 0.90911 0.0
C2703 C 0.06802 0.24814 0.87603 0.0
H2704 H 0.06206 0.39077 0.88019 0.0
H2705 H 0.12848 0.34305 0.90529 0.0
H2706 H 1.01739 0.31573 0.87162 0.0
H2707 H 0.99542 0.33978 0.88284 0.0
H2708 H 1.0179 0.36087 0.87082 0.0
H2709 H 0.11811 0.29026 0.91351 0.0
H2710 H 0.07512 0.27658 0.91373 0.0
H2711 H 0.10257 0.26199 0.90199 0.0
H2712 H 0.9639 0.24219 0.90709 0.0
H2713 H 1.02496 0.19618 0.87983 0.0
H2714 H 0.98897 0.32344 0.90376 0.0
H2715 H 1.0188 0.30827 0.9146 0.0
H2716 H 0.97589 0.29448 0.91545 0.0
H2717 H 0.06751 0.27167 0.87064 0.0
H2718 H 0.06733 0.22656 0.86964 0.0
H2719 H 0.09202 0.24753 0.8811 0.0
C2720 C 0.49137 0.35803 0.65103 0.0
C2721 C 0.46276 0.35168 0.64359 0.0
C2722 C 0.52146 0.33787 0.65098 0.0
C2723 C 0.52558 0.30966 0.64302 0.0
C2724 C 0.49688 0.30309 0.63538 0.0
C2725 C 0.46653 0.32328 0.63585 0.0
C2726 C 0.54901 0.34667 0.65982 0.0
C2727 C 0.49824 0.27445 0.62646 0.0
C2728 C 0.61878 0.27458 0.6366 0.0
C2729 C 0.62154 0.24483 0.64368 0.0
C2730 C 0.58858 0.29499 0.63613 0.0
C2731 C 0.55887 0.28709 0.64305 0.0
C2732 C 0.5619 0.25744 0.65035 0.0
C2733 C 0.59197 0.23725 0.65044 0.0
C2734 C 0.58857 0.32541 0.62802 0.0
C2735 C 0.53304 0.24684 0.65833 0.0
H2736 H 0.49019 0.37918 0.65721 0.0
H2737 H 0.44582 0.31697 0.62989 0.0
H2738 H 0.55389 0.32508 0.66595 0.0
H2739 H 0.57246 0.35192 0.65477 0.0
H2740 H 0.54281 0.36876 0.66555 0.0
H2741 H 0.47665 0.27449 0.62006 0.0
H2742 H 0.52173 0.2756 0.62106 0.0
H2743 H 0.49826 0.25046 0.63154 0.0
H2744 H 0.64025 0.2819 0.63119 0.0
H2745 H 0.5923 0.215 0.6561 0.0
H2746 H 0.56558 0.32594 0.62233 0.0
H2747 H 0.61074 0.32623 0.62191 0.0
H2748 H 0.5886 0.34826 0.63377 0.0
H2749 H 0.52528 0.26788 0.66431 0.0
H2750 H 0.53929 0.22503 0.66419 0.0
H2751 H 0.51128 0.24016 0.65254 0.0
C2752 C 0.56729 0.87101 0.38718 0.0
C2753 C 0.59878 0.87251 0.39322 0.0
C2754 C 0.54658 0.84092 0.38668 0.0
C2755 C 0.55602 0.80986 0.39251 0.0
C2756 C 0.5876 0.81163 0.39873 0.0
C2757 C 0.60787 0.8417 0.39888 0.0
C2758 C 0.51412 0.84317 0.37976 0.0
C2759 C 0.6008 0.78151 0.40546 0.0
C2760 C 0.48502 0.74221 0.4007 0.0
C2761 C 0.49108 0.71357 0.39325 0.0
C2762 C 0.50521 0.77238 0.40056 0.0
C2763 C 0.53324 0.77655 0.39251 0.0
C2764 C 0.53955 0.74775 0.38488 0.0
C2765 C 0.51917 0.71745 0.38538 0.0
C2766 C 0.49654 0.80001 0.40937 0.0
C2767 C 0.56833 0.74858 0.37602 0.0
H2768 H 0.55851 0.89352 0.3827 0.0
H2769 H 0.63152 0.84089 0.4037 0.0
H2770 H 0.50462 0.81831 0.37687 0.0
H2771 H 0.49511 0.8552 0.3857 0.0
H2772 H 0.51707 0.85915 0.37151 0.0
H2773 H 0.61614 0.78909 0.41348 0.0
H2774 H 0.58046 0.76486 0.40867 0.0
H2775 H 0.61715 0.76702 0.39922 0.0
H2776 H 0.46407 0.74103 0.40697 0.0
H2777 H 0.52525 0.69679 0.37938 0.0
H2778 H 0.487 0.82186 0.4042 0.0
H2779 H 0.51919 0.80822 0.41443 0.0
H2780 H 0.47719 0.79228 0.4161 0.0
H2781 H 0.57133 0.77382 0.37193 0.0
H2782 H 0.56505 0.73003 0.36855 0.0
H2783 H 0.59168 0.74237 0.38099 0.0
C2784 C 0.99809 0.85481 0.15014 0.0
C2785 C 0.96843 0.84661 0.14353 0.0
C2786 C 1.02829 0.83484 0.1501 0.0
C2787 C 1.03125 0.80461 0.14314 0.0
C2788 C 1.00141 0.79604 0.13639 0.0
C2789 C 0.97116 0.8164 0.13672 0.0
C2790 C 0.0571 0.84596 0.15801 0.0
C2791 C 1.0013 0.76487 0.12868 0.0
C2792 C 0.12324 0.76767 0.13595 0.0
C2793 C 0.12746 0.74033 0.14415 0.0
C2794 C 0.09291 0.78785 0.13539 0.0
C2795 C 0.06457 0.78213 0.14329 0.0
C2796 C 0.06912 0.75494 0.15168 0.0
C2797 C 0.09927 0.73491 0.15189 0.0
C2798 C 0.09113 0.81557 0.1261 0.0
C2799 C 1.04192 0.74705 0.16076 0.0
H2800 H 0.99773 0.87735 0.15563 0.0
H2801 H 0.94961 0.80861 0.13144 0.0
H2802 H 0.06008 0.82801 0.16567 0.0
H2803 H 0.08076 0.84593 0.15273 0.0
H2804 H 0.05322 0.8713 0.16191 0.0
H2805 H 1.00217 0.74258 0.13472 0.0
H2806 H 0.97867 0.76308 0.12282 0.0
H2807 H 1.02384 0.7642 0.12276 0.0
H2808 H 0.14358 0.77314 0.12972 0.0
H2809 H 0.10081 0.71458 0.15842 0.0
H2810 H 0.08902 0.83998 0.13086 0.0
H2811 H 0.06843 0.81251 0.12036 0.0
H2812 H 0.11345 0.81622 0.12006 0.0
H2813 H 1.03705 0.76931 0.16655 0.0
H2814 H 0.04844 0.72571 0.16681 0.0
H2815 H 1.01837 0.74103 0.15587 0.0
C2816 C 0.26096 0.26694 0.34375 0.0
C2817 C 0.2757 0.23581 0.34599 0.0
C2818 C 0.27034 0.28607 0.33359 0.0
C2819 C 0.295 0.27363 0.32552 0.0
C2820 C 0.30991 0.24216 0.3277 0.0
C2821 C 0.30008 0.22358 0.33795 0.0
C2822 C 0.25409 0.31967 0.33156 0.0
C2823 C 0.33626 0.22821 0.31923 0.0
C2824 C 0.29853 0.31159 0.29382 0.0
C2825 C 0.32461 0.33469 0.29518 0.0
C2826 C 0.28888 0.29111 0.30361 0.0
C2827 C 0.30572 0.29402 0.31495 0.0
C2828 C 0.33227 0.31707 0.31633 0.0
C2829 C 0.34139 0.33718 0.30641 0.0
C2830 C 0.26049 0.26665 0.30186 0.0
C2831 C 0.35066 0.32088 0.32834 0.0
H2832 H 0.24236 0.27653 0.35005 0.0
H2833 H 0.31116 0.19929 0.33961 0.0
H2834 H 0.27333 0.33966 0.33173 0.0
H2835 H 0.24208 0.32037 0.3224 0.0
H2836 H 0.2349 0.32539 0.3386 0.0
H2837 H 0.34499 0.20309 0.32215 0.0
H2838 H 0.32623 0.22636 0.30978 0.0
H2839 H 0.35808 0.24534 0.31892 0.0
H2840 H 0.28577 0.30948 0.2851 0.0
H2841 H 0.36125 0.35541 0.30751 0.0
H2842 H 0.2398 0.27274 0.30823 0.0
H2843 H 0.26895 0.24095 0.30406 0.0
H2844 H 0.25061 0.26689 0.29235 0.0
H2845 H 0.33304 0.32904 0.33559 0.0
H2846 H 0.37136 0.33935 0.32776 0.0
H2847 H 0.36113 0.29647 0.33124 0.0
C2848 C 0.9656 0.04736 0.56458 0.0
C2849 C 0.97767 0.07184 0.55653 0.0
C2850 C 0.98453 1.03721 0.57471 0.0
C2851 C 1.01624 0.05187 0.57675 0.0
C2852 C 1.02819 0.07717 0.56882 0.0
C2853 C 1.00871 0.08687 0.55879 0.0
C2854 C 0.971 1.01028 0.58304 0.0
C2855 C 0.06199 0.09324 0.5707 0.0
C2856 C 0.05947 1.04385 0.60748 0.0
C2857 C 0.08221 1.01804 0.60511 0.0
C2858 C 1.0372 0.05469 0.5984 0.0
C2859 C 1.03792 1.03939 0.58673 0.0
C2860 C 0.06043 1.01294 0.58436 0.0
C2861 C 0.08232 1.00258 0.59359 0.0
C2862 C 1.01335 0.08286 0.60123 0.0
C2863 C 0.06199 0.99616 0.57198 0.0
H2864 H 0.94138 1.03605 0.56292 0.0
H2865 H 1.01823 0.10556 0.5525 0.0
H2866 H 0.98712 0.9878 0.58249 0.0
H2867 H 0.97141 1.01893 0.5927 0.0
H2868 H 0.94504 1.00296 0.58062 0.0
H2869 H 0.06678 0.11379 0.56409 0.0
H2870 H 0.06398 0.10341 0.58013 0.0
H2871 H 0.08189 0.07418 0.56965 0.0
H2872 H 0.05915 0.05558 0.61643 0.0
H2873 H 0.10021 0.98294 0.59169 0.0
H2874 H 0.9873 0.07504 0.59923 0.0
H2875 H 1.019 0.10463 0.59528 0.0
H2876 H 1.01486 0.09098 0.61095 0.0
H2877 H 1.03697 0.98646 0.5694 0.0
H2878 H 0.08006 0.97512 0.57179 0.0
H2879 H 0.06943 1.01464 0.5649 0.0
C2880 C 0.33239 0.86059 0.83612 0.0
C2881 C 0.3177 0.85445 0.84756 0.0
C2882 C 0.32338 0.84174 0.82584 0.0
C2883 C 0.29911 0.81623 0.82706 0.0
C2884 C 0.28389 0.81017 0.83855 0.0
C2885 C 0.29339 0.82941 0.84868 0.0
C2886 C 0.34 0.84891 0.8137 0.0
C2887 C 0.25793 0.78307 0.84016 0.0
C2888 C 0.25439 0.78448 0.79882 0.0
C2889 C 0.2716 0.75465 0.79652 0.0
C2890 C 0.26332 0.80502 0.80868 0.0
C2891 C 0.29006 0.7954 0.81637 0.0
C2892 C 0.30785 0.76557 0.814 0.0
C2893 C 0.29837 0.74551 0.80408 0.0
C2894 C 0.24393 0.83678 0.81094 0.0
C2895 C 0.3365 0.75458 0.82205 0.0
H2896 H 0.35085 0.8803 0.83521 0.0
H2897 H 0.28226 0.82445 0.85755 0.0
H2898 H 0.3536 0.82641 0.81049 0.0
H2899 H 0.32086 0.85487 0.80668 0.0
H2900 H 0.35794 0.87008 0.81426 0.0
H2901 H 0.24798 0.7821 0.84965 0.0
H2902 H 0.2368 0.78722 0.83376 0.0
H2903 H 0.26893 0.75839 0.8379 0.0
H2904 H 0.23392 0.79175 0.79289 0.0
H2905 H 0.31142 0.72223 0.80241 0.0
H2906 H 0.26111 0.85857 0.81096 0.0
H2907 H 0.23192 0.83574 0.82009 0.0
H2908 H 0.22426 0.841 0.80393 0.0
H2909 H 0.35588 0.77442 0.82242 0.0
H2910 H 0.34826 0.73112 0.81875 0.0
H2911 H 0.32747 0.75055 0.83154 0.0
C2912 C 0.50451 1.03528 0.09761 0.0
C2913 C 0.51198 0.06166 0.1056 0.0
C2914 C 0.52694 1.02597 0.08841 0.0
C2915 C 0.55747 1.04353 0.08719 0.0
C2916 C 0.56574 0.06933 0.09552 0.0
C2917 C 0.54282 0.07813 0.10465 0.0
C2918 C 0.51732 0.99831 0.07966 0.0
C2919 C 0.5982 0.08842 0.0945 0.0
C2920 C 0.62292 1.00313 1.0671 0.0
C2921 C 0.61721 1.0193 1.0559 0.0
C2922 C 0.60431 1.01144 0.07752 0.0
C2923 C 0.57948 1.03643 0.07665 0.0
C2924 C 0.57429 0.05351 1.06546 0.0
C2925 C 0.59325 1.0447 1.0552 0.0
C2926 C 0.61054 0.99288 0.08934 0.0
C2927 C 0.54795 0.0803 1.06422 0.0
H2928 H 0.48052 1.02277 0.09825 0.0
H2929 H 0.54878 0.09825 0.11094 0.0
H2930 H 0.51403 1.00873 1.07032 0.0
H2931 H 0.53747 0.97937 0.07916 0.0
H2932 H 0.49374 0.98564 0.08239 0.0
H2933 H 0.60203 0.10586 0.1023 0.0
H2934 H 0.61961 0.07088 0.0941 0.0
H2935 H 0.59839 0.10309 0.08587 0.0
H2936 H 0.64179 0.98378 1.06767 0.0
H2937 H 0.58856 0.05697 1.04652 0.0
H2938 H 0.58812 0.97796 0.09178 0.0
H2939 H 0.61497 1.01081 0.09692 0.0
H2940 H 0.63231 0.97577 0.08869 0.0
H2941 H 0.52283 0.06924 1.0657 0.0
H2942 H 0.54834 0.09237 1.05505 0.0
H2943 H 0.55163 0.09985 1.0713 0.0
C2944 C 0.31783 0.77135 0.34838 0.0
C2945 C 0.30919 0.73744 0.34794 0.0
C2946 C 0.30974 0.79274 0.33869 0.0
C2947 C 0.29245 0.77977 0.32844 0.0
C2948 C 0.28318 0.74566 0.32804 0.0
C2949 C 0.29182 0.72479 0.33782 0.0
C2950 C 0.32018 0.829 0.33934 0.0
C2951 C 0.26439 0.73119 0.31727 0.0
C2952 C 0.24644 0.84045 0.30806 0.0
C2953 C 0.26868 0.84359 0.29821 0.0
C2954 C 0.25384 0.81965 0.31798 0.0
C2955 C 0.28433 0.80188 0.31804 0.0
C2956 C 0.30705 0.80514 0.30819 0.0
C2957 C 0.29888 0.82596 0.29834 0.0
C2958 C 0.22908 0.81667 0.32836 0.0
C2959 C 0.33987 0.78655 0.30804 0.0
H2960 H 0.33165 0.78095 0.35617 0.0
H2961 H 0.28496 0.69857 0.33758 0.0
H2962 H 0.33725 0.83492 0.33163 0.0
H2963 H 0.29801 0.8454 0.33839 0.0
H2964 H 0.33304 0.83517 0.34807 0.0
H2965 H 0.25848 0.70426 0.31853 0.0
H2966 H 0.24069 0.74502 0.31587 0.0
H2967 H 0.27941 0.73408 0.3088 0.0
H2968 H 0.22332 0.85453 0.30806 0.0
H2969 H 0.31593 0.82813 0.29067 0.0
H2970 H 0.2409 0.82471 0.33707 0.0
H2971 H 0.22143 0.79019 0.32952 0.0
H2972 H 0.20635 0.832 0.32682 0.0
H2973 H 0.35473 0.79308 0.31628 0.0
H2974 H 0.35496 0.79231 0.29977 0.0
H2975 H 0.33521 0.75922 0.30834 0.0
C2976 C 0.6353 0.05516 0.58064 0.0
C2977 C 0.61976 0.07733 0.58877 0.0
C2978 C 0.61895 1.04457 0.56997 0.0
C2979 C 0.58632 0.05631 0.56752 0.0
C2980 C 0.571 0.07956 0.57549 0.0
C2981 C 0.58798 0.08984 0.58604 0.0
C2982 C 0.63606 1.01997 0.56158 0.0
C2983 C 0.53609 0.09245 0.57319 0.0
C2984 C 0.54419 0.04716 0.53669 0.0
C2985 C 0.52309 1.01982 0.53888 0.0
C2986 C 0.56624 0.05851 0.54576 0.0
C2987 C 0.56682 1.04219 0.55725 0.0
C2988 C 0.54651 1.01378 0.55933 0.0
C2989 C 0.52487 1.00293 0.5501 0.0
C2990 C 0.58785 0.0887 0.54324 0.0
C2991 C 0.54636 0.99586 0.57151 0.0
H2992 H 0.66011 0.04587 0.58269 0.0
H2993 H 0.57586 0.10676 0.59239 0.0
H2994 H 0.6228 0.99561 0.56193 0.0
H2995 H 0.63504 1.02889 0.55197 0.0
H2996 H 0.66259 1.01587 0.56415 0.0
H2997 H 0.52871 0.11208 0.57985 0.0
H2998 H 0.53415 0.10289 0.56381 0.0
H2999 H 0.51795 0.07151 0.57385 0.0
H3000 H 0.54304 0.05999 0.52795 0.0
H3001 H 0.50824 0.98206 0.55188 0.0
H3002 H 0.61417 0.08356 0.54581 0.0
H3003 H 0.57925 0.11001 0.54892 0.0
H3004 H 0.58701 0.0963 0.53346 0.0
H3005 H 0.53085 0.9728 0.57133 0.0
H3006 H 0.5364 1.01272 0.5787 0.0
H3007 H 0.57218 0.989 0.57421 0.0
C3008 C 0.28968 0.25016 0.79923 0.0
C3009 C 0.31671 0.25765 0.79155 0.0
C3010 C 0.28063 0.27181 0.80873 0.0
C3011 C 0.29914 0.30155 0.81057 0.0
C3012 C 0.32575 0.30982 0.8026 0.0
C3013 C 0.33424 0.28771 0.79316 0.0
C3014 C 0.25207 0.26223 0.81707 0.0
C3015 C 0.34589 0.34144 0.80428 0.0
C3016 C 0.25963 0.3672 0.83085 0.0
C3017 C 0.27476 0.36028 0.84216 0.0
C3018 C 0.26789 0.34878 0.82038 0.0
C3019 C 0.29181 0.32292 0.82129 0.0
C3020 C 0.30779 0.3164 0.8326 0.0
C3021 C 0.29903 0.3352 0.84292 0.0
C3022 C 0.25051 0.35644 0.80843 0.0
C3023 C 0.33342 0.28895 0.83389 0.0
H3024 H 0.27634 0.22676 0.7981 0.0
H3025 H 0.35488 0.29372 0.78711 0.0
H3026 H 0.26166 0.25783 0.82647 0.0
H3027 H 0.23369 0.2829 0.81763 0.0
H3028 H 0.23895 0.23928 0.81393 0.0
H3029 H 0.36431 0.34526 0.7968 0.0
H3030 H 0.3291 0.36345 0.80466 0.0
H3031 H 0.35954 0.34039 0.81312 0.0
H3032 H 0.24118 0.38694 0.83022 0.0
H3033 H 0.31049 0.32959 0.85168 0.0
H3034 H 0.23536 0.33457 0.80554 0.0
H3035 H 0.26919 0.36114 0.80112 0.0
H3036 H 0.23382 0.37852 0.80913 0.0
H3037 H 0.32162 0.26439 0.83196 0.0
H3038 H 0.3446 0.28814 0.8432 0.0
H3039 H 0.35376 0.29248 0.8271 0.0
C3040 C 0.0458 0.07701 1.04057 0.0
C3041 C 0.07681 0.06111 1.03937 0.0
C3042 C 1.02352 0.06775 1.04987 0.0
C3043 C 1.03262 1.04207 1.05812 0.0
C3044 C 0.06326 1.02497 1.05662 0.0
C3045 C 0.08503 1.03474 1.04725 0.0
C3046 C 0.99091 0.08634 1.05117 0.0
C3047 C 0.07378 0.99745 1.06527 0.0
C3048 C 0.99892 1.04352 0.09043 0.0
C3049 C 0.97497 1.01798 0.09001 0.0
C3050 C 1.01728 0.05216 0.08 0.0
C3051 C 1.01148 1.03479 1.0689 0.0
C3052 C 0.98675 1.00955 1.06833 0.0
C3053 C 0.96876 1.0014 0.07893 0.0
C3054 C 1.04355 0.07921 0.08094 0.0
C3055 C 0.97986 0.99067 1.05662 0.0
H3056 H 1.03924 0.09712 1.03437 0.0
H3057 H 0.10915 1.02264 1.04643 0.0
H3058 H 0.96976 0.06847 1.05184 0.0
H3059 H 0.99122 0.1012 1.05975 0.0
H3060 H 0.98627 0.10354 1.04337 0.0
H3061 H 0.09718 0.98499 1.06227 0.0
H3062 H 0.07782 1.00796 0.07456 0.0
H3063 H 0.05378 0.97832 1.06602 0.0
H3064 H 1.00402 0.05611 0.09903 0.0
H3065 H 0.9499 0.98193 0.07857 0.0
H3066 H 1.03912 0.09871 0.0739 0.0
H3067 H 0.06861 0.06841 0.07915 0.0
H3068 H 1.04388 0.09129 0.0901 0.0
H3069 H 0.97455 1.0084 1.04906 0.0
H3070 H 0.95841 0.97318 1.05753 0.0
H3071 H 1.00229 0.97613 1.05396 0.0
C3072 C 0.75242 0.71073 0.82773 0.0
C3073 C 0.76958 0.7177 0.83864 0.0
C3074 C 0.75975 0.72826 0.81694 0.0
C3075 C 0.7847 0.75333 0.81715 0.0
C3076 C 0.80293 0.75959 0.82803 0.0
C3077 C 0.79513 0.74166 0.83865 0.0
C3078 C 0.74004 0.72079 0.80547 0.0
C3079 C 0.8297 0.78622 0.82859 0.0
C3080 C 0.82352 0.79011 0.78858 0.0
C3081 C 0.80697 0.82092 0.78786 0.0
C3082 C 0.81539 0.76693 0.79773 0.0
C3083 C 0.79023 0.77493 0.80633 0.0
C3084 C 0.77232 0.80525 0.80527 0.0
C3085 C 0.78093 0.82791 0.79603 0.0
C3086 C 0.83477 0.73466 0.79854 0.0
C3087 C 0.74531 0.81462 0.8143 0.0
H3088 H 0.73296 0.69184 0.82768 0.0
H3089 H 0.8082 0.74732 0.8471 0.0
H3090 H 0.72401 0.7425 0.80318 0.0
H3091 H 0.75714 0.71676 0.79761 0.0
H3092 H 0.72385 0.69839 0.80652 0.0
H3093 H 0.84292 0.78651 0.83754 0.0
H3094 H 0.84835 0.78226 0.82122 0.0
H3095 H 0.81832 0.81116 0.82708 0.0
H3096 H 0.84336 0.78448 0.78214 0.0
H3097 H 0.76833 0.85184 0.79559 0.0
H3098 H 0.8175 0.71311 0.79954 0.0
H3099 H 0.85098 0.73516 0.80678 0.0
H3100 H 0.85077 0.73054 0.79037 0.0
H3101 H 0.72686 0.79405 0.81519 0.0
H3102 H 0.73191 0.83775 0.81158 0.0
H3103 H 0.75657 0.81866 0.82347 0.0
C3104 C 0.79813 0.36634 0.33727 0.0
C3105 C 0.82204 0.35413 0.34549 0.0
C3106 C 0.78875 0.34766 0.32698 0.0
C3107 C 0.80363 0.31609 0.32498 0.0
C3108 C 0.82799 0.30377 0.3332 0.0
C3109 C 0.83693 0.323 0.34338 0.0
C3110 C 0.76276 0.36151 0.31834 0.0
C3111 C 0.84418 0.27006 0.33135 0.0
C3112 C 0.75703 0.25164 0.30636 0.0
C3113 C 0.774 0.25319 0.29516 0.0
C3114 C 0.76611 0.27244 0.3161 0.0
C3115 C 0.79281 0.29523 0.31455 0.0
C3116 C 0.80979 0.29725 0.30321 0.0
C3117 C 0.80019 0.27607 0.29362 0.0
C3118 C 0.74759 0.26953 0.32811 0.0
C3119 C 0.83832 0.32145 0.30128 0.0
H3120 H 0.78696 0.39064 0.33884 0.0
H3121 H 0.85519 0.31344 0.34982 0.0
H3122 H 0.77288 0.36251 0.30889 0.0
H3123 H 0.74064 0.34476 0.31816 0.0
H3124 H 0.75446 0.38697 0.32101 0.0
H3125 H 0.86343 0.26464 0.33841 0.0
H3126 H 0.8249 0.25011 0.33169 0.0
H3127 H 0.85608 0.26887 0.32219 0.0
H3128 H 0.73708 0.23359 0.30761 0.0
H3129 H 0.81309 0.27744 0.2849 0.0
H3130 H 0.73733 0.2942 0.3308 0.0
H3131 H 0.76508 0.26164 0.33544 0.0
H3132 H 0.72672 0.25123 0.32766 0.0
H3133 H 0.83006 0.3473 0.30333 0.0
H3134 H 0.84812 0.32068 0.29176 0.0
H3135 H 0.85902 0.31551 0.30768 0.0
C3136 C 0.75129 0.34065 0.81308 0.0
C3137 C 0.76387 0.37256 0.81049 0.0
C3138 C 0.76105 0.32356 0.82366 0.0
C3139 C 0.78386 0.33887 0.83183 0.0
C3140 C 0.79555 0.37166 0.82955 0.0
C3141 C 0.78551 0.38812 0.81884 0.0
C3142 C 0.74822 0.28848 0.82576 0.0
C3143 C 0.81961 0.38881 0.83816 0.0
C3144 C 0.79185 0.29514 0.86242 0.0
C3145 C 0.81926 0.27423 0.86022 0.0
C3146 C 0.78094 0.31776 0.85347 0.0
C3147 C 0.79775 0.31911 0.84208 0.0
C3148 C 0.82629 0.29908 0.84003 0.0
C3149 C 0.83671 0.27688 0.84914 0.0
C3150 C 0.75064 0.3391 0.85599 0.0
C3151 C 0.84475 0.29971 0.82796 0.0
H3152 H 0.73479 0.32849 0.80658 0.0
H3153 H 0.79486 0.41302 0.8169 0.0
H3154 H 0.76924 0.27051 0.82515 0.0
H3155 H 0.73742 0.28621 0.83508 0.0
H3156 H 0.72887 0.28114 0.81897 0.0
H3157 H 0.82339 0.41554 0.83578 0.0
H3158 H 0.81044 0.38716 0.84773 0.0
H3159 H 0.84418 0.37602 0.83783 0.0
H3160 H 0.77857 0.29333 0.87105 0.0
H3161 H 0.85765 0.26043 0.84735 0.0
H3162 H 0.72946 0.33042 0.85025 0.0
H3163 H 0.75568 0.36552 0.8535 0.0
H3164 H 0.7429 0.33799 0.86575 0.0
H3165 H 0.82828 0.2899 0.82061 0.0
H3166 H 0.86789 0.28443 0.82819 0.0
H3167 H 0.85153 0.32573 0.82547 0.0
C3168 C 0.80264 0.82821 0.34923 0.0
C3169 C 0.77608 0.82128 0.3572 0.0
C3170 C 0.81105 0.80595 0.33985 0.0
C3171 C 0.79237 0.77615 0.33842 0.0
C3172 C 0.76648 0.76829 0.34675 0.0
C3173 C 0.75861 0.79103 0.35607 0.0
C3174 C 0.83887 0.81513 0.33112 0.0
C3175 C 0.74622 0.73659 0.34551 0.0
C3176 C 0.78968 0.74357 0.30597 0.0
C3177 C 0.81455 0.71902 0.30627 0.0
C3178 C 0.78134 0.76153 0.31653 0.0
C3179 C 0.79835 0.75469 0.32761 0.0
C3180 C 0.82258 0.72904 0.32809 0.0
C3181 C 0.83043 0.71147 0.31738 0.0
C3182 C 0.75534 0.78877 0.31569 0.0
C3183 C 0.84104 0.72101 0.33979 0.0
H3184 H 0.81593 0.85175 0.34999 0.0
H3185 H 0.73834 0.78545 0.36233 0.0
H3186 H 0.85697 0.79426 0.33034 0.0
H3187 H 0.82838 0.81957 0.32185 0.0
H3188 H 0.85254 0.83796 0.33405 0.0
H3189 H 0.72911 0.73273 0.3534 0.0
H3190 H 0.73107 0.73768 0.33701 0.0
H3191 H 0.76295 0.71462 0.34474 0.0
H3192 H 0.77761 0.74966 0.29737 0.0
H3193 H 0.84934 0.6921 0.31765 0.0
H3194 H 0.76725 0.81343 0.31736 0.0
H3195 H 0.73598 0.7852 0.32284 0.0
H3196 H 0.74291 0.78942 0.3066 0.0
H3197 H 0.85717 0.74246 0.34238 0.0
H3198 H 0.85697 0.69844 0.33887 0.0
H3199 H 0.82311 0.71698 0.3474 0.0
C3200 C 0.57129 0.50468 0.09638 0.0
C3201 C 0.57236 0.52153 0.10762 0.0
C3202 C 0.54937 0.51475 0.08714 0.0
C3203 C 0.52805 0.54233 0.08922 0.0
C3204 C 0.52819 0.55879 0.10069 0.0
C3205 C 0.55053 0.54823 0.10978 0.0
C3206 C 0.55004 0.49674 0.07497 0.0
C3207 C 0.50554 0.58813 0.1032 0.0
C3208 C 0.50329 0.58813 1.06044 0.0
C3209 C 0.47192 0.57407 1.058 0.0
C3210 C 0.52129 0.57894 1.07088 0.0
C3211 C 0.50747 0.55519 0.07904 0.0
C3212 C 0.47528 0.5418 0.07687 0.0
C3213 C 0.45786 0.55136 1.06631 0.0
C3214 C 0.55569 0.59358 1.07289 0.0
C3215 C 0.45979 0.51657 0.08545 0.0
H3216 H 0.58851 0.48433 0.09465 0.0
H3217 H 0.5512 0.56104 0.11852 0.0
H3218 H 0.52452 0.4884 1.07243 0.0
H3219 H 0.55879 0.51406 1.06771 0.0
H3220 H 0.56676 0.47461 0.0751 0.0
H3221 H 0.50674 0.59636 0.11291 0.0
H3222 H 0.51277 0.60947 0.09727 0.0
H3223 H 0.47929 0.58163 0.10094 0.0
H3224 H 0.51429 0.60546 1.05396 0.0
H3225 H 0.43336 0.54087 1.06449 0.0
H3226 H 0.57473 0.57355 1.07215 0.0
H3227 H 0.55767 0.60428 0.08224 0.0
H3228 H 0.56179 0.61344 1.06614 0.0
H3229 H 0.47428 0.49296 0.08514 0.0
H3230 H 0.43341 0.51091 0.08304 0.0
H3231 H 0.4607 0.52586 0.09502 0.0
C3232 C 0.98806 0.58033 0.5862 0.0
C3233 C 0.99244 0.56425 0.59748 0.0
C3234 C 1.0074 0.57149 0.57604 0.0
C3235 C 1.03157 0.54598 0.57726 0.0
C3236 C 1.03588 0.52941 0.5886 0.0
C3237 C 1.01617 0.53876 0.59861 0.0
C3238 C 1.00212 0.58954 0.56405 0.0
C3239 C 0.06155 0.50211 0.59018 0.0
C3240 C 0.06283 0.50272 0.54874 0.0
C3241 C 0.09349 0.51891 0.54689 0.0
C3242 C 1.04224 0.51145 0.55857 0.0
C3243 C 0.0527 0.53691 0.5667 0.0
C3244 C 0.08345 0.55361 0.56481 0.0
C3245 C 0.10354 0.54438 0.5549 0.0
C3246 C 1.00946 0.49329 0.56032 0.0
C3247 C 0.09531 0.58088 0.57335 0.0
H3248 H 0.96933 0.59973 0.5853 0.0
H3249 H 1.01971 0.52656 0.60738 0.0
H3250 H 1.02555 0.60224 0.56124 0.0
H3251 H 0.99569 0.57135 0.55674 0.0
H3252 H 0.98191 0.60848 0.56461 0.0
H3253 H 0.06132 0.49136 0.59957 0.0
H3254 H 0.05686 0.48172 0.58351 0.0
H3255 H 0.08689 0.51214 0.58829 0.0
H3256 H 0.05494 0.48327 0.54245 0.0
H3257 H 0.12746 0.55659 0.55355 0.0
H3258 H 0.98851 0.51142 0.5603 0.0
H3259 H 1.00922 0.48056 0.56935 0.0
H3260 H 1.00486 0.47436 0.55307 0.0
H3261 H 0.07654 0.60122 0.57376 0.0
H3262 H 0.11964 0.59171 0.57046 0.0
H3263 H 0.09802 0.57079 0.58276 0.0
C3264 C 0.12466 0.54731 0.08522 0.0
C3265 C 0.11192 0.57092 0.09345 0.0
C3266 C 0.1063 0.53774 0.07488 0.0
C3267 C 0.07453 0.55211 1.07283 0.0
C3268 C 0.06179 0.57636 0.081 0.0
C3269 C 0.0807 0.5855 0.09124 0.0
C3270 C 0.12059 0.51189 1.06628 0.0
C3271 C 1.02786 0.59203 0.07911 0.0
C3272 C 1.03337 0.54735 1.04168 0.0
C3273 C 1.01076 0.52103 1.04346 0.0
C3274 C 0.055 0.5573 1.05109 0.0
C3275 C 0.05369 0.54055 1.06249 0.0
C3276 C 1.03132 0.51358 1.06426 0.0
C3277 C 1.01008 0.50414 1.0547 0.0
C3278 C 0.07873 0.58608 1.04893 0.0
C3279 C 1.02916 0.4953 0.07634 0.0
H3280 H 0.14903 0.53639 0.08686 0.0
H3281 H 0.07072 0.60352 0.09769 0.0
H3282 H 0.10449 0.48928 1.06628 0.0
H3283 H 0.12097 0.5217 1.05678 0.0
H3284 H 0.14636 0.50441 1.06887 0.0
H3285 H 1.0223 0.61157 0.08604 0.0
H3286 H 1.02636 0.60345 1.06987 0.0
H3287 H 1.0082 0.5725 0.07963 0.0
H3288 H 1.03406 0.56018 1.03294 0.0
H3289 H 0.99224 0.4841 1.05613 0.0
H3290 H 0.10471 0.57838 1.05105 0.0
H3291 H 0.07244 0.60705 1.05517 0.0
H3292 H 0.07779 0.59532 1.03935 0.0
H3293 H 0.05412 0.48571 0.079 0.0
H3294 H 1.01137 0.47397 0.07602 0.0
H3295 H 1.02098 0.51279 0.08363 0.0
C3296 C 0.50248 0.50204 0.587 0.0
C3297 C 0.47107 0.51618 0.58921 0.0
C3298 C 0.52131 0.5115 0.57678 0.0
C3299 C 0.50829 0.53563 0.56861 0.0
C3300 C 0.47608 0.54912 0.57054 0.0
C3301 C 0.45782 0.53927 0.58087 0.0
C3302 C 0.55569 0.49672 0.57503 0.0
C3303 C 0.46142 0.57474 0.56193 0.0
C3304 C 0.5737 0.58629 0.55202 0.0
C3305 C 0.57527 0.56983 0.54071 0.0
C3306 C 0.55114 0.57604 0.56104 0.0
C3307 C 0.52968 0.54867 0.55866 0.0
C3308 C 0.53036 0.53258 0.54713 0.0
C3309 C 0.55332 0.54333 0.53827 0.0
C3310 C 0.5512 0.59367 0.57328 0.0
C3311 C 0.5076 0.50345 0.5443 0.0
H3312 H 0.51287 0.48442 0.59351 0.0
H3313 H 0.4333 0.54985 0.58251 0.0
H3314 H 0.5582 0.4863 0.56566 0.0
H3315 H 0.57486 0.51661 0.57604 0.0
H3316 H 0.56114 0.47662 0.58176 0.0
H3317 H 0.43495 0.5805 0.56412 0.0
H3318 H 0.47613 0.59822 0.56247 0.0
H3319 H 0.46287 0.56574 0.55233 0.0
H3320 H 0.59098 0.60649 0.55399 0.0
H3321 H 0.55434 0.53083 0.52946 0.0
H3322 H 0.5593 0.57606 0.58055 0.0
H3323 H 0.52561 0.60211 0.57564 0.0
H3324 H 0.56815 0.61569 0.57339 0.0
H3325 H 0.51421 0.48192 0.55022 0.0
H3326 H 0.5094 0.49547 0.53457 0.0
H3327 H 0.48128 0.51008 0.54633 0.0
C3328 C 0.23975 1.04298 0.42327 0.0
C3329 C 0.20447 0.04784 0.42396 0.0
C3330 C 0.25923 1.02546 0.43265 0.0
C3331 C 0.24441 1.01135 0.44356 0.0
C3332 C 0.20895 1.01629 0.44423 0.0
C3333 C 0.19025 1.03389 0.43482 0.0
C3334 C 0.29637 1.02218 0.43086 0.0
C3335 C 0.19016 1.00262 0.45509 0.0
C3336 C 0.28731 0.93669 0.46268 0.0
C3337 C 0.30105 0.95094 0.47358 0.0
C3338 C 0.26998 0.95539 0.45321 0.0
C3339 C 0.26494 0.99084 0.45389 0.0
C3340 C 0.27889 1.00568 0.46483 0.0
C3341 C 0.29626 0.98622 0.47425 0.0
C3342 C 0.25671 0.93658 0.44228 0.0
C3343 C 0.27556 1.04282 0.46662 0.0
H3344 H 0.25253 0.05309 0.41535 0.0
H3345 H 0.16356 1.03674 0.43608 0.0
H3346 H 0.30971 1.03318 0.43882 0.0
H3347 H 0.30332 0.99537 0.43043 0.0
H3348 H 0.30509 1.03472 0.42237 0.0
H3349 H 0.16294 1.0078 0.45457 0.0
H3350 H 0.19389 0.97519 0.45571 0.0
H3351 H 0.20013 1.01375 0.46366 0.0
H3352 H 0.29011 0.90999 0.46144 0.0
H3353 H 0.30622 0.99902 0.48219 0.0
H3354 H 0.26802 0.94664 0.43377 0.0
H3355 H 0.22928 0.94017 0.44157 0.0
H3356 H 0.26203 0.90938 0.4428 0.0
H3357 H 0.28623 0.05619 0.45861 0.0
H3358 H 0.28835 0.05162 0.47506 0.0
H3359 H 0.24874 0.04965 0.46717 0.0
C3360 C 0.35794 1.03806 0.72433 0.0
C3361 C 0.39332 1.04234 0.72389 0.0
C3362 C 0.33868 1.02075 0.71483 0.0
C3363 C 0.35383 1.00658 0.704 0.0
C3364 C 0.38937 1.01107 0.70356 0.0
C3365 C 0.4079 1.02814 0.71315 0.0
C3366 C 0.30145 1.01769 0.71641 0.0
C3367 C 0.40842 0.99763 0.69273 0.0
C3368 C 0.31153 0.93228 0.68452 0.0
C3369 C 0.29765 0.94679 0.6737 0.0
C3370 C 0.32862 0.95081 0.6941 0.0
C3371 C 0.33352 0.9863 0.69356 0.0
C3372 C 0.31967 1.00139 0.68267 0.0
C3373 C 0.30232 0.98212 0.67318 0.0
C3374 C 0.34167 0.93182 0.70501 0.0
C3375 C 0.32324 1.03856 0.68097 0.0
H3376 H 0.34493 0.04838 0.73215 0.0
H3377 H 0.4347 1.0306 0.71209 0.0
H3378 H 0.28854 1.02921 0.70847 0.0
H3379 H 0.29419 0.99091 0.71661 0.0
H3380 H 0.29255 1.02985 0.72495 0.0
H3381 H 0.43561 1.00296 0.69334 0.0
H3382 H 0.40476 0.97019 0.69206 0.0
H3383 H 0.39861 1.00881 0.68416 0.0
H3384 H 0.30892 0.90551 0.68563 0.0
H3385 H 0.29233 0.99508 0.66528 0.0
H3386 H 0.33046 0.94193 0.71353 0.0
H3387 H 0.36913 0.93518 0.70573 0.0
H3388 H 0.33604 0.90467 0.70447 0.0
H3389 H 0.31247 0.05183 0.68897 0.0
H3390 H 0.31071 0.04752 0.67251 0.0
H3391 H 0.35011 0.04533 0.68052 0.0
C3392 C 0.29856 0.10728 0.97418 0.0
C3393 C 0.29373 0.14259 0.97362 0.0
C3394 C 0.31619 0.08809 0.96475 0.0
C3395 C 0.3302 0.1032 0.95388 0.0
C3396 C 0.32515 0.13867 0.95331 0.0
C3397 C 0.30778 0.15714 0.96283 0.0
C3398 C 0.31986 0.05096 0.96649 0.0
C3399 C 0.33829 0.15769 0.94242 0.0
C3400 C 0.40513 0.0615 0.93455 0.0
C3401 C 0.39081 0.04702 0.92379 0.0
C3402 C 0.38637 0.07865 0.94405 0.0
C3403 C 0.35081 0.08295 0.94351 0.0
C3404 C 0.33593 0.06849 0.93267 0.0
C3405 C 0.35542 0.05112 0.92326 0.0
C3406 C 0.40517 0.09236 0.9549 0.0
C3407 C 0.29873 0.07133 0.93096 0.0
H3408 H 0.28846 0.09427 0.98205 0.0
H3409 H 0.30513 0.18389 0.96171 0.0
H3410 H 0.30933 1.03755 0.95846 0.0
H3411 H 0.34675 1.0444 0.96703 0.0
H3412 H 0.30718 1.04195 0.97491 0.0
H3413 H 0.33304 0.18489 0.94303 0.0
H3414 H 0.36569 0.15406 0.94163 0.0
H3415 H 0.32677 0.14783 0.93391 0.0
H3416 H 0.43191 0.0592 0.93569 0.0
H3417 H 0.34257 1.0406 0.91542 0.0
H3418 H 0.39526 0.0812 0.96347 0.0
H3419 H 0.4014 0.11978 0.95552 0.0
H3420 H 0.4324 0.08722 0.95437 0.0
H3421 H 0.28566 0.06003 0.93892 0.0
H3422 H 0.29001 0.05883 0.92246 0.0
H3423 H 0.29147 0.09807 0.93061 0.0
C3424 C 0.23662 0.04744 0.2238 0.0
C3425 C 0.20133 1.04268 0.22318 0.0
C3426 C 0.25603 0.06476 0.21435 0.0
C3427 C 0.24109 0.07875 0.20345 0.0
C3428 C 0.2056 0.07392 0.20285 0.0
C3429 C 0.18697 0.0565 0.21233 0.0
C3430 C 0.29321 0.06797 0.21606 0.0
C3431 C 0.18671 0.08749 0.192 0.0
C3432 C 0.2843 0.15311 0.18425 0.0
C3433 C 0.29789 0.13873 0.17336 0.0
C3434 C 0.26677 0.13455 0.19371 0.0
C3435 C 0.26156 0.09911 0.19307 0.0
C3436 C 0.27531 0.08414 0.18214 0.0
C3437 C 0.29276 0.10348 0.1727 0.0
C3438 C 0.25351 0.15347 0.2046 0.0
C3439 C 0.2717 0.047 0.18038 0.0
H3440 H 0.24948 1.0374 0.23171 0.0
H3441 H 0.16024 0.05368 0.21113 0.0
H3442 H 0.30637 0.05725 0.20802 0.0
H3443 H 0.30022 0.09478 0.2166 0.0
H3444 H 0.30205 0.05517 0.22448 0.0
H3445 H 0.15947 0.08235 0.19258 0.0
H3446 H 0.19055 0.11491 0.19134 0.0
H3447 H 0.19649 0.07625 0.18344 0.0
H3448 H 0.2874 0.1798 0.18548 0.0
H3449 H 0.30261 0.0906 0.16476 0.0
H3450 H 0.26475 0.14351 0.21314 0.0
H3451 H 0.22607 0.14987 0.2053 0.0
H3452 H 0.25889 0.18068 0.20405 0.0
H3453 H 0.2824 1.03364 0.18838 0.0
H3454 H 0.28429 1.03812 0.17192 0.0
H3455 H 0.24483 1.04026 0.17988 0.0
C3456 C 0.8476 0.04752 0.72442 0.0
C3457 C 0.88296 1.04335 0.72389 0.0
C3458 C 0.82821 0.06478 0.71496 0.0
C3459 C 0.84322 0.07914 0.70414 0.0
C3460 C 0.87875 0.07476 0.70361 0.0
C3461 C 0.89738 0.05761 0.71312 0.0
C3462 C 0.79098 0.06754 0.7166 0.0
C3463 C 0.89767 0.08847 0.69279 0.0
C3464 C 0.79179 0.1036 0.67335 0.0
C3465 C 0.78663 0.13884 0.674 0.0
C3466 C 0.80919 0.08436 0.68281 0.0
C3467 C 0.82276 0.0994 0.69376 0.0
C3468 C 0.81743 0.13481 0.69442 0.0
C3469 C 0.80004 0.15331 0.68491 0.0
C3470 C 0.81305 0.04725 0.68103 0.0
C3471 C 0.83043 0.15376 0.70535 0.0
H3472 H 0.83472 1.03714 0.73227 0.0
H3473 H 0.92417 0.05538 0.71203 0.0
H3474 H 0.78371 0.09426 0.71707 0.0
H3475 H 0.77804 0.05652 0.70856 0.0
H3476 H 0.78214 0.05474 0.72502 0.0
H3477 H 0.92497 0.08388 0.69347 0.0
H3478 H 0.88829 0.0768 0.68423 0.0
H3479 H 0.89339 0.11579 0.69202 0.0
H3480 H 0.78214 0.0907 0.66538 0.0
H3481 H 0.79692 0.17999 0.68612 0.0
H3482 H 0.80217 1.03373 0.68896 0.0
H3483 H 0.83997 1.04073 0.68064 0.0
H3484 H 0.80076 1.03833 0.67251 0.0
H3485 H 0.81928 0.14348 0.71386 0.0
H3486 H 0.82474 0.18088 0.70485 0.0
H3487 H 0.8579 0.15055 0.70606 0.0
C3488 C 0.78577 0.14927 0.46247 0.0
C3489 C 0.7994 0.13462 0.4733 0.0
C3490 C 0.76822 0.13093 0.45294 0.0
C3491 C 0.76294 0.09548 0.45348 0.0
C3492 C 0.77672 0.08023 0.46435 0.0
C3493 C 0.79427 0.09934 0.47384 0.0
C3494 C 0.75497 0.1501 0.44211 0.0
C3495 C 0.773 1.04306 0.46601 0.0
C3496 C 0.68811 0.05369 0.43409 0.0
C3497 C 0.70239 1.03994 0.42321 0.0
C3498 C 0.70686 0.07068 0.44364 0.0
C3499 C 0.74237 0.07537 0.44305 0.0
C3500 C 0.75723 0.06149 0.43212 0.0
C3501 C 0.73773 1.04442 0.42263 0.0
C3502 C 0.68805 0.08392 0.45455 0.0
C3503 C 0.79442 0.06457 0.43042 0.0
H3504 H 0.78885 0.17599 0.46133 0.0
H3505 H 0.8041 0.08627 0.48174 0.0
H3506 H 0.76609 0.14021 0.43354 0.0
H3507 H 0.72751 0.14665 0.44143 0.0
H3508 H 0.7605 0.17727 0.44272 0.0
H3509 H 0.78537 1.034 0.47448 0.0
H3510 H 0.74611 1.03633 0.46639 0.0
H3511 H 0.78387 1.02983 0.45801 0.0
H3512 H 0.66136 0.05118 0.43524 0.0
H3513 H 0.75052 1.03443 0.4147 0.0
H3514 H 0.6921 0.11128 0.45538 0.0
H3515 H 0.69773 0.07222 0.46305 0.0
H3516 H 0.66078 0.079 0.45394 0.0
H3517 H 0.80158 0.09136 0.43001 0.0
H3518 H 0.80317 0.05202 0.42194 0.0
H3519 H 0.80754 0.0535 0.4384 0.0
C3520 C 0.79814 0.98685 0.17311 0.0
C3521 C 0.80237 0.95147 0.17356 0.0
C3522 C 0.78062 1.00606 0.18255 0.0
C3523 C 0.76586 0.99082 0.19325 0.0
C3524 C 0.7702 0.95525 0.1937 0.0
C3525 C 0.78782 0.9368 0.18424 0.0
C3526 C 0.77799 1.04334 0.18101 0.0
C3527 C 0.75586 0.93607 0.20435 0.0
C3528 C 0.74028 1.04174 0.22405 0.0
C3529 C 0.70514 0.04722 0.22317 0.0
C3530 C 0.75984 1.02438 0.21467 0.0
C3531 C 0.74524 1.01111 0.20358 0.0
C3532 C 0.70992 1.01669 0.20272 0.0
C3533 C 0.69112 1.0341 0.21213 0.0
C3534 C 0.79682 1.02032 0.21667 0.0
C3535 C 0.69139 1.00396 0.19164 0.0
H3536 H 0.80872 0.99991 0.16534 0.0
H3537 H 0.79019 0.90999 0.18529 0.0
H3538 H 0.75132 0.05064 0.18033 0.0
H3539 H 0.78848 0.05608 0.18919 0.0
H3540 H 0.79133 0.05238 0.17273 0.0
H3541 H 0.76069 0.90881 0.20366 0.0
H3542 H 0.76678 0.94544 0.21304 0.0
H3543 H 0.72847 0.94015 0.20485 0.0
H3544 H 0.75287 0.05121 0.23211 0.0
H3545 H 0.66454 1.03749 0.21074 0.0
H3546 H 0.81073 1.03116 0.20882 0.0
H3547 H 0.80316 0.99336 0.21709 0.0
H3548 H 0.80543 1.03254 0.22525 0.0
H3549 H 0.70198 1.01533 0.18322 0.0
H3550 H 0.66426 1.00964 0.19202 0.0
H3551 H 0.69462 0.97649 0.19086 0.0
C3552 C 0.80321 0.93634 0.96206 0.0
C3553 C 0.78992 0.95075 0.97299 0.0
C3554 C 0.82063 0.95488 0.95257 0.0
C3555 C 0.82612 0.99027 0.95326 0.0
C3556 C 0.81269 1.00526 0.96423 0.0
C3557 C 0.79525 0.98597 0.97368 0.0
C3558 C 0.83351 0.936 0.94161 0.0
C3559 C 0.81672 1.04234 0.96605 0.0
C3560 C 0.90079 1.03208 0.93389 0.0
C3561 C 0.88635 0.04642 0.92315 0.0
C3562 C 0.88214 1.0149 0.9434 0.0
C3563 C 0.84659 1.01057 0.94289 0.0
C3564 C 0.83157 1.02502 0.93209 0.0
C3565 C 0.85098 1.0423 0.92264 0.0
C3566 C 0.90107 1.00112 0.95421 0.0
C3567 C 0.79432 1.02231 0.93049 0.0
H3568 H 0.79995 0.90967 0.96083 0.0
H3569 H 0.78569 0.99882 0.98167 0.0
H3570 H 0.82239 0.94637 0.93311 0.0
H3571 H 0.861 0.93916 0.9409 0.0
H3572 H 0.82767 0.90888 0.94208 0.0
H3573 H 0.8045 0.05122 0.97458 0.0
H3574 H 0.84367 0.04883 0.96643 0.0
H3575 H 0.80587 0.05593 0.95813 0.0
H3576 H 0.9276 1.03428 0.93497 0.0
H3577 H 0.83809 0.05275 0.91481 0.0
H3578 H 0.89663 0.97381 0.95498 0.0
H3579 H 0.89183 1.01281 0.96277 0.0
H3580 H 0.92839 1.00565 0.9535 0.0
H3581 H 0.78691 0.9956 0.93001 0.0
H3582 H 0.78548 1.03516 0.92207 0.0
H3583 H 0.78149 1.03332 0.93854 0.0
C3584 C 0.73853 0.54615 0.9236 0.0
C3585 C 0.7034 0.55195 0.92422 0.0
C3586 C 0.75742 0.52835 0.93307 0.0
C3587 C 0.74212 0.51502 0.94401 0.0
C3588 C 0.70682 0.52102 0.94464 0.0
C3589 C 0.68868 0.53875 0.93512 0.0
C3590 C 0.79443 0.52382 0.9313 0.0
C3591 C 0.68761 0.50837 0.95557 0.0
C3592 C 0.78256 0.43965 0.96346 0.0
C3593 C 0.79703 0.45387 0.97423 0.0
C3594 C 0.76576 0.45857 0.95392 0.0
C3595 C 0.76198 0.4942 0.95442 0.0
C3596 C 0.77656 0.50899 0.96525 0.0
C3597 C 0.79344 0.48932 0.97473 0.0
C3598 C 0.75179 0.43983 0.94309 0.0
C3599 C 0.77442 0.54628 0.96687 0.0
H3600 H 0.75163 0.55557 0.91564 0.0
H3601 H 0.66206 0.54235 0.93632 0.0
H3602 H 0.80813 0.53436 0.93926 0.0
H3603 H 0.80044 0.49677 0.93088 0.0
H3604 H 0.80361 0.53602 0.92281 0.0
H3605 H 0.6606 0.51451 0.95504 0.0
H3606 H 0.69035 0.48084 0.95629 0.0
H3607 H 0.69802 0.51939 0.96408 0.0
H3608 H 0.78435 0.41281 0.96238 0.0
H3609 H 0.80402 0.50208 0.98257 0.0
H3610 H 0.7638 0.44887 0.93455 0.0
H3611 H 0.7246 0.44471 0.94226 0.0
H3612 H 0.75577 0.41244 0.94382 0.0
H3613 H 0.78569 0.55902 0.95884 0.0
H3614 H 0.78733 0.55493 0.97531 0.0
H3615 H 0.74784 0.55403 0.96732 0.0
C3616 C 0.80615 0.43827 0.18504 0.0
C3617 C 0.79226 0.45255 0.17418 0.0
C3618 C 0.82366 0.45697 0.19448 0.0
C3619 C 0.82858 0.49247 0.19385 0.0
C3620 C 0.81455 0.50733 0.18294 0.0
C3621 C 0.7971 0.48786 0.17353 0.0
C3622 C 0.83723 0.43815 0.20535 0.0
C3623 C 0.81787 0.54449 0.18117 0.0
C3624 C 0.85347 0.54444 0.22454 0.0
C3625 C 0.88873 0.54947 0.2239 0.0
C3626 C 0.8341 0.52694 0.21512 0.0
C3627 C 0.84902 0.51302 0.2042 0.0
C3628 C 0.88447 0.51816 0.20357 0.0
C3629 C 0.90307 0.53573 0.21302 0.0
C3630 C 0.79697 0.52343 0.21688 0.0
C3631 C 0.90335 0.50477 0.19269 0.0
H3632 H 0.80329 0.41155 0.18626 0.0
H3633 H 0.78703 0.50067 0.16561 0.0
H3634 H 0.86465 0.44195 0.206 0.0
H3635 H 0.82604 0.44804 0.21391 0.0
H3636 H 0.83203 0.41091 0.2048 0.0
H3637 H 0.80508 0.55328 0.17274 0.0
H3638 H 0.80721 0.55778 0.18919 0.0
H3639 H 0.84468 0.55143 0.18062 0.0
H3640 H 0.84062 0.5544 0.23247 0.0
H3641 H 0.92976 0.53875 0.2118 0.0
H3642 H 0.79018 0.49656 0.21742 0.0
H3643 H 0.78363 0.53406 0.20886 0.0
H3644 H 0.78812 0.53614 0.22531 0.0
H3645 H 0.89969 0.47732 0.19202 0.0
H3646 H 0.93056 0.51009 0.19325 0.0
H3647 H 0.89342 0.51598 0.18415 0.0
C3648 C 0.85576 0.54556 0.42364 0.0
C3649 C 0.89109 0.54109 0.42422 0.0
C3650 C 0.83638 0.56291 0.43307 0.0
C3651 C 0.85136 0.57727 0.44391 0.0
C3652 C 0.88688 0.57272 0.44447 0.0
C3653 C 0.90549 0.55525 0.43502 0.0
C3654 C 0.79917 0.56577 0.43141 0.0
C3655 C 0.90582 0.58669 0.45525 0.0
C3656 C 0.80805 0.65182 0.46288 0.0
C3657 C 0.79462 0.63768 0.47385 0.0
C3658 C 0.82556 0.63313 0.45347 0.0
C3659 C 0.83091 0.59775 0.45424 0.0
C3660 C 0.81732 0.583 0.46525 0.0
C3661 C 0.7999 0.60248 0.47464 0.0
C3662 C 0.83866 0.65184 0.44249 0.0
C3663 C 0.82111 0.54594 0.46715 0.0
H3664 H 0.84288 0.53525 0.41578 0.0
H3665 H 0.93224 0.55267 0.43618 0.0
H3666 H 0.78615 0.55513 0.4395 0.0
H3667 H 0.79202 0.5925 0.43079 0.0
H3668 H 0.7903 0.55268 0.42304 0.0
H3669 H 0.93307 0.58175 0.45465 0.0
H3670 H 0.90187 0.6141 0.45583 0.0
H3671 H 0.89617 0.57558 0.46386 0.0
H3672 H 0.80487 0.67846 0.46155 0.0
H3673 H 0.7902 0.58978 0.48265 0.0
H3674 H 0.82744 0.64151 0.434 0.0
H3675 H 0.86611 0.64847 0.44179 0.0
H3676 H 0.83313 0.67901 0.44294 0.0
H3677 H 0.81046 0.53227 0.4592 0.0
H3678 H 0.80856 0.5372 0.47564 0.0
H3679 H 0.84801 0.53944 0.46767 0.0
C3680 C 0.69172 0.55225 0.71326 0.0
C3681 C 0.70623 0.53752 0.72392 0.0
C3682 C 0.71035 0.56978 0.70381 0.0
C3683 C 0.74596 0.57381 0.70425 0.0
C3684 C 0.76104 0.55885 0.71494 0.0
C3685 C 0.74164 0.54144 0.72437 0.0
C3686 C 0.69133 0.58437 0.69318 0.0
C3687 C 0.79834 0.56112 0.71646 0.0
C3688 C 0.79701 0.5993 0.67346 0.0
C3689 C 0.80297 0.63438 0.67439 0.0
C3690 C 0.77946 0.57977 0.68282 0.0
C3691 C 0.76647 0.59436 0.69394 0.0
C3692 C 0.77254 0.62962 0.69486 0.0
C3693 C 0.79013 0.64837 0.68547 0.0
C3694 C 0.77489 0.54285 0.68075 0.0
C3695 C 0.76012 0.64813 0.70598 0.0
H3696 H 0.66489 0.55011 0.71221 0.0
H3697 H 0.75459 0.5307 0.73213 0.0
H3698 H 0.69581 0.61173 0.69268 0.0
H3699 H 0.70046 0.57336 0.68448 0.0
H3700 H 0.66401 0.57986 0.69388 0.0
H3701 H 0.80725 0.54753 0.72471 0.0
H3702 H 0.81092 0.55069 0.70825 0.0
H3703 H 0.80597 0.58772 0.71722 0.0
H3704 H 0.80621 0.58674 0.66535 0.0
H3705 H 0.79386 0.67491 0.6869 0.0
H3706 H 0.74785 0.5368 0.68029 0.0
H3707 H 0.78545 0.52871 0.68859 0.0
H3708 H 0.78704 0.53421 0.67218 0.0
H3709 H 0.73265 0.64508 0.7068 0.0
H3710 H 0.76608 0.67524 0.70562 0.0
H3711 H 0.77148 0.63739 0.71437 0.0
C3712 C 0.4074 0.55556 0.21264 0.0
C3713 C 0.39332 0.54136 0.22348 0.0
C3714 C 0.38842 0.57263 0.20319 0.0
C3715 C 0.35289 0.57696 0.20387 0.0
C3716 C 0.33825 0.56259 0.21476 0.0
C3717 C 0.35797 0.54543 0.22414 0.0
C3718 C 0.40697 0.58634 0.19229 0.0
C3719 C 0.30107 0.56526 0.21654 0.0
C3720 C 0.30865 0.65097 0.18491 0.0
C3721 C 0.29477 0.63645 0.17409 0.0
C3722 C 0.32659 0.63255 0.19429 0.0
C3723 C 0.33203 0.59716 0.1936 0.0
C3724 C 0.31803 0.58206 0.18273 0.0
C3725 C 0.30009 0.60124 0.17339 0.0
C3726 C 0.34005 0.65154 0.20514 0.0
C3727 C 0.32195 0.54498 0.18092 0.0
H3728 H 0.43416 0.55332 0.21143 0.0
H3729 H 0.34535 0.53506 0.23204 0.0
H3730 H 0.39697 0.57508 0.18375 0.0
H3731 H 0.40306 0.61374 0.19165 0.0
H3732 H 0.43423 0.58132 0.19276 0.0
H3733 H 0.29373 0.59196 0.217 0.0
H3734 H 0.28791 0.55411 0.20858 0.0
H3735 H 0.29253 0.55253 0.22503 0.0
H3736 H 0.30545 0.67764 0.18614 0.0
H3737 H 0.29009 0.58831 0.16548 0.0
H3738 H 0.36757 0.64844 0.20567 0.0
H3739 H 0.32936 0.64121 0.21372 0.0
H3740 H 0.33423 0.67864 0.20468 0.0
H3741 H 0.34888 0.53848 0.1805 0.0
H3742 H 0.30961 0.53607 0.17241 0.0
H3743 H 0.31115 0.53141 0.18885 0.0
C3744 C 0.29609 0.59632 0.97356 0.0
C3745 C 0.3005 0.63169 0.97318 0.0
C3746 C 0.27865 0.57729 0.96404 0.0
C3747 C 0.2642 0.59274 0.95333 0.0
C3748 C 0.26872 0.6283 0.95296 0.0
C3749 C 0.28625 0.64656 0.96251 0.0
C3750 C 0.27576 0.53999 0.96549 0.0
C3751 C 0.25466 0.64766 0.94231 0.0
C3752 C 0.23888 0.54256 0.92234 0.0
C3753 C 0.20371 0.53719 0.92312 0.0
C3754 C 0.25839 0.55964 0.93182 0.0
C3755 C 0.24366 0.57269 0.94291 0.0
C3756 C 0.20831 0.56717 0.94368 0.0
C3757 C 0.18957 0.55006 0.93416 0.0
C3758 C 0.29543 0.56364 0.92993 0.0
C3759 C 0.18968 0.57967 0.95475 0.0
H3760 H 0.30643 0.58313 0.98134 0.0
H3761 H 0.28876 0.67338 0.96152 0.0
H3762 H 0.24904 0.53278 0.96617 0.0
H3763 H 0.28611 0.52733 0.95728 0.0
H3764 H 0.28907 0.53077 0.97375 0.0
H3765 H 0.25965 0.67491 0.94306 0.0
H3766 H 0.26565 0.63839 0.93363 0.0
H3767 H 0.22726 0.64367 0.94175 0.0
H3768 H 0.25154 0.53327 0.91427 0.0
H3769 H 0.16295 0.54672 0.93547 0.0
H3770 H 0.30914 0.55267 0.9378 0.0
H3771 H 0.30193 0.5906 0.92957 0.0
H3772 H 0.30413 0.55152 0.92135 0.0
H3773 H 0.19996 0.56793 0.96315 0.0
H3774 H 0.16249 0.57418 0.95426 0.0
H3775 H 0.19316 0.60708 0.95567 0.0
C3776 C 0.28438 0.44314 0.68454 0.0
C3777 C 0.29728 0.4577 0.67357 0.0
C3778 C 0.26663 0.46137 0.69402 0.0
C3779 C 0.26035 0.4966 0.69327 0.0
C3780 C 0.27337 0.51176 0.68225 0.0
C3781 C 0.29117 0.49277 0.67282 0.0
C3782 C 0.25427 0.44233 0.70503 0.0
C3783 C 0.26846 0.54871 0.68037 0.0
C3784 C 0.18506 0.53676 0.71275 0.0
C3785 C 0.19937 0.55147 0.72347 0.0
C3786 C 0.20393 0.51996 0.70322 0.0
C3787 C 0.23958 0.51652 0.70365 0.0
C3788 C 0.25446 0.53143 0.7144 0.0
C3789 C 0.23483 0.54826 0.72388 0.0
C3790 C 0.18512 0.5055 0.69249 0.0
C3791 C 0.29179 0.52971 0.71592 0.0
H3792 H 0.2882 0.41658 0.68583 0.0
H3793 H 0.30036 0.50574 0.66479 0.0
H3794 H 0.2652 0.45311 0.7135 0.0
H3795 H 0.22673 0.44476 0.70576 0.0
H3796 H 0.26073 0.41536 0.70461 0.0
H3797 H 0.28038 0.55777 0.6718 0.0
H3798 H 0.24137 0.55449 0.68001 0.0
H3799 H 0.27906 0.56272 0.68824 0.0
H3800 H 0.15819 0.53834 0.71173 0.0
H3801 H 0.24763 0.55907 0.73168 0.0
H3802 H 0.18935 0.47813 0.69203 0.0
H3803 H 0.19464 0.51644 0.68383 0.0
H3804 H 0.15782 0.5102 0.69308 0.0
H3805 H 0.29981 0.50321 0.7164 0.0
H3806 H 0.30048 0.54283 0.72431 0.0
H3807 H 0.30423 0.541 0.70783 0.0
C3808 C 0.30816 0.43407 0.46201 0.0
C3809 C 0.29351 0.44882 0.47263 0.0
C3810 C 0.32544 0.45252 0.45247 0.0
C3811 C 0.32952 0.48815 0.45282 0.0
C3812 C 0.31468 0.50346 0.46348 0.0
C3813 C 0.29732 0.48426 0.47296 0.0
C3814 C 0.33969 0.43331 0.44182 0.0
C3815 C 0.31708 0.5408 0.46492 0.0
C3816 C 0.40411 0.53167 0.43391 0.0
C3817 C 0.39005 0.54469 0.42288 0.0
C3818 C 0.38536 0.51422 0.44334 0.0
C3819 C 0.35006 0.50844 0.44247 0.0
C3820 C 0.3354 0.52156 0.43138 0.0
C3821 C 0.35492 0.53904 0.422 0.0
C3822 C 0.40389 0.50171 0.45444 0.0
C3823 C 0.29843 0.51721 0.42938 0.0
H3824 H 0.30616 0.40719 0.46107 0.0
H3825 H 0.28662 0.49736 0.4807 0.0
H3826 H 0.32888 0.44271 0.43312 0.0
H3827 H 0.36711 0.43728 0.44135 0.0
H3828 H 0.33465 0.40606 0.4425 0.0
H3829 H 0.30382 0.54985 0.47321 0.0
H3830 H 0.34371 0.54839 0.46552 0.0
H3831 H 0.30635 0.55328 0.45674 0.0
H3832 H 0.43068 0.53522 0.43531 0.0
H3833 H 0.34231 0.54844 0.41394 0.0
H3834 H 0.40079 0.47422 0.45524 0.0
H3835 H 0.39321 0.51305 0.46284 0.0
H3836 H 0.431 0.50761 0.45407 0.0
H3837 H 0.29205 0.49021 0.42922 0.0
H3838 H 0.28987 0.5288 0.42069 0.0
H3839 H 0.28447 0.52856 0.43712 0.0
C3840 C 0.17646 0.09147 0.34689 0.0
C3841 C 0.15725 0.07622 0.35629 0.0
C3842 C 0.17698 0.0796 0.33438 0.0
C3843 C 0.15702 0.05181 0.33042 0.0
C3844 C 0.1372 1.03664 0.33985 0.0
C3845 C 0.13792 0.0484 0.35238 0.0
C3846 C 0.19954 0.0969 0.32532 0.0
C3847 C 0.1145 1.00784 0.33667 0.0
C3848 C 0.13597 1.04124 0.2949 0.0
C3849 C 0.1563 1.01442 0.2908 0.0
C3850 C 0.13562 0.05299 0.30743 0.0
C3851 C 0.15683 1.03887 0.31666 0.0
C3852 C 0.17778 1.01213 0.31251 0.0
C3853 C 0.1769 1.0002 0.30001 0.0
C3854 C 0.11182 0.0806 0.31083 0.0
C3855 C 0.20178 0.99602 0.32135 0.0
H3856 H 0.1918 0.11279 0.34934 0.0
H3857 H 0.12256 1.0359 0.35914 0.0
H3858 H 0.21612 0.07835 0.32084 0.0
H3859 H 0.18433 0.1087 0.31802 0.0
H3860 H 0.21523 0.11647 0.3297 0.0
H3861 H 0.09905 0.99971 0.34458 0.0
H3862 H 0.09767 1.01503 0.32903 0.0
H3863 H 0.12956 0.98628 0.33349 0.0
H3864 H 0.11954 0.05292 0.28828 0.0
H3865 H 0.19303 0.97968 0.29741 0.0
H3866 H 0.12607 0.1029 0.31388 0.0
H3867 H 0.0959 0.07257 0.31862 0.0
H3868 H 0.09545 0.08793 0.30307 0.0
H3869 H 0.21777 1.01541 0.32567 0.0
H3870 H 0.21807 0.97728 0.31682 0.0
H3871 H 0.18769 0.98345 0.32879 0.0
C3872 C 0.2539 0.92464 0.59728 0.0
C3873 C 0.26868 0.90436 0.60647 0.0
C3874 C 0.26575 0.9258 0.58478 0.0
C3875 C 0.29302 0.90554 0.58064 0.0
C3876 C 0.30773 0.88472 0.58985 0.0
C3877 C 0.29599 0.88472 0.60236 0.0
C3878 C 0.24895 0.94928 0.57594 0.0
C3879 C 0.336 0.8617 0.58644 0.0
C3880 C 0.30287 0.88602 0.54505 0.0
C3881 C 0.33002 0.90612 0.54104 0.0
C3882 C 0.29119 0.88533 0.55756 0.0
C3883 C 0.3058 0.9059 0.56689 0.0
C3884 C 0.33292 0.92661 0.56285 0.0
C3885 C 0.34472 0.92613 0.55033 0.0
C3886 C 0.26309 0.86188 0.56085 0.0
C3887 C 0.3496 0.94988 0.57182 0.0
H3888 H 0.23299 0.94023 0.59991 0.0
H3889 H 0.3081 0.86857 0.60896 0.0
H3890 H 0.26784 0.96589 0.57163 0.0
H3891 H 0.23689 0.9348 0.56848 0.0
H3892 H 0.22968 0.96498 0.58045 0.0
H3893 H 0.3441 0.84584 0.59424 0.0
H3894 H 0.32823 0.84525 0.57876 0.0
H3895 H 0.35772 0.87655 0.58323 0.0
H3896 H 0.29083 0.87003 0.53836 0.0
H3897 H 0.36551 0.94206 0.54779 0.0
H3898 H 0.24127 0.87636 0.56414 0.0
H3899 H 0.27099 0.84519 0.56844 0.0
H3900 H 0.2551 0.84625 0.55296 0.0
H3901 H 0.33061 0.96611 0.57622 0.0
H3902 H 0.36875 0.96596 0.56739 0.0
H3903 H 0.36176 0.9352 0.57919 0.0
C3904 C 0.45622 0.04802 0.79526 0.0
C3905 C 0.43569 0.07449 0.79101 0.0
C3906 C 0.4565 1.03667 0.80782 0.0
C3907 C 0.43509 0.05094 0.81693 0.0
C3908 C 0.41395 0.07738 0.81265 0.0
C3909 C 0.41482 0.08886 0.8001 0.0
C3910 C 0.48042 1.0093 0.81138 0.0
C3911 C 0.38981 0.09363 0.82139 0.0
C3912 C 0.41583 0.99947 0.84738 0.0
C3913 C 0.43525 1.01507 0.85665 0.0
C3914 C 0.41514 1.01087 0.83483 0.0
C3915 C 0.435 1.03856 0.83072 0.0
C3916 C 0.45496 0.0541 0.84002 0.0
C3917 C 0.45452 1.04274 0.85258 0.0
C3918 C 0.39256 0.99316 0.82588 0.0
C3919 C 0.4775 0.08287 0.83667 0.0
H3920 H 0.47284 1.03626 0.78873 0.0
H3921 H 0.39854 0.10914 0.79736 0.0
H3922 H 0.49653 1.01787 0.81905 0.0
H3923 H 0.4663 0.98719 0.81467 0.0
H3924 H 0.49662 1.0015 0.80363 0.0
H3925 H 0.37359 0.1123 0.81678 0.0
H3926 H 0.37376 0.07431 0.82572 0.0
H3927 H 0.40379 0.10631 0.82884 0.0
H3928 H 0.40055 0.97824 0.84998 0.0
H3929 H 0.47001 0.05547 0.85925 0.0
H3930 H 0.40771 0.98149 0.81853 0.0
H3931 H 0.37561 1.01145 0.82144 0.0
H3932 H 0.37725 0.97344 0.83034 0.0
H3933 H 0.49457 0.0753 0.82915 0.0
H3934 H 0.49272 0.09164 0.84455 0.0
H3935 H 0.46236 0.10409 0.83324 0.0
C3936 C 0.28966 0.20493 1.0449 0.0
C3937 C 0.26284 0.18455 1.04077 0.0
C3938 C 0.30149 0.20515 1.0574 0.0
C3939 C 0.28738 0.18382 1.06659 0.0
C3940 C 0.26057 0.16284 1.06243 0.0
C3941 C 0.24862 0.16378 1.04993 0.0
C3942 C 0.32921 0.22891 1.06082 0.0
C3943 C 0.24444 0.13878 1.07126 0.0
C3944 C 0.34027 0.16413 0.09669 0.0
C3945 C 0.32542 0.1836 0.10609 0.0
C3946 C 0.32814 0.16352 0.08422 0.0
C3947 C 0.30044 0.18355 0.08032 0.0
C3948 C 0.28561 0.20356 0.08975 0.0
C3949 C 0.29768 0.20302 0.10223 0.0
C3950 C 0.34511 0.14086 0.07513 0.0
C3951 C 0.25687 0.22629 0.08661 0.0
H3952 H 0.30135 0.22148 1.03831 0.0
H3953 H 0.2281 0.14761 1.0473 0.0
H3954 H 0.32118 0.24496 1.06857 0.0
H3955 H 0.35137 0.21464 1.06393 0.0
H3956 H 0.33674 0.24519 1.05305 0.0
H3957 H 0.22544 0.12269 1.06674 0.0
H3958 H 0.26377 0.12258 0.07547 0.0
H3959 H 0.23223 0.15282 0.07877 0.0
H3960 H 0.36151 0.14873 0.09911 0.0
H3961 H 0.28548 0.21856 0.109 0.0
H3962 H 0.35677 0.15599 1.06777 0.0
H3963 H 0.32639 0.12422 1.07074 0.0
H3964 H 0.36473 0.12519 0.07946 0.0
H3965 H 0.26419 0.24336 0.07906 0.0
H3966 H 0.24868 0.2415 0.09457 0.0
H3967 H 0.23535 0.21127 0.08333 0.0
C3968 C 0.90643 0.99919 0.80024 0.0
C3969 C 0.92626 1.01408 0.79095 0.0
C3970 C 0.90581 1.01112 0.81274 0.0
C3971 C 0.9262 1.03854 0.81673 0.0
C3972 C 0.94657 0.05333 0.8074 0.0
C3973 C 0.94601 1.04152 0.79491 0.0
C3974 C 0.88275 0.99426 0.82173 0.0
C3975 C 0.9697 0.08173 0.81066 0.0
C3976 C 0.90727 0.09042 0.84709 0.0
C3977 C 0.92779 0.07582 0.85624 0.0
C3978 C 0.90607 0.07849 0.83461 0.0
C3979 C 0.92652 0.05137 0.83046 0.0
C3980 C 0.94759 1.03687 0.83963 0.0
C3981 C 0.94761 0.04867 0.85212 0.0
C3982 C 0.88232 0.09502 0.82578 0.0
C3983 C 0.97084 1.00881 0.8362 0.0
H3984 H 0.89078 0.97817 0.79772 0.0
H3985 H 0.96183 0.0537 0.78821 0.0
H3986 H 0.89758 0.98224 0.82909 0.0
H3987 H 0.86639 1.01313 0.82615 0.0
H3988 H 0.86682 0.97495 0.81732 0.0
H3989 H 0.98518 0.08987 0.80276 0.0
H3990 H 0.955 0.1034 0.81396 0.0
H3991 H 0.98652 0.07406 0.81824 0.0
H3992 H 0.89154 0.11121 0.84974 0.0
H3993 H 0.96394 1.03672 0.85871 0.0
H3994 H 0.86591 0.07592 0.82149 0.0
H3995 H 0.8966 0.10724 0.81832 0.0
H3996 H 0.86644 0.1141 0.83032 0.0
H3997 H 0.95618 0.98693 0.83301 0.0
H3998 H 0.98685 1.00089 0.84398 0.0
H3999 H 0.98713 1.01672 0.8285 0.0
C4000 C 0.79099 0.16844 0.60279 0.0
C4001 C 0.76101 0.18482 0.60617 0.0
C4002 C 0.8031 0.16681 0.59033 0.0
C4003 C 0.78649 0.18371 0.58042 0.0
C4004 C 0.75659 0.20114 0.58393 0.0
C4005 C 0.74408 0.20058 0.59634 0.0
C4006 C 0.83389 0.14612 0.58802 0.0
C4007 C 0.73717 0.22129 0.5747 0.0
C4008 C 0.84337 0.19774 0.55076 0.0
C4009 C 0.82566 0.18263 0.54097 0.0
C4010 C 0.8309 0.19914 0.56316 0.0
C4011 C 0.80012 0.18325 0.56671 0.0
C4012 C 0.78266 0.16701 0.55683 0.0
C4013 C 0.79485 0.1678 0.54437 0.0
C4014 C 0.85133 0.2185 0.57235 0.0
C4015 C 0.75081 0.14791 0.55918 0.0
H4016 H 0.80488 0.15573 0.60992 0.0
H4017 H 0.72106 0.21365 0.59839 0.0
H4018 H 0.83638 0.13839 0.57831 0.0
H4019 H 0.85628 0.16081 0.59069 0.0
H4020 H 0.8336 0.12329 0.59382 0.0
H4021 H 0.72717 0.24438 0.57898 0.0
H4022 H 0.75241 0.22853 0.56664 0.0
H4023 H 0.7154 0.2064 0.57154 0.0
H4024 H 0.86705 0.20964 0.54868 0.0
H4025 H 0.78033 0.15565 0.53727 0.0
H4026 H 0.87227 0.20262 0.57556 0.0
H4027 H 0.83647 0.22664 0.58038 0.0
H4028 H 0.86254 0.24099 0.56801 0.0
H4029 H 0.74792 0.14047 0.56891 0.0
H4030 H 0.74988 0.125 0.55344 0.0
H4031 H 0.72922 0.16364 0.55649 0.0
C4032 C 0.67906 0.99727 0.34663 0.0
C4033 C 0.659 1.0119 0.35591 0.0
C4034 C 0.68 1.00937 0.33415 0.0
C4035 C 0.65968 1.03675 0.33012 0.0
C4036 C 0.63905 0.05129 0.33942 0.0
C4037 C 0.63931 1.03931 0.35191 0.0
C4038 C 0.70334 0.99276 0.32522 0.0
C4039 C 0.61597 0.07962 0.33614 0.0
C4040 C 0.67979 0.08934 0.29996 0.0
C4041 C 0.65973 0.07486 0.29063 0.0
C4042 C 0.68045 0.07718 0.31243 0.0
C4043 C 0.65985 0.04989 0.3164 0.0
C4044 C 0.63922 1.03551 0.30704 0.0
C4045 C 0.63975 0.04754 0.29456 0.0
C4046 C 0.7038 0.09365 0.32142 0.0
C4047 C 0.61584 1.00728 0.31026 0.0
H4048 H 0.69469 0.9763 0.34917 0.0
H4049 H 0.62331 0.05133 0.35858 0.0
H4050 H 0.68874 0.9808 0.31777 0.0
H4051 H 0.71982 1.01177 0.32092 0.0
H4052 H 0.71915 0.97344 0.32965 0.0
H4053 H 0.6001 0.08741 0.34398 0.0
H4054 H 0.63075 0.10149 0.33303 0.0
H4055 H 0.59952 0.07208 0.32843 0.0
H4056 H 0.69564 0.11025 0.29747 0.0
H4057 H 0.62374 1.03564 0.28785 0.0
H4058 H 0.72005 0.07455 0.32576 0.0
H4059 H 0.6892 0.10568 0.32884 0.0
H4060 H 0.71985 0.1129 0.31703 0.0
H4061 H 0.63039 0.98535 0.31342 0.0
H4062 H 0.60006 0.99956 0.30238 0.0
H4063 H 0.59932 1.0149 0.31793 0.0
C4064 C 0.84589 0.88907 0.09611 0.0
C4065 C 0.82868 0.90475 0.10588 0.0
C4066 C 0.8334 0.88802 0.08371 0.0
C4067 C 0.8032 0.90486 0.08015 0.0
C4068 C 0.7863 0.92168 0.09 0.0
C4069 C 0.79842 0.92054 0.10246 0.0
C4070 C 0.85316 0.868 0.07454 0.0
C4071 C 0.75515 0.9418 0.08763 0.0
C4072 C 0.7946 0.91976 1.04408 0.0
C4073 C 0.76405 0.90433 1.04072 0.0
C4074 C 0.80677 0.92106 1.05653 0.0
C4075 C 0.78958 0.90476 1.06645 0.0
C4076 C 0.75907 0.88827 1.06295 0.0
C4077 C 0.74658 0.88917 1.05055 0.0
C4078 C 0.8383 0.94076 1.05882 0.0
C4079 C 0.73897 0.86879 1.0722 0.0
H4080 H 0.86913 0.87643 0.09821 0.0
H4081 H 0.78432 0.93315 0.10956 0.0
H4082 H 0.83804 0.86032 1.0665 0.0
H4083 H 0.87467 0.88318 1.07134 0.0
H4084 H 0.86354 0.84517 0.0789 0.0
H4085 H 0.75506 0.96477 0.09334 0.0
H4086 H 0.75251 0.94924 0.07789 0.0
H4087 H 0.73301 0.92681 0.09034 0.0
H4088 H 0.80892 0.93197 1.03693 0.0
H4089 H 0.72311 0.87682 1.0485 0.0
H4090 H 0.86015 0.92536 1.05617 0.0
H4091 H 0.84108 0.94845 1.06853 0.0
H4092 H 0.83881 0.96356 1.05302 0.0
H4093 H 0.72816 0.846 1.06793 0.0
H4094 H 0.71774 0.88438 0.07534 0.0
H4095 H 0.75395 0.86111 0.08026 0.0
C4096 C 0.67274 0.54716 0.85322 0.0
C4097 C 0.65712 0.5776 0.85654 0.0
C4098 C 0.67412 0.53491 0.84078 0.0
C4099 C 0.65772 0.55188 0.83083 0.0
C4100 C 0.64105 0.58227 0.83429 0.0
C4101 C 0.64187 0.59486 0.84668 0.0
C4102 C 0.69402 0.50357 0.83852 0.0
C4103 C 0.62149 0.60214 0.82502 0.0
C4104 C 0.67348 0.54283 0.79482 0.0
C4105 C 0.65784 0.51238 0.79145 0.0
C4106 C 0.67457 0.5551 0.80727 0.0
C4107 C 0.65786 0.53814 0.81715 0.0
C4108 C 0.64118 0.50775 0.81364 0.0
C4109 C 0.64227 0.49514 0.80125 0.0
C4110 C 0.6945 0.58647 0.80959 0.0
C4111 C 0.6213 0.48789 0.82284 0.0
H4112 H 0.68506 0.53303 0.86038 0.0
H4113 H 0.62941 0.61825 0.8487 0.0
H4114 H 0.6788 0.48157 0.84122 0.0
H4115 H 0.70167 0.50076 0.82881 0.0
H4116 H 0.71685 0.50336 0.84431 0.0
H4117 H 0.63699 0.62345 0.82184 0.0
H4118 H 0.61386 0.587 0.81698 0.0
H4119 H 0.59868 0.61283 0.82928 0.0
H4120 H 0.68603 0.55696 0.78771 0.0
H4121 H 0.62978 0.47175 0.79919 0.0
H4122 H 0.7019 0.58931 0.81933 0.0
H4123 H 0.67941 0.60845 0.80683 0.0
H4124 H 0.71748 0.58668 0.80389 0.0
H4125 H 0.63664 0.46658 0.82608 0.0
H4126 H 0.59857 0.47719 0.8185 0.0
H4127 H 0.61351 0.50304 0.83085 0.0
C4128 C 0.79804 0.39059 1.04546 0.0
C4129 C 0.82605 0.40962 1.04154 0.0
C4130 C 0.7862 0.39009 1.05797 0.0
C4131 C 0.80153 0.40981 1.06738 0.0
C4132 C 0.82955 0.42945 1.06344 0.0
C4133 C 0.84146 0.42877 1.05093 0.0
C4134 C 0.75712 0.36775 1.06113 0.0
C4135 C 0.84708 0.4518 1.0725 0.0
C4136 C 0.74993 0.43002 0.09776 0.0
C4137 C 0.76371 0.40898 0.10693 0.0
C4138 C 0.76203 0.43096 0.08528 0.0
C4139 C 0.78853 0.4097 0.08113 0.0
C4140 C 0.80221 0.38811 0.09032 0.0
C4141 C 0.79027 0.38834 0.10282 0.0
C4142 C 0.74635 0.4553 0.07648 0.0
C4143 C 0.82957 0.36402 0.08691 0.0
H4144 H 0.7854 0.37529 1.03871 0.0
H4145 H 0.86293 0.44387 1.04846 0.0
H4146 H 0.76417 0.35065 1.06871 0.0
H4147 H 0.73584 0.38306 1.0644 0.0
H4148 H 0.74865 0.35256 1.0532 0.0
H4149 H 0.86693 0.46718 1.06815 0.0
H4150 H 0.82873 0.4687 0.07694 0.0
H4151 H 0.85855 0.43646 0.07984 0.0
H4152 H 0.72962 0.4464 0.10038 0.0
H4153 H 0.80161 0.37158 0.1094 0.0
H4154 H 0.73376 0.44148 1.06897 0.0
H4155 H 0.76599 0.47115 1.07223 0.0
H4156 H 0.72774 0.47174 0.081 0.0
H4157 H 0.82129 0.3481 0.07915 0.0
H4158 H 0.83683 0.34764 0.09468 0.0
H4159 H 0.85195 0.37803 0.08381 0.0
C4160 C 0.95592 0.54159 0.35281 0.0
C4161 C 0.93624 0.51407 0.35677 0.0
C4162 C 0.95624 0.55357 0.34032 0.0
C4163 C 0.93559 0.53902 0.33099 0.0
C4164 C 0.91524 0.51159 0.335 0.0
C4165 C 0.91622 0.49941 0.34746 0.0
C4166 C 0.97945 0.58189 0.33705 0.0
C4167 C 0.89178 0.49501 0.32607 0.0
C4168 C 0.91554 0.59161 0.30085 0.0
C4169 C 0.93521 0.5769 0.29147 0.0
C4170 C 0.91499 0.57955 0.31333 0.0
C4171 C 0.9354 0.55215 0.31727 0.0
C4172 C 0.9557 0.53757 0.30787 0.0
C4173 C 0.95498 0.54947 0.29537 0.0
C4174 C 0.89189 0.59619 0.32235 0.0
C4175 C 0.97895 0.50929 0.31106 0.0
H4176 H 0.97189 0.55361 0.35951 0.0
H4177 H 0.90059 0.47836 0.34997 0.0
H4178 H 0.99561 0.5745 0.32925 0.0
H4179 H 0.96474 0.6039 0.33408 0.0
H4180 H 0.99559 0.58941 0.34486 0.0
H4181 H 0.87572 0.47588 0.33053 0.0
H4182 H 0.87555 0.51407 0.3217 0.0
H4183 H 0.9063 0.4828 0.31868 0.0
H4184 H 0.89986 0.61263 0.29839 0.0
H4185 H 0.9707 0.53742 0.28861 0.0
H4186 H 0.90668 0.60819 0.32973 0.0
H4187 H 0.87554 0.57719 0.32672 0.0
H4188 H 0.87595 0.61551 0.31797 0.0
H4189 H 0.99537 0.51674 0.31879 0.0
H4190 H 0.99482 0.50176 0.30319 0.0
H4191 H 0.96428 0.48728 0.31411 0.0
C4192 C 0.75449 0.66172 0.55036 0.0
C4193 C 0.76828 0.6829 0.54123 0.0
C4194 C 0.76652 0.66073 0.56284 0.0
C4195 C 0.79289 0.68216 0.56703 0.0
C4196 C 0.80657 0.70393 0.55788 0.0
C4197 C 0.79476 0.70367 0.54537 0.0
C4198 C 0.75095 0.63612 0.57159 0.0
C4199 C 0.83375 0.72826 0.56136 0.0
C4200 C 0.80206 0.7004 0.60276 0.0
C4201 C 0.83027 0.68165 0.60659 0.0
C4202 C 0.79028 0.70116 0.59025 0.0
C4203 C 0.80585 0.68192 0.58077 0.0
C4204 C 0.83403 0.66252 0.58463 0.0
C4205 C 0.84592 0.66303 0.59714 0.0
C4206 C 0.76105 0.72327 0.58715 0.0
C4207 C 0.85175 0.64059 0.5755 0.0
H4208 H 0.73424 0.64523 0.5477 0.0
H4209 H 0.80608 0.72055 0.53881 0.0
H4210 H 0.77067 0.62051 0.57586 0.0
H4211 H 0.73809 0.64971 0.57907 0.0
H4212 H 0.73258 0.61945 0.567 0.0
H4213 H 0.84074 0.74499 0.55365 0.0
H4214 H 0.82544 0.74381 0.56921 0.0
H4215 H 0.8563 0.71443 0.56435 0.0
H4216 H 0.78928 0.7153 0.60959 0.0
H4217 H 0.86754 0.64816 0.59954 0.0
H4218 H 0.7398 0.70779 0.58392 0.0
H4219 H 0.7679 0.74046 0.57957 0.0
H4220 H 0.75263 0.73834 0.59511 0.0
H4221 H 0.83352 0.62366 0.57098 0.0
H4222 H 0.87164 0.62525 0.57982 0.0
H4223 H 0.86321 0.65624 0.56824 0.0
C4224 C 0.45561 0.54607 0.35195 0.0
C4225 C 0.43559 0.5733 0.35585 0.0
C4226 C 0.4562 0.53405 0.33947 0.0
C4227 C 0.43558 0.54838 0.33011 0.0
C4228 C 0.41493 0.57555 0.33406 0.0
C4229 C 0.41555 0.58769 0.34652 0.0
C4230 C 0.47961 0.50594 0.33626 0.0
C4231 C 0.39159 0.59194 0.32506 0.0
C4232 C 0.45629 0.53848 0.29465 0.0
C4233 C 0.4366 0.51111 0.29058 0.0
C4234 C 0.45653 0.5502 0.30715 0.0
C4235 C 0.43587 0.5354 0.3164 0.0
C4236 C 0.41557 0.50802 0.3123 0.0
C4237 C 0.41652 0.49618 0.2998 0.0
C4238 C 0.47959 0.57857 0.31051 0.0
C4239 C 0.39221 0.49116 0.32119 0.0
H4240 H 0.4716 0.53426 0.35868 0.0
H4241 H 0.39973 0.60856 0.34898 0.0
H4242 H 0.46511 0.48399 0.33303 0.0
H4243 H 0.49625 0.51371 0.32864 0.0
H4244 H 0.49527 0.49818 0.34416 0.0
H4245 H 0.37543 0.61103 0.32946 0.0
H4246 H 0.40621 0.60415 0.31768 0.0
H4247 H 0.37545 0.57277 0.32068 0.0
H4248 H 0.47229 0.5507 0.28801 0.0
H4249 H 0.40089 0.47521 0.2972 0.0
H4250 H 0.49598 0.57098 0.31823 0.0
H4251 H 0.46478 0.60034 0.31366 0.0
H4252 H 0.49551 0.58654 0.30271 0.0
H4253 H 0.40677 0.47933 0.32866 0.0
H4254 H 0.37658 0.4717 0.31672 0.0
H4255 H 0.37556 0.51 0.32547 0.0
C4256 C 0.29821 0.66191 1.04493 0.0
C4257 C 0.32763 0.67883 1.04121 0.0
C4258 C 0.2866 0.66111 1.05746 0.0
C4259 C 0.30315 0.6794 1.06706 0.0
C4260 C 0.33246 0.69735 1.06319 0.0
C4261 C 0.34452 0.69598 1.05074 0.0
C4262 C 0.25643 0.63979 1.06018 0.0
C4263 C 0.35168 0.7189 1.07207 0.0
C4264 C 0.24714 0.69466 0.09681 0.0
C4265 C 0.26561 0.68096 0.10667 0.0
C4266 C 0.25907 0.69523 0.08433 0.0
C4267 C 0.29007 0.67984 0.08082 0.0
C4268 C 0.30831 0.66498 0.09078 0.0
C4269 C 0.29662 0.66663 0.10329 0.0
C4270 C 0.23784 0.71317 0.07502 0.0
C4271 C 0.34049 0.6465 0.08849 0.0
H4272 H 0.2844 0.64816 1.03803 0.0
H4273 H 0.36711 0.70952 1.0484 0.0
H4274 H 0.25452 0.63288 1.07 0.0
H4275 H 0.23358 0.6536 1.05748 0.0
H4276 H 0.25705 0.61647 1.05467 0.0
H4277 H 0.36097 0.74184 1.06744 0.0
H4278 H 0.33653 0.72648 0.0801 0.0
H4279 H 0.3739 0.70493 0.07531 0.0
H4280 H 0.22329 0.70613 0.09888 0.0
H4281 H 0.3117 0.65556 0.11046 0.0
H4282 H 0.21717 0.69644 1.07212 0.0
H4283 H 0.2522 0.72097 1.06682 0.0
H4284 H 0.22625 0.73573 0.07915 0.0
H4285 H 0.34316 0.63825 0.07884 0.0
H4286 H 0.34216 0.62416 0.0945 0.0
H4287 H 0.36181 0.66302 0.09086 0.0
C4288 C 0.13547 0.55169 0.79465 0.0
C4289 C 0.15597 0.57855 0.79067 0.0
C4290 C 0.13531 0.53928 0.80707 0.0
C4291 C 0.15703 0.55265 0.8163 0.0
C4292 C 0.17822 0.57943 0.81227 0.0
C4293 C 0.17705 0.59213 0.79987 0.0
C4294 C 0.11115 0.5118 0.81038 0.0
C4295 C 0.20281 0.59469 0.8211 0.0
C4296 C 0.13881 0.54137 0.85194 0.0
C4297 C 0.15744 0.51286 0.85554 0.0
C4298 C 0.13812 0.55393 0.83953 0.0
C4299 C 0.15737 0.53894 0.82993 0.0
C4300 C 0.1767 0.51047 0.83358 0.0
C4301 C 0.17607 0.49776 0.84597 0.0
C4302 C 0.116 0.58334 0.83666 0.0
C4303 C 0.19869 0.49331 0.82432 0.0
H4304 H 0.11869 0.5405 0.78802 0.0
H4305 H 0.19336 0.61263 0.79733 0.0
H4306 H 0.12511 0.48905 0.81308 0.0
H4307 H 0.09582 0.51947 0.81836 0.0
H4308 H 0.09421 0.50532 0.80267 0.0
H4309 H 0.21949 0.61321 0.8166 0.0
H4310 H 0.18921 0.60733 0.82863 0.0
H4311 H 0.21839 0.57482 0.8253 0.0
H4312 H 0.12391 0.55377 0.85886 0.0
H4313 H 0.19087 0.47594 0.84821 0.0
H4314 H 0.09893 0.57699 0.82899 0.0
H4315 H 0.13147 0.60485 0.83366 0.0
H4316 H 0.10081 0.59118 0.84467 0.0
H4317 H 0.18307 0.48199 0.81702 0.0
H4318 H 0.21423 0.47337 0.82851 0.0
H4319 H 0.21541 0.51186 0.81987 0.0
C4320 C 0.24424 0.39317 0.54999 0.0
C4321 C 0.26276 0.40707 0.54017 0.0
C4322 C 0.25604 0.39266 0.5625 0.0
C4323 C 0.28693 0.4083 0.56608 0.0
C4324 C 0.30518 0.42338 0.55616 0.0
C4325 C 0.29365 0.42166 0.54363 0.0
C4326 C 0.2348 0.37448 0.57176 0.0
C4327 C 0.33723 0.44214 0.55852 0.0
C4328 C 0.29486 0.42605 0.602 0.0
C4329 C 0.32443 0.40946 0.60572 0.0
C4330 C 0.28325 0.42678 0.58947 0.0
C4331 C 0.29993 0.40873 0.57986 0.0
C4332 C 0.32936 0.39107 0.58373 0.0
C4333 C 0.34142 0.39252 0.59619 0.0
C4334 C 0.25292 0.44779 0.58675 0.0
C4335 C 0.34873 0.36974 0.57485 0.0
H4336 H 0.22051 0.38144 0.54786 0.0
H4337 H 0.3088 0.43284 0.5365 0.0
H4338 H 0.24911 0.36679 0.57998 0.0
H4339 H 0.214 0.39099 0.57463 0.0
H4340 H 0.22341 0.35182 0.5676 0.0
H4341 H 0.33885 0.46451 0.55252 0.0
H4342 H 0.33975 0.45038 0.56817 0.0
H4343 H 0.35867 0.42583 0.55617 0.0
H4344 H 0.28096 0.43963 0.60891 0.0
H4345 H 0.36412 0.37923 0.59852 0.0
H4346 H 0.23017 0.43368 0.58942 0.0
H4347 H 0.25101 0.45477 0.57695 0.0
H4348 H 0.25333 0.47106 0.5923 0.0
H4349 H 0.35804 0.34682 0.57946 0.0
H4350 H 0.37095 0.38388 0.57166 0.0
H4351 H 0.33368 0.36212 0.56679 0.0
loop_
_geom_bond_atom_site_label_1
_geom_bond_atom_site_label_2
_geom_bond_distance
_geom_bond_site_symmetry_2
_ccdc_geom_bond_type
Nd0 C2 2.836 . S
Nd0 O20 2.500 . S
Nd0 O21 2.492 . S
Nd0 O22 2.487 . S
Nd0 O23 2.682 . S
Nd0 O24 2.410 . S
Nd0 O29 2.414 . S
Nd0 O31 2.424 . S
Nd1 C11 2.836 . S
Nd1 O23 2.414 . S
Nd1 O25 2.424 . S
Nd1 O26 2.500 . S
Nd1 O27 2.492 . S
Nd1 O28 2.487 . S
Nd1 O29 2.682 . S
Nd1 O30 2.410 . S
C2 Nd0 2.836 . S
C2 C3 1.498 . S
C2 O20 1.258 . S
C2 O21 1.239 . S
C3 C2 1.498 . S
C3 C4 1.366 . S
C3 C8 1.407 . S
C4 C3 1.366 . S
C4 C5 1.392 1_455 S
C4 H32 0.930 . S
C5 C4 1.392 1_655 S
C5 C6 1.398 . S
C5 H33 0.929 . S
C6 C5 1.398 . S
C6 C7 1.352 1_655 S
C7 C6 1.352 1_455 S
C7 C8 1.384 . S
C7 H34 0.930 . S
C8 C3 1.407 . S
C8 C7 1.384 . S
C8 H35 0.929 . S
C9 O22 1.241 . S
C9 O23 1.273 . S
C10 O24 1.251 . S
C10 O25 1.268 . S
C11 Nd1 2.836 . S
C11 C12 1.498 . S
C11 O26 1.258 . S
C11 O27 1.239 . S
C12 C11 1.498 . S
C12 C13 1.366 . S
C12 C17 1.407 . S
C13 C12 1.366 . S
C13 C14 1.392 . S
C13 H36 0.930 . S
C14 C13 1.392 . S
C14 C15 1.398 . S
C14 H37 0.929 . S
C15 C14 1.398 . S
C15 C16 1.352 . S
C16 C15 1.352 . S
C16 C17 1.384 . S
C16 H38 0.930 . S
C17 C12 1.407 . S
C17 C16 1.384 . S
C17 H39 0.929 . S
C18 O28 1.241 . S
C18 O29 1.273 . S
C19 O30 1.251 . S
C19 O31 1.268 . S
O20 Nd0 2.500 . S
O20 C2 1.258 . S
O21 Nd0 2.492 . S
O21 C2 1.239 . S
O22 Nd0 2.487 . S
O22 C9 1.241 . S
O23 Nd0 2.682 . S
O23 Nd1 2.414 . S
O23 C9 1.273 . S
O24 Nd0 2.410 . S
O24 C10 1.251 . S
O25 Nd1 2.424 . S
O25 C10 1.268 . S
O26 Nd1 2.500 . S
O26 C11 1.258 . S
O27 Nd1 2.492 . S
O27 C11 1.239 . S
O28 Nd1 2.487 . S
O28 C18 1.241 . S
O29 Nd0 2.414 . S
O29 Nd1 2.682 . S
O29 C18 1.273 . S
O30 Nd1 2.410 . S
O30 C19 1.251 . S
O31 Nd0 2.424 . S
O31 C19 1.268 . S
H32 C4 0.930 . S
H33 C5 0.929 . S
H34 C7 0.930 . S
H35 C8 0.929 . S
H36 C13 0.930 . S
H37 C14 0.929 . S
H38 C16 0.930 . S
H39 C17 0.929 . S
Nd40 C42 2.836 . S
Nd40 O60 2.500 . S
Nd40 O61 2.492 . S
Nd40 O62 2.487 . S
Nd40 O63 2.682 . S
Nd40 O64 2.410 . S
Nd40 O69 2.414 . S
Nd40 O71 2.424 . S
Nd41 C51 2.836 . S
Nd41 O63 2.414 . S
Nd41 O65 2.424 . S
Nd41 O66 2.500 . S
Nd41 O67 2.492 . S
Nd41 O68 2.487 . S
Nd41 O69 2.682 . S
Nd41 O70 2.410 . S
C42 Nd40 2.836 . S
C42 C43 1.498 . S
C42 O60 1.258 . S
C42 O61 1.239 . S
C43 C42 1.498 . S
C43 C44 1.366 . S
C43 C48 1.407 . S
C44 C43 1.366 . S
C44 C45 1.392 . S
C44 H72 0.930 . S
C45 C44 1.392 . S
C45 C46 1.398 . S
C45 H73 0.929 . S
C46 C45 1.398 . S
C46 C47 1.352 . S
C47 C46 1.352 . S
C47 C48 1.384 . S
C47 H74 0.930 . S
C48 C43 1.407 . S
C48 C47 1.384 . S
C48 H75 0.929 . S
C49 O62 1.241 . S
C49 O63 1.273 . S
C50 O64 1.251 . S
C50 O65 1.268 . S
C51 Nd41 2.836 . S
C51 C52 1.498 . S
C51 O66 1.258 . S
C51 O67 1.239 . S
C52 C51 1.498 . S
C52 C53 1.366 . S
C52 C57 1.407 . S
C53 C52 1.366 . S
C53 C54 1.392 . S
C53 H76 0.930 . S
C54 C53 1.392 . S
C54 C55 1.398 . S
C54 H77 0.929 . S
C55 C54 1.398 . S
C55 C56 1.352 . S
C56 C55 1.352 . S
C56 C57 1.384 . S
C56 H78 0.930 . S
C57 C52 1.407 . S
C57 C56 1.384 . S
C57 H79 0.929 . S
C58 O68 1.241 . S
C58 O69 1.273 . S
C59 O70 1.251 . S
C59 O71 1.268 . S
O60 Nd40 2.500 . S
O60 C42 1.258 . S
O61 Nd40 2.492 . S
O61 C42 1.239 . S
O62 Nd40 2.487 . S
O62 C49 1.241 . S
O63 Nd40 2.682 . S
O63 Nd41 2.414 . S
O63 C49 1.273 . S
O64 Nd40 2.410 . S
O64 C50 1.251 . S
O65 Nd41 2.424 . S
O65 C50 1.268 . S
O66 Nd41 2.500 . S
O66 C51 1.258 . S
O67 Nd41 2.492 . S
O67 C51 1.239 . S
O68 Nd41 2.487 . S
O68 C58 1.241 . S
O69 Nd40 2.414 . S
O69 Nd41 2.682 . S
O69 C58 1.273 . S
O70 Nd41 2.410 . S
O70 C59 1.251 . S
O71 Nd40 2.424 . S
O71 C59 1.268 . S
H72 C44 0.930 . S
H73 C45 0.929 . S
H74 C47 0.930 . S
H75 C48 0.929 . S
H76 C53 0.930 . S
H77 C54 0.929 . S
H78 C56 0.930 . S
H79 C57 0.929 . S
Nd80 C82 2.836 . S
Nd80 O100 2.500 . S
Nd80 O101 2.492 . S
Nd80 O102 2.487 . S
Nd80 O103 2.682 . S
Nd80 O104 2.410 . S
Nd80 O109 2.414 . S
Nd80 O111 2.424 . S
Nd81 C91 2.836 . S
Nd81 O103 2.414 . S
Nd81 O105 2.424 . S
Nd81 O106 2.500 . S
Nd81 O107 2.492 . S
Nd81 O108 2.487 . S
Nd81 O109 2.682 . S
Nd81 O110 2.410 . S
C82 Nd80 2.836 . S
C82 C83 1.498 . S
C82 O100 1.258 . S
C82 O101 1.239 . S
C83 C82 1.498 . S
C83 C84 1.366 . S
C83 C88 1.407 . S
C84 C83 1.366 . S
C84 C85 1.392 . S
C84 H112 0.930 . S
C85 C84 1.392 . S
C85 C86 1.398 . S
C85 H113 0.929 . S
C86 C85 1.398 . S
C86 C87 1.352 . S
C87 C86 1.352 . S
C87 C88 1.384 . S
C87 H114 0.930 . S
C88 C83 1.407 . S
C88 C87 1.384 . S
C88 H115 0.929 . S
C89 O102 1.241 . S
C89 O103 1.273 . S
C90 O104 1.251 . S
C90 O105 1.268 . S
C91 Nd81 2.836 . S
C91 C92 1.498 . S
C91 O106 1.258 . S
C91 O107 1.239 . S
C92 C91 1.498 . S
C92 C93 1.366 . S
C92 C97 1.407 . S
C93 C92 1.366 . S
C93 C94 1.392 . S
C93 H116 0.930 . S
C94 C93 1.392 . S
C94 C95 1.398 . S
C94 H117 0.929 . S
C95 C94 1.398 . S
C95 C96 1.352 . S
C96 C95 1.352 . S
C96 C97 1.384 . S
C96 H118 0.930 . S
C97 C92 1.407 . S
C97 C96 1.384 . S
C97 H119 0.929 . S
C98 O108 1.241 . S
C98 O109 1.273 . S
C99 O110 1.251 . S
C99 O111 1.268 . S
O100 Nd80 2.500 . S
O100 C82 1.258 . S
O101 Nd80 2.492 . S
O101 C82 1.239 . S
O102 Nd80 2.487 . S
O102 C89 1.241 . S
O103 Nd80 2.682 . S
O103 Nd81 2.414 . S
O103 C89 1.273 . S
O104 Nd80 2.410 . S
O104 C90 1.251 . S
O105 Nd81 2.424 . S
O105 C90 1.268 . S
O106 Nd81 2.500 . S
O106 C91 1.258 . S
O107 Nd81 2.492 . S
O107 C91 1.239 . S
O108 Nd81 2.487 . S
O108 C98 1.241 . S
O109 Nd80 2.414 . S
O109 Nd81 2.682 . S
O109 C98 1.273 . S
O110 Nd81 2.410 . S
O110 C99 1.251 . S
O111 Nd80 2.424 . S
O111 C99 1.268 . S
H112 C84 0.930 . S
H113 C85 0.929 . S
H114 C87 0.930 . S
H115 C88 0.929 . S
H116 C93 0.930 . S
H117 C94 0.929 . S
H118 C96 0.930 . S
H119 C97 0.929 . S
Nd120 C122 2.836 . S
Nd120 O140 2.500 . S
Nd120 O141 2.492 . S
Nd120 O142 2.487 . S
Nd120 O143 2.682 . S
Nd120 O144 2.410 . S
Nd120 O149 2.414 . S
Nd120 O151 2.424 . S
Nd121 C131 2.836 . S
Nd121 O143 2.414 . S
Nd121 O145 2.424 . S
Nd121 O146 2.500 . S
Nd121 O147 2.492 . S
Nd121 O148 2.487 . S
Nd121 O149 2.682 . S
Nd121 O150 2.410 . S
C122 Nd120 2.836 . S
C122 C123 1.498 . S
C122 O140 1.258 . S
C122 O141 1.239 . S
C123 C122 1.498 . S
C123 C124 1.366 . S
C123 C128 1.407 . S
C124 C123 1.366 . S
C124 C125 1.392 . S
C124 H152 0.930 . S
C125 C124 1.392 . S
C125 C126 1.398 . S
C125 H153 0.929 . S
C126 C125 1.398 . S
C126 C127 1.352 . S
C127 C126 1.352 . S
C127 C128 1.384 . S
C127 H154 0.930 . S
C128 C123 1.407 . S
C128 C127 1.384 . S
C128 H155 0.929 . S
C129 O142 1.241 . S
C129 O143 1.273 . S
C130 O144 1.251 . S
C130 O145 1.268 . S
C131 Nd121 2.836 . S
C131 C132 1.498 . S
C131 O146 1.258 . S
C131 O147 1.239 . S
C132 C131 1.498 . S
C132 C133 1.366 . S
C132 C137 1.407 . S
C133 C132 1.366 . S
C133 C134 1.392 . S
C133 H156 0.930 . S
C134 C133 1.392 . S
C134 C135 1.398 . S
C134 H157 0.929 . S
C135 C134 1.398 . S
C135 C136 1.352 . S
C136 C135 1.352 . S
C136 C137 1.384 . S
C136 H158 0.930 . S
C137 C132 1.407 . S
C137 C136 1.384 . S
C137 H159 0.929 . S
C138 O148 1.241 . S
C138 O149 1.273 . S
C139 O150 1.251 . S
C139 O151 1.268 . S
O140 Nd120 2.500 . S
O140 C122 1.258 . S
O141 Nd120 2.492 . S
O141 C122 1.239 . S
O142 Nd120 2.487 . S
O142 C129 1.241 . S
O143 Nd120 2.682 . S
O143 Nd121 2.414 . S
O143 C129 1.273 . S
O144 Nd120 2.410 . S
O144 C130 1.251 . S
O145 Nd121 2.424 . S
O145 C130 1.268 . S
O146 Nd121 2.500 . S
O146 C131 1.258 . S
O147 Nd121 2.492 . S
O147 C131 1.239 . S
O148 Nd121 2.487 . S
O148 C138 1.241 . S
O149 Nd120 2.414 . S
O149 Nd121 2.682 . S
O149 C138 1.273 . S
O150 Nd121 2.410 . S
O150 C139 1.251 . S
O151 Nd120 2.424 . S
O151 C139 1.268 . S
H152 C124 0.930 . S
H153 C125 0.929 . S
H154 C127 0.930 . S
H155 C128 0.929 . S
H156 C133 0.930 . S
H157 C134 0.929 . S
H158 C136 0.930 . S
H159 C137 0.929 . S
Nd160 C162 2.836 . S
Nd160 O180 2.500 . S
Nd160 O181 2.492 . S
Nd160 O182 2.487 . S
Nd160 O183 2.682 . S
Nd160 O184 2.410 . S
Nd160 O189 2.414 . S
Nd160 O191 2.424 . S
Nd161 C171 2.836 . S
Nd161 O183 2.414 . S
Nd161 O185 2.424 . S
Nd161 O186 2.500 . S
Nd161 O187 2.492 . S
Nd161 O188 2.487 . S
Nd161 O189 2.682 . S
Nd161 O190 2.410 . S
C162 Nd160 2.836 . S
C162 C163 1.498 . S
C162 O180 1.258 . S
C162 O181 1.239 . S
C163 C162 1.498 . S
C163 C164 1.366 . S
C163 C168 1.407 . S
C164 C163 1.366 . S
C164 C165 1.392 1_455 S
C164 H192 0.930 . S
C165 C164 1.392 1_655 S
C165 C166 1.398 . S
C165 H193 0.929 . S
C166 C165 1.398 . S
C166 C167 1.352 1_655 S
C167 C166 1.352 1_455 S
C167 C168 1.384 . S
C167 H194 0.930 . S
C168 C163 1.407 . S
C168 C167 1.384 . S
C168 H195 0.929 . S
C169 O182 1.241 . S
C169 O183 1.273 . S
C170 O184 1.251 . S
C170 O185 1.268 . S
C171 Nd161 2.836 . S
C171 C172 1.498 . S
C171 O186 1.258 . S
C171 O187 1.239 . S
C172 C171 1.498 . S
C172 C173 1.366 . S
C172 C177 1.407 . S
C173 C172 1.366 . S
C173 C174 1.392 . S
C173 H196 0.930 . S
C174 C173 1.392 . S
C174 C175 1.398 . S
C174 H197 0.929 . S
C175 C174 1.398 . S
C175 C176 1.352 . S
C176 C175 1.352 . S
C176 C177 1.384 . S
C176 H198 0.930 . S
C177 C172 1.407 . S
C177 C176 1.384 . S
C177 H199 0.929 . S
C178 O188 1.241 . S
C178 O189 1.273 . S
C179 O190 1.251 . S
C179 O191 1.268 . S
O180 Nd160 2.500 . S
O180 C162 1.258 . S
O181 Nd160 2.492 . S
O181 C162 1.239 . S
O182 Nd160 2.487 . S
O182 C169 1.241 . S
O183 Nd160 2.682 . S
O183 Nd161 2.414 . S
O183 C169 1.273 . S
O184 Nd160 2.410 . S
O184 C170 1.251 . S
O185 Nd161 2.424 . S
O185 C170 1.268 . S
O186 Nd161 2.500 . S
O186 C171 1.258 . S
O187 Nd161 2.492 . S
O187 C171 1.239 . S
O188 Nd161 2.487 . S
O188 C178 1.241 . S
O189 Nd160 2.414 . S
O189 Nd161 2.682 . S
O189 C178 1.273 . S
O190 Nd161 2.410 . S
O190 C179 1.251 . S
O191 Nd160 2.424 . S
O191 C179 1.268 . S
H192 C164 0.930 . S
H193 C165 0.929 . S
H194 C167 0.930 . S
H195 C168 0.929 . S
H196 C173 0.930 . S
H197 C174 0.929 . S
H198 C176 0.930 . S
H199 C177 0.929 . S
Nd200 C202 2.836 . S
Nd200 O220 2.500 . S
Nd200 O221 2.492 . S
Nd200 O222 2.487 . S
Nd200 O223 2.682 . S
Nd200 O224 2.410 . S
Nd200 O229 2.414 . S
Nd200 O231 2.424 . S
Nd201 C211 2.836 . S
Nd201 O223 2.414 . S
Nd201 O225 2.424 . S
Nd201 O226 2.500 . S
Nd201 O227 2.492 . S
Nd201 O228 2.487 . S
Nd201 O229 2.682 . S
Nd201 O230 2.410 . S
C202 Nd200 2.836 . S
C202 C203 1.498 . S
C202 O220 1.258 . S
C202 O221 1.239 . S
C203 C202 1.498 . S
C203 C204 1.366 . S
C203 C208 1.407 . S
C204 C203 1.366 . S
C204 C205 1.392 . S
C204 H232 0.930 . S
C205 C204 1.392 . S
C205 C206 1.398 . S
C205 H233 0.929 . S
C206 C205 1.398 . S
C206 C207 1.352 . S
C207 C206 1.352 . S
C207 C208 1.384 . S
C207 H234 0.930 . S
C208 C203 1.407 . S
C208 C207 1.384 . S
C208 H235 0.929 . S
C209 O222 1.241 . S
C209 O223 1.273 . S
C210 O224 1.251 . S
C210 O225 1.268 . S
C211 Nd201 2.836 . S
C211 C212 1.498 . S
C211 O226 1.258 . S
C211 O227 1.239 . S
C212 C211 1.498 . S
C212 C213 1.366 . S
C212 C217 1.407 . S
C213 C212 1.366 . S
C213 C214 1.392 . S
C213 H236 0.930 . S
C214 C213 1.392 . S
C214 C215 1.398 . S
C214 H237 0.929 . S
C215 C214 1.398 . S
C215 C216 1.352 . S
C216 C215 1.352 . S
C216 C217 1.384 . S
C216 H238 0.930 . S
C217 C212 1.407 . S
C217 C216 1.384 . S
C217 H239 0.929 . S
C218 O228 1.241 . S
C218 O229 1.273 . S
C219 O230 1.251 . S
C219 O231 1.268 . S
O220 Nd200 2.500 . S
O220 C202 1.258 . S
O221 Nd200 2.492 . S
O221 C202 1.239 . S
O222 Nd200 2.487 . S
O222 C209 1.241 . S
O223 Nd200 2.682 . S
O223 Nd201 2.414 . S
O223 C209 1.273 . S
O224 Nd200 2.410 . S
O224 C210 1.251 . S
O225 Nd201 2.424 . S
O225 C210 1.268 . S
O226 Nd201 2.500 . S
O226 C211 1.258 . S
O227 Nd201 2.492 . S
O227 C211 1.239 . S
O228 Nd201 2.487 . S
O228 C218 1.241 . S
O229 Nd200 2.414 . S
O229 Nd201 2.682 . S
O229 C218 1.273 . S
O230 Nd201 2.410 . S
O230 C219 1.251 . S
O231 Nd200 2.424 . S
O231 C219 1.268 . S
H232 C204 0.930 . S
H233 C205 0.929 . S
H234 C207 0.930 . S
H235 C208 0.929 . S
H236 C213 0.930 . S
H237 C214 0.929 . S
H238 C216 0.930 . S
H239 C217 0.929 . S
Nd240 C242 2.836 . S
Nd240 O260 2.500 . S
Nd240 O261 2.492 . S
Nd240 O262 2.487 . S
Nd240 O263 2.682 . S
Nd240 O264 2.410 . S
Nd240 O269 2.414 . S
Nd240 O271 2.424 . S
Nd241 C251 2.836 . S
Nd241 O263 2.414 . S
Nd241 O265 2.424 . S
Nd241 O266 2.500 . S
Nd241 O267 2.492 . S
Nd241 O268 2.487 . S
Nd241 O269 2.682 . S
Nd241 O270 2.410 . S
C242 Nd240 2.836 . S
C242 C243 1.498 . S
C242 O260 1.258 . S
C242 O261 1.239 . S
C243 C242 1.498 . S
C243 C244 1.366 . S
C243 C248 1.407 . S
C244 C243 1.366 . S
C244 C245 1.392 . S
C244 H272 0.930 . S
C245 C244 1.392 . S
C245 C246 1.398 . S
C245 H273 0.929 . S
C246 C245 1.398 . S
C246 C247 1.352 . S
C247 C246 1.352 . S
C247 C248 1.384 . S
C247 H274 0.930 . S
C248 C243 1.407 . S
C248 C247 1.384 . S
C248 H275 0.929 . S
C249 O262 1.241 . S
C249 O263 1.273 . S
C250 O264 1.251 . S
C250 O265 1.268 . S
C251 Nd241 2.836 . S
C251 C252 1.498 . S
C251 O266 1.258 . S
C251 O267 1.239 . S
C252 C251 1.498 . S
C252 C253 1.366 . S
C252 C257 1.407 . S
C253 C252 1.366 . S
C253 C254 1.392 . S
C253 H276 0.930 . S
C254 C253 1.392 . S
C254 C255 1.398 . S
C254 H277 0.929 . S
C255 C254 1.398 . S
C255 C256 1.352 . S
C256 C255 1.352 . S
C256 C257 1.384 . S
C256 H278 0.930 . S
C257 C252 1.407 . S
C257 C256 1.384 . S
C257 H279 0.929 . S
C258 O268 1.241 . S
C258 O269 1.273 . S
C259 O270 1.251 . S
C259 O271 1.268 . S
O260 Nd240 2.500 . S
O260 C242 1.258 . S
O261 Nd240 2.492 . S
O261 C242 1.239 . S
O262 Nd240 2.487 . S
O262 C249 1.241 . S
O263 Nd240 2.682 . S
O263 Nd241 2.414 . S
O263 C249 1.273 . S
O264 Nd240 2.410 . S
O264 C250 1.251 . S
O265 Nd241 2.424 . S
O265 C250 1.268 . S
O266 Nd241 2.500 . S
O266 C251 1.258 . S
O267 Nd241 2.492 . S
O267 C251 1.239 . S
O268 Nd241 2.487 . S
O268 C258 1.241 . S
O269 Nd240 2.414 . S
O269 Nd241 2.682 . S
O269 C258 1.273 . S
O270 Nd241 2.410 . S
O270 C259 1.251 . S
O271 Nd240 2.424 . S
O271 C259 1.268 . S
H272 C244 0.930 . S
H273 C245 0.929 . S
H274 C247 0.930 . S
H275 C248 0.929 . S
H276 C253 0.930 . S
H277 C254 0.929 . S
H278 C256 0.930 . S
H279 C257 0.929 . S
Nd280 C282 2.836 . S
Nd280 O300 2.500 . S
Nd280 O301 2.492 . S
Nd280 O302 2.487 . S
Nd280 O303 2.682 . S
Nd280 O304 2.410 . S
Nd280 O309 2.414 . S
Nd280 O311 2.424 . S
Nd281 C291 2.836 . S
Nd281 O303 2.414 . S
Nd281 O305 2.424 . S
Nd281 O306 2.500 . S
Nd281 O307 2.492 . S
Nd281 O308 2.487 . S
Nd281 O309 2.682 . S
Nd281 O310 2.410 . S
C282 Nd280 2.836 . S
C282 C283 1.498 . S
C282 O300 1.258 . S
C282 O301 1.239 . S
C283 C282 1.498 . S
C283 C284 1.366 . S
C283 C288 1.407 . S
C284 C283 1.366 . S
C284 C285 1.392 . S
C284 H312 0.930 . S
C285 C284 1.392 . S
C285 C286 1.398 . S
C285 H313 0.929 . S
C286 C285 1.398 . S
C286 C287 1.352 . S
C287 C286 1.352 . S
C287 C288 1.384 . S
C287 H314 0.930 . S
C288 C283 1.407 . S
C288 C287 1.384 . S
C288 H315 0.929 . S
C289 O302 1.241 . S
C289 O303 1.273 . S
C290 O304 1.251 . S
C290 O305 1.268 . S
C291 Nd281 2.836 . S
C291 C292 1.498 . S
C291 O306 1.258 . S
C291 O307 1.239 . S
C292 C291 1.498 . S
C292 C293 1.366 . S
C292 C297 1.407 . S
C293 C292 1.366 . S
C293 C294 1.392 . S
C293 H316 0.930 . S
C294 C293 1.392 . S
C294 C295 1.398 . S
C294 H317 0.929 . S
C295 C294 1.398 . S
C295 C296 1.352 . S
C296 C295 1.352 . S
C296 C297 1.384 . S
C296 H318 0.930 . S
C297 C292 1.407 . S
C297 C296 1.384 . S
C297 H319 0.929 . S
C298 O308 1.241 . S
C298 O309 1.273 . S
C299 O310 1.251 . S
C299 O311 1.268 . S
O300 Nd280 2.500 . S
O300 C282 1.258 . S
O301 Nd280 2.492 . S
O301 C282 1.239 . S
O302 Nd280 2.487 . S
O302 C289 1.241 . S
O303 Nd280 2.682 . S
O303 Nd281 2.414 . S
O303 C289 1.273 . S
O304 Nd280 2.410 . S
O304 C290 1.251 . S
O305 Nd281 2.424 . S
O305 C290 1.268 . S
O306 Nd281 2.500 . S
O306 C291 1.258 . S
O307 Nd281 2.492 . S
O307 C291 1.239 . S
O308 Nd281 2.487 . S
O308 C298 1.241 . S
O309 Nd280 2.414 . S
O309 Nd281 2.682 . S
O309 C298 1.273 . S
O310 Nd281 2.410 . S
O310 C299 1.251 . S
O311 Nd280 2.424 . S
O311 C299 1.268 . S
H312 C284 0.930 . S
H313 C285 0.929 . S
H314 C287 0.930 . S
H315 C288 0.929 . S
H316 C293 0.930 . S
H317 C294 0.929 . S
H318 C296 0.930 . S
H319 C297 0.929 . S
Nd320 C322 2.836 . S
Nd320 O340 2.500 . S
Nd320 O341 2.492 . S
Nd320 O342 2.487 . S
Nd320 O343 2.682 . S
Nd320 O344 2.410 . S
Nd320 O349 2.414 . S
Nd320 O351 2.424 . S
Nd321 C331 2.836 . S
Nd321 O343 2.414 . S
Nd321 O345 2.424 . S
Nd321 O346 2.500 . S
Nd321 O347 2.492 . S
Nd321 O348 2.487 . S
Nd321 O349 2.682 . S
Nd321 O350 2.410 . S
C322 Nd320 2.836 . S
C322 C323 1.498 . S
C322 O340 1.258 . S
C322 O341 1.239 . S
C323 C322 1.498 . S
C323 C324 1.366 . S
C323 C328 1.407 . S
C324 C323 1.366 . S
C324 C325 1.392 . S
C324 H352 0.930 . S
C325 C324 1.392 . S
C325 C326 1.398 . S
C325 H353 0.929 . S
C326 C325 1.398 . S
C326 C327 1.352 . S
C327 C326 1.352 . S
C327 C328 1.384 . S
C327 H354 0.930 . S
C328 C323 1.407 . S
C328 C327 1.384 . S
C328 H355 0.929 . S
C329 O342 1.241 . S
C329 O343 1.273 . S
C330 O344 1.251 . S
C330 O345 1.268 . S
C331 Nd321 2.836 . S
C331 C332 1.498 . S
C331 O346 1.258 . S
C331 O347 1.239 . S
C332 C331 1.498 . S
C332 C333 1.366 . S
C332 C337 1.407 . S
C333 C332 1.366 . S
C333 C334 1.392 1_655 S
C333 H356 0.930 . S
C334 C333 1.392 1_455 S
C334 C335 1.398 . S
C334 H357 0.929 . S
C335 C334 1.398 . S
C335 C336 1.352 1_455 S
C336 C335 1.352 1_655 S
C336 C337 1.384 . S
C336 H358 0.930 . S
C337 C332 1.407 . S
C337 C336 1.384 . S
C337 H359 0.929 . S
C338 O348 1.241 . S
C338 O349 1.273 . S
C339 O350 1.251 . S
C339 O351 1.268 . S
O340 Nd320 2.500 . S
O340 C322 1.258 . S
O341 Nd320 2.492 . S
O341 C322 1.239 . S
O342 Nd320 2.487 . S
O342 C329 1.241 . S
O343 Nd320 2.682 . S
O343 Nd321 2.414 . S
O343 C329 1.273 . S
O344 Nd320 2.410 . S
O344 C330 1.251 . S
O345 Nd321 2.424 . S
O345 C330 1.268 . S
O346 Nd321 2.500 . S
O346 C331 1.258 . S
O347 Nd321 2.492 . S
O347 C331 1.239 . S
O348 Nd321 2.487 . S
O348 C338 1.241 . S
O349 Nd320 2.414 . S
O349 Nd321 2.682 . S
O349 C338 1.273 . S
O350 Nd321 2.410 . S
O350 C339 1.251 . S
O351 Nd320 2.424 . S
O351 C339 1.268 . S
H352 C324 0.930 . S
H353 C325 0.929 . S
H354 C327 0.930 . S
H355 C328 0.929 . S
H356 C333 0.930 . S
H357 C334 0.929 . S
H358 C336 0.930 . S
H359 C337 0.929 . S
Nd360 C362 2.836 . S
Nd360 O380 2.500 . S
Nd360 O381 2.492 . S
Nd360 O382 2.487 . S
Nd360 O383 2.682 . S
Nd360 O384 2.410 . S
Nd360 O389 2.414 . S
Nd360 O391 2.424 . S
Nd361 C371 2.836 . S
Nd361 O383 2.414 . S
Nd361 O385 2.424 . S
Nd361 O386 2.500 . S
Nd361 O387 2.492 . S
Nd361 O388 2.487 . S
Nd361 O389 2.682 . S
Nd361 O390 2.410 . S
C362 Nd360 2.836 . S
C362 C363 1.498 . S
C362 O380 1.258 . S
C362 O381 1.239 . S
C363 C362 1.498 . S
C363 C364 1.366 . S
C363 C368 1.407 . S
C364 C363 1.366 . S
C364 C365 1.392 . S
C364 H392 0.930 . S
C365 C364 1.392 . S
C365 C366 1.398 . S
C365 H393 0.929 . S
C366 C365 1.398 . S
C366 C367 1.352 . S
C367 C366 1.352 . S
C367 C368 1.384 . S
C367 H394 0.930 . S
C368 C363 1.407 . S
C368 C367 1.384 . S
C368 H395 0.929 . S
C369 O382 1.241 . S
C369 O383 1.273 . S
C370 O384 1.251 . S
C370 O385 1.268 . S
C371 Nd361 2.836 . S
C371 C372 1.498 . S
C371 O386 1.258 . S
C371 O387 1.239 . S
C372 C371 1.498 . S
C372 C373 1.366 . S
C372 C377 1.407 . S
C373 C372 1.366 . S
C373 C374 1.392 . S
C373 H396 0.930 . S
C374 C373 1.392 . S
C374 C375 1.398 . S
C374 H397 0.929 . S
C375 C374 1.398 . S
C375 C376 1.352 . S
C376 C375 1.352 . S
C376 C377 1.384 . S
C376 H398 0.930 . S
C377 C372 1.407 . S
C377 C376 1.384 . S
C377 H399 0.929 . S
C378 O388 1.241 . S
C378 O389 1.273 . S
C379 O390 1.251 . S
C379 O391 1.268 . S
O380 Nd360 2.500 . S
O380 C362 1.258 . S
O381 Nd360 2.492 . S
O381 C362 1.239 . S
O382 Nd360 2.487 . S
O382 C369 1.241 . S
O383 Nd360 2.682 . S
O383 Nd361 2.414 . S
O383 C369 1.273 . S
O384 Nd360 2.410 . S
O384 C370 1.251 . S
O385 Nd361 2.424 . S
O385 C370 1.268 . S
O386 Nd361 2.500 . S
O386 C371 1.258 . S
O387 Nd361 2.492 . S
O387 C371 1.239 . S
O388 Nd361 2.487 . S
O388 C378 1.241 . S
O389 Nd360 2.414 . S
O389 Nd361 2.682 . S
O389 C378 1.273 . S
O390 Nd361 2.410 . S
O390 C379 1.251 . S
O391 Nd360 2.424 . S
O391 C379 1.268 . S
H392 C364 0.930 . S
H393 C365 0.929 . S
H394 C367 0.930 . S
H395 C368 0.929 . S
H396 C373 0.930 . S
H397 C374 0.929 . S
H398 C376 0.930 . S
H399 C377 0.929 . S
Nd400 C402 2.836 . S
Nd400 O420 2.500 . S
Nd400 O421 2.492 . S
Nd400 O422 2.487 . S
Nd400 O423 2.682 . S
Nd400 O424 2.410 . S
Nd400 O429 2.414 . S
Nd400 O431 2.424 . S
Nd401 C411 2.836 . S
Nd401 O423 2.414 . S
Nd401 O425 2.424 . S
Nd401 O426 2.500 . S
Nd401 O427 2.492 . S
Nd401 O428 2.487 . S
Nd401 O429 2.682 . S
Nd401 O430 2.410 . S
C402 Nd400 2.836 . S
C402 C403 1.498 . S
C402 O420 1.258 . S
C402 O421 1.239 . S
C403 C402 1.498 . S
C403 C404 1.366 . S
C403 C408 1.407 . S
C404 C403 1.366 . S
C404 C405 1.392 . S
C404 H432 0.930 . S
C405 C404 1.392 . S
C405 C406 1.398 . S
C405 H433 0.929 . S
C406 C405 1.398 . S
C406 C407 1.352 . S
C407 C406 1.352 . S
C407 C408 1.384 . S
C407 H434 0.930 . S
C408 C403 1.407 . S
C408 C407 1.384 . S
C408 H435 0.929 . S
C409 O422 1.241 . S
C409 O423 1.273 . S
C410 O424 1.251 . S
C410 O425 1.268 . S
C411 Nd401 2.836 . S
C411 C412 1.498 . S
C411 O426 1.258 . S
C411 O427 1.239 . S
C412 C411 1.498 . S
C412 C413 1.366 . S
C412 C417 1.407 . S
C413 C412 1.366 . S
C413 C414 1.392 . S
C413 H436 0.930 . S
C414 C413 1.392 . S
C414 C415 1.398 . S
C414 H437 0.929 . S
C415 C414 1.398 . S
C415 C416 1.352 . S
C416 C415 1.352 . S
C416 C417 1.384 . S
C416 H438 0.930 . S
C417 C412 1.407 . S
C417 C416 1.384 . S
C417 H439 0.929 . S
C418 O428 1.241 . S
C418 O429 1.273 . S
C419 O430 1.251 . S
C419 O431 1.268 . S
O420 Nd400 2.500 . S
O420 C402 1.258 . S
O421 Nd400 2.492 . S
O421 C402 1.239 . S
O422 Nd400 2.487 . S
O422 C409 1.241 . S
O423 Nd400 2.682 . S
O423 Nd401 2.414 . S
O423 C409 1.273 . S
O424 Nd400 2.410 . S
O424 C410 1.251 . S
O425 Nd401 2.424 . S
O425 C410 1.268 . S
O426 Nd401 2.500 . S
O426 C411 1.258 . S
O427 Nd401 2.492 . S
O427 C411 1.239 . S
O428 Nd401 2.487 . S
O428 C418 1.241 . S
O429 Nd400 2.414 . S
O429 Nd401 2.682 . S
O429 C418 1.273 . S
O430 Nd401 2.410 . S
O430 C419 1.251 . S
O431 Nd400 2.424 . S
O431 C419 1.268 . S
H432 C404 0.930 . S
H433 C405 0.929 . S
H434 C407 0.930 . S
H435 C408 0.929 . S
H436 C413 0.930 . S
H437 C414 0.929 . S
H438 C416 0.930 . S
H439 C417 0.929 . S
Nd440 C442 2.836 . S
Nd440 O460 2.500 . S
Nd440 O461 2.492 . S
Nd440 O462 2.487 . S
Nd440 O463 2.682 . S
Nd440 O464 2.410 . S
Nd440 O469 2.414 . S
Nd440 O471 2.424 . S
Nd441 C451 2.836 . S
Nd441 O463 2.414 . S
Nd441 O465 2.424 . S
Nd441 O466 2.500 . S
Nd441 O467 2.492 . S
Nd441 O468 2.487 . S
Nd441 O469 2.682 . S
Nd441 O470 2.410 . S
C442 Nd440 2.836 . S
C442 C443 1.498 . S
C442 O460 1.258 . S
C442 O461 1.239 . S
C443 C442 1.498 . S
C443 C444 1.366 . S
C443 C448 1.407 . S
C444 C443 1.366 . S
C444 C445 1.392 . S
C444 H472 0.930 . S
C445 C444 1.392 . S
C445 C446 1.398 . S
C445 H473 0.929 . S
C446 C445 1.398 . S
C446 C447 1.352 . S
C447 C446 1.352 . S
C447 C448 1.384 . S
C447 H474 0.930 . S
C448 C443 1.407 . S
C448 C447 1.384 . S
C448 H475 0.929 . S
C449 O462 1.241 . S
C449 O463 1.273 . S
C450 O464 1.251 . S
C450 O465 1.268 . S
C451 Nd441 2.836 . S
C451 C452 1.498 . S
C451 O466 1.258 . S
C451 O467 1.239 . S
C452 C451 1.498 . S
C452 C453 1.366 . S
C452 C457 1.407 . S
C453 C452 1.366 . S
C453 C454 1.392 . S
C453 H476 0.930 . S
C454 C453 1.392 . S
C454 C455 1.398 . S
C454 H477 0.929 . S
C455 C454 1.398 . S
C455 C456 1.352 . S
C456 C455 1.352 . S
C456 C457 1.384 . S
C456 H478 0.930 . S
C457 C452 1.407 . S
C457 C456 1.384 . S
C457 H479 0.929 . S
C458 O468 1.241 . S
C458 O469 1.273 . S
C459 O470 1.251 . S
C459 O471 1.268 . S
O460 Nd440 2.500 . S
O460 C442 1.258 . S
O461 Nd440 2.492 . S
O461 C442 1.239 . S
O462 Nd440 2.487 . S
O462 C449 1.241 . S
O463 Nd440 2.682 . S
O463 Nd441 2.414 . S
O463 C449 1.273 . S
O464 Nd440 2.410 . S
O464 C450 1.251 . S
O465 Nd441 2.424 . S
O465 C450 1.268 . S
O466 Nd441 2.500 . S
O466 C451 1.258 . S
O467 Nd441 2.492 . S
O467 C451 1.239 . S
O468 Nd441 2.487 . S
O468 C458 1.241 . S
O469 Nd440 2.414 . S
O469 Nd441 2.682 . S
O469 C458 1.273 . S
O470 Nd441 2.410 . S
O470 C459 1.251 . S
O471 Nd440 2.424 . S
O471 C459 1.268 . S
H472 C444 0.930 . S
H473 C445 0.929 . S
H474 C447 0.930 . S
H475 C448 0.929 . S
H476 C453 0.930 . S
H477 C454 0.929 . S
H478 C456 0.930 . S
H479 C457 0.929 . S
Nd480 C482 2.836 . S
Nd480 O500 2.500 . S
Nd480 O501 2.492 . S
Nd480 O502 2.487 . S
Nd480 O503 2.682 . S
Nd480 O504 2.410 . S
Nd480 O509 2.414 . S
Nd480 O511 2.424 . S
Nd481 C491 2.836 . S
Nd481 O503 2.414 . S
Nd481 O505 2.424 . S
Nd481 O506 2.500 . S
Nd481 O507 2.492 . S
Nd481 O508 2.487 . S
Nd481 O509 2.682 . S
Nd481 O510 2.410 . S
C482 Nd480 2.836 . S
C482 C483 1.498 . S
C482 O500 1.258 . S
C482 O501 1.239 . S
C483 C482 1.498 . S
C483 C484 1.366 . S
C483 C488 1.407 . S
C484 C483 1.366 . S
C484 C485 1.392 . S
C484 H512 0.930 . S
C485 C484 1.392 . S
C485 C486 1.398 . S
C485 H513 0.929 . S
C486 C485 1.398 . S
C486 C487 1.352 . S
C487 C486 1.352 . S
C487 C488 1.384 . S
C487 H514 0.930 . S
C488 C483 1.407 . S
C488 C487 1.384 . S
C488 H515 0.929 . S
C489 O502 1.241 . S
C489 O503 1.273 . S
C490 O504 1.251 . S
C490 O505 1.268 . S
C491 Nd481 2.836 . S
C491 C492 1.498 . S
C491 O506 1.258 . S
C491 O507 1.239 . S
C492 C491 1.498 . S
C492 C493 1.366 . S
C492 C497 1.407 . S
C493 C492 1.366 . S
C493 C494 1.392 1_655 S
C493 H516 0.930 . S
C494 C493 1.392 1_455 S
C494 C495 1.398 . S
C494 H517 0.929 . S
C495 C494 1.398 . S
C495 C496 1.352 1_455 S
C496 C495 1.352 1_655 S
C496 C497 1.384 . S
C496 H518 0.930 . S
C497 C492 1.407 . S
C497 C496 1.384 . S
C497 H519 0.929 . S
C498 O508 1.241 . S
C498 O509 1.273 . S
C499 O510 1.251 . S
C499 O511 1.268 . S
O500 Nd480 2.500 . S
O500 C482 1.258 . S
O501 Nd480 2.492 . S
O501 C482 1.239 . S
O502 Nd480 2.487 . S
O502 C489 1.241 . S
O503 Nd480 2.682 . S
O503 Nd481 2.414 . S
O503 C489 1.273 . S
O504 Nd480 2.410 . S
O504 C490 1.251 . S
O505 Nd481 2.424 . S
O505 C490 1.268 . S
O506 Nd481 2.500 . S
O506 C491 1.258 . S
O507 Nd481 2.492 . S
O507 C491 1.239 . S
O508 Nd481 2.487 . S
O508 C498 1.241 . S
O509 Nd480 2.414 . S
O509 Nd481 2.682 . S
O509 C498 1.273 . S
O510 Nd481 2.410 . S
O510 C499 1.251 . S
O511 Nd480 2.424 . S
O511 C499 1.268 . S
H512 C484 0.930 . S
H513 C485 0.929 . S
H514 C487 0.930 . S
H515 C488 0.929 . S
H516 C493 0.930 . S
H517 C494 0.929 . S
H518 C496 0.930 . S
H519 C497 0.929 . S
Nd520 C522 2.836 . S
Nd520 O540 2.500 . S
Nd520 O541 2.492 . S
Nd520 O542 2.487 . S
Nd520 O543 2.682 . S
Nd520 O544 2.410 . S
Nd520 O549 2.414 . S
Nd520 O551 2.424 . S
Nd521 C531 2.836 . S
Nd521 O543 2.414 . S
Nd521 O545 2.424 . S
Nd521 O546 2.500 . S
Nd521 O547 2.492 . S
Nd521 O548 2.487 . S
Nd521 O549 2.682 . S
Nd521 O550 2.410 . S
C522 Nd520 2.836 . S
C522 C523 1.498 . S
C522 O540 1.258 . S
C522 O541 1.239 . S
C523 C522 1.498 . S
C523 C524 1.366 . S
C523 C528 1.407 . S
C524 C523 1.366 . S
C524 C525 1.392 . S
C524 H552 0.930 . S
C525 C524 1.392 . S
C525 C526 1.398 . S
C525 H553 0.929 . S
C526 C525 1.398 . S
C526 C527 1.352 . S
C527 C526 1.352 . S
C527 C528 1.384 . S
C527 H554 0.930 . S
C528 C523 1.407 . S
C528 C527 1.384 . S
C528 H555 0.929 . S
C529 O542 1.241 . S
C529 O543 1.273 . S
C530 O544 1.251 . S
C530 O545 1.268 . S
C531 Nd521 2.836 . S
C531 C532 1.498 . S
C531 O546 1.258 . S
C531 O547 1.239 . S
C532 C531 1.498 . S
C532 C533 1.366 . S
C532 C537 1.407 . S
C533 C532 1.366 . S
C533 C534 1.392 . S
C533 H556 0.930 . S
C534 C533 1.392 . S
C534 C535 1.398 . S
C534 H557 0.929 . S
C535 C534 1.398 . S
C535 C536 1.352 . S
C536 C535 1.352 . S
C536 C537 1.384 . S
C536 H558 0.930 . S
C537 C532 1.407 . S
C537 C536 1.384 . S
C537 H559 0.929 . S
C538 O548 1.241 . S
C538 O549 1.273 . S
C539 O550 1.251 . S
C539 O551 1.268 . S
O540 Nd520 2.500 . S
O540 C522 1.258 . S
O541 Nd520 2.492 . S
O541 C522 1.239 . S
O542 Nd520 2.487 . S
O542 C529 1.241 . S
O543 Nd520 2.682 . S
O543 Nd521 2.414 . S
O543 C529 1.273 . S
O544 Nd520 2.410 . S
O544 C530 1.251 . S
O545 Nd521 2.424 . S
O545 C530 1.268 . S
O546 Nd521 2.500 . S
O546 C531 1.258 . S
O547 Nd521 2.492 . S
O547 C531 1.239 . S
O548 Nd521 2.487 . S
O548 C538 1.241 . S
O549 Nd520 2.414 . S
O549 Nd521 2.682 . S
O549 C538 1.273 . S
O550 Nd521 2.410 . S
O550 C539 1.251 . S
O551 Nd520 2.424 . S
O551 C539 1.268 . S
H552 C524 0.930 . S
H553 C525 0.929 . S
H554 C527 0.930 . S
H555 C528 0.929 . S
H556 C533 0.930 . S
H557 C534 0.929 . S
H558 C536 0.930 . S
H559 C537 0.929 . S
Nd560 C562 2.836 . S
Nd560 O580 2.500 . S
Nd560 O581 2.492 . S
Nd560 O582 2.487 . S
Nd560 O583 2.682 . S
Nd560 O584 2.410 . S
Nd560 O589 2.414 . S
Nd560 O591 2.424 . S
Nd561 C571 2.836 . S
Nd561 O583 2.414 . S
Nd561 O585 2.424 . S
Nd561 O586 2.500 . S
Nd561 O587 2.492 . S
Nd561 O588 2.487 . S
Nd561 O589 2.682 . S
Nd561 O590 2.410 . S
C562 Nd560 2.836 . S
C562 C563 1.498 . S
C562 O580 1.258 . S
C562 O581 1.239 . S
C563 C562 1.498 . S
C563 C564 1.366 . S
C563 C568 1.407 . S
C564 C563 1.366 . S
C564 C565 1.392 . S
C564 H592 0.930 . S
C565 C564 1.392 . S
C565 C566 1.398 . S
C565 H593 0.929 . S
C566 C565 1.398 . S
C566 C567 1.352 . S
C567 C566 1.352 . S
C567 C568 1.384 . S
C567 H594 0.930 . S
C568 C563 1.407 . S
C568 C567 1.384 . S
C568 H595 0.929 . S
C569 O582 1.241 . S
C569 O583 1.273 . S
C570 O584 1.251 . S
C570 O585 1.268 . S
C571 Nd561 2.836 . S
C571 C572 1.498 . S
C571 O586 1.258 . S
C571 O587 1.239 . S
C572 C571 1.498 . S
C572 C573 1.366 . S
C572 C577 1.407 . S
C573 C572 1.366 . S
C573 C574 1.392 . S
C573 H596 0.930 . S
C574 C573 1.392 . S
C574 C575 1.398 . S
C574 H597 0.929 . S
C575 C574 1.398 . S
C575 C576 1.352 . S
C576 C575 1.352 . S
C576 C577 1.384 . S
C576 H598 0.930 . S
C577 C572 1.407 . S
C577 C576 1.384 . S
C577 H599 0.929 . S
C578 O588 1.241 . S
C578 O589 1.273 . S
C579 O590 1.251 . S
C579 O591 1.268 . S
O580 Nd560 2.500 . S
O580 C562 1.258 . S
O581 Nd560 2.492 . S
O581 C562 1.239 . S
O582 Nd560 2.487 . S
O582 C569 1.241 . S
O583 Nd560 2.682 . S
O583 Nd561 2.414 . S
O583 C569 1.273 . S
O584 Nd560 2.410 . S
O584 C570 1.251 . S
O585 Nd561 2.424 . S
O585 C570 1.268 . S
O586 Nd561 2.500 . S
O586 C571 1.258 . S
O587 Nd561 2.492 . S
O587 C571 1.239 . S
O588 Nd561 2.487 . S
O588 C578 1.241 . S
O589 Nd560 2.414 . S
O589 Nd561 2.682 . S
O589 C578 1.273 . S
O590 Nd561 2.410 . S
O590 C579 1.251 . S
O591 Nd560 2.424 . S
O591 C579 1.268 . S
H592 C564 0.930 . S
H593 C565 0.929 . S
H594 C567 0.930 . S
H595 C568 0.929 . S
H596 C573 0.930 . S
H597 C574 0.929 . S
H598 C576 0.930 . S
H599 C577 0.929 . S
Nd600 C602 2.836 . S
Nd600 O620 2.500 . S
Nd600 O621 2.492 . S
Nd600 O622 2.487 . S
Nd600 O623 2.682 . S
Nd600 O624 2.410 . S
Nd600 O629 2.414 . S
Nd600 O631 2.424 . S
Nd601 C611 2.836 . S
Nd601 O623 2.414 . S
Nd601 O625 2.424 . S
Nd601 O626 2.500 . S
Nd601 O627 2.492 . S
Nd601 O628 2.487 . S
Nd601 O629 2.682 . S
Nd601 O630 2.410 . S
C602 Nd600 2.836 . S
C602 C603 1.498 . S
C602 O620 1.258 . S
C602 O621 1.239 . S
C603 C602 1.498 . S
C603 C604 1.366 . S
C603 C608 1.407 . S
C604 C603 1.366 . S
C604 C605 1.392 . S
C604 H632 0.930 . S
C605 C604 1.392 . S
C605 C606 1.398 . S
C605 H633 0.929 . S
C606 C605 1.398 . S
C606 C607 1.352 . S
C607 C606 1.352 . S
C607 C608 1.384 . S
C607 H634 0.930 . S
C608 C603 1.407 . S
C608 C607 1.384 . S
C608 H635 0.929 . S
C609 O622 1.241 . S
C609 O623 1.273 . S
C610 O624 1.251 . S
C610 O625 1.268 . S
C611 Nd601 2.836 . S
C611 C612 1.498 . S
C611 O626 1.258 . S
C611 O627 1.239 . S
C612 C611 1.498 . S
C612 C613 1.366 . S
C612 C617 1.407 . S
C613 C612 1.366 . S
C613 C614 1.392 . S
C613 H636 0.930 . S
C614 C613 1.392 . S
C614 C615 1.398 . S
C614 H637 0.929 . S
C615 C614 1.398 . S
C615 C616 1.352 . S
C616 C615 1.352 . S
C616 C617 1.384 . S
C616 H638 0.930 . S
C617 C612 1.407 . S
C617 C616 1.384 . S
C617 H639 0.929 . S
C618 O628 1.241 . S
C618 O629 1.273 . S
C619 O630 1.251 . S
C619 O631 1.268 . S
O620 Nd600 2.500 . S
O620 C602 1.258 . S
O621 Nd600 2.492 . S
O621 C602 1.239 . S
O622 Nd600 2.487 . S
O622 C609 1.241 . S
O623 Nd600 2.682 . S
O623 Nd601 2.414 . S
O623 C609 1.273 . S
O624 Nd600 2.410 . S
O624 C610 1.251 . S
O625 Nd601 2.424 . S
O625 C610 1.268 . S
O626 Nd601 2.500 . S
O626 C611 1.258 . S
O627 Nd601 2.492 . S
O627 C611 1.239 . S
O628 Nd601 2.487 . S
O628 C618 1.241 . S
O629 Nd600 2.414 . S
O629 Nd601 2.682 . S
O629 C618 1.273 . S
O630 Nd601 2.410 . S
O630 C619 1.251 . S
O631 Nd600 2.424 . S
O631 C619 1.268 . S
H632 C604 0.930 . S
H633 C605 0.929 . S
H634 C607 0.930 . S
H635 C608 0.929 . S
H636 C613 0.930 . S
H637 C614 0.929 . S
H638 C616 0.930 . S
H639 C617 0.929 . S
Nd640 C642 2.836 . S
Nd640 O660 2.500 . S
Nd640 O661 2.492 . S
Nd640 O662 2.487 . S
Nd640 O663 2.682 . S
Nd640 O664 2.410 . S
Nd640 O669 2.414 . S
Nd640 O671 2.424 . S
Nd641 C651 2.836 . S
Nd641 O663 2.414 . S
Nd641 O665 2.424 . S
Nd641 O666 2.500 . S
Nd641 O667 2.492 . S
Nd641 O668 2.487 . S
Nd641 O669 2.682 . S
Nd641 O670 2.410 . S
C642 Nd640 2.836 . S
C642 C643 1.498 . S
C642 O660 1.258 . S
C642 O661 1.239 . S
C643 C642 1.498 . S
C643 C644 1.366 . S
C643 C648 1.407 . S
C644 C643 1.366 . S
C644 C645 1.392 . S
C644 H672 0.930 . S
C645 C644 1.392 . S
C645 C646 1.398 . S
C645 H673 0.929 . S
C646 C645 1.398 . S
C646 C647 1.352 . S
C647 C646 1.352 . S
C647 C648 1.384 . S
C647 H674 0.930 . S
C648 C643 1.407 . S
C648 C647 1.384 . S
C648 H675 0.929 . S
C649 O662 1.241 . S
C649 O663 1.273 . S
C650 O664 1.251 . S
C650 O665 1.268 . S
C651 Nd641 2.836 . S
C651 C652 1.498 . S
C651 O666 1.258 . S
C651 O667 1.239 . S
C652 C651 1.498 . S
C652 C653 1.366 . S
C652 C657 1.407 . S
C653 C652 1.366 . S
C653 C654 1.392 . S
C653 H676 0.930 . S
C654 C653 1.392 . S
C654 C655 1.398 . S
C654 H677 0.929 . S
C655 C654 1.398 . S
C655 C656 1.352 . S
C656 C655 1.352 . S
C656 C657 1.384 . S
C656 H678 0.930 . S
C657 C652 1.407 . S
C657 C656 1.384 . S
C657 H679 0.929 . S
C658 O668 1.241 . S
C658 O669 1.273 . S
C659 O670 1.251 . S
C659 O671 1.268 . S
O660 Nd640 2.500 . S
O660 C642 1.258 . S
O661 Nd640 2.492 . S
O661 C642 1.239 . S
O662 Nd640 2.487 . S
O662 C649 1.241 . S
O663 Nd640 2.682 . S
O663 Nd641 2.414 . S
O663 C649 1.273 . S
O664 Nd640 2.410 . S
O664 C650 1.251 . S
O665 Nd641 2.424 . S
O665 C650 1.268 . S
O666 Nd641 2.500 . S
O666 C651 1.258 . S
O667 Nd641 2.492 . S
O667 C651 1.239 . S
O668 Nd641 2.487 . S
O668 C658 1.241 . S
O669 Nd640 2.414 . S
O669 Nd641 2.682 . S
O669 C658 1.273 . S
O670 Nd641 2.410 . S
O670 C659 1.251 . S
O671 Nd640 2.424 . S
O671 C659 1.268 . S
H672 C644 0.930 . S
H673 C645 0.929 . S
H674 C647 0.930 . S
H675 C648 0.929 . S
H676 C653 0.930 . S
H677 C654 0.929 . S
H678 C656 0.930 . S
H679 C657 0.929 . S
Nd680 C682 2.836 . S
Nd680 O700 2.500 . S
Nd680 O701 2.492 . S
Nd680 O702 2.487 . S
Nd680 O703 2.682 . S
Nd680 O704 2.410 . S
Nd680 O709 2.414 . S
Nd680 O711 2.424 . S
Nd681 C691 2.836 . S
Nd681 O703 2.414 . S
Nd681 O705 2.424 . S
Nd681 O706 2.500 . S
Nd681 O707 2.492 . S
Nd681 O708 2.487 . S
Nd681 O709 2.682 . S
Nd681 O710 2.410 . S
C682 Nd680 2.836 . S
C682 C683 1.498 . S
C682 O700 1.258 . S
C682 O701 1.239 . S
C683 C682 1.498 . S
C683 C684 1.366 . S
C683 C688 1.407 . S
C684 C683 1.366 . S
C684 C685 1.392 . S
C684 H712 0.930 . S
C685 C684 1.392 . S
C685 C686 1.398 . S
C685 H713 0.929 . S
C686 C685 1.398 . S
C686 C687 1.352 . S
C687 C686 1.352 . S
C687 C688 1.384 . S
C687 H714 0.930 . S
C688 C683 1.407 . S
C688 C687 1.384 . S
C688 H715 0.929 . S
C689 O702 1.241 . S
C689 O703 1.273 . S
C690 O704 1.251 . S
C690 O705 1.268 . S
C691 Nd681 2.836 . S
C691 C692 1.498 . S
C691 O706 1.258 . S
C691 O707 1.239 . S
C692 C691 1.498 . S
C692 C693 1.366 . S
C692 C697 1.407 . S
C693 C692 1.366 . S
C693 C694 1.392 . S
C693 H716 0.930 . S
C694 C693 1.392 . S
C694 C695 1.398 . S
C694 H717 0.929 . S
C695 C694 1.398 . S
C695 C696 1.352 . S
C696 C695 1.352 . S
C696 C697 1.384 . S
C696 H718 0.930 . S
C697 C692 1.407 . S
C697 C696 1.384 . S
C697 H719 0.929 . S
C698 O708 1.241 . S
C698 O709 1.273 . S
C699 O710 1.251 . S
C699 O711 1.268 . S
O700 Nd680 2.500 . S
O700 C682 1.258 . S
O701 Nd680 2.492 . S
O701 C682 1.239 . S
O702 Nd680 2.487 . S
O702 C689 1.241 . S
O703 Nd680 2.682 . S
O703 Nd681 2.414 . S
O703 C689 1.273 . S
O704 Nd680 2.410 . S
O704 C690 1.251 . S
O705 Nd681 2.424 . S
O705 C690 1.268 . S
O706 Nd681 2.500 . S
O706 C691 1.258 . S
O707 Nd681 2.492 . S
O707 C691 1.239 . S
O708 Nd681 2.487 . S
O708 C698 1.241 . S
O709 Nd680 2.414 . S
O709 Nd681 2.682 . S
O709 C698 1.273 . S
O710 Nd681 2.410 . S
O710 C699 1.251 . S
O711 Nd680 2.424 . S
O711 C699 1.268 . S
H712 C684 0.930 . S
H713 C685 0.929 . S
H714 C687 0.930 . S
H715 C688 0.929 . S
H716 C693 0.930 . S
H717 C694 0.929 . S
H718 C696 0.930 . S
H719 C697 0.929 . S
Nd720 C722 2.836 . S
Nd720 O740 2.500 . S
Nd720 O741 2.492 . S
Nd720 O742 2.487 . S
Nd720 O743 2.682 . S
Nd720 O744 2.410 . S
Nd720 O749 2.414 . S
Nd720 O751 2.424 . S
Nd721 C731 2.836 . S
Nd721 O743 2.414 . S
Nd721 O745 2.424 . S
Nd721 O746 2.500 . S
Nd721 O747 2.492 . S
Nd721 O748 2.487 . S
Nd721 O749 2.682 . S
Nd721 O750 2.410 . S
C722 Nd720 2.836 . S
C722 C723 1.498 . S
C722 O740 1.258 . S
C722 O741 1.239 . S
C723 C722 1.498 . S
C723 C724 1.366 . S
C723 C728 1.407 . S
C724 C723 1.366 . S
C724 C725 1.392 1_655 S
C724 H752 0.930 . S
C725 C724 1.392 1_455 S
C725 C726 1.398 . S
C725 H753 0.929 . S
C726 C725 1.398 . S
C726 C727 1.352 1_455 S
C727 C726 1.352 1_655 S
C727 C728 1.384 . S
C727 H754 0.930 . S
C728 C723 1.407 . S
C728 C727 1.384 . S
C728 H755 0.929 . S
C729 O742 1.241 . S
C729 O743 1.273 . S
C730 O744 1.251 . S
C730 O745 1.268 . S
C731 Nd721 2.836 . S
C731 C732 1.498 . S
C731 O746 1.258 . S
C731 O747 1.239 . S
C732 C731 1.498 . S
C732 C733 1.366 . S
C732 C737 1.407 . S
C733 C732 1.366 . S
C733 C734 1.392 . S
C733 H756 0.930 . S
C734 C733 1.392 . S
C734 C735 1.398 . S
C734 H757 0.929 . S
C735 C734 1.398 . S
C735 C736 1.352 . S
C736 C735 1.352 . S
C736 C737 1.384 . S
C736 H758 0.930 . S
C737 C732 1.407 . S
C737 C736 1.384 . S
C737 H759 0.929 . S
C738 O748 1.241 . S
C738 O749 1.273 . S
C739 O750 1.251 . S
C739 O751 1.268 . S
O740 Nd720 2.500 . S
O740 C722 1.258 . S
O741 Nd720 2.492 . S
O741 C722 1.239 . S
O742 Nd720 2.487 . S
O742 C729 1.241 . S
O743 Nd720 2.682 . S
O743 Nd721 2.414 . S
O743 C729 1.273 . S
O744 Nd720 2.410 . S
O744 C730 1.251 . S
O745 Nd721 2.424 . S
O745 C730 1.268 . S
O746 Nd721 2.500 . S
O746 C731 1.258 . S
O747 Nd721 2.492 . S
O747 C731 1.239 . S
O748 Nd721 2.487 . S
O748 C738 1.241 . S
O749 Nd720 2.414 . S
O749 Nd721 2.682 . S
O749 C738 1.273 . S
O750 Nd721 2.410 . S
O750 C739 1.251 . S
O751 Nd720 2.424 . S
O751 C739 1.268 . S
H752 C724 0.930 . S
H753 C725 0.929 . S
H754 C727 0.930 . S
H755 C728 0.929 . S
H756 C733 0.930 . S
H757 C734 0.929 . S
H758 C736 0.930 . S
H759 C737 0.929 . S
Nd760 C762 2.836 . S
Nd760 O780 2.500 . S
Nd760 O781 2.492 . S
Nd760 O782 2.487 . S
Nd760 O783 2.682 . S
Nd760 O784 2.410 . S
Nd760 O789 2.414 . S
Nd760 O791 2.424 . S
Nd761 C771 2.836 . S
Nd761 O783 2.414 . S
Nd761 O785 2.424 . S
Nd761 O786 2.500 . S
Nd761 O787 2.492 . S
Nd761 O788 2.487 . S
Nd761 O789 2.682 . S
Nd761 O790 2.410 . S
C762 Nd760 2.836 . S
C762 C763 1.498 . S
C762 O780 1.258 . S
C762 O781 1.239 . S
C763 C762 1.498 . S
C763 C764 1.366 . S
C763 C768 1.407 . S
C764 C763 1.366 . S
C764 C765 1.392 . S
C764 H792 0.930 . S
C765 C764 1.392 . S
C765 C766 1.398 . S
C765 H793 0.929 . S
C766 C765 1.398 . S
C766 C767 1.352 . S
C767 C766 1.352 . S
C767 C768 1.384 . S
C767 H794 0.930 . S
C768 C763 1.407 . S
C768 C767 1.384 . S
C768 H795 0.929 . S
C769 O782 1.241 . S
C769 O783 1.273 . S
C770 O784 1.251 . S
C770 O785 1.268 . S
C771 Nd761 2.836 . S
C771 C772 1.498 . S
C771 O786 1.258 . S
C771 O787 1.239 . S
C772 C771 1.498 . S
C772 C773 1.366 . S
C772 C777 1.407 . S
C773 C772 1.366 . S
C773 C774 1.392 . S
C773 H796 0.930 . S
C774 C773 1.392 . S
C774 C775 1.398 . S
C774 H797 0.929 . S
C775 C774 1.398 . S
C775 C776 1.352 . S
C776 C775 1.352 . S
C776 C777 1.384 . S
C776 H798 0.930 . S
C777 C772 1.407 . S
C777 C776 1.384 . S
C777 H799 0.929 . S
C778 O788 1.241 . S
C778 O789 1.273 . S
C779 O790 1.251 . S
C779 O791 1.268 . S
O780 Nd760 2.500 . S
O780 C762 1.258 . S
O781 Nd760 2.492 . S
O781 C762 1.239 . S
O782 Nd760 2.487 . S
O782 C769 1.241 . S
O783 Nd760 2.682 . S
O783 Nd761 2.414 . S
O783 C769 1.273 . S
O784 Nd760 2.410 . S
O784 C770 1.251 . S
O785 Nd761 2.424 . S
O785 C770 1.268 . S
O786 Nd761 2.500 . S
O786 C771 1.258 . S
O787 Nd761 2.492 . S
O787 C771 1.239 . S
O788 Nd761 2.487 . S
O788 C778 1.241 . S
O789 Nd760 2.414 . S
O789 Nd761 2.682 . S
O789 C778 1.273 . S
O790 Nd761 2.410 . S
O790 C779 1.251 . S
O791 Nd760 2.424 . S
O791 C779 1.268 . S
H792 C764 0.930 . S
H793 C765 0.929 . S
H794 C767 0.930 . S
H795 C768 0.929 . S
H796 C773 0.930 . S
H797 C774 0.929 . S
H798 C776 0.930 . S
H799 C777 0.929 . S
Nd800 C802 2.836 . S
Nd800 O820 2.500 . S
Nd800 O821 2.492 . S
Nd800 O822 2.487 . S
Nd800 O823 2.682 . S
Nd800 O824 2.410 . S
Nd800 O829 2.414 . S
Nd800 O831 2.424 . S
Nd801 C811 2.836 . S
Nd801 O823 2.414 . S
Nd801 O825 2.424 . S
Nd801 O826 2.500 . S
Nd801 O827 2.492 . S
Nd801 O828 2.487 . S
Nd801 O829 2.682 . S
Nd801 O830 2.410 . S
C802 Nd800 2.836 . S
C802 C803 1.498 . S
C802 O820 1.258 . S
C802 O821 1.239 . S
C803 C802 1.498 . S
C803 C804 1.366 . S
C803 C808 1.407 . S
C804 C803 1.366 . S
C804 C805 1.392 . S
C804 H832 0.930 . S
C805 C804 1.392 . S
C805 C806 1.398 . S
C805 H833 0.929 . S
C806 C805 1.398 . S
C806 C807 1.352 . S
C807 C806 1.352 . S
C807 C808 1.384 . S
C807 H834 0.930 . S
C808 C803 1.407 . S
C808 C807 1.384 . S
C808 H835 0.929 . S
C809 O822 1.241 . S
C809 O823 1.273 . S
C810 O824 1.251 . S
C810 O825 1.268 . S
C811 Nd801 2.836 . S
C811 C812 1.498 . S
C811 O826 1.258 . S
C811 O827 1.239 . S
C812 C811 1.498 . S
C812 C813 1.366 . S
C812 C817 1.407 . S
C813 C812 1.366 . S
C813 C814 1.392 . S
C813 H836 0.930 . S
C814 C813 1.392 . S
C814 C815 1.398 . S
C814 H837 0.929 . S
C815 C814 1.398 . S
C815 C816 1.352 . S
C816 C815 1.352 . S
C816 C817 1.384 . S
C816 H838 0.930 . S
C817 C812 1.407 . S
C817 C816 1.384 . S
C817 H839 0.929 . S
C818 O828 1.241 . S
C818 O829 1.273 . S
C819 O830 1.251 . S
C819 O831 1.268 . S
O820 Nd800 2.500 . S
O820 C802 1.258 . S
O821 Nd800 2.492 . S
O821 C802 1.239 . S
O822 Nd800 2.487 . S
O822 C809 1.241 . S
O823 Nd800 2.682 . S
O823 Nd801 2.414 . S
O823 C809 1.273 . S
O824 Nd800 2.410 . S
O824 C810 1.251 . S
O825 Nd801 2.424 . S
O825 C810 1.268 . S
O826 Nd801 2.500 . S
O826 C811 1.258 . S
O827 Nd801 2.492 . S
O827 C811 1.239 . S
O828 Nd801 2.487 . S
O828 C818 1.241 . S
O829 Nd800 2.414 . S
O829 Nd801 2.682 . S
O829 C818 1.273 . S
O830 Nd801 2.410 . S
O830 C819 1.251 . S
O831 Nd800 2.424 . S
O831 C819 1.268 . S
H832 C804 0.930 . S
H833 C805 0.929 . S
H834 C807 0.930 . S
H835 C808 0.929 . S
H836 C813 0.930 . S
H837 C814 0.929 . S
H838 C816 0.930 . S
H839 C817 0.929 . S
Nd840 C842 2.836 . S
Nd840 O860 2.500 . S
Nd840 O861 2.492 . S
Nd840 O862 2.487 . S
Nd840 O863 2.682 . S
Nd840 O864 2.410 . S
Nd840 O869 2.414 . S
Nd840 O871 2.424 . S
Nd841 C851 2.836 . S
Nd841 O863 2.414 . S
Nd841 O865 2.424 . S
Nd841 O866 2.500 . S
Nd841 O867 2.492 . S
Nd841 O868 2.487 . S
Nd841 O869 2.682 . S
Nd841 O870 2.410 . S
C842 Nd840 2.836 . S
C842 C843 1.498 . S
C842 O860 1.258 . S
C842 O861 1.239 . S
C843 C842 1.498 . S
C843 C844 1.366 . S
C843 C848 1.407 . S
C844 C843 1.366 . S
C844 C845 1.392 . S
C844 H872 0.930 . S
C845 C844 1.392 . S
C845 C846 1.398 . S
C845 H873 0.929 . S
C846 C845 1.398 . S
C846 C847 1.352 . S
C847 C846 1.352 . S
C847 C848 1.384 . S
C847 H874 0.930 . S
C848 C843 1.407 . S
C848 C847 1.384 . S
C848 H875 0.929 . S
C849 O862 1.241 . S
C849 O863 1.273 . S
C850 O864 1.251 . S
C850 O865 1.268 . S
C851 Nd841 2.836 . S
C851 C852 1.498 . S
C851 O866 1.258 . S
C851 O867 1.239 . S
C852 C851 1.498 . S
C852 C853 1.366 . S
C852 C857 1.407 . S
C853 C852 1.366 . S
C853 C854 1.392 . S
C853 H876 0.930 . S
C854 C853 1.392 . S
C854 C855 1.398 . S
C854 H877 0.929 . S
C855 C854 1.398 . S
C855 C856 1.352 . S
C856 C855 1.352 . S
C856 C857 1.384 . S
C856 H878 0.930 . S
C857 C852 1.407 . S
C857 C856 1.384 . S
C857 H879 0.929 . S
C858 O868 1.241 . S
C858 O869 1.273 . S
C859 O870 1.251 . S
C859 O871 1.268 . S
O860 Nd840 2.500 . S
O860 C842 1.258 . S
O861 Nd840 2.492 . S
O861 C842 1.239 . S
O862 Nd840 2.487 . S
O862 C849 1.241 . S
O863 Nd840 2.682 . S
O863 Nd841 2.414 . S
O863 C849 1.273 . S
O864 Nd840 2.410 . S
O864 C850 1.251 . S
O865 Nd841 2.424 . S
O865 C850 1.268 . S
O866 Nd841 2.500 . S
O866 C851 1.258 . S
O867 Nd841 2.492 . S
O867 C851 1.239 . S
O868 Nd841 2.487 . S
O868 C858 1.241 . S
O869 Nd840 2.414 . S
O869 Nd841 2.682 . S
O869 C858 1.273 . S
O870 Nd841 2.410 . S
O870 C859 1.251 . S
O871 Nd840 2.424 . S
O871 C859 1.268 . S
H872 C844 0.930 . S
H873 C845 0.929 . S
H874 C847 0.930 . S
H875 C848 0.929 . S
H876 C853 0.930 . S
H877 C854 0.929 . S
H878 C856 0.930 . S
H879 C857 0.929 . S
Nd880 C882 2.836 . S
Nd880 O900 2.500 . S
Nd880 O901 2.492 . S
Nd880 O902 2.487 . S
Nd880 O903 2.682 . S
Nd880 O904 2.410 . S
Nd880 O909 2.414 . S
Nd880 O911 2.424 . S
Nd881 C891 2.836 . S
Nd881 O903 2.414 . S
Nd881 O905 2.424 . S
Nd881 O906 2.500 . S
Nd881 O907 2.492 . S
Nd881 O908 2.487 . S
Nd881 O909 2.682 . S
Nd881 O910 2.410 . S
C882 Nd880 2.836 . S
C882 C883 1.498 . S
C882 O900 1.258 . S
C882 O901 1.239 . S
C883 C882 1.498 . S
C883 C884 1.366 . S
C883 C888 1.407 . S
C884 C883 1.366 . S
C884 C885 1.392 1_655 S
C884 H912 0.930 . S
C885 C884 1.392 1_455 S
C885 C886 1.398 . S
C885 H913 0.929 . S
C886 C885 1.398 . S
C886 C887 1.352 1_455 S
C887 C886 1.352 1_655 S
C887 C888 1.384 . S
C887 H914 0.930 . S
C888 C883 1.407 . S
C888 C887 1.384 . S
C888 H915 0.929 . S
C889 O902 1.241 . S
C889 O903 1.273 . S
C890 O904 1.251 . S
C890 O905 1.268 . S
C891 Nd881 2.836 . S
C891 C892 1.498 . S
C891 O906 1.258 . S
C891 O907 1.239 . S
C892 C891 1.498 . S
C892 C893 1.366 . S
C892 C897 1.407 . S
C893 C892 1.366 . S
C893 C894 1.392 . S
C893 H916 0.930 . S
C894 C893 1.392 . S
C894 C895 1.398 . S
C894 H917 0.929 . S
C895 C894 1.398 . S
C895 C896 1.352 . S
C896 C895 1.352 . S
C896 C897 1.384 . S
C896 H918 0.930 . S
C897 C892 1.407 . S
C897 C896 1.384 . S
C897 H919 0.929 . S
C898 O908 1.241 . S
C898 O909 1.273 . S
C899 O910 1.251 . S
C899 O911 1.268 . S
O900 Nd880 2.500 . S
O900 C882 1.258 . S
O901 Nd880 2.492 . S
O901 C882 1.239 . S
O902 Nd880 2.487 . S
O902 C889 1.241 . S
O903 Nd880 2.682 . S
O903 Nd881 2.414 . S
O903 C889 1.273 . S
O904 Nd880 2.410 . S
O904 C890 1.251 . S
O905 Nd881 2.424 . S
O905 C890 1.268 . S
O906 Nd881 2.500 . S
O906 C891 1.258 . S
O907 Nd881 2.492 . S
O907 C891 1.239 . S
O908 Nd881 2.487 . S
O908 C898 1.241 . S
O909 Nd880 2.414 . S
O909 Nd881 2.682 . S
O909 C898 1.273 . S
O910 Nd881 2.410 . S
O910 C899 1.251 . S
O911 Nd880 2.424 . S
O911 C899 1.268 . S
H912 C884 0.930 . S
H913 C885 0.929 . S
H914 C887 0.930 . S
H915 C888 0.929 . S
H916 C893 0.930 . S
H917 C894 0.929 . S
H918 C896 0.930 . S
H919 C897 0.929 . S
Nd920 C922 2.836 . S
Nd920 O940 2.500 . S
Nd920 O941 2.492 . S
Nd920 O942 2.487 . S
Nd920 O943 2.682 . S
Nd920 O944 2.410 . S
Nd920 O949 2.414 . S
Nd920 O951 2.424 . S
Nd921 C931 2.836 . S
Nd921 O943 2.414 . S
Nd921 O945 2.424 . S
Nd921 O946 2.500 . S
Nd921 O947 2.492 . S
Nd921 O948 2.487 . S
Nd921 O949 2.682 . S
Nd921 O950 2.410 . S
C922 Nd920 2.836 . S
C922 C923 1.498 . S
C922 O940 1.258 . S
C922 O941 1.239 . S
C923 C922 1.498 . S
C923 C924 1.366 . S
C923 C928 1.407 . S
C924 C923 1.366 . S
C924 C925 1.392 . S
C924 H952 0.930 . S
C925 C924 1.392 . S
C925 C926 1.398 . S
C925 H953 0.929 . S
C926 C925 1.398 . S
C926 C927 1.352 . S
C927 C926 1.352 . S
C927 C928 1.384 . S
C927 H954 0.930 . S
C928 C923 1.407 . S
C928 C927 1.384 . S
C928 H955 0.929 . S
C929 O942 1.241 . S
C929 O943 1.273 . S
C930 O944 1.251 . S
C930 O945 1.268 . S
C931 Nd921 2.836 . S
C931 C932 1.498 . S
C931 O946 1.258 . S
C931 O947 1.239 . S
C932 C931 1.498 . S
C932 C933 1.366 . S
C932 C937 1.407 . S
C933 C932 1.366 . S
C933 C934 1.392 . S
C933 H956 0.930 . S
C934 C933 1.392 . S
C934 C935 1.398 . S
C934 H957 0.929 . S
C935 C934 1.398 . S
C935 C936 1.352 . S
C936 C935 1.352 . S
C936 C937 1.384 . S
C936 H958 0.930 . S
C937 C932 1.407 . S
C937 C936 1.384 . S
C937 H959 0.929 . S
C938 O948 1.241 . S
C938 O949 1.273 . S
C939 O950 1.251 . S
C939 O951 1.268 . S
O940 Nd920 2.500 . S
O940 C922 1.258 . S
O941 Nd920 2.492 . S
O941 C922 1.239 . S
O942 Nd920 2.487 . S
O942 C929 1.241 . S
O943 Nd920 2.682 . S
O943 Nd921 2.414 . S
O943 C929 1.273 . S
O944 Nd920 2.410 . S
O944 C930 1.251 . S
O945 Nd921 2.424 . S
O945 C930 1.268 . S
O946 Nd921 2.500 . S
O946 C931 1.258 . S
O947 Nd921 2.492 . S
O947 C931 1.239 . S
O948 Nd921 2.487 . S
O948 C938 1.241 . S
O949 Nd920 2.414 . S
O949 Nd921 2.682 . S
O949 C938 1.273 . S
O950 Nd921 2.410 . S
O950 C939 1.251 . S
O951 Nd920 2.424 . S
O951 C939 1.268 . S
H952 C924 0.930 . S
H953 C925 0.929 . S
H954 C927 0.930 . S
H955 C928 0.929 . S
H956 C933 0.930 . S
H957 C934 0.929 . S
H958 C936 0.930 . S
H959 C937 0.929 . S
Nd960 C962 2.836 . S
Nd960 O980 2.500 . S
Nd960 O981 2.492 . S
Nd960 O982 2.487 . S
Nd960 O983 2.682 . S
Nd960 O984 2.410 . S
Nd960 O989 2.414 . S
Nd960 O991 2.424 . S
Nd961 C971 2.836 . S
Nd961 O983 2.414 . S
Nd961 O985 2.424 . S
Nd961 O986 2.500 . S
Nd961 O987 2.492 . S
Nd961 O988 2.487 . S
Nd961 O989 2.682 . S
Nd961 O990 2.410 . S
C962 Nd960 2.836 . S
C962 C963 1.498 . S
C962 O980 1.258 . S
C962 O981 1.239 . S
C963 C962 1.498 . S
C963 C964 1.366 . S
C963 C968 1.407 . S
C964 C963 1.366 . S
C964 C965 1.392 . S
C964 H992 0.930 . S
C965 C964 1.392 . S
C965 C966 1.398 . S
C965 H993 0.929 . S
C966 C965 1.398 . S
C966 C967 1.352 . S
C967 C966 1.352 . S
C967 C968 1.384 . S
C967 H994 0.930 . S
C968 C963 1.407 . S
C968 C967 1.384 . S
C968 H995 0.929 . S
C969 O982 1.241 . S
C969 O983 1.273 . S
C970 O984 1.251 . S
C970 O985 1.268 . S
C971 Nd961 2.836 . S
C971 C972 1.498 . S
C971 O986 1.258 . S
C971 O987 1.239 . S
C972 C971 1.498 . S
C972 C973 1.366 . S
C972 C977 1.407 . S
C973 C972 1.366 . S
C973 C974 1.392 . S
C973 H996 0.930 . S
C974 C973 1.392 . S
C974 C975 1.398 . S
C974 H997 0.929 . S
C975 C974 1.398 . S
C975 C976 1.352 . S
C976 C975 1.352 . S
C976 C977 1.384 . S
C976 H998 0.930 . S
C977 C972 1.407 . S
C977 C976 1.384 . S
C977 H999 0.929 . S
C978 O988 1.241 . S
C978 O989 1.273 . S
C979 O990 1.251 . S
C979 O991 1.268 . S
O980 Nd960 2.500 . S
O980 C962 1.258 . S
O981 Nd960 2.492 . S
O981 C962 1.239 . S
O982 Nd960 2.487 . S
O982 C969 1.241 . S
O983 Nd960 2.682 . S
O983 Nd961 2.414 . S
O983 C969 1.273 . S
O984 Nd960 2.410 . S
O984 C970 1.251 . S
O985 Nd961 2.424 . S
O985 C970 1.268 . S
O986 Nd961 2.500 . S
O986 C971 1.258 . S
O987 Nd961 2.492 . S
O987 C971 1.239 . S
O988 Nd961 2.487 . S
O988 C978 1.241 . S
O989 Nd960 2.414 . S
O989 Nd961 2.682 . S
O989 C978 1.273 . S
O990 Nd961 2.410 . S
O990 C979 1.251 . S
O991 Nd960 2.424 . S
O991 C979 1.268 . S
H992 C964 0.930 . S
H993 C965 0.929 . S
H994 C967 0.930 . S
H995 C968 0.929 . S
H996 C973 0.930 . S
H997 C974 0.929 . S
H998 C976 0.930 . S
H999 C977 0.929 . S
Nd1000 C1002 2.836 . S
Nd1000 O1020 2.500 . S
Nd1000 O1021 2.492 . S
Nd1000 O1022 2.487 . S
Nd1000 O1023 2.682 . S
Nd1000 O1024 2.410 . S
Nd1000 O1029 2.414 . S
Nd1000 O1031 2.424 . S
Nd1001 C1011 2.836 . S
Nd1001 O1023 2.414 . S
Nd1001 O1025 2.424 . S
Nd1001 O1026 2.500 . S
Nd1001 O1027 2.492 . S
Nd1001 O1028 2.487 . S
Nd1001 O1029 2.682 . S
Nd1001 O1030 2.410 . S
C1002 Nd1000 2.836 . S
C1002 C1003 1.498 . S
C1002 O1020 1.258 . S
C1002 O1021 1.239 . S
C1003 C1002 1.498 . S
C1003 C1004 1.366 . S
C1003 C1008 1.407 . S
C1004 C1003 1.366 . S
C1004 C1005 1.392 . S
C1004 H1032 0.930 . S
C1005 C1004 1.392 . S
C1005 C1006 1.398 . S
C1005 H1033 0.929 . S
C1006 C1005 1.398 . S
C1006 C1007 1.352 . S
C1007 C1006 1.352 . S
C1007 C1008 1.384 . S
C1007 H1034 0.930 . S
C1008 C1003 1.407 . S
C1008 C1007 1.384 . S
C1008 H1035 0.929 . S
C1009 O1022 1.241 . S
C1009 O1023 1.273 . S
C1010 O1024 1.251 . S
C1010 O1025 1.268 . S
C1011 Nd1001 2.836 . S
C1011 C1012 1.498 . S
C1011 O1026 1.258 . S
C1011 O1027 1.239 . S
C1012 C1011 1.498 . S
C1012 C1013 1.366 . S
C1012 C1017 1.407 . S
C1013 C1012 1.366 . S
C1013 C1014 1.392 . S
C1013 H1036 0.930 . S
C1014 C1013 1.392 . S
C1014 C1015 1.398 . S
C1014 H1037 0.929 . S
C1015 C1014 1.398 . S
C1015 C1016 1.352 . S
C1016 C1015 1.352 . S
C1016 C1017 1.384 . S
C1016 H1038 0.930 . S
C1017 C1012 1.407 . S
C1017 C1016 1.384 . S
C1017 H1039 0.929 . S
C1018 O1028 1.241 . S
C1018 O1029 1.273 . S
C1019 O1030 1.251 . S
C1019 O1031 1.268 . S
O1020 Nd1000 2.500 . S
O1020 C1002 1.258 . S
O1021 Nd1000 2.492 . S
O1021 C1002 1.239 . S
O1022 Nd1000 2.487 . S
O1022 C1009 1.241 . S
O1023 Nd1000 2.682 . S
O1023 Nd1001 2.414 . S
O1023 C1009 1.273 . S
O1024 Nd1000 2.410 . S
O1024 C1010 1.251 . S
O1025 Nd1001 2.424 . S
O1025 C1010 1.268 . S
O1026 Nd1001 2.500 . S
O1026 C1011 1.258 . S
O1027 Nd1001 2.492 . S
O1027 C1011 1.239 . S
O1028 Nd1001 2.487 . S
O1028 C1018 1.241 . S
O1029 Nd1000 2.414 . S
O1029 Nd1001 2.682 . S
O1029 C1018 1.273 . S
O1030 Nd1001 2.410 . S
O1030 C1019 1.251 . S
O1031 Nd1000 2.424 . S
O1031 C1019 1.268 . S
H1032 C1004 0.930 . S
H1033 C1005 0.929 . S
H1034 C1007 0.930 . S
H1035 C1008 0.929 . S
H1036 C1013 0.930 . S
H1037 C1014 0.929 . S
H1038 C1016 0.930 . S
H1039 C1017 0.929 . S
Nd1040 C1042 2.836 . S
Nd1040 O1060 2.500 . S
Nd1040 O1061 2.492 . S
Nd1040 O1062 2.487 . S
Nd1040 O1063 2.682 . S
Nd1040 O1064 2.410 . S
Nd1040 O1069 2.414 . S
Nd1040 O1071 2.424 . S
Nd1041 C1051 2.836 . S
Nd1041 O1063 2.414 . S
Nd1041 O1065 2.424 . S
Nd1041 O1066 2.500 . S
Nd1041 O1067 2.492 . S
Nd1041 O1068 2.487 . S
Nd1041 O1069 2.682 . S
Nd1041 O1070 2.410 . S
C1042 Nd1040 2.836 . S
C1042 C1043 1.498 . S
C1042 O1060 1.258 . S
C1042 O1061 1.239 . S
C1043 C1042 1.498 . S
C1043 C1044 1.366 . S
C1043 C1048 1.407 . S
C1044 C1043 1.366 . S
C1044 C1045 1.392 . S
C1044 H1072 0.930 . S
C1045 C1044 1.392 . S
C1045 C1046 1.398 . S
C1045 H1073 0.929 . S
C1046 C1045 1.398 . S
C1046 C1047 1.352 . S
C1047 C1046 1.352 . S
C1047 C1048 1.384 . S
C1047 H1074 0.930 . S
C1048 C1043 1.407 . S
C1048 C1047 1.384 . S
C1048 H1075 0.929 . S
C1049 O1062 1.241 . S
C1049 O1063 1.273 . S
C1050 O1064 1.251 . S
C1050 O1065 1.268 . S
C1051 Nd1041 2.836 . S
C1051 C1052 1.498 . S
C1051 O1066 1.258 . S
C1051 O1067 1.239 . S
C1052 C1051 1.498 . S
C1052 C1053 1.366 . S
C1052 C1057 1.407 . S
C1053 C1052 1.366 . S
C1053 C1054 1.392 1_455 S
C1053 H1076 0.930 . S
C1054 C1053 1.392 1_655 S
C1054 C1055 1.398 . S
C1054 H1077 0.929 . S
C1055 C1054 1.398 . S
C1055 C1056 1.352 1_655 S
C1056 C1055 1.352 1_455 S
C1056 C1057 1.384 . S
C1056 H1078 0.930 . S
C1057 C1052 1.407 . S
C1057 C1056 1.384 . S
C1057 H1079 0.929 . S
C1058 O1068 1.241 . S
C1058 O1069 1.273 . S
C1059 O1070 1.251 . S
C1059 O1071 1.268 . S
O1060 Nd1040 2.500 . S
O1060 C1042 1.258 . S
O1061 Nd1040 2.492 . S
O1061 C1042 1.239 . S
O1062 Nd1040 2.487 . S
O1062 C1049 1.241 . S
O1063 Nd1040 2.682 . S
O1063 Nd1041 2.414 . S
O1063 C1049 1.273 . S
O1064 Nd1040 2.410 . S
O1064 C1050 1.251 . S
O1065 Nd1041 2.424 . S
O1065 C1050 1.268 . S
O1066 Nd1041 2.500 . S
O1066 C1051 1.258 . S
O1067 Nd1041 2.492 . S
O1067 C1051 1.239 . S
O1068 Nd1041 2.487 . S
O1068 C1058 1.241 . S
O1069 Nd1040 2.414 . S
O1069 Nd1041 2.682 . S
O1069 C1058 1.273 . S
O1070 Nd1041 2.410 . S
O1070 C1059 1.251 . S
O1071 Nd1040 2.424 . S
O1071 C1059 1.268 . S
H1072 C1044 0.930 . S
H1073 C1045 0.929 . S
H1074 C1047 0.930 . S
H1075 C1048 0.929 . S
H1076 C1053 0.930 . S
H1077 C1054 0.929 . S
H1078 C1056 0.930 . S
H1079 C1057 0.929 . S
Nd1080 C1082 2.836 . S
Nd1080 O1100 2.500 . S
Nd1080 O1101 2.492 . S
Nd1080 O1102 2.487 . S
Nd1080 O1103 2.682 . S
Nd1080 O1104 2.410 . S
Nd1080 O1109 2.414 . S
Nd1080 O1111 2.424 . S
Nd1081 C1091 2.836 . S
Nd1081 O1103 2.414 . S
Nd1081 O1105 2.424 . S
Nd1081 O1106 2.500 . S
Nd1081 O1107 2.492 . S
Nd1081 O1108 2.487 . S
Nd1081 O1109 2.682 . S
Nd1081 O1110 2.410 . S
C1082 Nd1080 2.836 . S
C1082 C1083 1.498 . S
C1082 O1100 1.258 . S
C1082 O1101 1.239 . S
C1083 C1082 1.498 . S
C1083 C1084 1.366 . S
C1083 C1088 1.407 . S
C1084 C1083 1.366 . S
C1084 C1085 1.392 . S
C1084 H1112 0.930 . S
C1085 C1084 1.392 . S
C1085 C1086 1.398 . S
C1085 H1113 0.929 . S
C1086 C1085 1.398 . S
C1086 C1087 1.352 . S
C1087 C1086 1.352 . S
C1087 C1088 1.384 . S
C1087 H1114 0.930 . S
C1088 C1083 1.407 . S
C1088 C1087 1.384 . S
C1088 H1115 0.929 . S
C1089 O1102 1.241 . S
C1089 O1103 1.273 . S
C1090 O1104 1.251 . S
C1090 O1105 1.268 . S
C1091 Nd1081 2.836 . S
C1091 C1092 1.498 . S
C1091 O1106 1.258 . S
C1091 O1107 1.239 . S
C1092 C1091 1.498 . S
C1092 C1093 1.366 . S
C1092 C1097 1.407 . S
C1093 C1092 1.366 . S
C1093 C1094 1.392 . S
C1093 H1116 0.930 . S
C1094 C1093 1.392 . S
C1094 C1095 1.398 . S
C1094 H1117 0.929 . S
C1095 C1094 1.398 . S
C1095 C1096 1.352 . S
C1096 C1095 1.352 . S
C1096 C1097 1.384 . S
C1096 H1118 0.930 . S
C1097 C1092 1.407 . S
C1097 C1096 1.384 . S
C1097 H1119 0.929 . S
C1098 O1108 1.241 . S
C1098 O1109 1.273 . S
C1099 O1110 1.251 . S
C1099 O1111 1.268 . S
O1100 Nd1080 2.500 . S
O1100 C1082 1.258 . S
O1101 Nd1080 2.492 . S
O1101 C1082 1.239 . S
O1102 Nd1080 2.487 . S
O1102 C1089 1.241 . S
O1103 Nd1080 2.682 . S
O1103 Nd1081 2.414 . S
O1103 C1089 1.273 . S
O1104 Nd1080 2.410 . S
O1104 C1090 1.251 . S
O1105 Nd1081 2.424 . S
O1105 C1090 1.268 . S
O1106 Nd1081 2.500 . S
O1106 C1091 1.258 . S
O1107 Nd1081 2.492 . S
O1107 C1091 1.239 . S
O1108 Nd1081 2.487 . S
O1108 C1098 1.241 . S
O1109 Nd1080 2.414 . S
O1109 Nd1081 2.682 . S
O1109 C1098 1.273 . S
O1110 Nd1081 2.410 . S
O1110 C1099 1.251 . S
O1111 Nd1080 2.424 . S
O1111 C1099 1.268 . S
H1112 C1084 0.930 . S
H1113 C1085 0.929 . S
H1114 C1087 0.930 . S
H1115 C1088 0.929 . S
H1116 C1093 0.930 . S
H1117 C1094 0.929 . S
H1118 C1096 0.930 . S
H1119 C1097 0.929 . S
Nd1120 C1122 2.836 . S
Nd1120 O1140 2.500 . S
Nd1120 O1141 2.492 . S
Nd1120 O1142 2.487 . S
Nd1120 O1143 2.682 . S
Nd1120 O1144 2.410 . S
Nd1120 O1149 2.414 . S
Nd1120 O1151 2.424 . S
Nd1121 C1131 2.836 . S
Nd1121 O1143 2.414 . S
Nd1121 O1145 2.424 . S
Nd1121 O1146 2.500 . S
Nd1121 O1147 2.492 . S
Nd1121 O1148 2.487 . S
Nd1121 O1149 2.682 . S
Nd1121 O1150 2.410 . S
C1122 Nd1120 2.836 . S
C1122 C1123 1.498 . S
C1122 O1140 1.258 . S
C1122 O1141 1.239 . S
C1123 C1122 1.498 . S
C1123 C1124 1.366 . S
C1123 C1128 1.407 . S
C1124 C1123 1.366 . S
C1124 C1125 1.392 . S
C1124 H1152 0.930 . S
C1125 C1124 1.392 . S
C1125 C1126 1.398 . S
C1125 H1153 0.929 . S
C1126 C1125 1.398 . S
C1126 C1127 1.352 . S
C1127 C1126 1.352 . S
C1127 C1128 1.384 . S
C1127 H1154 0.930 . S
C1128 C1123 1.407 . S
C1128 C1127 1.384 . S
C1128 H1155 0.929 . S
C1129 O1142 1.241 . S
C1129 O1143 1.273 . S
C1130 O1144 1.251 . S
C1130 O1145 1.268 . S
C1131 Nd1121 2.836 . S
C1131 C1132 1.498 . S
C1131 O1146 1.258 . S
C1131 O1147 1.239 . S
C1132 C1131 1.498 . S
C1132 C1133 1.366 . S
C1132 C1137 1.407 . S
C1133 C1132 1.366 . S
C1133 C1134 1.392 . S
C1133 H1156 0.930 . S
C1134 C1133 1.392 . S
C1134 C1135 1.398 . S
C1134 H1157 0.929 . S
C1135 C1134 1.398 . S
C1135 C1136 1.352 . S
C1136 C1135 1.352 . S
C1136 C1137 1.384 . S
C1136 H1158 0.930 . S
C1137 C1132 1.407 . S
C1137 C1136 1.384 . S
C1137 H1159 0.929 . S
C1138 O1148 1.241 . S
C1138 O1149 1.273 . S
C1139 O1150 1.251 . S
C1139 O1151 1.268 . S
O1140 Nd1120 2.500 . S
O1140 C1122 1.258 . S
O1141 Nd1120 2.492 . S
O1141 C1122 1.239 . S
O1142 Nd1120 2.487 . S
O1142 C1129 1.241 . S
O1143 Nd1120 2.682 . S
O1143 Nd1121 2.414 . S
O1143 C1129 1.273 . S
O1144 Nd1120 2.410 . S
O1144 C1130 1.251 . S
O1145 Nd1121 2.424 . S
O1145 C1130 1.268 . S
O1146 Nd1121 2.500 . S
O1146 C1131 1.258 . S
O1147 Nd1121 2.492 . S
O1147 C1131 1.239 . S
O1148 Nd1121 2.487 . S
O1148 C1138 1.241 . S
O1149 Nd1120 2.414 . S
O1149 Nd1121 2.682 . S
O1149 C1138 1.273 . S
O1150 Nd1121 2.410 . S
O1150 C1139 1.251 . S
O1151 Nd1120 2.424 . S
O1151 C1139 1.268 . S
H1152 C1124 0.930 . S
H1153 C1125 0.929 . S
H1154 C1127 0.930 . S
H1155 C1128 0.929 . S
H1156 C1133 0.930 . S
H1157 C1134 0.929 . S
H1158 C1136 0.930 . S
H1159 C1137 0.929 . S
Nd1160 C1162 2.836 . S
Nd1160 O1180 2.500 . S
Nd1160 O1181 2.492 . S
Nd1160 O1182 2.487 . S
Nd1160 O1183 2.682 . S
Nd1160 O1184 2.410 . S
Nd1160 O1189 2.414 . S
Nd1160 O1191 2.424 . S
Nd1161 C1171 2.836 . S
Nd1161 O1183 2.414 . S
Nd1161 O1185 2.424 . S
Nd1161 O1186 2.500 . S
Nd1161 O1187 2.492 . S
Nd1161 O1188 2.487 . S
Nd1161 O1189 2.682 . S
Nd1161 O1190 2.410 . S
C1162 Nd1160 2.836 . S
C1162 C1163 1.498 . S
C1162 O1180 1.258 . S
C1162 O1181 1.239 . S
C1163 C1162 1.498 . S
C1163 C1164 1.366 . S
C1163 C1168 1.407 . S
C1164 C1163 1.366 . S
C1164 C1165 1.392 . S
C1164 H1192 0.930 . S
C1165 C1164 1.392 . S
C1165 C1166 1.398 . S
C1165 H1193 0.929 . S
C1166 C1165 1.398 . S
C1166 C1167 1.352 . S
C1167 C1166 1.352 . S
C1167 C1168 1.384 . S
C1167 H1194 0.930 . S
C1168 C1163 1.407 . S
C1168 C1167 1.384 . S
C1168 H1195 0.929 . S
C1169 O1182 1.241 . S
C1169 O1183 1.273 . S
C1170 O1184 1.251 . S
C1170 O1185 1.268 . S
C1171 Nd1161 2.836 . S
C1171 C1172 1.498 . S
C1171 O1186 1.258 . S
C1171 O1187 1.239 . S
C1172 C1171 1.498 . S
C1172 C1173 1.366 . S
C1172 C1177 1.407 . S
C1173 C1172 1.366 . S
C1173 C1174 1.392 . S
C1173 H1196 0.930 . S
C1174 C1173 1.392 . S
C1174 C1175 1.398 . S
C1174 H1197 0.929 . S
C1175 C1174 1.398 . S
C1175 C1176 1.352 . S
C1176 C1175 1.352 . S
C1176 C1177 1.384 . S
C1176 H1198 0.930 . S
C1177 C1172 1.407 . S
C1177 C1176 1.384 . S
C1177 H1199 0.929 . S
C1178 O1188 1.241 . S
C1178 O1189 1.273 . S
C1179 O1190 1.251 . S
C1179 O1191 1.268 . S
O1180 Nd1160 2.500 . S
O1180 C1162 1.258 . S
O1181 Nd1160 2.492 . S
O1181 C1162 1.239 . S
O1182 Nd1160 2.487 . S
O1182 C1169 1.241 . S
O1183 Nd1160 2.682 . S
O1183 Nd1161 2.414 . S
O1183 C1169 1.273 . S
O1184 Nd1160 2.410 . S
O1184 C1170 1.251 . S
O1185 Nd1161 2.424 . S
O1185 C1170 1.268 . S
O1186 Nd1161 2.500 . S
O1186 C1171 1.258 . S
O1187 Nd1161 2.492 . S
O1187 C1171 1.239 . S
O1188 Nd1161 2.487 . S
O1188 C1178 1.241 . S
O1189 Nd1160 2.414 . S
O1189 Nd1161 2.682 . S
O1189 C1178 1.273 . S
O1190 Nd1161 2.410 . S
O1190 C1179 1.251 . S
O1191 Nd1160 2.424 . S
O1191 C1179 1.268 . S
H1192 C1164 0.930 . S
H1193 C1165 0.929 . S
H1194 C1167 0.930 . S
H1195 C1168 0.929 . S
H1196 C1173 0.930 . S
H1197 C1174 0.929 . S
H1198 C1176 0.930 . S
H1199 C1177 0.929 . S
Nd1200 C1202 2.836 . S
Nd1200 O1220 2.500 . S
Nd1200 O1221 2.492 . S
Nd1200 O1222 2.487 . S
Nd1200 O1223 2.682 . S
Nd1200 O1224 2.410 . S
Nd1200 O1229 2.414 . S
Nd1200 O1231 2.424 . S
Nd1201 C1211 2.836 . S
Nd1201 O1223 2.414 . S
Nd1201 O1225 2.424 . S
Nd1201 O1226 2.500 . S
Nd1201 O1227 2.492 . S
Nd1201 O1228 2.487 . S
Nd1201 O1229 2.682 . S
Nd1201 O1230 2.410 . S
C1202 Nd1200 2.836 . S
C1202 C1203 1.498 . S
C1202 O1220 1.258 . S
C1202 O1221 1.239 . S
C1203 C1202 1.498 . S
C1203 C1204 1.366 . S
C1203 C1208 1.407 . S
C1204 C1203 1.366 . S
C1204 C1205 1.392 . S
C1204 H1232 0.930 . S
C1205 C1204 1.392 . S
C1205 C1206 1.398 . S
C1205 H1233 0.929 . S
C1206 C1205 1.398 . S
C1206 C1207 1.352 . S
C1207 C1206 1.352 . S
C1207 C1208 1.384 . S
C1207 H1234 0.930 . S
C1208 C1203 1.407 . S
C1208 C1207 1.384 . S
C1208 H1235 0.929 . S
C1209 O1222 1.241 . S
C1209 O1223 1.273 . S
C1210 O1224 1.251 . S
C1210 O1225 1.268 . S
C1211 Nd1201 2.836 . S
C1211 C1212 1.498 . S
C1211 O1226 1.258 . S
C1211 O1227 1.239 . S
C1212 C1211 1.498 . S
C1212 C1213 1.366 . S
C1212 C1217 1.407 . S
C1213 C1212 1.366 . S
C1213 C1214 1.392 1_455 S
C1213 H1236 0.930 . S
C1214 C1213 1.392 1_655 S
C1214 C1215 1.398 . S
C1214 H1237 0.929 . S
C1215 C1214 1.398 . S
C1215 C1216 1.352 1_655 S
C1216 C1215 1.352 1_455 S
C1216 C1217 1.384 . S
C1216 H1238 0.930 . S
C1217 C1212 1.407 . S
C1217 C1216 1.384 . S
C1217 H1239 0.929 . S
C1218 O1228 1.241 . S
C1218 O1229 1.273 . S
C1219 O1230 1.251 . S
C1219 O1231 1.268 . S
O1220 Nd1200 2.500 . S
O1220 C1202 1.258 . S
O1221 Nd1200 2.492 . S
O1221 C1202 1.239 . S
O1222 Nd1200 2.487 . S
O1222 C1209 1.241 . S
O1223 Nd1200 2.682 . S
O1223 Nd1201 2.414 . S
O1223 C1209 1.273 . S
O1224 Nd1200 2.410 . S
O1224 C1210 1.251 . S
O1225 Nd1201 2.424 . S
O1225 C1210 1.268 . S
O1226 Nd1201 2.500 . S
O1226 C1211 1.258 . S
O1227 Nd1201 2.492 . S
O1227 C1211 1.239 . S
O1228 Nd1201 2.487 . S
O1228 C1218 1.241 . S
O1229 Nd1200 2.414 . S
O1229 Nd1201 2.682 . S
O1229 C1218 1.273 . S
O1230 Nd1201 2.410 . S
O1230 C1219 1.251 . S
O1231 Nd1200 2.424 . S
O1231 C1219 1.268 . S
H1232 C1204 0.930 . S
H1233 C1205 0.929 . S
H1234 C1207 0.930 . S
H1235 C1208 0.929 . S
H1236 C1213 0.930 . S
H1237 C1214 0.929 . S
H1238 C1216 0.930 . S
H1239 C1217 0.929 . S
Nd1240 C1242 2.836 . S
Nd1240 O1260 2.500 . S
Nd1240 O1261 2.492 . S
Nd1240 O1262 2.487 . S
Nd1240 O1263 2.682 . S
Nd1240 O1264 2.410 . S
Nd1240 O1269 2.414 . S
Nd1240 O1271 2.424 . S
Nd1241 C1251 2.836 . S
Nd1241 O1263 2.414 . S
Nd1241 O1265 2.424 . S
Nd1241 O1266 2.500 . S
Nd1241 O1267 2.492 . S
Nd1241 O1268 2.487 . S
Nd1241 O1269 2.682 . S
Nd1241 O1270 2.410 . S
C1242 Nd1240 2.836 . S
C1242 C1243 1.498 . S
C1242 O1260 1.258 . S
C1242 O1261 1.239 . S
C1243 C1242 1.498 . S
C1243 C1244 1.366 . S
C1243 C1248 1.407 . S
C1244 C1243 1.366 . S
C1244 C1245 1.392 . S
C1244 H1272 0.930 . S
C1245 C1244 1.392 . S
C1245 C1246 1.398 . S
C1245 H1273 0.929 . S
C1246 C1245 1.398 . S
C1246 C1247 1.352 . S
C1247 C1246 1.352 . S
C1247 C1248 1.384 . S
C1247 H1274 0.930 . S
C1248 C1243 1.407 . S
C1248 C1247 1.384 . S
C1248 H1275 0.929 . S
C1249 O1262 1.241 . S
C1249 O1263 1.273 . S
C1250 O1264 1.251 . S
C1250 O1265 1.268 . S
C1251 Nd1241 2.836 . S
C1251 C1252 1.498 . S
C1251 O1266 1.258 . S
C1251 O1267 1.239 . S
C1252 C1251 1.498 . S
C1252 C1253 1.366 . S
C1252 C1257 1.407 . S
C1253 C1252 1.366 . S
C1253 C1254 1.392 . S
C1253 H1276 0.930 . S
C1254 C1253 1.392 . S
C1254 C1255 1.398 . S
C1254 H1277 0.929 . S
C1255 C1254 1.398 . S
C1255 C1256 1.352 . S
C1256 C1255 1.352 . S
C1256 C1257 1.384 . S
C1256 H1278 0.930 . S
C1257 C1252 1.407 . S
C1257 C1256 1.384 . S
C1257 H1279 0.929 . S
C1258 O1268 1.241 . S
C1258 O1269 1.273 . S
C1259 O1270 1.251 . S
C1259 O1271 1.268 . S
O1260 Nd1240 2.500 . S
O1260 C1242 1.258 . S
O1261 Nd1240 2.492 . S
O1261 C1242 1.239 . S
O1262 Nd1240 2.487 . S
O1262 C1249 1.241 . S
O1263 Nd1240 2.682 . S
O1263 Nd1241 2.414 . S
O1263 C1249 1.273 . S
O1264 Nd1240 2.410 . S
O1264 C1250 1.251 . S
O1265 Nd1241 2.424 . S
O1265 C1250 1.268 . S
O1266 Nd1241 2.500 . S
O1266 C1251 1.258 . S
O1267 Nd1241 2.492 . S
O1267 C1251 1.239 . S
O1268 Nd1241 2.487 . S
O1268 C1258 1.241 . S
O1269 Nd1240 2.414 . S
O1269 Nd1241 2.682 . S
O1269 C1258 1.273 . S
O1270 Nd1241 2.410 . S
O1270 C1259 1.251 . S
O1271 Nd1240 2.424 . S
O1271 C1259 1.268 . S
H1272 C1244 0.930 . S
H1273 C1245 0.929 . S
H1274 C1247 0.930 . S
H1275 C1248 0.929 . S
H1276 C1253 0.930 . S
H1277 C1254 0.929 . S
H1278 C1256 0.930 . S
H1279 C1257 0.929 . S
C1280 C1281 1.391 . S
C1280 C1282 1.394 . S
C1280 H1296 0.931 . S
C1281 C1280 1.391 . S
C1281 C1285 1.376 . S
C1282 C1280 1.394 . S
C1282 C1283 1.369 . S
C1282 C1286 1.531 . S
C1283 C1282 1.369 . S
C1283 C1284 1.410 . S
C1283 C1291 1.503 . S
C1284 C1283 1.410 . S
C1284 C1285 1.392 . S
C1284 C1287 1.511 . S
C1285 C1281 1.376 . S
C1285 C1284 1.392 . S
C1285 H1297 0.929 . S
C1286 C1282 1.531 . S
C1286 H1298 0.960 . S
C1286 H1299 0.962 . S
C1286 H1300 0.960 . S
C1287 C1284 1.511 . S
C1287 H1301 0.961 . S
C1287 H1302 0.961 . S
C1287 H1303 0.961 . S
C1288 C1289 1.370 . S
C1288 C1290 1.363 . S
C1288 H1304 0.931 . S
C1289 C1288 1.370 . S
C1289 C1293 1.408 . S
C1290 C1288 1.363 . S
C1290 C1291 1.370 . S
C1290 C1294 1.524 . S
C1291 C1283 1.503 . S
C1291 C1290 1.370 . S
C1291 C1292 1.403 . S
C1292 C1291 1.403 . S
C1292 C1293 1.404 . S
C1292 C1295 1.539 . S
C1293 C1289 1.408 . S
C1293 C1292 1.404 . S
C1293 H1305 0.930 . S
C1294 C1290 1.524 . S
C1294 H1306 0.956 . S
C1294 H1307 0.961 . S
C1294 H1308 0.961 . S
C1295 C1292 1.539 . S
C1295 H1309 0.958 . S
C1295 H1310 0.961 . S
C1295 H1311 0.960 . S
H1296 C1280 0.931 . S
H1297 C1285 0.929 . S
H1298 C1286 0.960 . S
H1299 C1286 0.962 . S
H1300 C1286 0.960 . S
H1301 C1287 0.961 . S
H1302 C1287 0.961 . S
H1303 C1287 0.961 . S
H1304 C1288 0.931 . S
H1305 C1293 0.930 . S
H1306 C1294 0.956 . S
H1307 C1294 0.961 . S
H1308 C1294 0.961 . S
H1309 C1295 0.958 . S
H1310 C1295 0.961 . S
H1311 C1295 0.960 . S
C1312 C1313 1.391 . S
C1312 C1314 1.394 . S
C1312 H1328 0.931 . S
C1313 C1312 1.391 . S
C1313 C1317 1.376 . S
C1314 C1312 1.394 . S
C1314 C1315 1.369 . S
C1314 C1318 1.531 . S
C1315 C1314 1.369 . S
C1315 C1316 1.410 . S
C1315 C1323 1.503 . S
C1316 C1315 1.410 . S
C1316 C1317 1.392 . S
C1316 C1319 1.511 . S
C1317 C1313 1.376 . S
C1317 C1316 1.392 . S
C1317 H1329 0.929 . S
C1318 C1314 1.531 . S
C1318 H1330 0.960 . S
C1318 H1331 0.962 . S
C1318 H1332 0.960 . S
C1319 C1316 1.511 . S
C1319 H1333 0.961 . S
C1319 H1334 0.961 . S
C1319 H1335 0.961 . S
C1320 C1321 1.370 . S
C1320 C1322 1.363 . S
C1320 H1336 0.931 . S
C1321 C1320 1.370 . S
C1321 C1325 1.408 . S
C1322 C1320 1.363 . S
C1322 C1323 1.370 . S
C1322 C1326 1.524 . S
C1323 C1315 1.503 . S
C1323 C1322 1.370 . S
C1323 C1324 1.403 . S
C1324 C1323 1.403 . S
C1324 C1325 1.404 . S
C1324 C1327 1.539 . S
C1325 C1321 1.408 . S
C1325 C1324 1.404 . S
C1325 H1337 0.930 . S
C1326 C1322 1.524 . S
C1326 H1338 0.956 . S
C1326 H1339 0.961 . S
C1326 H1340 0.961 . S
C1327 C1324 1.539 . S
C1327 H1341 0.958 . S
C1327 H1342 0.961 . S
C1327 H1343 0.960 . S
H1328 C1312 0.931 . S
H1329 C1317 0.929 . S
H1330 C1318 0.960 . S
H1331 C1318 0.962 . S
H1332 C1318 0.960 . S
H1333 C1319 0.961 . S
H1334 C1319 0.961 . S
H1335 C1319 0.961 . S
H1336 C1320 0.931 . S
H1337 C1325 0.930 . S
H1338 C1326 0.956 . S
H1339 C1326 0.961 . S
H1340 C1326 0.961 . S
H1341 C1327 0.958 . S
H1342 C1327 0.961 . S
H1343 C1327 0.960 . S
C1344 C1345 1.391 . S
C1344 C1346 1.394 . S
C1344 H1360 0.931 . S
C1345 C1344 1.391 . S
C1345 C1349 1.376 . S
C1346 C1344 1.394 . S
C1346 C1347 1.369 . S
C1346 C1350 1.531 . S
C1347 C1346 1.369 . S
C1347 C1348 1.410 . S
C1347 C1355 1.503 . S
C1348 C1347 1.410 . S
C1348 C1349 1.392 . S
C1348 C1351 1.511 . S
C1349 C1345 1.376 . S
C1349 C1348 1.392 . S
C1349 H1361 0.929 . S
C1350 C1346 1.531 . S
C1350 H1362 0.960 . S
C1350 H1363 0.962 . S
C1350 H1364 0.960 . S
C1351 C1348 1.511 . S
C1351 H1365 0.961 . S
C1351 H1366 0.961 . S
C1351 H1367 0.961 . S
C1352 C1353 1.370 . S
C1352 C1354 1.363 . S
C1352 H1368 0.931 . S
C1353 C1352 1.370 . S
C1353 C1357 1.408 . S
C1354 C1352 1.363 . S
C1354 C1355 1.370 . S
C1354 C1358 1.524 . S
C1355 C1347 1.503 . S
C1355 C1354 1.370 . S
C1355 C1356 1.403 . S
C1356 C1355 1.403 . S
C1356 C1357 1.404 . S
C1356 C1359 1.539 . S
C1357 C1353 1.408 . S
C1357 C1356 1.404 . S
C1357 H1369 0.930 . S
C1358 C1354 1.524 . S
C1358 H1370 0.956 . S
C1358 H1371 0.961 . S
C1358 H1372 0.961 . S
C1359 C1356 1.539 . S
C1359 H1373 0.958 . S
C1359 H1374 0.961 . S
C1359 H1375 0.960 . S
H1360 C1344 0.931 . S
H1361 C1349 0.929 . S
H1362 C1350 0.960 . S
H1363 C1350 0.962 . S
H1364 C1350 0.960 . S
H1365 C1351 0.961 . S
H1366 C1351 0.961 . S
H1367 C1351 0.961 . S
H1368 C1352 0.931 . S
H1369 C1357 0.930 . S
H1370 C1358 0.956 . S
H1371 C1358 0.961 . S
H1372 C1358 0.961 . S
H1373 C1359 0.958 . S
H1374 C1359 0.961 . S
H1375 C1359 0.960 . S
C1376 C1377 1.391 . S
C1376 C1378 1.394 . S
C1376 H1392 0.931 . S
C1377 C1376 1.391 . S
C1377 C1381 1.376 . S
C1378 C1376 1.394 . S
C1378 C1379 1.369 . S
C1378 C1382 1.531 . S
C1379 C1378 1.369 . S
C1379 C1380 1.410 . S
C1379 C1387 1.503 . S
C1380 C1379 1.410 . S
C1380 C1381 1.392 . S
C1380 C1383 1.511 . S
C1381 C1377 1.376 . S
C1381 C1380 1.392 . S
C1381 H1393 0.929 . S
C1382 C1378 1.531 . S
C1382 H1394 0.960 . S
C1382 H1395 0.962 . S
C1382 H1396 0.960 . S
C1383 C1380 1.511 . S
C1383 H1397 0.961 . S
C1383 H1398 0.961 . S
C1383 H1399 0.961 . S
C1384 C1385 1.370 . S
C1384 C1386 1.363 . S
C1384 H1400 0.931 . S
C1385 C1384 1.370 . S
C1385 C1389 1.408 . S
C1386 C1384 1.363 . S
C1386 C1387 1.370 . S
C1386 C1390 1.524 . S
C1387 C1379 1.503 . S
C1387 C1386 1.370 . S
C1387 C1388 1.403 . S
C1388 C1387 1.403 . S
C1388 C1389 1.404 . S
C1388 C1391 1.539 . S
C1389 C1385 1.408 . S
C1389 C1388 1.404 . S
C1389 H1401 0.930 . S
C1390 C1386 1.524 . S
C1390 H1402 0.956 . S
C1390 H1403 0.961 . S
C1390 H1404 0.961 . S
C1391 C1388 1.539 . S
C1391 H1405 0.958 . S
C1391 H1406 0.961 . S
C1391 H1407 0.960 . S
H1392 C1376 0.931 . S
H1393 C1381 0.929 . S
H1394 C1382 0.960 . S
H1395 C1382 0.962 . S
H1396 C1382 0.960 . S
H1397 C1383 0.961 . S
H1398 C1383 0.961 . S
H1399 C1383 0.961 . S
H1400 C1384 0.931 . S
H1401 C1389 0.930 . S
H1402 C1390 0.956 . S
H1403 C1390 0.961 . S
H1404 C1390 0.961 . S
H1405 C1391 0.958 . S
H1406 C1391 0.961 . S
H1407 C1391 0.960 . S
C1408 C1409 1.391 . S
C1408 C1410 1.394 . S
C1408 H1424 0.931 . S
C1409 C1408 1.391 . S
C1409 C1413 1.376 . S
C1410 C1408 1.394 . S
C1410 C1411 1.369 . S
C1410 C1414 1.531 . S
C1411 C1410 1.369 . S
C1411 C1412 1.410 . S
C1411 C1419 1.503 . S
C1412 C1411 1.410 . S
C1412 C1413 1.392 . S
C1412 C1415 1.511 . S
C1413 C1409 1.376 . S
C1413 C1412 1.392 . S
C1413 H1425 0.929 . S
C1414 C1410 1.531 . S
C1414 H1426 0.960 . S
C1414 H1427 0.962 . S
C1414 H1428 0.960 . S
C1415 C1412 1.511 . S
C1415 H1429 0.961 . S
C1415 H1430 0.961 . S
C1415 H1431 0.961 . S
C1416 C1417 1.370 . S
C1416 C1418 1.363 . S
C1416 H1432 0.931 . S
C1417 C1416 1.370 . S
C1417 C1421 1.408 . S
C1418 C1416 1.363 . S
C1418 C1419 1.370 . S
C1418 C1422 1.524 . S
C1419 C1411 1.503 . S
C1419 C1418 1.370 . S
C1419 C1420 1.403 . S
C1420 C1419 1.403 . S
C1420 C1421 1.404 . S
C1420 C1423 1.539 . S
C1421 C1417 1.408 . S
C1421 C1420 1.404 . S
C1421 H1433 0.930 . S
C1422 C1418 1.524 . S
C1422 H1434 0.956 . S
C1422 H1435 0.961 . S
C1422 H1436 0.961 . S
C1423 C1420 1.539 . S
C1423 H1437 0.958 . S
C1423 H1438 0.961 . S
C1423 H1439 0.960 . S
H1424 C1408 0.931 . S
H1425 C1413 0.929 . S
H1426 C1414 0.960 . S
H1427 C1414 0.962 . S
H1428 C1414 0.960 . S
H1429 C1415 0.961 . S
H1430 C1415 0.961 . S
H1431 C1415 0.961 . S
H1432 C1416 0.931 . S
H1433 C1421 0.930 . S
H1434 C1422 0.956 . S
H1435 C1422 0.961 . S
H1436 C1422 0.961 . S
H1437 C1423 0.958 . S
H1438 C1423 0.961 . S
H1439 C1423 0.960 . S
C1440 C1441 1.391 . S
C1440 C1442 1.394 . S
C1440 H1456 0.931 . S
C1441 C1440 1.391 . S
C1441 C1445 1.376 . S
C1442 C1440 1.394 . S
C1442 C1443 1.369 . S
C1442 C1446 1.531 . S
C1443 C1442 1.369 . S
C1443 C1444 1.410 . S
C1443 C1451 1.503 . S
C1444 C1443 1.410 . S
C1444 C1445 1.392 . S
C1444 C1447 1.511 . S
C1445 C1441 1.376 . S
C1445 C1444 1.392 . S
C1445 H1457 0.929 . S
C1446 C1442 1.531 . S
C1446 H1458 0.960 . S
C1446 H1459 0.962 . S
C1446 H1460 0.960 . S
C1447 C1444 1.511 . S
C1447 H1461 0.961 . S
C1447 H1462 0.961 . S
C1447 H1463 0.961 . S
C1448 C1449 1.370 . S
C1448 C1450 1.363 . S
C1448 H1464 0.931 . S
C1449 C1448 1.370 . S
C1449 C1453 1.408 . S
C1450 C1448 1.363 . S
C1450 C1451 1.370 . S
C1450 C1454 1.524 . S
C1451 C1443 1.503 . S
C1451 C1450 1.370 . S
C1451 C1452 1.403 . S
C1452 C1451 1.403 . S
C1452 C1453 1.404 . S
C1452 C1455 1.539 . S
C1453 C1449 1.408 . S
C1453 C1452 1.404 . S
C1453 H1465 0.930 . S
C1454 C1450 1.524 . S
C1454 H1466 0.956 . S
C1454 H1467 0.961 . S
C1454 H1468 0.961 . S
C1455 C1452 1.539 . S
C1455 H1469 0.958 . S
C1455 H1470 0.961 . S
C1455 H1471 0.960 . S
H1456 C1440 0.931 . S
H1457 C1445 0.929 . S
H1458 C1446 0.960 . S
H1459 C1446 0.962 . S
H1460 C1446 0.960 . S
H1461 C1447 0.961 . S
H1462 C1447 0.961 . S
H1463 C1447 0.961 . S
H1464 C1448 0.931 . S
H1465 C1453 0.930 . S
H1466 C1454 0.956 . S
H1467 C1454 0.961 . S
H1468 C1454 0.961 . S
H1469 C1455 0.958 . S
H1470 C1455 0.961 . S
H1471 C1455 0.960 . S
C1472 C1473 1.391 . S
C1472 C1474 1.394 . S
C1472 H1488 0.931 . S
C1473 C1472 1.391 . S
C1473 C1477 1.376 . S
C1474 C1472 1.394 . S
C1474 C1475 1.369 . S
C1474 C1478 1.531 . S
C1475 C1474 1.369 . S
C1475 C1476 1.410 . S
C1475 C1483 1.503 . S
C1476 C1475 1.410 . S
C1476 C1477 1.392 . S
C1476 C1479 1.511 . S
C1477 C1473 1.376 . S
C1477 C1476 1.392 . S
C1477 H1489 0.929 . S
C1478 C1474 1.531 . S
C1478 H1490 0.960 . S
C1478 H1491 0.962 . S
C1478 H1492 0.960 . S
C1479 C1476 1.511 . S
C1479 H1493 0.961 . S
C1479 H1494 0.961 . S
C1479 H1495 0.961 . S
C1480 C1481 1.370 . S
C1480 C1482 1.363 . S
C1480 H1496 0.931 . S
C1481 C1480 1.370 . S
C1481 C1485 1.408 . S
C1482 C1480 1.363 . S
C1482 C1483 1.370 . S
C1482 C1486 1.524 . S
C1483 C1475 1.503 . S
C1483 C1482 1.370 . S
C1483 C1484 1.403 . S
C1484 C1483 1.403 . S
C1484 C1485 1.404 . S
C1484 C1487 1.539 . S
C1485 C1481 1.408 . S
C1485 C1484 1.404 . S
C1485 H1497 0.930 . S
C1486 C1482 1.524 . S
C1486 H1498 0.956 . S
C1486 H1499 0.961 . S
C1486 H1500 0.961 . S
C1487 C1484 1.539 . S
C1487 H1501 0.958 . S
C1487 H1502 0.961 . S
C1487 H1503 0.960 . S
H1488 C1472 0.931 . S
H1489 C1477 0.929 . S
H1490 C1478 0.960 . S
H1491 C1478 0.962 . S
H1492 C1478 0.960 . S
H1493 C1479 0.961 . S
H1494 C1479 0.961 . S
H1495 C1479 0.961 . S
H1496 C1480 0.931 . S
H1497 C1485 0.930 . S
H1498 C1486 0.956 . S
H1499 C1486 0.961 . S
H1500 C1486 0.961 . S
H1501 C1487 0.958 . S
H1502 C1487 0.961 . S
H1503 C1487 0.960 . S
C1504 C1505 1.391 . S
C1504 C1506 1.394 . S
C1504 H1520 0.931 . S
C1505 C1504 1.391 . S
C1505 C1509 1.376 . S
C1506 C1504 1.394 . S
C1506 C1507 1.369 . S
C1506 C1510 1.531 . S
C1507 C1506 1.369 . S
C1507 C1508 1.410 . S
C1507 C1515 1.503 . S
C1508 C1507 1.410 . S
C1508 C1509 1.392 . S
C1508 C1511 1.511 . S
C1509 C1505 1.376 . S
C1509 C1508 1.392 . S
C1509 H1521 0.929 . S
C1510 C1506 1.531 . S
C1510 H1522 0.960 . S
C1510 H1523 0.962 . S
C1510 H1524 0.960 . S
C1511 C1508 1.511 . S
C1511 H1525 0.961 . S
C1511 H1526 0.961 . S
C1511 H1527 0.961 . S
C1512 C1513 1.370 . S
C1512 C1514 1.363 . S
C1512 H1528 0.931 . S
C1513 C1512 1.370 . S
C1513 C1517 1.408 . S
C1514 C1512 1.363 . S
C1514 C1515 1.370 . S
C1514 C1518 1.524 . S
C1515 C1507 1.503 . S
C1515 C1514 1.370 . S
C1515 C1516 1.403 . S
C1516 C1515 1.403 . S
C1516 C1517 1.404 . S
C1516 C1519 1.539 . S
C1517 C1513 1.408 . S
C1517 C1516 1.404 . S
C1517 H1529 0.930 . S
C1518 C1514 1.524 . S
C1518 H1530 0.956 . S
C1518 H1531 0.961 . S
C1518 H1532 0.961 . S
C1519 C1516 1.539 . S
C1519 H1533 0.958 . S
C1519 H1534 0.961 . S
C1519 H1535 0.960 . S
H1520 C1504 0.931 . S
H1521 C1509 0.929 . S
H1522 C1510 0.960 . S
H1523 C1510 0.962 . S
H1524 C1510 0.960 . S
H1525 C1511 0.961 . S
H1526 C1511 0.961 . S
H1527 C1511 0.961 . S
H1528 C1512 0.931 . S
H1529 C1517 0.930 . S
H1530 C1518 0.956 . S
H1531 C1518 0.961 . S
H1532 C1518 0.961 . S
H1533 C1519 0.958 . S
H1534 C1519 0.961 . S
H1535 C1519 0.960 . S
C1536 C1537 1.391 . S
C1536 C1538 1.394 . S
C1536 H1552 0.931 . S
C1537 C1536 1.391 . S
C1537 C1541 1.376 . S
C1538 C1536 1.394 . S
C1538 C1539 1.369 . S
C1538 C1542 1.531 . S
C1539 C1538 1.369 . S
C1539 C1540 1.410 . S
C1539 C1547 1.503 . S
C1540 C1539 1.410 . S
C1540 C1541 1.392 . S
C1540 C1543 1.511 . S
C1541 C1537 1.376 . S
C1541 C1540 1.392 . S
C1541 H1553 0.929 . S
C1542 C1538 1.531 . S
C1542 H1554 0.960 . S
C1542 H1555 0.962 . S
C1542 H1556 0.960 . S
C1543 C1540 1.511 . S
C1543 H1557 0.961 . S
C1543 H1558 0.961 . S
C1543 H1559 0.961 . S
C1544 C1545 1.370 . S
C1544 C1546 1.363 . S
C1544 H1560 0.931 . S
C1545 C1544 1.370 . S
C1545 C1549 1.408 . S
C1546 C1544 1.363 . S
C1546 C1547 1.370 . S
C1546 C1550 1.524 . S
C1547 C1539 1.503 . S
C1547 C1546 1.370 . S
C1547 C1548 1.403 . S
C1548 C1547 1.403 . S
C1548 C1549 1.404 . S
C1548 C1551 1.539 . S
C1549 C1545 1.408 . S
C1549 C1548 1.404 . S
C1549 H1561 0.930 . S
C1550 C1546 1.524 . S
C1550 H1562 0.956 . S
C1550 H1563 0.961 . S
C1550 H1564 0.961 . S
C1551 C1548 1.539 . S
C1551 H1565 0.958 . S
C1551 H1566 0.961 . S
C1551 H1567 0.960 . S
H1552 C1536 0.931 . S
H1553 C1541 0.929 . S
H1554 C1542 0.960 . S
H1555 C1542 0.962 . S
H1556 C1542 0.960 . S
H1557 C1543 0.961 . S
H1558 C1543 0.961 . S
H1559 C1543 0.961 . S
H1560 C1544 0.931 . S
H1561 C1549 0.930 . S
H1562 C1550 0.956 . S
H1563 C1550 0.961 . S
H1564 C1550 0.961 . S
H1565 C1551 0.958 . S
H1566 C1551 0.961 . S
H1567 C1551 0.960 . S
C1568 C1569 1.391 . S
C1568 C1570 1.394 . S
C1568 H1584 0.931 . S
C1569 C1568 1.391 . S
C1569 C1573 1.376 . S
C1570 C1568 1.394 . S
C1570 C1571 1.369 . S
C1570 C1574 1.531 . S
C1571 C1570 1.369 . S
C1571 C1572 1.410 . S
C1571 C1579 1.503 . S
C1572 C1571 1.410 . S
C1572 C1573 1.392 . S
C1572 C1575 1.511 . S
C1573 C1569 1.376 . S
C1573 C1572 1.392 . S
C1573 H1585 0.929 . S
C1574 C1570 1.531 . S
C1574 H1586 0.960 . S
C1574 H1587 0.962 . S
C1574 H1588 0.960 . S
C1575 C1572 1.511 . S
C1575 H1589 0.961 . S
C1575 H1590 0.961 . S
C1575 H1591 0.961 . S
C1576 C1577 1.370 . S
C1576 C1578 1.363 . S
C1576 H1592 0.931 . S
C1577 C1576 1.370 . S
C1577 C1581 1.408 . S
C1578 C1576 1.363 . S
C1578 C1579 1.370 . S
C1578 C1582 1.524 . S
C1579 C1571 1.503 . S
C1579 C1578 1.370 . S
C1579 C1580 1.403 . S
C1580 C1579 1.403 . S
C1580 C1581 1.404 . S
C1580 C1583 1.539 . S
C1581 C1577 1.408 . S
C1581 C1580 1.404 . S
C1581 H1593 0.930 1_655 S
C1582 C1578 1.524 . S
C1582 H1594 0.956 . S
C1582 H1595 0.961 . S
C1582 H1596 0.961 . S
C1583 C1580 1.539 . S
C1583 H1597 0.958 . S
C1583 H1598 0.961 1_655 S
C1583 H1599 0.960 . S
H1584 C1568 0.931 . S
H1585 C1573 0.929 . S
H1586 C1574 0.960 . S
H1587 C1574 0.962 . S
H1588 C1574 0.960 . S
H1589 C1575 0.961 . S
H1590 C1575 0.961 . S
H1591 C1575 0.961 . S
H1592 C1576 0.931 . S
H1593 C1581 0.930 1_455 S
H1594 C1582 0.956 . S
H1595 C1582 0.961 . S
H1596 C1582 0.961 . S
H1597 C1583 0.958 . S
H1598 C1583 0.961 1_455 S
H1599 C1583 0.960 . S
C1600 C1601 1.391 . S
C1600 C1602 1.394 . S
C1600 H1616 0.931 . S
C1601 C1600 1.391 . S
C1601 C1605 1.376 . S
C1602 C1600 1.394 . S
C1602 C1603 1.369 . S
C1602 C1606 1.531 . S
C1603 C1602 1.369 . S
C1603 C1604 1.410 . S
C1603 C1611 1.503 . S
C1604 C1603 1.410 . S
C1604 C1605 1.392 . S
C1604 C1607 1.511 . S
C1605 C1601 1.376 . S
C1605 C1604 1.392 . S
C1605 H1617 0.929 . S
C1606 C1602 1.531 . S
C1606 H1618 0.960 . S
C1606 H1619 0.962 . S
C1606 H1620 0.960 . S
C1607 C1604 1.511 . S
C1607 H1621 0.961 . S
C1607 H1622 0.961 . S
C1607 H1623 0.961 . S
C1608 C1609 1.370 . S
C1608 C1610 1.363 . S
C1608 H1624 0.931 . S
C1609 C1608 1.370 . S
C1609 C1613 1.408 . S
C1610 C1608 1.363 . S
C1610 C1611 1.370 . S
C1610 C1614 1.524 . S
C1611 C1603 1.503 . S
C1611 C1610 1.370 . S
C1611 C1612 1.403 . S
C1612 C1611 1.403 . S
C1612 C1613 1.404 . S
C1612 C1615 1.539 . S
C1613 C1609 1.408 . S
C1613 C1612 1.404 . S
C1613 H1625 0.930 . S
C1614 C1610 1.524 . S
C1614 H1626 0.956 . S
C1614 H1627 0.961 . S
C1614 H1628 0.961 . S
C1615 C1612 1.539 . S
C1615 H1629 0.958 . S
C1615 H1630 0.961 . S
C1615 H1631 0.960 . S
H1616 C1600 0.931 . S
H1617 C1605 0.929 . S
H1618 C1606 0.960 . S
H1619 C1606 0.962 . S
H1620 C1606 0.960 . S
H1621 C1607 0.961 . S
H1622 C1607 0.961 . S
H1623 C1607 0.961 . S
H1624 C1608 0.931 . S
H1625 C1613 0.930 . S
H1626 C1614 0.956 . S
H1627 C1614 0.961 . S
H1628 C1614 0.961 . S
H1629 C1615 0.958 . S
H1630 C1615 0.961 . S
H1631 C1615 0.960 . S
C1632 C1633 1.391 . S
C1632 C1634 1.394 . S
C1632 H1648 0.931 . S
C1633 C1632 1.391 . S
C1633 C1637 1.376 . S
C1634 C1632 1.394 . S
C1634 C1635 1.369 . S
C1634 C1638 1.531 . S
C1635 C1634 1.369 . S
C1635 C1636 1.410 . S
C1635 C1643 1.503 . S
C1636 C1635 1.410 . S
C1636 C1637 1.392 . S
C1636 C1639 1.511 . S
C1637 C1633 1.376 . S
C1637 C1636 1.392 . S
C1637 H1649 0.929 . S
C1638 C1634 1.531 . S
C1638 H1650 0.960 . S
C1638 H1651 0.962 . S
C1638 H1652 0.960 . S
C1639 C1636 1.511 . S
C1639 H1653 0.961 . S
C1639 H1654 0.961 . S
C1639 H1655 0.961 . S
C1640 C1641 1.370 . S
C1640 C1642 1.363 . S
C1640 H1656 0.931 . S
C1641 C1640 1.370 . S
C1641 C1645 1.408 . S
C1642 C1640 1.363 . S
C1642 C1643 1.370 . S
C1642 C1646 1.524 . S
C1643 C1635 1.503 . S
C1643 C1642 1.370 . S
C1643 C1644 1.403 . S
C1644 C1643 1.403 . S
C1644 C1645 1.404 . S
C1644 C1647 1.539 . S
C1645 C1641 1.408 . S
C1645 C1644 1.404 . S
C1645 H1657 0.930 . S
C1646 C1642 1.524 . S
C1646 H1658 0.956 . S
C1646 H1659 0.961 . S
C1646 H1660 0.961 . S
C1647 C1644 1.539 . S
C1647 H1661 0.958 . S
C1647 H1662 0.961 . S
C1647 H1663 0.960 . S
H1648 C1632 0.931 . S
H1649 C1637 0.929 . S
H1650 C1638 0.960 . S
H1651 C1638 0.962 . S
H1652 C1638 0.960 . S
H1653 C1639 0.961 . S
H1654 C1639 0.961 . S
H1655 C1639 0.961 . S
H1656 C1640 0.931 . S
H1657 C1645 0.930 . S
H1658 C1646 0.956 . S
H1659 C1646 0.961 . S
H1660 C1646 0.961 . S
H1661 C1647 0.958 . S
H1662 C1647 0.961 . S
H1663 C1647 0.960 . S
C1664 C1665 1.391 . S
C1664 C1666 1.394 . S
C1664 H1680 0.931 . S
C1665 C1664 1.391 . S
C1665 C1669 1.376 . S
C1666 C1664 1.394 . S
C1666 C1667 1.369 . S
C1666 C1670 1.531 . S
C1667 C1666 1.369 . S
C1667 C1668 1.410 . S
C1667 C1675 1.503 . S
C1668 C1667 1.410 . S
C1668 C1669 1.392 . S
C1668 C1671 1.511 . S
C1669 C1665 1.376 . S
C1669 C1668 1.392 . S
C1669 H1681 0.929 . S
C1670 C1666 1.531 . S
C1670 H1682 0.960 . S
C1670 H1683 0.962 . S
C1670 H1684 0.960 . S
C1671 C1668 1.511 . S
C1671 H1685 0.961 . S
C1671 H1686 0.961 . S
C1671 H1687 0.961 . S
C1672 C1673 1.370 . S
C1672 C1674 1.363 . S
C1672 H1688 0.931 . S
C1673 C1672 1.370 . S
C1673 C1677 1.408 . S
C1674 C1672 1.363 . S
C1674 C1675 1.370 . S
C1674 C1678 1.524 . S
C1675 C1667 1.503 . S
C1675 C1674 1.370 . S
C1675 C1676 1.403 . S
C1676 C1675 1.403 . S
C1676 C1677 1.404 . S
C1676 C1679 1.539 . S
C1677 C1673 1.408 . S
C1677 C1676 1.404 . S
C1677 H1689 0.930 . S
C1678 C1674 1.524 . S
C1678 H1690 0.956 . S
C1678 H1691 0.961 . S
C1678 H1692 0.961 . S
C1679 C1676 1.539 . S
C1679 H1693 0.958 . S
C1679 H1694 0.961 . S
C1679 H1695 0.960 . S
H1680 C1664 0.931 . S
H1681 C1669 0.929 . S
H1682 C1670 0.960 . S
H1683 C1670 0.962 . S
H1684 C1670 0.960 . S
H1685 C1671 0.961 . S
H1686 C1671 0.961 . S
H1687 C1671 0.961 . S
H1688 C1672 0.931 . S
H1689 C1677 0.930 . S
H1690 C1678 0.956 . S
H1691 C1678 0.961 . S
H1692 C1678 0.961 . S
H1693 C1679 0.958 . S
H1694 C1679 0.961 . S
H1695 C1679 0.960 . S
C1696 C1697 1.391 . S
C1696 C1698 1.394 . S
C1696 H1712 0.931 . S
C1697 C1696 1.391 . S
C1697 C1701 1.376 . S
C1698 C1696 1.394 . S
C1698 C1699 1.369 . S
C1698 C1702 1.531 . S
C1699 C1698 1.369 . S
C1699 C1700 1.410 . S
C1699 C1707 1.503 . S
C1700 C1699 1.410 . S
C1700 C1701 1.392 . S
C1700 C1703 1.511 . S
C1701 C1697 1.376 . S
C1701 C1700 1.392 . S
C1701 H1713 0.929 . S
C1702 C1698 1.531 . S
C1702 H1714 0.960 . S
C1702 H1715 0.962 . S
C1702 H1716 0.960 . S
C1703 C1700 1.511 . S
C1703 H1717 0.961 . S
C1703 H1718 0.961 . S
C1703 H1719 0.961 . S
C1704 C1705 1.370 . S
C1704 C1706 1.363 . S
C1704 H1720 0.931 . S
C1705 C1704 1.370 . S
C1705 C1709 1.408 . S
C1706 C1704 1.363 . S
C1706 C1707 1.370 . S
C1706 C1710 1.524 . S
C1707 C1699 1.503 . S
C1707 C1706 1.370 . S
C1707 C1708 1.403 . S
C1708 C1707 1.403 . S
C1708 C1709 1.404 . S
C1708 C1711 1.539 . S
C1709 C1705 1.408 . S
C1709 C1708 1.404 . S
C1709 H1721 0.930 . S
C1710 C1706 1.524 . S
C1710 H1722 0.956 . S
C1710 H1723 0.961 . S
C1710 H1724 0.961 . S
C1711 C1708 1.539 . S
C1711 H1725 0.958 . S
C1711 H1726 0.961 . S
C1711 H1727 0.960 . S
H1712 C1696 0.931 . S
H1713 C1701 0.929 . S
H1714 C1702 0.960 . S
H1715 C1702 0.962 . S
H1716 C1702 0.960 . S
H1717 C1703 0.961 . S
H1718 C1703 0.961 . S
H1719 C1703 0.961 . S
H1720 C1704 0.931 . S
H1721 C1709 0.930 . S
H1722 C1710 0.956 . S
H1723 C1710 0.961 . S
H1724 C1710 0.961 . S
H1725 C1711 0.958 . S
H1726 C1711 0.961 . S
H1727 C1711 0.960 . S
C1728 C1729 1.391 . S
C1728 C1730 1.394 . S
C1728 H1744 0.931 . S
C1729 C1728 1.391 . S
C1729 C1733 1.376 . S
C1730 C1728 1.394 . S
C1730 C1731 1.369 . S
C1730 C1734 1.531 . S
C1731 C1730 1.369 . S
C1731 C1732 1.410 . S
C1731 C1739 1.503 . S
C1732 C1731 1.410 . S
C1732 C1733 1.392 . S
C1732 C1735 1.511 . S
C1733 C1729 1.376 . S
C1733 C1732 1.392 . S
C1733 H1745 0.929 . S
C1734 C1730 1.531 . S
C1734 H1746 0.960 . S
C1734 H1747 0.962 . S
C1734 H1748 0.960 . S
C1735 C1732 1.511 . S
C1735 H1749 0.961 . S
C1735 H1750 0.961 . S
C1735 H1751 0.961 . S
C1736 C1737 1.370 . S
C1736 C1738 1.363 . S
C1736 H1752 0.931 . S
C1737 C1736 1.370 . S
C1737 C1741 1.408 . S
C1738 C1736 1.363 . S
C1738 C1739 1.370 . S
C1738 C1742 1.524 . S
C1739 C1731 1.503 . S
C1739 C1738 1.370 . S
C1739 C1740 1.403 . S
C1740 C1739 1.403 . S
C1740 C1741 1.404 . S
C1740 C1743 1.539 . S
C1741 C1737 1.408 . S
C1741 C1740 1.404 . S
C1741 H1753 0.930 . S
C1742 C1738 1.524 . S
C1742 H1754 0.956 . S
C1742 H1755 0.961 . S
C1742 H1756 0.961 . S
C1743 C1740 1.539 . S
C1743 H1757 0.958 . S
C1743 H1758 0.961 . S
C1743 H1759 0.960 . S
H1744 C1728 0.931 . S
H1745 C1733 0.929 . S
H1746 C1734 0.960 . S
H1747 C1734 0.962 . S
H1748 C1734 0.960 . S
H1749 C1735 0.961 . S
H1750 C1735 0.961 . S
H1751 C1735 0.961 . S
H1752 C1736 0.931 . S
H1753 C1741 0.930 . S
H1754 C1742 0.956 . S
H1755 C1742 0.961 . S
H1756 C1742 0.961 . S
H1757 C1743 0.958 . S
H1758 C1743 0.961 . S
H1759 C1743 0.960 . S
C1760 C1761 1.391 . S
C1760 C1762 1.394 . S
C1760 H1776 0.931 1_655 S
C1761 C1760 1.391 . S
C1761 C1765 1.376 . S
C1762 C1760 1.394 . S
C1762 C1763 1.369 . S
C1762 C1766 1.531 . S
C1763 C1762 1.369 . S
C1763 C1764 1.410 . S
C1763 C1771 1.503 . S
C1764 C1763 1.410 . S
C1764 C1765 1.392 . S
C1764 C1767 1.511 . S
C1765 C1761 1.376 . S
C1765 C1764 1.392 . S
C1765 H1777 0.929 . S
C1766 C1762 1.531 . S
C1766 H1778 0.960 . S
C1766 H1779 0.962 . S
C1766 H1780 0.960 1_655 S
C1767 C1764 1.511 . S
C1767 H1781 0.961 . S
C1767 H1782 0.961 . S
C1767 H1783 0.961 . S
C1768 C1769 1.370 . S
C1768 C1770 1.363 . S
C1768 H1784 0.931 . S
C1769 C1768 1.370 . S
C1769 C1773 1.408 . S
C1770 C1768 1.363 . S
C1770 C1771 1.370 . S
C1770 C1774 1.524 . S
C1771 C1763 1.503 . S
C1771 C1770 1.370 . S
C1771 C1772 1.403 . S
C1772 C1771 1.403 . S
C1772 C1773 1.404 . S
C1772 C1775 1.539 . S
C1773 C1769 1.408 . S
C1773 C1772 1.404 . S
C1773 H1785 0.930 . S
C1774 C1770 1.524 . S
C1774 H1786 0.956 . S
C1774 H1787 0.961 . S
C1774 H1788 0.961 . S
C1775 C1772 1.539 . S
C1775 H1789 0.958 . S
C1775 H1790 0.961 . S
C1775 H1791 0.960 . S
H1776 C1760 0.931 1_455 S
H1777 C1765 0.929 . S
H1778 C1766 0.960 . S
H1779 C1766 0.962 . S
H1780 C1766 0.960 1_455 S
H1781 C1767 0.961 . S
H1782 C1767 0.961 . S
H1783 C1767 0.961 . S
H1784 C1768 0.931 . S
H1785 C1773 0.930 . S
H1786 C1774 0.956 . S
H1787 C1774 0.961 . S
H1788 C1774 0.961 . S
H1789 C1775 0.958 . S
H1790 C1775 0.961 . S
H1791 C1775 0.960 . S
C1792 C1793 1.391 . S
C1792 C1794 1.394 . S
C1792 H1808 0.931 . S
C1793 C1792 1.391 . S
C1793 C1797 1.376 . S
C1794 C1792 1.394 . S
C1794 C1795 1.369 . S
C1794 C1798 1.531 . S
C1795 C1794 1.369 . S
C1795 C1796 1.410 . S
C1795 C1803 1.503 . S
C1796 C1795 1.410 . S
C1796 C1797 1.392 . S
C1796 C1799 1.511 . S
C1797 C1793 1.376 . S
C1797 C1796 1.392 . S
C1797 H1809 0.929 . S
C1798 C1794 1.531 . S
C1798 H1810 0.960 . S
C1798 H1811 0.962 . S
C1798 H1812 0.960 . S
C1799 C1796 1.511 . S
C1799 H1813 0.961 . S
C1799 H1814 0.961 . S
C1799 H1815 0.961 . S
C1800 C1801 1.370 . S
C1800 C1802 1.363 . S
C1800 H1816 0.931 . S
C1801 C1800 1.370 . S
C1801 C1805 1.408 . S
C1802 C1800 1.363 . S
C1802 C1803 1.370 . S
C1802 C1806 1.524 . S
C1803 C1795 1.503 . S
C1803 C1802 1.370 . S
C1803 C1804 1.403 . S
C1804 C1803 1.403 . S
C1804 C1805 1.404 . S
C1804 C1807 1.539 . S
C1805 C1801 1.408 . S
C1805 C1804 1.404 . S
C1805 H1817 0.930 . S
C1806 C1802 1.524 . S
C1806 H1818 0.956 . S
C1806 H1819 0.961 . S
C1806 H1820 0.961 . S
C1807 C1804 1.539 . S
C1807 H1821 0.958 . S
C1807 H1822 0.961 . S
C1807 H1823 0.960 . S
H1808 C1792 0.931 . S
H1809 C1797 0.929 . S
H1810 C1798 0.960 . S
H1811 C1798 0.962 . S
H1812 C1798 0.960 . S
H1813 C1799 0.961 . S
H1814 C1799 0.961 . S
H1815 C1799 0.961 . S
H1816 C1800 0.931 . S
H1817 C1805 0.930 . S
H1818 C1806 0.956 . S
H1819 C1806 0.961 . S
H1820 C1806 0.961 . S
H1821 C1807 0.958 . S
H1822 C1807 0.961 . S
H1823 C1807 0.960 . S
C1824 C1825 1.391 . S
C1824 C1826 1.394 . S
C1824 H1840 0.931 . S
C1825 C1824 1.391 . S
C1825 C1829 1.376 . S
C1826 C1824 1.394 . S
C1826 C1827 1.369 . S
C1826 C1830 1.531 . S
C1827 C1826 1.369 . S
C1827 C1828 1.410 . S
C1827 C1835 1.503 . S
C1828 C1827 1.410 . S
C1828 C1829 1.392 . S
C1828 C1831 1.511 . S
C1829 C1825 1.376 . S
C1829 C1828 1.392 . S
C1829 H1841 0.929 . S
C1830 C1826 1.531 . S
C1830 H1842 0.960 . S
C1830 H1843 0.962 . S
C1830 H1844 0.960 . S
C1831 C1828 1.511 . S
C1831 H1845 0.961 . S
C1831 H1846 0.961 . S
C1831 H1847 0.961 . S
C1832 C1833 1.370 . S
C1832 C1834 1.363 . S
C1832 H1848 0.931 . S
C1833 C1832 1.370 . S
C1833 C1837 1.408 . S
C1834 C1832 1.363 . S
C1834 C1835 1.370 . S
C1834 C1838 1.524 . S
C1835 C1827 1.503 . S
C1835 C1834 1.370 . S
C1835 C1836 1.403 . S
C1836 C1835 1.403 . S
C1836 C1837 1.404 . S
C1836 C1839 1.539 . S
C1837 C1833 1.408 . S
C1837 C1836 1.404 . S
C1837 H1849 0.930 . S
C1838 C1834 1.524 . S
C1838 H1850 0.956 . S
C1838 H1851 0.961 . S
C1838 H1852 0.961 . S
C1839 C1836 1.539 . S
C1839 H1853 0.958 . S
C1839 H1854 0.961 . S
C1839 H1855 0.960 . S
H1840 C1824 0.931 . S
H1841 C1829 0.929 . S
H1842 C1830 0.960 . S
H1843 C1830 0.962 . S
H1844 C1830 0.960 . S
H1845 C1831 0.961 . S
H1846 C1831 0.961 . S
H1847 C1831 0.961 . S
H1848 C1832 0.931 . S
H1849 C1837 0.930 . S
H1850 C1838 0.956 . S
H1851 C1838 0.961 . S
H1852 C1838 0.961 . S
H1853 C1839 0.958 . S
H1854 C1839 0.961 . S
H1855 C1839 0.960 . S
C1856 C1857 1.391 . S
C1856 C1858 1.394 . S
C1856 H1872 0.931 . S
C1857 C1856 1.391 . S
C1857 C1861 1.376 . S
C1858 C1856 1.394 . S
C1858 C1859 1.369 . S
C1858 C1862 1.531 . S
C1859 C1858 1.369 . S
C1859 C1860 1.410 . S
C1859 C1867 1.503 . S
C1860 C1859 1.410 . S
C1860 C1861 1.392 . S
C1860 C1863 1.511 . S
C1861 C1857 1.376 . S
C1861 C1860 1.392 . S
C1861 H1873 0.929 . S
C1862 C1858 1.531 . S
C1862 H1874 0.960 . S
C1862 H1875 0.962 . S
C1862 H1876 0.960 . S
C1863 C1860 1.511 . S
C1863 H1877 0.961 . S
C1863 H1878 0.961 . S
C1863 H1879 0.961 . S
C1864 C1865 1.370 . S
C1864 C1866 1.363 . S
C1864 H1880 0.931 . S
C1865 C1864 1.370 . S
C1865 C1869 1.408 . S
C1866 C1864 1.363 . S
C1866 C1867 1.370 . S
C1866 C1870 1.524 . S
C1867 C1859 1.503 . S
C1867 C1866 1.370 . S
C1867 C1868 1.403 . S
C1868 C1867 1.403 . S
C1868 C1869 1.404 . S
C1868 C1871 1.539 . S
C1869 C1865 1.408 . S
C1869 C1868 1.404 . S
C1869 H1881 0.930 . S
C1870 C1866 1.524 . S
C1870 H1882 0.956 . S
C1870 H1883 0.961 . S
C1870 H1884 0.961 . S
C1871 C1868 1.539 . S
C1871 H1885 0.958 . S
C1871 H1886 0.961 . S
C1871 H1887 0.960 . S
H1872 C1856 0.931 . S
H1873 C1861 0.929 . S
H1874 C1862 0.960 . S
H1875 C1862 0.962 . S
H1876 C1862 0.960 . S
H1877 C1863 0.961 . S
H1878 C1863 0.961 . S
H1879 C1863 0.961 . S
H1880 C1864 0.931 . S
H1881 C1869 0.930 . S
H1882 C1870 0.956 . S
H1883 C1870 0.961 . S
H1884 C1870 0.961 . S
H1885 C1871 0.958 . S
H1886 C1871 0.961 . S
H1887 C1871 0.960 . S
C1888 C1889 1.391 . S
C1888 C1890 1.394 . S
C1888 H1904 0.931 . S
C1889 C1888 1.391 . S
C1889 C1893 1.376 . S
C1890 C1888 1.394 . S
C1890 C1891 1.369 . S
C1890 C1894 1.531 . S
C1891 C1890 1.369 . S
C1891 C1892 1.410 . S
C1891 C1899 1.503 . S
C1892 C1891 1.410 . S
C1892 C1893 1.392 . S
C1892 C1895 1.511 . S
C1893 C1889 1.376 . S
C1893 C1892 1.392 . S
C1893 H1905 0.929 . S
C1894 C1890 1.531 . S
C1894 H1906 0.960 . S
C1894 H1907 0.962 . S
C1894 H1908 0.960 . S
C1895 C1892 1.511 . S
C1895 H1909 0.961 . S
C1895 H1910 0.961 . S
C1895 H1911 0.961 . S
C1896 C1897 1.370 . S
C1896 C1898 1.363 . S
C1896 H1912 0.931 1_655 S
C1897 C1896 1.370 . S
C1897 C1901 1.408 . S
C1898 C1896 1.363 . S
C1898 C1899 1.370 . S
C1898 C1902 1.524 . S
C1899 C1891 1.503 . S
C1899 C1898 1.370 . S
C1899 C1900 1.403 . S
C1900 C1899 1.403 . S
C1900 C1901 1.404 . S
C1900 C1903 1.539 . S
C1901 C1897 1.408 . S
C1901 C1900 1.404 . S
C1901 H1913 0.930 . S
C1902 C1898 1.524 . S
C1902 H1914 0.956 . S
C1902 H1915 0.961 . S
C1902 H1916 0.961 . S
C1903 C1900 1.539 . S
C1903 H1917 0.958 . S
C1903 H1918 0.961 . S
C1903 H1919 0.960 . S
H1904 C1888 0.931 . S
H1905 C1893 0.929 . S
H1906 C1894 0.960 . S
H1907 C1894 0.962 . S
H1908 C1894 0.960 . S
H1909 C1895 0.961 . S
H1910 C1895 0.961 . S
H1911 C1895 0.961 . S
H1912 C1896 0.931 1_455 S
H1913 C1901 0.930 . S
H1914 C1902 0.956 . S
H1915 C1902 0.961 . S
H1916 C1902 0.961 . S
H1917 C1903 0.958 . S
H1918 C1903 0.961 . S
H1919 C1903 0.960 . S
C1920 C1921 1.391 . S
C1920 C1922 1.394 . S
C1920 H1936 0.931 . S
C1921 C1920 1.391 . S
C1921 C1925 1.376 . S
C1922 C1920 1.394 . S
C1922 C1923 1.369 . S
C1922 C1926 1.531 . S
C1923 C1922 1.369 . S
C1923 C1924 1.410 . S
C1923 C1931 1.503 . S
C1924 C1923 1.410 . S
C1924 C1925 1.392 . S
C1924 C1927 1.511 . S
C1925 C1921 1.376 . S
C1925 C1924 1.392 . S
C1925 H1937 0.929 . S
C1926 C1922 1.531 . S
C1926 H1938 0.960 . S
C1926 H1939 0.962 . S
C1926 H1940 0.960 . S
C1927 C1924 1.511 . S
C1927 H1941 0.961 . S
C1927 H1942 0.961 . S
C1927 H1943 0.961 . S
C1928 C1929 1.370 . S
C1928 C1930 1.363 . S
C1928 H1944 0.931 . S
C1929 C1928 1.370 . S
C1929 C1933 1.408 . S
C1930 C1928 1.363 . S
C1930 C1931 1.370 . S
C1930 C1934 1.524 . S
C1931 C1923 1.503 . S
C1931 C1930 1.370 . S
C1931 C1932 1.403 . S
C1932 C1931 1.403 . S
C1932 C1933 1.404 . S
C1932 C1935 1.539 . S
C1933 C1929 1.408 . S
C1933 C1932 1.404 . S
C1933 H1945 0.930 . S
C1934 C1930 1.524 . S
C1934 H1946 0.956 . S
C1934 H1947 0.961 . S
C1934 H1948 0.961 . S
C1935 C1932 1.539 . S
C1935 H1949 0.958 . S
C1935 H1950 0.961 . S
C1935 H1951 0.960 . S
H1936 C1920 0.931 . S
H1937 C1925 0.929 . S
H1938 C1926 0.960 . S
H1939 C1926 0.962 . S
H1940 C1926 0.960 . S
H1941 C1927 0.961 . S
H1942 C1927 0.961 . S
H1943 C1927 0.961 . S
H1944 C1928 0.931 . S
H1945 C1933 0.930 . S
H1946 C1934 0.956 . S
H1947 C1934 0.961 . S
H1948 C1934 0.961 . S
H1949 C1935 0.958 . S
H1950 C1935 0.961 . S
H1951 C1935 0.960 . S
C1952 C1953 1.391 . S
C1952 C1954 1.394 . S
C1952 H1968 0.931 1_655 S
C1953 C1952 1.391 . S
C1953 C1957 1.376 . S
C1954 C1952 1.394 . S
C1954 C1955 1.369 . S
C1954 C1958 1.531 . S
C1955 C1954 1.369 . S
C1955 C1956 1.410 . S
C1955 C1963 1.503 . S
C1956 C1955 1.410 . S
C1956 C1957 1.392 . S
C1956 C1959 1.511 . S
C1957 C1953 1.376 . S
C1957 C1956 1.392 . S
C1957 H1969 0.929 . S
C1958 C1954 1.531 . S
C1958 H1970 0.960 . S
C1958 H1971 0.962 . S
C1958 H1972 0.960 . S
C1959 C1956 1.511 . S
C1959 H1973 0.961 . S
C1959 H1974 0.961 . S
C1959 H1975 0.961 . S
C1960 C1961 1.370 . S
C1960 C1962 1.363 . S
C1960 H1976 0.931 . S
C1961 C1960 1.370 . S
C1961 C1965 1.408 . S
C1962 C1960 1.363 . S
C1962 C1963 1.370 . S
C1962 C1966 1.524 . S
C1963 C1955 1.503 . S
C1963 C1962 1.370 . S
C1963 C1964 1.403 . S
C1964 C1963 1.403 . S
C1964 C1965 1.404 . S
C1964 C1967 1.539 . S
C1965 C1961 1.408 . S
C1965 C1964 1.404 . S
C1965 H1977 0.930 . S
C1966 C1962 1.524 . S
C1966 H1978 0.956 . S
C1966 H1979 0.961 . S
C1966 H1980 0.961 . S
C1967 C1964 1.539 . S
C1967 H1981 0.958 . S
C1967 H1982 0.961 . S
C1967 H1983 0.960 . S
H1968 C1952 0.931 1_455 S
H1969 C1957 0.929 . S
H1970 C1958 0.960 . S
H1971 C1958 0.962 . S
H1972 C1958 0.960 . S
H1973 C1959 0.961 . S
H1974 C1959 0.961 . S
H1975 C1959 0.961 . S
H1976 C1960 0.931 . S
H1977 C1965 0.930 . S
H1978 C1966 0.956 . S
H1979 C1966 0.961 . S
H1980 C1966 0.961 . S
H1981 C1967 0.958 . S
H1982 C1967 0.961 . S
H1983 C1967 0.960 . S
C1984 C1985 1.391 . S
C1984 C1986 1.394 . S
C1984 H2000 0.931 . S
C1985 C1984 1.391 . S
C1985 C1989 1.376 . S
C1986 C1984 1.394 . S
C1986 C1987 1.369 . S
C1986 C1990 1.531 . S
C1987 C1986 1.369 . S
C1987 C1988 1.410 . S
C1987 C1995 1.503 . S
C1988 C1987 1.410 . S
C1988 C1989 1.392 . S
C1988 C1991 1.511 . S
C1989 C1985 1.376 . S
C1989 C1988 1.392 . S
C1989 H2001 0.929 . S
C1990 C1986 1.531 . S
C1990 H2002 0.960 . S
C1990 H2003 0.962 . S
C1990 H2004 0.960 . S
C1991 C1988 1.511 . S
C1991 H2005 0.961 . S
C1991 H2006 0.961 . S
C1991 H2007 0.961 . S
C1992 C1993 1.370 . S
C1992 C1994 1.363 . S
C1992 H2008 0.931 . S
C1993 C1992 1.370 . S
C1993 C1997 1.408 . S
C1994 C1992 1.363 . S
C1994 C1995 1.370 . S
C1994 C1998 1.524 . S
C1995 C1987 1.503 . S
C1995 C1994 1.370 . S
C1995 C1996 1.403 . S
C1996 C1995 1.403 . S
C1996 C1997 1.404 . S
C1996 C1999 1.539 . S
C1997 C1993 1.408 . S
C1997 C1996 1.404 . S
C1997 H2009 0.930 . S
C1998 C1994 1.524 . S
C1998 H2010 0.956 . S
C1998 H2011 0.961 . S
C1998 H2012 0.961 . S
C1999 C1996 1.539 . S
C1999 H2013 0.958 . S
C1999 H2014 0.961 . S
C1999 H2015 0.960 . S
H2000 C1984 0.931 . S
H2001 C1989 0.929 . S
H2002 C1990 0.960 . S
H2003 C1990 0.962 . S
H2004 C1990 0.960 . S
H2005 C1991 0.961 . S
H2006 C1991 0.961 . S
H2007 C1991 0.961 . S
H2008 C1992 0.931 . S
H2009 C1997 0.930 . S
H2010 C1998 0.956 . S
H2011 C1998 0.961 . S
H2012 C1998 0.961 . S
H2013 C1999 0.958 . S
H2014 C1999 0.961 . S
H2015 C1999 0.960 . S
C2016 C2017 1.391 . S
C2016 C2018 1.394 . S
C2016 H2032 0.931 . S
C2017 C2016 1.391 . S
C2017 C2021 1.376 . S
C2018 C2016 1.394 . S
C2018 C2019 1.369 . S
C2018 C2022 1.531 . S
C2019 C2018 1.369 . S
C2019 C2020 1.410 . S
C2019 C2027 1.503 . S
C2020 C2019 1.410 . S
C2020 C2021 1.392 . S
C2020 C2023 1.511 . S
C2021 C2017 1.376 . S
C2021 C2020 1.392 . S
C2021 H2033 0.929 . S
C2022 C2018 1.531 . S
C2022 H2034 0.960 . S
C2022 H2035 0.962 . S
C2022 H2036 0.960 . S
C2023 C2020 1.511 . S
C2023 H2037 0.961 . S
C2023 H2038 0.961 . S
C2023 H2039 0.961 . S
C2024 C2025 1.370 . S
C2024 C2026 1.363 . S
C2024 H2040 0.931 . S
C2025 C2024 1.370 . S
C2025 C2029 1.408 . S
C2026 C2024 1.363 . S
C2026 C2027 1.370 . S
C2026 C2030 1.524 . S
C2027 C2019 1.503 . S
C2027 C2026 1.370 . S
C2027 C2028 1.403 . S
C2028 C2027 1.403 . S
C2028 C2029 1.404 . S
C2028 C2031 1.539 . S
C2029 C2025 1.408 . S
C2029 C2028 1.404 . S
C2029 H2041 0.930 . S
C2030 C2026 1.524 . S
C2030 H2042 0.956 . S
C2030 H2043 0.961 . S
C2030 H2044 0.961 . S
C2031 C2028 1.539 . S
C2031 H2045 0.958 . S
C2031 H2046 0.961 . S
C2031 H2047 0.960 . S
H2032 C2016 0.931 . S
H2033 C2021 0.929 . S
H2034 C2022 0.960 . S
H2035 C2022 0.962 . S
H2036 C2022 0.960 . S
H2037 C2023 0.961 . S
H2038 C2023 0.961 . S
H2039 C2023 0.961 . S
H2040 C2024 0.931 . S
H2041 C2029 0.930 . S
H2042 C2030 0.956 . S
H2043 C2030 0.961 . S
H2044 C2030 0.961 . S
H2045 C2031 0.958 . S
H2046 C2031 0.961 . S
H2047 C2031 0.960 . S
C2048 C2049 1.391 . S
C2048 C2050 1.394 . S
C2048 H2064 0.931 . S
C2049 C2048 1.391 . S
C2049 C2053 1.376 . S
C2050 C2048 1.394 . S
C2050 C2051 1.369 . S
C2050 C2054 1.531 . S
C2051 C2050 1.369 . S
C2051 C2052 1.410 . S
C2051 C2059 1.503 . S
C2052 C2051 1.410 . S
C2052 C2053 1.392 . S
C2052 C2055 1.511 . S
C2053 C2049 1.376 . S
C2053 C2052 1.392 . S
C2053 H2065 0.929 . S
C2054 C2050 1.531 . S
C2054 H2066 0.960 . S
C2054 H2067 0.962 . S
C2054 H2068 0.960 . S
C2055 C2052 1.511 . S
C2055 H2069 0.961 . S
C2055 H2070 0.961 . S
C2055 H2071 0.961 . S
C2056 C2057 1.370 . S
C2056 C2058 1.363 . S
C2056 H2072 0.931 . S
C2057 C2056 1.370 . S
C2057 C2061 1.408 . S
C2058 C2056 1.363 . S
C2058 C2059 1.370 . S
C2058 C2062 1.524 . S
C2059 C2051 1.503 . S
C2059 C2058 1.370 . S
C2059 C2060 1.403 . S
C2060 C2059 1.403 . S
C2060 C2061 1.404 . S
C2060 C2063 1.539 . S
C2061 C2057 1.408 . S
C2061 C2060 1.404 . S
C2061 H2073 0.930 . S
C2062 C2058 1.524 . S
C2062 H2074 0.956 . S
C2062 H2075 0.961 . S
C2062 H2076 0.961 . S
C2063 C2060 1.539 . S
C2063 H2077 0.958 . S
C2063 H2078 0.961 . S
C2063 H2079 0.960 . S
H2064 C2048 0.931 . S
H2065 C2053 0.929 . S
H2066 C2054 0.960 . S
H2067 C2054 0.962 . S
H2068 C2054 0.960 . S
H2069 C2055 0.961 . S
H2070 C2055 0.961 . S
H2071 C2055 0.961 . S
H2072 C2056 0.931 . S
H2073 C2061 0.930 . S
H2074 C2062 0.956 . S
H2075 C2062 0.961 . S
H2076 C2062 0.961 . S
H2077 C2063 0.958 . S
H2078 C2063 0.961 . S
H2079 C2063 0.960 . S
C2080 C2081 1.391 . S
C2080 C2082 1.394 . S
C2080 H2096 0.931 . S
C2081 C2080 1.391 . S
C2081 C2085 1.376 . S
C2082 C2080 1.394 . S
C2082 C2083 1.369 . S
C2082 C2086 1.531 . S
C2083 C2082 1.369 . S
C2083 C2084 1.410 . S
C2083 C2091 1.503 . S
C2084 C2083 1.410 . S
C2084 C2085 1.392 . S
C2084 C2087 1.511 . S
C2085 C2081 1.376 . S
C2085 C2084 1.392 . S
C2085 H2097 0.929 . S
C2086 C2082 1.531 . S
C2086 H2098 0.960 . S
C2086 H2099 0.962 . S
C2086 H2100 0.960 . S
C2087 C2084 1.511 . S
C2087 H2101 0.961 . S
C2087 H2102 0.961 . S
C2087 H2103 0.961 . S
C2088 C2089 1.370 . S
C2088 C2090 1.363 . S
C2088 H2104 0.931 . S
C2089 C2088 1.370 . S
C2089 C2093 1.408 . S
C2090 C2088 1.363 . S
C2090 C2091 1.370 . S
C2090 C2094 1.524 . S
C2091 C2083 1.503 . S
C2091 C2090 1.370 . S
C2091 C2092 1.403 . S
C2092 C2091 1.403 . S
C2092 C2093 1.404 . S
C2092 C2095 1.539 . S
C2093 C2089 1.408 . S
C2093 C2092 1.404 . S
C2093 H2105 0.930 . S
C2094 C2090 1.524 . S
C2094 H2106 0.956 . S
C2094 H2107 0.961 . S
C2094 H2108 0.961 . S
C2095 C2092 1.539 . S
C2095 H2109 0.958 . S
C2095 H2110 0.961 . S
C2095 H2111 0.960 . S
H2096 C2080 0.931 . S
H2097 C2085 0.929 . S
H2098 C2086 0.960 . S
H2099 C2086 0.962 . S
H2100 C2086 0.960 . S
H2101 C2087 0.961 . S
H2102 C2087 0.961 . S
H2103 C2087 0.961 . S
H2104 C2088 0.931 . S
H2105 C2093 0.930 . S
H2106 C2094 0.956 . S
H2107 C2094 0.961 . S
H2108 C2094 0.961 . S
H2109 C2095 0.958 . S
H2110 C2095 0.961 . S
H2111 C2095 0.960 . S
C2112 C2113 1.391 . S
C2112 C2114 1.394 . S
C2112 H2128 0.931 . S
C2113 C2112 1.391 . S
C2113 C2117 1.376 . S
C2114 C2112 1.394 . S
C2114 C2115 1.369 . S
C2114 C2118 1.531 . S
C2115 C2114 1.369 . S
C2115 C2116 1.410 . S
C2115 C2123 1.503 . S
C2116 C2115 1.410 . S
C2116 C2117 1.392 . S
C2116 C2119 1.511 . S
C2117 C2113 1.376 . S
C2117 C2116 1.392 . S
C2117 H2129 0.929 . S
C2118 C2114 1.531 . S
C2118 H2130 0.960 . S
C2118 H2131 0.962 . S
C2118 H2132 0.960 . S
C2119 C2116 1.511 . S
C2119 H2133 0.961 . S
C2119 H2134 0.961 . S
C2119 H2135 0.961 . S
C2120 C2121 1.370 . S
C2120 C2122 1.363 . S
C2120 H2136 0.931 . S
C2121 C2120 1.370 . S
C2121 C2125 1.408 . S
C2122 C2120 1.363 . S
C2122 C2123 1.370 . S
C2122 C2126 1.524 . S
C2123 C2115 1.503 . S
C2123 C2122 1.370 . S
C2123 C2124 1.403 . S
C2124 C2123 1.403 . S
C2124 C2125 1.404 . S
C2124 C2127 1.539 . S
C2125 C2121 1.408 . S
C2125 C2124 1.404 . S
C2125 H2137 0.930 . S
C2126 C2122 1.524 . S
C2126 H2138 0.956 . S
C2126 H2139 0.961 . S
C2126 H2140 0.961 . S
C2127 C2124 1.539 . S
C2127 H2141 0.958 . S
C2127 H2142 0.961 . S
C2127 H2143 0.960 . S
H2128 C2112 0.931 . S
H2129 C2117 0.929 . S
H2130 C2118 0.960 . S
H2131 C2118 0.962 . S
H2132 C2118 0.960 . S
H2133 C2119 0.961 . S
H2134 C2119 0.961 . S
H2135 C2119 0.961 . S
H2136 C2120 0.931 . S
H2137 C2125 0.930 . S
H2138 C2126 0.956 . S
H2139 C2126 0.961 . S
H2140 C2126 0.961 . S
H2141 C2127 0.958 . S
H2142 C2127 0.961 . S
H2143 C2127 0.960 . S
C2144 C2145 1.391 . S
C2144 C2146 1.394 . S
C2144 H2160 0.931 . S
C2145 C2144 1.391 . S
C2145 C2149 1.376 . S
C2146 C2144 1.394 . S
C2146 C2147 1.369 . S
C2146 C2150 1.531 . S
C2147 C2146 1.369 . S
C2147 C2148 1.410 . S
C2147 C2155 1.503 . S
C2148 C2147 1.410 . S
C2148 C2149 1.392 . S
C2148 C2151 1.511 . S
C2149 C2145 1.376 . S
C2149 C2148 1.392 . S
C2149 H2161 0.929 . S
C2150 C2146 1.531 . S
C2150 H2162 0.960 . S
C2150 H2163 0.962 . S
C2150 H2164 0.960 . S
C2151 C2148 1.511 . S
C2151 H2165 0.961 . S
C2151 H2166 0.961 . S
C2151 H2167 0.961 . S
C2152 C2153 1.370 . S
C2152 C2154 1.363 . S
C2152 H2168 0.931 . S
C2153 C2152 1.370 . S
C2153 C2157 1.408 . S
C2154 C2152 1.363 . S
C2154 C2155 1.370 . S
C2154 C2158 1.524 . S
C2155 C2147 1.503 . S
C2155 C2154 1.370 . S
C2155 C2156 1.403 . S
C2156 C2155 1.403 . S
C2156 C2157 1.404 . S
C2156 C2159 1.539 . S
C2157 C2153 1.408 . S
C2157 C2156 1.404 . S
C2157 H2169 0.931 . S
C2158 C2154 1.524 . S
C2158 H2170 0.956 . S
C2158 H2171 0.961 . S
C2158 H2172 0.961 . S
C2159 C2156 1.539 . S
C2159 H2173 0.958 . S
C2159 H2174 0.961 . S
C2159 H2175 0.960 . S
H2160 C2144 0.931 . S
H2161 C2149 0.929 . S
H2162 C2150 0.960 . S
H2163 C2150 0.962 . S
H2164 C2150 0.960 . S
H2165 C2151 0.961 . S
H2166 C2151 0.961 . S
H2167 C2151 0.961 . S
H2168 C2152 0.931 . S
H2169 C2157 0.931 . S
H2170 C2158 0.956 . S
H2171 C2158 0.961 . S
H2172 C2158 0.961 . S
H2173 C2159 0.958 . S
H2174 C2159 0.961 . S
H2175 C2159 0.960 . S
C2176 C2177 1.391 . S
C2176 C2178 1.394 . S
C2176 H2192 0.931 . S
C2177 C2176 1.391 . S
C2177 C2181 1.376 . S
C2178 C2176 1.394 . S
C2178 C2179 1.369 . S
C2178 C2182 1.531 . S
C2179 C2178 1.369 . S
C2179 C2180 1.410 . S
C2179 C2187 1.503 . S
C2180 C2179 1.410 . S
C2180 C2181 1.392 . S
C2180 C2183 1.511 . S
C2181 C2177 1.376 . S
C2181 C2180 1.392 . S
C2181 H2193 0.929 . S
C2182 C2178 1.531 . S
C2182 H2194 0.960 . S
C2182 H2195 0.962 . S
C2182 H2196 0.960 . S
C2183 C2180 1.511 . S
C2183 H2197 0.961 . S
C2183 H2198 0.961 . S
C2183 H2199 0.961 . S
C2184 C2185 1.370 . S
C2184 C2186 1.363 . S
C2184 H2200 0.931 . S
C2185 C2184 1.370 . S
C2185 C2189 1.408 . S
C2186 C2184 1.363 . S
C2186 C2187 1.370 . S
C2186 C2190 1.524 . S
C2187 C2179 1.503 . S
C2187 C2186 1.370 . S
C2187 C2188 1.403 . S
C2188 C2187 1.403 . S
C2188 C2189 1.404 . S
C2188 C2191 1.539 . S
C2189 C2185 1.408 . S
C2189 C2188 1.404 . S
C2189 H2201 0.930 . S
C2190 C2186 1.524 . S
C2190 H2202 0.956 . S
C2190 H2203 0.961 . S
C2190 H2204 0.961 . S
C2191 C2188 1.539 . S
C2191 H2205 0.958 . S
C2191 H2206 0.961 . S
C2191 H2207 0.960 . S
H2192 C2176 0.931 . S
H2193 C2181 0.929 . S
H2194 C2182 0.960 . S
H2195 C2182 0.962 . S
H2196 C2182 0.960 . S
H2197 C2183 0.961 . S
H2198 C2183 0.961 . S
H2199 C2183 0.961 . S
H2200 C2184 0.931 . S
H2201 C2189 0.930 . S
H2202 C2190 0.956 . S
H2203 C2190 0.961 . S
H2204 C2190 0.961 . S
H2205 C2191 0.958 . S
H2206 C2191 0.961 . S
H2207 C2191 0.960 . S
C2208 C2209 1.391 . S
C2208 C2210 1.394 . S
C2208 H2224 0.931 1_455 S
C2209 C2208 1.391 . S
C2209 C2213 1.376 . S
C2210 C2208 1.394 . S
C2210 C2211 1.369 . S
C2210 C2214 1.531 . S
C2211 C2210 1.369 . S
C2211 C2212 1.410 . S
C2211 C2219 1.503 . S
C2212 C2211 1.410 . S
C2212 C2213 1.392 . S
C2212 C2215 1.511 . S
C2213 C2209 1.376 . S
C2213 C2212 1.392 . S
C2213 H2225 0.929 . S
C2214 C2210 1.531 . S
C2214 H2226 0.960 . S
C2214 H2227 0.962 . S
C2214 H2228 0.960 . S
C2215 C2212 1.511 . S
C2215 H2229 0.961 . S
C2215 H2230 0.961 . S
C2215 H2231 0.961 . S
C2216 C2217 1.370 . S
C2216 C2218 1.363 . S
C2216 H2232 0.931 . S
C2217 C2216 1.370 . S
C2217 C2221 1.408 . S
C2218 C2216 1.363 . S
C2218 C2219 1.370 . S
C2218 C2222 1.524 . S
C2219 C2211 1.503 . S
C2219 C2218 1.370 . S
C2219 C2220 1.403 . S
C2220 C2219 1.403 . S
C2220 C2221 1.404 . S
C2220 C2223 1.539 . S
C2221 C2217 1.408 . S
C2221 C2220 1.404 . S
C2221 H2233 0.930 . S
C2222 C2218 1.524 . S
C2222 H2234 0.956 . S
C2222 H2235 0.961 . S
C2222 H2236 0.961 . S
C2223 C2220 1.539 . S
C2223 H2237 0.958 . S
C2223 H2238 0.961 . S
C2223 H2239 0.960 . S
H2224 C2208 0.931 1_655 S
H2225 C2213 0.929 . S
H2226 C2214 0.960 . S
H2227 C2214 0.962 . S
H2228 C2214 0.960 . S
H2229 C2215 0.961 . S
H2230 C2215 0.961 . S
H2231 C2215 0.961 . S
H2232 C2216 0.931 . S
H2233 C2221 0.930 . S
H2234 C2222 0.956 . S
H2235 C2222 0.961 . S
H2236 C2222 0.961 . S
H2237 C2223 0.958 . S
H2238 C2223 0.961 . S
H2239 C2223 0.960 . S
C2240 C2241 1.391 . S
C2240 C2242 1.394 . S
C2240 H2256 0.931 . S
C2241 C2240 1.391 . S
C2241 C2245 1.376 . S
C2242 C2240 1.394 . S
C2242 C2243 1.369 . S
C2242 C2246 1.531 . S
C2243 C2242 1.369 . S
C2243 C2244 1.410 . S
C2243 C2251 1.503 . S
C2244 C2243 1.410 . S
C2244 C2245 1.392 . S
C2244 C2247 1.511 . S
C2245 C2241 1.376 . S
C2245 C2244 1.392 . S
C2245 H2257 0.929 . S
C2246 C2242 1.531 . S
C2246 H2258 0.960 . S
C2246 H2259 0.962 . S
C2246 H2260 0.960 . S
C2247 C2244 1.511 . S
C2247 H2261 0.961 . S
C2247 H2262 0.961 . S
C2247 H2263 0.961 . S
C2248 C2249 1.370 . S
C2248 C2250 1.363 . S
C2248 H2264 0.931 . S
C2249 C2248 1.370 . S
C2249 C2253 1.408 . S
C2250 C2248 1.363 . S
C2250 C2251 1.370 . S
C2250 C2254 1.524 . S
C2251 C2243 1.503 . S
C2251 C2250 1.370 . S
C2251 C2252 1.403 . S
C2252 C2251 1.403 . S
C2252 C2253 1.404 . S
C2252 C2255 1.539 . S
C2253 C2249 1.408 . S
C2253 C2252 1.404 . S
C2253 H2265 0.930 . S
C2254 C2250 1.524 . S
C2254 H2266 0.956 . S
C2254 H2267 0.961 . S
C2254 H2268 0.961 . S
C2255 C2252 1.539 . S
C2255 H2269 0.958 . S
C2255 H2270 0.961 . S
C2255 H2271 0.960 . S
H2256 C2240 0.931 . S
H2257 C2245 0.929 . S
H2258 C2246 0.960 . S
H2259 C2246 0.962 . S
H2260 C2246 0.960 . S
H2261 C2247 0.961 . S
H2262 C2247 0.961 . S
H2263 C2247 0.961 . S
H2264 C2248 0.931 . S
H2265 C2253 0.930 . S
H2266 C2254 0.956 . S
H2267 C2254 0.961 . S
H2268 C2254 0.961 . S
H2269 C2255 0.958 . S
H2270 C2255 0.961 . S
H2271 C2255 0.960 . S
C2272 C2273 1.391 . S
C2272 C2274 1.394 . S
C2272 H2288 0.931 . S
C2273 C2272 1.391 . S
C2273 C2277 1.376 . S
C2274 C2272 1.394 . S
C2274 C2275 1.369 . S
C2274 C2278 1.531 . S
C2275 C2274 1.369 . S
C2275 C2276 1.410 . S
C2275 C2283 1.503 . S
C2276 C2275 1.410 . S
C2276 C2277 1.392 . S
C2276 C2279 1.511 . S
C2277 C2273 1.376 . S
C2277 C2276 1.392 . S
C2277 H2289 0.929 . S
C2278 C2274 1.531 . S
C2278 H2290 0.960 . S
C2278 H2291 0.962 . S
C2278 H2292 0.960 . S
C2279 C2276 1.511 . S
C2279 H2293 0.961 . S
C2279 H2294 0.961 . S
C2279 H2295 0.961 . S
C2280 C2281 1.370 . S
C2280 C2282 1.363 . S
C2280 H2296 0.931 . S
C2281 C2280 1.370 . S
C2281 C2285 1.408 . S
C2282 C2280 1.363 . S
C2282 C2283 1.370 . S
C2282 C2286 1.524 . S
C2283 C2275 1.503 . S
C2283 C2282 1.370 . S
C2283 C2284 1.403 . S
C2284 C2283 1.403 . S
C2284 C2285 1.404 . S
C2284 C2287 1.539 . S
C2285 C2281 1.408 . S
C2285 C2284 1.404 . S
C2285 H2297 0.930 . S
C2286 C2282 1.524 . S
C2286 H2298 0.956 . S
C2286 H2299 0.961 . S
C2286 H2300 0.961 . S
C2287 C2284 1.539 . S
C2287 H2301 0.958 . S
C2287 H2302 0.961 . S
C2287 H2303 0.960 . S
H2288 C2272 0.931 . S
H2289 C2277 0.929 . S
H2290 C2278 0.960 . S
H2291 C2278 0.962 . S
H2292 C2278 0.960 . S
H2293 C2279 0.961 . S
H2294 C2279 0.961 . S
H2295 C2279 0.961 . S
H2296 C2280 0.931 . S
H2297 C2285 0.930 . S
H2298 C2286 0.956 . S
H2299 C2286 0.961 . S
H2300 C2286 0.961 . S
H2301 C2287 0.958 . S
H2302 C2287 0.961 . S
H2303 C2287 0.960 . S
C2304 C2305 1.391 . S
C2304 C2306 1.394 . S
C2304 H2320 0.931 . S
C2305 C2304 1.391 . S
C2305 C2309 1.376 . S
C2306 C2304 1.394 . S
C2306 C2307 1.369 . S
C2306 C2310 1.531 . S
C2307 C2306 1.369 . S
C2307 C2308 1.410 1_455 S
C2307 C2315 1.503 1_455 S
C2308 C2307 1.410 1_655 S
C2308 C2309 1.392 1_655 S
C2308 C2311 1.511 . S
C2309 C2305 1.376 . S
C2309 C2308 1.392 1_455 S
C2309 H2321 0.929 . S
C2310 C2306 1.531 . S
C2310 H2322 0.960 . S
C2310 H2323 0.962 . S
C2310 H2324 0.960 . S
C2311 C2308 1.511 . S
C2311 H2325 0.961 . S
C2311 H2326 0.961 . S
C2311 H2327 0.961 . S
C2312 C2313 1.370 . S
C2312 C2314 1.363 . S
C2312 H2328 0.931 . S
C2313 C2312 1.370 . S
C2313 C2317 1.408 . S
C2314 C2312 1.363 . S
C2314 C2315 1.370 . S
C2314 C2318 1.524 1_655 S
C2315 C2307 1.503 1_655 S
C2315 C2314 1.370 . S
C2315 C2316 1.403 . S
C2316 C2315 1.403 . S
C2316 C2317 1.404 . S
C2316 C2319 1.539 . S
C2317 C2313 1.408 . S
C2317 C2316 1.404 . S
C2317 H2329 0.930 . S
C2318 C2314 1.524 1_455 S
C2318 H2330 0.956 . S
C2318 H2331 0.961 . S
C2318 H2332 0.961 . S
C2319 C2316 1.539 . S
C2319 H2333 0.958 . S
C2319 H2334 0.961 . S
C2319 H2335 0.960 . S
H2320 C2304 0.931 . S
H2321 C2309 0.929 . S
H2322 C2310 0.960 . S
H2323 C2310 0.962 . S
H2324 C2310 0.960 . S
H2325 C2311 0.961 . S
H2326 C2311 0.961 . S
H2327 C2311 0.961 . S
H2328 C2312 0.931 . S
H2329 C2317 0.930 . S
H2330 C2318 0.956 . S
H2331 C2318 0.961 . S
H2332 C2318 0.961 . S
H2333 C2319 0.958 . S
H2334 C2319 0.961 . S
H2335 C2319 0.960 . S
C2336 C2337 1.391 . S
C2336 C2338 1.394 . S
C2336 H2352 0.931 . S
C2337 C2336 1.391 . S
C2337 C2341 1.376 . S
C2338 C2336 1.394 . S
C2338 C2339 1.369 . S
C2338 C2342 1.531 1_655 S
C2339 C2338 1.369 . S
C2339 C2340 1.410 . S
C2339 C2347 1.503 1_655 S
C2340 C2339 1.410 . S
C2340 C2341 1.392 . S
C2340 C2343 1.511 . S
C2341 C2337 1.376 . S
C2341 C2340 1.392 . S
C2341 H2353 0.929 . S
C2342 C2338 1.531 1_455 S
C2342 H2354 0.960 . S
C2342 H2355 0.962 . S
C2342 H2356 0.960 . S
C2343 C2340 1.511 . S
C2343 H2357 0.961 . S
C2343 H2358 0.961 . S
C2343 H2359 0.961 . S
C2344 C2345 1.370 . S
C2344 C2346 1.363 . S
C2344 H2360 0.931 . S
C2345 C2344 1.370 . S
C2345 C2349 1.408 . S
C2346 C2344 1.363 . S
C2346 C2347 1.370 . S
C2346 C2350 1.524 . S
C2347 C2339 1.503 1_455 S
C2347 C2346 1.370 . S
C2347 C2348 1.403 . S
C2348 C2347 1.403 . S
C2348 C2349 1.404 . S
C2348 C2351 1.539 . S
C2349 C2345 1.408 . S
C2349 C2348 1.404 . S
C2349 H2361 0.930 . S
C2350 C2346 1.524 . S
C2350 H2362 0.956 . S
C2350 H2363 0.961 1_455 S
C2350 H2364 0.961 . S
C2351 C2348 1.539 . S
C2351 H2365 0.958 . S
C2351 H2366 0.961 . S
C2351 H2367 0.960 1_455 S
H2352 C2336 0.931 . S
H2353 C2341 0.929 . S
H2354 C2342 0.960 . S
H2355 C2342 0.962 . S
H2356 C2342 0.960 . S
H2357 C2343 0.961 . S
H2358 C2343 0.961 . S
H2359 C2343 0.961 . S
H2360 C2344 0.931 . S
H2361 C2349 0.930 . S
H2362 C2350 0.956 . S
H2363 C2350 0.961 1_655 S
H2364 C2350 0.961 . S
H2365 C2351 0.958 . S
H2366 C2351 0.961 . S
H2367 C2351 0.960 1_655 S
C2368 C2369 1.391 . S
C2368 C2370 1.394 . S
C2368 H2384 0.931 . S
C2369 C2368 1.391 . S
C2369 C2373 1.376 . S
C2370 C2368 1.394 . S
C2370 C2371 1.369 . S
C2370 C2374 1.531 . S
C2371 C2370 1.369 . S
C2371 C2372 1.410 . S
C2371 C2379 1.503 . S
C2372 C2371 1.410 . S
C2372 C2373 1.392 . S
C2372 C2375 1.511 . S
C2373 C2369 1.376 . S
C2373 C2372 1.392 . S
C2373 H2385 0.929 . S
C2374 C2370 1.531 . S
C2374 H2386 0.960 . S
C2374 H2387 0.962 . S
C2374 H2388 0.960 . S
C2375 C2372 1.511 . S
C2375 H2389 0.961 . S
C2375 H2390 0.961 . S
C2375 H2391 0.961 . S
C2376 C2377 1.370 . S
C2376 C2378 1.363 . S
C2376 H2392 0.931 . S
C2377 C2376 1.370 . S
C2377 C2381 1.408 . S
C2378 C2376 1.363 . S
C2378 C2379 1.370 . S
C2378 C2382 1.524 . S
C2379 C2371 1.503 . S
C2379 C2378 1.370 . S
C2379 C2380 1.403 . S
C2380 C2379 1.403 . S
C2380 C2381 1.404 . S
C2380 C2383 1.539 . S
C2381 C2377 1.408 . S
C2381 C2380 1.404 . S
C2381 H2393 0.930 . S
C2382 C2378 1.524 . S
C2382 H2394 0.956 . S
C2382 H2395 0.961 . S
C2382 H2396 0.961 . S
C2383 C2380 1.539 . S
C2383 H2397 0.958 . S
C2383 H2398 0.961 . S
C2383 H2399 0.960 . S
H2384 C2368 0.931 . S
H2385 C2373 0.929 . S
H2386 C2374 0.960 . S
H2387 C2374 0.962 . S
H2388 C2374 0.960 . S
H2389 C2375 0.961 . S
H2390 C2375 0.961 . S
H2391 C2375 0.961 . S
H2392 C2376 0.931 . S
H2393 C2381 0.930 . S
H2394 C2382 0.956 . S
H2395 C2382 0.961 . S
H2396 C2382 0.961 . S
H2397 C2383 0.958 . S
H2398 C2383 0.961 . S
H2399 C2383 0.960 . S
C2400 C2401 1.391 . S
C2400 C2402 1.394 . S
C2400 H2416 0.931 . S
C2401 C2400 1.391 . S
C2401 C2405 1.376 . S
C2402 C2400 1.394 . S
C2402 C2403 1.369 . S
C2402 C2406 1.531 . S
C2403 C2402 1.369 . S
C2403 C2404 1.410 . S
C2403 C2411 1.503 . S
C2404 C2403 1.410 . S
C2404 C2405 1.392 . S
C2404 C2407 1.511 . S
C2405 C2401 1.376 . S
C2405 C2404 1.392 . S
C2405 H2417 0.929 . S
C2406 C2402 1.531 . S
C2406 H2418 0.960 . S
C2406 H2419 0.962 . S
C2406 H2420 0.960 . S
C2407 C2404 1.511 . S
C2407 H2421 0.961 . S
C2407 H2422 0.961 . S
C2407 H2423 0.961 . S
C2408 C2409 1.370 . S
C2408 C2410 1.363 . S
C2408 H2424 0.931 . S
C2409 C2408 1.370 . S
C2409 C2413 1.408 . S
C2410 C2408 1.363 . S
C2410 C2411 1.370 . S
C2410 C2414 1.524 . S
C2411 C2403 1.503 . S
C2411 C2410 1.370 . S
C2411 C2412 1.403 . S
C2412 C2411 1.403 . S
C2412 C2413 1.404 . S
C2412 C2415 1.539 . S
C2413 C2409 1.408 . S
C2413 C2412 1.404 . S
C2413 H2425 0.930 . S
C2414 C2410 1.524 . S
C2414 H2426 0.956 . S
C2414 H2427 0.961 . S
C2414 H2428 0.961 . S
C2415 C2412 1.539 . S
C2415 H2429 0.958 . S
C2415 H2430 0.961 . S
C2415 H2431 0.960 . S
H2416 C2400 0.931 . S
H2417 C2405 0.929 . S
H2418 C2406 0.960 . S
H2419 C2406 0.962 . S
H2420 C2406 0.960 . S
H2421 C2407 0.961 . S
H2422 C2407 0.961 . S
H2423 C2407 0.961 . S
H2424 C2408 0.931 . S
H2425 C2413 0.930 . S
H2426 C2414 0.956 . S
H2427 C2414 0.961 . S
H2428 C2414 0.961 . S
H2429 C2415 0.958 . S
H2430 C2415 0.961 . S
H2431 C2415 0.960 . S
C2432 C2433 1.391 . S
C2432 C2434 1.394 . S
C2432 H2448 0.931 . S
C2433 C2432 1.391 . S
C2433 C2437 1.376 . S
C2434 C2432 1.394 . S
C2434 C2435 1.369 . S
C2434 C2438 1.531 . S
C2435 C2434 1.369 . S
C2435 C2436 1.410 . S
C2435 C2443 1.503 1_655 S
C2436 C2435 1.410 . S
C2436 C2437 1.392 . S
C2436 C2439 1.511 1_655 S
C2437 C2433 1.376 . S
C2437 C2436 1.392 . S
C2437 H2449 0.929 . S
C2438 C2434 1.531 . S
C2438 H2450 0.960 . S
C2438 H2451 0.962 . S
C2438 H2452 0.960 . S
C2439 C2436 1.511 1_455 S
C2439 H2453 0.961 . S
C2439 H2454 0.961 . S
C2439 H2455 0.961 1_455 S
C2440 C2441 1.370 . S
C2440 C2442 1.363 . S
C2440 H2456 0.931 . S
C2441 C2440 1.370 . S
C2441 C2445 1.408 . S
C2442 C2440 1.363 . S
C2442 C2443 1.370 . S
C2442 C2446 1.524 . S
C2443 C2435 1.503 1_455 S
C2443 C2442 1.370 . S
C2443 C2444 1.403 1_455 S
C2444 C2443 1.403 1_655 S
C2444 C2445 1.404 1_655 S
C2444 C2447 1.539 . S
C2445 C2441 1.408 . S
C2445 C2444 1.404 1_455 S
C2445 H2457 0.930 . S
C2446 C2442 1.524 . S
C2446 H2458 0.956 . S
C2446 H2459 0.961 . S
C2446 H2460 0.961 . S
C2447 C2444 1.539 . S
C2447 H2461 0.958 . S
C2447 H2462 0.961 . S
C2447 H2463 0.960 . S
H2448 C2432 0.931 . S
H2449 C2437 0.929 . S
H2450 C2438 0.960 . S
H2451 C2438 0.962 . S
H2452 C2438 0.960 . S
H2453 C2439 0.961 . S
H2454 C2439 0.961 . S
H2455 C2439 0.961 1_655 S
H2456 C2440 0.931 . S
H2457 C2445 0.930 . S
H2458 C2446 0.956 . S
H2459 C2446 0.961 . S
H2460 C2446 0.961 . S
H2461 C2447 0.958 . S
H2462 C2447 0.961 . S
H2463 C2447 0.960 . S
C2464 C2465 1.391 . S
C2464 C2466 1.394 . S
C2464 H2480 0.931 . S
C2465 C2464 1.391 . S
C2465 C2469 1.376 . S
C2466 C2464 1.394 . S
C2466 C2467 1.369 . S
C2466 C2470 1.531 . S
C2467 C2466 1.369 . S
C2467 C2468 1.410 . S
C2467 C2475 1.503 . S
C2468 C2467 1.410 . S
C2468 C2469 1.392 . S
C2468 C2471 1.511 . S
C2469 C2465 1.376 . S
C2469 C2468 1.392 . S
C2469 H2481 0.929 . S
C2470 C2466 1.531 . S
C2470 H2482 0.960 . S
C2470 H2483 0.962 . S
C2470 H2484 0.960 . S
C2471 C2468 1.511 . S
C2471 H2485 0.961 . S
C2471 H2486 0.961 . S
C2471 H2487 0.961 . S
C2472 C2473 1.370 . S
C2472 C2474 1.363 . S
C2472 H2488 0.931 . S
C2473 C2472 1.370 . S
C2473 C2477 1.408 . S
C2474 C2472 1.363 . S
C2474 C2475 1.370 . S
C2474 C2478 1.524 . S
C2475 C2467 1.503 . S
C2475 C2474 1.370 . S
C2475 C2476 1.403 . S
C2476 C2475 1.403 . S
C2476 C2477 1.404 . S
C2476 C2479 1.539 . S
C2477 C2473 1.408 . S
C2477 C2476 1.404 . S
C2477 H2489 0.930 . S
C2478 C2474 1.524 . S
C2478 H2490 0.956 . S
C2478 H2491 0.961 . S
C2478 H2492 0.961 . S
C2479 C2476 1.539 . S
C2479 H2493 0.958 . S
C2479 H2494 0.961 . S
C2479 H2495 0.960 . S
H2480 C2464 0.931 . S
H2481 C2469 0.929 . S
H2482 C2470 0.960 . S
H2483 C2470 0.962 . S
H2484 C2470 0.960 . S
H2485 C2471 0.961 . S
H2486 C2471 0.961 . S
H2487 C2471 0.961 . S
H2488 C2472 0.931 . S
H2489 C2477 0.930 . S
H2490 C2478 0.956 . S
H2491 C2478 0.961 . S
H2492 C2478 0.961 . S
H2493 C2479 0.958 . S
H2494 C2479 0.961 . S
H2495 C2479 0.960 . S
C2496 C2497 1.391 . S
C2496 C2498 1.394 . S
C2496 H2512 0.931 . S
C2497 C2496 1.391 . S
C2497 C2501 1.376 . S
C2498 C2496 1.394 . S
C2498 C2499 1.369 . S
C2498 C2502 1.531 . S
C2499 C2498 1.369 . S
C2499 C2500 1.410 . S
C2499 C2507 1.503 . S
C2500 C2499 1.410 . S
C2500 C2501 1.392 . S
C2500 C2503 1.511 . S
C2501 C2497 1.376 . S
C2501 C2500 1.392 . S
C2501 H2513 0.929 . S
C2502 C2498 1.531 . S
C2502 H2514 0.960 . S
C2502 H2515 0.962 . S
C2502 H2516 0.960 . S
C2503 C2500 1.511 . S
C2503 H2517 0.961 . S
C2503 H2518 0.961 . S
C2503 H2519 0.961 . S
C2504 C2505 1.370 . S
C2504 C2506 1.363 . S
C2504 H2520 0.931 . S
C2505 C2504 1.370 . S
C2505 C2509 1.408 . S
C2506 C2504 1.363 . S
C2506 C2507 1.370 . S
C2506 C2510 1.524 . S
C2507 C2499 1.503 . S
C2507 C2506 1.370 . S
C2507 C2508 1.403 . S
C2508 C2507 1.403 . S
C2508 C2509 1.404 . S
C2508 C2511 1.539 . S
C2509 C2505 1.408 . S
C2509 C2508 1.404 . S
C2509 H2521 0.930 . S
C2510 C2506 1.524 . S
C2510 H2522 0.956 . S
C2510 H2523 0.961 . S
C2510 H2524 0.961 . S
C2511 C2508 1.539 . S
C2511 H2525 0.958 . S
C2511 H2526 0.961 . S
C2511 H2527 0.960 . S
H2512 C2496 0.931 . S
H2513 C2501 0.929 . S
H2514 C2502 0.960 . S
H2515 C2502 0.962 . S
H2516 C2502 0.960 . S
H2517 C2503 0.961 . S
H2518 C2503 0.961 . S
H2519 C2503 0.961 . S
H2520 C2504 0.931 . S
H2521 C2509 0.930 . S
H2522 C2510 0.956 . S
H2523 C2510 0.961 . S
H2524 C2510 0.961 . S
H2525 C2511 0.958 . S
H2526 C2511 0.961 . S
H2527 C2511 0.960 . S
C2528 C2529 1.391 . S
C2528 C2530 1.394 . S
C2528 H2544 0.931 . S
C2529 C2528 1.391 . S
C2529 C2533 1.376 . S
C2530 C2528 1.394 . S
C2530 C2531 1.369 . S
C2530 C2534 1.531 1_455 S
C2531 C2530 1.369 . S
C2531 C2532 1.410 . S
C2531 C2539 1.503 1_455 S
C2532 C2531 1.410 . S
C2532 C2533 1.392 . S
C2532 C2535 1.511 . S
C2533 C2529 1.376 . S
C2533 C2532 1.392 . S
C2533 H2545 0.929 . S
C2534 C2530 1.531 1_655 S
C2534 H2546 0.960 . S
C2534 H2547 0.962 . S
C2534 H2548 0.960 . S
C2535 C2532 1.511 . S
C2535 H2549 0.961 . S
C2535 H2550 0.961 . S
C2535 H2551 0.961 . S
C2536 C2537 1.370 . S
C2536 C2538 1.363 . S
C2536 H2552 0.931 . S
C2537 C2536 1.370 . S
C2537 C2541 1.408 . S
C2538 C2536 1.363 . S
C2538 C2539 1.370 . S
C2538 C2542 1.524 . S
C2539 C2531 1.503 1_655 S
C2539 C2538 1.370 . S
C2539 C2540 1.403 . S
C2540 C2539 1.403 . S
C2540 C2541 1.404 . S
C2540 C2543 1.539 1_655 S
C2541 C2537 1.408 . S
C2541 C2540 1.404 . S
C2541 H2553 0.930 . S
C2542 C2538 1.524 . S
C2542 H2554 0.956 . S
C2542 H2555 0.961 . S
C2542 H2556 0.961 . S
C2543 C2540 1.539 1_455 S
C2543 H2557 0.958 1_455 S
C2543 H2558 0.962 . S
C2543 H2559 0.960 . S
H2544 C2528 0.931 . S
H2545 C2533 0.929 . S
H2546 C2534 0.960 . S
H2547 C2534 0.962 . S
H2548 C2534 0.960 . S
H2549 C2535 0.961 . S
H2550 C2535 0.961 . S
H2551 C2535 0.961 . S
H2552 C2536 0.931 . S
H2553 C2541 0.930 . S
H2554 C2542 0.956 . S
H2555 C2542 0.961 . S
H2556 C2542 0.961 . S
H2557 C2543 0.958 1_655 S
H2558 C2543 0.962 . S
H2559 C2543 0.960 . S
C2560 C2561 1.391 . S
C2560 C2562 1.394 . S
C2560 H2576 0.931 . S
C2561 C2560 1.391 . S
C2561 C2565 1.376 . S
C2562 C2560 1.394 . S
C2562 C2563 1.369 . S
C2562 C2566 1.531 . S
C2563 C2562 1.369 . S
C2563 C2564 1.410 . S
C2563 C2571 1.503 1_455 S
C2564 C2563 1.410 . S
C2564 C2565 1.392 . S
C2564 C2567 1.511 1_455 S
C2565 C2561 1.376 . S
C2565 C2564 1.392 . S
C2565 H2577 0.929 . S
C2566 C2562 1.531 . S
C2566 H2578 0.960 . S
C2566 H2579 0.962 . S
C2566 H2580 0.960 . S
C2567 C2564 1.511 1_655 S
C2567 H2581 0.961 . S
C2567 H2582 0.961 . S
C2567 H2583 0.961 . S
C2568 C2569 1.370 . S
C2568 C2570 1.366 . S
C2568 H2584 0.931 . S
C2569 C2568 1.370 . S
C2569 C2573 1.408 . S
C2570 C2568 1.366 . S
C2570 C2571 1.373 . S
C2570 C2574 1.518 1_655 S
C2571 C2563 1.503 1_655 S
C2571 C2570 1.373 . S
C2571 C2572 1.403 . S
C2572 C2571 1.403 . S
C2572 C2573 1.404 . S
C2572 C2575 1.539 . S
C2573 C2569 1.408 . S
C2573 C2572 1.404 . S
C2573 H2585 0.930 . S
C2574 C2570 1.518 1_455 S
C2574 H2586 0.956 . S
C2574 H2587 0.961 . S
C2574 H2588 0.961 . S
C2575 C2572 1.539 . S
C2575 H2589 0.958 . S
C2575 H2590 0.961 . S
C2575 H2591 0.960 . S
H2576 C2560 0.931 . S
H2577 C2565 0.929 . S
H2578 C2566 0.960 . S
H2579 C2566 0.962 . S
H2580 C2566 0.960 . S
H2581 C2567 0.961 . S
H2582 C2567 0.961 . S
H2583 C2567 0.961 . S
H2584 C2568 0.931 . S
H2585 C2573 0.930 . S
H2586 C2574 0.956 . S
H2587 C2574 0.961 . S
H2588 C2574 0.961 . S
H2589 C2575 0.958 . S
H2590 C2575 0.961 . S
H2591 C2575 0.960 . S
C2592 C2593 1.391 . S
C2592 C2594 1.394 . S
C2592 H2608 0.931 . S
C2593 C2592 1.391 . S
C2593 C2597 1.376 . S
C2594 C2592 1.394 . S
C2594 C2595 1.369 . S
C2594 C2598 1.531 1_655 S
C2595 C2594 1.369 . S
C2595 C2596 1.410 . S
C2595 C2603 1.503 1_655 S
C2596 C2595 1.410 . S
C2596 C2597 1.392 . S
C2596 C2599 1.511 . S
C2597 C2593 1.376 . S
C2597 C2596 1.392 . S
C2597 H2609 0.929 . S
C2598 C2594 1.531 1_455 S
C2598 H2610 0.960 . S
C2598 H2611 0.962 . S
C2598 H2612 0.960 . S
C2599 C2596 1.511 . S
C2599 H2613 0.961 . S
C2599 H2614 0.961 . S
C2599 H2615 0.961 . S
C2600 C2601 1.370 . S
C2600 C2602 1.363 . S
C2600 H2616 0.931 . S
C2601 C2600 1.370 . S
C2601 C2605 1.408 . S
C2602 C2600 1.363 . S
C2602 C2603 1.370 . S
C2602 C2606 1.524 . S
C2603 C2595 1.503 1_455 S
C2603 C2602 1.370 . S
C2603 C2604 1.403 . S
C2604 C2603 1.403 . S
C2604 C2605 1.404 . S
C2604 C2607 1.539 1_455 S
C2605 C2601 1.408 . S
C2605 C2604 1.404 . S
C2605 H2617 0.930 . S
C2606 C2602 1.524 . S
C2606 H2618 0.956 . S
C2606 H2619 0.961 . S
C2606 H2620 0.961 . S
C2607 C2604 1.539 1_655 S
C2607 H2621 0.958 . S
C2607 H2622 0.961 . S
C2607 H2623 0.960 . S
H2608 C2592 0.931 . S
H2609 C2597 0.929 . S
H2610 C2598 0.960 . S
H2611 C2598 0.962 . S
H2612 C2598 0.960 . S
H2613 C2599 0.961 . S
H2614 C2599 0.961 . S
H2615 C2599 0.961 . S
H2616 C2600 0.931 . S
H2617 C2605 0.930 . S
H2618 C2606 0.956 . S
H2619 C2606 0.961 . S
H2620 C2606 0.961 . S
H2621 C2607 0.958 . S
H2622 C2607 0.961 . S
H2623 C2607 0.960 . S
C2624 C2625 1.391 . S
C2624 C2626 1.394 . S
C2624 H2640 0.931 . S
C2625 C2624 1.391 . S
C2625 C2629 1.376 . S
C2626 C2624 1.394 . S
C2626 C2627 1.369 . S
C2626 C2630 1.531 . S
C2627 C2626 1.369 . S
C2627 C2628 1.410 . S
C2627 C2635 1.503 . S
C2628 C2627 1.410 . S
C2628 C2629 1.392 . S
C2628 C2631 1.511 . S
C2629 C2625 1.376 . S
C2629 C2628 1.392 . S
C2629 H2641 0.929 . S
C2630 C2626 1.531 . S
C2630 H2642 0.960 . S
C2630 H2643 0.962 . S
C2630 H2644 0.960 . S
C2631 C2628 1.511 . S
C2631 H2645 0.961 . S
C2631 H2646 0.961 . S
C2631 H2647 0.961 . S
C2632 C2633 1.370 . S
C2632 C2634 1.363 . S
C2632 H2648 0.931 . S
C2633 C2632 1.370 . S
C2633 C2637 1.408 . S
C2634 C2632 1.363 . S
C2634 C2635 1.370 . S
C2634 C2638 1.524 . S
C2635 C2627 1.503 . S
C2635 C2634 1.370 . S
C2635 C2636 1.403 . S
C2636 C2635 1.403 . S
C2636 C2637 1.404 . S
C2636 C2639 1.539 . S
C2637 C2633 1.408 . S
C2637 C2636 1.404 . S
C2637 H2649 0.930 . S
C2638 C2634 1.524 . S
C2638 H2650 0.956 . S
C2638 H2651 0.961 . S
C2638 H2652 0.961 . S
C2639 C2636 1.539 . S
C2639 H2653 0.958 . S
C2639 H2654 0.961 . S
C2639 H2655 0.960 . S
H2640 C2624 0.931 . S
H2641 C2629 0.929 . S
H2642 C2630 0.960 . S
H2643 C2630 0.962 . S
H2644 C2630 0.960 . S
H2645 C2631 0.961 . S
H2646 C2631 0.961 . S
H2647 C2631 0.961 . S
H2648 C2632 0.931 . S
H2649 C2637 0.930 . S
H2650 C2638 0.956 . S
H2651 C2638 0.961 . S
H2652 C2638 0.961 . S
H2653 C2639 0.958 . S
H2654 C2639 0.961 . S
H2655 C2639 0.960 . S
C2656 C2657 1.391 . S
C2656 C2658 1.394 . S
C2656 H2672 0.931 . S
C2657 C2656 1.391 . S
C2657 C2661 1.376 . S
C2658 C2656 1.394 . S
C2658 C2659 1.369 . S
C2658 C2662 1.531 . S
C2659 C2658 1.369 . S
C2659 C2660 1.410 . S
C2659 C2667 1.503 . S
C2660 C2659 1.410 . S
C2660 C2661 1.392 . S
C2660 C2663 1.511 . S
C2661 C2657 1.376 . S
C2661 C2660 1.392 . S
C2661 H2673 0.929 . S
C2662 C2658 1.531 . S
C2662 H2674 0.960 . S
C2662 H2675 0.962 . S
C2662 H2676 0.960 . S
C2663 C2660 1.511 . S
C2663 H2677 0.961 . S
C2663 H2678 0.961 . S
C2663 H2679 0.961 . S
C2664 C2665 1.370 . S
C2664 C2666 1.363 . S
C2664 H2680 0.931 . S
C2665 C2664 1.370 . S
C2665 C2669 1.408 . S
C2666 C2664 1.363 . S
C2666 C2667 1.370 . S
C2666 C2670 1.524 . S
C2667 C2659 1.503 . S
C2667 C2666 1.370 . S
C2667 C2668 1.403 . S
C2668 C2667 1.403 . S
C2668 C2669 1.404 . S
C2668 C2671 1.539 . S
C2669 C2665 1.408 . S
C2669 C2668 1.404 . S
C2669 H2681 0.930 . S
C2670 C2666 1.524 . S
C2670 H2682 0.956 . S
C2670 H2683 0.961 . S
C2670 H2684 0.961 . S
C2671 C2668 1.539 . S
C2671 H2685 0.958 . S
C2671 H2686 0.961 . S
C2671 H2687 0.960 . S
H2672 C2656 0.931 . S
H2673 C2661 0.929 . S
H2674 C2662 0.960 . S
H2675 C2662 0.962 . S
H2676 C2662 0.960 . S
H2677 C2663 0.961 . S
H2678 C2663 0.961 . S
H2679 C2663 0.961 . S
H2680 C2664 0.931 . S
H2681 C2669 0.930 . S
H2682 C2670 0.956 . S
H2683 C2670 0.961 . S
H2684 C2670 0.961 . S
H2685 C2671 0.958 . S
H2686 C2671 0.961 . S
H2687 C2671 0.960 . S
C2688 C2689 1.391 . S
C2688 C2690 1.394 1_455 S
C2688 H2704 0.931 . S
C2689 C2688 1.391 . S
C2689 C2693 1.376 . S
C2690 C2688 1.394 1_655 S
C2690 C2691 1.369 1_655 S
C2690 C2694 1.531 . S
C2691 C2690 1.369 1_455 S
C2691 C2692 1.410 . S
C2691 C2699 1.503 1_455 S
C2692 C2691 1.410 . S
C2692 C2693 1.392 . S
C2692 C2695 1.511 . S
C2693 C2689 1.376 . S
C2693 C2692 1.392 . S
C2693 H2705 0.929 . S
C2694 C2690 1.531 . S
C2694 H2706 0.960 . S
C2694 H2707 0.962 . S
C2694 H2708 0.960 . S
C2695 C2692 1.511 . S
C2695 H2709 0.961 . S
C2695 H2710 0.961 . S
C2695 H2711 0.961 . S
C2696 C2697 1.370 . S
C2696 C2698 1.363 . S
C2696 H2712 0.931 . S
C2697 C2696 1.370 . S
C2697 C2701 1.408 . S
C2698 C2696 1.363 . S
C2698 C2699 1.370 . S
C2698 C2702 1.524 . S
C2699 C2691 1.503 1_655 S
C2699 C2698 1.370 . S
C2699 C2700 1.403 . S
C2700 C2699 1.403 . S
C2700 C2701 1.404 . S
C2700 C2703 1.539 . S
C2701 C2697 1.408 . S
C2701 C2700 1.404 . S
C2701 H2713 0.930 . S
C2702 C2698 1.524 . S
C2702 H2714 0.956 . S
C2702 H2715 0.961 1_655 S
C2702 H2716 0.961 . S
C2703 C2700 1.539 . S
C2703 H2717 0.958 . S
C2703 H2718 0.961 . S
C2703 H2719 0.960 1_655 S
H2704 C2688 0.931 . S
H2705 C2693 0.929 . S
H2706 C2694 0.960 . S
H2707 C2694 0.962 . S
H2708 C2694 0.960 . S
H2709 C2695 0.961 . S
H2710 C2695 0.961 . S
H2711 C2695 0.961 . S
H2712 C2696 0.931 . S
H2713 C2701 0.930 . S
H2714 C2702 0.956 . S
H2715 C2702 0.961 1_455 S
H2716 C2702 0.961 . S
H2717 C2703 0.958 . S
H2718 C2703 0.961 . S
H2719 C2703 0.960 1_455 S
C2720 C2721 1.391 . S
C2720 C2722 1.394 . S
C2720 H2736 0.931 . S
C2721 C2720 1.391 . S
C2721 C2725 1.376 . S
C2722 C2720 1.394 . S
C2722 C2723 1.369 . S
C2722 C2726 1.531 . S
C2723 C2722 1.369 . S
C2723 C2724 1.410 . S
C2723 C2731 1.503 . S
C2724 C2723 1.410 . S
C2724 C2725 1.392 . S
C2724 C2727 1.511 . S
C2725 C2721 1.376 . S
C2725 C2724 1.392 . S
C2725 H2737 0.929 . S
C2726 C2722 1.531 . S
C2726 H2738 0.960 . S
C2726 H2739 0.962 . S
C2726 H2740 0.960 . S
C2727 C2724 1.511 . S
C2727 H2741 0.961 . S
C2727 H2742 0.961 . S
C2727 H2743 0.961 . S
C2728 C2729 1.370 . S
C2728 C2730 1.363 . S
C2728 H2744 0.931 . S
C2729 C2728 1.370 . S
C2729 C2733 1.408 . S
C2730 C2728 1.363 . S
C2730 C2731 1.370 . S
C2730 C2734 1.524 . S
C2731 C2723 1.503 . S
C2731 C2730 1.370 . S
C2731 C2732 1.403 . S
C2732 C2731 1.403 . S
C2732 C2733 1.404 . S
C2732 C2735 1.539 . S
C2733 C2729 1.408 . S
C2733 C2732 1.404 . S
C2733 H2745 0.930 . S
C2734 C2730 1.524 . S
C2734 H2746 0.956 . S
C2734 H2747 0.961 . S
C2734 H2748 0.961 . S
C2735 C2732 1.539 . S
C2735 H2749 0.958 . S
C2735 H2750 0.961 . S
C2735 H2751 0.960 . S
H2736 C2720 0.931 . S
H2737 C2725 0.929 . S
H2738 C2726 0.960 . S
H2739 C2726 0.962 . S
H2740 C2726 0.960 . S
H2741 C2727 0.961 . S
H2742 C2727 0.961 . S
H2743 C2727 0.961 . S
H2744 C2728 0.931 . S
H2745 C2733 0.930 . S
H2746 C2734 0.956 . S
H2747 C2734 0.961 . S
H2748 C2734 0.961 . S
H2749 C2735 0.958 . S
H2750 C2735 0.961 . S
H2751 C2735 0.960 . S
C2752 C2753 1.391 . S
C2752 C2754 1.394 . S
C2752 H2768 0.931 . S
C2753 C2752 1.391 . S
C2753 C2757 1.376 . S
C2754 C2752 1.394 . S
C2754 C2755 1.369 . S
C2754 C2758 1.531 . S
C2755 C2754 1.369 . S
C2755 C2756 1.410 . S
C2755 C2763 1.503 . S
C2756 C2755 1.410 . S
C2756 C2757 1.392 . S
C2756 C2759 1.511 . S
C2757 C2753 1.376 . S
C2757 C2756 1.392 . S
C2757 H2769 0.929 . S
C2758 C2754 1.531 . S
C2758 H2770 0.960 . S
C2758 H2771 0.962 . S
C2758 H2772 0.960 . S
C2759 C2756 1.511 . S
C2759 H2773 0.961 . S
C2759 H2774 0.961 . S
C2759 H2775 0.961 . S
C2760 C2761 1.370 . S
C2760 C2762 1.363 . S
C2760 H2776 0.931 . S
C2761 C2760 1.370 . S
C2761 C2765 1.408 . S
C2762 C2760 1.363 . S
C2762 C2763 1.370 . S
C2762 C2766 1.524 . S
C2763 C2755 1.503 . S
C2763 C2762 1.370 . S
C2763 C2764 1.403 . S
C2764 C2763 1.403 . S
C2764 C2765 1.404 . S
C2764 C2767 1.539 . S
C2765 C2761 1.408 . S
C2765 C2764 1.404 . S
C2765 H2777 0.930 . S
C2766 C2762 1.524 . S
C2766 H2778 0.956 . S
C2766 H2779 0.961 . S
C2766 H2780 0.961 . S
C2767 C2764 1.539 . S
C2767 H2781 0.958 . S
C2767 H2782 0.961 . S
C2767 H2783 0.960 . S
H2768 C2752 0.931 . S
H2769 C2757 0.929 . S
H2770 C2758 0.960 . S
H2771 C2758 0.962 . S
H2772 C2758 0.960 . S
H2773 C2759 0.961 . S
H2774 C2759 0.961 . S
H2775 C2759 0.961 . S
H2776 C2760 0.931 . S
H2777 C2765 0.930 . S
H2778 C2766 0.956 . S
H2779 C2766 0.961 . S
H2780 C2766 0.961 . S
H2781 C2767 0.958 . S
H2782 C2767 0.961 . S
H2783 C2767 0.960 . S
C2784 C2785 1.391 . S
C2784 C2786 1.394 . S
C2784 H2800 0.931 . S
C2785 C2784 1.391 . S
C2785 C2789 1.376 . S
C2786 C2784 1.394 . S
C2786 C2787 1.369 . S
C2786 C2790 1.531 1_655 S
C2787 C2786 1.369 . S
C2787 C2788 1.410 . S
C2787 C2795 1.503 1_655 S
C2788 C2787 1.410 . S
C2788 C2789 1.392 . S
C2788 C2791 1.511 . S
C2789 C2785 1.376 . S
C2789 C2788 1.392 . S
C2789 H2801 0.929 . S
C2790 C2786 1.531 1_455 S
C2790 H2802 0.960 . S
C2790 H2803 0.962 1_455 S
C2790 H2804 0.964 . S
C2791 C2788 1.511 . S
C2791 H2805 0.961 . S
C2791 H2806 0.961 . S
C2791 H2807 0.961 . S
C2792 C2793 1.370 . S
C2792 C2794 1.363 . S
C2792 H2808 0.931 . S
C2793 C2792 1.370 . S
C2793 C2797 1.408 . S
C2794 C2792 1.363 . S
C2794 C2795 1.370 . S
C2794 C2798 1.524 1_455 S
C2795 C2787 1.503 1_455 S
C2795 C2794 1.370 . S
C2795 C2796 1.403 . S
C2796 C2795 1.403 . S
C2796 C2797 1.404 . S
C2796 C2799 1.539 . S
C2797 C2793 1.408 . S
C2797 C2796 1.404 . S
C2797 H2809 0.930 . S
C2798 C2794 1.524 1_655 S
C2798 H2810 0.956 . S
C2798 H2811 0.961 . S
C2798 H2812 0.961 . S
C2799 C2796 1.539 . S
C2799 H2813 0.958 . S
C2799 H2814 0.961 . S
C2799 H2815 0.960 . S
H2800 C2784 0.931 . S
H2801 C2789 0.929 . S
H2802 C2790 0.960 . S
H2803 C2790 0.962 1_655 S
H2804 C2790 0.964 . S
H2805 C2791 0.961 . S
H2806 C2791 0.961 . S
H2807 C2791 0.961 . S
H2808 C2792 0.931 . S
H2809 C2797 0.930 . S
H2810 C2798 0.956 . S
H2811 C2798 0.961 . S
H2812 C2798 0.961 . S
H2813 C2799 0.958 . S
H2814 C2799 0.961 . S
H2815 C2799 0.960 . S
C2816 C2817 1.391 . S
C2816 C2818 1.394 . S
C2816 H2832 0.931 . S
C2817 C2816 1.391 . S
C2817 C2821 1.376 . S
C2818 C2816 1.394 . S
C2818 C2819 1.369 . S
C2818 C2822 1.531 . S
C2819 C2818 1.369 . S
C2819 C2820 1.410 . S
C2819 C2827 1.503 . S
C2820 C2819 1.410 . S
C2820 C2821 1.392 . S
C2820 C2823 1.511 . S
C2821 C2817 1.376 . S
C2821 C2820 1.392 . S
C2821 H2833 0.929 . S
C2822 C2818 1.531 . S
C2822 H2834 0.960 . S
C2822 H2835 0.962 . S
C2822 H2836 0.960 . S
C2823 C2820 1.511 . S
C2823 H2837 0.961 . S
C2823 H2838 0.961 . S
C2823 H2839 0.961 . S
C2824 C2825 1.370 . S
C2824 C2826 1.363 . S
C2824 H2840 0.931 . S
C2825 C2824 1.370 . S
C2825 C2829 1.408 . S
C2826 C2824 1.363 . S
C2826 C2827 1.370 . S
C2826 C2830 1.524 . S
C2827 C2819 1.503 . S
C2827 C2826 1.370 . S
C2827 C2828 1.403 . S
C2828 C2827 1.403 . S
C2828 C2829 1.404 . S
C2828 C2831 1.539 . S
C2829 C2825 1.408 . S
C2829 C2828 1.404 . S
C2829 H2841 0.930 . S
C2830 C2826 1.524 . S
C2830 H2842 0.956 . S
C2830 H2843 0.961 . S
C2830 H2844 0.961 . S
C2831 C2828 1.539 . S
C2831 H2845 0.958 . S
C2831 H2846 0.961 . S
C2831 H2847 0.960 . S
H2832 C2816 0.931 . S
H2833 C2821 0.929 . S
H2834 C2822 0.960 . S
H2835 C2822 0.962 . S
H2836 C2822 0.960 . S
H2837 C2823 0.961 . S
H2838 C2823 0.961 . S
H2839 C2823 0.961 . S
H2840 C2824 0.931 . S
H2841 C2829 0.930 . S
H2842 C2830 0.956 . S
H2843 C2830 0.961 . S
H2844 C2830 0.961 . S
H2845 C2831 0.958 . S
H2846 C2831 0.961 . S
H2847 C2831 0.960 . S
C2848 C2849 1.391 1_565 S
C2848 C2850 1.394 . S
C2848 H2864 0.931 . S
C2849 C2848 1.391 1_545 S
C2849 C2853 1.376 . S
C2850 C2848 1.394 . S
C2850 C2851 1.369 . S
C2850 C2854 1.531 . S
C2851 C2850 1.369 . S
C2851 C2852 1.410 1_565 S
C2851 C2859 1.503 1_655 S
C2852 C2851 1.410 1_545 S
C2852 C2853 1.392 . S
C2852 C2855 1.511 1_655 S
C2853 C2849 1.376 . S
C2853 C2852 1.392 . S
C2853 H2865 0.929 . S
C2854 C2850 1.531 . S
C2854 H2866 0.960 . S
C2854 H2867 0.962 . S
C2854 H2868 0.960 . S
C2855 C2852 1.511 1_455 S
C2855 H2869 0.961 1_455 S
C2855 H2870 0.961 . S
C2855 H2871 0.961 . S
C2856 C2857 1.370 1_545 S
C2856 C2858 1.363 . S
C2856 H2872 0.931 . S
C2857 C2856 1.370 1_565 S
C2857 C2861 1.408 . S
C2858 C2856 1.363 . S
C2858 C2859 1.370 1_545 S
C2858 C2862 1.524 . S
C2859 C2851 1.503 1_455 S
C2859 C2858 1.370 1_565 S
C2859 C2860 1.403 . S
C2860 C2859 1.403 . S
C2860 C2861 1.404 . S
C2860 C2863 1.539 . S
C2861 C2857 1.408 . S
C2861 C2860 1.404 . S
C2861 H2873 0.930 . S
C2862 C2858 1.524 . S
C2862 H2874 0.956 1_455 S
C2862 H2875 0.961 1_455 S
C2862 H2876 0.961 . S
C2863 C2860 1.539 . S
C2863 H2877 0.958 . S
C2863 H2878 0.961 . S
C2863 H2879 0.960 . S
H2864 C2848 0.931 . S
H2865 C2853 0.929 . S
H2866 C2854 0.960 . S
H2867 C2854 0.962 . S
H2868 C2854 0.960 . S
H2869 C2855 0.961 1_655 S
H2870 C2855 0.961 . S
H2871 C2855 0.961 . S
H2872 C2856 0.931 . S
H2873 C2861 0.930 . S
H2874 C2862 0.956 1_655 S
H2875 C2862 0.961 1_655 S
H2876 C2862 0.961 . S
H2877 C2863 0.958 . S
H2878 C2863 0.961 . S
H2879 C2863 0.960 . S
C2880 C2881 1.391 . S
C2880 C2882 1.394 . S
C2880 H2896 0.931 . S
C2881 C2880 1.391 . S
C2881 C2885 1.376 . S
C2882 C2880 1.394 . S
C2882 C2883 1.369 . S
C2882 C2886 1.531 . S
C2883 C2882 1.369 . S
C2883 C2884 1.410 . S
C2883 C2891 1.503 . S
C2884 C2883 1.410 . S
C2884 C2885 1.392 . S
C2884 C2887 1.511 . S
C2885 C2881 1.376 . S
C2885 C2884 1.392 . S
C2885 H2897 0.929 . S
C2886 C2882 1.531 . S
C2886 H2898 0.960 . S
C2886 H2899 0.962 . S
C2886 H2900 0.960 . S
C2887 C2884 1.511 . S
C2887 H2901 0.961 . S
C2887 H2902 0.961 . S
C2887 H2903 0.961 . S
C2888 C2889 1.370 . S
C2888 C2890 1.363 . S
C2888 H2904 0.931 . S
C2889 C2888 1.370 . S
C2889 C2893 1.408 . S
C2890 C2888 1.363 . S
C2890 C2891 1.370 . S
C2890 C2894 1.524 . S
C2891 C2883 1.503 . S
C2891 C2890 1.370 . S
C2891 C2892 1.403 . S
C2892 C2891 1.403 . S
C2892 C2893 1.404 . S
C2892 C2895 1.539 . S
C2893 C2889 1.408 . S
C2893 C2892 1.404 . S
C2893 H2905 0.930 . S
C2894 C2890 1.524 . S
C2894 H2906 0.956 . S
C2894 H2907 0.961 . S
C2894 H2908 0.961 . S
C2895 C2892 1.539 . S
C2895 H2909 0.958 . S
C2895 H2910 0.961 . S
C2895 H2911 0.960 . S
H2896 C2880 0.931 . S
H2897 C2885 0.929 . S
H2898 C2886 0.960 . S
H2899 C2886 0.962 . S
H2900 C2886 0.960 . S
H2901 C2887 0.961 . S
H2902 C2887 0.961 . S
H2903 C2887 0.961 . S
H2904 C2888 0.931 . S
H2905 C2893 0.930 . S
H2906 C2894 0.956 . S
H2907 C2894 0.961 . S
H2908 C2894 0.961 . S
H2909 C2895 0.958 . S
H2910 C2895 0.961 . S
H2911 C2895 0.960 . S
C2912 C2913 1.369 1_566 S
C2912 C2914 1.404 . S
C2912 H2928 0.943 . S
C2913 C2912 1.369 1_544 S
C2913 C2917 1.376 . S
C2914 C2912 1.404 . S
C2914 C2915 1.358 1_566 S
C2914 C2918 1.531 . S
C2915 C2914 1.358 1_544 S
C2915 C2916 1.430 . S
C2915 C2923 1.496 1_554 S
C2916 C2915 1.430 . S
C2916 C2917 1.392 . S
C2916 C2919 1.511 . S
C2917 C2913 1.376 . S
C2917 C2916 1.392 . S
C2917 H2929 0.929 . S
C2918 C2914 1.531 . S
C2918 H2930 0.960 . S
C2918 H2931 0.962 . S
C2918 H2932 0.960 . S
C2919 C2916 1.511 . S
C2919 H2933 0.961 . S
C2919 H2934 0.961 . S
C2919 H2935 0.961 . S
C2920 C2921 1.370 . S
C2920 C2922 1.363 1_556 S
C2920 H2936 0.897 1_556 S
C2921 C2920 1.370 . S
C2921 C2925 1.408 1_565 S
C2922 C2920 1.363 1_554 S
C2922 C2923 1.370 1_564 S
C2922 C2926 1.524 . S
C2923 C2915 1.496 1_556 S
C2923 C2922 1.370 1_546 S
C2923 C2924 1.403 . S
C2924 C2923 1.403 . S
C2924 C2925 1.404 . S
C2924 C2927 1.539 . S
C2925 C2921 1.408 1_545 S
C2925 C2924 1.404 . S
C2925 H2937 0.930 . S
C2926 C2922 1.524 . S
C2926 H2938 0.956 . S
C2926 H2939 0.961 . S
C2926 H2940 0.961 . S
C2927 C2924 1.539 . S
C2927 H2941 0.958 . S
C2927 H2942 0.961 . S
C2927 H2943 0.960 . S
H2928 C2912 0.943 . S
H2929 C2917 0.929 . S
H2930 C2918 0.960 . S
H2931 C2918 0.962 . S
H2932 C2918 0.960 . S
H2933 C2919 0.961 . S
H2934 C2919 0.961 . S
H2935 C2919 0.961 . S
H2936 C2920 0.897 1_554 S
H2937 C2925 0.930 . S
H2938 C2926 0.956 . S
H2939 C2926 0.961 . S
H2940 C2926 0.961 . S
H2941 C2927 0.958 . S
H2942 C2927 0.961 . S
H2943 C2927 0.960 . S
C2944 C2945 1.391 . S
C2944 C2946 1.394 . S
C2944 H2960 0.931 . S
C2945 C2944 1.391 . S
C2945 C2949 1.376 . S
C2946 C2944 1.394 . S
C2946 C2947 1.369 . S
C2946 C2950 1.531 . S
C2947 C2946 1.369 . S
C2947 C2948 1.410 . S
C2947 C2955 1.503 . S
C2948 C2947 1.410 . S
C2948 C2949 1.392 . S
C2948 C2951 1.511 . S
C2949 C2945 1.376 . S
C2949 C2948 1.392 . S
C2949 H2961 0.929 . S
C2950 C2946 1.531 . S
C2950 H2962 0.960 . S
C2950 H2963 0.962 . S
C2950 H2964 0.960 . S
C2951 C2948 1.511 . S
C2951 H2965 0.961 . S
C2951 H2966 0.961 . S
C2951 H2967 0.961 . S
C2952 C2953 1.370 . S
C2952 C2954 1.363 . S
C2952 H2968 0.931 . S
C2953 C2952 1.370 . S
C2953 C2957 1.408 . S
C2954 C2952 1.363 . S
C2954 C2955 1.370 . S
C2954 C2958 1.524 . S
C2955 C2947 1.503 . S
C2955 C2954 1.370 . S
C2955 C2956 1.403 . S
C2956 C2955 1.403 . S
C2956 C2957 1.404 . S
C2956 C2959 1.539 . S
C2957 C2953 1.408 . S
C2957 C2956 1.404 . S
C2957 H2969 0.930 . S
C2958 C2954 1.524 . S
C2958 H2970 0.956 . S
C2958 H2971 0.961 . S
C2958 H2972 0.961 . S
C2959 C2956 1.539 . S
C2959 H2973 0.958 . S
C2959 H2974 0.961 . S
C2959 H2975 0.960 . S
H2960 C2944 0.931 . S
H2961 C2949 0.929 . S
H2962 C2950 0.960 . S
H2963 C2950 0.962 . S
H2964 C2950 0.960 . S
H2965 C2951 0.961 . S
H2966 C2951 0.961 . S
H2967 C2951 0.961 . S
H2968 C2952 0.931 . S
H2969 C2957 0.930 . S
H2970 C2958 0.956 . S
H2971 C2958 0.961 . S
H2972 C2958 0.961 . S
H2973 C2959 0.958 . S
H2974 C2959 0.961 . S
H2975 C2959 0.960 . S
C2976 C2977 1.391 . S
C2976 C2978 1.394 . S
C2976 H2992 0.931 . S
C2977 C2976 1.391 . S
C2977 C2981 1.376 1_545 S
C2978 C2976 1.394 . S
C2978 C2979 1.369 1_545 S
C2978 C2982 1.531 . S
C2979 C2978 1.369 1_565 S
C2979 C2980 1.410 . S
C2979 C2987 1.503 . S
C2980 C2979 1.410 . S
C2980 C2981 1.392 . S
C2980 C2983 1.511 . S
C2981 C2977 1.376 1_565 S
C2981 C2980 1.392 . S
C2981 H2993 0.929 . S
C2982 C2978 1.531 . S
C2982 H2994 0.960 1_545 S
C2982 H2995 0.962 . S
C2982 H2996 0.960 . S
C2983 C2980 1.511 . S
C2983 H2997 0.961 . S
C2983 H2998 0.961 . S
C2983 H2999 0.961 . S
C2984 C2985 1.370 1_545 S
C2984 C2986 1.363 . S
C2984 H3000 0.931 . S
C2985 C2984 1.370 1_565 S
C2985 C2989 1.408 . S
C2986 C2984 1.363 . S
C2986 C2987 1.370 1_545 S
C2986 C2990 1.524 . S
C2987 C2979 1.503 . S
C2987 C2986 1.370 1_565 S
C2987 C2988 1.403 . S
C2988 C2987 1.403 . S
C2988 C2989 1.404 . S
C2988 C2991 1.539 . S
C2989 C2985 1.408 . S
C2989 C2988 1.404 . S
C2989 H3001 0.930 . S
C2990 C2986 1.524 . S
C2990 H3002 0.956 . S
C2990 H3003 0.961 . S
C2990 H3004 0.961 . S
C2991 C2988 1.539 . S
C2991 H3005 0.958 . S
C2991 H3006 0.961 . S
C2991 H3007 0.960 . S
H2992 C2976 0.931 . S
H2993 C2981 0.929 . S
H2994 C2982 0.960 1_565 S
H2995 C2982 0.962 . S
H2996 C2982 0.960 . S
H2997 C2983 0.961 . S
H2998 C2983 0.961 . S
H2999 C2983 0.961 . S
H3000 C2984 0.931 . S
H3001 C2989 0.930 . S
H3002 C2990 0.956 . S
H3003 C2990 0.961 . S
H3004 C2990 0.961 . S
H3005 C2991 0.958 . S
H3006 C2991 0.961 . S
H3007 C2991 0.960 . S
C3008 C3009 1.391 . S
C3008 C3010 1.394 . S
C3008 H3024 0.931 . S
C3009 C3008 1.391 . S
C3009 C3013 1.376 . S
C3010 C3008 1.394 . S
C3010 C3011 1.369 . S
C3010 C3014 1.531 . S
C3011 C3010 1.369 . S
C3011 C3012 1.410 . S
C3011 C3019 1.503 . S
C3012 C3011 1.410 . S
C3012 C3013 1.392 . S
C3012 C3015 1.511 . S
C3013 C3009 1.376 . S
C3013 C3012 1.392 . S
C3013 H3025 0.929 . S
C3014 C3010 1.531 . S
C3014 H3026 0.960 . S
C3014 H3027 0.962 . S
C3014 H3028 0.960 . S
C3015 C3012 1.511 . S
C3015 H3029 0.961 . S
C3015 H3030 0.961 . S
C3015 H3031 0.961 . S
C3016 C3017 1.370 . S
C3016 C3018 1.363 . S
C3016 H3032 0.931 . S
C3017 C3016 1.370 . S
C3017 C3021 1.408 . S
C3018 C3016 1.363 . S
C3018 C3019 1.370 . S
C3018 C3022 1.524 . S
C3019 C3011 1.503 . S
C3019 C3018 1.370 . S
C3019 C3020 1.403 . S
C3020 C3019 1.403 . S
C3020 C3021 1.404 . S
C3020 C3023 1.539 . S
C3021 C3017 1.408 . S
C3021 C3020 1.404 . S
C3021 H3033 0.930 . S
C3022 C3018 1.524 . S
C3022 H3034 0.956 . S
C3022 H3035 0.961 . S
C3022 H3036 0.961 . S
C3023 C3020 1.539 . S
C3023 H3037 0.958 . S
C3023 H3038 0.961 . S
C3023 H3039 0.960 . S
H3024 C3008 0.931 . S
H3025 C3013 0.929 . S
H3026 C3014 0.960 . S
H3027 C3014 0.962 . S
H3028 C3014 0.960 . S
H3029 C3015 0.961 . S
H3030 C3015 0.961 . S
H3031 C3015 0.961 . S
H3032 C3016 0.931 . S
H3033 C3021 0.930 . S
H3034 C3022 0.956 . S
H3035 C3022 0.961 . S
H3036 C3022 0.961 . S
H3037 C3023 0.958 . S
H3038 C3023 0.961 . S
H3039 C3023 0.960 . S
C3040 C3041 1.386 1_565 S
C3040 C3042 1.399 . S
C3040 H3056 0.932 . S
C3041 C3040 1.386 1_545 S
C3041 C3045 1.376 1_556 S
C3042 C3040 1.399 . S
C3042 C3043 1.369 . S
C3042 C3046 1.531 1_455 S
C3043 C3042 1.369 . S
C3043 C3044 1.410 1_556 S
C3043 C3051 1.503 1_456 S
C3044 C3043 1.410 1_554 S
C3044 C3045 1.392 1_565 S
C3044 C3047 1.511 . S
C3045 C3041 1.376 1_554 S
C3045 C3044 1.392 1_545 S
C3045 H3057 0.929 . S
C3046 C3042 1.531 1_655 S
C3046 H3058 0.960 . S
C3046 H3059 0.962 1_565 S
C3046 H3060 0.960 1_655 S
C3047 C3044 1.511 . S
C3047 H3061 0.961 1_565 S
C3047 H3062 0.961 1_565 S
C3047 H3063 0.961 . S
C3048 C3049 1.370 1_545 S
C3048 C3050 1.363 . S
C3048 H3064 0.931 . S
C3049 C3048 1.370 1_565 S
C3049 C3053 1.408 . S
C3050 C3048 1.363 . S
C3050 C3051 1.370 1_545 S
C3050 C3054 1.539 . S
C3051 C3043 1.503 1_654 S
C3051 C3050 1.370 1_565 S
C3051 C3052 1.403 . S
C3052 C3051 1.403 . S
C3052 C3053 1.404 . S
C3052 C3055 1.539 . S
C3053 C3049 1.408 . S
C3053 C3052 1.404 . S
C3053 H3065 0.930 . S
C3054 C3050 1.539 . S
C3054 H3066 0.891 1_554 S
C3054 H3067 0.996 1_655 S
C3054 H3068 0.980 . S
C3055 C3052 1.539 . S
C3055 H3069 0.958 1_554 S
C3055 H3070 0.961 . S
C3055 H3071 0.960 1_655 S
H3056 C3040 0.932 . S
H3057 C3045 0.929 . S
H3058 C3046 0.960 . S
H3059 C3046 0.962 1_545 S
H3060 C3046 0.960 1_455 S
H3061 C3047 0.961 1_545 S
H3062 C3047 0.961 1_545 S
H3063 C3047 0.961 . S
H3064 C3048 0.931 . S
H3065 C3053 0.930 . S
H3066 C3054 0.891 1_556 S
H3067 C3054 0.996 1_455 S
H3068 C3054 0.980 . S
H3069 C3055 0.958 1_556 S
H3070 C3055 0.961 . S
H3071 C3055 0.960 1_455 S
C3072 C3073 1.391 . S
C3072 C3074 1.394 . S
C3072 H3088 0.931 . S
C3073 C3072 1.391 . S
C3073 C3077 1.376 . S
C3074 C3072 1.394 . S
C3074 C3075 1.369 . S
C3074 C3078 1.531 . S
C3075 C3074 1.369 . S
C3075 C3076 1.410 . S
C3075 C3083 1.503 . S
C3076 C3075 1.410 . S
C3076 C3077 1.392 . S
C3076 C3079 1.511 . S
C3077 C3073 1.376 . S
C3077 C3076 1.392 . S
C3077 H3089 0.929 . S
C3078 C3074 1.531 . S
C3078 H3090 0.960 . S
C3078 H3091 0.962 . S
C3078 H3092 0.960 . S
C3079 C3076 1.511 . S
C3079 H3093 0.961 . S
C3079 H3094 0.961 . S
C3079 H3095 0.961 . S
C3080 C3081 1.370 . S
C3080 C3082 1.363 . S
C3080 H3096 0.931 . S
C3081 C3080 1.370 . S
C3081 C3085 1.408 . S
C3082 C3080 1.363 . S
C3082 C3083 1.370 . S
C3082 C3086 1.524 . S
C3083 C3075 1.503 . S
C3083 C3082 1.370 . S
C3083 C3084 1.403 . S
C3084 C3083 1.403 . S
C3084 C3085 1.404 . S
C3084 C3087 1.539 . S
C3085 C3081 1.408 . S
C3085 C3084 1.404 . S
C3085 H3097 0.930 . S
C3086 C3082 1.524 . S
C3086 H3098 0.956 . S
C3086 H3099 0.961 . S
C3086 H3100 0.961 . S
C3087 C3084 1.539 . S
C3087 H3101 0.958 . S
C3087 H3102 0.961 . S
C3087 H3103 0.960 . S
H3088 C3072 0.931 . S
H3089 C3077 0.929 . S
H3090 C3078 0.960 . S
H3091 C3078 0.962 . S
H3092 C3078 0.960 . S
H3093 C3079 0.961 . S
H3094 C3079 0.961 . S
H3095 C3079 0.961 . S
H3096 C3080 0.931 . S
H3097 C3085 0.930 . S
H3098 C3086 0.956 . S
H3099 C3086 0.961 . S
H3100 C3086 0.961 . S
H3101 C3087 0.958 . S
H3102 C3087 0.961 . S
H3103 C3087 0.960 . S
C3104 C3105 1.391 . S
C3104 C3106 1.394 . S
C3104 H3120 0.931 . S
C3105 C3104 1.391 . S
C3105 C3109 1.376 . S
C3106 C3104 1.394 . S
C3106 C3107 1.369 . S
C3106 C3110 1.531 . S
C3107 C3106 1.369 . S
C3107 C3108 1.410 . S
C3107 C3115 1.503 . S
C3108 C3107 1.410 . S
C3108 C3109 1.392 . S
C3108 C3111 1.511 . S
C3109 C3105 1.376 . S
C3109 C3108 1.392 . S
C3109 H3121 0.929 . S
C3110 C3106 1.531 . S
C3110 H3122 0.960 . S
C3110 H3123 0.962 . S
C3110 H3124 0.960 . S
C3111 C3108 1.511 . S
C3111 H3125 0.961 . S
C3111 H3126 0.961 . S
C3111 H3127 0.961 . S
C3112 C3113 1.370 . S
C3112 C3114 1.363 . S
C3112 H3128 0.931 . S
C3113 C3112 1.370 . S
C3113 C3117 1.408 . S
C3114 C3112 1.363 . S
C3114 C3115 1.370 . S
C3114 C3118 1.524 . S
C3115 C3107 1.503 . S
C3115 C3114 1.370 . S
C3115 C3116 1.403 . S
C3116 C3115 1.403 . S
C3116 C3117 1.404 . S
C3116 C3119 1.539 . S
C3117 C3113 1.408 . S
C3117 C3116 1.404 . S
C3117 H3129 0.930 . S
C3118 C3114 1.524 . S
C3118 H3130 0.956 . S
C3118 H3131 0.961 . S
C3118 H3132 0.961 . S
C3119 C3116 1.539 . S
C3119 H3133 0.958 . S
C3119 H3134 0.961 . S
C3119 H3135 0.960 . S
H3120 C3104 0.931 . S
H3121 C3109 0.929 . S
H3122 C3110 0.960 . S
H3123 C3110 0.962 . S
H3124 C3110 0.960 . S
H3125 C3111 0.961 . S
H3126 C3111 0.961 . S
H3127 C3111 0.961 . S
H3128 C3112 0.931 . S
H3129 C3117 0.930 . S
H3130 C3118 0.956 . S
H3131 C3118 0.961 . S
H3132 C3118 0.961 . S
H3133 C3119 0.958 . S
H3134 C3119 0.961 . S
H3135 C3119 0.960 . S
C3136 C3137 1.391 . S
C3136 C3138 1.394 . S
C3136 H3152 0.931 . S
C3137 C3136 1.391 . S
C3137 C3141 1.376 . S
C3138 C3136 1.394 . S
C3138 C3139 1.369 . S
C3138 C3142 1.531 . S
C3139 C3138 1.369 . S
C3139 C3140 1.410 . S
C3139 C3147 1.503 . S
C3140 C3139 1.410 . S
C3140 C3141 1.392 . S
C3140 C3143 1.511 . S
C3141 C3137 1.376 . S
C3141 C3140 1.392 . S
C3141 H3153 0.929 . S
C3142 C3138 1.531 . S
C3142 H3154 0.960 . S
C3142 H3155 0.962 . S
C3142 H3156 0.960 . S
C3143 C3140 1.511 . S
C3143 H3157 0.961 . S
C3143 H3158 0.961 . S
C3143 H3159 0.961 . S
C3144 C3145 1.370 . S
C3144 C3146 1.363 . S
C3144 H3160 0.931 . S
C3145 C3144 1.370 . S
C3145 C3149 1.408 . S
C3146 C3144 1.363 . S
C3146 C3147 1.370 . S
C3146 C3150 1.524 . S
C3147 C3139 1.503 . S
C3147 C3146 1.370 . S
C3147 C3148 1.403 . S
C3148 C3147 1.403 . S
C3148 C3149 1.404 . S
C3148 C3151 1.539 . S
C3149 C3145 1.408 . S
C3149 C3148 1.404 . S
C3149 H3161 0.930 . S
C3150 C3146 1.524 . S
C3150 H3162 0.956 . S
C3150 H3163 0.961 . S
C3150 H3164 0.961 . S
C3151 C3148 1.539 . S
C3151 H3165 0.958 . S
C3151 H3166 0.961 . S
C3151 H3167 0.960 . S
H3152 C3136 0.931 . S
H3153 C3141 0.929 . S
H3154 C3142 0.960 . S
H3155 C3142 0.962 . S
H3156 C3142 0.960 . S
H3157 C3143 0.961 . S
H3158 C3143 0.961 . S
H3159 C3143 0.961 . S
H3160 C3144 0.931 . S
H3161 C3149 0.930 . S
H3162 C3150 0.956 . S
H3163 C3150 0.961 . S
H3164 C3150 0.961 . S
H3165 C3151 0.958 . S
H3166 C3151 0.961 . S
H3167 C3151 0.960 . S
C3168 C3169 1.391 . S
C3168 C3170 1.394 . S
C3168 H3184 0.931 . S
C3169 C3168 1.391 . S
C3169 C3173 1.376 . S
C3170 C3168 1.394 . S
C3170 C3171 1.369 . S
C3170 C3174 1.531 . S
C3171 C3170 1.369 . S
C3171 C3172 1.410 . S
C3171 C3179 1.503 . S
C3172 C3171 1.410 . S
C3172 C3173 1.392 . S
C3172 C3175 1.511 . S
C3173 C3169 1.376 . S
C3173 C3172 1.392 . S
C3173 H3185 0.929 . S
C3174 C3170 1.531 . S
C3174 H3186 0.960 . S
C3174 H3187 0.962 . S
C3174 H3188 0.960 . S
C3175 C3172 1.511 . S
C3175 H3189 0.961 . S
C3175 H3190 0.961 . S
C3175 H3191 0.961 . S
C3176 C3177 1.370 . S
C3176 C3178 1.363 . S
C3176 H3192 0.931 . S
C3177 C3176 1.370 . S
C3177 C3181 1.408 . S
C3178 C3176 1.363 . S
C3178 C3179 1.370 . S
C3178 C3182 1.524 . S
C3179 C3171 1.503 . S
C3179 C3178 1.370 . S
C3179 C3180 1.403 . S
C3180 C3179 1.403 . S
C3180 C3181 1.404 . S
C3180 C3183 1.539 . S
C3181 C3177 1.408 . S
C3181 C3180 1.404 . S
C3181 H3193 0.930 . S
C3182 C3178 1.524 . S
C3182 H3194 0.956 . S
C3182 H3195 0.961 . S
C3182 H3196 0.961 . S
C3183 C3180 1.539 . S
C3183 H3197 0.958 . S
C3183 H3198 0.961 . S
C3183 H3199 0.960 . S
H3184 C3168 0.931 . S
H3185 C3173 0.929 . S
H3186 C3174 0.960 . S
H3187 C3174 0.962 . S
H3188 C3174 0.960 . S
H3189 C3175 0.961 . S
H3190 C3175 0.961 . S
H3191 C3175 0.961 . S
H3192 C3176 0.931 . S
H3193 C3181 0.930 . S
H3194 C3182 0.956 . S
H3195 C3182 0.961 . S
H3196 C3182 0.961 . S
H3197 C3183 0.958 . S
H3198 C3183 0.961 . S
H3199 C3183 0.960 . S
C3200 C3201 1.469 . S
C3200 C3202 1.369 1_554 S
C3200 H3216 0.886 1_554 S
C3201 C3200 1.469 . S
C3201 C3205 1.376 . S
C3202 C3200 1.369 1_556 S
C3202 C3203 1.369 1_556 S
C3202 C3206 1.531 . S
C3203 C3202 1.369 1_554 S
C3203 C3204 1.410 . S
C3203 C3211 1.503 1_554 S
C3204 C3203 1.410 . S
C3204 C3205 1.392 . S
C3204 C3207 1.511 . S
C3205 C3201 1.376 . S
C3205 C3204 1.392 . S
C3205 H3217 0.929 . S
C3206 C3202 1.531 . S
C3206 H3218 0.960 . S
C3206 H3219 0.962 . S
C3206 H3220 0.960 . S
C3207 C3204 1.511 . S
C3207 H3221 0.961 . S
C3207 H3222 0.961 . S
C3207 H3223 0.961 . S
C3208 C3209 1.370 . S
C3208 C3210 1.363 . S
C3208 H3224 0.931 . S
C3209 C3208 1.370 . S
C3209 C3213 1.408 . S
C3210 C3208 1.363 . S
C3210 C3211 1.370 . S
C3210 C3214 1.524 . S
C3211 C3203 1.503 1_556 S
C3211 C3210 1.370 . S
C3211 C3212 1.403 1_556 S
C3212 C3211 1.403 1_554 S
C3212 C3213 1.404 1_554 S
C3212 C3215 1.539 . S
C3213 C3209 1.408 . S
C3213 C3212 1.404 1_556 S
C3213 H3225 0.927 . S
C3214 C3210 1.524 . S
C3214 H3226 0.956 . S
C3214 H3227 0.961 . S
C3214 H3228 0.961 . S
C3215 C3212 1.539 . S
C3215 H3229 0.958 . S
C3215 H3230 0.961 . S
C3215 H3231 0.960 . S
H3216 C3200 0.886 1_556 S
H3217 C3205 0.929 . S
H3218 C3206 0.960 . S
H3219 C3206 0.962 . S
H3220 C3206 0.960 . S
H3221 C3207 0.961 . S
H3222 C3207 0.961 . S
H3223 C3207 0.961 . S
H3224 C3208 0.931 . S
H3225 C3213 0.927 . S
H3226 C3214 0.956 . S
H3227 C3214 0.961 . S
H3228 C3214 0.961 . S
H3229 C3215 0.958 . S
H3230 C3215 0.961 . S
H3231 C3215 0.960 . S
C3232 C3233 1.391 . S
C3232 C3234 1.394 . S
C3232 H3248 0.931 . S
C3233 C3232 1.391 . S
C3233 C3237 1.376 . S
C3234 C3232 1.394 . S
C3234 C3235 1.369 . S
C3234 C3238 1.531 . S
C3235 C3234 1.369 . S
C3235 C3236 1.410 . S
C3235 C3243 1.503 1_655 S
C3236 C3235 1.410 . S
C3236 C3237 1.392 . S
C3236 C3239 1.511 . S
C3237 C3233 1.376 . S
C3237 C3236 1.392 . S
C3237 H3249 0.929 . S
C3238 C3234 1.531 . S
C3238 H3250 0.964 . S
C3238 H3251 0.962 . S
C3238 H3252 0.960 . S
C3239 C3236 1.511 . S
C3239 H3253 0.961 . S
C3239 H3254 0.961 1_655 S
C3239 H3255 0.961 1_655 S
C3240 C3241 1.370 . S
C3240 C3242 1.363 . S
C3240 H3256 0.931 . S
C3241 C3240 1.370 . S
C3241 C3245 1.408 . S
C3242 C3240 1.363 . S
C3242 C3243 1.370 . S
C3242 C3246 1.524 1_455 S
C3243 C3235 1.503 1_455 S
C3243 C3242 1.370 . S
C3243 C3244 1.403 . S
C3244 C3243 1.403 . S
C3244 C3245 1.404 . S
C3244 C3247 1.539 . S
C3245 C3241 1.408 . S
C3245 C3244 1.404 . S
C3245 H3257 0.930 . S
C3246 C3242 1.524 1_655 S
C3246 H3258 0.956 . S
C3246 H3259 0.961 . S
C3246 H3260 0.961 1_655 S
C3247 C3244 1.539 . S
C3247 H3261 0.958 . S
C3247 H3262 0.961 . S
C3247 H3263 0.960 . S
H3248 C3232 0.931 . S
H3249 C3237 0.929 . S
H3250 C3238 0.964 . S
H3251 C3238 0.962 . S
H3252 C3238 0.960 . S
H3253 C3239 0.961 . S
H3254 C3239 0.961 1_455 S
H3255 C3239 0.961 1_455 S
H3256 C3240 0.931 . S
H3257 C3245 0.930 . S
H3258 C3246 0.956 . S
H3259 C3246 0.961 . S
H3260 C3246 0.961 1_455 S
H3261 C3247 0.958 . S
H3262 C3247 0.961 . S
H3263 C3247 0.960 . S
C3264 C3265 1.420 . S
C3264 C3266 1.384 1_554 S
C3264 H3280 0.912 1_554 S
C3265 C3264 1.420 . S
C3265 C3269 1.376 . S
C3266 C3264 1.384 1_556 S
C3266 C3267 1.369 1_556 S
C3266 C3270 1.531 . S
C3267 C3266 1.369 1_554 S
C3267 C3268 1.410 . S
C3267 C3275 1.503 1_454 S
C3268 C3267 1.410 . S
C3268 C3269 1.392 . S
C3268 C3271 1.511 1_455 S
C3269 C3265 1.376 . S
C3269 C3268 1.392 . S
C3269 H3281 0.929 . S
C3270 C3266 1.531 . S
C3270 H3282 0.960 . S
C3270 H3283 0.962 . S
C3270 H3284 0.960 . S
C3271 C3268 1.511 1_655 S
C3271 H3285 0.961 1_655 S
C3271 H3286 0.961 . S
C3271 H3287 0.961 . S
C3272 C3273 1.370 . S
C3272 C3274 1.363 . S
C3272 H3288 0.931 . S
C3273 C3272 1.370 . S
C3273 C3277 1.408 . S
C3274 C3272 1.363 . S
C3274 C3275 1.370 . S
C3274 C3278 1.524 . S
C3275 C3267 1.503 1_656 S
C3275 C3274 1.370 . S
C3275 C3276 1.403 1_556 S
C3276 C3275 1.403 1_554 S
C3276 C3277 1.404 1_554 S
C3276 C3279 1.539 . S
C3277 C3273 1.408 . S
C3277 C3276 1.404 1_556 S
C3277 H3289 0.930 . S
C3278 C3274 1.524 . S
C3278 H3290 0.956 1_655 S
C3278 H3291 0.954 1_655 S
C3278 H3292 0.961 . S
C3279 C3276 1.539 . S
C3279 H3293 0.958 . S
C3279 H3294 0.961 . S
C3279 H3295 0.960 . S
H3280 C3264 0.912 1_556 S
H3281 C3269 0.929 . S
H3282 C3270 0.960 . S
H3283 C3270 0.962 . S
H3284 C3270 0.960 . S
H3285 C3271 0.961 1_455 S
H3286 C3271 0.961 . S
H3287 C3271 0.961 . S
H3288 C3272 0.931 . S
H3289 C3277 0.930 . S
H3290 C3278 0.956 1_455 S
H3291 C3278 0.954 1_455 S
H3292 C3278 0.961 . S
H3293 C3279 0.958 . S
H3294 C3279 0.961 . S
H3295 C3279 0.960 . S
C3296 C3297 1.391 . S
C3296 C3298 1.394 . S
C3296 H3312 0.931 . S
C3297 C3296 1.391 . S
C3297 C3301 1.376 . S
C3298 C3296 1.394 . S
C3298 C3299 1.369 . S
C3298 C3302 1.531 . S
C3299 C3298 1.369 . S
C3299 C3300 1.410 . S
C3299 C3307 1.503 . S
C3300 C3299 1.410 . S
C3300 C3301 1.392 . S
C3300 C3303 1.511 . S
C3301 C3297 1.376 . S
C3301 C3300 1.392 . S
C3301 H3313 0.929 . S
C3302 C3298 1.531 . S
C3302 H3314 0.960 . S
C3302 H3315 0.962 . S
C3302 H3316 0.960 . S
C3303 C3300 1.511 . S
C3303 H3317 0.961 . S
C3303 H3318 0.961 . S
C3303 H3319 0.961 . S
C3304 C3305 1.370 . S
C3304 C3306 1.363 . S
C3304 H3320 0.931 . S
C3305 C3304 1.370 . S
C3305 C3309 1.408 . S
C3306 C3304 1.363 . S
C3306 C3307 1.370 . S
C3306 C3310 1.524 . S
C3307 C3299 1.503 . S
C3307 C3306 1.370 . S
C3307 C3308 1.403 . S
C3308 C3307 1.403 . S
C3308 C3309 1.404 . S
C3308 C3311 1.539 . S
C3309 C3305 1.408 . S
C3309 C3308 1.404 . S
C3309 H3321 0.930 . S
C3310 C3306 1.524 . S
C3310 H3322 0.956 . S
C3310 H3323 0.961 . S
C3310 H3324 0.961 . S
C3311 C3308 1.539 . S
C3311 H3325 0.958 . S
C3311 H3326 0.961 . S
C3311 H3327 0.960 . S
H3312 C3296 0.931 . S
H3313 C3301 0.929 . S
H3314 C3302 0.960 . S
H3315 C3302 0.962 . S
H3316 C3302 0.960 . S
H3317 C3303 0.961 . S
H3318 C3303 0.961 . S
H3319 C3303 0.961 . S
H3320 C3304 0.931 . S
H3321 C3309 0.930 . S
H3322 C3310 0.956 . S
H3323 C3310 0.961 . S
H3324 C3310 0.961 . S
H3325 C3311 0.958 . S
H3326 C3311 0.961 . S
H3327 C3311 0.960 . S
C3328 C3329 1.391 . S
C3328 C3330 1.394 . S
C3328 H3344 0.931 . S
C3329 C3328 1.391 . S
C3329 C3333 1.376 . S
C3330 C3328 1.394 . S
C3330 C3331 1.369 . S
C3330 C3334 1.531 . S
C3331 C3330 1.369 . S
C3331 C3332 1.410 . S
C3331 C3339 1.503 1_545 S
C3332 C3331 1.410 . S
C3332 C3333 1.392 . S
C3332 C3335 1.511 1_545 S
C3333 C3329 1.376 . S
C3333 C3332 1.392 . S
C3333 H3345 0.929 . S
C3334 C3330 1.531 . S
C3334 H3346 0.960 . S
C3334 H3347 0.962 1_545 S
C3334 H3348 0.960 . S
C3335 C3332 1.511 1_565 S
C3335 H3349 0.961 . S
C3335 H3350 0.961 . S
C3335 H3351 0.961 1_565 S
C3336 C3337 1.370 . S
C3336 C3338 1.363 . S
C3336 H3352 0.931 . S
C3337 C3336 1.370 . S
C3337 C3341 1.408 . S
C3338 C3336 1.363 . S
C3338 C3339 1.370 . S
C3338 C3342 1.524 . S
C3339 C3331 1.503 1_565 S
C3339 C3338 1.370 . S
C3339 C3340 1.403 . S
C3340 C3339 1.403 . S
C3340 C3341 1.405 . S
C3340 C3343 1.538 1_565 S
C3341 C3337 1.408 . S
C3341 C3340 1.405 . S
C3341 H3353 0.930 . S
C3342 C3338 1.524 . S
C3342 H3354 0.956 . S
C3342 H3355 0.961 . S
C3342 H3356 0.961 . S
C3343 C3340 1.538 1_545 S
C3343 H3357 0.958 . S
C3343 H3358 0.961 . S
C3343 H3359 0.960 . S
H3344 C3328 0.931 . S
H3345 C3333 0.929 . S
H3346 C3334 0.960 . S
H3347 C3334 0.962 1_565 S
H3348 C3334 0.960 . S
H3349 C3335 0.961 . S
H3350 C3335 0.961 . S
H3351 C3335 0.961 1_545 S
H3352 C3336 0.931 . S
H3353 C3341 0.930 . S
H3354 C3342 0.956 . S
H3355 C3342 0.961 . S
H3356 C3342 0.961 . S
H3357 C3343 0.958 . S
H3358 C3343 0.961 . S
H3359 C3343 0.960 . S
C3360 C3361 1.391 . S
C3360 C3362 1.394 . S
C3360 H3376 0.931 . S
C3361 C3360 1.391 . S
C3361 C3365 1.376 1_545 S
C3362 C3360 1.394 . S
C3362 C3363 1.369 1_545 S
C3362 C3366 1.531 . S
C3363 C3362 1.369 1_565 S
C3363 C3364 1.410 . S
C3363 C3371 1.503 . S
C3364 C3363 1.410 . S
C3364 C3365 1.392 . S
C3364 C3367 1.511 . S
C3365 C3361 1.376 1_565 S
C3365 C3364 1.392 . S
C3365 H3377 0.929 . S
C3366 C3362 1.531 . S
C3366 H3378 0.960 . S
C3366 H3379 0.962 . S
C3366 H3380 0.960 . S
C3367 C3364 1.511 . S
C3367 H3381 0.961 . S
C3367 H3382 0.961 . S
C3367 H3383 0.961 . S
C3368 C3369 1.370 . S
C3368 C3370 1.363 . S
C3368 H3384 0.931 . S
C3369 C3368 1.370 . S
C3369 C3373 1.408 . S
C3370 C3368 1.363 . S
C3370 C3371 1.370 . S
C3370 C3374 1.524 . S
C3371 C3363 1.503 . S
C3371 C3370 1.370 . S
C3371 C3372 1.403 . S
C3372 C3371 1.403 . S
C3372 C3373 1.404 . S
C3372 C3375 1.539 1_565 S
C3373 C3369 1.408 . S
C3373 C3372 1.404 . S
C3373 H3385 0.930 . S
C3374 C3370 1.524 . S
C3374 H3386 0.956 . S
C3374 H3387 0.961 . S
C3374 H3388 0.961 . S
C3375 C3372 1.539 1_545 S
C3375 H3389 0.958 . S
C3375 H3390 0.963 1_545 S
C3375 H3391 0.960 . S
H3376 C3360 0.931 . S
H3377 C3365 0.929 . S
H3378 C3366 0.960 . S
H3379 C3366 0.962 . S
H3380 C3366 0.960 . S
H3381 C3367 0.961 . S
H3382 C3367 0.961 . S
H3383 C3367 0.961 . S
H3384 C3368 0.931 . S
H3385 C3373 0.930 . S
H3386 C3374 0.956 . S
H3387 C3374 0.961 . S
H3388 C3374 0.961 . S
H3389 C3375 0.958 . S
H3390 C3375 0.963 1_565 S
H3391 C3375 0.960 . S
C3392 C3393 1.391 . S
C3392 C3394 1.394 . S
C3392 H3408 0.931 . S
C3393 C3392 1.391 . S
C3393 C3397 1.376 . S
C3394 C3392 1.394 . S
C3394 C3395 1.369 . S
C3394 C3398 1.531 1_545 S
C3395 C3394 1.369 . S
C3395 C3396 1.410 . S
C3395 C3403 1.503 . S
C3396 C3395 1.410 . S
C3396 C3397 1.392 . S
C3396 C3399 1.511 . S
C3397 C3393 1.376 . S
C3397 C3396 1.392 . S
C3397 H3409 0.929 . S
C3398 C3394 1.531 1_565 S
C3398 H3410 0.960 . S
C3398 H3411 0.962 . S
C3398 H3412 0.960 . S
C3399 C3396 1.511 . S
C3399 H3413 0.961 . S
C3399 H3414 0.961 . S
C3399 H3415 0.961 . S
C3400 C3401 1.375 . S
C3400 C3402 1.361 1_565 S
C3400 H3416 0.929 1_565 S
C3401 C3400 1.375 . S
C3401 C3405 1.408 . S
C3402 C3400 1.361 1_545 S
C3402 C3403 1.370 . S
C3402 C3406 1.524 . S
C3403 C3395 1.503 . S
C3403 C3402 1.370 . S
C3403 C3404 1.403 1_545 S
C3404 C3403 1.403 1_565 S
C3404 C3405 1.404 . S
C3404 C3407 1.539 . S
C3405 C3401 1.408 . S
C3405 C3404 1.404 . S
C3405 H3417 0.930 . S
C3406 C3402 1.524 . S
C3406 H3418 0.956 . S
C3406 H3419 0.961 . S
C3406 H3420 0.961 . S
C3407 C3404 1.539 . S
C3407 H3421 0.958 . S
C3407 H3422 0.961 . S
C3407 H3423 0.960 . S
H3408 C3392 0.931 . S
H3409 C3397 0.929 . S
H3410 C3398 0.960 . S
H3411 C3398 0.962 . S
H3412 C3398 0.960 . S
H3413 C3399 0.961 . S
H3414 C3399 0.961 . S
H3415 C3399 0.961 . S
H3416 C3400 0.929 1_545 S
H3417 C3405 0.930 . S
H3418 C3406 0.956 . S
H3419 C3406 0.961 . S
H3420 C3406 0.961 . S
H3421 C3407 0.958 . S
H3422 C3407 0.961 . S
H3423 C3407 0.960 . S
C3424 C3425 1.391 . S
C3424 C3426 1.394 . S
C3424 H3440 0.931 . S
C3425 C3424 1.391 . S
C3425 C3429 1.376 . S
C3426 C3424 1.394 . S
C3426 C3427 1.369 . S
C3426 C3430 1.531 1_565 S
C3427 C3426 1.369 . S
C3427 C3428 1.410 . S
C3427 C3435 1.503 1_565 S
C3428 C3427 1.410 . S
C3428 C3429 1.392 . S
C3428 C3431 1.511 . S
C3429 C3425 1.376 . S
C3429 C3428 1.392 . S
C3429 H3441 0.929 . S
C3430 C3426 1.531 1_545 S
C3430 H3442 0.958 1_545 S
C3430 H3443 0.962 . S
C3430 H3444 0.960 1_545 S
C3431 C3428 1.511 . S
C3431 H3445 0.966 . S
C3431 H3446 0.961 1_565 S
C3431 H3447 0.961 . S
C3432 C3433 1.370 . S
C3432 C3434 1.363 . S
C3432 H3448 0.931 . S
C3433 C3432 1.370 . S
C3433 C3437 1.408 . S
C3434 C3432 1.363 . S
C3434 C3435 1.370 . S
C3434 C3438 1.524 . S
C3435 C3427 1.503 1_545 S
C3435 C3434 1.370 . S
C3435 C3436 1.401 1_545 S
C3436 C3435 1.401 1_565 S
C3436 C3437 1.402 1_565 S
C3436 C3439 1.542 . S
C3437 C3433 1.408 . S
C3437 C3436 1.402 1_545 S
C3437 H3449 0.930 . S
C3438 C3434 1.524 . S
C3438 H3450 0.956 . S
C3438 H3451 0.961 . S
C3438 H3452 0.961 . S
C3439 C3436 1.542 . S
C3439 H3453 0.958 . S
C3439 H3454 0.961 . S
C3439 H3455 0.960 . S
H3440 C3424 0.931 . S
H3441 C3429 0.929 . S
H3442 C3430 0.958 1_565 S
H3443 C3430 0.962 . S
H3444 C3430 0.960 1_565 S
H3445 C3431 0.966 . S
H3446 C3431 0.961 1_545 S
H3447 C3431 0.961 . S
H3448 C3432 0.931 . S
H3449 C3437 0.930 . S
H3450 C3438 0.956 . S
H3451 C3438 0.961 . S
H3452 C3438 0.961 . S
H3453 C3439 0.958 . S
H3454 C3439 0.961 . S
H3455 C3439 0.960 . S
C3456 C3457 1.391 . S
C3456 C3458 1.394 1_565 S
C3456 H3472 0.931 . S
C3457 C3456 1.391 . S
C3457 C3461 1.376 . S
C3458 C3456 1.394 1_545 S
C3458 C3459 1.369 . S
C3458 C3462 1.531 . S
C3459 C3458 1.369 . S
C3459 C3460 1.410 . S
C3459 C3467 1.503 . S
C3460 C3459 1.410 . S
C3460 C3461 1.392 1_545 S
C3460 C3463 1.511 . S
C3461 C3457 1.376 . S
C3461 C3460 1.392 1_565 S
C3461 H3473 0.929 . S
C3462 C3458 1.531 . S
C3462 H3474 0.960 . S
C3462 H3475 0.942 1_545 S
C3462 H3476 0.960 . S
C3463 C3460 1.511 . S
C3463 H3477 0.961 1_545 S
C3463 H3478 0.961 . S
C3463 H3479 0.961 . S
C3464 C3465 1.370 . S
C3464 C3466 1.363 . S
C3464 H3480 0.931 . S
C3465 C3464 1.370 . S
C3465 C3469 1.408 . S
C3466 C3464 1.363 . S
C3466 C3467 1.370 . S
C3466 C3470 1.524 1_545 S
C3467 C3459 1.503 . S
C3467 C3466 1.370 . S
C3467 C3468 1.403 . S
C3468 C3467 1.403 . S
C3468 C3469 1.404 . S
C3468 C3471 1.539 . S
C3469 C3465 1.408 . S
C3469 C3468 1.404 . S
C3469 H3481 0.930 . S
C3470 C3466 1.524 1_565 S
C3470 H3482 0.956 . S
C3470 H3483 0.961 . S
C3470 H3484 0.961 . S
C3471 C3468 1.539 . S
C3471 H3485 0.958 . S
C3471 H3486 0.961 . S
C3471 H3487 0.960 . S
H3472 C3456 0.931 . S
H3473 C3461 0.929 . S
H3474 C3462 0.960 . S
H3475 C3462 0.942 1_565 S
H3476 C3462 0.960 . S
H3477 C3463 0.961 1_565 S
H3478 C3463 0.961 . S
H3479 C3463 0.961 . S
H3480 C3464 0.931 . S
H3481 C3469 0.930 . S
H3482 C3470 0.956 . S
H3483 C3470 0.961 . S
H3484 C3470 0.961 . S
H3485 C3471 0.958 . S
H3486 C3471 0.961 . S
H3487 C3471 0.960 . S
C3488 C3489 1.391 . S
C3488 C3490 1.394 . S
C3488 H3504 0.931 . S
C3489 C3488 1.391 . S
C3489 C3493 1.376 . S
C3490 C3488 1.394 . S
C3490 C3491 1.369 . S
C3490 C3494 1.531 . S
C3491 C3490 1.369 . S
C3491 C3492 1.410 . S
C3491 C3499 1.503 . S
C3492 C3491 1.410 . S
C3492 C3493 1.392 . S
C3492 C3495 1.495 1_545 S
C3493 C3489 1.376 . S
C3493 C3492 1.392 . S
C3493 H3505 0.929 . S
C3494 C3490 1.531 . S
C3494 H3506 0.960 . S
C3494 H3507 0.962 . S
C3494 H3508 0.960 . S
C3495 C3492 1.495 1_565 S
C3495 H3509 0.973 . S
C3495 H3510 0.981 . S
C3495 H3511 0.945 1_565 S
C3496 C3497 1.370 . S
C3496 C3498 1.363 . S
C3496 H3512 0.931 . S
C3497 C3496 1.370 . S
C3497 C3501 1.408 1_565 S
C3498 C3496 1.363 . S
C3498 C3499 1.370 1_565 S
C3498 C3502 1.524 . S
C3499 C3491 1.503 . S
C3499 C3498 1.370 1_545 S
C3499 C3500 1.403 . S
C3500 C3499 1.403 . S
C3500 C3501 1.404 . S
C3500 C3503 1.539 . S
C3501 C3497 1.408 1_545 S
C3501 C3500 1.404 . S
C3501 H3513 0.930 . S
C3502 C3498 1.524 . S
C3502 H3514 0.956 . S
C3502 H3515 0.961 . S
C3502 H3516 0.961 . S
C3503 C3500 1.539 . S
C3503 H3517 0.958 . S
C3503 H3518 0.961 . S
C3503 H3519 0.960 . S
H3504 C3488 0.931 . S
H3505 C3493 0.929 . S
H3506 C3494 0.960 . S
H3507 C3494 0.962 . S
H3508 C3494 0.960 . S
H3509 C3495 0.973 . S
H3510 C3495 0.981 . S
H3511 C3495 0.945 1_545 S
H3512 C3496 0.931 . S
H3513 C3501 0.930 . S
H3514 C3502 0.956 . S
H3515 C3502 0.961 . S
H3516 C3502 0.961 . S
H3517 C3503 0.958 . S
H3518 C3503 0.961 . S
H3519 C3503 0.960 . S
C3520 C3521 1.391 . S
C3520 C3522 1.394 . S
C3520 H3536 0.931 . S
C3521 C3520 1.391 . S
C3521 C3525 1.376 . S
C3522 C3520 1.394 . S
C3522 C3523 1.369 . S
C3522 C3526 1.531 . S
C3523 C3522 1.369 . S
C3523 C3524 1.410 . S
C3523 C3531 1.503 . S
C3524 C3523 1.410 . S
C3524 C3525 1.392 . S
C3524 C3527 1.511 . S
C3525 C3521 1.376 . S
C3525 C3524 1.392 . S
C3525 H3537 0.929 . S
C3526 C3522 1.531 . S
C3526 H3538 0.960 . S
C3526 H3539 0.962 1_565 S
C3526 H3540 0.960 . S
C3527 C3524 1.511 . S
C3527 H3541 0.961 . S
C3527 H3542 0.961 . S
C3527 H3543 0.961 . S
C3528 C3529 1.370 . S
C3528 C3530 1.363 . S
C3528 H3544 0.931 . S
C3529 C3528 1.370 . S
C3529 C3533 1.408 1_545 S
C3530 C3528 1.363 . S
C3530 C3531 1.370 1_545 S
C3530 C3534 1.524 . S
C3531 C3523 1.503 . S
C3531 C3530 1.370 1_565 S
C3531 C3532 1.403 . S
C3532 C3531 1.403 . S
C3532 C3533 1.404 . S
C3532 C3535 1.539 . S
C3533 C3529 1.408 1_565 S
C3533 C3532 1.404 . S
C3533 H3545 0.930 . S
C3534 C3530 1.524 . S
C3534 H3546 0.956 . S
C3534 H3547 0.961 . S
C3534 H3548 0.961 . S
C3535 C3532 1.539 . S
C3535 H3549 0.958 . S
C3535 H3550 0.961 . S
C3535 H3551 0.960 . S
H3536 C3520 0.931 . S
H3537 C3525 0.929 . S
H3538 C3526 0.960 . S
H3539 C3526 0.962 1_545 S
H3540 C3526 0.960 . S
H3541 C3527 0.961 . S
H3542 C3527 0.961 . S
H3543 C3527 0.961 . S
H3544 C3528 0.931 . S
H3545 C3533 0.930 . S
H3546 C3534 0.956 . S
H3547 C3534 0.961 . S
H3548 C3534 0.961 . S
H3549 C3535 0.958 . S
H3550 C3535 0.961 . S
H3551 C3535 0.960 . S
C3552 C3553 1.391 . S
C3552 C3554 1.394 . S
C3552 H3568 0.931 . S
C3553 C3552 1.391 . S
C3553 C3557 1.376 . S
C3554 C3552 1.394 . S
C3554 C3555 1.369 . S
C3554 C3558 1.531 . S
C3555 C3554 1.369 . S
C3555 C3556 1.410 . S
C3555 C3563 1.503 . S
C3556 C3555 1.410 . S
C3556 C3557 1.392 . S
C3556 C3559 1.511 1_565 S
C3557 C3553 1.376 . S
C3557 C3556 1.392 . S
C3557 H3569 0.929 . S
C3558 C3554 1.531 . S
C3558 H3570 0.960 . S
C3558 H3571 0.962 . S
C3558 H3572 0.960 . S
C3559 C3556 1.511 1_545 S
C3559 H3573 0.961 . S
C3559 H3574 0.961 . S
C3559 H3575 0.961 . S
C3560 C3561 1.370 . S
C3560 C3562 1.363 1_545 S
C3560 H3576 0.931 . S
C3561 C3560 1.370 . S
C3561 C3565 1.408 . S
C3562 C3560 1.363 1_565 S
C3562 C3563 1.370 . S
C3562 C3566 1.524 . S
C3563 C3555 1.503 . S
C3563 C3562 1.370 . S
C3563 C3564 1.403 1_565 S
C3564 C3563 1.403 1_545 S
C3564 C3565 1.404 . S
C3564 C3567 1.539 . S
C3565 C3561 1.408 . S
C3565 C3564 1.404 . S
C3565 H3577 0.930 . S
C3566 C3562 1.524 . S
C3566 H3578 0.956 . S
C3566 H3579 0.961 . S
C3566 H3580 0.961 . S
C3567 C3564 1.539 . S
C3567 H3581 0.958 . S
C3567 H3582 0.961 . S
C3567 H3583 0.960 . S
H3568 C3552 0.931 . S
H3569 C3557 0.929 . S
H3570 C3558 0.960 . S
H3571 C3558 0.962 . S
H3572 C3558 0.960 . S
H3573 C3559 0.961 . S
H3574 C3559 0.961 . S
H3575 C3559 0.961 . S
H3576 C3560 0.931 . S
H3577 C3565 0.930 . S
H3578 C3566 0.956 . S
H3579 C3566 0.961 . S
H3580 C3566 0.961 . S
H3581 C3567 0.958 . S
H3582 C3567 0.961 . S
H3583 C3567 0.960 . S
C3584 C3585 1.391 . S
C3584 C3586 1.394 . S
C3584 H3600 0.931 . S
C3585 C3584 1.391 . S
C3585 C3589 1.376 . S
C3586 C3584 1.394 . S
C3586 C3587 1.369 . S
C3586 C3590 1.531 . S
C3587 C3586 1.369 . S
C3587 C3588 1.410 . S
C3587 C3595 1.503 . S
C3588 C3587 1.410 . S
C3588 C3589 1.392 . S
C3588 C3591 1.511 . S
C3589 C3585 1.376 . S
C3589 C3588 1.392 . S
C3589 H3601 0.929 . S
C3590 C3586 1.531 . S
C3590 H3602 0.960 . S
C3590 H3603 0.962 . S
C3590 H3604 0.960 . S
C3591 C3588 1.511 . S
C3591 H3605 0.961 . S
C3591 H3606 0.961 . S
C3591 H3607 0.961 . S
C3592 C3593 1.370 . S
C3592 C3594 1.363 . S
C3592 H3608 0.931 . S
C3593 C3592 1.370 . S
C3593 C3597 1.408 . S
C3594 C3592 1.363 . S
C3594 C3595 1.370 . S
C3594 C3598 1.524 . S
C3595 C3587 1.503 . S
C3595 C3594 1.370 . S
C3595 C3596 1.403 . S
C3596 C3595 1.403 . S
C3596 C3597 1.404 . S
C3596 C3599 1.539 . S
C3597 C3593 1.408 . S
C3597 C3596 1.404 . S
C3597 H3609 0.930 . S
C3598 C3594 1.524 . S
C3598 H3610 0.956 . S
C3598 H3611 0.961 . S
C3598 H3612 0.961 . S
C3599 C3596 1.539 . S
C3599 H3613 0.958 . S
C3599 H3614 0.961 . S
C3599 H3615 0.960 . S
H3600 C3584 0.931 . S
H3601 C3589 0.929 . S
H3602 C3590 0.960 . S
H3603 C3590 0.962 . S
H3604 C3590 0.960 . S
H3605 C3591 0.961 . S
H3606 C3591 0.961 . S
H3607 C3591 0.961 . S
H3608 C3592 0.931 . S
H3609 C3597 0.930 . S
H3610 C3598 0.956 . S
H3611 C3598 0.961 . S
H3612 C3598 0.961 . S
H3613 C3599 0.958 . S
H3614 C3599 0.961 . S
H3615 C3599 0.960 . S
C3616 C3617 1.391 . S
C3616 C3618 1.394 . S
C3616 H3632 0.931 . S
C3617 C3616 1.391 . S
C3617 C3621 1.376 . S
C3618 C3616 1.394 . S
C3618 C3619 1.369 . S
C3618 C3622 1.531 . S
C3619 C3618 1.369 . S
C3619 C3620 1.410 . S
C3619 C3627 1.503 . S
C3620 C3619 1.410 . S
C3620 C3621 1.392 . S
C3620 C3623 1.511 . S
C3621 C3617 1.376 . S
C3621 C3620 1.392 . S
C3621 H3633 0.929 . S
C3622 C3618 1.531 . S
C3622 H3634 0.960 . S
C3622 H3635 0.962 . S
C3622 H3636 0.960 . S
C3623 C3620 1.511 . S
C3623 H3637 0.961 . S
C3623 H3638 0.961 . S
C3623 H3639 0.961 . S
C3624 C3625 1.370 . S
C3624 C3626 1.363 . S
C3624 H3640 0.931 . S
C3625 C3624 1.370 . S
C3625 C3629 1.408 . S
C3626 C3624 1.363 . S
C3626 C3627 1.370 . S
C3626 C3630 1.524 . S
C3627 C3619 1.503 . S
C3627 C3626 1.370 . S
C3627 C3628 1.403 . S
C3628 C3627 1.403 . S
C3628 C3629 1.404 . S
C3628 C3631 1.539 . S
C3629 C3625 1.408 . S
C3629 C3628 1.404 . S
C3629 H3641 0.930 . S
C3630 C3626 1.524 . S
C3630 H3642 0.956 . S
C3630 H3643 0.961 . S
C3630 H3644 0.961 . S
C3631 C3628 1.539 . S
C3631 H3645 0.958 . S
C3631 H3646 0.961 . S
C3631 H3647 0.960 . S
H3632 C3616 0.931 . S
H3633 C3621 0.929 . S
H3634 C3622 0.960 . S
H3635 C3622 0.962 . S
H3636 C3622 0.960 . S
H3637 C3623 0.961 . S
H3638 C3623 0.961 . S
H3639 C3623 0.961 . S
H3640 C3624 0.931 . S
H3641 C3629 0.930 . S
H3642 C3630 0.956 . S
H3643 C3630 0.961 . S
H3644 C3630 0.961 . S
H3645 C3631 0.958 . S
H3646 C3631 0.961 . S
H3647 C3631 0.960 . S
C3648 C3649 1.391 . S
C3648 C3650 1.394 . S
C3648 H3664 0.931 . S
C3649 C3648 1.391 . S
C3649 C3653 1.376 . S
C3650 C3648 1.394 . S
C3650 C3651 1.369 . S
C3650 C3654 1.531 . S
C3651 C3650 1.369 . S
C3651 C3652 1.410 . S
C3651 C3659 1.503 . S
C3652 C3651 1.410 . S
C3652 C3653 1.392 . S
C3652 C3655 1.511 . S
C3653 C3649 1.376 . S
C3653 C3652 1.392 . S
C3653 H3665 0.929 . S
C3654 C3650 1.531 . S
C3654 H3666 0.960 . S
C3654 H3667 0.962 . S
C3654 H3668 0.960 . S
C3655 C3652 1.511 . S
C3655 H3669 0.961 . S
C3655 H3670 0.961 . S
C3655 H3671 0.961 . S
C3656 C3657 1.370 . S
C3656 C3658 1.363 . S
C3656 H3672 0.931 . S
C3657 C3656 1.370 . S
C3657 C3661 1.408 . S
C3658 C3656 1.363 . S
C3658 C3659 1.370 . S
C3658 C3662 1.524 . S
C3659 C3651 1.503 . S
C3659 C3658 1.370 . S
C3659 C3660 1.403 . S
C3660 C3659 1.403 . S
C3660 C3661 1.404 . S
C3660 C3663 1.539 . S
C3661 C3657 1.408 . S
C3661 C3660 1.404 . S
C3661 H3673 0.930 . S
C3662 C3658 1.524 . S
C3662 H3674 0.956 . S
C3662 H3675 0.961 . S
C3662 H3676 0.961 . S
C3663 C3660 1.539 . S
C3663 H3677 0.958 . S
C3663 H3678 0.961 . S
C3663 H3679 0.960 . S
H3664 C3648 0.931 . S
H3665 C3653 0.929 . S
H3666 C3654 0.960 . S
H3667 C3654 0.962 . S
H3668 C3654 0.960 . S
H3669 C3655 0.961 . S
H3670 C3655 0.961 . S
H3671 C3655 0.961 . S
H3672 C3656 0.931 . S
H3673 C3661 0.930 . S
H3674 C3662 0.956 . S
H3675 C3662 0.961 . S
H3676 C3662 0.961 . S
H3677 C3663 0.958 . S
H3678 C3663 0.961 . S
H3679 C3663 0.960 . S
C3680 C3681 1.391 . S
C3680 C3682 1.394 . S
C3680 H3696 0.931 . S
C3681 C3680 1.391 . S
C3681 C3685 1.376 . S
C3682 C3680 1.394 . S
C3682 C3683 1.369 . S
C3682 C3686 1.531 . S
C3683 C3682 1.369 . S
C3683 C3684 1.410 . S
C3683 C3691 1.503 . S
C3684 C3683 1.410 . S
C3684 C3685 1.392 . S
C3684 C3687 1.511 . S
C3685 C3681 1.376 . S
C3685 C3684 1.392 . S
C3685 H3697 0.929 . S
C3686 C3682 1.531 . S
C3686 H3698 0.960 . S
C3686 H3699 0.962 . S
C3686 H3700 0.960 . S
C3687 C3684 1.511 . S
C3687 H3701 0.961 . S
C3687 H3702 0.961 . S
C3687 H3703 0.961 . S
C3688 C3689 1.370 . S
C3688 C3690 1.363 . S
C3688 H3704 0.931 . S
C3689 C3688 1.370 . S
C3689 C3693 1.408 . S
C3690 C3688 1.363 . S
C3690 C3691 1.370 . S
C3690 C3694 1.524 . S
C3691 C3683 1.503 . S
C3691 C3690 1.370 . S
C3691 C3692 1.403 . S
C3692 C3691 1.403 . S
C3692 C3693 1.404 . S
C3692 C3695 1.539 . S
C3693 C3689 1.408 . S
C3693 C3692 1.404 . S
C3693 H3705 0.930 . S
C3694 C3690 1.524 . S
C3694 H3706 0.956 . S
C3694 H3707 0.961 . S
C3694 H3708 0.961 . S
C3695 C3692 1.539 . S
C3695 H3709 0.958 . S
C3695 H3710 0.961 . S
C3695 H3711 0.960 . S
H3696 C3680 0.931 . S
H3697 C3685 0.929 . S
H3698 C3686 0.960 . S
H3699 C3686 0.962 . S
H3700 C3686 0.960 . S
H3701 C3687 0.961 . S
H3702 C3687 0.961 . S
H3703 C3687 0.961 . S
H3704 C3688 0.931 . S
H3705 C3693 0.930 . S
H3706 C3694 0.956 . S
H3707 C3694 0.961 . S
H3708 C3694 0.961 . S
H3709 C3695 0.958 . S
H3710 C3695 0.961 . S
H3711 C3695 0.960 . S
C3712 C3713 1.391 . S
C3712 C3714 1.394 . S
C3712 H3728 0.931 . S
C3713 C3712 1.391 . S
C3713 C3717 1.376 . S
C3714 C3712 1.394 . S
C3714 C3715 1.369 . S
C3714 C3718 1.531 . S
C3715 C3714 1.369 . S
C3715 C3716 1.410 . S
C3715 C3723 1.503 . S
C3716 C3715 1.410 . S
C3716 C3717 1.392 . S
C3716 C3719 1.511 . S
C3717 C3713 1.376 . S
C3717 C3716 1.392 . S
C3717 H3729 0.929 . S
C3718 C3714 1.531 . S
C3718 H3730 0.960 . S
C3718 H3731 0.962 . S
C3718 H3732 0.960 . S
C3719 C3716 1.511 . S
C3719 H3733 0.961 . S
C3719 H3734 0.961 . S
C3719 H3735 0.961 . S
C3720 C3721 1.370 . S
C3720 C3722 1.363 . S
C3720 H3736 0.931 . S
C3721 C3720 1.370 . S
C3721 C3725 1.408 . S
C3722 C3720 1.363 . S
C3722 C3723 1.370 . S
C3722 C3726 1.524 . S
C3723 C3715 1.503 . S
C3723 C3722 1.370 . S
C3723 C3724 1.403 . S
C3724 C3723 1.403 . S
C3724 C3725 1.404 . S
C3724 C3727 1.539 . S
C3725 C3721 1.408 . S
C3725 C3724 1.404 . S
C3725 H3737 0.930 . S
C3726 C3722 1.524 . S
C3726 H3738 0.956 . S
C3726 H3739 0.961 . S
C3726 H3740 0.961 . S
C3727 C3724 1.539 . S
C3727 H3741 0.958 . S
C3727 H3742 0.961 . S
C3727 H3743 0.960 . S
H3728 C3712 0.931 . S
H3729 C3717 0.929 . S
H3730 C3718 0.960 . S
H3731 C3718 0.962 . S
H3732 C3718 0.960 . S
H3733 C3719 0.961 . S
H3734 C3719 0.961 . S
H3735 C3719 0.961 . S
H3736 C3720 0.931 . S
H3737 C3725 0.930 . S
H3738 C3726 0.956 . S
H3739 C3726 0.961 . S
H3740 C3726 0.961 . S
H3741 C3727 0.958 . S
H3742 C3727 0.961 . S
H3743 C3727 0.960 . S
C3744 C3745 1.391 . S
C3744 C3746 1.394 . S
C3744 H3760 0.931 . S
C3745 C3744 1.391 . S
C3745 C3749 1.376 . S
C3746 C3744 1.394 . S
C3746 C3747 1.369 . S
C3746 C3750 1.531 . S
C3747 C3746 1.369 . S
C3747 C3748 1.410 . S
C3747 C3755 1.503 . S
C3748 C3747 1.410 . S
C3748 C3749 1.392 . S
C3748 C3751 1.511 . S
C3749 C3745 1.376 . S
C3749 C3748 1.392 . S
C3749 H3761 0.929 . S
C3750 C3746 1.531 . S
C3750 H3762 0.960 . S
C3750 H3763 0.962 . S
C3750 H3764 0.960 . S
C3751 C3748 1.511 . S
C3751 H3765 0.961 . S
C3751 H3766 0.961 . S
C3751 H3767 0.961 . S
C3752 C3753 1.370 . S
C3752 C3754 1.363 . S
C3752 H3768 0.931 . S
C3753 C3752 1.370 . S
C3753 C3757 1.408 . S
C3754 C3752 1.363 . S
C3754 C3755 1.370 . S
C3754 C3758 1.524 . S
C3755 C3747 1.503 . S
C3755 C3754 1.370 . S
C3755 C3756 1.403 . S
C3756 C3755 1.403 . S
C3756 C3757 1.404 . S
C3756 C3759 1.539 . S
C3757 C3753 1.408 . S
C3757 C3756 1.404 . S
C3757 H3769 0.930 . S
C3758 C3754 1.524 . S
C3758 H3770 0.956 . S
C3758 H3771 0.961 . S
C3758 H3772 0.961 . S
C3759 C3756 1.539 . S
C3759 H3773 0.958 . S
C3759 H3774 0.961 . S
C3759 H3775 0.960 . S
H3760 C3744 0.931 . S
H3761 C3749 0.929 . S
H3762 C3750 0.960 . S
H3763 C3750 0.962 . S
H3764 C3750 0.960 . S
H3765 C3751 0.961 . S
H3766 C3751 0.961 . S
H3767 C3751 0.961 . S
H3768 C3752 0.931 . S
H3769 C3757 0.930 . S
H3770 C3758 0.956 . S
H3771 C3758 0.961 . S
H3772 C3758 0.961 . S
H3773 C3759 0.958 . S
H3774 C3759 0.961 . S
H3775 C3759 0.960 . S
C3776 C3777 1.391 . S
C3776 C3778 1.394 . S
C3776 H3792 0.931 . S
C3777 C3776 1.391 . S
C3777 C3781 1.376 . S
C3778 C3776 1.394 . S
C3778 C3779 1.369 . S
C3778 C3782 1.531 . S
C3779 C3778 1.369 . S
C3779 C3780 1.410 . S
C3779 C3787 1.503 . S
C3780 C3779 1.410 . S
C3780 C3781 1.392 . S
C3780 C3783 1.511 . S
C3781 C3777 1.376 . S
C3781 C3780 1.392 . S
C3781 H3793 0.929 . S
C3782 C3778 1.531 . S
C3782 H3794 0.960 . S
C3782 H3795 0.962 . S
C3782 H3796 0.960 . S
C3783 C3780 1.511 . S
C3783 H3797 0.961 . S
C3783 H3798 0.961 . S
C3783 H3799 0.961 . S
C3784 C3785 1.370 . S
C3784 C3786 1.363 . S
C3784 H3800 0.931 . S
C3785 C3784 1.370 . S
C3785 C3789 1.408 . S
C3786 C3784 1.363 . S
C3786 C3787 1.370 . S
C3786 C3790 1.524 . S
C3787 C3779 1.503 . S
C3787 C3786 1.370 . S
C3787 C3788 1.403 . S
C3788 C3787 1.403 . S
C3788 C3789 1.404 . S
C3788 C3791 1.539 . S
C3789 C3785 1.408 . S
C3789 C3788 1.404 . S
C3789 H3801 0.930 . S
C3790 C3786 1.524 . S
C3790 H3802 0.956 . S
C3790 H3803 0.961 . S
C3790 H3804 0.961 . S
C3791 C3788 1.539 . S
C3791 H3805 0.958 . S
C3791 H3806 0.961 . S
C3791 H3807 0.960 . S
H3792 C3776 0.931 . S
H3793 C3781 0.929 . S
H3794 C3782 0.960 . S
H3795 C3782 0.962 . S
H3796 C3782 0.960 . S
H3797 C3783 0.961 . S
H3798 C3783 0.961 . S
H3799 C3783 0.961 . S
H3800 C3784 0.931 . S
H3801 C3789 0.930 . S
H3802 C3790 0.956 . S
H3803 C3790 0.961 . S
H3804 C3790 0.961 . S
H3805 C3791 0.958 . S
H3806 C3791 0.961 . S
H3807 C3791 0.960 . S
C3808 C3809 1.391 . S
C3808 C3810 1.394 . S
C3808 H3824 0.931 . S
C3809 C3808 1.391 . S
C3809 C3813 1.376 . S
C3810 C3808 1.394 . S
C3810 C3811 1.369 . S
C3810 C3814 1.531 . S
C3811 C3810 1.369 . S
C3811 C3812 1.410 . S
C3811 C3819 1.503 . S
C3812 C3811 1.410 . S
C3812 C3813 1.392 . S
C3812 C3815 1.511 . S
C3813 C3809 1.376 . S
C3813 C3812 1.392 . S
C3813 H3825 0.929 . S
C3814 C3810 1.531 . S
C3814 H3826 0.960 . S
C3814 H3827 0.962 . S
C3814 H3828 0.960 . S
C3815 C3812 1.511 . S
C3815 H3829 0.961 . S
C3815 H3830 0.961 . S
C3815 H3831 0.961 . S
C3816 C3817 1.370 . S
C3816 C3818 1.363 . S
C3816 H3832 0.931 . S
C3817 C3816 1.370 . S
C3817 C3821 1.408 . S
C3818 C3816 1.363 . S
C3818 C3819 1.370 . S
C3818 C3822 1.524 . S
C3819 C3811 1.503 . S
C3819 C3818 1.370 . S
C3819 C3820 1.403 . S
C3820 C3819 1.403 . S
C3820 C3821 1.404 . S
C3820 C3823 1.539 . S
C3821 C3817 1.408 . S
C3821 C3820 1.404 . S
C3821 H3833 0.930 . S
C3822 C3818 1.524 . S
C3822 H3834 0.956 . S
C3822 H3835 0.961 . S
C3822 H3836 0.961 . S
C3823 C3820 1.539 . S
C3823 H3837 0.958 . S
C3823 H3838 0.961 . S
C3823 H3839 0.960 . S
H3824 C3808 0.931 . S
H3825 C3813 0.929 . S
H3826 C3814 0.960 . S
H3827 C3814 0.962 . S
H3828 C3814 0.960 . S
H3829 C3815 0.961 . S
H3830 C3815 0.961 . S
H3831 C3815 0.961 . S
H3832 C3816 0.931 . S
H3833 C3821 0.930 . S
H3834 C3822 0.956 . S
H3835 C3822 0.961 . S
H3836 C3822 0.961 . S
H3837 C3823 0.958 . S
H3838 C3823 0.961 . S
H3839 C3823 0.960 . S
C3840 C3841 1.391 . S
C3840 C3842 1.394 . S
C3840 H3856 0.931 . S
C3841 C3840 1.391 . S
C3841 C3845 1.376 . S
C3842 C3840 1.394 . S
C3842 C3843 1.369 . S
C3842 C3846 1.531 1_545 S
C3843 C3842 1.369 . S
C3843 C3844 1.410 . S
C3843 C3851 1.503 1_545 S
C3844 C3843 1.410 . S
C3844 C3845 1.392 . S
C3844 C3847 1.511 . S
C3845 C3841 1.376 . S
C3845 C3844 1.392 . S
C3845 H3857 0.929 . S
C3846 C3842 1.531 1_565 S
C3846 H3858 0.960 . S
C3846 H3859 0.962 1_565 S
C3846 H3860 0.960 . S
C3847 C3844 1.511 . S
C3847 H3861 0.961 . S
C3847 H3862 0.961 . S
C3847 H3863 0.961 1_545 S
C3848 C3849 1.370 . S
C3848 C3850 1.363 1_565 S
C3848 H3864 0.931 1_565 S
C3849 C3848 1.370 . S
C3849 C3853 1.408 . S
C3850 C3848 1.363 1_545 S
C3850 C3851 1.370 1_545 S
C3850 C3854 1.524 . S
C3851 C3843 1.503 1_565 S
C3851 C3850 1.370 1_565 S
C3851 C3852 1.403 . S
C3852 C3851 1.403 . S
C3852 C3853 1.404 . S
C3852 C3855 1.539 . S
C3853 C3849 1.408 . S
C3853 C3852 1.404 . S
C3853 H3865 0.930 . S
C3854 C3850 1.524 . S
C3854 H3866 0.956 . S
C3854 H3867 0.961 . S
C3854 H3868 0.961 . S
C3855 C3852 1.539 . S
C3855 H3869 0.958 . S
C3855 H3870 0.961 . S
C3855 H3871 0.960 . S
H3856 C3840 0.931 . S
H3857 C3845 0.929 . S
H3858 C3846 0.960 . S
H3859 C3846 0.962 1_545 S
H3860 C3846 0.960 . S
H3861 C3847 0.961 . S
H3862 C3847 0.961 . S
H3863 C3847 0.961 1_565 S
H3864 C3848 0.931 1_545 S
H3865 C3853 0.930 . S
H3866 C3854 0.956 . S
H3867 C3854 0.961 . S
H3868 C3854 0.961 . S
H3869 C3855 0.958 . S
H3870 C3855 0.961 . S
H3871 C3855 0.960 . S
C3872 C3873 1.391 . S
C3872 C3874 1.394 . S
C3872 H3888 0.931 . S
C3873 C3872 1.391 . S
C3873 C3877 1.376 . S
C3874 C3872 1.394 . S
C3874 C3875 1.369 . S
C3874 C3878 1.531 . S
C3875 C3874 1.369 . S
C3875 C3876 1.410 . S
C3875 C3883 1.503 . S
C3876 C3875 1.410 . S
C3876 C3877 1.392 . S
C3876 C3879 1.511 . S
C3877 C3873 1.376 . S
C3877 C3876 1.392 . S
C3877 H3889 0.929 . S
C3878 C3874 1.531 . S
C3878 H3890 0.960 . S
C3878 H3891 0.962 . S
C3878 H3892 0.960 . S
C3879 C3876 1.511 . S
C3879 H3893 0.961 . S
C3879 H3894 0.961 . S
C3879 H3895 0.961 . S
C3880 C3881 1.370 . S
C3880 C3882 1.363 . S
C3880 H3896 0.931 . S
C3881 C3880 1.370 . S
C3881 C3885 1.408 . S
C3882 C3880 1.363 . S
C3882 C3883 1.370 . S
C3882 C3886 1.524 . S
C3883 C3875 1.503 . S
C3883 C3882 1.370 . S
C3883 C3884 1.403 . S
C3884 C3883 1.403 . S
C3884 C3885 1.404 . S
C3884 C3887 1.539 . S
C3885 C3881 1.408 . S
C3885 C3884 1.404 . S
C3885 H3897 0.930 . S
C3886 C3882 1.524 . S
C3886 H3898 0.956 . S
C3886 H3899 0.961 . S
C3886 H3900 0.961 . S
C3887 C3884 1.539 . S
C3887 H3901 0.958 . S
C3887 H3902 0.961 . S
C3887 H3903 0.960 . S
H3888 C3872 0.931 . S
H3889 C3877 0.929 . S
H3890 C3878 0.960 . S
H3891 C3878 0.962 . S
H3892 C3878 0.960 . S
H3893 C3879 0.961 . S
H3894 C3879 0.961 . S
H3895 C3879 0.961 . S
H3896 C3880 0.931 . S
H3897 C3885 0.930 . S
H3898 C3886 0.956 . S
H3899 C3886 0.961 . S
H3900 C3886 0.961 . S
H3901 C3887 0.958 . S
H3902 C3887 0.961 . S
H3903 C3887 0.960 . S
C3904 C3905 1.391 . S
C3904 C3906 1.394 . S
C3904 H3920 0.931 . S
C3905 C3904 1.391 . S
C3905 C3909 1.376 . S
C3906 C3904 1.394 . S
C3906 C3907 1.369 . S
C3906 C3910 1.531 . S
C3907 C3906 1.369 . S
C3907 C3908 1.410 . S
C3907 C3915 1.503 1_545 S
C3908 C3907 1.410 . S
C3908 C3909 1.392 . S
C3908 C3911 1.511 . S
C3909 C3905 1.376 . S
C3909 C3908 1.392 . S
C3909 H3921 0.929 . S
C3910 C3906 1.531 . S
C3910 H3922 0.960 . S
C3910 H3923 0.962 . S
C3910 H3924 0.960 . S
C3911 C3908 1.511 . S
C3911 H3925 0.956 1_545 S
C3911 H3926 0.961 1_545 S
C3911 H3927 0.961 . S
C3912 C3913 1.370 . S
C3912 C3914 1.363 . S
C3912 H3928 0.931 . S
C3913 C3912 1.370 . S
C3913 C3917 1.408 . S
C3914 C3912 1.363 . S
C3914 C3915 1.370 . S
C3914 C3918 1.524 . S
C3915 C3907 1.503 1_565 S
C3915 C3914 1.370 . S
C3915 C3916 1.403 1_565 S
C3916 C3915 1.403 1_545 S
C3916 C3917 1.404 1_545 S
C3916 C3919 1.539 . S
C3917 C3913 1.408 . S
C3917 C3916 1.404 1_565 S
C3917 H3929 0.930 1_565 S
C3918 C3914 1.524 . S
C3918 H3930 0.956 . S
C3918 H3931 0.961 . S
C3918 H3932 0.961 . S
C3919 C3916 1.539 . S
C3919 H3933 0.958 . S
C3919 H3934 0.961 . S
C3919 H3935 0.960 . S
H3920 C3904 0.931 . S
H3921 C3909 0.929 . S
H3922 C3910 0.960 . S
H3923 C3910 0.962 . S
H3924 C3910 0.960 . S
H3925 C3911 0.956 1_565 S
H3926 C3911 0.961 1_565 S
H3927 C3911 0.961 . S
H3928 C3912 0.931 . S
H3929 C3917 0.930 1_545 S
H3930 C3918 0.956 . S
H3931 C3918 0.961 . S
H3932 C3918 0.961 . S
H3933 C3919 0.958 . S
H3934 C3919 0.961 . S
H3935 C3919 0.960 . S
C3936 C3937 1.391 . S
C3936 C3938 1.394 . S
C3936 H3952 0.931 . S
C3937 C3936 1.391 . S
C3937 C3941 1.376 . S
C3938 C3936 1.394 . S
C3938 C3939 1.369 . S
C3938 C3942 1.531 . S
C3939 C3938 1.369 . S
C3939 C3940 1.410 . S
C3939 C3947 1.503 1_556 S
C3940 C3939 1.410 . S
C3940 C3941 1.392 . S
C3940 C3943 1.511 . S
C3941 C3937 1.376 . S
C3941 C3940 1.392 . S
C3941 H3953 0.929 . S
C3942 C3938 1.531 . S
C3942 H3954 0.960 1_556 S
C3942 H3955 0.962 . S
C3942 H3956 0.960 . S
C3943 C3940 1.511 . S
C3943 H3957 0.961 . S
C3943 H3958 0.961 1_556 S
C3943 H3959 0.961 1_556 S
C3944 C3945 1.370 . S
C3944 C3946 1.363 . S
C3944 H3960 0.931 . S
C3945 C3944 1.370 . S
C3945 C3949 1.408 . S
C3946 C3944 1.363 . S
C3946 C3947 1.370 . S
C3946 C3950 1.524 1_554 S
C3947 C3939 1.503 1_554 S
C3947 C3946 1.370 . S
C3947 C3948 1.403 . S
C3948 C3947 1.403 . S
C3948 C3949 1.404 . S
C3948 C3951 1.539 . S
C3949 C3945 1.408 . S
C3949 C3948 1.404 . S
C3949 H3961 0.930 . S
C3950 C3946 1.524 1_556 S
C3950 H3962 0.956 . S
C3950 H3963 0.961 . S
C3950 H3964 0.961 . S
C3951 C3948 1.539 . S
C3951 H3965 0.958 . S
C3951 H3966 0.961 . S
C3951 H3967 0.960 . S
H3952 C3936 0.931 . S
H3953 C3941 0.929 . S
H3954 C3942 0.960 1_554 S
H3955 C3942 0.962 . S
H3956 C3942 0.960 . S
H3957 C3943 0.961 . S
H3958 C3943 0.961 1_554 S
H3959 C3943 0.961 1_554 S
H3960 C3944 0.931 . S
H3961 C3949 0.930 . S
H3962 C3950 0.956 . S
H3963 C3950 0.961 . S
H3964 C3950 0.961 . S
H3965 C3951 0.958 . S
H3966 C3951 0.961 . S
H3967 C3951 0.960 . S
C3968 C3969 1.391 . S
C3968 C3970 1.394 . S
C3968 H3984 0.931 . S
C3969 C3968 1.391 . S
C3969 C3973 1.376 . S
C3970 C3968 1.394 . S
C3970 C3971 1.369 . S
C3970 C3974 1.531 . S
C3971 C3970 1.369 . S
C3971 C3972 1.410 . S
C3971 C3979 1.503 1_565 S
C3972 C3971 1.410 . S
C3972 C3973 1.392 . S
C3972 C3975 1.511 1_565 S
C3973 C3969 1.376 . S
C3973 C3972 1.392 . S
C3973 H3985 0.929 . S
C3974 C3970 1.531 . S
C3974 H3986 0.960 . S
C3974 H3987 0.962 . S
C3974 H3988 0.960 . S
C3975 C3972 1.511 1_545 S
C3975 H3989 0.961 . S
C3975 H3990 0.961 . S
C3975 H3991 0.961 . S
C3976 C3977 1.370 . S
C3976 C3978 1.363 . S
C3976 H3992 0.931 . S
C3977 C3976 1.370 . S
C3977 C3981 1.408 . S
C3978 C3976 1.363 . S
C3978 C3979 1.370 . S
C3978 C3982 1.524 . S
C3979 C3971 1.503 1_545 S
C3979 C3978 1.370 . S
C3979 C3980 1.403 1_545 S
C3980 C3979 1.403 1_565 S
C3980 C3981 1.404 1_565 S
C3980 C3983 1.539 . S
C3981 C3977 1.408 . S
C3981 C3980 1.404 1_545 S
C3981 H3993 0.930 . S
C3982 C3978 1.524 . S
C3982 H3994 0.956 . S
C3982 H3995 0.961 . S
C3982 H3996 0.961 . S
C3983 C3980 1.539 . S
C3983 H3997 0.958 . S
C3983 H3998 0.961 . S
C3983 H3999 0.960 . S
H3984 C3968 0.931 . S
H3985 C3973 0.929 . S
H3986 C3974 0.960 . S
H3987 C3974 0.962 . S
H3988 C3974 0.960 . S
H3989 C3975 0.961 . S
H3990 C3975 0.961 . S
H3991 C3975 0.961 . S
H3992 C3976 0.931 . S
H3993 C3981 0.930 . S
H3994 C3982 0.956 . S
H3995 C3982 0.961 . S
H3996 C3982 0.961 . S
H3997 C3983 0.958 . S
H3998 C3983 0.961 . S
H3999 C3983 0.960 . S
C4000 C4001 1.391 . S
C4000 C4002 1.394 . S
C4000 H4016 0.931 . S
C4001 C4000 1.391 . S
C4001 C4005 1.376 . S
C4002 C4000 1.394 . S
C4002 C4003 1.369 . S
C4002 C4006 1.531 . S
C4003 C4002 1.369 . S
C4003 C4004 1.410 . S
C4003 C4011 1.503 . S
C4004 C4003 1.410 . S
C4004 C4005 1.392 . S
C4004 C4007 1.511 . S
C4005 C4001 1.376 . S
C4005 C4004 1.392 . S
C4005 H4017 0.929 . S
C4006 C4002 1.531 . S
C4006 H4018 0.960 . S
C4006 H4019 0.962 . S
C4006 H4020 0.960 . S
C4007 C4004 1.511 . S
C4007 H4021 0.961 . S
C4007 H4022 0.961 . S
C4007 H4023 0.961 . S
C4008 C4009 1.370 . S
C4008 C4010 1.363 . S
C4008 H4024 0.931 . S
C4009 C4008 1.370 . S
C4009 C4013 1.408 . S
C4010 C4008 1.363 . S
C4010 C4011 1.370 . S
C4010 C4014 1.524 . S
C4011 C4003 1.503 . S
C4011 C4010 1.370 . S
C4011 C4012 1.403 . S
C4012 C4011 1.403 . S
C4012 C4013 1.404 . S
C4012 C4015 1.539 . S
C4013 C4009 1.408 . S
C4013 C4012 1.404 . S
C4013 H4025 0.930 . S
C4014 C4010 1.524 . S
C4014 H4026 0.956 . S
C4014 H4027 0.961 . S
C4014 H4028 0.961 . S
C4015 C4012 1.539 . S
C4015 H4029 0.958 . S
C4015 H4030 0.961 . S
C4015 H4031 0.960 . S
H4016 C4000 0.931 . S
H4017 C4005 0.929 . S
H4018 C4006 0.960 . S
H4019 C4006 0.962 . S
H4020 C4006 0.960 . S
H4021 C4007 0.961 . S
H4022 C4007 0.961 . S
H4023 C4007 0.961 . S
H4024 C4008 0.931 . S
H4025 C4013 0.930 . S
H4026 C4014 0.956 . S
H4027 C4014 0.961 . S
H4028 C4014 0.961 . S
H4029 C4015 0.958 . S
H4030 C4015 0.961 . S
H4031 C4015 0.960 . S
C4032 C4033 1.391 . S
C4032 C4034 1.394 . S
C4032 H4048 0.931 . S
C4033 C4032 1.391 . S
C4033 C4037 1.376 . S
C4034 C4032 1.394 . S
C4034 C4035 1.369 . S
C4034 C4038 1.531 . S
C4035 C4034 1.369 . S
C4035 C4036 1.410 1_565 S
C4035 C4043 1.503 1_565 S
C4036 C4035 1.410 1_545 S
C4036 C4037 1.392 1_545 S
C4036 C4039 1.511 . S
C4037 C4033 1.376 . S
C4037 C4036 1.392 1_565 S
C4037 H4049 0.929 . S
C4038 C4034 1.531 . S
C4038 H4050 0.960 . S
C4038 H4051 0.962 . S
C4038 H4052 0.960 . S
C4039 C4036 1.511 . S
C4039 H4053 0.961 . S
C4039 H4054 0.961 . S
C4039 H4055 0.961 . S
C4040 C4041 1.370 . S
C4040 C4042 1.363 . S
C4040 H4056 0.931 . S
C4041 C4040 1.370 . S
C4041 C4045 1.408 . S
C4042 C4040 1.363 . S
C4042 C4043 1.370 . S
C4042 C4046 1.524 . S
C4043 C4035 1.503 1_545 S
C4043 C4042 1.370 . S
C4043 C4044 1.406 . S
C4044 C4043 1.406 . S
C4044 C4045 1.414 . S
C4044 C4047 1.528 1_545 S
C4045 C4041 1.408 . S
C4045 C4044 1.414 . S
C4045 H4057 0.930 . S
C4046 C4042 1.524 . S
C4046 H4058 0.956 . S
C4046 H4059 0.961 . S
C4046 H4060 0.961 . S
C4047 C4044 1.528 1_565 S
C4047 H4061 0.958 . S
C4047 H4062 0.961 . S
C4047 H4063 0.960 . S
H4048 C4032 0.931 . S
H4049 C4037 0.929 . S
H4050 C4038 0.960 . S
H4051 C4038 0.962 . S
H4052 C4038 0.960 . S
H4053 C4039 0.961 . S
H4054 C4039 0.961 . S
H4055 C4039 0.961 . S
H4056 C4040 0.931 . S
H4057 C4045 0.930 . S
H4058 C4046 0.956 . S
H4059 C4046 0.961 . S
H4060 C4046 0.961 . S
H4061 C4047 0.958 . S
H4062 C4047 0.961 . S
H4063 C4047 0.960 . S
C4064 C4065 1.391 . S
C4064 C4066 1.394 . S
C4064 H4080 0.931 . S
C4065 C4064 1.391 . S
C4065 C4069 1.376 . S
C4066 C4064 1.394 . S
C4066 C4067 1.369 . S
C4066 C4070 1.531 1_554 S
C4067 C4066 1.369 . S
C4067 C4068 1.410 . S
C4067 C4075 1.503 1_554 S
C4068 C4067 1.410 . S
C4068 C4069 1.392 . S
C4068 C4071 1.511 . S
C4069 C4065 1.376 . S
C4069 C4068 1.392 . S
C4069 H4081 0.929 . S
C4070 C4066 1.531 1_556 S
C4070 H4082 0.960 . S
C4070 H4083 0.962 . S
C4070 H4084 0.962 1_556 S
C4071 C4068 1.511 . S
C4071 H4085 0.961 . S
C4071 H4086 0.961 . S
C4071 H4087 0.961 . S
C4072 C4073 1.370 . S
C4072 C4074 1.363 . S
C4072 H4088 0.931 . S
C4073 C4072 1.370 . S
C4073 C4077 1.408 . S
C4074 C4072 1.363 . S
C4074 C4075 1.370 . S
C4074 C4078 1.524 . S
C4075 C4067 1.503 1_556 S
C4075 C4074 1.370 . S
C4075 C4076 1.403 . S
C4076 C4075 1.403 . S
C4076 C4077 1.404 . S
C4076 C4079 1.571 . S
C4077 C4073 1.408 . S
C4077 C4076 1.404 . S
C4077 H4089 0.930 . S
C4078 C4074 1.524 . S
C4078 H4090 0.956 . S
C4078 H4091 0.961 . S
C4078 H4092 0.961 . S
C4079 C4076 1.571 . S
C4079 H4093 0.968 . S
C4079 H4094 0.971 . S
C4079 H4095 0.911 1_556 S
H4080 C4064 0.931 . S
H4081 C4069 0.929 . S
H4082 C4070 0.960 . S
H4083 C4070 0.962 . S
H4084 C4070 0.962 1_554 S
H4085 C4071 0.961 . S
H4086 C4071 0.961 . S
H4087 C4071 0.961 . S
H4088 C4072 0.931 . S
H4089 C4077 0.930 . S
H4090 C4078 0.956 . S
H4091 C4078 0.961 . S
H4092 C4078 0.961 . S
H4093 C4079 0.968 . S
H4094 C4079 0.971 . S
H4095 C4079 0.911 1_554 S
C4096 C4097 1.391 . S
C4096 C4098 1.394 . S
C4096 H4112 0.931 . S
C4097 C4096 1.391 . S
C4097 C4101 1.376 . S
C4098 C4096 1.394 . S
C4098 C4099 1.369 . S
C4098 C4102 1.531 . S
C4099 C4098 1.369 . S
C4099 C4100 1.410 . S
C4099 C4107 1.503 . S
C4100 C4099 1.410 . S
C4100 C4101 1.392 . S
C4100 C4103 1.511 . S
C4101 C4097 1.376 . S
C4101 C4100 1.392 . S
C4101 H4113 0.929 . S
C4102 C4098 1.531 . S
C4102 H4114 0.960 . S
C4102 H4115 0.962 . S
C4102 H4116 0.960 . S
C4103 C4100 1.511 . S
C4103 H4117 0.961 . S
C4103 H4118 0.961 . S
C4103 H4119 0.961 . S
C4104 C4105 1.370 . S
C4104 C4106 1.363 . S
C4104 H4120 0.931 . S
C4105 C4104 1.370 . S
C4105 C4109 1.408 . S
C4106 C4104 1.363 . S
C4106 C4107 1.370 . S
C4106 C4110 1.524 . S
C4107 C4099 1.503 . S
C4107 C4106 1.370 . S
C4107 C4108 1.403 . S
C4108 C4107 1.403 . S
C4108 C4109 1.404 . S
C4108 C4111 1.539 . S
C4109 C4105 1.408 . S
C4109 C4108 1.404 . S
C4109 H4121 0.930 . S
C4110 C4106 1.524 . S
C4110 H4122 0.956 . S
C4110 H4123 0.961 . S
C4110 H4124 0.961 . S
C4111 C4108 1.539 . S
C4111 H4125 0.958 . S
C4111 H4126 0.961 . S
C4111 H4127 0.960 . S
H4112 C4096 0.931 . S
H4113 C4101 0.929 . S
H4114 C4102 0.960 . S
H4115 C4102 0.962 . S
H4116 C4102 0.960 . S
H4117 C4103 0.961 . S
H4118 C4103 0.961 . S
H4119 C4103 0.961 . S
H4120 C4104 0.931 . S
H4121 C4109 0.930 . S
H4122 C4110 0.956 . S
H4123 C4110 0.961 . S
H4124 C4110 0.961 . S
H4125 C4111 0.958 . S
H4126 C4111 0.961 . S
H4127 C4111 0.960 . S
C4128 C4129 1.391 . S
C4128 C4130 1.394 . S
C4128 H4144 0.931 . S
C4129 C4128 1.391 . S
C4129 C4133 1.376 . S
C4130 C4128 1.394 . S
C4130 C4131 1.369 . S
C4130 C4134 1.531 . S
C4131 C4130 1.369 . S
C4131 C4132 1.410 . S
C4131 C4139 1.503 1_556 S
C4132 C4131 1.410 . S
C4132 C4133 1.392 . S
C4132 C4135 1.511 1_556 S
C4133 C4129 1.376 . S
C4133 C4132 1.392 . S
C4133 H4145 0.929 . S
C4134 C4130 1.531 . S
C4134 H4146 0.960 . S
C4134 H4147 0.962 . S
C4134 H4148 0.960 . S
C4135 C4132 1.511 1_554 S
C4135 H4149 0.961 . S
C4135 H4150 0.961 . S
C4135 H4151 0.961 . S
C4136 C4137 1.370 . S
C4136 C4138 1.363 . S
C4136 H4152 0.931 . S
C4137 C4136 1.370 . S
C4137 C4141 1.408 . S
C4138 C4136 1.363 . S
C4138 C4139 1.370 . S
C4138 C4142 1.473 1_554 S
C4139 C4131 1.503 1_554 S
C4139 C4138 1.370 . S
C4139 C4140 1.403 . S
C4140 C4139 1.403 . S
C4140 C4141 1.404 . S
C4140 C4143 1.539 . S
C4141 C4137 1.408 . S
C4141 C4140 1.404 . S
C4141 H4153 0.930 . S
C4142 C4138 1.473 1_556 S
C4142 H4154 1.019 . S
C4142 H4155 0.983 . S
C4142 H4156 0.934 1_556 S
C4143 C4140 1.539 . S
C4143 H4157 0.958 . S
C4143 H4158 0.961 . S
C4143 H4159 0.960 . S
H4144 C4128 0.931 . S
H4145 C4133 0.929 . S
H4146 C4134 0.960 . S
H4147 C4134 0.962 . S
H4148 C4134 0.960 . S
H4149 C4135 0.961 . S
H4150 C4135 0.961 . S
H4151 C4135 0.961 . S
H4152 C4136 0.931 . S
H4153 C4141 0.930 . S
H4154 C4142 1.019 . S
H4155 C4142 0.983 . S
H4156 C4142 0.934 1_554 S
H4157 C4143 0.958 . S
H4158 C4143 0.961 . S
H4159 C4143 0.960 . S
C4160 C4161 1.391 . S
C4160 C4162 1.394 . S
C4160 H4176 0.931 . S
C4161 C4160 1.391 . S
C4161 C4165 1.376 . S
C4162 C4160 1.394 . S
C4162 C4163 1.369 . S
C4162 C4166 1.531 . S
C4163 C4162 1.369 . S
C4163 C4164 1.410 . S
C4163 C4171 1.503 . S
C4164 C4163 1.410 . S
C4164 C4165 1.392 . S
C4164 C4167 1.511 . S
C4165 C4161 1.376 . S
C4165 C4164 1.392 . S
C4165 H4177 0.929 . S
C4166 C4162 1.531 . S
C4166 H4178 0.960 . S
C4166 H4179 0.962 . S
C4166 H4180 0.960 . S
C4167 C4164 1.511 . S
C4167 H4181 0.961 . S
C4167 H4182 0.961 . S
C4167 H4183 0.961 . S
C4168 C4169 1.370 . S
C4168 C4170 1.363 . S
C4168 H4184 0.931 . S
C4169 C4168 1.370 . S
C4169 C4173 1.408 . S
C4170 C4168 1.363 . S
C4170 C4171 1.370 . S
C4170 C4174 1.524 . S
C4171 C4163 1.503 . S
C4171 C4170 1.370 . S
C4171 C4172 1.403 . S
C4172 C4171 1.403 . S
C4172 C4173 1.404 . S
C4172 C4175 1.539 . S
C4173 C4169 1.408 . S
C4173 C4172 1.404 . S
C4173 H4185 0.930 . S
C4174 C4170 1.524 . S
C4174 H4186 0.956 . S
C4174 H4187 0.961 . S
C4174 H4188 0.961 . S
C4175 C4172 1.539 . S
C4175 H4189 0.958 . S
C4175 H4190 0.961 . S
C4175 H4191 0.960 . S
H4176 C4160 0.931 . S
H4177 C4165 0.929 . S
H4178 C4166 0.960 . S
H4179 C4166 0.962 . S
H4180 C4166 0.960 . S
H4181 C4167 0.961 . S
H4182 C4167 0.961 . S
H4183 C4167 0.961 . S
H4184 C4168 0.931 . S
H4185 C4173 0.930 . S
H4186 C4174 0.956 . S
H4187 C4174 0.961 . S
H4188 C4174 0.961 . S
H4189 C4175 0.958 . S
H4190 C4175 0.961 . S
H4191 C4175 0.960 . S
C4192 C4193 1.391 . S
C4192 C4194 1.394 . S
C4192 H4208 0.931 . S
C4193 C4192 1.391 . S
C4193 C4197 1.376 . S
C4194 C4192 1.394 . S
C4194 C4195 1.369 . S
C4194 C4198 1.531 . S
C4195 C4194 1.369 . S
C4195 C4196 1.410 . S
C4195 C4203 1.503 . S
C4196 C4195 1.410 . S
C4196 C4197 1.392 . S
C4196 C4199 1.511 . S
C4197 C4193 1.376 . S
C4197 C4196 1.392 . S
C4197 H4209 0.929 . S
C4198 C4194 1.531 . S
C4198 H4210 0.960 . S
C4198 H4211 0.962 . S
C4198 H4212 0.960 . S
C4199 C4196 1.511 . S
C4199 H4213 0.961 . S
C4199 H4214 0.961 . S
C4199 H4215 0.961 . S
C4200 C4201 1.370 . S
C4200 C4202 1.363 . S
C4200 H4216 0.931 . S
C4201 C4200 1.370 . S
C4201 C4205 1.408 . S
C4202 C4200 1.363 . S
C4202 C4203 1.370 . S
C4202 C4206 1.524 . S
C4203 C4195 1.503 . S
C4203 C4202 1.370 . S
C4203 C4204 1.403 . S
C4204 C4203 1.403 . S
C4204 C4205 1.404 . S
C4204 C4207 1.539 . S
C4205 C4201 1.408 . S
C4205 C4204 1.404 . S
C4205 H4217 0.930 . S
C4206 C4202 1.524 . S
C4206 H4218 0.956 . S
C4206 H4219 0.961 . S
C4206 H4220 0.961 . S
C4207 C4204 1.539 . S
C4207 H4221 0.958 . S
C4207 H4222 0.961 . S
C4207 H4223 0.960 . S
H4208 C4192 0.931 . S
H4209 C4197 0.929 . S
H4210 C4198 0.960 . S
H4211 C4198 0.962 . S
H4212 C4198 0.960 . S
H4213 C4199 0.961 . S
H4214 C4199 0.961 . S
H4215 C4199 0.961 . S
H4216 C4200 0.931 . S
H4217 C4205 0.930 . S
H4218 C4206 0.956 . S
H4219 C4206 0.961 . S
H4220 C4206 0.961 . S
H4221 C4207 0.958 . S
H4222 C4207 0.961 . S
H4223 C4207 0.960 . S
C4224 C4225 1.391 . S
C4224 C4226 1.394 . S
C4224 H4240 0.931 . S
C4225 C4224 1.391 . S
C4225 C4229 1.376 . S
C4226 C4224 1.394 . S
C4226 C4227 1.369 . S
C4226 C4230 1.531 . S
C4227 C4226 1.369 . S
C4227 C4228 1.410 . S
C4227 C4235 1.503 . S
C4228 C4227 1.410 . S
C4228 C4229 1.392 . S
C4228 C4231 1.511 . S
C4229 C4225 1.376 . S
C4229 C4228 1.392 . S
C4229 H4241 0.929 . S
C4230 C4226 1.531 . S
C4230 H4242 0.960 . S
C4230 H4243 0.962 . S
C4230 H4244 0.960 . S
C4231 C4228 1.511 . S
C4231 H4245 0.961 . S
C4231 H4246 0.961 . S
C4231 H4247 0.961 . S
C4232 C4233 1.370 . S
C4232 C4234 1.363 . S
C4232 H4248 0.931 . S
C4233 C4232 1.370 . S
C4233 C4237 1.408 . S
C4234 C4232 1.363 . S
C4234 C4235 1.370 . S
C4234 C4238 1.524 . S
C4235 C4227 1.503 . S
C4235 C4234 1.370 . S
C4235 C4236 1.403 . S
C4236 C4235 1.403 . S
C4236 C4237 1.404 . S
C4236 C4239 1.539 . S
C4237 C4233 1.408 . S
C4237 C4236 1.404 . S
C4237 H4249 0.930 . S
C4238 C4234 1.524 . S
C4238 H4250 0.956 . S
C4238 H4251 0.961 . S
C4238 H4252 0.961 . S
C4239 C4236 1.539 . S
C4239 H4253 0.958 . S
C4239 H4254 0.961 . S
C4239 H4255 0.960 . S
H4240 C4224 0.931 . S
H4241 C4229 0.929 . S
H4242 C4230 0.960 . S
H4243 C4230 0.962 . S
H4244 C4230 0.960 . S
H4245 C4231 0.961 . S
H4246 C4231 0.961 . S
H4247 C4231 0.961 . S
H4248 C4232 0.931 . S
H4249 C4237 0.930 . S
H4250 C4238 0.956 . S
H4251 C4238 0.961 . S
H4252 C4238 0.961 . S
H4253 C4239 0.958 . S
H4254 C4239 0.961 . S
H4255 C4239 0.960 . S
C4256 C4257 1.391 . S
C4256 C4258 1.394 . S
C4256 H4272 0.931 . S
C4257 C4256 1.391 . S
C4257 C4261 1.376 . S
C4258 C4256 1.394 . S
C4258 C4259 1.369 . S
C4258 C4262 1.531 . S
C4259 C4258 1.369 . S
C4259 C4260 1.410 . S
C4259 C4267 1.503 1_556 S
C4260 C4259 1.410 . S
C4260 C4261 1.392 . S
C4260 C4263 1.511 1_556 S
C4261 C4257 1.376 . S
C4261 C4260 1.392 . S
C4261 H4273 0.929 . S
C4262 C4258 1.531 . S
C4262 H4274 0.960 . S
C4262 H4275 0.962 . S
C4262 H4276 0.960 . S
C4263 C4260 1.511 1_554 S
C4263 H4277 0.990 . S
C4263 H4278 0.961 . S
C4263 H4279 0.961 . S
C4264 C4265 1.370 . S
C4264 C4266 1.363 . S
C4264 H4280 0.931 . S
C4265 C4264 1.370 . S
C4265 C4269 1.408 . S
C4266 C4264 1.363 . S
C4266 C4267 1.370 . S
C4266 C4270 1.524 1_554 S
C4267 C4259 1.503 1_554 S
C4267 C4266 1.370 . S
C4267 C4268 1.403 . S
C4268 C4267 1.403 . S
C4268 C4269 1.404 . S
C4268 C4271 1.539 . S
C4269 C4265 1.408 . S
C4269 C4268 1.404 . S
C4269 H4281 0.930 . S
C4270 C4266 1.524 1_556 S
C4270 H4282 0.956 . S
C4270 H4283 0.961 . S
C4270 H4284 0.961 1_556 S
C4271 C4268 1.539 . S
C4271 H4285 0.958 . S
C4271 H4286 0.961 . S
C4271 H4287 0.960 . S
H4272 C4256 0.931 . S
H4273 C4261 0.929 . S
H4274 C4262 0.960 . S
H4275 C4262 0.962 . S
H4276 C4262 0.960 . S
H4277 C4263 0.990 . S
H4278 C4263 0.961 . S
H4279 C4263 0.961 . S
H4280 C4264 0.931 . S
H4281 C4269 0.930 . S
H4282 C4270 0.956 . S
H4283 C4270 0.961 . S
H4284 C4270 0.961 1_554 S
H4285 C4271 0.958 . S
H4286 C4271 0.961 . S
H4287 C4271 0.960 . S
C4288 C4289 1.391 . S
C4288 C4290 1.394 . S
C4288 H4304 0.931 . S
C4289 C4288 1.391 . S
C4289 C4293 1.376 . S
C4290 C4288 1.394 . S
C4290 C4291 1.369 . S
C4290 C4294 1.531 . S
C4291 C4290 1.369 . S
C4291 C4292 1.410 . S
C4291 C4299 1.503 . S
C4292 C4291 1.410 . S
C4292 C4293 1.392 . S
C4292 C4295 1.511 . S
C4293 C4289 1.376 . S
C4293 C4292 1.392 . S
C4293 H4305 0.929 . S
C4294 C4290 1.531 . S
C4294 H4306 0.960 . S
C4294 H4307 0.962 . S
C4294 H4308 0.960 . S
C4295 C4292 1.511 . S
C4295 H4309 0.961 . S
C4295 H4310 0.961 . S
C4295 H4311 0.961 . S
C4296 C4297 1.370 . S
C4296 C4298 1.363 . S
C4296 H4312 0.931 . S
C4297 C4296 1.370 . S
C4297 C4301 1.408 . S
C4298 C4296 1.363 . S
C4298 C4299 1.370 . S
C4298 C4302 1.524 . S
C4299 C4291 1.503 . S
C4299 C4298 1.370 . S
C4299 C4300 1.403 . S
C4300 C4299 1.403 . S
C4300 C4301 1.404 . S
C4300 C4303 1.539 . S
C4301 C4297 1.408 . S
C4301 C4300 1.404 . S
C4301 H4313 0.930 . S
C4302 C4298 1.524 . S
C4302 H4314 0.956 . S
C4302 H4315 0.961 . S
C4302 H4316 0.961 . S
C4303 C4300 1.539 . S
C4303 H4317 0.958 . S
C4303 H4318 0.961 . S
C4303 H4319 0.960 . S
H4304 C4288 0.931 . S
H4305 C4293 0.929 . S
H4306 C4294 0.960 . S
H4307 C4294 0.962 . S
H4308 C4294 0.960 . S
H4309 C4295 0.961 . S
H4310 C4295 0.961 . S
H4311 C4295 0.961 . S
H4312 C4296 0.931 . S
H4313 C4301 0.930 . S
H4314 C4302 0.956 . S
H4315 C4302 0.961 . S
H4316 C4302 0.961 . S
H4317 C4303 0.958 . S
H4318 C4303 0.961 . S
H4319 C4303 0.960 . S
C4320 C4321 1.391 . S
C4320 C4322 1.394 . S
C4320 H4336 0.931 . S
C4321 C4320 1.391 . S
C4321 C4325 1.376 . S
C4322 C4320 1.394 . S
C4322 C4323 1.369 . S
C4322 C4326 1.531 . S
C4323 C4322 1.369 . S
C4323 C4324 1.410 . S
C4323 C4331 1.503 . S
C4324 C4323 1.410 . S
C4324 C4325 1.392 . S
C4324 C4327 1.511 . S
C4325 C4321 1.376 . S
C4325 C4324 1.392 . S
C4325 H4337 0.929 . S
C4326 C4322 1.531 . S
C4326 H4338 0.960 . S
C4326 H4339 0.962 . S
C4326 H4340 0.960 . S
C4327 C4324 1.511 . S
C4327 H4341 0.961 . S
C4327 H4342 0.961 . S
C4327 H4343 0.961 . S
C4328 C4329 1.370 . S
C4328 C4330 1.363 . S
C4328 H4344 0.931 . S
C4329 C4328 1.370 . S
C4329 C4333 1.408 . S
C4330 C4328 1.363 . S
C4330 C4331 1.370 . S
C4330 C4334 1.524 . S
C4331 C4323 1.503 . S
C4331 C4330 1.370 . S
C4331 C4332 1.403 . S
C4332 C4331 1.403 . S
C4332 C4333 1.404 . S
C4332 C4335 1.539 . S
C4333 C4329 1.408 . S
C4333 C4332 1.404 . S
C4333 H4345 0.930 . S
C4334 C4330 1.524 . S
C4334 H4346 0.956 . S
C4334 H4347 0.961 . S
C4334 H4348 0.961 . S
C4335 C4332 1.539 . S
C4335 H4349 0.958 . S
C4335 H4350 0.961 . S
C4335 H4351 0.960 . S
H4336 C4320 0.931 . S
H4337 C4325 0.929 . S
H4338 C4326 0.960 . S
H4339 C4326 0.962 . S
H4340 C4326 0.960 . S
H4341 C4327 0.961 . S
H4342 C4327 0.961 . S
H4343 C4327 0.961 . S
H4344 C4328 0.931 . S
H4345 C4333 0.930 . S
H4346 C4334 0.956 . S
H4347 C4334 0.961 . S
H4348 C4334 0.961 . S
H4349 C4335 0.958 . S
H4350 C4335 0.961 . S
H4351 C4335 0.960 . S
C1281 C10 0.704 . S
C1289 C1095 0.506 . S
C1313 C50 0.564 . S
C1321 C335 0.565 . S
C1345 C90 0.677 . S
C1353 C1015 0.528 . S
C1377 C415 0.457 . S
C1385 C130 0.682 . S
C1409 C170 0.747 . S
C1417 C1175 0.489 . S
C1441 C575 0.582 . S
C1449 C210 0.635 . S
C1473 C1255 0.519 . S
C1481 C250 0.652 . S
C1505 C290 0.741 . S
C1513 C495 0.495 . S
C1537 C339 0.734 . S
C1545 C766 0.492 . S
C1569 C379 0.740 . S
C1577 C6 0.497 . S
C1601 C686 0.630 . S
C1609 C419 0.606 . S
C1633 C86 0.625 . S
C1641 C459 0.607 . S
C1665 C499 0.734 . S
C1673 C846 0.492 . S
C1697 C539 0.669 . S
C1705 C246 0.518 . S
C1729 C579 0.627 . S
C1737 C926 0.551 . S
C1761 C166 0.472 . S
C1769 C619 0.670 . S
C1793 C455 0.466 . S
C1801 C650 0.680 . S
C1825 C975 0.627 . S
C1833 C690 0.606 . S
C1857 C375 0.474 . S
C1865 C730 0.678 . S
C1889 C770 0.566 . S
C1897 C1055 0.567 . S
C1921 C535 0.464 . S
C1929 C810 0.680 . S
C1953 C1215 0.609 . S
C1961 C850 0.621 . S
C1985 C615 0.621 . S
C1993 C890 0.609 . S
C2017 C930 0.561 . S
C2025 C1135 0.568 . S
C2049 C979 0.590 . S
C2057 C126 0.562 . S
C2081 C1019 0.666 . S
C2089 C646 0.520 . S
C2113 C1059 0.624 . S
C2121 C46 0.551 . S
C2145 C1099 0.572 . S
C2153 C726 0.567 . S
C2177 C206 0.532 . S
C2185 C1139 0.660 . S
C2209 C886 0.517 . S
C2217 C1179 0.651 . S
C2241 C1219 0.659 . S
C2249 C286 0.523 . S
C2273 C1259 0.703 . S
C2281 C806 0.518 . S
C2305 C18 1.664 . S
C2313 C738 1.634 . S
C2337 C778 1.651 . S
C2345 C58 1.640 . S
C2369 C98 1.663 . S
C2377 C658 1.635 . S
C2401 C138 1.654 . S
C2409 C698 1.639 . S
C2433 C898 1.613 . S
C2441 C178 1.656 . S
C2465 C218 1.669 . S
C2473 C938 1.633 . S
C2497 C818 1.625 . S
C2505 C258 1.652 . S
C2529 C298 1.658 . S
C2537 C858 1.637 . S
C2561 C1049 1.670 . S
C2569 C329 1.632 . S
C2593 C369 1.660 . S
C2601 C1089 1.634 . S
C2625 C409 1.619 . S
C2633 C969 1.651 . S
C2657 C449 1.620 . S
C2665 C1009 1.651 . S
C2689 C1209 1.641 . S
C2697 C489 1.648 . S
C2721 C1249 1.673 . S
C2729 C529 1.632 . S
C2753 C569 1.633 . S
C2761 C1129 1.651 . S
C2785 C609 1.611 . S
C2793 C1169 1.656 . S
C2817 C15 1.752 . S
C2825 C966 1.752 . S
C2849 C366 1.756 . S
C2857 C55 1.757 . S
C2881 C95 1.718 . S
C2889 C1046 1.767 . S
C2913 C135 1.754 . S
C2921 C446 1.758 . S
C2945 C1126 1.768 . S
C2953 C175 1.746 . S
C2977 C526 1.789 . S
C2985 C215 1.742 . S
C3009 C255 1.757 . S
C3017 C1206 1.757 . S
C3041 C295 1.783 . S
C3049 C606 1.740 . S
C3073 C655 1.704 . S
C3081 C326 1.775 . S
C3105 C735 1.727 . S
C3113 C406 1.768 . S
C3137 C815 1.749 . S
C3145 C486 1.754 . S
C3169 C566 1.757 . S
C3177 C895 1.757 . S
C3201 C695 1.706 . S
C3209 C1006 1.775 . S
C3233 C775 1.704 . S
C3241 C1086 1.775 . S
C3265 C1166 1.758 . S
C3273 C855 1.756 . S
C3297 C1246 1.760 . S
C3305 C935 1.749 . S
C3329 C9 4.452 . S
C3337 C209 4.470 . S
C3361 C249 4.442 . S
C3369 C49 4.468 . S
C3393 C289 4.463 . S
C3401 C89 4.468 . S
C3425 C169 4.456 . S
C3433 C129 4.470 . S
C3457 C338 4.458 . S
C3465 C538 4.458 . S
C3489 C378 4.441 . S
C3497 C578 4.468 . S
C3521 C618 4.445 . S
C3529 C418 4.462 . S
C3553 C458 4.458 . S
C3561 C498 4.468 . S
C3585 C649 4.445 . S
C3593 C849 4.469 . S
C3617 C689 4.445 . S
C3625 C889 4.460 . S
C3649 C729 4.458 . S
C3657 C929 4.469 . S
C3681 C809 4.472 . S
C3689 C769 4.459 . S
C3713 C978 4.441 . S
C3721 C1178 4.468 . S
C3745 C1018 4.465 . S
C3753 C1218 4.456 . S
C3777 C1258 4.464 . S
C3785 C1058 4.467 . S
C3809 C1098 4.442 . S
C3817 C1138 4.469 . S
C3841 C19 3.947 . S
C3849 C179 3.950 . S
C3873 C59 3.951 . S
C3881 C219 3.952 . S
C3905 C259 3.944 . S
C3913 C99 3.954 . S
C3937 C299 3.942 . S
C3945 C139 3.953 . S
C3969 C330 3.940 . S
C3977 C490 3.951 . S
C4001 C530 3.948 . S
C4009 C370 3.954 . S
C4033 C570 3.940 . S
C4041 C410 3.950 . S
C4065 C610 3.943 . S
C4073 C450 3.950 . S
C4097 C659 3.943 . S
C4105 C819 3.950 . S
C4129 C859 3.940 . S
C4137 C699 3.951 . S
C4161 C739 3.940 . S
C4169 C899 3.951 . S
C4193 C939 3.951 . S
C4201 C779 3.952 . S
C4225 C1130 3.950 . S
C4233 C970 3.952 . S
C4257 C1010 3.948 . S
C4265 C1170 3.954 . S
C4289 C1050 3.951 . S
C4297 C1210 3.953 . S
C4321 C1090 3.943 . S
C4329 C1250 3.950 . S
