# Generated by pormake.
# Topology wiv, (6)-cn, num edge types: 1
# Building blocks:
#     Node 0, Type 0, BuildingBlock: CUKXOW_clean_sbu_0, # of connection points: 6
#     Node 1, Type 0, BuildingBlock: CUKXOW_clean_sbu_0, # of connection points: 6
#     Node 2, Type 0, BuildingBlock: CUKXOW_clean_sbu_0, # of connection points: 6
#     Node 3, Type 0, BuildingBlock: CUKXOW_clean_sbu_0, # of connection points: 6
#     Node 4, Type 0, BuildingBlock: CUKXOW_clean_sbu_0, # of connection points: 6
#     Node 5, Type 0, BuildingBlock: CUKXOW_clean_sbu_0, # of connection points: 6
#     Node 6, Type 0, BuildingBlock: CUKXOW_clean_sbu_0, # of connection points: 6
#     Node 7, Type 0, BuildingBlock: CUKXOW_clean_sbu_0, # of connection points: 6
#     Node 8, Type 0, BuildingBlock: CUKXOW_clean_sbu_0, # of connection points: 6
#     Node 9, Type 0, BuildingBlock: CUKXOW_clean_sbu_0, # of connection points: 6
#     Node 10, Type 0, BuildingBlock: CUKXOW_clean_sbu_0, # of connection points: 6
#     Node 11, Type 0, BuildingBlock: CUKXOW_clean_sbu_0, # of connection points: 6
#     Node 12, Type 0, BuildingBlock: CUKXOW_clean_sbu_0, # of connection points: 6
#     Node 13, Type 0, BuildingBlock: CUKXOW_clean_sbu_0, # of connection points: 6
#     Node 14, Type 0, BuildingBlock: CUKXOW_clean_sbu_0, # of connection points: 6
#     Node 15, Type 0, BuildingBlock: CUKXOW_clean_sbu_0, # of connection points: 6
#     Edge 16, Type (0, 0), BuildingBlock: AJUNOK_clean_linker_0, # of connection points: 2
#     Edge 17, Type (0, 0), BuildingBlock: AJUNOK_clean_linker_0, # of connection points: 2
#     Edge 18, Type (0, 0), BuildingBlock: AJUNOK_clean_linker_0, # of connection points: 2
#     Edge 19, Type (0, 0), BuildingBlock: AJUNOK_clean_linker_0, # of connection points: 2
#     Edge 20, Type (0, 0), BuildingBlock: AJUNOK_clean_linker_0, # of connection points: 2
#     Edge 21, Type (0, 0), BuildingBlock: AJUNOK_clean_linker_0, # of connection points: 2
#     Edge 22, Type (0, 0), BuildingBlock: AJUNOK_clean_linker_0, # of connection points: 2
#     Edge 23, Type (0, 0), BuildingBlock: AJUNOK_clean_linker_0, # of connection points: 2
#     Edge 24, Type (0, 0), BuildingBlock: AJUNOK_clean_linker_0, # of connection points: 2
#     Edge 25, Type (0, 0), BuildingBlock: AJUNOK_clean_linker_0, # of connection points: 2
#     Edge 26, Type (0, 0), BuildingBlock: AJUNOK_clean_linker_0, # of connection points: 2
#     Edge 27, Type (0, 0), BuildingBlock: AJUNOK_clean_linker_0, # of connection points: 2
#     Edge 28, Type (0, 0), BuildingBlock: AJUNOK_clean_linker_0, # of connection points: 2
#     Edge 29, Type (0, 0), BuildingBlock: AJUNOK_clean_linker_0, # of connection points: 2
#     Edge 30, Type (0, 0), BuildingBlock: AJUNOK_clean_linker_0, # of connection points: 2
#     Edge 31, Type (0, 0), BuildingBlock: AJUNOK_clean_linker_0, # of connection points: 2
#     Edge 32, Type (0, 0), BuildingBlock: AJUNOK_clean_linker_0, # of connection points: 2
#     Edge 33, Type (0, 0), BuildingBlock: AJUNOK_clean_linker_0, # of connection points: 2
#     Edge 34, Type (0, 0), BuildingBlock: AJUNOK_clean_linker_0, # of connection points: 2
#     Edge 35, Type (0, 0), BuildingBlock: AJUNOK_clean_linker_0, # of connection points: 2
#     Edge 36, Type (0, 0), BuildingBlock: AJUNOK_clean_linker_0, # of connection points: 2
#     Edge 37, Type (0, 0), BuildingBlock: AJUNOK_clean_linker_0, # of connection points: 2
#     Edge 38, Type (0, 0), BuildingBlock: AJUNOK_clean_linker_0, # of connection points: 2
#     Edge 39, Type (0, 0), BuildingBlock: AJUNOK_clean_linker_0, # of connection points: 2
#     Edge 40, Type (0, 0), BuildingBlock: AJUNOK_clean_linker_0, # of connection points: 2
#     Edge 41, Type (0, 0), BuildingBlock: AJUNOK_clean_linker_0, # of connection points: 2
#     Edge 42, Type (0, 0), BuildingBlock: AJUNOK_clean_linker_0, # of connection points: 2
#     Edge 43, Type (0, 0), BuildingBlock: AJUNOK_clean_linker_0, # of connection points: 2
#     Edge 44, Type (0, 0), BuildingBlock: AJUNOK_clean_linker_0, # of connection points: 2
#     Edge 45, Type (0, 0), BuildingBlock: AJUNOK_clean_linker_0, # of connection points: 2
#     Edge 46, Type (0, 0), BuildingBlock: AJUNOK_clean_linker_0, # of connection points: 2
#     Edge 47, Type (0, 0), BuildingBlock: AJUNOK_clean_linker_0, # of connection points: 2
#     Edge 48, Type (0, 0), BuildingBlock: AJUNOK_clean_linker_0, # of connection points: 2
#     Edge 49, Type (0, 0), BuildingBlock: AJUNOK_clean_linker_0, # of connection points: 2
#     Edge 50, Type (0, 0), BuildingBlock: AJUNOK_clean_linker_0, # of connection points: 2
#     Edge 51, Type (0, 0), BuildingBlock: AJUNOK_clean_linker_0, # of connection points: 2
#     Edge 52, Type (0, 0), BuildingBlock: AJUNOK_clean_linker_0, # of connection points: 2
#     Edge 53, Type (0, 0), BuildingBlock: AJUNOK_clean_linker_0, # of connection points: 2
#     Edge 54, Type (0, 0), BuildingBlock: AJUNOK_clean_linker_0, # of connection points: 2
#     Edge 55, Type (0, 0), BuildingBlock: AJUNOK_clean_linker_0, # of connection points: 2
#     Edge 56, Type (0, 0), BuildingBlock: AJUNOK_clean_linker_0, # of connection points: 2
#     Edge 57, Type (0, 0), BuildingBlock: AJUNOK_clean_linker_0, # of connection points: 2
#     Edge 58, Type (0, 0), BuildingBlock: AJUNOK_clean_linker_0, # of connection points: 2
#     Edge 59, Type (0, 0), BuildingBlock: AJUNOK_clean_linker_0, # of connection points: 2
#     Edge 60, Type (0, 0), BuildingBlock: AJUNOK_clean_linker_0, # of connection points: 2
#     Edge 61, Type (0, 0), BuildingBlock: AJUNOK_clean_linker_0, # of connection points: 2
#     Edge 62, Type (0, 0), BuildingBlock: AJUNOK_clean_linker_0, # of connection points: 2
#     Edge 63, Type (0, 0), BuildingBlock: AJUNOK_clean_linker_0, # of connection points: 2
# Relax obj value: 0.076
# Max RMSD: 0.162
# Mean RMSD: 0.162
data_MOF--net-wiv--node1-CUKXOW_clean_sbu_0--edge1-AJUNOK_clean_linker_0
_symmetry_space_group_name_H-M    P1
_symmetry_Int_Tables_number       1
_symmetry_cell_setting            triclinic
loop_
_symmetry_equiv_pos_as_xyz
'x, y, z'
_cell_length_a     49.404471
_cell_length_b     49.385586
_cell_length_c     10.341034
_cell_angle_alpha  90.027352
_cell_angle_beta   90.100245
_cell_angle_gamma 89.780093
loop_
_atom_site_label
_atom_site_type_symbol
_atom_site_fract_x
_atom_site_fract_y
_atom_site_fract_z
_atom_type_partial_charge
Tb0 Tb 0.41254 0.133 0.19763 0.0
C1 C 0.38411 0.1904 0.17552 0.0
Tb2 Tb 0.34773 0.13764 0.16012 0.0
O3 O 0.42226 0.13213 0.98817 0.0
O4 O 0.38357 0.13642 1.05081 0.0
O5 O 0.40528 0.17631 0.21914 0.0
C6 C 0.29979 0.13764 1.0422 0.0
O7 O 0.36142 0.17913 0.13128 0.0
C8 C 0.3626 0.13572 0.40815 0.0
C9 C 0.37513 0.08056 0.21 0.0
O10 O 0.30692 0.15422 0.13381 0.0
O11 O 0.31969 0.1212 1.01744 0.0
O12 O 0.33757 0.13814 0.36965 0.0
O13 O 0.37667 0.13452 0.30704 0.0
O14 O 0.35405 0.09401 0.1618 0.0
O15 O 0.3982 0.09243 0.24484 0.0
C16 C 0.46311 0.12879 0.28557 0.0
O17 O 0.45029 0.11042 0.22015 0.0
O18 O 0.44721 0.14952 0.30365 0.0
C19 C 0.39737 0.13456 0.94947 0.0
Tb20 Tb 0.13295 0.6452 0.95416 0.0
C21 C 0.07809 0.61533 0.90881 0.0
Tb22 Tb 0.13338 0.58222 0.91842 0.0
O23 O 0.1351 0.65649 0.74657 0.0
O24 O 0.1364 0.61708 0.80492 0.0
O25 O 0.08999 0.63632 0.96525 0.0
C26 C 0.12757 0.53114 0.84018 0.0
O27 O 0.09187 0.59375 0.8681 0.0
C28 C 0.13747 0.59995 0.15963 0.0
C29 C 0.18869 0.61287 0.93461 0.0
O30 O 0.11457 0.54241 0.93511 0.0
O31 O 0.14381 0.54872 0.7888 0.0
O32 O 0.14726 0.57705 0.1189 0.0
O33 O 0.12401 0.61046 0.06852 0.0
O34 O 0.17614 0.59075 0.89334 0.0
O35 O 0.17562 0.6347 0.97683 0.0
C36 C 0.13523 0.69391 0.06384 0.0
O37 O 0.15102 0.67361 0.0911 0.0
O38 O 0.11803 0.68668 0.97531 0.0
C39 C 0.1365 0.63165 0.70546 0.0
Tb40 Tb 0.5816 0.86453 0.19324 0.0
C41 C 0.61188 0.80822 0.165 0.0
Tb42 Tb 0.64646 0.86215 0.15656 0.0
O43 O 0.57171 0.86422 0.9828 0.0
O44 O 0.61063 0.8625 1.04655 0.0
O45 O 0.59013 0.82119 0.21039 0.0
C46 C 0.69527 0.86301 1.04861 0.0
O47 O 0.63366 0.82077 0.11933 0.0
C48 C 0.63152 0.86234 0.40425 0.0
C49 C 0.61749 0.91827 0.20234 0.0
O50 O 0.68674 0.84462 0.12853 0.0
O51 O 0.67619 0.8807 1.02887 0.0
O52 O 0.65655 0.86085 0.36569 0.0
O53 O 0.61746 0.86407 0.30325 0.0
O54 O 0.63881 0.90543 0.15366 0.0
O55 O 0.59498 0.90566 0.23944 0.0
C56 C 0.5316 0.86907 0.28733 0.0
O57 O 0.54349 0.88645 0.21267 0.0
O58 O 0.54801 0.84892 0.30994 0.0
C59 C 0.59673 0.86279 0.94484 0.0
Tb60 Tb 0.86184 0.34811 0.95656 0.0
C61 C 0.91732 0.37816 0.92259 0.0
Tb62 Tb 0.86396 0.413 0.92285 0.0
O63 O 0.85909 0.3384 0.7471 0.0
O64 O 0.86237 0.3774 0.81112 0.0
O65 O 0.90466 0.35793 0.98193 0.0
C66 C 0.86907 0.46375 0.8393 0.0
O67 O 0.90423 0.39908 0.87122 0.0
C68 C 0.86459 0.3977 0.17011 0.0
C69 C 0.80743 0.38275 0.93439 0.0
O70 O 0.8882 0.44908 0.88957 0.0
O71 O 0.84692 0.4496 0.83348 0.0
O72 O 0.86458 0.4227 0.13177 0.0
O73 O 0.86414 0.38363 0.06912 0.0
O74 O 0.82098 0.40481 0.89912 0.0
O75 O 0.8192 0.35956 0.97008 0.0
C76 C 0.8615 0.29857 0.05908 0.0
O77 O 0.84354 0.3173 0.08068 0.0
O78 O 0.8796 0.3078 0.97984 0.0
C79 C 0.86085 0.3635 0.70973 0.0
Tb80 Tb 0.41428 0.36471 0.17362 0.0
C81 C 0.38536 0.30826 0.19612 0.0
Tb82 Tb 0.34952 0.36181 0.20932 0.0
O83 O 0.42399 0.36541 0.38323 0.0
O84 O 0.38514 0.36324 0.32014 0.0
O85 O 0.40648 0.32172 0.14937 0.0
C86 C 0.30138 0.36187 0.32484 0.0
O87 O 0.3632 0.32027 0.24266 0.0
C88 C 0.36428 0.36245 0.9615 0.0
C89 C 0.37803 0.41795 0.16027 0.0
O90 O 0.31127 0.34195 0.25745 0.0
O91 O 0.31863 0.38162 0.32728 0.0
O92 O 0.33919 0.361 0.99985 0.0
O93 O 0.37846 0.36324 0.06251 0.0
O94 O 0.35689 0.40532 0.2116 0.0
O95 O 0.40028 0.40511 0.12164 0.0
C96 C 0.46483 0.37045 0.08913 0.0
O97 O 0.45037 0.38909 0.14449 0.0
O98 O 0.45064 0.34838 0.07938 0.0
C99 C 0.39902 0.36432 0.42145 0.0
Tb100 Tb 0.36027 0.6478 0.91441 0.0
C101 C 0.41627 0.6191 0.96335 0.0
Tb102 Tb 0.36282 0.58295 0.95088 0.0
O103 O 0.36007 0.65795 0.12413 0.0
O104 O 0.36178 0.61874 0.06125 0.0
O105 O 0.4036 0.64044 0.9133 0.0
C106 C 0.36813 0.53237 1.0369 0.0
O107 O 0.40364 0.59662 1.00046 0.0
C108 C 0.36222 0.59811 0.70293 0.0
C109 C 0.3066 0.61304 0.92705 0.0
O110 O 0.38675 0.54638 0.97978 0.0
O111 O 0.34629 0.54704 1.04765 0.0
O112 O 0.36337 0.57313 0.74142 0.0
O113 O 0.36115 0.61203 0.80417 0.0
O114 O 0.3197 0.59147 0.97326 0.0
O115 O 0.31894 0.63471 0.87898 0.0
C116 C 0.35882 0.69622 0.80236 0.0
O117 O 0.34199 0.68779 0.88981 0.0
O118 O 0.37653 0.67736 0.77834 0.0
C119 C 0.36124 0.63285 0.16241 0.0
Tb120 Tb 0.58173 0.63447 0.16328 0.0
C121 C 0.61212 0.69017 0.17737 0.0
Tb122 Tb 0.6447 0.63475 0.19859 0.0
O123 O 0.57649 0.64856 0.36314 0.0
O124 O 0.61015 0.62556 0.31356 0.0
O125 O 0.59007 0.67734 0.13695 0.0
C126 C 0.69393 0.63443 0.30378 0.0
O127 O 0.63409 0.67741 0.22058 0.0
C128 C 0.63102 0.63797 0.94996 0.0
C129 C 0.61514 0.57955 0.15581 0.0
O130 O 0.67451 0.65104 0.33482 0.0
O131 O 0.68555 0.6182 0.21364 0.0
O132 O 0.65588 0.63719 0.99105 0.0
O133 O 0.61645 0.63739 1.04924 0.0
O134 O 0.6358 0.59188 0.21247 0.0
O135 O 0.59337 0.59289 0.11396 0.0
C136 C 0.53067 0.62828 0.08567 0.0
O137 O 0.54192 0.6158 0.18242 0.0
O138 O 0.54826 0.64422 1.03227 0.0
C139 C 0.59948 0.639 0.40413 0.0
Tb140 Tb 0.63431 0.35137 0.916 0.0
C141 C 0.57883 0.38071 0.96192 0.0
Tb142 Tb 0.63326 0.4144 0.95142 0.0
O143 O 0.63711 0.34022 0.12367 0.0
O144 O 0.63707 0.37963 0.06502 0.0
O145 O 0.59114 0.35987 0.90569 0.0
C146 C 0.62615 0.46532 1.03056 0.0
O147 O 0.59212 0.4025 1.00213 0.0
C148 C 0.63767 0.39674 0.71042 0.0
C149 C 0.68934 0.38446 0.93325 0.0
O150 O 0.61375 0.45404 0.93384 0.0
O151 O 0.64262 0.44787 0.08265 0.0
O152 O 0.64692 0.4198 0.75119 0.0
O153 O 0.62449 0.38598 0.8014 0.0
O154 O 0.67617 0.40621 0.97577 0.0
O155 O 0.67689 0.36215 0.89266 0.0
C156 C 0.63453 0.30216 0.81064 0.0
O157 O 0.6507 0.32176 0.77877 0.0
O158 O 0.61843 0.31036 0.90168 0.0
C159 C 0.6377 0.3651 0.16458 0.0
Tb160 Tb 0.91383 0.63149 0.6894 0.0
C161 C 0.88357 0.68748 0.65777 0.0
Tb162 Tb 0.84893 0.63335 0.65283 0.0
O163 O 0.9236 0.63152 0.47916 0.0
O164 O 0.88466 0.63231 0.5426 0.0
O165 O 0.90528 0.67476 0.70539 0.0
C166 C 0.79992 0.63251 0.54578 0.0
O167 O 0.86182 0.67465 0.61289 0.0
C168 C 0.86397 0.63417 0.90027 0.0
C169 C 0.87814 0.57777 0.70751 0.0
O170 O 0.8085 0.65072 0.62669 0.0
O171 O 0.81908 0.61498 0.52442 0.0
O172 O 0.8389 0.63508 0.86159 0.0
O173 O 0.87808 0.63261 0.79957 0.0
O174 O 0.85657 0.58999 0.65713 0.0
O175 O 0.90046 0.59089 0.74243 0.0
C176 C 0.96381 0.62509 0.78146 0.0
O177 O 0.95068 0.60771 0.71161 0.0
O178 O 0.94874 0.64646 0.79971 0.0
C179 C 0.89854 0.63232 0.44108 0.0
Tb180 Tb 0.63419 0.14765 0.4576 0.0
C181 C 0.5777 0.11967 0.41004 0.0
Tb182 Tb 0.63106 0.0828 0.42041 0.0
O183 O 0.63593 0.15765 0.24865 0.0
O184 O 0.6315 0.1187 0.31086 0.0
O185 O 0.59079 0.14088 0.4579 0.0
C186 C 0.62609 0.03276 0.3276 0.0
O187 O 0.59002 0.09677 0.37472 0.0
C188 C 0.63332 0.09794 0.66888 0.0
C189 C 0.68775 0.112 0.44748 0.0
O190 O 0.6094 0.04457 0.40653 0.0
O191 O 0.64573 0.04928 0.29993 0.0
O192 O 0.63154 0.07295 0.63071 0.0
O193 O 0.63366 0.11183 0.56728 0.0
O194 O 0.67447 0.09042 0.40308 0.0
O195 O 0.67553 0.13412 0.49306 0.0
C196 C 0.63335 0.19645 0.56648 0.0
O197 O 0.65128 0.1881 0.48354 0.0
O198 O 0.61614 0.1772 0.58868 0.0
C199 C 0.63387 0.13265 0.20994 0.0
Tb200 Tb 0.0815 0.36397 0.70573 0.0
C201 C 0.11023 0.3072 0.67174 0.0
Tb202 Tb 0.14628 0.36022 0.66978 0.0
O203 O 0.07167 0.36471 0.49531 0.0
O204 O 0.1106 0.36244 0.5589 0.0
O205 O 0.08911 0.32062 0.72026 0.0
C206 C 0.19571 0.36119 0.56723 0.0
O207 O 0.1326 0.31918 0.62866 0.0
C208 C 0.13131 0.35984 0.91725 0.0
C209 C 0.118 0.41664 0.71845 0.0
O210 O 0.18485 0.3404 0.62378 0.0
O211 O 0.17851 0.38112 0.56621 0.0
O212 O 0.15631 0.35806 0.8787 0.0
O213 O 0.11726 0.36181 0.81646 0.0
O214 O 0.13868 0.40364 0.6645 0.0
O215 O 0.09571 0.40423 0.75868 0.0
C216 C 0.03171 0.36944 0.8011 0.0
O217 O 0.0447 0.38751 0.73487 0.0
O218 O 0.04683 0.34795 0.81386 0.0
C219 C 0.09668 0.36312 0.45734 0.0
Tb220 Tb 0.36099 0.8499 0.44223 0.0
C221 C 0.41706 0.87882 0.40897 0.0
Tb222 Tb 0.36421 0.91465 0.40811 0.0
O223 O 0.35893 0.83992 0.23296 0.0
O224 O 0.36226 0.87904 0.2963 0.0
O225 O 0.40378 0.85918 0.46951 0.0
C226 C 0.36727 0.96566 0.32618 0.0
O227 O 0.4046 0.90031 0.35852 0.0
C228 C 0.36422 0.89938 0.65555 0.0
C229 C 0.30717 0.88508 0.41557 0.0
O230 O 0.38711 0.95174 0.37543 0.0
O231 O 0.34583 0.95055 0.31962 0.0
O232 O 0.36488 0.92434 0.61709 0.0
O233 O 0.36347 0.88537 0.55453 0.0
O234 O 0.32111 0.90703 0.38246 0.0
O235 O 0.31855 0.8618 0.452 0.0
C236 C 0.35875 0.80123 0.55213 0.0
O237 O 0.37782 0.80948 0.47556 0.0
O238 O 0.34088 0.82033 0.56579 0.0
C239 C 0.36092 0.86499 0.19519 0.0
Tb240 Tb 0.91487 0.86148 0.66608 0.0
C241 C 0.88331 0.80553 0.67006 0.0
Tb242 Tb 0.85002 0.86037 0.69988 0.0
O243 O 0.9246 0.8615 0.87513 0.0
O244 O 0.88558 0.86181 0.81236 0.0
O245 O 0.9058 0.81864 0.63671 0.0
C246 C 0.80076 0.86114 0.80395 0.0
O247 O 0.86075 0.81769 0.71066 0.0
C248 C 0.86522 0.85972 0.45286 0.0
C249 C 0.88051 0.91537 0.66868 0.0
O250 O 0.81876 0.84224 0.82166 0.0
O251 O 0.81052 0.87944 0.72725 0.0
O252 O 0.84012 0.85841 0.49037 0.0
O253 O 0.87922 0.86077 0.55417 0.0
O254 O 0.86048 0.90273 0.72888 0.0
O255 O 0.90143 0.90227 0.61716 0.0
C256 C 0.96569 0.8668 0.58404 0.0
O257 O 0.95055 0.88606 0.62952 0.0
O258 O 0.95198 0.84436 0.58194 0.0
C259 C 0.89962 0.86186 0.91342 0.0
Tb260 Tb 0.86022 0.14437 0.41638 0.0
C261 C 0.91569 0.11474 0.47015 0.0
Tb262 Tb 0.8616 0.07944 0.45297 0.0
O263 O 0.85995 0.15457 0.62601 0.0
O264 O 0.86122 0.1153 0.56311 0.0
O265 O 0.90357 0.13646 0.42037 0.0
C266 C 0.86794 0.02909 0.54042 0.0
O267 O 0.90248 0.09241 0.5036 0.0
C268 C 0.86122 0.09466 0.20506 0.0
C269 C 0.8058 0.11032 0.43167 0.0
O270 O 0.88606 0.04319 0.48029 0.0
O271 O 0.8459 0.04346 0.55242 0.0
O272 O 0.86177 0.06965 0.24338 0.0
O273 O 0.86054 0.10858 0.30643 0.0
O274 O 0.81863 0.08844 0.47653 0.0
O275 O 0.81844 0.13192 0.38409 0.0
C276 C 0.86066 0.19239 0.29947 0.0
O277 O 0.84376 0.18518 0.38929 0.0
O278 O 0.87727 0.17254 0.27607 0.0
C279 C 0.86079 0.12943 0.66429 0.0
Tb280 Tb 0.08142 0.13308 0.6613 0.0
C281 C 0.11034 0.18932 0.67313 0.0
Tb282 Tb 0.14439 0.13465 0.69546 0.0
O283 O 0.07603 0.14716 0.86089 0.0
O284 O 0.11012 0.12481 0.81125 0.0
O285 O 0.08882 0.17584 0.6317 0.0
C286 C 0.19372 0.13606 0.80006 0.0
O287 O 0.13282 0.17724 0.7152 0.0
C288 C 0.13056 0.13759 0.44724 0.0
C289 C 0.11576 0.0789 0.65134 0.0
O290 O 0.17358 0.15162 0.833 0.0
O291 O 0.18595 0.1198 0.70876 0.0
O292 O 0.15544 0.13737 0.48812 0.0
O293 O 0.11599 0.13666 0.54644 0.0
O294 O 0.13651 0.09138 0.70702 0.0
O295 O 0.09395 0.09211 0.60972 0.0
C296 C 0.03036 0.12475 0.58837 0.0
O297 O 0.04297 0.11185 0.67982 0.0
O298 O 0.04655 0.1425 0.53775 0.0
C299 C 0.09921 0.1381 0.90169 0.0
Tb300 Tb 0.13612 0.84981 0.40246 0.0
C301 C 0.07966 0.8776 0.45569 0.0
Tb302 Tb 0.13235 0.91463 0.43823 0.0
O303 O 0.13802 0.83987 0.61132 0.0
O304 O 0.13439 0.87895 0.54888 0.0
O305 O 0.09252 0.85628 0.40635 0.0
C306 C 0.12583 0.96446 0.53137 0.0
O307 O 0.09212 0.9003 0.49052 0.0
C308 C 0.13361 0.8994 0.19011 0.0
C309 C 0.1892 0.88605 0.40753 0.0
O310 O 0.10814 0.95109 0.46436 0.0
O311 O 0.14752 0.94971 0.54626 0.0
O312 O 0.13185 0.92442 0.22807 0.0
O313 O 0.13421 0.88549 0.29161 0.0
O314 O 0.17571 0.90726 0.45485 0.0
O315 O 0.17728 0.86359 0.36454 0.0
C316 C 0.13676 0.80051 0.29858 0.0
O317 O 0.1546 0.80984 0.37942 0.0
O318 O 0.11875 0.81912 0.27497 0.0
C319 C 0.13637 0.86491 0.64972 0.0
C320 C 0.39311 0.00858 0.30801 0.0
C321 C 0.36886 0.99442 0.28862 0.0
C322 C 0.39497 0.03624 0.28041 0.0
C323 C 0.37263 0.05092 0.23196 0.0
H324 H 0.41077 0.99833 0.34671 0.0
H325 H 0.4141 0.04617 0.29881 0.0
S326 S 0.30464 0.02257 0.15889 0.0
N327 N 0.32222 0.99656 0.21442 0.0
N328 N 0.32551 0.04858 0.16182 0.0
C329 C 0.34832 0.03673 0.20935 0.0
C330 C 0.34649 0.00849 0.23787 0.0
C331 C 0.0067 0.64364 0.87378 0.0
C332 C 0.99217 0.62159 0.82407 0.0
C333 C 0.0343 0.64123 0.90401 0.0
C334 C 0.0484 0.61662 0.88585 0.0
H335 H 0.9969 0.66313 0.88619 0.0
H336 H 0.04474 0.65905 0.93883 0.0
S337 S 0.01849 0.55197 0.77093 0.0
N338 N 0.99317 0.57384 0.7668 0.0
N339 N 0.04486 0.56914 0.82403 0.0
C340 C 0.03369 0.5941 0.841 0.0
C341 C 0.00563 0.59662 0.81005 0.0
C342 C 0.59959 0.96124 0.29864 0.0
C343 C 0.61947 0.94796 0.22433 0.0
C344 C 0.6017 0.98879 0.32868 0.0
C345 C 0.62372 0.00427 0.28552 0.0
H346 H 0.58245 0.95022 0.33674 0.0
H347 H 0.58612 0.99789 0.38835 0.0
S348 S 0.68033 0.98013 0.08013 0.0
N349 N 0.66133 0.9531 0.10208 0.0
N350 N 0.66515 0.0049 0.15949 0.0
C351 C 0.64335 0.99164 0.20795 0.0
C352 C 0.64127 0.9635 0.1772 0.0
C353 C 0.96102 0.35194 0.91696 0.0
C354 C 0.94713 0.37679 0.90502 0.0
C355 C 0.9887 0.3498 0.88742 0.0
C356 C 0.00341 0.37242 0.84495 0.0
H357 H 0.9503 0.33378 0.94505 0.0
H358 H -0.0016 0.33013 0.89396 0.0
S359 S 0.97758 0.44276 0.813 0.0
N360 N 0.95107 0.42503 0.85927 0.0
N361 N 0.00278 0.42084 0.80315 0.0
C362 C 0.99013 0.39758 0.83845 0.0
C363 C 0.96207 0.39981 0.86864 0.0
C364 C 0.35119 0.46119 0.14746 0.0
C365 C 0.37627 0.44762 0.13789 0.0
C366 C 0.34877 0.48884 0.1179 0.0
C367 C 0.3713 0.50389 0.07768 0.0
H368 H 0.33311 0.4503 0.17498 0.0
H369 H 0.32899 0.4983 0.12367 0.0
S370 S 0.44201 0.47897 1.04927 0.0
N371 N 0.42454 0.4522 0.09435 0.0
N372 N 0.4198 0.50389 1.03841 0.0
C373 C 0.39664 0.49092 0.07224 0.0
C374 C 0.39917 0.46286 0.1024 0.0
C375 C 0.48563 0.60641 0.10973 0.0
C376 C 0.50202 0.62556 1.04733 0.0
C377 C 0.45808 0.60409 0.07982 0.0
C378 C 0.4458 0.62103 0.98708 0.0
H379 H 0.49407 0.59324 0.18337 0.0
H380 H 0.44625 0.5893 0.1322 0.0
S381 S 0.48035 0.67362 0.79143 0.0
N382 N 0.50441 0.66106 0.88507 0.0
N383 N 0.45258 0.6569 0.82893 0.0
C384 C 0.46214 0.63997 0.92216 0.0
C385 C 0.49027 0.64217 0.95215 0.0
C386 C 0.60015 0.53754 1.04113 0.0
C387 C 0.61705 0.54992 0.13343 0.0
C388 C 0.60301 0.51006 1.01004 0.0
C389 C 0.62272 0.49383 0.07066 0.0
H390 H 0.58503 0.54929 0.98967 0.0
H391 H 0.58987 0.50157 0.93658 0.0
S392 S 0.67084 0.51566 0.32558 0.0
N393 N 0.65339 0.54325 0.29008 0.0
N394 N 0.65859 0.49162 0.23145 0.0
C395 C 0.6392 0.50562 0.16591 0.0
C396 C 0.63642 0.53366 0.19727 0.0
C397 C 0.50843 0.35138 1.00686 0.0
C398 C 0.49322 0.37385 1.04798 0.0
C399 C 0.53593 0.35393 0.97598 0.0
C400 C 0.54924 0.37906 0.98516 0.0
H401 H 0.4992 0.33155 1.00122 0.0
H402 H 0.54695 0.33586 0.94791 0.0
S403 S 0.51743 0.44468 0.07575 0.0
N404 N 0.49276 0.42238 0.08767 0.0
N405 N 0.5443 0.42729 1.02941 0.0
C406 C 0.53388 0.4019 1.02169 0.0
C407 C 0.50591 0.39926 1.0531 0.0
C408 C 0.84928 0.50736 0.7609 0.0
C409 C 0.87208 0.49221 0.79846 0.0
C410 C 0.85151 0.53486 0.72904 0.0
C411 C 0.87665 0.54823 0.73361 0.0
H412 H 0.82946 0.49806 0.75841 0.0
H413 H 0.83322 0.54578 0.70336 0.0
S414 S 0.94294 0.51664 0.81532 0.0
N415 N 0.92081 0.49192 0.83116 0.0
N416 N 0.92518 0.54343 0.77083 0.0
C417 C 0.89977 0.53295 0.76719 0.0
C418 C 0.89744 0.50499 0.79968 0.0
C419 C 0.53408 0.10094 0.32534 0.0
C420 C 0.54802 0.12212 0.38753 0.0
C421 C 0.50651 0.10316 0.29546 0.0
C422 C 0.49169 0.1266 0.32647 0.0
H423 H 0.54456 0.08257 0.29712 0.0
H424 H 0.49687 0.08647 0.24563 0.0
S425 S 0.51766 0.18732 0.49639 0.0
N426 N 0.54417 0.16703 0.48461 0.0
N427 N 0.49236 0.17098 0.42757 0.0
C428 C 0.50497 0.14766 0.39165 0.0
C429 C 0.53312 0.14547 0.42235 0.0
C430 C 0.10463 0.48656 0.85749 0.0
C431 C 0.12499 0.50248 0.80173 0.0
C432 C 0.10226 0.45901 0.82783 0.0
C433 C 0.12034 0.4462 0.74195 0.0
H434 H 0.09047 0.49537 0.9256 0.0
H435 H 0.08639 0.44763 0.87494 0.0
S436 S 0.17678 0.47943 0.56642 0.0
N437 N 0.16313 0.5039 0.65377 0.0
N438 N 0.15892 0.45205 0.59812 0.0
C439 C 0.14061 0.46209 0.68381 0.0
C440 C 0.14286 0.49025 0.71355 0.0
C441 C 0.48839 0.89486 0.29774 0.0
C442 C 0.50316 0.87146 0.33012 0.0
C443 C 0.46086 0.89724 0.32708 0.0
C444 C 0.44682 0.87627 0.38999 0.0
H445 H 0.49804 0.91139 0.24697 0.0
H446 H 0.45048 0.91559 0.29762 0.0
S447 S 0.47685 0.81119 0.50188 0.0
N448 N 0.50229 0.82731 0.43336 0.0
N449 N 0.45041 0.83157 0.48883 0.0
C450 C 0.46162 0.85299 0.4266 0.0
C451 C 0.4898 0.85064 0.39659 0.0
C452 C 0.85299 0.95808 0.65901 0.0
C453 C 0.87833 0.94504 0.64864 0.0
C454 C 0.84986 0.98554 0.62731 0.0
C455 C 0.87193 0.00091 0.58424 0.0
H456 H 0.8352 0.94684 0.68766 0.0
H457 H 0.82987 0.99456 0.63313 0.0
S458 S 0.94317 0.97751 0.55608 0.0
N459 N 0.92637 0.95046 0.60344 0.0
N460 N 0.9204 0.00191 0.54392 0.0
C461 C 0.89758 0.98853 0.57926 0.0
C462 C 0.9008 0.96062 0.61139 0.0
C463 C 0.98824 0.1403 0.47715 0.0
C464 C 0.00167 0.12089 0.55322 0.0
C465 C 0.96055 0.13798 0.44956 0.0
C466 C 0.94528 0.11599 0.49606 0.0
H467 H -0.00095 0.15776 0.44083 0.0
H468 H 0.95107 0.15371 0.39206 0.0
S469 S 0.9718 0.05866 0.69305 0.0
N470 N -0.00175 0.07837 0.67 0.0
N471 N 0.94636 0.0737 0.61807 0.0
C472 C 0.95881 0.09599 0.56946 0.0
C473 C 0.98696 0.09853 0.59812 0.0
C474 C 0.14483 0.0079 0.61491 0.0
C475 C 0.1224 0.99283 0.57328 0.0
C476 C 0.14237 0.03559 0.64319 0.0
C477 C 0.11735 0.04918 0.631 0.0
H478 H 0.16461 -0.00154 0.62207 0.0
H479 H 0.16042 0.04651 0.67137 0.0
S480 S 0.05176 0.01775 0.53999 0.0
N481 N 0.07397 0.99278 0.53113 0.0
N482 N 0.06918 0.04461 0.58499 0.0
C483 C 0.09451 0.03393 0.59479 0.0
C484 C 0.09707 0.0058 0.56579 0.0
C485 C 0.03745 0.84999 0.48091 0.0
C486 C 0.05014 0.8755 0.48042 0.0
C487 C 0.00995 0.84734 0.51204 0.0
C488 C 0.99415 0.87009 0.54372 0.0
H489 H 0.04892 0.83178 0.46 0.0
H490 H 0.00117 0.82728 0.5137 0.0
S491 S 0.01666 0.9417 0.54485 0.0
N492 N 0.04398 0.92422 0.50585 0.0
N493 N 0.99252 0.9191 0.56483 0.0
C494 C 0.00625 0.89578 0.53958 0.0
C495 C 0.03419 0.89852 0.50786 0.0
C496 C 0.36117 0.23553 0.1827 0.0
C497 C 0.38535 0.2204 0.17966 0.0
C498 C 0.36147 0.26383 0.18998 0.0
C499 C 0.38597 0.27826 0.1927 0.0
H500 H 0.34173 0.22546 0.18105 0.0
H501 H 0.34226 0.27447 0.19167 0.0
S502 S 0.45503 0.24834 0.18639 0.0
N503 N 0.43459 0.222 0.1801 0.0
N504 N 0.43515 0.27526 0.1925 0.0
C505 C 0.41036 0.26344 0.18919 0.0
C506 C 0.41005 0.23452 0.18323 0.0
C507 C 0.262 0.58895 0.92698 0.0
C508 C 0.27662 0.61332 0.92965 0.0
C509 C 0.23358 0.58897 0.92767 0.0
C510 C 0.21873 0.61335 0.93322 0.0
H511 H 0.27255 0.5697 0.92266 0.0
H512 H 0.22323 0.56968 0.92497 0.0
S513 S 0.24751 0.68274 0.94599 0.0
N514 N 0.27414 0.66252 0.94084 0.0
N515 N 0.22097 0.66258 0.94248 0.0
C516 C 0.23317 0.63787 0.93732 0.0
C517 C 0.26203 0.63785 0.93536 0.0
C518 C 0.58796 0.76345 0.17393 0.0
C519 C 0.61226 0.77815 0.16633 0.0
C520 C 0.58803 0.73501 0.17615 0.0
C521 C 0.61243 0.72019 0.17305 0.0
H522 H 0.56868 0.77394 0.1773 0.0
H523 H 0.56881 0.7246 0.18209 0.0
S524 S 0.68169 0.74888 0.15309 0.0
N525 N 0.66149 0.77554 0.15568 0.0
N526 N 0.66154 0.72236 0.16017 0.0
C527 C 0.63687 0.73462 0.16555 0.0
C528 C 0.63681 0.7635 0.16201 0.0
C529 C 0.76232 0.35982 0.92782 0.0
C530 C 0.77738 0.38393 0.93324 0.0
C531 C 0.73395 0.36025 0.92672 0.0
C532 C 0.7194 0.38478 0.93261 0.0
H533 H 0.77247 0.34036 0.92336 0.0
H534 H 0.72339 0.34108 0.92264 0.0
S535 S 0.74914 0.45371 0.94864 0.0
N536 N 0.77554 0.43315 0.94487 0.0
N537 N 0.7223 0.43394 0.94314 0.0
C538 C 0.73419 0.40909 0.93827 0.0
C539 C 0.76312 0.40866 0.93831 0.0
C540 C 0.90739 0.73227 0.67304 0.0
C541 C 0.88326 0.71759 0.65568 0.0
C542 C 0.90737 0.76071 0.67501 0.0
C543 C 0.88317 0.77556 0.66164 0.0
H544 H 0.92651 0.72177 0.6854 0.0
H545 H 0.9264 0.77108 0.68986 0.0
S546 S 0.81454 0.74713 0.60898 0.0
N547 N 0.83448 0.7204 0.62139 0.0
N548 N 0.83456 0.77356 0.62537 0.0
C549 C 0.85895 0.7612 0.64248 0.0
C550 C 0.85897 0.73232 0.63934 0.0
C551 C 0.76075 0.08683 0.43775 0.0
C552 C 0.77576 0.11101 0.43582 0.0
C553 C 0.73231 0.08723 0.44094 0.0
C554 C 0.71781 0.11183 0.44469 0.0
H555 H 0.77101 0.06741 0.43525 0.0
H556 H 0.72164 0.06811 0.44161 0.0
S557 S 0.74757 0.18087 0.44364 0.0
N558 N 0.77391 0.16027 0.43957 0.0
N559 N 0.72078 0.16105 0.44574 0.0
C560 C 0.73263 0.13615 0.44375 0.0
C561 C 0.76149 0.13574 0.4392 0.0
C562 C 0.13375 0.26237 0.66633 0.0
C563 C 0.10938 0.27722 0.66873 0.0
C564 C 0.13381 0.23402 0.66838 0.0
C565 C 0.1095 0.21932 0.67106 0.0
H566 H 0.15306 0.27268 0.66504 0.0
H567 H 0.15314 0.22359 0.66695 0.0
S568 S 0.04007 0.24846 0.67549 0.0
N569 N 0.06019 0.27506 0.67232 0.0
N570 N 0.06027 0.22176 0.67522 0.0
C571 C 0.08492 0.23387 0.67193 0.0
C572 C 0.08487 0.2628 0.67121 0.0
C573 C 0.26224 0.86211 0.40491 0.0
C574 C 0.27715 0.8863 0.41042 0.0
C575 C 0.23392 0.86237 0.40182 0.0
C576 C 0.21922 0.88682 0.40565 0.0
H577 H 0.27247 0.84268 0.40253 0.0
H578 H 0.22352 0.84311 0.39866 0.0
S579 S 0.24845 0.95594 0.41784 0.0
N580 N 0.27501 0.93556 0.41745 0.0
N581 N 0.22173 0.936 0.41242 0.0
C582 C 0.23381 0.91123 0.41027 0.0
C583 C 0.26275 0.91099 0.4122 0.0
C584 C 0.22678 0.15444 0.96024 0.0
C585 C 0.22095 0.13633 0.85911 0.0
C586 C 0.25243 0.15487 1.01856 0.0
C587 C 0.27309 0.13715 0.97789 0.0
H588 H 0.21141 0.16833 0.99501 0.0
H589 H 0.25604 0.16908 0.09648 0.0
S590 S 0.26818 0.08598 0.71609 0.0
N591 N 0.23796 0.10034 0.72019 0.0
N592 N 0.28609 0.10114 0.82971 0.0
C593 C 0.26754 0.11901 0.87659 0.0
C594 C 0.24146 0.11859 0.81721 0.0
C595 C 0.11677 0.7405 0.09232 0.0
C596 C 0.13625 0.72085 0.12503 0.0
C597 C 0.11712 0.76624 0.14919 0.0
C598 C 0.13701 0.77323 0.24049 0.0
H599 H 0.10105 0.73599 1.02247 0.0
H600 H 0.1017 0.78076 0.12115 0.0
S601 S 0.19274 0.72908 0.35837 0.0
N602 N 0.17605 0.71007 0.25408 0.0
N603 N 0.17681 0.75853 0.36061 0.0
C604 C 0.15669 0.75381 0.27376 0.0
C605 C 0.15628 0.72756 0.21612 0.0
C606 C 0.74062 0.84215 1.01109 0.0
C607 C 0.72202 0.8631 0.98566 0.0
C608 C 0.76605 0.84161 0.95134 0.0
C609 C 0.77373 0.86201 0.8642 0.0
H610 H 0.7355 0.826 0.07747 0.0
H611 H 0.7798 0.82513 0.97391 0.0
S612 S 0.73225 0.92123 0.76415 0.0
N613 N 0.7129 0.90466 0.86701 0.0
N614 N 0.76069 0.90369 0.75485 0.0
C615 C 0.7553 0.88306 0.83775 0.0
C616 C 0.72942 0.88359 0.8985 0.0
C617 C 0.84242 0.26477 0.21285 0.0
C618 C 0.8615 0.27126 0.11716 0.0
C619 C 0.84222 0.23913 0.27101 0.0
C620 C 0.86106 0.21908 0.23522 0.0
H621 H 0.82762 0.27965 0.24386 0.0
H622 H 0.82726 0.23505 0.34488 0.0
S623 S 0.9147 0.22565 0.9866 0.0
N624 N 0.89941 0.25543 0.98741 0.0
N625 N 0.89896 0.20723 0.09616 0.0
C626 C 0.88007 0.22522 0.1387 0.0
C627 C 0.88032 0.25134 0.0798 0.0
C628 C 0.26146 0.33766 0.41543 0.0
C629 C 0.27467 0.36215 0.38811 0.0
C630 C 0.23609 0.33748 0.47607 0.0
C631 C 0.22284 0.3618 0.50827 0.0
H632 H 0.27088 0.3185 0.39084 0.0
H633 H 0.22657 0.31819 0.49564 0.0
S634 S 0.24882 0.4313 0.45637 0.0
N635 N 0.27284 0.41131 0.39906 0.0
N636 N 0.22479 0.41098 0.50911 0.0
C637 C 0.23579 0.38641 0.48092 0.0
C638 C 0.26183 0.38658 0.42181 0.0
C639 C 0.37769 0.72959 0.64653 0.0
C640 C 0.35809 0.72302 0.73964 0.0
C641 C 0.37768 0.75496 0.58604 0.0
C642 C 0.358 0.77458 0.6162 0.0
H643 H 0.39323 0.71507 0.62031 0.0
H644 H 0.39322 0.75919 0.51516 0.0
S645 S 0.3023 0.76745 0.85388 0.0
N646 N 0.31851 0.73817 0.85957 0.0
N647 N 0.31846 0.78586 0.7456 0.0
C648 C 0.33823 0.76827 0.70889 0.0
C649 C 0.33828 0.74245 0.77074 0.0
C650 C 0.72816 0.65281 0.45799 0.0
C651 C 0.721 0.63352 0.3641 0.0
C652 C 0.75377 0.65231 0.51663 0.0
C653 C 0.773 0.6324 0.48383 0.0
H654 H 0.71392 0.66846 0.48623 0.0
H655 H 0.75851 0.66763 0.58809 0.0
S656 S 0.7641 0.57714 0.24455 0.0
N657 N 0.73511 0.59386 0.24152 0.0
N658 N 0.78314 0.59288 0.35198 0.0
C659 C 0.76604 0.61293 0.39055 0.0
C660 C 0.74004 0.6135 0.33058 0.0
C661 C 0.65255 0.24273 0.59511 0.0
C662 C 0.63313 0.22327 0.62923 0.0
C663 C 0.65287 0.26828 0.6543 0.0
C664 C 0.63388 0.27513 0.75006 0.0
H665 H 0.66761 0.23823 0.52211 0.0
H666 H 0.66812 0.28271 0.62492 0.0
S667 S 0.57882 0.23132 0.8737 0.0
N668 N 0.59438 0.21257 0.76435 0.0
N669 N 0.59505 0.26047 0.87598 0.0
C670 C 0.61435 0.25584 0.785 0.0
C671 C 0.61397 0.22991 0.72443 0.0
C672 C 0.35412 0.14319 0.64515 0.0
C673 C 0.37185 0.13502 0.54538 0.0
C674 C 0.3622 0.14284 0.77601 0.0
C675 C 0.38824 0.13408 0.81214 0.0
H676 H 0.3339 0.15022 0.6219 0.0
H677 H 0.34816 0.14995 0.84879 0.0
S678 S 0.4415 0.10841 0.59004 0.0
N679 N 0.41605 0.11651 0.49367 0.0
N680 N 0.43126 0.1158 0.73773 0.0
C681 C 0.40593 0.1254 0.71352 0.0
C682 C 0.39774 0.12586 0.58072 0.0
C683 C 0.14816 0.59902 0.52617 0.0
C684 C 0.13565 0.62312 0.56745 0.0
C685 C 0.14885 0.59188 0.39411 0.0
C686 C 0.13658 0.60828 0.2985 0.0
H687 H 0.15809 0.58595 0.59581 0.0
H688 H 0.1591 0.57332 0.36685 0.0
S689 S 0.09917 0.67235 0.35857 0.0
N690 N 0.10992 0.66293 0.50301 0.0
N691 N 0.11 0.64885 0.25729 0.0
C692 C 0.1233 0.632 0.33958 0.0
C693 C 0.12316 0.63957 0.47329 0.0
C694 C 0.59649 0.87051 0.57736 0.0
C695 C 0.62237 0.86135 0.54124 0.0
C696 C 0.58847 0.87085 0.70817 0.0
C697 C 0.606 0.86205 0.80775 0.0
H698 H 0.58252 0.87791 0.50451 0.0
H699 H 0.56845 0.87837 0.73159 0.0
S700 S 0.67445 0.83263 0.76166 0.0
N701 N 0.66465 0.84122 0.61459 0.0
N702 N 0.64933 0.84136 0.85844 0.0
C703 C 0.63153 0.852 0.77207 0.0
C704 C 0.63975 0.85178 0.63938 0.0
C705 C 0.85742 0.36229 0.34195 0.0
C706 C 0.86429 0.38885 0.30724 0.0
C707 C 0.85615 0.3544 0.47252 0.0
C708 C 0.86177 0.37281 0.57326 0.0
H709 H 0.85268 0.3476 0.26819 0.0
H710 H 0.85064 0.33371 0.4946 0.0
S711 S 0.88332 0.4441 0.53264 0.0
N712 N 0.87829 0.43318 0.38385 0.0
N713 N 0.8762 0.41829 0.62796 0.0
C714 C 0.86922 0.39926 0.53949 0.0
C715 C 0.87042 0.40729 0.40687 0.0
C716 C 0.36344 0.35724 0.59298 0.0
C717 C 0.3899 0.36465 0.55837 0.0
C718 C 0.35538 0.35662 0.72369 0.0
C719 C 0.37348 0.3633 0.82448 0.0
H720 H 0.34901 0.35153 0.519 0.0
H721 H 0.33485 0.35061 0.74597 0.0
S722 S 0.44418 0.38663 0.78327 0.0
N723 N 0.43363 0.38041 0.63483 0.0
N724 N 0.41845 0.37931 0.87856 0.0
C725 C 0.39975 0.37128 0.79042 0.0
C726 C 0.40795 0.37194 0.65791 0.0
C727 C 0.35453 0.64161 0.39957 0.0
C728 C 0.36187 0.62359 0.29945 0.0
C729 C 0.35487 0.63354 0.53033 0.0
C730 C 0.36275 0.60719 0.56582 0.0
H731 H 0.34816 0.66207 0.37668 0.0
H732 H 0.3485 0.64786 0.60356 0.0
S733 S 0.38628 0.5531 0.3428 0.0
N734 N 0.37879 0.57877 0.24679 0.0
N735 N 0.37949 0.56359 0.49076 0.0
C736 C 0.37064 0.58921 0.46691 0.0
C737 C 0.3702 0.59739 0.33425 0.0
C738 C 0.59853 0.64985 0.77038 0.0
C739 C 0.6225 0.63715 0.81202 0.0
C740 C 0.59143 0.65057 0.63826 0.0
C741 C 0.60776 0.63815 0.54304 0.0
H742 H 0.58553 0.65991 0.8398 0.0
H743 H 0.57296 0.66097 0.61063 0.0
S744 S 0.67137 0.6 0.60441 0.0
N745 N 0.66202 0.61092 0.74858 0.0
N746 N 0.64806 0.61111 0.50265 0.0
C747 C 0.63133 0.62465 0.58454 0.0
C748 C 0.63885 0.62446 0.71831 0.0
C749 C 0.64925 0.40485 0.47652 0.0
C750 C 0.637 0.38843 0.57149 0.0
C751 C 0.64881 0.39774 0.34441 0.0
C752 C 0.63655 0.37364 0.30248 0.0
H753 H 0.65933 0.42341 0.50433 0.0
H754 H 0.65874 0.41082 0.27528 0.0
S755 S 0.60001 0.32446 0.50926 0.0
N756 N 0.61058 0.3479 0.61123 0.0
N757 N 0.61093 0.33389 0.3654 0.0
C758 C 0.62402 0.35719 0.39593 0.0
C759 C 0.62393 0.36474 0.52968 0.0
C760 C 0.89898 0.62572 0.07339 0.0
C761 C 0.87308 0.63487 1.03734 0.0
C762 C 0.90693 0.625 0.20434 0.0
C763 C 0.88929 0.63341 0.30401 0.0
H764 H 0.91302 0.61862 1.00039 0.0
H765 H 0.92697 0.6175 0.22778 0.0
S766 S 0.82075 0.66268 0.25824 0.0
N767 N 0.83066 0.65459 0.11084 0.0
N768 N 0.84586 0.65376 0.35506 0.0
C769 C 0.86374 0.64345 0.26844 0.0
C770 C 0.85559 0.64406 0.1356 0.0
C771 C 0.62509 0.08979 0.90527 0.0
C772 C 0.63416 0.10717 0.8061 0.0
C773 C 0.62545 0.09777 1.03621 0.0
C774 C 0.63494 0.12345 0.07291 0.0
H775 H 0.61731 0.06993 0.8814 0.0
H776 H 0.61781 0.08395 0.10866 0.0
S777 S 0.66437 0.17504 0.85364 0.0
N778 N 0.65541 0.15009 0.75637 0.0
N779 N 0.65561 0.16538 1.00044 0.0
C780 C 0.64479 0.14067 0.97516 0.0
C781 C 0.64452 0.13248 0.84233 0.0
C782 C 0.08824 0.36977 0.21989 0.0
C783 C 0.10592 0.36181 0.32043 0.0
C784 C 0.09622 0.36872 0.08915 0.0
C785 C 0.12219 0.35962 1.05419 0.0
H786 H 0.06811 0.37715 0.24243 0.0
H787 H 0.08213 0.37547 1.0154 0.0
S788 S 0.17483 0.33329 0.27797 0.0
N789 N 0.14967 0.34237 0.37379 0.0
N790 N 0.16478 0.34059 0.1298 0.0
C791 C 0.13974 0.35094 0.15338 0.0
C792 C 0.13161 0.35199 0.28603 0.0
C793 C 0.35749 0.85557 0.95758 0.0
C794 C 0.36193 0.87425 0.05861 0.0
C795 C 0.35859 0.86356 0.82709 0.0
C796 C 0.36397 0.89049 0.7927 0.0
H797 H 0.35308 0.83462 0.97935 0.0
H798 H 0.35501 0.84858 0.75304 0.0
S799 S 0.37938 0.94669 1.01909 0.0
N800 N 0.37371 0.92045 0.11398 0.0
N801 N 0.37523 0.93554 0.87011 0.0
C802 C 0.36891 0.90921 0.89267 0.0
C803 C 0.368 0.90106 1.02515 0.0
C804 C 0.8559 0.85551 0.21547 0.0
C805 C 0.87452 0.86032 0.31635 0.0
C806 C 0.86386 0.85633 0.08493 0.0
C807 C 0.89074 0.86189 1.05047 0.0
H808 H 0.83497 0.85099 0.23741 0.0
H809 H 0.84897 0.85233 1.011 0.0
S810 S 0.94676 0.8784 0.27619 0.0
N811 N 0.92061 0.87259 0.37134 0.0
N812 N 0.93565 0.8738 0.12739 0.0
C813 C 0.90941 0.86721 0.15022 0.0
C814 C 0.90129 0.86649 0.28274 0.0
C815 C 0.85391 0.13008 1.03216 0.0
C816 C 0.86192 0.10379 0.06797 0.0
C817 C 0.85369 0.13815 0.90135 0.0
C818 C 0.86126 0.12018 0.80143 0.0
H819 H 0.8473 0.14435 0.10516 0.0
H820 H 0.84721 0.15857 0.87824 0.0
S821 S 0.8864 0.04996 0.84589 0.0
N822 N 0.87926 0.06038 0.99357 0.0
N823 N 0.87873 0.07552 0.74955 0.0
C824 C 0.86979 0.09405 0.83661 0.0
C825 C 0.87012 0.08588 0.96933 0.0
C826 C 0.09075 0.14929 0.13572 0.0
C827 C 0.10745 0.13738 1.04053 0.0
C828 C 0.09779 0.14867 0.26786 0.0
C829 C 0.1221 0.13661 0.30941 0.0
H830 H 0.07202 0.15921 0.10806 0.0
H831 H 0.08449 0.15828 0.33737 0.0
S832 S 0.17206 0.10096 0.10182 0.0
N833 N 0.14847 0.11145 1.00004 0.0
N834 N 0.16236 0.11154 0.24603 0.0
C835 C 0.13883 0.12443 0.21573 0.0
C836 C 0.13135 0.12448 0.08198 0.0
C837 C 0.12706 0.89974 0.82243 0.0
C838 C 0.13684 0.87405 0.78667 0.0
C839 C 0.12612 0.90765 0.95331 0.0
C840 C 0.13492 0.89021 1.05314 0.0
H841 H 0.11965 0.91361 0.74926 0.0
H842 H 0.11814 0.92753 0.97656 0.0
S843 S 0.16574 0.82232 1.00827 0.0
N844 N 0.1575 0.83206 0.86068 0.0
N845 N 0.15623 0.84724 0.10479 0.0
C846 C 0.14558 0.8649 1.01788 0.0
C847 C 0.14641 0.85677 0.88513 0.0
loop_
_geom_bond_atom_site_label_1
_geom_bond_atom_site_label_2
_geom_bond_distance
_geom_bond_site_symmetry_2
_ccdc_geom_bond_type
Tb0 O3 2.453 1_554 S
Tb0 O4 2.596 . S
Tb0 O5 2.374 . S
Tb0 O13 2.343 . S
Tb0 O15 2.353 . S
Tb0 O17 2.427 . S
Tb0 O18 2.513 . S
C1 O5 1.251 . S
C1 O7 1.263 . S
Tb2 O4 2.343 . S
Tb2 O7 2.353 . S
Tb2 O10 2.427 . S
Tb2 O11 2.513 . S
Tb2 O12 2.453 . S
Tb2 O13 2.596 . S
Tb2 O14 2.374 . S
O3 Tb0 2.453 1_556 S
O3 C19 1.245 . S
O4 Tb0 2.596 . S
O4 Tb2 2.343 . S
O4 C19 1.259 1_554 S
O5 Tb0 2.374 . S
O5 C1 1.251 . S
C6 O10 1.275 1_556 S
C6 O11 1.246 1_556 S
O7 C1 1.263 . S
O7 Tb2 2.353 . S
C8 O12 1.245 . S
C8 O13 1.259 . S
C9 O14 1.250 . S
C9 O15 1.263 . S
O10 Tb2 2.427 . S
O10 C6 1.275 1_554 S
O11 Tb2 2.513 . S
O11 C6 1.246 1_554 S
O12 Tb2 2.453 . S
O12 C8 1.245 . S
O13 Tb0 2.343 . S
O13 Tb2 2.596 . S
O13 C8 1.259 . S
O14 Tb2 2.374 . S
O14 C9 1.250 . S
O15 Tb0 2.353 . S
O15 C9 1.263 . S
C16 O17 1.275 . S
C16 O18 1.246 . S
O17 Tb0 2.427 . S
O17 C16 1.275 . S
O18 Tb0 2.513 . S
O18 C16 1.246 . S
C19 O3 1.245 . S
C19 O4 1.259 1_556 S
Tb20 O23 2.453 . S
Tb20 O24 2.596 . S
Tb20 O25 2.374 . S
Tb20 O33 2.343 . S
Tb20 O35 2.353 . S
Tb20 O37 2.427 . S
Tb20 O38 2.513 . S
C21 O25 1.251 . S
C21 O27 1.263 . S
Tb22 O24 2.343 . S
Tb22 O27 2.353 . S
Tb22 O30 2.427 . S
Tb22 O31 2.513 . S
Tb22 O32 2.453 1_556 S
Tb22 O33 2.596 . S
Tb22 O34 2.374 . S
O23 Tb20 2.453 . S
O23 C39 1.245 . S
O24 Tb20 2.596 . S
O24 Tb22 2.343 . S
O24 C39 1.259 . S
O25 Tb20 2.374 . S
O25 C21 1.251 . S
C26 O30 1.275 . S
C26 O31 1.246 . S
O27 C21 1.263 . S
O27 Tb22 2.353 . S
C28 O32 1.245 . S
C28 O33 1.259 1_554 S
C29 O34 1.250 . S
C29 O35 1.263 . S
O30 Tb22 2.427 . S
O30 C26 1.275 . S
O31 Tb22 2.513 . S
O31 C26 1.246 . S
O32 Tb22 2.453 1_554 S
O32 C28 1.245 . S
O33 Tb20 2.343 . S
O33 Tb22 2.596 . S
O33 C28 1.259 1_556 S
O34 Tb22 2.374 . S
O34 C29 1.250 . S
O35 Tb20 2.353 . S
O35 C29 1.263 . S
C36 O37 1.275 1_554 S
C36 O38 1.246 1_554 S
O37 Tb20 2.427 . S
O37 C36 1.275 1_556 S
O38 Tb20 2.513 . S
O38 C36 1.246 1_556 S
C39 O23 1.245 . S
C39 O24 1.259 . S
Tb40 O43 2.453 1_554 S
Tb40 O44 2.596 . S
Tb40 O45 2.374 . S
Tb40 O53 2.343 . S
Tb40 O55 2.353 . S
Tb40 O57 2.427 . S
Tb40 O58 2.513 . S
C41 O45 1.251 . S
C41 O47 1.263 . S
Tb42 O44 2.343 . S
Tb42 O47 2.353 . S
Tb42 O50 2.427 . S
Tb42 O51 2.513 . S
Tb42 O52 2.453 . S
Tb42 O53 2.596 . S
Tb42 O54 2.374 . S
O43 Tb40 2.453 1_556 S
O43 C59 1.245 . S
O44 Tb40 2.596 . S
O44 Tb42 2.343 . S
O44 C59 1.259 1_554 S
O45 Tb40 2.374 . S
O45 C41 1.251 . S
C46 O50 1.275 1_556 S
C46 O51 1.246 1_556 S
O47 C41 1.263 . S
O47 Tb42 2.353 . S
C48 O52 1.245 . S
C48 O53 1.259 . S
C49 O54 1.250 . S
C49 O55 1.263 . S
O50 Tb42 2.427 . S
O50 C46 1.275 1_554 S
O51 Tb42 2.513 . S
O51 C46 1.246 1_554 S
O52 Tb42 2.453 . S
O52 C48 1.245 . S
O53 Tb40 2.343 . S
O53 Tb42 2.596 . S
O53 C48 1.259 . S
O54 Tb42 2.374 . S
O54 C49 1.250 . S
O55 Tb40 2.353 . S
O55 C49 1.263 . S
C56 O57 1.275 . S
C56 O58 1.246 . S
O57 Tb40 2.427 . S
O57 C56 1.275 . S
O58 Tb40 2.513 . S
O58 C56 1.246 . S
C59 O43 1.245 . S
C59 O44 1.259 1_556 S
Tb60 O63 2.453 . S
Tb60 O64 2.596 . S
Tb60 O65 2.374 . S
Tb60 O73 2.343 . S
Tb60 O75 2.353 . S
Tb60 O77 2.427 . S
Tb60 O78 2.513 . S
C61 O65 1.251 . S
C61 O67 1.263 . S
Tb62 O64 2.343 . S
Tb62 O67 2.353 . S
Tb62 O70 2.427 . S
Tb62 O71 2.513 . S
Tb62 O72 2.453 1_556 S
Tb62 O73 2.596 . S
Tb62 O74 2.374 . S
O63 Tb60 2.453 . S
O63 C79 1.245 . S
O64 Tb60 2.596 . S
O64 Tb62 2.343 . S
O64 C79 1.259 . S
O65 Tb60 2.374 . S
O65 C61 1.251 . S
C66 O70 1.275 . S
C66 O71 1.246 . S
O67 C61 1.263 . S
O67 Tb62 2.353 . S
C68 O72 1.245 . S
C68 O73 1.259 1_554 S
C69 O74 1.250 . S
C69 O75 1.263 . S
O70 Tb62 2.427 . S
O70 C66 1.275 . S
O71 Tb62 2.513 . S
O71 C66 1.246 . S
O72 Tb62 2.453 1_554 S
O72 C68 1.245 . S
O73 Tb60 2.343 . S
O73 Tb62 2.596 . S
O73 C68 1.259 1_556 S
O74 Tb62 2.374 . S
O74 C69 1.250 . S
O75 Tb60 2.353 . S
O75 C69 1.263 . S
C76 O77 1.275 1_554 S
C76 O78 1.246 1_554 S
O77 Tb60 2.427 . S
O77 C76 1.275 1_556 S
O78 Tb60 2.513 . S
O78 C76 1.246 1_556 S
C79 O63 1.245 . S
C79 O64 1.259 . S
Tb80 O83 2.453 . S
Tb80 O84 2.596 . S
Tb80 O85 2.374 . S
Tb80 O93 2.343 1_554 S
Tb80 O95 2.353 . S
Tb80 O97 2.427 . S
Tb80 O98 2.513 . S
C81 O85 1.251 . S
C81 O87 1.263 . S
Tb82 O84 2.343 . S
Tb82 O87 2.353 . S
Tb82 O90 2.427 . S
Tb82 O91 2.513 . S
Tb82 O92 2.453 1_554 S
Tb82 O93 2.596 1_554 S
Tb82 O94 2.374 . S
O83 Tb80 2.453 . S
O83 C99 1.245 . S
O84 Tb80 2.596 . S
O84 Tb82 2.343 . S
O84 C99 1.259 . S
O85 Tb80 2.374 . S
O85 C81 1.251 . S
C86 O90 1.275 . S
C86 O91 1.246 . S
O87 C81 1.263 . S
O87 Tb82 2.353 . S
C88 O92 1.245 . S
C88 O93 1.259 . S
C89 O94 1.250 . S
C89 O95 1.263 . S
O90 Tb82 2.427 . S
O90 C86 1.275 . S
O91 Tb82 2.513 . S
O91 C86 1.246 . S
O92 Tb82 2.453 1_556 S
O92 C88 1.245 . S
O93 Tb80 2.343 1_556 S
O93 Tb82 2.596 1_556 S
O93 C88 1.259 . S
O94 Tb82 2.374 . S
O94 C89 1.250 . S
O95 Tb80 2.353 . S
O95 C89 1.263 . S
C96 O97 1.275 1_556 S
C96 O98 1.246 1_556 S
O97 Tb80 2.427 . S
O97 C96 1.275 1_554 S
O98 Tb80 2.513 . S
O98 C96 1.246 1_554 S
C99 O83 1.245 . S
C99 O84 1.259 . S
Tb100 O103 2.453 1_556 S
Tb100 O104 2.596 1_556 S
Tb100 O105 2.374 . S
Tb100 O113 2.343 . S
Tb100 O115 2.353 . S
Tb100 O117 2.427 . S
Tb100 O118 2.513 . S
C101 O105 1.251 . S
C101 O107 1.263 . S
Tb102 O104 2.343 1_556 S
Tb102 O107 2.353 . S
Tb102 O110 2.427 . S
Tb102 O111 2.513 . S
Tb102 O112 2.453 . S
Tb102 O113 2.596 . S
Tb102 O114 2.374 . S
O103 Tb100 2.453 1_554 S
O103 C119 1.245 . S
O104 Tb100 2.596 1_554 S
O104 Tb102 2.343 1_554 S
O104 C119 1.259 . S
O105 Tb100 2.374 . S
O105 C101 1.251 . S
C106 O110 1.275 1_554 S
C106 O111 1.246 1_554 S
O107 C101 1.263 . S
O107 Tb102 2.353 . S
C108 O112 1.245 . S
C108 O113 1.259 . S
C109 O114 1.250 . S
C109 O115 1.263 . S
O110 Tb102 2.427 . S
O110 C106 1.275 1_556 S
O111 Tb102 2.513 . S
O111 C106 1.246 1_556 S
O112 Tb102 2.453 . S
O112 C108 1.245 . S
O113 Tb100 2.343 . S
O113 Tb102 2.596 . S
O113 C108 1.259 . S
O114 Tb102 2.374 . S
O114 C109 1.250 . S
O115 Tb100 2.353 . S
O115 C109 1.263 . S
C116 O117 1.275 . S
C116 O118 1.246 . S
O117 Tb100 2.427 . S
O117 C116 1.275 . S
O118 Tb100 2.513 . S
O118 C116 1.246 . S
C119 O103 1.245 . S
C119 O104 1.259 . S
Tb120 O123 2.453 . S
Tb120 O124 2.596 . S
Tb120 O125 2.374 . S
Tb120 O133 2.343 1_554 S
Tb120 O135 2.353 . S
Tb120 O137 2.427 . S
Tb120 O138 2.513 . S
C121 O125 1.251 . S
C121 O127 1.263 . S
Tb122 O124 2.343 . S
Tb122 O127 2.353 . S
Tb122 O130 2.427 . S
Tb122 O131 2.513 . S
Tb122 O132 2.453 1_554 S
Tb122 O133 2.596 1_554 S
Tb122 O134 2.374 . S
O123 Tb120 2.453 . S
O123 C139 1.245 . S
O124 Tb120 2.596 . S
O124 Tb122 2.343 . S
O124 C139 1.259 . S
O125 Tb120 2.374 . S
O125 C121 1.251 . S
C126 O130 1.275 . S
C126 O131 1.246 . S
O127 C121 1.263 . S
O127 Tb122 2.353 . S
C128 O132 1.245 . S
C128 O133 1.259 . S
C129 O134 1.250 . S
C129 O135 1.263 . S
O130 Tb122 2.427 . S
O130 C126 1.275 . S
O131 Tb122 2.513 . S
O131 C126 1.246 . S
O132 Tb122 2.453 1_556 S
O132 C128 1.245 . S
O133 Tb120 2.343 1_556 S
O133 Tb122 2.596 1_556 S
O133 C128 1.259 . S
O134 Tb122 2.374 . S
O134 C129 1.250 . S
O135 Tb120 2.353 . S
O135 C129 1.263 . S
C136 O137 1.275 1_556 S
C136 O138 1.246 1_556 S
O137 Tb120 2.427 . S
O137 C136 1.275 1_554 S
O138 Tb120 2.513 . S
O138 C136 1.246 1_554 S
C139 O123 1.245 . S
C139 O124 1.259 . S
Tb140 O143 2.453 1_556 S
Tb140 O144 2.596 1_556 S
Tb140 O145 2.374 . S
Tb140 O153 2.343 . S
Tb140 O155 2.353 . S
Tb140 O157 2.427 . S
Tb140 O158 2.513 . S
C141 O145 1.251 . S
C141 O147 1.263 . S
Tb142 O144 2.343 1_556 S
Tb142 O147 2.353 . S
Tb142 O150 2.427 . S
Tb142 O151 2.513 . S
Tb142 O152 2.453 . S
Tb142 O153 2.596 . S
Tb142 O154 2.374 . S
O143 Tb140 2.453 1_554 S
O143 C159 1.245 . S
O144 Tb140 2.596 1_554 S
O144 Tb142 2.343 1_554 S
O144 C159 1.259 . S
O145 Tb140 2.374 . S
O145 C141 1.251 . S
C146 O150 1.275 1_554 S
C146 O151 1.246 1_554 S
O147 C141 1.263 . S
O147 Tb142 2.353 . S
C148 O152 1.245 . S
C148 O153 1.259 . S
C149 O154 1.250 . S
C149 O155 1.263 . S
O150 Tb142 2.427 . S
O150 C146 1.275 1_556 S
O151 Tb142 2.513 . S
O151 C146 1.246 1_556 S
O152 Tb142 2.453 . S
O152 C148 1.245 . S
O153 Tb140 2.343 . S
O153 Tb142 2.596 . S
O153 C148 1.259 . S
O154 Tb142 2.374 . S
O154 C149 1.250 . S
O155 Tb140 2.353 . S
O155 C149 1.263 . S
C156 O157 1.275 . S
C156 O158 1.246 . S
O157 Tb140 2.427 . S
O157 C156 1.275 . S
O158 Tb140 2.513 . S
O158 C156 1.246 . S
C159 O143 1.245 . S
C159 O144 1.259 . S
Tb160 O163 2.453 . S
Tb160 O164 2.596 . S
Tb160 O165 2.374 . S
Tb160 O173 2.343 . S
Tb160 O175 2.353 . S
Tb160 O177 2.427 . S
Tb160 O178 2.513 . S
C161 O165 1.251 . S
C161 O167 1.263 . S
Tb162 O164 2.343 . S
Tb162 O167 2.353 . S
Tb162 O170 2.427 . S
Tb162 O171 2.513 . S
Tb162 O172 2.453 . S
Tb162 O173 2.596 . S
Tb162 O174 2.374 . S
O163 Tb160 2.453 . S
O163 C179 1.245 . S
O164 Tb160 2.596 . S
O164 Tb162 2.343 . S
O164 C179 1.259 . S
O165 Tb160 2.374 . S
O165 C161 1.251 . S
C166 O170 1.275 . S
C166 O171 1.246 . S
O167 C161 1.263 . S
O167 Tb162 2.353 . S
C168 O172 1.245 . S
C168 O173 1.259 . S
C169 O174 1.250 . S
C169 O175 1.263 . S
O170 Tb162 2.427 . S
O170 C166 1.275 . S
O171 Tb162 2.513 . S
O171 C166 1.246 . S
O172 Tb162 2.453 . S
O172 C168 1.245 . S
O173 Tb160 2.343 . S
O173 Tb162 2.596 . S
O173 C168 1.259 . S
O174 Tb162 2.374 . S
O174 C169 1.250 . S
O175 Tb160 2.353 . S
O175 C169 1.263 . S
C176 O177 1.275 . S
C176 O178 1.246 . S
O177 Tb160 2.427 . S
O177 C176 1.275 . S
O178 Tb160 2.513 . S
O178 C176 1.246 . S
C179 O163 1.245 . S
C179 O164 1.259 . S
Tb180 O183 2.453 . S
Tb180 O184 2.596 . S
Tb180 O185 2.374 . S
Tb180 O193 2.343 . S
Tb180 O195 2.353 . S
Tb180 O197 2.427 . S
Tb180 O198 2.513 . S
C181 O185 1.251 . S
C181 O187 1.263 . S
Tb182 O184 2.343 . S
Tb182 O187 2.353 . S
Tb182 O190 2.427 . S
Tb182 O191 2.513 . S
Tb182 O192 2.453 . S
Tb182 O193 2.596 . S
Tb182 O194 2.374 . S
O183 Tb180 2.453 . S
O183 C199 1.245 . S
O184 Tb180 2.596 . S
O184 Tb182 2.343 . S
O184 C199 1.259 . S
O185 Tb180 2.374 . S
O185 C181 1.251 . S
C186 O190 1.275 . S
C186 O191 1.246 . S
O187 C181 1.263 . S
O187 Tb182 2.353 . S
C188 O192 1.245 . S
C188 O193 1.259 . S
C189 O194 1.250 . S
C189 O195 1.263 . S
O190 Tb182 2.427 . S
O190 C186 1.275 . S
O191 Tb182 2.513 . S
O191 C186 1.246 . S
O192 Tb182 2.453 . S
O192 C188 1.245 . S
O193 Tb180 2.343 . S
O193 Tb182 2.596 . S
O193 C188 1.259 . S
O194 Tb182 2.374 . S
O194 C189 1.250 . S
O195 Tb180 2.353 . S
O195 C189 1.263 . S
C196 O197 1.275 . S
C196 O198 1.246 . S
O197 Tb180 2.427 . S
O197 C196 1.275 . S
O198 Tb180 2.513 . S
O198 C196 1.246 . S
C199 O183 1.245 . S
C199 O184 1.259 . S
Tb200 O203 2.453 . S
Tb200 O204 2.596 . S
Tb200 O205 2.374 . S
Tb200 O213 2.343 . S
Tb200 O215 2.353 . S
Tb200 O217 2.427 . S
Tb200 O218 2.513 . S
C201 O205 1.251 . S
C201 O207 1.263 . S
Tb202 O204 2.343 . S
Tb202 O207 2.353 . S
Tb202 O210 2.427 . S
Tb202 O211 2.513 . S
Tb202 O212 2.453 . S
Tb202 O213 2.596 . S
Tb202 O214 2.374 . S
O203 Tb200 2.453 . S
O203 C219 1.245 . S
O204 Tb200 2.596 . S
O204 Tb202 2.343 . S
O204 C219 1.259 . S
O205 Tb200 2.374 . S
O205 C201 1.251 . S
C206 O210 1.275 . S
C206 O211 1.246 . S
O207 C201 1.263 . S
O207 Tb202 2.353 . S
C208 O212 1.245 . S
C208 O213 1.259 . S
C209 O214 1.250 . S
C209 O215 1.263 . S
O210 Tb202 2.427 . S
O210 C206 1.275 . S
O211 Tb202 2.513 . S
O211 C206 1.246 . S
O212 Tb202 2.453 . S
O212 C208 1.245 . S
O213 Tb200 2.343 . S
O213 Tb202 2.596 . S
O213 C208 1.259 . S
O214 Tb202 2.374 . S
O214 C209 1.250 . S
O215 Tb200 2.353 . S
O215 C209 1.263 . S
C216 O217 1.275 . S
C216 O218 1.246 . S
O217 Tb200 2.427 . S
O217 C216 1.275 . S
O218 Tb200 2.513 . S
O218 C216 1.246 . S
C219 O203 1.245 . S
C219 O204 1.259 . S
Tb220 O223 2.453 . S
Tb220 O224 2.596 . S
Tb220 O225 2.374 . S
Tb220 O233 2.343 . S
Tb220 O235 2.353 . S
Tb220 O237 2.427 . S
Tb220 O238 2.513 . S
C221 O225 1.251 . S
C221 O227 1.263 . S
Tb222 O224 2.343 . S
Tb222 O227 2.353 . S
Tb222 O230 2.427 . S
Tb222 O231 2.513 . S
Tb222 O232 2.453 . S
Tb222 O233 2.596 . S
Tb222 O234 2.374 . S
O223 Tb220 2.453 . S
O223 C239 1.245 . S
O224 Tb220 2.596 . S
O224 Tb222 2.343 . S
O224 C239 1.259 . S
O225 Tb220 2.374 . S
O225 C221 1.251 . S
C226 O230 1.275 . S
C226 O231 1.246 . S
O227 C221 1.263 . S
O227 Tb222 2.353 . S
C228 O232 1.245 . S
C228 O233 1.259 . S
C229 O234 1.250 . S
C229 O235 1.263 . S
O230 Tb222 2.427 . S
O230 C226 1.275 . S
O231 Tb222 2.513 . S
O231 C226 1.246 . S
O232 Tb222 2.453 . S
O232 C228 1.245 . S
O233 Tb220 2.343 . S
O233 Tb222 2.596 . S
O233 C228 1.259 . S
O234 Tb222 2.374 . S
O234 C229 1.250 . S
O235 Tb220 2.353 . S
O235 C229 1.263 . S
C236 O237 1.275 . S
C236 O238 1.246 . S
O237 Tb220 2.427 . S
O237 C236 1.275 . S
O238 Tb220 2.513 . S
O238 C236 1.246 . S
C239 O223 1.245 . S
C239 O224 1.259 . S
Tb240 O243 2.453 . S
Tb240 O244 2.596 . S
Tb240 O245 2.374 . S
Tb240 O253 2.343 . S
Tb240 O255 2.353 . S
Tb240 O257 2.427 . S
Tb240 O258 2.513 . S
C241 O245 1.251 . S
C241 O247 1.263 . S
Tb242 O244 2.343 . S
Tb242 O247 2.353 . S
Tb242 O250 2.427 . S
Tb242 O251 2.513 . S
Tb242 O252 2.453 . S
Tb242 O253 2.596 . S
Tb242 O254 2.374 . S
O243 Tb240 2.453 . S
O243 C259 1.245 . S
O244 Tb240 2.596 . S
O244 Tb242 2.343 . S
O244 C259 1.259 . S
O245 Tb240 2.374 . S
O245 C241 1.251 . S
C246 O250 1.275 . S
C246 O251 1.246 . S
O247 C241 1.263 . S
O247 Tb242 2.353 . S
C248 O252 1.245 . S
C248 O253 1.259 . S
C249 O254 1.250 . S
C249 O255 1.263 . S
O250 Tb242 2.427 . S
O250 C246 1.275 . S
O251 Tb242 2.513 . S
O251 C246 1.246 . S
O252 Tb242 2.453 . S
O252 C248 1.245 . S
O253 Tb240 2.343 . S
O253 Tb242 2.596 . S
O253 C248 1.259 . S
O254 Tb242 2.374 . S
O254 C249 1.250 . S
O255 Tb240 2.353 . S
O255 C249 1.263 . S
C256 O257 1.275 . S
C256 O258 1.246 . S
O257 Tb240 2.427 . S
O257 C256 1.275 . S
O258 Tb240 2.513 . S
O258 C256 1.246 . S
C259 O243 1.245 . S
C259 O244 1.259 . S
Tb260 O263 2.453 . S
Tb260 O264 2.596 . S
Tb260 O265 2.374 . S
Tb260 O273 2.343 . S
Tb260 O275 2.353 . S
Tb260 O277 2.427 . S
Tb260 O278 2.513 . S
C261 O265 1.251 . S
C261 O267 1.263 . S
Tb262 O264 2.343 . S
Tb262 O267 2.353 . S
Tb262 O270 2.427 . S
Tb262 O271 2.513 . S
Tb262 O272 2.453 . S
Tb262 O273 2.596 . S
Tb262 O274 2.374 . S
O263 Tb260 2.453 . S
O263 C279 1.245 . S
O264 Tb260 2.596 . S
O264 Tb262 2.343 . S
O264 C279 1.259 . S
O265 Tb260 2.374 . S
O265 C261 1.251 . S
C266 O270 1.275 . S
C266 O271 1.246 . S
O267 C261 1.263 . S
O267 Tb262 2.353 . S
C268 O272 1.245 . S
C268 O273 1.259 . S
C269 O274 1.250 . S
C269 O275 1.263 . S
O270 Tb262 2.427 . S
O270 C266 1.275 . S
O271 Tb262 2.513 . S
O271 C266 1.246 . S
O272 Tb262 2.453 . S
O272 C268 1.245 . S
O273 Tb260 2.343 . S
O273 Tb262 2.596 . S
O273 C268 1.259 . S
O274 Tb262 2.374 . S
O274 C269 1.250 . S
O275 Tb260 2.353 . S
O275 C269 1.263 . S
C276 O277 1.275 . S
C276 O278 1.246 . S
O277 Tb260 2.427 . S
O277 C276 1.275 . S
O278 Tb260 2.513 . S
O278 C276 1.246 . S
C279 O263 1.245 . S
C279 O264 1.259 . S
Tb280 O283 2.453 . S
Tb280 O284 2.596 . S
Tb280 O285 2.374 . S
Tb280 O293 2.343 . S
Tb280 O295 2.353 . S
Tb280 O297 2.427 . S
Tb280 O298 2.513 . S
C281 O285 1.251 . S
C281 O287 1.263 . S
Tb282 O284 2.343 . S
Tb282 O287 2.353 . S
Tb282 O290 2.427 . S
Tb282 O291 2.513 . S
Tb282 O292 2.453 . S
Tb282 O293 2.596 . S
Tb282 O294 2.374 . S
O283 Tb280 2.453 . S
O283 C299 1.245 . S
O284 Tb280 2.596 . S
O284 Tb282 2.343 . S
O284 C299 1.259 . S
O285 Tb280 2.374 . S
O285 C281 1.251 . S
C286 O290 1.275 . S
C286 O291 1.246 . S
O287 C281 1.263 . S
O287 Tb282 2.353 . S
C288 O292 1.245 . S
C288 O293 1.259 . S
C289 O294 1.250 . S
C289 O295 1.263 . S
O290 Tb282 2.427 . S
O290 C286 1.275 . S
O291 Tb282 2.513 . S
O291 C286 1.246 . S
O292 Tb282 2.453 . S
O292 C288 1.245 . S
O293 Tb280 2.343 . S
O293 Tb282 2.596 . S
O293 C288 1.259 . S
O294 Tb282 2.374 . S
O294 C289 1.250 . S
O295 Tb280 2.353 . S
O295 C289 1.263 . S
C296 O297 1.275 . S
C296 O298 1.246 . S
O297 Tb280 2.427 . S
O297 C296 1.275 . S
O298 Tb280 2.513 . S
O298 C296 1.246 . S
C299 O283 1.245 . S
C299 O284 1.259 . S
Tb300 O303 2.453 . S
Tb300 O304 2.596 . S
Tb300 O305 2.374 . S
Tb300 O313 2.343 . S
Tb300 O315 2.353 . S
Tb300 O317 2.427 . S
Tb300 O318 2.513 . S
C301 O305 1.251 . S
C301 O307 1.263 . S
Tb302 O304 2.343 . S
Tb302 O307 2.353 . S
Tb302 O310 2.427 . S
Tb302 O311 2.513 . S
Tb302 O312 2.453 . S
Tb302 O313 2.596 . S
Tb302 O314 2.374 . S
O303 Tb300 2.453 . S
O303 C319 1.245 . S
O304 Tb300 2.596 . S
O304 Tb302 2.343 . S
O304 C319 1.259 . S
O305 Tb300 2.374 . S
O305 C301 1.251 . S
C306 O310 1.275 . S
C306 O311 1.246 . S
O307 C301 1.263 . S
O307 Tb302 2.353 . S
C308 O312 1.245 . S
C308 O313 1.259 . S
C309 O314 1.250 . S
C309 O315 1.263 . S
O310 Tb302 2.427 . S
O310 C306 1.275 . S
O311 Tb302 2.513 . S
O311 C306 1.246 . S
O312 Tb302 2.453 . S
O312 C308 1.245 . S
O313 Tb300 2.343 . S
O313 Tb302 2.596 . S
O313 C308 1.259 . S
O314 Tb302 2.374 . S
O314 C309 1.250 . S
O315 Tb300 2.353 . S
O315 C309 1.263 . S
C316 O317 1.275 . S
C316 O318 1.246 . S
O317 Tb300 2.427 . S
O317 C316 1.275 . S
O318 Tb300 2.513 . S
O318 C316 1.246 . S
C319 O303 1.245 . S
C319 O304 1.259 . S
C320 C321 1.352 1_545 S
C320 C322 1.456 . S
C320 H324 0.910 1_545 S
C321 C320 1.352 1_565 S
C321 C330 1.429 1_565 S
C322 C320 1.456 . S
C322 C323 1.363 . S
C322 H325 0.929 . S
C323 C322 1.363 . S
C323 C329 1.428 . S
H324 C320 0.910 1_565 S
H325 C322 0.929 . S
S326 N327 1.613 1_546 S
S326 N328 1.610 1_556 S
N327 S326 1.613 1_564 S
N327 C330 1.350 1_565 S
N328 S326 1.610 1_554 S
N328 C329 1.351 . S
C329 C323 1.428 . S
C329 N328 1.351 . S
C329 C330 1.434 . S
C330 C321 1.429 1_545 S
C330 N327 1.350 1_545 S
C330 C329 1.434 . S
C331 C332 1.369 1_455 S
C331 C333 1.419 . S
C331 H335 0.930 1_455 S
C332 C331 1.369 1_655 S
C332 C341 1.429 1_655 S
C333 C331 1.419 . S
C333 C334 1.363 . S
C333 H336 0.929 . S
C334 C333 1.363 . S
C334 C340 1.428 . S
H335 C331 0.930 1_655 S
H336 C333 0.929 . S
S337 N338 1.613 1_455 S
S337 N339 1.610 . S
N338 S337 1.613 1_655 S
N338 C341 1.350 1_654 S
N339 S337 1.610 . S
N339 C340 1.351 1_554 S
C340 C334 1.428 . S
C340 N339 1.351 1_556 S
C340 C341 1.434 . S
C341 C332 1.429 1_455 S
C341 N338 1.350 1_456 S
C341 C340 1.434 . S
C342 C343 1.369 . S
C342 C344 1.419 . S
C342 H346 0.930 . S
C343 C342 1.369 . S
C343 C352 1.429 . S
C344 C342 1.419 . S
C344 C345 1.363 1_565 S
C344 H347 0.929 1_565 S
C345 C344 1.363 1_545 S
C345 C351 1.428 1_545 S
H346 C342 0.930 . S
H347 C344 0.929 1_545 S
S348 N349 1.613 . S
S348 N350 1.610 1_565 S
N349 S348 1.613 . S
N349 C352 1.350 1_556 S
N350 S348 1.610 1_545 S
N350 C351 1.351 1_546 S
C351 C345 1.428 1_565 S
C351 N350 1.351 1_564 S
C351 C352 1.434 . S
C352 C343 1.429 . S
C352 N349 1.350 1_554 S
C352 C351 1.434 . S
C353 C354 1.369 . S
C353 C355 1.419 . S
C353 H357 0.930 . S
C354 C353 1.369 . S
C354 C363 1.429 . S
C355 C353 1.419 . S
C355 C356 1.363 1_655 S
C355 H358 0.929 1_655 S
C356 C355 1.363 1_455 S
C356 C362 1.430 1_455 S
H357 C353 0.930 . S
H358 C355 0.929 1_455 S
S359 N360 1.613 . S
S359 N361 1.610 1_655 S
N360 S359 1.613 . S
N360 C363 1.350 . S
N361 S359 1.610 1_455 S
N361 C362 1.353 1_455 S
C362 C356 1.430 1_655 S
C362 N361 1.353 1_655 S
C362 C363 1.430 . S
C363 C354 1.429 . S
C363 N360 1.350 . S
C363 C362 1.430 . S
C364 C365 1.369 . S
C364 C366 1.419 . S
C364 H368 0.930 . S
C365 C364 1.369 . S
C365 C374 1.429 . S
C366 C364 1.419 . S
C366 C367 1.363 . S
C366 H369 0.929 . S
C367 C366 1.363 . S
C367 C373 1.428 . S
H368 C364 0.930 . S
H369 C366 0.929 . S
S370 N371 1.613 . S
S370 N372 1.610 . S
N371 S370 1.613 . S
N371 C374 1.350 . S
N372 S370 1.610 . S
N372 C373 1.351 . S
C373 C367 1.428 . S
C373 N372 1.351 . S
C373 C374 1.434 . S
C374 C365 1.429 . S
C374 N371 1.350 . S
C374 C373 1.434 . S
C375 C376 1.369 . S
C375 C377 1.419 . S
C375 H379 0.930 . S
C376 C375 1.369 . S
C376 C385 1.429 . S
C377 C375 1.419 . S
C377 C378 1.363 . S
C377 H380 0.929 . S
C378 C377 1.363 . S
C378 C384 1.428 . S
H379 C375 0.930 . S
H380 C377 0.929 . S
S381 N382 1.613 . S
S381 N383 1.610 . S
N382 S381 1.613 . S
N382 C385 1.350 1_554 S
N383 S381 1.610 . S
N383 C384 1.351 1_554 S
C384 C378 1.428 . S
C384 N383 1.351 1_556 S
C384 C385 1.434 . S
C385 C376 1.429 . S
C385 N382 1.350 1_556 S
C385 C384 1.434 . S
C386 C387 1.369 1_556 S
C386 C388 1.419 . S
C386 H390 0.930 . S
C387 C386 1.369 1_554 S
C387 C396 1.429 . S
C388 C386 1.419 . S
C388 C389 1.363 1_556 S
C388 H391 0.929 . S
C389 C388 1.363 1_554 S
C389 C395 1.428 . S
H390 C386 0.930 . S
H391 C388 0.929 . S
S392 N393 1.613 . S
S392 N394 1.610 . S
N393 S392 1.613 . S
N393 C396 1.350 . S
N394 S392 1.610 . S
N394 C395 1.351 . S
C395 C389 1.428 . S
C395 N394 1.351 . S
C395 C396 1.434 . S
C396 C387 1.429 . S
C396 N393 1.350 . S
C396 C395 1.434 . S
C397 C398 1.369 1_554 S
C397 C399 1.419 . S
C397 H401 0.930 . S
C398 C397 1.369 1_556 S
C398 C407 1.429 . S
C399 C397 1.419 . S
C399 C400 1.363 1_554 S
C399 H402 0.929 . S
C400 C399 1.363 1_556 S
C400 C406 1.428 . S
H401 C397 0.930 . S
H402 C399 0.929 . S
S403 N404 1.613 . S
S403 N405 1.610 . S
N404 S403 1.613 . S
N404 C407 1.350 . S
N405 S403 1.610 . S
N405 C406 1.351 . S
C406 C400 1.428 . S
C406 N405 1.351 . S
C406 C407 1.434 . S
C407 C398 1.429 . S
C407 N404 1.350 . S
C407 C406 1.434 . S
C408 C409 1.369 . S
C408 C410 1.419 . S
C408 H412 0.930 . S
C409 C408 1.369 . S
C409 C418 1.429 . S
C410 C408 1.419 . S
C410 C411 1.363 . S
C410 H413 0.929 . S
C411 C410 1.363 . S
C411 C417 1.428 . S
H412 C408 0.930 . S
H413 C410 0.929 . S
S414 N415 1.613 . S
S414 N416 1.610 . S
N415 S414 1.613 . S
N415 C418 1.350 . S
N416 S414 1.610 . S
N416 C417 1.351 . S
C417 C411 1.428 . S
C417 N416 1.351 . S
C417 C418 1.434 . S
C418 C409 1.429 . S
C418 N415 1.350 . S
C418 C417 1.434 . S
C419 C420 1.369 . S
C419 C421 1.419 . S
C419 H423 0.930 . S
C420 C419 1.369 . S
C420 C429 1.429 . S
C421 C419 1.419 . S
C421 C422 1.363 . S
C421 H424 0.929 . S
C422 C421 1.363 . S
C422 C428 1.428 . S
H423 C419 0.930 . S
H424 C421 0.929 . S
S425 N426 1.613 . S
S425 N427 1.610 . S
N426 S425 1.613 . S
N426 C429 1.350 . S
N427 S425 1.610 . S
N427 C428 1.351 . S
C428 C422 1.428 . S
C428 N427 1.351 . S
C428 C429 1.434 . S
C429 C420 1.429 . S
C429 N426 1.350 . S
C429 C428 1.434 . S
C430 C431 1.369 . S
C430 C432 1.419 . S
C430 H434 0.930 . S
C431 C430 1.369 . S
C431 C440 1.429 . S
C432 C430 1.419 . S
C432 C433 1.363 . S
C432 H435 0.929 . S
C433 C432 1.363 . S
C433 C439 1.428 . S
H434 C430 0.930 . S
H435 C432 0.929 . S
S436 N437 1.613 . S
S436 N438 1.610 . S
N437 S436 1.613 . S
N437 C440 1.350 . S
N438 S436 1.610 . S
N438 C439 1.351 . S
C439 C433 1.428 . S
C439 N438 1.351 . S
C439 C440 1.434 . S
C440 C431 1.429 . S
C440 N437 1.350 . S
C440 C439 1.434 . S
C441 C442 1.369 . S
C441 C443 1.419 . S
C441 H445 0.930 . S
C442 C441 1.369 . S
C442 C451 1.429 . S
C443 C441 1.419 . S
C443 C444 1.363 . S
C443 H446 0.929 . S
C444 C443 1.363 . S
C444 C450 1.428 . S
H445 C441 0.930 . S
H446 C443 0.929 . S
S447 N448 1.613 . S
S447 N449 1.610 . S
N448 S447 1.613 . S
N448 C451 1.350 . S
N449 S447 1.610 . S
N449 C450 1.351 . S
C450 C444 1.428 . S
C450 N449 1.351 . S
C450 C451 1.434 . S
C451 C442 1.429 . S
C451 N448 1.350 . S
C451 C450 1.434 . S
C452 C453 1.369 . S
C452 C454 1.419 . S
C452 H456 0.930 . S
C453 C452 1.369 . S
C453 C462 1.429 . S
C454 C452 1.419 . S
C454 C455 1.363 1_565 S
C454 H457 0.929 1_565 S
C455 C454 1.363 1_545 S
C455 C461 1.428 1_545 S
H456 C452 0.930 . S
H457 C454 0.929 1_545 S
S458 N459 1.613 . S
S458 N460 1.610 1_565 S
N459 S458 1.613 . S
N459 C462 1.350 . S
N460 S458 1.610 1_545 S
N460 C461 1.351 1_545 S
C461 C455 1.428 1_565 S
C461 N460 1.351 1_565 S
C461 C462 1.434 . S
C462 C453 1.429 . S
C462 N459 1.350 . S
C462 C461 1.434 . S
C463 C464 1.369 1_655 S
C463 C465 1.419 . S
C463 H467 0.930 1_655 S
C464 C463 1.369 1_455 S
C464 C473 1.424 1_455 S
C465 C463 1.419 . S
C465 C466 1.363 . S
C465 H468 0.929 . S
C466 C465 1.363 . S
C466 C472 1.428 . S
H467 C463 0.930 1_455 S
H468 C465 0.929 . S
S469 N470 1.613 1_655 S
S469 N471 1.610 . S
N470 S469 1.613 1_455 S
N470 C473 1.345 1_455 S
N471 S469 1.610 . S
N471 C472 1.351 . S
C472 C466 1.428 . S
C472 N471 1.351 . S
C472 C473 1.444 . S
C473 C464 1.424 1_655 S
C473 N470 1.345 1_655 S
C473 C472 1.444 . S
C474 C475 1.369 1_545 S
C474 C476 1.419 . S
C474 H478 0.930 1_545 S
C475 C474 1.369 1_565 S
C475 C484 1.429 1_565 S
C476 C474 1.419 . S
C476 C477 1.363 . S
C476 H479 0.929 . S
C477 C476 1.363 . S
C477 C483 1.428 . S
H478 C474 0.930 1_565 S
H479 C476 0.929 . S
S480 N481 1.613 1_545 S
S480 N482 1.610 . S
N481 S480 1.613 1_565 S
N481 C484 1.350 1_565 S
N482 S480 1.610 . S
N482 C483 1.351 . S
C483 C477 1.428 . S
C483 N482 1.351 . S
C483 C484 1.434 . S
C484 C475 1.429 1_545 S
C484 N481 1.350 1_545 S
C484 C483 1.434 . S
C485 C486 1.369 . S
C485 C487 1.419 . S
C485 H489 0.930 . S
C486 C485 1.369 . S
C486 C495 1.429 . S
C487 C485 1.419 . S
C487 C488 1.363 1_455 S
C487 H490 0.929 1_455 S
C488 C487 1.363 1_655 S
C488 C494 1.422 1_655 S
H489 C485 0.930 . S
H490 C487 0.929 1_655 S
S491 N492 1.613 . S
S491 N493 1.610 1_455 S
N492 S491 1.613 . S
N492 C495 1.350 . S
N493 S491 1.610 1_655 S
N493 C494 1.345 1_655 S
C494 C488 1.422 1_455 S
C494 N493 1.345 1_455 S
C494 C495 1.448 . S
C495 C486 1.429 . S
C495 N492 1.350 . S
C495 C494 1.448 . S
C496 C497 1.369 . S
C496 C498 1.419 . S
C496 H500 0.930 . S
C497 C496 1.369 . S
C497 C506 1.429 . S
C498 C496 1.419 . S
C498 C499 1.363 . S
C498 H501 0.929 . S
C499 C498 1.363 . S
C499 C505 1.428 . S
H500 C496 0.930 . S
H501 C498 0.929 . S
S502 N503 1.613 . S
S502 N504 1.610 . S
N503 S502 1.613 . S
N503 C506 1.350 . S
N504 S502 1.610 . S
N504 C505 1.351 . S
C505 C499 1.428 . S
C505 N504 1.351 . S
C505 C506 1.434 . S
C506 C497 1.429 . S
C506 N503 1.350 . S
C506 C505 1.434 . S
C507 C508 1.369 . S
C507 C509 1.419 . S
C507 H511 0.930 . S
C508 C507 1.369 . S
C508 C517 1.429 . S
C509 C507 1.419 . S
C509 C510 1.363 . S
C509 H512 0.929 . S
C510 C509 1.363 . S
C510 C516 1.428 . S
H511 C507 0.930 . S
H512 C509 0.929 . S
S513 N514 1.613 1_554 S
S513 N515 1.610 . S
N514 S513 1.613 1_556 S
N514 C517 1.350 . S
N515 S513 1.610 . S
N515 C516 1.351 1_554 S
C516 C510 1.428 . S
C516 N515 1.351 1_556 S
C516 C517 1.434 . S
C517 C508 1.429 . S
C517 N514 1.350 . S
C517 C516 1.434 . S
C518 C519 1.369 . S
C518 C520 1.419 . S
C518 H522 0.930 . S
C519 C518 1.369 . S
C519 C528 1.429 . S
C520 C518 1.419 . S
C520 C521 1.363 . S
C520 H523 0.929 . S
C521 C520 1.363 . S
C521 C527 1.428 . S
H522 C518 0.930 . S
H523 C520 0.929 . S
S524 N525 1.613 . S
S524 N526 1.610 1_556 S
N525 S524 1.613 . S
N525 C528 1.350 1_556 S
N526 S524 1.610 1_554 S
N526 C527 1.351 . S
C527 C521 1.428 . S
C527 N526 1.351 . S
C527 C528 1.434 . S
C528 C519 1.429 . S
C528 N525 1.350 1_554 S
C528 C527 1.434 . S
C529 C530 1.369 . S
C529 C531 1.419 . S
C529 H533 0.930 . S
C530 C529 1.369 . S
C530 C539 1.429 . S
C531 C529 1.419 . S
C531 C532 1.363 . S
C531 H534 0.929 . S
C532 C531 1.363 . S
C532 C538 1.428 . S
H533 C529 0.930 . S
H534 C531 0.929 . S
S535 N536 1.613 . S
S535 N537 1.610 . S
N536 S535 1.613 . S
N536 C539 1.350 1_554 S
N537 S535 1.610 . S
N537 C538 1.351 1_554 S
C538 C532 1.428 . S
C538 N537 1.351 1_556 S
C538 C539 1.434 . S
C539 C530 1.429 . S
C539 N536 1.350 1_556 S
C539 C538 1.434 . S
C540 C541 1.369 . S
C540 C542 1.419 . S
C540 H544 0.930 . S
C541 C540 1.369 . S
C541 C550 1.429 . S
C542 C540 1.419 . S
C542 C543 1.363 . S
C542 H545 0.929 . S
C543 C542 1.363 . S
C543 C549 1.428 . S
H544 C540 0.930 . S
H545 C542 0.929 . S
S546 N547 1.613 . S
S546 N548 1.610 . S
N547 S546 1.613 . S
N547 C550 1.350 . S
N548 S546 1.610 . S
N548 C549 1.351 . S
C549 C543 1.428 . S
C549 N548 1.351 . S
C549 C550 1.434 . S
C550 C541 1.429 . S
C550 N547 1.350 . S
C550 C549 1.434 . S
C551 C552 1.369 . S
C551 C553 1.419 . S
C551 H555 0.930 . S
C552 C551 1.369 . S
C552 C561 1.429 . S
C553 C551 1.419 . S
C553 C554 1.363 . S
C553 H556 0.929 . S
C554 C553 1.363 . S
C554 C560 1.428 . S
H555 C551 0.930 . S
H556 C553 0.929 . S
S557 N558 1.613 . S
S557 N559 1.610 . S
N558 S557 1.613 . S
N558 C561 1.350 . S
N559 S557 1.610 . S
N559 C560 1.351 . S
C560 C554 1.428 . S
C560 N559 1.351 . S
C560 C561 1.434 . S
C561 C552 1.429 . S
C561 N558 1.350 . S
C561 C560 1.434 . S
C562 C563 1.369 . S
C562 C564 1.419 . S
C562 H566 0.930 . S
C563 C562 1.369 . S
C563 C572 1.429 . S
C564 C562 1.419 . S
C564 C565 1.363 . S
C564 H567 0.929 . S
C565 C564 1.363 . S
C565 C571 1.428 . S
H566 C562 0.930 . S
H567 C564 0.929 . S
S568 N569 1.613 . S
S568 N570 1.610 . S
N569 S568 1.613 . S
N569 C572 1.350 . S
N570 S568 1.610 . S
N570 C571 1.351 . S
C571 C565 1.428 . S
C571 N570 1.351 . S
C571 C572 1.434 . S
C572 C563 1.429 . S
C572 N569 1.350 . S
C572 C571 1.434 . S
C573 C574 1.369 . S
C573 C575 1.419 . S
C573 H577 0.930 . S
C574 C573 1.369 . S
C574 C583 1.429 . S
C575 C573 1.419 . S
C575 C576 1.363 . S
C575 H578 0.929 . S
C576 C575 1.363 . S
C576 C582 1.428 . S
H577 C573 0.930 . S
H578 C575 0.929 . S
S579 N580 1.613 . S
S579 N581 1.610 . S
N580 S579 1.613 . S
N580 C583 1.350 . S
N581 S579 1.610 . S
N581 C582 1.351 . S
C582 C576 1.428 . S
C582 N581 1.351 . S
C582 C583 1.434 . S
C583 C574 1.429 . S
C583 N580 1.350 . S
C583 C582 1.434 . S
C584 C585 1.369 . S
C584 C586 1.419 . S
C584 H588 0.930 . S
C585 C584 1.369 . S
C585 C594 1.429 . S
C586 C584 1.419 . S
C586 C587 1.363 . S
C586 H589 0.929 1_556 S
C587 C586 1.363 . S
C587 C593 1.428 . S
H588 C584 0.930 . S
H589 C586 0.929 1_554 S
S590 N591 1.613 . S
S590 N592 1.610 . S
N591 S590 1.613 . S
N591 C594 1.350 . S
N592 S590 1.610 . S
N592 C593 1.351 . S
C593 C587 1.428 . S
C593 N592 1.351 . S
C593 C594 1.434 . S
C594 C585 1.429 . S
C594 N591 1.350 . S
C594 C593 1.434 . S
C595 C596 1.369 . S
C595 C597 1.419 . S
C595 H599 0.930 1_554 S
C596 C595 1.369 . S
C596 C605 1.429 . S
C597 C595 1.419 . S
C597 C598 1.363 . S
C597 H600 0.929 . S
C598 C597 1.363 . S
C598 C604 1.428 . S
H599 C595 0.930 1_556 S
H600 C597 0.929 . S
S601 N602 1.613 . S
S601 N603 1.610 . S
N602 S601 1.613 . S
N602 C605 1.350 . S
N603 S601 1.610 . S
N603 C604 1.351 . S
C604 C598 1.428 . S
C604 N603 1.351 . S
C604 C605 1.434 . S
C605 C596 1.429 . S
C605 N602 1.350 . S
C605 C604 1.434 . S
C606 C607 1.369 . S
C606 C608 1.419 . S
C606 H610 0.930 1_556 S
C607 C606 1.369 . S
C607 C616 1.429 . S
C608 C606 1.419 . S
C608 C609 1.363 . S
C608 H611 0.929 . S
C609 C608 1.363 . S
C609 C615 1.428 . S
H610 C606 0.930 1_554 S
H611 C608 0.929 . S
S612 N613 1.613 . S
S612 N614 1.610 . S
N613 S612 1.613 . S
N613 C616 1.350 . S
N614 S612 1.610 . S
N614 C615 1.351 . S
C615 C609 1.428 . S
C615 N614 1.351 . S
C615 C616 1.434 . S
C616 C607 1.429 . S
C616 N613 1.350 . S
C616 C615 1.434 . S
C617 C618 1.369 . S
C617 C619 1.419 . S
C617 H621 0.930 . S
C618 C617 1.369 . S
C618 C627 1.429 . S
C619 C617 1.419 . S
C619 C620 1.363 . S
C619 H622 0.929 . S
C620 C619 1.363 . S
C620 C626 1.428 . S
H621 C617 0.930 . S
H622 C619 0.929 . S
S623 N624 1.613 . S
S623 N625 1.610 1_556 S
N624 S623 1.613 . S
N624 C627 1.350 1_556 S
N625 S623 1.610 1_554 S
N625 C626 1.351 . S
C626 C620 1.428 . S
C626 N625 1.351 . S
C626 C627 1.434 . S
C627 C618 1.429 . S
C627 N624 1.350 1_554 S
C627 C626 1.434 . S
C628 C629 1.369 . S
C628 C630 1.419 . S
C628 H632 0.930 . S
C629 C628 1.369 . S
C629 C638 1.429 . S
C630 C628 1.419 . S
C630 C631 1.363 . S
C630 H633 0.929 . S
C631 C630 1.363 . S
C631 C637 1.428 . S
H632 C628 0.930 . S
H633 C630 0.929 . S
S634 N635 1.613 . S
S634 N636 1.610 . S
N635 S634 1.613 . S
N635 C638 1.350 . S
N636 S634 1.610 . S
N636 C637 1.351 . S
C637 C631 1.428 . S
C637 N636 1.351 . S
C637 C638 1.434 . S
C638 C629 1.429 . S
C638 N635 1.350 . S
C638 C637 1.434 . S
C639 C640 1.369 . S
C639 C641 1.419 . S
C639 H643 0.930 . S
C640 C639 1.369 . S
C640 C649 1.429 . S
C641 C639 1.419 . S
C641 C642 1.363 . S
C641 H644 0.929 . S
C642 C641 1.363 . S
C642 C648 1.428 . S
H643 C639 0.930 . S
H644 C641 0.929 . S
S645 N646 1.613 . S
S645 N647 1.610 . S
N646 S645 1.613 . S
N646 C649 1.350 . S
N647 S645 1.610 . S
N647 C648 1.351 . S
C648 C642 1.428 . S
C648 N647 1.351 . S
C648 C649 1.434 . S
C649 C640 1.429 . S
C649 N646 1.350 . S
C649 C648 1.434 . S
C650 C651 1.369 . S
C650 C652 1.419 . S
C650 H654 0.930 . S
C651 C650 1.369 . S
C651 C660 1.429 . S
C652 C650 1.419 . S
C652 C653 1.363 . S
C652 H655 0.929 . S
C653 C652 1.363 . S
C653 C659 1.428 . S
H654 C650 0.930 . S
H655 C652 0.929 . S
S656 N657 1.613 . S
S656 N658 1.610 . S
N657 S656 1.613 . S
N657 C660 1.350 . S
N658 S656 1.610 . S
N658 C659 1.351 . S
C659 C653 1.428 . S
C659 N658 1.351 . S
C659 C660 1.434 . S
C660 C651 1.429 . S
C660 N657 1.350 . S
C660 C659 1.434 . S
C661 C662 1.369 . S
C661 C663 1.419 . S
C661 H665 0.930 . S
C662 C661 1.369 . S
C662 C671 1.429 . S
C663 C661 1.419 . S
C663 C664 1.363 . S
C663 H666 0.929 . S
C664 C663 1.363 . S
C664 C670 1.428 . S
H665 C661 0.930 . S
H666 C663 0.929 . S
S667 N668 1.613 . S
S667 N669 1.610 . S
N668 S667 1.613 . S
N668 C671 1.350 . S
N669 S667 1.610 . S
N669 C670 1.351 . S
C670 C664 1.428 . S
C670 N669 1.351 . S
C670 C671 1.434 . S
C671 C662 1.429 . S
C671 N668 1.350 . S
C671 C670 1.434 . S
C672 C673 1.369 . S
C672 C674 1.419 . S
C672 H676 0.930 . S
C673 C672 1.369 . S
C673 C682 1.429 . S
C674 C672 1.419 . S
C674 C675 1.363 . S
C674 H677 0.929 . S
C675 C674 1.363 . S
C675 C681 1.428 . S
H676 C672 0.930 . S
H677 C674 0.929 . S
S678 N679 1.613 . S
S678 N680 1.610 . S
N679 S678 1.613 . S
N679 C682 1.350 . S
N680 S678 1.610 . S
N680 C681 1.351 . S
C681 C675 1.428 . S
C681 N680 1.351 . S
C681 C682 1.434 . S
C682 C673 1.429 . S
C682 N679 1.350 . S
C682 C681 1.434 . S
C683 C684 1.369 . S
C683 C685 1.419 . S
C683 H687 0.930 . S
C684 C683 1.369 . S
C684 C693 1.429 . S
C685 C683 1.419 . S
C685 C686 1.363 . S
C685 H688 0.929 . S
C686 C685 1.363 . S
C686 C692 1.428 . S
H687 C683 0.930 . S
H688 C685 0.929 . S
S689 N690 1.613 . S
S689 N691 1.610 . S
N690 S689 1.613 . S
N690 C693 1.350 . S
N691 S689 1.610 . S
N691 C692 1.351 . S
C692 C686 1.428 . S
C692 N691 1.351 . S
C692 C693 1.434 . S
C693 C684 1.429 . S
C693 N690 1.350 . S
C693 C692 1.434 . S
C694 C695 1.369 . S
C694 C696 1.419 . S
C694 H698 0.930 . S
C695 C694 1.369 . S
C695 C704 1.429 . S
C696 C694 1.419 . S
C696 C697 1.363 . S
C696 H699 0.929 . S
C697 C696 1.363 . S
C697 C703 1.428 . S
H698 C694 0.930 . S
H699 C696 0.929 . S
S700 N701 1.613 . S
S700 N702 1.610 . S
N701 S700 1.613 . S
N701 C704 1.350 . S
N702 S700 1.610 . S
N702 C703 1.351 . S
C703 C697 1.428 . S
C703 N702 1.351 . S
C703 C704 1.434 . S
C704 C695 1.429 . S
C704 N701 1.350 . S
C704 C703 1.434 . S
C705 C706 1.369 . S
C705 C707 1.419 . S
C705 H709 0.930 . S
C706 C705 1.369 . S
C706 C715 1.429 . S
C707 C705 1.419 . S
C707 C708 1.363 . S
C707 H710 0.929 . S
C708 C707 1.363 . S
C708 C714 1.428 . S
H709 C705 0.930 . S
H710 C707 0.929 . S
S711 N712 1.613 . S
S711 N713 1.610 . S
N712 S711 1.613 . S
N712 C715 1.350 . S
N713 S711 1.610 . S
N713 C714 1.351 . S
C714 C708 1.428 . S
C714 N713 1.351 . S
C714 C715 1.434 . S
C715 C706 1.429 . S
C715 N712 1.350 . S
C715 C714 1.434 . S
C716 C717 1.369 . S
C716 C718 1.419 . S
C716 H720 0.930 . S
C717 C716 1.369 . S
C717 C726 1.429 . S
C718 C716 1.419 . S
C718 C719 1.363 . S
C718 H721 0.929 . S
C719 C718 1.363 . S
C719 C725 1.428 . S
H720 C716 0.930 . S
H721 C718 0.929 . S
S722 N723 1.613 . S
S722 N724 1.610 . S
N723 S722 1.613 . S
N723 C726 1.350 . S
N724 S722 1.610 . S
N724 C725 1.351 . S
C725 C719 1.428 . S
C725 N724 1.351 . S
C725 C726 1.434 . S
C726 C717 1.429 . S
C726 N723 1.350 . S
C726 C725 1.434 . S
C727 C728 1.369 . S
C727 C729 1.419 . S
C727 H731 0.930 . S
C728 C727 1.369 . S
C728 C737 1.429 . S
C729 C727 1.419 . S
C729 C730 1.363 . S
C729 H732 0.929 . S
C730 C729 1.363 . S
C730 C736 1.428 . S
H731 C727 0.930 . S
H732 C729 0.929 . S
S733 N734 1.613 . S
S733 N735 1.610 . S
N734 S733 1.613 . S
N734 C737 1.350 . S
N735 S733 1.610 . S
N735 C736 1.351 . S
C736 C730 1.428 . S
C736 N735 1.351 . S
C736 C737 1.434 . S
C737 C728 1.429 . S
C737 N734 1.350 . S
C737 C736 1.434 . S
C738 C739 1.369 . S
C738 C740 1.419 . S
C738 H742 0.930 . S
C739 C738 1.369 . S
C739 C748 1.429 . S
C740 C738 1.419 . S
C740 C741 1.363 . S
C740 H743 0.929 . S
C741 C740 1.363 . S
C741 C747 1.428 . S
H742 C738 0.930 . S
H743 C740 0.929 . S
S744 N745 1.613 . S
S744 N746 1.610 . S
N745 S744 1.613 . S
N745 C748 1.350 . S
N746 S744 1.610 . S
N746 C747 1.351 . S
C747 C741 1.428 . S
C747 N746 1.351 . S
C747 C748 1.434 . S
C748 C739 1.429 . S
C748 N745 1.350 . S
C748 C747 1.434 . S
C749 C750 1.369 . S
C749 C751 1.419 . S
C749 H753 0.930 . S
C750 C749 1.369 . S
C750 C759 1.429 . S
C751 C749 1.419 . S
C751 C752 1.363 . S
C751 H754 0.929 . S
C752 C751 1.363 . S
C752 C758 1.428 . S
H753 C749 0.930 . S
H754 C751 0.929 . S
S755 N756 1.613 . S
S755 N757 1.610 . S
N756 S755 1.613 . S
N756 C759 1.350 . S
N757 S755 1.610 . S
N757 C758 1.351 . S
C758 C752 1.428 . S
C758 N757 1.351 . S
C758 C759 1.434 . S
C759 C750 1.429 . S
C759 N756 1.350 . S
C759 C758 1.434 . S
C760 C761 1.369 . S
C760 C762 1.419 . S
C760 H764 0.930 . S
C761 C760 1.369 . S
C761 C770 1.429 . S
C762 C760 1.419 . S
C762 C763 1.363 . S
C762 H765 0.929 . S
C763 C762 1.363 . S
C763 C769 1.428 . S
H764 C760 0.930 . S
H765 C762 0.929 . S
S766 N767 1.613 . S
S766 N768 1.610 . S
N767 S766 1.613 . S
N767 C770 1.350 . S
N768 S766 1.610 . S
N768 C769 1.351 . S
C769 C763 1.428 . S
C769 N768 1.351 . S
C769 C770 1.434 . S
C770 C761 1.429 . S
C770 N767 1.350 . S
C770 C769 1.434 . S
C771 C772 1.369 . S
C771 C773 1.419 . S
C771 H775 0.930 . S
C772 C771 1.369 . S
C772 C781 1.429 . S
C773 C771 1.419 . S
C773 C774 1.363 . S
C773 H776 0.929 . S
C774 C773 1.363 . S
C774 C780 1.428 . S
H775 C771 0.930 . S
H776 C773 0.929 . S
S777 N778 1.613 . S
S777 N779 1.610 1_556 S
N778 S777 1.613 . S
N778 C781 1.350 . S
N779 S777 1.610 1_554 S
N779 C780 1.351 1_554 S
C780 C774 1.428 . S
C780 N779 1.351 1_556 S
C780 C781 1.434 . S
C781 C772 1.429 . S
C781 N778 1.350 . S
C781 C780 1.434 . S
C782 C783 1.369 . S
C782 C784 1.419 . S
C782 H786 0.930 . S
C783 C782 1.369 . S
C783 C792 1.429 . S
C784 C782 1.419 . S
C784 C785 1.363 . S
C784 H787 0.929 . S
C785 C784 1.363 . S
C785 C791 1.428 . S
H786 C782 0.930 . S
H787 C784 0.929 . S
S788 N789 1.613 . S
S788 N790 1.610 . S
N789 S788 1.613 . S
N789 C792 1.350 . S
N790 S788 1.610 . S
N790 C791 1.351 . S
C791 C785 1.428 . S
C791 N790 1.351 . S
C791 C792 1.434 . S
C792 C783 1.429 . S
C792 N789 1.350 . S
C792 C791 1.434 . S
C793 C794 1.369 . S
C793 C795 1.419 . S
C793 H797 0.930 . S
C794 C793 1.369 . S
C794 C803 1.429 . S
C795 C793 1.419 . S
C795 C796 1.363 . S
C795 H798 0.929 . S
C796 C795 1.363 . S
C796 C802 1.428 . S
H797 C793 0.930 . S
H798 C795 0.929 . S
S799 N800 1.613 . S
S799 N801 1.610 . S
N800 S799 1.613 . S
N800 C803 1.350 . S
N801 S799 1.610 . S
N801 C802 1.351 . S
C802 C796 1.428 . S
C802 N801 1.351 . S
C802 C803 1.434 . S
C803 C794 1.429 . S
C803 N800 1.350 . S
C803 C802 1.434 . S
C804 C805 1.369 . S
C804 C806 1.419 . S
C804 H808 0.930 . S
C805 C804 1.369 . S
C805 C814 1.429 . S
C806 C804 1.419 . S
C806 C807 1.363 1_554 S
C806 H809 0.929 . S
C807 C806 1.363 1_556 S
C807 C813 1.428 1_556 S
H808 C804 0.930 . S
H809 C806 0.929 . S
S810 N811 1.613 . S
S810 N812 1.610 1_554 S
N811 S810 1.613 . S
N811 C814 1.350 . S
N812 S810 1.610 1_556 S
N812 C813 1.351 1_556 S
C813 C807 1.428 1_554 S
C813 N812 1.351 1_554 S
C813 C814 1.434 . S
C814 C805 1.429 . S
C814 N811 1.350 . S
C814 C813 1.434 . S
C815 C816 1.369 1_556 S
C815 C817 1.419 . S
C815 H819 0.930 . S
C816 C815 1.369 1_554 S
C816 C825 1.429 1_554 S
C817 C815 1.419 . S
C817 C818 1.363 . S
C817 H820 0.929 . S
C818 C817 1.363 . S
C818 C824 1.428 . S
H819 C815 0.930 . S
H820 C817 0.929 . S
S821 N822 1.613 1_556 S
S821 N823 1.610 . S
N822 S821 1.613 1_554 S
N822 C825 1.350 1_554 S
N823 S821 1.610 . S
N823 C824 1.351 . S
C824 C818 1.428 . S
C824 N823 1.351 . S
C824 C825 1.434 . S
C825 C816 1.429 1_556 S
C825 N822 1.350 1_556 S
C825 C824 1.434 . S
C826 C827 1.369 1_554 S
C826 C828 1.419 . S
C826 H830 0.930 . S
C827 C826 1.369 1_556 S
C827 C836 1.429 1_556 S
C828 C826 1.419 . S
C828 C829 1.363 . S
C828 H831 0.929 . S
C829 C828 1.363 . S
C829 C835 1.428 . S
H830 C826 0.930 . S
H831 C828 0.929 . S
S832 N833 1.613 . S
S832 N834 1.610 . S
N833 S832 1.613 . S
N833 C836 1.350 . S
N834 S832 1.610 . S
N834 C835 1.351 . S
C835 C829 1.428 . S
C835 N834 1.351 . S
C835 C836 1.434 . S
C836 C827 1.429 1_554 S
C836 N833 1.350 . S
C836 C835 1.434 . S
C837 C838 1.369 . S
C837 C839 1.419 . S
C837 H841 0.930 . S
C838 C837 1.369 . S
C838 C847 1.429 . S
C839 C837 1.419 . S
C839 C840 1.363 1_556 S
C839 H842 0.929 . S
C840 C839 1.363 1_554 S
C840 C846 1.428 1_554 S
H841 C837 0.930 . S
H842 C839 0.929 . S
S843 N844 1.613 . S
S843 N845 1.610 . S
N844 S843 1.613 . S
N844 C847 1.350 . S
N845 S843 1.610 . S
N845 C846 1.351 . S
C846 C840 1.428 1_556 S
C846 N845 1.351 . S
C846 C847 1.434 . S
C847 C838 1.429 . S
C847 N844 1.350 . S
C847 C846 1.434 . S
C321 C226 1.537 . S
C323 C9 1.623 . S
C332 C176 1.537 . S
C334 C21 1.623 . S
C343 C49 1.622 . S
C345 C186 1.535 . S
C354 C61 1.629 . S
C356 C216 1.527 . S
C365 C89 1.624 . S
C367 C106 1.534 . S
C376 C136 1.526 . S
C378 C101 1.627 . S
C387 C129 1.622 . S
C389 C146 1.535 . S
C398 C96 1.537 . S
C400 C141 1.623 . S
C409 C66 1.524 . S
C411 C169 1.629 . S
C420 C181 1.627 . S
C422 C16 1.528 . S
C431 C26 1.532 . S
C433 C209 1.625 . S
C442 C56 1.525 . S
C444 C221 1.628 . S
C453 C249 1.623 . S
C455 C266 1.535 . S
C464 C296 1.528 . S
C466 C261 1.628 . S
C475 C306 1.535 . S
C477 C289 1.624 . S
C486 C301 1.627 . S
C488 C256 1.530 . S
C497 C1 1.599 . S
C499 C81 1.604 . S
C508 C109 1.598 . S
C510 C29 1.606 . S
C519 C41 1.607 . S
C521 C121 1.599 . S
C530 C69 1.607 . S
C532 C149 1.598 . S
C541 C161 1.607 . S
C543 C241 1.598 . S
C552 C269 1.606 . S
C554 C189 1.599 . S
C563 C201 1.605 . S
C565 C281 1.599 . S
C574 C229 1.607 . S
C576 C309 1.598 . S
C585 C286 1.467 . S
C587 C6 1.471 . S
C596 C36 1.474 . S
C598 C316 1.466 . S
C607 C46 1.473 . S
C609 C246 1.466 . S
C618 C76 1.466 . S
C620 C276 1.472 . S
C629 C86 1.470 . S
C631 C206 1.469 . S
C640 C116 1.465 . S
C642 C236 1.473 . S
C651 C126 1.467 . S
C653 C166 1.471 . S
C662 C196 1.472 . S
C664 C156 1.467 . S
C673 C8 1.777 . S
C675 C19 1.767 . S
C684 C39 1.773 . S
C686 C28 1.771 . S
C695 C48 1.769 . S
C697 C59 1.774 . S
C706 C68 1.766 . S
C708 C79 1.775 . S
C717 C99 1.773 . S
C719 C88 1.771 . S
C728 C119 1.776 . S
C730 C108 1.767 . S
C739 C128 1.767 . S
C741 C139 1.775 . S
C750 C148 1.773 . S
C752 C159 1.770 . S
C761 C168 1.768 1_554 S
C763 C179 1.774 . S
C772 C188 1.777 . S
C774 C199 1.767 1_556 S
C783 C219 1.771 . S
C785 C208 1.772 1_554 S
C794 C239 1.767 1_556 S
C796 C228 1.774 . S
C805 C248 1.777 . S
C807 C259 1.767 . S
C816 C268 1.771 . S
C818 C279 1.772 . S
C827 C299 1.769 . S
C829 C288 1.773 . S
C838 C319 1.770 . S
C840 C308 1.773 . S
