# Generated by pormake.
# Topology wio, (6)-cn, num edge types: 1
# Building blocks:
#     Node 0, Type 0, BuildingBlock: BETDEL_clean_sbu_0, # of connection points: 6
#     Node 1, Type 0, BuildingBlock: BETDEL_clean_sbu_0, # of connection points: 6
#     Node 2, Type 0, BuildingBlock: BETDEL_clean_sbu_0, # of connection points: 6
#     Node 3, Type 0, BuildingBlock: BETDEL_clean_sbu_0, # of connection points: 6
#     Node 4, Type 0, BuildingBlock: BETDEL_clean_sbu_0, # of connection points: 6
#     Node 5, Type 0, BuildingBlock: BETDEL_clean_sbu_0, # of connection points: 6
#     Node 6, Type 0, BuildingBlock: BETDEL_clean_sbu_0, # of connection points: 6
#     Node 7, Type 0, BuildingBlock: BETDEL_clean_sbu_0, # of connection points: 6
#     Node 8, Type 0, BuildingBlock: BETDEL_clean_sbu_0, # of connection points: 6
#     Node 9, Type 0, BuildingBlock: BETDEL_clean_sbu_0, # of connection points: 6
#     Node 10, Type 0, BuildingBlock: BETDEL_clean_sbu_0, # of connection points: 6
#     Node 11, Type 0, BuildingBlock: BETDEL_clean_sbu_0, # of connection points: 6
#     Node 12, Type 0, BuildingBlock: BETDEL_clean_sbu_0, # of connection points: 6
#     Node 13, Type 0, BuildingBlock: BETDEL_clean_sbu_0, # of connection points: 6
#     Node 14, Type 0, BuildingBlock: BETDEL_clean_sbu_0, # of connection points: 6
#     Node 15, Type 0, BuildingBlock: BETDEL_clean_sbu_0, # of connection points: 6
#     Node 16, Type 0, BuildingBlock: BETDEL_clean_sbu_0, # of connection points: 6
#     Node 17, Type 0, BuildingBlock: BETDEL_clean_sbu_0, # of connection points: 6
#     Node 18, Type 0, BuildingBlock: BETDEL_clean_sbu_0, # of connection points: 6
#     Node 19, Type 0, BuildingBlock: BETDEL_clean_sbu_0, # of connection points: 6
#     Node 20, Type 0, BuildingBlock: BETDEL_clean_sbu_0, # of connection points: 6
#     Node 21, Type 0, BuildingBlock: BETDEL_clean_sbu_0, # of connection points: 6
#     Node 22, Type 0, BuildingBlock: BETDEL_clean_sbu_0, # of connection points: 6
#     Node 23, Type 0, BuildingBlock: BETDEL_clean_sbu_0, # of connection points: 6
#     Node 24, Type 0, BuildingBlock: BETDEL_clean_sbu_0, # of connection points: 6
#     Node 25, Type 0, BuildingBlock: BETDEL_clean_sbu_0, # of connection points: 6
#     Node 26, Type 0, BuildingBlock: BETDEL_clean_sbu_0, # of connection points: 6
#     Node 27, Type 0, BuildingBlock: BETDEL_clean_sbu_0, # of connection points: 6
#     Node 28, Type 0, BuildingBlock: BETDEL_clean_sbu_0, # of connection points: 6
#     Node 29, Type 0, BuildingBlock: BETDEL_clean_sbu_0, # of connection points: 6
#     Node 30, Type 0, BuildingBlock: BETDEL_clean_sbu_0, # of connection points: 6
#     Node 31, Type 0, BuildingBlock: BETDEL_clean_sbu_0, # of connection points: 6
#     Edge 32, Type (0, 0), BuildingBlock: OJICUG_clean_linker_0, # of connection points: 2
#     Edge 33, Type (0, 0), BuildingBlock: OJICUG_clean_linker_0, # of connection points: 2
#     Edge 34, Type (0, 0), BuildingBlock: OJICUG_clean_linker_0, # of connection points: 2
#     Edge 35, Type (0, 0), BuildingBlock: OJICUG_clean_linker_0, # of connection points: 2
#     Edge 36, Type (0, 0), BuildingBlock: OJICUG_clean_linker_0, # of connection points: 2
#     Edge 37, Type (0, 0), BuildingBlock: OJICUG_clean_linker_0, # of connection points: 2
#     Edge 38, Type (0, 0), BuildingBlock: OJICUG_clean_linker_0, # of connection points: 2
#     Edge 39, Type (0, 0), BuildingBlock: OJICUG_clean_linker_0, # of connection points: 2
#     Edge 40, Type (0, 0), BuildingBlock: OJICUG_clean_linker_0, # of connection points: 2
#     Edge 41, Type (0, 0), BuildingBlock: OJICUG_clean_linker_0, # of connection points: 2
#     Edge 42, Type (0, 0), BuildingBlock: OJICUG_clean_linker_0, # of connection points: 2
#     Edge 43, Type (0, 0), BuildingBlock: OJICUG_clean_linker_0, # of connection points: 2
#     Edge 44, Type (0, 0), BuildingBlock: OJICUG_clean_linker_0, # of connection points: 2
#     Edge 45, Type (0, 0), BuildingBlock: OJICUG_clean_linker_0, # of connection points: 2
#     Edge 46, Type (0, 0), BuildingBlock: OJICUG_clean_linker_0, # of connection points: 2
#     Edge 47, Type (0, 0), BuildingBlock: OJICUG_clean_linker_0, # of connection points: 2
#     Edge 48, Type (0, 0), BuildingBlock: OJICUG_clean_linker_0, # of connection points: 2
#     Edge 49, Type (0, 0), BuildingBlock: OJICUG_clean_linker_0, # of connection points: 2
#     Edge 50, Type (0, 0), BuildingBlock: OJICUG_clean_linker_0, # of connection points: 2
#     Edge 51, Type (0, 0), BuildingBlock: OJICUG_clean_linker_0, # of connection points: 2
#     Edge 52, Type (0, 0), BuildingBlock: OJICUG_clean_linker_0, # of connection points: 2
#     Edge 53, Type (0, 0), BuildingBlock: OJICUG_clean_linker_0, # of connection points: 2
#     Edge 54, Type (0, 0), BuildingBlock: OJICUG_clean_linker_0, # of connection points: 2
#     Edge 55, Type (0, 0), BuildingBlock: OJICUG_clean_linker_0, # of connection points: 2
#     Edge 56, Type (0, 0), BuildingBlock: OJICUG_clean_linker_0, # of connection points: 2
#     Edge 57, Type (0, 0), BuildingBlock: OJICUG_clean_linker_0, # of connection points: 2
#     Edge 58, Type (0, 0), BuildingBlock: OJICUG_clean_linker_0, # of connection points: 2
#     Edge 59, Type (0, 0), BuildingBlock: OJICUG_clean_linker_0, # of connection points: 2
#     Edge 60, Type (0, 0), BuildingBlock: OJICUG_clean_linker_0, # of connection points: 2
#     Edge 61, Type (0, 0), BuildingBlock: OJICUG_clean_linker_0, # of connection points: 2
#     Edge 62, Type (0, 0), BuildingBlock: OJICUG_clean_linker_0, # of connection points: 2
#     Edge 63, Type (0, 0), BuildingBlock: OJICUG_clean_linker_0, # of connection points: 2
#     Edge 64, Type (0, 0), BuildingBlock: OJICUG_clean_linker_0, # of connection points: 2
#     Edge 65, Type (0, 0), BuildingBlock: OJICUG_clean_linker_0, # of connection points: 2
#     Edge 66, Type (0, 0), BuildingBlock: OJICUG_clean_linker_0, # of connection points: 2
#     Edge 67, Type (0, 0), BuildingBlock: OJICUG_clean_linker_0, # of connection points: 2
#     Edge 68, Type (0, 0), BuildingBlock: OJICUG_clean_linker_0, # of connection points: 2
#     Edge 69, Type (0, 0), BuildingBlock: OJICUG_clean_linker_0, # of connection points: 2
#     Edge 70, Type (0, 0), BuildingBlock: OJICUG_clean_linker_0, # of connection points: 2
#     Edge 71, Type (0, 0), BuildingBlock: OJICUG_clean_linker_0, # of connection points: 2
#     Edge 72, Type (0, 0), BuildingBlock: OJICUG_clean_linker_0, # of connection points: 2
#     Edge 73, Type (0, 0), BuildingBlock: OJICUG_clean_linker_0, # of connection points: 2
#     Edge 74, Type (0, 0), BuildingBlock: OJICUG_clean_linker_0, # of connection points: 2
#     Edge 75, Type (0, 0), BuildingBlock: OJICUG_clean_linker_0, # of connection points: 2
#     Edge 76, Type (0, 0), BuildingBlock: OJICUG_clean_linker_0, # of connection points: 2
#     Edge 77, Type (0, 0), BuildingBlock: OJICUG_clean_linker_0, # of connection points: 2
#     Edge 78, Type (0, 0), BuildingBlock: OJICUG_clean_linker_0, # of connection points: 2
#     Edge 79, Type (0, 0), BuildingBlock: OJICUG_clean_linker_0, # of connection points: 2
#     Edge 80, Type (0, 0), BuildingBlock: OJICUG_clean_linker_0, # of connection points: 2
#     Edge 81, Type (0, 0), BuildingBlock: OJICUG_clean_linker_0, # of connection points: 2
#     Edge 82, Type (0, 0), BuildingBlock: OJICUG_clean_linker_0, # of connection points: 2
#     Edge 83, Type (0, 0), BuildingBlock: OJICUG_clean_linker_0, # of connection points: 2
#     Edge 84, Type (0, 0), BuildingBlock: OJICUG_clean_linker_0, # of connection points: 2
#     Edge 85, Type (0, 0), BuildingBlock: OJICUG_clean_linker_0, # of connection points: 2
#     Edge 86, Type (0, 0), BuildingBlock: OJICUG_clean_linker_0, # of connection points: 2
#     Edge 87, Type (0, 0), BuildingBlock: OJICUG_clean_linker_0, # of connection points: 2
#     Edge 88, Type (0, 0), BuildingBlock: OJICUG_clean_linker_0, # of connection points: 2
#     Edge 89, Type (0, 0), BuildingBlock: OJICUG_clean_linker_0, # of connection points: 2
#     Edge 90, Type (0, 0), BuildingBlock: OJICUG_clean_linker_0, # of connection points: 2
#     Edge 91, Type (0, 0), BuildingBlock: OJICUG_clean_linker_0, # of connection points: 2
#     Edge 92, Type (0, 0), BuildingBlock: OJICUG_clean_linker_0, # of connection points: 2
#     Edge 93, Type (0, 0), BuildingBlock: OJICUG_clean_linker_0, # of connection points: 2
#     Edge 94, Type (0, 0), BuildingBlock: OJICUG_clean_linker_0, # of connection points: 2
#     Edge 95, Type (0, 0), BuildingBlock: OJICUG_clean_linker_0, # of connection points: 2
#     Edge 96, Type (0, 0), BuildingBlock: OJICUG_clean_linker_0, # of connection points: 2
#     Edge 97, Type (0, 0), BuildingBlock: OJICUG_clean_linker_0, # of connection points: 2
#     Edge 98, Type (0, 0), BuildingBlock: OJICUG_clean_linker_0, # of connection points: 2
#     Edge 99, Type (0, 0), BuildingBlock: OJICUG_clean_linker_0, # of connection points: 2
#     Edge 100, Type (0, 0), BuildingBlock: OJICUG_clean_linker_0, # of connection points: 2
#     Edge 101, Type (0, 0), BuildingBlock: OJICUG_clean_linker_0, # of connection points: 2
#     Edge 102, Type (0, 0), BuildingBlock: OJICUG_clean_linker_0, # of connection points: 2
#     Edge 103, Type (0, 0), BuildingBlock: OJICUG_clean_linker_0, # of connection points: 2
#     Edge 104, Type (0, 0), BuildingBlock: OJICUG_clean_linker_0, # of connection points: 2
#     Edge 105, Type (0, 0), BuildingBlock: OJICUG_clean_linker_0, # of connection points: 2
#     Edge 106, Type (0, 0), BuildingBlock: OJICUG_clean_linker_0, # of connection points: 2
#     Edge 107, Type (0, 0), BuildingBlock: OJICUG_clean_linker_0, # of connection points: 2
#     Edge 108, Type (0, 0), BuildingBlock: OJICUG_clean_linker_0, # of connection points: 2
#     Edge 109, Type (0, 0), BuildingBlock: OJICUG_clean_linker_0, # of connection points: 2
#     Edge 110, Type (0, 0), BuildingBlock: OJICUG_clean_linker_0, # of connection points: 2
#     Edge 111, Type (0, 0), BuildingBlock: OJICUG_clean_linker_0, # of connection points: 2
#     Edge 112, Type (0, 0), BuildingBlock: OJICUG_clean_linker_0, # of connection points: 2
#     Edge 113, Type (0, 0), BuildingBlock: OJICUG_clean_linker_0, # of connection points: 2
#     Edge 114, Type (0, 0), BuildingBlock: OJICUG_clean_linker_0, # of connection points: 2
#     Edge 115, Type (0, 0), BuildingBlock: OJICUG_clean_linker_0, # of connection points: 2
#     Edge 116, Type (0, 0), BuildingBlock: OJICUG_clean_linker_0, # of connection points: 2
#     Edge 117, Type (0, 0), BuildingBlock: OJICUG_clean_linker_0, # of connection points: 2
#     Edge 118, Type (0, 0), BuildingBlock: OJICUG_clean_linker_0, # of connection points: 2
#     Edge 119, Type (0, 0), BuildingBlock: OJICUG_clean_linker_0, # of connection points: 2
#     Edge 120, Type (0, 0), BuildingBlock: OJICUG_clean_linker_0, # of connection points: 2
#     Edge 121, Type (0, 0), BuildingBlock: OJICUG_clean_linker_0, # of connection points: 2
#     Edge 122, Type (0, 0), BuildingBlock: OJICUG_clean_linker_0, # of connection points: 2
#     Edge 123, Type (0, 0), BuildingBlock: OJICUG_clean_linker_0, # of connection points: 2
#     Edge 124, Type (0, 0), BuildingBlock: OJICUG_clean_linker_0, # of connection points: 2
#     Edge 125, Type (0, 0), BuildingBlock: OJICUG_clean_linker_0, # of connection points: 2
#     Edge 126, Type (0, 0), BuildingBlock: OJICUG_clean_linker_0, # of connection points: 2
#     Edge 127, Type (0, 0), BuildingBlock: OJICUG_clean_linker_0, # of connection points: 2
# Relax obj value: 0.203
# Max RMSD: 0.222
# Mean RMSD: 0.222
data_MOF--net-wio--node1-BETDEL_clean_sbu_0--edge1-OJICUG_clean_linker_0
_symmetry_space_group_name_H-M    P1
_symmetry_Int_Tables_number       1
_symmetry_cell_setting            triclinic
loop_
_symmetry_equiv_pos_as_xyz
'x, y, z'
_cell_length_a     40.379817
_cell_length_b     40.335057
_cell_length_c     32.030248
_cell_angle_alpha  90.060166
_cell_angle_beta   90.054243
_cell_angle_gamma 90.07219
loop_
_atom_site_label
_atom_site_type_symbol
_atom_site_fract_x
_atom_site_fract_y
_atom_site_fract_z
_atom_type_partial_charge
Dy0 Dy 0.16584 0.10839 0.33146 0.0
C1 C 0.0258 0.11699 0.377 0.0
C2 C 0.22586 0.08947 0.29869 0.0
Dy3 Dy 0.09084 0.11115 0.35626 0.0
O4 O 0.22124 0.11482 0.32326 0.0
O5 O 0.19794 0.07402 0.29357 0.0
O6 O 0.16874 0.16394 0.33376 0.0
O7 O 0.13486 0.13921 0.37194 0.0
C8 C 0.14372 0.16723 0.35898 0.0
C9 C 0.11468 0.05334 0.33182 0.0
O10 O 0.08917 0.13589 0.29336 0.0
O11 O 0.14191 0.12104 0.27031 0.0
O12 O 0.03767 0.09731 0.34877 0.0
O13 O 0.04954 0.13482 0.3931 0.0
O14 O 0.09165 0.05589 0.35976 0.0
O15 O 0.12161 0.08099 0.31643 0.0
O16 O 0.16474 0.07878 0.39203 0.0
O17 O 0.11348 0.09659 0.41695 0.0
C18 C 0.11185 0.13318 0.26356 0.0
C19 C 0.14141 0.07965 0.4216 0.0
Dy20 Dy 0.12049 0.91678 0.58442 0.0
C21 C 0.10951 0.77692 0.62813 0.0
C22 C 0.13273 0.97607 0.54533 0.0
Dy23 Dy 0.11823 0.84165 0.60713 0.0
O24 O 0.10372 0.96547 0.55703 0.0
O25 O 0.1552 0.95462 0.55603 0.0
O26 O 0.08319 0.92614 0.63501 0.0
O27 O 0.08197 0.88104 0.60184 0.0
C28 C 0.06957 0.89699 0.63176 0.0
C29 C 0.1771 0.86634 0.5873 0.0
O30 O 0.10154 0.83777 0.54065 0.0
O31 O 0.10437 0.89404 0.52328 0.0
O32 O 0.128 0.78771 0.59794 0.0
O33 O 0.09417 0.80166 0.64578 0.0
O34 O 0.17343 0.84264 0.61417 0.0
O35 O 0.14998 0.87353 0.57079 0.0
O36 O 0.15263 0.91476 0.64231 0.0
O37 O 0.12974 0.86617 0.6683 0.0
C38 C 0.0992 0.86241 0.51337 0.0
C39 C 0.14929 0.89244 0.67267 0.0
Dy40 Dy 0.31309 0.86931 0.83466 0.0
C41 C 0.45299 0.86045 0.87931 0.0
C42 C 0.25376 0.88093 0.7954 0.0
Dy43 Dy 0.38823 0.86817 0.85801 0.0
O44 O 0.26494 0.8519 0.80617 0.0
O45 O 0.27465 0.90369 0.80711 0.0
O46 O 0.30415 0.83152 0.88483 0.0
O47 O 0.34933 0.83139 0.852 0.0
C48 C 0.33352 0.8185 0.88166 0.0
C49 C 0.36267 0.92684 0.83871 0.0
O50 O 0.39251 0.85159 0.79159 0.0
O51 O 0.33634 0.85392 0.77365 0.0
O52 O 0.442 0.87899 0.84927 0.0
O53 O 0.42847 0.84458 0.8967 0.0
O54 O 0.38633 0.92331 0.86569 0.0
O55 O 0.35596 0.8997 0.82176 0.0
O56 O 0.31462 0.90101 0.89302 0.0
O57 O 0.36331 0.87851 0.9191 0.0
C58 C 0.36803 0.84907 0.76407 0.0
C59 C 0.33686 0.89769 0.92351 0.0
Dy60 Dy 0.35887 0.06106 0.08672 0.0
C61 C 0.36537 0.20051 0.13406 0.0
C62 C 0.34772 0.00195 1.04659 0.0
Dy63 Dy 0.35824 0.13569 0.11213 0.0
O64 O 0.37663 0.01321 0.05782 0.0
O65 O 0.32486 0.02267 0.05819 0.0
O66 O 0.39668 0.05219 0.13701 0.0
O67 O 0.39586 0.09789 0.10531 0.0
C68 C 0.40901 0.08196 0.13465 0.0
C69 C 0.3002 0.10914 0.09146 0.0
O70 O 0.37478 0.14124 1.04568 0.0
O71 O 0.37473 0.08522 1.02658 0.0
O72 O 0.34635 0.1894 0.10451 0.0
O73 O 0.38182 0.17612 0.15083 0.0
O74 O 0.30327 0.13223 0.11937 0.0
O75 O 0.32753 0.1034 0.07453 0.0
O76 O 0.32726 0.06072 0.14486 0.0
O77 O 0.3479 0.10975 0.17275 0.0
C78 C 0.3786 0.1172 1.01773 0.0
C79 C 0.32991 0.08229 0.17621 0.0
Dy80 Dy 0.16781 0.87047 0.26583 0.0
C81 C 0.02792 0.86007 0.22196 0.0
C82 C 0.22705 0.88266 0.30523 0.0
Dy83 Dy 0.09275 0.86855 0.24246 0.0
O84 O 0.21619 0.85356 0.29406 0.0
O85 O 0.2059 0.90519 0.29383 0.0
O86 O 0.17691 0.83249 0.21579 0.0
O87 O 0.13181 0.8321 0.24875 0.0
C88 C 0.14765 0.81917 0.21915 0.0
C89 C 0.11782 0.92758 0.26108 0.0
O90 O 0.08859 0.85243 0.30907 0.0
O91 O 0.14473 0.8551 0.32697 0.0
O92 O 0.03899 0.87875 0.25189 0.0
O93 O 0.05243 0.84452 0.20414 0.0
O94 O 0.09409 0.9236 0.23427 0.0
O95 O 0.12478 0.90066 0.27838 0.0
O96 O 0.16622 0.90211 0.20753 0.0
O97 O 0.11762 0.87929 0.18134 0.0
C98 C 0.11306 0.85013 0.3366 0.0
C99 C 0.14393 0.89879 0.17707 0.0
Dy100 Dy 0.35977 0.9181 0.51728 0.0
C101 C 0.36848 0.77807 0.4731 0.0
C102 C 0.34852 0.97742 0.55702 0.0
Dy103 Dy 0.36091 0.84301 0.49388 0.0
O104 O 0.37741 0.9662 0.54583 0.0
O105 O 0.32568 0.95659 0.5454 0.0
O106 O 0.39744 0.92712 0.467 0.0
O107 O 0.3977 0.88191 0.49983 0.0
C108 C 0.41053 0.89775 0.47016 0.0
C109 C 0.30235 0.86844 0.51377 0.0
O110 O 0.37799 0.83864 0.56005 0.0
O111 O 0.37545 0.89479 0.57819 0.0
O112 O 0.34992 0.78927 0.50299 0.0
O113 O 0.3844 0.80248 0.45551 0.0
O114 O 0.30581 0.84489 0.48659 0.0
O115 O 0.32953 0.87516 0.53053 0.0
O116 O 0.32785 0.91654 0.45906 0.0
O117 O 0.3504 0.86789 0.43282 0.0
C118 C 0.38054 0.86308 0.58763 0.0
C119 C 0.33112 0.89431 0.42851 0.0
Dy120 Dy 0.3139 0.10996 0.76953 0.0
C121 C 0.45404 0.11924 0.72647 0.0
C122 C 0.25429 0.09863 0.80826 0.0
Dy123 Dy 0.38922 0.11119 0.74738 0.0
O124 O 0.26552 0.12754 0.79699 0.0
O125 O 0.27529 0.0758 0.79729 0.0
O126 O 0.3054 0.14748 0.71892 0.0
O127 O 0.35028 0.14791 0.7525 0.0
C128 C 0.33474 0.16062 0.72249 0.0
C129 C 0.36353 0.05257 0.76674 0.0
O130 O 0.3929 0.12798 0.8139 0.0
O131 O 0.33654 0.12592 0.83075 0.0
O132 O 0.44302 0.10063 0.75644 0.0
O133 O 0.42952 0.13501 0.70898 0.0
O134 O 0.38743 0.05601 0.74013 0.0
O135 O 0.35666 0.07977 0.78338 0.0
O136 O 0.31574 0.07793 0.71147 0.0
O137 O 0.3648 0.10015 0.686 0.0
C138 C 0.36814 0.13078 0.84093 0.0
C139 C 0.33825 0.08104 0.6813 0.0
Dy140 Dy 0.1193 0.06444 1.01805 0.0
C141 C 0.1078 0.204 0.97195 0.0
C142 C 0.13138 0.00511 0.05716 0.0
Dy143 Dy 0.1171 0.13961 0.99424 0.0
O144 O 0.1023 0.01605 1.04627 0.0
O145 O 0.15393 0.02631 1.04583 0.0
O146 O 0.08258 0.05438 0.96689 0.0
O147 O 0.08106 0.09989 0.99906 0.0
C148 C 0.06906 0.0836 0.96913 0.0
C149 C 0.1757 0.11534 1.01593 0.0
O150 O 0.09926 0.14382 0.06019 0.0
O151 O 0.10275 0.08778 0.07865 0.0
O152 O 0.12626 0.19382 1.00255 0.0
O153 O 0.09293 0.17884 0.95449 0.0
O154 O 0.17246 0.13897 0.98884 0.0
O155 O 0.14833 0.10808 1.03171 0.0
O156 O 0.15211 0.06636 0.96078 0.0
O157 O 0.12956 0.11472 0.93369 0.0
C158 C 0.09698 0.11945 0.0879 0.0
C159 C 0.14913 0.08845 0.93009 0.0
Dy160 Dy 0.88739 0.87075 0.74348 0.0
C161 C 0.75304 0.88325 0.80658 0.0
C162 C 0.9521 0.86288 0.72205 0.0
Dy163 Dy 0.81222 0.87142 0.767 0.0
O164 O 0.94119 0.88187 0.75173 0.0
O165 O 0.92755 0.84672 0.70508 0.0
O166 O 0.88521 0.92576 0.7349 0.0
O167 O 0.8548 0.90247 0.7791 0.0
C168 C 0.86141 0.92943 0.76161 0.0
C169 C 0.83321 0.82029 0.72069 0.0
O170 O 0.81322 0.90248 0.70816 0.0
O171 O 0.86214 0.8803 0.68231 0.0
O172 O 0.76394 0.85422 0.79528 0.0
O173 O 0.77412 0.9059 0.79517 0.0
O174 O 0.80368 0.83296 0.71729 0.0
O175 O 0.8488 0.83373 0.7502 0.0
O176 O 0.89188 0.85488 0.81021 0.0
O177 O 0.83567 0.85617 0.82797 0.0
C178 C 0.83543 0.89912 0.67768 0.0
C179 C 0.86743 0.85189 0.83764 0.0
Dy180 Dy 0.864 0.13768 0.49358 0.0
C181 C 0.84577 0.00228 0.5534 0.0
C182 C 0.87861 0.19818 0.4607 0.0
Dy183 Dy 0.85799 0.06155 0.51421 0.0
O184 O 0.86392 0.19338 0.49639 0.0
O185 O 0.88735 0.16987 0.4447 0.0
O186 O 0.80863 0.14155 0.49033 0.0
O187 O 0.83102 0.10635 0.52898 0.0
C188 C 0.80402 0.1162 0.5145 0.0
C189 C 0.90921 0.08064 0.46692 0.0
O190 O 0.82438 0.06526 0.45855 0.0
O191 O 0.84838 0.11356 0.43327 0.0
O192 O 0.87478 0.01289 0.54173 0.0
O193 O 0.8233 0.0237 0.54259 0.0
O194 O 0.8946 0.05205 0.46258 0.0
O195 O 0.8975 0.09604 0.49759 0.0
O196 O 0.88121 0.14038 0.56062 0.0
O197 O 0.8736 0.08397 0.57528 0.0
C198 C 0.82784 0.08805 0.42895 0.0
C199 C 0.88048 0.11491 0.58711 0.0
Dy200 Dy 0.58844 0.11259 0.24794 0.0
C201 C 0.7235 0.10028 0.30682 0.0
C202 C 0.52355 0.12064 0.22759 0.0
Dy203 Dy 0.66357 0.11143 0.26934 0.0
O204 O 0.53471 0.10207 0.2575 0.0
O205 O 0.54799 0.13643 0.20993 0.0
O206 O 0.58984 0.05741 0.24084 0.0
O207 O 0.62102 0.08117 0.28392 0.0
C208 C 0.61379 0.05398 0.26742 0.0
C209 C 0.64286 0.16165 0.2216 0.0
O210 O 0.66142 0.07915 0.21158 0.0
O211 O 0.61214 0.10094 0.18634 0.0
O212 O 0.71173 0.12929 0.29706 0.0
O213 O 0.70286 0.07731 0.29506 0.0
O214 O 0.67205 0.14831 0.21809 0.0
O215 O 0.62745 0.14945 0.25206 0.0
O216 O 0.58512 0.12909 0.31464 0.0
O217 O 0.64155 0.12703 0.33098 0.0
C218 C 0.63878 0.08205 0.18154 0.0
C219 C 0.61005 0.13177 0.34151 0.0
Dy220 Dy 0.61865 0.84373 0.99519 0.0
C221 C 0.62987 0.97855 0.05698 0.0
C222 C 0.61073 0.77883 0.97435 0.0
Dy223 Dy 0.61959 0.91881 1.01782 0.0
O224 O 0.62929 0.78995 1.00436 0.0
O225 O 0.59498 0.8033 0.95671 0.0
O226 O 0.67369 0.84552 0.98814 0.0
O227 O 0.65009 0.8762 1.03174 0.0
C228 C 0.67724 0.86923 1.0151 0.0
C229 C 0.56907 0.89784 0.9704 0.0
O230 O 0.65189 0.91717 0.96 0.0
O231 O 0.6296 0.86827 0.934 0.0
O232 O 0.60116 0.96665 1.04605 0.0
O233 O 0.65307 0.95819 1.04539 0.0
O234 O 0.58221 0.92718 0.96687 0.0
O235 O 0.58176 0.88244 1.00052 0.0
O236 O 0.60193 0.83953 0.06151 0.0
O237 O 0.60432 0.89579 0.07908 0.0
C238 C 0.64884 0.89474 0.92962 0.0
C239 C 0.59942 0.86411 0.08889 0.0
Dy240 Dy 0.88697 0.111 0.85696 0.0
C241 C 0.74941 0.09428 0.80737 0.0
C242 C 0.95231 0.11653 0.87679 0.0
Dy243 Dy 0.81038 0.11175 0.83903 0.0
O244 O 0.93957 0.09469 0.85175 0.0
O245 O 0.92932 0.13665 0.88996 0.0
O246 O 0.88467 0.05592 0.85871 0.0
O247 O 0.85253 0.08262 0.81944 0.0
C248 C 0.85954 0.05448 0.83355 0.0
C249 C 0.83768 0.16775 0.8691 0.0
O250 O 0.81272 0.08158 0.89894 0.0
O251 O 0.86677 0.09528 0.91876 0.0
O252 O 0.7558 0.12168 0.82755 0.0
O253 O 0.77584 0.07604 0.80681 0.0
O254 O 0.81207 0.16786 0.84434 0.0
O255 O 0.84477 0.13861 0.87874 0.0
O256 O 0.88669 0.13466 0.79258 0.0
O257 O 0.83168 0.12295 0.77648 0.0
C258 C 0.83801 0.08022 0.92587 0.0
C259 C 0.86188 0.13239 0.76532 0.0
Dy260 Dy 0.62101 0.13757 0.61256 0.0
C261 C 0.63295 0.00345 0.5494 0.0
C262 C 0.61332 0.20253 0.63323 0.0
Dy263 Dy 0.6216 0.06281 0.58899 0.0
O264 O 0.63221 0.19131 0.60369 0.0
O265 O 0.59723 0.17814 0.65058 0.0
O266 O 0.67608 0.13522 0.6199 0.0
O267 O 0.65231 0.10541 0.57555 0.0
C268 C 0.67957 0.11201 0.59227 0.0
C269 C 0.57094 0.08334 0.63628 0.0
O270 O 0.653 0.064 0.64772 0.0
O271 O 0.63115 0.11297 0.67395 0.0
O272 O 0.60404 0.01463 0.56055 0.0
O273 O 0.65575 0.02433 0.56099 0.0
O274 O 0.58389 0.0539 0.63933 0.0
O275 O 0.58383 0.09906 0.60655 0.0
O276 O 0.60404 0.14218 0.54623 0.0
O277 O 0.60552 0.08601 0.52817 0.0
C278 C 0.64958 0.086 0.67854 0.0
C279 C 0.60089 0.11777 0.51867 0.0
Dy280 Dy 0.59222 0.86974 0.35958 0.0
C281 C 0.72682 0.88156 0.29791 0.0
C282 C 0.52739 0.86175 0.38027 0.0
Dy283 Dy 0.66721 0.87083 0.33685 0.0
O284 O 0.53849 0.88043 0.35043 0.0
O285 O 0.55184 0.84592 0.39782 0.0
O286 O 0.59402 0.9248 0.36717 0.0
O287 O 0.62458 0.90137 0.32333 0.0
C288 C 0.61766 0.92847 0.34024 0.0
C289 C 0.64642 0.82009 0.38387 0.0
O290 O 0.6657 0.90283 0.395 0.0
O291 O 0.61686 0.88049 0.42085 0.0
O292 O 0.71508 0.85271 0.30857 0.0
O293 O 0.70635 0.90464 0.30962 0.0
O294 O 0.67574 0.83324 0.38745 0.0
O295 O 0.63093 0.83288 0.35389 0.0
O296 O 0.58796 0.85331 0.29306 0.0
O297 O 0.64414 0.85567 0.27551 0.0
C298 C 0.64337 0.89965 0.42538 0.0
C299 C 0.61247 0.85084 0.26567 0.0
Dy300 Dy 0.86136 0.84098 0.10824 0.0
C301 C 0.84754 0.97609 1.0485 0.0
C302 C 0.87063 0.77634 0.12924 0.0
Dy303 Dy 0.85947 0.91633 0.08641 0.0
O304 O 0.85189 0.78692 0.09914 0.0
O305 O 0.88586 0.80124 0.14678 0.0
O306 O 0.80621 0.84178 0.1151 0.0
O307 O 0.82967 0.87326 0.07224 0.0
C308 C 0.80257 0.86578 0.08863 0.0
C309 C 0.91027 0.89575 0.13346 0.0
O310 O 0.82741 0.91406 0.14421 0.0
O311 O 0.84978 0.86508 0.16965 0.0
O312 O 0.87656 0.96505 0.05946 0.0
O313 O 0.82492 0.95478 0.05923 0.0
O314 O 0.89692 0.92495 0.13727 0.0
O315 O 0.89766 0.88034 0.10325 0.0
O316 O 0.87792 0.8376 1.04166 0.0
O317 O 0.87536 0.89404 1.025 0.0
C318 C 0.83057 0.89151 0.17431 0.0
C319 C 0.88042 0.86247 1.0147 0.0
Dy320 Dy 0.6675 0.61131 0.83691 0.0
C321 C 0.52778 0.62091 0.88115 0.0
C322 C 0.72683 0.59972 0.7978 0.0
Dy323 Dy 0.59245 0.61263 0.86004 0.0
O324 O 0.71563 0.62875 0.80859 0.0
O325 O 0.70595 0.57695 0.80939 0.0
O326 O 0.6765 0.64904 0.88731 0.0
O327 O 0.6314 0.64933 0.85426 0.0
C328 C 0.64718 0.66216 0.88402 0.0
C329 C 0.6177 0.55393 0.8402 0.0
O330 O 0.58819 0.62938 0.79371 0.0
O331 O 0.64432 0.6268 0.77584 0.0
O332 O 0.53861 0.60227 0.85108 0.0
O333 O 0.55242 0.63652 0.89871 0.0
O334 O 0.59404 0.55743 0.86716 0.0
O335 O 0.62454 0.58113 0.82356 0.0
O336 O 0.66592 0.57935 0.89495 0.0
O337 O 0.61726 0.60179 0.92113 0.0
C338 C 0.61265 0.63184 0.76623 0.0
C339 C 0.64369 0.58254 0.92542 0.0
Dy340 Dy 0.62115 0.41849 0.08695 0.0
C341 C 0.60992 0.2791 0.13155 0.0
C342 C 0.63284 0.47793 1.04786 0.0
Dy343 Dy 0.61951 0.34369 0.11057 0.0
O344 O 0.60387 0.46679 0.05887 0.0
O345 O 0.65553 0.45693 0.05921 0.0
O346 O 0.58302 0.42752 0.1368 0.0
O347 O 0.58294 0.38244 0.10366 0.0
C348 C 0.56981 0.39821 0.13314 0.0
C349 C 0.67864 0.36872 0.09183 0.0
O350 O 0.60339 0.3391 1.04399 0.0
O351 O 0.60568 0.39524 1.02592 0.0
O352 O 0.62916 0.28966 0.10197 0.0
O353 O 0.5946 0.304 0.14883 0.0
O354 O 0.67447 0.34532 0.11902 0.0
O355 O 0.65171 0.37555 0.07439 0.0
O356 O 0.65217 0.4172 0.14574 0.0
O357 O 0.62961 0.36853 0.17195 0.0
C358 C 0.60081 0.36349 1.01642 0.0
C359 C 0.64849 0.39526 0.17647 0.0
Dy360 Dy 0.81148 0.36832 0.33547 0.0
C361 C 0.94777 0.37559 0.39365 0.0
C362 C 0.75142 0.38457 0.30063 0.0
Dy363 Dy 0.885 0.3735 0.36354 0.0
O364 O 0.75691 0.35835 0.32344 0.0
O365 O 0.77835 0.40198 0.29831 0.0
O366 O 0.8155 0.31245 0.33987 0.0
O367 O 0.84322 0.34267 0.38004 0.0
C368 C 0.83841 0.31336 0.36852 0.0
C369 C 0.85642 0.42835 0.33606 0.0
O370 O 0.89217 0.35216 0.29882 0.0
O371 O 0.83748 0.35589 0.27544 0.0
O372 O 0.93157 0.40032 0.37814 0.0
O373 O 0.93015 0.3485 0.39121 0.0
O374 O 0.87824 0.42825 0.36567 0.0
O375 O 0.85295 0.39993 0.32081 0.0
O376 O 0.8088 0.3993 0.39538 0.0
O377 O 0.85852 0.3814 0.42352 0.0
C378 C 0.86935 0.34959 0.26893 0.0
C379 C 0.83079 0.39869 0.42661 0.0
Dy380 Dy 0.85824 0.56369 0.58575 0.0
C381 C 0.87062 0.70375 0.63045 0.0
C382 C 0.84299 0.50502 0.54635 0.0
Dy383 Dy 0.86175 0.63895 0.60942 0.0
O384 O 0.87235 0.51372 0.55927 0.0
O385 O 0.82184 0.52809 0.55583 0.0
O386 O 0.89618 0.55354 0.63551 0.0
O387 O 0.89725 0.59894 0.60317 0.0
C388 C 0.90994 0.58267 0.63258 0.0
C389 C 0.80254 0.61502 0.58944 0.0
O390 O 0.87902 0.6425 0.54316 0.0
O391 O 0.87563 0.58626 0.52525 0.0
O392 O 0.85235 0.69294 0.59999 0.0
O393 O 0.88573 0.67899 0.64836 0.0
O394 O 0.80654 0.63855 0.61654 0.0
O395 O 0.82955 0.60761 0.57286 0.0
O396 O 0.82675 0.56607 0.64407 0.0
O397 O 0.85056 0.61419 0.67041 0.0
C398 C 0.88134 0.61788 0.51575 0.0
C399 C 0.83068 0.58816 0.67464 0.0
Dy400 Dy 0.66753 0.37153 0.76967 0.0
C401 C 0.52782 0.36136 0.72502 0.0
C402 C 0.72645 0.38292 0.81011 0.0
Dy403 Dy 0.59252 0.36973 0.74625 0.0
O404 O 0.71558 0.35403 0.79811 0.0
O405 O 0.70554 0.40572 0.79882 0.0
O406 O 0.67685 0.33406 0.71918 0.0
O407 O 0.63165 0.33326 0.75196 0.0
C408 C 0.6476 0.32067 0.72221 0.0
C409 C 0.61749 0.42852 0.76649 0.0
O410 O 0.58826 0.35268 0.81245 0.0
O411 O 0.64439 0.35534 0.83037 0.0
O412 O 0.53869 0.37999 0.75511 0.0
O413 O 0.55244 0.34578 0.70749 0.0
O414 O 0.59393 0.42495 0.73935 0.0
O415 O 0.62442 0.40132 0.78304 0.0
O416 O 0.66589 0.40368 0.71175 0.0
O417 O 0.61738 0.38085 0.68533 0.0
C418 C 0.61275 0.35013 0.83991 0.0
C419 C 0.64369 0.40035 0.68119 0.0
Dy420 Dy 0.85985 0.41614 1.02245 0.0
C421 C 0.87875 0.2816 0.9628 0.0
C422 C 0.84756 0.47536 0.06148 0.0
Dy423 Dy 0.86446 0.34129 0.99776 0.0
O424 O 0.87663 0.46478 1.05009 0.0
O425 O 0.82512 0.45375 1.05099 0.0
O426 O 0.89602 0.42684 0.97056 0.0
O427 O 0.89906 0.38195 1.00342 0.0
C428 C 0.91066 0.39821 0.97341 0.0
C429 C 0.80485 0.3627 1.0198 0.0
O430 O 0.88196 0.33666 0.06419 0.0
O431 O 0.87664 0.39263 0.08297 0.0
O432 O 0.86414 0.28564 0.99868 0.0
O433 O 0.8874 0.31019 0.94761 0.0
O434 O 0.80908 0.33844 0.99378 0.0
O435 O 0.83194 0.37149 1.03526 0.0
O436 O 0.82602 0.41441 0.96637 0.0
O437 O 0.84972 0.36707 0.93846 0.0
C438 C 0.88333 0.3611 0.09217 0.0
C439 C 0.82931 0.39268 0.93543 0.0
Dy440 Dy 0.81327 0.61057 0.26919 0.0
C441 C 0.95312 0.61833 0.22288 0.0
C442 C 0.75408 0.59915 0.30883 0.0
Dy443 Dy 0.88847 0.61096 0.24492 0.0
O444 O 0.76529 0.62812 0.29777 0.0
O445 O 0.77489 0.57634 0.29727 0.0
O446 O 0.80442 0.64863 0.2194 0.0
O447 O 0.84997 0.64807 0.25158 0.0
C448 C 0.83403 0.66125 0.22221 0.0
C449 C 0.86209 0.55246 0.26329 0.0
O450 O 0.89331 0.62711 0.31152 0.0
O451 O 0.83719 0.62581 0.32987 0.0
O452 O 0.94222 0.59963 0.25282 0.0
O453 O 0.92861 0.63451 0.20597 0.0
O454 O 0.88592 0.55584 0.23655 0.0
O455 O 0.85585 0.57954 0.2807 0.0
O456 O 0.81387 0.57919 0.21068 0.0
O457 O 0.86264 0.60129 0.18415 0.0
C458 C 0.86903 0.63013 0.33918 0.0
C459 C 0.83594 0.58231 0.18003 0.0
Dy460 Dy 0.62014 0.56395 0.51904 0.0
C461 C 0.6098 0.70378 0.47462 0.0
C462 C 0.63212 0.50468 0.55838 0.0
Dy463 Dy 0.61836 0.63909 0.49586 0.0
O464 O 0.60308 0.51555 0.54719 0.0
O465 O 0.65469 0.52585 0.54703 0.0
O466 O 0.58254 0.55473 0.46855 0.0
O467 O 0.58194 0.59987 0.5016 0.0
C468 C 0.56923 0.584 0.47182 0.0
C469 C 0.67709 0.61425 0.51597 0.0
O470 O 0.60156 0.64326 0.56218 0.0
O471 O 0.60438 0.58707 0.58004 0.0
O472 O 0.62831 0.69306 0.50486 0.0
O473 O 0.59443 0.67901 0.45697 0.0
O474 O 0.67351 0.63791 0.48901 0.0
O475 O 0.64993 0.60719 0.53248 0.0
O476 O 0.65227 0.56571 0.46119 0.0
O477 O 0.62964 0.61427 0.43486 0.0
C478 C 0.5992 0.61875 0.58965 0.0
C479 C 0.64909 0.58796 0.43072 0.0
Dy480 Dy 0.39021 0.36825 0.24585 0.0
C481 C 0.2565 0.38652 0.3079 0.0
C482 C 0.45486 0.35939 0.225 0.0
Dy483 Dy 0.3152 0.37156 0.2692 0.0
O484 O 0.44413 0.37764 0.25548 0.0
O485 O 0.43009 0.34425 0.20703 0.0
O486 O 0.39009 0.42351 0.23904 0.0
O487 O 0.35899 0.40035 0.28254 0.0
C488 C 0.36662 0.4274 0.26613 0.0
C489 C 0.33403 0.32025 0.22172 0.0
O490 O 0.31754 0.40344 0.21122 0.0
O491 O 0.36571 0.3801 0.18482 0.0
O492 O 0.26561 0.35701 0.29605 0.0
O493 O 0.27917 0.40794 0.29776 0.0
O494 O 0.30501 0.3341 0.21882 0.0
O495 O 0.35021 0.3326 0.25149 0.0
O496 O 0.39382 0.35118 0.31222 0.0
O497 O 0.33767 0.35453 0.32997 0.0
C498 C 0.33962 0.39983 0.18068 0.0
C499 C 0.36925 0.34894 0.33962 0.0
Dy500 Dy 0.36239 0.63902 0.99628 0.0
C501 C 0.34986 0.50419 0.05783 0.0
C502 C 0.37084 0.70368 0.97479 0.0
Dy503 Dy 0.36084 0.56385 1.019 0.0
O504 O 0.35227 0.69297 1.00496 0.0
O505 O 0.38637 0.67893 0.95744 0.0
O506 O 0.30732 0.63767 0.98885 0.0
O507 O 0.33062 0.60676 1.03247 0.0
C508 C 0.30358 0.61392 1.01563 0.0
C509 C 0.4116 0.5844 0.97195 0.0
O510 O 0.32881 0.56568 0.96098 0.0
O511 O 0.3517 0.61428 0.9351 0.0
O512 O 0.37872 0.51577 1.04705 0.0
O513 O 0.32691 0.52487 1.04636 0.0
O514 O 0.39832 0.55511 0.96837 0.0
O515 O 0.39891 0.59997 1.00193 0.0
O516 O 0.37914 0.64319 0.0626 0.0
O517 O 0.37624 0.58697 0.08022 0.0
C518 C 0.33219 0.58802 0.93064 0.0
C519 C 0.38142 0.61863 0.08998 0.0
Dy520 Dy 0.09421 0.61062 0.74207 0.0
C521 C 0.22755 0.60045 0.80846 0.0
C522 C 0.0293 0.61632 0.72014 0.0
Dy523 Dy 0.16865 0.61193 0.76823 0.0
O524 O 0.04081 0.59745 0.74952 0.0
O525 O 0.05331 0.6335 0.7036 0.0
O526 O 0.0983 0.55581 0.7335 0.0
O527 O 0.12666 0.57981 0.77927 0.0
C528 C 0.12123 0.55266 0.76153 0.0
C529 C 0.14753 0.66225 0.72086 0.0
O530 O 0.16958 0.58096 0.70948 0.0
O531 O 0.1206 0.60136 0.68149 0.0
O532 O 0.21636 0.62951 0.79775 0.0
O533 O 0.20688 0.57767 0.7963 0.0
O534 O 0.17742 0.6503 0.71863 0.0
O535 O 0.13162 0.64866 0.7499 0.0
O536 O 0.08823 0.62635 0.80884 0.0
O537 O 0.1441 0.62699 0.82838 0.0
C538 C 0.14819 0.58368 0.67799 0.0
C539 C 0.11206 0.63025 0.83705 0.0
Dy540 Dy 0.1223 0.34648 0.48955 0.0
C541 C 0.14158 0.47982 0.55488 0.0
C542 C 0.12162 0.28375 0.45829 0.0
Dy543 Dy 0.12346 0.42038 0.51955 0.0
O544 O 0.14607 0.29771 0.47763 0.0
O545 O 0.09616 0.30359 0.45759 0.0
O546 O 0.17737 0.34957 0.48624 0.0
O547 O 0.1516 0.37623 0.53218 0.0
C548 C 0.1794 0.37079 0.51643 0.0
C549 C 0.06544 0.39822 0.49006 0.0
O550 O 0.15374 0.42148 0.45949 0.0
O551 O 0.13164 0.37367 0.43031 0.0
O552 O 0.11712 0.47573 0.52881 0.0
O553 O 0.1565 0.45169 0.56038 0.0
O554 O 0.06803 0.4222 0.51708 0.0
O555 O 0.09365 0.39066 0.47655 0.0
O556 O 0.10024 0.34018 0.55371 0.0
O557 O 0.10977 0.3939 0.57875 0.0
C558 C 0.15092 0.40018 0.42774 0.0
C559 C 0.10022 0.36265 0.58419 0.0
Dy560 Dy 0.38756 0.61164 0.36021 0.0
C561 C 0.25352 0.5977 0.29609 0.0
C562 C 0.45227 0.61983 0.38163 0.0
Dy563 Dy 0.31253 0.60965 0.33627 0.0
O564 O 0.44139 0.60135 0.35138 0.0
O565 O 0.42766 0.6354 0.39919 0.0
O566 O 0.38636 0.55651 0.36704 0.0
O567 O 0.35581 0.57993 0.32316 0.0
C568 C 0.36293 0.5528 0.33977 0.0
C569 C 0.33252 0.66063 0.38366 0.0
O570 O 0.31419 0.57748 0.3942 0.0
O571 O 0.36246 0.60054 0.42098 0.0
O572 O 0.26431 0.62672 0.30773 0.0
O573 O 0.27461 0.5751 0.3075 0.0
O574 O 0.30323 0.64732 0.38674 0.0
O575 O 0.34834 0.64787 0.35396 0.0
O576 O 0.39199 0.62883 0.29411 0.0
O577 O 0.33597 0.62568 0.27562 0.0
C578 C 0.33627 0.58087 0.4249 0.0
C579 C 0.36764 0.63113 0.2664 0.0
Dy580 Dy 0.11894 0.63752 0.10715 0.0
C581 C 0.13088 0.5031 1.04406 0.0
C582 C 0.1111 0.70233 0.12858 0.0
Dy583 Dy 0.12023 0.56247 0.084 0.0
O584 O 0.12942 0.69141 0.09829 0.0
O585 O 0.09548 0.67771 0.14613 0.0
O586 O 0.174 0.63612 0.11414 0.0
O587 O 0.15045 0.60542 0.07034 0.0
C588 C 0.17759 0.61253 0.08706 0.0
C589 C 0.06975 0.58279 0.1318 0.0
O590 O 0.15263 0.5641 0.14181 0.0
O591 O 0.13017 0.61275 0.16815 0.0
O592 O 0.10216 0.5144 0.05576 0.0
O593 O 0.15391 0.52384 0.05535 0.0
O594 O 0.08305 0.55351 0.13497 0.0
O595 O 0.08225 0.59848 0.10179 0.0
O596 O 0.10163 0.64174 1.04098 0.0
O597 O 0.10408 0.58554 1.02316 0.0
C598 C 0.14954 0.58639 0.17233 0.0
C599 C 0.09893 0.61721 1.01353 0.0
Dy600 Dy 0.08851 0.36898 0.85352 0.0
C601 C 0.2238 0.38131 0.79334 0.0
C602 C 0.024 0.36149 0.8763 0.0
Dy603 Dy 0.16394 0.36986 0.83135 0.0
O604 O 0.03459 0.38003 0.84598 0.0
O605 O 0.04871 0.34534 0.89279 0.0
O606 O 0.09031 0.42423 0.85974 0.0
O607 O 0.12122 0.3999 0.81698 0.0
C608 C 0.11426 0.42725 0.83313 0.0
C609 C 0.14301 0.31997 0.87969 0.0
O610 O 0.1621 0.40248 0.8889 0.0
O611 O 0.11298 0.38069 0.9147 0.0
O612 O 0.21248 0.35233 0.80423 0.0
O613 O 0.2027 0.40409 0.80413 0.0
O614 O 0.17241 0.33303 0.8828 0.0
O615 O 0.12755 0.33225 0.84933 0.0
O616 O 0.08482 0.35129 0.78727 0.0
O617 O 0.14122 0.35314 0.77042 0.0
C618 C 0.13962 0.39971 0.91913 0.0
C619 C 0.10961 0.34813 0.76027 0.0
Dy620 Dy 0.36248 0.34159 0.61032 0.0
C621 C 0.34828 0.4761 0.54714 0.0
C622 C 0.37126 0.27698 0.63173 0.0
Dy623 Dy 0.3605 0.41696 0.58669 0.0
O624 O 0.35284 0.28758 0.60134 0.0
O625 O 0.38647 0.30184 0.64943 0.0
O626 O 0.30732 0.34234 0.61704 0.0
O627 O 0.3309 0.37352 0.57387 0.0
C628 C 0.3038 0.36621 0.59037 0.0
C629 C 0.4112 0.39694 0.63429 0.0
O630 O 0.3282 0.41521 0.64435 0.0
O631 O 0.35068 0.36666 0.67106 0.0
O632 O 0.37735 0.46546 0.55857 0.0
O633 O 0.32581 0.45476 0.55832 0.0
O634 O 0.39797 0.42627 0.63735 0.0
O635 O 0.39856 0.38111 0.60445 0.0
O636 O 0.37918 0.33747 0.54389 0.0
O637 O 0.37641 0.39365 0.52585 0.0
C638 C 0.33114 0.39296 0.67487 0.0
C639 C 0.38158 0.36194 0.51636 0.0
C640 C 0.25589 0.05817 0.24266 0.0
C641 C 0.25587 0.08341 0.27302 0.0
H642 H 0.27948 0.03759 0.18863 0.0
C643 C 0.283 0.10515 0.27486 0.0
H644 H 0.23532 0.04098 0.24044 0.0
C645 C 0.30845 0.10318 0.24519 0.0
C646 C 0.30733 0.07942 0.21288 0.0
H647 H 0.28374 0.12482 0.2979 0.0
H648 H 0.3281 0.12146 0.24634 0.0
C649 C 0.28132 0.05617 0.21296 0.0
C650 C 0.16865 0.03332 0.46254 0.0
C651 C 0.14323 0.05695 0.45836 0.0
H652 H 0.18554 0.98932 0.49396 0.0
C653 C 0.11645 0.05561 0.48657 0.0
H654 H 0.18953 0.03338 0.44135 0.0
C655 C 0.11387 0.0301 0.5159 0.0
C656 C 0.13831 0.00557 0.51859 0.0
H657 H 0.09635 0.0733 0.4847 0.0
H658 H 0.09212 0.02899 0.53563 0.0
C659 C 0.16632 0.00801 0.49263 0.0
C660 C 0.22094 0.91558 0.74478 0.0
C661 C 0.22423 0.88649 0.76866 0.0
H662 H 0.19469 0.94048 0.69554 0.0
C663 C 0.20049 0.86136 0.76399 0.0
H664 H 0.23898 0.93535 0.74763 0.0
C665 C 0.1748 0.86454 0.73491 0.0
C666 C 0.17251 0.8927 0.70899 0.0
H667 H 0.20231 0.83872 0.78201 0.0
H668 H 0.15773 0.844 0.73138 0.0
C669 C 0.19552 0.91854 0.71496 0.0
C670 C 0.31051 0.94366 0.96578 0.0
C671 C 0.33637 0.92074 0.95998 0.0
H672 H 0.29358 0.98708 0.99836 0.0
C673 C 0.36438 0.92306 0.98616 0.0
H674 H 0.28867 0.9428 0.94615 0.0
C675 C 0.36745 0.94875 1.01529 0.0
C676 C 0.34232 0.97244 1.01974 0.0
H677 H 0.38492 0.90603 0.98279 0.0
H678 H 0.38999 0.95062 1.03352 0.0
C679 C 0.31335 0.96908 0.99564 0.0
C680 C 0.30619 0.8669 0.36545 0.0
C681 C 0.30804 0.89475 0.39203 0.0
H682 H 0.27911 0.84121 0.31771 0.0
C683 C 0.28471 0.92029 0.38655 0.0
H684 H 0.32354 0.8466 0.36853 0.0
C685 C 0.25937 0.91728 0.3566 0.0
C686 C 0.2565 0.88843 0.33209 0.0
H687 H 0.28519 0.94199 0.40649 0.0
H688 H 0.24105 0.93678 0.35416 0.0
C689 C 0.28059 0.86366 0.33624 0.0
C690 C 0.36852 0.03038 0.58899 0.0
C691 C 0.34325 0.00681 0.58417 0.0
H692 H 0.3863 0.07277 0.62209 0.0
C693 C 0.31434 0.01008 0.60834 0.0
H694 H 0.39104 0.02857 0.57076 0.0
C695 C 0.31169 0.03528 0.63855 0.0
C696 C 0.33768 0.05808 0.64467 0.0
H697 H 0.29446 -0.00784 0.6054 0.0
H698 H 0.28987 0.03607 0.65815 0.0
C699 C 0.36566 0.05584 0.61848 0.0
C700 C 0.19565 0.06195 0.8889 0.0
C701 C 0.17263 0.08782 0.8941 0.0
H702 H 0.23927 0.04481 0.85703 0.0
C703 C 0.17507 0.11564 0.86764 0.0
H704 H 0.19471 0.04026 0.90875 0.0
C705 C 0.20089 0.11849 0.83874 0.0
C706 C 0.22463 0.09335 0.83482 0.0
H707 H 0.15799 0.13618 0.87056 0.0
H708 H 0.20281 0.14089 0.82027 0.0
C709 C 0.22122 0.06457 0.85928 0.0
C710 C 0.11584 0.9249 0.11536 0.0
C711 C 0.14403 0.92242 0.14119 0.0
H712 H 0.08969 0.95302 0.06912 0.0
C713 C 0.16961 0.9458 0.1359 0.0
H714 H 0.09548 0.90756 0.11839 0.0
C715 C 0.16635 0.97176 0.1069 0.0
C716 C 0.13721 0.97521 0.08316 0.0
H717 H 0.19157 0.94487 0.15531 0.0
H718 H 0.18592 0.99005 0.10459 0.0
C719 C 0.11235 0.95111 0.08709 0.0
C720 C 0.72065 0.9178 0.85784 0.0
C721 C 0.72363 0.88888 0.83349 0.0
H722 H 0.69472 0.94256 0.90749 0.0
C723 C 0.69965 0.86396 0.83778 0.0
H724 H 0.73889 0.93742 0.8553 0.0
C725 C 0.67404 0.86716 0.86692 0.0
C726 C 0.67205 0.89511 0.8933 0.0
H727 H 0.70121 0.84145 0.81939 0.0
H728 H 0.65676 0.84676 0.8701 0.0
C729 C 0.6953 0.92077 0.88772 0.0
C730 C 0.81165 0.97025 0.60535 0.0
C731 C 0.84017 0.97289 0.58035 0.0
H732 H 0.78754 0.94485 0.65587 0.0
C733 C 0.86489 0.94871 0.58422 0.0
H734 H 0.79221 0.98866 0.60313 0.0
C735 C 0.86197 0.9233 0.61371 0.0
C736 C 0.83451 0.92175 0.64083 0.0
H737 H 0.88708 0.95001 0.5653 0.0
H738 H 0.88225 0.90591 0.61662 0.0
C739 C 0.80895 0.9451 0.63554 0.0
C740 C 0.77607 0.12054 0.33916 0.0
C741 C 0.75315 0.09483 0.33318 0.0
H742 H 0.81811 0.1382 0.37301 0.0
C743 C 0.75715 0.06517 0.35568 0.0
H744 H 0.77362 0.14364 0.32221 0.0
C745 C 0.78247 0.0621 0.38549 0.0
C746 C 0.80462 0.08844 0.39282 0.0
H747 H 0.73972 0.04497 0.35178 0.0
H748 H 0.78392 0.0396 0.40381 0.0
C749 C 0.80167 0.11729 0.3683 0.0
C750 C 0.66371 0.01202 0.10794 0.0
C751 C 0.63467 0.00804 0.08412 0.0
H752 H 0.68799 0.03851 0.15757 0.0
C753 C 0.60884 0.03086 0.0894 0.0
H754 H 0.68401 -0.00532 0.10465 0.0
C755 C 0.61132 0.05628 0.11903 0.0
C756 C 0.63948 0.05919 0.14485 0.0
H757 H 0.5862 0.02848 0.07146 0.0
H758 H 0.59029 0.0726 0.12303 0.0
C759 C 0.666 0.03717 0.13826 0.0
C760 C 0.69421 0.11147 0.77825 0.0
C761 C 0.72016 0.08842 0.78002 0.0
H762 H 0.65117 0.12836 0.74564 0.0
C763 C 0.72011 0.06187 0.75139 0.0
H764 H 0.69353 0.13219 0.79978 0.0
C765 C 0.69594 0.05973 0.71993 0.0
C766 C 0.6711 0.084 0.71647 0.0
H767 H 0.73982 0.04369 0.75184 0.0
H768 H 0.69778 0.04 0.69709 0.0
C769 C 0.66992 0.10922 0.74702 0.0
C770 C 0.66717 0.97084 0.49805 0.0
C771 C 0.6383 0.97402 0.52232 0.0
H772 H 0.69164 0.94487 0.44821 0.0
C773 C 0.61313 0.95033 0.51768 0.0
H774 H 0.68697 0.98886 0.50086 0.0
C775 C 0.61605 0.92481 0.48827 0.0
C776 C 0.64397 0.92266 0.46197 0.0
H777 H 0.59065 0.95206 0.53599 0.0
H778 H 0.59548 0.90778 0.48481 0.0
C779 C 0.66987 0.94559 0.46791 0.0
C780 C 0.78538 0.91834 0.21735 0.0
C781 C 0.80763 0.892 0.21083 0.0
H782 H 0.74266 0.93596 0.25066 0.0
C783 C 0.80485 0.86373 0.23647 0.0
H784 H 0.78662 0.9404 0.19817 0.0
C785 C 0.77935 0.86098 0.26584 0.0
C786 C 0.75632 0.88664 0.27104 0.0
H787 H 0.82134 0.84282 0.2325 0.0
H788 H 0.77708 0.83826 0.28364 0.0
C789 C 0.76016 0.91579 0.24742 0.0
C790 C 0.81063 0.03483 0.96821 0.0
C791 C 0.83673 0.05757 0.96266 0.0
H792 H 0.79338 -0.00871 1.00031 0.0
C793 C 0.86445 0.05528 0.98932 0.0
H794 H 0.78901 0.03565 0.94821 0.0
C795 C 0.86716 0.02963 1.01842 0.0
C796 C 0.84201 0.00589 1.02233 0.0
H797 H 0.88505 0.07233 0.98638 0.0
H798 H 0.88956 0.02775 1.03692 0.0
C799 C 0.81317 0.00934 0.99799 0.0
C800 C 0.77995 0.61934 0.76624 0.0
C801 C 0.75629 0.59416 0.77103 0.0
H802 H 0.82249 0.63674 0.73335 0.0
C803 C 0.75954 0.56502 0.74719 0.0
H804 H 0.77814 0.64202 0.78423 0.0
C805 C 0.78481 0.56206 0.71726 0.0
C806 C 0.80771 0.58795 0.71113 0.0
H807 H 0.74155 0.54522 0.75014 0.0
H808 H 0.7856 0.54007 0.69786 0.0
C809 C 0.8055 0.61615 0.73703 0.0
C810 C 0.61634 0.55711 0.98806 0.0
C811 C 0.64424 0.55938 0.96175 0.0
H812 H 0.59083 0.52955 1.03538 0.0
C813 C 0.67003 0.53633 0.96731 0.0
H814 H 0.59585 0.57423 0.98487 0.0
C815 C 0.66722 0.51085 0.99705 0.0
C816 C 0.63835 0.50756 1.02127 0.0
H817 H 0.69178 0.53714 0.94759 0.0
H818 H 0.68692 0.49275 0.99955 0.0
C819 C 0.61331 0.53137 1.01707 0.0
C820 C 0.66996 0.37122 0.24383 0.0
C821 C 0.6708 0.39665 0.21361 0.0
H822 H 0.69466 0.34745 0.29513 0.0
C823 C 0.69628 0.42038 0.21611 0.0
H824 H 0.65074 0.35248 0.24308 0.0
C825 C 0.72138 0.41746 0.24617 0.0
C826 C 0.72169 0.39072 0.27439 0.0
H827 H 0.69789 0.44023 0.19347 0.0
H828 H 0.74148 0.43528 0.24589 0.0
C829 C 0.69516 0.36824 0.27377 0.0
C830 C 0.85766 0.44833 0.52117 0.0
C831 C 0.83585 0.47528 0.52043 0.0
H832 H 0.87211 0.40237 0.49389 0.0
C833 C 0.80904 0.47459 0.49224 0.0
H834 H 0.87836 0.44802 0.54271 0.0
C835 C 0.80563 0.44848 0.46327 0.0
C836 C 0.82866 0.42229 0.46253 0.0
H837 H 0.79183 0.49514 0.49095 0.0
H838 H 0.78611 0.44975 0.44013 0.0
C839 C 0.85389 0.42204 0.49307 0.0
C840 C 0.75816 0.41662 0.863 0.0
C841 C 0.75547 0.38809 0.83787 0.0
H842 H 0.78353 0.44061 0.91381 0.0
C843 C 0.77919 0.36299 0.84227 0.0
H844 H 0.74007 0.43632 0.86043 0.0
C845 C 0.80436 0.36568 0.87214 0.0
C846 C 0.80613 0.3933 0.8991 0.0
H847 H 0.77778 0.34075 0.82335 0.0
H848 H 0.82149 0.3452 0.8753 0.0
C849 C 0.78307 0.41908 0.89359 0.0
C850 C 0.80982 0.53507 0.13985 0.0
C851 C 0.83524 0.55875 0.14414 0.0
H852 H 0.79358 0.49024 0.10974 0.0
C853 C 0.86293 0.55647 0.11752 0.0
H854 H 0.78825 0.53589 0.15987 0.0
C855 C 0.86625 0.53 0.08961 0.0
C856 C 0.8417 0.5055 0.08689 0.0
H857 H 0.8831 0.57411 0.11973 0.0
H858 H 0.8886 0.52818 0.07106 0.0
C859 C 0.81292 0.50884 0.11121 0.0
C860 C 0.70075 0.61879 0.33973 0.0
C861 C 0.72448 0.59368 0.33544 0.0
H862 H 0.65785 0.6362 0.37181 0.0
C863 C 0.72105 0.56467 0.35945 0.0
H864 H 0.70267 0.64137 0.32159 0.0
C865 C 0.69547 0.56177 0.38901 0.0
C866 C 0.67246 0.5876 0.3946 0.0
H867 H 0.73908 0.54492 0.35688 0.0
H868 H 0.69454 0.53989 0.40854 0.0
C869 C 0.67491 0.61567 0.36856 0.0
C870 C 0.66965 0.44689 0.63939 0.0
C871 C 0.64408 0.42354 0.64486 0.0
H872 H 0.68621 0.49061 0.60712 0.0
C873 C 0.6162 0.42545 0.6184 0.0
H874 H 0.69138 0.44637 0.65924 0.0
C875 C 0.61298 0.45111 0.5893 0.0
C876 C 0.63781 0.4752 0.58515 0.0
H877 H 0.59587 0.4081 0.62149 0.0
H878 H 0.59053 0.45263 0.57086 0.0
C879 C 0.66667 0.47229 0.60956 0.0
C880 C 0.20011 0.42492 0.38976 0.0
C881 C 0.17439 0.40138 0.39178 0.0
H882 H 0.24616 0.43896 0.36097 0.0
C883 C 0.17436 0.37521 0.36249 0.0
H884 H 0.20115 0.44521 0.41188 0.0
C885 C 0.20044 0.37121 0.33428 0.0
C886 C 0.2269 0.39367 0.33374 0.0
H887 H 0.15508 0.35652 0.36275 0.0
H888 H 0.20038 0.34987 0.31371 0.0
C889 C 0.22597 0.42126 0.3607 0.0
C890 C 0.31301 0.44547 0.13817 0.0
C891 C 0.33916 0.42293 0.1443 0.0
H892 H 0.29563 0.48856 0.10536 0.0
C893 C 0.3673 0.42561 0.11849 0.0
H894 H 0.29106 0.44431 0.15751 0.0
C895 C 0.37014 0.45127 0.08932 0.0
C896 C 0.34468 0.47457 0.08451 0.0
H897 H 0.38807 0.4089 0.12218 0.0
H898 H 0.39277 0.45345 0.07138 0.0
C899 C 0.31564 0.47085 0.1083 0.0
C900 C 0.26026 0.56552 0.85879 0.0
C901 C 0.25702 0.59475 0.83517 0.0
H902 H 0.28655 0.54024 0.90768 0.0
C903 C 0.28088 0.61974 0.83987 0.0
H904 H 0.24212 0.54584 0.85587 0.0
C905 C 0.30666 0.61627 0.86873 0.0
C906 C 0.30891 0.58797 0.89442 0.0
H907 H 0.27911 0.64246 0.82201 0.0
H908 H 0.32385 0.63671 0.87229 0.0
C909 C 0.28576 0.56228 0.88842 0.0
C910 C 0.17427 0.53498 0.6415 0.0
C911 C 0.15132 0.5612 0.64121 0.0
H912 H 0.18927 0.48881 0.61421 0.0
C913 C 0.12796 0.56252 0.6085 0.0
H914 H 0.19252 0.53298 0.66616 0.0
C915 C 0.12608 0.53707 0.57872 0.0
C916 C 0.14749 0.50973 0.58093 0.0
H917 H 0.10992 0.58233 0.6071 0.0
H918 H 0.10673 0.53797 0.5553 0.0
C919 C 0.17233 0.50953 0.61174 0.0
C920 C 0.19603 0.56038 0.21423 0.0
C921 C 0.17275 0.58597 0.20872 0.0
H922 H 0.23956 0.54374 0.2468 0.0
C923 C 0.17466 0.61381 0.23531 0.0
H924 H 0.19552 0.53869 0.19429 0.0
C925 C 0.2002 0.61696 0.26464 0.0
C926 C 0.22419 0.5921 0.26891 0.0
H927 H 0.15736 0.63416 0.2322 0.0
H928 H 0.20168 0.63938 0.28321 0.0
C929 C 0.22131 0.5633 0.24429 0.0
C930 C 0.1667 0.44529 0.96171 0.0
C931 C 0.14049 0.42271 0.95573 0.0
H932 H 0.18449 0.48814 0.99494 0.0
C933 C 0.1127 0.42509 0.98219 0.0
H934 H 0.1884 0.44439 0.94189 0.0
C935 C 0.11024 0.45045 1.01189 0.0
C936 C 0.13574 0.47378 1.01663 0.0
H937 H 0.0919 0.40833 0.97871 0.0
H938 H 0.08786 0.45235 1.03037 0.0
C939 C 0.16445 0.4704 0.9921 0.0
C940 C 0.28409 0.419 0.71545 0.0
C941 C 0.30718 0.39318 0.71036 0.0
H942 H 0.23986 0.43573 0.74627 0.0
C943 C 0.30416 0.36496 0.73605 0.0
H944 H 0.28544 0.44099 0.69615 0.0
C945 C 0.27773 0.36171 0.764 0.0
C946 C 0.25394 0.38682 0.76773 0.0
H947 H 0.32126 0.34442 0.73315 0.0
H948 H 0.2754 0.33903 0.78187 0.0
C949 C 0.25791 0.41596 0.74412 0.0
C950 C 0.31367 0.50839 0.4959 0.0
C951 C 0.34247 0.50561 0.52044 0.0
H952 H 0.2889 0.53434 0.44629 0.0
C953 C 0.36711 0.52992 0.51657 0.0
H954 H 0.29428 0.4899 0.49812 0.0
C955 C 0.36377 0.55569 0.48765 0.0
C956 C 0.33595 0.55751 0.46107 0.0
H957 H 0.38951 0.52851 0.53513 0.0
H958 H 0.38396 0.57323 0.48479 0.0
C959 C 0.31056 0.53391 0.46624 0.0
C960 C 0.09918 0.23404 0.42003 0.0
C961 C 0.12599 0.25374 0.43281 0.0
H962 H 0.08403 0.19038 0.38644 0.0
C963 C 0.15814 0.24548 0.41968 0.0
H964 H 0.07418 0.24016 0.42951 0.0
C965 C 0.16354 0.21805 0.39424 0.0
C966 C 0.13703 0.19777 0.38239 0.0
H967 H 0.17925 0.26051 0.42865 0.0
H968 H 0.18864 0.21217 0.38484 0.0
C969 C 0.10479 0.20578 0.39548 0.0
C970 C 0.02267 0.85781 0.64506 0.0
C971 C 0.04197 0.88505 0.65774 0.0
H972 H 0.97866 0.82913 0.65585 0.0
C973 C 0.03382 0.90183 0.69465 0.0
H974 H 0.02867 0.8443 0.61682 0.0
C975 C 0.00582 0.89269 0.71738 0.0
C976 C 0.98513 0.86697 0.7032 0.0
H977 H 0.04859 0.92262 0.70536 0.0
H978 H -0.00059 0.907 0.74484 0.0
C979 C -0.00577 0.84899 0.66746 0.0
C980 C 0.33027 0.78413 0.94588 0.0
C981 C 0.34634 0.7918 0.90837 0.0
H982 H 0.3265 0.75071 0.99733 0.0
C983 C 0.37384 0.77291 0.89587 0.0
H984 H 0.30933 0.79865 0.95645 0.0
C985 C 0.38354 0.74517 0.91906 0.0
C986 C 0.36621 0.73643 0.95539 0.0
H987 H 0.38682 0.77862 0.86717 0.0
H988 H 0.40351 0.72977 0.90756 0.0
C989 C 0.34033 0.75686 0.96941 0.0
C990 C 0.44375 0.07867 0.19864 0.0
C991 C 0.43557 0.09501 0.16149 0.0
H992 H 0.47753 0.07505 0.24978 0.0
C993 C 0.45381 0.1231 0.14939 0.0
H994 H 0.42972 0.05727 0.2089 0.0
C995 C 0.48146 0.13315 0.17254 0.0
C996 C 0.49076 0.11559 0.20848 0.0
H997 H 0.4477 0.13631 0.12097 0.0
H998 H 0.4964 0.1536 0.16129 0.0
C999 C 0.47093 0.08908 0.22218 0.0
C1000 C 0.15142 0.7835 0.15595 0.0
C1001 C 0.13517 0.79175 0.19316 0.0
H1002 H 0.15551 0.74918 0.10539 0.0
C1003 C 0.10781 0.77279 0.20608 0.0
H1004 H 0.17227 0.79802 0.14507 0.0
C1005 C 0.09836 0.74453 0.18359 0.0
C1006 C 0.11578 0.73531 0.14752 0.0
H1007 H 0.0947 0.7789 0.23456 0.0
H1008 H 0.07843 0.72917 0.19539 0.0
C1009 C 0.1416 0.7557 0.13311 0.0
C1010 C 0.485 0.84856 0.43473 0.0
C1011 C 0.49435 0.8662 0.39888 0.0
H1012 H 0.45053 0.84464 0.48543 0.0
C1013 C 0.47403 0.89206 0.38446 0.0
H1014 H 0.5003 0.82861 0.44652 0.0
C1015 C 0.4462 0.90172 0.40715 0.0
C1016 C 0.43786 0.88531 0.4442 0.0
H1017 H 0.48064 0.90611 0.35689 0.0
H1018 H 0.43175 0.92263 0.39631 0.0
C1019 C 0.45672 0.85788 0.45707 0.0
C1020 C 0.38399 0.23521 0.68717 0.0
C1021 C 0.3669 0.24401 0.65066 0.0
H1022 H 0.38729 0.2013 0.73857 0.0
C1023 C 0.34149 0.22323 0.63584 0.0
H1024 H 0.40359 0.25087 0.69928 0.0
C1025 C 0.33165 0.19554 0.65873 0.0
C1026 C 0.34746 0.18777 0.6964 0.0
H1027 H 0.32786 0.2294 0.60776 0.0
H1028 H 0.31105 0.18075 0.64754 0.0
C1029 C 0.37452 0.20705 0.70972 0.0
C1030 C 0.02352 0.1236 0.95276 0.0
C1031 C 0.04182 0.09515 0.94227 0.0
H1032 H 0.98047 0.15307 0.93973 0.0
C1033 C 0.03294 0.0768 0.90683 0.0
H1034 H 0.03011 0.13833 0.97983 0.0
C1035 C 0.00508 0.08555 0.88359 0.0
C1036 C 0.98536 0.11258 0.89568 0.0
H1037 H 0.04693 0.05505 0.89777 0.0
H1038 H -0.00197 0.07003 0.85742 0.0
C1039 C -0.00469 0.13217 0.92971 0.0
C1040 C 0.83042 0.78496 0.65715 0.0
C1041 C 0.84614 0.79307 0.69481 0.0
H1042 H 0.82693 0.75086 0.60629 0.0
C1043 C 0.8733 0.77408 0.70826 0.0
H1044 H 0.80975 0.79952 0.64585 0.0
C1045 C 0.88298 0.74588 0.68586 0.0
C1046 C 0.86601 0.73677 0.64932 0.0
H1047 H 0.886 0.78009 0.73711 0.0
H1048 H 0.90266 0.73044 0.69808 0.0
C1049 C 0.84049 0.75726 0.63438 0.0
C1050 C 0.98334 0.13012 0.43119 0.0
C1051 C -0.00717 0.11231 0.39554 0.0
H1052 H 0.94893 0.13399 0.48186 0.0
C1053 C 0.97273 0.08615 0.38128 0.0
H1054 H -0.00153 0.15032 0.44283 0.0
C1055 C 0.9449 0.07641 0.40394 0.0
C1056 C 0.93648 0.09297 0.44086 0.0
H1057 H 0.97947 0.07199 0.35382 0.0
H1058 H 0.93058 0.05532 0.39322 0.0
C1059 C 0.95519 0.12062 0.45359 0.0
C1060 C 0.63785 0.22449 0.13522 0.0
C1061 C 0.61311 0.2459 0.15011 0.0
H1062 H 0.66692 0.18113 0.14675 0.0
C1063 C 0.59558 0.23738 0.18638 0.0
H1064 H 0.65174 0.23042 0.10728 0.0
C1065 C 0.60413 0.20887 0.20879 0.0
C1066 C 0.63065 0.18897 0.1955 0.0
H1067 H 0.57644 0.25354 0.1985 0.0
H1068 H 0.59116 0.20336 0.23756 0.0
C1069 C 0.64673 0.19642 0.15793 0.0
C1070 C 0.5063 0.89096 0.8838 0.0
C1071 C 0.4859 0.86516 0.89831 0.0
H1072 H 0.54842 0.92184 0.89582 0.0
C1073 C 0.49499 0.84792 0.93458 0.0
H1074 H 0.49989 0.90471 0.85591 0.0
C1075 C 0.52307 0.85759 0.95722 0.0
C1076 C 0.54198 0.88498 0.94422 0.0
H1077 H 0.47963 0.82802 0.94645 0.0
H1078 H 0.52904 0.84468 0.98589 0.0
C1079 C 0.53392 0.90097 0.90677 0.0
C1080 C 0.87428 0.22036 0.955 0.0
C1081 C 0.87383 0.25192 0.9369 0.0
H1082 H 0.86391 0.16871 0.94695 0.0
C1083 C 0.86319 0.25552 0.8953 0.0
H1084 H 0.88196 0.21715 0.98716 0.0
C1085 C 0.85147 0.22812 0.87287 0.0
C1086 C 0.8513 0.19666 0.89131 0.0
H1087 H 0.86206 0.27981 0.88095 0.0
H1088 H 0.84222 0.23156 0.84141 0.0
C1089 C 0.86373 0.19282 0.93208 0.0
C1090 C 0.50746 0.08901 0.72209 0.0
C1091 C 0.48705 0.1148 0.70769 0.0
H1092 H 0.54982 0.05855 0.71021 0.0
C1093 C 0.49631 0.13239 0.67175 0.0
H1094 H 0.50094 0.07498 0.74971 0.0
C1095 C 0.5246 0.12313 0.64936 0.0
C1096 C 0.54357 0.09578 0.66224 0.0
H1097 H 0.48094 0.1523 0.65995 0.0
H1098 H 0.53071 0.13634 0.62095 0.0
C1099 C 0.5353 0.0794 0.69935 0.0
C1100 C 0.64952 0.78516 0.44759 0.0
C1101 C 0.63366 0.79297 0.40997 0.0
H1102 H 0.65333 0.75126 0.49852 0.0
C1103 C 0.60653 0.77377 0.39671 0.0
H1104 H 0.67017 0.7999 0.45873 0.0
C1105 C 0.59704 0.74561 0.41927 0.0
C1106 C 0.61419 0.73676 0.45572 0.0
H1107 H 0.59372 0.77956 0.3679 0.0
H1108 H 0.57738 0.73001 0.40721 0.0
C1109 C 0.63966 0.75748 0.47049 0.0
C1110 C 0.94607 0.89925 0.19647 0.0
C1111 C 0.93779 0.88324 0.15906 0.0
H1112 H 0.98068 0.90342 0.24666 0.0
C1113 C 0.95694 0.85623 0.14545 0.0
H1114 H 0.93141 0.91982 0.20787 0.0
C1115 C 0.98544 0.84698 0.16743 0.0
C1116 C -0.00527 0.86427 0.20365 0.0
H1117 H 0.95081 0.84331 0.1168 0.0
H1118 H 0.00095 0.82739 0.1551 0.0
C1119 C 0.97413 0.88964 0.21879 0.0
C1120 C 0.6072 0.70823 0.8972 0.0
C1121 C 0.63465 0.68943 0.91009 0.0
H1122 H 0.57778 0.75172 0.90785 0.0
C1123 C 0.65095 0.69774 0.94727 0.0
H1124 H 0.59404 0.70205 0.86873 0.0
C1125 C 0.64115 0.72552 0.97008 0.0
C1126 C 0.61528 0.74579 0.95565 0.0
H1127 H 0.67188 0.68333 0.95813 0.0
H1128 H 0.65513 0.73213 0.99776 0.0
C1129 C 0.59775 0.73645 0.91965 0.0
C1130 C 0.52423 0.35763 0.14635 0.0
C1131 C 0.54298 0.38514 0.15944 0.0
H1132 H 0.48121 0.32754 0.15727 0.0
C1133 C 0.53516 0.40079 0.1972 0.0
H1134 H 0.53006 0.34495 0.11744 0.0
C1135 C 0.50792 0.39028 0.22045 0.0
C1136 C 0.48763 0.36437 0.20586 0.0
H1137 H 0.54958 0.42172 0.20823 0.0
H1138 H 0.50165 0.40378 0.2486 0.0
C1139 C 0.49651 0.34749 0.16922 0.0
C1140 C 0.85461 0.25352 0.37096 0.0
C1141 C 0.85202 0.2844 0.39077 0.0
H1142 H 0.86671 0.20206 0.37749 0.0
C1143 C 0.86186 0.28742 0.43277 0.0
H1144 H 0.8474 0.25066 0.33856 0.0
C1145 C 0.87216 0.25958 0.4553 0.0
C1146 C 0.87402 0.22853 0.43577 0.0
H1147 H 0.86016 0.31104 0.44876 0.0
H1148 H 0.8778 0.26212 0.48822 0.0
C1149 C 0.86603 0.22589 0.39312 0.0
C1150 C 0.95714 0.62168 0.64523 0.0
C1151 C 0.93828 0.5941 0.65778 0.0
H1152 H 0.00114 0.65057 0.6554 0.0
C1153 C 0.94753 0.57664 0.69372 0.0
H1154 H 0.95032 0.6357 0.61771 0.0
C1155 C 0.97604 0.58558 0.71569 0.0
C1156 C -0.00388 0.6118 0.7017 0.0
H1157 H 0.93318 0.55555 0.7043 0.0
H1158 H 0.9832 0.57084 0.74247 0.0
C1159 C 0.98606 0.6303 0.66686 0.0
C1160 C 0.60827 0.27389 0.70915 0.0
C1161 C 0.63561 0.29297 0.6964 0.0
H1162 H 0.57949 0.22985 0.69875 0.0
C1163 C 0.6524 0.28444 0.65969 0.0
H1164 H 0.59475 0.28021 0.73725 0.0
C1165 C 0.64321 0.25624 0.63725 0.0
C1166 C 0.61743 0.23576 0.65158 0.0
H1167 H 0.67326 0.29904 0.64894 0.0
H1168 H 0.65754 0.24951 0.60996 0.0
C1169 C 0.59941 0.24527 0.68706 0.0
C1170 C 0.95605 0.35827 0.95693 0.0
C1171 C 0.93724 0.38621 0.94579 0.0
H1172 H -0.00152 0.32818 0.94322 0.0
C1173 C 0.94469 0.40308 0.90874 0.0
H1174 H 0.95058 0.34464 0.98524 0.0
C1175 C 0.97155 0.39319 0.88427 0.0
C1176 C -0.00828 0.36659 0.89681 0.0
H1177 H 0.93029 0.42442 0.89922 0.0
H1178 H 0.97755 0.40755 0.85672 0.0
C1179 C 0.98327 0.34868 0.93278 0.0
C1180 C 0.8406 0.72281 0.1344 0.0
C1181 C 0.86635 0.74347 0.14849 0.0
H1182 H 0.80984 0.6808 0.14733 0.0
C1183 C 0.88379 0.73483 0.1848 0.0
H1184 H 0.8267 0.72887 0.10649 0.0
C1185 C 0.87429 0.70698 0.20796 0.0
C1186 C 0.84685 0.68792 0.19545 0.0
H1187 H 0.90367 0.75041 0.19635 0.0
H1188 H 0.88731 0.70138 0.23668 0.0
C1189 C 0.83072 0.69547 0.15792 0.0
C1190 C 0.52278 0.62362 0.45889 0.0
C1191 C 0.54179 0.59632 0.44588 0.0
H1192 H 0.4791 0.65276 0.44839 0.0
C1193 C 0.53354 0.57998 0.40869 0.0
H1194 H 0.52889 0.6368 0.48737 0.0
C1195 C 0.50569 0.58962 0.38596 0.0
C1196 C 0.48526 0.61537 0.40046 0.0
H1197 H 0.54809 0.55917 0.39774 0.0
H1198 H 0.49918 0.57564 0.35824 0.0
C1199 C 0.49448 0.6329 0.43652 0.0
C1200 C 0.38024 0.2434 0.1875 0.0
C1201 C 0.36169 0.23381 0.15241 0.0
H1202 H 0.38615 0.27888 0.23692 0.0
C1203 C 0.33613 0.25453 0.13814 0.0
H1204 H 0.40002 0.22781 0.19914 0.0
C1205 C 0.32776 0.28318 0.16014 0.0
C1206 C 0.34515 0.29191 0.19639 0.0
H1207 H 0.3214 0.24776 0.11114 0.0
H1208 H 0.3071 0.29802 0.14939 0.0
C1209 C 0.37219 0.27245 0.20916 0.0
C1210 C 0.47423 0.59087 0.88539 0.0
C1211 C 0.49482 0.6165 0.9 0.0
H1212 H 0.43192 0.56028 0.8973 0.0
C1213 C 0.48589 0.63384 0.93628 0.0
H1214 H 0.48052 0.57706 0.85747 0.0
C1215 C 0.45777 0.62437 0.95887 0.0
C1216 C 0.43869 0.5971 0.94579 0.0
H1217 H 0.50141 0.65363 0.94822 0.0
H1218 H 0.45192 0.63732 0.98757 0.0
C1219 C 0.44658 0.58105 0.90831 0.0
C1220 C 0.1403 0.72392 0.63329 0.0
C1221 C 0.11423 0.74411 0.64731 0.0
H1222 H 0.17166 0.68241 0.64624 0.0
C1223 C 0.09687 0.73511 0.68352 0.0
H1224 H 0.15415 0.73027 0.60547 0.0
C1225 C 0.10672 0.70737 0.7066 0.0
C1226 C 0.13445 0.6888 0.69416 0.0
H1227 H 0.07675 0.75033 0.69501 0.0
H1228 H 0.09373 0.70147 0.73523 0.0
C1229 C 0.15055 0.69671 0.65676 0.0
C1230 C 0.98619 0.41228 0.43189 0.0
C1231 C 0.97835 0.38021 0.41779 0.0
H1232 H 0.01951 0.44277 0.46687 0.0
C1233 C -0.00105 0.35361 0.42857 0.0
H1234 H 0.97051 0.43324 0.42439 0.0
C1235 C 0.02751 0.35934 0.45243 0.0
C1236 C 0.03503 0.39144 0.46662 0.0
H1237 H -0.00683 0.32866 0.41834 0.0
H1238 H 0.0434 0.33873 0.46028 0.0
C1239 C 0.01401 0.41777 0.45653 0.0
C1240 C 0.338 0.72469 0.469 0.0
C1241 C 0.36394 0.74494 0.4546 0.0
H1242 H 0.3074 0.68228 0.45725 0.0
C1243 C 0.38164 0.73541 0.41888 0.0
H1244 H 0.3239 0.73145 0.49647 0.0
C1245 C 0.37233 0.70698 0.39668 0.0
C1246 C 0.34486 0.68815 0.40953 0.0
H1247 H 0.40166 0.75066 0.40711 0.0
H1248 H 0.38564 0.70064 0.36842 0.0
C1249 C 0.32835 0.6967 0.44643 0.0
C1250 C 0.03429 0.57858 0.19502 0.0
C1251 C 0.04242 0.59508 0.15795 0.0
H1252 H 0.0001 0.57396 0.24553 0.0
C1253 C 0.02333 0.62241 0.14526 0.0
H1254 H 0.04889 0.55773 0.20573 0.0
C1255 C -0.0049 0.63157 0.16784 0.0
C1256 C 0.98601 0.61387 0.20376 0.0
H1257 H 0.02933 0.63571 0.11688 0.0
H1258 H 0.97967 0.65149 0.15623 0.0
C1259 C 0.0065 0.58807 0.21793 0.0
C1260 C 0.14634 0.28574 0.94398 0.0
C1261 C 0.13044 0.29301 0.90621 0.0
H1262 H 0.15059 0.25231 0.99536 0.0
C1263 C 0.10361 0.27332 0.89316 0.0
H1264 H 0.16678 0.30085 0.95497 0.0
C1265 C 0.0945 0.24521 0.91606 0.0
C1266 C 0.11174 0.23689 0.95265 0.0
H1267 H 0.09078 0.27868 0.86422 0.0
H1268 H 0.07509 0.22921 0.90415 0.0
C1269 C 0.13686 0.2581 0.96722 0.0
C1270 C 0.4857 0.34803 0.67018 0.0
C1271 C 0.49483 0.36566 0.70619 0.0
H1272 H 0.45145 0.34402 0.61917 0.0
C1273 C 0.47434 0.3914 0.72056 0.0
H1274 H 0.50113 0.32815 0.65843 0.0
C1275 C 0.44656 0.40098 0.69767 0.0
C1276 C 0.43844 0.38458 0.66047 0.0
H1277 H 0.48078 0.40546 0.74824 0.0
H1278 H 0.43198 0.42182 0.70847 0.0
C1279 C 0.45747 0.35725 0.64765 0.0
C1280 C 0.12596 0.01891 0.27024 0.0
C1281 C 0.1246 0.02212 0.31374 0.0
H1282 H 0.12437 0.98492 0.21889 0.0
C1283 C 0.12766 -0.00566 0.33951 0.0
H1284 H 0.12367 0.04038 0.25011 0.0
C1285 C 0.12916 0.96298 0.32178 0.0
C1286 C 0.12636 0.95956 0.27839 0.0
H1287 H 0.12691 -0.00322 0.37321 0.0
H1288 H 0.12932 0.94148 0.34205 0.0
C1289 C 0.12627 0.98748 0.25251 0.0
C1290 C 0.23697 0.87568 0.59454 0.0
C1291 C 0.20874 0.87502 0.56925 0.0
H1292 H 0.28986 0.87545 0.59592 0.0
C1293 C 0.21146 0.87812 0.5258 0.0
H1294 H 0.23496 0.87352 0.62818 0.0
C1295 C 0.24257 0.87816 0.5074 0.0
C1296 C 0.2708 0.8763 0.53257 0.0
H1297 H 0.18969 0.87768 0.50597 0.0
H1298 H 0.24458 0.87786 0.47365 0.0
C1299 C 0.26808 0.87691 0.57619 0.0
C1300 C 0.3525 0.96157 0.7771 0.0
C1301 C 0.35419 0.95853 0.82063 0.0
H1302 H 0.35479 -0.0049 0.72541 0.0
C1303 C 0.35283 0.98661 0.8462 0.0
H1304 H 0.35352 0.93992 0.75706 0.0
C1305 C 0.35245 0.0179 0.82817 0.0
C1306 C 0.35464 0.02092 0.78468 0.0
H1307 H 0.35392 0.98435 0.8799 0.0
H1308 H 0.35344 0.03955 0.84823 0.0
C1309 C 0.35332 -0.00715 0.75909 0.0
C1310 C 0.23561 0.10588 1.00916 0.0
C1311 C 0.20713 0.10575 1.03395 0.0
H1312 H 0.28851 0.10562 1.00872 0.0
C1313 C 0.20938 0.10056 0.07713 0.0
H1314 H 0.23399 0.10956 0.97569 0.0
C1315 C 0.24031 0.09928 0.09604 0.0
C1316 C 0.26883 0.10201 0.07157 0.0
H1317 H 0.18742 0.10029 0.09657 0.0
H1318 H 0.24198 0.09804 0.12979 0.0
C1319 C 0.26653 0.10345 1.02793 0.0
C1320 C 0.8524 0.02082 0.77039 0.0
C1321 C 0.84968 0.02383 0.81379 0.0
H1322 H 0.85867 0.98717 0.71931 0.0
C1323 C 0.84421 -0.0041 0.83866 0.0
H1324 H 0.85698 0.04233 0.75105 0.0
C1325 C 0.84442 0.96461 0.82055 0.0
C1326 C 0.85132 0.96138 0.77786 0.0
H1327 H 0.84209 -0.00184 0.87229 0.0
H1328 H 0.84241 0.94302 0.84052 0.0
C1329 C 0.85364 0.98948 0.75243 0.0
C1330 C 0.73967 0.10268 0.59588 0.0
C1331 C 0.71094 0.10584 0.57186 0.0
H1332 H 0.79258 0.10237 0.59551 0.0
C1333 C 0.71284 0.10775 0.52821 0.0
H1334 H 0.73834 0.10117 0.62963 0.0
C1335 C 0.7436 0.10959 0.50895 0.0
C1336 C 0.77236 0.10834 0.53322 0.0
H1337 H 0.69069 0.11034 0.50934 0.0
H1338 H 0.74496 0.11329 0.47548 0.0
C1339 C 0.77042 0.10331 0.57646 0.0
C1340 C 0.62361 -0.00581 0.25973 0.0
C1341 C 0.62297 0.02236 0.28517 0.0
H1342 H 0.62381 0.94125 0.25809 0.0
C1343 C 0.6266 0.01955 0.32855 0.0
H1344 H 0.62106 -0.00373 0.22613 0.0
C1345 C 0.62713 0.98836 0.34679 0.0
C1346 C 0.62523 0.96015 0.32151 0.0
H1347 H 0.62618 0.04128 0.34849 0.0
H1348 H 0.62719 0.98624 0.38053 0.0
C1349 C 0.62533 0.963 0.2779 0.0
C1350 C 0.71157 0.87657 0.07776 0.0
C1351 C 0.70881 0.87679 1.03413 0.0
H1352 H 0.74473 0.87219 0.12966 0.0
C1353 C 0.73702 0.87905 1.00905 0.0
H1354 H 0.6898 0.87476 0.09741 0.0
C1355 C 0.76816 0.87863 1.02747 0.0
C1356 C 0.77091 0.87473 0.07082 0.0
H1357 H 0.73498 0.87935 0.9753 0.0
H1358 H 0.7899 0.87853 1.00764 0.0
C1359 C 0.74271 0.87496 0.09609 0.0
C1360 C 0.62729 0.49407 0.84693 0.0
C1361 C 0.626 0.52232 0.82173 0.0
H1362 H 0.62688 0.44113 0.84827 0.0
C1363 C 0.62777 0.51956 0.77816 0.0
H1364 H 0.62613 0.49611 0.88065 0.0
C1365 C 0.62711 0.4884 0.75973 0.0
C1366 C 0.62586 0.46015 0.78494 0.0
H1367 H 0.62679 0.54134 0.7584 0.0
H1368 H 0.62581 0.48636 0.72601 0.0
C1369 C 0.62782 0.46291 0.8285 0.0
C1370 C 0.76994 0.37638 0.08037 0.0
C1371 C 0.77299 0.37155 1.03721 0.0
H1372 H 0.73637 0.37874 0.13203 0.0
C1373 C 0.74493 0.37138 1.01158 0.0
H1374 H 0.79157 0.37659 0.10045 0.0
C1375 C 0.71367 0.37378 1.0294 0.0
C1376 C 0.71055 0.37519 0.07295 0.0
H1377 H 0.74716 0.36793 0.97813 0.0
H1378 H 0.69203 0.37179 1.00949 0.0
C1379 C 0.73865 0.37759 0.09834 0.0
C1380 C 0.84157 0.51781 0.32081 0.0
C1381 C 0.85073 0.52069 0.27879 0.0
H1382 H 0.83648 0.48473 0.37253 0.0
C1383 C 0.85387 0.49239 0.25375 0.0
H1384 H 0.83874 0.53954 0.34041 0.0
C1385 C 0.8515 0.46116 0.27183 0.0
C1386 C 0.84692 0.45854 0.31503 0.0
H1387 H 0.86046 0.49444 0.22105 0.0
H1388 H 0.85672 0.43944 0.253 0.0
C1389 C 0.84021 0.48668 0.3391 0.0
C1390 C 0.73682 0.60435 0.50945 0.0
C1391 C 0.70866 0.60627 0.53466 0.0
H1392 H 0.78969 0.60435 0.50799 0.0
C1393 C 0.71144 0.60542 0.57827 0.0
H1394 H 0.73474 0.60483 0.4757 0.0
C1395 C 0.7426 0.60628 0.59662 0.0
C1396 C 0.77078 0.6068 0.57131 0.0
H1397 H 0.68971 0.60692 0.59802 0.0
H1398 H 0.74468 0.60821 0.63028 0.0
C1399 C 0.76796 0.604 0.52783 0.0
C1400 C 0.35609 0.51849 0.27703 0.0
C1401 C 0.35564 0.52121 0.32066 0.0
H1402 H 0.36067 0.48535 0.22511 0.0
C1403 C 0.3533 0.49296 0.34571 0.0
H1404 H 0.35794 0.54031 0.25743 0.0
C1405 C 0.35381 0.46183 0.32725 0.0
C1406 C 0.35789 0.45912 0.28393 0.0
H1407 H 0.3528 0.49499 0.37946 0.0
H1408 H 0.35377 0.44005 0.34704 0.0
C1409 C 0.3578 0.48736 0.25867 0.0
C1410 C 0.24381 0.60433 1.00749 0.0
C1411 C 0.27178 0.60518 1.03325 0.0
H1412 H 0.19092 0.60466 1.00521 0.0
C1413 C 0.26859 0.60245 0.07668 0.0
H1414 H 0.24617 0.60621 0.97387 0.0
C1415 C 0.23727 0.60263 0.09453 0.0
C1416 C 0.2093 0.60435 0.06887 0.0
H1417 H 0.29014 0.60307 0.09686 0.0
H1418 H 0.2349 0.60325 0.12824 0.0
C1419 C 0.21248 0.60332 1.02532 0.0
C1420 C 0.12999 0.46165 0.77305 0.0
C1421 C 0.12481 0.45873 0.81615 0.0
H1422 H 0.13246 0.49515 0.72135 0.0
C1423 C 0.12516 0.48679 0.84181 0.0
H1424 H 0.12991 0.44 0.75297 0.0
C1425 C 0.12776 0.51803 0.82395 0.0
C1426 C 0.12887 0.52104 0.78039 0.0
H1427 H 0.12151 0.48462 0.87523 0.0
H1428 H 0.12577 0.5397 0.84383 0.0
C1429 C 0.13143 0.49292 0.75506 0.0
C1430 C 0.23853 0.38369 0.51212 0.0
C1431 C 0.21029 0.37896 0.53661 0.0
H1432 H 0.29135 0.38449 0.5111 0.0
C1433 C 0.21276 0.3764 0.58011 0.0
H1434 H 0.23666 0.3859 0.47847 0.0
C1435 C 0.24384 0.37449 0.59854 0.0
C1436 C 0.27216 0.37622 0.5735 0.0
H1437 H 0.19093 0.37277 0.59925 0.0
H1438 H 0.24576 0.36971 0.63175 0.0
C1439 C 0.26954 0.38291 0.53071 0.0
C1440 C 0.07627 0.10795 0.16012 0.0
C1441 C 0.09406 0.12829 0.13255 0.0
H1442 H 0.06697 0.09495 0.22399 0.0
C1443 C 0.11397 0.15384 0.14896 0.0
H1444 H 0.06113 0.08784 0.14826 0.0
C1445 C 0.11815 0.1572 0.19219 0.0
C1446 C 0.1014 0.13597 0.21964 0.0
H1447 H 0.12848 0.16944 0.12839 0.0
H1448 H 0.13571 0.17522 0.20409 0.0
C1449 C 0.0795 0.11214 0.20334 0.0
C1450 C 0.0775 0.87305 0.4414 0.0
C1451 C 0.09708 0.85409 0.46855 0.0
H1452 H 0.06635 0.88537 0.37781 0.0
C1453 C 0.11913 0.83067 0.45171 0.0
H1454 H 0.06069 0.89157 0.45366 0.0
C1455 C 0.12328 0.82798 0.40843 0.0
C1456 C 0.10449 0.84773 0.3813 0.0
H1457 H 0.135 0.81622 0.47203 0.0
H1458 H 0.14202 0.81141 0.39622 0.0
C1459 C 0.08071 0.86941 0.3981 0.0
C1460 C 0.39985 0.86925 0.70273 0.0
C1461 C 0.37657 0.84695 0.71939 0.0
H1462 H 0.41904 0.89236 0.64737 0.0
C1463 C 0.3579 0.8271 0.69214 0.0
H1464 H 0.41408 0.8853 0.72315 0.0
C1465 C 0.36162 0.83033 0.64889 0.0
C1466 C 0.38311 0.85439 0.63224 0.0
H1467 H 0.33949 0.81009 0.70428 0.0
H1468 H 0.34583 0.8158 0.6285 0.0
C1469 C 0.40264 0.8734 0.65948 0.0
C1470 C 0.4001 0.11225 0.90317 0.0
C1471 C 0.37611 0.13343 0.88584 0.0
H1472 H 0.41938 0.09002 0.95904 0.0
C1473 C 0.35625 0.15246 0.91263 0.0
H1474 H 0.41529 0.09684 0.88317 0.0
C1475 C 0.35942 0.14938 0.95601 0.0
C1476 C 0.38162 0.12629 0.97324 0.0
H1477 H 0.33731 0.16861 0.90002 0.0
H1478 H 0.3427 0.16315 0.97596 0.0
C1479 C 0.40239 0.10824 0.9465 0.0
C1480 C 0.89945 0.87083 0.89974 0.0
C1481 C 0.87594 0.84908 0.88235 0.0
H1482 H 0.919 0.89262 0.95586 0.0
C1483 C 0.85724 0.82879 0.90898 0.0
H1484 H 0.91375 0.88717 0.87986 0.0
C1485 C 0.86114 0.83107 0.95234 0.0
C1486 C 0.88287 0.85458 0.96979 0.0
H1487 H 0.8387 0.81213 0.89631 0.0
H1488 H 0.84531 0.81622 0.97225 0.0
C1489 C 0.90242 0.87403 0.94314 0.0
C1490 C 0.85129 0.10571 0.69757 0.0
C1491 C 0.86865 0.13021 0.71978 0.0
H1492 H 0.84201 0.0817 0.64007 0.0
C1493 C 0.89156 0.15015 0.69803 0.0
H1494 H 0.83366 0.08957 0.71294 0.0
C1495 C 0.89599 0.14596 0.65442 0.0
C1496 C 0.87858 0.12086 0.63286 0.0
H1497 H 0.9054 0.16917 0.71438 0.0
H1498 H 0.91307 0.16191 0.63783 0.0
C1499 C 0.8564 0.10091 0.65533 0.0
C1500 C 0.61901 0.15028 0.45665 0.0
C1501 C 0.59769 0.1264 0.47401 0.0
H1502 H 0.64009 0.17043 0.40054 0.0
C1503 C 0.57746 0.10757 0.44735 0.0
H1504 H 0.63532 0.16469 0.47653 0.0
C1505 C 0.57934 0.11175 0.40399 0.0
C1506 C 0.60241 0.13391 0.38654 0.0
H1507 H 0.56114 0.08874 0.45997 0.0
H1508 H 0.56456 0.09583 0.38405 0.0
C1509 C 0.62182 0.15354 0.41325 0.0
C1510 C 0.61889 0.83194 0.15043 0.0
C1511 C 0.59717 0.85569 0.13365 0.0
H1512 H 0.64128 0.8121 0.20593 0.0
C1513 C 0.57765 0.87469 0.16083 0.0
H1514 H 0.63469 0.81743 0.13011 0.0
C1515 C 0.58059 0.87076 0.20411 0.0
C1516 C 0.60403 0.8487 0.2209 0.0
H1517 H 0.56108 0.89345 0.14863 0.0
H1518 H 0.5663 0.88676 0.22445 0.0
C1519 C 0.62276 0.82893 0.19372 0.0
C1520 C 0.6229 0.65386 0.6944 0.0
C1521 C 0.60405 0.63418 0.72155 0.0
H1522 H 0.63482 0.6653 0.6308 0.0
C1523 C 0.58033 0.61234 0.70478 0.0
H1524 H 0.64162 0.67053 0.70661 0.0
C1525 C 0.57726 0.60846 0.6615 0.0
C1526 C 0.59693 0.62732 0.63435 0.0
H1527 H 0.56594 0.59642 0.7251 0.0
H1528 H 0.56051 0.58981 0.64928 0.0
C1529 C 0.61889 0.65092 0.65113 0.0
C1530 C 0.58079 0.36948 0.90155 0.0
C1531 C 0.60431 0.34761 0.88458 0.0
H1532 H 0.56159 0.39217 0.95719 0.0
C1533 C 0.62339 0.32801 0.91157 0.0
H1534 H 0.56625 0.38535 0.88135 0.0
C1535 C 0.61986 0.33111 0.95487 0.0
C1536 C 0.59815 0.35479 0.97181 0.0
H1537 H 0.64198 0.31135 0.89919 0.0
H1538 H 0.63596 0.31681 0.97506 0.0
C1539 C 0.57818 0.37351 0.94484 0.0
C1540 C 0.90439 0.37369 0.16427 0.0
C1541 C 0.88677 0.35271 0.1371 0.0
H1542 H 0.91382 0.38793 0.22783 0.0
C1543 C 0.8673 0.3272 0.15429 0.0
H1544 H 0.91918 0.39384 0.15191 0.0
C1545 C 0.86338 0.32451 0.1977 0.0
C1546 C 0.87988 0.34642 0.2248 0.0
H1547 H 0.8529 0.3111 0.13415 0.0
H1548 H 0.84613 0.30641 0.21003 0.0
C1549 C 0.90143 0.3702 0.20772 0.0
C1550 C 0.90079 0.61036 0.40088 0.0
C1551 C 0.8778 0.63272 0.38379 0.0
H1552 H 0.91964 0.58764 0.45669 0.0
C1553 C 0.85954 0.6532 0.41065 0.0
H1554 H 0.91472 0.59387 0.38078 0.0
C1555 C 0.86327 0.65045 0.45397 0.0
C1556 C 0.88434 0.62628 0.47109 0.0
H1557 H 0.84139 0.6703 0.39819 0.0
H1558 H 0.84771 0.66542 0.47405 0.0
C1559 C 0.90357 0.60671 0.44422 0.0
C1560 C 0.35855 0.32678 0.41132 0.0
C1561 C 0.37767 0.34638 0.38436 0.0
H1562 H 0.34612 0.31544 0.47481 0.0
C1563 C 0.40134 0.36815 0.4014 0.0
H1564 H 0.33985 0.3102 0.39891 0.0
C1565 C 0.40409 0.37206 0.44472 0.0
C1566 C 0.38414 0.35331 0.47167 0.0
H1567 H 0.41592 0.38402 0.38124 0.0
H1568 H 0.4208 0.39067 0.45711 0.0
C1569 C 0.36224 0.32975 0.45465 0.0
C1570 C 0.40008 0.61186 0.20512 0.0
C1571 C 0.37643 0.63371 0.22185 0.0
H1572 H 0.41989 0.58945 0.14963 0.0
C1573 C 0.35774 0.65354 0.19471 0.0
H1574 H 0.41432 0.59583 0.22545 0.0
C1575 C 0.36182 0.65072 0.15145 0.0
C1576 C 0.38368 0.62709 0.13469 0.0
H1577 H 0.33907 0.6702 0.2069 0.0
H1578 H 0.34601 0.6652 0.13111 0.0
C1579 C 0.40322 0.60811 0.16185 0.0
C1580 C 0.08044 0.60936 0.89828 0.0
C1581 C 0.10279 0.63255 0.88153 0.0
H1582 H 0.06199 0.58588 0.95378 0.0
C1583 C 0.12023 0.65357 0.9087 0.0
H1584 H 0.06719 0.59243 0.87796 0.0
C1585 C 0.11637 0.65058 0.95199 0.0
C1586 C 0.096 0.62564 0.9688 0.0
H1587 H 0.1379 0.67132 0.89652 0.0
H1588 H 0.13134 0.66603 0.97228 0.0
C1589 C 0.07754 0.60551 0.94159 0.0
C1590 C 0.07626 0.36395 0.69779 0.0
C1591 C 0.10171 0.34465 0.71532 0.0
H1592 H 0.05602 0.38519 0.64179 0.0
C1593 C 0.12296 0.32709 0.68856 0.0
H1594 H 0.05991 0.37825 0.71765 0.0
C1595 C 0.1199 0.33017 0.64513 0.0
C1596 C 0.09625 0.35166 0.62781 0.0
H1597 H 0.143 0.31236 0.70123 0.0
H1598 H 0.13787 0.31798 0.62526 0.0
C1599 C 0.07399 0.36796 0.65442 0.0
loop_
_geom_bond_atom_site_label_1
_geom_bond_atom_site_label_2
_geom_bond_distance
_geom_bond_site_symmetry_2
_ccdc_geom_bond_type
Dy0 O4 2.398 . S
Dy0 O5 2.491 . S
Dy0 O6 2.403 . S
Dy0 O7 2.664 . S
Dy0 O11 2.326 . S
Dy0 O15 2.310 . S
Dy0 O16 2.351 . S
C1 O12 1.185 . S
C1 O13 1.355 . S
C2 O4 1.185 . S
C2 O5 1.355 . S
Dy3 O7 2.310 . S
Dy3 O10 2.351 . S
Dy3 O12 2.398 . S
Dy3 O13 2.491 . S
Dy3 O14 2.403 . S
Dy3 O15 2.664 . S
Dy3 O17 2.326 . S
O4 Dy0 2.398 . S
O4 C2 1.185 . S
O5 Dy0 2.491 . S
O5 C2 1.355 . S
O6 Dy0 2.403 . S
O6 C8 1.254 . S
O7 Dy0 2.664 . S
O7 Dy3 2.310 . S
O7 C8 1.268 . S
C8 O6 1.254 . S
C8 O7 1.268 . S
C9 O14 1.254 . S
C9 O15 1.268 . S
O10 Dy3 2.351 . S
O10 C18 1.249 . S
O11 Dy0 2.326 . S
O11 C18 1.267 . S
O12 C1 1.185 . S
O12 Dy3 2.398 . S
O13 C1 1.355 . S
O13 Dy3 2.491 . S
O14 Dy3 2.403 . S
O14 C9 1.254 . S
O15 Dy0 2.310 . S
O15 Dy3 2.664 . S
O15 C9 1.268 . S
O16 Dy0 2.351 . S
O16 C19 1.249 . S
O17 Dy3 2.326 . S
O17 C19 1.267 . S
C18 O10 1.249 . S
C18 O11 1.267 . S
C19 O16 1.249 . S
C19 O17 1.267 . S
Dy20 O24 2.398 . S
Dy20 O25 2.491 . S
Dy20 O26 2.403 . S
Dy20 O27 2.664 . S
Dy20 O31 2.326 . S
Dy20 O35 2.310 . S
Dy20 O36 2.351 . S
C21 O32 1.185 . S
C21 O33 1.355 . S
C22 O24 1.185 . S
C22 O25 1.355 . S
Dy23 O27 2.310 . S
Dy23 O30 2.351 . S
Dy23 O32 2.398 . S
Dy23 O33 2.491 . S
Dy23 O34 2.403 . S
Dy23 O35 2.664 . S
Dy23 O37 2.326 . S
O24 Dy20 2.398 . S
O24 C22 1.185 . S
O25 Dy20 2.491 . S
O25 C22 1.355 . S
O26 Dy20 2.403 . S
O26 C28 1.254 . S
O27 Dy20 2.664 . S
O27 Dy23 2.310 . S
O27 C28 1.268 . S
C28 O26 1.254 . S
C28 O27 1.268 . S
C29 O34 1.254 . S
C29 O35 1.268 . S
O30 Dy23 2.351 . S
O30 C38 1.249 . S
O31 Dy20 2.326 . S
O31 C38 1.267 . S
O32 C21 1.185 . S
O32 Dy23 2.398 . S
O33 C21 1.355 . S
O33 Dy23 2.491 . S
O34 Dy23 2.403 . S
O34 C29 1.254 . S
O35 Dy20 2.310 . S
O35 Dy23 2.664 . S
O35 C29 1.268 . S
O36 Dy20 2.351 . S
O36 C39 1.249 . S
O37 Dy23 2.326 . S
O37 C39 1.267 . S
C38 O30 1.249 . S
C38 O31 1.267 . S
C39 O36 1.249 . S
C39 O37 1.267 . S
Dy40 O44 2.398 . S
Dy40 O45 2.491 . S
Dy40 O46 2.403 . S
Dy40 O47 2.664 . S
Dy40 O51 2.326 . S
Dy40 O55 2.310 . S
Dy40 O56 2.351 . S
C41 O52 1.185 . S
C41 O53 1.355 . S
C42 O44 1.185 . S
C42 O45 1.355 . S
Dy43 O47 2.310 . S
Dy43 O50 2.351 . S
Dy43 O52 2.398 . S
Dy43 O53 2.491 . S
Dy43 O54 2.403 . S
Dy43 O55 2.664 . S
Dy43 O57 2.326 . S
O44 Dy40 2.398 . S
O44 C42 1.185 . S
O45 Dy40 2.491 . S
O45 C42 1.355 . S
O46 Dy40 2.403 . S
O46 C48 1.254 . S
O47 Dy40 2.664 . S
O47 Dy43 2.310 . S
O47 C48 1.268 . S
C48 O46 1.254 . S
C48 O47 1.268 . S
C49 O54 1.254 . S
C49 O55 1.268 . S
O50 Dy43 2.351 . S
O50 C58 1.249 . S
O51 Dy40 2.326 . S
O51 C58 1.267 . S
O52 C41 1.185 . S
O52 Dy43 2.398 . S
O53 C41 1.355 . S
O53 Dy43 2.491 . S
O54 Dy43 2.403 . S
O54 C49 1.254 . S
O55 Dy40 2.310 . S
O55 Dy43 2.664 . S
O55 C49 1.268 . S
O56 Dy40 2.351 . S
O56 C59 1.249 . S
O57 Dy43 2.326 . S
O57 C59 1.267 . S
C58 O50 1.249 . S
C58 O51 1.267 . S
C59 O56 1.249 . S
C59 O57 1.267 . S
Dy60 O64 2.398 . S
Dy60 O65 2.491 1_554 S
Dy60 O66 2.403 . S
Dy60 O67 2.664 . S
Dy60 O71 2.326 1_554 S
Dy60 O75 2.310 . S
Dy60 O76 2.351 . S
C61 O72 1.185 . S
C61 O73 1.355 . S
C62 O64 1.185 1_556 S
C62 O65 1.355 . S
Dy63 O67 2.310 . S
Dy63 O70 2.351 1_554 S
Dy63 O72 2.398 . S
Dy63 O73 2.491 . S
Dy63 O74 2.403 . S
Dy63 O75 2.664 . S
Dy63 O77 2.326 . S
O64 Dy60 2.398 . S
O64 C62 1.185 1_554 S
O65 Dy60 2.491 1_556 S
O65 C62 1.355 . S
O66 Dy60 2.403 . S
O66 C68 1.254 . S
O67 Dy60 2.664 . S
O67 Dy63 2.310 . S
O67 C68 1.268 . S
C68 O66 1.254 . S
C68 O67 1.268 . S
C69 O74 1.254 . S
C69 O75 1.268 . S
O70 Dy63 2.351 1_556 S
O70 C78 1.249 . S
O71 Dy60 2.326 1_556 S
O71 C78 1.267 . S
O72 C61 1.185 . S
O72 Dy63 2.398 . S
O73 C61 1.355 . S
O73 Dy63 2.491 . S
O74 Dy63 2.403 . S
O74 C69 1.254 . S
O75 Dy60 2.310 . S
O75 Dy63 2.664 . S
O75 C69 1.268 . S
O76 Dy60 2.351 . S
O76 C79 1.249 . S
O77 Dy63 2.326 . S
O77 C79 1.267 . S
C78 O70 1.249 . S
C78 O71 1.267 . S
C79 O76 1.249 . S
C79 O77 1.267 . S
Dy80 O84 2.398 . S
Dy80 O85 2.491 . S
Dy80 O86 2.403 . S
Dy80 O87 2.664 . S
Dy80 O91 2.326 . S
Dy80 O95 2.310 . S
Dy80 O96 2.351 . S
C81 O92 1.185 . S
C81 O93 1.355 . S
C82 O84 1.185 . S
C82 O85 1.355 . S
Dy83 O87 2.310 . S
Dy83 O90 2.351 . S
Dy83 O92 2.398 . S
Dy83 O93 2.491 . S
Dy83 O94 2.403 . S
Dy83 O95 2.664 . S
Dy83 O97 2.326 . S
O84 Dy80 2.398 . S
O84 C82 1.185 . S
O85 Dy80 2.491 . S
O85 C82 1.355 . S
O86 Dy80 2.403 . S
O86 C88 1.254 . S
O87 Dy80 2.664 . S
O87 Dy83 2.310 . S
O87 C88 1.268 . S
C88 O86 1.254 . S
C88 O87 1.268 . S
C89 O94 1.254 . S
C89 O95 1.268 . S
O90 Dy83 2.351 . S
O90 C98 1.249 . S
O91 Dy80 2.326 . S
O91 C98 1.267 . S
O92 C81 1.185 . S
O92 Dy83 2.398 . S
O93 C81 1.355 . S
O93 Dy83 2.491 . S
O94 Dy83 2.403 . S
O94 C89 1.254 . S
O95 Dy80 2.310 . S
O95 Dy83 2.664 . S
O95 C89 1.268 . S
O96 Dy80 2.351 . S
O96 C99 1.249 . S
O97 Dy83 2.326 . S
O97 C99 1.267 . S
C98 O90 1.249 . S
C98 O91 1.267 . S
C99 O96 1.249 . S
C99 O97 1.267 . S
Dy100 O104 2.398 . S
Dy100 O105 2.491 . S
Dy100 O106 2.403 . S
Dy100 O107 2.664 . S
Dy100 O111 2.326 . S
Dy100 O115 2.310 . S
Dy100 O116 2.351 . S
C101 O112 1.185 . S
C101 O113 1.355 . S
C102 O104 1.185 . S
C102 O105 1.355 . S
Dy103 O107 2.310 . S
Dy103 O110 2.351 . S
Dy103 O112 2.398 . S
Dy103 O113 2.491 . S
Dy103 O114 2.403 . S
Dy103 O115 2.664 . S
Dy103 O117 2.326 . S
O104 Dy100 2.398 . S
O104 C102 1.185 . S
O105 Dy100 2.491 . S
O105 C102 1.355 . S
O106 Dy100 2.403 . S
O106 C108 1.254 . S
O107 Dy100 2.664 . S
O107 Dy103 2.310 . S
O107 C108 1.268 . S
C108 O106 1.254 . S
C108 O107 1.268 . S
C109 O114 1.254 . S
C109 O115 1.268 . S
O110 Dy103 2.351 . S
O110 C118 1.249 . S
O111 Dy100 2.326 . S
O111 C118 1.267 . S
O112 C101 1.185 . S
O112 Dy103 2.398 . S
O113 C101 1.355 . S
O113 Dy103 2.491 . S
O114 Dy103 2.403 . S
O114 C109 1.254 . S
O115 Dy100 2.310 . S
O115 Dy103 2.664 . S
O115 C109 1.268 . S
O116 Dy100 2.351 . S
O116 C119 1.249 . S
O117 Dy103 2.326 . S
O117 C119 1.267 . S
C118 O110 1.249 . S
C118 O111 1.267 . S
C119 O116 1.249 . S
C119 O117 1.267 . S
Dy120 O124 2.398 . S
Dy120 O125 2.491 . S
Dy120 O126 2.403 . S
Dy120 O127 2.664 . S
Dy120 O131 2.326 . S
Dy120 O135 2.310 . S
Dy120 O136 2.351 . S
C121 O132 1.185 . S
C121 O133 1.355 . S
C122 O124 1.185 . S
C122 O125 1.355 . S
Dy123 O127 2.310 . S
Dy123 O130 2.351 . S
Dy123 O132 2.398 . S
Dy123 O133 2.491 . S
Dy123 O134 2.403 . S
Dy123 O135 2.664 . S
Dy123 O137 2.326 . S
O124 Dy120 2.398 . S
O124 C122 1.185 . S
O125 Dy120 2.491 . S
O125 C122 1.355 . S
O126 Dy120 2.403 . S
O126 C128 1.254 . S
O127 Dy120 2.664 . S
O127 Dy123 2.310 . S
O127 C128 1.268 . S
C128 O126 1.254 . S
C128 O127 1.268 . S
C129 O134 1.254 . S
C129 O135 1.268 . S
O130 Dy123 2.351 . S
O130 C138 1.249 . S
O131 Dy120 2.326 . S
O131 C138 1.267 . S
O132 C121 1.185 . S
O132 Dy123 2.398 . S
O133 C121 1.355 . S
O133 Dy123 2.491 . S
O134 Dy123 2.403 . S
O134 C129 1.254 . S
O135 Dy120 2.310 . S
O135 Dy123 2.664 . S
O135 C129 1.268 . S
O136 Dy120 2.351 . S
O136 C139 1.249 . S
O137 Dy123 2.326 . S
O137 C139 1.267 . S
C138 O130 1.249 . S
C138 O131 1.267 . S
C139 O136 1.249 . S
C139 O137 1.267 . S
Dy140 O144 2.398 . S
Dy140 O145 2.491 1_556 S
Dy140 O146 2.403 . S
Dy140 O147 2.664 . S
Dy140 O151 2.326 1_556 S
Dy140 O155 2.310 . S
Dy140 O156 2.351 . S
C141 O152 1.185 . S
C141 O153 1.355 . S
C142 O144 1.185 1_554 S
C142 O145 1.355 . S
Dy143 O147 2.310 . S
Dy143 O150 2.351 1_556 S
Dy143 O152 2.398 . S
Dy143 O153 2.491 . S
Dy143 O154 2.403 . S
Dy143 O155 2.664 . S
Dy143 O157 2.326 . S
O144 Dy140 2.398 . S
O144 C142 1.185 1_556 S
O145 Dy140 2.491 1_554 S
O145 C142 1.355 . S
O146 Dy140 2.403 . S
O146 C148 1.254 . S
O147 Dy140 2.664 . S
O147 Dy143 2.310 . S
O147 C148 1.268 . S
C148 O146 1.254 . S
C148 O147 1.268 . S
C149 O154 1.254 . S
C149 O155 1.268 . S
O150 Dy143 2.351 1_554 S
O150 C158 1.249 . S
O151 Dy140 2.326 1_554 S
O151 C158 1.267 . S
O152 C141 1.185 . S
O152 Dy143 2.398 . S
O153 C141 1.355 . S
O153 Dy143 2.491 . S
O154 Dy143 2.403 . S
O154 C149 1.254 . S
O155 Dy140 2.310 . S
O155 Dy143 2.664 . S
O155 C149 1.268 . S
O156 Dy140 2.351 . S
O156 C159 1.249 . S
O157 Dy143 2.326 . S
O157 C159 1.267 . S
C158 O150 1.249 . S
C158 O151 1.267 . S
C159 O156 1.249 . S
C159 O157 1.267 . S
Dy160 O164 2.398 . S
Dy160 O165 2.491 . S
Dy160 O166 2.403 . S
Dy160 O167 2.664 . S
Dy160 O171 2.326 . S
Dy160 O175 2.310 . S
Dy160 O176 2.351 . S
C161 O172 1.185 . S
C161 O173 1.355 . S
C162 O164 1.185 . S
C162 O165 1.355 . S
Dy163 O167 2.310 . S
Dy163 O170 2.351 . S
Dy163 O172 2.398 . S
Dy163 O173 2.491 . S
Dy163 O174 2.403 . S
Dy163 O175 2.664 . S
Dy163 O177 2.326 . S
O164 Dy160 2.398 . S
O164 C162 1.185 . S
O165 Dy160 2.491 . S
O165 C162 1.355 . S
O166 Dy160 2.403 . S
O166 C168 1.254 . S
O167 Dy160 2.664 . S
O167 Dy163 2.310 . S
O167 C168 1.268 . S
C168 O166 1.254 . S
C168 O167 1.268 . S
C169 O174 1.254 . S
C169 O175 1.268 . S
O170 Dy163 2.351 . S
O170 C178 1.249 . S
O171 Dy160 2.326 . S
O171 C178 1.267 . S
O172 C161 1.185 . S
O172 Dy163 2.398 . S
O173 C161 1.355 . S
O173 Dy163 2.491 . S
O174 Dy163 2.403 . S
O174 C169 1.254 . S
O175 Dy160 2.310 . S
O175 Dy163 2.664 . S
O175 C169 1.268 . S
O176 Dy160 2.351 . S
O176 C179 1.249 . S
O177 Dy163 2.326 . S
O177 C179 1.267 . S
C178 O170 1.249 . S
C178 O171 1.267 . S
C179 O176 1.249 . S
C179 O177 1.267 . S
Dy180 O184 2.398 . S
Dy180 O185 2.491 . S
Dy180 O186 2.403 . S
Dy180 O187 2.664 . S
Dy180 O191 2.326 . S
Dy180 O195 2.310 . S
Dy180 O196 2.351 . S
C181 O192 1.185 . S
C181 O193 1.355 . S
C182 O184 1.185 . S
C182 O185 1.355 . S
Dy183 O187 2.310 . S
Dy183 O190 2.351 . S
Dy183 O192 2.398 . S
Dy183 O193 2.491 . S
Dy183 O194 2.403 . S
Dy183 O195 2.664 . S
Dy183 O197 2.326 . S
O184 Dy180 2.398 . S
O184 C182 1.185 . S
O185 Dy180 2.491 . S
O185 C182 1.355 . S
O186 Dy180 2.403 . S
O186 C188 1.254 . S
O187 Dy180 2.664 . S
O187 Dy183 2.310 . S
O187 C188 1.268 . S
C188 O186 1.254 . S
C188 O187 1.268 . S
C189 O194 1.254 . S
C189 O195 1.268 . S
O190 Dy183 2.351 . S
O190 C198 1.249 . S
O191 Dy180 2.326 . S
O191 C198 1.267 . S
O192 C181 1.185 . S
O192 Dy183 2.398 . S
O193 C181 1.355 . S
O193 Dy183 2.491 . S
O194 Dy183 2.403 . S
O194 C189 1.254 . S
O195 Dy180 2.310 . S
O195 Dy183 2.664 . S
O195 C189 1.268 . S
O196 Dy180 2.351 . S
O196 C199 1.249 . S
O197 Dy183 2.326 . S
O197 C199 1.267 . S
C198 O190 1.249 . S
C198 O191 1.267 . S
C199 O196 1.249 . S
C199 O197 1.267 . S
Dy200 O204 2.398 . S
Dy200 O205 2.491 . S
Dy200 O206 2.403 . S
Dy200 O207 2.664 . S
Dy200 O211 2.326 . S
Dy200 O215 2.310 . S
Dy200 O216 2.351 . S
C201 O212 1.185 . S
C201 O213 1.355 . S
C202 O204 1.185 . S
C202 O205 1.355 . S
Dy203 O207 2.310 . S
Dy203 O210 2.351 . S
Dy203 O212 2.398 . S
Dy203 O213 2.491 . S
Dy203 O214 2.403 . S
Dy203 O215 2.664 . S
Dy203 O217 2.326 . S
O204 Dy200 2.398 . S
O204 C202 1.185 . S
O205 Dy200 2.491 . S
O205 C202 1.355 . S
O206 Dy200 2.403 . S
O206 C208 1.254 . S
O207 Dy200 2.664 . S
O207 Dy203 2.310 . S
O207 C208 1.268 . S
C208 O206 1.254 . S
C208 O207 1.268 . S
C209 O214 1.254 . S
C209 O215 1.268 . S
O210 Dy203 2.351 . S
O210 C218 1.249 . S
O211 Dy200 2.326 . S
O211 C218 1.267 . S
O212 C201 1.185 . S
O212 Dy203 2.398 . S
O213 C201 1.355 . S
O213 Dy203 2.491 . S
O214 Dy203 2.403 . S
O214 C209 1.254 . S
O215 Dy200 2.310 . S
O215 Dy203 2.664 . S
O215 C209 1.268 . S
O216 Dy200 2.351 . S
O216 C219 1.249 . S
O217 Dy203 2.326 . S
O217 C219 1.267 . S
C218 O210 1.249 . S
C218 O211 1.267 . S
C219 O216 1.249 . S
C219 O217 1.267 . S
Dy220 O224 2.398 . S
Dy220 O225 2.491 . S
Dy220 O226 2.403 . S
Dy220 O227 2.664 . S
Dy220 O231 2.326 . S
Dy220 O235 2.310 . S
Dy220 O236 2.351 1_556 S
C221 O232 1.185 1_554 S
C221 O233 1.355 . S
C222 O224 1.185 . S
C222 O225 1.355 . S
Dy223 O227 2.310 . S
Dy223 O230 2.351 . S
Dy223 O232 2.398 . S
Dy223 O233 2.491 1_556 S
Dy223 O234 2.403 . S
Dy223 O235 2.664 . S
Dy223 O237 2.326 1_556 S
O224 Dy220 2.398 . S
O224 C222 1.185 . S
O225 Dy220 2.491 . S
O225 C222 1.355 . S
O226 Dy220 2.403 . S
O226 C228 1.254 . S
O227 Dy220 2.664 . S
O227 Dy223 2.310 . S
O227 C228 1.268 . S
C228 O226 1.254 . S
C228 O227 1.268 . S
C229 O234 1.254 . S
C229 O235 1.268 . S
O230 Dy223 2.351 . S
O230 C238 1.249 . S
O231 Dy220 2.326 . S
O231 C238 1.267 . S
O232 C221 1.185 1_556 S
O232 Dy223 2.398 . S
O233 C221 1.355 . S
O233 Dy223 2.491 1_554 S
O234 Dy223 2.403 . S
O234 C229 1.254 . S
O235 Dy220 2.310 . S
O235 Dy223 2.664 . S
O235 C229 1.268 . S
O236 Dy220 2.351 1_554 S
O236 C239 1.249 . S
O237 Dy223 2.326 1_554 S
O237 C239 1.267 . S
C238 O230 1.249 . S
C238 O231 1.267 . S
C239 O236 1.249 . S
C239 O237 1.267 . S
Dy240 O244 2.398 . S
Dy240 O245 2.491 . S
Dy240 O246 2.403 . S
Dy240 O247 2.664 . S
Dy240 O251 2.326 . S
Dy240 O255 2.310 . S
Dy240 O256 2.351 . S
C241 O252 1.185 . S
C241 O253 1.355 . S
C242 O244 1.185 . S
C242 O245 1.355 . S
Dy243 O247 2.310 . S
Dy243 O250 2.351 . S
Dy243 O252 2.398 . S
Dy243 O253 2.491 . S
Dy243 O254 2.403 . S
Dy243 O255 2.664 . S
Dy243 O257 2.326 . S
O244 Dy240 2.398 . S
O244 C242 1.185 . S
O245 Dy240 2.491 . S
O245 C242 1.355 . S
O246 Dy240 2.403 . S
O246 C248 1.254 . S
O247 Dy240 2.664 . S
O247 Dy243 2.310 . S
O247 C248 1.268 . S
C248 O246 1.254 . S
C248 O247 1.268 . S
C249 O254 1.254 . S
C249 O255 1.268 . S
O250 Dy243 2.351 . S
O250 C258 1.249 . S
O251 Dy240 2.326 . S
O251 C258 1.267 . S
O252 C241 1.185 . S
O252 Dy243 2.398 . S
O253 C241 1.355 . S
O253 Dy243 2.491 . S
O254 Dy243 2.403 . S
O254 C249 1.254 . S
O255 Dy240 2.310 . S
O255 Dy243 2.664 . S
O255 C249 1.268 . S
O256 Dy240 2.351 . S
O256 C259 1.249 . S
O257 Dy243 2.326 . S
O257 C259 1.267 . S
C258 O250 1.249 . S
C258 O251 1.267 . S
C259 O256 1.249 . S
C259 O257 1.267 . S
Dy260 O264 2.398 . S
Dy260 O265 2.491 . S
Dy260 O266 2.403 . S
Dy260 O267 2.664 . S
Dy260 O271 2.326 . S
Dy260 O275 2.310 . S
Dy260 O276 2.351 . S
C261 O272 1.185 . S
C261 O273 1.355 . S
C262 O264 1.185 . S
C262 O265 1.355 . S
Dy263 O267 2.310 . S
Dy263 O270 2.351 . S
Dy263 O272 2.398 . S
Dy263 O273 2.491 . S
Dy263 O274 2.403 . S
Dy263 O275 2.664 . S
Dy263 O277 2.326 . S
O264 Dy260 2.398 . S
O264 C262 1.185 . S
O265 Dy260 2.491 . S
O265 C262 1.355 . S
O266 Dy260 2.403 . S
O266 C268 1.254 . S
O267 Dy260 2.664 . S
O267 Dy263 2.310 . S
O267 C268 1.268 . S
C268 O266 1.254 . S
C268 O267 1.268 . S
C269 O274 1.254 . S
C269 O275 1.268 . S
O270 Dy263 2.351 . S
O270 C278 1.249 . S
O271 Dy260 2.326 . S
O271 C278 1.267 . S
O272 C261 1.185 . S
O272 Dy263 2.398 . S
O273 C261 1.355 . S
O273 Dy263 2.491 . S
O274 Dy263 2.403 . S
O274 C269 1.254 . S
O275 Dy260 2.310 . S
O275 Dy263 2.664 . S
O275 C269 1.268 . S
O276 Dy260 2.351 . S
O276 C279 1.249 . S
O277 Dy263 2.326 . S
O277 C279 1.267 . S
C278 O270 1.249 . S
C278 O271 1.267 . S
C279 O276 1.249 . S
C279 O277 1.267 . S
Dy280 O284 2.398 . S
Dy280 O285 2.491 . S
Dy280 O286 2.403 . S
Dy280 O287 2.664 . S
Dy280 O291 2.326 . S
Dy280 O295 2.310 . S
Dy280 O296 2.351 . S
C281 O292 1.185 . S
C281 O293 1.355 . S
C282 O284 1.185 . S
C282 O285 1.355 . S
Dy283 O287 2.310 . S
Dy283 O290 2.351 . S
Dy283 O292 2.398 . S
Dy283 O293 2.491 . S
Dy283 O294 2.403 . S
Dy283 O295 2.664 . S
Dy283 O297 2.326 . S
O284 Dy280 2.398 . S
O284 C282 1.185 . S
O285 Dy280 2.491 . S
O285 C282 1.355 . S
O286 Dy280 2.403 . S
O286 C288 1.254 . S
O287 Dy280 2.664 . S
O287 Dy283 2.310 . S
O287 C288 1.268 . S
C288 O286 1.254 . S
C288 O287 1.268 . S
C289 O294 1.254 . S
C289 O295 1.268 . S
O290 Dy283 2.351 . S
O290 C298 1.249 . S
O291 Dy280 2.326 . S
O291 C298 1.267 . S
O292 C281 1.185 . S
O292 Dy283 2.398 . S
O293 C281 1.355 . S
O293 Dy283 2.491 . S
O294 Dy283 2.403 . S
O294 C289 1.254 . S
O295 Dy280 2.310 . S
O295 Dy283 2.664 . S
O295 C289 1.268 . S
O296 Dy280 2.351 . S
O296 C299 1.249 . S
O297 Dy283 2.326 . S
O297 C299 1.267 . S
C298 O290 1.249 . S
C298 O291 1.267 . S
C299 O296 1.249 . S
C299 O297 1.267 . S
Dy300 O304 2.398 . S
Dy300 O305 2.491 . S
Dy300 O306 2.403 . S
Dy300 O307 2.664 . S
Dy300 O311 2.326 . S
Dy300 O315 2.310 . S
Dy300 O316 2.351 1_554 S
C301 O312 1.185 1_556 S
C301 O313 1.355 . S
C302 O304 1.185 . S
C302 O305 1.355 . S
Dy303 O307 2.310 . S
Dy303 O310 2.351 . S
Dy303 O312 2.398 . S
Dy303 O313 2.491 1_554 S
Dy303 O314 2.403 . S
Dy303 O315 2.664 . S
Dy303 O317 2.326 1_554 S
O304 Dy300 2.398 . S
O304 C302 1.185 . S
O305 Dy300 2.491 . S
O305 C302 1.355 . S
O306 Dy300 2.403 . S
O306 C308 1.254 . S
O307 Dy300 2.664 . S
O307 Dy303 2.310 . S
O307 C308 1.268 . S
C308 O306 1.254 . S
C308 O307 1.268 . S
C309 O314 1.254 . S
C309 O315 1.268 . S
O310 Dy303 2.351 . S
O310 C318 1.249 . S
O311 Dy300 2.326 . S
O311 C318 1.267 . S
O312 C301 1.185 1_554 S
O312 Dy303 2.398 . S
O313 C301 1.355 . S
O313 Dy303 2.491 1_556 S
O314 Dy303 2.403 . S
O314 C309 1.254 . S
O315 Dy300 2.310 . S
O315 Dy303 2.664 . S
O315 C309 1.268 . S
O316 Dy300 2.351 1_556 S
O316 C319 1.249 . S
O317 Dy303 2.326 1_556 S
O317 C319 1.267 . S
C318 O310 1.249 . S
C318 O311 1.267 . S
C319 O316 1.249 . S
C319 O317 1.267 . S
Dy320 O324 2.398 . S
Dy320 O325 2.491 . S
Dy320 O326 2.403 . S
Dy320 O327 2.664 . S
Dy320 O331 2.326 . S
Dy320 O335 2.310 . S
Dy320 O336 2.351 . S
C321 O332 1.185 . S
C321 O333 1.355 . S
C322 O324 1.185 . S
C322 O325 1.355 . S
Dy323 O327 2.310 . S
Dy323 O330 2.351 . S
Dy323 O332 2.398 . S
Dy323 O333 2.491 . S
Dy323 O334 2.403 . S
Dy323 O335 2.664 . S
Dy323 O337 2.326 . S
O324 Dy320 2.398 . S
O324 C322 1.185 . S
O325 Dy320 2.491 . S
O325 C322 1.355 . S
O326 Dy320 2.403 . S
O326 C328 1.254 . S
O327 Dy320 2.664 . S
O327 Dy323 2.310 . S
O327 C328 1.268 . S
C328 O326 1.254 . S
C328 O327 1.268 . S
C329 O334 1.254 . S
C329 O335 1.268 . S
O330 Dy323 2.351 . S
O330 C338 1.249 . S
O331 Dy320 2.326 . S
O331 C338 1.267 . S
O332 C321 1.185 . S
O332 Dy323 2.398 . S
O333 C321 1.355 . S
O333 Dy323 2.491 . S
O334 Dy323 2.403 . S
O334 C329 1.254 . S
O335 Dy320 2.310 . S
O335 Dy323 2.664 . S
O335 C329 1.268 . S
O336 Dy320 2.351 . S
O336 C339 1.249 . S
O337 Dy323 2.326 . S
O337 C339 1.267 . S
C338 O330 1.249 . S
C338 O331 1.267 . S
C339 O336 1.249 . S
C339 O337 1.267 . S
Dy340 O344 2.398 . S
Dy340 O345 2.491 1_554 S
Dy340 O346 2.403 . S
Dy340 O347 2.664 . S
Dy340 O351 2.326 1_554 S
Dy340 O355 2.310 . S
Dy340 O356 2.351 . S
C341 O352 1.185 . S
C341 O353 1.355 . S
C342 O344 1.185 1_556 S
C342 O345 1.355 . S
Dy343 O347 2.310 . S
Dy343 O350 2.351 1_554 S
Dy343 O352 2.398 . S
Dy343 O353 2.491 . S
Dy343 O354 2.403 . S
Dy343 O355 2.664 . S
Dy343 O357 2.326 . S
O344 Dy340 2.398 . S
O344 C342 1.185 1_554 S
O345 Dy340 2.491 1_556 S
O345 C342 1.355 . S
O346 Dy340 2.403 . S
O346 C348 1.254 . S
O347 Dy340 2.664 . S
O347 Dy343 2.310 . S
O347 C348 1.268 . S
C348 O346 1.254 . S
C348 O347 1.268 . S
C349 O354 1.254 . S
C349 O355 1.268 . S
O350 Dy343 2.351 1_556 S
O350 C358 1.249 . S
O351 Dy340 2.326 1_556 S
O351 C358 1.267 . S
O352 C341 1.185 . S
O352 Dy343 2.398 . S
O353 C341 1.355 . S
O353 Dy343 2.491 . S
O354 Dy343 2.403 . S
O354 C349 1.254 . S
O355 Dy340 2.310 . S
O355 Dy343 2.664 . S
O355 C349 1.268 . S
O356 Dy340 2.351 . S
O356 C359 1.249 . S
O357 Dy343 2.326 . S
O357 C359 1.267 . S
C358 O350 1.249 . S
C358 O351 1.267 . S
C359 O356 1.249 . S
C359 O357 1.267 . S
Dy360 O364 2.398 . S
Dy360 O365 2.491 . S
Dy360 O366 2.403 . S
Dy360 O367 2.664 . S
Dy360 O371 2.326 . S
Dy360 O375 2.310 . S
Dy360 O376 2.351 . S
C361 O372 1.185 . S
C361 O373 1.355 . S
C362 O364 1.185 . S
C362 O365 1.355 . S
Dy363 O367 2.310 . S
Dy363 O370 2.351 . S
Dy363 O372 2.398 . S
Dy363 O373 2.491 . S
Dy363 O374 2.403 . S
Dy363 O375 2.664 . S
Dy363 O377 2.326 . S
O364 Dy360 2.398 . S
O364 C362 1.185 . S
O365 Dy360 2.491 . S
O365 C362 1.355 . S
O366 Dy360 2.403 . S
O366 C368 1.254 . S
O367 Dy360 2.664 . S
O367 Dy363 2.310 . S
O367 C368 1.268 . S
C368 O366 1.254 . S
C368 O367 1.268 . S
C369 O374 1.254 . S
C369 O375 1.268 . S
O370 Dy363 2.351 . S
O370 C378 1.249 . S
O371 Dy360 2.326 . S
O371 C378 1.267 . S
O372 C361 1.185 . S
O372 Dy363 2.398 . S
O373 C361 1.355 . S
O373 Dy363 2.491 . S
O374 Dy363 2.403 . S
O374 C369 1.254 . S
O375 Dy360 2.310 . S
O375 Dy363 2.664 . S
O375 C369 1.268 . S
O376 Dy360 2.351 . S
O376 C379 1.249 . S
O377 Dy363 2.326 . S
O377 C379 1.267 . S
C378 O370 1.249 . S
C378 O371 1.267 . S
C379 O376 1.249 . S
C379 O377 1.267 . S
Dy380 O384 2.398 . S
Dy380 O385 2.491 . S
Dy380 O386 2.403 . S
Dy380 O387 2.664 . S
Dy380 O391 2.326 . S
Dy380 O395 2.310 . S
Dy380 O396 2.351 . S
C381 O392 1.185 . S
C381 O393 1.355 . S
C382 O384 1.185 . S
C382 O385 1.355 . S
Dy383 O387 2.310 . S
Dy383 O390 2.351 . S
Dy383 O392 2.398 . S
Dy383 O393 2.491 . S
Dy383 O394 2.403 . S
Dy383 O395 2.664 . S
Dy383 O397 2.326 . S
O384 Dy380 2.398 . S
O384 C382 1.185 . S
O385 Dy380 2.491 . S
O385 C382 1.355 . S
O386 Dy380 2.403 . S
O386 C388 1.254 . S
O387 Dy380 2.664 . S
O387 Dy383 2.310 . S
O387 C388 1.268 . S
C388 O386 1.254 . S
C388 O387 1.268 . S
C389 O394 1.254 . S
C389 O395 1.268 . S
O390 Dy383 2.351 . S
O390 C398 1.249 . S
O391 Dy380 2.326 . S
O391 C398 1.267 . S
O392 C381 1.185 . S
O392 Dy383 2.398 . S
O393 C381 1.355 . S
O393 Dy383 2.491 . S
O394 Dy383 2.403 . S
O394 C389 1.254 . S
O395 Dy380 2.310 . S
O395 Dy383 2.664 . S
O395 C389 1.268 . S
O396 Dy380 2.351 . S
O396 C399 1.249 . S
O397 Dy383 2.326 . S
O397 C399 1.267 . S
C398 O390 1.249 . S
C398 O391 1.267 . S
C399 O396 1.249 . S
C399 O397 1.267 . S
Dy400 O404 2.398 . S
Dy400 O405 2.491 . S
Dy400 O406 2.403 . S
Dy400 O407 2.664 . S
Dy400 O411 2.326 . S
Dy400 O415 2.310 . S
Dy400 O416 2.351 . S
C401 O412 1.185 . S
C401 O413 1.355 . S
C402 O404 1.185 . S
C402 O405 1.355 . S
Dy403 O407 2.310 . S
Dy403 O410 2.351 . S
Dy403 O412 2.398 . S
Dy403 O413 2.491 . S
Dy403 O414 2.403 . S
Dy403 O415 2.664 . S
Dy403 O417 2.326 . S
O404 Dy400 2.398 . S
O404 C402 1.185 . S
O405 Dy400 2.491 . S
O405 C402 1.355 . S
O406 Dy400 2.403 . S
O406 C408 1.254 . S
O407 Dy400 2.664 . S
O407 Dy403 2.310 . S
O407 C408 1.268 . S
C408 O406 1.254 . S
C408 O407 1.268 . S
C409 O414 1.254 . S
C409 O415 1.268 . S
O410 Dy403 2.351 . S
O410 C418 1.249 . S
O411 Dy400 2.326 . S
O411 C418 1.267 . S
O412 C401 1.185 . S
O412 Dy403 2.398 . S
O413 C401 1.355 . S
O413 Dy403 2.491 . S
O414 Dy403 2.403 . S
O414 C409 1.254 . S
O415 Dy400 2.310 . S
O415 Dy403 2.664 . S
O415 C409 1.268 . S
O416 Dy400 2.351 . S
O416 C419 1.249 . S
O417 Dy403 2.326 . S
O417 C419 1.267 . S
C418 O410 1.249 . S
C418 O411 1.267 . S
C419 O416 1.249 . S
C419 O417 1.267 . S
Dy420 O424 2.398 . S
Dy420 O425 2.491 1_556 S
Dy420 O426 2.403 . S
Dy420 O427 2.664 . S
Dy420 O431 2.326 1_556 S
Dy420 O435 2.310 . S
Dy420 O436 2.351 . S
C421 O432 1.185 . S
C421 O433 1.355 . S
C422 O424 1.185 1_554 S
C422 O425 1.355 . S
Dy423 O427 2.310 . S
Dy423 O430 2.351 1_556 S
Dy423 O432 2.398 . S
Dy423 O433 2.491 . S
Dy423 O434 2.403 . S
Dy423 O435 2.664 . S
Dy423 O437 2.326 . S
O424 Dy420 2.398 . S
O424 C422 1.185 1_556 S
O425 Dy420 2.491 1_554 S
O425 C422 1.355 . S
O426 Dy420 2.403 . S
O426 C428 1.254 . S
O427 Dy420 2.664 . S
O427 Dy423 2.310 . S
O427 C428 1.268 . S
C428 O426 1.254 . S
C428 O427 1.268 . S
C429 O434 1.254 . S
C429 O435 1.268 . S
O430 Dy423 2.351 1_554 S
O430 C438 1.249 . S
O431 Dy420 2.326 1_554 S
O431 C438 1.267 . S
O432 C421 1.185 . S
O432 Dy423 2.398 . S
O433 C421 1.355 . S
O433 Dy423 2.491 . S
O434 Dy423 2.403 . S
O434 C429 1.254 . S
O435 Dy420 2.310 . S
O435 Dy423 2.664 . S
O435 C429 1.268 . S
O436 Dy420 2.351 . S
O436 C439 1.249 . S
O437 Dy423 2.326 . S
O437 C439 1.267 . S
C438 O430 1.249 . S
C438 O431 1.267 . S
C439 O436 1.249 . S
C439 O437 1.267 . S
Dy440 O444 2.398 . S
Dy440 O445 2.491 . S
Dy440 O446 2.403 . S
Dy440 O447 2.664 . S
Dy440 O451 2.326 . S
Dy440 O455 2.310 . S
Dy440 O456 2.351 . S
C441 O452 1.185 . S
C441 O453 1.355 . S
C442 O444 1.185 . S
C442 O445 1.355 . S
Dy443 O447 2.310 . S
Dy443 O450 2.351 . S
Dy443 O452 2.398 . S
Dy443 O453 2.491 . S
Dy443 O454 2.403 . S
Dy443 O455 2.664 . S
Dy443 O457 2.326 . S
O444 Dy440 2.398 . S
O444 C442 1.185 . S
O445 Dy440 2.491 . S
O445 C442 1.355 . S
O446 Dy440 2.403 . S
O446 C448 1.254 . S
O447 Dy440 2.664 . S
O447 Dy443 2.310 . S
O447 C448 1.268 . S
C448 O446 1.254 . S
C448 O447 1.268 . S
C449 O454 1.254 . S
C449 O455 1.268 . S
O450 Dy443 2.351 . S
O450 C458 1.249 . S
O451 Dy440 2.326 . S
O451 C458 1.267 . S
O452 C441 1.185 . S
O452 Dy443 2.398 . S
O453 C441 1.355 . S
O453 Dy443 2.491 . S
O454 Dy443 2.403 . S
O454 C449 1.254 . S
O455 Dy440 2.310 . S
O455 Dy443 2.664 . S
O455 C449 1.268 . S
O456 Dy440 2.351 . S
O456 C459 1.249 . S
O457 Dy443 2.326 . S
O457 C459 1.267 . S
C458 O450 1.249 . S
C458 O451 1.267 . S
C459 O456 1.249 . S
C459 O457 1.267 . S
Dy460 O464 2.398 . S
Dy460 O465 2.491 . S
Dy460 O466 2.403 . S
Dy460 O467 2.664 . S
Dy460 O471 2.326 . S
Dy460 O475 2.310 . S
Dy460 O476 2.351 . S
C461 O472 1.185 . S
C461 O473 1.355 . S
C462 O464 1.185 . S
C462 O465 1.355 . S
Dy463 O467 2.310 . S
Dy463 O470 2.351 . S
Dy463 O472 2.398 . S
Dy463 O473 2.491 . S
Dy463 O474 2.403 . S
Dy463 O475 2.664 . S
Dy463 O477 2.326 . S
O464 Dy460 2.398 . S
O464 C462 1.185 . S
O465 Dy460 2.491 . S
O465 C462 1.355 . S
O466 Dy460 2.403 . S
O466 C468 1.254 . S
O467 Dy460 2.664 . S
O467 Dy463 2.310 . S
O467 C468 1.268 . S
C468 O466 1.254 . S
C468 O467 1.268 . S
C469 O474 1.254 . S
C469 O475 1.268 . S
O470 Dy463 2.351 . S
O470 C478 1.249 . S
O471 Dy460 2.326 . S
O471 C478 1.267 . S
O472 C461 1.185 . S
O472 Dy463 2.398 . S
O473 C461 1.355 . S
O473 Dy463 2.491 . S
O474 Dy463 2.403 . S
O474 C469 1.254 . S
O475 Dy460 2.310 . S
O475 Dy463 2.664 . S
O475 C469 1.268 . S
O476 Dy460 2.351 . S
O476 C479 1.249 . S
O477 Dy463 2.326 . S
O477 C479 1.267 . S
C478 O470 1.249 . S
C478 O471 1.267 . S
C479 O476 1.249 . S
C479 O477 1.267 . S
Dy480 O484 2.398 . S
Dy480 O485 2.491 . S
Dy480 O486 2.403 . S
Dy480 O487 2.664 . S
Dy480 O491 2.326 . S
Dy480 O495 2.310 . S
Dy480 O496 2.351 . S
C481 O492 1.185 . S
C481 O493 1.355 . S
C482 O484 1.185 . S
C482 O485 1.355 . S
Dy483 O487 2.310 . S
Dy483 O490 2.351 . S
Dy483 O492 2.398 . S
Dy483 O493 2.491 . S
Dy483 O494 2.403 . S
Dy483 O495 2.664 . S
Dy483 O497 2.326 . S
O484 Dy480 2.398 . S
O484 C482 1.185 . S
O485 Dy480 2.491 . S
O485 C482 1.355 . S
O486 Dy480 2.403 . S
O486 C488 1.254 . S
O487 Dy480 2.664 . S
O487 Dy483 2.310 . S
O487 C488 1.268 . S
C488 O486 1.254 . S
C488 O487 1.268 . S
C489 O494 1.254 . S
C489 O495 1.268 . S
O490 Dy483 2.351 . S
O490 C498 1.249 . S
O491 Dy480 2.326 . S
O491 C498 1.267 . S
O492 C481 1.185 . S
O492 Dy483 2.398 . S
O493 C481 1.355 . S
O493 Dy483 2.491 . S
O494 Dy483 2.403 . S
O494 C489 1.254 . S
O495 Dy480 2.310 . S
O495 Dy483 2.664 . S
O495 C489 1.268 . S
O496 Dy480 2.351 . S
O496 C499 1.249 . S
O497 Dy483 2.326 . S
O497 C499 1.267 . S
C498 O490 1.249 . S
C498 O491 1.267 . S
C499 O496 1.249 . S
C499 O497 1.267 . S
Dy500 O504 2.398 . S
Dy500 O505 2.491 . S
Dy500 O506 2.403 . S
Dy500 O507 2.664 . S
Dy500 O511 2.326 . S
Dy500 O515 2.310 . S
Dy500 O516 2.351 1_556 S
C501 O512 1.185 1_554 S
C501 O513 1.355 . S
C502 O504 1.185 . S
C502 O505 1.355 . S
Dy503 O507 2.310 . S
Dy503 O510 2.351 . S
Dy503 O512 2.398 . S
Dy503 O513 2.491 1_556 S
Dy503 O514 2.403 . S
Dy503 O515 2.664 . S
Dy503 O517 2.326 1_556 S
O504 Dy500 2.398 . S
O504 C502 1.185 . S
O505 Dy500 2.491 . S
O505 C502 1.355 . S
O506 Dy500 2.403 . S
O506 C508 1.254 . S
O507 Dy500 2.664 . S
O507 Dy503 2.310 . S
O507 C508 1.268 . S
C508 O506 1.254 . S
C508 O507 1.268 . S
C509 O514 1.254 . S
C509 O515 1.268 . S
O510 Dy503 2.351 . S
O510 C518 1.249 . S
O511 Dy500 2.326 . S
O511 C518 1.267 . S
O512 C501 1.185 1_556 S
O512 Dy503 2.398 . S
O513 C501 1.355 . S
O513 Dy503 2.491 1_554 S
O514 Dy503 2.403 . S
O514 C509 1.254 . S
O515 Dy500 2.310 . S
O515 Dy503 2.664 . S
O515 C509 1.268 . S
O516 Dy500 2.351 1_554 S
O516 C519 1.249 . S
O517 Dy503 2.326 1_554 S
O517 C519 1.267 . S
C518 O510 1.249 . S
C518 O511 1.267 . S
C519 O516 1.249 . S
C519 O517 1.267 . S
Dy520 O524 2.398 . S
Dy520 O525 2.491 . S
Dy520 O526 2.403 . S
Dy520 O527 2.664 . S
Dy520 O531 2.326 . S
Dy520 O535 2.310 . S
Dy520 O536 2.351 . S
C521 O532 1.185 . S
C521 O533 1.355 . S
C522 O524 1.185 . S
C522 O525 1.355 . S
Dy523 O527 2.310 . S
Dy523 O530 2.351 . S
Dy523 O532 2.398 . S
Dy523 O533 2.491 . S
Dy523 O534 2.403 . S
Dy523 O535 2.664 . S
Dy523 O537 2.326 . S
O524 Dy520 2.398 . S
O524 C522 1.185 . S
O525 Dy520 2.491 . S
O525 C522 1.355 . S
O526 Dy520 2.403 . S
O526 C528 1.254 . S
O527 Dy520 2.664 . S
O527 Dy523 2.310 . S
O527 C528 1.268 . S
C528 O526 1.254 . S
C528 O527 1.268 . S
C529 O534 1.254 . S
C529 O535 1.268 . S
O530 Dy523 2.351 . S
O530 C538 1.249 . S
O531 Dy520 2.326 . S
O531 C538 1.267 . S
O532 C521 1.185 . S
O532 Dy523 2.398 . S
O533 C521 1.355 . S
O533 Dy523 2.491 . S
O534 Dy523 2.403 . S
O534 C529 1.254 . S
O535 Dy520 2.310 . S
O535 Dy523 2.664 . S
O535 C529 1.268 . S
O536 Dy520 2.351 . S
O536 C539 1.249 . S
O537 Dy523 2.326 . S
O537 C539 1.267 . S
C538 O530 1.249 . S
C538 O531 1.267 . S
C539 O536 1.249 . S
C539 O537 1.267 . S
Dy540 O544 2.398 . S
Dy540 O545 2.491 . S
Dy540 O546 2.403 . S
Dy540 O547 2.664 . S
Dy540 O551 2.326 . S
Dy540 O555 2.310 . S
Dy540 O556 2.351 . S
C541 O552 1.185 . S
C541 O553 1.355 . S
C542 O544 1.185 . S
C542 O545 1.355 . S
Dy543 O547 2.310 . S
Dy543 O550 2.351 . S
Dy543 O552 2.398 . S
Dy543 O553 2.491 . S
Dy543 O554 2.403 . S
Dy543 O555 2.664 . S
Dy543 O557 2.326 . S
O544 Dy540 2.398 . S
O544 C542 1.185 . S
O545 Dy540 2.491 . S
O545 C542 1.355 . S
O546 Dy540 2.403 . S
O546 C548 1.254 . S
O547 Dy540 2.664 . S
O547 Dy543 2.310 . S
O547 C548 1.268 . S
C548 O546 1.254 . S
C548 O547 1.268 . S
C549 O554 1.254 . S
C549 O555 1.268 . S
O550 Dy543 2.351 . S
O550 C558 1.249 . S
O551 Dy540 2.326 . S
O551 C558 1.267 . S
O552 C541 1.185 . S
O552 Dy543 2.398 . S
O553 C541 1.355 . S
O553 Dy543 2.491 . S
O554 Dy543 2.403 . S
O554 C549 1.254 . S
O555 Dy540 2.310 . S
O555 Dy543 2.664 . S
O555 C549 1.268 . S
O556 Dy540 2.351 . S
O556 C559 1.249 . S
O557 Dy543 2.326 . S
O557 C559 1.267 . S
C558 O550 1.249 . S
C558 O551 1.267 . S
C559 O556 1.249 . S
C559 O557 1.267 . S
Dy560 O564 2.398 . S
Dy560 O565 2.491 . S
Dy560 O566 2.403 . S
Dy560 O567 2.664 . S
Dy560 O571 2.326 . S
Dy560 O575 2.310 . S
Dy560 O576 2.351 . S
C561 O572 1.185 . S
C561 O573 1.355 . S
C562 O564 1.185 . S
C562 O565 1.355 . S
Dy563 O567 2.310 . S
Dy563 O570 2.351 . S
Dy563 O572 2.398 . S
Dy563 O573 2.491 . S
Dy563 O574 2.403 . S
Dy563 O575 2.664 . S
Dy563 O577 2.326 . S
O564 Dy560 2.398 . S
O564 C562 1.185 . S
O565 Dy560 2.491 . S
O565 C562 1.355 . S
O566 Dy560 2.403 . S
O566 C568 1.254 . S
O567 Dy560 2.664 . S
O567 Dy563 2.310 . S
O567 C568 1.268 . S
C568 O566 1.254 . S
C568 O567 1.268 . S
C569 O574 1.254 . S
C569 O575 1.268 . S
O570 Dy563 2.351 . S
O570 C578 1.249 . S
O571 Dy560 2.326 . S
O571 C578 1.267 . S
O572 C561 1.185 . S
O572 Dy563 2.398 . S
O573 C561 1.355 . S
O573 Dy563 2.491 . S
O574 Dy563 2.403 . S
O574 C569 1.254 . S
O575 Dy560 2.310 . S
O575 Dy563 2.664 . S
O575 C569 1.268 . S
O576 Dy560 2.351 . S
O576 C579 1.249 . S
O577 Dy563 2.326 . S
O577 C579 1.267 . S
C578 O570 1.249 . S
C578 O571 1.267 . S
C579 O576 1.249 . S
C579 O577 1.267 . S
Dy580 O584 2.398 . S
Dy580 O585 2.491 . S
Dy580 O586 2.403 . S
Dy580 O587 2.664 . S
Dy580 O591 2.326 . S
Dy580 O595 2.310 . S
Dy580 O596 2.351 1_554 S
C581 O592 1.185 1_556 S
C581 O593 1.355 . S
C582 O584 1.185 . S
C582 O585 1.355 . S
Dy583 O587 2.310 . S
Dy583 O590 2.351 . S
Dy583 O592 2.398 . S
Dy583 O593 2.491 1_554 S
Dy583 O594 2.403 . S
Dy583 O595 2.664 . S
Dy583 O597 2.326 1_554 S
O584 Dy580 2.398 . S
O584 C582 1.185 . S
O585 Dy580 2.491 . S
O585 C582 1.355 . S
O586 Dy580 2.403 . S
O586 C588 1.254 . S
O587 Dy580 2.664 . S
O587 Dy583 2.310 . S
O587 C588 1.268 . S
C588 O586 1.254 . S
C588 O587 1.268 . S
C589 O594 1.254 . S
C589 O595 1.268 . S
O590 Dy583 2.351 . S
O590 C598 1.249 . S
O591 Dy580 2.326 . S
O591 C598 1.267 . S
O592 C581 1.185 1_554 S
O592 Dy583 2.398 . S
O593 C581 1.355 . S
O593 Dy583 2.491 1_556 S
O594 Dy583 2.403 . S
O594 C589 1.254 . S
O595 Dy580 2.310 . S
O595 Dy583 2.664 . S
O595 C589 1.268 . S
O596 Dy580 2.351 1_556 S
O596 C599 1.249 . S
O597 Dy583 2.326 1_556 S
O597 C599 1.267 . S
C598 O590 1.249 . S
C598 O591 1.267 . S
C599 O596 1.249 . S
C599 O597 1.267 . S
Dy600 O604 2.398 . S
Dy600 O605 2.491 . S
Dy600 O606 2.403 . S
Dy600 O607 2.664 . S
Dy600 O611 2.326 . S
Dy600 O615 2.310 . S
Dy600 O616 2.351 . S
C601 O612 1.185 . S
C601 O613 1.355 . S
C602 O604 1.185 . S
C602 O605 1.355 . S
Dy603 O607 2.310 . S
Dy603 O610 2.351 . S
Dy603 O612 2.398 . S
Dy603 O613 2.491 . S
Dy603 O614 2.403 . S
Dy603 O615 2.664 . S
Dy603 O617 2.326 . S
O604 Dy600 2.398 . S
O604 C602 1.185 . S
O605 Dy600 2.491 . S
O605 C602 1.355 . S
O606 Dy600 2.403 . S
O606 C608 1.254 . S
O607 Dy600 2.664 . S
O607 Dy603 2.310 . S
O607 C608 1.268 . S
C608 O606 1.254 . S
C608 O607 1.268 . S
C609 O614 1.254 . S
C609 O615 1.268 . S
O610 Dy603 2.351 . S
O610 C618 1.249 . S
O611 Dy600 2.326 . S
O611 C618 1.267 . S
O612 C601 1.185 . S
O612 Dy603 2.398 . S
O613 C601 1.355 . S
O613 Dy603 2.491 . S
O614 Dy603 2.403 . S
O614 C609 1.254 . S
O615 Dy600 2.310 . S
O615 Dy603 2.664 . S
O615 C609 1.268 . S
O616 Dy600 2.351 . S
O616 C619 1.249 . S
O617 Dy603 2.326 . S
O617 C619 1.267 . S
C618 O610 1.249 . S
C618 O611 1.267 . S
C619 O616 1.249 . S
C619 O617 1.267 . S
Dy620 O624 2.398 . S
Dy620 O625 2.491 . S
Dy620 O626 2.403 . S
Dy620 O627 2.664 . S
Dy620 O631 2.326 . S
Dy620 O635 2.310 . S
Dy620 O636 2.351 . S
C621 O632 1.185 . S
C621 O633 1.355 . S
C622 O624 1.185 . S
C622 O625 1.355 . S
Dy623 O627 2.310 . S
Dy623 O630 2.351 . S
Dy623 O632 2.398 . S
Dy623 O633 2.491 . S
Dy623 O634 2.403 . S
Dy623 O635 2.664 . S
Dy623 O637 2.326 . S
O624 Dy620 2.398 . S
O624 C622 1.185 . S
O625 Dy620 2.491 . S
O625 C622 1.355 . S
O626 Dy620 2.403 . S
O626 C628 1.254 . S
O627 Dy620 2.664 . S
O627 Dy623 2.310 . S
O627 C628 1.268 . S
C628 O626 1.254 . S
C628 O627 1.268 . S
C629 O634 1.254 . S
C629 O635 1.268 . S
O630 Dy623 2.351 . S
O630 C638 1.249 . S
O631 Dy620 2.326 . S
O631 C638 1.267 . S
O632 C621 1.185 . S
O632 Dy623 2.398 . S
O633 C621 1.355 . S
O633 Dy623 2.491 . S
O634 Dy623 2.403 . S
O634 C629 1.254 . S
O635 Dy620 2.310 . S
O635 Dy623 2.664 . S
O635 C629 1.268 . S
O636 Dy620 2.351 . S
O636 C639 1.249 . S
O637 Dy623 2.326 . S
O637 C639 1.267 . S
C638 O630 1.249 . S
C638 O631 1.267 . S
C639 O636 1.249 . S
C639 O637 1.267 . S
C640 C641 1.387 . S
C640 H644 0.950 . S
C640 C649 1.390 . S
C641 C640 1.387 . S
C641 C643 1.387 . S
H642 C649 0.950 . S
C643 C641 1.387 . S
C643 C645 1.390 . S
C643 H647 0.950 . S
H644 C640 0.950 . S
C645 C643 1.390 . S
C645 C646 1.387 . S
C645 H648 0.950 . S
C646 C645 1.387 . S
C646 C649 1.387 . S
H647 C643 0.950 . S
H648 C645 0.950 . S
C649 C640 1.390 . S
C649 H642 0.950 . S
C649 C646 1.387 . S
C650 C651 1.387 . S
C650 H654 0.950 . S
C650 C659 1.390 . S
C651 C650 1.387 . S
C651 C653 1.387 . S
H652 C659 0.950 . S
C653 C651 1.387 . S
C653 C655 1.390 . S
C653 H657 0.950 . S
H654 C650 0.950 . S
C655 C653 1.390 . S
C655 C656 1.387 . S
C655 H658 0.950 . S
C656 C655 1.387 . S
C656 C659 1.387 . S
H657 C653 0.950 . S
H658 C655 0.950 . S
C659 C650 1.390 . S
C659 H652 0.950 . S
C659 C656 1.387 . S
C660 C661 1.387 . S
C660 H664 0.950 . S
C660 C669 1.390 . S
C661 C660 1.387 . S
C661 C663 1.387 . S
H662 C669 0.950 . S
C663 C661 1.387 . S
C663 C665 1.390 . S
C663 H667 0.950 . S
H664 C660 0.950 . S
C665 C663 1.390 . S
C665 C666 1.387 . S
C665 H668 0.950 . S
C666 C665 1.387 . S
C666 C669 1.387 . S
H667 C663 0.950 . S
H668 C665 0.950 . S
C669 C660 1.390 . S
C669 H662 0.950 . S
C669 C666 1.387 . S
C670 C671 1.387 . S
C670 H674 0.950 . S
C670 C679 1.390 . S
C671 C670 1.387 . S
C671 C673 1.387 . S
H672 C679 0.950 . S
C673 C671 1.387 . S
C673 C675 1.390 . S
C673 H677 0.950 . S
H674 C670 0.950 . S
C675 C673 1.390 . S
C675 C676 1.387 . S
C675 H678 0.950 . S
C676 C675 1.387 . S
C676 C679 1.387 . S
H677 C673 0.950 . S
H678 C675 0.950 . S
C679 C670 1.390 . S
C679 H672 0.950 . S
C679 C676 1.387 . S
C680 C681 1.387 . S
C680 H684 0.950 . S
C680 C689 1.390 . S
C681 C680 1.387 . S
C681 C683 1.387 . S
H682 C689 0.950 . S
C683 C681 1.387 . S
C683 C685 1.390 . S
C683 H687 0.950 . S
H684 C680 0.950 . S
C685 C683 1.390 . S
C685 C686 1.387 . S
C685 H688 0.950 . S
C686 C685 1.387 . S
C686 C689 1.387 . S
H687 C683 0.950 . S
H688 C685 0.950 . S
C689 C680 1.390 . S
C689 H682 0.950 . S
C689 C686 1.387 . S
C690 C691 1.387 . S
C690 H694 0.950 . S
C690 C699 1.390 . S
C691 C690 1.387 . S
C691 C693 1.387 . S
H692 C699 0.950 . S
C693 C691 1.387 . S
C693 C695 1.390 . S
C693 H697 0.950 1_545 S
H694 C690 0.950 . S
C695 C693 1.390 . S
C695 C696 1.387 . S
C695 H698 0.950 . S
C696 C695 1.387 . S
C696 C699 1.387 . S
H697 C693 0.950 1_565 S
H698 C695 0.950 . S
C699 C690 1.390 . S
C699 H692 0.950 . S
C699 C696 1.387 . S
C700 C701 1.387 . S
C700 H704 0.950 . S
C700 C709 1.390 . S
C701 C700 1.387 . S
C701 C703 1.387 . S
H702 C709 0.950 . S
C703 C701 1.387 . S
C703 C705 1.390 . S
C703 H707 0.950 . S
H704 C700 0.950 . S
C705 C703 1.390 . S
C705 C706 1.387 . S
C705 H708 0.950 . S
C706 C705 1.387 . S
C706 C709 1.387 . S
H707 C703 0.950 . S
H708 C705 0.950 . S
C709 C700 1.390 . S
C709 H702 0.950 . S
C709 C706 1.387 . S
C710 C711 1.387 . S
C710 H714 0.950 . S
C710 C719 1.390 . S
C711 C710 1.387 . S
C711 C713 1.387 . S
H712 C719 0.950 . S
C713 C711 1.387 . S
C713 C715 1.390 . S
C713 H717 0.950 . S
H714 C710 0.950 . S
C715 C713 1.390 . S
C715 C716 1.387 . S
C715 H718 0.950 . S
C716 C715 1.387 . S
C716 C719 1.387 . S
H717 C713 0.950 . S
H718 C715 0.950 . S
C719 C710 1.390 . S
C719 H712 0.950 . S
C719 C716 1.387 . S
C720 C721 1.387 . S
C720 H724 0.950 . S
C720 C729 1.390 . S
C721 C720 1.387 . S
C721 C723 1.387 . S
H722 C729 0.950 . S
C723 C721 1.387 . S
C723 C725 1.390 . S
C723 H727 0.950 . S
H724 C720 0.950 . S
C725 C723 1.390 . S
C725 C726 1.387 . S
C725 H728 0.950 . S
C726 C725 1.387 . S
C726 C729 1.387 . S
H727 C723 0.950 . S
H728 C725 0.950 . S
C729 C720 1.390 . S
C729 H722 0.950 . S
C729 C726 1.387 . S
C730 C731 1.387 1_545 S
C730 H734 0.950 . S
C730 C739 1.390 1_545 S
C731 C730 1.387 1_565 S
C731 C733 1.387 . S
H732 C739 0.950 . S
C733 C731 1.387 . S
C733 C735 1.390 . S
C733 H737 0.950 . S
H734 C730 0.950 . S
C735 C733 1.390 . S
C735 C736 1.387 . S
C735 H738 0.950 . S
C736 C735 1.387 . S
C736 C739 1.387 . S
H737 C733 0.950 . S
H738 C735 0.950 . S
C739 C730 1.390 1_565 S
C739 H732 0.950 . S
C739 C736 1.387 . S
C740 C741 1.387 . S
C740 H744 0.950 . S
C740 C749 1.390 . S
C741 C740 1.387 . S
C741 C743 1.387 . S
H742 C749 0.950 . S
C743 C741 1.387 . S
C743 C745 1.390 . S
C743 H747 0.950 . S
H744 C740 0.950 . S
C745 C743 1.390 . S
C745 C746 1.387 . S
C745 H748 0.950 . S
C746 C745 1.387 . S
C746 C749 1.387 . S
H747 C743 0.950 . S
H748 C745 0.950 . S
C749 C740 1.390 . S
C749 H742 0.950 . S
C749 C746 1.387 . S
C750 C751 1.387 . S
C750 H754 0.950 . S
C750 C759 1.390 . S
C751 C750 1.387 . S
C751 C753 1.387 . S
H752 C759 0.950 . S
C753 C751 1.387 . S
C753 C755 1.390 . S
C753 H757 0.950 . S
H754 C750 0.950 . S
C755 C753 1.390 . S
C755 C756 1.387 . S
C755 H758 0.950 . S
C756 C755 1.387 . S
C756 C759 1.387 . S
H757 C753 0.950 . S
H758 C755 0.950 . S
C759 C750 1.390 . S
C759 H752 0.950 . S
C759 C756 1.387 . S
C760 C761 1.387 . S
C760 H764 0.950 . S
C760 C769 1.390 . S
C761 C760 1.387 . S
C761 C763 1.387 . S
H762 C769 0.950 . S
C763 C761 1.387 . S
C763 C765 1.390 . S
C763 H767 0.950 . S
H764 C760 0.950 . S
C765 C763 1.390 . S
C765 C766 1.387 . S
C765 H768 0.950 . S
C766 C765 1.387 . S
C766 C769 1.387 . S
H767 C763 0.950 . S
H768 C765 0.950 . S
C769 C760 1.390 . S
C769 H762 0.950 . S
C769 C766 1.387 . S
C770 C771 1.387 . S
C770 H774 0.950 . S
C770 C779 1.390 . S
C771 C770 1.387 . S
C771 C773 1.387 . S
H772 C779 0.950 . S
C773 C771 1.387 . S
C773 C775 1.390 . S
C773 H777 0.950 1_565 S
H774 C770 0.950 . S
C775 C773 1.390 . S
C775 C776 1.387 . S
C775 H778 0.950 . S
C776 C775 1.387 . S
C776 C779 1.387 . S
H777 C773 0.950 1_545 S
H778 C775 0.950 . S
C779 C770 1.390 . S
C779 H772 0.950 . S
C779 C776 1.387 . S
C780 C781 1.387 . S
C780 H784 0.950 . S
C780 C789 1.390 . S
C781 C780 1.387 . S
C781 C783 1.387 . S
H782 C789 0.950 . S
C783 C781 1.387 . S
C783 C785 1.390 . S
C783 H787 0.950 . S
H784 C780 0.950 . S
C785 C783 1.390 . S
C785 C786 1.387 . S
C785 H788 0.950 . S
C786 C785 1.387 . S
C786 C789 1.387 . S
H787 C783 0.950 . S
H788 C785 0.950 . S
C789 C780 1.390 . S
C789 H782 0.950 . S
C789 C786 1.387 . S
C790 C791 1.387 . S
C790 H794 0.950 . S
C790 C799 1.390 . S
C791 C790 1.387 . S
C791 C793 1.387 . S
H792 C799 0.950 . S
C793 C791 1.387 . S
C793 C795 1.390 . S
C793 H797 0.950 . S
H794 C790 0.950 . S
C795 C793 1.390 . S
C795 C796 1.387 . S
C795 H798 0.950 . S
C796 C795 1.387 . S
C796 C799 1.387 . S
H797 C793 0.950 . S
H798 C795 0.950 . S
C799 C790 1.390 . S
C799 H792 0.950 . S
C799 C796 1.387 . S
C800 C801 1.387 . S
C800 H804 0.950 . S
C800 C809 1.390 . S
C801 C800 1.387 . S
C801 C803 1.387 . S
H802 C809 0.950 . S
C803 C801 1.387 . S
C803 C805 1.390 . S
C803 H807 0.950 . S
H804 C800 0.950 . S
C805 C803 1.390 . S
C805 C806 1.387 . S
C805 H808 0.950 . S
C806 C805 1.387 . S
C806 C809 1.387 . S
H807 C803 0.950 . S
H808 C805 0.950 . S
C809 C800 1.390 . S
C809 H802 0.950 . S
C809 C806 1.387 . S
C810 C811 1.387 . S
C810 H814 0.950 . S
C810 C819 1.390 . S
C811 C810 1.387 . S
C811 C813 1.387 . S
H812 C819 0.950 . S
C813 C811 1.387 . S
C813 C815 1.390 . S
C813 H817 0.950 . S
H814 C810 0.950 . S
C815 C813 1.390 . S
C815 C816 1.387 . S
C815 H818 0.950 . S
C816 C815 1.387 . S
C816 C819 1.387 . S
H817 C813 0.950 . S
H818 C815 0.950 . S
C819 C810 1.390 . S
C819 H812 0.950 . S
C819 C816 1.387 . S
C820 C821 1.387 . S
C820 H824 0.950 . S
C820 C829 1.390 . S
C821 C820 1.387 . S
C821 C823 1.387 . S
H822 C829 0.950 . S
C823 C821 1.387 . S
C823 C825 1.390 . S
C823 H827 0.950 . S
H824 C820 0.950 . S
C825 C823 1.390 . S
C825 C826 1.387 . S
C825 H828 0.950 . S
C826 C825 1.387 . S
C826 C829 1.387 . S
H827 C823 0.950 . S
H828 C825 0.950 . S
C829 C820 1.390 . S
C829 H822 0.950 . S
C829 C826 1.387 . S
C830 C831 1.387 . S
C830 H834 0.950 . S
C830 C839 1.390 . S
C831 C830 1.387 . S
C831 C833 1.387 . S
H832 C839 0.950 . S
C833 C831 1.387 . S
C833 C835 1.390 . S
C833 H837 0.950 . S
H834 C830 0.950 . S
C835 C833 1.390 . S
C835 C836 1.387 . S
C835 H838 0.950 . S
C836 C835 1.387 . S
C836 C839 1.387 . S
H837 C833 0.950 . S
H838 C835 0.950 . S
C839 C830 1.390 . S
C839 H832 0.950 . S
C839 C836 1.387 . S
C840 C841 1.387 . S
C840 H844 0.950 . S
C840 C849 1.390 . S
C841 C840 1.387 . S
C841 C843 1.387 . S
H842 C849 0.950 . S
C843 C841 1.387 . S
C843 C845 1.390 . S
C843 H847 0.950 . S
H844 C840 0.950 . S
C845 C843 1.390 . S
C845 C846 1.387 . S
C845 H848 0.950 . S
C846 C845 1.387 . S
C846 C849 1.387 . S
H847 C843 0.950 . S
H848 C845 0.950 . S
C849 C840 1.390 . S
C849 H842 0.950 . S
C849 C846 1.387 . S
C850 C851 1.387 . S
C850 H854 0.950 . S
C850 C859 1.390 . S
C851 C850 1.387 . S
C851 C853 1.387 . S
H852 C859 0.950 . S
C853 C851 1.387 . S
C853 C855 1.390 . S
C853 H857 0.950 . S
H854 C850 0.950 . S
C855 C853 1.390 . S
C855 C856 1.387 . S
C855 H858 0.950 . S
C856 C855 1.387 . S
C856 C859 1.387 . S
H857 C853 0.950 . S
H858 C855 0.950 . S
C859 C850 1.390 . S
C859 H852 0.950 . S
C859 C856 1.387 . S
C860 C861 1.387 . S
C860 H864 0.950 . S
C860 C869 1.390 . S
C861 C860 1.387 . S
C861 C863 1.387 . S
H862 C869 0.950 . S
C863 C861 1.387 . S
C863 C865 1.390 . S
C863 H867 0.950 . S
H864 C860 0.950 . S
C865 C863 1.390 . S
C865 C866 1.387 . S
C865 H868 0.950 . S
C866 C865 1.387 . S
C866 C869 1.387 . S
H867 C863 0.950 . S
H868 C865 0.950 . S
C869 C860 1.390 . S
C869 H862 0.950 . S
C869 C866 1.387 . S
C870 C871 1.387 . S
C870 H874 0.950 . S
C870 C879 1.390 . S
C871 C870 1.387 . S
C871 C873 1.387 . S
H872 C879 0.950 . S
C873 C871 1.387 . S
C873 C875 1.390 . S
C873 H877 0.950 . S
H874 C870 0.950 . S
C875 C873 1.390 . S
C875 C876 1.387 . S
C875 H878 0.950 . S
C876 C875 1.387 . S
C876 C879 1.387 . S
H877 C873 0.950 . S
H878 C875 0.950 . S
C879 C870 1.390 . S
C879 H872 0.950 . S
C879 C876 1.387 . S
C880 C881 1.387 . S
C880 H884 0.950 . S
C880 C889 1.390 . S
C881 C880 1.387 . S
C881 C883 1.387 . S
H882 C889 0.950 . S
C883 C881 1.387 . S
C883 C885 1.390 . S
C883 H887 0.950 . S
H884 C880 0.950 . S
C885 C883 1.390 . S
C885 C886 1.387 . S
C885 H888 0.950 . S
C886 C885 1.387 . S
C886 C889 1.387 . S
H887 C883 0.950 . S
H888 C885 0.950 . S
C889 C880 1.390 . S
C889 H882 0.950 . S
C889 C886 1.387 . S
C890 C891 1.387 . S
C890 H894 0.950 . S
C890 C899 1.390 . S
C891 C890 1.387 . S
C891 C893 1.387 . S
H892 C899 0.950 . S
C893 C891 1.387 . S
C893 C895 1.390 . S
C893 H897 0.950 . S
H894 C890 0.950 . S
C895 C893 1.390 . S
C895 C896 1.387 . S
C895 H898 0.950 . S
C896 C895 1.387 . S
C896 C899 1.387 . S
H897 C893 0.950 . S
H898 C895 0.950 . S
C899 C890 1.390 . S
C899 H892 0.950 . S
C899 C896 1.387 . S
C900 C901 1.387 . S
C900 H904 0.950 . S
C900 C909 1.390 . S
C901 C900 1.387 . S
C901 C903 1.387 . S
H902 C909 0.950 . S
C903 C901 1.387 . S
C903 C905 1.390 . S
C903 H907 0.950 . S
H904 C900 0.950 . S
C905 C903 1.390 . S
C905 C906 1.387 . S
C905 H908 0.950 . S
C906 C905 1.387 . S
C906 C909 1.387 . S
H907 C903 0.950 . S
H908 C905 0.950 . S
C909 C900 1.390 . S
C909 H902 0.950 . S
C909 C906 1.387 . S
C910 C911 1.387 . S
C910 H914 0.950 . S
C910 C919 1.390 . S
C911 C910 1.387 . S
C911 C913 1.387 . S
H912 C919 0.950 . S
C913 C911 1.387 . S
C913 C915 1.390 . S
C913 H917 0.950 . S
H914 C910 0.950 . S
C915 C913 1.390 . S
C915 C916 1.387 . S
C915 H918 0.950 . S
C916 C915 1.387 . S
C916 C919 1.387 . S
H917 C913 0.950 . S
H918 C915 0.950 . S
C919 C910 1.390 . S
C919 H912 0.950 . S
C919 C916 1.387 . S
C920 C921 1.387 . S
C920 H924 0.950 . S
C920 C929 1.390 . S
C921 C920 1.387 . S
C921 C923 1.387 . S
H922 C929 0.950 . S
C923 C921 1.387 . S
C923 C925 1.390 . S
C923 H927 0.950 . S
H924 C920 0.950 . S
C925 C923 1.390 . S
C925 C926 1.387 . S
C925 H928 0.950 . S
C926 C925 1.387 . S
C926 C929 1.387 . S
H927 C923 0.950 . S
H928 C925 0.950 . S
C929 C920 1.390 . S
C929 H922 0.950 . S
C929 C926 1.387 . S
C930 C931 1.387 . S
C930 H934 0.950 . S
C930 C939 1.390 . S
C931 C930 1.387 . S
C931 C933 1.387 . S
H932 C939 0.950 . S
C933 C931 1.387 . S
C933 C935 1.390 . S
C933 H937 0.950 . S
H934 C930 0.950 . S
C935 C933 1.390 . S
C935 C936 1.387 . S
C935 H938 0.950 . S
C936 C935 1.387 . S
C936 C939 1.387 . S
H937 C933 0.950 . S
H938 C935 0.950 . S
C939 C930 1.390 . S
C939 H932 0.950 . S
C939 C936 1.387 . S
C940 C941 1.387 . S
C940 H944 0.950 . S
C940 C949 1.390 . S
C941 C940 1.387 . S
C941 C943 1.387 . S
H942 C949 0.950 . S
C943 C941 1.387 . S
C943 C945 1.390 . S
C943 H947 0.950 . S
H944 C940 0.950 . S
C945 C943 1.390 . S
C945 C946 1.387 . S
C945 H948 0.950 . S
C946 C945 1.387 . S
C946 C949 1.387 . S
H947 C943 0.950 . S
H948 C945 0.950 . S
C949 C940 1.390 . S
C949 H942 0.950 . S
C949 C946 1.387 . S
C950 C951 1.387 . S
C950 H954 0.950 . S
C950 C959 1.390 . S
C951 C950 1.387 . S
C951 C953 1.387 . S
H952 C959 0.950 . S
C953 C951 1.387 . S
C953 C955 1.390 . S
C953 H957 0.950 . S
H954 C950 0.950 . S
C955 C953 1.390 . S
C955 C956 1.387 . S
C955 H958 0.950 . S
C956 C955 1.387 . S
C956 C959 1.387 . S
H957 C953 0.950 . S
H958 C955 0.950 . S
C959 C950 1.390 . S
C959 H952 0.950 . S
C959 C956 1.387 . S
C960 C961 1.387 . S
C960 H964 0.950 . S
C960 C969 1.390 . S
C961 C960 1.387 . S
C961 C963 1.387 . S
H962 C969 0.950 . S
C963 C961 1.387 . S
C963 C965 1.390 . S
C963 H967 0.950 . S
H964 C960 0.950 . S
C965 C963 1.390 . S
C965 C966 1.387 . S
C965 H968 0.950 . S
C966 C965 1.387 . S
C966 C969 1.387 . S
H967 C963 0.950 . S
H968 C965 0.950 . S
C969 C960 1.390 . S
C969 H962 0.950 . S
C969 C966 1.387 . S
C970 C971 1.387 . S
C970 H974 0.950 . S
C970 C979 1.390 . S
C971 C970 1.387 . S
C971 C973 1.387 . S
H972 C979 0.950 . S
C973 C971 1.387 . S
C973 C975 1.390 . S
C973 H977 0.950 . S
H974 C970 0.950 . S
C975 C973 1.390 . S
C975 C976 1.387 1_455 S
C975 H978 0.950 1_455 S
C976 C975 1.387 1_655 S
C976 C979 1.387 1_655 S
H977 C973 0.950 . S
H978 C975 0.950 1_655 S
C979 C970 1.390 . S
C979 H972 0.950 . S
C979 C976 1.387 1_455 S
C980 C981 1.387 . S
C980 H984 0.950 . S
C980 C989 1.390 . S
C981 C980 1.387 . S
C981 C983 1.387 . S
H982 C989 0.950 . S
C983 C981 1.387 . S
C983 C985 1.390 . S
C983 H987 0.950 . S
H984 C980 0.950 . S
C985 C983 1.390 . S
C985 C986 1.387 . S
C985 H988 0.950 . S
C986 C985 1.387 . S
C986 C989 1.387 . S
H987 C983 0.950 . S
H988 C985 0.950 . S
C989 C980 1.390 . S
C989 H982 0.950 . S
C989 C986 1.387 . S
C990 C991 1.387 . S
C990 H994 0.950 . S
C990 C999 1.390 . S
C991 C990 1.387 . S
C991 C993 1.387 . S
H992 C999 0.950 . S
C993 C991 1.387 . S
C993 C995 1.390 . S
C993 H997 0.950 . S
H994 C990 0.950 . S
C995 C993 1.390 . S
C995 C996 1.387 . S
C995 H998 0.950 . S
C996 C995 1.387 . S
C996 C999 1.387 . S
H997 C993 0.950 . S
H998 C995 0.950 . S
C999 C990 1.390 . S
C999 H992 0.950 . S
C999 C996 1.387 . S
C1000 C1001 1.387 . S
C1000 H1004 0.950 . S
C1000 C1009 1.390 . S
C1001 C1000 1.387 . S
C1001 C1003 1.387 . S
H1002 C1009 0.950 . S
C1003 C1001 1.387 . S
C1003 C1005 1.390 . S
C1003 H1007 0.950 . S
H1004 C1000 0.950 . S
C1005 C1003 1.390 . S
C1005 C1006 1.387 . S
C1005 H1008 0.950 . S
C1006 C1005 1.387 . S
C1006 C1009 1.387 . S
H1007 C1003 0.950 . S
H1008 C1005 0.950 . S
C1009 C1000 1.390 . S
C1009 H1002 0.950 . S
C1009 C1006 1.387 . S
C1010 C1011 1.387 . S
C1010 H1014 0.950 . S
C1010 C1019 1.390 . S
C1011 C1010 1.387 . S
C1011 C1013 1.387 . S
H1012 C1019 0.950 . S
C1013 C1011 1.387 . S
C1013 C1015 1.390 . S
C1013 H1017 0.950 . S
H1014 C1010 0.950 . S
C1015 C1013 1.390 . S
C1015 C1016 1.387 . S
C1015 H1018 0.950 . S
C1016 C1015 1.387 . S
C1016 C1019 1.387 . S
H1017 C1013 0.950 . S
H1018 C1015 0.950 . S
C1019 C1010 1.390 . S
C1019 H1012 0.950 . S
C1019 C1016 1.387 . S
C1020 C1021 1.387 . S
C1020 H1024 0.950 . S
C1020 C1029 1.390 . S
C1021 C1020 1.387 . S
C1021 C1023 1.387 . S
H1022 C1029 0.950 . S
C1023 C1021 1.387 . S
C1023 C1025 1.390 . S
C1023 H1027 0.950 . S
H1024 C1020 0.950 . S
C1025 C1023 1.390 . S
C1025 C1026 1.387 . S
C1025 H1028 0.950 . S
C1026 C1025 1.387 . S
C1026 C1029 1.387 . S
H1027 C1023 0.950 . S
H1028 C1025 0.950 . S
C1029 C1020 1.390 . S
C1029 H1022 0.950 . S
C1029 C1026 1.387 . S
C1030 C1031 1.387 . S
C1030 H1034 0.950 . S
C1030 C1039 1.390 . S
C1031 C1030 1.387 . S
C1031 C1033 1.387 . S
H1032 C1039 0.962 . S
C1033 C1031 1.387 . S
C1033 C1035 1.390 . S
C1033 H1037 0.950 . S
H1034 C1030 0.950 . S
C1035 C1033 1.390 . S
C1035 C1036 1.387 1_455 S
C1035 H1038 0.950 1_455 S
C1036 C1035 1.387 1_655 S
C1036 C1039 1.387 1_655 S
H1037 C1033 0.950 . S
H1038 C1035 0.950 1_655 S
C1039 C1030 1.390 . S
C1039 H1032 0.962 . S
C1039 C1036 1.387 1_455 S
C1040 C1041 1.387 . S
C1040 H1044 0.950 . S
C1040 C1049 1.390 . S
C1041 C1040 1.387 . S
C1041 C1043 1.387 . S
H1042 C1049 0.950 . S
C1043 C1041 1.387 . S
C1043 C1045 1.390 . S
C1043 H1047 0.950 . S
H1044 C1040 0.950 . S
C1045 C1043 1.390 . S
C1045 C1046 1.387 . S
C1045 H1048 0.950 . S
C1046 C1045 1.387 . S
C1046 C1049 1.387 . S
H1047 C1043 0.950 . S
H1048 C1045 0.950 . S
C1049 C1040 1.390 . S
C1049 H1042 0.950 . S
C1049 C1046 1.387 . S
C1050 C1051 1.387 1_655 S
C1050 H1054 0.950 1_655 S
C1050 C1059 1.390 . S
C1051 C1050 1.387 1_455 S
C1051 C1053 1.387 1_455 S
H1052 C1059 0.950 . S
C1053 C1051 1.387 1_655 S
C1053 C1055 1.390 . S
C1053 H1057 0.950 . S
H1054 C1050 0.950 1_455 S
C1055 C1053 1.390 . S
C1055 C1056 1.387 . S
C1055 H1058 0.950 . S
C1056 C1055 1.387 . S
C1056 C1059 1.387 . S
H1057 C1053 0.950 . S
H1058 C1055 0.950 . S
C1059 C1050 1.390 . S
C1059 H1052 0.950 . S
C1059 C1056 1.387 . S
C1060 C1061 1.387 . S
C1060 H1064 0.950 . S
C1060 C1069 1.390 . S
C1061 C1060 1.387 . S
C1061 C1063 1.387 . S
H1062 C1069 0.950 . S
C1063 C1061 1.387 . S
C1063 C1065 1.390 . S
C1063 H1067 0.950 . S
H1064 C1060 0.950 . S
C1065 C1063 1.390 . S
C1065 C1066 1.387 . S
C1065 H1068 0.950 . S
C1066 C1065 1.387 . S
C1066 C1069 1.387 . S
H1067 C1063 0.950 . S
H1068 C1065 0.950 . S
C1069 C1060 1.390 . S
C1069 H1062 0.950 . S
C1069 C1066 1.387 . S
C1070 C1071 1.387 . S
C1070 H1074 0.950 . S
C1070 C1079 1.390 . S
C1071 C1070 1.387 . S
C1071 C1073 1.387 . S
H1072 C1079 0.950 . S
C1073 C1071 1.387 . S
C1073 C1075 1.390 . S
C1073 H1077 0.950 . S
H1074 C1070 0.950 . S
C1075 C1073 1.390 . S
C1075 C1076 1.387 . S
C1075 H1078 0.950 . S
C1076 C1075 1.387 . S
C1076 C1079 1.387 . S
H1077 C1073 0.950 . S
H1078 C1075 0.950 . S
C1079 C1070 1.390 . S
C1079 H1072 0.950 . S
C1079 C1076 1.387 . S
C1080 C1081 1.387 . S
C1080 H1084 0.950 . S
C1080 C1089 1.390 . S
C1081 C1080 1.387 . S
C1081 C1083 1.387 . S
H1082 C1089 0.950 . S
C1083 C1081 1.387 . S
C1083 C1085 1.390 . S
C1083 H1087 0.950 . S
H1084 C1080 0.950 . S
C1085 C1083 1.390 . S
C1085 C1086 1.387 . S
C1085 H1088 0.950 . S
C1086 C1085 1.387 . S
C1086 C1089 1.387 . S
H1087 C1083 0.950 . S
H1088 C1085 0.950 . S
C1089 C1080 1.390 . S
C1089 H1082 0.950 . S
C1089 C1086 1.387 . S
C1090 C1091 1.387 . S
C1090 H1094 0.950 . S
C1090 C1099 1.390 . S
C1091 C1090 1.387 . S
C1091 C1093 1.387 . S
H1092 C1099 0.950 . S
C1093 C1091 1.387 . S
C1093 C1095 1.390 . S
C1093 H1097 0.950 . S
H1094 C1090 0.950 . S
C1095 C1093 1.390 . S
C1095 C1096 1.387 . S
C1095 H1098 0.950 . S
C1096 C1095 1.387 . S
C1096 C1099 1.387 . S
H1097 C1093 0.950 . S
H1098 C1095 0.950 . S
C1099 C1090 1.390 . S
C1099 H1092 0.950 . S
C1099 C1096 1.387 . S
C1100 C1101 1.387 . S
C1100 H1104 0.950 . S
C1100 C1109 1.390 . S
C1101 C1100 1.387 . S
C1101 C1103 1.387 . S
H1102 C1109 0.950 . S
C1103 C1101 1.387 . S
C1103 C1105 1.390 . S
C1103 H1107 0.950 . S
H1104 C1100 0.950 . S
C1105 C1103 1.390 . S
C1105 C1106 1.387 . S
C1105 H1108 0.950 . S
C1106 C1105 1.387 . S
C1106 C1109 1.387 . S
H1107 C1103 0.950 . S
H1108 C1105 0.950 . S
C1109 C1100 1.390 . S
C1109 H1102 0.950 . S
C1109 C1106 1.387 . S
C1110 C1111 1.387 . S
C1110 H1114 0.950 . S
C1110 C1119 1.390 . S
C1111 C1110 1.387 . S
C1111 C1113 1.387 . S
H1112 C1119 0.950 . S
C1113 C1111 1.387 . S
C1113 C1115 1.390 . S
C1113 H1117 0.950 . S
H1114 C1110 0.950 . S
C1115 C1113 1.390 . S
C1115 C1116 1.387 1_655 S
C1115 H1118 0.950 1_655 S
C1116 C1115 1.387 1_455 S
C1116 C1119 1.387 1_455 S
H1117 C1113 0.950 . S
H1118 C1115 0.950 1_455 S
C1119 C1110 1.390 . S
C1119 H1112 0.950 . S
C1119 C1116 1.387 1_655 S
C1120 C1121 1.387 . S
C1120 H1124 0.950 . S
C1120 C1129 1.390 . S
C1121 C1120 1.387 . S
C1121 C1123 1.387 . S
H1122 C1129 0.950 . S
C1123 C1121 1.387 . S
C1123 C1125 1.390 . S
C1123 H1127 0.950 . S
H1124 C1120 0.950 . S
C1125 C1123 1.390 . S
C1125 C1126 1.387 . S
C1125 H1128 0.950 . S
C1126 C1125 1.387 . S
C1126 C1129 1.387 . S
H1127 C1123 0.950 . S
H1128 C1125 0.950 . S
C1129 C1120 1.390 . S
C1129 H1122 0.950 . S
C1129 C1126 1.387 . S
C1130 C1131 1.387 . S
C1130 H1134 0.950 . S
C1130 C1139 1.390 . S
C1131 C1130 1.387 . S
C1131 C1133 1.387 . S
H1132 C1139 0.950 . S
C1133 C1131 1.387 . S
C1133 C1135 1.390 . S
C1133 H1137 0.950 . S
H1134 C1130 0.950 . S
C1135 C1133 1.390 . S
C1135 C1136 1.387 . S
C1135 H1138 0.950 . S
C1136 C1135 1.387 . S
C1136 C1139 1.387 . S
H1137 C1133 0.950 . S
H1138 C1135 0.950 . S
C1139 C1130 1.390 . S
C1139 H1132 0.950 . S
C1139 C1136 1.387 . S
C1140 C1141 1.387 . S
C1140 H1144 0.950 . S
C1140 C1149 1.390 . S
C1141 C1140 1.387 . S
C1141 C1143 1.387 . S
H1142 C1149 0.950 . S
C1143 C1141 1.387 . S
C1143 C1145 1.390 . S
C1143 H1147 0.950 . S
H1144 C1140 0.950 . S
C1145 C1143 1.390 . S
C1145 C1146 1.387 . S
C1145 H1148 0.950 . S
C1146 C1145 1.387 . S
C1146 C1149 1.387 . S
H1147 C1143 0.950 . S
H1148 C1145 0.950 . S
C1149 C1140 1.390 . S
C1149 H1142 0.950 . S
C1149 C1146 1.387 . S
C1150 C1151 1.387 . S
C1150 H1154 0.950 . S
C1150 C1159 1.390 . S
C1151 C1150 1.387 . S
C1151 C1153 1.387 . S
H1152 C1159 0.950 . S
C1153 C1151 1.387 . S
C1153 C1155 1.390 . S
C1153 H1157 0.950 . S
H1154 C1150 0.950 . S
C1155 C1153 1.390 . S
C1155 C1156 1.387 1_655 S
C1155 H1158 0.950 1_655 S
C1156 C1155 1.387 1_455 S
C1156 C1159 1.387 1_455 S
H1157 C1153 0.950 . S
H1158 C1155 0.950 1_455 S
C1159 C1150 1.390 . S
C1159 H1152 0.950 . S
C1159 C1156 1.387 1_655 S
C1160 C1161 1.387 . S
C1160 H1164 0.950 . S
C1160 C1169 1.390 . S
C1161 C1160 1.387 . S
C1161 C1163 1.387 . S
H1162 C1169 0.950 . S
C1163 C1161 1.387 . S
C1163 C1165 1.390 . S
C1163 H1167 0.950 . S
H1164 C1160 0.950 . S
C1165 C1163 1.390 . S
C1165 C1166 1.387 . S
C1165 H1168 0.950 . S
C1166 C1165 1.387 . S
C1166 C1169 1.387 . S
H1167 C1163 0.950 . S
H1168 C1165 0.950 . S
C1169 C1160 1.390 . S
C1169 H1162 0.950 . S
C1169 C1166 1.387 . S
C1170 C1171 1.387 . S
C1170 H1174 0.950 . S
C1170 C1179 1.390 . S
C1171 C1170 1.387 . S
C1171 C1173 1.387 . S
H1172 C1179 0.943 1_455 S
C1173 C1171 1.387 . S
C1173 C1175 1.390 . S
C1173 H1177 0.950 . S
H1174 C1170 0.950 . S
C1175 C1173 1.390 . S
C1175 C1176 1.387 1_655 S
C1175 H1178 0.949 . S
C1176 C1175 1.387 1_455 S
C1176 C1179 1.387 1_455 S
H1177 C1173 0.950 . S
H1178 C1175 0.949 . S
C1179 C1170 1.390 . S
C1179 H1172 0.943 1_655 S
C1179 C1176 1.387 1_655 S
C1180 C1181 1.387 . S
C1180 H1184 0.950 . S
C1180 C1189 1.390 . S
C1181 C1180 1.387 . S
C1181 C1183 1.387 . S
H1182 C1189 0.950 . S
C1183 C1181 1.387 . S
C1183 C1185 1.390 . S
C1183 H1187 0.950 . S
H1184 C1180 0.950 . S
C1185 C1183 1.390 . S
C1185 C1186 1.387 . S
C1185 H1188 0.950 . S
C1186 C1185 1.387 . S
C1186 C1189 1.387 . S
H1187 C1183 0.950 . S
H1188 C1185 0.950 . S
C1189 C1180 1.390 . S
C1189 H1182 0.950 . S
C1189 C1186 1.387 . S
C1190 C1191 1.387 . S
C1190 H1194 0.950 . S
C1190 C1199 1.390 . S
C1191 C1190 1.387 . S
C1191 C1193 1.387 . S
H1192 C1199 0.950 . S
C1193 C1191 1.387 . S
C1193 C1195 1.390 . S
C1193 H1197 0.950 . S
H1194 C1190 0.950 . S
C1195 C1193 1.390 . S
C1195 C1196 1.387 . S
C1195 H1198 0.950 . S
C1196 C1195 1.387 . S
C1196 C1199 1.387 . S
H1197 C1193 0.950 . S
H1198 C1195 0.950 . S
C1199 C1190 1.390 . S
C1199 H1192 0.950 . S
C1199 C1196 1.387 . S
C1200 C1201 1.387 . S
C1200 H1204 0.950 . S
C1200 C1209 1.390 . S
C1201 C1200 1.387 . S
C1201 C1203 1.387 . S
H1202 C1209 0.950 . S
C1203 C1201 1.387 . S
C1203 C1205 1.390 . S
C1203 H1207 0.950 . S
H1204 C1200 0.950 . S
C1205 C1203 1.390 . S
C1205 C1206 1.387 . S
C1205 H1208 0.950 . S
C1206 C1205 1.387 . S
C1206 C1209 1.387 . S
H1207 C1203 0.950 . S
H1208 C1205 0.950 . S
C1209 C1200 1.390 . S
C1209 H1202 0.950 . S
C1209 C1206 1.387 . S
C1210 C1211 1.387 . S
C1210 H1214 0.950 . S
C1210 C1219 1.390 . S
C1211 C1210 1.387 . S
C1211 C1213 1.387 . S
H1212 C1219 0.950 . S
C1213 C1211 1.387 . S
C1213 C1215 1.390 . S
C1213 H1217 0.950 . S
H1214 C1210 0.950 . S
C1215 C1213 1.390 . S
C1215 C1216 1.387 . S
C1215 H1218 0.950 . S
C1216 C1215 1.387 . S
C1216 C1219 1.387 . S
H1217 C1213 0.950 . S
H1218 C1215 0.950 . S
C1219 C1210 1.390 . S
C1219 H1212 0.950 . S
C1219 C1216 1.387 . S
C1220 C1221 1.387 . S
C1220 H1224 0.950 . S
C1220 C1229 1.390 . S
C1221 C1220 1.387 . S
C1221 C1223 1.387 . S
H1222 C1229 0.950 . S
C1223 C1221 1.387 . S
C1223 C1225 1.390 . S
C1223 H1227 0.950 . S
H1224 C1220 0.950 . S
C1225 C1223 1.390 . S
C1225 C1226 1.387 . S
C1225 H1228 0.950 . S
C1226 C1225 1.387 . S
C1226 C1229 1.387 . S
H1227 C1223 0.950 . S
H1228 C1225 0.950 . S
C1229 C1220 1.390 . S
C1229 H1222 0.950 . S
C1229 C1226 1.387 . S
C1230 C1231 1.387 1_455 S
C1230 H1234 0.950 . S
C1230 C1239 1.390 . S
C1231 C1230 1.387 1_655 S
C1231 C1233 1.387 . S
H1232 C1239 0.950 . S
C1233 C1231 1.387 . S
C1233 C1235 1.390 1_655 S
C1233 H1237 0.950 . S
H1234 C1230 0.950 . S
C1235 C1233 1.390 1_455 S
C1235 C1236 1.387 . S
C1235 H1238 0.950 . S
C1236 C1235 1.387 . S
C1236 C1239 1.387 . S
H1237 C1233 0.950 . S
H1238 C1235 0.950 . S
C1239 C1230 1.390 . S
C1239 H1232 0.950 . S
C1239 C1236 1.387 . S
C1240 C1241 1.387 . S
C1240 H1244 0.950 . S
C1240 C1249 1.390 . S
C1241 C1240 1.387 . S
C1241 C1243 1.387 . S
H1242 C1249 0.950 . S
C1243 C1241 1.387 . S
C1243 C1245 1.390 . S
C1243 H1247 0.950 . S
H1244 C1240 0.950 . S
C1245 C1243 1.390 . S
C1245 C1246 1.387 . S
C1245 H1248 0.950 . S
C1246 C1245 1.387 . S
C1246 C1249 1.387 . S
H1247 C1243 0.950 . S
H1248 C1245 0.950 . S
C1249 C1240 1.390 . S
C1249 H1242 0.950 . S
C1249 C1246 1.387 . S
C1250 C1251 1.387 . S
C1250 H1254 0.950 . S
C1250 C1259 1.390 . S
C1251 C1250 1.387 . S
C1251 C1253 1.387 . S
H1252 C1259 0.950 . S
C1253 C1251 1.387 . S
C1253 C1255 1.390 . S
C1253 H1257 0.950 . S
H1254 C1250 0.950 . S
C1255 C1253 1.390 . S
C1255 C1256 1.387 1_455 S
C1255 H1258 0.950 1_455 S
C1256 C1255 1.387 1_655 S
C1256 C1259 1.387 1_655 S
H1257 C1253 0.950 . S
H1258 C1255 0.950 1_655 S
C1259 C1250 1.390 . S
C1259 H1252 0.950 . S
C1259 C1256 1.387 1_455 S
C1260 C1261 1.387 . S
C1260 H1264 0.950 . S
C1260 C1269 1.390 . S
C1261 C1260 1.387 . S
C1261 C1263 1.387 . S
H1262 C1269 0.950 . S
C1263 C1261 1.387 . S
C1263 C1265 1.390 . S
C1263 H1267 0.950 . S
H1264 C1260 0.950 . S
C1265 C1263 1.390 . S
C1265 C1266 1.387 . S
C1265 H1268 0.950 . S
C1266 C1265 1.387 . S
C1266 C1269 1.387 . S
H1267 C1263 0.950 . S
H1268 C1265 0.950 . S
C1269 C1260 1.390 . S
C1269 H1262 0.950 . S
C1269 C1266 1.387 . S
C1270 C1271 1.387 . S
C1270 H1274 0.950 . S
C1270 C1279 1.390 . S
C1271 C1270 1.387 . S
C1271 C1273 1.387 . S
H1272 C1279 0.950 . S
C1273 C1271 1.387 . S
C1273 C1275 1.390 . S
C1273 H1277 0.950 . S
H1274 C1270 0.950 . S
C1275 C1273 1.390 . S
C1275 C1276 1.387 . S
C1275 H1278 0.950 . S
C1276 C1275 1.387 . S
C1276 C1279 1.387 . S
H1277 C1273 0.950 . S
H1278 C1275 0.950 . S
C1279 C1270 1.390 . S
C1279 H1272 0.950 . S
C1279 C1276 1.387 . S
C1280 C1281 1.387 . S
C1280 H1284 0.950 . S
C1280 C1289 1.390 1_545 S
C1281 C1280 1.387 . S
C1281 C1283 1.387 . S
H1282 C1289 0.950 . S
C1283 C1281 1.387 . S
C1283 C1285 1.390 1_545 S
C1283 H1287 0.950 . S
H1284 C1280 0.950 . S
C1285 C1283 1.390 1_565 S
C1285 C1286 1.387 . S
C1285 H1288 0.950 . S
C1286 C1285 1.387 . S
C1286 C1289 1.387 . S
H1287 C1283 0.950 . S
H1288 C1285 0.950 . S
C1289 C1280 1.390 1_565 S
C1289 H1282 0.950 . S
C1289 C1286 1.387 . S
C1290 C1291 1.387 . S
C1290 H1294 0.950 . S
C1290 C1299 1.390 . S
C1291 C1290 1.387 . S
C1291 C1293 1.387 . S
H1292 C1299 0.950 . S
C1293 C1291 1.387 . S
C1293 C1295 1.390 . S
C1293 H1297 0.950 . S
H1294 C1290 0.950 . S
C1295 C1293 1.390 . S
C1295 C1296 1.387 . S
C1295 H1298 0.950 . S
C1296 C1295 1.387 . S
C1296 C1299 1.387 . S
H1297 C1293 0.950 . S
H1298 C1295 0.950 . S
C1299 C1290 1.390 . S
C1299 H1292 0.950 . S
C1299 C1296 1.387 . S
C1300 C1301 1.387 . S
C1300 H1304 0.950 . S
C1300 C1309 1.390 1_565 S
C1301 C1300 1.387 . S
C1301 C1303 1.387 . S
H1302 C1309 0.950 . S
C1303 C1301 1.387 . S
C1303 C1305 1.390 1_565 S
C1303 H1307 0.950 . S
H1304 C1300 0.950 . S
C1305 C1303 1.390 1_545 S
C1305 C1306 1.387 . S
C1305 H1308 0.950 . S
C1306 C1305 1.387 . S
C1306 C1309 1.387 . S
H1307 C1303 0.950 . S
H1308 C1305 0.950 . S
C1309 C1300 1.390 1_545 S
C1309 H1302 0.950 . S
C1309 C1306 1.387 . S
C1310 C1311 1.387 . S
C1310 H1314 0.950 . S
C1310 C1319 1.390 1_556 S
C1311 C1310 1.387 . S
C1311 C1313 1.387 . S
H1312 C1319 0.950 . S
C1313 C1311 1.387 . S
C1313 C1315 1.390 1_556 S
C1313 H1317 0.950 . S
H1314 C1310 0.950 . S
C1315 C1313 1.390 1_554 S
C1315 C1316 1.387 . S
C1315 H1318 0.950 . S
C1316 C1315 1.387 . S
C1316 C1319 1.387 . S
H1317 C1313 0.950 . S
H1318 C1315 0.950 . S
C1319 C1310 1.390 1_554 S
C1319 H1312 0.950 . S
C1319 C1316 1.387 . S
C1320 C1321 1.387 . S
C1320 H1324 0.950 . S
C1320 C1329 1.390 1_545 S
C1321 C1320 1.387 . S
C1321 C1323 1.387 . S
H1322 C1329 0.950 . S
C1323 C1321 1.387 . S
C1323 C1325 1.390 1_545 S
C1323 H1327 0.950 . S
H1324 C1320 0.950 . S
C1325 C1323 1.390 1_565 S
C1325 C1326 1.387 . S
C1325 H1328 0.950 . S
C1326 C1325 1.387 . S
C1326 C1329 1.387 . S
H1327 C1323 0.950 . S
H1328 C1325 0.950 . S
C1329 C1320 1.390 1_565 S
C1329 H1322 0.950 . S
C1329 C1326 1.387 . S
C1330 C1331 1.387 . S
C1330 H1334 0.950 . S
C1330 C1339 1.390 . S
C1331 C1330 1.387 . S
C1331 C1333 1.387 . S
H1332 C1339 0.950 . S
C1333 C1331 1.387 . S
C1333 C1335 1.390 . S
C1333 H1337 0.950 . S
H1334 C1330 0.950 . S
C1335 C1333 1.390 . S
C1335 C1336 1.387 . S
C1335 H1338 0.950 . S
C1336 C1335 1.387 . S
C1336 C1339 1.387 . S
H1337 C1333 0.950 . S
H1338 C1335 0.950 . S
C1339 C1330 1.390 . S
C1339 H1332 0.950 . S
C1339 C1336 1.387 . S
C1340 C1341 1.387 . S
C1340 H1344 0.950 . S
C1340 C1349 1.390 1_545 S
C1341 C1340 1.387 . S
C1341 C1343 1.387 . S
H1342 C1349 0.950 . S
C1343 C1341 1.387 . S
C1343 C1345 1.390 1_545 S
C1343 H1347 0.950 . S
H1344 C1340 0.950 . S
C1345 C1343 1.390 1_565 S
C1345 C1346 1.387 . S
C1345 H1348 0.950 . S
C1346 C1345 1.387 . S
C1346 C1349 1.387 . S
H1347 C1343 0.950 . S
H1348 C1345 0.950 . S
C1349 C1340 1.390 1_565 S
C1349 H1342 0.950 . S
C1349 C1346 1.387 . S
C1350 C1351 1.387 . S
C1350 H1354 0.950 . S
C1350 C1359 1.390 1_556 S
C1351 C1350 1.387 . S
C1351 C1353 1.387 . S
H1352 C1359 0.950 . S
C1353 C1351 1.387 . S
C1353 C1355 1.390 1_556 S
C1353 H1357 0.950 . S
H1354 C1350 0.950 . S
C1355 C1353 1.390 1_554 S
C1355 C1356 1.387 . S
C1355 H1358 0.950 . S
C1356 C1355 1.387 . S
C1356 C1359 1.387 . S
H1357 C1353 0.950 . S
H1358 C1355 0.950 . S
C1359 C1350 1.390 1_554 S
C1359 H1352 0.950 . S
C1359 C1356 1.387 . S
C1360 C1361 1.387 . S
C1360 H1364 0.950 . S
C1360 C1369 1.390 . S
C1361 C1360 1.387 . S
C1361 C1363 1.387 . S
H1362 C1369 0.950 . S
C1363 C1361 1.387 . S
C1363 C1365 1.390 . S
C1363 H1367 0.950 . S
H1364 C1360 0.950 . S
C1365 C1363 1.390 . S
C1365 C1366 1.387 . S
C1365 H1368 0.950 . S
C1366 C1365 1.387 . S
C1366 C1369 1.387 . S
H1367 C1363 0.950 . S
H1368 C1365 0.950 . S
C1369 C1360 1.390 . S
C1369 H1362 0.950 . S
C1369 C1366 1.387 . S
C1370 C1371 1.387 . S
C1370 H1374 0.950 . S
C1370 C1379 1.390 1_556 S
C1371 C1370 1.387 . S
C1371 C1373 1.387 . S
H1372 C1379 0.950 . S
C1373 C1371 1.387 . S
C1373 C1375 1.390 1_556 S
C1373 H1377 0.950 . S
H1374 C1370 0.950 . S
C1375 C1373 1.390 1_554 S
C1375 C1376 1.387 . S
C1375 H1378 0.950 . S
C1376 C1375 1.387 . S
C1376 C1379 1.387 . S
H1377 C1373 0.950 . S
H1378 C1375 0.950 . S
C1379 C1370 1.390 1_554 S
C1379 H1372 0.950 . S
C1379 C1376 1.387 . S
C1380 C1381 1.387 . S
C1380 H1384 0.950 . S
C1380 C1389 1.390 . S
C1381 C1380 1.387 . S
C1381 C1383 1.387 . S
H1382 C1389 0.950 . S
C1383 C1381 1.387 . S
C1383 C1385 1.390 . S
C1383 H1387 0.950 . S
H1384 C1380 0.950 . S
C1385 C1383 1.390 . S
C1385 C1386 1.387 . S
C1385 H1388 0.950 . S
C1386 C1385 1.387 . S
C1386 C1389 1.387 . S
H1387 C1383 0.950 . S
H1388 C1385 0.950 . S
C1389 C1380 1.390 . S
C1389 H1382 0.950 . S
C1389 C1386 1.387 . S
C1390 C1391 1.387 . S
C1390 H1394 0.950 . S
C1390 C1399 1.390 . S
C1391 C1390 1.387 . S
C1391 C1393 1.387 . S
H1392 C1399 0.950 . S
C1393 C1391 1.387 . S
C1393 C1395 1.390 . S
C1393 H1397 0.950 . S
H1394 C1390 0.950 . S
C1395 C1393 1.390 . S
C1395 C1396 1.387 . S
C1395 H1398 0.950 . S
C1396 C1395 1.387 . S
C1396 C1399 1.387 . S
H1397 C1393 0.950 . S
H1398 C1395 0.950 . S
C1399 C1390 1.390 . S
C1399 H1392 0.950 . S
C1399 C1396 1.387 . S
C1400 C1401 1.387 . S
C1400 H1404 0.950 . S
C1400 C1409 1.390 . S
C1401 C1400 1.387 . S
C1401 C1403 1.387 . S
H1402 C1409 0.950 . S
C1403 C1401 1.387 . S
C1403 C1405 1.390 . S
C1403 H1407 0.950 . S
H1404 C1400 0.950 . S
C1405 C1403 1.390 . S
C1405 C1406 1.387 . S
C1405 H1408 0.950 . S
C1406 C1405 1.387 . S
C1406 C1409 1.387 . S
H1407 C1403 0.950 . S
H1408 C1405 0.950 . S
C1409 C1400 1.390 . S
C1409 H1402 0.950 . S
C1409 C1406 1.387 . S
C1410 C1411 1.387 . S
C1410 H1414 0.950 . S
C1410 C1419 1.390 1_556 S
C1411 C1410 1.387 . S
C1411 C1413 1.387 . S
H1412 C1419 0.950 . S
C1413 C1411 1.387 . S
C1413 C1415 1.390 1_556 S
C1413 H1417 0.950 . S
H1414 C1410 0.950 . S
C1415 C1413 1.390 1_554 S
C1415 C1416 1.387 . S
C1415 H1418 0.950 . S
C1416 C1415 1.387 . S
C1416 C1419 1.387 . S
H1417 C1413 0.950 . S
H1418 C1415 0.950 . S
C1419 C1410 1.390 1_554 S
C1419 H1412 0.950 . S
C1419 C1416 1.387 . S
C1420 C1421 1.387 . S
C1420 H1424 0.950 . S
C1420 C1429 1.390 . S
C1421 C1420 1.387 . S
C1421 C1423 1.387 . S
H1422 C1429 0.950 . S
C1423 C1421 1.387 . S
C1423 C1425 1.390 . S
C1423 H1427 0.950 . S
H1424 C1420 0.950 . S
C1425 C1423 1.390 . S
C1425 C1426 1.387 . S
C1425 H1428 0.950 . S
C1426 C1425 1.387 . S
C1426 C1429 1.387 . S
H1427 C1423 0.950 . S
H1428 C1425 0.950 . S
C1429 C1420 1.390 . S
C1429 H1422 0.950 . S
C1429 C1426 1.387 . S
C1430 C1431 1.387 . S
C1430 H1434 0.950 . S
C1430 C1439 1.390 . S
C1431 C1430 1.387 . S
C1431 C1433 1.387 . S
H1432 C1439 0.950 . S
C1433 C1431 1.387 . S
C1433 C1435 1.390 . S
C1433 H1437 0.950 . S
H1434 C1430 0.950 . S
C1435 C1433 1.390 . S
C1435 C1436 1.387 . S
C1435 H1438 0.950 . S
C1436 C1435 1.387 . S
C1436 C1439 1.387 . S
H1437 C1433 0.950 . S
H1438 C1435 0.950 . S
C1439 C1430 1.390 . S
C1439 H1432 0.950 . S
C1439 C1436 1.387 . S
C1440 C1441 1.387 . S
C1440 H1444 0.950 . S
C1440 C1449 1.390 . S
C1441 C1440 1.387 . S
C1441 C1443 1.387 . S
H1442 C1449 0.950 . S
C1443 C1441 1.387 . S
C1443 C1445 1.390 . S
C1443 H1447 0.950 . S
H1444 C1440 0.950 . S
C1445 C1443 1.390 . S
C1445 C1446 1.387 . S
C1445 H1448 0.950 . S
C1446 C1445 1.387 . S
C1446 C1449 1.387 . S
H1447 C1443 0.950 . S
H1448 C1445 0.950 . S
C1449 C1440 1.390 . S
C1449 H1442 0.950 . S
C1449 C1446 1.387 . S
C1450 C1451 1.387 . S
C1450 H1454 0.950 . S
C1450 C1459 1.390 . S
C1451 C1450 1.387 . S
C1451 C1453 1.387 . S
H1452 C1459 0.950 . S
C1453 C1451 1.387 . S
C1453 C1455 1.390 . S
C1453 H1457 0.950 . S
H1454 C1450 0.950 . S
C1455 C1453 1.390 . S
C1455 C1456 1.387 . S
C1455 H1458 0.950 . S
C1456 C1455 1.387 . S
C1456 C1459 1.387 . S
H1457 C1453 0.950 . S
H1458 C1455 0.950 . S
C1459 C1450 1.390 . S
C1459 H1452 0.950 . S
C1459 C1456 1.387 . S
C1460 C1461 1.387 . S
C1460 H1464 0.950 . S
C1460 C1469 1.390 . S
C1461 C1460 1.387 . S
C1461 C1463 1.387 . S
H1462 C1469 0.950 . S
C1463 C1461 1.387 . S
C1463 C1465 1.390 . S
C1463 H1467 0.950 . S
H1464 C1460 0.950 . S
C1465 C1463 1.390 . S
C1465 C1466 1.387 . S
C1465 H1468 0.950 . S
C1466 C1465 1.387 . S
C1466 C1469 1.387 . S
H1467 C1463 0.950 . S
H1468 C1465 0.950 . S
C1469 C1460 1.390 . S
C1469 H1462 0.950 . S
C1469 C1466 1.387 . S
C1470 C1471 1.387 . S
C1470 H1474 0.950 . S
C1470 C1479 1.390 . S
C1471 C1470 1.387 . S
C1471 C1473 1.387 . S
H1472 C1479 0.950 . S
C1473 C1471 1.387 . S
C1473 C1475 1.390 . S
C1473 H1477 0.950 . S
H1474 C1470 0.950 . S
C1475 C1473 1.390 . S
C1475 C1476 1.387 . S
C1475 H1478 0.950 . S
C1476 C1475 1.387 . S
C1476 C1479 1.387 . S
H1477 C1473 0.950 . S
H1478 C1475 0.950 . S
C1479 C1470 1.390 . S
C1479 H1472 0.950 . S
C1479 C1476 1.387 . S
C1480 C1481 1.387 . S
C1480 H1484 0.950 . S
C1480 C1489 1.390 . S
C1481 C1480 1.387 . S
C1481 C1483 1.387 . S
H1482 C1489 0.950 . S
C1483 C1481 1.387 . S
C1483 C1485 1.390 . S
C1483 H1487 0.950 . S
H1484 C1480 0.950 . S
C1485 C1483 1.390 . S
C1485 C1486 1.387 . S
C1485 H1488 0.950 . S
C1486 C1485 1.387 . S
C1486 C1489 1.387 . S
H1487 C1483 0.950 . S
H1488 C1485 0.950 . S
C1489 C1480 1.390 . S
C1489 H1482 0.950 . S
C1489 C1486 1.387 . S
C1490 C1491 1.387 . S
C1490 H1494 0.950 . S
C1490 C1499 1.390 . S
C1491 C1490 1.387 . S
C1491 C1493 1.387 . S
H1492 C1499 0.950 . S
C1493 C1491 1.387 . S
C1493 C1495 1.390 . S
C1493 H1497 0.950 . S
H1494 C1490 0.950 . S
C1495 C1493 1.390 . S
C1495 C1496 1.387 . S
C1495 H1498 0.950 . S
C1496 C1495 1.387 . S
C1496 C1499 1.387 . S
H1497 C1493 0.950 . S
H1498 C1495 0.950 . S
C1499 C1490 1.390 . S
C1499 H1492 0.950 . S
C1499 C1496 1.387 . S
C1500 C1501 1.387 . S
C1500 H1504 0.950 . S
C1500 C1509 1.390 . S
C1501 C1500 1.387 . S
C1501 C1503 1.387 . S
H1502 C1509 0.950 . S
C1503 C1501 1.387 . S
C1503 C1505 1.390 . S
C1503 H1507 0.950 . S
H1504 C1500 0.950 . S
C1505 C1503 1.390 . S
C1505 C1506 1.387 . S
C1505 H1508 0.950 . S
C1506 C1505 1.387 . S
C1506 C1509 1.387 . S
H1507 C1503 0.950 . S
H1508 C1505 0.950 . S
C1509 C1500 1.390 . S
C1509 H1502 0.950 . S
C1509 C1506 1.387 . S
C1510 C1511 1.387 . S
C1510 H1514 0.950 . S
C1510 C1519 1.390 . S
C1511 C1510 1.387 . S
C1511 C1513 1.387 . S
H1512 C1519 0.950 . S
C1513 C1511 1.387 . S
C1513 C1515 1.390 . S
C1513 H1517 0.950 . S
H1514 C1510 0.950 . S
C1515 C1513 1.390 . S
C1515 C1516 1.387 . S
C1515 H1518 0.950 . S
C1516 C1515 1.387 . S
C1516 C1519 1.387 . S
H1517 C1513 0.950 . S
H1518 C1515 0.950 . S
C1519 C1510 1.390 . S
C1519 H1512 0.950 . S
C1519 C1516 1.387 . S
C1520 C1521 1.387 . S
C1520 H1524 0.950 . S
C1520 C1529 1.390 . S
C1521 C1520 1.387 . S
C1521 C1523 1.387 . S
H1522 C1529 0.950 . S
C1523 C1521 1.387 . S
C1523 C1525 1.390 . S
C1523 H1527 0.950 . S
H1524 C1520 0.950 . S
C1525 C1523 1.390 . S
C1525 C1526 1.387 . S
C1525 H1528 0.950 . S
C1526 C1525 1.387 . S
C1526 C1529 1.387 . S
H1527 C1523 0.950 . S
H1528 C1525 0.950 . S
C1529 C1520 1.390 . S
C1529 H1522 0.950 . S
C1529 C1526 1.387 . S
C1530 C1531 1.387 . S
C1530 H1534 0.950 . S
C1530 C1539 1.390 . S
C1531 C1530 1.387 . S
C1531 C1533 1.387 . S
H1532 C1539 0.950 . S
C1533 C1531 1.387 . S
C1533 C1535 1.390 . S
C1533 H1537 0.950 . S
H1534 C1530 0.950 . S
C1535 C1533 1.390 . S
C1535 C1536 1.387 . S
C1535 H1538 0.950 . S
C1536 C1535 1.387 . S
C1536 C1539 1.387 . S
H1537 C1533 0.950 . S
H1538 C1535 0.950 . S
C1539 C1530 1.390 . S
C1539 H1532 0.950 . S
C1539 C1536 1.387 . S
C1540 C1541 1.387 . S
C1540 H1544 0.950 . S
C1540 C1549 1.390 . S
C1541 C1540 1.387 . S
C1541 C1543 1.387 . S
H1542 C1549 0.950 . S
C1543 C1541 1.387 . S
C1543 C1545 1.390 . S
C1543 H1547 0.950 . S
H1544 C1540 0.950 . S
C1545 C1543 1.390 . S
C1545 C1546 1.387 . S
C1545 H1548 0.950 . S
C1546 C1545 1.387 . S
C1546 C1549 1.387 . S
H1547 C1543 0.950 . S
H1548 C1545 0.950 . S
C1549 C1540 1.390 . S
C1549 H1542 0.950 . S
C1549 C1546 1.387 . S
C1550 C1551 1.387 . S
C1550 H1554 0.950 . S
C1550 C1559 1.390 . S
C1551 C1550 1.387 . S
C1551 C1553 1.387 . S
H1552 C1559 0.950 . S
C1553 C1551 1.387 . S
C1553 C1555 1.390 . S
C1553 H1557 0.950 . S
H1554 C1550 0.950 . S
C1555 C1553 1.390 . S
C1555 C1556 1.387 . S
C1555 H1558 0.950 . S
C1556 C1555 1.387 . S
C1556 C1559 1.387 . S
H1557 C1553 0.950 . S
H1558 C1555 0.950 . S
C1559 C1550 1.390 . S
C1559 H1552 0.950 . S
C1559 C1556 1.387 . S
C1560 C1561 1.387 . S
C1560 H1564 0.950 . S
C1560 C1569 1.390 . S
C1561 C1560 1.387 . S
C1561 C1563 1.387 . S
H1562 C1569 0.950 . S
C1563 C1561 1.387 . S
C1563 C1565 1.390 . S
C1563 H1567 0.950 . S
H1564 C1560 0.950 . S
C1565 C1563 1.390 . S
C1565 C1566 1.387 . S
C1565 H1568 0.950 . S
C1566 C1565 1.387 . S
C1566 C1569 1.387 . S
H1567 C1563 0.950 . S
H1568 C1565 0.950 . S
C1569 C1560 1.390 . S
C1569 H1562 0.950 . S
C1569 C1566 1.387 . S
C1570 C1571 1.387 . S
C1570 H1574 0.950 . S
C1570 C1579 1.390 . S
C1571 C1570 1.387 . S
C1571 C1573 1.387 . S
H1572 C1579 0.950 . S
C1573 C1571 1.387 . S
C1573 C1575 1.390 . S
C1573 H1577 0.950 . S
H1574 C1570 0.950 . S
C1575 C1573 1.390 . S
C1575 C1576 1.387 . S
C1575 H1578 0.950 . S
C1576 C1575 1.387 . S
C1576 C1579 1.387 . S
H1577 C1573 0.950 . S
H1578 C1575 0.950 . S
C1579 C1570 1.390 . S
C1579 H1572 0.950 . S
C1579 C1576 1.387 . S
C1580 C1581 1.387 . S
C1580 H1584 0.950 . S
C1580 C1589 1.390 . S
C1581 C1580 1.387 . S
C1581 C1583 1.387 . S
H1582 C1589 0.950 . S
C1583 C1581 1.387 . S
C1583 C1585 1.390 . S
C1583 H1587 0.950 . S
H1584 C1580 0.950 . S
C1585 C1583 1.390 . S
C1585 C1586 1.387 . S
C1585 H1588 0.950 . S
C1586 C1585 1.387 . S
C1586 C1589 1.387 . S
H1587 C1583 0.950 . S
H1588 C1585 0.950 . S
C1589 C1580 1.390 . S
C1589 H1582 0.950 . S
C1589 C1586 1.387 . S
C1590 C1591 1.387 . S
C1590 H1594 0.950 . S
C1590 C1599 1.390 . S
C1591 C1590 1.387 . S
C1591 C1593 1.387 . S
H1592 C1599 0.950 . S
C1593 C1591 1.387 . S
C1593 C1595 1.390 . S
C1593 H1597 0.950 . S
H1594 C1590 0.950 . S
C1595 C1593 1.390 . S
C1595 C1596 1.387 . S
C1595 H1598 0.950 . S
C1596 C1595 1.387 . S
C1596 C1599 1.387 . S
H1597 C1593 0.950 . S
H1598 C1595 0.950 . S
C1599 C1590 1.390 . S
C1599 H1592 0.950 . S
C1599 C1596 1.387 . S
C641 C2 1.494 . S
C646 C79 1.408 . S
C651 C19 1.409 . S
C656 C22 1.494 1_545 S
C661 C42 1.494 . S
C666 C39 1.409 . S
C671 C59 1.408 . S
C676 C62 1.494 1_565 S
C681 C119 1.413 . S
C686 C82 1.495 . S
C691 C102 1.495 1_545 S
C696 C139 1.412 . S
C701 C159 1.408 . S
C706 C122 1.494 . S
C711 C99 1.413 . S
C716 C142 1.495 1_565 S
C721 C161 1.495 . S
C726 C238 1.413 . S
C731 C181 1.495 1_565 S
C736 C178 1.410 . S
C741 C201 1.494 . S
C746 C198 1.409 . S
C751 C221 1.495 1_545 S
C756 C218 1.413 . S
C761 C241 1.494 . S
C766 C278 1.408 . S
C771 C261 1.495 1_565 S
C776 C298 1.412 . S
C781 C318 1.413 . S
C786 C281 1.495 . S
C791 C258 1.413 . S
C796 C301 1.495 1_545 S
C801 C322 1.495 . S
C806 C399 1.413 . S
C811 C339 1.413 . S
C816 C342 1.495 . S
C821 C359 1.412 . S
C826 C362 1.495 . S
C831 C382 1.495 . S
C836 C379 1.413 . S
C841 C402 1.494 . S
C846 C439 1.409 . S
C851 C459 1.409 . S
C856 C422 1.494 . S
C861 C442 1.495 . S
C866 C479 1.413 . S
C871 C419 1.408 . S
C876 C462 1.494 . S
C881 C558 1.413 . S
C886 C481 1.495 . S
C891 C498 1.413 . S
C896 C501 1.495 . S
C901 C521 1.495 . S
C906 C518 1.413 . S
C911 C538 1.411 . S
C916 C541 1.495 . S
C921 C598 1.413 . S
C926 C561 1.495 . S
C931 C618 1.413 . S
C936 C581 1.495 . S
C941 C638 1.413 . S
C946 C601 1.495 . S
C951 C621 1.495 . S
C956 C578 1.412 . S
C961 C542 1.466 . S
C966 C8 1.457 . S
C971 C28 1.458 . S
C976 C162 1.467 . S
C981 C48 1.456 . S
C986 C502 1.468 . S
C991 C68 1.458 . S
C996 C202 1.467 . S
C1001 C88 1.458 . S
C1006 C582 1.467 . S
C1011 C282 1.467 . S
C1016 C108 1.456 . S
C1021 C622 1.467 . S
C1026 C128 1.458 . S
C1031 C148 1.458 . S
C1036 C242 1.467 . S
C1041 C169 1.456 . S
C1046 C381 1.466 . S
C1051 C1 1.467 . S
C1056 C189 1.458 . S
C1061 C341 1.467 . S
C1066 C209 1.456 . S
C1071 C41 1.467 . S
C1076 C229 1.458 . S
C1081 C421 1.466 . S
C1086 C249 1.456 . S
C1091 C121 1.467 . S
C1096 C269 1.458 . S
C1101 C289 1.456 . S
C1106 C461 1.468 . S
C1111 C309 1.458 . S
C1116 C81 1.467 . S
C1121 C328 1.458 . S
C1126 C222 1.467 . S
C1131 C348 1.458 . S
C1136 C482 1.467 . S
C1141 C368 1.456 . S
C1146 C182 1.466 . S
C1151 C388 1.458 . S
C1156 C522 1.467 . S
C1161 C408 1.456 . S
C1166 C262 1.466 . S
C1171 C428 1.458 . S
C1176 C602 1.467 . S
C1181 C302 1.468 . S
C1186 C448 1.459 . S
C1191 C468 1.458 . S
C1196 C562 1.467 . S
C1201 C61 1.468 . S
C1206 C489 1.456 . S
C1211 C321 1.467 . S
C1216 C509 1.458 . S
C1221 C21 1.466 . S
C1226 C529 1.456 . S
C1231 C361 1.466 . S
C1236 C549 1.456 . S
C1241 C101 1.467 . S
C1246 C569 1.456 . S
C1251 C589 1.458 . S
C1256 C441 1.467 . S
C1261 C609 1.456 . S
C1266 C141 1.467 . S
C1271 C401 1.468 . S
C1276 C629 1.456 . S
C1281 C9 0.561 . S
C1286 C89 0.561 . S
C1291 C29 0.566 . S
C1296 C109 0.566 . S
C1301 C49 0.561 . S
C1306 C129 0.561 . S
C1311 C149 0.561 . S
C1316 C69 0.561 . S
C1321 C248 0.566 . S
C1326 C168 0.566 . S
C1331 C268 0.566 . S
C1336 C188 0.566 . S
C1341 C208 0.561 . S
C1346 C288 0.561 . S
C1351 C228 0.566 . S
C1356 C308 0.566 . S
C1361 C329 0.566 . S
C1366 C409 0.566 . S
C1371 C429 0.561 . S
C1376 C349 0.561 . S
C1381 C449 0.566 . S
C1386 C369 0.566 . S
C1391 C469 0.561 . S
C1396 C389 0.561 . S
C1401 C568 0.561 . S
C1406 C488 0.561 . S
C1411 C508 0.561 . S
C1416 C588 0.561 . S
C1421 C608 0.561 . S
C1426 C528 0.561 . S
C1431 C548 0.561 . S
C1436 C628 0.561 . S
C1441 C158 1.996 . S
C1446 C18 1.995 . S
C1451 C38 1.996 . S
C1456 C98 1.996 . S
C1461 C58 1.995 . S
C1466 C118 1.995 . S
C1471 C138 1.996 . S
C1476 C78 1.996 . S
C1481 C179 1.995 . S
C1486 C319 1.995 . S
C1491 C259 1.995 . S
C1496 C199 1.995 . S
C1501 C279 1.996 . S
C1506 C219 1.995 . S
C1511 C239 1.995 . S
C1516 C299 1.995 . S
C1521 C338 1.995 . S
C1526 C478 1.995 . S
C1531 C418 1.996 . S
C1536 C358 1.996 . S
C1541 C438 1.996 . S
C1546 C378 1.996 . S
C1551 C458 1.995 . S
C1556 C398 1.995 . S
C1561 C499 1.995 . S
C1566 C639 1.996 . S
C1571 C579 1.995 . S
C1576 C519 1.995 . S
C1581 C539 1.995 . S
C1586 C599 1.995 . S
C1591 C619 1.995 . S
C1596 C559 1.995 . S
