# Generated by pormake.
# Topology wne, (6)-cn, num edge types: 1
# Building blocks:
#     Node 0, Type 0, BuildingBlock: UKALOJ_clean_sbu_0, # of connection points: 6
#     Node 1, Type 0, BuildingBlock: UKALOJ_clean_sbu_0, # of connection points: 6
#     Node 2, Type 0, BuildingBlock: UKALOJ_clean_sbu_0, # of connection points: 6
#     Node 3, Type 0, BuildingBlock: UKALOJ_clean_sbu_0, # of connection points: 6
#     Node 4, Type 0, BuildingBlock: UKALOJ_clean_sbu_0, # of connection points: 6
#     Node 5, Type 0, BuildingBlock: UKALOJ_clean_sbu_0, # of connection points: 6
#     Node 6, Type 0, BuildingBlock: UKALOJ_clean_sbu_0, # of connection points: 6
#     Node 7, Type 0, BuildingBlock: UKALOJ_clean_sbu_0, # of connection points: 6
#     Node 8, Type 0, BuildingBlock: UKALOJ_clean_sbu_0, # of connection points: 6
#     Node 9, Type 0, BuildingBlock: UKALOJ_clean_sbu_0, # of connection points: 6
#     Node 10, Type 0, BuildingBlock: UKALOJ_clean_sbu_0, # of connection points: 6
#     Node 11, Type 0, BuildingBlock: UKALOJ_clean_sbu_0, # of connection points: 6
#     Node 12, Type 0, BuildingBlock: UKALOJ_clean_sbu_0, # of connection points: 6
#     Node 13, Type 0, BuildingBlock: UKALOJ_clean_sbu_0, # of connection points: 6
#     Node 14, Type 0, BuildingBlock: UKALOJ_clean_sbu_0, # of connection points: 6
#     Node 15, Type 0, BuildingBlock: UKALOJ_clean_sbu_0, # of connection points: 6
#     Node 16, Type 0, BuildingBlock: UKALOJ_clean_sbu_0, # of connection points: 6
#     Node 17, Type 0, BuildingBlock: UKALOJ_clean_sbu_0, # of connection points: 6
#     Node 18, Type 0, BuildingBlock: UKALOJ_clean_sbu_0, # of connection points: 6
#     Node 19, Type 0, BuildingBlock: UKALOJ_clean_sbu_0, # of connection points: 6
#     Node 20, Type 0, BuildingBlock: UKALOJ_clean_sbu_0, # of connection points: 6
#     Node 21, Type 0, BuildingBlock: UKALOJ_clean_sbu_0, # of connection points: 6
#     Node 22, Type 0, BuildingBlock: UKALOJ_clean_sbu_0, # of connection points: 6
#     Node 23, Type 0, BuildingBlock: UKALOJ_clean_sbu_0, # of connection points: 6
#     Node 24, Type 0, BuildingBlock: UKALOJ_clean_sbu_0, # of connection points: 6
#     Node 25, Type 0, BuildingBlock: UKALOJ_clean_sbu_0, # of connection points: 6
#     Node 26, Type 0, BuildingBlock: UKALOJ_clean_sbu_0, # of connection points: 6
#     Node 27, Type 0, BuildingBlock: UKALOJ_clean_sbu_0, # of connection points: 6
#     Node 28, Type 0, BuildingBlock: UKALOJ_clean_sbu_0, # of connection points: 6
#     Node 29, Type 0, BuildingBlock: UKALOJ_clean_sbu_0, # of connection points: 6
#     Node 30, Type 0, BuildingBlock: UKALOJ_clean_sbu_0, # of connection points: 6
#     Node 31, Type 0, BuildingBlock: UKALOJ_clean_sbu_0, # of connection points: 6
#     Node 32, Type 0, BuildingBlock: UKALOJ_clean_sbu_0, # of connection points: 6
#     Node 33, Type 0, BuildingBlock: UKALOJ_clean_sbu_0, # of connection points: 6
#     Node 34, Type 0, BuildingBlock: UKALOJ_clean_sbu_0, # of connection points: 6
#     Node 35, Type 0, BuildingBlock: UKALOJ_clean_sbu_0, # of connection points: 6
#     Edge 36, Type (0, 0), BuildingBlock: OJICUG_clean_linker_0, # of connection points: 2
#     Edge 37, Type (0, 0), BuildingBlock: OJICUG_clean_linker_0, # of connection points: 2
#     Edge 38, Type (0, 0), BuildingBlock: OJICUG_clean_linker_0, # of connection points: 2
#     Edge 39, Type (0, 0), BuildingBlock: OJICUG_clean_linker_0, # of connection points: 2
#     Edge 40, Type (0, 0), BuildingBlock: OJICUG_clean_linker_0, # of connection points: 2
#     Edge 41, Type (0, 0), BuildingBlock: OJICUG_clean_linker_0, # of connection points: 2
#     Edge 42, Type (0, 0), BuildingBlock: OJICUG_clean_linker_0, # of connection points: 2
#     Edge 43, Type (0, 0), BuildingBlock: OJICUG_clean_linker_0, # of connection points: 2
#     Edge 44, Type (0, 0), BuildingBlock: OJICUG_clean_linker_0, # of connection points: 2
#     Edge 45, Type (0, 0), BuildingBlock: OJICUG_clean_linker_0, # of connection points: 2
#     Edge 46, Type (0, 0), BuildingBlock: OJICUG_clean_linker_0, # of connection points: 2
#     Edge 47, Type (0, 0), BuildingBlock: OJICUG_clean_linker_0, # of connection points: 2
#     Edge 48, Type (0, 0), BuildingBlock: OJICUG_clean_linker_0, # of connection points: 2
#     Edge 49, Type (0, 0), BuildingBlock: OJICUG_clean_linker_0, # of connection points: 2
#     Edge 50, Type (0, 0), BuildingBlock: OJICUG_clean_linker_0, # of connection points: 2
#     Edge 51, Type (0, 0), BuildingBlock: OJICUG_clean_linker_0, # of connection points: 2
#     Edge 52, Type (0, 0), BuildingBlock: OJICUG_clean_linker_0, # of connection points: 2
#     Edge 53, Type (0, 0), BuildingBlock: OJICUG_clean_linker_0, # of connection points: 2
#     Edge 54, Type (0, 0), BuildingBlock: OJICUG_clean_linker_0, # of connection points: 2
#     Edge 55, Type (0, 0), BuildingBlock: OJICUG_clean_linker_0, # of connection points: 2
#     Edge 56, Type (0, 0), BuildingBlock: OJICUG_clean_linker_0, # of connection points: 2
#     Edge 57, Type (0, 0), BuildingBlock: OJICUG_clean_linker_0, # of connection points: 2
#     Edge 58, Type (0, 0), BuildingBlock: OJICUG_clean_linker_0, # of connection points: 2
#     Edge 59, Type (0, 0), BuildingBlock: OJICUG_clean_linker_0, # of connection points: 2
#     Edge 60, Type (0, 0), BuildingBlock: OJICUG_clean_linker_0, # of connection points: 2
#     Edge 61, Type (0, 0), BuildingBlock: OJICUG_clean_linker_0, # of connection points: 2
#     Edge 62, Type (0, 0), BuildingBlock: OJICUG_clean_linker_0, # of connection points: 2
#     Edge 63, Type (0, 0), BuildingBlock: OJICUG_clean_linker_0, # of connection points: 2
#     Edge 64, Type (0, 0), BuildingBlock: OJICUG_clean_linker_0, # of connection points: 2
#     Edge 65, Type (0, 0), BuildingBlock: OJICUG_clean_linker_0, # of connection points: 2
#     Edge 66, Type (0, 0), BuildingBlock: OJICUG_clean_linker_0, # of connection points: 2
#     Edge 67, Type (0, 0), BuildingBlock: OJICUG_clean_linker_0, # of connection points: 2
#     Edge 68, Type (0, 0), BuildingBlock: OJICUG_clean_linker_0, # of connection points: 2
#     Edge 69, Type (0, 0), BuildingBlock: OJICUG_clean_linker_0, # of connection points: 2
#     Edge 70, Type (0, 0), BuildingBlock: OJICUG_clean_linker_0, # of connection points: 2
#     Edge 71, Type (0, 0), BuildingBlock: OJICUG_clean_linker_0, # of connection points: 2
#     Edge 72, Type (0, 0), BuildingBlock: OJICUG_clean_linker_0, # of connection points: 2
#     Edge 73, Type (0, 0), BuildingBlock: OJICUG_clean_linker_0, # of connection points: 2
#     Edge 74, Type (0, 0), BuildingBlock: OJICUG_clean_linker_0, # of connection points: 2
#     Edge 75, Type (0, 0), BuildingBlock: OJICUG_clean_linker_0, # of connection points: 2
#     Edge 76, Type (0, 0), BuildingBlock: OJICUG_clean_linker_0, # of connection points: 2
#     Edge 77, Type (0, 0), BuildingBlock: OJICUG_clean_linker_0, # of connection points: 2
#     Edge 78, Type (0, 0), BuildingBlock: OJICUG_clean_linker_0, # of connection points: 2
#     Edge 79, Type (0, 0), BuildingBlock: OJICUG_clean_linker_0, # of connection points: 2
#     Edge 80, Type (0, 0), BuildingBlock: OJICUG_clean_linker_0, # of connection points: 2
#     Edge 81, Type (0, 0), BuildingBlock: OJICUG_clean_linker_0, # of connection points: 2
#     Edge 82, Type (0, 0), BuildingBlock: OJICUG_clean_linker_0, # of connection points: 2
#     Edge 83, Type (0, 0), BuildingBlock: OJICUG_clean_linker_0, # of connection points: 2
#     Edge 84, Type (0, 0), BuildingBlock: OJICUG_clean_linker_0, # of connection points: 2
#     Edge 85, Type (0, 0), BuildingBlock: OJICUG_clean_linker_0, # of connection points: 2
#     Edge 86, Type (0, 0), BuildingBlock: OJICUG_clean_linker_0, # of connection points: 2
#     Edge 87, Type (0, 0), BuildingBlock: OJICUG_clean_linker_0, # of connection points: 2
#     Edge 88, Type (0, 0), BuildingBlock: OJICUG_clean_linker_0, # of connection points: 2
#     Edge 89, Type (0, 0), BuildingBlock: OJICUG_clean_linker_0, # of connection points: 2
#     Edge 90, Type (0, 0), BuildingBlock: OJICUG_clean_linker_0, # of connection points: 2
#     Edge 91, Type (0, 0), BuildingBlock: OJICUG_clean_linker_0, # of connection points: 2
#     Edge 92, Type (0, 0), BuildingBlock: OJICUG_clean_linker_0, # of connection points: 2
#     Edge 93, Type (0, 0), BuildingBlock: OJICUG_clean_linker_0, # of connection points: 2
#     Edge 94, Type (0, 0), BuildingBlock: OJICUG_clean_linker_0, # of connection points: 2
#     Edge 95, Type (0, 0), BuildingBlock: OJICUG_clean_linker_0, # of connection points: 2
#     Edge 96, Type (0, 0), BuildingBlock: OJICUG_clean_linker_0, # of connection points: 2
#     Edge 97, Type (0, 0), BuildingBlock: OJICUG_clean_linker_0, # of connection points: 2
#     Edge 98, Type (0, 0), BuildingBlock: OJICUG_clean_linker_0, # of connection points: 2
#     Edge 99, Type (0, 0), BuildingBlock: OJICUG_clean_linker_0, # of connection points: 2
#     Edge 100, Type (0, 0), BuildingBlock: OJICUG_clean_linker_0, # of connection points: 2
#     Edge 101, Type (0, 0), BuildingBlock: OJICUG_clean_linker_0, # of connection points: 2
#     Edge 102, Type (0, 0), BuildingBlock: OJICUG_clean_linker_0, # of connection points: 2
#     Edge 103, Type (0, 0), BuildingBlock: OJICUG_clean_linker_0, # of connection points: 2
#     Edge 104, Type (0, 0), BuildingBlock: OJICUG_clean_linker_0, # of connection points: 2
#     Edge 105, Type (0, 0), BuildingBlock: OJICUG_clean_linker_0, # of connection points: 2
#     Edge 106, Type (0, 0), BuildingBlock: OJICUG_clean_linker_0, # of connection points: 2
#     Edge 107, Type (0, 0), BuildingBlock: OJICUG_clean_linker_0, # of connection points: 2
#     Edge 108, Type (0, 0), BuildingBlock: OJICUG_clean_linker_0, # of connection points: 2
#     Edge 109, Type (0, 0), BuildingBlock: OJICUG_clean_linker_0, # of connection points: 2
#     Edge 110, Type (0, 0), BuildingBlock: OJICUG_clean_linker_0, # of connection points: 2
#     Edge 111, Type (0, 0), BuildingBlock: OJICUG_clean_linker_0, # of connection points: 2
#     Edge 112, Type (0, 0), BuildingBlock: OJICUG_clean_linker_0, # of connection points: 2
#     Edge 113, Type (0, 0), BuildingBlock: OJICUG_clean_linker_0, # of connection points: 2
#     Edge 114, Type (0, 0), BuildingBlock: OJICUG_clean_linker_0, # of connection points: 2
#     Edge 115, Type (0, 0), BuildingBlock: OJICUG_clean_linker_0, # of connection points: 2
#     Edge 116, Type (0, 0), BuildingBlock: OJICUG_clean_linker_0, # of connection points: 2
#     Edge 117, Type (0, 0), BuildingBlock: OJICUG_clean_linker_0, # of connection points: 2
#     Edge 118, Type (0, 0), BuildingBlock: OJICUG_clean_linker_0, # of connection points: 2
#     Edge 119, Type (0, 0), BuildingBlock: OJICUG_clean_linker_0, # of connection points: 2
#     Edge 120, Type (0, 0), BuildingBlock: OJICUG_clean_linker_0, # of connection points: 2
#     Edge 121, Type (0, 0), BuildingBlock: OJICUG_clean_linker_0, # of connection points: 2
#     Edge 122, Type (0, 0), BuildingBlock: OJICUG_clean_linker_0, # of connection points: 2
#     Edge 123, Type (0, 0), BuildingBlock: OJICUG_clean_linker_0, # of connection points: 2
#     Edge 124, Type (0, 0), BuildingBlock: OJICUG_clean_linker_0, # of connection points: 2
#     Edge 125, Type (0, 0), BuildingBlock: OJICUG_clean_linker_0, # of connection points: 2
#     Edge 126, Type (0, 0), BuildingBlock: OJICUG_clean_linker_0, # of connection points: 2
#     Edge 127, Type (0, 0), BuildingBlock: OJICUG_clean_linker_0, # of connection points: 2
#     Edge 128, Type (0, 0), BuildingBlock: OJICUG_clean_linker_0, # of connection points: 2
#     Edge 129, Type (0, 0), BuildingBlock: OJICUG_clean_linker_0, # of connection points: 2
#     Edge 130, Type (0, 0), BuildingBlock: OJICUG_clean_linker_0, # of connection points: 2
#     Edge 131, Type (0, 0), BuildingBlock: OJICUG_clean_linker_0, # of connection points: 2
#     Edge 132, Type (0, 0), BuildingBlock: OJICUG_clean_linker_0, # of connection points: 2
#     Edge 133, Type (0, 0), BuildingBlock: OJICUG_clean_linker_0, # of connection points: 2
#     Edge 134, Type (0, 0), BuildingBlock: OJICUG_clean_linker_0, # of connection points: 2
#     Edge 135, Type (0, 0), BuildingBlock: OJICUG_clean_linker_0, # of connection points: 2
#     Edge 136, Type (0, 0), BuildingBlock: OJICUG_clean_linker_0, # of connection points: 2
#     Edge 137, Type (0, 0), BuildingBlock: OJICUG_clean_linker_0, # of connection points: 2
#     Edge 138, Type (0, 0), BuildingBlock: OJICUG_clean_linker_0, # of connection points: 2
#     Edge 139, Type (0, 0), BuildingBlock: OJICUG_clean_linker_0, # of connection points: 2
#     Edge 140, Type (0, 0), BuildingBlock: OJICUG_clean_linker_0, # of connection points: 2
#     Edge 141, Type (0, 0), BuildingBlock: OJICUG_clean_linker_0, # of connection points: 2
#     Edge 142, Type (0, 0), BuildingBlock: OJICUG_clean_linker_0, # of connection points: 2
#     Edge 143, Type (0, 0), BuildingBlock: OJICUG_clean_linker_0, # of connection points: 2
# Relax obj value: 0.239
# Max RMSD: 0.190
# Mean RMSD: 0.190
data_MOF--net-wne--node1-UKALOJ_clean_sbu_0--edge1-OJICUG_clean_linker_0
_symmetry_space_group_name_H-M    P1
_symmetry_Int_Tables_number       1
_symmetry_cell_setting            triclinic
loop_
_symmetry_equiv_pos_as_xyz
'x, y, z'
_cell_length_a     55.624381
_cell_length_b     55.634382
_cell_length_c     28.308015
_cell_angle_alpha  89.919059
_cell_angle_beta   90.038742
_cell_angle_gamma 119.97762
loop_
_atom_site_label
_atom_site_type_symbol
_atom_site_fract_x
_atom_site_fract_y
_atom_site_fract_z
_atom_type_partial_charge
Zn0 Zn 0.24484 0.22364 0.06229 0.0
O1 O 0.25766 0.26618 0.07294 0.0
C2 C 0.23244 0.21162 0.16916 0.0
Zn3 Zn 0.28067 0.22893 0.10509 0.0
C4 C 0.27901 0.28076 0.098 0.0
O5 O 0.29167 0.26967 0.11717 0.0
C6 C 0.24805 0.17057 0.06772 0.0
O7 O 0.306 0.24265 0.04516 0.0
O8 O 0.27277 0.23693 0.99701 0.0
N9 N 0.31314 0.23489 0.1441 0.0
C10 C 0.33106 0.22599 0.1355 0.0
C11 C 0.33128 0.23242 0.20942 0.0
N12 N 0.31399 0.23992 0.18988 0.0
N13 N 0.34194 0.22312 0.17609 0.0
C14 C 0.19304 0.22944 0.03172 0.0
C15 C 0.1741 0.19891 0.97797 0.0
N16 N 0.20938 0.21799 0.02537 0.0
N17 N 0.19739 0.19898 0.99194 0.0
N18 N 0.17081 0.21788 1.00233 0.0
H19 H 0.20769 0.24754 0.10056 0.0
H20 H 0.21171 0.27158 0.05458 0.0
H21 H 0.17793 0.24916 0.07955 0.0
C22 C 0.19777 0.25051 0.06894 0.0
C23 C 0.33593 0.21722 0.08777 0.0
H24 H 0.34754 0.23596 0.06549 0.0
H25 H 0.34849 0.20686 0.08999 0.0
H26 H 0.31625 0.20323 0.06961 0.0
O27 O 0.26907 0.1867 0.09247 0.0
O28 O 0.23317 0.18 0.05037 0.0
C29 C 0.29858 0.24485 1.00391 0.0
O30 O 0.22073 0.21274 0.13084 0.0
O31 O 0.25715 0.21655 0.16694 0.0
Zn32 Zn 0.78634 0.05366 0.10069 0.0
O33 O 0.7705 0.06354 0.04128 0.0
C34 C 0.84526 0.08004 0.061 0.0
Zn35 Zn 0.79326 0.02465 0.05675 0.0
C36 C 0.77044 0.05591 0.99925 0.0
O37 O 0.7805 0.03986 0.99154 0.0
C38 C 0.80519 0.02429 0.16477 0.0
O39 O 0.75106 0.99569 0.06674 0.0
O40 O 0.74566 0.02285 0.11672 0.0
N41 N 0.79721 0.99431 0.01801 0.0
C42 C 0.79147 0.96814 0.02874 0.0
C43 C 0.80305 0.97484 0.95627 0.0
N44 N 0.80445 0.99826 0.97288 0.0
N45 N 0.7951 0.95551 0.9906 0.0
C46 C 0.79355 0.10897 0.13018 0.0
C47 C 0.78212 0.10197 0.20269 0.0
N48 N 0.78154 0.08156 0.13803 0.0
N49 N 0.77364 0.07704 0.18278 0.0
N50 N 0.79481 0.12235 0.1704 0.0
H51 H 0.80417 0.10975 0.05541 0.0
H52 H 0.80308 0.13957 0.07616 0.0
H53 H 0.83144 0.13475 0.09229 0.0
C54 C 0.80873 0.12368 0.08576 0.0
C55 C 0.78055 0.95438 0.07554 0.0
H56 H 0.76826 0.96257 0.09278 0.0
H57 H 0.76748 0.93157 0.07141 0.0
H58 H 0.79833 0.95872 0.09882 0.0
O59 O 0.80369 0.01113 0.12654 0.0
O60 O 0.8005 0.04424 0.16225 0.0
C61 C 0.7358 1.00003 0.09458 0.0
O62 O 0.82836 0.08449 0.08439 0.0
O63 O 0.83678 0.05569 0.04484 0.0
Zn64 Zn 0.9937 0.77307 0.0567 0.0
O65 O 0.02197 0.75912 0.0664 0.0
C66 C 0.99369 0.78579 0.16348 0.0
Zn67 Zn 0.96393 0.73742 0.09973 0.0
C68 C 0.01754 0.74003 0.0955 0.0
O69 O 0.99488 0.72794 0.11833 0.0
C70 C 0.93842 0.7703 0.0582 0.0
O71 O 0.95484 0.71117 0.04172 0.0
O72 O 0.9779 0.74497 0.99168 0.0
N73 N 0.93613 0.70517 0.13811 0.0
C74 C 0.90884 0.68899 0.13022 0.0
C75 C 0.91579 0.68619 0.20336 0.0
N76 N 0.94064 0.7028 0.18333 0.0
N77 N 0.89546 0.67738 0.17076 0.0
C78 C 0.05062 0.82714 0.02917 0.0
C79 C 0.0447 0.83228 0.95641 0.0
N80 N 0.02445 0.80699 0.0179 0.0
N81 N 0.02098 0.8104 0.97259 0.0
N82 N 0.06372 0.84338 0.99122 0.0
H83 H 0.05592 0.80904 0.09293 0.0
H84 H 0.08684 0.83977 0.07285 0.0
H85 H 0.05906 0.84262 0.09975 0.0
C86 C 0.06396 0.82968 0.07629 0.0
C87 C 0.89416 0.68763 0.08475 0.0
H88 H 0.9083 0.69866 0.05526 0.0
H89 H 0.88079 0.66558 0.07454 0.0
H90 H 0.8803 0.69635 0.09028 0.0
O91 O 0.93278 0.74801 0.07987 0.0
O92 O 0.96347 0.78661 0.04554 0.0
C93 C 0.96232 0.7188 0.99964 0.0
O94 O 1.00774 0.79684 0.12573 0.0
O95 O 0.9727 0.76178 0.16051 0.0
Zn96 Zn 0.22798 0.24161 0.46826 0.0
O97 O 0.27048 0.25571 0.45532 0.0
C98 C 0.21367 0.22832 0.36297 0.0
Zn99 Zn 0.23151 0.27698 0.42676 0.0
C100 C 0.28395 0.27636 0.42814 0.0
O101 O 0.27179 0.288 0.40894 0.0
C102 C 0.17431 0.24336 0.46881 0.0
O103 O 0.24792 0.3034 0.48442 0.0
O104 O 0.24154 0.27016 0.53296 0.0
N105 N 0.23511 0.30866 0.38799 0.0
C106 C 0.22365 0.32454 0.39548 0.0
C107 C 0.23382 0.32749 0.32251 0.0
N108 N 0.24228 0.31114 0.34293 0.0
N109 N 0.22189 0.33602 0.35476 0.0
C110 C 0.23062 0.18744 0.49586 0.0
C111 C 0.21913 0.18229 0.56839 0.0
N112 N 0.22513 0.20795 0.50704 0.0
N113 N 0.21794 0.20452 0.55219 0.0
N114 N 0.22683 0.17093 0.53373 0.0
H115 H 0.25447 0.17494 0.45274 0.0
H116 H 0.22352 0.17128 0.42574 0.0
H117 H 0.25362 0.20519 0.43163 0.0
C118 C 0.24137 0.18469 0.44886 0.0
C119 C 0.20992 0.32562 0.44062 0.0
H120 H 0.2131 0.31474 0.47032 0.0
H121 H 0.2182 0.34762 0.45079 0.0
H122 H 0.18733 0.31655 0.43465 0.0
O123 O 0.19 0.26543 0.44598 0.0
O124 O 0.18406 0.22792 0.48187 0.0
C125 C 0.25004 0.29606 0.52571 0.0
O126 O 0.21703 0.21736 0.40046 0.0
O127 O 0.2166 0.2523 0.366 0.0
Zn128 Zn 0.77548 0.98915 0.46774 0.0
O129 O 0.76196 0.01784 0.45759 0.0
C130 C 0.78807 0.98983 0.35991 0.0
Zn131 Zn 0.73974 0.96004 0.42362 0.0
C132 C 0.74237 0.01345 0.42964 0.0
O133 O 0.72952 0.99064 0.40741 0.0
C134 C 0.77281 0.93418 0.46341 0.0
O135 O 0.71379 0.9499 0.48283 0.0
O136 O 0.74738 0.97364 0.53273 0.0
N137 N 0.70736 0.93188 0.38599 0.0
C138 C 0.69233 0.90445 0.39397 0.0
C139 C 0.68835 0.91112 0.32108 0.0
N140 N 0.70427 0.93617 0.34097 0.0
N141 N 0.68071 0.89089 0.35363 0.0
C142 C 0.82983 0.04566 0.4965 0.0
C143 C 0.83439 0.03878 0.56906 0.0
N144 N 0.80942 0.01946 0.50693 0.0
N145 N 0.8125 0.01539 0.55211 0.0
N146 N 0.84588 0.0582 0.53489 0.0
H147 H 0.81241 0.0514 0.43229 0.0
H148 H 0.84259 0.08232 0.45398 0.0
H149 H 0.84631 0.05519 0.42659 0.0
C150 C 0.83283 0.05952 0.44973 0.0
C151 C 0.69274 0.88997 0.43877 0.0
H152 H 0.70211 0.90403 0.46896 0.0
H153 H 0.67119 0.87418 0.4484 0.0
H154 H 0.70434 0.87881 0.43272 0.0
O155 O 0.75138 0.9295 0.43999 0.0
O156 O 0.78841 0.95853 0.47971 0.0
C157 C 0.7213 0.95749 0.52491 0.0
O158 O 0.7996 1.00298 0.39822 0.0
O159 O 0.76349 0.96975 0.36228 0.0
Zn160 Zn 0.02763 0.78923 0.46608 0.0
O161 O 0.99849 0.74657 0.4542 0.0
C162 C 0.02872 0.80208 0.3584 0.0
Zn163 Zn 0.05852 0.78445 0.42393 0.0
C164 C 1.00536 0.73252 0.42792 0.0
O165 O 0.02909 0.7441 0.40868 0.0
C166 C 0.08361 0.84246 0.46349 0.0
O167 O 0.06826 0.76912 0.48388 0.0
O168 O 0.04168 0.77596 0.53221 0.0
N169 N 0.08635 0.77932 0.3878 0.0
C170 C 0.11362 0.79085 0.39613 0.0
C171 C 0.10663 0.77785 0.32437 0.0
N172 N 0.08177 0.77037 0.34365 0.0
N173 N 0.12698 0.79093 0.35656 0.0
C174 C 0.96933 0.78233 0.49597 0.0
C175 C 0.98055 0.81249 0.55026 0.0
N176 N 0.99716 0.79414 0.50221 0.0
N177 N 1.00393 0.81289 0.53603 0.0
N178 N 0.95839 0.79341 0.52582 0.0
H179 H 0.96626 0.76467 0.42695 0.0
H180 H 0.94628 0.7403 0.47262 0.0
H181 H 0.9346 0.76254 0.44798 0.0
C182 C 0.95321 0.76138 0.45851 0.0
C183 C 0.12835 0.80695 0.43986 0.0
H184 H 0.11444 0.80288 0.47012 0.0
H185 H 0.14439 0.8017 0.45037 0.0
H186 H 0.13918 0.82952 0.432 0.0
O187 O 0.08879 0.8263 0.43953 0.0
O188 O 0.05901 0.8331 0.47931 0.0
C189 C 0.05901 0.76736 0.52522 0.0
O190 O 0.0151 0.80008 0.39625 0.0
O191 O 0.04908 0.79802 0.36145 0.0
Zn192 Zn 0.77619 0.78976 0.96404 0.0
O193 O 0.7632 0.74718 0.95283 0.0
C194 C 0.7885 0.8021 0.85714 0.0
Zn195 Zn 0.7403 0.78478 0.92169 0.0
C196 C 0.74173 0.73274 0.92794 0.0
O197 O 0.72911 0.74401 0.90922 0.0
C198 C 0.77317 0.84308 0.95941 0.0
O199 O 0.71491 0.77101 0.98161 0.0
O200 O 0.74817 0.77629 0.02931 0.0
N201 N 0.70791 0.77909 0.88275 0.0
C202 C 0.69027 0.78835 0.89129 0.0
C203 C 0.68994 0.7818 0.81739 0.0
N204 N 0.70699 0.77399 0.83698 0.0
N205 N 0.67952 0.79137 0.85066 0.0
C206 C 0.82771 0.78336 0.9953 0.0
C207 C 0.84639 0.81359 0.04953 0.0
N208 N 0.81151 0.79502 1.00124 0.0
N209 N 0.82334 0.81382 0.03501 0.0
N210 N 0.84968 0.79458 0.02529 0.0
H211 H 0.81348 0.76567 0.92613 0.0
H212 H 0.80897 0.74132 0.97193 0.0
H213 H 0.84297 0.76367 0.94773 0.0
C214 C 0.82312 0.76243 0.95792 0.0
C215 C 0.68543 0.79713 0.93902 0.0
H216 H 0.67358 0.77836 0.96114 0.0
H217 H 0.67311 0.80774 0.93676 0.0
H218 H 0.70509 0.81088 0.95741 0.0
O219 O 0.75211 0.82702 0.93465 0.0
O220 O 0.78802 0.83353 0.97652 0.0
C221 C 0.72238 0.76858 0.0227 0.0
O222 O 0.80032 0.80083 0.89526 0.0
O223 O 0.76381 0.79723 0.85977 0.0
Zn224 Zn 0.22839 0.98968 0.96949 0.0
O225 O 0.27065 0.01874 0.9603 0.0
C226 C 0.21656 0.99062 0.86158 0.0
Zn227 Zn 0.23529 0.96103 0.92487 0.0
C228 C 0.28586 0.01462 0.932 0.0
O229 O 0.2759 0.99206 0.9091 0.0
C230 C 0.17631 0.93429 0.96437 0.0
O231 O 0.25128 0.95104 0.98381 0.0
O232 O 0.24088 0.97406 0.03432 0.0
N233 N 0.24065 0.93373 0.88707 0.0
C234 C 0.22917 0.90636 0.89449 0.0
C235 C 0.24138 0.91405 0.82238 0.0
N236 N 0.24907 0.93872 0.84261 0.0
N237 N 0.22868 0.89339 0.85419 0.0
C238 C 0.23002 0.04586 0.99831 0.0
C239 C 0.21825 0.03883 0.07069 0.0
N240 N 0.22427 0.01967 1.00873 0.0
N241 N 0.21691 0.01549 0.0538 0.0
N242 N 0.22627 0.05829 0.03658 0.0
H243 H 0.25354 0.05185 0.93449 0.0
H244 H 0.25404 0.08265 0.95613 0.0
H245 H 0.22338 0.05552 0.92826 0.0
C246 C 0.24108 0.05985 0.95171 0.0
C247 C 0.21362 0.89119 0.93839 0.0
H248 H 0.21772 0.90486 0.96899 0.0
H249 H 0.21939 0.87539 0.94799 0.0
H250 H 0.19097 0.88001 0.93119 0.0
O251 O 0.19319 0.92982 0.94091 0.0
O252 O 0.18486 0.9586 0.98072 0.0
C253 C 0.25119 0.95829 0.02602 0.0
O254 O 0.21823 1.00368 0.90001 0.0
O255 O 0.22104 0.97053 0.86368 0.0
Zn256 Zn 0.02759 0.24151 0.96776 0.0
O257 O 0.99947 0.25586 0.95428 0.0
C258 C 0.02853 0.22787 0.86254 0.0
Zn259 Zn 0.05943 0.27667 0.92591 0.0
C260 C 1.00659 0.27632 0.92669 0.0
O261 O 0.03033 0.2878 0.90738 0.0
C262 C 0.08283 0.243 0.9689 0.0
O263 O 0.06945 0.30332 0.98326 0.0
O264 O 0.04273 0.27027 0.03215 0.0
N265 N 0.08769 0.30816 0.88714 0.0
C266 C 0.11499 0.32416 0.89505 0.0
C267 C 0.10808 0.32705 0.82189 0.0
N268 N 0.0832 0.31059 0.84193 0.0
N269 N 0.12838 0.33573 0.85453 0.0
C270 C 0.97041 0.18779 0.99549 0.0
C271 C 0.97612 0.18328 0.06861 0.0
N272 N 0.99644 0.20818 1.00682 0.0
N273 N 0.99979 0.20515 0.05234 0.0
N274 N 0.95726 0.17178 0.03364 0.0
H275 H 0.96548 0.20522 0.9306 0.0
H276 H 0.93438 0.17484 0.9512 0.0
H277 H 0.96212 0.17146 0.92546 0.0
C278 C 0.95726 0.18477 0.94803 0.0
C279 C 0.12962 0.32534 0.94051 0.0
H280 H 0.11548 0.31418 0.96993 0.0
H281 H 0.14296 0.34736 0.95095 0.0
H282 H 0.1435 0.31666 0.93482 0.0
O283 O 0.08921 0.26499 0.9458 0.0
O284 O 0.05764 0.2276 0.98194 0.0
C285 C 0.06012 0.29613 0.02463 0.0
O286 O 0.0142 0.21708 0.90006 0.0
O287 O 0.04968 0.2518 0.86545 0.0
Zn288 Zn 0.78721 0.73752 0.59941 0.0
O289 O 0.76968 0.71123 0.54178 0.0
C290 C 0.8455 0.76931 0.55799 0.0
Zn291 Zn 0.79357 0.77307 0.55597 0.0
C292 C 0.77013 0.71871 0.49952 0.0
O293 O 0.78105 0.74487 0.49115 0.0
C294 C 0.80672 0.78602 0.66256 0.0
O295 O 0.75152 0.75993 0.5652 0.0
O296 O 0.74718 0.72907 0.61798 0.0
N297 N 0.79742 0.80711 0.51699 0.0
C298 C 0.79161 0.82742 0.52806 0.0
C299 C 0.80294 0.8325 0.45544 0.0
N300 N 0.80448 0.81048 0.47177 0.0
N301 N 0.79506 0.84373 0.49008 0.0
C302 C 0.79191 0.68815 0.63079 0.0
C303 C 0.78105 0.68518 0.7034 0.0
N304 N 0.78157 0.70503 0.63806 0.0
N305 N 0.77392 0.70254 0.68286 0.0
N306 N 0.79263 0.67605 0.6715 0.0
H307 H 0.80268 0.69738 0.55594 0.0
H308 H 0.79783 0.66477 0.5765 0.0
H309 H 0.82847 0.69615 0.59244 0.0
C310 C 0.80588 0.68681 0.58612 0.0
C311 C 0.78073 0.83009 0.575 0.0
H312 H 0.76811 0.80953 0.59182 0.0
H313 H 0.76794 0.84017 0.57121 0.0
H314 H 0.79853 0.84312 0.5985 0.0
O315 O 0.80369 0.79704 0.6248 0.0
O316 O 0.80332 0.76186 0.65983 0.0
C317 C 0.7368 0.74124 0.59482 0.0
O318 O 0.82868 0.7471 0.5797 0.0
O319 O 0.83704 0.78584 0.54523 0.0
Zn320 Zn 0.28163 0.05524 0.60073 0.0
O321 O 0.30681 0.06599 0.54088 0.0
C322 C 0.24768 0.07964 0.56193 0.0
Zn323 Zn 0.24547 0.02425 0.55913 0.0
C324 C 0.2992 0.05641 0.49977 0.0
O325 O 0.27333 0.03866 0.49336 0.0
C326 C 0.23384 0.02489 0.66644 0.0
O327 O 0.25907 0.99533 0.57168 0.0
O328 O 0.29352 0.02628 0.61479 0.0
N329 N 0.21122 0.9935 0.52106 0.0
C330 C 0.19076 0.96744 0.53221 0.0
C331 C 0.1857 0.97382 0.45963 0.0
N332 N 0.20782 0.99726 0.47588 0.0
N333 N 0.17436 0.95468 0.49426 0.0
C334 C 0.32904 0.1111 0.6293 0.0
C335 C 0.33485 0.10435 0.70135 0.0
N336 N 0.31415 0.08369 0.63737 0.0
N337 N 0.31837 0.07933 0.68179 0.0
N338 N 0.34172 0.12461 0.66911 0.0
H339 H 0.31783 0.11167 0.55515 0.0
H340 H 0.34862 0.14193 0.57506 0.0
H341 H 0.31536 0.13613 0.59305 0.0
C342 C 0.32742 0.12562 0.58542 0.0
C343 C 0.18798 0.95395 0.57926 0.0
H344 H 0.20845 0.96238 0.59668 0.0
H345 H 0.17841 0.93113 0.57544 0.0
H346 H 0.17439 0.95824 0.6022 0.0
O347 O 0.22175 0.01157 0.6286 0.0
O348 O 0.2585 0.04479 0.66321 0.0
C349 C 0.28063 1.00233 0.59638 0.0
O350 O 0.26897 0.08471 0.58597 0.0
O351 O 0.23261 0.05521 0.54535 0.0
Zn352 Zn 0.96224 0.2287 0.60433 0.0
O353 O 0.95065 0.24247 0.54435 0.0
C354 C 0.93644 0.17035 0.56681 0.0
Zn355 Zn 0.99277 0.22334 0.56173 0.0
C356 C 0.9603 0.24464 0.50315 0.0
O357 O 0.97819 0.23671 0.49641 0.0
C358 C 0.99308 0.21125 0.6686 0.0
O359 O 0.02254 0.26585 0.57253 0.0
O360 O 0.99202 0.2694 0.61655 0.0
N361 N 0.02257 0.21772 0.52486 0.0
C362 C 0.05036 0.22921 0.53126 0.0
C363 C 0.03885 0.19885 0.47724 0.0
N364 N 0.0156 0.19881 0.49126 0.0
N365 N 0.06108 0.21778 0.50172 0.0
C366 C 0.90901 0.22582 0.63495 0.0
C367 C 0.91546 0.23244 0.7088 0.0
N368 N 0.93585 0.23477 0.64335 0.0
N369 N 0.94019 0.23994 0.68908 0.0
N370 N 0.89538 0.22299 0.67564 0.0
H371 H 0.90245 0.23573 0.56489 0.0
H372 H 0.87234 0.20684 0.58964 0.0
H373 H 0.90074 0.20288 0.56921 0.0
C374 C 0.89524 0.21703 0.5873 0.0
C375 C 0.06666 0.25018 0.56864 0.0
H376 H 0.05376 0.24712 0.60026 0.0
H377 H 0.07378 0.27128 0.55445 0.0
H378 H 0.08516 0.24882 0.57922 0.0
O379 O 1.00592 0.21234 0.63034 0.0
O380 O 0.97333 0.21624 0.66625 0.0
C381 C 0.0158 0.28045 0.59757 0.0
O382 O 0.93156 0.18649 0.59158 0.0
O383 O 0.96076 0.17975 0.54963 0.0
Zn384 Zn 0.94686 0.56167 0.43545 0.0
O385 O 0.97203 0.57651 0.3757 0.0
C386 C 0.91386 0.50362 0.39658 0.0
Zn387 Zn 0.91137 0.55703 0.39279 0.0
C388 C 0.96475 0.57854 0.33432 0.0
O389 O 0.93891 0.5703 0.3271 0.0
C390 C 0.89925 0.54443 0.50019 0.0
O391 O 0.92483 0.59968 0.40434 0.0
O392 O 0.95798 0.60221 0.44982 0.0
N393 N 0.87613 0.55207 0.35619 0.0
C394 C 0.86008 0.56386 0.36226 0.0
C395 C 0.84121 0.53363 0.30804 0.0
N396 N 0.8642 0.53328 0.32243 0.0
N397 N 0.83808 0.55271 0.33235 0.0
C398 C 0.99534 0.55518 0.46464 0.0
C399 C 1.00124 0.56863 0.53614 0.0
N400 N 0.97963 0.56682 0.47227 0.0
N401 N 0.98392 0.57603 0.51626 0.0
N402 N 1.00856 0.55536 0.50449 0.0
H403 H 0.98417 0.54263 0.3908 0.0
H404 H 0.01528 0.54392 0.41109 0.0
H405 H 0.98223 0.51625 0.42968 0.0
C406 C 0.99398 0.53876 0.42137 0.0
C407 C 0.86486 0.58485 0.39961 0.0
H408 H 0.87457 0.58161 0.4313 0.0
H409 H 0.87902 0.60592 0.38548 0.0
H410 H 0.84507 0.5837 0.40997 0.0
O411 O 0.88774 0.54628 0.46208 0.0
O412 O 0.92371 0.54855 0.49765 0.0
C413 C 0.94583 0.61378 0.43045 0.0
O414 O 0.9351 0.51972 0.4208 0.0
O415 O 0.89888 0.51312 0.37999 0.0
Zn416 Zn 0.45489 0.38834 0.43627 0.0
O417 O 0.44013 0.39924 0.37697 0.0
C418 C 0.51301 0.4123 0.39663 0.0
Zn419 Zn 0.45945 0.35717 0.3941 0.0
C420 C 0.43783 0.38967 0.33579 0.0
O421 O 0.44585 0.37189 0.32887 0.0
C422 C 0.47215 0.35751 0.50119 0.0
O423 O 0.41689 0.32859 0.40704 0.0
O424 O 0.41405 0.35965 0.45091 0.0
N425 N 0.46248 0.3263 0.35541 0.0
C426 C 0.45693 0.3002 0.36618 0.0
C427 C 0.46806 0.30679 0.2935 0.0
N428 N 0.46945 0.33019 0.31016 0.0
N429 N 0.46041 0.28754 0.32791 0.0
C430 C 0.46398 0.44443 0.46477 0.0
C431 C 0.45221 0.43812 0.53719 0.0
N432 N 0.45147 0.41706 0.47325 0.0
N433 N 0.44339 0.41297 0.51792 0.0
N434 N 0.46524 0.45817 0.50451 0.0
H435 H 0.47534 0.44462 0.39044 0.0
H436 H 0.47465 0.47485 0.40995 0.0
H437 H 0.5024 0.46941 0.42772 0.0
C438 C 0.47977 0.45871 0.42048 0.0
C439 C 0.44641 0.28659 0.41319 0.0
H440 H 0.43322 0.26378 0.40924 0.0
H441 H 0.46438 0.29088 0.43593 0.0
H442 H 0.43438 0.29494 0.43087 0.0
O443 O 0.47052 0.34413 0.46321 0.0
O444 O 0.46778 0.37768 0.49828 0.0
C445 C 0.40264 0.33577 0.43217 0.0
O446 O 0.49703 0.41756 0.42095 0.0
O447 O 0.50335 0.38785 0.37995 0.0
Zn448 Zn 0.65993 0.10602 0.38905 0.0
O449 O 0.68896 0.09283 0.39936 0.0
C450 C 0.6604 0.11917 0.49638 0.0
Zn451 Zn 0.63127 0.07068 0.43401 0.0
C452 C 0.68481 0.07364 0.42806 0.0
O453 O 0.66219 0.06113 0.45084 0.0
C454 C 0.60454 0.10268 0.39309 0.0
O455 O 0.62157 0.04462 0.37553 0.0
O456 O 0.64477 0.07783 0.32466 0.0
N457 N 0.60387 0.03821 0.47195 0.0
C458 C 0.57654 0.02226 0.46427 0.0
C459 C 0.58392 0.01808 0.53674 0.0
N460 N 0.60867 0.035 0.51664 0.0
N461 N 0.56342 0.00994 0.50459 0.0
C462 C 0.71633 0.16029 0.36141 0.0
C463 C 0.71037 0.16526 0.2886 0.0
N464 N 0.69026 0.13998 0.35012 0.0
N465 N 0.68674 0.14328 0.30479 0.0
N466 N 0.72933 0.17652 0.32345 0.0
H467 H 0.72157 0.14251 0.4257 0.0
H468 H 0.75257 0.17291 0.40504 0.0
H469 H 0.72503 0.17626 0.43168 0.0
C470 C 0.72971 0.16302 0.40858 0.0
C471 C 0.56155 0.02242 0.41997 0.0
H472 H 0.57535 0.03203 0.38951 0.0
H473 H 0.54596 1.0008 0.41043 0.0
H474 H 0.55012 0.0337 0.42664 0.0
O475 O 0.60014 0.08149 0.41702 0.0
O476 O 0.62888 0.11844 0.37669 0.0
C477 C 0.62896 0.05181 0.3333 0.0
O478 O 0.67351 0.13038 0.45792 0.0
O479 O 0.64042 0.09455 0.49468 0.0
Zn480 Zn 0.89844 0.61007 0.75837 0.0
O481 O 0.91502 0.6365 0.81605 0.0
C482 C 0.84129 0.57661 0.80069 0.0
Zn483 Zn 0.89485 0.57474 0.79996 0.0
C484 C 0.91685 0.62914 0.85747 0.0
O485 O 0.90818 0.60321 0.86481 0.0
C486 C 0.88067 0.56149 0.69441 0.0
O487 O 0.93737 0.5889 0.78725 0.0
O488 O 0.9386 0.62092 0.7403 0.0
N489 N 0.89194 0.54107 0.83881 0.0
C490 C 0.89748 0.52056 0.82784 0.0
C491 C 0.88581 0.51546 0.90029 0.0
N492 N 0.88464 0.53766 0.88391 0.0
N493 N 0.89362 0.50409 0.8658 0.0
C494 C 0.89091 0.65792 0.72767 0.0
C495 C 0.90098 0.661 0.65464 0.0
N496 N 0.9021 0.64182 0.71982 0.0
N497 N 0.90921 0.64438 0.67472 0.0
N498 N 0.88928 0.66964 0.68715 0.0
H499 H 0.88029 0.64792 0.80248 0.0
H500 H 0.88566 0.68096 0.78331 0.0
H501 H 0.85467 0.65005 0.76698 0.0
C502 C 0.87725 0.65896 0.77292 0.0
C503 C 0.90834 0.51779 0.78097 0.0
H504 H 0.92057 0.53829 0.7637 0.0
H505 H 0.92147 0.5081 0.78505 0.0
H506 H 0.89054 0.50433 0.75779 0.0
O507 O 0.88409 0.55057 0.7319 0.0
O508 O 0.88339 0.5854 0.69753 0.0
C509 C 0.95079 0.6094 0.75976 0.0
O510 O 0.857 0.59868 0.77788 0.0
O511 O 0.85095 0.56105 0.81345 0.0
Zn512 Zn 0.44234 0.32225 0.80411 0.0
O513 O 0.42949 0.3515 0.79471 0.0
C514 C 0.45471 0.32287 0.69611 0.0
Zn515 Zn 0.40655 0.29358 0.75984 0.0
C516 C 0.41009 0.34745 0.7666 0.0
O517 O 0.39712 0.32475 0.74418 0.0
C518 C 0.43879 0.26677 0.79906 0.0
O519 O 0.38082 0.28362 0.81915 0.0
O520 O 0.41438 0.30696 0.8693 0.0
N521 N 0.37372 0.26638 0.72226 0.0
C522 C 0.3579 0.23898 0.72946 0.0
C523 C 0.35315 0.24688 0.65755 0.0
N524 N 0.37014 0.2715 0.67794 0.0
N525 N 0.34535 0.22612 0.68912 0.0
C526 C 0.49716 0.37841 0.8315 0.0
C527 C 0.50256 0.37184 0.90383 0.0
N528 N 0.47676 0.35232 0.84262 0.0
N529 N 0.48036 0.34843 0.88765 0.0
N530 N 0.51373 0.39105 0.86928 0.0
H531 H 0.47914 0.38405 0.76787 0.0
H532 H 0.50957 0.41495 0.78879 0.0
H533 H 0.51293 0.38768 0.76112 0.0
C534 C 0.49971 0.39212 0.78473 0.0
C535 C 0.35841 0.22372 0.77316 0.0
H536 H 0.36789 0.23733 0.80387 0.0
H537 H 0.33688 0.20779 0.78266 0.0
H538 H 0.37 0.21269 0.76578 0.0
O539 O 0.41742 0.26233 0.77565 0.0
O540 O 0.45458 0.29107 0.81544 0.0
C541 C 0.38828 0.29101 0.8613 0.0
O542 O 0.46628 0.33587 0.73449 0.0
O543 O 0.43005 0.30296 0.69834 0.0
Zn544 Zn 0.69466 0.12316 0.79724 0.0
O545 O 0.66512 0.08055 0.78553 0.0
C546 C 0.69505 0.13612 0.69043 0.0
Zn547 Zn 0.72558 0.11837 0.75476 0.0
C548 C 0.67214 0.0664 0.75983 0.0
O549 O 0.69598 0.07794 0.74102 0.0
C550 C 0.75106 0.17633 0.79356 0.0
O551 O 0.73671 0.10398 0.81456 0.0
O552 O 0.70906 0.1096 0.86245 0.0
N553 N 0.75231 0.11272 0.716 0.0
C554 C 0.77911 0.12166 0.72493 0.0
C555 C 0.77323 0.11563 0.6509 0.0
N556 N 0.74834 0.10792 0.67013 0.0
N557 N 0.79306 0.12485 0.68449 0.0
C558 C 0.63669 0.11655 0.82844 0.0
C559 C 0.64815 0.1465 0.88314 0.0
N560 N 0.66455 0.12826 0.83441 0.0
N561 N 0.67146 0.14688 0.86847 0.0
N562 N 0.62589 0.12756 0.85871 0.0
H563 H 0.63334 0.0991 0.7591 0.0
H564 H 0.61337 0.07462 0.80464 0.0
H565 H 0.60185 0.09712 0.7806 0.0
C566 C 0.62041 0.09578 0.79082 0.0
C567 C 0.7925 0.12999 0.77292 0.0
H568 H 0.78519 0.11107 0.79477 0.0
H569 H 0.81542 0.14029 0.77104 0.0
H570 H 0.78679 0.14388 0.79136 0.0
O571 O 0.75607 0.16029 0.76881 0.0
O572 O 0.72659 0.16688 0.81021 0.0
C573 C 0.72695 0.10167 0.85571 0.0
O574 O 0.68173 0.13442 0.72846 0.0
O575 O 0.71502 0.13149 0.69306 0.0
Zn576 Zn 0.44263 0.12241 0.2984 0.0
O577 O 0.4295 0.07993 0.2859 0.0
C578 C 0.45585 0.13541 0.19204 0.0
Zn579 Zn 0.40702 0.11772 0.25562 0.0
C580 C 0.40821 0.06573 0.26048 0.0
O581 O 0.39575 0.07718 0.24187 0.0
C582 C 0.4399 0.17573 0.29519 0.0
O583 O 0.38088 0.10337 0.31471 0.0
O584 O 0.41392 0.10859 0.36275 0.0
N585 N 0.37519 0.11282 0.21595 0.0
C586 C 0.35746 0.12196 0.22457 0.0
C587 C 0.35783 0.11635 0.15047 0.0
N588 N 0.37472 0.10832 0.17002 0.0
N589 N 0.34705 0.12544 0.18393 0.0
C590 C 0.49698 0.12025 0.3267 0.0
C591 C 0.50138 0.13071 0.39965 0.0
N592 N 0.47644 0.12575 0.33774 0.0
N593 N 0.4794 0.13227 0.38317 0.0
N594 N 0.51302 0.12336 0.36492 0.0
H595 H 0.4798 0.09779 0.26185 0.0
H596 H 0.51009 0.09709 0.28303 0.0
H597 H 0.51356 0.12816 0.2568 0.0
C598 C 0.50016 0.11004 0.27946 0.0
C599 C 0.3522 0.13017 0.2725 0.0
H600 H 0.34013 0.11114 0.29394 0.0
H601 H 0.33993 0.14084 0.27044 0.0
H602 H 0.37172 0.14369 0.29147 0.0
O603 O 0.419 0.15981 0.26999 0.0
O604 O 0.45476 0.16616 0.31221 0.0
C605 C 0.38817 0.10089 0.35589 0.0
O606 O 0.46746 0.13393 0.23028 0.0
O607 O 0.43121 0.13069 0.1944 0.0
Zn608 Zn 0.89426 0.32213 0.30248 0.0
O609 O 0.93645 0.35102 0.29267 0.0
C610 C 0.88244 0.32278 0.19464 0.0
Zn611 Zn 0.90104 0.29312 0.25835 0.0
C612 C 0.95169 0.34672 0.26473 0.0
O613 O 0.94181 0.32392 0.2425 0.0
C614 C 0.84209 0.26698 0.29767 0.0
O615 O 0.91673 0.28302 0.31776 0.0
O616 O 0.90688 0.30675 0.36766 0.0
N617 N 0.90577 0.26524 0.22085 0.0
C618 C 0.89369 0.23781 0.22855 0.0
C619 C 0.90529 0.24493 0.15612 0.0
N620 N 0.91376 0.26982 0.17614 0.0
N621 N 0.89251 0.2245 0.1883 0.0
C622 C 0.8959 0.3785 0.32995 0.0
C623 C 0.88383 0.37183 0.4022 0.0
N624 N 0.89023 0.3524 0.34102 0.0
N625 N 0.88268 0.34846 0.386 0.0
N626 N 0.89189 0.39109 0.36772 0.0
H627 H 0.91955 0.38413 0.2664 0.0
H628 H 0.92009 0.41506 0.28738 0.0
H629 H 0.88945 0.38788 0.25958 0.0
C630 C 0.90709 0.39225 0.28323 0.0
C631 C 0.87836 0.22304 0.27284 0.0
H632 H 0.88288 0.23692 0.30325 0.0
H633 H 0.88391 0.20708 0.28244 0.0
H634 H 0.85567 0.21205 0.26612 0.0
O635 O 0.85889 0.26237 0.27432 0.0
O636 O 0.85077 0.2913 0.31408 0.0
C637 C 0.91682 0.29061 0.35984 0.0
O638 O 0.88398 0.33582 0.23299 0.0
O639 O 0.88704 0.30275 0.19686 0.0
Zn640 Zn 0.69421 0.57414 0.30201 0.0
O641 O 0.66565 0.58777 0.29267 0.0
C642 C 0.69398 0.56104 0.19558 0.0
Zn643 Zn 0.72378 0.60966 0.25856 0.0
C644 C 0.66999 0.60684 0.26355 0.0
O645 O 0.69258 0.61888 0.24048 0.0
C646 C 0.74961 0.57722 0.29984 0.0
O647 O 0.73306 0.63601 0.31624 0.0
O648 O 0.71006 0.60243 0.36671 0.0
N649 N 0.75122 0.64186 0.21965 0.0
C650 C 0.77855 0.65821 0.22705 0.0
C651 C 0.77108 0.66075 0.15405 0.0
N652 N 0.74639 0.64408 0.17454 0.0
N653 N 0.79163 0.66976 0.18627 0.0
C654 C 0.63789 0.51964 0.33014 0.0
C655 C 0.64483 0.51403 0.40218 0.0
N656 N 0.66401 0.54005 0.34101 0.0
N657 N 0.66813 0.53633 0.38586 0.0
N658 N 0.62547 0.50291 0.36788 0.0
H659 H 0.63198 0.53783 0.26699 0.0
H660 H 0.60116 0.50737 0.28812 0.0
H661 H 0.62827 0.50403 0.25971 0.0
C662 C 0.62396 0.51721 0.28366 0.0
C663 C 0.79355 0.65972 0.27221 0.0
H664 H 0.77962 0.64887 0.30203 0.0
H665 H 0.80706 0.68181 0.28207 0.0
H666 H 0.80729 0.65089 0.26642 0.0
O667 O 0.75516 0.5994 0.27793 0.0
O668 O 0.72463 0.56096 0.31285 0.0
C669 C 0.72568 0.62856 0.35841 0.0
O670 O 0.68006 0.55012 0.23346 0.0
O671 O 0.71485 0.58514 0.19813 0.0
Zn672 Zn 0.45452 0.07008 0.93376 0.0
O673 O 0.43717 0.04377 0.87585 0.0
C674 C 0.51282 0.10282 0.89194 0.0
Zn675 Zn 0.46048 0.10579 0.89084 0.0
C676 C 0.43729 0.05145 0.8338 0.0
O677 O 0.4479 0.07763 0.82591 0.0
C678 C 0.47368 0.11863 0.99738 0.0
O679 O 0.41834 0.09207 0.90085 0.0
O680 O 0.41417 0.06078 0.95263 0.0
N681 N 0.46364 0.13965 0.85202 0.0
C682 C 0.45769 0.15983 0.86333 0.0
C683 C 0.46852 0.16486 0.79049 0.0
N684 N 0.47039 0.14299 0.80667 0.0
N685 N 0.46073 0.17602 0.82536 0.0
C686 C 0.46118 0.02172 0.96467 0.0
C687 C 0.45141 0.01907 0.03776 0.0
N688 N 0.44999 0.03785 0.97229 0.0
N689 N 0.44307 0.03555 0.01746 0.0
N690 N 0.46306 0.01029 1.00537 0.0
H691 H 0.47101 0.03093 0.88955 0.0
H692 H 0.46635 0.9983 0.90963 0.0
H693 H 0.49722 0.02961 0.92479 0.0
C694 C 0.47457 0.02036 0.91933 0.0
C695 C 0.44704 0.16246 0.91053 0.0
H696 H 0.43457 0.14188 0.92737 0.0
H697 H 0.43417 0.17248 0.90713 0.0
H698 H 0.46496 0.17552 0.93379 0.0
O699 O 0.47063 0.12971 0.9597 0.0
O700 O 0.47038 0.0945 0.99442 0.0
C701 C 0.40365 0.073 0.92996 0.0
O702 O 0.49621 0.08053 0.91364 0.0
O703 O 0.50408 0.11915 0.87937 0.0
Zn704 Zn 0.94817 0.38849 0.93556 0.0
O705 O 0.97394 0.39937 0.87655 0.0
C706 C 0.9143 0.41278 0.89545 0.0
Zn707 Zn 0.9124 0.3576 0.8931 0.0
C708 C 0.96666 0.38989 0.83531 0.0
O709 O 0.94084 0.37227 0.82822 0.0
C710 C 0.89983 0.35776 0.99998 0.0
O711 O 0.92615 0.32891 0.90619 0.0
O712 O 0.96017 0.35968 0.9503 0.0
N713 N 0.87864 0.32689 0.85411 0.0
C714 C 0.85807 0.3008 0.86474 0.0
C715 C 0.85379 0.30742 0.79195 0.0
N716 N 0.87572 0.3308 0.80879 0.0
N717 N 0.84208 0.28816 0.82632 0.0
C718 C 0.99492 0.44455 0.96464 0.0
C719 C 0.99971 0.43818 0.03737 0.0
N720 N 0.98017 0.41715 0.97293 0.0
N721 N 0.98375 0.41304 0.01782 0.0
N722 N 1.00691 0.45826 1.00467 0.0
H723 H 0.98422 0.44474 0.89 0.0
H724 H 0.01518 0.47481 0.90981 0.0
H725 H 0.98203 0.46976 0.92676 0.0
C726 C 0.99381 0.45884 0.92006 0.0
C727 C 0.85481 0.28716 0.91179 0.0
H728 H 0.87513 0.29543 0.92969 0.0
H729 H 0.84515 0.26434 0.90786 0.0
H730 H 0.84112 0.29151 0.93434 0.0
O731 O 0.88809 0.34454 0.96189 0.0
O732 O 0.92444 0.3778 0.99732 0.0
C733 C 0.94751 0.33584 0.9314 0.0
O734 O 0.93541 0.41783 0.92 0.0
O735 O 0.8994 0.38838 0.87869 0.0
Zn736 Zn 0.62893 0.56193 0.93598 0.0
O737 O 0.61899 0.57693 0.87592 0.0
C738 C 0.60372 0.50387 0.89741 0.0
Zn739 Zn 0.65976 0.5571 0.8938 0.0
C740 C 0.62831 0.57881 0.8346 0.0
O741 O 0.64577 0.57037 0.82763 0.0
C742 C 0.65875 0.54436 1.00132 0.0
O743 O 0.68918 0.59982 0.90525 0.0
O744 O 0.65854 0.60232 0.95057 0.0
N745 N 0.6899 0.55165 0.85787 0.0
C746 C 0.71766 0.56311 0.86447 0.0
C747 C 0.70624 0.53274 0.81048 0.0
N748 N 0.68299 0.53275 0.82429 0.0
N749 N 0.72842 0.55165 0.83507 0.0
C750 C 0.57414 0.55602 0.96457 0.0
C751 C 0.58173 0.56967 0.03596 0.0
N752 N 0.60145 0.56751 0.97232 0.0
N753 N 0.60641 0.57687 0.01622 0.0
N754 N 0.56112 0.55634 1.00432 0.0
H755 H 0.57275 0.54347 0.89078 0.0
H756 H 0.54289 0.54467 0.91104 0.0
H757 H 0.54837 0.51706 0.92967 0.0
C758 C 0.55906 0.53956 0.92133 0.0
C759 C 0.73385 0.58409 0.90187 0.0
H760 H 0.72075 0.58116 0.93318 0.0
H761 H 0.74116 0.60519 0.88746 0.0
H762 H 0.7522 0.5826 0.91289 0.0
O763 O 0.67227 0.54626 0.96343 0.0
O764 O 0.6385 0.5486 0.99844 0.0
C765 C 0.68229 0.61393 0.93137 0.0
O766 O 0.59852 0.52006 0.92122 0.0
O767 O 0.62824 0.51327 0.88117 0.0
Zn768 Zn 0.57855 0.89058 0.72738 0.0
O769 O 0.59147 0.93318 0.73806 0.0
C770 C 0.56643 0.87856 0.83431 0.0
Zn771 Zn 0.61446 0.89574 0.76977 0.0
C772 C 0.61286 0.94765 0.7631 0.0
O773 O 0.62545 0.93641 0.78203 0.0
C774 C 0.58167 0.83744 0.73265 0.0
O775 O 0.63967 0.90943 0.70965 0.0
O776 O 0.6063 0.90376 0.66188 0.0
N777 N 0.647 0.90171 0.80856 0.0
C778 C 0.66475 0.89258 0.79999 0.0
C779 C 0.66515 0.89923 0.87386 0.0
N780 N 0.64798 0.90688 0.8543 0.0
N781 N 0.6756 0.88967 0.84059 0.0
C782 C 0.52676 0.89646 0.69677 0.0
C783 C 0.50783 0.8659 0.64307 0.0
N784 N 0.54306 0.88495 0.69057 0.0
N785 N 0.53108 0.86592 0.65716 0.0
N786 N 0.50457 0.88492 0.6673 0.0
H787 H 0.54143 0.91461 0.76556 0.0
H788 H 0.54545 0.93861 0.71949 0.0
H789 H 0.51167 0.91625 0.74447 0.0
C790 C 0.5315 0.91757 0.73391 0.0
C791 C 0.66955 0.88376 0.75228 0.0
H792 H 0.68104 0.90245 0.72986 0.0
H793 H 0.6822 0.87349 0.75451 0.0
H794 H 0.64986 0.86967 0.73426 0.0
O795 O 0.60282 0.85357 0.75714 0.0
O796 O 0.56677 0.8469 0.71552 0.0
C797 C 0.63212 0.91161 0.66848 0.0
O798 O 0.55462 0.87978 0.79618 0.0
O799 O 0.59109 0.88336 0.83175 0.0
Zn800 Zn 0.12624 0.69079 0.72619 0.0
O801 O 0.08378 0.66203 0.73906 0.0
C802 C 0.13888 0.6913 0.83323 0.0
Zn803 Zn 0.12141 0.72183 0.76821 0.0
C804 C 0.06941 0.66907 0.76413 0.0
O805 O 0.08064 0.69296 0.7828 0.0
C806 C 0.17954 0.74608 0.72853 0.0
O807 O 0.10662 0.73253 0.70883 0.0
O808 O 0.11255 0.70526 0.66083 0.0
N809 N 0.11768 0.75041 0.80507 0.0
C810 C 0.13008 0.77778 0.79672 0.0
C811 C 0.11806 0.77129 0.86901 0.0
N812 N 0.10943 0.7462 0.84965 0.0
N813 N 0.13115 0.79142 0.83647 0.0
C814 C 0.12411 0.63397 0.69929 0.0
C815 C 0.13545 0.64027 0.62669 0.0
N816 N 0.12955 0.65997 0.688 0.0
N817 N 0.13665 0.66368 0.6428 0.0
N818 N 0.12781 0.62121 0.66142 0.0
H819 H 0.10132 0.62883 0.76367 0.0
H820 H 0.10043 0.59769 0.7427 0.0
H821 H 0.13144 0.62502 0.76939 0.0
C822 C 0.11351 0.62053 0.7464 0.0
C823 C 0.14592 0.79217 0.75254 0.0
H824 H 0.1415 0.77813 0.7224 0.0
H825 H 0.14084 0.80835 0.74213 0.0
H826 H 0.16854 0.80283 0.75986 0.0
O827 O 0.16348 0.75124 0.75286 0.0
O828 O 0.17003 0.72162 0.712 0.0
C829 C 0.1044 0.72296 0.66768 0.0
O830 O 0.1374 0.67797 0.79529 0.0
O831 O 0.13437 0.71137 0.8303 0.0
Zn832 Zn 0.29885 0.40435 0.76773 0.0
O833 O 0.29007 0.37811 0.70985 0.0
C834 C 0.27247 0.43639 0.72644 0.0
Zn835 Zn 0.32811 0.43998 0.72455 0.0
C836 C 0.29708 0.38575 0.66764 0.0
O837 O 0.31229 0.41194 0.65954 0.0
C838 C 0.32803 0.45272 0.83137 0.0
O839 O 0.35688 0.42656 0.73367 0.0
O840 O 0.33028 0.3957 0.78635 0.0
N841 N 0.35842 0.47399 0.68554 0.0
C842 C 0.38459 0.49422 0.69651 0.0
C843 C 0.37837 0.49912 0.62379 0.0
N844 N 0.35475 0.47725 0.64025 0.0
N845 N 0.39751 0.51036 0.65839 0.0
C846 C 0.24465 0.355 0.79873 0.0
C847 C 0.25241 0.35186 0.87137 0.0
N848 N 0.27186 0.37184 0.80619 0.0
N849 N 0.27693 0.36925 0.85102 0.0
N850 N 0.23177 0.3428 0.83931 0.0
H851 H 0.24325 0.36449 0.72395 0.0
H852 H 0.21554 0.33175 0.7441 0.0
H853 H 0.21609 0.36301 0.76032 0.0
C854 C 0.22944 0.35377 0.75397 0.0
C855 C 0.39813 0.49693 0.74351 0.0
H856 H 0.39023 0.47637 0.76031 0.0
H857 H 0.42101 0.50709 0.73983 0.0
H858 H 0.39326 0.50989 0.76697 0.0
O859 O 0.34212 0.4638 0.79366 0.0
O860 O 0.30716 0.42864 0.82839 0.0
C861 C 0.35281 0.40779 0.76324 0.0
O862 O 0.26706 0.41412 0.74795 0.0
O863 O 0.29749 0.45297 0.71392 0.0
Zn864 Zn 0.56716 0.94343 0.09211 0.0
O865 O 0.5843 0.96914 0.15043 0.0
C866 C 0.50891 0.9112 0.13277 0.0
Zn867 Zn 0.56115 0.90785 0.13532 0.0
C868 C 0.58395 0.96153 0.1926 0.0
O869 O 0.57317 0.93535 0.20081 0.0
C870 C 0.54835 0.8954 0.02845 0.0
O871 O 0.60339 0.92158 0.12667 0.0
O872 O 0.60744 0.95231 0.07382 0.0
N873 N 0.55616 0.87263 0.17225 0.0
C874 C 0.56838 0.85693 0.16664 0.0
C875 C 0.53755 0.83741 0.21984 0.0
N876 N 0.53699 0.86029 0.20538 0.0
N877 N 0.55714 0.83476 0.19622 0.0
C878 C 0.5616 0.99254 0.06175 0.0
C879 C 0.57179 0.99549 0.98883 0.0
N880 N 0.57246 0.97612 0.05407 0.0
N881 N 0.57967 0.97862 1.00903 0.0
N882 N 0.56016 1.00433 0.02116 0.0
H883 H 0.55132 0.98306 0.1367 0.0
H884 H 0.55643 0.01591 0.11688 0.0
H885 H 0.52546 0.98482 0.10117 0.0
C886 C 0.54806 0.99386 0.10695 0.0
C887 C 0.58991 0.86221 0.12998 0.0
H888 H 0.58679 0.87184 0.09807 0.0
H889 H 0.61075 0.87663 0.14468 0.0
H890 H 0.58928 0.84265 0.11979 0.0
O891 O 0.5516 0.88448 0.06613 0.0
O892 O 0.55139 0.91942 0.03126 0.0
C893 C 0.61804 0.9404 0.09716 0.0
O894 O 0.52565 0.93355 0.11145 0.0
O895 O 0.51754 0.89479 0.14534 0.0
Zn896 Zn 0.10892 0.65638 0.13523 0.0
O897 O 0.09563 0.6853 0.12703 0.0
C898 C 0.12146 0.65662 0.02819 0.0
Zn899 Zn 0.07316 0.62728 0.09209 0.0
C900 C 0.07668 0.68131 0.09795 0.0
O901 O 0.06446 0.65887 0.07463 0.0
C902 C 0.10537 0.60078 0.13197 0.0
O903 O 0.04711 0.61825 0.15032 0.0
O904 O 0.08096 0.6404 0.20055 0.0
N905 N 0.04043 0.60043 0.05384 0.0
C906 C 0.02366 0.57319 0.0612 0.0
C907 C 0.02026 0.58114 0.98877 0.0
N908 N 0.03766 0.60561 1.00916 0.0
N909 N 0.01138 0.56038 0.02064 0.0
C910 C 0.16371 0.71238 0.16314 0.0
C911 C 0.16933 0.70529 0.23511 0.0
N912 N 0.14327 0.68626 0.17397 0.0
N913 N 0.147 0.68204 0.21877 0.0
N914 N 0.18045 0.72471 0.20086 0.0
H915 H 0.17617 0.74922 0.12124 0.0
H916 H 0.17914 0.72197 0.09257 0.0
H917 H 0.14549 0.71857 0.1003 0.0
C918 C 0.16614 0.72641 0.11674 0.0
C919 C 0.02259 0.55787 0.10576 0.0
H920 H 1.0006 0.54397 0.11586 0.0
H921 H 0.03177 0.54451 0.09906 0.0
H922 H 0.03345 0.57159 0.13577 0.0
O923 O 0.08302 0.59536 0.11073 0.0
O924 O 0.1218 0.62571 0.14494 0.0
C925 C 0.05476 0.62519 0.19252 0.0
O926 O 0.13262 0.67051 0.06599 0.0
O927 O 0.09727 0.63589 0.03105 0.0
Zn928 Zn 0.39202 0.45148 0.09222 0.0
O929 O 0.40171 0.43605 0.15214 0.0
C930 C 0.41701 0.50946 0.1316 0.0
Zn931 Zn 0.36098 0.45609 0.13427 0.0
C932 C 0.39243 0.43424 0.19348 0.0
O933 O 0.37507 0.44281 0.20046 0.0
C934 C 0.36228 0.46911 0.02662 0.0
O935 O 0.33185 0.41336 0.12225 0.0
O936 O 0.36259 0.41123 0.07664 0.0
N937 N 0.3304 0.46093 0.17046 0.0
C938 C 0.30254 0.44908 0.16429 0.0
C939 C 0.31374 0.47912 0.21876 0.0
N940 N 0.33714 0.4796 0.20439 0.0
N941 N 0.29157 0.46006 0.19431 0.0
C942 C 0.44712 0.45794 0.06427 0.0
C943 C 0.44005 0.44491 0.99254 0.0
N944 N 0.41983 0.44633 0.05607 0.0
N945 N 0.4152 0.43735 1.01194 0.0
N946 N 0.46044 0.45809 0.02461 0.0
H947 H 0.44797 0.46982 0.13833 0.0
H948 H 0.47803 0.46894 0.1183 0.0
H949 H 0.47253 0.49662 0.10021 0.0
C950 C 0.46186 0.47405 0.10798 0.0
C951 C 0.28644 0.4282 0.12675 0.0
H952 H 0.29955 0.43142 0.0953 0.0
H953 H 0.27934 0.40709 0.1409 0.0
H954 H 0.26793 0.4295 0.11608 0.0
O955 O 0.34848 0.46693 0.06434 0.0
O956 O 0.38271 0.46517 0.02983 0.0
C957 C 0.3388 0.39947 0.09569 0.0
O958 O 0.42226 0.49327 0.10791 0.0
O959 O 0.39239 0.50007 0.14741 0.0
Zn960 Zn 0.10972 0.45579 0.63428 0.0
O961 O 0.0961 0.41301 0.62241 0.0
C962 C 0.12139 0.46868 0.52663 0.0
Zn963 Zn 0.07412 0.45121 0.59205 0.0
C964 C 0.0753 0.39917 0.5957 0.0
O965 O 0.06337 0.411 0.57647 0.0
C966 C 0.10693 0.50909 0.63158 0.0
O967 O 0.04908 0.43578 0.65192 0.0
O968 O 0.08247 0.44262 0.70041 0.0
N969 N 0.04113 0.44603 0.55588 0.0
C970 C 0.02536 0.45754 0.56414 0.0
C971 C 0.01935 0.44452 0.4924 0.0
N972 N 0.03676 0.43707 0.51173 0.0
N973 N 0.01208 0.45761 0.52453 0.0
C974 C 0.16129 0.44899 0.66414 0.0
C975 C 0.18025 0.47922 0.71832 0.0
N976 N 0.1452 0.46074 0.6704 0.0
N977 N 0.1572 0.47953 0.70414 0.0
N978 N 0.18338 0.46016 0.69391 0.0
H979 H 0.14644 0.43112 0.59532 0.0
H980 H 0.14253 0.40694 0.64105 0.0
H981 H 0.17625 0.42934 0.61596 0.0
C982 C 0.15645 0.42802 0.62673 0.0
C983 C 0.02669 0.47361 0.60787 0.0
H984 H 0.03645 0.46946 0.63819 0.0
H985 H 1.00539 0.4684 0.61823 0.0
H986 H 0.03847 0.49619 0.60008 0.0
O987 O 0.08554 0.4929 0.60778 0.0
O988 O 0.12224 0.49977 0.64735 0.0
C989 C 0.05655 0.43403 0.69331 0.0
O990 O 0.13296 0.46648 0.56442 0.0
O991 O 0.09708 0.4649 0.52973 0.0
Zn992 Zn 0.56187 0.65648 0.63548 0.0
O993 O 0.60396 0.68567 0.62619 0.0
C994 C 0.55001 0.65717 0.52752 0.0
Zn995 Zn 0.56897 0.62789 0.59112 0.0
C996 C 0.61923 0.68171 0.5978 0.0
O997 O 0.60944 0.65909 0.57509 0.0
C998 C 0.51001 0.60104 0.6307 0.0
O999 O 0.58515 0.61816 0.65018 0.0
O1000 O 0.57446 0.64102 0.70051 0.0
N1001 N 0.5745 0.60063 0.55355 0.0
C1002 C 0.56318 0.57329 0.5612 0.0
C1003 C 0.57531 0.58084 0.48904 0.0
N1004 N 0.58288 0.60553 0.50907 0.0
N1005 N 0.56274 0.56025 0.52102 0.0
C1006 C 0.56327 0.71256 0.66396 0.0
C1007 C 0.5515 0.7056 0.73635 0.0
N1008 N 0.55758 0.68641 0.6745 0.0
N1009 N 0.55023 0.68227 0.71957 0.0
N1010 N 0.55948 0.72501 0.70215 0.0
H1011 H 0.58726 0.74932 0.62167 0.0
H1012 H 0.55659 0.72216 0.59388 0.0
H1013 H 0.58677 0.71851 0.6001 0.0
C1014 C 0.57431 0.72651 0.61731 0.0
C1015 C 0.5477 0.55819 0.6052 0.0
H1016 H 0.55176 0.57191 0.6357 0.0
H1017 H 0.55357 0.54249 0.61494 0.0
H1018 H 0.52505 0.5469 0.59805 0.0
O1019 O 0.52693 0.59655 0.60739 0.0
O1020 O 0.51848 0.62539 0.64677 0.0
C1021 C 0.58492 0.62537 0.69238 0.0
O1022 O 0.55162 0.67029 0.56585 0.0
O1023 O 0.55455 0.63712 0.52982 0.0
Zn1024 Zn 0.36091 0.90788 0.63331 0.0
O1025 O 0.33233 0.92192 0.62089 0.0
C1026 C 0.36194 0.89486 0.52764 0.0
Zn1027 Zn 0.39256 0.94328 0.59184 0.0
C1028 C 0.33937 0.9424 0.59336 0.0
O1029 O 0.36307 0.9539 0.57395 0.0
C1030 C 0.41655 0.90998 0.63361 0.0
O1031 O 0.40231 0.96955 0.64974 0.0
O1032 O 0.37597 0.93615 0.69835 0.0
N1033 N 0.42033 0.97531 0.55351 0.0
C1034 C 0.44757 0.99172 0.56127 0.0
C1035 C 0.44019 0.99537 0.48863 0.0
N1036 N 0.41551 0.97822 0.50869 0.0
N1037 N 0.46069 1.00399 0.52089 0.0
C1038 C 0.30421 0.85359 0.66099 0.0
C1039 C 0.31085 0.84837 0.73339 0.0
N1040 N 0.33027 0.87405 0.67199 0.0
N1041 N 0.3342 0.87057 0.71704 0.0
N1042 N 0.29163 0.83707 0.69891 0.0
H1043 H 0.26773 0.84124 0.61829 0.0
H1044 H 0.29482 0.83742 0.59091 0.0
H1045 H 0.29881 0.8714 0.59694 0.0
C1046 C 0.29054 0.85089 0.61416 0.0
C1047 C 0.46253 0.99251 0.6061 0.0
H1048 H 0.44859 0.98143 0.63579 0.0
H1049 H 0.47632 0.01444 0.61662 0.0
H1050 H 0.476 0.98344 0.59951 0.0
O1051 O 0.42283 0.93211 0.61102 0.0
O1052 O 0.39136 0.89436 0.64642 0.0
C1053 C 0.39316 0.96209 0.69114 0.0
O1054 O 0.34759 0.88387 0.56508 0.0
O1055 O 0.38307 0.91879 0.53085 0.0
Zn1056 Zn 0.12001 0.40371 0.26709 0.0
O1057 O 0.1028 0.37822 0.20837 0.0
C1058 C 0.17852 0.43562 0.22707 0.0
Zn1059 Zn 0.12643 0.43945 0.22422 0.0
C1060 C 0.10354 0.38602 0.16621 0.0
O1061 O 0.11469 0.41226 0.15827 0.0
C1062 C 0.13876 0.45139 0.33163 0.0
O1063 O 0.08412 0.42591 0.2321 0.0
O1064 O 0.07988 0.39523 0.28515 0.0
N1065 N 0.13178 0.4749 0.18759 0.0
C1066 C 0.11949 0.49056 0.19297 0.0
C1067 C 0.15054 0.5102 0.14016 0.0
N1068 N 0.15108 0.48731 0.15469 0.0
N1069 N 0.13081 0.51276 0.16347 0.0
C1070 C 0.1242 0.35384 0.29714 0.0
C1071 C 0.11283 0.35018 0.36955 0.0
N1072 N 0.11383 0.37066 0.30469 0.0
N1073 N 0.10583 0.36772 0.34934 0.0
N1074 N 0.12469 0.34139 0.33758 0.0
H1075 H 0.13524 0.36356 0.22251 0.0
H1076 H 0.13062 0.33094 0.24258 0.0
H1077 H 0.16102 0.36237 0.25914 0.0
C1078 C 0.13844 0.3529 0.25254 0.0
C1079 C 0.09779 0.48521 0.22934 0.0
H1080 H 0.07702 0.47081 0.2144 0.0
H1081 H 0.09837 0.50475 0.23949 0.0
H1082 H 0.1008 0.47554 0.26132 0.0
O1083 O 0.13567 0.46249 0.29402 0.0
O1084 O 0.13577 0.42739 0.32844 0.0
C1085 C 0.06939 0.40717 0.26166 0.0
O1086 O 0.16155 0.41317 0.24799 0.0
O1087 O 0.17011 0.45226 0.21484 0.0
Zn1088 Zn 0.61536 0.7208 0.26729 0.0
O1089 O 0.64113 0.72992 0.20854 0.0
C1090 C 0.58254 0.7467 0.22747 0.0
Zn1091 Zn 0.57923 0.69119 0.22491 0.0
C1092 C 0.63328 0.72253 0.16654 0.0
O1093 O 0.60705 0.70688 0.1591 0.0
C1094 C 0.56726 0.69146 0.33218 0.0
O1095 O 0.59271 0.66248 0.2337 0.0
O1096 O 0.62459 0.68952 0.2847 0.0
N1097 N 0.5447 0.66082 0.18669 0.0
C1098 C 0.52435 0.63471 0.19792 0.0
C1099 C 0.51859 0.64129 0.12578 0.0
N1100 N 0.54087 0.66471 0.14178 0.0
N1101 N 0.50758 0.62206 0.16033 0.0
C1102 C 0.66443 0.77552 0.29742 0.0
C1103 C 0.66784 0.76816 0.37013 0.0
N1104 N 0.64811 0.74822 0.30512 0.0
N1105 N 0.65089 0.74344 0.35002 0.0
N1106 N 0.67644 0.78869 0.33788 0.0
H1107 H 0.65432 0.77649 0.22281 0.0
H1108 H 0.68741 0.80406 0.24196 0.0
H1109 H 0.65654 0.8041 0.25872 0.0
C1110 C 0.66543 0.79045 0.25242 0.0
C1111 C 0.52205 0.62102 0.24461 0.0
H1112 H 0.54275 0.62902 0.26094 0.0
H1113 H 0.51203 0.59818 0.24058 0.0
H1114 H 0.50911 0.62561 0.26862 0.0
O1115 O 0.55581 0.67745 0.29459 0.0
O1116 O 0.59148 0.7121 0.32879 0.0
C1117 C 0.61208 0.66682 0.2621 0.0
O1118 O 0.60494 0.75226 0.24865 0.0
O1119 O 0.56616 0.72172 0.21468 0.0
Zn1120 Zn 0.29616 0.89506 0.26867 0.0
O1121 O 0.28595 0.91006 0.20893 0.0
C1122 C 0.27107 0.83706 0.22976 0.0
Zn1123 Zn 0.32689 0.89036 0.22594 0.0
C1124 C 0.2951 0.91193 0.16749 0.0
O1125 O 0.31255 0.90351 0.16019 0.0
C1126 C 0.32644 0.87773 0.33335 0.0
O1127 O 0.35603 0.933 0.23739 0.0
O1128 O 0.32558 0.93548 0.2833 0.0
N1129 N 0.35713 0.88543 0.18934 0.0
C1130 C 0.38498 0.89729 0.19531 0.0
C1131 C 0.37363 0.86713 0.14097 0.0
N1132 N 0.35027 0.86668 0.15551 0.0
N1133 N 0.39584 0.88624 0.16526 0.0
C1134 C 0.24122 0.88868 0.29756 0.0
C1135 C 0.24867 0.90197 0.36916 0.0
N1136 N 0.26854 0.90024 0.30537 0.0
N1137 N 0.27341 0.90937 0.34942 0.0
N1138 N 0.22813 0.88879 0.33736 0.0
H1139 H 0.23992 0.87627 0.22367 0.0
H1140 H 0.21011 0.87759 0.24383 0.0
H1141 H 0.21541 0.84984 0.26234 0.0
C1142 C 0.22621 0.87237 0.25416 0.0
C1143 C 0.40121 0.91827 0.23268 0.0
H1144 H 0.38828 0.915 0.26439 0.0
H1145 H 0.40808 0.93935 0.21857 0.0
H1146 H 0.41986 0.91714 0.24299 0.0
O1147 O 0.33983 0.87967 0.29528 0.0
O1148 O 0.30606 0.88178 0.3308 0.0
C1149 C 0.34922 0.94706 0.26375 0.0
O1150 O 0.26595 0.85321 0.25383 0.0
O1151 O 0.29554 0.84649 0.21327 0.0
C1152 C 0.22512 0.12539 0.02113 0.0
C1153 C 0.24168 0.14134 0.05931 0.0
H1154 H 0.20764 0.08656 0.98337 0.0
C1155 C 0.25315 0.12938 0.08917 0.0
H1156 H 0.21605 0.13391 0.99727 0.0
C1157 C 0.24803 0.1023 0.08152 0.0
C1158 C 0.23188 0.08652 0.04309 0.0
H1159 H 0.26602 0.1409 0.1189 0.0
H1160 H 0.25699 0.09371 0.10546 0.0
C1161 C 0.22049 0.09838 1.01288 0.0
C1162 C 0.91797 0.1258 1.00871 0.0
C1163 C 0.92906 0.14895 0.03902 0.0
H1164 H 0.8831 0.08561 0.99217 0.0
C1165 C 0.91255 0.14892 0.07659 0.0
H1166 H 0.93037 0.12504 0.97991 0.0
C1167 C 0.88552 0.12666 0.08332 0.0
C1168 C 0.87434 0.10334 0.05334 0.0
H1169 H 0.92055 0.16636 0.10064 0.0
H1170 H 0.87346 0.12763 0.11254 0.0
C1171 C 0.89101 0.10313 0.01603 0.0
C1172 C 0.89983 0.81003 0.03433 0.0
C1173 C 0.87201 0.78848 0.03143 0.0
H1174 H 0.94262 0.82133 0.04388 0.0
C1175 C 0.86636 0.76103 0.03683 0.0
H1176 H 0.9048 0.8314 0.03055 0.0
C1177 C 0.8879 0.75528 0.04523 0.0
C1178 C 0.91578 0.77677 0.04797 0.0
H1179 H 0.84517 0.74402 0.03558 0.0
H1180 H 0.88265 0.73389 0.04929 0.0
C1181 C 0.92148 0.80424 0.04184 0.0
C1182 C 0.09608 0.20267 0.49293 0.0
C1183 C 0.08954 0.22405 0.49577 0.0
H1184 H 0.12796 0.19184 0.48343 0.0
C1185 C 0.11114 0.25159 0.4907 0.0
H1186 H 0.07982 0.18124 0.4965 0.0
C1187 C 0.13848 0.25762 0.48266 0.0
C1188 C 0.14518 0.23635 0.47978 0.0
H1189 H 0.10675 0.26846 0.49189 0.0
H1190 H 0.15446 0.27909 0.47882 0.0
C1191 C 0.12364 0.20875 0.48566 0.0
C1192 C 0.76732 0.88797 0.4406 0.0
C1193 C 0.77909 0.91121 0.47079 0.0
H1194 H 0.76348 0.84865 0.42293 0.0
C1195 C 0.79618 0.9117 0.50799 0.0
H1196 H 0.75414 0.8868 0.41147 0.0
C1197 C 0.80105 0.88939 0.51504 0.0
C1198 C 0.78936 0.86633 0.48454 0.0
H1199 H 0.80552 0.92917 0.53199 0.0
H1200 H 0.81429 0.8903 0.54385 0.0
C1201 C 0.77267 0.86606 0.44705 0.0
C1202 C 0.12988 0.88354 0.44221 0.0
C1203 C 0.10648 0.87166 0.4721 0.0
H1204 H 0.16941 0.91904 0.42578 0.0
C1205 C 0.10602 0.88767 0.51031 0.0
H1206 H 0.1311 0.87201 0.41238 0.0
C1207 C 0.12852 0.91466 0.51853 0.0
C1208 C 0.15173 0.92641 0.48824 0.0
H1209 H 0.08846 0.87921 0.53418 0.0
H1210 H 0.12759 0.92654 0.548 0.0
C1211 C 0.15193 0.91054 0.44983 0.0
C1212 C 0.77324 0.91142 0.94582 0.0
C1213 C 0.78938 0.92721 0.98427 0.0
H1214 H 0.75529 0.87285 0.90836 0.0
C1215 C 0.80075 0.91531 0.01449 0.0
H1216 H 0.76431 0.92002 0.92185 0.0
C1217 C 0.79612 0.88828 1.00619 0.0
C1218 C 0.77959 0.87234 0.96795 0.0
H1219 H 0.81359 0.92712 0.044 0.0
H1220 H 0.80517 0.87975 0.03004 0.0
C1221 C 0.76813 0.88434 0.93813 0.0
C1222 C 0.13049 0.91151 1.00911 0.0
C1223 C 0.14712 0.9111 0.97191 0.0
H1224 H 0.09102 0.88999 0.04501 0.0
C1225 C 0.13574 0.88779 0.94189 0.0
H1226 H 0.13853 0.92903 0.033 0.0
C1227 C 0.10854 0.86577 0.94842 0.0
C1228 C 0.09206 0.86597 0.98587 0.0
H1229 H 0.14778 0.88666 0.91279 0.0
H1230 H 0.10037 0.84834 0.92435 0.0
C1231 C 0.10337 0.88909 0.01626 0.0
C1232 C 0.15433 0.25152 0.99119 0.0
C1233 C 0.14852 0.22403 0.99639 0.0
H1234 H 0.13834 0.27887 0.97905 0.0
C1235 C 0.12063 0.20257 0.99362 0.0
H1236 H 0.17556 0.26846 0.99232 0.0
C1237 C 0.09907 0.20854 0.98623 0.0
C1238 C 0.105 0.23608 0.98017 0.0
H1239 H 0.11555 0.18117 0.99728 0.0
H1240 H 0.07788 0.19157 0.98401 0.0
C1241 C 0.13293 0.25743 0.98304 0.0
C1242 C 0.92367 0.8088 0.53405 0.0
C1243 C 0.92995 0.78725 0.53159 0.0
H1244 H 0.89222 0.82015 0.54318 0.0
C1245 C 0.90819 0.75981 0.53728 0.0
H1246 H 0.94005 0.83016 0.53004 0.0
C1247 C 0.88092 0.75409 0.54565 0.0
C1248 C 0.87453 0.7756 0.54797 0.0
H1249 H 0.91242 0.74282 0.53634 0.0
H1250 H 0.86478 0.73271 0.55005 0.0
C1251 C 0.89627 0.80304 0.54148 0.0
C1252 C 0.22512 0.10257 0.51582 0.0
C1253 C 0.24124 0.10249 0.5542 0.0
H1254 H 0.20828 0.12476 0.47863 0.0
C1255 C 0.25247 0.12541 0.58508 0.0
H1256 H 0.21625 0.08537 0.49124 0.0
C1257 C 0.24769 0.14762 0.5781 0.0
C1258 C 0.23206 0.14802 0.53944 0.0
H1259 H 0.26492 0.12617 0.6151 0.0
H1260 H 0.25651 0.16477 0.60278 0.0
C1261 C 0.22078 0.12522 0.5083 0.0
C1262 C 0.89001 0.12923 0.58774 0.0
C1263 C 0.91354 0.14118 0.55815 0.0
H1264 H 0.85042 0.09362 0.60364 0.0
C1265 C 0.91419 0.12525 0.51997 0.0
H1266 H 0.88863 0.14073 0.61746 0.0
C1267 C 0.89179 0.09828 0.51148 0.0
C1268 C 0.86845 0.08643 0.54145 0.0
H1269 H 0.93185 0.13376 0.4963 0.0
H1270 H 0.89288 0.08648 0.48202 0.0
C1271 C 0.86803 0.1022 0.57986 0.0
C1272 C 0.89095 0.45823 0.35034 0.0
C1273 C 0.90729 0.47429 0.38862 0.0
H1274 H 0.87365 0.41924 0.31306 0.0
C1275 C 0.91846 0.46235 0.41921 0.0
H1276 H 0.88212 0.46674 0.32596 0.0
C1277 C 0.91334 0.43524 0.41213 0.0
C1278 C 0.89745 0.41935 0.3736 0.0
H1279 H 0.9311 0.47393 0.44912 0.0
H1280 H 0.92209 0.42671 0.43663 0.0
C1281 C 0.8863 0.43115 0.34268 0.0
C1282 C 0.58149 0.47981 0.41277 0.0
C1283 C 0.59729 0.48012 0.37386 0.0
H1284 H 0.54289 0.45864 0.45001 0.0
C1285 C 0.58544 0.4574 0.34256 0.0
H1286 H 0.59007 0.49691 0.43756 0.0
C1287 C 0.55836 0.43493 0.35016 0.0
C1288 C 0.54238 0.43495 0.38878 0.0
H1289 H 0.59728 0.45688 0.31265 0.0
H1290 H 0.54979 0.41779 0.32545 0.0
C1291 C 0.5544 0.4578 0.41982 0.0
C1292 C 0.5357 0.10138 0.40826 0.0
C1293 C 0.53583 0.11793 0.37061 0.0
H1294 H 0.55678 0.08337 0.44438 0.0
C1295 C 0.55903 0.1299 0.34035 0.0
H1296 H 0.51821 0.09199 0.43224 0.0
C1297 C 0.5816 0.12544 0.3478 0.0
C1298 C 0.58126 0.10851 0.3852 0.0
H1299 H 0.55989 0.14308 0.31147 0.0
H1300 H 0.59917 0.13501 0.32399 0.0
C1301 C 0.55787 0.09645 0.41511 0.0
C1302 C 0.79067 0.54224 0.81811 0.0
C1303 C 0.81228 0.56978 0.81215 0.0
H1304 H 0.74687 0.51492 0.82939 0.0
C1305 C 0.80579 0.59118 0.81557 0.0
H1306 H 0.79484 0.52524 0.81553 0.0
C1307 C 0.77853 0.5853 0.82414 0.0
C1308 C 0.75685 0.55781 0.82917 0.0
H1309 H 0.82184 0.61262 0.81169 0.0
H1310 H 0.77427 0.60226 0.82562 0.0
C1311 C 0.76321 0.53632 0.82588 0.0
C1312 C 0.43814 0.19834 0.78278 0.0
C1313 C 0.45495 0.1986 0.82008 0.0
H1314 H 0.41961 0.21917 0.7474 0.0
C1315 C 0.4668 0.2217 0.85048 0.0
H1316 H 0.42884 0.18091 0.75871 0.0
C1317 C 0.46201 0.24407 0.84349 0.0
C1318 C 0.44483 0.24361 0.80645 0.0
H1319 H 0.48014 0.22263 0.87911 0.0
H1320 H 0.47151 0.26158 0.86738 0.0
C1321 C 0.43286 0.22032 0.7764 0.0
C1322 C 0.79765 0.21729 0.77323 0.0
C1323 C 0.77401 0.20544 0.80259 0.0
H1324 H 0.83743 0.25268 0.75771 0.0
C1325 C 0.7734 0.22136 0.84082 0.0
H1326 H 0.79902 0.2058 0.74348 0.0
C1327 C 0.79596 0.24823 0.84955 0.0
C1328 C 0.8194 0.25997 0.81978 0.0
H1329 H 0.75567 0.21292 0.86432 0.0
H1330 H 0.79489 0.26006 0.879 0.0
C1331 C 0.81977 0.24419 0.78136 0.0
C1332 C 0.46224 0.22067 0.34285 0.0
C1333 C 0.44602 0.20485 0.30426 0.0
H1334 H 0.47913 0.25927 0.38129 0.0
C1335 C 0.43442 0.21678 0.27457 0.0
H1336 H 0.47138 0.21218 0.36662 0.0
C1337 C 0.4391 0.24365 0.28271 0.0
C1338 C 0.45495 0.25934 0.32146 0.0
H1339 H 0.4218 0.20538 0.24455 0.0
H1340 H 0.43009 0.25219 0.25878 0.0
C1341 C 0.46646 0.24753 0.35157 0.0
C1342 C 0.76894 0.22216 0.34868 0.0
C1343 C 0.75765 0.19911 0.31815 0.0
H1344 H 0.8042 0.26193 0.36586 0.0
C1345 C 0.77418 0.19885 0.28086 0.0
H1346 H 0.75654 0.22308 0.37732 0.0
C1347 C 0.80145 0.22075 0.27464 0.0
C1348 C 0.81284 0.24398 0.30485 0.0
H1349 H 0.76601 0.18145 0.25673 0.0
H1350 H 0.81353 0.21959 0.24565 0.0
C1351 C 0.79614 0.24447 0.34185 0.0
C1352 C 0.80012 0.59219 0.3123 0.0
C1353 C 0.77221 0.57075 0.30994 0.0
H1354 H 0.84284 0.60333 0.32165 0.0
C1355 C 0.76641 0.54327 0.3164 0.0
H1356 H 0.80542 0.61358 0.30796 0.0
C1357 C 0.788 0.53742 0.32387 0.0
C1358 C 0.81584 0.55891 0.32637 0.0
H1359 H 0.74524 0.52622 0.31467 0.0
H1360 H 0.78297 0.51604 0.3279 0.0
C1361 C 0.82161 0.58638 0.32068 0.0
C1362 C 0.57572 0.09382 0.8701 0.0
C1363 C 0.59743 0.12132 0.86494 0.0
H1364 H 0.53232 0.06652 0.88247 0.0
C1365 C 0.59107 0.14279 0.86815 0.0
H1366 H 0.57999 0.07686 0.8686 0.0
C1367 C 0.56362 0.13689 0.87575 0.0
C1368 C 0.54192 0.10936 0.88166 0.0
H1369 H 0.6074 0.1642 0.86455 0.0
H1370 H 0.55949 0.15392 0.87803 0.0
C1371 C 0.54841 0.08794 0.8786 0.0
C1372 C 0.88771 0.45837 0.84072 0.0
C1373 C 0.89886 0.4812 0.87179 0.0
H1374 H 0.88322 0.41849 0.82406 0.0
C1375 C 0.91431 0.48082 0.91075 0.0
H1376 H 0.87533 0.45789 0.81082 0.0
C1377 C 0.91904 0.4586 0.91809 0.0
C1378 C 0.90792 0.43564 0.88729 0.0
H1379 H 0.92303 0.49799 0.93539 0.0
H1380 H 0.93135 0.45938 0.94835 0.0
C1381 C 0.892 0.43571 0.8486 0.0
C1382 C 0.55784 0.46262 0.91995 0.0
C1383 C 0.58104 0.47451 0.88961 0.0
H1384 H 0.51865 0.4269 0.93738 0.0
C1385 C 0.58158 0.4583 0.85182 0.0
H1386 H 0.5566 0.47432 0.94949 0.0
C1387 C 0.55931 0.43111 0.84437 0.0
C1388 C 0.53628 0.41936 0.87505 0.0
H1389 H 0.599 0.46675 0.82766 0.0
H1390 H 0.56024 0.4191 0.81512 0.0
C1391 C 0.53602 0.4354 0.91311 0.0
C1392 C 0.58663 0.79621 0.75431 0.0
C1393 C 0.57516 0.80817 0.72442 0.0
H1394 H 0.59038 0.76052 0.77078 0.0
C1395 C 0.55848 0.79215 0.6864 0.0
H1396 H 0.59958 0.80779 0.78393 0.0
C1397 C 0.55373 0.76509 0.67832 0.0
C1398 C 0.56514 0.75325 0.70855 0.0
H1399 H 0.54941 0.80067 0.66254 0.0
H1400 H 0.54081 0.75322 0.64892 0.0
C1401 C 0.58141 0.76909 0.74683 0.0
C1402 C 0.22069 0.79186 0.7511 0.0
C1403 C 0.20879 0.76887 0.72038 0.0
H1404 H 0.25618 0.83119 0.76836 0.0
C1405 C 0.22476 0.76882 0.68177 0.0
H1406 H 0.20918 0.79272 0.78129 0.0
C1407 C 0.25174 0.7914 0.67389 0.0
C1408 C 0.26348 0.81426 0.7049 0.0
H1409 H 0.21626 0.75157 0.65729 0.0
H1410 H 0.2636 0.79084 0.64405 0.0
C1411 C 0.24767 0.81399 0.74378 0.0
C1412 C 0.23354 0.47572 0.70242 0.0
C1413 C 0.20575 0.4541 0.69967 0.0
H1414 H 0.27637 0.48721 0.71188 0.0
C1415 C 0.2002 0.42669 0.70518 0.0
H1416 H 0.23843 0.49706 0.69857 0.0
C1417 C 0.22182 0.42105 0.71364 0.0
C1418 C 0.24968 0.44263 0.71627 0.0
H1419 H 0.17903 0.40963 0.70405 0.0
H1420 H 0.21667 0.39969 0.71789 0.0
C1421 C 0.25526 0.47005 0.70995 0.0
C1422 C 0.43075 0.87115 0.15658 0.0
C1423 C 0.4243 0.89257 0.15915 0.0
H1424 H 0.46243 0.86012 0.14734 0.0
C1425 C 0.4459 0.92007 0.15346 0.0
H1426 H 0.41448 0.84975 0.1606 0.0
C1427 C 0.47322 0.926 0.14508 0.0
C1428 C 0.47981 0.90464 0.14269 0.0
H1429 H 0.44152 0.93696 0.15448 0.0
H1430 H 0.48924 0.94742 0.14076 0.0
C1431 C 0.45821 0.87711 0.1491 0.0
C1432 C 0.13947 0.5842 0.14891 0.0
C1433 C 0.11198 0.57817 0.14132 0.0
H1434 H 0.16695 0.56803 0.16119 0.0
C1435 C 0.09078 0.55011 0.14212 0.0
H1436 H 0.15636 0.60548 0.14837 0.0
C1437 C 0.09683 0.52876 0.15029 0.0
C1438 C 0.12431 0.5348 0.15729 0.0
H1439 H 0.06939 0.5446 0.13675 0.0
H1440 H 0.08007 0.50743 0.15018 0.0
C1441 C 0.14557 0.56277 0.15615 0.0
C1442 C 0.48495 0.57778 0.11625 0.0
C1443 C 0.48492 0.59377 0.1546 0.0
H1444 H 0.46406 0.53903 0.07944 0.0
C1445 C 0.46193 0.58203 0.18539 0.0
H1446 H 0.50226 0.58626 0.09186 0.0
C1447 C 0.43948 0.55493 0.17774 0.0
C1448 C 0.43979 0.53879 0.13964 0.0
H1449 H 0.46116 0.594 0.21487 0.0
H1450 H 0.4221 0.5465 0.20199 0.0
C1451 C 0.46296 0.55066 0.10922 0.0
C1452 C 0.10645 0.57702 0.61717 0.0
C1453 C 0.12239 0.59299 0.65559 0.0
H1454 H 0.08898 0.53845 0.57993 0.0
C1455 C 0.13393 0.58139 0.68612 0.0
H1456 H 0.09742 0.5854 0.59293 0.0
C1457 C 0.12961 0.55443 0.67814 0.0
C1458 C 0.11323 0.53832 0.63993 0.0
H1459 H 0.14666 0.59336 0.71561 0.0
H1460 H 0.13874 0.54608 0.7022 0.0
C1461 C 0.10166 0.55006 0.60978 0.0
C1462 C 0.46947 0.55443 0.60871 0.0
C1463 C 0.48087 0.57788 0.63842 0.0
H1464 H 0.43404 0.51493 0.59161 0.0
C1465 C 0.46428 0.5785 0.67549 0.0
H1466 H 0.48149 0.55316 0.57972 0.0
C1467 C 0.43716 0.55615 0.68283 0.0
C1468 C 0.42582 0.53291 0.65275 0.0
H1469 H 0.47235 0.59612 0.69914 0.0
H1470 H 0.42484 0.5572 0.71149 0.0
C1471 C 0.44225 0.53248 0.61542 0.0
C1472 C 0.48813 0.91858 0.65574 0.0
C1473 C 0.4823 0.8911 0.66122 0.0
H1474 H 0.47215 0.94592 0.64322 0.0
C1475 C 0.45442 0.86964 0.65851 0.0
H1476 H 0.50937 0.93551 0.65681 0.0
C1477 C 0.43287 0.8756 0.65098 0.0
C1478 C 0.4388 0.90313 0.64468 0.0
H1479 H 0.44933 0.84824 0.66237 0.0
H1480 H 0.41167 0.85862 0.6489 0.0
C1481 C 0.46673 0.92448 0.64741 0.0
C1482 C 0.22934 0.46949 0.21088 0.0
C1483 C 0.20761 0.442 0.21711 0.0
H1484 H 0.27311 0.49671 0.19942 0.0
C1485 C 0.21406 0.42054 0.21433 0.0
H1486 H 0.22526 0.48656 0.21289 0.0
C1487 C 0.24136 0.42634 0.20574 0.0
C1488 C 0.2631 0.45382 0.20027 0.0
H1489 H 0.19796 0.39914 0.21852 0.0
H1490 H 0.24561 0.40937 0.20445 0.0
C1491 C 0.25676 0.47532 0.20323 0.0
C1492 C 0.54836 0.76327 0.211 0.0
C1493 C 0.57588 0.76927 0.21801 0.0
H1494 H 0.52088 0.77951 0.19927 0.0
C1495 C 0.59712 0.7973 0.21665 0.0
H1496 H 0.53144 0.74201 0.21196 0.0
C1497 C 0.59109 0.81867 0.20861 0.0
C1498 C 0.56359 0.81268 0.20223 0.0
H1499 H 0.61853 0.80278 0.22151 0.0
H1500 H 0.6079 0.83997 0.20834 0.0
C1501 C 0.54228 0.78473 0.20384 0.0
C1502 C 0.22528 0.79585 0.25254 0.0
C1503 C 0.24832 0.80776 0.22186 0.0
H1504 H 0.18602 0.76023 0.27 0.0
C1505 C 0.24854 0.79171 0.18355 0.0
H1506 H 0.22428 0.80743 0.28248 0.0
C1507 C 0.22608 0.76465 0.1759 0.0
C1508 C 0.20319 0.75289 0.20688 0.0
H1509 H 0.26582 0.80021 0.15911 0.0
H1510 H 0.22675 0.75275 0.14622 0.0
C1511 C 0.20328 0.76876 0.24548 0.0
C1512 C 0.31963 0.17351 0.19013 0.0
C1513 C 0.34416 0.19908 0.18344 0.0
H1514 H 0.30123 0.12923 0.19333 0.0
C1515 C 0.36909 0.19985 0.17374 0.0
H1516 H 0.30006 0.17281 0.19618 0.0
C1517 C 0.36948 0.17514 0.17063 0.0
C1518 C 0.34493 0.14958 0.17717 0.0
H1519 H 0.38786 0.21942 0.16727 0.0
H1520 H 0.38904 0.17583 0.16453 0.0
C1521 C 0.32001 0.14881 0.18696 0.0
C1522 C 0.82 0.17248 0.16002 0.0
C1523 C 0.8182 0.14876 0.18044 0.0
H1524 H 0.84632 0.21558 0.14461 0.0
C1525 C 0.84199 0.14981 0.19969 0.0
H1526 H 0.80196 0.17163 0.1438 0.0
C1527 C 0.86736 0.17436 0.19848 0.0
C1528 C 0.86916 0.19809 0.1781 0.0
H1529 H 0.84104 0.13127 0.21391 0.0
H1530 H 0.88541 0.17521 0.21473 0.0
C1531 C 0.84537 0.19703 0.15881 0.0
C1532 C 0.82044 0.65149 0.15719 0.0
C1533 C 0.81845 0.67366 0.17666 0.0
H1534 H 0.84697 0.63471 0.14251 0.0
C1535 C 0.8417 0.69585 0.19756 0.0
H1536 H 0.80231 0.6337 0.1425 0.0
C1537 C 0.86667 0.69583 0.1992 0.0
C1538 C 0.86864 0.67364 0.17985 0.0
H1539 H 0.84015 0.71261 0.2139 0.0
H1540 H 0.8848 0.71361 0.21395 0.0
C1541 C 0.84542 0.65149 0.1588 0.0
C1542 C 0.14937 0.31595 0.32729 0.0
C1543 C 0.14771 0.33783 0.34811 0.0
H1544 H 0.17552 0.2991 0.3111 0.0
C1545 C 0.17157 0.36031 0.36772 0.0
H1546 H 0.13129 0.29898 0.31077 0.0
C1547 C 0.19687 0.36101 0.36612 0.0
C1548 C 0.19854 0.33919 0.34514 0.0
H1549 H 0.17077 0.37788 0.3823 0.0
H1550 H 0.21497 0.37804 0.38247 0.0
C1551 C 0.17467 0.31663 0.32576 0.0
C1552 C 0.70151 0.83883 0.32711 0.0
C1553 C 0.67964 0.8152 0.34782 0.0
H1554 H 0.71817 0.88183 0.31086 0.0
C1555 C 0.65695 0.81638 0.36698 0.0
H1556 H 0.71867 0.8379 0.31096 0.0
C1557 C 0.65606 0.84088 0.36514 0.0
C1558 C 0.67787 0.86447 0.34431 0.0
H1559 H 0.63939 0.79793 0.38148 0.0
H1560 H 0.63885 0.84178 0.38117 0.0
C1561 C 0.70064 0.86337 0.32536 0.0
C1562 C 0.17812 0.86332 0.32743 0.0
C1563 C 0.20186 0.86565 0.34863 0.0
H1564 H 0.13535 0.83633 0.31097 0.0
C1565 C 0.20114 0.84217 0.36868 0.0
H1566 H 0.17877 0.88111 0.31054 0.0
C1567 C 0.17696 0.81655 0.36709 0.0
C1568 C 0.15325 0.81421 0.34576 0.0
H1569 H 0.21974 0.84354 0.38349 0.0
H1570 H 0.17631 0.79875 0.38395 0.0
C1571 C 0.15395 0.8377 0.32583 0.0
C1572 C 0.70231 0.84097 0.83592 0.0
C1573 C 0.67764 0.8156 0.84318 0.0
H1574 H 0.7211 0.88525 0.83148 0.0
C1575 C 0.65291 0.81521 0.85294 0.0
H1576 H 0.72174 0.84138 0.82982 0.0
C1577 C 0.65283 0.84009 0.85542 0.0
C1578 C 0.6775 0.86546 0.84814 0.0
H1579 H 0.63404 0.7958 0.85984 0.0
H1580 H 0.6334 0.83967 0.86152 0.0
C1581 C 0.70223 0.86585 0.83839 0.0
C1582 C 0.1783 0.81882 0.86564 0.0
C1583 C 0.15453 0.81781 0.84635 0.0
H1584 H 0.22173 0.84415 0.88048 0.0
C1585 C 0.15642 0.84143 0.82539 0.0
H1586 H 0.17726 0.80031 0.88019 0.0
C1587 C 0.18183 0.86589 0.82383 0.0
C1588 C 0.20558 0.86696 0.84337 0.0
H1589 H 0.1384 0.84056 0.80903 0.0
H1590 H 0.18282 0.8844 0.80938 0.0
C1591 C 0.20372 0.84328 0.86405 0.0
C1592 C 0.15689 0.31694 0.82647 0.0
C1593 C 0.1551 0.33931 0.8455 0.0
H1594 H 0.18319 0.29986 0.81224 0.0
C1595 C 0.17832 0.36134 0.86671 0.0
H1596 H 0.13873 0.29924 0.81165 0.0
C1597 C 0.20314 0.36108 0.86878 0.0
C1598 C 0.20499 0.33881 0.84946 0.0
H1599 H 0.17687 0.37822 0.88283 0.0
H1600 H 0.2213 0.37884 0.88348 0.0
C1601 C 0.18173 0.31669 0.82851 0.0
C1602 C 0.8168 0.65015 0.66104 0.0
C1603 C 0.81552 0.67224 0.68181 0.0
H1604 H 0.84253 0.6329 0.64433 0.0
C1605 C 0.83961 0.69466 0.70097 0.0
H1606 H 0.79853 0.63321 0.6449 0.0
C1607 C 0.86477 0.69509 0.6989 0.0
C1608 C 0.86607 0.67309 0.67787 0.0
H1609 H 0.83908 0.71239 0.71552 0.0
H1610 H 0.88305 0.71207 0.71494 0.0
C1611 C 0.84197 0.65059 0.65898 0.0
C1612 C 0.3661 0.17466 0.65877 0.0
C1613 C 0.34453 0.15086 0.67954 0.0
H1614 H 0.38235 0.21768 0.64353 0.0
C1615 C 0.32175 0.1516 0.69929 0.0
H1616 H 0.38327 0.17401 0.64207 0.0
C1617 C 0.32058 0.17597 0.69834 0.0
C1618 C 0.34223 0.19983 0.67784 0.0
H1619 H 0.30439 0.13295 0.71371 0.0
H1620 H 0.30342 0.17661 0.7151 0.0
C1621 C 0.36495 0.19904 0.65786 0.0
C1622 C 0.84495 0.19936 0.67354 0.0
C1623 C 0.86925 0.19884 0.68326 0.0
H1624 H 0.80101 0.17503 0.66454 0.0
C1625 C 0.86846 0.17341 0.69032 0.0
H1626 H 0.84556 0.21882 0.66681 0.0
C1627 C 0.84348 0.14858 0.68748 0.0
C1628 C 0.81921 0.14909 0.67761 0.0
H1629 H 0.88743 0.1729 0.6964 0.0
H1630 H 0.84288 0.12911 0.69411 0.0
C1631 C 0.81998 0.17453 0.67071 0.0
C1632 C 0.03317 0.52993 0.49489 0.0
C1633 C 0.01174 0.53226 0.51597 0.0
H1634 H 0.04902 0.50296 0.4788 0.0
C1635 C 0.98905 0.50882 0.53617 0.0
H1636 H 0.05027 0.54769 0.47789 0.0
C1637 C 0.98768 0.48322 0.53487 0.0
C1638 C 1.00906 0.48087 0.51364 0.0
H1639 H 0.9718 0.51019 0.55089 0.0
H1640 H 0.97057 0.46545 0.55182 0.0
C1641 C 0.0318 0.50433 0.49357 0.0
C1642 C 0.5379 0.51017 0.53124 0.0
C1643 C 0.53966 0.53377 0.51039 0.0
H1644 H 0.51153 0.46724 0.54786 0.0
C1645 C 0.51583 0.53259 0.49101 0.0
H1646 H 0.55597 0.51112 0.54756 0.0
C1647 C 0.49044 0.50813 0.49294 0.0
C1648 C 0.48865 0.4846 0.51409 0.0
H1649 H 0.51674 0.55104 0.47643 0.0
H1650 H 0.47235 0.50718 0.47672 0.0
C1651 C 0.51249 0.4857 0.53318 0.0
C1652 C 0.53538 0.02895 0.53379 0.0
C1653 C 0.53684 1.0064 0.51475 0.0
H1654 H 0.50951 0.04654 0.54794 0.0
C1655 C 0.51342 0.98442 0.49392 0.0
H1656 H 0.55371 0.04661 0.5483 0.0
C1657 C 0.48879 0.98503 0.49186 0.0
C1658 C 0.48731 0.00756 0.51092 0.0
H1659 H 0.51462 0.96741 0.47779 0.0
H1660 H 0.47048 0.96738 0.47728 0.0
C1661 C 0.51072 0.02954 0.53181 0.0
C1662 C 0.53555 0.02982 0.03233 0.0
C1663 C 0.53697 0.00781 1.01153 0.0
H1664 H 0.50973 0.04705 0.04855 0.0
C1665 C 0.51295 0.98537 0.99224 0.0
H1666 H 0.55376 0.04678 0.04858 0.0
C1667 C 0.48776 0.98493 0.99389 0.0
C1668 C 0.48635 1.00693 0.01472 0.0
H1669 H 0.51357 0.9677 0.97767 0.0
H1670 H 0.46955 0.96795 0.97771 0.0
C1671 C 0.51036 0.02939 0.03395 0.0
C1672 C 0.03151 0.50818 0.99283 0.0
C1673 C 1.00978 0.48466 0.01395 0.0
H1674 H 0.04812 0.55106 0.9762 0.0
C1675 C 0.987 0.48576 0.03285 0.0
H1676 H 0.04868 0.50723 0.97675 0.0
C1677 C 0.98607 0.51025 0.03086 0.0
C1678 C 1.00793 0.53386 1.01008 0.0
H1679 H 0.96952 0.46731 0.0475 0.0
H1680 H 0.96895 0.51121 0.04709 0.0
C1681 C 0.03057 0.53264 0.99078 0.0
C1682 C 0.51043 0.4841 0.03486 0.0
C1683 C 0.48659 0.4815 0.01365 0.0
H1684 H 0.5532 0.51138 0.05088 0.0
C1685 C 0.48702 0.50484 0.9936 0.0
H1686 H 0.50999 0.46642 0.05181 0.0
C1687 C 0.51108 0.53057 0.99491 0.0
C1688 C 0.53496 0.53314 0.01596 0.0
H1689 H 0.46832 0.50327 0.97884 0.0
H1690 H 0.51153 0.54823 0.97788 0.0
C1691 C 0.53449 0.50983 0.03619 0.0
C1692 C 0.34942 0.27285 0.98046 0.0
C1693 C 0.32109 0.25763 0.96663 0.0
H1694 H 0.3925 0.29531 0.95952 0.0
C1695 C 0.31545 0.25458 0.91802 0.0
H1696 H 0.35488 0.27621 0.01753 0.0
C1697 C 0.33729 0.26561 0.88468 0.0
C1698 C 0.36565 0.28041 0.89851 0.0
H1699 H 0.2942 0.24319 0.90567 0.0
H1700 H 0.33179 0.2623 0.84761 0.0
C1701 C 0.37125 0.28407 0.94712 0.0
C1702 C 0.74462 0.081 0.97532 0.0
C1703 C 0.75837 0.06634 0.9618 0.0
H1704 H 0.72381 0.10322 0.95383 0.0
C1705 C 0.76051 0.06271 0.91325 0.0
H1706 H 0.74227 0.08427 1.01233 0.0
C1707 C 0.74992 0.07384 0.87965 0.0
C1708 C 0.73661 0.08891 0.89317 0.0
H1709 H 0.77069 0.05159 0.9011 0.0
H1710 H 0.75222 0.07056 0.84264 0.0
C1711 C 0.73382 0.09192 0.94172 0.0
C1712 C 0.92819 0.64612 0.94308 0.0
C1713 C 0.9295 0.65173 0.89453 0.0
H1714 H 0.93725 0.66248 0.01343 0.0
C1715 C 0.94281 0.68006 0.88061 0.0
H1716 H 0.91827 0.62487 0.95549 0.0
C1717 C 0.95404 0.7019 0.91385 0.0
C1718 C 0.95215 0.69627 0.96244 0.0
H1719 H 0.9445 0.68554 0.84355 0.0
H1720 H 0.96372 0.72314 0.90145 0.0
C1721 C 0.93916 0.66795 0.97634 0.0
C1722 C 0.26258 0.31309 0.61109 0.0
C1723 C 0.26301 0.31866 0.56267 0.0
H1724 H 0.27277 0.32949 0.68132 0.0
C1725 C 0.27593 0.34698 0.54877 0.0
H1726 H 0.25302 0.29185 0.62347 0.0
C1727 C 0.28761 0.36883 0.58193 0.0
C1728 C 0.2866 0.36323 0.63043 0.0
H1729 H 0.27696 0.35244 0.51179 0.0
H1730 H 0.29693 0.39006 0.56959 0.0
C1731 C 0.27402 0.33493 0.6443 0.0
C1732 C 0.68287 0.93947 0.64445 0.0
C1733 C 0.65449 0.9243 0.63095 0.0
H1734 H 0.72586 0.96186 0.62304 0.0
C1735 C 0.64866 0.92121 0.58239 0.0
H1736 H 0.68847 0.94284 0.68147 0.0
C1737 C 0.67038 0.93217 0.54879 0.0
C1738 C 0.69878 0.94695 0.56232 0.0
H1739 H 0.62736 0.90984 0.57027 0.0
H1740 H 0.66474 0.92884 0.51177 0.0
C1741 C 0.70457 0.95064 0.61087 0.0
C1742 C 0.06624 0.75763 0.61111 0.0
C1743 C 0.06896 0.75475 0.56249 0.0
H1744 H 0.07521 0.75016 0.6815 0.0
C1745 C 0.08268 0.74012 0.54861 0.0
H1746 H 0.05597 0.76861 0.6235 0.0
C1747 C 0.09362 0.72918 0.58191 0.0
C1748 C 0.09161 0.73276 0.6305 0.0
H1749 H 0.08519 0.73718 0.5115 0.0
H1750 H 0.10415 0.71845 0.56951 0.0
C1751 C 0.0775 0.747 0.6444 0.0
C1752 C 0.68412 0.74719 0.14232 0.0
C1753 C 0.65568 0.73295 0.12889 0.0
H1754 H 0.72712 0.76918 0.1208 0.0
C1755 C 0.64984 0.72987 0.08032 0.0
H1756 H 0.68982 0.75005 0.17933 0.0
C1757 C 0.67154 0.74113 0.0467 0.0
C1758 C 0.69995 0.7558 0.06017 0.0
H1759 H 0.62853 0.71911 0.06821 0.0
H1760 H 0.6659 0.73825 1.00968 0.0
C1761 C 0.7058 0.75825 0.1087 0.0
C1762 C 0.2597 0.9495 0.11161 0.0
C1763 C 0.26337 0.94774 0.06298 0.0
H1764 H 0.26651 0.93968 0.18175 0.0
C1765 C 0.27854 0.93463 0.04884 0.0
H1766 H 0.24828 0.95928 0.12418 0.0
C1767 C 0.28933 0.92344 0.08194 0.0
C1768 C 0.2851 0.92463 0.13052 0.0
H1769 H 0.28205 0.93282 1.01172 0.0
H1770 H 0.30057 0.91346 0.06937 0.0
C1771 C 0.27022 0.93804 0.14466 0.0
C1772 C 0.09603 0.36904 0.08047 0.0
C1773 C 0.09133 0.36353 0.12897 0.0
H1774 H 0.09018 0.3525 1.01042 0.0
C1775 C 0.07531 0.33526 0.14292 0.0
H1776 H 0.10817 0.39023 0.06807 0.0
C1777 C 0.06472 0.31337 0.10982 0.0
C1778 C 0.06997 0.31884 0.06141 0.0
H1779 H 0.071 0.32987 0.17993 0.0
H1780 H 0.05282 0.29217 0.12228 0.0
C1781 C 0.08566 0.34712 0.0474 0.0
C1782 C 0.74333 0.66775 0.47689 0.0
C1783 C 0.75788 0.69604 0.46262 0.0
H1784 H 0.72172 0.62459 0.45657 0.0
C1785 C 0.76087 0.7015 0.41396 0.0
H1786 H 0.74038 0.66238 0.51405 0.0
C1787 C 0.75019 0.67955 0.38097 0.0
C1788 C 0.73591 0.65126 0.39525 0.0
H1789 H 0.77182 0.72271 0.4013 0.0
H1790 H 0.75334 0.68492 0.34382 0.0
C1791 C 0.73246 0.6458 0.44389 0.0
C1792 C 0.34996 0.08097 0.47551 0.0
C1793 C 0.32154 0.06629 0.46212 0.0
H1794 H 0.39294 0.10291 0.45391 0.0
C1795 C 0.31567 0.06227 0.4136 0.0
H1796 H 0.35566 0.08448 0.5125 0.0
C1797 C 0.33735 0.07319 0.37991 0.0
C1798 C 0.36575 0.0883 0.39333 0.0
H1799 H 0.29435 0.05113 0.40156 0.0
H1800 H 0.33173 0.06976 0.3429 0.0
C1801 C 0.37162 0.09159 0.44186 0.0
C1802 C 0.95321 0.25426 0.41713 0.0
C1803 C 0.95058 0.25737 0.4657 0.0
H1804 H 0.94465 0.2619 0.34657 0.0
C1805 C 0.93744 0.27259 0.47929 0.0
H1806 H 0.9631 0.24287 0.40495 0.0
C1807 C 0.92685 0.28377 0.44578 0.0
C1808 C 0.92884 0.28005 0.39721 0.0
H1809 H 0.93527 0.27596 0.51632 0.0
H1810 H 0.91681 0.29501 0.458 0.0
C1811 C 0.94242 0.26524 0.3836 0.0
C1812 C 1.0039 0.60228 0.21577 0.0
C1813 C 0.03218 0.61472 0.22971 0.0
H1814 H 0.96077 0.58153 0.23646 0.0
C1815 C 0.03767 0.61564 0.27823 0.0
H1816 H 0.99852 0.60112 0.17874 0.0
C1817 C 0.01573 0.60403 0.31133 0.0
C1818 C 0.98743 0.59129 0.29736 0.0
H1819 H 0.05886 0.62484 0.29066 0.0
H1820 H 0.02112 0.60502 0.34833 0.0
C1821 C 0.98197 0.59094 0.24891 0.0
C1822 C 0.42698 0.39595 0.25006 0.0
C1823 C 0.42506 0.39956 0.29867 0.0
H1824 H 0.41848 0.40395 0.17969 0.0
C1825 C 0.41103 0.41387 0.31263 0.0
H1826 H 0.43744 0.38516 0.2376 0.0
C1827 C 0.39975 0.42452 0.27938 0.0
C1828 C 0.40238 0.4216 0.23074 0.0
H1829 H 0.40881 0.41706 0.34974 0.0
H1830 H 0.38954 0.43555 0.29182 0.0
C1831 C 0.41603 0.40692 0.21681 0.0
C1832 C 0.60399 1.00075 0.31111 0.0
C1833 C 0.61856 0.02901 0.29669 0.0
H1834 H 0.582 0.95756 0.29091 0.0
C1835 C 0.62216 0.0344 0.24805 0.0
H1836 H 0.60072 0.99545 0.34828 0.0
C1837 C 0.61117 0.01243 0.21516 0.0
C1838 C 0.59632 0.98417 0.22952 0.0
H1839 H 0.63313 0.05559 0.2353 0.0
H1840 H 0.61426 0.01776 0.17799 0.0
C1841 C 0.59318 0.97875 0.27819 0.0
C1842 C 0.39876 0.97889 0.77685 0.0
C1843 C 0.40307 0.9846 0.72834 0.0
H1844 H 0.40605 0.9951 0.8473 0.0
C1845 C 0.41808 0.01296 0.71458 0.0
H1846 H 0.38745 0.95761 0.78914 0.0
C1847 C 0.42867 0.03472 0.74795 0.0
C1848 C 0.42493 0.029 0.7965 0.0
H1849 H 0.42187 0.01851 0.67755 0.0
H1850 H 0.44022 0.05599 0.73567 0.0
C1851 C 0.40961 1.00065 0.81025 0.0
C1852 C 0.03954 0.42442 0.77915 0.0
C1853 C 0.03399 0.4215 0.73051 0.0
H1854 H 0.02304 0.41707 0.84946 0.0
C1855 C 1.00566 0.40691 0.7165 0.0
H1856 H 0.06078 0.43539 0.79162 0.0
C1857 C 0.98376 0.39605 0.74969 0.0
C1858 C 0.9893 0.39967 0.7983 0.0
H1859 H 1.00024 0.40393 0.67937 0.0
H1860 H 0.96252 0.38533 0.73719 0.0
C1861 C 0.01763 0.41388 0.81234 0.0
C1862 C 0.61225 0.60173 0.71562 0.0
C1863 C 0.59702 0.61482 0.72952 0.0
H1864 H 0.6342 0.58053 0.73649 0.0
C1865 C 0.59314 0.61648 0.7781 0.0
H1866 H 0.61592 0.59998 0.67855 0.0
C1867 C 0.60352 0.60497 0.81132 0.0
C1868 C 0.61847 0.59158 0.79742 0.0
H1869 H 0.58165 0.62622 0.79051 0.0
H1870 H 0.59964 0.60654 0.84835 0.0
C1871 C 0.62291 0.59048 0.74889 0.0
C1872 C 0.22429 0.20147 0.30243 0.0
C1873 C 0.21103 0.2165 0.3143 0.0
H1874 H 0.24118 0.18797 0.2471 0.0
C1875 C 0.20026 0.22529 0.277 0.0
H1876 H 0.23317 0.19469 0.32983 0.0
C1877 C 0.20451 0.22111 0.2293 0.0
C1878 C 0.22008 0.20843 0.2175 0.0
H1879 H 0.19004 0.23708 0.28467 0.0
H1880 H 0.19768 0.22995 0.20188 0.0
C1881 C 0.22896 0.19773 0.25476 0.0
C1882 C 0.79559 0.9872 0.2262 0.0
C1883 C 0.80838 0.01537 0.2136 0.0
H1884 H 0.77949 0.95716 0.28231 0.0
C1885 C 0.81906 0.03513 0.25058 0.0
H1886 H 0.78671 0.97136 0.19915 0.0
C1887 C 0.81526 0.02704 0.29856 0.0
C1888 C 0.80021 0.99886 0.31115 0.0
H1889 H 0.82888 0.05707 0.24243 0.0
H1890 H 0.82201 0.04287 0.3256 0.0
C1891 C 0.79137 0.97911 0.27417 0.0
C1892 C 0.03122 0.81201 0.22458 0.0
C1893 C 1.00297 0.79749 0.21233 0.0
H1894 H 0.06142 0.82502 0.28028 0.0
C1895 C 0.98336 0.78891 0.2495 0.0
H1896 H 0.04694 0.81857 0.19734 0.0
C1897 C 0.99163 0.79289 0.29734 0.0
C1898 C 0.01982 0.80516 0.30956 0.0
H1899 H 0.96136 0.77746 0.24161 0.0
H1900 H 0.97586 0.78429 0.32457 0.0
C1901 C 0.03949 0.81556 0.27241 0.0
C1902 C 0.82073 0.78931 0.74825 0.0
C1903 C 0.80958 0.79793 0.71127 0.0
H1904 H 0.8237 0.78453 0.82325 0.0
C1905 C 0.79598 0.81254 0.72369 0.0
H1906 H 0.83118 0.7778 0.74017 0.0
C1907 C 0.7914 0.81605 0.77155 0.0
C1908 C 0.80067 0.80551 0.80851 0.0
H1909 H 0.78675 0.81913 0.69658 0.0
H1910 H 0.77894 0.82551 0.77961 0.0
C1911 C 0.81655 0.79324 0.79613 0.0
C1912 C 0.20204 0.9801 0.77609 0.0
C1913 C 0.21351 0.99984 0.81299 0.0
H1914 H 0.19852 0.97228 0.70111 0.0
C1915 C 0.22735 0.02804 0.80036 0.0
H1916 H 0.19144 0.95814 0.78431 0.0
C1917 C 0.23175 0.03609 0.75238 0.0
C1918 C 0.22205 0.01627 0.71547 0.0
H1919 H 0.23688 0.04383 0.82737 0.0
H1920 H 0.24435 0.05797 0.74418 0.0
C1921 C 0.206 0.98817 0.72812 0.0
C1922 C 0.98259 0.1975 0.75426 0.0
C1923 C 1.00217 0.20801 0.71703 0.0
H1924 H 0.97533 0.19457 0.82931 0.0
C1925 C 0.0304 0.22047 0.72891 0.0
H1926 H 0.96062 0.1879 0.74654 0.0
C1927 C 0.03882 0.2246 0.77663 0.0
C1928 C 0.01927 0.216 0.81389 0.0
H1929 H 0.04607 0.22916 0.70152 0.0
H1930 H 0.06083 0.23622 0.78435 0.0
C1931 C 0.99099 0.2012 0.80195 0.0
C1932 C 0.89138 0.53468 0.63376 0.0
C1933 C 0.87815 0.54974 0.64563 0.0
H1934 H 0.90814 0.521 0.57847 0.0
C1935 C 0.86744 0.55856 0.60827 0.0
H1936 H 0.90023 0.52787 0.66119 0.0
C1937 C 0.87165 0.55431 0.56056 0.0
C1938 C 0.88712 0.54152 0.54874 0.0
H1939 H 0.85725 0.57038 0.6159 0.0
H1940 H 0.8648 0.56313 0.53313 0.0
C1941 C 0.896 0.53086 0.58608 0.0
C1942 C 0.48572 0.36833 0.5871 0.0
C1943 C 0.47517 0.34859 0.55008 0.0
H1944 H 0.48853 0.37596 0.66212 0.0
C1945 C 0.4625 0.32042 0.56256 0.0
H1946 H 0.49546 0.39026 0.57902 0.0
C1947 C 0.45823 0.31226 0.61048 0.0
C1948 C 0.46694 0.33197 0.64749 0.0
H1949 H 0.45375 0.3046 0.53546 0.0
H1950 H 0.44642 0.2903 0.61856 0.0
C1951 C 0.48189 0.36017 0.63503 0.0
C1952 C 0.64991 0.12323 0.58169 0.0
C1953 C 0.6696 0.13165 0.54466 0.0
H1954 H 0.64229 0.1187 0.6567 0.0
C1955 C 0.69782 0.14629 0.55693 0.0
H1956 H 0.62793 0.11167 0.57368 0.0
C1957 C 0.706 0.14997 0.60477 0.0
C1958 C 0.68626 0.13955 0.64181 0.0
H1959 H 0.71356 0.15269 0.52976 0.0
H1960 H 0.72792 0.15941 0.61276 0.0
C1961 C 0.6581 0.12732 0.62953 0.0
C1962 C 0.45909 0.14939 0.10638 0.0
C1963 C 0.46808 0.13864 0.14344 0.0
H1964 H 0.4545 0.15245 0.03138 0.0
C1965 C 0.48346 0.12582 0.13114 0.0
H1966 H 0.44699 0.15924 0.11436 0.0
C1967 C 0.48743 0.12163 0.08326 0.0
C1968 C 0.47658 0.13051 0.04619 0.0
H1969 H 0.49035 0.1169 0.15832 0.0
H1970 H 0.49752 0.10975 0.07528 0.0
C1971 C 0.46348 0.14562 0.05853 0.0
C1972 C 0.86837 0.31233 0.10894 0.0
C1973 C 0.87937 0.33197 0.14605 0.0
H1974 H 0.86525 0.30482 0.03388 0.0
C1975 C 0.89262 0.3602 0.13375 0.0
H1976 H 0.85821 0.29035 0.1169 0.0
C1977 C 0.89697 0.36845 0.08588 0.0
C1978 C 0.8878 0.34878 0.04876 0.0
H1979 H 0.90175 0.37593 0.16094 0.0
H1980 H 0.90918 0.39039 0.07792 0.0
C1981 C 0.87229 0.32058 0.06107 0.0
C1982 C 0.70421 0.55749 0.1098 0.0
C1983 C 0.68464 0.54906 0.147 0.0
H1984 H 0.7116 0.56195 0.03473 0.0
C1985 C 0.65637 0.53452 0.13495 0.0
H1986 H 0.72622 0.56894 0.11761 0.0
C1987 C 0.64804 0.53087 0.08719 0.0
C1988 C 0.66767 0.54121 0.05 0.0
H1989 H 0.6407 0.52807 0.16226 0.0
H1990 H 0.62609 0.52144 0.0794 0.0
C1991 C 0.69586 0.55342 0.06204 0.0
C1992 C 0.56349 0.86488 0.91997 0.0
C1993 C 0.55429 0.87538 0.88285 0.0
H1994 H 0.56813 0.86205 0.99497 0.0
C1995 C 0.53858 0.88787 0.89492 0.0
H1996 H 0.57581 0.85525 0.9121 0.0
C1997 C 0.5345 0.89206 0.94269 0.0
C1998 C 0.54558 0.88348 0.97982 0.0
H1999 H 0.53151 0.89655 0.86763 0.0
H2000 H 0.52415 0.90371 0.95055 0.0
C2001 C 0.55899 0.86865 0.96772 0.0
C2002 C 0.14843 0.6939 0.967 0.0
C2003 C 0.13343 0.66569 0.97941 0.0
H2004 H 0.16212 0.72403 0.91105 0.0
C2005 C 0.12477 0.64599 0.94241 0.0
H2006 H 0.15509 0.70968 0.99411 0.0
C2007 C 0.12912 0.65418 0.89452 0.0
C2008 C 0.14185 0.68236 0.88209 0.0
H2009 H 0.11298 0.62402 0.95045 0.0
H2010 H 0.1204 0.63838 0.86738 0.0
C2011 C 0.15234 0.70208 0.91911 0.0
C2012 C 0.37334 0.48273 0.94074 0.0
C2013 C 0.35352 0.47222 0.97767 0.0
H2014 H 0.38112 0.48579 0.86577 0.0
C2015 C 0.32538 0.45982 0.9651 0.0
H2016 H 0.39526 0.49229 0.94888 0.0
C2017 C 0.31731 0.45582 0.91717 0.0
C2018 C 0.33708 0.4645 0.88024 0.0
H2019 H 0.3095 0.45113 0.99215 0.0
H2020 H 0.29535 0.44428 0.90902 0.0
C2021 C 0.36528 0.47915 0.89282 0.0
C2022 C 0.12404 0.4821 0.44067 0.0
C2023 C 0.13316 0.47149 0.47775 0.0
H2024 H 0.11931 0.485 0.36567 0.0
C2025 C 0.14851 0.45863 0.46542 0.0
H2026 H 0.11198 0.492 0.44865 0.0
C2027 C 0.15238 0.45432 0.41757 0.0
C2028 C 0.14147 0.46313 0.3805 0.0
H2029 H 0.15552 0.44983 0.49261 0.0
H2030 H 0.16251 0.44248 0.40961 0.0
C2031 C 0.12833 0.47821 0.39283 0.0
C2032 C 0.56486 0.70253 0.41817 0.0
C2033 C 0.55551 0.68272 0.38125 0.0
H2034 H 0.56974 0.7103 0.49317 0.0
C2035 C 0.53981 0.65459 0.39392 0.0
H2036 H 0.57718 0.72444 0.40999 0.0
C2037 C 0.53584 0.64653 0.44189 0.0
C2038 C 0.54698 0.66629 0.47881 0.0
H2039 H 0.53258 0.6387 0.36693 0.0
H2040 H 0.5255 0.62457 0.4501 0.0
C2041 C 0.56047 0.69448 0.46616 0.0
C2042 C 0.32452 0.86791 0.46688 0.0
C2043 C 0.35279 0.88312 0.47885 0.0
H2044 H 0.29411 0.85408 0.41147 0.0
C2045 C 0.37234 0.89203 0.44157 0.0
H2046 H 0.30884 0.86101 0.49425 0.0
C2047 C 0.36392 0.88774 0.39384 0.0
C2048 C 0.33566 0.87481 0.38192 0.0
H2049 H 0.39434 0.90395 0.44928 0.0
H2050 H 0.37959 0.89664 0.36646 0.0
C2051 C 0.31611 0.86404 0.41917 0.0
C2052 C 0.3216 0.32551 0.08953 0.0
C2053 C 0.29286 0.31102 0.09673 0.0
H2054 H 0.35825 0.36463 0.08238 0.0
C2055 C 0.27845 0.32563 0.10108 0.0
H2056 H 0.33306 0.31461 0.0852 0.0
C2057 C 0.29313 0.35475 0.10028 0.0
C2058 C 0.32203 0.36912 0.09332 0.0
H2059 H 0.25617 0.31464 0.10622 0.0
H2060 H 0.28203 0.36595 0.10507 0.0
C2061 C 0.33596 0.35417 0.08731 0.0
C2062 C 0.66232 0.95945 0.05272 0.0
C2063 C 0.64798 0.9514 0.0957 0.0
H2064 H 0.70209 0.98056 0.01904 0.0
C2065 C 0.66275 0.95695 0.13833 0.0
H2066 H 0.65118 0.95543 0.0196 0.0
C2067 C 0.69167 0.9721 0.13815 0.0
C2068 C 0.70597 0.9808 0.09524 0.0
H2069 H 0.65194 0.95113 0.17189 0.0
H2070 H 0.70282 0.97765 0.17139 0.0
C2071 C 0.69124 0.97365 0.05246 0.0
C2072 C 0.04571 0.72355 0.05427 0.0
C2073 C 0.03647 0.72902 0.09693 0.0
H2074 H 0.06546 0.70326 0.02115 0.0
C2075 C 0.04297 0.72114 0.13989 0.0
H2076 H 0.04055 0.72925 0.02072 0.0
C2077 C 0.05802 0.70725 0.14011 0.0
C2078 C 0.0657 0.70025 0.0973 0.0
H2079 H 0.03585 0.72511 0.17303 0.0
H2080 H 0.06216 0.70049 0.17353 0.0
C2081 C 0.0598 0.70872 0.05441 0.0
C2082 C 0.35786 0.29039 0.43442 0.0
C2083 C 0.37235 0.31946 0.43135 0.0
H2084 H 0.31766 0.25345 0.43666 0.0
C2085 C 0.35776 0.33367 0.42459 0.0
H2086 H 0.36893 0.27913 0.43909 0.0
C2087 C 0.32909 0.31922 0.42131 0.0
C2088 C 0.3143 0.29025 0.42594 0.0
H2089 H 0.36858 0.35607 0.42115 0.0
H2090 H 0.31848 0.33094 0.41672 0.0
C2091 C 0.32878 0.27581 0.4327 0.0
C2092 C 0.72486 0.04027 0.38583 0.0
C2093 C 0.73185 0.03278 0.42871 0.0
H2094 H 0.70519 0.06049 0.35241 0.0
C2095 C 0.72593 0.04142 0.47156 0.0
H2096 H 0.72921 0.0336 0.35254 0.0
C2097 C 0.71144 0.05586 0.47159 0.0
C2098 C 0.70378 0.06269 0.42873 0.0
H2099 H 0.73097 0.0355 0.50501 0.0
H2100 H 0.70553 0.06099 0.50492 0.0
C2101 C 0.71134 0.05566 0.38583 0.0
C2102 C 0.95971 0.68775 0.42901 0.0
C2103 C 0.98886 0.70219 0.42706 0.0
H2104 H 0.92264 0.64757 0.43061 0.0
C2105 C 1.00316 0.68742 0.42714 0.0
H2106 H 0.94837 0.69889 0.42927 0.0
C2107 C 0.98881 0.65876 0.42958 0.0
C2108 C 0.95975 0.6441 0.43089 0.0
H2109 H 0.02565 0.69805 0.42641 0.0
H2110 H 1.00057 0.64803 0.42948 0.0
C2111 C 0.94512 0.65864 0.42995 0.0
C2112 C 0.72793 0.65876 0.92801 0.0
C2113 C 0.69887 0.64429 0.93254 0.0
H2114 H 0.76491 0.69896 0.92403 0.0
C2115 C 0.68464 0.65912 0.93525 0.0
H2116 H 0.73923 0.64763 0.92566 0.0
C2117 C 0.69892 0.68777 0.9327 0.0
C2118 C 0.72788 0.70241 0.92846 0.0
H2119 H 0.66221 0.64853 0.9381 0.0
H2120 H 0.68721 0.69852 0.93479 0.0
C2121 C 0.7425 0.68789 0.92692 0.0
C2122 C 0.33014 0.04259 0.88895 0.0
C2123 C 0.31574 0.03362 0.93172 0.0
H2124 H 0.36991 0.06337 0.85541 0.0
C2125 C 0.33039 0.04004 0.97454 0.0
H2126 H 0.31904 0.03756 0.85566 0.0
C2127 C 0.35932 0.05382 0.97439 0.0
C2128 C 0.37374 0.06217 0.93151 0.0
H2129 H 0.31946 0.03287 1.00785 0.0
H2130 H 0.37038 0.05732 1.00749 0.0
C2131 C 0.35905 0.05731 0.88892 0.0
C2132 C 0.94697 0.29057 0.93568 0.0
C2133 C 0.96138 0.31948 0.92982 0.0
H2134 H 0.95036 0.25377 0.94 0.0
C2135 C 0.98981 0.33341 0.91966 0.0
H2136 H 0.92489 0.27954 0.94291 0.0
C2137 C 1.00392 0.31885 0.91613 0.0
C2138 C 0.99003 0.29011 0.92391 0.0
H2139 H 1.00117 0.35566 0.91397 0.0
H2140 H 0.02602 0.33039 0.90905 0.0
C2141 C 0.96141 0.27595 0.93366 0.0
C2142 C 0.69267 0.72283 0.63939 0.0
C2143 C 0.70694 0.7305 0.59633 0.0
H2144 H 0.65295 0.70195 0.67323 0.0
C2145 C 0.69213 0.72466 0.5537 0.0
H2146 H 0.70386 0.72708 0.6725 0.0
C2147 C 0.66323 0.70952 0.554 0.0
C2148 C 0.64899 0.70112 0.59699 0.0
H2149 H 0.7029 0.73018 0.52009 0.0
H2150 H 0.65204 0.70369 0.52079 0.0
C2151 C 0.66375 0.70863 0.63974 0.0
C2152 C 0.33682 0.98495 0.58242 0.0
C2153 C 0.32284 0.95623 0.59053 0.0
H2154 H 0.33424 0.02182 0.57935 0.0
C2155 C 0.29419 0.94218 0.60002 0.0
H2156 H 0.35894 0.99642 0.57552 0.0
C2157 C 0.27982 0.9569 0.60138 0.0
C2158 C 0.29432 0.98578 0.5951 0.0
H2159 H 0.28307 0.92003 0.60657 0.0
H2160 H 0.25772 0.94596 0.60845 0.0
C2161 C 0.32279 0.99958 0.58528 0.0
C2162 C 0.07598 0.35429 0.60003 0.0
C2163 C 0.06157 0.36882 0.59348 0.0
H2164 H 0.07258 0.31404 0.60543 0.0
C2165 C 0.03266 0.35404 0.58788 0.0
H2166 H 0.0983 0.36536 0.60453 0.0
C2167 C 0.01822 0.32538 0.58997 0.0
C2168 C 0.03235 0.31072 0.59662 0.0
H2169 H 0.02092 0.36463 0.5833 0.0
H2170 H 0.99585 0.31462 0.58588 0.0
C2171 C 0.0614 0.32517 0.60068 0.0
C2172 C 0.99589 0.65215 0.75121 0.0
C2173 C 0.98114 0.62328 0.7574 0.0
H2174 H 0.03535 0.68904 0.75001 0.0
C2175 C 0.99566 0.60901 0.76564 0.0
H2176 H 0.98526 0.66375 0.7454 0.0
C2177 C 0.02473 0.62366 0.76746 0.0
C2178 C 0.03915 0.65267 0.76298 0.0
H2179 H 0.98458 0.58673 0.77077 0.0
H2180 H 0.03584 0.61255 0.77339 0.0
C2181 C 0.02454 0.6667 0.75458 0.0
C2182 C 0.39306 0.37495 0.80828 0.0
C2183 C 0.39988 0.367 0.76559 0.0
H2184 H 0.37193 0.39397 0.84094 0.0
C2185 C 0.39385 0.37519 0.72252 0.0
H2186 H 0.39735 0.36845 0.84183 0.0
C2187 C 0.38032 0.39055 0.72211 0.0
C2188 C 0.37178 0.39686 0.76472 0.0
H2189 H 0.3989 0.36903 0.68936 0.0
H2190 H 0.3749 0.3959 0.68847 0.0
C2191 C 0.37856 0.38938 0.80783 0.0
C2192 C 0.66992 0.02129 0.75719 0.0
C2193 C 0.6556 0.03605 0.75883 0.0
H2194 H 0.66744 0.98195 0.7583 0.0
C2195 C 0.6265 0.02155 0.7623 0.0
H2196 H 0.69238 0.03191 0.75519 0.0
C2197 C 0.61196 0.99243 0.7633 0.0
C2198 C 0.62665 0.97796 0.76271 0.0
H2199 H 0.61514 0.03265 0.76383 0.0
H2200 H 0.58951 0.98132 0.76534 0.0
C2201 C 0.65565 0.99265 0.75962 0.0
C2202 C 0.36537 0.02063 0.26098 0.0
C2203 C 0.39443 0.03542 0.25998 0.0
H2204 H 0.32865 0.98125 0.26416 0.0
C2205 C 0.4092 0.02103 0.26132 0.0
H2206 H 0.35348 0.03124 0.26077 0.0
C2207 C 0.39473 0.99192 0.26246 0.0
C2208 C 0.36559 0.97737 0.26421 0.0
H2209 H 0.43168 0.0322 0.26093 0.0
H2210 H 0.40617 0.98087 0.26258 0.0
C2211 C 0.35114 0.992 0.26362 0.0
C2212 C 0.99571 0.37432 0.22066 0.0
C2213 C 0.98149 0.36613 0.2637 0.0
H2214 H 0.0354 0.39515 0.18671 0.0
C2215 C 0.99626 0.37414 0.30641 0.0
H2216 H 0.98452 0.36816 0.18747 0.0
C2217 C 0.02519 0.38864 0.30604 0.0
C2218 C 0.03946 0.39615 0.26297 0.0
H2219 H 0.98548 0.36767 0.33995 0.0
H2220 H 0.03639 0.39328 0.33918 0.0
C2221 C 0.02462 0.38978 0.22032 0.0
C2222 C 0.62922 0.6395 0.21999 0.0
C2223 C 0.62291 0.64775 0.26289 0.0
H2224 H 0.64996 0.62028 0.18656 0.0
C2225 C 0.62979 0.64013 0.30574 0.0
H2226 H 0.62429 0.64555 0.18656 0.0
C2227 C 0.64347 0.62489 0.30566 0.0
C2228 C 0.65131 0.61814 0.26274 0.0
H2229 H 0.62518 0.64651 0.33906 0.0
H2230 H 0.64943 0.61986 0.33908 0.0
C2231 C 0.64387 0.62521 0.2199 0.0
loop_
_geom_bond_atom_site_label_1
_geom_bond_atom_site_label_2
_geom_bond_distance
_geom_bond_site_symmetry_2
_ccdc_geom_bond_type
Zn0 O1 2.055 . S
Zn0 O8 2.046 1_554 S
Zn0 N16 2.036 . S
Zn0 O28 2.053 . S
Zn0 O30 2.066 . S
O1 Zn0 2.055 . S
O1 C4 1.259 . S
C2 O30 1.256 . S
C2 O31 1.244 . S
Zn3 O5 2.046 . S
Zn3 O7 2.055 . S
Zn3 N9 2.036 . S
Zn3 O27 2.066 . S
Zn3 O31 2.053 . S
C4 O1 1.259 . S
C4 O5 1.254 . S
O5 Zn3 2.046 . S
O5 C4 1.254 . S
C6 O27 1.256 . S
C6 O28 1.244 . S
O7 Zn3 2.055 . S
O7 C29 1.259 1_554 S
O8 Zn0 2.046 1_556 S
O8 C29 1.254 . S
N9 Zn3 2.036 . S
N9 C10 1.298 . S
N9 N12 1.398 . S
C10 N9 1.298 . S
C10 N13 1.367 . S
C10 C23 1.481 . S
C11 N12 1.299 . S
C11 N13 1.379 . S
N12 N9 1.398 . S
N12 C11 1.299 . S
N13 C10 1.367 . S
N13 C11 1.379 . S
C14 N16 1.298 . S
C14 N18 1.367 1_554 S
C14 C22 1.481 . S
C15 N17 1.299 . S
C15 N18 1.379 . S
N16 Zn0 2.036 . S
N16 C14 1.298 . S
N16 N17 1.398 1_554 S
N17 C15 1.299 . S
N17 N16 1.398 1_556 S
N18 C14 1.367 1_556 S
N18 C15 1.379 . S
H19 C22 0.980 . S
H20 C22 0.981 . S
H21 C22 0.981 . S
C22 C14 1.481 . S
C22 H19 0.980 . S
C22 H20 0.981 . S
C22 H21 0.981 . S
C23 C10 1.481 . S
C23 H24 0.980 . S
C23 H25 0.981 . S
C23 H26 0.981 . S
H24 C23 0.980 . S
H25 C23 0.981 . S
H26 C23 0.981 . S
O27 Zn3 2.066 . S
O27 C6 1.256 . S
O28 Zn0 2.053 . S
O28 C6 1.244 . S
C29 O7 1.259 1_556 S
C29 O8 1.254 . S
O30 Zn0 2.066 . S
O30 C2 1.256 . S
O31 C2 1.244 . S
O31 Zn3 2.053 . S
Zn32 O33 2.055 . S
Zn32 O40 2.046 . S
Zn32 N48 2.036 . S
Zn32 O60 2.053 . S
Zn32 O62 2.066 . S
O33 Zn32 2.055 . S
O33 C36 1.259 1_554 S
C34 O62 1.256 . S
C34 O63 1.244 . S
Zn35 O37 2.046 1_554 S
Zn35 O39 2.055 1_545 S
Zn35 N41 2.036 1_545 S
Zn35 O59 2.066 1_545 S
Zn35 O63 2.053 . S
C36 O33 1.259 1_556 S
C36 O37 1.254 . S
O37 Zn35 2.046 1_556 S
O37 C36 1.254 . S
C38 O59 1.256 1_545 S
C38 O60 1.244 . S
O39 Zn35 2.055 1_565 S
O39 C61 1.271 . S
O40 Zn32 2.046 . S
O40 C61 1.240 1_545 S
N41 Zn35 2.036 1_565 S
N41 C42 1.298 . S
N41 N44 1.398 1_554 S
C42 N41 1.298 . S
C42 N45 1.367 1_554 S
C42 C55 1.481 . S
C43 N44 1.299 . S
C43 N45 1.379 . S
N44 N41 1.398 1_556 S
N44 C43 1.299 . S
N45 C42 1.367 1_556 S
N45 C43 1.379 . S
C46 N48 1.298 . S
C46 N50 1.367 . S
C46 C54 1.481 . S
C47 N49 1.299 . S
C47 N50 1.379 . S
N48 Zn32 2.036 . S
N48 C46 1.298 . S
N48 N49 1.398 . S
N49 C47 1.299 . S
N49 N48 1.398 . S
N50 C46 1.367 . S
N50 C47 1.379 . S
H51 C54 0.980 . S
H52 C54 0.981 . S
H53 C54 0.981 . S
C54 C46 1.481 . S
C54 H51 0.980 . S
C54 H52 0.981 . S
C54 H53 0.981 . S
C55 C42 1.481 . S
C55 H56 0.980 . S
C55 H57 0.981 . S
C55 H58 0.981 . S
H56 C55 0.980 . S
H57 C55 0.981 . S
H58 C55 0.981 . S
O59 Zn35 2.066 1_565 S
O59 C38 1.256 1_565 S
O60 Zn32 2.053 . S
O60 C38 1.244 . S
C61 O39 1.271 . S
C61 O40 1.240 1_565 S
O62 Zn32 2.066 . S
O62 C34 1.256 . S
O63 C34 1.244 . S
O63 Zn35 2.053 . S
Zn64 O65 2.055 1_655 S
Zn64 O72 2.046 1_554 S
Zn64 N80 2.036 1_655 S
Zn64 O92 2.053 . S
Zn64 O94 2.066 1_655 S
O65 Zn64 2.055 1_455 S
O65 C68 1.260 . S
C66 O94 1.256 1_655 S
C66 O95 1.244 . S
Zn67 O69 2.046 . S
Zn67 O71 2.055 . S
Zn67 N73 2.036 . S
Zn67 O91 2.066 . S
Zn67 O95 2.053 . S
C68 O65 1.260 . S
C68 O69 1.241 1_455 S
O69 Zn67 2.046 . S
O69 C68 1.241 1_655 S
C70 O91 1.256 . S
C70 O92 1.244 . S
O71 Zn67 2.055 . S
O71 C93 1.259 1_554 S
O72 Zn64 2.046 1_556 S
O72 C93 1.254 . S
N73 Zn67 2.036 . S
N73 C74 1.298 . S
N73 N76 1.398 . S
C74 N73 1.298 . S
C74 N77 1.367 . S
C74 C87 1.481 . S
C75 N76 1.299 . S
C75 N77 1.379 . S
N76 N73 1.398 . S
N76 C75 1.299 . S
N77 C74 1.367 . S
N77 C75 1.379 . S
C78 N80 1.298 . S
C78 N82 1.367 1_554 S
C78 C86 1.481 . S
C79 N81 1.299 . S
C79 N82 1.379 . S
N80 Zn64 2.036 1_455 S
N80 C78 1.298 . S
N80 N81 1.398 1_554 S
N81 C79 1.299 . S
N81 N80 1.398 1_556 S
N82 C78 1.367 1_556 S
N82 C79 1.379 . S
H83 C86 0.980 . S
H84 C86 0.981 . S
H85 C86 0.981 . S
C86 C78 1.481 . S
C86 H83 0.980 . S
C86 H84 0.981 . S
C86 H85 0.981 . S
C87 C74 1.481 . S
C87 H88 0.980 . S
C87 H89 0.981 . S
C87 H90 0.981 . S
H88 C87 0.980 . S
H89 C87 0.981 . S
H90 C87 0.981 . S
O91 Zn67 2.066 . S
O91 C70 1.256 . S
O92 Zn64 2.053 . S
O92 C70 1.244 . S
C93 O71 1.259 1_556 S
C93 O72 1.254 . S
O94 Zn64 2.066 1_455 S
O94 C66 1.256 1_455 S
O95 C66 1.244 . S
O95 Zn67 2.053 . S
Zn96 O97 2.055 . S
Zn96 O104 2.046 . S
Zn96 N112 2.036 . S
Zn96 O124 2.053 . S
Zn96 O126 2.066 . S
O97 Zn96 2.055 . S
O97 C100 1.259 . S
C98 O126 1.256 . S
C98 O127 1.244 . S
Zn99 O101 2.046 . S
Zn99 O103 2.055 . S
Zn99 N105 2.036 . S
Zn99 O123 2.066 . S
Zn99 O127 2.053 . S
C100 O97 1.259 . S
C100 O101 1.254 . S
O101 Zn99 2.046 . S
O101 C100 1.254 . S
C102 O123 1.256 . S
C102 O124 1.244 . S
O103 Zn99 2.055 . S
O103 C125 1.259 . S
O104 Zn96 2.046 . S
O104 C125 1.254 . S
N105 Zn99 2.036 . S
N105 C106 1.298 . S
N105 N108 1.398 . S
C106 N105 1.298 . S
C106 N109 1.367 . S
C106 C119 1.481 . S
C107 N108 1.299 . S
C107 N109 1.379 . S
N108 N105 1.398 . S
N108 C107 1.299 . S
N109 C106 1.367 . S
N109 C107 1.379 . S
C110 N112 1.298 . S
C110 N114 1.367 . S
C110 C118 1.481 . S
C111 N113 1.299 . S
C111 N114 1.379 . S
N112 Zn96 2.036 . S
N112 C110 1.298 . S
N112 N113 1.398 . S
N113 C111 1.299 . S
N113 N112 1.398 . S
N114 C110 1.367 . S
N114 C111 1.379 . S
H115 C118 0.980 . S
H116 C118 0.981 . S
H117 C118 0.981 . S
C118 C110 1.481 . S
C118 H115 0.980 . S
C118 H116 0.981 . S
C118 H117 0.981 . S
C119 C106 1.481 . S
C119 H120 0.980 . S
C119 H121 0.981 . S
C119 H122 0.981 . S
H120 C119 0.980 . S
H121 C119 0.981 . S
H122 C119 0.981 . S
O123 Zn99 2.066 . S
O123 C102 1.256 . S
O124 Zn96 2.053 . S
O124 C102 1.244 . S
C125 O103 1.259 . S
C125 O104 1.254 . S
O126 Zn96 2.066 . S
O126 C98 1.256 . S
O127 C98 1.244 . S
O127 Zn99 2.053 . S
Zn128 O129 2.055 1_565 S
Zn128 O136 2.046 . S
Zn128 N144 2.036 1_565 S
Zn128 O156 2.053 . S
Zn128 O158 2.066 1_565 S
O129 Zn128 2.055 1_545 S
O129 C132 1.260 . S
C130 O158 1.256 1_565 S
C130 O159 1.244 . S
Zn131 O133 2.046 . S
Zn131 O135 2.055 . S
Zn131 N137 2.036 . S
Zn131 O155 2.066 . S
Zn131 O159 2.053 . S
C132 O129 1.260 . S
C132 O133 1.241 1_545 S
O133 Zn131 2.046 . S
O133 C132 1.241 1_565 S
C134 O155 1.256 . S
C134 O156 1.244 . S
O135 Zn131 2.055 . S
O135 C157 1.259 . S
O136 Zn128 2.046 . S
O136 C157 1.254 . S
N137 Zn131 2.036 . S
N137 C138 1.298 . S
N137 N140 1.398 . S
C138 N137 1.298 . S
C138 N141 1.367 . S
C138 C151 1.481 . S
C139 N140 1.299 . S
C139 N141 1.379 . S
N140 N137 1.398 . S
N140 C139 1.299 . S
N141 C138 1.367 . S
N141 C139 1.379 . S
C142 N144 1.298 . S
C142 N146 1.367 . S
C142 C150 1.481 . S
C143 N145 1.299 . S
C143 N146 1.379 . S
N144 Zn128 2.036 1_545 S
N144 C142 1.298 . S
N144 N145 1.398 . S
N145 C143 1.299 . S
N145 N144 1.398 . S
N146 C142 1.367 . S
N146 C143 1.379 . S
H147 C150 0.980 . S
H148 C150 0.981 . S
H149 C150 0.981 . S
C150 C142 1.481 . S
C150 H147 0.980 . S
C150 H148 0.981 . S
C150 H149 0.981 . S
C151 C138 1.481 . S
C151 H152 0.980 . S
C151 H153 0.981 . S
C151 H154 0.981 . S
H152 C151 0.980 . S
H153 C151 0.981 . S
H154 C151 0.981 . S
O155 Zn131 2.066 . S
O155 C134 1.256 . S
O156 Zn128 2.053 . S
O156 C134 1.244 . S
C157 O135 1.259 . S
C157 O136 1.254 . S
O158 Zn128 2.066 1_545 S
O158 C130 1.256 1_545 S
O159 C130 1.244 . S
O159 Zn131 2.053 . S
Zn160 O161 2.055 1_455 S
Zn160 O168 2.046 . S
Zn160 N176 2.036 1_455 S
Zn160 O188 2.053 . S
Zn160 O190 2.066 1_455 S
O161 Zn160 2.055 1_655 S
O161 C164 1.271 . S
C162 O190 1.256 1_455 S
C162 O191 1.244 . S
Zn163 O165 2.046 . S
Zn163 O167 2.055 . S
Zn163 N169 2.036 . S
Zn163 O187 2.066 . S
Zn163 O191 2.053 . S
C164 O161 1.271 . S
C164 O165 1.240 1_655 S
O165 Zn163 2.046 . S
O165 C164 1.240 1_455 S
C166 O187 1.256 . S
C166 O188 1.244 . S
O167 Zn163 2.055 . S
O167 C189 1.259 . S
O168 Zn160 2.046 . S
O168 C189 1.254 . S
N169 Zn163 2.036 . S
N169 C170 1.298 . S
N169 N172 1.398 . S
C170 N169 1.298 . S
C170 N173 1.367 . S
C170 C183 1.481 . S
C171 N172 1.299 . S
C171 N173 1.379 . S
N172 N169 1.398 . S
N172 C171 1.299 . S
N173 C170 1.367 . S
N173 C171 1.379 . S
C174 N176 1.298 . S
C174 N178 1.367 . S
C174 C182 1.481 . S
C175 N177 1.299 . S
C175 N178 1.379 . S
N176 Zn160 2.036 1_655 S
N176 C174 1.298 . S
N176 N177 1.398 . S
N177 C175 1.299 . S
N177 N176 1.398 . S
N178 C174 1.367 . S
N178 C175 1.379 . S
H179 C182 0.980 . S
H180 C182 0.981 . S
H181 C182 0.981 . S
C182 C174 1.481 . S
C182 H179 0.980 . S
C182 H180 0.981 . S
C182 H181 0.981 . S
C183 C170 1.481 . S
C183 H184 0.980 . S
C183 H185 0.981 . S
C183 H186 0.981 . S
H184 C183 0.980 . S
H185 C183 0.981 . S
H186 C183 0.981 . S
O187 Zn163 2.066 . S
O187 C166 1.256 . S
O188 Zn160 2.053 . S
O188 C166 1.244 . S
C189 O167 1.259 . S
C189 O168 1.254 . S
O190 Zn160 2.066 1_655 S
O190 C162 1.256 1_655 S
O191 C162 1.244 . S
O191 Zn163 2.053 . S
Zn192 O193 2.055 . S
Zn192 O200 2.046 1_556 S
Zn192 N208 2.036 . S
Zn192 O220 2.053 . S
Zn192 O222 2.066 . S
O193 Zn192 2.055 . S
O193 C196 1.259 . S
C194 O222 1.256 . S
C194 O223 1.244 . S
Zn195 O197 2.046 . S
Zn195 O199 2.055 . S
Zn195 N201 2.036 . S
Zn195 O219 2.066 . S
Zn195 O223 2.053 . S
C196 O193 1.259 . S
C196 O197 1.254 . S
O197 Zn195 2.046 . S
O197 C196 1.254 . S
C198 O219 1.256 . S
C198 O220 1.244 . S
O199 Zn195 2.055 . S
O199 C221 1.259 1_556 S
O200 Zn192 2.046 1_554 S
O200 C221 1.254 . S
N201 Zn195 2.036 . S
N201 C202 1.298 . S
N201 N204 1.398 . S
C202 N201 1.298 . S
C202 N205 1.367 . S
C202 C215 1.481 . S
C203 N204 1.299 . S
C203 N205 1.379 . S
N204 N201 1.398 . S
N204 C203 1.299 . S
N205 C202 1.367 . S
N205 C203 1.379 . S
C206 N208 1.298 . S
C206 N210 1.367 1_556 S
C206 C214 1.481 . S
C207 N209 1.299 . S
C207 N210 1.379 . S
N208 Zn192 2.036 . S
N208 C206 1.298 . S
N208 N209 1.398 1_556 S
N209 C207 1.299 . S
N209 N208 1.398 1_554 S
N210 C206 1.367 1_554 S
N210 C207 1.379 . S
H211 C214 0.980 . S
H212 C214 0.981 . S
H213 C214 0.981 . S
C214 C206 1.481 . S
C214 H211 0.980 . S
C214 H212 0.981 . S
C214 H213 0.981 . S
C215 C202 1.481 . S
C215 H216 0.980 . S
C215 H217 0.981 . S
C215 H218 0.981 . S
H216 C215 0.980 . S
H217 C215 0.981 . S
H218 C215 0.981 . S
O219 Zn195 2.066 . S
O219 C198 1.256 . S
O220 Zn192 2.053 . S
O220 C198 1.244 . S
C221 O199 1.259 1_554 S
C221 O200 1.254 . S
O222 Zn192 2.066 . S
O222 C194 1.256 . S
O223 C194 1.244 . S
O223 Zn195 2.053 . S
Zn224 O225 2.055 1_565 S
Zn224 O232 2.046 1_556 S
Zn224 N240 2.036 1_565 S
Zn224 O252 2.053 . S
Zn224 O254 2.066 1_565 S
O225 Zn224 2.055 1_545 S
O225 C228 1.271 . S
C226 O254 1.256 1_565 S
C226 O255 1.244 . S
Zn227 O229 2.046 . S
Zn227 O231 2.055 . S
Zn227 N233 2.036 . S
Zn227 O251 2.066 . S
Zn227 O255 2.053 . S
C228 O225 1.271 . S
C228 O229 1.240 1_545 S
O229 Zn227 2.046 . S
O229 C228 1.240 1_565 S
C230 O251 1.256 . S
C230 O252 1.244 . S
O231 Zn227 2.055 . S
O231 C253 1.259 1_556 S
O232 Zn224 2.046 1_554 S
O232 C253 1.254 . S
N233 Zn227 2.036 . S
N233 C234 1.298 . S
N233 N236 1.398 . S
C234 N233 1.298 . S
C234 N237 1.367 . S
C234 C247 1.481 . S
C235 N236 1.299 . S
C235 N237 1.379 . S
N236 N233 1.398 . S
N236 C235 1.299 . S
N237 C234 1.367 . S
N237 C235 1.379 . S
C238 N240 1.298 . S
C238 N242 1.367 1_556 S
C238 C246 1.481 . S
C239 N241 1.299 . S
C239 N242 1.379 . S
N240 Zn224 2.036 1_545 S
N240 C238 1.298 . S
N240 N241 1.398 1_556 S
N241 C239 1.299 . S
N241 N240 1.398 1_554 S
N242 C238 1.367 1_554 S
N242 C239 1.379 . S
H243 C246 0.980 . S
H244 C246 0.981 . S
H245 C246 0.981 . S
C246 C238 1.481 . S
C246 H243 0.980 . S
C246 H244 0.981 . S
C246 H245 0.981 . S
C247 C234 1.481 . S
C247 H248 0.980 . S
C247 H249 0.981 . S
C247 H250 0.981 . S
H248 C247 0.980 . S
H249 C247 0.981 . S
H250 C247 0.981 . S
O251 Zn227 2.066 . S
O251 C230 1.256 . S
O252 Zn224 2.053 . S
O252 C230 1.244 . S
C253 O231 1.259 1_554 S
C253 O232 1.254 . S
O254 Zn224 2.066 1_545 S
O254 C226 1.256 1_545 S
O255 C226 1.244 . S
O255 Zn227 2.053 . S
Zn256 O257 2.055 1_455 S
Zn256 O264 2.046 1_556 S
Zn256 N272 2.036 1_455 S
Zn256 O284 2.053 . S
Zn256 O286 2.066 1_455 S
O257 Zn256 2.055 1_655 S
O257 C260 1.260 . S
C258 O286 1.256 1_455 S
C258 O287 1.244 . S
Zn259 O261 2.046 . S
Zn259 O263 2.055 . S
Zn259 N265 2.036 . S
Zn259 O283 2.066 . S
Zn259 O287 2.053 . S
C260 O257 1.260 . S
C260 O261 1.241 1_655 S
O261 Zn259 2.046 . S
O261 C260 1.241 1_455 S
C262 O283 1.256 . S
C262 O284 1.244 . S
O263 Zn259 2.055 . S
O263 C285 1.259 1_556 S
O264 Zn256 2.046 1_554 S
O264 C285 1.254 . S
N265 Zn259 2.036 . S
N265 C266 1.298 . S
N265 N268 1.398 . S
C266 N265 1.298 . S
C266 N269 1.367 . S
C266 C279 1.481 . S
C267 N268 1.299 . S
C267 N269 1.379 . S
N268 N265 1.398 . S
N268 C267 1.299 . S
N269 C266 1.367 . S
N269 C267 1.379 . S
C270 N272 1.298 . S
C270 N274 1.367 1_556 S
C270 C278 1.481 . S
C271 N273 1.299 . S
C271 N274 1.379 . S
N272 Zn256 2.036 1_655 S
N272 C270 1.298 . S
N272 N273 1.398 1_556 S
N273 C271 1.299 . S
N273 N272 1.398 1_554 S
N274 C270 1.367 1_554 S
N274 C271 1.379 . S
H275 C278 0.980 . S
H276 C278 0.981 . S
H277 C278 0.981 . S
C278 C270 1.481 . S
C278 H275 0.980 . S
C278 H276 0.981 . S
C278 H277 0.981 . S
C279 C266 1.481 . S
C279 H280 0.980 . S
C279 H281 0.981 . S
C279 H282 0.981 . S
H280 C279 0.980 . S
H281 C279 0.981 . S
H282 C279 0.981 . S
O283 Zn259 2.066 . S
O283 C262 1.256 . S
O284 Zn256 2.053 . S
O284 C262 1.244 . S
C285 O263 1.259 1_554 S
C285 O264 1.254 . S
O286 Zn256 2.066 1_655 S
O286 C258 1.256 1_655 S
O287 C258 1.244 . S
O287 Zn259 2.053 . S
Zn288 O289 2.055 . S
Zn288 O296 2.046 . S
Zn288 N304 2.036 . S
Zn288 O316 2.053 . S
Zn288 O318 2.066 . S
O289 Zn288 2.055 . S
O289 C292 1.259 . S
C290 O318 1.256 . S
C290 O319 1.244 . S
Zn291 O293 2.046 . S
Zn291 O295 2.055 . S
Zn291 N297 2.036 . S
Zn291 O315 2.066 . S
Zn291 O319 2.053 . S
C292 O289 1.259 . S
C292 O293 1.254 . S
O293 Zn291 2.046 . S
O293 C292 1.254 . S
C294 O315 1.256 . S
C294 O316 1.244 . S
O295 Zn291 2.055 . S
O295 C317 1.259 . S
O296 Zn288 2.046 . S
O296 C317 1.254 . S
N297 Zn291 2.036 . S
N297 C298 1.298 . S
N297 N300 1.398 . S
C298 N297 1.298 . S
C298 N301 1.367 . S
C298 C311 1.481 . S
C299 N300 1.299 . S
C299 N301 1.379 . S
N300 N297 1.398 . S
N300 C299 1.299 . S
N301 C298 1.367 . S
N301 C299 1.379 . S
C302 N304 1.298 . S
C302 N306 1.367 . S
C302 C310 1.481 . S
C303 N305 1.299 . S
C303 N306 1.379 . S
N304 Zn288 2.036 . S
N304 C302 1.298 . S
N304 N305 1.398 . S
N305 C303 1.299 . S
N305 N304 1.398 . S
N306 C302 1.367 . S
N306 C303 1.379 . S
H307 C310 0.980 . S
H308 C310 0.981 . S
H309 C310 0.981 . S
C310 C302 1.481 . S
C310 H307 0.980 . S
C310 H308 0.981 . S
C310 H309 0.981 . S
C311 C298 1.481 . S
C311 H312 0.980 . S
C311 H313 0.981 . S
C311 H314 0.981 . S
H312 C311 0.980 . S
H313 C311 0.981 . S
H314 C311 0.981 . S
O315 Zn291 2.066 . S
O315 C294 1.256 . S
O316 Zn288 2.053 . S
O316 C294 1.244 . S
C317 O295 1.259 . S
C317 O296 1.254 . S
O318 Zn288 2.066 . S
O318 C290 1.256 . S
O319 C290 1.244 . S
O319 Zn291 2.053 . S
Zn320 O321 2.055 . S
Zn320 O328 2.046 . S
Zn320 N336 2.036 . S
Zn320 O348 2.053 . S
Zn320 O350 2.066 . S
O321 Zn320 2.055 . S
O321 C324 1.259 . S
C322 O350 1.256 . S
C322 O351 1.244 . S
Zn323 O325 2.046 . S
Zn323 O327 2.055 1_545 S
Zn323 N329 2.036 1_545 S
Zn323 O347 2.066 1_545 S
Zn323 O351 2.053 . S
C324 O321 1.259 . S
C324 O325 1.254 . S
O325 Zn323 2.046 . S
O325 C324 1.254 . S
C326 O347 1.256 1_545 S
C326 O348 1.244 . S
O327 Zn323 2.055 1_565 S
O327 C349 1.260 . S
O328 Zn320 2.046 . S
O328 C349 1.241 1_545 S
N329 Zn323 2.036 1_565 S
N329 C330 1.298 . S
N329 N332 1.398 . S
C330 N329 1.298 . S
C330 N333 1.367 . S
C330 C343 1.481 . S
C331 N332 1.299 . S
C331 N333 1.379 . S
N332 N329 1.398 . S
N332 C331 1.299 . S
N333 C330 1.367 . S
N333 C331 1.379 . S
C334 N336 1.298 . S
C334 N338 1.367 . S
C334 C342 1.481 . S
C335 N337 1.299 . S
C335 N338 1.379 . S
N336 Zn320 2.036 . S
N336 C334 1.298 . S
N336 N337 1.398 . S
N337 C335 1.299 . S
N337 N336 1.398 . S
N338 C334 1.367 . S
N338 C335 1.379 . S
H339 C342 0.980 . S
H340 C342 0.981 . S
H341 C342 0.981 . S
C342 C334 1.481 . S
C342 H339 0.980 . S
C342 H340 0.981 . S
C342 H341 0.981 . S
C343 C330 1.481 . S
C343 H344 0.980 . S
C343 H345 0.981 . S
C343 H346 0.981 . S
H344 C343 0.980 . S
H345 C343 0.981 . S
H346 C343 0.981 . S
O347 Zn323 2.066 1_565 S
O347 C326 1.256 1_565 S
O348 Zn320 2.053 . S
O348 C326 1.244 . S
C349 O327 1.260 . S
C349 O328 1.241 1_565 S
O350 Zn320 2.066 . S
O350 C322 1.256 . S
O351 C322 1.244 . S
O351 Zn323 2.053 . S
Zn352 O353 2.055 . S
Zn352 O360 2.046 . S
Zn352 N368 2.036 . S
Zn352 O380 2.053 . S
Zn352 O382 2.066 . S
O353 Zn352 2.055 . S
O353 C356 1.259 . S
C354 O382 1.256 . S
C354 O383 1.244 . S
Zn355 O357 2.046 . S
Zn355 O359 2.055 1_655 S
Zn355 N361 2.036 1_655 S
Zn355 O379 2.066 1_655 S
Zn355 O383 2.053 . S
C356 O353 1.259 . S
C356 O357 1.254 . S
O357 Zn355 2.046 . S
O357 C356 1.254 . S
C358 O379 1.256 1_655 S
C358 O380 1.244 . S
O359 Zn355 2.055 1_455 S
O359 C381 1.271 . S
O360 Zn352 2.046 . S
O360 C381 1.240 1_655 S
N361 Zn355 2.036 1_455 S
N361 C362 1.298 . S
N361 N364 1.398 . S
C362 N361 1.298 . S
C362 N365 1.367 . S
C362 C375 1.481 . S
C363 N364 1.299 . S
C363 N365 1.379 . S
N364 N361 1.398 . S
N364 C363 1.299 . S
N365 C362 1.367 . S
N365 C363 1.379 . S
C366 N368 1.298 . S
C366 N370 1.367 . S
C366 C374 1.481 . S
C367 N369 1.299 . S
C367 N370 1.379 . S
N368 Zn352 2.036 . S
N368 C366 1.298 . S
N368 N369 1.398 . S
N369 C367 1.299 . S
N369 N368 1.398 . S
N370 C366 1.367 . S
N370 C367 1.379 . S
H371 C374 0.980 . S
H372 C374 0.981 . S
H373 C374 0.981 . S
C374 C366 1.481 . S
C374 H371 0.980 . S
C374 H372 0.981 . S
C374 H373 0.981 . S
C375 C362 1.481 . S
C375 H376 0.980 . S
C375 H377 0.981 . S
C375 H378 0.981 . S
H376 C375 0.980 . S
H377 C375 0.981 . S
H378 C375 0.981 . S
O379 Zn355 2.066 1_455 S
O379 C358 1.256 1_455 S
O380 Zn352 2.053 . S
O380 C358 1.244 . S
C381 O359 1.271 . S
C381 O360 1.240 1_455 S
O382 Zn352 2.066 . S
O382 C354 1.256 . S
O383 C354 1.244 . S
O383 Zn355 2.053 . S
Zn384 O385 2.055 . S
Zn384 O392 2.046 . S
Zn384 N400 2.036 . S
Zn384 O412 2.053 . S
Zn384 O414 2.066 . S
O385 Zn384 2.055 . S
O385 C388 1.259 . S
C386 O414 1.256 . S
C386 O415 1.244 . S
Zn387 O389 2.046 . S
Zn387 O391 2.055 . S
Zn387 N393 2.036 . S
Zn387 O411 2.066 . S
Zn387 O415 2.053 . S
C388 O385 1.259 . S
C388 O389 1.254 . S
O389 Zn387 2.046 . S
O389 C388 1.254 . S
C390 O411 1.256 . S
C390 O412 1.244 . S
O391 Zn387 2.055 . S
O391 C413 1.259 . S
O392 Zn384 2.046 . S
O392 C413 1.254 . S
N393 Zn387 2.036 . S
N393 C394 1.298 . S
N393 N396 1.398 . S
C394 N393 1.298 . S
C394 N397 1.367 . S
C394 C407 1.481 . S
C395 N396 1.299 . S
C395 N397 1.379 . S
N396 N393 1.398 . S
N396 C395 1.299 . S
N397 C394 1.367 . S
N397 C395 1.379 . S
C398 N400 1.298 . S
C398 N402 1.367 . S
C398 C406 1.481 . S
C399 N401 1.299 . S
C399 N402 1.379 . S
N400 Zn384 2.036 . S
N400 C398 1.298 . S
N400 N401 1.398 . S
N401 C399 1.299 . S
N401 N400 1.398 . S
N402 C398 1.367 . S
N402 C399 1.379 . S
H403 C406 0.980 . S
H404 C406 0.981 1_455 S
H405 C406 0.981 . S
C406 C398 1.481 . S
C406 H403 0.980 . S
C406 H404 0.981 1_655 S
C406 H405 0.981 . S
C407 C394 1.481 . S
C407 H408 0.980 . S
C407 H409 0.981 . S
C407 H410 0.981 . S
H408 C407 0.980 . S
H409 C407 0.981 . S
H410 C407 0.981 . S
O411 Zn387 2.066 . S
O411 C390 1.256 . S
O412 Zn384 2.053 . S
O412 C390 1.244 . S
C413 O391 1.259 . S
C413 O392 1.254 . S
O414 Zn384 2.066 . S
O414 C386 1.256 . S
O415 C386 1.244 . S
O415 Zn387 2.053 . S
Zn416 O417 2.055 . S
Zn416 O424 2.046 . S
Zn416 N432 2.036 . S
Zn416 O444 2.053 . S
Zn416 O446 2.066 . S
O417 Zn416 2.055 . S
O417 C420 1.259 . S
C418 O446 1.256 . S
C418 O447 1.244 . S
Zn419 O421 2.046 . S
Zn419 O423 2.055 . S
Zn419 N425 2.036 . S
Zn419 O443 2.066 . S
Zn419 O447 2.053 . S
C420 O417 1.259 . S
C420 O421 1.254 . S
O421 Zn419 2.046 . S
O421 C420 1.254 . S
C422 O443 1.256 . S
C422 O444 1.244 . S
O423 Zn419 2.055 . S
O423 C445 1.259 . S
O424 Zn416 2.046 . S
O424 C445 1.254 . S
N425 Zn419 2.036 . S
N425 C426 1.298 . S
N425 N428 1.398 . S
C426 N425 1.298 . S
C426 N429 1.367 . S
C426 C439 1.481 . S
C427 N428 1.299 . S
C427 N429 1.379 . S
N428 N425 1.398 . S
N428 C427 1.299 . S
N429 C426 1.367 . S
N429 C427 1.379 . S
C430 N432 1.298 . S
C430 N434 1.367 . S
C430 C438 1.481 . S
C431 N433 1.299 . S
C431 N434 1.379 . S
N432 Zn416 2.036 . S
N432 C430 1.298 . S
N432 N433 1.398 . S
N433 C431 1.299 . S
N433 N432 1.398 . S
N434 C430 1.367 . S
N434 C431 1.379 . S
H435 C438 0.980 . S
H436 C438 0.981 . S
H437 C438 0.981 . S
C438 C430 1.481 . S
C438 H435 0.980 . S
C438 H436 0.981 . S
C438 H437 0.981 . S
C439 C426 1.481 . S
C439 H440 0.980 . S
C439 H441 0.981 . S
C439 H442 0.981 . S
H440 C439 0.980 . S
H441 C439 0.981 . S
H442 C439 0.981 . S
O443 Zn419 2.066 . S
O443 C422 1.256 . S
O444 Zn416 2.053 . S
O444 C422 1.244 . S
C445 O423 1.259 . S
C445 O424 1.254 . S
O446 Zn416 2.066 . S
O446 C418 1.256 . S
O447 C418 1.244 . S
O447 Zn419 2.053 . S
Zn448 O449 2.055 . S
Zn448 O456 2.046 . S
Zn448 N464 2.036 . S
Zn448 O476 2.053 . S
Zn448 O478 2.066 . S
O449 Zn448 2.055 . S
O449 C452 1.259 . S
C450 O478 1.256 . S
C450 O479 1.244 . S
Zn451 O453 2.046 . S
Zn451 O455 2.055 . S
Zn451 N457 2.036 . S
Zn451 O475 2.066 . S
Zn451 O479 2.053 . S
C452 O449 1.259 . S
C452 O453 1.254 . S
O453 Zn451 2.046 . S
O453 C452 1.254 . S
C454 O475 1.256 . S
C454 O476 1.244 . S
O455 Zn451 2.055 . S
O455 C477 1.259 . S
O456 Zn448 2.046 . S
O456 C477 1.254 . S
N457 Zn451 2.036 . S
N457 C458 1.298 . S
N457 N460 1.398 . S
C458 N457 1.298 . S
C458 N461 1.367 . S
C458 C471 1.481 . S
C459 N460 1.299 . S
C459 N461 1.379 . S
N460 N457 1.398 . S
N460 C459 1.299 . S
N461 C458 1.367 . S
N461 C459 1.379 . S
C462 N464 1.298 . S
C462 N466 1.367 . S
C462 C470 1.481 . S
C463 N465 1.299 . S
C463 N466 1.379 . S
N464 Zn448 2.036 . S
N464 C462 1.298 . S
N464 N465 1.398 . S
N465 C463 1.299 . S
N465 N464 1.398 . S
N466 C462 1.367 . S
N466 C463 1.379 . S
H467 C470 0.980 . S
H468 C470 0.981 . S
H469 C470 0.981 . S
C470 C462 1.481 . S
C470 H467 0.980 . S
C470 H468 0.981 . S
C470 H469 0.981 . S
C471 C458 1.481 . S
C471 H472 0.980 . S
C471 H473 0.981 1_545 S
C471 H474 0.981 . S
H472 C471 0.980 . S
H473 C471 0.981 1_565 S
H474 C471 0.981 . S
O475 Zn451 2.066 . S
O475 C454 1.256 . S
O476 Zn448 2.053 . S
O476 C454 1.244 . S
C477 O455 1.259 . S
C477 O456 1.254 . S
O478 Zn448 2.066 . S
O478 C450 1.256 . S
O479 C450 1.244 . S
O479 Zn451 2.053 . S
Zn480 O481 2.055 . S
Zn480 O488 2.046 . S
Zn480 N496 2.036 . S
Zn480 O508 2.053 . S
Zn480 O510 2.066 . S
O481 Zn480 2.055 . S
O481 C484 1.259 . S
C482 O510 1.256 . S
C482 O511 1.244 . S
Zn483 O485 2.046 . S
Zn483 O487 2.055 . S
Zn483 N489 2.036 . S
Zn483 O507 2.066 . S
Zn483 O511 2.053 . S
C484 O481 1.259 . S
C484 O485 1.254 . S
O485 Zn483 2.046 . S
O485 C484 1.254 . S
C486 O507 1.256 . S
C486 O508 1.244 . S
O487 Zn483 2.055 . S
O487 C509 1.259 . S
O488 Zn480 2.046 . S
O488 C509 1.254 . S
N489 Zn483 2.036 . S
N489 C490 1.298 . S
N489 N492 1.398 . S
C490 N489 1.298 . S
C490 N493 1.367 . S
C490 C503 1.481 . S
C491 N492 1.299 . S
C491 N493 1.379 . S
N492 N489 1.398 . S
N492 C491 1.299 . S
N493 C490 1.367 . S
N493 C491 1.379 . S
C494 N496 1.298 . S
C494 N498 1.367 . S
C494 C502 1.481 . S
C495 N497 1.299 . S
C495 N498 1.379 . S
N496 Zn480 2.036 . S
N496 C494 1.298 . S
N496 N497 1.398 . S
N497 C495 1.299 . S
N497 N496 1.398 . S
N498 C494 1.367 . S
N498 C495 1.379 . S
H499 C502 0.980 . S
H500 C502 0.981 . S
H501 C502 0.981 . S
C502 C494 1.481 . S
C502 H499 0.980 . S
C502 H500 0.981 . S
C502 H501 0.981 . S
C503 C490 1.481 . S
C503 H504 0.980 . S
C503 H505 0.981 . S
C503 H506 0.981 . S
H504 C503 0.980 . S
H505 C503 0.981 . S
H506 C503 0.981 . S
O507 Zn483 2.066 . S
O507 C486 1.256 . S
O508 Zn480 2.053 . S
O508 C486 1.244 . S
C509 O487 1.259 . S
C509 O488 1.254 . S
O510 Zn480 2.066 . S
O510 C482 1.256 . S
O511 C482 1.244 . S
O511 Zn483 2.053 . S
Zn512 O513 2.055 . S
Zn512 O520 2.046 . S
Zn512 N528 2.036 . S
Zn512 O540 2.053 . S
Zn512 O542 2.066 . S
O513 Zn512 2.055 . S
O513 C516 1.259 . S
C514 O542 1.256 . S
C514 O543 1.244 . S
Zn515 O517 2.046 . S
Zn515 O519 2.055 . S
Zn515 N521 2.036 . S
Zn515 O539 2.066 . S
Zn515 O543 2.053 . S
C516 O513 1.259 . S
C516 O517 1.254 . S
O517 Zn515 2.046 . S
O517 C516 1.254 . S
C518 O539 1.256 . S
C518 O540 1.244 . S
O519 Zn515 2.055 . S
O519 C541 1.259 . S
O520 Zn512 2.046 . S
O520 C541 1.254 . S
N521 Zn515 2.036 . S
N521 C522 1.298 . S
N521 N524 1.398 . S
C522 N521 1.298 . S
C522 N525 1.367 . S
C522 C535 1.481 . S
C523 N524 1.299 . S
C523 N525 1.379 . S
N524 N521 1.398 . S
N524 C523 1.299 . S
N525 C522 1.367 . S
N525 C523 1.379 . S
C526 N528 1.298 . S
C526 N530 1.367 . S
C526 C534 1.481 . S
C527 N529 1.299 . S
C527 N530 1.379 . S
N528 Zn512 2.036 . S
N528 C526 1.298 . S
N528 N529 1.398 . S
N529 C527 1.299 . S
N529 N528 1.398 . S
N530 C526 1.367 . S
N530 C527 1.379 . S
H531 C534 0.980 . S
H532 C534 0.981 . S
H533 C534 0.981 . S
C534 C526 1.481 . S
C534 H531 0.980 . S
C534 H532 0.981 . S
C534 H533 0.981 . S
C535 C522 1.481 . S
C535 H536 0.980 . S
C535 H537 0.981 . S
C535 H538 0.981 . S
H536 C535 0.980 . S
H537 C535 0.981 . S
H538 C535 0.981 . S
O539 Zn515 2.066 . S
O539 C518 1.256 . S
O540 Zn512 2.053 . S
O540 C518 1.244 . S
C541 O519 1.259 . S
C541 O520 1.254 . S
O542 Zn512 2.066 . S
O542 C514 1.256 . S
O543 C514 1.244 . S
O543 Zn515 2.053 . S
Zn544 O545 2.055 . S
Zn544 O552 2.046 . S
Zn544 N560 2.036 . S
Zn544 O572 2.053 . S
Zn544 O574 2.066 . S
O545 Zn544 2.055 . S
O545 C548 1.259 . S
C546 O574 1.256 . S
C546 O575 1.244 . S
Zn547 O549 2.046 . S
Zn547 O551 2.055 . S
Zn547 N553 2.036 . S
Zn547 O571 2.066 . S
Zn547 O575 2.053 . S
C548 O545 1.259 . S
C548 O549 1.254 . S
O549 Zn547 2.046 . S
O549 C548 1.254 . S
C550 O571 1.256 . S
C550 O572 1.244 . S
O551 Zn547 2.055 . S
O551 C573 1.259 . S
O552 Zn544 2.046 . S
O552 C573 1.254 . S
N553 Zn547 2.036 . S
N553 C554 1.298 . S
N553 N556 1.398 . S
C554 N553 1.298 . S
C554 N557 1.367 . S
C554 C567 1.481 . S
C555 N556 1.299 . S
C555 N557 1.379 . S
N556 N553 1.398 . S
N556 C555 1.299 . S
N557 C554 1.367 . S
N557 C555 1.379 . S
C558 N560 1.298 . S
C558 N562 1.367 . S
C558 C566 1.481 . S
C559 N561 1.299 . S
C559 N562 1.379 . S
N560 Zn544 2.036 . S
N560 C558 1.298 . S
N560 N561 1.398 . S
N561 C559 1.299 . S
N561 N560 1.398 . S
N562 C558 1.367 . S
N562 C559 1.379 . S
H563 C566 0.980 . S
H564 C566 0.981 . S
H565 C566 0.981 . S
C566 C558 1.481 . S
C566 H563 0.980 . S
C566 H564 0.981 . S
C566 H565 0.981 . S
C567 C554 1.481 . S
C567 H568 0.980 . S
C567 H569 0.981 . S
C567 H570 0.981 . S
H568 C567 0.980 . S
H569 C567 0.981 . S
H570 C567 0.981 . S
O571 Zn547 2.066 . S
O571 C550 1.256 . S
O572 Zn544 2.053 . S
O572 C550 1.244 . S
C573 O551 1.259 . S
C573 O552 1.254 . S
O574 Zn544 2.066 . S
O574 C546 1.256 . S
O575 C546 1.244 . S
O575 Zn547 2.053 . S
Zn576 O577 2.055 . S
Zn576 O584 2.046 . S
Zn576 N592 2.036 . S
Zn576 O604 2.053 . S
Zn576 O606 2.066 . S
O577 Zn576 2.055 . S
O577 C580 1.259 . S
C578 O606 1.256 . S
C578 O607 1.244 . S
Zn579 O581 2.046 . S
Zn579 O583 2.055 . S
Zn579 N585 2.036 . S
Zn579 O603 2.066 . S
Zn579 O607 2.053 . S
C580 O577 1.259 . S
C580 O581 1.254 . S
O581 Zn579 2.046 . S
O581 C580 1.254 . S
C582 O603 1.256 . S
C582 O604 1.244 . S
O583 Zn579 2.055 . S
O583 C605 1.259 . S
O584 Zn576 2.046 . S
O584 C605 1.254 . S
N585 Zn579 2.036 . S
N585 C586 1.298 . S
N585 N588 1.398 . S
C586 N585 1.298 . S
C586 N589 1.367 . S
C586 C599 1.481 . S
C587 N588 1.299 . S
C587 N589 1.379 . S
N588 N585 1.398 . S
N588 C587 1.299 . S
N589 C586 1.367 . S
N589 C587 1.379 . S
C590 N592 1.298 . S
C590 N594 1.367 . S
C590 C598 1.481 . S
C591 N593 1.299 . S
C591 N594 1.379 . S
N592 Zn576 2.036 . S
N592 C590 1.298 . S
N592 N593 1.398 . S
N593 C591 1.299 . S
N593 N592 1.398 . S
N594 C590 1.367 . S
N594 C591 1.379 . S
H595 C598 0.980 . S
H596 C598 0.981 . S
H597 C598 0.981 . S
C598 C590 1.481 . S
C598 H595 0.980 . S
C598 H596 0.981 . S
C598 H597 0.981 . S
C599 C586 1.481 . S
C599 H600 0.980 . S
C599 H601 0.981 . S
C599 H602 0.981 . S
H600 C599 0.980 . S
H601 C599 0.981 . S
H602 C599 0.981 . S
O603 Zn579 2.066 . S
O603 C582 1.256 . S
O604 Zn576 2.053 . S
O604 C582 1.244 . S
C605 O583 1.259 . S
C605 O584 1.254 . S
O606 Zn576 2.066 . S
O606 C578 1.256 . S
O607 C578 1.244 . S
O607 Zn579 2.053 . S
Zn608 O609 2.055 . S
Zn608 O616 2.046 . S
Zn608 N624 2.036 . S
Zn608 O636 2.053 . S
Zn608 O638 2.066 . S
O609 Zn608 2.055 . S
O609 C612 1.259 . S
C610 O638 1.256 . S
C610 O639 1.244 . S
Zn611 O613 2.046 . S
Zn611 O615 2.055 . S
Zn611 N617 2.036 . S
Zn611 O635 2.066 . S
Zn611 O639 2.053 . S
C612 O609 1.259 . S
C612 O613 1.254 . S
O613 Zn611 2.046 . S
O613 C612 1.254 . S
C614 O635 1.256 . S
C614 O636 1.244 . S
O615 Zn611 2.055 . S
O615 C637 1.259 . S
O616 Zn608 2.046 . S
O616 C637 1.254 . S
N617 Zn611 2.036 . S
N617 C618 1.298 . S
N617 N620 1.398 . S
C618 N617 1.298 . S
C618 N621 1.367 . S
C618 C631 1.481 . S
C619 N620 1.299 . S
C619 N621 1.379 . S
N620 N617 1.398 . S
N620 C619 1.299 . S
N621 C618 1.367 . S
N621 C619 1.379 . S
C622 N624 1.298 . S
C622 N626 1.367 . S
C622 C630 1.481 . S
C623 N625 1.299 . S
C623 N626 1.379 . S
N624 Zn608 2.036 . S
N624 C622 1.298 . S
N624 N625 1.398 . S
N625 C623 1.299 . S
N625 N624 1.398 . S
N626 C622 1.367 . S
N626 C623 1.379 . S
H627 C630 0.980 . S
H628 C630 0.981 . S
H629 C630 0.981 . S
C630 C622 1.481 . S
C630 H627 0.980 . S
C630 H628 0.981 . S
C630 H629 0.981 . S
C631 C618 1.481 . S
C631 H632 0.980 . S
C631 H633 0.981 . S
C631 H634 0.981 . S
H632 C631 0.980 . S
H633 C631 0.981 . S
H634 C631 0.981 . S
O635 Zn611 2.066 . S
O635 C614 1.256 . S
O636 Zn608 2.053 . S
O636 C614 1.244 . S
C637 O615 1.259 . S
C637 O616 1.254 . S
O638 Zn608 2.066 . S
O638 C610 1.256 . S
O639 C610 1.244 . S
O639 Zn611 2.053 . S
Zn640 O641 2.055 . S
Zn640 O648 2.046 . S
Zn640 N656 2.036 . S
Zn640 O668 2.053 . S
Zn640 O670 2.066 . S
O641 Zn640 2.055 . S
O641 C644 1.259 . S
C642 O670 1.256 . S
C642 O671 1.244 . S
Zn643 O645 2.046 . S
Zn643 O647 2.055 . S
Zn643 N649 2.036 . S
Zn643 O667 2.066 . S
Zn643 O671 2.053 . S
C644 O641 1.259 . S
C644 O645 1.254 . S
O645 Zn643 2.046 . S
O645 C644 1.254 . S
C646 O667 1.256 . S
C646 O668 1.244 . S
O647 Zn643 2.055 . S
O647 C669 1.259 . S
O648 Zn640 2.046 . S
O648 C669 1.254 . S
N649 Zn643 2.036 . S
N649 C650 1.298 . S
N649 N652 1.398 . S
C650 N649 1.298 . S
C650 N653 1.367 . S
C650 C663 1.481 . S
C651 N652 1.299 . S
C651 N653 1.379 . S
N652 N649 1.398 . S
N652 C651 1.299 . S
N653 C650 1.367 . S
N653 C651 1.379 . S
C654 N656 1.298 . S
C654 N658 1.367 . S
C654 C662 1.481 . S
C655 N657 1.299 . S
C655 N658 1.379 . S
N656 Zn640 2.036 . S
N656 C654 1.298 . S
N656 N657 1.398 . S
N657 C655 1.299 . S
N657 N656 1.398 . S
N658 C654 1.367 . S
N658 C655 1.379 . S
H659 C662 0.980 . S
H660 C662 0.981 . S
H661 C662 0.981 . S
C662 C654 1.481 . S
C662 H659 0.980 . S
C662 H660 0.981 . S
C662 H661 0.981 . S
C663 C650 1.481 . S
C663 H664 0.980 . S
C663 H665 0.981 . S
C663 H666 0.981 . S
H664 C663 0.980 . S
H665 C663 0.981 . S
H666 C663 0.981 . S
O667 Zn643 2.066 . S
O667 C646 1.256 . S
O668 Zn640 2.053 . S
O668 C646 1.244 . S
C669 O647 1.259 . S
C669 O648 1.254 . S
O670 Zn640 2.066 . S
O670 C642 1.256 . S
O671 C642 1.244 . S
O671 Zn643 2.053 . S
Zn672 O673 2.055 . S
Zn672 O680 2.046 . S
Zn672 N688 2.036 . S
Zn672 O700 2.053 . S
Zn672 O702 2.066 . S
O673 Zn672 2.055 . S
O673 C676 1.259 . S
C674 O702 1.256 . S
C674 O703 1.244 . S
Zn675 O677 2.046 . S
Zn675 O679 2.055 . S
Zn675 N681 2.036 . S
Zn675 O699 2.066 . S
Zn675 O703 2.053 . S
C676 O673 1.259 . S
C676 O677 1.254 . S
O677 Zn675 2.046 . S
O677 C676 1.254 . S
C678 O699 1.256 . S
C678 O700 1.244 . S
O679 Zn675 2.055 . S
O679 C701 1.259 . S
O680 Zn672 2.046 . S
O680 C701 1.254 . S
N681 Zn675 2.036 . S
N681 C682 1.298 . S
N681 N684 1.398 . S
C682 N681 1.298 . S
C682 N685 1.367 . S
C682 C695 1.481 . S
C683 N684 1.299 . S
C683 N685 1.379 . S
N684 N681 1.398 . S
N684 C683 1.299 . S
N685 C682 1.367 . S
N685 C683 1.379 . S
C686 N688 1.298 . S
C686 N690 1.367 . S
C686 C694 1.481 . S
C687 N689 1.299 . S
C687 N690 1.379 1_554 S
N688 Zn672 2.036 . S
N688 C686 1.298 . S
N688 N689 1.398 1_556 S
N689 C687 1.299 . S
N689 N688 1.398 1_554 S
N690 C686 1.367 . S
N690 C687 1.379 1_556 S
H691 C694 0.980 . S
H692 C694 0.981 1_565 S
H693 C694 0.981 . S
C694 C686 1.481 . S
C694 H691 0.980 . S
C694 H692 0.981 1_545 S
C694 H693 0.981 . S
C695 C682 1.481 . S
C695 H696 0.980 . S
C695 H697 0.981 . S
C695 H698 0.981 . S
H696 C695 0.980 . S
H697 C695 0.981 . S
H698 C695 0.981 . S
O699 Zn675 2.066 . S
O699 C678 1.256 . S
O700 Zn672 2.053 . S
O700 C678 1.244 . S
C701 O679 1.259 . S
C701 O680 1.254 . S
O702 Zn672 2.066 . S
O702 C674 1.256 . S
O703 C674 1.244 . S
O703 Zn675 2.053 . S
Zn704 O705 2.055 . S
Zn704 O712 2.046 . S
Zn704 N720 2.036 . S
Zn704 O732 2.053 . S
Zn704 O734 2.066 . S
O705 Zn704 2.055 . S
O705 C708 1.259 . S
C706 O734 1.256 . S
C706 O735 1.244 . S
Zn707 O709 2.046 . S
Zn707 O711 2.055 . S
Zn707 N713 2.036 . S
Zn707 O731 2.066 . S
Zn707 O735 2.053 . S
C708 O705 1.259 . S
C708 O709 1.254 . S
O709 Zn707 2.046 . S
O709 C708 1.254 . S
C710 O731 1.256 . S
C710 O732 1.244 . S
O711 Zn707 2.055 . S
O711 C733 1.259 . S
O712 Zn704 2.046 . S
O712 C733 1.254 . S
N713 Zn707 2.036 . S
N713 C714 1.298 . S
N713 N716 1.398 . S
C714 N713 1.298 . S
C714 N717 1.367 . S
C714 C727 1.481 . S
C715 N716 1.299 . S
C715 N717 1.379 . S
N716 N713 1.398 . S
N716 C715 1.299 . S
N717 C714 1.367 . S
N717 C715 1.379 . S
C718 N720 1.298 . S
C718 N722 1.367 . S
C718 C726 1.481 . S
C719 N721 1.299 . S
C719 N722 1.379 1_554 S
N720 Zn704 2.036 . S
N720 C718 1.298 . S
N720 N721 1.398 1_556 S
N721 C719 1.299 . S
N721 N720 1.398 1_554 S
N722 C718 1.367 . S
N722 C719 1.379 1_556 S
H723 C726 0.980 . S
H724 C726 0.981 1_455 S
H725 C726 0.981 . S
C726 C718 1.481 . S
C726 H723 0.980 . S
C726 H724 0.981 1_655 S
C726 H725 0.981 . S
C727 C714 1.481 . S
C727 H728 0.980 . S
C727 H729 0.981 . S
C727 H730 0.981 . S
H728 C727 0.980 . S
H729 C727 0.981 . S
H730 C727 0.981 . S
O731 Zn707 2.066 . S
O731 C710 1.256 . S
O732 Zn704 2.053 . S
O732 C710 1.244 . S
C733 O711 1.259 . S
C733 O712 1.254 . S
O734 Zn704 2.066 . S
O734 C706 1.256 . S
O735 C706 1.244 . S
O735 Zn707 2.053 . S
Zn736 O737 2.055 . S
Zn736 O744 2.046 . S
Zn736 N752 2.036 . S
Zn736 O764 2.053 . S
Zn736 O766 2.066 . S
O737 Zn736 2.055 . S
O737 C740 1.259 . S
C738 O766 1.256 . S
C738 O767 1.244 . S
Zn739 O741 2.046 . S
Zn739 O743 2.055 . S
Zn739 N745 2.036 . S
Zn739 O763 2.066 . S
Zn739 O767 2.053 . S
C740 O737 1.259 . S
C740 O741 1.254 . S
O741 Zn739 2.046 . S
O741 C740 1.254 . S
C742 O763 1.256 . S
C742 O764 1.244 . S
O743 Zn739 2.055 . S
O743 C765 1.259 . S
O744 Zn736 2.046 . S
O744 C765 1.254 . S
N745 Zn739 2.036 . S
N745 C746 1.298 . S
N745 N748 1.398 . S
C746 N745 1.298 . S
C746 N749 1.367 . S
C746 C759 1.481 . S
C747 N748 1.299 . S
C747 N749 1.379 . S
N748 N745 1.398 . S
N748 C747 1.299 . S
N749 C746 1.367 . S
N749 C747 1.379 . S
C750 N752 1.298 . S
C750 N754 1.367 . S
C750 C758 1.481 . S
C751 N753 1.299 . S
C751 N754 1.379 1_554 S
N752 Zn736 2.036 . S
N752 C750 1.298 . S
N752 N753 1.398 1_556 S
N753 C751 1.299 . S
N753 N752 1.398 1_554 S
N754 C750 1.367 . S
N754 C751 1.379 1_556 S
H755 C758 0.980 . S
H756 C758 0.981 . S
H757 C758 0.981 . S
C758 C750 1.481 . S
C758 H755 0.980 . S
C758 H756 0.981 . S
C758 H757 0.981 . S
C759 C746 1.481 . S
C759 H760 0.980 . S
C759 H761 0.981 . S
C759 H762 0.981 . S
H760 C759 0.980 . S
H761 C759 0.981 . S
H762 C759 0.981 . S
O763 Zn739 2.066 . S
O763 C742 1.256 . S
O764 Zn736 2.053 . S
O764 C742 1.244 . S
C765 O743 1.259 . S
C765 O744 1.254 . S
O766 Zn736 2.066 . S
O766 C738 1.256 . S
O767 C738 1.244 . S
O767 Zn739 2.053 . S
Zn768 O769 2.055 . S
Zn768 O776 2.046 . S
Zn768 N784 2.036 . S
Zn768 O796 2.053 . S
Zn768 O798 2.066 . S
O769 Zn768 2.055 . S
O769 C772 1.259 . S
C770 O798 1.256 . S
C770 O799 1.244 . S
Zn771 O773 2.046 . S
Zn771 O775 2.055 . S
Zn771 N777 2.036 . S
Zn771 O795 2.066 . S
Zn771 O799 2.053 . S
C772 O769 1.259 . S
C772 O773 1.254 . S
O773 Zn771 2.046 . S
O773 C772 1.254 . S
C774 O795 1.256 . S
C774 O796 1.244 . S
O775 Zn771 2.055 . S
O775 C797 1.259 . S
O776 Zn768 2.046 . S
O776 C797 1.254 . S
N777 Zn771 2.036 . S
N777 C778 1.298 . S
N777 N780 1.398 . S
C778 N777 1.298 . S
C778 N781 1.367 . S
C778 C791 1.481 . S
C779 N780 1.299 . S
C779 N781 1.379 . S
N780 N777 1.398 . S
N780 C779 1.299 . S
N781 C778 1.367 . S
N781 C779 1.379 . S
C782 N784 1.298 . S
C782 N786 1.367 . S
C782 C790 1.481 . S
C783 N785 1.299 . S
C783 N786 1.379 . S
N784 Zn768 2.036 . S
N784 C782 1.298 . S
N784 N785 1.398 . S
N785 C783 1.299 . S
N785 N784 1.398 . S
N786 C782 1.367 . S
N786 C783 1.379 . S
H787 C790 0.980 . S
H788 C790 0.981 . S
H789 C790 0.981 . S
C790 C782 1.481 . S
C790 H787 0.980 . S
C790 H788 0.981 . S
C790 H789 0.981 . S
C791 C778 1.481 . S
C791 H792 0.980 . S
C791 H793 0.981 . S
C791 H794 0.981 . S
H792 C791 0.980 . S
H793 C791 0.981 . S
H794 C791 0.981 . S
O795 Zn771 2.066 . S
O795 C774 1.256 . S
O796 Zn768 2.053 . S
O796 C774 1.244 . S
C797 O775 1.259 . S
C797 O776 1.254 . S
O798 Zn768 2.066 . S
O798 C770 1.256 . S
O799 C770 1.244 . S
O799 Zn771 2.053 . S
Zn800 O801 2.055 . S
Zn800 O808 2.046 . S
Zn800 N816 2.036 . S
Zn800 O828 2.053 . S
Zn800 O830 2.066 . S
O801 Zn800 2.055 . S
O801 C804 1.259 . S
C802 O830 1.256 . S
C802 O831 1.244 . S
Zn803 O805 2.046 . S
Zn803 O807 2.055 . S
Zn803 N809 2.036 . S
Zn803 O827 2.066 . S
Zn803 O831 2.053 . S
C804 O801 1.259 . S
C804 O805 1.254 . S
O805 Zn803 2.046 . S
O805 C804 1.254 . S
C806 O827 1.256 . S
C806 O828 1.244 . S
O807 Zn803 2.055 . S
O807 C829 1.259 . S
O808 Zn800 2.046 . S
O808 C829 1.254 . S
N809 Zn803 2.036 . S
N809 C810 1.298 . S
N809 N812 1.398 . S
C810 N809 1.298 . S
C810 N813 1.367 . S
C810 C823 1.481 . S
C811 N812 1.299 . S
C811 N813 1.379 . S
N812 N809 1.398 . S
N812 C811 1.299 . S
N813 C810 1.367 . S
N813 C811 1.379 . S
C814 N816 1.298 . S
C814 N818 1.367 . S
C814 C822 1.481 . S
C815 N817 1.299 . S
C815 N818 1.379 . S
N816 Zn800 2.036 . S
N816 C814 1.298 . S
N816 N817 1.398 . S
N817 C815 1.299 . S
N817 N816 1.398 . S
N818 C814 1.367 . S
N818 C815 1.379 . S
H819 C822 0.980 . S
H820 C822 0.981 . S
H821 C822 0.981 . S
C822 C814 1.481 . S
C822 H819 0.980 . S
C822 H820 0.981 . S
C822 H821 0.981 . S
C823 C810 1.481 . S
C823 H824 0.980 . S
C823 H825 0.981 . S
C823 H826 0.981 . S
H824 C823 0.980 . S
H825 C823 0.981 . S
H826 C823 0.981 . S
O827 Zn803 2.066 . S
O827 C806 1.256 . S
O828 Zn800 2.053 . S
O828 C806 1.244 . S
C829 O807 1.259 . S
C829 O808 1.254 . S
O830 Zn800 2.066 . S
O830 C802 1.256 . S
O831 C802 1.244 . S
O831 Zn803 2.053 . S
Zn832 O833 2.055 . S
Zn832 O840 2.046 . S
Zn832 N848 2.036 . S
Zn832 O860 2.053 . S
Zn832 O862 2.066 . S
O833 Zn832 2.055 . S
O833 C836 1.259 . S
C834 O862 1.256 . S
C834 O863 1.244 . S
Zn835 O837 2.046 . S
Zn835 O839 2.055 . S
Zn835 N841 2.036 . S
Zn835 O859 2.066 . S
Zn835 O863 2.053 . S
C836 O833 1.259 . S
C836 O837 1.254 . S
O837 Zn835 2.046 . S
O837 C836 1.254 . S
C838 O859 1.256 . S
C838 O860 1.244 . S
O839 Zn835 2.055 . S
O839 C861 1.259 . S
O840 Zn832 2.046 . S
O840 C861 1.254 . S
N841 Zn835 2.036 . S
N841 C842 1.298 . S
N841 N844 1.398 . S
C842 N841 1.298 . S
C842 N845 1.367 . S
C842 C855 1.481 . S
C843 N844 1.299 . S
C843 N845 1.379 . S
N844 N841 1.398 . S
N844 C843 1.299 . S
N845 C842 1.367 . S
N845 C843 1.379 . S
C846 N848 1.298 . S
C846 N850 1.367 . S
C846 C854 1.481 . S
C847 N849 1.299 . S
C847 N850 1.379 . S
N848 Zn832 2.036 . S
N848 C846 1.298 . S
N848 N849 1.398 . S
N849 C847 1.299 . S
N849 N848 1.398 . S
N850 C846 1.367 . S
N850 C847 1.379 . S
H851 C854 0.980 . S
H852 C854 0.981 . S
H853 C854 0.981 . S
C854 C846 1.481 . S
C854 H851 0.980 . S
C854 H852 0.981 . S
C854 H853 0.981 . S
C855 C842 1.481 . S
C855 H856 0.980 . S
C855 H857 0.981 . S
C855 H858 0.981 . S
H856 C855 0.980 . S
H857 C855 0.981 . S
H858 C855 0.981 . S
O859 Zn835 2.066 . S
O859 C838 1.256 . S
O860 Zn832 2.053 . S
O860 C838 1.244 . S
C861 O839 1.259 . S
C861 O840 1.254 . S
O862 Zn832 2.066 . S
O862 C834 1.256 . S
O863 C834 1.244 . S
O863 Zn835 2.053 . S
Zn864 O865 2.055 . S
Zn864 O872 2.046 . S
Zn864 N880 2.036 . S
Zn864 O892 2.053 . S
Zn864 O894 2.066 . S
O865 Zn864 2.055 . S
O865 C868 1.259 . S
C866 O894 1.256 . S
C866 O895 1.244 . S
Zn867 O869 2.046 . S
Zn867 O871 2.055 . S
Zn867 N873 2.036 . S
Zn867 O891 2.066 . S
Zn867 O895 2.053 . S
C868 O865 1.259 . S
C868 O869 1.254 . S
O869 Zn867 2.046 . S
O869 C868 1.254 . S
C870 O891 1.256 . S
C870 O892 1.244 . S
O871 Zn867 2.055 . S
O871 C893 1.259 . S
O872 Zn864 2.046 . S
O872 C893 1.254 . S
N873 Zn867 2.036 . S
N873 C874 1.298 . S
N873 N876 1.398 . S
C874 N873 1.298 . S
C874 N877 1.367 . S
C874 C887 1.481 . S
C875 N876 1.299 . S
C875 N877 1.379 . S
N876 N873 1.398 . S
N876 C875 1.299 . S
N877 C874 1.367 . S
N877 C875 1.379 . S
C878 N880 1.298 . S
C878 N882 1.367 . S
C878 C886 1.481 . S
C879 N881 1.299 . S
C879 N882 1.379 1_556 S
N880 Zn864 2.036 . S
N880 C878 1.298 . S
N880 N881 1.398 1_554 S
N881 C879 1.299 . S
N881 N880 1.398 1_556 S
N882 C878 1.367 . S
N882 C879 1.379 1_554 S
H883 C886 0.980 . S
H884 C886 0.981 1_545 S
H885 C886 0.981 . S
C886 C878 1.481 . S
C886 H883 0.980 . S
C886 H884 0.981 1_565 S
C886 H885 0.981 . S
C887 C874 1.481 . S
C887 H888 0.980 . S
C887 H889 0.981 . S
C887 H890 0.981 . S
H888 C887 0.980 . S
H889 C887 0.981 . S
H890 C887 0.981 . S
O891 Zn867 2.066 . S
O891 C870 1.256 . S
O892 Zn864 2.053 . S
O892 C870 1.244 . S
C893 O871 1.259 . S
C893 O872 1.254 . S
O894 Zn864 2.066 . S
O894 C866 1.256 . S
O895 C866 1.244 . S
O895 Zn867 2.053 . S
Zn896 O897 2.055 . S
Zn896 O904 2.046 . S
Zn896 N912 2.036 . S
Zn896 O924 2.053 . S
Zn896 O926 2.066 . S
O897 Zn896 2.055 . S
O897 C900 1.259 . S
C898 O926 1.256 . S
C898 O927 1.244 . S
Zn899 O901 2.046 . S
Zn899 O903 2.055 . S
Zn899 N905 2.036 . S
Zn899 O923 2.066 . S
Zn899 O927 2.053 . S
C900 O897 1.259 . S
C900 O901 1.254 . S
O901 Zn899 2.046 . S
O901 C900 1.254 . S
C902 O923 1.256 . S
C902 O924 1.244 . S
O903 Zn899 2.055 . S
O903 C925 1.259 . S
O904 Zn896 2.046 . S
O904 C925 1.254 . S
N905 Zn899 2.036 . S
N905 C906 1.298 . S
N905 N908 1.398 1_554 S
C906 N905 1.298 . S
C906 N909 1.367 . S
C906 C919 1.481 . S
C907 N908 1.299 . S
C907 N909 1.379 1_556 S
N908 N905 1.398 1_556 S
N908 C907 1.299 . S
N909 C906 1.367 . S
N909 C907 1.379 1_554 S
C910 N912 1.298 . S
C910 N914 1.367 . S
C910 C918 1.481 . S
C911 N913 1.299 . S
C911 N914 1.379 . S
N912 Zn896 2.036 . S
N912 C910 1.298 . S
N912 N913 1.398 . S
N913 C911 1.299 . S
N913 N912 1.398 . S
N914 C910 1.367 . S
N914 C911 1.379 . S
H915 C918 0.980 . S
H916 C918 0.981 . S
H917 C918 0.981 . S
C918 C910 1.481 . S
C918 H915 0.980 . S
C918 H916 0.981 . S
C918 H917 0.981 . S
C919 C906 1.481 . S
C919 H920 0.980 . S
C919 H921 0.981 1_455 S
C919 H922 0.981 . S
H920 C919 0.980 . S
H921 C919 0.981 1_655 S
H922 C919 0.981 . S
O923 Zn899 2.066 . S
O923 C902 1.256 . S
O924 Zn896 2.053 . S
O924 C902 1.244 . S
C925 O903 1.259 . S
C925 O904 1.254 . S
O926 Zn896 2.066 . S
O926 C898 1.256 . S
O927 C898 1.244 . S
O927 Zn899 2.053 . S
Zn928 O929 2.055 . S
Zn928 O936 2.046 . S
Zn928 N944 2.036 . S
Zn928 O956 2.053 . S
Zn928 O958 2.066 . S
O929 Zn928 2.055 . S
O929 C932 1.259 . S
C930 O958 1.256 . S
C930 O959 1.244 . S
Zn931 O933 2.046 . S
Zn931 O935 2.055 . S
Zn931 N937 2.036 . S
Zn931 O955 2.066 . S
Zn931 O959 2.053 . S
C932 O929 1.259 . S
C932 O933 1.254 . S
O933 Zn931 2.046 . S
O933 C932 1.254 . S
C934 O955 1.256 . S
C934 O956 1.244 . S
O935 Zn931 2.055 . S
O935 C957 1.259 . S
O936 Zn928 2.046 . S
O936 C957 1.254 . S
N937 Zn931 2.036 . S
N937 C938 1.298 . S
N937 N940 1.398 . S
C938 N937 1.298 . S
C938 N941 1.367 . S
C938 C951 1.481 . S
C939 N940 1.299 . S
C939 N941 1.379 . S
N940 N937 1.398 . S
N940 C939 1.299 . S
N941 C938 1.367 . S
N941 C939 1.379 . S
C942 N944 1.298 . S
C942 N946 1.367 . S
C942 C950 1.481 . S
C943 N945 1.299 . S
C943 N946 1.379 1_556 S
N944 Zn928 2.036 . S
N944 C942 1.298 . S
N944 N945 1.398 1_554 S
N945 C943 1.299 . S
N945 N944 1.398 1_556 S
N946 C942 1.367 . S
N946 C943 1.379 1_554 S
H947 C950 0.980 . S
H948 C950 0.981 . S
H949 C950 0.981 . S
C950 C942 1.481 . S
C950 H947 0.980 . S
C950 H948 0.981 . S
C950 H949 0.981 . S
C951 C938 1.481 . S
C951 H952 0.980 . S
C951 H953 0.981 . S
C951 H954 0.981 . S
H952 C951 0.980 . S
H953 C951 0.981 . S
H954 C951 0.981 . S
O955 Zn931 2.066 . S
O955 C934 1.256 . S
O956 Zn928 2.053 . S
O956 C934 1.244 . S
C957 O935 1.259 . S
C957 O936 1.254 . S
O958 Zn928 2.066 . S
O958 C930 1.256 . S
O959 C930 1.244 . S
O959 Zn931 2.053 . S
Zn960 O961 2.055 . S
Zn960 O968 2.046 . S
Zn960 N976 2.036 . S
Zn960 O988 2.053 . S
Zn960 O990 2.066 . S
O961 Zn960 2.055 . S
O961 C964 1.259 . S
C962 O990 1.256 . S
C962 O991 1.244 . S
Zn963 O965 2.046 . S
Zn963 O967 2.055 . S
Zn963 N969 2.036 . S
Zn963 O987 2.066 . S
Zn963 O991 2.053 . S
C964 O961 1.259 . S
C964 O965 1.254 . S
O965 Zn963 2.046 . S
O965 C964 1.254 . S
C966 O987 1.256 . S
C966 O988 1.244 . S
O967 Zn963 2.055 . S
O967 C989 1.259 . S
O968 Zn960 2.046 . S
O968 C989 1.254 . S
N969 Zn963 2.036 . S
N969 C970 1.298 . S
N969 N972 1.398 . S
C970 N969 1.298 . S
C970 N973 1.367 . S
C970 C983 1.481 . S
C971 N972 1.299 . S
C971 N973 1.379 . S
N972 N969 1.398 . S
N972 C971 1.299 . S
N973 C970 1.367 . S
N973 C971 1.379 . S
C974 N976 1.298 . S
C974 N978 1.367 . S
C974 C982 1.481 . S
C975 N977 1.299 . S
C975 N978 1.379 . S
N976 Zn960 2.036 . S
N976 C974 1.298 . S
N976 N977 1.398 . S
N977 C975 1.299 . S
N977 N976 1.398 . S
N978 C974 1.367 . S
N978 C975 1.379 . S
H979 C982 0.980 . S
H980 C982 0.981 . S
H981 C982 0.981 . S
C982 C974 1.481 . S
C982 H979 0.980 . S
C982 H980 0.981 . S
C982 H981 0.981 . S
C983 C970 1.481 . S
C983 H984 0.980 . S
C983 H985 0.981 1_455 S
C983 H986 0.981 . S
H984 C983 0.980 . S
H985 C983 0.981 1_655 S
H986 C983 0.981 . S
O987 Zn963 2.066 . S
O987 C966 1.256 . S
O988 Zn960 2.053 . S
O988 C966 1.244 . S
C989 O967 1.259 . S
C989 O968 1.254 . S
O990 Zn960 2.066 . S
O990 C962 1.256 . S
O991 C962 1.244 . S
O991 Zn963 2.053 . S
Zn992 O993 2.055 . S
Zn992 O1000 2.046 . S
Zn992 N1008 2.036 . S
Zn992 O1020 2.053 . S
Zn992 O1022 2.066 . S
O993 Zn992 2.055 . S
O993 C996 1.259 . S
C994 O1022 1.256 . S
C994 O1023 1.244 . S
Zn995 O997 2.046 . S
Zn995 O999 2.055 . S
Zn995 N1001 2.036 . S
Zn995 O1019 2.066 . S
Zn995 O1023 2.053 . S
C996 O993 1.259 . S
C996 O997 1.254 . S
O997 Zn995 2.046 . S
O997 C996 1.254 . S
C998 O1019 1.256 . S
C998 O1020 1.244 . S
O999 Zn995 2.055 . S
O999 C1021 1.259 . S
O1000 Zn992 2.046 . S
O1000 C1021 1.254 . S
N1001 Zn995 2.036 . S
N1001 C1002 1.298 . S
N1001 N1004 1.398 . S
C1002 N1001 1.298 . S
C1002 N1005 1.367 . S
C1002 C1015 1.481 . S
C1003 N1004 1.299 . S
C1003 N1005 1.379 . S
N1004 N1001 1.398 . S
N1004 C1003 1.299 . S
N1005 C1002 1.367 . S
N1005 C1003 1.379 . S
C1006 N1008 1.298 . S
C1006 N1010 1.367 . S
C1006 C1014 1.481 . S
C1007 N1009 1.299 . S
C1007 N1010 1.379 . S
N1008 Zn992 2.036 . S
N1008 C1006 1.298 . S
N1008 N1009 1.398 . S
N1009 C1007 1.299 . S
N1009 N1008 1.398 . S
N1010 C1006 1.367 . S
N1010 C1007 1.379 . S
H1011 C1014 0.980 . S
H1012 C1014 0.981 . S
H1013 C1014 0.981 . S
C1014 C1006 1.481 . S
C1014 H1011 0.980 . S
C1014 H1012 0.981 . S
C1014 H1013 0.981 . S
C1015 C1002 1.481 . S
C1015 H1016 0.980 . S
C1015 H1017 0.981 . S
C1015 H1018 0.981 . S
H1016 C1015 0.980 . S
H1017 C1015 0.981 . S
H1018 C1015 0.981 . S
O1019 Zn995 2.066 . S
O1019 C998 1.256 . S
O1020 Zn992 2.053 . S
O1020 C998 1.244 . S
C1021 O999 1.259 . S
C1021 O1000 1.254 . S
O1022 Zn992 2.066 . S
O1022 C994 1.256 . S
O1023 C994 1.244 . S
O1023 Zn995 2.053 . S
Zn1024 O1025 2.055 . S
Zn1024 O1032 2.046 . S
Zn1024 N1040 2.036 . S
Zn1024 O1052 2.053 . S
Zn1024 O1054 2.066 . S
O1025 Zn1024 2.055 . S
O1025 C1028 1.259 . S
C1026 O1054 1.256 . S
C1026 O1055 1.244 . S
Zn1027 O1029 2.046 . S
Zn1027 O1031 2.055 . S
Zn1027 N1033 2.036 . S
Zn1027 O1051 2.066 . S
Zn1027 O1055 2.053 . S
C1028 O1025 1.259 . S
C1028 O1029 1.254 . S
O1029 Zn1027 2.046 . S
O1029 C1028 1.254 . S
C1030 O1051 1.256 . S
C1030 O1052 1.244 . S
O1031 Zn1027 2.055 . S
O1031 C1053 1.259 . S
O1032 Zn1024 2.046 . S
O1032 C1053 1.254 . S
N1033 Zn1027 2.036 . S
N1033 C1034 1.298 . S
N1033 N1036 1.398 . S
C1034 N1033 1.298 . S
C1034 N1037 1.367 . S
C1034 C1047 1.481 . S
C1035 N1036 1.299 . S
C1035 N1037 1.379 . S
N1036 N1033 1.398 . S
N1036 C1035 1.299 . S
N1037 C1034 1.367 . S
N1037 C1035 1.379 . S
C1038 N1040 1.298 . S
C1038 N1042 1.367 . S
C1038 C1046 1.481 . S
C1039 N1041 1.299 . S
C1039 N1042 1.379 . S
N1040 Zn1024 2.036 . S
N1040 C1038 1.298 . S
N1040 N1041 1.398 . S
N1041 C1039 1.299 . S
N1041 N1040 1.398 . S
N1042 C1038 1.367 . S
N1042 C1039 1.379 . S
H1043 C1046 0.980 . S
H1044 C1046 0.981 . S
H1045 C1046 0.981 . S
C1046 C1038 1.481 . S
C1046 H1043 0.980 . S
C1046 H1044 0.981 . S
C1046 H1045 0.981 . S
C1047 C1034 1.481 . S
C1047 H1048 0.980 . S
C1047 H1049 0.981 1_565 S
C1047 H1050 0.981 . S
H1048 C1047 0.980 . S
H1049 C1047 0.981 1_545 S
H1050 C1047 0.981 . S
O1051 Zn1027 2.066 . S
O1051 C1030 1.256 . S
O1052 Zn1024 2.053 . S
O1052 C1030 1.244 . S
C1053 O1031 1.259 . S
C1053 O1032 1.254 . S
O1054 Zn1024 2.066 . S
O1054 C1026 1.256 . S
O1055 C1026 1.244 . S
O1055 Zn1027 2.053 . S
Zn1056 O1057 2.055 . S
Zn1056 O1064 2.046 . S
Zn1056 N1072 2.036 . S
Zn1056 O1084 2.053 . S
Zn1056 O1086 2.066 . S
O1057 Zn1056 2.055 . S
O1057 C1060 1.259 . S
C1058 O1086 1.256 . S
C1058 O1087 1.244 . S
Zn1059 O1061 2.046 . S
Zn1059 O1063 2.055 . S
Zn1059 N1065 2.036 . S
Zn1059 O1083 2.066 . S
Zn1059 O1087 2.053 . S
C1060 O1057 1.259 . S
C1060 O1061 1.254 . S
O1061 Zn1059 2.046 . S
O1061 C1060 1.254 . S
C1062 O1083 1.256 . S
C1062 O1084 1.244 . S
O1063 Zn1059 2.055 . S
O1063 C1085 1.259 . S
O1064 Zn1056 2.046 . S
O1064 C1085 1.254 . S
N1065 Zn1059 2.036 . S
N1065 C1066 1.298 . S
N1065 N1068 1.398 . S
C1066 N1065 1.298 . S
C1066 N1069 1.367 . S
C1066 C1079 1.481 . S
C1067 N1068 1.299 . S
C1067 N1069 1.379 . S
N1068 N1065 1.398 . S
N1068 C1067 1.299 . S
N1069 C1066 1.367 . S
N1069 C1067 1.379 . S
C1070 N1072 1.298 . S
C1070 N1074 1.367 . S
C1070 C1078 1.481 . S
C1071 N1073 1.299 . S
C1071 N1074 1.379 . S
N1072 Zn1056 2.036 . S
N1072 C1070 1.298 . S
N1072 N1073 1.398 . S
N1073 C1071 1.299 . S
N1073 N1072 1.398 . S
N1074 C1070 1.367 . S
N1074 C1071 1.379 . S
H1075 C1078 0.980 . S
H1076 C1078 0.981 . S
H1077 C1078 0.981 . S
C1078 C1070 1.481 . S
C1078 H1075 0.980 . S
C1078 H1076 0.981 . S
C1078 H1077 0.981 . S
C1079 C1066 1.481 . S
C1079 H1080 0.980 . S
C1079 H1081 0.981 . S
C1079 H1082 0.981 . S
H1080 C1079 0.980 . S
H1081 C1079 0.981 . S
H1082 C1079 0.981 . S
O1083 Zn1059 2.066 . S
O1083 C1062 1.256 . S
O1084 Zn1056 2.053 . S
O1084 C1062 1.244 . S
C1085 O1063 1.259 . S
C1085 O1064 1.254 . S
O1086 Zn1056 2.066 . S
O1086 C1058 1.256 . S
O1087 C1058 1.244 . S
O1087 Zn1059 2.053 . S
Zn1088 O1089 2.055 . S
Zn1088 O1096 2.046 . S
Zn1088 N1104 2.036 . S
Zn1088 O1116 2.053 . S
Zn1088 O1118 2.066 . S
O1089 Zn1088 2.055 . S
O1089 C1092 1.259 . S
C1090 O1118 1.256 . S
C1090 O1119 1.244 . S
Zn1091 O1093 2.046 . S
Zn1091 O1095 2.055 . S
Zn1091 N1097 2.036 . S
Zn1091 O1115 2.066 . S
Zn1091 O1119 2.053 . S
C1092 O1089 1.259 . S
C1092 O1093 1.254 . S
O1093 Zn1091 2.046 . S
O1093 C1092 1.254 . S
C1094 O1115 1.256 . S
C1094 O1116 1.244 . S
O1095 Zn1091 2.055 . S
O1095 C1117 1.259 . S
O1096 Zn1088 2.046 . S
O1096 C1117 1.254 . S
N1097 Zn1091 2.036 . S
N1097 C1098 1.298 . S
N1097 N1100 1.398 . S
C1098 N1097 1.298 . S
C1098 N1101 1.367 . S
C1098 C1111 1.481 . S
C1099 N1100 1.299 . S
C1099 N1101 1.379 . S
N1100 N1097 1.398 . S
N1100 C1099 1.299 . S
N1101 C1098 1.367 . S
N1101 C1099 1.379 . S
C1102 N1104 1.298 . S
C1102 N1106 1.367 . S
C1102 C1110 1.481 . S
C1103 N1105 1.299 . S
C1103 N1106 1.379 . S
N1104 Zn1088 2.036 . S
N1104 C1102 1.298 . S
N1104 N1105 1.398 . S
N1105 C1103 1.299 . S
N1105 N1104 1.398 . S
N1106 C1102 1.367 . S
N1106 C1103 1.379 . S
H1107 C1110 0.980 . S
H1108 C1110 0.981 . S
H1109 C1110 0.981 . S
C1110 C1102 1.481 . S
C1110 H1107 0.980 . S
C1110 H1108 0.981 . S
C1110 H1109 0.981 . S
C1111 C1098 1.481 . S
C1111 H1112 0.980 . S
C1111 H1113 0.981 . S
C1111 H1114 0.981 . S
H1112 C1111 0.980 . S
H1113 C1111 0.981 . S
H1114 C1111 0.981 . S
O1115 Zn1091 2.066 . S
O1115 C1094 1.256 . S
O1116 Zn1088 2.053 . S
O1116 C1094 1.244 . S
C1117 O1095 1.259 . S
C1117 O1096 1.254 . S
O1118 Zn1088 2.066 . S
O1118 C1090 1.256 . S
O1119 C1090 1.244 . S
O1119 Zn1091 2.053 . S
Zn1120 O1121 2.055 . S
Zn1120 O1128 2.046 . S
Zn1120 N1136 2.036 . S
Zn1120 O1148 2.053 . S
Zn1120 O1150 2.066 . S
O1121 Zn1120 2.055 . S
O1121 C1124 1.259 . S
C1122 O1150 1.256 . S
C1122 O1151 1.244 . S
Zn1123 O1125 2.046 . S
Zn1123 O1127 2.055 . S
Zn1123 N1129 2.036 . S
Zn1123 O1147 2.066 . S
Zn1123 O1151 2.053 . S
C1124 O1121 1.259 . S
C1124 O1125 1.254 . S
O1125 Zn1123 2.046 . S
O1125 C1124 1.254 . S
C1126 O1147 1.256 . S
C1126 O1148 1.244 . S
O1127 Zn1123 2.055 . S
O1127 C1149 1.259 . S
O1128 Zn1120 2.046 . S
O1128 C1149 1.254 . S
N1129 Zn1123 2.036 . S
N1129 C1130 1.298 . S
N1129 N1132 1.398 . S
C1130 N1129 1.298 . S
C1130 N1133 1.367 . S
C1130 C1143 1.481 . S
C1131 N1132 1.299 . S
C1131 N1133 1.379 . S
N1132 N1129 1.398 . S
N1132 C1131 1.299 . S
N1133 C1130 1.367 . S
N1133 C1131 1.379 . S
C1134 N1136 1.298 . S
C1134 N1138 1.367 . S
C1134 C1142 1.481 . S
C1135 N1137 1.299 . S
C1135 N1138 1.379 . S
N1136 Zn1120 2.036 . S
N1136 C1134 1.298 . S
N1136 N1137 1.398 . S
N1137 C1135 1.299 . S
N1137 N1136 1.398 . S
N1138 C1134 1.367 . S
N1138 C1135 1.379 . S
H1139 C1142 0.980 . S
H1140 C1142 0.981 . S
H1141 C1142 0.981 . S
C1142 C1134 1.481 . S
C1142 H1139 0.980 . S
C1142 H1140 0.981 . S
C1142 H1141 0.981 . S
C1143 C1130 1.481 . S
C1143 H1144 0.980 . S
C1143 H1145 0.981 . S
C1143 H1146 0.981 . S
H1144 C1143 0.980 . S
H1145 C1143 0.981 . S
H1146 C1143 0.981 . S
O1147 Zn1123 2.066 . S
O1147 C1126 1.256 . S
O1148 Zn1120 2.053 . S
O1148 C1126 1.244 . S
C1149 O1127 1.259 . S
C1149 O1128 1.254 . S
O1150 Zn1120 2.066 . S
O1150 C1122 1.256 . S
O1151 C1122 1.244 . S
O1151 Zn1123 2.053 . S
C1152 C1153 1.387 1_556 S
C1152 H1156 0.950 . S
C1152 C1161 1.390 . S
C1153 C1152 1.387 1_554 S
C1153 C1155 1.387 . S
H1154 C1161 0.950 . S
C1155 C1153 1.387 . S
C1155 C1157 1.390 . S
C1155 H1159 0.950 . S
H1156 C1152 0.950 . S
C1157 C1155 1.390 . S
C1157 C1158 1.387 . S
C1157 H1160 0.950 . S
C1158 C1157 1.387 . S
C1158 C1161 1.387 1_554 S
H1159 C1155 0.950 . S
H1160 C1157 0.950 . S
C1161 C1152 1.390 . S
C1161 H1154 0.950 . S
C1161 C1158 1.387 1_556 S
C1162 C1163 1.387 1_556 S
C1162 H1166 0.950 . S
C1162 C1171 1.390 . S
C1163 C1162 1.387 1_554 S
C1163 C1165 1.387 . S
H1164 C1171 0.950 . S
C1165 C1163 1.387 . S
C1165 C1167 1.390 . S
C1165 H1169 0.950 . S
H1166 C1162 0.950 . S
C1167 C1165 1.390 . S
C1167 C1168 1.387 . S
C1167 H1170 0.950 . S
C1168 C1167 1.387 . S
C1168 C1171 1.387 1_554 S
H1169 C1165 0.950 . S
H1170 C1167 0.950 . S
C1171 C1162 1.390 . S
C1171 H1164 0.950 . S
C1171 C1168 1.387 1_556 S
C1172 C1173 1.387 . S
C1172 H1176 0.950 . S
C1172 C1181 1.390 . S
C1173 C1172 1.387 . S
C1173 C1175 1.387 . S
H1174 C1181 0.950 . S
C1175 C1173 1.387 . S
C1175 C1177 1.390 . S
C1175 H1179 0.950 . S
H1176 C1172 0.950 . S
C1177 C1175 1.390 . S
C1177 C1178 1.387 . S
C1177 H1180 0.950 . S
C1178 C1177 1.387 . S
C1178 C1181 1.387 . S
H1179 C1175 0.950 . S
H1180 C1177 0.950 . S
C1181 C1172 1.390 . S
C1181 H1174 0.950 . S
C1181 C1178 1.387 . S
C1182 C1183 1.387 . S
C1182 H1186 0.950 . S
C1182 C1191 1.390 . S
C1183 C1182 1.387 . S
C1183 C1185 1.387 . S
H1184 C1191 0.950 . S
C1185 C1183 1.387 . S
C1185 C1187 1.390 . S
C1185 H1189 0.950 . S
H1186 C1182 0.950 . S
C1187 C1185 1.390 . S
C1187 C1188 1.387 . S
C1187 H1190 0.950 . S
C1188 C1187 1.387 . S
C1188 C1191 1.387 . S
H1189 C1185 0.950 . S
H1190 C1187 0.950 . S
C1191 C1182 1.390 . S
C1191 H1184 0.950 . S
C1191 C1188 1.387 . S
C1192 C1193 1.387 . S
C1192 H1196 0.950 . S
C1192 C1201 1.390 . S
C1193 C1192 1.387 . S
C1193 C1195 1.387 . S
H1194 C1201 0.950 . S
C1195 C1193 1.387 . S
C1195 C1197 1.390 . S
C1195 H1199 0.950 . S
H1196 C1192 0.950 . S
C1197 C1195 1.390 . S
C1197 C1198 1.387 . S
C1197 H1200 0.950 . S
C1198 C1197 1.387 . S
C1198 C1201 1.387 . S
H1199 C1195 0.950 . S
H1200 C1197 0.950 . S
C1201 C1192 1.390 . S
C1201 H1194 0.950 . S
C1201 C1198 1.387 . S
C1202 C1203 1.387 . S
C1202 H1206 0.950 . S
C1202 C1211 1.390 . S
C1203 C1202 1.387 . S
C1203 C1205 1.387 . S
H1204 C1211 0.950 . S
C1205 C1203 1.387 . S
C1205 C1207 1.390 . S
C1205 H1209 0.950 . S
H1206 C1202 0.950 . S
C1207 C1205 1.390 . S
C1207 C1208 1.387 . S
C1207 H1210 0.950 . S
C1208 C1207 1.387 . S
C1208 C1211 1.387 . S
H1209 C1205 0.950 . S
H1210 C1207 0.950 . S
C1211 C1202 1.390 . S
C1211 H1204 0.950 . S
C1211 C1208 1.387 . S
C1212 C1213 1.387 . S
C1212 H1216 0.950 . S
C1212 C1221 1.390 . S
C1213 C1212 1.387 . S
C1213 C1215 1.387 1_556 S
H1214 C1221 0.950 . S
C1215 C1213 1.387 1_554 S
C1215 C1217 1.390 . S
C1215 H1219 0.950 . S
H1216 C1212 0.950 . S
C1217 C1215 1.390 . S
C1217 C1218 1.387 1_554 S
C1217 H1220 0.950 . S
C1218 C1217 1.387 1_556 S
C1218 C1221 1.387 . S
H1219 C1215 0.950 . S
H1220 C1217 0.950 . S
C1221 C1212 1.390 . S
C1221 H1214 0.950 . S
C1221 C1218 1.387 . S
C1222 C1223 1.387 1_554 S
C1222 H1226 0.950 . S
C1222 C1231 1.390 . S
C1223 C1222 1.387 1_556 S
C1223 C1225 1.387 . S
H1224 C1231 0.950 . S
C1225 C1223 1.387 . S
C1225 C1227 1.390 . S
C1225 H1229 0.950 . S
H1226 C1222 0.950 . S
C1227 C1225 1.390 . S
C1227 C1228 1.387 . S
C1227 H1230 0.950 . S
C1228 C1227 1.387 . S
C1228 C1231 1.387 1_556 S
H1229 C1225 0.950 . S
H1230 C1227 0.950 . S
C1231 C1222 1.390 . S
C1231 H1224 0.950 . S
C1231 C1228 1.387 1_554 S
C1232 C1233 1.387 . S
C1232 H1236 0.950 . S
C1232 C1241 1.390 . S
C1233 C1232 1.387 . S
C1233 C1235 1.387 . S
H1234 C1241 0.950 . S
C1235 C1233 1.387 . S
C1235 C1237 1.390 . S
C1235 H1239 0.950 . S
H1236 C1232 0.950 . S
C1237 C1235 1.390 . S
C1237 C1238 1.387 . S
C1237 H1240 0.950 . S
C1238 C1237 1.387 . S
C1238 C1241 1.387 . S
H1239 C1235 0.950 . S
H1240 C1237 0.950 . S
C1241 C1232 1.390 . S
C1241 H1234 0.950 . S
C1241 C1238 1.387 . S
C1242 C1243 1.387 . S
C1242 H1246 0.950 . S
C1242 C1251 1.390 . S
C1243 C1242 1.387 . S
C1243 C1245 1.387 . S
H1244 C1251 0.950 . S
C1245 C1243 1.387 . S
C1245 C1247 1.390 . S
C1245 H1249 0.950 . S
H1246 C1242 0.950 . S
C1247 C1245 1.390 . S
C1247 C1248 1.387 . S
C1247 H1250 0.950 . S
C1248 C1247 1.387 . S
C1248 C1251 1.387 . S
H1249 C1245 0.950 . S
H1250 C1247 0.950 . S
C1251 C1242 1.390 . S
C1251 H1244 0.950 . S
C1251 C1248 1.387 . S
C1252 C1253 1.387 . S
C1252 H1256 0.950 . S
C1252 C1261 1.390 . S
C1253 C1252 1.387 . S
C1253 C1255 1.387 . S
H1254 C1261 0.950 . S
C1255 C1253 1.387 . S
C1255 C1257 1.390 . S
C1255 H1259 0.950 . S
H1256 C1252 0.950 . S
C1257 C1255 1.390 . S
C1257 C1258 1.387 . S
C1257 H1260 0.950 . S
C1258 C1257 1.387 . S
C1258 C1261 1.387 . S
H1259 C1255 0.950 . S
H1260 C1257 0.950 . S
C1261 C1252 1.390 . S
C1261 H1254 0.950 . S
C1261 C1258 1.387 . S
C1262 C1263 1.387 . S
C1262 H1266 0.950 . S
C1262 C1271 1.390 . S
C1263 C1262 1.387 . S
C1263 C1265 1.387 . S
H1264 C1271 0.950 . S
C1265 C1263 1.387 . S
C1265 C1267 1.390 . S
C1265 H1269 0.950 . S
H1266 C1262 0.950 . S
C1267 C1265 1.390 . S
C1267 C1268 1.387 . S
C1267 H1270 0.950 . S
C1268 C1267 1.387 . S
C1268 C1271 1.387 . S
H1269 C1265 0.950 . S
H1270 C1267 0.950 . S
C1271 C1262 1.390 . S
C1271 H1264 0.950 . S
C1271 C1268 1.387 . S
C1272 C1273 1.387 . S
C1272 H1276 0.950 . S
C1272 C1281 1.390 . S
C1273 C1272 1.387 . S
C1273 C1275 1.387 . S
H1274 C1281 0.950 . S
C1275 C1273 1.387 . S
C1275 C1277 1.390 . S
C1275 H1279 0.950 . S
H1276 C1272 0.950 . S
C1277 C1275 1.390 . S
C1277 C1278 1.387 . S
C1277 H1280 0.950 . S
C1278 C1277 1.387 . S
C1278 C1281 1.387 . S
H1279 C1275 0.950 . S
H1280 C1277 0.950 . S
C1281 C1272 1.390 . S
C1281 H1274 0.950 . S
C1281 C1278 1.387 . S
C1282 C1283 1.387 . S
C1282 H1286 0.950 . S
C1282 C1291 1.390 . S
C1283 C1282 1.387 . S
C1283 C1285 1.387 . S
H1284 C1291 0.950 . S
C1285 C1283 1.387 . S
C1285 C1287 1.390 . S
C1285 H1289 0.950 . S
H1286 C1282 0.950 . S
C1287 C1285 1.390 . S
C1287 C1288 1.387 . S
C1287 H1290 0.950 . S
C1288 C1287 1.387 . S
C1288 C1291 1.387 . S
H1289 C1285 0.950 . S
H1290 C1287 0.950 . S
C1291 C1282 1.390 . S
C1291 H1284 0.950 . S
C1291 C1288 1.387 . S
C1292 C1293 1.387 . S
C1292 H1296 0.950 . S
C1292 C1301 1.390 . S
C1293 C1292 1.387 . S
C1293 C1295 1.387 . S
H1294 C1301 0.950 . S
C1295 C1293 1.387 . S
C1295 C1297 1.390 . S
C1295 H1299 0.950 . S
H1296 C1292 0.950 . S
C1297 C1295 1.390 . S
C1297 C1298 1.387 . S
C1297 H1300 0.950 . S
C1298 C1297 1.387 . S
C1298 C1301 1.387 . S
H1299 C1295 0.950 . S
H1300 C1297 0.950 . S
C1301 C1292 1.390 . S
C1301 H1294 0.950 . S
C1301 C1298 1.387 . S
C1302 C1303 1.387 . S
C1302 H1306 0.950 . S
C1302 C1311 1.390 . S
C1303 C1302 1.387 . S
C1303 C1305 1.387 . S
H1304 C1311 0.950 . S
C1305 C1303 1.387 . S
C1305 C1307 1.390 . S
C1305 H1309 0.950 . S
H1306 C1302 0.950 . S
C1307 C1305 1.390 . S
C1307 C1308 1.387 . S
C1307 H1310 0.950 . S
C1308 C1307 1.387 . S
C1308 C1311 1.387 . S
H1309 C1305 0.950 . S
H1310 C1307 0.950 . S
C1311 C1302 1.390 . S
C1311 H1304 0.950 . S
C1311 C1308 1.387 . S
C1312 C1313 1.387 . S
C1312 H1316 0.950 . S
C1312 C1321 1.390 . S
C1313 C1312 1.387 . S
C1313 C1315 1.387 . S
H1314 C1321 0.950 . S
C1315 C1313 1.387 . S
C1315 C1317 1.390 . S
C1315 H1319 0.950 . S
H1316 C1312 0.950 . S
C1317 C1315 1.390 . S
C1317 C1318 1.387 . S
C1317 H1320 0.950 . S
C1318 C1317 1.387 . S
C1318 C1321 1.387 . S
H1319 C1315 0.950 . S
H1320 C1317 0.950 . S
C1321 C1312 1.390 . S
C1321 H1314 0.950 . S
C1321 C1318 1.387 . S
C1322 C1323 1.387 . S
C1322 H1326 0.950 . S
C1322 C1331 1.390 . S
C1323 C1322 1.387 . S
C1323 C1325 1.387 . S
H1324 C1331 0.950 . S
C1325 C1323 1.387 . S
C1325 C1327 1.390 . S
C1325 H1329 0.950 . S
H1326 C1322 0.950 . S
C1327 C1325 1.390 . S
C1327 C1328 1.387 . S
C1327 H1330 0.950 . S
C1328 C1327 1.387 . S
C1328 C1331 1.387 . S
H1329 C1325 0.950 . S
H1330 C1327 0.950 . S
C1331 C1322 1.390 . S
C1331 H1324 0.950 . S
C1331 C1328 1.387 . S
C1332 C1333 1.387 . S
C1332 H1336 0.950 . S
C1332 C1341 1.390 . S
C1333 C1332 1.387 . S
C1333 C1335 1.387 . S
H1334 C1341 0.950 . S
C1335 C1333 1.387 . S
C1335 C1337 1.390 . S
C1335 H1339 0.950 . S
H1336 C1332 0.950 . S
C1337 C1335 1.390 . S
C1337 C1338 1.387 . S
C1337 H1340 0.950 . S
C1338 C1337 1.387 . S
C1338 C1341 1.387 . S
H1339 C1335 0.950 . S
H1340 C1337 0.950 . S
C1341 C1332 1.390 . S
C1341 H1334 0.950 . S
C1341 C1338 1.387 . S
C1342 C1343 1.387 . S
C1342 H1346 0.950 . S
C1342 C1351 1.390 . S
C1343 C1342 1.387 . S
C1343 C1345 1.387 . S
H1344 C1351 0.950 . S
C1345 C1343 1.387 . S
C1345 C1347 1.390 . S
C1345 H1349 0.950 . S
H1346 C1342 0.950 . S
C1347 C1345 1.390 . S
C1347 C1348 1.387 . S
C1347 H1350 0.950 . S
C1348 C1347 1.387 . S
C1348 C1351 1.387 . S
H1349 C1345 0.950 . S
H1350 C1347 0.950 . S
C1351 C1342 1.390 . S
C1351 H1344 0.950 . S
C1351 C1348 1.387 . S
C1352 C1353 1.387 . S
C1352 H1356 0.950 . S
C1352 C1361 1.390 . S
C1353 C1352 1.387 . S
C1353 C1355 1.387 . S
H1354 C1361 0.950 . S
C1355 C1353 1.387 . S
C1355 C1357 1.390 . S
C1355 H1359 0.950 . S
H1356 C1352 0.950 . S
C1357 C1355 1.390 . S
C1357 C1358 1.387 . S
C1357 H1360 0.950 . S
C1358 C1357 1.387 . S
C1358 C1361 1.387 . S
H1359 C1355 0.950 . S
H1360 C1357 0.950 . S
C1361 C1352 1.390 . S
C1361 H1354 0.950 . S
C1361 C1358 1.387 . S
C1362 C1363 1.387 . S
C1362 H1366 0.950 . S
C1362 C1371 1.390 . S
C1363 C1362 1.387 . S
C1363 C1365 1.387 . S
H1364 C1371 0.950 . S
C1365 C1363 1.387 . S
C1365 C1367 1.390 . S
C1365 H1369 0.950 . S
H1366 C1362 0.950 . S
C1367 C1365 1.390 . S
C1367 C1368 1.387 . S
C1367 H1370 0.950 . S
C1368 C1367 1.387 . S
C1368 C1371 1.387 . S
H1369 C1365 0.950 . S
H1370 C1367 0.950 . S
C1371 C1362 1.390 . S
C1371 H1364 0.950 . S
C1371 C1368 1.387 . S
C1372 C1373 1.387 . S
C1372 H1376 0.950 . S
C1372 C1381 1.390 . S
C1373 C1372 1.387 . S
C1373 C1375 1.387 . S
H1374 C1381 0.950 . S
C1375 C1373 1.387 . S
C1375 C1377 1.390 . S
C1375 H1379 0.950 . S
H1376 C1372 0.950 . S
C1377 C1375 1.390 . S
C1377 C1378 1.387 . S
C1377 H1380 0.950 . S
C1378 C1377 1.387 . S
C1378 C1381 1.387 . S
H1379 C1375 0.950 . S
H1380 C1377 0.950 . S
C1381 C1372 1.390 . S
C1381 H1374 0.950 . S
C1381 C1378 1.387 . S
C1382 C1383 1.387 . S
C1382 H1386 0.950 . S
C1382 C1391 1.390 . S
C1383 C1382 1.387 . S
C1383 C1385 1.387 . S
H1384 C1391 0.950 . S
C1385 C1383 1.387 . S
C1385 C1387 1.390 . S
C1385 H1389 0.950 . S
H1386 C1382 0.950 . S
C1387 C1385 1.390 . S
C1387 C1388 1.387 . S
C1387 H1390 0.950 . S
C1388 C1387 1.387 . S
C1388 C1391 1.387 . S
H1389 C1385 0.950 . S
H1390 C1387 0.950 . S
C1391 C1382 1.390 . S
C1391 H1384 0.950 . S
C1391 C1388 1.387 . S
C1392 C1393 1.387 . S
C1392 H1396 0.950 . S
C1392 C1401 1.390 . S
C1393 C1392 1.387 . S
C1393 C1395 1.387 . S
H1394 C1401 0.950 . S
C1395 C1393 1.387 . S
C1395 C1397 1.390 . S
C1395 H1399 0.950 . S
H1396 C1392 0.950 . S
C1397 C1395 1.390 . S
C1397 C1398 1.387 . S
C1397 H1400 0.950 . S
C1398 C1397 1.387 . S
C1398 C1401 1.387 . S
H1399 C1395 0.950 . S
H1400 C1397 0.950 . S
C1401 C1392 1.390 . S
C1401 H1394 0.950 . S
C1401 C1398 1.387 . S
C1402 C1403 1.387 . S
C1402 H1406 0.950 . S
C1402 C1411 1.390 . S
C1403 C1402 1.387 . S
C1403 C1405 1.387 . S
H1404 C1411 0.950 . S
C1405 C1403 1.387 . S
C1405 C1407 1.390 . S
C1405 H1409 0.950 . S
H1406 C1402 0.950 . S
C1407 C1405 1.390 . S
C1407 C1408 1.387 . S
C1407 H1410 0.950 . S
C1408 C1407 1.387 . S
C1408 C1411 1.387 . S
H1409 C1405 0.950 . S
H1410 C1407 0.950 . S
C1411 C1402 1.390 . S
C1411 H1404 0.950 . S
C1411 C1408 1.387 . S
C1412 C1413 1.387 . S
C1412 H1416 0.950 . S
C1412 C1421 1.390 . S
C1413 C1412 1.387 . S
C1413 C1415 1.387 . S
H1414 C1421 0.950 . S
C1415 C1413 1.387 . S
C1415 C1417 1.390 . S
C1415 H1419 0.950 . S
H1416 C1412 0.950 . S
C1417 C1415 1.390 . S
C1417 C1418 1.387 . S
C1417 H1420 0.950 . S
C1418 C1417 1.387 . S
C1418 C1421 1.387 . S
H1419 C1415 0.950 . S
H1420 C1417 0.950 . S
C1421 C1412 1.390 . S
C1421 H1414 0.950 . S
C1421 C1418 1.387 . S
C1422 C1423 1.387 . S
C1422 H1426 0.950 . S
C1422 C1431 1.390 . S
C1423 C1422 1.387 . S
C1423 C1425 1.387 . S
H1424 C1431 0.950 . S
C1425 C1423 1.387 . S
C1425 C1427 1.390 . S
C1425 H1429 0.950 . S
H1426 C1422 0.950 . S
C1427 C1425 1.390 . S
C1427 C1428 1.387 . S
C1427 H1430 0.950 . S
C1428 C1427 1.387 . S
C1428 C1431 1.387 . S
H1429 C1425 0.950 . S
H1430 C1427 0.950 . S
C1431 C1422 1.390 . S
C1431 H1424 0.950 . S
C1431 C1428 1.387 . S
C1432 C1433 1.387 . S
C1432 H1436 0.950 . S
C1432 C1441 1.390 . S
C1433 C1432 1.387 . S
C1433 C1435 1.387 . S
H1434 C1441 0.950 . S
C1435 C1433 1.387 . S
C1435 C1437 1.390 . S
C1435 H1439 0.950 . S
H1436 C1432 0.950 . S
C1437 C1435 1.390 . S
C1437 C1438 1.387 . S
C1437 H1440 0.950 . S
C1438 C1437 1.387 . S
C1438 C1441 1.387 . S
H1439 C1435 0.950 . S
H1440 C1437 0.950 . S
C1441 C1432 1.390 . S
C1441 H1434 0.950 . S
C1441 C1438 1.387 . S
C1442 C1443 1.387 . S
C1442 H1446 0.950 . S
C1442 C1451 1.390 . S
C1443 C1442 1.387 . S
C1443 C1445 1.387 . S
H1444 C1451 0.950 . S
C1445 C1443 1.387 . S
C1445 C1447 1.390 . S
C1445 H1449 0.950 . S
H1446 C1442 0.950 . S
C1447 C1445 1.390 . S
C1447 C1448 1.387 . S
C1447 H1450 0.950 . S
C1448 C1447 1.387 . S
C1448 C1451 1.387 . S
H1449 C1445 0.950 . S
H1450 C1447 0.950 . S
C1451 C1442 1.390 . S
C1451 H1444 0.950 . S
C1451 C1448 1.387 . S
C1452 C1453 1.387 . S
C1452 H1456 0.950 . S
C1452 C1461 1.390 . S
C1453 C1452 1.387 . S
C1453 C1455 1.387 . S
H1454 C1461 0.950 . S
C1455 C1453 1.387 . S
C1455 C1457 1.390 . S
C1455 H1459 0.950 . S
H1456 C1452 0.950 . S
C1457 C1455 1.390 . S
C1457 C1458 1.387 . S
C1457 H1460 0.950 . S
C1458 C1457 1.387 . S
C1458 C1461 1.387 . S
H1459 C1455 0.950 . S
H1460 C1457 0.950 . S
C1461 C1452 1.390 . S
C1461 H1454 0.950 . S
C1461 C1458 1.387 . S
C1462 C1463 1.387 . S
C1462 H1466 0.950 . S
C1462 C1471 1.390 . S
C1463 C1462 1.387 . S
C1463 C1465 1.387 . S
H1464 C1471 0.950 . S
C1465 C1463 1.387 . S
C1465 C1467 1.390 . S
C1465 H1469 0.950 . S
H1466 C1462 0.950 . S
C1467 C1465 1.390 . S
C1467 C1468 1.387 . S
C1467 H1470 0.950 . S
C1468 C1467 1.387 . S
C1468 C1471 1.387 . S
H1469 C1465 0.950 . S
H1470 C1467 0.950 . S
C1471 C1462 1.390 . S
C1471 H1464 0.950 . S
C1471 C1468 1.387 . S
C1472 C1473 1.387 . S
C1472 H1476 0.950 . S
C1472 C1481 1.390 . S
C1473 C1472 1.387 . S
C1473 C1475 1.387 . S
H1474 C1481 0.950 . S
C1475 C1473 1.387 . S
C1475 C1477 1.390 . S
C1475 H1479 0.950 . S
H1476 C1472 0.950 . S
C1477 C1475 1.390 . S
C1477 C1478 1.387 . S
C1477 H1480 0.950 . S
C1478 C1477 1.387 . S
C1478 C1481 1.387 . S
H1479 C1475 0.950 . S
H1480 C1477 0.950 . S
C1481 C1472 1.390 . S
C1481 H1474 0.950 . S
C1481 C1478 1.387 . S
C1482 C1483 1.387 . S
C1482 H1486 0.950 . S
C1482 C1491 1.390 . S
C1483 C1482 1.387 . S
C1483 C1485 1.387 . S
H1484 C1491 0.950 . S
C1485 C1483 1.387 . S
C1485 C1487 1.390 . S
C1485 H1489 0.950 . S
H1486 C1482 0.950 . S
C1487 C1485 1.390 . S
C1487 C1488 1.387 . S
C1487 H1490 0.950 . S
C1488 C1487 1.387 . S
C1488 C1491 1.387 . S
H1489 C1485 0.950 . S
H1490 C1487 0.950 . S
C1491 C1482 1.390 . S
C1491 H1484 0.950 . S
C1491 C1488 1.387 . S
C1492 C1493 1.387 . S
C1492 H1496 0.950 . S
C1492 C1501 1.390 . S
C1493 C1492 1.387 . S
C1493 C1495 1.387 . S
H1494 C1501 0.950 . S
C1495 C1493 1.387 . S
C1495 C1497 1.390 . S
C1495 H1499 0.950 . S
H1496 C1492 0.950 . S
C1497 C1495 1.390 . S
C1497 C1498 1.387 . S
C1497 H1500 0.950 . S
C1498 C1497 1.387 . S
C1498 C1501 1.387 . S
H1499 C1495 0.950 . S
H1500 C1497 0.950 . S
C1501 C1492 1.390 . S
C1501 H1494 0.950 . S
C1501 C1498 1.387 . S
C1502 C1503 1.387 . S
C1502 H1506 0.950 . S
C1502 C1511 1.390 . S
C1503 C1502 1.387 . S
C1503 C1505 1.387 . S
H1504 C1511 0.950 . S
C1505 C1503 1.387 . S
C1505 C1507 1.390 . S
C1505 H1509 0.950 . S
H1506 C1502 0.950 . S
C1507 C1505 1.390 . S
C1507 C1508 1.387 . S
C1507 H1510 0.950 . S
C1508 C1507 1.387 . S
C1508 C1511 1.387 . S
H1509 C1505 0.950 . S
H1510 C1507 0.950 . S
C1511 C1502 1.390 . S
C1511 H1504 0.950 . S
C1511 C1508 1.387 . S
C1512 C1513 1.387 . S
C1512 H1516 0.950 . S
C1512 C1521 1.390 . S
C1513 C1512 1.387 . S
C1513 C1515 1.387 . S
H1514 C1521 0.950 . S
C1515 C1513 1.387 . S
C1515 C1517 1.390 . S
C1515 H1519 0.950 . S
H1516 C1512 0.950 . S
C1517 C1515 1.390 . S
C1517 C1518 1.387 . S
C1517 H1520 0.950 . S
C1518 C1517 1.387 . S
C1518 C1521 1.387 . S
H1519 C1515 0.950 . S
H1520 C1517 0.950 . S
C1521 C1512 1.390 . S
C1521 H1514 0.950 . S
C1521 C1518 1.387 . S
C1522 C1523 1.387 . S
C1522 H1526 0.950 . S
C1522 C1531 1.390 . S
C1523 C1522 1.387 . S
C1523 C1525 1.387 . S
H1524 C1531 0.950 . S
C1525 C1523 1.387 . S
C1525 C1527 1.390 . S
C1525 H1529 0.950 . S
H1526 C1522 0.950 . S
C1527 C1525 1.390 . S
C1527 C1528 1.387 . S
C1527 H1530 0.950 . S
C1528 C1527 1.387 . S
C1528 C1531 1.387 . S
H1529 C1525 0.950 . S
H1530 C1527 0.950 . S
C1531 C1522 1.390 . S
C1531 H1524 0.950 . S
C1531 C1528 1.387 . S
C1532 C1533 1.387 . S
C1532 H1536 0.950 . S
C1532 C1541 1.390 . S
C1533 C1532 1.387 . S
C1533 C1535 1.387 . S
H1534 C1541 0.950 . S
C1535 C1533 1.387 . S
C1535 C1537 1.390 . S
C1535 H1539 0.950 . S
H1536 C1532 0.950 . S
C1537 C1535 1.390 . S
C1537 C1538 1.387 . S
C1537 H1540 0.950 . S
C1538 C1537 1.387 . S
C1538 C1541 1.387 . S
H1539 C1535 0.950 . S
H1540 C1537 0.950 . S
C1541 C1532 1.390 . S
C1541 H1534 0.950 . S
C1541 C1538 1.387 . S
C1542 C1543 1.387 . S
C1542 H1546 0.950 . S
C1542 C1551 1.390 . S
C1543 C1542 1.387 . S
C1543 C1545 1.387 . S
H1544 C1551 0.950 . S
C1545 C1543 1.387 . S
C1545 C1547 1.390 . S
C1545 H1549 0.950 . S
H1546 C1542 0.950 . S
C1547 C1545 1.390 . S
C1547 C1548 1.387 . S
C1547 H1550 0.950 . S
C1548 C1547 1.387 . S
C1548 C1551 1.387 . S
H1549 C1545 0.950 . S
H1550 C1547 0.950 . S
C1551 C1542 1.390 . S
C1551 H1544 0.950 . S
C1551 C1548 1.387 . S
C1552 C1553 1.387 . S
C1552 H1556 0.950 . S
C1552 C1561 1.390 . S
C1553 C1552 1.387 . S
C1553 C1555 1.387 . S
H1554 C1561 0.950 . S
C1555 C1553 1.387 . S
C1555 C1557 1.390 . S
C1555 H1559 0.950 . S
H1556 C1552 0.950 . S
C1557 C1555 1.390 . S
C1557 C1558 1.387 . S
C1557 H1560 0.950 . S
C1558 C1557 1.387 . S
C1558 C1561 1.387 . S
H1559 C1555 0.950 . S
H1560 C1557 0.950 . S
C1561 C1552 1.390 . S
C1561 H1554 0.950 . S
C1561 C1558 1.387 . S
C1562 C1563 1.387 . S
C1562 H1566 0.950 . S
C1562 C1571 1.390 . S
C1563 C1562 1.387 . S
C1563 C1565 1.387 . S
H1564 C1571 0.950 . S
C1565 C1563 1.387 . S
C1565 C1567 1.390 . S
C1565 H1569 0.950 . S
H1566 C1562 0.950 . S
C1567 C1565 1.390 . S
C1567 C1568 1.387 . S
C1567 H1570 0.950 . S
C1568 C1567 1.387 . S
C1568 C1571 1.387 . S
H1569 C1565 0.950 . S
H1570 C1567 0.950 . S
C1571 C1562 1.390 . S
C1571 H1564 0.950 . S
C1571 C1568 1.387 . S
C1572 C1573 1.387 . S
C1572 H1576 0.950 . S
C1572 C1581 1.390 . S
C1573 C1572 1.387 . S
C1573 C1575 1.387 . S
H1574 C1581 0.950 . S
C1575 C1573 1.387 . S
C1575 C1577 1.390 . S
C1575 H1579 0.950 . S
H1576 C1572 0.950 . S
C1577 C1575 1.390 . S
C1577 C1578 1.387 . S
C1577 H1580 0.950 . S
C1578 C1577 1.387 . S
C1578 C1581 1.387 . S
H1579 C1575 0.950 . S
H1580 C1577 0.950 . S
C1581 C1572 1.390 . S
C1581 H1574 0.950 . S
C1581 C1578 1.387 . S
C1582 C1583 1.387 . S
C1582 H1586 0.950 . S
C1582 C1591 1.390 . S
C1583 C1582 1.387 . S
C1583 C1585 1.387 . S
H1584 C1591 0.950 . S
C1585 C1583 1.387 . S
C1585 C1587 1.390 . S
C1585 H1589 0.950 . S
H1586 C1582 0.950 . S
C1587 C1585 1.390 . S
C1587 C1588 1.387 . S
C1587 H1590 0.950 . S
C1588 C1587 1.387 . S
C1588 C1591 1.387 . S
H1589 C1585 0.950 . S
H1590 C1587 0.950 . S
C1591 C1582 1.390 . S
C1591 H1584 0.950 . S
C1591 C1588 1.387 . S
C1592 C1593 1.387 . S
C1592 H1596 0.950 . S
C1592 C1601 1.390 . S
C1593 C1592 1.387 . S
C1593 C1595 1.387 . S
H1594 C1601 0.950 . S
C1595 C1593 1.387 . S
C1595 C1597 1.390 . S
C1595 H1599 0.950 . S
H1596 C1592 0.950 . S
C1597 C1595 1.390 . S
C1597 C1598 1.387 . S
C1597 H1600 0.950 . S
C1598 C1597 1.387 . S
C1598 C1601 1.387 . S
H1599 C1595 0.950 . S
H1600 C1597 0.950 . S
C1601 C1592 1.390 . S
C1601 H1594 0.950 . S
C1601 C1598 1.387 . S
C1602 C1603 1.387 . S
C1602 H1606 0.950 . S
C1602 C1611 1.390 . S
C1603 C1602 1.387 . S
C1603 C1605 1.387 . S
H1604 C1611 0.950 . S
C1605 C1603 1.387 . S
C1605 C1607 1.390 . S
C1605 H1609 0.950 . S
H1606 C1602 0.950 . S
C1607 C1605 1.390 . S
C1607 C1608 1.387 . S
C1607 H1610 0.950 . S
C1608 C1607 1.387 . S
C1608 C1611 1.387 . S
H1609 C1605 0.950 . S
H1610 C1607 0.950 . S
C1611 C1602 1.390 . S
C1611 H1604 0.950 . S
C1611 C1608 1.387 . S
C1612 C1613 1.387 . S
C1612 H1616 0.950 . S
C1612 C1621 1.390 . S
C1613 C1612 1.387 . S
C1613 C1615 1.387 . S
H1614 C1621 0.950 . S
C1615 C1613 1.387 . S
C1615 C1617 1.390 . S
C1615 H1619 0.950 . S
H1616 C1612 0.950 . S
C1617 C1615 1.390 . S
C1617 C1618 1.387 . S
C1617 H1620 0.950 . S
C1618 C1617 1.387 . S
C1618 C1621 1.387 . S
H1619 C1615 0.950 . S
H1620 C1617 0.950 . S
C1621 C1612 1.390 . S
C1621 H1614 0.950 . S
C1621 C1618 1.387 . S
C1622 C1623 1.387 . S
C1622 H1626 0.950 . S
C1622 C1631 1.390 . S
C1623 C1622 1.387 . S
C1623 C1625 1.387 . S
H1624 C1631 0.950 . S
C1625 C1623 1.387 . S
C1625 C1627 1.390 . S
C1625 H1629 0.950 . S
H1626 C1622 0.950 . S
C1627 C1625 1.390 . S
C1627 C1628 1.387 . S
C1627 H1630 0.950 . S
C1628 C1627 1.387 . S
C1628 C1631 1.387 . S
H1629 C1625 0.950 . S
H1630 C1627 0.950 . S
C1631 C1622 1.390 . S
C1631 H1624 0.950 . S
C1631 C1628 1.387 . S
C1632 C1633 1.387 . S
C1632 H1636 0.950 . S
C1632 C1641 1.390 . S
C1633 C1632 1.387 . S
C1633 C1635 1.387 1_455 S
H1634 C1641 0.950 . S
C1635 C1633 1.387 1_655 S
C1635 C1637 1.390 . S
C1635 H1639 0.950 . S
H1636 C1632 0.950 . S
C1637 C1635 1.390 . S
C1637 C1638 1.387 . S
C1637 H1640 0.950 . S
C1638 C1637 1.387 . S
C1638 C1641 1.387 1_655 S
H1639 C1635 0.950 . S
H1640 C1637 0.950 . S
C1641 C1632 1.390 . S
C1641 H1634 0.950 . S
C1641 C1638 1.387 1_455 S
C1642 C1643 1.387 . S
C1642 H1646 0.950 . S
C1642 C1651 1.390 . S
C1643 C1642 1.387 . S
C1643 C1645 1.387 . S
H1644 C1651 0.950 . S
C1645 C1643 1.387 . S
C1645 C1647 1.390 . S
C1645 H1649 0.950 . S
H1646 C1642 0.950 . S
C1647 C1645 1.390 . S
C1647 C1648 1.387 . S
C1647 H1650 0.950 . S
C1648 C1647 1.387 . S
C1648 C1651 1.387 . S
H1649 C1645 0.950 . S
H1650 C1647 0.950 . S
C1651 C1642 1.390 . S
C1651 H1644 0.950 . S
C1651 C1648 1.387 . S
C1652 C1653 1.387 1_545 S
C1652 H1656 0.950 . S
C1652 C1661 1.390 . S
C1653 C1652 1.387 1_565 S
C1653 C1655 1.387 . S
H1654 C1661 0.950 . S
C1655 C1653 1.387 . S
C1655 C1657 1.390 . S
C1655 H1659 0.950 . S
H1656 C1652 0.950 . S
C1657 C1655 1.390 . S
C1657 C1658 1.387 1_565 S
C1657 H1660 0.950 . S
C1658 C1657 1.387 1_545 S
C1658 C1661 1.387 . S
H1659 C1655 0.950 . S
H1660 C1657 0.950 . S
C1661 C1652 1.390 . S
C1661 H1654 0.950 . S
C1661 C1658 1.387 . S
C1662 C1663 1.387 . S
C1662 H1666 0.950 . S
C1662 C1671 1.390 1_554 S
C1663 C1662 1.387 . S
C1663 C1665 1.387 1_545 S
H1664 C1671 0.950 . S
C1665 C1663 1.387 1_565 S
C1665 C1667 1.390 1_554 S
C1665 H1669 0.950 . S
H1666 C1662 0.950 . S
C1667 C1665 1.390 1_556 S
C1667 C1668 1.387 . S
C1667 H1670 0.950 . S
C1668 C1667 1.387 . S
C1668 C1671 1.387 1_565 S
H1669 C1665 0.950 . S
H1670 C1667 0.950 . S
C1671 C1662 1.390 1_556 S
C1671 H1664 0.950 . S
C1671 C1668 1.387 1_545 S
C1672 C1673 1.387 1_655 S
C1672 H1676 0.950 . S
C1672 C1681 1.390 . S
C1673 C1672 1.387 1_455 S
C1673 C1675 1.387 1_556 S
H1674 C1681 0.950 . S
C1675 C1673 1.387 1_554 S
C1675 C1677 1.390 . S
C1675 H1679 0.950 . S
H1676 C1672 0.950 . S
C1677 C1675 1.390 . S
C1677 C1678 1.387 1_455 S
C1677 H1680 0.950 . S
C1678 C1677 1.387 1_655 S
C1678 C1681 1.387 1_554 S
H1679 C1675 0.950 . S
H1680 C1677 0.950 . S
C1681 C1672 1.390 . S
C1681 H1674 0.950 . S
C1681 C1678 1.387 1_556 S
C1682 C1683 1.387 . S
C1682 H1686 0.950 . S
C1682 C1691 1.390 . S
C1683 C1682 1.387 . S
C1683 C1685 1.387 1_554 S
H1684 C1691 0.950 . S
C1685 C1683 1.387 1_556 S
C1685 C1687 1.390 . S
C1685 H1689 0.950 . S
H1686 C1682 0.950 . S
C1687 C1685 1.390 . S
C1687 C1688 1.387 . S
C1687 H1690 0.950 . S
C1688 C1687 1.387 . S
C1688 C1691 1.387 1_556 S
H1689 C1685 0.950 . S
H1690 C1687 0.950 . S
C1691 C1682 1.390 . S
C1691 H1684 0.950 . S
C1691 C1688 1.387 1_554 S
C1692 C1693 1.387 . S
C1692 H1696 0.950 . S
C1692 C1701 1.390 . S
C1693 C1692 1.387 . S
C1693 C1695 1.387 . S
H1694 C1701 0.950 . S
C1695 C1693 1.387 . S
C1695 C1697 1.390 . S
C1695 H1699 0.950 . S
H1696 C1692 0.950 . S
C1697 C1695 1.390 . S
C1697 C1698 1.387 . S
C1697 H1700 0.950 . S
C1698 C1697 1.387 . S
C1698 C1701 1.387 . S
H1699 C1695 0.950 . S
H1700 C1697 0.950 . S
C1701 C1692 1.390 . S
C1701 H1694 0.950 . S
C1701 C1698 1.387 . S
C1702 C1703 1.387 . S
C1702 H1706 0.950 . S
C1702 C1711 1.390 . S
C1703 C1702 1.387 . S
C1703 C1705 1.387 . S
H1704 C1711 0.950 . S
C1705 C1703 1.387 . S
C1705 C1707 1.390 . S
C1705 H1709 0.950 . S
H1706 C1702 0.950 . S
C1707 C1705 1.390 . S
C1707 C1708 1.387 . S
C1707 H1710 0.950 . S
C1708 C1707 1.387 . S
C1708 C1711 1.387 . S
H1709 C1705 0.950 . S
H1710 C1707 0.950 . S
C1711 C1702 1.390 . S
C1711 H1704 0.950 . S
C1711 C1708 1.387 . S
C1712 C1713 1.387 . S
C1712 H1716 0.950 . S
C1712 C1721 1.390 . S
C1713 C1712 1.387 . S
C1713 C1715 1.387 . S
H1714 C1721 0.950 . S
C1715 C1713 1.387 . S
C1715 C1717 1.390 . S
C1715 H1719 0.950 . S
H1716 C1712 0.950 . S
C1717 C1715 1.390 . S
C1717 C1718 1.387 . S
C1717 H1720 0.950 . S
C1718 C1717 1.387 . S
C1718 C1721 1.387 . S
H1719 C1715 0.950 . S
H1720 C1717 0.950 . S
C1721 C1712 1.390 . S
C1721 H1714 0.950 . S
C1721 C1718 1.387 . S
C1722 C1723 1.387 . S
C1722 H1726 0.950 . S
C1722 C1731 1.390 . S
C1723 C1722 1.387 . S
C1723 C1725 1.387 . S
H1724 C1731 0.950 . S
C1725 C1723 1.387 . S
C1725 C1727 1.390 . S
C1725 H1729 0.950 . S
H1726 C1722 0.950 . S
C1727 C1725 1.390 . S
C1727 C1728 1.387 . S
C1727 H1730 0.950 . S
C1728 C1727 1.387 . S
C1728 C1731 1.387 . S
H1729 C1725 0.950 . S
H1730 C1727 0.950 . S
C1731 C1722 1.390 . S
C1731 H1724 0.950 . S
C1731 C1728 1.387 . S
C1732 C1733 1.387 . S
C1732 H1736 0.950 . S
C1732 C1741 1.390 . S
C1733 C1732 1.387 . S
C1733 C1735 1.387 . S
H1734 C1741 0.950 . S
C1735 C1733 1.387 . S
C1735 C1737 1.390 . S
C1735 H1739 0.950 . S
H1736 C1732 0.950 . S
C1737 C1735 1.390 . S
C1737 C1738 1.387 . S
C1737 H1740 0.950 . S
C1738 C1737 1.387 . S
C1738 C1741 1.387 . S
H1739 C1735 0.950 . S
H1740 C1737 0.950 . S
C1741 C1732 1.390 . S
C1741 H1734 0.950 . S
C1741 C1738 1.387 . S
C1742 C1743 1.387 . S
C1742 H1746 0.950 . S
C1742 C1751 1.390 . S
C1743 C1742 1.387 . S
C1743 C1745 1.387 . S
H1744 C1751 0.950 . S
C1745 C1743 1.387 . S
C1745 C1747 1.390 . S
C1745 H1749 0.950 . S
H1746 C1742 0.950 . S
C1747 C1745 1.390 . S
C1747 C1748 1.387 . S
C1747 H1750 0.950 . S
C1748 C1747 1.387 . S
C1748 C1751 1.387 . S
H1749 C1745 0.950 . S
H1750 C1747 0.950 . S
C1751 C1742 1.390 . S
C1751 H1744 0.950 . S
C1751 C1748 1.387 . S
C1752 C1753 1.387 . S
C1752 H1756 0.950 . S
C1752 C1761 1.390 . S
C1753 C1752 1.387 . S
C1753 C1755 1.387 . S
H1754 C1761 0.950 . S
C1755 C1753 1.387 . S
C1755 C1757 1.390 . S
C1755 H1759 0.950 . S
H1756 C1752 0.950 . S
C1757 C1755 1.390 . S
C1757 C1758 1.387 . S
C1757 H1760 0.950 . S
C1758 C1757 1.387 . S
C1758 C1761 1.387 . S
H1759 C1755 0.950 . S
H1760 C1757 0.950 . S
C1761 C1752 1.390 . S
C1761 H1754 0.950 . S
C1761 C1758 1.387 . S
C1762 C1763 1.387 . S
C1762 H1766 0.950 . S
C1762 C1771 1.390 . S
C1763 C1762 1.387 . S
C1763 C1765 1.387 . S
H1764 C1771 0.950 . S
C1765 C1763 1.387 . S
C1765 C1767 1.390 . S
C1765 H1769 0.950 . S
H1766 C1762 0.950 . S
C1767 C1765 1.390 . S
C1767 C1768 1.387 . S
C1767 H1770 0.950 . S
C1768 C1767 1.387 . S
C1768 C1771 1.387 . S
H1769 C1765 0.950 . S
H1770 C1767 0.950 . S
C1771 C1762 1.390 . S
C1771 H1764 0.950 . S
C1771 C1768 1.387 . S
C1772 C1773 1.387 . S
C1772 H1776 0.950 . S
C1772 C1781 1.390 . S
C1773 C1772 1.387 . S
C1773 C1775 1.387 . S
H1774 C1781 0.950 . S
C1775 C1773 1.387 . S
C1775 C1777 1.390 . S
C1775 H1779 0.950 . S
H1776 C1772 0.950 . S
C1777 C1775 1.390 . S
C1777 C1778 1.387 . S
C1777 H1780 0.950 . S
C1778 C1777 1.387 . S
C1778 C1781 1.387 . S
H1779 C1775 0.950 . S
H1780 C1777 0.950 . S
C1781 C1772 1.390 . S
C1781 H1774 0.950 . S
C1781 C1778 1.387 . S
C1782 C1783 1.387 . S
C1782 H1786 0.950 . S
C1782 C1791 1.390 . S
C1783 C1782 1.387 . S
C1783 C1785 1.387 . S
H1784 C1791 0.950 . S
C1785 C1783 1.387 . S
C1785 C1787 1.390 . S
C1785 H1789 0.950 . S
H1786 C1782 0.950 . S
C1787 C1785 1.390 . S
C1787 C1788 1.387 . S
C1787 H1790 0.950 . S
C1788 C1787 1.387 . S
C1788 C1791 1.387 . S
H1789 C1785 0.950 . S
H1790 C1787 0.950 . S
C1791 C1782 1.390 . S
C1791 H1784 0.950 . S
C1791 C1788 1.387 . S
C1792 C1793 1.387 . S
C1792 H1796 0.950 . S
C1792 C1801 1.390 . S
C1793 C1792 1.387 . S
C1793 C1795 1.387 . S
H1794 C1801 0.950 . S
C1795 C1793 1.387 . S
C1795 C1797 1.390 . S
C1795 H1799 0.950 . S
H1796 C1792 0.950 . S
C1797 C1795 1.390 . S
C1797 C1798 1.387 . S
C1797 H1800 0.950 . S
C1798 C1797 1.387 . S
C1798 C1801 1.387 . S
H1799 C1795 0.950 . S
H1800 C1797 0.950 . S
C1801 C1792 1.390 . S
C1801 H1794 0.950 . S
C1801 C1798 1.387 . S
C1802 C1803 1.387 . S
C1802 H1806 0.950 . S
C1802 C1811 1.390 . S
C1803 C1802 1.387 . S
C1803 C1805 1.387 . S
H1804 C1811 0.950 . S
C1805 C1803 1.387 . S
C1805 C1807 1.390 . S
C1805 H1809 0.950 . S
H1806 C1802 0.950 . S
C1807 C1805 1.390 . S
C1807 C1808 1.387 . S
C1807 H1810 0.950 . S
C1808 C1807 1.387 . S
C1808 C1811 1.387 . S
H1809 C1805 0.950 . S
H1810 C1807 0.950 . S
C1811 C1802 1.390 . S
C1811 H1804 0.950 . S
C1811 C1808 1.387 . S
C1812 C1813 1.387 . S
C1812 H1816 0.950 . S
C1812 C1821 1.390 1_455 S
C1813 C1812 1.387 . S
C1813 C1815 1.387 . S
H1814 C1821 0.950 . S
C1815 C1813 1.387 . S
C1815 C1817 1.390 1_455 S
C1815 H1819 0.950 . S
H1816 C1812 0.950 . S
C1817 C1815 1.390 1_655 S
C1817 C1818 1.387 . S
C1817 H1820 0.950 . S
C1818 C1817 1.387 . S
C1818 C1821 1.387 . S
H1819 C1815 0.950 . S
H1820 C1817 0.950 . S
C1821 C1812 1.390 1_655 S
C1821 H1814 0.950 . S
C1821 C1818 1.387 . S
C1822 C1823 1.387 . S
C1822 H1826 0.950 . S
C1822 C1831 1.390 . S
C1823 C1822 1.387 . S
C1823 C1825 1.387 . S
H1824 C1831 0.950 . S
C1825 C1823 1.387 . S
C1825 C1827 1.390 . S
C1825 H1829 0.950 . S
H1826 C1822 0.950 . S
C1827 C1825 1.390 . S
C1827 C1828 1.387 . S
C1827 H1830 0.950 . S
C1828 C1827 1.387 . S
C1828 C1831 1.387 . S
H1829 C1825 0.950 . S
H1830 C1827 0.950 . S
C1831 C1822 1.390 . S
C1831 H1824 0.950 . S
C1831 C1828 1.387 . S
C1832 C1833 1.387 . S
C1832 H1836 0.950 . S
C1832 C1841 1.390 1_545 S
C1833 C1832 1.387 . S
C1833 C1835 1.387 . S
H1834 C1841 0.950 . S
C1835 C1833 1.387 . S
C1835 C1837 1.390 1_545 S
C1835 H1839 0.950 . S
H1836 C1832 0.950 . S
C1837 C1835 1.390 1_565 S
C1837 C1838 1.387 . S
C1837 H1840 0.950 . S
C1838 C1837 1.387 . S
C1838 C1841 1.387 . S
H1839 C1835 0.950 . S
H1840 C1837 0.950 . S
C1841 C1832 1.390 1_565 S
C1841 H1834 0.950 . S
C1841 C1838 1.387 . S
C1842 C1843 1.387 . S
C1842 H1846 0.950 . S
C1842 C1851 1.390 1_565 S
C1843 C1842 1.387 . S
C1843 C1845 1.387 . S
H1844 C1851 0.950 . S
C1845 C1843 1.387 . S
C1845 C1847 1.390 1_565 S
C1845 H1849 0.950 . S
H1846 C1842 0.950 . S
C1847 C1845 1.390 1_545 S
C1847 C1848 1.387 . S
C1847 H1850 0.950 . S
C1848 C1847 1.387 . S
C1848 C1851 1.387 . S
H1849 C1845 0.950 . S
H1850 C1847 0.950 . S
C1851 C1842 1.390 1_545 S
C1851 H1844 0.950 . S
C1851 C1848 1.387 . S
C1852 C1853 1.387 . S
C1852 H1856 0.950 . S
C1852 C1861 1.390 1_455 S
C1853 C1852 1.387 . S
C1853 C1855 1.387 . S
H1854 C1861 0.950 . S
C1855 C1853 1.387 . S
C1855 C1857 1.390 1_455 S
C1855 H1859 0.950 . S
H1856 C1852 0.950 . S
C1857 C1855 1.390 1_655 S
C1857 C1858 1.387 . S
C1857 H1860 0.950 . S
C1858 C1857 1.387 . S
C1858 C1861 1.387 . S
H1859 C1855 0.950 . S
H1860 C1857 0.950 . S
C1861 C1852 1.390 1_655 S
C1861 H1854 0.950 . S
C1861 C1858 1.387 . S
C1862 C1863 1.387 . S
C1862 H1866 0.950 . S
C1862 C1871 1.390 . S
C1863 C1862 1.387 . S
C1863 C1865 1.387 . S
H1864 C1871 0.950 . S
C1865 C1863 1.387 . S
C1865 C1867 1.390 . S
C1865 H1869 0.950 . S
H1866 C1862 0.950 . S
C1867 C1865 1.390 . S
C1867 C1868 1.387 . S
C1867 H1870 0.950 . S
C1868 C1867 1.387 . S
C1868 C1871 1.387 . S
H1869 C1865 0.950 . S
H1870 C1867 0.950 . S
C1871 C1862 1.390 . S
C1871 H1864 0.950 . S
C1871 C1868 1.387 . S
C1872 C1873 1.387 . S
C1872 H1876 0.950 . S
C1872 C1881 1.390 . S
C1873 C1872 1.387 . S
C1873 C1875 1.387 . S
H1874 C1881 0.950 . S
C1875 C1873 1.387 . S
C1875 C1877 1.390 . S
C1875 H1879 0.950 . S
H1876 C1872 0.950 . S
C1877 C1875 1.390 . S
C1877 C1878 1.387 . S
C1877 H1880 0.950 . S
C1878 C1877 1.387 . S
C1878 C1881 1.387 . S
H1879 C1875 0.950 . S
H1880 C1877 0.950 . S
C1881 C1872 1.390 . S
C1881 H1874 0.950 . S
C1881 C1878 1.387 . S
C1882 C1883 1.387 1_565 S
C1882 H1886 0.950 . S
C1882 C1891 1.390 . S
C1883 C1882 1.387 1_545 S
C1883 C1885 1.387 . S
H1884 C1891 0.950 . S
C1885 C1883 1.387 . S
C1885 C1887 1.390 . S
C1885 H1889 0.950 . S
H1886 C1882 0.950 . S
C1887 C1885 1.390 . S
C1887 C1888 1.387 1_545 S
C1887 H1890 0.950 . S
C1888 C1887 1.387 1_565 S
C1888 C1891 1.387 . S
H1889 C1885 0.950 . S
H1890 C1887 0.950 . S
C1891 C1882 1.390 . S
C1891 H1884 0.950 . S
C1891 C1888 1.387 . S
C1892 C1893 1.387 1_455 S
C1892 H1896 0.950 . S
C1892 C1901 1.390 . S
C1893 C1892 1.387 1_655 S
C1893 C1895 1.387 . S
H1894 C1901 0.950 . S
C1895 C1893 1.387 . S
C1895 C1897 1.390 . S
C1895 H1899 0.950 . S
H1896 C1892 0.950 . S
C1897 C1895 1.390 . S
C1897 C1898 1.387 1_655 S
C1897 H1900 0.950 . S
C1898 C1897 1.387 1_455 S
C1898 C1901 1.387 . S
H1899 C1895 0.950 . S
H1900 C1897 0.950 . S
C1901 C1892 1.390 . S
C1901 H1894 0.950 . S
C1901 C1898 1.387 . S
C1902 C1903 1.387 . S
C1902 H1906 0.950 . S
C1902 C1911 1.390 . S
C1903 C1902 1.387 . S
C1903 C1905 1.387 . S
H1904 C1911 0.950 . S
C1905 C1903 1.387 . S
C1905 C1907 1.390 . S
C1905 H1909 0.950 . S
H1906 C1902 0.950 . S
C1907 C1905 1.390 . S
C1907 C1908 1.387 . S
C1907 H1910 0.950 . S
C1908 C1907 1.387 . S
C1908 C1911 1.387 . S
H1909 C1905 0.950 . S
H1910 C1907 0.950 . S
C1911 C1902 1.390 . S
C1911 H1904 0.950 . S
C1911 C1908 1.387 . S
C1912 C1913 1.387 . S
C1912 H1916 0.950 . S
C1912 C1921 1.390 . S
C1913 C1912 1.387 . S
C1913 C1915 1.387 1_565 S
H1914 C1921 0.950 . S
C1915 C1913 1.387 1_545 S
C1915 C1917 1.390 . S
C1915 H1919 0.950 . S
H1916 C1912 0.950 . S
C1917 C1915 1.390 . S
C1917 C1918 1.387 . S
C1917 H1920 0.950 . S
C1918 C1917 1.387 . S
C1918 C1921 1.387 1_545 S
H1919 C1915 0.950 . S
H1920 C1917 0.950 . S
C1921 C1912 1.390 . S
C1921 H1914 0.950 . S
C1921 C1918 1.387 1_565 S
C1922 C1923 1.387 . S
C1922 H1926 0.950 . S
C1922 C1931 1.390 . S
C1923 C1922 1.387 . S
C1923 C1925 1.387 1_655 S
H1924 C1931 0.950 . S
C1925 C1923 1.387 1_455 S
C1925 C1927 1.390 . S
C1925 H1929 0.950 . S
H1926 C1922 0.950 . S
C1927 C1925 1.390 . S
C1927 C1928 1.387 . S
C1927 H1930 0.950 . S
C1928 C1927 1.387 . S
C1928 C1931 1.387 1_455 S
H1929 C1925 0.950 . S
H1930 C1927 0.950 . S
C1931 C1922 1.390 . S
C1931 H1924 0.950 . S
C1931 C1928 1.387 1_655 S
C1932 C1933 1.387 . S
C1932 H1936 0.950 . S
C1932 C1941 1.390 . S
C1933 C1932 1.387 . S
C1933 C1935 1.387 . S
H1934 C1941 0.950 . S
C1935 C1933 1.387 . S
C1935 C1937 1.390 . S
C1935 H1939 0.950 . S
H1936 C1932 0.950 . S
C1937 C1935 1.390 . S
C1937 C1938 1.387 . S
C1937 H1940 0.950 . S
C1938 C1937 1.387 . S
C1938 C1941 1.387 . S
H1939 C1935 0.950 . S
H1940 C1937 0.950 . S
C1941 C1932 1.390 . S
C1941 H1934 0.950 . S
C1941 C1938 1.387 . S
C1942 C1943 1.387 . S
C1942 H1946 0.950 . S
C1942 C1951 1.390 . S
C1943 C1942 1.387 . S
C1943 C1945 1.387 . S
H1944 C1951 0.950 . S
C1945 C1943 1.387 . S
C1945 C1947 1.390 . S
C1945 H1949 0.950 . S
H1946 C1942 0.950 . S
C1947 C1945 1.390 . S
C1947 C1948 1.387 . S
C1947 H1950 0.950 . S
C1948 C1947 1.387 . S
C1948 C1951 1.387 . S
H1949 C1945 0.950 . S
H1950 C1947 0.950 . S
C1951 C1942 1.390 . S
C1951 H1944 0.950 . S
C1951 C1948 1.387 . S
C1952 C1953 1.387 . S
C1952 H1956 0.950 . S
C1952 C1961 1.390 . S
C1953 C1952 1.387 . S
C1953 C1955 1.387 . S
H1954 C1961 0.950 . S
C1955 C1953 1.387 . S
C1955 C1957 1.390 . S
C1955 H1959 0.950 . S
H1956 C1952 0.950 . S
C1957 C1955 1.390 . S
C1957 C1958 1.387 . S
C1957 H1960 0.950 . S
C1958 C1957 1.387 . S
C1958 C1961 1.387 . S
H1959 C1955 0.950 . S
H1960 C1957 0.950 . S
C1961 C1952 1.390 . S
C1961 H1954 0.950 . S
C1961 C1958 1.387 . S
C1962 C1963 1.387 . S
C1962 H1966 0.950 . S
C1962 C1971 1.390 . S
C1963 C1962 1.387 . S
C1963 C1965 1.387 . S
H1964 C1971 0.950 . S
C1965 C1963 1.387 . S
C1965 C1967 1.390 . S
C1965 H1969 0.950 . S
H1966 C1962 0.950 . S
C1967 C1965 1.390 . S
C1967 C1968 1.387 . S
C1967 H1970 0.950 . S
C1968 C1967 1.387 . S
C1968 C1971 1.387 . S
H1969 C1965 0.950 . S
H1970 C1967 0.950 . S
C1971 C1962 1.390 . S
C1971 H1964 0.950 . S
C1971 C1968 1.387 . S
C1972 C1973 1.387 . S
C1972 H1976 0.950 . S
C1972 C1981 1.390 . S
C1973 C1972 1.387 . S
C1973 C1975 1.387 . S
H1974 C1981 0.950 . S
C1975 C1973 1.387 . S
C1975 C1977 1.390 . S
C1975 H1979 0.950 . S
H1976 C1972 0.950 . S
C1977 C1975 1.390 . S
C1977 C1978 1.387 . S
C1977 H1980 0.950 . S
C1978 C1977 1.387 . S
C1978 C1981 1.387 . S
H1979 C1975 0.950 . S
H1980 C1977 0.950 . S
C1981 C1972 1.390 . S
C1981 H1974 0.950 . S
C1981 C1978 1.387 . S
C1982 C1983 1.387 . S
C1982 H1986 0.950 . S
C1982 C1991 1.390 . S
C1983 C1982 1.387 . S
C1983 C1985 1.387 . S
H1984 C1991 0.950 . S
C1985 C1983 1.387 . S
C1985 C1987 1.390 . S
C1985 H1989 0.950 . S
H1986 C1982 0.950 . S
C1987 C1985 1.390 . S
C1987 C1988 1.387 . S
C1987 H1990 0.950 . S
C1988 C1987 1.387 . S
C1988 C1991 1.387 . S
H1989 C1985 0.950 . S
H1990 C1987 0.950 . S
C1991 C1982 1.390 . S
C1991 H1984 0.950 . S
C1991 C1988 1.387 . S
C1992 C1993 1.387 . S
C1992 H1996 0.950 . S
C1992 C2001 1.390 . S
C1993 C1992 1.387 . S
C1993 C1995 1.387 . S
H1994 C2001 0.950 . S
C1995 C1993 1.387 . S
C1995 C1997 1.390 . S
C1995 H1999 0.950 . S
H1996 C1992 0.950 . S
C1997 C1995 1.390 . S
C1997 C1998 1.387 . S
C1997 H2000 0.950 . S
C1998 C1997 1.387 . S
C1998 C2001 1.387 . S
H1999 C1995 0.950 . S
H2000 C1997 0.950 . S
C2001 C1992 1.390 . S
C2001 H1994 0.950 . S
C2001 C1998 1.387 . S
C2002 C2003 1.387 . S
C2002 H2006 0.950 . S
C2002 C2011 1.390 . S
C2003 C2002 1.387 . S
C2003 C2005 1.387 . S
H2004 C2011 0.950 . S
C2005 C2003 1.387 . S
C2005 C2007 1.390 . S
C2005 H2009 0.950 . S
H2006 C2002 0.950 . S
C2007 C2005 1.390 . S
C2007 C2008 1.387 . S
C2007 H2010 0.950 . S
C2008 C2007 1.387 . S
C2008 C2011 1.387 . S
H2009 C2005 0.950 . S
H2010 C2007 0.950 . S
C2011 C2002 1.390 . S
C2011 H2004 0.950 . S
C2011 C2008 1.387 . S
C2012 C2013 1.387 . S
C2012 H2016 0.950 . S
C2012 C2021 1.390 . S
C2013 C2012 1.387 . S
C2013 C2015 1.387 . S
H2014 C2021 0.950 . S
C2015 C2013 1.387 . S
C2015 C2017 1.390 . S
C2015 H2019 0.950 . S
H2016 C2012 0.950 . S
C2017 C2015 1.390 . S
C2017 C2018 1.387 . S
C2017 H2020 0.950 . S
C2018 C2017 1.387 . S
C2018 C2021 1.387 . S
H2019 C2015 0.950 . S
H2020 C2017 0.950 . S
C2021 C2012 1.390 . S
C2021 H2014 0.950 . S
C2021 C2018 1.387 . S
C2022 C2023 1.387 . S
C2022 H2026 0.950 . S
C2022 C2031 1.390 . S
C2023 C2022 1.387 . S
C2023 C2025 1.387 . S
H2024 C2031 0.950 . S
C2025 C2023 1.387 . S
C2025 C2027 1.390 . S
C2025 H2029 0.950 . S
H2026 C2022 0.950 . S
C2027 C2025 1.390 . S
C2027 C2028 1.387 . S
C2027 H2030 0.950 . S
C2028 C2027 1.387 . S
C2028 C2031 1.387 . S
H2029 C2025 0.950 . S
H2030 C2027 0.950 . S
C2031 C2022 1.390 . S
C2031 H2024 0.950 . S
C2031 C2028 1.387 . S
C2032 C2033 1.387 . S
C2032 H2036 0.950 . S
C2032 C2041 1.390 . S
C2033 C2032 1.387 . S
C2033 C2035 1.387 . S
H2034 C2041 0.950 . S
C2035 C2033 1.387 . S
C2035 C2037 1.390 . S
C2035 H2039 0.950 . S
H2036 C2032 0.950 . S
C2037 C2035 1.390 . S
C2037 C2038 1.387 . S
C2037 H2040 0.950 . S
C2038 C2037 1.387 . S
C2038 C2041 1.387 . S
H2039 C2035 0.950 . S
H2040 C2037 0.950 . S
C2041 C2032 1.390 . S
C2041 H2034 0.950 . S
C2041 C2038 1.387 . S
C2042 C2043 1.387 . S
C2042 H2046 0.950 . S
C2042 C2051 1.390 . S
C2043 C2042 1.387 . S
C2043 C2045 1.387 . S
H2044 C2051 0.950 . S
C2045 C2043 1.387 . S
C2045 C2047 1.390 . S
C2045 H2049 0.950 . S
H2046 C2042 0.950 . S
C2047 C2045 1.390 . S
C2047 C2048 1.387 . S
C2047 H2050 0.950 . S
C2048 C2047 1.387 . S
C2048 C2051 1.387 . S
H2049 C2045 0.950 . S
H2050 C2047 0.950 . S
C2051 C2042 1.390 . S
C2051 H2044 0.950 . S
C2051 C2048 1.387 . S
C2052 C2053 1.387 . S
C2052 H2056 0.950 . S
C2052 C2061 1.390 . S
C2053 C2052 1.387 . S
C2053 C2055 1.387 . S
H2054 C2061 0.950 . S
C2055 C2053 1.387 . S
C2055 C2057 1.390 . S
C2055 H2059 0.950 . S
H2056 C2052 0.950 . S
C2057 C2055 1.390 . S
C2057 C2058 1.387 . S
C2057 H2060 0.950 . S
C2058 C2057 1.387 . S
C2058 C2061 1.387 . S
H2059 C2055 0.950 . S
H2060 C2057 0.950 . S
C2061 C2052 1.390 . S
C2061 H2054 0.950 . S
C2061 C2058 1.387 . S
C2062 C2063 1.387 . S
C2062 H2066 0.950 . S
C2062 C2071 1.390 . S
C2063 C2062 1.387 . S
C2063 C2065 1.387 . S
H2064 C2071 0.950 . S
C2065 C2063 1.387 . S
C2065 C2067 1.390 . S
C2065 H2069 0.950 . S
H2066 C2062 0.950 . S
C2067 C2065 1.390 . S
C2067 C2068 1.387 . S
C2067 H2070 0.950 . S
C2068 C2067 1.387 . S
C2068 C2071 1.387 . S
H2069 C2065 0.950 . S
H2070 C2067 0.950 . S
C2071 C2062 1.390 . S
C2071 H2064 0.950 . S
C2071 C2068 1.387 . S
C2072 C2073 1.387 . S
C2072 H2076 0.950 . S
C2072 C2081 1.390 . S
C2073 C2072 1.387 . S
C2073 C2075 1.387 . S
H2074 C2081 0.950 . S
C2075 C2073 1.387 . S
C2075 C2077 1.390 . S
C2075 H2079 0.950 . S
H2076 C2072 0.950 . S
C2077 C2075 1.390 . S
C2077 C2078 1.387 . S
C2077 H2080 0.950 . S
C2078 C2077 1.387 . S
C2078 C2081 1.387 . S
H2079 C2075 0.950 . S
H2080 C2077 0.950 . S
C2081 C2072 1.390 . S
C2081 H2074 0.950 . S
C2081 C2078 1.387 . S
C2082 C2083 1.387 . S
C2082 H2086 0.950 . S
C2082 C2091 1.390 . S
C2083 C2082 1.387 . S
C2083 C2085 1.387 . S
H2084 C2091 0.950 . S
C2085 C2083 1.387 . S
C2085 C2087 1.390 . S
C2085 H2089 0.950 . S
H2086 C2082 0.950 . S
C2087 C2085 1.390 . S
C2087 C2088 1.387 . S
C2087 H2090 0.950 . S
C2088 C2087 1.387 . S
C2088 C2091 1.387 . S
H2089 C2085 0.950 . S
H2090 C2087 0.950 . S
C2091 C2082 1.390 . S
C2091 H2084 0.950 . S
C2091 C2088 1.387 . S
C2092 C2093 1.387 . S
C2092 H2096 0.950 . S
C2092 C2101 1.390 . S
C2093 C2092 1.387 . S
C2093 C2095 1.387 . S
H2094 C2101 0.950 . S
C2095 C2093 1.387 . S
C2095 C2097 1.390 . S
C2095 H2099 0.950 . S
H2096 C2092 0.950 . S
C2097 C2095 1.390 . S
C2097 C2098 1.387 . S
C2097 H2100 0.950 . S
C2098 C2097 1.387 . S
C2098 C2101 1.387 . S
H2099 C2095 0.950 . S
H2100 C2097 0.950 . S
C2101 C2092 1.390 . S
C2101 H2094 0.950 . S
C2101 C2098 1.387 . S
C2102 C2103 1.387 . S
C2102 H2106 0.950 . S
C2102 C2111 1.390 . S
C2103 C2102 1.387 . S
C2103 C2105 1.387 . S
H2104 C2111 0.950 . S
C2105 C2103 1.387 . S
C2105 C2107 1.390 . S
C2105 H2109 0.950 1_655 S
H2106 C2102 0.950 . S
C2107 C2105 1.390 . S
C2107 C2108 1.387 . S
C2107 H2110 0.950 . S
C2108 C2107 1.387 . S
C2108 C2111 1.387 . S
H2109 C2105 0.950 1_455 S
H2110 C2107 0.950 . S
C2111 C2102 1.390 . S
C2111 H2104 0.950 . S
C2111 C2108 1.387 . S
C2112 C2113 1.387 . S
C2112 H2116 0.950 . S
C2112 C2121 1.390 . S
C2113 C2112 1.387 . S
C2113 C2115 1.387 . S
H2114 C2121 0.950 . S
C2115 C2113 1.387 . S
C2115 C2117 1.390 . S
C2115 H2119 0.950 . S
H2116 C2112 0.950 . S
C2117 C2115 1.390 . S
C2117 C2118 1.387 . S
C2117 H2120 0.950 . S
C2118 C2117 1.387 . S
C2118 C2121 1.387 . S
H2119 C2115 0.950 . S
H2120 C2117 0.950 . S
C2121 C2112 1.390 . S
C2121 H2114 0.950 . S
C2121 C2118 1.387 . S
C2122 C2123 1.387 . S
C2122 H2126 0.950 . S
C2122 C2131 1.390 . S
C2123 C2122 1.387 . S
C2123 C2125 1.387 . S
H2124 C2131 0.950 . S
C2125 C2123 1.387 . S
C2125 C2127 1.390 . S
C2125 H2129 0.950 . S
H2126 C2122 0.950 . S
C2127 C2125 1.390 . S
C2127 C2128 1.387 . S
C2127 H2130 0.950 . S
C2128 C2127 1.387 . S
C2128 C2131 1.387 . S
H2129 C2125 0.950 . S
H2130 C2127 0.950 . S
C2131 C2122 1.390 . S
C2131 H2124 0.950 . S
C2131 C2128 1.387 . S
C2132 C2133 1.387 . S
C2132 H2136 0.950 . S
C2132 C2141 1.390 . S
C2133 C2132 1.387 . S
C2133 C2135 1.387 . S
H2134 C2141 0.950 . S
C2135 C2133 1.387 . S
C2135 C2137 1.390 . S
C2135 H2139 0.950 . S
H2136 C2132 0.950 . S
C2137 C2135 1.390 . S
C2137 C2138 1.387 . S
C2137 H2140 0.950 . S
C2138 C2137 1.387 . S
C2138 C2141 1.387 . S
H2139 C2135 0.950 . S
H2140 C2137 0.950 . S
C2141 C2132 1.390 . S
C2141 H2134 0.950 . S
C2141 C2138 1.387 . S
C2142 C2143 1.387 . S
C2142 H2146 0.950 . S
C2142 C2151 1.390 . S
C2143 C2142 1.387 . S
C2143 C2145 1.387 . S
H2144 C2151 0.950 . S
C2145 C2143 1.387 . S
C2145 C2147 1.390 . S
C2145 H2149 0.950 . S
H2146 C2142 0.950 . S
C2147 C2145 1.390 . S
C2147 C2148 1.387 . S
C2147 H2150 0.950 . S
C2148 C2147 1.387 . S
C2148 C2151 1.387 . S
H2149 C2145 0.950 . S
H2150 C2147 0.950 . S
C2151 C2142 1.390 . S
C2151 H2144 0.950 . S
C2151 C2148 1.387 . S
C2152 C2153 1.387 . S
C2152 H2156 0.950 . S
C2152 C2161 1.390 . S
C2153 C2152 1.387 . S
C2153 C2155 1.387 . S
H2154 C2161 0.950 . S
C2155 C2153 1.387 . S
C2155 C2157 1.390 . S
C2155 H2159 0.950 . S
H2156 C2152 0.950 . S
C2157 C2155 1.390 . S
C2157 C2158 1.387 . S
C2157 H2160 0.950 . S
C2158 C2157 1.387 . S
C2158 C2161 1.387 . S
H2159 C2155 0.950 . S
H2160 C2157 0.950 . S
C2161 C2152 1.390 . S
C2161 H2154 0.950 . S
C2161 C2158 1.387 . S
C2162 C2163 1.387 . S
C2162 H2166 0.950 . S
C2162 C2171 1.390 . S
C2163 C2162 1.387 . S
C2163 C2165 1.387 . S
H2164 C2171 0.950 . S
C2165 C2163 1.387 . S
C2165 C2167 1.390 . S
C2165 H2169 0.950 . S
H2166 C2162 0.950 . S
C2167 C2165 1.390 . S
C2167 C2168 1.387 . S
C2167 H2170 0.950 1_455 S
C2168 C2167 1.387 . S
C2168 C2171 1.387 . S
H2169 C2165 0.950 . S
H2170 C2167 0.950 1_655 S
C2171 C2162 1.390 . S
C2171 H2164 0.950 . S
C2171 C2168 1.387 . S
C2172 C2173 1.387 . S
C2172 H2176 0.950 . S
C2172 C2181 1.390 1_655 S
C2173 C2172 1.387 . S
C2173 C2175 1.387 . S
H2174 C2181 0.950 . S
C2175 C2173 1.387 . S
C2175 C2177 1.390 1_655 S
C2175 H2179 0.950 . S
H2176 C2172 0.950 . S
C2177 C2175 1.390 1_455 S
C2177 C2178 1.387 . S
C2177 H2180 0.950 . S
C2178 C2177 1.387 . S
C2178 C2181 1.387 . S
H2179 C2175 0.950 . S
H2180 C2177 0.950 . S
C2181 C2172 1.390 1_455 S
C2181 H2174 0.950 . S
C2181 C2178 1.387 . S
C2182 C2183 1.387 . S
C2182 H2186 0.950 . S
C2182 C2191 1.390 . S
C2183 C2182 1.387 . S
C2183 C2185 1.387 . S
H2184 C2191 0.950 . S
C2185 C2183 1.387 . S
C2185 C2187 1.390 . S
C2185 H2189 0.950 . S
H2186 C2182 0.950 . S
C2187 C2185 1.390 . S
C2187 C2188 1.387 . S
C2187 H2190 0.950 . S
C2188 C2187 1.387 . S
C2188 C2191 1.387 . S
H2189 C2185 0.950 . S
H2190 C2187 0.950 . S
C2191 C2182 1.390 . S
C2191 H2184 0.950 . S
C2191 C2188 1.387 . S
C2192 C2193 1.387 . S
C2192 H2196 0.950 . S
C2192 C2201 1.390 1_545 S
C2193 C2192 1.387 . S
C2193 C2195 1.387 . S
H2194 C2201 0.950 . S
C2195 C2193 1.387 . S
C2195 C2197 1.390 1_545 S
C2195 H2199 0.950 . S
H2196 C2192 0.950 . S
C2197 C2195 1.390 1_565 S
C2197 C2198 1.387 . S
C2197 H2200 0.950 . S
C2198 C2197 1.387 . S
C2198 C2201 1.387 . S
H2199 C2195 0.950 . S
H2200 C2197 0.950 . S
C2201 C2192 1.390 1_565 S
C2201 H2194 0.950 . S
C2201 C2198 1.387 . S
C2202 C2203 1.387 . S
C2202 H2206 0.950 . S
C2202 C2211 1.390 1_545 S
C2203 C2202 1.387 . S
C2203 C2205 1.387 . S
H2204 C2211 0.950 . S
C2205 C2203 1.387 . S
C2205 C2207 1.390 1_545 S
C2205 H2209 0.950 . S
H2206 C2202 0.950 . S
C2207 C2205 1.390 1_565 S
C2207 C2208 1.387 . S
C2207 H2210 0.950 . S
C2208 C2207 1.387 . S
C2208 C2211 1.387 . S
H2209 C2205 0.950 . S
H2210 C2207 0.950 . S
C2211 C2202 1.390 1_565 S
C2211 H2204 0.950 . S
C2211 C2208 1.387 . S
C2212 C2213 1.387 . S
C2212 H2216 0.950 . S
C2212 C2221 1.390 1_655 S
C2213 C2212 1.387 . S
C2213 C2215 1.387 . S
H2214 C2221 0.950 . S
C2215 C2213 1.387 . S
C2215 C2217 1.390 1_655 S
C2215 H2219 0.950 . S
H2216 C2212 0.950 . S
C2217 C2215 1.390 1_455 S
C2217 C2218 1.387 . S
C2217 H2220 0.950 . S
C2218 C2217 1.387 . S
C2218 C2221 1.387 . S
H2219 C2215 0.950 . S
H2220 C2217 0.950 . S
C2221 C2212 1.390 1_455 S
C2221 H2214 0.950 . S
C2221 C2218 1.387 . S
C2222 C2223 1.387 . S
C2222 H2226 0.950 . S
C2222 C2231 1.390 . S
C2223 C2222 1.387 . S
C2223 C2225 1.387 . S
H2224 C2231 0.950 . S
C2225 C2223 1.387 . S
C2225 C2227 1.390 . S
C2225 H2229 0.950 . S
H2226 C2222 0.950 . S
C2227 C2225 1.390 . S
C2227 C2228 1.387 . S
C2227 H2230 0.950 . S
C2228 C2227 1.387 . S
C2228 C2231 1.387 . S
H2229 C2225 0.950 . S
H2230 C2227 0.950 . S
C2231 C2222 1.390 . S
C2231 H2224 0.950 . S
C2231 C2228 1.387 . S
C1153 C6 1.476 . S
C1158 N242 1.480 . S
C1163 N274 1.480 . S
C1168 C34 1.476 . S
C1173 N210 1.480 . S
C1178 C70 1.474 . S
C1183 N365 1.480 . S
C1188 C102 1.474 . S
C1193 C134 1.473 . S
C1198 N301 1.478 . S
C1203 C166 1.473 . S
C1208 N333 1.479 . S
C1213 N45 1.480 . S
C1218 C198 1.476 . S
C1223 C230 1.473 . S
C1228 N82 1.479 . S
C1233 N18 1.480 . S
C1238 C262 1.474 . S
C1243 N178 1.478 . S
C1248 C290 1.475 . S
C1253 C322 1.473 . S
C1258 N114 1.479 . S
C1263 C354 1.476 . S
C1268 N146 1.480 . S
C1273 C386 1.476 . S
C1278 N626 1.480 . S
C1283 N658 1.478 . S
C1288 C418 1.474 . S
C1293 N594 1.478 . S
C1298 C454 1.473 . S
C1303 C482 1.475 . S
C1308 N749 1.480 . S
C1313 N685 1.479 . S
C1318 C518 1.473 . S
C1323 C550 1.473 . S
C1328 N717 1.479 . S
C1333 C582 1.473 . S
C1338 N429 1.479 . S
C1343 N466 1.479 . S
C1348 C614 1.473 . S
C1353 C646 1.474 . S
C1358 N397 1.480 . S
C1363 N562 1.480 . S
C1368 C674 1.474 . S
C1373 N493 1.478 . S
C1378 C706 1.473 . S
C1383 C738 1.476 . S
C1388 N530 1.480 . S
C1393 C774 1.473 . S
C1398 N1010 1.479 . S
C1403 C806 1.473 . S
C1408 N1042 1.479 . S
C1413 N978 1.480 . S
C1418 C834 1.474 . S
C1423 N1133 1.480 . S
C1428 C866 1.474 . S
C1433 C902 1.475 . S
C1438 N1069 1.481 . S
C1443 N1101 1.479 . S
C1448 C930 1.473 . S
C1453 N818 1.480 . S
C1458 C966 1.476 . S
C1463 C998 1.476 . S
C1468 N845 1.480 . S
C1473 N786 1.480 . S
C1478 C1030 1.474 . S
C1483 C1058 1.475 . S
C1488 N941 1.479 . S
C1493 C1090 1.476 . S
C1498 N877 1.479 . S
C1503 C1122 1.476 . S
C1508 N914 1.480 . S
C1513 N13 0.887 . S
C1518 N589 0.887 . S
C1523 N50 0.888 . S
C1528 N621 0.888 . S
C1533 N653 0.892 . S
C1538 N77 0.892 . S
C1543 N1074 0.888 . S
C1548 N109 0.888 . S
C1553 N1106 0.893 . S
C1558 N141 0.893 . S
C1563 N1138 0.893 . S
C1568 N173 0.893 . S
C1573 N205 0.893 . S
C1578 N781 0.893 . S
C1583 N813 0.893 . S
C1588 N237 0.893 . S
C1593 N269 0.892 . S
C1598 N850 0.892 . S
C1603 N306 0.889 . S
C1608 N498 0.889 . S
C1613 N338 0.888 . S
C1618 N525 0.888 . S
C1623 N370 0.887 . S
C1628 N557 0.887 . S
C1633 N402 0.888 1_455 S
C1638 N973 0.888 1_655 S
C1643 N1005 0.891 . S
C1648 N434 0.891 . S
C1653 N461 0.889 1_565 S
C1658 N1037 0.889 1_545 S
C1663 N882 0.892 1_545 S
C1668 N690 0.892 1_565 S
C1673 N722 0.894 1_455 S
C1678 N909 0.894 1_655 S
C1683 N946 0.888 . S
C1688 N754 0.888 . S
C1693 C29 2.216 . S
C1698 C541 2.217 . S
C1703 C36 2.215 . S
C1708 C573 2.216 . S
C1713 C484 2.217 . S
C1718 C93 2.217 . S
C1723 C125 2.217 . S
C1728 C836 2.217 . S
C1733 C797 2.216 . S
C1738 C157 2.217 . S
C1743 C189 2.216 . S
C1748 C829 2.215 . S
C1753 C1092 2.217 . S
C1758 C221 2.216 . S
C1763 C253 2.215 . S
C1768 C1124 2.215 . S
C1773 C1060 2.217 . S
C1778 C285 2.217 . S
C1783 C292 2.217 . S
C1788 C669 2.217 . S
C1793 C324 2.217 . S
C1798 C605 2.216 . S
C1803 C356 2.216 . S
C1808 C637 2.217 . S
C1813 C925 2.214 . S
C1818 C388 2.215 . S
C1823 C420 2.217 . S
C1828 C932 2.216 . S
C1833 C477 2.214 . S
C1838 C868 2.214 . S
C1843 C1053 2.214 . S
C1848 C676 2.214 . S
C1853 C989 2.216 . S
C1858 C708 2.217 . S
C1863 C1021 2.217 . S
C1868 C740 2.216 . S
C1873 C98 2.002 . S
C1878 C2 2.003 . S
C1883 C38 2.002 . S
C1888 C130 2.002 . S
C1893 C66 2.002 . S
C1898 C162 2.002 . S
C1903 C294 2.002 . S
C1908 C194 2.003 . S
C1913 C226 2.001 . S
C1918 C326 2.001 . S
C1923 C358 2.001 . S
C1928 C258 2.001 . S
C1933 C486 2.002 . S
C1938 C390 2.002 . S
C1943 C422 2.001 . S
C1948 C514 2.001 . S
C1953 C450 2.001 . S
C1958 C546 2.001 . S
C1963 C578 2.001 . S
C1968 C678 2.001 1_554 S
C1973 C610 2.002 . S
C1978 C710 2.002 1_554 S
C1983 C642 2.002 . S
C1988 C742 2.002 1_554 S
C1993 C770 2.002 . S
C1998 C870 2.002 1_556 S
C2003 C898 2.002 1_556 S
C2008 C802 2.002 . S
C2013 C934 2.002 1_556 S
C2018 C838 2.002 . S
C2023 C962 2.001 . S
C2028 C1062 2.001 . S
C2033 C1094 2.002 . S
C2038 C994 2.002 . S
C2043 C1026 2.002 . S
C2048 C1126 2.002 . S
C2053 C4 1.695 . S
C2058 C957 1.695 . S
C2063 C893 1.694 . S
C2068 C61 1.694 . S
C2073 C68 1.707 . S
C2078 C900 1.693 . S
C2083 C445 1.693 . S
C2088 C100 1.692 . S
C2093 C132 1.708 . S
C2098 C452 1.693 . S
C2103 C164 1.693 . S
C2108 C413 1.692 . S
C2113 C765 1.695 . S
C2118 C196 1.695 . S
C2123 C228 1.694 . S
C2128 C701 1.694 . S
C2133 C733 1.693 . S
C2138 C260 1.709 . S
C2143 C317 1.693 . S
C2148 C996 1.694 . S
C2153 C1028 1.692 . S
C2158 C349 1.708 . S
C2163 C964 1.695 . S
C2168 C381 1.696 . S
C2173 C509 1.694 . S
C2178 C804 1.693 . S
C2183 C516 1.693 . S
C2188 C861 1.694 . S
C2193 C548 1.695 . S
C2198 C772 1.695 . S
C2203 C580 1.692 . S
C2208 C1149 1.692 . S
C2213 C612 1.693 . S
C2218 C1085 1.694 . S
C2223 C1117 1.694 . S
C2228 C644 1.693 . S
