# Generated by pormake.
# Topology smc, (6)-cn, num edge types: 1
# Building blocks:
#     Node 0, Type 0, BuildingBlock: PAMTUU_clean_sbu_0, # of connection points: 6
#     Node 1, Type 0, BuildingBlock: PAMTUU_clean_sbu_0, # of connection points: 6
#     Node 2, Type 0, BuildingBlock: PAMTUU_clean_sbu_0, # of connection points: 6
#     Node 3, Type 0, BuildingBlock: PAMTUU_clean_sbu_0, # of connection points: 6
#     Node 4, Type 0, BuildingBlock: PAMTUU_clean_sbu_0, # of connection points: 6
#     Node 5, Type 0, BuildingBlock: PAMTUU_clean_sbu_0, # of connection points: 6
#     Node 6, Type 0, BuildingBlock: PAMTUU_clean_sbu_0, # of connection points: 6
#     Node 7, Type 0, BuildingBlock: PAMTUU_clean_sbu_0, # of connection points: 6
#     Node 8, Type 0, BuildingBlock: PAMTUU_clean_sbu_0, # of connection points: 6
#     Edge 9, Type (0, 0), BuildingBlock: UVAHIK_clean_linker_0, # of connection points: 2
#     Edge 10, Type (0, 0), BuildingBlock: UVAHIK_clean_linker_0, # of connection points: 2
#     Edge 11, Type (0, 0), BuildingBlock: UVAHIK_clean_linker_0, # of connection points: 2
#     Edge 12, Type (0, 0), BuildingBlock: UVAHIK_clean_linker_0, # of connection points: 2
#     Edge 13, Type (0, 0), BuildingBlock: UVAHIK_clean_linker_0, # of connection points: 2
#     Edge 14, Type (0, 0), BuildingBlock: UVAHIK_clean_linker_0, # of connection points: 2
#     Edge 15, Type (0, 0), BuildingBlock: UVAHIK_clean_linker_0, # of connection points: 2
#     Edge 16, Type (0, 0), BuildingBlock: UVAHIK_clean_linker_0, # of connection points: 2
#     Edge 17, Type (0, 0), BuildingBlock: UVAHIK_clean_linker_0, # of connection points: 2
#     Edge 18, Type (0, 0), BuildingBlock: UVAHIK_clean_linker_0, # of connection points: 2
#     Edge 19, Type (0, 0), BuildingBlock: UVAHIK_clean_linker_0, # of connection points: 2
#     Edge 20, Type (0, 0), BuildingBlock: UVAHIK_clean_linker_0, # of connection points: 2
#     Edge 21, Type (0, 0), BuildingBlock: UVAHIK_clean_linker_0, # of connection points: 2
#     Edge 22, Type (0, 0), BuildingBlock: UVAHIK_clean_linker_0, # of connection points: 2
#     Edge 23, Type (0, 0), BuildingBlock: UVAHIK_clean_linker_0, # of connection points: 2
#     Edge 24, Type (0, 0), BuildingBlock: UVAHIK_clean_linker_0, # of connection points: 2
#     Edge 25, Type (0, 0), BuildingBlock: UVAHIK_clean_linker_0, # of connection points: 2
#     Edge 26, Type (0, 0), BuildingBlock: UVAHIK_clean_linker_0, # of connection points: 2
#     Edge 27, Type (0, 0), BuildingBlock: UVAHIK_clean_linker_0, # of connection points: 2
#     Edge 28, Type (0, 0), BuildingBlock: UVAHIK_clean_linker_0, # of connection points: 2
#     Edge 29, Type (0, 0), BuildingBlock: UVAHIK_clean_linker_0, # of connection points: 2
#     Edge 30, Type (0, 0), BuildingBlock: UVAHIK_clean_linker_0, # of connection points: 2
#     Edge 31, Type (0, 0), BuildingBlock: UVAHIK_clean_linker_0, # of connection points: 2
#     Edge 32, Type (0, 0), BuildingBlock: UVAHIK_clean_linker_0, # of connection points: 2
#     Edge 33, Type (0, 0), BuildingBlock: UVAHIK_clean_linker_0, # of connection points: 2
#     Edge 34, Type (0, 0), BuildingBlock: UVAHIK_clean_linker_0, # of connection points: 2
#     Edge 35, Type (0, 0), BuildingBlock: UVAHIK_clean_linker_0, # of connection points: 2
# Relax obj value: 0.236
# Max RMSD: 0.321
# Mean RMSD: 0.292
data_MOF--net-smc--node1-PAMTUU_clean_sbu_0--edge1-UVAHIK_clean_linker_0
_symmetry_space_group_name_H-M    P1
_symmetry_Int_Tables_number       1
_symmetry_cell_setting            triclinic
loop_
_symmetry_equiv_pos_as_xyz
'x, y, z'
_cell_length_a     52.046519
_cell_length_b     41.503298
_cell_length_c     52.54223
_cell_angle_alpha  90.638143
_cell_angle_beta   90.238273
_cell_angle_gamma 119.81205
loop_
_atom_site_label
_atom_site_type_symbol
_atom_site_fract_x
_atom_site_fract_y
_atom_site_fract_z
_atom_type_partial_charge
Tb0 Tb 0.06315 0.40915 1.00051 0.0
Tb1 Tb 0.04148 0.4673 0.01394 0.0
C2 C 1.02427 0.42327 0.96046 0.0
C3 C 0.11344 0.37654 0.00969 0.0
C4 C 0.16885 0.41909 0.03357 0.0
C5 C 0.16696 0.40567 0.00854 0.0
C6 C 0.13934 0.38461 0.99661 0.0
C7 C 0.11541 0.38563 0.03581 0.0
C8 C 0.14293 0.40715 0.04758 0.0
C9 C 0.08695 0.36995 0.99513 0.0
O10 O 0.10278 0.46498 1.00452 0.0
O11 O 0.08072 0.49711 0.99131 0.0
O12 O 0.0722 0.47147 0.04486 0.0
O13 O 0.0614 0.41159 0.04173 0.0
O14 O 1.03197 0.50898 1.00348 0.0
O15 O 1.03101 0.49403 0.04281 0.0
O16 O 1.00672 0.41424 0.0274 0.0
O17 O 1.01494 0.37526 1.00165 0.0
O18 O 0.04583 0.41574 0.96417 0.0
O19 O 1.01667 0.43936 0.97854 0.0
C20 C 0.10479 0.49559 0.99551 0.0
O21 O 0.06295 0.35943 1.00831 0.0
O22 O 0.09158 0.3967 0.97967 0.0
C23 C 0.07184 0.44239 0.05509 0.0
C24 C 0.99899 0.51576 0.03085 0.0
C25 C 0.94805 0.52131 0.0396 0.0
C26 C 0.9744 0.54388 0.05331 0.0
C27 C 0.99963 0.54117 0.0489 0.0
C28 C 0.97265 0.49248 0.01744 0.0
C29 C 0.94732 0.4953 0.02175 0.0
C30 C 1.02609 0.51403 0.02677 0.0
C31 C 0.99764 0.38166 0.01655 0.0
H32 H 0.18676 0.41471 0.99736 0.0
H33 H 0.13842 0.37815 0.97647 0.0
H34 H 0.09586 0.37957 0.04654 0.0
H35 H 0.14393 0.41699 0.06695 0.0
H36 H 0.97552 0.56361 0.06757 0.0
H37 H 1.01972 0.55901 0.05962 0.0
H38 H 0.97174 0.47242 1.00357 0.0
H39 H 0.92741 0.47769 0.01079 0.0
Tb40 Tb 0.60687 0.61866 0.01618 0.0
Tb41 Tb 0.54641 0.58626 0.98756 0.0
C42 C 0.55471 0.59518 0.0474 0.0
C43 C 0.67425 0.63046 0.04758 0.0
C44 C 0.71331 0.60362 0.05758 0.0
C45 C 0.71573 0.63434 0.07133 0.0
C46 C 0.6963 0.64766 0.06633 0.0
C47 C 0.67128 0.5993 0.03426 0.0
C48 C 0.69066 0.58602 0.03918 0.0
C49 C 0.6547 0.64531 0.04152 0.0
O50 O 0.5954 0.55839 0.00987 0.0
O51 O 0.54814 0.53439 0.99415 0.0
O52 O 0.57748 0.59638 0.95536 0.0
O53 O 0.62162 0.62201 0.9773 0.0
O54 O 0.50114 0.54742 0.98981 0.0
O55 O 0.51836 0.58464 0.95803 0.0
O56 O 0.55898 0.64494 0.98628 0.0
O57 O 0.59533 0.66587 0.01668 0.0
O58 O 0.57297 0.58364 0.0421 0.0
O59 O 0.54432 0.60449 0.02762 0.0
C60 C 0.56973 0.52885 1.00233 0.0
O61 O 0.65313 0.6517 0.01756 0.0
O62 O 0.62861 0.6282 0.05165 0.0
C63 C 0.60676 0.61164 0.95577 0.0
C64 C 0.47436 0.57626 0.97612 0.0
C65 C 0.43712 0.60604 0.98667 0.0
C66 C 0.44249 0.59968 0.96136 0.0
C67 C 0.46089 0.5848 0.95615 0.0
C68 C 0.46986 0.58382 1.00131 0.0
C69 C 0.45132 0.59822 1.00652 0.0
C70 C 0.49481 0.56223 0.97071 0.0
C71 C 0.57661 0.67154 1.00215 0.0
H72 H 0.73273 0.64819 0.08582 0.0
H73 H 0.69871 0.67162 0.07688 0.0
H74 H 0.65434 0.58571 0.01967 0.0
H75 H 0.68847 0.56268 0.02799 0.0
H76 H 0.4322 0.60575 0.94559 0.0
H77 H 0.46462 0.57998 0.93655 0.0
H78 H 0.48043 0.57829 0.01714 0.0
H79 H 0.44733 0.60184 0.02627 0.0
Tb80 Tb 0.46793 0.03008 1.00636 0.0
Tb81 Tb 0.53416 0.07718 0.02674 0.0
C82 C 0.51563 0.07038 0.96747 0.0
C83 C 0.3914 0.9514 0.99457 0.0
C84 C 0.34832 0.87437 0.99532 0.0
C85 C 0.37882 0.88645 0.9976 0.0
C86 C 0.40005 0.92444 0.99726 0.0
C87 C 0.3611 0.93961 0.99261 0.0
C88 C 0.33984 0.90166 0.99299 0.0
C89 C 0.41366 0.99164 0.99359 0.0
O90 O 0.48131 0.98575 1.00647 0.0
O91 O 0.52795 1.02029 0.02323 0.0
O92 O 0.5056 0.06305 0.06134 0.0
O93 O 0.46675 1.01114 0.04455 0.0
O94 O 0.57507 0.08002 0.02383 0.0
O95 O 0.56957 0.11662 0.04996 0.0
O96 O 0.52792 0.12468 0.02146 0.0
O97 O 0.4793 0.09235 1.00786 0.0
O98 O 0.49344 0.03808 0.97286 0.0
O99 O 0.53286 0.09238 0.98607 0.0
C100 C 0.50664 0.98815 0.01425 0.0
O101 O 0.42293 1.00917 0.01536 0.0
O102 O 0.43557 1.00104 0.97801 0.0
C103 C 0.47975 0.03244 0.06427 0.0
C104 C 0.61839 0.13725 0.03327 0.0
C105 C 0.67992 0.18573 0.02669 0.0
C106 C 0.66434 0.19278 0.04581 0.0
C107 C 0.63396 0.16864 0.04917 0.0
C108 C 0.63362 0.13142 0.01329 0.0
C109 C 0.6639 0.15521 0.0101 0.0
C110 C 0.58815 0.10769 0.03994 0.0
C111 C 0.50401 0.12512 0.01387 0.0
H112 H 0.38641 0.86653 0.99914 0.0
H113 H 0.42328 0.93272 0.99885 0.0
H114 H 0.35382 0.95981 0.99069 0.0
H115 H 0.31668 0.89377 0.99166 0.0
H116 H 0.67576 0.21637 0.05868 0.0
H117 H 0.62294 0.1737 0.06487 0.0
H118 H 0.62254 0.1073 1.00081 0.0
H119 H 0.67498 0.14832 0.99542 0.0
Tb120 Tb 0.72255 0.77055 0.3362 0.0
Tb121 Tb 0.66925 0.79714 0.35234 0.0
C122 C 0.67629 0.76629 0.29471 0.0
C123 C 0.8062 0.78251 0.33143 0.0
C124 C 0.86907 0.80159 0.32938 0.0
C125 C 0.84754 0.77775 0.31103 0.0
C126 C 0.817 0.76829 0.31213 0.0
C127 C 0.82769 0.80626 0.34967 0.0
C128 C 0.85796 0.81522 0.34882 0.0
C129 C 0.77408 0.7761 0.33181 0.0
O130 O 0.7328 0.82603 0.32497 0.0
O131 O 0.7134 0.84379 0.35695 0.0
O132 O 0.6898 0.79455 0.38913 0.0
O133 O 0.71568 0.76438 0.37707 0.0
O134 O 0.65479 0.83508 0.34265 0.0
O135 O 0.63289 0.79526 0.37231 0.0
O136 O 0.64572 0.73771 0.35395 0.0
O137 O 0.67875 0.71728 0.34061 0.0
O138 O 0.6997 0.76274 0.29996 0.0
O139 O 0.66398 0.77913 0.31136 0.0
C140 C 0.73473 0.85142 0.34105 0.0
O141 O 0.76801 0.79785 0.34553 0.0
O142 O 0.75006 0.74901 0.32086 0.0
C143 C 0.70578 0.77838 0.39456 0.0
C144 C 0.60568 0.82514 0.35479 0.0
C145 C 0.55692 0.84067 0.35065 0.0
C146 C 0.55991 0.82147 0.37158 0.0
C147 C 0.58368 0.81403 0.3736 0.0
C148 C 0.60259 0.84381 0.33366 0.0
C149 C 0.57877 0.85123 0.33158 0.0
C150 C 0.63365 0.82261 0.35949 0.0
C151 C 0.65181 0.71146 0.34769 0.0
H152 H 0.85419 0.76598 0.29568 0.0
H153 H 0.80191 0.75034 0.29738 0.0
H154 H 0.82117 0.81851 0.36482 0.0
H155 H 0.87291 0.83391 0.36333 0.0
H156 H 0.54439 0.81311 0.38709 0.0
H157 H 0.58535 0.80051 0.39054 0.0
H158 H 0.61905 0.85358 0.31883 0.0
H159 H 0.57767 0.8655 0.31487 0.0
Tb160 Tb 0.26299 0.95381 0.33015 0.0
Tb161 Tb 0.23461 0.86736 0.32526 0.0
C162 C 0.2735 0.92299 0.27911 0.0
C163 C 0.26999 0.03972 0.35505 0.0
C164 C 0.24232 0.07504 0.37895 0.0
C165 C 0.27262 0.09523 0.37309 0.0
C166 C 0.28637 0.07763 0.36112 0.0
C167 C 0.24008 1.0192 0.36183 0.0
C168 C 0.22631 0.03675 0.37362 0.0
C169 C 0.28361 1.02135 0.34128 0.0
O170 O 0.21516 0.93459 0.31944 0.0
O171 O 0.19574 0.87444 0.3312 0.0
O172 O 0.24613 0.88139 0.36632 0.0
O173 O 0.23809 0.92959 0.36413 0.0
O174 O 0.20344 0.82171 0.30375 0.0
O175 O 0.22575 0.81435 0.33622 0.0
O176 O 0.28004 0.88066 0.32487 0.0
O177 O 0.30101 0.94201 0.33669 0.0
O178 O 0.27671 0.95204 0.29178 0.0
O179 O 0.25731 0.88903 0.28814 0.0
C180 C 0.19151 0.90201 0.32479 0.0
O181 O 0.28848 0.99878 0.35486 0.0
O182 O 0.27126 1.00656 0.31934 0.0
C183 C 0.24302 0.90749 0.37802 0.0
C184 C 0.22294 0.78184 0.29796 0.0
C185 C 0.25016 0.75463 0.26429 0.0
C186 C 0.25787 0.76027 0.29034 0.0
C187 C 0.24445 0.77365 0.30693 0.0
C188 C 0.21539 0.77664 0.27188 0.0
C189 C 0.22894 0.76331 0.25521 0.0
C190 C 0.21104 0.79973 0.315 0.0
C191 C 0.30341 0.91187 0.33171 0.0
H192 H 0.28535 0.12488 0.37676 0.0
H193 H 0.30952 0.09372 0.35609 0.0
H194 H 0.22721 0.98975 0.35748 0.0
H195 H 0.203 1.02057 0.3781 0.0
H196 H 0.27338 0.75276 0.2983 0.0
H197 H 0.25097 0.77754 0.32683 0.0
H198 H 0.1991 0.78306 0.26429 0.0
H199 H 0.22233 0.759 0.23533 0.0
Tb200 Tb 0.11158 0.36992 0.3486 0.0
Tb201 Tb 0.18257 0.42292 0.36899 0.0
C202 C 0.16258 0.40685 0.3105 0.0
C203 C 0.03381 0.29428 0.33425 0.0
C204 C 0.98579 0.22178 0.33946 0.0
C205 C 0.9906 0.24046 0.31631 0.0
C206 C 1.01437 0.27639 0.31377 0.0
C207 C 1.02889 0.27617 0.35762 0.0
C208 C 1.00485 0.24018 0.36027 0.0
C209 C 0.06026 0.33036 0.32989 0.0
O210 O 0.12503 0.33412 0.36732 0.0
O211 O 0.17419 0.36838 0.35727 0.0
O212 O 0.15506 0.40249 0.40462 0.0
O213 O 0.10644 0.37356 0.38901 0.0
O214 O 0.22267 0.47422 0.36798 0.0
O215 O 0.22009 0.42872 0.38922 0.0
O216 O 0.15707 0.45027 0.3752 0.0
O217 O 0.12704 0.42811 0.34066 0.0
O218 O 0.14131 0.3749 0.31829 0.0
O219 O 0.18029 0.43216 0.32743 0.0
C220 C 0.15131 0.33731 0.36475 0.0
O221 O 0.06697 0.35673 0.34679 0.0
O222 O 0.08346 0.32872 0.32259 0.0
C223 C 0.12562 0.38488 0.40801 0.0
C224 C 0.26922 0.47467 0.37471 0.0
C225 C 0.33216 0.5051 0.36729 0.0
C226 C 0.31651 0.47774 0.3857 0.0
C227 C 0.28578 0.46295 0.38935 0.0
C228 C 0.28464 0.50154 0.356 0.0
C229 C 0.3154 0.51627 0.35228 0.0
C230 C 0.23744 0.46262 0.38158 0.0
C231 C 0.14483 0.45635 0.35542 0.0
H232 H 0.97605 0.22716 0.30009 0.0
H233 H 1.01798 0.28994 0.29556 0.0
H234 H 0.04394 0.28949 0.37356 0.0
H235 H 1.00172 0.22632 0.37828 0.0
H236 H 0.32801 0.46765 0.39752 0.0
H237 H 0.27507 0.44284 0.40421 0.0
H238 H 0.2731 0.51204 0.34459 0.0
H239 H 0.3262 0.53746 0.3381 0.0
Tb240 Tb 0.38831 0.06143 0.6719 0.0
Tb241 Tb 0.3641 0.11765 0.68199 0.0
C242 C 0.3547 0.07605 0.62852 0.0
C243 C 0.43897 0.02856 0.68127 0.0
C244 C 0.49658 0.07401 0.70033 0.0
C245 C 0.49197 0.05667 0.67623 0.0
C246 C 0.4633 0.03403 0.66678 0.0
C247 C 0.44357 0.0412 0.70675 0.0
C248 C 0.47221 0.06384 0.7162 0.0
C249 C 0.41169 1.02139 0.66795 0.0
O250 O 0.42758 0.11769 0.67671 0.0
O251 O 0.40531 0.14906 0.66195 0.0
O252 O 0.39428 0.12493 0.7144 0.0
O253 O 0.38586 0.06591 0.7128 0.0
O254 O 0.35278 0.15654 0.66858 0.0
O255 O 0.35074 0.14438 0.70859 0.0
O256 O 0.33033 0.06468 0.69634 0.0
O257 O 0.33969 1.02711 0.67045 0.0
O258 O 0.37803 0.07326 0.63429 0.0
O259 O 0.34241 0.08729 0.64594 0.0
C260 C 0.42947 0.14826 0.66754 0.0
O261 O 0.38875 1.01283 0.68216 0.0
O262 O 0.41572 0.04684 0.65158 0.0
C263 C 0.39552 0.09725 0.72533 0.0
C264 C 0.31783 0.16334 0.69349 0.0
C265 C 0.26577 0.16764 0.69877 0.0
C266 C 0.29127 0.19109 0.71321 0.0
C267 C 0.31702 0.18895 0.71055 0.0
C268 C 0.29239 0.13948 0.67916 0.0
C269 C 0.26655 0.14175 0.6817 0.0
C270 C 0.34561 0.16255 0.69115 0.0
C271 C 0.32155 0.03253 0.685 0.0
H272 H 0.51029 0.06389 0.66349 0.0
H273 H 0.46028 1.02464 0.6471 0.0
H274 H 0.42521 0.03712 0.7185 0.0
H275 H 0.47514 0.07615 0.73505 0.0
H276 H 0.29154 0.21169 0.72622 0.0
H277 H 0.33647 0.20758 0.72174 0.0
H278 H 0.29256 0.11929 0.666 0.0
H279 H 0.24716 0.12316 0.67046 0.0
Tb280 Tb 0.92843 0.28335 0.68897 0.0
Tb281 Tb 0.86812 0.25284 0.66078 0.0
C282 C 0.87673 0.25892 0.72039 0.0
C283 C 0.99763 0.29355 0.71451 0.0
C284 C 0.03874 0.2681 0.71476 0.0
C285 C 0.0426 0.29726 0.73119 0.0
C286 C 1.02218 0.30992 0.73103 0.0
C287 C 0.99345 0.2641 0.69842 0.0
C288 C 1.01376 0.25145 0.69857 0.0
C289 C 0.97679 0.30764 0.71331 0.0
O290 O 0.91627 0.22317 0.68028 0.0
O291 O 0.86813 0.19982 0.66707 0.0
O292 O 0.89881 0.2609 0.62858 0.0
O293 O 0.94311 0.28918 0.65018 0.0
O294 O 0.82206 0.21948 0.66423 0.0
O295 O 0.8412 0.25089 0.63025 0.0
O296 O 0.88372 0.31238 0.65855 0.0
O297 O 0.91639 0.33029 0.69162 0.0
O298 O 0.89422 0.24681 0.71386 0.0
O299 O 0.86658 0.26995 0.70138 0.0
C300 C 0.88994 0.19378 0.67379 0.0
O301 O 0.97436 0.31948 0.69113 0.0
O302 O 0.95094 0.28655 0.72315 0.0
C303 C 0.92819 0.27768 0.62881 0.0
C304 C 0.80033 0.25213 0.64707 0.0
C305 C 0.76687 0.28714 0.65635 0.0
C306 C 0.75839 0.25996 0.63691 0.0
C307 C 0.77505 0.24253 0.63231 0.0
C308 C 0.80973 0.28069 0.66548 0.0
C309 C 0.79315 0.29807 0.67009 0.0
C310 C 0.81724 0.23286 0.64354 0.0
C311 C 0.89931 0.33753 0.676 0.0
H312 H 0.06175 0.31086 0.74373 0.0
H313 H 1.02575 0.33277 0.74351 0.0
H314 H 0.97464 0.25116 0.68549 0.0
H315 H 1.00986 0.22857 0.68598 0.0
H316 H 0.73794 0.25056 0.6263 0.0
H317 H 0.76772 0.22085 0.61785 0.0
H318 H 0.82941 0.28876 0.67689 0.0
H319 H 0.80017 0.31891 0.68512 0.0
Tb320 Tb 0.78472 0.69222 0.67801 0.0
Tb321 Tb 0.85305 0.74182 0.69178 0.0
C322 C 0.82594 0.7323 0.6345 0.0
C323 C 0.70773 0.61074 0.67197 0.0
C324 C 0.66616 0.53292 0.67255 0.0
C325 C 0.69671 0.54648 0.67653 0.0
C326 C 0.7172 0.58484 0.67623 0.0
C327 C 0.67734 0.59747 0.6684 0.0
C328 C 0.65685 0.55919 0.66872 0.0
C329 C 0.72922 0.65129 0.6702 0.0
O330 O 0.79947 0.64904 0.6763 0.0
O331 O 0.84604 0.68436 0.69276 0.0
O332 O 0.82809 0.73349 0.72826 0.0
O333 O 0.78914 0.67806 0.71659 0.0
O334 O 0.89357 0.74671 0.68201 0.0
O335 O 0.89133 0.78019 0.7129 0.0
O336 O 0.84589 0.78862 0.68834 0.0
O337 O 0.79573 0.75474 0.6796 0.0
O338 O 0.80475 0.70006 0.6414 0.0
O339 O 0.84587 0.75458 0.65162 0.0
C340 C 0.82492 0.65181 0.68419 0.0
O341 O 0.7409 0.66944 0.69141 0.0
O342 O 0.74917 0.66105 0.65264 0.0
C343 C 0.80326 0.703 0.73428 0.0
C344 C 0.93935 0.80071 0.69334 0.0
C345 C 1.00191 0.84515 0.68832 0.0
C346 C 0.98677 0.85286 0.70754 0.0
C347 C 0.95594 0.83074 0.71013 0.0
C348 C 0.95425 0.79431 0.67333 0.0
C349 C 0.98498 0.81608 0.67089 0.0
C350 C 0.90842 0.77197 0.69942 0.0
C351 C 0.82091 0.78816 0.68354 0.0
H352 H 0.70499 0.52743 0.67928 0.0
H353 H 0.74051 0.59423 0.67898 0.0
H354 H 0.66939 0.61677 0.66514 0.0
H355 H 0.63361 0.55025 0.66604 0.0
H356 H 0.99879 0.87539 0.72107 0.0
H357 H 0.9453 0.83617 0.72596 0.0
H358 H 0.94244 0.77102 0.66028 0.0
H359 H 0.99553 0.80861 0.65608 0.0
C360 C 0.41654 0.63661 0.01522 0.0
C361 C 0.41413 0.61613 0.99289 0.0
C362 C 0.39152 0.63578 0.0255 0.0
C363 C 0.311 0.5995 0.01601 0.0
H364 H 0.30292 0.53962 0.07487 0.0
C365 C 0.22331 0.45005 0.04184 0.0
C366 C 0.19684 0.45105 0.04273 0.0
C367 C 0.25037 0.48271 0.04515 0.0
C368 C 0.30493 0.55713 0.05899 0.0
H369 H 0.38449 0.58373 0.96183 0.0
H370 H 0.34145 0.58338 0.97924 0.0
H371 H 0.3521 0.58348 0.05949 0.0
H372 H 0.17747 0.48619 0.049 0.0
H373 H 0.22506 0.54372 0.05368 0.0
H374 H 0.26362 0.57068 0.01435 0.0
C375 C 0.36249 0.59956 0.98908 0.0
C376 C 0.33305 0.58243 0.05024 0.0
C377 C 0.38731 0.59973 0.97907 0.0
C378 C 0.1977 0.48477 0.04845 0.0
C379 C 0.22479 0.51761 0.05111 0.0
C380 C 0.28285 0.57464 0.02505 0.0
C381 C 0.36393 0.61531 0.01322 0.0
C382 C 0.33622 0.60184 0.02763 0.0
C383 C 0.25132 0.51691 0.04879 0.0
C384 C 0.27969 0.55153 0.04554 0.0
H385 H 0.43719 0.65076 0.02587 0.0
H386 H 0.39321 0.64849 0.04401 0.0
H387 H 0.31293 0.61423 0.99859 0.0
H388 H 0.2231 0.42438 0.0373 0.0
H389 H 0.27062 0.48162 0.04291 0.0
C390 C 0.49166 0.91791 1.00523 0.0
C391 C 0.51268 0.95462 0.01323 0.0
C392 C 0.49838 0.88812 1.00452 0.0
C393 C 0.55941 0.86262 0.02393 0.0
H394 H 0.50992 0.77272 0.98533 0.0
C395 C 0.58425 0.7343 0.0234 0.0
C396 C 0.57212 0.70625 1.0041 0.0
C397 C 0.57742 0.76402 0.02499 0.0
C398 C 0.52464 0.79747 0.99617 0.0
H399 H 0.55816 0.98651 0.02658 0.0
H400 H 0.56969 0.93662 0.02502 0.0
H401 H 0.49802 0.82225 0.98645 0.0
H402 H 0.54268 0.69005 0.97126 0.0
H403 H 0.53176 0.74023 0.97356 0.0
H404 H 0.58634 0.838 0.03324 0.0
C405 C 0.54749 0.9298 0.0196 0.0
C406 C 0.51733 0.8266 0.99709 0.0
C407 C 0.54076 0.95934 0.02037 0.0
C408 C 0.55298 0.71023 0.98658 0.0
C409 C 0.54626 0.73967 0.9881 0.0
C410 C 0.56676 0.83348 0.02297 0.0
C411 C 0.52664 0.89289 0.01171 0.0
C412 C 0.53445 0.8605 0.01093 0.0
C413 C 0.55794 0.76771 1.00744 0.0
C414 C 0.54976 0.79973 0.00894 0.0
H415 H 0.4697 0.91194 0.9995 0.0
H416 H 0.48088 0.861 0.99847 0.0
H417 H 0.57365 0.88695 0.03533 0.0
H418 H 0.59875 0.73307 0.03771 0.0
H419 H 0.58724 0.78382 0.04055 0.0
C420 C 0.30011 0.81982 0.97926 0.0
C421 C 0.32552 0.83365 0.99495 0.0
C422 C 0.27882 0.78191 0.97874 0.0
C423 C 0.25115 0.69407 0.01525 0.0
H424 H 0.21061 0.6491 0.95157 0.0
C425 C 0.15944 0.53712 1.00616 0.0
C426 C 0.13379 0.53056 0.9927 0.0
C427 C 0.1853 0.57231 1.00573 0.0
C428 C 0.22157 0.66117 0.96958 0.0
H429 H 0.3479 0.81753 0.02269 0.0
H430 H 0.31117 0.75147 0.02137 0.0
H431 H 0.25028 0.71351 0.95254 0.0
H432 H 0.11582 0.55565 0.96748 0.0
H433 H 0.16034 0.61602 0.96657 0.0
H434 H 0.2221 0.64147 0.03223 0.0
C435 C 0.30754 0.77012 0.0096 0.0
C436 C 0.24435 0.69834 0.97017 0.0
C437 C 0.32889 0.80813 0.01012 0.0
C438 C 0.13507 0.55953 0.9781 0.0
C439 C 0.16079 0.59431 0.97746 0.0
C440 C 0.22834 0.65673 0.01463 0.0
C441 C 0.28217 0.75634 0.99384 0.0
C442 C 0.25917 0.71571 0.99309 0.0
C443 C 0.18621 0.60154 0.99153 0.0
C444 C 0.21279 0.63993 0.99187 0.0
H445 H 0.29673 0.83823 0.96703 0.0
H446 H 0.25948 0.77276 0.96662 0.0
H447 H 0.26177 0.70631 0.03333 0.0
H448 H 0.15919 0.51555 0.01772 0.0
H449 H 0.2045 0.57668 0.01665 0.0
C450 C 0.53493 0.19691 0.01975 0.0
C451 C 0.5076 0.16523 0.01211 0.0
C452 C 0.54065 0.23433 0.01851 0.0
C453 C 0.51064 0.29813 0.99321 0.0
H454 H 0.57569 0.37338 0.03345 0.0
C455 C 0.53599 0.45706 0.99501 0.0
C456 C 0.56363 0.48758 1.00322 0.0
C457 C 0.5292 0.41903 0.99591 0.0
C458 C 0.55754 0.35348 0.02163 0.0
H459 H 0.46481 0.152 0.99662 0.0
H460 H 0.47441 0.21656 0.99462 0.0
H461 H 0.56369 0.30903 0.03541 0.0
H462 H 0.60566 0.49848 0.01912 0.0
H463 H 0.59433 0.43355 0.02053 0.0
H464 H 0.50445 0.34281 0.97957 0.0
C465 C 0.492 0.21224 1.00167 0.0
C466 C 0.55041 0.31528 0.02274 0.0
C467 C 0.4862 0.17427 1.00294 0.0
C468 C 0.58408 0.47703 0.01246 0.0
C469 C 0.57725 0.43878 0.01341 0.0
C470 C 0.51778 0.33643 0.99211 0.0
C471 C 0.51955 0.24387 0.00953 0.0
C472 C 0.52673 0.28589 0.0085 0.0
C473 C 0.54946 0.4081 1.00517 0.0
C474 C 0.5416 0.36582 1.00625 0.0
H475 H 0.55275 0.19304 0.02685 0.0
H476 H 0.56243 0.25599 0.02443 0.0
H477 H 0.49242 0.27808 0.98149 0.0
H478 H 0.519 0.46246 0.9878 0.0
H479 H 0.50738 0.39803 0.98952 0.0
C480 C 0.72728 0.214 1.00162 0.0
C481 C 0.71291 0.20793 0.02518 0.0
C482 C 0.75813 0.23091 1.00046 0.0
C483 C 0.82397 0.25287 0.0412 0.0
H484 H 0.86735 0.31481 0.98451 0.0
C485 C 0.95053 0.35328 0.04077 0.0
C486 C 0.96597 0.35378 0.01877 0.0
C487 C 0.91971 0.33157 0.04154 0.0
C488 C 0.85545 0.29717 1.00029 0.0
H489 H 0.72032 0.21635 0.06601 0.0
H490 H 0.77392 0.24772 0.06388 0.0
H491 H 0.81375 0.28781 0.98601 0.0
H492 H 0.96144 0.33143 0.98051 0.0
H493 H 0.90724 0.2938 0.9817 0.0
H494 H 0.86611 0.26381 0.05591 0.0
C495 C 0.7613 0.23819 0.04628 0.0
C496 C 0.82468 0.28161 1.00118 0.0
C497 C 0.73042 0.22078 0.04746 0.0
C498 C 0.9501 0.33115 0.99783 0.0
C499 C 0.91914 0.30996 0.99841 0.0
C500 C 0.85478 0.26894 0.04049 0.0
C501 C 0.7756 0.24282 0.02281 0.0
C502 C 0.80847 0.25934 0.02171 0.0
C503 C 0.90365 0.31049 0.02014 0.0
C504 C 0.87082 0.29131 0.02007 0.0
H505 H 0.71468 0.20515 0.98398 0.0
H506 H 0.76815 0.23366 0.98202 0.0
H507 H 0.81233 0.23519 0.05702 0.0
H508 H 0.96224 0.37062 0.05713 0.0
H509 H 0.90833 0.33267 0.05846 0.0
C510 C 0.92532 0.56133 0.04696 0.0
C511 C 0.92177 0.52567 0.04371 0.0
C512 C 0.90096 0.56584 0.05154 0.0
C513 C 0.82085 0.52117 0.04262 0.0
H514 H 0.82818 0.59474 0.09273 0.0
C515 C 0.72645 0.55318 0.06075 0.0
C516 C 0.73528 0.59118 0.06126 0.0
C517 C 0.74752 0.54173 0.06194 0.0
C518 C 0.82583 0.57417 0.07863 0.0
H519 H 0.88973 0.46675 0.04251 0.0
H520 H 0.84687 0.47476 0.05019 0.0
H521 H 0.86822 0.58075 0.088 0.0
H522 H 0.77311 0.6469 0.06379 0.0
H523 H 0.80978 0.62697 0.06601 0.0
H524 H 0.77879 0.51534 0.03276 0.0
C525 C 0.86865 0.49914 0.04919 0.0
C526 C 0.84873 0.56617 0.07593 0.0
C527 C 0.89314 0.49459 0.04471 0.0
C528 C 0.76553 0.61742 0.06378 0.0
C529 C 0.78656 0.60598 0.06503 0.0
C530 C 0.79793 0.52922 0.0453 0.0
C531 C 0.87241 0.53483 0.05285 0.0
C532 C 0.84675 0.54021 0.05751 0.0
C533 C 0.77782 0.56805 0.06377 0.0
C534 C 0.80049 0.5564 0.06296 0.0
H535 H 0.94697 0.58589 0.04571 0.0
H536 H 0.90444 0.59373 0.05369 0.0
H537 H 0.81884 0.50123 0.02814 0.0
H538 H 0.70325 0.53228 0.05918 0.0
H539 H 0.74013 0.51229 0.06125 0.0
C540 C 0.92023 0.8202 0.35074 0.0
C541 C 0.9025 0.81242 0.3284 0.0
C542 C 0.95084 0.83046 0.35003 0.0
C543 C 1.01881 0.86613 0.30618 0.0
H544 H 0.05252 0.83777 0.3614 0.0
C545 C 0.14988 0.91871 0.31412 0.0
C546 C 0.15907 0.89473 0.32476 0.0
C547 C 0.11941 0.90987 0.31406 0.0
C548 C 0.0439 0.8461 0.34556 0.0
H549 H 0.90577 0.81062 0.28734 0.0
H550 H 0.9583 0.82853 0.28611 0.0
H551 H 1.00029 0.82017 0.36197 0.0
H552 H 0.14121 0.84204 0.34401 0.0
H553 H 0.08981 0.82744 0.34425 0.0
H554 H 0.06267 0.8922 0.28986 0.0
C555 C 0.94843 0.82662 0.30452 0.0
C556 C 1.01335 0.83609 0.34603 0.0
C557 C 0.91763 0.81579 0.30524 0.0
C558 C 0.13602 0.86181 0.33552 0.0
C559 C 0.1059 0.85332 0.33582 0.0
C560 C 0.04957 0.87666 0.3059 0.0
C561 C 0.96609 0.8342 0.32691 0.0
C562 C 0.99965 0.84555 0.32631 0.0
C563 C 0.09642 0.87689 0.32506 0.0
C564 C 0.06312 0.86674 0.32552 0.0
H565 H 0.91037 0.81795 0.36919 0.0
H566 H 0.96272 0.83605 0.36796 0.0
H567 H 1.01016 0.87472 0.29051 0.0
H568 H 0.16622 0.94433 0.30554 0.0
H569 H 0.11399 0.92943 0.3056 0.0
C570 C 0.18204 0.30684 0.36367 0.0
C571 C 0.15599 0.30617 0.3713 0.0
C572 C 0.18807 0.27932 0.3714 0.0
C573 C 0.15383 0.18412 0.39483 0.0
H574 H 0.2362 0.21394 0.40751 0.0
C575 C 0.20085 0.08845 0.37566 0.0
C576 C 0.22684 0.09456 0.3881 0.0
C577 C 0.1884 0.11055 0.38142 0.0
C578 C 0.21296 0.20492 0.40471 0.0
H579 H 0.11552 0.27586 0.39275 0.0
H580 H 0.12625 0.22756 0.40652 0.0
H581 H 0.22198 0.26092 0.40275 0.0
H582 H 0.25892 0.12638 0.41768 0.0
H583 H 0.23668 0.16457 0.42836 0.0
H584 H 0.14484 0.12801 0.39686 0.0
C585 C 0.14187 0.24935 0.39437 0.0
C586 C 0.20489 0.23198 0.40153 0.0
C587 C 0.13571 0.27692 0.38645 0.0
C588 C 0.23908 0.12154 0.4076 0.0
C589 C 0.22637 0.14338 0.41363 0.0
C590 C 0.16186 0.15694 0.39834 0.0
C591 C 0.16835 0.25062 0.38718 0.0
C592 C 0.17552 0.2219 0.39535 0.0
C593 C 0.20151 0.13907 0.39993 0.0
C594 C 0.19174 0.16706 0.40217 0.0
H595 H 0.19798 0.32879 0.35178 0.0
H596 H 0.20823 0.2805 0.36485 0.0
H597 H 0.13097 0.17544 0.39026 0.0
H598 H 0.19113 0.06806 0.36036 0.0
H599 H 0.16961 0.10673 0.37013 0.0
C600 C 0.94199 0.17164 0.36215 0.0
C601 C 0.96136 0.18288 0.34143 0.0
C602 C 0.91806 0.13536 0.36309 0.0
C603 C 0.89021 0.04058 0.3374 0.0
H604 H 0.81284 1.02746 0.35285 0.0
C605 C 0.78285 0.89965 0.3225 0.0
C606 C 0.7606 0.88943 0.3408 0.0
C607 C 0.80762 0.93535 0.32292 0.0
C608 C 0.83433 0.03052 0.34884 0.0
H609 H 0.97164 0.16471 0.30599 0.0
H610 H 0.92995 0.10147 0.30764 0.0
H611 H 0.85608 0.08954 0.35417 0.0
H612 H 0.74712 0.9086 0.37405 0.0
H613 H 0.79038 0.97033 0.37504 0.0
H614 H 0.86859 0.98158 0.33226 0.0
C615 C 0.93315 0.12063 0.32311 0.0
C616 C 0.85909 0.06613 0.3496 0.0
C617 C 0.95685 0.15691 0.32205 0.0
C618 C 0.76369 0.91563 0.35951 0.0
C619 C 0.78848 0.95117 0.36001 0.0
C620 C 0.86547 1.00491 0.33682 0.0
C621 C 0.91331 0.10957 0.34348 0.0
C622 C 0.88727 0.07155 0.34377 0.0
C623 C 0.81077 0.96152 0.34174 0.0
C624 C 0.83718 0.99944 0.34242 0.0
H625 H 0.94493 0.19113 0.3773 0.0
H626 H 0.90325 0.12748 0.37914 0.0
H627 H 0.91172 0.0439 0.33308 0.0
H628 H 0.78116 0.8801 0.30785 0.0
H629 H 0.82417 0.94252 0.30834 0.0
C630 C 0.23821 0.70139 0.23523 0.0
C631 C 0.25987 0.7329 0.24848 0.0
C632 C 0.2411 0.66983 0.23337 0.0
C633 C 0.26192 0.64291 0.28797 0.0
H634 H 0.20763 0.54512 0.2607 0.0
C635 C 0.18967 0.51905 0.35262 0.0
C636 C 0.16148 0.49289 0.34318 0.0
C637 C 0.2098 0.54732 0.33713 0.0
C638 C 0.22272 0.57228 0.2686 0.0
H639 H 0.30529 0.76054 0.26224 0.0
H640 H 0.3098 0.70498 0.2598 0.0
H641 H 0.23651 0.59566 0.23161 0.0
H642 H 0.13077 0.47917 0.31148 0.0
H643 H 0.16502 0.53041 0.28524 0.0
H644 H 0.24623 0.62094 0.32467 0.0
C645 C 0.29029 0.704 0.25159 0.0
C646 C 0.23973 0.60099 0.25194 0.0
C647 C 0.28755 0.73576 0.25327 0.0
C648 C 0.15251 0.4985 0.31918 0.0
C649 C 0.17239 0.52742 0.30392 0.0
C650 C 0.24469 0.6144 0.30453 0.0
C651 C 0.26521 0.66968 0.24544 0.0
C652 C 0.25814 0.63717 0.26141 0.0
C653 C 0.20176 0.55093 0.31221 0.0
C654 C 0.2237 0.57927 0.29497 0.0
H655 H 0.21696 0.6986 0.23031 0.0
H656 H 0.22181 0.64411 0.2273 0.0
H657 H 0.27561 0.67045 0.2961 0.0
H658 H 0.19713 0.51609 0.37127 0.0
H659 H 0.23208 0.56512 0.34434 0.0
C660 C 0.38444 0.52784 0.38533 0.0
C661 C 0.36564 0.52232 0.36425 0.0
C662 C 0.41545 0.54406 0.38266 0.0
C663 C 0.47845 0.60001 0.33717 0.0
H664 H 0.52293 0.57275 0.38279 0.0
C665 C 0.60636 0.66304 0.325 0.0
C666 C 0.62413 0.67418 0.34726 0.0
C667 C 0.57519 0.64031 0.32609 0.0
C668 C 0.51109 0.5811 0.36991 0.0
H669 H 0.36612 0.52976 0.32345 0.0
H670 H 0.41952 0.55745 0.31878 0.0
H671 H 0.46931 0.54329 0.38662 0.0
H672 H 0.6221 0.66888 0.38817 0.0
H673 H 0.56853 0.62839 0.39012 0.0
H674 H 0.52027 0.63789 0.32052 0.0
C675 C 0.41042 0.5499 0.33767 0.0
C676 C 0.47996 0.56409 0.37217 0.0
C677 C 0.37939 0.53378 0.34035 0.0
C678 C 0.60962 0.65967 0.37046 0.0
C679 C 0.57851 0.63676 0.37158 0.0
C680 C 0.50956 0.61691 0.33486 0.0
C681 C 0.42925 0.5555 0.35876 0.0
C682 C 0.46286 0.57328 0.35596 0.0
C683 C 0.56044 0.62783 0.34954 0.0
C684 C 0.52667 0.60802 0.35125 0.0
H685 H 0.37531 0.52033 0.40422 0.0
H686 H 0.42865 0.54826 0.39965 0.0
H687 H 0.46676 0.60878 0.32446 0.0
H688 H 0.61627 0.67476 0.30688 0.0
H689 H 0.56257 0.63386 0.30851 0.0
C690 C 0.35869 0.93737 0.34566 0.0
C691 C 0.33229 0.9104 0.33342 0.0
C692 C 0.38388 0.93231 0.34794 0.0
C693 C 0.40486 0.856 0.34343 0.0
H694 H 0.4859 0.93669 0.34277 0.0
C695 C 0.50394 0.82769 0.36064 0.0
C696 C 0.53168 0.85 0.34901 0.0
C697 C 0.4808 0.83636 0.3594 0.0
C698 C 0.46348 0.91351 0.34283 0.0
H699 H 0.31347 0.85741 0.3131 0.0
H700 H 0.35599 0.84926 0.31678 0.0
H701 H 0.44505 0.94986 0.33941 0.0
H702 H 0.55561 0.90021 0.32702 0.0
H703 H 0.5156 0.9146 0.3244 0.0
H704 H 0.42288 0.81953 0.34631 0.0
C705 C 0.35749 0.87396 0.32539 0.0
C706 C 0.43975 0.92125 0.34118 0.0
C707 C 0.33271 0.87896 0.3231 0.0
C708 C 0.53489 0.88158 0.33608 0.0
C709 C 0.51171 0.89029 0.33486 0.0
C710 C 0.42846 0.8483 0.34515 0.0
C711 C 0.38365 0.90003 0.33819 0.0
C712 C 0.40976 0.89262 0.3412 0.0
C713 C 0.48395 0.86787 0.34643 0.0
C714 C 0.45847 0.87674 0.3448 0.0
H715 H 0.35974 0.962 0.35394 0.0
H716 H 0.40331 0.95339 0.35796 0.0
H717 H 0.3825 0.83275 0.34403 0.0
H718 H 0.49971 0.80289 0.37062 0.0
H719 H 0.46037 0.81822 0.36903 0.0
C720 C 0.72901 0.30626 0.64773 0.0
C721 C 0.74553 0.29841 0.66521 0.0
C722 C 0.7024 0.30395 0.65513 0.0
C723 C 0.64036 0.24719 0.66529 0.0
H724 H 0.61238 0.23623 0.7347 0.0
C725 C 0.55184 0.10963 0.69881 0.0
C726 C 0.52526 0.10776 0.70613 0.0
C727 C 0.57768 0.1439 0.69737 0.0
C728 C 0.6198 0.23958 0.71518 0.0
H729 H 0.74983 0.28785 0.70488 0.0
H730 H 0.70331 0.28213 0.71745 0.0
H731 H 0.66128 0.28822 0.7241 0.0
H732 H 0.50554 0.14002 0.72005 0.0
H733 H 0.55119 0.19993 0.718 0.0
H734 H 0.59969 0.19761 0.65671 0.0
C735 C 0.71057 0.29066 0.69818 0.0
C736 C 0.64771 0.26922 0.70907 0.0
C737 C 0.73738 0.29371 0.69091 0.0
C738 C 0.52572 0.14048 0.71447 0.0
C739 C 0.55172 0.17483 0.71316 0.0
C740 C 0.61269 0.21784 0.6714 0.0
C741 C 0.69154 0.2924 0.67984 0.0
C742 C 0.6591 0.27184 0.68439 0.0
C743 C 0.57742 0.17677 0.70343 0.0
C744 C 0.60307 0.21259 0.69663 0.0
H745 H 0.73531 0.31095 0.62791 0.0
H746 H 0.68882 0.30701 0.64076 0.0
H747 H 0.64803 0.24788 0.64608 0.0
H748 H 0.55223 0.08489 0.69264 0.0
H749 H 0.59757 0.14493 0.6902 0.0
C750 C 0.90491 0.39927 0.69788 0.0
C751 C 0.89412 0.37185 0.67809 0.0
C752 C 0.89763 0.4287 0.69918 0.0
C753 C 0.84556 0.46214 0.66837 0.0
H754 H 0.89236 0.55125 0.70859 0.0
C755 C 0.81078 0.58155 0.67552 0.0
C756 C 0.83126 0.61836 0.68386 0.0
C757 C 0.81786 0.552 0.67528 0.0
C758 C 0.87872 0.527 0.69688 0.0
H759 H 0.86636 0.35649 0.64418 0.0
H760 H 0.85454 0.4059 0.64615 0.0
H761 H 0.90561 0.50266 0.70732 0.0
H762 H 0.8762 0.65049 0.69842 0.0
H763 H 0.88828 0.60098 0.69778 0.0
H764 H 0.81892 0.48656 0.65762 0.0
C765 C 0.86844 0.40519 0.6612 0.0
C766 C 0.88641 0.49808 0.69638 0.0
C767 C 0.8757 0.37615 0.6599 0.0
C768 C 0.85917 0.62328 0.69189 0.0
C769 C 0.86623 0.59395 0.69164 0.0
C770 C 0.83787 0.49101 0.66888 0.0
C771 C 0.8789 0.43269 0.6809 0.0
C772 C 0.87026 0.46446 0.68199 0.0
C773 C 0.84595 0.55698 0.68335 0.0
C774 C 0.85417 0.52481 0.68306 0.0
H775 H 0.91877 0.39784 0.71272 0.0
H776 H 0.90651 0.44807 0.71506 0.0
H777 H 0.83147 0.4375 0.65716 0.0
H778 H 0.78898 0.57532 0.6691 0.0
H779 H 0.80075 0.52485 0.66885 0.0
C780 C 0.64732 0.46688 0.68794 0.0
C781 C 0.64417 0.49175 0.67187 0.0
C782 C 0.62669 0.42853 0.68716 0.0
C783 C 0.56679 0.35477 0.64583 0.0
H784 H 0.54222 0.2979 0.70784 0.0
C785 C 0.45978 0.21223 0.65003 0.0
C786 C 0.45825 0.18397 0.66563 0.0
C787 C 0.48482 0.24774 0.65017 0.0
C788 C 0.54911 0.31314 0.69026 0.0
H789 H 0.6165 0.49465 0.64201 0.0
H790 H 0.58056 0.42867 0.64109 0.0
H791 H 0.58051 0.36344 0.70966 0.0
H792 H 0.48265 0.17123 0.69337 0.0
H793 H 0.52679 0.23361 0.6936 0.0
H794 H 0.53518 0.30479 0.62646 0.0
C795 C 0.59916 0.43859 0.65418 0.0
C796 C 0.57115 0.35093 0.69129 0.0
C797 C 0.6197 0.47683 0.65498 0.0
C798 C 0.4831 0.19213 0.68094 0.0
C799 C 0.50828 0.22807 0.68127 0.0
C800 C 0.5448 0.31714 0.64481 0.0
C801 C 0.60226 0.41367 0.6702 0.0
C802 C 0.58002 0.37261 0.66913 0.0
C803 C 0.50937 0.25659 0.66604 0.0
C804 C 0.53515 0.29578 0.66704 0.0
H805 H 0.66558 0.47705 0.70141 0.0
H806 H 0.63015 0.41048 0.69969 0.0
H807 H 0.57339 0.36991 0.6282 0.0
H808 H 0.44116 0.20719 0.63799 0.0
H809 H 0.48441 0.26874 0.6384 0.0
C810 C 0.80255 0.83746 0.67421 0.0
C811 C 0.82415 0.82822 0.68252 0.0
C812 C 0.80854 0.87558 0.6731 0.0
C813 C 0.86858 0.97878 0.69284 0.0
H814 H 0.82131 1.00691 0.65194 0.0
C815 C 0.90385 0.14115 0.68255 0.0
C816 C 0.88333 0.15223 0.67437 0.0
C817 C 0.89654 0.10269 0.68342 0.0
C818 C 0.83506 1.00038 0.66383 0.0
H819 H 0.86982 0.85597 0.69605 0.0
H820 H 0.87973 0.91889 0.6939 0.0
H821 H 0.8086 0.94188 0.65379 0.0
H822 H 0.83802 0.12773 0.6607 0.0
H823 H 0.82562 0.06296 0.66224 0.0
H824 H 0.89497 0.037 0.70296 0.0
C825 C 0.85769 0.89737 0.68851 0.0
C826 C 0.82751 0.96188 0.66488 0.0
C827 C 0.8518 0.85988 0.68957 0.0
C828 C 0.85511 0.12196 0.66708 0.0
C829 C 0.84785 0.08371 0.66788 0.0
C830 C 0.87613 1.01716 0.69175 0.0
C831 C 0.83648 0.90716 0.6803 0.0
C832 C 0.84403 0.94939 0.67936 0.0
C833 C 0.86816 0.07227 0.67613 0.0
C834 C 0.85978 0.02975 0.67718 0.0
H835 H 0.78092 0.81528 0.6683 0.0
H836 H 0.79082 0.88006 0.66664 0.0
H837 H 0.88228 0.97243 0.7049 0.0
H838 H 0.92586 0.16235 0.68849 0.0
H839 H 0.91371 0.0971 0.68974 0.0
C840 C 0.05234 0.87686 0.70991 0.0
C841 C 0.03516 0.8653 0.68738 0.0
C842 C 0.08325 0.89303 0.7092 0.0
C843 C 0.14801 0.93567 0.66496 0.0
H844 H 0.18756 0.9169 0.72075 0.0
C845 C 0.274 0.98408 0.6643 0.0
C846 C 0.28948 1.00492 0.68601 0.0
C847 C 0.24288 0.96381 0.66396 0.0
C848 C 0.17684 0.9224 0.70502 0.0
H849 H 0.03788 0.86336 0.64621 0.0
H850 H 0.09122 0.88971 0.64506 0.0
H851 H 0.13389 0.88934 0.72094 0.0
H852 H 0.2846 1.0195 0.7247 0.0
H853 H 0.23061 0.98317 0.72444 0.0
H854 H 0.19122 0.96825 0.64895 0.0
C855 C 0.08093 0.88691 0.66338 0.0
C856 C 0.14599 0.90686 0.7052 0.0
C857 C 0.05006 0.87119 0.66407 0.0
C858 C 0.2733 1.0035 0.70775 0.0
C859 C 0.24235 0.98269 0.7076 0.0
C860 C 0.17885 0.95075 0.66463 0.0
C861 C 0.09806 0.8978 0.68596 0.0
C862 C 0.13105 0.91361 0.68534 0.0
C863 C 0.22669 0.96335 0.68552 0.0
C864 C 0.19367 0.94466 0.6848 0.0
H865 H 0.04194 0.87254 0.72831 0.0
H866 H 0.09547 0.90169 0.72703 0.0
H867 H 0.13765 0.94216 0.64947 0.0
H868 H 0.28583 0.9851 0.64714 0.0
H869 H 0.23144 0.94902 0.6467 0.0
C870 C 0.22966 0.17633 0.72524 0.0
C871 C 0.23892 0.17128 0.70117 0.0
C872 C 0.20616 0.18334 0.72747 0.0
C873 C 0.14236 0.1787 0.6926 0.0
H874 H 0.15406 0.25753 0.73979 0.0
C875 C 0.06939 0.24711 0.6906 0.0
C876 C 0.06088 0.25544 0.71402 0.0
C877 C 0.08997 0.23488 0.68973 0.0
C878 C 0.15025 0.23511 0.72678 0.0
H879 H 0.23027 0.16862 0.66059 0.0
H880 H 0.18923 0.18099 0.66445 0.0
H881 H 0.19136 0.23855 0.73698 0.0
H882 H 0.0672 0.25718 0.75493 0.0
H883 H 0.10327 0.23585 0.75342 0.0
H884 H 0.10138 0.17562 0.6822 0.0
C885 C 0.19996 0.17914 0.68164 0.0
C886 C 0.17162 0.2242 0.72517 0.0
C887 C 0.22346 0.17204 0.67941 0.0
C888 C 0.07356 0.25142 0.73657 0.0
C889 C 0.0942 0.23918 0.7357 0.0
C890 C 0.12098 0.18964 0.6942 0.0
C891 C 0.19138 0.18552 0.70568 0.0
C892 C 0.16801 0.19599 0.70797 0.0
C893 C 0.1026 0.23072 0.71226 0.0
C894 C 0.12477 0.21814 0.7112 0.0
H895 H 0.24082 0.17525 0.74239 0.0
H896 H 0.1997 0.18734 0.74629 0.0
H897 H 0.13872 0.15654 0.67941 0.0
H898 H 0.06045 0.25057 0.67284 0.0
H899 H 0.09639 0.2293 0.67134 0.0
C900 C 0.14503 0.38569 0.26551 0.0
C901 C 0.16213 0.41512 0.28272 0.0
C902 C 0.13947 0.39232 0.24051 0.0
C903 C 0.13486 0.46273 0.20049 0.0
H904 H 0.12957 0.39683 0.14539 0.0
C905 C 0.10118 0.4767 0.09528 0.0
C906 C 0.08389 0.44341 0.08139 0.0
C907 C 0.1133 0.47648 0.11942 0.0
C908 C 0.1305 0.41532 0.16051 0.0
H909 H 0.18804 0.47496 0.28611 0.0
H910 H 0.17788 0.48661 0.24227 0.0
H911 H 0.14678 0.39083 0.1872 0.0
H912 H 0.06524 0.38367 0.08288 0.0
H913 H 0.08558 0.38324 0.12427 0.0
H914 H 0.11796 0.48674 0.17376 0.0
C915 C 0.1686 0.45828 0.2485 0.0
C916 C 0.14056 0.41192 0.18465 0.0
C917 C 0.17459 0.4516 0.27359 0.0
C918 C 0.07871 0.41005 0.09261 0.0
C919 C 0.09067 0.40981 0.11653 0.0
C920 C 0.12458 0.46603 0.17626 0.0
C921 C 0.15057 0.4287 0.23165 0.0
C922 C 0.14246 0.43508 0.20523 0.0
C923 C 0.10849 0.44296 0.13036 0.0
C924 C 0.12166 0.44186 0.15592 0.0
H925 H 0.13496 0.35714 0.2716 0.0
H926 H 0.12534 0.36866 0.22842 0.0
H927 H 0.13578 0.481 0.21578 0.0
H928 H 0.1058 0.50299 0.08734 0.0
H929 H 0.12694 0.50271 0.12924 0.0
C930 C 0.63125 0.73876 0.26503 0.0
C931 C 0.66189 0.75285 0.26878 0.0
C932 C 0.61731 0.72282 0.24143 0.0
C933 C 0.63116 0.71977 0.17194 0.0
H934 H 0.55868 0.62453 0.17124 0.0
C935 C 0.56478 0.64885 0.07742 0.0
C936 C 0.55761 0.61159 0.07367 0.0
C937 C 0.57516 0.6669 0.10134 0.0
C938 C 0.57885 0.65121 0.17101 0.0
H939 H 0.70171 0.76155 0.24987 0.0
H940 H 0.67774 0.73519 0.20872 0.0
H941 H 0.58173 0.6549 0.21193 0.0
H942 H 0.55505 0.56415 0.09271 0.0
H943 H 0.5714 0.5947 0.13443 0.0
H944 H 0.62818 0.71616 0.131 0.0
C945 C 0.66436 0.73612 0.22413 0.0
C946 C 0.59204 0.6688 0.19444 0.0
C947 C 0.67816 0.75125 0.24787 0.0
C948 C 0.55973 0.59256 0.09491 0.0
C949 C 0.56935 0.61024 0.1189 0.0
C950 C 0.61761 0.70257 0.1485 0.0
C951 C 0.63361 0.72115 0.22053 0.0
C952 C 0.61865 0.7032 0.19537 0.0
C953 C 0.57806 0.64804 0.12243 0.0
C954 C 0.59138 0.66775 0.14758 0.0
H955 H 0.61777 0.73896 0.28062 0.0
H956 H 0.59366 0.71183 0.23952 0.0
H957 H 0.6515 0.74627 0.1717 0.0
H958 H 0.56408 0.66476 0.06151 0.0
H959 H 0.58144 0.69592 0.10322 0.0
C960 C 0.43681 0.98599 0.09023 0.0
C961 C 0.46275 1.02112 0.08903 0.0
C962 C 0.41795 0.97539 0.1113 0.0
C963 C 0.39873 1.01331 0.16957 0.0
H964 H 0.3488 0.90856 0.18312 0.0
C965 C 0.30134 0.9633 0.24179 0.0
C966 C 0.29178 0.93018 0.25535 0.0
C967 C 0.3221 0.97357 0.22202 0.0
C968 C 0.36259 0.93804 0.18006 0.0
H969 H 0.48896 0.0723 0.11035 0.0
H970 H 0.45654 0.05344 0.14771 0.0
H971 H 0.38624 0.9281 0.15063 0.0
H972 H 0.29725 0.88197 0.25825 0.0
H973 H 0.33375 0.89993 0.22441 0.0
H974 H 0.376 1.0233 0.19988 0.0
C975 C 0.45046 0.03415 0.13181 0.0
C976 C 0.3841 0.94944 0.1608 0.0
C977 C 0.46946 0.04496 0.1104 0.0
C978 C 0.30344 0.90728 0.24802 0.0
C979 C 0.32465 0.91785 0.22844 0.0
C980 C 0.37741 1.00192 0.18907 0.0
C981 C 0.42406 0.99914 0.1326 0.0
C982 C 0.40241 0.98732 0.15477 0.0
C983 C 0.33482 0.95156 0.21516 0.0
C984 C 0.35851 0.96394 0.19459 0.0
H985 H 0.43036 0.96651 0.07438 0.0
H986 H 0.39791 0.94865 0.1103 0.0
H987 H 0.41191 0.04269 0.16584 0.0
H988 H 0.29306 0.98186 0.24675 0.0
H989 H 0.32818 0.99911 0.2122 0.0
C990 C 0.50491 0.0564 0.92106 0.0
C991 C 0.51561 0.08313 0.9409 0.0
C992 C 0.49532 0.06317 0.8978 0.0
C993 C 0.49423 0.13258 0.85453 0.0
H994 H 0.41683 0.05062 0.836 0.0
C995 C 0.42607 0.13454 0.76441 0.0
C996 C 0.40931 0.10049 0.75118 0.0
C997 C 0.44013 0.13621 0.78796 0.0
C998 C 0.43863 0.07369 0.84044 0.0
H999 H 0.52602 0.1391 0.95094 0.0
H1000 H 0.50992 0.15144 0.90975 0.0
H1001 H 0.44138 0.04751 0.87443 0.0
H1002 H 0.39439 0.04154 0.75297 0.0
H1003 H 0.41901 0.04456 0.79256 0.0
H1004 H 0.49162 0.15833 0.81997 0.0
C1005 C 0.50898 0.12504 0.91241 0.0
C1006 C 0.45274 0.07191 0.86275 0.0
C1007 C 0.51855 0.11813 0.93597 0.0
C1008 C 0.40697 0.06842 0.76231 0.0
C1009 C 0.42101 0.07009 0.78547 0.0
C1010 C 0.48017 0.13419 0.83184 0.0
C1011 C 0.49605 0.097 0.8934 0.0
C1012 C 0.48096 0.10096 0.87002 0.0
C1013 C 0.43775 0.10386 0.79894 0.0
C1014 C 0.45229 0.10438 0.82414 0.0
H1015 H 0.50213 0.02907 0.92413 0.0
H1016 H 0.48611 0.04114 0.88353 0.0
H1017 H 0.51589 0.15556 0.85951 0.0
H1018 H 0.42863 0.15993 0.75647 0.0
H1019 H 0.45263 0.16283 0.79762 0.0
C1020 C 1.00597 0.37954 0.92242 0.0
C1021 C 1.00629 0.40911 0.93619 0.0
C1022 C 0.98839 0.36446 0.90038 0.0
C1023 C 0.95303 0.38313 0.84633 0.0
H1024 H 0.90265 0.27627 0.84274 0.0
C1025 C 0.88399 0.30859 0.75344 0.0
C1026 C 0.88062 0.27354 0.74728 0.0
C1027 C 0.89544 0.3256 0.77753 0.0
C1028 C 0.91688 0.30611 0.84293 0.0
H1029 H 0.98814 0.44611 0.93682 0.0
H1030 H 0.95823 0.4206 0.89755 0.0
H1031 H 0.93132 0.30547 0.8812 0.0
H1032 H 0.88591 0.22879 0.76224 0.0
H1033 H 0.90583 0.2578 0.8031 0.0
H1034 H 0.93989 0.38378 0.8076 0.0
C1035 C 0.97151 0.4089 0.90423 0.0
C1036 C 0.93323 0.32294 0.86533 0.0
C1037 C 0.98863 0.42348 0.9268 0.0
C1038 C 0.8877 0.2555 0.7663 0.0
C1039 C 0.89923 0.27241 0.79006 0.0
C1040 C 0.9371 0.36618 0.8236 0.0
C1041 C 0.97088 0.37882 0.89085 0.0
C1042 C 0.95186 0.36165 0.86735 0.0
C1043 C 0.90398 0.30817 0.79617 0.0
C1044 C 0.91902 0.32716 0.82124 0.0
H1045 H 1.01894 0.36733 0.92899 0.0
H1046 H 0.98866 0.3415 0.89062 0.0
H1047 H 0.9672 0.41301 0.8471 0.0
H1048 H 0.87938 0.32378 0.73921 0.0
H1049 H 0.89816 0.35282 0.78126 0.0
C1050 C 0.77024 0.65958 0.76823 0.0
C1051 C 0.78825 0.69636 0.75994 0.0
C1052 C 0.75156 0.65123 0.78945 0.0
C1053 C 0.71092 0.68693 0.82927 0.0
H1054 H 0.70003 0.60841 0.87479 0.0
C1055 C 0.61672 0.62514 0.90777 0.0
C1056 C 0.62496 0.61807 0.93182 0.0
C1057 C 0.63611 0.63495 0.88664 0.0
C1058 C 0.70266 0.6305 0.8624 0.0
H1059 H 0.79995 0.75327 0.76815 0.0
H1060 H 0.76725 0.73882 0.8052 0.0
H1061 H 0.73558 0.62632 0.84031 0.0
H1062 H 0.66042 0.61523 0.95161 0.0
H1063 H 0.69316 0.63109 0.91537 0.0
H1064 H 0.6777 0.69081 0.85147 0.0
C1065 C 0.76784 0.71624 0.79521 0.0
C1066 C 0.72313 0.64071 0.84231 0.0
C1067 C 0.78707 0.7247 0.7741 0.0
C1068 C 0.65291 0.62029 0.93362 0.0
C1069 C 0.67189 0.62937 0.91258 0.0
C1070 C 0.69003 0.67629 0.84921 0.0
C1071 C 0.74945 0.67921 0.80321 0.0
C1072 C 0.72785 0.66923 0.8253 0.0
C1073 C 0.66418 0.63729 0.88864 0.0
C1074 C 0.68556 0.64794 0.86633 0.0
H1075 H 0.76996 0.63676 0.75777 0.0
H1076 H 0.73782 0.62238 0.79447 0.0
H1077 H 0.71342 0.70873 0.81665 0.0
H1078 H 0.59566 0.62417 0.90545 0.0
H1079 H 0.629 0.64052 0.86864 0.0
C1080 C 0.71748 0.7443 0.42787 0.0
C1081 C 0.71435 0.77512 0.42156 0.0
C1082 C 0.73051 0.74281 0.45099 0.0
C1083 C 0.75645 0.78711 0.5163 0.0
H1084 H 0.80221 0.73676 0.51262 0.0
C1085 C 0.82433 0.77923 0.60449 0.0
C1086 C 0.82249 0.74457 0.60841 0.0
C1087 C 0.81345 0.78642 0.58169 0.0
C1088 C 0.78937 0.7507 0.51427 0.0
H1089 H 0.72218 0.82842 0.43575 0.0
H1090 H 0.74515 0.82606 0.47628 0.0
H1091 H 0.77803 0.7421 0.47461 0.0
H1092 H 0.80806 0.69079 0.59083 0.0
H1093 H 0.79024 0.70343 0.5514 0.0
H1094 H 0.76823 0.79581 0.55619 0.0
C1095 C 0.73713 0.8026 0.46322 0.0
C1096 C 0.77521 0.75368 0.49223 0.0
C1097 C 0.72374 0.80396 0.43992 0.0
C1098 C 0.81054 0.71808 0.58843 0.0
C1099 C 0.80011 0.72538 0.56567 0.0
C1100 C 0.77081 0.78424 0.53845 0.0
C1101 C 0.7415 0.77233 0.46892 0.0
C1102 C 0.75795 0.77132 0.49276 0.0
C1103 C 0.8007 0.75936 0.56195 0.0
C1104 C 0.78719 0.76541 0.53796 0.0
H1105 H 0.71043 0.72133 0.41447 0.0
H1106 H 0.73225 0.71833 0.45458 0.0
H1107 H 0.74346 0.80085 0.51788 0.0
H1108 H 0.83255 0.8 0.61962 0.0
H1109 H 0.81463 0.81306 0.57973 0.0
C1110 C 0.26295 0.90314 0.42177 0.0
C1111 C 0.24861 0.91671 0.40602 0.0
C1112 C 0.27182 0.91717 0.44691 0.0
C1113 C 0.26304 0.9773 0.49762 0.0
H1114 H 0.33644 0.98799 0.52394 0.0
C1115 C 0.3099 0.04284 0.59886 0.0
C1116 C 0.34077 0.0614 0.6028 0.0
C1117 C 0.29717 1.02381 0.57566 0.0
C1118 C 0.31606 0.98583 0.5169 0.0
H1119 H 0.23177 0.95522 0.40515 0.0
H1120 H 0.24744 0.97965 0.44771 0.0
H1121 H 0.31707 0.95687 0.4832 0.0
H1122 H 0.38237 0.0757 0.58475 0.0
H1123 H 0.36071 0.04469 0.54444 0.0
H1124 H 0.26273 1.00776 0.53074 0.0
C1125 C 0.25153 0.95775 0.44132 0.0
C1126 C 0.30455 0.96713 0.49348 0.0
C1127 C 0.24261 0.94371 0.4165 0.0
C1128 C 0.3585 0.06164 0.58254 0.0
C1129 C 0.34591 0.04321 0.55936 0.0
C1130 C 0.2747 0.99633 0.52092 0.0
C1131 C 0.26668 0.94526 0.45702 0.0
C1132 C 0.27796 0.96283 0.48316 0.0
C1133 C 0.31495 1.02309 0.55556 0.0
C1134 C 0.30167 1.00141 0.53094 0.0
H1135 H 0.26821 0.88264 0.41444 0.0
H1136 H 0.28298 0.90617 0.45828 0.0
H1137 H 0.2422 0.97415 0.49095 0.0
H1138 H 0.29547 0.04148 0.61411 0.0
H1139 H 0.27328 1.00861 0.5739 0.0
C1140 C 0.9767 0.29459 0.60754 0.0
C1141 C 0.94669 0.28517 0.60497 0.0
C1142 C 0.99591 0.30538 0.58667 0.0
C1143 C 0.99907 0.30604 0.51492 0.0
H1144 H 0.08174 0.37827 0.52753 0.0
C1145 C 0.08722 0.33775 0.43662 0.0
C1146 C 0.11127 0.37408 0.43379 0.0
C1147 C 0.0683 0.3278 0.45769 0.0
C1148 C 0.05878 0.35827 0.5234 0.0
H1149 H 0.91374 0.27928 0.57722 0.0
H1150 H 0.94729 0.29817 0.54055 0.0
H1151 H 0.04633 0.35995 0.56208 0.0
H1152 H 0.13408 0.42839 0.45183 0.0
H1153 H 0.10125 0.41117 0.48892 0.0
H1154 H 1.0114 0.30498 0.47611 0.0
C1155 C 0.95593 0.29699 0.55908 0.0
C1156 C 0.03826 0.34724 0.54352 0.0
C1157 C 0.93649 0.28603 0.5802 0.0
C1158 C 0.11635 0.39995 0.4535 0.0
C1159 C 0.09718 0.38997 0.47476 0.0
C1160 C 1.01961 0.31702 0.49481 0.0
C1161 C 0.98626 0.3075 0.56198 0.0
C1162 C 1.00795 0.32056 0.53984 0.0
C1163 C 0.07224 0.35384 0.47695 0.0
C1164 C 0.05004 0.34312 0.49862 0.0
H1165 H 0.98575 0.29398 0.62602 0.0
H1166 H 1.01854 0.31193 0.59005 0.0
H1167 H 0.97623 0.28545 0.51093 0.0
H1168 H 0.08232 0.31699 0.42185 0.0
H1169 H 0.05019 0.2995 0.45859 0.0
loop_
_geom_bond_atom_site_label_1
_geom_bond_atom_site_label_2
_geom_bond_distance
_geom_bond_site_symmetry_2
_ccdc_geom_bond_type
Tb0 C9 2.764 . S
Tb0 O10 2.325 1_554 S
Tb0 O13 2.301 . S
Tb0 O17 2.322 1_455 S
Tb0 O18 2.352 1_554 S
Tb0 O21 2.414 . S
Tb0 O22 2.400 1_554 S
Tb1 O11 2.322 1_655 S
Tb1 O12 2.349 . S
Tb1 O14 2.415 1_554 S
Tb1 O15 2.399 . S
Tb1 O16 2.325 . S
Tb1 O19 2.303 1_554 S
Tb1 C30 2.764 . S
C2 O18 1.261 1_655 S
C2 O19 1.257 . S
C3 C6 1.325 1_554 S
C3 C7 1.363 . S
C3 C9 1.504 . S
C4 C5 1.373 1_554 S
C4 C8 1.308 . S
C5 C4 1.373 1_556 S
C5 C6 1.429 . S
C5 H32 0.932 . S
C6 C3 1.325 1_556 S
C6 C5 1.429 . S
C6 H33 0.930 . S
C7 C3 1.363 . S
C7 C8 1.394 . S
C7 H34 0.932 . S
C8 C4 1.308 . S
C8 C7 1.394 . S
C8 H35 0.929 . S
C9 Tb0 2.764 . S
C9 C3 1.504 . S
C9 O21 1.247 . S
C9 O22 1.255 1_554 S
O10 Tb0 2.325 1_556 S
O10 C20 1.236 1_556 S
O11 Tb1 2.322 1_455 S
O11 C20 1.257 . S
O12 Tb1 2.349 . S
O12 C23 1.261 1_655 S
O13 Tb0 2.301 . S
O13 C23 1.257 . S
O14 Tb1 2.415 1_556 S
O14 C30 1.239 1_556 S
O15 Tb1 2.399 . S
O15 C30 1.263 . S
O16 Tb1 2.325 . S
O16 C31 1.236 . S
O17 Tb0 2.322 1_655 S
O17 C31 1.257 . S
O18 Tb0 2.352 1_556 S
O18 C2 1.261 1_455 S
O19 Tb1 2.303 1_556 S
O19 C2 1.257 . S
C20 O10 1.236 1_554 S
C20 O11 1.257 . S
O21 Tb0 2.414 . S
O21 C9 1.247 . S
O22 Tb0 2.400 1_556 S
O22 C9 1.255 1_556 S
C23 O12 1.261 1_455 S
C23 O13 1.257 . S
C24 C27 1.358 . S
C24 C28 1.332 1_554 S
C24 C30 1.504 . S
C25 C26 1.373 . S
C25 C29 1.308 1_554 S
C26 C25 1.373 . S
C26 C27 1.429 . S
C26 H36 0.932 . S
C27 C24 1.358 . S
C27 C26 1.429 . S
C27 H37 0.930 . S
C28 C24 1.332 1_556 S
C28 C29 1.394 . S
C28 H38 0.932 . S
C29 C25 1.308 1_556 S
C29 C28 1.394 . S
C29 H39 0.929 . S
C30 Tb1 2.764 . S
C30 O14 1.239 1_554 S
C30 O15 1.263 . S
C30 C24 1.504 . S
C31 O16 1.236 . S
C31 O17 1.257 . S
H32 C5 0.932 . S
H33 C6 0.930 . S
H34 C7 0.932 . S
H35 C8 0.929 . S
H36 C26 0.932 . S
H37 C27 0.930 . S
H38 C28 0.932 . S
H39 C29 0.929 . S
Tb40 C49 2.764 . S
Tb40 O50 2.325 . S
Tb40 O53 2.303 1_554 S
Tb40 O57 2.322 . S
Tb40 O58 2.349 . S
Tb40 O61 2.415 1_554 S
Tb40 O62 2.399 . S
Tb41 O51 2.322 . S
Tb41 O52 2.349 . S
Tb41 O54 2.415 1_556 S
Tb41 O55 2.399 . S
Tb41 O56 2.325 . S
Tb41 O59 2.303 1_556 S
Tb41 C70 2.764 . S
C42 O58 1.261 . S
C42 O59 1.257 . S
C43 C46 1.358 . S
C43 C47 1.332 1_554 S
C43 C49 1.504 . S
C44 C45 1.373 . S
C44 C48 1.308 1_554 S
C45 C44 1.373 . S
C45 C46 1.429 . S
C45 H72 0.932 . S
C46 C43 1.358 . S
C46 C45 1.429 . S
C46 H73 0.930 . S
C47 C43 1.332 1_556 S
C47 C48 1.394 . S
C47 H74 0.932 . S
C48 C44 1.308 1_556 S
C48 C47 1.394 . S
C48 H75 0.929 . S
C49 Tb40 2.764 . S
C49 C43 1.504 . S
C49 O61 1.239 1_554 S
C49 O62 1.263 . S
O50 Tb40 2.325 . S
O50 C60 1.236 . S
O51 Tb41 2.322 . S
O51 C60 1.257 1_556 S
O52 Tb41 2.349 . S
O52 C63 1.261 . S
O53 Tb40 2.303 1_556 S
O53 C63 1.257 . S
O54 Tb41 2.415 1_554 S
O54 C70 1.239 1_554 S
O55 Tb41 2.399 . S
O55 C70 1.263 . S
O56 Tb41 2.325 . S
O56 C71 1.236 . S
O57 Tb40 2.322 . S
O57 C71 1.257 1_554 S
O58 Tb40 2.349 . S
O58 C42 1.261 . S
O59 Tb41 2.303 1_554 S
O59 C42 1.257 . S
C60 O50 1.236 . S
C60 O51 1.257 1_554 S
O61 Tb40 2.415 1_556 S
O61 C49 1.239 1_556 S
O62 Tb40 2.399 . S
O62 C49 1.263 . S
C63 O52 1.261 . S
C63 O53 1.257 . S
C64 C67 1.358 . S
C64 C68 1.332 1_556 S
C64 C70 1.504 . S
C65 C66 1.373 . S
C65 C69 1.308 1_556 S
C66 C65 1.373 . S
C66 C67 1.429 . S
C66 H76 0.932 . S
C67 C64 1.358 . S
C67 C66 1.429 . S
C67 H77 0.930 . S
C68 C64 1.332 1_554 S
C68 C69 1.394 . S
C68 H78 0.932 . S
C69 C65 1.308 1_554 S
C69 C68 1.394 . S
C69 H79 0.929 . S
C70 Tb41 2.764 . S
C70 O54 1.239 1_556 S
C70 O55 1.263 . S
C70 C64 1.504 . S
C71 O56 1.236 . S
C71 O57 1.257 1_556 S
H72 C45 0.932 . S
H73 C46 0.930 . S
H74 C47 0.932 . S
H75 C48 0.929 . S
H76 C66 0.932 . S
H77 C67 0.930 . S
H78 C68 0.932 . S
H79 C69 0.929 . S
Tb80 C89 2.763 . S
Tb80 O90 2.328 . S
Tb80 O93 2.283 1_556 S
Tb80 O97 2.321 1_566 S
Tb80 O98 2.373 . S
Tb80 O101 2.403 1_556 S
Tb80 O102 2.410 . S
Tb81 O91 2.322 1_545 S
Tb81 O92 2.349 . S
Tb81 O94 2.415 1_554 S
Tb81 O95 2.399 . S
Tb81 O96 2.325 . S
Tb81 O99 2.303 1_554 S
Tb81 C110 2.764 . S
C82 O98 1.261 1_545 S
C82 O99 1.257 . S
C83 C86 1.342 1_554 S
C83 C87 1.348 . S
C83 C89 1.502 1_554 S
C84 C85 1.373 1_554 S
C84 C88 1.308 . S
C85 C84 1.373 1_556 S
C85 C86 1.429 . S
C85 H112 0.932 . S
C86 C83 1.342 1_556 S
C86 C85 1.429 . S
C86 H113 0.930 . S
C87 C83 1.348 . S
C87 C88 1.394 . S
C87 H114 0.932 . S
C88 C84 1.308 . S
C88 C87 1.394 . S
C88 H115 0.929 . S
C89 Tb80 2.763 . S
C89 C83 1.502 1_556 S
C89 O101 1.234 1_556 S
C89 O102 1.267 . S
O90 Tb80 2.328 . S
O90 C100 1.236 1_556 S
O91 Tb81 2.322 1_565 S
O91 C100 1.257 . S
O92 Tb81 2.349 . S
O92 C103 1.261 1_545 S
O93 Tb80 2.283 1_554 S
O93 C103 1.257 . S
O94 Tb81 2.415 1_556 S
O94 C110 1.239 1_556 S
O95 Tb81 2.399 . S
O95 C110 1.263 . S
O96 Tb81 2.325 . S
O96 C111 1.236 . S
O97 Tb80 2.321 1_544 S
O97 C111 1.257 . S
O98 Tb80 2.373 . S
O98 C82 1.261 1_565 S
O99 Tb81 2.303 1_556 S
O99 C82 1.257 . S
C100 O90 1.236 1_554 S
C100 O91 1.257 . S
O101 Tb80 2.403 1_554 S
O101 C89 1.234 1_554 S
O102 Tb80 2.410 . S
O102 C89 1.267 . S
C103 O92 1.261 1_565 S
C103 O93 1.257 . S
C104 C107 1.358 . S
C104 C108 1.332 1_554 S
C104 C110 1.504 . S
C105 C106 1.373 . S
C105 C109 1.308 1_554 S
C106 C105 1.373 . S
C106 C107 1.429 . S
C106 H116 0.932 . S
C107 C104 1.358 . S
C107 C106 1.429 . S
C107 H117 0.930 . S
C108 C104 1.332 1_556 S
C108 C109 1.394 . S
C108 H118 0.932 . S
C109 C105 1.308 1_556 S
C109 C108 1.394 . S
C109 H119 0.929 . S
C110 Tb81 2.764 . S
C110 O94 1.239 1_554 S
C110 O95 1.263 . S
C110 C104 1.504 . S
C111 O96 1.236 . S
C111 O97 1.257 . S
H112 C85 0.932 . S
H113 C86 0.930 . S
H114 C87 0.932 . S
H115 C88 0.929 . S
H116 C106 0.932 . S
H117 C107 0.930 . S
H118 C108 0.932 . S
H119 C109 0.929 . S
Tb120 C129 2.764 . S
Tb120 O130 2.325 . S
Tb120 O133 2.303 . S
Tb120 O137 2.322 . S
Tb120 O138 2.349 . S
Tb120 O141 2.415 . S
Tb120 O142 2.399 . S
Tb121 O131 2.322 . S
Tb121 O132 2.349 . S
Tb121 O134 2.415 . S
Tb121 O135 2.399 . S
Tb121 O136 2.325 . S
Tb121 O139 2.303 . S
Tb121 C150 2.764 . S
C122 O138 1.261 . S
C122 O139 1.257 . S
C123 C126 1.358 . S
C123 C127 1.332 . S
C123 C129 1.504 . S
C124 C125 1.373 . S
C124 C128 1.308 . S
C125 C124 1.373 . S
C125 C126 1.429 . S
C125 H152 0.932 . S
C126 C123 1.358 . S
C126 C125 1.429 . S
C126 H153 0.930 . S
C127 C123 1.332 . S
C127 C128 1.394 . S
C127 H154 0.932 . S
C128 C124 1.308 . S
C128 C127 1.394 . S
C128 H155 0.929 . S
C129 Tb120 2.764 . S
C129 C123 1.504 . S
C129 O141 1.239 . S
C129 O142 1.263 . S
O130 Tb120 2.325 . S
O130 C140 1.236 . S
O131 Tb121 2.322 . S
O131 C140 1.257 . S
O132 Tb121 2.349 . S
O132 C143 1.261 . S
O133 Tb120 2.303 . S
O133 C143 1.257 . S
O134 Tb121 2.415 . S
O134 C150 1.239 . S
O135 Tb121 2.399 . S
O135 C150 1.263 . S
O136 Tb121 2.325 . S
O136 C151 1.236 . S
O137 Tb120 2.322 . S
O137 C151 1.257 . S
O138 Tb120 2.349 . S
O138 C122 1.261 . S
O139 Tb121 2.303 . S
O139 C122 1.257 . S
C140 O130 1.236 . S
C140 O131 1.257 . S
O141 Tb120 2.415 . S
O141 C129 1.239 . S
O142 Tb120 2.399 . S
O142 C129 1.263 . S
C143 O132 1.261 . S
C143 O133 1.257 . S
C144 C147 1.358 . S
C144 C148 1.332 . S
C144 C150 1.504 . S
C145 C146 1.373 . S
C145 C149 1.308 . S
C146 C145 1.373 . S
C146 C147 1.429 . S
C146 H156 0.932 . S
C147 C144 1.358 . S
C147 C146 1.429 . S
C147 H157 0.930 . S
C148 C144 1.332 . S
C148 C149 1.394 . S
C148 H158 0.932 . S
C149 C145 1.308 . S
C149 C148 1.394 . S
C149 H159 0.929 . S
C150 Tb121 2.764 . S
C150 O134 1.239 . S
C150 O135 1.263 . S
C150 C144 1.504 . S
C151 O136 1.236 . S
C151 O137 1.257 . S
H152 C125 0.932 . S
H153 C126 0.930 . S
H154 C127 0.932 . S
H155 C128 0.929 . S
H156 C146 0.932 . S
H157 C147 0.930 . S
H158 C148 0.932 . S
H159 C149 0.929 . S
Tb160 C169 2.764 . S
Tb160 O170 2.325 . S
Tb160 O173 2.303 . S
Tb160 O177 2.322 . S
Tb160 O178 2.349 . S
Tb160 O181 2.415 . S
Tb160 O182 2.399 . S
Tb161 O171 2.322 . S
Tb161 O172 2.349 . S
Tb161 O174 2.415 . S
Tb161 O175 2.399 . S
Tb161 O176 2.325 . S
Tb161 O179 2.303 . S
Tb161 C190 2.764 . S
C162 O178 1.261 . S
C162 O179 1.257 . S
C163 C166 1.358 . S
C163 C167 1.332 . S
C163 C169 1.504 1_545 S
C164 C165 1.373 . S
C164 C168 1.308 . S
C165 C164 1.373 . S
C165 C166 1.429 . S
C165 H192 0.932 . S
C166 C163 1.358 . S
C166 C165 1.429 . S
C166 H193 0.930 . S
C167 C163 1.332 . S
C167 C168 1.394 . S
C167 H194 0.932 . S
C168 C164 1.308 . S
C168 C167 1.394 . S
C168 H195 0.929 . S
C169 Tb160 2.764 . S
C169 C163 1.504 1_565 S
C169 O181 1.239 . S
C169 O182 1.263 . S
O170 Tb160 2.325 . S
O170 C180 1.236 . S
O171 Tb161 2.322 . S
O171 C180 1.257 . S
O172 Tb161 2.349 . S
O172 C183 1.261 . S
O173 Tb160 2.303 . S
O173 C183 1.257 . S
O174 Tb161 2.415 . S
O174 C190 1.239 . S
O175 Tb161 2.399 . S
O175 C190 1.263 . S
O176 Tb161 2.325 . S
O176 C191 1.236 . S
O177 Tb160 2.322 . S
O177 C191 1.257 . S
O178 Tb160 2.349 . S
O178 C162 1.261 . S
O179 Tb161 2.303 . S
O179 C162 1.257 . S
C180 O170 1.236 . S
C180 O171 1.257 . S
O181 Tb160 2.415 . S
O181 C169 1.239 . S
O182 Tb160 2.399 . S
O182 C169 1.263 . S
C183 O172 1.261 . S
C183 O173 1.257 . S
C184 C187 1.358 . S
C184 C188 1.332 . S
C184 C190 1.504 . S
C185 C186 1.373 . S
C185 C189 1.308 . S
C186 C185 1.373 . S
C186 C187 1.429 . S
C186 H196 0.932 . S
C187 C184 1.358 . S
C187 C186 1.429 . S
C187 H197 0.930 . S
C188 C184 1.332 . S
C188 C189 1.394 . S
C188 H198 0.932 . S
C189 C185 1.308 . S
C189 C188 1.394 . S
C189 H199 0.929 . S
C190 Tb161 2.764 . S
C190 O174 1.239 . S
C190 O175 1.263 . S
C190 C184 1.504 . S
C191 O176 1.236 . S
C191 O177 1.257 . S
H192 C165 0.932 . S
H193 C166 0.930 . S
H194 C167 0.932 . S
H195 C168 0.929 . S
H196 C186 0.932 . S
H197 C187 0.930 . S
H198 C188 0.932 . S
H199 C189 0.929 . S
Tb200 C209 2.764 . S
Tb200 O210 2.325 . S
Tb200 O213 2.303 . S
Tb200 O217 2.322 . S
Tb200 O218 2.349 . S
Tb200 O221 2.415 . S
Tb200 O222 2.399 . S
Tb201 O211 2.322 . S
Tb201 O212 2.349 . S
Tb201 O214 2.415 . S
Tb201 O215 2.399 . S
Tb201 O216 2.325 . S
Tb201 O219 2.303 . S
Tb201 C230 2.764 . S
C202 O218 1.261 . S
C202 O219 1.257 . S
C203 C206 1.358 1_455 S
C203 C207 1.332 . S
C203 C209 1.504 . S
C204 C205 1.373 . S
C204 C208 1.308 . S
C205 C204 1.373 . S
C205 C206 1.429 . S
C205 H232 0.932 . S
C206 C203 1.358 1_655 S
C206 C205 1.429 . S
C206 H233 0.930 . S
C207 C203 1.332 . S
C207 C208 1.394 1_455 S
C207 H234 0.932 . S
C208 C204 1.308 . S
C208 C207 1.394 1_655 S
C208 H235 0.929 . S
C209 Tb200 2.764 . S
C209 C203 1.504 . S
C209 O221 1.239 . S
C209 O222 1.263 . S
O210 Tb200 2.325 . S
O210 C220 1.236 . S
O211 Tb201 2.322 . S
O211 C220 1.257 . S
O212 Tb201 2.349 . S
O212 C223 1.261 . S
O213 Tb200 2.303 . S
O213 C223 1.257 . S
O214 Tb201 2.415 . S
O214 C230 1.239 . S
O215 Tb201 2.399 . S
O215 C230 1.263 . S
O216 Tb201 2.325 . S
O216 C231 1.236 . S
O217 Tb200 2.322 . S
O217 C231 1.257 . S
O218 Tb200 2.349 . S
O218 C202 1.261 . S
O219 Tb201 2.303 . S
O219 C202 1.257 . S
C220 O210 1.236 . S
C220 O211 1.257 . S
O221 Tb200 2.415 . S
O221 C209 1.239 . S
O222 Tb200 2.399 . S
O222 C209 1.263 . S
C223 O212 1.261 . S
C223 O213 1.257 . S
C224 C227 1.358 . S
C224 C228 1.332 . S
C224 C230 1.504 . S
C225 C226 1.373 . S
C225 C229 1.308 . S
C226 C225 1.373 . S
C226 C227 1.429 . S
C226 H236 0.932 . S
C227 C224 1.358 . S
C227 C226 1.429 . S
C227 H237 0.930 . S
C228 C224 1.332 . S
C228 C229 1.394 . S
C228 H238 0.932 . S
C229 C225 1.308 . S
C229 C228 1.394 . S
C229 H239 0.929 . S
C230 Tb201 2.764 . S
C230 O214 1.239 . S
C230 O215 1.263 . S
C230 C224 1.504 . S
C231 O216 1.236 . S
C231 O217 1.257 . S
H232 C205 0.932 . S
H233 C206 0.930 . S
H234 C207 0.932 . S
H235 C208 0.929 . S
H236 C226 0.932 . S
H237 C227 0.930 . S
H238 C228 0.932 . S
H239 C229 0.929 . S
Tb240 C249 2.764 . S
Tb240 O250 2.325 . S
Tb240 O253 2.303 . S
Tb240 O257 2.322 . S
Tb240 O258 2.349 . S
Tb240 O261 2.415 . S
Tb240 O262 2.399 . S
Tb241 O251 2.322 . S
Tb241 O252 2.349 . S
Tb241 O254 2.415 . S
Tb241 O255 2.399 . S
Tb241 O256 2.325 . S
Tb241 O259 2.303 . S
Tb241 C270 2.764 . S
C242 O258 1.261 . S
C242 O259 1.257 . S
C243 C246 1.358 . S
C243 C247 1.332 . S
C243 C249 1.504 . S
C244 C245 1.373 . S
C244 C248 1.308 . S
C245 C244 1.373 . S
C245 C246 1.429 . S
C245 H272 0.932 . S
C246 C243 1.358 . S
C246 C245 1.429 . S
C246 H273 0.930 . S
C247 C243 1.332 . S
C247 C248 1.394 . S
C247 H274 0.932 . S
C248 C244 1.308 . S
C248 C247 1.394 . S
C248 H275 0.929 . S
C249 Tb240 2.764 . S
C249 C243 1.504 . S
C249 O261 1.239 . S
C249 O262 1.263 . S
O250 Tb240 2.325 . S
O250 C260 1.236 . S
O251 Tb241 2.322 . S
O251 C260 1.257 . S
O252 Tb241 2.349 . S
O252 C263 1.261 . S
O253 Tb240 2.303 . S
O253 C263 1.257 . S
O254 Tb241 2.415 . S
O254 C270 1.239 . S
O255 Tb241 2.399 . S
O255 C270 1.263 . S
O256 Tb241 2.325 . S
O256 C271 1.236 . S
O257 Tb240 2.322 . S
O257 C271 1.257 . S
O258 Tb240 2.349 . S
O258 C242 1.261 . S
O259 Tb241 2.303 . S
O259 C242 1.257 . S
C260 O250 1.236 . S
C260 O251 1.257 . S
O261 Tb240 2.415 . S
O261 C249 1.239 . S
O262 Tb240 2.399 . S
O262 C249 1.263 . S
C263 O252 1.261 . S
C263 O253 1.257 . S
C264 C267 1.358 . S
C264 C268 1.332 . S
C264 C270 1.504 . S
C265 C266 1.373 . S
C265 C269 1.308 . S
C266 C265 1.373 . S
C266 C267 1.429 . S
C266 H276 0.932 . S
C267 C264 1.358 . S
C267 C266 1.429 . S
C267 H277 0.930 . S
C268 C264 1.332 . S
C268 C269 1.394 . S
C268 H278 0.932 . S
C269 C265 1.308 . S
C269 C268 1.394 . S
C269 H279 0.929 . S
C270 Tb241 2.764 . S
C270 O254 1.239 . S
C270 O255 1.263 . S
C270 C264 1.504 . S
C271 O256 1.236 . S
C271 O257 1.257 . S
H272 C245 0.932 . S
H273 C246 0.930 . S
H274 C247 0.932 . S
H275 C248 0.929 . S
H276 C266 0.932 . S
H277 C267 0.930 . S
H278 C268 0.932 . S
H279 C269 0.929 . S
Tb280 C289 2.764 . S
Tb280 O290 2.325 . S
Tb280 O293 2.303 . S
Tb280 O297 2.322 . S
Tb280 O298 2.349 . S
Tb280 O301 2.415 . S
Tb280 O302 2.399 . S
Tb281 O291 2.322 . S
Tb281 O292 2.349 . S
Tb281 O294 2.415 . S
Tb281 O295 2.399 . S
Tb281 O296 2.325 . S
Tb281 O299 2.303 . S
Tb281 C310 2.764 . S
C282 O298 1.261 . S
C282 O299 1.257 . S
C283 C286 1.358 1_655 S
C283 C287 1.332 1_655 S
C283 C289 1.504 . S
C284 C285 1.373 . S
C284 C288 1.308 . S
C285 C284 1.373 . S
C285 C286 1.429 . S
C285 H312 0.932 . S
C286 C283 1.358 1_455 S
C286 C285 1.429 . S
C286 H313 0.930 . S
C287 C283 1.332 1_455 S
C287 C288 1.394 . S
C287 H314 0.932 1_455 S
C288 C284 1.308 . S
C288 C287 1.394 . S
C288 H315 0.929 . S
C289 Tb280 2.764 . S
C289 C283 1.504 . S
C289 O301 1.239 . S
C289 O302 1.263 . S
O290 Tb280 2.325 . S
O290 C300 1.236 . S
O291 Tb281 2.322 . S
O291 C300 1.257 . S
O292 Tb281 2.349 . S
O292 C303 1.261 . S
O293 Tb280 2.303 . S
O293 C303 1.257 . S
O294 Tb281 2.415 . S
O294 C310 1.239 . S
O295 Tb281 2.399 . S
O295 C310 1.263 . S
O296 Tb281 2.325 . S
O296 C311 1.236 . S
O297 Tb280 2.322 . S
O297 C311 1.257 . S
O298 Tb280 2.349 . S
O298 C282 1.261 . S
O299 Tb281 2.303 . S
O299 C282 1.257 . S
C300 O290 1.236 . S
C300 O291 1.257 . S
O301 Tb280 2.415 . S
O301 C289 1.239 . S
O302 Tb280 2.399 . S
O302 C289 1.263 . S
C303 O292 1.261 . S
C303 O293 1.257 . S
C304 C307 1.358 . S
C304 C308 1.332 . S
C304 C310 1.504 . S
C305 C306 1.373 . S
C305 C309 1.308 . S
C306 C305 1.373 . S
C306 C307 1.429 . S
C306 H316 0.932 . S
C307 C304 1.358 . S
C307 C306 1.429 . S
C307 H317 0.930 . S
C308 C304 1.332 . S
C308 C309 1.394 . S
C308 H318 0.932 . S
C309 C305 1.308 . S
C309 C308 1.394 . S
C309 H319 0.929 . S
C310 Tb281 2.764 . S
C310 O294 1.239 . S
C310 O295 1.263 . S
C310 C304 1.504 . S
C311 O296 1.236 . S
C311 O297 1.257 . S
H312 C285 0.932 . S
H313 C286 0.930 . S
H314 C287 0.932 1_655 S
H315 C288 0.929 . S
H316 C306 0.932 . S
H317 C307 0.930 . S
H318 C308 0.932 . S
H319 C309 0.929 . S
Tb320 C329 2.764 . S
Tb320 O330 2.325 . S
Tb320 O333 2.303 . S
Tb320 O337 2.322 . S
Tb320 O338 2.349 . S
Tb320 O341 2.415 . S
Tb320 O342 2.399 . S
Tb321 O331 2.322 . S
Tb321 O332 2.349 . S
Tb321 O334 2.415 . S
Tb321 O335 2.399 . S
Tb321 O336 2.325 . S
Tb321 O339 2.303 . S
Tb321 C350 2.764 . S
C322 O338 1.261 . S
C322 O339 1.257 . S
C323 C326 1.358 . S
C323 C327 1.332 . S
C323 C329 1.504 . S
C324 C325 1.373 . S
C324 C328 1.308 . S
C325 C324 1.373 . S
C325 C326 1.429 . S
C325 H352 0.932 . S
C326 C323 1.358 . S
C326 C325 1.429 . S
C326 H353 0.930 . S
C327 C323 1.332 . S
C327 C328 1.394 . S
C327 H354 0.932 . S
C328 C324 1.308 . S
C328 C327 1.394 . S
C328 H355 0.929 . S
C329 Tb320 2.764 . S
C329 C323 1.504 . S
C329 O341 1.239 . S
C329 O342 1.263 . S
O330 Tb320 2.325 . S
O330 C340 1.236 . S
O331 Tb321 2.322 . S
O331 C340 1.257 . S
O332 Tb321 2.349 . S
O332 C343 1.261 . S
O333 Tb320 2.303 . S
O333 C343 1.257 . S
O334 Tb321 2.415 . S
O334 C350 1.239 . S
O335 Tb321 2.399 . S
O335 C350 1.263 . S
O336 Tb321 2.325 . S
O336 C351 1.236 . S
O337 Tb320 2.322 . S
O337 C351 1.257 . S
O338 Tb320 2.349 . S
O338 C322 1.261 . S
O339 Tb321 2.303 . S
O339 C322 1.257 . S
C340 O330 1.236 . S
C340 O331 1.257 . S
O341 Tb320 2.415 . S
O341 C329 1.239 . S
O342 Tb320 2.399 . S
O342 C329 1.263 . S
C343 O332 1.261 . S
C343 O333 1.257 . S
C344 C347 1.358 . S
C344 C348 1.332 . S
C344 C350 1.504 . S
C345 C346 1.373 . S
C345 C349 1.308 . S
C346 C345 1.373 . S
C346 C347 1.429 . S
C346 H356 0.932 . S
C347 C344 1.358 . S
C347 C346 1.429 . S
C347 H357 0.930 . S
C348 C344 1.332 . S
C348 C349 1.394 . S
C348 H358 0.932 . S
C349 C345 1.308 . S
C349 C348 1.394 . S
C349 H359 0.929 . S
C350 Tb321 2.764 . S
C350 O334 1.239 . S
C350 O335 1.263 . S
C350 C344 1.504 . S
C351 O336 1.236 . S
C351 O337 1.257 . S
H352 C325 0.932 . S
H353 C326 0.930 . S
H354 C327 0.932 . S
H355 C328 0.929 . S
H356 C346 0.932 . S
H357 C347 0.930 . S
H358 C348 0.932 . S
H359 C349 0.929 . S
C360 C361 1.349 1_554 S
C360 C362 1.327 . S
C360 H385 0.950 . S
C361 C360 1.349 1_556 S
C361 C377 1.349 . S
C362 C360 1.327 . S
C362 C381 1.429 1_554 S
C362 H386 0.950 . S
C363 C380 1.574 . S
C363 C382 1.368 . S
C363 H387 0.949 . S
H364 C368 0.949 . S
C365 C366 1.349 1_556 S
C365 C367 1.327 . S
C365 H388 0.950 . S
C366 C365 1.349 1_554 S
C366 C378 1.349 . S
C367 C365 1.327 . S
C367 C383 1.434 . S
C367 H389 0.950 . S
C368 H364 0.949 . S
C368 C376 1.574 . S
C368 C384 1.368 1_554 S
H369 C377 0.950 . S
H370 C375 0.950 . S
H371 C376 0.949 . S
H372 C378 0.950 . S
H373 C379 0.950 . S
H374 C380 0.949 . S
C375 H370 0.950 . S
C375 C377 1.327 . S
C375 C381 1.429 . S
C376 C368 1.574 . S
C376 H371 0.949 . S
C376 C382 1.368 1_554 S
C377 C361 1.349 . S
C377 H369 0.950 . S
C377 C375 1.327 . S
C378 C366 1.349 . S
C378 H372 0.950 . S
C378 C379 1.327 . S
C379 H373 0.950 . S
C379 C378 1.327 . S
C379 C383 1.423 1_554 S
C380 C363 1.574 . S
C380 H374 0.949 . S
C380 C384 1.368 . S
C381 C362 1.429 1_556 S
C381 C375 1.429 . S
C381 C382 1.523 . S
C382 C363 1.368 . S
C382 C376 1.368 1_556 S
C382 C381 1.523 . S
C383 C367 1.434 . S
C383 C379 1.423 1_556 S
C383 C384 1.523 . S
C384 C368 1.368 1_556 S
C384 C380 1.368 . S
C384 C383 1.523 . S
H385 C360 0.950 . S
H386 C362 0.950 . S
H387 C363 0.949 . S
H388 C365 0.950 . S
H389 C367 0.950 . S
C390 C391 1.349 . S
C390 C392 1.327 . S
C390 H415 0.950 . S
C391 C390 1.349 . S
C391 C407 1.349 1_554 S
C392 C390 1.327 . S
C392 C411 1.429 . S
C392 H416 0.950 . S
C393 C410 1.574 . S
C393 C412 1.368 1_556 S
C393 H417 0.949 . S
H394 C398 0.949 . S
C395 C396 1.361 . S
C395 C397 1.327 . S
C395 H418 0.950 . S
C396 C395 1.361 . S
C396 C408 1.336 1_556 S
C397 C395 1.327 . S
C397 C413 1.415 1_556 S
C397 H419 0.950 . S
C398 H394 0.949 . S
C398 C406 1.574 . S
C398 C414 1.403 . S
H399 C407 0.950 . S
H400 C405 0.950 . S
H401 C406 0.949 . S
H402 C408 0.950 . S
H403 C409 0.950 . S
H404 C410 0.949 . S
C405 H400 0.950 . S
C405 C407 1.327 . S
C405 C411 1.429 1_556 S
C406 C398 1.574 . S
C406 H401 0.949 . S
C406 C412 1.368 . S
C407 C391 1.349 1_556 S
C407 H399 0.950 . S
C407 C405 1.327 . S
C408 C396 1.336 1_554 S
C408 H402 0.950 . S
C408 C409 1.327 . S
C409 H403 0.950 . S
C409 C408 1.327 . S
C409 C413 1.442 . S
C410 C393 1.574 . S
C410 H404 0.949 . S
C410 C414 1.334 1_556 S
C411 C392 1.429 . S
C411 C405 1.429 1_554 S
C411 C412 1.523 . S
C412 C393 1.368 1_554 S
C412 C406 1.368 . S
C412 C411 1.523 . S
C413 C397 1.415 1_554 S
C413 C409 1.442 . S
C413 C414 1.523 . S
C414 C398 1.403 . S
C414 C410 1.334 1_554 S
C414 C413 1.523 . S
H415 C390 0.950 . S
H416 C392 0.950 . S
H417 C393 0.949 . S
H418 C395 0.950 . S
H419 C397 0.950 . S
C420 C421 1.349 . S
C420 C422 1.327 . S
C420 H445 0.950 . S
C421 C420 1.349 . S
C421 C437 1.349 1_554 S
C422 C420 1.327 . S
C422 C441 1.429 . S
C422 H446 0.950 . S
C423 C440 1.574 . S
C423 C442 1.368 1_556 S
C423 H447 0.949 . S
H424 C428 0.949 . S
C425 C426 1.349 1_556 S
C425 C427 1.327 . S
C425 H448 0.950 . S
C426 C425 1.349 1_554 S
C426 C438 1.349 . S
C427 C425 1.327 . S
C427 C443 1.429 1_556 S
C427 H449 0.950 . S
C428 H424 0.949 . S
C428 C436 1.574 . S
C428 C444 1.368 . S
H429 C437 0.950 . S
H430 C435 0.950 . S
H431 C436 0.949 . S
H432 C438 0.950 . S
H433 C439 0.950 . S
H434 C440 0.949 . S
C435 H430 0.950 . S
C435 C437 1.327 . S
C435 C441 1.429 1_556 S
C436 C428 1.574 . S
C436 H431 0.949 . S
C436 C442 1.368 . S
C437 C421 1.349 1_556 S
C437 H429 0.950 . S
C437 C435 1.327 . S
C438 C426 1.349 . S
C438 H432 0.950 . S
C438 C439 1.327 . S
C439 H433 0.950 . S
C439 C438 1.327 . S
C439 C443 1.429 . S
C440 C423 1.574 . S
C440 H434 0.949 . S
C440 C444 1.368 1_556 S
C441 C422 1.429 . S
C441 C435 1.429 1_554 S
C441 C442 1.523 . S
C442 C423 1.368 1_554 S
C442 C436 1.368 . S
C442 C441 1.523 . S
C443 C427 1.429 1_554 S
C443 C439 1.429 . S
C443 C444 1.523 . S
C444 C428 1.368 . S
C444 C440 1.368 1_554 S
C444 C443 1.523 . S
H445 C420 0.950 . S
H446 C422 0.950 . S
H447 C423 0.949 . S
H448 C425 0.950 . S
H449 C427 0.950 . S
C450 C451 1.349 . S
C450 C452 1.327 . S
C450 H475 0.950 . S
C451 C450 1.349 . S
C451 C467 1.349 1_554 S
C452 C450 1.327 . S
C452 C471 1.429 . S
C452 H476 0.950 . S
C453 C470 1.574 . S
C453 C472 1.368 1_556 S
C453 H477 0.949 . S
H454 C458 0.949 . S
C455 C456 1.349 1_556 S
C455 C457 1.327 . S
C455 H478 0.950 . S
C456 C455 1.349 1_554 S
C456 C468 1.349 . S
C457 C455 1.327 . S
C457 C473 1.429 1_556 S
C457 H479 0.950 . S
C458 H454 0.949 . S
C458 C466 1.574 . S
C458 C474 1.368 . S
H459 C467 0.950 . S
H460 C465 0.950 . S
H461 C466 0.949 . S
H462 C468 0.950 . S
H463 C469 0.950 . S
H464 C470 0.949 . S
C465 H460 0.950 . S
C465 C467 1.327 . S
C465 C471 1.429 1_556 S
C466 C458 1.574 . S
C466 H461 0.949 . S
C466 C472 1.368 . S
C467 C451 1.349 1_556 S
C467 H459 0.950 . S
C467 C465 1.327 . S
C468 C456 1.349 . S
C468 H462 0.950 . S
C468 C469 1.327 . S
C469 H463 0.950 . S
C469 C468 1.327 . S
C469 C473 1.429 . S
C470 C453 1.574 . S
C470 H464 0.949 . S
C470 C474 1.368 1_556 S
C471 C452 1.429 . S
C471 C465 1.429 1_554 S
C471 C472 1.523 . S
C472 C453 1.368 1_554 S
C472 C466 1.368 . S
C472 C471 1.523 . S
C473 C457 1.429 1_554 S
C473 C469 1.429 . S
C473 C474 1.523 . S
C474 C458 1.368 . S
C474 C470 1.368 1_554 S
C474 C473 1.523 . S
H475 C450 0.950 . S
H476 C452 0.950 . S
H477 C453 0.949 . S
H478 C455 0.950 . S
H479 C457 0.950 . S
C480 C481 1.349 1_556 S
C480 C482 1.327 . S
C480 H505 0.950 . S
C481 C480 1.349 1_554 S
C481 C497 1.349 . S
C482 C480 1.327 . S
C482 C501 1.429 1_556 S
C482 H506 0.950 . S
C483 C500 1.574 . S
C483 C502 1.368 . S
C483 H507 0.949 . S
H484 C488 0.949 . S
C485 C486 1.349 . S
C485 C487 1.327 . S
C485 H508 0.950 . S
C486 C485 1.349 . S
C486 C498 1.349 1_554 S
C487 C485 1.327 . S
C487 C503 1.429 . S
C487 H509 0.950 . S
C488 H484 0.949 . S
C488 C496 1.574 . S
C488 C504 1.368 1_556 S
H489 C497 0.950 . S
H490 C495 0.950 . S
H491 C496 0.949 . S
H492 C498 0.950 . S
H493 C499 0.950 . S
H494 C500 0.949 . S
C495 H490 0.950 . S
C495 C497 1.327 . S
C495 C501 1.429 . S
C496 C488 1.574 . S
C496 H491 0.949 . S
C496 C502 1.368 1_556 S
C497 C481 1.349 . S
C497 H489 0.950 . S
C497 C495 1.327 . S
C498 C486 1.349 1_556 S
C498 H492 0.950 . S
C498 C499 1.327 . S
C499 H493 0.950 . S
C499 C498 1.327 . S
C499 C503 1.429 1_556 S
C500 C483 1.574 . S
C500 H494 0.949 . S
C500 C504 1.368 . S
C501 C482 1.429 1_554 S
C501 C495 1.429 . S
C501 C502 1.523 . S
C502 C483 1.368 . S
C502 C496 1.368 1_554 S
C502 C501 1.523 . S
C503 C487 1.429 . S
C503 C499 1.429 1_554 S
C503 C504 1.523 . S
C504 C488 1.368 1_554 S
C504 C500 1.368 . S
C504 C503 1.523 . S
H505 C480 0.950 . S
H506 C482 0.950 . S
H507 C483 0.949 . S
H508 C485 0.950 . S
H509 C487 0.950 . S
C510 C511 1.349 . S
C510 C512 1.327 . S
C510 H535 0.950 . S
C511 C510 1.349 . S
C511 C527 1.349 1_554 S
C512 C510 1.327 . S
C512 C531 1.429 . S
C512 H536 0.950 . S
C513 C530 1.574 . S
C513 C532 1.368 1_556 S
C513 H537 0.949 . S
H514 C518 0.949 . S
C515 C516 1.349 1_556 S
C515 C517 1.327 . S
C515 H538 0.950 . S
C516 C515 1.349 1_554 S
C516 C528 1.349 . S
C517 C515 1.327 . S
C517 C533 1.429 1_556 S
C517 H539 0.950 . S
C518 H514 0.949 . S
C518 C526 1.574 . S
C518 C534 1.368 . S
H519 C527 0.950 . S
H520 C525 0.950 . S
H521 C526 0.949 . S
H522 C528 0.950 . S
H523 C529 0.950 . S
H524 C530 0.949 . S
C525 H520 0.950 . S
C525 C527 1.327 . S
C525 C531 1.429 1_556 S
C526 C518 1.574 . S
C526 H521 0.949 . S
C526 C532 1.368 . S
C527 C511 1.349 1_556 S
C527 H519 0.950 . S
C527 C525 1.327 . S
C528 C516 1.349 . S
C528 H522 0.950 . S
C528 C529 1.327 . S
C529 H523 0.950 . S
C529 C528 1.327 . S
C529 C533 1.429 . S
C530 C513 1.574 . S
C530 H524 0.949 . S
C530 C534 1.368 1_556 S
C531 C512 1.429 . S
C531 C525 1.429 1_554 S
C531 C532 1.523 . S
C532 C513 1.368 1_554 S
C532 C526 1.368 . S
C532 C531 1.523 . S
C533 C517 1.429 1_554 S
C533 C529 1.429 . S
C533 C534 1.523 . S
C534 C518 1.368 . S
C534 C530 1.368 1_554 S
C534 C533 1.523 . S
H535 C510 0.950 . S
H536 C512 0.950 . S
H537 C513 0.949 . S
H538 C515 0.950 . S
H539 C517 0.950 . S
C540 C541 1.349 . S
C540 C542 1.327 . S
C540 H565 0.950 . S
C541 C540 1.349 . S
C541 C557 1.349 . S
C542 C540 1.327 . S
C542 C561 1.429 . S
C542 H566 0.950 . S
C543 C560 1.574 1_655 S
C543 C562 1.368 . S
C543 H567 0.949 . S
H544 C548 0.949 . S
C545 C546 1.349 . S
C545 C547 1.327 . S
C545 H568 0.950 . S
C546 C545 1.349 . S
C546 C558 1.349 . S
C547 C545 1.327 . S
C547 C563 1.429 . S
C547 H569 0.950 . S
C548 H544 0.949 . S
C548 C556 1.574 1_455 S
C548 C564 1.368 . S
H549 C557 0.950 . S
H550 C555 0.950 . S
H551 C556 0.949 . S
H552 C558 0.950 . S
H553 C559 0.950 . S
H554 C560 0.949 . S
C555 H550 0.950 . S
C555 C557 1.327 . S
C555 C561 1.429 . S
C556 C548 1.574 1_655 S
C556 H551 0.949 . S
C556 C562 1.368 . S
C557 C541 1.349 . S
C557 H549 0.950 . S
C557 C555 1.327 . S
C558 C546 1.349 . S
C558 H552 0.950 . S
C558 C559 1.327 . S
C559 H553 0.950 . S
C559 C558 1.327 . S
C559 C563 1.429 . S
C560 C543 1.574 1_455 S
C560 H554 0.949 . S
C560 C564 1.368 . S
C561 C542 1.429 . S
C561 C555 1.429 . S
C561 C562 1.523 . S
C562 C543 1.368 . S
C562 C556 1.368 . S
C562 C561 1.523 . S
C563 C547 1.429 . S
C563 C559 1.429 . S
C563 C564 1.523 . S
C564 C548 1.368 . S
C564 C560 1.368 . S
C564 C563 1.523 . S
H565 C540 0.950 . S
H566 C542 0.950 . S
H567 C543 0.949 . S
H568 C545 0.950 . S
H569 C547 0.950 . S
C570 C571 1.349 . S
C570 C572 1.327 . S
C570 H595 0.950 . S
C571 C570 1.349 . S
C571 C587 1.349 . S
C572 C570 1.327 . S
C572 C591 1.429 . S
C572 H596 0.950 . S
C573 C590 1.574 . S
C573 C592 1.368 . S
C573 H597 0.949 . S
H574 C578 0.949 . S
C575 C576 1.349 . S
C575 C577 1.327 . S
C575 H598 0.950 . S
C576 C575 1.349 . S
C576 C588 1.349 . S
C577 C575 1.327 . S
C577 C593 1.429 . S
C577 H599 0.950 . S
C578 H574 0.949 . S
C578 C586 1.574 . S
C578 C594 1.368 . S
H579 C587 0.950 . S
H580 C585 0.950 . S
H581 C586 0.949 . S
H582 C588 0.950 . S
H583 C589 0.950 . S
H584 C590 0.949 . S
C585 H580 0.950 . S
C585 C587 1.327 . S
C585 C591 1.429 . S
C586 C578 1.574 . S
C586 H581 0.949 . S
C586 C592 1.368 . S
C587 C571 1.349 . S
C587 H579 0.950 . S
C587 C585 1.327 . S
C588 C576 1.349 . S
C588 H582 0.950 . S
C588 C589 1.327 . S
C589 H583 0.950 . S
C589 C588 1.327 . S
C589 C593 1.429 . S
C590 C573 1.574 . S
C590 H584 0.949 . S
C590 C594 1.368 . S
C591 C572 1.429 . S
C591 C585 1.429 . S
C591 C592 1.523 . S
C592 C573 1.368 . S
C592 C586 1.368 . S
C592 C591 1.523 . S
C593 C577 1.429 . S
C593 C589 1.429 . S
C593 C594 1.523 . S
C594 C578 1.368 . S
C594 C590 1.368 . S
C594 C593 1.523 . S
H595 C570 0.950 . S
H596 C572 0.950 . S
H597 C573 0.949 . S
H598 C575 0.950 . S
H599 C577 0.950 . S
C600 C601 1.349 . S
C600 C602 1.327 . S
C600 H625 0.950 . S
C601 C600 1.349 . S
C601 C617 1.349 . S
C602 C600 1.327 . S
C602 C621 1.429 . S
C602 H626 0.950 . S
C603 C620 1.574 1_545 S
C603 C622 1.368 . S
C603 H627 0.949 . S
H604 C608 0.949 . S
C605 C606 1.349 . S
C605 C607 1.327 . S
C605 H628 0.950 . S
C606 C605 1.349 . S
C606 C618 1.349 . S
C607 C605 1.327 . S
C607 C623 1.429 . S
C607 H629 0.950 . S
C608 H604 0.949 . S
C608 C616 1.574 1_565 S
C608 C624 1.368 . S
H609 C617 0.950 . S
H610 C615 0.950 . S
H611 C616 0.949 . S
H612 C618 0.950 . S
H613 C619 0.950 . S
H614 C620 0.949 . S
C615 H610 0.950 . S
C615 C617 1.327 . S
C615 C621 1.429 . S
C616 C608 1.574 1_545 S
C616 H611 0.949 . S
C616 C622 1.368 . S
C617 C601 1.349 . S
C617 H609 0.950 . S
C617 C615 1.327 . S
C618 C606 1.349 . S
C618 H612 0.950 . S
C618 C619 1.327 . S
C619 H613 0.950 . S
C619 C618 1.327 . S
C619 C623 1.429 . S
C620 C603 1.574 1_565 S
C620 H614 0.949 . S
C620 C624 1.368 . S
C621 C602 1.429 . S
C621 C615 1.429 . S
C621 C622 1.523 . S
C622 C603 1.368 . S
C622 C616 1.368 . S
C622 C621 1.523 . S
C623 C607 1.429 . S
C623 C619 1.429 . S
C623 C624 1.523 . S
C624 C608 1.368 . S
C624 C620 1.368 . S
C624 C623 1.523 . S
H625 C600 0.950 . S
H626 C602 0.950 . S
H627 C603 0.949 . S
H628 C605 0.950 . S
H629 C607 0.950 . S
C630 C631 1.349 . S
C630 C632 1.327 . S
C630 H655 0.950 . S
C631 C630 1.349 . S
C631 C647 1.349 . S
C632 C630 1.327 . S
C632 C651 1.429 . S
C632 H656 0.950 . S
C633 C650 1.574 . S
C633 C652 1.368 . S
C633 H657 0.949 . S
H634 C638 0.949 . S
C635 C636 1.349 . S
C635 C637 1.327 . S
C635 H658 0.950 . S
C636 C635 1.349 . S
C636 C648 1.349 . S
C637 C635 1.327 . S
C637 C653 1.429 . S
C637 H659 0.950 . S
C638 H634 0.949 . S
C638 C646 1.574 . S
C638 C654 1.368 . S
H639 C647 0.950 . S
H640 C645 0.950 . S
H641 C646 0.949 . S
H642 C648 0.950 . S
H643 C649 0.950 . S
H644 C650 0.949 . S
C645 H640 0.950 . S
C645 C647 1.327 . S
C645 C651 1.429 . S
C646 C638 1.574 . S
C646 H641 0.949 . S
C646 C652 1.368 . S
C647 C631 1.349 . S
C647 H639 0.950 . S
C647 C645 1.327 . S
C648 C636 1.349 . S
C648 H642 0.950 . S
C648 C649 1.327 . S
C649 H643 0.950 . S
C649 C648 1.327 . S
C649 C653 1.429 . S
C650 C633 1.574 . S
C650 H644 0.949 . S
C650 C654 1.368 . S
C651 C632 1.429 . S
C651 C645 1.429 . S
C651 C652 1.523 . S
C652 C633 1.368 . S
C652 C646 1.368 . S
C652 C651 1.523 . S
C653 C637 1.429 . S
C653 C649 1.429 . S
C653 C654 1.523 . S
C654 C638 1.368 . S
C654 C650 1.368 . S
C654 C653 1.523 . S
H655 C630 0.950 . S
H656 C632 0.950 . S
H657 C633 0.949 . S
H658 C635 0.950 . S
H659 C637 0.950 . S
C660 C661 1.349 . S
C660 C662 1.327 . S
C660 H685 0.950 . S
C661 C660 1.349 . S
C661 C677 1.349 . S
C662 C660 1.327 . S
C662 C681 1.429 . S
C662 H686 0.950 . S
C663 C680 1.574 . S
C663 C682 1.368 . S
C663 H687 0.949 . S
H664 C668 0.949 . S
C665 C666 1.349 . S
C665 C667 1.327 . S
C665 H688 0.950 . S
C666 C665 1.349 . S
C666 C678 1.349 . S
C667 C665 1.327 . S
C667 C683 1.429 . S
C667 H689 0.950 . S
C668 H664 0.949 . S
C668 C676 1.574 . S
C668 C684 1.368 . S
H669 C677 0.950 . S
H670 C675 0.950 . S
H671 C676 0.949 . S
H672 C678 0.950 . S
H673 C679 0.950 . S
H674 C680 0.949 . S
C675 H670 0.950 . S
C675 C677 1.327 . S
C675 C681 1.429 . S
C676 C668 1.574 . S
C676 H671 0.949 . S
C676 C682 1.368 . S
C677 C661 1.349 . S
C677 H669 0.950 . S
C677 C675 1.327 . S
C678 C666 1.349 . S
C678 H672 0.950 . S
C678 C679 1.327 . S
C679 H673 0.950 . S
C679 C678 1.327 . S
C679 C683 1.429 . S
C680 C663 1.574 . S
C680 H674 0.949 . S
C680 C684 1.368 . S
C681 C662 1.429 . S
C681 C675 1.429 . S
C681 C682 1.523 . S
C682 C663 1.368 . S
C682 C676 1.368 . S
C682 C681 1.523 . S
C683 C667 1.429 . S
C683 C679 1.429 . S
C683 C684 1.523 . S
C684 C668 1.368 . S
C684 C680 1.368 . S
C684 C683 1.523 . S
H685 C660 0.950 . S
H686 C662 0.950 . S
H687 C663 0.949 . S
H688 C665 0.950 . S
H689 C667 0.950 . S
C690 C691 1.349 . S
C690 C692 1.327 . S
C690 H715 0.950 . S
C691 C690 1.349 . S
C691 C707 1.349 . S
C692 C690 1.327 . S
C692 C711 1.429 . S
C692 H716 0.950 . S
C693 C710 1.574 . S
C693 C712 1.368 . S
C693 H717 0.949 . S
H694 C698 0.949 . S
C695 C696 1.349 . S
C695 C697 1.327 . S
C695 H718 0.950 . S
C696 C695 1.349 . S
C696 C708 1.349 . S
C697 C695 1.327 . S
C697 C713 1.429 . S
C697 H719 0.950 . S
C698 H694 0.949 . S
C698 C706 1.574 . S
C698 C714 1.368 . S
H699 C707 0.950 . S
H700 C705 0.950 . S
H701 C706 0.949 . S
H702 C708 0.950 . S
H703 C709 0.950 . S
H704 C710 0.949 . S
C705 H700 0.950 . S
C705 C707 1.327 . S
C705 C711 1.429 . S
C706 C698 1.574 . S
C706 H701 0.949 . S
C706 C712 1.368 . S
C707 C691 1.349 . S
C707 H699 0.950 . S
C707 C705 1.327 . S
C708 C696 1.349 . S
C708 H702 0.950 . S
C708 C709 1.327 . S
C709 H703 0.950 . S
C709 C708 1.327 . S
C709 C713 1.429 . S
C710 C693 1.574 . S
C710 H704 0.949 . S
C710 C714 1.368 . S
C711 C692 1.429 . S
C711 C705 1.429 . S
C711 C712 1.523 . S
C712 C693 1.368 . S
C712 C706 1.368 . S
C712 C711 1.523 . S
C713 C697 1.429 . S
C713 C709 1.429 . S
C713 C714 1.523 . S
C714 C698 1.368 . S
C714 C710 1.368 . S
C714 C713 1.523 . S
H715 C690 0.950 . S
H716 C692 0.950 . S
H717 C693 0.949 . S
H718 C695 0.950 . S
H719 C697 0.950 . S
C720 C721 1.349 . S
C720 C722 1.327 . S
C720 H745 0.950 . S
C721 C720 1.349 . S
C721 C737 1.349 . S
C722 C720 1.327 . S
C722 C741 1.429 . S
C722 H746 0.950 . S
C723 C740 1.574 . S
C723 C742 1.368 . S
C723 H747 0.949 . S
H724 C728 0.949 . S
C725 C726 1.349 . S
C725 C727 1.327 . S
C725 H748 0.950 . S
C726 C725 1.349 . S
C726 C738 1.349 . S
C727 C725 1.327 . S
C727 C743 1.429 . S
C727 H749 0.950 . S
C728 H724 0.949 . S
C728 C736 1.574 . S
C728 C744 1.368 . S
H729 C737 0.950 . S
H730 C735 0.950 . S
H731 C736 0.949 . S
H732 C738 0.950 . S
H733 C739 0.950 . S
H734 C740 0.949 . S
C735 H730 0.950 . S
C735 C737 1.327 . S
C735 C741 1.429 . S
C736 C728 1.574 . S
C736 H731 0.949 . S
C736 C742 1.368 . S
C737 C721 1.349 . S
C737 H729 0.950 . S
C737 C735 1.327 . S
C738 C726 1.349 . S
C738 H732 0.950 . S
C738 C739 1.327 . S
C739 H733 0.950 . S
C739 C738 1.327 . S
C739 C743 1.429 . S
C740 C723 1.574 . S
C740 H734 0.949 . S
C740 C744 1.368 . S
C741 C722 1.429 . S
C741 C735 1.429 . S
C741 C742 1.523 . S
C742 C723 1.368 . S
C742 C736 1.368 . S
C742 C741 1.523 . S
C743 C727 1.429 . S
C743 C739 1.429 . S
C743 C744 1.523 . S
C744 C728 1.368 . S
C744 C740 1.368 . S
C744 C743 1.523 . S
H745 C720 0.950 . S
H746 C722 0.950 . S
H747 C723 0.949 . S
H748 C725 0.950 . S
H749 C727 0.950 . S
C750 C751 1.349 . S
C750 C752 1.327 . S
C750 H775 0.950 . S
C751 C750 1.349 . S
C751 C767 1.349 . S
C752 C750 1.327 . S
C752 C771 1.429 . S
C752 H776 0.950 . S
C753 C770 1.574 . S
C753 C772 1.368 . S
C753 H777 0.949 . S
H754 C758 0.949 . S
C755 C756 1.349 . S
C755 C757 1.327 . S
C755 H778 0.950 . S
C756 C755 1.349 . S
C756 C768 1.349 . S
C757 C755 1.327 . S
C757 C773 1.429 . S
C757 H779 0.950 . S
C758 H754 0.949 . S
C758 C766 1.574 . S
C758 C774 1.368 . S
H759 C767 0.950 . S
H760 C765 0.950 . S
H761 C766 0.949 . S
H762 C768 0.950 . S
H763 C769 0.950 . S
H764 C770 0.949 . S
C765 H760 0.950 . S
C765 C767 1.327 . S
C765 C771 1.429 . S
C766 C758 1.574 . S
C766 H761 0.949 . S
C766 C772 1.368 . S
C767 C751 1.349 . S
C767 H759 0.950 . S
C767 C765 1.327 . S
C768 C756 1.349 . S
C768 H762 0.950 . S
C768 C769 1.327 . S
C769 H763 0.950 . S
C769 C768 1.327 . S
C769 C773 1.429 . S
C770 C753 1.574 . S
C770 H764 0.949 . S
C770 C774 1.368 . S
C771 C752 1.429 . S
C771 C765 1.429 . S
C771 C772 1.523 . S
C772 C753 1.368 . S
C772 C766 1.368 . S
C772 C771 1.523 . S
C773 C757 1.429 . S
C773 C769 1.429 . S
C773 C774 1.523 . S
C774 C758 1.368 . S
C774 C770 1.368 . S
C774 C773 1.523 . S
H775 C750 0.950 . S
H776 C752 0.950 . S
H777 C753 0.949 . S
H778 C755 0.950 . S
H779 C757 0.950 . S
C780 C781 1.349 . S
C780 C782 1.327 . S
C780 H805 0.950 . S
C781 C780 1.349 . S
C781 C797 1.349 . S
C782 C780 1.327 . S
C782 C801 1.429 . S
C782 H806 0.950 . S
C783 C800 1.574 . S
C783 C802 1.368 . S
C783 H807 0.949 . S
H784 C788 0.949 . S
C785 C786 1.349 . S
C785 C787 1.327 . S
C785 H808 0.950 . S
C786 C785 1.349 . S
C786 C798 1.349 . S
C787 C785 1.327 . S
C787 C803 1.429 . S
C787 H809 0.950 . S
C788 H784 0.949 . S
C788 C796 1.574 . S
C788 C804 1.368 . S
H789 C797 0.950 . S
H790 C795 0.950 . S
H791 C796 0.949 . S
H792 C798 0.950 . S
H793 C799 0.950 . S
H794 C800 0.949 . S
C795 H790 0.950 . S
C795 C797 1.327 . S
C795 C801 1.429 . S
C796 C788 1.574 . S
C796 H791 0.949 . S
C796 C802 1.368 . S
C797 C781 1.349 . S
C797 H789 0.950 . S
C797 C795 1.327 . S
C798 C786 1.349 . S
C798 H792 0.950 . S
C798 C799 1.327 . S
C799 H793 0.950 . S
C799 C798 1.327 . S
C799 C803 1.429 . S
C800 C783 1.574 . S
C800 H794 0.949 . S
C800 C804 1.368 . S
C801 C782 1.429 . S
C801 C795 1.429 . S
C801 C802 1.523 . S
C802 C783 1.368 . S
C802 C796 1.368 . S
C802 C801 1.523 . S
C803 C787 1.429 . S
C803 C799 1.429 . S
C803 C804 1.523 . S
C804 C788 1.368 . S
C804 C800 1.368 . S
C804 C803 1.523 . S
H805 C780 0.950 . S
H806 C782 0.950 . S
H807 C783 0.949 . S
H808 C785 0.950 . S
H809 C787 0.950 . S
C810 C811 1.349 . S
C810 C812 1.327 . S
C810 H835 0.950 . S
C811 C810 1.349 . S
C811 C827 1.349 . S
C812 C810 1.327 . S
C812 C831 1.429 . S
C812 H836 0.950 . S
C813 C830 1.574 . S
C813 C832 1.368 . S
C813 H837 0.949 . S
H814 C818 0.949 . S
C815 C816 1.349 . S
C815 C817 1.327 . S
C815 H838 0.950 . S
C816 C815 1.349 . S
C816 C828 1.349 . S
C817 C815 1.327 . S
C817 C833 1.429 . S
C817 H839 0.950 . S
C818 H814 0.949 . S
C818 C826 1.574 . S
C818 C834 1.368 . S
H819 C827 0.950 . S
H820 C825 0.950 . S
H821 C826 0.949 . S
H822 C828 0.950 . S
H823 C829 0.950 . S
H824 C830 0.949 . S
C825 H820 0.950 . S
C825 C827 1.327 . S
C825 C831 1.429 . S
C826 C818 1.574 . S
C826 H821 0.949 . S
C826 C832 1.368 . S
C827 C811 1.349 . S
C827 H819 0.950 . S
C827 C825 1.327 . S
C828 C816 1.349 . S
C828 H822 0.950 . S
C828 C829 1.327 . S
C829 H823 0.950 . S
C829 C828 1.327 . S
C829 C833 1.429 . S
C830 C813 1.574 . S
C830 H824 0.949 . S
C830 C834 1.368 . S
C831 C812 1.429 . S
C831 C825 1.429 . S
C831 C832 1.523 . S
C832 C813 1.368 . S
C832 C826 1.368 . S
C832 C831 1.523 . S
C833 C817 1.429 . S
C833 C829 1.429 . S
C833 C834 1.523 1_545 S
C834 C818 1.368 . S
C834 C830 1.368 . S
C834 C833 1.523 1_565 S
H835 C810 0.950 . S
H836 C812 0.950 . S
H837 C813 0.949 . S
H838 C815 0.950 . S
H839 C817 0.950 . S
C840 C841 1.349 . S
C840 C842 1.327 . S
C840 H865 0.950 . S
C841 C840 1.349 . S
C841 C857 1.349 . S
C842 C840 1.327 . S
C842 C861 1.429 . S
C842 H866 0.950 . S
C843 C860 1.574 . S
C843 C862 1.368 . S
C843 H867 0.949 . S
H844 C848 0.949 . S
C845 C846 1.349 . S
C845 C847 1.327 . S
C845 H868 0.950 . S
C846 C845 1.349 . S
C846 C858 1.349 . S
C847 C845 1.327 . S
C847 C863 1.429 1_545 S
C847 H869 0.950 . S
C848 H844 0.949 . S
C848 C856 1.574 . S
C848 C864 1.368 . S
H849 C857 0.950 . S
H850 C855 0.950 . S
H851 C856 0.949 . S
H852 C858 0.950 . S
H853 C859 0.950 . S
H854 C860 0.934 1_545 S
C855 H850 0.950 . S
C855 C857 1.327 . S
C855 C861 1.429 . S
C856 C848 1.574 . S
C856 H851 0.949 . S
C856 C862 1.368 . S
C857 C841 1.349 . S
C857 H849 0.950 . S
C857 C855 1.327 . S
C858 C846 1.349 . S
C858 H852 0.950 . S
C858 C859 1.327 1_545 S
C859 H853 0.950 . S
C859 C858 1.327 1_565 S
C859 C863 1.429 . S
C860 C843 1.574 . S
C860 H854 0.934 1_565 S
C860 C864 1.368 . S
C861 C842 1.429 . S
C861 C855 1.429 . S
C861 C862 1.523 . S
C862 C843 1.368 . S
C862 C856 1.368 . S
C862 C861 1.523 . S
C863 C847 1.429 1_565 S
C863 C859 1.429 . S
C863 C864 1.523 . S
C864 C848 1.368 . S
C864 C860 1.368 . S
C864 C863 1.523 . S
H865 C840 0.950 . S
H866 C842 0.950 . S
H867 C843 0.949 . S
H868 C845 0.950 . S
H869 C847 0.950 . S
C870 C871 1.349 . S
C870 C872 1.327 . S
C870 H895 0.950 . S
C871 C870 1.349 . S
C871 C887 1.349 . S
C872 C870 1.327 . S
C872 C891 1.429 . S
C872 H896 0.950 . S
C873 C890 1.574 . S
C873 C892 1.368 . S
C873 H897 0.949 . S
H874 C878 0.949 . S
C875 C876 1.349 . S
C875 C877 1.327 . S
C875 H898 0.950 . S
C876 C875 1.349 . S
C876 C888 1.349 . S
C877 C875 1.327 . S
C877 C893 1.429 . S
C877 H899 0.950 . S
C878 H874 0.949 . S
C878 C886 1.574 . S
C878 C894 1.368 . S
H879 C887 0.950 . S
H880 C885 0.950 . S
H881 C886 0.949 . S
H882 C888 0.950 . S
H883 C889 0.950 . S
H884 C890 0.949 . S
C885 H880 0.950 . S
C885 C887 1.327 . S
C885 C891 1.429 . S
C886 C878 1.574 . S
C886 H881 0.949 . S
C886 C892 1.368 . S
C887 C871 1.349 . S
C887 H879 0.950 . S
C887 C885 1.327 . S
C888 C876 1.349 . S
C888 H882 0.950 . S
C888 C889 1.327 . S
C889 H883 0.950 . S
C889 C888 1.327 . S
C889 C893 1.429 . S
C890 C873 1.574 . S
C890 H884 0.949 . S
C890 C894 1.368 . S
C891 C872 1.429 . S
C891 C885 1.429 . S
C891 C892 1.523 . S
C892 C873 1.368 . S
C892 C886 1.368 . S
C892 C891 1.523 . S
C893 C877 1.429 . S
C893 C889 1.429 . S
C893 C894 1.523 . S
C894 C878 1.368 . S
C894 C890 1.368 . S
C894 C893 1.523 . S
H895 C870 0.950 . S
H896 C872 0.950 . S
H897 C873 0.949 . S
H898 C875 0.950 . S
H899 C877 0.950 . S
C900 C901 1.349 . S
C900 C902 1.327 . S
C900 H925 0.950 . S
C901 C900 1.349 . S
C901 C917 1.349 . S
C902 C900 1.327 . S
C902 C921 1.429 . S
C902 H926 0.950 . S
C903 C920 1.574 . S
C903 C922 1.368 . S
C903 H927 0.949 . S
H904 C908 0.949 . S
C905 C906 1.349 . S
C905 C907 1.327 . S
C905 H928 0.950 . S
C906 C905 1.349 . S
C906 C918 1.349 . S
C907 C905 1.327 . S
C907 C923 1.429 . S
C907 H929 0.950 . S
C908 H904 0.949 . S
C908 C916 1.574 . S
C908 C924 1.368 . S
H909 C917 0.950 . S
H910 C915 0.950 . S
H911 C916 0.949 . S
H912 C918 0.950 . S
H913 C919 0.950 . S
H914 C920 0.949 . S
C915 H910 0.950 . S
C915 C917 1.327 . S
C915 C921 1.429 . S
C916 C908 1.574 . S
C916 H911 0.949 . S
C916 C922 1.368 . S
C917 C901 1.349 . S
C917 H909 0.950 . S
C917 C915 1.327 . S
C918 C906 1.349 . S
C918 H912 0.950 . S
C918 C919 1.327 . S
C919 H913 0.950 . S
C919 C918 1.327 . S
C919 C923 1.429 . S
C920 C903 1.574 . S
C920 H914 0.949 . S
C920 C924 1.368 . S
C921 C902 1.429 . S
C921 C915 1.429 . S
C921 C922 1.523 . S
C922 C903 1.368 . S
C922 C916 1.368 . S
C922 C921 1.523 . S
C923 C907 1.429 . S
C923 C919 1.429 . S
C923 C924 1.523 . S
C924 C908 1.368 . S
C924 C920 1.368 . S
C924 C923 1.523 . S
H925 C900 0.950 . S
H926 C902 0.950 . S
H927 C903 0.949 . S
H928 C905 0.950 . S
H929 C907 0.950 . S
C930 C931 1.349 . S
C930 C932 1.327 . S
C930 H955 0.950 . S
C931 C930 1.349 . S
C931 C947 1.349 . S
C932 C930 1.327 . S
C932 C951 1.429 . S
C932 H956 0.950 . S
C933 C950 1.574 . S
C933 C952 1.368 . S
C933 H957 0.949 . S
H934 C938 0.949 . S
C935 C936 1.349 . S
C935 C937 1.327 . S
C935 H958 0.950 . S
C936 C935 1.349 . S
C936 C948 1.349 . S
C937 C935 1.327 . S
C937 C953 1.429 . S
C937 H959 0.950 . S
C938 H934 0.949 . S
C938 C946 1.574 . S
C938 C954 1.368 . S
H939 C947 0.950 . S
H940 C945 0.950 . S
H941 C946 0.949 . S
H942 C948 0.950 . S
H943 C949 0.950 . S
H944 C950 0.949 . S
C945 H940 0.950 . S
C945 C947 1.327 . S
C945 C951 1.429 . S
C946 C938 1.574 . S
C946 H941 0.949 . S
C946 C952 1.368 . S
C947 C931 1.349 . S
C947 H939 0.950 . S
C947 C945 1.327 . S
C948 C936 1.349 . S
C948 H942 0.950 . S
C948 C949 1.327 . S
C949 H943 0.950 . S
C949 C948 1.327 . S
C949 C953 1.429 . S
C950 C933 1.574 . S
C950 H944 0.949 . S
C950 C954 1.368 . S
C951 C932 1.429 . S
C951 C945 1.429 . S
C951 C952 1.523 . S
C952 C933 1.368 . S
C952 C946 1.368 . S
C952 C951 1.523 . S
C953 C937 1.429 . S
C953 C949 1.429 . S
C953 C954 1.523 . S
C954 C938 1.368 . S
C954 C950 1.368 . S
C954 C953 1.523 . S
H955 C930 0.950 . S
H956 C932 0.950 . S
H957 C933 0.949 . S
H958 C935 0.950 . S
H959 C937 0.950 . S
C960 C961 1.349 . S
C960 C962 1.327 . S
C960 H985 0.950 . S
C961 C960 1.349 . S
C961 C977 1.349 . S
C962 C960 1.327 . S
C962 C981 1.429 . S
C962 H986 0.950 . S
C963 C980 1.574 . S
C963 C982 1.368 . S
C963 H987 0.949 . S
H964 C968 0.949 . S
C965 C966 1.349 . S
C965 C967 1.327 . S
C965 H988 0.950 . S
C966 C965 1.349 . S
C966 C978 1.349 . S
C967 C965 1.327 . S
C967 C983 1.429 . S
C967 H989 0.950 . S
C968 H964 0.949 . S
C968 C976 1.574 . S
C968 C984 1.368 . S
H969 C977 0.950 1_545 S
H970 C975 0.950 . S
H971 C976 0.949 . S
H972 C978 0.950 . S
H973 C979 0.950 . S
H974 C980 0.949 . S
C975 H970 0.950 . S
C975 C977 1.327 . S
C975 C981 1.429 . S
C976 C968 1.574 . S
C976 H971 0.949 . S
C976 C982 1.368 . S
C977 C961 1.349 . S
C977 H969 0.950 1_565 S
C977 C975 1.327 . S
C978 C966 1.349 . S
C978 H972 0.950 . S
C978 C979 1.327 . S
C979 H973 0.950 . S
C979 C978 1.327 . S
C979 C983 1.429 . S
C980 C963 1.574 . S
C980 H974 0.949 . S
C980 C984 1.368 . S
C981 C962 1.429 . S
C981 C975 1.429 . S
C981 C982 1.523 . S
C982 C963 1.368 . S
C982 C976 1.368 . S
C982 C981 1.523 . S
C983 C967 1.429 . S
C983 C979 1.429 . S
C983 C984 1.523 . S
C984 C968 1.368 . S
C984 C980 1.368 . S
C984 C983 1.523 . S
H985 C960 0.950 . S
H986 C962 0.950 . S
H987 C963 0.949 . S
H988 C965 0.950 . S
H989 C967 0.950 . S
C990 C991 1.349 . S
C990 C992 1.327 . S
C990 H1015 0.950 1_545 S
C991 C990 1.349 . S
C991 C1007 1.349 . S
C992 C990 1.327 . S
C992 C1011 1.429 . S
C992 H1016 0.950 . S
C993 C1010 1.574 . S
C993 C1012 1.368 . S
C993 H1017 0.949 . S
H994 C998 0.949 . S
C995 C996 1.349 . S
C995 C997 1.327 . S
C995 H1018 0.950 . S
C996 C995 1.349 . S
C996 C1008 1.349 . S
C997 C995 1.327 . S
C997 C1013 1.429 . S
C997 H1019 0.950 . S
C998 H994 0.949 . S
C998 C1006 1.574 . S
C998 C1014 1.368 . S
H999 C1007 0.950 . S
H1000 C1005 0.950 . S
H1001 C1006 0.949 . S
H1002 C1008 0.950 . S
H1003 C1009 0.950 . S
H1004 C1010 0.949 . S
C1005 H1000 0.950 . S
C1005 C1007 1.327 . S
C1005 C1011 1.429 . S
C1006 C998 1.574 . S
C1006 H1001 0.949 . S
C1006 C1012 1.368 . S
C1007 C991 1.349 . S
C1007 H999 0.950 . S
C1007 C1005 1.327 . S
C1008 C996 1.349 . S
C1008 H1002 0.950 . S
C1008 C1009 1.327 . S
C1009 H1003 0.950 . S
C1009 C1008 1.327 . S
C1009 C1013 1.429 . S
C1010 C993 1.574 . S
C1010 H1004 0.949 . S
C1010 C1014 1.368 . S
C1011 C992 1.429 . S
C1011 C1005 1.429 . S
C1011 C1012 1.523 . S
C1012 C993 1.368 . S
C1012 C1006 1.368 . S
C1012 C1011 1.523 . S
C1013 C997 1.429 . S
C1013 C1009 1.429 . S
C1013 C1014 1.523 . S
C1014 C998 1.368 . S
C1014 C1010 1.368 . S
C1014 C1013 1.523 . S
H1015 C990 0.950 1_565 S
H1016 C992 0.950 . S
H1017 C993 0.949 . S
H1018 C995 0.950 . S
H1019 C997 0.950 . S
C1020 C1021 1.349 . S
C1020 C1022 1.327 . S
C1020 H1045 0.950 . S
C1021 C1020 1.349 . S
C1021 C1037 1.349 . S
C1022 C1020 1.327 . S
C1022 C1041 1.429 . S
C1022 H1046 0.950 . S
C1023 C1040 1.574 . S
C1023 C1042 1.368 . S
C1023 H1047 0.949 . S
H1024 C1028 0.949 . S
C1025 C1026 1.349 . S
C1025 C1027 1.327 . S
C1025 H1048 0.950 . S
C1026 C1025 1.349 . S
C1026 C1038 1.349 . S
C1027 C1025 1.327 . S
C1027 C1043 1.429 . S
C1027 H1049 0.950 . S
C1028 H1024 0.949 . S
C1028 C1036 1.574 . S
C1028 C1044 1.368 . S
H1029 C1037 0.950 . S
H1030 C1035 0.950 . S
H1031 C1036 0.949 . S
H1032 C1038 0.950 . S
H1033 C1039 0.950 . S
H1034 C1040 0.949 . S
C1035 H1030 0.950 . S
C1035 C1037 1.327 . S
C1035 C1041 1.429 . S
C1036 C1028 1.574 . S
C1036 H1031 0.949 . S
C1036 C1042 1.368 . S
C1037 C1021 1.349 . S
C1037 H1029 0.950 . S
C1037 C1035 1.327 . S
C1038 C1026 1.349 . S
C1038 H1032 0.950 . S
C1038 C1039 1.327 . S
C1039 H1033 0.950 . S
C1039 C1038 1.327 . S
C1039 C1043 1.429 . S
C1040 C1023 1.574 . S
C1040 H1034 0.949 . S
C1040 C1044 1.368 . S
C1041 C1022 1.429 . S
C1041 C1035 1.429 . S
C1041 C1042 1.523 . S
C1042 C1023 1.368 . S
C1042 C1036 1.368 . S
C1042 C1041 1.523 . S
C1043 C1027 1.429 . S
C1043 C1039 1.429 . S
C1043 C1044 1.523 . S
C1044 C1028 1.368 . S
C1044 C1040 1.368 . S
C1044 C1043 1.523 . S
H1045 C1020 0.950 . S
H1046 C1022 0.950 . S
H1047 C1023 0.949 . S
H1048 C1025 0.950 . S
H1049 C1027 0.950 . S
C1050 C1051 1.349 . S
C1050 C1052 1.327 . S
C1050 H1075 0.950 . S
C1051 C1050 1.349 . S
C1051 C1067 1.349 . S
C1052 C1050 1.327 . S
C1052 C1071 1.429 . S
C1052 H1076 0.950 . S
C1053 C1070 1.574 . S
C1053 C1072 1.368 . S
C1053 H1077 0.949 . S
H1054 C1058 0.949 . S
C1055 C1056 1.349 . S
C1055 C1057 1.327 . S
C1055 H1078 0.950 . S
C1056 C1055 1.349 . S
C1056 C1068 1.349 . S
C1057 C1055 1.327 . S
C1057 C1073 1.429 . S
C1057 H1079 0.950 . S
C1058 H1054 0.949 . S
C1058 C1066 1.574 . S
C1058 C1074 1.368 . S
H1059 C1067 0.950 . S
H1060 C1065 0.950 . S
H1061 C1066 0.949 . S
H1062 C1068 0.950 . S
H1063 C1069 0.950 . S
H1064 C1070 0.949 . S
C1065 H1060 0.950 . S
C1065 C1067 1.327 . S
C1065 C1071 1.429 . S
C1066 C1058 1.574 . S
C1066 H1061 0.949 . S
C1066 C1072 1.368 . S
C1067 C1051 1.349 . S
C1067 H1059 0.950 . S
C1067 C1065 1.327 . S
C1068 C1056 1.349 . S
C1068 H1062 0.950 . S
C1068 C1069 1.327 . S
C1069 H1063 0.950 . S
C1069 C1068 1.327 . S
C1069 C1073 1.429 . S
C1070 C1053 1.574 . S
C1070 H1064 0.949 . S
C1070 C1074 1.368 . S
C1071 C1052 1.429 . S
C1071 C1065 1.429 . S
C1071 C1072 1.523 . S
C1072 C1053 1.368 . S
C1072 C1066 1.368 . S
C1072 C1071 1.523 . S
C1073 C1057 1.429 . S
C1073 C1069 1.429 . S
C1073 C1074 1.523 . S
C1074 C1058 1.368 . S
C1074 C1070 1.368 . S
C1074 C1073 1.523 . S
H1075 C1050 0.950 . S
H1076 C1052 0.950 . S
H1077 C1053 0.949 . S
H1078 C1055 0.950 . S
H1079 C1057 0.950 . S
C1080 C1081 1.349 . S
C1080 C1082 1.327 . S
C1080 H1105 0.950 . S
C1081 C1080 1.349 . S
C1081 C1097 1.349 . S
C1082 C1080 1.327 . S
C1082 C1101 1.429 . S
C1082 H1106 0.950 . S
C1083 C1100 1.574 . S
C1083 C1102 1.368 . S
C1083 H1107 0.949 . S
H1084 C1088 0.949 . S
C1085 C1086 1.349 . S
C1085 C1087 1.327 . S
C1085 H1108 0.950 . S
C1086 C1085 1.349 . S
C1086 C1098 1.349 . S
C1087 C1085 1.327 . S
C1087 C1103 1.429 . S
C1087 H1109 0.950 . S
C1088 H1084 0.949 . S
C1088 C1096 1.574 . S
C1088 C1104 1.368 . S
H1089 C1097 0.950 . S
H1090 C1095 0.950 . S
H1091 C1096 0.949 . S
H1092 C1098 0.950 . S
H1093 C1099 0.950 . S
H1094 C1100 0.949 . S
C1095 H1090 0.950 . S
C1095 C1097 1.327 . S
C1095 C1101 1.429 . S
C1096 C1088 1.574 . S
C1096 H1091 0.949 . S
C1096 C1102 1.368 . S
C1097 C1081 1.349 . S
C1097 H1089 0.950 . S
C1097 C1095 1.327 . S
C1098 C1086 1.349 . S
C1098 H1092 0.950 . S
C1098 C1099 1.327 . S
C1099 H1093 0.950 . S
C1099 C1098 1.327 . S
C1099 C1103 1.429 . S
C1100 C1083 1.574 . S
C1100 H1094 0.949 . S
C1100 C1104 1.368 . S
C1101 C1082 1.429 . S
C1101 C1095 1.429 . S
C1101 C1102 1.523 . S
C1102 C1083 1.368 . S
C1102 C1096 1.368 . S
C1102 C1101 1.523 . S
C1103 C1087 1.429 . S
C1103 C1099 1.429 . S
C1103 C1104 1.523 . S
C1104 C1088 1.368 . S
C1104 C1100 1.368 . S
C1104 C1103 1.523 . S
H1105 C1080 0.950 . S
H1106 C1082 0.950 . S
H1107 C1083 0.949 . S
H1108 C1085 0.950 . S
H1109 C1087 0.950 . S
C1110 C1111 1.349 . S
C1110 C1112 1.327 . S
C1110 H1135 0.950 . S
C1111 C1110 1.349 . S
C1111 C1127 1.349 . S
C1112 C1110 1.327 . S
C1112 C1131 1.429 . S
C1112 H1136 0.950 . S
C1113 C1130 1.574 1_565 S
C1113 C1132 1.368 . S
C1113 H1137 0.949 . S
H1114 C1118 0.949 . S
C1115 C1116 1.349 . S
C1115 C1117 1.327 . S
C1115 H1138 0.950 . S
C1116 C1115 1.349 . S
C1116 C1128 1.349 . S
C1117 C1115 1.327 . S
C1117 C1133 1.429 . S
C1117 H1139 0.950 . S
C1118 H1114 0.949 . S
C1118 C1126 1.574 1_545 S
C1118 C1134 1.368 . S
H1119 C1127 0.950 . S
H1120 C1125 0.950 . S
H1121 C1126 0.949 . S
H1122 C1128 0.950 . S
H1123 C1129 0.950 . S
H1124 C1130 0.949 . S
C1125 H1120 0.950 . S
C1125 C1127 1.327 . S
C1125 C1131 1.429 . S
C1126 C1118 1.574 1_565 S
C1126 H1121 0.949 . S
C1126 C1132 1.368 . S
C1127 C1111 1.349 . S
C1127 H1119 0.950 . S
C1127 C1125 1.327 . S
C1128 C1116 1.349 . S
C1128 H1122 0.950 . S
C1128 C1129 1.327 . S
C1129 H1123 0.950 . S
C1129 C1128 1.327 . S
C1129 C1133 1.429 . S
C1130 C1113 1.574 1_545 S
C1130 H1124 0.949 . S
C1130 C1134 1.368 . S
C1131 C1112 1.429 . S
C1131 C1125 1.429 . S
C1131 C1132 1.523 . S
C1132 C1113 1.368 . S
C1132 C1126 1.368 . S
C1132 C1131 1.523 . S
C1133 C1117 1.429 . S
C1133 C1129 1.429 . S
C1133 C1134 1.523 . S
C1134 C1118 1.368 . S
C1134 C1130 1.368 . S
C1134 C1133 1.523 . S
H1135 C1110 0.950 . S
H1136 C1112 0.950 . S
H1137 C1113 0.949 . S
H1138 C1115 0.950 . S
H1139 C1117 0.950 . S
C1140 C1141 1.349 . S
C1140 C1142 1.327 . S
C1140 H1165 0.950 . S
C1141 C1140 1.349 . S
C1141 C1157 1.349 . S
C1142 C1140 1.327 . S
C1142 C1161 1.429 . S
C1142 H1166 0.950 . S
C1143 C1160 1.574 . S
C1143 C1162 1.368 . S
C1143 H1167 0.949 . S
H1144 C1148 0.949 . S
C1145 C1146 1.349 . S
C1145 C1147 1.327 . S
C1145 H1168 0.950 . S
C1146 C1145 1.349 . S
C1146 C1158 1.349 . S
C1147 C1145 1.327 . S
C1147 C1163 1.429 . S
C1147 H1169 0.950 . S
C1148 H1144 0.949 . S
C1148 C1156 1.574 . S
C1148 C1164 1.368 . S
H1149 C1157 0.950 . S
H1150 C1155 0.950 . S
H1151 C1156 0.949 . S
H1152 C1158 0.950 . S
H1153 C1159 0.950 . S
H1154 C1160 0.949 . S
C1155 H1150 0.950 . S
C1155 C1157 1.327 . S
C1155 C1161 1.429 . S
C1156 C1148 1.574 . S
C1156 H1151 0.949 . S
C1156 C1162 1.368 1_455 S
C1157 C1141 1.349 . S
C1157 H1149 0.950 . S
C1157 C1155 1.327 . S
C1158 C1146 1.349 . S
C1158 H1152 0.950 . S
C1158 C1159 1.327 . S
C1159 H1153 0.950 . S
C1159 C1158 1.327 . S
C1159 C1163 1.429 . S
C1160 C1143 1.574 . S
C1160 H1154 0.949 . S
C1160 C1164 1.368 1_655 S
C1161 C1142 1.429 . S
C1161 C1155 1.429 . S
C1161 C1162 1.523 . S
C1162 C1143 1.368 . S
C1162 C1156 1.368 1_655 S
C1162 C1161 1.523 . S
C1163 C1147 1.429 . S
C1163 C1159 1.429 . S
C1163 C1164 1.523 . S
C1164 C1148 1.368 . S
C1164 C1160 1.368 1_455 S
C1164 C1163 1.523 . S
H1165 C1140 0.950 . S
H1166 C1142 0.950 . S
H1167 C1143 0.949 . S
H1168 C1145 0.950 . S
H1169 C1147 0.950 . S
C361 C65 0.342 . S
C366 C4 0.459 . S
C391 C100 3.247 . S
C396 C71 3.273 . S
C421 C84 0.910 . S
C426 C20 0.910 . S
C451 C111 2.938 . S
C456 C60 2.922 . S
C481 C105 1.813 . S
C486 C31 1.810 . S
C511 C25 0.611 . S
C516 C44 0.694 . S
C541 C124 2.724 . S
C546 C180 2.745 . S
C571 C220 0.629 . S
C576 C164 0.623 . S
C601 C204 0.776 . S
C606 C140 0.776 . S
C631 C185 0.268 . S
C636 C231 0.226 . S
C661 C225 1.912 . S
C666 C151 1.910 . S
C691 C191 2.239 . S
C696 C145 2.246 . S
C721 C305 0.355 . S
C726 C244 0.475 . S
C751 C311 3.313 . S
C756 C340 3.287 . S
C781 C324 0.925 . S
C786 C260 0.925 . S
C811 C351 2.876 . S
C816 C300 2.860 . S
C841 C345 1.825 1_455 S
C846 C271 1.822 . S
C871 C265 0.583 . S
C876 C284 0.666 . S
C901 C202 2.350 . S
C906 C23 2.583 . S
C931 C122 2.072 . S
C936 C42 2.044 . S
C961 C103 2.936 . S
C966 C162 2.749 . S
C991 C82 2.360 . S
C996 C263 2.592 . S
C1021 C2 2.032 . S
C1026 C282 2.003 . S
C1051 C343 2.932 . S
C1056 C63 2.945 . S
C1081 C143 2.630 . S
C1086 C322 2.397 . S
C1111 C183 2.187 . S
C1116 C242 2.045 . S
C1141 C303 2.901 . S
C1146 C223 2.887 . S
