# Generated by pormake.
# Topology crr, (4)-cn, num edge types: 1
# Building blocks:
#     Node 0, Type 0, BuildingBlock: MUDLON_clean_sbu_0, # of connection points: 4
#     Node 1, Type 0, BuildingBlock: MUDLON_clean_sbu_0, # of connection points: 4
#     Node 2, Type 0, BuildingBlock: MUDLON_clean_sbu_0, # of connection points: 4
#     Node 3, Type 0, BuildingBlock: MUDLON_clean_sbu_0, # of connection points: 4
#     Node 4, Type 0, BuildingBlock: MUDLON_clean_sbu_0, # of connection points: 4
#     Node 5, Type 0, BuildingBlock: MUDLON_clean_sbu_0, # of connection points: 4
#     Node 6, Type 0, BuildingBlock: MUDLON_clean_sbu_0, # of connection points: 4
#     Node 7, Type 0, BuildingBlock: MUDLON_clean_sbu_0, # of connection points: 4
#     Node 8, Type 0, BuildingBlock: MUDLON_clean_sbu_0, # of connection points: 4
#     Node 9, Type 0, BuildingBlock: MUDLON_clean_sbu_0, # of connection points: 4
#     Node 10, Type 0, BuildingBlock: MUDLON_clean_sbu_0, # of connection points: 4
#     Node 11, Type 0, BuildingBlock: MUDLON_clean_sbu_0, # of connection points: 4
#     Edge 12, Type (0, 0), BuildingBlock: UVAHIK_clean_linker_0, # of connection points: 2
#     Edge 13, Type (0, 0), BuildingBlock: UVAHIK_clean_linker_0, # of connection points: 2
#     Edge 14, Type (0, 0), BuildingBlock: UVAHIK_clean_linker_0, # of connection points: 2
#     Edge 15, Type (0, 0), BuildingBlock: UVAHIK_clean_linker_0, # of connection points: 2
#     Edge 16, Type (0, 0), BuildingBlock: UVAHIK_clean_linker_0, # of connection points: 2
#     Edge 17, Type (0, 0), BuildingBlock: UVAHIK_clean_linker_0, # of connection points: 2
#     Edge 18, Type (0, 0), BuildingBlock: UVAHIK_clean_linker_0, # of connection points: 2
#     Edge 19, Type (0, 0), BuildingBlock: UVAHIK_clean_linker_0, # of connection points: 2
#     Edge 20, Type (0, 0), BuildingBlock: UVAHIK_clean_linker_0, # of connection points: 2
#     Edge 21, Type (0, 0), BuildingBlock: UVAHIK_clean_linker_0, # of connection points: 2
#     Edge 22, Type (0, 0), BuildingBlock: UVAHIK_clean_linker_0, # of connection points: 2
#     Edge 23, Type (0, 0), BuildingBlock: UVAHIK_clean_linker_0, # of connection points: 2
#     Edge 24, Type (0, 0), BuildingBlock: UVAHIK_clean_linker_0, # of connection points: 2
#     Edge 25, Type (0, 0), BuildingBlock: UVAHIK_clean_linker_0, # of connection points: 2
#     Edge 26, Type (0, 0), BuildingBlock: UVAHIK_clean_linker_0, # of connection points: 2
#     Edge 27, Type (0, 0), BuildingBlock: UVAHIK_clean_linker_0, # of connection points: 2
#     Edge 28, Type (0, 0), BuildingBlock: UVAHIK_clean_linker_0, # of connection points: 2
#     Edge 29, Type (0, 0), BuildingBlock: UVAHIK_clean_linker_0, # of connection points: 2
#     Edge 30, Type (0, 0), BuildingBlock: UVAHIK_clean_linker_0, # of connection points: 2
#     Edge 31, Type (0, 0), BuildingBlock: UVAHIK_clean_linker_0, # of connection points: 2
#     Edge 32, Type (0, 0), BuildingBlock: UVAHIK_clean_linker_0, # of connection points: 2
#     Edge 33, Type (0, 0), BuildingBlock: UVAHIK_clean_linker_0, # of connection points: 2
#     Edge 34, Type (0, 0), BuildingBlock: UVAHIK_clean_linker_0, # of connection points: 2
#     Edge 35, Type (0, 0), BuildingBlock: UVAHIK_clean_linker_0, # of connection points: 2
# Relax obj value: 0.153
# Max RMSD: 0.151
# Mean RMSD: 0.144
data_MOF--net-crr--node1-MUDLON_clean_sbu_0--edge1-UVAHIK_clean_linker_0
_symmetry_space_group_name_H-M    P1
_symmetry_Int_Tables_number       1
_symmetry_cell_setting            triclinic
loop_
_symmetry_equiv_pos_as_xyz
'x, y, z'
_cell_length_a     50.541989
_cell_length_b     50.675666
_cell_length_c     50.646568
_cell_angle_alpha  90.040571
_cell_angle_beta   90.127962
_cell_angle_gamma 89.802714
loop_
_atom_site_label
_atom_site_type_symbol
_atom_site_fract_x
_atom_site_fract_y
_atom_site_fract_z
_atom_type_partial_charge
Mg0 Mg 0.06648 0.32637 0.30246 0.0
C1 C 0.09544 0.27869 0.31379 0.0
O2 O 0.07017 0.27331 0.31639 0.0
C3 C 0.04601 0.38066 0.30441 0.0
O4 O 0.02528 0.36534 0.30717 0.0
C5 C 0.05727 0.32571 0.24344 0.0
O6 O 0.05653 0.35141 0.24664 0.0
O7 O 0.05635 0.31091 0.26369 0.0
O8 O 0.10205 0.30242 0.30864 0.0
O9 O 0.04308 0.31717 0.33745 0.0
C10 C 0.01882 0.31246 0.34204 0.0
O11 O 0.00174 0.31181 0.32247 0.0
O12 O 0.06858 0.36976 0.30133 0.0
Mg13 Mg 0.32791 0.96164 0.68351 0.0
C14 C 0.31788 0.96512 0.75082 0.0
O15 O 0.30453 0.98536 0.76011 0.0
C16 C 0.30346 0.00496 0.63975 0.0
O17 O 0.29464 0.02377 0.6553 0.0
C18 C 0.28062 0.93223 0.68304 0.0
O19 O 0.27449 0.95591 0.6918 0.0
O20 O 0.30453 0.92734 0.6767 0.0
O21 O 0.3216 0.96379 0.72603 0.0
O22 O 0.37026 0.96029 0.68079 0.0
C23 C 0.38083 0.97816 0.69493 0.0
O24 O 0.36547 0.99442 0.70816 0.0
O25 O 0.31461 0.98463 0.64946 0.0
Mg26 Mg 0.92982 0.69681 0.32983 0.0
C27 C 0.9343 0.74766 0.29861 0.0
O28 O 0.92823 0.73176 0.27906 0.0
C29 C 0.9769 0.65732 0.31198 0.0
O30 O 0.98942 0.67644 0.29982 0.0
C31 C 0.89978 0.67839 0.28301 0.0
O32 O 0.92283 0.66677 0.27999 0.0
O33 O 0.89542 0.69119 0.30423 0.0
O34 O 0.94065 0.73765 0.32082 0.0
O35 O 0.92422 0.69723 0.37266 0.0
C36 C 0.94584 0.7032 0.38415 0.0
O37 O 0.96655 0.70824 0.36935 0.0
O38 O 0.9553 0.66217 0.32393 0.0
Mg39 Mg 0.69856 0.05649 0.69806 0.0
C40 C 0.69313 0.03476 0.64598 0.0
O41 O 0.69879 0.01498 0.66181 0.0
C42 C 0.70245 0.09064 0.74327 0.0
O43 O 0.71584 0.06911 0.74896 0.0
C44 C 0.65352 0.03089 0.72754 0.0
O45 O 0.65477 0.05313 0.74078 0.0
O46 O 0.67137 0.02575 0.71064 0.0
O47 O 0.69178 0.05787 0.65576 0.0
O48 O 0.7408 0.05113 0.70502 0.0
C49 C 0.75783 0.05307 0.6867 0.0
O50 O 0.74995 0.05241 0.66199 0.0
O51 O 0.69055 0.09197 0.72111 0.0
Mg52 Mg 0.06173 0.67321 0.69459 0.0
C53 C 0.04802 0.61739 0.69416 0.0
O54 O 0.02563 0.63019 0.69765 0.0
C55 C 0.09047 0.72249 0.69311 0.0
O56 O 0.06938 0.72684 0.70761 0.0
C57 C 0.02392 0.70198 0.65543 0.0
O58 O 0.03691 0.7232 0.66258 0.0
O59 O 0.0288 0.68018 0.66699 0.0
O60 O 0.06913 0.63079 0.69143 0.0
O61 O 0.05838 0.68251 0.73688 0.0
C62 C 0.06202 0.66475 0.7543 0.0
O63 O 0.0624 0.63992 0.74696 0.0
O64 O 0.09375 0.69959 0.68322 0.0
Mg65 Mg 0.69384 0.95948 0.31669 0.0
C66 C 0.75234 0.95433 0.3203 0.0
O67 O 0.74527 0.95544 0.34521 0.0
C68 C 0.64988 0.97764 0.28114 0.0
O69 O 0.65798 0.95664 0.26823 0.0
C70 C 0.69371 0.90022 0.30767 0.0
O71 O 0.71637 0.90113 0.32038 0.0
O72 O 0.67971 0.92097 0.30572 0.0
O73 O 0.73482 0.95864 0.30268 0.0
O74 O 0.69338 0.96568 0.35888 0.0
C75 C 0.672 0.96539 0.37199 0.0
O76 O 0.64969 0.95984 0.35986 0.0
O77 O 0.66367 0.98586 0.30051 0.0
Mg78 Mg 0.95214 0.30406 0.67595 0.0
C79 C 0.00235 0.34047 0.68279 0.0
O80 O 0.01374 0.32646 0.66417 0.0
C81 C 0.95218 0.24972 0.70247 0.0
O82 O 0.94873 0.26345 0.7242 0.0
C83 C 0.96814 0.3003 0.6203 0.0
O84 O 0.98744 0.28837 0.63303 0.0
O85 O 0.9488 0.30955 0.63344 0.0
O86 O 0.97968 0.33372 0.69128 0.0
O87 O 0.91555 0.31151 0.69714 0.0
C88 C 0.91836 0.31903 0.72096 0.0
O89 O 0.94235 0.3233 0.72999 0.0
O90 O 0.95788 0.26172 0.68117 0.0
Mg91 Mg 0.32168 0.04958 0.30493 0.0
C92 C 0.33544 0.08365 0.26373 0.0
O93 O 0.32961 0.06057 0.2535 0.0
C94 C 0.31603 0.02712 0.35744 0.0
O95 O 0.31951 0.00635 0.34225 0.0
C96 C 0.26263 0.04916 0.30166 0.0
O97 O 0.26482 0.0396 0.32565 0.0
O98 O 0.28268 0.04802 0.28651 0.0
O99 O 0.334 0.08655 0.28861 0.0
O100 O 0.35745 0.02618 0.29854 0.0
C101 C 0.36769 0.01447 0.27882 0.0
O102 O 0.35381 0.01111 0.25714 0.0
O103 O 0.31618 0.04991 0.347 0.0
Mg104 Mg 0.29802 0.31562 0.03197 0.0
C105 C 0.33519 0.29364 0.98511 0.0
O106 O 0.3215 0.27179 0.98261 0.0
C107 C 0.24731 0.28574 0.04277 0.0
O108 O 0.26398 0.26742 0.05064 0.0
C109 C 0.2883 0.36917 0.01681 0.0
O110 O 0.27831 0.35473 0.99769 0.0
O111 O 0.29814 0.35761 0.03678 0.0
O112 O 0.32759 0.31142 0.00111 0.0
O113 O 0.31431 0.29678 0.06627 0.0
C114 C 0.32533 0.27457 0.06246 0.0
O115 O 0.32644 0.26506 0.03839 0.0
O116 O 0.25615 0.3057 0.0304 0.0
Mg117 Mg 0.31026 0.69875 0.95423 0.0
C118 C 0.25204 0.68477 0.95674 0.0
O119 O 0.26199 0.66097 0.95956 0.0
C120 C 0.35545 0.73009 0.97877 0.0
O121 O 0.34995 0.74644 0.95945 0.0
C122 C 0.30779 0.74366 0.92002 0.0
O123 O 0.29222 0.74881 0.94012 0.0
O124 O 0.31928 0.72131 0.91916 0.0
O125 O 0.26748 0.70452 0.95821 0.0
O126 O 0.31693 0.65676 0.95073 0.0
C127 C 0.32352 0.64559 0.97225 0.0
O128 O 0.32671 0.66014 0.99347 0.0
O129 O 0.33956 0.71125 0.98358 0.0
Mg130 Mg 0.67845 0.67392 0.06091 0.0
C131 C 0.63327 0.6882 0.01932 0.0
O132 O 0.64737 0.67788 1.00014 0.0
C133 C 0.73665 0.67796 0.05609 0.0
O134 O 0.73393 0.65245 0.05249 0.0
C135 C 0.68365 0.62069 0.03616 0.0
O136 O 0.68479 0.63592 0.01522 0.0
O137 O 0.68088 0.63127 0.05873 0.0
O138 O 0.64253 0.6889 0.04264 0.0
O139 O 0.67321 0.68754 0.10082 0.0
C140 C 0.66968 0.71239 0.10076 0.0
O141 O 0.66867 0.72476 0.07797 0.0
O142 O 0.71629 0.69258 0.0538 0.0
Mg143 Mg 0.67317 0.29396 0.95469 0.0
C144 C 0.72132 0.297 0.92332 0.0
O145 O 0.72905 0.30269 0.94746 0.0
C146 C 0.61581 0.30121 0.96424 0.0
O147 O 0.62648 0.31518 0.98333 0.0
C148 C 0.69753 0.24351 0.97827 0.0
O149 O 0.70799 0.22932 0.99733 0.0
O150 O 0.6877 0.266 0.98378 0.0
O151 O 0.69715 0.29138 0.91941 0.0
O152 O 0.67919 0.33396 0.9684 0.0
C153 C 0.68652 0.34075 0.99144 0.0
O154 O 0.69089 0.32258 0.00942 0.0
O155 O 0.63093 0.28924 0.94814 0.0
C156 C 0.10728 0.23252 0.32599 0.0
C157 C 0.11472 0.25657 0.31438 0.0
C158 C 0.12349 0.21027 0.32407 0.0
C159 C 0.17461 0.18028 0.2824 0.0
H160 H 0.18468 0.13369 0.34227 0.0
C161 C 0.24699 0.09113 0.28033 0.0
C162 C 0.24185 0.06937 0.29677 0.0
C163 C 0.23044 0.11335 0.28076 0.0
C164 C 0.1817 0.14612 0.32514 0.0
H165 H 0.14535 0.27624 0.29204 0.0
H166 H 0.17394 0.23708 0.28865 0.0
H167 H 0.15963 0.17434 0.34768 0.0
H168 H 0.21415 0.0531 0.32491 0.0
H169 H 0.18457 0.09115 0.32466 0.0
H170 H 0.1962 0.15186 0.25967 0.0
C171 C 0.15538 0.23558 0.29919 0.0
C172 C 0.16748 0.16962 0.32835 0.0
C173 C 0.13919 0.25805 0.30136 0.0
C174 C 0.21872 0.06958 0.31211 0.0
C175 C 0.20197 0.09162 0.31224 0.0
C176 C 0.18863 0.1566 0.27909 0.0
C177 C 0.14753 0.21136 0.3103 0.0
C178 C 0.16375 0.18698 0.30704 0.0
C179 C 0.20812 0.11426 0.29736 0.0
C180 C 0.19238 0.13914 0.30042 0.0
H181 H 0.08853 0.23068 0.33615 0.0
H182 H 0.11671 0.19192 0.33265 0.0
H183 H 0.17172 0.19304 0.26548 0.0
H184 H 0.26479 0.09181 0.26849 0.0
H185 H 0.23606 0.13034 0.26914 0.0
C186 C 0.26612 0.88682 0.67098 0.0
C187 C 0.26021 0.9116 0.68181 0.0
C188 C 0.24717 0.86691 0.67079 0.0
C189 C 0.18696 0.84544 0.70483 0.0
H190 H 0.17925 0.79919 0.64423 0.0
C191 C 0.1035 0.76951 0.69862 0.0
C192 C 0.10968 0.74412 0.68921 0.0
C193 C 0.12164 0.79001 0.69653 0.0
C194 C 0.18139 0.81175 0.6614 0.0
H195 H 0.22958 0.93527 0.7005 0.0
H196 H 0.19641 0.90042 0.70003 0.0
H197 H 0.21065 0.83563 0.64258 0.0
H198 H 0.1396 0.7205 0.66963 0.0
H199 H 0.17166 0.75652 0.66616 0.0
H200 H 0.15785 0.82156 0.72373 0.0
C201 C 0.21582 0.89632 0.69196 0.0
C202 C 0.19931 0.83265 0.66045 0.0
C203 C 0.23478 0.91629 0.69207 0.0
C204 C 0.13428 0.73984 0.67706 0.0
C205 C 0.15257 0.76047 0.67501 0.0
C206 C 0.16907 0.82456 0.70579 0.0
C207 C 0.22191 0.87134 0.68146 0.0
C208 C 0.20229 0.84969 0.68216 0.0
C209 C 0.14652 0.7857 0.68505 0.0
C210 C 0.16603 0.80751 0.68407 0.0
H211 H 0.28551 0.88267 0.66289 0.0
H212 H 0.25255 0.84779 0.66284 0.0
H213 H 0.18916 0.85793 0.72206 0.0
H214 H 0.08462 0.77363 0.70784 0.0
H215 H 0.11611 0.80932 0.70392 0.0
C216 C 0.79625 0.93583 0.33373 0.0
C217 C 0.77835 0.94242 0.31346 0.0
C218 C 0.81843 0.92015 0.32859 0.0
C219 C 0.84056 0.86941 0.28124 0.0
H220 H 0.90481 0.87172 0.32316 0.0
C221 C 0.91769 0.78653 0.27274 0.0
C222 C 0.92639 0.77592 0.29693 0.0
C223 C 0.9047 0.81095 0.27184 0.0
C224 C 0.88698 0.87077 0.31131 0.0
H225 H 0.77087 0.9392 0.27142 0.0
H226 H 0.81008 0.9124 0.26224 0.0
H227 H 0.87285 0.90779 0.32614 0.0
H228 H 0.92985 0.78372 0.33891 0.0
H229 H 0.90702 0.82611 0.33738 0.0
H230 H 0.85429 0.83217 0.26688 0.0
C231 C 0.80654 0.91881 0.28233 0.0
C232 C 0.86861 0.89146 0.31303 0.0
C233 C 0.78418 0.93443 0.28752 0.0
C234 C 0.92349 0.79126 0.31992 0.0
C235 C 0.91039 0.81567 0.31903 0.0
C236 C 0.85895 0.84882 0.27944 0.0
C237 C 0.8235 0.91075 0.30296 0.0
C238 C 0.84483 0.89077 0.29847 0.0
C239 C 0.89998 0.82537 0.29511 0.0
C240 C 0.88216 0.84893 0.29485 0.0
H241 H 0.79247 0.94166 0.35395 0.0
H242 H 0.83074 0.91424 0.34508 0.0
H243 H 0.82235 0.86783 0.27006 0.0
H244 H 0.91975 0.77539 0.2546 0.0
H245 H 0.8975 0.81808 0.25298 0.0
C246 C 0.93021 0.21319 0.67774 0.0
C247 C 0.94203 0.22233 0.70112 0.0
C248 C 0.91571 0.18976 0.67751 0.0
C249 C 0.88185 0.14339 0.72422 0.0
H250 H 0.86407 0.10917 0.65823 0.0
C251 C 0.78736 0.08135 0.71411 0.0
C252 C 0.78431 0.06376 0.6929 0.0
C253 C 0.81055 0.096 0.71695 0.0
C254 C 0.86905 0.11785 0.6771 0.0
H255 H 0.9496 0.21305 0.74214 0.0
H256 H 0.9262 0.17108 0.74138 0.0
H257 H 0.89901 0.14126 0.65924 0.0
H258 H 0.8038 0.0462 0.65921 0.0
H259 H 0.84518 0.06995 0.66533 0.0
H260 H 0.85327 0.11856 0.74246 0.0
C261 C 0.92675 0.18261 0.72343 0.0
C262 C 0.88891 0.137 0.67754 0.0
C263 C 0.94059 0.20655 0.72384 0.0
C264 C 0.80563 0.05972 0.67568 0.0
C265 C 0.82923 0.07376 0.67903 0.0
C266 C 0.86263 0.12357 0.72395 0.0
C267 C 0.91321 0.17427 0.70049 0.0
C268 C 0.89497 0.15089 0.70089 0.0
C269 C 0.83173 0.09295 0.6991 0.0
C270 C 0.85513 0.11114 0.7002 0.0
H271 H 0.93061 0.22503 0.65994 0.0
H272 H 0.90536 0.18475 0.6595 0.0
H273 H 0.88551 0.15343 0.74271 0.0
H274 H 0.7711 0.08521 0.72751 0.0
H275 H 0.81104 0.11074 0.73239 0.0
C276 C 0.34281 0.23236 0.08073 0.0
C277 C 0.334 0.25833 0.08493 0.0
C278 C 0.34833 0.21594 0.10208 0.0
C279 C 0.3294 0.20734 0.17102 0.0
H280 H 0.38472 0.15411 0.17044 0.0
C281 C 0.34063 0.1319 0.25492 0.0
C282 C 0.34184 0.10569 0.24607 0.0
C283 C 0.34415 0.15262 0.23713 0.0
C284 C 0.36924 0.16894 0.17084 0.0
H285 H 0.32549 0.28802 0.11466 0.0
H286 H 0.33556 0.25938 0.15202 0.0
H287 H 0.38312 0.18724 0.13545 0.0
H288 H 0.34886 0.08045 0.2121 0.0
H289 H 0.35492 0.11654 0.18119 0.0
H290 H 0.31515 0.1887 0.20601 0.0
C291 C 0.33766 0.25159 0.13221 0.0
C292 C 0.36828 0.18781 0.15084 0.0
C293 C 0.33202 0.268 0.11084 0.0
C294 C 0.34769 0.1005 0.21946 0.0
C295 C 0.35139 0.12114 0.20179 0.0
C296 C 0.33044 0.18856 0.19104 0.0
C297 C 0.34528 0.22524 0.12803 0.0
C298 C 0.34809 0.20692 0.15053 0.0
C299 C 0.34918 0.14737 0.21036 0.0
C300 C 0.3501 0.16896 0.19089 0.0
H301 H 0.34456 0.22437 0.06096 0.0
H302 H 0.35388 0.19564 0.09824 0.0
H303 H 0.31331 0.22151 0.17102 0.0
H304 H 0.33612 0.13639 0.27534 0.0
H305 H 0.34252 0.17274 0.2442 0.0
C306 C 0.20773 0.6664 0.94481 0.0
C307 C 0.22539 0.68774 0.94473 0.0
C308 C 0.18523 0.66663 0.92872 0.0
C309 C 0.1435 0.70828 0.88392 0.0
H310 H 0.13391 0.64162 0.84765 0.0
C311 C 0.08481 0.69599 0.7855 0.0
C312 C 0.07211 0.67173 0.78093 0.0
C313 C 0.09949 0.70006 0.80867 0.0
C314 C 0.13585 0.66029 0.85787 0.0
H315 H 0.2323 0.72686 0.92884 0.0
H316 H 0.19333 0.72708 0.90039 0.0
H317 H 0.16645 0.64493 0.88256 0.0
H318 H 0.06297 0.63369 0.79808 0.0
H319 H 0.08768 0.64108 0.8387 0.0
H320 H 0.11318 0.7237 0.85844 0.0
C321 C 0.19664 0.71025 0.91315 0.0
C322 C 0.1546 0.6622 0.87802 0.0
C323 C 0.21904 0.71013 0.92951 0.0
C324 C 0.07273 0.6525 0.80088 0.0
C325 C 0.08712 0.65666 0.82408 0.0
C326 C 0.12465 0.70637 0.86363 0.0
C327 C 0.17998 0.68808 0.91183 0.0
C328 C 0.15877 0.68619 0.89134 0.0
C329 C 0.10161 0.68003 0.82782 0.0
C330 C 0.12061 0.68231 0.85032 0.0
H331 H 0.21192 0.64894 0.95646 0.0
H332 H 0.17246 0.64952 0.9288 0.0
H333 H 0.14606 0.72704 0.89383 0.0
H334 H 0.08488 0.71117 0.77045 0.0
H335 H 0.11043 0.71828 0.81081 0.0
C336 C 0.67713 0.7171 0.14951 0.0
C337 C 0.6684 0.72777 0.12542 0.0
C338 C 0.67774 0.73278 0.17225 0.0
C339 C 0.64916 0.79241 0.20163 0.0
H340 H 0.71555 0.79863 0.23957 0.0
C341 C 0.67029 0.88027 0.26931 0.0
C342 C 0.68703 0.87711 0.29126 0.0
C343 C 0.6663 0.85954 0.2517 0.0
C344 C 0.69667 0.79676 0.22963 0.0
H345 H 0.65287 0.76291 0.1063 0.0
H346 H 0.65363 0.79001 0.14593 0.0
H347 H 0.71136 0.7663 0.20413 0.0
H348 H 0.71195 0.84951 0.31256 0.0
H349 H 0.70393 0.81268 0.28242 0.0
H350 H 0.63425 0.82262 0.22696 0.0
C351 C 0.65999 0.76961 0.14728 0.0
C352 C 0.69434 0.77828 0.20928 0.0
C353 C 0.65969 0.75411 0.12459 0.0
C354 C 0.69896 0.85247 0.29577 0.0
C355 C 0.69455 0.83148 0.27836 0.0
C356 C 0.65133 0.81059 0.22219 0.0
C357 C 0.66924 0.75919 0.17125 0.0
C358 C 0.67075 0.77639 0.19475 0.0
C359 C 0.67849 0.8349 0.25586 0.0
C360 C 0.67531 0.81347 0.23604 0.0
H361 H 0.68411 0.69689 0.15065 0.0
H362 H 0.6849 0.72434 0.19058 0.0
H363 H 0.63065 0.79108 0.19088 0.0
H364 H 0.6611 0.89913 0.26502 0.0
H365 H 0.65433 0.86321 0.23432 0.0
C366 C 0.73295 0.2915 0.87542 0.0
C367 C 0.74024 0.29885 0.90118 0.0
C368 C 0.75073 0.2945 0.85449 0.0
C369 C 0.81027 0.33197 0.83548 0.0
H370 H 0.81952 0.27695 0.78303 0.0
C371 C 0.89945 0.32885 0.76538 0.0
C372 C 0.89564 0.32014 0.73929 0.0
C373 C 0.87887 0.32779 0.78363 0.0
C374 C 0.81686 0.29269 0.79727 0.0
H375 H 0.77208 0.31461 0.92526 0.0
H376 H 0.80298 0.31963 0.88894 0.0
H377 H 0.78677 0.27142 0.81793 0.0
H378 H 0.86699 0.30412 0.71173 0.0
H379 H 0.83082 0.30254 0.74367 0.0
H380 H 0.84047 0.35314 0.81504 0.0
C381 C 0.78344 0.31194 0.88478 0.0
C382 C 0.79813 0.28949 0.81729 0.0
C383 C 0.76577 0.30884 0.90565 0.0
C384 C 0.87055 0.31099 0.73167 0.0
C385 C 0.8499 0.30989 0.75001 0.0
C386 C 0.82893 0.33518 0.81547 0.0
C387 C 0.77607 0.30504 0.85893 0.0
C388 C 0.79488 0.30894 0.83681 0.0
C389 C 0.85394 0.31801 0.77628 0.0
C390 C 0.83269 0.31544 0.79632 0.0
H391 H 0.71345 0.28364 0.87138 0.0
H392 H 0.74445 0.28909 0.83477 0.0
H393 H 0.80788 0.34755 0.84993 0.0
H394 H 0.91855 0.33598 0.77194 0.0
H395 H 0.88278 0.33388 0.80377 0.0
C396 C 0.34309 0.92286 0.76048 0.0
C397 C 0.32582 0.94312 0.76874 0.0
C398 C 0.34865 0.90132 0.77711 0.0
C399 C 0.34241 0.87755 0.8465 0.0
H400 H 0.33104 0.80889 0.8146 0.0
C401 C 0.30357 0.79025 0.90534 0.0
C402 C 0.3144 0.765 0.90136 0.0
C403 C 0.31075 0.81124 0.88922 0.0
C404 C 0.33483 0.82784 0.82374 0.0
H405 H 0.30185 0.957 0.80141 0.0
H406 H 0.31107 0.91959 0.82989 0.0
H407 H 0.33457 0.84793 0.78654 0.0
H408 H 0.34098 0.74184 0.87698 0.0
H409 H 0.35325 0.7788 0.84821 0.0
H410 H 0.34161 0.8576 0.88375 0.0
C411 C 0.32066 0.92038 0.81081 0.0
C412 C 0.33688 0.85023 0.80768 0.0
C413 C 0.3152 0.94182 0.79433 0.0
C414 C 0.33228 0.76108 0.88048 0.0
C415 C 0.33932 0.7822 0.86408 0.0
C416 C 0.34038 0.85522 0.86252 0.0
C417 C 0.33703 0.8996 0.80229 0.0
C418 C 0.33981 0.87546 0.81891 0.0
C419 C 0.32882 0.80757 0.86853 0.0
C420 C 0.33564 0.83026 0.85136 0.0
H421 H 0.35194 0.92341 0.74103 0.0
H422 H 0.36163 0.88578 0.77009 0.0
H423 H 0.34513 0.89662 0.85578 0.0
H424 H 0.28968 0.794 0.92118 0.0
H425 H 0.30184 0.83039 0.89279 0.0
C426 C 0.75644 0.70954 0.08867 0.0
C427 C 0.7592 0.6872 0.07236 0.0
C428 C 0.77414 0.7139 0.10948 0.0
C429 C 0.83794 0.69218 0.1392 0.0
H430 H 0.80086 0.70188 0.20551 0.0
C431 C 0.88594 0.66416 0.23793 0.0
C432 C 0.88181 0.68051 0.25997 0.0
C433 C 0.8717 0.66811 0.21463 0.0
C434 C 0.81164 0.69961 0.18719 0.0
H435 H 0.7842 0.65355 0.06342 0.0
H436 H 0.81516 0.66128 0.09945 0.0
H437 H 0.77668 0.70551 0.16402 0.0
H438 H 0.85907 0.71361 0.27497 0.0
H439 H 0.83414 0.72062 0.23411 0.0
H440 H 0.87281 0.68583 0.16235 0.0
C441 C 0.79926 0.67533 0.09636 0.0
C442 C 0.79778 0.70176 0.16336 0.0
C443 C 0.78147 0.67086 0.07569 0.0
C444 C 0.86249 0.70048 0.25843 0.0
C445 C 0.84827 0.70454 0.23498 0.0
C446 C 0.85182 0.69014 0.16301 0.0
C447 C 0.79509 0.6962 0.11421 0.0
C448 C 0.81066 0.69753 0.13911 0.0
C449 C 0.85304 0.68865 0.21265 0.0
C450 C 0.83871 0.69321 0.18733 0.0
H451 H 0.7395 0.72256 0.0867 0.0
H452 H 0.77071 0.73043 0.12262 0.0
H453 H 0.84849 0.68916 0.12084 0.0
H454 H 0.9006 0.64852 0.23848 0.0
H455 H 0.87541 0.65505 0.1981 0.0
C456 C 0.68073 0.13057 0.76362 0.0
C457 C 0.70163 0.11225 0.76282 0.0
C458 C 0.67956 0.14944 0.78388 0.0
C459 C 0.72074 0.18257 0.83442 0.0
H460 H 0.65623 0.18668 0.87547 0.0
C461 C 0.71966 0.21865 0.94196 0.0
C462 C 0.69794 0.23342 0.95093 0.0
C463 C 0.7197 0.20792 0.91654 0.0
C464 C 0.67426 0.18621 0.86397 0.0
H465 H 0.73811 0.09986 0.78187 0.0
H466 H 0.73619 0.13266 0.81673 0.0
H467 H 0.65682 0.16131 0.8345 0.0
H468 H 0.65888 0.24771 0.94081 0.0
H469 H 0.65911 0.22969 0.89606 0.0
H470 H 0.73839 0.20699 0.86405 0.0
C471 C 0.72071 0.1326 0.8019 0.0
C472 C 0.67456 0.17167 0.84048 0.0
C473 C 0.72167 0.11365 0.78202 0.0
C474 C 0.67619 0.23714 0.93407 0.0
C475 C 0.67619 0.22645 0.9086 0.0
C476 C 0.72042 0.19719 0.8578 0.0
C477 C 0.69953 0.15052 0.80328 0.0
C478 C 0.698 0.16914 0.82584 0.0
C479 C 0.69789 0.21156 0.89959 0.0
C480 C 0.69736 0.19863 0.87322 0.0
H481 H 0.66497 0.12982 0.74911 0.0
H482 H 0.66302 0.16308 0.78449 0.0
H483 H 0.739 0.18127 0.82332 0.0
H484 H 0.73659 0.21525 0.95469 0.0
H485 H 0.73653 0.19613 0.91047 0.0
C486 C 0.20819 0.26397 0.06379 0.0
C487 C 0.22072 0.287 0.05498 0.0
C488 C 0.18554 0.26547 0.07963 0.0
C489 C 0.13682 0.31418 0.10914 0.0
H490 H 0.12945 0.25877 0.16112 0.0
C491 C 0.06186 0.3262 0.19418 0.0
C492 C 0.06851 0.31509 0.21866 0.0
C493 C 0.07609 0.31943 0.17141 0.0
C494 C 0.13134 0.27476 0.14712 0.0
H495 H 0.21897 0.32973 0.0554 0.0
H496 H 0.18085 0.33253 0.08398 0.0
H497 H 0.1626 0.25467 0.12733 0.0
H498 H 0.09516 0.28808 0.23859 0.0
H499 H 0.12094 0.27766 0.19986 0.0
H500 H 0.10748 0.33551 0.1305 0.0
C501 C 0.18744 0.31311 0.07799 0.0
C502 C 0.15016 0.27208 0.12708 0.0
C503 C 0.20956 0.31156 0.06152 0.0
C504 C 0.08919 0.29656 0.21986 0.0
C505 C 0.104 0.29051 0.19738 0.0
C506 C 0.11862 0.31728 0.12972 0.0
C507 C 0.17533 0.2901 0.08784 0.0
C508 C 0.15352 0.2919 0.10789 0.0
C509 C 0.09807 0.30219 0.17277 0.0
C510 C 0.11579 0.29779 0.14935 0.0
H511 H 0.21632 0.24475 0.059 0.0
H512 H 0.1765 0.2472 0.08588 0.0
H513 H 0.13797 0.32966 0.0945 0.0
H514 H 0.04603 0.3406 0.19275 0.0
H515 H 0.07011 0.32831 0.15292 0.0
C516 C 0.94687 0.30585 0.57565 0.0
C517 C 0.96974 0.30329 0.59132 0.0
C518 C 0.94893 0.30769 0.54809 0.0
C519 C 0.99501 0.32762 0.49616 0.0
H520 H 0.95723 0.27974 0.44981 0.0
C521 C 0.02906 0.31109 0.39029 0.0
C522 C 0.01013 0.30994 0.36993 0.0
C523 C 0.02138 0.31076 0.41669 0.0
C524 C 0.96759 0.29352 0.46245 0.0
H525 H 0.01258 0.30113 0.59057 0.0
H526 H 0.01615 0.30501 0.54279 0.0
H527 H 0.94833 0.27928 0.49743 0.0
H528 H 0.96818 0.30658 0.36156 0.0
H529 H 0.95468 0.30603 0.40808 0.0
H530 H 0.01441 0.34184 0.4616 0.0
C531 C 0.99667 0.30536 0.55167 0.0
C532 C 0.9625 0.29324 0.48967 0.0
C533 C 0.99461 0.303 0.57902 0.0
C534 C 0.98326 0.30758 0.37674 0.0
C535 C 0.97553 0.3072 0.40337 0.0
C536 C 0.99995 0.32802 0.46909 0.0
C537 C 0.97389 0.30763 0.53589 0.0
C538 C 0.97666 0.30987 0.50682 0.0
C539 C 0.99453 0.30931 0.42362 0.0
C540 C 0.98686 0.31051 0.45196 0.0
H541 H 0.92745 0.30597 0.58465 0.0
H542 H 0.93107 0.30947 0.53634 0.0
H543 H 0.00587 0.34096 0.50888 0.0
H544 H 0.04996 0.31263 0.3859 0.0
H545 H 0.0366 0.31174 0.43175 0.0
C546 C 0.31422 0.99882 0.39773 0.0
C547 C 0.31162 0.02382 0.38602 0.0
C548 C 0.31066 0.9957 0.42487 0.0
C549 C 0.28126 0.02679 0.48373 0.0
H550 H 0.33515 0.98738 0.52157 0.0
C551 C 0.29301 0.03006 0.59784 0.0
C552 C 0.30059 0.00657 0.61056 0.0
C553 C 0.29198 0.03132 0.57017 0.0
C554 C 0.31969 0.99812 0.51131 0.0
H555 H 0.30257 0.06505 0.39339 0.0
H556 H 0.2964 0.05958 0.44085 0.0
H557 H 0.33736 0.99061 0.47369 0.0
H558 H 0.31174 0.96562 0.60406 0.0
H559 H 0.30957 0.96778 0.55629 0.0
H560 H 0.26364 0.0344 0.52143 0.0
C561 C 0.30109 0.04239 0.429 0.0
C562 C 0.32099 0.99997 0.48386 0.0
C563 C 0.30484 0.04555 0.40188 0.0
C564 C 0.30622 0.98421 0.59501 0.0
C565 C 0.30508 0.98543 0.56753 0.0
C566 C 0.27989 0.02486 0.51124 0.0
C567 C 0.30424 0.01749 0.4408 0.0
C568 C 0.30192 0.01449 0.4698 0.0
C569 C 0.29841 0.0091 0.55471 0.0
C570 C 0.2992 0.01065 0.52538 0.0
H571 H 0.31931 0.98165 0.38601 0.0
H572 H 0.31295 0.97623 0.4334 0.0
H573 H 0.26611 0.03786 0.47332 0.0
H574 H 0.2885 0.04762 0.60919 0.0
H575 H 0.28692 0.04992 0.5609 0.0
C576 C 0.99944 0.72678 0.62017 0.0
C577 C 0.00738 0.70257 0.63116 0.0
C578 C 0.9873 0.72774 0.59533 0.0
C579 C 0.95773 0.68603 0.54156 0.0
H580 H 0.98248 0.74318 0.49734 0.0
C581 C 0.92785 0.69709 0.43042 0.0
C582 C 0.94856 0.70426 0.41337 0.0
C583 C 0.93146 0.6978 0.45796 0.0
C584 C 0.9754 0.72701 0.50934 0.0
H585 H 0.00774 0.66021 0.62507 0.0
H586 H 0.98734 0.66188 0.5815 0.0
H587 H 0.99483 0.74209 0.54355 0.0
H588 H 0.98927 0.71778 0.41206 0.0
H589 H 0.99551 0.71871 0.45938 0.0
H590 H 0.93946 0.67031 0.50666 0.0
C591 C 0.98993 0.68018 0.59222 0.0
C592 C 0.98217 0.72658 0.53608 0.0
C593 C 0.00176 0.67921 0.61725 0.0
C594 C 0.97278 0.71221 0.42447 0.0
C595 C 0.97634 0.71296 0.45176 0.0
C596 C 0.95106 0.68638 0.51465 0.0
C597 C 0.98314 0.70453 0.58059 0.0
C598 C 0.97378 0.7059 0.55257 0.0
C599 C 0.95577 0.70585 0.46895 0.0
C600 C 0.96028 0.70663 0.49809 0.0
H601 H 0.00324 0.74513 0.63046 0.0
H602 H 0.98174 0.74682 0.58743 0.0
H603 H 0.95055 0.66997 0.55365 0.0
H604 H 0.90896 0.69082 0.42251 0.0
H605 H 0.91514 0.69231 0.47062 0.0
C606 C 0.69129 0.00375 0.60785 0.0
C607 C 0.68864 0.02961 0.61757 0.0
C608 C 0.68704 0.99825 0.58124 0.0
C609 C 0.68673 0.0286 0.51561 0.0
H610 H 0.65148 0.96358 0.49586 0.0
C611 C 0.69517 0.98346 0.4117 0.0
C612 C 0.67216 0.97298 0.40018 0.0
C613 C 0.69519 0.99166 0.43801 0.0
C614 C 0.66111 0.98194 0.50102 0.0
H615 H 0.67936 0.07003 0.60692 0.0
H616 H 0.67177 0.06033 0.5601 0.0
H617 H 0.65413 0.97618 0.54224 0.0
H618 H 0.63119 0.96264 0.4073 0.0
H619 H 0.6313 0.97682 0.45342 0.0
H620 H 0.69372 0.0343 0.47433 0.0
C621 C 0.67735 0.04438 0.57322 0.0
C622 C 0.66286 0.98904 0.5276 0.0
C623 C 0.68162 0.04992 0.6 0.0
C624 C 0.64923 0.97062 0.41562 0.0
C625 C 0.64931 0.97866 0.44203 0.0
C626 C 0.68503 0.02146 0.48901 0.0
C627 C 0.67996 0.01844 0.56361 0.0
C628 C 0.67605 0.01223 0.53523 0.0
C629 C 0.67225 0.98942 0.45344 0.0
C630 C 0.67254 0.99787 0.48148 0.0
H631 H 0.69679 0.98761 0.62078 0.0
H632 H 0.68973 0.97816 0.57441 0.0
H633 H 0.69715 0.0465 0.52085 0.0
H634 H 0.71318 0.98557 0.40035 0.0
H635 H 0.71329 0.99948 0.44636 0.0
C636 C 0.40909 0.99547 0.25855 0.0
C637 C 0.39667 0.00947 0.27905 0.0
C638 C 0.43672 0.99311 0.25783 0.0
C639 C 0.49771 0.02531 0.28231 0.0
H640 H 0.53093 0.95866 0.26442 0.0
C641 C 0.61013 0.00389 0.2958 0.0
C642 C 0.62238 0.98729 0.27715 0.0
C643 C 0.58284 0.00879 0.29456 0.0
C644 C 0.52201 0.97755 0.26906 0.0
H645 H 0.40373 0.03179 0.31504 0.0
H646 H 0.4516 0.02764 0.31371 0.0
H647 H 0.48288 0.9619 0.26544 0.0
H648 H 0.61579 0.96436 0.24157 0.0
H649 H 0.56855 0.97329 0.23916 0.0
H650 H 0.53692 0.04091 0.28606 0.0
C651 C 0.44006 0.01862 0.2981 0.0
C652 C 0.49442 0.97937 0.26969 0.0
C653 C 0.41252 0.02072 0.29898 0.0
C654 C 0.60702 0.97706 0.25639 0.0
C655 C 0.57983 0.98198 0.25514 0.0
C656 C 0.52535 0.0235 0.28164 0.0
C657 C 0.45253 0.00499 0.27742 0.0
C658 C 0.48192 0.00324 0.27636 0.0
C659 C 0.56724 0.99721 0.27465 0.0
C660 C 0.53785 0.99959 0.27498 0.0
H661 H 0.3975 0.98667 0.24286 0.0
H662 H 0.44574 0.98258 0.24154 0.0
H663 H 0.48868 0.04409 0.28722 0.0
H664 H 0.62133 0.01201 0.31213 0.0
H665 H 0.57379 0.02058 0.30996 0.0
C666 C 0.02513 0.57473 0.70285 0.0
C667 C 0.04827 0.58813 0.69544 0.0
C668 C 0.02479 0.54727 0.70464 0.0
C669 C 0.05584 0.48742 0.67942 0.0
H670 H 0.02005 0.45456 0.73846 0.0
C671 C 0.03842 0.37464 0.68185 0.0
C672 C 0.01326 0.3666 0.69041 0.0
C673 C 0.047 0.40062 0.68595 0.0
C674 C 0.02993 0.46334 0.7217 0.0
H675 H 0.08926 0.58304 0.68396 0.0
H676 H 0.08851 0.53462 0.68667 0.0
H677 H 0.02679 0.50212 0.73828 0.0
H678 H 0.97784 0.37941 0.71097 0.0
H679 H 0.99228 0.42448 0.71736 0.0
H680 H 0.05789 0.44894 0.66216 0.0
C681 C 0.07069 0.54563 0.69121 0.0
C682 C 0.03391 0.49063 0.72168 0.0
C683 C 0.07112 0.5733 0.6897 0.0
C684 C 0.99739 0.38481 0.70417 0.0
C685 C 0.0058 0.41078 0.70798 0.0
C686 C 0.0516 0.46011 0.67927 0.0
C687 C 0.04751 0.53236 0.69887 0.0
C688 C 0.04637 0.50306 0.70028 0.0
C689 C 0.03051 0.41926 0.69848 0.0
C690 C 0.03802 0.44775 0.70014 0.0
H691 H 0.00713 0.58544 0.70742 0.0
H692 H 0.00651 0.53765 0.71017 0.0
H693 H 0.06536 0.49646 0.66257 0.0
H694 H 0.05123 0.36107 0.67135 0.0
H695 H 0.06637 0.4062 0.67883 0.0
C696 C 0.60937 0.02079 0.74696 0.0
C697 C 0.62857 0.01572 0.72759 0.0
C698 C 0.58377 0.01091 0.74424 0.0
C699 C 0.53766 0.99257 0.6918 0.0
H700 H 0.49253 0.97321 0.75045 0.0
C701 C 0.42663 0.96794 0.67945 0.0
C702 C 0.40972 0.97989 0.6979 0.0
C703 C 0.45402 0.96909 0.68287 0.0
C704 C 0.50492 0.97867 0.73392 0.0
H705 H 0.63644 0.99482 0.69099 0.0
H706 H 0.59172 0.97735 0.68639 0.0
H707 H 0.53999 0.97853 0.75765 0.0
H708 H 0.40803 0.00263 0.7342 0.0
H709 H 0.4558 0.00448 0.74021 0.0
H710 H 0.50248 0.99322 0.6682 0.0
C711 C 0.59643 0.98928 0.70352 0.0
C712 C 0.53205 0.98166 0.73801 0.0
C713 C 0.62212 0.99907 0.70631 0.0
C714 C 0.42061 0.99321 0.71967 0.0
C715 C 0.44793 0.99408 0.72325 0.0
C716 C 0.51053 0.9895 0.68769 0.0
C717 C 0.57679 0.99579 0.72204 0.0
C718 C 0.54865 0.98916 0.71711 0.0
C719 C 0.46489 0.98192 0.70496 0.0
C720 C 0.49386 0.98304 0.70882 0.0
H721 H 0.61373 0.03351 0.7636 0.0
H722 H 0.56908 0.01646 0.75878 0.0
H723 H 0.54981 0.99878 0.67536 0.0
H724 H 0.4187 0.95773 0.66241 0.0
H725 H 0.46668 0.95955 0.66849 0.0
C726 C 0.97165 0.60919 0.32201 0.0
C727 C 0.98694 0.62966 0.31122 0.0
C728 C 0.98054 0.58307 0.3214 0.0
C729 C 0.02802 0.53772 0.28819 0.0
H730 H 0.01087 0.49279 0.34763 0.0
C731 C 0.06237 0.42741 0.29766 0.0
C732 C 0.04239 0.4098 0.30544 0.0
C733 C 0.05796 0.45484 0.29843 0.0
C734 C 0.01574 0.50502 0.33081 0.0
H735 H 0.02369 0.63845 0.29115 0.0
H736 H 0.03954 0.59273 0.2905 0.0
H737 H 0.99912 0.53932 0.34895 0.0
H738 H 0.0022 0.40734 0.32027 0.0
H739 H 0.99475 0.45462 0.3218 0.0
H740 H 0.04476 0.50308 0.27021 0.0
C741 C 0.02042 0.59695 0.29917 0.0
C742 C 0.0089 0.53176 0.3315 0.0
C743 C 0.01141 0.62321 0.29967 0.0
C744 C 0.01809 0.42023 0.31413 0.0
C745 C 0.01382 0.44743 0.31517 0.0
C746 C 0.03507 0.51089 0.2876 0.0
C747 C 0.00513 0.57652 0.31016 0.0
C748 C 0.01443 0.54843 0.31 0.0
C749 C 0.03365 0.46513 0.30737 0.0
C750 C 0.02854 0.49413 0.30871 0.0
H751 H 0.95257 0.61326 0.33085 0.0
H752 H 0.96786 0.56794 0.3295 0.0
H753 H 0.03245 0.54983 0.27118 0.0
H754 H 0.08127 0.42003 0.29079 0.0
H755 H 0.07366 0.46798 0.29237 0.0
C756 C 0.3031 0.41351 0.03284 0.0
C757 C 0.29058 0.39797 0.01356 0.0
C758 C 0.30717 0.4404 0.02847 0.0
C759 C 0.28493 0.4962 0.98697 0.0
H760 H 0.35329 0.52585 0.00497 0.0
C761 C 0.31426 0.6005 0.95436 0.0
C762 C 0.32435 0.61661 0.97455 0.0
C763 C 0.31196 0.57332 0.9582 0.0
C764 C 0.33409 0.51783 0.99995 0.0
H765 H 0.27191 0.39849 0.97492 0.0
H766 H 0.27927 0.44516 0.96722 0.0
H767 H 0.34418 0.47963 0.01495 0.0
H768 H 0.34133 0.61679 0.01396 0.0
H769 H 0.33728 0.56944 0.02061 0.0
H770 H 0.27486 0.53433 0.97192 0.0
C771 C 0.28569 0.43673 0.98581 0.0
C772 C 0.32881 0.49145 0.0058 0.0
C773 C 0.28159 0.40993 0.99019 0.0
C774 C 0.33334 0.6049 0.99808 0.0
C775 C 0.33116 0.57776 0.00185 0.0
C776 C 0.29024 0.5225 0.98105 0.0
C777 C 0.29878 0.4522 0.00475 0.0
C778 C 0.30417 0.48037 0.99934 0.0
C779 C 0.31987 0.5618 0.98221 0.0
C780 C 0.31486 0.53357 0.98747 0.0
H781 H 0.31018 0.40483 0.05109 0.0
H782 H 0.31696 0.45194 0.04359 0.0
H783 H 0.26562 0.48833 0.98212 0.0
H784 H 0.30724 0.60897 0.93599 0.0
H785 H 0.30352 0.56136 0.94259 0.0
C786 C 0.39291 0.70609 0.00084 0.0
C787 C 0.38281 0.72927 0.98932 0.0
C788 C 0.42005 0.70337 0.00564 0.0
C789 C 0.48409 0.72983 0.98253 0.0
H790 H 0.5121 0.69084 0.04221 0.0
C791 C 0.59344 0.69469 0.99001 0.0
C792 C 0.60542 0.6964 0.01502 0.0
C793 C 0.56644 0.7003 0.98693 0.0
C794 C 0.50462 0.70197 0.02552 0.0
H795 H 0.39304 0.76841 0.97547 0.0
H796 H 0.44017 0.76399 0.98466 0.0
H797 H 0.46464 0.69841 0.03876 0.0
H798 H 0.59856 0.70636 0.05621 0.0
H799 H 0.5519 0.71618 0.05074 0.0
H800 H 0.52422 0.73373 0.96959 0.0
C801 C 0.42728 0.74759 0.98921 0.0
C802 C 0.47736 0.70606 0.0234 0.0
C803 C 0.4002 0.75024 0.98424 0.0
C804 C 0.59002 0.70464 0.03665 0.0
C805 C 0.56316 0.7101 0.03359 0.0
C806 C 0.51138 0.72576 0.98468 0.0
C807 C 0.43764 0.72385 0.99924 0.0
C808 C 0.46674 0.72005 0.00189 0.0
C809 C 0.55093 0.70757 0.00883 0.0
C810 C 0.52195 0.71182 0.00623 0.0
H811 H 0.38012 0.68945 0.00477 0.0
H812 H 0.42733 0.68473 0.01321 0.0
H813 H 0.47657 0.74032 0.96546 0.0
H814 H 0.60474 0.68846 0.97296 0.0
H815 H 0.55754 0.69811 0.96758 0.0
C816 C 0.69335 0.37775 0.02389 0.0
C817 C 0.68907 0.36913 0.99783 0.0
C818 C 0.69412 0.40477 0.02974 0.0
C819 C 0.67072 0.4683 0.00279 0.0
H820 H 0.72097 0.49991 0.05127 0.0
C821 C 0.68493 0.58012 0.00819 0.0
C822 C 0.68569 0.59171 0.03337 0.0
C823 C 0.68617 0.55277 0.00535 0.0
C824 C 0.70667 0.49126 0.03788 0.0
H825 H 0.68351 0.38209 0.95734 0.0
H826 H 0.68521 0.42883 0.96745 0.0
H827 H 0.72201 0.45214 0.04362 0.0
H828 H 0.6891 0.58373 0.07533 0.0
H829 H 0.69134 0.53573 0.07029 0.0
H830 H 0.65554 0.50724 0.99677 0.0
C831 C 0.68731 0.41486 0.9835 0.0
C832 C 0.70725 0.46396 0.03353 0.0
C833 C 0.68647 0.38801 0.97769 0.0
C834 C 0.6883 0.57536 0.05566 0.0
C835 C 0.68976 0.54792 0.05279 0.0
C836 C 0.67023 0.49546 0.00703 0.0
C837 C 0.69062 0.42359 0.00963 0.0
C838 C 0.6895 0.45227 0.01561 0.0
C839 C 0.68836 0.53636 0.02761 0.0
C840 C 0.6884 0.50729 0.02433 0.0
H841 H 0.69551 0.36367 0.03984 0.0
H842 H 0.69664 0.41089 0.05008 0.0
H843 H 0.65632 0.45985 0.98939 0.0
H844 H 0.68305 0.59214 0.9906 0.0
H845 H 0.68543 0.54442 0.98567 0.0
C846 C 0.37374 0.27529 0.95928 0.0
C847 C 0.36237 0.29575 0.97422 0.0
C848 C 0.40065 0.276 0.95259 0.0
C849 C 0.45979 0.32059 0.95272 0.0
H850 H 0.49894 0.25504 0.95985 0.0
C851 C 0.5707 0.3171 0.97645 0.0
C852 C 0.5867 0.29998 0.96154 0.0
C853 C 0.54322 0.31629 0.97409 0.0
C854 C 0.48821 0.27342 0.95747 0.0
H855 H 0.37028 0.33355 0.99291 0.0
H856 H 0.4167 0.33431 0.98221 0.0
H857 H 0.45071 0.25452 0.96175 0.0
H858 H 0.58643 0.26837 0.93263 0.0
H859 H 0.53808 0.26672 0.92885 0.0
H860 H 0.49746 0.33956 0.94983 0.0
C861 C 0.40502 0.31795 0.97498 0.0
C862 C 0.46054 0.27316 0.95841 0.0
C863 C 0.37823 0.3174 0.98133 0.0
C864 C 0.5746 0.28186 0.94432 0.0
C865 C 0.54699 0.28083 0.94222 0.0
C866 C 0.48739 0.32087 0.95218 0.0
C867 C 0.41678 0.29709 0.9609 0.0
C868 C 0.44597 0.29683 0.95659 0.0
C869 C 0.53109 0.29817 0.95698 0.0
C870 C 0.50187 0.29737 0.95502 0.0
H871 H 0.36209 0.25836 0.95343 0.0
H872 H 0.4089 0.25979 0.94133 0.0
H873 H 0.44932 0.33914 0.95054 0.0
H874 H 0.57937 0.33128 0.9899 0.0
H875 H 0.53141 0.32965 0.98595 0.0
loop_
_geom_bond_atom_site_label_1
_geom_bond_atom_site_label_2
_geom_bond_distance
_geom_bond_site_symmetry_2
_ccdc_geom_bond_type
Mg0 O7 2.141 . S
Mg0 O8 2.048 . S
Mg0 O9 2.048 . S
Mg0 O12 2.141 . S
C1 O2 1.313 . S
C1 O8 1.195 . S
O2 C1 1.313 . S
C3 O4 1.245 . S
C3 O12 1.289 . S
O4 C3 1.245 . S
C5 O6 1.245 . S
C5 O7 1.289 . S
O6 C5 1.245 . S
O7 Mg0 2.141 . S
O7 C5 1.289 . S
O8 Mg0 2.048 . S
O8 C1 1.195 . S
O9 Mg0 2.048 . S
O9 C10 1.195 . S
C10 O9 1.195 . S
C10 O11 1.313 . S
O11 C10 1.313 . S
O12 Mg0 2.141 . S
O12 C3 1.289 . S
Mg13 O20 2.141 . S
Mg13 O21 2.048 . S
Mg13 O22 2.048 . S
Mg13 O25 2.141 . S
C14 O15 1.313 . S
C14 O21 1.195 . S
O15 C14 1.313 . S
C16 O17 1.245 . S
C16 O25 1.289 . S
O17 C16 1.245 . S
C18 O19 1.245 . S
C18 O20 1.289 . S
O19 C18 1.245 . S
O20 Mg13 2.141 . S
O20 C18 1.289 . S
O21 Mg13 2.048 . S
O21 C14 1.195 . S
O22 Mg13 2.048 . S
O22 C23 1.195 . S
C23 O22 1.195 . S
C23 O24 1.313 . S
O24 C23 1.313 . S
O25 Mg13 2.141 . S
O25 C16 1.289 . S
Mg26 O33 2.141 . S
Mg26 O34 2.048 . S
Mg26 O35 2.048 . S
Mg26 O38 2.141 . S
C27 O28 1.313 . S
C27 O34 1.195 . S
O28 C27 1.313 . S
C29 O30 1.245 . S
C29 O38 1.289 . S
O30 C29 1.245 . S
C31 O32 1.245 . S
C31 O33 1.289 . S
O32 C31 1.245 . S
O33 Mg26 2.141 . S
O33 C31 1.289 . S
O34 Mg26 2.048 . S
O34 C27 1.195 . S
O35 Mg26 2.048 . S
O35 C36 1.195 . S
C36 O35 1.195 . S
C36 O37 1.313 . S
O37 C36 1.313 . S
O38 Mg26 2.141 . S
O38 C29 1.289 . S
Mg39 O46 2.141 . S
Mg39 O47 2.048 . S
Mg39 O48 2.048 . S
Mg39 O51 2.141 . S
C40 O41 1.313 1_545 S
C40 O47 1.195 . S
O41 C40 1.313 1_565 S
C42 O43 1.245 . S
C42 O51 1.289 . S
O43 C42 1.245 . S
C44 O45 1.245 1_545 S
C44 O46 1.289 . S
O45 C44 1.245 1_565 S
O46 Mg39 2.141 . S
O46 C44 1.289 . S
O47 Mg39 2.048 . S
O47 C40 1.195 . S
O48 Mg39 2.048 . S
O48 C49 1.195 . S
C49 O48 1.195 . S
C49 O50 1.313 . S
O50 C49 1.313 . S
O51 Mg39 2.141 . S
O51 C42 1.289 . S
Mg52 O59 2.141 . S
Mg52 O60 2.048 . S
Mg52 O61 2.048 . S
Mg52 O64 2.141 . S
C53 O54 1.313 1_455 S
C53 O60 1.195 . S
O54 C53 1.313 1_655 S
C55 O56 1.245 . S
C55 O64 1.289 . S
O56 C55 1.245 . S
C57 O58 1.245 1_455 S
C57 O59 1.289 . S
O58 C57 1.245 1_655 S
O59 Mg52 2.141 . S
O59 C57 1.289 . S
O60 Mg52 2.048 . S
O60 C53 1.195 . S
O61 Mg52 2.048 . S
O61 C62 1.195 . S
C62 O61 1.195 . S
C62 O63 1.313 . S
O63 C62 1.313 . S
O64 Mg52 2.141 . S
O64 C55 1.289 . S
Mg65 O72 2.141 . S
Mg65 O73 2.048 . S
Mg65 O74 2.048 . S
Mg65 O77 2.141 . S
C66 O67 1.313 . S
C66 O73 1.195 . S
O67 C66 1.313 . S
C68 O69 1.245 . S
C68 O77 1.289 . S
O69 C68 1.245 . S
C70 O71 1.245 . S
C70 O72 1.289 . S
O71 C70 1.245 . S
O72 Mg65 2.141 . S
O72 C70 1.289 . S
O73 Mg65 2.048 . S
O73 C66 1.195 . S
O74 Mg65 2.048 . S
O74 C75 1.195 . S
C75 O74 1.195 . S
C75 O76 1.313 . S
O76 C75 1.313 . S
O77 Mg65 2.141 . S
O77 C68 1.289 . S
Mg78 O85 2.141 . S
Mg78 O86 2.048 . S
Mg78 O87 2.048 . S
Mg78 O90 2.141 . S
C79 O80 1.313 1_655 S
C79 O86 1.195 . S
O80 C79 1.313 1_455 S
C81 O82 1.245 . S
C81 O90 1.289 . S
O82 C81 1.245 . S
C83 O84 1.245 1_655 S
C83 O85 1.289 . S
O84 C83 1.245 1_455 S
O85 Mg78 2.141 . S
O85 C83 1.289 . S
O86 Mg78 2.048 . S
O86 C79 1.195 . S
O87 Mg78 2.048 . S
O87 C88 1.195 . S
C88 O87 1.195 . S
C88 O89 1.313 . S
O89 C88 1.313 . S
O90 Mg78 2.141 . S
O90 C81 1.289 . S
Mg91 O98 2.141 . S
Mg91 O99 2.048 . S
Mg91 O100 2.048 . S
Mg91 O103 2.141 . S
C92 O93 1.313 . S
C92 O99 1.195 . S
O93 C92 1.313 . S
C94 O95 1.245 . S
C94 O103 1.289 . S
O95 C94 1.245 . S
C96 O97 1.245 . S
C96 O98 1.289 . S
O97 C96 1.245 . S
O98 Mg91 2.141 . S
O98 C96 1.289 . S
O99 Mg91 2.048 . S
O99 C92 1.195 . S
O100 Mg91 2.048 . S
O100 C101 1.195 . S
C101 O100 1.195 . S
C101 O102 1.313 . S
O102 C101 1.313 . S
O103 Mg91 2.141 . S
O103 C94 1.289 . S
Mg104 O111 2.141 . S
Mg104 O112 2.048 . S
Mg104 O113 2.048 . S
Mg104 O116 2.141 . S
C105 O106 1.313 . S
C105 O112 1.195 . S
O106 C105 1.313 . S
C107 O108 1.245 . S
C107 O116 1.289 . S
O108 C107 1.245 . S
C109 O110 1.245 1_554 S
C109 O111 1.289 . S
O110 C109 1.245 1_556 S
O111 Mg104 2.141 . S
O111 C109 1.289 . S
O112 Mg104 2.048 . S
O112 C105 1.195 . S
O113 Mg104 2.048 . S
O113 C114 1.195 . S
C114 O113 1.195 . S
C114 O115 1.313 . S
O115 C114 1.313 . S
O116 Mg104 2.141 . S
O116 C107 1.289 . S
Mg117 O124 2.141 . S
Mg117 O125 2.048 . S
Mg117 O126 2.048 . S
Mg117 O129 2.141 . S
C118 O119 1.313 . S
C118 O125 1.195 . S
O119 C118 1.313 . S
C120 O121 1.245 . S
C120 O129 1.289 . S
O121 C120 1.245 . S
C122 O123 1.245 . S
C122 O124 1.289 . S
O123 C122 1.245 . S
O124 Mg117 2.141 . S
O124 C122 1.289 . S
O125 Mg117 2.048 . S
O125 C118 1.195 . S
O126 Mg117 2.048 . S
O126 C127 1.195 . S
C127 O126 1.195 . S
C127 O128 1.313 . S
O128 C127 1.313 . S
O129 Mg117 2.141 . S
O129 C120 1.289 . S
Mg130 O137 2.141 . S
Mg130 O138 2.048 . S
Mg130 O139 2.048 . S
Mg130 O142 2.141 . S
C131 O132 1.313 1_554 S
C131 O138 1.195 . S
O132 C131 1.313 1_556 S
C133 O134 1.245 . S
C133 O142 1.289 . S
O134 C133 1.245 . S
C135 O136 1.245 1_554 S
C135 O137 1.289 . S
O136 C135 1.245 1_556 S
O137 Mg130 2.141 . S
O137 C135 1.289 . S
O138 Mg130 2.048 . S
O138 C131 1.195 . S
O139 Mg130 2.048 . S
O139 C140 1.195 . S
C140 O139 1.195 . S
C140 O141 1.313 . S
O141 C140 1.313 . S
O142 Mg130 2.141 . S
O142 C133 1.289 . S
Mg143 O150 2.141 . S
Mg143 O151 2.048 . S
Mg143 O152 2.048 . S
Mg143 O155 2.141 . S
C144 O145 1.313 . S
C144 O151 1.195 . S
O145 C144 1.313 . S
C146 O147 1.245 1_556 S
C146 O155 1.289 . S
O147 C146 1.245 1_554 S
C148 O149 1.245 . S
C148 O150 1.289 . S
O149 C148 1.245 . S
O150 Mg143 2.141 . S
O150 C148 1.289 . S
O151 Mg143 2.048 . S
O151 C144 1.195 . S
O152 Mg143 2.048 . S
O152 C153 1.195 . S
C153 O152 1.195 . S
C153 O154 1.313 . S
O154 C153 1.313 . S
O155 Mg143 2.141 . S
O155 C146 1.289 . S
C156 C157 1.349 . S
C156 C158 1.327 . S
C156 H181 0.950 . S
C157 C156 1.349 . S
C157 C173 1.349 . S
C158 C156 1.327 . S
C158 C177 1.429 . S
C158 H182 0.950 . S
C159 C176 1.574 . S
C159 C178 1.368 . S
C159 H183 0.949 . S
H160 C164 0.949 . S
C161 C162 1.349 . S
C161 C163 1.327 . S
C161 H184 0.950 . S
C162 C161 1.349 . S
C162 C174 1.349 . S
C163 C161 1.327 . S
C163 C179 1.429 . S
C163 H185 0.950 . S
C164 H160 0.949 . S
C164 C172 1.574 . S
C164 C180 1.368 . S
H165 C173 0.950 . S
H166 C171 0.950 . S
H167 C172 0.949 . S
H168 C174 0.950 . S
H169 C175 0.950 . S
H170 C176 0.949 . S
C171 H166 0.950 . S
C171 C173 1.327 . S
C171 C177 1.429 . S
C172 C164 1.574 . S
C172 H167 0.949 . S
C172 C178 1.368 . S
C173 C157 1.349 . S
C173 H165 0.950 . S
C173 C171 1.327 . S
C174 C162 1.349 . S
C174 H168 0.950 . S
C174 C175 1.327 . S
C175 H169 0.950 . S
C175 C174 1.327 . S
C175 C179 1.429 . S
C176 C159 1.574 . S
C176 H170 0.949 . S
C176 C180 1.368 . S
C177 C158 1.429 . S
C177 C171 1.429 . S
C177 C178 1.523 . S
C178 C159 1.368 . S
C178 C172 1.368 . S
C178 C177 1.523 . S
C179 C163 1.429 . S
C179 C175 1.429 . S
C179 C180 1.523 . S
C180 C164 1.368 . S
C180 C176 1.368 . S
C180 C179 1.523 . S
H181 C156 0.950 . S
H182 C158 0.950 . S
H183 C159 0.949 . S
H184 C161 0.950 . S
H185 C163 0.950 . S
C186 C187 1.349 . S
C186 C188 1.327 . S
C186 H211 0.950 . S
C187 C186 1.349 . S
C187 C203 1.349 . S
C188 C186 1.327 . S
C188 C207 1.429 . S
C188 H212 0.950 . S
C189 C206 1.574 . S
C189 C208 1.368 . S
C189 H213 0.949 . S
H190 C194 0.949 . S
C191 C192 1.349 . S
C191 C193 1.327 . S
C191 H214 0.950 . S
C192 C191 1.349 . S
C192 C204 1.349 . S
C193 C191 1.327 . S
C193 C209 1.429 . S
C193 H215 0.950 . S
C194 H190 0.949 . S
C194 C202 1.574 . S
C194 C210 1.368 . S
H195 C203 0.950 . S
H196 C201 0.950 . S
H197 C202 0.949 . S
H198 C204 0.950 . S
H199 C205 0.950 . S
H200 C206 0.949 . S
C201 H196 0.950 . S
C201 C203 1.327 . S
C201 C207 1.429 . S
C202 C194 1.574 . S
C202 H197 0.949 . S
C202 C208 1.368 . S
C203 C187 1.349 . S
C203 H195 0.950 . S
C203 C201 1.327 . S
C204 C192 1.349 . S
C204 H198 0.950 . S
C204 C205 1.327 . S
C205 H199 0.950 . S
C205 C204 1.327 . S
C205 C209 1.429 . S
C206 C189 1.574 . S
C206 H200 0.949 . S
C206 C210 1.368 . S
C207 C188 1.429 . S
C207 C201 1.429 . S
C207 C208 1.523 . S
C208 C189 1.368 . S
C208 C202 1.368 . S
C208 C207 1.523 . S
C209 C193 1.429 . S
C209 C205 1.429 . S
C209 C210 1.523 . S
C210 C194 1.368 . S
C210 C206 1.368 . S
C210 C209 1.523 . S
H211 C186 0.950 . S
H212 C188 0.950 . S
H213 C189 0.949 . S
H214 C191 0.950 . S
H215 C193 0.950 . S
C216 C217 1.349 . S
C216 C218 1.327 . S
C216 H241 0.950 . S
C217 C216 1.349 . S
C217 C233 1.349 . S
C218 C216 1.327 . S
C218 C237 1.429 . S
C218 H242 0.950 . S
C219 C236 1.574 . S
C219 C238 1.368 . S
C219 H243 0.949 . S
H220 C224 0.949 . S
C221 C222 1.349 . S
C221 C223 1.327 . S
C221 H244 0.950 . S
C222 C221 1.349 . S
C222 C234 1.349 . S
C223 C221 1.327 . S
C223 C239 1.429 . S
C223 H245 0.950 . S
C224 H220 0.949 . S
C224 C232 1.574 . S
C224 C240 1.368 . S
H225 C233 0.950 . S
H226 C231 0.950 . S
H227 C232 0.949 . S
H228 C234 0.950 . S
H229 C235 0.950 . S
H230 C236 0.949 . S
C231 H226 0.950 . S
C231 C233 1.327 . S
C231 C237 1.429 . S
C232 C224 1.574 . S
C232 H227 0.949 . S
C232 C238 1.368 . S
C233 C217 1.349 . S
C233 H225 0.950 . S
C233 C231 1.327 . S
C234 C222 1.349 . S
C234 H228 0.950 . S
C234 C235 1.327 . S
C235 H229 0.950 . S
C235 C234 1.327 . S
C235 C239 1.429 . S
C236 C219 1.574 . S
C236 H230 0.949 . S
C236 C240 1.368 . S
C237 C218 1.429 . S
C237 C231 1.429 . S
C237 C238 1.523 . S
C238 C219 1.368 . S
C238 C232 1.368 . S
C238 C237 1.523 . S
C239 C223 1.429 . S
C239 C235 1.429 . S
C239 C240 1.523 . S
C240 C224 1.368 . S
C240 C236 1.368 . S
C240 C239 1.523 . S
H241 C216 0.950 . S
H242 C218 0.950 . S
H243 C219 0.949 . S
H244 C221 0.950 . S
H245 C223 0.950 . S
C246 C247 1.349 . S
C246 C248 1.327 . S
C246 H271 0.950 . S
C247 C246 1.349 . S
C247 C263 1.349 . S
C248 C246 1.327 . S
C248 C267 1.429 . S
C248 H272 0.950 . S
C249 C266 1.574 . S
C249 C268 1.368 . S
C249 H273 0.949 . S
H250 C254 0.949 . S
C251 C252 1.349 . S
C251 C253 1.327 . S
C251 H274 0.950 . S
C252 C251 1.349 . S
C252 C264 1.349 . S
C253 C251 1.327 . S
C253 C269 1.429 . S
C253 H275 0.950 . S
C254 H250 0.949 . S
C254 C262 1.574 . S
C254 C270 1.368 . S
H255 C263 0.950 . S
H256 C261 0.950 . S
H257 C262 0.949 . S
H258 C264 0.950 . S
H259 C265 0.950 . S
H260 C266 0.949 . S
C261 H256 0.950 . S
C261 C263 1.327 . S
C261 C267 1.429 . S
C262 C254 1.574 . S
C262 H257 0.949 . S
C262 C268 1.368 . S
C263 C247 1.349 . S
C263 H255 0.950 . S
C263 C261 1.327 . S
C264 C252 1.349 . S
C264 H258 0.950 . S
C264 C265 1.327 . S
C265 H259 0.950 . S
C265 C264 1.327 . S
C265 C269 1.429 . S
C266 C249 1.574 . S
C266 H260 0.949 . S
C266 C270 1.368 . S
C267 C248 1.429 . S
C267 C261 1.429 . S
C267 C268 1.523 . S
C268 C249 1.368 . S
C268 C262 1.368 . S
C268 C267 1.523 . S
C269 C253 1.429 . S
C269 C265 1.429 . S
C269 C270 1.523 . S
C270 C254 1.368 . S
C270 C266 1.368 . S
C270 C269 1.523 . S
H271 C246 0.950 . S
H272 C248 0.950 . S
H273 C249 0.949 . S
H274 C251 0.950 . S
H275 C253 0.950 . S
C276 C277 1.349 . S
C276 C278 1.327 . S
C276 H301 0.950 . S
C277 C276 1.349 . S
C277 C293 1.349 . S
C278 C276 1.327 . S
C278 C297 1.429 . S
C278 H302 0.950 . S
C279 C296 1.574 . S
C279 C298 1.368 . S
C279 H303 0.949 . S
H280 C284 0.949 . S
C281 C282 1.349 . S
C281 C283 1.327 . S
C281 H304 0.950 . S
C282 C281 1.349 . S
C282 C294 1.349 . S
C283 C281 1.327 . S
C283 C299 1.429 . S
C283 H305 0.950 . S
C284 H280 0.949 . S
C284 C292 1.574 . S
C284 C300 1.368 . S
H285 C293 0.950 . S
H286 C291 0.950 . S
H287 C292 0.949 . S
H288 C294 0.950 . S
H289 C295 0.950 . S
H290 C296 0.949 . S
C291 H286 0.950 . S
C291 C293 1.327 . S
C291 C297 1.429 . S
C292 C284 1.574 . S
C292 H287 0.949 . S
C292 C298 1.368 . S
C293 C277 1.349 . S
C293 H285 0.950 . S
C293 C291 1.327 . S
C294 C282 1.349 . S
C294 H288 0.950 . S
C294 C295 1.327 . S
C295 H289 0.950 . S
C295 C294 1.327 . S
C295 C299 1.429 . S
C296 C279 1.574 . S
C296 H290 0.949 . S
C296 C300 1.368 . S
C297 C278 1.429 . S
C297 C291 1.429 . S
C297 C298 1.523 . S
C298 C279 1.368 . S
C298 C292 1.368 . S
C298 C297 1.523 . S
C299 C283 1.429 . S
C299 C295 1.429 . S
C299 C300 1.523 . S
C300 C284 1.368 . S
C300 C296 1.368 . S
C300 C299 1.523 . S
H301 C276 0.950 . S
H302 C278 0.950 . S
H303 C279 0.949 . S
H304 C281 0.950 . S
H305 C283 0.950 . S
C306 C307 1.349 . S
C306 C308 1.327 . S
C306 H331 0.950 . S
C307 C306 1.349 . S
C307 C323 1.349 . S
C308 C306 1.327 . S
C308 C327 1.429 . S
C308 H332 0.950 . S
C309 C326 1.574 . S
C309 C328 1.368 . S
C309 H333 0.949 . S
H310 C314 0.949 . S
C311 C312 1.349 . S
C311 C313 1.327 . S
C311 H334 0.950 . S
C312 C311 1.349 . S
C312 C324 1.349 . S
C313 C311 1.327 . S
C313 C329 1.429 . S
C313 H335 0.950 . S
C314 H310 0.949 . S
C314 C322 1.574 . S
C314 C330 1.368 . S
H315 C323 0.950 . S
H316 C321 0.950 . S
H317 C322 0.949 . S
H318 C324 0.950 . S
H319 C325 0.950 . S
H320 C326 0.949 . S
C321 H316 0.950 . S
C321 C323 1.327 . S
C321 C327 1.429 . S
C322 C314 1.574 . S
C322 H317 0.949 . S
C322 C328 1.368 . S
C323 C307 1.349 . S
C323 H315 0.950 . S
C323 C321 1.327 . S
C324 C312 1.349 . S
C324 H318 0.950 . S
C324 C325 1.327 . S
C325 H319 0.950 . S
C325 C324 1.327 . S
C325 C329 1.429 . S
C326 C309 1.574 . S
C326 H320 0.949 . S
C326 C330 1.368 . S
C327 C308 1.429 . S
C327 C321 1.429 . S
C327 C328 1.523 . S
C328 C309 1.368 . S
C328 C322 1.368 . S
C328 C327 1.523 . S
C329 C313 1.429 . S
C329 C325 1.429 . S
C329 C330 1.523 . S
C330 C314 1.368 . S
C330 C326 1.368 . S
C330 C329 1.523 . S
H331 C306 0.950 . S
H332 C308 0.950 . S
H333 C309 0.949 . S
H334 C311 0.950 . S
H335 C313 0.950 . S
C336 C337 1.349 . S
C336 C338 1.327 . S
C336 H361 0.950 . S
C337 C336 1.349 . S
C337 C353 1.349 . S
C338 C336 1.327 . S
C338 C357 1.429 . S
C338 H362 0.950 . S
C339 C356 1.574 . S
C339 C358 1.368 . S
C339 H363 0.949 . S
H340 C344 0.949 . S
C341 C342 1.349 . S
C341 C343 1.327 . S
C341 H364 0.950 . S
C342 C341 1.349 . S
C342 C354 1.349 . S
C343 C341 1.327 . S
C343 C359 1.429 . S
C343 H365 0.950 . S
C344 H340 0.949 . S
C344 C352 1.574 . S
C344 C360 1.368 . S
H345 C353 0.950 . S
H346 C351 0.950 . S
H347 C352 0.949 . S
H348 C354 0.950 . S
H349 C355 0.950 . S
H350 C356 0.949 . S
C351 H346 0.950 . S
C351 C353 1.327 . S
C351 C357 1.429 . S
C352 C344 1.574 . S
C352 H347 0.949 . S
C352 C358 1.368 . S
C353 C337 1.349 . S
C353 H345 0.950 . S
C353 C351 1.327 . S
C354 C342 1.349 . S
C354 H348 0.950 . S
C354 C355 1.327 . S
C355 H349 0.950 . S
C355 C354 1.327 . S
C355 C359 1.429 . S
C356 C339 1.574 . S
C356 H350 0.949 . S
C356 C360 1.368 . S
C357 C338 1.429 . S
C357 C351 1.429 . S
C357 C358 1.523 . S
C358 C339 1.368 . S
C358 C352 1.368 . S
C358 C357 1.523 . S
C359 C343 1.429 . S
C359 C355 1.429 . S
C359 C360 1.523 . S
C360 C344 1.368 . S
C360 C356 1.368 . S
C360 C359 1.523 . S
H361 C336 0.950 . S
H362 C338 0.950 . S
H363 C339 0.949 . S
H364 C341 0.950 . S
H365 C343 0.950 . S
C366 C367 1.349 . S
C366 C368 1.327 . S
C366 H391 0.950 . S
C367 C366 1.349 . S
C367 C383 1.349 . S
C368 C366 1.327 . S
C368 C387 1.429 . S
C368 H392 0.950 . S
C369 C386 1.574 . S
C369 C388 1.368 . S
C369 H393 0.949 . S
H370 C374 0.949 . S
C371 C372 1.349 . S
C371 C373 1.327 . S
C371 H394 0.950 . S
C372 C371 1.349 . S
C372 C384 1.349 . S
C373 C371 1.327 . S
C373 C389 1.429 . S
C373 H395 0.950 . S
C374 H370 0.949 . S
C374 C382 1.574 . S
C374 C390 1.368 . S
H375 C383 0.950 . S
H376 C381 0.950 . S
H377 C382 0.949 . S
H378 C384 0.950 . S
H379 C385 0.950 . S
H380 C386 0.949 . S
C381 H376 0.950 . S
C381 C383 1.327 . S
C381 C387 1.429 . S
C382 C374 1.574 . S
C382 H377 0.949 . S
C382 C388 1.368 . S
C383 C367 1.349 . S
C383 H375 0.950 . S
C383 C381 1.327 . S
C384 C372 1.349 . S
C384 H378 0.950 . S
C384 C385 1.327 . S
C385 H379 0.950 . S
C385 C384 1.327 . S
C385 C389 1.429 . S
C386 C369 1.574 . S
C386 H380 0.949 . S
C386 C390 1.368 . S
C387 C368 1.429 . S
C387 C381 1.429 . S
C387 C388 1.523 . S
C388 C369 1.368 . S
C388 C382 1.368 . S
C388 C387 1.523 . S
C389 C373 1.429 . S
C389 C385 1.429 . S
C389 C390 1.523 . S
C390 C374 1.368 . S
C390 C386 1.368 . S
C390 C389 1.523 . S
H391 C366 0.950 . S
H392 C368 0.950 . S
H393 C369 0.949 . S
H394 C371 0.950 . S
H395 C373 0.950 . S
C396 C397 1.349 . S
C396 C398 1.327 . S
C396 H421 0.950 . S
C397 C396 1.349 . S
C397 C413 1.349 . S
C398 C396 1.327 . S
C398 C417 1.429 . S
C398 H422 0.950 . S
C399 C416 1.574 . S
C399 C418 1.368 . S
C399 H423 0.949 . S
H400 C404 0.949 . S
C401 C402 1.349 . S
C401 C403 1.327 . S
C401 H424 0.950 . S
C402 C401 1.349 . S
C402 C414 1.349 . S
C403 C401 1.327 . S
C403 C419 1.429 . S
C403 H425 0.950 . S
C404 H400 0.949 . S
C404 C412 1.574 . S
C404 C420 1.368 . S
H405 C413 0.950 . S
H406 C411 0.950 . S
H407 C412 0.949 . S
H408 C414 0.950 . S
H409 C415 0.950 . S
H410 C416 0.949 . S
C411 H406 0.950 . S
C411 C413 1.327 . S
C411 C417 1.429 . S
C412 C404 1.574 . S
C412 H407 0.949 . S
C412 C418 1.368 . S
C413 C397 1.349 . S
C413 H405 0.950 . S
C413 C411 1.327 . S
C414 C402 1.349 . S
C414 H408 0.950 . S
C414 C415 1.327 . S
C415 H409 0.950 . S
C415 C414 1.327 . S
C415 C419 1.429 . S
C416 C399 1.574 . S
C416 H410 0.949 . S
C416 C420 1.368 . S
C417 C398 1.429 . S
C417 C411 1.429 . S
C417 C418 1.523 . S
C418 C399 1.368 . S
C418 C412 1.368 . S
C418 C417 1.523 . S
C419 C403 1.429 . S
C419 C415 1.429 . S
C419 C420 1.523 . S
C420 C404 1.368 . S
C420 C416 1.368 . S
C420 C419 1.523 . S
H421 C396 0.950 . S
H422 C398 0.950 . S
H423 C399 0.949 . S
H424 C401 0.950 . S
H425 C403 0.950 . S
C426 C427 1.349 . S
C426 C428 1.327 . S
C426 H451 0.950 . S
C427 C426 1.349 . S
C427 C443 1.349 . S
C428 C426 1.327 . S
C428 C447 1.429 . S
C428 H452 0.950 . S
C429 C446 1.574 . S
C429 C448 1.368 . S
C429 H453 0.949 . S
H430 C434 0.949 . S
C431 C432 1.349 . S
C431 C433 1.327 . S
C431 H454 0.950 . S
C432 C431 1.349 . S
C432 C444 1.349 . S
C433 C431 1.327 . S
C433 C449 1.429 . S
C433 H455 0.950 . S
C434 H430 0.949 . S
C434 C442 1.574 . S
C434 C450 1.368 . S
H435 C443 0.950 . S
H436 C441 0.950 . S
H437 C442 0.949 . S
H438 C444 0.950 . S
H439 C445 0.950 . S
H440 C446 0.949 . S
C441 H436 0.950 . S
C441 C443 1.327 . S
C441 C447 1.429 . S
C442 C434 1.574 . S
C442 H437 0.949 . S
C442 C448 1.368 . S
C443 C427 1.349 . S
C443 H435 0.950 . S
C443 C441 1.327 . S
C444 C432 1.349 . S
C444 H438 0.950 . S
C444 C445 1.327 . S
C445 H439 0.950 . S
C445 C444 1.327 . S
C445 C449 1.429 . S
C446 C429 1.574 . S
C446 H440 0.949 . S
C446 C450 1.368 . S
C447 C428 1.429 . S
C447 C441 1.429 . S
C447 C448 1.523 . S
C448 C429 1.368 . S
C448 C442 1.368 . S
C448 C447 1.523 . S
C449 C433 1.429 . S
C449 C445 1.429 . S
C449 C450 1.523 . S
C450 C434 1.368 . S
C450 C446 1.368 . S
C450 C449 1.523 . S
H451 C426 0.950 . S
H452 C428 0.950 . S
H453 C429 0.949 . S
H454 C431 0.950 . S
H455 C433 0.950 . S
C456 C457 1.349 . S
C456 C458 1.327 . S
C456 H481 0.950 . S
C457 C456 1.349 . S
C457 C473 1.349 . S
C458 C456 1.327 . S
C458 C477 1.429 . S
C458 H482 0.950 . S
C459 C476 1.574 . S
C459 C478 1.368 . S
C459 H483 0.949 . S
H460 C464 0.949 . S
C461 C462 1.349 . S
C461 C463 1.327 . S
C461 H484 0.950 . S
C462 C461 1.349 . S
C462 C474 1.349 . S
C463 C461 1.327 . S
C463 C479 1.429 . S
C463 H485 0.950 . S
C464 H460 0.949 . S
C464 C472 1.574 . S
C464 C480 1.368 . S
H465 C473 0.950 . S
H466 C471 0.950 . S
H467 C472 0.949 . S
H468 C474 0.950 . S
H469 C475 0.950 . S
H470 C476 0.949 . S
C471 H466 0.950 . S
C471 C473 1.327 . S
C471 C477 1.429 . S
C472 C464 1.574 . S
C472 H467 0.949 . S
C472 C478 1.368 . S
C473 C457 1.349 . S
C473 H465 0.950 . S
C473 C471 1.327 . S
C474 C462 1.349 . S
C474 H468 0.950 . S
C474 C475 1.327 . S
C475 H469 0.950 . S
C475 C474 1.327 . S
C475 C479 1.429 . S
C476 C459 1.574 . S
C476 H470 0.949 . S
C476 C480 1.368 . S
C477 C458 1.429 . S
C477 C471 1.429 . S
C477 C478 1.523 . S
C478 C459 1.368 . S
C478 C472 1.368 . S
C478 C477 1.523 . S
C479 C463 1.429 . S
C479 C475 1.429 . S
C479 C480 1.523 . S
C480 C464 1.368 . S
C480 C476 1.368 . S
C480 C479 1.523 . S
H481 C456 0.950 . S
H482 C458 0.950 . S
H483 C459 0.949 . S
H484 C461 0.950 . S
H485 C463 0.950 . S
C486 C487 1.349 . S
C486 C488 1.327 . S
C486 H511 0.950 . S
C487 C486 1.349 . S
C487 C503 1.349 . S
C488 C486 1.327 . S
C488 C507 1.429 . S
C488 H512 0.950 . S
C489 C506 1.574 . S
C489 C508 1.368 . S
C489 H513 0.949 . S
H490 C494 0.949 . S
C491 C492 1.349 . S
C491 C493 1.327 . S
C491 H514 0.950 . S
C492 C491 1.349 . S
C492 C504 1.349 . S
C493 C491 1.327 . S
C493 C509 1.429 . S
C493 H515 0.950 . S
C494 H490 0.949 . S
C494 C502 1.574 . S
C494 C510 1.368 . S
H495 C503 0.950 . S
H496 C501 0.950 . S
H497 C502 0.949 . S
H498 C504 0.950 . S
H499 C505 0.950 . S
H500 C506 0.949 . S
C501 H496 0.950 . S
C501 C503 1.327 . S
C501 C507 1.429 . S
C502 C494 1.574 . S
C502 H497 0.949 . S
C502 C508 1.368 . S
C503 C487 1.349 . S
C503 H495 0.950 . S
C503 C501 1.327 . S
C504 C492 1.349 . S
C504 H498 0.950 . S
C504 C505 1.327 . S
C505 H499 0.950 . S
C505 C504 1.327 . S
C505 C509 1.429 . S
C506 C489 1.574 . S
C506 H500 0.949 . S
C506 C510 1.368 . S
C507 C488 1.429 . S
C507 C501 1.429 . S
C507 C508 1.523 . S
C508 C489 1.368 . S
C508 C502 1.368 . S
C508 C507 1.523 . S
C509 C493 1.429 . S
C509 C505 1.429 . S
C509 C510 1.523 . S
C510 C494 1.368 . S
C510 C506 1.368 . S
C510 C509 1.523 . S
H511 C486 0.950 . S
H512 C488 0.950 . S
H513 C489 0.949 . S
H514 C491 0.950 . S
H515 C493 0.950 . S
C516 C517 1.349 . S
C516 C518 1.327 . S
C516 H541 0.950 . S
C517 C516 1.349 . S
C517 C533 1.349 1_655 S
C518 C516 1.327 . S
C518 C537 1.417 1_655 S
C518 H542 0.950 . S
C519 C536 1.574 . S
C519 C538 1.368 . S
C519 H543 0.949 . S
H520 C524 0.949 . S
C521 C522 1.349 . S
C521 C523 1.327 . S
C521 H544 0.950 . S
C522 C521 1.349 . S
C522 C534 1.373 . S
C523 C521 1.327 . S
C523 C539 1.429 . S
C523 H545 0.950 . S
C524 H520 0.949 . S
C524 C532 1.574 . S
C524 C540 1.368 1_655 S
H525 C533 0.950 . S
H526 C531 0.950 . S
H527 C532 0.949 . S
H528 C534 0.931 1_655 S
H529 C535 0.950 . S
H530 C536 0.949 . S
C531 H526 0.950 . S
C531 C533 1.327 . S
C531 C537 1.438 . S
C532 C524 1.574 . S
C532 H527 0.949 . S
C532 C538 1.368 1_655 S
C533 C517 1.349 1_455 S
C533 H525 0.950 . S
C533 C531 1.327 . S
C534 C522 1.373 . S
C534 H528 0.931 1_455 S
C534 C535 1.323 1_455 S
C535 H529 0.950 . S
C535 C534 1.323 1_655 S
C535 C539 1.429 1_655 S
C536 C519 1.574 . S
C536 H530 0.949 . S
C536 C540 1.368 . S
C537 C518 1.417 1_455 S
C537 C531 1.438 . S
C537 C538 1.525 . S
C538 C519 1.368 . S
C538 C532 1.368 1_455 S
C538 C537 1.525 . S
C539 C523 1.429 . S
C539 C535 1.429 1_455 S
C539 C540 1.523 . S
C540 C524 1.368 1_455 S
C540 C536 1.368 . S
C540 C539 1.523 . S
H541 C516 0.950 . S
H542 C518 0.950 . S
H543 C519 0.949 . S
H544 C521 0.950 . S
H545 C523 0.950 . S
C546 C547 1.323 1_565 S
C546 C548 1.333 . S
C546 H571 0.971 . S
C547 C546 1.323 1_545 S
C547 C563 1.349 . S
C548 C546 1.333 . S
C548 C567 1.429 1_565 S
C548 H572 0.950 . S
C549 C566 1.574 . S
C549 C568 1.368 . S
C549 H573 0.949 . S
H550 C554 0.949 . S
C551 C552 1.349 1_545 S
C551 C553 1.327 . S
C551 H574 0.950 . S
C552 C551 1.349 1_565 S
C552 C564 1.349 . S
C553 C551 1.327 . S
C553 C569 1.429 1_545 S
C553 H575 0.950 . S
C554 H550 0.949 . S
C554 C562 1.574 . S
C554 C570 1.370 . S
H555 C563 0.950 . S
H556 C561 0.950 . S
H557 C562 0.949 . S
H558 C564 0.950 . S
H559 C565 0.950 . S
H560 C566 0.949 . S
C561 H556 0.950 . S
C561 C563 1.327 . S
C561 C567 1.429 . S
C562 C554 1.574 . S
C562 H557 0.949 . S
C562 C568 1.368 1_565 S
C563 C547 1.349 . S
C563 H555 0.950 . S
C563 C561 1.327 . S
C564 C552 1.349 . S
C564 H558 0.950 . S
C564 C565 1.327 . S
C565 H559 0.950 . S
C565 C564 1.327 . S
C565 C569 1.429 . S
C566 C549 1.574 . S
C566 H560 0.949 . S
C566 C570 1.366 1_545 S
C567 C548 1.429 1_545 S
C567 C561 1.429 . S
C567 C568 1.523 . S
C568 C549 1.368 . S
C568 C562 1.368 1_545 S
C568 C567 1.523 . S
C569 C553 1.429 1_565 S
C569 C565 1.429 . S
C569 C570 1.523 . S
C570 C554 1.370 . S
C570 C566 1.366 1_565 S
C570 C569 1.523 . S
H571 C546 0.971 . S
H572 C548 0.950 . S
H573 C549 0.949 . S
H574 C551 0.950 . S
H575 C553 0.950 . S
C576 C577 1.349 . S
C576 C578 1.327 . S
C576 H601 0.950 . S
C577 C576 1.349 . S
C577 C593 1.350 . S
C578 C576 1.327 . S
C578 C597 1.429 . S
C578 H602 0.950 . S
C579 C596 1.574 . S
C579 C598 1.368 . S
C579 H603 0.949 . S
H580 C584 0.949 . S
C581 C582 1.349 . S
C581 C583 1.327 . S
C581 H604 0.950 . S
C582 C581 1.349 . S
C582 C594 1.349 . S
C583 C581 1.327 . S
C583 C599 1.429 . S
C583 H605 0.950 . S
C584 H580 0.949 . S
C584 C592 1.574 . S
C584 C600 1.368 . S
H585 C593 0.947 1_455 S
H586 C591 0.950 . S
H587 C592 0.949 . S
H588 C594 0.950 . S
H589 C595 0.950 . S
H590 C596 0.949 . S
C591 H586 0.950 . S
C591 C593 1.330 . S
C591 C597 1.429 . S
C592 C584 1.574 . S
C592 H587 0.949 . S
C592 C598 1.368 . S
C593 C577 1.350 . S
C593 H585 0.947 1_655 S
C593 C591 1.330 . S
C594 C582 1.349 . S
C594 H588 0.950 . S
C594 C595 1.327 . S
C595 H589 0.950 . S
C595 C594 1.327 . S
C595 C599 1.429 . S
C596 C579 1.574 . S
C596 H590 0.949 . S
C596 C600 1.368 . S
C597 C578 1.429 . S
C597 C591 1.429 . S
C597 C598 1.523 . S
C598 C579 1.368 . S
C598 C592 1.368 . S
C598 C597 1.523 . S
C599 C583 1.429 . S
C599 C595 1.429 . S
C599 C600 1.523 . S
C600 C584 1.368 . S
C600 C596 1.368 . S
C600 C599 1.523 . S
H601 C576 0.950 . S
H602 C578 0.950 . S
H603 C579 0.949 . S
H604 C581 0.950 . S
H605 C583 0.950 . S
C606 C607 1.343 1_565 S
C606 C608 1.327 . S
C606 H631 0.950 . S
C607 C606 1.343 1_545 S
C607 C623 1.355 . S
C608 C606 1.327 . S
C608 C627 1.429 . S
C608 H632 0.950 . S
C609 C626 1.574 . S
C609 C628 1.368 1_545 S
C609 H633 0.949 . S
H610 C614 0.949 . S
C611 C612 1.349 1_545 S
C611 C613 1.327 . S
C611 H634 0.950 . S
C612 C611 1.349 1_565 S
C612 C624 1.349 . S
C613 C611 1.327 . S
C613 C629 1.429 1_545 S
C613 H635 0.950 . S
C614 H610 0.949 . S
C614 C622 1.574 . S
C614 C630 1.368 . S
H615 C623 0.950 . S
H616 C621 0.950 . S
H617 C622 0.949 . S
H618 C624 0.950 . S
H619 C625 0.950 . S
H620 C626 0.949 . S
C621 H616 0.950 . S
C621 C623 1.327 . S
C621 C627 1.429 1_545 S
C622 C614 1.574 . S
C622 H617 0.949 . S
C622 C628 1.368 . S
C623 C607 1.355 . S
C623 H615 0.950 . S
C623 C621 1.327 . S
C624 C612 1.349 . S
C624 H618 0.950 . S
C624 C625 1.327 . S
C625 H619 0.950 . S
C625 C624 1.327 . S
C625 C629 1.429 . S
C626 C609 1.574 . S
C626 H620 0.949 . S
C626 C630 1.368 1_545 S
C627 C608 1.429 . S
C627 C621 1.429 1_565 S
C627 C628 1.523 . S
C628 C609 1.368 1_565 S
C628 C622 1.368 . S
C628 C627 1.523 . S
C629 C613 1.429 1_565 S
C629 C625 1.429 . S
C629 C630 1.523 . S
C630 C614 1.368 . S
C630 C626 1.368 1_565 S
C630 C629 1.523 . S
H631 C606 0.950 . S
H632 C608 0.950 . S
H633 C609 0.949 . S
H634 C611 0.950 . S
H635 C613 0.950 . S
C636 C637 1.349 1_565 S
C636 C638 1.327 . S
C636 H661 0.950 . S
C637 C636 1.349 1_545 S
C637 C653 1.349 . S
C638 C636 1.327 . S
C638 C657 1.429 1_565 S
C638 H662 0.950 . S
C639 C656 1.574 . S
C639 C658 1.368 . S
C639 H663 0.949 . S
H640 C644 0.949 . S
C641 C642 1.349 1_545 S
C641 C643 1.327 . S
C641 H664 0.950 . S
C642 C641 1.349 1_565 S
C642 C654 1.349 . S
C643 C641 1.327 . S
C643 C659 1.429 . S
C643 H665 0.950 . S
C644 H640 0.949 . S
C644 C652 1.574 . S
C644 C660 1.368 1_565 S
H645 C653 0.950 . S
H646 C651 0.950 . S
H647 C652 0.949 . S
H648 C654 0.950 . S
H649 C655 0.950 . S
H650 C656 0.949 . S
C651 H646 0.950 . S
C651 C653 1.327 . S
C651 C657 1.429 . S
C652 C644 1.574 . S
C652 H647 0.949 . S
C652 C658 1.368 1_565 S
C653 C637 1.349 . S
C653 H645 0.950 . S
C653 C651 1.327 . S
C654 C642 1.349 . S
C654 H648 0.950 . S
C654 C655 1.327 . S
C655 H649 0.950 . S
C655 C654 1.327 . S
C655 C659 1.429 1_565 S
C656 C639 1.574 . S
C656 H650 0.949 . S
C656 C660 1.368 . S
C657 C638 1.429 1_545 S
C657 C651 1.429 . S
C657 C658 1.523 . S
C658 C639 1.368 . S
C658 C652 1.368 1_545 S
C658 C657 1.523 . S
C659 C643 1.429 . S
C659 C655 1.429 1_545 S
C659 C660 1.523 . S
C660 C644 1.368 1_545 S
C660 C656 1.368 . S
C660 C659 1.523 . S
H661 C636 0.950 . S
H662 C638 0.950 . S
H663 C639 0.949 . S
H664 C641 0.950 . S
H665 C643 0.950 . S
C666 C667 1.349 1_655 S
C666 C668 1.327 . S
C666 H691 0.950 . S
C667 C666 1.349 1_455 S
C667 C683 1.349 . S
C668 C666 1.327 . S
C668 C687 1.416 1_655 S
C668 H692 0.950 . S
C669 C686 1.574 . S
C669 C688 1.368 1_455 S
C669 H693 0.949 . S
H670 C674 0.949 . S
C671 C672 1.349 1_455 S
C671 C673 1.327 . S
C671 H694 0.950 . S
C672 C671 1.349 1_655 S
C672 C684 1.349 . S
C673 C671 1.327 . S
C673 C689 1.429 1_455 S
C673 H695 0.950 . S
C674 H670 0.949 . S
C674 C682 1.574 . S
C674 C690 1.368 . S
H675 C683 0.950 . S
H676 C681 0.950 . S
H677 C682 0.949 . S
H678 C684 0.950 . S
H679 C685 0.950 . S
H680 C686 0.949 . S
C681 H676 0.950 . S
C681 C683 1.327 . S
C681 C687 1.442 . S
C682 C674 1.574 . S
C682 H677 0.949 . S
C682 C688 1.368 . S
C683 C667 1.349 . S
C683 H675 0.950 . S
C683 C681 1.327 . S
C684 C672 1.349 . S
C684 H678 0.950 . S
C684 C685 1.327 . S
C685 H679 0.950 . S
C685 C684 1.327 . S
C685 C689 1.429 . S
C686 C669 1.574 . S
C686 H680 0.949 . S
C686 C690 1.368 1_455 S
C687 C668 1.416 1_455 S
C687 C681 1.442 . S
C687 C688 1.522 1_455 S
C688 C669 1.368 1_655 S
C688 C682 1.368 . S
C688 C687 1.522 1_655 S
C689 C673 1.429 1_655 S
C689 C685 1.429 . S
C689 C690 1.523 . S
C690 C674 1.368 . S
C690 C686 1.368 1_655 S
C690 C689 1.523 . S
H691 C666 0.950 . S
H692 C668 0.950 . S
H693 C669 0.949 . S
H694 C671 0.950 . S
H695 C673 0.950 . S
C696 C697 1.349 1_545 S
C696 C698 1.327 . S
C696 H721 0.950 . S
C697 C696 1.349 1_565 S
C697 C713 1.349 . S
C698 C696 1.327 . S
C698 C717 1.429 1_545 S
C698 H722 0.950 . S
C699 C716 1.574 . S
C699 C718 1.368 . S
C699 H723 0.949 . S
H700 C704 0.957 . S
C701 C702 1.349 . S
C701 C703 1.327 . S
C701 H724 0.950 . S
C702 C701 1.349 . S
C702 C714 1.349 . S
C703 C701 1.327 . S
C703 C719 1.429 . S
C703 H725 0.950 . S
C704 H700 0.957 . S
C704 C712 1.575 . S
C704 C720 1.359 1_545 S
H705 C713 0.950 . S
H706 C711 0.950 . S
H707 C712 0.949 . S
H708 C714 0.950 1_545 S
H709 C715 0.950 1_545 S
H710 C716 0.949 . S
C711 H706 0.950 . S
C711 C713 1.327 . S
C711 C717 1.429 . S
C712 C704 1.575 . S
C712 H707 0.949 . S
C712 C718 1.368 1_545 S
C713 C697 1.349 . S
C713 H705 0.950 . S
C713 C711 1.327 . S
C714 C702 1.349 . S
C714 H708 0.950 1_565 S
C714 C715 1.327 . S
C715 H709 0.950 1_565 S
C715 C714 1.327 . S
C715 C719 1.429 . S
C716 C699 1.574 . S
C716 H710 0.949 . S
C716 C720 1.368 . S
C717 C698 1.429 1_565 S
C717 C711 1.429 . S
C717 C718 1.523 . S
C718 C699 1.368 . S
C718 C712 1.368 1_565 S
C718 C717 1.523 . S
C719 C703 1.429 . S
C719 C715 1.429 . S
C719 C720 1.523 . S
C720 C704 1.359 1_565 S
C720 C716 1.368 . S
C720 C719 1.523 . S
H721 C696 0.950 . S
H722 C698 0.950 . S
H723 C699 0.949 . S
H724 C701 0.950 . S
H725 C703 0.950 . S
C726 C727 1.349 . S
C726 C728 1.327 . S
C726 H751 0.950 . S
C727 C726 1.349 . S
C727 C743 1.349 . S
C728 C726 1.327 . S
C728 C747 1.429 . S
C728 H752 0.950 . S
C729 C746 1.574 . S
C729 C748 1.368 1_455 S
C729 H753 0.949 . S
H730 C734 0.949 . S
C731 C732 1.349 . S
C731 C733 1.327 . S
C731 H754 0.950 . S
C732 C731 1.349 . S
C732 C744 1.349 1_455 S
C733 C731 1.327 . S
C733 C749 1.429 . S
C733 H755 0.950 . S
C734 H730 0.949 . S
C734 C742 1.574 . S
C734 C750 1.350 1_655 S
H735 C743 0.950 1_455 S
H736 C741 0.950 . S
H737 C742 0.949 . S
H738 C744 0.950 . S
H739 C745 0.950 . S
H740 C746 0.949 . S
C741 H736 0.950 . S
C741 C743 1.327 1_455 S
C741 C747 1.429 1_455 S
C742 C734 1.574 . S
C742 H737 0.949 . S
C742 C748 1.368 . S
C743 C727 1.349 . S
C743 H735 0.950 1_655 S
C743 C741 1.327 1_655 S
C744 C732 1.349 1_655 S
C744 H738 0.950 . S
C744 C745 1.327 . S
C745 H739 0.950 . S
C745 C744 1.327 . S
C745 C749 1.429 1_655 S
C746 C729 1.574 . S
C746 H740 0.949 . S
C746 C750 1.384 . S
C747 C728 1.429 . S
C747 C741 1.429 1_655 S
C747 C748 1.523 . S
C748 C729 1.368 1_655 S
C748 C742 1.368 . S
C748 C747 1.523 . S
C749 C733 1.429 . S
C749 C745 1.429 1_455 S
C749 C750 1.527 . S
C750 C734 1.350 1_455 S
C750 C746 1.384 . S
C750 C749 1.527 . S
H751 C726 0.950 . S
H752 C728 0.950 . S
H753 C729 0.949 . S
H754 C731 0.950 . S
H755 C733 0.950 . S
C756 C757 1.349 . S
C756 C758 1.327 . S
C756 H781 0.950 . S
C757 C756 1.349 . S
C757 C773 1.349 1_554 S
C758 C756 1.327 . S
C758 C777 1.429 . S
C758 H782 0.950 . S
C759 C776 1.574 . S
C759 C778 1.390 . S
C759 H783 0.949 . S
H760 C764 0.949 . S
C761 C762 1.349 . S
C761 C763 1.327 . S
C761 H784 0.950 . S
C762 C761 1.349 . S
C762 C774 1.349 1_556 S
C763 C761 1.327 . S
C763 C779 1.429 . S
C763 H785 0.950 . S
C764 H760 0.949 . S
C764 C772 1.574 . S
C764 C780 1.368 1_554 S
H765 C773 0.950 . S
H766 C771 0.950 . S
H767 C772 0.949 . S
H768 C774 0.950 . S
H769 C775 0.950 . S
H770 C776 0.949 . S
C771 H766 0.950 . S
C771 C773 1.327 . S
C771 C777 1.429 1_556 S
C772 C764 1.574 . S
C772 H767 0.949 . S
C772 C778 1.350 1_554 S
C773 C757 1.349 1_556 S
C773 H765 0.950 . S
C773 C771 1.327 . S
C774 C762 1.349 1_554 S
C774 H768 0.950 . S
C774 C775 1.327 . S
C775 H769 0.950 . S
C775 C774 1.327 . S
C775 C779 1.429 1_554 S
C776 C759 1.574 . S
C776 H770 0.949 . S
C776 C780 1.368 . S
C777 C758 1.429 . S
C777 C771 1.429 1_554 S
C777 C778 1.520 1_554 S
C778 C759 1.390 . S
C778 C772 1.350 1_556 S
C778 C777 1.520 1_556 S
C779 C763 1.429 . S
C779 C775 1.429 1_556 S
C779 C780 1.523 . S
C780 C764 1.368 1_556 S
C780 C776 1.368 . S
C780 C779 1.523 . S
H781 C756 0.950 . S
H782 C758 0.950 . S
H783 C759 0.949 . S
H784 C761 0.950 . S
H785 C763 0.950 . S
C786 C787 1.349 . S
C786 C788 1.327 . S
C786 H811 0.950 1_556 S
C787 C786 1.349 . S
C787 C803 1.349 . S
C788 C786 1.327 . S
C788 C807 1.429 . S
C788 H812 0.950 1_556 S
C789 C806 1.574 . S
C789 C808 1.368 . S
C789 H813 0.949 . S
H790 C794 0.949 . S
C791 C792 1.349 1_556 S
C791 C793 1.327 . S
C791 H814 0.950 . S
C792 C791 1.349 1_554 S
C792 C804 1.349 . S
C793 C791 1.327 . S
C793 C809 1.420 1_556 S
C793 H815 0.950 . S
C794 H790 0.949 . S
C794 C802 1.574 . S
C794 C810 1.368 1_554 S
H795 C803 0.950 . S
H796 C801 0.950 . S
H797 C802 0.949 . S
H798 C804 0.950 . S
H799 C805 0.950 . S
H800 C806 0.949 . S
C801 H796 0.950 . S
C801 C803 1.327 . S
C801 C807 1.429 . S
C802 C794 1.574 . S
C802 H797 0.949 . S
C802 C808 1.368 1_554 S
C803 C787 1.349 . S
C803 H795 0.950 . S
C803 C801 1.327 . S
C804 C792 1.349 . S
C804 H798 0.950 . S
C804 C805 1.327 . S
C805 H799 0.950 . S
C805 C804 1.327 . S
C805 C809 1.442 . S
C806 C789 1.574 . S
C806 H800 0.949 . S
C806 C810 1.368 . S
C807 C788 1.429 . S
C807 C801 1.429 . S
C807 C808 1.523 . S
C808 C789 1.368 . S
C808 C802 1.368 1_556 S
C808 C807 1.523 . S
C809 C793 1.420 1_554 S
C809 C805 1.442 . S
C809 C810 1.520 1_554 S
C810 C794 1.368 1_556 S
C810 C806 1.368 . S
C810 C809 1.520 1_556 S
H811 C786 0.950 1_554 S
H812 C788 0.950 1_554 S
H813 C789 0.949 . S
H814 C791 0.950 . S
H815 C793 0.950 . S
C816 C817 1.349 1_554 S
C816 C818 1.327 . S
C816 H841 0.950 . S
C817 C816 1.349 1_556 S
C817 C833 1.349 . S
C818 C816 1.327 . S
C818 C837 1.429 1_554 S
C818 H842 0.950 . S
C819 C836 1.574 . S
C819 C838 1.368 . S
C819 H843 0.949 . S
H820 C824 0.949 . S
C821 C822 1.349 1_556 S
C821 C823 1.327 . S
C821 H844 0.950 . S
C822 C821 1.349 1_554 S
C822 C834 1.349 . S
C823 C821 1.327 . S
C823 C839 1.429 1_556 S
C823 H845 0.950 . S
C824 H820 0.949 . S
C824 C832 1.574 . S
C824 C840 1.334 1_554 S
H825 C833 0.950 . S
H826 C831 0.950 . S
H827 C832 0.949 . S
H828 C834 0.950 . S
H829 C835 0.950 . S
H830 C836 0.949 . S
C831 H826 0.950 . S
C831 C833 1.327 . S
C831 C837 1.429 . S
C832 C824 1.574 . S
C832 H827 0.949 . S
C832 C838 1.368 1_554 S
C833 C817 1.349 . S
C833 H825 0.950 . S
C833 C831 1.327 . S
C834 C822 1.349 . S
C834 H828 0.950 . S
C834 C835 1.327 . S
C835 H829 0.950 . S
C835 C834 1.327 . S
C835 C839 1.429 . S
C836 C819 1.574 . S
C836 H830 0.949 . S
C836 C840 1.406 . S
C837 C818 1.429 1_556 S
C837 C831 1.429 . S
C837 C838 1.523 . S
C838 C819 1.368 . S
C838 C832 1.368 1_556 S
C838 C837 1.523 . S
C839 C823 1.429 1_554 S
C839 C835 1.429 . S
C839 C840 1.520 1_554 S
C840 C824 1.334 1_556 S
C840 C836 1.406 . S
C840 C839 1.520 1_556 S
H841 C816 0.950 . S
H842 C818 0.950 . S
H843 C819 0.949 . S
H844 C821 0.950 . S
H845 C823 0.950 . S
C846 C847 1.349 1_556 S
C846 C848 1.327 . S
C846 H871 0.950 . S
C847 C846 1.349 1_554 S
C847 C863 1.349 . S
C848 C846 1.327 . S
C848 C867 1.429 1_556 S
C848 H872 0.950 . S
C849 C866 1.574 . S
C849 C868 1.368 . S
C849 H873 0.949 . S
H850 C854 0.949 . S
C851 C852 1.349 1_554 S
C851 C853 1.327 . S
C851 H874 0.950 . S
C852 C851 1.349 1_556 S
C852 C864 1.349 . S
C853 C851 1.327 . S
C853 C869 1.429 1_554 S
C853 H875 0.950 . S
C854 H850 0.949 . S
C854 C862 1.574 . S
C854 C870 1.368 . S
H855 C863 0.950 . S
H856 C861 0.950 . S
H857 C862 0.949 . S
H858 C864 0.950 . S
H859 C865 0.950 . S
H860 C866 0.949 . S
C861 H856 0.950 . S
C861 C863 1.327 . S
C861 C867 1.429 . S
C862 C854 1.574 . S
C862 H857 0.949 . S
C862 C868 1.368 1_556 S
C863 C847 1.349 . S
C863 H855 0.950 . S
C863 C861 1.327 . S
C864 C852 1.349 . S
C864 H858 0.950 . S
C864 C865 1.327 . S
C865 H859 0.950 . S
C865 C864 1.327 . S
C865 C869 1.429 . S
C866 C849 1.574 . S
C866 H860 0.949 . S
C866 C870 1.368 1_554 S
C867 C848 1.429 1_554 S
C867 C861 1.429 . S
C867 C868 1.523 . S
C868 C849 1.368 . S
C868 C862 1.368 1_554 S
C868 C867 1.523 . S
C869 C853 1.429 1_556 S
C869 C865 1.429 . S
C869 C870 1.523 . S
C870 C854 1.368 . S
C870 C866 1.368 1_556 S
C870 C869 1.523 . S
H871 C846 0.950 . S
H872 C848 0.950 . S
H873 C849 0.949 . S
H874 C851 0.950 . S
H875 C853 0.950 . S
C157 C1 0.947 . S
C162 C96 0.948 . S
C187 C18 1.261 . S
C192 C55 1.265 . S
C217 C66 1.016 . S
C222 C27 1.036 . S
C247 C81 1.332 . S
C252 C49 1.331 . S
C277 C114 1.013 . S
C282 C92 1.016 . S
C307 C118 1.225 . S
C312 C62 1.219 . S
C337 C140 1.321 . S
C342 C70 1.272 . S
C367 C144 1.171 . S
C372 C88 1.172 . S
C397 C14 0.969 . S
C402 C122 0.968 . S
C427 C133 1.095 . S
C432 C31 1.101 . S
C457 C42 1.272 . S
C462 C148 1.275 . S
C487 C107 1.115 . S
C492 C5 1.114 . S
C517 C83 1.686 . S
C522 C10 1.682 . S
C547 C94 1.555 . S
C552 C16 1.555 . S
C577 C57 1.690 1_655 S
C582 C36 1.691 . S
C607 C40 1.822 . S
C612 C75 1.758 . S
C637 C101 1.737 . S
C642 C68 1.667 . S
C667 C53 1.722 . S
C672 C79 1.723 . S
C697 C44 1.633 1_565 S
C702 C23 1.628 . S
C727 C29 1.648 . S
C732 C3 1.649 . S
C757 C109 1.834 . S
C762 C127 1.830 . S
C787 C120 1.688 . S
C792 C131 1.679 . S
C817 C153 1.530 . S
C822 C135 1.533 . S
C847 C105 1.675 . S
C852 C146 1.680 . S
