# Generated by pormake.
# Topology ukk, (4)-cn, num edge types: 1
# Building blocks:
#     Node 0, Type 0, BuildingBlock: NAWXER_clean_sbu_0, # of connection points: 4
#     Node 1, Type 0, BuildingBlock: NAWXER_clean_sbu_0, # of connection points: 4
#     Node 2, Type 0, BuildingBlock: NAWXER_clean_sbu_0, # of connection points: 4
#     Node 3, Type 0, BuildingBlock: NAWXER_clean_sbu_0, # of connection points: 4
#     Node 4, Type 0, BuildingBlock: NAWXER_clean_sbu_0, # of connection points: 4
#     Node 5, Type 0, BuildingBlock: NAWXER_clean_sbu_0, # of connection points: 4
#     Node 6, Type 0, BuildingBlock: NAWXER_clean_sbu_0, # of connection points: 4
#     Node 7, Type 0, BuildingBlock: NAWXER_clean_sbu_0, # of connection points: 4
#     Node 8, Type 0, BuildingBlock: NAWXER_clean_sbu_0, # of connection points: 4
#     Node 9, Type 0, BuildingBlock: NAWXER_clean_sbu_0, # of connection points: 4
#     Node 10, Type 0, BuildingBlock: NAWXER_clean_sbu_0, # of connection points: 4
#     Node 11, Type 0, BuildingBlock: NAWXER_clean_sbu_0, # of connection points: 4
#     Node 12, Type 0, BuildingBlock: NAWXER_clean_sbu_0, # of connection points: 4
#     Node 13, Type 0, BuildingBlock: NAWXER_clean_sbu_0, # of connection points: 4
#     Node 14, Type 0, BuildingBlock: NAWXER_clean_sbu_0, # of connection points: 4
#     Node 15, Type 0, BuildingBlock: NAWXER_clean_sbu_0, # of connection points: 4
#     Edge 16, Type (0, 0), BuildingBlock: KIFKEQ_clean_linker_1, # of connection points: 2
#     Edge 17, Type (0, 0), BuildingBlock: KIFKEQ_clean_linker_1, # of connection points: 2
#     Edge 18, Type (0, 0), BuildingBlock: KIFKEQ_clean_linker_1, # of connection points: 2
#     Edge 19, Type (0, 0), BuildingBlock: KIFKEQ_clean_linker_1, # of connection points: 2
#     Edge 20, Type (0, 0), BuildingBlock: KIFKEQ_clean_linker_1, # of connection points: 2
#     Edge 21, Type (0, 0), BuildingBlock: KIFKEQ_clean_linker_1, # of connection points: 2
#     Edge 22, Type (0, 0), BuildingBlock: KIFKEQ_clean_linker_1, # of connection points: 2
#     Edge 23, Type (0, 0), BuildingBlock: KIFKEQ_clean_linker_1, # of connection points: 2
#     Edge 24, Type (0, 0), BuildingBlock: KIFKEQ_clean_linker_1, # of connection points: 2
#     Edge 25, Type (0, 0), BuildingBlock: KIFKEQ_clean_linker_1, # of connection points: 2
#     Edge 26, Type (0, 0), BuildingBlock: KIFKEQ_clean_linker_1, # of connection points: 2
#     Edge 27, Type (0, 0), BuildingBlock: KIFKEQ_clean_linker_1, # of connection points: 2
#     Edge 28, Type (0, 0), BuildingBlock: KIFKEQ_clean_linker_1, # of connection points: 2
#     Edge 29, Type (0, 0), BuildingBlock: KIFKEQ_clean_linker_1, # of connection points: 2
#     Edge 30, Type (0, 0), BuildingBlock: KIFKEQ_clean_linker_1, # of connection points: 2
#     Edge 31, Type (0, 0), BuildingBlock: KIFKEQ_clean_linker_1, # of connection points: 2
#     Edge 32, Type (0, 0), BuildingBlock: KIFKEQ_clean_linker_1, # of connection points: 2
#     Edge 33, Type (0, 0), BuildingBlock: KIFKEQ_clean_linker_1, # of connection points: 2
#     Edge 34, Type (0, 0), BuildingBlock: KIFKEQ_clean_linker_1, # of connection points: 2
#     Edge 35, Type (0, 0), BuildingBlock: KIFKEQ_clean_linker_1, # of connection points: 2
#     Edge 36, Type (0, 0), BuildingBlock: KIFKEQ_clean_linker_1, # of connection points: 2
#     Edge 37, Type (0, 0), BuildingBlock: KIFKEQ_clean_linker_1, # of connection points: 2
#     Edge 38, Type (0, 0), BuildingBlock: KIFKEQ_clean_linker_1, # of connection points: 2
#     Edge 39, Type (0, 0), BuildingBlock: KIFKEQ_clean_linker_1, # of connection points: 2
#     Edge 40, Type (0, 0), BuildingBlock: KIFKEQ_clean_linker_1, # of connection points: 2
#     Edge 41, Type (0, 0), BuildingBlock: KIFKEQ_clean_linker_1, # of connection points: 2
#     Edge 42, Type (0, 0), BuildingBlock: KIFKEQ_clean_linker_1, # of connection points: 2
#     Edge 43, Type (0, 0), BuildingBlock: KIFKEQ_clean_linker_1, # of connection points: 2
#     Edge 44, Type (0, 0), BuildingBlock: KIFKEQ_clean_linker_1, # of connection points: 2
#     Edge 45, Type (0, 0), BuildingBlock: KIFKEQ_clean_linker_1, # of connection points: 2
#     Edge 46, Type (0, 0), BuildingBlock: KIFKEQ_clean_linker_1, # of connection points: 2
#     Edge 47, Type (0, 0), BuildingBlock: KIFKEQ_clean_linker_1, # of connection points: 2
# Relax obj value: 0.021
# Max RMSD: 0.113
# Mean RMSD: 0.113
data_MOF--net-ukk--node1-NAWXER_clean_sbu_0--edge1-KIFKEQ_clean_linker_1
_symmetry_space_group_name_H-M    P1
_symmetry_Int_Tables_number       1
_symmetry_cell_setting            triclinic
loop_
_symmetry_equiv_pos_as_xyz
'x, y, z'
_cell_length_a     58.351965
_cell_length_b     58.354363
_cell_length_c     12.465171
_cell_angle_alpha  89.99565
_cell_angle_beta   90.001431
_cell_angle_gamma 90.057124
loop_
_atom_site_label
_atom_site_type_symbol
_atom_site_fract_x
_atom_site_fract_y
_atom_site_fract_z
_atom_type_partial_charge
C0 C 0.37006 0.1718 0.15766 0.0
C1 C 0.37428 0.08986 0.23528 0.0
O2 O 0.37553 0.15975 0.0756 0.0
Zn3 Zn 0.3808 0.12442 0.03591 0.0
O4 O 0.36629 0.16192 0.24689 0.0
Zn5 Zn 0.3721 0.1309 0.19925 0.0
O6 O 0.40795 0.13191 0.1631 0.0
O7 O 0.41274 0.12405 0.9915 0.0
O8 O 0.37035 0.10595 0.30152 0.0
O9 O 0.37817 0.09462 0.13643 0.0
O10 O 0.35701 0.11934 0.93072 0.0
O11 O 0.34356 0.12443 0.09465 0.0
C12 C 0.42127 0.12908 0.08238 0.0
C13 C 0.34008 0.12047 0.99475 0.0
C14 C 0.12589 0.59395 0.91313 0.0
C15 C 0.12077 0.67577 0.99323 0.0
O16 O 0.12252 0.60304 0.00444 0.0
Zn17 Zn 0.12342 0.63474 0.95633 0.0
O18 O 0.12878 0.60674 0.83063 0.0
Zn19 Zn 0.13001 0.64244 0.79195 0.0
O20 O 0.16123 0.64672 0.7435 0.0
O21 O 0.15884 0.63915 0.91647 0.0
O22 O 0.12503 0.67166 0.89413 0.0
O23 O 0.11839 0.65915 0.05836 0.0
O24 O 0.09367 0.63766 0.85545 0.0
O25 O 0.1051 0.64502 0.68995 0.0
C26 C 0.17101 0.64366 0.8335 0.0
C27 C 0.08897 0.64153 0.75653 0.0
C28 C 0.59494 0.88438 0.08683 0.0
C29 C 0.67584 0.8957 -0.00118 0.0
O30 O 0.60839 0.88211 0.16755 0.0
Zn31 Zn 0.64434 0.88411 0.20309 0.0
O32 O 0.60326 0.88933 0.99536 0.0
Zn33 Zn 0.63514 0.89018 0.03967 0.0
O34 O 0.64153 0.85512 0.07949 0.0
O35 O 0.6511 0.8532 0.25043 0.0
O36 O 0.65888 0.89636 0.93489 0.0
O37 O 0.67249 0.89149 0.09851 0.0
O38 O 0.64566 0.90932 0.30453 0.0
O39 O 0.63586 0.9199 0.14085 0.0
C40 C 0.64746 0.84322 0.1613 0.0
C41 C 0.63995 0.92503 0.23909 0.0
C42 C 0.88555 0.42112 0.90837 0.0
C43 C 0.89556 0.33985 0.99286 0.0
O44 O 0.8907 0.41265 -0.00072 0.0
Zn45 Zn 0.89124 0.38083 0.95356 0.0
O46 O 0.88301 0.40782 0.8273 0.0
Zn47 Zn 0.88465 0.37197 0.78989 0.0
O48 O 0.85365 0.36592 0.74244 0.0
O49 O 0.85596 0.37487 0.91421 0.0
O50 O 0.89088 0.34352 0.89388 0.0
O51 O 0.89766 0.35676 0.05652 0.0
O52 O 0.92065 0.38019 0.85166 0.0
O53 O 0.90993 0.37045 0.68825 0.0
C54 C 0.84386 0.36939 0.83221 0.0
C55 C 0.92571 0.37615 0.75339 0.0
C56 C 0.42179 0.38784 0.16541 0.0
C57 C 0.34021 0.39482 0.24778 0.0
O58 O 0.40882 0.38551 0.08302 0.0
Zn59 Zn 0.3729 0.38522 0.04532 0.0
O60 O 0.41291 0.39114 0.25729 0.0
Zn61 Zn 0.38126 0.3913 0.20958 0.0
O62 O 0.37616 0.35609 0.16798 0.0
O63 O 0.36796 0.35417 0.99549 0.0
O64 O 0.35698 0.3969 0.31219 0.0
O65 O 0.34409 0.39055 0.14855 0.0
O66 O 0.37049 0.41051 0.94509 0.0
O67 O 0.37994 0.42117 0.10916 0.0
C68 C 0.37123 0.34416 0.08479 0.0
C69 C 0.37575 0.4263 0.01099 0.0
C70 C 0.38522 0.59478 0.83537 0.0
C71 C 0.3952 0.67589 0.74824 0.0
O72 O 0.3901 0.60317 0.74397 0.0
Zn73 Zn 0.39048 0.63504 0.78868 0.0
O74 O 0.38279 0.60817 0.91619 0.0
Zn75 Zn 0.3843 0.64411 0.9523 0.0
O76 O 0.35325 0.65024 2e-05 0.0
O77 O 0.35533 0.64068 0.8291 0.0
O78 O 0.39111 0.67241 0.84794 0.0
O79 O 0.39616 0.65896 0.68417 0.0
O80 O 0.42022 0.63616 0.88957 0.0
O81 O 0.40957 0.64574 0.05342 0.0
C82 C 0.34333 0.64632 0.911 0.0
C83 C 0.42534 0.64028 0.9878 0.0
C84 C 0.6748 0.61889 0.25002 0.0
C85 C 0.59387 0.63004 0.16254 0.0
O86 O 0.67141 0.62296 0.15023 0.0
Zn87 Zn 0.64321 0.63009 0.04563 0.0
O88 O 0.65785 0.61816 0.314 0.0
Zn89 Zn 0.63407 0.62417 0.20923 0.0
O90 O 0.63469 0.59433 0.10878 0.0
O91 O 0.64444 0.60476 0.94482 0.0
O92 O 0.60222 0.62513 0.25395 0.0
O93 O 0.60728 0.63222 0.08159 0.0
O94 O 0.65002 0.66096 0.99742 0.0
O95 O 0.64056 0.65919 0.16854 0.0
C96 C 0.63873 0.5891 0.0106 0.0
C97 C 0.64649 0.67101 0.08644 0.0
C98 C 0.62862 0.42029 0.84109 0.0
C99 C 0.62046 0.33876 0.75668 0.0
O100 O 0.62331 0.41164 0.75079 0.0
Zn101 Zn 0.62393 0.37969 0.79591 0.0
O102 O 0.63179 0.40706 0.92186 0.0
Zn103 Zn 0.63106 0.37132 0.95933 0.0
O104 O 0.66219 0.36591 0.00554 0.0
O105 O 0.65946 0.37449 0.8335 0.0
O106 O 0.62513 0.34254 0.85566 0.0
O107 O 0.61812 0.35559 0.69273 0.0
O108 O 0.59459 0.3771 0.89808 0.0
O109 O 0.60622 0.36942 0.06275 0.0
C110 C 0.67177 0.36933 0.91526 0.0
C111 C 0.59001 0.37324 0.99705 0.0
C112 C 0.86905 0.67176 0.66265 0.0
C113 C 0.87482 0.58964 0.73598 0.0
O114 O 0.8745 0.65995 0.57994 0.0
Zn115 Zn 0.88017 0.62502 0.53805 0.0
O116 O 0.86554 0.66164 0.75148 0.0
Zn117 Zn 0.87133 0.6306 0.70218 0.0
O118 O 0.90734 0.63092 0.66654 0.0
O119 O 0.91196 0.62569 0.49231 0.0
O120 O 0.86933 0.6053 0.80221 0.0
O121 O 0.87901 0.59492 0.63791 0.0
O122 O 0.8562 0.61952 0.43366 0.0
O123 O 0.84289 0.62399 0.59806 0.0
C124 C 0.92056 0.62891 0.58485 0.0
C125 C 0.83934 0.62017 0.49817 0.0
C126 C 0.6298 0.09363 0.41069 0.0
C127 C 0.62015 0.17497 0.49474 0.0
O128 O 0.62472 0.10217 0.50153 0.0
Zn129 Zn 0.62433 0.13398 0.45558 0.0
O130 O 0.63239 0.10689 0.32949 0.0
Zn131 Zn 0.63093 0.14275 0.29196 0.0
O132 O 0.66192 0.1487 0.2443 0.0
O133 O 0.65965 0.13981 0.41615 0.0
O134 O 0.62481 0.17127 0.39577 0.0
O135 O 0.61802 0.15808 0.55849 0.0
O136 O 0.59488 0.13479 0.35377 0.0
O137 O 0.60569 0.14443 0.19034 0.0
C138 C 0.67173 0.14525 0.33402 0.0
C139 C 0.58986 0.13886 0.25547 0.0
C140 C 0.09442 0.38707 0.58589 0.0
C141 C 0.17607 0.39519 0.50504 0.0
O142 O 0.10749 0.38393 0.66722 0.0
Zn143 Zn 0.14315 0.3847 0.70642 0.0
O144 O 0.10322 0.39246 0.496 0.0
Zn145 Zn 0.13506 0.39187 0.54268 0.0
O146 O 0.14006 0.35631 0.58057 0.0
O147 O 0.14838 0.35355 0.75286 0.0
O148 O 0.15935 0.39761 0.44052 0.0
O149 O 0.17211 0.39053 0.60389 0.0
O150 O 0.14481 0.40957 0.8099 0.0
O151 O 0.13736 0.42121 0.64504 0.0
C152 C 0.14502 0.34398 0.6625 0.0
C153 C 0.14102 0.42578 0.74418 0.0
C154 C 0.3876 0.92172 0.41186 0.0
C155 C 0.39523 0.84046 0.50003 0.0
O156 O 0.3907 0.91317 0.50459 0.0
Zn157 Zn 0.39099 0.88133 0.45951 0.0
O158 O 0.38545 0.90846 0.33041 0.0
Zn159 Zn 0.38531 0.87242 0.29545 0.0
O160 O 0.35416 0.86697 0.24619 0.0
O161 O 0.356 0.87607 0.41754 0.0
O162 O 0.39149 0.844 0.40008 0.0
O163 O 0.3961 0.85736 0.56433 0.0
O164 O 0.42111 0.8797 0.35988 0.0
O165 O 0.41062 0.87002 0.1957 0.0
C166 C 0.3441 0.87071 0.33495 0.0
C167 C 0.42634 0.87534 0.26193 0.0
C168 C 0.84026 0.89647 0.7502 0.0
C169 C 0.92116 0.88505 0.66304 0.0
O170 O 0.84364 0.89226 0.65054 0.0
Zn171 Zn 0.87182 0.88493 0.54619 0.0
O172 O 0.85721 0.8972 0.8142 0.0
Zn173 Zn 0.88099 0.89103 0.70969 0.0
O174 O 0.88043 0.92073 0.60842 0.0
O175 O 0.87065 0.91017 0.4447 0.0
O176 O 0.91285 0.8901 0.75436 0.0
O177 O 0.90773 0.8828 0.58222 0.0
O178 O 0.86501 0.85399 0.49892 0.0
O179 O 0.87453 0.85597 0.66991 0.0
C180 C 0.87641 0.92587 0.51014 0.0
C181 C 0.86861 0.84404 0.58814 0.0
C182 C 0.88684 0.09459 0.33948 0.0
C183 C 0.89521 0.17611 0.25552 0.0
O184 O 0.89213 0.10324 0.24916 0.0
Zn185 Zn 0.89164 0.13518 0.29456 0.0
O186 O 0.88377 0.1078 0.42038 0.0
Zn187 Zn 0.88464 0.14353 0.45812 0.0
O188 O 0.85355 0.14899 0.50482 0.0
O189 O 0.85614 0.14044 0.33272 0.0
O190 O 0.89058 0.17232 0.35455 0.0
O191 O 0.89745 0.15929 0.19148 0.0
O192 O 0.92106 0.13761 0.39632 0.0
O193 O 0.90957 0.1453 0.56118 0.0
C194 C 0.8439 0.1456 0.41468 0.0
C195 C 0.92572 0.14142 0.49525 0.0
C196 C 0.1756 0.12114 0.74507 0.0
C197 C 0.09405 0.12703 0.66235 0.0
O198 O 0.17179 0.12483 0.64519 0.0
Zn199 Zn 0.14277 0.13061 0.54238 0.0
O200 O 0.15888 0.11997 0.81021 0.0
Zn201 Zn 0.13473 0.12449 0.70662 0.0
O202 O 0.13751 0.09446 0.60654 0.0
O203 O 0.14506 0.10572 0.44081 0.0
O204 O 0.10302 0.12381 0.75403 0.0
O205 O 0.10695 0.12969 0.58 0.0
O206 O 0.14749 0.16181 0.49326 0.0
O207 O 0.13918 0.1597 0.66542 0.0
C208 C 0.14137 0.08967 0.50763 0.0
C209 C 0.144 0.17174 0.58251 0.0
C210 C 0.12778 0.92154 0.33357 0.0
C211 C 0.12105 0.84005 0.24832 0.0
O212 O 0.12448 0.91284 0.24129 0.0
Zn213 Zn 0.12444 0.88107 0.28749 0.0
O214 O 0.13022 0.90841 0.41531 0.0
Zn215 Zn 0.13068 0.87249 0.45163 0.0
O216 O 0.16185 0.86762 0.50029 0.0
O217 O 0.15967 0.87605 0.32813 0.0
O218 O 0.12536 0.84387 0.34755 0.0
O219 O 0.11884 0.85686 0.18423 0.0
O220 O 0.09466 0.87942 0.3883 0.0
O221 O 0.1054 0.8698 0.55202 0.0
C222 C 0.17174 0.87105 0.41076 0.0
C223 C 0.08957 0.87506 0.48636 0.0
H224 H 0.39862 0.94479 0.23101 0.0
H225 H 0.37448 0.95515 0.55468 0.0
H226 H 0.39543 0.98548 0.19605 0.0
H227 H 0.37002 0.99618 0.51816 0.0
H228 H 0.38432 0.07246 0.43453 0.0
H229 H 0.38813 0.03201 0.48394 0.0
H230 H 0.36726 0.01258 0.16361 0.0
H231 H 0.36476 0.05265 0.11373 0.0
C232 C 0.39243 0.95582 0.2946 0.0
C233 C 0.3866 0.94677 0.39524 0.0
C234 C 0.39039 0.97921 0.27434 0.0
C235 C 0.38195 0.9942 0.35338 0.0
C236 C 0.37666 0.98522 0.4554 0.0
C237 C 0.37913 0.96172 0.47636 0.0
C238 C 0.38049 0.05944 0.37523 0.0
C239 C 0.37456 0.06565 0.26994 0.0
C240 C 0.38258 0.03626 0.4035 0.0
C241 C 0.37843 0.01891 0.32732 0.0
C242 C 0.3714 0.02535 0.2236 0.0
C243 C 0.36976 0.04837 0.19502 0.0
H244 H 0.05206 0.65227 0.87769 0.0
H245 H 0.07124 0.63106 0.5584 0.0
H246 H 0.0119 0.65013 0.82889 0.0
H247 H 0.03068 0.62762 0.5102 0.0
H248 H 0.95388 0.64153 0.44028 0.0
H249 H 0.99498 0.64599 0.47535 0.0
H250 H 0.98452 0.62194 0.79994 0.0
H251 H 0.94378 0.61872 0.76633 0.0
C252 C 0.04762 0.64701 0.79694 0.0
C253 C 0.06475 0.64163 0.72215 0.0
C254 C 0.02455 0.64558 0.76902 0.0
C255 C 0.0179 0.63817 0.66616 0.0
C256 C 0.0351 0.63347 0.58997 0.0
C257 C 0.05834 0.63536 0.61755 0.0
C258 C 0.96051 0.6372 0.51887 0.0
C259 C 0.94562 0.63008 0.601 0.0
C260 C 0.98405 0.63967 0.53899 0.0
C261 C 0.99312 0.63474 0.64119 0.0
C262 C 0.97818 0.62669 0.72141 0.0
C263 C 0.95476 0.62465 0.70193 0.0
H264 H 0.62406 0.96081 0.12143 0.0
H265 H 0.65115 0.94416 0.43463 0.0
H266 H 0.62183 1.00082 0.17165 0.0
H267 H 0.64928 0.9848 0.48455 0.0
H268 H 0.6195 0.05872 0.55204 0.0
H269 H 0.622 0.01736 0.51821 0.0
H270 H 0.64951 0.03104 0.20294 0.0
H271 H 0.64664 0.07186 0.23529 0.0
C272 C 0.62963 0.96567 0.20114 0.0
C273 C 0.63801 0.94926 0.27362 0.0
C274 C 0.62844 0.9887 0.22977 0.0
C275 C 0.63571 0.99606 0.33153 0.0
C276 C 0.64352 0.97963 0.40559 0.0
C277 C 0.64468 0.95641 0.37683 0.0
C278 C 0.62617 0.05282 0.47584 0.0
C279 C 0.63257 0.06859 0.39586 0.0
C280 C 0.62769 0.02916 0.45667 0.0
C281 C 0.63562 0.02094 0.35727 0.0
C282 C 0.6428 0.03679 0.27937 0.0
C283 C 0.64123 0.06025 0.29821 0.0
H284 H 0.07226 0.36978 0.7592 0.0
H285 H 0.05977 0.39786 0.44367 0.0
H286 H 0.03141 0.36677 0.78963 0.0
H287 H 0.01831 0.39517 0.47563 0.0
H288 H 0.96137 0.39232 0.87083 0.0
H289 H 1.00136 0.39483 0.82081 0.0
H290 H 0.98557 0.36733 0.50772 0.0
H291 H 0.94489 0.36513 0.55752 0.0
C292 C 0.06079 0.37538 0.69613 0.0
C293 C 0.06933 0.38435 0.59944 0.0
C294 C 0.0373 0.37371 0.71387 0.0
C295 C 0.02161 0.38109 0.6358 0.0
C296 C 0.03001 0.38933 0.53726 0.0
C297 C 0.05371 0.39096 0.5192 0.0
C298 C 0.96627 0.38679 0.79111 0.0
C299 C 0.94991 0.37826 0.71861 0.0
C300 C 0.98929 0.38816 0.76258 0.0
C301 C 0.99671 0.38094 0.6609 0.0
C302 C 0.98034 0.37304 0.58667 0.0
C303 C 0.9571 0.37169 0.61535 0.0
H304 H 0.39076 0.46237 0.12939 0.0
H305 H 0.36451 0.44521 0.81518 0.0
H306 H 0.39274 0.50237 0.07859 0.0
H307 H 0.36609 0.48581 0.76469 0.0
H308 H 0.36828 0.57329 0.01142 0.0
H309 H 0.36536 0.53252 0.04525 0.0
H310 H 0.39312 0.51837 0.73093 0.0
H311 H 0.39562 0.55966 0.69557 0.0
C312 C 0.38529 0.46713 0.04939 0.0
C313 C 0.37726 0.45057 0.9767 0.0
C314 C 0.38634 0.49015 0.02041 0.0
C315 C 0.37926 0.49735 0.91811 0.0
C316 C 0.37172 0.48078 0.84405 0.0
C317 C 0.37071 0.45757 0.87313 0.0
C318 C 0.37373 0.56158 0.94904 0.0
C319 C 0.38245 0.56977 0.85118 0.0
C320 C 0.37214 0.53815 0.96873 0.0
C321 C 0.37936 0.52218 0.89152 0.0
C322 C 0.38737 0.53026 0.79194 0.0
C323 C 0.38889 0.55388 0.77189 0.0
H324 H 0.46128 0.62491 0.86971 0.0
H325 H 0.44438 0.65152 0.18348 0.0
H326 H 0.50129 0.62283 0.92019 0.0
H327 H 0.485 0.64984 0.23366 0.0
H328 H 0.55871 0.62013 0.30293 0.0
H329 H 0.51743 0.62282 0.26785 0.0
H330 H 0.53168 0.65004 0.95253 0.0
H331 H 0.57245 0.64693 0.98613 0.0
C332 C 0.4661 0.63043 0.94957 0.0
C333 C 0.4496 0.63859 0.0222 0.0
C334 C 0.48913 0.62933 0.97835 0.0
C335 C 0.49642 0.63649 0.08042 0.0
C336 C 0.47991 0.64415 0.15447 0.0
C337 C 0.45668 0.64521 0.12557 0.0
C338 C 0.55295 0.62679 0.22645 0.0
C339 C 0.56887 0.63302 0.14684 0.0
C340 C 0.52934 0.62842 0.20656 0.0
C341 C 0.52128 0.63632 0.10679 0.0
C342 C 0.53728 0.64334 0.02923 0.0
C343 C 0.56071 0.64164 0.04879 0.0
H344 H 0.61782 0.4551 0.69987 0.0
H345 H 0.64543 0.4423 0.016 0.0
H346 H 0.62021 0.4965 0.73321 0.0
H347 H 0.64817 0.48313 0.04783 0.0
H348 H 0.62297 0.55338 0.1293 0.0
H349 H 0.62058 0.51333 0.07963 0.0
H350 H 0.64755 0.52918 0.76557 0.0
H351 H 0.64959 0.56984 0.81494 0.0
C352 C 0.62455 0.46108 0.77586 0.0
C353 C 0.63113 0.44538 0.85576 0.0
C354 C 0.62601 0.48476 0.79474 0.0
C355 C 0.63406 0.49309 0.8938 0.0
C356 C 0.64137 0.47731 0.97168 0.0
C357 C 0.63987 0.45383 0.95311 0.0
C358 C 0.6284 0.54846 0.04945 0.0
C359 C 0.6367 0.56484 0.97648 0.0
C360 C 0.62711 0.52541 0.02112 0.0
C361 C 0.63419 0.51799 0.91918 0.0
C362 C 0.64192 0.53438 0.84467 0.0
C363 C 0.64319 0.55763 0.87312 0.0
H364 H 0.45469 0.37503 0.31159 0.0
H365 H 0.44549 0.39841 0.98588 0.0
H366 H 0.49582 0.37023 0.27815 0.0
H367 H 0.48627 0.39482 0.95391 0.0
H368 H 0.55292 0.36282 0.87685 0.0
H369 H 0.51284 0.36572 0.92564 0.0
H370 H 0.53205 0.3882 0.24383 0.0
H371 H 0.57257 0.38406 0.19556 0.0
C372 C 0.46153 0.37944 0.2335 0.0
C373 C 0.44689 0.38677 0.15086 0.0
C374 C 0.48508 0.37677 0.21432 0.0
C375 C 0.49438 0.38169 0.11257 0.0
C376 C 0.47971 0.39006 0.03207 0.0
C377 C 0.45629 0.39232 0.05059 0.0
C378 C 0.5486 0.36824 0.9575 0.0
C379 C 0.56584 0.37345 0.03207 0.0
C380 C 0.52557 0.37011 0.9854 0.0
C381 C 0.51908 0.37776 0.08801 0.0
C382 C 0.53637 0.38221 0.16418 0.0
C383 C 0.55957 0.37991 0.13659 0.0
H384 H 0.86816 0.44265 0.73353 0.0
H385 H 0.89601 0.45618 0.04857 0.0
H386 H 0.86502 0.48342 0.70054 0.0
H387 H 0.89324 0.4975 0.01407 0.0
H388 H 0.86394 0.5705 0.93174 0.0
H389 H 0.86587 0.52988 0.98161 0.0
H390 H 0.89233 0.51377 0.66692 0.0
H391 H 0.89001 0.55379 0.61672 0.0
C392 C 0.87367 0.45434 0.79593 0.0
C393 C 0.8826 0.44612 0.89328 0.0
C394 C 0.87194 0.47778 0.77671 0.0
C395 C 0.87924 0.49372 0.85392 0.0
C396 C 0.88745 0.48562 0.95306 0.0
C397 C 0.88912 0.46199 0.97262 0.0
C398 C 0.87017 0.55823 0.87346 0.0
C399 C 0.87657 0.56537 0.76985 0.0
C400 C 0.87139 0.53502 0.90221 0.0
C401 C 0.87897 0.51857 0.82776 0.0
C402 C 0.8859 0.5259 0.7254 0.0
C403 C 0.88466 0.54893 0.69676 0.0
H404 H 0.57085 0.15017 0.05973 0.0
H405 H 0.554 0.12298 0.37257 0.0
H406 H 0.53021 0.14834 0.00943 0.0
H407 H 0.51401 0.12078 0.322 0.0
H408 H 0.44307 0.14567 0.25829 0.0
H409 H 0.48389 0.14849 0.29082 0.0
H410 H 0.49755 0.12106 0.97542 0.0
H411 H 0.45618 0.11863 0.94137 0.0
C412 C 0.55856 0.14369 0.11736 0.0
C413 C 0.56565 0.13699 0.22059 0.0
C414 C 0.53533 0.14254 0.0884 0.0
C415 C 0.51886 0.13471 0.16227 0.0
C416 C 0.52616 0.12741 0.26403 0.0
C417 C 0.54918 0.12859 0.29286 0.0
C418 C 0.45468 0.14025 0.19539 0.0
C419 C 0.44632 0.13165 0.09762 0.0
C420 C 0.47814 0.1418 0.21433 0.0
C421 C 0.49398 0.13465 0.13642 0.0
C422 C 0.48575 0.12674 0.03696 0.0
C423 C 0.46209 0.12525 0.01769 0.0
H424 H 0.11454 0.57016 0.73503 0.0
H425 H 0.13874 0.56108 0.05946 0.0
H426 H 0.11807 0.52936 0.70313 0.0
H427 H 0.14349 0.51993 0.02603 0.0
H428 H 0.13033 0.44304 0.94331 0.0
H429 H 0.12578 0.48349 0.99217 0.0
H430 H 0.14739 0.50311 0.67322 0.0
H431 H 0.15072 0.46309 0.62393 0.0
C432 C 0.12076 0.55937 0.79953 0.0
C433 C 0.12659 0.56881 0.89934 0.0
C434 C 0.12299 0.53594 0.78103 0.0
C435 C 0.13163 0.52131 0.86105 0.0
C436 C 0.13674 0.53064 0.96254 0.0
C437 C 0.13409 0.5542 0.98174 0.0
C438 C 0.13419 0.45611 0.88428 0.0
C439 C 0.14055 0.44996 0.77943 0.0
C440 C 0.13165 0.47927 0.9122 0.0
C441 C 0.13574 0.49665 0.83604 0.0
C442 C 0.14328 0.49029 0.73304 0.0
C443 C 0.14539 0.4673 0.70485 0.0
H444 H 0.44536 0.86391 0.0667 0.0
H445 H 0.46243 0.89017 0.38098 0.0
H446 H 0.48599 0.86526 0.01682 0.0
H447 H 0.50249 0.89195 0.33074 0.0
H448 H 0.55977 0.8945 0.94699 0.0
H449 H 0.5185 0.89205 0.98269 0.0
H450 H 0.53275 0.86475 0.29781 0.0
H451 H 0.57352 0.86762 0.26359 0.0
C452 C 0.45771 0.87006 0.12482 0.0
C453 C 0.45066 0.8767 0.2282 0.0
C454 C 0.48094 0.87094 0.09608 0.0
C455 C 0.49751 0.87844 0.17026 0.0
C456 C 0.49028 0.88557 0.27245 0.0
C457 C 0.46722 0.88465 0.3011 0.0
C458 C 0.55402 0.88787 0.02356 0.0
C459 C 0.56994 0.88154 0.10291 0.0
C460 C 0.53041 0.88639 0.04382 0.0
C461 C 0.52235 0.87852 0.14369 0.0
C462 C 0.53835 0.87141 0.22103 0.0
C463 C 0.56178 0.87297 0.20111 0.0
H464 H 0.86553 0.94503 0.31421 0.0
H465 H 0.89233 0.96162 0.62807 0.0
H466 H 0.86763 0.98568 0.26429 0.0
H467 H 0.89477 1.00163 0.57789 0.0
H468 H 0.89757 0.05976 0.19823 0.0
H469 H 0.89508 0.01835 0.23159 0.0
H470 H 0.86706 0.03179 0.54602 0.0
H471 H 0.86989 0.07262 0.51417 0.0
C472 C 0.87198 0.95727 0.37215 0.0
C473 C 0.87849 0.9501 0.47556 0.0
C474 C 0.87328 0.98049 0.34339 0.0
C475 C 0.88107 0.99691 0.41765 0.0
C476 C 0.88819 0.98953 0.51958 0.0
C477 C 0.88687 0.9665 0.54821 0.0
C478 C 0.8908 0.05379 0.27417 0.0
C479 C 0.88423 0.0695 0.35405 0.0
C480 C 0.88929 0.03011 0.29306 0.0
C481 C 0.8812 0.0218 0.3921 0.0
C482 C 0.87389 0.03759 0.4699 0.0
C483 C 0.87545 0.06107 0.45133 0.0
H484 H 0.94322 0.13061 0.6937 0.0
H485 H 0.96281 0.15151 0.37443 0.0
H486 H 0.98374 0.12632 0.74164 0.0
H487 H 1.00291 0.14847 0.42287 0.0
H488 H 0.07033 0.11609 0.4833 0.0
H489 H 0.02952 0.11947 0.45156 0.0
H490 H 0.01998 0.14423 0.77551 0.0
H491 H 0.06113 0.13962 0.80873 0.0
C492 C 0.95621 0.13465 0.63452 0.0
C493 C 0.94992 0.14107 0.52996 0.0
C494 C 0.97941 0.13226 0.66191 0.0
C495 C 0.99669 0.13659 0.58553 0.0
C496 C 0.99018 0.14418 0.48282 0.0
C497 C 0.96714 0.14613 0.45512 0.0
C498 C 0.05952 0.12215 0.54802 0.0
C499 C 0.06893 0.12781 0.64812 0.0
C500 C 0.03608 0.12429 0.52963 0.0
C501 C 0.0214 0.13267 0.61008 0.0
C502 C 0.03072 0.13767 0.71171 0.0
C503 C 0.05428 0.13511 0.73078 0.0
H504 H 0.14083 0.95483 0.18984 0.0
H505 H 0.1167 0.94472 0.51374 0.0
H506 H 0.1454 0.99589 0.2257 0.0
H507 H 0.12001 0.98544 0.54805 0.0
H508 H 0.15107 0.05252 0.62935 0.0
H509 H 0.14847 0.01242 0.5798 0.0
H510 H 0.12729 0.03175 0.25981 0.0
H511 H 0.13118 0.0722 0.30883 0.0
C512 C 0.1362 0.96147 0.26803 0.0
C513 C 0.12871 0.9466 0.34946 0.0
C514 C 0.13873 0.98497 0.28863 0.0
C515 C 0.1335 0.99402 0.39056 0.0
C516 C 0.125 0.9791 0.46984 0.0
C517 C 0.1229 0.95571 0.44995 0.0
C518 C 0.146 0.04821 0.5482 0.0
C519 C 0.14113 0.06545 0.47324 0.0
C520 C 0.1443 0.02518 0.51982 0.0
C521 C 0.13714 0.01871 0.41631 0.0
C522 C 0.13293 0.03603 0.34007 0.0
C523 C 0.13508 0.0592 0.36813 0.0
H524 H 0.94243 0.86761 0.4875 0.0
H525 H 0.95642 0.89529 0.80239 0.0
H526 H 0.98317 0.86439 0.4534 0.0
H527 H 0.99768 0.89248 0.76676 0.0
H528 H 0.07073 0.86389 0.68253 0.0
H529 H 0.03013 0.8654 0.73332 0.0
H530 H 0.01342 0.89164 0.41889 0.0
H531 H 0.05339 0.88972 0.36782 0.0
C532 C 0.95422 0.87306 0.54963 0.0
C533 C 0.94614 0.88197 0.64726 0.0
C534 C 0.97763 0.87129 0.52979 0.0
C535 C 0.99369 0.87853 0.60662 0.0
C536 C 0.98572 0.88671 0.70604 0.0
C537 C 0.96212 0.88841 0.72625 0.0
C538 C 0.05833 0.86996 0.6245 0.0
C539 C 0.06529 0.87644 0.52075 0.0
C540 C 0.03513 0.87093 0.65376 0.0
C541 C 0.01852 0.87836 0.57967 0.0
C542 C 0.02567 0.88532 0.47711 0.0
C543 C 0.04868 0.88432 0.44799 0.0
H544 H 0.35744 0.31306 0.93248 0.0
H545 H 0.38145 0.31809 0.25965 0.0
H546 H 0.3552 0.27145 0.95072 0.0
H547 H 0.37986 0.27669 0.27675 0.0
H548 H 0.38113 0.19762 0.983 0.0
H549 H 0.38018 0.23903 0.96528 0.0
H550 H 0.3542 0.24474 0.28886 0.0
H551 H 0.35581 0.20312 0.30779 0.0
C552 C 0.3623 0.3053 0.00807 0.0
C553 C 0.36964 0.31891 0.09445 0.0
C554 C 0.36111 0.28145 0.01847 0.0
C555 C 0.36734 0.27068 0.11531 0.0
C556 C 0.37455 0.28437 0.20168 0.0
C557 C 0.37563 0.30816 0.19148 0.0
C558 C 0.37514 0.20766 0.05046 0.0
C559 C 0.36863 0.19704 0.14709 0.0
C560 C 0.37443 0.23146 0.0399 0.0
C561 C 0.36709 0.24527 0.1255 0.0
C562 C 0.36025 0.23463 0.22177 0.0
C563 C 0.36107 0.21077 0.23254 0.0
H564 H 0.20234 0.6574 0.68242 0.0
H565 H 0.1968 0.63363 0.00977 0.0
H566 H 0.24386 0.66004 0.70248 0.0
H567 H 0.23819 0.6356 0.02873 0.0
H568 H 0.31176 0.66033 0.061 0.0
H569 H 0.27009 0.66142 0.04159 0.0
H570 H 0.27632 0.63538 0.71833 0.0
H571 H 0.31769 0.63495 0.73645 0.0
C572 C 0.20997 0.65265 0.75842 0.0
C573 C 0.19624 0.64527 0.8443 0.0
C574 C 0.23378 0.65407 0.76989 0.0
C575 C 0.24441 0.64802 0.8673 0.0
C576 C 0.23061 0.64076 0.95321 0.0
C577 C 0.20684 0.63946 0.94195 0.0
C578 C 0.3042 0.65497 0.98571 0.0
C579 C 0.31807 0.64756 0.90041 0.0
C580 C 0.28032 0.65547 0.97467 0.0
C581 C 0.26981 0.64849 0.87828 0.0
C582 C 0.28377 0.64126 0.79299 0.0
C583 C 0.30756 0.64086 0.80379 0.0
H584 H 0.63741 0.81733 0.98563 0.0
H585 H 0.66193 0.81204 0.31189 0.0
H586 H 0.63893 0.77596 0.96771 0.0
H587 H 0.6641 0.77044 0.29277 0.0
H588 H 0.63651 0.69707 0.26153 0.0
H589 H 0.63852 0.73842 0.27925 0.0
H590 H 0.66403 0.7436 0.95463 0.0
H591 H 0.66136 0.70201 0.93571 0.0
C592 C 0.64337 0.80735 0.05338 0.0
C593 C 0.64946 0.81802 0.15051 0.0
C594 C 0.64441 0.78357 0.04268 0.0
C595 C 0.65166 0.76981 0.12864 0.0
C596 C 0.65814 0.7805 0.22534 0.0
C597 C 0.657 0.80435 0.23624 0.0
C598 C 0.64264 0.70697 0.19382 0.0
C599 C 0.64868 0.6962 0.09689 0.0
C600 C 0.64397 0.73073 0.20441 0.0
C601 C 0.65148 0.7444 0.11854 0.0
C602 C 0.65788 0.73361 0.02199 0.0
C603 C 0.65645 0.70977 0.01119 0.0
H604 H 0.70338 0.35511 0.06397 0.0
H605 H 0.69718 0.37989 0.73851 0.0
H606 H 0.7449 0.35304 0.04255 0.0
H607 H 0.73855 0.37848 0.71828 0.0
H608 H 0.81236 0.3552 0.68242 0.0
H609 H 0.77076 0.35319 0.703 0.0
H610 H 0.77696 0.37843 0.02769 0.0
H611 H 0.8183 0.37978 0.00834 0.0
C612 C 0.71086 0.36017 0.98804 0.0
C613 C 0.69696 0.36771 0.90314 0.0
C614 C 0.73467 0.35908 0.97583 0.0
C615 C 0.7451 0.36562 0.87865 0.0
C616 C 0.73112 0.37295 0.79358 0.0
C617 C 0.70736 0.37393 0.80558 0.0
C618 C 0.80481 0.3602 0.75827 0.0
C619 C 0.81866 0.36766 0.84358 0.0
C620 C 0.78097 0.35916 0.76998 0.0
C621 C 0.77048 0.36565 0.8671 0.0
C622 C 0.78442 0.37292 0.95246 0.0
C623 C 0.80818 0.37385 0.94096 0.0
H624 H 0.85468 0.70279 0.81424 0.0
H625 H 0.8793 0.69787 0.48805 0.0
H626 H 0.85223 0.7444 0.79561 0.0
H627 H 0.87751 0.73923 0.47061 0.0
H628 H 0.85407 0.81279 0.43789 0.0
H629 H 0.85194 0.77118 0.45727 0.0
H630 H 0.87727 0.77684 0.78201 0.0
H631 H 0.87874 0.81821 0.76385 0.0
C632 C 0.85961 0.71057 0.73878 0.0
C633 C 0.86721 0.69699 0.65282 0.0
C634 C 0.8583 0.73442 0.72813 0.0
C635 C 0.86466 0.7452 0.63148 0.0
C636 C 0.87208 0.73154 0.54549 0.0
C637 C 0.87328 0.70777 0.55593 0.0
C638 C 0.85904 0.80513 0.51352 0.0
C639 C 0.86662 0.81884 0.59909 0.0
C640 C 0.85793 0.78128 0.52457 0.0
C641 C 0.86447 0.77062 0.62125 0.0
C642 C 0.87175 0.78442 0.70706 0.0
C643 C 0.87276 0.8082 0.69622 0.0
H644 H 0.81236 0.15966 0.56411 0.0
H645 H 0.81838 0.13514 0.23816 0.0
H646 H 0.77081 0.16163 0.54341 0.0
H647 H 0.777 0.13645 0.21863 0.0
H648 H 0.70313 0.15956 0.18408 0.0
H649 H 0.74472 0.16165 0.20419 0.0
H650 H 0.73878 0.1362 0.52864 0.0
H651 H 0.69741 0.13477 0.50974 0.0
C652 C 0.80483 0.15464 0.48822 0.0
C653 C 0.8187 0.1472 0.40297 0.0
C654 C 0.78101 0.15567 0.47642 0.0
C655 C 0.77052 0.14917 0.37931 0.0
C656 C 0.78446 0.14195 0.2939 0.0
C657 C 0.80824 0.14103 0.30549 0.0
C658 C 0.71073 0.15452 0.25977 0.0
C659 C 0.69694 0.14698 0.34515 0.0
C660 C 0.73457 0.15562 0.27122 0.0
C661 C 0.74513 0.14909 0.36811 0.0
C662 C 0.73126 0.14174 0.45356 0.0
C663 C 0.70749 0.14075 0.44233 0.0
H664 H 0.13435 0.31866 0.48563 0.0
H665 H 0.15867 0.31222 0.81173 0.0
H666 H 0.13516 0.27726 0.46579 0.0
H667 H 0.16015 0.27066 0.79072 0.0
H668 H 0.15792 0.20311 0.43158 0.0
H669 H 0.15998 0.24471 0.45124 0.0
H670 H 0.13441 0.23891 0.77553 0.0
H671 H 0.133 0.19754 0.75707 0.0
C672 C 0.14009 0.30842 0.55293 0.0
C673 C 0.14636 0.31877 0.65054 0.0
C674 C 0.14071 0.28464 0.54117 0.0
C675 C 0.14773 0.27058 0.62653 0.0
C676 C 0.15433 0.28095 0.72377 0.0
C677 C 0.15359 0.30478 0.73575 0.0
C678 C 0.1528 0.21075 0.50705 0.0
C679 C 0.1453 0.19699 0.59263 0.0
C680 C 0.15389 0.23459 0.51828 0.0
C681 C 0.1474 0.24519 0.61513 0.0
C682 C 0.13995 0.23136 0.70053 0.0
C683 C 0.13897 0.20759 0.68954 0.0
H684 H 0.19751 0.8815 0.23513 0.0
H685 H 0.20311 0.85714 0.5615 0.0
H686 H 0.23889 0.88008 0.21652 0.0
H687 H 0.24469 0.85506 0.54173 0.0
H688 H 0.3182 0.88155 0.50936 0.0
H689 H 0.27684 0.88034 0.52719 0.0
H690 H 0.27113 0.85479 0.20285 0.0
H691 H 0.31277 0.85665 0.1838 0.0
C692 C 0.20756 0.87564 0.3028 0.0
C693 C 0.19697 0.86953 0.4001 0.0
C694 C 0.23134 0.87465 0.29171 0.0
C695 C 0.24518 0.86742 0.37745 0.0
C696 C 0.23457 0.86101 0.47446 0.0
C697 C 0.21073 0.86211 0.48576 0.0
C698 C 0.30819 0.8756 0.44168 0.0
C699 C 0.31883 0.86926 0.34488 0.0
C700 C 0.28441 0.87474 0.45234 0.0
C701 C 0.27059 0.86741 0.36669 0.0
C702 C 0.28123 0.86081 0.27007 0.0
C703 C 0.30511 0.86177 0.25919 0.0
H704 H 0.21285 0.10825 0.62854 0.0
H705 H 0.19224 0.12885 0.94678 0.0
H706 H 0.25247 0.10565 0.68775 0.0
H707 H 0.23204 0.12761 0.0052 0.0
H708 H 0.30273 0.107 0.10884 0.0
H709 H 0.26315 0.10482 0.04865 0.0
H710 H 0.28404 0.12775 0.73327 0.0
H711 H 0.32381 0.12856 0.79264 0.0
C712 C 0.21686 0.11236 0.71121 0.0
C713 C 0.19947 0.11877 0.78308 0.0
C714 C 0.23964 0.11105 0.7451 0.0
C715 C 0.24568 0.11656 0.85131 0.0
C716 C 0.22814 0.12281 0.92335 0.0
C717 C 0.20527 0.12367 0.88986 0.0
C718 C 0.29883 0.11138 0.02636 0.0
C719 C 0.31633 0.11798 0.95541 0.0
C720 C 0.27608 0.11033 0.99193 0.0
C721 C 0.27017 0.11632 0.88615 0.0
C722 C 0.28784 0.12263 0.8148 0.0
C723 C 0.31068 0.12322 0.84881 0.0
H724 H 0.10756 0.82457 0.04994 0.0
H725 H 0.13066 0.80121 0.36063 0.0
H726 H 0.10543 0.78487 0.98863 0.0
H727 H 0.12931 0.76184 0.29868 0.0
H728 H 0.10654 0.69161 0.1894 0.0
H729 H 0.10447 0.73135 0.24946 0.0
H730 H 0.13001 0.75391 0.94147 0.0
H731 H 0.1313 0.7144 0.88055 0.0
C732 C 0.11223 0.81099 0.105 0.0
C733 C 0.11928 0.81608 0.21008 0.0
C734 C 0.11113 0.78823 0.06979 0.0
C735 C 0.1172 0.77009 0.13868 0.0
C736 C 0.1241 0.77527 0.24393 0.0
C737 C 0.12503 0.79794 0.27925 0.0
C738 C 0.11161 0.70508 0.13449 0.0
C739 C 0.11912 0.69982 0.03033 0.0
C740 C 0.11053 0.72787 0.16899 0.0
C741 C 0.11712 0.7459 0.10042 0.0
C742 C 0.12443 0.74057 0.99594 0.0
C743 C 0.12533 0.71784 0.96124 0.0
H744 H 0.71283 0.90981 0.11394 0.0
H745 H 0.69242 0.88855 0.79633 0.0
H746 H 0.75241 0.91284 0.0547 0.0
H747 H 0.73223 0.89025 0.73783 0.0
H748 H 0.80317 0.91025 0.63499 0.0
H749 H 0.76356 0.91288 0.69417 0.0
H750 H 0.78391 0.89052 0.01112 0.0
H751 H 0.82373 0.88922 0.95269 0.0
C752 C 0.71686 0.90572 0.03129 0.0
C753 C 0.69955 0.89891 0.95974 0.0
C754 C 0.73963 0.90726 0.99742 0.0
C755 C 0.74576 0.90159 0.89154 0.0
C756 C 0.72826 0.89514 0.8195 0.0
C757 C 0.70539 0.89403 0.85299 0.0
C758 C 0.79917 0.90613 0.71765 0.0
C759 C 0.81653 0.8995 0.78925 0.0
C760 C 0.77638 0.90744 0.75148 0.0
C761 C 0.7703 0.90171 0.85737 0.0
C762 C 0.78784 0.89545 0.92945 0.0
C763 C 0.81072 0.89458 0.896 0.0
H764 H 0.90966 0.19134 0.0584 0.0
H765 H 0.88541 0.21515 0.36632 0.0
H766 H 0.91219 0.23092 0.99614 0.0
H767 H 0.88714 0.25447 0.30327 0.0
H768 H 0.90953 0.32475 0.19114 0.0
H769 H 0.91181 0.28518 0.25402 0.0
H770 H 0.88767 0.26149 0.94545 0.0
H771 H 0.88619 0.30074 0.88191 0.0
C772 C 0.90483 0.205 0.11268 0.0
C773 C 0.8973 0.20006 0.21719 0.0
C774 C 0.90616 0.2277 0.0769 0.0
C775 C 0.89982 0.24597 0.14456 0.0
C776 C 0.89254 0.24095 0.24944 0.0
C777 C 0.89138 0.21832 0.28538 0.0
C778 C 0.90487 0.31106 0.13668 0.0
C779 C 0.89767 0.31594 0.03161 0.0
C780 C 0.90605 0.28837 0.17281 0.0
C781 C 0.89989 0.27006 0.1049 0.0
C782 C 0.89294 0.27503 -0.0005 0.0
C783 C 0.89193 0.29763 0.96326 0.0
H784 H 0.19169 0.40948 0.30831 0.0
H785 H 0.21485 0.38501 0.61698 0.0
H786 H 0.23138 0.41158 0.24719 0.0
H787 H 0.25427 0.38633 0.55509 0.0
H788 H 0.3248 0.40856 0.44566 0.0
H789 H 0.28514 0.41088 0.50707 0.0
H790 H 0.26191 0.38681 0.19762 0.0
H791 H 0.30129 0.38528 0.13549 0.0
C792 C 0.20523 0.40451 0.36299 0.0
C793 C 0.20008 0.39706 0.46741 0.0
C794 C 0.22799 0.4056 0.32787 0.0
C795 C 0.2461 0.39909 0.39611 0.0
C796 C 0.24087 0.39186 0.50084 0.0
C797 C 0.21819 0.39094 0.53612 0.0
C798 C 0.31119 0.40389 0.39073 0.0
C799 C 0.31623 0.39672 0.28579 0.0
C800 C 0.28845 0.4051 0.426 0.0
C801 C 0.27025 0.399 0.35738 0.0
C802 C 0.27538 0.39203 0.25218 0.0
C803 C 0.29804 0.39098 0.21676 0.0
H804 H 0.3874 0.82385 0.70197 0.0
H805 H 0.40884 0.80333 0.38483 0.0
H806 H 0.38861 0.78401 0.76032 0.0
H807 H 0.41138 0.76372 0.44395 0.0
H808 H 0.38781 0.6924 0.54582 0.0
H809 H 0.38898 0.73223 0.48738 0.0
H810 H 0.41114 0.7527 0.80452 0.0
H811 H 0.40863 0.71308 0.86368 0.0
C812 C 0.39279 0.81084 0.64535 0.0
C813 C 0.39789 0.81667 0.53881 0.0
C814 C 0.39362 0.78796 0.67877 0.0
C815 C 0.40002 0.77043 0.60688 0.0
C816 C 0.40584 0.77653 0.50112 0.0
C817 C 0.40457 0.79931 0.46731 0.0
C818 C 0.39307 0.70544 0.60257 0.0
C819 C 0.398 0.69966 0.70934 0.0
C820 C 0.39387 0.72832 0.56911 0.0
C821 C 0.40006 0.7459 0.64121 0.0
C822 C 0.40575 0.73985 0.74718 0.0
C823 C 0.40451 0.71706 0.78101 0.0
H824 H 0.71199 0.60522 0.13528 0.0
H825 H 0.69126 0.62644 0.45242 0.0
H826 H 0.75162 0.60293 0.19462 0.0
H827 H 0.73108 0.62547 0.511 0.0
H828 H 0.80232 0.60638 0.61402 0.0
H829 H 0.76271 0.60336 0.55512 0.0
H830 H 0.7828 0.62582 0.2379 0.0
H831 H 0.82262 0.62752 0.29606 0.0
C832 C 0.71596 0.60946 0.21785 0.0
C833 C 0.69854 0.61603 0.28925 0.0
C834 C 0.73875 0.60834 0.25177 0.0
C835 C 0.74479 0.61423 0.35754 0.0
C836 C 0.72719 0.62044 0.42943 0.0
C837 C 0.70431 0.62111 0.3959 0.0
C838 C 0.79826 0.61047 0.53141 0.0
C839 C 0.81556 0.61721 0.45962 0.0
C840 C 0.77548 0.60893 0.49772 0.0
C841 C 0.76932 0.61452 0.39177 0.0
C842 C 0.78679 0.62098 0.3196 0.0
C843 C 0.80967 0.62209 0.35292 0.0
H844 H 0.62947 0.21405 0.38341 0.0
H845 H 0.60626 0.19012 0.69301 0.0
H846 H 0.628 0.25333 0.44668 0.0
H847 H 0.60399 0.22971 0.75561 0.0
H848 H 0.63039 0.29974 0.86737 0.0
H849 H 0.62869 0.26042 0.80441 0.0
H850 H 0.60347 0.28391 0.49748 0.0
H851 H 0.60595 0.32351 0.55965 0.0
C852 C 0.62377 0.21718 0.46479 0.0
C853 C 0.61806 0.1989 0.53332 0.0
C854 C 0.62276 0.2398 0.50087 0.0
C855 C 0.61585 0.24479 0.60629 0.0
C856 C 0.60972 0.22651 0.67438 0.0
C857 C 0.6109 0.2038 0.63841 0.0
C858 C 0.62439 0.29656 0.78649 0.0
C859 C 0.6184 0.31481 0.71834 0.0
C860 C 0.62325 0.27393 0.75061 0.0
C861 C 0.61592 0.2689 0.64582 0.0
C862 C 0.60953 0.28715 0.57817 0.0
C863 C 0.61084 0.30986 0.6139 0.0
loop_
_geom_bond_atom_site_label_1
_geom_bond_atom_site_label_2
_geom_bond_distance
_geom_bond_site_symmetry_2
_ccdc_geom_bond_type
C0 O2 1.247 . S
C0 O4 1.258 . S
C1 O8 1.247 . S
C1 O9 1.258 . S
O2 C0 1.247 . S
O2 Zn3 2.028 . S
Zn3 O2 2.028 . S
Zn3 O7 2.035 . S
Zn3 O9 2.035 . S
Zn3 O10 2.028 . S
O4 C0 1.258 . S
O4 Zn5 2.035 . S
Zn5 O4 2.035 . S
Zn5 O6 2.028 . S
Zn5 O8 2.028 . S
Zn5 O11 2.035 . S
O6 Zn5 2.028 . S
O6 C12 1.247 . S
O7 Zn3 2.035 . S
O7 C12 1.258 . S
O8 C1 1.247 . S
O8 Zn5 2.028 . S
O9 C1 1.258 . S
O9 Zn3 2.035 . S
O10 Zn3 2.028 . S
O10 C13 1.247 . S
O11 Zn5 2.035 . S
O11 C13 1.258 . S
C12 O6 1.247 . S
C12 O7 1.258 . S
C13 O10 1.247 . S
C13 O11 1.258 . S
C14 O16 1.247 . S
C14 O18 1.258 . S
C15 O22 1.247 . S
C15 O23 1.258 . S
O16 C14 1.247 . S
O16 Zn17 2.028 . S
Zn17 O16 2.028 . S
Zn17 O21 2.035 . S
Zn17 O23 2.035 . S
Zn17 O24 2.028 . S
O18 C14 1.258 . S
O18 Zn19 2.035 . S
Zn19 O18 2.035 . S
Zn19 O20 2.028 . S
Zn19 O22 2.028 . S
Zn19 O25 2.035 . S
O20 Zn19 2.028 . S
O20 C26 1.247 . S
O21 Zn17 2.035 . S
O21 C26 1.258 . S
O22 C15 1.247 . S
O22 Zn19 2.028 . S
O23 C15 1.258 . S
O23 Zn17 2.035 . S
O24 Zn17 2.028 . S
O24 C27 1.247 . S
O25 Zn19 2.035 . S
O25 C27 1.258 . S
C26 O20 1.247 . S
C26 O21 1.258 . S
C27 O24 1.247 . S
C27 O25 1.258 . S
C28 O30 1.247 . S
C28 O32 1.258 . S
C29 O36 1.247 . S
C29 O37 1.258 . S
O30 C28 1.247 . S
O30 Zn31 2.028 . S
Zn31 O30 2.028 . S
Zn31 O35 2.035 . S
Zn31 O37 2.035 . S
Zn31 O38 2.028 . S
O32 C28 1.258 . S
O32 Zn33 2.035 . S
Zn33 O32 2.035 . S
Zn33 O34 2.028 . S
Zn33 O36 2.028 . S
Zn33 O39 2.035 . S
O34 Zn33 2.028 . S
O34 C40 1.247 . S
O35 Zn31 2.035 . S
O35 C40 1.258 . S
O36 C29 1.247 . S
O36 Zn33 2.028 . S
O37 C29 1.258 . S
O37 Zn31 2.035 . S
O38 Zn31 2.028 . S
O38 C41 1.247 . S
O39 Zn33 2.035 . S
O39 C41 1.258 . S
C40 O34 1.247 . S
C40 O35 1.258 . S
C41 O38 1.247 . S
C41 O39 1.258 . S
C42 O44 1.247 . S
C42 O46 1.258 . S
C43 O50 1.247 . S
C43 O51 1.258 . S
O44 C42 1.247 . S
O44 Zn45 2.028 . S
Zn45 O44 2.028 . S
Zn45 O49 2.035 . S
Zn45 O51 2.035 . S
Zn45 O52 2.028 . S
O46 C42 1.258 . S
O46 Zn47 2.035 . S
Zn47 O46 2.035 . S
Zn47 O48 2.028 . S
Zn47 O50 2.028 . S
Zn47 O53 2.035 . S
O48 Zn47 2.028 . S
O48 C54 1.247 . S
O49 Zn45 2.035 . S
O49 C54 1.258 . S
O50 C43 1.247 . S
O50 Zn47 2.028 . S
O51 C43 1.258 . S
O51 Zn45 2.035 . S
O52 Zn45 2.028 . S
O52 C55 1.247 . S
O53 Zn47 2.035 . S
O53 C55 1.258 . S
C54 O48 1.247 . S
C54 O49 1.258 . S
C55 O52 1.247 . S
C55 O53 1.258 . S
C56 O58 1.247 1_554 S
C56 O60 1.258 . S
C57 O64 1.247 . S
C57 O65 1.258 . S
O58 C56 1.247 1_556 S
O58 Zn59 2.028 . S
Zn59 O58 2.028 . S
Zn59 O63 2.035 1_556 S
Zn59 O65 2.035 1_556 S
Zn59 O66 2.028 1_556 S
O60 C56 1.258 . S
O60 Zn61 2.035 . S
Zn61 O60 2.035 . S
Zn61 O62 2.028 . S
Zn61 O64 2.028 . S
Zn61 O67 2.035 . S
O62 Zn61 2.028 . S
O62 C68 1.247 . S
O63 Zn59 2.035 1_554 S
O63 C68 1.258 . S
O64 C57 1.247 . S
O64 Zn61 2.028 . S
O65 C57 1.258 . S
O65 Zn59 2.035 1_554 S
O66 Zn59 2.028 1_554 S
O66 C69 1.247 . S
O67 Zn61 2.035 . S
O67 C69 1.258 . S
C68 O62 1.247 . S
C68 O63 1.258 . S
C69 O66 1.247 . S
C69 O67 1.258 . S
C70 O72 1.247 . S
C70 O74 1.258 1_556 S
C71 O78 1.247 . S
C71 O79 1.258 . S
O72 C70 1.247 . S
O72 Zn73 2.028 . S
Zn73 O72 2.028 . S
Zn73 O77 2.035 . S
Zn73 O79 2.035 . S
Zn73 O80 2.028 . S
O74 C70 1.258 1_554 S
O74 Zn75 2.035 . S
Zn75 O74 2.035 . S
Zn75 O76 2.028 1_554 S
Zn75 O78 2.028 1_554 S
Zn75 O81 2.035 1_554 S
O76 Zn75 2.028 1_556 S
O76 C82 1.247 . S
O77 Zn73 2.035 . S
O77 C82 1.258 . S
O78 C71 1.247 . S
O78 Zn75 2.028 1_556 S
O79 C71 1.258 . S
O79 Zn73 2.035 . S
O80 Zn73 2.028 . S
O80 C83 1.247 . S
O81 Zn75 2.035 1_556 S
O81 C83 1.258 . S
C82 O76 1.247 . S
C82 O77 1.258 . S
C83 O80 1.247 . S
C83 O81 1.258 . S
C84 O86 1.247 . S
C84 O88 1.258 . S
C85 O92 1.247 . S
C85 O93 1.258 1_554 S
O86 C84 1.247 . S
O86 Zn87 2.028 1_554 S
Zn87 O86 2.028 1_556 S
Zn87 O91 2.035 1_556 S
Zn87 O93 2.035 . S
Zn87 O94 2.028 1_556 S
O88 C84 1.258 . S
O88 Zn89 2.035 . S
Zn89 O88 2.035 . S
Zn89 O90 2.028 . S
Zn89 O92 2.028 . S
Zn89 O95 2.035 . S
O90 Zn89 2.028 . S
O90 C96 1.247 . S
O91 Zn87 2.035 1_554 S
O91 C96 1.258 . S
O92 C85 1.247 . S
O92 Zn89 2.028 . S
O93 C85 1.258 1_556 S
O93 Zn87 2.035 . S
O94 Zn87 2.028 1_554 S
O94 C97 1.247 . S
O95 Zn89 2.035 . S
O95 C97 1.258 . S
C96 O90 1.247 . S
C96 O91 1.258 . S
C97 O94 1.247 . S
C97 O95 1.258 . S
C98 O100 1.247 . S
C98 O102 1.258 1_556 S
C99 O106 1.247 . S
C99 O107 1.258 . S
O100 C98 1.247 . S
O100 Zn101 2.028 . S
Zn101 O100 2.028 . S
Zn101 O105 2.035 . S
Zn101 O107 2.035 . S
Zn101 O108 2.028 . S
O102 C98 1.258 1_554 S
O102 Zn103 2.035 . S
Zn103 O102 2.035 . S
Zn103 O104 2.028 1_554 S
Zn103 O106 2.028 1_554 S
Zn103 O109 2.035 1_554 S
O104 Zn103 2.028 1_556 S
O104 C110 1.247 . S
O105 Zn101 2.035 . S
O105 C110 1.258 . S
O106 C99 1.247 . S
O106 Zn103 2.028 1_556 S
O107 C99 1.258 . S
O107 Zn101 2.035 . S
O108 Zn101 2.028 . S
O108 C111 1.247 . S
O109 Zn103 2.035 1_556 S
O109 C111 1.258 . S
C110 O104 1.247 . S
C110 O105 1.258 . S
C111 O108 1.247 . S
C111 O109 1.258 . S
C112 O114 1.247 . S
C112 O116 1.258 . S
C113 O120 1.247 . S
C113 O121 1.258 . S
O114 C112 1.247 . S
O114 Zn115 2.028 . S
Zn115 O114 2.028 . S
Zn115 O119 2.035 . S
Zn115 O121 2.035 . S
Zn115 O122 2.028 . S
O116 C112 1.258 . S
O116 Zn117 2.035 . S
Zn117 O116 2.035 . S
Zn117 O118 2.028 . S
Zn117 O120 2.028 . S
Zn117 O123 2.035 . S
O118 Zn117 2.028 . S
O118 C124 1.247 . S
O119 Zn115 2.035 . S
O119 C124 1.258 . S
O120 C113 1.247 . S
O120 Zn117 2.028 . S
O121 C113 1.258 . S
O121 Zn115 2.035 . S
O122 Zn115 2.028 . S
O122 C125 1.247 . S
O123 Zn117 2.035 . S
O123 C125 1.258 . S
C124 O118 1.247 . S
C124 O119 1.258 . S
C125 O122 1.247 . S
C125 O123 1.258 . S
C126 O128 1.247 . S
C126 O130 1.258 . S
C127 O134 1.247 . S
C127 O135 1.258 . S
O128 C126 1.247 . S
O128 Zn129 2.028 . S
Zn129 O128 2.028 . S
Zn129 O133 2.035 . S
Zn129 O135 2.035 . S
Zn129 O136 2.028 . S
O130 C126 1.258 . S
O130 Zn131 2.035 . S
Zn131 O130 2.035 . S
Zn131 O132 2.028 . S
Zn131 O134 2.028 . S
Zn131 O137 2.035 . S
O132 Zn131 2.028 . S
O132 C138 1.247 . S
O133 Zn129 2.035 . S
O133 C138 1.258 . S
O134 C127 1.247 . S
O134 Zn131 2.028 . S
O135 C127 1.258 . S
O135 Zn129 2.035 . S
O136 Zn129 2.028 . S
O136 C139 1.247 . S
O137 Zn131 2.035 . S
O137 C139 1.258 . S
C138 O132 1.247 . S
C138 O133 1.258 . S
C139 O136 1.247 . S
C139 O137 1.258 . S
C140 O142 1.247 . S
C140 O144 1.258 . S
C141 O148 1.247 . S
C141 O149 1.258 . S
O142 C140 1.247 . S
O142 Zn143 2.028 . S
Zn143 O142 2.028 . S
Zn143 O147 2.035 . S
Zn143 O149 2.035 . S
Zn143 O150 2.028 . S
O144 C140 1.258 . S
O144 Zn145 2.035 . S
Zn145 O144 2.035 . S
Zn145 O146 2.028 . S
Zn145 O148 2.028 . S
Zn145 O151 2.035 . S
O146 Zn145 2.028 . S
O146 C152 1.247 . S
O147 Zn143 2.035 . S
O147 C152 1.258 . S
O148 C141 1.247 . S
O148 Zn145 2.028 . S
O149 C141 1.258 . S
O149 Zn143 2.035 . S
O150 Zn143 2.028 . S
O150 C153 1.247 . S
O151 Zn145 2.035 . S
O151 C153 1.258 . S
C152 O146 1.247 . S
C152 O147 1.258 . S
C153 O150 1.247 . S
C153 O151 1.258 . S
C154 O156 1.247 . S
C154 O158 1.258 . S
C155 O162 1.247 . S
C155 O163 1.258 . S
O156 C154 1.247 . S
O156 Zn157 2.028 . S
Zn157 O156 2.028 . S
Zn157 O161 2.035 . S
Zn157 O163 2.035 . S
Zn157 O164 2.028 . S
O158 C154 1.258 . S
O158 Zn159 2.035 . S
Zn159 O158 2.035 . S
Zn159 O160 2.028 . S
Zn159 O162 2.028 . S
Zn159 O165 2.035 . S
O160 Zn159 2.028 . S
O160 C166 1.247 . S
O161 Zn157 2.035 . S
O161 C166 1.258 . S
O162 C155 1.247 . S
O162 Zn159 2.028 . S
O163 C155 1.258 . S
O163 Zn157 2.035 . S
O164 Zn157 2.028 . S
O164 C167 1.247 . S
O165 Zn159 2.035 . S
O165 C167 1.258 . S
C166 O160 1.247 . S
C166 O161 1.258 . S
C167 O164 1.247 . S
C167 O165 1.258 . S
C168 O170 1.247 . S
C168 O172 1.258 . S
C169 O176 1.247 . S
C169 O177 1.258 . S
O170 C168 1.247 . S
O170 Zn171 2.028 . S
Zn171 O170 2.028 . S
Zn171 O175 2.035 . S
Zn171 O177 2.035 . S
Zn171 O178 2.028 . S
O172 C168 1.258 . S
O172 Zn173 2.035 . S
Zn173 O172 2.035 . S
Zn173 O174 2.028 . S
Zn173 O176 2.028 . S
Zn173 O179 2.035 . S
O174 Zn173 2.028 . S
O174 C180 1.247 . S
O175 Zn171 2.035 . S
O175 C180 1.258 . S
O176 C169 1.247 . S
O176 Zn173 2.028 . S
O177 C169 1.258 . S
O177 Zn171 2.035 . S
O178 Zn171 2.028 . S
O178 C181 1.247 . S
O179 Zn173 2.035 . S
O179 C181 1.258 . S
C180 O174 1.247 . S
C180 O175 1.258 . S
C181 O178 1.247 . S
C181 O179 1.258 . S
C182 O184 1.247 . S
C182 O186 1.258 . S
C183 O190 1.247 . S
C183 O191 1.258 . S
O184 C182 1.247 . S
O184 Zn185 2.028 . S
Zn185 O184 2.028 . S
Zn185 O189 2.035 . S
Zn185 O191 2.035 . S
Zn185 O192 2.028 . S
O186 C182 1.258 . S
O186 Zn187 2.035 . S
Zn187 O186 2.035 . S
Zn187 O188 2.028 . S
Zn187 O190 2.028 . S
Zn187 O193 2.035 . S
O188 Zn187 2.028 . S
O188 C194 1.247 . S
O189 Zn185 2.035 . S
O189 C194 1.258 . S
O190 C183 1.247 . S
O190 Zn187 2.028 . S
O191 C183 1.258 . S
O191 Zn185 2.035 . S
O192 Zn185 2.028 . S
O192 C195 1.247 . S
O193 Zn187 2.035 . S
O193 C195 1.258 . S
C194 O188 1.247 . S
C194 O189 1.258 . S
C195 O192 1.247 . S
C195 O193 1.258 . S
C196 O198 1.247 . S
C196 O200 1.258 . S
C197 O204 1.247 . S
C197 O205 1.258 . S
O198 C196 1.247 . S
O198 Zn199 2.028 . S
Zn199 O198 2.028 . S
Zn199 O203 2.035 . S
Zn199 O205 2.035 . S
Zn199 O206 2.028 . S
O200 C196 1.258 . S
O200 Zn201 2.035 . S
Zn201 O200 2.035 . S
Zn201 O202 2.028 . S
Zn201 O204 2.028 . S
Zn201 O207 2.035 . S
O202 Zn201 2.028 . S
O202 C208 1.247 . S
O203 Zn199 2.035 . S
O203 C208 1.258 . S
O204 C197 1.247 . S
O204 Zn201 2.028 . S
O205 C197 1.258 . S
O205 Zn199 2.035 . S
O206 Zn199 2.028 . S
O206 C209 1.247 . S
O207 Zn201 2.035 . S
O207 C209 1.258 . S
C208 O202 1.247 . S
C208 O203 1.258 . S
C209 O206 1.247 . S
C209 O207 1.258 . S
C210 O212 1.247 . S
C210 O214 1.258 . S
C211 O218 1.247 . S
C211 O219 1.258 . S
O212 C210 1.247 . S
O212 Zn213 2.028 . S
Zn213 O212 2.028 . S
Zn213 O217 2.035 . S
Zn213 O219 2.035 . S
Zn213 O220 2.028 . S
O214 C210 1.258 . S
O214 Zn215 2.035 . S
Zn215 O214 2.035 . S
Zn215 O216 2.028 . S
Zn215 O218 2.028 . S
Zn215 O221 2.035 . S
O216 Zn215 2.028 . S
O216 C222 1.247 . S
O217 Zn213 2.035 . S
O217 C222 1.258 . S
O218 C211 1.247 . S
O218 Zn215 2.028 . S
O219 C211 1.258 . S
O219 Zn213 2.035 . S
O220 Zn213 2.028 . S
O220 C223 1.247 . S
O221 Zn215 2.035 . S
O221 C223 1.258 . S
C222 O216 1.247 . S
C222 O217 1.258 . S
C223 O220 1.247 . S
C223 O221 1.258 . S
H224 C232 0.950 . S
H225 C237 0.950 . S
H226 C234 0.950 . S
H227 C236 0.950 . S
H228 C238 0.950 . S
H229 C240 0.950 . S
H230 C242 0.950 . S
H231 C243 0.950 . S
C232 H224 0.950 . S
C232 C233 1.386 . S
C232 C234 1.391 . S
C233 C232 1.386 . S
C233 C237 1.393 . S
C234 H226 0.950 . S
C234 C232 1.391 . S
C234 C235 1.400 . S
C235 C234 1.400 . S
C235 C236 1.398 . S
C235 C241 1.491 1_565 S
C236 H227 0.950 . S
C236 C235 1.398 . S
C236 C237 1.391 . S
C237 H225 0.950 . S
C237 C233 1.393 . S
C237 C236 1.391 . S
C238 H228 0.950 . S
C238 C239 1.386 . S
C238 C240 1.391 . S
C239 C238 1.386 . S
C239 C243 1.393 . S
C240 H229 0.950 . S
C240 C238 1.391 . S
C240 C241 1.400 . S
C241 C235 1.491 1_545 S
C241 C240 1.400 . S
C241 C242 1.398 . S
C242 H230 0.950 . S
C242 C241 1.398 . S
C242 C243 1.391 . S
C243 H231 0.950 . S
C243 C239 1.393 . S
C243 C242 1.391 . S
H244 C252 0.950 . S
H245 C257 0.950 . S
H246 C254 0.950 . S
H247 C256 0.950 . S
H248 C258 0.950 . S
H249 C260 0.950 . S
H250 C262 0.950 . S
H251 C263 0.950 . S
C252 H244 0.950 . S
C252 C253 1.386 . S
C252 C254 1.391 . S
C253 C252 1.386 . S
C253 C257 1.393 . S
C254 H246 0.950 . S
C254 C252 1.391 . S
C254 C255 1.400 . S
C255 C254 1.400 . S
C255 C256 1.398 . S
C255 C261 1.491 1_455 S
C256 H247 0.950 . S
C256 C255 1.398 . S
C256 C257 1.391 . S
C257 H245 0.950 . S
C257 C253 1.393 . S
C257 C256 1.391 . S
C258 H248 0.950 . S
C258 C259 1.386 . S
C258 C260 1.391 . S
C259 C258 1.386 . S
C259 C263 1.393 . S
C260 H249 0.950 . S
C260 C258 1.391 . S
C260 C261 1.400 . S
C261 C255 1.491 1_655 S
C261 C260 1.400 . S
C261 C262 1.398 . S
C262 H250 0.950 . S
C262 C261 1.398 . S
C262 C263 1.391 . S
C263 H251 0.950 . S
C263 C259 1.393 . S
C263 C262 1.391 . S
H264 C272 0.950 . S
H265 C277 0.950 . S
H266 C274 0.950 . S
H267 C276 0.950 . S
H268 C278 0.950 . S
H269 C280 0.950 . S
H270 C282 0.950 . S
H271 C283 0.950 . S
C272 H264 0.950 . S
C272 C273 1.386 . S
C272 C274 1.391 . S
C273 C272 1.386 . S
C273 C277 1.393 . S
C274 H266 0.950 . S
C274 C272 1.391 . S
C274 C275 1.400 . S
C275 C274 1.400 . S
C275 C276 1.398 . S
C275 C281 1.491 1_565 S
C276 H267 0.950 . S
C276 C275 1.398 . S
C276 C277 1.391 . S
C277 H265 0.950 . S
C277 C273 1.393 . S
C277 C276 1.391 . S
C278 H268 0.950 . S
C278 C279 1.386 . S
C278 C280 1.391 . S
C279 C278 1.386 . S
C279 C283 1.393 . S
C280 H269 0.950 . S
C280 C278 1.391 . S
C280 C281 1.400 . S
C281 C275 1.491 1_545 S
C281 C280 1.400 . S
C281 C282 1.398 . S
C282 H270 0.950 . S
C282 C281 1.398 . S
C282 C283 1.391 . S
C283 H271 0.950 . S
C283 C279 1.393 . S
C283 C282 1.391 . S
H284 C292 0.950 . S
H285 C297 0.950 . S
H286 C294 0.950 . S
H287 C296 0.950 . S
H288 C298 0.950 . S
H289 C300 0.950 . S
H290 C302 0.950 . S
H291 C303 0.950 . S
C292 H284 0.950 . S
C292 C293 1.386 . S
C292 C294 1.391 . S
C293 C292 1.386 . S
C293 C297 1.393 . S
C294 H286 0.950 . S
C294 C292 1.391 . S
C294 C295 1.400 . S
C295 C294 1.400 . S
C295 C296 1.398 . S
C295 C301 1.491 1_455 S
C296 H287 0.950 . S
C296 C295 1.398 . S
C296 C297 1.391 . S
C297 H285 0.950 . S
C297 C293 1.393 . S
C297 C296 1.391 . S
C298 H288 0.950 . S
C298 C299 1.386 . S
C298 C300 1.391 . S
C299 C298 1.386 . S
C299 C303 1.393 . S
C300 H289 0.950 . S
C300 C298 1.391 . S
C300 C301 1.400 . S
C301 C295 1.491 1_655 S
C301 C300 1.400 . S
C301 C302 1.398 . S
C302 H290 0.950 . S
C302 C301 1.398 . S
C302 C303 1.391 . S
C303 H291 0.950 . S
C303 C299 1.393 . S
C303 C302 1.391 . S
H304 C312 0.950 . S
H305 C317 0.950 . S
H306 C314 0.950 . S
H307 C316 0.950 . S
H308 C318 0.950 . S
H309 C320 0.950 . S
H310 C322 0.950 . S
H311 C323 0.950 . S
C312 H304 0.950 . S
C312 C313 1.386 . S
C312 C314 1.391 . S
C313 C312 1.386 . S
C313 C317 1.393 . S
C314 H306 0.950 . S
C314 C312 1.391 . S
C314 C315 1.400 . S
C315 C314 1.400 . S
C315 C316 1.398 . S
C315 C321 1.491 . S
C316 H307 0.950 . S
C316 C315 1.398 . S
C316 C317 1.391 . S
C317 H305 0.950 . S
C317 C313 1.393 . S
C317 C316 1.391 . S
C318 H308 0.950 . S
C318 C319 1.386 . S
C318 C320 1.391 1_556 S
C319 C318 1.386 . S
C319 C323 1.393 1_556 S
C320 H309 0.950 . S
C320 C318 1.391 1_554 S
C320 C321 1.400 . S
C321 C315 1.491 . S
C321 C320 1.400 . S
C321 C322 1.398 . S
C322 H310 0.950 . S
C322 C321 1.398 . S
C322 C323 1.391 . S
C323 H311 0.950 . S
C323 C319 1.393 1_554 S
C323 C322 1.391 . S
H324 C332 0.950 . S
H325 C337 0.950 . S
H326 C334 0.950 . S
H327 C336 0.950 . S
H328 C338 0.950 . S
H329 C340 0.950 . S
H330 C342 0.950 . S
H331 C343 0.950 . S
C332 H324 0.950 . S
C332 C333 1.386 . S
C332 C334 1.391 . S
C333 C332 1.386 . S
C333 C337 1.393 1_556 S
C334 H326 0.950 . S
C334 C332 1.391 . S
C334 C335 1.400 . S
C335 C334 1.400 . S
C335 C336 1.398 1_556 S
C335 C341 1.491 . S
C336 H327 0.950 . S
C336 C335 1.398 1_554 S
C336 C337 1.391 . S
C337 H325 0.950 . S
C337 C333 1.393 1_554 S
C337 C336 1.391 . S
C338 H328 0.950 . S
C338 C339 1.386 . S
C338 C340 1.391 . S
C339 C338 1.386 . S
C339 C343 1.393 1_554 S
C340 H329 0.950 . S
C340 C338 1.391 . S
C340 C341 1.400 1_554 S
C341 C335 1.491 . S
C341 C340 1.400 1_556 S
C341 C342 1.398 . S
C342 H330 0.950 . S
C342 C341 1.398 . S
C342 C343 1.391 . S
C343 H331 0.950 . S
C343 C339 1.393 1_556 S
C343 C342 1.391 . S
H344 C352 0.950 . S
H345 C357 0.950 . S
H346 C354 0.950 . S
H347 C356 0.950 . S
H348 C358 0.950 . S
H349 C360 0.950 . S
H350 C362 0.950 . S
H351 C363 0.950 . S
C352 H344 0.950 . S
C352 C353 1.386 . S
C352 C354 1.391 . S
C353 C352 1.386 . S
C353 C357 1.393 1_556 S
C354 H346 0.950 . S
C354 C352 1.391 . S
C354 C355 1.400 1_556 S
C355 C354 1.400 1_554 S
C355 C356 1.398 . S
C355 C361 1.491 . S
C356 H347 0.950 . S
C356 C355 1.398 . S
C356 C357 1.391 . S
C357 H345 0.950 . S
C357 C353 1.393 1_554 S
C357 C356 1.391 . S
C358 H348 0.950 . S
C358 C359 1.386 . S
C358 C360 1.391 . S
C359 C358 1.386 . S
C359 C363 1.393 1_554 S
C360 H349 0.950 . S
C360 C358 1.391 . S
C360 C361 1.400 . S
C361 C355 1.491 . S
C361 C360 1.400 . S
C361 C362 1.398 1_554 S
C362 H350 0.950 . S
C362 C361 1.398 1_556 S
C362 C363 1.391 . S
C363 H351 0.950 . S
C363 C359 1.393 1_556 S
C363 C362 1.391 . S
H364 C372 0.950 . S
H365 C377 0.950 . S
H366 C374 0.950 . S
H367 C376 0.950 . S
H368 C378 0.950 . S
H369 C380 0.950 . S
H370 C382 0.950 . S
H371 C383 0.950 . S
C372 H364 0.950 . S
C372 C373 1.386 . S
C372 C374 1.391 . S
C373 C372 1.386 . S
C373 C377 1.393 1_554 S
C374 H366 0.950 . S
C374 C372 1.391 . S
C374 C375 1.400 1_554 S
C375 C374 1.400 1_556 S
C375 C376 1.398 . S
C375 C381 1.491 . S
C376 H367 0.950 . S
C376 C375 1.398 . S
C376 C377 1.391 . S
C377 H365 0.950 . S
C377 C373 1.393 1_556 S
C377 C376 1.391 . S
C378 H368 0.950 . S
C378 C379 1.386 . S
C378 C380 1.391 . S
C379 C378 1.386 . S
C379 C383 1.393 1_556 S
C380 H369 0.950 . S
C380 C378 1.391 . S
C380 C381 1.400 . S
C381 C375 1.491 . S
C381 C380 1.400 . S
C381 C382 1.398 1_556 S
C382 H370 0.950 . S
C382 C381 1.398 1_554 S
C382 C383 1.391 . S
C383 H371 0.950 . S
C383 C379 1.393 1_554 S
C383 C382 1.391 . S
H384 C392 0.950 . S
H385 C397 0.950 . S
H386 C394 0.950 . S
H387 C396 0.950 . S
H388 C398 0.950 . S
H389 C400 0.950 . S
H390 C402 0.950 . S
H391 C403 0.950 . S
C392 H384 0.950 . S
C392 C393 1.386 . S
C392 C394 1.391 . S
C393 C392 1.386 . S
C393 C397 1.393 . S
C394 H386 0.950 . S
C394 C392 1.391 . S
C394 C395 1.400 . S
C395 C394 1.400 . S
C395 C396 1.398 . S
C395 C401 1.491 . S
C396 H387 0.950 . S
C396 C395 1.398 . S
C396 C397 1.391 . S
C397 H385 0.950 . S
C397 C393 1.393 . S
C397 C396 1.391 . S
C398 H388 0.950 . S
C398 C399 1.386 . S
C398 C400 1.391 . S
C399 C398 1.386 . S
C399 C403 1.393 . S
C400 H389 0.950 . S
C400 C398 1.391 . S
C400 C401 1.400 . S
C401 C395 1.491 . S
C401 C400 1.400 . S
C401 C402 1.398 . S
C402 H390 0.950 . S
C402 C401 1.398 . S
C402 C403 1.391 . S
C403 H391 0.950 . S
C403 C399 1.393 . S
C403 C402 1.391 . S
H404 C412 0.950 . S
H405 C417 0.950 . S
H406 C414 0.950 . S
H407 C416 0.950 . S
H408 C418 0.950 . S
H409 C420 0.950 . S
H410 C422 0.950 . S
H411 C423 0.950 . S
C412 H404 0.950 . S
C412 C413 1.386 . S
C412 C414 1.391 . S
C413 C412 1.386 . S
C413 C417 1.393 . S
C414 H406 0.950 . S
C414 C412 1.391 . S
C414 C415 1.400 . S
C415 C414 1.400 . S
C415 C416 1.398 . S
C415 C421 1.491 . S
C416 H407 0.950 . S
C416 C415 1.398 . S
C416 C417 1.391 . S
C417 H405 0.950 . S
C417 C413 1.393 . S
C417 C416 1.391 . S
C418 H408 0.950 . S
C418 C419 1.386 . S
C418 C420 1.391 . S
C419 C418 1.386 . S
C419 C423 1.393 . S
C420 H409 0.950 . S
C420 C418 1.391 . S
C420 C421 1.400 . S
C421 C415 1.491 . S
C421 C420 1.400 . S
C421 C422 1.398 . S
C422 H410 0.950 . S
C422 C421 1.398 . S
C422 C423 1.391 . S
C423 H411 0.950 . S
C423 C419 1.393 . S
C423 C422 1.391 . S
H424 C432 0.950 . S
H425 C437 0.950 . S
H426 C434 0.950 . S
H427 C436 0.950 . S
H428 C438 0.950 . S
H429 C440 0.950 . S
H430 C442 0.950 . S
H431 C443 0.950 . S
C432 H424 0.950 . S
C432 C433 1.386 . S
C432 C434 1.391 . S
C433 C432 1.386 . S
C433 C437 1.393 . S
C434 H426 0.950 . S
C434 C432 1.391 . S
C434 C435 1.400 . S
C435 C434 1.400 . S
C435 C436 1.398 . S
C435 C441 1.491 . S
C436 H427 0.950 . S
C436 C435 1.398 . S
C436 C437 1.391 . S
C437 H425 0.950 . S
C437 C433 1.393 . S
C437 C436 1.391 . S
C438 H428 0.950 . S
C438 C439 1.386 . S
C438 C440 1.391 . S
C439 C438 1.386 . S
C439 C443 1.393 . S
C440 H429 0.950 . S
C440 C438 1.391 . S
C440 C441 1.400 . S
C441 C435 1.491 . S
C441 C440 1.400 . S
C441 C442 1.398 . S
C442 H430 0.950 . S
C442 C441 1.398 . S
C442 C443 1.391 . S
C443 H431 0.950 . S
C443 C439 1.393 . S
C443 C442 1.391 . S
H444 C452 0.950 . S
H445 C457 0.950 . S
H446 C454 0.950 . S
H447 C456 0.950 . S
H448 C458 0.950 . S
H449 C460 0.950 . S
H450 C462 0.950 . S
H451 C463 0.950 . S
C452 H444 0.950 . S
C452 C453 1.386 . S
C452 C454 1.391 . S
C453 C452 1.386 . S
C453 C457 1.393 . S
C454 H446 0.950 . S
C454 C452 1.391 . S
C454 C455 1.400 . S
C455 C454 1.400 . S
C455 C456 1.398 . S
C455 C461 1.491 . S
C456 H447 0.950 . S
C456 C455 1.398 . S
C456 C457 1.391 . S
C457 H445 0.950 . S
C457 C453 1.393 . S
C457 C456 1.391 . S
C458 H448 0.950 . S
C458 C459 1.386 . S
C458 C460 1.391 . S
C459 C458 1.386 . S
C459 C463 1.393 . S
C460 H449 0.950 . S
C460 C458 1.391 . S
C460 C461 1.400 . S
C461 C455 1.491 . S
C461 C460 1.400 . S
C461 C462 1.398 . S
C462 H450 0.950 . S
C462 C461 1.398 . S
C462 C463 1.391 . S
C463 H451 0.950 . S
C463 C459 1.393 . S
C463 C462 1.391 . S
H464 C472 0.950 . S
H465 C477 0.950 . S
H466 C474 0.950 . S
H467 C476 0.950 . S
H468 C478 0.950 . S
H469 C480 0.950 . S
H470 C482 0.950 . S
H471 C483 0.950 . S
C472 H464 0.950 . S
C472 C473 1.386 . S
C472 C474 1.391 . S
C473 C472 1.386 . S
C473 C477 1.393 . S
C474 H466 0.950 . S
C474 C472 1.391 . S
C474 C475 1.400 . S
C475 C474 1.400 . S
C475 C476 1.398 . S
C475 C481 1.491 1_565 S
C476 H467 0.950 . S
C476 C475 1.398 . S
C476 C477 1.391 . S
C477 H465 0.950 . S
C477 C473 1.393 . S
C477 C476 1.391 . S
C478 H468 0.950 . S
C478 C479 1.386 . S
C478 C480 1.391 . S
C479 C478 1.386 . S
C479 C483 1.393 . S
C480 H469 0.950 . S
C480 C478 1.391 . S
C480 C481 1.400 . S
C481 C475 1.491 1_545 S
C481 C480 1.400 . S
C481 C482 1.398 . S
C482 H470 0.950 . S
C482 C481 1.398 . S
C482 C483 1.391 . S
C483 H471 0.950 . S
C483 C479 1.393 . S
C483 C482 1.391 . S
H484 C492 0.950 . S
H485 C497 0.950 . S
H486 C494 0.950 . S
H487 C496 0.950 . S
H488 C498 0.950 . S
H489 C500 0.950 . S
H490 C502 0.950 . S
H491 C503 0.950 . S
C492 H484 0.950 . S
C492 C493 1.386 . S
C492 C494 1.391 . S
C493 C492 1.386 . S
C493 C497 1.393 . S
C494 H486 0.950 . S
C494 C492 1.391 . S
C494 C495 1.400 . S
C495 C494 1.400 . S
C495 C496 1.398 . S
C495 C501 1.491 1_655 S
C496 H487 0.950 . S
C496 C495 1.398 . S
C496 C497 1.391 . S
C497 H485 0.950 . S
C497 C493 1.393 . S
C497 C496 1.391 . S
C498 H488 0.950 . S
C498 C499 1.386 . S
C498 C500 1.391 . S
C499 C498 1.386 . S
C499 C503 1.393 . S
C500 H489 0.950 . S
C500 C498 1.391 . S
C500 C501 1.400 . S
C501 C495 1.491 1_455 S
C501 C500 1.400 . S
C501 C502 1.398 . S
C502 H490 0.950 . S
C502 C501 1.398 . S
C502 C503 1.391 . S
C503 H491 0.950 . S
C503 C499 1.393 . S
C503 C502 1.391 . S
H504 C512 0.950 . S
H505 C517 0.950 . S
H506 C514 0.950 . S
H507 C516 0.950 . S
H508 C518 0.950 . S
H509 C520 0.950 . S
H510 C522 0.950 . S
H511 C523 0.950 . S
C512 H504 0.950 . S
C512 C513 1.386 . S
C512 C514 1.391 . S
C513 C512 1.386 . S
C513 C517 1.393 . S
C514 H506 0.950 . S
C514 C512 1.391 . S
C514 C515 1.400 . S
C515 C514 1.400 . S
C515 C516 1.398 . S
C515 C521 1.491 1_565 S
C516 H507 0.950 . S
C516 C515 1.398 . S
C516 C517 1.391 . S
C517 H505 0.950 . S
C517 C513 1.393 . S
C517 C516 1.391 . S
C518 H508 0.950 . S
C518 C519 1.386 . S
C518 C520 1.391 . S
C519 C518 1.386 . S
C519 C523 1.393 . S
C520 H509 0.950 . S
C520 C518 1.391 . S
C520 C521 1.400 . S
C521 C515 1.491 1_545 S
C521 C520 1.400 . S
C521 C522 1.398 . S
C522 H510 0.950 . S
C522 C521 1.398 . S
C522 C523 1.391 . S
C523 H511 0.950 . S
C523 C519 1.393 . S
C523 C522 1.391 . S
H524 C532 0.950 . S
H525 C537 0.950 . S
H526 C534 0.950 . S
H527 C536 0.950 . S
H528 C538 0.950 . S
H529 C540 0.950 . S
H530 C542 0.950 . S
H531 C543 0.950 . S
C532 H524 0.950 . S
C532 C533 1.386 . S
C532 C534 1.391 . S
C533 C532 1.386 . S
C533 C537 1.393 . S
C534 H526 0.950 . S
C534 C532 1.391 . S
C534 C535 1.400 . S
C535 C534 1.400 . S
C535 C536 1.398 . S
C535 C541 1.491 1_655 S
C536 H527 0.950 . S
C536 C535 1.398 . S
C536 C537 1.391 . S
C537 H525 0.950 . S
C537 C533 1.393 . S
C537 C536 1.391 . S
C538 H528 0.950 . S
C538 C539 1.386 . S
C538 C540 1.391 . S
C539 C538 1.386 . S
C539 C543 1.393 . S
C540 H529 0.950 . S
C540 C538 1.391 . S
C540 C541 1.400 . S
C541 C535 1.491 1_455 S
C541 C540 1.400 . S
C541 C542 1.398 . S
C542 H530 0.950 . S
C542 C541 1.398 . S
C542 C543 1.391 . S
C543 H531 0.950 . S
C543 C539 1.393 . S
C543 C542 1.391 . S
H544 C552 0.950 . S
H545 C557 0.950 . S
H546 C554 0.950 . S
H547 C556 0.950 . S
H548 C558 0.950 . S
H549 C560 0.950 . S
H550 C562 0.950 . S
H551 C563 0.950 . S
C552 H544 0.950 . S
C552 C553 1.386 . S
C552 C554 1.391 . S
C553 C552 1.386 . S
C553 C557 1.393 . S
C554 H546 0.950 . S
C554 C552 1.391 . S
C554 C555 1.400 . S
C555 C554 1.400 . S
C555 C556 1.398 . S
C555 C561 1.491 . S
C556 H547 0.950 . S
C556 C555 1.398 . S
C556 C557 1.391 . S
C557 H545 0.950 . S
C557 C553 1.393 . S
C557 C556 1.391 . S
C558 H548 0.950 . S
C558 C559 1.386 . S
C558 C560 1.391 . S
C559 C558 1.386 . S
C559 C563 1.393 . S
C560 H549 0.950 . S
C560 C558 1.391 . S
C560 C561 1.400 . S
C561 C555 1.491 . S
C561 C560 1.400 . S
C561 C562 1.398 . S
C562 H550 0.950 . S
C562 C561 1.398 . S
C562 C563 1.391 . S
C563 H551 0.950 . S
C563 C559 1.393 . S
C563 C562 1.391 . S
H564 C572 0.950 . S
H565 C577 0.950 1_554 S
H566 C574 0.950 . S
H567 C576 0.950 1_554 S
H568 C578 0.950 1_554 S
H569 C580 0.950 1_554 S
H570 C582 0.950 . S
H571 C583 0.950 . S
C572 H564 0.950 . S
C572 C573 1.386 . S
C572 C574 1.391 . S
C573 C572 1.386 . S
C573 C577 1.393 . S
C574 H566 0.950 . S
C574 C572 1.391 . S
C574 C575 1.400 . S
C575 C574 1.400 . S
C575 C576 1.398 . S
C575 C581 1.491 . S
C576 H567 0.950 1_556 S
C576 C575 1.398 . S
C576 C577 1.391 . S
C577 H565 0.950 1_556 S
C577 C573 1.393 . S
C577 C576 1.391 . S
C578 H568 0.950 1_556 S
C578 C579 1.386 . S
C578 C580 1.391 . S
C579 C578 1.386 . S
C579 C583 1.393 . S
C580 H569 0.950 1_556 S
C580 C578 1.391 . S
C580 C581 1.400 . S
C581 C575 1.491 . S
C581 C580 1.400 . S
C581 C582 1.398 . S
C582 H570 0.950 . S
C582 C581 1.398 . S
C582 C583 1.391 . S
C583 H571 0.950 . S
C583 C579 1.393 . S
C583 C582 1.391 . S
H584 C592 0.950 . S
H585 C597 0.950 . S
H586 C594 0.950 . S
H587 C596 0.950 . S
H588 C598 0.950 . S
H589 C600 0.950 . S
H590 C602 0.950 . S
H591 C603 0.950 . S
C592 H584 0.950 . S
C592 C593 1.386 . S
C592 C594 1.391 . S
C593 C592 1.386 . S
C593 C597 1.393 . S
C594 H586 0.950 . S
C594 C592 1.391 . S
C594 C595 1.400 . S
C595 C594 1.400 . S
C595 C596 1.398 . S
C595 C601 1.491 . S
C596 H587 0.950 . S
C596 C595 1.398 . S
C596 C597 1.391 . S
C597 H585 0.950 . S
C597 C593 1.393 . S
C597 C596 1.391 . S
C598 H588 0.950 . S
C598 C599 1.386 . S
C598 C600 1.391 . S
C599 C598 1.386 . S
C599 C603 1.393 . S
C600 H589 0.950 . S
C600 C598 1.391 . S
C600 C601 1.400 . S
C601 C595 1.491 . S
C601 C600 1.400 . S
C601 C602 1.398 . S
C602 H590 0.950 . S
C602 C601 1.398 . S
C602 C603 1.391 . S
C603 H591 0.950 . S
C603 C599 1.393 . S
C603 C602 1.391 . S
H604 C612 0.950 1_554 S
H605 C617 0.950 . S
H606 C614 0.950 1_554 S
H607 C616 0.950 . S
H608 C618 0.950 . S
H609 C620 0.950 . S
H610 C622 0.950 1_554 S
H611 C623 0.950 1_554 S
C612 H604 0.950 1_556 S
C612 C613 1.386 . S
C612 C614 1.391 . S
C613 C612 1.386 . S
C613 C617 1.393 . S
C614 H606 0.950 1_556 S
C614 C612 1.391 . S
C614 C615 1.400 . S
C615 C614 1.400 . S
C615 C616 1.398 . S
C615 C621 1.491 . S
C616 H607 0.950 . S
C616 C615 1.398 . S
C616 C617 1.391 . S
C617 H605 0.950 . S
C617 C613 1.393 . S
C617 C616 1.391 . S
C618 H608 0.950 . S
C618 C619 1.386 . S
C618 C620 1.391 . S
C619 C618 1.386 . S
C619 C623 1.393 . S
C620 H609 0.950 . S
C620 C618 1.391 . S
C620 C621 1.400 . S
C621 C615 1.491 . S
C621 C620 1.400 . S
C621 C622 1.398 . S
C622 H610 0.950 1_556 S
C622 C621 1.398 . S
C622 C623 1.391 . S
C623 H611 0.950 1_556 S
C623 C619 1.393 . S
C623 C622 1.391 . S
H624 C632 0.950 . S
H625 C637 0.950 . S
H626 C634 0.950 . S
H627 C636 0.950 . S
H628 C638 0.950 . S
H629 C640 0.950 . S
H630 C642 0.950 . S
H631 C643 0.950 . S
C632 H624 0.950 . S
C632 C633 1.386 . S
C632 C634 1.391 . S
C633 C632 1.386 . S
C633 C637 1.393 . S
C634 H626 0.950 . S
C634 C632 1.391 . S
C634 C635 1.400 . S
C635 C634 1.400 . S
C635 C636 1.398 . S
C635 C641 1.491 . S
C636 H627 0.950 . S
C636 C635 1.398 . S
C636 C637 1.391 . S
C637 H625 0.950 . S
C637 C633 1.393 . S
C637 C636 1.391 . S
C638 H628 0.950 . S
C638 C639 1.386 . S
C638 C640 1.391 . S
C639 C638 1.386 . S
C639 C643 1.393 . S
C640 H629 0.950 . S
C640 C638 1.391 . S
C640 C641 1.400 . S
C641 C635 1.491 . S
C641 C640 1.400 . S
C641 C642 1.398 . S
C642 H630 0.950 . S
C642 C641 1.398 . S
C642 C643 1.391 . S
C643 H631 0.950 . S
C643 C639 1.393 . S
C643 C642 1.391 . S
H644 C652 0.950 . S
H645 C657 0.950 . S
H646 C654 0.950 . S
H647 C656 0.950 . S
H648 C658 0.950 . S
H649 C660 0.950 . S
H650 C662 0.950 . S
H651 C663 0.950 . S
C652 H644 0.950 . S
C652 C653 1.386 . S
C652 C654 1.391 . S
C653 C652 1.386 . S
C653 C657 1.393 . S
C654 H646 0.950 . S
C654 C652 1.391 . S
C654 C655 1.400 . S
C655 C654 1.400 . S
C655 C656 1.398 . S
C655 C661 1.491 . S
C656 H647 0.950 . S
C656 C655 1.398 . S
C656 C657 1.391 . S
C657 H645 0.950 . S
C657 C653 1.393 . S
C657 C656 1.391 . S
C658 H648 0.950 . S
C658 C659 1.386 . S
C658 C660 1.391 . S
C659 C658 1.386 . S
C659 C663 1.393 . S
C660 H649 0.950 . S
C660 C658 1.391 . S
C660 C661 1.400 . S
C661 C655 1.491 . S
C661 C660 1.400 . S
C661 C662 1.398 . S
C662 H650 0.950 . S
C662 C661 1.398 . S
C662 C663 1.391 . S
C663 H651 0.950 . S
C663 C659 1.393 . S
C663 C662 1.391 . S
H664 C672 0.950 . S
H665 C677 0.950 . S
H666 C674 0.950 . S
H667 C676 0.950 . S
H668 C678 0.950 . S
H669 C680 0.950 . S
H670 C682 0.950 . S
H671 C683 0.950 . S
C672 H664 0.950 . S
C672 C673 1.386 . S
C672 C674 1.391 . S
C673 C672 1.386 . S
C673 C677 1.393 . S
C674 H666 0.950 . S
C674 C672 1.391 . S
C674 C675 1.400 . S
C675 C674 1.400 . S
C675 C676 1.398 . S
C675 C681 1.491 . S
C676 H667 0.950 . S
C676 C675 1.398 . S
C676 C677 1.391 . S
C677 H665 0.950 . S
C677 C673 1.393 . S
C677 C676 1.391 . S
C678 H668 0.950 . S
C678 C679 1.386 . S
C678 C680 1.391 . S
C679 C678 1.386 . S
C679 C683 1.393 . S
C680 H669 0.950 . S
C680 C678 1.391 . S
C680 C681 1.400 . S
C681 C675 1.491 . S
C681 C680 1.400 . S
C681 C682 1.398 . S
C682 H670 0.950 . S
C682 C681 1.398 . S
C682 C683 1.391 . S
C683 H671 0.950 . S
C683 C679 1.393 . S
C683 C682 1.391 . S
H684 C692 0.950 . S
H685 C697 0.950 . S
H686 C694 0.950 . S
H687 C696 0.950 . S
H688 C698 0.950 . S
H689 C700 0.950 . S
H690 C702 0.950 . S
H691 C703 0.950 . S
C692 H684 0.950 . S
C692 C693 1.386 . S
C692 C694 1.391 . S
C693 C692 1.386 . S
C693 C697 1.393 . S
C694 H686 0.950 . S
C694 C692 1.391 . S
C694 C695 1.400 . S
C695 C694 1.400 . S
C695 C696 1.398 . S
C695 C701 1.491 . S
C696 H687 0.950 . S
C696 C695 1.398 . S
C696 C697 1.391 . S
C697 H685 0.950 . S
C697 C693 1.393 . S
C697 C696 1.391 . S
C698 H688 0.950 . S
C698 C699 1.386 . S
C698 C700 1.391 . S
C699 C698 1.386 . S
C699 C703 1.393 . S
C700 H689 0.950 . S
C700 C698 1.391 . S
C700 C701 1.400 . S
C701 C695 1.491 . S
C701 C700 1.400 . S
C701 C702 1.398 . S
C702 H690 0.950 . S
C702 C701 1.398 . S
C702 C703 1.391 . S
C703 H691 0.950 . S
C703 C699 1.393 . S
C703 C702 1.391 . S
H704 C712 0.950 . S
H705 C717 0.950 . S
H706 C714 0.950 . S
H707 C716 0.950 . S
H708 C718 0.950 . S
H709 C720 0.950 . S
H710 C722 0.950 . S
H711 C723 0.950 . S
C712 H704 0.950 . S
C712 C713 1.386 . S
C712 C714 1.391 . S
C713 C712 1.386 . S
C713 C717 1.393 . S
C714 H706 0.950 . S
C714 C712 1.391 . S
C714 C715 1.400 . S
C715 C714 1.400 . S
C715 C716 1.398 . S
C715 C721 1.491 . S
C716 H707 0.950 . S
C716 C715 1.398 . S
C716 C717 1.391 . S
C717 H705 0.950 . S
C717 C713 1.393 . S
C717 C716 1.391 . S
C718 H708 0.950 . S
C718 C719 1.386 . S
C718 C720 1.391 . S
C719 C718 1.386 . S
C719 C723 1.393 1_554 S
C720 H709 0.950 . S
C720 C718 1.391 . S
C720 C721 1.400 1_554 S
C721 C715 1.491 . S
C721 C720 1.400 1_556 S
C721 C722 1.398 . S
C722 H710 0.950 . S
C722 C721 1.398 . S
C722 C723 1.391 . S
C723 H711 0.950 . S
C723 C719 1.393 1_556 S
C723 C722 1.391 . S
H724 C732 0.950 . S
H725 C737 0.950 . S
H726 C734 0.950 . S
H727 C736 0.950 . S
H728 C738 0.950 1_556 S
H729 C740 0.950 . S
H730 C742 0.950 . S
H731 C743 0.950 . S
C732 H724 0.950 . S
C732 C733 1.386 . S
C732 C734 1.391 . S
C733 C732 1.386 . S
C733 C737 1.393 . S
C734 H726 0.950 . S
C734 C732 1.391 . S
C734 C735 1.400 . S
C735 C734 1.400 . S
C735 C736 1.398 . S
C735 C741 1.491 . S
C736 H727 0.950 . S
C736 C735 1.398 . S
C736 C737 1.391 . S
C737 H725 0.950 . S
C737 C733 1.393 . S
C737 C736 1.391 . S
C738 H728 0.950 1_554 S
C738 C739 1.386 1_554 S
C738 C740 1.391 . S
C739 C738 1.386 1_556 S
C739 C743 1.393 . S
C740 H729 0.950 . S
C740 C738 1.391 . S
C740 C741 1.400 . S
C741 C735 1.491 . S
C741 C740 1.400 . S
C741 C742 1.398 . S
C742 H730 0.950 . S
C742 C741 1.398 . S
C742 C743 1.391 1_554 S
C743 H731 0.950 . S
C743 C739 1.393 . S
C743 C742 1.391 1_556 S
H744 C752 0.950 . S
H745 C757 0.950 . S
H746 C754 0.950 . S
H747 C756 0.950 . S
H748 C758 0.950 . S
H749 C760 0.950 . S
H750 C762 0.950 . S
H751 C763 0.950 . S
C752 H744 0.950 . S
C752 C753 1.386 . S
C752 C754 1.391 . S
C753 C752 1.386 . S
C753 C757 1.393 1_554 S
C754 H746 0.950 . S
C754 C752 1.391 . S
C754 C755 1.400 1_554 S
C755 C754 1.400 1_556 S
C755 C756 1.398 . S
C755 C761 1.491 . S
C756 H747 0.950 . S
C756 C755 1.398 . S
C756 C757 1.391 . S
C757 H745 0.950 . S
C757 C753 1.393 1_556 S
C757 C756 1.391 . S
C758 H748 0.950 . S
C758 C759 1.386 . S
C758 C760 1.391 . S
C759 C758 1.386 . S
C759 C763 1.393 . S
C760 H749 0.950 . S
C760 C758 1.391 . S
C760 C761 1.400 . S
C761 C755 1.491 . S
C761 C760 1.400 . S
C761 C762 1.398 . S
C762 H750 0.950 . S
C762 C761 1.398 . S
C762 C763 1.391 . S
C763 H751 0.950 . S
C763 C759 1.393 . S
C763 C762 1.391 . S
H764 C772 0.950 . S
H765 C777 0.950 . S
H766 C774 0.950 . S
H767 C776 0.950 . S
H768 C778 0.950 . S
H769 C780 0.950 . S
H770 C782 0.950 1_556 S
H771 C783 0.950 . S
C772 H764 0.950 . S
C772 C773 1.386 . S
C772 C774 1.391 . S
C773 C772 1.386 . S
C773 C777 1.393 . S
C774 H766 0.950 . S
C774 C772 1.391 . S
C774 C775 1.400 . S
C775 C774 1.400 . S
C775 C776 1.398 . S
C775 C781 1.491 . S
C776 H767 0.950 . S
C776 C775 1.398 . S
C776 C777 1.391 . S
C777 H765 0.950 . S
C777 C773 1.393 . S
C777 C776 1.391 . S
C778 H768 0.950 . S
C778 C779 1.386 1_554 S
C778 C780 1.391 . S
C779 C778 1.386 1_556 S
C779 C783 1.393 . S
C780 H769 0.950 . S
C780 C778 1.391 . S
C780 C781 1.400 . S
C781 C775 1.491 . S
C781 C780 1.400 . S
C781 C782 1.398 . S
C782 H770 0.950 1_554 S
C782 C781 1.398 . S
C782 C783 1.391 1_554 S
C783 H771 0.950 . S
C783 C779 1.393 . S
C783 C782 1.391 1_556 S
H784 C792 0.950 . S
H785 C797 0.950 . S
H786 C794 0.950 . S
H787 C796 0.950 . S
H788 C798 0.950 . S
H789 C800 0.950 . S
H790 C802 0.950 . S
H791 C803 0.950 . S
C792 H784 0.950 . S
C792 C793 1.386 . S
C792 C794 1.391 . S
C793 C792 1.386 . S
C793 C797 1.393 . S
C794 H786 0.950 . S
C794 C792 1.391 . S
C794 C795 1.400 . S
C795 C794 1.400 . S
C795 C796 1.398 . S
C795 C801 1.491 . S
C796 H787 0.950 . S
C796 C795 1.398 . S
C796 C797 1.391 . S
C797 H785 0.950 . S
C797 C793 1.393 . S
C797 C796 1.391 . S
C798 H788 0.950 . S
C798 C799 1.386 . S
C798 C800 1.391 . S
C799 C798 1.386 . S
C799 C803 1.393 . S
C800 H789 0.950 . S
C800 C798 1.391 . S
C800 C801 1.400 . S
C801 C795 1.491 . S
C801 C800 1.400 . S
C801 C802 1.398 . S
C802 H790 0.950 . S
C802 C801 1.398 . S
C802 C803 1.391 . S
C803 H791 0.950 . S
C803 C799 1.393 . S
C803 C802 1.391 . S
H804 C812 0.950 . S
H805 C817 0.950 . S
H806 C814 0.950 . S
H807 C816 0.950 . S
H808 C818 0.950 . S
H809 C820 0.950 . S
H810 C822 0.950 . S
H811 C823 0.950 . S
C812 H804 0.950 . S
C812 C813 1.386 . S
C812 C814 1.391 . S
C813 C812 1.386 . S
C813 C817 1.393 . S
C814 H806 0.950 . S
C814 C812 1.391 . S
C814 C815 1.400 . S
C815 C814 1.400 . S
C815 C816 1.398 . S
C815 C821 1.491 . S
C816 H807 0.950 . S
C816 C815 1.398 . S
C816 C817 1.391 . S
C817 H805 0.950 . S
C817 C813 1.393 . S
C817 C816 1.391 . S
C818 H808 0.950 . S
C818 C819 1.386 . S
C818 C820 1.391 . S
C819 C818 1.386 . S
C819 C823 1.393 . S
C820 H809 0.950 . S
C820 C818 1.391 . S
C820 C821 1.400 . S
C821 C815 1.491 . S
C821 C820 1.400 . S
C821 C822 1.398 . S
C822 H810 0.950 . S
C822 C821 1.398 . S
C822 C823 1.391 . S
C823 H811 0.950 . S
C823 C819 1.393 . S
C823 C822 1.391 . S
H824 C832 0.950 . S
H825 C837 0.950 . S
H826 C834 0.950 . S
H827 C836 0.950 . S
H828 C838 0.950 . S
H829 C840 0.950 . S
H830 C842 0.950 . S
H831 C843 0.950 . S
C832 H824 0.950 . S
C832 C833 1.386 . S
C832 C834 1.391 . S
C833 C832 1.386 . S
C833 C837 1.393 . S
C834 H826 0.950 . S
C834 C832 1.391 . S
C834 C835 1.400 . S
C835 C834 1.400 . S
C835 C836 1.398 . S
C835 C841 1.491 . S
C836 H827 0.950 . S
C836 C835 1.398 . S
C836 C837 1.391 . S
C837 H825 0.950 . S
C837 C833 1.393 . S
C837 C836 1.391 . S
C838 H828 0.950 . S
C838 C839 1.386 . S
C838 C840 1.391 . S
C839 C838 1.386 . S
C839 C843 1.393 . S
C840 H829 0.950 . S
C840 C838 1.391 . S
C840 C841 1.400 . S
C841 C835 1.491 . S
C841 C840 1.400 . S
C841 C842 1.398 . S
C842 H830 0.950 . S
C842 C841 1.398 . S
C842 C843 1.391 . S
C843 H831 0.950 . S
C843 C839 1.393 . S
C843 C842 1.391 . S
H844 C852 0.950 . S
H845 C857 0.950 . S
H846 C854 0.950 . S
H847 C856 0.950 . S
H848 C858 0.950 . S
H849 C860 0.950 . S
H850 C862 0.950 . S
H851 C863 0.950 . S
C852 H844 0.950 . S
C852 C853 1.386 . S
C852 C854 1.391 . S
C853 C852 1.386 . S
C853 C857 1.393 . S
C854 H846 0.950 . S
C854 C852 1.391 . S
C854 C855 1.400 . S
C855 C854 1.400 . S
C855 C856 1.398 . S
C855 C861 1.491 . S
C856 H847 0.950 . S
C856 C855 1.398 . S
C856 C857 1.391 . S
C857 H845 0.950 . S
C857 C853 1.393 . S
C857 C856 1.391 . S
C858 H848 0.950 . S
C858 C859 1.386 . S
C858 C860 1.391 . S
C859 C858 1.386 . S
C859 C863 1.393 . S
C860 H849 0.950 . S
C860 C858 1.391 . S
C860 C861 1.400 . S
C861 C855 1.491 . S
C861 C860 1.400 . S
C861 C862 1.398 . S
C862 H850 0.950 . S
C862 C861 1.398 . S
C862 C863 1.391 . S
C863 H851 0.950 . S
C863 C859 1.393 . S
C863 C862 1.391 . S
C233 C154 1.538 . S
C239 C1 1.556 . S
C253 C27 1.555 . S
C259 C124 1.551 . S
C273 C41 1.557 . S
C279 C126 1.539 . S
C293 C140 1.550 . S
C299 C55 1.555 . S
C313 C69 1.555 . S
C319 C70 1.549 . S
C333 C83 1.553 . S
C339 C85 1.550 . S
C353 C98 1.550 . S
C359 C96 1.553 . S
C373 C56 1.543 . S
C379 C111 1.558 . S
C393 C42 1.540 . S
C399 C113 1.557 . S
C413 C139 1.556 . S
C419 C12 1.539 . S
C433 C14 1.546 . S
C439 C153 1.557 . S
C453 C167 1.555 . S
C459 C28 1.549 . S
C473 C180 1.555 . S
C479 C182 1.539 . S
C493 C195 1.558 . S
C499 C197 1.540 . S
C513 C210 1.550 . S
C519 C208 1.555 . S
C533 C169 1.549 . S
C539 C223 1.553 . S
C553 C68 1.409 . S
C559 C0 1.410 . S
C573 C26 1.416 . S
C579 C82 1.409 . S
C593 C40 1.411 . S
C599 C97 1.407 . S
C613 C110 1.418 . S
C619 C54 1.411 . S
C633 C112 1.408 . S
C639 C181 1.416 . S
C653 C194 1.415 . S
C659 C138 1.408 . S
C673 C152 1.418 . S
C679 C209 1.417 . S
C693 C222 1.408 . S
C699 C166 1.415 . S
C713 C196 1.709 . S
C719 C13 1.703 . S
C733 C211 1.713 . S
C739 C15 1.714 . S
C753 C29 1.711 . S
C759 C168 1.707 . S
C773 C183 1.714 . S
C779 C43 1.712 . S
C793 C141 1.708 . S
C799 C57 1.712 . S
C813 C155 1.713 . S
C819 C71 1.708 . S
C833 C84 1.709 . S
C839 C125 1.702 . S
C853 C127 1.703 . S
C859 C99 1.705 . S
