# Generated by pormake.
# Topology wka, (5)-cn, num edge types: 1
# Building blocks:
#     Node 0, Type 0, BuildingBlock: BEQFEK_clean_sbu_0, # of connection points: 5
#     Node 1, Type 0, BuildingBlock: BEQFEK_clean_sbu_0, # of connection points: 5
#     Node 2, Type 0, BuildingBlock: BEQFEK_clean_sbu_0, # of connection points: 5
#     Node 3, Type 0, BuildingBlock: BEQFEK_clean_sbu_0, # of connection points: 5
#     Node 4, Type 0, BuildingBlock: BEQFEK_clean_sbu_0, # of connection points: 5
#     Node 5, Type 0, BuildingBlock: BEQFEK_clean_sbu_0, # of connection points: 5
#     Node 6, Type 0, BuildingBlock: BEQFEK_clean_sbu_0, # of connection points: 5
#     Node 7, Type 0, BuildingBlock: BEQFEK_clean_sbu_0, # of connection points: 5
#     Node 8, Type 0, BuildingBlock: BEQFEK_clean_sbu_0, # of connection points: 5
#     Node 9, Type 0, BuildingBlock: BEQFEK_clean_sbu_0, # of connection points: 5
#     Node 10, Type 0, BuildingBlock: BEQFEK_clean_sbu_0, # of connection points: 5
#     Node 11, Type 0, BuildingBlock: BEQFEK_clean_sbu_0, # of connection points: 5
#     Edge 12, Type (0, 0), BuildingBlock: XUDNAN_clean_linker_2, # of connection points: 2
#     Edge 13, Type (0, 0), BuildingBlock: XUDNAN_clean_linker_2, # of connection points: 2
#     Edge 14, Type (0, 0), BuildingBlock: XUDNAN_clean_linker_2, # of connection points: 2
#     Edge 15, Type (0, 0), BuildingBlock: XUDNAN_clean_linker_2, # of connection points: 2
#     Edge 16, Type (0, 0), BuildingBlock: XUDNAN_clean_linker_2, # of connection points: 2
#     Edge 17, Type (0, 0), BuildingBlock: XUDNAN_clean_linker_2, # of connection points: 2
#     Edge 18, Type (0, 0), BuildingBlock: XUDNAN_clean_linker_2, # of connection points: 2
#     Edge 19, Type (0, 0), BuildingBlock: XUDNAN_clean_linker_2, # of connection points: 2
#     Edge 20, Type (0, 0), BuildingBlock: XUDNAN_clean_linker_2, # of connection points: 2
#     Edge 21, Type (0, 0), BuildingBlock: XUDNAN_clean_linker_2, # of connection points: 2
#     Edge 22, Type (0, 0), BuildingBlock: XUDNAN_clean_linker_2, # of connection points: 2
#     Edge 23, Type (0, 0), BuildingBlock: XUDNAN_clean_linker_2, # of connection points: 2
#     Edge 24, Type (0, 0), BuildingBlock: XUDNAN_clean_linker_2, # of connection points: 2
#     Edge 25, Type (0, 0), BuildingBlock: XUDNAN_clean_linker_2, # of connection points: 2
#     Edge 26, Type (0, 0), BuildingBlock: XUDNAN_clean_linker_2, # of connection points: 2
#     Edge 27, Type (0, 0), BuildingBlock: XUDNAN_clean_linker_2, # of connection points: 2
#     Edge 28, Type (0, 0), BuildingBlock: XUDNAN_clean_linker_2, # of connection points: 2
#     Edge 29, Type (0, 0), BuildingBlock: XUDNAN_clean_linker_2, # of connection points: 2
#     Edge 30, Type (0, 0), BuildingBlock: XUDNAN_clean_linker_2, # of connection points: 2
#     Edge 31, Type (0, 0), BuildingBlock: XUDNAN_clean_linker_2, # of connection points: 2
#     Edge 32, Type (0, 0), BuildingBlock: XUDNAN_clean_linker_2, # of connection points: 2
#     Edge 33, Type (0, 0), BuildingBlock: XUDNAN_clean_linker_2, # of connection points: 2
#     Edge 34, Type (0, 0), BuildingBlock: XUDNAN_clean_linker_2, # of connection points: 2
#     Edge 35, Type (0, 0), BuildingBlock: XUDNAN_clean_linker_2, # of connection points: 2
#     Edge 36, Type (0, 0), BuildingBlock: XUDNAN_clean_linker_2, # of connection points: 2
#     Edge 37, Type (0, 0), BuildingBlock: XUDNAN_clean_linker_2, # of connection points: 2
#     Edge 38, Type (0, 0), BuildingBlock: XUDNAN_clean_linker_2, # of connection points: 2
#     Edge 39, Type (0, 0), BuildingBlock: XUDNAN_clean_linker_2, # of connection points: 2
#     Edge 40, Type (0, 0), BuildingBlock: XUDNAN_clean_linker_2, # of connection points: 2
#     Edge 41, Type (0, 0), BuildingBlock: XUDNAN_clean_linker_2, # of connection points: 2
# Relax obj value: 0.391
# Max RMSD: 0.234
# Mean RMSD: 0.234
data_MOF--net-wka--node1-BEQFEK_clean_sbu_0--edge1-XUDNAN_clean_linker_2
_symmetry_space_group_name_H-M    P1
_symmetry_Int_Tables_number       1
_symmetry_cell_setting            triclinic
loop_
_symmetry_equiv_pos_as_xyz
'x, y, z'
_cell_length_a     67.834421
_cell_length_b     67.962992
_cell_length_c     17.770861
_cell_angle_alpha  90.123128
_cell_angle_beta   90.037583
_cell_angle_gamma 119.96162
loop_
_atom_site_label
_atom_site_type_symbol
_atom_site_fract_x
_atom_site_fract_y
_atom_site_fract_z
_atom_type_partial_charge
Co0 Co 0.11846 0.44775 0.98902 0.0
Co1 Co 0.09367 0.43728 0.14235 0.0
C2 C 0.06765 0.41589 0.00426 0.0
O3 O 0.08578 0.42806 0.9679 0.0
O4 O 0.06778 0.41613 0.07583 0.0
C5 C 0.12258 0.42424 0.87314 0.0
O6 O 0.11264 0.40859 0.92514 0.0
C7 C 0.07679 0.41758 0.29276 0.0
C8 C 0.07886 0.44742 0.34971 0.0
C9 C 0.07531 0.4258 0.36287 0.0
N10 N 0.08225 0.43411 0.24183 0.0
N11 N 0.08241 0.45149 0.27578 0.0
C12 C 0.07486 0.39513 0.27527 0.0
H13 H 0.0823 0.39549 0.21932 0.0
H14 H 0.08311 0.39027 0.31967 0.0
H15 H 0.05658 0.38195 0.27416 0.0
C16 C 0.1486 0.43574 0.0736 0.0
N17 N 0.12952 0.43716 0.06906 0.0
N18 N 0.12015 0.43384 0.13622 0.0
C19 C 0.1338 0.43127 0.18625 0.0
C20 C 0.1519 0.43181 0.14773 0.0
C21 C 0.16477 0.4406 0.00977 0.0
H22 H 0.16595 0.4547 0.97513 0.0
H23 H 0.1583 0.42526 0.97371 0.0
H24 H 0.18198 0.44513 0.03046 0.0
O25 O 0.12439 0.47906 0.01143 0.0
O26 O 0.10444 0.46943 0.11768 0.0
H27 H 0.14766 0.43845 0.29916 0.0
H28 H 0.12162 0.41249 0.28819 0.0
C29 C 0.13103 0.43044 0.26994 0.0
H30 H 0.12197 0.43942 0.28747 0.0
H31 H 0.08661 0.46681 0.24961 0.0
O32 O 0.13062 0.44498 0.89172 0.0
C33 C 0.11646 0.48417 0.06859 0.0
Co34 Co 0.66998 0.1261 0.09068 0.0
Co35 Co 0.67002 0.10159 0.23708 0.0
C36 C 0.66579 0.07839 0.09793 0.0
O37 O 0.66634 0.09577 0.06898 0.0
O38 O 0.66737 0.07688 0.169 0.0
C39 C 0.69197 0.13789 0.9557 0.0
O40 O 0.70849 0.13844 0.99595 0.0
C41 C 0.67506 0.0843 0.3886 0.0
C42 C 0.66562 0.10577 0.45616 0.0
C43 C 0.67211 0.08958 0.46159 0.0
N44 N 0.67032 0.09696 0.34175 0.0
N45 N 0.66474 0.10967 0.3829 0.0
C46 C 0.68278 0.0682 0.36448 0.0
H47 H 0.68469 0.06843 0.30241 0.0
H48 H 0.69925 0.07293 0.39209 0.0
H49 H 0.67021 0.0508 0.38327 0.0
C50 C 0.71156 0.16362 0.16238 0.0
N51 N 0.69432 0.14204 0.15861 0.0
N52 N 0.69569 0.13057 0.21568 0.0
C53 C 0.71444 0.14422 0.25633 0.0
C54 C 0.72516 0.16594 0.22482 0.0
C55 C 0.71336 0.18184 0.11083 0.0
H56 H 0.69648 0.17689 0.08607 0.0
H57 H 0.72515 0.1841 0.06413 0.0
H58 H 0.71996 0.1982 0.14137 0.0
O59 O 0.64131 0.12276 0.13033 0.0
O60 O 0.64171 0.10347 0.22972 0.0
H61 H 0.7147 0.13813 0.37429 0.0
H62 H 0.74112 0.14581 0.32697 0.0
C63 C 0.72231 0.13606 0.32176 0.0
H64 H 0.71673 0.1178 0.31463 0.0
H65 H 0.66066 0.12139 0.36072 0.0
O66 O 0.67621 0.13925 0.98961 0.0
C67 C 0.63216 0.11199 0.19051 0.0
Co68 Co 0.54162 0.65766 0.32539 0.0
Co69 Co 0.56414 0.66231 0.47808 0.0
C70 C 0.58247 0.65034 0.35029 0.0
O71 O 0.56684 0.6507 0.31179 0.0
O72 O 0.58443 0.65492 0.42024 0.0
C73 C 0.55315 0.67468 0.18817 0.0
O74 O 0.56981 0.69018 0.22921 0.0
C75 C 0.58629 0.66332 0.62127 0.0
C76 C 0.57368 0.68155 0.69162 0.0
C77 C 0.58711 0.67154 0.69317 0.0
N78 N 0.57359 0.66904 0.57859 0.0
N79 N 0.56588 0.67964 0.62127 0.0
C80 C 0.59608 0.64914 0.5945 0.0
H81 H 0.58251 0.63346 0.56739 0.0
H82 H 0.60919 0.65872 0.55122 0.0
H83 H 0.60394 0.64467 0.64136 0.0
C84 C 0.54814 0.70299 0.37096 0.0
N85 N 0.55106 0.68492 0.37961 0.0
N86 N 0.56423 0.6883 0.43779 0.0
C87 C 0.57183 0.70947 0.46454 0.0
C88 C 0.56119 0.71936 0.42519 0.0
C89 C 0.53178 0.70341 0.31539 0.0
H90 H 0.51947 0.68592 0.29627 0.0
H91 H 0.54132 0.71349 0.26562 0.0
H92 H 0.52242 0.7113 0.34062 0.0
O93 O 0.51577 0.63226 0.37378 0.0
O94 O 0.5322 0.63537 0.4845 0.0
H95 H 0.58602 0.72154 0.57507 0.0
H96 H 0.60281 0.73922 0.49925 0.0
C97 C 0.59177 0.72131 0.51701 0.0
H98 H 0.60183 0.7125 0.51749 0.0
H99 H 0.55451 0.68476 0.60303 0.0
O100 O 0.53499 0.66032 0.22085 0.0
C101 C 0.51501 0.62541 0.44074 0.0
Co102 Co 0.88138 0.55421 0.45969 0.0
Co103 Co 0.90681 0.5616 0.61204 0.0
C104 C 0.9315 0.58846 0.4783 0.0
O105 O 0.91303 0.57711 0.44254 0.0
O106 O 0.93249 0.58527 0.54846 0.0
C107 C 0.87423 0.57616 0.34229 0.0
O108 O 0.88387 0.59273 0.39173 0.0
C109 C 0.92194 0.58045 0.76337 0.0
C110 C 0.91984 0.5507 0.82083 0.0
C111 C 0.9225 0.57202 0.83408 0.0
N112 N 0.91786 0.56429 0.71199 0.0
N113 N 0.91763 0.54698 0.74633 0.0
C114 C 0.92283 0.60238 0.74509 0.0
H115 H 0.91577 0.60165 0.68813 0.0
H116 H 0.91363 0.60666 0.7877 0.0
H117 H 0.94087 0.61619 0.74583 0.0
C118 C 0.8503 0.56261 0.55284 0.0
N119 N 0.86935 0.56133 0.54439 0.0
N120 N 0.87874 0.56285 0.6107 0.0
C121 C 0.86488 0.56379 0.66396 0.0
C122 C 0.84688 0.56436 0.62872 0.0
C123 C 0.83465 0.5604 0.48989 0.0
H124 H 0.83306 0.54723 0.44948 0.0
H125 H 0.84187 0.57682 0.45973 0.0
H126 H 0.81753 0.5559 0.51125 0.0
O127 O 0.87948 0.52418 0.47207 0.0
O128 O 0.89938 0.53083 0.5778 0.0
H129 H 0.85035 0.55226 0.77416 0.0
H130 H 0.87586 0.57901 0.7726 0.0
C131 C 0.86722 0.56187 0.74699 0.0
H132 H 0.8767 0.5529 0.75889 0.0
H133 H 0.91408 0.53185 0.71979 0.0
O134 O 0.8677 0.55598 0.36391 0.0
C135 C 0.88824 0.51777 0.52328 0.0
Co136 Co 0.32962 0.87631 0.61816 0.0
Co137 Co 0.34541 0.90392 0.76714 0.0
C138 C 0.34316 0.92624 0.62929 0.0
O139 O 0.33748 0.90761 0.59626 0.0
O140 O 0.34643 0.92818 0.70011 0.0
C141 C 0.30119 0.86624 0.49539 0.0
O142 O 0.2906 0.87281 0.5421 0.0
C143 C 0.34086 0.92065 0.9155 0.0
C144 C 0.36632 0.91631 0.97947 0.0
C145 C 0.34867 0.92088 0.98835 0.0
N146 N 0.35257 0.91498 0.86759 0.0
N147 N 0.36829 0.91324 0.90593 0.0
C148 C 0.3232 0.92633 0.89046 0.0
H149 H 0.3285 0.93572 0.83643 0.0
H150 H 0.30678 0.91062 0.88001 0.0
H151 H 0.32076 0.93684 0.93331 0.0
C152 C 0.29136 0.84397 0.71138 0.0
N153 N 0.30976 0.8646 0.70061 0.0
N154 N 0.31678 0.87529 0.76556 0.0
C155 C 0.30326 0.86119 0.82036 0.0
C156 C 0.2865 0.84114 0.78758 0.0
C157 C 0.28104 0.8261 0.65154 0.0
H158 H 0.29467 0.8262 0.61684 0.0
H159 H 0.2704 0.83007 0.61411 0.0
H160 H 0.27022 0.80896 0.67588 0.0
O161 O 0.35743 0.87449 0.63933 0.0
O162 O 0.37018 0.89786 0.73786 0.0
H163 H 0.32632 0.87231 0.91416 0.0
H164 H 0.2982 0.8496 0.93651 0.0
C165 C 0.30794 0.86528 0.90303 0.0
H166 H 0.30277 0.87744 0.92278 0.0
H167 H 0.3793 0.90831 0.88271 0.0
O168 O 0.31604 0.86184 0.52141 0.0
C169 C 0.37251 0.88537 0.68933 0.0
Co170 Co 0.45753 0.33398 0.82533 0.0
Co171 Co 0.43973 0.34483 0.97389 0.0
C172 C 0.41857 0.3454 0.83341 0.0
O173 O 0.43268 0.34062 0.80319 0.0
O174 O 0.4183 0.34786 0.90446 0.0
C175 C 0.44321 0.30992 0.69062 0.0
O176 O 0.42494 0.2956 0.72801 0.0
C177 C 0.42025 0.34502 0.12857 0.0
C178 C 0.45285 0.36812 0.18478 0.0
C179 C 0.42981 0.35509 0.19732 0.0
N180 N 0.43718 0.35177 0.07756 0.0
N181 N 0.45646 0.36583 0.11216 0.0
C182 C 0.39545 0.33051 0.11171 0.0
H183 H 0.39264 0.32626 0.05086 0.0
H184 H 0.38822 0.31477 0.1458 0.0
H185 H 0.38644 0.3397 0.12841 0.0
C186 C 0.45243 0.29552 0.92086 0.0
N187 N 0.44908 0.31312 0.90638 0.0
N188 N 0.43866 0.31613 0.96389 0.0
C189 C 0.43373 0.29966 0.01461 0.0
C190 C 0.44298 0.28635 0.99097 0.0
C191 C 0.46651 0.28948 0.87167 0.0
H192 H 0.47693 0.30358 0.83245 0.0
H193 H 0.45509 0.27418 0.83799 0.0
H194 H 0.47781 0.28565 0.90627 0.0
O195 O 0.48599 0.36223 0.84961 0.0
O196 O 0.47169 0.36888 0.95197 0.0
H197 H 0.42822 0.30748 0.12672 0.0
H198 H 0.41066 0.27782 0.10093 0.0
C199 C 0.41847 0.29555 0.08049 0.0
H200 H 0.40455 0.29851 0.06286 0.0
H201 H 0.47245 0.3735 0.08717 0.0
O202 O 0.46133 0.3224 0.72762 0.0
C203 C 0.48812 0.37439 0.90671 0.0
Co204 Co 0.55717 0.89004 0.82237 0.0
Co205 Co 0.56198 0.91334 0.66914 0.0
C206 C 0.59071 0.9414 0.78904 0.0
O207 O 0.58019 0.92381 0.83053 0.0
O208 O 0.58651 0.9404 0.7188 0.0
C209 C 0.58069 0.88454 0.94238 0.0
O210 O 0.59824 0.89986 0.9043 0.0
C211 C 0.56921 0.92398 0.50595 0.0
C212 C 0.53331 0.90413 0.47065 0.0
C213 C 0.55531 0.91445 0.44334 0.0
N214 N 0.55599 0.91787 0.56757 0.0
N215 N 0.53452 0.90718 0.54531 0.0
C216 C 0.59465 0.93753 0.50707 0.0
H217 H 0.60125 0.93937 0.56538 0.0
H218 H 0.60203 0.92978 0.4697 0.0
H219 H 0.60009 0.95471 0.48454 0.0
C220 C 0.5592 0.85549 0.7245 0.0
N221 N 0.56147 0.87613 0.73695 0.0
N222 N 0.56688 0.88765 0.67387 0.0
C223 C 0.57017 0.87537 0.62072 0.0
C224 C 0.56445 0.85415 0.64949 0.0
C225 C 0.55001 0.83689 0.78168 0.0
H226 H 0.5404 0.84016 0.82567 0.0
H227 H 0.5644 0.83624 0.80889 0.0
H228 H 0.53873 0.82022 0.75462 0.0
O229 O 0.5261 0.885 0.81954 0.0
O230 O 0.53222 0.90564 0.71698 0.0
H231 H 0.5707 0.88527 0.50686 0.0
H232 H 0.59001 0.875 0.52597 0.0
C233 C 0.58256 0.88504 0.54884 0.0
H234 H 0.59674 0.90239 0.55976 0.0
H235 H 0.52057 0.89963 0.58142 0.0
O236 O 0.56088 0.87641 0.91465 0.0
C237 C 0.51943 0.8941 0.7711 0.0
Co238 Co 0.67422 0.55325 0.05504 0.0
Co239 Co 0.65618 0.56212 0.90528 0.0
C240 C 0.65725 0.58686 0.04327 0.0
O241 O 0.6649 0.57556 0.07615 0.0
O242 O 0.65296 0.58435 0.97298 0.0
C243 C 0.70217 0.57343 0.17781 0.0
O244 O 0.71121 0.59077 0.13153 0.0
C245 C 0.65942 0.5832 0.75822 0.0
C246 C 0.63518 0.55308 0.69284 0.0
C247 C 0.65193 0.57568 0.68504 0.0
N248 N 0.64843 0.56551 0.80523 0.0
N249 N 0.6334 0.54781 0.76611 0.0
C250 C 0.67617 0.60671 0.78445 0.0
H251 H 0.67049 0.61012 0.83902 0.0
H252 H 0.69301 0.60826 0.7943 0.0
H253 H 0.67789 0.61957 0.74259 0.0
C254 C 0.71422 0.56336 0.96048 0.0
N255 N 0.69381 0.56184 0.97112 0.0
N256 N 0.68603 0.5647 0.9065 0.0
C257 C 0.70108 0.56726 0.85207 0.0
C258 C 0.71963 0.56714 0.88463 0.0
C259 C 0.72803 0.56116 0.02215 0.0
H260 H 0.71676 0.54716 0.06048 0.0
H261 H 0.73629 0.57714 0.05529 0.0
H262 H 0.74153 0.55811 6e-05 0.0
O263 O 0.64662 0.52313 0.03802 0.0
O264 O 0.63334 0.53061 0.93419 0.0
H265 H 0.67801 0.5545 0.75804 0.0
H266 H 0.70577 0.55846 0.73931 0.0
C267 C 0.69639 0.56562 0.76924 0.0
H268 H 0.70227 0.58275 0.74611 0.0
H269 H 0.62309 0.53165 0.78855 0.0
O270 O 0.68864 0.55376 0.15154 0.0
C271 C 0.63163 0.517 0.98626 0.0
Co272 Co 0.12107 0.66877 0.20815 0.0
Co273 Co 0.09832 0.65222 0.05297 0.0
C274 C 0.0712 0.65219 0.18311 0.0
O275 O 0.08852 0.65829 0.22445 0.0
O276 O 0.07241 0.65025 0.11233 0.0
C277 C 0.12702 0.6978 0.32347 0.0
O278 O 0.11649 0.70349 0.27341 0.0
C279 C 0.0847 0.65757 0.90259 0.0
C280 C 0.0859 0.62975 0.84229 0.0
C281 C 0.08377 0.64881 0.83137 0.0
N282 N 0.08815 0.64479 0.95253 0.0
N283 N 0.08795 0.62768 0.91655 0.0
C284 C 0.08495 0.67912 0.92236 0.0
H285 H 0.09091 0.68436 0.98101 0.0
H286 H 0.09576 0.69289 0.88264 0.0
H287 H 0.06738 0.67622 0.91732 0.0
C288 C 0.15442 0.70789 0.11896 0.0
N289 N 0.13409 0.68875 0.12537 0.0
N290 N 0.12559 0.68131 0.05788 0.0
C291 C 0.14078 0.6952 0.00608 0.0
C292 C 0.15928 0.71273 0.04313 0.0
C293 C 0.16966 0.72008 0.18431 0.0
H294 H 0.16081 0.72593 0.2229 0.0
H295 H 0.1858 0.73513 0.16649 0.0
H296 H 0.17335 0.70821 0.21582 0.0
O297 O 0.12486 0.64175 0.19415 0.0
O298 O 0.10607 0.62907 0.08621 0.0
H299 H 0.15795 0.69611 0.90264 0.0
H300 H 0.13243 0.69734 0.89132 0.0
C301 C 0.14042 0.6894 0.92446 0.0
H302 H 0.13092 0.67078 0.91595 0.0
H303 H 0.09101 0.61562 0.94193 0.0
O304 O 0.13408 0.68438 0.30373 0.0
C305 C 0.11711 0.62713 0.14096 0.0
Co306 Co 0.45309 0.11365 0.36837 0.0
Co307 Co 0.44415 0.09373 0.20834 0.0
C308 C 0.4171 0.06452 0.33013 0.0
O309 O 0.42939 0.08116 0.37305 0.0
O310 O 0.41955 0.06645 0.25908 0.0
C311 C 0.42778 0.11888 0.47536 0.0
O312 O 0.41337 0.1102 0.41903 0.0
C313 C 0.42798 0.08044 0.05265 0.0
C314 C 0.46119 0.09714 0.99467 0.0
C315 C 0.43793 0.0862 0.98209 0.0
N316 N 0.44471 0.08863 0.1043 0.0
N317 N 0.46446 0.09779 0.06914 0.0
C318 C 0.40314 0.06897 0.07089 0.0
H319 H 0.40051 0.07097 0.13142 0.0
H320 H 0.39448 0.07585 0.03562 0.0
H321 H 0.3953 0.05059 0.0579 0.0
C322 C 0.45099 0.15061 0.29158 0.0
N323 N 0.44866 0.12981 0.29096 0.0
N324 N 0.44214 0.12064 0.2241 0.0
C325 C 0.43876 0.13501 0.18048 0.0
C326 C 0.44443 0.15475 0.22165 0.0
C327 C 0.46181 0.16684 0.35586 0.0
H328 H 0.47344 0.16272 0.38716 0.0
H329 H 0.4484 0.1652 0.3953 0.0
H330 H 0.47156 0.18463 0.33566 0.0
O331 O 0.48259 0.11533 0.35786 0.0
O332 O 0.47478 0.0995 0.24417 0.0
H333 H 0.44194 0.13133 0.06215 0.0
H334 H 0.42102 0.13953 0.08636 0.0
C335 C 0.42868 0.12914 0.10325 0.0
H336 H 0.41495 0.11129 0.10256 0.0
H337 H 0.48025 0.10608 0.09605 0.0
O338 O 0.44851 0.12453 0.46496 0.0
C339 C 0.48815 0.10798 0.30043 0.0
Co340 Co 0.32845 0.44369 0.55807 0.0
Co341 Co 0.34804 0.44131 0.40327 0.0
C342 C 0.34791 0.41287 0.52834 0.0
O343 O 0.34004 0.42241 0.5703 0.0
O344 O 0.35097 0.41738 0.45849 0.0
C345 C 0.30012 0.41853 0.67324 0.0
O346 O 0.29543 0.40243 0.62349 0.0
C347 C 0.34705 0.42469 0.25153 0.0
C348 C 0.37186 0.4563 0.19449 0.0
C349 C 0.35549 0.43382 0.18121 0.0
N350 N 0.35731 0.44126 0.30303 0.0
N351 N 0.37274 0.45988 0.26904 0.0
C352 C 0.32776 0.40145 0.26913 0.0
H353 H 0.32094 0.40103 0.32623 0.0
H354 H 0.314 0.39587 0.22662 0.0
H355 H 0.33412 0.38925 0.26739 0.0
C356 C 0.28836 0.43451 0.46335 0.0
N357 N 0.30936 0.43725 0.47222 0.0
N358 N 0.31796 0.43734 0.40572 0.0
C359 C 0.30291 0.43549 0.35231 0.0
C360 C 0.28349 0.43305 0.38691 0.0
C361 C 0.27339 0.43321 0.52718 0.0
H362 H 0.28314 0.44762 0.56637 0.0
H363 H 0.268 0.41727 0.55875 0.0
H364 H 0.25797 0.43336 0.50744 0.0
O365 O 0.35542 0.47495 0.55371 0.0
O366 O 0.36965 0.47154 0.44504 0.0
H367 H 0.32636 0.4513 0.26071 0.0
H368 H 0.29836 0.44713 0.24434 0.0
C369 C 0.30799 0.43957 0.26995 0.0
H370 H 0.30258 0.42323 0.24099 0.0
H371 H 0.38262 0.47548 0.29592 0.0
O372 O 0.3118 0.43914 0.65257 0.0
C373 C 0.37076 0.48308 0.50307 0.0
Co374 Co 0.8873 0.33777 0.66111 0.0
Co375 Co 0.91674 0.3503 0.51464 0.0
C376 C 0.93829 0.35137 0.65574 0.0
O377 O 0.91894 0.34579 0.68331 0.0
O378 O 0.94166 0.35412 0.58503 0.0
C379 C 0.87775 0.3099 0.78401 0.0
O380 O 0.88306 0.29859 0.7359 0.0
C381 C 0.93584 0.34941 0.36142 0.0
C382 C 0.92181 0.36782 0.29957 0.0
C383 C 0.93293 0.35565 0.28915 0.0
N384 N 0.92594 0.35686 0.41107 0.0
N385 N 0.91829 0.36842 0.37333 0.0
C386 C 0.94939 0.3384 0.38349 0.0
H387 H 0.95111 0.33844 0.44562 0.0
H388 H 0.94134 0.32069 0.3629 0.0
H389 H 0.9665 0.34776 0.3574 0.0
C390 C 0.85485 0.29958 0.56259 0.0
N391 N 0.87572 0.31711 0.57921 0.0
N392 N 0.8894 0.32097 0.52171 0.0
C393 C 0.87787 0.30524 0.46825 0.0
C394 C 0.85535 0.29155 0.49073 0.0
C395 C 0.83441 0.29263 0.61103 0.0
H396 H 0.83786 0.30591 0.65375 0.0
H397 H 0.83023 0.27663 0.64048 0.0
H398 H 0.81953 0.28946 0.5761 0.0
O399 O 0.88586 0.36542 0.63834 0.0
O400 O 0.90759 0.37357 0.53691 0.0
H401 H 0.89015 0.31533 0.35609 0.0
H402 H 0.87826 0.28534 0.3737 0.0
C403 C 0.8885 0.3026 0.39823 0.0
H404 H 0.9055 0.30523 0.41233 0.0
H405 H 0.90935 0.37563 0.39715 0.0
O406 O 0.87332 0.32479 0.75893 0.0
C407 C 0.89585 0.3781 0.58225 0.0
H408 H 0.1079 0.59611 0.02785 0.0
H409 H 0.13562 0.61396 0.25415 0.0
H410 H 0.14169 0.58102 0.25443 0.0
H411 H 0.07767 0.53678 0.05307 0.0
H412 H 0.08344 0.5302 0.96022 0.0
H413 H 0.08265 0.55595 0.9761 0.0
H414 H 0.12327 0.57942 0.92122 0.0
H415 H 0.12425 0.55371 0.90548 0.0
H416 H 0.1461 0.57641 0.96077 0.0
H417 H 0.14167 0.54465 0.23462 0.0
H418 H 0.13583 0.5072 0.19589 0.0
H419 H 0.10974 0.51356 0.98017 0.0
C420 C 0.11539 0.59323 0.07742 0.0
C421 C 0.12124 0.60766 0.14116 0.0
C422 C 0.13101 0.60321 0.20468 0.0
C423 C 0.13459 0.58457 0.20526 0.0
C424 C 0.12853 0.5707 0.14161 0.0
C425 C 0.11923 0.57484 0.07872 0.0
C426 C 0.11342 0.55682 0.01874 0.0
C427 C 0.08777 0.54419 0.00104 0.0
C428 C 0.12761 0.56722 0.94733 0.0
C429 C 0.12042 0.54154 0.05843 0.0
C430 C 0.12918 0.54997 0.12917 0.0
C431 C 0.13525 0.53811 0.17893 0.0
C432 C 0.1319 0.5169 0.15646 0.0
C433 C 0.12281 0.50786 0.08466 0.0
C434 C 0.11736 0.52049 0.03444 0.0
H435 H 0.51437 0.11258 0.17724 0.0
H436 H 0.51196 0.10543 0.42016 0.0
H437 H 0.54829 0.10522 0.41744 0.0
H438 H 0.53845 0.07759 0.13455 0.0
H439 H 0.55665 0.09564 0.06066 0.0
H440 H 0.53033 0.09498 0.0813 0.0
H441 H 0.5522 0.13857 0.10118 0.0
H442 H 0.57859 0.1394 0.0803 0.0
H443 H 0.5754 0.15104 0.16767 0.0
H444 H 0.58343 0.10367 0.38784 0.0
H445 H 0.61758 0.10488 0.33564 0.0
H446 H 0.59907 0.11594 0.11214 0.0
C447 C 0.52151 0.11095 0.2298 0.0
C448 C 0.51033 0.10885 0.29895 0.0
C449 C 0.52031 0.1071 0.3667 0.0
C450 C 0.54086 0.10687 0.36563 0.0
C451 C 0.55138 0.10883 0.29649 0.0
C452 C 0.54227 0.1112 0.22991 0.0
C453 C 0.55747 0.11381 0.16362 0.0
C454 C 0.54497 0.09434 0.10669 0.0
C455 C 0.56645 0.13709 0.12599 0.0
C456 C 0.57639 0.11218 0.20327 0.0
C457 C 0.57236 0.10908 0.27979 0.0
C458 C 0.5869 0.10631 0.32816 0.0
C459 C 0.60623 0.10694 0.29779 0.0
C460 C 0.61109 0.11063 0.21979 0.0
C461 C 0.59592 0.1133 0.17202 0.0
H462 H 0.39717 0.51082 0.39079 0.0
H463 H 0.38988 0.50702 0.63362 0.0
H464 H 0.42595 0.54374 0.64551 0.0
H465 H 0.45623 0.53328 0.38395 0.0
H466 H 0.46065 0.55157 0.30481 0.0
H467 H 0.43381 0.52581 0.31602 0.0
H468 H 0.41268 0.54874 0.31211 0.0
H469 H 0.43945 0.57459 0.30019 0.0
H470 H 0.42087 0.5721 0.37654 0.0
H471 H 0.46495 0.57951 0.62946 0.0
H472 H 0.50106 0.61267 0.58684 0.0
H473 H 0.48098 0.59293 0.35462 0.0
C474 C 0.40301 0.51779 0.44655 0.0
C475 C 0.39081 0.50606 0.51135 0.0
C476 C 0.39893 0.51582 0.58323 0.0
C477 C 0.41944 0.53659 0.59047 0.0
C478 C 0.43132 0.54746 0.52522 0.0
C479 C 0.42315 0.53851 0.45463 0.0
C480 C 0.43899 0.55325 0.39313 0.0
C481 C 0.44795 0.5402 0.34679 0.0
C482 C 0.4273 0.56274 0.34253 0.0
C483 C 0.45766 0.57176 0.43996 0.0
C484 C 0.45308 0.56816 0.51606 0.0
C485 C 0.46853 0.58262 0.56997 0.0
C486 C 0.48903 0.60133 0.5453 0.0
C487 C 0.49374 0.60549 0.46744 0.0
C488 C 0.47776 0.59043 0.41451 0.0
H489 H 0.89943 0.41268 0.67328 0.0
H490 H 0.88283 0.38545 0.44668 0.0
H491 H 0.87703 0.41708 0.40857 0.0
H492 H 0.85983 0.43461 0.68173 0.0
H493 H 0.87942 0.45992 0.73256 0.0
H494 H 0.88062 0.43419 0.74393 0.0
H495 H 0.92319 0.45567 0.70618 0.0
H496 H 0.9221 0.48142 0.69468 0.0
H497 H 0.93148 0.47072 0.61802 0.0
H498 H 0.87376 0.45188 0.39385 0.0
H499 H 0.87552 0.48903 0.40174 0.0
H500 H 0.89585 0.49484 0.63622 0.0
C501 C 0.89432 0.41333 0.61602 0.0
C502 C 0.89165 0.39676 0.56266 0.0
C503 C 0.88526 0.39821 0.48794 0.0
C504 C 0.88174 0.41599 0.46595 0.0
C505 C 0.88483 0.4323 0.5193 0.0
C506 C 0.8911 0.43127 0.59269 0.0
C507 C 0.89463 0.45182 0.63738 0.0
C508 C 0.87761 0.4447 0.70277 0.0
C509 C 0.91932 0.46573 0.66571 0.0
C510 C 0.88957 0.46456 0.57745 0.0
C511 C 0.88364 0.45284 0.51008 0.0
C512 C 0.87835 0.46124 0.44635 0.0
C513 C 0.87936 0.48233 0.45138 0.0
C514 C 0.8859 0.49491 0.51939 0.0
C515 C 0.8909 0.48572 0.58325 0.0
H516 H 0.41747 0.91771 0.68647 0.0
H517 H 0.37149 0.84546 0.71236 0.0
H518 H 0.40413 0.84009 0.74357 0.0
H519 H 0.46251 0.9115 0.59526 0.0
H520 H 0.48498 0.93679 0.63865 0.0
H521 H 0.45791 0.93467 0.61954 0.0
H522 H 0.45477 0.94311 0.75998 0.0
H523 H 0.48164 0.94483 0.77977 0.0
H524 H 0.45659 0.92532 0.83157 0.0
H525 H 0.4415 0.84337 0.78252 0.0
H526 H 0.48166 0.85358 0.80186 0.0
H527 H 0.50361 0.92296 0.7369 0.0
C528 C 0.41442 0.90075 0.69771 0.0
C529 C 0.39214 0.88193 0.69699 0.0
C530 C 0.38857 0.85997 0.71196 0.0
C531 C 0.40693 0.85683 0.73036 0.0
C532 C 0.42874 0.8758 0.73192 0.0
C533 C 0.43263 0.89724 0.7139 0.0
C534 C 0.4578 0.91458 0.71598 0.0
C535 C 0.4663 0.92499 0.6377 0.0
C536 C 0.46299 0.93305 0.77537 0.0
C537 C 0.46744 0.89962 0.73895 0.0
C538 C 0.45036 0.8774 0.74942 0.0
C539 C 0.45504 0.86065 0.77362 0.0
C540 C 0.47784 0.86663 0.78515 0.0
C541 C 0.49561 0.88901 0.77085 0.0
C542 C 0.49029 0.90571 0.7481 0.0
H543 H 0.60139 0.49514 0.87101 0.0
H544 H 0.61656 0.48622 0.10172 0.0
H545 H 0.58232 0.4481 0.10344 0.0
H546 H 0.54149 0.46809 0.88974 0.0
H547 H 0.53538 0.45477 0.79832 0.0
H548 H 0.56155 0.48098 0.81394 0.0
H549 H 0.58452 0.46221 0.76779 0.0
H550 H 0.55839 0.43591 0.75189 0.0
H551 H 0.58012 0.43644 0.81175 0.0
H552 H 0.54537 0.41238 0.08343 0.0
H553 H 0.50873 0.3802 0.04107 0.0
H554 H 0.51799 0.41119 0.82135 0.0
C555 C 0.5976 0.48515 0.92184 0.0
C556 C 0.61165 0.49373 0.98642 0.0
C557 C 0.60612 0.48002 0.05157 0.0
C558 C 0.5867 0.45835 0.05308 0.0
C559 C 0.57315 0.45053 0.98872 0.0
C560 C 0.57843 0.46339 0.92404 0.0
C561 C 0.56085 0.45105 0.86284 0.0
C562 C 0.54913 0.46453 0.83989 0.0
C563 C 0.57162 0.44611 0.79453 0.0
C564 C 0.54458 0.42937 0.90373 0.0
C565 C 0.55205 0.42952 0.97635 0.0
C566 C 0.53946 0.41198 0.02657 0.0
C567 C 0.51862 0.39389 0.0022 0.0
C568 C 0.51063 0.39334 0.92822 0.0
C569 C 0.52391 0.41115 0.87793 0.0
H570 H 0.06004 0.41869 0.85409 0.0
H571 H 0.02703 0.3809 0.05652 0.0
H572 H 0.99179 0.3574 0.98348 0.0
H573 H 0.01271 0.42143 0.7854 0.0
H574 H 0.01819 0.41889 0.68764 0.0
H575 H 0.04136 0.43108 0.7539 0.0
H576 H 0.05294 0.40166 0.71421 0.0
H577 H 0.02964 0.38907 0.64826 0.0
H578 H 0.03243 0.37178 0.71954 0.0
H579 H 0.96011 0.33887 0.89025 0.0
H580 H 0.93226 0.3299 0.78887 0.0
H581 H 0.98504 0.38052 0.64609 0.0
C582 C 0.04551 0.40528 0.88306 0.0
C583 C 0.04638 0.40151 0.96118 0.0
C584 C 0.02682 0.38406 -0.0031 0.0
C585 C 0.0068 0.37054 0.95569 0.0
C586 C 0.00658 0.3747 0.87886 0.0
C587 C 0.02534 0.39181 0.84299 0.0
C588 C 0.02004 0.39405 0.76137 0.0
C589 C 0.02326 0.41777 0.74624 0.0
C590 C 0.03462 0.38882 0.70769 0.0
C591 C 0.99513 0.3758 0.75725 0.0
C592 C 0.98794 0.36459 0.82539 0.0
C593 C 0.96554 0.34761 0.83692 0.0
C594 C 0.94983 0.34266 0.77879 0.0
C595 C 0.95642 0.35457 0.70953 0.0
C596 C 0.97956 0.37093 0.69793 0.0
H597 H 0.59789 0.95214 0.93968 0.0
H598 H 0.62089 0.98097 0.71754 0.0
H599 H 0.64667 0.0183 0.77537 0.0
H600 H 0.59598 0.99929 0.01859 0.0
H601 H 0.60456 0.99463 0.10973 0.0
H602 H 0.58998 0.97138 0.04466 0.0
H603 H 0.62756 0.96499 0.05357 0.0
H604 H 0.63721 0.98745 0.1229 0.0
H605 H 0.6547 0.98996 0.04313 0.0
H606 H 0.66828 0.05297 0.85718 0.0
H607 H 0.68086 0.08285 0.95432 0.0
H608 H 0.64224 0.03204 0.12291 0.0
C609 C 0.60864 0.96619 0.90311 0.0
C610 C 0.60741 0.9635 0.8239 0.0
C611 C 0.62154 0.98249 0.77829 0.0
C612 C 0.63635 0.00377 0.81068 0.0
C613 C 0.6369 0.00585 0.88888 0.0
C614 C 0.62337 0.9876 0.93445 0.0
C615 C 0.6258 0.99476 0.01641 0.0
C616 C 0.60274 0.98969 0.0494 0.0
C617 C 0.6369 0.98363 0.06193 0.0
C618 C 0.6419 0.02007 0.00974 0.0
C619 C 0.64863 0.02599 0.93584 0.0
C620 C 0.66304 0.04846 0.91507 0.0
C621 C 0.66999 0.06532 0.9706 0.0
C622 C 0.66223 0.05981 0.04586 0.0
C623 C 0.64862 0.03677 0.0661 0.0
H624 H 0.58219 0.63818 0.20206 0.0
H625 H 0.61866 0.64882 0.41296 0.0
H626 H 0.64432 0.63783 0.35138 0.0
H627 H 0.5827 0.58933 0.14572 0.0
H628 H 0.58712 0.59623 0.04701 0.0
H629 H 0.5732 0.60743 0.10463 0.0
H630 H 0.60357 0.64907 0.06872 0.0
H631 H 0.61586 0.63708 0.0066 0.0
H632 H 0.63324 0.65783 0.07654 0.0
H633 H 0.66481 0.62418 0.26986 0.0
H634 H 0.67654 0.605 0.17812 0.0
H635 H 0.62654 0.60202 0.01872 0.0
C636 C 0.59573 0.63846 0.23523 0.0
C637 C 0.5984 0.64444 0.31259 0.0
C638 C 0.61626 0.64439 0.35378 0.0
C639 C 0.63101 0.63828 0.31915 0.0
C640 C 0.62782 0.63237 0.24311 0.0
C641 C 0.61061 0.63236 0.20157 0.0
C642 C 0.61009 0.62397 0.12184 0.0
C643 C 0.5869 0.60299 0.1038 0.0
C644 C 0.61605 0.6431 0.06493 0.0
C645 C 0.62892 0.61812 0.12623 0.0
C646 C 0.63929 0.62376 0.1962 0.0
C647 C 0.65679 0.61966 0.21503 0.0
C648 C 0.66336 0.60876 0.16221 0.0
C649 C 0.65243 0.60191 0.09106 0.0
C650 C 0.63538 0.60725 0.07216 0.0
H651 H 0.9772 0.60387 0.50746 0.0
H652 H 0.93141 0.608 0.34572 0.0
H653 H 0.96295 0.62762 0.25681 0.0
H654 H 0.02873 0.6603 0.45518 0.0
H655 H 0.0478 0.64931 0.46792 0.0
H656 H 0.0224 0.63854 0.52422 0.0
H657 H 0.01019 0.59766 0.48017 0.0
H658 H 0.03535 0.6083 0.42316 0.0
H659 H 0.00768 0.59133 0.38086 0.0
H660 H 0.99733 0.64095 0.17734 0.0
H661 H 0.03407 0.65107 0.11736 0.0
H662 H 0.05876 0.64043 0.33017 0.0
C663 C 0.97406 0.60967 0.4545 0.0
C664 C 0.95178 0.60435 0.43378 0.0
C665 C 0.94827 0.61178 0.36302 0.0
C666 C 0.96611 0.62301 0.31192 0.0
C667 C 0.98761 0.62709 0.3324 0.0
C668 C 0.99186 0.62113 0.40249 0.0
C669 C 0.01634 0.62627 0.40776 0.0
C670 C 0.0296 0.6447 0.4673 0.0
C671 C 0.01744 0.6046 0.42392 0.0
C672 C 0.0247 0.63509 0.32892 0.0
C673 C 0.00786 0.63551 0.28654 0.0
C674 C 0.01087 0.64121 0.21036 0.0
C675 C 0.03172 0.64679 0.17659 0.0
C676 C 0.04935 0.64677 0.21909 0.0
C677 C 0.04575 0.641 0.29644 0.0
H678 H 0.41488 0.05261 0.47808 0.0
H679 H 0.38234 0.02666 0.2616 0.0
H680 H 0.3562 0.98971 0.32091 0.0
H681 H 0.41514 0.00355 0.53273 0.0
H682 H 0.4102 0.00591 0.63115 0.0
H683 H 0.4241 0.03102 0.57402 0.0
H684 H 0.39382 0.04162 0.61256 0.0
H685 H 0.37959 0.01642 0.66954 0.0
H686 H 0.3641 0.0216 0.59721 0.0
H687 H 0.33548 0.95519 0.40142 0.0
H688 H 0.32454 0.92417 0.4921 0.0
H689 H 0.37125 0.97213 0.65666 0.0
C690 C 0.40198 0.03933 0.4432 0.0
C691 C 0.40052 0.04261 0.36512 0.0
C692 C 0.38371 0.02459 0.32144 0.0
C693 C 0.36871 0.00361 0.3548 0.0
C694 C 0.37077 1.00094 0.43179 0.0
C695 C 0.38709 0.01827 0.47534 0.0
C696 C 0.3873 0.01039 0.55504 0.0
C697 C 0.41056 0.01286 0.57431 0.0
C698 C 0.3808 0.02327 0.61194 0.0
C699 C 0.36891 0.98565 0.54912 0.0
C700 C 0.35932 0.98074 0.47789 0.0
C701 C 0.34288 0.95884 0.4572 0.0
C702 C 0.33676 0.94133 0.50933 0.0
C703 C 0.34702 0.94572 0.58164 0.0
C704 C 0.36284 0.96832 0.60241 0.0
H705 H 0.39784 0.37108 0.85822 0.0
H706 H 0.40463 0.32766 0.69349 0.0
H707 H 0.38511 0.33828 0.59898 0.0
H708 H 0.34032 0.35942 0.79159 0.0
H709 H 0.34707 0.38822 0.8098 0.0
H710 H 0.35954 0.37539 0.86697 0.0
H711 H 0.39973 0.40871 0.83531 0.0
H712 H 0.38735 0.42144 0.77761 0.0
H713 H 0.40813 0.41523 0.7382 0.0
H714 H 0.36962 0.35746 0.51772 0.0
H715 H 0.35588 0.38135 0.45865 0.0
H716 H 0.3565 0.41029 0.67729 0.0
C717 C 0.39462 0.36333 0.80294 0.0
C718 C 0.40318 0.34888 0.78278 0.0
C719 C 0.3988 0.33926 0.70957 0.0
C720 C 0.38751 0.34501 0.65561 0.0
C721 C 0.38012 0.36002 0.6761 0.0
C722 C 0.38304 0.3687 0.7484 0.0
C723 C 0.37435 0.38533 0.75438 0.0
C724 C 0.35412 0.37656 0.80891 0.0
C725 C 0.39354 0.40908 0.77773 0.0
C726 C 0.36685 0.38514 0.6738 0.0
C727 C 0.37028 0.3704 0.62956 0.0
C728 C 0.36635 0.36869 0.55206 0.0
C729 C 0.35866 0.38238 0.5189 0.0
C730 C 0.35485 0.39748 0.56331 0.0
C731 C 0.35881 0.3986 0.64189 0.0
H732 H 0.18474 0.45741 0.25341 0.0
H733 H 0.16108 0.3989 0.10653 0.0
H734 H 0.1916 0.39233 0.15421 0.0
H735 H 0.24426 0.47709 0.23587 0.0
H736 H 0.25087 0.48588 0.33276 0.0
H737 H 0.22707 0.48584 0.28763 0.0
H738 H 0.2003 0.45982 0.39256 0.0
H739 H 0.22402 0.45975 0.43801 0.0
H740 H 0.19918 0.43328 0.41253 0.0
H741 H 0.22474 0.39238 0.21627 0.0
H742 H 0.25887 0.39926 0.28791 0.0
H743 H 0.26088 0.4573 0.39725 0.0
C744 C 0.18575 0.44296 0.23255 0.0
C745 C 0.17031 0.4283 0.17754 0.0
C746 C 0.17268 0.41014 0.14918 0.0
C747 C 0.18989 0.40627 0.17603 0.0
C748 C 0.20464 0.42079 0.23118 0.0
C749 C 0.2028 0.4388 0.25915 0.0
C750 C 0.22112 0.45203 0.31746 0.0
C751 C 0.23675 0.47667 0.29187 0.0
C752 C 0.21052 0.45116 0.39472 0.0
C753 C 0.23358 0.4387 0.3177 0.0
C754 C 0.22375 0.42075 0.26744 0.0
C755 C 0.23249 0.40628 0.25611 0.0
C756 C 0.25185 0.41031 0.29691 0.0
C757 C 0.26222 0.42857 0.34864 0.0
C758 C 0.25293 0.44292 0.35925 0.0
H759 H 0.73922 0.17902 0.37262 0.0
H760 H 0.75843 0.20042 0.14114 0.0
H761 H 0.79117 0.23596 0.18603 0.0
H762 H 0.75849 0.23307 0.45968 0.0
H763 H 0.7705 0.22717 0.54116 0.0
H764 H 0.74682 0.20428 0.4924 0.0
H765 H 0.7698 0.1836 0.47443 0.0
H766 H 0.79345 0.20625 0.52402 0.0
H767 H 0.79744 0.19838 0.4307 0.0
H768 H 0.82026 0.27006 0.25562 0.0
H769 H 0.84901 0.29738 0.34267 0.0
H770 H 0.81679 0.25052 0.52786 0.0
C771 C 0.75043 0.19088 0.33097 0.0
C772 C 0.7457 0.18692 0.25284 0.0
C773 C 0.76088 0.2033 0.20109 0.0
C774 C 0.77974 0.22352 0.22609 0.0
C775 C 0.78375 0.22687 0.30316 0.0
C776 C 0.76997 0.21074 0.35486 0.0
C777 C 0.77947 0.2177 0.43411 0.0
C778 C 0.76282 0.22073 0.48481 0.0
C779 C 0.7854 0.20046 0.46778 0.0
C780 C 0.80073 0.24032 0.4186 0.0
C781 C 0.80239 0.24545 0.34283 0.0
C782 C 0.8196 0.2659 0.31466 0.0
C783 C 0.83606 0.28122 0.36466 0.0
C784 C 0.83596 0.27571 0.44166 0.0
C785 C 0.81765 0.25515 0.46925 0.0
H786 H 0.57151 0.81888 0.69482 0.0
H787 H 0.54984 0.84325 0.50391 0.0
H788 H 0.54921 0.81337 0.42443 0.0
H789 H 0.60456 0.79945 0.60081 0.0
H790 H 0.59397 0.7735 0.65359 0.0
H791 H 0.59454 0.79791 0.69576 0.0
H792 H 0.55132 0.77423 0.72327 0.0
H793 H 0.55074 0.74965 0.68259 0.0
H794 H 0.53187 0.75903 0.64752 0.0
H795 H 0.55478 0.78303 0.36237 0.0
H796 H 0.55758 0.74932 0.32869 0.0
H797 H 0.56553 0.73885 0.56522 0.0
C798 C 0.56632 0.81782 0.63672 0.0
C799 C 0.56178 0.83424 0.60517 0.0
C800 C 0.55474 0.83181 0.52877 0.0
C801 C 0.55407 0.81469 0.48304 0.0
C802 C 0.55938 0.79929 0.51518 0.0
C803 C 0.56449 0.80011 0.59086 0.0
C804 C 0.56742 0.78014 0.61246 0.0
C805 C 0.59156 0.78825 0.64242 0.0
C806 C 0.54925 0.76486 0.66984 0.0
C807 C 0.56366 0.7684 0.53677 0.0
C808 C 0.5596 0.78002 0.48112 0.0
C809 C 0.55726 0.77335 0.40588 0.0
C810 C 0.55863 0.75397 0.38733 0.0
C811 C 0.56149 0.74096 0.44399 0.0
C812 C 0.56396 0.74845 0.51972 0.0
H813 H 0.73896 0.53972 0.88147 0.0
H814 H 0.74669 0.60291 0.79637 0.0
H815 H 0.78038 0.60928 0.72339 0.0
H816 H 0.79988 0.5593 0.89932 0.0
H817 H 0.79676 0.5325 0.86977 0.0
H818 H 0.77372 0.53327 0.91747 0.0
H819 H 0.74673 0.51144 0.80644 0.0
H820 H 0.76969 0.51068 0.75832 0.0
H821 H 0.75438 0.52264 0.71244 0.0
H822 H 0.8123 0.60829 0.65688 0.0
H823 H 0.84111 0.60027 0.60222 0.0
H824 H 0.81299 0.5377 0.72951 0.0
C825 C 0.7481 0.55511 0.84877 0.0
C826 C 0.74056 0.57107 0.84535 0.0
C827 C 0.75239 0.59062 0.79994 0.0
C828 C 0.77151 0.59437 0.75846 0.0
C829 C 0.77857 0.57836 0.76288 0.0
C830 C 0.76731 0.55914 0.80696 0.0
C831 C 0.77817 0.54436 0.79997 0.0
C832 C 0.7877 0.54224 0.87617 0.0
C833 C 0.76123 0.52089 0.76734 0.0
C834 C 0.79717 0.55822 0.74478 0.0
C835 C 0.79707 0.57778 0.72428 0.0
C836 C 0.81266 0.59311 0.67292 0.0
C837 C 0.82888 0.58842 0.64206 0.0
C838 C 0.82945 0.56864 0.66277 0.0
C839 C 0.81328 0.55327 0.71435 0.0
H840 H 0.24003 0.81956 0.78637 0.0
H841 H 0.29704 0.81486 0.87487 0.0
H842 H 0.27052 0.7805 0.94658 0.0
H843 H 0.20703 0.80338 0.95258 0.0
H844 H 0.17999 0.78698 0.90585 0.0
H845 H 0.20326 0.81027 0.85769 0.0
H846 H 0.19969 0.78332 0.74852 0.0
H847 H 0.17631 0.75995 0.79624 0.0
H848 H 0.20081 0.75791 0.76885 0.0
H849 H 0.23811 0.74813 0.01389 0.0
H850 H 0.2017 0.71913 0.07003 0.0
H851 H 0.16548 0.74446 0.93756 0.0
C852 C 0.24679 0.81107 0.82033 0.0
C853 C 0.27046 0.81983 0.82625 0.0
C854 C 0.27889 0.80841 0.87073 0.0
C855 C 0.26399 0.78891 0.9113 0.0
C856 C 0.2407 0.78093 0.90591 0.0
C857 C 0.23209 0.79151 0.86108 0.0
C858 C 0.20637 0.77977 0.8669 0.0
C859 C 0.19872 0.79607 0.8976 0.0
C860 C 0.19514 0.76964 0.79058 0.0
C861 C 0.20194 0.76128 0.92316 0.0
C862 C 0.22197 0.76219 0.94461 0.0
C863 C 0.22231 0.74722 -0.00257 0.0
C864 C 0.20164 0.73096 0.02939 0.0
C865 C 0.18099 0.72991 0.00883 0.0
C866 C 0.18113 0.74506 0.95432 0.0
H867 H 0.45211 0.17494 0.07961 0.0
H868 H 0.43398 0.1815 0.30919 0.0
H869 H 0.43619 0.21753 0.27639 0.0
H870 H 0.48578 0.23266 0.02713 0.0
H871 H 0.4729 0.22967 0.93596 0.0
H872 H 0.47352 0.20587 0.97792 0.0
H873 H 0.42977 0.18134 0.96561 0.0
H874 H 0.42901 0.2049 0.9223 0.0
H875 H 0.41203 0.1916 0.0046 0.0
H876 H 0.44526 0.255 0.22198 0.0
H877 H 0.44758 0.28567 0.14395 0.0
H878 H 0.44511 0.24817 0.94236 0.0
C879 C 0.448 0.18349 0.12291 0.0
C880 C 0.44371 0.1755 0.1982 0.0
C881 C 0.43875 0.18773 0.25245 0.0
C882 C 0.43965 0.20817 0.23413 0.0
C883 C 0.4442 0.2156 0.16006 0.0
C884 C 0.44714 0.20312 0.10444 0.0
C885 C 0.44847 0.21345 0.02744 0.0
C886 C 0.47154 0.22085 0.98992 0.0
C887 C 0.42863 0.19684 0.97702 0.0
C888 C 0.4462 0.23387 0.04922 0.0
C889 C 0.44472 0.23513 0.12635 0.0
C890 C 0.44514 0.25362 0.16127 0.0
C891 C 0.44604 0.27083 0.11604 0.0
C892 C 0.44488 0.26885 0.03642 0.0
C893 C 0.44552 0.25024 0.00272 0.0
H894 H 0.10937 0.45279 0.45658 0.0
H895 H 0.05323 0.38389 0.4323 0.0
H896 H 0.06325 0.37408 0.55602 0.0
H897 H 0.14887 0.43904 0.55113 0.0
H898 H 0.15992 0.46384 0.61057 0.0
H899 H 0.14957 0.46439 0.5176 0.0
H900 H 0.12164 0.4762 0.5737 0.0
H901 H 0.13215 0.47602 0.66635 0.0
H902 H 0.10214 0.45904 0.64649 0.0
H903 H 0.07797 0.37333 0.68678 0.0
H904 H 0.09334 0.38205 0.81586 0.0
H905 H 0.13977 0.45176 0.75067 0.0
C906 C 0.09916 0.43558 0.47709 0.0
C907 C 0.08044 0.41906 0.43566 0.0
C908 C 0.06766 0.3967 0.46365 0.0
C909 C 0.07333 0.39101 0.53333 0.0
C910 C 0.09199 0.40786 0.57287 0.0
C911 C 0.10465 0.42968 0.54549 0.0
C912 C 0.1228 0.44526 0.60027 0.0
C913 C 0.1467 0.45362 0.56795 0.0
C914 C 0.11946 0.46529 0.62306 0.0
C915 C 0.1179 0.42907 0.66468 0.0
C916 C 0.10042 0.40745 0.64743 0.0
C917 C 0.09189 0.39009 0.70041 0.0
C918 C 0.10082 0.39522 0.77359 0.0
C919 C 0.11781 0.41763 0.79322 0.0
C920 C 0.12699 0.43445 0.73716 0.0
H921 H 0.72063 0.14333 0.83925 0.0
H922 H 0.65055 0.10341 0.91284 0.0
H923 H 0.64179 0.07827 0.80293 0.0
H924 H 0.70646 0.14386 0.65049 0.0
H925 H 0.73096 0.14333 0.61379 0.0
H926 H 0.73221 0.15502 0.70543 0.0
H927 H 0.74415 0.12706 0.76013 0.0
H928 H 0.74177 0.11463 0.66842 0.0
H929 H 0.7259 0.09693 0.74655 0.0
H930 H 0.63949 0.05924 0.68322 0.0
H931 H 0.64025 0.05584 0.54546 0.0
H932 H 0.71075 0.10895 0.54233 0.0
C933 C 0.7035 0.12921 0.832 0.0
C934 C 0.6863 0.12524 0.8843 0.0
C935 C 0.66394 0.10692 0.87278 0.0
C936 C 0.65892 0.09222 0.81146 0.0
C937 C 0.67635 0.09624 0.76157 0.0
C938 C 0.69799 0.11475 0.76965 0.0
C939 C 0.71237 0.11776 0.70085 0.0
C940 C 0.72097 0.14137 0.66553 0.0
C941 C 0.73223 0.11386 0.72018 0.0
C942 C 0.69501 0.0988 0.65125 0.0
C943 C 0.67474 0.08581 0.68919 0.0
C944 C 0.65534 0.06898 0.65313 0.0
C945 C 0.65598 0.06688 0.57496 0.0
C946 C 0.67568 0.08187 0.53427 0.0
C947 C 0.69586 0.09675 0.57313 0.0
H948 H 0.61437 0.69998 0.79936 0.0
H949 H 0.57047 0.62897 0.74699 0.0
H950 H 0.56157 0.62066 0.88126 0.0
H951 H 0.62976 0.69088 0.00848 0.0
H952 H 0.6289 0.71592 0.03659 0.0
H953 H 0.63973 0.71461 0.94517 0.0
H954 H 0.61116 0.72455 0.88525 0.0
H955 H 0.59908 0.72458 0.9748 0.0
H956 H 0.58108 0.70616 0.90084 0.0
H957 H 0.54612 0.62268 0.00425 0.0
H958 H 0.53306 0.63305 0.11926 0.0
H959 H 0.58662 0.70313 0.09342 0.0
C960 C 0.60449 0.68248 0.8175 0.0
C961 C 0.59317 0.66509 0.76408 0.0
C962 C 0.57962 0.64238 0.78782 0.0
C963 C 0.57424 0.63759 0.86402 0.0
C964 C 0.5831 0.65569 0.91478 0.0
C965 C 0.59889 0.67761 0.89328 0.0
C966 C 0.60267 0.69461 0.9548 0.0
C967 C 0.62669 0.70458 0.98828 0.0
C968 C 0.59821 0.71355 0.92718 0.0
C969 C 0.58481 0.67925 0.01028 0.0
C970 C 0.57394 0.65685 0.98686 0.0
C971 C 0.55499 0.64003 0.0244 0.0
C972 C 0.54742 0.64617 0.08876 0.0
C973 C 0.55882 0.66894 0.11469 0.0
C974 C 0.5777 0.6856 0.07482 0.0
H975 H 0.89055 0.54399 0.93266 0.0
H976 H 0.94128 0.61472 0.89856 0.0
H977 H 0.92976 0.62461 0.01911 0.0
H978 H 0.84745 0.55348 0.02143 0.0
H979 H 0.83895 0.53007 0.08541 0.0
H980 H 0.84978 0.52921 0.99359 0.0
H981 H 0.88084 0.52266 0.0544 0.0
H982 H 0.86986 0.5231 0.14597 0.0
H983 H 0.89941 0.54228 0.12498 0.0
H984 H 0.91426 0.6258 0.14799 0.0
H985 H 0.8994 0.61807 0.2776 0.0
H986 H 0.85903 0.54627 0.22446 0.0
C987 C 0.8993 0.56161 0.95036 0.0
C988 C 0.9168 0.57865 0.90647 0.0
C989 C 0.92768 0.60148 0.93126 0.0
C990 C 0.92117 0.60721 -0.0007 0.0
C991 C 0.90366 0.5899 0.04096 0.0
C992 C 0.89299 0.56755 0.01732 0.0
C993 C 0.87583 0.55177 0.07406 0.0
C994 C 0.85157 0.54047 0.04167 0.0
C995 C 0.88186 0.53392 0.10148 0.0
C996 C 0.8791 0.56857 0.13526 0.0
C997 C 0.89484 0.59055 0.11464 0.0
C998 C 0.90173 0.60871 0.16429 0.0
C999 C 0.89308 0.60413 0.23781 0.0
C1000 C 0.87805 0.58152 0.26122 0.0
C1001 C 0.87031 0.56373 0.20815 0.0
H1002 H 0.33995 0.88959 0.41521 0.0
H1003 H 0.26679 0.86015 0.40006 0.0
H1004 H 0.27102 0.87552 0.27057 0.0
H1005 H 0.35404 0.94204 0.31297 0.0
H1006 H 0.37884 0.9432 0.27208 0.0
H1007 H 0.36899 0.93042 0.3632 0.0
H1008 H 0.36731 0.89352 0.3117 0.0
H1009 H 0.37664 0.90656 0.22101 0.0
H1010 H 0.35041 0.87992 0.22918 0.0
H1011 H 0.28364 0.89135 0.1388 0.0
H1012 H 0.30284 0.90505 0.01751 0.0
H1013 H 0.36814 0.92813 0.12617 0.0
C1014 C 0.32477 0.88609 0.3842 0.0
C1015 C 0.30297 0.87314 0.4162 0.0
C1016 C 0.28358 0.86965 0.37538 0.0
C1017 C 0.28587 0.87851 0.30242 0.0
C1018 C 0.30772 0.89142 0.27268 0.0
C1019 C 0.32682 0.89534 0.31277 0.0
C1020 C 0.34838 0.9095 0.26853 0.0
C1021 C 0.36344 0.93265 0.30654 0.0
C1022 C 0.36144 0.8966 0.25689 0.0
C1023 C 0.33843 0.91214 0.19572 0.0
C1024 C 0.31499 0.9018 0.19918 0.0
C1025 C 0.30203 0.90006 0.13602 0.0
C1026 C 0.31323 0.90825 0.06701 0.0
C1027 C 0.33722 0.91826 0.06187 0.0
C1028 C 0.34986 0.92099 0.12813 0.0
H1029 H 0.42237 0.2876 0.55929 0.0
H1030 H 0.45564 0.35391 0.66619 0.0
H1031 H 0.44569 0.36989 0.55829 0.0
H1032 H 0.44513 0.30925 0.37949 0.0
H1033 H 0.4205 0.28855 0.32806 0.0
H1034 H 0.4267 0.28163 0.41933 0.0
H1035 H 0.38621 0.27147 0.46311 0.0
H1036 H 0.3803 0.27919 0.37229 0.0
H1037 H 0.37742 0.29243 0.45633 0.0
H1038 H 0.43441 0.37947 0.43912 0.0
H1039 H 0.43263 0.38483 0.30283 0.0
H1040 H 0.40963 0.31365 0.26482 0.0
C1041 C 0.42742 0.30544 0.55967 0.0
C1042 C 0.43956 0.31949 0.62114 0.0
C1043 C 0.44639 0.34287 0.61945 0.0
C1044 C 0.44046 0.35202 0.55901 0.0
C1045 C 0.42814 0.33771 0.49972 0.0
C1046 C 0.42238 0.31511 0.49813 0.0
C1047 C 0.41267 0.30456 0.42195 0.0
C1048 C 0.42712 0.29548 0.38503 0.0
C1049 C 0.38766 0.2858 0.42887 0.0
C1050 C 0.41473 0.32501 0.38034 0.0
C1051 C 0.42271 0.34364 0.42767 0.0
C1052 C 0.42788 0.36499 0.4016 0.0
C1053 C 0.42659 0.36785 0.32421 0.0
C1054 C 0.42053 0.34956 0.27393 0.0
C1055 C 0.41335 0.32763 0.30255 0.0
H1056 H 0.604 0.91938 0.03771 0.0
H1057 H 0.55921 0.84656 0.02897 0.0
H1058 H 0.55379 0.84595 0.16672 0.0
H1059 H 0.62736 0.92574 0.23671 0.0
H1060 H 0.62495 0.95076 0.24973 0.0
H1061 H 0.63098 0.94378 0.15782 0.0
H1062 H 0.59313 0.94303 0.10316 0.0
H1063 H 0.59126 0.95257 0.19596 0.0
H1064 H 0.56753 0.92751 0.15589 0.0
H1065 H 0.54609 0.85417 0.29466 0.0
H1066 H 0.53765 0.87015 0.40608 0.0
H1067 H 0.58603 0.93831 0.33211 0.0
C1068 C 0.59416 0.90319 0.06576 0.0
C1069 C 0.58254 0.88291 0.02392 0.0
C1070 C 0.56865 0.86213 0.06099 0.0
C1071 C 0.56549 0.86168 0.139 0.0
C1072 C 0.5761 0.88223 0.17832 0.0
C1073 C 0.59021 0.90262 0.143 0.0
C1074 C 0.59563 0.92263 0.19379 0.0
C1075 C 0.62125 0.93657 0.21049 0.0
C1076 C 0.5864 0.93735 0.16037 0.0
C1077 C 0.5823 0.91045 0.26289 0.0
C1078 C 0.5712 0.88713 0.25285 0.0
C1079 C 0.55515 0.87235 0.30389 0.0
C1080 C 0.55022 0.88163 0.36631 0.0
C1081 C 0.56128 0.90548 0.3772 0.0
C1082 C 0.57777 0.92004 0.32557 0.0
H1083 H 0.66308 0.55596 0.25705 0.0
H1084 H 0.73564 0.60256 0.27434 0.0
H1085 H 0.73032 0.61271 0.40429 0.0
H1086 H 0.64614 0.59208 0.36059 0.0
H1087 H 0.62192 0.56774 0.40081 0.0
H1088 H 0.6323 0.56558 0.30958 0.0
H1089 H 0.63605 0.53142 0.35912 0.0
H1090 H 0.62599 0.53415 0.44989 0.0
H1091 H 0.653 0.53524 0.44191 0.0
H1092 H 0.71685 0.61465 0.53602 0.0
H1093 H 0.69725 0.60774 0.65705 0.0
H1094 H 0.63282 0.56324 0.54673 0.0
C1095 C 0.6779 0.56805 0.28867 0.0
C1096 C 0.69987 0.57801 0.2572 0.0
C1097 C 0.71876 0.59443 0.29869 0.0
C1098 C 0.71584 0.60044 0.37189 0.0
C1099 C 0.69382 0.5904 0.40114 0.0
C1100 C 0.67519 0.5747 0.36037 0.0
C1101 C 0.65335 0.56616 0.40416 0.0
C1102 C 0.6375 0.57332 0.36648 0.0
C1103 C 0.64141 0.54022 0.4144 0.0
C1104 C 0.66266 0.57864 0.47763 0.0
C1105 C 0.68599 0.59274 0.47475 0.0
C1106 C 0.69852 0.60415 0.53841 0.0
C1107 C 0.68706 0.60029 0.60732 0.0
C1108 C 0.66324 0.58524 0.61192 0.0
C1109 C 0.65094 0.57515 0.54521 0.0
H1110 H 0.14578 0.68747 0.4415 0.0
H1111 H 0.10089 0.71371 0.38698 0.0
H1112 H 0.08777 0.70824 0.5185 0.0
H1113 H 0.10894 0.64397 0.54378 0.0
H1114 H 0.12829 0.64464 0.61465 0.0
H1115 H 0.13878 0.65602 0.52289 0.0
H1116 H 0.1678 0.69498 0.58079 0.0
H1117 H 0.15787 0.68354 0.6734 0.0
H1118 H 0.15802 0.709 0.6443 0.0
H1119 H 0.074 0.69271 0.64858 0.0
H1120 H 0.06344 0.67133 0.76893 0.0
H1121 H 0.11695 0.65501 0.73489 0.0
C1122 C 0.13394 0.693 0.45794 0.0
C1123 C 0.12435 0.70096 0.40414 0.0
C1124 C 0.10862 0.70771 0.42745 0.0
C1125 C 0.10101 0.70463 0.50209 0.0
C1126 C 0.10966 0.69523 0.55274 0.0
C1127 C 0.1262 0.69002 0.53198 0.0
C1128 C 0.13079 0.67763 0.59382 0.0
C1129 C 0.12642 0.65419 0.56715 0.0
C1130 C 0.15506 0.69216 0.62493 0.0
C1131 C 0.11329 0.67544 0.65058 0.0
C1132 C 0.10153 0.68604 0.62696 0.0
C1133 C 0.08345 0.68479 0.66845 0.0
C1134 C 0.07746 0.67254 0.7362 0.0
C1135 C 0.08932 0.6615 0.76037 0.0
C1136 C 0.10748 0.66315 0.71718 0.0
H1137 H 0.44903 0.14472 0.59732 0.0
H1138 H 0.38801 0.08372 0.52622 0.0
H1139 H 0.37945 0.07119 0.65808 0.0
H1140 H 0.46749 0.12158 0.71453 0.0
H1141 H 0.47823 0.14283 0.78777 0.0
H1142 H 0.47596 0.1507 0.6934 0.0
H1143 H 0.45061 0.16701 0.73786 0.0
H1144 H 0.45325 0.15973 0.83342 0.0
H1145 H 0.42547 0.14957 0.79267 0.0
H1146 H 0.38371 0.06047 0.78895 0.0
H1147 H 0.3982 0.05508 0.91097 0.0
H1148 H 0.45529 0.12373 0.89686 0.0
C1149 C 0.43326 0.12937 0.61034 0.0
C1150 C 0.41912 0.11526 0.55251 0.0
C1151 C 0.39884 0.09496 0.57033 0.0
C1152 C 0.39386 0.08767 0.64507 0.0
C1153 C 0.40902 0.10123 0.70091 0.0
C1154 C 0.42793 0.12208 0.68465 0.0
C1155 C 0.44322 0.132 0.75241 0.0
C1156 C 0.46764 0.13704 0.73598 0.0
C1157 C 0.44312 0.15334 0.78077 0.0
C1158 C 0.43115 0.11258 0.80678 0.0
C1159 C 0.41118 0.09516 0.77719 0.0
C1160 C 0.39885 0.07433 0.814 0.0
C1161 C 0.40722 0.07132 0.8828 0.0
C1162 C 0.42779 0.08899 0.91276 0.0
C1163 C 0.4395 0.10992 0.87495 0.0
H1164 H 0.30856 0.44745 0.79076 0.0
H1165 H 0.29105 0.37825 0.73748 0.0
H1166 H 0.3003 0.37311 0.86753 0.0
H1167 H 0.3559 0.461 0.88835 0.0
H1168 H 0.35295 0.47836 0.95925 0.0
H1169 H 0.34009 0.47524 0.86837 0.0
H1170 H 0.30048 0.46055 0.92947 0.0
H1171 H 0.31331 0.46426 0.02109 0.0
H1172 H 0.28972 0.43705 0.99418 0.0
H1173 H 0.31792 0.37789 0.99676 0.0
H1174 H 0.33902 0.3914 0.11757 0.0
H1175 H 0.34523 0.45737 0.08222 0.0
C1176 C 0.30576 0.43091 0.80723 0.0
C1177 C 0.29908 0.41328 0.75411 0.0
C1178 C 0.29594 0.39197 0.77747 0.0
C1179 C 0.30125 0.3889 0.85123 0.0
C1180 C 0.30926 0.40717 0.90096 0.0
C1181 C 0.311 0.42761 0.88032 0.0
C1182 C 0.32217 0.44535 0.94115 0.0
C1183 C 0.34407 0.4662 0.91253 0.0
C1184 C 0.30542 0.4522 0.97339 0.0
C1185 C 0.32741 0.43207 -0.00232 0.0
C1186 C 0.3196 0.40998 0.9744 0.0
C1187 C 0.32369 0.39502 0.01628 0.0
C1188 C 0.33576 0.40281 0.08435 0.0
C1189 C 0.34373 0.42537 0.10868 0.0
C1190 C 0.33948 0.44006 0.06459 0.0
H1191 H 0.93983 0.37671 0.15547 0.0
H1192 H 0.92267 0.31187 0.25435 0.0
H1193 H 0.91035 0.29358 0.13067 0.0
H1194 H 0.89084 0.35587 0.0591 0.0
H1195 H 0.90202 0.37381 0.9775 0.0
H1196 H 0.91611 0.38338 0.06681 0.0
H1197 H 0.95342 0.38997 0.0083 0.0
H1198 H 0.94018 0.37989 0.91763 0.0
H1199 H 0.95476 0.36704 0.96283 0.0
H1200 H 0.89371 0.28114 -0.00017 0.0
H1201 H 0.87602 0.27638 0.87385 0.0
H1202 H 0.89944 0.34852 0.86787 0.0
C1203 C 0.93461 0.35888 0.15032 0.0
C1204 C 0.93313 0.346 0.21453 0.0
C1205 C 0.92526 0.32249 0.20606 0.0
C1206 C 0.91775 0.31179 0.13574 0.0
C1207 C 0.91794 0.32477 0.07476 0.0
C1208 C 0.92637 0.34789 0.0814 0.0
C1209 C 0.92149 0.35748 0.01164 0.0
C1210 C 0.90674 0.36825 0.02992 0.0
C1211 C 0.94377 0.37459 0.97269 0.0
C1212 C 0.90835 0.33605 0.96558 0.0
C1213 C 0.90683 0.3174 0.00202 0.0
C1214 C 0.89493 0.29567 0.97068 0.0
C1215 C 0.88471 0.29306 0.89973 0.0
C1216 C 0.88586 0.31195 0.86226 0.0
C1217 C 0.89776 0.33364 0.89608 0.0
loop_
_geom_bond_atom_site_label_1
_geom_bond_atom_site_label_2
_geom_bond_distance
_geom_bond_site_symmetry_2
_ccdc_geom_bond_type
Co0 O3 1.970 . S
Co0 N17 1.989 1_556 S
Co0 O25 1.967 1_556 S
Co0 O32 1.920 . S
Co1 O4 1.966 . S
Co1 N10 2.022 . S
Co1 N18 1.993 . S
Co1 O26 1.941 . S
C2 O3 1.258 1_554 S
C2 O4 1.263 . S
O3 Co0 1.970 . S
O3 C2 1.258 1_556 S
O4 Co1 1.966 . S
O4 C2 1.263 . S
C5 O6 1.235 . S
C5 O32 1.289 . S
O6 C5 1.235 . S
C7 C9 1.400 . S
C7 N10 1.351 . S
C7 C12 1.501 . S
C8 C9 1.387 . S
C8 N11 1.341 . S
C9 C7 1.400 . S
C9 C8 1.387 . S
N10 Co1 2.022 . S
N10 C7 1.351 . S
N10 N11 1.365 . S
N11 C8 1.341 . S
N11 N10 1.365 . S
N11 H31 0.862 . S
C12 C7 1.501 . S
C12 H13 0.961 . S
C12 H14 0.961 . S
C12 H15 0.960 . S
H13 C12 0.961 . S
H14 C12 0.961 . S
H15 C12 0.960 . S
C16 N17 1.342 . S
C16 C20 1.401 . S
C16 C21 1.499 1_554 S
N17 Co0 1.989 1_554 S
N17 C16 1.342 . S
N17 N18 1.388 . S
N18 Co1 1.993 . S
N18 N17 1.388 . S
N18 C19 1.346 . S
C19 N18 1.346 . S
C19 C20 1.396 . S
C19 C29 1.510 . S
C20 C16 1.401 . S
C20 C19 1.396 . S
C21 C16 1.499 1_556 S
C21 H22 0.959 . S
C21 H23 0.960 . S
C21 H24 0.961 . S
H22 C21 0.959 . S
H23 C21 0.960 . S
H24 C21 0.961 . S
O25 Co0 1.967 1_554 S
O25 C33 1.258 . S
O26 Co1 1.941 . S
O26 C33 1.266 . S
H27 C29 0.959 . S
H28 C29 0.961 . S
C29 C19 1.510 . S
C29 H27 0.959 . S
C29 H28 0.961 . S
C29 H30 0.960 . S
H30 C29 0.960 . S
H31 N11 0.862 . S
O32 Co0 1.920 . S
O32 C5 1.289 . S
C33 O25 1.258 . S
C33 O26 1.266 . S
Co34 O37 1.970 . S
Co34 N51 1.989 . S
Co34 O59 1.967 . S
Co34 O66 1.920 . S
Co35 O38 1.966 . S
Co35 N44 2.022 . S
Co35 N52 1.993 . S
Co35 O60 1.941 . S
C36 O37 1.258 . S
C36 O38 1.263 . S
O37 Co34 1.970 . S
O37 C36 1.258 . S
O38 Co35 1.966 . S
O38 C36 1.263 . S
C39 O40 1.235 . S
C39 O66 1.289 . S
O40 C39 1.235 . S
C41 C43 1.400 . S
C41 N44 1.351 . S
C41 C46 1.501 . S
C42 C43 1.387 . S
C42 N45 1.341 . S
C43 C41 1.400 . S
C43 C42 1.387 . S
N44 Co35 2.022 . S
N44 C41 1.351 . S
N44 N45 1.365 . S
N45 C42 1.341 . S
N45 N44 1.365 . S
N45 H65 0.862 . S
C46 C41 1.501 . S
C46 H47 0.961 . S
C46 H48 0.961 . S
C46 H49 0.960 . S
H47 C46 0.961 . S
H48 C46 0.961 . S
H49 C46 0.960 . S
C50 N51 1.342 . S
C50 C54 1.401 . S
C50 C55 1.499 . S
N51 Co34 1.989 . S
N51 C50 1.342 . S
N51 N52 1.388 . S
N52 Co35 1.993 . S
N52 N51 1.388 . S
N52 C53 1.346 . S
C53 N52 1.346 . S
C53 C54 1.396 . S
C53 C63 1.510 . S
C54 C50 1.401 . S
C54 C53 1.396 . S
C55 C50 1.499 . S
C55 H56 0.959 . S
C55 H57 0.960 . S
C55 H58 0.961 . S
H56 C55 0.959 . S
H57 C55 0.960 . S
H58 C55 0.961 . S
O59 Co34 1.967 . S
O59 C67 1.258 . S
O60 Co35 1.941 . S
O60 C67 1.266 . S
H61 C63 0.959 . S
H62 C63 0.961 . S
C63 C53 1.510 . S
C63 H61 0.959 . S
C63 H62 0.961 . S
C63 H64 0.960 . S
H64 C63 0.960 . S
H65 N45 0.862 . S
O66 Co34 1.920 . S
O66 C39 1.289 . S
C67 O59 1.258 . S
C67 O60 1.266 . S
Co68 O71 1.970 . S
Co68 N85 1.989 . S
Co68 O93 1.967 . S
Co68 O100 1.920 . S
Co69 O72 1.966 . S
Co69 N78 2.022 . S
Co69 N86 1.993 . S
Co69 O94 1.941 . S
C70 O71 1.258 . S
C70 O72 1.263 . S
O71 Co68 1.970 . S
O71 C70 1.258 . S
O72 Co69 1.966 . S
O72 C70 1.263 . S
C73 O74 1.235 . S
C73 O100 1.289 . S
O74 C73 1.235 . S
C75 C77 1.400 . S
C75 N78 1.351 . S
C75 C80 1.501 . S
C76 C77 1.387 . S
C76 N79 1.341 . S
C77 C75 1.400 . S
C77 C76 1.387 . S
N78 Co69 2.022 . S
N78 C75 1.351 . S
N78 N79 1.365 . S
N79 C76 1.341 . S
N79 N78 1.365 . S
N79 H99 0.862 . S
C80 C75 1.501 . S
C80 H81 0.961 . S
C80 H82 0.961 . S
C80 H83 0.960 . S
H81 C80 0.961 . S
H82 C80 0.961 . S
H83 C80 0.960 . S
C84 N85 1.342 . S
C84 C88 1.401 . S
C84 C89 1.499 . S
N85 Co68 1.989 . S
N85 C84 1.342 . S
N85 N86 1.388 . S
N86 Co69 1.993 . S
N86 N85 1.388 . S
N86 C87 1.346 . S
C87 N86 1.346 . S
C87 C88 1.396 . S
C87 C97 1.510 . S
C88 C84 1.401 . S
C88 C87 1.396 . S
C89 C84 1.499 . S
C89 H90 0.959 . S
C89 H91 0.960 . S
C89 H92 0.961 . S
H90 C89 0.959 . S
H91 C89 0.960 . S
H92 C89 0.961 . S
O93 Co68 1.967 . S
O93 C101 1.258 . S
O94 Co69 1.941 . S
O94 C101 1.266 . S
H95 C97 0.959 . S
H96 C97 0.961 . S
C97 C87 1.510 . S
C97 H95 0.959 . S
C97 H96 0.961 . S
C97 H98 0.960 . S
H98 C97 0.960 . S
H99 N79 0.862 . S
O100 Co68 1.920 . S
O100 C73 1.289 . S
C101 O93 1.258 . S
C101 O94 1.266 . S
Co102 O105 1.970 . S
Co102 N119 1.989 . S
Co102 O127 1.967 . S
Co102 O134 1.920 . S
Co103 O106 1.966 . S
Co103 N112 2.022 . S
Co103 N120 1.993 . S
Co103 O128 1.941 . S
C104 O105 1.258 . S
C104 O106 1.263 . S
O105 Co102 1.970 . S
O105 C104 1.258 . S
O106 Co103 1.966 . S
O106 C104 1.263 . S
C107 O108 1.235 . S
C107 O134 1.289 . S
O108 C107 1.235 . S
C109 C111 1.400 . S
C109 N112 1.351 . S
C109 C114 1.501 . S
C110 C111 1.387 . S
C110 N113 1.341 . S
C111 C109 1.400 . S
C111 C110 1.387 . S
N112 Co103 2.022 . S
N112 C109 1.351 . S
N112 N113 1.365 . S
N113 C110 1.341 . S
N113 N112 1.365 . S
N113 H133 0.862 . S
C114 C109 1.501 . S
C114 H115 0.961 . S
C114 H116 0.961 . S
C114 H117 0.960 . S
H115 C114 0.961 . S
H116 C114 0.961 . S
H117 C114 0.960 . S
C118 N119 1.342 . S
C118 C122 1.401 . S
C118 C123 1.499 . S
N119 Co102 1.989 . S
N119 C118 1.342 . S
N119 N120 1.388 . S
N120 Co103 1.993 . S
N120 N119 1.388 . S
N120 C121 1.346 . S
C121 N120 1.346 . S
C121 C122 1.396 . S
C121 C131 1.510 . S
C122 C118 1.401 . S
C122 C121 1.396 . S
C123 C118 1.499 . S
C123 H124 0.959 . S
C123 H125 0.960 . S
C123 H126 0.961 . S
H124 C123 0.959 . S
H125 C123 0.960 . S
H126 C123 0.961 . S
O127 Co102 1.967 . S
O127 C135 1.258 . S
O128 Co103 1.941 . S
O128 C135 1.266 . S
H129 C131 0.959 . S
H130 C131 0.961 . S
C131 C121 1.510 . S
C131 H129 0.959 . S
C131 H130 0.961 . S
C131 H132 0.960 . S
H132 C131 0.960 . S
H133 N113 0.862 . S
O134 Co102 1.920 . S
O134 C107 1.289 . S
C135 O127 1.258 . S
C135 O128 1.266 . S
Co136 O139 1.970 . S
Co136 N153 1.989 . S
Co136 O161 1.967 . S
Co136 O168 1.920 . S
Co137 O140 1.966 . S
Co137 N146 2.022 . S
Co137 N154 1.993 . S
Co137 O162 1.941 . S
C138 O139 1.258 . S
C138 O140 1.263 . S
O139 Co136 1.970 . S
O139 C138 1.258 . S
O140 Co137 1.966 . S
O140 C138 1.263 . S
C141 O142 1.235 . S
C141 O168 1.289 . S
O142 C141 1.235 . S
C143 C145 1.400 1_556 S
C143 N146 1.351 . S
C143 C148 1.501 . S
C144 C145 1.387 . S
C144 N147 1.341 1_554 S
C145 C143 1.400 1_554 S
C145 C144 1.387 . S
N146 Co137 2.022 . S
N146 C143 1.351 . S
N146 N147 1.365 . S
N147 C144 1.341 1_556 S
N147 N146 1.365 . S
N147 H167 0.862 . S
C148 C143 1.501 . S
C148 H149 0.961 . S
C148 H150 0.961 . S
C148 H151 0.960 . S
H149 C148 0.961 . S
H150 C148 0.961 . S
H151 C148 0.960 . S
C152 N153 1.342 . S
C152 C156 1.401 . S
C152 C157 1.499 . S
N153 Co136 1.989 . S
N153 C152 1.342 . S
N153 N154 1.388 . S
N154 Co137 1.993 . S
N154 N153 1.388 . S
N154 C155 1.346 . S
C155 N154 1.346 . S
C155 C156 1.396 . S
C155 C165 1.510 . S
C156 C152 1.401 . S
C156 C155 1.396 . S
C157 C152 1.499 . S
C157 H158 0.959 . S
C157 H159 0.960 . S
C157 H160 0.961 . S
H158 C157 0.959 . S
H159 C157 0.960 . S
H160 C157 0.961 . S
O161 Co136 1.967 . S
O161 C169 1.258 . S
O162 Co137 1.941 . S
O162 C169 1.266 . S
H163 C165 0.959 . S
H164 C165 0.961 . S
C165 C155 1.510 . S
C165 H163 0.959 . S
C165 H164 0.961 . S
C165 H166 0.960 . S
H166 C165 0.960 . S
H167 N147 0.862 . S
O168 Co136 1.920 . S
O168 C141 1.289 . S
C169 O161 1.258 . S
C169 O162 1.266 . S
Co170 O173 1.970 . S
Co170 N187 1.989 . S
Co170 O195 1.967 . S
Co170 O202 1.920 . S
Co171 O174 1.966 . S
Co171 N180 2.022 1_556 S
Co171 N188 1.993 . S
Co171 O196 1.941 . S
C172 O173 1.258 . S
C172 O174 1.263 . S
O173 Co170 1.970 . S
O173 C172 1.258 . S
O174 Co171 1.966 . S
O174 C172 1.263 . S
C175 O176 1.235 . S
C175 O202 1.289 . S
O176 C175 1.235 . S
C177 C179 1.400 . S
C177 N180 1.351 . S
C177 C182 1.501 . S
C178 C179 1.387 . S
C178 N181 1.341 . S
C179 C177 1.400 . S
C179 C178 1.387 . S
N180 Co171 2.022 1_554 S
N180 C177 1.351 . S
N180 N181 1.365 . S
N181 C178 1.341 . S
N181 N180 1.365 . S
N181 H201 0.862 . S
C182 C177 1.501 . S
C182 H183 0.961 . S
C182 H184 0.961 . S
C182 H185 0.960 . S
H183 C182 0.961 . S
H184 C182 0.961 . S
H185 C182 0.960 . S
C186 N187 1.342 . S
C186 C190 1.401 . S
C186 C191 1.499 . S
N187 Co170 1.989 . S
N187 C186 1.342 . S
N187 N188 1.388 . S
N188 Co171 1.993 . S
N188 N187 1.388 . S
N188 C189 1.346 1_556 S
C189 N188 1.346 1_554 S
C189 C190 1.396 1_554 S
C189 C199 1.510 . S
C190 C186 1.401 . S
C190 C189 1.396 1_556 S
C191 C186 1.499 . S
C191 H192 0.959 . S
C191 H193 0.960 . S
C191 H194 0.961 . S
H192 C191 0.959 . S
H193 C191 0.960 . S
H194 C191 0.961 . S
O195 Co170 1.967 . S
O195 C203 1.258 . S
O196 Co171 1.941 . S
O196 C203 1.266 . S
H197 C199 0.959 . S
H198 C199 0.961 . S
C199 C189 1.510 . S
C199 H197 0.959 . S
C199 H198 0.961 . S
C199 H200 0.960 . S
H200 C199 0.960 . S
H201 N181 0.862 . S
O202 Co170 1.920 . S
O202 C175 1.289 . S
C203 O195 1.258 . S
C203 O196 1.266 . S
Co204 O207 1.970 . S
Co204 N221 1.989 . S
Co204 O229 1.967 . S
Co204 O236 1.920 . S
Co205 O208 1.966 . S
Co205 N214 2.022 . S
Co205 N222 1.993 . S
Co205 O230 1.941 . S
C206 O207 1.258 . S
C206 O208 1.263 . S
O207 Co204 1.970 . S
O207 C206 1.258 . S
O208 Co205 1.966 . S
O208 C206 1.263 . S
C209 O210 1.235 . S
C209 O236 1.289 . S
O210 C209 1.235 . S
C211 C213 1.400 . S
C211 N214 1.351 . S
C211 C216 1.501 . S
C212 C213 1.387 . S
C212 N215 1.341 . S
C213 C211 1.400 . S
C213 C212 1.387 . S
N214 Co205 2.022 . S
N214 C211 1.351 . S
N214 N215 1.365 . S
N215 C212 1.341 . S
N215 N214 1.365 . S
N215 H235 0.862 . S
C216 C211 1.501 . S
C216 H217 0.961 . S
C216 H218 0.961 . S
C216 H219 0.960 . S
H217 C216 0.961 . S
H218 C216 0.961 . S
H219 C216 0.960 . S
C220 N221 1.342 . S
C220 C224 1.401 . S
C220 C225 1.499 . S
N221 Co204 1.989 . S
N221 C220 1.342 . S
N221 N222 1.388 . S
N222 Co205 1.993 . S
N222 N221 1.388 . S
N222 C223 1.346 . S
C223 N222 1.346 . S
C223 C224 1.396 . S
C223 C233 1.510 . S
C224 C220 1.401 . S
C224 C223 1.396 . S
C225 C220 1.499 . S
C225 H226 0.959 . S
C225 H227 0.960 . S
C225 H228 0.961 . S
H226 C225 0.959 . S
H227 C225 0.960 . S
H228 C225 0.961 . S
O229 Co204 1.967 . S
O229 C237 1.258 . S
O230 Co205 1.941 . S
O230 C237 1.266 . S
H231 C233 0.959 . S
H232 C233 0.961 . S
C233 C223 1.510 . S
C233 H231 0.959 . S
C233 H232 0.961 . S
C233 H234 0.960 . S
H234 C233 0.960 . S
H235 N215 0.862 . S
O236 Co204 1.920 . S
O236 C209 1.289 . S
C237 O229 1.258 . S
C237 O230 1.266 . S
Co238 O241 1.970 . S
Co238 N255 1.989 1_554 S
Co238 O263 1.967 1_554 S
Co238 O270 1.920 . S
Co239 O242 1.966 . S
Co239 N248 2.022 . S
Co239 N256 1.993 . S
Co239 O264 1.941 . S
C240 O241 1.258 1_556 S
C240 O242 1.263 . S
O241 Co238 1.970 . S
O241 C240 1.258 1_554 S
O242 Co239 1.966 . S
O242 C240 1.263 . S
C243 O244 1.235 . S
C243 O270 1.289 . S
O244 C243 1.235 . S
C245 C247 1.400 . S
C245 N248 1.351 . S
C245 C250 1.501 . S
C246 C247 1.387 . S
C246 N249 1.341 . S
C247 C245 1.400 . S
C247 C246 1.387 . S
N248 Co239 2.022 . S
N248 C245 1.351 . S
N248 N249 1.365 . S
N249 C246 1.341 . S
N249 N248 1.365 . S
N249 H269 0.862 . S
C250 C245 1.501 . S
C250 H251 0.961 . S
C250 H252 0.961 . S
C250 H253 0.960 . S
H251 C250 0.961 . S
H252 C250 0.961 . S
H253 C250 0.960 . S
C254 N255 1.342 . S
C254 C258 1.401 . S
C254 C259 1.499 1_556 S
N255 Co238 1.989 1_556 S
N255 C254 1.342 . S
N255 N256 1.388 . S
N256 Co239 1.993 . S
N256 N255 1.388 . S
N256 C257 1.346 . S
C257 N256 1.346 . S
C257 C258 1.396 . S
C257 C267 1.510 . S
C258 C254 1.401 . S
C258 C257 1.396 . S
C259 C254 1.499 1_554 S
C259 H260 0.959 . S
C259 H261 0.960 . S
C259 H262 0.961 . S
H260 C259 0.959 . S
H261 C259 0.960 . S
H262 C259 0.961 . S
O263 Co238 1.967 1_556 S
O263 C271 1.258 . S
O264 Co239 1.941 . S
O264 C271 1.266 . S
H265 C267 0.959 . S
H266 C267 0.961 . S
C267 C257 1.510 . S
C267 H265 0.959 . S
C267 H266 0.961 . S
C267 H268 0.960 . S
H268 C267 0.960 . S
H269 N249 0.862 . S
O270 Co238 1.920 . S
O270 C243 1.289 . S
C271 O263 1.258 . S
C271 O264 1.266 . S
Co272 O275 1.970 . S
Co272 N289 1.989 . S
Co272 O297 1.967 . S
Co272 O304 1.920 . S
Co273 O276 1.966 . S
Co273 N282 2.022 1_554 S
Co273 N290 1.993 . S
Co273 O298 1.941 . S
C274 O275 1.258 . S
C274 O276 1.263 . S
O275 Co272 1.970 . S
O275 C274 1.258 . S
O276 Co273 1.966 . S
O276 C274 1.263 . S
C277 O278 1.235 . S
C277 O304 1.289 . S
O278 C277 1.235 . S
C279 C281 1.400 . S
C279 N282 1.351 . S
C279 C284 1.501 . S
C280 C281 1.387 . S
C280 N283 1.341 . S
C281 C279 1.400 . S
C281 C280 1.387 . S
N282 Co273 2.022 1_556 S
N282 C279 1.351 . S
N282 N283 1.365 . S
N283 C280 1.341 . S
N283 N282 1.365 . S
N283 H303 0.862 . S
C284 C279 1.501 . S
C284 H285 0.961 . S
C284 H286 0.961 . S
C284 H287 0.960 . S
H285 C284 0.961 . S
H286 C284 0.961 . S
H287 C284 0.960 . S
C288 N289 1.342 . S
C288 C292 1.401 . S
C288 C293 1.499 . S
N289 Co272 1.989 . S
N289 C288 1.342 . S
N289 N290 1.388 . S
N290 Co273 1.993 . S
N290 N289 1.388 . S
N290 C291 1.346 1_554 S
C291 N290 1.346 1_556 S
C291 C292 1.396 1_556 S
C291 C301 1.510 . S
C292 C288 1.401 . S
C292 C291 1.396 1_554 S
C293 C288 1.499 . S
C293 H294 0.959 . S
C293 H295 0.960 . S
C293 H296 0.961 . S
H294 C293 0.959 . S
H295 C293 0.960 . S
H296 C293 0.961 . S
O297 Co272 1.967 . S
O297 C305 1.258 . S
O298 Co273 1.941 . S
O298 C305 1.266 . S
H299 C301 0.959 . S
H300 C301 0.961 . S
C301 C291 1.510 . S
C301 H299 0.959 . S
C301 H300 0.961 . S
C301 H302 0.960 . S
H302 C301 0.960 . S
H303 N283 0.862 . S
O304 Co272 1.920 . S
O304 C277 1.289 . S
C305 O297 1.258 . S
C305 O298 1.266 . S
Co306 O309 1.970 . S
Co306 N323 1.989 . S
Co306 O331 1.967 . S
Co306 O338 1.920 . S
Co307 O310 1.966 . S
Co307 N316 2.022 . S
Co307 N324 1.993 . S
Co307 O332 1.941 . S
C308 O309 1.258 . S
C308 O310 1.263 . S
O309 Co306 1.970 . S
O309 C308 1.258 . S
O310 Co307 1.966 . S
O310 C308 1.263 . S
C311 O312 1.235 . S
C311 O338 1.289 . S
O312 C311 1.235 . S
C313 C315 1.400 1_554 S
C313 N316 1.351 . S
C313 C318 1.501 . S
C314 C315 1.387 . S
C314 N317 1.341 1_556 S
C315 C313 1.400 1_556 S
C315 C314 1.387 . S
N316 Co307 2.022 . S
N316 C313 1.351 . S
N316 N317 1.365 . S
N317 C314 1.341 1_554 S
N317 N316 1.365 . S
N317 H337 0.862 . S
C318 C313 1.501 . S
C318 H319 0.961 . S
C318 H320 0.961 . S
C318 H321 0.960 . S
H319 C318 0.961 . S
H320 C318 0.961 . S
H321 C318 0.960 . S
C322 N323 1.342 . S
C322 C326 1.401 . S
C322 C327 1.499 . S
N323 Co306 1.989 . S
N323 C322 1.342 . S
N323 N324 1.388 . S
N324 Co307 1.993 . S
N324 N323 1.388 . S
N324 C325 1.346 . S
C325 N324 1.346 . S
C325 C326 1.396 . S
C325 C335 1.510 . S
C326 C322 1.401 . S
C326 C325 1.396 . S
C327 C322 1.499 . S
C327 H328 0.959 . S
C327 H329 0.960 . S
C327 H330 0.961 . S
H328 C327 0.959 . S
H329 C327 0.960 . S
H330 C327 0.961 . S
O331 Co306 1.967 . S
O331 C339 1.258 . S
O332 Co307 1.941 . S
O332 C339 1.266 . S
H333 C335 0.959 . S
H334 C335 0.961 . S
C335 C325 1.510 . S
C335 H333 0.959 . S
C335 H334 0.961 . S
C335 H336 0.960 . S
H336 C335 0.960 . S
H337 N317 0.862 . S
O338 Co306 1.920 . S
O338 C311 1.289 . S
C339 O331 1.258 . S
C339 O332 1.266 . S
Co340 O343 1.970 . S
Co340 N357 1.989 . S
Co340 O365 1.967 . S
Co340 O372 1.920 . S
Co341 O344 1.966 . S
Co341 N350 2.022 . S
Co341 N358 1.993 . S
Co341 O366 1.941 . S
C342 O343 1.258 . S
C342 O344 1.263 . S
O343 Co340 1.970 . S
O343 C342 1.258 . S
O344 Co341 1.966 . S
O344 C342 1.263 . S
C345 O346 1.235 . S
C345 O372 1.289 . S
O346 C345 1.235 . S
C347 C349 1.400 . S
C347 N350 1.351 . S
C347 C352 1.501 . S
C348 C349 1.387 . S
C348 N351 1.341 . S
C349 C347 1.400 . S
C349 C348 1.387 . S
N350 Co341 2.022 . S
N350 C347 1.351 . S
N350 N351 1.365 . S
N351 C348 1.341 . S
N351 N350 1.365 . S
N351 H371 0.862 . S
C352 C347 1.501 . S
C352 H353 0.961 . S
C352 H354 0.961 . S
C352 H355 0.960 . S
H353 C352 0.961 . S
H354 C352 0.961 . S
H355 C352 0.960 . S
C356 N357 1.342 . S
C356 C360 1.401 . S
C356 C361 1.499 . S
N357 Co340 1.989 . S
N357 C356 1.342 . S
N357 N358 1.388 . S
N358 Co341 1.993 . S
N358 N357 1.388 . S
N358 C359 1.346 . S
C359 N358 1.346 . S
C359 C360 1.396 . S
C359 C369 1.510 . S
C360 C356 1.401 . S
C360 C359 1.396 . S
C361 C356 1.499 . S
C361 H362 0.959 . S
C361 H363 0.960 . S
C361 H364 0.961 . S
H362 C361 0.959 . S
H363 C361 0.960 . S
H364 C361 0.961 . S
O365 Co340 1.967 . S
O365 C373 1.258 . S
O366 Co341 1.941 . S
O366 C373 1.266 . S
H367 C369 0.959 . S
H368 C369 0.961 . S
C369 C359 1.510 . S
C369 H367 0.959 . S
C369 H368 0.961 . S
C369 H370 0.960 . S
H370 C369 0.960 . S
H371 N351 0.862 . S
O372 Co340 1.920 . S
O372 C345 1.289 . S
C373 O365 1.258 . S
C373 O366 1.266 . S
Co374 O377 1.970 . S
Co374 N391 1.989 . S
Co374 O399 1.967 . S
Co374 O406 1.920 . S
Co375 O378 1.966 . S
Co375 N384 2.022 . S
Co375 N392 1.993 . S
Co375 O400 1.941 . S
C376 O377 1.258 . S
C376 O378 1.263 . S
O377 Co374 1.970 . S
O377 C376 1.258 . S
O378 Co375 1.966 . S
O378 C376 1.263 . S
C379 O380 1.235 . S
C379 O406 1.289 . S
O380 C379 1.235 . S
C381 C383 1.400 . S
C381 N384 1.351 . S
C381 C386 1.501 . S
C382 C383 1.387 . S
C382 N385 1.341 . S
C383 C381 1.400 . S
C383 C382 1.387 . S
N384 Co375 2.022 . S
N384 C381 1.351 . S
N384 N385 1.365 . S
N385 C382 1.341 . S
N385 N384 1.365 . S
N385 H405 0.862 . S
C386 C381 1.501 . S
C386 H387 0.961 . S
C386 H388 0.961 . S
C386 H389 0.960 . S
H387 C386 0.961 . S
H388 C386 0.961 . S
H389 C386 0.960 . S
C390 N391 1.342 . S
C390 C394 1.401 . S
C390 C395 1.499 . S
N391 Co374 1.989 . S
N391 C390 1.342 . S
N391 N392 1.388 . S
N392 Co375 1.993 . S
N392 N391 1.388 . S
N392 C393 1.346 . S
C393 N392 1.346 . S
C393 C394 1.396 . S
C393 C403 1.510 . S
C394 C390 1.401 . S
C394 C393 1.396 . S
C395 C390 1.499 . S
C395 H396 0.959 . S
C395 H397 0.960 . S
C395 H398 0.961 . S
H396 C395 0.959 . S
H397 C395 0.960 . S
H398 C395 0.961 . S
O399 Co374 1.967 . S
O399 C407 1.258 . S
O400 Co375 1.941 . S
O400 C407 1.266 . S
H401 C403 0.959 . S
H402 C403 0.961 . S
C403 C393 1.510 . S
C403 H401 0.959 . S
C403 H402 0.961 . S
C403 H404 0.960 . S
H404 C403 0.960 . S
H405 N385 0.862 . S
O406 Co374 1.920 . S
O406 C379 1.289 . S
C407 O399 1.258 . S
C407 O400 1.266 . S
H408 C420 0.930 . S
H409 C422 0.930 . S
H410 C423 0.930 . S
H411 C427 0.959 . S
H412 C427 0.959 . S
H413 C427 0.961 . S
H414 C428 0.960 . S
H415 C428 0.961 . S
H416 C428 0.959 . S
H417 C431 0.929 . S
H418 C432 0.931 . S
H419 C434 0.930 . S
C420 H408 0.930 . S
C420 C421 1.399 . S
C420 C425 1.399 . S
C421 C420 1.399 . S
C421 C422 1.376 . S
C422 H409 0.930 . S
C422 C421 1.376 . S
C422 C423 1.388 . S
C423 H410 0.930 . S
C423 C422 1.388 . S
C423 C424 1.390 . S
C424 C423 1.390 . S
C424 C425 1.394 . S
C424 C430 1.465 . S
C425 C420 1.399 . S
C425 C424 1.394 . S
C425 C426 1.516 . S
C426 C425 1.516 . S
C426 C427 1.502 . S
C426 C428 1.561 1_554 S
C426 C429 1.526 . S
C427 H411 0.959 . S
C427 H412 0.959 . S
C427 H413 0.961 . S
C427 C426 1.502 . S
C428 H414 0.960 . S
C428 H415 0.961 . S
C428 H416 0.959 . S
C428 C426 1.561 1_556 S
C429 C426 1.526 . S
C429 C430 1.396 . S
C429 C434 1.390 . S
C430 C424 1.465 . S
C430 C429 1.396 . S
C430 C431 1.399 . S
C431 H417 0.929 . S
C431 C430 1.399 . S
C431 C432 1.385 . S
C432 H418 0.931 . S
C432 C431 1.385 . S
C432 C433 1.389 . S
C433 C432 1.389 . S
C433 C434 1.387 . S
C434 H419 0.930 . S
C434 C429 1.390 . S
C434 C433 1.387 . S
H435 C447 0.930 . S
H436 C449 0.930 . S
H437 C450 0.930 . S
H438 C454 0.959 . S
H439 C454 0.959 . S
H440 C454 0.961 . S
H441 C455 0.960 . S
H442 C455 0.961 . S
H443 C455 0.959 . S
H444 C458 0.929 . S
H445 C459 0.931 . S
H446 C461 0.930 . S
C447 H435 0.930 . S
C447 C448 1.399 . S
C447 C452 1.399 . S
C448 C447 1.399 . S
C448 C449 1.376 . S
C449 H436 0.930 . S
C449 C448 1.376 . S
C449 C450 1.388 . S
C450 H437 0.930 . S
C450 C449 1.388 . S
C450 C451 1.390 . S
C451 C450 1.390 . S
C451 C452 1.394 . S
C451 C457 1.465 . S
C452 C447 1.399 . S
C452 C451 1.394 . S
C452 C453 1.516 . S
C453 C452 1.516 . S
C453 C454 1.502 . S
C453 C455 1.561 . S
C453 C456 1.526 . S
C454 H438 0.959 . S
C454 H439 0.959 . S
C454 H440 0.961 . S
C454 C453 1.502 . S
C455 H441 0.960 . S
C455 H442 0.961 . S
C455 H443 0.959 . S
C455 C453 1.561 . S
C456 C453 1.526 . S
C456 C457 1.396 . S
C456 C461 1.390 . S
C457 C451 1.465 . S
C457 C456 1.396 . S
C457 C458 1.399 . S
C458 H444 0.929 . S
C458 C457 1.399 . S
C458 C459 1.385 . S
C459 H445 0.931 . S
C459 C458 1.385 . S
C459 C460 1.389 . S
C460 C459 1.389 . S
C460 C461 1.387 . S
C461 H446 0.930 . S
C461 C456 1.390 . S
C461 C460 1.387 . S
H462 C474 0.930 . S
H463 C476 0.930 . S
H464 C477 0.930 . S
H465 C481 0.959 . S
H466 C481 0.959 . S
H467 C481 0.961 . S
H468 C482 0.960 . S
H469 C482 0.961 . S
H470 C482 0.959 . S
H471 C485 0.929 . S
H472 C486 0.931 . S
H473 C488 0.930 . S
C474 H462 0.930 . S
C474 C475 1.399 . S
C474 C479 1.399 . S
C475 C474 1.399 . S
C475 C476 1.376 . S
C476 H463 0.930 . S
C476 C475 1.376 . S
C476 C477 1.388 . S
C477 H464 0.930 . S
C477 C476 1.388 . S
C477 C478 1.390 . S
C478 C477 1.390 . S
C478 C479 1.394 . S
C478 C484 1.465 . S
C479 C474 1.399 . S
C479 C478 1.394 . S
C479 C480 1.516 . S
C480 C479 1.516 . S
C480 C481 1.502 . S
C480 C482 1.561 . S
C480 C483 1.526 . S
C481 H465 0.959 . S
C481 H466 0.959 . S
C481 H467 0.961 . S
C481 C480 1.502 . S
C482 H468 0.960 . S
C482 H469 0.961 . S
C482 H470 0.959 . S
C482 C480 1.561 . S
C483 C480 1.526 . S
C483 C484 1.396 . S
C483 C488 1.390 . S
C484 C478 1.465 . S
C484 C483 1.396 . S
C484 C485 1.399 . S
C485 H471 0.929 . S
C485 C484 1.399 . S
C485 C486 1.385 . S
C486 H472 0.931 . S
C486 C485 1.385 . S
C486 C487 1.389 . S
C487 C486 1.389 . S
C487 C488 1.387 . S
C488 H473 0.930 . S
C488 C483 1.390 . S
C488 C487 1.387 . S
H489 C501 0.930 . S
H490 C503 0.930 . S
H491 C504 0.930 . S
H492 C508 0.959 . S
H493 C508 0.959 . S
H494 C508 0.961 . S
H495 C509 0.960 . S
H496 C509 0.961 . S
H497 C509 0.959 . S
H498 C512 0.929 . S
H499 C513 0.931 . S
H500 C515 0.930 . S
C501 H489 0.930 . S
C501 C502 1.399 . S
C501 C506 1.399 . S
C502 C501 1.399 . S
C502 C503 1.376 . S
C503 H490 0.930 . S
C503 C502 1.376 . S
C503 C504 1.388 . S
C504 H491 0.930 . S
C504 C503 1.388 . S
C504 C505 1.390 . S
C505 C504 1.390 . S
C505 C506 1.394 . S
C505 C511 1.465 . S
C506 C501 1.399 . S
C506 C505 1.394 . S
C506 C507 1.516 . S
C507 C506 1.516 . S
C507 C508 1.502 . S
C507 C509 1.561 . S
C507 C510 1.526 . S
C508 H492 0.959 . S
C508 H493 0.959 . S
C508 H494 0.961 . S
C508 C507 1.502 . S
C509 H495 0.960 . S
C509 H496 0.961 . S
C509 H497 0.959 . S
C509 C507 1.561 . S
C510 C507 1.526 . S
C510 C511 1.396 . S
C510 C515 1.390 . S
C511 C505 1.465 . S
C511 C510 1.396 . S
C511 C512 1.399 . S
C512 H498 0.929 . S
C512 C511 1.399 . S
C512 C513 1.385 . S
C513 H499 0.931 . S
C513 C512 1.385 . S
C513 C514 1.389 . S
C514 C513 1.389 . S
C514 C515 1.387 . S
C515 H500 0.930 . S
C515 C510 1.390 . S
C515 C514 1.387 . S
H516 C528 0.930 . S
H517 C530 0.930 . S
H518 C531 0.930 . S
H519 C535 0.959 . S
H520 C535 0.959 . S
H521 C535 0.961 . S
H522 C536 0.960 . S
H523 C536 0.961 . S
H524 C536 0.959 . S
H525 C539 0.929 . S
H526 C540 0.931 . S
H527 C542 0.930 . S
C528 H516 0.930 . S
C528 C529 1.399 . S
C528 C533 1.399 . S
C529 C528 1.399 . S
C529 C530 1.376 . S
C530 H517 0.930 . S
C530 C529 1.376 . S
C530 C531 1.388 . S
C531 H518 0.930 . S
C531 C530 1.388 . S
C531 C532 1.390 . S
C532 C531 1.390 . S
C532 C533 1.394 . S
C532 C538 1.465 . S
C533 C528 1.399 . S
C533 C532 1.394 . S
C533 C534 1.516 . S
C534 C533 1.516 . S
C534 C535 1.502 . S
C534 C536 1.561 . S
C534 C537 1.526 . S
C535 H519 0.959 . S
C535 H520 0.959 . S
C535 H521 0.961 . S
C535 C534 1.502 . S
C536 H522 0.960 . S
C536 H523 0.961 . S
C536 H524 0.959 . S
C536 C534 1.561 . S
C537 C534 1.526 . S
C537 C538 1.396 . S
C537 C542 1.390 . S
C538 C532 1.465 . S
C538 C537 1.396 . S
C538 C539 1.399 . S
C539 H525 0.929 . S
C539 C538 1.399 . S
C539 C540 1.385 . S
C540 H526 0.931 . S
C540 C539 1.385 . S
C540 C541 1.389 . S
C541 C540 1.389 . S
C541 C542 1.387 . S
C542 H527 0.930 . S
C542 C537 1.390 . S
C542 C541 1.387 . S
H543 C555 0.930 . S
H544 C557 0.930 1_554 S
H545 C558 0.931 . S
H546 C562 0.959 . S
H547 C562 0.959 . S
H548 C562 0.961 . S
H549 C563 0.960 . S
H550 C563 0.961 . S
H551 C563 0.959 . S
H552 C566 0.929 1_554 S
H553 C567 0.931 1_554 S
H554 C569 0.930 . S
C555 H543 0.930 . S
C555 C556 1.399 . S
C555 C560 1.399 . S
C556 C555 1.399 . S
C556 C557 1.376 . S
C557 H544 0.930 1_556 S
C557 C556 1.376 . S
C557 C558 1.388 1_556 S
C558 H545 0.931 . S
C558 C557 1.388 1_554 S
C558 C559 1.389 1_554 S
C559 C558 1.389 1_556 S
C559 C560 1.394 . S
C559 C565 1.465 . S
C560 C555 1.399 . S
C560 C559 1.394 . S
C560 C561 1.516 . S
C561 C560 1.516 . S
C561 C562 1.502 . S
C561 C563 1.561 . S
C561 C564 1.526 . S
C562 H546 0.959 . S
C562 H547 0.959 . S
C562 H548 0.961 . S
C562 C561 1.502 . S
C563 H549 0.960 . S
C563 H550 0.961 . S
C563 H551 0.959 . S
C563 C561 1.561 . S
C564 C561 1.526 . S
C564 C565 1.396 . S
C564 C569 1.390 . S
C565 C559 1.465 . S
C565 C564 1.396 . S
C565 C566 1.399 . S
C566 H552 0.929 1_556 S
C566 C565 1.399 . S
C566 C567 1.385 . S
C567 H553 0.931 1_556 S
C567 C566 1.385 . S
C567 C568 1.389 . S
C568 C567 1.389 . S
C568 C569 1.387 . S
C569 H554 0.930 . S
C569 C564 1.390 . S
C569 C568 1.387 . S
H570 C582 0.930 . S
H571 C584 0.930 . S
H572 C585 0.930 . S
H573 C589 0.959 . S
H574 C589 0.959 . S
H575 C589 0.958 1_455 S
H576 C590 0.960 . S
H577 C590 0.961 . S
H578 C590 0.959 . S
H579 C593 0.929 . S
H580 C594 0.931 . S
H581 C596 0.930 . S
C582 H570 0.930 . S
C582 C583 1.399 . S
C582 C587 1.399 . S
C583 C582 1.399 . S
C583 C584 1.376 . S
C584 H571 0.930 . S
C584 C583 1.376 . S
C584 C585 1.388 . S
C585 H572 0.930 . S
C585 C584 1.388 . S
C585 C586 1.390 . S
C586 C585 1.390 . S
C586 C587 1.394 . S
C586 C592 1.465 1_455 S
C587 C582 1.399 . S
C587 C586 1.394 . S
C587 C588 1.516 . S
C588 C587 1.516 . S
C588 C589 1.502 1_455 S
C588 C590 1.561 . S
C588 C591 1.526 1_455 S
C589 H573 0.959 . S
C589 H574 0.959 . S
C589 H575 0.958 1_655 S
C589 C588 1.502 1_655 S
C590 H576 0.960 . S
C590 H577 0.961 . S
C590 H578 0.959 . S
C590 C588 1.561 . S
C591 C588 1.526 1_655 S
C591 C592 1.396 . S
C591 C596 1.390 . S
C592 C586 1.465 1_655 S
C592 C591 1.396 . S
C592 C593 1.399 . S
C593 H579 0.929 . S
C593 C592 1.399 . S
C593 C594 1.385 . S
C594 H580 0.931 . S
C594 C593 1.385 . S
C594 C595 1.389 . S
C595 C594 1.389 . S
C595 C596 1.387 . S
C596 H581 0.930 . S
C596 C591 1.390 . S
C596 C595 1.387 . S
H597 C609 0.930 . S
H598 C611 0.930 . S
H599 C612 0.930 . S
H600 C616 0.959 . S
H601 C616 0.959 . S
H602 C616 0.961 . S
H603 C617 0.960 . S
H604 C617 0.961 . S
H605 C617 0.959 . S
H606 C620 0.929 1_556 S
H607 C621 0.931 . S
H608 C623 0.930 . S
C609 H597 0.930 . S
C609 C610 1.399 . S
C609 C614 1.399 . S
C610 C609 1.399 . S
C610 C611 1.376 . S
C611 H598 0.930 . S
C611 C610 1.376 . S
C611 C612 1.388 1_565 S
C612 H599 0.930 . S
C612 C611 1.388 1_545 S
C612 C613 1.390 . S
C613 C612 1.390 . S
C613 C614 1.391 1_545 S
C613 C619 1.467 1_556 S
C614 C609 1.399 . S
C614 C613 1.391 1_565 S
C614 C615 1.516 1_556 S
C615 C614 1.516 1_554 S
C615 C616 1.502 . S
C615 C617 1.561 . S
C615 C618 1.526 1_565 S
C616 H600 0.959 . S
C616 H601 0.959 . S
C616 H602 0.961 . S
C616 C615 1.502 . S
C617 H603 0.960 . S
C617 H604 0.961 . S
C617 H605 0.959 . S
C617 C615 1.561 . S
C618 C615 1.526 1_545 S
C618 C619 1.396 . S
C618 C623 1.390 . S
C619 C613 1.467 1_554 S
C619 C618 1.396 . S
C619 C620 1.399 . S
C620 H606 0.929 1_554 S
C620 C619 1.399 . S
C620 C621 1.385 . S
C621 H607 0.931 . S
C621 C620 1.385 . S
C621 C622 1.389 . S
C622 C621 1.389 . S
C622 C623 1.387 . S
C623 H608 0.930 . S
C623 C618 1.390 . S
C623 C622 1.387 . S
H624 C636 0.930 . S
H625 C638 0.930 . S
H626 C639 0.930 . S
H627 C643 0.959 . S
H628 C643 0.959 . S
H629 C643 0.961 . S
H630 C644 0.960 . S
H631 C644 0.961 . S
H632 C644 0.959 . S
H633 C647 0.929 . S
H634 C648 0.931 . S
H635 C650 0.930 1_556 S
C636 H624 0.930 . S
C636 C637 1.399 . S
C636 C641 1.399 . S
C637 C636 1.399 . S
C637 C638 1.376 . S
C638 H625 0.930 . S
C638 C637 1.376 . S
C638 C639 1.388 . S
C639 H626 0.930 . S
C639 C638 1.388 . S
C639 C640 1.390 . S
C640 C639 1.390 . S
C640 C641 1.394 . S
C640 C646 1.465 . S
C641 C636 1.399 . S
C641 C640 1.394 . S
C641 C642 1.516 . S
C642 C641 1.516 . S
C642 C643 1.502 . S
C642 C644 1.561 . S
C642 C645 1.526 . S
C643 H627 0.959 . S
C643 H628 0.959 . S
C643 H629 0.961 . S
C643 C642 1.502 . S
C644 H630 0.960 . S
C644 H631 0.961 . S
C644 H632 0.959 . S
C644 C642 1.561 . S
C645 C642 1.526 . S
C645 C646 1.396 . S
C645 C650 1.390 . S
C646 C640 1.465 . S
C646 C645 1.396 . S
C646 C647 1.399 . S
C647 H633 0.929 . S
C647 C646 1.399 . S
C647 C648 1.385 . S
C648 H634 0.931 . S
C648 C647 1.385 . S
C648 C649 1.389 . S
C649 C648 1.389 . S
C649 C650 1.387 . S
C650 H635 0.930 1_554 S
C650 C645 1.390 . S
C650 C649 1.387 . S
H651 C663 0.930 . S
H652 C665 0.930 . S
H653 C666 0.930 . S
H654 C670 0.959 . S
H655 C670 0.959 . S
H656 C670 0.961 . S
H657 C671 0.960 . S
H658 C671 0.961 . S
H659 C671 0.959 . S
H660 C674 0.929 1_655 S
H661 C675 0.931 . S
H662 C677 0.930 . S
C663 H651 0.930 . S
C663 C664 1.399 . S
C663 C668 1.399 . S
C664 C663 1.399 . S
C664 C665 1.376 . S
C665 H652 0.930 . S
C665 C664 1.376 . S
C665 C666 1.388 . S
C666 H653 0.930 . S
C666 C665 1.388 . S
C666 C667 1.390 . S
C667 C666 1.390 . S
C667 C668 1.394 . S
C667 C673 1.465 1_655 S
C668 C663 1.399 . S
C668 C667 1.394 . S
C668 C669 1.516 1_655 S
C669 C668 1.516 1_455 S
C669 C670 1.502 . S
C669 C671 1.561 . S
C669 C672 1.526 . S
C670 H654 0.959 . S
C670 H655 0.959 . S
C670 H656 0.961 . S
C670 C669 1.502 . S
C671 H657 0.960 . S
C671 H658 0.961 . S
C671 H659 0.959 . S
C671 C669 1.561 . S
C672 C669 1.526 . S
C672 C673 1.396 . S
C672 C677 1.390 . S
C673 C667 1.465 1_455 S
C673 C672 1.396 . S
C673 C674 1.399 . S
C674 H660 0.929 1_455 S
C674 C673 1.399 . S
C674 C675 1.385 . S
C675 H661 0.931 . S
C675 C674 1.385 . S
C675 C676 1.389 . S
C676 C675 1.389 . S
C676 C677 1.387 . S
C677 H662 0.930 . S
C677 C672 1.390 . S
C677 C676 1.387 . S
H678 C690 0.930 . S
H679 C692 0.930 . S
H680 C693 0.930 1_565 S
H681 C697 0.959 1_565 S
H682 C697 0.959 . S
H683 C697 0.961 . S
H684 C698 0.960 . S
H685 C698 0.961 . S
H686 C698 0.959 . S
H687 C701 0.929 . S
H688 C702 0.931 . S
H689 C704 0.930 . S
C690 H678 0.930 . S
C690 C691 1.399 . S
C690 C695 1.399 . S
C691 C690 1.399 . S
C691 C692 1.376 . S
C692 H679 0.930 . S
C692 C691 1.376 . S
C692 C693 1.388 . S
C693 H680 0.930 1_545 S
C693 C692 1.388 . S
C693 C694 1.390 . S
C694 C693 1.390 . S
C694 C695 1.394 . S
C694 C700 1.465 1_545 S
C695 C690 1.399 . S
C695 C694 1.394 . S
C695 C696 1.516 . S
C696 C695 1.516 . S
C696 C697 1.502 . S
C696 C698 1.561 . S
C696 C699 1.526 1_545 S
C697 H681 0.959 1_545 S
C697 H682 0.959 . S
C697 H683 0.961 . S
C697 C696 1.502 . S
C698 H684 0.960 . S
C698 H685 0.961 . S
C698 H686 0.959 . S
C698 C696 1.561 . S
C699 C696 1.526 1_565 S
C699 C700 1.396 . S
C699 C704 1.390 . S
C700 C694 1.465 1_565 S
C700 C699 1.396 . S
C700 C701 1.399 . S
C701 H687 0.929 . S
C701 C700 1.399 . S
C701 C702 1.385 . S
C702 H688 0.931 . S
C702 C701 1.385 . S
C702 C703 1.389 . S
C703 C702 1.389 . S
C703 C704 1.387 . S
C704 H689 0.930 . S
C704 C699 1.390 . S
C704 C703 1.387 . S
H705 C717 0.930 . S
H706 C719 0.930 . S
H707 C720 0.930 . S
H708 C724 0.959 . S
H709 C724 0.959 . S
H710 C724 0.961 . S
H711 C725 0.960 . S
H712 C725 0.961 . S
H713 C725 0.959 . S
H714 C728 0.929 . S
H715 C729 0.931 . S
H716 C731 0.930 . S
C717 H705 0.930 . S
C717 C718 1.399 . S
C717 C722 1.399 . S
C718 C717 1.399 . S
C718 C719 1.376 . S
C719 H706 0.930 . S
C719 C718 1.376 . S
C719 C720 1.388 . S
C720 H707 0.930 . S
C720 C719 1.388 . S
C720 C721 1.390 . S
C721 C720 1.390 . S
C721 C722 1.394 . S
C721 C727 1.465 . S
C722 C717 1.399 . S
C722 C721 1.394 . S
C722 C723 1.516 . S
C723 C722 1.516 . S
C723 C724 1.502 . S
C723 C725 1.561 . S
C723 C726 1.526 . S
C724 H708 0.959 . S
C724 H709 0.959 . S
C724 H710 0.961 . S
C724 C723 1.502 . S
C725 H711 0.960 . S
C725 H712 0.961 . S
C725 H713 0.959 . S
C725 C723 1.561 . S
C726 C723 1.526 . S
C726 C727 1.396 . S
C726 C731 1.390 . S
C727 C721 1.465 . S
C727 C726 1.396 . S
C727 C728 1.399 . S
C728 H714 0.929 . S
C728 C727 1.399 . S
C728 C729 1.385 . S
C729 H715 0.931 . S
C729 C728 1.385 . S
C729 C730 1.389 . S
C730 C729 1.389 . S
C730 C731 1.387 . S
C731 H716 0.930 . S
C731 C726 1.390 . S
C731 C730 1.387 . S
H732 C744 0.930 . S
H733 C746 0.930 . S
H734 C747 0.930 . S
H735 C751 0.959 . S
H736 C751 0.959 . S
H737 C751 0.961 . S
H738 C752 0.960 . S
H739 C752 0.961 . S
H740 C752 0.959 . S
H741 C755 0.929 . S
H742 C756 0.931 . S
H743 C758 0.930 . S
C744 H732 0.930 . S
C744 C745 1.399 . S
C744 C749 1.399 . S
C745 C744 1.399 . S
C745 C746 1.376 . S
C746 H733 0.930 . S
C746 C745 1.376 . S
C746 C747 1.388 . S
C747 H734 0.930 . S
C747 C746 1.388 . S
C747 C748 1.390 . S
C748 C747 1.390 . S
C748 C749 1.394 . S
C748 C754 1.465 . S
C749 C744 1.399 . S
C749 C748 1.394 . S
C749 C750 1.516 . S
C750 C749 1.516 . S
C750 C751 1.502 . S
C750 C752 1.561 . S
C750 C753 1.526 . S
C751 H735 0.959 . S
C751 H736 0.959 . S
C751 H737 0.961 . S
C751 C750 1.502 . S
C752 H738 0.960 . S
C752 H739 0.961 . S
C752 H740 0.959 . S
C752 C750 1.561 . S
C753 C750 1.526 . S
C753 C754 1.396 . S
C753 C758 1.390 . S
C754 C748 1.465 . S
C754 C753 1.396 . S
C754 C755 1.399 . S
C755 H741 0.929 . S
C755 C754 1.399 . S
C755 C756 1.385 . S
C756 H742 0.931 . S
C756 C755 1.385 . S
C756 C757 1.389 . S
C757 C756 1.389 . S
C757 C758 1.387 . S
C758 H743 0.930 . S
C758 C753 1.390 . S
C758 C757 1.387 . S
H759 C771 0.930 . S
H760 C773 0.930 . S
H761 C774 0.930 . S
H762 C778 0.959 . S
H763 C778 0.959 . S
H764 C778 0.961 . S
H765 C779 0.960 . S
H766 C779 0.961 . S
H767 C779 0.959 . S
H768 C782 0.929 . S
H769 C783 0.931 . S
H770 C785 0.930 . S
C771 H759 0.930 . S
C771 C772 1.399 . S
C771 C776 1.399 . S
C772 C771 1.399 . S
C772 C773 1.376 . S
C773 H760 0.930 . S
C773 C772 1.376 . S
C773 C774 1.388 . S
C774 H761 0.930 . S
C774 C773 1.388 . S
C774 C775 1.390 . S
C775 C774 1.390 . S
C775 C776 1.394 . S
C775 C781 1.465 . S
C776 C771 1.399 . S
C776 C775 1.394 . S
C776 C777 1.516 . S
C777 C776 1.516 . S
C777 C778 1.502 . S
C777 C779 1.561 . S
C777 C780 1.526 . S
C778 H762 0.959 . S
C778 H763 0.959 . S
C778 H764 0.961 . S
C778 C777 1.502 . S
C779 H765 0.960 . S
C779 H766 0.961 . S
C779 H767 0.959 . S
C779 C777 1.561 . S
C780 C777 1.526 . S
C780 C781 1.396 . S
C780 C785 1.390 . S
C781 C775 1.465 . S
C781 C780 1.396 . S
C781 C782 1.399 . S
C782 H768 0.929 . S
C782 C781 1.399 . S
C782 C783 1.385 . S
C783 H769 0.931 . S
C783 C782 1.385 . S
C783 C784 1.389 . S
C784 C783 1.389 . S
C784 C785 1.387 . S
C785 H770 0.930 . S
C785 C780 1.390 . S
C785 C784 1.387 . S
H786 C798 0.930 . S
H787 C800 0.930 . S
H788 C801 0.930 . S
H789 C805 0.959 . S
H790 C805 0.959 . S
H791 C805 0.961 . S
H792 C806 0.960 . S
H793 C806 0.961 . S
H794 C806 0.959 . S
H795 C809 0.929 . S
H796 C810 0.931 . S
H797 C812 0.930 . S
C798 H786 0.930 . S
C798 C799 1.399 . S
C798 C803 1.399 . S
C799 C798 1.399 . S
C799 C800 1.376 . S
C800 H787 0.930 . S
C800 C799 1.376 . S
C800 C801 1.388 . S
C801 H788 0.930 . S
C801 C800 1.388 . S
C801 C802 1.390 . S
C802 C801 1.390 . S
C802 C803 1.394 . S
C802 C808 1.465 . S
C803 C798 1.399 . S
C803 C802 1.394 . S
C803 C804 1.516 . S
C804 C803 1.516 . S
C804 C805 1.502 . S
C804 C806 1.561 . S
C804 C807 1.526 . S
C805 H789 0.959 . S
C805 H790 0.959 . S
C805 H791 0.961 . S
C805 C804 1.502 . S
C806 H792 0.960 . S
C806 H793 0.961 . S
C806 H794 0.959 . S
C806 C804 1.561 . S
C807 C804 1.526 . S
C807 C808 1.396 . S
C807 C812 1.390 . S
C808 C802 1.465 . S
C808 C807 1.396 . S
C808 C809 1.399 . S
C809 H795 0.929 . S
C809 C808 1.399 . S
C809 C810 1.385 . S
C810 H796 0.931 . S
C810 C809 1.385 . S
C810 C811 1.389 . S
C811 C810 1.389 . S
C811 C812 1.387 . S
C812 H797 0.930 . S
C812 C807 1.390 . S
C812 C811 1.387 . S
H813 C825 0.930 . S
H814 C827 0.930 . S
H815 C828 0.930 . S
H816 C832 0.959 . S
H817 C832 0.959 . S
H818 C832 0.961 . S
H819 C833 0.960 . S
H820 C833 0.961 . S
H821 C833 0.959 . S
H822 C836 0.929 . S
H823 C837 0.931 . S
H824 C839 0.930 . S
C825 H813 0.930 . S
C825 C826 1.399 . S
C825 C830 1.399 . S
C826 C825 1.399 . S
C826 C827 1.376 . S
C827 H814 0.930 . S
C827 C826 1.376 . S
C827 C828 1.388 . S
C828 H815 0.930 . S
C828 C827 1.388 . S
C828 C829 1.390 . S
C829 C828 1.390 . S
C829 C830 1.394 . S
C829 C835 1.465 . S
C830 C825 1.399 . S
C830 C829 1.394 . S
C830 C831 1.516 . S
C831 C830 1.516 . S
C831 C832 1.502 . S
C831 C833 1.561 . S
C831 C834 1.526 . S
C832 H816 0.959 . S
C832 H817 0.959 . S
C832 H818 0.961 . S
C832 C831 1.502 . S
C833 H819 0.960 . S
C833 H820 0.961 . S
C833 H821 0.959 . S
C833 C831 1.561 . S
C834 C831 1.526 . S
C834 C835 1.396 . S
C834 C839 1.390 . S
C835 C829 1.465 . S
C835 C834 1.396 . S
C835 C836 1.399 . S
C836 H822 0.929 . S
C836 C835 1.399 . S
C836 C837 1.385 . S
C837 H823 0.931 . S
C837 C836 1.385 . S
C837 C838 1.389 . S
C838 C837 1.389 . S
C838 C839 1.387 . S
C839 H824 0.930 . S
C839 C834 1.390 . S
C839 C838 1.387 . S
H840 C852 0.930 . S
H841 C854 0.930 . S
H842 C855 0.930 . S
H843 C859 0.959 . S
H844 C859 0.959 . S
H845 C859 0.961 . S
H846 C860 0.960 . S
H847 C860 0.961 . S
H848 C860 0.959 . S
H849 C863 0.929 . S
H850 C864 0.931 . S
H851 C866 0.930 . S
C852 H840 0.930 . S
C852 C853 1.399 . S
C852 C857 1.399 . S
C853 C852 1.399 . S
C853 C854 1.376 . S
C854 H841 0.930 . S
C854 C853 1.376 . S
C854 C855 1.388 . S
C855 H842 0.930 . S
C855 C854 1.388 . S
C855 C856 1.390 . S
C856 C855 1.390 . S
C856 C857 1.394 . S
C856 C862 1.465 . S
C857 C852 1.399 . S
C857 C856 1.394 . S
C857 C858 1.516 . S
C858 C857 1.516 . S
C858 C859 1.502 . S
C858 C860 1.561 . S
C858 C861 1.526 . S
C859 H843 0.959 . S
C859 H844 0.959 . S
C859 H845 0.961 . S
C859 C858 1.502 . S
C860 H846 0.960 . S
C860 H847 0.961 . S
C860 H848 0.959 . S
C860 C858 1.561 . S
C861 C858 1.526 . S
C861 C862 1.396 . S
C861 C866 1.390 . S
C862 C856 1.465 . S
C862 C861 1.396 . S
C862 C863 1.399 1_556 S
C863 H849 0.929 . S
C863 C862 1.399 1_554 S
C863 C864 1.385 . S
C864 H850 0.931 . S
C864 C863 1.385 . S
C864 C865 1.389 . S
C865 C864 1.389 . S
C865 C866 1.387 1_554 S
C866 H851 0.930 . S
C866 C861 1.390 . S
C866 C865 1.387 1_556 S
H867 C879 0.930 . S
H868 C881 0.930 . S
H869 C882 0.930 . S
H870 C886 0.959 . S
H871 C886 0.959 . S
H872 C886 0.961 . S
H873 C887 0.960 . S
H874 C887 0.961 . S
H875 C887 0.959 1_554 S
H876 C890 0.929 . S
H877 C891 0.931 . S
H878 C893 0.930 . S
C879 H867 0.930 . S
C879 C880 1.399 . S
C879 C884 1.399 . S
C880 C879 1.399 . S
C880 C881 1.376 . S
C881 H868 0.930 . S
C881 C880 1.376 . S
C881 C882 1.388 . S
C882 H869 0.930 . S
C882 C881 1.388 . S
C882 C883 1.390 . S
C883 C882 1.390 . S
C883 C884 1.394 . S
C883 C889 1.465 . S
C884 C879 1.399 . S
C884 C883 1.394 . S
C884 C885 1.516 . S
C885 C884 1.516 . S
C885 C886 1.502 1_554 S
C885 C887 1.561 1_554 S
C885 C888 1.526 . S
C886 H870 0.959 . S
C886 H871 0.959 . S
C886 H872 0.961 . S
C886 C885 1.502 1_556 S
C887 H873 0.960 . S
C887 H874 0.961 . S
C887 H875 0.959 1_556 S
C887 C885 1.561 1_556 S
C888 C885 1.526 . S
C888 C889 1.396 . S
C888 C893 1.390 1_554 S
C889 C883 1.465 . S
C889 C888 1.396 . S
C889 C890 1.399 . S
C890 H876 0.929 . S
C890 C889 1.399 . S
C890 C891 1.385 . S
C891 H877 0.931 . S
C891 C890 1.385 . S
C891 C892 1.389 1_554 S
C892 C891 1.389 1_556 S
C892 C893 1.387 . S
C893 H878 0.930 . S
C893 C888 1.390 1_556 S
C893 C892 1.387 . S
H894 C906 0.930 . S
H895 C908 0.930 . S
H896 C909 0.930 . S
H897 C913 0.959 . S
H898 C913 0.959 . S
H899 C913 0.961 . S
H900 C914 0.960 . S
H901 C914 0.961 . S
H902 C914 0.959 . S
H903 C917 0.929 . S
H904 C918 0.931 . S
H905 C920 0.930 . S
C906 H894 0.930 . S
C906 C907 1.399 . S
C906 C911 1.399 . S
C907 C906 1.399 . S
C907 C908 1.376 . S
C908 H895 0.930 . S
C908 C907 1.376 . S
C908 C909 1.388 . S
C909 H896 0.930 . S
C909 C908 1.388 . S
C909 C910 1.390 . S
C910 C909 1.390 . S
C910 C911 1.394 . S
C910 C916 1.465 . S
C911 C906 1.399 . S
C911 C910 1.394 . S
C911 C912 1.516 . S
C912 C911 1.516 . S
C912 C913 1.502 . S
C912 C914 1.561 . S
C912 C915 1.526 . S
C913 H897 0.959 . S
C913 H898 0.959 . S
C913 H899 0.961 . S
C913 C912 1.502 . S
C914 H900 0.960 . S
C914 H901 0.961 . S
C914 H902 0.959 . S
C914 C912 1.561 . S
C915 C912 1.526 . S
C915 C916 1.396 . S
C915 C920 1.390 . S
C916 C910 1.465 . S
C916 C915 1.396 . S
C916 C917 1.399 . S
C917 H903 0.929 . S
C917 C916 1.399 . S
C917 C918 1.385 . S
C918 H904 0.931 . S
C918 C917 1.385 . S
C918 C919 1.389 . S
C919 C918 1.389 . S
C919 C920 1.387 . S
C920 H905 0.930 . S
C920 C915 1.390 . S
C920 C919 1.387 . S
H921 C933 0.930 . S
H922 C935 0.930 1_554 S
H923 C936 0.930 . S
H924 C940 0.959 . S
H925 C940 0.959 . S
H926 C940 0.961 . S
H927 C941 0.960 . S
H928 C941 0.961 . S
H929 C941 0.959 . S
H930 C944 0.929 . S
H931 C945 0.931 . S
H932 C947 0.930 . S
C933 H921 0.930 . S
C933 C934 1.399 . S
C933 C938 1.399 . S
C934 C933 1.399 . S
C934 C935 1.376 . S
C935 H922 0.930 1_556 S
C935 C934 1.376 . S
C935 C936 1.388 . S
C936 H923 0.930 . S
C936 C935 1.388 . S
C936 C937 1.390 . S
C937 C936 1.390 . S
C937 C938 1.394 . S
C937 C943 1.465 . S
C938 C933 1.399 . S
C938 C937 1.394 . S
C938 C939 1.516 . S
C939 C938 1.516 . S
C939 C940 1.502 . S
C939 C941 1.561 . S
C939 C942 1.526 . S
C940 H924 0.959 . S
C940 H925 0.959 . S
C940 H926 0.961 . S
C940 C939 1.502 . S
C941 H927 0.960 . S
C941 H928 0.961 . S
C941 H929 0.959 . S
C941 C939 1.561 . S
C942 C939 1.526 . S
C942 C943 1.396 . S
C942 C947 1.390 . S
C943 C937 1.465 . S
C943 C942 1.396 . S
C943 C944 1.399 . S
C944 H930 0.929 . S
C944 C943 1.399 . S
C944 C945 1.385 . S
C945 H931 0.931 . S
C945 C944 1.385 . S
C945 C946 1.389 . S
C946 C945 1.389 . S
C946 C947 1.387 . S
C947 H932 0.930 . S
C947 C942 1.390 . S
C947 C946 1.387 . S
H948 C960 0.930 . S
H949 C962 0.930 . S
H950 C963 0.930 . S
H951 C967 0.959 . S
H952 C967 0.959 1_554 S
H953 C967 0.961 . S
H954 C968 0.960 . S
H955 C968 0.961 . S
H956 C968 0.959 . S
H957 C971 0.929 1_556 S
H958 C972 0.931 . S
H959 C974 0.930 . S
C960 H948 0.930 . S
C960 C961 1.399 . S
C960 C965 1.399 . S
C961 C960 1.399 . S
C961 C962 1.376 . S
C962 H949 0.930 . S
C962 C961 1.376 . S
C962 C963 1.388 . S
C963 H950 0.930 . S
C963 C962 1.388 . S
C963 C964 1.390 . S
C964 C963 1.390 . S
C964 C965 1.394 . S
C964 C970 1.465 . S
C965 C960 1.399 . S
C965 C964 1.394 . S
C965 C966 1.516 . S
C966 C965 1.516 . S
C966 C967 1.502 . S
C966 C968 1.561 . S
C966 C969 1.526 1_556 S
C967 H951 0.959 . S
C967 H952 0.959 1_556 S
C967 H953 0.961 . S
C967 C966 1.502 . S
C968 H954 0.960 . S
C968 H955 0.961 . S
C968 H956 0.959 . S
C968 C966 1.561 . S
C969 C966 1.526 1_554 S
C969 C970 1.396 1_554 S
C969 C974 1.390 . S
C970 C964 1.465 . S
C970 C969 1.396 1_556 S
C970 C971 1.399 1_556 S
C971 H957 0.929 1_554 S
C971 C970 1.399 1_554 S
C971 C972 1.385 . S
C972 H958 0.931 . S
C972 C971 1.385 . S
C972 C973 1.389 . S
C973 C972 1.389 . S
C973 C974 1.387 . S
C974 H959 0.930 . S
C974 C969 1.390 . S
C974 C973 1.387 . S
H975 C987 0.930 . S
H976 C989 0.930 . S
H977 C990 0.930 . S
H978 C994 0.959 . S
H979 C994 0.959 . S
H980 C994 0.961 1_556 S
H981 C995 0.960 . S
H982 C995 0.961 . S
H983 C995 0.959 . S
H984 C998 0.929 . S
H985 C999 0.931 . S
H986 C1001 0.930 . S
C987 H975 0.930 . S
C987 C988 1.399 . S
C987 C992 1.399 1_556 S
C988 C987 1.399 . S
C988 C989 1.376 . S
C989 H976 0.930 . S
C989 C988 1.376 . S
C989 C990 1.388 1_556 S
C990 H977 0.930 . S
C990 C989 1.388 1_554 S
C990 C991 1.390 . S
C991 C990 1.390 . S
C991 C992 1.394 . S
C991 C997 1.465 . S
C992 C987 1.399 1_554 S
C992 C991 1.394 . S
C992 C993 1.516 . S
C993 C992 1.516 . S
C993 C994 1.502 . S
C993 C995 1.561 . S
C993 C996 1.526 . S
C994 H978 0.959 . S
C994 H979 0.959 . S
C994 H980 0.961 1_554 S
C994 C993 1.502 . S
C995 H981 0.960 . S
C995 H982 0.961 . S
C995 H983 0.959 . S
C995 C993 1.561 . S
C996 C993 1.526 . S
C996 C997 1.396 . S
C996 C1001 1.390 . S
C997 C991 1.465 . S
C997 C996 1.396 . S
C997 C998 1.399 . S
C998 H984 0.929 . S
C998 C997 1.399 . S
C998 C999 1.385 . S
C999 H985 0.931 . S
C999 C998 1.385 . S
C999 C1000 1.389 . S
C1000 C999 1.389 . S
C1000 C1001 1.387 . S
C1001 H986 0.930 . S
C1001 C996 1.390 . S
C1001 C1000 1.387 . S
H1002 C1014 0.930 . S
H1003 C1016 0.930 . S
H1004 C1017 0.930 . S
H1005 C1021 0.959 . S
H1006 C1021 0.959 . S
H1007 C1021 0.961 . S
H1008 C1022 0.960 . S
H1009 C1022 0.961 . S
H1010 C1022 0.959 . S
H1011 C1025 0.929 . S
H1012 C1026 0.931 . S
H1013 C1028 0.930 . S
C1014 H1002 0.930 . S
C1014 C1015 1.399 . S
C1014 C1019 1.399 . S
C1015 C1014 1.399 . S
C1015 C1016 1.376 . S
C1016 H1003 0.930 . S
C1016 C1015 1.376 . S
C1016 C1017 1.388 . S
C1017 H1004 0.930 . S
C1017 C1016 1.388 . S
C1017 C1018 1.390 . S
C1018 C1017 1.390 . S
C1018 C1019 1.394 . S
C1018 C1024 1.465 . S
C1019 C1014 1.399 . S
C1019 C1018 1.394 . S
C1019 C1020 1.516 . S
C1020 C1019 1.516 . S
C1020 C1021 1.502 . S
C1020 C1022 1.561 . S
C1020 C1023 1.526 . S
C1021 H1005 0.959 . S
C1021 H1006 0.959 . S
C1021 H1007 0.961 . S
C1021 C1020 1.502 . S
C1022 H1008 0.960 . S
C1022 H1009 0.961 . S
C1022 H1010 0.959 . S
C1022 C1020 1.561 . S
C1023 C1020 1.526 . S
C1023 C1024 1.396 . S
C1023 C1028 1.390 . S
C1024 C1018 1.465 . S
C1024 C1023 1.396 . S
C1024 C1025 1.399 . S
C1025 H1011 0.929 . S
C1025 C1024 1.399 . S
C1025 C1026 1.385 . S
C1026 H1012 0.931 . S
C1026 C1025 1.385 . S
C1026 C1027 1.389 . S
C1027 C1026 1.389 . S
C1027 C1028 1.387 . S
C1028 H1013 0.930 . S
C1028 C1023 1.390 . S
C1028 C1027 1.387 . S
H1029 C1041 0.930 . S
H1030 C1043 0.930 . S
H1031 C1044 0.930 . S
H1032 C1048 0.959 . S
H1033 C1048 0.959 . S
H1034 C1048 0.961 . S
H1035 C1049 0.960 . S
H1036 C1049 0.961 . S
H1037 C1049 0.959 . S
H1038 C1052 0.929 . S
H1039 C1053 0.931 . S
H1040 C1055 0.930 . S
C1041 H1029 0.930 . S
C1041 C1042 1.399 . S
C1041 C1046 1.399 . S
C1042 C1041 1.399 . S
C1042 C1043 1.376 . S
C1043 H1030 0.930 . S
C1043 C1042 1.376 . S
C1043 C1044 1.388 . S
C1044 H1031 0.930 . S
C1044 C1043 1.388 . S
C1044 C1045 1.390 . S
C1045 C1044 1.390 . S
C1045 C1046 1.394 . S
C1045 C1051 1.465 . S
C1046 C1041 1.399 . S
C1046 C1045 1.394 . S
C1046 C1047 1.516 . S
C1047 C1046 1.516 . S
C1047 C1048 1.502 . S
C1047 C1049 1.561 . S
C1047 C1050 1.526 . S
C1048 H1032 0.959 . S
C1048 H1033 0.959 . S
C1048 H1034 0.961 . S
C1048 C1047 1.502 . S
C1049 H1035 0.960 . S
C1049 H1036 0.961 . S
C1049 H1037 0.959 . S
C1049 C1047 1.561 . S
C1050 C1047 1.526 . S
C1050 C1051 1.396 . S
C1050 C1055 1.390 . S
C1051 C1045 1.465 . S
C1051 C1050 1.396 . S
C1051 C1052 1.399 . S
C1052 H1038 0.929 . S
C1052 C1051 1.399 . S
C1052 C1053 1.385 . S
C1053 H1039 0.931 . S
C1053 C1052 1.385 . S
C1053 C1054 1.389 . S
C1054 C1053 1.389 . S
C1054 C1055 1.387 . S
C1055 H1040 0.930 . S
C1055 C1050 1.390 . S
C1055 C1054 1.387 . S
H1056 C1068 0.930 . S
H1057 C1070 0.930 . S
H1058 C1071 0.930 . S
H1059 C1075 0.959 . S
H1060 C1075 0.959 . S
H1061 C1075 0.961 . S
H1062 C1076 0.960 . S
H1063 C1076 0.961 . S
H1064 C1076 0.959 . S
H1065 C1079 0.929 . S
H1066 C1080 0.931 . S
H1067 C1082 0.930 . S
C1068 H1056 0.930 . S
C1068 C1069 1.399 . S
C1068 C1073 1.399 . S
C1069 C1068 1.399 . S
C1069 C1070 1.376 . S
C1070 H1057 0.930 . S
C1070 C1069 1.376 . S
C1070 C1071 1.388 . S
C1071 H1058 0.930 . S
C1071 C1070 1.388 . S
C1071 C1072 1.390 . S
C1072 C1071 1.390 . S
C1072 C1073 1.394 . S
C1072 C1078 1.465 . S
C1073 C1068 1.399 . S
C1073 C1072 1.394 . S
C1073 C1074 1.516 . S
C1074 C1073 1.516 . S
C1074 C1075 1.502 . S
C1074 C1076 1.561 . S
C1074 C1077 1.526 . S
C1075 H1059 0.959 . S
C1075 H1060 0.959 . S
C1075 H1061 0.961 . S
C1075 C1074 1.502 . S
C1076 H1062 0.960 . S
C1076 H1063 0.961 . S
C1076 H1064 0.959 . S
C1076 C1074 1.561 . S
C1077 C1074 1.526 . S
C1077 C1078 1.396 . S
C1077 C1082 1.390 . S
C1078 C1072 1.465 . S
C1078 C1077 1.396 . S
C1078 C1079 1.399 . S
C1079 H1065 0.929 . S
C1079 C1078 1.399 . S
C1079 C1080 1.385 . S
C1080 H1066 0.931 . S
C1080 C1079 1.385 . S
C1080 C1081 1.389 . S
C1081 C1080 1.389 . S
C1081 C1082 1.387 . S
C1082 H1067 0.930 . S
C1082 C1077 1.390 . S
C1082 C1081 1.387 . S
H1083 C1095 0.930 . S
H1084 C1097 0.930 . S
H1085 C1098 0.930 . S
H1086 C1102 0.959 . S
H1087 C1102 0.959 . S
H1088 C1102 0.961 . S
H1089 C1103 0.960 . S
H1090 C1103 0.961 . S
H1091 C1103 0.959 . S
H1092 C1106 0.929 . S
H1093 C1107 0.931 . S
H1094 C1109 0.930 . S
C1095 H1083 0.930 . S
C1095 C1096 1.399 . S
C1095 C1100 1.399 . S
C1096 C1095 1.399 . S
C1096 C1097 1.376 . S
C1097 H1084 0.930 . S
C1097 C1096 1.376 . S
C1097 C1098 1.388 . S
C1098 H1085 0.930 . S
C1098 C1097 1.388 . S
C1098 C1099 1.390 . S
C1099 C1098 1.390 . S
C1099 C1100 1.394 . S
C1099 C1105 1.465 . S
C1100 C1095 1.399 . S
C1100 C1099 1.394 . S
C1100 C1101 1.516 . S
C1101 C1100 1.516 . S
C1101 C1102 1.502 . S
C1101 C1103 1.561 . S
C1101 C1104 1.526 . S
C1102 H1086 0.959 . S
C1102 H1087 0.959 . S
C1102 H1088 0.961 . S
C1102 C1101 1.502 . S
C1103 H1089 0.960 . S
C1103 H1090 0.961 . S
C1103 H1091 0.959 . S
C1103 C1101 1.561 . S
C1104 C1101 1.526 . S
C1104 C1105 1.396 . S
C1104 C1109 1.390 . S
C1105 C1099 1.465 . S
C1105 C1104 1.396 . S
C1105 C1106 1.399 . S
C1106 H1092 0.929 . S
C1106 C1105 1.399 . S
C1106 C1107 1.385 . S
C1107 H1093 0.931 . S
C1107 C1106 1.385 . S
C1107 C1108 1.389 . S
C1108 C1107 1.389 . S
C1108 C1109 1.387 . S
C1109 H1094 0.930 . S
C1109 C1104 1.390 . S
C1109 C1108 1.387 . S
H1110 C1122 0.930 . S
H1111 C1124 0.930 . S
H1112 C1125 0.930 . S
H1113 C1129 0.959 . S
H1114 C1129 0.959 . S
H1115 C1129 0.961 . S
H1116 C1130 0.960 . S
H1117 C1130 0.961 . S
H1118 C1130 0.959 . S
H1119 C1133 0.929 . S
H1120 C1134 0.931 . S
H1121 C1136 0.930 . S
C1122 H1110 0.930 . S
C1122 C1123 1.399 . S
C1122 C1127 1.399 . S
C1123 C1122 1.399 . S
C1123 C1124 1.376 . S
C1124 H1111 0.930 . S
C1124 C1123 1.376 . S
C1124 C1125 1.388 . S
C1125 H1112 0.930 . S
C1125 C1124 1.388 . S
C1125 C1126 1.390 . S
C1126 C1125 1.390 . S
C1126 C1127 1.394 . S
C1126 C1132 1.465 . S
C1127 C1122 1.399 . S
C1127 C1126 1.394 . S
C1127 C1128 1.516 . S
C1128 C1127 1.516 . S
C1128 C1129 1.502 . S
C1128 C1130 1.561 . S
C1128 C1131 1.526 . S
C1129 H1113 0.959 . S
C1129 H1114 0.959 . S
C1129 H1115 0.961 . S
C1129 C1128 1.502 . S
C1130 H1116 0.960 . S
C1130 H1117 0.961 . S
C1130 H1118 0.959 . S
C1130 C1128 1.561 . S
C1131 C1128 1.526 . S
C1131 C1132 1.396 . S
C1131 C1136 1.390 . S
C1132 C1126 1.465 . S
C1132 C1131 1.396 . S
C1132 C1133 1.399 . S
C1133 H1119 0.929 . S
C1133 C1132 1.399 . S
C1133 C1134 1.385 . S
C1134 H1120 0.931 . S
C1134 C1133 1.385 . S
C1134 C1135 1.389 . S
C1135 C1134 1.389 . S
C1135 C1136 1.387 . S
C1136 H1121 0.930 . S
C1136 C1131 1.390 . S
C1136 C1135 1.387 . S
H1137 C1149 0.930 . S
H1138 C1151 0.930 . S
H1139 C1152 0.930 . S
H1140 C1156 0.959 . S
H1141 C1156 0.959 . S
H1142 C1156 0.961 . S
H1143 C1157 0.960 . S
H1144 C1157 0.961 . S
H1145 C1157 0.959 . S
H1146 C1160 0.929 . S
H1147 C1161 0.931 . S
H1148 C1163 0.930 . S
C1149 H1137 0.930 . S
C1149 C1150 1.399 . S
C1149 C1154 1.399 . S
C1150 C1149 1.399 . S
C1150 C1151 1.376 . S
C1151 H1138 0.930 . S
C1151 C1150 1.376 . S
C1151 C1152 1.388 . S
C1152 H1139 0.930 . S
C1152 C1151 1.388 . S
C1152 C1153 1.390 . S
C1153 C1152 1.390 . S
C1153 C1154 1.394 . S
C1153 C1159 1.465 . S
C1154 C1149 1.399 . S
C1154 C1153 1.394 . S
C1154 C1155 1.516 . S
C1155 C1154 1.516 . S
C1155 C1156 1.502 . S
C1155 C1157 1.561 . S
C1155 C1158 1.526 . S
C1156 H1140 0.959 . S
C1156 H1141 0.959 . S
C1156 H1142 0.961 . S
C1156 C1155 1.502 . S
C1157 H1143 0.960 . S
C1157 H1144 0.961 . S
C1157 H1145 0.959 . S
C1157 C1155 1.561 . S
C1158 C1155 1.526 . S
C1158 C1159 1.396 . S
C1158 C1163 1.390 . S
C1159 C1153 1.465 . S
C1159 C1158 1.396 . S
C1159 C1160 1.399 . S
C1160 H1146 0.929 . S
C1160 C1159 1.399 . S
C1160 C1161 1.385 . S
C1161 H1147 0.931 . S
C1161 C1160 1.385 . S
C1161 C1162 1.389 . S
C1162 C1161 1.389 . S
C1162 C1163 1.387 . S
C1163 H1148 0.930 . S
C1163 C1158 1.390 . S
C1163 C1162 1.387 . S
H1164 C1176 0.930 . S
H1165 C1178 0.930 . S
H1166 C1179 0.930 . S
H1167 C1183 0.959 . S
H1168 C1183 0.959 . S
H1169 C1183 0.961 . S
H1170 C1184 0.960 . S
H1171 C1184 0.961 . S
H1172 C1184 0.959 . S
H1173 C1187 0.929 . S
H1174 C1188 0.931 . S
H1175 C1190 0.930 . S
C1176 H1164 0.930 . S
C1176 C1177 1.399 . S
C1176 C1181 1.399 . S
C1177 C1176 1.399 . S
C1177 C1178 1.376 . S
C1178 H1165 0.930 . S
C1178 C1177 1.376 . S
C1178 C1179 1.388 . S
C1179 H1166 0.930 . S
C1179 C1178 1.388 . S
C1179 C1180 1.390 . S
C1180 C1179 1.390 . S
C1180 C1181 1.394 . S
C1180 C1186 1.465 . S
C1181 C1176 1.399 . S
C1181 C1180 1.394 . S
C1181 C1182 1.516 . S
C1182 C1181 1.516 . S
C1182 C1183 1.502 . S
C1182 C1184 1.561 . S
C1182 C1185 1.526 . S
C1183 H1167 0.959 . S
C1183 H1168 0.959 . S
C1183 H1169 0.961 . S
C1183 C1182 1.502 . S
C1184 H1170 0.960 . S
C1184 H1171 0.961 . S
C1184 H1172 0.959 . S
C1184 C1182 1.561 . S
C1185 C1182 1.526 . S
C1185 C1186 1.396 . S
C1185 C1190 1.390 1_556 S
C1186 C1180 1.465 . S
C1186 C1185 1.396 . S
C1186 C1187 1.399 . S
C1187 H1173 0.929 . S
C1187 C1186 1.399 . S
C1187 C1188 1.385 1_556 S
C1188 H1174 0.931 . S
C1188 C1187 1.385 1_554 S
C1188 C1189 1.389 . S
C1189 C1188 1.389 . S
C1189 C1190 1.387 . S
C1190 H1175 0.930 . S
C1190 C1185 1.390 1_554 S
C1190 C1189 1.387 . S
H1191 C1203 0.930 . S
H1192 C1205 0.930 . S
H1193 C1206 0.930 . S
H1194 C1210 0.959 . S
H1195 C1210 0.959 . S
H1196 C1210 0.961 . S
H1197 C1211 0.960 . S
H1198 C1211 0.961 . S
H1199 C1211 0.959 . S
H1200 C1214 0.929 . S
H1201 C1215 0.931 . S
H1202 C1217 0.930 . S
C1203 H1191 0.930 . S
C1203 C1204 1.399 . S
C1203 C1208 1.399 . S
C1204 C1203 1.399 . S
C1204 C1205 1.376 . S
C1205 H1192 0.930 . S
C1205 C1204 1.376 . S
C1205 C1206 1.388 . S
C1206 H1193 0.930 . S
C1206 C1205 1.388 . S
C1206 C1207 1.390 . S
C1207 C1206 1.390 . S
C1207 C1208 1.394 . S
C1207 C1213 1.465 . S
C1208 C1203 1.399 . S
C1208 C1207 1.394 . S
C1208 C1209 1.516 . S
C1209 C1208 1.516 . S
C1209 C1210 1.502 . S
C1209 C1211 1.561 . S
C1209 C1212 1.519 1_554 S
C1210 H1194 0.959 . S
C1210 H1195 0.959 . S
C1210 H1196 0.961 . S
C1210 C1209 1.502 . S
C1211 H1197 0.960 . S
C1211 H1198 0.961 . S
C1211 H1199 0.959 . S
C1211 C1209 1.561 . S
C1212 C1209 1.519 1_556 S
C1212 C1213 1.394 1_556 S
C1212 C1217 1.398 . S
C1213 C1207 1.465 . S
C1213 C1212 1.394 1_554 S
C1213 C1214 1.399 1_554 S
C1214 H1200 0.929 . S
C1214 C1213 1.399 1_556 S
C1214 C1215 1.385 . S
C1215 H1201 0.931 . S
C1215 C1214 1.385 . S
C1215 C1216 1.389 . S
C1216 C1215 1.389 . S
C1216 C1217 1.387 . S
C1217 H1202 0.930 . S
C1217 C1212 1.398 . S
C1217 C1216 1.387 . S
C421 C305 1.535 . S
C433 C33 1.528 . S
C448 C339 1.531 . S
C460 C67 1.517 . S
C475 C373 1.543 . S
C487 C101 1.515 . S
C502 C407 1.512 . S
C514 C135 1.538 . S
C529 C169 1.524 . S
C541 C237 1.538 . S
C556 C271 1.540 . S
C568 C203 1.521 . S
C583 C2 1.702 1_556 S
C595 C376 1.718 . S
C610 C206 1.744 . S
C622 C36 1.675 . S
C637 C70 1.739 . S
C649 C240 1.680 1_554 S
C664 C104 1.689 . S
C676 C274 1.728 . S
C691 C308 1.723 . S
C703 C138 1.697 . S
C718 C172 1.723 . S
C730 C342 1.695 . S
C745 C20 1.586 . S
C757 C360 1.582 . S
C772 C54 1.606 . S
C784 C394 1.576 . S
C799 C224 1.576 . S
C811 C88 1.607 . S
C826 C258 1.576 . S
C838 C122 1.595 . S
C853 C156 1.584 . S
C865 C292 1.606 . S
C880 C326 1.604 . S
C892 C190 1.574 . S
C907 C9 0.958 . S
C919 C5 0.840 . S
C934 C39 0.837 1_556 S
C946 C43 0.938 . S
C961 C77 0.748 . S
C973 C73 0.959 . S
C988 C111 0.935 . S
C1000 C107 0.840 . S
C1015 C141 0.973 . S
C1027 C145 0.863 . S
C1042 C175 0.895 . S
C1054 C179 0.817 . S
C1069 C209 0.982 1_554 S
C1081 C213 0.747 . S
C1096 C243 0.927 . S
C1108 C247 0.932 . S
C1123 C277 0.994 . S
C1135 C281 0.790 . S
C1150 C311 0.878 . S
C1162 C315 0.968 . S
C1177 C345 0.891 . S
C1189 C349 0.961 . S
C1204 C383 0.971 . S
C1216 C379 0.877 . S
