# Generated by pormake.
# Topology fne, (5)-cn, num edge types: 1
# Building blocks:
#     Node 0, Type 0, BuildingBlock: BEQFEK_clean_sbu_0, # of connection points: 5
#     Node 1, Type 0, BuildingBlock: BEQFEK_clean_sbu_0, # of connection points: 5
#     Node 2, Type 0, BuildingBlock: BEQFEK_clean_sbu_0, # of connection points: 5
#     Node 3, Type 0, BuildingBlock: BEQFEK_clean_sbu_0, # of connection points: 5
#     Node 4, Type 0, BuildingBlock: BEQFEK_clean_sbu_0, # of connection points: 5
#     Node 5, Type 0, BuildingBlock: BEQFEK_clean_sbu_0, # of connection points: 5
#     Edge 6, Type (0, 0), BuildingBlock: FUNLAD_clean_linker_1, # of connection points: 2
#     Edge 7, Type (0, 0), BuildingBlock: FUNLAD_clean_linker_1, # of connection points: 2
#     Edge 8, Type (0, 0), BuildingBlock: FUNLAD_clean_linker_1, # of connection points: 2
#     Edge 9, Type (0, 0), BuildingBlock: FUNLAD_clean_linker_1, # of connection points: 2
#     Edge 10, Type (0, 0), BuildingBlock: FUNLAD_clean_linker_1, # of connection points: 2
#     Edge 11, Type (0, 0), BuildingBlock: FUNLAD_clean_linker_1, # of connection points: 2
#     Edge 12, Type (0, 0), BuildingBlock: FUNLAD_clean_linker_1, # of connection points: 2
#     Edge 13, Type (0, 0), BuildingBlock: FUNLAD_clean_linker_1, # of connection points: 2
#     Edge 14, Type (0, 0), BuildingBlock: FUNLAD_clean_linker_1, # of connection points: 2
#     Edge 15, Type (0, 0), BuildingBlock: FUNLAD_clean_linker_1, # of connection points: 2
#     Edge 16, Type (0, 0), BuildingBlock: FUNLAD_clean_linker_1, # of connection points: 2
#     Edge 17, Type (0, 0), BuildingBlock: FUNLAD_clean_linker_1, # of connection points: 2
#     Edge 18, Type (0, 0), BuildingBlock: FUNLAD_clean_linker_1, # of connection points: 2
#     Edge 19, Type (0, 0), BuildingBlock: FUNLAD_clean_linker_1, # of connection points: 2
#     Edge 20, Type (0, 0), BuildingBlock: FUNLAD_clean_linker_1, # of connection points: 2
# Relax obj value: 0.216
# Max RMSD: 0.179
# Mean RMSD: 0.179
data_MOF--net-fne--node1-BEQFEK_clean_sbu_0--edge1-FUNLAD_clean_linker_1
_symmetry_space_group_name_H-M    P1
_symmetry_Int_Tables_number       1
_symmetry_cell_setting            triclinic
loop_
_symmetry_equiv_pos_as_xyz
'x, y, z'
_cell_length_a     45.719676
_cell_length_b     45.677648
_cell_length_c     19.160491
_cell_angle_alpha  89.965603
_cell_angle_beta   90.011578
_cell_angle_gamma 119.96889
loop_
_atom_site_label
_atom_site_type_symbol
_atom_site_fract_x
_atom_site_fract_y
_atom_site_fract_z
_atom_type_partial_charge
Co0 Co 0.53487 0.26242 0.95743 0.0
Co1 Co 0.52102 0.23196 0.10726 0.0
C2 C 0.58327 0.24653 0.02585 0.0
O3 O 0.57594 0.25945 0.97485 0.0
O4 O 0.56406 0.23476 0.07878 0.0
C5 C 0.56556 0.29588 0.82955 0.0
O6 O 0.59328 0.29915 0.85746 0.0
C7 C 0.53992 0.24059 0.25204 0.0
C8 C 0.49466 0.20076 0.30536 0.0
C9 C 0.5268 0.22789 0.31707 0.0
N10 N 0.51668 0.22223 0.20384 0.0
N11 N 0.48975 0.19812 0.23574 0.0
C12 C 0.57312 0.27134 0.23614 0.0
H13 H 0.57447 0.27884 0.18065 0.0
H14 H 0.57688 0.29258 0.27028 0.0
H15 H 0.59376 0.2659 0.24727 0.0
C16 C 0.52652 0.31526 0.02876 0.0
N17 N 0.52803 0.28659 0.02895 0.0
N18 N 0.52067 0.27313 0.09166 0.0
C19 C 0.51325 0.29242 0.13312 0.0
C20 C 0.51735 0.32019 0.09489 0.0
C21 C 0.53349 0.3372 0.96584 0.0
H22 H 0.5119 0.32463 0.92919 0.0
H23 H 0.55631 0.34032 0.9387 0.0
H24 H 0.53728 0.36243 0.97989 0.0
O25 O 0.49496 0.21599 0.94913 0.0
O26 O 0.48409 0.19431 0.05619 0.0
H27 H 0.48324 0.25395 0.20799 0.0
H28 H 0.48057 0.29161 0.21496 0.0
C29 C 0.4979 0.28184 0.20415 0.0
H30 H 0.51816 0.29181 0.24411 0.0
H31 H 0.46775 0.18059 0.21024 0.0
O32 O 0.53862 0.28329 0.86531 0.0
C33 C 0.47741 0.19191 0.99133 0.0
Co34 Co 0.49493 0.57192 0.32935 0.0
Co35 Co 0.50829 0.55526 0.48127 0.0
C36 C 0.55783 0.61862 0.40487 0.0
O37 O 0.53862 0.61197 0.35228 0.0
O38 O 0.54956 0.59869 0.45691 0.0
C39 C 0.49323 0.60712 0.20539 0.0
O40 O 0.511 0.63461 0.24242 0.0
C41 C 0.5147 0.56771 0.63264 0.0
C42 C 0.50659 0.51896 0.67354 0.0
C43 C 0.51158 0.55016 0.69406 0.0
N44 N 0.51069 0.54728 0.57845 0.0
N45 N 0.50622 0.51833 0.60331 0.0
C46 C 0.52278 0.60364 0.62503 0.0
H47 H 0.53371 0.6137 0.573 0.0
H48 H 0.49942 0.6051 0.63032 0.0
H49 H 0.54071 0.61959 0.66633 0.0
C50 C 0.4341 0.56647 0.39954 0.0
N51 N 0.46282 0.56495 0.39945 0.0
N52 N 0.46762 0.55615 0.46208 0.0
C53 C 0.44126 0.55033 0.50298 0.0
C54 C 0.41946 0.5571 0.46537 0.0
C55 C 0.42251 0.57897 0.33938 0.0
H56 H 0.44435 0.59673 0.30723 0.0
H57 H 0.40895 0.59199 0.35782 0.0
H58 H 0.40517 0.55718 0.30638 0.0
O59 O 0.50014 0.53123 0.32073 0.0
O60 O 0.50869 0.51856 0.428 0.0
H61 H 0.44561 0.51859 0.58043 0.0
H62 H 0.40766 0.5211 0.58662 0.0
C63 C 0.4351 0.53567 0.57504 0.0
H64 H 0.447 0.5563 0.61385 0.0
H65 H 0.50223 0.49787 0.57231 0.0
O66 O 0.48186 0.57832 0.23405 0.0
C67 C 0.50522 0.51261 0.36282 0.0
Co68 Co 0.12714 0.53123 0.62714 0.0
Co69 Co 0.16492 0.54061 0.76836 0.0
C70 C 0.15311 0.59479 0.70729 0.0
O71 O 0.13614 0.57664 0.65588 0.0
O72 O 0.16558 0.58389 0.75272 0.0
C73 C 0.11644 0.54307 0.49211 0.0
O74 O 0.13912 0.57342 0.51333 0.0
C75 C 0.16803 0.55204 0.91649 0.0
C76 C 0.20083 0.53292 0.95549 0.0
C77 C 0.18091 0.54629 0.97676 0.0
N78 N 0.17935 0.54222 0.86184 0.0
N79 N 0.19941 0.53129 0.88518 0.0
C80 C 0.14237 0.56318 0.91114 0.0
H81 H 0.12761 0.55367 0.8622 0.0
H82 H 0.12491 0.55403 0.95646 0.0
H83 H 0.15558 0.59121 0.91076 0.0
C84 C 0.07461 0.46937 0.70014 0.0
N85 N 0.10443 0.49854 0.69787 0.0
N86 N 0.12076 0.50228 0.75678 0.0
C87 C 0.10198 0.47542 0.79817 0.0
C88 C 0.07194 0.45392 0.76433 0.0
C89 C 0.05109 0.45513 0.6393 0.0
H90 H 0.06553 0.46215 0.58983 0.0
H91 H 0.034 0.46583 0.63878 0.0
H92 H 0.03569 0.42718 0.64235 0.0
O93 O 0.17032 0.53329 0.60424 0.0
O94 O 0.19743 0.53819 0.70358 0.0
H95 H 0.13914 0.47469 0.86509 0.0
H96 H 0.09645 0.44421 0.88874 0.0
C97 C 0.11298 0.47006 0.86839 0.0
H98 H 0.11236 0.48812 0.90606 0.0
H99 H 0.2111 0.52158 0.85339 0.0
O100 O 0.10352 0.51925 0.53644 0.0
C101 C 0.19552 0.53571 0.63731 0.0
Co102 Co 0.80775 0.15819 0.90662 0.0
Co103 Co 0.83234 0.19049 0.05521 0.0
C104 C 0.76458 0.17416 0.99365 0.0
O105 O 0.76786 0.16024 0.93908 0.0
O106 O 0.78757 0.18697 0.04005 0.0
C107 C 0.77163 0.12451 0.77998 0.0
O108 O 0.74424 0.11812 0.81434 0.0
C109 C 0.82455 0.18315 0.20673 0.0
C110 C 0.8722 0.22624 0.24508 0.0
C111 C 0.84247 0.19841 0.26753 0.0
N112 N 0.84305 0.20119 0.15167 0.0
N113 N 0.87135 0.22708 0.17492 0.0
C114 C 0.7917 0.15086 0.19926 0.0
H115 H 0.78707 0.14262 0.14393 0.0
H116 H 0.79179 0.13074 0.23159 0.0
H117 H 0.77083 0.15481 0.21707 0.0
C118 C 0.82055 0.10594 0.96864 0.0
N119 N 0.81975 0.13498 0.97208 0.0
N120 N 0.83165 0.14937 0.03295 0.0
C121 C 0.84157 0.13053 0.0692 0.0
C122 C 0.83407 0.10185 0.03038 0.0
C123 C 0.80849 0.08268 0.90716 0.0
H124 H 0.82829 0.09288 0.86619 0.0
H125 H 0.78545 0.08144 0.88517 0.0
H126 H 0.80305 0.0569 0.92159 0.0
O127 O 0.84589 0.20498 0.8928 0.0
O128 O 0.866 0.2278 0.9967 0.0
H129 H 0.87681 0.17032 0.13619 0.0
H130 H 0.88057 0.13313 0.13607 0.0
C131 C 0.86236 0.14237 0.13431 0.0
H132 H 0.84567 0.13268 0.18067 0.0
H133 H 0.89042 0.24487 0.14284 0.0
O134 O 0.79995 0.13858 0.81123 0.0
C135 C 0.86692 0.22947 0.93032 0.0
Co136 Co 0.86245 0.85492 0.28204 0.0
Co137 Co 0.85694 0.8791 0.42938 0.0
C138 C 0.80548 0.81073 0.37281 0.0
O139 O 0.82209 0.81456 0.31729 0.0
O140 O 0.81553 0.83393 0.41858 0.0
C141 C 0.8458 0.83252 0.14917 0.0
O142 O 0.81682 0.82662 0.17534 0.0
C143 C 0.86246 0.86973 0.57488 0.0
C144 C 0.86389 0.91389 0.62509 0.0
C145 C 0.8658 0.88503 0.63848 0.0
N146 N 0.85923 0.88869 0.5255 0.0
N147 N 0.85984 0.91502 0.55558 0.0
C148 C 0.86261 0.83753 0.56116 0.0
H149 H 0.85996 0.8315 0.50469 0.0
H150 H 0.88647 0.83974 0.58075 0.0
H151 H 0.84153 0.81657 0.59019 0.0
C152 C 0.92903 0.86881 0.33582 0.0
N153 N 0.899 0.86729 0.34259 0.0
N154 N 0.89753 0.87953 0.40366 0.0
C155 C 0.92724 0.89058 0.43678 0.0
C156 C 0.94783 0.88321 0.39575 0.0
C157 C 0.93936 0.85685 0.27283 0.0
H158 H 0.94675 0.876 0.2308 0.0
H159 H 0.91767 0.83291 0.25361 0.0
H160 H 0.96098 0.85298 0.2844 0.0
O161 O 0.85436 0.89382 0.26874 0.0
O162 O 0.8521 0.91273 0.37432 0.0
H163 H 0.92352 0.92639 0.50382 0.0
H164 H 0.96515 0.9319 0.49681 0.0
C165 C 0.93791 0.91287 0.49991 0.0
H166 H 0.93358 0.89747 0.54757 0.0
H167 H 0.85811 0.93396 0.52869 0.0
O168 O 0.87162 0.8445 0.18833 0.0
C169 C 0.85126 0.91459 0.30819 0.0
Co170 Co 0.22844 0.90992 0.58599 0.0
Co171 Co 0.20362 0.89335 0.73992 0.0
C172 C 0.21189 0.84418 0.64853 0.0
O173 O 0.22232 0.86403 0.59641 0.0
O174 O 0.20408 0.85271 0.70566 0.0
C175 C 0.26554 0.91818 0.46002 0.0
O176 O 0.27586 0.8994 0.49156 0.0
C177 C 0.21897 0.88411 0.88112 0.0
C178 C 0.18116 0.88897 0.94391 0.0
C179 C 0.20934 0.88511 0.94887 0.0
N180 N 0.19796 0.88776 0.83781 0.0
N181 N 0.17502 0.89015 0.87545 0.0
C182 C 0.24943 0.88258 0.858 0.0
H183 H 0.25271 0.88554 0.80061 0.0
H184 H 0.27227 0.90276 0.88428 0.0
H185 H 0.24666 0.85793 0.8738 0.0
C186 C 0.28512 0.96998 0.65438 0.0
N187 N 0.25633 0.93987 0.65644 0.0
N188 N 0.24469 0.93388 0.72067 0.0
C189 C 0.26511 0.96045 0.7612 0.0
C190 C 0.29195 0.98386 0.72095 0.0
C191 C 0.30475 0.98563 0.58915 0.0
H192 H 0.28912 0.99109 0.55297 0.0
H193 H 0.31043 0.9674 0.56289 0.0
H194 H 0.32872 0.0093 0.60011 0.0
O195 O 0.18332 0.90652 0.58763 0.0
O196 O 0.16518 0.8951 0.69738 0.0
H197 H 0.22786 0.95236 0.83898 0.0
H198 H 0.26433 0.99361 0.8397 0.0
C199 C 0.25559 0.96642 0.83231 0.0
H200 H 0.26739 0.95822 0.87265 0.0
H201 H 0.15604 0.89382 0.8546 0.0
O202 O 0.24679 0.92678 0.4923 0.0
C203 C 0.16105 0.90062 0.63403 0.0
H204 H 0.63415 0.26103 0.98696 0.0
C205 C 0.61402 0.24392 0.0217 0.0
H206 H 0.59605 0.20192 0.0891 0.0
H207 H 0.72441 0.21004 0.90116 0.0
H208 H 0.69178 0.20585 0.79831 0.0
H209 H 0.63642 0.20255 0.80884 0.0
H210 H 0.61428 0.20502 0.92205 0.0
C211 C 0.61636 0.21923 0.05493 0.0
C212 C 0.64661 0.21512 0.04843 0.0
C213 C 0.6575 0.21034 0.98212 0.0
C214 C 0.68771 0.20878 0.97651 0.0
C215 C 0.70026 0.20846 0.90903 0.0
C216 C 0.68197 0.20648 0.84936 0.0
C217 C 0.65094 0.20487 0.85525 0.0
C218 C 0.63871 0.20673 0.92067 0.0
H219 H 0.71103 0.15824 0.97535 0.0
C220 C 0.73402 0.1769 0.0012 0.0
H221 H 0.75817 0.22245 0.05805 0.0
H222 H 0.63327 0.22479 0.1834 0.0
H223 H 0.66333 0.22413 0.2869 0.0
H224 H 0.71199 0.21497 0.27819 0.0
H225 H 0.73123 0.20701 0.16585 0.0
C226 C 0.73496 0.20354 0.03327 0.0
C227 C 0.7048 0.20793 0.03779 0.0
C228 C 0.69325 0.21154 0.10421 0.0
C229 C 0.66451 0.21575 0.10943 0.0
C230 C 0.6544 0.22066 0.1763 0.0
C231 C 0.67151 0.22045 0.23628 0.0
C232 C 0.69894 0.21537 0.23136 0.0
C233 C 0.70978 0.21093 0.16635 0.0
H234 H 0.76984 0.75689 0.35351 0.0
C235 C 0.77344 0.77896 0.38232 0.0
H236 H 0.75105 0.79946 0.44756 0.0
H237 H 0.6303 0.65478 0.30156 0.0
H238 H 0.65205 0.68176 0.1898 0.0
H239 H 0.70047 0.73986 0.18341 0.0
H240 H 0.72834 0.77046 0.28861 0.0
C241 C 0.7477 0.7774 0.41918 0.0
C242 C 0.71425 0.74573 0.42292 0.0
C243 C 0.69622 0.72975 0.361 0.0
C244 C 0.66614 0.69783 0.36489 0.0
C245 C 0.65142 0.68032 0.30194 0.0
C246 C 0.66393 0.69534 0.2373 0.0
C247 C 0.69132 0.72792 0.23369 0.0
C248 C 0.70735 0.74505 0.29459 0.0
H249 H 0.59288 0.67094 0.37262 0.0
C250 C 0.59059 0.6501 0.40416 0.0
H251 H 0.6158 0.63165 0.46664 0.0
H252 H 0.74237 0.76929 0.55169 0.0
H253 H 0.71771 0.74472 0.66367 0.0
H254 H 0.66208 0.6928 0.67081 0.0
H255 H 0.63111 0.66479 0.56606 0.0
C256 C 0.61799 0.65263 0.43579 0.0
C257 C 0.65164 0.68403 0.43094 0.0
C258 C 0.66898 0.70064 0.49291 0.0
C259 C 0.7006 0.73118 0.48885 0.0
C260 C 0.71796 0.74648 0.55157 0.0
C261 C 0.70412 0.7326 0.61632 0.0
C262 C 0.67284 0.70335 0.62034 0.0
C263 C 0.65535 0.68746 0.55962 0.0
H264 H 0.1736 0.64406 0.75986 0.0
C265 C 0.16036 0.62993 0.71347 0.0
H266 H 0.14072 0.63241 0.61487 0.0
H267 H 0.13688 0.7627 0.73736 0.0
H268 H 0.08021 0.71985 0.76999 0.0
H269 H 0.06139 0.65927 0.75662 0.0
H270 H 0.09921 0.64121 0.71002 0.0
C271 C 0.15341 0.64563 0.66238 0.0
C272 C 0.16449 0.68211 0.66841 0.0
C273 C 0.14222 0.69226 0.69586 0.0
C274 C 0.15327 0.72718 0.70428 0.0
C275 C 0.13017 0.73655 0.73085 0.0
C276 C 0.09745 0.7122 0.74959 0.0
C277 C 0.08684 0.67809 0.74202 0.0
C278 C 0.10881 0.66808 0.71532 0.0
H279 H 0.20809 0.80109 0.58872 0.0
C280 C 0.20646 0.80969 0.64072 0.0
H281 H 0.19551 0.79663 0.74695 0.0
H282 H 0.21269 0.6709 0.61048 0.0
H283 H 0.27026 0.71339 0.58179 0.0
H284 H 0.29076 0.77384 0.60323 0.0
H285 H 0.25376 0.7922 0.65238 0.0
C286 C 0.19782 0.78833 0.69512 0.0
C287 C 0.18673 0.75189 0.68559 0.0
C288 C 0.20919 0.74163 0.65887 0.0
C289 C 0.19778 0.7067 0.64896 0.0
C290 C 0.22029 0.69708 0.62028 0.0
C291 C 0.25337 0.72119 0.60352 0.0
C292 C 0.26488 0.75523 0.6154 0.0
C293 C 0.24323 0.76546 0.64307 0.0
H294 H 0.56935 0.26187 0.38503 0.0
C295 C 0.54283 0.24248 0.38453 0.0
H296 H 0.49883 0.21456 0.4453 0.0
H297 H 0.57664 0.23662 0.72969 0.0
H298 H 0.55733 0.17748 0.70814 0.0
H299 H 0.53119 0.15111 0.59569 0.0
H300 H 0.52398 0.18375 0.50433 0.0
C301 C 0.52527 0.23414 0.44422 0.0
C302 C 0.54175 0.25054 0.5109 0.0
C303 C 0.54629 0.23122 0.56312 0.0
C304 C 0.56171 0.24653 0.62747 0.0
C305 C 0.56534 0.22645 0.67945 0.0
C306 C 0.55436 0.19241 0.66782 0.0
C307 C 0.53963 0.17756 0.60454 0.0
C308 C 0.5356 0.1966 0.55259 0.0
H309 H 0.53884 0.29434 0.73332 0.0
C310 C 0.56258 0.29775 0.75361 0.0
H311 H 0.60694 0.29631 0.72998 0.0
H312 H 0.53464 0.29433 0.42345 0.0
H313 H 0.55484 0.35372 0.44447 0.0
H314 H 0.58402 0.38081 0.55428 0.0
H315 H 0.59281 0.34837 0.64412 0.0
C316 C 0.58422 0.29533 0.71 0.0
C317 C 0.57242 0.2811 0.63936 0.0
C318 C 0.56854 0.30061 0.58666 0.0
C319 C 0.55272 0.28521 0.52257 0.0
C320 C 0.54758 0.30491 0.47214 0.0
C321 C 0.55884 0.33903 0.48375 0.0
C322 C 0.57518 0.35426 0.54565 0.0
C323 C 0.57997 0.33537 0.59681 0.0
H324 H 0.51811 0.54718 0.80704 0.0
C325 C 0.51146 0.55994 0.76749 0.0
H326 H 0.49015 0.59108 0.75008 0.0
H327 H 0.42107 0.55937 0.0479 0.0
H328 H 0.37257 0.53491 0.97035 0.0
H329 H 0.37993 0.53306 0.84317 0.0
H330 H 0.43573 0.55578 0.79265 0.0
C331 C 0.5 0.58055 0.78787 0.0
C332 C 0.4959 0.5853 0.86342 0.0
C333 C 0.46306 0.57207 0.89192 0.0
C334 C 0.45875 0.57271 0.96534 0.0
C335 C 0.42569 0.55916 0.99255 0.0
C336 C 0.39766 0.54513 0.94864 0.0
C337 C 0.40181 0.54412 0.87703 0.0
C338 C 0.43403 0.5573 0.84871 0.0
H339 H 0.50209 0.63492 0.10607 0.0
C340 C 0.49166 0.60988 0.12889 0.0
H341 H 0.47175 0.55781 0.109 0.0
H342 H 0.56232 0.61892 0.82437 0.0
H343 H 0.61089 0.64297 0.9016 0.0
H344 H 0.60346 0.64017 0.02942 0.0
H345 H 0.54768 0.61407 0.08065 0.0
C346 C 0.48224 0.58302 0.08703 0.0
C347 C 0.48723 0.58645 0.01007 0.0
C348 C 0.52021 0.60089 0.98127 0.0
C349 C 0.52452 0.60105 0.90772 0.0
C350 C 0.55765 0.61694 0.88 0.0
C351 C 0.58574 0.63103 0.9237 0.0
C352 C 0.58156 0.62956 0.99563 0.0
C353 C 0.54928 0.61464 0.02437 0.0
H354 H 0.16224 0.56751 0.05685 0.0
C355 C 0.17219 0.55058 0.04846 0.0
H356 H 0.18314 0.51521 0.0951 0.0
H357 H 0.1929 0.57426 0.39942 0.0
H358 H 0.25018 0.58603 0.38088 0.0
H359 H 0.26792 0.57546 0.26652 0.0
H360 H 0.22829 0.5526 0.1703 0.0
C361 C 0.17334 0.53233 0.1021 0.0
C362 C 0.16176 0.53574 0.1725 0.0
C363 C 0.18533 0.54933 0.22784 0.0
C364 C 0.17526 0.55605 0.2932 0.0
C365 C 0.19924 0.56923 0.34811 0.0
C366 C 0.23224 0.57602 0.3383 0.0
C367 C 0.24221 0.57002 0.27397 0.0
C368 C 0.21918 0.55689 0.21917 0.0
H369 H 0.10036 0.50832 0.40217 0.0
C370 C 0.11365 0.53481 0.41728 0.0
H371 H 0.1469 0.58497 0.38579 0.0
H372 H 0.10854 0.50291 0.08201 0.0
H373 H 0.05107 0.4908 0.10058 0.0
H374 H 0.03463 0.50633 0.21112 0.0
H375 H 0.07547 0.53354 0.3042 0.0
C376 C 0.13247 0.55861 0.37014 0.0
C377 C 0.1417 0.54946 0.30271 0.0
C378 C 0.11775 0.53459 0.24833 0.0
C379 C 0.12761 0.527 0.18357 0.0
C380 C 0.10281 0.51059 0.13115 0.0
C381 C 0.06965 0.50323 0.14134 0.0
C382 C 0.06036 0.51187 0.20366 0.0
C383 C 0.08403 0.52737 0.25674 0.0
H384 H 0.74587 0.11117 0.67765 0.0
C385 C 0.77031 0.1216 0.70308 0.0
H386 H 0.82322 0.14806 0.68898 0.0
H387 H 0.79082 0.1041 0.36131 0.0
H388 H 0.78045 0.04923 0.40108 0.0
H389 H 0.77765 0.03636 0.52682 0.0
H390 H 0.78526 0.07836 0.61374 0.0
C391 C 0.79856 0.13599 0.66415 0.0
C392 C 0.79749 0.14234 0.58833 0.0
C393 C 0.79255 0.11744 0.53839 0.0
C394 C 0.79413 0.12488 0.46585 0.0
C395 C 0.78973 0.09975 0.41702 0.0
C396 C 0.78379 0.06817 0.43914 0.0
C397 C 0.78222 0.06092 0.50996 0.0
C398 C 0.7866 0.0852 0.55927 0.0
H399 H 0.85647 0.20046 0.37783 0.0
C400 C 0.83534 0.1881 0.34181 0.0
H401 H 0.78279 0.15317 0.33499 0.0
H402 H 0.80663 0.19526 0.6707 0.0
H403 H 0.81483 0.24929 0.63115 0.0
H404 H 0.8156 0.26148 0.50549 0.0
H405 H 0.80851 0.21983 0.41865 0.0
C406 C 0.80489 0.16579 0.36782 0.0
C407 C 0.80069 0.15723 0.44357 0.0
C408 C 0.8041 0.1816 0.49364 0.0
C409 C 0.80294 0.1743 0.56606 0.0
C410 C 0.80713 0.19937 0.61498 0.0
C411 C 0.8118 0.23049 0.59302 0.0
C412 C 0.81228 0.23737 0.52229 0.0
C413 C 0.80841 0.2133 0.47296 0.0
H414 H 0.87898 0.85398 0.70504 0.0
C415 C 0.87172 0.87331 0.70555 0.0
H416 H 0.86047 0.90431 0.76823 0.0
H417 H 0.84543 0.78158 0.98134 0.0
H418 H 0.8028 0.7416 0.90129 0.0
H419 H 0.79013 0.76138 0.79153 0.0
H420 H 0.82051 0.82058 0.76013 0.0
C421 C 0.86712 0.88456 0.76663 0.0
C422 C 0.8731 0.87202 0.83352 0.0
C423 C 0.85352 0.83734 0.85211 0.0
C424 C 0.85905 0.82619 0.91729 0.0
C425 C 0.8409 0.7913 0.93348 0.0
C426 C 0.81658 0.76819 0.88798 0.0
C427 C 0.80958 0.7793 0.82606 0.0
C428 C 0.82757 0.81344 0.80827 0.0
H429 H 0.82697 0.82674 0.04262 0.0
C430 C 0.84896 0.8316 0.07334 0.0
H431 H 0.90079 0.84687 0.07158 0.0
H432 H 0.91811 0.93902 0.80963 0.0
H433 H 0.96012 0.97834 0.89067 0.0
H434 H 0.96664 0.95951 0.00741 0.0
H435 H 0.9316 0.90126 0.04337 0.0
C436 C 0.87845 0.84101 0.04127 0.0
C437 C 0.8817 0.85 0.96607 0.0
C438 C 0.90274 0.88415 0.94595 0.0
C439 C 0.89854 0.89513 0.87926 0.0
C440 C 0.91981 0.9294 0.86018 0.0
C441 C 0.94411 0.95224 0.90611 0.0
C442 C 0.94779 0.94164 0.97181 0.0
C443 C 0.92739 0.90806 0.99186 0.0
H444 H 0.25669 0.93612 0.36071 0.0
C445 C 0.26922 0.92362 0.38425 0.0
H446 H 0.29346 0.89538 0.36565 0.0
H447 H 0.19704 0.83178 0.10374 0.0
H448 H 0.18453 0.78251 0.17336 0.0
H449 H 0.21267 0.78857 0.28662 0.0
H450 H 0.25343 0.84383 0.33085 0.0
C451 C 0.28203 0.90906 0.34294 0.0
C452 C 0.27329 0.90491 0.26749 0.0
C453 C 0.25042 0.8722 0.2415 0.0
C454 C 0.2343 0.86867 0.17613 0.0
C455 C 0.21031 0.83589 0.15269 0.0
C456 C 0.20282 0.80738 0.19222 0.0
C457 C 0.21865 0.8108 0.256 0.0
C458 C 0.24203 0.84274 0.28081 0.0
H459 H 0.24747 0.87914 0.00863 0.0
C460 C 0.22751 0.88542 0.01263 0.0
H461 H 0.20254 0.90286 0.07885 0.0
H462 H 0.32203 0.9699 0.29487 0.0
H463 H 0.3371 0.01912 0.22191 0.0
H464 H 0.30854 0.01316 0.10909 0.0
H465 H 0.26489 0.95805 0.06842 0.0
C466 C 0.22122 0.89489 0.07429 0.0
C467 C 0.24153 0.8978 0.13687 0.0
C468 C 0.26687 0.93015 0.15957 0.0
C469 C 0.28303 0.93366 0.22478 0.0
C470 C 0.30851 0.96613 0.24629 0.0
C471 C 0.3175 0.99445 0.20476 0.0
C472 C 0.30144 0.99109 0.14121 0.0
C473 C 0.27638 0.95936 0.11859 0.0
H474 H 0.50329 0.35952 0.07758 0.0
C475 C 0.51159 0.34804 0.11676 0.0
H476 H 0.52781 0.35081 0.22112 0.0
H477 H 0.5498 0.50431 0.18149 0.0
H478 H 0.59421 0.51319 0.10051 0.0
H479 H 0.60283 0.46602 0.06604 0.0
H480 H 0.56702 0.40971 0.11203 0.0
C481 C 0.51857 0.36113 0.18145 0.0
C482 C 0.51351 0.38979 0.20155 0.0
C483 C 0.53491 0.42268 0.17442 0.0
C484 C 0.53025 0.45 0.19506 0.0
C485 C 0.55211 0.48261 0.16753 0.0
C486 C 0.57779 0.48811 0.12108 0.0
C487 C 0.58261 0.46154 0.10161 0.0
C488 C 0.56167 0.42923 0.12809 0.0
H489 H 0.51337 0.46913 0.37304 0.0
C490 C 0.50727 0.4834 0.33618 0.0
H491 H 0.49617 0.48813 0.23106 0.0
H492 H 0.4682 0.33013 0.26356 0.0
H493 H 0.42269 0.32085 0.34165 0.0
H494 H 0.41313 0.36773 0.3735 0.0
H495 H 0.44932 0.42413 0.32813 0.0
C496 C 0.50155 0.47373 0.26894 0.0
C497 C 0.50459 0.44453 0.24362 0.0
C498 C 0.48255 0.41146 0.26905 0.0
C499 C 0.48743 0.38422 0.24903 0.0
C500 C 0.46552 0.35165 0.27651 0.0
C501 C 0.43922 0.34596 0.32136 0.0
C502 C 0.43389 0.37236 0.3394 0.0
C503 C 0.4551 0.40472 0.31348 0.0
H504 H 0.38991 0.5622 0.55009 0.0
C505 C 0.38958 0.55715 0.49454 0.0
H506 H 0.35921 0.54128 0.40381 0.0
H507 H 0.22817 0.47812 0.59801 0.0
H508 H 0.22464 0.42772 0.54782 0.0
H509 H 0.27012 0.43155 0.47229 0.0
H510 H 0.31943 0.48584 0.44649 0.0
C511 C 0.36164 0.54927 0.45786 0.0
C512 C 0.33203 0.54758 0.49394 0.0
C513 C 0.30307 0.51574 0.50712 0.0
C514 C 0.27673 0.51357 0.55018 0.0
C515 C 0.24862 0.48132 0.56458 0.0
C516 C 0.24636 0.45215 0.5364 0.0
C517 C 0.27198 0.4543 0.49393 0.0
C518 C 0.30014 0.48563 0.47952 0.0
H519 H 0.21907 0.53196 0.5401 0.0
C520 C 0.22277 0.53582 0.59616 0.0
H521 H 0.25692 0.54671 0.67965 0.0
H522 H 0.38172 0.61286 0.47014 0.0
H523 H 0.3847 0.66347 0.51803 0.0
H524 H 0.33953 0.65968 0.59455 0.0
H525 H 0.29105 0.60527 0.62345 0.0
C526 C 0.25192 0.54134 0.62432 0.0
C527 C 0.27926 0.54334 0.57909 0.0
C528 C 0.30764 0.57528 0.56377 0.0
C529 C 0.3339 0.57744 0.52052 0.0
C530 C 0.3615 0.60974 0.50427 0.0
C531 C 0.36341 0.639 0.53099 0.0
C532 C 0.33795 0.63686 0.57399 0.0
C533 C 0.31029 0.60546 0.59025 0.0
H534 H 0.89071 0.26113 0.83783 0.0
C535 C 0.89235 0.26028 0.89436 0.0
H536 H 0.91875 0.28694 0.98456 0.0
H537 H 0.02089 0.36436 0.71166 0.0
H538 H 0.02114 0.31192 0.6939 0.0
H539 H 0.98644 0.26215 0.76785 0.0
H540 H 0.95066 0.26428 0.85863 0.0
C541 C 0.91719 0.28687 0.92796 0.0
C542 C 0.94146 0.31788 0.88908 0.0
C543 C 0.96362 0.31666 0.83874 0.0
C544 C 0.98522 0.34594 0.79903 0.0
C545 C 0.00528 0.34337 0.74571 0.0
C546 C 0.00547 0.31334 0.73457 0.0
C547 C 0.98581 0.28528 0.77597 0.0
C548 C 0.96514 0.28678 0.82756 0.0
H549 H 0.05239 0.40666 0.82491 0.0
C550 C 0.04508 0.42085 0.79063 0.0
H551 H 0.00378 0.42354 0.7488 0.0
H552 H 0.90178 0.32879 0.98039 0.0
H553 H 0.90356 0.38196 0.00173 0.0
H554 H 0.94354 0.43357 0.93798 0.0
H555 H 0.98169 0.43226 0.85191 0.0
C556 C 0.01211 0.40875 0.7784 0.0
C557 C 0.98636 0.377 0.81299 0.0
C558 C 0.9644 0.3783 0.8636 0.0
C559 C 0.94181 0.34867 0.90138 0.0
C560 C 0.9198 0.35059 0.95086 0.0
C561 C 0.92051 0.38096 0.9636 0.0
C562 C 0.94299 0.41001 0.92766 0.0
C563 C 0.96475 0.40887 0.87827 0.0
H564 H 0.84415 0.06012 0.00722 0.0
C565 C 0.83948 0.07337 0.04894 0.0
H566 H 0.83056 0.07414 0.15696 0.0
H567 H 0.79719 0.91671 0.13252 0.0
H568 H 0.74931 0.90745 0.06177 0.0
H569 H 0.7424 0.95532 0.02435 0.0
H570 H 0.78334 0.01269 0.05698 0.0
C571 C 0.83631 0.06198 0.11481 0.0
C572 C 0.84107 0.03298 0.13357 0.0
C573 C 0.81672 0.99952 0.11408 0.0
C574 C 0.82042 0.97182 0.13656 0.0
C575 C 0.79564 0.93866 0.1169 0.0
C576 C 0.76798 0.93296 0.07639 0.0
C577 C 0.76411 0.95992 0.05525 0.0
C578 C 0.78798 0.99281 0.07404 0.0
H579 H 0.84424 0.95892 0.31249 0.0
C580 C 0.8477 0.94222 0.27728 0.0
H581 H 0.85297 0.93164 0.172 0.0
H582 H 0.89279 0.09379 0.17845 0.0
H583 H 0.9415 0.10317 0.24605 0.0
H584 H 0.94886 0.0553 0.28138 0.0
H585 H 0.90734 0.9979 0.25002 0.0
C586 C 0.85012 0.94835 0.20823 0.0
C587 C 0.84806 0.97757 0.17945 0.0
C588 C 0.87315 0.0111 0.19637 0.0
C589 C 0.86934 0.03875 0.17442 0.0
C590 C 0.89441 0.07189 0.1935 0.0
C591 C 0.92258 0.07763 0.23215 0.0
C592 C 0.9267 0.05069 0.25214 0.0
C593 C 0.90246 0.0178 0.23432 0.0
H594 H 0.10995 0.89247 0.65384 0.0
C595 C 0.12922 0.89919 0.61401 0.0
H596 H 0.14178 0.91099 0.50757 0.0
H597 H 0.98957 0.8354 0.40795 0.0
H598 H 0.00985 0.80003 0.35888 0.0
H599 H 0.06696 0.81036 0.38616 0.0
H600 H 0.104 0.85602 0.46317 0.0
C601 C 0.12316 0.9052 0.54838 0.0
C602 C 0.08984 0.90096 0.52808 0.0
C603 C 0.06885 0.87474 0.48129 0.0
C604 C 0.03618 0.86924 0.46437 0.0
C605 C 0.01508 0.84166 0.42056 0.0
C606 C 0.02629 0.82088 0.39249 0.0
C607 C 0.05841 0.82665 0.40793 0.0
C608 C 0.07947 0.85307 0.4521 0.0
H609 H 0.99985 0.89535 0.3689 0.0
C610 C 0.9821 0.88932 0.4116 0.0
H611 H 0.9728 0.87793 0.51892 0.0
H612 H 0.12538 0.95614 0.61248 0.0
H613 H 0.10502 0.99134 0.66256 0.0
H614 H 0.04764 0.98062 0.6366 0.0
H615 H 0.01057 0.93492 0.55983 0.0
C616 C 0.99072 0.88502 0.47629 0.0
C617 C 0.02492 0.89055 0.49302 0.0
C618 C 0.04598 0.91681 0.53971 0.0
C619 C 0.0787 0.92241 0.55629 0.0
C620 C 0.09983 0.94992 0.60019 0.0
C621 C 0.08857 0.97054 0.62886 0.0
C622 C 0.05631 0.96455 0.61412 0.0
C623 C 0.03524 0.93817 0.5699 0.0
H624 H 0.3283 0.03835 0.70546 0.0
C625 C 0.31964 0.01757 0.74229 0.0
H626 H 0.3268 0.00181 0.84117 0.0
H627 H 0.46776 0.15036 0.79334 0.0
H628 H 0.47898 0.12382 0.69571 0.0
H629 H 0.43702 0.06612 0.65865 0.0
H630 H 0.3836 0.03467 0.71899 0.0
C631 C 0.33484 0.0227 0.80481 0.0
C632 C 0.36121 0.05697 0.82849 0.0
C633 C 0.3925 0.07498 0.79271 0.0
C634 C 0.41695 0.10808 0.81487 0.0
C635 C 0.44815 0.12526 0.77877 0.0
C636 C 0.45501 0.11028 0.72264 0.0
C637 C 0.43137 0.07782 0.7017 0.0
C638 C 0.40058 0.06017 0.73642 0.0
H639 H 0.43855 0.13822 -9e-05 0.0
C640 C 0.44943 0.15982 0.96481 0.0
H641 H 0.44813 0.17772 0.86391 0.0
H642 H 0.30595 0.02805 0.91487 0.0
H643 H 0.29389 0.05512 0.01009 0.0
H644 H 0.33378 0.11449 0.04073 0.0
H645 H 0.38628 0.14659 0.97742 0.0
C646 C 0.43716 0.15641 0.89968 0.0
C647 C 0.41025 0.12299 0.87318 0.0
C648 C 0.37866 0.10527 0.90785 0.0
C649 C 0.35475 0.07177 0.88732 0.0
C650 C 0.32443 0.05395 0.92608 0.0
C651 C 0.31725 0.06917 0.98126 0.0
C652 C 0.33976 0.10251 -0.00127 0.0
C653 C 0.37004 0.12052 0.96244 0.0
loop_
_geom_bond_atom_site_label_1
_geom_bond_atom_site_label_2
_geom_bond_distance
_geom_bond_site_symmetry_2
_ccdc_geom_bond_type
Co0 O3 1.970 . S
Co0 N17 1.989 1_556 S
Co0 O25 1.967 . S
Co0 O32 1.920 . S
Co1 O4 1.966 . S
Co1 N10 2.022 . S
Co1 N18 1.993 . S
Co1 O26 1.941 . S
C2 O3 1.258 1_554 S
C2 O4 1.263 . S
O3 Co0 1.970 . S
O3 C2 1.258 1_556 S
O4 Co1 1.966 . S
O4 C2 1.263 . S
C5 O6 1.235 . S
C5 O32 1.289 . S
O6 C5 1.235 . S
C7 C9 1.400 . S
C7 N10 1.351 . S
C7 C12 1.501 . S
C8 C9 1.387 . S
C8 N11 1.341 . S
C9 C7 1.400 . S
C9 C8 1.387 . S
N10 Co1 2.022 . S
N10 C7 1.351 . S
N10 N11 1.365 . S
N11 C8 1.341 . S
N11 N10 1.365 . S
N11 H31 0.862 . S
C12 C7 1.501 . S
C12 H13 0.961 . S
C12 H14 0.961 . S
C12 H15 0.960 . S
H13 C12 0.961 . S
H14 C12 0.961 . S
H15 C12 0.960 . S
C16 N17 1.342 1_556 S
C16 C20 1.401 1_556 S
C16 C21 1.499 . S
N17 Co0 1.989 1_554 S
N17 C16 1.342 1_554 S
N17 N18 1.388 . S
N18 Co1 1.993 . S
N18 N17 1.388 . S
N18 C19 1.346 . S
C19 N18 1.346 . S
C19 C20 1.396 . S
C19 C29 1.510 . S
C20 C16 1.401 1_554 S
C20 C19 1.396 . S
C21 C16 1.499 . S
C21 H22 0.959 . S
C21 H23 0.960 . S
C21 H24 0.961 . S
H22 C21 0.959 . S
H23 C21 0.960 . S
H24 C21 0.961 . S
O25 Co0 1.967 . S
O25 C33 1.258 1_556 S
O26 Co1 1.941 . S
O26 C33 1.266 . S
H27 C29 0.959 . S
H28 C29 0.961 . S
C29 C19 1.510 . S
C29 H27 0.959 . S
C29 H28 0.961 . S
C29 H30 0.960 . S
H30 C29 0.960 . S
H31 N11 0.862 . S
O32 Co0 1.920 . S
O32 C5 1.289 . S
C33 O25 1.258 1_554 S
C33 O26 1.266 . S
Co34 O37 1.970 . S
Co34 N51 1.989 . S
Co34 O59 1.967 . S
Co34 O66 1.920 . S
Co35 O38 1.966 . S
Co35 N44 2.022 . S
Co35 N52 1.993 . S
Co35 O60 1.941 . S
C36 O37 1.258 . S
C36 O38 1.263 . S
O37 Co34 1.970 . S
O37 C36 1.258 . S
O38 Co35 1.966 . S
O38 C36 1.263 . S
C39 O40 1.235 . S
C39 O66 1.289 . S
O40 C39 1.235 . S
C41 C43 1.400 . S
C41 N44 1.351 . S
C41 C46 1.501 . S
C42 C43 1.387 . S
C42 N45 1.341 . S
C43 C41 1.400 . S
C43 C42 1.387 . S
N44 Co35 2.022 . S
N44 C41 1.351 . S
N44 N45 1.365 . S
N45 C42 1.341 . S
N45 N44 1.365 . S
N45 H65 0.862 . S
C46 C41 1.501 . S
C46 H47 0.961 . S
C46 H48 0.961 . S
C46 H49 0.960 . S
H47 C46 0.961 . S
H48 C46 0.961 . S
H49 C46 0.960 . S
C50 N51 1.342 . S
C50 C54 1.401 . S
C50 C55 1.499 . S
N51 Co34 1.989 . S
N51 C50 1.342 . S
N51 N52 1.388 . S
N52 Co35 1.993 . S
N52 N51 1.388 . S
N52 C53 1.346 . S
C53 N52 1.346 . S
C53 C54 1.396 . S
C53 C63 1.510 . S
C54 C50 1.401 . S
C54 C53 1.396 . S
C55 C50 1.499 . S
C55 H56 0.959 . S
C55 H57 0.960 . S
C55 H58 0.961 . S
H56 C55 0.959 . S
H57 C55 0.960 . S
H58 C55 0.961 . S
O59 Co34 1.967 . S
O59 C67 1.258 . S
O60 Co35 1.941 . S
O60 C67 1.266 . S
H61 C63 0.959 . S
H62 C63 0.961 . S
C63 C53 1.510 . S
C63 H61 0.959 . S
C63 H62 0.961 . S
C63 H64 0.960 . S
H64 C63 0.960 . S
H65 N45 0.862 . S
O66 Co34 1.920 . S
O66 C39 1.289 . S
C67 O59 1.258 . S
C67 O60 1.266 . S
Co68 O71 1.970 . S
Co68 N85 1.989 . S
Co68 O93 1.967 . S
Co68 O100 1.920 . S
Co69 O72 1.966 . S
Co69 N78 2.022 . S
Co69 N86 1.993 . S
Co69 O94 1.941 . S
C70 O71 1.258 . S
C70 O72 1.263 . S
O71 Co68 1.970 . S
O71 C70 1.258 . S
O72 Co69 1.966 . S
O72 C70 1.263 . S
C73 O74 1.235 . S
C73 O100 1.289 . S
O74 C73 1.235 . S
C75 C77 1.400 . S
C75 N78 1.351 . S
C75 C80 1.501 . S
C76 C77 1.387 . S
C76 N79 1.341 . S
C77 C75 1.400 . S
C77 C76 1.387 . S
N78 Co69 2.022 . S
N78 C75 1.351 . S
N78 N79 1.365 . S
N79 C76 1.341 . S
N79 N78 1.365 . S
N79 H99 0.862 . S
C80 C75 1.501 . S
C80 H81 0.961 . S
C80 H82 0.961 . S
C80 H83 0.960 . S
H81 C80 0.961 . S
H82 C80 0.961 . S
H83 C80 0.960 . S
C84 N85 1.342 . S
C84 C88 1.401 . S
C84 C89 1.499 . S
N85 Co68 1.989 . S
N85 C84 1.342 . S
N85 N86 1.388 . S
N86 Co69 1.993 . S
N86 N85 1.388 . S
N86 C87 1.346 . S
C87 N86 1.346 . S
C87 C88 1.396 . S
C87 C97 1.510 . S
C88 C84 1.401 . S
C88 C87 1.396 . S
C89 C84 1.499 . S
C89 H90 0.959 . S
C89 H91 0.960 . S
C89 H92 0.961 . S
H90 C89 0.959 . S
H91 C89 0.960 . S
H92 C89 0.961 . S
O93 Co68 1.967 . S
O93 C101 1.258 . S
O94 Co69 1.941 . S
O94 C101 1.266 . S
H95 C97 0.959 . S
H96 C97 0.961 . S
C97 C87 1.510 . S
C97 H95 0.959 . S
C97 H96 0.961 . S
C97 H98 0.960 . S
H98 C97 0.960 . S
H99 N79 0.862 . S
O100 Co68 1.920 . S
O100 C73 1.289 . S
C101 O93 1.258 . S
C101 O94 1.266 . S
Co102 O105 1.970 . S
Co102 N119 1.989 1_556 S
Co102 O127 1.967 . S
Co102 O134 1.920 . S
Co103 O106 1.966 . S
Co103 N112 2.022 . S
Co103 N120 1.993 . S
Co103 O128 1.941 . S
C104 O105 1.258 1_554 S
C104 O106 1.263 . S
O105 Co102 1.970 . S
O105 C104 1.258 1_556 S
O106 Co103 1.966 . S
O106 C104 1.263 . S
C107 O108 1.235 . S
C107 O134 1.289 . S
O108 C107 1.235 . S
C109 C111 1.400 . S
C109 N112 1.351 . S
C109 C114 1.501 . S
C110 C111 1.387 . S
C110 N113 1.341 . S
C111 C109 1.400 . S
C111 C110 1.387 . S
N112 Co103 2.022 . S
N112 C109 1.351 . S
N112 N113 1.365 . S
N113 C110 1.341 . S
N113 N112 1.365 . S
N113 H133 0.862 . S
C114 C109 1.501 . S
C114 H115 0.961 . S
C114 H116 0.961 . S
C114 H117 0.960 . S
H115 C114 0.961 . S
H116 C114 0.961 . S
H117 C114 0.960 . S
C118 N119 1.342 1_556 S
C118 C122 1.401 1_556 S
C118 C123 1.499 . S
N119 Co102 1.989 1_554 S
N119 C118 1.342 1_554 S
N119 N120 1.388 . S
N120 Co103 1.993 . S
N120 N119 1.388 . S
N120 C121 1.346 . S
C121 N120 1.346 . S
C121 C122 1.396 . S
C121 C131 1.510 . S
C122 C118 1.401 1_554 S
C122 C121 1.396 . S
C123 C118 1.499 . S
C123 H124 0.959 . S
C123 H125 0.960 . S
C123 H126 0.961 . S
H124 C123 0.959 . S
H125 C123 0.960 . S
H126 C123 0.961 . S
O127 Co102 1.967 . S
O127 C135 1.258 1_556 S
O128 Co103 1.941 . S
O128 C135 1.266 . S
H129 C131 0.959 . S
H130 C131 0.961 . S
C131 C121 1.510 . S
C131 H129 0.959 . S
C131 H130 0.961 . S
C131 H132 0.960 . S
H132 C131 0.960 . S
H133 N113 0.862 . S
O134 Co102 1.920 . S
O134 C107 1.289 . S
C135 O127 1.258 1_554 S
C135 O128 1.266 . S
Co136 O139 1.970 . S
Co136 N153 1.989 . S
Co136 O161 1.967 . S
Co136 O168 1.920 . S
Co137 O140 1.966 . S
Co137 N146 2.022 . S
Co137 N154 1.993 . S
Co137 O162 1.941 . S
C138 O139 1.258 . S
C138 O140 1.263 . S
O139 Co136 1.970 . S
O139 C138 1.258 . S
O140 Co137 1.966 . S
O140 C138 1.263 . S
C141 O142 1.235 . S
C141 O168 1.289 . S
O142 C141 1.235 . S
C143 C145 1.400 . S
C143 N146 1.351 . S
C143 C148 1.501 . S
C144 C145 1.387 . S
C144 N147 1.341 . S
C145 C143 1.400 . S
C145 C144 1.387 . S
N146 Co137 2.022 . S
N146 C143 1.351 . S
N146 N147 1.365 . S
N147 C144 1.341 . S
N147 N146 1.365 . S
N147 H167 0.862 . S
C148 C143 1.501 . S
C148 H149 0.961 . S
C148 H150 0.961 . S
C148 H151 0.960 . S
H149 C148 0.961 . S
H150 C148 0.961 . S
H151 C148 0.960 . S
C152 N153 1.342 . S
C152 C156 1.401 . S
C152 C157 1.499 . S
N153 Co136 1.989 . S
N153 C152 1.342 . S
N153 N154 1.388 . S
N154 Co137 1.993 . S
N154 N153 1.388 . S
N154 C155 1.346 . S
C155 N154 1.346 . S
C155 C156 1.396 . S
C155 C165 1.510 . S
C156 C152 1.401 . S
C156 C155 1.396 . S
C157 C152 1.499 . S
C157 H158 0.959 . S
C157 H159 0.960 . S
C157 H160 0.961 . S
H158 C157 0.959 . S
H159 C157 0.960 . S
H160 C157 0.961 . S
O161 Co136 1.967 . S
O161 C169 1.258 . S
O162 Co137 1.941 . S
O162 C169 1.266 . S
H163 C165 0.959 . S
H164 C165 0.961 . S
C165 C155 1.510 . S
C165 H163 0.959 . S
C165 H164 0.961 . S
C165 H166 0.960 . S
H166 C165 0.960 . S
H167 N147 0.862 . S
O168 Co136 1.920 . S
O168 C141 1.289 . S
C169 O161 1.258 . S
C169 O162 1.266 . S
Co170 O173 1.970 . S
Co170 N187 1.989 . S
Co170 O195 1.967 . S
Co170 O202 1.920 . S
Co171 O174 1.966 . S
Co171 N180 2.022 . S
Co171 N188 1.993 . S
Co171 O196 1.941 . S
C172 O173 1.258 . S
C172 O174 1.263 . S
O173 Co170 1.970 . S
O173 C172 1.258 . S
O174 Co171 1.966 . S
O174 C172 1.263 . S
C175 O176 1.235 . S
C175 O202 1.289 . S
O176 C175 1.235 . S
C177 C179 1.400 . S
C177 N180 1.351 . S
C177 C182 1.501 . S
C178 C179 1.387 . S
C178 N181 1.341 . S
C179 C177 1.400 . S
C179 C178 1.387 . S
N180 Co171 2.022 . S
N180 C177 1.351 . S
N180 N181 1.365 . S
N181 C178 1.341 . S
N181 N180 1.365 . S
N181 H201 0.862 . S
C182 C177 1.501 . S
C182 H183 0.961 . S
C182 H184 0.961 . S
C182 H185 0.960 . S
H183 C182 0.961 . S
H184 C182 0.961 . S
H185 C182 0.960 . S
C186 N187 1.342 . S
C186 C190 1.401 . S
C186 C191 1.499 . S
N187 Co170 1.989 . S
N187 C186 1.342 . S
N187 N188 1.388 . S
N188 Co171 1.993 . S
N188 N187 1.388 . S
N188 C189 1.346 . S
C189 N188 1.346 . S
C189 C190 1.396 . S
C189 C199 1.510 . S
C190 C186 1.401 . S
C190 C189 1.396 . S
C191 C186 1.499 . S
C191 H192 0.959 . S
C191 H193 0.960 . S
C191 H194 0.961 1_565 S
H192 C191 0.959 . S
H193 C191 0.960 . S
H194 C191 0.961 1_545 S
O195 Co170 1.967 . S
O195 C203 1.258 . S
O196 Co171 1.941 . S
O196 C203 1.266 . S
H197 C199 0.959 . S
H198 C199 0.961 . S
C199 C189 1.510 . S
C199 H197 0.959 . S
C199 H198 0.961 . S
C199 H200 0.960 . S
H200 C199 0.960 . S
H201 N181 0.862 . S
O202 Co170 1.920 . S
O202 C175 1.289 . S
C203 O195 1.258 . S
C203 O196 1.266 . S
H204 C205 0.951 . S
C205 H204 0.951 . S
C205 C211 1.265 . S
H206 C211 0.950 . S
H207 C215 0.949 . S
H208 C216 0.950 . S
H209 C217 0.951 . S
H210 C218 0.951 . S
C211 C205 1.265 . S
C211 H206 0.950 . S
C211 C212 1.478 . S
C212 C211 1.478 . S
C212 C213 1.397 1_554 S
C212 C229 1.394 . S
C213 C212 1.397 1_556 S
C213 C214 1.438 . S
C213 C218 1.429 . S
C214 C213 1.438 . S
C214 C215 1.428 . S
C214 C227 1.394 1_556 S
C215 H207 0.949 . S
C215 C214 1.428 . S
C215 C216 1.345 . S
C216 H208 0.950 . S
C216 C215 1.345 . S
C216 C217 1.424 . S
C217 H209 0.951 . S
C217 C216 1.424 . S
C217 C218 1.347 . S
C218 H210 0.951 . S
C218 C213 1.429 . S
C218 C217 1.347 . S
H219 C220 0.951 . S
C220 H219 0.951 . S
C220 C226 1.265 . S
H221 C226 0.950 . S
H222 C230 0.949 . S
H223 C231 0.950 . S
H224 C232 0.951 . S
H225 C233 0.951 . S
C226 C220 1.265 . S
C226 H221 0.950 . S
C226 C227 1.478 . S
C227 C214 1.394 1_554 S
C227 C226 1.478 . S
C227 C228 1.397 . S
C228 C227 1.397 . S
C228 C229 1.438 . S
C228 C233 1.429 . S
C229 C212 1.394 . S
C229 C228 1.438 . S
C229 C230 1.428 . S
C230 H222 0.949 . S
C230 C229 1.428 . S
C230 C231 1.345 . S
C231 H223 0.950 . S
C231 C230 1.345 . S
C231 C232 1.424 . S
C232 H224 0.951 . S
C232 C231 1.424 . S
C232 C233 1.347 . S
C233 H225 0.951 . S
C233 C228 1.429 . S
C233 C232 1.347 . S
H234 C235 0.951 . S
C235 H234 0.951 . S
C235 C241 1.265 . S
H236 C241 0.950 . S
H237 C245 0.949 . S
H238 C246 0.950 . S
H239 C247 0.951 . S
H240 C248 0.951 . S
C241 C235 1.265 . S
C241 H236 0.950 . S
C241 C242 1.478 . S
C242 C241 1.478 . S
C242 C243 1.397 . S
C242 C259 1.394 . S
C243 C242 1.397 . S
C243 C244 1.438 . S
C243 C248 1.429 . S
C244 C243 1.438 . S
C244 C245 1.428 . S
C244 C257 1.394 . S
C245 H237 0.949 . S
C245 C244 1.428 . S
C245 C246 1.345 . S
C246 H238 0.950 . S
C246 C245 1.345 . S
C246 C247 1.424 . S
C247 H239 0.951 . S
C247 C246 1.424 . S
C247 C248 1.347 . S
C248 H240 0.951 . S
C248 C243 1.429 . S
C248 C247 1.347 . S
H249 C250 0.951 . S
C250 H249 0.951 . S
C250 C256 1.265 . S
H251 C256 0.950 . S
H252 C260 0.949 . S
H253 C261 0.950 . S
H254 C262 0.951 . S
H255 C263 0.951 . S
C256 C250 1.265 . S
C256 H251 0.950 . S
C256 C257 1.478 . S
C257 C244 1.394 . S
C257 C256 1.478 . S
C257 C258 1.397 . S
C258 C257 1.397 . S
C258 C259 1.438 . S
C258 C263 1.429 . S
C259 C242 1.394 . S
C259 C258 1.438 . S
C259 C260 1.428 . S
C260 H252 0.949 . S
C260 C259 1.428 . S
C260 C261 1.345 . S
C261 H253 0.950 . S
C261 C260 1.345 . S
C261 C262 1.424 . S
C262 H254 0.951 . S
C262 C261 1.424 . S
C262 C263 1.347 . S
C263 H255 0.951 . S
C263 C258 1.429 . S
C263 C262 1.347 . S
H264 C265 0.951 . S
C265 H264 0.951 . S
C265 C271 1.265 . S
H266 C271 0.950 . S
H267 C275 0.949 . S
H268 C276 0.950 . S
H269 C277 0.951 . S
H270 C278 0.951 . S
C271 C265 1.265 . S
C271 H266 0.950 . S
C271 C272 1.478 . S
C272 C271 1.478 . S
C272 C273 1.397 . S
C272 C289 1.394 . S
C273 C272 1.397 . S
C273 C274 1.438 . S
C273 C278 1.429 . S
C274 C273 1.438 . S
C274 C275 1.428 . S
C274 C287 1.394 . S
C275 H267 0.949 . S
C275 C274 1.428 . S
C275 C276 1.345 . S
C276 H268 0.950 . S
C276 C275 1.345 . S
C276 C277 1.424 . S
C277 H269 0.951 . S
C277 C276 1.424 . S
C277 C278 1.347 . S
C278 H270 0.951 . S
C278 C273 1.429 . S
C278 C277 1.347 . S
H279 C280 0.951 . S
C280 H279 0.951 . S
C280 C286 1.265 . S
H281 C286 0.950 . S
H282 C290 0.949 . S
H283 C291 0.950 . S
H284 C292 0.951 . S
H285 C293 0.951 . S
C286 C280 1.265 . S
C286 H281 0.950 . S
C286 C287 1.478 . S
C287 C274 1.394 . S
C287 C286 1.478 . S
C287 C288 1.397 . S
C288 C287 1.397 . S
C288 C289 1.438 . S
C288 C293 1.429 . S
C289 C272 1.394 . S
C289 C288 1.438 . S
C289 C290 1.428 . S
C290 H282 0.949 . S
C290 C289 1.428 . S
C290 C291 1.345 . S
C291 H283 0.950 . S
C291 C290 1.345 . S
C291 C292 1.424 . S
C292 H284 0.951 . S
C292 C291 1.424 . S
C292 C293 1.347 . S
C293 H285 0.951 . S
C293 C288 1.429 . S
C293 C292 1.347 . S
H294 C295 0.951 . S
C295 H294 0.951 . S
C295 C301 1.265 . S
H296 C301 0.950 . S
H297 C305 0.949 . S
H298 C306 0.950 . S
H299 C307 0.951 . S
H300 C308 0.951 . S
C301 C295 1.265 . S
C301 H296 0.950 . S
C301 C302 1.478 . S
C302 C301 1.478 . S
C302 C303 1.397 . S
C302 C319 1.394 . S
C303 C302 1.397 . S
C303 C304 1.438 . S
C303 C308 1.429 . S
C304 C303 1.438 . S
C304 C305 1.428 . S
C304 C317 1.394 . S
C305 H297 0.949 . S
C305 C304 1.428 . S
C305 C306 1.345 . S
C306 H298 0.950 . S
C306 C305 1.345 . S
C306 C307 1.424 . S
C307 H299 0.951 . S
C307 C306 1.424 . S
C307 C308 1.347 . S
C308 H300 0.951 . S
C308 C303 1.429 . S
C308 C307 1.347 . S
H309 C310 0.951 . S
C310 H309 0.951 . S
C310 C316 1.265 . S
H311 C316 0.950 . S
H312 C320 0.949 . S
H313 C321 0.950 . S
H314 C322 0.951 . S
H315 C323 0.951 . S
C316 C310 1.265 . S
C316 H311 0.950 . S
C316 C317 1.478 . S
C317 C304 1.394 . S
C317 C316 1.478 . S
C317 C318 1.397 . S
C318 C317 1.397 . S
C318 C319 1.438 . S
C318 C323 1.429 . S
C319 C302 1.394 . S
C319 C318 1.438 . S
C319 C320 1.428 . S
C320 H312 0.949 . S
C320 C319 1.428 . S
C320 C321 1.345 . S
C321 H313 0.950 . S
C321 C320 1.345 . S
C321 C322 1.424 . S
C322 H314 0.951 . S
C322 C321 1.424 . S
C322 C323 1.347 . S
C323 H315 0.951 . S
C323 C318 1.429 . S
C323 C322 1.347 . S
H324 C325 0.951 . S
C325 H324 0.951 . S
C325 C331 1.265 . S
H326 C331 0.950 . S
H327 C335 0.949 1_554 S
H328 C336 0.950 . S
H329 C337 0.951 . S
H330 C338 0.951 . S
C331 C325 1.265 . S
C331 H326 0.950 . S
C331 C332 1.478 . S
C332 C331 1.478 . S
C332 C333 1.397 . S
C332 C349 1.394 . S
C333 C332 1.397 . S
C333 C334 1.438 . S
C333 C338 1.429 . S
C334 C333 1.438 . S
C334 C335 1.428 . S
C334 C347 1.394 . S
C335 H327 0.949 1_556 S
C335 C334 1.428 . S
C335 C336 1.345 . S
C336 H328 0.950 . S
C336 C335 1.345 . S
C336 C337 1.424 . S
C337 H329 0.951 . S
C337 C336 1.424 . S
C337 C338 1.347 . S
C338 H330 0.951 . S
C338 C333 1.429 . S
C338 C337 1.347 . S
H339 C340 0.951 . S
C340 H339 0.951 . S
C340 C346 1.265 . S
H341 C346 0.950 . S
H342 C350 0.949 . S
H343 C351 0.950 . S
H344 C352 0.951 . S
H345 C353 0.951 1_554 S
C346 C340 1.265 . S
C346 H341 0.950 . S
C346 C347 1.478 1_554 S
C347 C334 1.394 . S
C347 C346 1.478 1_556 S
C347 C348 1.397 . S
C348 C347 1.397 . S
C348 C349 1.438 . S
C348 C353 1.429 . S
C349 C332 1.394 . S
C349 C348 1.438 . S
C349 C350 1.428 . S
C350 H342 0.949 . S
C350 C349 1.428 . S
C350 C351 1.345 . S
C351 H343 0.950 . S
C351 C350 1.345 . S
C351 C352 1.424 . S
C352 H344 0.951 . S
C352 C351 1.424 . S
C352 C353 1.347 . S
C353 H345 0.951 1_556 S
C353 C348 1.429 . S
C353 C352 1.347 . S
H354 C355 0.951 . S
C355 H354 0.951 . S
C355 C361 1.265 . S
H356 C361 0.950 . S
H357 C365 0.949 . S
H358 C366 0.950 . S
H359 C367 0.951 . S
H360 C368 0.951 . S
C361 C355 1.265 . S
C361 H356 0.950 . S
C361 C362 1.478 . S
C362 C361 1.478 . S
C362 C363 1.397 . S
C362 C379 1.394 . S
C363 C362 1.397 . S
C363 C364 1.438 . S
C363 C368 1.429 . S
C364 C363 1.438 . S
C364 C365 1.428 . S
C364 C377 1.394 . S
C365 H357 0.949 . S
C365 C364 1.428 . S
C365 C366 1.345 . S
C366 H358 0.950 . S
C366 C365 1.345 . S
C366 C367 1.424 . S
C367 H359 0.951 . S
C367 C366 1.424 . S
C367 C368 1.347 . S
C368 H360 0.951 . S
C368 C363 1.429 . S
C368 C367 1.347 . S
H369 C370 0.951 . S
C370 H369 0.951 . S
C370 C376 1.265 . S
H371 C376 0.950 . S
H372 C380 0.949 . S
H373 C381 0.950 . S
H374 C382 0.951 1_655 S
H375 C383 0.951 . S
C376 C370 1.265 . S
C376 H371 0.950 . S
C376 C377 1.478 . S
C377 C364 1.394 . S
C377 C376 1.478 . S
C377 C378 1.397 . S
C378 C377 1.397 . S
C378 C379 1.438 . S
C378 C383 1.429 . S
C379 C362 1.394 . S
C379 C378 1.438 . S
C379 C380 1.428 . S
C380 H372 0.949 . S
C380 C379 1.428 . S
C380 C381 1.345 . S
C381 H373 0.950 . S
C381 C380 1.345 . S
C381 C382 1.424 . S
C382 H374 0.951 1_455 S
C382 C381 1.424 . S
C382 C383 1.347 . S
C383 H375 0.951 . S
C383 C378 1.429 . S
C383 C382 1.347 . S
H384 C385 0.951 . S
C385 H384 0.951 . S
C385 C391 1.265 . S
H386 C391 0.950 . S
H387 C395 0.949 . S
H388 C396 0.950 . S
H389 C397 0.951 . S
H390 C398 0.951 . S
C391 C385 1.265 . S
C391 H386 0.950 . S
C391 C392 1.478 . S
C392 C391 1.478 . S
C392 C393 1.397 . S
C392 C409 1.394 . S
C393 C392 1.397 . S
C393 C394 1.438 . S
C393 C398 1.429 . S
C394 C393 1.438 . S
C394 C395 1.428 . S
C394 C407 1.394 . S
C395 H387 0.949 . S
C395 C394 1.428 . S
C395 C396 1.345 . S
C396 H388 0.950 . S
C396 C395 1.345 . S
C396 C397 1.424 . S
C397 H389 0.951 . S
C397 C396 1.424 . S
C397 C398 1.347 . S
C398 H390 0.951 . S
C398 C393 1.429 . S
C398 C397 1.347 . S
H399 C400 0.951 . S
C400 H399 0.951 . S
C400 C406 1.265 . S
H401 C406 0.950 . S
H402 C410 0.949 . S
H403 C411 0.950 . S
H404 C412 0.951 . S
H405 C413 0.951 . S
C406 C400 1.265 . S
C406 H401 0.950 . S
C406 C407 1.478 . S
C407 C394 1.394 . S
C407 C406 1.478 . S
C407 C408 1.397 . S
C408 C407 1.397 . S
C408 C409 1.438 . S
C408 C413 1.429 . S
C409 C392 1.394 . S
C409 C408 1.438 . S
C409 C410 1.428 . S
C410 H402 0.949 . S
C410 C409 1.428 . S
C410 C411 1.345 . S
C411 H403 0.950 . S
C411 C410 1.345 . S
C411 C412 1.424 . S
C412 H404 0.951 . S
C412 C411 1.424 . S
C412 C413 1.347 . S
C413 H405 0.951 . S
C413 C408 1.429 . S
C413 C412 1.347 . S
H414 C415 0.951 . S
C415 H414 0.951 . S
C415 C421 1.265 . S
H416 C421 0.950 . S
H417 C425 0.949 1_554 S
H418 C426 0.950 . S
H419 C427 0.951 . S
H420 C428 0.951 . S
C421 C415 1.265 . S
C421 H416 0.950 . S
C421 C422 1.478 . S
C422 C421 1.478 . S
C422 C423 1.397 . S
C422 C439 1.394 . S
C423 C422 1.397 . S
C423 C424 1.438 . S
C423 C428 1.429 . S
C424 C423 1.438 . S
C424 C425 1.428 . S
C424 C437 1.394 . S
C425 H417 0.949 1_556 S
C425 C424 1.428 . S
C425 C426 1.345 . S
C426 H418 0.950 . S
C426 C425 1.345 . S
C426 C427 1.424 . S
C427 H419 0.951 . S
C427 C426 1.424 . S
C427 C428 1.347 . S
C428 H420 0.951 . S
C428 C423 1.429 . S
C428 C427 1.347 . S
H429 C430 0.951 . S
C430 H429 0.951 . S
C430 C436 1.265 . S
H431 C436 0.950 . S
H432 C440 0.949 . S
H433 C441 0.950 . S
H434 C442 0.951 . S
H435 C443 0.951 1_554 S
C436 C430 1.265 . S
C436 H431 0.950 . S
C436 C437 1.478 1_554 S
C437 C424 1.394 . S
C437 C436 1.478 1_556 S
C437 C438 1.397 . S
C438 C437 1.397 . S
C438 C439 1.438 . S
C438 C443 1.429 . S
C439 C422 1.394 . S
C439 C438 1.438 . S
C439 C440 1.428 . S
C440 H432 0.949 . S
C440 C439 1.428 . S
C440 C441 1.345 . S
C441 H433 0.950 . S
C441 C440 1.345 . S
C441 C442 1.424 . S
C442 H434 0.951 . S
C442 C441 1.424 . S
C442 C443 1.347 . S
C443 H435 0.951 1_556 S
C443 C438 1.429 . S
C443 C442 1.347 . S
H444 C445 0.951 . S
C445 H444 0.951 . S
C445 C451 1.265 . S
H446 C451 0.950 . S
H447 C455 0.949 . S
H448 C456 0.950 . S
H449 C457 0.951 . S
H450 C458 0.951 . S
C451 C445 1.265 . S
C451 H446 0.950 . S
C451 C452 1.478 . S
C452 C451 1.478 . S
C452 C453 1.397 . S
C452 C469 1.394 . S
C453 C452 1.397 . S
C453 C454 1.438 . S
C453 C458 1.429 . S
C454 C453 1.438 . S
C454 C455 1.428 . S
C454 C467 1.394 . S
C455 H447 0.949 . S
C455 C454 1.428 . S
C455 C456 1.345 . S
C456 H448 0.950 . S
C456 C455 1.345 . S
C456 C457 1.424 . S
C457 H449 0.951 . S
C457 C456 1.424 . S
C457 C458 1.347 . S
C458 H450 0.951 . S
C458 C453 1.429 . S
C458 C457 1.347 . S
H459 C460 0.951 . S
C460 H459 0.951 . S
C460 C466 1.265 . S
H461 C466 0.950 . S
H462 C470 0.949 . S
H463 C471 0.950 1_545 S
H464 C472 0.951 1_545 S
H465 C473 0.951 . S
C466 C460 1.265 . S
C466 H461 0.950 . S
C466 C467 1.478 . S
C467 C454 1.394 . S
C467 C466 1.478 . S
C467 C468 1.397 . S
C468 C467 1.397 . S
C468 C469 1.438 . S
C468 C473 1.429 . S
C469 C452 1.394 . S
C469 C468 1.438 . S
C469 C470 1.428 . S
C470 H462 0.949 . S
C470 C469 1.428 . S
C470 C471 1.345 . S
C471 H463 0.950 1_565 S
C471 C470 1.345 . S
C471 C472 1.424 . S
C472 H464 0.951 1_565 S
C472 C471 1.424 . S
C472 C473 1.347 . S
C473 H465 0.951 . S
C473 C468 1.429 . S
C473 C472 1.347 . S
H474 C475 0.951 . S
C475 H474 0.951 . S
C475 C481 1.265 . S
H476 C481 0.950 . S
H477 C485 0.949 . S
H478 C486 0.950 . S
H479 C487 0.951 1_556 S
H480 C488 0.951 . S
C481 C475 1.265 . S
C481 H476 0.950 . S
C481 C482 1.478 . S
C482 C481 1.478 . S
C482 C483 1.397 . S
C482 C499 1.394 . S
C483 C482 1.397 . S
C483 C484 1.438 . S
C483 C488 1.429 . S
C484 C483 1.438 . S
C484 C485 1.428 . S
C484 C497 1.394 . S
C485 H477 0.949 . S
C485 C484 1.428 . S
C485 C486 1.345 . S
C486 H478 0.950 . S
C486 C485 1.345 . S
C486 C487 1.424 . S
C487 H479 0.951 1_554 S
C487 C486 1.424 . S
C487 C488 1.347 . S
C488 H480 0.951 . S
C488 C483 1.429 . S
C488 C487 1.347 . S
H489 C490 0.951 . S
C490 H489 0.951 . S
C490 C496 1.265 . S
H491 C496 0.950 . S
H492 C500 0.949 . S
H493 C501 0.950 . S
H494 C502 0.951 . S
H495 C503 0.951 . S
C496 C490 1.265 . S
C496 H491 0.950 . S
C496 C497 1.478 . S
C497 C484 1.394 . S
C497 C496 1.478 . S
C497 C498 1.397 . S
C498 C497 1.397 . S
C498 C499 1.438 . S
C498 C503 1.429 . S
C499 C482 1.394 . S
C499 C498 1.438 . S
C499 C500 1.428 . S
C500 H492 0.949 . S
C500 C499 1.428 . S
C500 C501 1.345 . S
C501 H493 0.950 . S
C501 C500 1.345 . S
C501 C502 1.424 . S
C502 H494 0.951 . S
C502 C501 1.424 . S
C502 C503 1.347 . S
C503 H495 0.951 . S
C503 C498 1.429 . S
C503 C502 1.347 . S
H504 C505 0.951 . S
C505 H504 0.951 . S
C505 C511 1.265 . S
H506 C511 0.950 . S
H507 C515 0.949 . S
H508 C516 0.950 . S
H509 C517 0.951 . S
H510 C518 0.951 . S
C511 C505 1.265 . S
C511 H506 0.950 . S
C511 C512 1.478 . S
C512 C511 1.478 . S
C512 C513 1.397 . S
C512 C529 1.394 . S
C513 C512 1.397 . S
C513 C514 1.438 . S
C513 C518 1.429 . S
C514 C513 1.438 . S
C514 C515 1.428 . S
C514 C527 1.394 . S
C515 H507 0.949 . S
C515 C514 1.428 . S
C515 C516 1.345 . S
C516 H508 0.950 . S
C516 C515 1.345 . S
C516 C517 1.424 . S
C517 H509 0.951 . S
C517 C516 1.424 . S
C517 C518 1.347 . S
C518 H510 0.951 . S
C518 C513 1.429 . S
C518 C517 1.347 . S
H519 C520 0.951 . S
C520 H519 0.951 . S
C520 C526 1.265 . S
H521 C526 0.950 . S
H522 C530 0.949 . S
H523 C531 0.950 . S
H524 C532 0.951 . S
H525 C533 0.951 . S
C526 C520 1.265 . S
C526 H521 0.950 . S
C526 C527 1.478 . S
C527 C514 1.394 . S
C527 C526 1.478 . S
C527 C528 1.397 . S
C528 C527 1.397 . S
C528 C529 1.438 . S
C528 C533 1.429 . S
C529 C512 1.394 . S
C529 C528 1.438 . S
C529 C530 1.428 . S
C530 H522 0.949 . S
C530 C529 1.428 . S
C530 C531 1.345 . S
C531 H523 0.950 . S
C531 C530 1.345 . S
C531 C532 1.424 . S
C532 H524 0.951 . S
C532 C531 1.424 . S
C532 C533 1.347 . S
C533 H525 0.951 . S
C533 C528 1.429 . S
C533 C532 1.347 . S
H534 C535 0.951 . S
C535 H534 0.951 . S
C535 C541 1.265 . S
H536 C541 0.950 1_554 S
H537 C545 0.949 . S
H538 C546 0.950 . S
H539 C547 0.951 . S
H540 C548 0.951 . S
C541 C535 1.265 . S
C541 H536 0.950 1_556 S
C541 C542 1.478 . S
C542 C541 1.478 . S
C542 C543 1.397 . S
C542 C559 1.394 . S
C543 C542 1.397 . S
C543 C544 1.438 . S
C543 C548 1.429 . S
C544 C543 1.438 . S
C544 C545 1.428 1_655 S
C544 C557 1.394 . S
C545 H537 0.949 . S
C545 C544 1.428 1_455 S
C545 C546 1.345 . S
C546 H538 0.950 . S
C546 C545 1.345 . S
C546 C547 1.424 . S
C547 H539 0.951 . S
C547 C546 1.424 . S
C547 C548 1.347 1_455 S
C548 H540 0.951 . S
C548 C543 1.429 . S
C548 C547 1.347 1_655 S
H549 C550 0.951 . S
C550 H549 0.951 . S
C550 C556 1.265 1_455 S
H551 C556 0.950 . S
H552 C560 0.949 . S
H553 C561 0.950 . S
H554 C562 0.951 . S
H555 C563 0.951 . S
C556 C550 1.265 1_655 S
C556 H551 0.950 . S
C556 C557 1.478 . S
C557 C544 1.394 . S
C557 C556 1.478 . S
C557 C558 1.397 . S
C558 C557 1.397 . S
C558 C559 1.438 . S
C558 C563 1.429 . S
C559 C542 1.394 . S
C559 C558 1.438 . S
C559 C560 1.428 . S
C560 H552 0.949 . S
C560 C559 1.428 . S
C560 C561 1.345 . S
C561 H553 0.950 . S
C561 C560 1.345 . S
C561 C562 1.424 . S
C562 H554 0.951 . S
C562 C561 1.424 . S
C562 C563 1.347 . S
C563 H555 0.951 . S
C563 C558 1.429 . S
C563 C562 1.347 . S
H564 C565 0.951 . S
C565 H564 0.951 . S
C565 C571 1.265 . S
H566 C571 0.950 . S
H567 C575 0.949 . S
H568 C576 0.950 . S
H569 C577 0.951 . S
H570 C578 0.951 . S
C571 C565 1.265 . S
C571 H566 0.950 . S
C571 C572 1.478 . S
C572 C571 1.478 . S
C572 C573 1.397 1_545 S
C572 C589 1.394 . S
C573 C572 1.397 1_565 S
C573 C574 1.438 . S
C573 C578 1.429 . S
C574 C573 1.438 . S
C574 C575 1.428 . S
C574 C587 1.394 . S
C575 H567 0.949 . S
C575 C574 1.428 . S
C575 C576 1.345 . S
C576 H568 0.950 . S
C576 C575 1.345 . S
C576 C577 1.424 . S
C577 H569 0.951 . S
C577 C576 1.424 . S
C577 C578 1.347 . S
C578 H570 0.951 . S
C578 C573 1.429 . S
C578 C577 1.347 . S
H579 C580 0.951 . S
C580 H579 0.951 . S
C580 C586 1.265 . S
H581 C586 0.950 . S
H582 C590 0.949 . S
H583 C591 0.950 . S
H584 C592 0.951 . S
H585 C593 0.951 . S
C586 C580 1.265 . S
C586 H581 0.950 . S
C586 C587 1.478 . S
C587 C574 1.394 . S
C587 C586 1.478 . S
C587 C588 1.397 1_565 S
C588 C587 1.397 1_545 S
C588 C589 1.438 . S
C588 C593 1.429 . S
C589 C572 1.394 . S
C589 C588 1.438 . S
C589 C590 1.428 . S
C590 H582 0.949 . S
C590 C589 1.428 . S
C590 C591 1.345 . S
C591 H583 0.950 . S
C591 C590 1.345 . S
C591 C592 1.424 . S
C592 H584 0.951 . S
C592 C591 1.424 . S
C592 C593 1.347 . S
C593 H585 0.951 . S
C593 C588 1.429 . S
C593 C592 1.347 . S
H594 C595 0.951 . S
C595 H594 0.951 . S
C595 C601 1.265 . S
H596 C601 0.950 . S
H597 C605 0.949 . S
H598 C606 0.950 . S
H599 C607 0.951 . S
H600 C608 0.951 . S
C601 C595 1.265 . S
C601 H596 0.950 . S
C601 C602 1.478 . S
C602 C601 1.478 . S
C602 C603 1.397 . S
C602 C619 1.394 . S
C603 C602 1.397 . S
C603 C604 1.438 . S
C603 C608 1.429 . S
C604 C603 1.438 . S
C604 C605 1.428 . S
C604 C617 1.394 . S
C605 H597 0.949 . S
C605 C604 1.428 . S
C605 C606 1.345 . S
C606 H598 0.950 . S
C606 C605 1.345 . S
C606 C607 1.424 . S
C607 H599 0.951 . S
C607 C606 1.424 . S
C607 C608 1.347 . S
C608 H600 0.951 . S
C608 C603 1.429 . S
C608 C607 1.347 . S
H609 C610 0.951 1_455 S
C610 H609 0.951 1_655 S
C610 C616 1.265 1_655 S
H611 C616 0.950 1_655 S
H612 C620 0.949 . S
H613 C621 0.950 . S
H614 C622 0.951 . S
H615 C623 0.951 . S
C616 C610 1.265 1_455 S
C616 H611 0.950 1_455 S
C616 C617 1.478 . S
C617 C604 1.394 . S
C617 C616 1.478 . S
C617 C618 1.397 . S
C618 C617 1.397 . S
C618 C619 1.438 . S
C618 C623 1.429 . S
C619 C602 1.394 . S
C619 C618 1.438 . S
C619 C620 1.428 . S
C620 H612 0.949 . S
C620 C619 1.428 . S
C620 C621 1.345 . S
C621 H613 0.950 . S
C621 C620 1.345 . S
C621 C622 1.424 . S
C622 H614 0.951 . S
C622 C621 1.424 . S
C622 C623 1.347 . S
C623 H615 0.951 . S
C623 C618 1.429 . S
C623 C622 1.347 . S
H624 C625 0.951 . S
C625 H624 0.951 . S
C625 C631 1.265 . S
H626 C631 0.950 . S
H627 C635 0.949 . S
H628 C636 0.950 . S
H629 C637 0.951 . S
H630 C638 0.951 . S
C631 C625 1.265 . S
C631 H626 0.950 . S
C631 C632 1.478 . S
C632 C631 1.478 . S
C632 C633 1.397 . S
C632 C649 1.394 . S
C633 C632 1.397 . S
C633 C634 1.438 . S
C633 C638 1.429 . S
C634 C633 1.438 . S
C634 C635 1.428 . S
C634 C647 1.394 . S
C635 H627 0.949 . S
C635 C634 1.428 . S
C635 C636 1.345 . S
C636 H628 0.950 . S
C636 C635 1.345 . S
C636 C637 1.424 . S
C637 H629 0.951 . S
C637 C636 1.424 . S
C637 C638 1.347 . S
C638 H630 0.951 . S
C638 C633 1.429 . S
C638 C637 1.347 . S
H639 C640 0.951 . S
C640 H639 0.951 . S
C640 C646 1.265 . S
H641 C646 0.950 . S
H642 C650 0.949 . S
H643 C651 0.950 1_554 S
H644 C652 0.951 . S
H645 C653 0.951 . S
C646 C640 1.265 . S
C646 H641 0.950 . S
C646 C647 1.478 . S
C647 C634 1.394 . S
C647 C646 1.478 . S
C647 C648 1.397 . S
C648 C647 1.397 . S
C648 C649 1.438 . S
C648 C653 1.429 1_556 S
C649 C632 1.394 . S
C649 C648 1.438 . S
C649 C650 1.428 . S
C650 H642 0.949 . S
C650 C649 1.428 . S
C650 C651 1.345 . S
C651 H643 0.950 1_556 S
C651 C650 1.345 . S
C651 C652 1.424 1_556 S
C652 H644 0.951 . S
C652 C651 1.424 1_554 S
C652 C653 1.347 . S
C653 H645 0.951 . S
C653 C648 1.429 1_554 S
C653 C652 1.347 . S
C205 C2 1.601 . S
C220 C104 1.601 . S
C235 C138 1.600 . S
C250 C36 1.601 . S
C265 C70 1.585 . S
C280 C172 1.585 . S
C295 C9 1.088 . S
C310 C5 1.054 . S
C325 C43 1.013 . S
C340 C39 1.078 . S
C355 C77 1.087 1_554 S
C370 C73 1.047 . S
C385 C107 1.027 . S
C400 C111 0.961 . S
C415 C145 1.006 . S
C430 C141 1.007 . S
C445 C175 1.026 . S
C460 C179 1.072 1_554 S
C475 C20 1.576 . S
C490 C67 1.578 . S
C505 C54 1.541 . S
C520 C101 1.568 . S
C535 C135 1.565 1_556 S
C550 C88 1.546 . S
C565 C122 1.586 . S
C580 C169 1.585 . S
C595 C203 1.599 . S
C610 C156 1.600 . S
C625 C190 1.574 1_545 S
C640 C33 1.576 1_556 S
