# Generated by pormake.
# Topology smm, (6)-cn, num edge types: 1
# Building blocks:
#     Node 0, Type 0, BuildingBlock: INOVEN_clean_sbu_0, # of connection points: 6
#     Node 1, Type 0, BuildingBlock: INOVEN_clean_sbu_0, # of connection points: 6
#     Node 2, Type 0, BuildingBlock: INOVEN_clean_sbu_0, # of connection points: 6
#     Node 3, Type 0, BuildingBlock: INOVEN_clean_sbu_0, # of connection points: 6
#     Node 4, Type 0, BuildingBlock: INOVEN_clean_sbu_0, # of connection points: 6
#     Node 5, Type 0, BuildingBlock: INOVEN_clean_sbu_0, # of connection points: 6
#     Node 6, Type 0, BuildingBlock: INOVEN_clean_sbu_0, # of connection points: 6
#     Node 7, Type 0, BuildingBlock: INOVEN_clean_sbu_0, # of connection points: 6
#     Node 8, Type 0, BuildingBlock: INOVEN_clean_sbu_0, # of connection points: 6
#     Edge 9, Type (0, 0), BuildingBlock: ZUJKAS_clean_linker_0, # of connection points: 2
#     Edge 10, Type (0, 0), BuildingBlock: ZUJKAS_clean_linker_0, # of connection points: 2
#     Edge 11, Type (0, 0), BuildingBlock: ZUJKAS_clean_linker_0, # of connection points: 2
#     Edge 12, Type (0, 0), BuildingBlock: ZUJKAS_clean_linker_0, # of connection points: 2
#     Edge 13, Type (0, 0), BuildingBlock: ZUJKAS_clean_linker_0, # of connection points: 2
#     Edge 14, Type (0, 0), BuildingBlock: ZUJKAS_clean_linker_0, # of connection points: 2
#     Edge 15, Type (0, 0), BuildingBlock: ZUJKAS_clean_linker_0, # of connection points: 2
#     Edge 16, Type (0, 0), BuildingBlock: ZUJKAS_clean_linker_0, # of connection points: 2
#     Edge 17, Type (0, 0), BuildingBlock: ZUJKAS_clean_linker_0, # of connection points: 2
#     Edge 18, Type (0, 0), BuildingBlock: ZUJKAS_clean_linker_0, # of connection points: 2
#     Edge 19, Type (0, 0), BuildingBlock: ZUJKAS_clean_linker_0, # of connection points: 2
#     Edge 20, Type (0, 0), BuildingBlock: ZUJKAS_clean_linker_0, # of connection points: 2
#     Edge 21, Type (0, 0), BuildingBlock: ZUJKAS_clean_linker_0, # of connection points: 2
#     Edge 22, Type (0, 0), BuildingBlock: ZUJKAS_clean_linker_0, # of connection points: 2
#     Edge 23, Type (0, 0), BuildingBlock: ZUJKAS_clean_linker_0, # of connection points: 2
#     Edge 24, Type (0, 0), BuildingBlock: ZUJKAS_clean_linker_0, # of connection points: 2
#     Edge 25, Type (0, 0), BuildingBlock: ZUJKAS_clean_linker_0, # of connection points: 2
#     Edge 26, Type (0, 0), BuildingBlock: ZUJKAS_clean_linker_0, # of connection points: 2
#     Edge 27, Type (0, 0), BuildingBlock: ZUJKAS_clean_linker_0, # of connection points: 2
#     Edge 28, Type (0, 0), BuildingBlock: ZUJKAS_clean_linker_0, # of connection points: 2
#     Edge 29, Type (0, 0), BuildingBlock: ZUJKAS_clean_linker_0, # of connection points: 2
#     Edge 30, Type (0, 0), BuildingBlock: ZUJKAS_clean_linker_0, # of connection points: 2
#     Edge 31, Type (0, 0), BuildingBlock: ZUJKAS_clean_linker_0, # of connection points: 2
#     Edge 32, Type (0, 0), BuildingBlock: ZUJKAS_clean_linker_0, # of connection points: 2
#     Edge 33, Type (0, 0), BuildingBlock: ZUJKAS_clean_linker_0, # of connection points: 2
#     Edge 34, Type (0, 0), BuildingBlock: ZUJKAS_clean_linker_0, # of connection points: 2
#     Edge 35, Type (0, 0), BuildingBlock: ZUJKAS_clean_linker_0, # of connection points: 2
# Relax obj value: 0.056
# Max RMSD: 0.134
# Mean RMSD: 0.134
data_MOF--net-smm--node1-INOVEN_clean_sbu_0--edge1-ZUJKAS_clean_linker_0
_symmetry_space_group_name_H-M    P1
_symmetry_Int_Tables_number       1
_symmetry_cell_setting            triclinic
loop_
_symmetry_equiv_pos_as_xyz
'x, y, z'
_cell_length_a     85.634736
_cell_length_b     85.636618
_cell_length_c     18.618507
_cell_angle_alpha  89.953314
_cell_angle_beta   89.980264
_cell_angle_gamma 119.99791
loop_
_atom_site_label
_atom_site_type_symbol
_atom_site_fract_x
_atom_site_fract_y
_atom_site_fract_z
_atom_type_partial_charge
Gd0 Gd 0.06163 0.22006 0.97928 0.0
Gd1 Gd 1.02761 0.18484 0.0246 0.0
C2 C 1.02456 0.22051 0.01948 0.0
C3 C 0.08438 0.24887 0.91031 0.0
C4 C 0.08958 0.26796 0.89716 0.0
C5 C 0.09705 0.28105 0.95162 0.0
C6 C 0.08851 0.27349 0.82718 0.0
C7 C 0.10303 0.30491 0.86536 0.0
C8 C 0.09508 0.29172 0.81148 0.0
C9 C 0.10369 0.29931 0.93586 0.0
C10 C 0.0583 0.21336 0.12126 0.0
C11 C 0.06566 0.18519 -0.00129 0.0
C12 C 1.00353 0.15489 0.08292 0.0
C13 C 0.99606 0.1353 0.07405 0.0
C14 C 0.9778 0.1236 0.08951 0.0
C15 C 1.00662 0.1281 0.04905 0.0
C16 C 0.98059 0.09765 0.05498 0.0
C17 C 0.99898 0.10942 0.03994 0.0
C18 C 0.97013 0.105 0.08003 0.0
C19 C 1.03191 0.19136 0.882 0.0
O20 O 0.04004 0.22824 -0.01643 0.0
O21 O 1.01835 0.20455 0.0503 0.0
O22 O 0.08759 0.24453 0.97391 0.0
O23 O 0.06914 0.23642 0.88255 0.0
O24 O 0.07377 0.22202 0.08882 0.0
O25 O 0.04568 0.2103 0.07877 0.0
O26 O 0.04952 0.1773 0.02939 0.0
O27 O 0.07234 0.20101 0.96609 0.0
O28 O 0.99995 0.163 0.03136 0.0
O29 O 1.02008 0.16435 0.10688 0.0
O30 O 1.01631 0.18315 0.9131 0.0
O31 O 0.04405 0.19428 0.92644 0.0
H32 H 0.09812 0.27728 0.00615 0.0
H33 H 0.08302 0.26374 0.78397 0.0
H34 H 0.09453 0.29554 0.75647 0.0
H35 H 0.10951 0.30907 0.97886 0.0
H36 H 0.96941 0.12889 0.10879 0.0
H37 H 1.02072 0.13689 0.0361 0.0
H38 H 1.00737 0.10423 0.01992 0.0
H39 H 0.95602 0.09634 0.09307 0.0
Gd40 Gd 0.86044 0.86471 0.97699 0.0
Gd41 Gd 0.89594 0.86652 0.02243 0.0
C42 C 0.86065 0.82754 0.01728 0.0
C43 C 0.83176 0.85874 0.90738 0.0
C44 C 0.81302 0.84492 0.88966 0.0
C45 C 0.80076 0.8336 0.94212 0.0
C46 C 0.80697 0.84394 0.81893 0.0
C47 C 0.77641 0.82131 0.85366 0.0
C48 C 0.78892 0.83228 0.80106 0.0
C49 C 0.78263 0.82189 0.92425 0.0
C50 C 0.86713 0.86816 0.11896 0.0
C51 C 0.89479 0.90386 -0.00224 0.0
C52 C 0.92632 0.87351 0.07982 0.0
C53 C 0.94587 0.88618 0.06891 0.0
C54 C 0.95473 0.88586 0.00575 0.0
C55 C 0.95604 0.89826 0.12372 0.0
C56 C 0.98365 0.90916 0.05334 0.0
C57 C 0.97468 0.90965 0.11599 0.0
C58 C 0.97337 0.89718 -0.00186 0.0
C59 C 0.88962 0.86446 0.87977 0.0
O60 O 0.85284 0.83508 0.98041 0.0
O61 O 0.87648 0.83751 0.04873 0.0
O62 O 0.83523 0.86482 0.97338 0.0
O63 O 0.84473 0.85694 0.87854 0.0
O64 O 0.85834 0.87483 0.08651 0.0
O65 O 0.87036 0.85874 0.07646 0.0
O66 O 0.90288 0.89576 0.02803 0.0
O67 O 0.87902 0.8946 0.96514 0.0
O68 O 0.91797 0.8611 0.03086 0.0
O69 O 0.91659 0.88031 0.10381 0.0
O70 O 0.89802 0.85725 0.91073 0.0
O71 O 0.8864 0.87342 0.92444 0.0
H72 H 0.80507 0.83408 -0.00284 0.0
H73 H 0.81619 0.85252 0.77754 0.0
H74 H 0.78474 0.83196 0.74594 0.0
H75 H 0.77338 0.81373 0.96623 0.0
H76 H 0.94734 0.87668 0.96243 0.0
H77 H 0.94958 0.89878 0.173 0.0
H78 H 0.98205 0.91887 0.15922 0.0
H79 H 0.97978 0.8962 0.94955 0.0
Gd80 Gd 0.21653 1.02031 0.97519 0.0
Gd81 Gd 0.21555 0.05425 0.02163 0.0
C82 C 0.25424 0.0574 0.01248 0.0
C83 C 0.22217 0.99727 0.90652 0.0
C84 C 0.23565 0.99146 0.89546 0.0
C85 C 0.24169 0.98501 0.95235 0.0
C86 C 0.24152 0.99104 0.82545 0.0
C87 C 0.25854 0.97705 0.8686 0.0
C88 C 0.25287 0.98398 0.81214 0.0
C89 C 0.25299 0.97787 0.93901 0.0
C90 C 0.21385 0.02368 0.11777 0.0
C91 C 0.1778 1.01634 -0.00333 0.0
C92 C 0.20966 0.07823 0.08072 0.0
C93 C 0.19713 0.08524 0.07284 0.0
C94 C 0.17971 0.07461 0.04463 0.0
C95 C 0.20295 0.10313 0.09227 0.0
C96 C 0.17417 0.09987 0.05505 0.0
C97 C 0.19162 0.11038 0.08348 0.0
C98 C 0.1683 0.08184 0.0361 0.0
C99 C 0.21727 0.05001 0.87863 0.0
O100 O 0.24629 0.042 0.97621 0.0
O101 O 0.24464 0.06351 0.04532 0.0
O102 O 0.21407 0.99394 0.96898 0.0
O103 O 0.22583 1.01287 0.87949 0.0
O104 O 0.20683 1.00822 0.08533 0.0
O105 O 0.22323 0.03627 0.07484 0.0
O106 O 0.18617 0.03225 0.02896 0.0
O107 O 0.18685 1.00993 0.96163 0.0
O108 O 0.22103 0.08181 0.02789 0.0
O109 O 0.203 0.06179 0.10551 0.0
O110 O 0.22487 0.06559 0.90985 0.0
O111 O 0.20815 0.03785 0.92324 0.0
H112 H 0.23742 0.98515 0.00699 0.0
H113 H 0.23694 0.99576 0.78056 0.0
H114 H 0.25669 0.98338 0.75719 0.0
H115 H 0.25729 0.97288 -0.01615 0.0
H116 H 0.17499 0.06079 0.02871 0.0
H117 H 0.21635 0.11156 0.11408 0.0
H118 H 0.1965 0.12421 0.09961 0.0
H119 H 0.15502 0.07342 0.01343 0.0
Gd120 Gd 0.72816 0.55366 0.31509 0.0
Gd121 Gd 0.69424 0.51854 0.36127 0.0
C122 C 0.69107 0.5541 0.35447 0.0
C123 C 0.7509 0.58237 0.24549 0.0
C124 C 0.75606 0.60143 0.23191 0.0
C125 C 0.76386 0.61466 0.28573 0.0
C126 C 0.75458 0.60679 0.1621 0.0
C127 C 0.76932 0.6383 0.19917 0.0
C128 C 0.76106 0.62498 0.14595 0.0
C129 C 0.77041 0.63288 0.26951 0.0
C130 C 0.72483 0.54733 0.45739 0.0
C131 C 0.7323 0.51891 0.33647 0.0
C132 C 0.67014 0.4887 0.42015 0.0
C133 C 0.66266 0.46913 0.41101 0.0
C134 C 0.67296 0.46204 0.3821 0.0
C135 C 0.64464 0.45737 0.42983 0.0
C136 C 0.64714 0.43154 0.39086 0.0
C137 C 0.63694 0.43878 0.41984 0.0
C138 C 0.66529 0.44339 0.37242 0.0
C139 C 0.69854 0.52469 0.21839 0.0
O140 O 0.70644 0.56172 0.31787 0.0
O141 O 0.68504 0.53831 0.38647 0.0
O142 O 0.75413 0.57813 0.30925 0.0
O143 O 0.73565 0.56986 0.21794 0.0
O144 O 0.74031 0.55594 0.42494 0.0
O145 O 0.71223 0.54413 0.41467 0.0
O146 O 0.71621 0.51112 0.36755 0.0
O147 O 0.73889 0.53459 0.30286 0.0
O148 O 0.66654 0.49683 0.36873 0.0
O149 O 0.68673 0.4981 0.44373 0.0
O150 O 0.68294 0.51654 0.24952 0.0
O151 O 0.71068 0.52775 0.26301 0.0
H152 H 0.76526 0.61102 0.3401 0.0
H153 H 0.74883 0.59694 0.11935 0.0
H154 H 0.76017 0.62867 0.09106 0.0
H155 H 0.77648 0.64274 0.31203 0.0
H156 H 0.68686 0.47092 0.36654 0.0
H157 H 0.63646 0.46258 0.45211 0.0
H158 H 0.62303 0.43005 0.43556 0.0
H159 H 0.67346 0.43828 0.34936 0.0
Gd160 Gd 0.526 0.19874 0.33181 0.0
Gd161 Gd 0.56253 0.20159 0.36985 0.0
C162 C 0.52666 0.16195 0.36849 0.0
C163 C 0.495 0.1924 0.28326 0.0
C164 C 0.47721 0.17844 0.25528 0.0
C165 C 0.46174 0.17419 0.29571 0.0
C166 C 0.47512 0.17034 0.18759 0.0
C167 C 0.4423 0.15424 0.20136 0.0
C168 C 0.45782 0.15834 0.16094 0.0
C169 C 0.44455 0.16226 0.26929 0.0
C170 C 0.53697 0.20748 0.46892 0.0
C171 C 0.56111 0.23778 0.34266 0.0
C172 C 0.59133 0.20304 0.42033 0.0
C173 C 0.61116 0.21465 0.41123 0.0
C174 C 0.62017 0.21245 0.3523 0.0
C175 C 0.62137 0.22785 0.46277 0.0
C176 C 0.64911 0.23655 0.39624 0.0
C177 C 0.64008 0.2387 0.45527 0.0
C178 C 0.63889 0.22327 0.34487 0.0
C179 C 0.55751 0.20542 0.2296 0.0
O180 O 0.51722 0.16922 0.34377 0.0
O181 O 0.54397 0.17179 0.38494 0.0
O182 O 0.49822 0.19112 0.35105 0.0
O183 O 0.50936 0.19825 0.24246 0.0
O184 O 0.52852 0.21407 0.43378 0.0
O185 O 0.53855 0.1962 0.43123 0.0
O186 O 0.56851 0.23019 0.38132 0.0
O187 O 0.54576 0.228 0.30748 0.0
O188 O 0.58221 0.19278 0.36592 0.0
O189 O 0.58288 0.21027 0.45299 0.0
O190 O 0.57298 0.21399 0.26137 0.0
O191 O 0.54569 0.19443 0.27207 0.0
H192 H 0.46291 0.18046 0.34749 0.0
H193 H 0.48678 0.17344 0.15487 0.0
H194 H 0.45661 0.15232 0.10865 0.0
H195 H 0.43299 0.15978 0.30143 0.0
H196 H 0.61281 0.20229 0.31192 0.0
H197 H 0.61489 0.22982 0.50909 0.0
H198 H 0.64744 0.2489 0.4955 0.0
H199 H 0.64538 0.22101 0.29936 0.0
Gd200 Gd 0.8821 0.35179 0.31623 0.0
Gd201 Gd 0.88012 0.38533 0.36224 0.0
C202 C 0.91919 0.38918 0.35562 0.0
C203 C 0.88806 0.32917 0.24588 0.0
C204 C 0.90189 0.32429 0.22768 0.0
C205 C 0.91308 0.3231 0.27999 0.0
C206 C 0.90299 0.31951 0.15661 0.0
C207 C 0.92542 0.31128 0.19077 0.0
C208 C 0.91461 0.3131 0.1383 0.0
C209 C 0.92476 0.31668 0.26166 0.0
C210 C 0.87877 0.35493 0.45843 0.0
C211 C 0.84289 0.34676 0.33846 0.0
C212 C 0.8737 0.40902 0.42065 0.0
C213 C 0.86142 0.41632 0.41144 0.0
C214 C 0.86796 0.43467 0.42479 0.0
C215 C 0.8435 0.4055 0.38847 0.0
C216 C 0.83893 0.43146 0.39208 0.0
C217 C 0.83233 0.41299 0.37919 0.0
C218 C 0.85688 0.44217 0.41519 0.0
C219 C 0.88201 0.38106 0.21934 0.0
O220 O 0.91169 0.37389 0.31859 0.0
O221 O 0.90919 0.39492 0.38769 0.0
O222 O 0.88199 0.32648 0.31197 0.0
O223 O 0.88983 0.34397 0.21738 0.0
O224 O 0.87212 0.33949 0.42588 0.0
O225 O 0.88811 0.36764 0.41585 0.0
O226 O 0.85091 0.36289 0.36918 0.0
O227 O 0.85223 0.34046 0.30483 0.0
O228 O 0.8856 0.41288 0.3697 0.0
O229 O 0.86672 0.39242 0.44412 0.0
O230 O 0.88923 0.39667 0.25023 0.0
O231 O 0.87315 0.36889 0.26425 0.0
H232 H 0.91251 0.32672 0.33526 0.0
H233 H 0.89452 0.32036 0.11532 0.0
H234 H 0.91501 0.30942 0.08298 0.0
H235 H 0.9328 0.31537 0.30352 0.0
H236 H 0.88173 0.44325 0.44258 0.0
H237 H 0.83818 0.39131 0.37729 0.0
H238 H 0.81864 0.40439 0.36072 0.0
H239 H 0.86233 0.45636 0.42665 0.0
Gd240 Gd 0.39353 0.88742 0.6456 0.0
Gd241 Gd 0.36151 0.85031 0.69205 0.0
C242 C 0.35718 0.88609 0.69154 0.0
C243 C 0.41896 0.9154 0.58049 0.0
C244 C 0.4257 0.93497 0.56991 0.0
C245 C 0.43896 0.94793 0.61529 0.0
C246 C 0.41985 0.94092 0.51073 0.0
C247 C 0.44048 0.97233 0.54203 0.0
C248 C 0.42708 0.95934 0.49714 0.0
C249 C 0.44623 0.96638 0.60162 0.0
C250 C 0.38799 0.88253 0.78822 0.0
C251 C 0.39893 0.85223 0.65951 0.0
C252 C 0.33487 0.82189 0.7493 0.0
C253 C 0.32692 0.80223 0.74176 0.0
C254 C 0.33097 0.79483 0.68225 0.0
C255 C 0.31504 0.79069 0.79434 0.0
C256 C 0.31094 0.7644 0.72732 0.0
C257 C 0.30714 0.77197 0.78731 0.0
C258 C 0.32303 0.77611 0.675 0.0
C259 C 0.36777 0.85477 0.54975 0.0
O260 O 0.37174 0.89457 0.65095 0.0
O261 O 0.35216 0.8701 0.72037 0.0
O262 O 0.42103 0.90997 0.64379 0.0
O263 O 0.40348 0.90419 0.55093 0.0
O264 O 0.39404 0.89808 0.75709 0.0
O265 O 0.38641 0.87083 0.74352 0.0
O266 O 0.38347 0.8435 0.69457 0.0
O267 O 0.40442 0.8682 0.62911 0.0
O268 O 0.33311 0.83032 0.69392 0.0
O269 O 0.35094 0.83056 0.77812 0.0
O270 O 0.36102 0.83929 0.58154 0.0
O271 O 0.36899 0.86663 0.593 0.0
H272 H 0.44393 0.94385 0.66088 0.0
H273 H 0.40989 0.93134 0.47384 0.0
H274 H 0.42253 0.96338 0.45011 0.0
H275 H 0.45639 0.976 0.63776 0.0
H276 H 0.34015 0.80353 0.64109 0.0
H277 H 0.31184 0.79616 0.84089 0.0
H278 H 0.29816 0.76344 0.82929 0.0
H279 H 0.32614 0.77081 0.62774 0.0
Gd280 Gd 0.19315 0.53165 0.64936 0.0
Gd281 Gd 0.22864 0.53368 0.69562 0.0
C282 C 0.19349 0.49456 0.68968 0.0
C283 C 0.16447 0.52581 0.58016 0.0
C284 C 0.14506 0.51295 0.56956 0.0
C285 C 0.13337 0.51983 0.56106 0.0
C286 C 0.13811 0.49425 0.56421 0.0
C287 C 0.10801 0.48962 0.54016 0.0
C288 C 0.11974 0.48269 0.54953 0.0
C289 C 0.11509 0.50834 0.54655 0.0
C290 C 0.19943 0.53483 0.79182 0.0
C291 C 0.22731 0.57079 0.67004 0.0
C292 C 0.25899 0.54078 0.75371 0.0
C293 C 0.27845 0.55346 0.74254 0.0
C294 C 0.286 0.55771 0.67329 0.0
C295 C 0.28979 0.56097 0.80221 0.0
C296 C 0.31608 0.57625 0.7239 0.0
C297 C 0.30839 0.57228 0.79306 0.0
C298 C 0.30463 0.56892 0.66411 0.0
C299 C 0.22252 0.53165 0.55265 0.0
O300 O 0.1856 0.50204 0.65307 0.0
O301 O 0.20929 0.50458 0.72129 0.0
O302 O 0.16929 0.53429 0.64171 0.0
O303 O 0.17606 0.52139 0.55537 0.0
O304 O 0.19044 0.54124 0.75921 0.0
O305 O 0.20294 0.52563 0.74927 0.0
O306 O 0.23517 0.56278 0.7028 0.0
O307 O 0.21197 0.56139 0.6347 0.0
O308 O 0.25076 0.52842 0.70448 0.0
O309 O 0.24926 0.54763 0.77703 0.0
O310 O 0.23102 0.52459 0.58394 0.0
O311 O 0.21916 0.54054 0.59711 0.0
H312 H 0.13847 0.53422 0.56439 0.0
H313 H 0.14687 0.48861 0.57064 0.0
H314 H 0.11473 0.46834 0.54571 0.0
H315 H 0.1066 0.51424 0.5385 0.0
H316 H 0.27755 0.55222 0.62623 0.0
H317 H 0.28427 0.55786 0.85609 0.0
H318 H 0.31682 0.57755 0.84028 0.0
H319 H 0.31006 0.5719 0.6101 0.0
Gd320 Gd 0.54883 0.68563 0.64398 0.0
Gd321 Gd 0.5479 0.71974 0.68892 0.0
C322 C 0.58648 0.72242 0.68503 0.0
C323 C 0.55409 0.66235 0.57529 0.0
C324 C 0.56703 0.65594 0.56412 0.0
C325 C 0.56028 0.63748 0.5532 0.0
C326 C 0.58575 0.66778 0.56102 0.0
C327 C 0.59069 0.64262 0.53459 0.0
C328 C 0.59747 0.66118 0.54628 0.0
C329 C 0.57193 0.63088 0.5386 0.0
C330 C 0.54544 0.68894 0.78603 0.0
C331 C 0.51015 0.68183 0.66431 0.0
C332 C 0.54166 0.74381 0.74469 0.0
C333 C 0.52981 0.75154 0.73107 0.0
C334 C 0.53127 0.7611 0.66759 0.0
C335 C 0.51732 0.74997 0.7835 0.0
C336 C 0.5082 0.76769 0.71004 0.0
C337 C 0.5066 0.75788 0.77307 0.0
C338 C 0.52062 0.7691 0.65729 0.0
C339 C 0.54991 0.71535 0.5462 0.0
O340 O 0.57868 0.70701 0.6487 0.0
O341 O 0.57676 0.72867 0.7158 0.0
O342 O 0.54606 0.65904 0.63784 0.0
O343 O 0.55829 0.6782 0.54925 0.0
O344 O 0.53864 0.67348 0.75366 0.0
O345 O 0.55505 0.70154 0.74355 0.0
O346 O 0.51853 0.69774 0.69661 0.0
O347 O 0.5192 0.67541 0.62943 0.0
O348 O 0.55451 0.74755 0.69805 0.0
O349 O 0.53394 0.72712 0.76771 0.0
O350 O 0.55734 0.73096 0.57703 0.0
O351 O 0.54073 0.70326 0.59091 0.0
H352 H 0.54589 0.62813 0.55482 0.0
H353 H 0.59128 0.68211 0.56934 0.0
H354 H 0.61184 0.67058 0.5443 0.0
H355 H 0.56616 0.61658 0.52872 0.0
H356 H 0.5408 0.76265 0.62605 0.0
H357 H 0.51593 0.74271 0.83297 0.0
H358 H 0.497 0.75625 0.81443 0.0
H359 H 0.52245 0.77672 0.60853 0.0
H360 H 0.08994 0.32122 0.77562 0.0
H361 H 0.10457 0.3531 0.74115 0.0
H362 H 0.14934 0.36476 0.88014 0.0
H363 H 0.13505 0.33292 0.91367 0.0
H364 H 0.11625 0.38441 0.82917 0.0
H365 H 0.17328 0.3853 0.68376 0.0
H366 H 0.15301 0.36464 0.70713 0.0
H367 H 0.17004 0.37667 0.7738 0.0
C368 C 0.10295 0.33055 0.79859 0.0
C369 C 0.11134 0.32446 0.84723 0.0
C370 C 0.11124 0.34878 0.7791 0.0
C371 C 0.12817 0.36127 0.80722 0.0
C372 C 0.13641 0.35532 0.85687 0.0
H373 H 0.20445 0.47494 0.76946 0.0
H374 H 0.18786 0.44267 0.79498 0.0
C375 C 0.12811 0.33713 0.87662 0.0
C376 C 0.13726 0.38052 0.78483 0.0
H377 H 0.17539 0.41365 0.7044 0.0
C378 C 0.12911 0.3908 0.80139 0.0
C379 C 0.15403 0.38881 0.74852 0.0
C380 C 0.16307 0.37828 0.72659 0.0
C381 C 0.13758 0.4093 0.78477 0.0
C382 C 0.15447 0.41766 0.74921 0.0
C383 C 0.16246 0.40727 0.7317 0.0
C384 C 0.16445 0.43728 0.7321 0.0
C385 C 0.12864 0.41985 0.80771 0.0
C386 C 0.15697 0.44503 0.68713 0.0
C387 C 0.16644 0.46358 0.67246 0.0
C388 C 0.18365 0.47474 0.70206 0.0
C389 C 0.19124 0.46683 0.74576 0.0
C390 C 0.18176 0.44833 0.76048 0.0
H391 H 0.1182 0.41262 0.84955 0.0
H392 H 0.13872 0.43329 0.82892 0.0
H393 H 0.12196 0.42194 0.76059 0.0
H394 H 0.14382 0.43673 0.66323 0.0
H395 H 0.16022 0.46916 0.63827 0.0
H396 H 0.75247 0.7868 0.89905 0.0
H397 H 0.72047 0.76831 0.86805 0.0
H398 H 0.72418 0.81147 0.73638 0.0
H399 H 0.75601 0.83 0.76714 0.0
H400 H 0.69238 0.77449 0.89133 0.0
H401 H 0.70085 0.76894 0.59935 0.0
H402 H 0.71938 0.77683 0.66187 0.0
H403 H 0.71193 0.79187 0.62999 0.0
C404 C 0.74647 0.79237 0.86359 0.0
C405 C 0.75692 0.80985 0.83508 0.0
C406 C 0.72819 0.78175 0.84566 0.0
C407 C 0.71997 0.78834 0.79866 0.0
C408 C 0.7303 0.80587 0.77104 0.0
H409 H 0.60704 0.75452 0.75417 0.0
H410 H 0.6392 0.76949 0.78126 0.0
C411 C 0.74854 0.81646 0.78879 0.0
C412 C 0.70048 0.77723 0.78044 0.0
H413 H 0.67111 0.76053 0.63923 0.0
C414 C 0.68774 0.77132 0.83624 0.0
C415 C 0.69438 0.77281 0.70863 0.0
C416 C 0.70735 0.77778 0.64655 0.0
C417 C 0.66912 0.76167 0.82209 0.0
C418 C 0.66302 0.75811 0.75004 0.0
C419 C 0.67575 0.76346 0.69438 0.0
C420 C 0.64351 0.74914 0.73142 0.0
C421 C 0.65616 0.75529 0.88462 0.0
C422 C 0.63527 0.73301 0.69184 0.0
C423 C 0.61683 0.72445 0.67554 0.0
C424 C 0.60625 0.73189 0.69828 0.0
C425 C 0.61468 0.74828 0.73629 0.0
C426 C 0.63309 0.75683 0.75235 0.0
H427 H 0.66268 0.75429 0.93464 0.0
H428 H 0.65152 0.7651 0.89432 0.0
H429 H 0.64416 0.74193 0.87345 0.0
H430 H 0.64307 0.72689 0.67456 0.0
H431 H 0.61083 0.71187 0.64609 0.0
H432 H 0.25484 0.94595 0.92666 0.0
H433 H 0.27212 0.93104 0.89822 0.0
H434 H 0.30396 0.97305 0.74598 0.0
H435 H 0.28703 0.98828 0.77526 0.0
H436 H 0.27539 0.91826 0.76213 0.0
H437 H 0.34218 0.96963 0.86831 0.0
H438 H 0.32153 0.96919 0.89241 0.0
H439 H 0.33203 0.9782 0.80712 0.0
C440 C 0.26572 0.95221 0.88804 0.0
C441 C 0.26958 0.96838 0.85351 0.0
C442 C 0.2755 0.94358 0.87146 0.0
C443 C 0.28947 0.95102 0.82055 0.0
C444 C 0.29344 0.9672 0.78625 0.0
H445 H 0.36252 0.91842 0.63994 0.0
H446 H 0.34567 0.93366 0.66989 0.0
C447 C 0.28362 0.97581 0.80258 0.0
C448 C 0.2994 0.94148 0.80144 0.0
H449 H 0.34125 0.94569 0.80103 0.0
C450 C 0.28978 0.92421 0.77093 0.0
C451 C 0.31818 0.9493 0.81263 0.0
C452 C 0.32911 0.96753 0.84746 0.0
C453 C 0.29847 0.91467 0.75018 0.0
C454 C 0.31725 0.92245 0.76166 0.0
C455 C 0.32687 0.93973 0.79216 0.0
C456 C 0.32718 0.91289 0.74258 0.0
C457 C 0.28751 0.89655 0.71449 0.0
C458 C 0.32251 0.89617 0.77382 0.0
C459 C 0.33207 0.88736 0.75656 0.0
C460 C 0.34664 0.89515 0.70812 0.0
C461 C 0.35135 0.91196 0.67724 0.0
C462 C 0.34175 0.92073 0.69442 0.0
H463 H 0.27477 0.89484 0.6916 0.0
H464 H 0.29528 0.8947 0.67088 0.0
H465 H 0.28392 0.88575 0.75495 0.0
H466 H 0.3116 0.89003 0.81239 0.0
H467 H 0.32815 0.87453 0.78194 0.0
H468 H 0.41239 0.129 0.27437 0.0
H469 H 0.38147 0.1117 0.2308 0.0
H470 H 0.399 0.13437 0.01936 0.0
H471 H 0.42996 0.15241 0.06343 0.0
H472 H 0.3699 0.1361 0.06031 0.0
H473 H 0.3568 0.06693 0.10993 0.0
H474 H 0.36442 0.08049 0.1895 0.0
H475 H 0.37919 0.08635 0.11298 0.0
C476 C 0.40973 0.13033 0.21851 0.0
C477 C 0.42375 0.14221 0.17258 0.0
C478 C 0.39202 0.1202 0.19338 0.0
C479 C 0.38786 0.12147 0.12142 0.0
C480 C 0.40186 0.13304 0.07499 0.0
H481 H 0.27898 0.04981 0.95182 0.0
H482 H 0.31166 0.06556 0.97121 0.0
C483 C 0.41961 0.14325 0.10017 0.0
C484 C 0.36878 0.11164 0.09621 0.0
H485 H 0.3307 0.0701 0.09271 0.0
C486 C 0.3614 0.12164 0.06667 0.0
C487 C 0.35767 0.09272 0.10333 0.0
C488 C 0.36498 0.08098 0.12994 0.0
C489 C 0.34314 0.11337 0.04669 0.0
C490 C 0.33177 0.09462 0.05802 0.0
C491 C 0.33931 0.0845 0.08489 0.0
C492 C 0.31197 0.08535 0.04436 0.0
C493 C 0.33626 0.12484 0.01329 0.0
C494 C 0.30119 0.09108 0.07941 0.0
C495 C 0.28254 0.08218 0.06811 0.0
C496 C 0.27416 0.06716 0.02213 0.0
C497 C 0.28496 0.06135 -0.01261 0.0
C498 C 0.30366 0.07033 -0.00148 0.0
H499 H 0.34733 0.13706 -0.01266 0.0
H500 H 0.3257 0.11717 0.97254 0.0
H501 H 0.33035 0.12937 0.05585 0.0
H502 H 0.30715 0.1023 0.11653 0.0
H503 H 0.27469 0.08696 0.09638 0.0
H504 H 0.91657 0.28238 0.10309 0.0
H505 H 0.93475 0.26863 0.07281 0.0
H506 H 0.97801 0.30763 0.20504 0.0
H507 H 0.95986 0.32154 0.23565 0.0
H508 H 0.96779 0.28278 0.00605 0.0
H509 H 0.9709 0.25994 0.28219 0.0
H510 H 0.95558 0.26775 0.25765 0.0
H511 H 0.97895 0.28366 0.27426 0.0
C512 C 0.93001 0.28817 0.12533 0.0
C513 C 0.93673 0.3031 0.1719 0.0
C514 C 0.94037 0.28023 0.10814 0.0
C515 C 0.95767 0.28693 0.13727 0.0
C516 C 0.96455 0.30197 0.18305 0.0
H517 H 0.03515 0.25554 -0.01757 0.0
H518 H 1.01965 0.27236 0.00935 0.0
C519 C 0.95416 0.30992 0.20049 0.0
C520 C 0.96838 0.27809 0.11937 0.0
H521 H 0.98794 0.25547 0.19304 0.0
C522 C 0.97225 0.27685 0.04694 0.0
C523 C 0.97401 0.27016 0.17265 0.0
C524 C 0.96953 0.27026 0.251 0.0
C525 C 0.98153 0.26788 0.02633 0.0
C526 C 0.9874 0.26018 0.07972 0.0
C527 C 0.98357 0.26148 0.15215 0.0
C528 C 0.99681 0.25003 0.06165 0.0
C529 C 0.98449 0.26626 0.94742 0.0
C530 C 0.98932 0.23196 0.08297 0.0
C531 C 0.9982 0.22236 0.06818 0.0
C532 C 1.01484 0.23061 0.03179 0.0
C533 C 1.0223 0.2487 0.01003 0.0
C534 C 1.01341 0.25834 0.02514 0.0
H535 H 0.97535 0.26881 0.91331 0.0
H536 H 0.99857 0.27636 0.93307 0.0
H537 H 0.98234 0.25266 0.93467 0.0
H538 H 0.97655 0.22526 0.11125 0.0
H539 H 0.99202 0.20847 0.08582 0.0
H540 H 0.82691 0.8023 0.96918 0.0
H541 H 0.81002 0.77004 -0.0017 0.0
H542 H 0.85477 0.77576 0.12448 0.0
H543 H 0.87169 0.80788 0.09623 0.0
H544 H 0.8192 0.7425 0.975 0.0
H545 H 0.8118 0.75229 0.26489 0.0
H546 H 0.8182 0.77004 0.19941 0.0
H547 H 0.8346 0.76458 0.23258 0.0
C548 C 0.8332 0.7967 0.00292 0.0
C549 C 0.85065 0.80777 0.03068 0.0
C550 C 0.82351 0.77825 0.01954 0.0
C551 C 0.83101 0.77056 0.06463 0.0
C552 C 0.84857 0.78147 0.0908 0.0
H553 H 0.80158 0.66649 0.24454 0.0
H554 H 0.81552 0.69825 0.2104 0.0
C555 C 0.85827 0.79985 0.07416 0.0
C556 C 0.8206 0.75114 0.08442 0.0
H557 H 0.80391 0.72265 0.22839 0.0
C558 C 0.8157 0.73812 0.03027 0.0
C559 C 0.81605 0.74547 0.1566 0.0
C560 C 0.82027 0.7588 0.21674 0.0
C561 C 0.80694 0.7196 0.04665 0.0
C562 C 0.80262 0.71393 0.11904 0.0
C563 C 0.80726 0.72697 0.17297 0.0
C564 C 0.79378 0.69458 0.14037 0.0
C565 C 0.80299 0.70632 -0.01346 0.0
C566 C 0.77674 0.68195 0.1135 0.0
C567 C 0.7687 0.66374 0.13305 0.0
C568 C 0.77745 0.6578 0.18055 0.0
C569 C 0.79434 0.67058 0.20856 0.0
C570 C 0.80239 0.68876 0.18876 0.0
H571 H 0.81116 0.71297 0.93792 0.0
H572 H 0.80566 0.69544 0.00351 0.0
H573 H 0.78855 0.70003 0.97156 0.0
H574 H 0.7696 0.68617 0.07757 0.0
H575 H 0.75556 0.65432 0.11137 0.0
H576 H 0.09295 0.46055 0.44838 0.0
H577 H 0.06125 0.44242 0.41251 0.0
H578 H 0.0474 0.47349 0.55384 0.0
H579 H 0.07889 0.49146 0.59079 0.0
H580 H 1.02907 0.4215 0.49703 0.0
H581 H 1.02843 0.4782 0.35527 0.0
H582 H 0.04906 0.4787 0.38012 0.0
H583 H 0.03645 0.48312 0.44617 0.0
C584 C 0.08313 0.46338 0.47262 0.0
C585 C 0.08856 0.47763 0.52198 0.0
C586 C 0.06503 0.45306 0.45172 0.0
C587 C 0.05202 0.45684 0.4794 0.0
C588 C 0.05727 0.47061 0.53049 0.0
H589 H 0.93876 0.41944 0.43686 0.0
H590 H 0.97097 0.43491 0.46305 0.0
C591 C 0.07531 0.48089 0.55149 0.0
C592 C 1.03297 0.44658 0.45466 0.0
H593 H 1.00006 0.45177 0.37349 0.0
C594 C 1.02274 0.42805 0.46943 0.0
C595 C 1.02475 0.45515 0.41852 0.0
C596 C 0.03525 0.47486 0.3984 0.0
C597 C 1.00432 0.418 0.45153 0.0
C598 C 0.99601 0.42667 0.41652 0.0
C599 C 1.00639 0.44513 0.40043 0.0
C600 C 0.97641 0.4171 0.39901 0.0
C601 C 0.99377 0.39838 0.47276 0.0
C602 C 0.9687 0.40205 0.35318 0.0
C603 C 0.95017 0.39308 0.33813 0.0
C604 C 0.939 0.39907 0.36819 0.0
C605 C 0.94688 0.41439 0.41275 0.0
C606 C 0.96534 0.42329 0.42786 0.0
H607 H 1.00092 0.39497 0.51419 0.0
H608 H 0.98026 0.39485 0.49382 0.0
H609 H 0.99184 0.38991 0.42484 0.0
H610 H 0.97702 0.39726 0.32889 0.0
H611 H 0.94461 0.38139 0.30332 0.0
H612 H 0.58856 0.61129 0.58201 0.0
H613 H 0.60702 0.59826 0.54556 0.0
H614 H 0.63898 0.64437 0.41048 0.0
H615 H 0.62039 0.65744 0.44589 0.0
H616 H 0.61155 0.58967 0.40234 0.0
H617 H 0.67705 0.63873 0.52677 0.0
H618 H 0.65596 0.63698 0.55362 0.0
H619 H 0.66662 0.64813 0.47125 0.0
C620 C 0.5995 0.6187 0.54449 0.0
C621 C 0.6029 0.63541 0.51669 0.0
C622 C 0.6101 0.61125 0.52398 0.0
C623 C 0.62446 0.62038 0.4757 0.0
C624 C 0.62816 0.63721 0.44875 0.0
H625 H 0.69952 0.58765 0.30352 0.0
H626 H 0.68349 0.60418 0.32696 0.0
C627 C 0.61752 0.64468 0.46917 0.0
C628 C 0.63492 0.61176 0.45129 0.0
H629 H 0.67656 0.6155 0.45681 0.0
C630 C 0.62578 0.59534 0.41414 0.0
C631 C 0.65352 0.61926 0.46604 0.0
C632 C 0.66391 0.63668 0.50704 0.0
C633 C 0.63466 0.58613 0.39184 0.0
C634 C 0.65313 0.59331 0.40856 0.0
C635 C 0.66241 0.60998 0.44413 0.0
C636 C 0.66277 0.58325 0.3929 0.0
C637 C 0.62417 0.56883 0.35007 0.0
C638 C 0.65658 0.56608 0.42268 0.0
C639 C 0.66563 0.5566 0.4092 0.0
C640 C 0.68124 0.56412 0.36611 0.0
C641 C 0.68751 0.58139 0.33663 0.0
C642 C 0.67839 0.59089 0.35012 0.0
H643 H 0.61236 0.56821 0.32257 0.0
H644 H 0.63279 0.56733 0.30923 0.0
H645 H 0.61906 0.55723 0.38763 0.0
H646 H 0.64483 0.56007 0.45725 0.0
H647 H 0.66045 0.54341 0.43339 0.0
H648 H 0.49073 0.13696 0.35137 0.0
H649 H 0.47545 0.10476 0.38065 0.0
H650 H 0.52621 0.1099 0.44417 0.0
H651 H 0.54156 0.14203 0.41609 0.0
H652 H 0.48063 0.07699 0.32839 0.0
H653 H 0.4946 0.08671 0.62068 0.0
H654 H 0.49751 0.10477 0.56201 0.0
H655 H 0.51442 0.09819 0.56576 0.0
C656 C 0.49867 0.13125 0.37144 0.0
C657 C 0.51739 0.14219 0.38189 0.0
C658 C 0.4899 0.11283 0.38816 0.0
C659 C 0.49962 0.10498 0.41598 0.0
C660 C 0.51835 0.11573 0.42443 0.0
H661 H 0.47607 0.99862 0.55215 0.0
H662 H 0.48973 0.03057 0.52118 0.0
C663 C 0.52713 0.13412 0.40786 0.0
C664 C 0.49026 0.08556 0.436 0.0
H665 H 0.48277 0.05688 0.57635 0.0
C666 C 0.48097 0.07258 0.38269 0.0
C667 C 0.49071 0.07981 0.50693 0.0
C668 C 0.49969 0.09308 0.56735 0.0
C669 C 0.47257 0.05402 0.39792 0.0
C670 C 0.47321 0.04828 0.46868 0.0
C671 C 0.48234 0.06127 0.5221 0.0
C672 C 0.46471 0.02888 0.4883 0.0
C673 C 0.46353 0.04071 0.33766 0.0
C674 C 0.44603 1.01735 0.48142 0.0
C675 C 0.43814 0.99907 0.49949 0.0
C676 C 0.44876 0.99194 0.52528 0.0
C677 C 0.46743 1.00364 0.5333 0.0
C678 C 0.4753 1.02191 0.51519 0.0
H679 H 0.46804 0.04718 0.28412 0.0
H680 H 0.46632 0.02939 0.3416 0.0
H681 H 0.44873 0.03504 0.34128 0.0
H682 H 0.43752 1.0225 0.46244 0.0
H683 H 0.42369 0.99055 0.49383 0.0
H684 H 0.18339 0.13341 0.00377 0.0
H685 H 0.16419 0.14691 -0.00788 0.0
H686 H 0.11871 0.0978 0.0703 0.0
H687 H 0.13792 0.08429 0.08356 0.0
H688 H 0.13182 0.13474 0.91066 0.0
H689 H 0.1204 0.13732 0.20323 0.0
H690 H 0.13818 0.13395 0.16842 0.0
H691 H 0.1153 0.11563 0.16928 0.0
C692 C 0.16934 0.1255 0.01907 0.0
C693 C 0.16225 0.1078 0.04523 0.0
C694 C 0.15835 0.13321 0.01191 0.0
C695 C 0.14008 0.12346 0.03125 0.0
C696 C 0.13285 0.10567 0.05607 0.0
H697 H 0.05543 0.15151 0.0514 0.0
H698 H 0.07309 0.13629 0.05552 0.0
C699 C 0.14381 0.09791 0.06297 0.0
C700 C 0.12865 0.13198 0.02543 0.0
H701 H 0.10449 0.14611 0.12484 0.0
C702 C 0.12585 0.13725 0.95745 0.0
C703 C 0.12085 0.13521 0.08651 0.0
C704 C 0.1239 0.13039 0.16115 0.0
C705 C 0.11525 0.14545 0.94876 0.0
C706 C 0.10759 0.14887 0.00997 0.0
C707 C 0.11034 0.1435 0.07792 0.0
C708 C 0.09674 0.15805 0.00501 0.0
C709 C 0.11205 0.15 0.87388 0.0
C710 C 0.10415 0.17546 0.97568 0.0
C711 C 0.09402 0.18419 0.9728 0.0
C712 C 0.07631 0.1758 -3e-05 0.0
C713 C 0.06898 0.1584 0.02973 0.0
C714 C 0.07908 0.14966 0.03226 0.0
H715 H 0.11424 0.14191 0.83267 0.0
H716 H 0.09814 0.14767 0.86803 0.0
H717 H 0.12167 0.16444 0.86285 0.0
H718 H 0.11789 0.18243 0.95594 0.0
H719 H 0.10018 0.19763 0.95009 0.0
H720 H 0.88235 0.92576 0.94682 0.0
H721 H 0.89742 0.95872 0.95211 0.0
H722 H 0.94283 0.96028 0.05895 0.0
H723 H 0.92801 0.92743 0.05351 0.0
H724 H 0.90904 0.98072 0.07587 0.0
H725 H 0.96653 0.9966 0.89418 0.0
H726 H 0.94656 0.97457 0.89772 0.0
H727 H 0.96357 0.98133 0.96594 0.0
C728 C 0.8956 0.9331 0.97103 0.0
C729 C 0.90397 0.92388 -0.00053 0.0
C730 C 0.90419 0.95195 0.97407 0.0
C731 C 0.92137 0.96199 0.00499 0.0
C732 C 0.92974 0.95285 0.03354 0.0
H733 H 0.99451 0.07591 0.09061 0.0
H734 H 0.98008 0.0431 0.0779 0.0
C735 C 0.92116 0.93402 0.03072 0.0
C736 C 0.93026 0.98197 0.00982 0.0
H737 H 0.96783 1.0211 0.95891 0.0
C738 C 0.92184 0.98956 0.04994 0.0
C739 C 0.94702 0.99349 0.97636 0.0
C740 C 0.95642 0.98614 0.93058 0.0
C741 C 0.92986 1.00833 0.05866 0.0
C742 C 0.9466 1.01987 0.02494 0.0
C743 C 0.95502 1.01227 -0.01524 0.0
C744 C 0.95555 0.03986 0.03065 0.0
C745 C 0.92055 1.01556 0.10558 0.0
C746 C 0.94676 0.04904 0.00685 0.0
C747 C 0.95496 0.06777 0.01415 0.0
C748 C 0.97224 0.07779 0.04471 0.0
C749 C 0.98125 0.06863 0.06654 0.0
C750 C 0.97298 0.04986 0.05954 0.0
H751 H 0.91083 1.00511 0.1431 0.0
H752 H 0.93045 0.02732 0.13744 0.0
H753 H 0.9129 1.01998 0.07113 0.0
H754 H 0.93353 0.04171 -0.0175 0.0
H755 H 0.94779 0.07442 -0.00462 0.0
H756 H 1.00332 0.92656 0.93284 0.0
H757 H 0.0361 0.94437 0.92035 0.0
H758 H 0.04217 0.93667 0.14528 0.0
H759 H 1.00949 0.91815 0.15761 0.0
H760 H 0.06077 0.97556 -0.01649 0.0
H761 H 0.07517 0.92118 0.05468 0.0
H762 H 0.05268 0.91683 0.03562 0.0
H763 H 0.06257 0.92497 0.12263 0.0
C764 C 1.0116 0.92843 0.97954 0.0
C765 C 1.00366 0.92074 0.04615 0.0
C766 C 1.03037 0.93876 0.97239 0.0
C767 C 0.04166 0.94162 0.03153 0.0
C768 C 1.0338 0.93433 0.09844 0.0
H769 H 0.15471 0.02409 0.06972 0.0
H770 H 0.12186 1.00619 0.07581 0.0
C771 C 1.01504 0.92394 0.10561 0.0
C772 C 0.06163 0.9524 0.02339 0.0
H773 H 0.10043 0.95091 0.04815 0.0
C774 C 0.06943 0.97014 -0.00263 0.0
C775 C 0.07296 0.94526 0.0403 0.0
C776 C 0.06543 0.92596 0.06416 0.0
C777 C 0.08821 0.98104 -0.01077 0.0
C778 C 0.09958 0.97415 0.00906 0.0
C779 C 0.09176 0.95629 0.03367 0.0
C780 C 0.11961 0.9852 0.0046 0.0
C781 C 0.09565 0.99972 0.95825 0.0
C782 C 0.12942 0.97918 0.96406 0.0
C783 C 0.14828 0.98931 0.96105 0.0
C784 C 0.15776 1.00568 -0.00127 0.0
C785 C 0.14789 1.01164 0.0395 0.0
C786 C 0.12905 1.00146 0.0427 0.0
H787 H 0.0853 1.00093 0.92661 0.0
H788 H 0.10004 1.00964 0.00273 0.0
H789 H 0.10746 1.00333 0.9231 0.0
H790 H 0.12247 0.96663 0.93449 0.0
H791 H 0.15541 0.98427 0.92924 0.0
H792 H 0.72264 0.48592 0.39529 0.0
H793 H 0.74052 0.47091 0.40154 0.0
H794 H 0.7839 0.51535 0.28817 0.0
H795 H 0.7662 0.53058 0.2821 0.0
H796 H 0.75549 0.46017 0.28994 0.0
H797 H 0.80866 0.5105 0.46899 0.0
H798 H 0.7873 0.50952 0.45567 0.0
H799 H 0.80474 0.51976 0.38895 0.0
C800 C 0.73599 0.49256 0.37164 0.0
C801 C 0.74299 0.50955 0.33851 0.0
C802 C 0.74618 0.48391 0.37522 0.0
C803 C 0.76365 0.49211 0.34629 0.0
C804 C 0.77058 0.50891 0.31209 0.0
H805 H 0.84805 0.46398 0.33034 0.0
H806 H 0.82936 0.47799 0.31719 0.0
C807 C 0.76039 0.51757 0.30834 0.0
C808 C 0.77457 0.48302 0.35175 0.0
H809 H 0.81359 0.4877 0.42152 0.0
C810 C 0.76817 0.46615 0.31888 0.0
C811 C 0.79111 0.49083 0.38952 0.0
C812 C 0.79834 0.50857 0.42839 0.0
C813 C 0.77803 0.45704 0.32154 0.0
C814 C 0.79457 0.46485 0.35942 0.0
C815 C 0.80094 0.48171 0.39238 0.0
C816 C 0.80559 0.45586 0.36541 0.0
C817 C 0.77083 0.43937 0.2822 0.0
C818 C 0.79852 0.43874 0.39718 0.0
C819 C 0.80919 0.43067 0.40476 0.0
C820 C 0.82726 0.43964 0.38153 0.0
C821 C 0.83427 0.45677 0.34963 0.0
C822 C 0.82358 0.46478 0.3418 0.0
H823 H 0.76097 0.4378 0.24006 0.0
H824 H 0.78192 0.43818 0.2567 0.0
H825 H 0.76383 0.4281 0.32097 0.0
H826 H 0.78483 0.43175 0.41746 0.0
H827 H 0.80344 0.4176 0.43054 0.0
H828 H 0.61358 0.40804 0.33778 0.0
H829 H 0.59931 0.37526 0.32565 0.0
H830 H 0.6475 0.37732 0.40607 0.0
H831 H 0.66178 0.4101 0.41961 0.0
H832 H 0.61123 0.35418 0.24547 0.0
H833 H 0.60654 0.34053 0.53888 0.0
H834 H 0.61053 0.36177 0.50243 0.0
H835 H 0.62856 0.35681 0.50646 0.0
C836 C 0.62112 0.40152 0.35331 0.0
C837 C 0.63878 0.4117 0.38027 0.0
C838 C 0.61298 0.38279 0.34588 0.0
C839 C 0.62225 0.37383 0.36581 0.0
C840 C 0.64001 0.38395 0.39128 0.0
H841 H 0.59441 0.26193 0.39503 0.0
H842 H 0.60907 0.29475 0.39609 0.0
C843 C 0.64821 0.4027 0.3984 0.0
C844 C 0.61326 0.35387 0.36059 0.0
H845 H 0.59808 0.31569 0.4617 0.0
C846 C 0.60829 0.34573 0.29267 0.0
C847 C 0.60944 0.3429 0.42228 0.0
C848 C 0.61388 0.35087 0.49679 0.0
C849 C 0.59997 0.32691 0.28464 0.0
C850 C 0.59613 0.31591 0.34642 0.0
C851 C 0.60103 0.3241 0.41434 0.0
C852 C 0.5873 0.2959 0.34219 0.0
C853 C 0.59583 0.31904 0.20995 0.0
C854 C 0.5701 0.28552 0.31155 0.0
C855 C 0.56167 0.26665 0.31042 0.0
C856 C 0.57018 0.25779 0.34076 0.0
C857 C 0.5874 0.26825 0.37128 0.0
C858 C 0.59584 0.28706 0.37198 0.0
H859 H 0.60399 0.32929 0.16869 0.0
H860 H 0.59839 0.30758 0.20533 0.0
H861 H 0.58139 0.31399 0.19791 0.0
H862 H 0.56304 0.29198 0.2897 0.0
H863 H 0.54836 0.25903 0.28697 0.0
H864 H 0.66878 0.25134 0.27313 0.0
H865 H 0.70155 0.26954 0.26065 0.0
H866 H 0.70753 0.26663 0.48936 0.0
H867 H 0.67486 0.24785 0.50207 0.0
H868 H 0.72537 0.30246 0.31828 0.0
H869 H 0.74177 0.25083 0.41138 0.0
H870 H 0.71914 0.24542 0.3883 0.0
H871 H 0.72847 0.25507 0.47443 0.0
C872 C 0.67706 0.25434 0.32074 0.0
C873 C 0.6691 0.24798 0.38859 0.0
C874 C 0.69581 0.26488 0.31354 0.0
C875 C 0.70706 0.26924 0.37388 0.0
C876 C 0.69918 0.26316 0.44179 0.0
H877 H 0.81916 0.35444 0.40677 0.0
H878 H 0.78635 0.33584 0.41306 0.0
C879 C 0.68044 0.2526 0.44906 0.0
C880 C 0.72699 0.2804 0.3659 0.0
H881 H 0.76643 0.28071 0.39842 0.0
C882 C 0.73435 0.29768 0.33554 0.0
C883 C 0.73871 0.27407 0.38742 0.0
C884 C 0.73164 0.25527 0.41655 0.0
C885 C 0.75308 0.30893 0.32747 0.0
C886 C 0.76483 0.30287 0.35159 0.0
C887 C 0.75745 0.28545 0.3806 0.0
C888 C 0.78481 0.31433 0.347 0.0
C889 C 0.76008 0.32709 0.29208 0.0
C890 C 0.79498 0.30829 0.30922 0.0
C891 C 0.8138 0.31884 0.30599 0.0
C892 C 0.82289 0.33566 0.34078 0.0
C893 C 0.81265 0.34164 0.37884 0.0
C894 C 0.79384 0.33106 0.38217 0.0
H895 H 0.74955 0.32755 0.2588 0.0
H896 H 0.76431 0.3376 0.33415 0.0
H897 H 0.77193 0.33046 0.25752 0.0
H898 H 0.78834 0.29539 0.28196 0.0
H899 H 0.82121 0.31376 0.27633 0.0
H900 H 0.49883 0.78493 0.81108 0.0
H901 H 0.48065 0.79934 0.79462 0.0
H902 H 0.47534 0.78631 0.56909 0.0
H903 H 0.49277 0.77108 0.58562 0.0
H904 H 0.48643 0.82794 0.71228 0.0
H905 H 0.42335 0.76706 0.62627 0.0
H906 H 0.44205 0.76585 0.66473 0.0
H907 H 0.44256 0.77191 0.57187 0.0
C908 C 0.49356 0.78482 0.75813 0.0
C909 C 0.49719 0.77665 0.69985 0.0
C910 C 0.48329 0.79325 0.74868 0.0
C911 C 0.47638 0.79371 0.68082 0.0
C912 C 0.4802 0.78583 0.62227 0.0
H913 H 0.43111 0.86423 0.58759 0.0
H914 H 0.45038 0.85058 0.58732 0.0
C915 C 0.49039 0.77731 0.63171 0.0
C916 C 0.46533 0.80258 0.67161 0.0
H917 H 0.42379 0.79487 0.61964 0.0
C918 C 0.47273 0.82072 0.69191 0.0
C919 C 0.44739 0.79312 0.64567 0.0
C920 C 0.43827 0.77337 0.6265 0.0
C921 C 0.4627 0.82962 0.68741 0.0
C922 C 0.44487 0.82024 0.66039 0.0
C923 C 0.43751 0.80213 0.63965 0.0
C924 C 0.43313 0.82848 0.65792 0.0
C925 C 0.4711 0.84878 0.71403 0.0
C926 C 0.41676 0.82035 0.69571 0.0
C927 C 0.40566 0.82797 0.69527 0.0
C928 C 0.41063 0.84398 0.65698 0.0
C929 C 0.42691 0.85199 0.61808 0.0
C930 C 0.43801 0.84426 0.61826 0.0
H931 H 0.48297 0.85246 0.74891 0.0
H932 H 0.47571 0.8581 0.66737 0.0
H933 H 0.46118 0.85088 0.7447 0.0
H934 H 0.41265 0.80816 0.72655 0.0
H935 H 0.39324 0.82136 0.72585 0.0
H936 H 0.25871 0.59452 0.73811 0.0
H937 H 0.27269 0.62729 0.7455 0.0
H938 H 0.22999 0.62528 0.61615 0.0
H939 H 0.21592 0.59244 0.60781 0.0
H940 H 0.26484 0.65264 0.57471 0.0
H941 H 0.25387 0.65441 0.86777 0.0
H942 H 0.26528 0.6424 0.84327 0.0
H943 H 0.24233 0.63396 0.8156 0.0
C944 C 0.25225 0.60099 0.71109 0.0
C945 C 0.2361 0.59077 0.67263 0.0
C946 C 0.26024 0.61976 0.71574 0.0
C947 C 0.25224 0.62872 0.68235 0.0
C948 C 0.23634 0.61863 0.64267 0.0
H949 H 0.27613 0.73866 0.76009 0.0
H950 H 0.26198 0.70594 0.74766 0.0
C951 C 0.22831 0.59985 0.63804 0.0
C952 C 0.26049 0.6486 0.68871 0.0
H953 H 0.27233 0.68256 0.81045 0.0
C954 C 0.26645 0.65919 0.6262 0.0
C955 C 0.26238 0.65712 0.75585 0.0
C956 C 0.25549 0.64641 0.82446 0.0
C957 C 0.27455 0.67807 0.62918 0.0
C958 C 0.27691 0.68662 0.69656 0.0
C959 C 0.27066 0.67601 0.75891 0.0
C960 C 0.28563 0.70654 0.70353 0.0
C961 C 0.28026 0.68872 0.56011 0.0
C962 C 0.30372 0.71776 0.68366 0.0
C963 C 0.31193 0.7365 0.69127 0.0
C964 C 0.30223 0.74442 0.71918 0.0
C965 C 0.28412 0.73307 0.73934 0.0
C966 C 0.27595 0.71435 0.73187 0.0
H967 H 0.27365 0.68004 0.51263 0.0
H968 H 0.27702 0.69976 0.56106 0.0
H969 H 0.29506 0.69487 0.55352 0.0
H970 H 0.31157 0.71201 0.66305 0.0
H971 H 0.32598 0.74474 0.67638 0.0
H972 H 0.48712 0.68948 0.73837 0.0
H973 H 0.45428 0.67146 0.74562 0.0
H974 H 0.45475 0.63219 0.60223 0.0
H975 H 0.48766 0.64993 0.59581 0.0
H976 H 0.42843 0.66104 0.64243 0.0
H977 H 0.42506 0.60063 0.76762 0.0
H978 H 0.4458 0.62191 0.76102 0.0
H979 H 0.43736 0.60714 0.6846 0.0
C980 C 0.48028 0.677 0.70838 0.0
C981 C 0.49011 0.67112 0.66684 0.0
C982 C 0.46146 0.6667 0.71259 0.0
C983 C 0.45201 0.65028 0.67555 0.0
C984 C 0.46173 0.64457 0.63278 0.0
H985 H 0.33789 0.57066 0.63237 0.0
H986 H 0.37067 0.58899 0.61853 0.0
C987 C 0.48058 0.65481 0.62879 0.0
C988 C 0.43198 0.63931 0.68114 0.0
H989 H 0.39731 0.59779 0.72938 0.0
C990 C 0.42164 0.64723 0.6617 0.0
C991 C 0.42308 0.62128 0.7064 0.0
C992 C 0.43338 0.61227 0.73178 0.0
C993 C 0.4027 0.63757 0.66587 0.0
C994 C 0.39384 0.61955 0.69083 0.0
C995 C 0.40413 0.61159 0.71002 0.0
C996 C 0.37388 0.60876 0.69811 0.0
C997 C 0.39229 0.64661 0.64242 0.0
C998 C 0.3648 0.61372 0.74778 0.0
C999 C 0.34606 0.60327 0.75588 0.0
C1000 C 0.336 0.58763 0.71433 0.0
C1001 C 0.34517 0.58274 0.66449 0.0
C1002 C 0.36392 0.59314 0.65681 0.0
H1003 H 0.40069 0.65884 0.60955 0.0
H1004 H 0.38021 0.63719 0.61083 0.0
H1005 H 0.38763 0.65074 0.69063 0.0
H1006 H 0.37223 0.62559 0.78093 0.0
H1007 H 0.33943 0.60748 0.79443 0.0
H1008 H 0.06371 0.20477 0.81007 0.0
H1009 H 0.06856 0.20909 0.6803 0.0
H1010 H 1.01161 0.1883 0.64882 0.0
H1011 H 1.00672 0.18428 0.77881 0.0
H1012 H 0.05336 0.18265 0.57395 0.0
H1013 H 0.03489 0.23571 0.53562 0.0
H1014 H 0.03972 0.2299 0.62284 0.0
H1015 H 1.01811 0.21596 0.58158 0.0
C1016 C 0.05226 0.2013 0.77548 0.0
C1017 C 0.03485 0.1943 0.80421 0.0
C1018 C 0.05504 0.20372 0.7015 0.0
C1019 C 0.04048 0.19922 0.65525 0.0
C1020 C 1.02307 0.19218 0.68385 0.0
H1021 H 1.0268 0.19816 0.19587 0.0
H1022 H 1.02284 0.19421 0.32606 0.0
C1023 C 1.02028 0.18979 0.7579 0.0
C1024 C 0.04343 0.20132 0.57683 0.0
H1025 H 0.0389 0.22256 0.42996 0.0
C1026 C 0.05031 0.19145 0.54241 0.0
C1027 C 0.03943 0.21282 0.53615 0.0
C1028 C 1.03278 0.22434 0.57088 0.0
C1029 C 0.05294 0.19249 0.46784 0.0
C1030 C 0.04878 0.20387 0.42714 0.0
C1031 C 0.042 0.2138 0.46157 0.0
C1032 C 0.05127 0.2056 0.34852 0.0
C1033 C 0.05975 0.18113 0.43293 0.0
C1034 C 0.06858 0.21331 0.31841 0.0
C1035 C 0.07089 0.2156 0.24411 0.0
C1036 C 0.05591 0.21028 0.19916 0.0
C1037 C 0.03858 0.2024 0.22942 0.0
C1038 C 0.03629 0.20015 0.30361 0.0
H1039 H 0.05849 0.17024 0.46913 0.0
H1040 H 0.05228 0.17497 0.3825 0.0
H1041 H 0.07421 0.18982 0.41912 0.0
H1042 H 0.08032 0.21784 0.35245 0.0
H1043 H 0.08439 0.22174 0.22198 0.0
H1044 H 0.89725 0.84689 0.77604 0.0
H1045 H 0.8937 0.84825 0.64588 0.0
H1046 H 0.87229 0.88385 0.67846 0.0
H1047 H 0.87617 0.88286 0.80822 0.0
H1048 H 0.86227 0.83871 0.56757 0.0
H1049 H 0.91285 0.91126 0.53277 0.0
H1050 H 0.91152 0.89885 0.61318 0.0
H1051 H 0.89588 0.90678 0.59912 0.0
C1052 C 0.89184 0.85503 0.75527 0.0
C1053 C 0.88703 0.8648 0.80187 0.0
C1054 C 0.8898 0.85578 0.68114 0.0
C1055 C 0.88301 0.86638 0.65271 0.0
C1056 C 0.87791 0.8759 0.69934 0.0
H1057 H 0.85824 0.88539 0.22019 0.0
H1058 H 0.86202 0.88502 0.35076 0.0
C1059 C 0.87999 0.8752 0.77337 0.0
C1060 C 0.88098 0.86724 0.57426 0.0
H1061 H 0.89477 0.89613 0.43144 0.0
C1062 C 0.86942 0.85124 0.53768 0.0
C1063 C 0.89032 0.88363 0.53572 0.0
C1064 C 0.90347 0.90109 0.57197 0.0
C1065 C 0.86677 0.85122 0.4634 0.0
C1066 C 0.87612 0.86761 0.42489 0.0
C1067 C 0.88762 0.88362 0.46143 0.0
C1068 C 0.87435 0.8683 0.3463 0.0
C1069 C 0.85377 0.83375 0.42685 0.0
C1070 C 0.8804 0.85935 0.30102 0.0
C1071 C 0.87828 0.85956 0.22684 0.0
C1072 C 0.87012 0.86876 0.19689 0.0
C1073 C 0.86448 0.87812 0.24213 0.0
C1074 C 0.86664 0.87792 0.31645 0.0
H1075 H 0.84457 0.82341 0.46591 0.0
H1076 H 0.84554 0.83593 0.38629 0.0
H1077 H 0.86149 0.82835 0.39871 0.0
H1078 H 0.88669 0.85214 0.32315 0.0
H1079 H 0.88288 0.85236 0.19305 0.0
H1080 H 0.19909 1.01821 0.80674 0.0
H1081 H 0.19873 1.0134 0.677 0.0
H1082 H 0.23462 0.0704 0.64541 0.0
H1083 H 0.23529 0.07526 0.77533 0.0
H1084 H 0.18754 0.0285 0.56951 0.0
H1085 H 0.25926 0.04739 0.53395 0.0
H1086 H 0.24843 0.04247 0.6208 0.0
H1087 H 0.25605 0.06407 0.57937 0.0
C1088 C 0.20702 0.02969 0.77212 0.0
C1089 C 0.2173 0.0471 0.80081 0.0
C1090 C 0.20677 0.02692 0.69816 0.0
C1091 C 0.21683 0.04151 0.65188 0.0
C1092 C 0.22705 0.05893 0.68044 0.0
H1093 H 0.23038 0.05517 0.19226 0.0
H1094 H 0.2303 0.05916 0.3224 0.0
C1095 C 0.22734 0.0617 0.75447 0.0
C1096 C 0.21615 0.03857 0.57346 0.0
H1097 H 0.2423 0.04327 0.42763 0.0
C1098 C 0.19948 0.03162 0.53844 0.0
C1099 C 0.23177 0.04267 0.53335 0.0
C1100 C 0.24987 0.04941 0.56874 0.0
C1101 C 0.19806 0.02901 0.46384 0.0
C1102 C 0.2137 0.03324 0.42372 0.0
C1103 C 0.23036 0.0401 0.45876 0.0
C1104 C 0.21313 0.03074 0.34509 0.0
C1105 C 0.17996 1.02213 0.42833 0.0
C1106 C 0.20352 1.01343 0.31507 0.0
C1107 C 0.20355 1.01112 0.2408 0.0
C1108 C 0.21328 0.02608 0.19573 0.0
C1109 C 0.22279 0.04341 0.22589 0.0
C1110 C 0.22277 0.0457 0.30006 0.0
H1111 H 0.17026 0.02344 0.46392 0.0
H1112 H 0.18134 0.02952 0.37752 0.0
H1113 H 0.17421 1.00764 0.41511 0.0
H1114 H 0.19623 1.0017 0.34917 0.0
H1115 H 0.19615 0.99763 0.21878 0.0
H1116 H 0.69326 0.53191 0.53147 0.0
H1117 H 0.68917 0.52812 0.66159 0.0
H1118 H 0.74667 0.55232 0.68933 0.0
H1119 H 0.75087 0.55607 0.55876 0.0
H1120 H 0.72498 0.51971 0.76996 0.0
H1121 H 0.70267 0.57005 0.80457 0.0
H1122 H 0.69059 0.55315 0.73755 0.0
H1123 H 0.71413 0.56904 0.72479 0.0
C1124 C 0.70503 0.53642 0.5653 0.0
C1125 C 0.7224 0.54443 0.53538 0.0
C1126 C 0.70268 0.53431 0.6395 0.0
C1127 C 0.71765 0.54023 0.68483 0.0
C1128 C 0.73498 0.54781 0.655 0.0
H1129 H 0.73038 0.53822 0.14677 0.0
H1130 H 0.73526 0.54216 0.01698 0.0
C1131 C 0.73736 0.54994 0.58067 0.0
C1132 C 0.71517 0.53841 0.76344 0.0
H1133 H 0.70018 0.55225 0.90619 0.0
C1134 C 0.71966 0.52688 0.79997 0.0
C1135 C 0.70817 0.54778 0.80199 0.0
C1136 C 0.70374 0.56083 0.76549 0.0
C1137 C 0.71697 0.52415 0.87426 0.0
C1138 C 0.70994 0.5335 0.91284 0.0
C1139 C 0.70553 0.54509 0.87628 0.0
C1140 C 0.70706 0.53143 -0.0087 0.0
C1141 C 0.72126 0.51097 0.9105 0.0
C1142 C 0.68967 0.52462 0.01978 0.0
C1143 C 0.68688 0.52254 0.09391 0.0
C1144 C 0.70147 0.52732 0.14047 0.0
C1145 C 0.7189 0.5344 0.11194 0.0
C1146 C 0.72169 0.53652 0.0379 0.0
H1147 H 0.72204 0.50161 0.87129 0.0
H1148 H 0.73452 0.51853 0.9377 0.0
H1149 H 0.71095 0.5029 0.95168 0.0
H1150 H 0.67824 0.52074 -0.01545 0.0
H1151 H 0.67333 0.5171 0.11471 0.0
H1152 H 0.52765 0.22558 0.56398 0.0
H1153 H 0.53151 0.22691 0.69449 0.0
H1154 H 0.55929 0.19666 0.67735 0.0
H1155 H 0.55469 0.19455 0.54751 0.0
H1156 H 0.53377 0.18263 0.77567 0.0
H1157 H 0.57456 0.25637 0.81951 0.0
H1158 H 0.55394 0.24993 0.77241 0.0
H1159 H 0.57097 0.24638 0.73146 0.0
C1160 C 0.53477 0.21942 0.58816 0.0
C1161 C 0.54092 0.20999 0.54604 0.0
C1162 C 0.53708 0.2203 0.66255 0.0
C1163 C 0.5459 0.21209 0.69546 0.0
C1164 C 0.55249 0.20312 0.65295 0.0
H1165 H 0.58323 0.22545 0.13186 0.0
H1166 H 0.57956 0.22678 0.00247 0.0
C1167 C 0.54994 0.202 0.57886 0.0
C1168 C 0.54714 0.21165 0.77449 0.0
H1169 H 0.56198 0.23815 0.92375 0.0
C1170 C 0.54004 0.19477 0.8081 0.0
C1171 C 0.55543 0.22752 0.81643 0.0
C1172 C 0.56432 0.24607 0.78308 0.0
C1173 C 0.54109 0.19329 0.88258 0.0
C1174 C 0.54882 0.20913 0.92487 0.0
C1175 C 0.55586 0.22602 0.89127 0.0
C1176 C 0.55068 0.20857 0.00363 0.0
C1177 C 0.53445 0.17481 0.91457 0.0
C1178 C 0.53563 0.19804 0.04736 0.0
C1179 C 0.53779 0.19689 0.12114 0.0
C1180 C 0.55493 0.20672 0.15239 0.0
C1181 C 0.56986 0.21772 0.10899 0.0
C1182 C 0.56777 0.21855 0.03517 0.0
H1183 H 0.53396 0.1651 0.87382 0.0
H1184 H 0.54321 0.17531 0.95951 0.0
H1185 H 0.52057 0.16954 0.93548 0.0
H1186 H 0.52225 0.19059 0.02442 0.0
H1187 H 0.5261 0.18822 0.15347 0.0
H1188 H 0.86113 0.32876 0.5592 0.0
H1189 H 0.86059 0.33281 0.68943 0.0
H1190 H 0.89419 0.39034 0.66286 0.0
H1191 H 0.89455 0.38641 0.53298 0.0
H1192 H 0.89007 0.34831 0.78209 0.0
H1193 H 0.85302 0.38606 0.78749 0.0
H1194 H 0.8535 0.37383 0.70936 0.0
H1195 H 0.87229 0.39578 0.72908 0.0
C1196 C 0.86826 0.34226 0.58125 0.0
C1197 C 0.87786 0.35727 0.53629 0.0
C1198 C 0.86796 0.34455 0.65545 0.0
C1199 C 0.87715 0.36189 0.68553 0.0
C1200 C 0.8867 0.37689 0.64055 0.0
H1201 H 0.89975 0.4062 0.11527 0.0
H1202 H 0.89877 0.40115 -0.01475 0.0
C1203 C 0.88699 0.37461 0.56647 0.0
C1204 C 0.87741 0.36428 0.76424 0.0
H1205 H 0.86722 0.38533 0.89642 0.0
C1206 C 0.88496 0.35628 0.80725 0.0
C1207 C 0.87076 0.37473 0.79665 0.0
C1208 C 0.86178 0.38296 0.7534 0.0
C1209 C 0.88639 0.35879 0.8819 0.0
C1210 C 0.8799 0.36939 0.91414 0.0
C1211 C 0.87226 0.37729 0.87125 0.0
C1212 C 0.88078 0.37232 -0.00747 0.0
C1213 C 0.8952 0.35044 0.9255 0.0
C1214 C 0.87087 0.35779 0.03921 0.0
C1215 C 0.87138 0.36064 0.11315 0.0
C1216 C 0.88179 0.37808 0.14147 0.0
C1217 C 0.89167 0.39263 0.0947 0.0
C1218 C 0.89111 0.38977 0.02064 0.0
H1219 H 0.90317 0.34635 0.89128 0.0
H1220 H 0.90421 0.35996 0.96714 0.0
H1221 H 0.88461 0.33823 0.95316 0.0
H1222 H 0.86256 0.34428 0.01834 0.0
H1223 H 0.86349 0.34922 0.14806 0.0
H1224 H 0.39733 0.87855 0.47485 0.0
H1225 H 0.39995 0.88355 0.34482 0.0
H1226 H 0.3455 0.83953 0.31821 0.0
H1227 H 0.34266 0.83522 0.44906 0.0
H1228 H 0.39685 0.86026 0.23779 0.0
H1229 H 0.34484 0.88041 0.20692 0.0
H1230 H 0.354 0.87951 0.29312 0.0
H1231 H 0.33699 0.85914 0.25135 0.0
C1232 C 0.38576 0.87047 0.44137 0.0
C1233 C 0.36957 0.85712 0.47161 0.0
C1234 C 0.38734 0.87305 0.36713 0.0
C1235 C 0.37275 0.86221 0.32208 0.0
C1236 C 0.35674 0.84837 0.35221 0.0
H1237 H 0.37973 0.85179 0.86104 0.0
H1238 H 0.37556 0.84665 -0.00938 0.0
C1239 C 0.35518 0.84583 0.42661 0.0
C1240 C 0.37453 0.86513 0.24347 0.0
H1241 H 0.35691 0.87575 0.09956 0.0
C1242 C 0.38814 0.86367 0.20751 0.0
C1243 C 0.3633 0.86982 0.20444 0.0
C1244 C 0.34906 0.87249 0.24088 0.0
C1245 C 0.39072 0.86658 0.13327 0.0
C1246 C 0.37913 0.87072 0.09387 0.0
C1247 C 0.36565 0.8724 0.12992 0.0
C1248 C 0.38094 0.87359 0.01526 0.0
C1249 C 0.40605 0.86555 0.09796 0.0
C1250 C 0.38476 0.89025 -0.01394 0.0
C1251 C 0.38691 0.89314 0.91195 0.0
C1252 C 0.38519 0.87937 0.86605 0.0
C1253 C 0.38106 0.86261 0.89525 0.0
C1254 C 0.37885 0.85971 0.96925 0.0
H1255 H 0.41639 0.86704 0.13766 0.0
H1256 H 0.4007 0.85222 0.07167 0.0
H1257 H 0.41266 0.87616 0.05624 0.0
H1258 H 0.38633 0.9011 0.02074 0.0
H1259 H 0.39003 0.90616 0.89065 0.0
H1260 H 0.21561 0.51954 0.86657 0.0
H1261 H 0.21946 0.51956 -0.00321 0.0
H1262 H 0.19423 0.55198 0.02286 0.0
H1263 H 0.19011 0.55181 0.89247 0.0
H1264 H 0.23782 0.54876 0.09084 0.0
H1265 H 0.16479 0.50873 0.15618 0.0
H1266 H 0.17336 0.51026 0.06629 0.0
H1267 H 0.17118 0.52851 0.10274 0.0
C1268 C 0.21087 0.52666 0.9001 0.0
C1269 C 0.20241 0.53553 0.86979 0.0
C1270 C 0.2131 0.52667 0.97433 0.0
C1271 C 0.20685 0.53551 0.01932 0.0
C1272 C 0.1988 0.54477 -0.01098 0.0
H1273 H 0.20775 0.54879 0.48088 0.0
H1274 H 0.20418 0.5499 0.35083 0.0
C1275 C 0.19654 0.54474 0.91469 0.0
C1276 C 0.20886 0.53505 0.09798 0.0
H1277 H 0.18498 0.52057 0.25432 0.0
C1278 C 0.22629 0.54257 0.12666 0.0
C1279 C 0.19375 0.52694 0.14429 0.0
C1280 C 0.17469 0.518 0.11598 0.0
C1281 C 0.22904 0.5424 0.20082 0.0
C1282 C 0.21393 0.53425 0.24707 0.0
C1283 C 0.1965 0.5268 0.21847 0.0
C1284 C 0.21593 0.53332 0.32547 0.0
C1285 C 0.24807 0.55121 0.22923 0.0
C1286 C 0.22344 0.52337 0.35399 0.0
C1287 C 0.22545 0.52267 0.42817 0.0
C1288 C 0.21992 0.53187 0.4747 0.0
C1289 C 0.21214 0.54158 0.44608 0.0
C1290 C 0.2101 0.54224 0.37197 0.0
H1291 H 0.25802 0.56049 0.18918 0.0
H1292 H 0.24942 0.5589 0.27909 0.0
H1293 H 0.25149 0.54063 0.24229 0.0
H1294 H 0.22771 0.51613 0.31886 0.0
H1295 H 0.2314 0.51502 0.44903 0.0
H1296 H 0.53169 0.68344 0.47534 0.0
H1297 H 0.53052 0.6785 0.34557 0.0
H1298 H 0.56618 0.73546 0.31197 0.0
H1299 H 0.56736 0.74052 0.44201 0.0
H1300 H 0.53438 0.71936 0.22467 0.0
H1301 H 0.57102 0.68107 0.21639 0.0
H1302 H 0.55262 0.67275 0.2791 0.0
H1303 H 0.57208 0.69461 0.29258 0.0
C1304 C 0.53939 0.69488 0.44029 0.0
C1305 C 0.54968 0.71235 0.46842 0.0
C1306 C 0.53875 0.69203 0.36634 0.0
C1307 C 0.54843 0.70659 0.31955 0.0
C1308 C 0.55869 0.72406 0.34749 0.0
H1309 H 0.56122 0.72047 0.86004 0.0
H1310 H 0.56099 0.72449 -0.01008 0.0
C1311 C 0.55937 0.72692 0.42154 0.0
C1312 C 0.54737 0.70366 0.2412 0.0
H1313 H 0.55742 0.68275 0.10813 0.0
C1314 C 0.53946 0.71141 0.199 0.0
C1315 C 0.55392 0.69319 0.20835 0.0
C1316 C 0.56303 0.68502 0.2512 0.0
C1317 C 0.53776 0.70882 0.12446 0.0
C1318 C 0.54445 0.69848 0.09149 0.0
C1319 C 0.55226 0.69063 0.13379 0.0
C1320 C 0.54397 0.69605 0.01285 0.0
C1321 C 0.52855 0.71692 0.08185 0.0
C1322 C 0.53471 0.6787 -0.017 0.0
C1323 C 0.53493 0.67636 0.90884 0.0
C1324 C 0.54453 0.69134 0.86375 0.0
C1325 C 0.55368 0.7087 0.89369 0.0
C1326 C 0.55347 0.71103 0.96773 0.0
H1327 H 0.5199 0.72004 0.11652 0.0
H1328 H 0.53893 0.7297 0.05683 0.0
H1329 H 0.52012 0.70768 0.03834 0.0
H1330 H 0.52738 0.66698 0.01715 0.0
H1331 H 0.52777 0.66284 0.88693 0.0
loop_
_geom_bond_atom_site_label_1
_geom_bond_atom_site_label_2
_geom_bond_distance
_geom_bond_site_symmetry_2
_ccdc_geom_bond_type
Gd0 C3 2.818 1_554 S
Gd0 O20 2.377 . S
Gd0 O22 2.448 . S
Gd0 O23 2.506 1_554 S
Gd0 O24 2.435 . S
Gd0 O25 2.717 . S
Gd0 O27 2.395 . S
Gd0 O31 2.327 1_554 S
Gd1 C12 2.820 . S
Gd1 O21 2.395 . S
Gd1 O25 2.335 1_655 S
Gd1 O26 2.375 1_654 S
Gd1 O28 2.445 1_554 S
Gd1 O29 2.512 . S
Gd1 O30 2.424 1_554 S
Gd1 O31 2.711 1_654 S
C2 O20 1.240 1_655 S
C2 O21 1.241 . S
C3 Gd0 2.818 1_556 S
C3 C4 1.510 . S
C3 O22 1.249 1_556 S
C3 O23 1.252 . S
C4 C3 1.510 . S
C4 C5 1.404 1_556 S
C4 C6 1.352 . S
C5 C4 1.404 1_554 S
C5 C9 1.389 . S
C5 H32 0.930 . S
C6 C4 1.352 . S
C6 C8 1.374 . S
C6 H33 0.931 . S
C7 C8 1.359 . S
C7 C9 1.364 1_556 S
C8 C6 1.374 . S
C8 C7 1.359 . S
C8 H34 0.931 . S
C9 C5 1.389 . S
C9 C7 1.364 1_554 S
C9 H35 0.931 . S
C10 O24 1.256 . S
C10 O25 1.257 . S
C11 O26 1.244 . S
C11 O27 1.238 1_556 S
C12 Gd1 2.820 . S
C12 C13 1.510 . S
C12 O28 1.249 1_554 S
C12 O29 1.252 . S
C13 C12 1.510 . S
C13 C14 1.404 1_554 S
C13 C15 1.352 . S
C14 C13 1.404 1_556 S
C14 C18 1.389 . S
C14 H36 0.930 . S
C15 C13 1.352 . S
C15 C17 1.374 . S
C15 H37 0.931 . S
C16 C17 1.359 . S
C16 C18 1.364 1_554 S
C17 C15 1.374 . S
C17 C16 1.359 . S
C17 H38 0.931 . S
C18 C14 1.389 . S
C18 C16 1.364 1_556 S
C18 H39 0.931 . S
C19 O30 1.256 1_455 S
C19 O31 1.257 . S
O20 Gd0 2.377 . S
O20 C2 1.240 1_455 S
O21 Gd1 2.395 . S
O21 C2 1.241 . S
O22 Gd0 2.448 . S
O22 C3 1.249 1_554 S
O23 Gd0 2.506 1_556 S
O23 C3 1.252 . S
O24 Gd0 2.435 . S
O24 C10 1.256 . S
O25 Gd0 2.717 . S
O25 Gd1 2.335 1_455 S
O25 C10 1.257 . S
O26 Gd1 2.375 1_456 S
O26 C11 1.244 . S
O27 Gd0 2.395 . S
O27 C11 1.238 1_554 S
O28 Gd1 2.445 1_556 S
O28 C12 1.249 1_556 S
O29 Gd1 2.512 . S
O29 C12 1.252 . S
O30 Gd1 2.424 1_556 S
O30 C19 1.256 1_655 S
O31 Gd0 2.327 1_556 S
O31 Gd1 2.711 1_456 S
O31 C19 1.257 . S
H32 C5 0.930 . S
H33 C6 0.931 . S
H34 C8 0.931 . S
H35 C9 0.931 . S
H36 C14 0.930 . S
H37 C15 0.931 . S
H38 C17 0.931 . S
H39 C18 0.931 . S
Gd40 C43 2.818 1_554 S
Gd40 O60 2.377 . S
Gd40 O62 2.448 . S
Gd40 O63 2.506 1_554 S
Gd40 O64 2.435 . S
Gd40 O65 2.717 . S
Gd40 O67 2.395 . S
Gd40 O71 2.327 1_554 S
Gd41 C52 2.820 . S
Gd41 O61 2.395 . S
Gd41 O65 2.335 . S
Gd41 O66 2.375 1_554 S
Gd41 O68 2.445 1_554 S
Gd41 O69 2.512 . S
Gd41 O70 2.424 1_554 S
Gd41 O71 2.711 1_554 S
C42 O60 1.240 . S
C42 O61 1.241 . S
C43 Gd40 2.818 1_556 S
C43 C44 1.510 . S
C43 O62 1.249 1_556 S
C43 O63 1.252 . S
C44 C43 1.510 . S
C44 C45 1.404 1_556 S
C44 C46 1.352 . S
C45 C44 1.404 1_554 S
C45 C49 1.389 . S
C45 H72 0.930 . S
C46 C44 1.352 . S
C46 C48 1.374 . S
C46 H73 0.931 . S
C47 C48 1.359 . S
C47 C49 1.364 1_556 S
C48 C46 1.374 . S
C48 C47 1.359 . S
C48 H74 0.931 . S
C49 C45 1.389 . S
C49 C47 1.364 1_554 S
C49 H75 0.931 . S
C50 O64 1.256 . S
C50 O65 1.257 . S
C51 O66 1.244 . S
C51 O67 1.238 1_556 S
C52 Gd41 2.820 . S
C52 C53 1.510 . S
C52 O68 1.249 1_554 S
C52 O69 1.252 . S
C53 C52 1.510 . S
C53 C54 1.404 1_554 S
C53 C55 1.352 . S
C54 C53 1.404 1_556 S
C54 C58 1.389 . S
C54 H76 0.930 . S
C55 C53 1.352 . S
C55 C57 1.374 . S
C55 H77 0.931 . S
C56 C57 1.359 . S
C56 C58 1.364 1_554 S
C57 C55 1.374 . S
C57 C56 1.359 . S
C57 H78 0.931 . S
C58 C54 1.389 . S
C58 C56 1.364 1_556 S
C58 H79 0.931 . S
C59 O70 1.256 . S
C59 O71 1.257 . S
O60 Gd40 2.377 . S
O60 C42 1.240 . S
O61 Gd41 2.395 . S
O61 C42 1.241 . S
O62 Gd40 2.448 . S
O62 C43 1.249 1_554 S
O63 Gd40 2.506 1_556 S
O63 C43 1.252 . S
O64 Gd40 2.435 . S
O64 C50 1.256 . S
O65 Gd40 2.717 . S
O65 Gd41 2.335 . S
O65 C50 1.257 . S
O66 Gd41 2.375 1_556 S
O66 C51 1.244 . S
O67 Gd40 2.395 . S
O67 C51 1.238 1_554 S
O68 Gd41 2.445 1_556 S
O68 C52 1.249 1_556 S
O69 Gd41 2.512 . S
O69 C52 1.252 . S
O70 Gd41 2.424 1_556 S
O70 C59 1.256 . S
O71 Gd40 2.327 1_556 S
O71 Gd41 2.711 1_556 S
O71 C59 1.257 . S
H72 C45 0.930 . S
H73 C46 0.931 . S
H74 C48 0.931 . S
H75 C49 0.931 . S
H76 C54 0.930 . S
H77 C55 0.931 . S
H78 C57 0.931 . S
H79 C58 0.931 . S
Gd80 C83 2.818 1_554 S
Gd80 O100 2.377 1_565 S
Gd80 O102 2.448 . S
Gd80 O103 2.506 1_554 S
Gd80 O104 2.435 . S
Gd80 O105 2.717 1_565 S
Gd80 O107 2.395 . S
Gd80 O111 2.327 1_564 S
Gd81 C92 2.820 . S
Gd81 O101 2.395 . S
Gd81 O105 2.335 . S
Gd81 O106 2.375 1_554 S
Gd81 O108 2.445 1_554 S
Gd81 O109 2.512 . S
Gd81 O110 2.424 1_554 S
Gd81 O111 2.711 1_554 S
C82 O100 1.240 . S
C82 O101 1.241 . S
C83 Gd80 2.818 1_556 S
C83 C84 1.510 . S
C83 O102 1.249 1_556 S
C83 O103 1.252 . S
C84 C83 1.510 . S
C84 C85 1.404 1_556 S
C84 C86 1.352 . S
C85 C84 1.404 1_554 S
C85 C89 1.389 . S
C85 H112 0.930 . S
C86 C84 1.352 . S
C86 C88 1.374 . S
C86 H113 0.931 . S
C87 C88 1.359 . S
C87 C89 1.364 1_556 S
C88 C86 1.374 . S
C88 C87 1.359 . S
C88 H114 0.931 . S
C89 C85 1.389 . S
C89 C87 1.364 1_554 S
C89 H115 0.931 . S
C90 O104 1.256 1_545 S
C90 O105 1.257 . S
C91 O106 1.244 1_565 S
C91 O107 1.238 1_556 S
C92 Gd81 2.820 . S
C92 C93 1.510 . S
C92 O108 1.249 1_554 S
C92 O109 1.252 . S
C93 C92 1.510 . S
C93 C94 1.404 1_554 S
C93 C95 1.352 . S
C94 C93 1.404 1_556 S
C94 C98 1.389 . S
C94 H116 0.930 . S
C95 C93 1.352 . S
C95 C97 1.374 . S
C95 H117 0.931 . S
C96 C97 1.359 . S
C96 C98 1.364 1_554 S
C97 C95 1.374 . S
C97 C96 1.359 . S
C97 H118 0.931 . S
C98 C94 1.389 . S
C98 C96 1.364 1_556 S
C98 H119 0.931 . S
C99 O110 1.256 . S
C99 O111 1.257 . S
O100 Gd80 2.377 1_545 S
O100 C82 1.240 . S
O101 Gd81 2.395 . S
O101 C82 1.241 . S
O102 Gd80 2.448 . S
O102 C83 1.249 1_554 S
O103 Gd80 2.506 1_556 S
O103 C83 1.252 . S
O104 Gd80 2.435 . S
O104 C90 1.256 1_565 S
O105 Gd80 2.717 1_545 S
O105 Gd81 2.335 . S
O105 C90 1.257 . S
O106 Gd81 2.375 1_556 S
O106 C91 1.244 1_545 S
O107 Gd80 2.395 . S
O107 C91 1.238 1_554 S
O108 Gd81 2.445 1_556 S
O108 C92 1.249 1_556 S
O109 Gd81 2.512 . S
O109 C92 1.252 . S
O110 Gd81 2.424 1_556 S
O110 C99 1.256 . S
O111 Gd80 2.327 1_546 S
O111 Gd81 2.711 1_556 S
O111 C99 1.257 . S
H112 C85 0.930 . S
H113 C86 0.931 . S
H114 C88 0.931 . S
H115 C89 0.931 . S
H116 C94 0.930 . S
H117 C95 0.931 . S
H118 C97 0.931 . S
H119 C98 0.931 . S
Gd120 C123 2.818 . S
Gd120 O140 2.377 . S
Gd120 O142 2.448 . S
Gd120 O143 2.506 . S
Gd120 O144 2.435 . S
Gd120 O145 2.717 . S
Gd120 O147 2.395 . S
Gd120 O151 2.327 . S
Gd121 C132 2.818 . S
Gd121 O141 2.395 . S
Gd121 O145 2.327 . S
Gd121 O146 2.377 . S
Gd121 O148 2.448 . S
Gd121 O149 2.506 . S
Gd121 O150 2.435 . S
Gd121 O151 2.717 . S
C122 O140 1.240 . S
C122 O141 1.240 . S
C123 Gd120 2.818 . S
C123 C124 1.510 . S
C123 O142 1.249 . S
C123 O143 1.252 . S
C124 C123 1.510 . S
C124 C125 1.404 . S
C124 C126 1.352 . S
C125 C124 1.404 . S
C125 C129 1.389 . S
C125 H152 0.930 . S
C126 C124 1.352 . S
C126 C128 1.374 . S
C126 H153 0.931 . S
C127 C128 1.359 . S
C127 C129 1.364 . S
C128 C126 1.374 . S
C128 C127 1.359 . S
C128 H154 0.931 . S
C129 C125 1.389 . S
C129 C127 1.364 . S
C129 H155 0.931 . S
C130 O144 1.256 . S
C130 O145 1.257 . S
C131 O146 1.240 . S
C131 O147 1.240 . S
C132 Gd121 2.818 . S
C132 C133 1.510 . S
C132 O148 1.249 . S
C132 O149 1.252 . S
C133 C132 1.510 . S
C133 C134 1.404 . S
C133 C135 1.352 . S
C134 C133 1.404 . S
C134 C138 1.389 . S
C134 H156 0.930 . S
C135 C133 1.352 . S
C135 C137 1.374 . S
C135 H157 0.931 . S
C136 C137 1.359 . S
C136 C138 1.364 . S
C137 C135 1.374 . S
C137 C136 1.359 . S
C137 H158 0.931 . S
C138 C134 1.389 . S
C138 C136 1.364 . S
C138 H159 0.931 . S
C139 O150 1.256 . S
C139 O151 1.257 . S
O140 Gd120 2.377 . S
O140 C122 1.240 . S
O141 Gd121 2.395 . S
O141 C122 1.240 . S
O142 Gd120 2.448 . S
O142 C123 1.249 . S
O143 Gd120 2.506 . S
O143 C123 1.252 . S
O144 Gd120 2.435 . S
O144 C130 1.256 . S
O145 Gd120 2.717 . S
O145 Gd121 2.327 . S
O145 C130 1.257 . S
O146 Gd121 2.377 . S
O146 C131 1.240 . S
O147 Gd120 2.395 . S
O147 C131 1.240 . S
O148 Gd121 2.448 . S
O148 C132 1.249 . S
O149 Gd121 2.506 . S
O149 C132 1.252 . S
O150 Gd121 2.435 . S
O150 C139 1.256 . S
O151 Gd120 2.327 . S
O151 Gd121 2.717 . S
O151 C139 1.257 . S
H152 C125 0.930 . S
H153 C126 0.931 . S
H154 C128 0.931 . S
H155 C129 0.931 . S
H156 C134 0.930 . S
H157 C135 0.931 . S
H158 C137 0.931 . S
H159 C138 0.931 . S
Gd160 C163 2.818 . S
Gd160 O180 2.377 . S
Gd160 O182 2.448 . S
Gd160 O183 2.506 . S
Gd160 O184 2.435 . S
Gd160 O185 2.717 . S
Gd160 O187 2.395 . S
Gd160 O191 2.327 . S
Gd161 C172 2.818 . S
Gd161 O181 2.395 . S
Gd161 O185 2.327 . S
Gd161 O186 2.377 . S
Gd161 O188 2.448 . S
Gd161 O189 2.506 . S
Gd161 O190 2.435 . S
Gd161 O191 2.717 . S
C162 O180 1.240 . S
C162 O181 1.240 . S
C163 Gd160 2.818 . S
C163 C164 1.510 . S
C163 O182 1.249 . S
C163 O183 1.252 . S
C164 C163 1.510 . S
C164 C165 1.404 . S
C164 C166 1.352 . S
C165 C164 1.404 . S
C165 C169 1.389 . S
C165 H192 0.930 . S
C166 C164 1.352 . S
C166 C168 1.374 . S
C166 H193 0.931 . S
C167 C168 1.359 . S
C167 C169 1.364 . S
C168 C166 1.374 . S
C168 C167 1.359 . S
C168 H194 0.931 . S
C169 C165 1.389 . S
C169 C167 1.364 . S
C169 H195 0.931 . S
C170 O184 1.256 . S
C170 O185 1.257 . S
C171 O186 1.240 . S
C171 O187 1.240 . S
C172 Gd161 2.818 . S
C172 C173 1.510 . S
C172 O188 1.249 . S
C172 O189 1.252 . S
C173 C172 1.510 . S
C173 C174 1.404 . S
C173 C175 1.352 . S
C174 C173 1.404 . S
C174 C178 1.389 . S
C174 H196 0.930 . S
C175 C173 1.352 . S
C175 C177 1.374 . S
C175 H197 0.931 . S
C176 C177 1.359 . S
C176 C178 1.364 . S
C177 C175 1.374 . S
C177 C176 1.359 . S
C177 H198 0.931 . S
C178 C174 1.389 . S
C178 C176 1.364 . S
C178 H199 0.931 . S
C179 O190 1.256 . S
C179 O191 1.257 . S
O180 Gd160 2.377 . S
O180 C162 1.240 . S
O181 Gd161 2.395 . S
O181 C162 1.240 . S
O182 Gd160 2.448 . S
O182 C163 1.249 . S
O183 Gd160 2.506 . S
O183 C163 1.252 . S
O184 Gd160 2.435 . S
O184 C170 1.256 . S
O185 Gd160 2.717 . S
O185 Gd161 2.327 . S
O185 C170 1.257 . S
O186 Gd161 2.377 . S
O186 C171 1.240 . S
O187 Gd160 2.395 . S
O187 C171 1.240 . S
O188 Gd161 2.448 . S
O188 C172 1.249 . S
O189 Gd161 2.506 . S
O189 C172 1.252 . S
O190 Gd161 2.435 . S
O190 C179 1.256 . S
O191 Gd160 2.327 . S
O191 Gd161 2.717 . S
O191 C179 1.257 . S
H192 C165 0.930 . S
H193 C166 0.931 . S
H194 C168 0.931 . S
H195 C169 0.931 . S
H196 C174 0.930 . S
H197 C175 0.931 . S
H198 C177 0.931 . S
H199 C178 0.931 . S
Gd200 C203 2.818 . S
Gd200 O220 2.377 . S
Gd200 O222 2.448 . S
Gd200 O223 2.506 . S
Gd200 O224 2.435 . S
Gd200 O225 2.717 . S
Gd200 O227 2.395 . S
Gd200 O231 2.327 . S
Gd201 C212 2.818 . S
Gd201 O221 2.395 . S
Gd201 O225 2.327 . S
Gd201 O226 2.377 . S
Gd201 O228 2.448 . S
Gd201 O229 2.506 . S
Gd201 O230 2.435 . S
Gd201 O231 2.717 . S
C202 O220 1.240 . S
C202 O221 1.240 . S
C203 Gd200 2.818 . S
C203 C204 1.510 . S
C203 O222 1.249 . S
C203 O223 1.252 . S
C204 C203 1.510 . S
C204 C205 1.404 . S
C204 C206 1.352 . S
C205 C204 1.404 . S
C205 C209 1.389 . S
C205 H232 0.930 . S
C206 C204 1.352 . S
C206 C208 1.374 . S
C206 H233 0.931 . S
C207 C208 1.359 . S
C207 C209 1.364 . S
C208 C206 1.374 . S
C208 C207 1.359 . S
C208 H234 0.931 . S
C209 C205 1.389 . S
C209 C207 1.364 . S
C209 H235 0.931 . S
C210 O224 1.256 . S
C210 O225 1.257 . S
C211 O226 1.240 . S
C211 O227 1.240 . S
C212 Gd201 2.818 . S
C212 C213 1.510 . S
C212 O228 1.249 . S
C212 O229 1.252 . S
C213 C212 1.510 . S
C213 C214 1.404 . S
C213 C215 1.352 . S
C214 C213 1.404 . S
C214 C218 1.389 . S
C214 H236 0.930 . S
C215 C213 1.352 . S
C215 C217 1.374 . S
C215 H237 0.931 . S
C216 C217 1.359 . S
C216 C218 1.364 . S
C217 C215 1.374 . S
C217 C216 1.359 . S
C217 H238 0.931 . S
C218 C214 1.389 . S
C218 C216 1.364 . S
C218 H239 0.931 . S
C219 O230 1.256 . S
C219 O231 1.257 . S
O220 Gd200 2.377 . S
O220 C202 1.240 . S
O221 Gd201 2.395 . S
O221 C202 1.240 . S
O222 Gd200 2.448 . S
O222 C203 1.249 . S
O223 Gd200 2.506 . S
O223 C203 1.252 . S
O224 Gd200 2.435 . S
O224 C210 1.256 . S
O225 Gd200 2.717 . S
O225 Gd201 2.327 . S
O225 C210 1.257 . S
O226 Gd201 2.377 . S
O226 C211 1.240 . S
O227 Gd200 2.395 . S
O227 C211 1.240 . S
O228 Gd201 2.448 . S
O228 C212 1.249 . S
O229 Gd201 2.506 . S
O229 C212 1.252 . S
O230 Gd201 2.435 . S
O230 C219 1.256 . S
O231 Gd200 2.327 . S
O231 Gd201 2.717 . S
O231 C219 1.257 . S
H232 C205 0.930 . S
H233 C206 0.931 . S
H234 C208 0.931 . S
H235 C209 0.931 . S
H236 C214 0.930 . S
H237 C215 0.931 . S
H238 C217 0.931 . S
H239 C218 0.931 . S
Gd240 C243 2.818 . S
Gd240 O260 2.377 . S
Gd240 O262 2.448 . S
Gd240 O263 2.506 . S
Gd240 O264 2.435 . S
Gd240 O265 2.717 . S
Gd240 O267 2.395 . S
Gd240 O271 2.327 . S
Gd241 C252 2.818 . S
Gd241 O261 2.395 . S
Gd241 O265 2.327 . S
Gd241 O266 2.377 . S
Gd241 O268 2.448 . S
Gd241 O269 2.506 . S
Gd241 O270 2.435 . S
Gd241 O271 2.717 . S
C242 O260 1.240 . S
C242 O261 1.240 . S
C243 Gd240 2.818 . S
C243 C244 1.510 . S
C243 O262 1.249 . S
C243 O263 1.252 . S
C244 C243 1.510 . S
C244 C245 1.404 . S
C244 C246 1.352 . S
C245 C244 1.404 . S
C245 C249 1.389 . S
C245 H272 0.930 . S
C246 C244 1.352 . S
C246 C248 1.374 . S
C246 H273 0.931 . S
C247 C248 1.359 . S
C247 C249 1.364 . S
C248 C246 1.374 . S
C248 C247 1.359 . S
C248 H274 0.931 . S
C249 C245 1.389 . S
C249 C247 1.364 . S
C249 H275 0.931 . S
C250 O264 1.256 . S
C250 O265 1.257 . S
C251 O266 1.240 . S
C251 O267 1.240 . S
C252 Gd241 2.818 . S
C252 C253 1.510 . S
C252 O268 1.249 . S
C252 O269 1.252 . S
C253 C252 1.510 . S
C253 C254 1.404 . S
C253 C255 1.352 . S
C254 C253 1.404 . S
C254 C258 1.389 . S
C254 H276 0.930 . S
C255 C253 1.352 . S
C255 C257 1.374 . S
C255 H277 0.931 . S
C256 C257 1.359 . S
C256 C258 1.364 . S
C257 C255 1.374 . S
C257 C256 1.359 . S
C257 H278 0.931 . S
C258 C254 1.389 . S
C258 C256 1.364 . S
C258 H279 0.931 . S
C259 O270 1.256 . S
C259 O271 1.257 . S
O260 Gd240 2.377 . S
O260 C242 1.240 . S
O261 Gd241 2.395 . S
O261 C242 1.240 . S
O262 Gd240 2.448 . S
O262 C243 1.249 . S
O263 Gd240 2.506 . S
O263 C243 1.252 . S
O264 Gd240 2.435 . S
O264 C250 1.256 . S
O265 Gd240 2.717 . S
O265 Gd241 2.327 . S
O265 C250 1.257 . S
O266 Gd241 2.377 . S
O266 C251 1.240 . S
O267 Gd240 2.395 . S
O267 C251 1.240 . S
O268 Gd241 2.448 . S
O268 C252 1.249 . S
O269 Gd241 2.506 . S
O269 C252 1.252 . S
O270 Gd241 2.435 . S
O270 C259 1.256 . S
O271 Gd240 2.327 . S
O271 Gd241 2.717 . S
O271 C259 1.257 . S
H272 C245 0.930 . S
H273 C246 0.931 . S
H274 C248 0.931 . S
H275 C249 0.931 . S
H276 C254 0.930 . S
H277 C255 0.931 . S
H278 C257 0.931 . S
H279 C258 0.931 . S
Gd280 C283 2.818 . S
Gd280 O300 2.377 . S
Gd280 O302 2.448 . S
Gd280 O303 2.506 . S
Gd280 O304 2.435 . S
Gd280 O305 2.717 . S
Gd280 O307 2.395 . S
Gd280 O311 2.327 . S
Gd281 C292 2.818 . S
Gd281 O301 2.395 . S
Gd281 O305 2.327 . S
Gd281 O306 2.377 . S
Gd281 O308 2.448 . S
Gd281 O309 2.506 . S
Gd281 O310 2.435 . S
Gd281 O311 2.717 . S
C282 O300 1.240 . S
C282 O301 1.240 . S
C283 Gd280 2.818 . S
C283 C284 1.510 . S
C283 O302 1.249 . S
C283 O303 1.252 . S
C284 C283 1.510 . S
C284 C285 1.404 . S
C284 C286 1.352 . S
C285 C284 1.404 . S
C285 C289 1.389 . S
C285 H312 0.930 . S
C286 C284 1.352 . S
C286 C288 1.374 . S
C286 H313 0.931 . S
C287 C288 1.359 . S
C287 C289 1.364 . S
C288 C286 1.374 . S
C288 C287 1.359 . S
C288 H314 0.931 . S
C289 C285 1.389 . S
C289 C287 1.364 . S
C289 H315 0.931 . S
C290 O304 1.256 . S
C290 O305 1.257 . S
C291 O306 1.240 . S
C291 O307 1.240 . S
C292 Gd281 2.818 . S
C292 C293 1.510 . S
C292 O308 1.249 . S
C292 O309 1.252 . S
C293 C292 1.510 . S
C293 C294 1.404 . S
C293 C295 1.352 . S
C294 C293 1.404 . S
C294 C298 1.389 . S
C294 H316 0.930 . S
C295 C293 1.352 . S
C295 C297 1.374 . S
C295 H317 0.931 . S
C296 C297 1.359 . S
C296 C298 1.364 . S
C297 C295 1.374 . S
C297 C296 1.359 . S
C297 H318 0.931 . S
C298 C294 1.389 . S
C298 C296 1.364 . S
C298 H319 0.931 . S
C299 O310 1.256 . S
C299 O311 1.257 . S
O300 Gd280 2.377 . S
O300 C282 1.240 . S
O301 Gd281 2.395 . S
O301 C282 1.240 . S
O302 Gd280 2.448 . S
O302 C283 1.249 . S
O303 Gd280 2.506 . S
O303 C283 1.252 . S
O304 Gd280 2.435 . S
O304 C290 1.256 . S
O305 Gd280 2.717 . S
O305 Gd281 2.327 . S
O305 C290 1.257 . S
O306 Gd281 2.377 . S
O306 C291 1.240 . S
O307 Gd280 2.395 . S
O307 C291 1.240 . S
O308 Gd281 2.448 . S
O308 C292 1.249 . S
O309 Gd281 2.506 . S
O309 C292 1.252 . S
O310 Gd281 2.435 . S
O310 C299 1.256 . S
O311 Gd280 2.327 . S
O311 Gd281 2.717 . S
O311 C299 1.257 . S
H312 C285 0.930 . S
H313 C286 0.931 . S
H314 C288 0.931 . S
H315 C289 0.931 . S
H316 C294 0.930 . S
H317 C295 0.931 . S
H318 C297 0.931 . S
H319 C298 0.931 . S
Gd320 C323 2.818 . S
Gd320 O340 2.377 . S
Gd320 O342 2.448 . S
Gd320 O343 2.506 . S
Gd320 O344 2.435 . S
Gd320 O345 2.717 . S
Gd320 O347 2.395 . S
Gd320 O351 2.327 . S
Gd321 C332 2.818 . S
Gd321 O341 2.395 . S
Gd321 O345 2.327 . S
Gd321 O346 2.377 . S
Gd321 O348 2.448 . S
Gd321 O349 2.506 . S
Gd321 O350 2.435 . S
Gd321 O351 2.717 . S
C322 O340 1.240 . S
C322 O341 1.240 . S
C323 Gd320 2.818 . S
C323 C324 1.510 . S
C323 O342 1.249 . S
C323 O343 1.252 . S
C324 C323 1.510 . S
C324 C325 1.404 . S
C324 C326 1.352 . S
C325 C324 1.404 . S
C325 C329 1.389 . S
C325 H352 0.930 . S
C326 C324 1.352 . S
C326 C328 1.374 . S
C326 H353 0.931 . S
C327 C328 1.359 . S
C327 C329 1.364 . S
C328 C326 1.374 . S
C328 C327 1.359 . S
C328 H354 0.931 . S
C329 C325 1.389 . S
C329 C327 1.364 . S
C329 H355 0.931 . S
C330 O344 1.256 . S
C330 O345 1.257 . S
C331 O346 1.240 . S
C331 O347 1.240 . S
C332 Gd321 2.818 . S
C332 C333 1.510 . S
C332 O348 1.249 . S
C332 O349 1.252 . S
C333 C332 1.510 . S
C333 C334 1.404 . S
C333 C335 1.352 . S
C334 C333 1.404 . S
C334 C338 1.389 . S
C334 H356 0.930 . S
C335 C333 1.352 . S
C335 C337 1.374 . S
C335 H357 0.931 . S
C336 C337 1.359 . S
C336 C338 1.364 . S
C337 C335 1.374 . S
C337 C336 1.359 . S
C337 H358 0.931 . S
C338 C334 1.389 . S
C338 C336 1.364 . S
C338 H359 0.931 . S
C339 O350 1.256 . S
C339 O351 1.257 . S
O340 Gd320 2.377 . S
O340 C322 1.240 . S
O341 Gd321 2.395 . S
O341 C322 1.240 . S
O342 Gd320 2.448 . S
O342 C323 1.249 . S
O343 Gd320 2.506 . S
O343 C323 1.252 . S
O344 Gd320 2.435 . S
O344 C330 1.256 . S
O345 Gd320 2.717 . S
O345 Gd321 2.327 . S
O345 C330 1.257 . S
O346 Gd321 2.377 . S
O346 C331 1.240 . S
O347 Gd320 2.395 . S
O347 C331 1.240 . S
O348 Gd321 2.448 . S
O348 C332 1.249 . S
O349 Gd321 2.506 . S
O349 C332 1.252 . S
O350 Gd321 2.435 . S
O350 C339 1.256 . S
O351 Gd320 2.327 . S
O351 Gd321 2.717 . S
O351 C339 1.257 . S
H352 C325 0.930 . S
H353 C326 0.931 . S
H354 C328 0.931 . S
H355 C329 0.931 . S
H356 C334 0.930 . S
H357 C335 0.931 . S
H358 C337 0.931 . S
H359 C338 0.931 . S
H360 C368 0.929 . S
H361 C370 0.930 . S
H362 C372 0.930 . S
H363 C375 0.929 . S
H364 C378 0.930 . S
H365 C380 0.960 . S
H366 C380 0.960 . S
H367 C380 0.960 . S
C368 H360 0.929 . S
C368 C369 1.377 . S
C368 C370 1.384 . S
C369 C368 1.377 . S
C369 C375 1.390 . S
C370 H361 0.930 . S
C370 C368 1.384 . S
C370 C371 1.372 . S
C371 C370 1.372 . S
C371 C372 1.400 . S
C371 C376 1.490 . S
C372 H362 0.930 . S
C372 C371 1.400 . S
C372 C375 1.386 . S
H373 C389 0.930 . S
H374 C390 0.931 . S
C375 H363 0.929 . S
C375 C369 1.390 . S
C375 C372 1.386 . S
C376 C371 1.490 . S
C376 C378 1.395 . S
C376 C379 1.403 . S
H377 C383 0.930 . S
C378 H364 0.930 . S
C378 C376 1.395 . S
C378 C381 1.403 . S
C379 C376 1.403 . S
C379 C380 1.524 . S
C379 C383 1.400 . S
C380 H365 0.960 . S
C380 H366 0.960 . S
C380 H367 0.960 . S
C380 C379 1.524 . S
C381 C378 1.403 . S
C381 C382 1.392 . S
C381 C385 1.495 . S
C382 C381 1.392 . S
C382 C383 1.385 . S
C382 C384 1.478 . S
C383 H377 0.930 . S
C383 C379 1.400 . S
C383 C382 1.385 . S
C384 C382 1.478 . S
C384 C386 1.381 . S
C384 C390 1.383 . S
C385 C381 1.495 . S
C385 H391 0.959 . S
C385 H392 0.961 . S
C385 H393 0.960 . S
C386 C384 1.381 . S
C386 C387 1.394 . S
C386 H394 0.930 . S
C387 C386 1.394 . S
C387 C388 1.383 . S
C387 H395 0.929 . S
C388 C387 1.383 . S
C388 C389 1.377 . S
C389 H373 0.930 . S
C389 C388 1.377 . S
C389 C390 1.379 . S
C390 H374 0.931 . S
C390 C384 1.383 . S
C390 C389 1.379 . S
H391 C385 0.959 . S
H392 C385 0.961 . S
H393 C385 0.960 . S
H394 C386 0.930 . S
H395 C387 0.929 . S
H396 C404 0.929 1_554 S
H397 C406 0.930 . S
H398 C408 0.930 . S
H399 C411 0.929 . S
H400 C414 0.930 . S
H401 C416 0.960 . S
H402 C416 0.960 . S
H403 C416 0.960 . S
C404 H396 0.929 1_556 S
C404 C405 1.377 . S
C404 C406 1.384 . S
C405 C404 1.377 . S
C405 C411 1.390 . S
C406 H397 0.930 . S
C406 C404 1.384 . S
C406 C407 1.372 . S
C407 C406 1.372 . S
C407 C408 1.400 . S
C407 C412 1.490 . S
C408 H398 0.930 . S
C408 C407 1.400 . S
C408 C411 1.386 . S
H409 C425 0.930 . S
H410 C426 0.931 . S
C411 H399 0.929 . S
C411 C405 1.390 . S
C411 C408 1.386 . S
C412 C407 1.490 . S
C412 C414 1.395 . S
C412 C415 1.403 . S
H413 C419 0.930 . S
C414 H400 0.930 . S
C414 C412 1.395 . S
C414 C417 1.403 . S
C415 C412 1.403 . S
C415 C416 1.524 . S
C415 C419 1.400 . S
C416 H401 0.960 . S
C416 H402 0.960 . S
C416 H403 0.960 . S
C416 C415 1.524 . S
C417 C414 1.403 . S
C417 C418 1.392 . S
C417 C421 1.495 . S
C418 C417 1.392 . S
C418 C419 1.385 . S
C418 C420 1.478 . S
C419 H413 0.930 . S
C419 C415 1.400 . S
C419 C418 1.385 . S
C420 C418 1.478 . S
C420 C422 1.381 . S
C420 C426 1.383 . S
C421 C417 1.495 . S
C421 H427 0.959 . S
C421 H428 0.961 . S
C421 H429 0.960 . S
C422 C420 1.381 . S
C422 C423 1.394 . S
C422 H430 0.930 . S
C423 C422 1.394 . S
C423 C424 1.383 . S
C423 H431 0.929 . S
C424 C423 1.383 . S
C424 C425 1.377 . S
C425 H409 0.930 . S
C425 C424 1.377 . S
C425 C426 1.379 . S
C426 H410 0.931 . S
C426 C420 1.383 . S
C426 C425 1.379 . S
H427 C421 0.959 . S
H428 C421 0.961 . S
H429 C421 0.960 . S
H430 C422 0.930 . S
H431 C423 0.929 . S
H432 C440 0.929 . S
H433 C442 0.930 . S
H434 C444 0.930 . S
H435 C447 0.929 . S
H436 C450 0.930 . S
H437 C452 0.960 . S
H438 C452 0.960 . S
H439 C452 0.960 . S
C440 H432 0.929 . S
C440 C441 1.377 . S
C440 C442 1.384 . S
C441 C440 1.377 . S
C441 C447 1.390 . S
C442 H433 0.930 . S
C442 C440 1.384 . S
C442 C443 1.372 . S
C443 C442 1.372 . S
C443 C444 1.400 . S
C443 C448 1.490 . S
C444 H434 0.930 . S
C444 C443 1.400 . S
C444 C447 1.386 . S
H445 C461 0.930 . S
H446 C462 0.931 . S
C447 H435 0.929 . S
C447 C441 1.390 . S
C447 C444 1.386 . S
C448 C443 1.490 . S
C448 C450 1.395 . S
C448 C451 1.403 . S
H449 C455 0.930 . S
C450 H436 0.930 . S
C450 C448 1.395 . S
C450 C453 1.403 . S
C451 C448 1.403 . S
C451 C452 1.524 . S
C451 C455 1.400 . S
C452 H437 0.960 . S
C452 H438 0.960 . S
C452 H439 0.960 . S
C452 C451 1.524 . S
C453 C450 1.403 . S
C453 C454 1.392 . S
C453 C457 1.495 . S
C454 C453 1.392 . S
C454 C455 1.385 . S
C454 C456 1.478 . S
C455 H449 0.930 . S
C455 C451 1.400 . S
C455 C454 1.385 . S
C456 C454 1.478 . S
C456 C458 1.381 . S
C456 C462 1.383 . S
C457 C453 1.495 . S
C457 H463 0.959 . S
C457 H464 0.961 . S
C457 H465 0.960 . S
C458 C456 1.381 . S
C458 C459 1.394 . S
C458 H466 0.930 . S
C459 C458 1.394 . S
C459 C460 1.383 . S
C459 H467 0.929 . S
C460 C459 1.383 . S
C460 C461 1.377 . S
C461 H445 0.930 . S
C461 C460 1.377 . S
C461 C462 1.379 . S
C462 H446 0.931 . S
C462 C456 1.383 . S
C462 C461 1.379 . S
H463 C457 0.959 . S
H464 C457 0.961 . S
H465 C457 0.960 . S
H466 C458 0.930 . S
H467 C459 0.929 . S
H468 C476 0.929 . S
H469 C478 0.930 . S
H470 C480 0.930 . S
H471 C483 0.929 . S
H472 C486 0.930 . S
H473 C488 0.960 . S
H474 C488 0.960 . S
H475 C488 0.960 . S
C476 H468 0.929 . S
C476 C477 1.377 . S
C476 C478 1.384 . S
C477 C476 1.377 . S
C477 C483 1.390 . S
C478 H469 0.930 . S
C478 C476 1.384 . S
C478 C479 1.372 . S
C479 C478 1.372 . S
C479 C480 1.400 . S
C479 C484 1.490 . S
C480 H470 0.930 . S
C480 C479 1.400 . S
C480 C483 1.386 . S
H481 C497 0.930 . S
H482 C498 0.931 1_556 S
C483 H471 0.929 . S
C483 C477 1.390 . S
C483 C480 1.386 . S
C484 C479 1.490 . S
C484 C486 1.395 . S
C484 C487 1.403 . S
H485 C491 0.930 . S
C486 H472 0.930 . S
C486 C484 1.395 . S
C486 C489 1.403 . S
C487 C484 1.403 . S
C487 C488 1.524 . S
C487 C491 1.400 . S
C488 H473 0.960 . S
C488 H474 0.960 . S
C488 H475 0.960 . S
C488 C487 1.524 . S
C489 C486 1.403 . S
C489 C490 1.392 . S
C489 C493 1.495 . S
C490 C489 1.392 . S
C490 C491 1.385 . S
C490 C492 1.478 . S
C491 H485 0.930 . S
C491 C487 1.400 . S
C491 C490 1.385 . S
C492 C490 1.478 . S
C492 C494 1.381 . S
C492 C498 1.383 . S
C493 C489 1.495 . S
C493 H499 0.959 . S
C493 H500 0.961 . S
C493 H501 0.960 . S
C494 C492 1.381 . S
C494 C495 1.394 . S
C494 H502 0.930 . S
C495 C494 1.394 . S
C495 C496 1.383 . S
C495 H503 0.929 . S
C496 C495 1.383 . S
C496 C497 1.377 1_554 S
C497 H481 0.930 . S
C497 C496 1.377 1_556 S
C497 C498 1.379 1_556 S
C498 H482 0.931 1_554 S
C498 C492 1.383 . S
C498 C497 1.379 1_554 S
H499 C493 0.959 . S
H500 C493 0.961 . S
H501 C493 0.960 . S
H502 C494 0.930 . S
H503 C495 0.929 . S
H504 C512 0.929 . S
H505 C514 0.930 . S
H506 C516 0.930 . S
H507 C519 0.929 . S
H508 C522 0.930 . S
H509 C524 0.960 . S
H510 C524 0.960 . S
H511 C524 0.960 . S
C512 H504 0.929 . S
C512 C513 1.377 . S
C512 C514 1.384 . S
C513 C512 1.377 . S
C513 C519 1.390 . S
C514 H505 0.930 . S
C514 C512 1.384 . S
C514 C515 1.372 . S
C515 C514 1.372 . S
C515 C516 1.400 . S
C515 C520 1.490 . S
C516 H506 0.930 . S
C516 C515 1.400 . S
C516 C519 1.386 . S
H517 C533 0.930 1_455 S
H518 C534 0.931 . S
C519 H507 0.929 . S
C519 C513 1.390 . S
C519 C516 1.386 . S
C520 C515 1.490 . S
C520 C522 1.395 . S
C520 C523 1.403 . S
H521 C527 0.930 . S
C522 H508 0.930 . S
C522 C520 1.395 . S
C522 C525 1.403 . S
C523 C520 1.403 . S
C523 C524 1.524 . S
C523 C527 1.400 . S
C524 H509 0.960 . S
C524 H510 0.960 . S
C524 H511 0.960 . S
C524 C523 1.524 . S
C525 C522 1.403 . S
C525 C526 1.392 . S
C525 C529 1.495 1_554 S
C526 C525 1.392 . S
C526 C527 1.385 . S
C526 C528 1.478 . S
C527 H521 0.930 . S
C527 C523 1.400 . S
C527 C526 1.385 . S
C528 C526 1.478 . S
C528 C530 1.381 . S
C528 C534 1.383 . S
C529 C525 1.495 1_556 S
C529 H535 0.959 . S
C529 H536 0.961 . S
C529 H537 0.960 . S
C530 C528 1.381 . S
C530 C531 1.394 . S
C530 H538 0.930 . S
C531 C530 1.394 . S
C531 C532 1.383 . S
C531 H539 0.929 1_554 S
C532 C531 1.383 . S
C532 C533 1.377 . S
C533 H517 0.930 1_655 S
C533 C532 1.377 . S
C533 C534 1.379 . S
C534 H518 0.931 . S
C534 C528 1.383 . S
C534 C533 1.379 . S
H535 C529 0.959 . S
H536 C529 0.961 . S
H537 C529 0.960 . S
H538 C530 0.930 . S
H539 C531 0.929 1_556 S
H540 C548 0.929 1_556 S
H541 C550 0.930 . S
H542 C552 0.930 . S
H543 C555 0.929 . S
H544 C558 0.930 . S
H545 C560 0.960 . S
H546 C560 0.960 . S
H547 C560 0.960 . S
C548 H540 0.929 1_554 S
C548 C549 1.377 . S
C548 C550 1.384 . S
C549 C548 1.377 . S
C549 C555 1.390 . S
C550 H541 0.930 . S
C550 C548 1.384 . S
C550 C551 1.372 . S
C551 C550 1.372 . S
C551 C552 1.400 . S
C551 C556 1.490 . S
C552 H542 0.930 . S
C552 C551 1.400 . S
C552 C555 1.386 . S
H553 C569 0.930 . S
H554 C570 0.931 . S
C555 H543 0.929 . S
C555 C549 1.390 . S
C555 C552 1.386 . S
C556 C551 1.490 . S
C556 C558 1.395 . S
C556 C559 1.403 . S
H557 C563 0.930 . S
C558 H544 0.930 . S
C558 C556 1.395 . S
C558 C561 1.403 . S
C559 C556 1.403 . S
C559 C560 1.524 . S
C559 C563 1.400 . S
C560 H545 0.960 . S
C560 H546 0.960 . S
C560 H547 0.960 . S
C560 C559 1.524 . S
C561 C558 1.403 . S
C561 C562 1.392 . S
C561 C565 1.495 . S
C562 C561 1.392 . S
C562 C563 1.385 . S
C562 C564 1.478 . S
C563 H557 0.930 . S
C563 C559 1.400 . S
C563 C562 1.385 . S
C564 C562 1.478 . S
C564 C566 1.381 . S
C564 C570 1.383 . S
C565 C561 1.495 . S
C565 H571 0.959 1_554 S
C565 H572 0.961 . S
C565 H573 0.960 . S
C566 C564 1.381 . S
C566 C567 1.394 . S
C566 H574 0.930 . S
C567 C566 1.394 . S
C567 C568 1.383 . S
C567 H575 0.929 . S
C568 C567 1.383 . S
C568 C569 1.377 . S
C569 H553 0.930 . S
C569 C568 1.377 . S
C569 C570 1.379 . S
C570 H554 0.931 . S
C570 C564 1.383 . S
C570 C569 1.379 . S
H571 C565 0.959 1_556 S
H572 C565 0.961 . S
H573 C565 0.960 . S
H574 C566 0.930 . S
H575 C567 0.929 . S
H576 C584 0.929 . S
H577 C586 0.930 . S
H578 C588 0.930 . S
H579 C591 0.929 . S
H580 C594 0.930 . S
H581 C596 0.960 . S
H582 C596 0.960 . S
H583 C596 0.960 . S
C584 H576 0.929 . S
C584 C585 1.377 . S
C584 C586 1.384 . S
C585 C584 1.377 . S
C585 C591 1.390 . S
C586 H577 0.930 . S
C586 C584 1.384 . S
C586 C587 1.372 . S
C587 C586 1.372 . S
C587 C588 1.400 . S
C587 C592 1.490 1_455 S
C588 H578 0.930 . S
C588 C587 1.400 . S
C588 C591 1.386 . S
H589 C605 0.930 . S
H590 C606 0.931 . S
C591 H579 0.929 . S
C591 C585 1.390 . S
C591 C588 1.386 . S
C592 C587 1.490 1_655 S
C592 C594 1.395 . S
C592 C595 1.403 . S
H593 C599 0.930 . S
C594 H580 0.930 . S
C594 C592 1.395 . S
C594 C597 1.403 . S
C595 C592 1.403 . S
C595 C596 1.524 . S
C595 C599 1.400 . S
C596 H581 0.960 . S
C596 H582 0.960 . S
C596 H583 0.960 . S
C596 C595 1.524 . S
C597 C594 1.403 . S
C597 C598 1.392 . S
C597 C601 1.495 . S
C598 C597 1.392 . S
C598 C599 1.385 . S
C598 C600 1.478 . S
C599 H593 0.930 . S
C599 C595 1.400 . S
C599 C598 1.385 . S
C600 C598 1.478 . S
C600 C602 1.381 . S
C600 C606 1.383 . S
C601 C597 1.495 . S
C601 H607 0.959 . S
C601 H608 0.961 . S
C601 H609 0.960 . S
C602 C600 1.381 . S
C602 C603 1.394 . S
C602 H610 0.930 . S
C603 C602 1.394 . S
C603 C604 1.383 . S
C603 H611 0.929 . S
C604 C603 1.383 . S
C604 C605 1.377 . S
C605 H589 0.930 . S
C605 C604 1.377 . S
C605 C606 1.379 . S
C606 H590 0.931 . S
C606 C600 1.383 . S
C606 C605 1.379 . S
H607 C601 0.959 . S
H608 C601 0.961 . S
H609 C601 0.960 . S
H610 C602 0.930 . S
H611 C603 0.929 . S
H612 C620 0.929 . S
H613 C622 0.930 . S
H614 C624 0.930 . S
H615 C627 0.929 . S
H616 C630 0.930 . S
H617 C632 0.960 . S
H618 C632 0.960 . S
H619 C632 0.960 . S
C620 H612 0.929 . S
C620 C621 1.377 . S
C620 C622 1.384 . S
C621 C620 1.377 . S
C621 C627 1.390 . S
C622 H613 0.930 . S
C622 C620 1.384 . S
C622 C623 1.372 . S
C623 C622 1.372 . S
C623 C624 1.400 . S
C623 C628 1.490 . S
C624 H614 0.930 . S
C624 C623 1.400 . S
C624 C627 1.386 . S
H625 C641 0.930 . S
H626 C642 0.931 . S
C627 H615 0.929 . S
C627 C621 1.390 . S
C627 C624 1.386 . S
C628 C623 1.490 . S
C628 C630 1.395 . S
C628 C631 1.403 . S
H629 C635 0.930 . S
C630 H616 0.930 . S
C630 C628 1.395 . S
C630 C633 1.403 . S
C631 C628 1.403 . S
C631 C632 1.524 . S
C631 C635 1.400 . S
C632 H617 0.960 . S
C632 H618 0.960 . S
C632 H619 0.960 . S
C632 C631 1.524 . S
C633 C630 1.403 . S
C633 C634 1.392 . S
C633 C637 1.495 . S
C634 C633 1.392 . S
C634 C635 1.385 . S
C634 C636 1.478 . S
C635 H629 0.930 . S
C635 C631 1.400 . S
C635 C634 1.385 . S
C636 C634 1.478 . S
C636 C638 1.381 . S
C636 C642 1.383 . S
C637 C633 1.495 . S
C637 H643 0.959 . S
C637 H644 0.961 . S
C637 H645 0.960 . S
C638 C636 1.381 . S
C638 C639 1.394 . S
C638 H646 0.930 . S
C639 C638 1.394 . S
C639 C640 1.383 . S
C639 H647 0.929 . S
C640 C639 1.383 . S
C640 C641 1.377 . S
C641 H625 0.930 . S
C641 C640 1.377 . S
C641 C642 1.379 . S
C642 H626 0.931 . S
C642 C636 1.383 . S
C642 C641 1.379 . S
H643 C637 0.959 . S
H644 C637 0.961 . S
H645 C637 0.960 . S
H646 C638 0.930 . S
H647 C639 0.929 . S
H648 C656 0.929 . S
H649 C658 0.930 . S
H650 C660 0.930 . S
H651 C663 0.929 . S
H652 C666 0.930 . S
H653 C668 0.960 . S
H654 C668 0.960 . S
H655 C668 0.960 . S
C656 H648 0.929 . S
C656 C657 1.377 . S
C656 C658 1.384 . S
C657 C656 1.377 . S
C657 C663 1.390 . S
C658 H649 0.930 . S
C658 C656 1.384 . S
C658 C659 1.372 . S
C659 C658 1.372 . S
C659 C660 1.400 . S
C659 C664 1.490 . S
C660 H650 0.930 . S
C660 C659 1.400 . S
C660 C663 1.386 . S
H661 C677 0.930 . S
H662 C678 0.931 . S
C663 H651 0.929 . S
C663 C657 1.390 . S
C663 C660 1.386 . S
C664 C659 1.490 . S
C664 C666 1.395 . S
C664 C667 1.403 . S
H665 C671 0.930 . S
C666 H652 0.930 . S
C666 C664 1.395 . S
C666 C669 1.403 . S
C667 C664 1.403 . S
C667 C668 1.524 . S
C667 C671 1.400 . S
C668 H653 0.960 . S
C668 H654 0.960 . S
C668 H655 0.960 . S
C668 C667 1.524 . S
C669 C666 1.403 . S
C669 C670 1.392 . S
C669 C673 1.495 . S
C670 C669 1.392 . S
C670 C671 1.385 . S
C670 C672 1.478 . S
C671 H665 0.930 . S
C671 C667 1.400 . S
C671 C670 1.385 . S
C672 C670 1.478 . S
C672 C674 1.381 . S
C672 C678 1.383 . S
C673 C669 1.495 . S
C673 H679 0.959 . S
C673 H680 0.961 . S
C673 H681 0.960 . S
C674 C672 1.381 . S
C674 C675 1.394 1_545 S
C674 H682 0.930 . S
C675 C674 1.394 1_565 S
C675 C676 1.383 . S
C675 H683 0.929 . S
C676 C675 1.383 . S
C676 C677 1.377 . S
C677 H661 0.930 . S
C677 C676 1.377 . S
C677 C678 1.379 1_565 S
C678 H662 0.931 . S
C678 C672 1.383 . S
C678 C677 1.379 1_545 S
H679 C673 0.959 . S
H680 C673 0.961 . S
H681 C673 0.960 . S
H682 C674 0.930 . S
H683 C675 0.929 . S
H684 C692 0.929 . S
H685 C694 0.930 . S
H686 C696 0.930 . S
H687 C699 0.929 . S
H688 C702 0.930 . S
H689 C704 0.960 . S
H690 C704 0.960 . S
H691 C704 0.960 . S
C692 H684 0.929 . S
C692 C693 1.377 . S
C692 C694 1.384 . S
C693 C692 1.377 . S
C693 C699 1.390 1_554 S
C694 H685 0.930 . S
C694 C692 1.384 . S
C694 C695 1.372 . S
C695 C694 1.372 . S
C695 C696 1.400 1_554 S
C695 C700 1.490 . S
C696 H686 0.930 . S
C696 C695 1.400 1_556 S
C696 C699 1.386 . S
H697 C713 0.930 . S
H698 C714 0.931 . S
C699 H687 0.929 . S
C699 C693 1.390 1_556 S
C699 C696 1.386 . S
C700 C695 1.490 . S
C700 C702 1.395 . S
C700 C703 1.403 . S
H701 C707 0.930 . S
C702 H688 0.930 . S
C702 C700 1.395 . S
C702 C705 1.403 . S
C703 C700 1.403 . S
C703 C704 1.524 . S
C703 C707 1.400 . S
C704 H689 0.960 . S
C704 H690 0.960 . S
C704 H691 0.960 . S
C704 C703 1.524 . S
C705 C702 1.403 . S
C705 C706 1.392 . S
C705 C709 1.495 . S
C706 C705 1.392 . S
C706 C707 1.385 . S
C706 C708 1.478 . S
C707 H701 0.930 . S
C707 C703 1.400 . S
C707 C706 1.385 . S
C708 C706 1.478 . S
C708 C710 1.381 . S
C708 C714 1.383 1_554 S
C709 C705 1.495 . S
C709 H715 0.959 . S
C709 H716 0.961 1_554 S
C709 H717 0.960 . S
C710 C708 1.381 . S
C710 C711 1.394 . S
C710 H718 0.930 . S
C711 C710 1.394 . S
C711 C712 1.383 . S
C711 H719 0.929 . S
C712 C711 1.383 . S
C712 C713 1.377 1_554 S
C713 H697 0.930 . S
C713 C712 1.377 1_556 S
C713 C714 1.379 . S
C714 H698 0.931 . S
C714 C708 1.383 1_556 S
C714 C713 1.379 . S
H715 C709 0.959 . S
H716 C709 0.961 1_556 S
H717 C709 0.960 . S
H718 C710 0.930 . S
H719 C711 0.929 . S
H720 C728 0.929 . S
H721 C730 0.930 . S
H722 C732 0.930 . S
H723 C735 0.929 . S
H724 C738 0.930 . S
H725 C740 0.960 . S
H726 C740 0.960 1_556 S
H727 C740 0.960 . S
C728 H720 0.929 . S
C728 C729 1.377 1_556 S
C728 C730 1.384 . S
C729 C728 1.377 1_554 S
C729 C735 1.390 . S
C730 H721 0.930 . S
C730 C728 1.384 . S
C730 C731 1.372 1_556 S
C731 C730 1.372 1_554 S
C731 C732 1.400 . S
C731 C736 1.490 . S
C732 H722 0.930 . S
C732 C731 1.400 . S
C732 C735 1.386 . S
H733 C749 0.930 . S
H734 C750 0.931 . S
C735 H723 0.929 . S
C735 C729 1.390 . S
C735 C732 1.386 . S
C736 C731 1.490 . S
C736 C738 1.395 . S
C736 C739 1.403 . S
H737 C743 0.930 . S
C738 H724 0.930 . S
C738 C736 1.395 . S
C738 C741 1.403 . S
C739 C736 1.403 . S
C739 C740 1.524 . S
C739 C743 1.400 . S
C740 H725 0.960 . S
C740 H726 0.960 1_554 S
C740 H727 0.960 . S
C740 C739 1.524 . S
C741 C738 1.403 . S
C741 C742 1.392 . S
C741 C745 1.495 . S
C742 C741 1.392 . S
C742 C743 1.385 . S
C742 C744 1.478 1_565 S
C743 H737 0.930 . S
C743 C739 1.400 . S
C743 C742 1.385 . S
C744 C742 1.478 1_545 S
C744 C746 1.381 1_554 S
C744 C750 1.383 . S
C745 C741 1.495 . S
C745 H751 0.959 . S
C745 H752 0.961 . S
C745 H753 0.964 1_564 S
C746 C744 1.381 1_556 S
C746 C747 1.394 . S
C746 H754 0.930 . S
C747 C746 1.394 . S
C747 C748 1.383 1_556 S
C747 H755 0.929 . S
C748 C747 1.383 1_554 S
C748 C749 1.377 . S
C749 H733 0.930 . S
C749 C748 1.377 . S
C749 C750 1.379 . S
C750 H734 0.931 . S
C750 C744 1.383 . S
C750 C749 1.379 . S
H751 C745 0.959 . S
H752 C745 0.961 . S
H753 C745 0.964 1_546 S
H754 C746 0.930 . S
H755 C747 0.929 . S
H756 C764 0.929 . S
H757 C766 0.930 . S
H758 C768 0.930 . S
H759 C771 0.929 . S
H760 C774 0.930 1_556 S
H761 C776 0.960 . S
H762 C776 0.960 . S
H763 C776 0.960 . S
C764 H756 0.929 . S
C764 C765 1.377 1_556 S
C764 C766 1.384 1_655 S
C765 C764 1.377 1_554 S
C765 C771 1.390 . S
C766 H757 0.930 . S
C766 C764 1.384 1_455 S
C766 C767 1.372 1_556 S
C767 C766 1.372 1_554 S
C767 C768 1.400 . S
C767 C772 1.490 . S
C768 H758 0.930 . S
C768 C767 1.400 . S
C768 C771 1.386 1_455 S
H769 C785 0.930 . S
H770 C786 0.931 . S
C771 H759 0.929 . S
C771 C765 1.390 . S
C771 C768 1.386 1_655 S
C772 C767 1.490 . S
C772 C774 1.395 . S
C772 C775 1.403 . S
H773 C779 0.930 . S
C774 H760 0.930 1_554 S
C774 C772 1.395 . S
C774 C777 1.403 1_554 S
C775 C772 1.403 . S
C775 C776 1.524 . S
C775 C779 1.400 . S
C776 H761 0.960 . S
C776 H762 0.960 . S
C776 H763 0.960 . S
C776 C775 1.524 . S
C777 C774 1.403 1_556 S
C777 C778 1.392 1_556 S
C777 C781 1.495 . S
C778 C777 1.392 1_554 S
C778 C779 1.385 . S
C778 C780 1.478 . S
C779 H773 0.930 . S
C779 C775 1.400 . S
C779 C778 1.385 . S
C780 C778 1.478 . S
C780 C782 1.381 1_554 S
C780 C786 1.383 . S
C781 C777 1.495 . S
C781 H787 0.959 . S
C781 H788 0.961 1_556 S
C781 H789 0.960 . S
C782 C780 1.381 1_556 S
C782 C783 1.394 . S
C782 H790 0.930 . S
C783 C782 1.394 . S
C783 C784 1.383 1_556 S
C783 H791 0.929 . S
C784 C783 1.383 1_554 S
C784 C785 1.377 . S
C785 H769 0.930 . S
C785 C784 1.377 . S
C785 C786 1.379 . S
C786 H770 0.931 . S
C786 C780 1.383 . S
C786 C785 1.379 . S
H787 C781 0.959 . S
H788 C781 0.961 1_554 S
H789 C781 0.960 . S
H790 C782 0.930 . S
H791 C783 0.929 . S
H792 C800 0.929 . S
H793 C802 0.930 . S
H794 C804 0.930 . S
H795 C807 0.929 . S
H796 C810 0.930 . S
H797 C812 0.960 . S
H798 C812 0.960 . S
H799 C812 0.960 . S
C800 H792 0.929 . S
C800 C801 1.377 . S
C800 C802 1.384 . S
C801 C800 1.377 . S
C801 C807 1.390 . S
C802 H793 0.930 . S
C802 C800 1.384 . S
C802 C803 1.372 . S
C803 C802 1.372 . S
C803 C804 1.400 . S
C803 C808 1.490 . S
C804 H794 0.930 . S
C804 C803 1.400 . S
C804 C807 1.386 . S
H805 C821 0.930 . S
H806 C822 0.931 . S
C807 H795 0.929 . S
C807 C801 1.390 . S
C807 C804 1.386 . S
C808 C803 1.490 . S
C808 C810 1.395 . S
C808 C811 1.403 . S
H809 C815 0.930 . S
C810 H796 0.930 . S
C810 C808 1.395 . S
C810 C813 1.403 . S
C811 C808 1.403 . S
C811 C812 1.524 . S
C811 C815 1.400 . S
C812 H797 0.960 . S
C812 H798 0.960 . S
C812 H799 0.960 . S
C812 C811 1.524 . S
C813 C810 1.403 . S
C813 C814 1.392 . S
C813 C817 1.495 . S
C814 C813 1.392 . S
C814 C815 1.385 . S
C814 C816 1.478 . S
C815 H809 0.930 . S
C815 C811 1.400 . S
C815 C814 1.385 . S
C816 C814 1.478 . S
C816 C818 1.381 . S
C816 C822 1.383 . S
C817 C813 1.495 . S
C817 H823 0.959 . S
C817 H824 0.961 . S
C817 H825 0.960 . S
C818 C816 1.381 . S
C818 C819 1.394 . S
C818 H826 0.930 . S
C819 C818 1.394 . S
C819 C820 1.383 . S
C819 H827 0.929 . S
C820 C819 1.383 . S
C820 C821 1.377 . S
C821 H805 0.930 . S
C821 C820 1.377 . S
C821 C822 1.379 . S
C822 H806 0.931 . S
C822 C816 1.383 . S
C822 C821 1.379 . S
H823 C817 0.959 . S
H824 C817 0.961 . S
H825 C817 0.960 . S
H826 C818 0.930 . S
H827 C819 0.929 . S
H828 C836 0.929 . S
H829 C838 0.930 . S
H830 C840 0.930 . S
H831 C843 0.929 . S
H832 C846 0.930 . S
H833 C848 0.960 . S
H834 C848 0.960 . S
H835 C848 0.960 . S
C836 H828 0.929 . S
C836 C837 1.377 . S
C836 C838 1.384 . S
C837 C836 1.377 . S
C837 C843 1.390 . S
C838 H829 0.930 . S
C838 C836 1.384 . S
C838 C839 1.372 . S
C839 C838 1.372 . S
C839 C840 1.400 . S
C839 C844 1.490 . S
C840 H830 0.930 . S
C840 C839 1.400 . S
C840 C843 1.386 . S
H841 C857 0.930 . S
H842 C858 0.931 . S
C843 H831 0.929 . S
C843 C837 1.390 . S
C843 C840 1.386 . S
C844 C839 1.490 . S
C844 C846 1.395 . S
C844 C847 1.403 . S
H845 C851 0.930 . S
C846 H832 0.930 . S
C846 C844 1.395 . S
C846 C849 1.403 . S
C847 C844 1.403 . S
C847 C848 1.524 . S
C847 C851 1.400 . S
C848 H833 0.960 . S
C848 H834 0.960 . S
C848 H835 0.960 . S
C848 C847 1.524 . S
C849 C846 1.403 . S
C849 C850 1.392 . S
C849 C853 1.495 . S
C850 C849 1.392 . S
C850 C851 1.385 . S
C850 C852 1.478 . S
C851 H845 0.930 . S
C851 C847 1.400 . S
C851 C850 1.385 . S
C852 C850 1.478 . S
C852 C854 1.381 . S
C852 C858 1.383 . S
C853 C849 1.495 . S
C853 H859 0.959 . S
C853 H860 0.961 . S
C853 H861 0.960 . S
C854 C852 1.381 . S
C854 C855 1.394 . S
C854 H862 0.930 . S
C855 C854 1.394 . S
C855 C856 1.383 . S
C855 H863 0.929 . S
C856 C855 1.383 . S
C856 C857 1.377 . S
C857 H841 0.930 . S
C857 C856 1.377 . S
C857 C858 1.379 . S
C858 H842 0.931 . S
C858 C852 1.383 . S
C858 C857 1.379 . S
H859 C853 0.959 . S
H860 C853 0.961 . S
H861 C853 0.960 . S
H862 C854 0.930 . S
H863 C855 0.929 . S
H864 C872 0.929 . S
H865 C874 0.930 . S
H866 C876 0.930 . S
H867 C879 0.929 . S
H868 C882 0.930 . S
H869 C884 0.960 . S
H870 C884 0.960 . S
H871 C884 0.960 . S
C872 H864 0.929 . S
C872 C873 1.377 . S
C872 C874 1.384 . S
C873 C872 1.377 . S
C873 C879 1.390 . S
C874 H865 0.930 . S
C874 C872 1.384 . S
C874 C875 1.372 . S
C875 C874 1.372 . S
C875 C876 1.400 . S
C875 C880 1.490 . S
C876 H866 0.930 . S
C876 C875 1.400 . S
C876 C879 1.386 . S
H877 C893 0.930 . S
H878 C894 0.931 . S
C879 H867 0.929 . S
C879 C873 1.390 . S
C879 C876 1.386 . S
C880 C875 1.490 . S
C880 C882 1.395 . S
C880 C883 1.403 . S
H881 C887 0.930 . S
C882 H868 0.930 . S
C882 C880 1.395 . S
C882 C885 1.403 . S
C883 C880 1.403 . S
C883 C884 1.524 . S
C883 C887 1.400 . S
C884 H869 0.960 . S
C884 H870 0.960 . S
C884 H871 0.960 . S
C884 C883 1.524 . S
C885 C882 1.403 . S
C885 C886 1.392 . S
C885 C889 1.495 . S
C886 C885 1.392 . S
C886 C887 1.385 . S
C886 C888 1.478 . S
C887 H881 0.930 . S
C887 C883 1.400 . S
C887 C886 1.385 . S
C888 C886 1.478 . S
C888 C890 1.381 . S
C888 C894 1.383 . S
C889 C885 1.495 . S
C889 H895 0.959 . S
C889 H896 0.961 . S
C889 H897 0.960 . S
C890 C888 1.381 . S
C890 C891 1.394 . S
C890 H898 0.930 . S
C891 C890 1.394 . S
C891 C892 1.383 . S
C891 H899 0.929 . S
C892 C891 1.383 . S
C892 C893 1.377 . S
C893 H877 0.930 . S
C893 C892 1.377 . S
C893 C894 1.379 . S
C894 H878 0.931 . S
C894 C888 1.383 . S
C894 C893 1.379 . S
H895 C889 0.959 . S
H896 C889 0.961 . S
H897 C889 0.960 . S
H898 C890 0.930 . S
H899 C891 0.929 . S
H900 C908 0.929 . S
H901 C910 0.930 . S
H902 C912 0.930 . S
H903 C915 0.929 . S
H904 C918 0.930 . S
H905 C920 0.960 . S
H906 C920 0.960 . S
H907 C920 0.960 . S
C908 H900 0.929 . S
C908 C909 1.377 . S
C908 C910 1.384 . S
C909 C908 1.377 . S
C909 C915 1.390 . S
C910 H901 0.930 . S
C910 C908 1.384 . S
C910 C911 1.372 . S
C911 C910 1.372 . S
C911 C912 1.400 . S
C911 C916 1.490 . S
C912 H902 0.930 . S
C912 C911 1.400 . S
C912 C915 1.386 . S
H913 C929 0.930 . S
H914 C930 0.931 . S
C915 H903 0.929 . S
C915 C909 1.390 . S
C915 C912 1.386 . S
C916 C911 1.490 . S
C916 C918 1.395 . S
C916 C919 1.403 . S
H917 C923 0.930 . S
C918 H904 0.930 . S
C918 C916 1.395 . S
C918 C921 1.403 . S
C919 C916 1.403 . S
C919 C920 1.524 . S
C919 C923 1.400 . S
C920 H905 0.960 . S
C920 H906 0.960 . S
C920 H907 0.960 . S
C920 C919 1.524 . S
C921 C918 1.403 . S
C921 C922 1.392 . S
C921 C925 1.495 . S
C922 C921 1.392 . S
C922 C923 1.385 . S
C922 C924 1.478 . S
C923 H917 0.930 . S
C923 C919 1.400 . S
C923 C922 1.385 . S
C924 C922 1.478 . S
C924 C926 1.381 . S
C924 C930 1.383 . S
C925 C921 1.495 . S
C925 H931 0.959 . S
C925 H932 0.961 . S
C925 H933 0.960 . S
C926 C924 1.381 . S
C926 C927 1.394 . S
C926 H934 0.930 . S
C927 C926 1.394 . S
C927 C928 1.383 . S
C927 H935 0.929 . S
C928 C927 1.383 . S
C928 C929 1.377 . S
C929 H913 0.930 . S
C929 C928 1.377 . S
C929 C930 1.379 . S
C930 H914 0.931 . S
C930 C924 1.383 . S
C930 C929 1.379 . S
H931 C925 0.959 . S
H932 C925 0.961 . S
H933 C925 0.960 . S
H934 C926 0.930 . S
H935 C927 0.929 . S
H936 C944 0.929 . S
H937 C946 0.930 . S
H938 C948 0.930 . S
H939 C951 0.929 . S
H940 C954 0.930 . S
H941 C956 0.960 . S
H942 C956 0.960 . S
H943 C956 0.960 . S
C944 H936 0.929 . S
C944 C945 1.377 . S
C944 C946 1.384 . S
C945 C944 1.377 . S
C945 C951 1.390 . S
C946 H937 0.930 . S
C946 C944 1.384 . S
C946 C947 1.372 . S
C947 C946 1.372 . S
C947 C948 1.400 . S
C947 C952 1.490 . S
C948 H938 0.930 . S
C948 C947 1.400 . S
C948 C951 1.386 . S
H949 C965 0.930 . S
H950 C966 0.931 . S
C951 H939 0.929 . S
C951 C945 1.390 . S
C951 C948 1.386 . S
C952 C947 1.490 . S
C952 C954 1.395 . S
C952 C955 1.403 . S
H953 C959 0.930 . S
C954 H940 0.930 . S
C954 C952 1.395 . S
C954 C957 1.403 . S
C955 C952 1.403 . S
C955 C956 1.524 . S
C955 C959 1.400 . S
C956 H941 0.960 . S
C956 H942 0.960 . S
C956 H943 0.960 . S
C956 C955 1.524 . S
C957 C954 1.403 . S
C957 C958 1.392 . S
C957 C961 1.495 . S
C958 C957 1.392 . S
C958 C959 1.385 . S
C958 C960 1.478 . S
C959 H953 0.930 . S
C959 C955 1.400 . S
C959 C958 1.385 . S
C960 C958 1.478 . S
C960 C962 1.381 . S
C960 C966 1.383 . S
C961 C957 1.495 . S
C961 H967 0.959 . S
C961 H968 0.961 . S
C961 H969 0.960 . S
C962 C960 1.381 . S
C962 C963 1.394 . S
C962 H970 0.930 . S
C963 C962 1.394 . S
C963 C964 1.383 . S
C963 H971 0.929 . S
C964 C963 1.383 . S
C964 C965 1.377 . S
C965 H949 0.930 . S
C965 C964 1.377 . S
C965 C966 1.379 . S
C966 H950 0.931 . S
C966 C960 1.383 . S
C966 C965 1.379 . S
H967 C961 0.959 . S
H968 C961 0.961 . S
H969 C961 0.960 . S
H970 C962 0.930 . S
H971 C963 0.929 . S
H972 C980 0.929 . S
H973 C982 0.930 . S
H974 C984 0.930 . S
H975 C987 0.929 . S
H976 C990 0.930 . S
H977 C992 0.960 . S
H978 C992 0.960 . S
H979 C992 0.960 . S
C980 H972 0.929 . S
C980 C981 1.377 . S
C980 C982 1.384 . S
C981 C980 1.377 . S
C981 C987 1.390 . S
C982 H973 0.930 . S
C982 C980 1.384 . S
C982 C983 1.372 . S
C983 C982 1.372 . S
C983 C984 1.400 . S
C983 C988 1.490 . S
C984 H974 0.930 . S
C984 C983 1.400 . S
C984 C987 1.386 . S
H985 C1001 0.930 . S
H986 C1002 0.931 . S
C987 H975 0.929 . S
C987 C981 1.390 . S
C987 C984 1.386 . S
C988 C983 1.490 . S
C988 C990 1.395 . S
C988 C991 1.403 . S
H989 C995 0.930 . S
C990 H976 0.930 . S
C990 C988 1.395 . S
C990 C993 1.403 . S
C991 C988 1.403 . S
C991 C992 1.524 . S
C991 C995 1.400 . S
C992 H977 0.960 . S
C992 H978 0.960 . S
C992 H979 0.960 . S
C992 C991 1.524 . S
C993 C990 1.403 . S
C993 C994 1.392 . S
C993 C997 1.495 . S
C994 C993 1.392 . S
C994 C995 1.385 . S
C994 C996 1.478 . S
C995 H989 0.930 . S
C995 C991 1.400 . S
C995 C994 1.385 . S
C996 C994 1.478 . S
C996 C998 1.381 . S
C996 C1002 1.383 . S
C997 C993 1.495 . S
C997 H1003 0.959 . S
C997 H1004 0.961 . S
C997 H1005 0.960 . S
C998 C996 1.381 . S
C998 C999 1.394 . S
C998 H1006 0.930 . S
C999 C998 1.394 . S
C999 C1000 1.383 . S
C999 H1007 0.929 . S
C1000 C999 1.383 . S
C1000 C1001 1.377 . S
C1001 H985 0.930 . S
C1001 C1000 1.377 . S
C1001 C1002 1.379 . S
C1002 H986 0.931 . S
C1002 C996 1.383 . S
C1002 C1001 1.379 . S
H1003 C997 0.959 . S
H1004 C997 0.961 . S
H1005 C997 0.960 . S
H1006 C998 0.930 . S
H1007 C999 0.929 . S
H1008 C1016 0.929 . S
H1009 C1018 0.930 . S
H1010 C1020 0.950 . S
H1011 C1023 0.929 . S
H1012 C1026 0.930 . S
H1013 C1028 0.960 . S
H1014 C1028 0.960 . S
H1015 C1028 0.960 . S
C1016 H1008 0.929 . S
C1016 C1017 1.377 . S
C1016 C1018 1.384 . S
C1017 C1016 1.377 . S
C1017 C1023 1.390 1_455 S
C1018 H1009 0.930 . S
C1018 C1016 1.384 . S
C1018 C1019 1.372 . S
C1019 C1018 1.372 . S
C1019 C1020 1.381 1_455 S
C1019 C1024 1.490 . S
C1020 H1010 0.950 . S
C1020 C1019 1.381 1_655 S
C1020 C1023 1.391 . S
H1021 C1037 0.930 1_655 S
H1022 C1038 0.924 1_655 S
C1023 H1011 0.929 . S
C1023 C1017 1.390 1_655 S
C1023 C1020 1.391 . S
C1024 C1019 1.490 . S
C1024 C1026 1.395 . S
C1024 C1027 1.403 1_455 S
H1025 C1031 0.909 1_655 S
C1026 H1012 0.930 . S
C1026 C1024 1.395 . S
C1026 C1029 1.403 . S
C1027 C1024 1.403 1_655 S
C1027 C1028 1.524 . S
C1027 C1031 1.396 1_655 S
C1028 H1013 0.960 . S
C1028 H1014 0.960 . S
C1028 H1015 0.960 . S
C1028 C1027 1.524 . S
C1029 C1026 1.403 . S
C1029 C1030 1.392 . S
C1029 C1033 1.495 . S
C1030 C1029 1.392 . S
C1030 C1031 1.410 . S
C1030 C1032 1.478 . S
C1031 H1025 0.909 1_455 S
C1031 C1027 1.396 1_455 S
C1031 C1030 1.410 . S
C1032 C1030 1.478 . S
C1032 C1034 1.381 . S
C1032 C1038 1.383 . S
C1033 C1029 1.495 . S
C1033 H1039 0.959 . S
C1033 H1040 0.961 . S
C1033 H1041 0.960 . S
C1034 C1032 1.381 . S
C1034 C1035 1.394 . S
C1034 H1042 0.930 . S
C1035 C1034 1.394 . S
C1035 C1036 1.383 . S
C1035 H1043 0.929 . S
C1036 C1035 1.383 . S
C1036 C1037 1.377 . S
C1037 H1021 0.930 1_455 S
C1037 C1036 1.377 . S
C1037 C1038 1.379 . S
C1038 H1022 0.924 1_455 S
C1038 C1032 1.383 . S
C1038 C1037 1.379 . S
H1039 C1033 0.959 . S
H1040 C1033 0.961 . S
H1041 C1033 0.960 . S
H1042 C1034 0.930 . S
H1043 C1035 0.929 . S
H1044 C1052 0.929 . S
H1045 C1054 0.930 . S
H1046 C1056 0.930 . S
H1047 C1059 0.929 . S
H1048 C1062 0.930 . S
H1049 C1064 0.960 . S
H1050 C1064 0.960 . S
H1051 C1064 0.960 . S
C1052 H1044 0.929 . S
C1052 C1053 1.377 . S
C1052 C1054 1.384 . S
C1053 C1052 1.377 . S
C1053 C1059 1.390 . S
C1054 H1045 0.930 . S
C1054 C1052 1.384 . S
C1054 C1055 1.372 . S
C1055 C1054 1.372 . S
C1055 C1056 1.400 . S
C1055 C1060 1.490 . S
C1056 H1046 0.930 . S
C1056 C1055 1.400 . S
C1056 C1059 1.386 . S
H1057 C1073 0.930 . S
H1058 C1074 0.931 . S
C1059 H1047 0.929 . S
C1059 C1053 1.390 . S
C1059 C1056 1.386 . S
C1060 C1055 1.490 . S
C1060 C1062 1.395 . S
C1060 C1063 1.403 . S
H1061 C1067 0.930 . S
C1062 H1048 0.930 . S
C1062 C1060 1.395 . S
C1062 C1065 1.403 . S
C1063 C1060 1.403 . S
C1063 C1064 1.524 . S
C1063 C1067 1.400 . S
C1064 H1049 0.960 . S
C1064 H1050 0.960 . S
C1064 H1051 0.960 . S
C1064 C1063 1.524 . S
C1065 C1062 1.403 . S
C1065 C1066 1.392 . S
C1065 C1069 1.495 . S
C1066 C1065 1.392 . S
C1066 C1067 1.385 . S
C1066 C1068 1.478 . S
C1067 H1061 0.930 . S
C1067 C1063 1.400 . S
C1067 C1066 1.385 . S
C1068 C1066 1.478 . S
C1068 C1070 1.381 . S
C1068 C1074 1.383 . S
C1069 C1065 1.495 . S
C1069 H1075 0.959 . S
C1069 H1076 0.961 . S
C1069 H1077 0.960 . S
C1070 C1068 1.381 . S
C1070 C1071 1.394 . S
C1070 H1078 0.930 . S
C1071 C1070 1.394 . S
C1071 C1072 1.383 . S
C1071 H1079 0.929 . S
C1072 C1071 1.383 . S
C1072 C1073 1.377 . S
C1073 H1057 0.930 . S
C1073 C1072 1.377 . S
C1073 C1074 1.379 . S
C1074 H1058 0.931 . S
C1074 C1068 1.383 . S
C1074 C1073 1.379 . S
H1075 C1069 0.959 . S
H1076 C1069 0.961 . S
H1077 C1069 0.960 . S
H1078 C1070 0.930 . S
H1079 C1071 0.929 . S
H1080 C1088 0.929 1_565 S
H1081 C1090 0.930 1_565 S
H1082 C1092 0.930 . S
H1083 C1095 0.929 . S
H1084 C1098 0.930 . S
H1085 C1100 0.960 . S
H1086 C1100 0.960 . S
H1087 C1100 0.960 . S
C1088 H1080 0.929 1_545 S
C1088 C1089 1.377 . S
C1088 C1090 1.384 . S
C1089 C1088 1.377 . S
C1089 C1095 1.390 . S
C1090 H1081 0.930 1_545 S
C1090 C1088 1.384 . S
C1090 C1091 1.372 . S
C1091 C1090 1.372 . S
C1091 C1092 1.400 . S
C1091 C1096 1.490 . S
C1092 H1082 0.930 . S
C1092 C1091 1.400 . S
C1092 C1095 1.386 . S
H1093 C1109 0.930 . S
H1094 C1110 0.931 . S
C1095 H1083 0.929 . S
C1095 C1089 1.390 . S
C1095 C1092 1.386 . S
C1096 C1091 1.490 . S
C1096 C1098 1.395 1_545 S
C1096 C1099 1.403 . S
H1097 C1103 0.930 . S
C1098 H1084 0.930 . S
C1098 C1096 1.395 1_565 S
C1098 C1101 1.403 . S
C1099 C1096 1.403 . S
C1099 C1100 1.524 . S
C1099 C1103 1.400 . S
C1100 H1085 0.960 . S
C1100 H1086 0.960 . S
C1100 H1087 0.960 . S
C1100 C1099 1.524 . S
C1101 C1098 1.403 . S
C1101 C1102 1.392 1_565 S
C1101 C1105 1.495 . S
C1102 C1101 1.392 1_545 S
C1102 C1103 1.385 . S
C1102 C1104 1.478 . S
C1103 H1097 0.930 . S
C1103 C1099 1.400 . S
C1103 C1102 1.385 . S
C1104 C1102 1.478 . S
C1104 C1106 1.381 1_545 S
C1104 C1110 1.383 . S
C1105 C1101 1.495 . S
C1105 H1111 0.959 . S
C1105 H1112 0.961 . S
C1105 H1113 0.960 . S
C1106 C1104 1.381 1_565 S
C1106 C1107 1.397 . S
C1106 H1114 0.930 . S
C1107 C1106 1.397 . S
C1107 C1108 1.347 1_565 S
C1107 H1115 0.964 . S
C1108 C1107 1.347 1_545 S
C1108 C1109 1.377 . S
C1109 H1093 0.930 . S
C1109 C1108 1.377 . S
C1109 C1110 1.379 . S
C1110 H1094 0.931 . S
C1110 C1104 1.383 . S
C1110 C1109 1.379 . S
H1111 C1105 0.959 . S
H1112 C1105 0.961 . S
H1113 C1105 0.960 . S
H1114 C1106 0.930 . S
H1115 C1107 0.964 . S
H1116 C1124 0.929 . S
H1117 C1126 0.930 . S
H1118 C1128 0.930 . S
H1119 C1131 0.929 . S
H1120 C1134 0.930 . S
H1121 C1136 0.960 . S
H1122 C1136 0.960 . S
H1123 C1136 0.960 . S
C1124 H1116 0.929 . S
C1124 C1125 1.377 . S
C1124 C1126 1.384 . S
C1125 C1124 1.377 . S
C1125 C1131 1.390 . S
C1126 H1117 0.930 . S
C1126 C1124 1.384 . S
C1126 C1127 1.372 . S
C1127 C1126 1.372 . S
C1127 C1128 1.400 . S
C1127 C1132 1.490 . S
C1128 H1118 0.930 . S
C1128 C1127 1.400 . S
C1128 C1131 1.386 . S
H1129 C1145 0.930 . S
H1130 C1146 0.931 . S
C1131 H1119 0.929 . S
C1131 C1125 1.390 . S
C1131 C1128 1.386 . S
C1132 C1127 1.490 . S
C1132 C1134 1.395 . S
C1132 C1135 1.403 . S
H1133 C1139 0.930 . S
C1134 H1120 0.930 . S
C1134 C1132 1.395 . S
C1134 C1137 1.403 . S
C1135 C1132 1.403 . S
C1135 C1136 1.524 . S
C1135 C1139 1.400 . S
C1136 H1121 0.960 . S
C1136 H1122 0.960 . S
C1136 H1123 0.960 . S
C1136 C1135 1.524 . S
C1137 C1134 1.403 . S
C1137 C1138 1.392 . S
C1137 C1141 1.495 . S
C1138 C1137 1.392 . S
C1138 C1139 1.385 . S
C1138 C1140 1.469 1_556 S
C1139 H1133 0.930 . S
C1139 C1135 1.400 . S
C1139 C1138 1.385 . S
C1140 C1138 1.469 1_554 S
C1140 C1142 1.386 . S
C1140 C1146 1.387 . S
C1141 C1137 1.495 . S
C1141 H1147 0.959 . S
C1141 H1148 0.961 . S
C1141 H1149 0.960 . S
C1142 C1140 1.386 . S
C1142 C1143 1.394 . S
C1142 H1150 0.930 . S
C1143 C1142 1.394 . S
C1143 C1144 1.383 . S
C1143 H1151 0.929 . S
C1144 C1143 1.383 . S
C1144 C1145 1.377 . S
C1145 H1129 0.930 . S
C1145 C1144 1.377 . S
C1145 C1146 1.379 . S
C1146 H1130 0.931 . S
C1146 C1140 1.387 . S
C1146 C1145 1.379 . S
H1147 C1141 0.959 . S
H1148 C1141 0.961 . S
H1149 C1141 0.960 . S
H1150 C1142 0.930 . S
H1151 C1143 0.929 . S
H1152 C1160 0.929 . S
H1153 C1162 0.930 . S
H1154 C1164 0.930 . S
H1155 C1167 0.929 . S
H1156 C1170 0.930 . S
H1157 C1172 0.960 . S
H1158 C1172 0.960 . S
H1159 C1172 0.960 . S
C1160 H1152 0.929 . S
C1160 C1161 1.377 . S
C1160 C1162 1.384 . S
C1161 C1160 1.377 . S
C1161 C1167 1.390 . S
C1162 H1153 0.930 . S
C1162 C1160 1.384 . S
C1162 C1163 1.372 . S
C1163 C1162 1.372 . S
C1163 C1164 1.400 . S
C1163 C1168 1.490 . S
C1164 H1154 0.930 . S
C1164 C1163 1.400 . S
C1164 C1167 1.386 . S
H1165 C1181 0.930 . S
H1166 C1182 0.931 . S
C1167 H1155 0.929 . S
C1167 C1161 1.390 . S
C1167 C1164 1.386 . S
C1168 C1163 1.490 . S
C1168 C1170 1.395 . S
C1168 C1171 1.403 . S
H1169 C1175 0.930 . S
C1170 H1156 0.930 . S
C1170 C1168 1.395 . S
C1170 C1173 1.403 . S
C1171 C1168 1.403 . S
C1171 C1172 1.524 . S
C1171 C1175 1.400 . S
C1172 H1157 0.960 . S
C1172 H1158 0.960 . S
C1172 H1159 0.960 . S
C1172 C1171 1.524 . S
C1173 C1170 1.403 . S
C1173 C1174 1.392 . S
C1173 C1177 1.495 . S
C1174 C1173 1.392 . S
C1174 C1175 1.385 . S
C1174 C1176 1.489 . S
C1175 H1169 0.930 . S
C1175 C1171 1.400 . S
C1175 C1174 1.385 . S
C1176 C1174 1.489 . S
C1176 C1178 1.375 1_556 S
C1176 C1182 1.377 1_556 S
C1177 C1173 1.495 . S
C1177 H1183 0.959 . S
C1177 H1184 0.961 . S
C1177 H1185 0.960 . S
C1178 C1176 1.375 1_554 S
C1178 C1179 1.394 . S
C1178 H1186 0.930 . S
C1179 C1178 1.394 . S
C1179 C1180 1.383 . S
C1179 H1187 0.929 . S
C1180 C1179 1.383 . S
C1180 C1181 1.377 . S
C1181 H1165 0.930 . S
C1181 C1180 1.377 . S
C1181 C1182 1.379 . S
C1182 H1166 0.931 . S
C1182 C1176 1.377 1_554 S
C1182 C1181 1.379 . S
H1183 C1177 0.959 . S
H1184 C1177 0.961 . S
H1185 C1177 0.960 . S
H1186 C1178 0.930 . S
H1187 C1179 0.929 . S
H1188 C1196 0.929 . S
H1189 C1198 0.930 . S
H1190 C1200 0.930 . S
H1191 C1203 0.929 . S
H1192 C1206 0.930 . S
H1193 C1208 0.960 . S
H1194 C1208 0.960 . S
H1195 C1208 0.960 . S
C1196 H1188 0.929 . S
C1196 C1197 1.377 . S
C1196 C1198 1.384 . S
C1197 C1196 1.377 . S
C1197 C1203 1.390 . S
C1198 H1189 0.930 . S
C1198 C1196 1.384 . S
C1198 C1199 1.372 . S
C1199 C1198 1.372 . S
C1199 C1200 1.400 . S
C1199 C1204 1.490 . S
C1200 H1190 0.930 . S
C1200 C1199 1.400 . S
C1200 C1203 1.386 . S
H1201 C1217 0.930 . S
H1202 C1218 0.931 . S
C1203 H1191 0.929 . S
C1203 C1197 1.390 . S
C1203 C1200 1.386 . S
C1204 C1199 1.490 . S
C1204 C1206 1.395 . S
C1204 C1207 1.403 . S
H1205 C1211 0.930 . S
C1206 H1192 0.930 . S
C1206 C1204 1.395 . S
C1206 C1209 1.403 . S
C1207 C1204 1.403 . S
C1207 C1208 1.524 . S
C1207 C1211 1.400 . S
C1208 H1193 0.960 . S
C1208 H1194 0.960 . S
C1208 H1195 0.960 . S
C1208 C1207 1.524 . S
C1209 C1206 1.403 . S
C1209 C1210 1.392 . S
C1209 C1213 1.495 . S
C1210 C1209 1.392 . S
C1210 C1211 1.385 . S
C1210 C1212 1.471 1_556 S
C1211 H1205 0.930 . S
C1211 C1207 1.400 . S
C1211 C1210 1.385 . S
C1212 C1210 1.471 1_554 S
C1212 C1214 1.385 . S
C1212 C1218 1.386 . S
C1213 C1209 1.495 . S
C1213 H1219 0.959 . S
C1213 H1220 0.961 . S
C1213 H1221 0.960 . S
C1214 C1212 1.385 . S
C1214 C1215 1.394 . S
C1214 H1222 0.930 . S
C1215 C1214 1.394 . S
C1215 C1216 1.383 . S
C1215 H1223 0.929 . S
C1216 C1215 1.383 . S
C1216 C1217 1.377 . S
C1217 H1201 0.930 . S
C1217 C1216 1.377 . S
C1217 C1218 1.379 . S
C1218 H1202 0.931 . S
C1218 C1212 1.386 . S
C1218 C1217 1.379 . S
H1219 C1213 0.959 . S
H1220 C1213 0.961 . S
H1221 C1213 0.960 . S
H1222 C1214 0.930 . S
H1223 C1215 0.929 . S
H1224 C1232 0.929 . S
H1225 C1234 0.930 . S
H1226 C1236 0.930 . S
H1227 C1239 0.929 . S
H1228 C1242 0.930 . S
H1229 C1244 0.960 . S
H1230 C1244 0.960 . S
H1231 C1244 0.960 . S
C1232 H1224 0.929 . S
C1232 C1233 1.377 . S
C1232 C1234 1.384 . S
C1233 C1232 1.377 . S
C1233 C1239 1.390 . S
C1234 H1225 0.930 . S
C1234 C1232 1.384 . S
C1234 C1235 1.372 . S
C1235 C1234 1.372 . S
C1235 C1236 1.400 . S
C1235 C1240 1.490 . S
C1236 H1226 0.930 . S
C1236 C1235 1.400 . S
C1236 C1239 1.386 . S
H1237 C1253 0.930 . S
H1238 C1254 0.932 . S
C1239 H1227 0.929 . S
C1239 C1233 1.390 . S
C1239 C1236 1.386 . S
C1240 C1235 1.490 . S
C1240 C1242 1.395 . S
C1240 C1243 1.403 . S
H1241 C1247 0.930 . S
C1242 H1228 0.930 . S
C1242 C1240 1.395 . S
C1242 C1245 1.403 . S
C1243 C1240 1.403 . S
C1243 C1244 1.524 . S
C1243 C1247 1.400 . S
C1244 H1229 0.960 . S
C1244 H1230 0.960 . S
C1244 H1231 0.960 . S
C1244 C1243 1.524 . S
C1245 C1242 1.403 . S
C1245 C1246 1.392 . S
C1245 C1249 1.495 . S
C1246 C1245 1.392 . S
C1246 C1247 1.385 . S
C1246 C1248 1.478 . S
C1247 H1241 0.930 . S
C1247 C1243 1.400 . S
C1247 C1246 1.385 . S
C1248 C1246 1.478 . S
C1248 C1250 1.381 1_554 S
C1248 C1254 1.383 1_554 S
C1249 C1245 1.495 . S
C1249 H1255 0.959 . S
C1249 H1256 0.961 . S
C1249 H1257 0.960 . S
C1250 C1248 1.381 1_556 S
C1250 C1251 1.394 . S
C1250 H1258 0.930 . S
C1251 C1250 1.394 . S
C1251 C1252 1.383 . S
C1251 H1259 0.929 . S
C1252 C1251 1.383 . S
C1252 C1253 1.377 . S
C1253 H1237 0.930 . S
C1253 C1252 1.377 . S
C1253 C1254 1.379 . S
C1254 H1238 0.932 . S
C1254 C1248 1.383 1_556 S
C1254 C1253 1.379 . S
H1255 C1249 0.959 . S
H1256 C1249 0.961 . S
H1257 C1249 0.960 . S
H1258 C1250 0.930 . S
H1259 C1251 0.929 . S
H1260 C1268 0.929 . S
H1261 C1270 0.930 . S
H1262 C1272 0.930 1_554 S
H1263 C1275 0.929 . S
H1264 C1278 0.930 . S
H1265 C1280 0.960 . S
H1266 C1280 0.960 . S
H1267 C1280 0.960 . S
C1268 H1260 0.929 . S
C1268 C1269 1.377 . S
C1268 C1270 1.384 . S
C1269 C1268 1.377 . S
C1269 C1275 1.390 . S
C1270 H1261 0.930 . S
C1270 C1268 1.384 . S
C1270 C1271 1.372 1_556 S
C1271 C1270 1.372 1_554 S
C1271 C1272 1.400 1_554 S
C1271 C1276 1.490 . S
C1272 H1262 0.930 1_556 S
C1272 C1271 1.400 1_556 S
C1272 C1275 1.386 . S
H1273 C1289 0.930 . S
H1274 C1290 0.931 . S
C1275 H1263 0.929 . S
C1275 C1269 1.390 . S
C1275 C1272 1.386 . S
C1276 C1271 1.490 . S
C1276 C1278 1.395 . S
C1276 C1279 1.403 . S
H1277 C1283 0.930 . S
C1278 H1264 0.930 . S
C1278 C1276 1.395 . S
C1278 C1281 1.403 . S
C1279 C1276 1.403 . S
C1279 C1280 1.524 . S
C1279 C1283 1.400 . S
C1280 H1265 0.960 . S
C1280 H1266 0.960 . S
C1280 H1267 0.960 . S
C1280 C1279 1.524 . S
C1281 C1278 1.403 . S
C1281 C1282 1.392 . S
C1281 C1285 1.495 . S
C1282 C1281 1.392 . S
C1282 C1283 1.385 . S
C1282 C1284 1.478 . S
C1283 H1277 0.930 . S
C1283 C1279 1.400 . S
C1283 C1282 1.385 . S
C1284 C1282 1.478 . S
C1284 C1286 1.381 . S
C1284 C1290 1.383 . S
C1285 C1281 1.495 . S
C1285 H1291 0.959 . S
C1285 H1292 0.961 . S
C1285 H1293 0.960 . S
C1286 C1284 1.381 . S
C1286 C1287 1.394 . S
C1286 H1294 0.930 . S
C1287 C1286 1.394 . S
C1287 C1288 1.383 . S
C1287 H1295 0.929 . S
C1288 C1287 1.383 . S
C1288 C1289 1.377 . S
C1289 H1273 0.930 . S
C1289 C1288 1.377 . S
C1289 C1290 1.379 . S
C1290 H1274 0.931 . S
C1290 C1284 1.383 . S
C1290 C1289 1.379 . S
H1291 C1285 0.959 . S
H1292 C1285 0.961 . S
H1293 C1285 0.960 . S
H1294 C1286 0.930 . S
H1295 C1287 0.929 . S
H1296 C1304 0.929 . S
H1297 C1306 0.930 . S
H1298 C1308 0.930 . S
H1299 C1311 0.929 . S
H1300 C1314 0.930 . S
H1301 C1316 0.960 . S
H1302 C1316 0.960 . S
H1303 C1316 0.960 . S
C1304 H1296 0.929 . S
C1304 C1305 1.377 . S
C1304 C1306 1.384 . S
C1305 C1304 1.377 . S
C1305 C1311 1.390 . S
C1306 H1297 0.930 . S
C1306 C1304 1.384 . S
C1306 C1307 1.372 . S
C1307 C1306 1.372 . S
C1307 C1308 1.400 . S
C1307 C1312 1.490 . S
C1308 H1298 0.930 . S
C1308 C1307 1.400 . S
C1308 C1311 1.386 . S
H1309 C1325 0.930 . S
H1310 C1326 0.931 . S
C1311 H1299 0.929 . S
C1311 C1305 1.390 . S
C1311 C1308 1.386 . S
C1312 C1307 1.490 . S
C1312 C1314 1.395 . S
C1312 C1315 1.403 . S
H1313 C1319 0.930 . S
C1314 H1300 0.930 . S
C1314 C1312 1.395 . S
C1314 C1317 1.403 . S
C1315 C1312 1.403 . S
C1315 C1316 1.524 . S
C1315 C1319 1.400 . S
C1316 H1301 0.960 . S
C1316 H1302 0.960 . S
C1316 H1303 0.960 . S
C1316 C1315 1.524 . S
C1317 C1314 1.403 . S
C1317 C1318 1.392 . S
C1317 C1321 1.495 . S
C1318 C1317 1.392 . S
C1318 C1319 1.385 . S
C1318 C1320 1.478 . S
C1319 H1313 0.930 . S
C1319 C1315 1.400 . S
C1319 C1318 1.385 . S
C1320 C1318 1.478 . S
C1320 C1322 1.381 1_554 S
C1320 C1326 1.383 1_554 S
C1321 C1317 1.495 . S
C1321 H1327 0.959 . S
C1321 H1328 0.961 . S
C1321 H1329 0.960 . S
C1322 C1320 1.381 1_556 S
C1322 C1323 1.394 . S
C1322 H1330 0.930 1_556 S
C1323 C1322 1.394 . S
C1323 C1324 1.383 . S
C1323 H1331 0.929 . S
C1324 C1323 1.383 . S
C1324 C1325 1.377 . S
C1325 H1309 0.930 . S
C1325 C1324 1.377 . S
C1325 C1326 1.379 . S
C1326 H1310 0.931 . S
C1326 C1320 1.383 1_556 S
C1326 C1325 1.379 . S
H1327 C1321 0.959 . S
H1328 C1321 0.961 . S
H1329 C1321 0.960 . S
H1330 C1322 0.930 1_554 S
H1331 C1323 0.929 . S
C369 C7 1.971 . S
C388 C282 1.924 . S
C405 C47 1.974 . S
C424 C322 1.916 . S
C441 C87 1.975 . S
C460 C242 1.944 . S
C477 C167 1.976 . S
C496 C82 1.921 . S
C513 C207 1.973 . S
C532 C2 1.955 . S
C549 C42 1.938 . S
C568 C127 1.957 . S
C585 C287 1.971 . S
C604 C202 1.943 . S
C621 C327 1.975 . S
C640 C122 1.922 . S
C657 C162 1.939 . S
C676 C247 1.956 . S
C693 C96 1.745 . S
C712 C11 1.738 1_554 S
C729 C51 1.747 1_554 S
C748 C16 1.734 . S
C765 C56 1.742 . S
C784 C91 1.746 1_554 S
C801 C131 1.747 . S
C820 C216 1.748 . S
C837 C136 1.745 . S
C856 C171 1.739 . S
C873 C176 1.742 . S
C892 C211 1.747 . S
C909 C336 1.745 . S
C928 C251 1.740 . S
C945 C291 1.749 . S
C964 C256 1.733 . S
C981 C331 1.749 . S
C1000 C296 1.741 . S
C1017 C19 0.855 . S
C1036 C10 0.836 . S
C1053 C59 0.843 . S
C1072 C50 0.860 . S
C1089 C99 0.854 . S
C1108 C90 0.833 . S
C1125 C130 0.852 . S
C1144 C139 0.824 . S
C1161 C170 0.846 . S
C1180 C179 0.876 . S
C1197 C210 0.857 . S
C1216 C219 0.876 . S
C1233 C259 0.857 . S
C1252 C250 0.858 . S
C1269 C290 0.842 . S
C1288 C299 0.810 . S
C1305 C339 0.855 . S
C1324 C330 0.885 . S
