# Generated by pormake.
# Topology utc, (3)-cn, num edge types: 1
# Building blocks:
#     Node 0, Type 0, BuildingBlock: OLANEW_clean_sbu_2, # of connection points: 3
#     Node 1, Type 0, BuildingBlock: OLANEW_clean_sbu_2, # of connection points: 3
#     Node 2, Type 0, BuildingBlock: OLANEW_clean_sbu_2, # of connection points: 3
#     Node 3, Type 0, BuildingBlock: OLANEW_clean_sbu_2, # of connection points: 3
#     Node 4, Type 0, BuildingBlock: OLANEW_clean_sbu_2, # of connection points: 3
#     Node 5, Type 0, BuildingBlock: OLANEW_clean_sbu_2, # of connection points: 3
#     Node 6, Type 0, BuildingBlock: OLANEW_clean_sbu_2, # of connection points: 3
#     Node 7, Type 0, BuildingBlock: OLANEW_clean_sbu_2, # of connection points: 3
#     Node 8, Type 0, BuildingBlock: OLANEW_clean_sbu_2, # of connection points: 3
#     Node 9, Type 0, BuildingBlock: OLANEW_clean_sbu_2, # of connection points: 3
#     Node 10, Type 0, BuildingBlock: OLANEW_clean_sbu_2, # of connection points: 3
#     Node 11, Type 0, BuildingBlock: OLANEW_clean_sbu_2, # of connection points: 3
#     Node 12, Type 0, BuildingBlock: OLANEW_clean_sbu_2, # of connection points: 3
#     Node 13, Type 0, BuildingBlock: OLANEW_clean_sbu_2, # of connection points: 3
#     Node 14, Type 0, BuildingBlock: OLANEW_clean_sbu_2, # of connection points: 3
#     Node 15, Type 0, BuildingBlock: OLANEW_clean_sbu_2, # of connection points: 3
#     Node 16, Type 0, BuildingBlock: OLANEW_clean_sbu_2, # of connection points: 3
#     Node 17, Type 0, BuildingBlock: OLANEW_clean_sbu_2, # of connection points: 3
#     Node 18, Type 0, BuildingBlock: OLANEW_clean_sbu_2, # of connection points: 3
#     Node 19, Type 0, BuildingBlock: OLANEW_clean_sbu_2, # of connection points: 3
#     Node 20, Type 0, BuildingBlock: OLANEW_clean_sbu_2, # of connection points: 3
#     Node 21, Type 0, BuildingBlock: OLANEW_clean_sbu_2, # of connection points: 3
#     Node 22, Type 0, BuildingBlock: OLANEW_clean_sbu_2, # of connection points: 3
#     Node 23, Type 0, BuildingBlock: OLANEW_clean_sbu_2, # of connection points: 3
#     Node 24, Type 0, BuildingBlock: OLANEW_clean_sbu_2, # of connection points: 3
#     Node 25, Type 0, BuildingBlock: OLANEW_clean_sbu_2, # of connection points: 3
#     Node 26, Type 0, BuildingBlock: OLANEW_clean_sbu_2, # of connection points: 3
#     Node 27, Type 0, BuildingBlock: OLANEW_clean_sbu_2, # of connection points: 3
#     Node 28, Type 0, BuildingBlock: OLANEW_clean_sbu_2, # of connection points: 3
#     Node 29, Type 0, BuildingBlock: OLANEW_clean_sbu_2, # of connection points: 3
#     Node 30, Type 0, BuildingBlock: OLANEW_clean_sbu_2, # of connection points: 3
#     Node 31, Type 0, BuildingBlock: OLANEW_clean_sbu_2, # of connection points: 3
#     Node 32, Type 0, BuildingBlock: OLANEW_clean_sbu_2, # of connection points: 3
#     Node 33, Type 0, BuildingBlock: OLANEW_clean_sbu_2, # of connection points: 3
#     Node 34, Type 0, BuildingBlock: OLANEW_clean_sbu_2, # of connection points: 3
#     Node 35, Type 0, BuildingBlock: OLANEW_clean_sbu_2, # of connection points: 3
#     Node 36, Type 0, BuildingBlock: OLANEW_clean_sbu_2, # of connection points: 3
#     Node 37, Type 0, BuildingBlock: OLANEW_clean_sbu_2, # of connection points: 3
#     Node 38, Type 0, BuildingBlock: OLANEW_clean_sbu_2, # of connection points: 3
#     Node 39, Type 0, BuildingBlock: OLANEW_clean_sbu_2, # of connection points: 3
#     Node 40, Type 0, BuildingBlock: OLANEW_clean_sbu_2, # of connection points: 3
#     Node 41, Type 0, BuildingBlock: OLANEW_clean_sbu_2, # of connection points: 3
#     Node 42, Type 0, BuildingBlock: OLANEW_clean_sbu_2, # of connection points: 3
#     Node 43, Type 0, BuildingBlock: OLANEW_clean_sbu_2, # of connection points: 3
#     Node 44, Type 0, BuildingBlock: OLANEW_clean_sbu_2, # of connection points: 3
#     Node 45, Type 0, BuildingBlock: OLANEW_clean_sbu_2, # of connection points: 3
#     Node 46, Type 0, BuildingBlock: OLANEW_clean_sbu_2, # of connection points: 3
#     Node 47, Type 0, BuildingBlock: OLANEW_clean_sbu_2, # of connection points: 3
#     Edge 48, Type (0, 0), BuildingBlock: UVAHIK_clean_linker_0, # of connection points: 2
#     Edge 49, Type (0, 0), BuildingBlock: UVAHIK_clean_linker_0, # of connection points: 2
#     Edge 50, Type (0, 0), BuildingBlock: UVAHIK_clean_linker_0, # of connection points: 2
#     Edge 51, Type (0, 0), BuildingBlock: UVAHIK_clean_linker_0, # of connection points: 2
#     Edge 52, Type (0, 0), BuildingBlock: UVAHIK_clean_linker_0, # of connection points: 2
#     Edge 53, Type (0, 0), BuildingBlock: UVAHIK_clean_linker_0, # of connection points: 2
#     Edge 54, Type (0, 0), BuildingBlock: UVAHIK_clean_linker_0, # of connection points: 2
#     Edge 55, Type (0, 0), BuildingBlock: UVAHIK_clean_linker_0, # of connection points: 2
#     Edge 56, Type (0, 0), BuildingBlock: UVAHIK_clean_linker_0, # of connection points: 2
#     Edge 57, Type (0, 0), BuildingBlock: UVAHIK_clean_linker_0, # of connection points: 2
#     Edge 58, Type (0, 0), BuildingBlock: UVAHIK_clean_linker_0, # of connection points: 2
#     Edge 59, Type (0, 0), BuildingBlock: UVAHIK_clean_linker_0, # of connection points: 2
#     Edge 60, Type (0, 0), BuildingBlock: UVAHIK_clean_linker_0, # of connection points: 2
#     Edge 61, Type (0, 0), BuildingBlock: UVAHIK_clean_linker_0, # of connection points: 2
#     Edge 62, Type (0, 0), BuildingBlock: UVAHIK_clean_linker_0, # of connection points: 2
#     Edge 63, Type (0, 0), BuildingBlock: UVAHIK_clean_linker_0, # of connection points: 2
#     Edge 64, Type (0, 0), BuildingBlock: UVAHIK_clean_linker_0, # of connection points: 2
#     Edge 65, Type (0, 0), BuildingBlock: UVAHIK_clean_linker_0, # of connection points: 2
#     Edge 66, Type (0, 0), BuildingBlock: UVAHIK_clean_linker_0, # of connection points: 2
#     Edge 67, Type (0, 0), BuildingBlock: UVAHIK_clean_linker_0, # of connection points: 2
#     Edge 68, Type (0, 0), BuildingBlock: UVAHIK_clean_linker_0, # of connection points: 2
#     Edge 69, Type (0, 0), BuildingBlock: UVAHIK_clean_linker_0, # of connection points: 2
#     Edge 70, Type (0, 0), BuildingBlock: UVAHIK_clean_linker_0, # of connection points: 2
#     Edge 71, Type (0, 0), BuildingBlock: UVAHIK_clean_linker_0, # of connection points: 2
#     Edge 72, Type (0, 0), BuildingBlock: UVAHIK_clean_linker_0, # of connection points: 2
#     Edge 73, Type (0, 0), BuildingBlock: UVAHIK_clean_linker_0, # of connection points: 2
#     Edge 74, Type (0, 0), BuildingBlock: UVAHIK_clean_linker_0, # of connection points: 2
#     Edge 75, Type (0, 0), BuildingBlock: UVAHIK_clean_linker_0, # of connection points: 2
#     Edge 76, Type (0, 0), BuildingBlock: UVAHIK_clean_linker_0, # of connection points: 2
#     Edge 77, Type (0, 0), BuildingBlock: UVAHIK_clean_linker_0, # of connection points: 2
#     Edge 78, Type (0, 0), BuildingBlock: UVAHIK_clean_linker_0, # of connection points: 2
#     Edge 79, Type (0, 0), BuildingBlock: UVAHIK_clean_linker_0, # of connection points: 2
#     Edge 80, Type (0, 0), BuildingBlock: UVAHIK_clean_linker_0, # of connection points: 2
#     Edge 81, Type (0, 0), BuildingBlock: UVAHIK_clean_linker_0, # of connection points: 2
#     Edge 82, Type (0, 0), BuildingBlock: UVAHIK_clean_linker_0, # of connection points: 2
#     Edge 83, Type (0, 0), BuildingBlock: UVAHIK_clean_linker_0, # of connection points: 2
#     Edge 84, Type (0, 0), BuildingBlock: UVAHIK_clean_linker_0, # of connection points: 2
#     Edge 85, Type (0, 0), BuildingBlock: UVAHIK_clean_linker_0, # of connection points: 2
#     Edge 86, Type (0, 0), BuildingBlock: UVAHIK_clean_linker_0, # of connection points: 2
#     Edge 87, Type (0, 0), BuildingBlock: UVAHIK_clean_linker_0, # of connection points: 2
#     Edge 88, Type (0, 0), BuildingBlock: UVAHIK_clean_linker_0, # of connection points: 2
#     Edge 89, Type (0, 0), BuildingBlock: UVAHIK_clean_linker_0, # of connection points: 2
#     Edge 90, Type (0, 0), BuildingBlock: UVAHIK_clean_linker_0, # of connection points: 2
#     Edge 91, Type (0, 0), BuildingBlock: UVAHIK_clean_linker_0, # of connection points: 2
#     Edge 92, Type (0, 0), BuildingBlock: UVAHIK_clean_linker_0, # of connection points: 2
#     Edge 93, Type (0, 0), BuildingBlock: UVAHIK_clean_linker_0, # of connection points: 2
#     Edge 94, Type (0, 0), BuildingBlock: UVAHIK_clean_linker_0, # of connection points: 2
#     Edge 95, Type (0, 0), BuildingBlock: UVAHIK_clean_linker_0, # of connection points: 2
#     Edge 96, Type (0, 0), BuildingBlock: UVAHIK_clean_linker_0, # of connection points: 2
#     Edge 97, Type (0, 0), BuildingBlock: UVAHIK_clean_linker_0, # of connection points: 2
#     Edge 98, Type (0, 0), BuildingBlock: UVAHIK_clean_linker_0, # of connection points: 2
#     Edge 99, Type (0, 0), BuildingBlock: UVAHIK_clean_linker_0, # of connection points: 2
#     Edge 100, Type (0, 0), BuildingBlock: UVAHIK_clean_linker_0, # of connection points: 2
#     Edge 101, Type (0, 0), BuildingBlock: UVAHIK_clean_linker_0, # of connection points: 2
#     Edge 102, Type (0, 0), BuildingBlock: UVAHIK_clean_linker_0, # of connection points: 2
#     Edge 103, Type (0, 0), BuildingBlock: UVAHIK_clean_linker_0, # of connection points: 2
#     Edge 104, Type (0, 0), BuildingBlock: UVAHIK_clean_linker_0, # of connection points: 2
#     Edge 105, Type (0, 0), BuildingBlock: UVAHIK_clean_linker_0, # of connection points: 2
#     Edge 106, Type (0, 0), BuildingBlock: UVAHIK_clean_linker_0, # of connection points: 2
#     Edge 107, Type (0, 0), BuildingBlock: UVAHIK_clean_linker_0, # of connection points: 2
#     Edge 108, Type (0, 0), BuildingBlock: UVAHIK_clean_linker_0, # of connection points: 2
#     Edge 109, Type (0, 0), BuildingBlock: UVAHIK_clean_linker_0, # of connection points: 2
#     Edge 110, Type (0, 0), BuildingBlock: UVAHIK_clean_linker_0, # of connection points: 2
#     Edge 111, Type (0, 0), BuildingBlock: UVAHIK_clean_linker_0, # of connection points: 2
#     Edge 112, Type (0, 0), BuildingBlock: UVAHIK_clean_linker_0, # of connection points: 2
#     Edge 113, Type (0, 0), BuildingBlock: UVAHIK_clean_linker_0, # of connection points: 2
#     Edge 114, Type (0, 0), BuildingBlock: UVAHIK_clean_linker_0, # of connection points: 2
#     Edge 115, Type (0, 0), BuildingBlock: UVAHIK_clean_linker_0, # of connection points: 2
#     Edge 116, Type (0, 0), BuildingBlock: UVAHIK_clean_linker_0, # of connection points: 2
#     Edge 117, Type (0, 0), BuildingBlock: UVAHIK_clean_linker_0, # of connection points: 2
#     Edge 118, Type (0, 0), BuildingBlock: UVAHIK_clean_linker_0, # of connection points: 2
#     Edge 119, Type (0, 0), BuildingBlock: UVAHIK_clean_linker_0, # of connection points: 2
# Relax obj value: 0.001
# Max RMSD: 0.044
# Mean RMSD: 0.044
data_MOF--net-utc--node1-OLANEW_clean_sbu_2--edge1-UVAHIK_clean_linker_0
_symmetry_space_group_name_H-M    P1
_symmetry_Int_Tables_number       1
_symmetry_cell_setting            triclinic
loop_
_symmetry_equiv_pos_as_xyz
'x, y, z'
_cell_length_a     104.62119
_cell_length_b     104.65686
_cell_length_c     104.62988
_cell_angle_alpha  89.997822
_cell_angle_beta   89.989326
_cell_angle_gamma 90.004174
loop_
_atom_site_label
_atom_site_type_symbol
_atom_site_fract_x
_atom_site_fract_y
_atom_site_fract_z
_atom_type_partial_charge
O0 O 0.04262 0.15548 0.30862 0.0
Cd1 Cd 0.05168 0.1679 0.32624 0.0
O2 O 0.0476 0.16993 0.2942 0.0
Cd3 Cd 0.05318 0.184 0.30851 0.0
O4 O 0.04861 0.20129 0.31921 0.0
C5 C 0.03681 0.203 0.32152 0.0
O6 O 0.02863 0.19414 0.318 0.0
C7 C 0.04294 0.15907 0.297 0.0
C8 C 0.07608 0.15948 0.33293 0.0
O9 O 0.06612 0.15502 0.33849 0.0
O10 O 0.07449 0.16792 0.32418 0.0
O11 O 0.10228 0.76888 0.52883 0.0
Cd12 Cd 0.08787 0.78059 0.54305 0.0
O13 O 0.09681 0.77928 0.51141 0.0
Cd14 Cd 0.08162 0.78935 0.52152 0.0
O15 O 0.0625 0.78912 0.52985 0.0
C16 C 0.05813 0.77798 0.53193 0.0
O17 O 0.06539 0.76809 0.52926 0.0
C18 C 0.10359 0.77081 0.51689 0.0
C19 C 0.09969 0.80052 0.55622 0.0
O20 O 0.09983 0.78908 0.5606 0.0
O21 O 0.09406 0.80252 0.54552 0.0
O22 O 0.46553 0.85338 0.78155 0.0
Cd23 Cd 0.4535 0.83958 0.79613 0.0
O24 O 0.45823 0.84408 0.76417 0.0
Cd25 Cd 0.44946 0.82862 0.77506 0.0
O26 O 0.45217 0.80982 0.78369 0.0
C27 C 0.46285 0.80817 0.78924 0.0
O28 O 0.47084 0.81784 0.78991 0.0
C29 C 0.46497 0.85272 0.76942 0.0
C30 C 0.43133 0.85087 0.80577 0.0
O31 O 0.44209 0.85217 0.81149 0.0
O32 O 0.4311 0.84435 0.7954 0.0
O33 O 0.3551 0.245 0.10584 0.0
Cd34 Cd 0.35657 0.2323 0.12537 0.0
O35 O 0.37581 0.24235 0.10431 0.0
Cd36 Cd 0.3946 0.24664 0.09627 0.0
O37 O 0.41278 0.25219 0.08774 0.0
C38 C 0.41438 0.26354 0.08373 0.0
O39 O 0.40495 0.27177 0.08477 0.0
C40 C 0.3655 0.24707 0.09991 0.0
C41 C 0.35287 0.20621 0.12153 0.0
O42 O 0.34363 0.2134 0.12514 0.0
O43 O 0.3638 0.21138 0.11958 0.0
O44 O 0.05818 0.83523 0.19971 0.0
Cd45 Cd 0.07074 0.82485 0.18289 0.0
O46 O 0.07217 0.83292 0.21525 0.0
Cd47 Cd 0.08319 0.82003 0.20314 0.0
O48 O 0.08262 0.802 0.19266 0.0
C49 C 0.07935 0.79224 0.1991 0.0
O50 O 0.07763 0.79349 0.21148 0.0
C51 C 0.06151 0.83719 0.21125 0.0
C52 C 0.08901 0.84086 0.17181 0.0
O53 O 0.07742 0.84078 0.16782 0.0
O54 O 0.09193 0.83346 0.18112 0.0
O55 O 0.40854 0.81818 0.48135 0.0
Cd56 Cd 0.42163 0.82817 0.4648 0.0
O57 O 0.42257 0.82042 0.49684 0.0
Cd58 Cd 0.43742 0.82677 0.48364 0.0
O59 O 0.45419 0.82442 0.47143 0.0
C60 C 0.45337 0.81668 0.46211 0.0
O61 O 0.44239 0.81101 0.45988 0.0
C62 C 0.41157 0.8169 0.49305 0.0
C63 C 0.40743 0.84606 0.45108 0.0
O64 O 0.40728 0.8342 0.44804 0.0
O65 O 0.41438 0.84949 0.46056 0.0
O66 O 0.44137 0.14741 0.67341 0.0
Cd67 Cd 0.42917 0.15314 0.65432 0.0
O68 O 0.45421 0.16321 0.66858 0.0
Cd69 Cd 0.47004 0.17647 0.67195 0.0
O70 O 0.4853 0.19008 0.67612 0.0
C71 C 0.4923 0.19448 0.66721 0.0
O72 O 0.49031 0.19062 0.65543 0.0
C73 C 0.45129 0.15396 0.67591 0.0
C74 C 0.40835 0.13718 0.6495 0.0
O75 O 0.41952 0.13446 0.64526 0.0
O76 O 0.40706 0.14737 0.65617 0.0
O77 O 0.12495 0.2287 0.89553 0.0
Cd78 Cd 0.12401 0.21733 0.87516 0.0
O79 O 0.10434 0.22534 0.89724 0.0
Cd80 Cd 0.08586 0.22832 0.90648 0.0
O81 O 0.06756 0.23349 0.915 0.0
C82 C 0.06584 0.24477 0.91917 0.0
O83 O 0.07524 0.25306 0.91838 0.0
C84 C 0.11463 0.22989 0.90182 0.0
C85 C 0.13241 0.19213 0.87732 0.0
O86 O 0.14005 0.201 0.87373 0.0
O87 O 0.12083 0.19518 0.87991 0.0
O88 O 0.32745 0.03152 0.12752 0.0
Cd89 Cd 0.34723 0.04338 0.13114 0.0
O90 O 0.31984 0.04066 0.14475 0.0
Cd91 Cd 0.30621 0.04198 0.16051 0.0
O92 O 0.29591 0.03913 0.17839 0.0
C93 C 0.2923 0.02789 0.18122 0.0
O94 O 0.29442 0.01859 0.17305 0.0
C95 C 0.31842 0.03287 0.13553 0.0
C96 C 0.34524 0.06948 0.12629 0.0
O97 O 0.34957 0.06182 0.11776 0.0
O98 O 0.34169 0.06476 0.13702 0.0
O99 O 0.23798 0.10136 0.37616 0.0
Cd100 Cd 0.22859 0.12227 0.38073 0.0
O101 O 0.23811 0.09824 0.39681 0.0
Cd102 Cd 0.24083 0.08814 0.41493 0.0
O103 O 0.24576 0.07947 0.43324 0.0
C104 C 0.25719 0.08023 0.43729 0.0
O105 O 0.26577 0.08611 0.43026 0.0
C106 C 0.24076 0.09426 0.38562 0.0
C107 C 0.20368 0.12539 0.37173 0.0
O108 O 0.21332 0.1286 0.36488 0.0
O109 O 0.20584 0.12052 0.38276 0.0
O110 O 0.16509 0.93863 0.64611 0.0
Cd111 Cd 0.14772 0.92423 0.65218 0.0
O112 O 0.17505 0.93357 0.66384 0.0
Cd113 Cd 0.18963 0.93715 0.67835 0.0
O114 O 0.20029 0.94484 0.69451 0.0
C115 C 0.20054 0.9569 0.69593 0.0
O116 O 0.19485 0.96412 0.68737 0.0
C117 C 0.17458 0.94002 0.65356 0.0
C118 C 0.14316 0.90463 0.6347 0.0
O119 O 0.13782 0.91559 0.63343 0.0
O120 O 0.1508 0.90302 0.64413 0.0
O121 O 0.2776 0.90785 0.87611 0.0
Cd122 Cd 0.2904 0.88853 0.87932 0.0
O123 O 0.27558 0.90828 0.8969 0.0
Cd124 Cd 0.26968 0.91536 0.91571 0.0
O125 O 0.26102 0.92128 0.93374 0.0
C126 C 0.24996 0.91716 0.93663 0.0
O127 O 0.24406 0.90947 0.92866 0.0
C128 C 0.27288 0.91305 0.88603 0.0
C129 C 0.31318 0.88725 0.86548 0.0
O130 O 0.30268 0.88306 0.86076 0.0
O131 O 0.31284 0.89233 0.87663 0.0
O132 O 0.31339 0.97135 0.36607 0.0
Cd133 Cd 0.32633 0.95363 0.35799 0.0
O134 O 0.30389 0.97008 0.34753 0.0
Cd135 Cd 0.29088 0.97462 0.33176 0.0
O136 O 0.28343 0.98038 0.31314 0.0
C137 C 0.28024 0.99191 0.31105 0.0
O138 O 0.28086 0.00021 0.32045 0.0
C139 C 0.30521 0.97573 0.35823 0.0
C140 C 0.33691 0.93744 0.37631 0.0
O141 O 0.34248 0.94789 0.37316 0.0
O142 O 0.32616 0.93481 0.37104 0.0
O143 O 0.26856 0.03725 0.60599 0.0
Cd144 Cd 0.28136 0.05099 0.59201 0.0
O145 O 0.28138 0.0206 0.60529 0.0
Cd146 Cd 0.29254 0.02961 0.59019 0.0
O147 O 0.29299 0.03654 0.57053 0.0
C148 C 0.28238 0.03534 0.56473 0.0
O149 O 0.27269 0.03028 0.57091 0.0
C150 C 0.27132 0.02595 0.60954 0.0
C151 C 0.3013 0.06365 0.60445 0.0
O152 O 0.29004 0.06845 0.60407 0.0
O153 O 0.30309 0.05278 0.59909 0.0
O154 O 0.17617 0.01877 0.87553 0.0
Cd155 Cd 0.15789 0.03186 0.86911 0.0
O156 O 0.1842 0.02326 0.85679 0.0
Cd157 Cd 0.19721 0.02275 0.84037 0.0
O158 O 0.20494 0.01831 0.8215 0.0
C159 C 0.21236 0.00883 0.81989 0.0
O160 O 0.21596 0.00213 0.82989 0.0
C161 C 0.1849 0.01709 0.86726 0.0
C162 C 0.15923 0.05796 0.87425 0.0
O163 O 0.15376 0.05027 0.88207 0.0
O164 O 0.16443 0.05324 0.86421 0.0
O165 O 0.21532 0.94188 0.1018 0.0
Cd166 Cd 0.20177 0.92742 0.08933 0.0
O167 O 0.20207 0.95818 0.10164 0.0
Cd168 Cd 0.19075 0.94869 0.08696 0.0
O169 O 0.19261 0.94344 0.06686 0.0
C170 C 0.20261 0.94808 0.06176 0.0
O171 O 0.21015 0.95525 0.06879 0.0
C172 C 0.2125 0.95316 0.10534 0.0
C173 C 0.18377 0.91456 0.10427 0.0
O174 O 0.19516 0.91024 0.10296 0.0
O175 O 0.1809 0.92501 0.09857 0.0
O176 O 0.1489 0.2959 0.02225 0.0
Cd177 Cd 0.16291 0.3042 0.0391 0.0
O178 O 0.14568 0.27703 0.03096 0.0
Cd179 Cd 0.16036 0.28094 0.0452 0.0
O180 O 0.18053 0.28485 0.0488 0.0
C181 C 0.18815 0.27945 0.04104 0.0
O182 O 0.1834 0.27178 0.0323 0.0
C183 C 0.14353 0.28499 0.02203 0.0
C184 C 0.1503 0.31354 0.06072 0.0
O185 O 0.15251 0.32078 0.05109 0.0
O186 O 0.15384 0.30184 0.06003 0.0
O187 O 0.65284 0.20129 0.92574 0.0
Cd188 Cd 0.66555 0.1849 0.91498 0.0
O189 O 0.6558 0.21633 0.91136 0.0
Cd190 Cd 0.67119 0.20501 0.90303 0.0
O191 O 0.68991 0.19664 0.90684 0.0
C192 C 0.69827 0.20425 0.91127 0.0
O193 O 0.69539 0.21643 0.91225 0.0
C194 C 0.65043 0.21245 0.92155 0.0
C195 C 0.65052 0.17172 0.89733 0.0
O196 O 0.65093 0.16831 0.90909 0.0
O197 O 0.65733 0.1813 0.89388 0.0
O198 O 0.09817 0.37477 0.21986 0.0
Cd199 Cd 0.11823 0.37483 0.20784 0.0
O200 O 0.09353 0.39362 0.21193 0.0
Cd201 Cd 0.08226 0.41114 0.21275 0.0
O202 O 0.07251 0.42856 0.21862 0.0
C203 C 0.06919 0.42978 0.23025 0.0
O204 O 0.07148 0.42039 0.23826 0.0
C205 C 0.09072 0.38434 0.21925 0.0
C206 C 0.11719 0.36442 0.18331 0.0
O207 O 0.11949 0.35738 0.19307 0.0
O208 O 0.11504 0.37633 0.18519 0.0
O209 O 0.88003 0.83141 0.48453 0.0
Cd210 Cd 0.87382 0.84975 0.47139 0.0
O211 O 0.85947 0.82778 0.48584 0.0
Cd212 Cd 0.84256 0.8187 0.49412 0.0
O213 O 0.82517 0.81087 0.50256 0.0
C214 C 0.81945 0.81704 0.51132 0.0
O215 O 0.82426 0.82797 0.5152 0.0
C216 C 0.87084 0.82478 0.4889 0.0
C217 C 0.88594 0.85225 0.44777 0.0
O218 O 0.89066 0.85735 0.45786 0.0
O219 O 0.87568 0.84565 0.44892 0.0
O220 O 0.94247 0.09529 0.2223 0.0
Cd221 Cd 0.92352 0.08306 0.21614 0.0
O222 O 0.95598 0.08125 0.21444 0.0
Cd223 Cd 0.94093 0.06726 0.21094 0.0
O224 O 0.93096 0.05017 0.21748 0.0
C225 C 0.92653 0.05038 0.2288 0.0
O226 O 0.92736 0.06103 0.2354 0.0
C227 C 0.95389 0.0919 0.21988 0.0
C228 C 0.91136 0.09357 0.19487 0.0
O229 O 0.9084 0.09709 0.20622 0.0
O230 O 0.9201 0.08508 0.19358 0.0
O231 O 0.33622 0.72289 0.57007 0.0
Cd232 Cd 0.32345 0.70601 0.57991 0.0
O233 O 0.32236 0.73827 0.5737 0.0
Cd234 Cd 0.30731 0.72478 0.57886 0.0
O235 O 0.2901 0.71405 0.57388 0.0
C236 C 0.29111 0.70501 0.56584 0.0
O237 O 0.30253 0.70196 0.56156 0.0
C238 C 0.33325 0.73467 0.56968 0.0
C239 C 0.33748 0.69431 0.59934 0.0
O240 O 0.33826 0.69041 0.58776 0.0
O241 O 0.32993 0.70365 0.60177 0.0
O242 O 0.03239 0.59766 0.26326 0.0
Cd243 Cd 0.04304 0.58196 0.27695 0.0
O244 O 0.01321 0.5945 0.27129 0.0
Cd245 Cd 0.01998 0.57814 0.28225 0.0
O246 O 0.0261 0.55828 0.28067 0.0
C247 C 0.02812 0.55481 0.2692 0.0
O248 O 0.0266 0.56325 0.26002 0.0
C249 C 0.02055 0.60043 0.26362 0.0
C250 C 0.05485 0.59279 0.29826 0.0
O251 O 0.06079 0.59173 0.28759 0.0
O252 O 0.04327 0.58882 0.29882 0.0
O253 O 0.42937 0.37738 0.78177 0.0
Cd254 Cd 0.40936 0.38068 0.79336 0.0
O255 O 0.43598 0.39566 0.78952 0.0
Cd256 Cd 0.44853 0.41234 0.78982 0.0
O257 O 0.45702 0.43121 0.7874 0.0
C258 C 0.46309 0.4339 0.77723 0.0
O259 O 0.46462 0.42499 0.76851 0.0
C260 C 0.43791 0.38599 0.78243 0.0
C261 C 0.40997 0.37395 0.81914 0.0
O262 O 0.40606 0.36602 0.81066 0.0
O263 O 0.41384 0.38495 0.81538 0.0
O264 O 0.54474 0.62618 0.83655 0.0
Cd265 Cd 0.55752 0.63009 0.85576 0.0
O266 O 0.54147 0.64683 0.836 0.0
Cd267 Cd 0.53205 0.66433 0.82952 0.0
O268 O 0.5235 0.68274 0.82472 0.0
C269 C 0.51231 0.68355 0.82008 0.0
O270 O 0.50577 0.67303 0.81799 0.0
C271 C 0.53951 0.6358 0.8313 0.0
C272 C 0.57994 0.6158 0.85782 0.0
O273 O 0.56922 0.61137 0.86178 0.0
O274 O 0.58001 0.62689 0.85261 0.0
O275 O 0.57749 0.2906 0.01671 0.0
Cd276 Cd 0.56554 0.30134 0.03367 0.0
O277 O 0.57058 0.3028 0.00105 0.0
Cd278 Cd 0.55604 0.31093 0.01359 0.0
O279 O 0.5383 0.30906 0.02443 0.0
C280 C 0.53536 0.29769 0.02755 0.0
O281 O 0.54313 0.28836 0.02436 0.0
C282 C 0.57774 0.29381 0.00498 0.0
C283 C 0.58015 0.32035 0.04531 0.0
O284 O 0.58075 0.30871 0.04908 0.0
O285 O 0.57261 0.32301 0.03603 0.0
O286 O 0.99113 0.37062 0.31908 0.0
Cd287 Cd 0.97906 0.35941 0.3358 0.0
O288 O 0.98048 0.36213 0.30306 0.0
Cd289 Cd 0.97201 0.34793 0.3157 0.0
O290 O 0.97592 0.32953 0.3247 0.0
C291 C 0.98716 0.32817 0.32911 0.0
O292 O 0.99503 0.33795 0.32868 0.0
C293 C 0.98897 0.36981 0.30713 0.0
C294 C 0.95485 0.36935 0.34123 0.0
O295 O 0.96478 0.37332 0.34722 0.0
O296 O 0.95641 0.36089 0.33252 0.0
O297 O 0.87002 0.73041 0.59681 0.0
Cd298 Cd 0.87263 0.71785 0.61638 0.0
O299 O 0.89076 0.72893 0.59439 0.0
Cd300 Cd 0.90906 0.73423 0.58579 0.0
O301 O 0.92766 0.73945 0.57794 0.0
C302 C 0.93054 0.75107 0.57592 0.0
O303 O 0.92209 0.75999 0.57851 0.0
C304 C 0.88003 0.73314 0.5905 0.0
C305 C 0.85755 0.69592 0.61819 0.0
O306 O 0.85338 0.70678 0.62202 0.0
O307 O 0.86875 0.69549 0.61322 0.0
O308 O 0.54034 0.34937 0.69217 0.0
Cd309 Cd 0.55314 0.33534 0.67845 0.0
O310 O 0.55333 0.34911 0.7087 0.0
Cd311 Cd 0.56467 0.33417 0.69965 0.0
O312 O 0.56473 0.31442 0.69295 0.0
C313 C 0.56131 0.30608 0.70108 0.0
O314 O 0.55904 0.30974 0.71288 0.0
C315 C 0.54314 0.3531 0.70341 0.0
C316 C 0.57259 0.34768 0.66494 0.0
O317 O 0.56123 0.34696 0.66041 0.0
O318 O 0.5747 0.34274 0.67595 0.0
O319 O 0.89562 0.27372 0.967 0.0
Cd320 Cd 0.91199 0.2853 0.95491 0.0
O321 O 0.90158 0.28111 0.98576 0.0
Cd322 Cd 0.9183 0.29037 0.97748 0.0
O323 O 0.93751 0.28909 0.96946 0.0
C324 C 0.94066 0.27796 0.96576 0.0
O325 O 0.93227 0.26867 0.96681 0.0
C326 C 0.89407 0.2743 0.97905 0.0
C327 C 0.90321 0.3077 0.94344 0.0
O328 O 0.90249 0.29693 0.93764 0.0
O329 O 0.90793 0.30785 0.95474 0.0
O330 O 0.95026 0.64831 0.15036 0.0
Cd331 Cd 0.93837 0.65501 0.13143 0.0
O332 O 0.96506 0.66246 0.14595 0.0
Cd333 Cd 0.98206 0.67391 0.15017 0.0
O334 O 0.99826 0.68578 0.15584 0.0
C335 C 0.00487 0.6917 0.14756 0.0
O336 O 0.00194 0.69049 0.1354 0.0
C337 C 0.96076 0.6537 0.15321 0.0
C338 C 0.91327 0.64601 0.13186 0.0
O339 O 0.92206 0.63984 0.12595 0.0
O340 O 0.91636 0.65641 0.13754 0.0
O341 O 0.6192 0.72574 0.38777 0.0
Cd342 Cd 0.61584 0.714 0.36789 0.0
O343 O 0.59946 0.73249 0.38626 0.0
Cd344 Cd 0.58283 0.74379 0.39195 0.0
O345 O 0.5659 0.75416 0.39825 0.0
C346 C 0.56675 0.7629 0.40664 0.0
O347 O 0.57802 0.76569 0.41143 0.0
C348 C 0.60994 0.73209 0.39239 0.0
C349 C 0.62493 0.68904 0.36984 0.0
O350 O 0.63184 0.69786 0.36487 0.0
O351 O 0.61374 0.69203 0.37383 0.0
O352 O 0.76447 0.54963 0.65141 0.0
Cd353 Cd 0.7772 0.56169 0.66689 0.0
O354 O 0.74676 0.55057 0.6627 0.0
Cd355 Cd 0.75674 0.55824 0.6793 0.0
O356 O 0.76723 0.55405 0.69684 0.0
C357 C 0.77495 0.54469 0.69615 0.0
O358 O 0.77646 0.53893 0.68508 0.0
C359 C 0.75261 0.54719 0.6526 0.0
C360 C 0.78928 0.58288 0.65609 0.0
O361 O 0.79466 0.57188 0.65611 0.0
O362 O 0.77814 0.58384 0.66111 0.0
O363 O 0.73422 0.53506 0.89428 0.0
Cd364 Cd 0.7186 0.54528 0.90848 0.0
O365 O 0.72403 0.51678 0.89219 0.0
Cd366 Cd 0.71063 0.52234 0.90712 0.0
O367 O 0.70643 0.52755 0.92687 0.0
C368 C 0.71492 0.52416 0.93486 0.0
O369 O 0.7249 0.51778 0.93069 0.0
C370 C 0.73343 0.52396 0.88937 0.0
C371 C 0.69688 0.55502 0.89634 0.0
O372 O 0.70706 0.56177 0.89741 0.0
O373 O 0.69706 0.54363 0.9008 0.0
O374 O 0.67018 0.45274 0.12477 0.0
Cd375 Cd 0.65507 0.43653 0.13224 0.0
O376 O 0.6766 0.45243 0.14462 0.0
Cd377 Cd 0.6863 0.45924 0.16182 0.0
O378 O 0.69337 0.46461 0.18067 0.0
C379 C 0.69617 0.47612 0.18332 0.0
O380 O 0.69506 0.4849 0.17441 0.0
C381 C 0.67744 0.45715 0.13345 0.0
C382 C 0.64665 0.41873 0.11431 0.0
O383 O 0.64111 0.4296 0.11549 0.0
O384 O 0.65642 0.41645 0.12135 0.0
O385 O 0.79424 0.42496 0.38859 0.0
Cd386 Cd 0.80444 0.40538 0.39629 0.0
O387 O 0.7995 0.43573 0.40585 0.0
Cd388 Cd 0.80527 0.41879 0.41654 0.0
O389 O 0.79824 0.40759 0.43269 0.0
C390 C 0.78636 0.40507 0.43242 0.0
O391 O 0.77975 0.40838 0.42226 0.0
C392 C 0.79449 0.43542 0.39478 0.0
C393 C 0.82866 0.40153 0.38576 0.0
O394 O 0.81863 0.39705 0.38034 0.0
O395 O 0.82723 0.40789 0.39612 0.0
O396 O 0.85323 0.45628 0.86125 0.0
Cd397 Cd 0.8734 0.44479 0.85853 0.0
O398 O 0.85101 0.45668 0.84041 0.0
Cd399 Cd 0.84156 0.46363 0.82313 0.0
O400 O 0.83316 0.47297 0.8065 0.0
C401 C 0.82635 0.48294 0.80789 0.0
O402 O 0.8243 0.48736 0.81946 0.0
C403 C 0.84684 0.45954 0.85145 0.0
C404 C 0.87546 0.42301 0.8738 0.0
O405 O 0.87902 0.43398 0.87793 0.0
O406 O 0.87078 0.42237 0.8625 0.0
O407 O 0.74756 0.58203 0.12773 0.0
Cd408 Cd 0.75504 0.60396 0.12466 0.0
O409 O 0.74375 0.58225 0.10717 0.0
Cd410 Cd 0.73823 0.57382 0.08886 0.0
O411 O 0.73392 0.5654 0.07028 0.0
C412 C 0.72377 0.56836 0.06429 0.0
O413 O 0.71577 0.57652 0.06949 0.0
C414 C 0.74333 0.57642 0.11784 0.0
C415 C 0.78129 0.60745 0.12767 0.0
O416 O 0.77357 0.60928 0.13701 0.0
O417 O 0.77662 0.60373 0.11698 0.0
O418 O 0.68601 0.52277 0.3799 0.0
Cd419 Cd 0.66416 0.53041 0.37681 0.0
O420 O 0.68712 0.52244 0.35903 0.0
Cd421 Cd 0.69615 0.51942 0.34045 0.0
O422 O 0.70157 0.51632 0.32057 0.0
C423 C 0.70327 0.50502 0.31648 0.0
O424 O 0.70211 0.49541 0.32448 0.0
C425 C 0.69225 0.52019 0.36982 0.0
C426 C 0.6615 0.55689 0.3771 0.0
O427 O 0.65954 0.55026 0.38721 0.0
O428 O 0.66494 0.55101 0.36691 0.0
O429 O 0.70199 0.43206 0.5866 0.0
Cd430 Cd 0.69592 0.41172 0.57685 0.0
O431 O 0.69592 0.44379 0.57027 0.0
Cd432 Cd 0.69414 0.4271 0.55788 0.0
O433 O 0.70227 0.41525 0.54274 0.0
C434 C 0.71331 0.41056 0.54465 0.0
O435 O 0.71875 0.41228 0.55584 0.0
C436 C 0.70019 0.44299 0.58161 0.0
C437 C 0.67578 0.40073 0.59049 0.0
O438 O 0.68743 0.39855 0.59355 0.0
O439 O 0.67364 0.40799 0.58086 0.0
O440 O 0.64886 0.79501 0.51419 0.0
Cd441 Cd 0.66319 0.80354 0.5306 0.0
O442 O 0.6494 0.77523 0.52127 0.0
Cd443 Cd 0.66369 0.78007 0.53564 0.0
O444 O 0.68339 0.78441 0.5409 0.0
C445 C 0.69183 0.77696 0.53635 0.0
O446 O 0.6881 0.76701 0.52965 0.0
C447 C 0.64531 0.78341 0.51328 0.0
C448 C 0.65059 0.81437 0.55145 0.0
O449 O 0.6531 0.82098 0.54145 0.0
O450 O 0.65389 0.80257 0.55153 0.0
O451 O 0.13853 0.65815 0.43985 0.0
Cd452 Cd 0.14109 0.63688 0.43053 0.0
O453 O 0.15404 0.65342 0.4531 0.0
Cd454 Cd 0.16817 0.65736 0.46801 0.0
O455 O 0.18361 0.6607 0.48164 0.0
C456 C 0.18225 0.6682 0.4911 0.0
O457 O 0.17124 0.67403 0.49275 0.0
C458 C 0.14568 0.66132 0.44915 0.0
C459 C 0.12553 0.63259 0.40929 0.0
O460 O 0.12151 0.63027 0.42063 0.0
O461 O 0.13687 0.63707 0.40801 0.0
O462 O 0.57792 0.89089 0.69352 0.0
Cd463 Cd 0.59924 0.89468 0.68475 0.0
O464 O 0.58123 0.90699 0.70647 0.0
Cd465 Cd 0.57584 0.92111 0.72094 0.0
O466 O 0.57007 0.93596 0.73441 0.0
C467 C 0.57844 0.94219 0.74063 0.0
O468 O 0.59058 0.93944 0.73897 0.0
C469 C 0.57402 0.89801 0.70255 0.0
C470 C 0.60461 0.88013 0.66305 0.0
O471 O 0.60672 0.87573 0.67429 0.0
O472 O 0.59982 0.89137 0.66208 0.0
O473 O 0.3749 0.34122 0.99065 0.0
Cd474 Cd 0.37027 0.35875 0.97591 0.0
O475 O 0.35437 0.3373 0.98973 0.0
Cd476 Cd 0.33677 0.32825 0.99646 0.0
O477 O 0.31934 0.31949 0.00385 0.0
C478 C 0.31466 0.32325 0.01441 0.0
O479 O 0.3205 0.33238 0.02076 0.0
C480 C 0.36534 0.33465 0.99424 0.0
C481 C 0.38129 0.35689 0.95171 0.0
O482 O 0.38695 0.36289 0.96077 0.0
O483 O 0.37057 0.35148 0.9542 0.0
O484 O 0.43906 0.62355 0.72837 0.0
Cd485 Cd 0.42184 0.61495 0.71505 0.0
O486 O 0.44752 0.60459 0.72605 0.0
Cd487 Cd 0.4602 0.58872 0.73094 0.0
O488 O 0.46796 0.57007 0.7361 0.0
C489 C 0.46699 0.56625 0.74758 0.0
O490 O 0.46185 0.57389 0.75612 0.0
C491 C 0.44793 0.61568 0.73099 0.0
C492 C 0.41103 0.63142 0.69712 0.0
O493 O 0.407 0.63116 0.70869 0.0
O494 O 0.42044 0.62416 0.69413 0.0
O495 O 0.83497 0.16985 0.05534 0.0
Cd496 Cd 0.82637 0.15134 0.06671 0.0
O497 O 0.82091 0.16615 0.0403 0.0
Cd498 Cd 0.81019 0.17029 0.02281 0.0
O499 O 0.79915 0.17474 0.00567 0.0
C500 C 0.79484 0.16583 0.99864 0.0
O501 O 0.79724 0.1539 0.00177 0.0
C502 C 0.8301 0.17284 0.04463 0.0
C503 C 0.84173 0.14334 0.08699 0.0
O504 O 0.84341 0.13893 0.07568 0.0
O505 O 0.83286 0.15162 0.08867 0.0
O506 O 0.53969 0.10641 0.7777 0.0
Cd507 Cd 0.55422 0.09277 0.78995 0.0
O508 O 0.52225 0.10044 0.78781 0.0
Cd509 Cd 0.53273 0.08588 0.79843 0.0
O510 O 0.54124 0.06688 0.79941 0.0
C511 C 0.53387 0.05755 0.79696 0.0
O512 O 0.5217 0.05985 0.79489 0.0
C513 C 0.52767 0.10727 0.77934 0.0
C514 C 0.56919 0.10637 0.80732 0.0
O515 O 0.57265 0.10509 0.79564 0.0
O516 O 0.55859 0.10128 0.81078 0.0
O517 O 0.95284 0.88861 0.28888 0.0
Cd518 Cd 0.93436 0.89943 0.29832 0.0
O519 O 0.96704 0.90009 0.29929 0.0
Cd520 Cd 0.9524 0.9137 0.30516 0.0
O521 O 0.94064 0.93021 0.30028 0.0
C522 C 0.93736 0.93098 0.28861 0.0
O523 O 0.94063 0.92169 0.28081 0.0
C524 C 0.96444 0.89095 0.29173 0.0
C525 C 0.92829 0.88998 0.32254 0.0
O526 O 0.92319 0.88523 0.31247 0.0
O527 O 0.93627 0.89916 0.32115 0.0
C528 C 0.97739 0.09532 0.22323 0.0
C529 C 0.96476 0.09977 0.22443 0.0
C530 C 0.98749 0.10194 0.22893 0.0
C531 C 0.99653 0.13286 0.24369 0.0
H532 H 0.01977 0.1121 0.26376 0.0
C533 C 0.03619 0.15566 0.27427 0.0
C534 C 0.0369 0.15117 0.28692 0.0
C535 C 0.02912 0.14902 0.26509 0.0
C536 C 0.01338 0.11802 0.25818 0.0
H537 H 0.95294 0.11502 0.23204 0.0
H538 H 0.97054 0.12651 0.24201 0.0
H539 H 0.00384 0.10179 0.25022 0.0
H540 H 0.03125 0.13582 0.29967 0.0
H541 H 0.01888 0.12429 0.28368 0.0
H542 H 0.00571 0.1491 0.25204 0.0
C543 C 0.97265 0.11794 0.23661 0.0
C544 C 0.00434 0.11212 0.25032 0.0
C545 C 0.96254 0.11131 0.23094 0.0
C546 C 0.03089 0.13957 0.29002 0.0
C547 C 0.02385 0.13291 0.28083 0.0
C548 C 0.00559 0.13877 0.25152 0.0
C549 C 0.9852 0.11318 0.23591 0.0
C550 C 0.99566 0.11948 0.24317 0.0
C551 C 0.02265 0.13771 0.26834 0.0
C552 C 0.01396 0.13141 0.25904 0.0
H553 H 0.97944 0.0865 0.21823 0.0
H554 H 0.99708 0.09813 0.22807 0.0
H555 H 0.99006 0.13879 0.23819 0.0
H556 H 0.04076 0.16454 0.27152 0.0
H557 H 0.02854 0.15286 0.25549 0.0
C558 C 0.14613 0.6756 0.46835 0.0
C559 C 0.14418 0.674 0.45517 0.0
C560 C 0.14399 0.68745 0.47413 0.0
C561 C 0.12547 0.71698 0.4696 0.0
H562 H 0.14615 0.72937 0.49775 0.0
C563 C 0.11219 0.76328 0.49582 0.0
C564 C 0.11186 0.76225 0.50922 0.0
C565 C 0.11831 0.75396 0.48845 0.0
C566 C 0.14028 0.72602 0.48991 0.0
H567 H 0.13853 0.68352 0.43768 0.0
H568 H 0.1349 0.70427 0.44773 0.0
H569 H 0.15266 0.71015 0.48621 0.0
H570 H 0.11843 0.75105 0.5254 0.0
H571 H 0.12897 0.73478 0.51256 0.0
H572 H 0.11292 0.73262 0.47346 0.0
C573 C 0.13801 0.69636 0.45363 0.0
C574 C 0.14399 0.715 0.48331 0.0
C575 C 0.14012 0.68449 0.44787 0.0
C576 C 0.11846 0.75212 0.5151 0.0
C577 C 0.12457 0.74281 0.50773 0.0
C578 C 0.12177 0.72799 0.47617 0.0
C579 C 0.13978 0.69794 0.46686 0.0
C580 C 0.13652 0.71024 0.4732 0.0
C581 C 0.12424 0.74342 0.49431 0.0
C582 C 0.12902 0.73253 0.48653 0.0
H583 H 0.14876 0.66758 0.47432 0.0
H584 H 0.14517 0.68824 0.48439 0.0
H585 H 0.11937 0.71348 0.462 0.0
H586 H 0.10729 0.771 0.49098 0.0
H587 H 0.11808 0.75481 0.47814 0.0
C588 C 0.55132 0.89075 0.70091 0.0
C589 C 0.56132 0.89578 0.70832 0.0
C590 C 0.53946 0.88805 0.70645 0.0
C591 C 0.51948 0.89431 0.7351 0.0
H592 H 0.50439 0.86152 0.72679 0.0
C593 C 0.48255 0.86885 0.7672 0.0
C594 C 0.4733 0.86097 0.76146 0.0
C595 C 0.4918 0.87499 0.75976 0.0
C596 C 0.5083 0.87083 0.72905 0.0
H597 H 0.56691 0.90134 0.72747 0.0
H598 H 0.5462 0.89685 0.7371 0.0
H599 H 0.52346 0.86855 0.71553 0.0
H600 H 0.46594 0.85415 0.74331 0.0
H601 H 0.48192 0.86505 0.73034 0.0
H602 H 0.50444 0.89644 0.74882 0.0
C603 C 0.54738 0.89535 0.72693 0.0
C604 C 0.51927 0.87485 0.7226 0.0
C605 C 0.55924 0.89802 0.72139 0.0
C606 C 0.47301 0.86004 0.74806 0.0
C607 C 0.48222 0.86622 0.74062 0.0
C608 C 0.50848 0.89029 0.74154 0.0
C609 C 0.53738 0.89024 0.71955 0.0
C610 C 0.52511 0.88654 0.72568 0.0
C611 C 0.49197 0.87345 0.74641 0.0
C612 C 0.50286 0.87841 0.73873 0.0
H613 H 0.55268 0.88888 0.69081 0.0
H614 H 0.53193 0.88421 0.70048 0.0
H615 H 0.52366 0.90345 0.73756 0.0
H616 H 0.48306 0.86979 0.7775 0.0
H617 H 0.4992 0.8804 0.76456 0.0
C618 C 0.37532 0.32658 0.01436 0.0
C619 C 0.36679 0.32473 0.00417 0.0
C620 C 0.37594 0.31772 0.02434 0.0
C621 C 0.36818 0.28449 0.03322 0.0
H622 H 0.36709 0.29797 0.06774 0.0
C623 C 0.37405 0.2529 0.07833 0.0
C624 C 0.36567 0.25539 0.08852 0.0
C625 C 0.3745 0.26108 0.06777 0.0
C626 C 0.36735 0.29407 0.05816 0.0
H627 H 0.35299 0.31173 0.99588 0.0
H628 H 0.35393 0.29632 0.01339 0.0
H629 H 0.36772 0.31265 0.04963 0.0
H630 H 0.35089 0.26809 0.0955 0.0
H631 H 0.35164 0.28239 0.07703 0.0
H632 H 0.36765 0.2659 0.04177 0.0
C633 C 0.36003 0.30467 0.01375 0.0
C634 C 0.36785 0.30247 0.04779 0.0
C635 C 0.35936 0.31357 0.00382 0.0
C636 C 0.3575 0.266 0.08781 0.0
C637 C 0.358 0.27423 0.0773 0.0
C638 C 0.36778 0.27608 0.0436 0.0
C639 C 0.36817 0.30676 0.02423 0.0
C640 C 0.36819 0.29778 0.03521 0.0
C641 C 0.36657 0.2719 0.06721 0.0
C642 C 0.36726 0.28079 0.05617 0.0
H643 H 0.38123 0.33508 0.01481 0.0
H644 H 0.38244 0.31949 0.03221 0.0
H645 H 0.36852 0.2806 0.02363 0.0
H646 H 0.38016 0.24456 0.07844 0.0
H647 H 0.3812 0.25903 0.06015 0.0
C648 C 0.97231 0.87617 0.27467 0.0
C649 C 0.97489 0.88379 0.28542 0.0
C650 C 0.98226 0.87051 0.26782 0.0
C651 C 0.0171 0.87375 0.262 0.0
H652 H 0.01219 0.84162 0.24421 0.0
C653 C 0.0564 0.84727 0.23246 0.0
C654 C 0.05249 0.84345 0.22017 0.0
C655 C 0.04751 0.85221 0.24117 0.0
C656 C 0.01367 0.85062 0.24912 0.0
H657 H 0.98992 0.89096 0.29774 0.0
H658 H 0.00728 0.88072 0.28605 0.0
H659 H 0.99569 0.84936 0.2587 0.0
H660 H 0.03623 0.84204 0.20735 0.0
H661 H 0.02079 0.85045 0.2226 0.0
H662 H 0.03524 0.87479 0.25245 0.0
C663 C 0.99759 0.87942 0.28267 0.0
C664 C 0.0042 0.8551 0.25738 0.0
C665 C 0.98762 0.88521 0.28945 0.0
C666 C 0.03958 0.8449 0.21672 0.0
C667 C 0.03071 0.84963 0.22547 0.0
C668 C 0.02667 0.86915 0.25386 0.0
C669 C 0.99506 0.87218 0.27162 0.0
C670 C 0.00567 0.86685 0.26375 0.0
C671 C 0.03455 0.8532 0.23781 0.0
C672 C 0.02492 0.85767 0.24716 0.0
H673 H 0.96262 0.87494 0.27124 0.0
H674 H 0.97991 0.8652 0.25926 0.0
H675 H 0.01852 0.88292 0.26658 0.0
H676 H 0.06627 0.84629 0.2354 0.0
H677 H 0.05069 0.8549 0.25065 0.0
C678 C 0.33915 0.75712 0.56361 0.0
C679 C 0.34209 0.744 0.56375 0.0
C680 C 0.34693 0.76574 0.55699 0.0
C681 C 0.36879 0.76676 0.52981 0.0
H682 H 0.37873 0.79997 0.54293 0.0
C683 C 0.40578 0.80914 0.51502 0.0
C684 C 0.40269 0.81045 0.502 0.0
C685 C 0.39799 0.80195 0.52315 0.0
C686 C 0.37604 0.79071 0.53917 0.0
H687 H 0.35578 0.72975 0.55743 0.0
H688 H 0.36928 0.74479 0.54587 0.0
H689 H 0.36645 0.78533 0.55648 0.0
H690 H 0.3887 0.80564 0.48745 0.0
H691 H 0.37517 0.79307 0.50164 0.0
H692 H 0.37834 0.77205 0.51253 0.0
C693 C 0.3609 0.74837 0.5508 0.0
C694 C 0.36896 0.78238 0.54688 0.0
C695 C 0.3532 0.73977 0.55748 0.0
C696 C 0.3914 0.80479 0.49741 0.0
C697 C 0.38368 0.79752 0.50551 0.0
C698 C 0.37573 0.77511 0.52207 0.0
C699 C 0.35774 0.76141 0.5503 0.0
C700 C 0.36532 0.7703 0.54228 0.0
C701 C 0.38702 0.79584 0.51841 0.0
C702 C 0.37943 0.78716 0.52666 0.0
H703 H 0.33068 0.7607 0.56837 0.0
H704 H 0.34423 0.77573 0.55672 0.0
H705 H 0.36599 0.75756 0.52595 0.0
H706 H 0.41439 0.81341 0.51887 0.0
H707 H 0.40082 0.80076 0.53304 0.0
C708 C 0.5258 0.12221 0.76072 0.0
C709 C 0.51989 0.11519 0.77054 0.0
C710 C 0.51847 0.12819 0.7513 0.0
C711 C 0.48565 0.13847 0.74267 0.0
H712 H 0.49743 0.13225 0.70808 0.0
C713 C 0.45348 0.14569 0.69823 0.0
C714 C 0.45916 0.15086 0.68722 0.0
C715 C 0.46094 0.14249 0.70885 0.0
C716 C 0.49408 0.13427 0.71766 0.0
H717 H 0.5016 0.10958 0.77855 0.0
H718 H 0.48883 0.11995 0.76206 0.0
H719 H 0.51038 0.12526 0.72604 0.0
H720 H 0.47719 0.15608 0.67846 0.0
H721 H 0.49014 0.15101 0.69709 0.0
H722 H 0.46925 0.14736 0.73422 0.0
C723 C 0.49913 0.12088 0.76168 0.0
C724 C 0.50153 0.13026 0.72798 0.0
C725 C 0.50646 0.11489 0.77111 0.0
C726 C 0.47246 0.15262 0.68698 0.0
C727 C 0.47992 0.14945 0.69758 0.0
C728 C 0.47819 0.14251 0.73232 0.0
C729 C 0.50507 0.1273 0.75147 0.0
C730 C 0.49738 0.13225 0.7406 0.0
C731 C 0.47426 0.1443 0.70864 0.0
C732 C 0.4823 0.14039 0.71969 0.0
H733 H 0.53612 0.12273 0.76004 0.0
H734 H 0.52333 0.13327 0.7437 0.0
H735 H 0.48225 0.14025 0.75228 0.0
H736 H 0.44325 0.14411 0.69863 0.0
H737 H 0.4563 0.13833 0.71712 0.0
C738 C 0.12233 0.24734 0.91615 0.0
C739 C 0.11464 0.23651 0.91426 0.0
C740 C 0.12269 0.25337 0.92807 0.0
C741 C 0.11988 0.24659 0.96177 0.0
H742 H 0.11685 0.28328 0.96587 0.0
C743 C 0.12888 0.26972 0.01074 0.0
C744 C 0.13613 0.28102 0.01064 0.0
C745 C 0.12351 0.265 -0.00056 0.0
C746 C 0.11784 0.27303 0.9649 0.0
H747 H 0.10159 0.22326 0.92336 0.0
H748 H 0.10234 0.23372 0.94428 0.0
H749 H 0.11316 0.27363 0.94494 0.0
H750 H 0.14293 0.29654 0.9987 0.0
H751 H 0.13407 0.28814 0.97903 0.0
H752 H 0.12529 0.24591 0.98141 0.0
C753 C 0.10788 0.23768 0.93647 0.0
C754 C 0.11565 0.26752 0.95292 0.0
C755 C 0.10736 0.23178 0.92449 0.0
C756 C 0.13736 0.28782 0.99913 0.0
C757 C 0.13219 0.28301 0.98781 0.0
C758 C 0.12228 0.2521 0.97369 0.0
C759 C 0.11558 0.2485 0.93837 0.0
C760 C 0.11682 0.25427 0.95122 0.0
C761 C 0.12546 0.27136 0.98773 0.0
C762 C 0.12149 0.26542 0.97539 0.0
H763 H 0.12807 0.25113 0.90841 0.0
H764 H 0.12882 0.26162 0.92934 0.0
H765 H 0.12096 0.23635 0.96068 0.0
H766 H 0.12765 0.26432 0.01949 0.0
H767 H 0.11812 0.25618 -0.00016 0.0
C768 C 0.29478 0.0299 0.13774 0.0
C769 C 0.30682 0.02491 0.13455 0.0
C770 C 0.28382 0.02231 0.13675 0.0
C771 C 0.27295 0.98895 0.1358 0.0
H772 H 0.24413 0.00214 0.11661 0.0
C773 C 0.23449 0.95624 0.1142 0.0
C774 C 0.222 0.96087 0.11248 0.0
C775 C 0.24403 0.96411 0.11918 0.0
C776 C 0.25194 0.99836 0.12225 0.0
H777 H 0.31691 0.00816 0.12776 0.0
H778 H 0.29778 0.99483 0.12612 0.0
H779 H 0.26239 0.01591 0.12089 0.0
H780 H 0.20956 0.97718 0.11543 0.0
H781 H 0.22614 0.99083 0.12449 0.0
H782 H 0.26257 0.9714 0.13719 0.0
C783 C 0.29682 0.00458 0.12948 0.0
C784 C 0.26244 0.00627 0.12464 0.0
C785 C 0.30773 0.01222 0.13031 0.0
C786 C 0.21911 0.97334 0.11654 0.0
C787 C 0.22865 0.9812 0.12164 0.0
C788 C 0.26239 0.98108 0.13355 0.0
C789 C 0.28475 0.00955 0.13265 0.0
C790 C 0.27315 0.00155 0.1312 0.0
C791 C 0.24132 0.9768 0.12269 0.0
C792 C 0.25186 0.98559 0.12649 0.0
H793 H 0.29378 0.03975 0.14074 0.0
H794 H 0.27463 0.02638 0.13922 0.0
H795 H 0.28102 0.98514 0.14105 0.0
H796 H 0.23707 0.94669 0.11116 0.0
H797 H 0.25368 0.9604 0.11968 0.0
C798 C 0.29302 0.9954 0.35189 0.0
C799 C 0.29775 0.98731 0.36151 0.0
C800 C 0.28621 0.00644 0.35503 0.0
C801 C 0.28329 0.03089 0.37912 0.0
H802 H 0.24991 0.03756 0.36449 0.0
C803 C 0.25459 0.07596 0.39279 0.0
C804 C 0.24684 0.08166 0.38343 0.0
C805 C 0.2603 0.06409 0.39061 0.0
C806 C 0.25931 0.03598 0.36852 0.0
H807 H 0.29952 0.9848 0.38201 0.0
H808 H 0.28794 0.0044 0.38749 0.0
H809 H 0.26085 0.01756 0.35966 0.0
H810 H 0.23955 0.07963 0.36415 0.0
H811 H 0.25002 0.0593 0.36005 0.0
H812 H 0.28217 0.04946 0.38749 0.0
C813 C 0.28925 0.00194 0.37752 0.0
C814 C 0.26551 0.02447 0.36581 0.0
C815 C 0.29586 0.99075 0.37437 0.0
C816 C 0.24531 0.07541 0.37165 0.0
C817 C 0.25121 0.06365 0.36936 0.0
C818 C 0.27722 0.04252 0.38163 0.0
C819 C 0.28431 0.00984 0.36786 0.0
C820 C 0.27755 0.02183 0.37108 0.0
C821 C 0.25874 0.05777 0.37884 0.0
C822 C 0.26513 0.04525 0.37635 0.0
H823 H 0.29498 0.99353 0.34195 0.0
H824 H 0.28276 0.01256 0.34741 0.0
H825 H 0.29266 0.02913 0.38317 0.0
H826 H 0.25659 0.08078 0.40169 0.0
H827 H 0.26596 0.05991 0.39819 0.0
C828 C 0.24967 0.02325 0.61933 0.0
C829 C 0.26213 0.01858 0.6174 0.0
C830 C 0.24034 0.01555 0.62496 0.0
C831 C 0.23448 0.98702 0.64446 0.0
H832 H 0.20403 0.98349 0.62364 0.0
C833 C 0.19746 0.94692 0.65311 0.0
C834 C 0.18455 0.94952 0.65058 0.0
C835 C 0.2069 0.95588 0.65008 0.0
C836 C 0.21232 0.98451 0.62975 0.0
H837 H 0.27476 0.00246 0.62066 0.0
H838 H 0.25844 0.98909 0.63072 0.0
H839 H 0.22056 0.99854 0.61736 0.0
H840 H 0.17131 0.96351 0.64305 0.0
H841 H 0.18766 0.97935 0.63815 0.0
H842 H 0.22619 0.97313 0.65698 0.0
C843 C 0.25592 0.99868 0.62775 0.0
C844 C 0.22182 0.99312 0.6261 0.0
C845 C 0.26524 0.00633 0.62196 0.0
C846 C 0.18122 0.96125 0.64503 0.0
C847 C 0.19062 0.97029 0.64217 0.0
C848 C 0.22487 0.97852 0.64824 0.0
C849 C 0.2433 0.00309 0.62895 0.0
C850 C 0.23303 0.9944 0.63336 0.0
C851 C 0.20362 0.96769 0.64454 0.0
C852 C 0.21369 0.97707 0.64087 0.0
H853 H 0.24694 0.03265 0.61597 0.0
H854 H 0.2307 0.01923 0.62591 0.0
H855 H 0.24302 0.98789 0.65026 0.0
H856 H 0.2003 0.93781 0.65712 0.0
H857 H 0.21679 0.95338 0.6518 0.0
C858 C 0.19827 0.00413 0.8823 0.0
C859 C 0.19517 0.00764 0.86969 0.0
C860 C 0.20728 0.99453 0.88466 0.0
C861 C 0.23499 0.9783 0.87196 0.0
H862 H 0.22316 0.94818 0.88997 0.0
C863 C 0.26533 0.93224 0.8739 0.0
C864 C 0.26447 0.92438 0.88476 0.0
C865 C 0.25723 0.94278 0.87246 0.0
C866 C 0.22678 0.95659 0.88517 0.0
H867 H 0.19855 0.00312 0.84976 0.0
H868 H 0.21491 0.9871 0.85389 0.0
H869 H 0.20886 0.96633 0.88726 0.0
H870 H 0.25368 0.92098 0.90211 0.0
H871 H 0.2405 0.93986 0.9003 0.0
H872 H 0.25302 0.9689 0.87017 0.0
C873 C 0.21049 0.99195 0.86189 0.0
C874 C 0.21852 0.96695 0.88357 0.0
C875 C 0.20128 0.00133 0.85953 0.0
C876 C 0.25519 0.9272 0.89403 0.0
C877 C 0.24729 0.93788 0.89275 0.0
C878 C 0.24337 0.96806 0.87381 0.0
C879 C 0.21347 0.9884 0.87446 0.0
C880 C 0.22252 0.97782 0.87684 0.0
C881 C 0.24813 0.94581 0.88191 0.0
C882 C 0.23935 0.95697 0.88033 0.0
H883 H 0.19361 0.00869 0.89034 0.0
H884 H 0.2094 0.99187 0.89444 0.0
H885 H 0.23827 0.98664 0.86678 0.0
H886 H 0.27224 0.93022 0.86646 0.0
H887 H 0.258 0.94839 0.86381 0.0
C888 C 0.63837 0.23307 0.92417 0.0
C889 C 0.6419 0.22101 0.92892 0.0
C890 C 0.63082 0.24132 0.93152 0.0
C891 C 0.6094 0.2418 0.95993 0.0
H892 H 0.61762 0.27793 0.96068 0.0
C893 C 0.59145 0.27497 -0.00031 0.0
C894 C 0.58571 0.28649 0.99585 0.0
C895 C 0.59809 0.26745 0.9909 0.0
C896 C 0.61516 0.26788 0.96047 0.0
H897 H 0.64021 0.20816 0.94512 0.0
H898 H 0.6274 0.22256 0.95797 0.0
H899 H 0.62928 0.26373 0.94626 0.0
H900 H 0.58284 0.29938 0.97986 0.0
H901 H 0.59469 0.28626 0.96452 0.0
H902 H 0.59556 0.24591 0.97442 0.0
C903 C 0.63017 0.22559 0.94847 0.0
C904 C 0.62179 0.25975 0.95217 0.0
C905 C 0.63761 0.21733 0.9411 0.0
C906 C 0.58713 0.29053 0.98311 0.0
C907 C 0.59393 0.28306 0.97434 0.0
C908 C 0.6029 0.24989 0.9683 0.0
C909 C 0.6267 0.23771 0.9438 0.0
C910 C 0.6191 0.24657 0.95193 0.0
C911 C 0.59927 0.27135 0.97812 0.0
C912 C 0.60582 0.26298 0.96876 0.0
H913 H 0.64149 0.23618 0.9148 0.0
H914 H 0.6282 0.25051 0.92756 0.0
H915 H 0.60685 0.23177 0.95979 0.0
H916 H 0.59056 0.27156 0.00943 0.0
H917 H 0.60227 0.25854 0.99411 0.0
C918 C 0.00994 0.37982 0.30167 0.0
C919 C 0.99757 0.37623 0.29791 0.0
C920 C 0.019 0.38348 0.29258 0.0
C921 C 0.0256 0.37934 0.25793 0.0
H922 H 0.05536 0.39982 0.26622 0.0
C923 C 0.06767 0.3895 0.22288 0.0
C924 C 0.07942 0.38507 0.22763 0.0
C925 C 0.05699 0.39023 0.2309 0.0
C926 C 0.04705 0.39413 0.26379 0.0
H927 H 0.98465 0.37473 0.2818 0.0
H928 H 0.00023 0.38179 0.26598 0.0
H929 H 0.03737 0.39909 0.28107 0.0
H930 H 0.08934 0.37804 0.24437 0.0
H931 H 0.07071 0.37966 0.25851 0.0
H932 H 0.03534 0.37461 0.24052 0.0
C933 C 0.00316 0.38123 0.27589 0.0
C934 C 0.03677 0.39362 0.27231 0.0
C935 C 0.99416 0.37731 0.28497 0.0
C936 C 0.08036 0.38146 0.24051 0.0
C937 C 0.06977 0.38248 0.24859 0.0
C938 C 0.03577 0.38009 0.2493 0.0
C939 C 0.01586 0.38389 0.2795 0.0
C940 C 0.02603 0.38593 0.26967 0.0
C941 C 0.05799 0.38681 0.24383 0.0
C942 C 0.0467 0.38723 0.2523 0.0
H943 H 0.0129 0.37901 0.31156 0.0
H944 H 0.02867 0.38527 0.29581 0.0
H945 H 0.01768 0.37312 0.25558 0.0
H946 H 0.06669 0.3922 0.21294 0.0
H947 H 0.04797 0.39355 0.22704 0.0
C948 C 0.86571 0.8033 0.49805 0.0
C949 C 0.87326 0.81439 0.49813 0.0
C950 C 0.86734 0.79393 0.50743 0.0
C951 C 0.87803 0.79027 0.54041 0.0
H952 H 0.87793 0.75396 0.53294 0.0
C953 C 0.87061 0.75198 0.57934 0.0
C954 C 0.87928 0.74175 0.57935 0.0
C955 C 0.87029 0.76057 0.56911 0.0
C956 C 0.87803 0.76407 0.53515 0.0
H957 H 0.88881 0.82416 0.50768 0.0
H958 H 0.89162 0.80781 0.52418 0.0
H959 H 0.87721 0.76942 0.51537 0.0
H960 H 0.89384 0.73197 0.56834 0.0
H961 H 0.89331 0.74701 0.55044 0.0
H962 H 0.87871 0.78495 0.56016 0.0
C963 C 0.88436 0.80642 0.51692 0.0
C964 C 0.87754 0.7729 0.52512 0.0
C965 C 0.88282 0.81572 0.50745 0.0
C966 C 0.88731 0.73998 0.56874 0.0
C967 C 0.8869 0.74849 0.55843 0.0
C968 C 0.87837 0.78145 0.55042 0.0
C969 C 0.87652 0.79551 0.51711 0.0
C970 C 0.87751 0.78609 0.52766 0.0
C971 C 0.87849 0.75896 0.55859 0.0
C972 C 0.87833 0.76827 0.5479 0.0
H973 H 0.8585 0.80188 0.49076 0.0
H974 H 0.86116 0.78562 0.50733 0.0
H975 H 0.8779 0.80037 0.54265 0.0
H976 H 0.86427 0.75352 0.58738 0.0
H977 H 0.86359 0.76845 0.56941 0.0
C978 C 0.96052 0.64605 0.1758 0.0
C979 C 0.96751 0.65009 0.16508 0.0
C980 C 0.96679 0.64251 0.18705 0.0
C981 C 0.99787 0.63092 0.1988 0.0
H982 H 0.98395 0.63969 0.23202 0.0
C983 C 0.02305 0.61525 0.24497 0.0
C984 C 0.01512 0.60945 0.25414 0.0
C985 C 0.01777 0.62215 0.23483 0.0
C986 C 0.98792 0.63713 0.22281 0.0
H987 H 0.98657 0.65293 0.1575 0.0
H988 H 0.99754 0.64716 0.17724 0.0
H989 H 0.9737 0.64781 0.21268 0.0
H990 H 0.99545 0.60701 0.26025 0.0
H991 H 0.98626 0.61896 0.24252 0.0
H992 H 0.01194 0.62007 0.20887 0.0
C993 C 0.98719 0.6468 0.177 0.0
C994 C 0.98205 0.64176 0.21174 0.0
C995 C 0.98091 0.65033 0.16575 0.0
C996 C 0.00184 0.61133 0.25334 0.0
C997 C 0.99656 0.61824 0.2432 0.0
C998 C 0.00375 0.62631 0.20986 0.0
C999 C 0.98021 0.64283 0.18778 0.0
C1000 C 0.98687 0.63858 0.19959 0.0
C1001 C 0.00445 0.62342 0.23363 0.0
C1002 C 0.99876 0.62924 0.22199 0.0
H1003 H 0.95017 0.64567 0.17552 0.0
H1004 H 0.96112 0.63927 0.19509 0.0
H1005 H 0.00172 0.62812 0.18961 0.0
H1006 H 0.03333 0.61408 0.24534 0.0
H1007 H 0.02412 0.62623 0.22774 0.0
C1008 C 0.53687 0.36545 0.72302 0.0
C1009 C 0.53382 0.36079 0.7108 0.0
C1010 C 0.52746 0.37105 0.73071 0.0
C1011 C 0.49363 0.3829 0.73035 0.0
H1012 H 0.49419 0.3723 0.76587 0.0
C1013 C 0.44872 0.37983 0.76211 0.0
C1014 C 0.44949 0.38508 0.77443 0.0
C1015 C 0.45961 0.37898 0.75443 0.0
C1016 C 0.49399 0.37548 0.75601 0.0
H1017 H 0.5186 0.35891 0.69684 0.0
H1018 H 0.5022 0.36822 0.71027 0.0
H1019 H 0.51235 0.36745 0.75213 0.0
H1020 H 0.46228 0.39315 0.78858 0.0
H1021 H 0.48142 0.3915 0.77517 0.0
H1022 H 0.4749 0.3903 0.73418 0.0
C1023 C 0.51188 0.36786 0.71391 0.0
C1024 C 0.50443 0.37277 0.74813 0.0
C1025 C 0.52131 0.36242 0.7062 0.0
C1026 C 0.46138 0.38931 0.77901 0.0
C1027 C 0.47233 0.38827 0.7714 0.0
C1028 C 0.48312 0.38544 0.7382 0.0
C1029 C 0.51474 0.37197 0.72639 0.0
C1030 C 0.5043 0.37623 0.73512 0.0
C1031 C 0.47153 0.38313 0.75902 0.0
C1032 C 0.48312 0.38156 0.75104 0.0
H1033 H 0.54645 0.36445 0.72682 0.0
H1034 H 0.53009 0.37437 0.74014 0.0
H1035 H 0.49327 0.38598 0.72048 0.0
H1036 H 0.43967 0.37649 0.75837 0.0
H1037 H 0.45876 0.37483 0.74499 0.0
C1038 C 0.52289 0.62316 0.81978 0.0
C1039 C 0.53073 0.63403 0.82039 0.0
C1040 C 0.51417 0.62165 0.80978 0.0
C1041 C 0.50739 0.63125 0.7768 0.0
H1042 H 0.47251 0.62176 0.78505 0.0
C1043 C 0.47032 0.61407 0.73933 0.0
C1044 C 0.45789 0.61903 0.74042 0.0
C1045 C 0.47948 0.61664 0.74872 0.0
C1046 C 0.48219 0.62448 0.78261 0.0
H1047 H 0.53617 0.65146 0.81063 0.0
H1048 H 0.52088 0.64886 0.79313 0.0
H1049 H 0.48808 0.62461 0.80221 0.0
H1050 H 0.4454 0.63091 0.75189 0.0
H1051 H 0.46139 0.63532 0.76837 0.0
H1052 H 0.5015 0.631 0.75717 0.0
C1053 C 0.52137 0.6416 0.80049 0.0
C1054 C 0.49113 0.626 0.79242 0.0
C1055 C 0.52999 0.64317 0.81059 0.0
C1056 C 0.4549 0.62693 0.75085 0.0
C1057 C 0.46401 0.62937 0.76031 0.0
C1058 C 0.49849 0.62957 0.76697 0.0
C1059 C 0.51327 0.63089 0.80007 0.0
C1060 C 0.50382 0.62939 0.78962 0.0
C1061 C 0.47635 0.62415 0.75941 0.0
C1062 C 0.4858 0.62618 0.76978 0.0
H1063 H 0.52332 0.61593 0.82718 0.0
H1064 H 0.50817 0.61322 0.8096 0.0
H1065 H 0.51713 0.6338 0.77437 0.0
H1066 H 0.47297 0.60824 0.73122 0.0
H1067 H 0.48892 0.61249 0.74777 0.0
C1068 C 0.83491 0.18426 0.02412 0.0
C1069 C 0.83498 0.18405 0.03754 0.0
C1070 C 0.83971 0.1948 0.01748 0.0
C1071 C 0.84891 0.22889 0.02142 0.0
H1072 H 0.86934 0.22236 0.99119 0.0
C1073 C 0.88329 0.26586 0.99874 0.0
C1074 C 0.88445 0.26602 0.98535 0.0
C1075 C 0.87559 0.25676 0.00479 0.0
C1076 C 0.86349 0.22438 -0.00051 0.0
H1077 H 0.84042 0.19455 0.05453 0.0
H1078 H 0.8491 0.21285 0.04295 0.0
H1079 H 0.85942 0.20459 0.00239 0.0
H1080 H 0.8778 0.2572 0.96779 0.0
H1081 H 0.86433 0.24141 0.97834 0.0
H1082 H 0.85332 0.2487 0.01864 0.0
C1083 C 0.84499 0.20504 0.03754 0.0
C1084 C 0.85779 0.21417 0.00592 0.0
C1085 C 0.84014 0.19451 0.04418 0.0
C1086 C 0.87721 0.25731 0.97812 0.0
C1087 C 0.86954 0.2482 0.98417 0.0
C1088 C 0.85468 0.23911 0.015 0.0
C1089 C 0.84486 0.20531 0.0241 0.0
C1090 C 0.85049 0.21628 0.01701 0.0
C1091 C 0.86891 0.24761 0.99757 0.0
C1092 C 0.86209 0.23695 0.00401 0.0
H1093 H 0.83151 0.17614 0.01872 0.0
H1094 H 0.83942 0.19468 0.00713 0.0
H1095 H 0.8432 0.23087 0.02981 0.0
H1096 H 0.88872 0.27244 0.00461 0.0
H1097 H 0.87536 0.25652 0.01513 0.0
C1098 C 0.63538 0.76618 0.49992 0.0
C1099 C 0.63764 0.77924 0.50212 0.0
C1100 C 0.62996 0.76207 0.48842 0.0
C1101 C 0.62753 0.77232 0.45497 0.0
H1102 H 0.60578 0.74249 0.45179 0.0
C1103 C 0.62351 0.74368 0.40822 0.0
C1104 C 0.6115 0.73885 0.4047 0.0
C1105 C 0.62522 0.74961 0.42006 0.0
C1106 C 0.61172 0.75094 0.4525 0.0
H1107 H 0.63513 0.79829 0.49432 0.0
H1108 H 0.62549 0.79112 0.47436 0.0
H1109 H 0.61042 0.75117 0.47293 0.0
H1110 H 0.59202 0.73588 0.41109 0.0
H1111 H 0.59487 0.7466 0.43159 0.0
H1112 H 0.62887 0.77207 0.43457 0.0
C1113 C 0.62818 0.78404 0.48141 0.0
C1114 C 0.61448 0.75583 0.46463 0.0
C1115 C 0.63363 0.78814 0.49289 0.0
C1116 C 0.60125 0.73996 0.41331 0.0
C1117 C 0.60296 0.74588 0.42516 0.0
C1118 C 0.62478 0.76742 0.44286 0.0
C1119 C 0.62663 0.77094 0.47889 0.0
C1120 C 0.62258 0.76646 0.46602 0.0
C1121 C 0.61498 0.75074 0.42869 0.0
C1122 C 0.61702 0.75655 0.44149 0.0
H1123 H 0.63834 0.75905 0.50682 0.0
H1124 H 0.62899 0.7519 0.48677 0.0
H1125 H 0.63392 0.78042 0.45568 0.0
H1126 H 0.63161 0.74284 0.40182 0.0
H1127 H 0.63466 0.75303 0.42256 0.0
C1128 C 0.73304 0.53596 0.64447 0.0
C1129 C 0.746 0.53922 0.64293 0.0
C1130 C 0.72733 0.52689 0.63649 0.0
C1131 C 0.71641 0.51028 0.61495 0.0
H1132 H 0.73683 0.47962 0.61082 0.0
C1133 C 0.7016 0.46689 0.58345 0.0
C1134 C 0.70384 0.4547 0.58868 0.0
C1135 C 0.70601 0.47787 0.58967 0.0
C1136 C 0.73099 0.4881 0.61193 0.0
H1137 H 0.76286 0.5361 0.63126 0.0
H1138 H 0.75287 0.52032 0.61734 0.0
H1139 H 0.74592 0.49812 0.62161 0.0
H1140 H 0.7121 0.44457 0.60479 0.0
H1141 H 0.71977 0.4637 0.61559 0.0
H1142 H 0.7014 0.50009 0.6054 0.0
C1143 C 0.7472 0.52465 0.62484 0.0
C1144 C 0.73626 0.49875 0.61797 0.0
C1145 C 0.75289 0.53375 0.63278 0.0
C1146 C 0.71025 0.45378 0.60045 0.0
C1147 C 0.71472 0.46474 0.60661 0.0
C1148 C 0.71117 0.49962 0.6088 0.0
C1149 C 0.73446 0.52086 0.62684 0.0
C1150 C 0.72901 0.50993 0.61964 0.0
C1151 C 0.71282 0.47688 0.6012 0.0
C1152 C 0.71837 0.48837 0.60736 0.0
H1153 H 0.72744 0.54001 0.65217 0.0
H1154 H 0.71752 0.52413 0.63831 0.0
H1155 H 0.71062 0.51879 0.61607 0.0
H1156 H 0.69667 0.46794 0.57441 0.0
H1157 H 0.70445 0.4871 0.58526 0.0
C1158 C 0.83412 0.47671 0.86201 0.0
C1159 C 0.83491 0.46689 0.85291 0.0
C1160 C 0.82279 0.48362 0.86351 0.0
C1161 C 0.78876 0.48057 0.86164 0.0
H1162 H 0.788 0.51759 0.86052 0.0
C1163 C 0.74264 0.50778 0.87425 0.0
C1164 C 0.74413 0.5189 0.88162 0.0
C1165 C 0.7532 0.50213 0.86829 0.0
C1166 C 0.78803 0.50726 0.86102 0.0
H1167 H 0.82447 0.45631 0.8385 0.0
H1168 H 0.80448 0.46822 0.84138 0.0
H1169 H 0.80771 0.50627 0.8553 0.0
H1170 H 0.75777 0.53306 0.88816 0.0
H1171 H 0.77616 0.52301 0.87832 0.0
H1172 H 0.76945 0.48141 0.86814 0.0
C1173 C 0.81273 0.47072 0.84712 0.0
C1174 C 0.79932 0.5008 0.85793 0.0
C1175 C 0.82415 0.46399 0.84543 0.0
C1176 C 0.75628 0.52453 0.88248 0.0
C1177 C 0.76686 0.51877 0.87674 0.0
C1178 C 0.77755 0.48702 0.86499 0.0
C1179 C 0.81198 0.48061 0.85615 0.0
C1180 C 0.7998 0.48742 0.85837 0.0
C1181 C 0.76553 0.50734 0.86977 0.0
C1182 C 0.77707 0.50047 0.86492 0.0
H1183 H 0.8423 0.47909 0.86791 0.0
H1184 H 0.82238 0.49113 0.87063 0.0
H1185 H 0.78895 0.47023 0.86214 0.0
H1186 H 0.73337 0.50328 0.87331 0.0
H1187 H 0.7517 0.49354 0.86274 0.0
C1188 C 0.7276 0.55975 0.11106 0.0
C1189 C 0.73794 0.5634 0.11879 0.0
C1190 C 0.72225 0.54758 0.11218 0.0
C1191 C 0.71901 0.52069 0.13473 0.0
H1192 H 0.70745 0.50246 0.1046 0.0
C1193 C 0.69718 0.47009 0.13778 0.0
C1194 C 0.68587 0.46819 0.1308 0.0
C1195 C 0.70457 0.48106 0.13587 0.0
C1196 C 0.71056 0.50746 0.11311 0.0
H1197 H 0.75064 0.55729 0.13395 0.0
H1198 H 0.74138 0.53592 0.13586 0.0
H1199 H 0.7185 0.52284 0.10221 0.0
H1200 H 0.67378 0.47594 0.11587 0.0
H1201 H 0.68668 0.49507 0.1125 0.0
H1202 H 0.71096 0.50536 0.14563 0.0
C1203 C 0.73738 0.54248 0.12893 0.0
C1204 C 0.71688 0.51915 0.11174 0.0
C1205 C 0.74272 0.55469 0.12781 0.0
C1206 C 0.68243 0.47717 0.12143 0.0
C1207 C 0.68984 0.48811 0.11948 0.0
C1208 C 0.71272 0.50898 0.13609 0.0
C1209 C 0.72707 0.53878 0.12113 0.0
C1210 C 0.72105 0.52598 0.12254 0.0
C1211 C 0.70089 0.49028 0.12682 0.0
C1212 C 0.70829 0.50231 0.1253 0.0
H1213 H 0.72333 0.56644 0.10443 0.0
H1214 H 0.71411 0.54518 0.10626 0.0
H1215 H 0.72193 0.52577 0.14326 0.0
H1216 H 0.7004 0.46307 0.14464 0.0
H1217 H 0.71319 0.4823 0.14146 0.0
C1218 C 0.7088 0.50488 0.36188 0.0
C1219 C 0.70501 0.51422 0.37073 0.0
C1220 C 0.72037 0.49838 0.36341 0.0
C1221 C 0.7432 0.48939 0.38867 0.0
H1222 H 0.76362 0.47746 0.36013 0.0
C1223 C 0.78727 0.45811 0.39715 0.0
C1224 C 0.78764 0.44681 0.38989 0.0
C1225 C 0.77908 0.46809 0.39377 0.0
C1226 C 0.75801 0.48072 0.36819 0.0
H1227 H 0.71038 0.52426 0.388 0.0
H1228 H 0.73073 0.51312 0.39058 0.0
H1229 H 0.74566 0.49189 0.35627 0.0
H1230 H 0.78032 0.43753 0.37285 0.0
H1231 H 0.76598 0.45493 0.36699 0.0
H1232 H 0.75535 0.47809 0.40056 0.0
C1233 C 0.72471 0.51067 0.38253 0.0
C1234 C 0.7477 0.48896 0.36598 0.0
C1235 C 0.7131 0.5171 0.38103 0.0
C1236 C 0.78025 0.44608 0.37868 0.0
C1237 C 0.77206 0.45608 0.37529 0.0
C1238 C 0.75351 0.48123 0.39087 0.0
C1239 C 0.72839 0.50107 0.37386 0.0
C1240 C 0.74005 0.49325 0.37619 0.0
C1241 C 0.77108 0.46702 0.38304 0.0
C1242 C 0.76093 0.47666 0.38065 0.0
H1243 H 0.70256 0.50211 0.35411 0.0
H1244 H 0.72273 0.49086 0.35671 0.0
H1245 H 0.7374 0.49227 0.39675 0.0
H1246 H 0.79291 0.45906 0.40578 0.0
H1247 H 0.77872 0.47649 0.3998 0.0
C1248 C 0.17995 0.12335 0.37443 0.0
C1249 C 0.19045 0.1276 0.36721 0.0
C1250 C 0.16747 0.12595 0.37044 0.0
C1251 C 0.14836 0.13605 0.34225 0.0
H1252 H 0.12358 0.14603 0.36794 0.0
C1253 C 0.09983 0.15931 0.32973 0.0
C1254 C 0.08905 0.15511 0.33656 0.0
C1255 C 0.11208 0.15532 0.33326 0.0
C1256 C 0.13035 0.14312 0.36067 0.0
H1257 H 0.19606 0.1378 0.35005 0.0
H1258 H 0.17432 0.14252 0.34322 0.0
H1259 H 0.14516 0.14014 0.37443 0.0
H1260 H 0.08267 0.14336 0.35241 0.0
H1261 H 0.10407 0.13642 0.35858 0.0
H1262 H 0.13356 0.13926 0.32847 0.0
C1263 C 0.1757 0.13699 0.35186 0.0
C1264 C 0.14272 0.13971 0.36438 0.0
C1265 C 0.18818 0.13434 0.35581 0.0
C1266 C 0.09078 0.14679 0.34696 0.0
C1267 C 0.10304 0.14286 0.35054 0.0
C1268 C 0.13601 0.13952 0.33853 0.0
C1269 C 0.16518 0.13291 0.35917 0.0
C1270 C 0.1519 0.13618 0.35522 0.0
C1271 C 0.11383 0.1471 0.34375 0.0
C1272 C 0.12688 0.14313 0.3477 0.0
H1273 H 0.18137 0.11807 0.38322 0.0
H1274 H 0.1596 0.12247 0.3762 0.0
H1275 H 0.15512 0.13317 0.33495 0.0
H1276 H 0.09883 0.16573 0.32167 0.0
H1277 H 0.12022 0.15886 0.32793 0.0
C1278 C 0.10359 0.82389 0.55975 0.0
C1279 C 0.10556 0.81114 0.56349 0.0
C1280 C 0.10862 0.83393 0.56698 0.0
C1281 C 0.12063 0.84121 0.5995 0.0
H1282 H 0.13301 0.87222 0.58343 0.0
C1283 C 0.14462 0.8816 0.62832 0.0
C1284 C 0.14023 0.89404 0.62579 0.0
C1285 C 0.14124 0.87146 0.62032 0.0
C1286 C 0.12952 0.86364 0.58804 0.0
H1287 H 0.11469 0.79893 0.57752 0.0
H1288 H 0.12373 0.81641 0.58995 0.0
H1289 H 0.12571 0.85448 0.57015 0.0
H1290 H 0.12913 0.90564 0.61267 0.0
H1291 H 0.12329 0.88792 0.59867 0.0
H1292 H 0.1245 0.85037 0.61737 0.0
C1293 C 0.11803 0.81868 0.58161 0.0
C1294 C 0.1253 0.85348 0.58045 0.0
C1295 C 0.11291 0.80865 0.57444 0.0
C1296 C 0.13265 0.89617 0.6149 0.0
C1297 C 0.12936 0.88603 0.60684 0.0
C1298 C 0.12493 0.85132 0.60707 0.0
C1299 C 0.11583 0.83146 0.57807 0.0
C1300 C 0.12073 0.84216 0.58608 0.0
C1301 C 0.13349 0.87355 0.60955 0.0
C1302 C 0.12936 0.86267 0.60143 0.0
H1303 H 0.09792 0.82613 0.55138 0.0
H1304 H 0.10658 0.84364 0.56405 0.0
H1305 H 0.11695 0.83275 0.60419 0.0
H1306 H 0.15049 0.87964 0.63662 0.0
H1307 H 0.14468 0.86196 0.62257 0.0
C1308 C 0.41987 0.86358 0.82254 0.0
C1309 C 0.41948 0.85643 0.81118 0.0
C1310 C 0.40862 0.86832 0.82797 0.0
C1311 C 0.37455 0.87531 0.82093 0.0
H1312 H 0.37057 0.87194 0.85762 0.0
C1313 C 0.32574 0.87972 0.84651 0.0
C1314 C 0.32542 0.88573 0.85853 0.0
C1315 C 0.33739 0.87744 0.84037 0.0
C1316 C 0.37159 0.87314 0.84739 0.0
H1317 H 0.40698 0.84883 0.79649 0.0
H1318 H 0.38735 0.85695 0.80604 0.0
H1319 H 0.39057 0.86557 0.84759 0.0
H1320 H 0.33708 0.8944 0.87332 0.0
H1321 H 0.35738 0.8905 0.86255 0.0
H1322 H 0.35545 0.8827 0.82074 0.0
C1323 C 0.39636 0.85905 0.81068 0.0
C1324 C 0.38307 0.86948 0.84163 0.0
C1325 C 0.40762 0.85432 0.80524 0.0
C1326 C 0.33698 0.8897 0.8641 0.0
C1327 C 0.34863 0.8874 0.85796 0.0
C1328 C 0.36305 0.87895 0.8267 0.0
C1329 C 0.39671 0.866 0.82218 0.0
C1330 C 0.38467 0.87044 0.82832 0.0
C1331 C 0.34899 0.88108 0.8461 0.0
C1332 C 0.3614 0.87783 0.83999 0.0
H1333 H 0.42886 0.86544 0.82732 0.0
H1334 H 0.40925 0.8738 0.83673 0.0
H1335 H 0.37553 0.87635 0.81068 0.0
H1336 H 0.31701 0.87653 0.84196 0.0
H1337 H 0.33732 0.87244 0.8313 0.0
C1338 C 0.36003 0.18495 0.11323 0.0
C1339 C 0.3511 0.19227 0.12007 0.0
C1340 C 0.35869 0.17169 0.11238 0.0
C1341 C 0.3356 0.14502 0.11837 0.0
H1342 H 0.36658 0.12471 0.11959 0.0
C1343 C 0.33743 0.09137 0.13194 0.0
C1344 C 0.34477 0.08341 0.12399 0.0
C1345 C 0.3375 0.10461 0.13019 0.0
C1346 C 0.35786 0.13027 0.11911 0.0
H1347 H 0.33371 0.19147 0.1313 0.0
H1348 H 0.33164 0.16834 0.1303 0.0
H1349 H 0.36809 0.14791 0.11905 0.0
H1350 H 0.35782 0.08305 0.10789 0.0
H1351 H 0.35817 0.10625 0.10504 0.0
H1352 H 0.32543 0.12723 0.11905 0.0
C1353 C 0.33949 0.1728 0.12523 0.0
C1354 C 0.3587 0.14359 0.11873 0.0
C1355 C 0.34071 0.18609 0.12589 0.0
C1356 C 0.35205 0.08894 0.11415 0.0
C1357 C 0.3523 0.10219 0.11254 0.0
C1358 C 0.33477 0.1317 0.11897 0.0
C1359 C 0.34852 0.1654 0.11855 0.0
C1360 C 0.34758 0.15117 0.11841 0.0
C1361 C 0.34508 0.11015 0.1206 0.0
C1362 C 0.34589 0.12422 0.11939 0.0
H1363 H 0.36807 0.18947 0.10853 0.0
H1364 H 0.36568 0.16639 0.10689 0.0
H1365 H 0.32683 0.15049 0.11786 0.0
H1366 H 0.33169 0.08738 0.13958 0.0
H1367 H 0.33192 0.11055 0.13657 0.0
C1368 C 0.17788 0.8973 0.11978 0.0
C1369 C 0.17417 0.90756 0.11196 0.0
C1370 C 0.16879 0.8905 0.12683 0.0
C1371 C 0.13525 0.89218 0.13873 0.0
H1372 H 0.13933 0.8555 0.14203 0.0
C1373 C 0.09519 0.85847 0.15678 0.0
C1374 C 0.09877 0.84906 0.16568 0.0
C1375 C 0.10446 0.86598 0.15074 0.0
C1376 C 0.13813 0.86576 0.14129 0.0
H1377 H 0.15801 0.91874 0.1054 0.0
H1378 H 0.14211 0.90668 0.11738 0.0
H1379 H 0.15529 0.86784 0.13042 0.0
H1380 H 0.11488 0.84022 0.17527 0.0
H1381 H 0.13105 0.85325 0.16461 0.0
H1382 H 0.11787 0.88995 0.14935 0.0
C1383 C 0.15207 0.90404 0.11833 0.0
C1384 C 0.1473 0.87286 0.13467 0.0
C1385 C 0.16119 0.91092 0.11139 0.0
C1386 C 0.11181 0.84738 0.16846 0.0
C1387 C 0.12108 0.85479 0.16232 0.0
C1388 C 0.12601 0.88505 0.14524 0.0
C1389 C 0.15574 0.8937 0.12612 0.0
C1390 C 0.146 0.88617 0.1333 0.0
C1391 C 0.1175 0.86414 0.15337 0.0
C1392 C 0.12736 0.87177 0.14659 0.0
H1393 H 0.18783 0.89452 0.1205 0.0
H1394 H 0.17203 0.88277 0.1329 0.0
H1395 H 0.13403 0.90244 0.13807 0.0
H1396 H 0.08523 0.86001 0.15444 0.0
H1397 H 0.10143 0.87305 0.14381 0.0
C1398 C 0.40189 0.86865 0.44541 0.0
C1399 C 0.39974 0.85549 0.44388 0.0
C1400 C 0.39465 0.87755 0.43855 0.0
C1401 C 0.37344 0.88029 0.41012 0.0
H1402 H 0.36436 0.91274 0.42555 0.0
C1403 C 0.33858 0.91575 0.38626 0.0
C1404 C 0.34302 0.92838 0.38528 0.0
C1405 C 0.34498 0.9069 0.39395 0.0
C1406 C 0.36688 0.90373 0.42112 0.0
H1407 H 0.38817 0.84133 0.43414 0.0
H1408 H 0.37528 0.8568 0.4225 0.0
H1409 H 0.37646 0.8971 0.4379 0.0
H1410 H 0.35739 0.94177 0.39193 0.0
H1411 H 0.36843 0.92633 0.40555 0.0
H1412 H 0.36363 0.8869 0.39342 0.0
C1413 C 0.38279 0.8603 0.42871 0.0
C1414 C 0.37387 0.89478 0.42816 0.0
C1415 C 0.39013 0.85141 0.43544 0.0
C1416 C 0.35375 0.93209 0.39247 0.0
C1417 C 0.36004 0.92328 0.4003 0.0
C1418 C 0.36632 0.88917 0.40316 0.0
C1419 C 0.38499 0.87349 0.43011 0.0
C1420 C 0.37732 0.88296 0.42273 0.0
C1421 C 0.35583 0.91055 0.40096 0.0
C1422 C 0.36302 0.901 0.40856 0.0
H1423 H 0.40928 0.87209 0.45179 0.0
H1424 H 0.3968 0.8876 0.43972 0.0
H1425 H 0.37612 0.87143 0.40551 0.0
H1426 H 0.33035 0.91259 0.38083 0.0
H1427 H 0.34147 0.89717 0.39438 0.0
C1428 C 0.30978 0.08206 0.61722 0.0
C1429 C 0.31199 0.07059 0.61058 0.0
C1430 C 0.31995 0.08888 0.62256 0.0
C1431 C 0.35409 0.08593 0.63205 0.0
H1432 H 0.35375 0.12284 0.6288 0.0
C1433 C 0.39885 0.11743 0.63983 0.0
C1434 C 0.39721 0.129 0.64645 0.0
C1435 C 0.38827 0.10999 0.63644 0.0
C1436 C 0.35392 0.11255 0.62993 0.0
H1437 H 0.32662 0.05724 0.60447 0.0
H1438 H 0.34436 0.06925 0.61354 0.0
H1439 H 0.33564 0.11045 0.62105 0.0
H1440 H 0.38319 0.14173 0.6549 0.0
H1441 H 0.36474 0.12874 0.64896 0.0
H1442 H 0.37253 0.08808 0.64069 0.0
C1443 C 0.33476 0.07288 0.61484 0.0
C1444 C 0.34352 0.10543 0.62551 0.0
C1445 C 0.32458 0.06601 0.60956 0.0
C1446 C 0.38478 0.13288 0.64978 0.0
C1447 C 0.37421 0.12548 0.64632 0.0
C1448 C 0.36453 0.09305 0.63641 0.0
C1449 C 0.33259 0.08445 0.62132 0.0
C1450 C 0.34349 0.09203 0.62646 0.0
C1451 C 0.37583 0.114 0.63953 0.0
C1452 C 0.36458 0.10643 0.63534 0.0
H1453 H 0.30019 0.08581 0.61825 0.0
H1454 H 0.3179 0.09764 0.62767 0.0
H1455 H 0.35431 0.07564 0.63314 0.0
H1456 H 0.40829 0.11417 0.63712 0.0
H1457 H 0.38983 0.10126 0.63111 0.0
C1458 C 0.12923 0.16955 0.88457 0.0
C1459 C 0.13675 0.1787 0.87824 0.0
C1460 C 0.13315 0.15679 0.88516 0.0
C1461 C 0.15192 0.13322 0.86787 0.0
H1462 H 0.15047 0.11376 0.89937 0.0
C1463 C 0.16645 0.08015 0.86891 0.0
C1464 C 0.15885 0.07194 0.87632 0.0
C1465 C 0.16523 0.09341 0.87008 0.0
C1466 C 0.15081 0.119 0.89046 0.0
H1467 H 0.15432 0.18169 0.86765 0.0
H1468 H 0.16103 0.15932 0.86848 0.0
H1469 H 0.14526 0.1365 0.89958 0.0
H1470 H 0.14422 0.07116 0.89098 0.0
H1471 H 0.14177 0.09419 0.89272 0.0
H1472 H 0.15691 0.11575 0.85858 0.0
C1473 C 0.15214 0.16206 0.87303 0.0
C1474 C 0.14787 0.13204 0.89061 0.0
C1475 C 0.14832 0.17486 0.8726 0.0
C1476 C 0.15026 0.07724 0.88518 0.0
C1477 C 0.14892 0.09049 0.88622 0.0
C1478 C 0.15469 0.12016 0.86767 0.0
C1479 C 0.14457 0.1529 0.87928 0.0
C1480 C 0.14832 0.13925 0.8793 0.0
C1481 C 0.15625 0.09876 0.87855 0.0
C1482 C 0.15407 0.11284 0.87895 0.0
H1483 H 0.12028 0.17222 0.88905 0.0
H1484 H 0.12708 0.14991 0.88995 0.0
H1485 H 0.1522 0.13852 0.85898 0.0
H1486 H 0.17323 0.07635 0.86208 0.0
H1487 H 0.17125 0.09945 0.86422 0.0
C1488 C 0.11627 0.36708 0.15951 0.0
C1489 C 0.11768 0.35907 0.17021 0.0
C1490 C 0.11784 0.36224 0.14715 0.0
C1491 C 0.11914 0.33227 0.12831 0.0
H1492 H 0.14066 0.35215 0.10561 0.0
C1493 C 0.14297 0.31087 0.08336 0.0
C1494 C 0.14432 0.31864 0.0725 0.0
C1495 C 0.13814 0.31589 0.09476 0.0
C1496 C 0.13445 0.34656 0.11172 0.0
H1497 H 0.1214 0.33961 0.17628 0.0
H1498 H 0.1242 0.3312 0.15474 0.0
H1499 H 0.13486 0.36075 0.12642 0.0
H1500 H 0.14125 0.3377 0.06495 0.0
H1501 H 0.13265 0.34643 0.08478 0.0
H1502 H 0.11887 0.318 0.11364 0.0
C1503 C 0.1218 0.3412 0.15589 0.0
C1504 C 0.13113 0.35149 0.12367 0.0
C1505 C 0.12026 0.34604 0.16825 0.0
C1506 C 0.1404 0.33147 0.07317 0.0
C1507 C 0.13554 0.33649 0.08457 0.0
C1508 C 0.12243 0.32733 0.11633 0.0
C1509 C 0.12082 0.34929 0.14521 0.0
C1510 C 0.12356 0.34435 0.13217 0.0
C1511 C 0.13452 0.32881 0.09555 0.0
C1512 C 0.13026 0.33436 0.10794 0.0
H1513 H 0.11423 0.37716 0.16068 0.0
H1514 H 0.11685 0.36868 0.13911 0.0
H1515 H 0.11314 0.3266 0.13457 0.0
H1516 H 0.14592 0.30095 0.08318 0.0
H1517 H 0.13764 0.30974 0.10307 0.0
C1518 C 0.58775 0.12065 0.81232 0.0
C1519 C 0.57729 0.11337 0.81657 0.0
C1520 C 0.59552 0.12711 0.82105 0.0
C1521 C 0.60598 0.12655 0.85443 0.0
H1522 H 0.61553 0.16185 0.84848 0.0
C1523 C 0.63312 0.15607 0.89232 0.0
C1524 C 0.64228 0.16491 0.88807 0.0
C1525 C 0.62514 0.14983 0.88361 0.0
C1526 C 0.61313 0.15194 0.85021 0.0
H1527 H 0.56677 0.10717 0.83333 0.0
H1528 H 0.58045 0.11835 0.84859 0.0
H1529 H 0.60174 0.1509 0.83322 0.0
H1530 H 0.65041 0.17399 0.87131 0.0
H1531 H 0.6368 0.16284 0.85608 0.0
H1532 H 0.61755 0.12742 0.87124 0.0
C1533 C 0.58262 0.11904 0.83849 0.0
C1534 C 0.60517 0.14569 0.84148 0.0
C1535 C 0.57475 0.1127 0.82975 0.0
C1536 C 0.64339 0.16728 0.8749 0.0
C1537 C 0.63551 0.16094 0.86617 0.0
C1538 C 0.61404 0.13274 0.86309 0.0
C1539 C 0.59308 0.12631 0.83424 0.0
C1540 C 0.60149 0.13295 0.84351 0.0
C1541 C 0.62623 0.15217 0.87041 0.0
C1542 C 0.61771 0.14553 0.86112 0.0
H1543 H 0.58996 0.12136 0.80223 0.0
H1544 H 0.60358 0.13256 0.81751 0.0
H1545 H 0.60343 0.11667 0.85615 0.0
H1546 H 0.63196 0.15409 0.90242 0.0
H1547 H 0.61798 0.14331 0.88726 0.0
C1548 C 0.88633 0.84918 0.42399 0.0
C1549 C 0.89177 0.85451 0.43506 0.0
C1550 C 0.89121 0.85216 0.41191 0.0
C1551 C 0.90921 0.87734 0.39528 0.0
H1552 H 0.91214 0.85223 0.36819 0.0
C1553 C 0.93104 0.89007 0.34633 0.0
C1554 C 0.92494 0.88515 0.33542 0.0
C1555 C 0.92768 0.88577 0.35852 0.0
C1556 C 0.91126 0.85938 0.37562 0.0
H1557 H 0.90688 0.86682 0.44213 0.0
H1558 H 0.91543 0.87195 0.42107 0.0
H1559 H 0.90519 0.84555 0.38945 0.0
H1560 H 0.9106 0.87176 0.32876 0.0
H1561 H 0.90458 0.86439 0.35004 0.0
H1562 H 0.91506 0.89122 0.38148 0.0
C1563 C 0.90728 0.8656 0.42173 0.0
C1564 C 0.9073 0.85554 0.3878 0.0
C1565 C 0.90243 0.86259 0.4338 0.0
C1566 C 0.9155 0.87573 0.33697 0.0
C1567 C 0.9121 0.87144 0.34917 0.0
C1568 C 0.91312 0.88119 0.38311 0.0
C1569 C 0.90162 0.86057 0.41063 0.0
C1570 C 0.9062 0.86449 0.39777 0.0
C1571 C 0.91809 0.87647 0.3601 0.0
C1572 C 0.91417 0.87227 0.37311 0.0
H1573 H 0.87811 0.84292 0.42463 0.0
H1574 H 0.88656 0.84821 0.40355 0.0
H1575 H 0.90824 0.88452 0.40268 0.0
H1576 H 0.93842 0.89729 0.34547 0.0
H1577 H 0.93263 0.8897 0.36671 0.0
C1578 C 0.84741 0.14337 0.11026 0.0
C1579 C 0.84965 0.13883 0.09782 0.0
C1580 C 0.85461 0.13881 0.12055 0.0
C1581 C 0.87453 0.11141 0.13041 0.0
H1582 H 0.88549 0.13428 0.15743 0.0
C1583 C 0.90791 0.09495 0.17119 0.0
C1584 C 0.90482 0.09909 0.18359 0.0
C1585 C 0.9016 0.10003 0.16057 0.0
C1586 C 0.8824 0.12775 0.15002 0.0
H1587 H 0.86136 0.12609 0.08639 0.0
H1588 H 0.87402 0.11826 0.10431 0.0
H1589 H 0.8738 0.1428 0.13914 0.0
H1590 H 0.89273 0.11188 0.19455 0.0
H1591 H 0.88167 0.12068 0.17603 0.0
H1592 H 0.88307 0.09636 0.14131 0.0
C1593 C 0.86656 0.1252 0.10615 0.0
C1594 C 0.8757 0.13263 0.13954 0.0
C1595 C 0.85935 0.12975 0.09587 0.0
C1596 C 0.89536 0.10849 0.18513 0.0
C1597 C 0.88907 0.11359 0.1745 0.0
C1598 C 0.88124 0.10654 0.14088 0.0
C1599 C 0.86423 0.12962 0.11863 0.0
C1600 C 0.87164 0.12451 0.12963 0.0
C1601 C 0.89209 0.10939 0.1621 0.0
C1602 C 0.88521 0.11464 0.15083 0.0
H1603 H 0.83998 0.15034 0.1121 0.0
H1604 H 0.85246 0.14231 0.13005 0.0
H1605 H 0.87136 0.10485 0.12305 0.0
H1606 H 0.91519 0.08774 0.16967 0.0
H1607 H 0.90426 0.0967 0.15113 0.0
C1608 C 0.40757 0.63793 0.67434 0.0
C1609 C 0.40457 0.63936 0.68735 0.0
C1610 C 0.40075 0.64465 0.66502 0.0
C1611 C 0.3698 0.66108 0.66008 0.0
H1612 H 0.38613 0.67339 0.62917 0.0
C1613 C 0.34337 0.69176 0.62243 0.0
C1614 C 0.34522 0.68833 0.60957 0.0
C1615 C 0.35078 0.68621 0.63207 0.0
C1616 C 0.38143 0.66992 0.63771 0.0
H1617 H 0.39237 0.64933 0.70082 0.0
H1618 H 0.38069 0.66128 0.6846 0.0
H1619 H 0.39903 0.66341 0.64582 0.0
H1620 H 0.35634 0.67643 0.59674 0.0
H1621 H 0.36929 0.66678 0.61357 0.0
H1622 H 0.35221 0.66769 0.65197 0.0
C1623 C 0.3881 0.65473 0.68155 0.0
C1624 C 0.38881 0.66418 0.64726 0.0
C1625 C 0.39486 0.64795 0.69087 0.0
C1626 C 0.35466 0.67927 0.60656 0.0
C1627 C 0.36214 0.6738 0.61618 0.0
C1628 C 0.36244 0.6669 0.65058 0.0
C1629 C 0.39083 0.65303 0.6685 0.0
C1630 C 0.38308 0.65961 0.65853 0.0
C1631 C 0.36028 0.67721 0.62904 0.0
C1632 C 0.36816 0.67131 0.63926 0.0
H1633 H 0.41496 0.63135 0.6713 0.0
H1634 H 0.40302 0.64296 0.65506 0.0
H1635 H 0.36501 0.65747 0.66851 0.0
H1636 H 0.33618 0.69872 0.62507 0.0
H1637 H 0.3492 0.6891 0.64188 0.0
C1638 C 0.10485 0.62547 0.39949 0.0
C1639 C 0.11746 0.62986 0.39799 0.0
C1640 C 0.09741 0.62241 0.38882 0.0
C1641 C 0.09526 0.62695 0.35367 0.0
H1642 H 0.07449 0.5963 0.35518 0.0
C1643 C 0.0738 0.60298 0.30879 0.0
C1644 C 0.06129 0.59816 0.30967 0.0
C1645 C 0.08005 0.60765 0.31964 0.0
C1646 C 0.0801 0.60497 0.35466 0.0
H1647 H 0.13208 0.63463 0.38408 0.0
H1648 H 0.11919 0.6291 0.36551 0.0
H1649 H 0.08648 0.603 0.37397 0.0
H1650 H 0.04547 0.59462 0.3226 0.0
H1651 H 0.05639 0.60277 0.34153 0.0
H1652 H 0.08904 0.62876 0.33425 0.0
C1653 C 0.11496 0.62821 0.37491 0.0
C1654 C 0.08698 0.60884 0.36544 0.0
C1655 C 0.12239 0.63131 0.38558 0.0
C1656 C 0.05511 0.59824 0.3216 0.0
C1657 C 0.06139 0.60285 0.33246 0.0
C1658 C 0.08843 0.62305 0.34287 0.0
C1659 C 0.10241 0.62363 0.3764 0.0
C1660 C 0.09471 0.61983 0.36506 0.0
C1661 C 0.07396 0.60754 0.33161 0.0
C1662 C 0.08083 0.61198 0.34322 0.0
H1663 H 0.10074 0.62432 0.40892 0.0
H1664 H 0.08771 0.61911 0.39032 0.0
H1665 H 0.10095 0.63558 0.3531 0.0
H1666 H 0.07883 0.60305 0.29974 0.0
H1667 H 0.08978 0.61106 0.31869 0.0
C1668 C 0.41553 0.37861 0.84194 0.0
C1669 C 0.40948 0.37074 0.8329 0.0
C1670 C 0.4143 0.37612 0.85501 0.0
C1671 C 0.40351 0.35143 0.87844 0.0
H1672 H 0.39883 0.3809 0.9004 0.0
C1673 C 0.38096 0.3493 0.92898 0.0
C1674 C 0.38659 0.35682 0.93859 0.0
C1675 C 0.38528 0.35007 0.91636 0.0
C1676 C 0.40029 0.37258 0.89443 0.0
H1677 H 0.39761 0.35394 0.83046 0.0
H1678 H 0.39512 0.34981 0.85322 0.0
H1679 H 0.40351 0.38403 0.87785 0.0
H1680 H 0.40143 0.37076 0.94254 0.0
H1681 H 0.40887 0.37217 0.92047 0.0
H1682 H 0.39977 0.34002 0.89506 0.0
C1683 C 0.40107 0.35774 0.85026 0.0
C1684 C 0.40302 0.37435 0.88148 0.0
C1685 C 0.40244 0.36015 0.83719 0.0
C1686 C 0.39687 0.36485 0.93536 0.0
C1687 C 0.40109 0.36571 0.92272 0.0
C1688 C 0.40064 0.34966 0.89138 0.0
C1689 C 0.40685 0.3658 0.85936 0.0
C1690 C 0.4046 0.36381 0.87329 0.0
C1691 C 0.39522 0.35847 0.91306 0.0
C1692 C 0.39894 0.36022 0.89948 0.0
H1693 H 0.42113 0.38678 0.83893 0.0
H1694 H 0.41911 0.38237 0.8617 0.0
H1695 H 0.40487 0.34308 0.87248 0.0
H1696 H 0.37304 0.343 0.93116 0.0
H1697 H 0.38051 0.34444 0.90909 0.0
C1698 C 0.60386 0.6143 0.85731 0.0
C1699 C 0.59196 0.60857 0.85975 0.0
C1700 C 0.61522 0.60782 0.86005 0.0
C1701 C 0.62757 0.58155 0.88023 0.0
H1702 H 0.65795 0.58526 0.85933 0.0
C1703 C 0.67368 0.55333 0.89069 0.0
C1704 C 0.68512 0.56037 0.89056 0.0
C1705 C 0.66237 0.55864 0.88596 0.0
C1706 C 0.64955 0.5842 0.86529 0.0
H1707 H 0.58265 0.59133 0.86651 0.0
H1708 H 0.60244 0.57991 0.87102 0.0
H1709 H 0.63801 0.59539 0.85263 0.0
H1710 H 0.69372 0.5784 0.88503 0.0
H1711 H 0.67396 0.58767 0.87676 0.0
H1712 H 0.6391 0.57037 0.89288 0.0
C1713 C 0.60302 0.58954 0.86728 0.0
C1714 C 0.63813 0.59002 0.86147 0.0
C1715 C 0.59166 0.59606 0.86461 0.0
C1716 C 0.68507 0.57273 0.88528 0.0
C1717 C 0.67377 0.57801 0.88048 0.0
C1718 C 0.63895 0.57568 0.884 0.0
C1719 C 0.61494 0.59541 0.86523 0.0
C1720 C 0.62701 0.58883 0.86894 0.0
C1721 C 0.66226 0.57109 0.88093 0.0
C1722 C 0.65009 0.57699 0.87661 0.0
H1723 H 0.60442 0.62395 0.85359 0.0
H1724 H 0.62421 0.6127 0.85848 0.0
H1725 H 0.61928 0.58063 0.88637 0.0
H1726 H 0.67339 0.54377 0.89465 0.0
H1727 H 0.65369 0.553 0.88629 0.0
C1728 C 0.59756 0.32712 0.06027 0.0
C1729 C 0.58791 0.3304 0.05153 0.0
C1730 C 0.60479 0.3366 0.06628 0.0
C1731 C 0.61341 0.37107 0.06423 0.0
H1732 H 0.62233 0.36637 0.09989 0.0
C1733 C 0.63141 0.41175 0.0972 0.0
C1734 C 0.64147 0.40885 0.10562 0.0
C1735 C 0.6258 0.40217 0.08976 0.0
C1736 C 0.62004 0.36775 0.08989 0.0
H1737 H 0.57829 0.34622 0.04223 0.0
H1738 H 0.59064 0.36277 0.05296 0.0
H1739 H 0.61056 0.34971 0.08871 0.0
H1740 H 0.65376 0.39367 0.11258 0.0
H1741 H 0.64389 0.37694 0.09966 0.0
H1742 H 0.62263 0.38932 0.06561 0.0
C1743 C 0.59285 0.35287 0.05498 0.0
C1744 C 0.61332 0.35819 0.08345 0.0
C1745 C 0.58569 0.34337 0.04888 0.0
C1746 C 0.64602 0.39623 0.1062 0.0
C1747 C 0.64033 0.38663 0.09886 0.0
C1748 C 0.62005 0.38069 0.07072 0.0
C1749 C 0.60247 0.34961 0.06379 0.0
C1750 C 0.60988 0.35972 0.07054 0.0
C1751 C 0.63005 0.38947 0.09069 0.0
C1752 C 0.62341 0.37913 0.08362 0.0
H1753 H 0.59957 0.3172 0.06245 0.0
H1754 H 0.61227 0.33371 0.07282 0.0
H1755 H 0.61113 0.3725 0.05424 0.0
H1756 H 0.62769 0.42139 0.09651 0.0
H1757 H 0.61784 0.40462 0.08361 0.0
C1758 C 0.84301 0.39185 0.36918 0.0
C1759 C 0.84153 0.39921 0.38032 0.0
C1760 C 0.85518 0.38932 0.36426 0.0
C1761 C 0.88878 0.40036 0.3651 0.0
H1762 H 0.89614 0.36587 0.35373 0.0
C1763 C 0.94013 0.38244 0.35491 0.0
C1764 C 0.9419 0.37398 0.34462 0.0
C1765 C 0.92783 0.38617 0.3586 0.0
C1766 C 0.89421 0.3756 0.35669 0.0
H1767 H 0.8517 0.40983 0.39494 0.0
H1768 H 0.87293 0.40534 0.38641 0.0
H1769 H 0.87481 0.37116 0.36138 0.0
H1770 H 0.93215 0.36309 0.32992 0.0
H1771 H 0.91074 0.36971 0.33626 0.0
H1772 H 0.90823 0.40477 0.36047 0.0
C1773 C 0.86466 0.40162 0.3814 0.0
C1774 C 0.88197 0.37863 0.36109 0.0
C1775 C 0.85249 0.40413 0.38633 0.0
C1776 C 0.93112 0.36957 0.33793 0.0
C1777 C 0.91884 0.3733 0.34162 0.0
C1778 C 0.90104 0.39733 0.36068 0.0
C1779 C 0.86615 0.39411 0.37036 0.0
C1780 C 0.87912 0.39103 0.36539 0.0
C1781 C 0.91703 0.38152 0.35209 0.0
C1782 C 0.90391 0.3849 0.35646 0.0
H1783 H 0.83477 0.38795 0.36428 0.0
H1784 H 0.85598 0.38364 0.35564 0.0
H1785 H 0.88685 0.41004 0.36819 0.0
H1786 H 0.94823 0.386 0.36028 0.0
H1787 H 0.92679 0.3924 0.3668 0.0
C1788 C 0.8078 0.59293 0.64465 0.0
C1789 C 0.79584 0.59419 0.65065 0.0
C1790 C 0.81418 0.60365 0.63988 0.0
C1791 C 0.8093 0.63755 0.63053 0.0
H1792 H 0.84582 0.64003 0.63631 0.0
C1793 C 0.83762 0.68474 0.6254 0.0
C1794 C 0.84991 0.68414 0.62001 0.0
C1795 C 0.83076 0.67356 0.62794 0.0
C1796 C 0.83566 0.63941 0.63445 0.0
H1797 H 0.78115 0.60771 0.65622 0.0
H1798 H 0.79236 0.62643 0.6481 0.0
H1799 H 0.83438 0.62092 0.64305 0.0
H1800 H 0.86449 0.67132 0.61272 0.0
H1801 H 0.85248 0.65182 0.61711 0.0
H1802 H 0.81058 0.65619 0.62214 0.0
C1803 C 0.79673 0.61713 0.64689 0.0
C1804 C 0.82909 0.62845 0.63831 0.0
C1805 C 0.79033 0.6064 0.65162 0.0
C1806 C 0.85506 0.67212 0.61692 0.0
C1807 C 0.84822 0.66094 0.6195 0.0
C1808 C 0.81587 0.64855 0.6267 0.0
C1809 C 0.80877 0.61591 0.64103 0.0
C1810 C 0.81581 0.6274 0.63647 0.0
C1811 C 0.83605 0.66152 0.62518 0.0
C1812 C 0.82911 0.64963 0.62869 0.0
H1813 H 0.81228 0.58365 0.64368 0.0
H1814 H 0.82334 0.60233 0.63526 0.0
H1815 H 0.79911 0.63699 0.62877 0.0
H1816 H 0.83337 0.69384 0.6279 0.0
H1817 H 0.82146 0.67434 0.63243 0.0
C1818 C 0.66756 0.38833 0.60926 0.0
C1819 C 0.66511 0.39517 0.59797 0.0
C1820 C 0.6575 0.38331 0.61648 0.0
C1821 C 0.62261 0.3866 0.62187 0.0
H1822 H 0.62632 0.35343 0.63797 0.0
C1823 C 0.58052 0.35979 0.64583 0.0
C1824 C 0.58304 0.35373 0.65755 0.0
C1825 C 0.59047 0.3651 0.63865 0.0
C1826 C 0.62519 0.36277 0.63364 0.0
H1827 H 0.65017 0.40201 0.58533 0.0
H1828 H 0.63264 0.39305 0.59778 0.0
H1829 H 0.64373 0.36198 0.62508 0.0
H1830 H 0.59798 0.34863 0.671 0.0
H1831 H 0.61532 0.35791 0.65846 0.0
H1832 H 0.60398 0.38727 0.63035 0.0
C1833 C 0.64232 0.39175 0.6012 0.0
C1834 C 0.63518 0.36768 0.62626 0.0
C1835 C 0.65238 0.39682 0.59401 0.0
C1836 C 0.59571 0.35321 0.662 0.0
C1837 C 0.60566 0.35845 0.65478 0.0
C1838 C 0.61259 0.38165 0.6292 0.0
C1839 C 0.64474 0.38497 0.61256 0.0
C1840 C 0.63404 0.37968 0.6203 0.0
C1841 C 0.60316 0.3644 0.643 0.0
C1842 C 0.61378 0.36969 0.63519 0.0
H1843 H 0.67725 0.38694 0.61261 0.0
H1844 H 0.65973 0.37832 0.62526 0.0
H1845 H 0.62147 0.39596 0.6176 0.0
H1846 H 0.57087 0.36034 0.64213 0.0
H1847 H 0.58825 0.36952 0.62956 0.0
C1848 C 0.89365 0.31935 0.92481 0.0
C1849 C 0.89903 0.31966 0.93712 0.0
C1850 C 0.8902 0.33068 0.91862 0.0
C1851 C 0.89739 0.36509 0.91823 0.0
H1852 H 0.86626 0.36743 0.89824 0.0
C1853 C 0.88183 0.41223 0.89423 0.0
C1854 C 0.877 0.41138 0.88173 0.0
C1855 C 0.88377 0.40121 0.90153 0.0
C1856 C 0.87505 0.36689 0.90369 0.0
H1857 H 0.90479 0.33211 0.95267 0.0
H1858 H 0.89872 0.35186 0.94187 0.0
H1859 H 0.87098 0.34786 0.91002 0.0
H1860 H 0.87026 0.39828 0.86714 0.0
H1861 H 0.87381 0.37906 0.87979 0.0
H1862 H 0.90158 0.38402 0.91177 0.0
C1863 C 0.89729 0.34286 0.93696 0.0
C1864 C 0.87774 0.35568 0.91044 0.0
C1865 C 0.9007 0.33153 0.94317 0.0
C1866 C 0.87397 0.39928 0.87676 0.0
C1867 C 0.87594 0.38826 0.88404 0.0
C1868 C 0.89472 0.37628 0.91145 0.0
C1869 C 0.89209 0.34257 0.92458 0.0
C1870 C 0.88897 0.35463 0.91774 0.0
C1871 C 0.88095 0.38908 0.89649 0.0
C1872 C 0.88355 0.3773 0.90404 0.0
H1873 H 0.89224 0.31037 0.91987 0.0
H1874 H 0.88634 0.33013 0.90903 0.0
H1875 H 0.90622 0.36452 0.9236 0.0
H1876 H 0.88421 0.42141 0.89838 0.0
H1877 H 0.88746 0.40221 0.91115 0.0
C1878 C 0.89103 0.64652 0.14067 0.0
C1879 C 0.89993 0.64132 0.13208 0.0
C1880 C 0.87839 0.64221 0.1408 0.0
C1881 C 0.85751 0.61561 0.12956 0.0
H1882 H 0.83056 0.64031 0.13569 0.0
C1883 C 0.80379 0.60618 0.11952 0.0
C1884 C 0.79513 0.61007 0.12903 0.0
C1885 C 0.81676 0.60929 0.12048 0.0
C1886 C 0.838 0.63328 0.13408 0.0
H1887 H 0.90256 0.62752 0.11685 0.0
H1888 H 0.88043 0.6203 0.11674 0.0
H1889 H 0.85278 0.64722 0.13599 0.0
H1890 H 0.7933 0.62009 0.14709 0.0
H1891 H 0.81592 0.62566 0.14864 0.0
H1892 H 0.84256 0.60177 0.12724 0.0
C1893 C 0.88325 0.62748 0.12364 0.0
C1894 C 0.85075 0.63722 0.1343 0.0
C1895 C 0.89594 0.63168 0.12363 0.0
C1896 C 0.79973 0.61695 0.13961 0.0
C1897 C 0.81266 0.6202 0.14047 0.0
C1898 C 0.84472 0.61171 0.12918 0.0
C1899 C 0.87429 0.63271 0.13221 0.0
C1900 C 0.86069 0.62844 0.13206 0.0
C1901 C 0.82128 0.61649 0.13087 0.0
C1902 C 0.83485 0.62051 0.13146 0.0
H1903 H 0.89385 0.65389 0.14738 0.0
H1904 H 0.87187 0.64629 0.14772 0.0
H1905 H 0.86488 0.60852 0.12801 0.0
H1906 H 0.80054 0.60085 0.11127 0.0
H1907 H 0.82318 0.60638 0.1129 0.0
C1908 C 0.64029 0.67173 0.36373 0.0
C1909 C 0.62972 0.6758 0.37095 0.0
C1910 C 0.64464 0.65912 0.36462 0.0
C1911 C 0.64537 0.63134 0.38565 0.0
H1912 H 0.64911 0.61152 0.35458 0.0
C1913 C 0.65212 0.57666 0.3867 0.0
C1914 C 0.65938 0.57085 0.37703 0.0
C1915 C 0.64938 0.58972 0.3862 0.0
C1916 C 0.64838 0.61694 0.36336 0.0
H1917 H 0.61557 0.66996 0.38493 0.0
H1918 H 0.62335 0.64801 0.38666 0.0
H1919 H 0.64292 0.63392 0.35328 0.0
H1920 H 0.6699 0.57423 0.35951 0.0
H1921 H 0.6656 0.59709 0.35888 0.0
H1922 H 0.65108 0.61455 0.39577 0.0
C1923 C 0.6282 0.65456 0.38027 0.0
C1924 C 0.64476 0.62977 0.36258 0.0
C1925 C 0.62371 0.66709 0.37922 0.0
C1926 C 0.66418 0.57843 0.36704 0.0
C1927 C 0.66162 0.59153 0.36665 0.0
C1928 C 0.6492 0.61857 0.38643 0.0
C1929 C 0.63864 0.65044 0.37291 0.0
C1930 C 0.64308 0.63704 0.37373 0.0
C1931 C 0.65402 0.59733 0.37612 0.0
C1932 C 0.65061 0.61114 0.37529 0.0
H1933 H 0.6451 0.67822 0.35727 0.0
H1934 H 0.65275 0.65618 0.35889 0.0
H1935 H 0.64428 0.6368 0.39438 0.0
H1936 H 0.64821 0.57105 0.39448 0.0
H1937 H 0.64332 0.59374 0.39356 0.0
C1938 C 0.60713 0.8781 0.63932 0.0
C1939 C 0.6079 0.87259 0.65154 0.0
C1940 C 0.61078 0.87117 0.6285 0.0
C1941 C 0.63045 0.8434 0.61882 0.0
H1942 H 0.61257 0.84737 0.5866 0.0
C1943 C 0.64316 0.81346 0.57422 0.0
C1944 C 0.64439 0.82029 0.56272 0.0
C1945 C 0.6379 0.81928 0.58504 0.0
C1946 C 0.6177 0.84622 0.59552 0.0
H1947 H 0.61279 0.85535 0.66195 0.0
H1948 H 0.6189 0.84317 0.64307 0.0
H1949 H 0.60474 0.85844 0.60557 0.0
H1950 H 0.64078 0.83849 0.55347 0.0
H1951 H 0.63156 0.84861 0.57234 0.0
H1952 H 0.64339 0.83117 0.60875 0.0
C1953 C 0.61574 0.85294 0.64185 0.0
C1954 C 0.61323 0.85258 0.60639 0.0
C1955 C 0.61216 0.8599 0.65268 0.0
C1956 C 0.63998 0.83297 0.56219 0.0
C1957 C 0.63463 0.83875 0.57298 0.0
C1958 C 0.63486 0.83698 0.60797 0.0
C1959 C 0.61522 0.85853 0.62963 0.0
C1960 C 0.61962 0.85134 0.61816 0.0
C1961 C 0.63365 0.83201 0.58456 0.0
C1962 C 0.62859 0.8384 0.59618 0.0
H1963 H 0.60393 0.88787 0.63811 0.0
H1964 H 0.61042 0.87584 0.61927 0.0
H1965 H 0.63574 0.84238 0.62766 0.0
H1966 H 0.64645 0.80368 0.57494 0.0
H1967 H 0.63714 0.81381 0.59379 0.0
C1968 C 0.98416 0.30453 0.33188 0.0
C1969 C 0.99192 0.31543 0.33302 0.0
C1970 C 0.98926 0.29235 0.33395 0.0
C1971 C 0.01987 0.27574 0.33152 0.0
H1972 H 0.00151 0.24742 0.34681 0.0
C1973 C 0.04074 0.22497 0.3303 0.0
C1974 C 0.03214 0.21531 0.32671 0.0
C1975 C 0.03626 0.23704 0.33387 0.0
C1976 C 0.00674 0.25522 0.34246 0.0
H1977 H 0.0109 0.32215 0.33804 0.0
H1978 H 0.01974 0.30093 0.34169 0.0
H1979 H 0.99262 0.26898 0.34806 0.0
H1980 H 0.01206 0.21057 0.32462 0.0
H1981 H 0.00428 0.23161 0.33052 0.0
H1982 H 0.03372 0.26204 0.32545 0.0
C1983 C 0.00977 0.30178 0.339 0.0
C1984 C 0.00165 0.26756 0.3432 0.0
C1985 C 0.00468 0.31394 0.33695 0.0
C1986 C 0.01895 0.2178 0.32731 0.0
C1987 C 0.01448 0.22987 0.3308 0.0
C1988 C 0.02492 0.26342 0.33072 0.0
C1989 C 0.00222 0.29084 0.33719 0.0
C1990 C 0.00808 0.27792 0.33757 0.0
C1991 C 0.02307 0.23973 0.33386 0.0
C1992 C 0.01833 0.25297 0.33599 0.0
H1993 H 0.97428 0.30535 0.32889 0.0
H1994 H 0.98321 0.2841 0.3324 0.0
H1995 H 0.02496 0.28347 0.32689 0.0
H1996 H 0.05096 0.22332 0.33006 0.0
H1997 H 0.04314 0.24435 0.3364 0.0
C1998 C 0.04034 0.76357 0.53869 0.0
C1999 C 0.04495 0.77602 0.53671 0.0
C2000 C 0.02778 0.76154 0.5427 0.0
C2001 C 0.0003 0.77703 0.55835 0.0
H2002 H 0.98139 0.74928 0.54266 0.0
C2003 C 0.94679 0.76735 0.56911 0.0
C2004 C 0.94334 0.75449 0.57094 0.0
C2005 C 0.95896 0.77054 0.56458 0.0
C2006 C 0.98657 0.75699 0.54721 0.0
H2007 H 0.04004 0.79614 0.53757 0.0
H2008 H 0.01801 0.79257 0.54455 0.0
H2009 H 0.00307 0.7539 0.53555 0.0
H2010 H 0.94997 0.73491 0.56941 0.0
H2011 H 0.97116 0.74046 0.56161 0.0
H2012 H 0.98379 0.78004 0.57008 0.0
C2013 C 0.02418 0.78439 0.54306 0.0
C2014 C 0.999 0.75964 0.54314 0.0
C2015 C 0.03677 0.78643 0.53902 0.0
C2016 C 0.95229 0.7449 0.56808 0.0
C2017 C 0.96443 0.74808 0.56353 0.0
C2018 C 0.98784 0.77437 0.56243 0.0
C2019 C 0.01951 0.7719 0.54482 0.0
C2020 C 0.00607 0.76958 0.54877 0.0
C2021 C 0.96792 0.76093 0.56174 0.0
C2022 C 0.9809 0.76422 0.557 0.0
H2023 H 0.04639 0.75534 0.53707 0.0
H2024 H 0.02457 0.75181 0.5442 0.0
H2025 H 0.00554 0.78468 0.56295 0.0
H2026 H 0.94011 0.77497 0.5712 0.0
H2027 H 0.96132 0.78052 0.56318 0.0
C2028 C 0.45912 0.78457 0.79167 0.0
C2029 C 0.46683 0.79538 0.79378 0.0
C2030 C 0.46348 0.77238 0.79501 0.0
C2031 C 0.49352 0.75482 0.80042 0.0
H2032 H 0.47169 0.72909 0.81574 0.0
C2033 C 0.51369 0.70743 0.81959 0.0
C2034 C 0.5067 0.69622 0.81718 0.0
C2035 C 0.50846 0.7194 0.81688 0.0
C2036 C 0.47786 0.73613 0.81133 0.0
H2037 H 0.48493 0.80188 0.80154 0.0
H2038 H 0.49243 0.7807 0.80747 0.0
H2039 H 0.46305 0.75028 0.81107 0.0
H2040 H 0.4887 0.68881 0.81004 0.0
H2041 H 0.47962 0.70974 0.80518 0.0
H2042 H 0.50831 0.74073 0.80061 0.0
C2043 C 0.48313 0.7816 0.80301 0.0
C2044 C 0.47291 0.74827 0.80867 0.0
C2045 C 0.47878 0.79376 0.79968 0.0
C2046 C 0.49433 0.69726 0.81203 0.0
C2047 C 0.4891 0.70926 0.80931 0.0
C2048 C 0.49845 0.74271 0.80306 0.0
C2049 C 0.47563 0.77074 0.80051 0.0
C2050 C 0.48072 0.75777 0.80326 0.0
C2051 C 0.49612 0.72047 0.81167 0.0
C2052 C 0.49071 0.73324 0.80862 0.0
H2053 H 0.44985 0.78549 0.78714 0.0
H2054 H 0.4575 0.76419 0.7929 0.0
H2055 H 0.49971 0.76183 0.79599 0.0
H2056 H 0.52322 0.70699 0.82361 0.0
H2057 H 0.51406 0.72785 0.81899 0.0
C2058 C 0.52041 0.28227 0.03797 0.0
C2059 C 0.52314 0.29482 0.03409 0.0
C2060 C 0.50867 0.2793 0.04357 0.0
C2061 C 0.48059 0.29348 0.05971 0.0
H2062 H 0.46429 0.26184 0.04939 0.0
C2063 C 0.4288 0.28013 0.07416 0.0
C2064 C 0.42674 0.26744 0.07804 0.0
C2065 C 0.4405 0.28379 0.06883 0.0
C2066 C 0.46877 0.27064 0.05247 0.0
H2067 H 0.51578 0.31418 0.03325 0.0
H2068 H 0.49517 0.30895 0.0429 0.0
H2069 H 0.48483 0.26773 0.04019 0.0
H2070 H 0.43538 0.24864 0.07941 0.0
H2071 H 0.45577 0.25503 0.07016 0.0
H2072 H 0.46444 0.29639 0.07196 0.0
C2073 C 0.50218 0.30143 0.04174 0.0
C2074 C 0.48055 0.27402 0.0472 0.0
C2075 C 0.51396 0.30441 0.03615 0.0
C2076 C 0.43663 0.25849 0.07648 0.0
C2077 C 0.4483 0.26213 0.07112 0.0
C2078 C 0.46876 0.29011 0.06496 0.0
C2079 C 0.49935 0.2888 0.04538 0.0
C2080 C 0.48666 0.28543 0.05083 0.0
C2081 C 0.45037 0.27482 0.06722 0.0
C2082 C 0.46277 0.27861 0.06145 0.0
H2083 H 0.5273 0.27467 0.03662 0.0
H2084 H 0.50691 0.26953 0.0465 0.0
H2085 H 0.4851 0.30227 0.06281 0.0
H2086 H 0.42137 0.28726 0.07522 0.0
H2087 H 0.44176 0.29361 0.0658 0.0
C2088 C 0.07577 0.77929 0.17922 0.0
C2089 C 0.07577 0.78018 0.19263 0.0
C2090 C 0.07075 0.76849 0.17315 0.0
C2091 C 0.05974 0.7351 0.1788 0.0
H2092 H 0.03602 0.74262 0.15134 0.0
C2093 C 0.01858 0.70144 0.1646 0.0
C2094 C 0.01532 0.70035 0.15161 0.0
C2095 C 0.02793 0.71012 0.16853 0.0
C2096 C 0.04277 0.74029 0.15883 0.0
H2097 H 0.07115 0.77012 0.21017 0.0
H2098 H 0.06229 0.75144 0.19962 0.0
H2099 H 0.04926 0.75962 0.16005 0.0
H2100 H 0.01961 0.70724 0.13253 0.0
H2101 H 0.03595 0.7224 0.13942 0.0
H2102 H 0.05289 0.71583 0.17783 0.0
C2103 C 0.06625 0.759 0.19376 0.0
C2104 C 0.0504 0.75005 0.16382 0.0
C2105 C 0.07126 0.76977 0.19982 0.0
C2106 C 0.02185 0.70789 0.14261 0.0
C2107 C 0.03118 0.71661 0.14656 0.0
C2108 C 0.05209 0.72534 0.17382 0.0
C2109 C 0.06565 0.75835 0.18035 0.0
C2110 C 0.05878 0.74763 0.17404 0.0
C2111 C 0.03422 0.71793 0.15958 0.0
C2112 C 0.04333 0.72789 0.16395 0.0
H2113 H 0.07924 0.78712 0.1734 0.0
H2114 H 0.07061 0.7682 0.1628 0.0
H2115 H 0.06626 0.73287 0.18652 0.0
H2116 H 0.01376 0.69576 0.17178 0.0
H2117 H 0.02993 0.71101 0.17865 0.0
C2118 C 0.47704 0.81749 0.45828 0.0
C2119 C 0.46487 0.81308 0.45468 0.0
C2120 C 0.48799 0.81308 0.45201 0.0
C2121 C 0.49916 0.78548 0.43325 0.0
H2122 H 0.52863 0.80688 0.4264 0.0
C2123 C 0.54307 0.76642 0.40616 0.0
C2124 C 0.55513 0.76959 0.41116 0.0
C2125 C 0.53205 0.77241 0.41071 0.0
C2126 C 0.52051 0.80077 0.42835 0.0
H2127 H 0.45461 0.80104 0.44127 0.0
H2128 H 0.47367 0.79351 0.43023 0.0
H2129 H 0.5093 0.81637 0.43545 0.0
H2130 H 0.56508 0.78172 0.42472 0.0
H2131 H 0.54579 0.79211 0.43273 0.0
H2132 H 0.51035 0.76987 0.42627 0.0
C2133 C 0.47478 0.80017 0.43808 0.0
C2134 C 0.50944 0.8062 0.43353 0.0
C2135 C 0.46385 0.80455 0.44436 0.0
C2136 C 0.55593 0.77905 0.42066 0.0
C2137 C 0.54489 0.78507 0.4252 0.0
C2138 C 0.5102 0.78007 0.42807 0.0
C2139 C 0.487 0.80417 0.44199 0.0
C2140 C 0.49865 0.7986 0.43607 0.0
C2141 C 0.53281 0.78173 0.42035 0.0
C2142 C 0.52101 0.78763 0.42559 0.0
H2143 H 0.47815 0.82407 0.4662 0.0
H2144 H 0.49725 0.81628 0.45534 0.0
H2145 H 0.49113 0.77929 0.43533 0.0
H2146 H 0.54211 0.75922 0.39878 0.0
H2147 H 0.52291 0.76975 0.40664 0.0
C2148 C 0.55897 0.28927 0.68412 0.0
C2149 C 0.55823 0.29287 0.69704 0.0
C2150 C 0.55447 0.27733 0.68015 0.0
C2151 C 0.54382 0.24548 0.692 0.0
H2152 H 0.52166 0.24641 0.6623 0.0
C2153 C 0.50448 0.20812 0.68267 0.0
C2154 C 0.50215 0.20424 0.67002 0.0
C2155 C 0.51329 0.2178 0.68528 0.0
C2156 C 0.52799 0.24591 0.67048 0.0
H2157 H 0.55282 0.28649 0.71602 0.0
H2158 H 0.54487 0.26581 0.7091 0.0
H2159 H 0.53397 0.26528 0.66805 0.0
H2160 H 0.50753 0.20726 0.65022 0.0
H2161 H 0.52292 0.22418 0.65481 0.0
H2162 H 0.53746 0.2262 0.69464 0.0
C2163 C 0.54901 0.27212 0.70202 0.0
C2164 C 0.53508 0.25673 0.67377 0.0
C2165 C 0.5535 0.28404 0.70598 0.0
C2166 C 0.50905 0.21006 0.66007 0.0
C2167 C 0.51784 0.21979 0.66268 0.0
C2168 C 0.53669 0.23466 0.68872 0.0
C2169 C 0.54916 0.26873 0.68902 0.0
C2170 C 0.54288 0.25673 0.68471 0.0
C2171 C 0.51995 0.22386 0.67531 0.0
C2172 C 0.52852 0.23484 0.67807 0.0
H2173 H 0.56263 0.29583 0.677 0.0
H2174 H 0.55492 0.27492 0.67009 0.0
H2175 H 0.5499 0.24509 0.70036 0.0
H2176 H 0.49934 0.20382 0.69057 0.0
H2177 H 0.51458 0.22082 0.6951 0.0
C2178 C 0.95685 0.26285 0.95683 0.0
C2179 C 0.95365 0.27526 0.96084 0.0
C2180 C 0.96919 0.26005 0.95262 0.0
C2181 C 0.99869 0.27468 0.94006 0.0
H2182 H 0.0139 0.24263 0.9508 0.0
C2183 C 0.05116 0.26119 0.92864 0.0
C2184 C 0.05331 0.24858 0.92454 0.0
C2185 C 0.03924 0.26482 0.93347 0.0
C2186 C 0.00975 0.25156 0.94763 0.0
H2187 H 0.96087 0.29451 0.96341 0.0
H2188 H 0.98252 0.28958 0.95611 0.0
H2189 H 0.99266 0.24839 0.95837 0.0
H2190 H 0.04462 0.22987 0.92235 0.0
H2191 H 0.02385 0.23622 0.9307 0.0
H2192 H 0.0158 0.2778 0.92926 0.0
C2193 C 0.97541 0.28205 0.95614 0.0
C2194 C 0.99757 0.25487 0.95195 0.0
C2195 C 0.96304 0.28486 0.96037 0.0
C2196 C 0.04331 0.23966 0.92545 0.0
C2197 C 0.03141 0.24328 0.93031 0.0
C2198 C 0.0109 0.27137 0.93573 0.0
C2199 C 0.97865 0.26957 0.95233 0.0
C2200 C 0.99183 0.26639 0.94812 0.0
C2201 C 0.02923 0.2559 0.93435 0.0
C2202 C 0.01651 0.25972 0.93937 0.0
H2203 H 0.94984 0.25524 0.95699 0.0
H2204 H 0.97129 0.2504 0.94952 0.0
H2205 H 0.99448 0.28356 0.93683 0.0
H2206 H 0.05868 0.26829 0.92808 0.0
H2207 H 0.0379 0.27458 0.93664 0.0
C2208 C 0.2754 0.00922 0.29523 0.0
C2209 C 0.27725 0.99619 0.2979 0.0
C2210 C 0.27403 0.01343 0.28263 0.0
C2211 C 0.26787 0.00266 0.24939 0.0
H2212 H 0.28986 0.0311 0.24039 0.0
C2213 C 0.28492 0.01241 0.19791 0.0
C2214 C 0.28702 0.02509 0.19405 0.0
C2215 C 0.28125 0.00965 0.21045 0.0
C2216 C 0.28345 0.02332 0.24274 0.0
H2217 H 0.27845 0.97728 0.28947 0.0
H2218 H 0.27614 0.98463 0.26751 0.0
H2219 H 0.28766 0.0249 0.26266 0.0
H2220 H 0.28619 0.0449 0.20013 0.0
H2221 H 0.27957 0.04009 0.22195 0.0
H2222 H 0.26389 0.00092 0.22939 0.0
C2223 C 0.27568 0.9916 0.27515 0.0
C2224 C 0.2822 0.01975 0.25553 0.0
C2225 C 0.27709 0.9874 0.28774 0.0
C2226 C 0.28478 0.035 0.20283 0.0
C2227 C 0.28105 0.03225 0.21536 0.0
C2228 C 0.26909 0.00626 0.23657 0.0
C2229 C 0.27443 0.00469 0.27243 0.0
C2230 C 0.27458 0.00925 0.25899 0.0
C2231 C 0.27952 0.01952 0.2194 0.0
C2232 C 0.27708 0.01649 0.23307 0.0
H2233 H 0.27539 0.01624 0.30284 0.0
H2234 H 0.2729 0.02356 0.28084 0.0
H2235 H 0.26179 0.99463 0.25178 0.0
H2236 H 0.28655 0.00454 0.19138 0.0
H2237 H 0.2803 -0.00027 0.21325 0.0
C2238 C 0.26902 0.03784 0.54511 0.0
C2239 C 0.28083 0.03948 0.55129 0.0
C2240 C 0.26739 0.04172 0.53245 0.0
C2241 C 0.28044 0.06334 0.50799 0.0
H2242 H 0.26044 0.04227 0.48497 0.0
C2243 C 0.27319 0.07623 0.45468 0.0
C2244 C 0.26071 0.07485 0.4499 0.0
C2245 C 0.27642 0.07143 0.46673 0.0
C2246 C 0.26596 0.04831 0.49131 0.0
H2247 H 0.30022 0.04647 0.54901 0.0
H2248 H 0.29737 0.05319 0.52681 0.0
H2249 H 0.26481 0.03478 0.50658 0.0
H2250 H 0.24186 0.06722 0.45398 0.0
H2251 H 0.24746 0.05893 0.47499 0.0
H2252 H 0.28148 0.07693 0.49273 0.0
C2253 C 0.28935 0.04899 0.53183 0.0
C2254 C 0.26847 0.04402 0.50369 0.0
C2255 C 0.29099 0.04509 0.54452 0.0
C2256 C 0.25156 0.06844 0.45737 0.0
C2257 C 0.2548 0.06361 0.46938 0.0
C2258 C 0.27794 0.06764 0.49559 0.0
C2259 C 0.27752 0.04732 0.52565 0.0
C2260 C 0.2756 0.05155 0.51223 0.0
C2261 C 0.26725 0.06509 0.47423 0.0
C2262 C 0.27053 0.06024 0.48716 0.0
H2263 H 0.26097 0.0336 0.55004 0.0
H2264 H 0.25809 0.04049 0.52806 0.0
H2265 H 0.28584 0.06944 0.51438 0.0
H2266 H 0.28048 0.08109 0.44916 0.0
H2267 H 0.28612 0.0726 0.47013 0.0
C2268 C 0.22188 0.99277 0.8049 0.0
C2269 C 0.21561 0.00449 0.80682 0.0
C2270 C 0.22352 0.98791 0.79256 0.0
C2271 C 0.22216 0.99615 0.75811 0.0
H2272 H 0.21056 0.96118 0.75426 0.0
C2273 C 0.20416 0.97568 0.71029 0.0
C2274 C 0.20596 0.96263 0.70767 0.0
C2275 C 0.20805 0.98085 0.72197 0.0
C2276 C 0.2141 0.97086 0.75514 0.0
H2277 H 0.2068 0.02065 0.79726 0.0
H2278 H 0.20963 0.01214 0.77577 0.0
H2279 H 0.2128 0.97024 0.77552 0.0
H2280 H 0.21393 0.94494 0.71495 0.0
H2281 H 0.22095 0.95402 0.73523 0.0
H2282 H 0.22321 0.99684 0.73769 0.0
C2283 C 0.21332 0.00672 0.78378 0.0
C2284 C 0.21537 0.97606 0.76736 0.0
C2285 C 0.21162 0.01156 0.79611 0.0
C2286 C 0.21228 0.955 0.71673 0.0
C2287 C 0.21625 0.96019 0.72838 0.0
C2288 C 0.22095 0.99092 0.74587 0.0
C2289 C 0.219 0.9947 0.7819 0.0
C2290 C 0.21917 0.98884 0.76898 0.0
C2291 C 0.21391 0.97311 0.73127 0.0
C2292 C 0.21665 0.97828 0.74423 0.0
H2293 H 0.22514 0.98712 0.81294 0.0
H2294 H 0.22808 0.97869 0.79139 0.0
H2295 H 0.22526 0.00598 0.75908 0.0
H2296 H 0.19933 0.98183 0.70352 0.0
H2297 H 0.20596 0.99079 0.7239 0.0
C2298 C 0.19844 0.93724 0.04071 0.0
C2299 C 0.20598 0.94537 0.04829 0.0
C2300 C 0.20197 0.93455 0.02808 0.0
C2301 C 0.22232 0.94647 0.00161 0.0
H2302 H 0.22096 0.91146 0.9896 0.0
C2303 C 0.24999 0.92944 0.9572 0.0
C2304 C 0.2439 0.92082 0.94889 0.0
C2305 C 0.24435 0.93275 0.96884 0.0
C2306 C 0.22123 0.92131 0.99274 0.0
H2307 H 0.22309 0.95712 0.04852 0.0
H2308 H 0.22926 0.95234 0.02667 0.0
H2309 H 0.21271 0.91671 0.01078 0.0
H2310 H 0.22706 0.90901 0.94626 0.0
H2311 H 0.21723 0.91483 0.96659 0.0
H2312 H 0.23103 0.95104 0.98368 0.0
C2313 C 0.22053 0.94817 0.03036 0.0
C2314 C 0.21649 0.92432 0.00487 0.0
C2315 C 0.21703 0.95084 0.04295 0.0
C2316 C 0.23202 0.91565 0.95245 0.0
C2317 C 0.22641 0.91893 0.96413 0.0
C2318 C 0.22707 0.94346 0.98951 0.0
C2319 C 0.21308 0.93997 0.02278 0.0
C2320 C 0.21716 0.93691 0.00952 0.0
C2321 C 0.23252 0.9275 0.97246 0.0
C2322 C 0.22675 0.93082 0.985 0.0
H2323 H 0.18986 0.9329 0.04454 0.0
H2324 H 0.19597 0.92828 0.02244 0.0
H2325 H 0.22275 0.95631 0.00481 0.0
H2326 H 0.25915 0.93359 0.95476 0.0
H2327 H 0.2494 0.93925 0.97513 0.0
C2328 C 0.20704 0.29167 0.04945 0.0
C2329 C 0.20196 0.28252 0.04102 0.0
C2330 C 0.2199 0.29526 0.04861 0.0
C2331 C 0.25114 0.2856 0.03464 0.0
H2332 H 0.2583 0.32194 0.03546 0.0
C2333 C 0.29661 0.30761 0.01274 0.0
C2334 C 0.30256 0.31774 0.01925 0.0
C2335 C 0.28495 0.30271 0.01703 0.0
C2336 C 0.25651 0.31175 0.0354 0.0
H2337 H 0.20652 0.26968 0.02539 0.0
H2338 H 0.22879 0.27603 0.02383 0.0
H2339 H 0.23683 0.31433 0.04031 0.0
H2340 H 0.30104 0.3305 0.03552 0.0
H2341 H 0.28066 0.32194 0.04299 0.0
H2342 H 0.27076 0.28307 0.02938 0.0
C2343 C 0.22293 0.28034 0.03119 0.0
C2344 C 0.2442 0.30738 0.03821 0.0
C2345 C 0.21011 0.27676 0.03203 0.0
C2346 C 0.29669 0.32273 0.03026 0.0
C2347 C 0.28499 0.31786 0.03451 0.0
C2348 C 0.26343 0.28998 0.0318 0.0
C2349 C 0.22794 0.28976 0.03935 0.0
C2350 C 0.24131 0.29427 0.03764 0.0
C2351 C 0.27895 0.30786 0.02789 0.0
C2352 C 0.2662 0.30311 0.03195 0.0
H2353 H 0.20102 0.29625 0.05652 0.0
H2354 H 0.22351 0.30243 0.05515 0.0
H2355 H 0.24929 0.27542 0.03434 0.0
H2356 H 0.30087 0.30354 0.00423 0.0
H2357 H 0.28047 0.29511 0.01162 0.0
C2358 C 0.7191 0.20785 0.92241 0.0
C2359 C 0.71035 0.19936 0.91678 0.0
C2360 C 0.72973 0.20325 0.92903 0.0
C2361 C 0.74014 0.17488 0.94682 0.0
H2362 H 0.77251 0.19289 0.94804 0.0
C2363 C 0.78107 0.15899 0.98025 0.0
C2364 C 0.7868 0.16883 0.98738 0.0
C2365 C 0.77295 0.16186 0.97003 0.0
C2366 C 0.76351 0.18778 0.94782 0.0
H2367 H 0.70627 0.17936 0.91311 0.0
H2368 H 0.72495 0.17133 0.92456 0.0
H2369 H 0.75631 0.19931 0.93254 0.0
H2370 H 0.78877 0.1894 0.98915 0.0
H2371 H 0.77457 0.19438 0.9714 0.0
H2372 H 0.74723 0.16353 0.96227 0.0
C2373 C 0.72345 0.18155 0.92403 0.0
C2374 C 0.75423 0.19146 0.93894 0.0
C2375 C 0.7128 0.18616 0.9174 0.0
C2376 C 0.7845 0.18159 0.98387 0.0
C2377 C 0.77642 0.18445 0.97363 0.0
C2378 C 0.74943 0.17119 0.95567 0.0
C2379 C 0.73189 0.19004 0.93016 0.0
C2380 C 0.74234 0.18521 0.93851 0.0
C2381 C 0.77044 0.17463 0.96668 0.0
C2382 C 0.76112 0.17776 0.95644 0.0
H2383 H 0.71752 0.21807 0.9221 0.0
H2384 H 0.73594 0.21006 0.93374 0.0
H2385 H 0.73102 0.16998 0.94689 0.0
H2386 H 0.78268 0.14906 0.98267 0.0
H2387 H 0.76859 0.15408 0.96478 0.0
C2388 C 0.06069 0.44365 0.24785 0.0
C2389 C 0.06346 0.44188 0.23482 0.0
C2390 C 0.05587 0.45531 0.25224 0.0
C2391 C 0.03976 0.48482 0.24138 0.0
H2392 H 0.05489 0.49993 0.27166 0.0
C2393 C 0.0338 0.53799 0.25327 0.0
C2394 C 0.03174 0.54151 0.26606 0.0
C2395 C 0.03695 0.52543 0.25011 0.0
C2396 C 0.05043 0.49576 0.2633 0.0
H2397 H 0.0631 0.45089 0.21614 0.0
H2398 H 0.05475 0.47121 0.2238 0.0
H2399 H 0.06142 0.47858 0.26492 0.0
H2400 H 0.03146 0.5346 0.28561 0.0
H2401 H 0.03693 0.51256 0.28005 0.0
H2402 H 0.02888 0.50203 0.23966 0.0
C2403 C 0.05621 0.46356 0.23062 0.0
C2404 C 0.05417 0.48353 0.25944 0.0
C2405 C 0.06106 0.45193 0.22624 0.0
C2406 C 0.033 0.53219 0.27566 0.0
C2407 C 0.03618 0.51959 0.27248 0.0
C2408 C 0.03602 0.49702 0.24524 0.0
C2409 C 0.05365 0.46542 0.24368 0.0
C2410 C 0.04901 0.478 0.24832 0.0
C2411 C 0.03812 0.51606 0.25965 0.0
C2412 C 0.04146 0.50272 0.25613 0.0
H2413 H 0.06239 0.43608 0.25471 0.0
H2414 H 0.05385 0.45641 0.26233 0.0
H2415 H 0.03543 0.48073 0.23291 0.0
H2416 H 0.03297 0.54493 0.24564 0.0
H2417 H 0.03862 0.5231 0.24016 0.0
C2418 C 0.71473 0.77231 0.53134 0.0
C2419 C 0.70559 0.7801 0.53734 0.0
C2420 C 0.72758 0.77589 0.53105 0.0
C2421 C 0.74767 0.80464 0.53252 0.0
H2422 H 0.77534 0.78 0.53315 0.0
C2423 C 0.80025 0.8197 0.5254 0.0
C2424 C 0.80723 0.81228 0.51664 0.0
C2425 C 0.78837 0.81553 0.52989 0.0
C2426 C 0.76771 0.78698 0.53292 0.0
H2427 H 0.70288 0.79749 0.54831 0.0
H2428 H 0.72538 0.80366 0.54795 0.0
H2429 H 0.75359 0.77306 0.53795 0.0
H2430 H 0.80736 0.79449 0.506 0.0
H2431 H 0.78663 0.78726 0.51377 0.0
H2432 H 0.76174 0.81852 0.52727 0.0
C2433 C 0.72255 0.79488 0.54326 0.0
C2434 C 0.75525 0.78301 0.53566 0.0
C2435 C 0.70967 0.7913 0.54353 0.0
C2436 C 0.80223 0.80045 0.51272 0.0
C2437 C 0.79038 0.79626 0.51725 0.0
C2438 C 0.76013 0.80861 0.52982 0.0
C2439 C 0.73162 0.78734 0.5368 0.0
C2440 C 0.74504 0.79175 0.53526 0.0
C2441 C 0.78325 0.80383 0.52576 0.0
C2442 C 0.77025 0.79979 0.52977 0.0
H2443 H 0.71192 0.76361 0.52649 0.0
H2444 H 0.73425 0.76992 0.52586 0.0
H2445 H 0.74002 0.8116 0.53193 0.0
H2446 H 0.80385 0.82884 0.52866 0.0
H2447 H 0.78317 0.82151 0.53655 0.0
C2448 C 0.92829 0.95299 0.29163 0.0
C2449 C 0.93138 0.94275 0.28351 0.0
C2450 C 0.92404 0.9646 0.28656 0.0
C2451 C 0.91276 0.9803 0.2565 0.0
H2452 H 0.92967 0.00997 0.27085 0.0
C2453 C 0.92266 0.02673 0.22849 0.0
C2454 C 0.92235 0.03842 0.2351 0.0
C2455 C 0.92052 0.01524 0.23496 0.0
C2456 C 0.92465 0.00185 0.26686 0.0
H2457 H 0.93183 0.93647 0.26375 0.0
H2458 H 0.92474 0.95672 0.25493 0.0
H2459 H 0.93176 0.98941 0.28139 0.0
H2460 H 0.91865 0.04727 0.2535 0.0
H2461 H 0.91489 0.02722 0.26474 0.0
H2462 H 0.90615 0.99275 0.24163 0.0
C2463 C 0.92539 0.95579 0.26521 0.0
C2464 C 0.92583 0.99003 0.27293 0.0
C2465 C 0.92956 0.94417 0.27028 0.0
C2466 C 0.91909 0.03843 0.24814 0.0
C2467 C 0.91698 0.02694 0.25461 0.0
C2468 C 0.91164 0.99214 0.25039 0.0
C2469 C 0.92286 0.96625 0.27326 0.0
C2470 C 0.92013 0.97905 0.26769 0.0
C2471 C 0.91803 0.01521 0.24817 0.0
C2472 C 0.91779 0.00298 0.25537 0.0
H2473 H 0.92948 0.95216 0.30188 0.0
H2474 H 0.92196 0.97239 0.29305 0.0
H2475 H 0.90806 0.97209 0.25233 0.0
H2476 H 0.9251 0.0264 0.21844 0.0
H2477 H 0.92148 0.00636 0.22974 0.0
C2478 C 0.28079 0.68924 0.55111 0.0
C2479 C 0.27958 0.69906 0.56018 0.0
C2480 C 0.27006 0.68457 0.54469 0.0
C2481 C 0.23457 0.68387 0.54503 0.0
H2482 H 0.23867 0.67953 0.50845 0.0
C2483 C 0.19183 0.67924 0.51012 0.0
C2484 C 0.19306 0.67057 0.49993 0.0
C2485 C 0.20221 0.68178 0.51816 0.0
C2486 C 0.23738 0.68052 0.51868 0.0
H2487 H 0.26604 0.71129 0.57004 0.0
H2488 H 0.24733 0.70324 0.55874 0.0
H2489 H 0.25704 0.68531 0.52145 0.0
H2490 H 0.20608 0.65755 0.49039 0.0
H2491 H 0.2241 0.66191 0.50445 0.0
H2492 H 0.21482 0.67924 0.54216 0.0
C2493 C 0.25657 0.69907 0.55665 0.0
C2494 C 0.24793 0.68382 0.52615 0.0
C2495 C 0.26732 0.70373 0.5631 0.0
C2496 C 0.20482 0.66434 0.4981 0.0
C2497 C 0.21518 0.66688 0.50612 0.0
C2498 C 0.22399 0.68057 0.53754 0.0
C2499 C 0.25785 0.68962 0.54718 0.0
C2500 C 0.24666 0.68558 0.53941 0.0
C2501 C 0.21404 0.67572 0.51618 0.0
C2502 C 0.22528 0.6789 0.52427 0.0
H2503 H 0.29008 0.68535 0.54871 0.0
H2504 H 0.27135 0.67711 0.53763 0.0
H2505 H 0.23329 0.68502 0.55524 0.0
H2506 H 0.18291 0.6842 0.5118 0.0
H2507 H 0.20105 0.68874 0.52574 0.0
C2508 C 0.47282 0.4505 0.76296 0.0
C2509 C 0.46725 0.44719 0.77472 0.0
C2510 C 0.47561 0.46326 0.76013 0.0
C2511 C 0.4792 0.49551 0.77451 0.0
H2512 H 0.46753 0.50717 0.74134 0.0
C2513 C 0.46797 0.54829 0.76338 0.0
C2514 C 0.4704 0.55295 0.75101 0.0
C2515 C 0.46999 0.53542 0.76629 0.0
C2516 C 0.47108 0.50407 0.75055 0.0
H2517 H 0.46076 0.45461 0.79297 0.0
H2518 H 0.46549 0.47683 0.78799 0.0
H2519 H 0.46689 0.48451 0.74641 0.0
H2520 H 0.47746 0.54787 0.73219 0.0
H2521 H 0.48112 0.52544 0.73732 0.0
H2522 H 0.4831 0.51515 0.77874 0.0
C2523 C 0.46781 0.46958 0.78098 0.0
C2524 C 0.4707 0.49105 0.75346 0.0
C2525 C 0.46502 0.45684 0.7838 0.0
C2526 C 0.47539 0.54457 0.74178 0.0
C2527 C 0.47743 0.5317 0.7447 0.0
C2528 C 0.47959 0.50854 0.77159 0.0
C2529 C 0.47291 0.47297 0.76902 0.0
C2530 C 0.47456 0.48664 0.76555 0.0
C2531 C 0.47451 0.52691 0.75692 0.0
C2532 C 0.47533 0.51299 0.75965 0.0
H2533 H 0.47475 0.44329 0.75578 0.0
H2534 H 0.4797 0.46554 0.7509 0.0
H2535 H 0.48241 0.49239 0.78385 0.0
H2536 H 0.46413 0.55449 0.77072 0.0
H2537 H 0.46751 0.53204 0.77575 0.0
C2538 C 0.8135 0.50063 0.79805 0.0
C2539 C 0.82105 0.48961 0.79659 0.0
C2540 C 0.80864 0.50699 0.78735 0.0
C2541 C 0.80119 0.50211 0.75317 0.0
H2542 H 0.80152 0.53914 0.75165 0.0
C2543 C 0.78944 0.52896 0.70679 0.0
C2544 C 0.78125 0.53956 0.70773 0.0
C2545 C 0.7946 0.52337 0.71774 0.0
C2546 C 0.80125 0.5288 0.75199 0.0
H2547 H 0.82942 0.47665 0.78272 0.0
H2548 H 0.82105 0.4878 0.76411 0.0
H2549 H 0.80972 0.52828 0.77062 0.0
H2550 H 0.77237 0.55286 0.72093 0.0
H2551 H 0.78137 0.54303 0.74011 0.0
H2552 H 0.79276 0.5026 0.73457 0.0
C2553 C 0.81874 0.49144 0.77352 0.0
C2554 C 0.80593 0.52258 0.76286 0.0
C2555 C 0.8236 0.48508 0.7842 0.0
C2556 C 0.77865 0.5447 0.71988 0.0
C2557 C 0.78384 0.5391 0.73086 0.0
C2558 C 0.79654 0.50832 0.74232 0.0
C2559 C 0.8112 0.50246 0.77495 0.0
C2560 C 0.80601 0.50915 0.76354 0.0
C2561 C 0.7917 0.52824 0.72992 0.0
C2562 C 0.79658 0.52174 0.74156 0.0
H2563 H 0.81134 0.50435 0.80746 0.0
H2564 H 0.80273 0.51537 0.78879 0.0
H2565 H 0.80088 0.49177 0.75348 0.0
H2566 H 0.79171 0.52481 0.69758 0.0
H2567 H 0.80082 0.51517 0.71667 0.0
C2568 C 0.72342 0.52366 0.95717 0.0
C2569 C 0.71398 0.52771 0.94853 0.0
C2570 C 0.72295 0.52736 0.96997 0.0
C2571 C 0.7101 0.55234 0.99103 0.0
H2572 H 0.72009 0.52877 0.01784 0.0
C2573 C 0.71039 0.56669 0.04446 0.0
C2574 C 0.72123 0.56295 0.05146 0.0
C2575 C 0.70823 0.56186 0.03218 0.0
C2576 C 0.71735 0.53549 0.01045 0.0
H2577 H 0.69649 0.53867 0.9466 0.0
H2578 H 0.69563 0.5451 0.96905 0.0
H2579 H 0.71842 0.5212 0.99586 0.0
H2580 H 0.73822 0.55106 0.05111 0.0
H2581 H 0.73451 0.54274 0.02971 0.0
H2582 H 0.70922 0.56667 0.00561 0.0
C2583 C 0.70347 0.53915 0.96586 0.0
C2584 C 0.71639 0.53115 0.99786 0.0
C2585 C 0.70393 0.53541 0.95302 0.0
C2586 C 0.72977 0.55414 0.04599 0.0
C2587 C 0.7276 0.5493 0.03374 0.0
C2588 C 0.71105 0.55668 0.00363 0.0
C2589 C 0.71302 0.53521 0.97446 0.0
C2590 C 0.71295 0.53957 0.98798 0.0
C2591 C 0.71685 0.55315 0.02667 0.0
C2592 C 0.71488 0.54834 0.01345 0.0
H2593 H 0.73131 0.51774 0.95404 0.0
H2594 H 0.73056 0.52432 0.97629 0.0
H2595 H 0.70757 0.5591 0.98362 0.0
H2596 H 0.7036 0.57344 0.04841 0.0
H2597 H 0.69979 0.56492 0.02702 0.0
C2598 C 0.70615 0.49014 0.29795 0.0
C2599 C 0.70552 0.50268 0.30271 0.0
C2600 C 0.70728 0.48791 0.28482 0.0
C2601 C 0.70031 0.50323 0.25397 0.0
H2602 H 0.72 0.47501 0.2402 0.0
C2603 C 0.70164 0.49255 0.19991 0.0
C2604 C 0.69978 0.47968 0.19653 0.0
C2605 C 0.70415 0.49594 0.21259 0.0
C2606 C 0.71442 0.4829 0.24391 0.0
H2607 H 0.7061 0.52273 0.29746 0.0
H2608 H 0.70821 0.51884 0.27458 0.0
H2609 H 0.72123 0.47992 0.26298 0.0
H2610 H 0.69951 0.46025 0.20377 0.0
H2611 H 0.70379 0.46617 0.22585 0.0
H2612 H 0.69331 0.50607 0.23498 0.0
C2613 C 0.70761 0.51072 0.28098 0.0
C2614 C 0.71512 0.48571 0.25696 0.0
C2615 C 0.70646 0.51295 0.2941 0.0
C2616 C 0.70088 0.47025 0.20604 0.0
C2617 C 0.70342 0.47364 0.2187 0.0
C2618 C 0.69963 0.50044 0.24093 0.0
C2619 C 0.70783 0.49818 0.27617 0.0
C2620 C 0.70793 0.49579 0.26217 0.0
C2621 C 0.7049 0.48653 0.22215 0.0
C2622 C 0.70653 0.49013 0.23579 0.0
H2623 H 0.70545 0.48201 0.30431 0.0
H2624 H 0.70728 0.47814 0.28144 0.0
H2625 H 0.6945 0.51094 0.25769 0.0
H2626 H 0.70092 0.50004 0.1928 0.0
H2627 H 0.70541 0.50594 0.21492 0.0
C2628 C 0.73344 0.40111 0.53577 0.0
C2629 C 0.72067 0.40489 0.53396 0.0
C2630 C 0.74097 0.39744 0.52537 0.0
C2631 C 0.74013 0.38823 0.4911 0.0
H2632 H 0.77259 0.40606 0.48971 0.0
C2633 C 0.76627 0.39935 0.44405 0.0
C2634 C 0.77967 0.40035 0.44397 0.0
C2635 C 0.75972 0.39672 0.45537 0.0
C2636 C 0.76371 0.40074 0.49001 0.0
H2637 H 0.70558 0.40699 0.51989 0.0
H2638 H 0.71875 0.40063 0.50175 0.0
H2639 H 0.75977 0.40706 0.50903 0.0
H2640 H 0.79675 0.39846 0.45557 0.0
H2641 H 0.7853 0.39363 0.47532 0.0
H2642 H 0.74396 0.38217 0.47193 0.0
C2643 C 0.72293 0.40047 0.51122 0.0
C2644 C 0.75633 0.40134 0.50112 0.0
C2645 C 0.71539 0.40418 0.52162 0.0
C2646 C 0.78641 0.39788 0.45533 0.0
C2647 C 0.77985 0.39519 0.46666 0.0
C2648 C 0.74755 0.38757 0.48 0.0
C2649 C 0.7359 0.3974 0.51294 0.0
C2650 C 0.74433 0.39533 0.5017 0.0
C2651 C 0.7664 0.39495 0.4669 0.0
C2652 C 0.7593 0.39408 0.47921 0.0
H2653 H 0.73778 0.40144 0.54516 0.0
H2654 H 0.75088 0.39493 0.52703 0.0
H2655 H 0.731 0.38335 0.49133 0.0
H2656 H 0.76077 0.40116 0.43547 0.0
H2657 H 0.74937 0.39675 0.45519 0.0
C2658 C 0.56159 0.95566 0.75103 0.0
C2659 C 0.57458 0.9528 0.74916 0.0
C2660 C 0.55795 0.96608 0.75854 0.0
C2661 C 0.56982 0.99715 0.76954 0.0
H2662 H 0.54005 0.99612 0.7916 0.0
C2663 C 0.5523 0.04222 0.79581 0.0
C2664 C 0.53909 0.04455 0.79493 0.0
C2665 C 0.55731 0.03029 0.79246 0.0
C2666 C 0.54836 0.99658 0.78545 0.0
H2667 H 0.59394 0.95845 0.75402 0.0
H2668 H 0.58756 0.97664 0.76713 0.0
H2669 H 0.54757 0.97652 0.78145 0.0
H2670 H 0.52075 0.036 0.79042 0.0
H2671 H 0.52948 0.01534 0.78442 0.0
H2672 H 0.57041 0.01723 0.7732 0.0
C2673 C 0.5802 0.97088 0.76268 0.0
C2674 C 0.55266 0.98535 0.77963 0.0
C2675 C 0.58385 0.96042 0.75521 0.0
C2676 C 0.53097 0.03454 0.79118 0.0
C2677 C 0.53597 0.02264 0.78782 0.0
C2678 C 0.5655 0.00837 0.77533 0.0
C2679 C 0.56721 0.97391 0.76432 0.0
C2680 C 0.56331 0.98555 0.77144 0.0
C2681 C 0.54923 0.02045 0.78816 0.0
C2682 C 0.55458 0.00827 0.78317 0.0
H2683 H 0.5542 0.94997 0.74653 0.0
H2684 H 0.54787 0.96825 0.75948 0.0
H2685 H 0.57795 0.99766 0.76316 0.0
H2686 H 0.55881 0.04971 0.79874 0.0
H2687 H 0.56755 0.02885 0.79302 0.0
loop_
_geom_bond_atom_site_label_1
_geom_bond_atom_site_label_2
_geom_bond_distance
_geom_bond_site_symmetry_2
_ccdc_geom_bond_type
O0 Cd1 2.300 . S
O0 C7 1.275 . S
Cd1 O0 2.300 . S
Cd1 O9 2.381 . S
Cd1 O10 2.378 . S
O2 Cd3 2.385 . S
O2 C7 1.255 . S
Cd3 O2 2.385 . S
Cd3 O4 2.317 . S
O4 Cd3 2.317 . S
O4 C5 1.232 . S
C5 O4 1.232 . S
C5 O6 1.218 . S
O6 C5 1.218 . S
C7 O0 1.275 . S
C7 O2 1.255 . S
C8 O9 1.258 . S
C8 O10 1.256 . S
O9 Cd1 2.381 . S
O9 C8 1.258 . S
O10 Cd1 2.378 . S
O10 C8 1.256 . S
O11 Cd12 2.300 . S
O11 C18 1.275 . S
Cd12 O11 2.300 . S
Cd12 O20 2.381 . S
Cd12 O21 2.378 . S
O13 Cd14 2.385 . S
O13 C18 1.255 . S
Cd14 O13 2.385 . S
Cd14 O15 2.317 . S
O15 Cd14 2.317 . S
O15 C16 1.232 . S
C16 O15 1.232 . S
C16 O17 1.218 . S
O17 C16 1.218 . S
C18 O11 1.275 . S
C18 O13 1.255 . S
C19 O20 1.258 . S
C19 O21 1.256 . S
O20 Cd12 2.381 . S
O20 C19 1.258 . S
O21 Cd12 2.378 . S
O21 C19 1.256 . S
O22 Cd23 2.300 . S
O22 C29 1.275 . S
Cd23 O22 2.300 . S
Cd23 O31 2.381 . S
Cd23 O32 2.378 . S
O24 Cd25 2.385 . S
O24 C29 1.255 . S
Cd25 O24 2.385 . S
Cd25 O26 2.317 . S
O26 Cd25 2.317 . S
O26 C27 1.232 . S
C27 O26 1.232 . S
C27 O28 1.218 . S
O28 C27 1.218 . S
C29 O22 1.275 . S
C29 O24 1.255 . S
C30 O31 1.258 . S
C30 O32 1.256 . S
O31 Cd23 2.381 . S
O31 C30 1.258 . S
O32 Cd23 2.378 . S
O32 C30 1.256 . S
O33 Cd34 2.300 . S
O33 C40 1.275 . S
Cd34 O33 2.300 . S
Cd34 O42 2.381 . S
Cd34 O43 2.378 . S
O35 Cd36 2.385 . S
O35 C40 1.255 . S
Cd36 O35 2.385 . S
Cd36 O37 2.317 . S
O37 Cd36 2.317 . S
O37 C38 1.232 . S
C38 O37 1.232 . S
C38 O39 1.218 . S
O39 C38 1.218 . S
C40 O33 1.275 . S
C40 O35 1.255 . S
C41 O42 1.258 . S
C41 O43 1.256 . S
O42 Cd34 2.381 . S
O42 C41 1.258 . S
O43 Cd34 2.378 . S
O43 C41 1.256 . S
O44 Cd45 2.300 . S
O44 C51 1.275 . S
Cd45 O44 2.300 . S
Cd45 O53 2.381 . S
Cd45 O54 2.378 . S
O46 Cd47 2.385 . S
O46 C51 1.255 . S
Cd47 O46 2.385 . S
Cd47 O48 2.317 . S
O48 Cd47 2.317 . S
O48 C49 1.232 . S
C49 O48 1.232 . S
C49 O50 1.218 . S
O50 C49 1.218 . S
C51 O44 1.275 . S
C51 O46 1.255 . S
C52 O53 1.258 . S
C52 O54 1.256 . S
O53 Cd45 2.381 . S
O53 C52 1.258 . S
O54 Cd45 2.378 . S
O54 C52 1.256 . S
O55 Cd56 2.300 . S
O55 C62 1.275 . S
Cd56 O55 2.300 . S
Cd56 O64 2.381 . S
Cd56 O65 2.378 . S
O57 Cd58 2.385 . S
O57 C62 1.255 . S
Cd58 O57 2.385 . S
Cd58 O59 2.317 . S
O59 Cd58 2.317 . S
O59 C60 1.232 . S
C60 O59 1.232 . S
C60 O61 1.218 . S
O61 C60 1.218 . S
C62 O55 1.275 . S
C62 O57 1.255 . S
C63 O64 1.258 . S
C63 O65 1.256 . S
O64 Cd56 2.381 . S
O64 C63 1.258 . S
O65 Cd56 2.378 . S
O65 C63 1.256 . S
O66 Cd67 2.300 . S
O66 C73 1.275 . S
Cd67 O66 2.300 . S
Cd67 O75 2.381 . S
Cd67 O76 2.378 . S
O68 Cd69 2.385 . S
O68 C73 1.255 . S
Cd69 O68 2.385 . S
Cd69 O70 2.317 . S
O70 Cd69 2.317 . S
O70 C71 1.232 . S
C71 O70 1.232 . S
C71 O72 1.218 . S
O72 C71 1.218 . S
C73 O66 1.275 . S
C73 O68 1.255 . S
C74 O75 1.258 . S
C74 O76 1.256 . S
O75 Cd67 2.381 . S
O75 C74 1.258 . S
O76 Cd67 2.378 . S
O76 C74 1.256 . S
O77 Cd78 2.300 . S
O77 C84 1.275 . S
Cd78 O77 2.300 . S
Cd78 O86 2.381 . S
Cd78 O87 2.378 . S
O79 Cd80 2.385 . S
O79 C84 1.255 . S
Cd80 O79 2.385 . S
Cd80 O81 2.317 . S
O81 Cd80 2.317 . S
O81 C82 1.232 . S
C82 O81 1.232 . S
C82 O83 1.218 . S
O83 C82 1.218 . S
C84 O77 1.275 . S
C84 O79 1.255 . S
C85 O86 1.258 . S
C85 O87 1.256 . S
O86 Cd78 2.381 . S
O86 C85 1.258 . S
O87 Cd78 2.378 . S
O87 C85 1.256 . S
O88 Cd89 2.300 . S
O88 C95 1.275 . S
Cd89 O88 2.300 . S
Cd89 O97 2.381 . S
Cd89 O98 2.378 . S
O90 Cd91 2.385 . S
O90 C95 1.255 . S
Cd91 O90 2.385 . S
Cd91 O92 2.317 . S
O92 Cd91 2.317 . S
O92 C93 1.232 . S
C93 O92 1.232 . S
C93 O94 1.218 . S
O94 C93 1.218 . S
C95 O88 1.275 . S
C95 O90 1.255 . S
C96 O97 1.258 . S
C96 O98 1.256 . S
O97 Cd89 2.381 . S
O97 C96 1.258 . S
O98 Cd89 2.378 . S
O98 C96 1.256 . S
O99 Cd100 2.300 . S
O99 C106 1.275 . S
Cd100 O99 2.300 . S
Cd100 O108 2.381 . S
Cd100 O109 2.378 . S
O101 Cd102 2.385 . S
O101 C106 1.255 . S
Cd102 O101 2.385 . S
Cd102 O103 2.317 . S
O103 Cd102 2.317 . S
O103 C104 1.232 . S
C104 O103 1.232 . S
C104 O105 1.218 . S
O105 C104 1.218 . S
C106 O99 1.275 . S
C106 O101 1.255 . S
C107 O108 1.258 . S
C107 O109 1.256 . S
O108 Cd100 2.381 . S
O108 C107 1.258 . S
O109 Cd100 2.378 . S
O109 C107 1.256 . S
O110 Cd111 2.300 . S
O110 C117 1.275 . S
Cd111 O110 2.300 . S
Cd111 O119 2.381 . S
Cd111 O120 2.378 . S
O112 Cd113 2.385 . S
O112 C117 1.255 . S
Cd113 O112 2.385 . S
Cd113 O114 2.317 . S
O114 Cd113 2.317 . S
O114 C115 1.232 . S
C115 O114 1.232 . S
C115 O116 1.218 . S
O116 C115 1.218 . S
C117 O110 1.275 . S
C117 O112 1.255 . S
C118 O119 1.258 . S
C118 O120 1.256 . S
O119 Cd111 2.381 . S
O119 C118 1.258 . S
O120 Cd111 2.378 . S
O120 C118 1.256 . S
O121 Cd122 2.300 . S
O121 C128 1.275 . S
Cd122 O121 2.300 . S
Cd122 O130 2.381 . S
Cd122 O131 2.378 . S
O123 Cd124 2.385 . S
O123 C128 1.255 . S
Cd124 O123 2.385 . S
Cd124 O125 2.317 . S
O125 Cd124 2.317 . S
O125 C126 1.232 . S
C126 O125 1.232 . S
C126 O127 1.218 . S
O127 C126 1.218 . S
C128 O121 1.275 . S
C128 O123 1.255 . S
C129 O130 1.258 . S
C129 O131 1.256 . S
O130 Cd122 2.381 . S
O130 C129 1.258 . S
O131 Cd122 2.378 . S
O131 C129 1.256 . S
O132 Cd133 2.300 . S
O132 C139 1.275 . S
Cd133 O132 2.300 . S
Cd133 O141 2.381 . S
Cd133 O142 2.378 . S
O134 Cd135 2.385 . S
O134 C139 1.255 . S
Cd135 O134 2.385 . S
Cd135 O136 2.317 . S
O136 Cd135 2.317 . S
O136 C137 1.232 . S
C137 O136 1.232 . S
C137 O138 1.218 . S
O138 C137 1.218 . S
C139 O132 1.275 . S
C139 O134 1.255 . S
C140 O141 1.258 . S
C140 O142 1.256 . S
O141 Cd133 2.381 . S
O141 C140 1.258 . S
O142 Cd133 2.378 . S
O142 C140 1.256 . S
O143 Cd144 2.300 . S
O143 C150 1.275 . S
Cd144 O143 2.300 . S
Cd144 O152 2.381 . S
Cd144 O153 2.378 . S
O145 Cd146 2.385 . S
O145 C150 1.255 . S
Cd146 O145 2.385 . S
Cd146 O147 2.317 . S
O147 Cd146 2.317 . S
O147 C148 1.232 . S
C148 O147 1.232 . S
C148 O149 1.218 . S
O149 C148 1.218 . S
C150 O143 1.275 . S
C150 O145 1.255 . S
C151 O152 1.258 . S
C151 O153 1.256 . S
O152 Cd144 2.381 . S
O152 C151 1.258 . S
O153 Cd144 2.378 . S
O153 C151 1.256 . S
O154 Cd155 2.300 . S
O154 C161 1.275 . S
Cd155 O154 2.300 . S
Cd155 O163 2.381 . S
Cd155 O164 2.378 . S
O156 Cd157 2.385 . S
O156 C161 1.255 . S
Cd157 O156 2.385 . S
Cd157 O158 2.317 . S
O158 Cd157 2.317 . S
O158 C159 1.232 . S
C159 O158 1.232 . S
C159 O160 1.218 . S
O160 C159 1.218 . S
C161 O154 1.275 . S
C161 O156 1.255 . S
C162 O163 1.258 . S
C162 O164 1.256 . S
O163 Cd155 2.381 . S
O163 C162 1.258 . S
O164 Cd155 2.378 . S
O164 C162 1.256 . S
O165 Cd166 2.300 . S
O165 C172 1.275 . S
Cd166 O165 2.300 . S
Cd166 O174 2.381 . S
Cd166 O175 2.378 . S
O167 Cd168 2.385 . S
O167 C172 1.255 . S
Cd168 O167 2.385 . S
Cd168 O169 2.317 . S
O169 Cd168 2.317 . S
O169 C170 1.232 . S
C170 O169 1.232 . S
C170 O171 1.218 . S
O171 C170 1.218 . S
C172 O165 1.275 . S
C172 O167 1.255 . S
C173 O174 1.258 . S
C173 O175 1.256 . S
O174 Cd166 2.381 . S
O174 C173 1.258 . S
O175 Cd166 2.378 . S
O175 C173 1.256 . S
O176 Cd177 2.300 . S
O176 C183 1.275 . S
Cd177 O176 2.300 . S
Cd177 O185 2.381 . S
Cd177 O186 2.378 . S
O178 Cd179 2.385 . S
O178 C183 1.255 . S
Cd179 O178 2.385 . S
Cd179 O180 2.317 . S
O180 Cd179 2.317 . S
O180 C181 1.232 . S
C181 O180 1.232 . S
C181 O182 1.218 . S
O182 C181 1.218 . S
C183 O176 1.275 . S
C183 O178 1.255 . S
C184 O185 1.258 . S
C184 O186 1.256 . S
O185 Cd177 2.381 . S
O185 C184 1.258 . S
O186 Cd177 2.378 . S
O186 C184 1.256 . S
O187 Cd188 2.300 . S
O187 C194 1.275 . S
Cd188 O187 2.300 . S
Cd188 O196 2.381 . S
Cd188 O197 2.378 . S
O189 Cd190 2.385 . S
O189 C194 1.255 . S
Cd190 O189 2.385 . S
Cd190 O191 2.317 . S
O191 Cd190 2.317 . S
O191 C192 1.232 . S
C192 O191 1.232 . S
C192 O193 1.218 . S
O193 C192 1.218 . S
C194 O187 1.275 . S
C194 O189 1.255 . S
C195 O196 1.258 . S
C195 O197 1.256 . S
O196 Cd188 2.381 . S
O196 C195 1.258 . S
O197 Cd188 2.378 . S
O197 C195 1.256 . S
O198 Cd199 2.300 . S
O198 C205 1.275 . S
Cd199 O198 2.300 . S
Cd199 O207 2.381 . S
Cd199 O208 2.378 . S
O200 Cd201 2.385 . S
O200 C205 1.255 . S
Cd201 O200 2.385 . S
Cd201 O202 2.317 . S
O202 Cd201 2.317 . S
O202 C203 1.232 . S
C203 O202 1.232 . S
C203 O204 1.218 . S
O204 C203 1.218 . S
C205 O198 1.275 . S
C205 O200 1.255 . S
C206 O207 1.258 . S
C206 O208 1.256 . S
O207 Cd199 2.381 . S
O207 C206 1.258 . S
O208 Cd199 2.378 . S
O208 C206 1.256 . S
O209 Cd210 2.300 . S
O209 C216 1.275 . S
Cd210 O209 2.300 . S
Cd210 O218 2.381 . S
Cd210 O219 2.378 . S
O211 Cd212 2.385 . S
O211 C216 1.255 . S
Cd212 O211 2.385 . S
Cd212 O213 2.317 . S
O213 Cd212 2.317 . S
O213 C214 1.232 . S
C214 O213 1.232 . S
C214 O215 1.218 . S
O215 C214 1.218 . S
C216 O209 1.275 . S
C216 O211 1.255 . S
C217 O218 1.258 . S
C217 O219 1.256 . S
O218 Cd210 2.381 . S
O218 C217 1.258 . S
O219 Cd210 2.378 . S
O219 C217 1.256 . S
O220 Cd221 2.300 . S
O220 C227 1.275 . S
Cd221 O220 2.300 . S
Cd221 O229 2.381 . S
Cd221 O230 2.378 . S
O222 Cd223 2.385 . S
O222 C227 1.255 . S
Cd223 O222 2.385 . S
Cd223 O224 2.317 . S
O224 Cd223 2.317 . S
O224 C225 1.232 . S
C225 O224 1.232 . S
C225 O226 1.218 . S
O226 C225 1.218 . S
C227 O220 1.275 . S
C227 O222 1.255 . S
C228 O229 1.258 . S
C228 O230 1.256 . S
O229 Cd221 2.381 . S
O229 C228 1.258 . S
O230 Cd221 2.378 . S
O230 C228 1.256 . S
O231 Cd232 2.300 . S
O231 C238 1.275 . S
Cd232 O231 2.300 . S
Cd232 O240 2.381 . S
Cd232 O241 2.378 . S
O233 Cd234 2.385 . S
O233 C238 1.255 . S
Cd234 O233 2.385 . S
Cd234 O235 2.317 . S
O235 Cd234 2.317 . S
O235 C236 1.232 . S
C236 O235 1.232 . S
C236 O237 1.218 . S
O237 C236 1.218 . S
C238 O231 1.275 . S
C238 O233 1.255 . S
C239 O240 1.258 . S
C239 O241 1.256 . S
O240 Cd232 2.381 . S
O240 C239 1.258 . S
O241 Cd232 2.378 . S
O241 C239 1.256 . S
O242 Cd243 2.300 . S
O242 C249 1.275 . S
Cd243 O242 2.300 . S
Cd243 O251 2.381 . S
Cd243 O252 2.378 . S
O244 Cd245 2.385 . S
O244 C249 1.255 . S
Cd245 O244 2.385 . S
Cd245 O246 2.317 . S
O246 Cd245 2.317 . S
O246 C247 1.232 . S
C247 O246 1.232 . S
C247 O248 1.218 . S
O248 C247 1.218 . S
C249 O242 1.275 . S
C249 O244 1.255 . S
C250 O251 1.258 . S
C250 O252 1.256 . S
O251 Cd243 2.381 . S
O251 C250 1.258 . S
O252 Cd243 2.378 . S
O252 C250 1.256 . S
O253 Cd254 2.300 . S
O253 C260 1.275 . S
Cd254 O253 2.300 . S
Cd254 O262 2.381 . S
Cd254 O263 2.378 . S
O255 Cd256 2.385 . S
O255 C260 1.255 . S
Cd256 O255 2.385 . S
Cd256 O257 2.317 . S
O257 Cd256 2.317 . S
O257 C258 1.232 . S
C258 O257 1.232 . S
C258 O259 1.218 . S
O259 C258 1.218 . S
C260 O253 1.275 . S
C260 O255 1.255 . S
C261 O262 1.258 . S
C261 O263 1.256 . S
O262 Cd254 2.381 . S
O262 C261 1.258 . S
O263 Cd254 2.378 . S
O263 C261 1.256 . S
O264 Cd265 2.300 . S
O264 C271 1.275 . S
Cd265 O264 2.300 . S
Cd265 O273 2.381 . S
Cd265 O274 2.378 . S
O266 Cd267 2.385 . S
O266 C271 1.255 . S
Cd267 O266 2.385 . S
Cd267 O268 2.317 . S
O268 Cd267 2.317 . S
O268 C269 1.232 . S
C269 O268 1.232 . S
C269 O270 1.218 . S
O270 C269 1.218 . S
C271 O264 1.275 . S
C271 O266 1.255 . S
C272 O273 1.258 . S
C272 O274 1.256 . S
O273 Cd265 2.381 . S
O273 C272 1.258 . S
O274 Cd265 2.378 . S
O274 C272 1.256 . S
O275 Cd276 2.300 . S
O275 C282 1.275 . S
Cd276 O275 2.300 . S
Cd276 O284 2.381 . S
Cd276 O285 2.378 . S
O277 Cd278 2.385 . S
O277 C282 1.255 . S
Cd278 O277 2.385 . S
Cd278 O279 2.317 . S
O279 Cd278 2.317 . S
O279 C280 1.232 . S
C280 O279 1.232 . S
C280 O281 1.218 . S
O281 C280 1.218 . S
C282 O275 1.275 . S
C282 O277 1.255 . S
C283 O284 1.258 . S
C283 O285 1.256 . S
O284 Cd276 2.381 . S
O284 C283 1.258 . S
O285 Cd276 2.378 . S
O285 C283 1.256 . S
O286 Cd287 2.300 . S
O286 C293 1.275 . S
Cd287 O286 2.300 . S
Cd287 O295 2.381 . S
Cd287 O296 2.378 . S
O288 Cd289 2.385 . S
O288 C293 1.255 . S
Cd289 O288 2.385 . S
Cd289 O290 2.317 . S
O290 Cd289 2.317 . S
O290 C291 1.232 . S
C291 O290 1.232 . S
C291 O292 1.218 . S
O292 C291 1.218 . S
C293 O286 1.275 . S
C293 O288 1.255 . S
C294 O295 1.258 . S
C294 O296 1.256 . S
O295 Cd287 2.381 . S
O295 C294 1.258 . S
O296 Cd287 2.378 . S
O296 C294 1.256 . S
O297 Cd298 2.300 . S
O297 C304 1.275 . S
Cd298 O297 2.300 . S
Cd298 O306 2.381 . S
Cd298 O307 2.378 . S
O299 Cd300 2.385 . S
O299 C304 1.255 . S
Cd300 O299 2.385 . S
Cd300 O301 2.317 . S
O301 Cd300 2.317 . S
O301 C302 1.232 . S
C302 O301 1.232 . S
C302 O303 1.218 . S
O303 C302 1.218 . S
C304 O297 1.275 . S
C304 O299 1.255 . S
C305 O306 1.258 . S
C305 O307 1.256 . S
O306 Cd298 2.381 . S
O306 C305 1.258 . S
O307 Cd298 2.378 . S
O307 C305 1.256 . S
O308 Cd309 2.300 . S
O308 C315 1.275 . S
Cd309 O308 2.300 . S
Cd309 O317 2.381 . S
Cd309 O318 2.378 . S
O310 Cd311 2.385 . S
O310 C315 1.255 . S
Cd311 O310 2.385 . S
Cd311 O312 2.317 . S
O312 Cd311 2.317 . S
O312 C313 1.232 . S
C313 O312 1.232 . S
C313 O314 1.218 . S
O314 C313 1.218 . S
C315 O308 1.275 . S
C315 O310 1.255 . S
C316 O317 1.258 . S
C316 O318 1.256 . S
O317 Cd309 2.381 . S
O317 C316 1.258 . S
O318 Cd309 2.378 . S
O318 C316 1.256 . S
O319 Cd320 2.300 . S
O319 C326 1.275 . S
Cd320 O319 2.300 . S
Cd320 O328 2.381 . S
Cd320 O329 2.378 . S
O321 Cd322 2.385 . S
O321 C326 1.255 . S
Cd322 O321 2.385 . S
Cd322 O323 2.317 . S
O323 Cd322 2.317 . S
O323 C324 1.232 . S
C324 O323 1.232 . S
C324 O325 1.218 . S
O325 C324 1.218 . S
C326 O319 1.275 . S
C326 O321 1.255 . S
C327 O328 1.258 . S
C327 O329 1.256 . S
O328 Cd320 2.381 . S
O328 C327 1.258 . S
O329 Cd320 2.378 . S
O329 C327 1.256 . S
O330 Cd331 2.300 . S
O330 C337 1.275 . S
Cd331 O330 2.300 . S
Cd331 O339 2.381 . S
Cd331 O340 2.378 . S
O332 Cd333 2.385 . S
O332 C337 1.255 . S
Cd333 O332 2.385 . S
Cd333 O334 2.317 . S
O334 Cd333 2.317 . S
O334 C335 1.232 . S
C335 O334 1.232 . S
C335 O336 1.218 . S
O336 C335 1.218 . S
C337 O330 1.275 . S
C337 O332 1.255 . S
C338 O339 1.258 . S
C338 O340 1.256 . S
O339 Cd331 2.381 . S
O339 C338 1.258 . S
O340 Cd331 2.378 . S
O340 C338 1.256 . S
O341 Cd342 2.300 . S
O341 C348 1.275 . S
Cd342 O341 2.300 . S
Cd342 O350 2.381 . S
Cd342 O351 2.378 . S
O343 Cd344 2.385 . S
O343 C348 1.255 . S
Cd344 O343 2.385 . S
Cd344 O345 2.317 . S
O345 Cd344 2.317 . S
O345 C346 1.232 . S
C346 O345 1.232 . S
C346 O347 1.218 . S
O347 C346 1.218 . S
C348 O341 1.275 . S
C348 O343 1.255 . S
C349 O350 1.258 . S
C349 O351 1.256 . S
O350 Cd342 2.381 . S
O350 C349 1.258 . S
O351 Cd342 2.378 . S
O351 C349 1.256 . S
O352 Cd353 2.300 . S
O352 C359 1.275 . S
Cd353 O352 2.300 . S
Cd353 O361 2.381 . S
Cd353 O362 2.378 . S
O354 Cd355 2.385 . S
O354 C359 1.255 . S
Cd355 O354 2.385 . S
Cd355 O356 2.317 . S
O356 Cd355 2.317 . S
O356 C357 1.232 . S
C357 O356 1.232 . S
C357 O358 1.218 . S
O358 C357 1.218 . S
C359 O352 1.275 . S
C359 O354 1.255 . S
C360 O361 1.258 . S
C360 O362 1.256 . S
O361 Cd353 2.381 . S
O361 C360 1.258 . S
O362 Cd353 2.378 . S
O362 C360 1.256 . S
O363 Cd364 2.300 . S
O363 C370 1.275 . S
Cd364 O363 2.300 . S
Cd364 O372 2.381 . S
Cd364 O373 2.378 . S
O365 Cd366 2.385 . S
O365 C370 1.255 . S
Cd366 O365 2.385 . S
Cd366 O367 2.317 . S
O367 Cd366 2.317 . S
O367 C368 1.232 . S
C368 O367 1.232 . S
C368 O369 1.218 . S
O369 C368 1.218 . S
C370 O363 1.275 . S
C370 O365 1.255 . S
C371 O372 1.258 . S
C371 O373 1.256 . S
O372 Cd364 2.381 . S
O372 C371 1.258 . S
O373 Cd364 2.378 . S
O373 C371 1.256 . S
O374 Cd375 2.300 . S
O374 C381 1.275 . S
Cd375 O374 2.300 . S
Cd375 O383 2.381 . S
Cd375 O384 2.378 . S
O376 Cd377 2.385 . S
O376 C381 1.255 . S
Cd377 O376 2.385 . S
Cd377 O378 2.317 . S
O378 Cd377 2.317 . S
O378 C379 1.232 . S
C379 O378 1.232 . S
C379 O380 1.218 . S
O380 C379 1.218 . S
C381 O374 1.275 . S
C381 O376 1.255 . S
C382 O383 1.258 . S
C382 O384 1.256 . S
O383 Cd375 2.381 . S
O383 C382 1.258 . S
O384 Cd375 2.378 . S
O384 C382 1.256 . S
O385 Cd386 2.300 . S
O385 C392 1.275 . S
Cd386 O385 2.300 . S
Cd386 O394 2.381 . S
Cd386 O395 2.378 . S
O387 Cd388 2.385 . S
O387 C392 1.255 . S
Cd388 O387 2.385 . S
Cd388 O389 2.317 . S
O389 Cd388 2.317 . S
O389 C390 1.232 . S
C390 O389 1.232 . S
C390 O391 1.218 . S
O391 C390 1.218 . S
C392 O385 1.275 . S
C392 O387 1.255 . S
C393 O394 1.258 . S
C393 O395 1.256 . S
O394 Cd386 2.381 . S
O394 C393 1.258 . S
O395 Cd386 2.378 . S
O395 C393 1.256 . S
O396 Cd397 2.300 . S
O396 C403 1.275 . S
Cd397 O396 2.300 . S
Cd397 O405 2.381 . S
Cd397 O406 2.378 . S
O398 Cd399 2.385 . S
O398 C403 1.255 . S
Cd399 O398 2.385 . S
Cd399 O400 2.317 . S
O400 Cd399 2.317 . S
O400 C401 1.232 . S
C401 O400 1.232 . S
C401 O402 1.218 . S
O402 C401 1.218 . S
C403 O396 1.275 . S
C403 O398 1.255 . S
C404 O405 1.258 . S
C404 O406 1.256 . S
O405 Cd397 2.381 . S
O405 C404 1.258 . S
O406 Cd397 2.378 . S
O406 C404 1.256 . S
O407 Cd408 2.300 . S
O407 C414 1.275 . S
Cd408 O407 2.300 . S
Cd408 O416 2.381 . S
Cd408 O417 2.378 . S
O409 Cd410 2.385 . S
O409 C414 1.255 . S
Cd410 O409 2.385 . S
Cd410 O411 2.317 . S
O411 Cd410 2.317 . S
O411 C412 1.232 . S
C412 O411 1.232 . S
C412 O413 1.218 . S
O413 C412 1.218 . S
C414 O407 1.275 . S
C414 O409 1.255 . S
C415 O416 1.258 . S
C415 O417 1.256 . S
O416 Cd408 2.381 . S
O416 C415 1.258 . S
O417 Cd408 2.378 . S
O417 C415 1.256 . S
O418 Cd419 2.300 . S
O418 C425 1.275 . S
Cd419 O418 2.300 . S
Cd419 O427 2.381 . S
Cd419 O428 2.378 . S
O420 Cd421 2.385 . S
O420 C425 1.255 . S
Cd421 O420 2.385 . S
Cd421 O422 2.317 . S
O422 Cd421 2.317 . S
O422 C423 1.232 . S
C423 O422 1.232 . S
C423 O424 1.218 . S
O424 C423 1.218 . S
C425 O418 1.275 . S
C425 O420 1.255 . S
C426 O427 1.258 . S
C426 O428 1.256 . S
O427 Cd419 2.381 . S
O427 C426 1.258 . S
O428 Cd419 2.378 . S
O428 C426 1.256 . S
O429 Cd430 2.300 . S
O429 C436 1.275 . S
Cd430 O429 2.300 . S
Cd430 O438 2.381 . S
Cd430 O439 2.378 . S
O431 Cd432 2.385 . S
O431 C436 1.255 . S
Cd432 O431 2.385 . S
Cd432 O433 2.317 . S
O433 Cd432 2.317 . S
O433 C434 1.232 . S
C434 O433 1.232 . S
C434 O435 1.218 . S
O435 C434 1.218 . S
C436 O429 1.275 . S
C436 O431 1.255 . S
C437 O438 1.258 . S
C437 O439 1.256 . S
O438 Cd430 2.381 . S
O438 C437 1.258 . S
O439 Cd430 2.378 . S
O439 C437 1.256 . S
O440 Cd441 2.300 . S
O440 C447 1.275 . S
Cd441 O440 2.300 . S
Cd441 O449 2.381 . S
Cd441 O450 2.378 . S
O442 Cd443 2.385 . S
O442 C447 1.255 . S
Cd443 O442 2.385 . S
Cd443 O444 2.317 . S
O444 Cd443 2.317 . S
O444 C445 1.232 . S
C445 O444 1.232 . S
C445 O446 1.218 . S
O446 C445 1.218 . S
C447 O440 1.275 . S
C447 O442 1.255 . S
C448 O449 1.258 . S
C448 O450 1.256 . S
O449 Cd441 2.381 . S
O449 C448 1.258 . S
O450 Cd441 2.378 . S
O450 C448 1.256 . S
O451 Cd452 2.300 . S
O451 C458 1.275 . S
Cd452 O451 2.300 . S
Cd452 O460 2.381 . S
Cd452 O461 2.378 . S
O453 Cd454 2.385 . S
O453 C458 1.255 . S
Cd454 O453 2.385 . S
Cd454 O455 2.317 . S
O455 Cd454 2.317 . S
O455 C456 1.232 . S
C456 O455 1.232 . S
C456 O457 1.218 . S
O457 C456 1.218 . S
C458 O451 1.275 . S
C458 O453 1.255 . S
C459 O460 1.258 . S
C459 O461 1.256 . S
O460 Cd452 2.381 . S
O460 C459 1.258 . S
O461 Cd452 2.378 . S
O461 C459 1.256 . S
O462 Cd463 2.300 . S
O462 C469 1.275 . S
Cd463 O462 2.300 . S
Cd463 O471 2.381 . S
Cd463 O472 2.378 . S
O464 Cd465 2.385 . S
O464 C469 1.255 . S
Cd465 O464 2.385 . S
Cd465 O466 2.317 . S
O466 Cd465 2.317 . S
O466 C467 1.232 . S
C467 O466 1.232 . S
C467 O468 1.218 . S
O468 C467 1.218 . S
C469 O462 1.275 . S
C469 O464 1.255 . S
C470 O471 1.258 . S
C470 O472 1.256 . S
O471 Cd463 2.381 . S
O471 C470 1.258 . S
O472 Cd463 2.378 . S
O472 C470 1.256 . S
O473 Cd474 2.300 . S
O473 C480 1.275 . S
Cd474 O473 2.300 . S
Cd474 O482 2.381 . S
Cd474 O483 2.378 . S
O475 Cd476 2.385 . S
O475 C480 1.255 . S
Cd476 O475 2.385 . S
Cd476 O477 2.317 . S
O477 Cd476 2.317 . S
O477 C478 1.232 . S
C478 O477 1.232 . S
C478 O479 1.218 . S
O479 C478 1.218 . S
C480 O473 1.275 . S
C480 O475 1.255 . S
C481 O482 1.258 . S
C481 O483 1.256 . S
O482 Cd474 2.381 . S
O482 C481 1.258 . S
O483 Cd474 2.378 . S
O483 C481 1.256 . S
O484 Cd485 2.300 . S
O484 C491 1.275 . S
Cd485 O484 2.300 . S
Cd485 O493 2.381 . S
Cd485 O494 2.378 . S
O486 Cd487 2.385 . S
O486 C491 1.255 . S
Cd487 O486 2.385 . S
Cd487 O488 2.317 . S
O488 Cd487 2.317 . S
O488 C489 1.232 . S
C489 O488 1.232 . S
C489 O490 1.218 . S
O490 C489 1.218 . S
C491 O484 1.275 . S
C491 O486 1.255 . S
C492 O493 1.258 . S
C492 O494 1.256 . S
O493 Cd485 2.381 . S
O493 C492 1.258 . S
O494 Cd485 2.378 . S
O494 C492 1.256 . S
O495 Cd496 2.300 . S
O495 C502 1.275 . S
Cd496 O495 2.300 . S
Cd496 O504 2.381 . S
Cd496 O505 2.378 . S
O497 Cd498 2.385 . S
O497 C502 1.255 . S
Cd498 O497 2.385 . S
Cd498 O499 2.317 . S
O499 Cd498 2.317 . S
O499 C500 1.232 . S
C500 O499 1.232 . S
C500 O501 1.218 . S
O501 C500 1.218 . S
C502 O495 1.275 . S
C502 O497 1.255 . S
C503 O504 1.258 . S
C503 O505 1.256 . S
O504 Cd496 2.381 . S
O504 C503 1.258 . S
O505 Cd496 2.378 . S
O505 C503 1.256 . S
O506 Cd507 2.300 . S
O506 C513 1.275 . S
Cd507 O506 2.300 . S
Cd507 O515 2.381 . S
Cd507 O516 2.378 . S
O508 Cd509 2.385 . S
O508 C513 1.255 . S
Cd509 O508 2.385 . S
Cd509 O510 2.317 . S
O510 Cd509 2.317 . S
O510 C511 1.232 . S
C511 O510 1.232 . S
C511 O512 1.218 . S
O512 C511 1.218 . S
C513 O506 1.275 . S
C513 O508 1.255 . S
C514 O515 1.258 . S
C514 O516 1.256 . S
O515 Cd507 2.381 . S
O515 C514 1.258 . S
O516 Cd507 2.378 . S
O516 C514 1.256 . S
O517 Cd518 2.300 . S
O517 C524 1.275 . S
Cd518 O517 2.300 . S
Cd518 O526 2.381 . S
Cd518 O527 2.378 . S
O519 Cd520 2.385 . S
O519 C524 1.255 . S
Cd520 O519 2.385 . S
Cd520 O521 2.317 . S
O521 Cd520 2.317 . S
O521 C522 1.232 . S
C522 O521 1.232 . S
C522 O523 1.218 . S
O523 C522 1.218 . S
C524 O517 1.275 . S
C524 O519 1.255 . S
C525 O526 1.258 . S
C525 O527 1.256 . S
O526 Cd518 2.381 . S
O526 C525 1.258 . S
O527 Cd518 2.378 . S
O527 C525 1.256 . S
C528 C529 1.349 . S
C528 C530 1.327 . S
C528 H553 0.950 . S
C529 C528 1.349 . S
C529 C545 1.349 . S
C530 C528 1.327 . S
C530 C549 1.429 . S
C530 H554 0.950 . S
C531 C548 1.574 . S
C531 C550 1.368 . S
C531 H555 0.949 . S
H532 C536 0.949 . S
C533 C534 1.349 . S
C533 C535 1.327 . S
C533 H556 0.950 . S
C534 C533 1.349 . S
C534 C546 1.349 . S
C535 C533 1.327 . S
C535 C551 1.429 . S
C535 H557 0.950 . S
C536 H532 0.949 . S
C536 C544 1.574 1_455 S
C536 C552 1.368 . S
H537 C545 0.950 . S
H538 C543 0.950 . S
H539 C544 0.949 . S
H540 C546 0.950 . S
H541 C547 0.950 . S
H542 C548 0.949 . S
C543 H538 0.950 . S
C543 C545 1.327 . S
C543 C549 1.429 . S
C544 C536 1.574 1_655 S
C544 H539 0.949 . S
C544 C550 1.368 . S
C545 C529 1.349 . S
C545 H537 0.950 . S
C545 C543 1.327 . S
C546 C534 1.349 . S
C546 H540 0.950 . S
C546 C547 1.327 . S
C547 H541 0.950 . S
C547 C546 1.327 . S
C547 C551 1.429 . S
C548 C531 1.574 . S
C548 H542 0.949 . S
C548 C552 1.368 1_655 S
C549 C530 1.429 . S
C549 C543 1.429 . S
C549 C550 1.523 . S
C550 C531 1.368 . S
C550 C544 1.368 . S
C550 C549 1.523 . S
C551 C535 1.429 . S
C551 C547 1.429 . S
C551 C552 1.523 . S
C552 C536 1.368 . S
C552 C548 1.368 1_455 S
C552 C551 1.523 . S
H553 C528 0.950 . S
H554 C530 0.950 . S
H555 C531 0.949 . S
H556 C533 0.950 . S
H557 C535 0.950 . S
C558 C559 1.349 . S
C558 C560 1.327 . S
C558 H583 0.950 . S
C559 C558 1.349 . S
C559 C575 1.349 . S
C560 C558 1.327 . S
C560 C579 1.429 . S
C560 H584 0.950 . S
C561 C578 1.574 . S
C561 C580 1.368 . S
C561 H585 0.949 . S
H562 C566 0.949 . S
C563 C564 1.349 . S
C563 C565 1.327 . S
C563 H586 0.950 . S
C564 C563 1.349 . S
C564 C576 1.349 . S
C565 C563 1.327 . S
C565 C581 1.429 . S
C565 H587 0.950 . S
C566 H562 0.949 . S
C566 C574 1.574 . S
C566 C582 1.368 . S
H567 C575 0.950 . S
H568 C573 0.950 . S
H569 C574 0.949 . S
H570 C576 0.950 . S
H571 C577 0.950 . S
H572 C578 0.949 . S
C573 H568 0.950 . S
C573 C575 1.327 . S
C573 C579 1.429 . S
C574 C566 1.574 . S
C574 H569 0.949 . S
C574 C580 1.368 . S
C575 C559 1.349 . S
C575 H567 0.950 . S
C575 C573 1.327 . S
C576 C564 1.349 . S
C576 H570 0.950 . S
C576 C577 1.327 . S
C577 H571 0.950 . S
C577 C576 1.327 . S
C577 C581 1.429 . S
C578 C561 1.574 . S
C578 H572 0.949 . S
C578 C582 1.368 . S
C579 C560 1.429 . S
C579 C573 1.429 . S
C579 C580 1.523 . S
C580 C561 1.368 . S
C580 C574 1.368 . S
C580 C579 1.523 . S
C581 C565 1.429 . S
C581 C577 1.429 . S
C581 C582 1.523 . S
C582 C566 1.368 . S
C582 C578 1.368 . S
C582 C581 1.523 . S
H583 C558 0.950 . S
H584 C560 0.950 . S
H585 C561 0.949 . S
H586 C563 0.950 . S
H587 C565 0.950 . S
C588 C589 1.349 . S
C588 C590 1.327 . S
C588 H613 0.950 . S
C589 C588 1.349 . S
C589 C605 1.349 . S
C590 C588 1.327 . S
C590 C609 1.429 . S
C590 H614 0.950 . S
C591 C608 1.574 . S
C591 C610 1.368 . S
C591 H615 0.949 . S
H592 C596 0.949 . S
C593 C594 1.349 . S
C593 C595 1.327 . S
C593 H616 0.950 . S
C594 C593 1.349 . S
C594 C606 1.349 . S
C595 C593 1.327 . S
C595 C611 1.429 . S
C595 H617 0.950 . S
C596 H592 0.949 . S
C596 C604 1.574 . S
C596 C612 1.368 . S
H597 C605 0.950 . S
H598 C603 0.950 . S
H599 C604 0.949 . S
H600 C606 0.950 . S
H601 C607 0.950 . S
H602 C608 0.949 . S
C603 H598 0.950 . S
C603 C605 1.327 . S
C603 C609 1.429 . S
C604 C596 1.574 . S
C604 H599 0.949 . S
C604 C610 1.368 . S
C605 C589 1.349 . S
C605 H597 0.950 . S
C605 C603 1.327 . S
C606 C594 1.349 . S
C606 H600 0.950 . S
C606 C607 1.327 . S
C607 H601 0.950 . S
C607 C606 1.327 . S
C607 C611 1.429 . S
C608 C591 1.574 . S
C608 H602 0.949 . S
C608 C612 1.368 . S
C609 C590 1.429 . S
C609 C603 1.429 . S
C609 C610 1.523 . S
C610 C591 1.368 . S
C610 C604 1.368 . S
C610 C609 1.523 . S
C611 C595 1.429 . S
C611 C607 1.429 . S
C611 C612 1.523 . S
C612 C596 1.368 . S
C612 C608 1.368 . S
C612 C611 1.523 . S
H613 C588 0.950 . S
H614 C590 0.950 . S
H615 C591 0.949 . S
H616 C593 0.950 . S
H617 C595 0.950 . S
C618 C619 1.349 . S
C618 C620 1.327 . S
C618 H643 0.950 . S
C619 C618 1.349 . S
C619 C635 1.349 . S
C620 C618 1.327 . S
C620 C639 1.429 . S
C620 H644 0.943 1_556 S
C621 C638 1.541 1_556 S
C621 C640 1.368 . S
C621 H645 0.949 . S
H622 C626 0.949 . S
C623 C624 1.349 . S
C623 C625 1.327 . S
C623 H646 0.950 . S
C624 C623 1.349 . S
C624 C636 1.349 . S
C625 C623 1.327 . S
C625 C641 1.429 . S
C625 H647 0.950 . S
C626 H622 0.949 . S
C626 C634 1.574 . S
C626 C642 1.368 . S
H627 C635 0.950 . S
H628 C633 0.950 . S
H629 C634 0.949 . S
H630 C636 0.950 . S
H631 C637 0.950 . S
H632 C638 0.936 1_556 S
C633 H628 0.950 . S
C633 C635 1.327 . S
C633 C639 1.429 . S
C634 C626 1.574 . S
C634 H629 0.949 . S
C634 C640 1.368 1_554 S
C635 C619 1.349 . S
C635 H627 0.950 . S
C635 C633 1.327 . S
C636 C624 1.349 . S
C636 H630 0.950 . S
C636 C637 1.327 . S
C637 H631 0.950 . S
C637 C636 1.327 . S
C637 C641 1.429 . S
C638 C621 1.541 1_554 S
C638 H632 0.936 1_554 S
C638 C642 1.417 . S
C639 C620 1.429 . S
C639 C633 1.429 . S
C639 C640 1.523 . S
C640 C621 1.368 . S
C640 C634 1.368 1_556 S
C640 C639 1.523 . S
C641 C625 1.429 . S
C641 C637 1.429 . S
C641 C642 1.523 . S
C642 C626 1.368 . S
C642 C638 1.417 . S
C642 C641 1.523 . S
H643 C618 0.950 . S
H644 C620 0.943 1_554 S
H645 C621 0.949 . S
H646 C623 0.950 . S
H647 C625 0.950 . S
C648 C649 1.349 . S
C648 C650 1.327 . S
C648 H673 0.950 . S
C649 C648 1.349 . S
C649 C665 1.349 . S
C650 C648 1.327 . S
C650 C669 1.429 . S
C650 H674 0.950 . S
C651 C668 1.574 1_655 S
C651 C670 1.368 . S
C651 H675 0.949 . S
H652 C656 0.949 . S
C653 C654 1.349 . S
C653 C655 1.327 . S
C653 H676 0.950 . S
C654 C653 1.349 . S
C654 C666 1.349 . S
C655 C653 1.327 . S
C655 C671 1.429 . S
C655 H677 0.950 . S
C656 H652 0.949 . S
C656 C664 1.574 . S
C656 C672 1.368 1_655 S
H657 C665 0.950 . S
H658 C663 0.950 . S
H659 C664 0.949 . S
H660 C666 0.950 . S
H661 C667 0.950 . S
H662 C668 0.949 . S
C663 H658 0.950 . S
C663 C665 1.327 . S
C663 C669 1.429 . S
C664 C656 1.574 . S
C664 H659 0.949 . S
C664 C670 1.368 . S
C665 C649 1.349 . S
C665 H657 0.950 . S
C665 C663 1.327 . S
C666 C654 1.349 . S
C666 H660 0.950 . S
C666 C667 1.327 . S
C667 H661 0.950 . S
C667 C666 1.327 . S
C667 C671 1.429 . S
C668 C651 1.574 1_455 S
C668 H662 0.949 . S
C668 C672 1.368 . S
C669 C650 1.429 . S
C669 C663 1.429 . S
C669 C670 1.523 . S
C670 C651 1.368 . S
C670 C664 1.368 . S
C670 C669 1.523 . S
C671 C655 1.429 . S
C671 C667 1.429 . S
C671 C672 1.523 . S
C672 C656 1.368 1_455 S
C672 C668 1.368 . S
C672 C671 1.523 . S
H673 C648 0.950 . S
H674 C650 0.950 . S
H675 C651 0.949 . S
H676 C653 0.950 . S
H677 C655 0.950 . S
C678 C679 1.349 . S
C678 C680 1.327 . S
C678 H703 0.950 . S
C679 C678 1.349 . S
C679 C695 1.349 . S
C680 C678 1.327 . S
C680 C699 1.429 . S
C680 H704 0.950 . S
C681 C698 1.574 . S
C681 C700 1.368 . S
C681 H705 0.949 . S
H682 C686 0.949 . S
C683 C684 1.349 . S
C683 C685 1.327 . S
C683 H706 0.950 . S
C684 C683 1.349 . S
C684 C696 1.349 . S
C685 C683 1.327 . S
C685 C701 1.429 . S
C685 H707 0.950 . S
C686 H682 0.949 . S
C686 C694 1.574 . S
C686 C702 1.368 . S
H687 C695 0.950 . S
H688 C693 0.950 . S
H689 C694 0.949 . S
H690 C696 0.950 . S
H691 C697 0.950 . S
H692 C698 0.949 . S
C693 H688 0.950 . S
C693 C695 1.327 . S
C693 C699 1.429 . S
C694 C686 1.574 . S
C694 H689 0.949 . S
C694 C700 1.368 . S
C695 C679 1.349 . S
C695 H687 0.950 . S
C695 C693 1.327 . S
C696 C684 1.349 . S
C696 H690 0.950 . S
C696 C697 1.327 . S
C697 H691 0.950 . S
C697 C696 1.327 . S
C697 C701 1.429 . S
C698 C681 1.574 . S
C698 H692 0.949 . S
C698 C702 1.368 . S
C699 C680 1.429 . S
C699 C693 1.429 . S
C699 C700 1.523 . S
C700 C681 1.368 . S
C700 C694 1.368 . S
C700 C699 1.523 . S
C701 C685 1.429 . S
C701 C697 1.429 . S
C701 C702 1.523 . S
C702 C686 1.368 . S
C702 C698 1.368 . S
C702 C701 1.523 . S
H703 C678 0.950 . S
H704 C680 0.950 . S
H705 C681 0.949 . S
H706 C683 0.950 . S
H707 C685 0.950 . S
C708 C709 1.349 . S
C708 C710 1.327 . S
C708 H733 0.950 . S
C709 C708 1.349 . S
C709 C725 1.349 . S
C710 C708 1.327 . S
C710 C729 1.429 . S
C710 H734 0.950 . S
C711 C728 1.574 . S
C711 C730 1.368 . S
C711 H735 0.949 . S
H712 C716 0.949 . S
C713 C714 1.349 . S
C713 C715 1.327 . S
C713 H736 0.950 . S
C714 C713 1.349 . S
C714 C726 1.349 . S
C715 C713 1.327 . S
C715 C731 1.429 . S
C715 H737 0.950 . S
C716 H712 0.949 . S
C716 C724 1.574 . S
C716 C732 1.368 . S
H717 C725 0.950 . S
H718 C723 0.950 . S
H719 C724 0.949 . S
H720 C726 0.950 . S
H721 C727 0.950 . S
H722 C728 0.949 . S
C723 H718 0.950 . S
C723 C725 1.327 . S
C723 C729 1.429 . S
C724 C716 1.574 . S
C724 H719 0.949 . S
C724 C730 1.368 . S
C725 C709 1.349 . S
C725 H717 0.950 . S
C725 C723 1.327 . S
C726 C714 1.349 . S
C726 H720 0.950 . S
C726 C727 1.327 . S
C727 H721 0.950 . S
C727 C726 1.327 . S
C727 C731 1.429 . S
C728 C711 1.574 . S
C728 H722 0.949 . S
C728 C732 1.368 . S
C729 C710 1.429 . S
C729 C723 1.429 . S
C729 C730 1.523 . S
C730 C711 1.368 . S
C730 C724 1.368 . S
C730 C729 1.523 . S
C731 C715 1.429 . S
C731 C727 1.429 . S
C731 C732 1.523 . S
C732 C716 1.368 . S
C732 C728 1.368 . S
C732 C731 1.523 . S
H733 C708 0.950 . S
H734 C710 0.950 . S
H735 C711 0.949 . S
H736 C713 0.950 . S
H737 C715 0.950 . S
C738 C739 1.349 . S
C738 C740 1.327 . S
C738 H763 0.950 . S
C739 C738 1.349 . S
C739 C755 1.349 . S
C740 C738 1.327 . S
C740 C759 1.429 . S
C740 H764 0.950 . S
C741 C758 1.559 1_556 S
C741 C760 1.390 . S
C741 H765 0.943 1_556 S
H742 C746 0.949 . S
C743 C744 1.349 . S
C743 C745 1.327 . S
C743 H766 0.950 . S
C744 C743 1.349 . S
C744 C756 1.349 . S
C745 C743 1.327 . S
C745 C761 1.429 . S
C745 H767 0.950 . S
C746 H742 0.949 . S
C746 C754 1.574 . S
C746 C762 1.368 1_556 S
H747 C755 0.950 . S
H748 C753 0.950 . S
H749 C754 0.949 . S
H750 C756 0.950 . S
H751 C757 0.903 1_556 S
H752 C758 0.949 . S
C753 H748 0.950 . S
C753 C755 1.327 . S
C753 C759 1.429 . S
C754 C746 1.574 . S
C754 H749 0.949 . S
C754 C760 1.368 . S
C755 C739 1.349 . S
C755 H747 0.950 . S
C755 C753 1.327 . S
C756 C744 1.349 . S
C756 H750 0.950 . S
C756 C757 1.327 . S
C757 H751 0.903 1_554 S
C757 C756 1.327 . S
C757 C761 1.429 . S
C758 C741 1.559 1_554 S
C758 H752 0.949 . S
C758 C762 1.368 . S
C759 C740 1.429 . S
C759 C753 1.429 . S
C759 C760 1.523 . S
C760 C741 1.390 . S
C760 C754 1.368 . S
C760 C759 1.523 . S
C761 C745 1.429 . S
C761 C757 1.429 . S
C761 C762 1.523 . S
C762 C746 1.368 1_554 S
C762 C758 1.368 . S
C762 C761 1.523 . S
H763 C738 0.950 . S
H764 C740 0.950 . S
H765 C741 0.943 1_554 S
H766 C743 0.950 . S
H767 C745 0.950 . S
C768 C769 1.349 . S
C768 C770 1.327 . S
C768 H793 0.950 . S
C769 C768 1.349 . S
C769 C785 1.349 . S
C770 C768 1.327 . S
C770 C789 1.429 . S
C770 H794 0.950 . S
C771 C788 1.574 . S
C771 C790 1.368 1_565 S
C771 H795 0.949 . S
H772 C776 0.949 . S
C773 C774 1.349 . S
C773 C775 1.327 . S
C773 H796 0.950 . S
C774 C773 1.349 . S
C774 C786 1.349 . S
C775 C773 1.327 . S
C775 C791 1.429 . S
C775 H797 0.950 . S
C776 H772 0.949 . S
C776 C784 1.574 1_565 S
C776 C792 1.368 . S
H777 C785 0.950 . S
H778 C783 0.950 . S
H779 C784 0.949 . S
H780 C786 0.950 . S
H781 C787 0.950 . S
H782 C788 0.949 . S
C783 H778 0.950 . S
C783 C785 1.327 . S
C783 C789 1.429 . S
C784 C776 1.574 1_545 S
C784 H779 0.949 . S
C784 C790 1.368 . S
C785 C769 1.349 . S
C785 H777 0.950 . S
C785 C783 1.327 . S
C786 C774 1.349 . S
C786 H780 0.950 . S
C786 C787 1.327 . S
C787 H781 0.950 . S
C787 C786 1.327 . S
C787 C791 1.429 . S
C788 C771 1.574 . S
C788 H782 0.949 . S
C788 C792 1.368 . S
C789 C770 1.429 . S
C789 C783 1.429 . S
C789 C790 1.523 . S
C790 C771 1.368 1_545 S
C790 C784 1.368 . S
C790 C789 1.523 . S
C791 C775 1.429 . S
C791 C787 1.429 . S
C791 C792 1.523 . S
C792 C776 1.368 . S
C792 C788 1.368 . S
C792 C791 1.523 . S
H793 C768 0.950 . S
H794 C770 0.950 . S
H795 C771 0.949 . S
H796 C773 0.950 . S
H797 C775 0.950 . S
C798 C799 1.349 . S
C798 C800 1.327 . S
C798 H823 0.950 . S
C799 C798 1.349 . S
C799 C815 1.349 . S
C800 C798 1.327 . S
C800 C819 1.429 . S
C800 H824 0.950 . S
C801 C818 1.574 . S
C801 C820 1.368 1_545 S
C801 H825 0.949 . S
H802 C806 0.949 . S
C803 C804 1.349 . S
C803 C805 1.327 . S
C803 H826 0.950 . S
C804 C803 1.349 . S
C804 C816 1.349 . S
C805 C803 1.327 . S
C805 C821 1.429 . S
C805 H827 0.950 . S
C806 H802 0.949 . S
C806 C814 1.574 1_545 S
C806 C822 1.368 . S
H807 C815 0.950 . S
H808 C813 0.950 . S
H809 C814 0.949 . S
H810 C816 0.950 . S
H811 C817 0.950 . S
H812 C818 0.949 . S
C813 H808 0.950 . S
C813 C815 1.327 . S
C813 C819 1.429 . S
C814 C806 1.574 1_565 S
C814 H809 0.949 . S
C814 C820 1.368 . S
C815 C799 1.349 . S
C815 H807 0.950 . S
C815 C813 1.327 . S
C816 C804 1.349 . S
C816 H810 0.950 . S
C816 C817 1.327 . S
C817 H811 0.950 . S
C817 C816 1.327 . S
C817 C821 1.429 . S
C818 C801 1.574 . S
C818 H812 0.949 . S
C818 C822 1.368 . S
C819 C800 1.429 . S
C819 C813 1.429 . S
C819 C820 1.523 . S
C820 C801 1.368 1_565 S
C820 C814 1.368 . S
C820 C819 1.523 . S
C821 C805 1.429 . S
C821 C817 1.429 . S
C821 C822 1.523 . S
C822 C806 1.368 . S
C822 C818 1.368 . S
C822 C821 1.523 . S
H823 C798 0.950 . S
H824 C800 0.950 . S
H825 C801 0.949 . S
H826 C803 0.950 . S
H827 C805 0.950 . S
C828 C829 1.349 . S
C828 C830 1.327 . S
C828 H853 0.950 . S
C829 C828 1.349 . S
C829 C845 1.349 . S
C830 C828 1.327 . S
C830 C849 1.429 . S
C830 H854 0.950 . S
C831 C848 1.567 1_545 S
C831 C850 1.379 . S
C831 H855 0.946 1_545 S
H832 C836 0.949 . S
C833 C834 1.349 . S
C833 C835 1.327 . S
C833 H856 0.950 . S
C834 C833 1.349 . S
C834 C846 1.349 . S
C835 C833 1.327 . S
C835 C851 1.429 . S
C835 H857 0.950 . S
C836 H832 0.949 . S
C836 C844 1.574 . S
C836 C852 1.368 1_545 S
H837 C845 0.950 . S
H838 C843 0.950 . S
H839 C844 0.949 . S
H840 C846 0.950 . S
H841 C847 0.879 1_545 S
H842 C848 0.949 . S
C843 H838 0.950 . S
C843 C845 1.327 . S
C843 C849 1.429 . S
C844 C836 1.574 . S
C844 H839 0.949 . S
C844 C850 1.368 . S
C845 C829 1.349 . S
C845 H837 0.950 . S
C845 C843 1.327 . S
C846 C834 1.349 . S
C846 H840 0.950 . S
C846 C847 1.327 . S
C847 H841 0.879 1_565 S
C847 C846 1.327 . S
C847 C851 1.429 . S
C848 C831 1.567 1_565 S
C848 H842 0.949 . S
C848 C852 1.368 . S
C849 C830 1.429 . S
C849 C843 1.429 . S
C849 C850 1.523 . S
C850 C831 1.379 . S
C850 C844 1.368 . S
C850 C849 1.523 . S
C851 C835 1.429 . S
C851 C847 1.429 . S
C851 C852 1.523 . S
C852 C836 1.368 1_565 S
C852 C848 1.368 . S
C852 C851 1.523 . S
H853 C828 0.950 . S
H854 C830 0.950 . S
H855 C831 0.946 1_565 S
H856 C833 0.950 . S
H857 C835 0.950 . S
C858 C859 1.349 . S
C858 C860 1.327 . S
C858 H883 0.950 . S
C859 C858 1.349 . S
C859 C875 1.349 . S
C860 C858 1.327 . S
C860 C879 1.429 . S
C860 H884 0.950 . S
C861 C878 1.574 1_545 S
C861 C880 1.368 . S
C861 H885 0.949 . S
H862 C866 0.949 . S
C863 C864 1.349 . S
C863 C865 1.327 . S
C863 H886 0.950 . S
C864 C863 1.349 . S
C864 C876 1.349 . S
C865 C863 1.327 . S
C865 C881 1.429 . S
C865 H887 0.950 . S
C866 H862 0.949 . S
C866 C874 1.574 . S
C866 C882 1.368 . S
H867 C875 0.950 . S
H868 C873 0.950 . S
H869 C874 0.949 . S
H870 C876 0.950 . S
H871 C877 0.950 . S
H872 C878 0.949 . S
C873 H868 0.950 . S
C873 C875 1.327 . S
C873 C879 1.429 . S
C874 C866 1.574 . S
C874 H869 0.949 . S
C874 C880 1.368 1_565 S
C875 C859 1.349 . S
C875 H867 0.950 . S
C875 C873 1.327 . S
C876 C864 1.349 . S
C876 H870 0.950 . S
C876 C877 1.327 . S
C877 H871 0.950 . S
C877 C876 1.327 . S
C877 C881 1.429 . S
C878 C861 1.574 1_565 S
C878 H872 0.949 . S
C878 C882 1.368 . S
C879 C860 1.429 . S
C879 C873 1.429 . S
C879 C880 1.523 . S
C880 C861 1.368 . S
C880 C874 1.368 1_545 S
C880 C879 1.523 . S
C881 C865 1.429 . S
C881 C877 1.429 . S
C881 C882 1.523 . S
C882 C866 1.368 . S
C882 C878 1.368 . S
C882 C881 1.523 . S
H883 C858 0.950 . S
H884 C860 0.950 . S
H885 C861 0.949 . S
H886 C863 0.950 . S
H887 C865 0.950 . S
C888 C889 1.349 . S
C888 C890 1.327 . S
C888 H913 0.950 . S
C889 C888 1.349 . S
C889 C905 1.349 . S
C890 C888 1.327 . S
C890 C909 1.429 . S
C890 H914 0.950 . S
C891 C908 1.574 . S
C891 C910 1.368 1_554 S
C891 H915 0.949 . S
H892 C896 0.945 1_556 S
C893 C894 1.349 . S
C893 C895 1.327 . S
C893 H916 0.950 . S
C894 C893 1.349 . S
C894 C906 1.349 . S
C895 C893 1.327 . S
C895 C911 1.429 . S
C895 H917 0.950 . S
C896 H892 0.945 1_554 S
C896 C904 1.564 1_554 S
C896 C912 1.382 . S
H897 C905 0.950 . S
H898 C903 0.885 1_554 S
H899 C904 0.949 . S
H900 C906 0.950 . S
H901 C907 0.950 . S
H902 C908 0.949 . S
C903 H898 0.885 1_556 S
C903 C905 1.327 . S
C903 C909 1.429 . S
C904 C896 1.564 1_556 S
C904 H899 0.949 . S
C904 C910 1.368 . S
C905 C889 1.349 . S
C905 H897 0.950 . S
C905 C903 1.327 . S
C906 C894 1.349 . S
C906 H900 0.950 . S
C906 C907 1.327 . S
C907 H901 0.950 . S
C907 C906 1.327 . S
C907 C911 1.429 . S
C908 C891 1.574 . S
C908 H902 0.949 . S
C908 C912 1.368 . S
C909 C890 1.429 . S
C909 C903 1.429 . S
C909 C910 1.523 . S
C910 C891 1.368 1_556 S
C910 C904 1.368 . S
C910 C909 1.523 . S
C911 C895 1.429 . S
C911 C907 1.429 . S
C911 C912 1.523 . S
C912 C896 1.382 . S
C912 C908 1.368 . S
C912 C911 1.523 . S
H913 C888 0.950 . S
H914 C890 0.950 . S
H915 C891 0.949 . S
H916 C893 0.950 . S
H917 C895 0.950 . S
C918 C919 1.349 . S
C918 C920 1.327 . S
C918 H943 0.950 . S
C919 C918 1.349 . S
C919 C935 1.349 . S
C920 C918 1.327 . S
C920 C939 1.429 . S
C920 H944 0.871 1_655 S
C921 C938 1.569 1_655 S
C921 C940 1.368 . S
C921 H945 0.949 . S
H922 C926 0.949 . S
C923 C924 1.349 . S
C923 C925 1.327 . S
C923 H946 0.950 . S
C924 C923 1.349 . S
C924 C936 1.349 . S
C925 C923 1.327 . S
C925 C941 1.429 . S
C925 H947 0.950 . S
C926 H922 0.949 . S
C926 C934 1.574 . S
C926 C942 1.368 . S
H927 C935 0.950 . S
H928 C933 0.950 . S
H929 C934 0.949 . S
H930 C936 0.950 . S
H931 C937 0.950 . S
H932 C938 0.947 1_655 S
C933 H928 0.950 . S
C933 C935 1.327 . S
C933 C939 1.429 . S
C934 C926 1.574 . S
C934 H929 0.949 . S
C934 C940 1.368 1_455 S
C935 C919 1.349 . S
C935 H927 0.950 . S
C935 C933 1.327 . S
C936 C924 1.349 . S
C936 H930 0.950 . S
C936 C937 1.327 . S
C937 H931 0.950 . S
C937 C936 1.327 . S
C937 C941 1.429 . S
C938 C921 1.569 1_455 S
C938 H932 0.947 1_455 S
C938 C942 1.375 . S
C939 C920 1.429 . S
C939 C933 1.429 . S
C939 C940 1.523 . S
C940 C921 1.368 . S
C940 C934 1.368 1_655 S
C940 C939 1.523 . S
C941 C925 1.429 . S
C941 C937 1.429 . S
C941 C942 1.523 . S
C942 C926 1.368 . S
C942 C938 1.375 . S
C942 C941 1.523 . S
H943 C918 0.950 . S
H944 C920 0.871 1_455 S
H945 C921 0.949 . S
H946 C923 0.950 . S
H947 C925 0.950 . S
C948 C949 1.349 . S
C948 C950 1.327 . S
C948 H973 0.950 . S
C949 C948 1.349 . S
C949 C965 1.349 . S
C950 C948 1.327 . S
C950 C969 1.429 . S
C950 H974 0.950 . S
C951 C968 1.574 . S
C951 C970 1.368 . S
C951 H975 0.949 . S
H952 C956 0.949 . S
C953 C954 1.349 . S
C953 C955 1.327 . S
C953 H976 0.950 . S
C954 C953 1.349 . S
C954 C966 1.349 . S
C955 C953 1.327 . S
C955 C971 1.429 . S
C955 H977 0.950 . S
C956 H952 0.949 . S
C956 C964 1.574 . S
C956 C972 1.368 . S
H957 C965 0.950 . S
H958 C963 0.950 . S
H959 C964 0.949 . S
H960 C966 0.950 . S
H961 C967 0.950 . S
H962 C968 0.949 . S
C963 H958 0.950 . S
C963 C965 1.327 . S
C963 C969 1.429 . S
C964 C956 1.574 . S
C964 H959 0.949 . S
C964 C970 1.368 . S
C965 C949 1.349 . S
C965 H957 0.950 . S
C965 C963 1.327 . S
C966 C954 1.349 . S
C966 H960 0.950 . S
C966 C967 1.327 . S
C967 H961 0.950 . S
C967 C966 1.327 . S
C967 C971 1.429 . S
C968 C951 1.574 . S
C968 H962 0.949 . S
C968 C972 1.368 . S
C969 C950 1.429 . S
C969 C963 1.429 . S
C969 C970 1.523 . S
C970 C951 1.368 . S
C970 C964 1.368 . S
C970 C969 1.523 . S
C971 C955 1.429 . S
C971 C967 1.429 . S
C971 C972 1.523 . S
C972 C956 1.368 . S
C972 C968 1.368 . S
C972 C971 1.523 . S
H973 C948 0.950 . S
H974 C950 0.950 . S
H975 C951 0.949 . S
H976 C953 0.950 . S
H977 C955 0.950 . S
C978 C979 1.349 . S
C978 C980 1.327 . S
C978 H1003 0.950 . S
C979 C978 1.349 . S
C979 C995 1.349 . S
C980 C978 1.327 . S
C980 C999 1.429 . S
C980 H1004 0.950 . S
C981 C998 1.574 . S
C981 C1000 1.368 1_455 S
C981 H1005 0.949 . S
H982 C986 0.949 . S
C983 C984 1.349 . S
C983 C985 1.327 . S
C983 H1006 0.950 . S
C984 C983 1.349 . S
C984 C996 1.349 . S
C985 C983 1.327 . S
C985 C1001 1.429 . S
C985 H1007 0.950 . S
C986 H982 0.949 . S
C986 C994 1.574 1_455 S
C986 C1002 1.368 . S
H987 C995 0.950 . S
H988 C993 0.950 . S
H989 C994 0.949 . S
H990 C996 0.950 . S
H991 C997 0.950 . S
H992 C998 0.949 . S
C993 H988 0.950 . S
C993 C995 1.327 . S
C993 C999 1.429 . S
C994 C986 1.574 1_655 S
C994 H989 0.949 . S
C994 C1000 1.368 . S
C995 C979 1.349 . S
C995 H987 0.950 . S
C995 C993 1.327 . S
C996 C984 1.349 . S
C996 H990 0.950 . S
C996 C997 1.327 . S
C997 H991 0.950 . S
C997 C996 1.327 . S
C997 C1001 1.429 . S
C998 C981 1.574 . S
C998 H992 0.949 . S
C998 C1002 1.368 . S
C999 C980 1.429 . S
C999 C993 1.429 . S
C999 C1000 1.523 . S
C1000 C981 1.368 1_655 S
C1000 C994 1.368 . S
C1000 C999 1.523 . S
C1001 C985 1.429 . S
C1001 C997 1.429 . S
C1001 C1002 1.523 . S
C1002 C986 1.368 . S
C1002 C998 1.368 . S
C1002 C1001 1.523 . S
H1003 C978 0.950 . S
H1004 C980 0.950 . S
H1005 C981 0.949 . S
H1006 C983 0.950 . S
H1007 C985 0.950 . S
C1008 C1009 1.349 . S
C1008 C1010 1.327 . S
C1008 H1033 0.950 . S
C1009 C1008 1.349 . S
C1009 C1025 1.349 . S
C1010 C1008 1.327 . S
C1010 C1029 1.429 . S
C1010 H1034 0.950 . S
C1011 C1028 1.574 . S
C1011 C1030 1.368 . S
C1011 H1035 0.949 . S
H1012 C1016 0.949 . S
C1013 C1014 1.349 . S
C1013 C1015 1.327 . S
C1013 H1036 0.950 . S
C1014 C1013 1.349 . S
C1014 C1026 1.349 . S
C1015 C1013 1.327 . S
C1015 C1031 1.429 . S
C1015 H1037 0.950 . S
C1016 H1012 0.949 . S
C1016 C1024 1.574 . S
C1016 C1032 1.368 . S
H1017 C1025 0.950 . S
H1018 C1023 0.950 . S
H1019 C1024 0.949 . S
H1020 C1026 0.950 . S
H1021 C1027 0.950 . S
H1022 C1028 0.949 . S
C1023 H1018 0.950 . S
C1023 C1025 1.327 . S
C1023 C1029 1.429 . S
C1024 C1016 1.574 . S
C1024 H1019 0.949 . S
C1024 C1030 1.368 . S
C1025 C1009 1.349 . S
C1025 H1017 0.950 . S
C1025 C1023 1.327 . S
C1026 C1014 1.349 . S
C1026 H1020 0.950 . S
C1026 C1027 1.327 . S
C1027 H1021 0.950 . S
C1027 C1026 1.327 . S
C1027 C1031 1.429 . S
C1028 C1011 1.574 . S
C1028 H1022 0.949 . S
C1028 C1032 1.368 . S
C1029 C1010 1.429 . S
C1029 C1023 1.429 . S
C1029 C1030 1.523 . S
C1030 C1011 1.368 . S
C1030 C1024 1.368 . S
C1030 C1029 1.523 . S
C1031 C1015 1.429 . S
C1031 C1027 1.429 . S
C1031 C1032 1.523 . S
C1032 C1016 1.368 . S
C1032 C1028 1.368 . S
C1032 C1031 1.523 . S
H1033 C1008 0.950 . S
H1034 C1010 0.950 . S
H1035 C1011 0.949 . S
H1036 C1013 0.950 . S
H1037 C1015 0.950 . S
C1038 C1039 1.349 . S
C1038 C1040 1.327 . S
C1038 H1063 0.950 . S
C1039 C1038 1.349 . S
C1039 C1055 1.349 . S
C1040 C1038 1.327 . S
C1040 C1059 1.429 . S
C1040 H1064 0.950 . S
C1041 C1058 1.574 . S
C1041 C1060 1.368 . S
C1041 H1065 0.949 . S
H1042 C1046 0.949 . S
C1043 C1044 1.349 . S
C1043 C1045 1.327 . S
C1043 H1066 0.950 . S
C1044 C1043 1.349 . S
C1044 C1056 1.349 . S
C1045 C1043 1.327 . S
C1045 C1061 1.429 . S
C1045 H1067 0.950 . S
C1046 H1042 0.949 . S
C1046 C1054 1.574 . S
C1046 C1062 1.368 . S
H1047 C1055 0.950 . S
H1048 C1053 0.950 . S
H1049 C1054 0.949 . S
H1050 C1056 0.950 . S
H1051 C1057 0.950 . S
H1052 C1058 0.949 . S
C1053 H1048 0.950 . S
C1053 C1055 1.327 . S
C1053 C1059 1.429 . S
C1054 C1046 1.574 . S
C1054 H1049 0.949 . S
C1054 C1060 1.368 . S
C1055 C1039 1.349 . S
C1055 H1047 0.950 . S
C1055 C1053 1.327 . S
C1056 C1044 1.349 . S
C1056 H1050 0.950 . S
C1056 C1057 1.327 . S
C1057 H1051 0.950 . S
C1057 C1056 1.327 . S
C1057 C1061 1.429 . S
C1058 C1041 1.574 . S
C1058 H1052 0.949 . S
C1058 C1062 1.368 . S
C1059 C1040 1.429 . S
C1059 C1053 1.429 . S
C1059 C1060 1.523 . S
C1060 C1041 1.368 . S
C1060 C1054 1.368 . S
C1060 C1059 1.523 . S
C1061 C1045 1.429 . S
C1061 C1057 1.429 . S
C1061 C1062 1.523 . S
C1062 C1046 1.368 . S
C1062 C1058 1.368 . S
C1062 C1061 1.523 . S
H1063 C1038 0.950 . S
H1064 C1040 0.950 . S
H1065 C1041 0.949 . S
H1066 C1043 0.950 . S
H1067 C1045 0.950 . S
C1068 C1069 1.349 . S
C1068 C1070 1.327 . S
C1068 H1093 0.950 . S
C1069 C1068 1.349 . S
C1069 C1085 1.349 . S
C1070 C1068 1.327 . S
C1070 C1089 1.429 . S
C1070 H1094 0.937 1_554 S
C1071 C1088 1.544 1_554 S
C1071 C1090 1.368 . S
C1071 H1095 0.949 . S
H1072 C1076 0.949 . S
C1073 C1074 1.349 . S
C1073 C1075 1.327 . S
C1073 H1096 0.950 . S
C1074 C1073 1.349 . S
C1074 C1086 1.349 . S
C1075 C1073 1.327 . S
C1075 C1091 1.429 . S
C1075 H1097 0.950 . S
C1076 H1072 0.949 . S
C1076 C1084 1.574 . S
C1076 C1092 1.368 . S
H1077 C1085 0.950 . S
H1078 C1083 0.950 . S
H1079 C1084 0.949 . S
H1080 C1086 0.950 . S
H1081 C1087 0.950 . S
H1082 C1088 0.937 1_554 S
C1083 H1078 0.950 . S
C1083 C1085 1.327 . S
C1083 C1089 1.429 . S
C1084 C1076 1.574 . S
C1084 H1079 0.949 . S
C1084 C1090 1.368 1_556 S
C1085 C1069 1.349 . S
C1085 H1077 0.950 . S
C1085 C1083 1.327 . S
C1086 C1074 1.349 . S
C1086 H1080 0.950 . S
C1086 C1087 1.327 . S
C1087 H1081 0.950 . S
C1087 C1086 1.327 . S
C1087 C1091 1.429 . S
C1088 C1071 1.544 1_556 S
C1088 H1082 0.937 1_556 S
C1088 C1092 1.413 . S
C1089 C1070 1.429 . S
C1089 C1083 1.429 . S
C1089 C1090 1.523 . S
C1090 C1071 1.368 . S
C1090 C1084 1.368 1_554 S
C1090 C1089 1.523 . S
C1091 C1075 1.429 . S
C1091 C1087 1.429 . S
C1091 C1092 1.523 . S
C1092 C1076 1.368 . S
C1092 C1088 1.413 . S
C1092 C1091 1.523 . S
H1093 C1068 0.950 . S
H1094 C1070 0.937 1_556 S
H1095 C1071 0.949 . S
H1096 C1073 0.950 . S
H1097 C1075 0.950 . S
C1098 C1099 1.349 . S
C1098 C1100 1.327 . S
C1098 H1123 0.950 . S
C1099 C1098 1.349 . S
C1099 C1115 1.349 . S
C1100 C1098 1.327 . S
C1100 C1119 1.429 . S
C1100 H1124 0.950 . S
C1101 C1118 1.574 . S
C1101 C1120 1.368 . S
C1101 H1125 0.949 . S
H1102 C1106 0.949 . S
C1103 C1104 1.349 . S
C1103 C1105 1.327 . S
C1103 H1126 0.950 . S
C1104 C1103 1.349 . S
C1104 C1116 1.349 . S
C1105 C1103 1.327 . S
C1105 C1121 1.429 . S
C1105 H1127 0.950 . S
C1106 H1102 0.949 . S
C1106 C1114 1.574 . S
C1106 C1122 1.368 . S
H1107 C1115 0.950 . S
H1108 C1113 0.950 . S
H1109 C1114 0.949 . S
H1110 C1116 0.950 . S
H1111 C1117 0.950 . S
H1112 C1118 0.949 . S
C1113 H1108 0.950 . S
C1113 C1115 1.327 . S
C1113 C1119 1.429 . S
C1114 C1106 1.574 . S
C1114 H1109 0.949 . S
C1114 C1120 1.368 . S
C1115 C1099 1.349 . S
C1115 H1107 0.950 . S
C1115 C1113 1.327 . S
C1116 C1104 1.349 . S
C1116 H1110 0.950 . S
C1116 C1117 1.327 . S
C1117 H1111 0.950 . S
C1117 C1116 1.327 . S
C1117 C1121 1.429 . S
C1118 C1101 1.574 . S
C1118 H1112 0.949 . S
C1118 C1122 1.368 . S
C1119 C1100 1.429 . S
C1119 C1113 1.429 . S
C1119 C1120 1.523 . S
C1120 C1101 1.368 . S
C1120 C1114 1.368 . S
C1120 C1119 1.523 . S
C1121 C1105 1.429 . S
C1121 C1117 1.429 . S
C1121 C1122 1.523 . S
C1122 C1106 1.368 . S
C1122 C1118 1.368 . S
C1122 C1121 1.523 . S
H1123 C1098 0.950 . S
H1124 C1100 0.950 . S
H1125 C1101 0.949 . S
H1126 C1103 0.950 . S
H1127 C1105 0.950 . S
C1128 C1129 1.349 . S
C1128 C1130 1.327 . S
C1128 H1153 0.950 . S
C1129 C1128 1.349 . S
C1129 C1145 1.349 . S
C1130 C1128 1.327 . S
C1130 C1149 1.429 . S
C1130 H1154 0.950 . S
C1131 C1148 1.574 . S
C1131 C1150 1.368 . S
C1131 H1155 0.949 . S
H1132 C1136 0.949 . S
C1133 C1134 1.349 . S
C1133 C1135 1.327 . S
C1133 H1156 0.950 . S
C1134 C1133 1.349 . S
C1134 C1146 1.349 . S
C1135 C1133 1.327 . S
C1135 C1151 1.429 . S
C1135 H1157 0.950 . S
C1136 H1132 0.949 . S
C1136 C1144 1.574 . S
C1136 C1152 1.368 . S
H1137 C1145 0.950 . S
H1138 C1143 0.950 . S
H1139 C1144 0.949 . S
H1140 C1146 0.950 . S
H1141 C1147 0.950 . S
H1142 C1148 0.949 . S
C1143 H1138 0.950 . S
C1143 C1145 1.327 . S
C1143 C1149 1.429 . S
C1144 C1136 1.574 . S
C1144 H1139 0.949 . S
C1144 C1150 1.368 . S
C1145 C1129 1.349 . S
C1145 H1137 0.950 . S
C1145 C1143 1.327 . S
C1146 C1134 1.349 . S
C1146 H1140 0.950 . S
C1146 C1147 1.327 . S
C1147 H1141 0.950 . S
C1147 C1146 1.327 . S
C1147 C1151 1.429 . S
C1148 C1131 1.574 . S
C1148 H1142 0.949 . S
C1148 C1152 1.368 . S
C1149 C1130 1.429 . S
C1149 C1143 1.429 . S
C1149 C1150 1.523 . S
C1150 C1131 1.368 . S
C1150 C1144 1.368 . S
C1150 C1149 1.523 . S
C1151 C1135 1.429 . S
C1151 C1147 1.429 . S
C1151 C1152 1.523 . S
C1152 C1136 1.368 . S
C1152 C1148 1.368 . S
C1152 C1151 1.523 . S
H1153 C1128 0.950 . S
H1154 C1130 0.950 . S
H1155 C1131 0.949 . S
H1156 C1133 0.950 . S
H1157 C1135 0.950 . S
C1158 C1159 1.349 . S
C1158 C1160 1.327 . S
C1158 H1183 0.950 . S
C1159 C1158 1.349 . S
C1159 C1175 1.349 . S
C1160 C1158 1.327 . S
C1160 C1179 1.429 . S
C1160 H1184 0.950 . S
C1161 C1178 1.574 . S
C1161 C1180 1.368 . S
C1161 H1185 0.949 . S
H1162 C1166 0.949 . S
C1163 C1164 1.349 . S
C1163 C1165 1.327 . S
C1163 H1186 0.950 . S
C1164 C1163 1.349 . S
C1164 C1176 1.349 . S
C1165 C1163 1.327 . S
C1165 C1181 1.429 . S
C1165 H1187 0.950 . S
C1166 H1162 0.949 . S
C1166 C1174 1.574 . S
C1166 C1182 1.368 . S
H1167 C1175 0.950 . S
H1168 C1173 0.950 . S
H1169 C1174 0.949 . S
H1170 C1176 0.950 . S
H1171 C1177 0.950 . S
H1172 C1178 0.949 . S
C1173 H1168 0.950 . S
C1173 C1175 1.327 . S
C1173 C1179 1.429 . S
C1174 C1166 1.574 . S
C1174 H1169 0.949 . S
C1174 C1180 1.368 . S
C1175 C1159 1.349 . S
C1175 H1167 0.950 . S
C1175 C1173 1.327 . S
C1176 C1164 1.349 . S
C1176 H1170 0.950 . S
C1176 C1177 1.327 . S
C1177 H1171 0.950 . S
C1177 C1176 1.327 . S
C1177 C1181 1.429 . S
C1178 C1161 1.574 . S
C1178 H1172 0.949 . S
C1178 C1182 1.368 . S
C1179 C1160 1.429 . S
C1179 C1173 1.429 . S
C1179 C1180 1.523 . S
C1180 C1161 1.368 . S
C1180 C1174 1.368 . S
C1180 C1179 1.523 . S
C1181 C1165 1.429 . S
C1181 C1177 1.429 . S
C1181 C1182 1.523 . S
C1182 C1166 1.368 . S
C1182 C1178 1.368 . S
C1182 C1181 1.523 . S
H1183 C1158 0.950 . S
H1184 C1160 0.950 . S
H1185 C1161 0.949 . S
H1186 C1163 0.950 . S
H1187 C1165 0.950 . S
C1188 C1189 1.349 . S
C1188 C1190 1.327 . S
C1188 H1213 0.950 . S
C1189 C1188 1.349 . S
C1189 C1205 1.349 . S
C1190 C1188 1.327 . S
C1190 C1209 1.429 . S
C1190 H1214 0.950 . S
C1191 C1208 1.574 . S
C1191 C1210 1.368 . S
C1191 H1215 0.949 . S
H1192 C1196 0.949 . S
C1193 C1194 1.349 . S
C1193 C1195 1.327 . S
C1193 H1216 0.950 . S
C1194 C1193 1.349 . S
C1194 C1206 1.349 . S
C1195 C1193 1.327 . S
C1195 C1211 1.429 . S
C1195 H1217 0.950 . S
C1196 H1192 0.949 . S
C1196 C1204 1.574 . S
C1196 C1212 1.368 . S
H1197 C1205 0.950 . S
H1198 C1203 0.950 . S
H1199 C1204 0.949 . S
H1200 C1206 0.950 . S
H1201 C1207 0.950 . S
H1202 C1208 0.949 . S
C1203 H1198 0.950 . S
C1203 C1205 1.327 . S
C1203 C1209 1.429 . S
C1204 C1196 1.574 . S
C1204 H1199 0.949 . S
C1204 C1210 1.368 . S
C1205 C1189 1.349 . S
C1205 H1197 0.950 . S
C1205 C1203 1.327 . S
C1206 C1194 1.349 . S
C1206 H1200 0.950 . S
C1206 C1207 1.327 . S
C1207 H1201 0.950 . S
C1207 C1206 1.327 . S
C1207 C1211 1.429 . S
C1208 C1191 1.574 . S
C1208 H1202 0.949 . S
C1208 C1212 1.368 . S
C1209 C1190 1.429 . S
C1209 C1203 1.429 . S
C1209 C1210 1.523 . S
C1210 C1191 1.368 . S
C1210 C1204 1.368 . S
C1210 C1209 1.523 . S
C1211 C1195 1.429 . S
C1211 C1207 1.429 . S
C1211 C1212 1.523 . S
C1212 C1196 1.368 . S
C1212 C1208 1.368 . S
C1212 C1211 1.523 . S
H1213 C1188 0.950 . S
H1214 C1190 0.950 . S
H1215 C1191 0.949 . S
H1216 C1193 0.950 . S
H1217 C1195 0.950 . S
C1218 C1219 1.349 . S
C1218 C1220 1.327 . S
C1218 H1243 0.950 . S
C1219 C1218 1.349 . S
C1219 C1235 1.349 . S
C1220 C1218 1.327 . S
C1220 C1239 1.429 . S
C1220 H1244 0.950 . S
C1221 C1238 1.574 . S
C1221 C1240 1.368 . S
C1221 H1245 0.949 . S
H1222 C1226 0.949 . S
C1223 C1224 1.349 . S
C1223 C1225 1.327 . S
C1223 H1246 0.950 . S
C1224 C1223 1.349 . S
C1224 C1236 1.349 . S
C1225 C1223 1.327 . S
C1225 C1241 1.429 . S
C1225 H1247 0.950 . S
C1226 H1222 0.949 . S
C1226 C1234 1.574 . S
C1226 C1242 1.368 . S
H1227 C1235 0.950 . S
H1228 C1233 0.950 . S
H1229 C1234 0.949 . S
H1230 C1236 0.950 . S
H1231 C1237 0.950 . S
H1232 C1238 0.949 . S
C1233 H1228 0.950 . S
C1233 C1235 1.327 . S
C1233 C1239 1.429 . S
C1234 C1226 1.574 . S
C1234 H1229 0.949 . S
C1234 C1240 1.368 . S
C1235 C1219 1.349 . S
C1235 H1227 0.950 . S
C1235 C1233 1.327 . S
C1236 C1224 1.349 . S
C1236 H1230 0.950 . S
C1236 C1237 1.327 . S
C1237 H1231 0.950 . S
C1237 C1236 1.327 . S
C1237 C1241 1.429 . S
C1238 C1221 1.574 . S
C1238 H1232 0.949 . S
C1238 C1242 1.368 . S
C1239 C1220 1.429 . S
C1239 C1233 1.429 . S
C1239 C1240 1.523 . S
C1240 C1221 1.368 . S
C1240 C1234 1.368 . S
C1240 C1239 1.523 . S
C1241 C1225 1.429 . S
C1241 C1237 1.429 . S
C1241 C1242 1.523 . S
C1242 C1226 1.368 . S
C1242 C1238 1.368 . S
C1242 C1241 1.523 . S
H1243 C1218 0.950 . S
H1244 C1220 0.950 . S
H1245 C1221 0.949 . S
H1246 C1223 0.950 . S
H1247 C1225 0.950 . S
C1248 C1249 1.349 . S
C1248 C1250 1.327 . S
C1248 H1273 0.950 . S
C1249 C1248 1.349 . S
C1249 C1265 1.349 . S
C1250 C1248 1.327 . S
C1250 C1269 1.429 . S
C1250 H1274 0.950 . S
C1251 C1268 1.574 . S
C1251 C1270 1.368 . S
C1251 H1275 0.949 . S
H1252 C1256 0.949 . S
C1253 C1254 1.349 . S
C1253 C1255 1.327 . S
C1253 H1276 0.950 . S
C1254 C1253 1.349 . S
C1254 C1266 1.349 . S
C1255 C1253 1.327 . S
C1255 C1271 1.429 . S
C1255 H1277 0.950 . S
C1256 H1252 0.949 . S
C1256 C1264 1.574 . S
C1256 C1272 1.368 . S
H1257 C1265 0.950 . S
H1258 C1263 0.950 . S
H1259 C1264 0.949 . S
H1260 C1266 0.950 . S
H1261 C1267 0.950 . S
H1262 C1268 0.949 . S
C1263 H1258 0.950 . S
C1263 C1265 1.327 . S
C1263 C1269 1.429 . S
C1264 C1256 1.574 . S
C1264 H1259 0.949 . S
C1264 C1270 1.368 . S
C1265 C1249 1.349 . S
C1265 H1257 0.950 . S
C1265 C1263 1.327 . S
C1266 C1254 1.349 . S
C1266 H1260 0.950 . S
C1266 C1267 1.327 . S
C1267 H1261 0.950 . S
C1267 C1266 1.327 . S
C1267 C1271 1.429 . S
C1268 C1251 1.574 . S
C1268 H1262 0.949 . S
C1268 C1272 1.368 . S
C1269 C1250 1.429 . S
C1269 C1263 1.429 . S
C1269 C1270 1.523 . S
C1270 C1251 1.368 . S
C1270 C1264 1.368 . S
C1270 C1269 1.523 . S
C1271 C1255 1.429 . S
C1271 C1267 1.429 . S
C1271 C1272 1.523 . S
C1272 C1256 1.368 . S
C1272 C1268 1.368 . S
C1272 C1271 1.523 . S
H1273 C1248 0.950 . S
H1274 C1250 0.950 . S
H1275 C1251 0.949 . S
H1276 C1253 0.950 . S
H1277 C1255 0.950 . S
C1278 C1279 1.349 . S
C1278 C1280 1.327 . S
C1278 H1303 0.950 . S
C1279 C1278 1.349 . S
C1279 C1295 1.349 . S
C1280 C1278 1.327 . S
C1280 C1299 1.429 . S
C1280 H1304 0.950 . S
C1281 C1298 1.574 . S
C1281 C1300 1.368 . S
C1281 H1305 0.949 . S
H1282 C1286 0.949 . S
C1283 C1284 1.349 . S
C1283 C1285 1.327 . S
C1283 H1306 0.950 . S
C1284 C1283 1.349 . S
C1284 C1296 1.349 . S
C1285 C1283 1.327 . S
C1285 C1301 1.429 . S
C1285 H1307 0.950 . S
C1286 H1282 0.949 . S
C1286 C1294 1.574 . S
C1286 C1302 1.368 . S
H1287 C1295 0.950 . S
H1288 C1293 0.950 . S
H1289 C1294 0.949 . S
H1290 C1296 0.950 . S
H1291 C1297 0.950 . S
H1292 C1298 0.949 . S
C1293 H1288 0.950 . S
C1293 C1295 1.327 . S
C1293 C1299 1.429 . S
C1294 C1286 1.574 . S
C1294 H1289 0.949 . S
C1294 C1300 1.368 . S
C1295 C1279 1.349 . S
C1295 H1287 0.950 . S
C1295 C1293 1.327 . S
C1296 C1284 1.349 . S
C1296 H1290 0.950 . S
C1296 C1297 1.327 . S
C1297 H1291 0.950 . S
C1297 C1296 1.327 . S
C1297 C1301 1.429 . S
C1298 C1281 1.574 . S
C1298 H1292 0.949 . S
C1298 C1302 1.368 . S
C1299 C1280 1.429 . S
C1299 C1293 1.429 . S
C1299 C1300 1.523 . S
C1300 C1281 1.368 . S
C1300 C1294 1.368 . S
C1300 C1299 1.523 . S
C1301 C1285 1.429 . S
C1301 C1297 1.429 . S
C1301 C1302 1.523 . S
C1302 C1286 1.368 . S
C1302 C1298 1.368 . S
C1302 C1301 1.523 . S
H1303 C1278 0.950 . S
H1304 C1280 0.950 . S
H1305 C1281 0.949 . S
H1306 C1283 0.950 . S
H1307 C1285 0.950 . S
C1308 C1309 1.349 . S
C1308 C1310 1.327 . S
C1308 H1333 0.950 . S
C1309 C1308 1.349 . S
C1309 C1325 1.349 . S
C1310 C1308 1.327 . S
C1310 C1329 1.429 . S
C1310 H1334 0.950 . S
C1311 C1328 1.574 . S
C1311 C1330 1.368 . S
C1311 H1335 0.949 . S
H1312 C1316 0.949 . S
C1313 C1314 1.349 . S
C1313 C1315 1.327 . S
C1313 H1336 0.950 . S
C1314 C1313 1.349 . S
C1314 C1326 1.349 . S
C1315 C1313 1.327 . S
C1315 C1331 1.429 . S
C1315 H1337 0.950 . S
C1316 H1312 0.949 . S
C1316 C1324 1.574 . S
C1316 C1332 1.368 . S
H1317 C1325 0.950 . S
H1318 C1323 0.950 . S
H1319 C1324 0.949 . S
H1320 C1326 0.950 . S
H1321 C1327 0.950 . S
H1322 C1328 0.949 . S
C1323 H1318 0.950 . S
C1323 C1325 1.327 . S
C1323 C1329 1.429 . S
C1324 C1316 1.574 . S
C1324 H1319 0.949 . S
C1324 C1330 1.368 . S
C1325 C1309 1.349 . S
C1325 H1317 0.950 . S
C1325 C1323 1.327 . S
C1326 C1314 1.349 . S
C1326 H1320 0.950 . S
C1326 C1327 1.327 . S
C1327 H1321 0.950 . S
C1327 C1326 1.327 . S
C1327 C1331 1.429 . S
C1328 C1311 1.574 . S
C1328 H1322 0.949 . S
C1328 C1332 1.368 . S
C1329 C1310 1.429 . S
C1329 C1323 1.429 . S
C1329 C1330 1.523 . S
C1330 C1311 1.368 . S
C1330 C1324 1.368 . S
C1330 C1329 1.523 . S
C1331 C1315 1.429 . S
C1331 C1327 1.429 . S
C1331 C1332 1.523 . S
C1332 C1316 1.368 . S
C1332 C1328 1.368 . S
C1332 C1331 1.523 . S
H1333 C1308 0.950 . S
H1334 C1310 0.950 . S
H1335 C1311 0.949 . S
H1336 C1313 0.950 . S
H1337 C1315 0.950 . S
C1338 C1339 1.349 . S
C1338 C1340 1.327 . S
C1338 H1363 0.950 . S
C1339 C1338 1.349 . S
C1339 C1355 1.349 . S
C1340 C1338 1.327 . S
C1340 C1359 1.429 . S
C1340 H1364 0.950 . S
C1341 C1358 1.574 . S
C1341 C1360 1.368 . S
C1341 H1365 0.949 . S
H1342 C1346 0.949 . S
C1343 C1344 1.349 . S
C1343 C1345 1.327 . S
C1343 H1366 0.950 . S
C1344 C1343 1.349 . S
C1344 C1356 1.349 . S
C1345 C1343 1.327 . S
C1345 C1361 1.429 . S
C1345 H1367 0.950 . S
C1346 H1342 0.949 . S
C1346 C1354 1.574 . S
C1346 C1362 1.368 . S
H1347 C1355 0.950 . S
H1348 C1353 0.950 . S
H1349 C1354 0.949 . S
H1350 C1356 0.950 . S
H1351 C1357 0.950 . S
H1352 C1358 0.949 . S
C1353 H1348 0.950 . S
C1353 C1355 1.327 . S
C1353 C1359 1.429 . S
C1354 C1346 1.574 . S
C1354 H1349 0.949 . S
C1354 C1360 1.368 . S
C1355 C1339 1.349 . S
C1355 H1347 0.950 . S
C1355 C1353 1.327 . S
C1356 C1344 1.349 . S
C1356 H1350 0.950 . S
C1356 C1357 1.327 . S
C1357 H1351 0.950 . S
C1357 C1356 1.327 . S
C1357 C1361 1.429 . S
C1358 C1341 1.574 . S
C1358 H1352 0.949 . S
C1358 C1362 1.368 . S
C1359 C1340 1.429 . S
C1359 C1353 1.429 . S
C1359 C1360 1.523 . S
C1360 C1341 1.368 . S
C1360 C1354 1.368 . S
C1360 C1359 1.523 . S
C1361 C1345 1.429 . S
C1361 C1357 1.429 . S
C1361 C1362 1.523 . S
C1362 C1346 1.368 . S
C1362 C1358 1.368 . S
C1362 C1361 1.523 . S
H1363 C1338 0.950 . S
H1364 C1340 0.950 . S
H1365 C1341 0.949 . S
H1366 C1343 0.950 . S
H1367 C1345 0.950 . S
C1368 C1369 1.349 . S
C1368 C1370 1.327 . S
C1368 H1393 0.950 . S
C1369 C1368 1.349 . S
C1369 C1385 1.349 . S
C1370 C1368 1.327 . S
C1370 C1389 1.429 . S
C1370 H1394 0.950 . S
C1371 C1388 1.574 . S
C1371 C1390 1.368 . S
C1371 H1395 0.949 . S
H1372 C1376 0.949 . S
C1373 C1374 1.349 . S
C1373 C1375 1.327 . S
C1373 H1396 0.950 . S
C1374 C1373 1.349 . S
C1374 C1386 1.349 . S
C1375 C1373 1.327 . S
C1375 C1391 1.429 . S
C1375 H1397 0.950 . S
C1376 H1372 0.949 . S
C1376 C1384 1.574 . S
C1376 C1392 1.368 . S
H1377 C1385 0.950 . S
H1378 C1383 0.950 . S
H1379 C1384 0.949 . S
H1380 C1386 0.950 . S
H1381 C1387 0.950 . S
H1382 C1388 0.949 . S
C1383 H1378 0.950 . S
C1383 C1385 1.327 . S
C1383 C1389 1.429 . S
C1384 C1376 1.574 . S
C1384 H1379 0.949 . S
C1384 C1390 1.368 . S
C1385 C1369 1.349 . S
C1385 H1377 0.950 . S
C1385 C1383 1.327 . S
C1386 C1374 1.349 . S
C1386 H1380 0.950 . S
C1386 C1387 1.327 . S
C1387 H1381 0.950 . S
C1387 C1386 1.327 . S
C1387 C1391 1.429 . S
C1388 C1371 1.574 . S
C1388 H1382 0.949 . S
C1388 C1392 1.368 . S
C1389 C1370 1.429 . S
C1389 C1383 1.429 . S
C1389 C1390 1.523 . S
C1390 C1371 1.368 . S
C1390 C1384 1.368 . S
C1390 C1389 1.523 . S
C1391 C1375 1.429 . S
C1391 C1387 1.429 . S
C1391 C1392 1.523 . S
C1392 C1376 1.368 . S
C1392 C1388 1.368 . S
C1392 C1391 1.523 . S
H1393 C1368 0.950 . S
H1394 C1370 0.950 . S
H1395 C1371 0.949 . S
H1396 C1373 0.950 . S
H1397 C1375 0.950 . S
C1398 C1399 1.349 . S
C1398 C1400 1.327 . S
C1398 H1423 0.950 . S
C1399 C1398 1.349 . S
C1399 C1415 1.349 . S
C1400 C1398 1.327 . S
C1400 C1419 1.429 . S
C1400 H1424 0.950 . S
C1401 C1418 1.574 . S
C1401 C1420 1.368 . S
C1401 H1425 0.949 . S
H1402 C1406 0.949 . S
C1403 C1404 1.349 . S
C1403 C1405 1.327 . S
C1403 H1426 0.950 . S
C1404 C1403 1.349 . S
C1404 C1416 1.349 . S
C1405 C1403 1.327 . S
C1405 C1421 1.429 . S
C1405 H1427 0.950 . S
C1406 H1402 0.949 . S
C1406 C1414 1.574 . S
C1406 C1422 1.368 . S
H1407 C1415 0.950 . S
H1408 C1413 0.950 . S
H1409 C1414 0.949 . S
H1410 C1416 0.950 . S
H1411 C1417 0.950 . S
H1412 C1418 0.949 . S
C1413 H1408 0.950 . S
C1413 C1415 1.327 . S
C1413 C1419 1.429 . S
C1414 C1406 1.574 . S
C1414 H1409 0.949 . S
C1414 C1420 1.368 . S
C1415 C1399 1.349 . S
C1415 H1407 0.950 . S
C1415 C1413 1.327 . S
C1416 C1404 1.349 . S
C1416 H1410 0.950 . S
C1416 C1417 1.327 . S
C1417 H1411 0.950 . S
C1417 C1416 1.327 . S
C1417 C1421 1.429 . S
C1418 C1401 1.574 . S
C1418 H1412 0.949 . S
C1418 C1422 1.368 . S
C1419 C1400 1.429 . S
C1419 C1413 1.429 . S
C1419 C1420 1.523 . S
C1420 C1401 1.368 . S
C1420 C1414 1.368 . S
C1420 C1419 1.523 . S
C1421 C1405 1.429 . S
C1421 C1417 1.429 . S
C1421 C1422 1.523 . S
C1422 C1406 1.368 . S
C1422 C1418 1.368 . S
C1422 C1421 1.523 . S
H1423 C1398 0.950 . S
H1424 C1400 0.950 . S
H1425 C1401 0.949 . S
H1426 C1403 0.950 . S
H1427 C1405 0.950 . S
C1428 C1429 1.349 . S
C1428 C1430 1.327 . S
C1428 H1453 0.950 . S
C1429 C1428 1.349 . S
C1429 C1445 1.349 . S
C1430 C1428 1.327 . S
C1430 C1449 1.429 . S
C1430 H1454 0.950 . S
C1431 C1448 1.574 . S
C1431 C1450 1.368 . S
C1431 H1455 0.949 . S
H1432 C1436 0.949 . S
C1433 C1434 1.349 . S
C1433 C1435 1.327 . S
C1433 H1456 0.950 . S
C1434 C1433 1.349 . S
C1434 C1446 1.349 . S
C1435 C1433 1.327 . S
C1435 C1451 1.429 . S
C1435 H1457 0.950 . S
C1436 H1432 0.949 . S
C1436 C1444 1.574 . S
C1436 C1452 1.368 . S
H1437 C1445 0.950 . S
H1438 C1443 0.950 . S
H1439 C1444 0.949 . S
H1440 C1446 0.950 . S
H1441 C1447 0.950 . S
H1442 C1448 0.949 . S
C1443 H1438 0.950 . S
C1443 C1445 1.327 . S
C1443 C1449 1.429 . S
C1444 C1436 1.574 . S
C1444 H1439 0.949 . S
C1444 C1450 1.368 . S
C1445 C1429 1.349 . S
C1445 H1437 0.950 . S
C1445 C1443 1.327 . S
C1446 C1434 1.349 . S
C1446 H1440 0.950 . S
C1446 C1447 1.327 . S
C1447 H1441 0.950 . S
C1447 C1446 1.327 . S
C1447 C1451 1.429 . S
C1448 C1431 1.574 . S
C1448 H1442 0.949 . S
C1448 C1452 1.368 . S
C1449 C1430 1.429 . S
C1449 C1443 1.429 . S
C1449 C1450 1.523 . S
C1450 C1431 1.368 . S
C1450 C1444 1.368 . S
C1450 C1449 1.523 . S
C1451 C1435 1.429 . S
C1451 C1447 1.429 . S
C1451 C1452 1.523 . S
C1452 C1436 1.368 . S
C1452 C1448 1.368 . S
C1452 C1451 1.523 . S
H1453 C1428 0.950 . S
H1454 C1430 0.950 . S
H1455 C1431 0.949 . S
H1456 C1433 0.950 . S
H1457 C1435 0.950 . S
C1458 C1459 1.349 . S
C1458 C1460 1.327 . S
C1458 H1483 0.950 . S
C1459 C1458 1.349 . S
C1459 C1475 1.349 . S
C1460 C1458 1.327 . S
C1460 C1479 1.429 . S
C1460 H1484 0.950 . S
C1461 C1478 1.574 . S
C1461 C1480 1.368 . S
C1461 H1485 0.949 . S
H1462 C1466 0.949 . S
C1463 C1464 1.349 . S
C1463 C1465 1.327 . S
C1463 H1486 0.950 . S
C1464 C1463 1.349 . S
C1464 C1476 1.349 . S
C1465 C1463 1.327 . S
C1465 C1481 1.429 . S
C1465 H1487 0.950 . S
C1466 H1462 0.949 . S
C1466 C1474 1.574 . S
C1466 C1482 1.368 . S
H1467 C1475 0.950 . S
H1468 C1473 0.950 . S
H1469 C1474 0.949 . S
H1470 C1476 0.950 . S
H1471 C1477 0.950 . S
H1472 C1478 0.949 . S
C1473 H1468 0.950 . S
C1473 C1475 1.327 . S
C1473 C1479 1.429 . S
C1474 C1466 1.574 . S
C1474 H1469 0.949 . S
C1474 C1480 1.368 . S
C1475 C1459 1.349 . S
C1475 H1467 0.950 . S
C1475 C1473 1.327 . S
C1476 C1464 1.349 . S
C1476 H1470 0.950 . S
C1476 C1477 1.327 . S
C1477 H1471 0.950 . S
C1477 C1476 1.327 . S
C1477 C1481 1.429 . S
C1478 C1461 1.574 . S
C1478 H1472 0.949 . S
C1478 C1482 1.368 . S
C1479 C1460 1.429 . S
C1479 C1473 1.429 . S
C1479 C1480 1.523 . S
C1480 C1461 1.368 . S
C1480 C1474 1.368 . S
C1480 C1479 1.523 . S
C1481 C1465 1.429 . S
C1481 C1477 1.429 . S
C1481 C1482 1.523 . S
C1482 C1466 1.368 . S
C1482 C1478 1.368 . S
C1482 C1481 1.523 . S
H1483 C1458 0.950 . S
H1484 C1460 0.950 . S
H1485 C1461 0.949 . S
H1486 C1463 0.950 . S
H1487 C1465 0.950 . S
C1488 C1489 1.349 . S
C1488 C1490 1.327 . S
C1488 H1513 0.950 . S
C1489 C1488 1.349 . S
C1489 C1505 1.349 . S
C1490 C1488 1.327 . S
C1490 C1509 1.429 . S
C1490 H1514 0.950 . S
C1491 C1508 1.574 . S
C1491 C1510 1.368 . S
C1491 H1515 0.949 . S
H1492 C1496 0.949 . S
C1493 C1494 1.349 . S
C1493 C1495 1.327 . S
C1493 H1516 0.950 . S
C1494 C1493 1.349 . S
C1494 C1506 1.349 . S
C1495 C1493 1.327 . S
C1495 C1511 1.429 . S
C1495 H1517 0.950 . S
C1496 H1492 0.949 . S
C1496 C1504 1.574 . S
C1496 C1512 1.368 . S
H1497 C1505 0.950 . S
H1498 C1503 0.950 . S
H1499 C1504 0.949 . S
H1500 C1506 0.950 . S
H1501 C1507 0.950 . S
H1502 C1508 0.949 . S
C1503 H1498 0.950 . S
C1503 C1505 1.327 . S
C1503 C1509 1.429 . S
C1504 C1496 1.574 . S
C1504 H1499 0.949 . S
C1504 C1510 1.368 . S
C1505 C1489 1.349 . S
C1505 H1497 0.950 . S
C1505 C1503 1.327 . S
C1506 C1494 1.349 . S
C1506 H1500 0.950 . S
C1506 C1507 1.327 . S
C1507 H1501 0.950 . S
C1507 C1506 1.327 . S
C1507 C1511 1.429 . S
C1508 C1491 1.574 . S
C1508 H1502 0.949 . S
C1508 C1512 1.368 . S
C1509 C1490 1.429 . S
C1509 C1503 1.429 . S
C1509 C1510 1.523 . S
C1510 C1491 1.368 . S
C1510 C1504 1.368 . S
C1510 C1509 1.523 . S
C1511 C1495 1.429 . S
C1511 C1507 1.429 . S
C1511 C1512 1.523 . S
C1512 C1496 1.368 . S
C1512 C1508 1.368 . S
C1512 C1511 1.523 . S
H1513 C1488 0.950 . S
H1514 C1490 0.950 . S
H1515 C1491 0.949 . S
H1516 C1493 0.950 . S
H1517 C1495 0.950 . S
C1518 C1519 1.349 . S
C1518 C1520 1.327 . S
C1518 H1543 0.950 . S
C1519 C1518 1.349 . S
C1519 C1535 1.349 . S
C1520 C1518 1.327 . S
C1520 C1539 1.429 . S
C1520 H1544 0.950 . S
C1521 C1538 1.574 . S
C1521 C1540 1.368 . S
C1521 H1545 0.949 . S
H1522 C1526 0.949 . S
C1523 C1524 1.349 . S
C1523 C1525 1.327 . S
C1523 H1546 0.950 . S
C1524 C1523 1.349 . S
C1524 C1536 1.349 . S
C1525 C1523 1.327 . S
C1525 C1541 1.429 . S
C1525 H1547 0.950 . S
C1526 H1522 0.949 . S
C1526 C1534 1.574 . S
C1526 C1542 1.368 . S
H1527 C1535 0.950 . S
H1528 C1533 0.950 . S
H1529 C1534 0.949 . S
H1530 C1536 0.950 . S
H1531 C1537 0.950 . S
H1532 C1538 0.949 . S
C1533 H1528 0.950 . S
C1533 C1535 1.327 . S
C1533 C1539 1.429 . S
C1534 C1526 1.574 . S
C1534 H1529 0.949 . S
C1534 C1540 1.368 . S
C1535 C1519 1.349 . S
C1535 H1527 0.950 . S
C1535 C1533 1.327 . S
C1536 C1524 1.349 . S
C1536 H1530 0.950 . S
C1536 C1537 1.327 . S
C1537 H1531 0.950 . S
C1537 C1536 1.327 . S
C1537 C1541 1.429 . S
C1538 C1521 1.574 . S
C1538 H1532 0.949 . S
C1538 C1542 1.368 . S
C1539 C1520 1.429 . S
C1539 C1533 1.429 . S
C1539 C1540 1.523 . S
C1540 C1521 1.368 . S
C1540 C1534 1.368 . S
C1540 C1539 1.523 . S
C1541 C1525 1.429 . S
C1541 C1537 1.429 . S
C1541 C1542 1.523 . S
C1542 C1526 1.368 . S
C1542 C1538 1.368 . S
C1542 C1541 1.523 . S
H1543 C1518 0.950 . S
H1544 C1520 0.950 . S
H1545 C1521 0.949 . S
H1546 C1523 0.950 . S
H1547 C1525 0.950 . S
C1548 C1549 1.349 . S
C1548 C1550 1.327 . S
C1548 H1573 0.950 . S
C1549 C1548 1.349 . S
C1549 C1565 1.349 . S
C1550 C1548 1.327 . S
C1550 C1569 1.429 . S
C1550 H1574 0.950 . S
C1551 C1568 1.574 . S
C1551 C1570 1.368 . S
C1551 H1575 0.949 . S
H1552 C1556 0.949 . S
C1553 C1554 1.349 . S
C1553 C1555 1.327 . S
C1553 H1576 0.950 . S
C1554 C1553 1.349 . S
C1554 C1566 1.349 . S
C1555 C1553 1.327 . S
C1555 C1571 1.429 . S
C1555 H1577 0.950 . S
C1556 H1552 0.949 . S
C1556 C1564 1.574 . S
C1556 C1572 1.368 . S
H1557 C1565 0.950 . S
H1558 C1563 0.950 . S
H1559 C1564 0.949 . S
H1560 C1566 0.950 . S
H1561 C1567 0.950 . S
H1562 C1568 0.949 . S
C1563 H1558 0.950 . S
C1563 C1565 1.327 . S
C1563 C1569 1.429 . S
C1564 C1556 1.574 . S
C1564 H1559 0.949 . S
C1564 C1570 1.368 . S
C1565 C1549 1.349 . S
C1565 H1557 0.950 . S
C1565 C1563 1.327 . S
C1566 C1554 1.349 . S
C1566 H1560 0.950 . S
C1566 C1567 1.327 . S
C1567 H1561 0.950 . S
C1567 C1566 1.327 . S
C1567 C1571 1.429 . S
C1568 C1551 1.574 . S
C1568 H1562 0.949 . S
C1568 C1572 1.368 . S
C1569 C1550 1.429 . S
C1569 C1563 1.429 . S
C1569 C1570 1.523 . S
C1570 C1551 1.368 . S
C1570 C1564 1.368 . S
C1570 C1569 1.523 . S
C1571 C1555 1.429 . S
C1571 C1567 1.429 . S
C1571 C1572 1.523 . S
C1572 C1556 1.368 . S
C1572 C1568 1.368 . S
C1572 C1571 1.523 . S
H1573 C1548 0.950 . S
H1574 C1550 0.950 . S
H1575 C1551 0.949 . S
H1576 C1553 0.950 . S
H1577 C1555 0.950 . S
C1578 C1579 1.349 . S
C1578 C1580 1.327 . S
C1578 H1603 0.950 . S
C1579 C1578 1.349 . S
C1579 C1595 1.349 . S
C1580 C1578 1.327 . S
C1580 C1599 1.429 . S
C1580 H1604 0.950 . S
C1581 C1598 1.574 . S
C1581 C1600 1.368 . S
C1581 H1605 0.949 . S
H1582 C1586 0.949 . S
C1583 C1584 1.349 . S
C1583 C1585 1.327 . S
C1583 H1606 0.950 . S
C1584 C1583 1.349 . S
C1584 C1596 1.349 . S
C1585 C1583 1.327 . S
C1585 C1601 1.429 . S
C1585 H1607 0.950 . S
C1586 H1582 0.949 . S
C1586 C1594 1.574 . S
C1586 C1602 1.368 . S
H1587 C1595 0.950 . S
H1588 C1593 0.950 . S
H1589 C1594 0.949 . S
H1590 C1596 0.950 . S
H1591 C1597 0.950 . S
H1592 C1598 0.949 . S
C1593 H1588 0.950 . S
C1593 C1595 1.327 . S
C1593 C1599 1.429 . S
C1594 C1586 1.574 . S
C1594 H1589 0.949 . S
C1594 C1600 1.368 . S
C1595 C1579 1.349 . S
C1595 H1587 0.950 . S
C1595 C1593 1.327 . S
C1596 C1584 1.349 . S
C1596 H1590 0.950 . S
C1596 C1597 1.327 . S
C1597 H1591 0.950 . S
C1597 C1596 1.327 . S
C1597 C1601 1.429 . S
C1598 C1581 1.574 . S
C1598 H1592 0.949 . S
C1598 C1602 1.368 . S
C1599 C1580 1.429 . S
C1599 C1593 1.429 . S
C1599 C1600 1.523 . S
C1600 C1581 1.368 . S
C1600 C1594 1.368 . S
C1600 C1599 1.523 . S
C1601 C1585 1.429 . S
C1601 C1597 1.429 . S
C1601 C1602 1.523 . S
C1602 C1586 1.368 . S
C1602 C1598 1.368 . S
C1602 C1601 1.523 . S
H1603 C1578 0.950 . S
H1604 C1580 0.950 . S
H1605 C1581 0.949 . S
H1606 C1583 0.950 . S
H1607 C1585 0.950 . S
C1608 C1609 1.349 . S
C1608 C1610 1.327 . S
C1608 H1633 0.950 . S
C1609 C1608 1.349 . S
C1609 C1625 1.349 . S
C1610 C1608 1.327 . S
C1610 C1629 1.429 . S
C1610 H1634 0.950 . S
C1611 C1628 1.574 . S
C1611 C1630 1.368 . S
C1611 H1635 0.949 . S
H1612 C1616 0.949 . S
C1613 C1614 1.349 . S
C1613 C1615 1.327 . S
C1613 H1636 0.950 . S
C1614 C1613 1.349 . S
C1614 C1626 1.349 . S
C1615 C1613 1.327 . S
C1615 C1631 1.429 . S
C1615 H1637 0.950 . S
C1616 H1612 0.949 . S
C1616 C1624 1.574 . S
C1616 C1632 1.368 . S
H1617 C1625 0.950 . S
H1618 C1623 0.950 . S
H1619 C1624 0.949 . S
H1620 C1626 0.950 . S
H1621 C1627 0.950 . S
H1622 C1628 0.949 . S
C1623 H1618 0.950 . S
C1623 C1625 1.327 . S
C1623 C1629 1.429 . S
C1624 C1616 1.574 . S
C1624 H1619 0.949 . S
C1624 C1630 1.368 . S
C1625 C1609 1.349 . S
C1625 H1617 0.950 . S
C1625 C1623 1.327 . S
C1626 C1614 1.349 . S
C1626 H1620 0.950 . S
C1626 C1627 1.327 . S
C1627 H1621 0.950 . S
C1627 C1626 1.327 . S
C1627 C1631 1.429 . S
C1628 C1611 1.574 . S
C1628 H1622 0.949 . S
C1628 C1632 1.368 . S
C1629 C1610 1.429 . S
C1629 C1623 1.429 . S
C1629 C1630 1.523 . S
C1630 C1611 1.368 . S
C1630 C1624 1.368 . S
C1630 C1629 1.523 . S
C1631 C1615 1.429 . S
C1631 C1627 1.429 . S
C1631 C1632 1.523 . S
C1632 C1616 1.368 . S
C1632 C1628 1.368 . S
C1632 C1631 1.523 . S
H1633 C1608 0.950 . S
H1634 C1610 0.950 . S
H1635 C1611 0.949 . S
H1636 C1613 0.950 . S
H1637 C1615 0.950 . S
C1638 C1639 1.349 . S
C1638 C1640 1.327 . S
C1638 H1663 0.950 . S
C1639 C1638 1.349 . S
C1639 C1655 1.349 . S
C1640 C1638 1.327 . S
C1640 C1659 1.429 . S
C1640 H1664 0.950 . S
C1641 C1658 1.574 . S
C1641 C1660 1.368 . S
C1641 H1665 0.949 . S
H1642 C1646 0.949 . S
C1643 C1644 1.349 . S
C1643 C1645 1.327 . S
C1643 H1666 0.950 . S
C1644 C1643 1.349 . S
C1644 C1656 1.349 . S
C1645 C1643 1.327 . S
C1645 C1661 1.429 . S
C1645 H1667 0.950 . S
C1646 H1642 0.949 . S
C1646 C1654 1.574 . S
C1646 C1662 1.368 . S
H1647 C1655 0.950 . S
H1648 C1653 0.950 . S
H1649 C1654 0.949 . S
H1650 C1656 0.950 . S
H1651 C1657 0.950 . S
H1652 C1658 0.949 . S
C1653 H1648 0.950 . S
C1653 C1655 1.327 . S
C1653 C1659 1.429 . S
C1654 C1646 1.574 . S
C1654 H1649 0.949 . S
C1654 C1660 1.368 . S
C1655 C1639 1.349 . S
C1655 H1647 0.950 . S
C1655 C1653 1.327 . S
C1656 C1644 1.349 . S
C1656 H1650 0.950 . S
C1656 C1657 1.327 . S
C1657 H1651 0.950 . S
C1657 C1656 1.327 . S
C1657 C1661 1.429 . S
C1658 C1641 1.574 . S
C1658 H1652 0.949 . S
C1658 C1662 1.368 . S
C1659 C1640 1.429 . S
C1659 C1653 1.429 . S
C1659 C1660 1.523 . S
C1660 C1641 1.368 . S
C1660 C1654 1.368 . S
C1660 C1659 1.523 . S
C1661 C1645 1.429 . S
C1661 C1657 1.429 . S
C1661 C1662 1.523 . S
C1662 C1646 1.368 . S
C1662 C1658 1.368 . S
C1662 C1661 1.523 . S
H1663 C1638 0.950 . S
H1664 C1640 0.950 . S
H1665 C1641 0.949 . S
H1666 C1643 0.950 . S
H1667 C1645 0.950 . S
C1668 C1669 1.349 . S
C1668 C1670 1.327 . S
C1668 H1693 0.950 . S
C1669 C1668 1.349 . S
C1669 C1685 1.349 . S
C1670 C1668 1.327 . S
C1670 C1689 1.429 . S
C1670 H1694 0.950 . S
C1671 C1688 1.574 . S
C1671 C1690 1.368 . S
C1671 H1695 0.949 . S
H1672 C1676 0.949 . S
C1673 C1674 1.349 . S
C1673 C1675 1.327 . S
C1673 H1696 0.950 . S
C1674 C1673 1.349 . S
C1674 C1686 1.349 . S
C1675 C1673 1.327 . S
C1675 C1691 1.429 . S
C1675 H1697 0.950 . S
C1676 H1672 0.949 . S
C1676 C1684 1.574 . S
C1676 C1692 1.368 . S
H1677 C1685 0.950 . S
H1678 C1683 0.950 . S
H1679 C1684 0.949 . S
H1680 C1686 0.950 . S
H1681 C1687 0.950 . S
H1682 C1688 0.949 . S
C1683 H1678 0.950 . S
C1683 C1685 1.327 . S
C1683 C1689 1.429 . S
C1684 C1676 1.574 . S
C1684 H1679 0.949 . S
C1684 C1690 1.368 . S
C1685 C1669 1.349 . S
C1685 H1677 0.950 . S
C1685 C1683 1.327 . S
C1686 C1674 1.349 . S
C1686 H1680 0.950 . S
C1686 C1687 1.327 . S
C1687 H1681 0.950 . S
C1687 C1686 1.327 . S
C1687 C1691 1.429 . S
C1688 C1671 1.574 . S
C1688 H1682 0.949 . S
C1688 C1692 1.368 . S
C1689 C1670 1.429 . S
C1689 C1683 1.429 . S
C1689 C1690 1.523 . S
C1690 C1671 1.368 . S
C1690 C1684 1.368 . S
C1690 C1689 1.523 . S
C1691 C1675 1.429 . S
C1691 C1687 1.429 . S
C1691 C1692 1.523 . S
C1692 C1676 1.368 . S
C1692 C1688 1.368 . S
C1692 C1691 1.523 . S
H1693 C1668 0.950 . S
H1694 C1670 0.950 . S
H1695 C1671 0.949 . S
H1696 C1673 0.950 . S
H1697 C1675 0.950 . S
C1698 C1699 1.349 . S
C1698 C1700 1.327 . S
C1698 H1723 0.950 . S
C1699 C1698 1.349 . S
C1699 C1715 1.349 . S
C1700 C1698 1.327 . S
C1700 C1719 1.429 . S
C1700 H1724 0.950 . S
C1701 C1718 1.574 . S
C1701 C1720 1.368 . S
C1701 H1725 0.949 . S
H1702 C1706 0.949 . S
C1703 C1704 1.349 . S
C1703 C1705 1.327 . S
C1703 H1726 0.950 . S
C1704 C1703 1.349 . S
C1704 C1716 1.349 . S
C1705 C1703 1.327 . S
C1705 C1721 1.429 . S
C1705 H1727 0.950 . S
C1706 H1702 0.949 . S
C1706 C1714 1.574 . S
C1706 C1722 1.368 . S
H1707 C1715 0.950 . S
H1708 C1713 0.950 . S
H1709 C1714 0.949 . S
H1710 C1716 0.950 . S
H1711 C1717 0.950 . S
H1712 C1718 0.949 . S
C1713 H1708 0.950 . S
C1713 C1715 1.327 . S
C1713 C1719 1.429 . S
C1714 C1706 1.574 . S
C1714 H1709 0.949 . S
C1714 C1720 1.368 . S
C1715 C1699 1.349 . S
C1715 H1707 0.950 . S
C1715 C1713 1.327 . S
C1716 C1704 1.349 . S
C1716 H1710 0.950 . S
C1716 C1717 1.327 . S
C1717 H1711 0.950 . S
C1717 C1716 1.327 . S
C1717 C1721 1.429 . S
C1718 C1701 1.574 . S
C1718 H1712 0.949 . S
C1718 C1722 1.368 . S
C1719 C1700 1.429 . S
C1719 C1713 1.429 . S
C1719 C1720 1.523 . S
C1720 C1701 1.368 . S
C1720 C1714 1.368 . S
C1720 C1719 1.523 . S
C1721 C1705 1.429 . S
C1721 C1717 1.429 . S
C1721 C1722 1.523 . S
C1722 C1706 1.368 . S
C1722 C1718 1.368 . S
C1722 C1721 1.523 . S
H1723 C1698 0.950 . S
H1724 C1700 0.950 . S
H1725 C1701 0.949 . S
H1726 C1703 0.950 . S
H1727 C1705 0.950 . S
C1728 C1729 1.349 . S
C1728 C1730 1.327 . S
C1728 H1753 0.950 . S
C1729 C1728 1.349 . S
C1729 C1745 1.349 . S
C1730 C1728 1.327 . S
C1730 C1749 1.429 . S
C1730 H1754 0.950 . S
C1731 C1748 1.574 . S
C1731 C1750 1.368 . S
C1731 H1755 0.949 . S
H1732 C1736 0.949 . S
C1733 C1734 1.349 . S
C1733 C1735 1.327 . S
C1733 H1756 0.950 . S
C1734 C1733 1.349 . S
C1734 C1746 1.349 . S
C1735 C1733 1.327 . S
C1735 C1751 1.429 . S
C1735 H1757 0.950 . S
C1736 H1732 0.949 . S
C1736 C1744 1.574 . S
C1736 C1752 1.368 . S
H1737 C1745 0.950 . S
H1738 C1743 0.950 . S
H1739 C1744 0.949 . S
H1740 C1746 0.950 . S
H1741 C1747 0.950 . S
H1742 C1748 0.949 . S
C1743 H1738 0.950 . S
C1743 C1745 1.327 . S
C1743 C1749 1.429 . S
C1744 C1736 1.574 . S
C1744 H1739 0.949 . S
C1744 C1750 1.368 . S
C1745 C1729 1.349 . S
C1745 H1737 0.950 . S
C1745 C1743 1.327 . S
C1746 C1734 1.349 . S
C1746 H1740 0.950 . S
C1746 C1747 1.327 . S
C1747 H1741 0.950 . S
C1747 C1746 1.327 . S
C1747 C1751 1.429 . S
C1748 C1731 1.574 . S
C1748 H1742 0.949 . S
C1748 C1752 1.368 . S
C1749 C1730 1.429 . S
C1749 C1743 1.429 . S
C1749 C1750 1.523 . S
C1750 C1731 1.368 . S
C1750 C1744 1.368 . S
C1750 C1749 1.523 . S
C1751 C1735 1.429 . S
C1751 C1747 1.429 . S
C1751 C1752 1.523 . S
C1752 C1736 1.368 . S
C1752 C1748 1.368 . S
C1752 C1751 1.523 . S
H1753 C1728 0.950 . S
H1754 C1730 0.950 . S
H1755 C1731 0.949 . S
H1756 C1733 0.950 . S
H1757 C1735 0.950 . S
C1758 C1759 1.349 . S
C1758 C1760 1.327 . S
C1758 H1783 0.950 . S
C1759 C1758 1.349 . S
C1759 C1775 1.349 . S
C1760 C1758 1.327 . S
C1760 C1779 1.429 . S
C1760 H1784 0.950 . S
C1761 C1778 1.574 . S
C1761 C1780 1.368 . S
C1761 H1785 0.949 . S
H1762 C1766 0.949 . S
C1763 C1764 1.349 . S
C1763 C1765 1.327 . S
C1763 H1786 0.950 . S
C1764 C1763 1.349 . S
C1764 C1776 1.349 . S
C1765 C1763 1.327 . S
C1765 C1781 1.429 . S
C1765 H1787 0.950 . S
C1766 H1762 0.949 . S
C1766 C1774 1.574 . S
C1766 C1782 1.368 . S
H1767 C1775 0.950 . S
H1768 C1773 0.950 . S
H1769 C1774 0.949 . S
H1770 C1776 0.950 . S
H1771 C1777 0.950 . S
H1772 C1778 0.949 . S
C1773 H1768 0.950 . S
C1773 C1775 1.327 . S
C1773 C1779 1.429 . S
C1774 C1766 1.574 . S
C1774 H1769 0.949 . S
C1774 C1780 1.368 . S
C1775 C1759 1.349 . S
C1775 H1767 0.950 . S
C1775 C1773 1.327 . S
C1776 C1764 1.349 . S
C1776 H1770 0.950 . S
C1776 C1777 1.327 . S
C1777 H1771 0.950 . S
C1777 C1776 1.327 . S
C1777 C1781 1.429 . S
C1778 C1761 1.574 . S
C1778 H1772 0.949 . S
C1778 C1782 1.368 . S
C1779 C1760 1.429 . S
C1779 C1773 1.429 . S
C1779 C1780 1.523 . S
C1780 C1761 1.368 . S
C1780 C1774 1.368 . S
C1780 C1779 1.523 . S
C1781 C1765 1.429 . S
C1781 C1777 1.429 . S
C1781 C1782 1.523 . S
C1782 C1766 1.368 . S
C1782 C1778 1.368 . S
C1782 C1781 1.523 . S
H1783 C1758 0.950 . S
H1784 C1760 0.950 . S
H1785 C1761 0.949 . S
H1786 C1763 0.950 . S
H1787 C1765 0.950 . S
C1788 C1789 1.349 . S
C1788 C1790 1.327 . S
C1788 H1813 0.950 . S
C1789 C1788 1.349 . S
C1789 C1805 1.349 . S
C1790 C1788 1.327 . S
C1790 C1809 1.429 . S
C1790 H1814 0.950 . S
C1791 C1808 1.574 . S
C1791 C1810 1.368 . S
C1791 H1815 0.949 . S
H1792 C1796 0.949 . S
C1793 C1794 1.349 . S
C1793 C1795 1.327 . S
C1793 H1816 0.950 . S
C1794 C1793 1.349 . S
C1794 C1806 1.349 . S
C1795 C1793 1.327 . S
C1795 C1811 1.429 . S
C1795 H1817 0.950 . S
C1796 H1792 0.949 . S
C1796 C1804 1.574 . S
C1796 C1812 1.368 . S
H1797 C1805 0.950 . S
H1798 C1803 0.950 . S
H1799 C1804 0.949 . S
H1800 C1806 0.950 . S
H1801 C1807 0.950 . S
H1802 C1808 0.949 . S
C1803 H1798 0.950 . S
C1803 C1805 1.327 . S
C1803 C1809 1.429 . S
C1804 C1796 1.574 . S
C1804 H1799 0.949 . S
C1804 C1810 1.368 . S
C1805 C1789 1.349 . S
C1805 H1797 0.950 . S
C1805 C1803 1.327 . S
C1806 C1794 1.349 . S
C1806 H1800 0.950 . S
C1806 C1807 1.327 . S
C1807 H1801 0.950 . S
C1807 C1806 1.327 . S
C1807 C1811 1.429 . S
C1808 C1791 1.574 . S
C1808 H1802 0.949 . S
C1808 C1812 1.368 . S
C1809 C1790 1.429 . S
C1809 C1803 1.429 . S
C1809 C1810 1.523 . S
C1810 C1791 1.368 . S
C1810 C1804 1.368 . S
C1810 C1809 1.523 . S
C1811 C1795 1.429 . S
C1811 C1807 1.429 . S
C1811 C1812 1.523 . S
C1812 C1796 1.368 . S
C1812 C1808 1.368 . S
C1812 C1811 1.523 . S
H1813 C1788 0.950 . S
H1814 C1790 0.950 . S
H1815 C1791 0.949 . S
H1816 C1793 0.950 . S
H1817 C1795 0.950 . S
C1818 C1819 1.349 . S
C1818 C1820 1.327 . S
C1818 H1843 0.950 . S
C1819 C1818 1.349 . S
C1819 C1835 1.349 . S
C1820 C1818 1.327 . S
C1820 C1839 1.429 . S
C1820 H1844 0.950 . S
C1821 C1838 1.574 . S
C1821 C1840 1.368 . S
C1821 H1845 0.949 . S
H1822 C1826 0.949 . S
C1823 C1824 1.349 . S
C1823 C1825 1.327 . S
C1823 H1846 0.950 . S
C1824 C1823 1.349 . S
C1824 C1836 1.349 . S
C1825 C1823 1.327 . S
C1825 C1841 1.429 . S
C1825 H1847 0.950 . S
C1826 H1822 0.949 . S
C1826 C1834 1.574 . S
C1826 C1842 1.368 . S
H1827 C1835 0.950 . S
H1828 C1833 0.950 . S
H1829 C1834 0.949 . S
H1830 C1836 0.950 . S
H1831 C1837 0.950 . S
H1832 C1838 0.949 . S
C1833 H1828 0.950 . S
C1833 C1835 1.327 . S
C1833 C1839 1.429 . S
C1834 C1826 1.574 . S
C1834 H1829 0.949 . S
C1834 C1840 1.368 . S
C1835 C1819 1.349 . S
C1835 H1827 0.950 . S
C1835 C1833 1.327 . S
C1836 C1824 1.349 . S
C1836 H1830 0.950 . S
C1836 C1837 1.327 . S
C1837 H1831 0.950 . S
C1837 C1836 1.327 . S
C1837 C1841 1.429 . S
C1838 C1821 1.574 . S
C1838 H1832 0.949 . S
C1838 C1842 1.368 . S
C1839 C1820 1.429 . S
C1839 C1833 1.429 . S
C1839 C1840 1.523 . S
C1840 C1821 1.368 . S
C1840 C1834 1.368 . S
C1840 C1839 1.523 . S
C1841 C1825 1.429 . S
C1841 C1837 1.429 . S
C1841 C1842 1.523 . S
C1842 C1826 1.368 . S
C1842 C1838 1.368 . S
C1842 C1841 1.523 . S
H1843 C1818 0.950 . S
H1844 C1820 0.950 . S
H1845 C1821 0.949 . S
H1846 C1823 0.950 . S
H1847 C1825 0.950 . S
C1848 C1849 1.349 . S
C1848 C1850 1.327 . S
C1848 H1873 0.950 . S
C1849 C1848 1.349 . S
C1849 C1865 1.349 . S
C1850 C1848 1.327 . S
C1850 C1869 1.429 . S
C1850 H1874 0.950 . S
C1851 C1868 1.574 . S
C1851 C1870 1.368 . S
C1851 H1875 0.949 . S
H1852 C1856 0.949 . S
C1853 C1854 1.349 . S
C1853 C1855 1.327 . S
C1853 H1876 0.950 . S
C1854 C1853 1.349 . S
C1854 C1866 1.349 . S
C1855 C1853 1.327 . S
C1855 C1871 1.429 . S
C1855 H1877 0.950 . S
C1856 H1852 0.949 . S
C1856 C1864 1.574 . S
C1856 C1872 1.368 . S
H1857 C1865 0.950 . S
H1858 C1863 0.950 . S
H1859 C1864 0.949 . S
H1860 C1866 0.950 . S
H1861 C1867 0.950 . S
H1862 C1868 0.949 . S
C1863 H1858 0.950 . S
C1863 C1865 1.327 . S
C1863 C1869 1.429 . S
C1864 C1856 1.574 . S
C1864 H1859 0.949 . S
C1864 C1870 1.368 . S
C1865 C1849 1.349 . S
C1865 H1857 0.950 . S
C1865 C1863 1.327 . S
C1866 C1854 1.349 . S
C1866 H1860 0.950 . S
C1866 C1867 1.327 . S
C1867 H1861 0.950 . S
C1867 C1866 1.327 . S
C1867 C1871 1.429 . S
C1868 C1851 1.574 . S
C1868 H1862 0.949 . S
C1868 C1872 1.368 . S
C1869 C1850 1.429 . S
C1869 C1863 1.429 . S
C1869 C1870 1.523 . S
C1870 C1851 1.368 . S
C1870 C1864 1.368 . S
C1870 C1869 1.523 . S
C1871 C1855 1.429 . S
C1871 C1867 1.429 . S
C1871 C1872 1.523 . S
C1872 C1856 1.368 . S
C1872 C1868 1.368 . S
C1872 C1871 1.523 . S
H1873 C1848 0.950 . S
H1874 C1850 0.950 . S
H1875 C1851 0.949 . S
H1876 C1853 0.950 . S
H1877 C1855 0.950 . S
C1878 C1879 1.349 . S
C1878 C1880 1.327 . S
C1878 H1903 0.950 . S
C1879 C1878 1.349 . S
C1879 C1895 1.349 . S
C1880 C1878 1.327 . S
C1880 C1899 1.429 . S
C1880 H1904 0.950 . S
C1881 C1898 1.574 . S
C1881 C1900 1.368 . S
C1881 H1905 0.949 . S
H1882 C1886 0.949 . S
C1883 C1884 1.349 . S
C1883 C1885 1.327 . S
C1883 H1906 0.950 . S
C1884 C1883 1.349 . S
C1884 C1896 1.349 . S
C1885 C1883 1.327 . S
C1885 C1901 1.429 . S
C1885 H1907 0.950 . S
C1886 H1882 0.949 . S
C1886 C1894 1.574 . S
C1886 C1902 1.368 . S
H1887 C1895 0.950 . S
H1888 C1893 0.950 . S
H1889 C1894 0.949 . S
H1890 C1896 0.950 . S
H1891 C1897 0.950 . S
H1892 C1898 0.949 . S
C1893 H1888 0.950 . S
C1893 C1895 1.327 . S
C1893 C1899 1.429 . S
C1894 C1886 1.574 . S
C1894 H1889 0.949 . S
C1894 C1900 1.368 . S
C1895 C1879 1.349 . S
C1895 H1887 0.950 . S
C1895 C1893 1.327 . S
C1896 C1884 1.349 . S
C1896 H1890 0.950 . S
C1896 C1897 1.327 . S
C1897 H1891 0.950 . S
C1897 C1896 1.327 . S
C1897 C1901 1.429 . S
C1898 C1881 1.574 . S
C1898 H1892 0.949 . S
C1898 C1902 1.368 . S
C1899 C1880 1.429 . S
C1899 C1893 1.429 . S
C1899 C1900 1.523 . S
C1900 C1881 1.368 . S
C1900 C1894 1.368 . S
C1900 C1899 1.523 . S
C1901 C1885 1.429 . S
C1901 C1897 1.429 . S
C1901 C1902 1.523 . S
C1902 C1886 1.368 . S
C1902 C1898 1.368 . S
C1902 C1901 1.523 . S
H1903 C1878 0.950 . S
H1904 C1880 0.950 . S
H1905 C1881 0.949 . S
H1906 C1883 0.950 . S
H1907 C1885 0.950 . S
C1908 C1909 1.349 . S
C1908 C1910 1.327 . S
C1908 H1933 0.950 . S
C1909 C1908 1.349 . S
C1909 C1925 1.349 . S
C1910 C1908 1.327 . S
C1910 C1929 1.429 . S
C1910 H1934 0.950 . S
C1911 C1928 1.574 . S
C1911 C1930 1.368 . S
C1911 H1935 0.949 . S
H1912 C1916 0.949 . S
C1913 C1914 1.349 . S
C1913 C1915 1.327 . S
C1913 H1936 0.950 . S
C1914 C1913 1.349 . S
C1914 C1926 1.349 . S
C1915 C1913 1.327 . S
C1915 C1931 1.429 . S
C1915 H1937 0.950 . S
C1916 H1912 0.949 . S
C1916 C1924 1.574 . S
C1916 C1932 1.368 . S
H1917 C1925 0.950 . S
H1918 C1923 0.950 . S
H1919 C1924 0.949 . S
H1920 C1926 0.950 . S
H1921 C1927 0.950 . S
H1922 C1928 0.949 . S
C1923 H1918 0.950 . S
C1923 C1925 1.327 . S
C1923 C1929 1.429 . S
C1924 C1916 1.574 . S
C1924 H1919 0.949 . S
C1924 C1930 1.368 . S
C1925 C1909 1.349 . S
C1925 H1917 0.950 . S
C1925 C1923 1.327 . S
C1926 C1914 1.349 . S
C1926 H1920 0.950 . S
C1926 C1927 1.327 . S
C1927 H1921 0.950 . S
C1927 C1926 1.327 . S
C1927 C1931 1.429 . S
C1928 C1911 1.574 . S
C1928 H1922 0.949 . S
C1928 C1932 1.368 . S
C1929 C1910 1.429 . S
C1929 C1923 1.429 . S
C1929 C1930 1.523 . S
C1930 C1911 1.368 . S
C1930 C1924 1.368 . S
C1930 C1929 1.523 . S
C1931 C1915 1.429 . S
C1931 C1927 1.429 . S
C1931 C1932 1.523 . S
C1932 C1916 1.368 . S
C1932 C1928 1.368 . S
C1932 C1931 1.523 . S
H1933 C1908 0.950 . S
H1934 C1910 0.950 . S
H1935 C1911 0.949 . S
H1936 C1913 0.950 . S
H1937 C1915 0.950 . S
C1938 C1939 1.349 . S
C1938 C1940 1.327 . S
C1938 H1963 0.950 . S
C1939 C1938 1.349 . S
C1939 C1955 1.349 . S
C1940 C1938 1.327 . S
C1940 C1959 1.429 . S
C1940 H1964 0.950 . S
C1941 C1958 1.574 . S
C1941 C1960 1.368 . S
C1941 H1965 0.949 . S
H1942 C1946 0.949 . S
C1943 C1944 1.349 . S
C1943 C1945 1.327 . S
C1943 H1966 0.950 . S
C1944 C1943 1.349 . S
C1944 C1956 1.349 . S
C1945 C1943 1.327 . S
C1945 C1961 1.429 . S
C1945 H1967 0.950 . S
C1946 H1942 0.949 . S
C1946 C1954 1.574 . S
C1946 C1962 1.368 . S
H1947 C1955 0.950 . S
H1948 C1953 0.950 . S
H1949 C1954 0.949 . S
H1950 C1956 0.950 . S
H1951 C1957 0.950 . S
H1952 C1958 0.949 . S
C1953 H1948 0.950 . S
C1953 C1955 1.327 . S
C1953 C1959 1.429 . S
C1954 C1946 1.574 . S
C1954 H1949 0.949 . S
C1954 C1960 1.368 . S
C1955 C1939 1.349 . S
C1955 H1947 0.950 . S
C1955 C1953 1.327 . S
C1956 C1944 1.349 . S
C1956 H1950 0.950 . S
C1956 C1957 1.327 . S
C1957 H1951 0.950 . S
C1957 C1956 1.327 . S
C1957 C1961 1.429 . S
C1958 C1941 1.574 . S
C1958 H1952 0.949 . S
C1958 C1962 1.368 . S
C1959 C1940 1.429 . S
C1959 C1953 1.429 . S
C1959 C1960 1.523 . S
C1960 C1941 1.368 . S
C1960 C1954 1.368 . S
C1960 C1959 1.523 . S
C1961 C1945 1.429 . S
C1961 C1957 1.429 . S
C1961 C1962 1.523 . S
C1962 C1946 1.368 . S
C1962 C1958 1.368 . S
C1962 C1961 1.523 . S
H1963 C1938 0.950 . S
H1964 C1940 0.950 . S
H1965 C1941 0.949 . S
H1966 C1943 0.950 . S
H1967 C1945 0.950 . S
C1968 C1969 1.349 . S
C1968 C1970 1.327 . S
C1968 H1993 0.950 . S
C1969 C1968 1.349 . S
C1969 C1985 1.349 . S
C1970 C1968 1.327 . S
C1970 C1989 1.429 . S
C1970 H1994 0.950 . S
C1971 C1988 1.574 . S
C1971 C1990 1.368 1_455 S
C1971 H1995 0.949 . S
H1972 C1976 0.949 . S
C1973 C1974 1.349 . S
C1973 C1975 1.327 . S
C1973 H1996 0.950 . S
C1974 C1973 1.349 . S
C1974 C1986 1.349 . S
C1975 C1973 1.327 . S
C1975 C1991 1.429 . S
C1975 H1997 0.950 . S
C1976 H1972 0.949 . S
C1976 C1984 1.574 . S
C1976 C1992 1.368 1_655 S
H1977 C1985 0.950 . S
H1978 C1983 0.950 . S
H1979 C1984 0.949 . S
H1980 C1986 0.950 . S
H1981 C1987 0.950 . S
H1982 C1988 0.949 . S
C1983 H1978 0.950 . S
C1983 C1985 1.327 . S
C1983 C1989 1.429 . S
C1984 C1976 1.574 . S
C1984 H1979 0.949 . S
C1984 C1990 1.368 . S
C1985 C1969 1.349 . S
C1985 H1977 0.950 . S
C1985 C1983 1.327 . S
C1986 C1974 1.349 . S
C1986 H1980 0.950 . S
C1986 C1987 1.327 . S
C1987 H1981 0.950 . S
C1987 C1986 1.327 . S
C1987 C1991 1.429 . S
C1988 C1971 1.574 . S
C1988 H1982 0.949 . S
C1988 C1992 1.368 . S
C1989 C1970 1.429 . S
C1989 C1983 1.429 . S
C1989 C1990 1.523 . S
C1990 C1971 1.368 1_655 S
C1990 C1984 1.368 . S
C1990 C1989 1.523 . S
C1991 C1975 1.429 . S
C1991 C1987 1.429 . S
C1991 C1992 1.523 . S
C1992 C1976 1.368 1_455 S
C1992 C1988 1.368 . S
C1992 C1991 1.523 . S
H1993 C1968 0.950 . S
H1994 C1970 0.950 . S
H1995 C1971 0.949 . S
H1996 C1973 0.950 . S
H1997 C1975 0.950 . S
C1998 C1999 1.349 . S
C1998 C2000 1.327 . S
C1998 H2023 0.950 . S
C1999 C1998 1.349 . S
C1999 C2015 1.349 . S
C2000 C1998 1.327 . S
C2000 C2019 1.429 . S
C2000 H2024 0.950 . S
C2001 C2018 1.574 1_455 S
C2001 C2020 1.368 . S
C2001 H2025 0.949 . S
H2002 C2006 0.949 . S
C2003 C2004 1.349 . S
C2003 C2005 1.327 . S
C2003 H2026 0.950 . S
C2004 C2003 1.349 . S
C2004 C2016 1.349 . S
C2005 C2003 1.327 . S
C2005 C2021 1.429 . S
C2005 H2027 0.950 . S
C2006 H2002 0.949 . S
C2006 C2014 1.574 1_655 S
C2006 C2022 1.368 . S
H2007 C2015 0.950 . S
H2008 C2013 0.950 . S
H2009 C2014 0.949 . S
H2010 C2016 0.950 . S
H2011 C2017 0.950 . S
H2012 C2018 0.949 . S
C2013 H2008 0.950 . S
C2013 C2015 1.327 . S
C2013 C2019 1.429 . S
C2014 C2006 1.574 1_455 S
C2014 H2009 0.949 . S
C2014 C2020 1.368 . S
C2015 C1999 1.349 . S
C2015 H2007 0.950 . S
C2015 C2013 1.327 . S
C2016 C2004 1.349 . S
C2016 H2010 0.950 . S
C2016 C2017 1.327 . S
C2017 H2011 0.950 . S
C2017 C2016 1.327 . S
C2017 C2021 1.429 . S
C2018 C2001 1.574 1_655 S
C2018 H2012 0.949 . S
C2018 C2022 1.368 . S
C2019 C2000 1.429 . S
C2019 C2013 1.429 . S
C2019 C2020 1.523 . S
C2020 C2001 1.368 . S
C2020 C2014 1.368 . S
C2020 C2019 1.523 . S
C2021 C2005 1.429 . S
C2021 C2017 1.429 . S
C2021 C2022 1.523 . S
C2022 C2006 1.368 . S
C2022 C2018 1.368 . S
C2022 C2021 1.523 . S
H2023 C1998 0.950 . S
H2024 C2000 0.950 . S
H2025 C2001 0.949 . S
H2026 C2003 0.950 . S
H2027 C2005 0.950 . S
C2028 C2029 1.349 . S
C2028 C2030 1.327 . S
C2028 H2053 0.950 . S
C2029 C2028 1.349 . S
C2029 C2045 1.349 . S
C2030 C2028 1.327 . S
C2030 C2049 1.429 . S
C2030 H2054 0.950 . S
C2031 C2048 1.574 . S
C2031 C2050 1.368 . S
C2031 H2055 0.949 . S
H2032 C2036 0.949 . S
C2033 C2034 1.349 . S
C2033 C2035 1.327 . S
C2033 H2056 0.950 . S
C2034 C2033 1.349 . S
C2034 C2046 1.349 . S
C2035 C2033 1.327 . S
C2035 C2051 1.429 . S
C2035 H2057 0.950 . S
C2036 H2032 0.949 . S
C2036 C2044 1.574 . S
C2036 C2052 1.368 . S
H2037 C2045 0.950 . S
H2038 C2043 0.950 . S
H2039 C2044 0.949 . S
H2040 C2046 0.950 . S
H2041 C2047 0.950 . S
H2042 C2048 0.949 . S
C2043 H2038 0.950 . S
C2043 C2045 1.327 . S
C2043 C2049 1.429 . S
C2044 C2036 1.574 . S
C2044 H2039 0.949 . S
C2044 C2050 1.368 . S
C2045 C2029 1.349 . S
C2045 H2037 0.950 . S
C2045 C2043 1.327 . S
C2046 C2034 1.349 . S
C2046 H2040 0.950 . S
C2046 C2047 1.327 . S
C2047 H2041 0.950 . S
C2047 C2046 1.327 . S
C2047 C2051 1.429 . S
C2048 C2031 1.574 . S
C2048 H2042 0.949 . S
C2048 C2052 1.368 . S
C2049 C2030 1.429 . S
C2049 C2043 1.429 . S
C2049 C2050 1.523 . S
C2050 C2031 1.368 . S
C2050 C2044 1.368 . S
C2050 C2049 1.523 . S
C2051 C2035 1.429 . S
C2051 C2047 1.429 . S
C2051 C2052 1.523 . S
C2052 C2036 1.368 . S
C2052 C2048 1.368 . S
C2052 C2051 1.523 . S
H2053 C2028 0.950 . S
H2054 C2030 0.950 . S
H2055 C2031 0.949 . S
H2056 C2033 0.950 . S
H2057 C2035 0.950 . S
C2058 C2059 1.349 . S
C2058 C2060 1.327 . S
C2058 H2083 0.950 . S
C2059 C2058 1.349 . S
C2059 C2075 1.349 . S
C2060 C2058 1.327 . S
C2060 C2079 1.429 . S
C2060 H2084 0.950 . S
C2061 C2078 1.574 . S
C2061 C2080 1.368 . S
C2061 H2085 0.949 . S
H2062 C2066 0.949 . S
C2063 C2064 1.349 . S
C2063 C2065 1.327 . S
C2063 H2086 0.950 . S
C2064 C2063 1.349 . S
C2064 C2076 1.349 . S
C2065 C2063 1.327 . S
C2065 C2081 1.429 . S
C2065 H2087 0.950 . S
C2066 H2062 0.949 . S
C2066 C2074 1.574 . S
C2066 C2082 1.368 . S
H2067 C2075 0.950 . S
H2068 C2073 0.950 . S
H2069 C2074 0.949 . S
H2070 C2076 0.950 . S
H2071 C2077 0.950 . S
H2072 C2078 0.949 . S
C2073 H2068 0.950 . S
C2073 C2075 1.327 . S
C2073 C2079 1.429 . S
C2074 C2066 1.574 . S
C2074 H2069 0.949 . S
C2074 C2080 1.368 . S
C2075 C2059 1.349 . S
C2075 H2067 0.950 . S
C2075 C2073 1.327 . S
C2076 C2064 1.349 . S
C2076 H2070 0.950 . S
C2076 C2077 1.327 . S
C2077 H2071 0.950 . S
C2077 C2076 1.327 . S
C2077 C2081 1.429 . S
C2078 C2061 1.574 . S
C2078 H2072 0.949 . S
C2078 C2082 1.368 . S
C2079 C2060 1.429 . S
C2079 C2073 1.429 . S
C2079 C2080 1.523 . S
C2080 C2061 1.368 . S
C2080 C2074 1.368 . S
C2080 C2079 1.523 . S
C2081 C2065 1.429 . S
C2081 C2077 1.429 . S
C2081 C2082 1.523 . S
C2082 C2066 1.368 . S
C2082 C2078 1.368 . S
C2082 C2081 1.523 . S
H2083 C2058 0.950 . S
H2084 C2060 0.950 . S
H2085 C2061 0.949 . S
H2086 C2063 0.950 . S
H2087 C2065 0.950 . S
C2088 C2089 1.349 . S
C2088 C2090 1.327 . S
C2088 H2113 0.950 . S
C2089 C2088 1.349 . S
C2089 C2105 1.349 . S
C2090 C2088 1.327 . S
C2090 C2109 1.429 . S
C2090 H2114 0.950 . S
C2091 C2108 1.574 . S
C2091 C2110 1.368 1_655 S
C2091 H2115 0.949 . S
H2092 C2096 0.949 . S
C2093 C2094 1.349 . S
C2093 C2095 1.327 . S
C2093 H2116 0.950 . S
C2094 C2093 1.349 . S
C2094 C2106 1.349 . S
C2095 C2093 1.327 . S
C2095 C2111 1.429 . S
C2095 H2117 0.950 . S
C2096 H2092 0.949 . S
C2096 C2104 1.574 . S
C2096 C2112 1.368 1_455 S
H2097 C2105 0.950 . S
H2098 C2103 0.950 . S
H2099 C2104 0.949 . S
H2100 C2106 0.950 . S
H2101 C2107 0.950 . S
H2102 C2108 0.949 . S
C2103 H2098 0.950 . S
C2103 C2105 1.327 . S
C2103 C2109 1.429 . S
C2104 C2096 1.574 . S
C2104 H2099 0.949 . S
C2104 C2110 1.368 . S
C2105 C2089 1.349 . S
C2105 H2097 0.950 . S
C2105 C2103 1.327 . S
C2106 C2094 1.349 . S
C2106 H2100 0.950 . S
C2106 C2107 1.327 . S
C2107 H2101 0.950 . S
C2107 C2106 1.327 . S
C2107 C2111 1.429 . S
C2108 C2091 1.574 . S
C2108 H2102 0.949 . S
C2108 C2112 1.368 . S
C2109 C2090 1.429 . S
C2109 C2103 1.429 . S
C2109 C2110 1.523 . S
C2110 C2091 1.368 1_455 S
C2110 C2104 1.368 . S
C2110 C2109 1.523 . S
C2111 C2095 1.429 . S
C2111 C2107 1.429 . S
C2111 C2112 1.523 . S
C2112 C2096 1.368 1_655 S
C2112 C2108 1.368 . S
C2112 C2111 1.523 . S
H2113 C2088 0.950 . S
H2114 C2090 0.950 . S
H2115 C2091 0.949 . S
H2116 C2093 0.950 . S
H2117 C2095 0.950 . S
C2118 C2119 1.349 . S
C2118 C2120 1.327 . S
C2118 H2143 0.950 . S
C2119 C2118 1.349 . S
C2119 C2135 1.349 . S
C2120 C2118 1.327 . S
C2120 C2139 1.429 . S
C2120 H2144 0.950 . S
C2121 C2138 1.574 . S
C2121 C2140 1.368 . S
C2121 H2145 0.949 . S
H2122 C2126 0.949 . S
C2123 C2124 1.349 . S
C2123 C2125 1.327 . S
C2123 H2146 0.950 . S
C2124 C2123 1.349 . S
C2124 C2136 1.349 . S
C2125 C2123 1.327 . S
C2125 C2141 1.429 . S
C2125 H2147 0.950 . S
C2126 H2122 0.949 . S
C2126 C2134 1.574 . S
C2126 C2142 1.368 . S
H2127 C2135 0.950 . S
H2128 C2133 0.950 . S
H2129 C2134 0.949 . S
H2130 C2136 0.950 . S
H2131 C2137 0.950 . S
H2132 C2138 0.949 . S
C2133 H2128 0.950 . S
C2133 C2135 1.327 . S
C2133 C2139 1.429 . S
C2134 C2126 1.574 . S
C2134 H2129 0.949 . S
C2134 C2140 1.368 . S
C2135 C2119 1.349 . S
C2135 H2127 0.950 . S
C2135 C2133 1.327 . S
C2136 C2124 1.349 . S
C2136 H2130 0.950 . S
C2136 C2137 1.327 . S
C2137 H2131 0.950 . S
C2137 C2136 1.327 . S
C2137 C2141 1.429 . S
C2138 C2121 1.574 . S
C2138 H2132 0.949 . S
C2138 C2142 1.368 . S
C2139 C2120 1.429 . S
C2139 C2133 1.429 . S
C2139 C2140 1.523 . S
C2140 C2121 1.368 . S
C2140 C2134 1.368 . S
C2140 C2139 1.523 . S
C2141 C2125 1.429 . S
C2141 C2137 1.429 . S
C2141 C2142 1.523 . S
C2142 C2126 1.368 . S
C2142 C2138 1.368 . S
C2142 C2141 1.523 . S
H2143 C2118 0.950 . S
H2144 C2120 0.950 . S
H2145 C2121 0.949 . S
H2146 C2123 0.950 . S
H2147 C2125 0.950 . S
C2148 C2149 1.349 . S
C2148 C2150 1.327 . S
C2148 H2173 0.950 . S
C2149 C2148 1.349 . S
C2149 C2165 1.349 . S
C2150 C2148 1.327 . S
C2150 C2169 1.429 . S
C2150 H2174 0.950 . S
C2151 C2168 1.574 . S
C2151 C2170 1.368 . S
C2151 H2175 0.949 . S
H2152 C2156 0.949 . S
C2153 C2154 1.349 . S
C2153 C2155 1.327 . S
C2153 H2176 0.950 . S
C2154 C2153 1.349 . S
C2154 C2166 1.349 . S
C2155 C2153 1.327 . S
C2155 C2171 1.429 . S
C2155 H2177 0.950 . S
C2156 H2152 0.949 . S
C2156 C2164 1.574 . S
C2156 C2172 1.368 . S
H2157 C2165 0.950 . S
H2158 C2163 0.950 . S
H2159 C2164 0.949 . S
H2160 C2166 0.950 . S
H2161 C2167 0.950 . S
H2162 C2168 0.949 . S
C2163 H2158 0.950 . S
C2163 C2165 1.327 . S
C2163 C2169 1.429 . S
C2164 C2156 1.574 . S
C2164 H2159 0.949 . S
C2164 C2170 1.368 . S
C2165 C2149 1.349 . S
C2165 H2157 0.950 . S
C2165 C2163 1.327 . S
C2166 C2154 1.349 . S
C2166 H2160 0.950 . S
C2166 C2167 1.327 . S
C2167 H2161 0.950 . S
C2167 C2166 1.327 . S
C2167 C2171 1.429 . S
C2168 C2151 1.574 . S
C2168 H2162 0.949 . S
C2168 C2172 1.368 . S
C2169 C2150 1.429 . S
C2169 C2163 1.429 . S
C2169 C2170 1.523 . S
C2170 C2151 1.368 . S
C2170 C2164 1.368 . S
C2170 C2169 1.523 . S
C2171 C2155 1.429 . S
C2171 C2167 1.429 . S
C2171 C2172 1.523 . S
C2172 C2156 1.368 . S
C2172 C2168 1.368 . S
C2172 C2171 1.523 . S
H2173 C2148 0.950 . S
H2174 C2150 0.950 . S
H2175 C2151 0.949 . S
H2176 C2153 0.950 . S
H2177 C2155 0.950 . S
C2178 C2179 1.349 . S
C2178 C2180 1.327 . S
C2178 H2203 0.950 . S
C2179 C2178 1.349 . S
C2179 C2195 1.349 . S
C2180 C2178 1.327 . S
C2180 C2199 1.429 . S
C2180 H2204 0.950 . S
C2181 C2198 1.574 1_655 S
C2181 C2200 1.368 . S
C2181 H2205 0.949 . S
H2182 C2186 0.949 . S
C2183 C2184 1.349 . S
C2183 C2185 1.327 . S
C2183 H2206 0.950 . S
C2184 C2183 1.349 . S
C2184 C2196 1.349 . S
C2185 C2183 1.327 . S
C2185 C2201 1.429 . S
C2185 H2207 0.950 . S
C2186 H2182 0.949 . S
C2186 C2194 1.574 1_455 S
C2186 C2202 1.368 . S
H2187 C2195 0.950 . S
H2188 C2193 0.950 . S
H2189 C2194 0.949 . S
H2190 C2196 0.950 . S
H2191 C2197 0.950 . S
H2192 C2198 0.949 . S
C2193 H2188 0.950 . S
C2193 C2195 1.327 . S
C2193 C2199 1.429 . S
C2194 C2186 1.574 1_655 S
C2194 H2189 0.949 . S
C2194 C2200 1.368 . S
C2195 C2179 1.349 . S
C2195 H2187 0.950 . S
C2195 C2193 1.327 . S
C2196 C2184 1.349 . S
C2196 H2190 0.950 . S
C2196 C2197 1.327 . S
C2197 H2191 0.950 . S
C2197 C2196 1.327 . S
C2197 C2201 1.429 . S
C2198 C2181 1.574 1_455 S
C2198 H2192 0.949 . S
C2198 C2202 1.368 . S
C2199 C2180 1.429 . S
C2199 C2193 1.429 . S
C2199 C2200 1.523 . S
C2200 C2181 1.368 . S
C2200 C2194 1.368 . S
C2200 C2199 1.523 . S
C2201 C2185 1.429 . S
C2201 C2197 1.429 . S
C2201 C2202 1.523 . S
C2202 C2186 1.368 . S
C2202 C2198 1.368 . S
C2202 C2201 1.523 . S
H2203 C2178 0.950 . S
H2204 C2180 0.950 . S
H2205 C2181 0.949 . S
H2206 C2183 0.950 . S
H2207 C2185 0.950 . S
C2208 C2209 1.349 . S
C2208 C2210 1.327 . S
C2208 H2233 0.950 . S
C2209 C2208 1.349 . S
C2209 C2225 1.349 . S
C2210 C2208 1.327 . S
C2210 C2229 1.429 . S
C2210 H2234 0.926 1_565 S
C2211 C2228 1.574 . S
C2211 C2230 1.368 . S
C2211 H2235 0.949 . S
H2212 C2216 0.949 . S
C2213 C2214 1.349 . S
C2213 C2215 1.327 . S
C2213 H2236 0.950 . S
C2214 C2213 1.349 . S
C2214 C2226 1.349 . S
C2215 C2213 1.327 . S
C2215 C2231 1.429 . S
C2215 H2237 0.932 1_545 S
C2216 H2212 0.949 . S
C2216 C2224 1.574 . S
C2216 C2232 1.368 . S
H2217 C2225 0.950 . S
H2218 C2223 0.950 . S
H2219 C2224 0.949 . S
H2220 C2226 0.950 . S
H2221 C2227 0.950 . S
H2222 C2228 0.949 . S
C2223 H2218 0.950 . S
C2223 C2225 1.327 . S
C2223 C2229 1.429 . S
C2224 C2216 1.574 . S
C2224 H2219 0.949 . S
C2224 C2230 1.368 1_545 S
C2225 C2209 1.349 . S
C2225 H2217 0.950 . S
C2225 C2223 1.327 . S
C2226 C2214 1.349 . S
C2226 H2220 0.950 . S
C2226 C2227 1.327 . S
C2227 H2221 0.950 . S
C2227 C2226 1.327 . S
C2227 C2231 1.429 . S
C2228 C2211 1.574 . S
C2228 H2222 0.949 . S
C2228 C2232 1.368 1_565 S
C2229 C2210 1.429 . S
C2229 C2223 1.429 . S
C2229 C2230 1.523 . S
C2230 C2211 1.368 . S
C2230 C2224 1.368 1_565 S
C2230 C2229 1.523 . S
C2231 C2215 1.429 . S
C2231 C2227 1.429 . S
C2231 C2232 1.523 . S
C2232 C2216 1.368 . S
C2232 C2228 1.368 1_545 S
C2232 C2231 1.523 . S
H2233 C2208 0.950 . S
H2234 C2210 0.926 1_545 S
H2235 C2211 0.949 . S
H2236 C2213 0.950 . S
H2237 C2215 0.932 1_565 S
C2238 C2239 1.349 . S
C2238 C2240 1.327 . S
C2238 H2263 0.950 . S
C2239 C2238 1.349 . S
C2239 C2255 1.349 . S
C2240 C2238 1.327 . S
C2240 C2259 1.429 . S
C2240 H2264 0.950 . S
C2241 C2258 1.574 . S
C2241 C2260 1.368 . S
C2241 H2265 0.949 . S
H2242 C2246 0.949 . S
C2243 C2244 1.349 . S
C2243 C2245 1.327 . S
C2243 H2266 0.950 . S
C2244 C2243 1.349 . S
C2244 C2256 1.349 . S
C2245 C2243 1.327 . S
C2245 C2261 1.429 . S
C2245 H2267 0.950 . S
C2246 H2242 0.949 . S
C2246 C2254 1.574 . S
C2246 C2262 1.368 . S
H2247 C2255 0.950 . S
H2248 C2253 0.950 . S
H2249 C2254 0.949 . S
H2250 C2256 0.950 . S
H2251 C2257 0.950 . S
H2252 C2258 0.949 . S
C2253 H2248 0.950 . S
C2253 C2255 1.327 . S
C2253 C2259 1.429 . S
C2254 C2246 1.574 . S
C2254 H2249 0.949 . S
C2254 C2260 1.368 . S
C2255 C2239 1.349 . S
C2255 H2247 0.950 . S
C2255 C2253 1.327 . S
C2256 C2244 1.349 . S
C2256 H2250 0.950 . S
C2256 C2257 1.327 . S
C2257 H2251 0.950 . S
C2257 C2256 1.327 . S
C2257 C2261 1.429 . S
C2258 C2241 1.574 . S
C2258 H2252 0.949 . S
C2258 C2262 1.368 . S
C2259 C2240 1.429 . S
C2259 C2253 1.429 . S
C2259 C2260 1.523 . S
C2260 C2241 1.368 . S
C2260 C2254 1.368 . S
C2260 C2259 1.523 . S
C2261 C2245 1.429 . S
C2261 C2257 1.429 . S
C2261 C2262 1.523 . S
C2262 C2246 1.368 . S
C2262 C2258 1.368 . S
C2262 C2261 1.523 . S
H2263 C2238 0.950 . S
H2264 C2240 0.950 . S
H2265 C2241 0.949 . S
H2266 C2243 0.950 . S
H2267 C2245 0.950 . S
C2268 C2269 1.349 . S
C2268 C2270 1.327 . S
C2268 H2293 0.950 . S
C2269 C2268 1.349 . S
C2269 C2285 1.349 . S
C2270 C2268 1.327 . S
C2270 C2289 1.429 . S
C2270 H2294 0.950 . S
C2271 C2288 1.574 . S
C2271 C2290 1.368 . S
C2271 H2295 0.949 . S
H2272 C2276 0.949 . S
C2273 C2274 1.349 . S
C2273 C2275 1.327 . S
C2273 H2296 0.950 . S
C2274 C2273 1.349 . S
C2274 C2286 1.349 . S
C2275 C2273 1.327 . S
C2275 C2291 1.429 . S
C2275 H2297 0.950 . S
C2276 H2272 0.949 . S
C2276 C2284 1.574 . S
C2276 C2292 1.368 . S
H2277 C2285 0.950 . S
H2278 C2283 0.950 . S
H2279 C2284 0.949 . S
H2280 C2286 0.950 . S
H2281 C2287 0.950 . S
H2282 C2288 0.949 . S
C2283 H2278 0.950 . S
C2283 C2285 1.327 . S
C2283 C2289 1.429 . S
C2284 C2276 1.574 . S
C2284 H2279 0.949 . S
C2284 C2290 1.368 1_565 S
C2285 C2269 1.349 . S
C2285 H2277 0.950 . S
C2285 C2283 1.327 . S
C2286 C2274 1.349 . S
C2286 H2280 0.950 . S
C2286 C2287 1.327 . S
C2287 H2281 0.950 . S
C2287 C2286 1.327 . S
C2287 C2291 1.429 . S
C2288 C2271 1.574 . S
C2288 H2282 0.949 . S
C2288 C2292 1.368 1_545 S
C2289 C2270 1.429 . S
C2289 C2283 1.429 . S
C2289 C2290 1.523 . S
C2290 C2271 1.368 . S
C2290 C2284 1.368 1_545 S
C2290 C2289 1.523 . S
C2291 C2275 1.429 . S
C2291 C2287 1.429 . S
C2291 C2292 1.523 . S
C2292 C2276 1.368 . S
C2292 C2288 1.368 1_565 S
C2292 C2291 1.523 . S
H2293 C2268 0.950 . S
H2294 C2270 0.950 . S
H2295 C2271 0.949 . S
H2296 C2273 0.950 . S
H2297 C2275 0.950 . S
C2298 C2299 1.349 . S
C2298 C2300 1.327 . S
C2298 H2323 0.950 . S
C2299 C2298 1.349 . S
C2299 C2315 1.349 . S
C2300 C2298 1.327 . S
C2300 C2319 1.429 . S
C2300 H2324 0.950 . S
C2301 C2318 1.574 1_554 S
C2301 C2320 1.368 . S
C2301 H2325 0.949 . S
H2302 C2306 0.949 . S
C2303 C2304 1.349 . S
C2303 C2305 1.327 . S
C2303 H2326 0.950 . S
C2304 C2303 1.349 . S
C2304 C2316 1.349 . S
C2305 C2303 1.327 . S
C2305 C2321 1.429 . S
C2305 H2327 0.950 . S
C2306 H2302 0.949 . S
C2306 C2314 1.574 1_556 S
C2306 C2322 1.368 . S
H2307 C2315 0.950 . S
H2308 C2313 0.950 . S
H2309 C2314 0.949 . S
H2310 C2316 0.950 . S
H2311 C2317 0.950 . S
H2312 C2318 0.949 . S
C2313 H2308 0.950 . S
C2313 C2315 1.327 . S
C2313 C2319 1.429 . S
C2314 C2306 1.574 1_554 S
C2314 H2309 0.949 . S
C2314 C2320 1.368 . S
C2315 C2299 1.349 . S
C2315 H2307 0.950 . S
C2315 C2313 1.327 . S
C2316 C2304 1.349 . S
C2316 H2310 0.950 . S
C2316 C2317 1.327 . S
C2317 H2311 0.950 . S
C2317 C2316 1.327 . S
C2317 C2321 1.429 . S
C2318 C2301 1.574 1_556 S
C2318 H2312 0.949 . S
C2318 C2322 1.368 . S
C2319 C2300 1.429 . S
C2319 C2313 1.429 . S
C2319 C2320 1.523 . S
C2320 C2301 1.368 . S
C2320 C2314 1.368 . S
C2320 C2319 1.523 . S
C2321 C2305 1.429 . S
C2321 C2317 1.429 . S
C2321 C2322 1.523 . S
C2322 C2306 1.368 . S
C2322 C2318 1.368 . S
C2322 C2321 1.523 . S
H2323 C2298 0.950 . S
H2324 C2300 0.950 . S
H2325 C2301 0.949 . S
H2326 C2303 0.950 . S
H2327 C2305 0.950 . S
C2328 C2329 1.349 . S
C2328 C2330 1.327 . S
C2328 H2353 0.950 . S
C2329 C2328 1.349 . S
C2329 C2345 1.349 . S
C2330 C2328 1.327 . S
C2330 C2349 1.429 . S
C2330 H2354 0.950 . S
C2331 C2348 1.574 . S
C2331 C2350 1.368 1_556 S
C2331 H2355 0.949 . S
H2332 C2336 0.949 . S
C2333 C2334 1.349 . S
C2333 C2335 1.327 . S
C2333 H2356 0.950 . S
C2334 C2333 1.349 . S
C2334 C2346 1.349 . S
C2335 C2333 1.327 . S
C2335 C2351 1.429 . S
C2335 H2357 0.950 . S
C2336 H2332 0.949 . S
C2336 C2344 1.574 . S
C2336 C2352 1.368 1_554 S
H2337 C2345 0.950 . S
H2338 C2343 0.950 . S
H2339 C2344 0.949 . S
H2340 C2346 0.950 . S
H2341 C2347 0.950 . S
H2342 C2348 0.949 . S
C2343 H2338 0.950 . S
C2343 C2345 1.327 . S
C2343 C2349 1.429 . S
C2344 C2336 1.574 . S
C2344 H2339 0.949 . S
C2344 C2350 1.368 . S
C2345 C2329 1.349 . S
C2345 H2337 0.950 . S
C2345 C2343 1.327 . S
C2346 C2334 1.349 . S
C2346 H2340 0.950 . S
C2346 C2347 1.327 . S
C2347 H2341 0.950 . S
C2347 C2346 1.327 . S
C2347 C2351 1.429 . S
C2348 C2331 1.574 . S
C2348 H2342 0.949 . S
C2348 C2352 1.368 . S
C2349 C2330 1.429 . S
C2349 C2343 1.429 . S
C2349 C2350 1.523 . S
C2350 C2331 1.368 1_554 S
C2350 C2344 1.368 . S
C2350 C2349 1.523 . S
C2351 C2335 1.429 . S
C2351 C2347 1.429 . S
C2351 C2352 1.523 . S
C2352 C2336 1.368 1_556 S
C2352 C2348 1.368 . S
C2352 C2351 1.523 . S
H2353 C2328 0.950 . S
H2354 C2330 0.950 . S
H2355 C2331 0.949 . S
H2356 C2333 0.950 . S
H2357 C2335 0.950 . S
C2358 C2359 1.349 . S
C2358 C2360 1.327 . S
C2358 H2383 0.950 . S
C2359 C2358 1.349 . S
C2359 C2375 1.349 . S
C2360 C2358 1.327 . S
C2360 C2379 1.429 . S
C2360 H2384 0.950 . S
C2361 C2378 1.574 . S
C2361 C2380 1.368 . S
C2361 H2385 0.949 . S
H2362 C2366 0.949 . S
C2363 C2364 1.349 . S
C2363 C2365 1.327 . S
C2363 H2386 0.950 . S
C2364 C2363 1.349 . S
C2364 C2376 1.349 . S
C2365 C2363 1.327 . S
C2365 C2381 1.429 . S
C2365 H2387 0.950 . S
C2366 H2362 0.949 . S
C2366 C2374 1.574 . S
C2366 C2382 1.368 . S
H2367 C2375 0.950 . S
H2368 C2373 0.950 . S
H2369 C2374 0.949 . S
H2370 C2376 0.950 . S
H2371 C2377 0.950 . S
H2372 C2378 0.949 . S
C2373 H2368 0.950 . S
C2373 C2375 1.327 . S
C2373 C2379 1.429 . S
C2374 C2366 1.574 . S
C2374 H2369 0.949 . S
C2374 C2380 1.368 1_554 S
C2375 C2359 1.349 . S
C2375 H2367 0.950 . S
C2375 C2373 1.327 . S
C2376 C2364 1.349 . S
C2376 H2370 0.950 . S
C2376 C2377 1.327 . S
C2377 H2371 0.950 . S
C2377 C2376 1.327 . S
C2377 C2381 1.429 . S
C2378 C2361 1.574 . S
C2378 H2372 0.949 . S
C2378 C2382 1.368 1_556 S
C2379 C2360 1.429 . S
C2379 C2373 1.429 . S
C2379 C2380 1.523 . S
C2380 C2361 1.368 . S
C2380 C2374 1.368 1_556 S
C2380 C2379 1.523 . S
C2381 C2365 1.429 . S
C2381 C2377 1.429 . S
C2381 C2382 1.523 . S
C2382 C2366 1.368 . S
C2382 C2378 1.368 1_554 S
C2382 C2381 1.523 . S
H2383 C2358 0.950 . S
H2384 C2360 0.950 . S
H2385 C2361 0.949 . S
H2386 C2363 0.950 . S
H2387 C2365 0.950 . S
C2388 C2389 1.349 . S
C2388 C2390 1.327 . S
C2388 H2413 0.950 . S
C2389 C2388 1.349 . S
C2389 C2405 1.349 . S
C2390 C2388 1.327 . S
C2390 C2409 1.429 . S
C2390 H2414 0.950 . S
C2391 C2408 1.574 . S
C2391 C2410 1.368 . S
C2391 H2415 0.949 . S
H2392 C2396 0.949 . S
C2393 C2394 1.349 . S
C2393 C2395 1.327 . S
C2393 H2416 0.950 . S
C2394 C2393 1.349 . S
C2394 C2406 1.349 . S
C2395 C2393 1.327 . S
C2395 C2411 1.429 . S
C2395 H2417 0.950 . S
C2396 H2392 0.949 . S
C2396 C2404 1.574 . S
C2396 C2412 1.368 . S
H2397 C2405 0.950 . S
H2398 C2403 0.950 . S
H2399 C2404 0.949 . S
H2400 C2406 0.950 . S
H2401 C2407 0.950 . S
H2402 C2408 0.949 . S
C2403 H2398 0.950 . S
C2403 C2405 1.327 . S
C2403 C2409 1.429 . S
C2404 C2396 1.574 . S
C2404 H2399 0.949 . S
C2404 C2410 1.368 . S
C2405 C2389 1.349 . S
C2405 H2397 0.950 . S
C2405 C2403 1.327 . S
C2406 C2394 1.349 . S
C2406 H2400 0.950 . S
C2406 C2407 1.327 . S
C2407 H2401 0.950 . S
C2407 C2406 1.327 . S
C2407 C2411 1.429 . S
C2408 C2391 1.574 . S
C2408 H2402 0.949 . S
C2408 C2412 1.368 . S
C2409 C2390 1.429 . S
C2409 C2403 1.429 . S
C2409 C2410 1.523 . S
C2410 C2391 1.368 . S
C2410 C2404 1.368 . S
C2410 C2409 1.523 . S
C2411 C2395 1.429 . S
C2411 C2407 1.429 . S
C2411 C2412 1.523 . S
C2412 C2396 1.368 . S
C2412 C2408 1.368 . S
C2412 C2411 1.523 . S
H2413 C2388 0.950 . S
H2414 C2390 0.950 . S
H2415 C2391 0.949 . S
H2416 C2393 0.950 . S
H2417 C2395 0.950 . S
C2418 C2419 1.349 . S
C2418 C2420 1.327 . S
C2418 H2443 0.950 . S
C2419 C2418 1.349 . S
C2419 C2435 1.349 . S
C2420 C2418 1.327 . S
C2420 C2439 1.429 . S
C2420 H2444 0.950 . S
C2421 C2438 1.574 . S
C2421 C2440 1.368 . S
C2421 H2445 0.949 . S
H2422 C2426 0.949 . S
C2423 C2424 1.349 . S
C2423 C2425 1.327 . S
C2423 H2446 0.950 . S
C2424 C2423 1.349 . S
C2424 C2436 1.349 . S
C2425 C2423 1.327 . S
C2425 C2441 1.429 . S
C2425 H2447 0.950 . S
C2426 H2422 0.949 . S
C2426 C2434 1.574 . S
C2426 C2442 1.368 . S
H2427 C2435 0.950 . S
H2428 C2433 0.950 . S
H2429 C2434 0.949 . S
H2430 C2436 0.950 . S
H2431 C2437 0.950 . S
H2432 C2438 0.949 . S
C2433 H2428 0.950 . S
C2433 C2435 1.327 . S
C2433 C2439 1.429 . S
C2434 C2426 1.574 . S
C2434 H2429 0.949 . S
C2434 C2440 1.368 . S
C2435 C2419 1.349 . S
C2435 H2427 0.950 . S
C2435 C2433 1.327 . S
C2436 C2424 1.349 . S
C2436 H2430 0.950 . S
C2436 C2437 1.327 . S
C2437 H2431 0.950 . S
C2437 C2436 1.327 . S
C2437 C2441 1.429 . S
C2438 C2421 1.574 . S
C2438 H2432 0.949 . S
C2438 C2442 1.368 . S
C2439 C2420 1.429 . S
C2439 C2433 1.429 . S
C2439 C2440 1.523 . S
C2440 C2421 1.368 . S
C2440 C2434 1.368 . S
C2440 C2439 1.523 . S
C2441 C2425 1.429 . S
C2441 C2437 1.429 . S
C2441 C2442 1.523 . S
C2442 C2426 1.368 . S
C2442 C2438 1.368 . S
C2442 C2441 1.523 . S
H2443 C2418 0.950 . S
H2444 C2420 0.950 . S
H2445 C2421 0.949 . S
H2446 C2423 0.950 . S
H2447 C2425 0.950 . S
C2448 C2449 1.349 . S
C2448 C2450 1.327 . S
C2448 H2473 0.950 . S
C2449 C2448 1.349 . S
C2449 C2465 1.349 . S
C2450 C2448 1.327 . S
C2450 C2469 1.429 . S
C2450 H2474 0.950 . S
C2451 C2468 1.574 1_565 S
C2451 C2470 1.368 . S
C2451 H2475 0.949 . S
H2452 C2456 0.949 . S
C2453 C2454 1.349 . S
C2453 C2455 1.327 . S
C2453 H2476 0.950 . S
C2454 C2453 1.349 . S
C2454 C2466 1.349 . S
C2455 C2453 1.327 . S
C2455 C2471 1.429 . S
C2455 H2477 0.950 . S
C2456 H2452 0.949 . S
C2456 C2464 1.574 1_545 S
C2456 C2472 1.368 . S
H2457 C2465 0.950 . S
H2458 C2463 0.950 . S
H2459 C2464 0.949 . S
H2460 C2466 0.950 . S
H2461 C2467 0.950 . S
H2462 C2468 0.949 . S
C2463 H2458 0.950 . S
C2463 C2465 1.327 . S
C2463 C2469 1.429 . S
C2464 C2456 1.574 1_565 S
C2464 H2459 0.949 . S
C2464 C2470 1.368 . S
C2465 C2449 1.349 . S
C2465 H2457 0.950 . S
C2465 C2463 1.327 . S
C2466 C2454 1.349 . S
C2466 H2460 0.950 . S
C2466 C2467 1.327 . S
C2467 H2461 0.950 . S
C2467 C2466 1.327 . S
C2467 C2471 1.429 . S
C2468 C2451 1.574 1_545 S
C2468 H2462 0.949 . S
C2468 C2472 1.368 . S
C2469 C2450 1.429 . S
C2469 C2463 1.429 . S
C2469 C2470 1.523 . S
C2470 C2451 1.368 . S
C2470 C2464 1.368 . S
C2470 C2469 1.523 . S
C2471 C2455 1.429 . S
C2471 C2467 1.429 . S
C2471 C2472 1.523 . S
C2472 C2456 1.368 . S
C2472 C2468 1.368 . S
C2472 C2471 1.523 . S
H2473 C2448 0.950 . S
H2474 C2450 0.950 . S
H2475 C2451 0.949 . S
H2476 C2453 0.950 . S
H2477 C2455 0.950 . S
C2478 C2479 1.349 . S
C2478 C2480 1.327 . S
C2478 H2503 0.950 . S
C2479 C2478 1.349 . S
C2479 C2495 1.349 . S
C2480 C2478 1.327 . S
C2480 C2499 1.429 . S
C2480 H2504 0.950 . S
C2481 C2498 1.574 . S
C2481 C2500 1.368 . S
C2481 H2505 0.949 . S
H2482 C2486 0.949 . S
C2483 C2484 1.349 . S
C2483 C2485 1.327 . S
C2483 H2506 0.950 . S
C2484 C2483 1.349 . S
C2484 C2496 1.349 . S
C2485 C2483 1.327 . S
C2485 C2501 1.429 . S
C2485 H2507 0.950 . S
C2486 H2482 0.949 . S
C2486 C2494 1.574 . S
C2486 C2502 1.368 . S
H2487 C2495 0.950 . S
H2488 C2493 0.950 . S
H2489 C2494 0.949 . S
H2490 C2496 0.950 . S
H2491 C2497 0.950 . S
H2492 C2498 0.949 . S
C2493 H2488 0.950 . S
C2493 C2495 1.327 . S
C2493 C2499 1.429 . S
C2494 C2486 1.574 . S
C2494 H2489 0.949 . S
C2494 C2500 1.368 . S
C2495 C2479 1.349 . S
C2495 H2487 0.950 . S
C2495 C2493 1.327 . S
C2496 C2484 1.349 . S
C2496 H2490 0.950 . S
C2496 C2497 1.327 . S
C2497 H2491 0.950 . S
C2497 C2496 1.327 . S
C2497 C2501 1.429 . S
C2498 C2481 1.574 . S
C2498 H2492 0.949 . S
C2498 C2502 1.368 . S
C2499 C2480 1.429 . S
C2499 C2493 1.429 . S
C2499 C2500 1.523 . S
C2500 C2481 1.368 . S
C2500 C2494 1.368 . S
C2500 C2499 1.523 . S
C2501 C2485 1.429 . S
C2501 C2497 1.429 . S
C2501 C2502 1.523 . S
C2502 C2486 1.368 . S
C2502 C2498 1.368 . S
C2502 C2501 1.523 . S
H2503 C2478 0.950 . S
H2504 C2480 0.950 . S
H2505 C2481 0.949 . S
H2506 C2483 0.950 . S
H2507 C2485 0.950 . S
C2508 C2509 1.349 . S
C2508 C2510 1.327 . S
C2508 H2533 0.950 . S
C2509 C2508 1.349 . S
C2509 C2525 1.349 . S
C2510 C2508 1.327 . S
C2510 C2529 1.429 . S
C2510 H2534 0.950 . S
C2511 C2528 1.574 . S
C2511 C2530 1.368 . S
C2511 H2535 0.949 . S
H2512 C2516 0.949 . S
C2513 C2514 1.349 . S
C2513 C2515 1.327 . S
C2513 H2536 0.950 . S
C2514 C2513 1.349 . S
C2514 C2526 1.349 . S
C2515 C2513 1.327 . S
C2515 C2531 1.429 . S
C2515 H2537 0.950 . S
C2516 H2512 0.949 . S
C2516 C2524 1.574 . S
C2516 C2532 1.368 . S
H2517 C2525 0.950 . S
H2518 C2523 0.950 . S
H2519 C2524 0.949 . S
H2520 C2526 0.950 . S
H2521 C2527 0.950 . S
H2522 C2528 0.949 . S
C2523 H2518 0.950 . S
C2523 C2525 1.327 . S
C2523 C2529 1.429 . S
C2524 C2516 1.574 . S
C2524 H2519 0.949 . S
C2524 C2530 1.368 . S
C2525 C2509 1.349 . S
C2525 H2517 0.950 . S
C2525 C2523 1.327 . S
C2526 C2514 1.349 . S
C2526 H2520 0.950 . S
C2526 C2527 1.327 . S
C2527 H2521 0.950 . S
C2527 C2526 1.327 . S
C2527 C2531 1.429 . S
C2528 C2511 1.574 . S
C2528 H2522 0.949 . S
C2528 C2532 1.368 . S
C2529 C2510 1.429 . S
C2529 C2523 1.429 . S
C2529 C2530 1.523 . S
C2530 C2511 1.368 . S
C2530 C2524 1.368 . S
C2530 C2529 1.523 . S
C2531 C2515 1.429 . S
C2531 C2527 1.429 . S
C2531 C2532 1.523 . S
C2532 C2516 1.368 . S
C2532 C2528 1.368 . S
C2532 C2531 1.523 . S
H2533 C2508 0.950 . S
H2534 C2510 0.950 . S
H2535 C2511 0.949 . S
H2536 C2513 0.950 . S
H2537 C2515 0.950 . S
C2538 C2539 1.349 . S
C2538 C2540 1.327 . S
C2538 H2563 0.950 . S
C2539 C2538 1.349 . S
C2539 C2555 1.349 . S
C2540 C2538 1.327 . S
C2540 C2559 1.429 . S
C2540 H2564 0.950 . S
C2541 C2558 1.574 . S
C2541 C2560 1.368 . S
C2541 H2565 0.949 . S
H2542 C2546 0.949 . S
C2543 C2544 1.349 . S
C2543 C2545 1.327 . S
C2543 H2566 0.950 . S
C2544 C2543 1.349 . S
C2544 C2556 1.349 . S
C2545 C2543 1.327 . S
C2545 C2561 1.429 . S
C2545 H2567 0.950 . S
C2546 H2542 0.949 . S
C2546 C2554 1.574 . S
C2546 C2562 1.368 . S
H2547 C2555 0.950 . S
H2548 C2553 0.950 . S
H2549 C2554 0.949 . S
H2550 C2556 0.950 . S
H2551 C2557 0.950 . S
H2552 C2558 0.949 . S
C2553 H2548 0.950 . S
C2553 C2555 1.327 . S
C2553 C2559 1.429 . S
C2554 C2546 1.574 . S
C2554 H2549 0.949 . S
C2554 C2560 1.368 . S
C2555 C2539 1.349 . S
C2555 H2547 0.950 . S
C2555 C2553 1.327 . S
C2556 C2544 1.349 . S
C2556 H2550 0.950 . S
C2556 C2557 1.327 . S
C2557 H2551 0.950 . S
C2557 C2556 1.327 . S
C2557 C2561 1.429 . S
C2558 C2541 1.574 . S
C2558 H2552 0.949 . S
C2558 C2562 1.368 . S
C2559 C2540 1.429 . S
C2559 C2553 1.429 . S
C2559 C2560 1.523 . S
C2560 C2541 1.368 . S
C2560 C2554 1.368 . S
C2560 C2559 1.523 . S
C2561 C2545 1.429 . S
C2561 C2557 1.429 . S
C2561 C2562 1.523 . S
C2562 C2546 1.368 . S
C2562 C2558 1.368 . S
C2562 C2561 1.523 . S
H2563 C2538 0.950 . S
H2564 C2540 0.950 . S
H2565 C2541 0.949 . S
H2566 C2543 0.950 . S
H2567 C2545 0.950 . S
C2568 C2569 1.349 . S
C2568 C2570 1.327 . S
C2568 H2593 0.950 . S
C2569 C2568 1.349 . S
C2569 C2585 1.349 . S
C2570 C2568 1.327 . S
C2570 C2589 1.429 . S
C2570 H2594 0.950 . S
C2571 C2588 1.574 1_556 S
C2571 C2590 1.368 . S
C2571 H2595 0.949 . S
H2572 C2576 0.949 . S
C2573 C2574 1.349 . S
C2573 C2575 1.327 . S
C2573 H2596 0.950 . S
C2574 C2573 1.349 . S
C2574 C2586 1.349 . S
C2575 C2573 1.327 . S
C2575 C2591 1.429 . S
C2575 H2597 0.950 . S
C2576 H2572 0.949 . S
C2576 C2584 1.574 1_554 S
C2576 C2592 1.368 . S
H2577 C2585 0.950 . S
H2578 C2583 0.950 . S
H2579 C2584 0.949 . S
H2580 C2586 0.950 . S
H2581 C2587 0.950 . S
H2582 C2588 0.949 . S
C2583 H2578 0.950 . S
C2583 C2585 1.327 . S
C2583 C2589 1.429 . S
C2584 C2576 1.574 1_556 S
C2584 H2579 0.949 . S
C2584 C2590 1.368 . S
C2585 C2569 1.349 . S
C2585 H2577 0.950 . S
C2585 C2583 1.327 . S
C2586 C2574 1.349 . S
C2586 H2580 0.950 . S
C2586 C2587 1.327 . S
C2587 H2581 0.950 . S
C2587 C2586 1.327 . S
C2587 C2591 1.429 . S
C2588 C2571 1.574 1_554 S
C2588 H2582 0.949 . S
C2588 C2592 1.368 . S
C2589 C2570 1.429 . S
C2589 C2583 1.429 . S
C2589 C2590 1.523 . S
C2590 C2571 1.368 . S
C2590 C2584 1.368 . S
C2590 C2589 1.523 . S
C2591 C2575 1.429 . S
C2591 C2587 1.429 . S
C2591 C2592 1.523 . S
C2592 C2576 1.368 . S
C2592 C2588 1.368 . S
C2592 C2591 1.523 . S
H2593 C2568 0.950 . S
H2594 C2570 0.950 . S
H2595 C2571 0.949 . S
H2596 C2573 0.950 . S
H2597 C2575 0.950 . S
C2598 C2599 1.349 . S
C2598 C2600 1.327 . S
C2598 H2623 0.950 . S
C2599 C2598 1.349 . S
C2599 C2615 1.349 . S
C2600 C2598 1.327 . S
C2600 C2619 1.429 . S
C2600 H2624 0.950 . S
C2601 C2618 1.574 . S
C2601 C2620 1.368 . S
C2601 H2625 0.949 . S
H2602 C2606 0.949 . S
C2603 C2604 1.349 . S
C2603 C2605 1.327 . S
C2603 H2626 0.950 . S
C2604 C2603 1.349 . S
C2604 C2616 1.349 . S
C2605 C2603 1.327 . S
C2605 C2621 1.429 . S
C2605 H2627 0.950 . S
C2606 H2602 0.949 . S
C2606 C2614 1.574 . S
C2606 C2622 1.368 . S
H2607 C2615 0.950 . S
H2608 C2613 0.950 . S
H2609 C2614 0.949 . S
H2610 C2616 0.950 . S
H2611 C2617 0.950 . S
H2612 C2618 0.949 . S
C2613 H2608 0.950 . S
C2613 C2615 1.327 . S
C2613 C2619 1.429 . S
C2614 C2606 1.574 . S
C2614 H2609 0.949 . S
C2614 C2620 1.368 . S
C2615 C2599 1.349 . S
C2615 H2607 0.950 . S
C2615 C2613 1.327 . S
C2616 C2604 1.349 . S
C2616 H2610 0.950 . S
C2616 C2617 1.327 . S
C2617 H2611 0.950 . S
C2617 C2616 1.327 . S
C2617 C2621 1.429 . S
C2618 C2601 1.574 . S
C2618 H2612 0.949 . S
C2618 C2622 1.368 . S
C2619 C2600 1.429 . S
C2619 C2613 1.429 . S
C2619 C2620 1.523 . S
C2620 C2601 1.368 . S
C2620 C2614 1.368 . S
C2620 C2619 1.523 . S
C2621 C2605 1.429 . S
C2621 C2617 1.429 . S
C2621 C2622 1.523 . S
C2622 C2606 1.368 . S
C2622 C2618 1.368 . S
C2622 C2621 1.523 . S
H2623 C2598 0.950 . S
H2624 C2600 0.950 . S
H2625 C2601 0.949 . S
H2626 C2603 0.950 . S
H2627 C2605 0.950 . S
C2628 C2629 1.349 . S
C2628 C2630 1.327 . S
C2628 H2653 0.950 . S
C2629 C2628 1.349 . S
C2629 C2645 1.349 . S
C2630 C2628 1.327 . S
C2630 C2649 1.429 . S
C2630 H2654 0.950 . S
C2631 C2648 1.574 . S
C2631 C2650 1.368 . S
C2631 H2655 0.949 . S
H2632 C2636 0.949 . S
C2633 C2634 1.349 . S
C2633 C2635 1.327 . S
C2633 H2656 0.950 . S
C2634 C2633 1.349 . S
C2634 C2646 1.349 . S
C2635 C2633 1.327 . S
C2635 C2651 1.429 . S
C2635 H2657 0.950 . S
C2636 H2632 0.949 . S
C2636 C2644 1.574 . S
C2636 C2652 1.368 . S
H2637 C2645 0.950 . S
H2638 C2643 0.950 . S
H2639 C2644 0.949 . S
H2640 C2646 0.950 . S
H2641 C2647 0.950 . S
H2642 C2648 0.949 . S
C2643 H2638 0.950 . S
C2643 C2645 1.327 . S
C2643 C2649 1.429 . S
C2644 C2636 1.574 . S
C2644 H2639 0.949 . S
C2644 C2650 1.368 . S
C2645 C2629 1.349 . S
C2645 H2637 0.950 . S
C2645 C2643 1.327 . S
C2646 C2634 1.349 . S
C2646 H2640 0.950 . S
C2646 C2647 1.327 . S
C2647 H2641 0.950 . S
C2647 C2646 1.327 . S
C2647 C2651 1.429 . S
C2648 C2631 1.574 . S
C2648 H2642 0.949 . S
C2648 C2652 1.368 . S
C2649 C2630 1.429 . S
C2649 C2643 1.429 . S
C2649 C2650 1.523 . S
C2650 C2631 1.368 . S
C2650 C2644 1.368 . S
C2650 C2649 1.523 . S
C2651 C2635 1.429 . S
C2651 C2647 1.429 . S
C2651 C2652 1.523 . S
C2652 C2636 1.368 . S
C2652 C2648 1.368 . S
C2652 C2651 1.523 . S
H2653 C2628 0.950 . S
H2654 C2630 0.950 . S
H2655 C2631 0.949 . S
H2656 C2633 0.950 . S
H2657 C2635 0.950 . S
C2658 C2659 1.349 . S
C2658 C2660 1.327 . S
C2658 H2683 0.950 . S
C2659 C2658 1.349 . S
C2659 C2675 1.349 . S
C2660 C2658 1.327 . S
C2660 C2679 1.429 . S
C2660 H2684 0.950 . S
C2661 C2678 1.574 1_565 S
C2661 C2680 1.368 . S
C2661 H2685 0.949 . S
H2662 C2666 0.949 . S
C2663 C2664 1.349 . S
C2663 C2665 1.327 . S
C2663 H2686 0.950 . S
C2664 C2663 1.349 . S
C2664 C2676 1.349 . S
C2665 C2663 1.327 . S
C2665 C2681 1.429 . S
C2665 H2687 0.950 . S
C2666 H2662 0.949 . S
C2666 C2674 1.574 1_545 S
C2666 C2682 1.368 . S
H2667 C2675 0.950 . S
H2668 C2673 0.950 . S
H2669 C2674 0.949 . S
H2670 C2676 0.950 . S
H2671 C2677 0.950 . S
H2672 C2678 0.949 . S
C2673 H2668 0.950 . S
C2673 C2675 1.327 . S
C2673 C2679 1.429 . S
C2674 C2666 1.574 1_565 S
C2674 H2669 0.949 . S
C2674 C2680 1.368 . S
C2675 C2659 1.349 . S
C2675 H2667 0.950 . S
C2675 C2673 1.327 . S
C2676 C2664 1.349 . S
C2676 H2670 0.950 . S
C2676 C2677 1.327 . S
C2677 H2671 0.950 . S
C2677 C2676 1.327 . S
C2677 C2681 1.429 . S
C2678 C2661 1.574 1_545 S
C2678 H2672 0.949 . S
C2678 C2682 1.368 . S
C2679 C2660 1.429 . S
C2679 C2673 1.429 . S
C2679 C2680 1.523 . S
C2680 C2661 1.368 . S
C2680 C2674 1.368 . S
C2680 C2679 1.523 . S
C2681 C2665 1.429 . S
C2681 C2677 1.429 . S
C2681 C2682 1.523 . S
C2682 C2666 1.368 . S
C2682 C2678 1.368 . S
C2682 C2681 1.523 . S
H2683 C2658 0.950 . S
H2684 C2660 0.950 . S
H2685 C2661 0.949 . S
H2686 C2663 0.950 . S
H2687 C2665 0.950 . S
C529 C227 1.431 . S
C534 C7 1.431 . S
C559 C458 1.431 . S
C564 C18 1.431 . S
C589 C469 1.431 . S
C594 C29 1.431 . S
C619 C480 1.431 . S
C624 C40 1.431 . S
C649 C524 1.431 . S
C654 C51 1.431 . S
C679 C238 1.431 . S
C684 C62 1.431 . S
C709 C513 1.431 . S
C714 C73 1.431 . S
C739 C84 1.431 . S
C744 C183 1.431 . S
C769 C95 1.431 . S
C774 C172 1.431 . S
C799 C139 1.431 . S
C804 C106 1.431 . S
C829 C150 1.431 . S
C834 C117 1.431 . S
C859 C161 1.431 . S
C864 C128 1.431 . S
C889 C194 1.431 . S
C894 C282 1.431 . S
C919 C293 1.431 . S
C924 C205 1.431 . S
C949 C216 1.431 . S
C954 C304 1.431 . S
C979 C337 1.431 . S
C984 C249 1.431 . S
C1009 C315 1.431 . S
C1014 C260 1.431 . S
C1039 C271 1.431 . S
C1044 C491 1.431 . S
C1069 C502 1.431 . S
C1074 C326 1.431 . S
C1099 C447 1.431 . S
C1104 C348 1.431 . S
C1129 C359 1.431 . S
C1134 C436 1.431 . S
C1159 C403 1.431 . S
C1164 C370 1.431 . S
C1189 C414 1.431 . S
C1194 C381 1.431 . S
C1219 C425 1.431 . S
C1224 C392 1.431 . S
C1249 C107 1.558 . S
C1254 C8 1.558 . S
C1279 C19 1.558 . S
C1284 C118 1.558 . S
C1309 C30 1.558 . S
C1314 C129 1.558 . S
C1339 C41 1.558 . S
C1344 C96 1.558 . S
C1369 C173 1.558 . S
C1374 C52 1.558 . S
C1399 C63 1.558 . S
C1404 C140 1.558 . S
C1429 C151 1.558 . S
C1434 C74 1.558 . S
C1459 C85 1.558 . S
C1464 C162 1.558 . S
C1489 C206 1.558 . S
C1494 C184 1.558 . S
C1519 C514 1.558 . S
C1524 C195 1.558 . S
C1549 C217 1.558 . S
C1554 C525 1.558 . S
C1579 C503 1.558 . S
C1584 C228 1.558 . S
C1609 C492 1.558 . S
C1614 C239 1.558 . S
C1639 C459 1.558 . S
C1644 C250 1.558 . S
C1669 C261 1.558 . S
C1674 C481 1.558 . S
C1699 C272 1.558 . S
C1704 C371 1.558 . S
C1729 C283 1.558 . S
C1734 C382 1.558 . S
C1759 C393 1.558 . S
C1764 C294 1.558 . S
C1789 C360 1.558 . S
C1794 C305 1.558 . S
C1819 C437 1.558 . S
C1824 C316 1.558 . S
C1849 C327 1.558 . S
C1854 C404 1.558 . S
C1879 C338 1.558 . S
C1884 C415 1.558 . S
C1909 C349 1.558 . S
C1914 C426 1.558 . S
C1939 C470 1.558 . S
C1944 C448 1.558 . S
C1969 C291 1.266 . S
C1974 C5 1.266 . S
C1999 C16 1.266 . S
C2004 C302 1.266 . S
C2029 C27 1.266 . S
C2034 C269 1.266 . S
C2059 C280 1.266 . S
C2064 C38 1.266 . S
C2089 C49 1.266 . S
C2094 C335 1.266 . S
C2119 C60 1.266 . S
C2124 C346 1.266 . S
C2149 C313 1.266 . S
C2154 C71 1.266 . S
C2179 C324 1.266 . S
C2184 C82 1.266 . S
C2209 C137 1.266 . S
C2214 C93 1.266 . S
C2239 C148 1.266 . S
C2244 C104 1.266 . S
C2269 C159 1.266 . S
C2274 C115 1.266 . S
C2299 C170 1.266 . S
C2304 C126 1.266 . S
C2329 C181 1.266 . S
C2334 C478 1.266 . S
C2359 C192 1.266 . S
C2364 C500 1.266 . S
C2389 C203 1.266 . S
C2394 C247 1.266 . S
C2419 C445 1.266 . S
C2424 C214 1.266 . S
C2449 C522 1.266 . S
C2454 C225 1.266 . S
C2479 C236 1.266 . S
C2484 C456 1.266 . S
C2509 C258 1.266 . S
C2514 C489 1.266 . S
C2539 C401 1.266 . S
C2544 C357 1.266 . S
C2569 C368 1.266 . S
C2574 C412 1.266 . S
C2599 C423 1.266 . S
C2604 C379 1.266 . S
C2629 C434 1.266 . S
C2634 C390 1.266 . S
C2659 C467 1.266 . S
C2664 C511 1.266 . S
