# Generated by pormake.
# Topology unh, (4)-cn, num edge types: 1
# Building blocks:
#     Node 0, Type 0, BuildingBlock: CEKHIL_clean_sbu_0, # of connection points: 4
#     Node 1, Type 0, BuildingBlock: CEKHIL_clean_sbu_0, # of connection points: 4
#     Node 2, Type 0, BuildingBlock: CEKHIL_clean_sbu_0, # of connection points: 4
#     Node 3, Type 0, BuildingBlock: CEKHIL_clean_sbu_0, # of connection points: 4
#     Node 4, Type 0, BuildingBlock: CEKHIL_clean_sbu_0, # of connection points: 4
#     Node 5, Type 0, BuildingBlock: CEKHIL_clean_sbu_0, # of connection points: 4
#     Edge 6, Type (0, 0), BuildingBlock: XIVTED_clean_linker_0, # of connection points: 2
#     Edge 7, Type (0, 0), BuildingBlock: XIVTED_clean_linker_0, # of connection points: 2
#     Edge 8, Type (0, 0), BuildingBlock: XIVTED_clean_linker_0, # of connection points: 2
#     Edge 9, Type (0, 0), BuildingBlock: XIVTED_clean_linker_0, # of connection points: 2
#     Edge 10, Type (0, 0), BuildingBlock: XIVTED_clean_linker_0, # of connection points: 2
#     Edge 11, Type (0, 0), BuildingBlock: XIVTED_clean_linker_0, # of connection points: 2
#     Edge 12, Type (0, 0), BuildingBlock: XIVTED_clean_linker_0, # of connection points: 2
#     Edge 13, Type (0, 0), BuildingBlock: XIVTED_clean_linker_0, # of connection points: 2
#     Edge 14, Type (0, 0), BuildingBlock: XIVTED_clean_linker_0, # of connection points: 2
#     Edge 15, Type (0, 0), BuildingBlock: XIVTED_clean_linker_0, # of connection points: 2
#     Edge 16, Type (0, 0), BuildingBlock: XIVTED_clean_linker_0, # of connection points: 2
#     Edge 17, Type (0, 0), BuildingBlock: XIVTED_clean_linker_0, # of connection points: 2
# Relax obj value: 0.073
# Max RMSD: 0.185
# Mean RMSD: 0.185
data_MOF--net-unh--node1-CEKHIL_clean_sbu_0--edge1-XIVTED_clean_linker_0
_symmetry_space_group_name_H-M    P1
_symmetry_Int_Tables_number       1
_symmetry_cell_setting            triclinic
loop_
_symmetry_equiv_pos_as_xyz
'x, y, z'
_cell_length_a     41.911138
_cell_length_b     41.878918
_cell_length_c     22.144957
_cell_angle_alpha  89.976158
_cell_angle_beta   89.930802
_cell_angle_gamma 119.925
loop_
_atom_site_label
_atom_site_type_symbol
_atom_site_fract_x
_atom_site_fract_y
_atom_site_fract_z
_atom_type_partial_charge
Co0 Co 0.12316 0.54521 0.11226 0.0
O1 O 0.08622 0.51518 0.1697 0.0
O2 O 0.09161 0.56593 0.12904 0.0
C3 C 0.17067 0.54791 0.16364 0.0
O4 O 0.15945 0.58388 0.05338 0.0
Co5 Co 0.16448 0.51224 0.045 0.0
O6 O 0.19844 0.56454 0.02436 0.0
C7 C 0.09146 0.4948 0.00174 0.0
C8 C 0.07499 0.5389 0.16736 0.0
C9 C 0.18906 0.58915 0.02679 0.0
O10 O 0.09057 0.51554 0.04367 0.0
O11 O 0.11801 0.48821 0.99558 0.0
O12 O 0.15789 0.5696 0.17657 0.0
O13 O 0.15182 0.52231 0.12442 0.0
Co14 Co 0.58326 0.12901 0.27073 0.0
O15 O 0.57733 0.09006 0.32357 0.0
O16 O 0.53209 0.09929 0.29397 0.0
C17 C 0.63263 0.17439 0.31738 0.0
O18 O 0.57898 0.16693 0.21918 0.0
Co19 Co 0.65341 0.17029 0.19122 0.0
O20 O 0.63103 0.20006 0.16536 0.0
C21 C 0.59479 0.09712 0.15366 0.0
C22 C 0.54275 0.08051 0.3266 0.0
C23 C 0.59882 0.19261 0.18134 0.0
O24 O 0.57481 0.09722 0.19774 0.0
O25 O 0.62828 0.1224 0.14583 0.0
O26 O 0.59975 0.16301 0.3383 0.0
O27 O 0.63508 0.15567 0.27294 0.0
Co28 Co 0.45536 0.58132 0.43634 0.0
O29 O 0.48907 0.57406 0.48436 0.0
O30 O 0.43516 0.52918 0.45227 0.0
C31 C 0.45712 0.62698 0.49199 0.0
O32 O 0.4131 0.57918 0.38764 0.0
Co33 Co 0.4843 0.65492 0.36803 0.0
O34 O 0.43098 0.63733 0.35931 0.0
C35 C 0.4975 0.59818 0.3163 0.0
C36 C 0.46499 0.53919 0.48349 0.0
C37 C 0.40642 0.60351 0.36477 0.0
O38 O 0.47914 0.5772 0.36056 0.0
O39 O 0.50485 0.63167 0.31184 0.0
O40 O 0.43651 0.59276 0.50749 0.0
O41 O 0.47951 0.63295 0.4473 0.0
Co42 Co 0.87085 0.4534 0.60979 0.0
O43 O 0.90577 0.48443 0.66915 0.0
O44 O 0.90459 0.43568 0.62792 0.0
C45 C 0.82061 0.44651 0.6579 0.0
O46 O 0.83771 0.41377 0.55002 0.0
Co47 Co 0.82656 0.48131 0.53847 0.0
O48 O 0.80047 0.43082 0.50468 0.0
C49 C 0.90217 0.50536 0.50065 0.0
C50 C 0.91915 0.46241 0.66698 0.0
C51 C 0.81124 0.40768 0.5139 0.0
O52 O 0.90376 0.48496 0.54256 0.0
O53 O 0.87425 0.50961 0.49303 0.0
O54 O 0.83536 0.42672 0.6722 0.0
O55 O 0.83892 0.47293 0.61952 0.0
Co56 Co 0.41374 0.87129 0.76852 0.0
O57 O 0.41786 0.90853 0.82301 0.0
O58 O 0.46507 0.90399 0.78852 0.0
C59 C 0.36829 0.82331 0.81792 0.0
O60 O 0.41919 0.83513 0.71376 0.0
Co61 Co 0.34256 0.82808 0.69485 0.0
O62 O 0.36199 0.79399 0.68317 0.0
C63 C 0.398 0.90142 0.6527 0.0
C64 C 0.453 0.92073 0.82337 0.0
C65 C 0.39606 0.80441 0.6888 0.0
O66 O 0.41814 0.90293 0.69747 0.0
O67 O 0.36548 0.8743 0.64421 0.0
O68 O 0.40233 0.83737 0.83451 0.0
O69 O 0.36198 0.84141 0.77645 0.0
Co70 Co 0.53764 0.41327 0.93727 0.0
O71 O 0.50436 0.42217 0.98379 0.0
O72 O 0.55977 0.46548 0.95418 0.0
C73 C 0.53179 0.36559 0.99251 0.0
O74 O 0.57976 0.41386 0.89037 0.0
Co75 Co 0.50717 0.33923 0.86791 0.0
O76 O 0.56025 0.35637 0.85636 0.0
C77 C 0.49694 0.39815 0.81655 0.0
C78 C 0.52974 0.45663 0.98416 0.0
C79 C 0.58552 0.38968 0.86439 0.0
O80 O 0.51618 0.41929 0.86006 0.0
O81 O 0.4877 0.36408 0.81333 0.0
O82 O 0.55346 0.39922 0.00997 0.0
O83 O 0.51138 0.36173 0.94613 0.0
H84 H 0.02831 0.4984 0.00492 0.0
H85 H 0.95674 0.4239 0.67368 0.0
H86 H 0.08805 0.46196 0.89178 0.0
H87 H 0.94307 0.50762 0.76418 0.0
H88 H 0.99727 0.42657 0.75664 0.0
H89 H 0.98637 0.4878 0.92193 0.0
C90 C 0.03243 0.48773 0.96287 0.0
C91 C 0.06225 0.48168 0.95516 0.0
C92 C 0.98541 0.44437 0.75777 0.0
C93 C 0.01412 0.46968 0.8595 0.0
C94 C 0.96246 0.44297 0.71058 0.0
C95 C 0.94652 0.46557 0.71208 0.0
C96 C 0.99157 0.46792 0.80695 0.0
C97 C 0.95472 0.48971 0.76095 0.0
C98 C 0.00852 0.48188 0.91535 0.0
C99 C 0.06562 0.46727 0.89963 0.0
N100 N 0.97634 0.48996 0.80655 0.0
N101 N 0.04198 0.46202 0.85352 0.0
H102 H 0.43255 0.95758 0.90037 0.0
H103 H 0.62643 0.08298 0.05537 0.0
H104 H 0.52724 0.94958 0.84552 0.0
H105 H 0.52173 0.04663 0.14332 0.0
H106 H 0.59391 0.04081 0.97144 0.0
H107 H 0.4688 -0.00057 0.98059 0.0
C108 C 0.46114 0.96487 0.90482 0.0
C109 C 0.47681 0.94977 0.86648 0.0
C110 C 0.57831 0.04199 0.00953 0.0
C111 C 0.51849 0.99769 0.95897 0.0
C112 C 0.59675 0.06593 0.05746 0.0
C113 C 0.57679 0.06859 0.10645 0.0
C114 C 0.53974 0.02116 0.01036 0.0
C115 C 0.53838 0.04575 0.10667 0.0
C116 C 0.48174 0.9886 0.95101 0.0
C117 C 0.5141 0.96053 0.87431 0.0
N118 N 0.52117 0.02339 0.05912 0.0
N119 N 0.5338 0.98389 0.91998 0.0
H120 H 0.4761 0.52567 0.30379 0.0
H121 H 0.58021 0.52969 0.00736 0.0
H122 H 0.53969 0.63066 0.21377 0.0
H123 H 0.46997 0.44336 0.05046 0.0
H124 H 0.57478 0.56842 0.08613 0.0
H125 H 0.48478 0.49539 0.21752 0.0
C126 C 0.49226 0.54257 0.26618 0.0
C127 C 0.50693 0.58092 0.2661 0.0
C128 C 0.55175 0.54118 0.07731 0.0
C129 C 0.51684 0.54585 0.1665 0.0
C130 C 0.55474 0.51914 0.03253 0.0
C131 C 0.52566 0.48306 0.02295 0.0
C132 C 0.51979 0.52656 0.1129 0.0
C133 C 0.49329 0.47075 0.05671 0.0
C134 C 0.49692 0.52508 0.21664 0.0
C135 C 0.52771 0.60103 0.21562 0.0
N136 N 0.49147 0.4922 0.10072 0.0
N137 N 0.53216 0.58321 0.16756 0.0
H138 H 0.96719 0.50537 0.50509 0.0
H139 H 0.04175 0.58176 0.17612 0.0
H140 H 0.90544 0.53915 0.39165 0.0
H141 H 0.04717 0.4919 0.26176 0.0
H142 H 0.00157 0.58024 0.25929 0.0
H143 H 0.00993 0.51776 0.42228 0.0
C144 C 0.96285 0.51595 0.46312 0.0
C145 C 0.93213 0.52048 0.45509 0.0
C146 C 0.01161 0.5609 0.25921 0.0
C147 C 0.98119 0.5346 0.35984 0.0
C148 C 0.03432 0.56163 0.21193 0.0
C149 C 0.04785 0.53695 0.21205 0.0
C150 C 0.00343 0.53598 0.30711 0.0
C151 C 0.0375 0.5115 0.25957 0.0
C152 C 0.98722 0.52284 0.41576 0.0
C153 C 0.92851 0.53488 0.39967 0.0
N154 N 0.01632 0.51197 0.30531 0.0
N155 N 0.95258 0.54109 0.35367 0.0
H156 H 0.46715 0.04702 0.33606 0.0
H157 H 0.46616 0.96256 0.65675 0.0
H158 H 0.56225 0.05008 0.41715 0.0
H159 H 0.37007 0.90756 0.54264 0.0
H160 H 0.49876 0.00552 0.57548 0.0
H161 H 0.42836 0.00401 0.41598 0.0
C162 C 0.47979 0.03848 0.37028 0.0
C163 C 0.51797 0.05214 0.37006 0.0
C164 C 0.47046 0.98417 0.56831 0.0
C165 C 0.47423 0.00418 0.46153 0.0
C166 C 0.45164 0.95964 0.61486 0.0
C167 C 0.41533 0.93088 0.60643 0.0
C168 C 0.45297 0.98042 0.51279 0.0
C169 C 0.39809 0.92911 0.55104 0.0
C170 C 0.4577 0.01406 0.41567 0.0
C171 C 0.53299 0.04025 0.41539 0.0
N172 N 0.41716 0.9535 0.50598 0.0
N173 N 0.51116 0.01733 0.45955 0.0
H174 H 0.44782 0.36463 0.72266 0.0
H175 H 0.52726 0.5532 0.54226 0.0
H176 H 0.52786 0.47131 0.79258 0.0
H177 H 0.41497 0.46707 0.51326 0.0
H178 H 0.53366 0.51574 0.6198 0.0
H179 H 0.43954 0.3955 0.63414 0.0
C180 C 0.46343 0.3944 0.71967 0.0
C181 C 0.48855 0.4154 0.76524 0.0
C182 C 0.50767 0.50488 0.5962 0.0
C183 C 0.4799 0.45034 0.66411 0.0
C184 C 0.50402 0.52615 0.55167 0.0
C185 C 0.47031 0.51347 0.52196 0.0
C186 C 0.47749 0.47053 0.61127 0.0
C187 C 0.44134 0.47793 0.53551 0.0
C188 C 0.45871 0.41187 0.66926 0.0
C189 C 0.50807 0.45388 0.75899 0.0
N190 N 0.44545 0.45766 0.57984 0.0
N191 N 0.50357 0.46997 0.70924 0.0
H192 H 0.20312 0.50432 0.1571 0.0
H193 H 0.37454 0.64586 0.35592 0.0
H194 H 0.21469 0.60308 0.23898 0.0
H195 H 0.35448 0.53618 0.31901 0.0
H196 H 0.31641 0.63021 0.30834 0.0
H197 H 0.2593 0.51502 0.21044 0.0
C198 C 0.21742 0.52814 0.18612 0.0
C199 C 0.20432 0.55289 0.19351 0.0
C200 C 0.32443 0.60933 0.31082 0.0
C201 C 0.26797 0.56518 0.25416 0.0
C202 C 0.35771 0.61832 0.33799 0.0
C203 C 0.36939 0.59233 0.34121 0.0
C204 C 0.3026 0.57415 0.28577 0.0
C205 C 0.34631 0.55695 0.31762 0.0
C206 C 0.24926 0.53412 0.21669 0.0
C207 C 0.22372 0.58326 0.23175 0.0
N208 N 0.31405 0.54894 0.29021 0.0
N209 N 0.25448 0.58854 0.26031 0.0
H210 H 0.69333 0.2285 0.25943 0.0
H211 H 0.79168 0.33953 0.55835 0.0
H212 H 0.6441 0.1929 0.43552 0.0
H213 H 0.78615 0.39522 0.3982 0.0
H214 H 0.75269 0.28006 0.50815 0.0
H215 H 0.74306 0.28514 0.3055 0.0
C216 C 0.69344 0.23236 0.30781 0.0
C217 C 0.6647 0.20642 0.34393 0.0
C218 C 0.76061 0.30542 0.48391 0.0
C219 C 0.72126 0.2699 0.39639 0.0
C220 C 0.78283 0.33918 0.51228 0.0
C221 C 0.79171 0.37209 0.48236 0.0
C222 C 0.7482 0.30482 0.42487 0.0
C223 C 0.77947 0.37031 0.42285 0.0
C224 C 0.72157 0.26453 0.33386 0.0
C225 C 0.66573 0.21257 0.40628 0.0
N226 N 0.7583 0.33715 0.39588 0.0
N227 N 0.69366 0.24368 0.4307 0.0
H228 H 0.35706 0.7301 0.68383 0.0
H229 H 0.49423 0.70243 0.47189 0.0
H230 H 0.46333 0.8226 0.63864 0.0
H231 H 0.41048 0.61716 0.58348 0.0
H232 H 0.48295 0.74805 0.52401 0.0
H233 H 0.37518 0.68884 0.63806 0.0
C234 C 0.38435 0.7417 0.66434 0.0
C235 C 0.40872 0.77977 0.66486 0.0
C236 C 0.46742 0.71933 0.53711 0.0
C237 C 0.42966 0.73259 0.61167 0.0
C238 C 0.47373 0.69338 0.50737 0.0
C239 C 0.45307 0.65595 0.52306 0.0
C240 C 0.44004 0.70741 0.58197 0.0
C241 C 0.42691 0.64562 0.56942 0.0
C242 C 0.39476 0.71812 0.63836 0.0
C243 C 0.44386 0.79331 0.63933 0.0
N244 N 0.42101 0.67109 0.59676 0.0
N245 N 0.45324 0.7697 0.613 0.0
H246 H 0.64006 0.45891 0.83013 0.0
H247 H 0.77314 0.38529 0.71927 0.0
H248 H 0.61426 0.34554 0.84005 0.0
H249 H 0.78927 0.491 0.66277 0.0
H250 H 0.71774 0.37339 0.77259 0.0
H251 H 0.69814 0.47449 0.77873 0.0
C252 C 0.6468 0.43744 0.82217 0.0
C253 C 0.62226 0.40084 0.83918 0.0
C254 C 0.73318 0.39919 0.74845 0.0
C255 C 0.68815 0.41838 0.7805 0.0
C256 C 0.76491 0.40604 0.71792 0.0
C257 C 0.78583 0.43921 0.68653 0.0
C258 C 0.72212 0.42575 0.74815 0.0
C259 C 0.77374 0.465 0.68627 0.0
C260 C 0.67971 0.44629 0.79242 0.0
C261 C 0.63217 0.37405 0.82737 0.0
N262 N 0.74262 0.45781 0.717 0.0
N263 N 0.66426 0.38337 0.79884 0.0
H264 H 0.38017 0.77491 0.87976 0.0
H265 H 0.17346 0.64286 0.98852 0.0
H266 H 0.29228 0.79232 0.81854 0.0
H267 H 0.2606 0.61632 0.99563 0.0
H268 H 0.21548 0.70023 0.93433 0.0
H269 H 0.33566 0.71917 0.93046 0.0
C270 C 0.35132 0.76691 0.87683 0.0
C271 C 0.33991 0.78835 0.84495 0.0
C272 C 0.22514 0.68166 0.9478 0.0
C273 C 0.28831 0.72398 0.90356 0.0
C274 C 0.20135 0.64913 0.97902 0.0
C275 C 0.21351 0.62471 0.99656 0.0
C276 C 0.26129 0.68979 0.93504 0.0
C277 C 0.24982 0.63406 0.98279 0.0
C278 C 0.32581 0.73489 0.9058 0.0
C279 C 0.30211 0.7764 0.84256 0.0
N280 N 0.27228 0.66575 0.95314 0.0
N281 N 0.27748 0.74495 0.87195 0.0
H282 H 0.54525 0.36026 0.11053 0.0
H283 H 0.60683 0.21579 0.06492 0.0
H284 H 0.52184 0.30156 0.94168 0.0
H285 H 0.55554 0.21698 0.23325 0.0
H286 H 0.58274 0.25263 0.01852 0.0
H287 H 0.55513 0.31296 0.15772 0.0
C288 C 0.54181 0.33715 0.08363 0.0
C289 C 0.53292 0.33475 0.02216 0.0
C290 C 0.5765 0.24448 0.06542 0.0
C291 C 0.54505 0.28142 0.07527 0.0
C292 C 0.59046 0.22383 0.09202 0.0
C293 C 0.58329 0.21366 0.15301 0.0
C294 C 0.5562 0.2559 0.10058 0.0
C295 C 0.56163 0.22436 0.18608 0.0
C296 C 0.5473 0.31021 0.11059 0.0
C297 C 0.52868 0.30432 0.98919 0.0
N298 N 0.54935 0.24557 0.15969 0.0
N299 N 0.53559 0.27913 0.0159 0.0
loop_
_geom_bond_atom_site_label_1
_geom_bond_atom_site_label_2
_geom_bond_distance
_geom_bond_site_symmetry_2
_ccdc_geom_bond_type
Co0 O1 2.216 . S
Co0 O2 2.091 . S
Co0 O4 2.004 . S
Co0 O10 2.021 . S
Co0 O12 2.137 . S
Co0 O13 2.244 . S
O1 Co0 2.216 . S
O1 C8 1.247 . S
O2 Co0 2.091 . S
O2 C8 1.261 . S
C3 O12 1.247 . S
C3 O13 1.272 . S
O4 Co0 2.004 . S
O4 C9 1.259 . S
Co5 O6 2.061 . S
Co5 O11 2.052 . S
Co5 O13 2.135 1_556 S
O6 Co5 2.061 . S
O6 C9 1.235 1_556 S
C7 O10 1.238 1_556 S
C7 O11 1.241 . S
C8 O1 1.247 . S
C8 O2 1.261 . S
C9 O4 1.259 . S
C9 O6 1.235 1_554 S
O10 Co0 2.021 . S
O10 C7 1.238 1_554 S
O11 Co5 2.052 . S
O11 C7 1.241 . S
O12 Co0 2.137 . S
O12 C3 1.247 . S
O13 Co0 2.244 . S
O13 C3 1.272 . S
O13 Co5 2.135 1_554 S
Co14 O15 2.216 . S
Co14 O16 2.091 . S
Co14 O18 2.004 . S
Co14 O24 2.021 . S
Co14 O26 2.137 . S
Co14 O27 2.244 . S
O15 Co14 2.216 . S
O15 C22 1.247 . S
O16 Co14 2.091 . S
O16 C22 1.261 . S
C17 O26 1.247 . S
C17 O27 1.272 . S
O18 Co14 2.004 . S
O18 C23 1.259 . S
Co19 O20 2.061 . S
Co19 O25 2.052 . S
Co19 O27 2.135 . S
O20 Co19 2.061 . S
O20 C23 1.235 . S
C21 O24 1.238 . S
C21 O25 1.241 . S
C22 O15 1.247 . S
C22 O16 1.261 . S
C23 O18 1.259 . S
C23 O20 1.235 . S
O24 Co14 2.021 . S
O24 C21 1.238 . S
O25 Co19 2.052 . S
O25 C21 1.241 . S
O26 Co14 2.137 . S
O26 C17 1.247 . S
O27 Co14 2.244 . S
O27 C17 1.272 . S
O27 Co19 2.135 . S
Co28 O29 2.216 . S
Co28 O30 2.091 . S
Co28 O32 2.004 . S
Co28 O38 2.021 . S
Co28 O40 2.137 . S
Co28 O41 2.244 . S
O29 Co28 2.216 . S
O29 C36 1.247 . S
O30 Co28 2.091 . S
O30 C36 1.261 . S
C31 O40 1.247 . S
C31 O41 1.272 . S
O32 Co28 2.004 . S
O32 C37 1.259 . S
Co33 O34 2.061 . S
Co33 O39 2.052 . S
Co33 O41 2.135 . S
O34 Co33 2.061 . S
O34 C37 1.235 . S
C35 O38 1.238 . S
C35 O39 1.241 . S
C36 O29 1.247 . S
C36 O30 1.261 . S
C37 O32 1.259 . S
C37 O34 1.235 . S
O38 Co28 2.021 . S
O38 C35 1.238 . S
O39 Co33 2.052 . S
O39 C35 1.241 . S
O40 Co28 2.137 . S
O40 C31 1.247 . S
O41 Co28 2.244 . S
O41 C31 1.272 . S
O41 Co33 2.135 . S
Co42 O43 2.216 . S
Co42 O44 2.091 . S
Co42 O46 2.004 . S
Co42 O52 2.021 . S
Co42 O54 2.137 . S
Co42 O55 2.244 . S
O43 Co42 2.216 . S
O43 C50 1.247 . S
O44 Co42 2.091 . S
O44 C50 1.261 . S
C45 O54 1.247 . S
C45 O55 1.272 . S
O46 Co42 2.004 . S
O46 C51 1.259 . S
Co47 O48 2.061 . S
Co47 O53 2.052 . S
Co47 O55 2.135 . S
O48 Co47 2.061 . S
O48 C51 1.235 . S
C49 O52 1.238 . S
C49 O53 1.241 . S
C50 O43 1.247 . S
C50 O44 1.261 . S
C51 O46 1.259 . S
C51 O48 1.235 . S
O52 Co42 2.021 . S
O52 C49 1.238 . S
O53 Co47 2.052 . S
O53 C49 1.241 . S
O54 Co42 2.137 . S
O54 C45 1.247 . S
O55 Co42 2.244 . S
O55 C45 1.272 . S
O55 Co47 2.135 . S
Co56 O57 2.216 . S
Co56 O58 2.091 . S
Co56 O60 2.004 . S
Co56 O66 2.021 . S
Co56 O68 2.137 . S
Co56 O69 2.244 . S
O57 Co56 2.216 . S
O57 C64 1.247 . S
O58 Co56 2.091 . S
O58 C64 1.261 . S
C59 O68 1.247 . S
C59 O69 1.272 . S
O60 Co56 2.004 . S
O60 C65 1.259 . S
Co61 O62 2.061 . S
Co61 O67 2.052 . S
Co61 O69 2.135 . S
O62 Co61 2.061 . S
O62 C65 1.235 . S
C63 O66 1.238 . S
C63 O67 1.241 . S
C64 O57 1.247 . S
C64 O58 1.261 . S
C65 O60 1.259 . S
C65 O62 1.235 . S
O66 Co56 2.021 . S
O66 C63 1.238 . S
O67 Co61 2.052 . S
O67 C63 1.241 . S
O68 Co56 2.137 . S
O68 C59 1.247 . S
O69 Co56 2.244 . S
O69 C59 1.272 . S
O69 Co61 2.135 . S
Co70 O71 2.216 . S
Co70 O72 2.091 . S
Co70 O74 2.004 . S
Co70 O80 2.021 . S
Co70 O82 2.137 1_556 S
Co70 O83 2.244 . S
O71 Co70 2.216 . S
O71 C78 1.247 1_556 S
O72 Co70 2.091 . S
O72 C78 1.261 1_556 S
C73 O82 1.247 1_556 S
C73 O83 1.272 . S
O74 Co70 2.004 . S
O74 C79 1.259 . S
Co75 O76 2.061 . S
Co75 O81 2.052 . S
Co75 O83 2.135 . S
O76 Co75 2.061 . S
O76 C79 1.235 . S
C77 O80 1.238 . S
C77 O81 1.241 . S
C78 O71 1.247 1_554 S
C78 O72 1.261 1_554 S
C79 O74 1.259 . S
C79 O76 1.235 . S
O80 Co70 2.021 . S
O80 C77 1.238 . S
O81 Co75 2.052 . S
O81 C77 1.241 . S
O82 Co70 2.137 1_554 S
O82 C73 1.247 1_554 S
O83 Co70 2.244 . S
O83 C73 1.272 . S
O83 Co75 2.135 . S
H84 C90 0.930 1_554 S
H85 C94 0.930 . S
H86 C99 0.929 . S
H87 C97 0.929 . S
H88 C92 0.929 . S
H89 C98 0.929 1_655 S
C90 H84 0.930 1_556 S
C90 C91 1.367 . S
C90 C98 1.378 . S
C91 C90 1.367 . S
C91 C99 1.433 . S
C92 H88 0.929 . S
C92 C94 1.378 1_455 S
C92 C96 1.350 1_455 S
C93 C96 1.463 1_455 S
C93 C98 1.350 . S
C93 N101 1.427 . S
C94 H85 0.930 . S
C94 C92 1.378 1_655 S
C94 C95 1.367 . S
C95 C94 1.367 . S
C95 C97 1.433 . S
C96 C92 1.350 1_655 S
C96 C93 1.463 1_655 S
C96 N100 1.427 . S
C97 H87 0.929 . S
C97 C95 1.433 . S
C97 N100 1.384 . S
C98 H89 0.929 1_455 S
C98 C90 1.378 . S
C98 C93 1.350 . S
C99 H86 0.929 . S
C99 C91 1.433 . S
C99 N101 1.384 . S
N100 C96 1.427 . S
N100 C97 1.384 . S
N101 C93 1.427 . S
N101 C99 1.384 . S
H102 C108 0.930 . S
H103 C112 0.930 . S
H104 C117 0.929 . S
H105 C115 0.929 . S
H106 C110 0.929 1_565 S
H107 C116 0.929 1_545 S
C108 H102 0.930 . S
C108 C109 1.367 . S
C108 C116 1.378 . S
C109 C108 1.367 . S
C109 C117 1.433 . S
C110 H106 0.929 1_545 S
C110 C112 1.378 . S
C110 C114 1.350 . S
C111 C114 1.463 1_566 S
C111 C116 1.350 . S
C111 N119 1.427 . S
C112 H103 0.930 . S
C112 C110 1.378 . S
C112 C113 1.367 . S
C113 C112 1.367 . S
C113 C115 1.433 . S
C114 C110 1.350 . S
C114 C111 1.463 1_544 S
C114 N118 1.427 . S
C115 H105 0.929 . S
C115 C113 1.433 . S
C115 N118 1.384 . S
C116 H107 0.929 1_565 S
C116 C108 1.378 . S
C116 C111 1.350 . S
C117 H104 0.929 . S
C117 C109 1.433 . S
C117 N119 1.384 . S
N118 C114 1.427 . S
N118 C115 1.384 . S
N119 C111 1.427 . S
N119 C117 1.384 . S
H120 C126 0.930 . S
H121 C130 0.930 . S
H122 C135 0.929 . S
H123 C133 0.929 . S
H124 C128 0.929 . S
H125 C134 0.929 . S
C126 H120 0.930 . S
C126 C127 1.367 . S
C126 C134 1.378 . S
C127 C126 1.367 . S
C127 C135 1.433 . S
C128 H124 0.929 . S
C128 C130 1.378 . S
C128 C132 1.350 . S
C129 C132 1.463 . S
C129 C134 1.350 . S
C129 N137 1.427 . S
C130 H121 0.930 . S
C130 C128 1.378 . S
C130 C131 1.367 . S
C131 C130 1.367 . S
C131 C133 1.433 . S
C132 C128 1.350 . S
C132 C129 1.463 . S
C132 N136 1.427 . S
C133 H123 0.929 . S
C133 C131 1.433 . S
C133 N136 1.384 . S
C134 H125 0.929 . S
C134 C126 1.378 . S
C134 C129 1.350 . S
C135 H122 0.929 . S
C135 C127 1.433 . S
C135 N137 1.384 . S
N136 C132 1.427 . S
N136 C133 1.384 . S
N137 C129 1.427 . S
N137 C135 1.384 . S
H138 C144 0.930 . S
H139 C148 0.930 . S
H140 C153 0.929 . S
H141 C151 0.929 . S
H142 C146 0.929 . S
H143 C152 0.929 . S
C144 H138 0.930 . S
C144 C145 1.367 . S
C144 C152 1.378 . S
C145 C144 1.367 . S
C145 C153 1.433 . S
C146 H142 0.929 . S
C146 C148 1.378 . S
C146 C150 1.350 . S
C147 C150 1.463 1_655 S
C147 C152 1.350 . S
C147 N155 1.427 . S
C148 H139 0.930 . S
C148 C146 1.378 . S
C148 C149 1.367 . S
C149 C148 1.367 . S
C149 C151 1.433 . S
C150 C146 1.350 . S
C150 C147 1.463 1_455 S
C150 N154 1.427 . S
C151 H141 0.929 . S
C151 C149 1.433 . S
C151 N154 1.384 . S
C152 H143 0.929 . S
C152 C144 1.378 . S
C152 C147 1.350 . S
C153 H140 0.929 . S
C153 C145 1.433 . S
C153 N155 1.384 . S
N154 C150 1.427 . S
N154 C151 1.384 . S
N155 C147 1.427 . S
N155 C153 1.384 . S
H156 C162 0.930 . S
H157 C166 0.930 . S
H158 C171 0.929 . S
H159 C169 0.929 . S
H160 C164 0.929 . S
H161 C170 0.929 . S
C162 H156 0.930 . S
C162 C163 1.367 . S
C162 C170 1.378 . S
C163 C162 1.367 . S
C163 C171 1.433 . S
C164 H160 0.929 . S
C164 C166 1.378 . S
C164 C168 1.350 . S
C165 C168 1.463 1_545 S
C165 C170 1.350 . S
C165 N173 1.427 . S
C166 H157 0.930 . S
C166 C164 1.378 . S
C166 C167 1.367 . S
C167 C166 1.367 . S
C167 C169 1.433 . S
C168 C164 1.350 . S
C168 C165 1.463 1_565 S
C168 N172 1.427 . S
C169 H159 0.929 . S
C169 C167 1.433 . S
C169 N172 1.384 . S
C170 H161 0.929 . S
C170 C162 1.378 . S
C170 C165 1.350 . S
C171 H158 0.929 . S
C171 C163 1.433 . S
C171 N173 1.384 . S
N172 C168 1.427 . S
N172 C169 1.384 . S
N173 C165 1.427 . S
N173 C171 1.384 . S
H174 C180 0.930 . S
H175 C184 0.930 . S
H176 C189 0.929 . S
H177 C187 0.929 . S
H178 C182 0.929 . S
H179 C188 0.929 . S
C180 H174 0.930 . S
C180 C181 1.367 . S
C180 C188 1.378 . S
C181 C180 1.367 . S
C181 C189 1.433 . S
C182 H178 0.929 . S
C182 C184 1.378 . S
C182 C186 1.350 . S
C183 C186 1.463 . S
C183 C188 1.350 . S
C183 N191 1.427 . S
C184 H175 0.930 . S
C184 C182 1.378 . S
C184 C185 1.367 . S
C185 C184 1.367 . S
C185 C187 1.433 . S
C186 C182 1.350 . S
C186 C183 1.463 . S
C186 N190 1.427 . S
C187 H177 0.929 . S
C187 C185 1.433 . S
C187 N190 1.384 . S
C188 H179 0.929 . S
C188 C180 1.378 . S
C188 C183 1.350 . S
C189 H176 0.929 . S
C189 C181 1.433 . S
C189 N191 1.384 . S
N190 C186 1.427 . S
N190 C187 1.384 . S
N191 C183 1.427 . S
N191 C189 1.384 . S
H192 C198 0.930 . S
H193 C202 0.930 . S
H194 C207 0.929 . S
H195 C205 0.929 . S
H196 C200 0.929 . S
H197 C206 0.929 . S
C198 H192 0.930 . S
C198 C199 1.367 . S
C198 C206 1.378 . S
C199 C198 1.367 . S
C199 C207 1.433 . S
C200 H196 0.929 . S
C200 C202 1.378 . S
C200 C204 1.350 . S
C201 C204 1.463 . S
C201 C206 1.350 . S
C201 N209 1.427 . S
C202 H193 0.930 . S
C202 C200 1.378 . S
C202 C203 1.367 . S
C203 C202 1.367 . S
C203 C205 1.433 . S
C204 C200 1.350 . S
C204 C201 1.463 . S
C204 N208 1.427 . S
C205 H195 0.929 . S
C205 C203 1.433 . S
C205 N208 1.384 . S
C206 H197 0.929 . S
C206 C198 1.378 . S
C206 C201 1.350 . S
C207 H194 0.929 . S
C207 C199 1.433 . S
C207 N209 1.384 . S
N208 C204 1.427 . S
N208 C205 1.384 . S
N209 C201 1.427 . S
N209 C207 1.384 . S
H210 C216 0.930 . S
H211 C220 0.930 . S
H212 C225 0.929 . S
H213 C223 0.929 . S
H214 C218 0.929 . S
H215 C224 0.929 . S
C216 H210 0.930 . S
C216 C217 1.367 . S
C216 C224 1.378 . S
C217 C216 1.367 . S
C217 C225 1.433 . S
C218 H214 0.929 . S
C218 C220 1.378 . S
C218 C222 1.350 . S
C219 C222 1.463 . S
C219 C224 1.350 . S
C219 N227 1.427 . S
C220 H211 0.930 . S
C220 C218 1.378 . S
C220 C221 1.367 . S
C221 C220 1.367 . S
C221 C223 1.433 . S
C222 C218 1.350 . S
C222 C219 1.463 . S
C222 N226 1.427 . S
C223 H213 0.929 . S
C223 C221 1.433 . S
C223 N226 1.384 . S
C224 H215 0.929 . S
C224 C216 1.378 . S
C224 C219 1.350 . S
C225 H212 0.929 . S
C225 C217 1.433 . S
C225 N227 1.384 . S
N226 C222 1.427 . S
N226 C223 1.384 . S
N227 C219 1.427 . S
N227 C225 1.384 . S
H228 C234 0.930 . S
H229 C238 0.930 . S
H230 C243 0.929 . S
H231 C241 0.929 . S
H232 C236 0.929 . S
H233 C242 0.929 . S
C234 H228 0.930 . S
C234 C235 1.367 . S
C234 C242 1.378 . S
C235 C234 1.367 . S
C235 C243 1.433 . S
C236 H232 0.929 . S
C236 C238 1.378 . S
C236 C240 1.350 . S
C237 C240 1.463 . S
C237 C242 1.350 . S
C237 N245 1.427 . S
C238 H229 0.930 . S
C238 C236 1.378 . S
C238 C239 1.367 . S
C239 C238 1.367 . S
C239 C241 1.433 . S
C240 C236 1.350 . S
C240 C237 1.463 . S
C240 N244 1.427 . S
C241 H231 0.929 . S
C241 C239 1.433 . S
C241 N244 1.384 . S
C242 H233 0.929 . S
C242 C234 1.378 . S
C242 C237 1.350 . S
C243 H230 0.929 . S
C243 C235 1.433 . S
C243 N245 1.384 . S
N244 C240 1.427 . S
N244 C241 1.384 . S
N245 C237 1.427 . S
N245 C243 1.384 . S
H246 C252 0.930 . S
H247 C256 0.930 . S
H248 C261 0.929 . S
H249 C259 0.929 . S
H250 C254 0.929 . S
H251 C260 0.929 . S
C252 H246 0.930 . S
C252 C253 1.367 . S
C252 C260 1.378 . S
C253 C252 1.367 . S
C253 C261 1.433 . S
C254 H250 0.929 . S
C254 C256 1.378 . S
C254 C258 1.350 . S
C255 C258 1.463 . S
C255 C260 1.350 . S
C255 N263 1.427 . S
C256 H247 0.930 . S
C256 C254 1.378 . S
C256 C257 1.367 . S
C257 C256 1.367 . S
C257 C259 1.433 . S
C258 C254 1.350 . S
C258 C255 1.463 . S
C258 N262 1.427 . S
C259 H249 0.929 . S
C259 C257 1.433 . S
C259 N262 1.384 . S
C260 H251 0.929 . S
C260 C252 1.378 . S
C260 C255 1.350 . S
C261 H248 0.929 . S
C261 C253 1.433 . S
C261 N263 1.384 . S
N262 C258 1.427 . S
N262 C259 1.384 . S
N263 C255 1.427 . S
N263 C261 1.384 . S
H264 C270 0.930 . S
H265 C274 0.930 . S
H266 C279 0.929 . S
H267 C277 0.929 1_554 S
H268 C272 0.929 . S
H269 C278 0.929 . S
C270 H264 0.930 . S
C270 C271 1.367 . S
C270 C278 1.378 . S
C271 C270 1.367 . S
C271 C279 1.433 . S
C272 H268 0.929 . S
C272 C274 1.378 . S
C272 C276 1.350 . S
C273 C276 1.463 . S
C273 C278 1.350 . S
C273 N281 1.427 . S
C274 H265 0.930 . S
C274 C272 1.378 . S
C274 C275 1.367 . S
C275 C274 1.367 . S
C275 C277 1.433 . S
C276 C272 1.350 . S
C276 C273 1.463 . S
C276 N280 1.427 . S
C277 H267 0.929 1_556 S
C277 C275 1.433 . S
C277 N280 1.384 . S
C278 H269 0.929 . S
C278 C270 1.378 . S
C278 C273 1.350 . S
C279 H266 0.929 . S
C279 C271 1.433 . S
C279 N281 1.384 . S
N280 C276 1.427 . S
N280 C277 1.384 . S
N281 C273 1.427 . S
N281 C279 1.384 . S
H282 C288 0.930 . S
H283 C292 0.930 . S
H284 C297 0.929 . S
H285 C295 0.929 . S
H286 C290 0.929 . S
H287 C296 0.929 . S
C288 H282 0.930 . S
C288 C289 1.367 1_554 S
C288 C296 1.378 . S
C289 C288 1.367 1_556 S
C289 C297 1.433 . S
C290 H286 0.929 . S
C290 C292 1.378 . S
C290 C294 1.350 . S
C291 C294 1.463 . S
C291 C296 1.350 . S
C291 N299 1.415 1_554 S
C292 H283 0.930 . S
C292 C290 1.378 . S
C292 C293 1.367 . S
C293 C292 1.367 . S
C293 C295 1.433 . S
C294 C290 1.350 . S
C294 C291 1.463 . S
C294 N298 1.427 . S
C295 H285 0.929 . S
C295 C293 1.433 . S
C295 N298 1.384 . S
C296 H287 0.929 . S
C296 C288 1.378 . S
C296 C291 1.350 . S
C297 H284 0.929 . S
C297 C289 1.433 . S
C297 N299 1.391 . S
N298 C294 1.427 . S
N298 C295 1.384 . S
N299 C291 1.415 1_556 S
N299 C297 1.391 . S
C91 C7 1.315 . S
C95 C50 1.326 . S
C109 C64 1.323 . S
C113 C21 1.314 . S
C127 C35 1.310 . S
C131 C78 1.326 . S
C145 C49 1.306 . S
C149 C8 1.324 . S
C163 C22 1.326 . S
C167 C63 1.311 . S
C181 C77 1.311 . S
C185 C36 1.322 . S
C199 C3 1.250 . S
C203 C37 1.221 . S
C217 C17 1.244 . S
C221 C51 1.232 . S
C235 C65 1.221 . S
C239 C31 1.250 . S
C253 C79 1.231 . S
C257 C45 1.239 . S
C271 C59 1.239 . S
C275 C9 1.230 1_556 S
C289 C73 1.242 . S
C293 C23 1.218 . S
