# Generated by pormake.
# Topology fnw, (5)-cn, num edge types: 1
# Building blocks:
#     Node 0, Type 0, BuildingBlock: XOMCOT_clean_sbu_1, # of connection points: 5
#     Node 1, Type 0, BuildingBlock: XOMCOT_clean_sbu_1, # of connection points: 5
#     Node 2, Type 0, BuildingBlock: XOMCOT_clean_sbu_1, # of connection points: 5
#     Node 3, Type 0, BuildingBlock: XOMCOT_clean_sbu_1, # of connection points: 5
#     Node 4, Type 0, BuildingBlock: XOMCOT_clean_sbu_1, # of connection points: 5
#     Node 5, Type 0, BuildingBlock: XOMCOT_clean_sbu_1, # of connection points: 5
#     Node 6, Type 0, BuildingBlock: XOMCOT_clean_sbu_1, # of connection points: 5
#     Node 7, Type 0, BuildingBlock: XOMCOT_clean_sbu_1, # of connection points: 5
#     Node 8, Type 0, BuildingBlock: XOMCOT_clean_sbu_1, # of connection points: 5
#     Node 9, Type 0, BuildingBlock: XOMCOT_clean_sbu_1, # of connection points: 5
#     Node 10, Type 0, BuildingBlock: XOMCOT_clean_sbu_1, # of connection points: 5
#     Node 11, Type 0, BuildingBlock: XOMCOT_clean_sbu_1, # of connection points: 5
#     Edge 12, Type (0, 0), BuildingBlock: TEMPAE_clean_linker_10, # of connection points: 2
#     Edge 13, Type (0, 0), BuildingBlock: TEMPAE_clean_linker_10, # of connection points: 2
#     Edge 14, Type (0, 0), BuildingBlock: TEMPAE_clean_linker_10, # of connection points: 2
#     Edge 15, Type (0, 0), BuildingBlock: TEMPAE_clean_linker_10, # of connection points: 2
#     Edge 16, Type (0, 0), BuildingBlock: TEMPAE_clean_linker_10, # of connection points: 2
#     Edge 17, Type (0, 0), BuildingBlock: TEMPAE_clean_linker_10, # of connection points: 2
#     Edge 18, Type (0, 0), BuildingBlock: TEMPAE_clean_linker_10, # of connection points: 2
#     Edge 19, Type (0, 0), BuildingBlock: TEMPAE_clean_linker_10, # of connection points: 2
#     Edge 20, Type (0, 0), BuildingBlock: TEMPAE_clean_linker_10, # of connection points: 2
#     Edge 21, Type (0, 0), BuildingBlock: TEMPAE_clean_linker_10, # of connection points: 2
#     Edge 22, Type (0, 0), BuildingBlock: TEMPAE_clean_linker_10, # of connection points: 2
#     Edge 23, Type (0, 0), BuildingBlock: TEMPAE_clean_linker_10, # of connection points: 2
#     Edge 24, Type (0, 0), BuildingBlock: TEMPAE_clean_linker_10, # of connection points: 2
#     Edge 25, Type (0, 0), BuildingBlock: TEMPAE_clean_linker_10, # of connection points: 2
#     Edge 26, Type (0, 0), BuildingBlock: TEMPAE_clean_linker_10, # of connection points: 2
#     Edge 27, Type (0, 0), BuildingBlock: TEMPAE_clean_linker_10, # of connection points: 2
#     Edge 28, Type (0, 0), BuildingBlock: TEMPAE_clean_linker_10, # of connection points: 2
#     Edge 29, Type (0, 0), BuildingBlock: TEMPAE_clean_linker_10, # of connection points: 2
#     Edge 30, Type (0, 0), BuildingBlock: TEMPAE_clean_linker_10, # of connection points: 2
#     Edge 31, Type (0, 0), BuildingBlock: TEMPAE_clean_linker_10, # of connection points: 2
#     Edge 32, Type (0, 0), BuildingBlock: TEMPAE_clean_linker_10, # of connection points: 2
#     Edge 33, Type (0, 0), BuildingBlock: TEMPAE_clean_linker_10, # of connection points: 2
#     Edge 34, Type (0, 0), BuildingBlock: TEMPAE_clean_linker_10, # of connection points: 2
#     Edge 35, Type (0, 0), BuildingBlock: TEMPAE_clean_linker_10, # of connection points: 2
#     Edge 36, Type (0, 0), BuildingBlock: TEMPAE_clean_linker_10, # of connection points: 2
#     Edge 37, Type (0, 0), BuildingBlock: TEMPAE_clean_linker_10, # of connection points: 2
#     Edge 38, Type (0, 0), BuildingBlock: TEMPAE_clean_linker_10, # of connection points: 2
#     Edge 39, Type (0, 0), BuildingBlock: TEMPAE_clean_linker_10, # of connection points: 2
#     Edge 40, Type (0, 0), BuildingBlock: TEMPAE_clean_linker_10, # of connection points: 2
#     Edge 41, Type (0, 0), BuildingBlock: TEMPAE_clean_linker_10, # of connection points: 2
# Relax obj value: 0.361
# Max RMSD: 0.162
# Mean RMSD: 0.162
data_MOF--net-fnw--node1-XOMCOT_clean_sbu_1--edge1-TEMPAE_clean_linker_10
_symmetry_space_group_name_H-M    P1
_symmetry_Int_Tables_number       1
_symmetry_cell_setting            triclinic
loop_
_symmetry_equiv_pos_as_xyz
'x, y, z'
_cell_length_a     53.714231
_cell_length_b     53.629595
_cell_length_c     27.915553
_cell_angle_alpha  90.013979
_cell_angle_beta   89.759322
_cell_angle_gamma 119.99424
loop_
_atom_site_label
_atom_site_type_symbol
_atom_site_fract_x
_atom_site_fract_y
_atom_site_fract_z
_atom_type_partial_charge
C0 C 0.29224 0.495 0.24086 0.0
C1 C 0.28224 0.51401 0.23647 0.0
N2 N 0.26077 0.50653 0.26844 0.0
N3 N 0.27721 0.47577 0.27554 0.0
C4 C 0.25796 0.48311 0.29131 0.0
H5 H 0.30998 0.49569 0.22125 0.0
Co6 Co 0.28522 0.44813 0.29805 0.0
C7 C 0.24334 0.41917 0.37657 0.0
O8 O 0.23428 0.39422 0.35544 0.0
N9 N 0.29362 0.42033 0.32082 0.0
C10 C 0.30823 0.39675 0.36798 0.0
C11 C 0.30238 0.4189 0.36556 0.0
C12 C 0.29416 0.39875 0.29687 0.0
N13 N 0.30293 0.38413 0.32472 0.0
O14 O 0.2534 0.41997 0.26072 0.0
H15 H 0.30496 0.43349 0.39438 0.0
H16 H 0.2895 0.39444 0.25922 0.0
O17 O 0.26204 0.44215 0.35556 0.0
C18 C 0.26304 0.42024 0.21858 0.0
O19 O 0.29086 0.43581 0.21092 0.0
N20 N 0.31763 0.47704 0.32874 0.0
C21 C 0.36701 0.53013 0.34187 0.0
C22 C 0.34129 0.52359 0.36548 0.0
C23 C 0.31674 0.49677 0.35852 0.0
C24 C 0.34299 0.48188 0.30946 0.0
C25 C 0.3681 0.50815 0.31626 0.0
H26 H 0.29651 0.49327 0.37273 0.0
H27 H 0.34324 0.46627 0.2852 0.0
H28 H 0.24316 0.47246 0.32065 0.0
H29 H 0.2905 0.53222 0.21229 0.0
H30 H 0.31626 0.39074 0.39879 0.0
H31 H 0.33927 0.53988 0.38521 0.0
H32 H 0.38761 0.512 0.29825 0.0
C33 C 0.79081 0.31703 0.80559 0.0
C34 C 0.76356 0.30666 0.78833 0.0
N35 N 0.74833 0.27827 0.79781 0.0
N36 N 0.79271 0.2955 0.82707 0.0
C37 C 0.76667 0.27193 0.82031 0.0
H38 H 0.80813 0.33894 0.80196 0.0
Co39 Co 0.82612 0.29846 0.85251 0.0
C40 C 0.78295 0.26366 0.93374 0.0
O41 O 0.76165 0.26717 0.91938 0.0
N42 N 0.85978 0.30184 0.87679 0.0
C43 C 0.89582 0.31122 0.92579 0.0
C44 C 0.8688 0.30778 0.92254 0.0
C45 C 0.88159 0.30172 0.85295 0.0
N46 N 0.90394 0.30747 0.88184 0.0
O47 O 0.81886 0.26526 0.81525 0.0
H48 H 0.857 0.31072 0.95136 0.0
H49 H 0.88134 0.29815 0.81491 0.0
O50 O 0.80638 0.27464 0.90951 0.0
C51 C 0.82866 0.27375 0.77293 0.0
O52 O 0.84332 0.30155 0.76428 0.0
N53 N 0.83417 0.33271 0.8835 0.0
C54 C 0.83296 0.38373 0.88751 0.0
C55 C 0.81669 0.36136 0.92004 0.0
C56 C 0.81744 0.33576 0.91723 0.0
C57 C 0.85403 0.35599 0.85826 0.0
C58 C 0.85369 0.38183 0.85943 0.0
H59 H 0.80246 0.31792 0.93874 0.0
H60 H 0.86719 0.35324 0.83172 0.0
H61 H 0.76133 0.25049 0.83148 0.0
H62 H 0.75545 0.31923 0.77108 0.0
H63 H 0.90894 0.31752 0.95766 0.0
H64 H 0.80128 0.36242 0.94385 0.0
H65 H 0.86691 0.39852 0.83394 0.0
C66 C 0.49165 0.77253 0.20055 0.0
C67 C 0.47179 0.7445 0.21159 0.0
N68 N 0.48251 0.73559 0.24701 0.0
N69 N 0.51478 0.78131 0.22888 0.0
C70 C 0.50871 0.75829 0.25657 0.0
H71 H 0.48923 0.78587 0.17406 0.0
Co72 Co 0.54613 0.81836 0.2291 0.0
C73 C 0.57021 0.8276 0.3269 0.0
O74 O 0.57337 0.85347 0.32447 0.0
N75 N 0.57845 0.8561 0.22812 0.0
C76 C 0.62452 0.89059 0.22717 0.0
C77 C 0.60581 0.8616 0.22317 0.0
C78 C 0.5813 0.88242 0.23515 0.0
N79 N 0.60907 0.90362 0.23511 0.0
O80 O 0.56716 0.8051 0.19038 0.0
H81 H 0.61213 0.84547 0.21935 0.0
H82 H 0.56371 0.88611 0.24281 0.0
O83 O 0.55974 0.81065 0.29082 0.0
C84 C 0.56145 0.80842 0.14722 0.0
O85 O 0.54501 0.81976 0.14016 0.0
N86 N 0.52274 0.83029 0.26023 0.0
C87 C 0.4713 0.82997 0.27825 0.0
C88 C 0.48274 0.81917 0.31229 0.0
C89 C 0.50823 0.81903 0.30225 0.0
C90 C 0.5128 0.8424 0.2282 0.0
C91 C 0.48742 0.84281 0.23668 0.0
H92 H 0.51428 0.80708 0.32593 0.0
H93 H 0.52322 0.84938 0.19364 0.0
H94 H 0.52284 0.75832 0.28403 0.0
H95 H 0.45113 0.73166 0.19458 0.0
H96 H 0.64775 0.90105 0.22733 0.0
H97 H 0.47101 0.80892 0.34481 0.0
H98 H 0.47924 0.8507 0.20866 0.0
C99 C 0.71903 0.49793 0.68986 0.0
C100 C 0.73272 0.48223 0.69635 0.0
N101 N 0.75285 0.49523 0.7305 0.0
N102 N 0.73046 0.5206 0.71989 0.0
C103 C 0.75138 0.51868 0.74327 0.0
H104 H 0.70075 0.49222 0.66699 0.0
Co105 Co 0.71645 0.54535 0.73299 0.0
C106 C 0.75807 0.57548 0.81435 0.0
O107 O 0.77659 0.5973 0.78814 0.0
N108 N 0.7024 0.57025 0.74731 0.0
C109 C 0.68593 0.5937 0.79075 0.0
C110 C 0.69548 0.57439 0.79205 0.0
C111 C 0.69612 0.5869 0.71911 0.0
N112 N 0.68636 0.60162 0.74494 0.0
O113 O 0.7487 0.57528 0.69824 0.0
H114 H 0.69648 0.56342 0.8238 0.0
H115 H 0.69834 0.58808 0.68054 0.0
O116 O 0.73565 0.55505 0.79508 0.0
C117 C 0.74077 0.57232 0.65441 0.0
O118 O 0.71411 0.55303 0.64416 0.0
N119 N 0.68382 0.5147 0.76062 0.0
C120 C 0.63615 0.46046 0.77505 0.0
C121 C 0.65996 0.47058 0.80546 0.0
C122 C 0.6839 0.49787 0.79733 0.0
C123 C 0.66002 0.50597 0.73313 0.0
C124 C 0.6359 0.47888 0.73974 0.0
H125 H 0.70318 0.5043 0.81783 0.0
H126 H 0.66064 0.51919 0.70339 0.0
H127 H 0.76463 0.53351 0.77069 0.0
H128 H 0.72694 0.46182 0.67969 0.0
H129 H 0.67801 0.60043 0.82096 0.0
H130 H 0.66097 0.45669 0.8326 0.0
H131 H 0.61789 0.47169 0.71553 0.0
C132 C 0.21979 0.70793 0.23565 0.0
C133 C 0.24849 0.7214 0.22417 0.0
N134 N 0.26102 0.74867 0.24026 0.0
N135 N 0.21416 0.72633 0.2599 0.0
C136 C 0.23952 0.75137 0.26029 0.0
H137 H 0.20411 0.68573 0.22811 0.0
Co138 Co 0.17757 0.71607 0.28369 0.0
C139 C 0.21388 0.75283 0.37127 0.0
O140 O 0.23913 0.7565 0.35927 0.0
N141 N 0.14058 0.70529 0.30662 0.0
C142 C 0.10273 0.6865 0.35561 0.0
C143 C 0.13146 0.69569 0.35162 0.0
C144 C 0.11679 0.70161 0.28382 0.0
N145 N 0.09347 0.69008 0.31289 0.0
O146 O 0.17986 0.74809 0.24891 0.0
H147 H 0.14454 0.69386 0.37918 0.0
H148 H 0.11604 0.70563 0.24607 0.0
O149 O 0.19224 0.73865 0.34374 0.0
C150 C 0.171 0.73934 0.20641 0.0
O151 O 0.15994 0.71181 0.19703 0.0
N152 N 0.17497 0.68318 0.3123 0.0
C153 C 0.17672 0.63266 0.32631 0.0
C154 C 0.19645 0.65826 0.34934 0.0
C155 C 0.1952 0.68334 0.34188 0.0
C156 C 0.15426 0.65806 0.29273 0.0
C157 C 0.15446 0.63245 0.29986 0.0
H158 H 0.21219 0.70315 0.35604 0.0
H159 H 0.13873 0.65827 0.26845 0.0
H160 H 0.24231 0.77119 0.27535 0.0
H161 H 0.25956 0.71137 0.20767 0.0
H162 H 0.08943 0.67691 0.38704 0.0
H163 H 0.21429 0.65965 0.36947 0.0
H164 H 0.13848 0.61311 0.28207 0.0
C165 C 0.46422 0.22519 0.65947 0.0
C166 C 0.4778 0.25419 0.66902 0.0
N167 N 0.48553 0.25807 0.7154 0.0
N168 N 0.46294 0.21079 0.69984 0.0
C169 C 0.47638 0.2315 0.73329 0.0
H170 H 0.45699 0.2154 0.62474 0.0
Co171 Co 0.44846 0.17127 0.70431 0.0
C172 C 0.42209 0.15411 0.80321 0.0
O173 O 0.42444 0.13091 0.80218 0.0
N174 N 0.43404 0.13121 0.70732 0.0
C175 C 0.43071 0.08821 0.70446 0.0
C176 C 0.44904 0.11733 0.70148 0.0
C177 C 0.4064 0.10983 0.71232 0.0
N178 N 0.40394 0.08354 0.71166 0.0
O179 O 0.41496 0.16485 0.66806 0.0
H180 H 0.47188 0.1274 0.69536 0.0
H181 H 0.38853 0.11355 0.71748 0.0
O182 O 0.43051 0.17125 0.76702 0.0
C183 C 0.41558 0.15563 0.62598 0.0
O184 O 0.43589 0.14961 0.61572 0.0
N185 N 0.48283 0.17849 0.73323 0.0
C186 C 0.53789 0.19046 0.75741 0.0
C187 C 0.51799 0.18683 0.79323 0.0
C188 C 0.49045 0.1809 0.7804 0.0
C189 C 0.50242 0.18325 0.69816 0.0
C190 C 0.52992 0.18882 0.70937 0.0
H191 H 0.47604 0.17917 0.80859 0.0
H192 H 0.49629 0.18213 0.66101 0.0
H193 H 0.48021 0.22735 0.76966 0.0
H194 H 0.48315 0.27125 0.64326 0.0
H195 H 0.43673 0.07175 0.70275 0.0
H196 H 0.52369 0.18862 0.83075 0.0
H197 H 0.54499 0.19234 0.68069 0.0
C198 C 0.53459 0.78686 0.81012 0.0
C199 C 0.52332 0.80488 0.8077 0.0
N200 N 0.51183 0.80242 0.76385 0.0
N201 N 0.53063 0.77333 0.76782 0.0
C202 C 0.51724 0.78367 0.74015 0.0
H203 H 0.54275 0.78211 0.842 0.0
Co204 Co 0.53482 0.74151 0.75497 0.0
C205 C 0.57436 0.77037 0.67043 0.0
O206 O 0.59819 0.77704 0.69336 0.0
N207 N 0.53877 0.7093 0.74172 0.0
C208 C 0.52912 0.66394 0.7382 0.0
C209 C 0.51804 0.68157 0.7478 0.0
C210 C 0.56237 0.70795 0.72892 0.0
N211 N 0.55708 0.68056 0.7266 0.0
O212 O 0.57163 0.76048 0.78754 0.0
H213 H 0.49638 0.67452 0.75995 0.0
H214 H 0.58342 0.72666 0.72429 0.0
O215 O 0.55028 0.75744 0.6923 0.0
C216 C 0.56888 0.74764 0.82758 0.0
O217 O 0.54491 0.72331 0.83549 0.0
N218 N 0.49782 0.72227 0.72977 0.0
C219 C 0.43987 0.68744 0.70903 0.0
C220 C 0.46079 0.69404 0.67331 0.0
C221 C 0.48992 0.71182 0.68439 0.0
C222 C 0.47773 0.71648 0.76437 0.0
C223 C 0.44868 0.69951 0.75462 0.0
H224 H 0.50603 0.7158 0.6575 0.0
H225 H 0.48447 0.72427 0.80043 0.0
H226 H 0.50881 0.77512 0.70506 0.0
H227 H 0.52191 0.81717 0.83726 0.0
H228 H 0.51758 0.64069 0.74077 0.0
H229 H 0.45475 0.68468 0.63792 0.0
H230 H 0.43337 0.69429 0.78362 0.0
C231 C 0.76255 0.50253 0.31271 0.0
C232 C 0.73388 0.48201 0.31536 0.0
N233 N 0.72033 0.48596 0.27814 0.0
N234 N 0.76704 0.51922 0.27391 0.0
C235 C 0.74083 0.50883 0.2539 0.0
H236 H 0.77935 0.50415 0.33596 0.0
Co237 Co 0.8032 0.54562 0.25044 0.0
C238 C 0.78608 0.57305 0.17363 0.0
O239 O 0.79588 0.59716 0.19777 0.0
N240 N 0.83987 0.57191 0.22627 0.0
C241 C 0.87647 0.59263 0.17485 0.0
C242 C 0.84742 0.57452 0.1795 0.0
C243 C 0.86491 0.58863 0.24938 0.0
N244 N 0.88749 0.60139 0.21884 0.0
O245 O 0.80106 0.5753 0.28641 0.0
H246 H 0.83305 0.56268 0.15056 0.0
H247 H 0.86704 0.59001 0.28788 0.0
O248 O 0.78663 0.55165 0.19244 0.0
C249 C 0.81101 0.57647 0.32847 0.0
O250 O 0.82318 0.56099 0.33747 0.0
N251 N 0.80527 0.51539 0.22144 0.0
C252 C 0.79847 0.46074 0.21108 0.0
C253 C 0.78183 0.46901 0.18397 0.0
C254 C 0.78552 0.49655 0.18973 0.0
C255 C 0.82342 0.50869 0.24457 0.0
C256 C 0.82052 0.48149 0.23969 0.0
H257 H 0.77055 0.50145 0.1724 0.0
H258 H 0.83835 0.52353 0.27058 0.0
H259 H 0.73708 0.51635 0.22023 0.0
H260 H 0.72399 0.46483 0.34151 0.0
H261 H 0.88871 0.598 0.1418 0.0
H262 H 0.76467 0.45366 0.1613 0.0
H263 H 0.83361 0.47598 0.26178 0.0
C264 C 0.26891 0.76693 0.84838 0.0
C265 C 0.26366 0.73906 0.85138 0.0
N266 N 0.24271 0.72275 0.82005 0.0
N267 N 0.25134 0.76819 0.81542 0.0
C268 C 0.23544 0.74093 0.79923 0.0
H269 H 0.2854 0.78538 0.86731 0.0
Co270 Co 0.2535 0.80177 0.79264 0.0
C271 C 0.20469 0.78026 0.72508 0.0
O272 O 0.19427 0.79453 0.74782 0.0
N273 N 0.2562 0.83585 0.76872 0.0
C274 C 0.26111 0.86906 0.71589 0.0
C275 C 0.25625 0.84166 0.72159 0.0
C276 C 0.26218 0.86068 0.79088 0.0
N277 N 0.26498 0.88112 0.75942 0.0
O278 O 0.22305 0.79562 0.83627 0.0
H279 H 0.25461 0.8275 0.6927 0.0
H280 H 0.2659 0.86435 0.82889 0.0
O281 O 0.22693 0.78046 0.74127 0.0
C282 C 0.23343 0.80766 0.87649 0.0
O283 O 0.26145 0.82363 0.88058 0.0
N284 N 0.28479 0.80824 0.75471 0.0
C285 C 0.33652 0.81536 0.71947 0.0
C286 C 0.31018 0.79366 0.70126 0.0
C287 C 0.28441 0.79036 0.71952 0.0
C288 C 0.31008 0.83036 0.77086 0.0
C289 C 0.33622 0.83445 0.75353 0.0
H290 H 0.26436 0.77236 0.70753 0.0
H291 H 0.30994 0.84383 0.7996 0.0
H292 H 0.21932 0.73458 0.7717 0.0
H293 H 0.2754 0.73178 0.87319 0.0
H294 H 0.26404 0.8801 0.68206 0.0
H295 H 0.30947 0.7785 0.67489 0.0
H296 H 0.35593 0.85113 0.76936 0.0
C297 C 0.4954 0.26701 0.27903 0.0
C298 C 0.5126 0.25693 0.29636 0.0
N299 N 0.5008 0.229 0.28424 0.0
N300 N 0.47316 0.24573 0.25507 0.0
C301 C 0.4765 0.22255 0.26044 0.0
H302 H 0.49909 0.28864 0.28318 0.0
Co303 Co 0.4435 0.24917 0.2274 0.0
C304 C 0.4538 0.21557 0.14597 0.0
O305 O 0.47778 0.21778 0.16186 0.0
N306 N 0.41381 0.25296 0.20121 0.0
C307 C 0.38859 0.26367 0.15088 0.0
C308 C 0.41004 0.2569 0.1546 0.0
C309 C 0.39441 0.25726 0.22502 0.0
N310 N 0.37888 0.26392 0.1953 0.0
O311 O 0.41652 0.21529 0.2623 0.0
H312 H 0.42348 0.2571 0.12551 0.0
H313 H 0.39342 0.25812 0.26362 0.0
O314 O 0.44121 0.22652 0.16984 0.0
C315 C 0.4146 0.22288 0.30494 0.0
O316 O 0.42838 0.25046 0.3152 0.0
N317 N 0.47063 0.28406 0.19825 0.0
C318 C 0.51941 0.33851 0.18991 0.0
C319 C 0.51805 0.3146 0.16676 0.0
C320 C 0.49338 0.28756 0.17119 0.0
C321 C 0.47043 0.30747 0.21685 0.0
C322 C 0.49444 0.33495 0.21253 0.0
H323 H 0.49418 0.26934 0.15729 0.0
H324 H 0.45263 0.30455 0.23908 0.0
H325 H 0.46145 0.20134 0.247 0.0
H326 H 0.53285 0.26952 0.31472 0.0
H327 H 0.38193 0.26972 0.11845 0.0
H328 H 0.53673 0.31603 0.14919 0.0
H329 H 0.49413 0.35284 0.22995 0.0
C330 C 0.2367 0.48496 0.87077 0.0
C331 C 0.26121 0.51132 0.86459 0.0
N332 N 0.26619 0.51617 0.81719 0.0
N333 N 0.22658 0.47326 0.82747 0.0
C334 C 0.24507 0.49268 0.79567 0.0
H335 H 0.22618 0.47556 0.90447 0.0
Co336 Co 0.19156 0.44091 0.81487 0.0
C337 C 0.22552 0.43153 0.73673 0.0
O338 O 0.24509 0.4319 0.76524 0.0
N339 N 0.15642 0.4085 0.80181 0.0
C340 C 0.12241 0.36564 0.77672 0.0
C341 C 0.15148 0.3847 0.7776 0.0
C342 C 0.13025 0.40336 0.81574 0.0
N343 N 0.10906 0.37743 0.80085 0.0
O344 O 0.20343 0.41784 0.85087 0.0
H345 H 0.16793 0.38122 0.76189 0.0
H346 H 0.12699 0.41809 0.83768 0.0
O347 O 0.20546 0.43496 0.75404 0.0
C348 C 0.19053 0.41105 0.8915 0.0
O349 O 0.17024 0.41741 0.89965 0.0
N350 N 0.17973 0.46467 0.78585 0.0
C351 C 0.17881 0.5151 0.76676 0.0
C352 C 0.186 0.5016 0.73053 0.0
C353 C 0.18599 0.47601 0.74063 0.0
C354 C 0.17028 0.47614 0.82 0.0
C355 C 0.1694 0.50122 0.81112 0.0
H356 H 0.1937 0.46722 0.71345 0.0
H357 H 0.16612 0.46732 0.8559 0.0
H358 H 0.24263 0.49007 0.75729 0.0
H359 H 0.27356 0.5263 0.89268 0.0
H360 H 0.11204 0.34482 0.75943 0.0
H361 H 0.19329 0.51168 0.69575 0.0
H362 H 0.16403 0.51106 0.84025 0.0
C363 C 0.73119 0.23689 0.40939 0.0
C364 C 0.7357 0.26388 0.39856 0.0
N365 N 0.7439 0.26965 0.35223 0.0
N366 N 0.73663 0.22574 0.37021 0.0
C367 C 0.7441 0.24605 0.33597 0.0
H368 H 0.72426 0.22599 0.44356 0.0
Co369 Co 0.73319 0.18967 0.36665 0.0
C370 C 0.75785 0.18681 0.27105 0.0
O371 O 0.74228 0.15863 0.2723 0.0
N372 N 0.72958 0.15272 0.36449 0.0
C373 C 0.74085 0.11798 0.36516 0.0
C374 C 0.75109 0.14691 0.37138 0.0
C375 C 0.70643 0.12677 0.35449 0.0
N376 N 0.7128 0.10543 0.35415 0.0
O377 O 0.76608 0.20324 0.40833 0.0
H378 H 0.77322 0.16284 0.37844 0.0
H379 H 0.6854 0.12343 0.346 0.0
O380 O 0.75723 0.20151 0.30697 0.0
C381 C 0.75778 0.19303 0.45053 0.0
O382 O 0.73051 0.17413 0.45766 0.0
N383 N 0.69922 0.17714 0.3321 0.0
C384 C 0.64617 0.16882 0.30193 0.0
C385 C 0.66941 0.17875 0.26981 0.0
C386 C 0.69596 0.1832 0.28577 0.0
C387 C 0.67655 0.1664 0.36312 0.0
C388 C 0.64979 0.16177 0.34873 0.0
H389 H 0.71399 0.1936 0.26168 0.0
H390 H 0.67981 0.1629 0.40018 0.0
H391 H 0.74959 0.2436 0.29979 0.0
H392 H 0.73274 0.27791 0.42287 0.0
H393 H 0.75342 0.10729 0.36615 0.0
H394 H 0.66761 0.18468 0.23344 0.0
H395 H 0.63278 0.15479 0.37518 0.0
C396 C 0.36498 0.30089 0.18709 0.0
C397 C 0.36146 0.276 0.20963 0.0
C398 C 0.35187 0.31578 0.20558 0.0
C399 C 0.33443 0.30516 0.24712 0.0
C400 C 0.32924 0.27896 0.26813 0.0
C401 C 0.34315 0.26485 0.24941 0.0
C402 C 0.3583 0.34389 0.18257 0.0
C403 C 0.31018 0.26663 0.31171 0.0
C404 C 0.33385 0.36254 0.32501 0.0
C405 C 0.30902 0.36223 0.30914 0.0
C406 C 0.34188 0.3434 0.30609 0.0
C407 C 0.3243 0.32313 0.27115 0.0
C408 C 0.29841 0.32175 0.25678 0.0
C409 C 0.29124 0.34161 0.27561 0.0
C410 C 0.36992 0.34588 0.32173 0.0
C411 C 0.27882 0.29997 0.22047 0.0
H412 H 0.37946 0.30971 0.15673 0.0
H413 H 0.34036 0.24546 0.26652 0.0
H414 H 0.33808 0.34393 0.17496 0.0
H415 H 0.37098 0.36189 0.20765 0.0
H416 H 0.37065 0.3481 0.14863 0.0
H417 H 0.30516 0.24427 0.31949 0.0
H418 H 0.32106 0.28019 0.34337 0.0
H419 H 0.28974 0.26672 0.30671 0.0
H420 H 0.34772 0.37873 0.35053 0.0
H421 H 0.27188 0.34127 0.26381 0.0
H422 H 0.38486 0.35217 0.29069 0.0
H423 H 0.36627 0.32478 0.3348 0.0
H424 H 0.38051 0.36205 0.35056 0.0
H425 H 0.28945 0.30518 0.18483 0.0
H426 H 0.25801 0.29957 0.21732 0.0
H427 H 0.27449 0.27811 0.23035 0.0
C428 C 0.9412 0.31856 0.81996 0.0
C429 C 0.93192 0.31231 0.86784 0.0
C430 C 0.96931 0.32614 0.80681 0.0
C431 C 0.98877 0.32805 0.84247 0.0
C432 C 0.97932 0.32055 0.89038 0.0
C433 C 0.95092 0.31247 0.90238 0.0
C434 C 0.97854 0.3335 0.75512 0.0
C435 C -0.00042 0.32249 0.92945 0.0
C436 C 0.06025 0.33497 0.80752 0.0
C437 C 0.07869 0.3649 0.80999 0.0
C438 C 0.03078 0.3226 0.81728 0.0
C439 C 0.01963 0.34055 0.83057 0.0
C440 C 0.03801 0.37072 0.83293 0.0
C441 C 0.06722 0.38252 0.82213 0.0
C442 C 0.01162 0.29036 0.81366 0.0
C443 C 0.02686 0.39056 0.84723 0.0
H444 H 0.92701 0.3187 0.79276 0.0
H445 H 0.94386 0.30695 0.93917 0.0
H446 H 0.99342 0.35702 0.75161 0.0
H447 H 0.99031 0.32253 0.74296 0.0
H448 H 0.95999 0.32733 0.73092 0.0
H449 H 0.98834 0.31383 0.96416 0.0
H450 H 0.01068 0.31054 0.91907 0.0
H451 H 0.01638 0.34533 0.93465 0.0
H452 H 0.06883 0.32109 0.79867 0.0
H453 H 0.08101 0.40566 0.82308 0.0
H454 H 0.99363 0.28512 0.78874 0.0
H455 H 0.00201 0.28132 0.84918 0.0
H456 H 0.02346 0.27954 0.80089 0.0
H457 H 0.01014 0.38839 0.82168 0.0
H458 H 0.04414 0.4135 0.84816 0.0
H459 H 0.01666 0.38447 0.8832 0.0
C460 C 0.67396 0.06959 0.30325 0.0
C461 C 0.69456 0.07613 0.33905 0.0
C462 C 0.65762 0.04149 0.28552 0.0
C463 C 0.66195 0.01944 0.30424 0.0
C464 C 0.68208 0.02574 0.34143 0.0
C465 C 0.69823 0.05406 0.35824 0.0
C466 C 0.6365 0.03562 0.24561 0.0
C467 C 0.68709 0.00271 0.36263 0.0
C468 C 0.60711 0.94061 0.2848 0.0
C469 C 0.62049 0.9332 0.24877 0.0
C470 C 0.61996 0.96885 0.30242 0.0
C471 C 0.64667 0.99011 0.28325 0.0
C472 C 0.65966 0.98297 0.24551 0.0
C473 C 0.64644 0.95456 0.22887 0.0
C474 C 0.60556 0.97565 0.34286 0.0
C475 C 0.688 0.00513 0.22376 0.0
H476 H 0.67134 0.08666 0.2878 0.0
H477 H 0.71391 0.05904 0.38627 0.0
H478 H 0.64367 0.02929 0.21277 0.0
H479 H 0.61503 0.01739 0.25537 0.0
H480 H 0.63433 0.05469 0.23719 0.0
H481 H 0.70228 0.01081 0.3932 0.0
H482 H 0.66644 0.98425 0.37514 0.0
H483 H 0.69592 0.99448 0.33477 0.0
H484 H 0.58725 0.92405 0.30073 0.0
H485 H 0.65662 0.94885 0.20071 0.0
H486 H 0.60346 0.99463 0.33365 0.0
H487 H 0.61903 0.98121 0.37548 0.0
H488 H 0.58389 0.95726 0.3514 0.0
H489 H 0.68682 0.02425 0.21188 0.0
H490 H 0.69427 0.99651 0.19265 0.0
H491 H 0.70517 0.01253 0.25111 0.0
C492 C 0.65706 0.61131 0.68836 0.0
C493 C 0.67504 0.61934 0.72842 0.0
C494 C 0.64043 0.62431 0.67909 0.0
C495 C 0.64198 0.64574 0.71068 0.0
C496 C 0.66231 0.65585 0.74823 0.0
C497 C 0.67857 0.64249 0.7566 0.0
C498 C 0.61932 0.61324 0.63825 0.0
C499 C 0.6649 0.67879 0.78258 0.0
C500 C 0.60221 0.68698 0.691 0.0
C501 C 0.57767 0.6711 0.71961 0.0
C502 C 0.62295 0.67844 0.68593 0.0
C503 C 0.61912 0.65366 0.7105 0.0
C504 C 0.59408 0.63726 0.73856 0.0
C505 C 0.57372 0.64616 0.74268 0.0
C506 C 0.64924 0.69628 0.65536 0.0
C507 C 0.58923 0.61082 0.76579 0.0
H508 H 0.65434 0.59341 0.66652 0.0
H509 H 0.69292 0.64902 0.78705 0.0
H510 H 0.59743 0.59864 0.65259 0.0
H511 H 0.61877 0.63121 0.61956 0.0
H512 H 0.62463 0.60107 0.61185 0.0
H513 H 0.68445 0.68717 0.8051 0.0
H514 H 0.66548 0.69704 0.76292 0.0
H515 H 0.64581 0.6696 0.80657 0.0
H516 H 0.60519 0.70609 0.67267 0.0
H517 H 0.55511 0.63403 0.76547 0.0
H518 H 0.65274 0.68231 0.63019 0.0
H519 H 0.66851 0.70715 0.67849 0.0
H520 H 0.64748 0.71297 0.63448 0.0
H521 H 0.59056 0.59532 0.74109 0.0
H522 H 0.56801 0.59975 0.78419 0.0
H523 H 0.60627 0.61699 0.79311 0.0
C524 C 0.057 0.69494 0.26674 0.0
C525 C 0.06404 0.67978 0.29972 0.0
C526 C 0.02828 0.68471 0.25351 0.0
C527 C 0.00629 0.65846 0.27307 0.0
C528 C 0.01336 0.64316 0.30649 0.0
C529 C 0.0421 0.65411 0.31959 0.0
C530 C 0.02147 0.7018 0.21831 0.0
C531 C 0.99067 0.61478 0.32743 0.0
C532 C 0.92708 0.63605 0.27002 0.0
C533 C 0.91751 0.61719 0.23094 0.0
C534 C 0.95623 0.65071 0.28299 0.0
C535 C 0.97606 0.64588 0.25675 0.0
C536 C 0.96653 0.62715 0.21685 0.0
C537 C 0.93742 0.61319 0.20429 0.0
C538 C 0.96571 0.67087 0.32531 0.0
C539 C 0.98685 0.62094 0.18853 0.0
H540 H 0.07397 0.71489 0.25169 0.0
H541 H 0.04754 0.6421 0.34449 0.0
H542 H 0.01248 0.68915 0.18507 0.0
H543 H 0.00487 0.70611 0.23353 0.0
H544 H 0.04075 0.72265 0.20873 0.0
H545 H -0.00032 0.60594 0.35381 0.0
H546 H 0.97368 0.61742 0.34541 0.0
H547 H 0.98022 0.5988 0.29834 0.0
H548 H 0.91171 0.63932 0.29033 0.0
H549 H 0.93003 0.59828 0.17451 0.0
H550 H 0.98425 0.69208 0.31513 0.0
H551 H 0.97297 0.66204 0.35456 0.0
H552 H 0.94818 0.67417 0.33931 0.0
H553 H 0.0055 0.6413 0.17563 0.0
H554 H 0.97626 0.60686 0.15717 0.0
H555 H 0.99533 0.6102 0.21195 0.0
C556 C 0.30056 0.92625 0.79778 0.0
C557 C 0.27696 0.91146 0.76735 0.0
C558 C 0.31776 0.95632 0.79506 0.0
C559 C 0.311 0.97173 0.76124 0.0
C560 C 0.28524 0.95717 0.73473 0.0
C561 C 0.26855 0.92713 0.73802 0.0
C562 C 0.34486 0.9711 0.82445 0.0
C563 C 0.27691 0.97282 0.69901 0.0
C564 C 0.35854 0.05326 0.75547 0.0
C565 C 0.37883 0.05609 0.72091 0.0
C566 C 0.33581 0.02595 0.76858 0.0
C567 C 0.33347 0.00112 0.74643 0.0
C568 C 0.35334 0.00408 0.71021 0.0
C569 C 0.37574 0.03151 0.69801 0.0
C570 C 0.31505 0.02365 0.80726 0.0
C571 C 0.35143 0.97819 0.68512 0.0
H572 H 0.30712 0.91418 0.82046 0.0
H573 H 0.25 0.91563 0.71507 0.0
H574 H 0.36361 0.97602 0.80125 0.0
H575 H 0.34815 0.99178 0.83899 0.0
H576 H 0.34441 0.95739 0.85466 0.0
H577 H 0.25394 0.95979 0.68864 0.0
H578 H 0.28084 0.99371 0.71363 0.0
H579 H 0.29027 0.97742 0.66621 0.0
H580 H 0.36112 0.07227 0.77359 0.0
H581 H 0.39122 0.03378 0.67086 0.0
H582 H 0.31903 0.01464 0.84022 0.0
H583 H 0.29255 0.00876 0.79626 0.0
H584 H 0.31736 0.0449 0.81606 0.0
H585 H 0.35389 0.96413 0.71155 0.0
H586 H 0.36818 0.98434 0.65695 0.0
H587 H 0.33002 0.96531 0.66828 0.0
C588 C 0.18165 0.38152 0.96476 0.0
C589 C 0.20144 0.40263 0.93339 0.0
C590 C 0.18938 0.37888 1.01177 0.0
C591 C 0.21731 0.39854 0.02849 0.0
C592 C 0.23787 0.41887 0.99601 0.0
C593 C 0.22976 0.42042 0.94862 0.0
C594 C 0.16706 0.35623 0.0444 0.0
C595 C 0.26778 0.44054 1.01231 0.0
C596 C 0.22865 0.42077 0.16007 0.0
C597 C 0.24443 0.40815 0.17625 0.0
C598 C 0.21877 0.41696 0.11248 0.0
C599 C 0.22435 0.39963 0.08065 0.0
C600 C 0.23839 0.3851 0.09815 0.0
C601 C 0.24877 0.39 0.14543 0.0
C602 C 0.20427 0.43323 0.09534 0.0
C603 C 0.24397 0.36569 0.0662 0.0
H604 H 0.1596 0.368 0.95324 0.0
H605 H 0.24489 0.43722 0.92486 0.0
H606 H 0.1764 0.34516 0.06488 0.0
H607 H 0.15957 0.36659 0.0707 0.0
H608 H 0.14813 0.33988 1.02418 0.0
H609 H 0.28172 0.45372 0.98216 0.0
H610 H 0.26653 0.45518 0.0391 0.0
H611 H 0.27807 0.42951 0.03001 0.0
H612 H 0.22611 0.43553 0.18339 0.0
H613 H 0.26153 0.38073 0.15766 0.0
H614 H 0.18344 0.4183 0.07824 0.0
H615 H 0.21796 0.44925 0.06785 0.0
H616 H 0.20034 0.4447 0.12494 0.0
H617 H 0.22435 0.35096 0.0458 0.0
H618 H 0.25101 0.35265 0.08693 0.0
H619 H 0.26102 0.37891 0.0398 0.0
C620 C 0.78809 0.23313 0.506 0.0
C621 C 0.77642 0.20423 0.493 0.0
C622 C 0.79841 0.24237 0.55272 0.0
C623 C 0.79766 0.22232 0.58676 0.0
C624 C 0.78783 0.19356 0.57243 0.0
C625 C 0.7768 0.18475 0.52605 0.0
C626 C 0.80821 0.27312 0.56657 0.0
C627 C 0.78755 0.17171 0.60682 0.0
C628 C 0.84134 0.25647 0.69939 0.0
C629 C 0.82013 0.25418 0.73143 0.0
C630 C 0.83417 0.24452 0.6532 0.0
C631 C 0.80519 0.23102 0.63799 0.0
C632 C 0.78354 0.22762 0.67108 0.0
C633 C 0.79127 0.23893 0.71766 0.0
C634 C 0.85781 0.24776 0.61988 0.0
C635 C 0.75244 0.21388 0.65628 0.0
H636 H 0.78706 0.24801 0.48086 0.0
H637 H 0.76736 0.16227 0.51614 0.0
H638 H 0.79345 0.27346 0.59419 0.0
H639 H 0.82998 0.28328 0.5825 0.0
H640 H 0.80869 0.28631 0.53552 0.0
H641 H 0.78323 0.15159 0.58834 0.0
H642 H 0.80842 0.18076 0.62572 0.0
H643 H 0.77063 0.16618 0.63436 0.0
H644 H 0.86374 0.26873 0.70982 0.0
H645 H 0.77496 0.23786 0.74195 0.0
H646 H 0.86154 0.26393 0.59183 0.0
H647 H 0.85152 0.2271 0.60152 0.0
H648 H 0.87833 0.25486 0.63913 0.0
H649 H 0.75021 0.22707 0.6278 0.0
H650 H 0.73811 0.21184 0.68668 0.0
H651 H 0.74504 0.19219 0.64113 0.0
C652 C 0.59906 0.80542 0.09684 0.0
C653 C 0.57046 0.79834 0.10471 0.0
C654 C 0.60781 0.80006 0.05196 0.0
C655 C 0.58738 0.78718 1.01462 0.0
C656 C 0.55829 0.77902 1.02355 0.0
C657 C 0.55034 0.78486 0.06815 0.0
C658 C 0.63905 0.80941 0.04395 0.0
C659 C 0.53547 0.76468 0.98554 0.0
C660 C 0.59562 0.79096 0.87997 0.0
C661 C 0.58676 0.76208 0.87018 0.0
C662 C 0.59986 0.80098 0.92763 0.0
C663 C 0.59541 0.7817 0.96588 0.0
C664 C 0.59126 0.75409 0.95521 0.0
C665 C 0.58699 0.74463 0.90748 0.0
C666 C 0.60532 0.83096 0.93722 0.0
C667 C 0.58712 0.73297 0.99441 0.0
H668 H 0.61477 0.81638 0.12477 0.0
H669 H 0.52821 0.7794 0.07419 0.0
H670 H 0.64143 0.79299 1.02348 0.0
H671 H 0.64926 0.82956 1.02254 0.0
H672 H 0.65085 0.81358 0.0783 0.0
H673 H 0.51372 0.759 0.99878 0.0
H674 H 0.54073 0.77922 0.95421 0.0
H675 H 0.53474 0.74471 0.97288 0.0
H676 H 0.59592 0.80475 0.85131 0.0
H677 H 0.58065 0.72239 0.9 0.0
H678 H 0.62022 0.84083 0.96778 0.0
H679 H 0.58472 0.82987 0.94675 0.0
H680 H 0.61444 0.84506 0.90525 0.0
H681 H 0.60216 0.74385 1.02443 0.0
H682 H 0.59029 0.71526 0.9809 0.0
H683 H 0.5649 0.72336 1.00879 0.0
C684 C 0.8249 0.60602 0.40257 0.0
C685 C 0.80332 0.58825 0.3703 0.0
C686 C 0.81818 0.60998 0.44978 0.0
C687 C 0.78924 0.59484 0.46579 0.0
C688 C 0.76723 0.57821 0.43235 0.0
C689 C 0.77454 0.57538 0.38488 0.0
C690 C 0.84229 0.62869 0.48341 0.0
C691 C 0.73613 0.56127 0.44774 0.0
C692 C 0.77211 0.56759 0.59462 0.0
C693 C 0.76109 0.58425 0.61375 0.0
C694 C 0.78249 0.57169 0.54723 0.0
C695 C 0.78223 0.59331 0.51826 0.0
C696 C 0.77309 0.61162 0.53874 0.0
C697 C 0.76209 0.6065 0.58594 0.0
C698 C 0.79161 0.55133 0.52707 0.0
C699 C 0.77321 0.63545 0.5099 0.0
H700 H 0.84723 0.61555 0.39166 0.0
H701 H 0.75788 0.56093 0.36048 0.0
H702 H 0.83644 0.64222 0.50552 0.0
H703 H 0.84626 0.61488 0.50817 0.0
H704 H 0.86258 0.64293 0.46378 0.0
H705 H 0.72143 0.55138 0.41686 0.0
H706 H 0.73316 0.54387 0.47268 0.0
H707 H 0.72983 0.57529 0.46726 0.0
H708 H 0.77042 0.54974 0.61551 0.0
H709 H 0.75275 0.61883 0.60014 0.0
H710 H 0.81336 0.56357 0.51089 0.0
H711 H 0.7766 0.53817 0.49824 0.0
H712 H 0.79184 0.53658 0.55478 0.0
H713 H 0.79362 0.64756 0.48949 0.0
H714 H 0.77035 0.65073 0.53299 0.0
H715 H 0.75542 0.62609 0.48359 0.0
C716 C 0.21972 0.82155 0.95292 0.0
C717 C 0.2161 0.79982 0.92096 0.0
C718 C 0.20981 0.81509 1.00054 0.0
C719 C 0.1971 0.78633 1.0172 0.0
C720 C 0.19225 0.76414 0.98432 0.0
C721 C 0.20148 0.77114 0.9364 0.0
C722 C 0.21445 0.83928 0.03364 0.0
C723 C 0.17936 0.73326 1.00057 0.0
C724 C 0.20716 0.77114 0.14691 0.0
C725 C 0.17915 0.75902 0.16505 0.0
C726 C 0.21356 0.78122 0.0994 0.0
C727 C 0.19149 0.7797 0.06961 0.0
C728 C 0.16366 0.76957 0.0892 0.0
C729 C 0.15767 0.75873 0.13636 0.0
C730 C 0.24339 0.79127 0.08002 0.0
C731 C 0.13976 0.76852 0.05949 0.0
H732 H 0.2314 0.84381 0.94113 0.0
H733 H 0.19936 0.75442 0.91206 0.0
H734 H 0.19489 0.83305 0.05549 0.0
H735 H 0.23222 0.84391 0.05869 0.0
H736 H 0.22007 0.85934 1.01364 0.0
H737 H 0.17562 0.71839 0.97025 0.0
H738 H 0.19404 0.73149 0.02646 0.0
H739 H 0.15864 0.72615 1.01933 0.0
H740 H 0.22354 0.77048 0.16855 0.0
H741 H 0.13583 0.74867 0.15 0.0
H742 H 0.25229 0.81283 0.06329 0.0
H743 H 0.24237 0.77623 0.05176 0.0
H744 H 0.25842 0.79241 0.10831 0.0
H745 H 0.14753 0.78885 0.03906 0.0
H746 H 0.1211 0.76488 0.08196 0.0
H747 H 0.13229 0.75074 0.03316 0.0
C748 C 0.38957 0.1363 0.54976 0.0
C749 C 0.39918 0.15764 0.5852 0.0
C750 C 0.38436 0.14188 0.50279 0.0
C751 C 0.38993 0.16982 0.49056 0.0
C752 C 0.39667 0.19045 0.52744 0.0
C753 C 0.40071 0.18389 0.57464 0.0
C754 C 0.3758 0.11877 0.46531 0.0
C755 C 0.40293 0.22057 0.5162 0.0
C756 C 0.42685 0.20086 0.37126 0.0
C757 C 0.4055 0.20268 0.34563 0.0
C758 C 0.42166 0.18935 0.41775 0.0
C759 C 0.39421 0.17905 0.43914 0.0
C760 C 0.37197 0.1792 0.41211 0.0
C761 C 0.37805 0.19155 0.36587 0.0
C762 C 0.44619 0.18994 0.44502 0.0
C763 C 0.34223 0.16776 0.4328 0.0
H764 H 0.3883 0.11591 0.55787 0.0
H765 H 0.40809 0.20044 0.6019 0.0
H766 H 0.35996 0.11896 0.44012 0.0
H767 H 0.39503 0.12287 0.44419 0.0
H768 H 0.36643 0.09703 0.48174 0.0
H769 H 0.4042 0.23279 0.54912 0.0
H770 H 0.42379 0.23233 0.4969 0.0
H771 H 0.38619 0.22003 0.49245 0.0
H772 H 0.4483 0.21026 0.3561 0.0
H773 H 0.36177 0.19371 0.34652 0.0
H774 H 0.44009 0.16798 0.45753 0.0
H775 H 0.45106 0.20374 0.47722 0.0
H776 H 0.46607 0.19832 0.42299 0.0
H777 H 0.3354 0.14759 0.45323 0.0
H778 H 0.32616 0.16354 0.40442 0.0
H779 H 0.34229 0.18381 0.45793 0.0
C780 C 0.7809 0.55203 0.09138 0.0
C781 C 0.77952 0.57229 0.1216 0.0
C782 C 0.77764 0.55262 0.0415 0.0
C783 C 0.77214 0.57355 1.02105 0.0
C784 C 0.7699 0.59355 0.05143 0.0
C785 C 0.77396 0.59291 0.10119 0.0
C786 C 0.78075 0.53121 1.01055 0.0
C787 C 0.76334 0.61575 0.03131 0.0
C788 C 0.78895 0.59238 0.88828 0.0
C789 C 0.76204 0.57498 0.86708 0.0
C790 C 0.79261 0.59202 0.93822 0.0
C791 C 0.76865 0.57436 0.96793 0.0
C792 C 0.7414 0.55699 0.94671 0.0
C793 C 0.73851 0.55725 0.8967 0.0
C794 C 0.82218 0.61032 0.95917 0.0
C795 C 0.71517 0.53823 0.9769 0.0
H796 H 0.78552 0.5362 0.10646 0.0
H797 H 0.77283 0.60862 0.12414 0.0
H798 H 0.76077 0.51805 0.98988 0.0
H799 H 0.79842 0.5428 0.98424 0.0
H800 H 0.78536 0.51652 0.0319 0.0
H801 H 0.76112 0.62899 0.05978 0.0
H802 H 0.78074 0.63027 1.0064 0.0
H803 H 0.74312 0.605 1.0104 0.0
H804 H 0.80728 0.60603 0.86575 0.0
H805 H 0.71757 0.54381 0.8809 0.0
H806 H 0.82859 0.59651 0.97905 0.0
H807 H 0.82196 0.62585 0.98517 0.0
H808 H 0.83868 0.6225 0.93127 0.0
H809 H 0.71825 0.522 0.99653 0.0
H810 H 0.69532 0.52678 0.9551 0.0
H811 H 0.71204 0.55153 1.00408 0.0
C812 C 0.20019 0.75033 0.65354 0.0
C813 C 0.19792 0.77301 0.67385 0.0
C814 C 0.19954 0.74668 0.60359 0.0
C815 C 0.19773 0.76688 0.57313 0.0
C816 C 0.19449 0.78928 0.5936 0.0
C817 C 0.19416 0.79179 0.64372 0.0
C818 C 0.20212 0.72195 0.58342 0.0
C819 C 0.19353 0.81189 0.56272 0.0
C820 C 0.23327 0.77541 0.45131 0.0
C821 C 0.20953 0.75984 0.42122 0.0
C822 C 0.22965 0.77891 0.50029 0.0
C823 C 0.20161 0.76586 0.52024 0.0
C824 C 0.17754 0.75107 0.48982 0.0
C825 C 0.18181 0.74886 0.44058 0.0
C826 C 0.25594 0.7959 0.53099 0.0
C827 C 0.14729 0.73641 0.50961 0.0
H828 H 0.20333 0.73593 0.67676 0.0
H829 H 0.19309 0.80977 0.65922 0.0
H830 H 0.18562 0.71058 0.55545 0.0
H831 H 0.2235 0.7303 0.56624 0.0
H832 H 0.19965 0.7062 0.61155 0.0
H833 H 0.1881 0.82614 0.58374 0.0
H834 H 0.21485 0.8254 0.54554 0.0
H835 H 0.1776 0.80176 0.53361 0.0
H836 H 0.25483 0.78446 0.43679 0.0
H837 H 0.16333 0.73765 0.41768 0.0
H838 H 0.25803 0.78128 0.55667 0.0
H839 H 0.25378 0.8122 0.55228 0.0
H840 H 0.27599 0.80704 0.50933 0.0
H841 H 0.14441 0.71943 0.53543 0.0
H842 H 0.13085 0.72638 0.48107 0.0
H843 H 0.14338 0.75205 0.52946 0.0
C844 C 0.43116 0.19296 0.86266 0.0
C845 C 0.41773 0.16365 0.85091 0.0
C846 C 0.43347 0.20184 0.91075 0.0
C847 C 0.42188 0.18089 0.94779 0.0
C848 C 0.40609 0.15136 0.93558 0.0
C849 C 0.40427 0.14313 0.88741 0.0
C850 C 0.45028 0.23356 0.92208 0.0
C851 C 0.3931 0.12826 0.97364 0.0
C852 C 0.46168 0.1988 0.0665 0.0
C853 C 0.44437 0.20506 0.09623 0.0
C854 C 0.45458 0.19108 1.01831 0.0
C855 C 0.42947 0.18947 0.99899 0.0
C856 C 0.4116 0.19529 0.02888 0.0
C857 C 0.41918 0.20286 0.07717 0.0
C858 C 0.47417 0.18483 0.98793 0.0
C859 C 0.3846 0.19368 1.00979 0.0
H860 H 0.44166 0.20897 0.83477 0.0
H861 H 0.39361 0.12041 0.87856 0.0
H862 H 0.43873 0.23926 0.94903 0.0
H863 H 0.47132 0.23885 0.9377 0.0
H864 H 0.45431 0.24708 0.88964 0.0
H865 H 0.37819 0.10677 0.95824 0.0
H866 H 0.41052 0.12694 0.99263 0.0
H867 H 0.38127 0.13356 1.00064 0.0
H868 H 0.48117 0.20037 0.08062 0.0
H869 H 0.40542 0.20724 0.09986 0.0
H870 H 0.48212 0.19963 0.95669 0.0
H871 H 0.46207 0.16256 0.97378 0.0
H872 H 0.49298 0.18721 1.00823 0.0
H873 H 0.38993 0.20852 0.97887 0.0
H874 H 0.37328 0.19934 0.03736 0.0
H875 H 0.3697 0.17162 0.99662 0.0
C876 C 0.22393 0.39503 0.4561 0.0
C877 C 0.23703 0.42029 0.42835 0.0
C878 C 0.2212 0.39606 0.50615 0.0
C879 C 0.23166 0.42299 0.52924 0.0
C880 C 0.24401 0.44849 0.50127 0.0
C881 C 0.24657 0.44684 0.45131 0.0
C882 C 0.20783 0.36835 0.53449 0.0
C883 C 0.25513 0.47763 0.52425 0.0
C884 C 0.20417 0.42488 0.65463 0.0
C885 C 0.22698 0.42841 0.68384 0.0
C886 C 0.2054 0.42306 0.60451 0.0
C887 C 0.22993 0.42453 0.58266 0.0
C888 C 0.25285 0.42763 0.61189 0.0
C889 C 0.25112 0.42955 0.66205 0.0
C890 C 0.18047 0.41977 0.5749 0.0
C891 C 0.27934 0.42916 0.59009 0.0
H892 H 0.21658 0.3744 0.43893 0.0
H893 H 0.25657 0.46649 0.43034 0.0
H894 H 0.22389 0.36856 0.55961 0.0
H895 H 0.18961 0.36631 0.55636 0.0
H896 H 0.19989 0.34911 0.51112 0.0
H897 H 0.26328 0.49531 0.49742 0.0
H898 H 0.23783 0.47797 0.54557 0.0
H899 H 0.27281 0.48189 0.54929 0.0
H900 H 0.1852 0.42355 0.67093 0.0
H901 H 0.26884 0.43225 0.68413 0.0
H902 H 0.17158 0.39979 0.55328 0.0
H903 H 0.18795 0.43805 0.54947 0.0
H904 H 0.16292 0.41892 0.59733 0.0
H905 H 0.27323 0.40962 0.56838 0.0
H906 H 0.29507 0.43108 0.61765 0.0
H907 H 0.29001 0.44796 0.56561 0.0
C908 C 0.80629 0.25341 1.0034 0.0
C909 C 0.78182 0.25206 0.98279 0.0
C910 C 0.80608 0.24486 0.05118 0.0
C911 C 0.78061 0.23412 0.07895 0.0
C912 C 0.7557 0.23219 0.05809 0.0
C913 C 0.75664 0.24127 1.01052 0.0
C914 C 0.83314 0.24741 0.07199 0.0
C915 C 0.72793 0.22044 0.08606 0.0
C916 C 0.76601 0.18323 0.18363 0.0
C917 C 0.76915 0.20065 0.22341 0.0
C918 C 0.77084 0.19416 0.13673 0.0
C919 C 0.77932 0.22342 0.12896 0.0
C920 C 0.7844 0.24165 0.16899 0.0
C921 C 0.77943 0.2301 0.21574 0.0
C922 C 0.76512 0.17386 0.09533 0.0
C923 C 0.79387 0.27309 0.16234 0.0
H924 H 0.82582 0.26148 0.98243 0.0
H925 H 0.73756 0.24003 0.99514 0.0
H926 H 0.83912 0.26056 0.10512 0.0
H927 H 0.82939 0.22579 0.08211 0.0
H928 H 0.85153 0.25739 0.04648 0.0
H929 H 0.71051 0.2205 0.06483 0.0
H930 H 0.72068 0.19804 0.09766 0.0
H931 H 0.73138 0.23342 0.11889 0.0
H932 H 0.75843 0.16052 0.18883 0.0
H933 H 0.78258 0.24394 0.24603 0.0
H934 H 0.78366 0.18294 0.07022 0.0
H935 H 0.74617 0.17107 0.07503 0.0
H936 H 0.76086 0.15233 0.10738 0.0
H937 H 0.81382 0.28375 0.14043 0.0
H938 H 0.79783 0.28464 0.197 0.0
H939 H 0.77716 0.27524 0.14259 0.0
C940 C 0.55093 0.77605 0.59695 0.0
C941 C 0.57493 0.7769 0.61845 0.0
C942 C 0.55097 0.78235 0.54805 0.0
C943 C 0.57546 0.78929 0.51943 0.0
C944 C 0.59948 0.78943 0.5406 0.0
C945 C 0.59903 0.78348 0.58989 0.0
C946 C 0.52507 0.78242 0.52738 0.0
C947 C 0.62586 0.79634 0.51135 0.0
C948 C 0.56483 0.78833 0.38369 0.0
C949 C 0.57447 0.81748 0.3743 0.0
C950 C 0.56592 0.77884 0.43044 0.0
C951 C 0.57678 0.79894 0.46865 0.0
C952 C 0.58751 0.82847 0.45887 0.0
C953 C 0.58637 0.83733 0.41204 0.0
C954 C 0.55461 0.7472 0.4392 0.0
C955 C 0.59913 0.8507 0.4983 0.0
H956 H 0.53219 0.77101 0.61862 0.0
H957 H 0.61755 0.78386 0.60599 0.0
H958 H 0.53126 0.80445 0.51504 0.0
H959 H 0.51705 0.76807 0.49573 0.0
H960 H 0.50727 0.77532 0.55381 0.0
H961 H 0.64166 0.79308 0.53197 0.0
H962 H 0.6197 0.78266 0.47882 0.0
H963 H 0.63649 0.81907 0.49918 0.0
H964 H 0.55567 0.77281 0.35493 0.0
H965 H 0.59415 0.85996 0.40537 0.0
H966 H 0.53501 0.73832 0.46191 0.0
H967 H 0.57074 0.74406 0.45892 0.0
H968 H 0.54918 0.73471 0.40533 0.0
H969 H 0.58182 0.84614 0.52462 0.0
H970 H 0.60773 0.87296 0.48449 0.0
H971 H 0.61652 0.84964 0.5178 0.0
C972 C 0.26021 0.55203 0.27452 0.0
C973 C 0.24602 0.52203 0.27957 0.0
C974 C 0.24638 0.56756 0.2858 0.0
C975 C 0.21756 0.55269 0.3023 0.0
C976 C 0.20314 0.52242 0.3079 0.0
C977 C 0.2176 0.50743 0.29656 0.0
C978 C 0.26258 0.59989 0.27966 0.0
C979 C 0.17234 0.50586 0.32504 0.0
C980 C 0.19391 0.60094 0.36222 0.0
C981 C 0.18224 0.60815 0.32332 0.0
C982 C 0.20409 0.58154 0.35672 0.0
C983 C 0.20236 0.56898 0.31135 0.0
C984 C 0.18883 0.57463 0.27291 0.0
C985 C 0.17909 0.59424 0.27926 0.0
C986 C 0.21829 0.57592 0.39861 0.0
C987 C 0.18641 0.56153 0.22402 0.0
H988 H 0.28235 0.56346 0.26236 0.0
H989 H 0.20653 0.48422 0.30021 0.0
H990 H 0.25171 0.60625 0.25257 0.0
H991 H 0.2626 0.61045 0.31386 0.0
H992 H 0.2852 0.60824 0.26807 0.0
H993 H 0.16468 0.48255 0.32971 0.0
H994 H 0.17002 0.51468 0.35965 0.0
H995 H 0.15821 0.5083 0.29887 0.0
H996 H 0.19604 0.61126 0.39654 0.0
H997 H 0.17059 0.59993 0.24866 0.0
H998 H 0.24177 0.58638 0.39192 0.0
H999 H 0.21006 0.55251 0.40279 0.0
H1000 H 0.21476 0.58442 0.43272 0.0
H1001 H 0.20806 0.57116 0.20731 0.0
H1002 H 0.17221 0.56523 0.19978 0.0
H1003 H 0.17793 0.53802 0.22706 0.0
C1004 C 0.70447 0.26561 0.75253 0.0
C1005 C 0.71806 0.25974 0.78999 0.0
C1006 C 0.67451 0.25074 0.74857 0.0
C1007 C 0.65775 0.22926 0.78271 0.0
C1008 C 0.67135 0.22193 0.81887 0.0
C1009 C 0.70144 0.23734 0.82217 0.0
C1010 C 0.66078 0.25905 0.70924 0.0
C1011 C 0.65414 0.19887 0.85549 0.0
C1012 C 0.58395 0.22038 0.80059 0.0
C1013 C 0.56745 0.19758 0.76946 0.0
C1014 C 0.61322 0.23001 0.80716 0.0
C1015 C 0.62607 0.21625 0.78229 0.0
C1016 C 0.60906 0.19207 0.75314 0.0
C1017 C 0.57992 0.18313 0.74679 0.0
C1018 C 0.63073 0.256 0.83835 0.0
C1019 C 0.62193 0.1766 0.72673 0.0
H1020 H 0.7173 0.28246 0.727 0.0
H1021 H 0.71182 0.2328 0.85134 0.0
H1022 H 0.64557 0.23976 0.68856 0.0
H1023 H 0.64827 0.26834 0.72523 0.0
H1024 H 0.67692 0.27508 0.68407 0.0
H1025 H 0.66789 0.19321 0.87724 0.0
H1026 H 0.64307 0.20653 0.87999 0.0
H1027 H 0.63731 0.17913 0.83771 0.0
H1028 H 0.57432 0.23167 0.81784 0.0
H1029 H 0.56698 0.16524 0.72313 0.0
H1030 H 0.64615 0.27431 0.81573 0.0
H1031 H 0.64345 0.25147 0.86452 0.0
H1032 H 0.61707 0.26269 0.85824 0.0
H1033 H 0.63606 0.19052 0.69743 0.0
H1034 H 0.60518 0.156 0.71088 0.0
H1035 H 0.63544 0.17204 0.75111 0.0
C1036 C 0.48496 0.69635 0.28933 0.0
C1037 C 0.46867 0.70771 0.26979 0.0
C1038 C 0.47158 0.6683 0.30823 0.0
C1039 C 0.44124 0.65123 0.30733 0.0
C1040 C 0.42468 0.6631 0.28983 0.0
C1041 C 0.43859 0.69117 0.27138 0.0
C1042 C 0.48996 0.65648 0.32689 0.0
C1043 C 0.39224 0.64569 0.28853 0.0
C1044 C 0.40311 0.57059 0.29128 0.0
C1045 C 0.39035 0.56061 0.33645 0.0
C1046 C 0.42125 0.59997 0.28234 0.0
C1047 C 0.4267 0.62006 0.31934 0.0
C1048 C 0.41542 0.61016 0.36583 0.0
C1049 C 0.39733 0.5805 0.37386 0.0
C1050 C 0.43287 0.6096 0.23223 0.0
C1051 C 0.42105 0.63095 0.40632 0.0
H1052 H 0.5082 0.70895 0.2882 0.0
H1053 H 0.42585 0.70006 0.25758 0.0
H1054 H 0.48136 0.64511 0.36145 0.0
H1055 H 0.48957 0.64057 0.30104 0.0
H1056 H 0.51265 0.67367 0.33203 0.0
H1057 H 0.3825 0.65879 0.2773 0.0
H1058 H 0.38537 0.62755 0.26303 0.0
H1059 H 0.38357 0.63629 0.3243 0.0
H1060 H 0.39753 0.55562 0.26177 0.0
H1061 H 0.38786 0.57298 0.409 0.0
H1062 H 0.45629 0.62517 0.23318 0.0
H1063 H 0.42228 0.62071 0.21574 0.0
H1064 H 0.42912 0.59126 0.2089 0.0
H1065 H 0.44415 0.64758 0.40765 0.0
H1066 H 0.41453 0.61985 0.44158 0.0
H1067 H 0.40875 0.64222 0.40023 0.0
C1068 C 0.79446 0.39566 0.87106 0.0
C1069 C 0.82392 0.405 0.87484 0.0
C1070 C 0.78489 0.4131 0.85026 0.0
C1071 C 0.80522 0.44055 0.8323 0.0
C1072 C 0.83496 0.45081 0.83809 0.0
C1073 C 0.84398 0.43291 0.85941 0.0
C1074 C 0.75295 0.40139 0.84508 0.0
C1075 C 0.85724 0.48007 0.81964 0.0
C1076 C 0.77645 0.46582 0.73073 0.0
C1077 C 0.7686 0.48377 0.75485 0.0
C1078 C 0.78968 0.45267 0.75513 0.0
C1079 C 0.79503 0.45749 0.80491 0.0
C1080 C 0.78806 0.47638 0.82912 0.0
C1081 C 0.77491 0.48924 0.80384 0.0
C1082 C 0.79693 0.43274 0.72801 0.0
C1083 C 0.79318 0.4819 0.88222 0.0
H1084 H 0.77867 0.37395 0.88169 0.0
H1085 H 0.86675 0.44039 0.86245 0.0
H1086 H 0.74699 0.41711 0.85891 0.0
H1087 H 0.74707 0.39788 0.80662 0.0
H1088 H 0.74001 0.38067 0.86441 0.0
H1089 H 0.87932 0.48596 0.83091 0.0
H1090 H 0.85659 0.48019 0.77992 0.0
H1091 H 0.85247 0.49682 0.83252 0.0
H1092 H 0.7719 0.46179 0.69286 0.0
H1093 H 0.76847 0.50264 0.8231 0.0
H1094 H 0.78329 0.41037 0.74122 0.0
H1095 H 0.81965 0.43881 0.7343 0.0
H1096 H 0.79353 0.43307 0.68884 0.0
H1097 H 0.77843 0.46203 0.90235 0.0
H1098 H 0.78952 0.49952 0.89457 0.0
H1099 H 0.81545 0.48752 0.89141 0.0
C1100 C 0.30325 0.78452 0.28563 0.0
C1101 C 0.29159 0.768 0.24414 0.0
C1102 C 0.333 0.79877 0.29424 0.0
C1103 C 0.35152 0.7967 0.26024 0.0
C1104 C 0.34005 0.78186 0.21668 0.0
C1105 C 0.31025 0.76761 0.20929 0.0
C1106 C 0.34429 0.8143 0.34115 0.0
C1107 C 0.35906 0.77954 0.17905 0.0
C1108 C 0.43303 0.8432 0.26362 0.0
C1109 C 0.44096 0.8237 0.28164 0.0
C1110 C 0.40396 0.83527 0.25844 0.0
C1111 C 0.38227 0.80725 0.27192 0.0
C1112 C 0.3901 0.78814 0.29295 0.0
C1113 C 0.41927 0.79652 0.29732 0.0
C1114 C 0.39651 0.85632 0.23607 0.0
C1115 C 0.36767 0.75813 0.30828 0.0
H1116 H 0.28901 0.78486 0.31281 0.0
H1117 H 0.30135 0.75522 0.17688 0.0
H1118 H 0.35065 0.80162 0.3643 0.0
H1119 H 0.36371 0.83564 0.3352 0.0
H1120 H 0.32795 0.81739 0.36063 0.0
H1121 H 0.34729 0.76983 0.14529 0.0
H1122 H 0.37767 0.80109 0.17084 0.0
H1123 H 0.36771 0.76598 0.19283 0.0
H1124 H 0.44959 0.86439 0.25201 0.0
H1125 H 0.42495 0.78103 0.31054 0.0
H1126 H 0.37965 0.85752 0.25734 0.0
H1127 H 0.38772 0.84879 0.19968 0.0
H1128 H 0.41553 0.87828 0.23299 0.0
H1129 H 0.3512 0.7589 0.33135 0.0
H1130 H 0.37715 0.74696 0.32817 0.0
H1131 H 0.35652 0.74515 0.27623 0.0
C1132 C 0.60915 0.41379 0.73274 0.0
C1133 C 0.61365 0.42969 0.7748 0.0
C1134 C 0.5877 0.3848 0.73024 0.0
C1135 C 0.56989 0.37143 0.77062 0.0
C1136 C 0.57463 0.38726 0.8136 0.0
C1137 C 0.59676 0.41626 0.81535 0.0
C1138 C 0.58382 0.36864 0.68397 0.0
C1139 C 0.55582 0.37385 0.85709 0.0
C1140 C 0.49917 0.30834 0.73089 0.0
C1141 C 0.50405 0.2853 0.73772 0.0
C1142 C 0.51943 0.33625 0.74554 0.0
C1143 C 0.5456 0.34132 0.7662 0.0
C1144 C 0.5499 0.31778 0.77565 0.0
C1145 C 0.52885 0.28992 0.76171 0.0
C1146 C 0.51365 0.36059 0.73587 0.0
C1147 C 0.57765 0.32224 0.79677 0.0
H1148 H 0.62258 0.42413 0.70164 0.0
H1149 H 0.60036 0.42864 0.84787 0.0
H1150 H 0.58436 0.34855 0.69089 0.0
H1151 H 0.56253 0.3624 0.66836 0.0
H1152 H 0.60067 0.38165 0.65704 0.0
H1153 H 0.56337 0.38845 0.88856 0.0
H1154 H 0.53346 0.36838 0.84884 0.0
H1155 H 0.55521 0.35349 0.86674 0.0
H1156 H 0.47983 0.30457 0.71261 0.0
H1157 H 0.53266 0.27205 0.76655 0.0
H1158 H 0.52725 0.37377 0.70549 0.0
H1159 H 0.5193 0.37491 0.76752 0.0
H1160 H 0.49078 0.3526 0.72667 0.0
H1161 H 0.59504 0.3325 0.76958 0.0
H1162 H 0.57602 0.30162 0.80813 0.0
H1163 H 0.58405 0.3369 0.82802 0.0
C1164 C 0.38979 0.84191 0.70448 0.0
C1165 C 0.36386 0.81573 0.70897 0.0
C1166 C 0.41634 0.84275 0.70524 0.0
C1167 C 0.4169 0.8168 0.71071 0.0
C1168 C 0.39078 0.79015 0.71117 0.0
C1169 C 0.36458 0.78995 0.71032 0.0
C1170 C 0.44371 0.87155 0.70396 0.0
C1171 C 0.39042 0.76195 0.71671 0.0
C1172 C 0.48477 0.81157 0.70137 0.0
C1173 C 0.49113 0.81077 0.74993 0.0
C1174 C 0.46142 0.81486 0.68764 0.0
C1175 C 0.44413 0.81752 0.72334 0.0
C1176 C 0.45148 0.8185 0.77221 0.0
C1177 C 0.47481 0.8151 0.78487 0.0
C1178 C 0.45444 0.81401 0.63515 0.0
C1179 C 0.43367 0.82147 0.81148 0.0
H1180 H 0.38936 0.86188 0.70265 0.0
H1181 H 0.34471 0.76963 0.71422 0.0
H1182 H 0.45289 0.87709 0.74053 0.0
H1183 H 0.45998 0.87076 0.6804 0.0
H1184 H 0.4399 0.88899 0.69123 0.0
H1185 H 0.36873 0.7431 0.71034 0.0
H1186 H 0.40587 0.76086 0.69152 0.0
H1187 H 0.39714 0.76031 0.75357 0.0
H1188 H 0.49754 0.80876 0.67406 0.0
H1189 H 0.47917 0.81428 0.82244 0.0
H1190 H 0.45008 0.83161 0.62608 0.0
H1191 H 0.4347 0.79336 0.627 0.0
H1192 H 0.47211 0.81589 0.61182 0.0
H1193 H 0.43099 0.84036 0.80456 0.0
H1194 H 0.44346 0.82397 0.84741 0.0
H1195 H 0.41191 0.8021 0.8121 0.0
C1196 C 0.55419 0.37923 0.24168 0.0
C1197 C 0.54768 0.36528 0.19704 0.0
C1198 C 0.58202 0.40146 0.25228 0.0
C1199 C 0.60415 0.40974 0.2178 0.0
C1200 C 0.59755 0.3969 0.17184 0.0
C1201 C 0.56935 0.37495 0.1619 0.0
C1202 C 0.58807 0.41483 0.30156 0.0
C1203 C 0.62058 0.40512 0.13411 0.0
C1204 C 0.67548 0.4781 0.24053 0.0
C1205 C 0.69124 0.46704 0.26291 0.0
C1206 C 0.64715 0.45975 0.22515 0.0
C1207 C 0.63453 0.42964 0.2317 0.0
C1208 C 0.65061 0.41837 0.25347 0.0
C1209 C 0.67867 0.43722 0.26908 0.0
C1210 C 0.63057 0.47258 0.20267 0.0
C1211 C 0.63814 0.38636 0.26051 0.0
H1212 H 0.53795 0.37176 0.26959 0.0
H1213 H 0.56453 0.36471 0.12706 0.0
H1214 H 0.60117 0.40782 0.32205 0.0
H1215 H 0.60065 0.43865 0.2989 0.0
H1216 H 0.56803 0.40859 0.32209 0.0
H1217 H 0.6115 0.39538 0.09876 0.0
H1218 H 0.63329 0.42885 0.12995 0.0
H1219 H 0.63565 0.39777 0.14547 0.0
H1220 H 0.6852 0.50117 0.23584 0.0
H1221 H 0.69104 0.42858 0.28541 0.0
H1222 H 0.6115 0.46751 0.22509 0.0
H1223 H 0.62256 0.46294 0.1669 0.0
H1224 H 0.6438 0.49632 0.19861 0.0
H1225 H 0.61922 0.37788 0.28477 0.0
H1226 H 0.65395 0.38104 0.27599 0.0
H1227 H 0.63061 0.37503 0.22576 0.0
C1228 C 0.21285 0.56665 0.74713 0.0
C1229 C 0.18533 0.54532 0.76187 0.0
C1230 C 0.22169 0.59598 0.7519 0.0
C1231 C 0.20247 0.60414 0.77162 0.0
C1232 C 0.17404 0.58268 0.78358 0.0
C1233 C 0.16586 0.55351 0.77881 0.0
C1234 C 0.25224 0.61811 0.73894 0.0
C1235 C 0.15276 0.59048 0.80399 0.0
C1236 C 0.23401 0.67427 0.84121 0.0
C1237 C 0.23225 0.69293 0.80798 0.0
C1238 C 0.22454 0.64542 0.82965 0.0
C1239 C 0.2128 0.63482 0.7838 0.0
C1240 C 0.21086 0.65345 0.75008 0.0
C1241 C 0.2207 0.68227 0.76248 0.0
C1242 C 0.22712 0.62626 0.86658 0.0
C1243 C 0.19853 0.64297 0.70082 0.0
H1244 H 0.22814 0.56044 0.73472 0.0
H1245 H 0.14455 0.53704 0.79009 0.0
H1246 H 0.25288 0.63602 0.71808 0.0
H1247 H 0.26472 0.62743 0.77221 0.0
H1248 H 0.263 0.60861 0.71779 0.0
H1249 H 0.13074 0.57153 0.80665 0.0
H1250 H 0.15969 0.5997 0.84033 0.0
H1251 H 0.152 0.60714 0.78149 0.0
H1252 H 0.24259 0.68215 0.87653 0.0
H1253 H 0.21975 0.69654 0.73607 0.0
H1254 H 0.24029 0.61733 0.85204 0.0
H1255 H 0.20554 0.60779 0.87508 0.0
H1256 H 0.23709 0.6379 0.90033 0.0
H1257 H 0.21148 0.63524 0.68151 0.0
H1258 H 0.19807 0.66006 0.679 0.0
H1259 H 0.17632 0.62447 0.7039 0.0
C1260 C 0.53265 0.21609 0.32704 0.0
C1261 C 0.51436 0.21179 0.28848 0.0
C1262 C 0.55039 0.20386 0.32727 0.0
C1263 C 0.54984 0.18698 0.28783 0.0
C1264 C 0.52983 0.18075 0.2505 0.0
C1265 C 0.51223 0.1932 0.25133 0.0
C1266 C 0.57112 0.2107 0.36818 0.0
C1267 C 0.52847 0.16272 0.208 0.0
C1268 C 0.62272 0.19448 0.26598 0.0
C1269 C 0.61997 0.17017 0.28971 0.0
C1270 C 0.5994 0.1992 0.2624 0.0
C1271 C 0.57267 0.17918 0.28323 0.0
C1272 C 0.56914 0.15359 0.3042 0.0
C1273 C 0.59287 0.14938 0.30719 0.0
C1274 C 0.60402 0.2267 0.23938 0.0
C1275 C 0.54088 0.13159 0.32626 0.0
H1276 H 0.5339 0.23002 0.35617 0.0
H1277 H 0.49818 0.18985 0.22136 0.0
H1278 H 0.56995 0.19074 0.38193 0.0
H1279 H 0.59342 0.22502 0.35522 0.0
H1280 H 0.56679 0.22159 0.39826 0.0
H1281 H 0.50875 0.15587 0.18646 0.0
H1282 H 0.54744 0.17545 0.18457 0.0
H1283 H 0.52914 0.1433 0.21971 0.0
H1284 H 0.6436 0.21087 0.2529 0.0
H1285 H 0.59051 0.13034 0.32497 0.0
H1286 H 0.60318 0.24101 0.26728 0.0
H1287 H 0.58671 0.22202 0.21328 0.0
H1288 H 0.62508 0.2385 0.22061 0.0
H1289 H 0.5375 0.14016 0.36034 0.0
H1290 H 0.54029 0.11099 0.33403 0.0
H1291 H 0.52273 0.12721 0.30227 0.0
C1292 C 0.38746 0.66806 0.72242 0.0
C1293 C 0.40959 0.66457 0.70274 0.0
C1294 C 0.36054 0.64412 0.73275 0.0
C1295 C 0.35578 0.6162 0.72282 0.0
C1296 C 0.37673 0.61292 0.69706 0.0
C1297 C 0.40352 0.63724 0.68734 0.0
C1298 C 0.33854 0.64862 0.75921 0.0
C1299 C 0.37215 0.58352 0.68472 0.0
C1300 C 0.31481 0.55855 0.8161 0.0
C1301 C 0.2882 0.54175 0.79396 0.0
C1302 C 0.33676 0.58302 0.79339 0.0
C1303 C 0.33196 0.59091 0.74733 0.0
C1304 C 0.30492 0.57442 0.72514 0.0
C1305 C 0.28335 0.54998 0.74872 0.0
C1306 C 0.36527 0.60022 0.81851 0.0
C1307 C 0.29893 0.58215 0.67621 0.0
H1308 H 0.39203 0.68931 0.73359 0.0
H1309 H 0.42055 0.63444 0.67205 0.0
H1310 H 0.31655 0.63366 0.7461 0.0
H1311 H 0.3391 0.6441 0.79787 0.0
H1312 H 0.34288 0.67108 0.75545 0.0
H1313 H 0.38794 0.58476 0.6576 0.0
H1314 H 0.3746 0.57328 0.71755 0.0
H1315 H 0.35013 0.5694 0.67089 0.0
H1316 H 0.31869 0.55217 0.85082 0.0
H1317 H 0.26261 0.53742 0.73178 0.0
H1318 H 0.37065 0.62298 0.82223 0.0
H1319 H 0.38258 0.60009 0.79686 0.0
H1320 H 0.36522 0.59159 0.8547 0.0
H1321 H 0.30672 0.60555 0.67364 0.0
H1322 H 0.27565 0.57011 0.66752 0.0
H1323 H 0.31065 0.57699 0.64872 0.0
C1324 C 0.76055 0.32171 0.35014 0.0
C1325 C 0.75143 0.29569 0.32584 0.0
C1326 C 0.76807 0.34722 0.32522 0.0
C1327 C 0.76666 0.34688 0.27456 0.0
C1328 C 0.75769 0.3208 0.24961 0.0
C1329 C 0.75013 0.29551 0.27553 0.0
C1330 C 0.77749 0.3746 0.35324 0.0
C1331 C 0.75612 0.3196 0.19561 0.0
C1332 C 0.76086 0.4095 0.22531 0.0
C1333 C 0.78983 0.42989 0.2167 0.0
C1334 C 0.75273 0.38161 0.24107 0.0
C1335 C 0.77408 0.37391 0.24838 0.0
C1336 C 0.80305 0.39364 0.23623 0.0
C1337 C 0.81061 0.42146 0.22067 0.0
C1338 C 0.72159 0.36121 0.25347 0.0
C1339 C 0.82639 0.3861 0.24289 0.0
H1340 H 0.76218 0.32229 0.38879 0.0
H1341 H 0.74287 0.27556 0.25624 0.0
H1342 H 0.79948 0.39121 0.34209 0.0
H1343 H 0.76299 0.38326 0.34554 0.0
H1344 H 0.77745 0.37123 0.39251 0.0
H1345 H 0.74692 0.2973 0.1818 0.0
H1346 H 0.74284 0.32871 0.18254 0.0
H1347 H 0.77798 0.33292 0.18025 0.0
H1348 H 0.74468 0.41589 0.22298 0.0
H1349 H 0.83298 0.43705 0.21361 0.0
H1350 H 0.71914 0.35865 0.29296 0.0
H1351 H 0.71437 0.3396 0.23804 0.0
H1352 H 0.70725 0.3691 0.24035 0.0
H1353 H 0.83031 0.38532 0.28171 0.0
H1354 H 0.84692 0.40209 0.22561 0.0
H1355 H 0.81968 0.3645 0.2279 0.0
loop_
_geom_bond_atom_site_label_1
_geom_bond_atom_site_label_2
_geom_bond_distance
_geom_bond_site_symmetry_2
_ccdc_geom_bond_type
C0 C1 1.351 . S
C0 N3 1.368 . S
C0 H5 0.931 . S
C1 C0 1.351 . S
C1 N2 1.373 . S
C1 H29 0.930 . S
N2 C1 1.373 . S
N2 C4 1.340 . S
N3 C0 1.368 . S
N3 C4 1.321 . S
N3 Co6 2.135 . S
C4 N2 1.340 . S
C4 N3 1.321 . S
C4 H28 0.930 . S
H5 C0 0.931 . S
Co6 N3 2.135 . S
Co6 N9 2.121 . S
Co6 O14 2.055 . S
Co6 O17 2.039 . S
Co6 N20 2.140 . S
C7 O8 1.227 . S
C7 O17 1.265 . S
O8 C7 1.227 . S
N9 Co6 2.121 . S
N9 C11 1.375 . S
N9 C12 1.313 . S
C10 C11 1.338 . S
C10 N13 1.377 . S
C10 H30 0.930 . S
C11 N9 1.375 . S
C11 C10 1.338 . S
C11 H15 0.931 . S
C12 N9 1.313 . S
C12 N13 1.344 . S
C12 H16 0.930 . S
N13 C10 1.377 . S
N13 C12 1.344 . S
O14 Co6 2.055 . S
O14 C18 1.253 . S
H15 C11 0.931 . S
H16 C12 0.930 . S
O17 Co6 2.039 . S
O17 C7 1.265 . S
C18 O14 1.253 . S
C18 O19 1.227 . S
O19 C18 1.227 . S
N20 Co6 2.140 . S
N20 C23 1.346 . S
N20 C24 1.345 . S
C21 C22 1.387 . S
C21 C25 1.391 . S
C22 C21 1.387 . S
C22 C23 1.369 . S
C22 H31 0.929 . S
C23 N20 1.346 . S
C23 C22 1.369 . S
C23 H26 0.928 . S
C24 N20 1.345 . S
C24 C25 1.371 . S
C24 H27 0.931 . S
C25 C21 1.391 . S
C25 C24 1.371 . S
C25 H32 0.930 . S
H26 C23 0.928 . S
H27 C24 0.931 . S
H28 C4 0.930 . S
H29 C1 0.930 . S
H30 C10 0.930 . S
H31 C22 0.929 . S
H32 C25 0.930 . S
C33 C34 1.351 . S
C33 N36 1.368 . S
C33 H38 0.931 . S
C34 C33 1.351 . S
C34 N35 1.373 . S
C34 H62 0.930 . S
N35 C34 1.373 . S
N35 C37 1.340 . S
N36 C33 1.368 . S
N36 C37 1.321 . S
N36 Co39 2.135 . S
C37 N35 1.340 . S
C37 N36 1.321 . S
C37 H61 0.930 . S
H38 C33 0.931 . S
Co39 N36 2.135 . S
Co39 N42 2.121 . S
Co39 O47 2.055 . S
Co39 O50 2.039 . S
Co39 N53 2.140 . S
C40 O41 1.227 . S
C40 O50 1.265 . S
O41 C40 1.227 . S
N42 Co39 2.121 . S
N42 C44 1.375 . S
N42 C45 1.313 . S
C43 C44 1.338 . S
C43 N46 1.377 . S
C43 H63 0.930 . S
C44 N42 1.375 . S
C44 C43 1.338 . S
C44 H48 0.931 . S
C45 N42 1.313 . S
C45 N46 1.344 . S
C45 H49 0.930 . S
N46 C43 1.377 . S
N46 C45 1.344 . S
O47 Co39 2.055 . S
O47 C51 1.253 . S
H48 C44 0.931 . S
H49 C45 0.930 . S
O50 Co39 2.039 . S
O50 C40 1.265 . S
C51 O47 1.253 . S
C51 O52 1.227 . S
O52 C51 1.227 . S
N53 Co39 2.140 . S
N53 C56 1.346 . S
N53 C57 1.345 . S
C54 C55 1.387 . S
C54 C58 1.391 . S
C55 C54 1.387 . S
C55 C56 1.369 . S
C55 H64 0.929 . S
C56 N53 1.346 . S
C56 C55 1.369 . S
C56 H59 0.928 . S
C57 N53 1.345 . S
C57 C58 1.371 . S
C57 H60 0.931 . S
C58 C54 1.391 . S
C58 C57 1.371 . S
C58 H65 0.930 . S
H59 C56 0.928 . S
H60 C57 0.931 . S
H61 C37 0.930 . S
H62 C34 0.930 . S
H63 C43 0.930 . S
H64 C55 0.929 . S
H65 C58 0.930 . S
C66 C67 1.351 . S
C66 N69 1.368 . S
C66 H71 0.931 . S
C67 C66 1.351 . S
C67 N68 1.373 . S
C67 H95 0.930 . S
N68 C67 1.373 . S
N68 C70 1.340 . S
N69 C66 1.368 . S
N69 C70 1.321 . S
N69 Co72 2.135 . S
C70 N68 1.340 . S
C70 N69 1.321 . S
C70 H94 0.930 . S
H71 C66 0.931 . S
Co72 N69 2.135 . S
Co72 N75 2.121 . S
Co72 O80 2.055 . S
Co72 O83 2.039 . S
Co72 N86 2.140 . S
C73 O74 1.227 . S
C73 O83 1.265 . S
O74 C73 1.227 . S
N75 Co72 2.121 . S
N75 C77 1.375 . S
N75 C78 1.313 . S
C76 C77 1.338 . S
C76 N79 1.377 . S
C76 H96 0.930 . S
C77 N75 1.375 . S
C77 C76 1.338 . S
C77 H81 0.931 . S
C78 N75 1.313 . S
C78 N79 1.344 . S
C78 H82 0.930 . S
N79 C76 1.377 . S
N79 C78 1.344 . S
O80 Co72 2.055 . S
O80 C84 1.253 . S
H81 C77 0.931 . S
H82 C78 0.930 . S
O83 Co72 2.039 . S
O83 C73 1.265 . S
C84 O80 1.253 . S
C84 O85 1.227 . S
O85 C84 1.227 . S
N86 Co72 2.140 . S
N86 C89 1.346 . S
N86 C90 1.345 . S
C87 C88 1.387 . S
C87 C91 1.391 . S
C88 C87 1.387 . S
C88 C89 1.369 . S
C88 H97 0.929 . S
C89 N86 1.346 . S
C89 C88 1.369 . S
C89 H92 0.928 . S
C90 N86 1.345 . S
C90 C91 1.371 . S
C90 H93 0.931 . S
C91 C87 1.391 . S
C91 C90 1.371 . S
C91 H98 0.930 . S
H92 C89 0.928 . S
H93 C90 0.931 . S
H94 C70 0.930 . S
H95 C67 0.930 . S
H96 C76 0.930 . S
H97 C88 0.929 . S
H98 C91 0.930 . S
C99 C100 1.351 . S
C99 N102 1.368 . S
C99 H104 0.931 . S
C100 C99 1.351 . S
C100 N101 1.373 . S
C100 H128 0.930 . S
N101 C100 1.373 . S
N101 C103 1.340 . S
N102 C99 1.368 . S
N102 C103 1.321 . S
N102 Co105 2.135 . S
C103 N101 1.340 . S
C103 N102 1.321 . S
C103 H127 0.930 . S
H104 C99 0.931 . S
Co105 N102 2.135 . S
Co105 N108 2.121 . S
Co105 O113 2.055 . S
Co105 O116 2.039 . S
Co105 N119 2.140 . S
C106 O107 1.227 . S
C106 O116 1.265 . S
O107 C106 1.227 . S
N108 Co105 2.121 . S
N108 C110 1.375 . S
N108 C111 1.313 . S
C109 C110 1.338 . S
C109 N112 1.377 . S
C109 H129 0.930 . S
C110 N108 1.375 . S
C110 C109 1.338 . S
C110 H114 0.931 . S
C111 N108 1.313 . S
C111 N112 1.344 . S
C111 H115 0.930 . S
N112 C109 1.377 . S
N112 C111 1.344 . S
O113 Co105 2.055 . S
O113 C117 1.253 . S
H114 C110 0.931 . S
H115 C111 0.930 . S
O116 Co105 2.039 . S
O116 C106 1.265 . S
C117 O113 1.253 . S
C117 O118 1.227 . S
O118 C117 1.227 . S
N119 Co105 2.140 . S
N119 C122 1.346 . S
N119 C123 1.345 . S
C120 C121 1.387 . S
C120 C124 1.391 . S
C121 C120 1.387 . S
C121 C122 1.369 . S
C121 H130 0.929 . S
C122 N119 1.346 . S
C122 C121 1.369 . S
C122 H125 0.928 . S
C123 N119 1.345 . S
C123 C124 1.371 . S
C123 H126 0.931 . S
C124 C120 1.391 . S
C124 C123 1.371 . S
C124 H131 0.930 . S
H125 C122 0.928 . S
H126 C123 0.931 . S
H127 C103 0.930 . S
H128 C100 0.930 . S
H129 C109 0.930 . S
H130 C121 0.929 . S
H131 C124 0.930 . S
C132 C133 1.351 . S
C132 N135 1.368 . S
C132 H137 0.931 . S
C133 C132 1.351 . S
C133 N134 1.373 . S
C133 H161 0.930 . S
N134 C133 1.373 . S
N134 C136 1.340 . S
N135 C132 1.368 . S
N135 C136 1.321 . S
N135 Co138 2.135 . S
C136 N134 1.340 . S
C136 N135 1.321 . S
C136 H160 0.930 . S
H137 C132 0.931 . S
Co138 N135 2.135 . S
Co138 N141 2.121 . S
Co138 O146 2.055 . S
Co138 O149 2.039 . S
Co138 N152 2.140 . S
C139 O140 1.227 . S
C139 O149 1.265 . S
O140 C139 1.227 . S
N141 Co138 2.121 . S
N141 C143 1.375 . S
N141 C144 1.313 . S
C142 C143 1.338 . S
C142 N145 1.377 . S
C142 H162 0.930 . S
C143 N141 1.375 . S
C143 C142 1.338 . S
C143 H147 0.931 . S
C144 N141 1.313 . S
C144 N145 1.344 . S
C144 H148 0.930 . S
N145 C142 1.377 . S
N145 C144 1.344 . S
O146 Co138 2.055 . S
O146 C150 1.253 . S
H147 C143 0.931 . S
H148 C144 0.930 . S
O149 Co138 2.039 . S
O149 C139 1.265 . S
C150 O146 1.253 . S
C150 O151 1.227 . S
O151 C150 1.227 . S
N152 Co138 2.140 . S
N152 C155 1.346 . S
N152 C156 1.345 . S
C153 C154 1.387 . S
C153 C157 1.391 . S
C154 C153 1.387 . S
C154 C155 1.369 . S
C154 H163 0.929 . S
C155 N152 1.346 . S
C155 C154 1.369 . S
C155 H158 0.928 . S
C156 N152 1.345 . S
C156 C157 1.371 . S
C156 H159 0.931 . S
C157 C153 1.391 . S
C157 C156 1.371 . S
C157 H164 0.930 . S
H158 C155 0.928 . S
H159 C156 0.931 . S
H160 C136 0.930 . S
H161 C133 0.930 . S
H162 C142 0.930 . S
H163 C154 0.929 . S
H164 C157 0.930 . S
C165 C166 1.351 . S
C165 N168 1.368 . S
C165 H170 0.931 . S
C166 C165 1.351 . S
C166 N167 1.373 . S
C166 H194 0.930 . S
N167 C166 1.373 . S
N167 C169 1.340 . S
N168 C165 1.368 . S
N168 C169 1.321 . S
N168 Co171 2.135 . S
C169 N167 1.340 . S
C169 N168 1.321 . S
C169 H193 0.930 . S
H170 C165 0.931 . S
Co171 N168 2.135 . S
Co171 N174 2.121 . S
Co171 O179 2.055 . S
Co171 O182 2.039 . S
Co171 N185 2.140 . S
C172 O173 1.227 . S
C172 O182 1.265 . S
O173 C172 1.227 . S
N174 Co171 2.121 . S
N174 C176 1.375 . S
N174 C177 1.313 . S
C175 C176 1.338 . S
C175 N178 1.377 . S
C175 H195 0.930 . S
C176 N174 1.375 . S
C176 C175 1.338 . S
C176 H180 0.931 . S
C177 N174 1.313 . S
C177 N178 1.344 . S
C177 H181 0.930 . S
N178 C175 1.377 . S
N178 C177 1.344 . S
O179 Co171 2.055 . S
O179 C183 1.253 . S
H180 C176 0.931 . S
H181 C177 0.930 . S
O182 Co171 2.039 . S
O182 C172 1.265 . S
C183 O179 1.253 . S
C183 O184 1.227 . S
O184 C183 1.227 . S
N185 Co171 2.140 . S
N185 C188 1.346 . S
N185 C189 1.345 . S
C186 C187 1.387 . S
C186 C190 1.391 . S
C187 C186 1.387 . S
C187 C188 1.369 . S
C187 H196 0.929 . S
C188 N185 1.346 . S
C188 C187 1.369 . S
C188 H191 0.928 . S
C189 N185 1.345 . S
C189 C190 1.371 . S
C189 H192 0.931 . S
C190 C186 1.391 . S
C190 C189 1.371 . S
C190 H197 0.930 . S
H191 C188 0.928 . S
H192 C189 0.931 . S
H193 C169 0.930 . S
H194 C166 0.930 . S
H195 C175 0.930 . S
H196 C187 0.929 . S
H197 C190 0.930 . S
C198 C199 1.351 . S
C198 N201 1.368 . S
C198 H203 0.931 . S
C199 C198 1.351 . S
C199 N200 1.373 . S
C199 H227 0.930 . S
N200 C199 1.373 . S
N200 C202 1.340 . S
N201 C198 1.368 . S
N201 C202 1.321 . S
N201 Co204 2.135 . S
C202 N200 1.340 . S
C202 N201 1.321 . S
C202 H226 0.930 . S
H203 C198 0.931 . S
Co204 N201 2.135 . S
Co204 N207 2.121 . S
Co204 O212 2.055 . S
Co204 O215 2.039 . S
Co204 N218 2.140 . S
C205 O206 1.227 . S
C205 O215 1.265 . S
O206 C205 1.227 . S
N207 Co204 2.121 . S
N207 C209 1.375 . S
N207 C210 1.313 . S
C208 C209 1.338 . S
C208 N211 1.377 . S
C208 H228 0.930 . S
C209 N207 1.375 . S
C209 C208 1.338 . S
C209 H213 0.931 . S
C210 N207 1.313 . S
C210 N211 1.344 . S
C210 H214 0.930 . S
N211 C208 1.377 . S
N211 C210 1.344 . S
O212 Co204 2.055 . S
O212 C216 1.253 . S
H213 C209 0.931 . S
H214 C210 0.930 . S
O215 Co204 2.039 . S
O215 C205 1.265 . S
C216 O212 1.253 . S
C216 O217 1.227 . S
O217 C216 1.227 . S
N218 Co204 2.140 . S
N218 C221 1.346 . S
N218 C222 1.345 . S
C219 C220 1.387 . S
C219 C223 1.391 . S
C220 C219 1.387 . S
C220 C221 1.369 . S
C220 H229 0.929 . S
C221 N218 1.346 . S
C221 C220 1.369 . S
C221 H224 0.928 . S
C222 N218 1.345 . S
C222 C223 1.371 . S
C222 H225 0.931 . S
C223 C219 1.391 . S
C223 C222 1.371 . S
C223 H230 0.930 . S
H224 C221 0.928 . S
H225 C222 0.931 . S
H226 C202 0.930 . S
H227 C199 0.930 . S
H228 C208 0.930 . S
H229 C220 0.929 . S
H230 C223 0.930 . S
C231 C232 1.351 . S
C231 N234 1.368 . S
C231 H236 0.931 . S
C232 C231 1.351 . S
C232 N233 1.373 . S
C232 H260 0.930 . S
N233 C232 1.373 . S
N233 C235 1.340 . S
N234 C231 1.368 . S
N234 C235 1.321 . S
N234 Co237 2.135 . S
C235 N233 1.340 . S
C235 N234 1.321 . S
C235 H259 0.930 . S
H236 C231 0.931 . S
Co237 N234 2.135 . S
Co237 N240 2.121 . S
Co237 O245 2.055 . S
Co237 O248 2.039 . S
Co237 N251 2.140 . S
C238 O239 1.227 . S
C238 O248 1.265 . S
O239 C238 1.227 . S
N240 Co237 2.121 . S
N240 C242 1.375 . S
N240 C243 1.313 . S
C241 C242 1.338 . S
C241 N244 1.377 . S
C241 H261 0.930 . S
C242 N240 1.375 . S
C242 C241 1.338 . S
C242 H246 0.931 . S
C243 N240 1.313 . S
C243 N244 1.344 . S
C243 H247 0.930 . S
N244 C241 1.377 . S
N244 C243 1.344 . S
O245 Co237 2.055 . S
O245 C249 1.253 . S
H246 C242 0.931 . S
H247 C243 0.930 . S
O248 Co237 2.039 . S
O248 C238 1.265 . S
C249 O245 1.253 . S
C249 O250 1.227 . S
O250 C249 1.227 . S
N251 Co237 2.140 . S
N251 C254 1.346 . S
N251 C255 1.345 . S
C252 C253 1.387 . S
C252 C256 1.391 . S
C253 C252 1.387 . S
C253 C254 1.369 . S
C253 H262 0.929 . S
C254 N251 1.346 . S
C254 C253 1.369 . S
C254 H257 0.928 . S
C255 N251 1.345 . S
C255 C256 1.371 . S
C255 H258 0.931 . S
C256 C252 1.391 . S
C256 C255 1.371 . S
C256 H263 0.930 . S
H257 C254 0.928 . S
H258 C255 0.931 . S
H259 C235 0.930 . S
H260 C232 0.930 . S
H261 C241 0.930 . S
H262 C253 0.929 . S
H263 C256 0.930 . S
C264 C265 1.351 . S
C264 N267 1.368 . S
C264 H269 0.931 . S
C265 C264 1.351 . S
C265 N266 1.373 . S
C265 H293 0.930 . S
N266 C265 1.373 . S
N266 C268 1.340 . S
N267 C264 1.368 . S
N267 C268 1.321 . S
N267 Co270 2.135 . S
C268 N266 1.340 . S
C268 N267 1.321 . S
C268 H292 0.930 . S
H269 C264 0.931 . S
Co270 N267 2.135 . S
Co270 N273 2.121 . S
Co270 O278 2.055 . S
Co270 O281 2.039 . S
Co270 N284 2.140 . S
C271 O272 1.227 . S
C271 O281 1.265 . S
O272 C271 1.227 . S
N273 Co270 2.121 . S
N273 C275 1.375 . S
N273 C276 1.313 . S
C274 C275 1.338 . S
C274 N277 1.377 . S
C274 H294 0.930 . S
C275 N273 1.375 . S
C275 C274 1.338 . S
C275 H279 0.931 . S
C276 N273 1.313 . S
C276 N277 1.344 . S
C276 H280 0.930 . S
N277 C274 1.377 . S
N277 C276 1.344 . S
O278 Co270 2.055 . S
O278 C282 1.253 . S
H279 C275 0.931 . S
H280 C276 0.930 . S
O281 Co270 2.039 . S
O281 C271 1.265 . S
C282 O278 1.253 . S
C282 O283 1.227 . S
O283 C282 1.227 . S
N284 Co270 2.140 . S
N284 C287 1.346 . S
N284 C288 1.345 . S
C285 C286 1.387 . S
C285 C289 1.391 . S
C286 C285 1.387 . S
C286 C287 1.369 . S
C286 H295 0.929 . S
C287 N284 1.346 . S
C287 C286 1.369 . S
C287 H290 0.928 . S
C288 N284 1.345 . S
C288 C289 1.371 . S
C288 H291 0.931 . S
C289 C285 1.391 . S
C289 C288 1.371 . S
C289 H296 0.930 . S
H290 C287 0.928 . S
H291 C288 0.931 . S
H292 C268 0.930 . S
H293 C265 0.930 . S
H294 C274 0.930 . S
H295 C286 0.929 . S
H296 C289 0.930 . S
C297 C298 1.351 . S
C297 N300 1.368 . S
C297 H302 0.931 . S
C298 C297 1.351 . S
C298 N299 1.373 . S
C298 H326 0.930 . S
N299 C298 1.373 . S
N299 C301 1.340 . S
N300 C297 1.368 . S
N300 C301 1.321 . S
N300 Co303 2.135 . S
C301 N299 1.340 . S
C301 N300 1.321 . S
C301 H325 0.930 . S
H302 C297 0.931 . S
Co303 N300 2.135 . S
Co303 N306 2.121 . S
Co303 O311 2.055 . S
Co303 O314 2.039 . S
Co303 N317 2.140 . S
C304 O305 1.227 . S
C304 O314 1.265 . S
O305 C304 1.227 . S
N306 Co303 2.121 . S
N306 C308 1.375 . S
N306 C309 1.313 . S
C307 C308 1.338 . S
C307 N310 1.377 . S
C307 H327 0.930 . S
C308 N306 1.375 . S
C308 C307 1.338 . S
C308 H312 0.931 . S
C309 N306 1.313 . S
C309 N310 1.344 . S
C309 H313 0.930 . S
N310 C307 1.377 . S
N310 C309 1.344 . S
O311 Co303 2.055 . S
O311 C315 1.253 . S
H312 C308 0.931 . S
H313 C309 0.930 . S
O314 Co303 2.039 . S
O314 C304 1.265 . S
C315 O311 1.253 . S
C315 O316 1.227 . S
O316 C315 1.227 . S
N317 Co303 2.140 . S
N317 C320 1.346 . S
N317 C321 1.345 . S
C318 C319 1.387 . S
C318 C322 1.391 . S
C319 C318 1.387 . S
C319 C320 1.369 . S
C319 H328 0.929 . S
C320 N317 1.346 . S
C320 C319 1.369 . S
C320 H323 0.928 . S
C321 N317 1.345 . S
C321 C322 1.371 . S
C321 H324 0.931 . S
C322 C318 1.391 . S
C322 C321 1.371 . S
C322 H329 0.930 . S
H323 C320 0.928 . S
H324 C321 0.931 . S
H325 C301 0.930 . S
H326 C298 0.930 . S
H327 C307 0.930 . S
H328 C319 0.929 . S
H329 C322 0.930 . S
C330 C331 1.351 . S
C330 N333 1.368 . S
C330 H335 0.931 . S
C331 C330 1.351 . S
C331 N332 1.373 . S
C331 H359 0.930 . S
N332 C331 1.373 . S
N332 C334 1.340 . S
N333 C330 1.368 . S
N333 C334 1.321 . S
N333 Co336 2.135 . S
C334 N332 1.340 . S
C334 N333 1.321 . S
C334 H358 0.930 . S
H335 C330 0.931 . S
Co336 N333 2.135 . S
Co336 N339 2.121 . S
Co336 O344 2.055 . S
Co336 O347 2.039 . S
Co336 N350 2.140 . S
C337 O338 1.227 . S
C337 O347 1.265 . S
O338 C337 1.227 . S
N339 Co336 2.121 . S
N339 C341 1.375 . S
N339 C342 1.313 . S
C340 C341 1.338 . S
C340 N343 1.377 . S
C340 H360 0.930 . S
C341 N339 1.375 . S
C341 C340 1.338 . S
C341 H345 0.931 . S
C342 N339 1.313 . S
C342 N343 1.344 . S
C342 H346 0.930 . S
N343 C340 1.377 . S
N343 C342 1.344 . S
O344 Co336 2.055 . S
O344 C348 1.253 . S
H345 C341 0.931 . S
H346 C342 0.930 . S
O347 Co336 2.039 . S
O347 C337 1.265 . S
C348 O344 1.253 . S
C348 O349 1.227 . S
O349 C348 1.227 . S
N350 Co336 2.140 . S
N350 C353 1.346 . S
N350 C354 1.345 . S
C351 C352 1.387 . S
C351 C355 1.391 . S
C352 C351 1.387 . S
C352 C353 1.369 . S
C352 H361 0.929 . S
C353 N350 1.346 . S
C353 C352 1.369 . S
C353 H356 0.928 . S
C354 N350 1.345 . S
C354 C355 1.371 . S
C354 H357 0.931 . S
C355 C351 1.391 . S
C355 C354 1.371 . S
C355 H362 0.930 . S
H356 C353 0.928 . S
H357 C354 0.931 . S
H358 C334 0.930 . S
H359 C331 0.930 . S
H360 C340 0.930 . S
H361 C352 0.929 . S
H362 C355 0.930 . S
C363 C364 1.351 . S
C363 N366 1.368 . S
C363 H368 0.931 . S
C364 C363 1.351 . S
C364 N365 1.373 . S
C364 H392 0.930 . S
N365 C364 1.373 . S
N365 C367 1.340 . S
N366 C363 1.368 . S
N366 C367 1.321 . S
N366 Co369 2.135 . S
C367 N365 1.340 . S
C367 N366 1.321 . S
C367 H391 0.930 . S
H368 C363 0.931 . S
Co369 N366 2.135 . S
Co369 N372 2.121 . S
Co369 O377 2.055 . S
Co369 O380 2.039 . S
Co369 N383 2.140 . S
C370 O371 1.227 . S
C370 O380 1.265 . S
O371 C370 1.227 . S
N372 Co369 2.121 . S
N372 C374 1.375 . S
N372 C375 1.313 . S
C373 C374 1.338 . S
C373 N376 1.377 . S
C373 H393 0.930 . S
C374 N372 1.375 . S
C374 C373 1.338 . S
C374 H378 0.931 . S
C375 N372 1.313 . S
C375 N376 1.344 . S
C375 H379 0.930 . S
N376 C373 1.377 . S
N376 C375 1.344 . S
O377 Co369 2.055 . S
O377 C381 1.253 . S
H378 C374 0.931 . S
H379 C375 0.930 . S
O380 Co369 2.039 . S
O380 C370 1.265 . S
C381 O377 1.253 . S
C381 O382 1.227 . S
O382 C381 1.227 . S
N383 Co369 2.140 . S
N383 C386 1.346 . S
N383 C387 1.345 . S
C384 C385 1.387 . S
C384 C388 1.391 . S
C385 C384 1.387 . S
C385 C386 1.369 . S
C385 H394 0.929 . S
C386 N383 1.346 . S
C386 C385 1.369 . S
C386 H389 0.928 . S
C387 N383 1.345 . S
C387 C388 1.371 . S
C387 H390 0.931 . S
C388 C384 1.391 . S
C388 C387 1.371 . S
C388 H395 0.930 . S
H389 C386 0.928 . S
H390 C387 0.931 . S
H391 C367 0.930 . S
H392 C364 0.930 . S
H393 C373 0.930 . S
H394 C385 0.929 . S
H395 C388 0.930 . S
C396 C397 1.391 . S
C396 C398 1.394 . S
C396 H412 0.931 . S
C397 C396 1.391 . S
C397 C401 1.376 . S
C398 C396 1.394 . S
C398 C399 1.369 . S
C398 C402 1.531 . S
C399 C398 1.369 . S
C399 C400 1.410 . S
C399 C407 1.503 . S
C400 C399 1.410 . S
C400 C401 1.392 . S
C400 C403 1.511 . S
C401 C397 1.376 . S
C401 C400 1.392 . S
C401 H413 0.929 . S
C402 C398 1.531 . S
C402 H414 0.960 . S
C402 H415 0.962 . S
C402 H416 0.960 . S
C403 C400 1.511 . S
C403 H417 0.961 . S
C403 H418 0.961 . S
C403 H419 0.961 . S
C404 C405 1.370 . S
C404 C406 1.363 . S
C404 H420 0.931 . S
C405 C404 1.370 . S
C405 C409 1.408 . S
C406 C404 1.363 . S
C406 C407 1.370 . S
C406 C410 1.524 . S
C407 C399 1.503 . S
C407 C406 1.370 . S
C407 C408 1.403 . S
C408 C407 1.403 . S
C408 C409 1.404 . S
C408 C411 1.539 . S
C409 C405 1.408 . S
C409 C408 1.404 . S
C409 H421 0.930 . S
C410 C406 1.524 . S
C410 H422 0.956 . S
C410 H423 0.961 . S
C410 H424 0.961 . S
C411 C408 1.539 . S
C411 H425 0.958 . S
C411 H426 0.961 . S
C411 H427 0.960 . S
H412 C396 0.931 . S
H413 C401 0.929 . S
H414 C402 0.960 . S
H415 C402 0.962 . S
H416 C402 0.960 . S
H417 C403 0.961 . S
H418 C403 0.961 . S
H419 C403 0.961 . S
H420 C404 0.931 . S
H421 C409 0.930 . S
H422 C410 0.956 . S
H423 C410 0.961 . S
H424 C410 0.961 . S
H425 C411 0.958 . S
H426 C411 0.961 . S
H427 C411 0.960 . S
C428 C429 1.391 . S
C428 C430 1.394 . S
C428 H444 0.931 . S
C429 C428 1.391 . S
C429 C433 1.376 . S
C430 C428 1.394 . S
C430 C431 1.369 . S
C430 C434 1.531 . S
C431 C430 1.369 . S
C431 C432 1.410 . S
C431 C439 1.503 1_655 S
C432 C431 1.410 . S
C432 C433 1.392 . S
C432 C435 1.511 . S
C433 C429 1.376 . S
C433 C432 1.392 . S
C433 H445 0.929 . S
C434 C430 1.531 . S
C434 H446 0.960 1_655 S
C434 H447 0.962 . S
C434 H448 0.960 . S
C435 C432 1.511 . S
C435 H449 0.961 . S
C435 H450 0.961 1_655 S
C435 H451 0.961 . S
C436 C437 1.370 . S
C436 C438 1.363 . S
C436 H452 0.931 . S
C437 C436 1.370 . S
C437 C441 1.408 . S
C438 C436 1.363 . S
C438 C439 1.370 . S
C438 C442 1.524 . S
C439 C431 1.503 1_455 S
C439 C438 1.370 . S
C439 C440 1.403 . S
C440 C439 1.403 . S
C440 C441 1.404 . S
C440 C443 1.539 . S
C441 C437 1.408 . S
C441 C440 1.404 . S
C441 H453 0.930 . S
C442 C438 1.524 . S
C442 H454 0.956 . S
C442 H455 0.961 1_455 S
C442 H456 0.961 . S
C443 C440 1.539 . S
C443 H457 0.958 . S
C443 H458 0.961 . S
C443 H459 0.971 . S
H444 C428 0.931 . S
H445 C433 0.929 . S
H446 C434 0.960 1_455 S
H447 C434 0.962 . S
H448 C434 0.960 . S
H449 C435 0.961 . S
H450 C435 0.961 1_455 S
H451 C435 0.961 . S
H452 C436 0.931 . S
H453 C441 0.930 . S
H454 C442 0.956 . S
H455 C442 0.961 1_655 S
H456 C442 0.961 . S
H457 C443 0.958 . S
H458 C443 0.961 . S
H459 C443 0.971 . S
C460 C461 1.391 . S
C460 C462 1.394 . S
C460 H476 0.931 . S
C461 C460 1.391 . S
C461 C465 1.376 . S
C462 C460 1.394 . S
C462 C463 1.369 . S
C462 C466 1.531 . S
C463 C462 1.369 . S
C463 C464 1.410 . S
C463 C471 1.503 1_545 S
C464 C463 1.410 . S
C464 C465 1.392 . S
C464 C467 1.511 . S
C465 C461 1.376 . S
C465 C464 1.392 . S
C465 H477 0.929 . S
C466 C462 1.531 . S
C466 H478 0.960 1_545 S
C466 H479 0.962 . S
C466 H480 0.960 . S
C467 C464 1.511 . S
C467 H481 0.961 . S
C467 H482 0.961 1_545 S
C467 H483 0.961 . S
C468 C469 1.370 . S
C468 C470 1.363 . S
C468 H484 0.931 . S
C469 C468 1.370 . S
C469 C473 1.408 . S
C470 C468 1.363 . S
C470 C471 1.370 . S
C470 C474 1.524 . S
C471 C463 1.503 1_565 S
C471 C470 1.370 . S
C471 C472 1.403 . S
C472 C471 1.403 . S
C472 C473 1.404 . S
C472 C475 1.539 . S
C473 C469 1.408 . S
C473 C472 1.404 . S
C473 H485 0.930 . S
C474 C470 1.524 . S
C474 H486 0.956 . S
C474 H487 0.961 1_565 S
C474 H488 0.961 . S
C475 C472 1.539 . S
C475 H489 0.958 . S
C475 H490 0.961 . S
C475 H491 0.963 . S
H476 C460 0.931 . S
H477 C465 0.929 . S
H478 C466 0.960 1_565 S
H479 C466 0.962 . S
H480 C466 0.960 . S
H481 C467 0.961 . S
H482 C467 0.961 1_565 S
H483 C467 0.961 . S
H484 C468 0.931 . S
H485 C473 0.930 . S
H486 C474 0.956 . S
H487 C474 0.961 1_545 S
H488 C474 0.961 . S
H489 C475 0.958 . S
H490 C475 0.961 . S
H491 C475 0.963 . S
C492 C493 1.391 . S
C492 C494 1.394 . S
C492 H508 0.931 . S
C493 C492 1.391 . S
C493 C497 1.376 . S
C494 C492 1.394 . S
C494 C495 1.369 . S
C494 C498 1.531 . S
C495 C494 1.369 . S
C495 C496 1.410 . S
C495 C503 1.503 . S
C496 C495 1.410 . S
C496 C497 1.392 . S
C496 C499 1.511 . S
C497 C493 1.376 . S
C497 C496 1.392 . S
C497 H509 0.929 . S
C498 C494 1.531 . S
C498 H510 0.960 . S
C498 H511 0.962 . S
C498 H512 0.960 . S
C499 C496 1.511 . S
C499 H513 0.961 . S
C499 H514 0.961 . S
C499 H515 0.961 . S
C500 C501 1.370 . S
C500 C502 1.363 . S
C500 H516 0.931 . S
C501 C500 1.370 . S
C501 C505 1.408 . S
C502 C500 1.363 . S
C502 C503 1.370 . S
C502 C506 1.524 . S
C503 C495 1.503 . S
C503 C502 1.370 . S
C503 C504 1.403 . S
C504 C503 1.403 . S
C504 C505 1.404 . S
C504 C507 1.539 . S
C505 C501 1.408 . S
C505 C504 1.404 . S
C505 H517 0.930 . S
C506 C502 1.524 . S
C506 H518 0.956 . S
C506 H519 0.961 . S
C506 H520 0.961 . S
C507 C504 1.539 . S
C507 H521 0.958 . S
C507 H522 0.961 . S
C507 H523 0.960 . S
H508 C492 0.931 . S
H509 C497 0.929 . S
H510 C498 0.960 . S
H511 C498 0.962 . S
H512 C498 0.960 . S
H513 C499 0.961 . S
H514 C499 0.961 . S
H515 C499 0.961 . S
H516 C500 0.931 . S
H517 C505 0.930 . S
H518 C506 0.956 . S
H519 C506 0.961 . S
H520 C506 0.961 . S
H521 C507 0.958 . S
H522 C507 0.961 . S
H523 C507 0.960 . S
C524 C525 1.391 . S
C524 C526 1.394 . S
C524 H540 0.931 . S
C525 C524 1.391 . S
C525 C529 1.376 . S
C526 C524 1.394 . S
C526 C527 1.369 . S
C526 C530 1.531 . S
C527 C526 1.369 . S
C527 C528 1.410 . S
C527 C535 1.503 1_455 S
C528 C527 1.410 . S
C528 C529 1.392 . S
C528 C531 1.511 . S
C529 C525 1.376 . S
C529 C528 1.392 . S
C529 H541 0.929 . S
C530 C526 1.531 . S
C530 H542 0.960 1_455 S
C530 H543 0.962 . S
C530 H544 0.960 . S
C531 C528 1.511 . S
C531 H545 0.961 . S
C531 H546 0.961 1_455 S
C531 H547 0.961 . S
C532 C533 1.370 . S
C532 C534 1.363 . S
C532 H548 0.931 . S
C533 C532 1.370 . S
C533 C537 1.408 . S
C534 C532 1.363 . S
C534 C535 1.370 . S
C534 C538 1.524 . S
C535 C527 1.503 1_655 S
C535 C534 1.370 . S
C535 C536 1.403 . S
C536 C535 1.403 . S
C536 C537 1.404 . S
C536 C539 1.539 . S
C537 C533 1.408 . S
C537 C536 1.404 . S
C537 H549 0.930 . S
C538 C534 1.524 . S
C538 H550 0.959 . S
C538 H551 0.961 1_655 S
C538 H552 0.961 . S
C539 C536 1.539 . S
C539 H553 0.958 . S
C539 H554 0.961 . S
C539 H555 0.996 . S
H540 C524 0.931 . S
H541 C529 0.929 . S
H542 C530 0.960 1_655 S
H543 C530 0.962 . S
H544 C530 0.960 . S
H545 C531 0.961 . S
H546 C531 0.961 1_655 S
H547 C531 0.961 . S
H548 C532 0.931 . S
H549 C537 0.930 . S
H550 C538 0.959 . S
H551 C538 0.961 1_455 S
H552 C538 0.961 . S
H553 C539 0.958 . S
H554 C539 0.961 . S
H555 C539 0.996 . S
C556 C557 1.391 . S
C556 C558 1.394 . S
C556 H572 0.931 . S
C557 C556 1.391 . S
C557 C561 1.376 . S
C558 C556 1.394 . S
C558 C559 1.369 . S
C558 C562 1.531 . S
C559 C558 1.369 . S
C559 C560 1.410 . S
C559 C567 1.503 1_565 S
C560 C559 1.410 . S
C560 C561 1.392 . S
C560 C563 1.511 . S
C561 C557 1.376 . S
C561 C560 1.392 . S
C561 H573 0.929 . S
C562 C558 1.531 . S
C562 H574 0.960 1_565 S
C562 H575 0.962 . S
C562 H576 0.960 . S
C563 C560 1.511 . S
C563 H577 0.961 . S
C563 H578 0.961 1_565 S
C563 H579 0.961 . S
C564 C565 1.370 . S
C564 C566 1.363 . S
C564 H580 0.931 . S
C565 C564 1.370 . S
C565 C569 1.408 . S
C566 C564 1.363 . S
C566 C567 1.370 . S
C566 C570 1.524 . S
C567 C559 1.503 1_545 S
C567 C566 1.370 . S
C567 C568 1.403 . S
C568 C567 1.403 . S
C568 C569 1.404 . S
C568 C571 1.539 . S
C569 C565 1.408 . S
C569 C568 1.404 . S
C569 H581 0.930 . S
C570 C566 1.524 . S
C570 H582 0.956 . S
C570 H583 0.961 1_545 S
C570 H584 0.961 . S
C571 C568 1.539 . S
C571 H585 0.958 . S
C571 H586 0.961 . S
C571 H587 0.957 1_545 S
H572 C556 0.931 . S
H573 C561 0.929 . S
H574 C562 0.960 1_545 S
H575 C562 0.962 . S
H576 C562 0.960 . S
H577 C563 0.961 . S
H578 C563 0.961 1_545 S
H579 C563 0.961 . S
H580 C564 0.931 . S
H581 C569 0.930 . S
H582 C570 0.956 . S
H583 C570 0.961 1_565 S
H584 C570 0.961 . S
H585 C571 0.958 . S
H586 C571 0.961 . S
H587 C571 0.957 1_565 S
C588 C589 1.391 . S
C588 C590 1.394 . S
C588 H604 0.931 . S
C589 C588 1.391 . S
C589 C593 1.376 . S
C590 C588 1.394 . S
C590 C591 1.369 . S
C590 C594 1.531 . S
C591 C590 1.369 . S
C591 C592 1.410 . S
C591 C599 1.503 1_556 S
C592 C591 1.410 . S
C592 C593 1.392 . S
C592 C595 1.511 . S
C593 C589 1.376 . S
C593 C592 1.392 . S
C593 H605 0.929 . S
C594 C590 1.531 . S
C594 H606 0.960 1_556 S
C594 H607 0.962 . S
C594 H608 0.960 . S
C595 C592 1.511 . S
C595 H609 0.961 . S
C595 H610 0.983 . S
C595 H611 0.961 . S
C596 C597 1.370 . S
C596 C598 1.363 . S
C596 H612 0.931 . S
C597 C596 1.370 . S
C597 C601 1.408 . S
C598 C596 1.363 . S
C598 C599 1.370 . S
C598 C602 1.524 . S
C599 C591 1.503 1_554 S
C599 C598 1.370 . S
C599 C600 1.403 . S
C600 C599 1.403 . S
C600 C601 1.404 . S
C600 C603 1.539 . S
C601 C597 1.408 . S
C601 C600 1.404 . S
C601 H613 0.930 . S
C602 C598 1.524 . S
C602 H614 0.956 . S
C602 H615 0.963 . S
C602 H616 0.961 . S
C603 C600 1.539 . S
C603 H617 0.958 . S
C603 H618 0.961 . S
C603 H619 0.960 1_554 S
H604 C588 0.931 . S
H605 C593 0.929 . S
H606 C594 0.960 1_554 S
H607 C594 0.962 . S
H608 C594 0.960 . S
H609 C595 0.961 . S
H610 C595 0.983 . S
H611 C595 0.961 . S
H612 C596 0.931 . S
H613 C601 0.930 . S
H614 C602 0.956 . S
H615 C602 0.963 . S
H616 C602 0.961 . S
H617 C603 0.958 . S
H618 C603 0.961 . S
H619 C603 0.960 1_556 S
C620 C621 1.391 . S
C620 C622 1.394 . S
C620 H636 0.931 . S
C621 C620 1.391 . S
C621 C625 1.376 . S
C622 C620 1.394 . S
C622 C623 1.369 . S
C622 C626 1.531 . S
C623 C622 1.369 . S
C623 C624 1.410 . S
C623 C631 1.503 . S
C624 C623 1.410 . S
C624 C625 1.392 . S
C624 C627 1.511 . S
C625 C621 1.376 . S
C625 C624 1.392 . S
C625 H637 0.929 . S
C626 C622 1.531 . S
C626 H638 0.960 . S
C626 H639 0.962 . S
C626 H640 0.960 . S
C627 C624 1.511 . S
C627 H641 0.961 . S
C627 H642 0.961 . S
C627 H643 0.961 . S
C628 C629 1.370 . S
C628 C630 1.363 . S
C628 H644 0.931 . S
C629 C628 1.370 . S
C629 C633 1.408 . S
C630 C628 1.363 . S
C630 C631 1.370 . S
C630 C634 1.524 . S
C631 C623 1.503 . S
C631 C630 1.370 . S
C631 C632 1.403 . S
C632 C631 1.403 . S
C632 C633 1.404 . S
C632 C635 1.539 . S
C633 C629 1.408 . S
C633 C632 1.404 . S
C633 H645 0.930 . S
C634 C630 1.524 . S
C634 H646 0.956 . S
C634 H647 0.961 . S
C634 H648 0.961 . S
C635 C632 1.539 . S
C635 H649 0.958 . S
C635 H650 0.961 . S
C635 H651 0.960 . S
H636 C620 0.931 . S
H637 C625 0.929 . S
H638 C626 0.960 . S
H639 C626 0.962 . S
H640 C626 0.960 . S
H641 C627 0.961 . S
H642 C627 0.961 . S
H643 C627 0.961 . S
H644 C628 0.931 . S
H645 C633 0.930 . S
H646 C634 0.956 . S
H647 C634 0.961 . S
H648 C634 0.961 . S
H649 C635 0.958 . S
H650 C635 0.961 . S
H651 C635 0.960 . S
C652 C653 1.391 . S
C652 C654 1.394 . S
C652 H668 0.931 . S
C653 C652 1.391 . S
C653 C657 1.376 . S
C654 C652 1.394 . S
C654 C655 1.369 . S
C654 C658 1.531 . S
C655 C654 1.369 . S
C655 C656 1.410 . S
C655 C663 1.503 1_554 S
C656 C655 1.410 . S
C656 C657 1.392 . S
C656 C659 1.511 . S
C657 C653 1.376 . S
C657 C656 1.392 . S
C657 H669 0.929 . S
C658 C654 1.531 . S
C658 H670 0.960 1_554 S
C658 H671 0.962 . S
C658 H672 0.960 . S
C659 C656 1.511 . S
C659 H673 0.961 . S
C659 H674 0.961 1_554 S
C659 H675 0.961 . S
C660 C661 1.370 . S
C660 C662 1.363 . S
C660 H676 0.931 . S
C661 C660 1.370 . S
C661 C665 1.408 . S
C662 C660 1.363 . S
C662 C663 1.370 . S
C662 C666 1.524 . S
C663 C655 1.503 1_556 S
C663 C662 1.370 . S
C663 C664 1.403 . S
C664 C663 1.403 . S
C664 C665 1.404 . S
C664 C667 1.539 . S
C665 C661 1.408 . S
C665 C664 1.404 . S
C665 H677 0.930 . S
C666 C662 1.524 . S
C666 H678 0.956 . S
C666 H679 0.961 . S
C666 H680 0.961 . S
C667 C664 1.539 . S
C667 H681 0.958 . S
C667 H682 0.961 . S
C667 H683 0.960 1_556 S
H668 C652 0.931 . S
H669 C657 0.929 . S
H670 C658 0.960 1_556 S
H671 C658 0.962 . S
H672 C658 0.960 . S
H673 C659 0.961 . S
H674 C659 0.961 1_556 S
H675 C659 0.961 . S
H676 C660 0.931 . S
H677 C665 0.930 . S
H678 C666 0.956 . S
H679 C666 0.961 . S
H680 C666 0.961 . S
H681 C667 0.958 . S
H682 C667 0.961 . S
H683 C667 0.960 1_554 S
C684 C685 1.391 . S
C684 C686 1.394 . S
C684 H700 0.931 . S
C685 C684 1.391 . S
C685 C689 1.376 . S
C686 C684 1.394 . S
C686 C687 1.369 . S
C686 C690 1.531 . S
C687 C686 1.369 . S
C687 C688 1.410 . S
C687 C695 1.503 . S
C688 C687 1.410 . S
C688 C689 1.392 . S
C688 C691 1.511 . S
C689 C685 1.376 . S
C689 C688 1.392 . S
C689 H701 0.929 . S
C690 C686 1.531 . S
C690 H702 0.960 . S
C690 H703 0.962 . S
C690 H704 0.960 . S
C691 C688 1.511 . S
C691 H705 0.961 . S
C691 H706 0.961 . S
C691 H707 0.961 . S
C692 C693 1.370 . S
C692 C694 1.363 . S
C692 H708 0.931 . S
C693 C692 1.370 . S
C693 C697 1.408 . S
C694 C692 1.363 . S
C694 C695 1.370 . S
C694 C698 1.524 . S
C695 C687 1.503 . S
C695 C694 1.370 . S
C695 C696 1.403 . S
C696 C695 1.403 . S
C696 C697 1.404 . S
C696 C699 1.539 . S
C697 C693 1.408 . S
C697 C696 1.404 . S
C697 H709 0.930 . S
C698 C694 1.524 . S
C698 H710 0.956 . S
C698 H711 0.961 . S
C698 H712 0.961 . S
C699 C696 1.539 . S
C699 H713 0.958 . S
C699 H714 0.961 . S
C699 H715 0.960 . S
H700 C684 0.931 . S
H701 C689 0.929 . S
H702 C690 0.960 . S
H703 C690 0.962 . S
H704 C690 0.960 . S
H705 C691 0.961 . S
H706 C691 0.961 . S
H707 C691 0.961 . S
H708 C692 0.931 . S
H709 C697 0.930 . S
H710 C698 0.956 . S
H711 C698 0.961 . S
H712 C698 0.961 . S
H713 C699 0.958 . S
H714 C699 0.961 . S
H715 C699 0.960 . S
C716 C717 1.391 . S
C716 C718 1.394 . S
C716 H732 0.931 . S
C717 C716 1.391 . S
C717 C721 1.376 . S
C718 C716 1.394 . S
C718 C719 1.369 . S
C718 C722 1.531 . S
C719 C718 1.369 . S
C719 C720 1.410 . S
C719 C727 1.503 1_556 S
C720 C719 1.410 . S
C720 C721 1.392 . S
C720 C723 1.511 . S
C721 C717 1.376 . S
C721 C720 1.392 . S
C721 H733 0.929 . S
C722 C718 1.531 . S
C722 H734 0.960 1_556 S
C722 H735 0.962 . S
C722 H736 0.960 . S
C723 C720 1.511 . S
C723 H737 0.961 . S
C723 H738 0.961 1_556 S
C723 H739 0.961 . S
C724 C725 1.370 . S
C724 C726 1.363 . S
C724 H740 0.931 . S
C725 C724 1.370 . S
C725 C729 1.408 . S
C726 C724 1.363 . S
C726 C727 1.370 . S
C726 C730 1.524 . S
C727 C719 1.503 1_554 S
C727 C726 1.370 . S
C727 C728 1.403 . S
C728 C727 1.403 . S
C728 C729 1.404 . S
C728 C731 1.539 . S
C729 C725 1.408 . S
C729 C728 1.404 . S
C729 H741 0.930 . S
C730 C726 1.524 . S
C730 H742 0.956 . S
C730 H743 0.961 . S
C730 H744 0.961 . S
C731 C728 1.539 . S
C731 H745 0.958 . S
C731 H746 0.961 . S
C731 H747 0.960 1_554 S
H732 C716 0.931 . S
H733 C721 0.929 . S
H734 C722 0.960 1_554 S
H735 C722 0.962 . S
H736 C722 0.960 . S
H737 C723 0.961 . S
H738 C723 0.961 1_554 S
H739 C723 0.961 . S
H740 C724 0.931 . S
H741 C729 0.930 . S
H742 C730 0.956 . S
H743 C730 0.961 . S
H744 C730 0.961 . S
H745 C731 0.958 . S
H746 C731 0.961 . S
H747 C731 0.960 1_556 S
C748 C749 1.391 . S
C748 C750 1.394 . S
C748 H764 0.931 . S
C749 C748 1.391 . S
C749 C753 1.376 . S
C750 C748 1.394 . S
C750 C751 1.369 . S
C750 C754 1.531 . S
C751 C750 1.369 . S
C751 C752 1.410 . S
C751 C759 1.503 . S
C752 C751 1.410 . S
C752 C753 1.392 . S
C752 C755 1.511 . S
C753 C749 1.376 . S
C753 C752 1.392 . S
C753 H765 0.929 . S
C754 C750 1.531 . S
C754 H766 0.960 . S
C754 H767 0.962 . S
C754 H768 0.960 . S
C755 C752 1.511 . S
C755 H769 0.961 . S
C755 H770 0.961 . S
C755 H771 0.961 . S
C756 C757 1.370 . S
C756 C758 1.363 . S
C756 H772 0.931 . S
C757 C756 1.370 . S
C757 C761 1.408 . S
C758 C756 1.363 . S
C758 C759 1.370 . S
C758 C762 1.524 . S
C759 C751 1.503 . S
C759 C758 1.370 . S
C759 C760 1.403 . S
C760 C759 1.403 . S
C760 C761 1.404 . S
C760 C763 1.539 . S
C761 C757 1.408 . S
C761 C760 1.404 . S
C761 H773 0.930 . S
C762 C758 1.524 . S
C762 H774 0.956 . S
C762 H775 0.961 . S
C762 H776 0.961 . S
C763 C760 1.539 . S
C763 H777 0.958 . S
C763 H778 0.961 . S
C763 H779 0.960 . S
H764 C748 0.931 . S
H765 C753 0.929 . S
H766 C754 0.960 . S
H767 C754 0.962 . S
H768 C754 0.960 . S
H769 C755 0.961 . S
H770 C755 0.961 . S
H771 C755 0.961 . S
H772 C756 0.931 . S
H773 C761 0.930 . S
H774 C762 0.956 . S
H775 C762 0.961 . S
H776 C762 0.961 . S
H777 C763 0.958 . S
H778 C763 0.961 . S
H779 C763 0.960 . S
C780 C781 1.391 . S
C780 C782 1.394 . S
C780 H796 0.931 . S
C781 C780 1.391 . S
C781 C785 1.376 . S
C782 C780 1.394 . S
C782 C783 1.369 . S
C782 C786 1.531 . S
C783 C782 1.369 . S
C783 C784 1.410 . S
C783 C791 1.503 1_554 S
C784 C783 1.410 . S
C784 C785 1.392 . S
C784 C787 1.511 . S
C785 C781 1.376 . S
C785 C784 1.392 . S
C785 H797 0.929 . S
C786 C782 1.531 . S
C786 H798 0.960 1_554 S
C786 H799 0.962 . S
C786 H800 0.960 . S
C787 C784 1.511 . S
C787 H801 0.961 . S
C787 H802 0.961 1_554 S
C787 H803 0.961 . S
C788 C789 1.370 . S
C788 C790 1.363 . S
C788 H804 0.931 . S
C789 C788 1.370 . S
C789 C793 1.408 . S
C790 C788 1.363 . S
C790 C791 1.370 . S
C790 C794 1.524 . S
C791 C783 1.503 1_556 S
C791 C790 1.370 . S
C791 C792 1.403 . S
C792 C791 1.403 . S
C792 C793 1.404 . S
C792 C795 1.539 . S
C793 C789 1.408 . S
C793 C792 1.404 . S
C793 H805 0.930 . S
C794 C790 1.524 . S
C794 H806 0.956 . S
C794 H807 0.961 1_556 S
C794 H808 0.961 . S
C795 C792 1.539 . S
C795 H809 0.958 . S
C795 H810 0.961 . S
C795 H811 0.970 . S
H796 C780 0.931 . S
H797 C785 0.929 . S
H798 C786 0.960 1_556 S
H799 C786 0.962 . S
H800 C786 0.960 . S
H801 C787 0.961 . S
H802 C787 0.961 1_556 S
H803 C787 0.961 . S
H804 C788 0.931 . S
H805 C793 0.930 . S
H806 C794 0.956 . S
H807 C794 0.961 1_554 S
H808 C794 0.961 . S
H809 C795 0.958 . S
H810 C795 0.961 . S
H811 C795 0.970 . S
C812 C813 1.391 . S
C812 C814 1.394 . S
C812 H828 0.931 . S
C813 C812 1.391 . S
C813 C817 1.376 . S
C814 C812 1.394 . S
C814 C815 1.369 . S
C814 C818 1.531 . S
C815 C814 1.369 . S
C815 C816 1.410 . S
C815 C823 1.503 . S
C816 C815 1.410 . S
C816 C817 1.392 . S
C816 C819 1.511 . S
C817 C813 1.376 . S
C817 C816 1.392 . S
C817 H829 0.929 . S
C818 C814 1.531 . S
C818 H830 0.960 . S
C818 H831 0.962 . S
C818 H832 0.960 . S
C819 C816 1.511 . S
C819 H833 0.961 . S
C819 H834 0.961 . S
C819 H835 0.961 . S
C820 C821 1.370 . S
C820 C822 1.363 . S
C820 H836 0.931 . S
C821 C820 1.370 . S
C821 C825 1.408 . S
C822 C820 1.363 . S
C822 C823 1.370 . S
C822 C826 1.524 . S
C823 C815 1.503 . S
C823 C822 1.370 . S
C823 C824 1.403 . S
C824 C823 1.403 . S
C824 C825 1.404 . S
C824 C827 1.539 . S
C825 C821 1.408 . S
C825 C824 1.404 . S
C825 H837 0.930 . S
C826 C822 1.524 . S
C826 H838 0.956 . S
C826 H839 0.961 . S
C826 H840 0.961 . S
C827 C824 1.539 . S
C827 H841 0.958 . S
C827 H842 0.961 . S
C827 H843 0.960 . S
H828 C812 0.931 . S
H829 C817 0.929 . S
H830 C818 0.960 . S
H831 C818 0.962 . S
H832 C818 0.960 . S
H833 C819 0.961 . S
H834 C819 0.961 . S
H835 C819 0.961 . S
H836 C820 0.931 . S
H837 C825 0.930 . S
H838 C826 0.956 . S
H839 C826 0.961 . S
H840 C826 0.961 . S
H841 C827 0.958 . S
H842 C827 0.961 . S
H843 C827 0.960 . S
C844 C845 1.391 . S
C844 C846 1.394 . S
C844 H860 0.931 . S
C845 C844 1.391 . S
C845 C849 1.376 . S
C846 C844 1.394 . S
C846 C847 1.369 . S
C846 C850 1.531 . S
C847 C846 1.369 . S
C847 C848 1.410 . S
C847 C855 1.503 1_556 S
C848 C847 1.410 . S
C848 C849 1.392 . S
C848 C851 1.511 . S
C849 C845 1.376 . S
C849 C848 1.392 . S
C849 H861 0.929 . S
C850 C846 1.531 . S
C850 H862 0.960 1_556 S
C850 H863 0.962 . S
C850 H864 0.960 . S
C851 C848 1.511 . S
C851 H865 0.961 . S
C851 H866 0.961 1_556 S
C851 H867 0.961 . S
C852 C853 1.370 . S
C852 C854 1.363 . S
C852 H868 0.931 . S
C853 C852 1.370 . S
C853 C857 1.408 . S
C854 C852 1.363 . S
C854 C855 1.370 . S
C854 C858 1.524 . S
C855 C847 1.503 1_554 S
C855 C854 1.370 . S
C855 C856 1.403 . S
C856 C855 1.403 . S
C856 C857 1.404 . S
C856 C859 1.539 . S
C857 C853 1.408 . S
C857 C856 1.404 . S
C857 H869 0.930 . S
C858 C854 1.524 . S
C858 H870 0.956 . S
C858 H871 0.961 1_554 S
C858 H872 0.961 . S
C859 C856 1.539 . S
C859 H873 0.958 . S
C859 H874 0.961 . S
C859 H875 0.970 . S
H860 C844 0.931 . S
H861 C849 0.929 . S
H862 C850 0.960 1_554 S
H863 C850 0.962 . S
H864 C850 0.960 . S
H865 C851 0.961 . S
H866 C851 0.961 1_554 S
H867 C851 0.961 . S
H868 C852 0.931 . S
H869 C857 0.930 . S
H870 C858 0.956 . S
H871 C858 0.961 1_556 S
H872 C858 0.961 . S
H873 C859 0.958 . S
H874 C859 0.961 . S
H875 C859 0.970 . S
C876 C877 1.391 . S
C876 C878 1.394 . S
C876 H892 0.931 . S
C877 C876 1.391 . S
C877 C881 1.376 . S
C878 C876 1.394 . S
C878 C879 1.369 . S
C878 C882 1.531 . S
C879 C878 1.369 . S
C879 C880 1.410 . S
C879 C887 1.503 . S
C880 C879 1.410 . S
C880 C881 1.392 . S
C880 C883 1.511 . S
C881 C877 1.376 . S
C881 C880 1.392 . S
C881 H893 0.929 . S
C882 C878 1.531 . S
C882 H894 0.960 . S
C882 H895 0.962 . S
C882 H896 0.960 . S
C883 C880 1.511 . S
C883 H897 0.961 . S
C883 H898 0.961 . S
C883 H899 0.961 . S
C884 C885 1.370 . S
C884 C886 1.363 . S
C884 H900 0.931 . S
C885 C884 1.370 . S
C885 C889 1.408 . S
C886 C884 1.363 . S
C886 C887 1.370 . S
C886 C890 1.524 . S
C887 C879 1.503 . S
C887 C886 1.370 . S
C887 C888 1.403 . S
C888 C887 1.403 . S
C888 C889 1.404 . S
C888 C891 1.539 . S
C889 C885 1.408 . S
C889 C888 1.404 . S
C889 H901 0.930 . S
C890 C886 1.524 . S
C890 H902 0.956 . S
C890 H903 0.961 . S
C890 H904 0.961 . S
C891 C888 1.539 . S
C891 H905 0.958 . S
C891 H906 0.961 . S
C891 H907 0.960 . S
H892 C876 0.931 . S
H893 C881 0.929 . S
H894 C882 0.960 . S
H895 C882 0.962 . S
H896 C882 0.960 . S
H897 C883 0.961 . S
H898 C883 0.961 . S
H899 C883 0.961 . S
H900 C884 0.931 . S
H901 C889 0.930 . S
H902 C890 0.956 . S
H903 C890 0.961 . S
H904 C890 0.961 . S
H905 C891 0.958 . S
H906 C891 0.961 . S
H907 C891 0.960 . S
C908 C909 1.391 . S
C908 C910 1.394 . S
C908 H924 0.931 . S
C909 C908 1.391 . S
C909 C913 1.376 . S
C910 C908 1.394 . S
C910 C911 1.369 . S
C910 C914 1.531 . S
C911 C910 1.369 . S
C911 C912 1.410 . S
C911 C919 1.503 1_556 S
C912 C911 1.410 . S
C912 C913 1.392 . S
C912 C915 1.511 . S
C913 C909 1.376 . S
C913 C912 1.392 . S
C913 H925 0.929 . S
C914 C910 1.531 . S
C914 H926 0.960 1_556 S
C914 H927 0.962 . S
C914 H928 0.960 . S
C915 C912 1.511 . S
C915 H929 0.961 . S
C915 H930 0.961 1_556 S
C915 H931 0.961 . S
C916 C917 1.370 . S
C916 C918 1.363 . S
C916 H932 0.931 . S
C917 C916 1.370 . S
C917 C921 1.408 . S
C918 C916 1.363 . S
C918 C919 1.370 . S
C918 C922 1.524 . S
C919 C911 1.503 1_554 S
C919 C918 1.370 . S
C919 C920 1.403 . S
C920 C919 1.403 . S
C920 C921 1.404 . S
C920 C923 1.539 . S
C921 C917 1.408 . S
C921 C920 1.404 . S
C921 H933 0.930 . S
C922 C918 1.524 . S
C922 H934 0.956 . S
C922 H935 0.961 1_554 S
C922 H936 0.961 . S
C923 C920 1.539 . S
C923 H937 0.958 . S
C923 H938 0.961 . S
C923 H939 0.972 . S
H924 C908 0.931 . S
H925 C913 0.929 . S
H926 C914 0.960 1_554 S
H927 C914 0.962 . S
H928 C914 0.960 . S
H929 C915 0.961 . S
H930 C915 0.961 1_554 S
H931 C915 0.961 . S
H932 C916 0.931 . S
H933 C921 0.930 . S
H934 C922 0.956 . S
H935 C922 0.961 1_556 S
H936 C922 0.961 . S
H937 C923 0.958 . S
H938 C923 0.961 . S
H939 C923 0.972 . S
C940 C941 1.391 . S
C940 C942 1.394 . S
C940 H956 0.931 . S
C941 C940 1.391 . S
C941 C945 1.376 . S
C942 C940 1.394 . S
C942 C943 1.369 . S
C942 C946 1.531 . S
C943 C942 1.369 . S
C943 C944 1.410 . S
C943 C951 1.503 . S
C944 C943 1.410 . S
C944 C945 1.392 . S
C944 C947 1.511 . S
C945 C941 1.376 . S
C945 C944 1.392 . S
C945 H957 0.929 . S
C946 C942 1.531 . S
C946 H958 0.960 . S
C946 H959 0.962 . S
C946 H960 0.960 . S
C947 C944 1.511 . S
C947 H961 0.961 . S
C947 H962 0.961 . S
C947 H963 0.961 . S
C948 C949 1.370 . S
C948 C950 1.363 . S
C948 H964 0.931 . S
C949 C948 1.370 . S
C949 C953 1.408 . S
C950 C948 1.363 . S
C950 C951 1.370 . S
C950 C954 1.524 . S
C951 C943 1.503 . S
C951 C950 1.370 . S
C951 C952 1.403 . S
C952 C951 1.403 . S
C952 C953 1.404 . S
C952 C955 1.539 . S
C953 C949 1.408 . S
C953 C952 1.404 . S
C953 H965 0.930 . S
C954 C950 1.524 . S
C954 H966 0.956 . S
C954 H967 0.961 . S
C954 H968 0.961 . S
C955 C952 1.539 . S
C955 H969 0.958 . S
C955 H970 0.961 . S
C955 H971 0.960 . S
H956 C940 0.931 . S
H957 C945 0.929 . S
H958 C946 0.960 . S
H959 C946 0.962 . S
H960 C946 0.960 . S
H961 C947 0.961 . S
H962 C947 0.961 . S
H963 C947 0.961 . S
H964 C948 0.931 . S
H965 C953 0.930 . S
H966 C954 0.956 . S
H967 C954 0.961 . S
H968 C954 0.961 . S
H969 C955 0.958 . S
H970 C955 0.961 . S
H971 C955 0.960 . S
C972 C973 1.391 . S
C972 C974 1.394 . S
C972 H988 0.931 . S
C973 C972 1.391 . S
C973 C977 1.376 . S
C974 C972 1.394 . S
C974 C975 1.369 . S
C974 C978 1.531 . S
C975 C974 1.369 . S
C975 C976 1.410 . S
C975 C983 1.503 . S
C976 C975 1.410 . S
C976 C977 1.392 . S
C976 C979 1.511 . S
C977 C973 1.376 . S
C977 C976 1.392 . S
C977 H989 0.929 . S
C978 C974 1.531 . S
C978 H990 0.960 . S
C978 H991 0.962 . S
C978 H992 0.960 . S
C979 C976 1.511 . S
C979 H993 0.961 . S
C979 H994 0.961 . S
C979 H995 0.961 . S
C980 C981 1.370 . S
C980 C982 1.363 . S
C980 H996 0.931 . S
C981 C980 1.370 . S
C981 C985 1.408 . S
C982 C980 1.363 . S
C982 C983 1.370 . S
C982 C986 1.524 . S
C983 C975 1.503 . S
C983 C982 1.370 . S
C983 C984 1.403 . S
C984 C983 1.403 . S
C984 C985 1.404 . S
C984 C987 1.539 . S
C985 C981 1.408 . S
C985 C984 1.404 . S
C985 H997 0.930 . S
C986 C982 1.524 . S
C986 H998 0.956 . S
C986 H999 0.961 . S
C986 H1000 0.961 . S
C987 C984 1.539 . S
C987 H1001 0.958 . S
C987 H1002 0.961 . S
C987 H1003 0.960 . S
H988 C972 0.931 . S
H989 C977 0.929 . S
H990 C978 0.960 . S
H991 C978 0.962 . S
H992 C978 0.960 . S
H993 C979 0.961 . S
H994 C979 0.961 . S
H995 C979 0.961 . S
H996 C980 0.931 . S
H997 C985 0.930 . S
H998 C986 0.956 . S
H999 C986 0.961 . S
H1000 C986 0.961 . S
H1001 C987 0.958 . S
H1002 C987 0.961 . S
H1003 C987 0.960 . S
C1004 C1005 1.391 . S
C1004 C1006 1.394 . S
C1004 H1020 0.931 . S
C1005 C1004 1.391 . S
C1005 C1009 1.376 . S
C1006 C1004 1.394 . S
C1006 C1007 1.369 . S
C1006 C1010 1.531 . S
C1007 C1006 1.369 . S
C1007 C1008 1.410 . S
C1007 C1015 1.503 . S
C1008 C1007 1.410 . S
C1008 C1009 1.392 . S
C1008 C1011 1.511 . S
C1009 C1005 1.376 . S
C1009 C1008 1.392 . S
C1009 H1021 0.929 . S
C1010 C1006 1.531 . S
C1010 H1022 0.960 . S
C1010 H1023 0.962 . S
C1010 H1024 0.960 . S
C1011 C1008 1.511 . S
C1011 H1025 0.961 . S
C1011 H1026 0.961 . S
C1011 H1027 0.961 . S
C1012 C1013 1.370 . S
C1012 C1014 1.363 . S
C1012 H1028 0.931 . S
C1013 C1012 1.370 . S
C1013 C1017 1.408 . S
C1014 C1012 1.363 . S
C1014 C1015 1.370 . S
C1014 C1018 1.524 . S
C1015 C1007 1.503 . S
C1015 C1014 1.370 . S
C1015 C1016 1.403 . S
C1016 C1015 1.403 . S
C1016 C1017 1.404 . S
C1016 C1019 1.539 . S
C1017 C1013 1.408 . S
C1017 C1016 1.404 . S
C1017 H1029 0.930 . S
C1018 C1014 1.524 . S
C1018 H1030 0.956 . S
C1018 H1031 0.961 . S
C1018 H1032 0.961 . S
C1019 C1016 1.539 . S
C1019 H1033 0.958 . S
C1019 H1034 0.961 . S
C1019 H1035 0.960 . S
H1020 C1004 0.931 . S
H1021 C1009 0.929 . S
H1022 C1010 0.960 . S
H1023 C1010 0.962 . S
H1024 C1010 0.960 . S
H1025 C1011 0.961 . S
H1026 C1011 0.961 . S
H1027 C1011 0.961 . S
H1028 C1012 0.931 . S
H1029 C1017 0.930 . S
H1030 C1018 0.956 . S
H1031 C1018 0.961 . S
H1032 C1018 0.961 . S
H1033 C1019 0.958 . S
H1034 C1019 0.961 . S
H1035 C1019 0.960 . S
C1036 C1037 1.391 . S
C1036 C1038 1.394 . S
C1036 H1052 0.931 . S
C1037 C1036 1.391 . S
C1037 C1041 1.376 . S
C1038 C1036 1.394 . S
C1038 C1039 1.369 . S
C1038 C1042 1.531 . S
C1039 C1038 1.369 . S
C1039 C1040 1.410 . S
C1039 C1047 1.503 . S
C1040 C1039 1.410 . S
C1040 C1041 1.392 . S
C1040 C1043 1.511 . S
C1041 C1037 1.376 . S
C1041 C1040 1.392 . S
C1041 H1053 0.929 . S
C1042 C1038 1.531 . S
C1042 H1054 0.960 . S
C1042 H1055 0.962 . S
C1042 H1056 0.960 . S
C1043 C1040 1.511 . S
C1043 H1057 0.961 . S
C1043 H1058 0.961 . S
C1043 H1059 0.961 . S
C1044 C1045 1.370 . S
C1044 C1046 1.363 . S
C1044 H1060 0.931 . S
C1045 C1044 1.370 . S
C1045 C1049 1.408 . S
C1046 C1044 1.363 . S
C1046 C1047 1.370 . S
C1046 C1050 1.524 . S
C1047 C1039 1.503 . S
C1047 C1046 1.370 . S
C1047 C1048 1.403 . S
C1048 C1047 1.403 . S
C1048 C1049 1.404 . S
C1048 C1051 1.539 . S
C1049 C1045 1.408 . S
C1049 C1048 1.404 . S
C1049 H1061 0.930 . S
C1050 C1046 1.524 . S
C1050 H1062 0.956 . S
C1050 H1063 0.961 . S
C1050 H1064 0.961 . S
C1051 C1048 1.539 . S
C1051 H1065 0.958 . S
C1051 H1066 0.961 . S
C1051 H1067 0.960 . S
H1052 C1036 0.931 . S
H1053 C1041 0.929 . S
H1054 C1042 0.960 . S
H1055 C1042 0.962 . S
H1056 C1042 0.960 . S
H1057 C1043 0.961 . S
H1058 C1043 0.961 . S
H1059 C1043 0.961 . S
H1060 C1044 0.931 . S
H1061 C1049 0.930 . S
H1062 C1050 0.956 . S
H1063 C1050 0.961 . S
H1064 C1050 0.961 . S
H1065 C1051 0.958 . S
H1066 C1051 0.961 . S
H1067 C1051 0.960 . S
C1068 C1069 1.391 . S
C1068 C1070 1.394 . S
C1068 H1084 0.931 . S
C1069 C1068 1.391 . S
C1069 C1073 1.376 . S
C1070 C1068 1.394 . S
C1070 C1071 1.369 . S
C1070 C1074 1.531 . S
C1071 C1070 1.369 . S
C1071 C1072 1.410 . S
C1071 C1079 1.503 . S
C1072 C1071 1.410 . S
C1072 C1073 1.392 . S
C1072 C1075 1.511 . S
C1073 C1069 1.376 . S
C1073 C1072 1.392 . S
C1073 H1085 0.929 . S
C1074 C1070 1.531 . S
C1074 H1086 0.960 . S
C1074 H1087 0.962 . S
C1074 H1088 0.960 . S
C1075 C1072 1.511 . S
C1075 H1089 0.961 . S
C1075 H1090 0.961 . S
C1075 H1091 0.961 . S
C1076 C1077 1.370 . S
C1076 C1078 1.363 . S
C1076 H1092 0.931 . S
C1077 C1076 1.370 . S
C1077 C1081 1.408 . S
C1078 C1076 1.363 . S
C1078 C1079 1.370 . S
C1078 C1082 1.524 . S
C1079 C1071 1.503 . S
C1079 C1078 1.370 . S
C1079 C1080 1.403 . S
C1080 C1079 1.403 . S
C1080 C1081 1.404 . S
C1080 C1083 1.539 . S
C1081 C1077 1.408 . S
C1081 C1080 1.404 . S
C1081 H1093 0.930 . S
C1082 C1078 1.524 . S
C1082 H1094 0.956 . S
C1082 H1095 0.961 . S
C1082 H1096 0.961 . S
C1083 C1080 1.539 . S
C1083 H1097 0.958 . S
C1083 H1098 0.961 . S
C1083 H1099 0.960 . S
H1084 C1068 0.931 . S
H1085 C1073 0.929 . S
H1086 C1074 0.960 . S
H1087 C1074 0.962 . S
H1088 C1074 0.960 . S
H1089 C1075 0.961 . S
H1090 C1075 0.961 . S
H1091 C1075 0.961 . S
H1092 C1076 0.931 . S
H1093 C1081 0.930 . S
H1094 C1082 0.956 . S
H1095 C1082 0.961 . S
H1096 C1082 0.961 . S
H1097 C1083 0.958 . S
H1098 C1083 0.961 . S
H1099 C1083 0.960 . S
C1100 C1101 1.391 . S
C1100 C1102 1.394 . S
C1100 H1116 0.931 . S
C1101 C1100 1.391 . S
C1101 C1105 1.376 . S
C1102 C1100 1.394 . S
C1102 C1103 1.369 . S
C1102 C1106 1.531 . S
C1103 C1102 1.369 . S
C1103 C1104 1.410 . S
C1103 C1111 1.503 . S
C1104 C1103 1.410 . S
C1104 C1105 1.392 . S
C1104 C1107 1.511 . S
C1105 C1101 1.376 . S
C1105 C1104 1.392 . S
C1105 H1117 0.929 . S
C1106 C1102 1.531 . S
C1106 H1118 0.960 . S
C1106 H1119 0.962 . S
C1106 H1120 0.960 . S
C1107 C1104 1.511 . S
C1107 H1121 0.961 . S
C1107 H1122 0.961 . S
C1107 H1123 0.961 . S
C1108 C1109 1.370 . S
C1108 C1110 1.363 . S
C1108 H1124 0.931 . S
C1109 C1108 1.370 . S
C1109 C1113 1.408 . S
C1110 C1108 1.363 . S
C1110 C1111 1.370 . S
C1110 C1114 1.524 . S
C1111 C1103 1.503 . S
C1111 C1110 1.370 . S
C1111 C1112 1.403 . S
C1112 C1111 1.403 . S
C1112 C1113 1.404 . S
C1112 C1115 1.539 . S
C1113 C1109 1.408 . S
C1113 C1112 1.404 . S
C1113 H1125 0.930 . S
C1114 C1110 1.524 . S
C1114 H1126 0.956 . S
C1114 H1127 0.961 . S
C1114 H1128 0.961 . S
C1115 C1112 1.539 . S
C1115 H1129 0.958 . S
C1115 H1130 0.961 . S
C1115 H1131 0.960 . S
H1116 C1100 0.931 . S
H1117 C1105 0.929 . S
H1118 C1106 0.960 . S
H1119 C1106 0.962 . S
H1120 C1106 0.960 . S
H1121 C1107 0.961 . S
H1122 C1107 0.961 . S
H1123 C1107 0.961 . S
H1124 C1108 0.931 . S
H1125 C1113 0.930 . S
H1126 C1114 0.956 . S
H1127 C1114 0.961 . S
H1128 C1114 0.961 . S
H1129 C1115 0.958 . S
H1130 C1115 0.961 . S
H1131 C1115 0.960 . S
C1132 C1133 1.391 . S
C1132 C1134 1.394 . S
C1132 H1148 0.931 . S
C1133 C1132 1.391 . S
C1133 C1137 1.376 . S
C1134 C1132 1.394 . S
C1134 C1135 1.369 . S
C1134 C1138 1.531 . S
C1135 C1134 1.369 . S
C1135 C1136 1.410 . S
C1135 C1143 1.503 . S
C1136 C1135 1.410 . S
C1136 C1137 1.392 . S
C1136 C1139 1.511 . S
C1137 C1133 1.376 . S
C1137 C1136 1.392 . S
C1137 H1149 0.929 . S
C1138 C1134 1.531 . S
C1138 H1150 0.960 . S
C1138 H1151 0.962 . S
C1138 H1152 0.960 . S
C1139 C1136 1.511 . S
C1139 H1153 0.961 . S
C1139 H1154 0.961 . S
C1139 H1155 0.961 . S
C1140 C1141 1.370 . S
C1140 C1142 1.363 . S
C1140 H1156 0.931 . S
C1141 C1140 1.370 . S
C1141 C1145 1.408 . S
C1142 C1140 1.363 . S
C1142 C1143 1.370 . S
C1142 C1146 1.524 . S
C1143 C1135 1.503 . S
C1143 C1142 1.370 . S
C1143 C1144 1.403 . S
C1144 C1143 1.403 . S
C1144 C1145 1.404 . S
C1144 C1147 1.539 . S
C1145 C1141 1.408 . S
C1145 C1144 1.404 . S
C1145 H1157 0.930 . S
C1146 C1142 1.524 . S
C1146 H1158 0.956 . S
C1146 H1159 0.961 . S
C1146 H1160 0.961 . S
C1147 C1144 1.539 . S
C1147 H1161 0.958 . S
C1147 H1162 0.961 . S
C1147 H1163 0.960 . S
H1148 C1132 0.931 . S
H1149 C1137 0.929 . S
H1150 C1138 0.960 . S
H1151 C1138 0.962 . S
H1152 C1138 0.960 . S
H1153 C1139 0.961 . S
H1154 C1139 0.961 . S
H1155 C1139 0.961 . S
H1156 C1140 0.931 . S
H1157 C1145 0.930 . S
H1158 C1146 0.956 . S
H1159 C1146 0.961 . S
H1160 C1146 0.961 . S
H1161 C1147 0.958 . S
H1162 C1147 0.961 . S
H1163 C1147 0.960 . S
C1164 C1165 1.391 . S
C1164 C1166 1.394 . S
C1164 H1180 0.931 . S
C1165 C1164 1.391 . S
C1165 C1169 1.376 . S
C1166 C1164 1.394 . S
C1166 C1167 1.369 . S
C1166 C1170 1.531 . S
C1167 C1166 1.369 . S
C1167 C1168 1.410 . S
C1167 C1175 1.503 . S
C1168 C1167 1.410 . S
C1168 C1169 1.392 . S
C1168 C1171 1.511 . S
C1169 C1165 1.376 . S
C1169 C1168 1.392 . S
C1169 H1181 0.929 . S
C1170 C1166 1.531 . S
C1170 H1182 0.960 . S
C1170 H1183 0.962 . S
C1170 H1184 0.960 . S
C1171 C1168 1.511 . S
C1171 H1185 0.961 . S
C1171 H1186 0.961 . S
C1171 H1187 0.961 . S
C1172 C1173 1.370 . S
C1172 C1174 1.363 . S
C1172 H1188 0.931 . S
C1173 C1172 1.370 . S
C1173 C1177 1.408 . S
C1174 C1172 1.363 . S
C1174 C1175 1.370 . S
C1174 C1178 1.524 . S
C1175 C1167 1.503 . S
C1175 C1174 1.370 . S
C1175 C1176 1.403 . S
C1176 C1175 1.403 . S
C1176 C1177 1.404 . S
C1176 C1179 1.539 . S
C1177 C1173 1.408 . S
C1177 C1176 1.404 . S
C1177 H1189 0.930 . S
C1178 C1174 1.524 . S
C1178 H1190 0.956 . S
C1178 H1191 0.961 . S
C1178 H1192 0.961 . S
C1179 C1176 1.539 . S
C1179 H1193 0.958 . S
C1179 H1194 0.961 . S
C1179 H1195 0.960 . S
H1180 C1164 0.931 . S
H1181 C1169 0.929 . S
H1182 C1170 0.960 . S
H1183 C1170 0.962 . S
H1184 C1170 0.960 . S
H1185 C1171 0.961 . S
H1186 C1171 0.961 . S
H1187 C1171 0.961 . S
H1188 C1172 0.931 . S
H1189 C1177 0.930 . S
H1190 C1178 0.956 . S
H1191 C1178 0.961 . S
H1192 C1178 0.961 . S
H1193 C1179 0.958 . S
H1194 C1179 0.961 . S
H1195 C1179 0.960 . S
C1196 C1197 1.391 . S
C1196 C1198 1.394 . S
C1196 H1212 0.931 . S
C1197 C1196 1.391 . S
C1197 C1201 1.376 . S
C1198 C1196 1.394 . S
C1198 C1199 1.369 . S
C1198 C1202 1.531 . S
C1199 C1198 1.369 . S
C1199 C1200 1.410 . S
C1199 C1207 1.503 . S
C1200 C1199 1.410 . S
C1200 C1201 1.392 . S
C1200 C1203 1.511 . S
C1201 C1197 1.376 . S
C1201 C1200 1.392 . S
C1201 H1213 0.929 . S
C1202 C1198 1.531 . S
C1202 H1214 0.960 . S
C1202 H1215 0.962 . S
C1202 H1216 0.960 . S
C1203 C1200 1.511 . S
C1203 H1217 0.961 . S
C1203 H1218 0.961 . S
C1203 H1219 0.961 . S
C1204 C1205 1.370 . S
C1204 C1206 1.363 . S
C1204 H1220 0.931 . S
C1205 C1204 1.370 . S
C1205 C1209 1.408 . S
C1206 C1204 1.363 . S
C1206 C1207 1.370 . S
C1206 C1210 1.524 . S
C1207 C1199 1.503 . S
C1207 C1206 1.370 . S
C1207 C1208 1.403 . S
C1208 C1207 1.403 . S
C1208 C1209 1.404 . S
C1208 C1211 1.539 . S
C1209 C1205 1.408 . S
C1209 C1208 1.404 . S
C1209 H1221 0.930 . S
C1210 C1206 1.524 . S
C1210 H1222 0.956 . S
C1210 H1223 0.961 . S
C1210 H1224 0.961 . S
C1211 C1208 1.539 . S
C1211 H1225 0.958 . S
C1211 H1226 0.961 . S
C1211 H1227 0.960 . S
H1212 C1196 0.931 . S
H1213 C1201 0.929 . S
H1214 C1202 0.960 . S
H1215 C1202 0.962 . S
H1216 C1202 0.960 . S
H1217 C1203 0.961 . S
H1218 C1203 0.961 . S
H1219 C1203 0.961 . S
H1220 C1204 0.931 . S
H1221 C1209 0.930 . S
H1222 C1210 0.956 . S
H1223 C1210 0.961 . S
H1224 C1210 0.961 . S
H1225 C1211 0.958 . S
H1226 C1211 0.961 . S
H1227 C1211 0.960 . S
C1228 C1229 1.391 . S
C1228 C1230 1.394 . S
C1228 H1244 0.931 . S
C1229 C1228 1.391 . S
C1229 C1233 1.376 . S
C1230 C1228 1.394 . S
C1230 C1231 1.369 . S
C1230 C1234 1.531 . S
C1231 C1230 1.369 . S
C1231 C1232 1.410 . S
C1231 C1239 1.503 . S
C1232 C1231 1.410 . S
C1232 C1233 1.392 . S
C1232 C1235 1.511 . S
C1233 C1229 1.376 . S
C1233 C1232 1.392 . S
C1233 H1245 0.929 . S
C1234 C1230 1.531 . S
C1234 H1246 0.960 . S
C1234 H1247 0.962 . S
C1234 H1248 0.960 . S
C1235 C1232 1.511 . S
C1235 H1249 0.961 . S
C1235 H1250 0.961 . S
C1235 H1251 0.961 . S
C1236 C1237 1.370 . S
C1236 C1238 1.363 . S
C1236 H1252 0.931 . S
C1237 C1236 1.370 . S
C1237 C1241 1.408 . S
C1238 C1236 1.363 . S
C1238 C1239 1.370 . S
C1238 C1242 1.524 . S
C1239 C1231 1.503 . S
C1239 C1238 1.370 . S
C1239 C1240 1.403 . S
C1240 C1239 1.403 . S
C1240 C1241 1.404 . S
C1240 C1243 1.539 . S
C1241 C1237 1.408 . S
C1241 C1240 1.404 . S
C1241 H1253 0.930 . S
C1242 C1238 1.524 . S
C1242 H1254 0.956 . S
C1242 H1255 0.961 . S
C1242 H1256 0.961 . S
C1243 C1240 1.539 . S
C1243 H1257 0.958 . S
C1243 H1258 0.961 . S
C1243 H1259 0.960 . S
H1244 C1228 0.931 . S
H1245 C1233 0.929 . S
H1246 C1234 0.960 . S
H1247 C1234 0.962 . S
H1248 C1234 0.960 . S
H1249 C1235 0.961 . S
H1250 C1235 0.961 . S
H1251 C1235 0.961 . S
H1252 C1236 0.931 . S
H1253 C1241 0.930 . S
H1254 C1242 0.956 . S
H1255 C1242 0.961 . S
H1256 C1242 0.961 . S
H1257 C1243 0.958 . S
H1258 C1243 0.961 . S
H1259 C1243 0.960 . S
C1260 C1261 1.391 . S
C1260 C1262 1.394 . S
C1260 H1276 0.931 . S
C1261 C1260 1.391 . S
C1261 C1265 1.376 . S
C1262 C1260 1.394 . S
C1262 C1263 1.369 . S
C1262 C1266 1.531 . S
C1263 C1262 1.369 . S
C1263 C1264 1.410 . S
C1263 C1271 1.503 . S
C1264 C1263 1.410 . S
C1264 C1265 1.392 . S
C1264 C1267 1.511 . S
C1265 C1261 1.376 . S
C1265 C1264 1.392 . S
C1265 H1277 0.929 . S
C1266 C1262 1.531 . S
C1266 H1278 0.960 . S
C1266 H1279 0.962 . S
C1266 H1280 0.960 . S
C1267 C1264 1.511 . S
C1267 H1281 0.961 . S
C1267 H1282 0.961 . S
C1267 H1283 0.961 . S
C1268 C1269 1.370 . S
C1268 C1270 1.363 . S
C1268 H1284 0.931 . S
C1269 C1268 1.370 . S
C1269 C1273 1.408 . S
C1270 C1268 1.363 . S
C1270 C1271 1.370 . S
C1270 C1274 1.524 . S
C1271 C1263 1.503 . S
C1271 C1270 1.370 . S
C1271 C1272 1.403 . S
C1272 C1271 1.403 . S
C1272 C1273 1.404 . S
C1272 C1275 1.539 . S
C1273 C1269 1.408 . S
C1273 C1272 1.404 . S
C1273 H1285 0.930 . S
C1274 C1270 1.524 . S
C1274 H1286 0.956 . S
C1274 H1287 0.961 . S
C1274 H1288 0.961 . S
C1275 C1272 1.539 . S
C1275 H1289 0.958 . S
C1275 H1290 0.961 . S
C1275 H1291 0.960 . S
H1276 C1260 0.931 . S
H1277 C1265 0.929 . S
H1278 C1266 0.960 . S
H1279 C1266 0.962 . S
H1280 C1266 0.960 . S
H1281 C1267 0.961 . S
H1282 C1267 0.961 . S
H1283 C1267 0.961 . S
H1284 C1268 0.931 . S
H1285 C1273 0.930 . S
H1286 C1274 0.956 . S
H1287 C1274 0.961 . S
H1288 C1274 0.961 . S
H1289 C1275 0.958 . S
H1290 C1275 0.961 . S
H1291 C1275 0.960 . S
C1292 C1293 1.391 . S
C1292 C1294 1.394 . S
C1292 H1308 0.931 . S
C1293 C1292 1.391 . S
C1293 C1297 1.376 . S
C1294 C1292 1.394 . S
C1294 C1295 1.369 . S
C1294 C1298 1.531 . S
C1295 C1294 1.369 . S
C1295 C1296 1.410 . S
C1295 C1303 1.503 . S
C1296 C1295 1.410 . S
C1296 C1297 1.392 . S
C1296 C1299 1.511 . S
C1297 C1293 1.376 . S
C1297 C1296 1.392 . S
C1297 H1309 0.929 . S
C1298 C1294 1.531 . S
C1298 H1310 0.960 . S
C1298 H1311 0.962 . S
C1298 H1312 0.960 . S
C1299 C1296 1.511 . S
C1299 H1313 0.961 . S
C1299 H1314 0.961 . S
C1299 H1315 0.961 . S
C1300 C1301 1.370 . S
C1300 C1302 1.363 . S
C1300 H1316 0.931 . S
C1301 C1300 1.370 . S
C1301 C1305 1.408 . S
C1302 C1300 1.363 . S
C1302 C1303 1.370 . S
C1302 C1306 1.524 . S
C1303 C1295 1.503 . S
C1303 C1302 1.370 . S
C1303 C1304 1.403 . S
C1304 C1303 1.403 . S
C1304 C1305 1.404 . S
C1304 C1307 1.539 . S
C1305 C1301 1.408 . S
C1305 C1304 1.404 . S
C1305 H1317 0.930 . S
C1306 C1302 1.524 . S
C1306 H1318 0.956 . S
C1306 H1319 0.961 . S
C1306 H1320 0.961 . S
C1307 C1304 1.539 . S
C1307 H1321 0.958 . S
C1307 H1322 0.961 . S
C1307 H1323 0.960 . S
H1308 C1292 0.931 . S
H1309 C1297 0.929 . S
H1310 C1298 0.960 . S
H1311 C1298 0.962 . S
H1312 C1298 0.960 . S
H1313 C1299 0.961 . S
H1314 C1299 0.961 . S
H1315 C1299 0.961 . S
H1316 C1300 0.931 . S
H1317 C1305 0.930 . S
H1318 C1306 0.956 . S
H1319 C1306 0.961 . S
H1320 C1306 0.961 . S
H1321 C1307 0.958 . S
H1322 C1307 0.961 . S
H1323 C1307 0.960 . S
C1324 C1325 1.391 . S
C1324 C1326 1.394 . S
C1324 H1340 0.931 . S
C1325 C1324 1.391 . S
C1325 C1329 1.376 . S
C1326 C1324 1.394 . S
C1326 C1327 1.369 . S
C1326 C1330 1.531 . S
C1327 C1326 1.369 . S
C1327 C1328 1.410 . S
C1327 C1335 1.503 . S
C1328 C1327 1.410 . S
C1328 C1329 1.392 . S
C1328 C1331 1.511 . S
C1329 C1325 1.376 . S
C1329 C1328 1.392 . S
C1329 H1341 0.929 . S
C1330 C1326 1.531 . S
C1330 H1342 0.960 . S
C1330 H1343 0.962 . S
C1330 H1344 0.960 . S
C1331 C1328 1.511 . S
C1331 H1345 0.961 . S
C1331 H1346 0.961 . S
C1331 H1347 0.961 . S
C1332 C1333 1.370 . S
C1332 C1334 1.363 . S
C1332 H1348 0.931 . S
C1333 C1332 1.370 . S
C1333 C1337 1.408 . S
C1334 C1332 1.363 . S
C1334 C1335 1.370 . S
C1334 C1338 1.524 . S
C1335 C1327 1.503 . S
C1335 C1334 1.370 . S
C1335 C1336 1.403 . S
C1336 C1335 1.403 . S
C1336 C1337 1.404 . S
C1336 C1339 1.539 . S
C1337 C1333 1.408 . S
C1337 C1336 1.404 . S
C1337 H1349 0.930 . S
C1338 C1334 1.524 . S
C1338 H1350 0.956 . S
C1338 H1351 0.961 . S
C1338 H1352 0.961 . S
C1339 C1336 1.539 . S
C1339 H1353 0.958 . S
C1339 H1354 0.961 . S
C1339 H1355 0.960 . S
H1340 C1324 0.931 . S
H1341 C1329 0.929 . S
H1342 C1330 0.960 . S
H1343 C1330 0.962 . S
H1344 C1330 0.960 . S
H1345 C1331 0.961 . S
H1346 C1331 0.961 . S
H1347 C1331 0.961 . S
H1348 C1332 0.931 . S
H1349 C1337 0.930 . S
H1350 C1338 0.956 . S
H1351 C1338 0.961 . S
H1352 C1338 0.961 . S
H1353 C1339 0.958 . S
H1354 C1339 0.961 . S
H1355 C1339 0.960 . S
C397 N310 1.688 . S
C405 N13 1.704 . S
C429 N46 1.689 . S
C437 N343 1.694 . S
C461 N376 1.688 . S
C469 N79 1.704 . S
C493 N112 1.666 . S
C501 N211 1.708 . S
C525 N145 1.710 . S
C533 N244 1.687 . S
C557 N277 1.668 . S
C565 N178 1.708 . S
C589 C348 1.743 . S
C597 C18 1.728 . S
C621 C381 1.721 . S
C629 C51 1.733 . S
C653 C84 1.737 . S
C661 C216 1.723 . S
C685 C249 1.744 . S
C693 C117 1.730 . S
C717 C282 1.732 . S
C725 C150 1.721 . S
C749 C183 1.731 . S
C757 C315 1.734 . S
C781 C238 0.796 . S
C789 C106 0.784 . S
C813 C271 0.848 . S
C821 C139 0.806 . S
C845 C172 0.827 . S
C853 C304 0.795 . S
C877 C7 0.835 . S
C885 C337 0.828 . S
C909 C40 0.751 . S
C917 C370 0.778 . S
C941 C205 0.861 . S
C949 C73 0.817 . S
C973 N2 1.221 . S
C981 C153 1.308 . S
C1005 N35 1.277 . S
C1013 C186 1.310 . S
C1037 N68 1.246 . S
C1045 C21 1.305 . S
C1069 C54 1.308 . S
C1077 N101 1.265 . S
C1101 N134 1.219 . S
C1109 C87 1.304 . S
C1133 C120 1.298 . S
C1141 N167 1.231 . S
C1165 C285 1.299 . S
C1173 N200 1.230 . S
C1197 C318 1.298 . S
C1205 N233 1.231 . S
C1229 C351 1.300 . S
C1237 N266 1.254 . S
C1261 N299 1.252 . S
C1269 C384 1.310 . S
C1293 C219 1.308 . S
C1301 N332 1.265 . S
C1325 N365 1.286 . S
C1333 C252 1.309 . S
