# Generated by pormake.
# Topology mdf, (4)-cn, num edge types: 1
# Building blocks:
#     Node 0, Type 0, BuildingBlock: UXUYUI_clean_sbu_0, # of connection points: 4
#     Node 1, Type 0, BuildingBlock: UXUYUI_clean_sbu_0, # of connection points: 4
#     Node 2, Type 0, BuildingBlock: UXUYUI_clean_sbu_0, # of connection points: 4
#     Node 3, Type 0, BuildingBlock: UXUYUI_clean_sbu_0, # of connection points: 4
#     Node 4, Type 0, BuildingBlock: UXUYUI_clean_sbu_0, # of connection points: 4
#     Node 5, Type 0, BuildingBlock: UXUYUI_clean_sbu_0, # of connection points: 4
#     Node 6, Type 0, BuildingBlock: UXUYUI_clean_sbu_0, # of connection points: 4
#     Node 7, Type 0, BuildingBlock: UXUYUI_clean_sbu_0, # of connection points: 4
#     Edge 8, Type (0, 0), BuildingBlock: MIFKUJ_clean_linker_0, # of connection points: 2
#     Edge 9, Type (0, 0), BuildingBlock: MIFKUJ_clean_linker_0, # of connection points: 2
#     Edge 10, Type (0, 0), BuildingBlock: MIFKUJ_clean_linker_0, # of connection points: 2
#     Edge 11, Type (0, 0), BuildingBlock: MIFKUJ_clean_linker_0, # of connection points: 2
#     Edge 12, Type (0, 0), BuildingBlock: MIFKUJ_clean_linker_0, # of connection points: 2
#     Edge 13, Type (0, 0), BuildingBlock: MIFKUJ_clean_linker_0, # of connection points: 2
#     Edge 14, Type (0, 0), BuildingBlock: MIFKUJ_clean_linker_0, # of connection points: 2
#     Edge 15, Type (0, 0), BuildingBlock: MIFKUJ_clean_linker_0, # of connection points: 2
#     Edge 16, Type (0, 0), BuildingBlock: MIFKUJ_clean_linker_0, # of connection points: 2
#     Edge 17, Type (0, 0), BuildingBlock: MIFKUJ_clean_linker_0, # of connection points: 2
#     Edge 18, Type (0, 0), BuildingBlock: MIFKUJ_clean_linker_0, # of connection points: 2
#     Edge 19, Type (0, 0), BuildingBlock: MIFKUJ_clean_linker_0, # of connection points: 2
#     Edge 20, Type (0, 0), BuildingBlock: MIFKUJ_clean_linker_0, # of connection points: 2
#     Edge 21, Type (0, 0), BuildingBlock: MIFKUJ_clean_linker_0, # of connection points: 2
#     Edge 22, Type (0, 0), BuildingBlock: MIFKUJ_clean_linker_0, # of connection points: 2
#     Edge 23, Type (0, 0), BuildingBlock: MIFKUJ_clean_linker_0, # of connection points: 2
# Relax obj value: 0.090
# Max RMSD: 0.078
# Mean RMSD: 0.078
data_MOF--net-mdf--node1-UXUYUI_clean_sbu_0--edge1-MIFKUJ_clean_linker_0
_symmetry_space_group_name_H-M    P1
_symmetry_Int_Tables_number       1
_symmetry_cell_setting            triclinic
loop_
_symmetry_equiv_pos_as_xyz
'x, y, z'
_cell_length_a     60.517425
_cell_length_b     60.500944
_cell_length_c     27.515873
_cell_angle_alpha  89.994033
_cell_angle_beta   90.004828
_cell_angle_gamma 89.993075
loop_
_atom_site_label
_atom_site_type_symbol
_atom_site_fract_x
_atom_site_fract_y
_atom_site_fract_z
_atom_type_partial_charge
Li0 Li 0.24151 0.56686 0.41857 0.0
Li1 Li 0.23167 0.53912 0.35621 0.0
Li2 Li 0.26956 0.53862 0.39485 0.0
Li3 Li 0.2591 0.56667 0.33496 0.0
C4 C 0.23596 0.52532 0.46994 0.0
N5 N 0.22779 0.50739 0.56059 0.0
C6 C 0.21622 0.51403 0.47889 0.0
C7 C 0.25168 0.52718 0.50693 0.0
C8 C 0.21235 0.50518 0.52501 0.0
C9 C 0.24722 0.51808 0.55253 0.0
C10 C 0.2065 0.57427 0.33692 0.0
C11 C 0.1798 0.57274 0.27194 0.0
N12 N 0.16355 0.57817 0.30393 0.0
C13 C 0.18958 0.58003 0.36908 0.0
C14 C 0.20163 0.57079 0.28787 0.0
C15 C 0.16795 0.58185 0.35172 0.0
C16 C 0.23692 0.60566 0.47695 0.0
N17 N 0.22981 0.58453 0.47057 0.0
C18 C 0.20499 0.58805 0.53773 0.0
C19 C 0.214 0.57571 0.49977 0.0
C20 C 0.2119 0.60997 0.54541 0.0
C21 C 0.22815 0.61874 0.51427 0.0
H22 H 0.24932 0.6124 0.45283 0.0
H23 H 0.2081 0.55916 0.49332 0.0
C24 C 0.21241 0.50525 0.29899 0.0
N25 N 0.20819 0.52053 0.334 0.0
C26 C 0.1959 0.49063 0.28398 0.0
C27 C 0.17092 0.50777 0.34116 0.0
C28 C 0.18794 0.52201 0.35514 0.0
C29 C 0.17482 0.49165 0.30536 0.0
H30 H 0.22876 0.50408 0.28343 0.0
H31 H 0.18509 0.53402 0.38352 0.0
C32 C 0.29026 0.57761 0.42939 0.0
N33 N 0.32468 0.59056 0.48903 0.0
C34 C 0.31021 0.5848 0.40926 0.0
C35 C 0.28768 0.57748 0.47987 0.0
C36 C 0.32746 0.59113 0.44 0.0
C37 C 0.3053 0.58396 0.5094 0.0
C38 C 0.2708 0.53155 0.28161 0.0
C39 C 0.29283 0.52475 0.27852 0.0
C40 C 0.25898 0.53601 0.2391 0.0
C41 C 0.30278 0.52289 0.23289 0.0
C42 C 0.26952 0.53399 0.19416 0.0
N43 N 0.29103 0.52755 0.19201 0.0
C44 C 0.28687 0.49939 0.43493 0.0
C45 C 0.31431 0.52495 0.41042 0.0
C46 C 0.30302 0.48417 0.44883 0.0
N47 N 0.29271 0.5194 0.41651 0.0
C48 C 0.33104 0.51012 0.42336 0.0
C49 C 0.32551 0.48932 0.44272 0.0
H50 H 0.2696 0.49508 0.43822 0.0
H51 H 0.31858 0.54057 0.39398 0.0
C52 C 0.25792 0.59873 0.25838 0.0
N53 N 0.27094 0.5844 0.28348 0.0
C54 C 0.26665 0.61095 0.21968 0.0
C55 C 0.30199 0.5935 0.23362 0.0
C56 C 0.29263 0.58177 0.27211 0.0
C57 C 0.289 0.60837 0.20667 0.0
H58 H 0.24074 0.60064 0.26832 0.0
H59 H 0.30262 0.57024 0.29253 0.0
O60 O 0.23994 0.53414 0.42495 0.0
O61 O 0.22773 0.57216 0.35336 0.0
O62 O 0.27315 0.57147 0.39973 0.0
O63 O 0.26089 0.53384 0.32603 0.0
H64 H 0.20395 0.51221 0.45063 0.0
H65 H 0.26732 0.53519 0.5003 0.0
H66 H 0.19708 0.49654 0.5325 0.0
H67 H 0.25926 0.51941 0.58145 0.0
H68 H 0.17577 0.56996 0.23412 0.0
H69 H 0.19305 0.58293 0.40707 0.0
H70 H 0.21454 0.56657 0.2624 0.0
H71 H 0.15467 0.58616 0.37627 0.0
H72 H 0.1928 0.58032 0.56098 0.0
H73 H 0.2338 0.63562 0.51811 0.0
H74 H 0.19982 0.47825 0.2569 0.0
H75 H 0.1549 0.50934 0.35835 0.0
H76 H 0.31243 0.58537 0.37032 0.0
H77 H 0.27218 0.57266 0.49617 0.0
H78 H 0.34305 0.59655 0.42488 0.0
H79 H 0.30352 0.58385 0.54852 0.0
H80 H 0.30219 0.52109 0.31099 0.0
H81 H 0.24188 0.54109 0.2408 0.0
H82 H 0.31986 0.51778 0.22999 0.0
H83 H 0.26061 0.53755 0.161 0.0
H84 H 0.29786 0.4685 0.46405 0.0
H85 H 0.34808 0.51469 0.41687 0.0
H86 H 0.25605 0.62242 0.20047 0.0
H87 H 0.31916 0.5906 0.22458 0.0
Li88 Li 0.43708 0.74049 0.66669 0.0
Li89 Li 0.46448 0.73089 0.60388 0.0
Li90 Li 0.46475 0.76886 0.64239 0.0
Li91 Li 0.43651 0.75805 0.58281 0.0
C92 C 0.47766 0.73489 0.71819 0.0
N93 N 0.49336 0.7258 0.8104 0.0
C94 C 0.48822 0.71481 0.7278 0.0
C95 C 0.47546 0.7505 0.75532 0.0
C96 C 0.49593 0.71047 0.7747 0.0
C97 C 0.48341 0.74556 0.80172 0.0
C98 C 0.42943 0.70557 0.5841 0.0
C99 C 0.43041 0.67974 0.51735 0.0
N100 N 0.42564 0.663 0.54863 0.0
C101 C 0.42431 0.68815 0.61549 0.0
C102 C 0.43229 0.70138 0.53455 0.0
C103 C 0.42254 0.66673 0.5969 0.0
C104 C 0.40001 0.73778 0.73088 0.0
N105 N 0.42003 0.72888 0.71969 0.0
C106 C 0.41676 0.70296 0.78494 0.0
C107 C 0.42831 0.71155 0.74533 0.0
C108 C 0.39626 0.71206 0.79803 0.0
C109 C 0.38777 0.72957 0.77011 0.0
H110 H 0.39362 0.75137 0.70952 0.0
H111 H 0.4438 0.70416 0.7347 0.0
C112 C 0.49809 0.71183 0.54557 0.0
N113 N 0.48312 0.70753 0.58115 0.0
C114 C 0.51278 0.69543 0.53026 0.0
C115 C 0.49631 0.6704 0.58829 0.0
C116 C 0.48197 0.6873 0.6025 0.0
C117 C 0.51214 0.6744 0.55196 0.0
H118 H 0.49892 0.72813 0.52962 0.0
H119 H 0.47023 0.68441 0.6314 0.0
C120 C 0.42577 0.78989 0.67507 0.0
N121 N 0.41301 0.82594 0.73008 0.0
C122 C 0.41833 0.80917 0.65237 0.0
C123 C 0.42627 0.78881 0.7258 0.0
C124 C 0.41209 0.82727 0.68079 0.0
C125 C 0.41987 0.80724 0.75296 0.0
C126 C 0.47182 0.76998 0.52891 0.0
C127 C 0.47914 0.79184 0.52565 0.0
C128 C 0.46717 0.75818 0.48646 0.0
C129 C 0.48128 0.80167 0.47995 0.0
C130 C 0.46949 0.7686 0.44144 0.0
N131 N 0.47642 0.78996 0.43914 0.0
C132 C 0.50313 0.78709 0.68509 0.0
C133 C 0.47777 0.81384 0.65606 0.0
C134 C 0.51771 0.80367 0.6999 0.0
N135 N 0.48349 0.7924 0.66409 0.0
C136 C 0.49197 0.83095 0.66981 0.0
C137 C 0.51225 0.82595 0.6921 0.0
H138 H 0.50765 0.76994 0.68971 0.0
H139 H 0.46245 0.81767 0.63783 0.0
C140 C 0.40305 0.75647 0.50947 0.0
N141 N 0.41834 0.76951 0.53157 0.0
C142 C 0.39034 0.76473 0.47104 0.0
C143 C 0.40929 0.79967 0.47902 0.0
C144 C 0.42147 0.7908 0.51742 0.0
C145 C 0.39342 0.78662 0.45511 0.0
H146 H 0.40072 0.73964 0.52165 0.0
H147 H 0.43366 0.80088 0.53563 0.0
O148 O 0.46987 0.73932 0.67248 0.0
O149 O 0.4315 0.72661 0.60176 0.0
O150 O 0.4319 0.77199 0.64773 0.0
O151 O 0.46929 0.76019 0.57342 0.0
H152 H 0.49034 0.70263 0.69945 0.0
H153 H 0.46803 0.76639 0.74823 0.0
H154 H 0.50398 0.69492 0.78269 0.0
H155 H 0.48177 0.7575 0.83077 0.0
H156 H 0.43271 0.67626 0.47913 0.0
H157 H 0.42185 0.69108 0.65384 0.0
H158 H 0.43594 0.71469 0.50963 0.0
H159 H 0.41872 0.65307 0.62084 0.0
H160 H 0.42367 0.68911 0.80472 0.0
H161 H 0.37203 0.73707 0.77898 0.0
H162 H 0.52456 0.69922 0.50183 0.0
H163 H 0.49544 0.65458 0.60661 0.0
H164 H 0.41748 0.81024 0.61323 0.0
H165 H 0.43126 0.77384 0.74412 0.0
H166 H 0.40648 0.84235 0.66364 0.0
H167 H 0.42026 0.80662 0.79225 0.0
H168 H 0.48301 0.80117 0.55804 0.0
H169 H 0.46176 0.74119 0.48827 0.0
H170 H 0.4868 0.81863 0.47692 0.0
H171 H 0.4658 0.7597 0.40833 0.0
H172 H 0.53336 0.79908 0.7161 0.0
H173 H 0.48714 0.84792 0.66307 0.0
H174 H 0.3781 0.75412 0.45432 0.0
H175 H 0.41258 0.81649 0.46771 0.0
Li176 Li 0.27085 0.96066 0.85222 0.0
Li177 Li 0.26074 0.9333 0.91485 0.0
Li178 Li 0.24322 0.933 0.83103 0.0
Li179 Li 0.23278 0.96141 0.89066 0.0
C180 C 0.29523 0.92462 0.83101 0.0
N181 N 0.33705 0.91883 0.7928 0.0
C182 C 0.31261 0.91784 0.86095 0.0
C183 C 0.29904 0.92812 0.78152 0.0
C184 C 0.33366 0.91508 0.84097 0.0
C185 C 0.32032 0.92521 0.76293 0.0
C186 C 0.26771 0.97389 0.96586 0.0
C187 C 0.25807 0.98164 0.04921 0.0
N188 N 0.27868 0.9899 0.05681 0.0
C189 C 0.2887 0.98275 0.97433 0.0
C190 C 0.25218 0.97357 0.00345 0.0
C191 C 0.29397 0.99063 0.02062 0.0
C192 C 0.28967 0.99589 0.79858 0.0
N193 N 0.29438 0.9792 0.82999 0.0
C194 C 0.33209 0.99086 0.83482 0.0
C195 C 0.3151 0.97646 0.84813 0.0
C196 C 0.32769 0.0085 0.80295 0.0
C197 C 0.30614 0.01077 0.78446 0.0
H198 H 0.27298 0.99802 0.78543 0.0
H199 H 0.31835 0.96338 0.87388 0.0
C200 C 0.2622 0.89674 0.98065 0.0
N201 N 0.2721 0.91607 0.9678 0.0
C202 C 0.27022 0.88443 0.01995 0.0
C203 C 0.29875 0.91186 0.03135 0.0
C204 C 0.29028 0.92353 0.99175 0.0
C205 C 0.28863 0.89209 0.04618 0.0
H206 H 0.24797 0.89095 0.96056 0.0
H207 H 0.2984 0.93844 0.97978 0.0
C208 C 0.23173 0.96868 0.77746 0.0
N209 N 0.21164 0.97402 0.68804 0.0
C210 C 0.20955 0.97502 0.77471 0.0
C211 C 0.24378 0.9654 0.73475 0.0
C212 C 0.19967 0.97755 0.72915 0.0
C213 C 0.2333 0.96807 0.68989 0.0
C214 C 0.21156 0.92275 0.92437 0.0
C215 C 0.19241 0.91419 0.90311 0.0
C216 C 0.21279 0.92478 0.97488 0.0
C217 C 0.1746 0.9083 0.93271 0.0
C218 C 0.19465 0.91869 0.00326 0.0
N219 N 0.17606 0.91068 0.98176 0.0
C220 C 0.24403 0.89962 0.75717 0.0
C221 C 0.20982 0.91802 0.7675 0.0
C222 C 0.23517 0.88672 0.71967 0.0
N223 N 0.23133 0.91496 0.78005 0.0
C224 C 0.20036 0.90567 0.73006 0.0
C225 C 0.21301 0.88968 0.70552 0.0
H226 H 0.26102 0.89729 0.76818 0.0
H227 H 0.19999 0.93016 0.7865 0.0
C228 C 0.21547 1.00073 0.93008 0.0
N229 N 0.20965 0.98057 0.91239 0.0
C230 C 0.19929 0.01575 0.94488 0.0
C231 C 0.17132 0.98922 0.9221 0.0
C232 C 0.18806 0.97467 0.90791 0.0
C233 C 0.17684 0.01011 0.94087 0.0
H234 H 0.23273 0.00526 0.93211 0.0
H235 H 0.18377 0.95887 0.89237 0.0
O236 O 0.27455 0.92759 0.85001 0.0
O237 O 0.26231 0.96607 0.92069 0.0
O238 O 0.2416 0.96584 0.82175 0.0
O239 O 0.22914 0.92863 0.89586 0.0
H240 H 0.30993 0.91485 0.89922 0.0
H241 H 0.28571 0.93305 0.75774 0.0
H242 H 0.3473 0.90998 0.86377 0.0
H243 H 0.32352 0.92799 0.72474 0.0
H244 H 0.24621 0.98144 0.07862 0.0
H245 H 0.30085 0.98338 0.9456 0.0
H246 H 0.23566 0.96748 0.99725 0.0
H247 H 0.31021 0.99736 0.02775 0.0
H248 H 0.34846 0.98827 0.84964 0.0
H249 H 0.30183 0.0243 0.76052 0.0
H250 H 0.2619 0.86928 0.03018 0.0
H251 H 0.31328 0.91811 0.04977 0.0
H252 H 0.20002 0.97778 0.80737 0.0
H253 H 0.26102 0.96084 0.73621 0.0
H254 H 0.18248 0.98229 0.72649 0.0
H255 H 0.2424 0.96546 0.65654 0.0
H256 H 0.19124 0.91221 0.86417 0.0
H257 H 0.22768 0.93072 0.9921 0.0
H258 H 0.15962 0.90181 0.91669 0.0
H259 H 0.19538 0.92024 0.04239 0.0
H260 H 0.2455 0.8744 0.70243 0.0
H261 H 0.18335 0.90887 0.72011 0.0
H262 H 0.20432 0.03182 0.95823 0.0
H263 H 0.15423 0.98416 0.91843 0.0
Li264 Li 0.03807 0.77248 0.11083 0.0
Li265 Li 0.06385 0.75901 0.16733 0.0
Li266 Li 0.06513 0.74531 0.08298 0.0
Li267 Li 0.03384 0.73445 0.14352 0.0
C268 C 0.07567 0.79432 0.08235 0.0
N269 N 0.08569 0.83261 0.03221 0.0
C270 C 0.07592 0.81465 0.10648 0.0
C271 C 0.08077 0.79344 0.03282 0.0
C272 C 0.08093 0.83383 0.08045 0.0
C273 C 0.08574 0.81299 0.0081 0.0
C274 C 0.02937 0.77391 0.22015 0.0
C275 C 0.01961 0.77474 0.30508 0.0
N276 N 0.02546 0.79643 0.30702 0.0
C277 C 0.03507 0.79624 0.22284 0.0
C278 C 0.0214 0.76307 0.26143 0.0
C279 C 0.03307 0.80733 0.26714 0.0
C280 C 0.00081 0.79969 0.11843 0.0
N281 N 0.01951 0.79703 0.09165 0.0
C282 C 0.00871 0.82671 0.03912 0.0
C283 C 0.02358 0.81007 0.05232 0.0
C284 C 0.98926 0.82977 0.06618 0.0
C285 C 0.98545 0.81601 0.1064 0.0
H286 H 0.99755 0.78882 0.14876 0.0
H287 H 0.03796 0.80721 0.03015 0.0
C288 C 0.09853 0.78187 0.21574 0.0
N289 N 0.08188 0.76708 0.22234 0.0
C290 C 0.11088 0.78939 0.25539 0.0
C291 C 0.08911 0.76593 0.30783 0.0
C292 C 0.0773 0.75876 0.26716 0.0
C293 C 0.10599 0.78167 0.30235 0.0
H294 H 0.10198 0.78814 0.17975 0.0
H295 H 0.06422 0.74679 0.27154 0.0
C296 C 0.01646 0.75162 0.04261 0.0
N297 N 0.98421 0.76783 0.98115 0.0
C298 C 0.99419 0.75008 0.05554 0.0
C299 C 0.02236 0.76132 0.99836 0.0
C300 C 0.97813 0.75841 0.02399 0.0
C301 C 0.0058 0.76941 0.96777 0.0
C302 C 0.0801 0.71898 0.17893 0.0
C303 C 0.10278 0.72296 0.17531 0.0
C304 C 0.07187 0.70679 0.21809 0.0
C305 C 0.11689 0.7148 0.21129 0.0
C306 C 0.08652 0.69887 0.25326 0.0
N307 N 0.10854 0.70303 0.24919 0.0
C308 C 0.1047 0.73541 0.03019 0.0
C309 C 0.07125 0.72435 0.99275 0.0
C310 C 0.11696 0.72664 0.99158 0.0
N311 N 0.08227 0.73401 0.03015 0.0
C312 C 0.08279 0.7157 0.95315 0.0
C313 C 0.10603 0.71653 0.95223 0.0
H314 H 0.11307 0.74325 0.06031 0.0
H315 H 0.05343 0.72332 0.99367 0.0
C316 C 0.99395 0.71769 0.18152 0.0
N317 N 0.0136 0.71186 0.16138 0.0
C318 C 0.97847 0.70151 0.19389 0.0
C319 C 0.00383 0.6736 0.16484 0.0
C320 C 0.01879 0.69035 0.15287 0.0
C321 C 0.98329 0.6791 0.18546 0.0
H322 H 0.99025 0.73496 0.18767 0.0
H323 H 0.03452 0.68623 0.13651 0.0
O324 O 0.07112 0.77533 0.10737 0.0
O325 O 0.03149 0.76271 0.17724 0.0
O326 O 0.03245 0.74423 0.07374 0.0
O327 O 0.06597 0.72721 0.14465 0.0
H328 H 0.07238 0.81561 0.14494 0.0
H329 H 0.08067 0.77789 0.01348 0.0
H330 H 0.0811 0.84968 0.09863 0.0
H331 H 0.08959 0.81256 0.96972 0.0
H332 H 0.01363 0.76654 0.33744 0.0
H333 H 0.04101 0.80489 0.19105 0.0
H334 H 0.01692 0.74577 0.25992 0.0
H335 H 0.03754 0.8246 0.26982 0.0
H336 H 0.01209 0.83666 0.00725 0.0
H337 H 0.97074 0.81784 0.12845 0.0
H338 H 0.12366 0.80163 0.24951 0.0
H339 H 0.085 0.75928 0.34324 0.0
H340 H 0.98938 0.74276 0.08981 0.0
H341 H 0.03955 0.76293 0.98813 0.0
H342 H 0.96083 0.75745 0.03365 0.0
H343 H 0.01011 0.77709 0.93357 0.0
H344 H 0.10938 0.73251 0.14543 0.0
H345 H 0.05433 0.7037 0.2216 0.0
H346 H 0.13447 0.71788 0.20915 0.0
H347 H 0.08039 0.6895 0.28391 0.0
H348 H 0.13481 0.72747 0.99309 0.0
H349 H 0.07348 0.70856 0.92348 0.0
H350 H 0.96297 0.70649 0.21021 0.0
H351 H 0.00814 0.65658 0.15718 0.0
Li352 Li 0.74215 0.06945 0.91675 0.0
Li353 Li 0.7305 0.04184 0.8581 0.0
Li354 Li 0.76777 0.04078 0.89338 0.0
Li355 Li 0.75801 0.06929 0.83178 0.0
C356 C 0.72861 0.03603 0.9701 0.0
N357 N 0.70679 0.0355 0.05831 0.0
C358 C 0.70596 0.03154 0.97194 0.0
C359 C 0.74017 0.04013 0.01315 0.0
C360 C 0.69524 0.03135 0.0169 0.0
C361 C 0.72884 0.03984 0.05736 0.0
C362 C 0.71139 0.08225 0.82186 0.0
C363 C 0.69849 0.08832 0.73997 0.0
N364 N 0.68016 0.09849 0.75782 0.0
C365 C 0.69249 0.09288 0.83937 0.0
C366 C 0.71447 0.08003 0.77175 0.0
C367 C 0.67687 0.10092 0.80642 0.0
C368 C 0.74579 0.10039 0.99531 0.0
N369 N 0.73165 0.08792 0.96843 0.0
C370 C 0.70102 0.10002 0.01644 0.0
C371 C 0.70962 0.08773 0.97791 0.0
C372 C 0.71517 0.11298 0.04529 0.0
C373 C 0.73786 0.11313 0.03405 0.0
H374 H 0.76322 0.10043 0.98677 0.0
H375 H 0.69873 0.07767 0.956 0.0
C376 C 0.70825 0.00156 0.85608 0.0
N377 N 0.70666 0.02257 0.83883 0.0
C378 C 0.69223 0.98582 0.84457 0.0
C379 C 0.67284 0.0136 0.79821 0.0
C380 C 0.68933 0.0288 0.81044 0.0
C381 C 0.67414 0.99173 0.8153 0.0
H382 H 0.72209 0.99702 0.87887 0.0
H383 H 0.68808 0.0455 0.79732 0.0
C384 C 0.79495 0.07391 0.9095 0.0
N385 N 0.83891 0.07335 0.9365 0.0
C386 C 0.81143 0.07769 0.8749 0.0
C387 C 0.8008 0.07 0.95788 0.0
C388 C 0.83357 0.07732 0.88928 0.0
C389 C 0.82313 0.06971 0.97078 0.0
C390 C 0.75505 0.01811 0.79794 0.0
C391 C 0.76103 0.99741 0.81632 0.0
C392 C 0.74386 0.01945 0.75358 0.0
C393 C 0.75559 0.97839 0.79013 0.0
C394 C 0.73867 1.00004 0.72855 0.0
N395 N 0.74459 0.98009 0.74719 0.0
C396 C 0.78844 0.00897 0.95441 0.0
C397 C 0.80985 0.02044 0.88687 0.0
C398 C 0.80496 0.9942 0.96868 0.0
N399 N 0.79117 0.02173 0.9142 0.0
C400 C 0.82686 0.006 0.89997 0.0
C401 C 0.82447 0.99251 0.94122 0.0
H402 H 0.77328 0.00997 0.975 0.0
H403 H 0.81137 0.0304 0.8544 0.0
C404 C 0.77201 0.10903 0.78614 0.0
N405 N 0.7693 0.0869 0.77975 0.0
C406 C 0.78077 0.12203 0.74875 0.0
C407 C 0.78346 0.08928 0.69879 0.0
C408 C 0.77496 0.07688 0.73732 0.0
C409 C 0.78653 0.11215 0.70429 0.0
H410 H 0.76749 0.11652 0.82042 0.0
H411 H 0.77292 0.05922 0.73345 0.0
O412 O 0.73934 0.03669 0.92635 0.0
O413 O 0.72696 0.07452 0.85368 0.0
O414 O 0.7732 0.07378 0.89596 0.0
O415 O 0.75973 0.0369 0.82367 0.0
H416 H 0.69669 0.02854 0.93902 0.0
H417 H 0.75766 0.04378 0.01238 0.0
H418 H 0.6777 0.02802 0.01885 0.0
H419 H 0.73755 0.04314 0.09091 0.0
H420 H 0.70063 0.08662 0.70112 0.0
H421 H 0.68991 0.09493 0.87799 0.0
H422 H 0.72889 0.07182 0.75752 0.0
H423 H 0.66214 0.10913 0.81949 0.0
H424 H 0.6835 0.099 0.02402 0.0
H425 H 0.74939 0.12309 0.05466 0.0
H426 H 0.69416 0.96912 0.85808 0.0
H427 H 0.65905 0.01904 0.77617 0.0
H428 H 0.8072 0.08066 0.83727 0.0
H429 H 0.78826 0.06697 0.98506 0.0
H430 H 0.84651 0.08012 0.86286 0.0
H431 H 0.82791 0.06656 0.00802 0.0
H432 H 0.76949 0.99596 0.85074 0.0
H433 H 0.739 0.03527 0.7388 0.0
H434 H 0.76001 0.96226 0.80408 0.0
H435 H 0.7299 0.00085 0.69434 0.0
H436 H 0.80248 0.98421 1.00088 0.0
H437 H 0.84145 0.00498 0.87731 0.0
H438 H 0.78282 0.13963 0.75434 0.0
H439 H 0.78797 0.08099 0.66534 0.0
Li440 Li 0.93571 0.24422 0.1693 0.0
Li441 Li 0.96452 0.23073 0.11254 0.0
Li442 Li 0.96428 0.26866 0.13937 0.0
Li443 Li 0.93653 0.25653 0.08376 0.0
C444 C 0.97952 0.25005 0.21839 0.0
N445 N 0.00305 0.26846 0.29435 0.0
C446 C 0.00211 0.24581 0.22327 0.0
C447 C 0.96888 0.26359 0.25226 0.0
C448 C 0.01372 0.25529 0.26189 0.0
C449 C 0.98106 0.27275 0.2904 0.0
C450 C 0.92531 0.20518 0.12177 0.0
C451 C 0.90079 0.17399 0.11365 0.0
N452 N 0.91223 0.16322 0.14899 0.0
C453 C 0.93683 0.19381 0.15805 0.0
C454 C 0.90713 0.19523 0.09941 0.0
C455 C 0.92996 0.17261 0.17128 0.0
C456 C 0.89584 0.23999 0.22497 0.0
N457 N 0.91788 0.23565 0.22382 0.0
C458 C 0.91587 0.21766 0.30115 0.0
C459 C 0.92796 0.2246 0.26075 0.0
C460 C 0.89308 0.22184 0.30349 0.0
C461 C 0.88302 0.23311 0.26461 0.0
H462 H 0.8882 0.24868 0.19499 0.0
H463 H 0.94542 0.22097 0.25867 0.0
C464 C 0.00565 0.2107 0.10056 0.0
N465 N 0.98371 0.20693 0.09434 0.0
C466 C 0.02113 0.19452 0.08829 0.0
C467 C 0.9912 0.17103 0.06175 0.0
C468 C 0.97629 0.18772 0.07446 0.0
C469 C 0.01398 0.17424 0.06895 0.0
H470 H 0.01115 0.22647 0.1145 0.0
H471 H 0.95885 0.18532 0.06812 0.0
C472 C 0.92652 0.29577 0.1306 0.0
N473 N 0.91505 0.33819 0.10332 0.0
C474 C 0.93954 0.30736 0.09727 0.0
C475 C 0.90768 0.30574 0.15006 0.0
C476 C 0.93346 0.32879 0.08393 0.0
C477 C 0.90215 0.32721 0.13582 0.0
C478 C 0.97418 0.2511 0.0266 0.0
C479 C 0.99169 0.26111 0.0019 0.0
C480 C 0.96206 0.23435 0.00387 0.0
C481 C 0.99676 0.25425 0.95472 0.0
C482 C 0.96765 0.22795 0.95668 0.0
N483 N 0.98474 0.23795 0.93328 0.0
C484 C 0.00436 0.29193 0.13739 0.0
C485 C 0.97721 0.30879 0.18719 0.0
C486 C 0.01953 0.30855 0.14868 0.0
N487 N 0.98368 0.29238 0.15655 0.0
C488 C 0.99188 0.32572 0.1996 0.0
C489 C 0.01337 0.32577 0.18016 0.0
H490 H 0.00911 0.27853 0.11356 0.0
H491 H 0.96069 0.30868 0.20216 0.0
C492 C 0.89763 0.2593 0.02384 0.0
N493 N 0.91906 0.26572 0.02879 0.0
C494 C 0.885 0.26678 0.98437 0.0
C495 C 0.91684 0.28694 0.95559 0.0
C496 C 0.92872 0.27928 0.99559 0.0
C497 C 0.89456 0.28097 0.94966 0.0
H498 H 0.89026 0.24862 0.05089 0.0
H499 H 0.94569 0.28437 1.00026 0.0
O500 O 0.96793 0.24144 0.18008 0.0
O501 O 0.93145 0.2261 0.10862 0.0
O502 O 0.93197 0.27469 0.14401 0.0
O503 O 0.96921 0.2576 0.07297 0.0
H504 H 0.01062 0.23533 0.19758 0.0
H505 H 0.95147 0.26733 0.24864 0.0
H506 H 0.03123 0.2522 0.26603 0.0
H507 H 0.97306 0.28337 0.31667 0.0
H508 H 0.88674 0.16608 0.09663 0.0
H509 H 0.95098 0.2012 0.17565 0.0
H510 H 0.898 0.20386 0.07138 0.0
H511 H 0.93873 0.16362 0.19926 0.0
H512 H 0.92422 0.20866 0.32979 0.0
H513 H 0.86549 0.2367 0.26502 0.0
H514 H 0.03853 0.19802 0.09323 0.0
H515 H 0.9849 0.15569 0.04695 0.0
H516 H 0.95418 0.29992 0.0818 0.0
H517 H 0.89741 0.29695 0.17586 0.0
H518 H 0.94338 0.33794 0.05814 0.0
H519 H 0.8876 0.33514 0.15058 0.0
H520 H 0.00124 0.27408 0.01902 0.0
H521 H 0.94847 0.22636 0.02232 0.0
H522 H 0.01025 0.26188 0.93515 0.0
H523 H 0.95841 0.21502 0.93867 0.0
H524 H 0.03602 0.30773 0.13348 0.0
H525 H 0.98637 0.33875 0.22369 0.0
H526 H 0.86783 0.2619 0.98175 0.0
H527 H 0.92514 0.29747 0.92953 0.0
Li528 Li 0.76857 0.46114 0.35974 0.0
Li529 Li 0.7584 0.43198 0.42008 0.0
Li530 Li 0.74305 0.43187 0.33473 0.0
Li531 Li 0.73217 0.45933 0.39267 0.0
C532 C 0.79611 0.42314 0.36576 0.0
N533 N 0.83948 0.41223 0.38608 0.0
C534 C 0.80773 0.43456 0.40181 0.0
C535 C 0.80655 0.40618 0.34008 0.0
C536 C 0.82964 0.42879 0.41155 0.0
C537 C 0.82849 0.40092 0.35086 0.0
C538 C 0.75218 0.47635 0.46755 0.0
C539 C 0.7321 0.47817 0.54321 0.0
N540 N 0.73479 0.50048 0.5438 0.0
C541 C 0.75483 0.49928 0.46904 0.0
C542 C 0.74074 0.46569 0.50497 0.0
C543 C 0.74588 0.5112 0.50783 0.0
C544 C 0.78641 0.50299 0.34241 0.0
N545 N 0.79102 0.48113 0.3374 0.0
C546 C 0.8261 0.48965 0.3018 0.0
C547 C 0.81022 0.47426 0.31654 0.0
C548 C 0.82205 0.51237 0.3079 0.0
C549 C 0.80177 0.51895 0.32811 0.0
H550 H 0.77071 0.50803 0.35743 0.0
H551 H 0.81325 0.45686 0.31091 0.0
C552 C 0.76726 0.39167 0.47032 0.0
N553 N 0.76934 0.41403 0.47214 0.0
C554 C 0.77597 0.37849 0.50755 0.0
C555 C 0.78852 0.41163 0.54793 0.0
C556 C 0.77986 0.42409 0.50975 0.0
C557 C 0.78684 0.38844 0.54717 0.0
H558 H 0.75907 0.38406 0.43964 0.0
H559 H 0.78166 0.44186 0.51002 0.0
C560 C 0.7449 0.46853 0.27623 0.0
N561 N 0.75401 0.47733 0.17971 0.0
C562 C 0.73246 0.4842 0.25085 0.0
C563 C 0.76195 0.45729 0.25243 0.0
C564 C 0.73732 0.48842 0.20209 0.0
C565 C 0.76631 0.46199 0.20366 0.0
C566 C 0.7073 0.4223 0.41433 0.0
C567 C 0.6889 0.42645 0.38504 0.0
C568 C 0.70441 0.41346 0.46082 0.0
C569 C 0.6678 0.42192 0.40306 0.0
C570 C 0.68303 0.40913 0.47749 0.0
N571 N 0.66533 0.41343 0.44852 0.0
C572 C 0.74344 0.39489 0.26954 0.0
C573 C 0.71472 0.42098 0.2577 0.0
C574 C 0.73553 0.38204 0.23093 0.0
N575 N 0.73292 0.41391 0.28214 0.0
C576 C 0.70619 0.40861 0.21923 0.0
C577 C 0.71655 0.3888 0.20546 0.0
H578 H 0.75787 0.38966 0.28963 0.0
H579 H 0.70684 0.43631 0.26808 0.0
C580 C 0.70722 0.49791 0.38701 0.0
N581 N 0.70823 0.4785 0.41179 0.0
C582 C 0.69107 0.51359 0.39817 0.0
C583 C 0.67722 0.48916 0.46052 0.0
C584 C 0.69375 0.47399 0.44835 0.0
C585 C 0.67576 0.5093 0.43532 0.0
H586 H 0.71916 0.50132 0.35878 0.0
H587 H 0.6952 0.45886 0.46883 0.0
O588 O 0.77454 0.42827 0.35595 0.0
O589 O 0.76034 0.46439 0.42932 0.0
O590 O 0.74021 0.46427 0.32401 0.0
O591 O 0.7281 0.42655 0.39746 0.0
H592 H 0.8 0.44782 0.42192 0.0
H593 H 0.79779 0.39717 0.31208 0.0
H594 H 0.83882 0.43749 0.43932 0.0
H595 H 0.83678 0.38783 0.33125 0.0
H596 H 0.7231 0.47013 0.57222 0.0
H597 H 0.76368 0.50784 0.44063 0.0
H598 H 0.73823 0.44799 0.50408 0.0
H599 H 0.74775 0.52896 0.50934 0.0
H600 H 0.84126 0.48384 0.28528 0.0
H601 H 0.7979 0.53625 0.33354 0.0
H602 H 0.77453 0.3607 0.50477 0.0
H603 H 0.79635 0.4202 0.57786 0.0
H604 H 0.71913 0.49298 0.26862 0.0
H605 H 0.77174 0.44504 0.27119 0.0
H606 H 0.72782 0.50051 0.18204 0.0
H607 H 0.77946 0.45342 0.18484 0.0
H608 H 0.69088 0.43338 0.34909 0.0
H609 H 0.71852 0.41005 0.48382 0.0
H610 H 0.65339 0.4252 0.38095 0.0
H611 H 0.68052 0.40236 0.51345 0.0
H612 H 0.74394 0.36681 0.22168 0.0
H613 H 0.69174 0.41463 0.20012 0.0
H614 H 0.69049 0.52885 0.37762 0.0
H615 H 0.666 0.48535 0.49002 0.0
Li616 Li 0.53917 0.26981 0.61105 0.0
Li617 Li 0.5672 0.2581 0.66824 0.0
Li618 Li 0.56701 0.24334 0.58559 0.0
Li619 Li 0.53889 0.23226 0.64328 0.0
C620 C 0.57796 0.29578 0.61596 0.0
N621 N 0.59074 0.3386 0.63667 0.0
C622 C 0.56509 0.30896 0.64661 0.0
C623 C 0.59732 0.30439 0.59582 0.0
C624 C 0.57183 0.33056 0.65665 0.0
C625 C 0.60351 0.32608 0.60673 0.0
C626 C 0.5294 0.25575 0.7264 0.0
C627 C 0.53556 0.23547 0.80064 0.0
N628 N 0.51841 0.24641 0.82166 0.0
C629 C 0.51183 0.26678 0.7487 0.0
C630 C 0.54138 0.23996 0.75252 0.0
C631 C 0.50653 0.26183 0.7969 0.0
C632 C 0.49867 0.29167 0.60667 0.0
N633 N 0.51986 0.29301 0.59066 0.0
C634 C 0.51175 0.32636 0.5475 0.0
C635 C 0.5266 0.30979 0.56126 0.0
C636 C 0.48973 0.32542 0.56358 0.0
C637 C 0.48324 0.30773 0.59343 0.0
H638 H 0.49377 0.27805 0.62978 0.0
H639 H 0.54347 0.31031 0.54842 0.0
C640 C 0.60515 0.25891 0.73049 0.0
N641 N 0.58498 0.268 0.72189 0.0
C642 C 0.61783 0.26593 0.77022 0.0
C643 C 0.58882 0.29165 0.79104 0.0
C644 C 0.57671 0.28406 0.75128 0.0
C645 C 0.60967 0.28251 0.80131 0.0
H646 H 0.61133 0.2461 0.70669 0.0
H647 H 0.56059 0.291 0.74398 0.0
C648 C 0.52872 0.24658 0.52836 0.0
N649 N 0.51676 0.25644 0.43391 0.0
C650 C 0.51051 0.23617 0.50714 0.0
C651 C 0.54084 0.26203 0.50158 0.0
C652 C 0.50473 0.24137 0.45933 0.0
C653 C 0.53454 0.26678 0.45388 0.0
C654 C 0.57654 0.2053 0.63725 0.0
C655 C 0.56345 0.19318 0.60497 0.0
C656 C 0.59501 0.19539 0.65851 0.0
C657 C 0.5691 0.17132 0.59443 0.0
C658 C 0.60012 0.17347 0.64705 0.0
N659 N 0.58716 0.162 0.61551 0.0
C660 C 0.60564 0.24043 0.52607 0.0
C661 C 0.57546 0.21847 0.50014 0.0
C662 C 0.61839 0.2331 0.48674 0.0
N663 N 0.58457 0.23309 0.53191 0.0
C664 C 0.58753 0.21082 0.46037 0.0
C665 C 0.6093 0.21816 0.45306 0.0
H666 H 0.61252 0.25201 0.55191 0.0
H667 H 0.55876 0.21269 0.50559 0.0
C668 C 0.49835 0.21023 0.64568 0.0
N669 N 0.51931 0.20917 0.66316 0.0
C670 C 0.48301 0.19384 0.65739 0.0
C671 C 0.51105 0.17562 0.70541 0.0
C672 C 0.52584 0.19244 0.69292 0.0
C673 C 0.4893 0.17609 0.68737 0.0
H674 H 0.49357 0.22387 0.62253 0.0
H675 H 0.54258 0.19203 0.70661 0.0
O676 O 0.57182 0.27452 0.60574 0.0
O677 O 0.5347 0.26047 0.67919 0.0
O678 O 0.53441 0.24174 0.5753 0.0
O679 O 0.57148 0.2268 0.64801 0.0
H680 H 0.55003 0.3026 0.66249 0.0
H681 H 0.60747 0.2944 0.57201 0.0
H682 H 0.56202 0.34092 0.68033 0.0
H683 H 0.61847 0.33295 0.5914 0.0
H684 H 0.54469 0.2233 0.82129 0.0
H685 H 0.50241 0.27905 0.72893 0.0
H686 H 0.55505 0.23127 0.73596 0.0
H687 H 0.49298 0.27025 0.81464 0.0
H688 H 0.51734 0.33958 0.52399 0.0
H689 H 0.46648 0.30649 0.60695 0.0
H690 H 0.63368 0.25819 0.77688 0.0
H691 H 0.58194 0.30474 0.8132 0.0
H692 H 0.50095 0.22419 0.52743 0.0
H693 H 0.55498 0.27027 0.51736 0.0
H694 H 0.49068 0.23344 0.44243 0.0
H695 H 0.54377 0.27869 0.43274 0.0
H696 H 0.54904 0.20052 0.58828 0.0
H697 H 0.60532 0.20454 0.68359 0.0
H698 H 0.55911 0.16176 0.56951 0.0
H699 H 0.61438 0.1656 0.66322 0.0
H700 H 0.63506 0.23931 0.48238 0.0
H701 H 0.57995 0.19901 0.43592 0.0
H702 H 0.46634 0.19518 0.64339 0.0
H703 H 0.51674 0.1622 0.72825 0.0
H704 H 0.41263 0.70163 0.88756 0.0
H705 H 0.39295 0.68532 0.95625 0.0
H706 H 0.33242 0.68582 0.87338 0.0
H707 H 0.35204 0.70252 0.8046 0.0
H708 H 0.32431 0.69755 0.96461 0.0
H709 H 0.3628 0.63807 0.88812 0.0
H710 H 0.39484 0.61855 0.8532 0.0
H711 H 0.42766 0.62046 0.9915 0.0
H712 H 0.39592 0.64029 0.02711 0.0
H713 H 0.26969 0.61867 0.11903 0.0
H714 H 0.28638 0.63789 0.04996 0.0
H715 H 0.34716 0.645 0.13019 0.0
H716 H 0.3305 0.62634 0.19979 0.0
H717 H 0.35377 0.62867 0.03803 0.0
H718 H 0.31437 0.68881 0.1134 0.0
H719 H 0.28157 0.70762 0.14678 0.0
H720 H 0.24928 0.70298 0.00818 0.0
H721 H 0.28181 0.68386 0.97413 0.0
C722 C 0.39513 0.69822 0.88391 0.0
C723 C 0.38393 0.70316 0.84048 0.0
C724 C 0.38389 0.68888 0.92321 0.0
C725 C 0.36127 0.68391 0.91973 0.0
C726 C 0.34988 0.68943 0.87691 0.0
C727 C 0.3611 0.69898 0.83765 0.0
C728 C 0.3497 0.67264 0.96054 0.0
C729 C 0.33058 0.68231 0.98019 0.0
C730 C 0.35798 0.65288 0.98138 0.0
C731 C 0.37706 0.64085 0.96017 0.0
C732 C 0.37691 0.63447 0.91101 0.0
C733 C 0.39501 0.62333 0.8911 0.0
C734 C 0.4133 0.61832 0.92008 0.0
C735 C 0.41349 0.62438 0.96908 0.0
C736 C 0.39545 0.63556 0.98916 0.0
C737 C 0.28648 0.62464 0.12238 0.0
C738 C 0.29874 0.62085 0.16509 0.0
C739 C 0.29603 0.63556 0.08273 0.0
C740 C 0.31801 0.64292 0.08496 0.0
C741 C 0.33021 0.63935 0.12758 0.0
C742 C 0.32067 0.62857 0.16729 0.0
C743 C 0.32859 0.65373 0.04242 0.0
C744 C 0.3475 0.64388 0.02235 0.0
C745 C 0.31997 0.67317 0.02097 0.0
C746 C 0.30043 0.6847 0.04136 0.0
C747 C 0.30021 0.69163 0.09015 0.0
C748 C 0.28168 0.70238 0.10917 0.0
C749 C 0.26333 0.70644 0.07966 0.0
C750 C 0.2635 0.6998 0.03102 0.0
C751 C 0.28198 0.68902 0.01183 0.0
H752 H 0.249 0.71477 0.09445 0.0
H753 H 0.42729 0.60969 0.9046 0.0
H754 H 0.38021 0.76551 0.37147 0.0
H755 H 0.35986 0.78107 0.30286 0.0
H756 H 0.35777 0.84436 0.37491 0.0
H757 H 0.37698 0.82865 0.44473 0.0
H758 H 0.31968 0.83682 0.33343 0.0
H759 H 0.3956 0.832 0.28224 0.0
H760 H 0.43106 0.81326 0.26625 0.0
H761 H 0.39911 0.76994 0.16456 0.0
H762 H 0.36339 0.78824 0.18045 0.0
H763 H 0.30203 0.9087 0.13371 0.0
H764 H 0.31746 0.88851 0.20278 0.0
H765 H 0.31023 0.82719 0.12446 0.0
H766 H 0.29503 0.84738 0.05476 0.0
H767 H 0.35116 0.83124 0.1674 0.0
H768 H 0.27547 0.83871 0.21516 0.0
H769 H 0.24062 0.85856 0.23094 0.0
H770 H 0.27292 0.89828 0.339 0.0
H771 H 0.30806 0.87887 0.32338 0.0
C772 C 0.37513 0.78265 0.37315 0.0
C773 C 0.38044 0.79583 0.41367 0.0
C774 C 0.3637 0.79161 0.33354 0.0
C775 C 0.3576 0.81402 0.33322 0.0
C776 C 0.36239 0.82706 0.37408 0.0
C777 C 0.37363 0.81808 0.41383 0.0
C778 C 0.3465 0.82406 0.29023 0.0
C779 C 0.3267 0.83577 0.29723 0.0
C780 C 0.35531 0.82229 0.24267 0.0
C781 C 0.37679 0.81132 0.23294 0.0
C782 C 0.39611 0.81837 0.25674 0.0
C783 C 0.41626 0.80784 0.24766 0.0
C784 C 0.41732 0.79038 0.21452 0.0
C785 C 0.39825 0.78344 0.19029 0.0
C786 C 0.37805 0.79389 0.1993 0.0
C787 C 0.30377 0.89092 0.1311 0.0
C788 C 0.29733 0.87964 0.08871 0.0
C789 C 0.31243 0.87938 0.17077 0.0
C790 C 0.31483 0.85631 0.16896 0.0
C791 C 0.30845 0.84498 0.1267 0.0
C792 C 0.29963 0.85651 0.08705 0.0
C793 C 0.32455 0.8442 0.21081 0.0
C794 C 0.34407 0.83212 0.20357 0.0
C795 C 0.31558 0.84579 0.25818 0.0
C796 C 0.29445 0.85745 0.26779 0.0
C797 C 0.27519 0.85179 0.24201 0.0
C798 C 0.25537 0.86295 0.25098 0.0
C799 C 0.25457 0.8797 0.28588 0.0
C800 C 0.27357 0.88531 0.31195 0.0
C801 C 0.29344 0.87422 0.30309 0.0
H802 H 0.23921 0.88832 0.29277 0.0
H803 H 0.43294 0.78225 0.20753 0.0
H804 H 0.15039 0.78961 0.31276 0.0
H805 H 0.16936 0.80586 0.38284 0.0
H806 H 0.10735 0.81015 0.45949 0.0
H807 H 0.08825 0.79423 0.3894 0.0
H808 H 0.13011 0.84846 0.46467 0.0
H809 H 0.14475 0.77189 0.49195 0.0
H810 H 0.15745 0.73427 0.4718 0.0
H811 H 0.22318 0.75871 0.44809 0.0
H812 H 0.21079 0.79656 0.46747 0.0
H813 H 0.17083 0.8732 0.69945 0.0
H814 H 0.15386 0.85345 0.63174 0.0
H815 H 0.21555 0.85526 0.55359 0.0
H816 H 0.23259 0.8757 0.62058 0.0
H817 H 0.19363 0.81362 0.54919 0.0
H818 H 0.17801 0.89061 0.52255 0.0
H819 H 0.16464 0.92768 0.54536 0.0
H820 H 0.09968 0.90147 0.57026 0.0
H821 H 0.11276 0.86415 0.5483 0.0
C822 C 0.14081 0.79401 0.34456 0.0
C823 C 0.11781 0.7906 0.34553 0.0
C824 C 0.1517 0.80313 0.38473 0.0
C825 C 0.1398 0.80909 0.42658 0.0
C826 C 0.11687 0.80562 0.42767 0.0
C827 C 0.10601 0.79638 0.3877 0.0
C828 C 0.15108 0.81974 0.46849 0.0
C829 C 0.1438 0.84068 0.48351 0.0
C830 C 0.16927 0.80982 0.49249 0.0
C831 C 0.17677 0.78711 0.48056 0.0
C832 C 0.16186 0.76929 0.48193 0.0
C833 C 0.16901 0.74792 0.47071 0.0
C834 C 0.19108 0.74412 0.4584 0.0
C835 C 0.20607 0.76169 0.45747 0.0
C836 C 0.19899 0.7831 0.4686 0.0
C837 C 0.18081 0.86962 0.66777 0.0
C838 C 0.20307 0.87634 0.66544 0.0
C839 C 0.17109 0.85816 0.62921 0.0
C840 C 0.18339 0.85305 0.58748 0.0
C841 C 0.20578 0.85901 0.58553 0.0
C842 C 0.2155 0.87064 0.624 0.0
C843 C 0.17257 0.84224 0.54527 0.0
C844 C 0.17995 0.82133 0.5302 0.0
C845 C 0.15437 0.8521 0.52135 0.0
C846 C 0.14642 0.87455 0.53425 0.0
C847 C 0.16092 0.89271 0.53328 0.0
C848 C 0.15338 0.91378 0.54599 0.0
C849 C 0.13134 0.91692 0.55937 0.0
C850 C 0.11676 0.89901 0.55995 0.0
C851 C 0.12422 0.8779 0.54734 0.0
H852 H 0.12553 0.93324 0.56919 0.0
H853 H 0.19659 0.72755 0.44986 0.0
H854 H 0.09557 0.67962 0.89873 0.0
H855 H 0.11535 0.664 0.83013 0.0
H856 H 0.16586 0.71387 0.84475 0.0
H857 H 0.14518 0.73078 0.91132 0.0
H858 H 0.15858 0.70805 0.75372 0.0
H859 H 0.17343 0.65864 0.88343 0.0
H860 H 0.16547 0.63424 0.95304 0.0
H861 H 0.12703 0.59179 0.8609 0.0
H862 H 0.13451 0.6161 0.79083 0.0
H863 H 0.23218 0.64126 0.60319 0.0
H864 H 0.21612 0.66181 0.67128 0.0
H865 H 0.15373 0.62916 0.64815 0.0
H866 H 0.16915 0.60939 0.57885 0.0
H867 H 0.17114 0.62709 0.74628 0.0
H868 H 0.15724 0.67983 0.61629 0.0
H869 H 0.16815 0.70481 0.54961 0.0
H870 H 0.2098 0.74118 0.64738 0.0
H871 H 0.19939 0.71622 0.71449 0.0
C872 C 0.11068 0.6876 0.88709 0.0
C873 C 0.11865 0.7066 0.9109 0.0
C874 C 0.12223 0.67835 0.84815 0.0
C875 C 0.14241 0.68741 0.8327 0.0
C876 C 0.15041 0.70643 0.85609 0.0
C877 C 0.13866 0.71595 0.89466 0.0
C878 C 0.15486 0.6771 0.79177 0.0
C879 C 0.16164 0.69039 0.75258 0.0
C880 C 0.15892 0.65403 0.78992 0.0
C881 C 0.15439 0.63931 0.83194 0.0
C882 C 0.16315 0.64419 0.87807 0.0
C883 C 0.15874 0.63036 0.9176 0.0
C884 C 0.14571 0.6115 0.91141 0.0
C885 C 0.13711 0.60641 0.86564 0.0
C886 C 0.14145 0.6202 0.82599 0.0
C887 C 0.21492 0.63873 0.61186 0.0
C888 C 0.20208 0.62341 0.58555 0.0
C889 C 0.20581 0.65043 0.65101 0.0
C890 C 0.18377 0.64692 0.6648 0.0
C891 C 0.17083 0.63197 0.63827 0.0
C892 C 0.17978 0.62054 0.59884 0.0
C893 C 0.17429 0.65797 0.70815 0.0
C894 C 0.16818 0.64477 0.74782 0.0
C895 C 0.17137 0.68113 0.71084 0.0
C896 C 0.17774 0.69598 0.67029 0.0
C897 C 0.16891 0.693 0.62346 0.0
C898 C 0.17496 0.7072 0.5856 0.0
C899 C 0.18971 0.72453 0.59424 0.0
C900 C 0.19841 0.72772 0.64073 0.0
C901 C 0.19244 0.71356 0.67868 0.0
H902 H 0.19436 0.73553 0.56498 0.0
H903 H 0.14232 0.60082 0.94207 0.0
H904 H 0.77473 0.11149 0.60852 0.0
H905 H 0.79111 0.13237 0.54153 0.0
H906 H 0.83642 0.16337 0.64168 0.0
H907 H 0.81956 0.14296 0.70904 0.0
H908 H 0.82336 0.19266 0.57943 0.0
H909 H 0.85189 0.11939 0.56539 0.0
H910 H 0.85044 0.07875 0.5595 0.0
H911 H 0.81338 0.08368 0.42685 0.0
H912 H 0.81435 0.12438 0.4323 0.0
H913 H 0.90363 0.22445 0.40008 0.0
H914 H 0.88358 0.20846 0.46892 0.0
H915 H 0.83296 0.18499 0.37142 0.0
H916 H 0.85305 0.20078 0.30233 0.0
H917 H 0.84849 0.15256 0.43227 0.0
H918 H 0.82315 0.22762 0.44696 0.0
H919 H 0.82662 0.26801 0.45581 0.0
H920 H 0.86115 0.25933 0.59079 0.0
H921 H 0.85821 0.21886 0.58241 0.0
C922 C 0.78819 0.12276 0.6162 0.0
C923 C 0.79597 0.12548 0.66395 0.0
C924 C 0.7976 0.13466 0.57787 0.0
C925 C 0.81535 0.14916 0.58625 0.0
C926 C 0.82279 0.15228 0.63416 0.0
C927 C 0.81315 0.14061 0.67265 0.0
C928 C 0.8263 0.16082 0.54504 0.0
C929 C 0.82911 0.18384 0.54753 0.0
C930 C 0.83358 0.14941 0.50299 0.0
C931 C 0.833 0.12494 0.49953 0.0
C932 C 0.84328 0.11181 0.53515 0.0
C933 C 0.84257 0.08877 0.53187 0.0
C934 C 0.83177 0.07864 0.4929 0.0
C935 C 0.82171 0.09155 0.45706 0.0
C936 C 0.82235 0.11461 0.46021 0.0
C937 C 0.88815 0.21599 0.39335 0.0
C938 C 0.87995 0.21382 0.34571 0.0
C939 C 0.87663 0.20701 0.43278 0.0
C940 C 0.8567 0.19563 0.42539 0.0
C941 C 0.84827 0.19378 0.37798 0.0
C942 C 0.85969 0.20292 0.33857 0.0
C943 C 0.84542 0.18439 0.46656 0.0
C944 C 0.84266 0.16138 0.46411 0.0
C945 C 0.83862 0.19579 0.50897 0.0
C946 C 0.84069 0.22015 0.5137 0.0
C947 C 0.83172 0.23429 0.47824 0.0
C948 C 0.83354 0.25722 0.48326 0.0
C949 C 0.84415 0.26623 0.52377 0.0
C950 C 0.85296 0.25233 0.55939 0.0
C951 C 0.85122 0.22939 0.55452 0.0
H952 H 0.8455 0.28398 0.52762 0.0
H953 H 0.83124 0.0608 0.49041 0.0
H954 H 0.86227 0.26034 0.89511 0.0
H955 H 0.84119 0.27574 0.82706 0.0
H956 H 0.8768 0.33719 0.84105 0.0
H957 H 0.89687 0.32247 0.91033 0.0
H958 H 0.83584 0.34594 0.82856 0.0
H959 H 0.88733 0.29648 0.75075 0.0
H960 H 0.9054 0.26105 0.73124 0.0
H961 H 0.84327 0.23421 0.68443 0.0
H962 H 0.82473 0.26937 0.7045 0.0
H963 H 0.82485 0.3964 0.59886 0.0
H964 H 0.83959 0.37564 0.66746 0.0
H965 H 0.78678 0.32827 0.65414 0.0
H966 H 0.77113 0.34953 0.58663 0.0
H967 H 0.83163 0.30988 0.66693 0.0
H968 H 0.78113 0.36102 0.74051 0.0
H969 H 0.76453 0.39763 0.75515 0.0
H970 H 0.82695 0.42214 0.80616 0.0
H971 H 0.84401 0.38574 0.79115 0.0
C972 C 0.86545 0.27721 0.88403 0.0
C973 C 0.88146 0.29006 0.90818 0.0
C974 C 0.85356 0.28591 0.84464 0.0
C975 C 0.85758 0.30757 0.8283 0.0
C976 C 0.87339 0.32042 0.85269 0.0
C977 C 0.88509 0.31185 0.89213 0.0
C978 C 0.84516 0.3173 0.78664 0.0
C979 C 0.83512 0.33805 0.7932 0.0
C980 C 0.84354 0.30681 0.74063 0.0
C981 C 0.85458 0.28546 0.7299 0.0
C982 C 0.87746 0.28293 0.73695 0.0
C983 C 0.8878 0.26292 0.72566 0.0
C984 C 0.87547 0.24536 0.70683 0.0
C985 C 0.85278 0.24779 0.69926 0.0
C986 C 0.84235 0.26775 0.71061 0.0
C987 C 0.81608 0.38177 0.61072 0.0
C988 C 0.79654 0.3749 0.58731 0.0
C989 C 0.82469 0.3698 0.64977 0.0
C990 C 0.81418 0.35053 0.66605 0.0
C991 C 0.79513 0.34312 0.64202 0.0
C992 C 0.78629 0.35527 0.60326 0.0
C993 C 0.82301 0.33858 0.70895 0.0
C994 C 0.83223 0.31751 0.7026 0.0
C995 C 0.82412 0.34879 0.75506 0.0
C996 C 0.81389 0.37069 0.76431 0.0
C997 C 0.79137 0.37426 0.75446 0.0
C998 C 0.78186 0.39497 0.7629 0.0
C999 C 0.79469 0.41222 0.78147 0.0
C1000 C 0.81704 0.40877 0.79174 0.0
C1001 C 0.82663 0.3881 0.78332 0.0
H1002 H 0.78729 0.42823 0.788 0.0
H1003 H 0.88353 0.22991 0.69793 0.0
H1004 H 0.73904 0.36853 0.13119 0.0
H1005 H 0.7235 0.34746 0.06312 0.0
H1006 H 0.65789 0.35777 0.12 0.0
H1007 H 0.6733 0.37853 0.18827 0.0
H1008 H 0.66432 0.31502 0.08979 0.0
H1009 H 0.67667 0.38876 0.02752 0.0
H1010 H 0.69914 0.42162 0.00832 0.0
H1011 H 0.74127 0.38224 0.91735 0.0
H1012 H 0.71922 0.34907 0.9366 0.0
H1013 H 0.59413 0.29448 0.89121 0.0
H1014 H 0.61482 0.30959 0.95933 0.0
H1015 H 0.67548 0.30248 0.87848 0.0
H1016 H 0.65465 0.2885 0.80879 0.0
H1017 H 0.67509 0.34092 0.92038 0.0
H1018 H 0.66185 0.26759 0.97743 0.0
H1019 H 0.64011 0.23428 0.99706 0.0
H1020 H 0.60074 0.27177 0.09735 0.0
H1021 H 0.62218 0.30531 0.0782 0.0
C1022 C 0.72133 0.36611 0.1294 0.0
C1023 C 0.70738 0.37532 0.16496 0.0
C1024 C 0.71246 0.3542 0.09034 0.0
C1025 C 0.68951 0.35121 0.08624 0.0
C1026 C 0.67564 0.35992 0.12234 0.0
C1027 C 0.68446 0.37193 0.16114 0.0
C1028 C 0.67977 0.33938 0.04403 0.0
C1029 C 0.66653 0.32075 0.05274 0.0
C1030 C 0.68322 0.34645 0.99559 0.0
C1031 C 0.69646 0.36639 0.98397 0.0
C1032 C 0.69084 0.38707 0.00377 0.0
C1033 C 0.70348 0.40576 0.99282 0.0
C1034 C 0.72167 0.404 0.96176 0.0
C1035 C 0.72721 0.38357 0.94149 0.0
C1036 C 0.71464 0.36482 0.9524 0.0
C1037 C 0.61185 0.29625 0.88758 0.0
C1038 C 0.62264 0.29035 0.84415 0.0
C1039 C 0.62375 0.30461 0.92703 0.0
C1040 C 0.64682 0.30689 0.92453 0.0
C1041 C 0.65772 0.30079 0.88148 0.0
C1042 C 0.64578 0.29259 0.84175 0.0
C1043 C 0.6593 0.31665 0.96604 0.0
C1044 C 0.67306 0.33493 0.95727 0.0
C1045 C 0.65646 0.30916 0.01445 0.0
C1046 C 0.64353 0.289 0.02609 0.0
C1047 C 0.64847 0.26875 0.00346 0.0
C1048 C 0.63624 0.24982 0.01459 0.0
C1049 C 0.61904 0.25091 0.0484 0.0
C1050 C 0.61408 0.27093 0.0712 0.0
C1051 C 0.6263 0.2899 0.06034 0.0
H1052 H 0.6096 0.23623 0.057 0.0
H1053 H 0.73143 0.41849 0.9533 0.0
H1054 H 0.73441 0.12049 0.13439 0.0
H1055 H 0.71917 0.14094 0.20315 0.0
H1056 H 0.66005 0.15445 0.12072 0.0
H1057 H 0.67567 0.13518 0.05092 0.0
H1058 H 0.67088 0.18962 0.16945 0.0
H1059 H 0.66312 0.11266 0.20915 0.0
H1060 H 0.67588 0.07443 0.22255 0.0
H1061 H 0.71915 0.0967 0.33613 0.0
H1062 H 0.70686 0.13513 0.32294 0.0
H1063 H 0.59509 0.2123 0.35951 0.0
H1064 H 0.61561 0.19687 0.29108 0.0
H1065 H 0.67353 0.19064 0.38139 0.0
H1066 H 0.65286 0.20554 0.4506 0.0
H1067 H 0.66582 0.15325 0.33064 0.0
H1068 H 0.67074 0.23071 0.29235 0.0
H1069 H 0.65638 0.2683 0.2779 0.0
H1070 H 0.61594 0.24396 0.16142 0.0
H1071 H 0.63004 0.20626 0.17512 0.0
C1072 C 0.71831 0.1281 0.13051 0.0
C1073 C 0.70624 0.12599 0.08701 0.0
C1074 C 0.70949 0.13958 0.17018 0.0
C1075 C 0.68826 0.14893 0.16756 0.0
C1076 C 0.6764 0.1473 0.12385 0.0
C1077 C 0.68529 0.13602 0.08405 0.0
C1078 C 0.67819 0.16015 0.21038 0.0
C1079 C 0.66961 0.18156 0.20457 0.0
C1080 C 0.6769 0.14989 0.2566 0.0
C1081 C 0.68425 0.1268 0.26469 0.0
C1082 C 0.67548 0.10943 0.23673 0.0
C1083 C 0.68261 0.08772 0.24433 0.0
C1084 C 0.69836 0.08315 0.28007 0.0
C1085 C 0.70698 0.10027 0.30839 0.0
C1086 C 0.69993 0.12202 0.30089 0.0
C1087 C 0.61219 0.20763 0.36491 0.0
C1088 C 0.6223 0.21009 0.41065 0.0
C1089 C 0.62398 0.19902 0.32555 0.0
C1090 C 0.6462 0.19279 0.33088 0.0
C1091 C 0.65643 0.19541 0.37635 0.0
C1092 C 0.64464 0.20408 0.41579 0.0
C1093 C 0.65836 0.18261 0.28956 0.0
C1094 C 0.6673 0.16138 0.29565 0.0
C1095 C 0.65975 0.19292 0.24347 0.0
C1096 C 0.65135 0.21564 0.23499 0.0
C1097 C 0.65872 0.23337 0.26378 0.0
C1098 C 0.65067 0.25472 0.25561 0.0
C1099 C 0.63528 0.25854 0.21867 0.0
C1100 C 0.62794 0.24102 0.1898 0.0
C1101 C 0.63599 0.21967 0.19769 0.0
H1102 H 0.62905 0.27507 0.21242 0.0
H1103 H 0.70386 0.06633 0.2859 0.0
H1104 H 0.36656 0.49694 0.4824 0.0
H1105 H 0.39519 0.46979 0.50174 0.0
H1106 H 0.35265 0.41731 0.45206 0.0
H1107 H 0.32423 0.44427 0.43107 0.0
H1108 H 0.37225 0.40853 0.54178 0.0
H1109 H 0.39373 0.43328 0.38213 0.0
H1110 H 0.40363 0.46108 0.32033 0.0
H1111 H 0.45874 0.48195 0.40727 0.0
H1112 H 0.44897 0.45446 0.46996 0.0
H1113 H 0.44737 0.31969 0.53169 0.0
H1114 H 0.42033 0.34817 0.511 0.0
H1115 H 0.46831 0.39881 0.54359 0.0
H1116 H 0.49559 0.37028 0.56345 0.0
H1117 H 0.44638 0.40966 0.46473 0.0
H1118 H 0.42602 0.38539 0.62381 0.0
H1119 H 0.41642 0.35844 0.68763 0.0
H1120 H 0.35964 0.33796 0.6056 0.0
H1121 H 0.36908 0.36458 0.54093 0.0
C1122 C 0.36334 0.47966 0.47498 0.0
C1123 C 0.34298 0.47287 0.45519 0.0
C1124 C 0.37972 0.46416 0.48629 0.0
C1125 C 0.37606 0.44155 0.47818 0.0
C1126 C 0.35576 0.43467 0.45882 0.0
C1127 C 0.33947 0.45015 0.44713 0.0
C1128 C 0.3933 0.42497 0.49014 0.0
C1129 C 0.38838 0.4086 0.52456 0.0
C1130 C 0.41454 0.4255 0.46869 0.0
C1131 C 0.42047 0.44198 0.43097 0.0
C1132 C 0.40784 0.44393 0.38827 0.0
C1133 C 0.41345 0.4596 0.35304 0.0
C1134 C 0.43176 0.47332 0.35994 0.0
C1135 C 0.44454 0.47134 0.40202 0.0
C1136 C 0.43898 0.45571 0.4374 0.0
C1137 C 0.45213 0.3369 0.5346 0.0
C1138 C 0.47355 0.34276 0.54954 0.0
C1139 C 0.43665 0.35318 0.52283 0.0
C1140 C 0.44212 0.37568 0.5266 0.0
C1141 C 0.46367 0.38157 0.5405 0.0
C1142 C 0.47925 0.36527 0.55179 0.0
C1143 C 0.42532 0.39302 0.51623 0.0
C1144 C 0.4303 0.40958 0.48216 0.0
C1145 C 0.40418 0.3928 0.53839 0.0
C1146 C 0.39838 0.37684 0.57732 0.0
C1147 C 0.41157 0.37503 0.61922 0.0
C1148 C 0.40615 0.35983 0.65557 0.0
C1149 C 0.38746 0.34646 0.65062 0.0
C1150 C 0.37412 0.34831 0.60936 0.0
C1151 C 0.37949 0.36346 0.57286 0.0
H1152 H 0.38328 0.3347 0.67881 0.0
H1153 H 0.43608 0.48544 0.33261 0.0
H1154 H 0.6566 0.95949 0.87385 0.0
H1155 H 0.62879 0.93185 0.85286 0.0
H1156 H 0.62394 0.95909 0.70846 0.0
H1157 H 0.65213 0.98656 0.72873 0.0
H1158 H 0.58299 0.95037 0.74922 0.0
H1159 H 0.65209 0.91257 0.7256 0.0
H1160 H 0.68906 0.89928 0.74948 0.0
H1161 H 0.66047 0.86211 0.86662 0.0
H1162 H 0.62335 0.87544 0.84386 0.0
H1163 H 0.52443 0.862 0.63849 0.0
H1164 H 0.55114 0.89067 0.66011 0.0
H1165 H 0.56212 0.85895 0.79851 0.0
H1166 H 0.53571 0.82999 0.77658 0.0
H1167 H 0.59997 0.87032 0.76106 0.0
H1168 H 0.53111 0.9076 0.78629 0.0
H1169 H 0.49393 0.92112 0.76482 0.0
H1170 H 0.52138 0.95946 0.6482 0.0
H1171 H 0.55871 0.94593 0.66856 0.0
C1172 C 0.64983 0.9595 0.83743 0.0
C1173 C 0.65676 0.97521 0.8029 0.0
C1174 C 0.63384 0.94373 0.82558 0.0
C1175 C 0.62443 0.94329 0.77897 0.0
C1176 C 0.63096 0.95917 0.74468 0.0
C1177 C 0.64703 0.97491 0.75642 0.0
C1178 C 0.60791 0.92615 0.76594 0.0
C1179 C 0.58675 0.93286 0.75118 0.0
C1180 C 0.61268 0.90332 0.76975 0.0
C1181 C 0.63497 0.89518 0.78331 0.0
C1182 C 0.65371 0.9017 0.75669 0.0
C1183 C 0.67468 0.89414 0.76998 0.0
C1184 C 0.67712 0.87991 0.80962 0.0
C1185 C 0.65857 0.87316 0.83596 0.0
C1186 C 0.63755 0.8807 0.82286 0.0
C1187 C 0.53237 0.86128 0.67374 0.0
C1188 C 0.52791 0.84378 0.70592 0.0
C1189 C 0.54763 0.87769 0.6861 0.0
C1190 C 0.55847 0.87718 0.73125 0.0
C1191 C 0.554 0.85972 0.76346 0.0
C1192 C 0.53891 0.84318 0.7509 0.0
C1193 C 0.57491 0.89448 0.7444 0.0
C1194 C 0.59611 0.88781 0.75915 0.0
C1195 C 0.57011 0.91736 0.74093 0.0
C1196 C 0.54768 0.92558 0.72867 0.0
C1197 C 0.5292 0.91878 0.75584 0.0
C1198 C 0.5081 0.92647 0.7439 0.0
C1199 C 0.50529 0.9411 0.70509 0.0
C1200 C 0.52358 0.94811 0.67821 0.0
C1201 C 0.54471 0.94045 0.68996 0.0
H1202 H 0.48894 0.94704 0.69592 0.0
H1203 H 0.69337 0.87407 0.81985 0.0
H1204 H 0.01373 0.1466 0.9898 0.0
H1205 H 0.04067 0.118 0.969 0.0
H1206 H 0.07813 0.13371 0.09778 0.0
H1207 H 0.05115 0.16213 0.11919 0.0
H1208 H 0.10459 0.12986 0.01903 0.0
H1209 H 0.04648 0.08759 0.09321 0.0
H1210 H 0.00818 0.07467 0.10447 0.0
H1211 H 0.00748 0.04927 0.95877 0.0
H1212 H 0.0457 0.06233 0.94639 0.0
H1213 H 0.17593 0.03716 0.02064 0.0
H1214 H 0.1478 0.06442 0.04237 0.0
H1215 H 0.11009 0.0467 0.91518 0.0
H1216 H 0.13816 0.01938 0.89321 0.0
H1217 H 0.08354 0.05154 0.9923 0.0
H1218 H 0.1413 0.09372 0.91755 0.0
H1219 H 0.1795 0.10677 0.90532 0.0
H1220 H 0.1807 0.13261 0.05063 0.0
H1221 H 0.14259 0.11944 0.06397 0.0
C1222 C 0.02754 0.1438 0.01405 0.0
C1223 C 0.03023 0.15668 0.05623 0.0
C1224 C 0.04297 0.12747 0.00202 0.0
C1225 C 0.06134 0.1236 0.03203 0.0
C1226 C 0.06412 0.13646 0.07402 0.0
C1227 C 0.04871 0.15276 0.0861 0.0
C1228 C 0.07786 0.10637 0.01934 0.0
C1229 C 0.10004 0.11268 0.01383 0.0
C1230 C 0.07183 0.08406 0.01131 0.0
C1231 C 0.04888 0.07614 0.01872 0.0
C1232 C 0.0381 0.07941 0.06343 0.0
C1233 C 0.01642 0.07204 0.07004 0.0
C1234 C 0.00538 0.06121 0.03232 0.0
C1235 C 0.01604 0.05769 0.98794 0.0
C1236 C 0.03772 0.06506 0.98112 0.0
C1237 C 0.16171 0.03914 0.99714 0.0
C1238 C 0.15936 0.02616 0.95505 0.0
C1239 C 0.14562 0.05472 0.00964 0.0
C1240 C 0.12696 0.05783 0.98005 0.0
C1241 C 0.12434 0.04459 0.93856 0.0
C1242 C 0.14038 0.02893 0.92613 0.0
C1243 C 0.11029 0.07502 0.99218 0.0
C1244 C 0.08809 0.06872 0.99751 0.0
C1245 C 0.11628 0.09738 0.99989 0.0
C1246 C 0.13917 0.1054 0.99191 0.0
C1247 C 0.14977 0.10204 0.94703 0.0
C1248 C 0.1714 0.10948 0.93987 0.0
C1249 C 0.18254 0.12046 0.97722 0.0
C1250 C 0.17205 0.12408 0.02176 0.0
C1251 C 0.15044 0.11664 0.02913 0.0
H1252 H 0.19928 0.12621 0.97161 0.0
H1253 H 0.9886 0.05551 0.03751 0.0
H1254 H 0.93855 0.67983 0.17073 0.0
H1255 H 0.91159 0.65127 0.1913 0.0
H1256 H 0.96383 0.61017 0.248 0.0
H1257 H 0.99093 0.6387 0.22747 0.0
H1258 H 0.93594 0.58631 0.19381 0.0
H1259 H 0.92903 0.63849 0.32401 0.0
H1260 H 0.92367 0.67526 0.36083 0.0
H1261 H 0.85962 0.68007 0.29454 0.0
H1262 H 0.86472 0.64344 0.25676 0.0
H1263 H 0.86689 0.51053 0.32109 0.0
H1264 H 0.89442 0.53836 0.29911 0.0
H1265 H 0.84295 0.57997 0.24086 0.0
H1266 H 0.81533 0.55217 0.26256 0.0
H1267 H 0.87073 0.60339 0.29644 0.0
H1268 H 0.87782 0.55106 0.16613 0.0
H1269 H 0.8833 0.51422 0.12976 0.0
H1270 H 0.94717 0.50957 0.19701 0.0
H1271 H 0.94193 0.54628 0.23435 0.0
C1272 C 0.9443 0.66481 0.18799 0.0
C1273 C 0.9669 0.66162 0.19771 0.0
C1274 C 0.92886 0.64847 0.19968 0.0
C1275 C 0.93563 0.62867 0.22179 0.0
C1276 C 0.95821 0.6253 0.23096 0.0
C1277 C 0.97369 0.64161 0.2191 0.0
C1278 C 0.91917 0.61146 0.23516 0.0
C1279 C 0.92184 0.58997 0.21681 0.0
C1280 C 0.90051 0.61632 0.26433 0.0
C1281 C 0.89735 0.63831 0.28718 0.0
C1282 C 0.91387 0.64746 0.31699 0.0
C1283 C 0.91087 0.66827 0.33808 0.0
C1284 C 0.89134 0.68002 0.32993 0.0
C1285 C 0.87475 0.67096 0.30077 0.0
C1286 C 0.87768 0.65017 0.27954 0.0
C1287 C 0.86145 0.52548 0.30305 0.0
C1288 C 0.83889 0.52909 0.29353 0.0
C1289 C 0.87721 0.5414 0.29058 0.0
C1290 C 0.87079 0.56119 0.26792 0.0
C1291 C 0.84829 0.56485 0.25841 0.0
C1292 C 0.83251 0.54897 0.27097 0.0
C1293 C 0.88745 0.57826 0.25495 0.0
C1294 C 0.88482 0.59973 0.27344 0.0
C1295 C 0.90617 0.57336 0.22599 0.0
C1296 C 0.90939 0.55132 0.20342 0.0
C1297 C 0.89296 0.54211 0.17347 0.0
C1298 C 0.89604 0.52126 0.15263 0.0
C1299 C 0.91555 0.50954 0.16117 0.0
C1300 C 0.93205 0.51866 0.19048 0.0
C1301 C 0.92904 0.53949 0.21146 0.0
H1302 H 0.9179 0.4934 0.14499 0.0
H1303 H 0.88905 0.69612 0.34629 0.0
H1304 H 0.33528 0.02883 0.7152 0.0
H1305 H 0.36317 0.05669 0.69609 0.0
H1306 H 0.3882 0.05262 0.8426 0.0
H1307 H 0.35973 0.02556 0.86267 0.0
H1308 H 0.38503 0.09431 0.81579 0.0
H1309 H 0.41562 0.02861 0.74489 0.0
H1310 H 0.41576 0.99531 0.6932 0.0
H1311 H 0.4051 0.03546 0.56664 0.0
H1312 H 0.40461 0.06898 0.61767 0.0
H1313 H 0.48404 0.15426 0.7742 0.0
H1314 H 0.45768 0.12497 0.79354 0.0
H1315 H 0.43137 0.12859 0.64807 0.0
H1316 H 0.45832 0.15715 0.62774 0.0
H1317 H 0.4357 0.08676 0.67506 0.0
H1318 H 0.40452 0.15236 0.74631 0.0
H1319 H 0.40443 0.18564 0.79807 0.0
H1320 H 0.41625 0.14554 0.9242 0.0
H1321 H 0.41671 0.11204 0.87307 0.0
C1322 C 0.34661 0.03395 0.7435 0.0
C1323 C 0.34524 0.02485 0.79048 0.0
C1324 C 0.36273 0.04973 0.73234 0.0
C1325 C 0.37801 0.05657 0.76772 0.0
C1326 C 0.37668 0.04755 0.81462 0.0
C1327 C 0.3605 0.03187 0.82589 0.0
C1328 C 0.39507 0.0735 0.75622 0.0
C1329 C 0.39632 0.09249 0.78543 0.0
C1330 C 0.4095 0.07141 0.71596 0.0
C1331 C 0.40988 0.05129 0.68517 0.0
C1332 C 0.41315 0.03032 0.70608 0.0
C1333 C 0.41331 0.01141 0.67689 0.0
C1334 C 0.41039 0.01326 0.62669 0.0
C1335 C 0.40734 0.03404 0.60554 0.0
C1336 C 0.40714 0.05301 0.63458 0.0
C1337 C 0.47283 0.14867 0.7461 0.0
C1338 C 0.47327 0.1582 0.69943 0.0
C1339 C 0.45759 0.13207 0.7574 0.0
C1340 C 0.44229 0.12478 0.72248 0.0
C1341 C 0.44291 0.134 0.6757 0.0
C1342 C 0.45821 0.15052 0.66429 0.0
C1343 C 0.42563 0.10757 0.73459 0.0
C1344 C 0.42443 0.08854 0.70549 0.0
C1345 C 0.41126 0.10961 0.77497 0.0
C1346 C 0.41086 0.12972 0.80579 0.0
C1347 C 0.40726 0.15066 0.78503 0.0
C1348 C 0.40712 0.16956 0.81427 0.0
C1349 C 0.41039 0.16771 0.86437 0.0
C1350 C 0.41375 0.14695 0.88537 0.0
C1351 C 0.41393 0.128 0.85629 0.0
H1352 H 0.41028 0.18236 0.88694 0.0
H1353 H 0.41052 0.9986 0.60415 0.0
H1354 H 0.86935 0.99863 0.94167 0.0
H1355 H 0.89798 0.97172 0.96283 0.0
H1356 H 0.84774 0.9229 0.99201 0.0
H1357 H 0.81908 0.94975 0.97123 0.0
H1358 H 0.87825 0.92207 0.06093 0.0
H1359 H 0.8787 0.92234 0.8861 0.0
H1360 H 0.88117 0.93924 0.80472 0.0
H1361 H 0.94643 0.96287 0.83714 0.0
H1362 H 0.94423 0.94635 0.919 0.0
H1363 H 0.94429 0.82578 0.06303 0.0
H1364 H 0.91716 0.8541 0.04195 0.0
H1365 H 0.96977 0.90079 0.01635 0.0
H1366 H 0.99706 0.87241 0.03718 0.0
H1367 H 0.93901 0.90372 0.9468 0.0
H1368 H 0.93883 0.9025 0.12111 0.0
H1369 H 0.9363 0.8853 0.20217 0.0
H1370 H 0.8704 0.86329 0.17054 0.0
H1371 H 0.87265 0.8801 0.089 0.0
C1372 C 0.86442 0.98212 0.95233 0.0
C1373 C 0.84194 0.97633 0.9547 0.0
C1374 C 0.8808 0.96674 0.9644 0.0
C1375 C 0.87504 0.94517 0.97848 0.0
C1376 C 0.8526 0.93944 0.98135 0.0
C1377 C 0.83622 0.95483 0.96957 0.0
C1378 C 0.89233 0.92856 0.99047 0.0
C1379 C 0.89138 0.91787 0.03571 0.0
C1380 C 0.90981 0.92346 0.95813 0.0
C1381 C 0.91121 0.9333 0.90884 0.0
C1382 C 0.89351 0.93128 0.876 0.0
C1383 C 0.89487 0.94077 0.82977 0.0
C1384 C 0.91392 0.95217 0.81582 0.0
C1385 C 0.93167 0.95406 0.84803 0.0
C1386 C 0.93039 0.94462 0.89433 0.0
C1387 C 0.95009 0.84212 0.05327 0.0
C1388 C 0.97283 0.84691 0.05221 0.0
C1389 C 0.93456 0.8583 0.04118 0.0
C1390 C 0.94139 0.8797 0.02833 0.0
C1391 C 0.9641 0.88441 0.02626 0.0
C1392 C 0.97967 0.86818 0.03809 0.0
C1393 C 0.92482 0.89712 0.01709 0.0
C1394 C 0.92592 0.90797 0.97206 0.0
C1395 C 0.90744 0.90237 0.0496 0.0
C1396 C 0.90598 0.8924 0.09878 0.0
C1397 C 0.92385 0.89386 0.13131 0.0
C1398 C 0.92246 0.8842 0.17736 0.0
C1399 C 0.90322 0.87316 0.19145 0.0
C1400 C 0.8853 0.87182 0.15956 0.0
C1401 C 0.88662 0.88143 0.11344 0.0
H1402 H 0.90218 0.86569 0.22712 0.0
H1403 H 0.91494 0.95951 0.78001 0.0
H1404 H 0.04206 0.34722 0.11942 0.0
H1405 H 0.06882 0.37593 0.14028 0.0
H1406 H 0.04754 0.37351 0.28981 0.0
H1407 H 0.02069 0.34476 0.26917 0.0
H1408 H 0.05274 0.41543 0.26053 0.0
H1409 H 0.09567 0.34891 0.25383 0.0
H1410 H 0.10988 0.31454 0.21721 0.0
H1411 H 0.13829 0.35172 0.09989 0.0
H1412 H 0.12397 0.3863 0.13547 0.0
H1413 H 0.14493 0.471 0.36489 0.0
H1414 H 0.11674 0.44399 0.34244 0.0
H1415 H 0.13701 0.44832 0.19249 0.0
H1416 H 0.16509 0.47561 0.21451 0.0
H1417 H 0.1322 0.40572 0.22153 0.0
H1418 H 0.08955 0.47245 0.22979 0.0
H1419 H 0.07548 0.50663 0.26754 0.0
H1420 H 0.0468 0.46877 0.38348 0.0
H1421 H 0.06098 0.43437 0.34676 0.0
C1422 C 0.04317 0.35268 0.15683 0.0
C1423 C 0.02932 0.34359 0.19269 0.0
C1424 C 0.05847 0.36912 0.16869 0.0
C1425 C 0.0604 0.37669 0.21675 0.0
C1426 C 0.04634 0.36794 0.25248 0.0
C1427 C 0.03096 0.35154 0.24061 0.0
C1428 C 0.07717 0.39365 0.22975 0.0
C1429 C 0.07016 0.41318 0.25257 0.0
C1430 C 0.09984 0.39094 0.21846 0.0
C1431 C 0.10855 0.37017 0.19707 0.0
C1432 C 0.1048 0.34974 0.22003 0.0
C1433 C 0.1129 0.33022 0.19949 0.0
C1434 C 0.12493 0.33094 0.15618 0.0
C1435 C 0.12894 0.35119 0.13339 0.0
C1436 C 0.12085 0.37075 0.15375 0.0
C1437 C 0.1432 0.46649 0.32699 0.0
C1438 C 0.15727 0.47558 0.29148 0.0
C1439 C 0.1271 0.45098 0.31425 0.0
C1440 C 0.12463 0.44426 0.26572 0.0
C1441 C 0.13864 0.45323 0.23018 0.0
C1442 C 0.15474 0.46879 0.24287 0.0
C1443 C 0.10777 0.4275 0.25224 0.0
C1444 C 0.11478 0.40798 0.22939 0.0
C1445 C 0.08512 0.4302 0.26368 0.0
C1446 C 0.07651 0.45085 0.28576 0.0
C1447 C 0.0804 0.47143 0.26354 0.0
C1448 C 0.07237 0.49084 0.28472 0.0
C1449 C 0.0603 0.48988 0.32795 0.0
C1450 C 0.05618 0.46949 0.35003 0.0
C1451 C 0.06419 0.45003 0.32902 0.0
H1452 H 0.0541 0.50492 0.34428 0.0
H1453 H 0.13119 0.31581 0.14034 0.0
H1454 H 0.50482 0.63 0.53946 0.0
H1455 H 0.53188 0.60143 0.519 0.0
H1456 H 0.58318 0.65084 0.51256 0.0
H1457 H 0.55629 0.67944 0.53321 0.0
H1458 H 0.58617 0.62271 0.43726 0.0
H1459 H 0.57795 0.61671 0.6108 0.0
H1460 H 0.55726 0.61215 0.68735 0.0
H1461 H 0.53382 0.54881 0.63939 0.0
H1462 H 0.55413 0.55314 0.56222 0.0
H1463 H 0.68057 0.55403 0.44467 0.0
H1464 H 0.65207 0.58134 0.46346 0.0
H1465 H 0.60343 0.52939 0.47298 0.0
H1466 H 0.63197 0.50193 0.45461 0.0
H1467 H 0.59802 0.55803 0.54506 0.0
H1468 H 0.60685 0.56342 0.37245 0.0
H1469 H 0.62738 0.56787 0.29566 0.0
H1470 H 0.64931 0.63213 0.34108 0.0
H1471 H 0.62916 0.62793 0.41847 0.0
C1472 C 0.52189 0.63477 0.53397 0.0
C1473 C 0.52838 0.65703 0.53807 0.0
C1474 C 0.53733 0.61842 0.52222 0.0
C1475 C 0.55962 0.62395 0.51474 0.0
C1476 C 0.56607 0.64618 0.51807 0.0
C1477 C 0.55064 0.66253 0.52971 0.0
C1478 C 0.57628 0.60662 0.50359 0.0
C1479 C 0.58894 0.6087 0.46111 0.0
C1480 C 0.5795 0.58804 0.53406 0.0
C1481 C 0.56738 0.58536 0.58054 0.0
C1482 C 0.56825 0.60189 0.61642 0.0
C1483 C 0.55661 0.59933 0.65995 0.0
C1484 C 0.54418 0.58023 0.66817 0.0
C1485 C 0.54342 0.56362 0.63294 0.0
C1486 C 0.55501 0.5661 0.58932 0.0
C1487 C 0.66377 0.54843 0.45044 0.0
C1488 C 0.65849 0.52583 0.4478 0.0
C1489 C 0.64749 0.56406 0.46118 0.0
C1490 C 0.6255 0.55748 0.46886 0.0
C1491 C 0.62026 0.53488 0.46711 0.0
C1492 C 0.63658 0.5192 0.4567 0.0
C1493 C 0.60804 0.57418 0.47885 0.0
C1494 C 0.59521 0.57199 0.52108 0.0
C1495 C 0.60462 0.59264 0.44809 0.0
C1496 C 0.61665 0.59527 0.40144 0.0
C1497 C 0.61618 0.57843 0.36621 0.0
C1498 C 0.62773 0.58092 0.32256 0.0
C1499 C 0.63968 0.60025 0.31354 0.0
C1500 C 0.64006 0.61715 0.34813 0.0
C1501 C 0.62856 0.61474 0.39187 0.0
H1502 H 0.64862 0.60214 0.27972 0.0
H1503 H 0.53519 0.57828 0.7019 0.0
loop_
_geom_bond_atom_site_label_1
_geom_bond_atom_site_label_2
_geom_bond_distance
_geom_bond_site_symmetry_2
_ccdc_geom_bond_type
Li0 N17 1.990 . S
Li0 O60 1.956 . S
Li0 O61 1.970 . S
Li0 O62 1.961 . S
Li1 N25 1.990 . S
Li1 O60 1.970 . S
Li1 O61 1.956 . S
Li1 O63 1.961 . S
Li2 N47 1.990 . S
Li2 O60 1.961 . S
Li2 O62 1.956 . S
Li2 O63 1.970 . S
Li3 N53 1.990 . S
Li3 O61 1.961 . S
Li3 O62 1.970 . S
Li3 O63 1.956 . S
C4 C6 1.348 . S
C4 C7 1.356 . S
C4 O60 1.325 . S
N5 C8 1.314 . S
N5 C9 1.279 . S
C6 C4 1.348 . S
C6 C8 1.353 . S
C6 H64 0.929 . S
C7 C4 1.356 . S
C7 C9 1.358 . S
C7 H65 0.930 . S
C8 N5 1.314 . S
C8 C6 1.353 . S
C8 H66 0.930 . S
C9 N5 1.279 . S
C9 C7 1.358 . S
C9 H67 0.930 . S
C10 C13 1.348 . S
C10 C14 1.356 . S
C10 O61 1.325 . S
C11 N12 1.279 . S
C11 C14 1.358 . S
C11 H68 0.930 . S
N12 C11 1.279 . S
N12 C15 1.314 . S
C13 C10 1.348 . S
C13 C15 1.353 . S
C13 H69 0.929 . S
C14 C10 1.356 . S
C14 C11 1.358 . S
C14 H70 0.930 . S
C15 N12 1.314 . S
C15 C13 1.353 . S
C15 H71 0.930 . S
C16 N17 1.314 . S
C16 C21 1.353 . S
C16 H22 0.930 . S
N17 Li0 1.990 . S
N17 C16 1.314 . S
N17 C19 1.279 . S
C18 C19 1.358 . S
C18 C20 1.356 . S
C18 H72 0.930 . S
C19 N17 1.279 . S
C19 C18 1.358 . S
C19 H23 0.930 . S
C20 C18 1.356 . S
C20 C21 1.348 . S
C21 C16 1.353 . S
C21 C20 1.348 . S
C21 H73 0.929 . S
H22 C16 0.930 . S
H23 C19 0.930 . S
C24 N25 1.314 . S
C24 C26 1.353 . S
C24 H30 0.930 . S
N25 Li1 1.990 . S
N25 C24 1.314 . S
N25 C28 1.279 . S
C26 C24 1.353 . S
C26 C29 1.348 . S
C26 H74 0.929 . S
C27 C28 1.358 . S
C27 C29 1.356 . S
C27 H75 0.930 . S
C28 N25 1.279 . S
C28 C27 1.358 . S
C28 H31 0.930 . S
C29 C26 1.348 . S
C29 C27 1.356 . S
H30 C24 0.930 . S
H31 C28 0.930 . S
C32 C34 1.348 . S
C32 C35 1.356 . S
C32 O62 1.325 . S
N33 C36 1.314 . S
N33 C37 1.279 . S
C34 C32 1.348 . S
C34 C36 1.353 . S
C34 H76 0.929 . S
C35 C32 1.356 . S
C35 C37 1.358 . S
C35 H77 0.930 . S
C36 N33 1.314 . S
C36 C34 1.353 . S
C36 H78 0.930 . S
C37 N33 1.279 . S
C37 C35 1.358 . S
C37 H79 0.930 . S
C38 C39 1.348 . S
C38 C40 1.356 . S
C38 O63 1.325 . S
C39 C38 1.348 . S
C39 C41 1.353 . S
C39 H80 0.929 . S
C40 C38 1.356 . S
C40 C42 1.358 . S
C40 H81 0.930 . S
C41 C39 1.353 . S
C41 N43 1.314 . S
C41 H82 0.930 . S
C42 C40 1.358 . S
C42 N43 1.279 . S
C42 H83 0.930 . S
N43 C41 1.314 . S
N43 C42 1.279 . S
C44 C46 1.353 . S
C44 N47 1.314 . S
C44 H50 0.930 . S
C45 N47 1.279 . S
C45 C48 1.358 . S
C45 H51 0.930 . S
C46 C44 1.353 . S
C46 C49 1.348 . S
C46 H84 0.929 . S
N47 Li2 1.990 . S
N47 C44 1.314 . S
N47 C45 1.279 . S
C48 C45 1.358 . S
C48 C49 1.356 . S
C48 H85 0.930 . S
C49 C46 1.348 . S
C49 C48 1.356 . S
H50 C44 0.930 . S
H51 C45 0.930 . S
C52 N53 1.314 . S
C52 C54 1.353 . S
C52 H58 0.930 . S
N53 Li3 1.990 . S
N53 C52 1.314 . S
N53 C56 1.279 . S
C54 C52 1.353 . S
C54 C57 1.348 . S
C54 H86 0.929 . S
C55 C56 1.358 . S
C55 C57 1.356 . S
C55 H87 0.930 . S
C56 N53 1.279 . S
C56 C55 1.358 . S
C56 H59 0.930 . S
C57 C54 1.348 . S
C57 C55 1.356 . S
H58 C52 0.930 . S
H59 C56 0.930 . S
O60 Li0 1.956 . S
O60 Li1 1.970 . S
O60 Li2 1.961 . S
O60 C4 1.325 . S
O61 Li0 1.970 . S
O61 Li1 1.956 . S
O61 Li3 1.961 . S
O61 C10 1.325 . S
O62 Li0 1.961 . S
O62 Li2 1.956 . S
O62 Li3 1.970 . S
O62 C32 1.325 . S
O63 Li1 1.961 . S
O63 Li2 1.970 . S
O63 Li3 1.956 . S
O63 C38 1.325 . S
H64 C6 0.929 . S
H65 C7 0.930 . S
H66 C8 0.930 . S
H67 C9 0.930 . S
H68 C11 0.930 . S
H69 C13 0.929 . S
H70 C14 0.930 . S
H71 C15 0.930 . S
H72 C18 0.930 . S
H73 C21 0.929 . S
H74 C26 0.929 . S
H75 C27 0.930 . S
H76 C34 0.929 . S
H77 C35 0.930 . S
H78 C36 0.930 . S
H79 C37 0.930 . S
H80 C39 0.929 . S
H81 C40 0.930 . S
H82 C41 0.930 . S
H83 C42 0.930 . S
H84 C46 0.929 . S
H85 C48 0.930 . S
H86 C54 0.929 . S
H87 C55 0.930 . S
Li88 N105 1.990 . S
Li88 O148 1.956 . S
Li88 O149 1.970 . S
Li88 O150 1.961 . S
Li89 N113 1.990 . S
Li89 O148 1.970 . S
Li89 O149 1.956 . S
Li89 O151 1.961 . S
Li90 N135 1.990 . S
Li90 O148 1.961 . S
Li90 O150 1.956 . S
Li90 O151 1.970 . S
Li91 N141 1.990 . S
Li91 O149 1.961 . S
Li91 O150 1.970 . S
Li91 O151 1.956 . S
C92 C94 1.348 . S
C92 C95 1.356 . S
C92 O148 1.325 . S
N93 C96 1.314 . S
N93 C97 1.279 . S
C94 C92 1.348 . S
C94 C96 1.353 . S
C94 H152 0.929 . S
C95 C92 1.356 . S
C95 C97 1.358 . S
C95 H153 0.930 . S
C96 N93 1.314 . S
C96 C94 1.353 . S
C96 H154 0.930 . S
C97 N93 1.279 . S
C97 C95 1.358 . S
C97 H155 0.930 . S
C98 C101 1.348 . S
C98 C102 1.356 . S
C98 O149 1.325 . S
C99 N100 1.279 . S
C99 C102 1.358 . S
C99 H156 0.930 . S
N100 C99 1.279 . S
N100 C103 1.314 . S
C101 C98 1.348 . S
C101 C103 1.353 . S
C101 H157 0.929 . S
C102 C98 1.356 . S
C102 C99 1.358 . S
C102 H158 0.930 . S
C103 N100 1.314 . S
C103 C101 1.353 . S
C103 H159 0.930 . S
C104 N105 1.314 . S
C104 C109 1.353 . S
C104 H110 0.930 . S
N105 Li88 1.990 . S
N105 C104 1.314 . S
N105 C107 1.279 . S
C106 C107 1.358 . S
C106 C108 1.356 . S
C106 H160 0.930 . S
C107 N105 1.279 . S
C107 C106 1.358 . S
C107 H111 0.930 . S
C108 C106 1.356 . S
C108 C109 1.348 . S
C109 C104 1.353 . S
C109 C108 1.348 . S
C109 H161 0.929 . S
H110 C104 0.930 . S
H111 C107 0.930 . S
C112 N113 1.314 . S
C112 C114 1.353 . S
C112 H118 0.930 . S
N113 Li89 1.990 . S
N113 C112 1.314 . S
N113 C116 1.279 . S
C114 C112 1.353 . S
C114 C117 1.348 . S
C114 H162 0.929 . S
C115 C116 1.358 . S
C115 C117 1.356 . S
C115 H163 0.930 . S
C116 N113 1.279 . S
C116 C115 1.358 . S
C116 H119 0.930 . S
C117 C114 1.348 . S
C117 C115 1.356 . S
H118 C112 0.930 . S
H119 C116 0.930 . S
C120 C122 1.348 . S
C120 C123 1.356 . S
C120 O150 1.325 . S
N121 C124 1.314 . S
N121 C125 1.279 . S
C122 C120 1.348 . S
C122 C124 1.353 . S
C122 H164 0.929 . S
C123 C120 1.356 . S
C123 C125 1.358 . S
C123 H165 0.930 . S
C124 N121 1.314 . S
C124 C122 1.353 . S
C124 H166 0.930 . S
C125 N121 1.279 . S
C125 C123 1.358 . S
C125 H167 0.930 . S
C126 C127 1.348 . S
C126 C128 1.356 . S
C126 O151 1.325 . S
C127 C126 1.348 . S
C127 C129 1.353 . S
C127 H168 0.929 . S
C128 C126 1.356 . S
C128 C130 1.358 . S
C128 H169 0.930 . S
C129 C127 1.353 . S
C129 N131 1.314 . S
C129 H170 0.930 . S
C130 C128 1.358 . S
C130 N131 1.279 . S
C130 H171 0.930 . S
N131 C129 1.314 . S
N131 C130 1.279 . S
C132 C134 1.353 . S
C132 N135 1.314 . S
C132 H138 0.930 . S
C133 N135 1.279 . S
C133 C136 1.358 . S
C133 H139 0.930 . S
C134 C132 1.353 . S
C134 C137 1.348 . S
C134 H172 0.929 . S
N135 Li90 1.990 . S
N135 C132 1.314 . S
N135 C133 1.279 . S
C136 C133 1.358 . S
C136 C137 1.356 . S
C136 H173 0.930 . S
C137 C134 1.348 . S
C137 C136 1.356 . S
H138 C132 0.930 . S
H139 C133 0.930 . S
C140 N141 1.314 . S
C140 C142 1.353 . S
C140 H146 0.930 . S
N141 Li91 1.990 . S
N141 C140 1.314 . S
N141 C144 1.279 . S
C142 C140 1.353 . S
C142 C145 1.348 . S
C142 H174 0.929 . S
C143 C144 1.358 . S
C143 C145 1.356 . S
C143 H175 0.930 . S
C144 N141 1.279 . S
C144 C143 1.358 . S
C144 H147 0.930 . S
C145 C142 1.348 . S
C145 C143 1.356 . S
H146 C140 0.930 . S
H147 C144 0.930 . S
O148 Li88 1.956 . S
O148 Li89 1.970 . S
O148 Li90 1.961 . S
O148 C92 1.325 . S
O149 Li88 1.970 . S
O149 Li89 1.956 . S
O149 Li91 1.961 . S
O149 C98 1.325 . S
O150 Li88 1.961 . S
O150 Li90 1.956 . S
O150 Li91 1.970 . S
O150 C120 1.325 . S
O151 Li89 1.961 . S
O151 Li90 1.970 . S
O151 Li91 1.956 . S
O151 C126 1.325 . S
H152 C94 0.929 . S
H153 C95 0.930 . S
H154 C96 0.930 . S
H155 C97 0.930 . S
H156 C99 0.930 . S
H157 C101 0.929 . S
H158 C102 0.930 . S
H159 C103 0.930 . S
H160 C106 0.930 . S
H161 C109 0.929 . S
H162 C114 0.929 . S
H163 C115 0.930 . S
H164 C122 0.929 . S
H165 C123 0.930 . S
H166 C124 0.930 . S
H167 C125 0.930 . S
H168 C127 0.929 . S
H169 C128 0.930 . S
H170 C129 0.930 . S
H171 C130 0.930 . S
H172 C134 0.929 . S
H173 C136 0.930 . S
H174 C142 0.929 . S
H175 C143 0.930 . S
Li176 N193 1.990 . S
Li176 O236 1.956 . S
Li176 O237 1.970 . S
Li176 O238 1.961 . S
Li177 N201 1.990 . S
Li177 O236 1.970 . S
Li177 O237 1.956 . S
Li177 O239 1.961 . S
Li178 N223 1.990 . S
Li178 O236 1.961 . S
Li178 O238 1.956 . S
Li178 O239 1.970 . S
Li179 N229 1.990 . S
Li179 O237 1.961 . S
Li179 O238 1.970 . S
Li179 O239 1.956 . S
C180 C182 1.348 . S
C180 C183 1.356 . S
C180 O236 1.325 . S
N181 C184 1.314 . S
N181 C185 1.279 . S
C182 C180 1.348 . S
C182 C184 1.353 . S
C182 H240 0.929 . S
C183 C180 1.356 . S
C183 C185 1.358 . S
C183 H241 0.930 . S
C184 N181 1.314 . S
C184 C182 1.353 . S
C184 H242 0.930 . S
C185 N181 1.279 . S
C185 C183 1.358 . S
C185 H243 0.930 . S
C186 C189 1.348 . S
C186 C190 1.351 1_556 S
C186 O237 1.325 . S
C187 N188 1.282 . S
C187 C190 1.363 . S
C187 H244 0.930 . S
N188 C187 1.282 . S
N188 C191 1.315 1_554 S
C189 C186 1.348 . S
C189 C191 1.353 . S
C189 H245 0.929 . S
C190 C186 1.351 1_554 S
C190 C187 1.363 . S
C190 H246 0.930 . S
C191 N188 1.315 1_556 S
C191 C189 1.353 . S
C191 H247 0.930 1_565 S
C192 N193 1.334 . S
C192 C197 1.340 1_565 S
C192 H198 0.922 1_565 S
N193 Li176 1.990 . S
N193 C192 1.334 . S
N193 C195 1.279 . S
C194 C195 1.358 . S
C194 C196 1.356 1_565 S
C194 H248 0.930 . S
C195 N193 1.279 . S
C195 C194 1.358 . S
C195 H199 0.930 . S
C196 C194 1.356 1_545 S
C196 C197 1.348 . S
C197 C192 1.340 1_545 S
C197 C196 1.348 . S
C197 H249 0.929 . S
H198 C192 0.922 1_545 S
H199 C195 0.930 . S
C200 N201 1.314 . S
C200 C202 1.353 1_556 S
C200 H206 0.930 . S
N201 Li177 1.990 . S
N201 C200 1.314 . S
N201 C204 1.279 1_556 S
C202 C200 1.353 1_554 S
C202 C205 1.348 . S
C202 H250 0.929 . S
C203 C204 1.358 . S
C203 C205 1.356 . S
C203 H251 0.930 . S
C204 N201 1.279 1_554 S
C204 C203 1.358 . S
C204 H207 0.930 . S
C205 C202 1.348 . S
C205 C203 1.356 . S
H206 C200 0.930 . S
H207 C204 0.930 . S
C208 C210 1.348 . S
C208 C211 1.356 . S
C208 O238 1.325 . S
N209 C212 1.315 . S
N209 C213 1.282 . S
C210 C208 1.348 . S
C210 C212 1.353 . S
C210 H252 0.929 . S
C211 C208 1.356 . S
C211 C213 1.358 . S
C211 H253 0.930 . S
C212 N209 1.315 . S
C212 C210 1.353 . S
C212 H254 0.930 1_565 S
C213 N209 1.282 . S
C213 C211 1.358 . S
C213 H255 0.930 . S
C214 C215 1.348 . S
C214 C216 1.356 . S
C214 O239 1.325 . S
C215 C214 1.348 . S
C215 C217 1.353 . S
C215 H256 0.929 . S
C216 C214 1.356 . S
C216 C218 1.358 . S
C216 H257 0.930 . S
C217 C215 1.353 . S
C217 N219 1.314 . S
C217 H258 0.930 . S
C218 C216 1.358 . S
C218 N219 1.279 . S
C218 H259 0.930 1_556 S
N219 C217 1.314 . S
N219 C218 1.279 . S
C220 C222 1.353 . S
C220 N223 1.314 . S
C220 H226 0.930 . S
C221 N223 1.279 . S
C221 C224 1.358 . S
C221 H227 0.930 . S
C222 C220 1.353 . S
C222 C225 1.348 . S
C222 H260 0.929 . S
N223 Li178 1.990 . S
N223 C220 1.314 . S
N223 C221 1.279 . S
C224 C221 1.358 . S
C224 C225 1.356 . S
C224 H261 0.930 . S
C225 C222 1.348 . S
C225 C224 1.356 . S
H226 C220 0.930 . S
H227 C221 0.930 . S
C228 N229 1.334 . S
C228 C230 1.340 1_565 S
C228 H234 0.922 1_565 S
N229 Li179 1.990 . S
N229 C228 1.334 . S
N229 C232 1.279 . S
C230 C228 1.340 1_545 S
C230 C233 1.348 . S
C230 H262 0.929 . S
C231 C232 1.358 . S
C231 C233 1.356 1_565 S
C231 H263 0.930 . S
C232 N229 1.279 . S
C232 C231 1.358 . S
C232 H235 0.930 . S
C233 C230 1.348 . S
C233 C231 1.356 1_545 S
H234 C228 0.922 1_545 S
H235 C232 0.930 . S
O236 Li176 1.956 . S
O236 Li177 1.970 . S
O236 Li178 1.961 . S
O236 C180 1.325 . S
O237 Li176 1.970 . S
O237 Li177 1.956 . S
O237 Li179 1.961 . S
O237 C186 1.325 . S
O238 Li176 1.961 . S
O238 Li178 1.956 . S
O238 Li179 1.970 . S
O238 C208 1.325 . S
O239 Li177 1.961 . S
O239 Li178 1.970 . S
O239 Li179 1.956 . S
O239 C214 1.325 . S
H240 C182 0.929 . S
H241 C183 0.930 . S
H242 C184 0.930 . S
H243 C185 0.930 . S
H244 C187 0.930 . S
H245 C189 0.929 . S
H246 C190 0.930 . S
H247 C191 0.930 1_545 S
H248 C194 0.930 . S
H249 C197 0.929 . S
H250 C202 0.929 . S
H251 C203 0.930 . S
H252 C210 0.929 . S
H253 C211 0.930 . S
H254 C212 0.930 1_545 S
H255 C213 0.930 . S
H256 C215 0.929 . S
H257 C216 0.930 . S
H258 C217 0.930 . S
H259 C218 0.930 1_554 S
H260 C222 0.929 . S
H261 C224 0.930 . S
H262 C230 0.929 . S
H263 C231 0.930 . S
Li264 N281 1.990 . S
Li264 O324 1.956 . S
Li264 O325 1.970 . S
Li264 O326 1.961 . S
Li265 N289 1.990 . S
Li265 O324 1.970 . S
Li265 O325 1.956 . S
Li265 O327 1.961 . S
Li266 N311 1.990 . S
Li266 O324 1.961 . S
Li266 O326 1.956 . S
Li266 O327 1.970 . S
Li267 N317 1.990 . S
Li267 O325 1.961 . S
Li267 O326 1.970 . S
Li267 O327 1.956 . S
C268 C270 1.348 . S
C268 C271 1.356 . S
C268 O324 1.325 . S
N269 C272 1.314 . S
N269 C273 1.279 . S
C270 C268 1.348 . S
C270 C272 1.353 . S
C270 H328 0.929 . S
C271 C268 1.356 . S
C271 C273 1.358 . S
C271 H329 0.930 . S
C272 N269 1.314 . S
C272 C270 1.353 . S
C272 H330 0.930 . S
C273 N269 1.279 . S
C273 C271 1.358 . S
C273 H331 0.930 1_554 S
C274 C277 1.348 . S
C274 C278 1.356 . S
C274 O325 1.325 . S
C275 N276 1.282 . S
C275 C278 1.358 . S
C275 H332 0.930 . S
N276 C275 1.282 . S
N276 C279 1.315 . S
C277 C274 1.348 . S
C277 C279 1.353 . S
C277 H333 0.929 . S
C278 C274 1.356 . S
C278 C275 1.358 . S
C278 H334 0.930 . S
C279 N276 1.315 . S
C279 C277 1.353 . S
C279 H335 0.930 1_455 S
C280 N281 1.334 . S
C280 C285 1.340 1_455 S
C280 H286 0.922 1_455 S
N281 Li264 1.990 . S
N281 C280 1.334 . S
N281 C283 1.279 . S
C282 C283 1.358 . S
C282 C284 1.356 1_455 S
C282 H336 0.930 . S
C283 N281 1.279 . S
C283 C282 1.358 . S
C283 H287 0.930 . S
C284 C282 1.356 1_655 S
C284 C285 1.348 . S
C285 C280 1.340 1_655 S
C285 C284 1.348 . S
C285 H337 0.929 . S
H286 C280 0.922 1_655 S
H287 C283 0.930 . S
C288 N289 1.314 . S
C288 C290 1.353 . S
C288 H294 0.930 . S
N289 Li265 1.990 . S
N289 C288 1.314 . S
N289 C292 1.279 . S
C290 C288 1.353 . S
C290 C293 1.348 . S
C290 H338 0.929 . S
C291 C292 1.358 . S
C291 C293 1.356 . S
C291 H339 0.930 . S
C292 N289 1.279 . S
C292 C291 1.358 . S
C292 H295 0.930 . S
C293 C290 1.348 . S
C293 C291 1.356 . S
H294 C288 0.930 . S
H295 C292 0.930 . S
C296 C298 1.348 . S
C296 C299 1.351 1_554 S
C296 O326 1.325 . S
N297 C300 1.315 1_556 S
N297 C301 1.282 . S
C298 C296 1.348 . S
C298 C300 1.353 . S
C298 H340 0.929 . S
C299 C296 1.351 1_556 S
C299 C301 1.363 . S
C299 H341 0.930 . S
C300 N297 1.315 1_554 S
C300 C298 1.353 . S
C300 H342 0.930 1_455 S
C301 N297 1.282 . S
C301 C299 1.363 . S
C301 H343 0.930 . S
C302 C303 1.348 . S
C302 C304 1.356 . S
C302 O327 1.325 . S
C303 C302 1.348 . S
C303 C305 1.353 . S
C303 H344 0.929 . S
C304 C302 1.356 . S
C304 C306 1.358 . S
C304 H345 0.930 . S
C305 C303 1.353 . S
C305 N307 1.314 . S
C305 H346 0.930 . S
C306 C304 1.358 . S
C306 N307 1.279 . S
C306 H347 0.930 . S
N307 C305 1.314 . S
N307 C306 1.279 . S
C308 C310 1.353 1_554 S
C308 N311 1.314 . S
C308 H314 0.930 . S
C309 N311 1.279 1_556 S
C309 C312 1.358 . S
C309 H315 0.930 . S
C310 C308 1.353 1_556 S
C310 C313 1.348 . S
C310 H348 0.929 . S
N311 Li266 1.990 . S
N311 C308 1.314 . S
N311 C309 1.279 1_554 S
C312 C309 1.358 . S
C312 C313 1.356 . S
C312 H349 0.930 . S
C313 C310 1.348 . S
C313 C312 1.356 . S
H314 C308 0.930 . S
H315 C309 0.930 . S
C316 N317 1.334 . S
C316 C318 1.340 1_455 S
C316 H322 0.922 1_455 S
N317 Li267 1.990 . S
N317 C316 1.334 . S
N317 C320 1.279 . S
C318 C316 1.340 1_655 S
C318 C321 1.348 . S
C318 H350 0.929 . S
C319 C320 1.358 . S
C319 C321 1.356 1_455 S
C319 H351 0.930 . S
C320 N317 1.279 . S
C320 C319 1.358 . S
C320 H323 0.930 . S
C321 C318 1.348 . S
C321 C319 1.356 1_655 S
H322 C316 0.922 1_655 S
H323 C320 0.930 . S
O324 Li264 1.956 . S
O324 Li265 1.970 . S
O324 Li266 1.961 . S
O324 C268 1.325 . S
O325 Li264 1.970 . S
O325 Li265 1.956 . S
O325 Li267 1.961 . S
O325 C274 1.325 . S
O326 Li264 1.961 . S
O326 Li266 1.956 . S
O326 Li267 1.970 . S
O326 C296 1.325 . S
O327 Li265 1.961 . S
O327 Li266 1.970 . S
O327 Li267 1.956 . S
O327 C302 1.325 . S
H328 C270 0.929 . S
H329 C271 0.930 . S
H330 C272 0.930 . S
H331 C273 0.930 1_556 S
H332 C275 0.930 . S
H333 C277 0.929 . S
H334 C278 0.930 . S
H335 C279 0.930 1_655 S
H336 C282 0.930 . S
H337 C285 0.929 . S
H338 C290 0.929 . S
H339 C291 0.930 . S
H340 C298 0.929 . S
H341 C299 0.930 . S
H342 C300 0.930 1_655 S
H343 C301 0.930 . S
H344 C303 0.929 . S
H345 C304 0.930 . S
H346 C305 0.930 . S
H347 C306 0.930 . S
H348 C310 0.929 . S
H349 C312 0.930 . S
H350 C318 0.929 . S
H351 C319 0.930 . S
Li352 N369 1.990 . S
Li352 O412 1.956 . S
Li352 O413 1.970 . S
Li352 O414 1.961 . S
Li353 N377 1.990 . S
Li353 O412 1.970 . S
Li353 O413 1.956 . S
Li353 O415 1.961 . S
Li354 N399 1.990 . S
Li354 O412 1.961 . S
Li354 O414 1.956 . S
Li354 O415 1.970 . S
Li355 N405 1.990 . S
Li355 O413 1.961 . S
Li355 O414 1.970 . S
Li355 O415 1.956 . S
C356 C358 1.348 . S
C356 C359 1.351 1_556 S
C356 O412 1.325 . S
N357 C360 1.315 1_554 S
N357 C361 1.282 . S
C358 C356 1.348 . S
C358 C360 1.353 . S
C358 H416 0.929 . S
C359 C356 1.351 1_554 S
C359 C361 1.363 . S
C359 H417 0.930 . S
C360 N357 1.315 1_556 S
C360 C358 1.353 . S
C360 H418 0.930 1_545 S
C361 N357 1.282 . S
C361 C359 1.363 . S
C361 H419 0.930 . S
C362 C365 1.348 . S
C362 C366 1.356 . S
C362 O413 1.325 . S
C363 N364 1.279 . S
C363 C366 1.358 . S
C363 H420 0.930 . S
N364 C363 1.279 . S
N364 C367 1.314 . S
C365 C362 1.348 . S
C365 C367 1.353 . S
C365 H421 0.929 . S
C366 C362 1.356 . S
C366 C363 1.358 . S
C366 H422 0.930 . S
C367 N364 1.314 . S
C367 C365 1.353 . S
C367 H423 0.930 . S
C368 N369 1.314 . S
C368 C373 1.353 1_556 S
C368 H374 0.930 . S
N369 Li352 1.990 . S
N369 C368 1.314 . S
N369 C371 1.279 1_556 S
C370 C371 1.358 . S
C370 C372 1.356 . S
C370 H424 0.930 . S
C371 N369 1.279 1_554 S
C371 C370 1.358 . S
C371 H375 0.930 . S
C372 C370 1.356 . S
C372 C373 1.348 . S
C373 C368 1.353 1_554 S
C373 C372 1.348 . S
C373 H425 0.929 . S
H374 C368 0.930 . S
H375 C371 0.930 . S
C376 N377 1.334 . S
C376 C378 1.340 1_545 S
C376 H382 0.922 1_545 S
N377 Li353 1.990 . S
N377 C376 1.334 . S
N377 C380 1.279 . S
C378 C376 1.340 1_565 S
C378 C381 1.348 . S
C378 H426 0.929 . S
C379 C380 1.358 . S
C379 C381 1.356 1_545 S
C379 H427 0.930 . S
C380 N377 1.279 . S
C380 C379 1.358 . S
C380 H383 0.930 . S
C381 C378 1.348 . S
C381 C379 1.356 1_565 S
H382 C376 0.922 1_565 S
H383 C380 0.930 . S
C384 C386 1.348 . S
C384 C387 1.356 . S
C384 O414 1.325 . S
N385 C388 1.314 . S
N385 C389 1.279 . S
C386 C384 1.348 . S
C386 C388 1.353 . S
C386 H428 0.929 . S
C387 C384 1.356 . S
C387 C389 1.358 . S
C387 H429 0.930 . S
C388 N385 1.314 . S
C388 C386 1.353 . S
C388 H430 0.930 . S
C389 N385 1.279 . S
C389 C387 1.358 . S
C389 H431 0.930 1_556 S
C390 C391 1.348 . S
C390 C392 1.356 . S
C390 O415 1.325 . S
C391 C390 1.348 . S
C391 C393 1.353 . S
C391 H432 0.929 . S
C392 C390 1.356 . S
C392 C394 1.358 . S
C392 H433 0.930 . S
C393 C391 1.353 . S
C393 N395 1.315 . S
C393 H434 0.930 1_545 S
C394 C392 1.358 . S
C394 N395 1.282 . S
C394 H435 0.930 . S
N395 C393 1.315 . S
N395 C394 1.282 . S
C396 C398 1.340 1_545 S
C396 N399 1.334 . S
C396 H402 0.922 1_545 S
C397 N399 1.279 . S
C397 C400 1.358 . S
C397 H403 0.930 . S
C398 C396 1.340 1_565 S
C398 C401 1.348 . S
C398 H436 0.929 . S
N399 Li354 1.990 . S
N399 C396 1.334 . S
N399 C397 1.279 . S
C400 C397 1.358 . S
C400 C401 1.356 1_545 S
C400 H437 0.930 . S
C401 C398 1.348 . S
C401 C400 1.356 1_565 S
H402 C396 0.922 1_565 S
H403 C397 0.930 . S
C404 N405 1.314 . S
C404 C406 1.353 . S
C404 H410 0.930 . S
N405 Li355 1.990 . S
N405 C404 1.314 . S
N405 C408 1.279 . S
C406 C404 1.353 . S
C406 C409 1.348 . S
C406 H438 0.929 . S
C407 C408 1.358 . S
C407 C409 1.356 . S
C407 H439 0.930 . S
C408 N405 1.279 . S
C408 C407 1.358 . S
C408 H411 0.930 . S
C409 C406 1.348 . S
C409 C407 1.356 . S
H410 C404 0.930 . S
H411 C408 0.930 . S
O412 Li352 1.956 . S
O412 Li353 1.970 . S
O412 Li354 1.961 . S
O412 C356 1.325 . S
O413 Li352 1.970 . S
O413 Li353 1.956 . S
O413 Li355 1.961 . S
O413 C362 1.325 . S
O414 Li352 1.961 . S
O414 Li354 1.956 . S
O414 Li355 1.970 . S
O414 C384 1.325 . S
O415 Li353 1.961 . S
O415 Li354 1.970 . S
O415 Li355 1.956 . S
O415 C390 1.325 . S
H416 C358 0.929 . S
H417 C359 0.930 . S
H418 C360 0.930 1_565 S
H419 C361 0.930 . S
H420 C363 0.930 . S
H421 C365 0.929 . S
H422 C366 0.930 . S
H423 C367 0.930 . S
H424 C370 0.930 . S
H425 C373 0.929 . S
H426 C378 0.929 . S
H427 C379 0.930 . S
H428 C386 0.929 . S
H429 C387 0.930 . S
H430 C388 0.930 . S
H431 C389 0.930 1_554 S
H432 C391 0.929 . S
H433 C392 0.930 . S
H434 C393 0.930 1_565 S
H435 C394 0.930 . S
H436 C398 0.929 . S
H437 C400 0.930 . S
H438 C406 0.929 . S
H439 C407 0.930 . S
Li440 N457 1.990 . S
Li440 O500 1.956 . S
Li440 O501 1.970 . S
Li440 O502 1.961 . S
Li441 N465 1.990 . S
Li441 O500 1.970 . S
Li441 O501 1.956 . S
Li441 O503 1.961 . S
Li442 N487 1.990 . S
Li442 O500 1.961 . S
Li442 O502 1.956 . S
Li442 O503 1.970 . S
Li443 N493 1.990 . S
Li443 O501 1.961 . S
Li443 O502 1.970 . S
Li443 O503 1.956 . S
C444 C446 1.348 . S
C444 C447 1.356 . S
C444 O500 1.325 . S
N445 C448 1.315 . S
N445 C449 1.282 . S
C446 C444 1.348 . S
C446 C448 1.353 . S
C446 H504 0.929 . S
C447 C444 1.356 . S
C447 C449 1.358 . S
C447 H505 0.930 . S
C448 N445 1.315 . S
C448 C446 1.353 . S
C448 H506 0.930 1_655 S
C449 N445 1.282 . S
C449 C447 1.358 . S
C449 H507 0.930 . S
C450 C453 1.348 . S
C450 C454 1.356 . S
C450 O501 1.325 . S
C451 N452 1.279 . S
C451 C454 1.358 . S
C451 H508 0.930 1_554 S
N452 C451 1.279 . S
N452 C455 1.314 . S
C453 C450 1.348 . S
C453 C455 1.353 . S
C453 H509 0.929 . S
C454 C450 1.356 . S
C454 C451 1.358 . S
C454 H510 0.930 . S
C455 N452 1.314 . S
C455 C453 1.353 . S
C455 H511 0.930 . S
C456 N457 1.314 . S
C456 C461 1.353 . S
C456 H462 0.930 . S
N457 Li440 1.990 . S
N457 C456 1.314 . S
N457 C459 1.279 . S
C458 C459 1.358 . S
C458 C460 1.356 . S
C458 H512 0.930 . S
C459 N457 1.279 . S
C459 C458 1.358 . S
C459 H463 0.930 . S
C460 C458 1.356 . S
C460 C461 1.348 . S
C461 C456 1.353 . S
C461 C460 1.348 . S
C461 H513 0.929 . S
H462 C456 0.930 . S
H463 C459 0.930 . S
C464 N465 1.334 . S
C464 C466 1.340 1_655 S
C464 H470 0.922 1_655 S
N465 Li441 1.990 . S
N465 C464 1.334 . S
N465 C468 1.279 . S
C466 C464 1.340 1_455 S
C466 C469 1.348 . S
C466 H514 0.929 . S
C467 C468 1.358 . S
C467 C469 1.356 1_655 S
C467 H515 0.930 . S
C468 N465 1.279 . S
C468 C467 1.358 . S
C468 H471 0.930 . S
C469 C466 1.348 . S
C469 C467 1.356 1_455 S
H470 C464 0.922 1_455 S
H471 C468 0.930 . S
C472 C474 1.348 . S
C472 C475 1.356 . S
C472 O502 1.325 . S
N473 C476 1.314 . S
N473 C477 1.279 . S
C474 C472 1.348 . S
C474 C476 1.353 . S
C474 H516 0.929 . S
C475 C472 1.356 . S
C475 C477 1.358 . S
C475 H517 0.930 . S
C476 N473 1.314 . S
C476 C474 1.353 . S
C476 H518 0.930 . S
C477 N473 1.279 . S
C477 C475 1.358 . S
C477 H519 0.930 . S
C478 C479 1.348 . S
C478 C480 1.351 1_554 S
C478 O503 1.325 . S
C479 C478 1.348 . S
C479 C481 1.353 . S
C479 H520 0.929 . S
C480 C478 1.351 1_556 S
C480 C482 1.363 . S
C480 H521 0.930 . S
C481 C479 1.353 . S
C481 N483 1.315 1_554 S
C481 H522 0.930 1_655 S
C482 C480 1.363 . S
C482 N483 1.282 . S
C482 H523 0.930 . S
N483 C481 1.315 1_556 S
N483 C482 1.282 . S
C484 C486 1.340 1_655 S
C484 N487 1.334 . S
C484 H490 0.922 1_655 S
C485 N487 1.279 . S
C485 C488 1.358 . S
C485 H491 0.930 . S
C486 C484 1.340 1_455 S
C486 C489 1.348 . S
C486 H524 0.929 . S
N487 Li442 1.990 . S
N487 C484 1.334 . S
N487 C485 1.279 . S
C488 C485 1.358 . S
C488 C489 1.356 1_655 S
C488 H525 0.930 . S
C489 C486 1.348 . S
C489 C488 1.356 1_455 S
H490 C484 0.922 1_455 S
H491 C485 0.930 . S
C492 N493 1.314 . S
C492 C494 1.353 1_554 S
C492 H498 0.930 . S
N493 Li443 1.990 . S
N493 C492 1.314 . S
N493 C496 1.279 1_554 S
C494 C492 1.353 1_556 S
C494 C497 1.348 . S
C494 H526 0.929 . S
C495 C496 1.358 . S
C495 C497 1.356 . S
C495 H527 0.930 . S
C496 N493 1.279 1_556 S
C496 C495 1.358 . S
C496 H499 0.930 . S
C497 C494 1.348 . S
C497 C495 1.356 . S
H498 C492 0.930 . S
H499 C496 0.930 . S
O500 Li440 1.956 . S
O500 Li441 1.970 . S
O500 Li442 1.961 . S
O500 C444 1.325 . S
O501 Li440 1.970 . S
O501 Li441 1.956 . S
O501 Li443 1.961 . S
O501 C450 1.325 . S
O502 Li440 1.961 . S
O502 Li442 1.956 . S
O502 Li443 1.970 . S
O502 C472 1.325 . S
O503 Li441 1.961 . S
O503 Li442 1.970 . S
O503 Li443 1.956 . S
O503 C478 1.325 . S
H504 C446 0.929 . S
H505 C447 0.930 . S
H506 C448 0.930 1_455 S
H507 C449 0.930 . S
H508 C451 0.930 1_556 S
H509 C453 0.929 . S
H510 C454 0.930 . S
H511 C455 0.930 . S
H512 C458 0.930 . S
H513 C461 0.929 . S
H514 C466 0.929 . S
H515 C467 0.930 . S
H516 C474 0.929 . S
H517 C475 0.930 . S
H518 C476 0.930 . S
H519 C477 0.930 . S
H520 C479 0.929 . S
H521 C480 0.930 . S
H522 C481 0.930 1_455 S
H523 C482 0.930 . S
H524 C486 0.929 . S
H525 C488 0.930 . S
H526 C494 0.929 . S
H527 C495 0.930 . S
Li528 N545 1.990 . S
Li528 O588 1.956 . S
Li528 O589 1.970 . S
Li528 O590 1.961 . S
Li529 N553 1.990 . S
Li529 O588 1.970 . S
Li529 O589 1.956 . S
Li529 O591 1.961 . S
Li530 N575 1.990 . S
Li530 O588 1.961 . S
Li530 O590 1.956 . S
Li530 O591 1.970 . S
Li531 N581 1.990 . S
Li531 O589 1.961 . S
Li531 O590 1.970 . S
Li531 O591 1.956 . S
C532 C534 1.348 . S
C532 C535 1.356 . S
C532 O588 1.325 . S
N533 C536 1.314 . S
N533 C537 1.279 . S
C534 C532 1.348 . S
C534 C536 1.353 . S
C534 H592 0.929 . S
C535 C532 1.356 . S
C535 C537 1.358 . S
C535 H593 0.930 . S
C536 N533 1.314 . S
C536 C534 1.353 . S
C536 H594 0.930 . S
C537 N533 1.279 . S
C537 C535 1.358 . S
C537 H595 0.930 . S
C538 C541 1.348 . S
C538 C542 1.356 . S
C538 O589 1.325 . S
C539 N540 1.279 . S
C539 C542 1.358 . S
C539 H596 0.930 . S
N540 C539 1.279 . S
N540 C543 1.314 . S
C541 C538 1.348 . S
C541 C543 1.353 . S
C541 H597 0.929 . S
C542 C538 1.356 . S
C542 C539 1.358 . S
C542 H598 0.930 . S
C543 N540 1.314 . S
C543 C541 1.353 . S
C543 H599 0.930 . S
C544 N545 1.314 . S
C544 C549 1.353 . S
C544 H550 0.930 . S
N545 Li528 1.990 . S
N545 C544 1.314 . S
N545 C547 1.279 . S
C546 C547 1.358 . S
C546 C548 1.356 . S
C546 H600 0.930 . S
C547 N545 1.279 . S
C547 C546 1.358 . S
C547 H551 0.930 . S
C548 C546 1.356 . S
C548 C549 1.348 . S
C549 C544 1.353 . S
C549 C548 1.348 . S
C549 H601 0.929 . S
H550 C544 0.930 . S
H551 C547 0.930 . S
C552 N553 1.314 . S
C552 C554 1.353 . S
C552 H558 0.930 . S
N553 Li529 1.990 . S
N553 C552 1.314 . S
N553 C556 1.279 . S
C554 C552 1.353 . S
C554 C557 1.348 . S
C554 H602 0.929 . S
C555 C556 1.358 . S
C555 C557 1.356 . S
C555 H603 0.930 . S
C556 N553 1.279 . S
C556 C555 1.358 . S
C556 H559 0.930 . S
C557 C554 1.348 . S
C557 C555 1.356 . S
H558 C552 0.930 . S
H559 C556 0.930 . S
C560 C562 1.348 . S
C560 C563 1.356 . S
C560 O590 1.325 . S
N561 C564 1.314 . S
N561 C565 1.279 . S
C562 C560 1.348 . S
C562 C564 1.353 . S
C562 H604 0.929 . S
C563 C560 1.356 . S
C563 C565 1.358 . S
C563 H605 0.930 . S
C564 N561 1.314 . S
C564 C562 1.353 . S
C564 H606 0.930 . S
C565 N561 1.279 . S
C565 C563 1.358 . S
C565 H607 0.930 . S
C566 C567 1.348 . S
C566 C568 1.356 . S
C566 O591 1.325 . S
C567 C566 1.348 . S
C567 C569 1.353 . S
C567 H608 0.929 . S
C568 C566 1.356 . S
C568 C570 1.358 . S
C568 H609 0.930 . S
C569 C567 1.353 . S
C569 N571 1.314 . S
C569 H610 0.930 . S
C570 C568 1.358 . S
C570 N571 1.279 . S
C570 H611 0.930 . S
N571 C569 1.314 . S
N571 C570 1.279 . S
C572 C574 1.353 . S
C572 N575 1.314 . S
C572 H578 0.930 . S
C573 N575 1.279 . S
C573 C576 1.358 . S
C573 H579 0.930 . S
C574 C572 1.353 . S
C574 C577 1.348 . S
C574 H612 0.929 . S
N575 Li530 1.990 . S
N575 C572 1.314 . S
N575 C573 1.279 . S
C576 C573 1.358 . S
C576 C577 1.356 . S
C576 H613 0.930 . S
C577 C574 1.348 . S
C577 C576 1.356 . S
H578 C572 0.930 . S
H579 C573 0.930 . S
C580 N581 1.314 . S
C580 C582 1.353 . S
C580 H586 0.930 . S
N581 Li531 1.990 . S
N581 C580 1.314 . S
N581 C584 1.279 . S
C582 C580 1.353 . S
C582 C585 1.348 . S
C582 H614 0.929 . S
C583 C584 1.358 . S
C583 C585 1.356 . S
C583 H615 0.930 . S
C584 N581 1.279 . S
C584 C583 1.358 . S
C584 H587 0.930 . S
C585 C582 1.348 . S
C585 C583 1.356 . S
H586 C580 0.930 . S
H587 C584 0.930 . S
O588 Li528 1.956 . S
O588 Li529 1.970 . S
O588 Li530 1.961 . S
O588 C532 1.325 . S
O589 Li528 1.970 . S
O589 Li529 1.956 . S
O589 Li531 1.961 . S
O589 C538 1.325 . S
O590 Li528 1.961 . S
O590 Li530 1.956 . S
O590 Li531 1.970 . S
O590 C560 1.325 . S
O591 Li529 1.961 . S
O591 Li530 1.970 . S
O591 Li531 1.956 . S
O591 C566 1.325 . S
H592 C534 0.929 . S
H593 C535 0.930 . S
H594 C536 0.930 . S
H595 C537 0.930 . S
H596 C539 0.930 . S
H597 C541 0.929 . S
H598 C542 0.930 . S
H599 C543 0.930 . S
H600 C546 0.930 . S
H601 C549 0.929 . S
H602 C554 0.929 . S
H603 C555 0.930 . S
H604 C562 0.929 . S
H605 C563 0.930 . S
H606 C564 0.930 . S
H607 C565 0.930 . S
H608 C567 0.929 . S
H609 C568 0.930 . S
H610 C569 0.930 . S
H611 C570 0.930 . S
H612 C574 0.929 . S
H613 C576 0.930 . S
H614 C582 0.929 . S
H615 C583 0.930 . S
Li616 N633 1.990 . S
Li616 O676 1.956 . S
Li616 O677 1.970 . S
Li616 O678 1.961 . S
Li617 N641 1.990 . S
Li617 O676 1.970 . S
Li617 O677 1.956 . S
Li617 O679 1.961 . S
Li618 N663 1.990 . S
Li618 O676 1.961 . S
Li618 O678 1.956 . S
Li618 O679 1.970 . S
Li619 N669 1.990 . S
Li619 O677 1.961 . S
Li619 O678 1.970 . S
Li619 O679 1.956 . S
C620 C622 1.348 . S
C620 C623 1.356 . S
C620 O676 1.325 . S
N621 C624 1.314 . S
N621 C625 1.279 . S
C622 C620 1.348 . S
C622 C624 1.353 . S
C622 H680 0.929 . S
C623 C620 1.356 . S
C623 C625 1.358 . S
C623 H681 0.930 . S
C624 N621 1.314 . S
C624 C622 1.353 . S
C624 H682 0.930 . S
C625 N621 1.279 . S
C625 C623 1.358 . S
C625 H683 0.930 . S
C626 C629 1.348 . S
C626 C630 1.356 . S
C626 O677 1.325 . S
C627 N628 1.279 . S
C627 C630 1.358 . S
C627 H684 0.930 . S
N628 C627 1.279 . S
N628 C631 1.314 . S
C629 C626 1.348 . S
C629 C631 1.353 . S
C629 H685 0.929 . S
C630 C626 1.356 . S
C630 C627 1.358 . S
C630 H686 0.930 . S
C631 N628 1.314 . S
C631 C629 1.353 . S
C631 H687 0.930 . S
C632 N633 1.314 . S
C632 C637 1.353 . S
C632 H638 0.930 . S
N633 Li616 1.990 . S
N633 C632 1.314 . S
N633 C635 1.279 . S
C634 C635 1.358 . S
C634 C636 1.356 . S
C634 H688 0.930 . S
C635 N633 1.279 . S
C635 C634 1.358 . S
C635 H639 0.930 . S
C636 C634 1.356 . S
C636 C637 1.348 . S
C637 C632 1.353 . S
C637 C636 1.348 . S
C637 H689 0.929 . S
H638 C632 0.930 . S
H639 C635 0.930 . S
C640 N641 1.314 . S
C640 C642 1.353 . S
C640 H646 0.930 . S
N641 Li617 1.990 . S
N641 C640 1.314 . S
N641 C644 1.279 . S
C642 C640 1.353 . S
C642 C645 1.348 . S
C642 H690 0.929 . S
C643 C644 1.358 . S
C643 C645 1.356 . S
C643 H691 0.930 . S
C644 N641 1.279 . S
C644 C643 1.358 . S
C644 H647 0.930 . S
C645 C642 1.348 . S
C645 C643 1.356 . S
H646 C640 0.930 . S
H647 C644 0.930 . S
C648 C650 1.348 . S
C648 C651 1.356 . S
C648 O678 1.325 . S
N649 C652 1.314 . S
N649 C653 1.279 . S
C650 C648 1.348 . S
C650 C652 1.353 . S
C650 H692 0.929 . S
C651 C648 1.356 . S
C651 C653 1.358 . S
C651 H693 0.930 . S
C652 N649 1.314 . S
C652 C650 1.353 . S
C652 H694 0.930 . S
C653 N649 1.279 . S
C653 C651 1.358 . S
C653 H695 0.930 . S
C654 C655 1.348 . S
C654 C656 1.356 . S
C654 O679 1.325 . S
C655 C654 1.348 . S
C655 C657 1.353 . S
C655 H696 0.929 . S
C656 C654 1.356 . S
C656 C658 1.358 . S
C656 H697 0.930 . S
C657 C655 1.353 . S
C657 N659 1.314 . S
C657 H698 0.930 . S
C658 C656 1.358 . S
C658 N659 1.279 . S
C658 H699 0.930 . S
N659 C657 1.314 . S
N659 C658 1.279 . S
C660 C662 1.353 . S
C660 N663 1.314 . S
C660 H666 0.930 . S
C661 N663 1.279 . S
C661 C664 1.358 . S
C661 H667 0.930 . S
C662 C660 1.353 . S
C662 C665 1.348 . S
C662 H700 0.929 . S
N663 Li618 1.990 . S
N663 C660 1.314 . S
N663 C661 1.279 . S
C664 C661 1.358 . S
C664 C665 1.356 . S
C664 H701 0.930 . S
C665 C662 1.348 . S
C665 C664 1.356 . S
H666 C660 0.930 . S
H667 C661 0.930 . S
C668 N669 1.314 . S
C668 C670 1.353 . S
C668 H674 0.930 . S
N669 Li619 1.990 . S
N669 C668 1.314 . S
N669 C672 1.279 . S
C670 C668 1.353 . S
C670 C673 1.348 . S
C670 H702 0.929 . S
C671 C672 1.358 . S
C671 C673 1.356 . S
C671 H703 0.930 . S
C672 N669 1.279 . S
C672 C671 1.358 . S
C672 H675 0.930 . S
C673 C670 1.348 . S
C673 C671 1.356 . S
H674 C668 0.930 . S
H675 C672 0.930 . S
O676 Li616 1.956 . S
O676 Li617 1.970 . S
O676 Li618 1.961 . S
O676 C620 1.325 . S
O677 Li616 1.970 . S
O677 Li617 1.956 . S
O677 Li619 1.961 . S
O677 C626 1.325 . S
O678 Li616 1.961 . S
O678 Li618 1.956 . S
O678 Li619 1.970 . S
O678 C648 1.325 . S
O679 Li617 1.961 . S
O679 Li618 1.970 . S
O679 Li619 1.956 . S
O679 C654 1.325 . S
H680 C622 0.929 . S
H681 C623 0.930 . S
H682 C624 0.930 . S
H683 C625 0.930 . S
H684 C627 0.930 . S
H685 C629 0.929 . S
H686 C630 0.930 . S
H687 C631 0.930 . S
H688 C634 0.930 . S
H689 C637 0.929 . S
H690 C642 0.929 . S
H691 C643 0.930 . S
H692 C650 0.929 . S
H693 C651 0.930 . S
H694 C652 0.930 . S
H695 C653 0.930 . S
H696 C655 0.929 . S
H697 C656 0.930 . S
H698 C657 0.930 . S
H699 C658 0.930 . S
H700 C662 0.929 . S
H701 C664 0.930 . S
H702 C670 0.929 . S
H703 C671 0.930 . S
H704 C722 0.951 . S
H705 C724 0.951 . S
H706 C726 0.950 . S
H707 C727 0.950 . S
H708 C729 0.950 . S
H709 C732 0.950 . S
H710 C733 0.950 . S
H711 C735 0.950 1_554 S
H712 C736 0.950 . S
H713 C737 0.951 . S
H714 C739 0.951 . S
H715 C741 0.950 . S
H716 C742 0.950 . S
H717 C744 0.950 . S
H718 C747 0.950 . S
H719 C748 0.950 . S
H720 C750 0.950 1_556 S
H721 C751 0.950 . S
C722 H704 0.951 . S
C722 C723 1.366 . S
C722 C724 1.388 . S
C723 C722 1.366 . S
C723 C727 1.385 . S
C724 H705 0.951 . S
C724 C722 1.388 . S
C724 C725 1.366 . S
C725 C724 1.366 . S
C725 C726 1.414 . S
C725 C728 1.499 . S
C726 H706 0.950 . S
C726 C725 1.414 . S
C726 C727 1.374 . S
C727 H707 0.950 . S
C727 C723 1.385 . S
C727 C726 1.374 . S
C728 C725 1.499 . S
C728 C729 1.373 . S
C728 C730 1.389 . S
C729 H708 0.950 . S
C729 C728 1.373 . S
C729 C745 1.377 1_556 S
C730 C728 1.389 . S
C730 C731 1.524 . S
C730 C744 1.377 1_556 S
C731 C730 1.524 . S
C731 C732 1.397 . S
C731 C736 1.363 1_556 S
C732 H709 0.950 . S
C732 C731 1.397 . S
C732 C733 1.334 . S
C733 H710 0.950 . S
C733 C732 1.334 . S
C733 C734 1.287 . S
C734 C733 1.287 . S
C734 C735 1.524 . S
C734 H753 0.913 . S
C735 H711 0.950 1_556 S
C735 C734 1.524 . S
C735 C736 1.415 1_556 S
C736 H712 0.950 . S
C736 C731 1.363 1_554 S
C736 C735 1.415 1_554 S
C737 H713 0.951 . S
C737 C738 1.366 . S
C737 C739 1.388 . S
C738 C737 1.366 . S
C738 C742 1.385 . S
C739 H714 0.951 . S
C739 C737 1.388 . S
C739 C740 1.366 . S
C740 C739 1.366 . S
C740 C741 1.414 . S
C740 C743 1.499 . S
C741 H715 0.950 . S
C741 C740 1.414 . S
C741 C742 1.374 . S
C742 H716 0.950 . S
C742 C738 1.385 . S
C742 C741 1.374 . S
C743 C740 1.499 . S
C743 C744 1.373 . S
C743 C745 1.389 . S
C744 H717 0.950 . S
C744 C730 1.377 1_554 S
C744 C743 1.373 . S
C745 C729 1.377 1_554 S
C745 C743 1.389 . S
C745 C746 1.524 . S
C746 C745 1.524 . S
C746 C747 1.397 . S
C746 C751 1.363 1_554 S
C747 H718 0.950 . S
C747 C746 1.397 . S
C747 C748 1.334 . S
C748 H719 0.950 . S
C748 C747 1.334 . S
C748 C749 1.287 . S
C749 C748 1.287 . S
C749 C750 1.524 . S
C749 H752 0.999 . S
C750 H720 0.950 1_554 S
C750 C749 1.524 . S
C750 C751 1.415 1_554 S
C751 H721 0.950 . S
C751 C746 1.363 1_556 S
C751 C750 1.415 1_556 S
H752 C749 0.999 . S
H753 C734 0.913 . S
H754 C772 0.951 . S
H755 C774 0.951 . S
H756 C776 0.950 . S
H757 C777 0.950 . S
H758 C779 0.950 . S
H759 C782 0.950 . S
H760 C783 0.950 . S
H761 C785 0.950 . S
H762 C786 0.950 . S
H763 C787 0.951 . S
H764 C789 0.951 . S
H765 C791 0.950 . S
H766 C792 0.950 . S
H767 C794 0.950 . S
H768 C797 0.950 . S
H769 C798 0.950 . S
H770 C800 0.950 . S
H771 C801 0.950 . S
C772 H754 0.951 . S
C772 C773 1.366 . S
C772 C774 1.388 . S
C773 C772 1.366 . S
C773 C777 1.385 . S
C774 H755 0.951 . S
C774 C772 1.388 . S
C774 C775 1.366 . S
C775 C774 1.366 . S
C775 C776 1.414 . S
C775 C778 1.499 . S
C776 H756 0.950 . S
C776 C775 1.414 . S
C776 C777 1.374 . S
C777 H757 0.950 . S
C777 C773 1.385 . S
C777 C776 1.374 . S
C778 C775 1.499 . S
C778 C779 1.373 . S
C778 C780 1.389 . S
C779 H758 0.950 . S
C779 C778 1.373 . S
C779 C795 1.377 . S
C780 C778 1.389 . S
C780 C781 1.524 . S
C780 C794 1.377 . S
C781 C780 1.524 . S
C781 C782 1.397 . S
C781 C786 1.363 . S
C782 H759 0.950 . S
C782 C781 1.397 . S
C782 C783 1.334 . S
C783 H760 0.950 . S
C783 C782 1.334 . S
C783 C784 1.287 . S
C784 C783 1.287 . S
C784 C785 1.524 . S
C784 H803 0.913 . S
C785 H761 0.950 . S
C785 C784 1.524 . S
C785 C786 1.415 . S
C786 H762 0.950 . S
C786 C781 1.363 . S
C786 C785 1.415 . S
C787 H763 0.951 . S
C787 C788 1.366 . S
C787 C789 1.388 . S
C788 C787 1.366 . S
C788 C792 1.385 . S
C789 H764 0.951 . S
C789 C787 1.388 . S
C789 C790 1.366 . S
C790 C789 1.366 . S
C790 C791 1.414 . S
C790 C793 1.499 . S
C791 H765 0.950 . S
C791 C790 1.414 . S
C791 C792 1.374 . S
C792 H766 0.950 . S
C792 C788 1.385 . S
C792 C791 1.374 . S
C793 C790 1.499 . S
C793 C794 1.373 . S
C793 C795 1.389 . S
C794 H767 0.950 . S
C794 C780 1.377 . S
C794 C793 1.373 . S
C795 C779 1.377 . S
C795 C793 1.389 . S
C795 C796 1.524 . S
C796 C795 1.524 . S
C796 C797 1.397 . S
C796 C801 1.363 . S
C797 H768 0.950 . S
C797 C796 1.397 . S
C797 C798 1.334 . S
C798 H769 0.950 . S
C798 C797 1.334 . S
C798 C799 1.287 . S
C799 C798 1.287 . S
C799 C800 1.524 . S
C799 H802 0.999 . S
C800 H770 0.950 . S
C800 C799 1.524 . S
C800 C801 1.415 . S
C801 H771 0.950 . S
C801 C796 1.363 . S
C801 C800 1.415 . S
H802 C799 0.999 . S
H803 C784 0.913 . S
H804 C822 0.951 . S
H805 C824 0.951 . S
H806 C826 0.950 . S
H807 C827 0.950 . S
H808 C829 0.950 . S
H809 C832 0.950 . S
H810 C833 0.950 . S
H811 C835 0.950 . S
H812 C836 0.950 . S
H813 C837 0.951 . S
H814 C839 0.951 . S
H815 C841 0.950 . S
H816 C842 0.950 . S
H817 C844 0.950 . S
H818 C847 0.950 . S
H819 C848 0.950 . S
H820 C850 0.950 . S
H821 C851 0.950 . S
C822 H804 0.951 . S
C822 C823 1.366 . S
C822 C824 1.388 . S
C823 C822 1.366 . S
C823 C827 1.385 . S
C824 H805 0.951 . S
C824 C822 1.388 . S
C824 C825 1.366 . S
C825 C824 1.366 . S
C825 C826 1.414 . S
C825 C828 1.499 . S
C826 H806 0.950 . S
C826 C825 1.414 . S
C826 C827 1.374 . S
C827 H807 0.950 . S
C827 C823 1.385 . S
C827 C826 1.374 . S
C828 C825 1.499 . S
C828 C829 1.373 . S
C828 C830 1.389 . S
C829 H808 0.950 . S
C829 C828 1.373 . S
C829 C845 1.377 . S
C830 C828 1.389 . S
C830 C831 1.524 . S
C830 C844 1.377 . S
C831 C830 1.524 . S
C831 C832 1.397 . S
C831 C836 1.363 . S
C832 H809 0.950 . S
C832 C831 1.397 . S
C832 C833 1.334 . S
C833 H810 0.950 . S
C833 C832 1.334 . S
C833 C834 1.287 . S
C834 C833 1.287 . S
C834 C835 1.524 . S
C834 H853 0.913 . S
C835 H811 0.950 . S
C835 C834 1.524 . S
C835 C836 1.415 . S
C836 H812 0.950 . S
C836 C831 1.363 . S
C836 C835 1.415 . S
C837 H813 0.951 . S
C837 C838 1.366 . S
C837 C839 1.388 . S
C838 C837 1.366 . S
C838 C842 1.385 . S
C839 H814 0.951 . S
C839 C837 1.388 . S
C839 C840 1.366 . S
C840 C839 1.366 . S
C840 C841 1.414 . S
C840 C843 1.499 . S
C841 H815 0.950 . S
C841 C840 1.414 . S
C841 C842 1.374 . S
C842 H816 0.950 . S
C842 C838 1.385 . S
C842 C841 1.374 . S
C843 C840 1.499 . S
C843 C844 1.373 . S
C843 C845 1.389 . S
C844 H817 0.950 . S
C844 C830 1.377 . S
C844 C843 1.373 . S
C845 C829 1.377 . S
C845 C843 1.389 . S
C845 C846 1.524 . S
C846 C845 1.524 . S
C846 C847 1.397 . S
C846 C851 1.363 . S
C847 H818 0.950 . S
C847 C846 1.397 . S
C847 C848 1.334 . S
C848 H819 0.950 . S
C848 C847 1.334 . S
C848 C849 1.287 . S
C849 C848 1.287 . S
C849 C850 1.524 . S
C849 H852 0.999 . S
C850 H820 0.950 . S
C850 C849 1.524 . S
C850 C851 1.415 . S
C851 H821 0.950 . S
C851 C846 1.363 . S
C851 C850 1.415 . S
H852 C849 0.999 . S
H853 C834 0.913 . S
H854 C872 0.951 . S
H855 C874 0.951 . S
H856 C876 0.950 . S
H857 C877 0.950 . S
H858 C879 0.950 . S
H859 C882 0.950 . S
H860 C883 0.950 . S
H861 C885 0.950 . S
H862 C886 0.950 . S
H863 C887 0.951 . S
H864 C889 0.951 . S
H865 C891 0.950 . S
H866 C892 0.950 . S
H867 C894 0.950 . S
H868 C897 0.950 . S
H869 C898 0.950 . S
H870 C900 0.950 . S
H871 C901 0.950 . S
C872 H854 0.951 . S
C872 C873 1.366 . S
C872 C874 1.388 . S
C873 C872 1.366 . S
C873 C877 1.385 . S
C874 H855 0.951 . S
C874 C872 1.388 . S
C874 C875 1.366 . S
C875 C874 1.366 . S
C875 C876 1.414 . S
C875 C878 1.499 . S
C876 H856 0.950 . S
C876 C875 1.414 . S
C876 C877 1.374 . S
C877 H857 0.950 . S
C877 C873 1.385 . S
C877 C876 1.374 . S
C878 C875 1.499 . S
C878 C879 1.373 . S
C878 C880 1.389 . S
C879 H858 0.950 . S
C879 C878 1.373 . S
C879 C895 1.377 . S
C880 C878 1.389 . S
C880 C881 1.524 . S
C880 C894 1.377 . S
C881 C880 1.524 . S
C881 C882 1.397 . S
C881 C886 1.363 . S
C882 H859 0.950 . S
C882 C881 1.397 . S
C882 C883 1.334 . S
C883 H860 0.950 . S
C883 C882 1.334 . S
C883 C884 1.287 . S
C884 C883 1.287 . S
C884 C885 1.524 . S
C884 H903 0.913 . S
C885 H861 0.950 . S
C885 C884 1.524 . S
C885 C886 1.415 . S
C886 H862 0.950 . S
C886 C881 1.363 . S
C886 C885 1.415 . S
C887 H863 0.951 . S
C887 C888 1.366 . S
C887 C889 1.388 . S
C888 C887 1.366 . S
C888 C892 1.385 . S
C889 H864 0.951 . S
C889 C887 1.388 . S
C889 C890 1.366 . S
C890 C889 1.366 . S
C890 C891 1.414 . S
C890 C893 1.499 . S
C891 H865 0.950 . S
C891 C890 1.414 . S
C891 C892 1.374 . S
C892 H866 0.950 . S
C892 C888 1.385 . S
C892 C891 1.374 . S
C893 C890 1.499 . S
C893 C894 1.373 . S
C893 C895 1.389 . S
C894 H867 0.950 . S
C894 C880 1.377 . S
C894 C893 1.373 . S
C895 C879 1.377 . S
C895 C893 1.389 . S
C895 C896 1.524 . S
C896 C895 1.524 . S
C896 C897 1.397 . S
C896 C901 1.363 . S
C897 H868 0.950 . S
C897 C896 1.397 . S
C897 C898 1.334 . S
C898 H869 0.950 . S
C898 C897 1.334 . S
C898 C899 1.287 . S
C899 C898 1.287 . S
C899 C900 1.524 . S
C899 H902 0.999 . S
C900 H870 0.950 . S
C900 C899 1.524 . S
C900 C901 1.415 . S
C901 H871 0.950 . S
C901 C896 1.363 . S
C901 C900 1.415 . S
H902 C899 0.999 . S
H903 C884 0.913 . S
H904 C922 0.951 . S
H905 C924 0.951 . S
H906 C926 0.950 . S
H907 C927 0.950 . S
H908 C929 0.950 . S
H909 C932 0.950 . S
H910 C933 0.950 . S
H911 C935 0.950 . S
H912 C936 0.950 . S
H913 C937 0.951 . S
H914 C939 0.951 . S
H915 C941 0.950 . S
H916 C942 0.950 . S
H917 C944 0.950 . S
H918 C947 0.950 . S
H919 C948 0.950 . S
H920 C950 0.950 . S
H921 C951 0.950 . S
C922 H904 0.951 . S
C922 C923 1.366 . S
C922 C924 1.388 . S
C923 C922 1.366 . S
C923 C927 1.385 . S
C924 H905 0.951 . S
C924 C922 1.388 . S
C924 C925 1.366 . S
C925 C924 1.366 . S
C925 C926 1.414 . S
C925 C928 1.499 . S
C926 H906 0.950 . S
C926 C925 1.414 . S
C926 C927 1.374 . S
C927 H907 0.950 . S
C927 C923 1.385 . S
C927 C926 1.374 . S
C928 C925 1.499 . S
C928 C929 1.373 . S
C928 C930 1.389 . S
C929 H908 0.950 . S
C929 C928 1.373 . S
C929 C945 1.377 . S
C930 C928 1.389 . S
C930 C931 1.524 . S
C930 C944 1.377 . S
C931 C930 1.524 . S
C931 C932 1.397 . S
C931 C936 1.363 . S
C932 H909 0.950 . S
C932 C931 1.397 . S
C932 C933 1.334 . S
C933 H910 0.950 . S
C933 C932 1.334 . S
C933 C934 1.287 . S
C934 C933 1.287 . S
C934 C935 1.524 . S
C934 H953 0.913 . S
C935 H911 0.950 . S
C935 C934 1.524 . S
C935 C936 1.415 . S
C936 H912 0.950 . S
C936 C931 1.363 . S
C936 C935 1.415 . S
C937 H913 0.951 . S
C937 C938 1.366 . S
C937 C939 1.388 . S
C938 C937 1.366 . S
C938 C942 1.385 . S
C939 H914 0.951 . S
C939 C937 1.388 . S
C939 C940 1.366 . S
C940 C939 1.366 . S
C940 C941 1.414 . S
C940 C943 1.499 . S
C941 H915 0.950 . S
C941 C940 1.414 . S
C941 C942 1.374 . S
C942 H916 0.950 . S
C942 C938 1.385 . S
C942 C941 1.374 . S
C943 C940 1.499 . S
C943 C944 1.373 . S
C943 C945 1.389 . S
C944 H917 0.950 . S
C944 C930 1.377 . S
C944 C943 1.373 . S
C945 C929 1.377 . S
C945 C943 1.389 . S
C945 C946 1.524 . S
C946 C945 1.524 . S
C946 C947 1.397 . S
C946 C951 1.363 . S
C947 H918 0.950 . S
C947 C946 1.397 . S
C947 C948 1.334 . S
C948 H919 0.950 . S
C948 C947 1.334 . S
C948 C949 1.287 . S
C949 C948 1.287 . S
C949 C950 1.524 . S
C949 H952 0.999 . S
C950 H920 0.950 . S
C950 C949 1.524 . S
C950 C951 1.415 . S
C951 H921 0.950 . S
C951 C946 1.363 . S
C951 C950 1.415 . S
H952 C949 0.999 . S
H953 C934 0.913 . S
H954 C972 0.951 . S
H955 C974 0.951 . S
H956 C976 0.950 . S
H957 C977 0.950 . S
H958 C979 0.950 . S
H959 C982 0.950 . S
H960 C983 0.950 . S
H961 C985 0.950 . S
H962 C986 0.950 . S
H963 C987 0.951 . S
H964 C989 0.951 . S
H965 C991 0.950 . S
H966 C992 0.950 . S
H967 C994 0.950 . S
H968 C997 0.950 . S
H969 C998 0.950 . S
H970 C1000 0.950 . S
H971 C1001 0.950 . S
C972 H954 0.951 . S
C972 C973 1.366 . S
C972 C974 1.388 . S
C973 C972 1.366 . S
C973 C977 1.385 . S
C974 H955 0.951 . S
C974 C972 1.388 . S
C974 C975 1.366 . S
C975 C974 1.366 . S
C975 C976 1.414 . S
C975 C978 1.499 . S
C976 H956 0.950 . S
C976 C975 1.414 . S
C976 C977 1.374 . S
C977 H957 0.950 . S
C977 C973 1.385 . S
C977 C976 1.374 . S
C978 C975 1.499 . S
C978 C979 1.373 . S
C978 C980 1.389 . S
C979 H958 0.950 . S
C979 C978 1.373 . S
C979 C995 1.377 . S
C980 C978 1.389 . S
C980 C981 1.524 . S
C980 C994 1.377 . S
C981 C980 1.524 . S
C981 C982 1.397 . S
C981 C986 1.363 . S
C982 H959 0.950 . S
C982 C981 1.397 . S
C982 C983 1.334 . S
C983 H960 0.950 . S
C983 C982 1.334 . S
C983 C984 1.287 . S
C984 C983 1.287 . S
C984 C985 1.524 . S
C984 H1003 0.913 . S
C985 H961 0.950 . S
C985 C984 1.524 . S
C985 C986 1.415 . S
C986 H962 0.950 . S
C986 C981 1.363 . S
C986 C985 1.415 . S
C987 H963 0.951 . S
C987 C988 1.366 . S
C987 C989 1.388 . S
C988 C987 1.366 . S
C988 C992 1.385 . S
C989 H964 0.951 . S
C989 C987 1.388 . S
C989 C990 1.366 . S
C990 C989 1.366 . S
C990 C991 1.414 . S
C990 C993 1.499 . S
C991 H965 0.950 . S
C991 C990 1.414 . S
C991 C992 1.374 . S
C992 H966 0.950 . S
C992 C988 1.385 . S
C992 C991 1.374 . S
C993 C990 1.499 . S
C993 C994 1.373 . S
C993 C995 1.389 . S
C994 H967 0.950 . S
C994 C980 1.377 . S
C994 C993 1.373 . S
C995 C979 1.377 . S
C995 C993 1.389 . S
C995 C996 1.524 . S
C996 C995 1.524 . S
C996 C997 1.397 . S
C996 C1001 1.363 . S
C997 H968 0.950 . S
C997 C996 1.397 . S
C997 C998 1.334 . S
C998 H969 0.950 . S
C998 C997 1.334 . S
C998 C999 1.287 . S
C999 C998 1.287 . S
C999 C1000 1.524 . S
C999 H1002 0.999 . S
C1000 H970 0.950 . S
C1000 C999 1.524 . S
C1000 C1001 1.415 . S
C1001 H971 0.950 . S
C1001 C996 1.363 . S
C1001 C1000 1.415 . S
H1002 C999 0.999 . S
H1003 C984 0.913 . S
H1004 C1022 0.951 . S
H1005 C1024 0.951 . S
H1006 C1026 0.950 . S
H1007 C1027 0.950 . S
H1008 C1029 0.950 . S
H1009 C1032 0.950 1_554 S
H1010 C1033 0.950 1_554 S
H1011 C1035 0.950 . S
H1012 C1036 0.950 . S
H1013 C1037 0.951 . S
H1014 C1039 0.951 . S
H1015 C1041 0.950 . S
H1016 C1042 0.950 . S
H1017 C1044 0.950 . S
H1018 C1047 0.950 1_556 S
H1019 C1048 0.950 1_556 S
H1020 C1050 0.950 . S
H1021 C1051 0.950 . S
C1022 H1004 0.951 . S
C1022 C1023 1.366 . S
C1022 C1024 1.388 . S
C1023 C1022 1.366 . S
C1023 C1027 1.385 . S
C1024 H1005 0.951 . S
C1024 C1022 1.388 . S
C1024 C1025 1.366 . S
C1025 C1024 1.366 . S
C1025 C1026 1.414 . S
C1025 C1028 1.499 . S
C1026 H1006 0.950 . S
C1026 C1025 1.414 . S
C1026 C1027 1.374 . S
C1027 H1007 0.950 . S
C1027 C1023 1.385 . S
C1027 C1026 1.374 . S
C1028 C1025 1.499 . S
C1028 C1029 1.373 . S
C1028 C1030 1.389 1_554 S
C1029 H1008 0.950 . S
C1029 C1028 1.373 . S
C1029 C1045 1.377 . S
C1030 C1028 1.389 1_556 S
C1030 C1031 1.524 . S
C1030 C1044 1.377 . S
C1031 C1030 1.524 . S
C1031 C1032 1.397 . S
C1031 C1036 1.363 . S
C1032 H1009 0.950 1_556 S
C1032 C1031 1.397 . S
C1032 C1033 1.334 . S
C1033 H1010 0.950 1_556 S
C1033 C1032 1.334 . S
C1033 C1034 1.287 . S
C1034 C1033 1.287 . S
C1034 C1035 1.524 . S
C1034 H1053 0.913 . S
C1035 H1011 0.950 . S
C1035 C1034 1.524 . S
C1035 C1036 1.415 . S
C1036 H1012 0.950 . S
C1036 C1031 1.363 . S
C1036 C1035 1.415 . S
C1037 H1013 0.951 . S
C1037 C1038 1.366 . S
C1037 C1039 1.388 . S
C1038 C1037 1.366 . S
C1038 C1042 1.385 . S
C1039 H1014 0.951 . S
C1039 C1037 1.388 . S
C1039 C1040 1.366 . S
C1040 C1039 1.366 . S
C1040 C1041 1.414 . S
C1040 C1043 1.499 . S
C1041 H1015 0.950 . S
C1041 C1040 1.414 . S
C1041 C1042 1.374 . S
C1042 H1016 0.950 . S
C1042 C1038 1.385 . S
C1042 C1041 1.374 . S
C1043 C1040 1.499 . S
C1043 C1044 1.373 . S
C1043 C1045 1.389 1_556 S
C1044 H1017 0.950 . S
C1044 C1030 1.377 . S
C1044 C1043 1.373 . S
C1045 C1029 1.377 . S
C1045 C1043 1.389 1_554 S
C1045 C1046 1.524 . S
C1046 C1045 1.524 . S
C1046 C1047 1.397 . S
C1046 C1051 1.363 . S
C1047 H1018 0.950 1_554 S
C1047 C1046 1.397 . S
C1047 C1048 1.334 . S
C1048 H1019 0.950 1_554 S
C1048 C1047 1.334 . S
C1048 C1049 1.287 . S
C1049 C1048 1.287 . S
C1049 C1050 1.524 . S
C1049 H1052 0.999 . S
C1050 H1020 0.950 . S
C1050 C1049 1.524 . S
C1050 C1051 1.415 . S
C1051 H1021 0.950 . S
C1051 C1046 1.363 . S
C1051 C1050 1.415 . S
H1052 C1049 0.999 . S
H1053 C1034 0.913 . S
H1054 C1072 0.951 . S
H1055 C1074 0.951 . S
H1056 C1076 0.950 . S
H1057 C1077 0.950 . S
H1058 C1079 0.950 . S
H1059 C1082 0.950 . S
H1060 C1083 0.950 . S
H1061 C1085 0.950 . S
H1062 C1086 0.950 . S
H1063 C1087 0.951 . S
H1064 C1089 0.951 . S
H1065 C1091 0.950 . S
H1066 C1092 0.950 . S
H1067 C1094 0.950 . S
H1068 C1097 0.950 . S
H1069 C1098 0.950 . S
H1070 C1100 0.950 . S
H1071 C1101 0.950 . S
C1072 H1054 0.951 . S
C1072 C1073 1.366 . S
C1072 C1074 1.388 . S
C1073 C1072 1.366 . S
C1073 C1077 1.385 . S
C1074 H1055 0.951 . S
C1074 C1072 1.388 . S
C1074 C1075 1.366 . S
C1075 C1074 1.366 . S
C1075 C1076 1.414 . S
C1075 C1078 1.499 . S
C1076 H1056 0.950 . S
C1076 C1075 1.414 . S
C1076 C1077 1.374 . S
C1077 H1057 0.950 . S
C1077 C1073 1.385 . S
C1077 C1076 1.374 . S
C1078 C1075 1.499 . S
C1078 C1079 1.373 . S
C1078 C1080 1.389 . S
C1079 H1058 0.950 . S
C1079 C1078 1.373 . S
C1079 C1095 1.377 . S
C1080 C1078 1.389 . S
C1080 C1081 1.524 . S
C1080 C1094 1.377 . S
C1081 C1080 1.524 . S
C1081 C1082 1.397 . S
C1081 C1086 1.363 . S
C1082 H1059 0.950 . S
C1082 C1081 1.397 . S
C1082 C1083 1.334 . S
C1083 H1060 0.950 . S
C1083 C1082 1.334 . S
C1083 C1084 1.287 . S
C1084 C1083 1.287 . S
C1084 C1085 1.524 . S
C1084 H1103 0.913 . S
C1085 H1061 0.950 . S
C1085 C1084 1.524 . S
C1085 C1086 1.415 . S
C1086 H1062 0.950 . S
C1086 C1081 1.363 . S
C1086 C1085 1.415 . S
C1087 H1063 0.951 . S
C1087 C1088 1.366 . S
C1087 C1089 1.388 . S
C1088 C1087 1.366 . S
C1088 C1092 1.385 . S
C1089 H1064 0.951 . S
C1089 C1087 1.388 . S
C1089 C1090 1.366 . S
C1090 C1089 1.366 . S
C1090 C1091 1.414 . S
C1090 C1093 1.499 . S
C1091 H1065 0.950 . S
C1091 C1090 1.414 . S
C1091 C1092 1.374 . S
C1092 H1066 0.950 . S
C1092 C1088 1.385 . S
C1092 C1091 1.374 . S
C1093 C1090 1.499 . S
C1093 C1094 1.373 . S
C1093 C1095 1.389 . S
C1094 H1067 0.950 . S
C1094 C1080 1.377 . S
C1094 C1093 1.373 . S
C1095 C1079 1.377 . S
C1095 C1093 1.389 . S
C1095 C1096 1.524 . S
C1096 C1095 1.524 . S
C1096 C1097 1.397 . S
C1096 C1101 1.363 . S
C1097 H1068 0.950 . S
C1097 C1096 1.397 . S
C1097 C1098 1.334 . S
C1098 H1069 0.950 . S
C1098 C1097 1.334 . S
C1098 C1099 1.287 . S
C1099 C1098 1.287 . S
C1099 C1100 1.524 . S
C1099 H1102 0.999 . S
C1100 H1070 0.950 . S
C1100 C1099 1.524 . S
C1100 C1101 1.415 . S
C1101 H1071 0.950 . S
C1101 C1096 1.363 . S
C1101 C1100 1.415 . S
H1102 C1099 0.999 . S
H1103 C1084 0.913 . S
H1104 C1122 0.951 . S
H1105 C1124 0.951 . S
H1106 C1126 0.950 . S
H1107 C1127 0.950 . S
H1108 C1129 0.950 . S
H1109 C1132 0.950 . S
H1110 C1133 0.950 . S
H1111 C1135 0.950 . S
H1112 C1136 0.950 . S
H1113 C1137 0.951 . S
H1114 C1139 0.951 . S
H1115 C1141 0.950 . S
H1116 C1142 0.950 . S
H1117 C1144 0.950 . S
H1118 C1147 0.950 . S
H1119 C1148 0.950 . S
H1120 C1150 0.950 . S
H1121 C1151 0.950 . S
C1122 H1104 0.951 . S
C1122 C1123 1.366 . S
C1122 C1124 1.388 . S
C1123 C1122 1.366 . S
C1123 C1127 1.385 . S
C1124 H1105 0.951 . S
C1124 C1122 1.388 . S
C1124 C1125 1.366 . S
C1125 C1124 1.366 . S
C1125 C1126 1.414 . S
C1125 C1128 1.499 . S
C1126 H1106 0.950 . S
C1126 C1125 1.414 . S
C1126 C1127 1.374 . S
C1127 H1107 0.950 . S
C1127 C1123 1.385 . S
C1127 C1126 1.374 . S
C1128 C1125 1.499 . S
C1128 C1129 1.373 . S
C1128 C1130 1.389 . S
C1129 H1108 0.950 . S
C1129 C1128 1.373 . S
C1129 C1145 1.377 . S
C1130 C1128 1.389 . S
C1130 C1131 1.524 . S
C1130 C1144 1.377 . S
C1131 C1130 1.524 . S
C1131 C1132 1.397 . S
C1131 C1136 1.363 . S
C1132 H1109 0.950 . S
C1132 C1131 1.397 . S
C1132 C1133 1.334 . S
C1133 H1110 0.950 . S
C1133 C1132 1.334 . S
C1133 C1134 1.287 . S
C1134 C1133 1.287 . S
C1134 C1135 1.524 . S
C1134 H1153 0.913 . S
C1135 H1111 0.950 . S
C1135 C1134 1.524 . S
C1135 C1136 1.415 . S
C1136 H1112 0.950 . S
C1136 C1131 1.363 . S
C1136 C1135 1.415 . S
C1137 H1113 0.951 . S
C1137 C1138 1.366 . S
C1137 C1139 1.388 . S
C1138 C1137 1.366 . S
C1138 C1142 1.385 . S
C1139 H1114 0.951 . S
C1139 C1137 1.388 . S
C1139 C1140 1.366 . S
C1140 C1139 1.366 . S
C1140 C1141 1.414 . S
C1140 C1143 1.499 . S
C1141 H1115 0.950 . S
C1141 C1140 1.414 . S
C1141 C1142 1.374 . S
C1142 H1116 0.950 . S
C1142 C1138 1.385 . S
C1142 C1141 1.374 . S
C1143 C1140 1.499 . S
C1143 C1144 1.373 . S
C1143 C1145 1.389 . S
C1144 H1117 0.950 . S
C1144 C1130 1.377 . S
C1144 C1143 1.373 . S
C1145 C1129 1.377 . S
C1145 C1143 1.389 . S
C1145 C1146 1.524 . S
C1146 C1145 1.524 . S
C1146 C1147 1.397 . S
C1146 C1151 1.363 . S
C1147 H1118 0.950 . S
C1147 C1146 1.397 . S
C1147 C1148 1.334 . S
C1148 H1119 0.950 . S
C1148 C1147 1.334 . S
C1148 C1149 1.287 . S
C1149 C1148 1.287 . S
C1149 C1150 1.524 . S
C1149 H1152 0.999 . S
C1150 H1120 0.950 . S
C1150 C1149 1.524 . S
C1150 C1151 1.415 . S
C1151 H1121 0.950 . S
C1151 C1146 1.363 . S
C1151 C1150 1.415 . S
H1152 C1149 0.999 . S
H1153 C1134 0.913 . S
H1154 C1172 0.951 . S
H1155 C1174 0.951 . S
H1156 C1176 0.950 . S
H1157 C1177 0.950 . S
H1158 C1179 0.950 . S
H1159 C1182 0.950 . S
H1160 C1183 0.950 . S
H1161 C1185 0.950 . S
H1162 C1186 0.950 . S
H1163 C1187 0.951 . S
H1164 C1189 0.951 . S
H1165 C1191 0.950 . S
H1166 C1192 0.950 . S
H1167 C1194 0.950 . S
H1168 C1197 0.950 . S
H1169 C1198 0.950 . S
H1170 C1200 0.950 . S
H1171 C1201 0.950 . S
C1172 H1154 0.951 . S
C1172 C1173 1.366 . S
C1172 C1174 1.388 . S
C1173 C1172 1.366 . S
C1173 C1177 1.385 . S
C1174 H1155 0.951 . S
C1174 C1172 1.388 . S
C1174 C1175 1.366 . S
C1175 C1174 1.366 . S
C1175 C1176 1.414 . S
C1175 C1178 1.499 . S
C1176 H1156 0.950 . S
C1176 C1175 1.414 . S
C1176 C1177 1.374 . S
C1177 H1157 0.950 . S
C1177 C1173 1.385 . S
C1177 C1176 1.374 . S
C1178 C1175 1.499 . S
C1178 C1179 1.373 . S
C1178 C1180 1.389 . S
C1179 H1158 0.950 . S
C1179 C1178 1.373 . S
C1179 C1195 1.377 . S
C1180 C1178 1.389 . S
C1180 C1181 1.524 . S
C1180 C1194 1.377 . S
C1181 C1180 1.524 . S
C1181 C1182 1.397 . S
C1181 C1186 1.363 . S
C1182 H1159 0.950 . S
C1182 C1181 1.397 . S
C1182 C1183 1.334 . S
C1183 H1160 0.950 . S
C1183 C1182 1.334 . S
C1183 C1184 1.287 . S
C1184 C1183 1.287 . S
C1184 C1185 1.524 . S
C1184 H1203 0.913 . S
C1185 H1161 0.950 . S
C1185 C1184 1.524 . S
C1185 C1186 1.415 . S
C1186 H1162 0.950 . S
C1186 C1181 1.363 . S
C1186 C1185 1.415 . S
C1187 H1163 0.951 . S
C1187 C1188 1.366 . S
C1187 C1189 1.388 . S
C1188 C1187 1.366 . S
C1188 C1192 1.385 . S
C1189 H1164 0.951 . S
C1189 C1187 1.388 . S
C1189 C1190 1.366 . S
C1190 C1189 1.366 . S
C1190 C1191 1.414 . S
C1190 C1193 1.499 . S
C1191 H1165 0.950 . S
C1191 C1190 1.414 . S
C1191 C1192 1.374 . S
C1192 H1166 0.950 . S
C1192 C1188 1.385 . S
C1192 C1191 1.374 . S
C1193 C1190 1.499 . S
C1193 C1194 1.373 . S
C1193 C1195 1.389 . S
C1194 H1167 0.950 . S
C1194 C1180 1.377 . S
C1194 C1193 1.373 . S
C1195 C1179 1.377 . S
C1195 C1193 1.389 . S
C1195 C1196 1.524 . S
C1196 C1195 1.524 . S
C1196 C1197 1.397 . S
C1196 C1201 1.363 . S
C1197 H1168 0.950 . S
C1197 C1196 1.397 . S
C1197 C1198 1.334 . S
C1198 H1169 0.950 . S
C1198 C1197 1.334 . S
C1198 C1199 1.287 . S
C1199 C1198 1.287 . S
C1199 C1200 1.524 . S
C1199 H1202 0.999 . S
C1200 H1170 0.950 . S
C1200 C1199 1.524 . S
C1200 C1201 1.415 . S
C1201 H1171 0.950 . S
C1201 C1196 1.363 . S
C1201 C1200 1.415 . S
H1202 C1199 0.999 . S
H1203 C1184 0.913 . S
H1204 C1222 0.951 . S
H1205 C1224 0.951 . S
H1206 C1226 0.950 . S
H1207 C1227 0.950 . S
H1208 C1229 0.950 . S
H1209 C1232 0.950 . S
H1210 C1233 0.950 . S
H1211 C1235 0.950 1_556 S
H1212 C1236 0.950 . S
H1213 C1237 0.951 . S
H1214 C1239 0.951 . S
H1215 C1241 0.950 . S
H1216 C1242 0.950 . S
H1217 C1244 0.950 . S
H1218 C1247 0.950 . S
H1219 C1248 0.950 . S
H1220 C1250 0.950 1_554 S
H1221 C1251 0.950 . S
C1222 H1204 0.951 . S
C1222 C1223 1.366 1_556 S
C1222 C1224 1.388 . S
C1223 C1222 1.366 1_554 S
C1223 C1227 1.385 . S
C1224 H1205 0.951 . S
C1224 C1222 1.388 . S
C1224 C1225 1.366 1_556 S
C1225 C1224 1.366 1_554 S
C1225 C1226 1.414 . S
C1225 C1228 1.499 . S
C1226 H1206 0.950 . S
C1226 C1225 1.414 . S
C1226 C1227 1.374 . S
C1227 H1207 0.950 . S
C1227 C1223 1.385 . S
C1227 C1226 1.374 . S
C1228 C1225 1.499 . S
C1228 C1229 1.373 . S
C1228 C1230 1.389 . S
C1229 H1208 0.950 . S
C1229 C1228 1.373 . S
C1229 C1245 1.377 1_554 S
C1230 C1228 1.389 . S
C1230 C1231 1.524 . S
C1230 C1244 1.377 1_554 S
C1231 C1230 1.524 . S
C1231 C1232 1.397 . S
C1231 C1236 1.363 1_554 S
C1232 H1209 0.950 . S
C1232 C1231 1.397 . S
C1232 C1233 1.334 . S
C1233 H1210 0.950 . S
C1233 C1232 1.334 . S
C1233 C1234 1.287 . S
C1234 C1233 1.287 . S
C1234 C1235 1.524 . S
C1234 H1253 0.913 1_455 S
C1235 H1211 0.950 1_554 S
C1235 C1234 1.524 . S
C1235 C1236 1.415 1_554 S
C1236 H1212 0.950 . S
C1236 C1231 1.363 1_556 S
C1236 C1235 1.415 1_556 S
C1237 H1213 0.951 . S
C1237 C1238 1.366 1_554 S
C1237 C1239 1.388 . S
C1238 C1237 1.366 1_556 S
C1238 C1242 1.385 . S
C1239 H1214 0.951 . S
C1239 C1237 1.388 . S
C1239 C1240 1.366 1_554 S
C1240 C1239 1.366 1_556 S
C1240 C1241 1.414 . S
C1240 C1243 1.499 . S
C1241 H1215 0.950 . S
C1241 C1240 1.414 . S
C1241 C1242 1.374 . S
C1242 H1216 0.950 . S
C1242 C1238 1.385 . S
C1242 C1241 1.374 . S
C1243 C1240 1.499 . S
C1243 C1244 1.373 . S
C1243 C1245 1.389 . S
C1244 H1217 0.950 . S
C1244 C1230 1.377 1_556 S
C1244 C1243 1.373 . S
C1245 C1229 1.377 1_556 S
C1245 C1243 1.389 . S
C1245 C1246 1.524 . S
C1246 C1245 1.524 . S
C1246 C1247 1.397 . S
C1246 C1251 1.363 1_556 S
C1247 H1218 0.950 . S
C1247 C1246 1.397 . S
C1247 C1248 1.334 . S
C1248 H1219 0.950 . S
C1248 C1247 1.334 . S
C1248 C1249 1.287 . S
C1249 C1248 1.287 . S
C1249 C1250 1.524 . S
C1249 H1252 0.999 . S
C1250 H1220 0.950 1_556 S
C1250 C1249 1.524 . S
C1250 C1251 1.415 1_556 S
C1251 H1221 0.950 . S
C1251 C1246 1.363 1_554 S
C1251 C1250 1.415 1_554 S
H1252 C1249 0.999 . S
H1253 C1234 0.913 1_655 S
H1254 C1272 0.951 . S
H1255 C1274 0.951 . S
H1256 C1276 0.950 . S
H1257 C1277 0.950 . S
H1258 C1279 0.950 . S
H1259 C1282 0.950 . S
H1260 C1283 0.950 . S
H1261 C1285 0.950 . S
H1262 C1286 0.950 . S
H1263 C1287 0.951 . S
H1264 C1289 0.951 . S
H1265 C1291 0.950 . S
H1266 C1292 0.950 . S
H1267 C1294 0.950 . S
H1268 C1297 0.950 . S
H1269 C1298 0.950 . S
H1270 C1300 0.950 . S
H1271 C1301 0.950 . S
C1272 H1254 0.951 . S
C1272 C1273 1.366 . S
C1272 C1274 1.388 . S
C1273 C1272 1.366 . S
C1273 C1277 1.385 . S
C1274 H1255 0.951 . S
C1274 C1272 1.388 . S
C1274 C1275 1.366 . S
C1275 C1274 1.366 . S
C1275 C1276 1.414 . S
C1275 C1278 1.499 . S
C1276 H1256 0.950 . S
C1276 C1275 1.414 . S
C1276 C1277 1.374 . S
C1277 H1257 0.950 . S
C1277 C1273 1.385 . S
C1277 C1276 1.374 . S
C1278 C1275 1.499 . S
C1278 C1279 1.373 . S
C1278 C1280 1.389 . S
C1279 H1258 0.950 . S
C1279 C1278 1.373 . S
C1279 C1295 1.377 . S
C1280 C1278 1.389 . S
C1280 C1281 1.524 . S
C1280 C1294 1.377 . S
C1281 C1280 1.524 . S
C1281 C1282 1.397 . S
C1281 C1286 1.363 . S
C1282 H1259 0.950 . S
C1282 C1281 1.397 . S
C1282 C1283 1.334 . S
C1283 H1260 0.950 . S
C1283 C1282 1.334 . S
C1283 C1284 1.287 . S
C1284 C1283 1.287 . S
C1284 C1285 1.524 . S
C1284 H1303 0.913 . S
C1285 H1261 0.950 . S
C1285 C1284 1.524 . S
C1285 C1286 1.415 . S
C1286 H1262 0.950 . S
C1286 C1281 1.363 . S
C1286 C1285 1.415 . S
C1287 H1263 0.951 . S
C1287 C1288 1.366 . S
C1287 C1289 1.388 . S
C1288 C1287 1.366 . S
C1288 C1292 1.385 . S
C1289 H1264 0.951 . S
C1289 C1287 1.388 . S
C1289 C1290 1.366 . S
C1290 C1289 1.366 . S
C1290 C1291 1.414 . S
C1290 C1293 1.499 . S
C1291 H1265 0.950 . S
C1291 C1290 1.414 . S
C1291 C1292 1.374 . S
C1292 H1266 0.950 . S
C1292 C1288 1.385 . S
C1292 C1291 1.374 . S
C1293 C1290 1.499 . S
C1293 C1294 1.373 . S
C1293 C1295 1.389 . S
C1294 H1267 0.950 . S
C1294 C1280 1.377 . S
C1294 C1293 1.373 . S
C1295 C1279 1.377 . S
C1295 C1293 1.389 . S
C1295 C1296 1.524 . S
C1296 C1295 1.524 . S
C1296 C1297 1.397 . S
C1296 C1301 1.363 . S
C1297 H1268 0.950 . S
C1297 C1296 1.397 . S
C1297 C1298 1.334 . S
C1298 H1269 0.950 . S
C1298 C1297 1.334 . S
C1298 C1299 1.287 . S
C1299 C1298 1.287 . S
C1299 C1300 1.524 . S
C1299 H1302 0.999 . S
C1300 H1270 0.950 . S
C1300 C1299 1.524 . S
C1300 C1301 1.415 . S
C1301 H1271 0.950 . S
C1301 C1296 1.363 . S
C1301 C1300 1.415 . S
H1302 C1299 0.999 . S
H1303 C1284 0.913 . S
H1304 C1322 0.951 . S
H1305 C1324 0.951 . S
H1306 C1326 0.950 . S
H1307 C1327 0.950 . S
H1308 C1329 0.950 . S
H1309 C1332 0.950 . S
H1310 C1333 0.950 . S
H1311 C1335 0.950 . S
H1312 C1336 0.950 . S
H1313 C1337 0.951 . S
H1314 C1339 0.951 . S
H1315 C1341 0.950 . S
H1316 C1342 0.950 . S
H1317 C1344 0.950 . S
H1318 C1347 0.950 . S
H1319 C1348 0.950 . S
H1320 C1350 0.950 . S
H1321 C1351 0.950 . S
C1322 H1304 0.951 . S
C1322 C1323 1.366 . S
C1322 C1324 1.388 . S
C1323 C1322 1.366 . S
C1323 C1327 1.385 . S
C1324 H1305 0.951 . S
C1324 C1322 1.388 . S
C1324 C1325 1.366 . S
C1325 C1324 1.366 . S
C1325 C1326 1.414 . S
C1325 C1328 1.499 . S
C1326 H1306 0.950 . S
C1326 C1325 1.414 . S
C1326 C1327 1.374 . S
C1327 H1307 0.950 . S
C1327 C1323 1.385 . S
C1327 C1326 1.374 . S
C1328 C1325 1.499 . S
C1328 C1329 1.373 . S
C1328 C1330 1.389 . S
C1329 H1308 0.950 . S
C1329 C1328 1.373 . S
C1329 C1345 1.377 . S
C1330 C1328 1.389 . S
C1330 C1331 1.524 . S
C1330 C1344 1.377 . S
C1331 C1330 1.524 . S
C1331 C1332 1.397 . S
C1331 C1336 1.363 . S
C1332 H1309 0.950 . S
C1332 C1331 1.397 . S
C1332 C1333 1.334 . S
C1333 H1310 0.950 . S
C1333 C1332 1.334 . S
C1333 C1334 1.287 . S
C1334 C1333 1.287 . S
C1334 C1335 1.524 . S
C1334 H1353 0.913 . S
C1335 H1311 0.950 . S
C1335 C1334 1.524 . S
C1335 C1336 1.415 . S
C1336 H1312 0.950 . S
C1336 C1331 1.363 . S
C1336 C1335 1.415 . S
C1337 H1313 0.951 . S
C1337 C1338 1.366 . S
C1337 C1339 1.388 . S
C1338 C1337 1.366 . S
C1338 C1342 1.385 . S
C1339 H1314 0.951 . S
C1339 C1337 1.388 . S
C1339 C1340 1.366 . S
C1340 C1339 1.366 . S
C1340 C1341 1.414 . S
C1340 C1343 1.499 . S
C1341 H1315 0.950 . S
C1341 C1340 1.414 . S
C1341 C1342 1.374 . S
C1342 H1316 0.950 . S
C1342 C1338 1.385 . S
C1342 C1341 1.374 . S
C1343 C1340 1.499 . S
C1343 C1344 1.373 . S
C1343 C1345 1.389 . S
C1344 H1317 0.950 . S
C1344 C1330 1.377 . S
C1344 C1343 1.373 . S
C1345 C1329 1.377 . S
C1345 C1343 1.389 . S
C1345 C1346 1.524 . S
C1346 C1345 1.524 . S
C1346 C1347 1.397 . S
C1346 C1351 1.363 . S
C1347 H1318 0.950 . S
C1347 C1346 1.397 . S
C1347 C1348 1.334 . S
C1348 H1319 0.950 . S
C1348 C1347 1.334 . S
C1348 C1349 1.287 . S
C1349 C1348 1.287 . S
C1349 C1350 1.524 . S
C1349 H1352 0.999 . S
C1350 H1320 0.950 . S
C1350 C1349 1.524 . S
C1350 C1351 1.415 . S
C1351 H1321 0.950 . S
C1351 C1346 1.363 . S
C1351 C1350 1.415 . S
H1352 C1349 0.999 . S
H1353 C1334 0.913 . S
H1354 C1372 0.951 . S
H1355 C1374 0.951 . S
H1356 C1376 0.950 . S
H1357 C1377 0.950 . S
H1358 C1379 0.950 . S
H1359 C1382 0.950 . S
H1360 C1383 0.950 . S
H1361 C1385 0.950 . S
H1362 C1386 0.950 . S
H1363 C1387 0.951 . S
H1364 C1389 0.951 . S
H1365 C1391 0.950 . S
H1366 C1392 0.950 . S
H1367 C1394 0.950 . S
H1368 C1397 0.950 . S
H1369 C1398 0.950 . S
H1370 C1400 0.950 . S
H1371 C1401 0.950 . S
C1372 H1354 0.951 . S
C1372 C1373 1.366 . S
C1372 C1374 1.388 . S
C1373 C1372 1.366 . S
C1373 C1377 1.385 . S
C1374 H1355 0.951 . S
C1374 C1372 1.388 . S
C1374 C1375 1.366 . S
C1375 C1374 1.366 . S
C1375 C1376 1.414 . S
C1375 C1378 1.499 . S
C1376 H1356 0.950 . S
C1376 C1375 1.414 . S
C1376 C1377 1.374 . S
C1377 H1357 0.950 . S
C1377 C1373 1.385 . S
C1377 C1376 1.374 . S
C1378 C1375 1.499 . S
C1378 C1379 1.373 1_556 S
C1378 C1380 1.389 . S
C1379 H1358 0.950 . S
C1379 C1378 1.373 1_554 S
C1379 C1395 1.377 . S
C1380 C1378 1.389 . S
C1380 C1381 1.524 . S
C1380 C1394 1.377 . S
C1381 C1380 1.524 . S
C1381 C1382 1.397 . S
C1381 C1386 1.363 . S
C1382 H1359 0.950 . S
C1382 C1381 1.397 . S
C1382 C1383 1.334 . S
C1383 H1360 0.950 . S
C1383 C1382 1.334 . S
C1383 C1384 1.287 . S
C1384 C1383 1.287 . S
C1384 C1385 1.524 . S
C1384 H1403 0.913 . S
C1385 H1361 0.950 . S
C1385 C1384 1.524 . S
C1385 C1386 1.415 . S
C1386 H1362 0.950 . S
C1386 C1381 1.363 . S
C1386 C1385 1.415 . S
C1387 H1363 0.951 . S
C1387 C1388 1.366 . S
C1387 C1389 1.388 . S
C1388 C1387 1.366 . S
C1388 C1392 1.385 . S
C1389 H1364 0.951 . S
C1389 C1387 1.388 . S
C1389 C1390 1.366 . S
C1390 C1389 1.366 . S
C1390 C1391 1.414 . S
C1390 C1393 1.499 . S
C1391 H1365 0.950 . S
C1391 C1390 1.414 . S
C1391 C1392 1.374 . S
C1392 H1366 0.950 . S
C1392 C1388 1.385 . S
C1392 C1391 1.374 . S
C1393 C1390 1.499 . S
C1393 C1394 1.373 1_554 S
C1393 C1395 1.389 . S
C1394 H1367 0.950 . S
C1394 C1380 1.377 . S
C1394 C1393 1.373 1_556 S
C1395 C1379 1.377 . S
C1395 C1393 1.389 . S
C1395 C1396 1.524 . S
C1396 C1395 1.524 . S
C1396 C1397 1.397 . S
C1396 C1401 1.363 . S
C1397 H1368 0.950 . S
C1397 C1396 1.397 . S
C1397 C1398 1.334 . S
C1398 H1369 0.950 . S
C1398 C1397 1.334 . S
C1398 C1399 1.287 . S
C1399 C1398 1.287 . S
C1399 C1400 1.524 . S
C1399 H1402 0.999 . S
C1400 H1370 0.950 . S
C1400 C1399 1.524 . S
C1400 C1401 1.415 . S
C1401 H1371 0.950 . S
C1401 C1396 1.363 . S
C1401 C1400 1.415 . S
H1402 C1399 0.999 . S
H1403 C1384 0.913 . S
H1404 C1422 0.951 . S
H1405 C1424 0.951 . S
H1406 C1426 0.950 . S
H1407 C1427 0.950 . S
H1408 C1429 0.950 . S
H1409 C1432 0.950 . S
H1410 C1433 0.950 . S
H1411 C1435 0.950 . S
H1412 C1436 0.950 . S
H1413 C1437 0.951 . S
H1414 C1439 0.951 . S
H1415 C1441 0.950 . S
H1416 C1442 0.950 . S
H1417 C1444 0.950 . S
H1418 C1447 0.950 . S
H1419 C1448 0.950 . S
H1420 C1450 0.950 . S
H1421 C1451 0.950 . S
C1422 H1404 0.951 . S
C1422 C1423 1.366 . S
C1422 C1424 1.388 . S
C1423 C1422 1.366 . S
C1423 C1427 1.385 . S
C1424 H1405 0.951 . S
C1424 C1422 1.388 . S
C1424 C1425 1.366 . S
C1425 C1424 1.366 . S
C1425 C1426 1.414 . S
C1425 C1428 1.499 . S
C1426 H1406 0.950 . S
C1426 C1425 1.414 . S
C1426 C1427 1.374 . S
C1427 H1407 0.950 . S
C1427 C1423 1.385 . S
C1427 C1426 1.374 . S
C1428 C1425 1.499 . S
C1428 C1429 1.373 . S
C1428 C1430 1.389 . S
C1429 H1408 0.950 . S
C1429 C1428 1.373 . S
C1429 C1445 1.377 . S
C1430 C1428 1.389 . S
C1430 C1431 1.524 . S
C1430 C1444 1.377 . S
C1431 C1430 1.524 . S
C1431 C1432 1.397 . S
C1431 C1436 1.363 . S
C1432 H1409 0.950 . S
C1432 C1431 1.397 . S
C1432 C1433 1.334 . S
C1433 H1410 0.950 . S
C1433 C1432 1.334 . S
C1433 C1434 1.287 . S
C1434 C1433 1.287 . S
C1434 C1435 1.524 . S
C1434 H1453 0.913 . S
C1435 H1411 0.950 . S
C1435 C1434 1.524 . S
C1435 C1436 1.415 . S
C1436 H1412 0.950 . S
C1436 C1431 1.363 . S
C1436 C1435 1.415 . S
C1437 H1413 0.951 . S
C1437 C1438 1.366 . S
C1437 C1439 1.388 . S
C1438 C1437 1.366 . S
C1438 C1442 1.385 . S
C1439 H1414 0.951 . S
C1439 C1437 1.388 . S
C1439 C1440 1.366 . S
C1440 C1439 1.366 . S
C1440 C1441 1.414 . S
C1440 C1443 1.499 . S
C1441 H1415 0.950 . S
C1441 C1440 1.414 . S
C1441 C1442 1.374 . S
C1442 H1416 0.950 . S
C1442 C1438 1.385 . S
C1442 C1441 1.374 . S
C1443 C1440 1.499 . S
C1443 C1444 1.373 . S
C1443 C1445 1.389 . S
C1444 H1417 0.950 . S
C1444 C1430 1.377 . S
C1444 C1443 1.373 . S
C1445 C1429 1.377 . S
C1445 C1443 1.389 . S
C1445 C1446 1.524 . S
C1446 C1445 1.524 . S
C1446 C1447 1.397 . S
C1446 C1451 1.363 . S
C1447 H1418 0.950 . S
C1447 C1446 1.397 . S
C1447 C1448 1.334 . S
C1448 H1419 0.950 . S
C1448 C1447 1.334 . S
C1448 C1449 1.287 . S
C1449 C1448 1.287 . S
C1449 C1450 1.524 . S
C1449 H1452 0.999 . S
C1450 H1420 0.950 . S
C1450 C1449 1.524 . S
C1450 C1451 1.415 . S
C1451 H1421 0.950 . S
C1451 C1446 1.363 . S
C1451 C1450 1.415 . S
H1452 C1449 0.999 . S
H1453 C1434 0.913 . S
H1454 C1472 0.951 . S
H1455 C1474 0.951 . S
H1456 C1476 0.950 . S
H1457 C1477 0.950 . S
H1458 C1479 0.950 . S
H1459 C1482 0.950 . S
H1460 C1483 0.950 . S
H1461 C1485 0.950 . S
H1462 C1486 0.950 . S
H1463 C1487 0.951 . S
H1464 C1489 0.951 . S
H1465 C1491 0.950 . S
H1466 C1492 0.950 . S
H1467 C1494 0.950 . S
H1468 C1497 0.950 . S
H1469 C1498 0.950 . S
H1470 C1500 0.950 . S
H1471 C1501 0.950 . S
C1472 H1454 0.951 . S
C1472 C1473 1.366 . S
C1472 C1474 1.388 . S
C1473 C1472 1.366 . S
C1473 C1477 1.385 . S
C1474 H1455 0.951 . S
C1474 C1472 1.388 . S
C1474 C1475 1.366 . S
C1475 C1474 1.366 . S
C1475 C1476 1.414 . S
C1475 C1478 1.499 . S
C1476 H1456 0.950 . S
C1476 C1475 1.414 . S
C1476 C1477 1.374 . S
C1477 H1457 0.950 . S
C1477 C1473 1.385 . S
C1477 C1476 1.374 . S
C1478 C1475 1.499 . S
C1478 C1479 1.373 . S
C1478 C1480 1.389 . S
C1479 H1458 0.950 . S
C1479 C1478 1.373 . S
C1479 C1495 1.377 . S
C1480 C1478 1.389 . S
C1480 C1481 1.524 . S
C1480 C1494 1.377 . S
C1481 C1480 1.524 . S
C1481 C1482 1.397 . S
C1481 C1486 1.363 . S
C1482 H1459 0.950 . S
C1482 C1481 1.397 . S
C1482 C1483 1.334 . S
C1483 H1460 0.950 . S
C1483 C1482 1.334 . S
C1483 C1484 1.287 . S
C1484 C1483 1.287 . S
C1484 C1485 1.524 . S
C1484 H1503 0.913 . S
C1485 H1461 0.950 . S
C1485 C1484 1.524 . S
C1485 C1486 1.415 . S
C1486 H1462 0.950 . S
C1486 C1481 1.363 . S
C1486 C1485 1.415 . S
C1487 H1463 0.951 . S
C1487 C1488 1.366 . S
C1487 C1489 1.388 . S
C1488 C1487 1.366 . S
C1488 C1492 1.385 . S
C1489 H1464 0.951 . S
C1489 C1487 1.388 . S
C1489 C1490 1.366 . S
C1490 C1489 1.366 . S
C1490 C1491 1.414 . S
C1490 C1493 1.499 . S
C1491 H1465 0.950 . S
C1491 C1490 1.414 . S
C1491 C1492 1.374 . S
C1492 H1466 0.950 . S
C1492 C1488 1.385 . S
C1492 C1491 1.374 . S
C1493 C1490 1.499 . S
C1493 C1494 1.373 . S
C1493 C1495 1.389 . S
C1494 H1467 0.950 . S
C1494 C1480 1.377 . S
C1494 C1493 1.373 . S
C1495 C1479 1.377 . S
C1495 C1493 1.389 . S
C1495 C1496 1.524 . S
C1496 C1495 1.524 . S
C1496 C1497 1.397 . S
C1496 C1501 1.363 . S
C1497 H1468 0.950 . S
C1497 C1496 1.397 . S
C1497 C1498 1.334 . S
C1498 H1469 0.950 . S
C1498 C1497 1.334 . S
C1498 C1499 1.287 . S
C1499 C1498 1.287 . S
C1499 C1500 1.524 . S
C1499 H1502 0.999 . S
C1500 H1470 0.950 . S
C1500 C1499 1.524 . S
C1500 C1501 1.415 . S
C1501 H1471 0.950 . S
C1501 C1496 1.363 . S
C1501 C1500 1.415 . S
H1502 C1499 0.999 . S
H1503 C1484 0.913 . S
C723 C108 1.306 . S
C738 C57 1.306 . S
C773 C145 1.306 . S
C788 C205 1.306 . S
C823 C293 1.306 . S
C838 C225 1.306 . S
C873 C313 1.306 . S
C888 C20 1.306 . S
C923 C409 1.306 . S
C938 C460 1.306 . S
C973 C497 1.306 . S
C988 C557 1.306 . S
C1023 C577 1.306 . S
C1038 C645 1.306 . S
C1073 C372 1.306 . S
C1088 C665 1.306 . S
C1123 C49 1.485 . S
C1138 C636 1.485 . S
C1173 C381 1.485 . S
C1188 C137 1.485 . S
C1223 C469 1.485 . S
C1238 C233 1.485 . S
C1273 C321 1.485 . S
C1288 C548 1.485 . S
C1323 C196 1.485 . S
C1338 C673 1.485 . S
C1373 C401 1.485 . S
C1388 C284 1.485 . S
C1423 C489 1.485 . S
C1438 C29 1.485 . S
C1473 C117 1.485 . S
C1488 C585 1.485 . S
