# Generated by pormake.
# Topology ull, (4)-cn, num edge types: 1
# Building blocks:
#     Node 0, Type 0, BuildingBlock: QUQFOY_clean_sbu_1, # of connection points: 4
#     Node 1, Type 0, BuildingBlock: QUQFOY_clean_sbu_1, # of connection points: 4
#     Node 2, Type 0, BuildingBlock: QUQFOY_clean_sbu_1, # of connection points: 4
#     Node 3, Type 0, BuildingBlock: QUQFOY_clean_sbu_1, # of connection points: 4
#     Node 4, Type 0, BuildingBlock: QUQFOY_clean_sbu_1, # of connection points: 4
#     Node 5, Type 0, BuildingBlock: QUQFOY_clean_sbu_1, # of connection points: 4
#     Node 6, Type 0, BuildingBlock: QUQFOY_clean_sbu_1, # of connection points: 4
#     Node 7, Type 0, BuildingBlock: QUQFOY_clean_sbu_1, # of connection points: 4
#     Node 8, Type 0, BuildingBlock: QUQFOY_clean_sbu_1, # of connection points: 4
#     Node 9, Type 0, BuildingBlock: QUQFOY_clean_sbu_1, # of connection points: 4
#     Node 10, Type 0, BuildingBlock: QUQFOY_clean_sbu_1, # of connection points: 4
#     Node 11, Type 0, BuildingBlock: QUQFOY_clean_sbu_1, # of connection points: 4
#     Node 12, Type 0, BuildingBlock: QUQFOY_clean_sbu_1, # of connection points: 4
#     Node 13, Type 0, BuildingBlock: QUQFOY_clean_sbu_1, # of connection points: 4
#     Node 14, Type 0, BuildingBlock: QUQFOY_clean_sbu_1, # of connection points: 4
#     Node 15, Type 0, BuildingBlock: QUQFOY_clean_sbu_1, # of connection points: 4
#     Node 16, Type 0, BuildingBlock: QUQFOY_clean_sbu_1, # of connection points: 4
#     Node 17, Type 0, BuildingBlock: QUQFOY_clean_sbu_1, # of connection points: 4
#     Node 18, Type 0, BuildingBlock: QUQFOY_clean_sbu_1, # of connection points: 4
#     Node 19, Type 0, BuildingBlock: QUQFOY_clean_sbu_1, # of connection points: 4
#     Node 20, Type 0, BuildingBlock: QUQFOY_clean_sbu_1, # of connection points: 4
#     Node 21, Type 0, BuildingBlock: QUQFOY_clean_sbu_1, # of connection points: 4
#     Node 22, Type 0, BuildingBlock: QUQFOY_clean_sbu_1, # of connection points: 4
#     Node 23, Type 0, BuildingBlock: QUQFOY_clean_sbu_1, # of connection points: 4
#     Node 24, Type 0, BuildingBlock: QUQFOY_clean_sbu_1, # of connection points: 4
#     Node 25, Type 0, BuildingBlock: QUQFOY_clean_sbu_1, # of connection points: 4
#     Node 26, Type 0, BuildingBlock: QUQFOY_clean_sbu_1, # of connection points: 4
#     Node 27, Type 0, BuildingBlock: QUQFOY_clean_sbu_1, # of connection points: 4
#     Node 28, Type 0, BuildingBlock: QUQFOY_clean_sbu_1, # of connection points: 4
#     Node 29, Type 0, BuildingBlock: QUQFOY_clean_sbu_1, # of connection points: 4
#     Node 30, Type 0, BuildingBlock: QUQFOY_clean_sbu_1, # of connection points: 4
#     Node 31, Type 0, BuildingBlock: QUQFOY_clean_sbu_1, # of connection points: 4
#     Node 32, Type 0, BuildingBlock: QUQFOY_clean_sbu_1, # of connection points: 4
#     Node 33, Type 0, BuildingBlock: QUQFOY_clean_sbu_1, # of connection points: 4
#     Node 34, Type 0, BuildingBlock: QUQFOY_clean_sbu_1, # of connection points: 4
#     Node 35, Type 0, BuildingBlock: QUQFOY_clean_sbu_1, # of connection points: 4
#     Node 36, Type 0, BuildingBlock: QUQFOY_clean_sbu_1, # of connection points: 4
#     Node 37, Type 0, BuildingBlock: QUQFOY_clean_sbu_1, # of connection points: 4
#     Node 38, Type 0, BuildingBlock: QUQFOY_clean_sbu_1, # of connection points: 4
#     Node 39, Type 0, BuildingBlock: QUQFOY_clean_sbu_1, # of connection points: 4
#     Node 40, Type 0, BuildingBlock: QUQFOY_clean_sbu_1, # of connection points: 4
#     Node 41, Type 0, BuildingBlock: QUQFOY_clean_sbu_1, # of connection points: 4
#     Node 42, Type 0, BuildingBlock: QUQFOY_clean_sbu_1, # of connection points: 4
#     Node 43, Type 0, BuildingBlock: QUQFOY_clean_sbu_1, # of connection points: 4
#     Node 44, Type 0, BuildingBlock: QUQFOY_clean_sbu_1, # of connection points: 4
#     Node 45, Type 0, BuildingBlock: QUQFOY_clean_sbu_1, # of connection points: 4
#     Node 46, Type 0, BuildingBlock: QUQFOY_clean_sbu_1, # of connection points: 4
#     Node 47, Type 0, BuildingBlock: QUQFOY_clean_sbu_1, # of connection points: 4
#     Edge 48, Type (0, 0), BuildingBlock: ZUJKAS_clean_linker_0, # of connection points: 2
#     Edge 49, Type (0, 0), BuildingBlock: ZUJKAS_clean_linker_0, # of connection points: 2
#     Edge 50, Type (0, 0), BuildingBlock: ZUJKAS_clean_linker_0, # of connection points: 2
#     Edge 51, Type (0, 0), BuildingBlock: ZUJKAS_clean_linker_0, # of connection points: 2
#     Edge 52, Type (0, 0), BuildingBlock: ZUJKAS_clean_linker_0, # of connection points: 2
#     Edge 53, Type (0, 0), BuildingBlock: ZUJKAS_clean_linker_0, # of connection points: 2
#     Edge 54, Type (0, 0), BuildingBlock: ZUJKAS_clean_linker_0, # of connection points: 2
#     Edge 55, Type (0, 0), BuildingBlock: ZUJKAS_clean_linker_0, # of connection points: 2
#     Edge 56, Type (0, 0), BuildingBlock: ZUJKAS_clean_linker_0, # of connection points: 2
#     Edge 57, Type (0, 0), BuildingBlock: ZUJKAS_clean_linker_0, # of connection points: 2
#     Edge 58, Type (0, 0), BuildingBlock: ZUJKAS_clean_linker_0, # of connection points: 2
#     Edge 59, Type (0, 0), BuildingBlock: ZUJKAS_clean_linker_0, # of connection points: 2
#     Edge 60, Type (0, 0), BuildingBlock: ZUJKAS_clean_linker_0, # of connection points: 2
#     Edge 61, Type (0, 0), BuildingBlock: ZUJKAS_clean_linker_0, # of connection points: 2
#     Edge 62, Type (0, 0), BuildingBlock: ZUJKAS_clean_linker_0, # of connection points: 2
#     Edge 63, Type (0, 0), BuildingBlock: ZUJKAS_clean_linker_0, # of connection points: 2
#     Edge 64, Type (0, 0), BuildingBlock: ZUJKAS_clean_linker_0, # of connection points: 2
#     Edge 65, Type (0, 0), BuildingBlock: ZUJKAS_clean_linker_0, # of connection points: 2
#     Edge 66, Type (0, 0), BuildingBlock: ZUJKAS_clean_linker_0, # of connection points: 2
#     Edge 67, Type (0, 0), BuildingBlock: ZUJKAS_clean_linker_0, # of connection points: 2
#     Edge 68, Type (0, 0), BuildingBlock: ZUJKAS_clean_linker_0, # of connection points: 2
#     Edge 69, Type (0, 0), BuildingBlock: ZUJKAS_clean_linker_0, # of connection points: 2
#     Edge 70, Type (0, 0), BuildingBlock: ZUJKAS_clean_linker_0, # of connection points: 2
#     Edge 71, Type (0, 0), BuildingBlock: ZUJKAS_clean_linker_0, # of connection points: 2
#     Edge 72, Type (0, 0), BuildingBlock: ZUJKAS_clean_linker_0, # of connection points: 2
#     Edge 73, Type (0, 0), BuildingBlock: ZUJKAS_clean_linker_0, # of connection points: 2
#     Edge 74, Type (0, 0), BuildingBlock: ZUJKAS_clean_linker_0, # of connection points: 2
#     Edge 75, Type (0, 0), BuildingBlock: ZUJKAS_clean_linker_0, # of connection points: 2
#     Edge 76, Type (0, 0), BuildingBlock: ZUJKAS_clean_linker_0, # of connection points: 2
#     Edge 77, Type (0, 0), BuildingBlock: ZUJKAS_clean_linker_0, # of connection points: 2
#     Edge 78, Type (0, 0), BuildingBlock: ZUJKAS_clean_linker_0, # of connection points: 2
#     Edge 79, Type (0, 0), BuildingBlock: ZUJKAS_clean_linker_0, # of connection points: 2
#     Edge 80, Type (0, 0), BuildingBlock: ZUJKAS_clean_linker_0, # of connection points: 2
#     Edge 81, Type (0, 0), BuildingBlock: ZUJKAS_clean_linker_0, # of connection points: 2
#     Edge 82, Type (0, 0), BuildingBlock: ZUJKAS_clean_linker_0, # of connection points: 2
#     Edge 83, Type (0, 0), BuildingBlock: ZUJKAS_clean_linker_0, # of connection points: 2
#     Edge 84, Type (0, 0), BuildingBlock: ZUJKAS_clean_linker_0, # of connection points: 2
#     Edge 85, Type (0, 0), BuildingBlock: ZUJKAS_clean_linker_0, # of connection points: 2
#     Edge 86, Type (0, 0), BuildingBlock: ZUJKAS_clean_linker_0, # of connection points: 2
#     Edge 87, Type (0, 0), BuildingBlock: ZUJKAS_clean_linker_0, # of connection points: 2
#     Edge 88, Type (0, 0), BuildingBlock: ZUJKAS_clean_linker_0, # of connection points: 2
#     Edge 89, Type (0, 0), BuildingBlock: ZUJKAS_clean_linker_0, # of connection points: 2
#     Edge 90, Type (0, 0), BuildingBlock: ZUJKAS_clean_linker_0, # of connection points: 2
#     Edge 91, Type (0, 0), BuildingBlock: ZUJKAS_clean_linker_0, # of connection points: 2
#     Edge 92, Type (0, 0), BuildingBlock: ZUJKAS_clean_linker_0, # of connection points: 2
#     Edge 93, Type (0, 0), BuildingBlock: ZUJKAS_clean_linker_0, # of connection points: 2
#     Edge 94, Type (0, 0), BuildingBlock: ZUJKAS_clean_linker_0, # of connection points: 2
#     Edge 95, Type (0, 0), BuildingBlock: ZUJKAS_clean_linker_0, # of connection points: 2
#     Edge 96, Type (0, 0), BuildingBlock: ZUJKAS_clean_linker_0, # of connection points: 2
#     Edge 97, Type (0, 0), BuildingBlock: ZUJKAS_clean_linker_0, # of connection points: 2
#     Edge 98, Type (0, 0), BuildingBlock: ZUJKAS_clean_linker_0, # of connection points: 2
#     Edge 99, Type (0, 0), BuildingBlock: ZUJKAS_clean_linker_0, # of connection points: 2
#     Edge 100, Type (0, 0), BuildingBlock: ZUJKAS_clean_linker_0, # of connection points: 2
#     Edge 101, Type (0, 0), BuildingBlock: ZUJKAS_clean_linker_0, # of connection points: 2
#     Edge 102, Type (0, 0), BuildingBlock: ZUJKAS_clean_linker_0, # of connection points: 2
#     Edge 103, Type (0, 0), BuildingBlock: ZUJKAS_clean_linker_0, # of connection points: 2
#     Edge 104, Type (0, 0), BuildingBlock: ZUJKAS_clean_linker_0, # of connection points: 2
#     Edge 105, Type (0, 0), BuildingBlock: ZUJKAS_clean_linker_0, # of connection points: 2
#     Edge 106, Type (0, 0), BuildingBlock: ZUJKAS_clean_linker_0, # of connection points: 2
#     Edge 107, Type (0, 0), BuildingBlock: ZUJKAS_clean_linker_0, # of connection points: 2
#     Edge 108, Type (0, 0), BuildingBlock: ZUJKAS_clean_linker_0, # of connection points: 2
#     Edge 109, Type (0, 0), BuildingBlock: ZUJKAS_clean_linker_0, # of connection points: 2
#     Edge 110, Type (0, 0), BuildingBlock: ZUJKAS_clean_linker_0, # of connection points: 2
#     Edge 111, Type (0, 0), BuildingBlock: ZUJKAS_clean_linker_0, # of connection points: 2
#     Edge 112, Type (0, 0), BuildingBlock: ZUJKAS_clean_linker_0, # of connection points: 2
#     Edge 113, Type (0, 0), BuildingBlock: ZUJKAS_clean_linker_0, # of connection points: 2
#     Edge 114, Type (0, 0), BuildingBlock: ZUJKAS_clean_linker_0, # of connection points: 2
#     Edge 115, Type (0, 0), BuildingBlock: ZUJKAS_clean_linker_0, # of connection points: 2
#     Edge 116, Type (0, 0), BuildingBlock: ZUJKAS_clean_linker_0, # of connection points: 2
#     Edge 117, Type (0, 0), BuildingBlock: ZUJKAS_clean_linker_0, # of connection points: 2
#     Edge 118, Type (0, 0), BuildingBlock: ZUJKAS_clean_linker_0, # of connection points: 2
#     Edge 119, Type (0, 0), BuildingBlock: ZUJKAS_clean_linker_0, # of connection points: 2
#     Edge 120, Type (0, 0), BuildingBlock: ZUJKAS_clean_linker_0, # of connection points: 2
#     Edge 121, Type (0, 0), BuildingBlock: ZUJKAS_clean_linker_0, # of connection points: 2
#     Edge 122, Type (0, 0), BuildingBlock: ZUJKAS_clean_linker_0, # of connection points: 2
#     Edge 123, Type (0, 0), BuildingBlock: ZUJKAS_clean_linker_0, # of connection points: 2
#     Edge 124, Type (0, 0), BuildingBlock: ZUJKAS_clean_linker_0, # of connection points: 2
#     Edge 125, Type (0, 0), BuildingBlock: ZUJKAS_clean_linker_0, # of connection points: 2
#     Edge 126, Type (0, 0), BuildingBlock: ZUJKAS_clean_linker_0, # of connection points: 2
#     Edge 127, Type (0, 0), BuildingBlock: ZUJKAS_clean_linker_0, # of connection points: 2
#     Edge 128, Type (0, 0), BuildingBlock: ZUJKAS_clean_linker_0, # of connection points: 2
#     Edge 129, Type (0, 0), BuildingBlock: ZUJKAS_clean_linker_0, # of connection points: 2
#     Edge 130, Type (0, 0), BuildingBlock: ZUJKAS_clean_linker_0, # of connection points: 2
#     Edge 131, Type (0, 0), BuildingBlock: ZUJKAS_clean_linker_0, # of connection points: 2
#     Edge 132, Type (0, 0), BuildingBlock: ZUJKAS_clean_linker_0, # of connection points: 2
#     Edge 133, Type (0, 0), BuildingBlock: ZUJKAS_clean_linker_0, # of connection points: 2
#     Edge 134, Type (0, 0), BuildingBlock: ZUJKAS_clean_linker_0, # of connection points: 2
#     Edge 135, Type (0, 0), BuildingBlock: ZUJKAS_clean_linker_0, # of connection points: 2
#     Edge 136, Type (0, 0), BuildingBlock: ZUJKAS_clean_linker_0, # of connection points: 2
#     Edge 137, Type (0, 0), BuildingBlock: ZUJKAS_clean_linker_0, # of connection points: 2
#     Edge 138, Type (0, 0), BuildingBlock: ZUJKAS_clean_linker_0, # of connection points: 2
#     Edge 139, Type (0, 0), BuildingBlock: ZUJKAS_clean_linker_0, # of connection points: 2
#     Edge 140, Type (0, 0), BuildingBlock: ZUJKAS_clean_linker_0, # of connection points: 2
#     Edge 141, Type (0, 0), BuildingBlock: ZUJKAS_clean_linker_0, # of connection points: 2
#     Edge 142, Type (0, 0), BuildingBlock: ZUJKAS_clean_linker_0, # of connection points: 2
#     Edge 143, Type (0, 0), BuildingBlock: ZUJKAS_clean_linker_0, # of connection points: 2
# Relax obj value: 0.007
# Max RMSD: 0.068
# Mean RMSD: 0.068
data_MOF--net-ull--node1-QUQFOY_clean_sbu_1--edge1-ZUJKAS_clean_linker_0
_symmetry_space_group_name_H-M    P1
_symmetry_Int_Tables_number       1
_symmetry_cell_setting            triclinic
loop_
_symmetry_equiv_pos_as_xyz
'x, y, z'
_cell_length_a     81.621467
_cell_length_b     81.58594
_cell_length_c     81.623796
_cell_angle_alpha  90.009844
_cell_angle_beta   89.983141
_cell_angle_gamma 90.016139
loop_
_atom_site_label
_atom_site_type_symbol
_atom_site_fract_x
_atom_site_fract_y
_atom_site_fract_z
_atom_type_partial_charge
O0 O 0.01155 0.3357 0.20382 0.0
Cd1 Cd 0.01273 0.3573 0.19075 0.0
Cd2 Cd 0.02565 0.33709 0.16774 0.0
O3 O 0.02516 0.31995 0.1866 0.0
O4 O 0.0123 0.37502 0.20768 0.0
O5 O 0.03369 0.37034 0.19172 0.0
C6 C 0.02722 0.37842 0.20372 0.0
C7 C 0.04901 0.34077 0.15142 0.0
C8 C 0.01786 0.32191 0.20024 0.0
C9 C 0.99285 0.353 0.16037 0.0
O10 O 1.00368 0.34253 0.15634 0.0
O11 O 0.9944 0.36125 0.17353 0.0
O12 O 0.03995 0.32789 0.1501 0.0
O13 O 0.04516 0.35139 0.16251 0.0
O14 O 0.66939 0.00931 0.20428 0.0
Cd15 Cd 0.64844 0.01167 0.19032 0.0
Cd16 Cd 0.66958 0.02589 0.16962 0.0
O17 O 0.68518 0.02573 0.18976 0.0
O18 O 0.62979 0.01117 0.20624 0.0
O19 O 0.63615 0.03302 0.19151 0.0
C20 C 0.62719 0.02639 0.20276 0.0
C21 C 0.66584 0.04936 0.15342 0.0
C22 C 0.6829 0.01682 0.20236 0.0
C23 C 0.65504 0.99306 0.15985 0.0
O24 O 0.66608 1.00384 0.15753 0.0
O25 O 0.64518 0.99445 0.17187 0.0
O26 O 0.67923 0.04099 0.15287 0.0
O27 O 0.65472 0.04477 0.16372 0.0
O28 O 0.99631 0.67232 0.20322 0.0
Cd29 Cd 0.99418 0.65129 0.18929 0.0
Cd30 Cd 0.9807 0.67243 0.16783 0.0
O31 O 0.9814 0.68851 0.18756 0.0
O32 O 0.99451 0.63248 0.20506 0.0
O33 O 0.97267 0.63926 0.19053 0.0
C34 C 0.97926 0.63009 0.20165 0.0
C35 C 0.95717 0.6688 0.15174 0.0
C36 C 0.98953 0.68612 0.20065 0.0
C37 C 0.0132 0.65709 0.15864 0.0
O38 O 1.00255 0.66811 0.1558 0.0
O39 O 0.01166 0.64775 0.17105 0.0
O40 O 0.96579 0.68204 0.15092 0.0
O41 O 0.96153 0.65783 0.16228 0.0
O42 O 0.33849 1.00019 0.20421 0.0
Cd43 Cd 0.35923 0.99704 0.1901 0.0
Cd44 Cd 0.33794 0.98263 0.16998 0.0
O45 O 0.32288 0.9829 0.19055 0.0
O46 O 0.37838 0.9976 0.20543 0.0
O47 O 0.37077 0.97535 0.19192 0.0
C48 C 0.38033 0.98216 0.20256 0.0
C49 C 0.342 0.95909 0.15404 0.0
C50 C 0.32511 0.99235 0.20276 0.0
C51 C 0.35227 0.01507 0.15935 0.0
O52 O 0.34088 1.00457 0.15753 0.0
O53 O 0.36248 0.01356 0.17104 0.0
O54 O 0.3282 0.96679 0.15396 0.0
O55 O 0.35335 0.96434 0.16372 0.0
O56 O 0.01221 0.67321 0.80573 0.0
Cd57 Cd 0.01422 0.65188 0.81913 0.0
Cd58 Cd 0.02712 0.67256 0.84157 0.0
O59 O 0.02607 0.68935 0.82241 0.0
O60 O 0.01421 0.63351 0.80286 0.0
O61 O 0.03577 0.63992 0.81797 0.0
C62 C 0.0294 0.63105 0.8065 0.0
C63 C 0.05077 0.6691 0.85752 0.0
C64 C 0.01845 0.68712 0.80898 0.0
C65 C 0.99474 0.65634 0.84978 0.0
O66 O 0.00539 0.66714 0.85342 0.0
O67 O 0.99634 0.6478 0.83681 0.0
O68 O 0.04174 0.682 0.85884 0.0
O69 O 0.04673 0.65837 0.8466 0.0
O70 O 0.33865 0.01099 0.80495 0.0
Cd71 Cd 0.35989 0.01295 0.81856 0.0
Cd72 Cd 0.33904 0.02653 0.84029 0.0
O73 O 0.32252 0.0256 0.82095 0.0
O74 O 0.37819 0.01261 0.80223 0.0
O75 O 0.37235 0.03423 0.81749 0.0
C76 C 0.38101 0.02773 0.80594 0.0
C77 C 0.3428 0.05029 0.85603 0.0
C78 C 0.32482 0.01758 0.80777 0.0
C79 C 0.35455 0.99397 0.84929 0.0
O80 O 0.34373 0.00477 0.85237 0.0
O81 O 0.36358 0.99534 0.83663 0.0
O82 O 0.3297 0.04155 0.85728 0.0
O83 O 0.35359 0.0459 0.8453 0.0
O84 O 0.99599 0.33491 0.80498 0.0
Cd85 Cd 0.99469 0.35613 0.81863 0.0
Cd86 Cd 0.98126 0.33555 0.84085 0.0
O87 O 0.98161 0.31903 0.82142 0.0
O88 O 0.99567 0.37431 0.8022 0.0
O89 O 0.97388 0.36937 0.81754 0.0
C90 C 0.98069 0.37772 0.80592 0.0
C91 C 0.95779 0.33964 0.85685 0.0
C92 C 0.9893 0.32118 0.80803 0.0
C93 C 0.01412 0.35062 0.84916 0.0
O94 O 1.00323 0.34002 0.85268 0.0
O95 O 0.01268 0.35941 0.83634 0.0
O96 O 0.96607 0.32621 0.85769 0.0
O97 O 0.96247 0.35062 0.84645 0.0
O98 O 0.66919 1.00039 0.80395 0.0
Cd99 Cd 0.64817 0.99809 0.81782 0.0
Cd100 Cd 0.6691 0.98353 0.83859 0.0
O101 O 0.68479 0.98384 0.8185 0.0
O102 O 0.62953 0.99858 0.8019 0.0
O103 O 0.63588 0.97673 0.81664 0.0
C104 C 0.62691 0.98337 0.8054 0.0
C105 C 0.66545 0.95999 0.8547 0.0
C106 C 0.68264 0.99279 0.80591 0.0
C107 C 0.65451 0.01628 0.84861 0.0
O108 O 0.66545 0.00542 0.85093 0.0
O109 O 0.64486 0.01515 0.8364 0.0
O110 O 0.67881 0.96841 0.85526 0.0
O111 O 0.65433 0.96454 0.8444 0.0
O112 O 0.20397 0.00874 0.34066 0.0
Cd113 Cd 0.19047 0.01106 0.36185 0.0
Cd114 Cd 0.16898 0.02516 0.34118 0.0
O115 O 0.18871 0.02458 0.32498 0.0
O116 O 0.2068 0.01073 0.38012 0.0
O117 O 0.19176 0.03246 0.37406 0.0
C118 C 0.20327 0.02593 0.38276 0.0
C119 C 0.15309 0.04885 0.3448 0.0
C120 C 0.20154 0.01596 0.32708 0.0
C121 C 0.15966 0.99249 0.35649 0.0
O122 O 0.15672 1.00335 0.34569 0.0
O123 O 0.17231 0.99368 0.36555 0.0
O124 O 0.15212 0.04018 0.33163 0.0
O125 O 0.16363 0.04444 0.35575 0.0
O126 O 0.99958 0.20181 0.33743 0.0
Cd127 Cd 0.99748 0.18884 0.35901 0.0
Cd128 Cd 0.98525 0.16568 0.33853 0.0
O129 O 0.98641 0.1845 0.32136 0.0
O130 O 0.99697 0.20551 0.37699 0.0
O131 O 0.97574 0.1899 0.37065 0.0
C132 C 0.98181 0.20167 0.37934 0.0
C133 C 0.96205 0.14886 0.34107 0.0
C134 C 0.9937 0.19815 0.32347 0.0
C135 C 0.01744 0.15841 0.35572 0.0
O136 O 0.007 0.15435 0.3449 0.0
O137 O 0.01561 0.17162 0.36383 0.0
O138 O 0.97187 0.14764 0.32876 0.0
O139 O 0.96498 0.16024 0.35169 0.0
O140 O 0.80479 0.99917 0.33976 0.0
Cd141 Cd 0.81856 0.99634 0.36076 0.0
Cd142 Cd 0.83913 0.98191 0.3396 0.0
O143 O 0.81905 0.98259 0.32391 0.0
O144 O 0.8026 0.99679 0.37939 0.0
O145 O 0.81707 0.97484 0.37276 0.0
C146 C 0.80591 0.9815 0.38181 0.0
C147 C 0.85512 0.95827 0.34307 0.0
C148 C 0.80663 0.99174 0.3262 0.0
C149 C 0.84942 0.01441 0.35456 0.0
O150 O 0.8516 1.00369 0.34344 0.0
O151 O 0.83728 0.0132 0.3643 0.0
O152 O 0.85572 0.96677 0.32976 0.0
O153 O 0.84483 0.96278 0.35422 0.0
O154 O 0.01022 0.80545 0.33871 0.0
Cd155 Cd 0.01169 0.81891 0.36005 0.0
Cd156 Cd 0.02439 0.8415 0.33931 0.0
O157 O 0.02373 0.82233 0.32251 0.0
O158 O 0.01154 0.8023 0.37808 0.0
O159 O 0.03287 0.81814 0.37272 0.0
C160 C 0.02654 0.80628 0.38111 0.0
C161 C 0.04775 0.8579 0.34269 0.0
C162 C 0.0164 0.80874 0.3248 0.0
C163 C 0.99174 0.84919 0.35537 0.0
O164 O 1.00245 0.85297 0.34469 0.0
O165 O 0.99341 0.83623 0.36392 0.0
O166 O 0.03865 0.85904 0.32983 0.0
O167 O 0.04395 0.84692 0.35344 0.0
O168 O 0.2043 0.9959 0.67113 0.0
Cd169 Cd 0.19056 0.9942 0.64994 0.0
Cd170 Cd 0.16896 0.98061 0.6708 0.0
O171 O 0.1884 0.98111 0.68719 0.0
O172 O 0.20688 0.99494 0.63164 0.0
O173 O 0.19173 0.97314 0.6371 0.0
C174 C 0.20327 0.97984 0.62857 0.0
C175 C 0.15306 0.95703 0.66665 0.0
C176 C 0.20158 0.98913 0.68489 0.0
C177 C 0.16011 0.01344 0.65585 0.0
O178 O 0.15709 1.0026 0.66665 0.0
O179 O 0.17257 0.01196 0.64656 0.0
O180 O 0.15192 0.96552 0.67993 0.0
O181 O 0.16375 0.96158 0.65589 0.0
O182 O 0.01081 0.20157 0.6706 0.0
Cd183 Cd 0.01306 0.18839 0.64915 0.0
Cd184 Cd 0.02542 0.16559 0.66991 0.0
O185 O 0.02415 0.1846 0.68687 0.0
O186 O 0.01338 0.20492 0.63104 0.0
O187 O 0.03479 0.18961 0.63749 0.0
C188 C 0.02859 0.20125 0.62872 0.0
C189 C 0.04875 0.14893 0.66753 0.0
C190 C 0.01671 0.19814 0.6846 0.0
C191 C 0.9932 0.15795 0.65293 0.0
O192 O 1.00368 0.15411 0.66381 0.0
O193 O 0.99501 0.17099 0.64457 0.0
O194 O 0.03896 0.14778 0.67988 0.0
O195 O 0.0457 0.16012 0.65676 0.0
O196 O 0.80517 0.00919 0.6688 0.0
Cd197 Cd 0.81893 0.01249 0.64785 0.0
Cd198 Cd 0.8395 0.02661 0.66906 0.0
O199 O 0.81927 0.02599 0.68459 0.0
O200 O 0.80329 0.01252 0.62895 0.0
O201 O 0.81721 0.03443 0.63679 0.0
C202 C 0.80631 0.02796 0.62728 0.0
C203 C 0.85564 0.05015 0.66552 0.0
C204 C 0.80692 0.01672 0.68233 0.0
C205 C 0.84975 0.99431 0.65387 0.0
O206 O 0.85184 0.00476 0.66525 0.0
O207 O 0.83777 0.99582 0.644 0.0
O208 O 0.85614 0.04173 0.67889 0.0
O209 O 0.84535 0.04564 0.65438 0.0
O210 O 0.9979 0.80543 0.67075 0.0
Cd211 Cd 0.99669 0.81828 0.64904 0.0
Cd212 Cd 0.98441 0.84176 0.66932 0.0
O213 O 0.98505 0.82309 0.68667 0.0
O214 O 0.9966 0.80119 0.63148 0.0
O215 O 0.97558 0.81762 0.63622 0.0
C216 C 0.98174 0.80545 0.62816 0.0
C217 C 0.96159 0.85906 0.66664 0.0
C218 C 0.99202 0.80927 0.68466 0.0
C219 C 0.01712 0.84834 0.65265 0.0
O220 O 0.00643 0.85267 0.66313 0.0
O221 O 0.01534 0.83505 0.64466 0.0
O222 O 0.97138 0.8601 0.67899 0.0
O223 O 0.96432 0.8476 0.65605 0.0
O224 O 0.3368 0.2031 0.0099 0.0
Cd225 Cd 0.35857 0.19038 0.0114 0.0
Cd226 Cd 0.33834 0.16681 0.02381 0.0
O227 O 0.32093 0.18539 0.02275 0.0
O228 O 0.37602 0.20758 0.01136 0.0
O229 O 0.37128 0.19139 0.03256 0.0
C230 C 0.37929 0.20355 0.02629 0.0
C231 C 0.34043 0.14986 0.04696 0.0
C232 C 0.32289 0.19918 0.01571 0.0
C233 C 0.35536 0.16 0.99133 0.0
O234 O 0.34488 0.15565 1.00202 0.0
O235 O 0.36316 0.17341 0.99297 0.0
O236 O 0.32833 0.14869 0.03688 0.0
O237 O 0.35117 0.16118 0.04425 0.0
O238 O 0.33723 0.80616 0.99892 0.0
Cd239 Cd 0.35929 0.8183 0.99805 0.0
Cd240 Cd 0.34012 0.8425 0.98482 0.0
O241 O 0.32201 0.82447 0.98614 0.0
O242 O 0.37637 0.80075 0.99829 0.0
O243 O 0.37245 0.81726 0.97716 0.0
C244 C 0.38006 0.80488 0.98348 0.0
C245 C 0.34269 0.85932 0.9616 0.0
C246 C 0.32348 0.81057 0.99309 0.0
C247 C 0.35679 0.84897 0.01765 0.0
O248 O 0.34716 0.85383 0.00641 0.0
O249 O 0.36364 0.83499 0.01673 0.0
O250 O 0.33067 0.8609 0.97171 0.0
O251 O 0.353 0.8476 0.96423 0.0
O252 O 0.2022 0.33557 0.99781 0.0
Cd253 Cd 0.189 0.35704 0.99592 0.0
Cd254 Cd 0.16619 0.33655 0.98307 0.0
O255 O 0.18522 0.31963 0.9841 0.0
O256 O 0.20545 0.37521 0.99632 0.0
O257 O 0.19039 0.36935 0.97457 0.0
C258 C 0.2019 0.37802 0.98117 0.0
C259 C 0.1499 0.33944 0.95957 0.0
C260 C 0.19874 0.3217 0.9916 0.0
C261 C 0.15831 0.35298 0.01544 0.0
O262 O 0.15446 0.34227 0.00479 0.0
O263 O 0.17144 0.36126 0.01386 0.0
O264 O 0.14874 0.32676 0.96893 0.0
O265 O 0.16086 0.35029 0.96318 0.0
O266 O 0.67236 0.20287 0.99946 0.0
Cd267 Cd 0.65062 0.19005 0.99796 0.0
Cd268 Cd 0.67079 0.16683 0.98519 0.0
O269 O 0.68818 0.18545 0.98616 0.0
O270 O 0.63302 0.20711 0.99801 0.0
O271 O 0.63795 0.19099 0.97679 0.0
C272 C 0.62981 0.20305 0.98307 0.0
C273 C 0.668 0.15006 0.96198 0.0
C274 C 0.68624 0.19912 0.99344 0.0
C275 C 0.65421 0.15962 0.0178 0.0
O276 O 0.66469 0.15551 0.00702 0.0
O277 O 0.64619 0.17291 0.01628 0.0
O278 O 0.68036 0.14875 0.97172 0.0
O279 O 0.65745 0.16147 0.96501 0.0
O280 O 0.80554 0.673 0.99666 0.0
Cd281 Cd 0.81885 0.65159 0.99485 0.0
Cd282 Cd 0.84163 0.67208 0.98217 0.0
O283 O 0.82251 0.68895 0.98293 0.0
O284 O 0.80251 0.63328 0.99467 0.0
O285 O 0.81795 0.63961 0.9733 0.0
C286 C 0.80636 0.63078 0.97953 0.0
C287 C 0.85809 0.66879 0.95884 0.0
C288 C 0.80896 0.68685 0.9904 0.0
C289 C 0.84928 0.65585 0.01469 0.0
O290 O 0.85314 0.66658 1.00406 0.0
O291 O 0.83625 0.64743 0.01296 0.0
O292 O 0.8592 0.68162 0.968 0.0
O293 O 0.84707 0.65804 0.96254 0.0
O294 O 0.67137 0.80654 0.0084 0.0
Cd295 Cd 0.64985 0.81966 0.01034 0.0
Cd296 Cd 0.67029 0.84253 0.02318 0.0
O297 O 0.68732 0.82359 0.02203 0.0
O298 O 0.63172 0.80315 0.01036 0.0
O299 O 0.63782 0.8185 0.03185 0.0
C300 C 0.62911 0.80687 0.02551 0.0
C301 C 0.66773 0.85907 0.04658 0.0
C302 C 0.68525 0.81005 0.01454 0.0
C303 C 0.65371 0.85028 0.99077 0.0
O304 O 0.66438 0.85414 1.00145 0.0
O305 O 0.64546 0.83712 0.99234 0.0
O306 O 0.68014 0.86028 0.03689 0.0
O307 O 0.65697 0.8479 0.04337 0.0
O308 O 0.20291 0.67484 0.01176 0.0
Cd309 Cd 0.19011 0.6531 0.01349 0.0
Cd310 Cd 0.16678 0.67324 0.02606 0.0
O311 O 0.18544 0.69061 0.02508 0.0
O312 O 0.20685 0.63519 0.01345 0.0
O313 O 0.19126 0.64084 0.03489 0.0
C314 C 0.20301 0.63232 0.02852 0.0
C315 C 0.14984 0.67043 0.04915 0.0
C316 C 0.1991 0.68871 0.01776 0.0
C317 C 0.15968 0.65654 0.99356 0.0
O318 O 0.1555 0.66711 1.00422 0.0
O319 O 0.17296 0.64854 0.99523 0.0
O320 O 0.14865 0.68284 0.03944 0.0
O321 O 0.16127 0.65988 0.0462 0.0
O322 O 0.80478 0.3369 0.0118 0.0
Cd323 Cd 0.81763 0.35855 0.01311 0.0
Cd324 Cd 0.84096 0.33896 0.02668 0.0
O325 O 0.82233 0.32148 0.02538 0.0
O326 O 0.80104 0.37659 0.01299 0.0
O327 O 0.81668 0.37096 0.0344 0.0
C328 C 0.80492 0.37947 0.02805 0.0
C329 C 0.85703 0.34195 0.05035 0.0
C330 C 0.80867 0.32316 0.01801 0.0
C331 C 0.84852 0.35494 0.9939 0.0
O332 O 0.8529 0.34508 0.00514 0.0
O333 O 0.83485 0.3624 0.9948 0.0
O334 O 0.8585 0.3294 0.04087 0.0
O335 O 0.84587 0.3526 0.04677 0.0
O336 O 0.51054 0.83716 0.7042 0.0
Cd337 Cd 0.51204 0.85844 0.69056 0.0
Cd338 Cd 0.52566 0.83771 0.66877 0.0
O339 O 0.52522 0.82118 0.68811 0.0
O340 O 0.51116 0.87662 0.707 0.0
O341 O 0.53296 0.87151 0.69173 0.0
C342 C 0.52619 0.87991 0.70333 0.0
C343 C 0.54917 0.84175 0.65276 0.0
C344 C 0.51729 0.8234 0.70136 0.0
C345 C 0.49279 0.8527 0.6601 0.0
O346 O 0.50367 0.84198 0.65696 0.0
O347 O 0.49422 0.86185 0.67266 0.0
O348 O 0.54056 0.82855 0.65161 0.0
O349 O 0.54478 0.85251 0.66352 0.0
O350 O 0.17324 0.51334 0.7047 0.0
Cd351 Cd 0.15256 0.51572 0.69034 0.0
Cd352 Cd 0.17403 0.52919 0.66947 0.0
O353 O 0.18951 0.52879 0.68966 0.0
O354 O 0.13342 0.51535 0.70572 0.0
O355 O 0.1407 0.53731 0.69159 0.0
C356 C 0.13128 0.53069 0.70247 0.0
C357 C 0.17007 0.55273 0.65353 0.0
C358 C 0.18697 0.5204 0.70256 0.0
C359 C 0.15928 0.49667 0.65987 0.0
O360 O 0.17053 0.50719 0.65741 0.0
O361 O 0.14942 0.49842 0.67185 0.0
O362 O 0.18372 0.54477 0.65317 0.0
O363 O 0.1588 0.54769 0.66343 0.0
O364 O 0.49712 0.17395 0.70346 0.0
Cd365 Cd 0.49566 0.15241 0.69032 0.0
Cd366 Cd 0.48255 0.17282 0.66761 0.0
O367 O 0.48327 0.18984 0.68657 0.0
O368 O 0.49629 0.13463 0.70718 0.0
O369 O 0.47471 0.13936 0.69151 0.0
C370 C 0.48132 0.13123 0.70338 0.0
C371 C 0.45913 0.16944 0.6513 0.0
C372 C 0.4908 0.18778 0.70008 0.0
C373 C 0.51526 0.15687 0.65981 0.0
O374 O 0.50442 0.1674 0.656 0.0
O375 O 0.51381 0.14849 0.6729 0.0
O376 O 0.4683 0.18226 0.65008 0.0
O377 O 0.4629 0.15872 0.66233 0.0
O378 O 0.83882 0.49667 0.70231 0.0
Cd379 Cd 0.86027 0.49518 0.68908 0.0
Cd380 Cd 0.83969 0.48244 0.66631 0.0
O381 O 0.82268 0.48328 0.68529 0.0
O382 O 0.87805 0.49559 0.70593 0.0
O383 O 0.87311 0.4741 0.69017 0.0
C384 C 0.88127 0.48059 0.7021 0.0
C385 C 0.84308 0.459 0.65002 0.0
C386 C 0.8249 0.49058 0.6989 0.0
C387 C 0.85596 0.51503 0.65869 0.0
O388 O 0.84534 0.5043 0.65478 0.0
O389 O 0.86429 0.51343 0.67178 0.0
O390 O 0.83029 0.46819 0.64873 0.0
O391 O 0.85374 0.46274 0.6611 0.0
O392 O 0.51109 0.17225 0.30546 0.0
Cd393 Cd 0.51245 0.15071 0.3186 0.0
Cd394 Cd 0.52524 0.17122 0.34153 0.0
O395 O 0.52431 0.18835 0.32266 0.0
O396 O 0.5118 0.13298 0.30168 0.0
O397 O 0.53336 0.13758 0.31742 0.0
C398 C 0.52674 0.12952 0.3055 0.0
C399 C 0.54876 0.16781 0.35767 0.0
C400 C 0.51709 0.18618 0.30901 0.0
C401 C 0.49267 0.15493 0.34911 0.0
O402 O 0.50344 0.16547 0.35311 0.0
O403 O 0.4942 0.14673 0.33591 0.0
O404 O 0.53957 0.18058 0.35906 0.0
O405 O 0.54496 0.15716 0.34658 0.0
O406 O 0.83568 0.5127 0.30453 0.0
Cd407 Cd 0.85684 0.51463 0.3183 0.0
Cd408 Cd 0.8359 0.52775 0.34012 0.0
O409 O 0.81963 0.52739 0.32057 0.0
O410 O 0.87546 0.51424 0.30232 0.0
O411 O 0.86908 0.53604 0.3171 0.0
C412 C 0.87806 0.52944 0.30584 0.0
C413 C 0.83973 0.55109 0.35646 0.0
C414 C 0.82191 0.51944 0.30734 0.0
C415 C 0.85116 0.49505 0.34862 0.0
O416 O 0.84016 0.50565 0.35172 0.0
O417 O 0.86048 0.49686 0.33623 0.0
O418 O 0.82651 0.54248 0.35733 0.0
O419 O 0.85061 0.54681 0.34578 0.0
O420 O 0.50016 0.84008 0.30415 0.0
Cd421 Cd 0.49708 0.8606 0.31858 0.0
Cd422 Cd 0.48232 0.83919 0.33842 0.0
O423 O 0.48271 0.82445 0.31761 0.0
O424 O 0.49746 0.88002 0.30357 0.0
O425 O 0.47531 0.87198 0.31699 0.0
C426 C 0.482 0.88176 0.30648 0.0
C427 C 0.45859 0.84287 0.35416 0.0
C428 C 0.49216 0.82676 0.30541 0.0
C429 C 0.5147 0.8533 0.34954 0.0
O430 O 0.50408 0.84198 0.35118 0.0
O431 O 0.51345 0.86354 0.33783 0.0
O432 O 0.46633 0.82909 0.35408 0.0
O433 O 0.46393 0.85444 0.34478 0.0
O434 O 0.17207 0.49631 0.30484 0.0
Cd435 Cd 0.15079 0.49483 0.31846 0.0
Cd436 Cd 0.17155 0.48145 0.3404 0.0
O437 O 0.18806 0.48177 0.32103 0.0
O438 O 0.13256 0.49536 0.30208 0.0
O439 O 0.13793 0.47377 0.31755 0.0
C440 C 0.12942 0.48034 0.30591 0.0
C441 C 0.16755 0.45813 0.35673 0.0
C442 C 0.18583 0.48961 0.30773 0.0
C443 C 0.15633 0.51429 0.34885 0.0
O444 O 0.1671 0.50349 0.35206 0.0
O445 O 0.14725 0.51276 0.33625 0.0
O446 O 0.18075 0.46676 0.35773 0.0
O447 O 0.15681 0.46234 0.34589 0.0
O448 O 0.70413 0.51207 0.83555 0.0
Cd449 Cd 0.6905 0.51446 0.85674 0.0
Cd450 Cd 0.66879 0.52769 0.83577 0.0
O451 O 0.68828 0.52685 0.81942 0.0
O452 O 0.70648 0.51441 0.87535 0.0
O453 O 0.69183 0.53614 0.86844 0.0
C454 C 0.70305 0.5297 0.87757 0.0
C455 C 0.65267 0.55121 0.8394 0.0
C456 C 0.70139 0.51871 0.82172 0.0
C457 C 0.65982 0.49535 0.85158 0.0
O458 O 0.65685 0.50586 0.84046 0.0
O459 O 0.67232 0.49702 0.86076 0.0
O460 O 0.65167 0.54245 0.82628 0.0
O461 O 0.66341 0.54702 0.85024 0.0
O462 O 0.49684 0.7032 0.83845 0.0
Cd463 Cd 0.49572 0.68963 0.85972 0.0
Cd464 Cd 0.48282 0.6671 0.83901 0.0
O465 O 0.48327 0.68633 0.82228 0.0
O466 O 0.49623 0.70615 0.87784 0.0
O467 O 0.47481 0.69032 0.87284 0.0
C468 C 0.48131 0.70212 0.88118 0.0
C469 C 0.45951 0.6507 0.84276 0.0
C470 C 0.49056 0.69994 0.82457 0.0
C471 C 0.5157 0.65943 0.85455 0.0
O472 O 0.50484 0.65564 0.84402 0.0
O473 O 0.51411 0.67235 0.86316 0.0
O474 O 0.46837 0.6496 0.82972 0.0
O475 O 0.46351 0.66165 0.85348 0.0
O476 O 0.3062 0.49709 0.84043 0.0
Cd477 Cd 0.31988 0.4949 0.86152 0.0
Cd478 Cd 0.34197 0.48202 0.84051 0.0
O479 O 0.32262 0.48331 0.82396 0.0
O480 O 0.30385 0.49499 0.88009 0.0
O481 O 0.3187 0.47332 0.87342 0.0
C482 C 0.30738 0.47975 0.88244 0.0
C483 C 0.35758 0.45814 0.84398 0.0
C484 C 0.30923 0.49095 0.82643 0.0
C485 C 0.35062 0.51424 0.85678 0.0
O486 O 0.35409 0.50362 0.8459 0.0
O487 O 0.33772 0.51268 0.86543 0.0
O488 O 0.35898 0.4671 0.83104 0.0
O489 O 0.34676 0.46237 0.85474 0.0
O490 O 0.51219 0.30601 0.83806 0.0
Cd491 Cd 0.51349 0.3187 0.85987 0.0
Cd492 Cd 0.52563 0.34239 0.8396 0.0
O493 O 0.52462 0.32392 0.82207 0.0
O494 O 0.51338 0.30139 0.87722 0.0
O495 O 0.53456 0.3177 0.87277 0.0
C496 C 0.52826 0.30547 0.88065 0.0
C497 C 0.54857 0.35959 0.84196 0.0
C498 C 0.51779 0.31003 0.82409 0.0
C499 C 0.49311 0.34887 0.85667 0.0
O500 O 0.50376 0.35333 0.84621 0.0
O501 O 0.49486 0.33545 0.86445 0.0
O502 O 0.53853 0.36076 0.82983 0.0
O503 O 0.54601 0.34807 0.85252 0.0
O504 O 0.70169 0.49897 0.17025 0.0
Cd505 Cd 0.68819 0.49676 0.14902 0.0
Cd506 Cd 0.66574 0.48417 0.16991 0.0
O507 O 0.68502 0.4853 0.18656 0.0
O508 O 0.70437 0.49657 0.13058 0.0
O509 O 0.68927 0.47507 0.13728 0.0
C510 C 0.70071 0.48134 0.1283 0.0
C511 C 0.64955 0.4606 0.1669 0.0
C512 C 0.69848 0.49285 0.18421 0.0
C513 C 0.65765 0.51643 0.15337 0.0
O514 O 0.65399 0.50591 0.16429 0.0
O515 O 0.67058 0.51467 0.14482 0.0
O516 O 0.6484 0.46984 0.17967 0.0
O517 O 0.66045 0.46436 0.15605 0.0
O518 O 0.50915 0.70457 0.16787 0.0
Cd519 Cd 0.51226 0.69047 0.14711 0.0
Cd520 Cd 0.52634 0.67011 0.16857 0.0
O521 O 0.52586 0.69056 0.1838 0.0
O522 O 0.51221 0.70586 0.128 0.0
O523 O 0.53413 0.69201 0.13588 0.0
C524 C 0.52763 0.7028 0.12627 0.0
C525 C 0.54985 0.65392 0.16513 0.0
C526 C 0.51669 0.70295 0.18139 0.0
C527 C 0.49396 0.65978 0.15367 0.0
O528 O 0.50445 0.65778 0.16503 0.0
O529 O 0.4955 0.67163 0.14364 0.0
O530 O 0.54151 0.65361 0.17855 0.0
O531 O 0.54526 0.66402 0.15385 0.0
O532 O 0.30518 0.511 0.16996 0.0
Cd533 Cd 0.3185 0.51305 0.14858 0.0
Cd534 Cd 0.34135 0.52519 0.16942 0.0
O535 O 0.32227 0.52408 0.18631 0.0
O536 O 0.30217 0.51363 0.13031 0.0
O537 O 0.31776 0.5348 0.13691 0.0
C538 C 0.30613 0.52877 0.128 0.0
C539 C 0.35836 0.54827 0.16708 0.0
C540 C 0.30865 0.51683 0.18398 0.0
C541 C 0.34876 0.49294 0.15239 0.0
O542 O 0.35268 0.50339 0.16327 0.0
O543 O 0.3357 0.49481 0.14407 0.0
O544 O 0.35929 0.5385 0.17946 0.0
O545 O 0.34714 0.54539 0.15629 0.0
O546 O 0.49624 0.3057 0.17177 0.0
Cd547 Cd 0.49486 0.31891 0.15027 0.0
Cd548 Cd 0.48149 0.34151 0.17054 0.0
O549 O 0.48229 0.32257 0.1876 0.0
O550 O 0.4954 0.30218 0.13233 0.0
O551 O 0.47388 0.31788 0.13732 0.0
C552 C 0.48043 0.30606 0.12904 0.0
C553 C 0.45785 0.35734 0.16652 0.0
C554 C 0.48987 0.30908 0.18557 0.0
C555 C 0.51425 0.34958 0.15489 0.0
O556 O 0.5033 0.35335 0.16533 0.0
O557 O 0.51294 0.33647 0.14652 0.0
O558 O 0.46668 0.35885 0.17953 0.0
O559 O 0.46209 0.3463 0.15599 0.0
O560 O 0.83575 0.70284 0.51167 0.0
Cd561 Cd 0.85744 0.68995 0.51297 0.0
Cd562 Cd 0.83744 0.66684 0.526 0.0
O563 O 0.82011 0.68553 0.52531 0.0
O564 O 0.87505 0.707 0.51243 0.0
O565 O 0.87047 0.69114 0.53392 0.0
C566 C 0.87849 0.70313 0.52738 0.0
C567 C 0.84138 0.65076 0.54948 0.0
C568 C 0.82197 0.69915 0.51793 0.0
C569 C 0.85339 0.65941 0.49323 0.0
O570 O 0.84298 0.65532 0.5041 0.0
O571 O 0.8615 0.67267 0.49471 0.0
O572 O 0.82849 0.64921 0.54048 0.0
O573 O 0.85184 0.66197 0.54551 0.0
O574 O 0.83739 0.30568 0.49626 0.0
Cd575 Cd 0.85881 0.31894 0.49416 0.0
Cd576 Cd 0.83808 0.34171 0.48158 0.0
O577 O 0.8212 0.32263 0.48282 0.0
O578 O 0.87701 0.30252 0.49405 0.0
O579 O 0.87069 0.31775 0.47255 0.0
C580 C 0.87949 0.30619 0.47887 0.0
C581 C 0.84022 0.35838 0.45822 0.0
C582 C 0.82343 0.30909 0.49026 0.0
C583 C 0.85491 0.34949 0.51384 0.0
O584 O 0.84411 0.35331 0.50328 0.0
O585 O 0.86323 0.3364 0.51216 0.0
O586 O 0.8279 0.35941 0.46805 0.0
O587 O 0.85113 0.34732 0.46127 0.0
O588 O 0.70265 0.83634 0.49913 0.0
Cd589 Cd 0.68995 0.85816 0.49773 0.0
Cd590 Cd 0.66653 0.83792 0.48509 0.0
O591 O 0.68513 0.82052 0.48598 0.0
O592 O 0.70719 0.87557 0.49802 0.0
O593 O 0.69109 0.8711 0.4767 0.0
C594 C 0.70323 0.87901 0.4831 0.0
C595 C 0.6494 0.84034 0.46211 0.0
C596 C 0.69883 0.82246 0.49317 0.0
C597 C 0.65961 0.85465 0.51772 0.0
O598 O 0.65541 0.84416 0.50698 0.0
O599 O 0.67292 0.86263 0.51613 0.0
O600 O 0.64832 0.82808 0.47201 0.0
O601 O 0.66078 0.85101 0.46484 0.0
O602 O 0.17366 0.70373 0.49641 0.0
Cd603 Cd 0.15163 0.69148 0.496 0.0
Cd604 Cd 0.17073 0.66721 0.48281 0.0
O605 O 0.1888 0.68528 0.48371 0.0
O606 O 0.13443 0.70893 0.49635 0.0
O607 O 0.13806 0.69215 0.47538 0.0
C608 C 0.13046 0.70454 0.48169 0.0
C609 C 0.16802 0.65008 0.45982 0.0
C610 C 0.18736 0.69926 0.49052 0.0
C611 C 0.15464 0.66112 0.51601 0.0
O612 O 0.16408 0.65614 0.50466 0.0
O613 O 0.1477 0.67505 0.515 0.0
O614 O 0.18014 0.6487 0.46984 0.0
O615 O 0.15766 0.66177 0.46243 0.0
O616 O 0.30542 0.17337 0.49691 0.0
Cd617 Cd 0.31873 0.15192 0.49582 0.0
Cd618 Cd 0.34138 0.17228 0.48254 0.0
O619 O 0.32239 0.18927 0.48316 0.0
O620 O 0.30202 0.134 0.49668 0.0
O621 O 0.31774 0.13854 0.47508 0.0
C622 C 0.30593 0.13038 0.4818 0.0
C623 C 0.35737 0.16841 0.45898 0.0
C624 C 0.30882 0.18719 0.49056 0.0
C625 C 0.34923 0.15674 0.51539 0.0
O626 O 0.35309 0.16713 0.50442 0.0
O627 O 0.33613 0.14838 0.51404 0.0
O628 O 0.35877 0.1814 0.46787 0.0
O629 O 0.34638 0.15779 0.46312 0.0
O630 O 0.17174 0.30696 0.51184 0.0
Cd631 Cd 0.15024 0.32007 0.51396 0.0
Cd632 Cd 0.17104 0.34312 0.52616 0.0
O633 O 0.18802 0.32414 0.52491 0.0
O634 O 0.13221 0.30344 0.51409 0.0
O635 O 0.13834 0.31879 0.53557 0.0
C636 C 0.12968 0.30711 0.52927 0.0
C637 C 0.16911 0.36012 0.5493 0.0
C638 C 0.18576 0.31052 0.51763 0.0
C639 C 0.15389 0.35044 0.49395 0.0
O640 O 0.16475 0.35441 0.5044 0.0
O641 O 0.14562 0.33734 0.49582 0.0
O642 O 0.18131 0.36106 0.5393 0.0
O643 O 0.15823 0.34894 0.54657 0.0
O644 O 0.70274 0.17237 0.51084 0.0
Cd645 Cd 0.68923 0.1511 0.51277 0.0
Cd646 Cd 0.66679 0.17191 0.52561 0.0
O647 O 0.68603 0.18862 0.52452 0.0
O648 O 0.70545 0.1327 0.51256 0.0
O649 O 0.6904 0.13894 0.53422 0.0
C650 C 0.70183 0.13009 0.52773 0.0
C651 C 0.65071 0.16879 0.54923 0.0
C652 C 0.69951 0.18631 0.51701 0.0
C653 C 0.65858 0.15556 0.49329 0.0
O654 O 0.65492 0.16635 0.50392 0.0
O655 O 0.67159 0.14708 0.49487 0.0
O656 O 0.6495 0.18159 0.54004 0.0
O657 O 0.66161 0.15796 0.54539 0.0
O658 O 0.30612 0.83575 0.50982 0.0
Cd659 Cd 0.31847 0.8577 0.51087 0.0
Cd660 Cd 0.34249 0.83834 0.52388 0.0
O661 O 0.32446 0.82028 0.52225 0.0
O662 O 0.30115 0.87503 0.51085 0.0
O663 O 0.31773 0.87073 0.53184 0.0
C664 C 0.30544 0.87857 0.52565 0.0
C665 C 0.35886 0.84066 0.54744 0.0
C666 C 0.31054 0.82189 0.51539 0.0
C667 C 0.34912 0.85512 0.49119 0.0
O668 O 0.35399 0.84545 0.50241 0.0
O669 O 0.33516 0.86199 0.49217 0.0
O670 O 0.36062 0.82873 0.53724 0.0
O671 O 0.34729 0.85109 0.54462 0.0
H672 H 0.11361 0.48928 0.27782 0.0
H673 H 0.0955 0.47262 0.26085 0.0
H674 H 0.09939 0.43286 0.29545 0.0
H675 H 0.11802 0.44933 0.31228 0.0
H676 H 0.10326 0.42192 0.26512 0.0
H677 H 0.04815 0.46134 0.26633 0.0
H678 H 0.06585 0.47219 0.25914 0.0
H679 H 0.06531 0.46462 0.27987 0.0
C680 C 0.11046 0.47707 0.28196 0.0
C681 C 0.11721 0.47068 0.29648 0.0
C682 C 0.09999 0.46757 0.27226 0.0
C683 C 0.09579 0.45155 0.27697 0.0
C684 C 0.10237 0.44521 0.29157 0.0
H685 H 0.01846 0.39333 0.23237 0.0
H686 H 0.03523 0.41091 0.24982 0.0
C687 C 0.11298 0.45466 0.30122 0.0
C688 C 0.08524 0.44116 0.26625 0.0
H689 H 0.04856 0.44021 0.24606 0.0
C690 C 0.09125 0.42588 0.26105 0.0
C691 C 0.06947 0.4462 0.26105 0.0
C692 C 0.06174 0.4619 0.26703 0.0
C693 C 0.08208 0.41564 0.25065 0.0
C694 C 0.06662 0.42101 0.24486 0.0
C695 C 0.0605 0.43618 0.25026 0.0
C696 C 0.05631 0.41081 0.23373 0.0
C697 C 0.08892 0.399 0.24634 0.0
C698 C 0.06237 0.40517 0.21861 0.0
C699 C 0.05283 0.39493 0.20864 0.0
C700 C 0.03692 0.39037 0.21345 0.0
C701 C 0.03065 0.39659 0.22826 0.0
C702 C 0.04024 0.40666 0.23828 0.0
H703 H 0.09825 0.39492 0.25537 0.0
H704 H 0.07908 0.38962 0.24576 0.0
H705 H 0.09495 0.39966 0.23418 0.0
H706 H 0.07453 0.40857 0.21456 0.0
H707 H 0.05798 0.39046 0.19726 0.0
H708 H 0.61086 0.01739 0.23055 0.0
H709 H 0.59304 0.03426 0.24765 0.0
H710 H 0.59822 0.0744 0.21366 0.0
H711 H 0.61658 0.05772 0.19674 0.0
H712 H 0.60213 0.08488 0.24402 0.0
H713 H 0.54609 0.0468 0.24223 0.0
H714 H 0.56346 0.03545 0.24942 0.0
H715 H 0.56324 0.04321 0.22876 0.0
C716 C 0.60804 0.02974 0.22657 0.0
C717 C 0.61509 0.03617 0.21221 0.0
C718 C 0.59775 0.03936 0.23634 0.0
C719 C 0.594 0.05555 0.23184 0.0
C720 C 0.60085 0.06193 0.21738 0.0
H721 H 0.51778 0.11494 0.27676 0.0
H722 H 0.53426 0.09716 0.25923 0.0
C723 C 0.61131 0.05236 0.20768 0.0
C724 C 0.58367 0.06607 0.24265 0.0
H725 H 0.54695 0.06768 0.26274 0.0
C726 C 0.59002 0.08115 0.24802 0.0
C727 C 0.56776 0.06136 0.24776 0.0
C728 C 0.55966 0.0459 0.2416 0.0
C729 C 0.58105 0.09152 0.25847 0.0
C730 C 0.56544 0.08646 0.26417 0.0
C731 C 0.559 0.07148 0.25862 0.0
C732 C 0.55532 0.09681 0.27533 0.0
C733 C 0.58826 0.10796 0.26292 0.0
C734 C 0.56145 0.10228 0.29048 0.0
C735 C 0.55209 0.11264 0.30049 0.0
C736 C 0.53626 0.11749 0.2957 0.0
C737 C 0.52991 0.11145 0.28085 0.0
C738 C 0.53934 0.10127 0.27079 0.0
H739 H 0.59769 0.11191 0.25392 0.0
H740 H 0.57864 0.11756 0.26357 0.0
H741 H 0.59426 0.10707 0.27508 0.0
H742 H 0.57354 0.09864 0.29453 0.0
H743 H 0.5573 0.11697 0.3119 0.0
H744 H 0.99019 0.60753 0.22388 0.0
H745 H 0.97381 0.5893 0.24112 0.0
H746 H 0.92964 0.60769 0.21873 0.0
H747 H 0.94597 0.62565 0.20113 0.0
H748 H 0.9516 0.59729 0.26388 0.0
H749 H 0.92161 0.55908 0.2165 0.0
H750 H 0.93867 0.57238 0.21193 0.0
H751 H 0.91826 0.58059 0.21345 0.0
C752 C 0.977 0.60752 0.22243 0.0
C753 C 0.96941 0.618 0.21104 0.0
C754 C 0.96764 0.59712 0.23235 0.0
C755 C 0.95047 0.59694 0.23114 0.0
C756 C 0.94286 0.60728 0.21966 0.0
H757 H 0.88288 0.56269 0.30653 0.0
H758 H 0.90092 0.57893 0.28893 0.0
C759 C 0.95223 0.61761 0.20963 0.0
C760 C 0.94057 0.58655 0.24245 0.0
H761 H 0.91081 0.55709 0.24357 0.0
C762 C 0.94275 0.58843 0.25943 0.0
C763 C 0.92914 0.57483 0.23669 0.0
C764 C 0.92688 0.57145 0.21865 0.0
C765 C 0.93368 0.57914 0.27077 0.0
C766 C 0.92179 0.56789 0.26501 0.0
C767 C 0.9198 0.56582 0.24802 0.0
C768 C 0.91135 0.55803 0.27632 0.0
C769 C 0.93717 0.58127 0.28879 0.0
C770 C 0.91096 0.54087 0.27499 0.0
C771 C 0.90051 0.53157 0.28492 0.0
C772 C 0.89019 0.53922 0.29642 0.0
C773 C 0.89079 0.55639 0.29794 0.0
C774 C 0.90117 0.5657 0.28791 0.0
H775 H 0.94962 0.58638 0.2909 0.0
H776 H 0.92817 0.58997 0.2941 0.0
H777 H 0.93614 0.56944 0.29545 0.0
H778 H 0.91866 0.53466 0.26614 0.0
H779 H 0.90034 0.51839 0.28338 0.0
H780 H 0.44865 0.88555 0.30666 0.0
H781 H 0.43216 0.90319 0.28888 0.0
H782 H 0.47623 0.92281 0.26731 0.0
H783 H 0.49279 0.90496 0.28477 0.0
H784 H 0.43025 0.93622 0.28481 0.0
H785 H 0.45153 0.9072 0.22719 0.0
H786 H 0.4556 0.89847 0.24709 0.0
H787 H 0.46791 0.91513 0.23953 0.0
C788 C 0.45485 0.8937 0.29822 0.0
C789 C 0.47205 0.89374 0.29706 0.0
C790 C 0.4454 0.90377 0.28803 0.0
C791 C 0.45293 0.91407 0.27647 0.0
C792 C 0.47011 0.91465 0.2758 0.0
H793 H 0.40317 0.99327 0.22446 0.0
H794 H 0.42117 0.97698 0.24201 0.0
C795 C 0.47957 0.90453 0.28591 0.0
C796 C 0.44279 0.92406 0.26506 0.0
H797 H 0.43538 0.93125 0.22445 0.0
C798 C 0.43137 0.93512 0.27162 0.0
C799 C 0.44403 0.92244 0.24781 0.0
C800 C 0.4553 0.91006 0.23996 0.0
C801 C 0.42132 0.94474 0.26145 0.0
C802 C 0.42298 0.94355 0.24421 0.0
C803 C 0.43425 0.93232 0.23765 0.0
C804 C 0.41284 0.95354 0.23279 0.0
C805 C 0.40874 0.95579 0.26931 0.0
C806 C 0.40271 0.94585 0.22118 0.0
C807 C 0.39256 0.95516 0.21095 0.0
C808 C 0.39234 0.97236 0.2121 0.0
C809 C 0.40294 0.98005 0.22332 0.0
C810 C 0.41315 0.97074 0.23348 0.0
H811 H 0.40592 0.95195 0.28206 0.0
H812 H 0.4136 0.96849 0.26977 0.0
H813 H 0.39717 0.95591 0.26216 0.0
H814 H 0.40235 0.9326 0.22033 0.0
H815 H 0.38456 0.94884 0.20245 0.0
H816 H 0.12737 0.56405 0.7023 0.0
H817 H 0.1097 0.58047 0.72014 0.0
H818 H 0.09023 0.53629 0.74164 0.0
H819 H 0.10814 0.51981 0.72417 0.0
H820 H 0.077 0.58259 0.7242 0.0
H821 H 0.10528 0.56073 0.7819 0.0
H822 H 0.11411 0.5566 0.76206 0.0
H823 H 0.09733 0.54438 0.76953 0.0
C824 C 0.11925 0.55781 0.71075 0.0
C825 C 0.11927 0.54061 0.71189 0.0
C826 C 0.10917 0.56723 0.72097 0.0
C827 C 0.0989 0.55965 0.73254 0.0
C828 C 0.09837 0.54246 0.73317 0.0
H829 H 0.01888 0.60887 0.78366 0.0
H830 H 0.03559 0.59125 0.76612 0.0
C831 C 0.10853 0.53304 0.72305 0.0
C832 C 0.08883 0.56975 0.74396 0.0
H833 H 0.08102 0.57664 0.78456 0.0
C834 C 0.07791 0.5813 0.7374 0.0
C835 C 0.09021 0.56831 0.76121 0.0
C836 C 0.10248 0.55696 0.76912 0.0
C837 C 0.06816 0.59125 0.74756 0.0
C838 C 0.06904 0.58933 0.76479 0.0
C839 C 0.08016 0.57796 0.77136 0.0
C840 C 0.05878 0.59923 0.77621 0.0
C841 C 0.05731 0.60399 0.73969 0.0
C842 C 0.06616 0.609 0.78832 0.0
C843 C 0.05659 0.61891 0.79858 0.0
C844 C 0.03944 0.61926 0.79693 0.0
C845 C 0.03206 0.60901 0.78519 0.0
C846 C 0.04162 0.59903 0.77503 0.0
H847 H 0.06153 0.60711 0.72713 0.0
H848 H 0.04466 0.59911 0.73873 0.0
H849 H 0.05695 0.6154 0.7471 0.0
H850 H 0.07937 0.60928 0.78957 0.0
H851 H 0.06269 0.62665 0.80748 0.0
H852 H 0.3969 0.01898 0.7778 0.0
H853 H 0.41465 0.03592 0.76072 0.0
H854 H 0.4102 0.07568 0.79527 0.0
H855 H 0.39191 0.05893 0.8122 0.0
H856 H 0.40605 0.08653 0.76501 0.0
H857 H 0.46179 0.04801 0.7659 0.0
H858 H 0.44425 0.03688 0.75878 0.0
H859 H 0.44475 0.04443 0.77951 0.0
C860 C 0.39986 0.03126 0.78191 0.0
C861 C 0.39304 0.03756 0.79644 0.0
C862 C 0.41011 0.04092 0.77214 0.0
C863 C 0.41405 0.05702 0.7768 0.0
C864 C 0.40742 0.06328 0.79142 0.0
H865 H 0.49036 0.11637 0.73195 0.0
H866 H 0.47388 0.09854 0.74943 0.0
C867 C 0.39701 0.05367 0.80113 0.0
C868 C 0.42438 0.06758 0.76602 0.0
H869 H 0.46095 0.06914 0.74566 0.0
C870 C 0.4181 0.08276 0.76087 0.0
C871 C 0.44021 0.06281 0.76073 0.0
C872 C 0.44822 0.04723 0.76665 0.0
C873 C 0.42707 0.09317 0.75046 0.0
C874 C 0.44259 0.08806 0.74459 0.0
C875 C 0.44897 0.07298 0.74993 0.0
C876 C 0.45271 0.09845 0.73345 0.0
C877 C 0.41995 0.10971 0.74622 0.0
C878 C 0.44652 0.10409 0.7184 0.0
C879 C 0.45589 0.11447 0.70842 0.0
C880 C 0.47178 0.11918 0.71315 0.0
C881 C 0.47818 0.11299 0.72791 0.0
C882 C 0.46875 0.10278 0.73794 0.0
H883 H 0.41061 0.11362 0.75532 0.0
H884 H 0.42964 0.11925 0.74561 0.0
H885 H 0.41387 0.10898 0.73409 0.0
H886 H 0.43438 0.10056 0.71439 0.0
H887 H 0.45064 0.11892 0.69708 0.0
H888 H 0.8929 0.4496 0.69598 0.0
H889 H 0.91064 0.43294 0.71355 0.0
H890 H 0.91341 0.47258 0.74841 0.0
H891 H 0.89621 0.48944 0.73069 0.0
H892 H 0.94246 0.45872 0.74503 0.0
H893 H 0.89627 0.40987 0.75449 0.0
H894 H 0.90124 0.41286 0.73329 0.0
H895 H 0.89139 0.42903 0.74463 0.0
C896 C 0.8974 0.4548 0.70733 0.0
C897 C 0.89306 0.47083 0.71195 0.0
C898 C 0.90741 0.4452 0.71745 0.0
C899 C 0.91305 0.45133 0.73254 0.0
C900 C 0.90915 0.46751 0.7369 0.0
H901 H 0.94984 0.38969 0.81197 0.0
H902 H 0.93383 0.40847 0.79487 0.0
C903 C 0.8993 0.47716 0.72673 0.0
C904 C 0.92298 0.44096 0.74385 0.0
H905 H 0.92308 0.40451 0.7645 0.0
C906 C 0.93819 0.44689 0.74932 0.0
C907 C 0.9173 0.42565 0.74976 0.0
C908 C 0.90059 0.41904 0.74539 0.0
C909 C 0.94795 0.43787 0.76028 0.0
C910 C 0.94261 0.42223 0.76561 0.0
C911 C 0.92728 0.41642 0.76034 0.0
C912 C 0.95273 0.41162 0.77651 0.0
C913 C 0.96372 0.44541 0.76632 0.0
C914 C 0.9687 0.40712 0.77196 0.0
C915 C 0.97794 0.39658 0.78182 0.0
C916 C 0.97132 0.39003 0.79633 0.0
C917 C 0.95534 0.39456 0.80092 0.0
C918 C 0.94615 0.40526 0.79111 0.0
H919 H 0.96338 0.459 0.7655 0.0
H920 H 0.96628 0.44191 0.77921 0.0
H921 H 0.97401 0.44108 0.75855 0.0
H922 H 0.97392 0.41144 0.76055 0.0
H923 H 0.99013 0.3932 0.7778 0.0
H924 H 0.61075 0.99225 0.77748 0.0
H925 H 0.59283 0.97538 0.76051 0.0
H926 H 0.59756 0.9355 0.79487 0.0
H927 H 0.61603 0.95218 0.81166 0.0
H928 H 0.60143 0.92469 0.7647 0.0
H929 H 0.54578 0.9633 0.76582 0.0
H930 H 0.56327 0.97443 0.75856 0.0
H931 H 0.5629 0.96691 0.77931 0.0
C932 C 0.60781 0.97997 0.78157 0.0
C933 C 0.61477 0.9736 0.796 0.0
C934 C 0.59746 0.97034 0.77187 0.0
C935 C 0.59355 0.95423 0.7765 0.0
C936 C 0.60031 0.94792 0.79104 0.0
H937 H 0.51703 0.89502 0.73174 0.0
H938 H 0.53349 0.91292 0.74917 0.0
C939 C 0.61083 0.95748 0.80067 0.0
C940 C 0.58316 0.94369 0.76577 0.0
H941 H 0.54653 0.94222 0.7455 0.0
C942 C 0.58938 0.92849 0.7606 0.0
C943 C 0.56732 0.9485 0.76053 0.0
C944 C 0.55935 0.96409 0.76648 0.0
C945 C 0.58036 0.9181 0.75023 0.0
C946 C 0.56484 0.92325 0.74438 0.0
C947 C 0.55852 0.93835 0.74974 0.0
C948 C 0.5547 0.91289 0.73324 0.0
C949 C 0.58742 0.90152 0.74601 0.0
C950 C 0.56092 0.90718 0.71822 0.0
C951 C 0.55156 0.89675 0.70828 0.0
C952 C 0.53566 0.89208 0.71301 0.0
C953 C 0.52921 0.89838 0.7277 0.0
C954 C 0.53863 0.90863 0.73771 0.0
H955 H 0.59672 0.89758 0.75513 0.0
H956 H 0.57769 0.89203 0.74538 0.0
H957 H 0.59354 0.90222 0.73389 0.0
H958 H 0.57308 0.91068 0.71422 0.0
H959 H 0.55685 0.89222 0.69698 0.0
H960 H 0.19736 0.05728 0.39343 0.0
H961 H 0.2148 0.07418 0.41108 0.0
H962 H 0.249 0.03415 0.41567 0.0
H963 H 0.23139 0.01705 0.39856 0.0
H964 H 0.24529 0.0489 0.44424 0.0
H965 H 0.25631 0.09627 0.3969 0.0
H966 H 0.23498 0.09372 0.40149 0.0
H967 H 0.24628 0.07711 0.39236 0.0
C968 C 0.20854 0.05204 0.39831 0.0
C969 C 0.21301 0.03583 0.39451 0.0
C970 C 0.21859 0.06178 0.40827 0.0
C971 C 0.23346 0.05561 0.41439 0.0
C972 C 0.23766 0.03926 0.41103 0.0
H973 H 0.31256 0.11772 0.45135 0.0
H974 H 0.29571 0.09865 0.4354 0.0
C975 C 0.22755 0.02947 0.40124 0.0
C976 C 0.24471 0.06612 0.42424 0.0
H977 H 0.26569 0.10239 0.4238 0.0
C978 C 0.24979 0.06057 0.43973 0.0
C979 C 0.25091 0.0812 0.41827 0.0
C980 C 0.24699 0.08736 0.40128 0.0
C981 C 0.26061 0.06978 0.44949 0.0
C982 C 0.26618 0.08523 0.44384 0.0
C983 C 0.26133 0.09064 0.42824 0.0
C984 C 0.27689 0.09606 0.45393 0.0
C985 C 0.26622 0.06264 0.46559 0.0
C986 C 0.27199 0.101 0.46967 0.0
C987 C 0.28171 0.1117 0.47888 0.0
C988 C 0.29642 0.11799 0.47245 0.0
C989 C 0.30134 0.11305 0.45669 0.0
C990 C 0.29168 0.10219 0.44754 0.0
H991 H 0.26534 0.04904 0.46558 0.0
H992 H 0.27906 0.06615 0.46837 0.0
H993 H 0.25822 0.06727 0.47556 0.0
H994 H 0.26044 0.09687 0.47473 0.0
H995 H 0.27743 0.1154 0.49089 0.0
H996 H 0.88354 0.30676 0.44552 0.0
H997 H 0.90092 0.28879 0.42891 0.0
H998 H 0.91959 0.26614 0.47283 0.0
H999 H 0.90195 0.28371 0.48947 0.0
H1000 H 0.93345 0.28415 0.42688 0.0
H1001 H 0.90423 0.22654 0.44769 0.0
H1002 H 0.89568 0.24644 0.45212 0.0
H1003 H 0.91222 0.23846 0.46434 0.0
C1004 C 0.89141 0.29802 0.45165 0.0
C1005 C 0.89124 0.29659 0.46883 0.0
C1006 C 0.90133 0.28772 0.44213 0.0
C1007 C 0.91129 0.2758 0.44958 0.0
C1008 C 0.91166 0.27487 0.46676 0.0
H1009 H 0.99181 0.2247 0.40154 0.0
H1010 H 0.97472 0.2423 0.4187 0.0
C1011 C 0.90166 0.28505 0.47627 0.0
C1012 C 0.92127 0.26438 0.4394 0.0
H1013 H 0.9289 0.22376 0.43235 0.0
C1014 C 0.93241 0.27095 0.42804 0.0
C1015 C 0.91972 0.24712 0.44066 0.0
C1016 C 0.9072 0.23921 0.45173 0.0
C1017 C 0.94223 0.26079 0.41818 0.0
C1018 C 0.94124 0.24354 0.42 0.0
C1019 C 0.92986 0.23697 0.43111 0.0
C1020 C 0.95171 0.23212 0.41031 0.0
C1021 C 0.95333 0.26868 0.40566 0.0
C1022 C 0.94456 0.21992 0.40048 0.0
C1023 C 0.95434 0.20961 0.39084 0.0
C1024 C 0.97149 0.21131 0.39083 0.0
C1025 C 0.97864 0.22315 0.40113 0.0
C1026 C 0.96886 0.23334 0.41086 0.0
H1027 H 0.94912 0.28123 0.40244 0.0
H1028 H 0.96586 0.26971 0.4108 0.0
H1029 H 0.95396 0.26127 0.39427 0.0
H1030 H 0.93136 0.21863 0.39994 0.0
H1031 H 0.94843 0.20064 0.38304 0.0
H1032 H 0.6966 0.89153 0.45257 0.0
H1033 H 0.71392 0.90969 0.4361 0.0
H1034 H 0.74975 0.91085 0.47492 0.0
H1035 H 0.73227 0.89325 0.49163 0.0
H1036 H 0.74628 0.94037 0.46235 0.0
H1037 H 0.75412 0.89623 0.41138 0.0
H1038 H 0.73304 0.90121 0.41509 0.0
H1039 H 0.74467 0.89059 0.43054 0.0
C1040 C 0.70812 0.89574 0.45763 0.0
C1041 C 0.71306 0.89087 0.4734 0.0
C1042 C 0.7181 0.90601 0.44813 0.0
C1043 C 0.73337 0.91136 0.45407 0.0
C1044 C 0.73809 0.90684 0.46999 0.0
H1045 H 0.81165 0.95002 0.39214 0.0
H1046 H 0.79471 0.93339 0.41052 0.0
C1047 C 0.72805 0.89676 0.47955 0.0
C1048 C 0.74448 0.92165 0.44382 0.0
H1049 H 0.7642 0.92319 0.40689 0.0
C1050 C 0.75023 0.93657 0.45024 0.0
C1051 C 0.74995 0.9166 0.42813 0.0
C1052 C 0.74527 0.90021 0.42094 0.0
C1053 C 0.76105 0.94664 0.44137 0.0
C1054 C 0.76593 0.94193 0.42539 0.0
C1055 C 0.76037 0.92691 0.41906 0.0
C1056 C 0.77672 0.95239 0.41497 0.0
C1057 C 0.76743 0.96202 0.44943 0.0
C1058 C 0.77234 0.96863 0.41133 0.0
C1059 C 0.78213 0.97822 0.40102 0.0
C1060 C 0.79639 0.9717 0.39385 0.0
C1061 C 0.80079 0.95545 0.39751 0.0
C1062 C 0.79108 0.94591 0.40797 0.0
H1063 H 0.76694 0.96109 0.46301 0.0
H1064 H 0.78027 0.9646 0.44573 0.0
H1065 H 0.75968 0.97255 0.44574 0.0
H1066 H 0.76112 0.97381 0.41615 0.0
H1067 H 0.77824 0.99062 0.3983 0.0
H1068 H 0.05779 0.81252 0.39192 0.0
H1069 H 0.07471 0.79533 0.40979 0.0
H1070 H 0.03493 0.76083 0.41441 0.0
H1071 H 0.01782 0.77816 0.39704 0.0
H1072 H 0.04953 0.76517 0.44316 0.0
H1073 H 0.09705 0.75364 0.39607 0.0
H1074 H 0.0943 0.77502 0.40037 0.0
H1075 H 0.07783 0.76345 0.39134 0.0
C1076 C 0.05261 0.80134 0.39685 0.0
C1077 C 0.03647 0.79669 0.39298 0.0
C1078 C 0.06235 0.79143 0.40694 0.0
C1079 C 0.05626 0.77655 0.41315 0.0
C1080 C 0.03998 0.77218 0.40971 0.0
H1081 H 0.11767 0.69755 0.45137 0.0
H1082 H 0.09883 0.71439 0.43514 0.0
C1083 C 0.03019 0.78213 0.39976 0.0
C1084 C 0.06676 0.76546 0.42318 0.0
H1085 H 0.10298 0.74443 0.42305 0.0
C1086 C 0.0612 0.7606 0.43873 0.0
C1087 C 0.08185 0.7592 0.41731 0.0
C1088 C 0.08805 0.76294 0.4003 0.0
C1089 C 0.07038 0.74991 0.44865 0.0
C1090 C 0.08581 0.74423 0.44308 0.0
C1091 C 0.09125 0.74888 0.42742 0.0
C1092 C 0.09658 0.73359 0.45331 0.0
C1093 C 0.06325 0.74455 0.46485 0.0
C1094 C 0.10163 0.73873 0.46893 0.0
C1095 C 0.11223 0.72905 0.47829 0.0
C1096 C 0.11826 0.7141 0.47215 0.0
C1097 C 0.1132 0.70895 0.4565 0.0
C1098 C 0.10247 0.7186 0.44719 0.0
H1099 H 0.04967 0.74556 0.46489 0.0
H1100 H 0.06664 0.7317 0.46775 0.0
H1101 H 0.06801 0.7526 0.47471 0.0
H1102 H 0.09767 0.75043 0.47378 0.0
H1103 H 0.11601 0.7335 0.49021 0.0
H1104 H 0.19742 0.94867 0.6173 0.0
H1105 H 0.21473 0.93227 0.59908 0.0
H1106 H 0.24865 0.9726 0.5949 0.0
H1107 H 0.23117 0.98921 0.61262 0.0
H1108 H 0.24451 0.95844 0.56601 0.0
H1109 H 0.25665 0.91016 0.61215 0.0
H1110 H 0.23523 0.91269 0.60797 0.0
H1111 H 0.2466 0.92916 0.61727 0.0
C1112 C 0.2085 0.95409 0.6124 0.0
C1113 C 0.21294 0.97024 0.61649 0.0
C1114 C 0.21848 0.94463 0.6021 0.0
C1115 C 0.23325 0.95102 0.59592 0.0
C1116 C 0.2374 0.96732 0.59959 0.0
H1117 H 0.31243 0.89072 0.55624 0.0
H1118 H 0.29559 0.90918 0.5729 0.0
C1119 C 0.22736 0.97682 0.60973 0.0
C1120 C 0.24441 0.94082 0.58566 0.0
H1121 H 0.26571 0.90474 0.58499 0.0
C1122 C 0.24918 0.94672 0.5702 0.0
C1123 C 0.25082 0.92566 0.59121 0.0
C1124 C 0.24721 0.91911 0.60812 0.0
C1125 C 0.25991 0.93781 0.56007 0.0
C1126 C 0.26572 0.92231 0.56531 0.0
C1127 C 0.26117 0.91654 0.58087 0.0
C1128 C 0.27637 0.9118 0.55481 0.0
C1129 C 0.26518 0.94532 0.54401 0.0
C1130 C 0.27123 0.90707 0.53909 0.0
C1131 C 0.28092 0.89671 0.52947 0.0
C1132 C 0.29588 0.89057 0.53546 0.0
C1133 C 0.30103 0.89528 0.55122 0.0
C1134 C 0.29138 0.9058 0.56078 0.0
H1135 H 0.26412 0.9589 0.54428 0.0
H1136 H 0.27802 0.94203 0.54097 0.0
H1137 H 0.25709 0.94074 0.53408 0.0
H1138 H 0.25952 0.91111 0.53435 0.0
H1139 H 0.27647 0.89317 0.51748 0.0
H1140 H 0.06199 0.20065 0.62509 0.0
H1141 H 0.07888 0.21885 0.60822 0.0
H1142 H 0.03527 0.24189 0.58929 0.0
H1143 H 0.01835 0.22407 0.60643 0.0
H1144 H 0.08139 0.22401 0.57581 0.0
H1145 H 0.06026 0.28119 0.60564 0.0
H1146 H 0.05568 0.26116 0.6138 0.0
H1147 H 0.04371 0.26943 0.59722 0.0
C1148 C 0.05599 0.20952 0.61726 0.0
C1149 C 0.03881 0.21098 0.61721 0.0
C1150 C 0.06567 0.21996 0.60764 0.0
C1151 C 0.05839 0.23205 0.59777 0.0
C1152 C 0.04122 0.23302 0.59716 0.0
H1153 H 0.10755 0.28429 0.51869 0.0
H1154 H 0.09015 0.26648 0.53533 0.0
C1155 C 0.03154 0.2227 0.60687 0.0
C1156 C 0.06873 0.24361 0.58811 0.0
H1157 H 0.07596 0.28433 0.58124 0.0
C1158 C 0.08024 0.2372 0.57704 0.0
C1159 C 0.06749 0.26085 0.58992 0.0
C1160 C 0.05625 0.26858 0.60241 0.0
C1161 C 0.09026 0.2475 0.56752 0.0
C1162 C 0.08846 0.26474 0.56876 0.0
C1163 C 0.0772 0.27115 0.58008 0.0
C1164 C 0.09828 0.2763 0.55858 0.0
C1165 C 0.10292 0.23977 0.55648 0.0
C1166 C 0.10806 0.28838 0.56602 0.0
C1167 C 0.11784 0.29881 0.5565 0.0
C1168 C 0.11805 0.29736 0.53932 0.0
C1169 C 0.1078 0.28565 0.53189 0.0
C1170 C 0.09794 0.27534 0.5414 0.0
H1171 H 0.10607 0.22715 0.56054 0.0
H1172 H 0.09795 0.23893 0.54386 0.0
H1173 H 0.11433 0.24718 0.55611 0.0
H1174 H 0.10844 0.28947 0.57924 0.0
H1175 H 0.12559 0.30768 0.56262 0.0
H1176 H 0.80627 0.06141 0.62421 0.0
H1177 H 0.78826 0.07818 0.60707 0.0
H1178 H 0.7667 0.03439 0.58678 0.0
H1179 H 0.78436 0.01756 0.60416 0.0
H1180 H 0.7841 0.08092 0.57441 0.0
H1181 H 0.72649 0.05852 0.60251 0.0
H1182 H 0.74636 0.05423 0.61117 0.0
H1183 H 0.73884 0.04233 0.5942 0.0
C1184 C 0.79777 0.05533 0.61603 0.0
C1185 C 0.79668 0.03813 0.61566 0.0
C1186 C 0.78745 0.06495 0.60625 0.0
C1187 C 0.77583 0.05757 0.5959 0.0
C1188 C 0.77522 0.04039 0.595 0.0
H1189 H 0.72454 0.10797 0.51688 0.0
H1190 H 0.74207 0.09011 0.53332 0.0
C1191 C 0.78544 0.03077 0.60485 0.0
C1192 C 0.76437 0.06786 0.58608 0.0
H1193 H 0.72376 0.07488 0.57855 0.0
C1194 C 0.77091 0.07961 0.57535 0.0
C1195 C 0.74713 0.0664 0.5875 0.0
C1196 C 0.73926 0.05481 0.59959 0.0
C1197 C 0.76073 0.08973 0.56582 0.0
C1198 C 0.74349 0.08778 0.56672 0.0
C1199 C 0.73695 0.07623 0.57767 0.0
C1200 C 0.73207 0.09783 0.55664 0.0
C1201 C 0.76856 0.10265 0.55515 0.0
C1202 C 0.72 0.10754 0.56417 0.0
C1203 C 0.70976 0.1176 0.55476 0.0
C1204 C 0.71137 0.11815 0.53761 0.0
C1205 C 0.72305 0.10796 0.53007 0.0
C1206 C 0.7332 0.09783 0.53947 0.0
H1207 H 0.78113 0.1057 0.55938 0.0
H1208 H 0.76948 0.09798 0.54242 0.0
H1209 H 0.76115 0.11407 0.55501 0.0
H1210 H 0.71879 0.10766 0.57739 0.0
H1211 H 0.7009 0.12529 0.56097 0.0
H1212 H 0.89036 0.69703 0.55826 0.0
H1213 H 0.90856 0.71443 0.57461 0.0
H1214 H 0.91127 0.74914 0.53485 0.0
H1215 H 0.89357 0.7316 0.51829 0.0
H1216 H 0.94056 0.74514 0.54826 0.0
H1217 H 0.89533 0.75582 0.59773 0.0
H1218 H 0.89977 0.7345 0.59471 0.0
H1219 H 0.88993 0.74602 0.57868 0.0
C1220 C 0.89493 0.70832 0.55296 0.0
C1221 C 0.89044 0.71295 0.53698 0.0
C1222 C 0.90521 0.71834 0.56239 0.0
C1223 C 0.911 0.73333 0.55614 0.0
C1224 C 0.9069 0.73771 0.54001 0.0
H1225 H 0.95087 0.81226 0.61667 0.0
H1226 H 0.93405 0.79545 0.59833 0.0
C1227 C 0.89677 0.72764 0.53054 0.0
C1228 C 0.92131 0.74449 0.5663 0.0
H1229 H 0.92245 0.76527 0.60265 0.0
C1230 C 0.93657 0.74957 0.56013 0.0
C1231 C 0.916 0.75059 0.58166 0.0
C1232 C 0.8993 0.7466 0.58853 0.0
C1233 C 0.94673 0.76032 0.56898 0.0
C1234 C 0.94174 0.76582 0.58467 0.0
C1235 C 0.92637 0.76096 0.59071 0.0
C1236 C 0.95231 0.77648 0.5951 0.0
C1237 C 0.96255 0.76593 0.56121 0.0
C1238 C 0.96819 0.77147 0.59944 0.0
C1239 C 0.97788 0.78115 0.60974 0.0
C1240 C 0.97183 0.79595 0.6162 0.0
C1241 C 0.95593 0.80098 0.61186 0.0
C1242 C 0.94628 0.79134 0.60141 0.0
H1243 H 0.96203 0.76504 0.54764 0.0
H1244 H 0.96547 0.77878 0.56461 0.0
H1245 H 0.97269 0.75793 0.56547 0.0
H1246 H 0.97299 0.75987 0.59514 0.0
H1247 H 0.98999 0.77679 0.61298 0.0
H1248 H 0.48937 0.27775 0.11358 0.0
H1249 H 0.4728 0.26066 0.09548 0.0
H1250 H 0.43314 0.29544 0.0988 0.0
H1251 H 0.44952 0.31239 0.11741 0.0
H1252 H 0.42208 0.26508 0.10277 0.0
H1253 H 0.46198 0.26599 0.04799 0.0
H1254 H 0.47264 0.25888 0.06582 0.0
H1255 H 0.46511 0.27962 0.06511 0.0
C1256 C 0.4772 0.2819 0.11031 0.0
C1257 C 0.47081 0.29651 0.11689 0.0
C1258 C 0.46775 0.27213 0.09986 0.0
C1259 C 0.45179 0.27686 0.09549 0.0
C1260 C 0.44544 0.29154 0.10191 0.0
H1261 H 0.39418 0.23228 0.01777 0.0
H1262 H 0.41158 0.24973 0.03472 0.0
C1263 C 0.45484 0.30126 0.1125 0.0
C1264 C 0.44147 0.26611 0.0849 0.0
H1265 H 0.44078 0.24582 0.04826 0.0
C1266 C 0.42614 0.26095 0.09081 0.0
C1267 C 0.44663 0.26084 0.06918 0.0
C1268 C 0.46241 0.26676 0.06157 0.0
C1269 C 0.41595 0.25055 0.08158 0.0
C1270 C 0.42143 0.24472 0.06617 0.0
C1271 C 0.43666 0.25006 0.06016 0.0
C1272 C 0.41128 0.23361 0.05578 0.0
C1273 C 0.39926 0.24628 0.0883 0.0
C1274 C 0.40556 0.21849 0.06177 0.0
C1275 C 0.39543 0.20852 0.05212 0.0
C1276 C 0.39105 0.21333 0.03616 0.0
C1277 C 0.39731 0.22817 0.02999 0.0
C1278 C 0.40727 0.23819 0.03969 0.0
H1279 H 0.39514 0.25532 0.09761 0.0
H1280 H 0.38996 0.24573 0.07839 0.0
H1281 H 0.39984 0.2341 0.09431 0.0
H1282 H 0.40885 0.21443 0.07396 0.0
H1283 H 0.39092 0.19712 0.05721 0.0
H1284 H 0.39234 0.81132 0.95281 0.0
H1285 H 0.41026 0.79382 0.93624 0.0
H1286 H 0.41175 0.75825 0.9753 0.0
H1287 H 0.39434 0.77586 0.99207 0.0
H1288 H 0.44128 0.76185 0.9622 0.0
H1289 H 0.39621 0.75322 0.9122 0.0
H1290 H 0.40114 0.77436 0.91569 0.0
H1291 H 0.39089 0.76276 0.93141 0.0
C1292 C 0.39658 0.79982 0.9579 0.0
C1293 C 0.39184 0.79498 0.97375 0.0
C1294 C 0.4067 0.78974 0.94836 0.0
C1295 C 0.41206 0.7745 0.95434 0.0
C1296 C 0.40771 0.76989 0.97034 0.0
H1297 H 0.4503 0.69578 0.89258 0.0
H1298 H 0.43386 0.71262 0.91123 0.0
C1299 C 0.39774 0.78 0.97993 0.0
C1300 C 0.4222 0.7633 0.94405 0.0
H1301 H 0.4231 0.74317 0.90732 0.0
C1302 C 0.43727 0.75773 0.95022 0.0
C1303 C 0.41686 0.75762 0.92853 0.0
C1304 C 0.40032 0.76215 0.92162 0.0
C1305 C 0.44723 0.7469 0.94125 0.0
C1306 C 0.44223 0.7418 0.92543 0.0
C1307 C 0.42704 0.74716 0.91937 0.0
C1308 C 0.45259 0.73106 0.91488 0.0
C1309 C 0.46285 0.74077 0.94901 0.0
C1310 C 0.46862 0.73574 0.91071 0.0
C1311 C 0.4781 0.72604 0.90023 0.0
C1312 C 0.47168 0.71154 0.89343 0.0
C1313 C 0.45565 0.70682 0.89765 0.0
C1314 C 0.44622 0.71648 0.90827 0.0
H1315 H 0.46225 0.74143 0.9626 0.0
H1316 H 0.46546 0.72791 0.94541 0.0
H1317 H 0.47322 0.74857 0.94495 0.0
H1318 H 0.4737 0.74713 0.91525 0.0
H1319 H 0.49032 0.73016 0.8971 0.0
H1320 H 0.28491 0.4904 0.9049 0.0
H1321 H 0.26747 0.47378 0.92271 0.0
H1322 H 0.2901 0.42983 0.904 0.0
H1323 H 0.3079 0.44641 0.88647 0.0
H1324 H 0.24482 0.4517 0.91415 0.0
H1325 H 0.29173 0.42114 0.95247 0.0
H1326 H 0.29647 0.43837 0.93945 0.0
H1327 H 0.295 0.41806 0.93096 0.0
C1328 C 0.28637 0.47721 0.90476 0.0
C1329 C 0.29788 0.46975 0.89432 0.0
C1330 C 0.27633 0.46771 0.91491 0.0
C1331 C 0.27755 0.45053 0.91487 0.0
C1332 C 0.28916 0.44306 0.90457 0.0
H1333 H 0.20146 0.38294 0.94795 0.0
H1334 H 0.21932 0.40092 0.9319 0.0
C1335 C 0.2993 0.45256 0.89449 0.0
C1336 C 0.26611 0.4405 0.92498 0.0
H1337 H 0.26461 0.41042 0.95407 0.0
C1338 C 0.24916 0.44273 0.92294 0.0
C1339 C 0.27173 0.42892 0.93661 0.0
C1340 C 0.28972 0.42657 0.94015 0.0
C1341 C 0.2377 0.4336 0.93202 0.0
C1342 C 0.24332 0.42159 0.94321 0.0
C1343 C 0.26027 0.41951 0.9454 0.0
C1344 C 0.23188 0.41116 0.95291 0.0
C1345 C 0.21971 0.43718 0.92977 0.0
C1346 C 0.2331 0.41068 0.97007 0.0
C1347 C 0.22304 0.40026 0.97925 0.0
C1348 C 0.2115 0.39007 0.97149 0.0
C1349 C 0.21009 0.39075 0.95433 0.0
C1350 C 0.22026 0.40109 0.94513 0.0
H1351 H 0.21768 0.44967 0.92472 0.0
H1352 H 0.21445 0.42825 0.92097 0.0
H1353 H 0.21294 0.43611 0.94152 0.0
H1354 H 0.24197 0.41828 0.97637 0.0
H1355 H 0.22449 0.40003 0.99244 0.0
H1356 H 0.61446 0.23154 0.99161 0.0
H1357 H 0.59663 0.24859 0.97474 0.0
H1358 H 0.60024 0.21356 0.93533 0.0
H1359 H 0.61857 0.19662 0.95202 0.0
H1360 H 0.6044 0.24396 0.92417 0.0
H1361 H 0.5492 0.24314 0.96351 0.0
H1362 H 0.56694 0.25025 0.97433 0.0
H1363 H 0.56627 0.2295 0.96682 0.0
C1364 C 0.61132 0.22733 0.97942 0.0
C1365 C 0.61788 0.21264 0.97321 0.0
C1366 C 0.60102 0.23708 0.9698 0.0
C1367 C 0.5968 0.23226 0.95383 0.0
C1368 C 0.60323 0.21752 0.94763 0.0
H1369 H 0.51965 0.27669 0.89539 0.0
H1370 H 0.53647 0.25925 0.91292 0.0
C1371 C 0.61367 0.20781 0.95721 0.0
C1372 C 0.58632 0.24297 0.94337 0.0
H1373 H 0.54969 0.26323 0.94226 0.0
C1374 C 0.59239 0.24809 0.92809 0.0
C1375 C 0.57055 0.24824 0.94835 0.0
C1376 C 0.56278 0.24236 0.96407 0.0
C1377 C 0.58327 0.25847 0.91779 0.0
C1378 C 0.5678 0.26431 0.92309 0.0
C1379 C 0.56163 0.25899 0.93827 0.0
C1380 C 0.55751 0.27539 0.91283 0.0
C1381 C 0.59016 0.26273 0.90117 0.0
C1382 C 0.56354 0.29052 0.90718 0.0
C1383 C 0.55397 0.3005 0.89698 0.0
C1384 C 0.53806 0.29567 0.89245 0.0
C1385 C 0.53184 0.28081 0.89863 0.0
C1386 C 0.54146 0.2708 0.90867 0.0
H1387 H 0.59953 0.25369 0.89716 0.0
H1388 H 0.58036 0.26325 0.89176 0.0
H1389 H 0.59616 0.27491 0.9018 0.0
H1390 H 0.5757 0.2946 0.91058 0.0
H1391 H 0.55909 0.31191 0.89254 0.0
H1392 H 0.70261 0.56307 0.88143 0.0
H1393 H 0.72041 0.5797 0.89895 0.0
H1394 H 0.74263 0.53577 0.91814 0.0
H1395 H 0.72521 0.51909 0.90037 0.0
H1396 H 0.72459 0.58184 0.93154 0.0
H1397 H 0.7825 0.56074 0.90311 0.0
H1398 H 0.7627 0.55633 0.89434 0.0
H1399 H 0.7704 0.5442 0.91107 0.0
C1400 C 0.71122 0.55693 0.88945 0.0
C1401 C 0.71257 0.53974 0.88939 0.0
C1402 C 0.72142 0.56647 0.89944 0.0
C1403 C 0.73317 0.55902 0.9096 0.0
C1404 C 0.73403 0.54184 0.91007 0.0
H1405 H 0.7836 0.60843 0.98986 0.0
H1406 H 0.76626 0.59076 0.97301 0.0
C1407 C 0.72394 0.5323 0.9 0.0
C1408 C 0.74449 0.56924 0.91966 0.0
H1409 H 0.785 0.5765 0.92751 0.0
C1410 C 0.7378 0.58069 0.93062 0.0
C1411 C 0.76175 0.56799 0.91827 0.0
C1412 C 0.76978 0.55678 0.90594 0.0
C1413 C 0.74785 0.5907 0.94041 0.0
C1414 C 0.76511 0.58895 0.93954 0.0
C1415 C 0.7718 0.5777 0.92837 0.0
C1416 C 0.77641 0.59889 0.94989 0.0
C1417 C 0.73985 0.60333 0.9513 0.0
C1418 C 0.78851 0.60875 0.94261 0.0
C1419 C 0.79866 0.61869 0.95226 0.0
C1420 C 0.79691 0.61897 0.9694 0.0
C1421 C 0.78519 0.60863 0.97669 0.0
C1422 C 0.77515 0.59861 0.96705 0.0
H1423 H 0.72729 0.60639 0.94704 0.0
H1424 H 0.73885 0.59837 0.96392 0.0
H1425 H 0.74717 0.6148 0.95177 0.0
H1426 H 0.78982 0.60909 0.9294 0.0
H1427 H 0.80755 0.6265 0.94624 0.0
H1428 H 0.56105 0.70285 0.12308 0.0
H1429 H 0.57774 0.72073 0.1057 0.0
H1430 H 0.53389 0.74196 0.08529 0.0
H1431 H 0.51714 0.72444 0.10291 0.0
H1432 H 0.58044 0.72461 0.07301 0.0
H1433 H 0.5579 0.78241 0.10062 0.0
H1434 H 0.55368 0.76259 0.10947 0.0
H1435 H 0.54175 0.76993 0.09244 0.0
C1436 C 0.55495 0.71125 0.11482 0.0
C1437 C 0.53775 0.7123 0.11449 0.0
C1438 C 0.56452 0.72149 0.1049 0.0
C1439 C 0.5571 0.73299 0.09445 0.0
C1440 C 0.53992 0.73355 0.09359 0.0
H1441 H 0.6072 0.78383 0.01491 0.0
H1442 H 0.58949 0.76631 0.03153 0.0
C1443 C 0.53035 0.7234 0.10357 0.0
C1444 C 0.56734 0.7444 0.08452 0.0
H1445 H 0.57422 0.78499 0.07662 0.0
C1446 C 0.5791 0.73782 0.07383 0.0
C1447 C 0.56582 0.76166 0.08579 0.0
C1448 C 0.55423 0.76959 0.09782 0.0
C1449 C 0.58917 0.74796 0.06419 0.0
C1450 C 0.58717 0.7652 0.06495 0.0
C1451 C 0.57561 0.77179 0.07585 0.0
C1452 C 0.59716 0.77659 0.05475 0.0
C1453 C 0.60211 0.74008 0.05358 0.0
C1454 C 0.60679 0.78879 0.06216 0.0
C1455 C 0.61676 0.79904 0.05264 0.0
C1456 C 0.6173 0.79728 0.0355 0.0
C1457 C 0.6072 0.78544 0.02808 0.0
C1458 C 0.59716 0.77529 0.03759 0.0
H1459 H 0.60522 0.72755 0.05793 0.0
H1460 H 0.59743 0.73901 0.04087 0.0
H1461 H 0.61349 0.74754 0.05334 0.0
H1462 H 0.60691 0.79013 0.07536 0.0
H1463 H 0.62439 0.80802 0.05875 0.0
H1464 H 0.22585 0.61038 0.01764 0.0
H1465 H 0.24297 0.59204 0.03398 0.0
H1466 H 0.21954 0.60935 0.07807 0.0
H1467 H 0.20204 0.62741 0.06175 0.0
H1468 H 0.26522 0.59949 0.05668 0.0
H1469 H 0.21733 0.56066 0.08508 0.0
H1470 H 0.21303 0.57436 0.06828 0.0
H1471 H 0.21429 0.5821 0.0889 0.0
C1472 C 0.22416 0.61013 0.0308 0.0
C1473 C 0.21249 0.62031 0.03837 0.0
C1474 C 0.23401 0.59966 0.04014 0.0
C1475 C 0.23246 0.59912 0.05727 0.0
C1476 C 0.22074 0.60921 0.06487 0.0
H1477 H 0.30727 0.56216 0.12436 0.0
H1478 H 0.28989 0.57924 0.1069 0.0
C1479 C 0.21077 0.6196 0.05551 0.0
C1480 C 0.2436 0.58854 0.06715 0.0
H1481 H 0.24425 0.55825 0.09606 0.0
C1482 C 0.26062 0.59042 0.06523 0.0
C1483 C 0.23766 0.57654 0.07819 0.0
C1484 C 0.21959 0.57315 0.08014 0.0
C1485 C 0.27181 0.5808 0.07413 0.0
C1486 C 0.26587 0.56922 0.08561 0.0
C1487 C 0.24885 0.56721 0.08739 0.0
C1488 C 0.27701 0.55889 0.09575 0.0
C1489 C 0.28989 0.58291 0.07085 0.0
C1490 C 0.27545 0.54174 0.09556 0.0
C1491 C 0.28523 0.53196 0.10569 0.0
C1492 C 0.29684 0.5391 0.11625 0.0
C1493 C 0.2986 0.55625 0.11624 0.0
C1494 C 0.28869 0.56605 0.10619 0.0
H1495 H 0.29214 0.58841 0.0586 0.0
H1496 H 0.29517 0.59129 0.08017 0.0
H1497 H 0.29645 0.57102 0.07155 0.0
H1498 H 0.26652 0.53591 0.08765 0.0
H1499 H 0.28352 0.5188 0.10541 0.0
H1500 H 0.70017 0.44794 0.1247 0.0
H1501 H 0.71808 0.43112 0.10746 0.0
H1502 H 0.74049 0.47485 0.08799 0.0
H1503 H 0.72299 0.4917 0.1055 0.0
H1504 H 0.72259 0.42854 0.07501 0.0
H1505 H 0.78022 0.45014 0.10358 0.0
H1506 H 0.76035 0.45465 0.11212 0.0
H1507 H 0.7682 0.46657 0.09531 0.0
C1508 C 0.70884 0.45399 0.11667 0.0
C1509 C 0.71023 0.47117 0.11658 0.0
C1510 C 0.7191 0.44434 0.10684 0.0
C1511 C 0.73094 0.45168 0.0967 0.0
C1512 C 0.73183 0.46886 0.09606 0.0
H1513 H 0.782 0.40144 0.01734 0.0
H1514 H 0.76446 0.4192 0.03389 0.0
C1515 C 0.72168 0.4785 0.10598 0.0
C1516 C 0.74236 0.44136 0.08686 0.0
H1517 H 0.78295 0.43417 0.07933 0.0
C1518 C 0.73579 0.42975 0.07599 0.0
C1519 C 0.75961 0.44268 0.08834 0.0
C1520 C 0.76753 0.45406 0.10059 0.0
C1521 C 0.74593 0.41966 0.06639 0.0
C1522 C 0.76318 0.4215 0.06733 0.0
C1523 C 0.76976 0.4329 0.07841 0.0
C1524 C 0.77459 0.4115 0.05715 0.0
C1525 C 0.73804 0.40685 0.05562 0.0
C1526 C 0.78675 0.40185 0.06461 0.0
C1527 C 0.79703 0.39188 0.05513 0.0
C1528 C 0.79534 0.39134 0.03799 0.0
C1529 C 0.78355 0.40145 0.03052 0.0
C1530 C 0.77339 0.41151 0.03999 0.0
H1531 H 0.72548 0.40376 0.05989 0.0
H1532 H 0.73704 0.41167 0.04295 0.0
H1533 H 0.74543 0.39543 0.0553 0.0
H1534 H 0.78803 0.40172 0.07782 0.0
H1535 H 0.80597 0.38425 0.06128 0.0
H1536 H 0.00841 0.22822 0.3241 0.0
H1537 H 0.01243 0.24727 0.30144 0.0
H1538 H 0.98821 0.21364 0.26867 0.0
H1539 H 0.98394 0.19446 0.2914 0.0
H1540 H 0.02937 0.2423 0.27199 0.0
H1541 H 0.96375 0.25708 0.26111 0.0
H1542 H 0.97073 0.24697 0.2795 0.0
H1543 H 0.96893 0.23567 0.2607 0.0
C1544 C 1.00384 0.22484 0.31211 0.0
C1545 C 0.99577 0.20979 0.30962 0.0
C1546 C 0.00621 0.23576 0.29914 0.0
C1547 C 1.00051 0.23196 0.28339 0.0
C1548 C 0.99249 0.21694 0.28078 0.0
H1549 H 0.02874 0.29015 0.19681 0.0
H1550 H 0.02485 0.26731 0.21596 0.0
C1551 C 0.99011 0.20597 0.29379 0.0
C1552 C 1.00313 0.24379 0.2698 0.0
H1553 H 0.98307 0.26951 0.24359 0.0
C1554 C 0.01926 0.24817 0.26568 0.0
C1555 C 0.98991 0.25152 0.2617 0.0
C1556 C 0.97234 0.24772 0.26601 0.0
C1557 C 0.02253 0.26025 0.25385 0.0
C1558 C 0.0093 0.26802 0.24578 0.0
C1559 C 0.99318 0.26346 0.24973 0.0
C1560 C 0.01186 0.28171 0.23405 0.0
C1561 C 0.04007 0.26504 0.2505 0.0
C1562 C 0.00569 0.29731 0.23776 0.0
C1563 C 0.00784 0.31034 0.22688 0.0
C1564 C 0.01617 0.30805 0.21194 0.0
C1565 C 0.02236 0.29238 0.20823 0.0
C1566 C 0.02019 0.27932 0.21918 0.0
H1567 H 0.04855 0.26029 0.26002 0.0
H1568 H 0.04389 0.25994 0.2385 0.0
H1569 H 0.04133 0.27858 0.2499 0.0
H1570 H 0.99922 0.29943 0.24917 0.0
H1571 H 1.00287 0.3222 0.23017 0.0
H1572 H 0.80165 0.97322 0.29849 0.0
H1573 H 0.78121 0.97771 0.27696 0.0
H1574 H 0.76417 0.02097 0.30215 0.0
H1575 H 0.784 0.01618 0.32393 0.0
H1576 H 0.73924 1.00387 0.29262 0.0
H1577 H 0.78153 0.00956 0.23988 0.0
H1578 H 0.78376 0.99037 0.25034 0.0
H1579 H 0.78869 0.00919 0.26078 0.0
C1580 C 0.79356 0.9837 0.29939 0.0
C1581 C 0.79446 0.99432 0.31294 0.0
C1582 C 0.78197 0.98635 0.287 0.0
C1583 C 0.77131 0.99988 0.28772 0.0
C1584 C 0.77225 0.01047 0.30124 0.0
H1585 H 0.71083 0.03522 0.20648 0.0
H1586 H 0.7322 0.03159 0.2273 0.0
C1587 C 0.78361 0.0077 0.31373 0.0
C1588 C 0.75871 1.00275 0.27482 0.0
H1589 H 0.75308 0.00725 0.23356 0.0
C1590 C 0.74232 0.00469 0.27972 0.0
C1591 C 0.76268 1.00413 0.25798 0.0
C1592 C 0.78014 1.00338 0.25193 0.0
C1593 C 0.72982 0.00775 0.26831 0.0
C1594 C 0.73366 0.00831 0.2514 0.0
C1595 C 0.75008 0.00663 0.24649 0.0
C1596 C 0.7208 0.01048 0.23865 0.0
C1597 C 0.71268 0.01074 0.27461 0.0
C1598 C 0.70742 0.9997 0.2379 0.0
C1599 C 0.6951 1.0019 0.22622 0.0
C1600 C 0.69605 0.01473 0.21475 0.0
C1601 C 0.7097 0.02526 0.21518 0.0
C1602 C 0.72193 0.02317 0.22706 0.0
H1603 H 0.71281 0.01522 0.28746 0.0
H1604 H 0.70608 0.01983 0.26694 0.0
H1605 H 0.70574 0.99904 0.2744 0.0
H1606 H 0.70649 0.9895 0.24633 0.0
H1607 H 0.68492 0.99339 0.22609 0.0
H1608 H 0.00572 0.68482 0.22993 0.0
H1609 H 0.01005 0.70693 0.24959 0.0
H1610 H 0.983 0.74005 0.21858 0.0
H1611 H 0.9784 0.71788 0.19884 0.0
H1612 H 0.02585 0.73688 0.2448 0.0
H1613 H 0.96094 0.74578 0.26339 0.0
H1614 H 0.96776 0.72792 0.25226 0.0
H1615 H 0.96478 0.74704 0.24175 0.0
C1616 C 1.00058 0.69676 0.22729 0.0
C1617 C 0.99164 0.69952 0.2128 0.0
C1618 C 1.00312 0.70942 0.23854 0.0
C1619 C 0.99674 0.72511 0.23564 0.0
C1620 C 0.98781 0.72797 0.22121 0.0
H1621 H 0.02613 0.81191 0.29266 0.0
H1622 H 0.02168 0.79243 0.27021 0.0
C1623 C 0.98524 0.71528 0.20991 0.0
C1624 C 0.99968 0.73843 0.2477 0.0
H1625 H 0.98041 0.76394 0.27471 0.0
C1626 C 0.01592 0.74286 0.2513 0.0
C1627 C 0.98671 0.74612 0.25625 0.0
C1628 C 0.96906 0.74142 0.25337 0.0
C1629 C 0.01955 0.75467 0.26331 0.0
C1630 C 0.00657 0.7624 0.27181 0.0
C1631 C 0.99033 0.75808 0.2681 0.0
C1632 C 0.00956 0.77428 0.28529 0.0
C1633 C 0.03725 0.75836 0.26719 0.0
C1634 C 1.00406 0.77065 0.30115 0.0
C1635 C 0.00652 0.78174 0.31396 0.0
C1636 C 0.01448 0.7968 0.31118 0.0
C1637 C 0.02004 0.8004 0.29526 0.0
C1638 C 0.01756 0.78926 0.28242 0.0
H1639 H 0.04564 0.7489 0.26215 0.0
H1640 H 0.04063 0.77034 0.26171 0.0
H1641 H 0.03917 0.75919 0.28063 0.0
H1642 H 0.99786 0.75917 0.30365 0.0
H1643 H 1.00204 0.77852 0.32603 0.0
H1644 H 0.22562 0.99294 0.32482 0.0
H1645 H 0.24577 0.9894 0.30309 0.0
H1646 H 0.22556 0.0309 0.27736 0.0
H1647 H 0.20484 0.03417 0.2989 0.0
H1648 H 0.23244 0.00657 0.25652 0.0
H1649 H 0.28617 0.01631 0.29659 0.0
H1650 H 0.27357 0.99985 0.30383 0.0
H1651 H 0.26554 0.02042 0.30333 0.0
C1652 C 0.22546 1.00138 0.31459 0.0
C1653 C 0.2137 0.01396 0.3137 0.0
C1654 C 0.23709 0.99939 0.30219 0.0
C1655 C 0.2375 0.01013 0.28877 0.0
C1656 C 0.22558 0.02253 0.28766 0.0
H1657 H 0.32257 0.01701 0.22515 0.0
H1658 H 0.30077 0.02167 0.24504 0.0
C1659 C 0.21376 0.02441 0.29999 0.0
C1660 C 0.25027 0.00825 0.27588 0.0
H1661 H 0.29159 0.00479 0.27026 0.0
C1662 C 0.24538 0.00631 0.2595 0.0
C1663 C 0.2672 0.00817 0.27969 0.0
C1664 C 0.27344 0.01148 0.29679 0.0
C1665 C 0.25691 1.00396 0.24689 0.0
C1666 C 0.27379 1.00302 0.25085 0.0
C1667 C 0.27866 0.00527 0.2672 0.0
C1668 C 0.28672 1.00021 0.23826 0.0
C1669 C 0.25086 1.00288 0.22946 0.0
C1670 C 0.28623 0.9865 0.22782 0.0
C1671 C 0.29862 0.98393 0.2162 0.0
C1672 C 0.31195 0.9948 0.21507 0.0
C1673 C 0.31253 0.00834 0.22573 0.0
C1674 C 0.30005 0.01104 0.23712 0.0
H1675 H 0.2387 0.00881 0.22803 0.0
H1676 H 0.25959 0.00875 0.22083 0.0
H1677 H 0.24951 0.9898 0.226 0.0
H1678 H 0.27637 0.97768 0.22875 0.0
H1679 H 0.29787 0.97331 0.20827 0.0
H1680 H 1.00328 0.68617 0.77916 0.0
H1681 H 0.99895 0.70867 0.75998 0.0
H1682 H 0.02389 0.74174 0.79276 0.0
H1683 H 0.02848 0.71919 0.81207 0.0
H1684 H 0.98211 0.73815 0.76509 0.0
H1685 H 0.04738 0.74903 0.74879 0.0
H1686 H 0.04065 0.7307 0.75919 0.0
H1687 H 0.04267 0.74961 0.77029 0.0
C1688 C 0.00795 0.69819 0.78232 0.0
C1689 C 0.01631 0.70082 0.79717 0.0
C1690 C 0.00541 0.71106 0.77133 0.0
C1691 C 0.0112 0.72685 0.77486 0.0
C1692 C 0.01953 0.72959 0.78967 0.0
H1693 H 0.9819 0.8131 0.71663 0.0
H1694 H 0.98621 0.79414 0.73955 0.0
C1695 C 0.0221 0.71669 0.80071 0.0
C1696 C 0.0083 0.74036 0.763 0.0
H1697 H 0.02778 0.76644 0.73667 0.0
C1698 C 0.99208 0.74443 0.75895 0.0
C1699 C 0.02135 0.74844 0.75493 0.0
C1700 C 0.039 0.74419 0.75837 0.0
C1701 C 0.98854 0.75619 0.74687 0.0
C1702 C 1.00158 0.76422 0.73876 0.0
C1703 C 0.0178 0.76033 0.74299 0.0
C1704 C 0.99871 0.77581 0.72503 0.0
C1705 C 0.9709 0.75949 0.74246 0.0
C1706 C 0.00445 0.77189 0.70932 0.0
C1707 C 1.00203 0.78265 0.69624 0.0
C1708 C 0.9939 0.79769 0.69858 0.0
C1709 C 0.98813 0.80161 0.71436 0.0
C1710 C 0.99054 0.79077 0.72747 0.0
H1711 H 0.9625 0.75007 0.74757 0.0
H1712 H 0.96722 0.7716 0.74745 0.0
H1713 H 0.96932 0.75988 0.72895 0.0
H1714 H 0.01078 0.76042 0.70716 0.0
H1715 H 0.00668 0.7792 0.6843 0.0
H1716 H 0.19936 0.97825 0.71672 0.0
H1717 H 0.21869 0.98331 0.73915 0.0
H1718 H 0.25025 0.00982 0.7061 0.0
H1719 H 0.23104 0.00502 0.68373 0.0
H1720 H 0.25159 0.97486 0.74231 0.0
H1721 H 0.24403 0.04232 0.74371 0.0
H1722 H 0.22997 0.02896 0.73305 0.0
H1723 H 0.24913 0.03464 0.72374 0.0
C1724 C 0.21042 0.98514 0.71421 0.0
C1725 C 0.21357 0.99131 0.69842 0.0
C1726 C 0.22144 0.98804 0.72706 0.0
C1727 C 0.23574 0.99724 0.72438 0.0
C1728 C 0.2391 1.00304 0.70856 0.0
H1729 H 0.32594 1.00164 0.77834 0.0
H1730 H 0.30353 0.9967 0.75922 0.0
C1731 C 0.22813 1.00017 0.69574 0.0
C1732 C 0.24738 1.00055 0.73798 0.0
H1733 H 0.26714 0.03151 0.75812 0.0
C1734 C 0.25488 0.98724 0.74588 0.0
C1735 C 0.25147 0.0167 0.74283 0.0
C1736 C 0.24311 0.03148 0.73551 0.0
C1737 C 0.26684 0.98967 0.75802 0.0
C1738 C 0.27162 0.00583 0.76218 0.0
C1739 C 0.26363 0.01913 0.75477 0.0
C1740 C 0.28523 0.00916 0.77381 0.0
C1741 C 0.27425 0.97488 0.76629 0.0
C1742 C 0.28254 0.01832 0.78813 0.0
C1743 C 0.29542 0.0213 0.79909 0.0
C1744 C 0.31124 0.01525 0.79587 0.0
C1745 C 0.31392 0.0064 0.78131 0.0
C1746 C 0.30107 1.00345 0.77039 0.0
H1747 H 0.2661 0.96401 0.76535 0.0
H1748 H 0.28602 0.9718 0.76021 0.0
H1749 H 0.27675 0.97735 0.77943 0.0
H1750 H 0.27043 0.02297 0.79093 0.0
H1751 H 0.29292 0.02818 0.81016 0.0
H1752 H 1.00184 0.22811 0.68356 0.0
H1753 H 0.99725 0.24721 0.70608 0.0
H1754 H 0.02121 0.21397 0.7394 0.0
H1755 H 0.02607 0.19474 0.71682 0.0
H1756 H 0.97977 0.24214 0.73512 0.0
H1757 H 0.04496 0.25767 0.74748 0.0
H1758 H 0.03851 0.24742 0.72897 0.0
H1759 H 0.04004 0.2362 0.74783 0.0
C1760 C 0.00625 0.22484 0.69564 0.0
C1761 C 0.0144 0.20988 0.69833 0.0
C1762 C 1.00355 0.23578 0.70852 0.0
C1763 C 0.009 0.2321 0.72439 0.0
C1764 C 0.01713 0.21718 0.7272 0.0
H1765 H 0.97826 0.28939 0.81066 0.0
H1766 H 0.98264 0.26685 0.79127 0.0
C1767 C 0.01985 0.20618 0.71428 0.0
C1768 C 0.00594 0.24391 0.73791 0.0
H1769 H 0.02512 0.26976 0.76467 0.0
C1770 C 0.98968 0.24811 0.74167 0.0
C1771 C 0.01889 0.25177 0.74633 0.0
C1772 C 0.0366 0.24819 0.74242 0.0
C1773 C 0.98601 0.26011 0.75347 0.0
C1774 C 0.99896 0.26799 0.76188 0.0
C1775 C 0.01521 0.26363 0.75827 0.0
C1776 C 0.99599 0.28153 0.77368 0.0
C1777 C 0.96834 0.26469 0.75643 0.0
C1778 C 1.00217 0.29722 0.77032 0.0
C1779 C 0.99974 0.31008 0.78135 0.0
C1780 C 0.99112 0.30755 0.79608 0.0
C1781 C 0.98487 0.29181 0.7994 0.0
C1782 C 0.98732 0.27891 0.78831 0.0
H1783 H 0.96015 0.25996 0.74663 0.0
H1784 H 0.96426 0.25939 0.76826 0.0
H1785 H 0.96693 0.27821 0.75717 0.0
H1786 H 0.0089 0.29952 0.7591 0.0
H1787 H 0.00476 0.322 0.77836 0.0
H1788 H 0.80184 0.03537 0.70991 0.0
H1789 H 0.78131 0.03102 0.73138 0.0
H1790 H 0.76433 0.98762 0.7064 0.0
H1791 H 0.78427 0.99227 0.68465 0.0
H1792 H 0.73937 0.00487 0.71574 0.0
H1793 H 0.78143 0.99936 0.76864 0.0
H1794 H 0.78379 0.01848 0.75807 0.0
H1795 H 0.78867 0.99958 0.74776 0.0
C1796 C 0.79376 0.02488 0.70904 0.0
C1797 C 0.7947 0.01418 0.69556 0.0
C1798 C 0.78211 0.02231 0.7214 0.0
C1799 C 0.77144 0.00879 0.72072 0.0
C1800 C 0.77242 0.99811 0.70726 0.0
H1801 H 0.71049 0.97425 0.80198 0.0
H1802 H 0.73193 0.97765 0.7812 0.0
C1803 C 0.78385 1.00081 0.69481 0.0
C1804 C 0.75877 0.00602 0.73359 0.0
H1805 H 0.75297 1.00186 0.77487 0.0
C1806 C 0.74239 1.00413 0.72866 0.0
C1807 C 0.76268 0.00476 0.75046 0.0
C1808 C 0.78012 0.00547 0.75655 0.0
C1809 C 0.72983 1.00122 0.74005 0.0
C1810 C 0.73361 1.00077 0.75698 0.0
C1811 C 0.75002 1.0024 0.76192 0.0
C1812 C 0.7207 0.99875 0.76971 0.0
C1813 C 0.7127 0.99828 0.73373 0.0
C1814 C 0.70738 0.00962 0.77036 0.0
C1815 C 0.69502 0.00755 0.78202 0.0
C1816 C 0.69585 0.99477 0.79357 0.0
C1817 C 0.70944 0.98417 0.79322 0.0
C1818 C 0.72172 0.98612 0.78137 0.0
H1819 H 0.71284 0.99372 0.7209 0.0
H1820 H 0.70603 0.98927 0.74143 0.0
H1821 H 0.70582 0.01001 0.73385 0.0
H1822 H 0.70654 0.01977 0.76186 0.0
H1823 H 0.68488 0.01611 0.78208 0.0
H1824 H 0.1957 0.28999 0.98053 0.0
H1825 H 0.21473 0.26715 0.98495 0.0
H1826 H 0.24714 0.29926 0.01158 0.0
H1827 H 0.22827 0.32203 0.00739 0.0
H1828 H 0.24767 0.26415 0.97573 0.0
H1829 H 0.24105 0.2607 0.04319 0.0
H1830 H 0.22677 0.27171 0.03036 0.0
H1831 H 0.24598 0.28091 0.03602 0.0
C1832 C 0.20687 0.29219 0.98734 0.0
C1833 C 0.21039 0.30786 0.99367 0.0
C1834 C 0.21772 0.27912 0.98987 0.0
C1835 C 0.2322 0.28143 0.99887 0.0
C1836 C 0.23586 0.2971 0.00493 0.0
H1837 H 0.323 0.22917 1.00082 0.0
H1838 H 0.29998 0.24774 0.99664 0.0
C1839 C 0.22508 0.31015 1.00241 0.0
C1840 C 0.24379 0.26767 1.00159 0.0
H1841 H 0.26411 0.24672 0.03161 0.0
C1842 C 0.25113 0.26021 0.98794 0.0
C1843 C 0.24812 0.26234 0.01752 0.0
C1844 C 0.23996 0.26921 0.03262 0.0
C1845 C 0.26323 0.24811 0.98982 0.0
C1846 C 0.26826 0.2435 0.00576 0.0
C1847 C 0.26038 0.25041 0.0194 0.0
C1848 C 0.28217 0.2321 0.00852 0.0
C1849 C 0.27057 0.2404 0.9747 0.0
C1850 C 0.27993 0.21732 0.01706 0.0
C1851 C 0.29315 0.20664 0.01957 0.0
C1852 C 0.30887 0.21062 0.0137 0.0
C1853 C 0.31107 0.22562 0.00544 0.0
C1854 C 0.29789 0.23623 1.00293 0.0
H1855 H 0.2623 0.24161 0.96396 0.0
H1856 H 0.28225 0.2467 0.97171 0.0
H1857 H 0.27323 0.22721 0.97671 0.0
H1858 H 0.26792 0.21397 0.0216 0.0
H1859 H 0.29101 0.19523 0.026 0.0
H1860 H 0.19548 0.72046 0.02863 0.0
H1861 H 0.21411 0.74363 0.02402 0.0
H1862 H 0.24706 0.71193 0.99757 0.0
H1863 H 0.22862 0.68885 1.00197 0.0
H1864 H 0.24704 0.74721 0.0332 0.0
H1865 H 0.2404 0.75026 0.96576 0.0
H1866 H 0.22624 0.73915 0.97865 0.0
H1867 H 0.24553 0.73012 0.97296 0.0
C1868 C 0.20669 0.71842 0.02182 0.0
C1869 C 0.21049 0.70277 0.01561 0.0
C1870 C 0.2173 0.73168 0.01918 0.0
C1871 C 0.23181 0.72958 0.01016 0.0
C1872 C 0.23575 0.71394 1.00422 0.0
H1873 H 0.32273 0.7806 0.00793 0.0
H1874 H 0.29925 0.76267 0.01213 0.0
C1875 C 0.22522 0.70071 0.00687 0.0
C1876 C 0.24321 0.74351 0.00737 0.0
H1877 H 0.26356 0.76427 0.97722 0.0
C1878 C 0.2505 0.75108 0.02097 0.0
C1879 C 0.24753 0.74876 0.99141 0.0
C1880 C 0.23939 0.74178 0.97635 0.0
C1881 C 0.26261 0.76318 0.01902 0.0
C1882 C 0.2677 0.76765 1.00305 0.0
C1883 C 0.2598 0.7607 0.98946 0.0
C1884 C 0.28186 0.77874 1.00025 0.0
C1885 C 0.26998 0.77094 0.03409 0.0
C1886 C 0.28001 0.79357 0.99169 0.0
C1887 C 0.29351 0.80392 0.98918 0.0
C1888 C 0.30912 0.79952 0.99505 0.0
C1889 C 0.31091 0.78448 1.0033 0.0
C1890 C 0.29746 0.77421 0.00583 0.0
H1891 H 0.26164 0.76992 0.04481 0.0
H1892 H 0.28156 0.76454 0.03719 0.0
H1893 H 0.27281 0.78409 0.03197 0.0
H1894 H 0.26809 0.79721 0.98714 0.0
H1895 H 0.29169 0.81538 0.98274 0.0
H1896 H 0.8126 0.29148 0.02897 0.0
H1897 H 0.79411 0.26816 0.02457 0.0
H1898 H 0.76071 0.29955 0.99835 0.0
H1899 H 0.77901 0.32277 1.00253 0.0
H1900 H 0.76115 0.26426 0.0339 0.0
H1901 H 0.76774 0.26135 0.96643 0.0
H1902 H 0.78181 0.27258 0.97931 0.0
H1903 H 0.76243 0.28143 0.9737 0.0
C1904 C 0.80132 0.29341 0.02226 0.0
C1905 C 0.79737 0.30901 0.01604 0.0
C1906 C 0.79078 0.28007 0.01975 0.0
C1907 C 0.77619 0.28205 0.01085 0.0
C1908 C 0.77208 0.29765 0.00491 0.0
H1909 H 0.6861 0.2289 0.00876 0.0
H1910 H 0.70905 0.2475 0.01311 0.0
C1911 C 0.78254 0.31095 0.00743 0.0
C1912 C 0.76492 0.26802 0.00807 0.0
H1913 H 0.74482 0.24703 0.97793 0.0
C1914 C 0.75772 0.26035 0.02167 0.0
C1915 C 0.76064 0.26274 0.99211 0.0
C1916 C 0.76868 0.26983 0.97705 0.0
C1917 C 0.74578 0.2481 0.01973 0.0
C1918 C 0.74074 0.24356 1.00376 0.0
C1919 C 0.74853 0.25065 0.99016 0.0
C1920 C 0.72688 0.23211 1.00093 0.0
C1921 C 0.73856 0.2402 0.0348 0.0
C1922 C 0.72913 0.21747 0.99216 0.0
C1923 C 0.71594 0.20677 0.98954 0.0
C1924 C 0.70022 0.2106 0.99554 0.0
C1925 C 0.69801 0.22546 1.00403 0.0
C1926 C 0.71117 0.23609 0.00665 0.0
H1927 H 0.7469 0.24134 0.0455 0.0
H1928 H 0.72688 0.24641 0.03794 0.0
H1929 H 0.73595 0.22701 0.03267 0.0
H1930 H 0.74113 0.21424 0.9875 0.0
H1931 H 0.71808 0.19546 0.98293 0.0
H1932 H 0.81204 0.71862 0.97948 0.0
H1933 H 0.79292 0.7414 0.98383 0.0
H1934 H 0.76025 0.70909 0.0099 0.0
H1935 H 0.77922 0.68638 0.00579 0.0
H1936 H 0.76011 0.74457 0.97436 0.0
H1937 H 0.76604 0.74731 0.04191 0.0
H1938 H 0.78041 0.73638 0.02912 0.0
H1939 H 0.7611 0.7272 0.03449 0.0
C1940 C 0.80079 0.71636 0.98615 0.0
C1941 C 0.79724 0.70065 0.99236 0.0
C1942 C 0.78989 0.7294 0.98863 0.0
C1943 C 0.77531 0.72702 0.99747 0.0
C1944 C 0.7716 0.71131 1.00339 0.0
H1945 H 0.68488 0.78037 0.99901 0.0
H1946 H 0.70766 0.76151 0.99476 0.0
C1947 C 0.78244 0.69829 1.00091 0.0
C1948 C 0.76371 0.74077 1.00021 0.0
H1949 H 0.74321 0.76154 0.03026 0.0
C1950 C 0.75654 0.7484 0.98658 0.0
C1951 C 0.75924 0.74596 0.01616 0.0
C1952 C 0.76721 0.73891 0.03126 0.0
C1953 C 0.7445 0.76058 0.98846 0.0
C1954 C 0.73934 0.76507 0.00441 0.0
C1955 C 0.74703 0.75795 0.01804 0.0
C1956 C 0.72556 0.77663 0.00717 0.0
C1957 C 0.7374 0.7685 0.97335 0.0
C1958 C 0.7279 0.79121 0.01602 0.0
C1959 C 0.71482 0.80205 0.01858 0.0
C1960 C 0.69912 0.79843 0.01243 0.0
C1961 C 0.6968 0.78364 1.00384 0.0
C1962 C 0.70985 0.77287 1.00129 0.0
H1963 H 0.74578 0.76734 0.96269 0.0
H1964 H 0.72571 0.76232 0.97016 0.0
H1965 H 0.73481 0.78169 0.97548 0.0
H1966 H 0.7399 0.79429 0.0208 0.0
H1967 H 0.71705 0.81329 0.02528 0.0
H1968 H 0.50472 0.73024 0.82586 0.0
H1969 H 0.50892 0.7496 0.8035 0.0
H1970 H 0.48531 0.71627 0.76999 0.0
H1971 H 0.48086 0.69677 0.79242 0.0
H1972 H 0.52652 0.74478 0.77458 0.0
H1973 H 0.4613 0.7598 0.76189 0.0
H1974 H 0.46772 0.74955 0.7804 0.0
H1975 H 0.46637 0.73837 0.76149 0.0
C1976 C 0.50029 0.72701 0.81378 0.0
C1977 C 0.49239 0.71193 0.81098 0.0
C1978 C 0.50276 0.73811 0.80099 0.0
C1979 C 0.49733 0.73446 0.7851 0.0
C1980 C 0.48938 0.71946 0.78221 0.0
H1981 H 0.52845 0.79166 0.69905 0.0
H1982 H 0.52392 0.76922 0.71851 0.0
C1983 C 0.48689 0.7083 0.79504 0.0
C1984 C 0.50036 0.74634 0.77164 0.0
H1985 H 0.48114 0.77202 0.74476 0.0
C1986 C 0.51661 0.75067 0.76798 0.0
C1987 C 0.4874 0.7541 0.76315 0.0
C1988 C 0.4697 0.75037 0.76696 0.0
C1989 C 0.52026 0.7627 0.75621 0.0
C1990 C 0.5073 0.77046 0.74771 0.0
C1991 C 0.49105 0.76598 0.75122 0.0
C1992 C 0.51027 0.78394 0.73583 0.0
C1993 C 0.53791 0.76742 0.75337 0.0
C1994 C 0.50394 0.7996 0.739 0.0
C1995 C 0.50645 0.81241 0.72793 0.0
C1996 C 0.5153 0.80984 0.71335 0.0
C1997 C 0.52167 0.79411 0.7102 0.0
C1998 C 0.51913 0.78128 0.72132 0.0
H1999 H 0.54604 0.76288 0.7633 0.0
H2000 H 0.54216 0.76202 0.74164 0.0
H2001 H 0.53922 0.78094 0.75251 0.0
H2002 H 0.49706 0.80194 0.75012 0.0
H2003 H 0.50133 0.82432 0.73078 0.0
H2004 H 0.27924 0.5057 0.8281 0.0
H2005 H 0.25978 0.51042 0.80594 0.0
H2006 H 0.29247 0.48666 0.77191 0.0
H2007 H 0.31204 0.48165 0.79414 0.0
H2008 H 0.26437 0.52819 0.77731 0.0
H2009 H 0.24877 0.46327 0.76376 0.0
H2010 H 0.25933 0.46935 0.78222 0.0
H2011 H 0.27024 0.46809 0.76314 0.0
C2012 C 0.28231 0.50135 0.81594 0.0
C2013 C 0.29722 0.49323 0.81294 0.0
C2014 C 0.27115 0.50412 0.80327 0.0
C2015 C 0.27459 0.49878 0.7873 0.0
C2016 C 0.28944 0.49065 0.7842 0.0
H2017 H 0.21868 0.53172 0.70137 0.0
H2018 H 0.24061 0.52682 0.72126 0.0
C2019 C 0.30064 0.48785 0.79691 0.0
C2020 C 0.26265 0.50208 0.77396 0.0
H2021 H 0.23698 0.48342 0.74665 0.0
C2022 C 0.25842 0.51841 0.77055 0.0
C2023 C 0.25481 0.48929 0.76526 0.0
C2024 C 0.25837 0.4715 0.76882 0.0
C2025 C 0.24648 0.52232 0.75879 0.0
C2026 C 0.23871 0.50954 0.75001 0.0
C2027 C 0.24303 0.49321 0.75332 0.0
C2028 C 0.22549 0.51278 0.73793 0.0
C2029 C 0.2419 0.54005 0.75623 0.0
C2030 C 0.20977 0.50635 0.74056 0.0
C2031 C 0.19724 0.50906 0.72921 0.0
C2032 C 0.20017 0.51823 0.7149 0.0
C2033 C 0.21595 0.52471 0.7123 0.0
C2034 C 0.2285 0.52196 0.72369 0.0
H2035 H 0.24621 0.54794 0.76646 0.0
H2036 H 0.24764 0.54455 0.74475 0.0
H2037 H 0.22842 0.54145 0.75503 0.0
H2038 H 0.20717 0.49921 0.75146 0.0
H2039 H 0.18528 0.50384 0.73163 0.0
H2040 H 0.50482 0.27918 0.82474 0.0
H2041 H 0.50037 0.26056 0.80182 0.0
H2042 H 0.52112 0.29609 0.76868 0.0
H2043 H 0.52583 0.31487 0.79168 0.0
H2044 H 0.48136 0.26575 0.77377 0.0
H2045 H 0.54662 0.25394 0.75801 0.0
H2046 H 0.54054 0.26322 0.77715 0.0
H2047 H 0.54056 0.27511 0.75864 0.0
C2048 C 0.50855 0.28307 0.81261 0.0
C2049 C 0.51575 0.29855 0.81009 0.0
C2050 C 0.50595 0.27239 0.7995 0.0
C2051 C 0.51051 0.27687 0.78355 0.0
C2052 C 0.51773 0.29228 0.78093 0.0
H2053 H 0.47911 0.21934 0.69751 0.0
H2054 H 0.48349 0.24209 0.71669 0.0
C2055 C 0.52037 0.30302 0.79408 0.0
C2056 C 0.50744 0.26534 0.7698 0.0
H2057 H 0.52663 0.24102 0.74164 0.0
C2058 C 0.49124 0.26043 0.76664 0.0
C2059 C 0.52036 0.25836 0.7606 0.0
C2060 C 0.53802 0.26278 0.76379 0.0
C2061 C 0.48764 0.24851 0.75475 0.0
C2062 C 0.50057 0.24143 0.74564 0.0
C2063 C 0.51674 0.24655 0.74858 0.0
C2064 C 0.49774 0.22783 0.73389 0.0
C2065 C 0.47011 0.2431 0.75245 0.0
C2066 C 0.50442 0.21233 0.73713 0.0
C2067 C 0.50194 0.19935 0.72625 0.0
C2068 C 0.49281 0.20158 0.71179 0.0
C2069 C 0.48613 0.21716 0.70855 0.0
C2070 C 0.48859 0.23017 0.71951 0.0
H2071 H 0.46203 0.24756 0.76245 0.0
H2072 H 0.46541 0.24803 0.74068 0.0
H2073 H 0.46931 0.22952 0.75191 0.0
H2074 H 0.51151 0.21026 0.74815 0.0
H2075 H 0.50732 0.18757 0.72916 0.0
H2076 H 0.82605 0.50481 0.72915 0.0
H2077 H 0.80359 0.50918 0.74834 0.0
H2078 H 0.77012 0.48583 0.7148 0.0
H2079 H 0.79266 0.48119 0.69546 0.0
H2080 H 0.77487 0.527 0.74335 0.0
H2081 H 0.76154 0.46184 0.75827 0.0
H2082 H 0.78017 0.46813 0.74814 0.0
H2083 H 0.76132 0.46695 0.73685 0.0
C2084 C 0.81396 0.50048 0.72583 0.0
C2085 C 0.81121 0.49259 0.71074 0.0
C2086 C 0.80111 0.50304 0.73684 0.0
C2087 C 0.78521 0.49773 0.73308 0.0
C2088 C 0.78235 0.48981 0.71807 0.0
H2089 H 0.69928 0.52972 0.78994 0.0
H2090 H 0.71872 0.52487 0.76757 0.0
C2091 C 0.79525 0.48721 0.707 0.0
C2092 C 0.7717 0.50085 0.74488 0.0
H2093 H 0.74456 0.48182 0.77046 0.0
C2094 C 0.76816 0.51713 0.74921 0.0
C2095 C 0.76307 0.48795 0.75261 0.0
C2096 C 0.76675 0.47021 0.74888 0.0
C2097 C 0.75638 0.52087 0.7612 0.0
C2098 C 0.74774 0.50797 0.76892 0.0
C2099 C 0.75113 0.49169 0.76445 0.0
C2100 C 0.73583 0.51104 0.78235 0.0
C2101 C 0.75369 0.53855 0.76592 0.0
C2102 C 0.73887 0.50468 0.79803 0.0
C2103 C 0.72779 0.50737 0.8108 0.0
C2104 C 0.71335 0.51643 0.80818 0.0
C2105 C 0.71032 0.52279 0.79243 0.0
C2106 C 0.72144 0.52007 0.77963 0.0
H2107 H 0.76372 0.5466 0.76144 0.0
H2108 H 0.74203 0.54292 0.76045 0.0
H2109 H 0.75275 0.53986 0.77943 0.0
H2110 H 0.74988 0.49767 0.8004 0.0
H2111 H 0.73054 0.50225 0.82273 0.0
H2112 H 0.50292 0.18524 0.27872 0.0
H2113 H 0.49853 0.20786 0.25971 0.0
H2114 H 0.5217 0.24113 0.29359 0.0
H2115 H 0.52635 0.21843 0.31274 0.0
H2116 H 0.48068 0.23669 0.26491 0.0
H2117 H 0.54592 0.24987 0.25024 0.0
H2118 H 0.53954 0.23117 0.2602 0.0
H2119 H 0.54069 0.24994 0.27163 0.0
C2120 C 0.5072 0.19732 0.28215 0.0
C2121 C 0.51505 0.19997 0.29728 0.0
C2122 C 0.50462 0.21027 0.27126 0.0
C2123 C 0.50988 0.22616 0.27516 0.0
C2124 C 0.51775 0.22891 0.29021 0.0
H2125 H 0.47892 0.3121 0.21735 0.0
H2126 H 0.48344 0.29303 0.24013 0.0
C2127 C 0.52036 0.21592 0.30117 0.0
C2128 C 0.50683 0.23975 0.26343 0.0
H2129 H 0.52603 0.26676 0.23784 0.0
C2130 C 0.49058 0.24336 0.25907 0.0
C2131 C 0.51978 0.24834 0.25575 0.0
C2132 C 0.53749 0.24461 0.25954 0.0
C2133 C 0.48693 0.25514 0.24705 0.0
C2134 C 0.49988 0.26368 0.23932 0.0
C2135 C 0.51612 0.26026 0.24387 0.0
C2136 C 0.49694 0.27536 0.22567 0.0
C2137 C 0.46929 0.25793 0.24228 0.0
C2138 C 0.50316 0.27186 0.21005 0.0
C2139 C 0.50063 0.2827 0.19705 0.0
C2140 C 0.49188 0.29738 0.19939 0.0
C2141 C 0.48563 0.30088 0.21508 0.0
C2142 C 0.48816 0.28997 0.22811 0.0
H2143 H 0.46111 0.24814 0.24704 0.0
H2144 H 0.46509 0.26981 0.24738 0.0
H2145 H 0.46801 0.25848 0.22875 0.0
H2146 H 0.50996 0.26066 0.20789 0.0
H2147 H 0.50567 0.27958 0.18518 0.0
H2148 H 0.79025 0.53076 0.30956 0.0
H2149 H 0.76773 0.526 0.29027 0.0
H2150 H 0.80031 0.49886 0.25877 0.0
H2151 H 0.82278 0.50336 0.27795 0.0
H2152 H 0.7648 0.5345 0.25736 0.0
H2153 H 0.76204 0.46709 0.265 0.0
H2154 H 0.77294 0.48024 0.27906 0.0
H2155 H 0.78215 0.4744 0.25991 0.0
C2156 C 0.79263 0.52378 0.29852 0.0
C2157 C 0.80833 0.51736 0.29538 0.0
C2158 C 0.77974 0.52106 0.28752 0.0
C2159 C 0.78225 0.51179 0.27325 0.0
C2160 C 0.79798 0.5057 0.2699 0.0
H2161 H 0.72825 0.50816 0.18309 0.0
H2162 H 0.74743 0.51279 0.20551 0.0
C2163 C 0.81085 0.5084 0.28085 0.0
C2164 C 0.76859 0.50874 0.26161 0.0
H2165 H 0.74774 0.47818 0.24196 0.0
C2166 C 0.76096 0.5222 0.2541 0.0
C2167 C 0.7634 0.49268 0.25755 0.0
C2168 C 0.77043 0.47777 0.26592 0.0
C2169 C 0.74874 0.52001 0.24217 0.0
C2170 C 0.74421 0.50393 0.23745 0.0
C2171 C 0.75136 0.49049 0.24544 0.0
C2172 C 0.7325 0.50084 0.22386 0.0
C2173 C 0.74079 0.53495 0.23473 0.0
C2174 C 0.71794 0.49207 0.22659 0.0
C2175 C 0.70692 0.48928 0.21372 0.0
C2176 C 0.71034 0.49511 0.19785 0.0
C2177 C 0.72513 0.50357 0.19514 0.0
C2178 C 0.73609 0.50635 0.20799 0.0
H2179 H 0.74201 0.54583 0.24283 0.0
H2180 H 0.74687 0.53783 0.22292 0.0
H2181 H 0.72758 0.53277 0.23231 0.0
H2182 H 0.715 0.48758 0.23873 0.0
H2183 H 0.69568 0.48269 0.21624 0.0
H2184 H 0.53509 0.70783 0.20917 0.0
H2185 H 0.53084 0.7285 0.23052 0.0
H2186 H 0.48824 0.74635 0.20482 0.0
H2187 H 0.49279 0.72623 0.18321 0.0
H2188 H 0.50592 0.77102 0.21465 0.0
H2189 H 0.49829 0.72865 0.26709 0.0
H2190 H 0.51755 0.72597 0.25687 0.0
H2191 H 0.49877 0.72157 0.24616 0.0
C2192 C 0.52481 0.71614 0.2081 0.0
C2193 C 0.51428 0.71536 0.19448 0.0
C2194 C 0.5223 0.72787 0.2204 0.0
C2195 C 0.50901 0.73881 0.21949 0.0
C2196 C 0.49855 0.73804 0.20586 0.0
H2197 H 0.47328 0.79936 0.30031 0.0
H2198 H 0.47697 0.77824 0.27927 0.0
C2199 C 0.50118 0.72651 0.19348 0.0
C2200 C 0.50622 0.75145 0.23237 0.0
H2201 H 0.50106 0.757 0.27356 0.0
C2202 C 0.50479 0.76791 0.22752 0.0
C2203 C 0.50444 0.74744 0.24916 0.0
C2204 C 0.50467 0.72994 0.25513 0.0
C2205 C 0.50182 0.78044 0.23894 0.0
C2206 C 0.50082 0.77653 0.25581 0.0
C2207 C 0.50202 0.76005 0.26066 0.0
C2208 C 0.49857 0.78935 0.2686 0.0
C2209 C 0.4994 0.79769 0.23269 0.0
C2210 C 0.50958 0.80252 0.26978 0.0
C2211 C 0.50736 0.81471 0.2816 0.0
C2212 C 0.49426 0.81384 0.29278 0.0
C2213 C 0.48345 0.80043 0.29186 0.0
C2214 C 0.48557 0.78833 0.27986 0.0
H2215 H 0.49527 0.79775 0.21972 0.0
H2216 H 0.49026 0.80445 0.24016 0.0
H2217 H 0.51123 0.80437 0.23327 0.0
H2218 H 0.51999 0.80335 0.26159 0.0
H2219 H 0.51606 0.82472 0.2821 0.0
H2220 H 0.27849 0.50232 0.18284 0.0
H2221 H 0.25933 0.49784 0.20532 0.0
H2222 H 0.29278 0.52134 0.23877 0.0
H2223 H 0.31208 0.52608 0.21624 0.0
H2224 H 0.26425 0.48015 0.23424 0.0
H2225 H 0.24931 0.5454 0.24704 0.0
H2226 H 0.25948 0.53898 0.22848 0.0
H2227 H 0.27073 0.54033 0.24734 0.0
C2228 C 0.2818 0.50665 0.19494 0.0
C2229 C 0.29684 0.51464 0.19768 0.0
C2230 C 0.27082 0.50402 0.2078 0.0
C2231 C 0.27454 0.50936 0.2237 0.0
C2232 C 0.28953 0.51734 0.22655 0.0
H2233 H 0.21755 0.47841 0.31001 0.0
H2234 H 0.23996 0.48284 0.29048 0.0
C2235 C 0.30057 0.51999 0.21365 0.0
C2236 C 0.26271 0.50633 0.23721 0.0
H2237 H 0.23715 0.52556 0.2642 0.0
C2238 C 0.25839 0.49007 0.24088 0.0
C2239 C 0.25499 0.51929 0.24574 0.0
C2240 C 0.25871 0.537 0.24192 0.0
C2241 C 0.24641 0.48642 0.2527 0.0
C2242 C 0.23869 0.49939 0.26124 0.0
C2243 C 0.24316 0.51564 0.25771 0.0
C2244 C 0.22523 0.49644 0.27314 0.0
C2245 C 0.2417 0.46877 0.25556 0.0
C2246 C 0.20957 0.50277 0.26998 0.0
C2247 C 0.19679 0.50031 0.28109 0.0
C2248 C 0.19938 0.49152 0.29571 0.0
C2249 C 0.21509 0.48515 0.29884 0.0
C2250 C 0.22791 0.48762 0.28767 0.0
H2251 H 0.24625 0.46061 0.24566 0.0
H2252 H 0.24709 0.46455 0.26731 0.0
H2253 H 0.22819 0.46746 0.25643 0.0
H2254 H 0.20723 0.50961 0.25885 0.0
H2255 H 0.18488 0.50544 0.27825 0.0
H2256 H 0.79029 0.69565 0.52899 0.0
H2257 H 0.76719 0.71439 0.52456 0.0
H2258 H 0.79893 0.74736 0.49816 0.0
H2259 H 0.82194 0.7288 0.50238 0.0
H2260 H 0.76368 0.74745 0.53375 0.0
H2261 H 0.76064 0.74054 0.46631 0.0
H2262 H 0.77171 0.72641 0.47925 0.0
H2263 H 0.78076 0.74569 0.47354 0.0
C2264 C 0.79235 0.70689 0.52224 0.0
C2265 C 0.80798 0.71065 0.51597 0.0
C2266 C 0.77914 0.71757 0.51971 0.0
C2267 C 0.78128 0.73211 0.51074 0.0
C2268 C 0.7969 0.73603 0.50477 0.0
H2269 H 0.7287 0.82259 0.50826 0.0
H2270 H 0.74722 0.79958 0.51263 0.0
C2271 C 0.81009 0.72542 0.50732 0.0
C2272 C 0.76737 0.74351 0.50793 0.0
H2273 H 0.74648 0.7636 0.47772 0.0
C2274 C 0.75978 0.75084 0.52151 0.0
C2275 C 0.7621 0.74774 0.49196 0.0
C2276 C 0.7691 0.73957 0.47693 0.0
C2277 C 0.74762 0.76286 0.51952 0.0
C2278 C 0.74309 0.76783 0.50353 0.0
C2279 C 0.7501 0.75993 0.48996 0.0
C2280 C 0.7317 0.78174 0.50065 0.0
C2281 C 0.7398 0.77022 0.53457 0.0
C2282 C 0.71701 0.77949 0.49198 0.0
C2283 C 0.70635 0.79271 0.48935 0.0
C2284 C 0.71028 0.80845 0.49524 0.0
C2285 C 0.72519 0.81066 0.50362 0.0
C2286 C 0.73578 0.79747 0.50625 0.0
H2287 H 0.74093 0.76195 0.54532 0.0
H2288 H 0.74606 0.78191 0.5376 0.0
H2289 H 0.72662 0.77287 0.53246 0.0
H2290 H 0.71371 0.76747 0.48741 0.0
H2291 H 0.695 0.79056 0.48282 0.0
H2292 H 0.72939 0.18521 0.50194 0.0
H2293 H 0.74874 0.20759 0.49773 0.0
H2294 H 0.71609 0.24081 0.52266 0.0
H2295 H 0.69661 0.21836 0.52713 0.0
H2296 H 0.74383 0.23704 0.48091 0.0
H2297 H 0.76008 0.24795 0.54616 0.0
H2298 H 0.74959 0.22967 0.53944 0.0
H2299 H 0.73857 0.24861 0.54148 0.0
C2300 C 0.7263 0.19724 0.50664 0.0
C2301 C 0.71142 0.19994 0.51494 0.0
C2302 C 0.73739 0.21004 0.50417 0.0
C2303 C 0.73394 0.22584 0.50999 0.0
C2304 C 0.71912 0.22865 0.51828 0.0
H2305 H 0.79143 0.31223 0.48011 0.0
H2306 H 0.76882 0.29296 0.48466 0.0
C2307 C 0.70797 0.21581 0.52078 0.0
C2308 C 0.74587 0.2393 0.5071 0.0
H2309 H 0.77209 0.2655 0.52657 0.0
C2310 C 0.74995 0.24335 0.49088 0.0
C2311 C 0.75392 0.2474 0.52014 0.0
C2312 C 0.75047 0.24315 0.5378 0.0
C2313 C 0.76199 0.25514 0.48733 0.0
C2314 C 0.77004 0.26325 0.50037 0.0
C2315 C 0.76582 0.25934 0.51659 0.0
C2316 C 0.78359 0.27507 0.49749 0.0
C2317 C 0.76642 0.25842 0.46968 0.0
C2318 C 0.79933 0.27153 0.50337 0.0
C2319 C 0.81224 0.28249 0.50084 0.0
C2320 C 0.80969 0.29733 0.49242 0.0
C2321 C 0.79386 0.30088 0.48655 0.0
C2322 C 0.78093 0.28986 0.48909 0.0
H2323 H 0.76159 0.24878 0.46136 0.0
H2324 H 0.76112 0.27034 0.46588 0.0
H2325 H 0.77992 0.25915 0.46815 0.0
H2326 H 0.80167 0.26019 0.50989 0.0
H2327 H 0.82422 0.27933 0.50558 0.0
H2328 H 0.31541 0.78994 0.5252 0.0
H2329 H 0.29731 0.76637 0.52044 0.0
H2330 H 0.26269 0.79787 0.49599 0.0
H2331 H 0.28057 0.82133 0.50056 0.0
H2332 H 0.26454 0.76168 0.53044 0.0
H2333 H 0.26963 0.76067 0.4628 0.0
H2334 H 0.28388 0.77169 0.47567 0.0
H2335 H 0.26431 0.78051 0.47069 0.0
C2336 C 0.30395 0.79184 0.51881 0.0
C2337 C 0.29951 0.80755 0.51321 0.0
C2338 C 0.29364 0.77836 0.51607 0.0
C2339 C 0.27881 0.78031 0.50756 0.0
C2340 C 0.27425 0.79599 0.50223 0.0
H2341 H 0.18841 0.72901 0.50577 0.0
H2342 H 0.21201 0.7468 0.50991 0.0
C2343 C 0.28447 0.80944 0.50498 0.0
C2344 C 0.26771 0.76618 0.50464 0.0
H2345 H 0.24685 0.74608 0.47439 0.0
C2346 C 0.26085 0.75811 0.51819 0.0
C2347 C 0.26307 0.76133 0.48864 0.0
C2348 C 0.27073 0.76888 0.47361 0.0
C2349 C 0.24882 0.74595 0.51617 0.0
C2350 C 0.24337 0.74192 0.5002 0.0
C2351 C 0.25089 0.74932 0.48663 0.0
C2352 C 0.22915 0.7309 0.49744 0.0
C2353 C 0.24184 0.7377 0.53117 0.0
C2354 C 0.23083 0.71623 0.48859 0.0
C2355 C 0.21726 0.70595 0.48613 0.0
C2356 C 0.20176 0.71028 0.49234 0.0
C2357 C 0.20014 0.7252 0.50087 0.0
C2358 C 0.21366 0.73537 0.50336 0.0
H2359 H 0.25038 0.73852 0.54173 0.0
H2360 H 0.23025 0.74387 0.53468 0.0
H2361 H 0.23912 0.72458 0.52873 0.0
H2362 H 0.24266 0.71264 0.48377 0.0
H2363 H 0.21895 0.69459 0.47947 0.0
H2364 H 0.18473 0.28028 0.50327 0.0
H2365 H 0.20731 0.26126 0.49872 0.0
H2366 H 0.2407 0.2951 0.52177 0.0
H2367 H 0.21806 0.31426 0.52658 0.0
H2368 H 0.23614 0.26627 0.48083 0.0
H2369 H 0.24931 0.25185 0.54611 0.0
H2370 H 0.23066 0.26187 0.53972 0.0
H2371 H 0.24947 0.27323 0.54084 0.0
C2372 C 0.19684 0.28371 0.50748 0.0
C2373 C 0.19953 0.29882 0.51537 0.0
C2374 C 0.20976 0.27281 0.50481 0.0
C2375 C 0.22567 0.27668 0.51002 0.0
C2376 C 0.22847 0.29174 0.51788 0.0
H2377 H 0.31176 0.21893 0.47947 0.0
H2378 H 0.29256 0.24166 0.48378 0.0
C2379 C 0.21551 0.3027 0.52058 0.0
C2380 C 0.23922 0.26491 0.50699 0.0
H2381 H 0.26625 0.23944 0.52627 0.0
C2382 C 0.24282 0.26048 0.49075 0.0
C2383 C 0.24782 0.25729 0.51997 0.0
C2384 C 0.24409 0.26115 0.53766 0.0
C2385 C 0.25462 0.24846 0.48714 0.0
C2386 C 0.26317 0.2408 0.50012 0.0
C2387 C 0.25975 0.24541 0.51635 0.0
C2388 C 0.27488 0.22717 0.49723 0.0
C2389 C 0.25742 0.24362 0.46952 0.0
C2390 C 0.2714 0.21155 0.50348 0.0
C2391 C 0.2823 0.19859 0.50107 0.0
C2392 C 0.29704 0.20096 0.49242 0.0
C2393 C 0.30051 0.21665 0.48612 0.0
C2394 C 0.28953 0.22964 0.48853 0.0
H2395 H 0.24766 0.24836 0.46131 0.0
H2396 H 0.26932 0.24869 0.46532 0.0
H2397 H 0.25797 0.23007 0.46829 0.0
H2398 H 0.26017 0.20937 0.51023 0.0
H2399 H 0.27921 0.18672 0.50614 0.0
H2400 H 0.06267 0.31877 0.13026 0.0
H2401 H 0.08348 0.32392 0.10935 0.0
H2402 H 0.08698 0.37428 0.12494 0.0
H2403 H 0.06616 0.36921 0.14607 0.0
H2404 H 0.08161 0.36884 0.08986 0.0
H2405 H 0.13375 0.33274 0.11441 0.0
H2406 H 0.11444 0.32212 0.11423 0.0
H2407 H 0.11703 0.33978 0.12713 0.0
C2408 C 0.06801 0.3309 0.12942 0.0
C2409 C 0.06276 0.34358 0.13986 0.0
C2410 C 0.07996 0.3338 0.11749 0.0
C2411 C 0.08687 0.34944 0.11568 0.0
C2412 C 0.08186 0.36209 0.12621 0.0
H2413 H 0.16571 0.3685 0.04441 0.0
H2414 H 0.14881 0.36981 0.06927 0.0
C2415 C 0.07001 0.35916 0.1383 0.0
C2416 C 0.09851 0.35268 0.10208 0.0
H2417 H 0.13541 0.34074 0.08632 0.0
C2418 C 0.09347 0.36288 0.08917 0.0
C2419 C 0.11401 0.34499 0.10126 0.0
C2420 C 0.12025 0.3344 0.11505 0.0
C2421 C 0.10323 0.36498 0.07514 0.0
C2422 C 0.11837 0.35664 0.07398 0.0
C2423 C 0.12375 0.34705 0.0872 0.0
C2424 C 0.12826 0.35683 0.05872 0.0
C2425 C 0.09717 0.37589 0.06151 0.0
C2426 C 0.12229 0.34911 0.04457 0.0
C2427 C 0.13192 0.34823 0.03044 0.0
C2428 C 0.14773 0.35511 0.03011 0.0
C2429 C 0.15356 0.36316 0.04421 0.0
C2430 C 0.14395 0.36388 0.05844 0.0
H2431 H 0.08744 0.38439 0.0658 0.0
H2432 H 0.10738 0.38318 0.05624 0.0
H2433 H 0.09197 0.36816 0.0516 0.0
H2434 H 0.1103 0.34342 0.04459 0.0
H2435 H 0.12703 0.34194 0.01982 0.0
H2436 H 0.63734 0.06635 0.14786 0.0
H2437 H 0.6323 0.08711 0.12669 0.0
H2438 H 0.68278 0.08398 0.11148 0.0
H2439 H 0.68793 0.0633 0.13252 0.0
H2440 H 0.66947 0.11711 0.11404 0.0
H2441 H 0.63094 0.07482 0.07684 0.0
H2442 H 0.62547 0.07733 0.09805 0.0
H2443 H 0.64444 0.06755 0.09278 0.0
C2444 C 0.64741 0.07022 0.14013 0.0
C2445 C 0.66302 0.06309 0.14183 0.0
C2446 C 0.64449 0.08202 0.12799 0.0
C2447 C 0.65713 0.08694 0.1174 0.0
C2448 C 0.67285 0.08032 0.11949 0.0
H2449 H 0.66555 0.12849 0.02235 0.0
H2450 H 0.66429 0.11187 0.04717 0.0
C2451 C 0.67576 0.06848 0.13153 0.0
C2452 C 0.65399 0.09847 0.10367 0.0
H2453 H 0.63578 0.1011 0.06605 0.0
C2454 C 0.66194 0.11373 0.10364 0.0
C2455 C 0.64427 0.09393 0.09004 0.0
C2456 C 0.63584 0.07749 0.08925 0.0
C2457 C 0.66066 0.12446 0.09021 0.0
C2458 C 0.65113 0.11981 0.07649 0.0
C2459 C 0.64295 0.10468 0.07665 0.0
C2460 C 0.6508 0.12978 0.06127 0.0
C2461 C 0.67003 0.14039 0.09047 0.0
C2462 C 0.64332 0.14528 0.06085 0.0
C2463 C 0.64393 0.15484 0.04657 0.0
C2464 C 0.65213 0.14909 0.03252 0.0
C2465 C 0.65921 0.13337 0.03294 0.0
C2466 C 0.65848 0.12381 0.04712 0.0
H2467 H 0.67863 0.14113 0.10099 0.0
H2468 H 0.6771 0.14192 0.07894 0.0
H2469 H 0.66128 0.15076 0.09137 0.0
H2470 H 0.63717 0.15004 0.0716 0.0
H2471 H 0.63835 0.16688 0.04669 0.0
H2472 H 0.94288 0.69101 0.13121 0.0
H2473 H 0.92229 0.68583 0.11009 0.0
H2474 H 0.92013 0.63501 0.12438 0.0
H2475 H 0.94074 0.6401 0.14567 0.0
H2476 H 0.92544 0.64103 0.08978 0.0
H2477 H 0.87239 0.67587 0.11418 0.0
H2478 H 0.8914 0.68701 0.11416 0.0
H2479 H 0.88921 0.66922 0.12695 0.0
C2480 C 0.93786 0.67877 0.13005 0.0
C2481 C 0.94345 0.66597 0.14015 0.0
C2482 C 0.92604 0.67585 0.118 0.0
C2483 C 0.91958 0.66007 0.11575 0.0
C2484 C 0.9249 0.6473 0.12598 0.0
H2485 H 0.84177 0.64023 0.04358 0.0
H2486 H 0.8584 0.63915 0.06863 0.0
C2487 C 0.93663 0.65025 0.13817 0.0
C2488 C 0.90815 0.6568 0.10197 0.0
H2489 H 0.8712 0.66822 0.08594 0.0
C2490 C 0.91349 0.64679 0.08904 0.0
C2491 C 0.89252 0.66423 0.10107 0.0
C2492 C 0.88593 0.67457 0.11489 0.0
C2493 C 0.90391 0.64462 0.07489 0.0
C2494 C 0.88863 0.6527 0.07365 0.0
C2495 C 0.88296 0.6621 0.08689 0.0
C2496 C 0.87888 0.65243 0.05829 0.0
C2497 C 0.91029 0.6339 0.06126 0.0
C2498 C 0.8849 0.66023 0.04421 0.0
C2499 C 0.87542 0.66097 0.02998 0.0
C2500 C 0.85971 0.65386 0.02947 0.0
C2501 C 0.85384 0.64574 0.04351 0.0
C2502 C 0.86329 0.64516 0.05785 0.0
H2503 H 0.92008 0.6255 0.0656 0.0
H2504 H 0.90025 0.62651 0.05581 0.0
H2505 H 0.91551 0.64177 0.05147 0.0
H2506 H 0.89681 0.66609 0.04436 0.0
H2507 H 0.88034 0.66733 0.01941 0.0
H2508 H 0.35835 0.88222 0.01867 0.0
H2509 H 0.35896 0.89981 0.04289 0.0
H2510 H 0.35908 0.85694 0.07391 0.0
H2511 H 0.35964 0.83937 0.0496 0.0
H2512 H 0.33718 0.90367 0.06408 0.0
H2513 H 0.39173 0.88266 0.09815 0.0
H2514 H 0.3877 0.87626 0.0774 0.0
H2515 H 0.37795 0.866 0.09438 0.0
C2516 C 0.35892 0.87658 0.03068 0.0
C2517 C 0.35907 0.85945 0.03227 0.0
C2518 C 0.3592 0.88663 0.04454 0.0
C2519 C 0.35923 0.87981 0.06037 0.0
C2520 C 0.35959 0.86263 0.06195 0.0
H2521 H 0.31956 0.93807 0.14095 0.0
H2522 H 0.32399 0.91768 0.11942 0.0
C2523 C 0.3598 0.85255 0.04802 0.0
C2524 C 0.35743 0.89069 0.075 0.0
H2525 H 0.37243 0.89882 0.11328 0.0
C2526 C 0.34504 0.90266 0.07475 0.0
C2527 C 0.36772 0.88962 0.08895 0.0
C2528 C 0.38212 0.87806 0.08967 0.0
C2529 C 0.34263 0.91349 0.08789 0.0
C2530 C 0.3523 0.91182 0.10222 0.0
C2531 C 0.36479 0.89996 0.10247 0.0
C2532 C 0.34995 0.92264 0.1168 0.0
C2533 C 0.33008 0.92695 0.08593 0.0
C2534 C 0.36324 0.93136 0.12346 0.0
C2535 C 0.36081 0.94259 0.13622 0.0
C2536 C 0.34499 0.9455 0.14239 0.0
C2537 C 0.33184 0.93624 0.13626 0.0
C2538 C 0.33435 0.9247 0.12383 0.0
H2539 H 0.32788 0.92983 0.07281 0.0
H2540 H 0.31826 0.92288 0.09126 0.0
H2541 H 0.334 0.93838 0.0922 0.0
H2542 H 0.37542 0.92992 0.1184 0.0
H2543 H 0.37117 0.94957 0.14069 0.0
H2544 H 0.06445 0.69105 0.87873 0.0
H2545 H 0.08536 0.68588 0.89951 0.0
H2546 H 0.0891 0.63567 0.88349 0.0
H2547 H 0.06816 0.64076 0.86253 0.0
H2548 H 0.08392 0.64035 0.91831 0.0
H2549 H 0.13552 0.6778 0.89471 0.0
H2550 H 0.11617 0.68829 0.89524 0.0
H2551 H 0.11883 0.671 0.88185 0.0
C2552 C 0.06988 0.67896 0.87944 0.0
C2553 C 0.06464 0.66632 0.86894 0.0
C2554 C 0.08189 0.67605 0.89129 0.0
C2555 C 0.0889 0.66043 0.89296 0.0
C2556 C 0.08392 0.64784 0.88234 0.0
H2557 H 0.16775 0.64173 0.96439 0.0
H2558 H 0.15111 0.64045 0.93934 0.0
C2559 C 0.07199 0.65078 0.87034 0.0
C2560 C 0.10055 0.65711 0.90653 0.0
H2561 H 0.13714 0.66942 0.92273 0.0
C2562 C 0.09566 0.64652 0.91918 0.0
C2563 C 0.11591 0.66507 0.90759 0.0
C2564 C 0.12204 0.67608 0.89406 0.0
C2565 C 0.10539 0.64429 0.9332 0.0
C2566 C 0.12036 0.6529 0.93463 0.0
C2567 C 0.12561 0.66289 0.92165 0.0
C2568 C 0.13012 0.65264 0.94997 0.0
C2569 C 0.09948 0.63294 0.94654 0.0
C2570 C 0.12382 0.65989 0.96422 0.0
C2571 C 0.13329 0.66075 0.97845 0.0
C2572 C 0.14928 0.65431 0.97879 0.0
C2573 C 0.15545 0.64671 0.96458 0.0
C2574 C 0.146 0.64602 0.95025 0.0
H2575 H 0.09002 0.62428 0.94197 0.0
H2576 H 0.10982 0.62582 0.95177 0.0
H2577 H 0.09397 0.64032 0.95655 0.0
H2578 H 0.11168 0.66526 0.96421 0.0
H2579 H 0.12814 0.66669 0.98914 0.0
H2580 H 0.32092 0.06455 0.87693 0.0
H2581 H 0.32626 0.08566 0.89748 0.0
H2582 H 0.37659 0.08853 0.88172 0.0
H2583 H 0.37134 0.06736 0.861 0.0
H2584 H 0.37189 0.08398 0.91639 0.0
H2585 H 0.33479 0.13558 0.89233 0.0
H2586 H 0.32405 0.11637 0.89314 0.0
H2587 H 0.34132 0.11861 0.87967 0.0
C2588 C 0.33308 0.06982 0.87764 0.0
C2589 C 0.3457 0.06427 0.8673 0.0
C2590 C 0.33609 0.08196 0.88936 0.0
C2591 C 0.35178 0.08879 0.89103 0.0
C2592 C 0.36437 0.08349 0.88056 0.0
H2593 H 0.37002 0.16821 0.96211 0.0
H2594 H 0.37148 0.15152 0.93709 0.0
C2595 C 0.36133 0.07143 0.86871 0.0
C2596 C 0.35517 0.10056 0.90449 0.0
H2597 H 0.34296 0.13731 0.92045 0.0
C2598 C 0.36576 0.09575 0.91716 0.0
C2599 C 0.34728 0.11597 0.90543 0.0
C2600 C 0.33633 0.12205 0.89185 0.0
C2601 C 0.36801 0.10558 0.93113 0.0
C2602 C 0.35941 0.12056 0.93247 0.0
C2603 C 0.34947 0.12576 0.91944 0.0
C2604 C 0.35959 0.13038 0.94779 0.0
C2605 C 0.37934 0.09973 0.94449 0.0
C2606 C 0.35245 0.12402 0.96206 0.0
C2607 C 0.35149 0.13351 0.97627 0.0
C2608 C 0.35771 0.1496 0.97656 0.0
C2609 C 0.36521 0.15584 0.96234 0.0
C2610 C 0.36601 0.14635 0.94802 0.0
H2611 H 0.38811 0.09037 0.93991 0.0
H2612 H 0.38636 0.11012 0.9498 0.0
H2613 H 0.37198 0.0941 0.95444 0.0
H2614 H 0.34722 0.11181 0.96208 0.0
H2615 H 0.34563 0.1283 0.98698 0.0
H2616 H 0.83884 0.35894 0.96211 0.0
H2617 H 0.85609 0.35747 0.93756 0.0
H2618 H 0.89914 0.35424 0.96808 0.0
H2619 H 0.88184 0.35455 0.99253 0.0
H2620 H 0.87906 0.3739 0.92377 0.0
H2621 H 0.9061 0.31452 0.94165 0.0
H2622 H 0.88951 0.32368 0.95294 0.0
H2623 H 0.91041 0.32981 0.95678 0.0
C2624 C 0.852 0.35803 0.96353 0.0
C2625 C 0.859 0.35665 0.9792 0.0
C2626 C 0.86187 0.35716 0.9495 0.0
C2627 C 0.87894 0.35518 0.95088 0.0
C2628 C 0.88599 0.35504 0.9666 0.0
H2629 H 0.94864 0.36867 0.87067 0.0
H2630 H 0.92869 0.37282 0.89266 0.0
C2631 C 0.87611 0.35541 0.98059 0.0
C2632 C 0.8893 0.35285 0.93597 0.0
H2633 H 0.91935 0.32863 0.91982 0.0
C2634 C 0.88777 0.36391 0.92285 0.0
C2635 C 0.9004 0.33957 0.93446 0.0
C2636 C 0.90156 0.32613 0.94713 0.0
C2637 C 0.89722 0.36227 0.9085 0.0
C2638 C 0.90911 0.34963 0.90748 0.0
C2639 C 0.91042 0.33845 0.92052 0.0
C2640 C 0.92036 0.34758 0.89316 0.0
C2641 C 0.89396 0.37387 0.89448 0.0
C2642 C 0.92275 0.33197 0.88622 0.0
C2643 C 0.93461 0.32949 0.87409 0.0
C2644 C 0.94407 0.34264 0.86831 0.0
C2645 C 0.94129 0.35837 0.87472 0.0
C2646 C 0.92977 0.36077 0.88723 0.0
H2647 H 0.88114 0.37843 0.89475 0.0
H2648 H 0.90215 0.38466 0.89559 0.0
H2649 H 0.89616 0.36791 0.88244 0.0
H2650 H 0.91569 0.32156 0.89047 0.0
H2651 H 0.93651 0.31722 0.86937 0.0
H2652 H 0.63734 0.84335 0.96212 0.0
H2653 H 0.63624 0.86018 0.9372 0.0
H2654 H 0.66447 0.8978 0.96124 0.0
H2655 H 0.66567 0.88118 0.98608 0.0
H2656 H 0.63584 0.90905 0.9426 0.0
H2657 H 0.6777 0.86822 0.90739 0.0
H2658 H 0.66031 0.8589 0.91728 0.0
H2659 H 0.6764 0.86757 0.92947 0.0
C2660 C 0.64318 0.85527 0.96215 0.0
C2661 C 0.65167 0.86086 0.97609 0.0
C2662 C 0.64261 0.86483 0.94787 0.0
C2663 C 0.65043 0.88015 0.94733 0.0
C2664 C 0.65841 0.88598 0.96139 0.0
H2665 H 0.68763 0.94597 0.87543 0.0
H2666 H 0.6825 0.92544 0.89662 0.0
C2667 C 0.65909 0.87643 0.97557 0.0
C2668 C 0.6508 0.89007 0.93209 0.0
H2669 H 0.66876 0.8923 0.89431 0.0
C2670 C 0.64284 0.90532 0.93194 0.0
C2671 C 0.6601 0.88521 0.91829 0.0
C2672 C 0.66923 0.86914 0.91801 0.0
C2673 C 0.64416 0.91597 0.91847 0.0
C2674 C 0.65365 0.91121 0.90476 0.0
C2675 C 0.66139 0.89584 0.90479 0.0
C2676 C 0.65678 0.9226 0.89092 0.0
C2677 C 0.63597 0.93252 0.91924 0.0
C2678 C 0.6441 0.92753 0.88039 0.0
C2679 C 0.64701 0.93924 0.86816 0.0
C2680 C 0.66266 0.94627 0.86631 0.0
C2681 C 0.67543 0.94086 0.87654 0.0
C2682 C 0.67253 0.9291 0.88866 0.0
H2683 H 0.63119 0.93532 0.93168 0.0
H2684 H 0.64468 0.94232 0.9156 0.0
H2685 H 0.62554 0.93279 0.91052 0.0
H2686 H 0.63189 0.92253 0.88182 0.0
H2687 H 0.63691 0.94313 0.8605 0.0
H2688 H 0.13266 0.06324 0.32258 0.0
H2689 H 0.11193 0.08425 0.32765 0.0
H2690 H 0.12651 0.0867 0.37834 0.0
H2691 H 0.14741 0.06565 0.37337 0.0
H2692 H 0.09189 0.08205 0.3727 0.0
H2693 H 0.11686 0.13414 0.33686 0.0
H2694 H 0.1164 0.11503 0.32593 0.0
H2695 H 0.12938 0.11715 0.34358 0.0
C2696 C 0.13165 0.0684 0.33477 0.0
C2697 C 0.14172 0.06277 0.34757 0.0
C2698 C 0.11983 0.08047 0.33762 0.0
C2699 C 0.11778 0.08715 0.35333 0.0
C2700 C 0.12797 0.08177 0.3661 0.0
H2701 H 0.04629 0.16624 0.37128 0.0
H2702 H 0.07124 0.14949 0.37298 0.0
C2703 C 0.13993 0.06978 0.36322 0.0
C2704 C 0.10422 0.09887 0.35653 0.0
H2705 H 0.08858 0.13579 0.34443 0.0
C2706 C 0.09127 0.0939 0.36671 0.0
C2707 C 0.10348 0.11438 0.34882 0.0
C2708 C 0.11733 0.12061 0.33829 0.0
C2709 C 0.07725 0.1037 0.36874 0.0
C2710 C 0.07614 0.11881 0.36034 0.0
C2711 C 0.08942 0.12415 0.35079 0.0
C2712 C 0.06084 0.12865 0.36032 0.0
C2713 C 0.06358 0.09769 0.37964 0.0
C2714 C 0.04675 0.12248 0.35266 0.0
C2715 C 0.03258 0.13202 0.35156 0.0
C2716 C 0.03214 0.14795 0.35816 0.0
C2717 C 0.04618 0.15399 0.36617 0.0
C2718 C 0.06046 0.14447 0.3671 0.0
H2719 H 0.0679 0.08813 0.38831 0.0
H2720 H 0.05818 0.10797 0.38674 0.0
H2721 H 0.05378 0.09228 0.37193 0.0
H2722 H 0.04685 0.1104 0.34716 0.0
H2723 H 0.02202 0.12697 0.34531 0.0
H2724 H 0.95459 0.1227 0.32164 0.0
H2725 H 0.93429 0.1013 0.32662 0.0
H2726 H 0.9189 0.12586 0.37077 0.0
H2727 H 0.93931 0.14745 0.36592 0.0
H2728 H 0.93352 0.08149 0.3568 0.0
H2729 H 0.87542 0.11522 0.34482 0.0
H2730 H 0.89485 0.12199 0.33665 0.0
H2731 H 0.89036 0.12473 0.35798 0.0
C2732 C 0.94678 0.12372 0.33232 0.0
C2733 C 0.9486 0.13682 0.34339 0.0
C2734 C 0.93519 0.11143 0.33516 0.0
C2735 C 0.92505 0.11202 0.34901 0.0
C2736 C 0.9265 0.12527 0.3599 0.0
H2737 H 0.84844 0.04067 0.37579 0.0
H2738 H 0.8669 0.06443 0.37639 0.0
C2739 C 0.93819 0.13757 0.35712 0.0
C2740 C 0.91365 0.09823 0.35236 0.0
H2741 H 0.87322 0.08736 0.35205 0.0
C2742 C 0.92033 0.08279 0.35587 0.0
C2743 C 0.89645 0.10001 0.35132 0.0
C2744 C 0.88873 0.11633 0.34741 0.0
C2745 C 0.9103 0.06898 0.35807 0.0
C2746 C 0.89311 0.07056 0.3563 0.0
C2747 C 0.88638 0.08614 0.35335 0.0
C2748 C 0.88209 0.05602 0.35636 0.0
C2749 C 0.91823 0.05281 0.36227 0.0
C2750 C 0.88439 0.04348 0.34482 0.0
C2751 C 0.87396 0.02992 0.34448 0.0
C2752 C 0.86082 0.0286 0.35559 0.0
C2753 C 0.85847 0.04123 0.36712 0.0
C2754 C 0.86898 0.05484 0.36746 0.0
H2755 H 0.93027 0.05463 0.36836 0.0
H2756 H 0.91029 0.04537 0.37044 0.0
H2757 H 0.9204 0.04578 0.35083 0.0
H2758 H 0.89416 0.04429 0.33587 0.0
H2759 H 0.87611 0.02054 0.33534 0.0
H2760 H 0.86096 0.94136 0.37156 0.0
H2761 H 0.88237 0.92083 0.37652 0.0
H2762 H 0.89709 0.92381 0.32589 0.0
H2763 H 0.87583 0.94429 0.32081 0.0
H2764 H 0.89496 0.89059 0.33975 0.0
H2765 H 0.9322 0.93402 0.37699 0.0
H2766 H 0.91105 0.93142 0.38269 0.0
H2767 H 0.91607 0.94087 0.36349 0.0
C2768 C 0.86862 0.9375 0.36143 0.0
C2769 C 0.86674 0.94454 0.3458 0.0
C2770 C 0.8809 0.92583 0.36431 0.0
C2771 C 0.89143 0.92095 0.35161 0.0
C2772 C 0.88912 0.92744 0.33587 0.0
H2773 H 0.98681 0.8798 0.34282 0.0
H2774 H 0.96187 0.89629 0.34375 0.0
C2775 C 0.87696 0.93917 0.333 0.0
C2776 C 0.90535 0.90965 0.35472 0.0
H2777 H 0.94324 0.90778 0.37246 0.0
C2778 C 0.90543 0.89424 0.34707 0.0
C2779 C 0.91906 0.91453 0.36415 0.0
C2780 C 0.91977 0.93114 0.37225 0.0
C2781 C 0.91899 0.88367 0.34839 0.0
C2782 C 0.93278 0.88866 0.35764 0.0
C2783 C 0.93258 0.90395 0.3655 0.0
C2784 C 0.94806 0.87879 0.35807 0.0
C2785 C 0.91877 0.86753 0.33938 0.0
C2786 C 0.94868 0.86359 0.36612 0.0
C2787 C 0.96302 0.85412 0.36571 0.0
C2788 C 0.97694 0.85966 0.35714 0.0
C2789 C 0.97632 0.87509 0.34945 0.0
C2790 C 0.96207 0.88457 0.34999 0.0
H2791 H 0.90811 0.86647 0.33099 0.0
H2792 H 0.9302 0.866 0.33216 0.0
H2793 H 0.91816 0.85736 0.34838 0.0
H2794 H 0.93803 0.85899 0.37256 0.0
H2795 H 0.96306 0.8423 0.37175 0.0
H2796 H 0.16498 0.96363 0.37307 0.0
H2797 H 0.14748 0.93915 0.37329 0.0
H2798 H 0.11206 0.96411 0.34313 0.0
H2799 H 0.1294 0.98853 0.34275 0.0
H2800 H 0.09939 0.94554 0.37234 0.0
H2801 H 0.14001 0.90985 0.33065 0.0
H2802 H 0.14923 0.91987 0.34802 0.0
H2803 H 0.14077 0.93195 0.33175 0.0
C2804 C 0.1534 0.96396 0.3666 0.0
C2805 C 0.14864 0.97804 0.35783 0.0
C2806 C 0.14346 0.94994 0.36668 0.0
C2807 C 0.12855 0.9498 0.35811 0.0
C2808 C 0.12354 0.96397 0.34979 0.0
H2809 H 0.06079 0.87947 0.3207 0.0
H2810 H 0.08144 0.90061 0.32573 0.0
C2811 C 0.1335 0.97791 0.34957 0.0
C2812 C 0.11825 0.93482 0.35738 0.0
H2813 H 0.1155 0.89722 0.33911 0.0
C2814 C 0.10297 0.93488 0.36526 0.0
C2815 C 0.12293 0.92103 0.34798 0.0
C2816 C 0.13908 0.92056 0.339 0.0
C2817 C 0.09214 0.92156 0.36381 0.0
C2818 C 0.09672 0.90784 0.35425 0.0
C2819 C 0.11209 0.9077 0.34653 0.0
C2820 C 0.08519 0.89413 0.35114 0.0
C2821 C 0.0756 0.92245 0.37202 0.0
C2822 C 0.08073 0.88323 0.36368 0.0
C2823 C 0.06898 0.87101 0.36081 0.0
C2824 C 0.06143 0.86959 0.34537 0.0
C2825 C 0.06632 0.88025 0.33274 0.0
C2826 C 0.07813 0.89234 0.33558 0.0
H2827 H 0.07308 0.93479 0.3772 0.0
H2828 H 0.06576 0.91932 0.36317 0.0
H2829 H 0.07509 0.91337 0.38214 0.0
H2830 H 0.08614 0.88434 0.37574 0.0
H2831 H 0.06548 0.86302 0.37081 0.0
H2832 H 0.02175 0.87986 0.66277 0.0
H2833 H 0.04679 0.89616 0.66138 0.0
H2834 H 0.07147 0.8565 0.63673 0.0
H2835 H 0.0463 0.84 0.63797 0.0
H2836 H 0.08823 0.87032 0.66541 0.0
H2837 H 0.06911 0.9178 0.62068 0.0
H2838 H 0.05454 0.91402 0.63676 0.0
H2839 H 0.0591 0.8981 0.62224 0.0
C2840 C 0.03242 0.87462 0.65688 0.0
C2841 C 0.032 0.8586 0.65047 0.0
C2842 C 0.04672 0.884 0.65603 0.0
C2843 C 0.06094 0.8776 0.64883 0.0
C2844 C 0.06058 0.8617 0.64225 0.0
H2845 H 0.14799 0.94041 0.63786 0.0
H2846 H 0.1272 0.91938 0.63232 0.0
C2847 C 0.04618 0.85232 0.64293 0.0
C2848 C 0.07633 0.8873 0.64911 0.0
H2849 H 0.09264 0.92391 0.63701 0.0
C2850 C 0.08931 0.88193 0.65901 0.0
C2851 C 0.07777 0.90236 0.64065 0.0
C2852 C 0.06446 0.9084 0.62935 0.0
C2853 C 0.10338 0.89162 0.66132 0.0
C2854 C 0.10441 0.9071 0.65359 0.0
C2855 C 0.09179 0.91209 0.64303 0.0
C2856 C 0.11792 0.91878 0.65714 0.0
C2857 C 0.1169 0.88534 0.67222 0.0
C2858 C 0.11962 0.92538 0.67293 0.0
C2859 C 0.13138 0.93743 0.6761 0.0
C2860 C 0.14173 0.94314 0.66354 0.0
C2861 C 0.14028 0.93622 0.64782 0.0
C2862 C 0.12839 0.92424 0.64462 0.0
H2863 H 0.11638 0.87179 0.67356 0.0
H2864 H 0.12912 0.88882 0.66733 0.0
H2865 H 0.11558 0.89084 0.68458 0.0
H2866 H 0.11151 0.92155 0.68271 0.0
H2867 H 0.13213 0.94252 0.68833 0.0
H2868 H 0.16191 0.03935 0.63422 0.0
H2869 H 0.14508 0.06434 0.63419 0.0
H2870 H 0.11759 0.04595 0.67535 0.0
H2871 H 0.13412 0.02108 0.67548 0.0
H2872 H 0.10832 0.06713 0.63273 0.0
H2873 H 0.13576 0.09212 0.68972 0.0
H2874 H 0.1458 0.07672 0.67737 0.0
H2875 H 0.12938 0.07105 0.6909 0.0
C2876 C 0.15222 0.04059 0.6432 0.0
C2877 C 0.14945 0.0282 0.6549 0.0
C2878 C 0.14263 0.05488 0.64317 0.0
C2879 C 0.13026 0.05708 0.65492 0.0
C2880 C 0.12723 0.0446 0.66632 0.0
H2881 H 0.05696 0.12358 0.6877 0.0
H2882 H 0.07781 0.10262 0.68336 0.0
C2883 C 0.13669 0.03033 0.66632 0.0
C2884 C 0.12044 0.07238 0.65552 0.0
H2885 H 0.11111 0.10463 0.68051 0.0
C2886 C 0.10906 0.0755 0.64302 0.0
C2887 C 0.12145 0.08323 0.66899 0.0
C2888 C 0.13384 0.08075 0.68247 0.0
C2889 C 0.09806 0.08875 0.64406 0.0
C2890 C 0.09874 0.09936 0.65781 0.0
C2891 C 0.11056 0.09652 0.66999 0.0
C2892 C 0.08656 0.11269 0.66045 0.0
C2893 C 0.08529 0.09079 0.63086 0.0
C2894 C 0.08473 0.12559 0.64919 0.0
C2895 C 0.07271 0.13764 0.65162 0.0
C2896 C 0.0624 0.13707 0.66544 0.0
C2897 C 0.06465 0.12441 0.67692 0.0
C2898 C 0.07659 0.11239 0.67446 0.0
H2899 H 0.08408 0.07961 0.62318 0.0
H2900 H 0.07314 0.09367 0.63627 0.0
H2901 H 0.08885 0.1011 0.62274 0.0
H2902 H 0.09253 0.12631 0.63848 0.0
H2903 H 0.07135 0.14725 0.64258 0.0
H2904 H 0.96464 0.16515 0.63651 0.0
H2905 H 0.93948 0.14865 0.63557 0.0
H2906 H 0.96309 0.11084 0.66387 0.0
H2907 H 0.98816 0.12712 0.66491 0.0
H2908 H 0.94407 0.09973 0.63535 0.0
H2909 H 0.90984 0.14128 0.67733 0.0
H2910 H 0.91978 0.15036 0.65985 0.0
H2911 H 0.93192 0.14154 0.67589 0.0
C2912 C 0.96453 0.15325 0.64239 0.0
C2913 C 0.97841 0.14751 0.65087 0.0
C2914 C 0.95012 0.14389 0.64191 0.0
C2915 C 0.94938 0.12861 0.64981 0.0
C2916 C 0.96338 0.12262 0.65774 0.0
H2917 H 0.87662 0.06397 0.68764 0.0
H2918 H 0.89808 0.0842 0.68239 0.0
C2919 C 0.97771 0.13198 0.65834 0.0
C2920 C 0.93398 0.11893 0.65033 0.0
H2921 H 0.89631 0.11735 0.6686 0.0
C2922 C 0.93353 0.10366 0.64242 0.0
C2923 C 0.92033 0.12403 0.65973 0.0
C2924 C 0.92039 0.14014 0.6688 0.0
C2925 C 0.91989 0.09322 0.64389 0.0
C2926 C 0.90633 0.09823 0.65347 0.0
C2927 C 0.90667 0.11362 0.66116 0.0
C2928 C 0.89231 0.08707 0.6567 0.0
C2929 C 0.92034 0.07663 0.63574 0.0
C2930 C 0.88165 0.08229 0.64408 0.0
C2931 C 0.86926 0.07076 0.64706 0.0
C2932 C 0.86739 0.06376 0.66271 0.0
C2933 C 0.87774 0.06905 0.67544 0.0
C2934 C 0.89002 0.08064 0.67247 0.0
H2935 H 0.93271 0.07361 0.63091 0.0
H2936 H 0.91657 0.06692 0.64449 0.0
H2937 H 0.91157 0.07649 0.62535 0.0
H2938 H 0.8831 0.08725 0.63185 0.0
H2939 H 0.8615 0.06696 0.63699 0.0
H2940 H 0.93907 0.86105 0.64163 0.0
H2941 H 0.91909 0.88306 0.6368 0.0
H2942 H 0.9345 0.90694 0.6813 0.0
H2943 H 0.95437 0.88514 0.68625 0.0
H2944 H 0.8927 0.89593 0.65879 0.0
H2945 H 0.94082 0.94161 0.64376 0.0
H2946 H 0.94446 0.91978 0.64316 0.0
H2947 H 0.94417 0.93042 0.66243 0.0
C2948 C 0.93809 0.87091 0.65046 0.0
C2949 C 0.9484 0.87137 0.66428 0.0
C2950 C 0.92668 0.88347 0.64767 0.0
C2951 C 0.92551 0.89673 0.65857 0.0
C2952 C 0.93539 0.89693 0.67262 0.0
H2953 H 0.87604 0.98746 0.67339 0.0
H2954 H 0.89369 0.96339 0.67276 0.0
C2955 C 0.9467 0.8844 0.67545 0.0
C2956 C 0.91427 0.91065 0.65525 0.0
H2957 H 0.91401 0.95195 0.64847 0.0
C2958 C 0.89729 0.90815 0.65632 0.0
C2959 C 0.92034 0.92656 0.65201 0.0
C2960 C 0.93844 0.92981 0.65012 0.0
C2961 C 0.88623 0.92134 0.65501 0.0
C2962 C 0.89235 0.93736 0.65224 0.0
C2963 C 0.90932 0.9397 0.65063 0.0
C2964 C 0.88153 0.95204 0.65212 0.0
C2965 C 0.86818 0.91812 0.65737 0.0
C2966 C 0.86893 0.95386 0.64053 0.0
C2967 C 0.85871 0.96768 0.64087 0.0
C2968 C 0.86098 0.97999 0.65275 0.0
C2969 C 0.87387 0.97825 0.66408 0.0
C2970 C 0.88401 0.96447 0.66374 0.0
H2971 H 0.86586 0.90589 0.66291 0.0
H2972 H 0.86258 0.92764 0.66532 0.0
H2973 H 0.86195 0.91852 0.6453 0.0
H2974 H 0.867 0.9446 0.63122 0.0
H2975 H 0.84897 0.96865 0.63192 0.0
H2976 H 0.33126 0.02278 0.13445 0.0
H2977 H 0.33133 0.04719 0.11718 0.0
H2978 H 0.37464 0.06476 0.14177 0.0
H2979 H 0.37473 0.04026 0.15918 0.0
H2980 H 0.32972 0.0806 0.12894 0.0
H2981 H 0.38572 0.06832 0.09195 0.0
H2982 H 0.3751 0.05234 0.103 0.0
H2983 H 0.38763 0.06678 0.11386 0.0
C2984 C 0.34091 0.03173 0.13614 0.0
C2985 C 0.35301 0.0295 0.14823 0.0
C2986 C 0.3409 0.04571 0.12626 0.0
C2987 C 0.35303 0.05774 0.12811 0.0
C2988 C 0.36527 0.05552 0.14 0.0
H2989 H 0.3655 0.1474 0.06934 0.0
H2990 H 0.36901 0.12639 0.09058 0.0
C2991 C 0.36527 0.04153 0.14997 0.0
C2992 C 0.35238 0.07281 0.11793 0.0
H2993 H 0.37148 0.09282 0.0865 0.0
C2994 C 0.3389 0.08333 0.11972 0.0
C2995 C 0.36445 0.07643 0.10603 0.0
C2996 C 0.37902 0.06537 0.10343 0.0
C2997 C 0.33701 0.09724 0.10976 0.0
C2998 C 0.34872 0.10052 0.09739 0.0
C2999 C 0.36249 0.09029 0.09595 0.0
C3000 C 0.34631 0.1138 0.08514 0.0
C3001 C 0.32246 0.10829 0.1126 0.0
C3002 C 0.33244 0.11369 0.07498 0.0
C3003 C 0.33038 0.12566 0.06292 0.0
C3004 C 0.34223 0.13797 0.06061 0.0
C3005 C 0.35609 0.13816 0.07085 0.0
C3006 C 0.35815 0.12613 0.08297 0.0
H3007 H 0.31789 0.1073 0.12539 0.0
H3008 H 0.32556 0.1213 0.11007 0.0
H3009 H 0.31235 0.10459 0.1043 0.0
H3010 H 0.32333 0.1041 0.07614 0.0
H3011 H 0.31962 0.12505 0.05519 0.0
H3012 H 0.37533 0.96746 0.84658 0.0
H3013 H 0.37645 0.94321 0.86435 0.0
H3014 H 0.33787 0.96334 0.89431 0.0
H3015 H 0.33686 0.98758 0.87694 0.0
H3016 H 0.36314 0.95083 0.91262 0.0
H3017 H 0.34325 0.90575 0.86549 0.0
H3018 H 0.36101 0.91773 0.86037 0.0
H3019 H 0.34145 0.92759 0.8625 0.0
C3020 C 0.36713 0.96674 0.85699 0.0
C3021 C 0.35597 0.97948 0.86027 0.0
C3022 C 0.3677 0.9528 0.86706 0.0
C3023 C 0.35705 0.95132 0.88052 0.0
C3024 C 0.34616 0.96416 0.88396 0.0
H3025 H 0.32377 0.88596 0.95465 0.0
H3026 H 0.32883 0.90734 0.93437 0.0
C3027 C 0.3456 0.97804 0.87398 0.0
C3028 C 0.35715 0.93656 0.89124 0.0
H3029 H 0.34854 0.89551 0.89199 0.0
C3030 C 0.36007 0.93872 0.90806 0.0
C3031 C 0.35318 0.92073 0.88531 0.0
C3032 C 0.34941 0.91773 0.86746 0.0
C3033 C 0.35878 0.92561 0.91913 0.0
C3034 C 0.3543 0.90993 0.91328 0.0
C3035 C 0.35196 0.90757 0.89641 0.0
C3036 C 0.35086 0.89623 0.92473 0.0
C3037 C 0.36196 0.92867 0.93708 0.0
C3038 C 0.36134 0.88262 0.92573 0.0
C3039 C 0.3585 0.87031 0.9374 0.0
C3040 C 0.34504 0.87136 0.94815 0.0
C3041 C 0.33427 0.88474 0.94663 0.0
C3042 C 0.33717 0.89703 0.93507 0.0
H3043 H 0.36886 0.94024 0.9391 0.0
H3044 H 0.35008 0.92963 0.94363 0.0
H3045 H 0.36895 0.91836 0.94256 0.0
H3046 H 0.37194 0.88175 0.91779 0.0
H3047 H 0.36702 0.86017 0.93824 0.0
H3048 H 0.04291 0.36694 0.84278 0.0
H3049 H 0.06772 0.36758 0.85977 0.0
H3050 H 0.04345 0.33836 0.89646 0.0
H3051 H 0.01871 0.33755 0.87963 0.0
H3052 H 0.06211 0.36798 0.90795 0.0
H3053 H 0.09726 0.32523 0.86795 0.0
H3054 H 0.08702 0.34231 0.85843 0.0
H3055 H 0.07516 0.32622 0.86755 0.0
C3056 C 0.04281 0.36075 0.85452 0.0
C3057 C 0.02882 0.35213 0.85979 0.0
C3058 C 0.05702 0.36108 0.86417 0.0
C3059 C 0.05744 0.3529 0.87929 0.0
C3060 C 0.04338 0.34471 0.8848 0.0
H3061 H 0.12844 0.31712 0.94693 0.0
H3062 H 0.10725 0.32172 0.92628 0.0
C3063 C 0.02925 0.34424 0.87513 0.0
C3064 C 0.07257 0.3525 0.88936 0.0
H3065 H 0.11019 0.33431 0.89207 0.0
C3066 C 0.07272 0.36081 0.90441 0.0
C3067 C 0.0863 0.34299 0.88474 0.0
C3068 C 0.08654 0.33357 0.86884 0.0
C3069 C 0.08618 0.35966 0.91509 0.0
C3070 C 0.09982 0.34996 0.91058 0.0
C3071 C 0.09976 0.34184 0.89542 0.0
C3072 C 0.11364 0.34709 0.92205 0.0
C3073 C 0.08549 0.3683 0.93142 0.0
C3074 C 0.12453 0.35974 0.92623 0.0
C3075 C 0.13677 0.35712 0.93798 0.0
C3076 C 0.13825 0.34183 0.94582 0.0
C3077 C 0.12762 0.32906 0.94118 0.0
C3078 C 0.1155 0.33165 0.92936 0.0
H3079 H 0.07318 0.3735 0.93398 0.0
H3080 H 0.08879 0.35972 0.94145 0.0
H3081 H 0.09453 0.37847 0.93152 0.0
H3082 H 0.12336 0.37171 0.92061 0.0
H3083 H 0.14474 0.36721 0.94129 0.0
H3084 H 0.68733 0.1239 0.95431 0.0
H3085 H 0.68229 0.10267 0.93384 0.0
H3086 H 0.63816 0.12741 0.91874 0.0
H3087 H 0.64308 0.14883 0.93932 0.0
H3088 H 0.65193 0.08294 0.93294 0.0
H3089 H 0.66425 0.1171 0.87514 0.0
H3090 H 0.67248 0.12364 0.89463 0.0
H3091 H 0.65117 0.12654 0.89021 0.0
C3092 C 0.67663 0.12499 0.94653 0.0
C3093 C 0.6656 0.13809 0.94847 0.0
C3094 C 0.67376 0.1128 0.93485 0.0
C3095 C 0.6599 0.1135 0.92474 0.0
C3096 C 0.64903 0.12674 0.92632 0.0
H3097 H 0.63343 0.04265 0.84754 0.0
H3098 H 0.63279 0.06635 0.86608 0.0
C3099 C 0.65184 0.13895 0.9381 0.0
C3100 C 0.65654 0.09982 0.91322 0.0
H3101 H 0.65711 0.08924 0.87271 0.0
C3102 C 0.65294 0.08433 0.91976 0.0
C3103 C 0.65769 0.10172 0.89604 0.0
C3104 C 0.66168 0.1181 0.88847 0.0
C3105 C 0.65079 0.0706 0.90962 0.0
C3106 C 0.6527 0.0723 0.89246 0.0
C3107 C 0.65571 0.08793 0.88586 0.0
C3108 C 0.65271 0.05784 0.88134 0.0
C3109 C 0.6465 0.05438 0.91741 0.0
C3110 C 0.66421 0.04527 0.88365 0.0
C3111 C 0.66457 0.03175 0.87317 0.0
C3112 C 0.65353 0.0305 0.85998 0.0
C3113 C 0.64205 0.04316 0.85761 0.0
C3114 C 0.64169 0.05673 0.86816 0.0
H3115 H 0.64033 0.05612 0.92942 0.0
H3116 H 0.63838 0.04701 0.90936 0.0
H3117 H 0.65791 0.04732 0.91961 0.0
H3118 H 0.6731 0.04602 0.89347 0.0
H3119 H 0.67368 0.02234 0.87534 0.0
H3120 H 0.96601 0.64008 0.84297 0.0
H3121 H 0.94104 0.6393 0.85975 0.0
H3122 H 0.96519 0.6677 0.89715 0.0
H3123 H 0.99007 0.66862 0.88055 0.0
H3124 H 0.94597 0.63852 0.90819 0.0
H3125 H 0.91195 0.6818 0.86782 0.0
H3126 H 0.92194 0.66453 0.85838 0.0
H3127 H 0.93403 0.6804 0.86759 0.0
C3128 C 0.96606 0.64602 0.85484 0.0
C3129 C 0.98004 0.65448 0.86037 0.0
C3130 C 0.95176 0.64563 0.86436 0.0
C3131 C 0.95124 0.65358 0.87961 0.0
C3132 C 0.96532 0.66153 0.88539 0.0
H3133 H 0.87995 0.69072 0.94617 0.0
H3134 H 0.90129 0.68564 0.92577 0.0
C3135 C 0.97954 0.66206 0.87586 0.0
C3136 C 0.93596 0.65412 0.88946 0.0
H3137 H 0.8986 0.6729 0.89177 0.0
C3138 C 0.93551 0.64585 0.90452 0.0
C3139 C 0.92243 0.66384 0.88469 0.0
C3140 C 0.9225 0.67326 0.86879 0.0
C3141 C 0.92196 0.64723 0.91507 0.0
C3142 C 0.90852 0.65714 0.91041 0.0
C3143 C 0.90887 0.66522 0.89524 0.0
C3144 C 0.89465 0.6603 0.92175 0.0
C3145 C 0.92235 0.63862 0.93143 0.0
C3146 C 0.88357 0.64783 0.92597 0.0
C3147 C 0.87124 0.65072 0.93758 0.0
C3148 C 0.86986 0.66612 0.94523 0.0
C3149 C 0.88068 0.6787 0.94056 0.0
C3150 C 0.89289 0.67584 0.92888 0.0
H3151 H 0.93457 0.63328 0.93413 0.0
H3152 H 0.91903 0.64726 0.9414 0.0
H3153 H 0.91319 0.62856 0.93144 0.0
H3154 H 0.88463 0.63578 0.92048 0.0
H3155 H 0.86312 0.64076 0.94091 0.0
H3156 H 0.63296 0.96748 0.1602 0.0
H3157 H 0.63324 0.94282 0.14292 0.0
H3158 H 0.6759 0.96097 0.11763 0.0
H3159 H 0.67575 0.98553 0.13467 0.0
H3160 H 0.63291 0.94052 0.10662 0.0
H3161 H 0.689 0.91442 0.13479 0.0
H3162 H 0.67677 0.92998 0.14472 0.0
H3163 H 0.69076 0.9355 0.12864 0.0
C3164 C 0.64236 0.96626 0.15091 0.0
C3165 C 0.65438 0.97849 0.14891 0.0
C3166 C 0.6425 0.95216 0.14106 0.0
C3167 C 0.65475 0.94997 0.12918 0.0
C3168 C 0.6665 0.9623 0.12691 0.0
H3169 H 0.688 0.88418 0.05529 0.0
H3170 H 0.68359 0.90495 0.07633 0.0
C3171 C 0.66632 0.97639 0.13664 0.0
C3172 C 0.65543 0.93486 0.11905 0.0
H3173 H 0.68024 0.90248 0.10966 0.0
C3174 C 0.64312 0.93204 0.1074 0.0
C3175 C 0.66877 0.92385 0.12013 0.0
C3176 C 0.68203 0.92595 0.13283 0.0
C3177 C 0.6442 0.91894 0.09622 0.0
C3178 C 0.65782 0.90819 0.09699 0.0
C3179 C 0.66983 0.91072 0.10904 0.0
C3180 C 0.66049 0.89498 0.08469 0.0
C3181 C 0.63119 0.91722 0.08321 0.0
C3182 C 0.64914 0.88219 0.08258 0.0
C3183 C 0.65161 0.87024 0.07046 0.0
C3184 C 0.66555 0.87081 0.06032 0.0
C3185 C 0.67712 0.88335 0.06284 0.0
C3186 C 0.67462 0.89526 0.07489 0.0
H3187 H 0.62364 0.92848 0.08204 0.0
H3188 H 0.63678 0.91445 0.07111 0.0
H3189 H 0.62292 0.90693 0.08648 0.0
H3190 H 0.63833 0.88149 0.09023 0.0
H3191 H 0.6425 0.86072 0.06888 0.0
H3192 H 0.0198 0.6752 0.13132 0.0
H3193 H 0.04404 0.67428 0.11398 0.0
H3194 H 0.06397 0.63526 0.14349 0.0
H3195 H 0.03968 0.63626 0.16123 0.0
H3196 H 0.0867 0.65974 0.13683 0.0
H3197 H 0.05602 0.64052 0.07957 0.0
H3198 H 0.04651 0.65824 0.08843 0.0
H3199 H 0.0462 0.63906 0.09933 0.0
C3200 C 0.02923 0.66629 0.13411 0.0
C3201 C 0.0277 0.65574 0.14767 0.0
C3202 C 0.04309 0.66573 0.12409 0.0
C3203 C 0.05572 0.6545 0.12723 0.0
C3204 C 0.05431 0.64394 0.14075 0.0
H3205 H 0.14835 0.64541 0.07171 0.0
H3206 H 0.12653 0.64025 0.09182 0.0
C3207 C 0.0404 0.6445 0.15085 0.0
C3208 C 0.07057 0.65439 0.11665 0.0
H3209 H 0.08263 0.65282 0.07658 0.0
C3210 C 0.08588 0.65794 0.12369 0.0
C3211 C 0.06952 0.65196 0.0995 0.0
C3212 C 0.0537 0.64706 0.09128 0.0
C3213 C 0.09996 0.65998 0.11393 0.0
C3214 C 0.09868 0.65837 0.09674 0.0
C3215 C 0.08353 0.6542 0.08977 0.0
C3216 C 0.11262 0.66193 0.08562 0.0
C3217 C 0.11597 0.66455 0.12192 0.0
C3218 C 0.11206 0.67587 0.07559 0.0
C3219 C 0.12448 0.67889 0.0642 0.0
C3220 C 0.13768 0.66793 0.06246 0.0
C3221 C 0.1384 0.65412 0.07278 0.0
C3222 C 0.12596 0.65116 0.08428 0.0
H3223 H 0.11458 0.66696 0.13525 0.0
H3224 H 0.12489 0.65442 0.12027 0.0
H3225 H 0.12118 0.67563 0.11597 0.0
H3226 H 0.10185 0.68432 0.07642 0.0
H3227 H 0.12349 0.68963 0.05646 0.0
H3228 H 0.96392 0.3687 0.1677 0.0
H3229 H 0.93892 0.36969 0.15098 0.0
H3230 H 0.96327 0.34248 0.11283 0.0
H3231 H 0.98818 0.34135 0.12936 0.0
H3232 H 0.94399 0.37183 0.10258 0.0
H3233 H 0.90999 0.32734 0.14166 0.0
H3234 H 0.9199 0.34439 0.15158 0.0
H3235 H 0.93206 0.32881 0.14199 0.0
C3236 C 0.964 0.36305 0.1557 0.0
C3237 C 0.97805 0.35487 0.14992 0.0
C3238 C 0.94968 0.36357 0.1462 0.0
C3239 C 0.94922 0.35603 0.13074 0.0
C3240 C 0.96336 0.34833 0.12475 0.0
H3241 H 0.8789 0.31997 0.06284 0.0
H3242 H 0.89991 0.3248 0.08362 0.0
C3243 C 0.97759 0.34768 0.13425 0.0
C3244 C 0.93398 0.35568 0.12084 0.0
H3245 H 0.89675 0.33671 0.11784 0.0
C3246 C 0.93355 0.36435 0.106 0.0
C3247 C 0.92047 0.34577 0.1253 0.0
C3248 C 0.92052 0.33594 0.14095 0.0
C3249 C 0.92008 0.36315 0.09534 0.0
C3250 C 0.90668 0.35302 0.09967 0.0
C3251 C 0.90698 0.34456 0.11464 0.0
C3252 C 0.89295 0.34997 0.08813 0.0
C3253 C 0.92052 0.37216 0.07921 0.0
C3254 C 0.8818 0.36242 0.08406 0.0
C3255 C 0.86966 0.35967 0.07222 0.0
C3256 C 0.86855 0.34444 0.06419 0.0
C3257 C 0.87943 0.33186 0.06873 0.0
C3258 C 0.89144 0.33458 0.08063 0.0
H3259 H 0.93271 0.37769 0.07674 0.0
H3260 H 0.91737 0.36374 0.069 0.0
H3261 H 0.91126 0.38212 0.07937 0.0
H3262 H 0.88267 0.37435 0.08983 0.0
H3263 H 0.86148 0.36961 0.069 0.0
H3264 H 0.66715 0.87027 0.54667 0.0
H3265 H 0.6504 0.87144 0.57167 0.0
H3266 H 0.61185 0.84493 0.54717 0.0
H3267 H 0.62837 0.84367 0.52228 0.0
H3268 H 0.60159 0.87356 0.56646 0.0
H3269 H 0.64108 0.82955 0.60055 0.0
H3270 H 0.65088 0.84688 0.59101 0.0
H3271 H 0.64172 0.8313 0.5785 0.0
C3272 C 0.65504 0.86484 0.54656 0.0
C3273 C 0.64915 0.85679 0.53248 0.0
C3274 C 0.64554 0.86545 0.56087 0.0
C3275 C 0.62996 0.85812 0.5613 0.0
C3276 C 0.62386 0.85061 0.54711 0.0
H3277 H 0.56291 0.82018 0.63121 0.0
H3278 H 0.58376 0.82574 0.61046 0.0
C3279 C 0.63335 0.84988 0.53289 0.0
C3280 C 0.62006 0.85772 0.57656 0.0
H3281 H 0.6171 0.8386 0.6137 0.0
C3282 C 0.60507 0.86613 0.57691 0.0
C3283 C 0.62459 0.84786 0.59007 0.0
C3284 C 0.64039 0.83827 0.59012 0.0
C3285 C 0.5943 0.86466 0.59027 0.0
C3286 C 0.59869 0.85456 0.60366 0.0
C3287 C 0.61384 0.84643 0.60347 0.0
C3288 C 0.58706 0.85115 0.61724 0.0
C3289 C 0.57799 0.87333 0.58968 0.0
C3290 C 0.58226 0.86351 0.62821 0.0
C3291 C 0.57036 0.86034 0.64019 0.0
C3292 C 0.563 0.84478 0.64133 0.0
C3293 C 0.56826 0.83231 0.63064 0.0
C3294 C 0.58021 0.83546 0.61878 0.0
H3295 H 0.57546 0.87868 0.57742 0.0
H3296 H 0.56793 0.86474 0.59287 0.0
H3297 H 0.57791 0.8834 0.59882 0.0
H3298 H 0.58754 0.87566 0.62734 0.0
H3299 H 0.56659 0.87021 0.64824 0.0
H3300 H 0.19262 0.57391 0.64098 0.0
H3301 H 0.18838 0.59481 0.61995 0.0
H3302 H 0.13704 0.5822 0.61792 0.0
H3303 H 0.14111 0.56213 0.63978 0.0
H3304 H 0.18106 0.59113 0.59055 0.0
H3305 H 0.13194 0.62993 0.61605 0.0
H3306 H 0.14242 0.61481 0.62827 0.0
H3307 H 0.12548 0.60897 0.61531 0.0
C3308 C 0.18037 0.5759 0.6363 0.0
C3309 C 0.16718 0.56649 0.64208 0.0
C3310 C 0.17794 0.58782 0.62423 0.0
C3311 C 0.16232 0.59034 0.61736 0.0
C3312 C 0.1491 0.581 0.62329 0.0
H3313 H 0.15421 0.62784 0.51795 0.0
H3314 H 0.15467 0.61096 0.54267 0.0
C3315 C 0.15145 0.5694 0.63573 0.0
C3316 C 0.1603 0.60162 0.60306 0.0
H3317 H 0.13615 0.63185 0.58693 0.0
C3318 C 0.17133 0.60015 0.58992 0.0
C3319 C 0.14778 0.61364 0.60215 0.0
C3320 C 0.13637 0.61705 0.6163 0.0
C3321 C 0.17012 0.61009 0.57593 0.0
C3322 C 0.15693 0.6213 0.57453 0.0
C3323 C 0.14607 0.62304 0.58779 0.0
C3324 C 0.15445 0.63147 0.55953 0.0
C3325 C 0.18335 0.6087 0.56306 0.0
C3326 C 0.15282 0.64861 0.56068 0.0
C3327 C 0.1519 0.65826 0.54649 0.0
C3328 C 0.15285 0.65096 0.53092 0.0
C3329 C 0.15368 0.6338 0.5298 0.0
C3330 C 0.15413 0.62416 0.54394 0.0
H3331 H 0.195 0.60409 0.5684 0.0
H3332 H 0.17944 0.59981 0.55354 0.0
H3333 H 0.18582 0.62069 0.55712 0.0
H3334 H 0.15286 0.65458 0.57253 0.0
H3335 H 0.15131 0.67147 0.54771 0.0
H3336 H 0.34227 0.14111 0.54443 0.0
H3337 H 0.35912 0.14048 0.56934 0.0
H3338 H 0.39678 0.16809 0.54467 0.0
H3339 H 0.38011 0.16885 0.51983 0.0
H3340 H 0.40755 0.13904 0.56402 0.0
H3341 H 0.36792 0.18303 0.59804 0.0
H3342 H 0.3582 0.16578 0.58829 0.0
H3343 H 0.3675 0.18142 0.57597 0.0
C3344 C 0.35419 0.14692 0.54426 0.0
C3345 C 0.35979 0.1551 0.53014 0.0
C3346 C 0.36376 0.14661 0.55853 0.0
C3347 C 0.37912 0.15437 0.55887 0.0
C3348 C 0.38494 0.16207 0.54466 0.0
H3349 H 0.44635 0.19135 0.62952 0.0
H3350 H 0.42575 0.18631 0.60839 0.0
C3351 C 0.37536 0.16251 0.53048 0.0
C3352 C 0.38907 0.15492 0.57407 0.0
H3353 H 0.39182 0.17389 0.61131 0.0
C3354 C 0.40404 0.14647 0.57447 0.0
C3355 C 0.38449 0.16477 0.58758 0.0
C3356 C 0.36871 0.17438 0.58755 0.0
C3357 C 0.41469 0.14782 0.58794 0.0
C3358 C 0.41022 0.15786 0.60135 0.0
C3359 C 0.39514 0.16611 0.60106 0.0
C3360 C 0.42169 0.161 0.61512 0.0
C3361 C 0.43095 0.13904 0.58747 0.0
C3362 C 0.42595 0.14853 0.62618 0.0
C3363 C 0.43769 0.1514 0.63839 0.0
C3364 C 0.44542 0.16677 0.63966 0.0
C3365 C 0.4407 0.17936 0.62886 0.0
C3366 C 0.4289 0.17651 0.61678 0.0
H3367 H 0.43354 0.13366 0.57524 0.0
H3368 H 0.44104 0.14758 0.59073 0.0
H3369 H 0.4309 0.12899 0.59663 0.0
H3370 H 0.4204 0.13651 0.6252 0.0
H3371 H 0.44106 0.14145 0.6465 0.0
H3372 H 0.87109 0.34236 0.54254 0.0
H3373 H 0.87216 0.3591 0.56754 0.0
H3374 H 0.84444 0.39704 0.54344 0.0
H3375 H 0.84324 0.38049 0.51854 0.0
H3376 H 0.87363 0.40764 0.56265 0.0
H3377 H 0.82986 0.36773 0.59664 0.0
H3378 H 0.84705 0.3581 0.5867 0.0
H3379 H 0.83132 0.36746 0.57456 0.0
C3380 C 0.86537 0.35434 0.54251 0.0
C3381 C 0.857 0.36003 0.52855 0.0
C3382 C 0.86593 0.36384 0.55683 0.0
C3383 C 0.85824 0.37923 0.55737 0.0
C3384 C 0.85041 0.38517 0.54329 0.0
H3385 H 0.82127 0.44623 0.62812 0.0
H3386 H 0.82641 0.42564 0.60697 0.0
C3387 C 0.84972 0.37566 0.52907 0.0
C3388 C 0.85782 0.38907 0.57266 0.0
H3389 H 0.8389 0.39165 0.60994 0.0
C3390 C 0.86624 0.40406 0.57311 0.0
C3391 C 0.84802 0.38442 0.58617 0.0
C3392 C 0.83843 0.3686 0.5861 0.0
C3393 C 0.86489 0.41467 0.58662 0.0
C3394 C 0.85487 0.41014 0.60002 0.0
C3395 C 0.84667 0.39502 0.5997 0.0
C3396 C 0.85168 0.42158 0.6138 0.0
C3397 C 0.87364 0.43096 0.5862 0.0
C3398 C 0.86409 0.42585 0.62493 0.0
C3399 C 0.86116 0.43757 0.63715 0.0
C3400 C 0.84579 0.44529 0.63836 0.0
C3401 C 0.83326 0.44058 0.6275 0.0
C3402 C 0.83616 0.42879 0.61541 0.0
H3403 H 0.87908 0.43357 0.574 0.0
H3404 H 0.86506 0.44102 0.58942 0.0
H3405 H 0.88363 0.43094 0.59542 0.0
H3406 H 0.87611 0.4203 0.62398 0.0
H3407 H 0.87107 0.44093 0.6453 0.0
H3408 H 0.56232 0.1899 0.3788 0.0
H3409 H 0.5832 0.1849 0.39966 0.0
H3410 H 0.58706 0.1346 0.38399 0.0
H3411 H 0.56617 0.13952 0.36292 0.0
H3412 H 0.58164 0.13998 0.41912 0.0
H3413 H 0.63355 0.17645 0.39452 0.0
H3414 H 0.61416 0.1869 0.39473 0.0
H3415 H 0.61688 0.16928 0.38181 0.0
C3416 C 0.56776 0.17782 0.37961 0.0
C3417 C 0.56258 0.16511 0.36917 0.0
C3418 C 0.57974 0.17501 0.39151 0.0
C3419 C 0.58677 0.15942 0.39329 0.0
C3420 C 0.58185 0.14674 0.38275 0.0
H3421 H 0.66573 0.13999 0.46428 0.0
H3422 H 0.64874 0.13886 0.43947 0.0
C3423 C 0.56995 0.14959 0.37069 0.0
C3424 C 0.59844 0.15624 0.40688 0.0
H3425 H 0.63534 0.1683 0.42256 0.0
C3426 C 0.59348 0.14599 0.41978 0.0
C3427 C 0.61391 0.16401 0.40767 0.0
C3428 C 0.62006 0.17468 0.3939 0.0
C3429 C 0.60328 0.1439 0.43378 0.0
C3430 C 0.6184 0.15228 0.4349 0.0
C3431 C 0.6237 0.16194 0.42169 0.0
C3432 C 0.62837 0.15205 0.45011 0.0
C3433 C 0.5973 0.13295 0.44741 0.0
C3434 C 0.62252 0.15981 0.46428 0.0
C3435 C 0.63221 0.1606 0.47838 0.0
C3436 C 0.64794 0.15355 0.47865 0.0
C3437 C 0.65364 0.14546 0.46452 0.0
C3438 C 0.64398 0.14484 0.45033 0.0
H3439 H 0.58748 0.12451 0.44318 0.0
H3440 H 0.60754 0.12558 0.45252 0.0
H3441 H 0.59226 0.14064 0.45743 0.0
H3442 H 0.61058 0.16561 0.46431 0.0
H3443 H 0.62742 0.16693 0.48902 0.0
H3444 H 0.81772 0.56518 0.37735 0.0
H3445 H 0.82301 0.58581 0.3984 0.0
H3446 H 0.87362 0.58831 0.38349 0.0
H3447 H 0.86842 0.56765 0.36226 0.0
H3448 H 0.86812 0.58314 0.41813 0.0
H3449 H 0.83244 0.63576 0.39405 0.0
H3450 H 0.82146 0.61666 0.39433 0.0
H3451 H 0.83904 0.61892 0.38126 0.0
C3452 C 0.82994 0.57027 0.37836 0.0
C3453 C 0.84265 0.56477 0.36809 0.0
C3454 C 0.83292 0.58212 0.39037 0.0
C3455 C 0.84867 0.58871 0.39242 0.0
C3456 C 0.86135 0.58345 0.38204 0.0
H3457 H 0.86832 0.66713 0.46403 0.0
H3458 H 0.86929 0.65041 0.43902 0.0
C3459 C 0.85834 0.57168 0.36989 0.0
C3460 C 0.852 0.60022 0.40612 0.0
H3461 H 0.8404 0.63711 0.4222 0.0
C3462 C 0.86224 0.59504 0.41893 0.0
C3463 C 0.84443 0.61578 0.40709 0.0
C3464 C 0.83383 0.62222 0.39339 0.0
C3465 C 0.8645 0.60469 0.43301 0.0
C3466 C 0.85627 0.61989 0.43433 0.0
C3467 C 0.84663 0.62541 0.42121 0.0
C3468 C 0.85663 0.6297 0.44966 0.0
C3469 C 0.87549 0.59848 0.4465 0.0
C3470 C 0.84921 0.62358 0.4639 0.0
C3471 C 0.84853 0.6331 0.47812 0.0
C3472 C 0.85532 0.64896 0.47844 0.0
C3473 C 0.86306 0.65494 0.46423 0.0
C3474 C 0.86358 0.64544 0.44992 0.0
H3475 H 0.884 0.58883 0.44202 0.0
H3476 H 0.88278 0.60864 0.45188 0.0
H3477 H 0.86784 0.59311 0.45637 0.0
H3478 H 0.84358 0.61155 0.4639 0.0
H3479 H 0.84246 0.62809 0.48881 0.0
H3480 H 0.33914 0.85945 0.4595 0.0
H3481 H 0.35625 0.85851 0.43481 0.0
H3482 H 0.39954 0.8554 0.46499 0.0
H3483 H 0.38242 0.85528 0.48957 0.0
H3484 H 0.37926 0.8755 0.42117 0.0
H3485 H 0.4063 0.81581 0.43805 0.0
H3486 H 0.38968 0.82478 0.44946 0.0
H3487 H 0.41056 0.83087 0.45342 0.0
C3488 C 0.35232 0.85871 0.46083 0.0
C3489 C 0.35945 0.85723 0.47643 0.0
C3490 C 0.3621 0.85813 0.44671 0.0
C3491 C 0.3792 0.85632 0.44796 0.0
C3492 C 0.38636 0.85609 0.46362 0.0
H3493 H 0.44939 0.87149 0.36878 0.0
H3494 H 0.42917 0.87507 0.3906 0.0
C3495 C 0.37659 0.85621 0.47768 0.0
C3496 C 0.38949 0.85422 0.43298 0.0
H3497 H 0.41955 0.83029 0.41644 0.0
C3498 C 0.38798 0.86552 0.42007 0.0
C3499 C 0.40058 0.84097 0.43125 0.0
C3500 C 0.40174 0.82733 0.44371 0.0
C3501 C 0.39749 0.86417 0.40573 0.0
C3502 C 0.40938 0.85155 0.40451 0.0
C3503 C 0.41062 0.8401 0.41731 0.0
C3504 C 0.42075 0.84987 0.39025 0.0
C3505 C 0.39432 0.87607 0.39194 0.0
C3506 C 0.42315 0.83445 0.38288 0.0
C3507 C 0.43514 0.83228 0.37082 0.0
C3508 C 0.44475 0.84555 0.36557 0.0
C3509 C 0.44196 0.8611 0.37242 0.0
C3510 C 0.43028 0.86318 0.38483 0.0
H3511 H 0.3815 0.88063 0.39223 0.0
H3512 H 0.40251 0.88683 0.39334 0.0
H3513 H 0.3966 0.87038 0.3798 0.0
H3514 H 0.416 0.82395 0.38675 0.0
H3515 H 0.43703 0.82016 0.36576 0.0
H3516 H 0.13902 0.44099 0.3617 0.0
H3517 H 0.13346 0.42061 0.38313 0.0
H3518 H 0.18344 0.42439 0.39975 0.0
H3519 H 0.1891 0.44469 0.37847 0.0
H3520 H 0.17014 0.39101 0.39733 0.0
H3521 H 0.13084 0.43409 0.4328 0.0
H3522 H 0.12603 0.43122 0.41148 0.0
H3523 H 0.14485 0.44106 0.41716 0.0
C3524 C 0.14887 0.43733 0.3698 0.0
C3525 C 0.16448 0.44454 0.36843 0.0
C3526 C 0.14565 0.42576 0.38208 0.0
C3527 C 0.15799 0.42114 0.39313 0.0
C3528 C 0.17373 0.42781 0.39137 0.0
H3529 H 0.16541 0.38143 0.48891 0.0
H3530 H 0.16429 0.39761 0.46378 0.0
C3531 C 0.17693 0.43944 0.3792 0.0
C3532 C 0.15451 0.40989 0.40701 0.0
H3533 H 0.13563 0.40814 0.44436 0.0
C3534 C 0.16242 0.39462 0.40752 0.0
C3535 C 0.14454 0.41475 0.42035 0.0
C3536 C 0.13612 0.4312 0.42059 0.0
C3537 C 0.16086 0.3842 0.42115 0.0
C3538 C 0.15113 0.38919 0.4346 0.0
C3539 C 0.14297 0.40431 0.43396 0.0
C3540 C 0.15057 0.37958 0.45004 0.0
C3541 C 0.17019 0.36825 0.42142 0.0
C3542 C 0.14289 0.3642 0.45078 0.0
C3543 C 0.14341 0.3549 0.46522 0.0
C3544 C 0.15173 0.3608 0.47913 0.0
C3545 C 0.15897 0.37645 0.47843 0.0
C3546 C 0.15833 0.38575 0.46407 0.0
H3547 H 0.17884 0.36716 0.41096 0.0
H3548 H 0.17719 0.36707 0.43303 0.0
H3549 H 0.16141 0.35788 0.42081 0.0
H3550 H 0.1367 0.35929 0.44011 0.0
H3551 H 0.13771 0.3429 0.46534 0.0
H3552 H 0.64765 0.56854 0.86779 0.0
H3553 H 0.62622 0.58894 0.87317 0.0
H3554 H 0.6098 0.58498 0.82314 0.0
H3555 H 0.63108 0.56461 0.81766 0.0
H3556 H 0.61219 0.61851 0.83653 0.0
H3557 H 0.57649 0.57523 0.87543 0.0
H3558 H 0.5978 0.57803 0.88034 0.0
H3559 H 0.59218 0.56833 0.86143 0.0
C3560 C 0.63961 0.57216 0.85788 0.0
C3561 C 0.64102 0.56487 0.84231 0.0
C3562 C 0.62733 0.58376 0.861 0.0
C3563 C 0.61632 0.58832 0.8486 0.0
C3564 C 0.61814 0.58159 0.83289 0.0
H3565 H 0.52052 0.62881 0.84195 0.0
H3566 H 0.54558 0.61248 0.84234 0.0
C3567 C 0.63031 0.56993 0.82979 0.0
C3568 C 0.60242 0.59955 0.85202 0.0
H3569 H 0.56506 0.60129 0.87088 0.0
C3570 C 0.60197 0.61487 0.84421 0.0
C3571 C 0.58904 0.59465 0.86191 0.0
C3572 C 0.58873 0.57814 0.87022 0.0
C3573 C 0.58838 0.62533 0.84584 0.0
C3574 C 0.57491 0.62034 0.85555 0.0
C3575 C 0.57547 0.60513 0.86356 0.0
C3576 C 0.55958 0.63008 0.85633 0.0
C3577 C 0.58819 0.64139 0.83667 0.0
C3578 C 0.55904 0.64529 0.86438 0.0
C3579 C 0.54464 0.65467 0.86428 0.0
C3580 C 0.53058 0.64903 0.85603 0.0
C3581 C 0.53112 0.63359 0.84835 0.0
C3582 C 0.54543 0.6242 0.84858 0.0
H3583 H 0.59864 0.64249 0.82802 0.0
H3584 H 0.57658 0.6427 0.82971 0.0
H3585 H 0.58887 0.65166 0.84556 0.0
H3586 H 0.5698 0.64997 0.87057 0.0
H3587 H 0.54466 0.6665 0.8703 0.0
H3588 H 0.44565 0.62962 0.82079 0.0
H3589 H 0.42508 0.60849 0.82608 0.0
H3590 H 0.42224 0.62365 0.87659 0.0
H3591 H 0.44282 0.64498 0.87138 0.0
H3592 H 0.4278 0.58862 0.87077 0.0
H3593 H 0.3749 0.61313 0.83574 0.0
H3594 H 0.39406 0.61313 0.82485 0.0
H3595 H 0.39164 0.62591 0.84261 0.0
C3596 C 0.4405 0.62864 0.83298 0.0
C3597 C 0.44587 0.63902 0.84566 0.0
C3598 C 0.42869 0.61658 0.83596 0.0
C3599 C 0.42204 0.61458 0.85169 0.0
C3600 C 0.42716 0.62506 0.86434 0.0
H3601 H 0.34378 0.54321 0.87255 0.0
H3602 H 0.36077 0.56805 0.87336 0.0
C3603 C 0.43888 0.63727 0.86133 0.0
C3604 C 0.41055 0.60086 0.85502 0.0
H3605 H 0.37344 0.58505 0.8438 0.0
C3606 C 0.41583 0.58793 0.86505 0.0
C3607 C 0.3949 0.60003 0.84763 0.0
C3608 C 0.38842 0.61384 0.83721 0.0
C3609 C 0.40614 0.57385 0.86731 0.0
C3610 C 0.39082 0.5727 0.85932 0.0
C3611 C 0.38523 0.58593 0.84986 0.0
C3612 C 0.3809 0.55745 0.85977 0.0
C3613 C 0.41245 0.5602 0.87804 0.0
C3614 C 0.3866 0.54328 0.85189 0.0
C3615 C 0.37692 0.52916 0.85129 0.0
C3616 C 0.36132 0.52886 0.85864 0.0
C3617 C 0.35577 0.54298 0.86686 0.0
C3618 C 0.36542 0.5572 0.86729 0.0
H3619 H 0.42243 0.56445 0.88626 0.0
H3620 H 0.40242 0.55498 0.88562 0.0
H3621 H 0.41737 0.55025 0.87018 0.0
H3622 H 0.39843 0.54327 0.84585 0.0
H3623 H 0.38159 0.51853 0.84486 0.0
H3624 H 0.37882 0.44429 0.82215 0.0
H3625 H 0.39934 0.42314 0.82742 0.0
H3626 H 0.38281 0.41934 0.87744 0.0
H3627 H 0.36213 0.44054 0.87226 0.0
H3628 H 0.41747 0.42409 0.87344 0.0
H3629 H 0.39435 0.37309 0.83493 0.0
H3630 H 0.3953 0.39248 0.82454 0.0
H3631 H 0.38149 0.38988 0.84151 0.0
C3632 C 0.37936 0.4388 0.83422 0.0
C3633 C 0.36881 0.44411 0.84678 0.0
C3634 C 0.39106 0.42665 0.83719 0.0
C3635 C 0.39251 0.41955 0.85278 0.0
C3636 C 0.38183 0.42459 0.86529 0.0
H3637 H 0.46379 0.34026 0.87091 0.0
H3638 H 0.43864 0.35676 0.87228 0.0
C3639 C 0.36999 0.43667 0.86229 0.0
C3640 C 0.40596 0.40777 0.85619 0.0
H3641 H 0.42234 0.37135 0.84355 0.0
C3642 C 0.41842 0.41245 0.8671 0.0
C3643 C 0.40713 0.39253 0.84801 0.0
C3644 C 0.39379 0.38658 0.8367 0.0
C3645 C 0.43239 0.40265 0.86941 0.0
C3646 C 0.43396 0.38784 0.86055 0.0
C3647 C 0.42115 0.38276 0.85027 0.0
C3648 C 0.44934 0.37812 0.86081 0.0
C3649 C 0.44552 0.40835 0.88109 0.0
C3650 C 0.46366 0.38468 0.85393 0.0
C3651 C 0.47794 0.3753 0.85302 0.0
C3652 C 0.47826 0.35913 0.85903 0.0
C3653 C 0.46399 0.35269 0.86627 0.0
C3654 C 0.4496 0.36207 0.86701 0.0
H3655 H 0.44076 0.41756 0.88992 0.0
H3656 H 0.45071 0.39786 0.88803 0.0
H3657 H 0.4556 0.41412 0.87401 0.0
H3658 H 0.46367 0.39696 0.84888 0.0
H3659 H 0.48869 0.38066 0.84736 0.0
H3660 H 0.5718 0.3612 0.86636 0.0
H3661 H 0.59201 0.38309 0.8709 0.0
H3662 H 0.57537 0.4076 0.82721 0.0
H3663 H 0.55531 0.38592 0.82252 0.0
H3664 H 0.61777 0.39651 0.84746 0.0
H3665 H 0.5702 0.44137 0.86633 0.0
H3666 H 0.56687 0.41947 0.86685 0.0
H3667 H 0.5659 0.43034 0.84774 0.0
C3668 C 0.57256 0.37117 0.85764 0.0
C3669 C 0.56187 0.37184 0.84412 0.0
C3670 C 0.5841 0.38366 0.86026 0.0
C3671 C 0.58501 0.39705 0.8495 0.0
C3672 C 0.57472 0.39746 0.83576 0.0
H3673 H 0.63244 0.48836 0.8337 0.0
H3674 H 0.6152 0.46403 0.83509 0.0
C3675 C 0.5633 0.385 0.83308 0.0
C3676 C 0.59634 0.41092 0.85268 0.0
H3677 H 0.59666 0.45203 0.86053 0.0
C3678 C 0.61324 0.40862 0.85055 0.0
C3679 C 0.59035 0.42667 0.85672 0.0
C3680 C 0.57235 0.42967 0.85969 0.0
C3681 C 0.62425 0.42188 0.85154 0.0
C3682 C 0.61817 0.43776 0.85507 0.0
C3683 C 0.60132 0.43988 0.85779 0.0
C3684 C 0.62881 0.45258 0.85473 0.0
C3685 C 0.64215 0.41892 0.848 0.0
C3686 C 0.64212 0.45441 0.8655 0.0
C3687 C 0.65211 0.46839 0.86472 0.0
C3688 C 0.64891 0.48083 0.8532 0.0
C3689 C 0.63534 0.47905 0.84271 0.0
C3690 C 0.62543 0.46512 0.84348 0.0
H3691 H 0.64426 0.40681 0.84216 0.0
H3692 H 0.64712 0.42862 0.83985 0.0
H3693 H 0.64913 0.41925 0.85966 0.0
H3694 H 0.64477 0.44504 0.87452 0.0
H3695 H 0.66241 0.46937 0.87303 0.0
H3696 H 0.54337 0.3428 0.13931 0.0
H3697 H 0.56816 0.35987 0.13866 0.0
H3698 H 0.54312 0.39744 0.16606 0.0
H3699 H 0.51842 0.38056 0.16685 0.0
H3700 H 0.56245 0.4083 0.13706 0.0
H3701 H 0.59672 0.36909 0.18119 0.0
H3702 H 0.58709 0.35922 0.16396 0.0
H3703 H 0.57466 0.36846 0.17954 0.0
C3704 C 0.5431 0.35476 0.14507 0.0
C3705 C 0.52891 0.36027 0.1532 0.0
C3706 C 0.55729 0.36445 0.14475 0.0
C3707 C 0.5575 0.37984 0.15245 0.0
C3708 C 0.54323 0.38558 0.16009 0.0
H3709 H 0.62785 0.4479 0.18898 0.0
H3710 H 0.60678 0.42715 0.18417 0.0
C3711 C 0.52912 0.37588 0.16054 0.0
C3712 C 0.57263 0.38994 0.15299 0.0
H3713 H 0.60983 0.39307 0.17196 0.0
C3714 C 0.57292 0.4049 0.1445 0.0
C3715 C 0.58616 0.38551 0.16286 0.0
C3716 C 0.58625 0.36975 0.17252 0.0
C3717 C 0.5863 0.41567 0.14582 0.0
C3718 C 0.59975 0.41134 0.15587 0.0
C3719 C 0.59956 0.39628 0.16417 0.0
C3720 C 0.61347 0.4229 0.15889 0.0
C3721 C 0.58572 0.43189 0.13698 0.0
C3722 C 0.62449 0.42712 0.14637 0.0
C3723 C 0.63666 0.43894 0.14911 0.0
C3724 C 0.63794 0.4468 0.1644 0.0
C3725 C 0.62719 0.44214 0.17705 0.0
C3726 C 0.61514 0.43026 0.17433 0.0
H3727 H 0.57346 0.43438 0.13161 0.0
H3728 H 0.58893 0.44204 0.14546 0.0
H3729 H 0.59486 0.43186 0.12691 0.0
H3730 H 0.6235 0.42146 0.1344 0.0
H3731 H 0.64474 0.44225 0.13911 0.0
H3732 H 0.62678 0.52124 0.16536 0.0
H3733 H 0.61021 0.54612 0.16404 0.0
H3734 H 0.64802 0.57008 0.13601 0.0
H3735 H 0.66476 0.5451 0.13717 0.0
H3736 H 0.63572 0.58788 0.16493 0.0
H3737 H 0.58608 0.56657 0.12359 0.0
H3738 H 0.591 0.55278 0.14005 0.0
H3739 H 0.60595 0.55683 0.12442 0.0
C3740 C 0.63154 0.53172 0.15875 0.0
C3741 C 0.64712 0.53114 0.15135 0.0
C3742 C 0.62201 0.54592 0.15796 0.0
C3743 C 0.62782 0.5599 0.14982 0.0
C3744 C 0.64327 0.55938 0.14228 0.0
H3745 H 0.56582 0.64696 0.13639 0.0
H3746 H 0.58629 0.62546 0.1316 0.0
C3747 C 0.65279 0.54508 0.14291 0.0
C3748 C 0.61802 0.57523 0.15001 0.0
H3749 H 0.581 0.5911 0.13865 0.0
C3750 C 0.62384 0.58868 0.15902 0.0
C3751 C 0.6026 0.57629 0.14219 0.0
C3752 C 0.59604 0.56241 0.13189 0.0
C3753 C 0.61432 0.60291 0.16099 0.0
C3754 C 0.59856 0.60365 0.15382 0.0
C3755 C 0.59305 0.59048 0.14422 0.0
C3756 C 0.58722 0.61756 0.15688 0.0
C3757 C 0.62109 0.61697 0.17089 0.0
C3758 C 0.58102 0.6203 0.17268 0.0
C3759 C 0.56928 0.63247 0.17544 0.0
C3760 C 0.56351 0.64221 0.16244 0.0
C3761 C 0.57007 0.63974 0.14668 0.0
C3762 C 0.58172 0.62744 0.14391 0.0
H3763 H 0.63464 0.61628 0.172 0.0
H3764 H 0.61774 0.62891 0.1653 0.0
H3765 H 0.61581 0.61656 0.18341 0.0
H3766 H 0.58491 0.61267 0.18282 0.0
H3767 H 0.56446 0.634 0.18771 0.0
H3768 H 0.4683 0.66031 0.13174 0.0
H3769 H 0.44418 0.64237 0.13135 0.0
H3770 H 0.46281 0.61631 0.17335 0.0
H3771 H 0.48697 0.63386 0.17366 0.0
H3772 H 0.45135 0.59561 0.14947 0.0
H3773 H 0.40543 0.64414 0.1629 0.0
H3774 H 0.41807 0.64772 0.14524 0.0
H3775 H 0.42717 0.64742 0.16528 0.0
C3776 C 0.46729 0.65073 0.14086 0.0
C3777 C 0.47959 0.6486 0.15276 0.0
C3778 C 0.45342 0.64056 0.1407 0.0
C3779 C 0.45154 0.62816 0.1525 0.0
C3780 C 0.46394 0.62583 0.16417 0.0
H3781 H 0.38403 0.55583 0.1871 0.0
H3782 H 0.40587 0.5757 0.18226 0.0
C3783 C 0.47777 0.63592 0.16432 0.0
C3784 C 0.43682 0.61739 0.15279 0.0
H3785 H 0.39536 0.61727 0.15908 0.0
C3786 C 0.43911 0.60038 0.15148 0.0
C3787 C 0.42081 0.62359 0.15537 0.0
C3788 C 0.41765 0.6417 0.15742 0.0
C3789 C 0.42592 0.58942 0.15295 0.0
C3790 C 0.41002 0.59559 0.15598 0.0
C3791 C 0.40759 0.6126 0.15677 0.0
C3792 C 0.39603 0.58443 0.15928 0.0
C3793 C 0.42912 0.57127 0.15137 0.0
C3794 C 0.38293 0.58313 0.1482 0.0
C3795 C 0.37035 0.57172 0.15092 0.0
C3796 C 0.37061 0.56155 0.16485 0.0
C3797 C 0.38344 0.56341 0.17622 0.0
C3798 C 0.396 0.57472 0.17345 0.0
H3799 H 0.44099 0.56874 0.1452 0.0
H3800 H 0.42954 0.56571 0.16378 0.0
H3801 H 0.41915 0.56518 0.14438 0.0
H3802 H 0.38269 0.5906 0.13723 0.0
H3803 H 0.36065 0.57062 0.14194 0.0
H3804 H 0.44362 0.37856 0.1881 0.0
H3805 H 0.42266 0.39917 0.18245 0.0
H3806 H 0.41997 0.38291 0.13228 0.0
H3807 H 0.44096 0.3621 0.13785 0.0
H3808 H 0.42486 0.41785 0.13697 0.0
H3809 H 0.37267 0.39396 0.1734 0.0
H3810 H 0.39182 0.39459 0.18426 0.0
H3811 H 0.38957 0.38119 0.16693 0.0
C3812 C 0.43842 0.37918 0.17591 0.0
C3813 C 0.44396 0.36866 0.16343 0.0
C3814 C 0.42638 0.39094 0.17273 0.0
C3815 C 0.41965 0.39249 0.15699 0.0
C3816 C 0.42494 0.38185 0.14454 0.0
H3817 H 0.34094 0.46391 0.13714 0.0
H3818 H 0.3576 0.43885 0.13591 0.0
C3819 C 0.43689 0.36994 0.14776 0.0
C3820 C 0.40797 0.40598 0.1534 0.0
H3821 H 0.3711 0.42202 0.16506 0.0
C3822 C 0.413 0.41866 0.14291 0.0
C3823 C 0.39246 0.40696 0.16107 0.0
C3824 C 0.38619 0.39339 0.17194 0.0
C3825 C 0.40325 0.43266 0.14053 0.0
C3826 C 0.38814 0.43402 0.14888 0.0
C3827 C 0.38274 0.42099 0.15873 0.0
C3828 C 0.37837 0.44937 0.14856 0.0
C3829 C 0.40933 0.44605 0.12934 0.0
C3830 C 0.38455 0.46355 0.15604 0.0
C3831 C 0.37507 0.47778 0.15688 0.0
C3832 C 0.35919 0.47818 0.15017 0.0
C3833 C 0.35315 0.46405 0.14232 0.0
C3834 C 0.36262 0.44971 0.14166 0.0
H3835 H 0.41894 0.44153 0.12082 0.0
H3836 H 0.39909 0.45129 0.12206 0.0
H3837 H 0.41469 0.45605 0.13684 0.0
H3838 H 0.3966 0.46349 0.16161 0.0
H3839 H 0.38012 0.48842 0.16301 0.0
H3840 H 0.84505 0.51933 0.62738 0.0
H3841 H 0.84615 0.54419 0.61077 0.0
H3842 H 0.87184 0.56924 0.64951 0.0
H3843 H 0.87092 0.54426 0.66629 0.0
H3844 H 0.8425 0.58578 0.636 0.0
H3845 H 0.88682 0.56629 0.5882 0.0
H3846 H 0.87088 0.55172 0.5926 0.0
H3847 H 0.88569 0.55665 0.60811 0.0
C3848 C 0.85111 0.53005 0.63234 0.0
C3849 C 0.85791 0.52978 0.64819 0.0
C3850 C 0.85177 0.54424 0.62279 0.0
C3851 C 0.85918 0.55851 0.62885 0.0
C3852 C 0.86615 0.5583 0.64458 0.0
H3853 H 0.86991 0.64601 0.56661 0.0
H3854 H 0.87538 0.62506 0.58751 0.0
C3855 C 0.86566 0.54401 0.65412 0.0
C3856 C 0.85875 0.57381 0.61901 0.0
H3857 H 0.87073 0.58998 0.58231 0.0
C3858 C 0.84885 0.58681 0.62437 0.0
C3859 C 0.86712 0.57517 0.6039 0.0
C3860 C 0.87835 0.56179 0.59787 0.0
C3861 C 0.84651 0.60084 0.61463 0.0
C3862 C 0.85423 0.60183 0.59915 0.0
C3863 C 0.86474 0.58916 0.59415 0.0
C3864 C 0.85071 0.61536 0.58749 0.0
C3865 C 0.83559 0.61439 0.62085 0.0
C3866 C 0.83504 0.61686 0.58061 0.0
C3867 C 0.83192 0.6287 0.56862 0.0
C3868 C 0.8444 0.63933 0.5633 0.0
C3869 C 0.86 0.63808 0.57052 0.0
C3870 C 0.86316 0.6261 0.58242 0.0
H3871 H 0.83397 0.61375 0.63435 0.0
H3872 H 0.84066 0.62659 0.61759 0.0
H3873 H 0.82333 0.61324 0.61508 0.0
H3874 H 0.82532 0.60855 0.58418 0.0
H3875 H 0.81978 0.62929 0.5633 0.0
H3876 H 0.83158 0.48668 0.37443 0.0
H3877 H 0.83217 0.46159 0.39065 0.0
H3878 H 0.87368 0.44434 0.36296 0.0
H3879 H 0.87321 0.46953 0.34647 0.0
H3880 H 0.82993 0.42806 0.37652 0.0
H3881 H 0.88649 0.43931 0.41307 0.0
H3882 H 0.87514 0.45584 0.40368 0.0
H3883 H 0.88732 0.44246 0.39124 0.0
C3884 C 0.84096 0.47766 0.3718 0.0
C3885 C 0.85237 0.48018 0.3591 0.0
C3886 C 0.84123 0.46329 0.3811 0.0
C3887 C 0.85299 0.45115 0.37805 0.0
C3888 C 0.86459 0.45365 0.36559 0.0
H3889 H 0.86556 0.36094 0.43614 0.0
H3890 H 0.86924 0.38192 0.41489 0.0
C3891 C 0.86428 0.46804 0.35617 0.0
C3892 C 0.85257 0.43571 0.38767 0.0
H3893 H 0.87166 0.41527 0.4188 0.0
C3894 C 0.83913 0.42517 0.38567 0.0
C3895 C 0.86466 0.4319 0.39946 0.0
C3896 C 0.87923 0.44295 0.40215 0.0
C3897 C 0.83725 0.4111 0.3954 0.0
C3898 C 0.84891 0.40769 0.40779 0.0
C3899 C 0.8627 0.4179 0.40935 0.0
C3900 C 0.84638 0.39436 0.41998 0.0
C3901 C 0.82274 0.40005 0.39234 0.0
C3902 C 0.83236 0.39437 0.42994 0.0
C3903 C 0.83019 0.38241 0.44199 0.0
C3904 C 0.84209 0.3702 0.44451 0.0
C3905 C 0.85611 0.3701 0.43446 0.0
C3906 C 0.85826 0.38211 0.42234 0.0
H3907 H 0.81839 0.40106 0.37948 0.0
H3908 H 0.82578 0.38703 0.39489 0.0
H3909 H 0.8125 0.40376 0.40047 0.0
H3910 H 0.82321 0.4039 0.42865 0.0
H3911 H 0.81932 0.38296 0.44957 0.0
H3912 H 0.52119 0.8329 0.37527 0.0
H3913 H 0.54482 0.83319 0.39349 0.0
H3914 H 0.56403 0.87549 0.36831 0.0
H3915 H 0.54042 0.87515 0.34972 0.0
H3916 H 0.58755 0.8515 0.37361 0.0
H3917 H 0.55403 0.86433 0.43114 0.0
H3918 H 0.54583 0.847 0.42038 0.0
H3919 H 0.54484 0.86704 0.41121 0.0
C3920 C 0.53034 0.84237 0.37363 0.0
C3921 C 0.52881 0.85406 0.36104 0.0
C3922 C 0.54384 0.84256 0.38415 0.0
C3923 C 0.55608 0.85453 0.38248 0.0
C3924 C 0.55467 0.8662 0.36991 0.0
H3925 H 0.64728 0.86533 0.43958 0.0
H3926 H 0.62548 0.86983 0.41935 0.0
C3927 C 0.54114 0.86601 0.35932 0.0
C3928 C 0.57054 0.85439 0.39357 0.0
H3929 H 0.58131 0.85388 0.43402 0.0
C3930 C 0.58623 0.85226 0.38681 0.0
C3931 C 0.56883 0.85545 0.4108 0.0
C3932 C 0.5525 0.85875 0.41881 0.0
C3933 C 0.60013 0.85038 0.39685 0.0
C3934 C 0.59828 0.85079 0.41407 0.0
C3935 C 0.58268 0.85344 0.4208 0.0
C3936 C 0.61217 0.84771 0.42541 0.0
C3937 C 0.61659 0.84733 0.38902 0.0
C3938 C 0.61194 0.83379 0.43547 0.0
C3939 C 0.62434 0.83117 0.44697 0.0
C3940 C 0.63721 0.84251 0.44878 0.0
C3941 C 0.6376 0.85632 0.43845 0.0
C3942 C 0.62517 0.8589 0.42687 0.0
H3943 H 0.61553 0.84473 0.3757 0.0
H3944 H 0.62442 0.85834 0.39062 0.0
H3945 H 0.62285 0.83686 0.39506 0.0
H3946 H 0.60201 0.82501 0.43457 0.0
H3947 H 0.62361 0.82041 0.45472 0.0
H3948 H 0.14354 0.64887 0.43665 0.0
H3949 H 0.13864 0.62709 0.4164 0.0
H3950 H 0.182 0.6019 0.43292 0.0
H3951 H 0.18704 0.62348 0.45301 0.0
H3952 H 0.16209 0.61326 0.39058 0.0
H3953 H 0.14213 0.56882 0.43811 0.0
H3954 H 0.1419 0.59073 0.44138 0.0
H3955 H 0.16085 0.5796 0.44249 0.0
C3956 C 0.15212 0.63878 0.43584 0.0
C3957 C 0.16564 0.63789 0.44651 0.0
C3958 C 0.14929 0.62635 0.42429 0.0
C3959 C 0.15985 0.6128 0.42333 0.0
C3960 C 0.1736 0.61217 0.4336 0.0
H3961 H 0.17419 0.5211 0.37628 0.0
H3962 H 0.17316 0.54552 0.3934 0.0
C3963 C 0.17649 0.62457 0.44504 0.0
C3964 C 0.15645 0.59899 0.412 0.0
H3965 H 0.14784 0.55804 0.41169 0.0
C3966 C 0.15874 0.60122 0.39511 0.0
C3967 C 0.15208 0.58333 0.41799 0.0
C3968 C 0.14895 0.58042 0.43597 0.0
C3969 C 0.15758 0.58796 0.38411 0.0
C3970 C 0.15371 0.57216 0.39019 0.0
C3971 C 0.15083 0.57013 0.40703 0.0
C3972 C 0.15386 0.55731 0.37959 0.0
C3973 C 0.16129 0.59082 0.36623 0.0
C3974 C 0.14317 0.55565 0.36619 0.0
C3975 C 0.14375 0.54161 0.35626 0.0
C3976 C 0.15497 0.52894 0.35962 0.0
C3977 C 0.1654 0.53057 0.37326 0.0
C3978 C 0.16483 0.54456 0.3831 0.0
H3979 H 0.16737 0.60283 0.36414 0.0
H3980 H 0.1693 0.58097 0.36133 0.0
H3981 H 0.14968 0.59069 0.35917 0.0
H3982 H 0.13436 0.56517 0.36343 0.0
H3983 H 0.13549 0.54074 0.34592 0.0
H3984 H 0.48843 0.16563 0.38051 0.0
H3985 H 0.46363 0.16434 0.3972 0.0
H3986 H 0.43854 0.13887 0.35833 0.0
H3987 H 0.46345 0.13999 0.34147 0.0
H3988 H 0.4219 0.16793 0.37211 0.0
H3989 H 0.44182 0.12348 0.41956 0.0
H3990 H 0.45627 0.13955 0.41527 0.0
H3991 H 0.45142 0.12482 0.39965 0.0
C3992 C 0.47771 0.15958 0.37553 0.0
C3993 C 0.47795 0.1529 0.35963 0.0
C3994 C 0.46356 0.1588 0.38513 0.0
C3995 C 0.44929 0.1514 0.37906 0.0
C3996 C 0.44947 0.14455 0.36327 0.0
H3997 H 0.36234 0.13986 0.44189 0.0
H3998 H 0.38319 0.13457 0.42084 0.0
C3999 C 0.46372 0.14516 0.35369 0.0
C4000 C 0.43404 0.15169 0.38897 0.0
H4001 H 0.4181 0.13946 0.42569 0.0
C4002 C 0.42096 0.16153 0.38372 0.0
C4003 C 0.43279 0.14324 0.40404 0.0
C4004 C 0.44625 0.13205 0.40996 0.0
C4005 C 0.40696 0.16374 0.39352 0.0
C4006 C 0.40609 0.15596 0.40898 0.0
C4007 C 0.41883 0.14549 0.41387 0.0
C4008 C 0.3926 0.15936 0.42072 0.0
C4009 C 0.39332 0.17459 0.3874 0.0
C4010 C 0.39097 0.17504 0.42759 0.0
C4011 C 0.37919 0.17806 0.43965 0.0
C4012 C 0.36875 0.16547 0.44509 0.0
C4013 C 0.37012 0.14985 0.4379 0.0
C4014 C 0.38205 0.14679 0.42592 0.0
H4015 H 0.39385 0.17618 0.37389 0.0
H4016 H 0.38117 0.16948 0.39077 0.0
H4017 H 0.39447 0.18688 0.39313 0.0
H4018 H 0.39914 0.18485 0.42394 0.0
H4019 H 0.37849 0.19022 0.44495 0.0
H4020 H 0.13688 0.47139 0.66076 0.0
H4021 H 0.13678 0.44643 0.64394 0.0
H4022 H 0.17949 0.46361 0.61807 0.0
H4023 H 0.17973 0.48847 0.63467 0.0
H4024 H 0.13605 0.44329 0.60792 0.0
H4025 H 0.19234 0.41737 0.63583 0.0
H4026 H 0.18045 0.43332 0.64554 0.0
H4027 H 0.19425 0.43825 0.62911 0.0
C4028 C 0.14621 0.4699 0.65144 0.0
C4029 C 0.15837 0.48194 0.64916 0.0
C4030 C 0.14613 0.45562 0.64185 0.0
C4031 C 0.15829 0.45306 0.62995 0.0
C4032 C 0.17016 0.46521 0.62738 0.0
H4033 H 0.18977 0.38523 0.55705 0.0
H4034 H 0.18592 0.40654 0.57765 0.0
C4035 C 0.17021 0.47948 0.63686 0.0
C4036 C 0.15873 0.43775 0.62011 0.0
H4037 H 0.18313 0.40495 0.61109 0.0
C4038 C 0.1462 0.43475 0.60873 0.0
C4039 C 0.172 0.42665 0.62123 0.0
C4040 C 0.18547 0.42892 0.63368 0.0
C4041 C 0.147 0.42138 0.59786 0.0
C4042 C 0.16054 0.41053 0.59866 0.0
C4043 C 0.17277 0.41326 0.61045 0.0
C4044 C 0.16289 0.39699 0.58666 0.0
C4045 C 0.13376 0.41944 0.58511 0.0
C4046 C 0.1514 0.38425 0.58507 0.0
C4047 C 0.15355 0.37199 0.57321 0.0
C4048 C 0.16731 0.37219 0.56281 0.0
C4049 C 0.17902 0.38468 0.56482 0.0
C4050 C 0.17684 0.39691 0.57661 0.0
H4051 H 0.12629 0.43075 0.58379 0.0
H4052 H 0.13912 0.41633 0.573 0.0
H4053 H 0.12546 0.40932 0.58877 0.0
H4054 H 0.14072 0.38383 0.59293 0.0
H4055 H 0.14433 0.36251 0.57203 0.0
H4056 H 0.64601 0.14092 0.56751 0.0
H4057 H 0.62483 0.13612 0.58833 0.0
H4058 H 0.60804 0.1859 0.58284 0.0
H4059 H 0.62905 0.19081 0.56207 0.0
H4060 H 0.61106 0.17366 0.61681 0.0
H4061 H 0.57485 0.13318 0.57545 0.0
H4062 H 0.59625 0.1285 0.57804 0.0
H4063 H 0.59033 0.14704 0.56782 0.0
C4064 C 0.63793 0.1509 0.57088 0.0
C4065 C 0.63917 0.16623 0.56306 0.0
C4066 C 0.62579 0.14811 0.58271 0.0
C4067 C 0.61476 0.1606 0.58699 0.0
C4068 C 0.6164 0.17608 0.57969 0.0
H4069 H 0.51967 0.16877 0.62887 0.0
H4070 H 0.54447 0.16785 0.61214 0.0
C4071 C 0.62842 0.17885 0.5678 0.0
C4072 C 0.60104 0.15752 0.59853 0.0
H4073 H 0.56375 0.13867 0.60147 0.0
C4074 C 0.6008 0.16585 0.61358 0.0
C4075 C 0.58762 0.14744 0.59418 0.0
C4076 C 0.5871 0.13856 0.57797 0.0
C4077 C 0.58737 0.16454 0.62429 0.0
C4078 C 0.57385 0.15465 0.61983 0.0
C4079 C 0.5742 0.14612 0.6049 0.0
C4080 C 0.55867 0.15418 0.62983 0.0
C4081 C 0.58739 0.17424 0.64003 0.0
C4082 C 0.55833 0.1465 0.64522 0.0
C4083 C 0.54408 0.14689 0.65482 0.0
C4084 C 0.52997 0.15509 0.64923 0.0
C4085 C 0.53031 0.16242 0.63362 0.0
C4086 C 0.54447 0.16189 0.62401 0.0
H4087 H 0.5979 0.18287 0.64075 0.0
H4088 H 0.57583 0.18132 0.64122 0.0
H4089 H 0.5881 0.1657 0.65058 0.0
H4090 H 0.56914 0.14036 0.64986 0.0
H4091 H 0.54426 0.14114 0.66678 0.0
H4092 H 0.48537 0.83353 0.63371 0.0
H4093 H 0.4606 0.8339 0.61703 0.0
H4094 H 0.44181 0.8743 0.64539 0.0
H4095 H 0.46669 0.87404 0.66232 0.0
H4096 H 0.42703 0.83037 0.63027 0.0
H4097 H 0.43728 0.88836 0.59568 0.0
H4098 H 0.45392 0.87727 0.60516 0.0
H4099 H 0.43986 0.88868 0.6176 0.0
C4100 C 0.47608 0.84262 0.63639 0.0
C4101 C 0.47807 0.85378 0.6494 0.0
C4102 C 0.46189 0.84277 0.62683 0.0
C4103 C 0.44941 0.85416 0.62992 0.0
C4104 C 0.45138 0.8655 0.64271 0.0
H4105 H 0.36 0.86542 0.57031 0.0
H4106 H 0.38039 0.86924 0.5921 0.0
C4107 C 0.46559 0.86532 0.65239 0.0
C4108 C 0.43418 0.85358 0.61999 0.0
H4109 H 0.41383 0.873 0.589 0.0
C4110 C 0.42404 0.83976 0.62135 0.0
C4111 C 0.43024 0.86592 0.60849 0.0
C4112 C 0.44087 0.88091 0.60648 0.0
C4113 C 0.41027 0.83774 0.61124 0.0
C4114 C 0.40676 0.84967 0.59914 0.0
C4115 C 0.41654 0.86383 0.59823 0.0
C4116 C 0.39383 0.84707 0.58655 0.0
C4117 C 0.39964 0.82279 0.61359 0.0
C4118 C 0.39463 0.8334 0.57614 0.0
C4119 C 0.38302 0.83116 0.56377 0.0
C4120 C 0.37038 0.84263 0.56139 0.0
C4121 C 0.36951 0.8563 0.57187 0.0
C4122 C 0.38118 0.85853 0.5843 0.0
H4123 H 0.40052 0.81804 0.62631 0.0
H4124 H 0.38659 0.82549 0.61084 0.0
H4125 H 0.40386 0.81295 0.6052 0.0
H4126 H 0.40449 0.82459 0.57734 0.0
H4127 H 0.38416 0.82056 0.55587 0.0
loop_
_geom_bond_atom_site_label_1
_geom_bond_atom_site_label_2
_geom_bond_distance
_geom_bond_site_symmetry_2
_ccdc_geom_bond_type
O0 Cd1 2.223 . S
O0 C8 1.315 . S
Cd1 O0 2.223 . S
Cd1 O4 2.297 . S
Cd1 O5 2.439 . S
Cd1 O11 2.240 . S
Cd2 O3 2.240 . S
Cd2 O10 2.223 . S
Cd2 O12 2.297 . S
Cd2 O13 2.439 . S
O3 Cd2 2.240 . S
O3 C8 1.279 . S
O4 Cd1 2.297 . S
O4 C6 1.247 . S
O5 Cd1 2.439 . S
O5 C6 1.208 . S
C6 O4 1.247 . S
C6 O5 1.208 . S
C7 O12 1.247 . S
C7 O13 1.208 . S
C8 O0 1.315 . S
C8 O3 1.279 . S
C9 O10 1.315 . S
C9 O11 1.279 . S
O10 Cd2 2.223 . S
O10 C9 1.315 . S
O11 Cd1 2.240 . S
O11 C9 1.279 . S
O12 Cd2 2.297 . S
O12 C7 1.247 . S
O13 Cd2 2.439 . S
O13 C7 1.208 . S
O14 Cd15 2.223 . S
O14 C22 1.315 . S
Cd15 O14 2.223 . S
Cd15 O18 2.297 . S
Cd15 O19 2.439 . S
Cd15 O25 2.240 . S
Cd16 O17 2.240 . S
Cd16 O24 2.223 . S
Cd16 O26 2.297 . S
Cd16 O27 2.439 . S
O17 Cd16 2.240 . S
O17 C22 1.279 . S
O18 Cd15 2.297 . S
O18 C20 1.247 . S
O19 Cd15 2.439 . S
O19 C20 1.208 . S
C20 O18 1.247 . S
C20 O19 1.208 . S
C21 O26 1.247 . S
C21 O27 1.208 . S
C22 O14 1.315 . S
C22 O17 1.279 . S
C23 O24 1.315 . S
C23 O25 1.279 . S
O24 Cd16 2.223 . S
O24 C23 1.315 . S
O25 Cd15 2.240 . S
O25 C23 1.279 . S
O26 Cd16 2.297 . S
O26 C21 1.247 . S
O27 Cd16 2.439 . S
O27 C21 1.208 . S
O28 Cd29 2.223 . S
O28 C36 1.315 . S
Cd29 O28 2.223 . S
Cd29 O32 2.297 . S
Cd29 O33 2.439 . S
Cd29 O39 2.240 . S
Cd30 O31 2.240 . S
Cd30 O38 2.223 . S
Cd30 O40 2.297 . S
Cd30 O41 2.439 . S
O31 Cd30 2.240 . S
O31 C36 1.279 . S
O32 Cd29 2.297 . S
O32 C34 1.247 . S
O33 Cd29 2.439 . S
O33 C34 1.208 . S
C34 O32 1.247 . S
C34 O33 1.208 . S
C35 O40 1.247 . S
C35 O41 1.208 . S
C36 O28 1.315 . S
C36 O31 1.279 . S
C37 O38 1.315 . S
C37 O39 1.279 . S
O38 Cd30 2.223 . S
O38 C37 1.315 . S
O39 Cd29 2.240 . S
O39 C37 1.279 . S
O40 Cd30 2.297 . S
O40 C35 1.247 . S
O41 Cd30 2.439 . S
O41 C35 1.208 . S
O42 Cd43 2.223 . S
O42 C50 1.315 . S
Cd43 O42 2.223 . S
Cd43 O46 2.297 . S
Cd43 O47 2.439 . S
Cd43 O53 2.240 . S
Cd44 O45 2.240 . S
Cd44 O52 2.223 . S
Cd44 O54 2.297 . S
Cd44 O55 2.439 . S
O45 Cd44 2.240 . S
O45 C50 1.279 . S
O46 Cd43 2.297 . S
O46 C48 1.247 . S
O47 Cd43 2.439 . S
O47 C48 1.208 . S
C48 O46 1.247 . S
C48 O47 1.208 . S
C49 O54 1.247 . S
C49 O55 1.208 . S
C50 O42 1.315 . S
C50 O45 1.279 . S
C51 O52 1.315 . S
C51 O53 1.279 . S
O52 Cd44 2.223 . S
O52 C51 1.315 . S
O53 Cd43 2.240 . S
O53 C51 1.279 . S
O54 Cd44 2.297 . S
O54 C49 1.247 . S
O55 Cd44 2.439 . S
O55 C49 1.208 . S
O56 Cd57 2.223 . S
O56 C64 1.315 . S
Cd57 O56 2.223 . S
Cd57 O60 2.297 . S
Cd57 O61 2.439 . S
Cd57 O67 2.240 . S
Cd58 O59 2.240 . S
Cd58 O66 2.223 . S
Cd58 O68 2.297 . S
Cd58 O69 2.439 . S
O59 Cd58 2.240 . S
O59 C64 1.279 . S
O60 Cd57 2.297 . S
O60 C62 1.247 . S
O61 Cd57 2.439 . S
O61 C62 1.208 . S
C62 O60 1.247 . S
C62 O61 1.208 . S
C63 O68 1.247 . S
C63 O69 1.208 . S
C64 O56 1.315 . S
C64 O59 1.279 . S
C65 O66 1.315 . S
C65 O67 1.279 . S
O66 Cd58 2.223 . S
O66 C65 1.315 . S
O67 Cd57 2.240 . S
O67 C65 1.279 . S
O68 Cd58 2.297 . S
O68 C63 1.247 . S
O69 Cd58 2.439 . S
O69 C63 1.208 . S
O70 Cd71 2.223 . S
O70 C78 1.315 . S
Cd71 O70 2.223 . S
Cd71 O74 2.297 . S
Cd71 O75 2.439 . S
Cd71 O81 2.240 . S
Cd72 O73 2.240 . S
Cd72 O80 2.223 . S
Cd72 O82 2.297 . S
Cd72 O83 2.439 . S
O73 Cd72 2.240 . S
O73 C78 1.279 . S
O74 Cd71 2.297 . S
O74 C76 1.247 . S
O75 Cd71 2.439 . S
O75 C76 1.208 . S
C76 O74 1.247 . S
C76 O75 1.208 . S
C77 O82 1.247 . S
C77 O83 1.208 . S
C78 O70 1.315 . S
C78 O73 1.279 . S
C79 O80 1.315 . S
C79 O81 1.279 . S
O80 Cd72 2.223 . S
O80 C79 1.315 . S
O81 Cd71 2.240 . S
O81 C79 1.279 . S
O82 Cd72 2.297 . S
O82 C77 1.247 . S
O83 Cd72 2.439 . S
O83 C77 1.208 . S
O84 Cd85 2.223 . S
O84 C92 1.315 . S
Cd85 O84 2.223 . S
Cd85 O88 2.297 . S
Cd85 O89 2.439 . S
Cd85 O95 2.240 . S
Cd86 O87 2.240 . S
Cd86 O94 2.223 . S
Cd86 O96 2.297 . S
Cd86 O97 2.439 . S
O87 Cd86 2.240 . S
O87 C92 1.279 . S
O88 Cd85 2.297 . S
O88 C90 1.247 . S
O89 Cd85 2.439 . S
O89 C90 1.208 . S
C90 O88 1.247 . S
C90 O89 1.208 . S
C91 O96 1.247 . S
C91 O97 1.208 . S
C92 O84 1.315 . S
C92 O87 1.279 . S
C93 O94 1.315 . S
C93 O95 1.279 . S
O94 Cd86 2.223 . S
O94 C93 1.315 . S
O95 Cd85 2.240 . S
O95 C93 1.279 . S
O96 Cd86 2.297 . S
O96 C91 1.247 . S
O97 Cd86 2.439 . S
O97 C91 1.208 . S
O98 Cd99 2.223 . S
O98 C106 1.315 . S
Cd99 O98 2.223 . S
Cd99 O102 2.297 . S
Cd99 O103 2.439 . S
Cd99 O109 2.240 . S
Cd100 O101 2.240 . S
Cd100 O108 2.223 . S
Cd100 O110 2.297 . S
Cd100 O111 2.439 . S
O101 Cd100 2.240 . S
O101 C106 1.279 . S
O102 Cd99 2.297 . S
O102 C104 1.247 . S
O103 Cd99 2.439 . S
O103 C104 1.208 . S
C104 O102 1.247 . S
C104 O103 1.208 . S
C105 O110 1.247 . S
C105 O111 1.208 . S
C106 O98 1.315 . S
C106 O101 1.279 . S
C107 O108 1.315 . S
C107 O109 1.279 . S
O108 Cd100 2.223 . S
O108 C107 1.315 . S
O109 Cd99 2.240 . S
O109 C107 1.279 . S
O110 Cd100 2.297 . S
O110 C105 1.247 . S
O111 Cd100 2.439 . S
O111 C105 1.208 . S
O112 Cd113 2.223 . S
O112 C120 1.315 . S
Cd113 O112 2.223 . S
Cd113 O116 2.297 . S
Cd113 O117 2.439 . S
Cd113 O123 2.240 . S
Cd114 O115 2.240 . S
Cd114 O122 2.223 . S
Cd114 O124 2.297 . S
Cd114 O125 2.439 . S
O115 Cd114 2.240 . S
O115 C120 1.279 . S
O116 Cd113 2.297 . S
O116 C118 1.247 . S
O117 Cd113 2.439 . S
O117 C118 1.208 . S
C118 O116 1.247 . S
C118 O117 1.208 . S
C119 O124 1.247 . S
C119 O125 1.208 . S
C120 O112 1.315 . S
C120 O115 1.279 . S
C121 O122 1.315 . S
C121 O123 1.279 . S
O122 Cd114 2.223 . S
O122 C121 1.315 . S
O123 Cd113 2.240 . S
O123 C121 1.279 . S
O124 Cd114 2.297 . S
O124 C119 1.247 . S
O125 Cd114 2.439 . S
O125 C119 1.208 . S
O126 Cd127 2.223 . S
O126 C134 1.315 . S
Cd127 O126 2.223 . S
Cd127 O130 2.297 . S
Cd127 O131 2.439 . S
Cd127 O137 2.240 . S
Cd128 O129 2.240 . S
Cd128 O136 2.223 . S
Cd128 O138 2.297 . S
Cd128 O139 2.439 . S
O129 Cd128 2.240 . S
O129 C134 1.279 . S
O130 Cd127 2.297 . S
O130 C132 1.247 . S
O131 Cd127 2.439 . S
O131 C132 1.208 . S
C132 O130 1.247 . S
C132 O131 1.208 . S
C133 O138 1.247 . S
C133 O139 1.208 . S
C134 O126 1.315 . S
C134 O129 1.279 . S
C135 O136 1.315 . S
C135 O137 1.279 . S
O136 Cd128 2.223 . S
O136 C135 1.315 . S
O137 Cd127 2.240 . S
O137 C135 1.279 . S
O138 Cd128 2.297 . S
O138 C133 1.247 . S
O139 Cd128 2.439 . S
O139 C133 1.208 . S
O140 Cd141 2.223 . S
O140 C148 1.315 . S
Cd141 O140 2.223 . S
Cd141 O144 2.297 . S
Cd141 O145 2.439 . S
Cd141 O151 2.240 . S
Cd142 O143 2.240 . S
Cd142 O150 2.223 . S
Cd142 O152 2.297 . S
Cd142 O153 2.439 . S
O143 Cd142 2.240 . S
O143 C148 1.279 . S
O144 Cd141 2.297 . S
O144 C146 1.247 . S
O145 Cd141 2.439 . S
O145 C146 1.208 . S
C146 O144 1.247 . S
C146 O145 1.208 . S
C147 O152 1.247 . S
C147 O153 1.208 . S
C148 O140 1.315 . S
C148 O143 1.279 . S
C149 O150 1.315 . S
C149 O151 1.279 . S
O150 Cd142 2.223 . S
O150 C149 1.315 . S
O151 Cd141 2.240 . S
O151 C149 1.279 . S
O152 Cd142 2.297 . S
O152 C147 1.247 . S
O153 Cd142 2.439 . S
O153 C147 1.208 . S
O154 Cd155 2.223 . S
O154 C162 1.315 . S
Cd155 O154 2.223 . S
Cd155 O158 2.297 . S
Cd155 O159 2.439 . S
Cd155 O165 2.240 . S
Cd156 O157 2.240 . S
Cd156 O164 2.223 . S
Cd156 O166 2.297 . S
Cd156 O167 2.439 . S
O157 Cd156 2.240 . S
O157 C162 1.279 . S
O158 Cd155 2.297 . S
O158 C160 1.247 . S
O159 Cd155 2.439 . S
O159 C160 1.208 . S
C160 O158 1.247 . S
C160 O159 1.208 . S
C161 O166 1.247 . S
C161 O167 1.208 . S
C162 O154 1.315 . S
C162 O157 1.279 . S
C163 O164 1.315 . S
C163 O165 1.279 . S
O164 Cd156 2.223 . S
O164 C163 1.315 . S
O165 Cd155 2.240 . S
O165 C163 1.279 . S
O166 Cd156 2.297 . S
O166 C161 1.247 . S
O167 Cd156 2.439 . S
O167 C161 1.208 . S
O168 Cd169 2.223 . S
O168 C176 1.315 . S
Cd169 O168 2.223 . S
Cd169 O172 2.297 . S
Cd169 O173 2.439 . S
Cd169 O179 2.240 . S
Cd170 O171 2.240 . S
Cd170 O178 2.223 . S
Cd170 O180 2.297 . S
Cd170 O181 2.439 . S
O171 Cd170 2.240 . S
O171 C176 1.279 . S
O172 Cd169 2.297 . S
O172 C174 1.247 . S
O173 Cd169 2.439 . S
O173 C174 1.208 . S
C174 O172 1.247 . S
C174 O173 1.208 . S
C175 O180 1.247 . S
C175 O181 1.208 . S
C176 O168 1.315 . S
C176 O171 1.279 . S
C177 O178 1.315 . S
C177 O179 1.279 . S
O178 Cd170 2.223 . S
O178 C177 1.315 . S
O179 Cd169 2.240 . S
O179 C177 1.279 . S
O180 Cd170 2.297 . S
O180 C175 1.247 . S
O181 Cd170 2.439 . S
O181 C175 1.208 . S
O182 Cd183 2.223 . S
O182 C190 1.315 . S
Cd183 O182 2.223 . S
Cd183 O186 2.297 . S
Cd183 O187 2.439 . S
Cd183 O193 2.240 . S
Cd184 O185 2.240 . S
Cd184 O192 2.223 . S
Cd184 O194 2.297 . S
Cd184 O195 2.439 . S
O185 Cd184 2.240 . S
O185 C190 1.279 . S
O186 Cd183 2.297 . S
O186 C188 1.247 . S
O187 Cd183 2.439 . S
O187 C188 1.208 . S
C188 O186 1.247 . S
C188 O187 1.208 . S
C189 O194 1.247 . S
C189 O195 1.208 . S
C190 O182 1.315 . S
C190 O185 1.279 . S
C191 O192 1.315 . S
C191 O193 1.279 . S
O192 Cd184 2.223 . S
O192 C191 1.315 . S
O193 Cd183 2.240 . S
O193 C191 1.279 . S
O194 Cd184 2.297 . S
O194 C189 1.247 . S
O195 Cd184 2.439 . S
O195 C189 1.208 . S
O196 Cd197 2.223 . S
O196 C204 1.315 . S
Cd197 O196 2.223 . S
Cd197 O200 2.297 . S
Cd197 O201 2.439 . S
Cd197 O207 2.240 . S
Cd198 O199 2.240 . S
Cd198 O206 2.223 . S
Cd198 O208 2.297 . S
Cd198 O209 2.439 . S
O199 Cd198 2.240 . S
O199 C204 1.279 . S
O200 Cd197 2.297 . S
O200 C202 1.247 . S
O201 Cd197 2.439 . S
O201 C202 1.208 . S
C202 O200 1.247 . S
C202 O201 1.208 . S
C203 O208 1.247 . S
C203 O209 1.208 . S
C204 O196 1.315 . S
C204 O199 1.279 . S
C205 O206 1.315 . S
C205 O207 1.279 . S
O206 Cd198 2.223 . S
O206 C205 1.315 . S
O207 Cd197 2.240 . S
O207 C205 1.279 . S
O208 Cd198 2.297 . S
O208 C203 1.247 . S
O209 Cd198 2.439 . S
O209 C203 1.208 . S
O210 Cd211 2.223 . S
O210 C218 1.315 . S
Cd211 O210 2.223 . S
Cd211 O214 2.297 . S
Cd211 O215 2.439 . S
Cd211 O221 2.240 . S
Cd212 O213 2.240 . S
Cd212 O220 2.223 . S
Cd212 O222 2.297 . S
Cd212 O223 2.439 . S
O213 Cd212 2.240 . S
O213 C218 1.279 . S
O214 Cd211 2.297 . S
O214 C216 1.247 . S
O215 Cd211 2.439 . S
O215 C216 1.208 . S
C216 O214 1.247 . S
C216 O215 1.208 . S
C217 O222 1.247 . S
C217 O223 1.208 . S
C218 O210 1.315 . S
C218 O213 1.279 . S
C219 O220 1.315 . S
C219 O221 1.279 . S
O220 Cd212 2.223 . S
O220 C219 1.315 . S
O221 Cd211 2.240 . S
O221 C219 1.279 . S
O222 Cd212 2.297 . S
O222 C217 1.247 . S
O223 Cd212 2.439 . S
O223 C217 1.208 . S
O224 Cd225 2.223 . S
O224 C232 1.315 . S
Cd225 O224 2.223 . S
Cd225 O228 2.297 . S
Cd225 O229 2.439 . S
Cd225 O235 2.240 . S
Cd226 O227 2.240 . S
Cd226 O234 2.223 . S
Cd226 O236 2.297 . S
Cd226 O237 2.439 . S
O227 Cd226 2.240 . S
O227 C232 1.279 . S
O228 Cd225 2.297 . S
O228 C230 1.247 . S
O229 Cd225 2.439 . S
O229 C230 1.208 . S
C230 O228 1.247 . S
C230 O229 1.208 . S
C231 O236 1.247 . S
C231 O237 1.208 . S
C232 O224 1.315 . S
C232 O227 1.279 . S
C233 O234 1.315 . S
C233 O235 1.279 . S
O234 Cd226 2.223 . S
O234 C233 1.315 . S
O235 Cd225 2.240 . S
O235 C233 1.279 . S
O236 Cd226 2.297 . S
O236 C231 1.247 . S
O237 Cd226 2.439 . S
O237 C231 1.208 . S
O238 Cd239 2.223 . S
O238 C246 1.315 . S
Cd239 O238 2.223 . S
Cd239 O242 2.297 . S
Cd239 O243 2.439 . S
Cd239 O249 2.240 . S
Cd240 O241 2.240 . S
Cd240 O248 2.223 . S
Cd240 O250 2.297 . S
Cd240 O251 2.439 . S
O241 Cd240 2.240 . S
O241 C246 1.279 . S
O242 Cd239 2.297 . S
O242 C244 1.247 . S
O243 Cd239 2.439 . S
O243 C244 1.208 . S
C244 O242 1.247 . S
C244 O243 1.208 . S
C245 O250 1.247 . S
C245 O251 1.208 . S
C246 O238 1.315 . S
C246 O241 1.279 . S
C247 O248 1.315 . S
C247 O249 1.279 . S
O248 Cd240 2.223 . S
O248 C247 1.315 . S
O249 Cd239 2.240 . S
O249 C247 1.279 . S
O250 Cd240 2.297 . S
O250 C245 1.247 . S
O251 Cd240 2.439 . S
O251 C245 1.208 . S
O252 Cd253 2.223 . S
O252 C260 1.315 . S
Cd253 O252 2.223 . S
Cd253 O256 2.297 . S
Cd253 O257 2.439 . S
Cd253 O263 2.240 . S
Cd254 O255 2.240 . S
Cd254 O262 2.223 . S
Cd254 O264 2.297 . S
Cd254 O265 2.439 . S
O255 Cd254 2.240 . S
O255 C260 1.279 . S
O256 Cd253 2.297 . S
O256 C258 1.247 . S
O257 Cd253 2.439 . S
O257 C258 1.208 . S
C258 O256 1.247 . S
C258 O257 1.208 . S
C259 O264 1.247 . S
C259 O265 1.208 . S
C260 O252 1.315 . S
C260 O255 1.279 . S
C261 O262 1.315 . S
C261 O263 1.279 . S
O262 Cd254 2.223 . S
O262 C261 1.315 . S
O263 Cd253 2.240 . S
O263 C261 1.279 . S
O264 Cd254 2.297 . S
O264 C259 1.247 . S
O265 Cd254 2.439 . S
O265 C259 1.208 . S
O266 Cd267 2.223 . S
O266 C274 1.315 . S
Cd267 O266 2.223 . S
Cd267 O270 2.297 . S
Cd267 O271 2.439 . S
Cd267 O277 2.240 . S
Cd268 O269 2.240 . S
Cd268 O276 2.223 . S
Cd268 O278 2.297 . S
Cd268 O279 2.439 . S
O269 Cd268 2.240 . S
O269 C274 1.279 . S
O270 Cd267 2.297 . S
O270 C272 1.247 . S
O271 Cd267 2.439 . S
O271 C272 1.208 . S
C272 O270 1.247 . S
C272 O271 1.208 . S
C273 O278 1.247 . S
C273 O279 1.208 . S
C274 O266 1.315 . S
C274 O269 1.279 . S
C275 O276 1.315 . S
C275 O277 1.279 . S
O276 Cd268 2.223 . S
O276 C275 1.315 . S
O277 Cd267 2.240 . S
O277 C275 1.279 . S
O278 Cd268 2.297 . S
O278 C273 1.247 . S
O279 Cd268 2.439 . S
O279 C273 1.208 . S
O280 Cd281 2.223 . S
O280 C288 1.315 . S
Cd281 O280 2.223 . S
Cd281 O284 2.297 . S
Cd281 O285 2.439 . S
Cd281 O291 2.240 . S
Cd282 O283 2.240 . S
Cd282 O290 2.223 . S
Cd282 O292 2.297 . S
Cd282 O293 2.439 . S
O283 Cd282 2.240 . S
O283 C288 1.279 . S
O284 Cd281 2.297 . S
O284 C286 1.247 . S
O285 Cd281 2.439 . S
O285 C286 1.208 . S
C286 O284 1.247 . S
C286 O285 1.208 . S
C287 O292 1.247 . S
C287 O293 1.208 . S
C288 O280 1.315 . S
C288 O283 1.279 . S
C289 O290 1.315 . S
C289 O291 1.279 . S
O290 Cd282 2.223 . S
O290 C289 1.315 . S
O291 Cd281 2.240 . S
O291 C289 1.279 . S
O292 Cd282 2.297 . S
O292 C287 1.247 . S
O293 Cd282 2.439 . S
O293 C287 1.208 . S
O294 Cd295 2.223 . S
O294 C302 1.315 . S
Cd295 O294 2.223 . S
Cd295 O298 2.297 . S
Cd295 O299 2.439 . S
Cd295 O305 2.240 . S
Cd296 O297 2.240 . S
Cd296 O304 2.223 . S
Cd296 O306 2.297 . S
Cd296 O307 2.439 . S
O297 Cd296 2.240 . S
O297 C302 1.279 . S
O298 Cd295 2.297 . S
O298 C300 1.247 . S
O299 Cd295 2.439 . S
O299 C300 1.208 . S
C300 O298 1.247 . S
C300 O299 1.208 . S
C301 O306 1.247 . S
C301 O307 1.208 . S
C302 O294 1.315 . S
C302 O297 1.279 . S
C303 O304 1.315 . S
C303 O305 1.279 . S
O304 Cd296 2.223 . S
O304 C303 1.315 . S
O305 Cd295 2.240 . S
O305 C303 1.279 . S
O306 Cd296 2.297 . S
O306 C301 1.247 . S
O307 Cd296 2.439 . S
O307 C301 1.208 . S
O308 Cd309 2.223 . S
O308 C316 1.315 . S
Cd309 O308 2.223 . S
Cd309 O312 2.297 . S
Cd309 O313 2.439 . S
Cd309 O319 2.240 . S
Cd310 O311 2.240 . S
Cd310 O318 2.223 . S
Cd310 O320 2.297 . S
Cd310 O321 2.439 . S
O311 Cd310 2.240 . S
O311 C316 1.279 . S
O312 Cd309 2.297 . S
O312 C314 1.247 . S
O313 Cd309 2.439 . S
O313 C314 1.208 . S
C314 O312 1.247 . S
C314 O313 1.208 . S
C315 O320 1.247 . S
C315 O321 1.208 . S
C316 O308 1.315 . S
C316 O311 1.279 . S
C317 O318 1.315 . S
C317 O319 1.279 . S
O318 Cd310 2.223 . S
O318 C317 1.315 . S
O319 Cd309 2.240 . S
O319 C317 1.279 . S
O320 Cd310 2.297 . S
O320 C315 1.247 . S
O321 Cd310 2.439 . S
O321 C315 1.208 . S
O322 Cd323 2.223 . S
O322 C330 1.315 . S
Cd323 O322 2.223 . S
Cd323 O326 2.297 . S
Cd323 O327 2.439 . S
Cd323 O333 2.240 . S
Cd324 O325 2.240 . S
Cd324 O332 2.223 . S
Cd324 O334 2.297 . S
Cd324 O335 2.439 . S
O325 Cd324 2.240 . S
O325 C330 1.279 . S
O326 Cd323 2.297 . S
O326 C328 1.247 . S
O327 Cd323 2.439 . S
O327 C328 1.208 . S
C328 O326 1.247 . S
C328 O327 1.208 . S
C329 O334 1.247 . S
C329 O335 1.208 . S
C330 O322 1.315 . S
C330 O325 1.279 . S
C331 O332 1.315 . S
C331 O333 1.279 . S
O332 Cd324 2.223 . S
O332 C331 1.315 . S
O333 Cd323 2.240 . S
O333 C331 1.279 . S
O334 Cd324 2.297 . S
O334 C329 1.247 . S
O335 Cd324 2.439 . S
O335 C329 1.208 . S
O336 Cd337 2.223 . S
O336 C344 1.315 . S
Cd337 O336 2.223 . S
Cd337 O340 2.297 . S
Cd337 O341 2.439 . S
Cd337 O347 2.240 . S
Cd338 O339 2.240 . S
Cd338 O346 2.223 . S
Cd338 O348 2.297 . S
Cd338 O349 2.439 . S
O339 Cd338 2.240 . S
O339 C344 1.279 . S
O340 Cd337 2.297 . S
O340 C342 1.247 . S
O341 Cd337 2.439 . S
O341 C342 1.208 . S
C342 O340 1.247 . S
C342 O341 1.208 . S
C343 O348 1.247 . S
C343 O349 1.208 . S
C344 O336 1.315 . S
C344 O339 1.279 . S
C345 O346 1.315 . S
C345 O347 1.279 . S
O346 Cd338 2.223 . S
O346 C345 1.315 . S
O347 Cd337 2.240 . S
O347 C345 1.279 . S
O348 Cd338 2.297 . S
O348 C343 1.247 . S
O349 Cd338 2.439 . S
O349 C343 1.208 . S
O350 Cd351 2.223 . S
O350 C358 1.315 . S
Cd351 O350 2.223 . S
Cd351 O354 2.297 . S
Cd351 O355 2.439 . S
Cd351 O361 2.240 . S
Cd352 O353 2.240 . S
Cd352 O360 2.223 . S
Cd352 O362 2.297 . S
Cd352 O363 2.439 . S
O353 Cd352 2.240 . S
O353 C358 1.279 . S
O354 Cd351 2.297 . S
O354 C356 1.247 . S
O355 Cd351 2.439 . S
O355 C356 1.208 . S
C356 O354 1.247 . S
C356 O355 1.208 . S
C357 O362 1.247 . S
C357 O363 1.208 . S
C358 O350 1.315 . S
C358 O353 1.279 . S
C359 O360 1.315 . S
C359 O361 1.279 . S
O360 Cd352 2.223 . S
O360 C359 1.315 . S
O361 Cd351 2.240 . S
O361 C359 1.279 . S
O362 Cd352 2.297 . S
O362 C357 1.247 . S
O363 Cd352 2.439 . S
O363 C357 1.208 . S
O364 Cd365 2.223 . S
O364 C372 1.315 . S
Cd365 O364 2.223 . S
Cd365 O368 2.297 . S
Cd365 O369 2.439 . S
Cd365 O375 2.240 . S
Cd366 O367 2.240 . S
Cd366 O374 2.223 . S
Cd366 O376 2.297 . S
Cd366 O377 2.439 . S
O367 Cd366 2.240 . S
O367 C372 1.279 . S
O368 Cd365 2.297 . S
O368 C370 1.247 . S
O369 Cd365 2.439 . S
O369 C370 1.208 . S
C370 O368 1.247 . S
C370 O369 1.208 . S
C371 O376 1.247 . S
C371 O377 1.208 . S
C372 O364 1.315 . S
C372 O367 1.279 . S
C373 O374 1.315 . S
C373 O375 1.279 . S
O374 Cd366 2.223 . S
O374 C373 1.315 . S
O375 Cd365 2.240 . S
O375 C373 1.279 . S
O376 Cd366 2.297 . S
O376 C371 1.247 . S
O377 Cd366 2.439 . S
O377 C371 1.208 . S
O378 Cd379 2.223 . S
O378 C386 1.315 . S
Cd379 O378 2.223 . S
Cd379 O382 2.297 . S
Cd379 O383 2.439 . S
Cd379 O389 2.240 . S
Cd380 O381 2.240 . S
Cd380 O388 2.223 . S
Cd380 O390 2.297 . S
Cd380 O391 2.439 . S
O381 Cd380 2.240 . S
O381 C386 1.279 . S
O382 Cd379 2.297 . S
O382 C384 1.247 . S
O383 Cd379 2.439 . S
O383 C384 1.208 . S
C384 O382 1.247 . S
C384 O383 1.208 . S
C385 O390 1.247 . S
C385 O391 1.208 . S
C386 O378 1.315 . S
C386 O381 1.279 . S
C387 O388 1.315 . S
C387 O389 1.279 . S
O388 Cd380 2.223 . S
O388 C387 1.315 . S
O389 Cd379 2.240 . S
O389 C387 1.279 . S
O390 Cd380 2.297 . S
O390 C385 1.247 . S
O391 Cd380 2.439 . S
O391 C385 1.208 . S
O392 Cd393 2.223 . S
O392 C400 1.315 . S
Cd393 O392 2.223 . S
Cd393 O396 2.297 . S
Cd393 O397 2.439 . S
Cd393 O403 2.240 . S
Cd394 O395 2.240 . S
Cd394 O402 2.223 . S
Cd394 O404 2.297 . S
Cd394 O405 2.439 . S
O395 Cd394 2.240 . S
O395 C400 1.279 . S
O396 Cd393 2.297 . S
O396 C398 1.247 . S
O397 Cd393 2.439 . S
O397 C398 1.208 . S
C398 O396 1.247 . S
C398 O397 1.208 . S
C399 O404 1.247 . S
C399 O405 1.208 . S
C400 O392 1.315 . S
C400 O395 1.279 . S
C401 O402 1.315 . S
C401 O403 1.279 . S
O402 Cd394 2.223 . S
O402 C401 1.315 . S
O403 Cd393 2.240 . S
O403 C401 1.279 . S
O404 Cd394 2.297 . S
O404 C399 1.247 . S
O405 Cd394 2.439 . S
O405 C399 1.208 . S
O406 Cd407 2.223 . S
O406 C414 1.315 . S
Cd407 O406 2.223 . S
Cd407 O410 2.297 . S
Cd407 O411 2.439 . S
Cd407 O417 2.240 . S
Cd408 O409 2.240 . S
Cd408 O416 2.223 . S
Cd408 O418 2.297 . S
Cd408 O419 2.439 . S
O409 Cd408 2.240 . S
O409 C414 1.279 . S
O410 Cd407 2.297 . S
O410 C412 1.247 . S
O411 Cd407 2.439 . S
O411 C412 1.208 . S
C412 O410 1.247 . S
C412 O411 1.208 . S
C413 O418 1.247 . S
C413 O419 1.208 . S
C414 O406 1.315 . S
C414 O409 1.279 . S
C415 O416 1.315 . S
C415 O417 1.279 . S
O416 Cd408 2.223 . S
O416 C415 1.315 . S
O417 Cd407 2.240 . S
O417 C415 1.279 . S
O418 Cd408 2.297 . S
O418 C413 1.247 . S
O419 Cd408 2.439 . S
O419 C413 1.208 . S
O420 Cd421 2.223 . S
O420 C428 1.315 . S
Cd421 O420 2.223 . S
Cd421 O424 2.297 . S
Cd421 O425 2.439 . S
Cd421 O431 2.240 . S
Cd422 O423 2.240 . S
Cd422 O430 2.223 . S
Cd422 O432 2.297 . S
Cd422 O433 2.439 . S
O423 Cd422 2.240 . S
O423 C428 1.279 . S
O424 Cd421 2.297 . S
O424 C426 1.247 . S
O425 Cd421 2.439 . S
O425 C426 1.208 . S
C426 O424 1.247 . S
C426 O425 1.208 . S
C427 O432 1.247 . S
C427 O433 1.208 . S
C428 O420 1.315 . S
C428 O423 1.279 . S
C429 O430 1.315 . S
C429 O431 1.279 . S
O430 Cd422 2.223 . S
O430 C429 1.315 . S
O431 Cd421 2.240 . S
O431 C429 1.279 . S
O432 Cd422 2.297 . S
O432 C427 1.247 . S
O433 Cd422 2.439 . S
O433 C427 1.208 . S
O434 Cd435 2.223 . S
O434 C442 1.315 . S
Cd435 O434 2.223 . S
Cd435 O438 2.297 . S
Cd435 O439 2.439 . S
Cd435 O445 2.240 . S
Cd436 O437 2.240 . S
Cd436 O444 2.223 . S
Cd436 O446 2.297 . S
Cd436 O447 2.439 . S
O437 Cd436 2.240 . S
O437 C442 1.279 . S
O438 Cd435 2.297 . S
O438 C440 1.247 . S
O439 Cd435 2.439 . S
O439 C440 1.208 . S
C440 O438 1.247 . S
C440 O439 1.208 . S
C441 O446 1.247 . S
C441 O447 1.208 . S
C442 O434 1.315 . S
C442 O437 1.279 . S
C443 O444 1.315 . S
C443 O445 1.279 . S
O444 Cd436 2.223 . S
O444 C443 1.315 . S
O445 Cd435 2.240 . S
O445 C443 1.279 . S
O446 Cd436 2.297 . S
O446 C441 1.247 . S
O447 Cd436 2.439 . S
O447 C441 1.208 . S
O448 Cd449 2.223 . S
O448 C456 1.315 . S
Cd449 O448 2.223 . S
Cd449 O452 2.297 . S
Cd449 O453 2.439 . S
Cd449 O459 2.240 . S
Cd450 O451 2.240 . S
Cd450 O458 2.223 . S
Cd450 O460 2.297 . S
Cd450 O461 2.439 . S
O451 Cd450 2.240 . S
O451 C456 1.279 . S
O452 Cd449 2.297 . S
O452 C454 1.247 . S
O453 Cd449 2.439 . S
O453 C454 1.208 . S
C454 O452 1.247 . S
C454 O453 1.208 . S
C455 O460 1.247 . S
C455 O461 1.208 . S
C456 O448 1.315 . S
C456 O451 1.279 . S
C457 O458 1.315 . S
C457 O459 1.279 . S
O458 Cd450 2.223 . S
O458 C457 1.315 . S
O459 Cd449 2.240 . S
O459 C457 1.279 . S
O460 Cd450 2.297 . S
O460 C455 1.247 . S
O461 Cd450 2.439 . S
O461 C455 1.208 . S
O462 Cd463 2.223 . S
O462 C470 1.315 . S
Cd463 O462 2.223 . S
Cd463 O466 2.297 . S
Cd463 O467 2.439 . S
Cd463 O473 2.240 . S
Cd464 O465 2.240 . S
Cd464 O472 2.223 . S
Cd464 O474 2.297 . S
Cd464 O475 2.439 . S
O465 Cd464 2.240 . S
O465 C470 1.279 . S
O466 Cd463 2.297 . S
O466 C468 1.247 . S
O467 Cd463 2.439 . S
O467 C468 1.208 . S
C468 O466 1.247 . S
C468 O467 1.208 . S
C469 O474 1.247 . S
C469 O475 1.208 . S
C470 O462 1.315 . S
C470 O465 1.279 . S
C471 O472 1.315 . S
C471 O473 1.279 . S
O472 Cd464 2.223 . S
O472 C471 1.315 . S
O473 Cd463 2.240 . S
O473 C471 1.279 . S
O474 Cd464 2.297 . S
O474 C469 1.247 . S
O475 Cd464 2.439 . S
O475 C469 1.208 . S
O476 Cd477 2.223 . S
O476 C484 1.315 . S
Cd477 O476 2.223 . S
Cd477 O480 2.297 . S
Cd477 O481 2.439 . S
Cd477 O487 2.240 . S
Cd478 O479 2.240 . S
Cd478 O486 2.223 . S
Cd478 O488 2.297 . S
Cd478 O489 2.439 . S
O479 Cd478 2.240 . S
O479 C484 1.279 . S
O480 Cd477 2.297 . S
O480 C482 1.247 . S
O481 Cd477 2.439 . S
O481 C482 1.208 . S
C482 O480 1.247 . S
C482 O481 1.208 . S
C483 O488 1.247 . S
C483 O489 1.208 . S
C484 O476 1.315 . S
C484 O479 1.279 . S
C485 O486 1.315 . S
C485 O487 1.279 . S
O486 Cd478 2.223 . S
O486 C485 1.315 . S
O487 Cd477 2.240 . S
O487 C485 1.279 . S
O488 Cd478 2.297 . S
O488 C483 1.247 . S
O489 Cd478 2.439 . S
O489 C483 1.208 . S
O490 Cd491 2.223 . S
O490 C498 1.315 . S
Cd491 O490 2.223 . S
Cd491 O494 2.297 . S
Cd491 O495 2.439 . S
Cd491 O501 2.240 . S
Cd492 O493 2.240 . S
Cd492 O500 2.223 . S
Cd492 O502 2.297 . S
Cd492 O503 2.439 . S
O493 Cd492 2.240 . S
O493 C498 1.279 . S
O494 Cd491 2.297 . S
O494 C496 1.247 . S
O495 Cd491 2.439 . S
O495 C496 1.208 . S
C496 O494 1.247 . S
C496 O495 1.208 . S
C497 O502 1.247 . S
C497 O503 1.208 . S
C498 O490 1.315 . S
C498 O493 1.279 . S
C499 O500 1.315 . S
C499 O501 1.279 . S
O500 Cd492 2.223 . S
O500 C499 1.315 . S
O501 Cd491 2.240 . S
O501 C499 1.279 . S
O502 Cd492 2.297 . S
O502 C497 1.247 . S
O503 Cd492 2.439 . S
O503 C497 1.208 . S
O504 Cd505 2.223 . S
O504 C512 1.315 . S
Cd505 O504 2.223 . S
Cd505 O508 2.297 . S
Cd505 O509 2.439 . S
Cd505 O515 2.240 . S
Cd506 O507 2.240 . S
Cd506 O514 2.223 . S
Cd506 O516 2.297 . S
Cd506 O517 2.439 . S
O507 Cd506 2.240 . S
O507 C512 1.279 . S
O508 Cd505 2.297 . S
O508 C510 1.247 . S
O509 Cd505 2.439 . S
O509 C510 1.208 . S
C510 O508 1.247 . S
C510 O509 1.208 . S
C511 O516 1.247 . S
C511 O517 1.208 . S
C512 O504 1.315 . S
C512 O507 1.279 . S
C513 O514 1.315 . S
C513 O515 1.279 . S
O514 Cd506 2.223 . S
O514 C513 1.315 . S
O515 Cd505 2.240 . S
O515 C513 1.279 . S
O516 Cd506 2.297 . S
O516 C511 1.247 . S
O517 Cd506 2.439 . S
O517 C511 1.208 . S
O518 Cd519 2.223 . S
O518 C526 1.315 . S
Cd519 O518 2.223 . S
Cd519 O522 2.297 . S
Cd519 O523 2.439 . S
Cd519 O529 2.240 . S
Cd520 O521 2.240 . S
Cd520 O528 2.223 . S
Cd520 O530 2.297 . S
Cd520 O531 2.439 . S
O521 Cd520 2.240 . S
O521 C526 1.279 . S
O522 Cd519 2.297 . S
O522 C524 1.247 . S
O523 Cd519 2.439 . S
O523 C524 1.208 . S
C524 O522 1.247 . S
C524 O523 1.208 . S
C525 O530 1.247 . S
C525 O531 1.208 . S
C526 O518 1.315 . S
C526 O521 1.279 . S
C527 O528 1.315 . S
C527 O529 1.279 . S
O528 Cd520 2.223 . S
O528 C527 1.315 . S
O529 Cd519 2.240 . S
O529 C527 1.279 . S
O530 Cd520 2.297 . S
O530 C525 1.247 . S
O531 Cd520 2.439 . S
O531 C525 1.208 . S
O532 Cd533 2.223 . S
O532 C540 1.315 . S
Cd533 O532 2.223 . S
Cd533 O536 2.297 . S
Cd533 O537 2.439 . S
Cd533 O543 2.240 . S
Cd534 O535 2.240 . S
Cd534 O542 2.223 . S
Cd534 O544 2.297 . S
Cd534 O545 2.439 . S
O535 Cd534 2.240 . S
O535 C540 1.279 . S
O536 Cd533 2.297 . S
O536 C538 1.247 . S
O537 Cd533 2.439 . S
O537 C538 1.208 . S
C538 O536 1.247 . S
C538 O537 1.208 . S
C539 O544 1.247 . S
C539 O545 1.208 . S
C540 O532 1.315 . S
C540 O535 1.279 . S
C541 O542 1.315 . S
C541 O543 1.279 . S
O542 Cd534 2.223 . S
O542 C541 1.315 . S
O543 Cd533 2.240 . S
O543 C541 1.279 . S
O544 Cd534 2.297 . S
O544 C539 1.247 . S
O545 Cd534 2.439 . S
O545 C539 1.208 . S
O546 Cd547 2.223 . S
O546 C554 1.315 . S
Cd547 O546 2.223 . S
Cd547 O550 2.297 . S
Cd547 O551 2.439 . S
Cd547 O557 2.240 . S
Cd548 O549 2.240 . S
Cd548 O556 2.223 . S
Cd548 O558 2.297 . S
Cd548 O559 2.439 . S
O549 Cd548 2.240 . S
O549 C554 1.279 . S
O550 Cd547 2.297 . S
O550 C552 1.247 . S
O551 Cd547 2.439 . S
O551 C552 1.208 . S
C552 O550 1.247 . S
C552 O551 1.208 . S
C553 O558 1.247 . S
C553 O559 1.208 . S
C554 O546 1.315 . S
C554 O549 1.279 . S
C555 O556 1.315 . S
C555 O557 1.279 . S
O556 Cd548 2.223 . S
O556 C555 1.315 . S
O557 Cd547 2.240 . S
O557 C555 1.279 . S
O558 Cd548 2.297 . S
O558 C553 1.247 . S
O559 Cd548 2.439 . S
O559 C553 1.208 . S
O560 Cd561 2.223 . S
O560 C568 1.315 . S
Cd561 O560 2.223 . S
Cd561 O564 2.297 . S
Cd561 O565 2.439 . S
Cd561 O571 2.240 . S
Cd562 O563 2.240 . S
Cd562 O570 2.223 . S
Cd562 O572 2.297 . S
Cd562 O573 2.439 . S
O563 Cd562 2.240 . S
O563 C568 1.279 . S
O564 Cd561 2.297 . S
O564 C566 1.247 . S
O565 Cd561 2.439 . S
O565 C566 1.208 . S
C566 O564 1.247 . S
C566 O565 1.208 . S
C567 O572 1.247 . S
C567 O573 1.208 . S
C568 O560 1.315 . S
C568 O563 1.279 . S
C569 O570 1.315 . S
C569 O571 1.279 . S
O570 Cd562 2.223 . S
O570 C569 1.315 . S
O571 Cd561 2.240 . S
O571 C569 1.279 . S
O572 Cd562 2.297 . S
O572 C567 1.247 . S
O573 Cd562 2.439 . S
O573 C567 1.208 . S
O574 Cd575 2.223 . S
O574 C582 1.315 . S
Cd575 O574 2.223 . S
Cd575 O578 2.297 . S
Cd575 O579 2.439 . S
Cd575 O585 2.240 . S
Cd576 O577 2.240 . S
Cd576 O584 2.223 . S
Cd576 O586 2.297 . S
Cd576 O587 2.439 . S
O577 Cd576 2.240 . S
O577 C582 1.279 . S
O578 Cd575 2.297 . S
O578 C580 1.247 . S
O579 Cd575 2.439 . S
O579 C580 1.208 . S
C580 O578 1.247 . S
C580 O579 1.208 . S
C581 O586 1.247 . S
C581 O587 1.208 . S
C582 O574 1.315 . S
C582 O577 1.279 . S
C583 O584 1.315 . S
C583 O585 1.279 . S
O584 Cd576 2.223 . S
O584 C583 1.315 . S
O585 Cd575 2.240 . S
O585 C583 1.279 . S
O586 Cd576 2.297 . S
O586 C581 1.247 . S
O587 Cd576 2.439 . S
O587 C581 1.208 . S
O588 Cd589 2.223 . S
O588 C596 1.315 . S
Cd589 O588 2.223 . S
Cd589 O592 2.297 . S
Cd589 O593 2.439 . S
Cd589 O599 2.240 . S
Cd590 O591 2.240 . S
Cd590 O598 2.223 . S
Cd590 O600 2.297 . S
Cd590 O601 2.439 . S
O591 Cd590 2.240 . S
O591 C596 1.279 . S
O592 Cd589 2.297 . S
O592 C594 1.247 . S
O593 Cd589 2.439 . S
O593 C594 1.208 . S
C594 O592 1.247 . S
C594 O593 1.208 . S
C595 O600 1.247 . S
C595 O601 1.208 . S
C596 O588 1.315 . S
C596 O591 1.279 . S
C597 O598 1.315 . S
C597 O599 1.279 . S
O598 Cd590 2.223 . S
O598 C597 1.315 . S
O599 Cd589 2.240 . S
O599 C597 1.279 . S
O600 Cd590 2.297 . S
O600 C595 1.247 . S
O601 Cd590 2.439 . S
O601 C595 1.208 . S
O602 Cd603 2.223 . S
O602 C610 1.315 . S
Cd603 O602 2.223 . S
Cd603 O606 2.297 . S
Cd603 O607 2.439 . S
Cd603 O613 2.240 . S
Cd604 O605 2.240 . S
Cd604 O612 2.223 . S
Cd604 O614 2.297 . S
Cd604 O615 2.439 . S
O605 Cd604 2.240 . S
O605 C610 1.279 . S
O606 Cd603 2.297 . S
O606 C608 1.247 . S
O607 Cd603 2.439 . S
O607 C608 1.208 . S
C608 O606 1.247 . S
C608 O607 1.208 . S
C609 O614 1.247 . S
C609 O615 1.208 . S
C610 O602 1.315 . S
C610 O605 1.279 . S
C611 O612 1.315 . S
C611 O613 1.279 . S
O612 Cd604 2.223 . S
O612 C611 1.315 . S
O613 Cd603 2.240 . S
O613 C611 1.279 . S
O614 Cd604 2.297 . S
O614 C609 1.247 . S
O615 Cd604 2.439 . S
O615 C609 1.208 . S
O616 Cd617 2.223 . S
O616 C624 1.315 . S
Cd617 O616 2.223 . S
Cd617 O620 2.297 . S
Cd617 O621 2.439 . S
Cd617 O627 2.240 . S
Cd618 O619 2.240 . S
Cd618 O626 2.223 . S
Cd618 O628 2.297 . S
Cd618 O629 2.439 . S
O619 Cd618 2.240 . S
O619 C624 1.279 . S
O620 Cd617 2.297 . S
O620 C622 1.247 . S
O621 Cd617 2.439 . S
O621 C622 1.208 . S
C622 O620 1.247 . S
C622 O621 1.208 . S
C623 O628 1.247 . S
C623 O629 1.208 . S
C624 O616 1.315 . S
C624 O619 1.279 . S
C625 O626 1.315 . S
C625 O627 1.279 . S
O626 Cd618 2.223 . S
O626 C625 1.315 . S
O627 Cd617 2.240 . S
O627 C625 1.279 . S
O628 Cd618 2.297 . S
O628 C623 1.247 . S
O629 Cd618 2.439 . S
O629 C623 1.208 . S
O630 Cd631 2.223 . S
O630 C638 1.315 . S
Cd631 O630 2.223 . S
Cd631 O634 2.297 . S
Cd631 O635 2.439 . S
Cd631 O641 2.240 . S
Cd632 O633 2.240 . S
Cd632 O640 2.223 . S
Cd632 O642 2.297 . S
Cd632 O643 2.439 . S
O633 Cd632 2.240 . S
O633 C638 1.279 . S
O634 Cd631 2.297 . S
O634 C636 1.247 . S
O635 Cd631 2.439 . S
O635 C636 1.208 . S
C636 O634 1.247 . S
C636 O635 1.208 . S
C637 O642 1.247 . S
C637 O643 1.208 . S
C638 O630 1.315 . S
C638 O633 1.279 . S
C639 O640 1.315 . S
C639 O641 1.279 . S
O640 Cd632 2.223 . S
O640 C639 1.315 . S
O641 Cd631 2.240 . S
O641 C639 1.279 . S
O642 Cd632 2.297 . S
O642 C637 1.247 . S
O643 Cd632 2.439 . S
O643 C637 1.208 . S
O644 Cd645 2.223 . S
O644 C652 1.315 . S
Cd645 O644 2.223 . S
Cd645 O648 2.297 . S
Cd645 O649 2.439 . S
Cd645 O655 2.240 . S
Cd646 O647 2.240 . S
Cd646 O654 2.223 . S
Cd646 O656 2.297 . S
Cd646 O657 2.439 . S
O647 Cd646 2.240 . S
O647 C652 1.279 . S
O648 Cd645 2.297 . S
O648 C650 1.247 . S
O649 Cd645 2.439 . S
O649 C650 1.208 . S
C650 O648 1.247 . S
C650 O649 1.208 . S
C651 O656 1.247 . S
C651 O657 1.208 . S
C652 O644 1.315 . S
C652 O647 1.279 . S
C653 O654 1.315 . S
C653 O655 1.279 . S
O654 Cd646 2.223 . S
O654 C653 1.315 . S
O655 Cd645 2.240 . S
O655 C653 1.279 . S
O656 Cd646 2.297 . S
O656 C651 1.247 . S
O657 Cd646 2.439 . S
O657 C651 1.208 . S
O658 Cd659 2.223 . S
O658 C666 1.315 . S
Cd659 O658 2.223 . S
Cd659 O662 2.297 . S
Cd659 O663 2.439 . S
Cd659 O669 2.240 . S
Cd660 O661 2.240 . S
Cd660 O668 2.223 . S
Cd660 O670 2.297 . S
Cd660 O671 2.439 . S
O661 Cd660 2.240 . S
O661 C666 1.279 . S
O662 Cd659 2.297 . S
O662 C664 1.247 . S
O663 Cd659 2.439 . S
O663 C664 1.208 . S
C664 O662 1.247 . S
C664 O663 1.208 . S
C665 O670 1.247 . S
C665 O671 1.208 . S
C666 O658 1.315 . S
C666 O661 1.279 . S
C667 O668 1.315 . S
C667 O669 1.279 . S
O668 Cd660 2.223 . S
O668 C667 1.315 . S
O669 Cd659 2.240 . S
O669 C667 1.279 . S
O670 Cd660 2.297 . S
O670 C665 1.247 . S
O671 Cd660 2.439 . S
O671 C665 1.208 . S
H672 C680 0.929 . S
H673 C682 0.930 . S
H674 C684 0.930 . S
H675 C687 0.929 . S
H676 C690 0.930 . S
H677 C692 0.960 . S
H678 C692 0.960 . S
H679 C692 0.960 . S
C680 H672 0.929 . S
C680 C681 1.377 . S
C680 C682 1.384 . S
C681 C680 1.377 . S
C681 C687 1.390 . S
C682 H673 0.930 . S
C682 C680 1.384 . S
C682 C683 1.372 . S
C683 C682 1.372 . S
C683 C684 1.400 . S
C683 C688 1.490 . S
C684 H674 0.930 . S
C684 C683 1.400 . S
C684 C687 1.386 . S
H685 C701 0.930 . S
H686 C702 0.931 . S
C687 H675 0.929 . S
C687 C681 1.390 . S
C687 C684 1.386 . S
C688 C683 1.490 . S
C688 C690 1.395 . S
C688 C691 1.403 . S
H689 C695 0.930 . S
C690 H676 0.930 . S
C690 C688 1.395 . S
C690 C693 1.403 . S
C691 C688 1.403 . S
C691 C692 1.524 . S
C691 C695 1.400 . S
C692 H677 0.960 . S
C692 H678 0.960 . S
C692 H679 0.960 . S
C692 C691 1.524 . S
C693 C690 1.403 . S
C693 C694 1.392 . S
C693 C697 1.495 . S
C694 C693 1.392 . S
C694 C695 1.385 . S
C694 C696 1.478 . S
C695 H689 0.930 . S
C695 C691 1.400 . S
C695 C694 1.385 . S
C696 C694 1.478 . S
C696 C698 1.381 . S
C696 C702 1.383 . S
C697 C693 1.495 . S
C697 H703 0.959 . S
C697 H704 0.961 . S
C697 H705 0.960 . S
C698 C696 1.381 . S
C698 C699 1.394 . S
C698 H706 0.930 . S
C699 C698 1.394 . S
C699 C700 1.383 . S
C699 H707 0.929 . S
C700 C699 1.383 . S
C700 C701 1.377 . S
C701 H685 0.930 . S
C701 C700 1.377 . S
C701 C702 1.379 . S
C702 H686 0.931 . S
C702 C696 1.383 . S
C702 C701 1.379 . S
H703 C697 0.959 . S
H704 C697 0.961 . S
H705 C697 0.960 . S
H706 C698 0.930 . S
H707 C699 0.929 . S
H708 C716 0.929 . S
H709 C718 0.930 . S
H710 C720 0.930 . S
H711 C723 0.929 . S
H712 C726 0.930 . S
H713 C728 0.960 . S
H714 C728 0.960 . S
H715 C728 0.960 . S
C716 H708 0.929 . S
C716 C717 1.377 . S
C716 C718 1.384 . S
C717 C716 1.377 . S
C717 C723 1.390 . S
C718 H709 0.930 . S
C718 C716 1.384 . S
C718 C719 1.372 . S
C719 C718 1.372 . S
C719 C720 1.400 . S
C719 C724 1.490 . S
C720 H710 0.930 . S
C720 C719 1.400 . S
C720 C723 1.386 . S
H721 C737 0.930 . S
H722 C738 0.931 . S
C723 H711 0.929 . S
C723 C717 1.390 . S
C723 C720 1.386 . S
C724 C719 1.490 . S
C724 C726 1.395 . S
C724 C727 1.403 . S
H725 C731 0.930 . S
C726 H712 0.930 . S
C726 C724 1.395 . S
C726 C729 1.403 . S
C727 C724 1.403 . S
C727 C728 1.524 . S
C727 C731 1.400 . S
C728 H713 0.960 . S
C728 H714 0.960 . S
C728 H715 0.960 . S
C728 C727 1.524 . S
C729 C726 1.403 . S
C729 C730 1.392 . S
C729 C733 1.495 . S
C730 C729 1.392 . S
C730 C731 1.385 . S
C730 C732 1.478 . S
C731 H725 0.930 . S
C731 C727 1.400 . S
C731 C730 1.385 . S
C732 C730 1.478 . S
C732 C734 1.381 . S
C732 C738 1.383 . S
C733 C729 1.495 . S
C733 H739 0.959 . S
C733 H740 0.961 . S
C733 H741 0.960 . S
C734 C732 1.381 . S
C734 C735 1.394 . S
C734 H742 0.930 . S
C735 C734 1.394 . S
C735 C736 1.383 . S
C735 H743 0.929 . S
C736 C735 1.383 . S
C736 C737 1.377 . S
C737 H721 0.930 . S
C737 C736 1.377 . S
C737 C738 1.379 . S
C738 H722 0.931 . S
C738 C732 1.383 . S
C738 C737 1.379 . S
H739 C733 0.959 . S
H740 C733 0.961 . S
H741 C733 0.960 . S
H742 C734 0.930 . S
H743 C735 0.929 . S
H744 C752 0.929 . S
H745 C754 0.930 . S
H746 C756 0.930 . S
H747 C759 0.929 . S
H748 C762 0.930 . S
H749 C764 0.960 . S
H750 C764 0.960 . S
H751 C764 0.960 . S
C752 H744 0.929 . S
C752 C753 1.377 . S
C752 C754 1.384 . S
C753 C752 1.377 . S
C753 C759 1.390 . S
C754 H745 0.930 . S
C754 C752 1.384 . S
C754 C755 1.372 . S
C755 C754 1.372 . S
C755 C756 1.400 . S
C755 C760 1.490 . S
C756 H746 0.930 . S
C756 C755 1.400 . S
C756 C759 1.386 . S
H757 C773 0.930 . S
H758 C774 0.931 . S
C759 H747 0.929 . S
C759 C753 1.390 . S
C759 C756 1.386 . S
C760 C755 1.490 . S
C760 C762 1.395 . S
C760 C763 1.403 . S
H761 C767 0.930 . S
C762 H748 0.930 . S
C762 C760 1.395 . S
C762 C765 1.403 . S
C763 C760 1.403 . S
C763 C764 1.524 . S
C763 C767 1.400 . S
C764 H749 0.960 . S
C764 H750 0.960 . S
C764 H751 0.960 . S
C764 C763 1.524 . S
C765 C762 1.403 . S
C765 C766 1.392 . S
C765 C769 1.495 . S
C766 C765 1.392 . S
C766 C767 1.385 . S
C766 C768 1.478 . S
C767 H761 0.930 . S
C767 C763 1.400 . S
C767 C766 1.385 . S
C768 C766 1.478 . S
C768 C770 1.381 . S
C768 C774 1.383 . S
C769 C765 1.495 . S
C769 H775 0.959 . S
C769 H776 0.961 . S
C769 H777 0.960 . S
C770 C768 1.381 . S
C770 C771 1.394 . S
C770 H778 0.930 . S
C771 C770 1.394 . S
C771 C772 1.383 . S
C771 H779 0.929 . S
C772 C771 1.383 . S
C772 C773 1.377 . S
C773 H757 0.930 . S
C773 C772 1.377 . S
C773 C774 1.379 . S
C774 H758 0.931 . S
C774 C768 1.383 . S
C774 C773 1.379 . S
H775 C769 0.959 . S
H776 C769 0.961 . S
H777 C769 0.960 . S
H778 C770 0.930 . S
H779 C771 0.929 . S
H780 C788 0.929 . S
H781 C790 0.930 . S
H782 C792 0.930 . S
H783 C795 0.929 . S
H784 C798 0.930 . S
H785 C800 0.960 . S
H786 C800 0.960 . S
H787 C800 0.960 . S
C788 H780 0.929 . S
C788 C789 1.377 . S
C788 C790 1.384 . S
C789 C788 1.377 . S
C789 C795 1.390 . S
C790 H781 0.930 . S
C790 C788 1.384 . S
C790 C791 1.372 . S
C791 C790 1.372 . S
C791 C792 1.400 . S
C791 C796 1.490 . S
C792 H782 0.930 . S
C792 C791 1.400 . S
C792 C795 1.386 . S
H793 C809 0.930 . S
H794 C810 0.931 . S
C795 H783 0.929 . S
C795 C789 1.390 . S
C795 C792 1.386 . S
C796 C791 1.490 . S
C796 C798 1.395 . S
C796 C799 1.403 . S
H797 C803 0.930 . S
C798 H784 0.930 . S
C798 C796 1.395 . S
C798 C801 1.403 . S
C799 C796 1.403 . S
C799 C800 1.524 . S
C799 C803 1.400 . S
C800 H785 0.960 . S
C800 H786 0.960 . S
C800 H787 0.960 . S
C800 C799 1.524 . S
C801 C798 1.403 . S
C801 C802 1.392 . S
C801 C805 1.495 . S
C802 C801 1.392 . S
C802 C803 1.385 . S
C802 C804 1.478 . S
C803 H797 0.930 . S
C803 C799 1.400 . S
C803 C802 1.385 . S
C804 C802 1.478 . S
C804 C806 1.381 . S
C804 C810 1.383 . S
C805 C801 1.495 . S
C805 H811 0.959 . S
C805 H812 0.961 . S
C805 H813 0.960 . S
C806 C804 1.381 . S
C806 C807 1.394 . S
C806 H814 0.930 . S
C807 C806 1.394 . S
C807 C808 1.383 . S
C807 H815 0.929 . S
C808 C807 1.383 . S
C808 C809 1.377 . S
C809 H793 0.930 . S
C809 C808 1.377 . S
C809 C810 1.379 . S
C810 H794 0.931 . S
C810 C804 1.383 . S
C810 C809 1.379 . S
H811 C805 0.959 . S
H812 C805 0.961 . S
H813 C805 0.960 . S
H814 C806 0.930 . S
H815 C807 0.929 . S
H816 C824 0.929 . S
H817 C826 0.930 . S
H818 C828 0.930 . S
H819 C831 0.929 . S
H820 C834 0.930 . S
H821 C836 0.960 . S
H822 C836 0.960 . S
H823 C836 0.960 . S
C824 H816 0.929 . S
C824 C825 1.377 . S
C824 C826 1.384 . S
C825 C824 1.377 . S
C825 C831 1.390 . S
C826 H817 0.930 . S
C826 C824 1.384 . S
C826 C827 1.372 . S
C827 C826 1.372 . S
C827 C828 1.400 . S
C827 C832 1.490 . S
C828 H818 0.930 . S
C828 C827 1.400 . S
C828 C831 1.386 . S
H829 C845 0.930 . S
H830 C846 0.931 . S
C831 H819 0.929 . S
C831 C825 1.390 . S
C831 C828 1.386 . S
C832 C827 1.490 . S
C832 C834 1.395 . S
C832 C835 1.403 . S
H833 C839 0.930 . S
C834 H820 0.930 . S
C834 C832 1.395 . S
C834 C837 1.403 . S
C835 C832 1.403 . S
C835 C836 1.524 . S
C835 C839 1.400 . S
C836 H821 0.960 . S
C836 H822 0.960 . S
C836 H823 0.960 . S
C836 C835 1.524 . S
C837 C834 1.403 . S
C837 C838 1.392 . S
C837 C841 1.495 . S
C838 C837 1.392 . S
C838 C839 1.385 . S
C838 C840 1.478 . S
C839 H833 0.930 . S
C839 C835 1.400 . S
C839 C838 1.385 . S
C840 C838 1.478 . S
C840 C842 1.381 . S
C840 C846 1.383 . S
C841 C837 1.495 . S
C841 H847 0.959 . S
C841 H848 0.961 . S
C841 H849 0.960 . S
C842 C840 1.381 . S
C842 C843 1.394 . S
C842 H850 0.930 . S
C843 C842 1.394 . S
C843 C844 1.383 . S
C843 H851 0.929 . S
C844 C843 1.383 . S
C844 C845 1.377 . S
C845 H829 0.930 . S
C845 C844 1.377 . S
C845 C846 1.379 . S
C846 H830 0.931 . S
C846 C840 1.383 . S
C846 C845 1.379 . S
H847 C841 0.959 . S
H848 C841 0.961 . S
H849 C841 0.960 . S
H850 C842 0.930 . S
H851 C843 0.929 . S
H852 C860 0.929 . S
H853 C862 0.930 . S
H854 C864 0.930 . S
H855 C867 0.929 . S
H856 C870 0.930 . S
H857 C872 0.960 . S
H858 C872 0.960 . S
H859 C872 0.960 . S
C860 H852 0.929 . S
C860 C861 1.377 . S
C860 C862 1.384 . S
C861 C860 1.377 . S
C861 C867 1.390 . S
C862 H853 0.930 . S
C862 C860 1.384 . S
C862 C863 1.372 . S
C863 C862 1.372 . S
C863 C864 1.400 . S
C863 C868 1.490 . S
C864 H854 0.930 . S
C864 C863 1.400 . S
C864 C867 1.386 . S
H865 C881 0.930 . S
H866 C882 0.931 . S
C867 H855 0.929 . S
C867 C861 1.390 . S
C867 C864 1.386 . S
C868 C863 1.490 . S
C868 C870 1.395 . S
C868 C871 1.403 . S
H869 C875 0.930 . S
C870 H856 0.930 . S
C870 C868 1.395 . S
C870 C873 1.403 . S
C871 C868 1.403 . S
C871 C872 1.524 . S
C871 C875 1.400 . S
C872 H857 0.960 . S
C872 H858 0.960 . S
C872 H859 0.960 . S
C872 C871 1.524 . S
C873 C870 1.403 . S
C873 C874 1.392 . S
C873 C877 1.495 . S
C874 C873 1.392 . S
C874 C875 1.385 . S
C874 C876 1.478 . S
C875 H869 0.930 . S
C875 C871 1.400 . S
C875 C874 1.385 . S
C876 C874 1.478 . S
C876 C878 1.381 . S
C876 C882 1.383 . S
C877 C873 1.495 . S
C877 H883 0.959 . S
C877 H884 0.961 . S
C877 H885 0.960 . S
C878 C876 1.381 . S
C878 C879 1.394 . S
C878 H886 0.930 . S
C879 C878 1.394 . S
C879 C880 1.383 . S
C879 H887 0.929 . S
C880 C879 1.383 . S
C880 C881 1.377 . S
C881 H865 0.930 . S
C881 C880 1.377 . S
C881 C882 1.379 . S
C882 H866 0.931 . S
C882 C876 1.383 . S
C882 C881 1.379 . S
H883 C877 0.959 . S
H884 C877 0.961 . S
H885 C877 0.960 . S
H886 C878 0.930 . S
H887 C879 0.929 . S
H888 C896 0.929 . S
H889 C898 0.930 . S
H890 C900 0.930 . S
H891 C903 0.929 . S
H892 C906 0.930 . S
H893 C908 0.960 . S
H894 C908 0.960 . S
H895 C908 0.960 . S
C896 H888 0.929 . S
C896 C897 1.377 . S
C896 C898 1.384 . S
C897 C896 1.377 . S
C897 C903 1.390 . S
C898 H889 0.930 . S
C898 C896 1.384 . S
C898 C899 1.372 . S
C899 C898 1.372 . S
C899 C900 1.400 . S
C899 C904 1.490 . S
C900 H890 0.930 . S
C900 C899 1.400 . S
C900 C903 1.386 . S
H901 C917 0.930 . S
H902 C918 0.931 . S
C903 H891 0.929 . S
C903 C897 1.390 . S
C903 C900 1.386 . S
C904 C899 1.490 . S
C904 C906 1.395 . S
C904 C907 1.403 . S
H905 C911 0.930 . S
C906 H892 0.930 . S
C906 C904 1.395 . S
C906 C909 1.403 . S
C907 C904 1.403 . S
C907 C908 1.524 . S
C907 C911 1.400 . S
C908 H893 0.960 . S
C908 H894 0.960 . S
C908 H895 0.960 . S
C908 C907 1.524 . S
C909 C906 1.403 . S
C909 C910 1.392 . S
C909 C913 1.495 . S
C910 C909 1.392 . S
C910 C911 1.385 . S
C910 C912 1.478 . S
C911 H905 0.930 . S
C911 C907 1.400 . S
C911 C910 1.385 . S
C912 C910 1.478 . S
C912 C914 1.381 . S
C912 C918 1.383 . S
C913 C909 1.495 . S
C913 H919 0.959 . S
C913 H920 0.961 . S
C913 H921 0.960 . S
C914 C912 1.381 . S
C914 C915 1.394 . S
C914 H922 0.930 . S
C915 C914 1.394 . S
C915 C916 1.383 . S
C915 H923 0.929 . S
C916 C915 1.383 . S
C916 C917 1.377 . S
C917 H901 0.930 . S
C917 C916 1.377 . S
C917 C918 1.379 . S
C918 H902 0.931 . S
C918 C912 1.383 . S
C918 C917 1.379 . S
H919 C913 0.959 . S
H920 C913 0.961 . S
H921 C913 0.960 . S
H922 C914 0.930 . S
H923 C915 0.929 . S
H924 C932 0.929 . S
H925 C934 0.930 . S
H926 C936 0.930 . S
H927 C939 0.929 . S
H928 C942 0.930 . S
H929 C944 0.960 . S
H930 C944 0.960 . S
H931 C944 0.960 . S
C932 H924 0.929 . S
C932 C933 1.377 . S
C932 C934 1.384 . S
C933 C932 1.377 . S
C933 C939 1.390 . S
C934 H925 0.930 . S
C934 C932 1.384 . S
C934 C935 1.372 . S
C935 C934 1.372 . S
C935 C936 1.400 . S
C935 C940 1.490 . S
C936 H926 0.930 . S
C936 C935 1.400 . S
C936 C939 1.386 . S
H937 C953 0.930 . S
H938 C954 0.931 . S
C939 H927 0.929 . S
C939 C933 1.390 . S
C939 C936 1.386 . S
C940 C935 1.490 . S
C940 C942 1.395 . S
C940 C943 1.403 . S
H941 C947 0.930 . S
C942 H928 0.930 . S
C942 C940 1.395 . S
C942 C945 1.403 . S
C943 C940 1.403 . S
C943 C944 1.524 . S
C943 C947 1.400 . S
C944 H929 0.960 . S
C944 H930 0.960 . S
C944 H931 0.960 . S
C944 C943 1.524 . S
C945 C942 1.403 . S
C945 C946 1.392 . S
C945 C949 1.495 . S
C946 C945 1.392 . S
C946 C947 1.385 . S
C946 C948 1.478 . S
C947 H941 0.930 . S
C947 C943 1.400 . S
C947 C946 1.385 . S
C948 C946 1.478 . S
C948 C950 1.381 . S
C948 C954 1.383 . S
C949 C945 1.495 . S
C949 H955 0.959 . S
C949 H956 0.961 . S
C949 H957 0.960 . S
C950 C948 1.381 . S
C950 C951 1.394 . S
C950 H958 0.930 . S
C951 C950 1.394 . S
C951 C952 1.383 . S
C951 H959 0.929 . S
C952 C951 1.383 . S
C952 C953 1.377 . S
C953 H937 0.930 . S
C953 C952 1.377 . S
C953 C954 1.379 . S
C954 H938 0.931 . S
C954 C948 1.383 . S
C954 C953 1.379 . S
H955 C949 0.959 . S
H956 C949 0.961 . S
H957 C949 0.960 . S
H958 C950 0.930 . S
H959 C951 0.929 . S
H960 C968 0.929 . S
H961 C970 0.930 . S
H962 C972 0.930 . S
H963 C975 0.929 . S
H964 C978 0.930 . S
H965 C980 0.960 . S
H966 C980 0.960 . S
H967 C980 0.960 . S
C968 H960 0.929 . S
C968 C969 1.377 . S
C968 C970 1.384 . S
C969 C968 1.377 . S
C969 C975 1.390 . S
C970 H961 0.930 . S
C970 C968 1.384 . S
C970 C971 1.372 . S
C971 C970 1.372 . S
C971 C972 1.400 . S
C971 C976 1.490 . S
C972 H962 0.930 . S
C972 C971 1.400 . S
C972 C975 1.386 . S
H973 C989 0.930 . S
H974 C990 0.931 . S
C975 H963 0.929 . S
C975 C969 1.390 . S
C975 C972 1.386 . S
C976 C971 1.490 . S
C976 C978 1.395 . S
C976 C979 1.403 . S
H977 C983 0.930 . S
C978 H964 0.930 . S
C978 C976 1.395 . S
C978 C981 1.403 . S
C979 C976 1.403 . S
C979 C980 1.524 . S
C979 C983 1.400 . S
C980 H965 0.960 . S
C980 H966 0.960 . S
C980 H967 0.960 . S
C980 C979 1.524 . S
C981 C978 1.403 . S
C981 C982 1.392 . S
C981 C985 1.495 . S
C982 C981 1.392 . S
C982 C983 1.385 . S
C982 C984 1.478 . S
C983 H977 0.930 . S
C983 C979 1.400 . S
C983 C982 1.385 . S
C984 C982 1.478 . S
C984 C986 1.381 . S
C984 C990 1.383 . S
C985 C981 1.495 . S
C985 H991 0.959 . S
C985 H992 0.961 . S
C985 H993 0.960 . S
C986 C984 1.381 . S
C986 C987 1.394 . S
C986 H994 0.930 . S
C987 C986 1.394 . S
C987 C988 1.383 . S
C987 H995 0.929 . S
C988 C987 1.383 . S
C988 C989 1.377 . S
C989 H973 0.930 . S
C989 C988 1.377 . S
C989 C990 1.379 . S
C990 H974 0.931 . S
C990 C984 1.383 . S
C990 C989 1.379 . S
H991 C985 0.959 . S
H992 C985 0.961 . S
H993 C985 0.960 . S
H994 C986 0.930 . S
H995 C987 0.929 . S
H996 C1004 0.929 . S
H997 C1006 0.930 . S
H998 C1008 0.930 . S
H999 C1011 0.929 . S
H1000 C1014 0.930 . S
H1001 C1016 0.960 . S
H1002 C1016 0.960 . S
H1003 C1016 0.960 . S
C1004 H996 0.929 . S
C1004 C1005 1.377 . S
C1004 C1006 1.384 . S
C1005 C1004 1.377 . S
C1005 C1011 1.390 . S
C1006 H997 0.930 . S
C1006 C1004 1.384 . S
C1006 C1007 1.372 . S
C1007 C1006 1.372 . S
C1007 C1008 1.400 . S
C1007 C1012 1.490 . S
C1008 H998 0.930 . S
C1008 C1007 1.400 . S
C1008 C1011 1.386 . S
H1009 C1025 0.930 . S
H1010 C1026 0.931 . S
C1011 H999 0.929 . S
C1011 C1005 1.390 . S
C1011 C1008 1.386 . S
C1012 C1007 1.490 . S
C1012 C1014 1.395 . S
C1012 C1015 1.403 . S
H1013 C1019 0.930 . S
C1014 H1000 0.930 . S
C1014 C1012 1.395 . S
C1014 C1017 1.403 . S
C1015 C1012 1.403 . S
C1015 C1016 1.524 . S
C1015 C1019 1.400 . S
C1016 H1001 0.960 . S
C1016 H1002 0.960 . S
C1016 H1003 0.960 . S
C1016 C1015 1.524 . S
C1017 C1014 1.403 . S
C1017 C1018 1.392 . S
C1017 C1021 1.495 . S
C1018 C1017 1.392 . S
C1018 C1019 1.385 . S
C1018 C1020 1.478 . S
C1019 H1013 0.930 . S
C1019 C1015 1.400 . S
C1019 C1018 1.385 . S
C1020 C1018 1.478 . S
C1020 C1022 1.381 . S
C1020 C1026 1.383 . S
C1021 C1017 1.495 . S
C1021 H1027 0.959 . S
C1021 H1028 0.961 . S
C1021 H1029 0.960 . S
C1022 C1020 1.381 . S
C1022 C1023 1.394 . S
C1022 H1030 0.930 . S
C1023 C1022 1.394 . S
C1023 C1024 1.383 . S
C1023 H1031 0.929 . S
C1024 C1023 1.383 . S
C1024 C1025 1.377 . S
C1025 H1009 0.930 . S
C1025 C1024 1.377 . S
C1025 C1026 1.379 . S
C1026 H1010 0.931 . S
C1026 C1020 1.383 . S
C1026 C1025 1.379 . S
H1027 C1021 0.959 . S
H1028 C1021 0.961 . S
H1029 C1021 0.960 . S
H1030 C1022 0.930 . S
H1031 C1023 0.929 . S
H1032 C1040 0.929 . S
H1033 C1042 0.930 . S
H1034 C1044 0.930 . S
H1035 C1047 0.929 . S
H1036 C1050 0.930 . S
H1037 C1052 0.960 . S
H1038 C1052 0.960 . S
H1039 C1052 0.960 . S
C1040 H1032 0.929 . S
C1040 C1041 1.377 . S
C1040 C1042 1.384 . S
C1041 C1040 1.377 . S
C1041 C1047 1.390 . S
C1042 H1033 0.930 . S
C1042 C1040 1.384 . S
C1042 C1043 1.372 . S
C1043 C1042 1.372 . S
C1043 C1044 1.400 . S
C1043 C1048 1.490 . S
C1044 H1034 0.930 . S
C1044 C1043 1.400 . S
C1044 C1047 1.386 . S
H1045 C1061 0.930 . S
H1046 C1062 0.931 . S
C1047 H1035 0.929 . S
C1047 C1041 1.390 . S
C1047 C1044 1.386 . S
C1048 C1043 1.490 . S
C1048 C1050 1.395 . S
C1048 C1051 1.403 . S
H1049 C1055 0.930 . S
C1050 H1036 0.930 . S
C1050 C1048 1.395 . S
C1050 C1053 1.403 . S
C1051 C1048 1.403 . S
C1051 C1052 1.524 . S
C1051 C1055 1.400 . S
C1052 H1037 0.960 . S
C1052 H1038 0.960 . S
C1052 H1039 0.960 . S
C1052 C1051 1.524 . S
C1053 C1050 1.403 . S
C1053 C1054 1.392 . S
C1053 C1057 1.495 . S
C1054 C1053 1.392 . S
C1054 C1055 1.385 . S
C1054 C1056 1.478 . S
C1055 H1049 0.930 . S
C1055 C1051 1.400 . S
C1055 C1054 1.385 . S
C1056 C1054 1.478 . S
C1056 C1058 1.381 . S
C1056 C1062 1.383 . S
C1057 C1053 1.495 . S
C1057 H1063 0.959 . S
C1057 H1064 0.961 . S
C1057 H1065 0.960 . S
C1058 C1056 1.381 . S
C1058 C1059 1.394 . S
C1058 H1066 0.930 . S
C1059 C1058 1.394 . S
C1059 C1060 1.383 . S
C1059 H1067 0.929 . S
C1060 C1059 1.383 . S
C1060 C1061 1.377 . S
C1061 H1045 0.930 . S
C1061 C1060 1.377 . S
C1061 C1062 1.379 . S
C1062 H1046 0.931 . S
C1062 C1056 1.383 . S
C1062 C1061 1.379 . S
H1063 C1057 0.959 . S
H1064 C1057 0.961 . S
H1065 C1057 0.960 . S
H1066 C1058 0.930 . S
H1067 C1059 0.929 . S
H1068 C1076 0.929 . S
H1069 C1078 0.930 . S
H1070 C1080 0.930 . S
H1071 C1083 0.929 . S
H1072 C1086 0.930 . S
H1073 C1088 0.960 . S
H1074 C1088 0.960 . S
H1075 C1088 0.960 . S
C1076 H1068 0.929 . S
C1076 C1077 1.377 . S
C1076 C1078 1.384 . S
C1077 C1076 1.377 . S
C1077 C1083 1.390 . S
C1078 H1069 0.930 . S
C1078 C1076 1.384 . S
C1078 C1079 1.372 . S
C1079 C1078 1.372 . S
C1079 C1080 1.400 . S
C1079 C1084 1.490 . S
C1080 H1070 0.930 . S
C1080 C1079 1.400 . S
C1080 C1083 1.386 . S
H1081 C1097 0.930 . S
H1082 C1098 0.931 . S
C1083 H1071 0.929 . S
C1083 C1077 1.390 . S
C1083 C1080 1.386 . S
C1084 C1079 1.490 . S
C1084 C1086 1.395 . S
C1084 C1087 1.403 . S
H1085 C1091 0.930 . S
C1086 H1072 0.930 . S
C1086 C1084 1.395 . S
C1086 C1089 1.403 . S
C1087 C1084 1.403 . S
C1087 C1088 1.524 . S
C1087 C1091 1.400 . S
C1088 H1073 0.960 . S
C1088 H1074 0.960 . S
C1088 H1075 0.960 . S
C1088 C1087 1.524 . S
C1089 C1086 1.403 . S
C1089 C1090 1.392 . S
C1089 C1093 1.495 . S
C1090 C1089 1.392 . S
C1090 C1091 1.385 . S
C1090 C1092 1.478 . S
C1091 H1085 0.930 . S
C1091 C1087 1.400 . S
C1091 C1090 1.385 . S
C1092 C1090 1.478 . S
C1092 C1094 1.381 . S
C1092 C1098 1.383 . S
C1093 C1089 1.495 . S
C1093 H1099 0.959 . S
C1093 H1100 0.961 . S
C1093 H1101 0.960 . S
C1094 C1092 1.381 . S
C1094 C1095 1.394 . S
C1094 H1102 0.930 . S
C1095 C1094 1.394 . S
C1095 C1096 1.383 . S
C1095 H1103 0.929 . S
C1096 C1095 1.383 . S
C1096 C1097 1.377 . S
C1097 H1081 0.930 . S
C1097 C1096 1.377 . S
C1097 C1098 1.379 . S
C1098 H1082 0.931 . S
C1098 C1092 1.383 . S
C1098 C1097 1.379 . S
H1099 C1093 0.959 . S
H1100 C1093 0.961 . S
H1101 C1093 0.960 . S
H1102 C1094 0.930 . S
H1103 C1095 0.929 . S
H1104 C1112 0.929 . S
H1105 C1114 0.930 . S
H1106 C1116 0.930 . S
H1107 C1119 0.929 . S
H1108 C1122 0.930 . S
H1109 C1124 0.960 . S
H1110 C1124 0.960 . S
H1111 C1124 0.960 . S
C1112 H1104 0.929 . S
C1112 C1113 1.377 . S
C1112 C1114 1.384 . S
C1113 C1112 1.377 . S
C1113 C1119 1.390 . S
C1114 H1105 0.930 . S
C1114 C1112 1.384 . S
C1114 C1115 1.372 . S
C1115 C1114 1.372 . S
C1115 C1116 1.400 . S
C1115 C1120 1.490 . S
C1116 H1106 0.930 . S
C1116 C1115 1.400 . S
C1116 C1119 1.386 . S
H1117 C1133 0.930 . S
H1118 C1134 0.931 . S
C1119 H1107 0.929 . S
C1119 C1113 1.390 . S
C1119 C1116 1.386 . S
C1120 C1115 1.490 . S
C1120 C1122 1.395 . S
C1120 C1123 1.403 . S
H1121 C1127 0.930 . S
C1122 H1108 0.930 . S
C1122 C1120 1.395 . S
C1122 C1125 1.403 . S
C1123 C1120 1.403 . S
C1123 C1124 1.524 . S
C1123 C1127 1.400 . S
C1124 H1109 0.960 . S
C1124 H1110 0.960 . S
C1124 H1111 0.960 . S
C1124 C1123 1.524 . S
C1125 C1122 1.403 . S
C1125 C1126 1.392 . S
C1125 C1129 1.495 . S
C1126 C1125 1.392 . S
C1126 C1127 1.385 . S
C1126 C1128 1.478 . S
C1127 H1121 0.930 . S
C1127 C1123 1.400 . S
C1127 C1126 1.385 . S
C1128 C1126 1.478 . S
C1128 C1130 1.381 . S
C1128 C1134 1.383 . S
C1129 C1125 1.495 . S
C1129 H1135 0.959 . S
C1129 H1136 0.961 . S
C1129 H1137 0.960 . S
C1130 C1128 1.381 . S
C1130 C1131 1.394 . S
C1130 H1138 0.930 . S
C1131 C1130 1.394 . S
C1131 C1132 1.383 . S
C1131 H1139 0.929 . S
C1132 C1131 1.383 . S
C1132 C1133 1.377 . S
C1133 H1117 0.930 . S
C1133 C1132 1.377 . S
C1133 C1134 1.379 . S
C1134 H1118 0.931 . S
C1134 C1128 1.383 . S
C1134 C1133 1.379 . S
H1135 C1129 0.959 . S
H1136 C1129 0.961 . S
H1137 C1129 0.960 . S
H1138 C1130 0.930 . S
H1139 C1131 0.929 . S
H1140 C1148 0.929 . S
H1141 C1150 0.930 . S
H1142 C1152 0.930 . S
H1143 C1155 0.929 . S
H1144 C1158 0.930 . S
H1145 C1160 0.960 . S
H1146 C1160 0.960 . S
H1147 C1160 0.960 . S
C1148 H1140 0.929 . S
C1148 C1149 1.377 . S
C1148 C1150 1.384 . S
C1149 C1148 1.377 . S
C1149 C1155 1.390 . S
C1150 H1141 0.930 . S
C1150 C1148 1.384 . S
C1150 C1151 1.372 . S
C1151 C1150 1.372 . S
C1151 C1152 1.400 . S
C1151 C1156 1.490 . S
C1152 H1142 0.930 . S
C1152 C1151 1.400 . S
C1152 C1155 1.386 . S
H1153 C1169 0.930 . S
H1154 C1170 0.931 . S
C1155 H1143 0.929 . S
C1155 C1149 1.390 . S
C1155 C1152 1.386 . S
C1156 C1151 1.490 . S
C1156 C1158 1.395 . S
C1156 C1159 1.403 . S
H1157 C1163 0.930 . S
C1158 H1144 0.930 . S
C1158 C1156 1.395 . S
C1158 C1161 1.403 . S
C1159 C1156 1.403 . S
C1159 C1160 1.524 . S
C1159 C1163 1.400 . S
C1160 H1145 0.960 . S
C1160 H1146 0.960 . S
C1160 H1147 0.960 . S
C1160 C1159 1.524 . S
C1161 C1158 1.403 . S
C1161 C1162 1.392 . S
C1161 C1165 1.495 . S
C1162 C1161 1.392 . S
C1162 C1163 1.385 . S
C1162 C1164 1.478 . S
C1163 H1157 0.930 . S
C1163 C1159 1.400 . S
C1163 C1162 1.385 . S
C1164 C1162 1.478 . S
C1164 C1166 1.381 . S
C1164 C1170 1.383 . S
C1165 C1161 1.495 . S
C1165 H1171 0.959 . S
C1165 H1172 0.961 . S
C1165 H1173 0.960 . S
C1166 C1164 1.381 . S
C1166 C1167 1.394 . S
C1166 H1174 0.930 . S
C1167 C1166 1.394 . S
C1167 C1168 1.383 . S
C1167 H1175 0.929 . S
C1168 C1167 1.383 . S
C1168 C1169 1.377 . S
C1169 H1153 0.930 . S
C1169 C1168 1.377 . S
C1169 C1170 1.379 . S
C1170 H1154 0.931 . S
C1170 C1164 1.383 . S
C1170 C1169 1.379 . S
H1171 C1165 0.959 . S
H1172 C1165 0.961 . S
H1173 C1165 0.960 . S
H1174 C1166 0.930 . S
H1175 C1167 0.929 . S
H1176 C1184 0.929 . S
H1177 C1186 0.930 . S
H1178 C1188 0.930 . S
H1179 C1191 0.929 . S
H1180 C1194 0.930 . S
H1181 C1196 0.960 . S
H1182 C1196 0.960 . S
H1183 C1196 0.960 . S
C1184 H1176 0.929 . S
C1184 C1185 1.377 . S
C1184 C1186 1.384 . S
C1185 C1184 1.377 . S
C1185 C1191 1.390 . S
C1186 H1177 0.930 . S
C1186 C1184 1.384 . S
C1186 C1187 1.372 . S
C1187 C1186 1.372 . S
C1187 C1188 1.400 . S
C1187 C1192 1.490 . S
C1188 H1178 0.930 . S
C1188 C1187 1.400 . S
C1188 C1191 1.386 . S
H1189 C1205 0.930 . S
H1190 C1206 0.931 . S
C1191 H1179 0.929 . S
C1191 C1185 1.390 . S
C1191 C1188 1.386 . S
C1192 C1187 1.490 . S
C1192 C1194 1.395 . S
C1192 C1195 1.403 . S
H1193 C1199 0.930 . S
C1194 H1180 0.930 . S
C1194 C1192 1.395 . S
C1194 C1197 1.403 . S
C1195 C1192 1.403 . S
C1195 C1196 1.524 . S
C1195 C1199 1.400 . S
C1196 H1181 0.960 . S
C1196 H1182 0.960 . S
C1196 H1183 0.960 . S
C1196 C1195 1.524 . S
C1197 C1194 1.403 . S
C1197 C1198 1.392 . S
C1197 C1201 1.495 . S
C1198 C1197 1.392 . S
C1198 C1199 1.385 . S
C1198 C1200 1.478 . S
C1199 H1193 0.930 . S
C1199 C1195 1.400 . S
C1199 C1198 1.385 . S
C1200 C1198 1.478 . S
C1200 C1202 1.381 . S
C1200 C1206 1.383 . S
C1201 C1197 1.495 . S
C1201 H1207 0.959 . S
C1201 H1208 0.961 . S
C1201 H1209 0.960 . S
C1202 C1200 1.381 . S
C1202 C1203 1.394 . S
C1202 H1210 0.930 . S
C1203 C1202 1.394 . S
C1203 C1204 1.383 . S
C1203 H1211 0.929 . S
C1204 C1203 1.383 . S
C1204 C1205 1.377 . S
C1205 H1189 0.930 . S
C1205 C1204 1.377 . S
C1205 C1206 1.379 . S
C1206 H1190 0.931 . S
C1206 C1200 1.383 . S
C1206 C1205 1.379 . S
H1207 C1201 0.959 . S
H1208 C1201 0.961 . S
H1209 C1201 0.960 . S
H1210 C1202 0.930 . S
H1211 C1203 0.929 . S
H1212 C1220 0.929 . S
H1213 C1222 0.930 . S
H1214 C1224 0.930 . S
H1215 C1227 0.929 . S
H1216 C1230 0.930 . S
H1217 C1232 0.960 . S
H1218 C1232 0.960 . S
H1219 C1232 0.960 . S
C1220 H1212 0.929 . S
C1220 C1221 1.377 . S
C1220 C1222 1.384 . S
C1221 C1220 1.377 . S
C1221 C1227 1.390 . S
C1222 H1213 0.930 . S
C1222 C1220 1.384 . S
C1222 C1223 1.372 . S
C1223 C1222 1.372 . S
C1223 C1224 1.400 . S
C1223 C1228 1.490 . S
C1224 H1214 0.930 . S
C1224 C1223 1.400 . S
C1224 C1227 1.386 . S
H1225 C1241 0.930 . S
H1226 C1242 0.931 . S
C1227 H1215 0.929 . S
C1227 C1221 1.390 . S
C1227 C1224 1.386 . S
C1228 C1223 1.490 . S
C1228 C1230 1.395 . S
C1228 C1231 1.403 . S
H1229 C1235 0.930 . S
C1230 H1216 0.930 . S
C1230 C1228 1.395 . S
C1230 C1233 1.403 . S
C1231 C1228 1.403 . S
C1231 C1232 1.524 . S
C1231 C1235 1.400 . S
C1232 H1217 0.960 . S
C1232 H1218 0.960 . S
C1232 H1219 0.960 . S
C1232 C1231 1.524 . S
C1233 C1230 1.403 . S
C1233 C1234 1.392 . S
C1233 C1237 1.495 . S
C1234 C1233 1.392 . S
C1234 C1235 1.385 . S
C1234 C1236 1.478 . S
C1235 H1229 0.930 . S
C1235 C1231 1.400 . S
C1235 C1234 1.385 . S
C1236 C1234 1.478 . S
C1236 C1238 1.381 . S
C1236 C1242 1.383 . S
C1237 C1233 1.495 . S
C1237 H1243 0.959 . S
C1237 H1244 0.961 . S
C1237 H1245 0.960 . S
C1238 C1236 1.381 . S
C1238 C1239 1.394 . S
C1238 H1246 0.930 . S
C1239 C1238 1.394 . S
C1239 C1240 1.383 . S
C1239 H1247 0.929 . S
C1240 C1239 1.383 . S
C1240 C1241 1.377 . S
C1241 H1225 0.930 . S
C1241 C1240 1.377 . S
C1241 C1242 1.379 . S
C1242 H1226 0.931 . S
C1242 C1236 1.383 . S
C1242 C1241 1.379 . S
H1243 C1237 0.959 . S
H1244 C1237 0.961 . S
H1245 C1237 0.960 . S
H1246 C1238 0.930 . S
H1247 C1239 0.929 . S
H1248 C1256 0.929 . S
H1249 C1258 0.930 . S
H1250 C1260 0.930 . S
H1251 C1263 0.929 . S
H1252 C1266 0.930 . S
H1253 C1268 0.960 . S
H1254 C1268 0.960 . S
H1255 C1268 0.960 . S
C1256 H1248 0.929 . S
C1256 C1257 1.377 . S
C1256 C1258 1.384 . S
C1257 C1256 1.377 . S
C1257 C1263 1.390 . S
C1258 H1249 0.930 . S
C1258 C1256 1.384 . S
C1258 C1259 1.372 . S
C1259 C1258 1.372 . S
C1259 C1260 1.400 . S
C1259 C1264 1.490 . S
C1260 H1250 0.930 . S
C1260 C1259 1.400 . S
C1260 C1263 1.386 . S
H1261 C1277 0.930 . S
H1262 C1278 0.931 . S
C1263 H1251 0.929 . S
C1263 C1257 1.390 . S
C1263 C1260 1.386 . S
C1264 C1259 1.490 . S
C1264 C1266 1.395 . S
C1264 C1267 1.403 . S
H1265 C1271 0.930 . S
C1266 H1252 0.930 . S
C1266 C1264 1.395 . S
C1266 C1269 1.403 . S
C1267 C1264 1.403 . S
C1267 C1268 1.524 . S
C1267 C1271 1.400 . S
C1268 H1253 0.960 . S
C1268 H1254 0.960 . S
C1268 H1255 0.960 . S
C1268 C1267 1.524 . S
C1269 C1266 1.403 . S
C1269 C1270 1.392 . S
C1269 C1273 1.495 . S
C1270 C1269 1.392 . S
C1270 C1271 1.385 . S
C1270 C1272 1.478 . S
C1271 H1265 0.930 . S
C1271 C1267 1.400 . S
C1271 C1270 1.385 . S
C1272 C1270 1.478 . S
C1272 C1274 1.381 . S
C1272 C1278 1.383 . S
C1273 C1269 1.495 . S
C1273 H1279 0.959 . S
C1273 H1280 0.961 . S
C1273 H1281 0.960 . S
C1274 C1272 1.381 . S
C1274 C1275 1.394 . S
C1274 H1282 0.930 . S
C1275 C1274 1.394 . S
C1275 C1276 1.383 . S
C1275 H1283 0.929 . S
C1276 C1275 1.383 . S
C1276 C1277 1.377 . S
C1277 H1261 0.930 . S
C1277 C1276 1.377 . S
C1277 C1278 1.379 . S
C1278 H1262 0.931 . S
C1278 C1272 1.383 . S
C1278 C1277 1.379 . S
H1279 C1273 0.959 . S
H1280 C1273 0.961 . S
H1281 C1273 0.960 . S
H1282 C1274 0.930 . S
H1283 C1275 0.929 . S
H1284 C1292 0.929 . S
H1285 C1294 0.930 . S
H1286 C1296 0.930 . S
H1287 C1299 0.929 . S
H1288 C1302 0.930 . S
H1289 C1304 0.960 . S
H1290 C1304 0.960 . S
H1291 C1304 0.960 . S
C1292 H1284 0.929 . S
C1292 C1293 1.377 . S
C1292 C1294 1.384 . S
C1293 C1292 1.377 . S
C1293 C1299 1.390 . S
C1294 H1285 0.930 . S
C1294 C1292 1.384 . S
C1294 C1295 1.372 . S
C1295 C1294 1.372 . S
C1295 C1296 1.400 . S
C1295 C1300 1.490 . S
C1296 H1286 0.930 . S
C1296 C1295 1.400 . S
C1296 C1299 1.386 . S
H1297 C1313 0.930 . S
H1298 C1314 0.931 . S
C1299 H1287 0.929 . S
C1299 C1293 1.390 . S
C1299 C1296 1.386 . S
C1300 C1295 1.490 . S
C1300 C1302 1.395 . S
C1300 C1303 1.403 . S
H1301 C1307 0.930 . S
C1302 H1288 0.930 . S
C1302 C1300 1.395 . S
C1302 C1305 1.403 . S
C1303 C1300 1.403 . S
C1303 C1304 1.524 . S
C1303 C1307 1.400 . S
C1304 H1289 0.960 . S
C1304 H1290 0.960 . S
C1304 H1291 0.960 . S
C1304 C1303 1.524 . S
C1305 C1302 1.403 . S
C1305 C1306 1.392 . S
C1305 C1309 1.495 . S
C1306 C1305 1.392 . S
C1306 C1307 1.385 . S
C1306 C1308 1.478 . S
C1307 H1301 0.930 . S
C1307 C1303 1.400 . S
C1307 C1306 1.385 . S
C1308 C1306 1.478 . S
C1308 C1310 1.381 . S
C1308 C1314 1.383 . S
C1309 C1305 1.495 . S
C1309 H1315 0.959 . S
C1309 H1316 0.961 . S
C1309 H1317 0.960 . S
C1310 C1308 1.381 . S
C1310 C1311 1.394 . S
C1310 H1318 0.930 . S
C1311 C1310 1.394 . S
C1311 C1312 1.383 . S
C1311 H1319 0.929 . S
C1312 C1311 1.383 . S
C1312 C1313 1.377 . S
C1313 H1297 0.930 . S
C1313 C1312 1.377 . S
C1313 C1314 1.379 . S
C1314 H1298 0.931 . S
C1314 C1308 1.383 . S
C1314 C1313 1.379 . S
H1315 C1309 0.959 . S
H1316 C1309 0.961 . S
H1317 C1309 0.960 . S
H1318 C1310 0.930 . S
H1319 C1311 0.929 . S
H1320 C1328 0.929 . S
H1321 C1330 0.930 . S
H1322 C1332 0.930 . S
H1323 C1335 0.929 . S
H1324 C1338 0.930 . S
H1325 C1340 0.960 . S
H1326 C1340 0.960 . S
H1327 C1340 0.960 . S
C1328 H1320 0.929 . S
C1328 C1329 1.377 . S
C1328 C1330 1.384 . S
C1329 C1328 1.377 . S
C1329 C1335 1.390 . S
C1330 H1321 0.930 . S
C1330 C1328 1.384 . S
C1330 C1331 1.372 . S
C1331 C1330 1.372 . S
C1331 C1332 1.400 . S
C1331 C1336 1.490 . S
C1332 H1322 0.930 . S
C1332 C1331 1.400 . S
C1332 C1335 1.386 . S
H1333 C1349 0.930 . S
H1334 C1350 0.931 . S
C1335 H1323 0.929 . S
C1335 C1329 1.390 . S
C1335 C1332 1.386 . S
C1336 C1331 1.490 . S
C1336 C1338 1.395 . S
C1336 C1339 1.403 . S
H1337 C1343 0.930 . S
C1338 H1324 0.930 . S
C1338 C1336 1.395 . S
C1338 C1341 1.403 . S
C1339 C1336 1.403 . S
C1339 C1340 1.524 . S
C1339 C1343 1.400 . S
C1340 H1325 0.960 . S
C1340 H1326 0.960 . S
C1340 H1327 0.960 . S
C1340 C1339 1.524 . S
C1341 C1338 1.403 . S
C1341 C1342 1.392 . S
C1341 C1345 1.495 . S
C1342 C1341 1.392 . S
C1342 C1343 1.385 . S
C1342 C1344 1.478 . S
C1343 H1337 0.930 . S
C1343 C1339 1.400 . S
C1343 C1342 1.385 . S
C1344 C1342 1.478 . S
C1344 C1346 1.381 . S
C1344 C1350 1.383 . S
C1345 C1341 1.495 . S
C1345 H1351 0.959 . S
C1345 H1352 0.961 . S
C1345 H1353 0.960 . S
C1346 C1344 1.381 . S
C1346 C1347 1.394 . S
C1346 H1354 0.930 . S
C1347 C1346 1.394 . S
C1347 C1348 1.383 . S
C1347 H1355 0.929 . S
C1348 C1347 1.383 . S
C1348 C1349 1.377 . S
C1349 H1333 0.930 . S
C1349 C1348 1.377 . S
C1349 C1350 1.379 . S
C1350 H1334 0.931 . S
C1350 C1344 1.383 . S
C1350 C1349 1.379 . S
H1351 C1345 0.959 . S
H1352 C1345 0.961 . S
H1353 C1345 0.960 . S
H1354 C1346 0.930 . S
H1355 C1347 0.929 . S
H1356 C1364 0.929 . S
H1357 C1366 0.930 . S
H1358 C1368 0.930 . S
H1359 C1371 0.929 . S
H1360 C1374 0.930 . S
H1361 C1376 0.960 . S
H1362 C1376 0.960 . S
H1363 C1376 0.960 . S
C1364 H1356 0.929 . S
C1364 C1365 1.377 . S
C1364 C1366 1.384 . S
C1365 C1364 1.377 . S
C1365 C1371 1.390 . S
C1366 H1357 0.930 . S
C1366 C1364 1.384 . S
C1366 C1367 1.372 . S
C1367 C1366 1.372 . S
C1367 C1368 1.400 . S
C1367 C1372 1.490 . S
C1368 H1358 0.930 . S
C1368 C1367 1.400 . S
C1368 C1371 1.386 . S
H1369 C1385 0.930 . S
H1370 C1386 0.931 . S
C1371 H1359 0.929 . S
C1371 C1365 1.390 . S
C1371 C1368 1.386 . S
C1372 C1367 1.490 . S
C1372 C1374 1.395 . S
C1372 C1375 1.403 . S
H1373 C1379 0.930 . S
C1374 H1360 0.930 . S
C1374 C1372 1.395 . S
C1374 C1377 1.403 . S
C1375 C1372 1.403 . S
C1375 C1376 1.524 . S
C1375 C1379 1.400 . S
C1376 H1361 0.960 . S
C1376 H1362 0.960 . S
C1376 H1363 0.960 . S
C1376 C1375 1.524 . S
C1377 C1374 1.403 . S
C1377 C1378 1.392 . S
C1377 C1381 1.495 . S
C1378 C1377 1.392 . S
C1378 C1379 1.385 . S
C1378 C1380 1.478 . S
C1379 H1373 0.930 . S
C1379 C1375 1.400 . S
C1379 C1378 1.385 . S
C1380 C1378 1.478 . S
C1380 C1382 1.381 . S
C1380 C1386 1.383 . S
C1381 C1377 1.495 . S
C1381 H1387 0.959 . S
C1381 H1388 0.961 . S
C1381 H1389 0.960 . S
C1382 C1380 1.381 . S
C1382 C1383 1.394 . S
C1382 H1390 0.930 . S
C1383 C1382 1.394 . S
C1383 C1384 1.383 . S
C1383 H1391 0.929 . S
C1384 C1383 1.383 . S
C1384 C1385 1.377 . S
C1385 H1369 0.930 . S
C1385 C1384 1.377 . S
C1385 C1386 1.379 . S
C1386 H1370 0.931 . S
C1386 C1380 1.383 . S
C1386 C1385 1.379 . S
H1387 C1381 0.959 . S
H1388 C1381 0.961 . S
H1389 C1381 0.960 . S
H1390 C1382 0.930 . S
H1391 C1383 0.929 . S
H1392 C1400 0.929 . S
H1393 C1402 0.930 . S
H1394 C1404 0.930 . S
H1395 C1407 0.929 . S
H1396 C1410 0.930 . S
H1397 C1412 0.960 . S
H1398 C1412 0.960 . S
H1399 C1412 0.960 . S
C1400 H1392 0.929 . S
C1400 C1401 1.377 . S
C1400 C1402 1.384 . S
C1401 C1400 1.377 . S
C1401 C1407 1.390 . S
C1402 H1393 0.930 . S
C1402 C1400 1.384 . S
C1402 C1403 1.372 . S
C1403 C1402 1.372 . S
C1403 C1404 1.400 . S
C1403 C1408 1.490 . S
C1404 H1394 0.930 . S
C1404 C1403 1.400 . S
C1404 C1407 1.386 . S
H1405 C1421 0.930 . S
H1406 C1422 0.931 . S
C1407 H1395 0.929 . S
C1407 C1401 1.390 . S
C1407 C1404 1.386 . S
C1408 C1403 1.490 . S
C1408 C1410 1.395 . S
C1408 C1411 1.403 . S
H1409 C1415 0.930 . S
C1410 H1396 0.930 . S
C1410 C1408 1.395 . S
C1410 C1413 1.403 . S
C1411 C1408 1.403 . S
C1411 C1412 1.524 . S
C1411 C1415 1.400 . S
C1412 H1397 0.960 . S
C1412 H1398 0.960 . S
C1412 H1399 0.960 . S
C1412 C1411 1.524 . S
C1413 C1410 1.403 . S
C1413 C1414 1.392 . S
C1413 C1417 1.495 . S
C1414 C1413 1.392 . S
C1414 C1415 1.385 . S
C1414 C1416 1.478 . S
C1415 H1409 0.930 . S
C1415 C1411 1.400 . S
C1415 C1414 1.385 . S
C1416 C1414 1.478 . S
C1416 C1418 1.381 . S
C1416 C1422 1.383 . S
C1417 C1413 1.495 . S
C1417 H1423 0.959 . S
C1417 H1424 0.961 . S
C1417 H1425 0.960 . S
C1418 C1416 1.381 . S
C1418 C1419 1.394 . S
C1418 H1426 0.930 . S
C1419 C1418 1.394 . S
C1419 C1420 1.383 . S
C1419 H1427 0.929 . S
C1420 C1419 1.383 . S
C1420 C1421 1.377 . S
C1421 H1405 0.930 . S
C1421 C1420 1.377 . S
C1421 C1422 1.379 . S
C1422 H1406 0.931 . S
C1422 C1416 1.383 . S
C1422 C1421 1.379 . S
H1423 C1417 0.959 . S
H1424 C1417 0.961 . S
H1425 C1417 0.960 . S
H1426 C1418 0.930 . S
H1427 C1419 0.929 . S
H1428 C1436 0.929 . S
H1429 C1438 0.930 . S
H1430 C1440 0.930 . S
H1431 C1443 0.929 . S
H1432 C1446 0.930 . S
H1433 C1448 0.960 . S
H1434 C1448 0.960 . S
H1435 C1448 0.960 . S
C1436 H1428 0.929 . S
C1436 C1437 1.377 . S
C1436 C1438 1.384 . S
C1437 C1436 1.377 . S
C1437 C1443 1.390 . S
C1438 H1429 0.930 . S
C1438 C1436 1.384 . S
C1438 C1439 1.372 . S
C1439 C1438 1.372 . S
C1439 C1440 1.400 . S
C1439 C1444 1.490 . S
C1440 H1430 0.930 . S
C1440 C1439 1.400 . S
C1440 C1443 1.386 . S
H1441 C1457 0.930 . S
H1442 C1458 0.931 . S
C1443 H1431 0.929 . S
C1443 C1437 1.390 . S
C1443 C1440 1.386 . S
C1444 C1439 1.490 . S
C1444 C1446 1.395 . S
C1444 C1447 1.403 . S
H1445 C1451 0.930 . S
C1446 H1432 0.930 . S
C1446 C1444 1.395 . S
C1446 C1449 1.403 . S
C1447 C1444 1.403 . S
C1447 C1448 1.524 . S
C1447 C1451 1.400 . S
C1448 H1433 0.960 . S
C1448 H1434 0.960 . S
C1448 H1435 0.960 . S
C1448 C1447 1.524 . S
C1449 C1446 1.403 . S
C1449 C1450 1.392 . S
C1449 C1453 1.495 . S
C1450 C1449 1.392 . S
C1450 C1451 1.385 . S
C1450 C1452 1.478 . S
C1451 H1445 0.930 . S
C1451 C1447 1.400 . S
C1451 C1450 1.385 . S
C1452 C1450 1.478 . S
C1452 C1454 1.381 . S
C1452 C1458 1.383 . S
C1453 C1449 1.495 . S
C1453 H1459 0.959 . S
C1453 H1460 0.961 . S
C1453 H1461 0.960 . S
C1454 C1452 1.381 . S
C1454 C1455 1.394 . S
C1454 H1462 0.930 . S
C1455 C1454 1.394 . S
C1455 C1456 1.383 . S
C1455 H1463 0.929 . S
C1456 C1455 1.383 . S
C1456 C1457 1.377 . S
C1457 H1441 0.930 . S
C1457 C1456 1.377 . S
C1457 C1458 1.379 . S
C1458 H1442 0.931 . S
C1458 C1452 1.383 . S
C1458 C1457 1.379 . S
H1459 C1453 0.959 . S
H1460 C1453 0.961 . S
H1461 C1453 0.960 . S
H1462 C1454 0.930 . S
H1463 C1455 0.929 . S
H1464 C1472 0.929 . S
H1465 C1474 0.930 . S
H1466 C1476 0.930 . S
H1467 C1479 0.929 . S
H1468 C1482 0.930 . S
H1469 C1484 0.960 . S
H1470 C1484 0.960 . S
H1471 C1484 0.960 . S
C1472 H1464 0.929 . S
C1472 C1473 1.377 . S
C1472 C1474 1.384 . S
C1473 C1472 1.377 . S
C1473 C1479 1.390 . S
C1474 H1465 0.930 . S
C1474 C1472 1.384 . S
C1474 C1475 1.372 . S
C1475 C1474 1.372 . S
C1475 C1476 1.400 . S
C1475 C1480 1.490 . S
C1476 H1466 0.930 . S
C1476 C1475 1.400 . S
C1476 C1479 1.386 . S
H1477 C1493 0.930 . S
H1478 C1494 0.931 . S
C1479 H1467 0.929 . S
C1479 C1473 1.390 . S
C1479 C1476 1.386 . S
C1480 C1475 1.490 . S
C1480 C1482 1.395 . S
C1480 C1483 1.403 . S
H1481 C1487 0.930 . S
C1482 H1468 0.930 . S
C1482 C1480 1.395 . S
C1482 C1485 1.403 . S
C1483 C1480 1.403 . S
C1483 C1484 1.524 . S
C1483 C1487 1.400 . S
C1484 H1469 0.960 . S
C1484 H1470 0.960 . S
C1484 H1471 0.960 . S
C1484 C1483 1.524 . S
C1485 C1482 1.403 . S
C1485 C1486 1.392 . S
C1485 C1489 1.495 . S
C1486 C1485 1.392 . S
C1486 C1487 1.385 . S
C1486 C1488 1.478 . S
C1487 H1481 0.930 . S
C1487 C1483 1.400 . S
C1487 C1486 1.385 . S
C1488 C1486 1.478 . S
C1488 C1490 1.381 . S
C1488 C1494 1.383 . S
C1489 C1485 1.495 . S
C1489 H1495 0.959 . S
C1489 H1496 0.961 . S
C1489 H1497 0.960 . S
C1490 C1488 1.381 . S
C1490 C1491 1.394 . S
C1490 H1498 0.930 . S
C1491 C1490 1.394 . S
C1491 C1492 1.383 . S
C1491 H1499 0.929 . S
C1492 C1491 1.383 . S
C1492 C1493 1.377 . S
C1493 H1477 0.930 . S
C1493 C1492 1.377 . S
C1493 C1494 1.379 . S
C1494 H1478 0.931 . S
C1494 C1488 1.383 . S
C1494 C1493 1.379 . S
H1495 C1489 0.959 . S
H1496 C1489 0.961 . S
H1497 C1489 0.960 . S
H1498 C1490 0.930 . S
H1499 C1491 0.929 . S
H1500 C1508 0.929 . S
H1501 C1510 0.930 . S
H1502 C1512 0.930 . S
H1503 C1515 0.929 . S
H1504 C1518 0.930 . S
H1505 C1520 0.960 . S
H1506 C1520 0.960 . S
H1507 C1520 0.960 . S
C1508 H1500 0.929 . S
C1508 C1509 1.377 . S
C1508 C1510 1.384 . S
C1509 C1508 1.377 . S
C1509 C1515 1.390 . S
C1510 H1501 0.930 . S
C1510 C1508 1.384 . S
C1510 C1511 1.372 . S
C1511 C1510 1.372 . S
C1511 C1512 1.400 . S
C1511 C1516 1.490 . S
C1512 H1502 0.930 . S
C1512 C1511 1.400 . S
C1512 C1515 1.386 . S
H1513 C1529 0.930 . S
H1514 C1530 0.931 . S
C1515 H1503 0.929 . S
C1515 C1509 1.390 . S
C1515 C1512 1.386 . S
C1516 C1511 1.490 . S
C1516 C1518 1.395 . S
C1516 C1519 1.403 . S
H1517 C1523 0.930 . S
C1518 H1504 0.930 . S
C1518 C1516 1.395 . S
C1518 C1521 1.403 . S
C1519 C1516 1.403 . S
C1519 C1520 1.524 . S
C1519 C1523 1.400 . S
C1520 H1505 0.960 . S
C1520 H1506 0.960 . S
C1520 H1507 0.960 . S
C1520 C1519 1.524 . S
C1521 C1518 1.403 . S
C1521 C1522 1.392 . S
C1521 C1525 1.495 . S
C1522 C1521 1.392 . S
C1522 C1523 1.385 . S
C1522 C1524 1.478 . S
C1523 H1517 0.930 . S
C1523 C1519 1.400 . S
C1523 C1522 1.385 . S
C1524 C1522 1.478 . S
C1524 C1526 1.381 . S
C1524 C1530 1.383 . S
C1525 C1521 1.495 . S
C1525 H1531 0.959 . S
C1525 H1532 0.961 . S
C1525 H1533 0.960 . S
C1526 C1524 1.381 . S
C1526 C1527 1.394 . S
C1526 H1534 0.930 . S
C1527 C1526 1.394 . S
C1527 C1528 1.383 . S
C1527 H1535 0.929 . S
C1528 C1527 1.383 . S
C1528 C1529 1.377 . S
C1529 H1513 0.930 . S
C1529 C1528 1.377 . S
C1529 C1530 1.379 . S
C1530 H1514 0.931 . S
C1530 C1524 1.383 . S
C1530 C1529 1.379 . S
H1531 C1525 0.959 . S
H1532 C1525 0.961 . S
H1533 C1525 0.960 . S
H1534 C1526 0.930 . S
H1535 C1527 0.929 . S
H1536 C1544 0.929 . S
H1537 C1546 0.930 . S
H1538 C1548 0.930 1_455 S
H1539 C1551 0.929 . S
H1540 C1554 0.930 . S
H1541 C1556 0.969 . S
H1542 C1556 0.960 . S
H1543 C1556 0.962 1_455 S
C1544 H1536 0.929 . S
C1544 C1545 1.377 . S
C1544 C1546 1.384 . S
C1545 C1544 1.377 . S
C1545 C1551 1.390 . S
C1546 H1537 0.930 . S
C1546 C1544 1.384 . S
C1546 C1547 1.372 . S
C1547 C1546 1.372 . S
C1547 C1548 1.400 . S
C1547 C1552 1.490 . S
C1548 H1538 0.930 1_655 S
C1548 C1547 1.400 . S
C1548 C1551 1.386 . S
H1549 C1565 0.930 . S
H1550 C1566 0.931 . S
C1551 H1539 0.929 . S
C1551 C1545 1.390 . S
C1551 C1548 1.386 . S
C1552 C1547 1.490 . S
C1552 C1554 1.395 . S
C1552 C1555 1.403 . S
H1553 C1559 0.930 . S
C1554 H1540 0.930 . S
C1554 C1552 1.395 . S
C1554 C1557 1.403 1_655 S
C1555 C1552 1.403 . S
C1555 C1556 1.524 . S
C1555 C1559 1.400 1_655 S
C1556 H1541 0.969 . S
C1556 H1542 0.960 . S
C1556 H1543 0.962 1_655 S
C1556 C1555 1.524 . S
C1557 C1554 1.403 1_455 S
C1557 C1558 1.392 . S
C1557 C1561 1.495 . S
C1558 C1557 1.392 . S
C1558 C1559 1.385 . S
C1558 C1560 1.478 . S
C1559 H1553 0.930 . S
C1559 C1555 1.400 1_455 S
C1559 C1558 1.385 . S
C1560 C1558 1.478 . S
C1560 C1562 1.381 . S
C1560 C1566 1.383 . S
C1561 C1557 1.495 . S
C1561 H1567 0.959 1_455 S
C1561 H1568 0.961 . S
C1561 H1569 0.960 1_455 S
C1562 C1560 1.381 . S
C1562 C1563 1.394 . S
C1562 H1570 0.930 1_455 S
C1563 C1562 1.394 . S
C1563 C1564 1.383 . S
C1563 H1571 0.929 . S
C1564 C1563 1.383 . S
C1564 C1565 1.377 . S
C1565 H1549 0.930 . S
C1565 C1564 1.377 . S
C1565 C1566 1.379 . S
C1566 H1550 0.931 . S
C1566 C1560 1.383 . S
C1566 C1565 1.379 . S
H1567 C1561 0.959 1_655 S
H1568 C1561 0.961 . S
H1569 C1561 0.960 1_655 S
H1570 C1562 0.930 1_655 S
H1571 C1563 0.929 . S
H1572 C1580 0.929 . S
H1573 C1582 0.930 . S
H1574 C1584 0.930 1_545 S
H1575 C1587 0.929 . S
H1576 C1590 0.930 . S
H1577 C1592 0.984 . S
H1578 C1592 0.920 1_565 S
H1579 C1592 0.980 . S
C1580 H1572 0.929 . S
C1580 C1581 1.377 . S
C1580 C1582 1.384 . S
C1581 C1580 1.377 . S
C1581 C1587 1.390 . S
C1582 H1573 0.930 . S
C1582 C1580 1.384 . S
C1582 C1583 1.372 . S
C1583 C1582 1.372 . S
C1583 C1584 1.400 . S
C1583 C1588 1.490 . S
C1584 H1574 0.930 1_565 S
C1584 C1583 1.400 . S
C1584 C1587 1.386 . S
H1585 C1601 0.930 . S
H1586 C1602 0.931 . S
C1587 H1575 0.929 . S
C1587 C1581 1.390 . S
C1587 C1584 1.386 . S
C1588 C1583 1.490 . S
C1588 C1590 1.395 . S
C1588 C1591 1.408 . S
H1589 C1595 0.930 . S
C1590 H1576 0.930 . S
C1590 C1588 1.395 . S
C1590 C1593 1.403 . S
C1591 C1588 1.408 . S
C1591 C1592 1.522 1_565 S
C1591 C1595 1.395 1_565 S
C1592 H1577 0.984 . S
C1592 H1578 0.920 1_545 S
C1592 H1579 0.980 . S
C1592 C1591 1.522 1_545 S
C1593 C1590 1.403 . S
C1593 C1594 1.392 1_565 S
C1593 C1597 1.495 . S
C1594 C1593 1.392 1_545 S
C1594 C1595 1.385 . S
C1594 C1596 1.478 . S
C1595 H1589 0.930 . S
C1595 C1591 1.395 1_545 S
C1595 C1594 1.385 . S
C1596 C1594 1.478 . S
C1596 C1598 1.381 . S
C1596 C1602 1.383 . S
C1597 C1593 1.495 . S
C1597 H1603 0.959 . S
C1597 H1604 0.961 1_565 S
C1597 H1605 0.960 . S
C1598 C1596 1.381 . S
C1598 C1599 1.394 . S
C1598 H1606 0.930 1_545 S
C1599 C1598 1.394 . S
C1599 C1600 1.383 . S
C1599 H1607 0.929 . S
C1600 C1599 1.383 . S
C1600 C1601 1.377 . S
C1601 H1585 0.930 . S
C1601 C1600 1.377 . S
C1601 C1602 1.379 . S
C1602 H1586 0.931 . S
C1602 C1596 1.383 . S
C1602 C1601 1.379 . S
H1603 C1597 0.959 . S
H1604 C1597 0.961 1_545 S
H1605 C1597 0.960 . S
H1606 C1598 0.930 1_565 S
H1607 C1599 0.929 . S
H1608 C1616 0.929 . S
H1609 C1618 0.930 . S
H1610 C1620 0.930 . S
H1611 C1623 0.929 . S
H1612 C1626 0.930 . S
H1613 C1628 0.960 . S
H1614 C1628 0.960 . S
H1615 C1628 0.960 . S
C1616 H1608 0.929 . S
C1616 C1617 1.377 . S
C1616 C1618 1.384 . S
C1617 C1616 1.377 . S
C1617 C1623 1.390 . S
C1618 H1609 0.930 . S
C1618 C1616 1.384 . S
C1618 C1619 1.372 . S
C1619 C1618 1.372 . S
C1619 C1620 1.400 . S
C1619 C1624 1.490 . S
C1620 H1610 0.930 . S
C1620 C1619 1.400 . S
C1620 C1623 1.386 . S
H1621 C1637 0.930 . S
H1622 C1638 0.931 . S
C1623 H1611 0.929 . S
C1623 C1617 1.390 . S
C1623 C1620 1.386 . S
C1624 C1619 1.490 . S
C1624 C1626 1.395 1_655 S
C1624 C1627 1.403 . S
H1625 C1631 0.930 . S
C1626 H1612 0.930 . S
C1626 C1624 1.395 1_455 S
C1626 C1629 1.403 . S
C1627 C1624 1.403 . S
C1627 C1628 1.524 . S
C1627 C1631 1.400 . S
C1628 H1613 0.960 . S
C1628 H1614 0.960 . S
C1628 H1615 0.960 . S
C1628 C1627 1.524 . S
C1629 C1626 1.403 . S
C1629 C1630 1.392 . S
C1629 C1633 1.495 . S
C1630 C1629 1.392 . S
C1630 C1631 1.385 1_455 S
C1630 C1632 1.478 . S
C1631 H1625 0.930 . S
C1631 C1627 1.400 . S
C1631 C1630 1.385 1_655 S
C1632 C1630 1.478 . S
C1632 C1634 1.381 . S
C1632 C1638 1.383 . S
C1633 C1629 1.495 . S
C1633 H1639 0.959 . S
C1633 H1640 0.961 . S
C1633 H1641 0.960 . S
C1634 C1632 1.381 . S
C1634 C1635 1.394 . S
C1634 H1642 0.930 . S
C1635 C1634 1.394 . S
C1635 C1636 1.383 . S
C1635 H1643 0.929 . S
C1636 C1635 1.383 . S
C1636 C1637 1.377 . S
C1637 H1621 0.930 . S
C1637 C1636 1.377 . S
C1637 C1638 1.379 . S
C1638 H1622 0.931 . S
C1638 C1632 1.383 . S
C1638 C1637 1.379 . S
H1639 C1633 0.959 . S
H1640 C1633 0.961 . S
H1641 C1633 0.960 . S
H1642 C1634 0.930 . S
H1643 C1635 0.929 . S
H1644 C1652 0.929 . S
H1645 C1654 0.930 1_565 S
H1646 C1656 0.930 . S
H1647 C1659 0.929 . S
H1648 C1662 0.930 . S
H1649 C1664 0.960 . S
H1650 C1664 0.960 . S
H1651 C1664 0.960 . S
C1652 H1644 0.929 . S
C1652 C1653 1.377 . S
C1652 C1654 1.384 . S
C1653 C1652 1.377 . S
C1653 C1659 1.390 . S
C1654 H1645 0.930 1_545 S
C1654 C1652 1.384 . S
C1654 C1655 1.372 . S
C1655 C1654 1.372 . S
C1655 C1656 1.400 . S
C1655 C1660 1.490 . S
C1656 H1646 0.930 . S
C1656 C1655 1.400 . S
C1656 C1659 1.386 . S
H1657 C1673 0.930 . S
H1658 C1674 0.931 1_545 S
C1659 H1647 0.929 . S
C1659 C1653 1.390 . S
C1659 C1656 1.386 . S
C1660 C1655 1.490 . S
C1660 C1662 1.371 1_545 S
C1660 C1663 1.403 . S
H1661 C1667 0.930 . S
C1662 H1648 0.930 . S
C1662 C1660 1.371 1_565 S
C1662 C1665 1.431 . S
C1663 C1660 1.403 . S
C1663 C1664 1.524 . S
C1663 C1667 1.400 1_545 S
C1664 H1649 0.960 . S
C1664 H1650 0.960 . S
C1664 H1651 0.960 . S
C1664 C1663 1.524 . S
C1665 C1662 1.431 . S
C1665 C1666 1.392 . S
C1665 C1669 1.495 . S
C1666 C1665 1.392 . S
C1666 C1667 1.385 . S
C1666 C1668 1.478 . S
C1667 H1661 0.930 . S
C1667 C1663 1.400 1_565 S
C1667 C1666 1.385 . S
C1668 C1666 1.478 . S
C1668 C1670 1.381 . S
C1668 C1674 1.383 . S
C1669 C1665 1.495 . S
C1669 H1675 0.959 . S
C1669 H1676 0.961 . S
C1669 H1677 0.960 . S
C1670 C1668 1.381 . S
C1670 C1671 1.394 . S
C1670 H1678 0.930 . S
C1671 C1670 1.394 . S
C1671 C1672 1.383 . S
C1671 H1679 0.929 . S
C1672 C1671 1.383 . S
C1672 C1673 1.377 . S
C1673 H1657 0.930 . S
C1673 C1672 1.377 . S
C1673 C1674 1.379 . S
C1674 H1658 0.931 1_565 S
C1674 C1668 1.383 . S
C1674 C1673 1.379 . S
H1675 C1669 0.959 . S
H1676 C1669 0.961 . S
H1677 C1669 0.960 . S
H1678 C1670 0.930 . S
H1679 C1671 0.929 . S
H1680 C1688 0.929 . S
H1681 C1690 0.930 . S
H1682 C1692 0.930 . S
H1683 C1695 0.929 . S
H1684 C1698 0.930 . S
H1685 C1700 0.960 . S
H1686 C1700 0.960 . S
H1687 C1700 0.960 . S
C1688 H1680 0.929 . S
C1688 C1689 1.377 . S
C1688 C1690 1.384 . S
C1689 C1688 1.377 . S
C1689 C1695 1.390 . S
C1690 H1681 0.930 . S
C1690 C1688 1.384 . S
C1690 C1691 1.372 . S
C1691 C1690 1.372 . S
C1691 C1692 1.400 . S
C1691 C1696 1.490 . S
C1692 H1682 0.930 . S
C1692 C1691 1.400 . S
C1692 C1695 1.386 . S
H1693 C1709 0.930 . S
H1694 C1710 0.931 . S
C1695 H1683 0.929 . S
C1695 C1689 1.390 . S
C1695 C1692 1.386 . S
C1696 C1691 1.490 . S
C1696 C1698 1.395 1_455 S
C1696 C1699 1.403 . S
H1697 C1703 0.930 . S
C1698 H1684 0.930 . S
C1698 C1696 1.395 1_655 S
C1698 C1701 1.403 . S
C1699 C1696 1.403 . S
C1699 C1700 1.524 . S
C1699 C1703 1.400 . S
C1700 H1685 0.960 . S
C1700 H1686 0.960 . S
C1700 H1687 0.960 . S
C1700 C1699 1.524 . S
C1701 C1698 1.403 . S
C1701 C1702 1.392 . S
C1701 C1705 1.495 . S
C1702 C1701 1.392 . S
C1702 C1703 1.385 1_655 S
C1702 C1704 1.478 . S
C1703 H1697 0.930 . S
C1703 C1699 1.400 . S
C1703 C1702 1.385 1_455 S
C1704 C1702 1.478 . S
C1704 C1706 1.381 . S
C1704 C1710 1.383 . S
C1705 C1701 1.495 . S
C1705 H1711 0.959 . S
C1705 H1712 0.961 . S
C1705 H1713 0.960 . S
C1706 C1704 1.381 . S
C1706 C1707 1.394 . S
C1706 H1714 0.930 . S
C1707 C1706 1.394 . S
C1707 C1708 1.383 . S
C1707 H1715 0.929 . S
C1708 C1707 1.383 . S
C1708 C1709 1.377 . S
C1709 H1693 0.930 . S
C1709 C1708 1.377 . S
C1709 C1710 1.379 . S
C1710 H1694 0.931 . S
C1710 C1704 1.383 . S
C1710 C1709 1.379 . S
H1711 C1705 0.959 . S
H1712 C1705 0.961 . S
H1713 C1705 0.960 . S
H1714 C1706 0.930 . S
H1715 C1707 0.929 . S
H1716 C1724 0.929 . S
H1717 C1726 0.930 . S
H1718 C1728 0.930 1_545 S
H1719 C1731 0.929 . S
H1720 C1734 0.930 . S
H1721 C1736 0.960 . S
H1722 C1736 0.960 . S
H1723 C1736 0.960 . S
C1724 H1716 0.929 . S
C1724 C1725 1.377 . S
C1724 C1726 1.384 . S
C1725 C1724 1.377 . S
C1725 C1731 1.390 . S
C1726 H1717 0.930 . S
C1726 C1724 1.384 . S
C1726 C1727 1.372 . S
C1727 C1726 1.372 . S
C1727 C1728 1.400 . S
C1727 C1732 1.490 . S
C1728 H1718 0.930 1_565 S
C1728 C1727 1.400 . S
C1728 C1731 1.386 . S
H1729 C1745 0.930 . S
H1730 C1746 0.931 . S
C1731 H1719 0.929 . S
C1731 C1725 1.390 . S
C1731 C1728 1.386 . S
C1732 C1727 1.490 . S
C1732 C1734 1.395 . S
C1732 C1735 1.403 1_565 S
H1733 C1739 0.930 . S
C1734 H1720 0.930 . S
C1734 C1732 1.395 . S
C1734 C1737 1.403 . S
C1735 C1732 1.403 1_545 S
C1735 C1736 1.524 . S
C1735 C1739 1.400 . S
C1736 H1721 0.960 . S
C1736 H1722 0.960 . S
C1736 H1723 0.960 . S
C1736 C1735 1.524 . S
C1737 C1734 1.403 . S
C1737 C1738 1.392 1_565 S
C1737 C1741 1.495 . S
C1738 C1737 1.392 1_545 S
C1738 C1739 1.385 . S
C1738 C1740 1.478 . S
C1739 H1733 0.930 . S
C1739 C1735 1.400 . S
C1739 C1738 1.385 . S
C1740 C1738 1.478 . S
C1740 C1742 1.381 . S
C1740 C1746 1.383 . S
C1741 C1737 1.495 . S
C1741 H1747 0.959 . S
C1741 H1748 0.961 . S
C1741 H1749 0.960 . S
C1742 C1740 1.381 . S
C1742 C1743 1.394 . S
C1742 H1750 0.930 1_545 S
C1743 C1742 1.394 . S
C1743 C1744 1.383 . S
C1743 H1751 0.929 . S
C1744 C1743 1.383 . S
C1744 C1745 1.377 . S
C1745 H1729 0.930 . S
C1745 C1744 1.377 . S
C1745 C1746 1.379 . S
C1746 H1730 0.931 . S
C1746 C1740 1.383 . S
C1746 C1745 1.379 . S
H1747 C1741 0.959 . S
H1748 C1741 0.961 . S
H1749 C1741 0.960 . S
H1750 C1742 0.930 1_565 S
H1751 C1743 0.929 . S
H1752 C1760 0.929 . S
H1753 C1762 0.930 . S
H1754 C1764 0.930 . S
H1755 C1767 0.929 . S
H1756 C1770 0.930 . S
H1757 C1772 0.960 . S
H1758 C1772 0.960 . S
H1759 C1772 0.960 . S
C1760 H1752 0.929 . S
C1760 C1761 1.377 . S
C1760 C1762 1.384 . S
C1761 C1760 1.377 . S
C1761 C1767 1.390 . S
C1762 H1753 0.930 . S
C1762 C1760 1.384 . S
C1762 C1763 1.372 . S
C1763 C1762 1.372 . S
C1763 C1764 1.400 . S
C1763 C1768 1.490 . S
C1764 H1754 0.930 . S
C1764 C1763 1.400 . S
C1764 C1767 1.386 . S
H1765 C1781 0.930 . S
H1766 C1782 0.931 . S
C1767 H1755 0.929 . S
C1767 C1761 1.390 . S
C1767 C1764 1.386 . S
C1768 C1763 1.490 . S
C1768 C1770 1.395 1_455 S
C1768 C1771 1.403 . S
H1769 C1775 0.930 . S
C1770 H1756 0.930 . S
C1770 C1768 1.395 1_655 S
C1770 C1773 1.403 . S
C1771 C1768 1.403 . S
C1771 C1772 1.524 . S
C1771 C1775 1.400 . S
C1772 H1757 0.960 . S
C1772 H1758 0.960 . S
C1772 H1759 0.960 . S
C1772 C1771 1.524 . S
C1773 C1770 1.403 . S
C1773 C1774 1.392 . S
C1773 C1777 1.495 . S
C1774 C1773 1.392 . S
C1774 C1775 1.385 1_655 S
C1774 C1776 1.478 . S
C1775 H1769 0.930 . S
C1775 C1771 1.400 . S
C1775 C1774 1.385 1_455 S
C1776 C1774 1.478 . S
C1776 C1778 1.381 . S
C1776 C1782 1.383 . S
C1777 C1773 1.495 . S
C1777 H1783 0.959 . S
C1777 H1784 0.961 . S
C1777 H1785 0.960 . S
C1778 C1776 1.381 . S
C1778 C1779 1.394 . S
C1778 H1786 0.930 . S
C1779 C1778 1.394 . S
C1779 C1780 1.383 . S
C1779 H1787 0.929 . S
C1780 C1779 1.383 . S
C1780 C1781 1.377 . S
C1781 H1765 0.930 . S
C1781 C1780 1.377 . S
C1781 C1782 1.379 . S
C1782 H1766 0.931 . S
C1782 C1776 1.383 . S
C1782 C1781 1.379 . S
H1783 C1777 0.959 . S
H1784 C1777 0.961 . S
H1785 C1777 0.960 . S
H1786 C1778 0.930 . S
H1787 C1779 0.929 . S
H1788 C1796 0.929 . S
H1789 C1798 0.930 . S
H1790 C1800 0.930 1_565 S
H1791 C1803 0.929 . S
H1792 C1806 0.930 . S
H1793 C1808 0.960 . S
H1794 C1808 0.960 1_545 S
H1795 C1808 0.960 . S
C1796 H1788 0.929 . S
C1796 C1797 1.377 . S
C1796 C1798 1.384 . S
C1797 C1796 1.377 . S
C1797 C1803 1.390 . S
C1798 H1789 0.930 . S
C1798 C1796 1.384 . S
C1798 C1799 1.372 . S
C1799 C1798 1.372 . S
C1799 C1800 1.400 . S
C1799 C1804 1.490 . S
C1800 H1790 0.930 1_545 S
C1800 C1799 1.400 . S
C1800 C1803 1.386 . S
H1801 C1817 0.930 . S
H1802 C1818 0.931 . S
C1803 H1791 0.929 . S
C1803 C1797 1.390 . S
C1803 C1800 1.386 . S
C1804 C1799 1.490 . S
C1804 C1806 1.395 . S
C1804 C1807 1.380 1_545 S
H1805 C1811 0.930 . S
C1806 H1792 0.930 . S
C1806 C1804 1.395 . S
C1806 C1809 1.403 . S
C1807 C1804 1.380 1_565 S
C1807 C1808 1.529 . S
C1807 C1811 1.419 . S
C1808 H1793 0.960 . S
C1808 H1794 0.960 1_565 S
C1808 H1795 0.960 . S
C1808 C1807 1.529 . S
C1809 C1806 1.403 . S
C1809 C1810 1.392 1_545 S
C1809 C1813 1.495 . S
C1810 C1809 1.392 1_565 S
C1810 C1811 1.385 . S
C1810 C1812 1.478 . S
C1811 H1805 0.930 . S
C1811 C1807 1.419 . S
C1811 C1810 1.385 . S
C1812 C1810 1.478 . S
C1812 C1814 1.381 . S
C1812 C1818 1.383 . S
C1813 C1809 1.495 . S
C1813 H1819 0.959 . S
C1813 H1820 0.961 1_545 S
C1813 H1821 0.960 . S
C1814 C1812 1.381 . S
C1814 C1815 1.394 . S
C1814 H1822 0.930 1_565 S
C1815 C1814 1.394 . S
C1815 C1816 1.383 . S
C1815 H1823 0.929 . S
C1816 C1815 1.383 . S
C1816 C1817 1.377 . S
C1817 H1801 0.930 . S
C1817 C1816 1.377 . S
C1817 C1818 1.379 . S
C1818 H1802 0.931 . S
C1818 C1812 1.383 . S
C1818 C1817 1.379 . S
H1819 C1813 0.959 . S
H1820 C1813 0.961 1_565 S
H1821 C1813 0.960 . S
H1822 C1814 0.930 1_545 S
H1823 C1815 0.929 . S
H1824 C1832 0.929 . S
H1825 C1834 0.930 1_554 S
H1826 C1836 0.930 . S
H1827 C1839 0.929 . S
H1828 C1842 0.930 . S
H1829 C1844 0.968 . S
H1830 C1844 0.960 1_554 S
H1831 C1844 0.960 . S
C1832 H1824 0.929 . S
C1832 C1833 1.377 . S
C1832 C1834 1.384 . S
C1833 C1832 1.377 . S
C1833 C1839 1.390 . S
C1834 H1825 0.930 1_556 S
C1834 C1832 1.384 . S
C1834 C1835 1.372 . S
C1835 C1834 1.372 . S
C1835 C1836 1.400 . S
C1835 C1840 1.490 . S
C1836 H1826 0.930 . S
C1836 C1835 1.400 . S
C1836 C1839 1.386 . S
H1837 C1853 0.930 . S
H1838 C1854 0.931 1_556 S
C1839 H1827 0.929 . S
C1839 C1833 1.390 . S
C1839 C1836 1.386 . S
C1840 C1835 1.490 . S
C1840 C1842 1.395 . S
C1840 C1843 1.403 . S
H1841 C1847 0.930 . S
C1842 H1828 0.930 . S
C1842 C1840 1.395 . S
C1842 C1845 1.403 1_556 S
C1843 C1840 1.403 . S
C1843 C1844 1.524 . S
C1843 C1847 1.400 1_556 S
C1844 H1829 0.968 . S
C1844 H1830 0.960 1_556 S
C1844 H1831 0.960 . S
C1844 C1843 1.524 . S
C1845 C1842 1.403 1_554 S
C1845 C1846 1.392 . S
C1845 C1849 1.495 . S
C1846 C1845 1.392 . S
C1846 C1847 1.385 . S
C1846 C1848 1.478 . S
C1847 H1841 0.930 . S
C1847 C1843 1.400 1_554 S
C1847 C1846 1.385 . S
C1848 C1846 1.478 . S
C1848 C1850 1.381 . S
C1848 C1854 1.383 . S
C1849 C1845 1.495 . S
C1849 H1855 0.959 . S
C1849 H1856 0.976 . S
C1849 H1857 0.960 . S
C1850 C1848 1.381 . S
C1850 C1851 1.394 . S
C1850 H1858 0.930 . S
C1851 C1850 1.394 . S
C1851 C1852 1.383 . S
C1851 H1859 0.929 . S
C1852 C1851 1.383 . S
C1852 C1853 1.377 . S
C1853 H1837 0.930 . S
C1853 C1852 1.377 . S
C1853 C1854 1.379 . S
C1854 H1838 0.931 1_554 S
C1854 C1848 1.383 . S
C1854 C1853 1.379 . S
H1855 C1849 0.959 . S
H1856 C1849 0.976 . S
H1857 C1849 0.960 . S
H1858 C1850 0.930 . S
H1859 C1851 0.929 . S
H1860 C1868 0.929 . S
H1861 C1870 0.930 . S
H1862 C1872 0.930 1_556 S
H1863 C1875 0.929 . S
H1864 C1878 0.930 . S
H1865 C1880 0.960 . S
H1866 C1880 0.960 1_554 S
H1867 C1880 0.960 . S
C1868 H1860 0.929 . S
C1868 C1869 1.377 . S
C1868 C1870 1.384 . S
C1869 C1868 1.377 . S
C1869 C1875 1.390 . S
C1870 H1861 0.930 . S
C1870 C1868 1.384 . S
C1870 C1871 1.372 . S
C1871 C1870 1.372 . S
C1871 C1872 1.400 . S
C1871 C1876 1.490 . S
C1872 H1862 0.930 1_554 S
C1872 C1871 1.400 . S
C1872 C1875 1.386 . S
H1873 C1889 0.930 . S
H1874 C1890 0.931 . S
C1875 H1863 0.929 . S
C1875 C1869 1.390 . S
C1875 C1872 1.386 . S
C1876 C1871 1.490 . S
C1876 C1878 1.395 . S
C1876 C1879 1.403 1_554 S
H1877 C1883 0.930 . S
C1878 H1864 0.930 . S
C1878 C1876 1.395 . S
C1878 C1881 1.403 . S
C1879 C1876 1.403 1_556 S
C1879 C1880 1.524 . S
C1879 C1883 1.400 . S
C1880 H1865 0.960 . S
C1880 H1866 0.960 1_556 S
C1880 H1867 0.960 . S
C1880 C1879 1.524 . S
C1881 C1878 1.403 . S
C1881 C1882 1.392 1_554 S
C1881 C1885 1.495 . S
C1882 C1881 1.392 1_556 S
C1882 C1883 1.385 . S
C1882 C1884 1.478 . S
C1883 H1877 0.930 . S
C1883 C1879 1.400 . S
C1883 C1882 1.385 . S
C1884 C1882 1.478 . S
C1884 C1886 1.381 . S
C1884 C1890 1.383 . S
C1885 C1881 1.495 . S
C1885 H1891 0.959 . S
C1885 H1892 0.997 . S
C1885 H1893 0.960 . S
C1886 C1884 1.381 . S
C1886 C1887 1.394 . S
C1886 H1894 0.930 1_556 S
C1887 C1886 1.394 . S
C1887 C1888 1.383 . S
C1887 H1895 0.929 . S
C1888 C1887 1.383 . S
C1888 C1889 1.377 . S
C1889 H1873 0.930 . S
C1889 C1888 1.377 . S
C1889 C1890 1.379 . S
C1890 H1874 0.931 . S
C1890 C1884 1.383 . S
C1890 C1889 1.379 . S
H1891 C1885 0.959 . S
H1892 C1885 0.997 . S
H1893 C1885 0.960 . S
H1894 C1886 0.930 1_554 S
H1895 C1887 0.929 . S
H1896 C1904 0.929 . S
H1897 C1906 0.930 . S
H1898 C1908 0.930 1_556 S
H1899 C1911 0.929 . S
H1900 C1914 0.930 . S
H1901 C1916 0.960 . S
H1902 C1916 0.960 . S
H1903 C1916 0.960 . S
C1904 H1896 0.929 . S
C1904 C1905 1.377 . S
C1904 C1906 1.384 . S
C1905 C1904 1.377 . S
C1905 C1911 1.390 . S
C1906 H1897 0.930 . S
C1906 C1904 1.384 . S
C1906 C1907 1.372 . S
C1907 C1906 1.372 . S
C1907 C1908 1.400 . S
C1907 C1912 1.490 . S
C1908 H1898 0.930 1_554 S
C1908 C1907 1.400 . S
C1908 C1911 1.386 . S
H1909 C1925 0.930 . S
H1910 C1926 0.931 . S
C1911 H1899 0.929 . S
C1911 C1905 1.390 . S
C1911 C1908 1.386 . S
C1912 C1907 1.490 . S
C1912 C1914 1.395 . S
C1912 C1915 1.403 1_554 S
H1913 C1919 0.930 . S
C1914 H1900 0.930 . S
C1914 C1912 1.395 . S
C1914 C1917 1.403 . S
C1915 C1912 1.403 1_556 S
C1915 C1916 1.524 . S
C1915 C1919 1.400 . S
C1916 H1901 0.960 . S
C1916 H1902 0.960 . S
C1916 H1903 0.960 . S
C1916 C1915 1.524 . S
C1917 C1914 1.403 . S
C1917 C1918 1.392 1_554 S
C1917 C1921 1.495 . S
C1918 C1917 1.392 1_556 S
C1918 C1919 1.385 . S
C1918 C1920 1.478 . S
C1919 H1913 0.930 . S
C1919 C1915 1.400 . S
C1919 C1918 1.385 . S
C1920 C1918 1.478 . S
C1920 C1922 1.381 . S
C1920 C1926 1.383 . S
C1921 C1917 1.495 . S
C1921 H1927 0.959 . S
C1921 H1928 0.961 . S
C1921 H1929 0.960 . S
C1922 C1920 1.381 . S
C1922 C1923 1.394 . S
C1922 H1930 0.930 1_556 S
C1923 C1922 1.394 . S
C1923 C1924 1.383 . S
C1923 H1931 0.929 . S
C1924 C1923 1.383 . S
C1924 C1925 1.377 . S
C1925 H1909 0.930 . S
C1925 C1924 1.377 . S
C1925 C1926 1.379 . S
C1926 H1910 0.931 . S
C1926 C1920 1.383 . S
C1926 C1925 1.379 . S
H1927 C1921 0.959 . S
H1928 C1921 0.961 . S
H1929 C1921 0.960 . S
H1930 C1922 0.930 1_554 S
H1931 C1923 0.929 . S
H1932 C1940 0.929 . S
H1933 C1942 0.930 . S
H1934 C1944 0.930 . S
H1935 C1947 0.929 . S
H1936 C1950 0.930 . S
H1937 C1952 0.960 . S
H1938 C1952 0.960 . S
H1939 C1952 0.960 . S
C1940 H1932 0.929 . S
C1940 C1941 1.377 . S
C1940 C1942 1.384 . S
C1941 C1940 1.377 . S
C1941 C1947 1.390 . S
C1942 H1933 0.930 . S
C1942 C1940 1.384 . S
C1942 C1943 1.372 . S
C1943 C1942 1.372 . S
C1943 C1944 1.400 . S
C1943 C1948 1.490 . S
C1944 H1934 0.930 . S
C1944 C1943 1.400 . S
C1944 C1947 1.386 . S
H1945 C1961 0.930 . S
H1946 C1962 0.931 . S
C1947 H1935 0.929 . S
C1947 C1941 1.390 . S
C1947 C1944 1.386 . S
C1948 C1943 1.490 . S
C1948 C1950 1.395 . S
C1948 C1951 1.403 1_556 S
H1949 C1955 0.930 . S
C1950 H1936 0.930 . S
C1950 C1948 1.395 . S
C1950 C1953 1.403 . S
C1951 C1948 1.403 1_554 S
C1951 C1952 1.524 . S
C1951 C1955 1.400 . S
C1952 H1937 0.960 . S
C1952 H1938 0.960 . S
C1952 H1939 0.960 . S
C1952 C1951 1.524 . S
C1953 C1950 1.403 . S
C1953 C1954 1.392 1_556 S
C1953 C1957 1.495 . S
C1954 C1953 1.392 1_554 S
C1954 C1955 1.385 . S
C1954 C1956 1.478 . S
C1955 H1949 0.930 . S
C1955 C1951 1.400 . S
C1955 C1954 1.385 . S
C1956 C1954 1.478 . S
C1956 C1958 1.381 . S
C1956 C1962 1.383 . S
C1957 C1953 1.495 . S
C1957 H1963 0.959 . S
C1957 H1964 0.961 . S
C1957 H1965 0.960 . S
C1958 C1956 1.381 . S
C1958 C1959 1.394 . S
C1958 H1966 0.930 . S
C1959 C1958 1.394 . S
C1959 C1960 1.383 . S
C1959 H1967 0.929 . S
C1960 C1959 1.383 . S
C1960 C1961 1.377 . S
C1961 H1945 0.930 . S
C1961 C1960 1.377 . S
C1961 C1962 1.379 . S
C1962 H1946 0.931 . S
C1962 C1956 1.383 . S
C1962 C1961 1.379 . S
H1963 C1957 0.959 . S
H1964 C1957 0.961 . S
H1965 C1957 0.960 . S
H1966 C1958 0.930 . S
H1967 C1959 0.929 . S
H1968 C1976 0.929 . S
H1969 C1978 0.930 . S
H1970 C1980 0.930 . S
H1971 C1983 0.929 . S
H1972 C1986 0.930 . S
H1973 C1988 0.960 . S
H1974 C1988 0.960 . S
H1975 C1988 0.960 . S
C1976 H1968 0.929 . S
C1976 C1977 1.377 . S
C1976 C1978 1.384 . S
C1977 C1976 1.377 . S
C1977 C1983 1.390 . S
C1978 H1969 0.930 . S
C1978 C1976 1.384 . S
C1978 C1979 1.372 . S
C1979 C1978 1.372 . S
C1979 C1980 1.400 . S
C1979 C1984 1.490 . S
C1980 H1970 0.930 . S
C1980 C1979 1.400 . S
C1980 C1983 1.386 . S
H1981 C1997 0.930 . S
H1982 C1998 0.931 . S
C1983 H1971 0.929 . S
C1983 C1977 1.390 . S
C1983 C1980 1.386 . S
C1984 C1979 1.490 . S
C1984 C1986 1.395 . S
C1984 C1987 1.403 . S
H1985 C1991 0.930 . S
C1986 H1972 0.930 . S
C1986 C1984 1.395 . S
C1986 C1989 1.403 . S
C1987 C1984 1.403 . S
C1987 C1988 1.524 . S
C1987 C1991 1.400 . S
C1988 H1973 0.960 . S
C1988 H1974 0.960 . S
C1988 H1975 0.960 . S
C1988 C1987 1.524 . S
C1989 C1986 1.403 . S
C1989 C1990 1.392 . S
C1989 C1993 1.495 . S
C1990 C1989 1.392 . S
C1990 C1991 1.385 . S
C1990 C1992 1.478 . S
C1991 H1985 0.930 . S
C1991 C1987 1.400 . S
C1991 C1990 1.385 . S
C1992 C1990 1.478 . S
C1992 C1994 1.381 . S
C1992 C1998 1.383 . S
C1993 C1989 1.495 . S
C1993 H1999 0.959 . S
C1993 H2000 0.961 . S
C1993 H2001 0.960 . S
C1994 C1992 1.381 . S
C1994 C1995 1.394 . S
C1994 H2002 0.930 . S
C1995 C1994 1.394 . S
C1995 C1996 1.383 . S
C1995 H2003 0.929 . S
C1996 C1995 1.383 . S
C1996 C1997 1.377 . S
C1997 H1981 0.930 . S
C1997 C1996 1.377 . S
C1997 C1998 1.379 . S
C1998 H1982 0.931 . S
C1998 C1992 1.383 . S
C1998 C1997 1.379 . S
H1999 C1993 0.959 . S
H2000 C1993 0.961 . S
H2001 C1993 0.960 . S
H2002 C1994 0.930 . S
H2003 C1995 0.929 . S
H2004 C2012 0.929 . S
H2005 C2014 0.930 . S
H2006 C2016 0.930 . S
H2007 C2019 0.929 . S
H2008 C2022 0.930 . S
H2009 C2024 0.960 . S
H2010 C2024 0.960 . S
H2011 C2024 0.960 . S
C2012 H2004 0.929 . S
C2012 C2013 1.377 . S
C2012 C2014 1.384 . S
C2013 C2012 1.377 . S
C2013 C2019 1.390 . S
C2014 H2005 0.930 . S
C2014 C2012 1.384 . S
C2014 C2015 1.372 . S
C2015 C2014 1.372 . S
C2015 C2016 1.400 . S
C2015 C2020 1.490 . S
C2016 H2006 0.930 . S
C2016 C2015 1.400 . S
C2016 C2019 1.386 . S
H2017 C2033 0.930 . S
H2018 C2034 0.931 . S
C2019 H2007 0.929 . S
C2019 C2013 1.390 . S
C2019 C2016 1.386 . S
C2020 C2015 1.490 . S
C2020 C2022 1.395 . S
C2020 C2023 1.403 . S
H2021 C2027 0.930 . S
C2022 H2008 0.930 . S
C2022 C2020 1.395 . S
C2022 C2025 1.403 . S
C2023 C2020 1.403 . S
C2023 C2024 1.524 . S
C2023 C2027 1.400 . S
C2024 H2009 0.960 . S
C2024 H2010 0.960 . S
C2024 H2011 0.960 . S
C2024 C2023 1.524 . S
C2025 C2022 1.403 . S
C2025 C2026 1.392 . S
C2025 C2029 1.495 . S
C2026 C2025 1.392 . S
C2026 C2027 1.385 . S
C2026 C2028 1.478 . S
C2027 H2021 0.930 . S
C2027 C2023 1.400 . S
C2027 C2026 1.385 . S
C2028 C2026 1.478 . S
C2028 C2030 1.381 . S
C2028 C2034 1.383 . S
C2029 C2025 1.495 . S
C2029 H2035 0.959 . S
C2029 H2036 0.961 . S
C2029 H2037 0.960 . S
C2030 C2028 1.381 . S
C2030 C2031 1.394 . S
C2030 H2038 0.930 . S
C2031 C2030 1.394 . S
C2031 C2032 1.383 . S
C2031 H2039 0.929 . S
C2032 C2031 1.383 . S
C2032 C2033 1.377 . S
C2033 H2017 0.930 . S
C2033 C2032 1.377 . S
C2033 C2034 1.379 . S
C2034 H2018 0.931 . S
C2034 C2028 1.383 . S
C2034 C2033 1.379 . S
H2035 C2029 0.959 . S
H2036 C2029 0.961 . S
H2037 C2029 0.960 . S
H2038 C2030 0.930 . S
H2039 C2031 0.929 . S
H2040 C2048 0.929 . S
H2041 C2050 0.930 . S
H2042 C2052 0.930 . S
H2043 C2055 0.929 . S
H2044 C2058 0.930 . S
H2045 C2060 0.960 . S
H2046 C2060 0.960 . S
H2047 C2060 0.960 . S
C2048 H2040 0.929 . S
C2048 C2049 1.377 . S
C2048 C2050 1.384 . S
C2049 C2048 1.377 . S
C2049 C2055 1.390 . S
C2050 H2041 0.930 . S
C2050 C2048 1.384 . S
C2050 C2051 1.372 . S
C2051 C2050 1.372 . S
C2051 C2052 1.400 . S
C2051 C2056 1.490 . S
C2052 H2042 0.930 . S
C2052 C2051 1.400 . S
C2052 C2055 1.386 . S
H2053 C2069 0.930 . S
H2054 C2070 0.931 . S
C2055 H2043 0.929 . S
C2055 C2049 1.390 . S
C2055 C2052 1.386 . S
C2056 C2051 1.490 . S
C2056 C2058 1.395 . S
C2056 C2059 1.403 . S
H2057 C2063 0.930 . S
C2058 H2044 0.930 . S
C2058 C2056 1.395 . S
C2058 C2061 1.403 . S
C2059 C2056 1.403 . S
C2059 C2060 1.524 . S
C2059 C2063 1.400 . S
C2060 H2045 0.960 . S
C2060 H2046 0.960 . S
C2060 H2047 0.960 . S
C2060 C2059 1.524 . S
C2061 C2058 1.403 . S
C2061 C2062 1.392 . S
C2061 C2065 1.495 . S
C2062 C2061 1.392 . S
C2062 C2063 1.385 . S
C2062 C2064 1.478 . S
C2063 H2057 0.930 . S
C2063 C2059 1.400 . S
C2063 C2062 1.385 . S
C2064 C2062 1.478 . S
C2064 C2066 1.381 . S
C2064 C2070 1.383 . S
C2065 C2061 1.495 . S
C2065 H2071 0.959 . S
C2065 H2072 0.961 . S
C2065 H2073 0.960 . S
C2066 C2064 1.381 . S
C2066 C2067 1.394 . S
C2066 H2074 0.930 . S
C2067 C2066 1.394 . S
C2067 C2068 1.383 . S
C2067 H2075 0.929 . S
C2068 C2067 1.383 . S
C2068 C2069 1.377 . S
C2069 H2053 0.930 . S
C2069 C2068 1.377 . S
C2069 C2070 1.379 . S
C2070 H2054 0.931 . S
C2070 C2064 1.383 . S
C2070 C2069 1.379 . S
H2071 C2065 0.959 . S
H2072 C2065 0.961 . S
H2073 C2065 0.960 . S
H2074 C2066 0.930 . S
H2075 C2067 0.929 . S
H2076 C2084 0.929 . S
H2077 C2086 0.930 . S
H2078 C2088 0.930 . S
H2079 C2091 0.929 . S
H2080 C2094 0.930 . S
H2081 C2096 0.960 . S
H2082 C2096 0.960 . S
H2083 C2096 0.960 . S
C2084 H2076 0.929 . S
C2084 C2085 1.377 . S
C2084 C2086 1.384 . S
C2085 C2084 1.377 . S
C2085 C2091 1.390 . S
C2086 H2077 0.930 . S
C2086 C2084 1.384 . S
C2086 C2087 1.372 . S
C2087 C2086 1.372 . S
C2087 C2088 1.400 . S
C2087 C2092 1.490 . S
C2088 H2078 0.930 . S
C2088 C2087 1.400 . S
C2088 C2091 1.386 . S
H2089 C2105 0.930 . S
H2090 C2106 0.931 . S
C2091 H2079 0.929 . S
C2091 C2085 1.390 . S
C2091 C2088 1.386 . S
C2092 C2087 1.490 . S
C2092 C2094 1.395 . S
C2092 C2095 1.403 . S
H2093 C2099 0.930 . S
C2094 H2080 0.930 . S
C2094 C2092 1.395 . S
C2094 C2097 1.403 . S
C2095 C2092 1.403 . S
C2095 C2096 1.524 . S
C2095 C2099 1.400 . S
C2096 H2081 0.960 . S
C2096 H2082 0.960 . S
C2096 H2083 0.960 . S
C2096 C2095 1.524 . S
C2097 C2094 1.403 . S
C2097 C2098 1.392 . S
C2097 C2101 1.495 . S
C2098 C2097 1.392 . S
C2098 C2099 1.385 . S
C2098 C2100 1.478 . S
C2099 H2093 0.930 . S
C2099 C2095 1.400 . S
C2099 C2098 1.385 . S
C2100 C2098 1.478 . S
C2100 C2102 1.381 . S
C2100 C2106 1.383 . S
C2101 C2097 1.495 . S
C2101 H2107 0.959 . S
C2101 H2108 0.961 . S
C2101 H2109 0.960 . S
C2102 C2100 1.381 . S
C2102 C2103 1.394 . S
C2102 H2110 0.930 . S
C2103 C2102 1.394 . S
C2103 C2104 1.383 . S
C2103 H2111 0.929 . S
C2104 C2103 1.383 . S
C2104 C2105 1.377 . S
C2105 H2089 0.930 . S
C2105 C2104 1.377 . S
C2105 C2106 1.379 . S
C2106 H2090 0.931 . S
C2106 C2100 1.383 . S
C2106 C2105 1.379 . S
H2107 C2101 0.959 . S
H2108 C2101 0.961 . S
H2109 C2101 0.960 . S
H2110 C2102 0.930 . S
H2111 C2103 0.929 . S
H2112 C2120 0.929 . S
H2113 C2122 0.930 . S
H2114 C2124 0.930 . S
H2115 C2127 0.929 . S
H2116 C2130 0.930 . S
H2117 C2132 0.960 . S
H2118 C2132 0.960 . S
H2119 C2132 0.960 . S
C2120 H2112 0.929 . S
C2120 C2121 1.377 . S
C2120 C2122 1.384 . S
C2121 C2120 1.377 . S
C2121 C2127 1.390 . S
C2122 H2113 0.930 . S
C2122 C2120 1.384 . S
C2122 C2123 1.372 . S
C2123 C2122 1.372 . S
C2123 C2124 1.400 . S
C2123 C2128 1.490 . S
C2124 H2114 0.930 . S
C2124 C2123 1.400 . S
C2124 C2127 1.386 . S
H2125 C2141 0.930 . S
H2126 C2142 0.931 . S
C2127 H2115 0.929 . S
C2127 C2121 1.390 . S
C2127 C2124 1.386 . S
C2128 C2123 1.490 . S
C2128 C2130 1.395 . S
C2128 C2131 1.403 . S
H2129 C2135 0.930 . S
C2130 H2116 0.930 . S
C2130 C2128 1.395 . S
C2130 C2133 1.403 . S
C2131 C2128 1.403 . S
C2131 C2132 1.524 . S
C2131 C2135 1.400 . S
C2132 H2117 0.960 . S
C2132 H2118 0.960 . S
C2132 H2119 0.960 . S
C2132 C2131 1.524 . S
C2133 C2130 1.403 . S
C2133 C2134 1.392 . S
C2133 C2137 1.495 . S
C2134 C2133 1.392 . S
C2134 C2135 1.385 . S
C2134 C2136 1.478 . S
C2135 H2129 0.930 . S
C2135 C2131 1.400 . S
C2135 C2134 1.385 . S
C2136 C2134 1.478 . S
C2136 C2138 1.381 . S
C2136 C2142 1.383 . S
C2137 C2133 1.495 . S
C2137 H2143 0.959 . S
C2137 H2144 0.961 . S
C2137 H2145 0.960 . S
C2138 C2136 1.381 . S
C2138 C2139 1.394 . S
C2138 H2146 0.930 . S
C2139 C2138 1.394 . S
C2139 C2140 1.383 . S
C2139 H2147 0.929 . S
C2140 C2139 1.383 . S
C2140 C2141 1.377 . S
C2141 H2125 0.930 . S
C2141 C2140 1.377 . S
C2141 C2142 1.379 . S
C2142 H2126 0.931 . S
C2142 C2136 1.383 . S
C2142 C2141 1.379 . S
H2143 C2137 0.959 . S
H2144 C2137 0.961 . S
H2145 C2137 0.960 . S
H2146 C2138 0.930 . S
H2147 C2139 0.929 . S
H2148 C2156 0.929 . S
H2149 C2158 0.930 . S
H2150 C2160 0.930 . S
H2151 C2163 0.929 . S
H2152 C2166 0.930 . S
H2153 C2168 0.960 . S
H2154 C2168 0.960 . S
H2155 C2168 0.960 . S
C2156 H2148 0.929 . S
C2156 C2157 1.377 . S
C2156 C2158 1.384 . S
C2157 C2156 1.377 . S
C2157 C2163 1.390 . S
C2158 H2149 0.930 . S
C2158 C2156 1.384 . S
C2158 C2159 1.372 . S
C2159 C2158 1.372 . S
C2159 C2160 1.400 . S
C2159 C2164 1.490 . S
C2160 H2150 0.930 . S
C2160 C2159 1.400 . S
C2160 C2163 1.386 . S
H2161 C2177 0.930 . S
H2162 C2178 0.931 . S
C2163 H2151 0.929 . S
C2163 C2157 1.390 . S
C2163 C2160 1.386 . S
C2164 C2159 1.490 . S
C2164 C2166 1.395 . S
C2164 C2167 1.403 . S
H2165 C2171 0.930 . S
C2166 H2152 0.930 . S
C2166 C2164 1.395 . S
C2166 C2169 1.403 . S
C2167 C2164 1.403 . S
C2167 C2168 1.524 . S
C2167 C2171 1.400 . S
C2168 H2153 0.960 . S
C2168 H2154 0.960 . S
C2168 H2155 0.960 . S
C2168 C2167 1.524 . S
C2169 C2166 1.403 . S
C2169 C2170 1.392 . S
C2169 C2173 1.495 . S
C2170 C2169 1.392 . S
C2170 C2171 1.385 . S
C2170 C2172 1.478 . S
C2171 H2165 0.930 . S
C2171 C2167 1.400 . S
C2171 C2170 1.385 . S
C2172 C2170 1.478 . S
C2172 C2174 1.381 . S
C2172 C2178 1.383 . S
C2173 C2169 1.495 . S
C2173 H2179 0.959 . S
C2173 H2180 0.961 . S
C2173 H2181 0.960 . S
C2174 C2172 1.381 . S
C2174 C2175 1.394 . S
C2174 H2182 0.930 . S
C2175 C2174 1.394 . S
C2175 C2176 1.383 . S
C2175 H2183 0.929 . S
C2176 C2175 1.383 . S
C2176 C2177 1.377 . S
C2177 H2161 0.930 . S
C2177 C2176 1.377 . S
C2177 C2178 1.379 . S
C2178 H2162 0.931 . S
C2178 C2172 1.383 . S
C2178 C2177 1.379 . S
H2179 C2173 0.959 . S
H2180 C2173 0.961 . S
H2181 C2173 0.960 . S
H2182 C2174 0.930 . S
H2183 C2175 0.929 . S
H2184 C2192 0.929 . S
H2185 C2194 0.930 . S
H2186 C2196 0.930 . S
H2187 C2199 0.929 . S
H2188 C2202 0.930 . S
H2189 C2204 0.960 . S
H2190 C2204 0.960 . S
H2191 C2204 0.960 . S
C2192 H2184 0.929 . S
C2192 C2193 1.377 . S
C2192 C2194 1.384 . S
C2193 C2192 1.377 . S
C2193 C2199 1.390 . S
C2194 H2185 0.930 . S
C2194 C2192 1.384 . S
C2194 C2195 1.372 . S
C2195 C2194 1.372 . S
C2195 C2196 1.400 . S
C2195 C2200 1.490 . S
C2196 H2186 0.930 . S
C2196 C2195 1.400 . S
C2196 C2199 1.386 . S
H2197 C2213 0.930 . S
H2198 C2214 0.931 . S
C2199 H2187 0.929 . S
C2199 C2193 1.390 . S
C2199 C2196 1.386 . S
C2200 C2195 1.490 . S
C2200 C2202 1.395 . S
C2200 C2203 1.403 . S
H2201 C2207 0.930 . S
C2202 H2188 0.930 . S
C2202 C2200 1.395 . S
C2202 C2205 1.403 . S
C2203 C2200 1.403 . S
C2203 C2204 1.524 . S
C2203 C2207 1.400 . S
C2204 H2189 0.960 . S
C2204 H2190 0.960 . S
C2204 H2191 0.960 . S
C2204 C2203 1.524 . S
C2205 C2202 1.403 . S
C2205 C2206 1.392 . S
C2205 C2209 1.495 . S
C2206 C2205 1.392 . S
C2206 C2207 1.385 . S
C2206 C2208 1.478 . S
C2207 H2201 0.930 . S
C2207 C2203 1.400 . S
C2207 C2206 1.385 . S
C2208 C2206 1.478 . S
C2208 C2210 1.381 . S
C2208 C2214 1.383 . S
C2209 C2205 1.495 . S
C2209 H2215 0.959 . S
C2209 H2216 0.961 . S
C2209 H2217 0.960 . S
C2210 C2208 1.381 . S
C2210 C2211 1.394 . S
C2210 H2218 0.930 . S
C2211 C2210 1.394 . S
C2211 C2212 1.383 . S
C2211 H2219 0.929 . S
C2212 C2211 1.383 . S
C2212 C2213 1.377 . S
C2213 H2197 0.930 . S
C2213 C2212 1.377 . S
C2213 C2214 1.379 . S
C2214 H2198 0.931 . S
C2214 C2208 1.383 . S
C2214 C2213 1.379 . S
H2215 C2209 0.959 . S
H2216 C2209 0.961 . S
H2217 C2209 0.960 . S
H2218 C2210 0.930 . S
H2219 C2211 0.929 . S
H2220 C2228 0.929 . S
H2221 C2230 0.930 . S
H2222 C2232 0.930 . S
H2223 C2235 0.929 . S
H2224 C2238 0.930 . S
H2225 C2240 0.960 . S
H2226 C2240 0.960 . S
H2227 C2240 0.960 . S
C2228 H2220 0.929 . S
C2228 C2229 1.377 . S
C2228 C2230 1.384 . S
C2229 C2228 1.377 . S
C2229 C2235 1.390 . S
C2230 H2221 0.930 . S
C2230 C2228 1.384 . S
C2230 C2231 1.372 . S
C2231 C2230 1.372 . S
C2231 C2232 1.400 . S
C2231 C2236 1.490 . S
C2232 H2222 0.930 . S
C2232 C2231 1.400 . S
C2232 C2235 1.386 . S
H2233 C2249 0.930 . S
H2234 C2250 0.931 . S
C2235 H2223 0.929 . S
C2235 C2229 1.390 . S
C2235 C2232 1.386 . S
C2236 C2231 1.490 . S
C2236 C2238 1.395 . S
C2236 C2239 1.403 . S
H2237 C2243 0.930 . S
C2238 H2224 0.930 . S
C2238 C2236 1.395 . S
C2238 C2241 1.403 . S
C2239 C2236 1.403 . S
C2239 C2240 1.524 . S
C2239 C2243 1.400 . S
C2240 H2225 0.960 . S
C2240 H2226 0.960 . S
C2240 H2227 0.960 . S
C2240 C2239 1.524 . S
C2241 C2238 1.403 . S
C2241 C2242 1.392 . S
C2241 C2245 1.495 . S
C2242 C2241 1.392 . S
C2242 C2243 1.385 . S
C2242 C2244 1.478 . S
C2243 H2237 0.930 . S
C2243 C2239 1.400 . S
C2243 C2242 1.385 . S
C2244 C2242 1.478 . S
C2244 C2246 1.381 . S
C2244 C2250 1.383 . S
C2245 C2241 1.495 . S
C2245 H2251 0.959 . S
C2245 H2252 0.961 . S
C2245 H2253 0.960 . S
C2246 C2244 1.381 . S
C2246 C2247 1.394 . S
C2246 H2254 0.930 . S
C2247 C2246 1.394 . S
C2247 C2248 1.383 . S
C2247 H2255 0.929 . S
C2248 C2247 1.383 . S
C2248 C2249 1.377 . S
C2249 H2233 0.930 . S
C2249 C2248 1.377 . S
C2249 C2250 1.379 . S
C2250 H2234 0.931 . S
C2250 C2244 1.383 . S
C2250 C2249 1.379 . S
H2251 C2245 0.959 . S
H2252 C2245 0.961 . S
H2253 C2245 0.960 . S
H2254 C2246 0.930 . S
H2255 C2247 0.929 . S
H2256 C2264 0.929 . S
H2257 C2266 0.930 . S
H2258 C2268 0.930 . S
H2259 C2271 0.929 . S
H2260 C2274 0.930 . S
H2261 C2276 0.960 . S
H2262 C2276 0.960 . S
H2263 C2276 0.960 . S
C2264 H2256 0.929 . S
C2264 C2265 1.377 . S
C2264 C2266 1.384 . S
C2265 C2264 1.377 . S
C2265 C2271 1.390 . S
C2266 H2257 0.930 . S
C2266 C2264 1.384 . S
C2266 C2267 1.372 . S
C2267 C2266 1.372 . S
C2267 C2268 1.400 . S
C2267 C2272 1.490 . S
C2268 H2258 0.930 . S
C2268 C2267 1.400 . S
C2268 C2271 1.386 . S
H2269 C2285 0.930 . S
H2270 C2286 0.931 . S
C2271 H2259 0.929 . S
C2271 C2265 1.390 . S
C2271 C2268 1.386 . S
C2272 C2267 1.490 . S
C2272 C2274 1.395 . S
C2272 C2275 1.403 . S
H2273 C2279 0.930 . S
C2274 H2260 0.930 . S
C2274 C2272 1.395 . S
C2274 C2277 1.403 . S
C2275 C2272 1.403 . S
C2275 C2276 1.524 . S
C2275 C2279 1.400 . S
C2276 H2261 0.960 . S
C2276 H2262 0.960 . S
C2276 H2263 0.960 . S
C2276 C2275 1.524 . S
C2277 C2274 1.403 . S
C2277 C2278 1.392 . S
C2277 C2281 1.495 . S
C2278 C2277 1.392 . S
C2278 C2279 1.385 . S
C2278 C2280 1.478 . S
C2279 H2273 0.930 . S
C2279 C2275 1.400 . S
C2279 C2278 1.385 . S
C2280 C2278 1.478 . S
C2280 C2282 1.381 . S
C2280 C2286 1.383 . S
C2281 C2277 1.495 . S
C2281 H2287 0.959 . S
C2281 H2288 0.961 . S
C2281 H2289 0.960 . S
C2282 C2280 1.381 . S
C2282 C2283 1.394 . S
C2282 H2290 0.930 . S
C2283 C2282 1.394 . S
C2283 C2284 1.383 . S
C2283 H2291 0.929 . S
C2284 C2283 1.383 . S
C2284 C2285 1.377 . S
C2285 H2269 0.930 . S
C2285 C2284 1.377 . S
C2285 C2286 1.379 . S
C2286 H2270 0.931 . S
C2286 C2280 1.383 . S
C2286 C2285 1.379 . S
H2287 C2281 0.959 . S
H2288 C2281 0.961 . S
H2289 C2281 0.960 . S
H2290 C2282 0.930 . S
H2291 C2283 0.929 . S
H2292 C2300 0.929 . S
H2293 C2302 0.930 . S
H2294 C2304 0.930 . S
H2295 C2307 0.929 . S
H2296 C2310 0.930 . S
H2297 C2312 0.960 . S
H2298 C2312 0.960 . S
H2299 C2312 0.960 . S
C2300 H2292 0.929 . S
C2300 C2301 1.377 . S
C2300 C2302 1.384 . S
C2301 C2300 1.377 . S
C2301 C2307 1.390 . S
C2302 H2293 0.930 . S
C2302 C2300 1.384 . S
C2302 C2303 1.372 . S
C2303 C2302 1.372 . S
C2303 C2304 1.400 . S
C2303 C2308 1.490 . S
C2304 H2294 0.930 . S
C2304 C2303 1.400 . S
C2304 C2307 1.386 . S
H2305 C2321 0.930 . S
H2306 C2322 0.931 . S
C2307 H2295 0.929 . S
C2307 C2301 1.390 . S
C2307 C2304 1.386 . S
C2308 C2303 1.490 . S
C2308 C2310 1.395 . S
C2308 C2311 1.403 . S
H2309 C2315 0.930 . S
C2310 H2296 0.930 . S
C2310 C2308 1.395 . S
C2310 C2313 1.403 . S
C2311 C2308 1.403 . S
C2311 C2312 1.524 . S
C2311 C2315 1.400 . S
C2312 H2297 0.960 . S
C2312 H2298 0.960 . S
C2312 H2299 0.960 . S
C2312 C2311 1.524 . S
C2313 C2310 1.403 . S
C2313 C2314 1.392 . S
C2313 C2317 1.495 . S
C2314 C2313 1.392 . S
C2314 C2315 1.385 . S
C2314 C2316 1.478 . S
C2315 H2309 0.930 . S
C2315 C2311 1.400 . S
C2315 C2314 1.385 . S
C2316 C2314 1.478 . S
C2316 C2318 1.381 . S
C2316 C2322 1.383 . S
C2317 C2313 1.495 . S
C2317 H2323 0.959 . S
C2317 H2324 0.961 . S
C2317 H2325 0.960 . S
C2318 C2316 1.381 . S
C2318 C2319 1.394 . S
C2318 H2326 0.930 . S
C2319 C2318 1.394 . S
C2319 C2320 1.383 . S
C2319 H2327 0.929 . S
C2320 C2319 1.383 . S
C2320 C2321 1.377 . S
C2321 H2305 0.930 . S
C2321 C2320 1.377 . S
C2321 C2322 1.379 . S
C2322 H2306 0.931 . S
C2322 C2316 1.383 . S
C2322 C2321 1.379 . S
H2323 C2317 0.959 . S
H2324 C2317 0.961 . S
H2325 C2317 0.960 . S
H2326 C2318 0.930 . S
H2327 C2319 0.929 . S
H2328 C2336 0.929 . S
H2329 C2338 0.930 . S
H2330 C2340 0.930 . S
H2331 C2343 0.929 . S
H2332 C2346 0.930 . S
H2333 C2348 0.960 . S
H2334 C2348 0.960 . S
H2335 C2348 0.960 . S
C2336 H2328 0.929 . S
C2336 C2337 1.377 . S
C2336 C2338 1.384 . S
C2337 C2336 1.377 . S
C2337 C2343 1.390 . S
C2338 H2329 0.930 . S
C2338 C2336 1.384 . S
C2338 C2339 1.372 . S
C2339 C2338 1.372 . S
C2339 C2340 1.400 . S
C2339 C2344 1.490 . S
C2340 H2330 0.930 . S
C2340 C2339 1.400 . S
C2340 C2343 1.386 . S
H2341 C2357 0.930 . S
H2342 C2358 0.931 . S
C2343 H2331 0.929 . S
C2343 C2337 1.390 . S
C2343 C2340 1.386 . S
C2344 C2339 1.490 . S
C2344 C2346 1.395 . S
C2344 C2347 1.403 . S
H2345 C2351 0.930 . S
C2346 H2332 0.930 . S
C2346 C2344 1.395 . S
C2346 C2349 1.403 . S
C2347 C2344 1.403 . S
C2347 C2348 1.524 . S
C2347 C2351 1.400 . S
C2348 H2333 0.960 . S
C2348 H2334 0.960 . S
C2348 H2335 0.960 . S
C2348 C2347 1.524 . S
C2349 C2346 1.403 . S
C2349 C2350 1.392 . S
C2349 C2353 1.495 . S
C2350 C2349 1.392 . S
C2350 C2351 1.385 . S
C2350 C2352 1.478 . S
C2351 H2345 0.930 . S
C2351 C2347 1.400 . S
C2351 C2350 1.385 . S
C2352 C2350 1.478 . S
C2352 C2354 1.381 . S
C2352 C2358 1.383 . S
C2353 C2349 1.495 . S
C2353 H2359 0.959 . S
C2353 H2360 0.961 . S
C2353 H2361 0.960 . S
C2354 C2352 1.381 . S
C2354 C2355 1.394 . S
C2354 H2362 0.930 . S
C2355 C2354 1.394 . S
C2355 C2356 1.383 . S
C2355 H2363 0.929 . S
C2356 C2355 1.383 . S
C2356 C2357 1.377 . S
C2357 H2341 0.930 . S
C2357 C2356 1.377 . S
C2357 C2358 1.379 . S
C2358 H2342 0.931 . S
C2358 C2352 1.383 . S
C2358 C2357 1.379 . S
H2359 C2353 0.959 . S
H2360 C2353 0.961 . S
H2361 C2353 0.960 . S
H2362 C2354 0.930 . S
H2363 C2355 0.929 . S
H2364 C2372 0.929 . S
H2365 C2374 0.930 . S
H2366 C2376 0.930 . S
H2367 C2379 0.929 . S
H2368 C2382 0.930 . S
H2369 C2384 0.960 . S
H2370 C2384 0.960 . S
H2371 C2384 0.960 . S
C2372 H2364 0.929 . S
C2372 C2373 1.377 . S
C2372 C2374 1.384 . S
C2373 C2372 1.377 . S
C2373 C2379 1.390 . S
C2374 H2365 0.930 . S
C2374 C2372 1.384 . S
C2374 C2375 1.372 . S
C2375 C2374 1.372 . S
C2375 C2376 1.400 . S
C2375 C2380 1.490 . S
C2376 H2366 0.930 . S
C2376 C2375 1.400 . S
C2376 C2379 1.386 . S
H2377 C2393 0.930 . S
H2378 C2394 0.931 . S
C2379 H2367 0.929 . S
C2379 C2373 1.390 . S
C2379 C2376 1.386 . S
C2380 C2375 1.490 . S
C2380 C2382 1.395 . S
C2380 C2383 1.403 . S
H2381 C2387 0.930 . S
C2382 H2368 0.930 . S
C2382 C2380 1.395 . S
C2382 C2385 1.403 . S
C2383 C2380 1.403 . S
C2383 C2384 1.524 . S
C2383 C2387 1.400 . S
C2384 H2369 0.960 . S
C2384 H2370 0.960 . S
C2384 H2371 0.960 . S
C2384 C2383 1.524 . S
C2385 C2382 1.403 . S
C2385 C2386 1.392 . S
C2385 C2389 1.495 . S
C2386 C2385 1.392 . S
C2386 C2387 1.385 . S
C2386 C2388 1.478 . S
C2387 H2381 0.930 . S
C2387 C2383 1.400 . S
C2387 C2386 1.385 . S
C2388 C2386 1.478 . S
C2388 C2390 1.381 . S
C2388 C2394 1.383 . S
C2389 C2385 1.495 . S
C2389 H2395 0.959 . S
C2389 H2396 0.961 . S
C2389 H2397 0.960 . S
C2390 C2388 1.381 . S
C2390 C2391 1.394 . S
C2390 H2398 0.930 . S
C2391 C2390 1.394 . S
C2391 C2392 1.383 . S
C2391 H2399 0.929 . S
C2392 C2391 1.383 . S
C2392 C2393 1.377 . S
C2393 H2377 0.930 . S
C2393 C2392 1.377 . S
C2393 C2394 1.379 . S
C2394 H2378 0.931 . S
C2394 C2388 1.383 . S
C2394 C2393 1.379 . S
H2395 C2389 0.959 . S
H2396 C2389 0.961 . S
H2397 C2389 0.960 . S
H2398 C2390 0.930 . S
H2399 C2391 0.929 . S
H2400 C2408 0.929 . S
H2401 C2410 0.930 . S
H2402 C2412 0.930 . S
H2403 C2415 0.929 . S
H2404 C2418 0.930 . S
H2405 C2420 0.960 . S
H2406 C2420 0.960 . S
H2407 C2420 0.960 . S
C2408 H2400 0.929 . S
C2408 C2409 1.377 . S
C2408 C2410 1.384 . S
C2409 C2408 1.377 . S
C2409 C2415 1.390 . S
C2410 H2401 0.930 . S
C2410 C2408 1.384 . S
C2410 C2411 1.372 . S
C2411 C2410 1.372 . S
C2411 C2412 1.400 . S
C2411 C2416 1.490 . S
C2412 H2402 0.930 . S
C2412 C2411 1.400 . S
C2412 C2415 1.386 . S
H2413 C2429 0.930 . S
H2414 C2430 0.931 . S
C2415 H2403 0.929 . S
C2415 C2409 1.390 . S
C2415 C2412 1.386 . S
C2416 C2411 1.490 . S
C2416 C2418 1.395 . S
C2416 C2419 1.403 . S
H2417 C2423 0.930 . S
C2418 H2404 0.930 . S
C2418 C2416 1.395 . S
C2418 C2421 1.403 . S
C2419 C2416 1.403 . S
C2419 C2420 1.524 . S
C2419 C2423 1.400 . S
C2420 H2405 0.960 . S
C2420 H2406 0.960 . S
C2420 H2407 0.960 . S
C2420 C2419 1.524 . S
C2421 C2418 1.403 . S
C2421 C2422 1.392 . S
C2421 C2425 1.495 . S
C2422 C2421 1.392 . S
C2422 C2423 1.385 . S
C2422 C2424 1.478 . S
C2423 H2417 0.930 . S
C2423 C2419 1.400 . S
C2423 C2422 1.385 . S
C2424 C2422 1.478 . S
C2424 C2426 1.381 . S
C2424 C2430 1.383 . S
C2425 C2421 1.495 . S
C2425 H2431 0.959 . S
C2425 H2432 0.961 . S
C2425 H2433 0.960 . S
C2426 C2424 1.381 . S
C2426 C2427 1.394 1_554 S
C2426 H2434 0.930 . S
C2427 C2426 1.394 1_556 S
C2427 C2428 1.383 . S
C2427 H2435 0.929 . S
C2428 C2427 1.383 . S
C2428 C2429 1.377 1_556 S
C2429 H2413 0.930 . S
C2429 C2428 1.377 1_554 S
C2429 C2430 1.379 . S
C2430 H2414 0.931 . S
C2430 C2424 1.383 . S
C2430 C2429 1.379 . S
H2431 C2425 0.959 . S
H2432 C2425 0.961 . S
H2433 C2425 0.960 . S
H2434 C2426 0.930 . S
H2435 C2427 0.929 . S
H2436 C2444 0.929 . S
H2437 C2446 0.930 . S
H2438 C2448 0.930 . S
H2439 C2451 0.929 . S
H2440 C2454 0.930 . S
H2441 C2456 0.960 . S
H2442 C2456 0.960 . S
H2443 C2456 0.960 . S
C2444 H2436 0.929 . S
C2444 C2445 1.377 . S
C2444 C2446 1.384 . S
C2445 C2444 1.377 . S
C2445 C2451 1.390 . S
C2446 H2437 0.930 . S
C2446 C2444 1.384 . S
C2446 C2447 1.372 . S
C2447 C2446 1.372 . S
C2447 C2448 1.400 . S
C2447 C2452 1.490 . S
C2448 H2438 0.930 . S
C2448 C2447 1.400 . S
C2448 C2451 1.386 . S
H2449 C2465 0.950 . S
H2450 C2466 0.931 . S
C2451 H2439 0.929 . S
C2451 C2445 1.390 . S
C2451 C2448 1.386 . S
C2452 C2447 1.490 . S
C2452 C2454 1.395 . S
C2452 C2455 1.403 . S
H2453 C2459 0.930 . S
C2454 H2440 0.930 . S
C2454 C2452 1.395 . S
C2454 C2457 1.403 . S
C2455 C2452 1.403 . S
C2455 C2456 1.524 . S
C2455 C2459 1.400 . S
C2456 H2441 0.960 . S
C2456 H2442 0.960 . S
C2456 H2443 0.960 . S
C2456 C2455 1.524 . S
C2457 C2454 1.403 . S
C2457 C2458 1.392 . S
C2457 C2461 1.495 . S
C2458 C2457 1.392 . S
C2458 C2459 1.385 . S
C2458 C2460 1.478 . S
C2459 H2453 0.930 . S
C2459 C2455 1.400 . S
C2459 C2458 1.385 . S
C2460 C2458 1.478 . S
C2460 C2462 1.381 . S
C2460 C2466 1.383 . S
C2461 C2457 1.495 . S
C2461 H2467 0.959 . S
C2461 H2468 0.961 . S
C2461 H2469 0.960 . S
C2462 C2460 1.381 . S
C2462 C2463 1.392 1_554 S
C2462 H2470 0.930 . S
C2463 C2462 1.392 1_556 S
C2463 C2464 1.385 . S
C2463 H2471 0.930 . S
C2464 C2463 1.385 . S
C2464 C2465 1.396 . S
C2465 H2449 0.950 . S
C2465 C2464 1.396 . S
C2465 C2466 1.342 1_556 S
C2466 H2450 0.931 . S
C2466 C2460 1.383 . S
C2466 C2465 1.342 1_554 S
H2467 C2461 0.959 . S
H2468 C2461 0.961 . S
H2469 C2461 0.960 . S
H2470 C2462 0.930 . S
H2471 C2463 0.930 . S
H2472 C2480 0.929 . S
H2473 C2482 0.930 . S
H2474 C2484 0.930 . S
H2475 C2487 0.929 . S
H2476 C2490 0.930 . S
H2477 C2492 0.960 . S
H2478 C2492 0.960 . S
H2479 C2492 0.960 . S
C2480 H2472 0.929 . S
C2480 C2481 1.377 . S
C2480 C2482 1.384 . S
C2481 C2480 1.377 . S
C2481 C2487 1.390 . S
C2482 H2473 0.930 . S
C2482 C2480 1.384 . S
C2482 C2483 1.372 . S
C2483 C2482 1.372 . S
C2483 C2484 1.400 . S
C2483 C2488 1.490 . S
C2484 H2474 0.930 . S
C2484 C2483 1.400 . S
C2484 C2487 1.386 . S
H2485 C2501 0.930 . S
H2486 C2502 0.931 . S
C2487 H2475 0.929 . S
C2487 C2481 1.390 . S
C2487 C2484 1.386 . S
C2488 C2483 1.490 . S
C2488 C2490 1.395 . S
C2488 C2491 1.403 . S
H2489 C2495 0.930 . S
C2490 H2476 0.930 . S
C2490 C2488 1.395 . S
C2490 C2493 1.403 . S
C2491 C2488 1.403 . S
C2491 C2492 1.524 . S
C2491 C2495 1.400 . S
C2492 H2477 0.960 . S
C2492 H2478 0.960 . S
C2492 H2479 0.960 . S
C2492 C2491 1.524 . S
C2493 C2490 1.403 . S
C2493 C2494 1.392 . S
C2493 C2497 1.495 . S
C2494 C2493 1.392 . S
C2494 C2495 1.385 . S
C2494 C2496 1.478 . S
C2495 H2489 0.930 . S
C2495 C2491 1.400 . S
C2495 C2494 1.385 . S
C2496 C2494 1.478 . S
C2496 C2498 1.381 . S
C2496 C2502 1.383 . S
C2497 C2493 1.495 . S
C2497 H2503 0.959 . S
C2497 H2504 0.961 . S
C2497 H2505 0.960 . S
C2498 C2496 1.381 . S
C2498 C2499 1.394 1_554 S
C2498 H2506 0.930 . S
C2499 C2498 1.394 1_556 S
C2499 C2500 1.383 . S
C2499 H2507 0.929 . S
C2500 C2499 1.383 . S
C2500 C2501 1.377 1_556 S
C2501 H2485 0.930 . S
C2501 C2500 1.377 1_554 S
C2501 C2502 1.379 . S
C2502 H2486 0.931 . S
C2502 C2496 1.383 . S
C2502 C2501 1.379 . S
H2503 C2497 0.959 . S
H2504 C2497 0.961 . S
H2505 C2497 0.960 . S
H2506 C2498 0.930 . S
H2507 C2499 0.929 . S
H2508 C2516 0.929 . S
H2509 C2518 0.930 . S
H2510 C2520 0.930 . S
H2511 C2523 0.929 . S
H2512 C2526 0.930 . S
H2513 C2528 0.960 . S
H2514 C2528 0.960 . S
H2515 C2528 0.960 . S
C2516 H2508 0.929 . S
C2516 C2517 1.377 . S
C2516 C2518 1.384 1_556 S
C2517 C2516 1.377 . S
C2517 C2523 1.390 1_556 S
C2518 H2509 0.930 . S
C2518 C2516 1.384 1_554 S
C2518 C2519 1.372 . S
C2519 C2518 1.372 . S
C2519 C2520 1.400 . S
C2519 C2524 1.490 . S
C2520 H2510 0.930 . S
C2520 C2519 1.400 . S
C2520 C2523 1.386 . S
H2521 C2537 0.930 . S
H2522 C2538 0.931 . S
C2523 H2511 0.929 . S
C2523 C2517 1.390 1_554 S
C2523 C2520 1.386 . S
C2524 C2519 1.490 . S
C2524 C2526 1.395 . S
C2524 C2527 1.403 . S
H2525 C2531 0.930 . S
C2526 H2512 0.930 . S
C2526 C2524 1.395 . S
C2526 C2529 1.403 . S
C2527 C2524 1.403 . S
C2527 C2528 1.524 . S
C2527 C2531 1.400 . S
C2528 H2513 0.960 . S
C2528 H2514 0.960 . S
C2528 H2515 0.960 . S
C2528 C2527 1.524 . S
C2529 C2526 1.403 . S
C2529 C2530 1.392 . S
C2529 C2533 1.495 . S
C2530 C2529 1.392 . S
C2530 C2531 1.385 . S
C2530 C2532 1.478 . S
C2531 H2525 0.930 . S
C2531 C2527 1.400 . S
C2531 C2530 1.385 . S
C2532 C2530 1.478 . S
C2532 C2534 1.381 . S
C2532 C2538 1.383 . S
C2533 C2529 1.495 . S
C2533 H2539 0.959 . S
C2533 H2540 0.961 . S
C2533 H2541 0.960 . S
C2534 C2532 1.381 . S
C2534 C2535 1.394 . S
C2534 H2542 0.930 . S
C2535 C2534 1.394 . S
C2535 C2536 1.383 . S
C2535 H2543 0.929 . S
C2536 C2535 1.383 . S
C2536 C2537 1.377 . S
C2537 H2521 0.930 . S
C2537 C2536 1.377 . S
C2537 C2538 1.379 . S
C2538 H2522 0.931 . S
C2538 C2532 1.383 . S
C2538 C2537 1.379 . S
H2539 C2533 0.959 . S
H2540 C2533 0.961 . S
H2541 C2533 0.960 . S
H2542 C2534 0.930 . S
H2543 C2535 0.929 . S
H2544 C2552 0.929 . S
H2545 C2554 0.930 . S
H2546 C2556 0.930 . S
H2547 C2559 0.929 . S
H2548 C2562 0.930 . S
H2549 C2564 0.960 . S
H2550 C2564 0.960 . S
H2551 C2564 0.960 . S
C2552 H2544 0.929 . S
C2552 C2553 1.377 . S
C2552 C2554 1.384 . S
C2553 C2552 1.377 . S
C2553 C2559 1.390 . S
C2554 H2545 0.930 . S
C2554 C2552 1.384 . S
C2554 C2555 1.372 . S
C2555 C2554 1.372 . S
C2555 C2556 1.400 . S
C2555 C2560 1.490 . S
C2556 H2546 0.930 . S
C2556 C2555 1.400 . S
C2556 C2559 1.386 . S
H2557 C2573 0.930 . S
H2558 C2574 0.931 . S
C2559 H2547 0.929 . S
C2559 C2553 1.390 . S
C2559 C2556 1.386 . S
C2560 C2555 1.490 . S
C2560 C2562 1.395 . S
C2560 C2563 1.403 . S
H2561 C2567 0.930 . S
C2562 H2548 0.930 . S
C2562 C2560 1.395 . S
C2562 C2565 1.403 . S
C2563 C2560 1.403 . S
C2563 C2564 1.524 . S
C2563 C2567 1.400 . S
C2564 H2549 0.960 . S
C2564 H2550 0.960 . S
C2564 H2551 0.960 . S
C2564 C2563 1.524 . S
C2565 C2562 1.403 . S
C2565 C2566 1.392 . S
C2565 C2569 1.495 . S
C2566 C2565 1.392 . S
C2566 C2567 1.385 . S
C2566 C2568 1.478 . S
C2567 H2561 0.930 . S
C2567 C2563 1.400 . S
C2567 C2566 1.385 . S
C2568 C2566 1.478 . S
C2568 C2570 1.381 . S
C2568 C2574 1.383 . S
C2569 C2565 1.495 . S
C2569 H2575 0.959 . S
C2569 H2576 0.961 . S
C2569 H2577 0.960 . S
C2570 C2568 1.381 . S
C2570 C2571 1.394 1_556 S
C2570 H2578 0.930 . S
C2571 C2570 1.394 1_554 S
C2571 C2572 1.383 . S
C2571 H2579 0.929 . S
C2572 C2571 1.383 . S
C2572 C2573 1.377 1_554 S
C2573 H2557 0.930 . S
C2573 C2572 1.377 1_556 S
C2573 C2574 1.379 . S
C2574 H2558 0.931 . S
C2574 C2568 1.383 . S
C2574 C2573 1.379 . S
H2575 C2569 0.959 . S
H2576 C2569 0.961 . S
H2577 C2569 0.960 . S
H2578 C2570 0.930 . S
H2579 C2571 0.929 . S
H2580 C2588 0.929 . S
H2581 C2590 0.930 . S
H2582 C2592 0.930 . S
H2583 C2595 0.929 . S
H2584 C2598 0.930 . S
H2585 C2600 0.960 . S
H2586 C2600 0.960 . S
H2587 C2600 0.960 . S
C2588 H2580 0.929 . S
C2588 C2589 1.377 . S
C2588 C2590 1.384 . S
C2589 C2588 1.377 . S
C2589 C2595 1.390 . S
C2590 H2581 0.930 . S
C2590 C2588 1.384 . S
C2590 C2591 1.372 . S
C2591 C2590 1.372 . S
C2591 C2592 1.400 . S
C2591 C2596 1.490 . S
C2592 H2582 0.930 . S
C2592 C2591 1.400 . S
C2592 C2595 1.386 . S
H2593 C2609 0.928 1_554 S
H2594 C2610 0.931 . S
C2595 H2583 0.929 . S
C2595 C2589 1.390 . S
C2595 C2592 1.386 . S
C2596 C2591 1.490 . S
C2596 C2598 1.395 . S
C2596 C2599 1.403 . S
H2597 C2603 0.930 . S
C2598 H2584 0.930 . S
C2598 C2596 1.395 . S
C2598 C2601 1.403 . S
C2599 C2596 1.403 . S
C2599 C2600 1.524 . S
C2599 C2603 1.400 . S
C2600 H2585 0.960 . S
C2600 H2586 0.960 . S
C2600 H2587 0.960 . S
C2600 C2599 1.524 . S
C2601 C2598 1.403 . S
C2601 C2602 1.392 . S
C2601 C2605 1.495 . S
C2602 C2601 1.392 . S
C2602 C2603 1.385 . S
C2602 C2604 1.478 . S
C2603 H2597 0.930 . S
C2603 C2599 1.400 . S
C2603 C2602 1.385 . S
C2604 C2602 1.478 . S
C2604 C2606 1.381 . S
C2604 C2610 1.383 . S
C2605 C2601 1.495 . S
C2605 H2611 0.959 . S
C2605 H2612 0.961 . S
C2605 H2613 0.960 . S
C2606 C2604 1.381 . S
C2606 C2607 1.394 1_556 S
C2606 H2614 0.930 . S
C2607 C2606 1.394 1_554 S
C2607 C2608 1.383 . S
C2607 H2615 0.929 . S
C2608 C2607 1.383 . S
C2608 C2609 1.374 1_554 S
C2609 H2593 0.928 1_556 S
C2609 C2608 1.374 1_556 S
C2609 C2610 1.384 . S
C2610 H2594 0.931 . S
C2610 C2604 1.383 . S
C2610 C2609 1.384 . S
H2611 C2605 0.959 . S
H2612 C2605 0.961 . S
H2613 C2605 0.960 . S
H2614 C2606 0.930 . S
H2615 C2607 0.929 . S
H2616 C2624 0.929 . S
H2617 C2626 0.930 . S
H2618 C2628 0.930 . S
H2619 C2631 0.929 . S
H2620 C2634 0.930 . S
H2621 C2636 0.960 . S
H2622 C2636 0.960 . S
H2623 C2636 0.960 . S
C2624 H2616 0.929 . S
C2624 C2625 1.377 1_556 S
C2624 C2626 1.384 . S
C2625 C2624 1.377 1_554 S
C2625 C2631 1.390 . S
C2626 H2617 0.930 . S
C2626 C2624 1.384 . S
C2626 C2627 1.372 . S
C2627 C2626 1.372 . S
C2627 C2628 1.400 . S
C2627 C2632 1.490 . S
C2628 H2618 0.930 . S
C2628 C2627 1.400 . S
C2628 C2631 1.386 1_556 S
H2629 C2645 0.930 . S
H2630 C2646 0.931 . S
C2631 H2619 0.929 . S
C2631 C2625 1.390 . S
C2631 C2628 1.386 1_554 S
C2632 C2627 1.490 . S
C2632 C2634 1.395 . S
C2632 C2635 1.403 . S
H2633 C2639 0.930 . S
C2634 H2620 0.930 . S
C2634 C2632 1.395 . S
C2634 C2637 1.403 . S
C2635 C2632 1.403 . S
C2635 C2636 1.524 . S
C2635 C2639 1.400 . S
C2636 H2621 0.960 . S
C2636 H2622 0.960 . S
C2636 H2623 0.960 . S
C2636 C2635 1.524 . S
C2637 C2634 1.403 . S
C2637 C2638 1.392 . S
C2637 C2641 1.495 . S
C2638 C2637 1.392 . S
C2638 C2639 1.385 . S
C2638 C2640 1.478 . S
C2639 H2633 0.930 . S
C2639 C2635 1.400 . S
C2639 C2638 1.385 . S
C2640 C2638 1.478 . S
C2640 C2642 1.381 . S
C2640 C2646 1.383 . S
C2641 C2637 1.495 . S
C2641 H2647 0.959 . S
C2641 H2648 0.961 . S
C2641 H2649 0.960 . S
C2642 C2640 1.381 . S
C2642 C2643 1.394 . S
C2642 H2650 0.930 . S
C2643 C2642 1.394 . S
C2643 C2644 1.383 . S
C2643 H2651 0.929 . S
C2644 C2643 1.383 . S
C2644 C2645 1.377 . S
C2645 H2629 0.930 . S
C2645 C2644 1.377 . S
C2645 C2646 1.379 . S
C2646 H2630 0.931 . S
C2646 C2640 1.383 . S
C2646 C2645 1.379 . S
H2647 C2641 0.959 . S
H2648 C2641 0.961 . S
H2649 C2641 0.960 . S
H2650 C2642 0.930 . S
H2651 C2643 0.929 . S
H2652 C2660 0.921 1_554 S
H2653 C2662 0.930 . S
H2654 C2664 0.930 . S
H2655 C2667 0.929 . S
H2656 C2670 0.930 . S
H2657 C2672 0.960 . S
H2658 C2672 0.960 . S
H2659 C2672 0.960 . S
C2660 H2652 0.921 1_556 S
C2660 C2661 1.377 1_556 S
C2660 C2662 1.384 . S
C2661 C2660 1.377 1_554 S
C2661 C2667 1.390 . S
C2662 H2653 0.930 . S
C2662 C2660 1.384 . S
C2662 C2663 1.372 . S
C2663 C2662 1.372 . S
C2663 C2664 1.400 . S
C2663 C2668 1.490 . S
C2664 H2654 0.930 . S
C2664 C2663 1.400 . S
C2664 C2667 1.386 1_556 S
H2665 C2681 0.930 . S
H2666 C2682 0.931 . S
C2667 H2655 0.929 . S
C2667 C2661 1.390 . S
C2667 C2664 1.386 1_554 S
C2668 C2663 1.490 . S
C2668 C2670 1.395 . S
C2668 C2671 1.403 . S
H2669 C2675 0.930 . S
C2670 H2656 0.930 . S
C2670 C2668 1.395 . S
C2670 C2673 1.403 . S
C2671 C2668 1.403 . S
C2671 C2672 1.524 . S
C2671 C2675 1.400 . S
C2672 H2657 0.960 . S
C2672 H2658 0.960 . S
C2672 H2659 0.960 . S
C2672 C2671 1.524 . S
C2673 C2670 1.403 . S
C2673 C2674 1.392 . S
C2673 C2677 1.495 . S
C2674 C2673 1.392 . S
C2674 C2675 1.385 . S
C2674 C2676 1.478 . S
C2675 H2669 0.930 . S
C2675 C2671 1.400 . S
C2675 C2674 1.385 . S
C2676 C2674 1.478 . S
C2676 C2678 1.381 . S
C2676 C2682 1.383 . S
C2677 C2673 1.495 . S
C2677 H2683 0.959 . S
C2677 H2684 0.961 . S
C2677 H2685 0.960 . S
C2678 C2676 1.381 . S
C2678 C2679 1.394 . S
C2678 H2686 0.930 . S
C2679 C2678 1.394 . S
C2679 C2680 1.383 . S
C2679 H2687 0.929 . S
C2680 C2679 1.383 . S
C2680 C2681 1.377 . S
C2681 H2665 0.930 . S
C2681 C2680 1.377 . S
C2681 C2682 1.379 . S
C2682 H2666 0.931 . S
C2682 C2676 1.383 . S
C2682 C2681 1.379 . S
H2683 C2677 0.959 . S
H2684 C2677 0.961 . S
H2685 C2677 0.960 . S
H2686 C2678 0.930 . S
H2687 C2679 0.929 . S
H2688 C2696 0.929 . S
H2689 C2698 0.930 . S
H2690 C2700 0.930 . S
H2691 C2703 0.929 . S
H2692 C2706 0.930 . S
H2693 C2708 0.960 . S
H2694 C2708 0.960 . S
H2695 C2708 0.960 . S
C2696 H2688 0.929 . S
C2696 C2697 1.377 . S
C2696 C2698 1.384 . S
C2697 C2696 1.377 . S
C2697 C2703 1.390 . S
C2698 H2689 0.930 . S
C2698 C2696 1.384 . S
C2698 C2699 1.372 . S
C2699 C2698 1.372 . S
C2699 C2700 1.400 . S
C2699 C2704 1.490 . S
C2700 H2690 0.930 . S
C2700 C2699 1.400 . S
C2700 C2703 1.386 . S
H2701 C2717 0.927 1_655 S
H2702 C2718 0.931 . S
C2703 H2691 0.929 . S
C2703 C2697 1.390 . S
C2703 C2700 1.386 . S
C2704 C2699 1.490 . S
C2704 C2706 1.395 . S
C2704 C2707 1.403 . S
H2705 C2711 0.930 . S
C2706 H2692 0.930 . S
C2706 C2704 1.395 . S
C2706 C2709 1.403 . S
C2707 C2704 1.403 . S
C2707 C2708 1.524 . S
C2707 C2711 1.400 . S
C2708 H2693 0.960 . S
C2708 H2694 0.960 . S
C2708 H2695 0.960 . S
C2708 C2707 1.524 . S
C2709 C2706 1.403 . S
C2709 C2710 1.392 . S
C2709 C2713 1.495 . S
C2710 C2709 1.392 . S
C2710 C2711 1.385 . S
C2710 C2712 1.478 . S
C2711 H2705 0.930 . S
C2711 C2707 1.400 . S
C2711 C2710 1.385 . S
C2712 C2710 1.478 . S
C2712 C2714 1.381 . S
C2712 C2718 1.383 . S
C2713 C2709 1.495 . S
C2713 H2719 0.959 . S
C2713 H2720 0.961 . S
C2713 H2721 0.960 . S
C2714 C2712 1.381 . S
C2714 C2715 1.394 1_455 S
C2714 H2722 0.930 . S
C2715 C2714 1.394 1_655 S
C2715 C2716 1.383 . S
C2715 H2723 0.929 . S
C2716 C2715 1.383 . S
C2716 C2717 1.377 1_655 S
C2717 H2701 0.927 1_455 S
C2717 C2716 1.377 1_455 S
C2717 C2718 1.379 . S
C2718 H2702 0.931 . S
C2718 C2712 1.383 . S
C2718 C2717 1.379 . S
H2719 C2713 0.959 . S
H2720 C2713 0.961 . S
H2721 C2713 0.960 . S
H2722 C2714 0.930 . S
H2723 C2715 0.929 . S
H2724 C2732 0.929 . S
H2725 C2734 0.930 . S
H2726 C2736 0.930 . S
H2727 C2739 0.929 . S
H2728 C2742 0.930 . S
H2729 C2744 0.960 . S
H2730 C2744 0.960 . S
H2731 C2744 0.960 . S
C2732 H2724 0.929 . S
C2732 C2733 1.377 . S
C2732 C2734 1.384 . S
C2733 C2732 1.377 . S
C2733 C2739 1.390 . S
C2734 H2725 0.930 . S
C2734 C2732 1.384 . S
C2734 C2735 1.372 . S
C2735 C2734 1.372 . S
C2735 C2736 1.400 . S
C2735 C2740 1.490 . S
C2736 H2726 0.930 . S
C2736 C2735 1.400 . S
C2736 C2739 1.386 . S
H2737 C2753 0.930 . S
H2738 C2754 0.931 . S
C2739 H2727 0.929 . S
C2739 C2733 1.390 . S
C2739 C2736 1.386 . S
C2740 C2735 1.490 . S
C2740 C2742 1.395 . S
C2740 C2743 1.403 . S
H2741 C2747 0.930 . S
C2742 H2728 0.930 . S
C2742 C2740 1.395 . S
C2742 C2745 1.403 . S
C2743 C2740 1.403 . S
C2743 C2744 1.524 . S
C2743 C2747 1.400 . S
C2744 H2729 0.960 . S
C2744 H2730 0.960 . S
C2744 H2731 0.960 . S
C2744 C2743 1.524 . S
C2745 C2742 1.403 . S
C2745 C2746 1.392 . S
C2745 C2749 1.495 . S
C2746 C2745 1.392 . S
C2746 C2747 1.385 . S
C2746 C2748 1.478 . S
C2747 H2741 0.930 . S
C2747 C2743 1.400 . S
C2747 C2746 1.385 . S
C2748 C2746 1.478 . S
C2748 C2750 1.381 . S
C2748 C2754 1.383 . S
C2749 C2745 1.495 . S
C2749 H2755 0.959 . S
C2749 H2756 0.961 . S
C2749 H2757 0.960 . S
C2750 C2748 1.381 . S
C2750 C2751 1.394 1_545 S
C2750 H2758 0.930 . S
C2751 C2750 1.394 1_565 S
C2751 C2752 1.383 . S
C2751 H2759 0.929 . S
C2752 C2751 1.383 . S
C2752 C2753 1.377 1_565 S
C2753 H2737 0.930 . S
C2753 C2752 1.377 1_545 S
C2753 C2754 1.379 . S
C2754 H2738 0.931 . S
C2754 C2748 1.383 . S
C2754 C2753 1.379 . S
H2755 C2749 0.959 . S
H2756 C2749 0.961 . S
H2757 C2749 0.960 . S
H2758 C2750 0.930 . S
H2759 C2751 0.929 . S
H2760 C2768 0.929 . S
H2761 C2770 0.930 . S
H2762 C2772 0.930 . S
H2763 C2775 0.929 . S
H2764 C2778 0.930 . S
H2765 C2780 0.960 . S
H2766 C2780 0.960 . S
H2767 C2780 0.960 . S
C2768 H2760 0.929 . S
C2768 C2769 1.377 . S
C2768 C2770 1.384 . S
C2769 C2768 1.377 . S
C2769 C2775 1.390 . S
C2770 H2761 0.930 . S
C2770 C2768 1.384 . S
C2770 C2771 1.372 . S
C2771 C2770 1.372 . S
C2771 C2772 1.400 . S
C2771 C2776 1.490 . S
C2772 H2762 0.930 . S
C2772 C2771 1.400 . S
C2772 C2775 1.386 . S
H2773 C2789 0.917 1_455 S
H2774 C2790 0.931 . S
C2775 H2763 0.929 . S
C2775 C2769 1.390 . S
C2775 C2772 1.386 . S
C2776 C2771 1.490 . S
C2776 C2778 1.395 . S
C2776 C2779 1.403 . S
H2777 C2783 0.930 . S
C2778 H2764 0.930 . S
C2778 C2776 1.395 . S
C2778 C2781 1.403 . S
C2779 C2776 1.403 . S
C2779 C2780 1.524 . S
C2779 C2783 1.400 . S
C2780 H2765 0.960 . S
C2780 H2766 0.960 . S
C2780 H2767 0.960 . S
C2780 C2779 1.524 . S
C2781 C2778 1.403 . S
C2781 C2782 1.392 . S
C2781 C2785 1.495 . S
C2782 C2781 1.392 . S
C2782 C2783 1.385 . S
C2782 C2784 1.478 . S
C2783 H2777 0.930 . S
C2783 C2779 1.400 . S
C2783 C2782 1.385 . S
C2784 C2782 1.478 . S
C2784 C2786 1.381 . S
C2784 C2790 1.383 . S
C2785 C2781 1.495 . S
C2785 H2791 0.959 . S
C2785 H2792 0.961 . S
C2785 H2793 0.960 . S
C2786 C2784 1.381 . S
C2786 C2787 1.394 1_655 S
C2786 H2794 0.930 . S
C2787 C2786 1.394 1_455 S
C2787 C2788 1.383 . S
C2787 H2795 0.929 . S
C2788 C2787 1.383 . S
C2788 C2789 1.360 1_455 S
C2789 H2773 0.917 1_655 S
C2789 C2788 1.360 1_655 S
C2789 C2790 1.410 . S
C2790 H2774 0.931 . S
C2790 C2784 1.383 . S
C2790 C2789 1.410 . S
H2791 C2785 0.959 . S
H2792 C2785 0.961 . S
H2793 C2785 0.960 . S
H2794 C2786 0.930 . S
H2795 C2787 0.929 . S
H2796 C2804 0.928 1_545 S
H2797 C2806 0.930 . S
H2798 C2808 0.930 . S
H2799 C2811 0.929 . S
H2800 C2814 0.930 . S
H2801 C2816 0.960 . S
H2802 C2816 0.960 . S
H2803 C2816 0.960 . S
C2804 H2796 0.928 1_565 S
C2804 C2805 1.376 1_565 S
C2804 C2806 1.387 . S
C2805 C2804 1.376 1_545 S
C2805 C2811 1.390 . S
C2806 H2797 0.930 . S
C2806 C2804 1.387 . S
C2806 C2807 1.372 . S
C2807 C2806 1.372 . S
C2807 C2808 1.400 . S
C2807 C2812 1.490 . S
C2808 H2798 0.930 . S
C2808 C2807 1.400 . S
C2808 C2811 1.386 1_565 S
H2809 C2825 0.930 . S
H2810 C2826 0.931 . S
C2811 H2799 0.929 . S
C2811 C2805 1.390 . S
C2811 C2808 1.386 1_545 S
C2812 C2807 1.490 . S
C2812 C2814 1.395 . S
C2812 C2815 1.403 . S
H2813 C2819 0.930 . S
C2814 H2800 0.930 . S
C2814 C2812 1.395 . S
C2814 C2817 1.403 . S
C2815 C2812 1.403 . S
C2815 C2816 1.524 . S
C2815 C2819 1.400 . S
C2816 H2801 0.960 . S
C2816 H2802 0.960 . S
C2816 H2803 0.960 . S
C2816 C2815 1.524 . S
C2817 C2814 1.403 . S
C2817 C2818 1.392 . S
C2817 C2821 1.495 . S
C2818 C2817 1.392 . S
C2818 C2819 1.385 . S
C2818 C2820 1.478 . S
C2819 H2813 0.930 . S
C2819 C2815 1.400 . S
C2819 C2818 1.385 . S
C2820 C2818 1.478 . S
C2820 C2822 1.381 . S
C2820 C2826 1.383 . S
C2821 C2817 1.495 . S
C2821 H2827 0.959 . S
C2821 H2828 0.961 . S
C2821 H2829 0.960 . S
C2822 C2820 1.381 . S
C2822 C2823 1.394 . S
C2822 H2830 0.930 . S
C2823 C2822 1.394 . S
C2823 C2824 1.383 . S
C2823 H2831 0.929 . S
C2824 C2823 1.383 . S
C2824 C2825 1.377 . S
C2825 H2809 0.930 . S
C2825 C2824 1.377 . S
C2825 C2826 1.379 . S
C2826 H2810 0.931 . S
C2826 C2820 1.383 . S
C2826 C2825 1.379 . S
H2827 C2821 0.959 . S
H2828 C2821 0.961 . S
H2829 C2821 0.960 . S
H2830 C2822 0.930 . S
H2831 C2823 0.929 . S
H2832 C2840 0.929 . S
H2833 C2842 0.930 . S
H2834 C2844 0.930 . S
H2835 C2847 0.929 . S
H2836 C2850 0.930 . S
H2837 C2852 0.960 . S
H2838 C2852 0.960 . S
H2839 C2852 0.960 . S
C2840 H2832 0.929 . S
C2840 C2841 1.377 . S
C2840 C2842 1.384 1_655 S
C2841 C2840 1.377 . S
C2841 C2847 1.390 . S
C2842 H2833 0.930 . S
C2842 C2840 1.384 1_455 S
C2842 C2843 1.372 . S
C2843 C2842 1.372 . S
C2843 C2844 1.400 . S
C2843 C2848 1.490 . S
C2844 H2834 0.930 . S
C2844 C2843 1.400 . S
C2844 C2847 1.386 1_455 S
H2845 C2861 0.930 . S
H2846 C2862 0.931 . S
C2847 H2835 0.929 . S
C2847 C2841 1.390 . S
C2847 C2844 1.386 1_655 S
C2848 C2843 1.490 . S
C2848 C2850 1.395 . S
C2848 C2851 1.403 . S
H2849 C2855 0.930 . S
C2850 H2836 0.930 . S
C2850 C2848 1.395 . S
C2850 C2853 1.403 . S
C2851 C2848 1.403 . S
C2851 C2852 1.524 . S
C2851 C2855 1.400 . S
C2852 H2837 0.960 . S
C2852 H2838 0.960 . S
C2852 H2839 0.960 . S
C2852 C2851 1.524 . S
C2853 C2850 1.403 . S
C2853 C2854 1.392 . S
C2853 C2857 1.495 . S
C2854 C2853 1.392 . S
C2854 C2855 1.385 . S
C2854 C2856 1.478 . S
C2855 H2849 0.930 . S
C2855 C2851 1.400 . S
C2855 C2854 1.385 . S
C2856 C2854 1.478 . S
C2856 C2858 1.381 . S
C2856 C2862 1.383 . S
C2857 C2853 1.495 . S
C2857 H2863 0.959 . S
C2857 H2864 0.961 . S
C2857 H2865 0.960 . S
C2858 C2856 1.381 . S
C2858 C2859 1.394 . S
C2858 H2866 0.930 . S
C2859 C2858 1.394 . S
C2859 C2860 1.383 . S
C2859 H2867 0.929 . S
C2860 C2859 1.383 . S
C2860 C2861 1.377 . S
C2861 H2845 0.930 . S
C2861 C2860 1.377 . S
C2861 C2862 1.379 . S
C2862 H2846 0.931 . S
C2862 C2856 1.383 . S
C2862 C2861 1.379 . S
H2863 C2857 0.959 . S
H2864 C2857 0.961 . S
H2865 C2857 0.960 . S
H2866 C2858 0.930 . S
H2867 C2859 0.929 . S
H2868 C2876 0.929 . S
H2869 C2878 0.930 . S
H2870 C2880 0.930 . S
H2871 C2883 0.929 . S
H2872 C2886 0.930 . S
H2873 C2888 0.960 . S
H2874 C2888 0.960 . S
H2875 C2888 0.960 . S
C2876 H2868 0.929 . S
C2876 C2877 1.377 1_545 S
C2876 C2878 1.384 . S
C2877 C2876 1.377 1_565 S
C2877 C2883 1.390 . S
C2878 H2869 0.930 . S
C2878 C2876 1.384 . S
C2878 C2879 1.372 . S
C2879 C2878 1.372 . S
C2879 C2880 1.400 . S
C2879 C2884 1.490 . S
C2880 H2870 0.930 . S
C2880 C2879 1.400 . S
C2880 C2883 1.386 1_545 S
H2881 C2897 0.930 . S
H2882 C2898 0.931 . S
C2883 H2871 0.929 . S
C2883 C2877 1.390 . S
C2883 C2880 1.386 1_565 S
C2884 C2879 1.490 . S
C2884 C2886 1.395 . S
C2884 C2887 1.403 . S
H2885 C2891 0.930 . S
C2886 H2872 0.930 . S
C2886 C2884 1.395 . S
C2886 C2889 1.403 . S
C2887 C2884 1.403 . S
C2887 C2888 1.524 . S
C2887 C2891 1.400 . S
C2888 H2873 0.960 . S
C2888 H2874 0.960 . S
C2888 H2875 0.960 . S
C2888 C2887 1.524 . S
C2889 C2886 1.403 . S
C2889 C2890 1.392 . S
C2889 C2893 1.495 . S
C2890 C2889 1.392 . S
C2890 C2891 1.385 . S
C2890 C2892 1.478 . S
C2891 H2885 0.930 . S
C2891 C2887 1.400 . S
C2891 C2890 1.385 . S
C2892 C2890 1.478 . S
C2892 C2894 1.381 . S
C2892 C2898 1.383 . S
C2893 C2889 1.495 . S
C2893 H2899 0.959 . S
C2893 H2900 0.961 . S
C2893 H2901 0.960 . S
C2894 C2892 1.381 . S
C2894 C2895 1.394 . S
C2894 H2902 0.930 . S
C2895 C2894 1.394 . S
C2895 C2896 1.383 . S
C2895 H2903 0.929 . S
C2896 C2895 1.383 . S
C2896 C2897 1.377 . S
C2897 H2881 0.930 . S
C2897 C2896 1.377 . S
C2897 C2898 1.379 . S
C2898 H2882 0.931 . S
C2898 C2892 1.383 . S
C2898 C2897 1.379 . S
H2899 C2893 0.959 . S
H2900 C2893 0.961 . S
H2901 C2893 0.960 . S
H2902 C2894 0.930 . S
H2903 C2895 0.929 . S
H2904 C2912 0.929 . S
H2905 C2914 0.930 . S
H2906 C2916 0.930 . S
H2907 C2919 0.929 . S
H2908 C2922 0.930 . S
H2909 C2924 0.960 . S
H2910 C2924 0.960 . S
H2911 C2924 0.960 . S
C2912 H2904 0.929 . S
C2912 C2913 1.377 . S
C2912 C2914 1.384 1_455 S
C2913 C2912 1.377 . S
C2913 C2919 1.390 . S
C2914 H2905 0.930 . S
C2914 C2912 1.384 1_655 S
C2914 C2915 1.372 . S
C2915 C2914 1.372 . S
C2915 C2916 1.400 . S
C2915 C2920 1.490 . S
C2916 H2906 0.930 . S
C2916 C2915 1.400 . S
C2916 C2919 1.385 1_655 S
H2917 C2933 0.930 . S
H2918 C2934 0.931 . S
C2919 H2907 0.929 . S
C2919 C2913 1.390 . S
C2919 C2916 1.385 1_455 S
C2920 C2915 1.490 . S
C2920 C2922 1.395 . S
C2920 C2923 1.403 . S
H2921 C2927 0.930 . S
C2922 H2908 0.930 . S
C2922 C2920 1.395 . S
C2922 C2925 1.403 . S
C2923 C2920 1.403 . S
C2923 C2924 1.524 . S
C2923 C2927 1.400 . S
C2924 H2909 0.960 . S
C2924 H2910 0.960 . S
C2924 H2911 0.960 . S
C2924 C2923 1.524 . S
C2925 C2922 1.403 . S
C2925 C2926 1.392 . S
C2925 C2929 1.495 . S
C2926 C2925 1.392 . S
C2926 C2927 1.385 . S
C2926 C2928 1.478 . S
C2927 H2921 0.930 . S
C2927 C2923 1.400 . S
C2927 C2926 1.385 . S
C2928 C2926 1.478 . S
C2928 C2930 1.381 . S
C2928 C2934 1.383 . S
C2929 C2925 1.495 . S
C2929 H2935 0.959 . S
C2929 H2936 0.961 . S
C2929 H2937 0.960 . S
C2930 C2928 1.381 . S
C2930 C2931 1.394 . S
C2930 H2938 0.930 . S
C2931 C2930 1.394 . S
C2931 C2932 1.383 . S
C2931 H2939 0.929 . S
C2932 C2931 1.383 . S
C2932 C2933 1.377 . S
C2933 H2917 0.930 . S
C2933 C2932 1.377 . S
C2933 C2934 1.379 . S
C2934 H2918 0.931 . S
C2934 C2928 1.383 . S
C2934 C2933 1.379 . S
H2935 C2929 0.959 . S
H2936 C2929 0.961 . S
H2937 C2929 0.960 . S
H2938 C2930 0.930 . S
H2939 C2931 0.929 . S
H2940 C2948 0.929 . S
H2941 C2950 0.930 . S
H2942 C2952 0.930 . S
H2943 C2955 0.929 . S
H2944 C2958 0.930 . S
H2945 C2960 0.960 . S
H2946 C2960 0.960 . S
H2947 C2960 0.960 . S
C2948 H2940 0.929 . S
C2948 C2949 1.377 . S
C2948 C2950 1.384 . S
C2949 C2948 1.377 . S
C2949 C2955 1.390 . S
C2950 H2941 0.930 . S
C2950 C2948 1.384 . S
C2950 C2951 1.372 . S
C2951 C2950 1.372 . S
C2951 C2952 1.400 . S
C2951 C2956 1.490 . S
C2952 H2942 0.930 . S
C2952 C2951 1.400 . S
C2952 C2955 1.386 . S
H2953 C2969 0.930 . S
H2954 C2970 0.931 . S
C2955 H2943 0.929 . S
C2955 C2949 1.390 . S
C2955 C2952 1.386 . S
C2956 C2951 1.490 . S
C2956 C2958 1.395 . S
C2956 C2959 1.403 . S
H2957 C2963 0.930 . S
C2958 H2944 0.930 . S
C2958 C2956 1.395 . S
C2958 C2961 1.403 . S
C2959 C2956 1.403 . S
C2959 C2960 1.524 . S
C2959 C2963 1.400 . S
C2960 H2945 0.960 . S
C2960 H2946 0.960 . S
C2960 H2947 0.960 . S
C2960 C2959 1.524 . S
C2961 C2958 1.403 . S
C2961 C2962 1.392 . S
C2961 C2965 1.495 . S
C2962 C2961 1.392 . S
C2962 C2963 1.385 . S
C2962 C2964 1.478 . S
C2963 H2957 0.930 . S
C2963 C2959 1.400 . S
C2963 C2962 1.385 . S
C2964 C2962 1.478 . S
C2964 C2966 1.381 . S
C2964 C2970 1.383 . S
C2965 C2961 1.495 . S
C2965 H2971 0.959 . S
C2965 H2972 0.961 . S
C2965 H2973 0.960 . S
C2966 C2964 1.381 . S
C2966 C2967 1.419 . S
C2966 H2974 0.930 . S
C2967 C2966 1.419 . S
C2967 C2968 1.370 1_565 S
C2967 H2975 0.918 1_565 S
C2968 C2967 1.370 1_545 S
C2968 C2969 1.377 . S
C2969 H2953 0.930 . S
C2969 C2968 1.377 . S
C2969 C2970 1.379 1_545 S
C2970 H2954 0.931 . S
C2970 C2964 1.383 . S
C2970 C2969 1.379 1_565 S
H2971 C2965 0.959 . S
H2972 C2965 0.961 . S
H2973 C2965 0.960 . S
H2974 C2966 0.930 . S
H2975 C2967 0.918 1_545 S
H2976 C2984 0.929 . S
H2977 C2986 0.930 . S
H2978 C2988 0.930 . S
H2979 C2991 0.930 . S
H2980 C2994 0.930 . S
H2981 C2996 0.960 . S
H2982 C2996 0.960 . S
H2983 C2996 0.960 . S
C2984 H2976 0.929 . S
C2984 C2985 1.377 . S
C2984 C2986 1.384 1_565 S
C2985 C2984 1.377 . S
C2985 C2991 1.391 . S
C2986 H2977 0.930 . S
C2986 C2984 1.384 1_545 S
C2986 C2987 1.372 . S
C2987 C2986 1.372 . S
C2987 C2988 1.400 . S
C2987 C2992 1.490 . S
C2988 H2978 0.930 . S
C2988 C2987 1.400 . S
C2988 C2991 1.383 1_545 S
H2989 C3005 0.930 . S
H2990 C3006 0.931 . S
C2991 H2979 0.930 . S
C2991 C2985 1.391 . S
C2991 C2988 1.383 1_565 S
C2992 C2987 1.490 . S
C2992 C2994 1.395 . S
C2992 C2995 1.403 . S
H2993 C2999 0.930 . S
C2994 H2980 0.930 . S
C2994 C2992 1.395 . S
C2994 C2997 1.403 . S
C2995 C2992 1.403 . S
C2995 C2996 1.524 . S
C2995 C2999 1.400 . S
C2996 H2981 0.960 . S
C2996 H2982 0.960 . S
C2996 H2983 0.960 . S
C2996 C2995 1.524 . S
C2997 C2994 1.403 . S
C2997 C2998 1.392 . S
C2997 C3001 1.495 . S
C2998 C2997 1.392 . S
C2998 C2999 1.385 . S
C2998 C3000 1.478 . S
C2999 H2993 0.930 . S
C2999 C2995 1.400 . S
C2999 C2998 1.385 . S
C3000 C2998 1.478 . S
C3000 C3002 1.381 . S
C3000 C3006 1.383 . S
C3001 C2997 1.495 . S
C3001 H3007 0.959 . S
C3001 H3008 0.961 . S
C3001 H3009 0.960 . S
C3002 C3000 1.381 . S
C3002 C3003 1.394 . S
C3002 H3010 0.930 . S
C3003 C3002 1.394 . S
C3003 C3004 1.383 . S
C3003 H3011 0.929 . S
C3004 C3003 1.383 . S
C3004 C3005 1.377 . S
C3005 H2989 0.930 . S
C3005 C3004 1.377 . S
C3005 C3006 1.379 . S
C3006 H2990 0.931 . S
C3006 C3000 1.383 . S
C3006 C3005 1.379 . S
H3007 C3001 0.959 . S
H3008 C3001 0.961 . S
H3009 C3001 0.960 . S
H3010 C3002 0.930 . S
H3011 C3003 0.929 . S
H3012 C3020 0.929 . S
H3013 C3022 0.930 . S
H3014 C3024 0.930 . S
H3015 C3027 0.941 . S
H3016 C3030 0.930 . S
H3017 C3032 0.960 . S
H3018 C3032 0.960 . S
H3019 C3032 0.960 . S
C3020 H3012 0.929 . S
C3020 C3021 1.377 . S
C3020 C3022 1.384 1_545 S
C3021 C3020 1.377 . S
C3021 C3027 1.390 1_545 S
C3022 H3013 0.930 . S
C3022 C3020 1.384 1_565 S
C3022 C3023 1.372 . S
C3023 C3022 1.372 . S
C3023 C3024 1.400 . S
C3023 C3028 1.490 . S
C3024 H3014 0.930 . S
C3024 C3023 1.400 . S
C3024 C3027 1.386 . S
H3025 C3041 0.930 . S
H3026 C3042 0.931 . S
C3027 H3015 0.941 . S
C3027 C3021 1.390 1_565 S
C3027 C3024 1.386 . S
C3028 C3023 1.490 . S
C3028 C3030 1.395 . S
C3028 C3031 1.403 . S
H3029 C3035 0.930 . S
C3030 H3016 0.930 . S
C3030 C3028 1.395 . S
C3030 C3033 1.403 . S
C3031 C3028 1.403 . S
C3031 C3032 1.524 . S
C3031 C3035 1.400 . S
C3032 H3017 0.960 . S
C3032 H3018 0.960 . S
C3032 H3019 0.960 . S
C3032 C3031 1.524 . S
C3033 C3030 1.403 . S
C3033 C3034 1.392 . S
C3033 C3037 1.495 . S
C3034 C3033 1.392 . S
C3034 C3035 1.385 . S
C3034 C3036 1.478 . S
C3035 H3029 0.930 . S
C3035 C3031 1.400 . S
C3035 C3034 1.385 . S
C3036 C3034 1.478 . S
C3036 C3038 1.381 . S
C3036 C3042 1.383 . S
C3037 C3033 1.495 . S
C3037 H3043 0.959 . S
C3037 H3044 0.961 . S
C3037 H3045 0.960 . S
C3038 C3036 1.381 . S
C3038 C3039 1.394 . S
C3038 H3046 0.930 . S
C3039 C3038 1.394 . S
C3039 C3040 1.383 . S
C3039 H3047 0.929 . S
C3040 C3039 1.383 . S
C3040 C3041 1.377 . S
C3041 H3025 0.930 . S
C3041 C3040 1.377 . S
C3041 C3042 1.379 . S
C3042 H3026 0.931 . S
C3042 C3036 1.383 . S
C3042 C3041 1.379 . S
H3043 C3037 0.959 . S
H3044 C3037 0.961 . S
H3045 C3037 0.960 . S
H3046 C3038 0.930 . S
H3047 C3039 0.929 . S
H3048 C3056 0.929 . S
H3049 C3058 0.930 . S
H3050 C3060 0.930 . S
H3051 C3063 0.949 . S
H3052 C3066 0.930 . S
H3053 C3068 0.960 . S
H3054 C3068 0.960 . S
H3055 C3068 0.960 . S
C3056 H3048 0.929 . S
C3056 C3057 1.377 . S
C3056 C3058 1.384 1_655 S
C3057 C3056 1.377 . S
C3057 C3063 1.411 . S
C3058 H3049 0.930 . S
C3058 C3056 1.384 1_455 S
C3058 C3059 1.372 . S
C3059 C3058 1.372 . S
C3059 C3060 1.400 . S
C3059 C3064 1.490 . S
C3060 H3050 0.930 . S
C3060 C3059 1.400 . S
C3060 C3063 1.346 1_455 S
H3061 C3077 0.930 . S
H3062 C3078 0.931 . S
C3063 H3051 0.949 . S
C3063 C3057 1.411 . S
C3063 C3060 1.346 1_655 S
C3064 C3059 1.490 . S
C3064 C3066 1.395 . S
C3064 C3067 1.403 . S
H3065 C3071 0.930 . S
C3066 H3052 0.930 . S
C3066 C3064 1.395 . S
C3066 C3069 1.403 . S
C3067 C3064 1.403 . S
C3067 C3068 1.524 . S
C3067 C3071 1.400 . S
C3068 H3053 0.960 . S
C3068 H3054 0.960 . S
C3068 H3055 0.960 . S
C3068 C3067 1.524 . S
C3069 C3066 1.403 . S
C3069 C3070 1.392 . S
C3069 C3073 1.495 . S
C3070 C3069 1.392 . S
C3070 C3071 1.385 . S
C3070 C3072 1.478 . S
C3071 H3065 0.930 . S
C3071 C3067 1.400 . S
C3071 C3070 1.385 . S
C3072 C3070 1.478 . S
C3072 C3074 1.381 . S
C3072 C3078 1.383 . S
C3073 C3069 1.495 . S
C3073 H3079 0.959 . S
C3073 H3080 0.961 . S
C3073 H3081 0.960 . S
C3074 C3072 1.381 . S
C3074 C3075 1.394 . S
C3074 H3082 0.930 . S
C3075 C3074 1.394 . S
C3075 C3076 1.383 . S
C3075 H3083 0.929 . S
C3076 C3075 1.383 . S
C3076 C3077 1.377 . S
C3077 H3061 0.930 . S
C3077 C3076 1.377 . S
C3077 C3078 1.379 . S
C3078 H3062 0.931 . S
C3078 C3072 1.383 . S
C3078 C3077 1.379 . S
H3079 C3073 0.959 . S
H3080 C3073 0.961 . S
H3081 C3073 0.960 . S
H3082 C3074 0.930 . S
H3083 C3075 0.929 . S
H3084 C3092 0.929 . S
H3085 C3094 0.930 . S
H3086 C3096 0.930 . S
H3087 C3099 0.929 . S
H3088 C3102 0.930 . S
H3089 C3104 0.960 . S
H3090 C3104 0.960 . S
H3091 C3104 0.960 . S
C3092 H3084 0.929 . S
C3092 C3093 1.377 . S
C3092 C3094 1.384 . S
C3093 C3092 1.377 . S
C3093 C3099 1.390 . S
C3094 H3085 0.930 . S
C3094 C3092 1.384 . S
C3094 C3095 1.372 . S
C3095 C3094 1.372 . S
C3095 C3096 1.400 . S
C3095 C3100 1.490 . S
C3096 H3086 0.930 . S
C3096 C3095 1.400 . S
C3096 C3099 1.386 . S
H3097 C3113 0.920 1_565 S
H3098 C3114 0.931 . S
C3099 H3087 0.929 . S
C3099 C3093 1.390 . S
C3099 C3096 1.386 . S
C3100 C3095 1.490 . S
C3100 C3102 1.395 . S
C3100 C3103 1.403 . S
H3101 C3107 0.930 . S
C3102 H3088 0.930 . S
C3102 C3100 1.395 . S
C3102 C3105 1.403 . S
C3103 C3100 1.403 . S
C3103 C3104 1.524 . S
C3103 C3107 1.400 . S
C3104 H3089 0.960 . S
C3104 H3090 0.960 . S
C3104 H3091 0.960 . S
C3104 C3103 1.524 . S
C3105 C3102 1.403 . S
C3105 C3106 1.392 . S
C3105 C3109 1.495 . S
C3106 C3105 1.392 . S
C3106 C3107 1.385 . S
C3106 C3108 1.478 . S
C3107 H3101 0.930 . S
C3107 C3103 1.400 . S
C3107 C3106 1.385 . S
C3108 C3106 1.478 . S
C3108 C3110 1.381 . S
C3108 C3114 1.383 . S
C3109 C3105 1.495 . S
C3109 H3115 0.959 . S
C3109 H3116 0.961 . S
C3109 H3117 0.960 . S
C3110 C3108 1.381 . S
C3110 C3111 1.394 1_545 S
C3110 H3118 0.930 . S
C3111 C3110 1.394 1_565 S
C3111 C3112 1.383 . S
C3111 H3119 0.929 . S
C3112 C3111 1.383 . S
C3112 C3113 1.354 1_565 S
C3113 H3097 0.920 1_545 S
C3113 C3112 1.354 1_545 S
C3113 C3114 1.413 . S
C3114 H3098 0.931 . S
C3114 C3108 1.383 . S
C3114 C3113 1.413 . S
H3115 C3109 0.959 . S
H3116 C3109 0.961 . S
H3117 C3109 0.960 . S
H3118 C3110 0.930 . S
H3119 C3111 0.929 . S
H3120 C3128 0.929 . S
H3121 C3130 0.930 . S
H3122 C3132 0.930 . S
H3123 C3135 0.929 1_455 S
H3124 C3138 0.930 . S
H3125 C3140 0.960 . S
H3126 C3140 0.960 . S
H3127 C3140 0.960 . S
C3128 H3120 0.929 . S
C3128 C3129 1.377 . S
C3128 C3130 1.384 1_455 S
C3129 C3128 1.377 . S
C3129 C3135 1.390 1_455 S
C3130 H3121 0.930 . S
C3130 C3128 1.384 1_655 S
C3130 C3131 1.372 . S
C3131 C3130 1.372 . S
C3131 C3132 1.400 . S
C3131 C3136 1.490 . S
C3132 H3122 0.930 . S
C3132 C3131 1.400 . S
C3132 C3135 1.386 . S
H3133 C3149 0.930 . S
H3134 C3150 0.931 . S
C3135 H3123 0.929 1_655 S
C3135 C3129 1.390 1_655 S
C3135 C3132 1.386 . S
C3136 C3131 1.490 . S
C3136 C3138 1.395 . S
C3136 C3139 1.403 . S
H3137 C3143 0.930 . S
C3138 H3124 0.930 . S
C3138 C3136 1.395 . S
C3138 C3141 1.403 . S
C3139 C3136 1.403 . S
C3139 C3140 1.524 . S
C3139 C3143 1.400 . S
C3140 H3125 0.960 . S
C3140 H3126 0.960 . S
C3140 H3127 0.960 . S
C3140 C3139 1.524 . S
C3141 C3138 1.403 . S
C3141 C3142 1.392 . S
C3141 C3145 1.495 . S
C3142 C3141 1.392 . S
C3142 C3143 1.385 . S
C3142 C3144 1.478 . S
C3143 H3137 0.930 . S
C3143 C3139 1.400 . S
C3143 C3142 1.385 . S
C3144 C3142 1.478 . S
C3144 C3146 1.381 . S
C3144 C3150 1.383 . S
C3145 C3141 1.495 . S
C3145 H3151 0.959 . S
C3145 H3152 0.961 . S
C3145 H3153 0.960 . S
C3146 C3144 1.381 . S
C3146 C3147 1.394 . S
C3146 H3154 0.930 . S
C3147 C3146 1.394 . S
C3147 C3148 1.383 . S
C3147 H3155 0.929 . S
C3148 C3147 1.383 . S
C3148 C3149 1.377 . S
C3149 H3133 0.930 . S
C3149 C3148 1.377 . S
C3149 C3150 1.379 . S
C3150 H3134 0.931 . S
C3150 C3144 1.383 . S
C3150 C3149 1.379 . S
H3151 C3145 0.959 . S
H3152 C3145 0.961 . S
H3153 C3145 0.960 . S
H3154 C3146 0.930 . S
H3155 C3147 0.929 . S
H3156 C3164 0.929 . S
H3157 C3166 0.930 . S
H3158 C3168 0.930 . S
H3159 C3171 0.929 . S
H3160 C3174 0.930 . S
H3161 C3176 0.960 . S
H3162 C3176 0.960 . S
H3163 C3176 0.960 . S
C3164 H3156 0.929 . S
C3164 C3165 1.377 1_565 S
C3164 C3166 1.384 . S
C3165 C3164 1.377 1_545 S
C3165 C3171 1.390 . S
C3166 H3157 0.930 . S
C3166 C3164 1.384 . S
C3166 C3167 1.372 . S
C3167 C3166 1.372 . S
C3167 C3168 1.400 . S
C3167 C3172 1.490 . S
C3168 H3158 0.930 . S
C3168 C3167 1.400 . S
C3168 C3171 1.386 1_565 S
H3169 C3185 0.930 . S
H3170 C3186 0.931 . S
C3171 H3159 0.929 . S
C3171 C3165 1.390 . S
C3171 C3168 1.386 1_545 S
C3172 C3167 1.490 . S
C3172 C3174 1.395 . S
C3172 C3175 1.403 . S
H3173 C3179 0.930 . S
C3174 H3160 0.930 . S
C3174 C3172 1.395 . S
C3174 C3177 1.403 . S
C3175 C3172 1.403 . S
C3175 C3176 1.524 . S
C3175 C3179 1.400 . S
C3176 H3161 0.960 . S
C3176 H3162 0.960 . S
C3176 H3163 0.960 . S
C3176 C3175 1.524 . S
C3177 C3174 1.403 . S
C3177 C3178 1.392 . S
C3177 C3181 1.495 . S
C3178 C3177 1.392 . S
C3178 C3179 1.385 . S
C3178 C3180 1.478 . S
C3179 H3173 0.930 . S
C3179 C3175 1.400 . S
C3179 C3178 1.385 . S
C3180 C3178 1.478 . S
C3180 C3182 1.381 . S
C3180 C3186 1.383 . S
C3181 C3177 1.495 . S
C3181 H3187 0.959 . S
C3181 H3188 0.961 . S
C3181 H3189 0.960 . S
C3182 C3180 1.381 . S
C3182 C3183 1.394 . S
C3182 H3190 0.930 . S
C3183 C3182 1.394 . S
C3183 C3184 1.383 . S
C3183 H3191 0.929 . S
C3184 C3183 1.383 . S
C3184 C3185 1.377 . S
C3185 H3169 0.930 . S
C3185 C3184 1.377 . S
C3185 C3186 1.379 . S
C3186 H3170 0.931 . S
C3186 C3180 1.383 . S
C3186 C3185 1.379 . S
H3187 C3181 0.959 . S
H3188 C3181 0.961 . S
H3189 C3181 0.960 . S
H3190 C3182 0.930 . S
H3191 C3183 0.929 . S
H3192 C3200 0.940 . S
H3193 C3202 0.930 . S
H3194 C3204 0.930 . S
H3195 C3207 0.929 . S
H3196 C3210 0.930 . S
H3197 C3212 0.960 . S
H3198 C3212 0.960 . S
H3199 C3212 0.960 . S
C3200 H3192 0.940 . S
C3200 C3201 1.377 1_455 S
C3200 C3202 1.384 . S
C3201 C3200 1.377 1_655 S
C3201 C3207 1.390 . S
C3202 H3193 0.930 . S
C3202 C3200 1.384 . S
C3202 C3203 1.372 . S
C3203 C3202 1.372 . S
C3203 C3204 1.400 . S
C3203 C3208 1.490 . S
C3204 H3194 0.930 . S
C3204 C3203 1.400 . S
C3204 C3207 1.386 1_455 S
H3205 C3221 0.930 . S
H3206 C3222 0.931 . S
C3207 H3195 0.929 . S
C3207 C3201 1.390 . S
C3207 C3204 1.386 1_655 S
C3208 C3203 1.490 . S
C3208 C3210 1.395 . S
C3208 C3211 1.403 . S
H3209 C3215 0.930 . S
C3210 H3196 0.930 . S
C3210 C3208 1.395 . S
C3210 C3213 1.403 . S
C3211 C3208 1.403 . S
C3211 C3212 1.524 . S
C3211 C3215 1.400 . S
C3212 H3197 0.960 . S
C3212 H3198 0.960 . S
C3212 H3199 0.960 . S
C3212 C3211 1.524 . S
C3213 C3210 1.403 . S
C3213 C3214 1.392 . S
C3213 C3217 1.495 . S
C3214 C3213 1.392 . S
C3214 C3215 1.385 . S
C3214 C3216 1.478 . S
C3215 H3209 0.930 . S
C3215 C3211 1.400 . S
C3215 C3214 1.385 . S
C3216 C3214 1.478 . S
C3216 C3218 1.381 . S
C3216 C3222 1.383 . S
C3217 C3213 1.495 . S
C3217 H3223 0.959 . S
C3217 H3224 0.961 . S
C3217 H3225 0.960 . S
C3218 C3216 1.381 . S
C3218 C3219 1.394 . S
C3218 H3226 0.930 . S
C3219 C3218 1.394 . S
C3219 C3220 1.383 . S
C3219 H3227 0.929 . S
C3220 C3219 1.383 . S
C3220 C3221 1.377 . S
C3221 H3205 0.930 . S
C3221 C3220 1.377 . S
C3221 C3222 1.379 . S
C3222 H3206 0.931 . S
C3222 C3216 1.383 . S
C3222 C3221 1.379 . S
H3223 C3217 0.959 . S
H3224 C3217 0.961 . S
H3225 C3217 0.960 . S
H3226 C3218 0.930 . S
H3227 C3219 0.929 . S
H3228 C3236 0.929 . S
H3229 C3238 0.930 . S
H3230 C3240 0.930 . S
H3231 C3243 0.922 1_455 S
H3232 C3246 0.930 . S
H3233 C3248 0.960 . S
H3234 C3248 0.960 . S
H3235 C3248 0.960 . S
C3236 H3228 0.929 . S
C3236 C3237 1.377 . S
C3236 C3238 1.384 1_455 S
C3237 C3236 1.377 . S
C3237 C3243 1.380 1_455 S
C3238 H3229 0.930 . S
C3238 C3236 1.384 1_655 S
C3238 C3239 1.372 . S
C3239 C3238 1.372 . S
C3239 C3240 1.400 . S
C3239 C3244 1.490 . S
C3240 H3230 0.930 . S
C3240 C3239 1.400 . S
C3240 C3243 1.403 . S
H3241 C3257 0.930 . S
H3242 C3258 0.931 . S
C3243 H3231 0.922 1_655 S
C3243 C3237 1.380 1_655 S
C3243 C3240 1.403 . S
C3244 C3239 1.490 . S
C3244 C3246 1.395 . S
C3244 C3247 1.403 . S
H3245 C3251 0.930 . S
C3246 H3232 0.930 . S
C3246 C3244 1.395 . S
C3246 C3249 1.403 . S
C3247 C3244 1.403 . S
C3247 C3248 1.524 . S
C3247 C3251 1.400 . S
C3248 H3233 0.960 . S
C3248 H3234 0.960 . S
C3248 H3235 0.960 . S
C3248 C3247 1.524 . S
C3249 C3246 1.403 . S
C3249 C3250 1.392 . S
C3249 C3253 1.495 . S
C3250 C3249 1.392 . S
C3250 C3251 1.385 . S
C3250 C3252 1.478 . S
C3251 H3245 0.930 . S
C3251 C3247 1.400 . S
C3251 C3250 1.385 . S
C3252 C3250 1.478 . S
C3252 C3254 1.381 . S
C3252 C3258 1.383 . S
C3253 C3249 1.495 . S
C3253 H3259 0.959 . S
C3253 H3260 0.961 . S
C3253 H3261 0.960 . S
C3254 C3252 1.381 . S
C3254 C3255 1.394 . S
C3254 H3262 0.930 . S
C3255 C3254 1.394 . S
C3255 C3256 1.383 . S
C3255 H3263 0.929 . S
C3256 C3255 1.383 . S
C3256 C3257 1.377 . S
C3257 H3241 0.930 . S
C3257 C3256 1.377 . S
C3257 C3258 1.379 . S
C3258 H3242 0.931 . S
C3258 C3252 1.383 . S
C3258 C3257 1.379 . S
H3259 C3253 0.959 . S
H3260 C3253 0.961 . S
H3261 C3253 0.960 . S
H3262 C3254 0.930 . S
H3263 C3255 0.929 . S
H3264 C3272 0.929 . S
H3265 C3274 0.930 . S
H3266 C3276 0.930 . S
H3267 C3279 0.929 . S
H3268 C3282 0.930 . S
H3269 C3284 0.960 . S
H3270 C3284 0.960 . S
H3271 C3284 0.960 . S
C3272 H3264 0.929 . S
C3272 C3273 1.377 . S
C3272 C3274 1.384 . S
C3273 C3272 1.377 . S
C3273 C3279 1.390 . S
C3274 H3265 0.930 . S
C3274 C3272 1.384 . S
C3274 C3275 1.372 . S
C3275 C3274 1.372 . S
C3275 C3276 1.400 . S
C3275 C3280 1.490 . S
C3276 H3266 0.930 . S
C3276 C3275 1.400 . S
C3276 C3279 1.386 . S
H3277 C3293 0.930 . S
H3278 C3294 0.931 . S
C3279 H3267 0.929 . S
C3279 C3273 1.390 . S
C3279 C3276 1.386 . S
C3280 C3275 1.490 . S
C3280 C3282 1.395 . S
C3280 C3283 1.403 . S
H3281 C3287 0.930 . S
C3282 H3268 0.930 . S
C3282 C3280 1.395 . S
C3282 C3285 1.403 . S
C3283 C3280 1.403 . S
C3283 C3284 1.524 . S
C3283 C3287 1.400 . S
C3284 H3269 0.960 . S
C3284 H3270 0.960 . S
C3284 H3271 0.960 . S
C3284 C3283 1.524 . S
C3285 C3282 1.403 . S
C3285 C3286 1.392 . S
C3285 C3289 1.495 . S
C3286 C3285 1.392 . S
C3286 C3287 1.385 . S
C3286 C3288 1.478 . S
C3287 H3281 0.930 . S
C3287 C3283 1.400 . S
C3287 C3286 1.385 . S
C3288 C3286 1.478 . S
C3288 C3290 1.381 . S
C3288 C3294 1.383 . S
C3289 C3285 1.495 . S
C3289 H3295 0.959 . S
C3289 H3296 0.961 . S
C3289 H3297 0.960 . S
C3290 C3288 1.381 . S
C3290 C3291 1.394 . S
C3290 H3298 0.930 . S
C3291 C3290 1.394 . S
C3291 C3292 1.383 . S
C3291 H3299 0.929 . S
C3292 C3291 1.383 . S
C3292 C3293 1.377 . S
C3293 H3277 0.930 . S
C3293 C3292 1.377 . S
C3293 C3294 1.379 . S
C3294 H3278 0.931 . S
C3294 C3288 1.383 . S
C3294 C3293 1.379 . S
H3295 C3289 0.959 . S
H3296 C3289 0.961 . S
H3297 C3289 0.960 . S
H3298 C3290 0.930 . S
H3299 C3291 0.929 . S
H3300 C3308 0.929 . S
H3301 C3310 0.930 . S
H3302 C3312 0.930 . S
H3303 C3315 0.929 . S
H3304 C3318 0.930 . S
H3305 C3320 0.960 . S
H3306 C3320 0.960 . S
H3307 C3320 0.960 . S
C3308 H3300 0.929 . S
C3308 C3309 1.377 . S
C3308 C3310 1.384 . S
C3309 C3308 1.377 . S
C3309 C3315 1.390 . S
C3310 H3301 0.930 . S
C3310 C3308 1.384 . S
C3310 C3311 1.372 . S
C3311 C3310 1.372 . S
C3311 C3312 1.400 . S
C3311 C3316 1.490 . S
C3312 H3302 0.930 . S
C3312 C3311 1.400 . S
C3312 C3315 1.386 . S
H3313 C3329 0.930 . S
H3314 C3330 0.931 . S
C3315 H3303 0.929 . S
C3315 C3309 1.390 . S
C3315 C3312 1.386 . S
C3316 C3311 1.490 . S
C3316 C3318 1.395 . S
C3316 C3319 1.403 . S
H3317 C3323 0.930 . S
C3318 H3304 0.930 . S
C3318 C3316 1.395 . S
C3318 C3321 1.403 . S
C3319 C3316 1.403 . S
C3319 C3320 1.524 . S
C3319 C3323 1.400 . S
C3320 H3305 0.960 . S
C3320 H3306 0.960 . S
C3320 H3307 0.960 . S
C3320 C3319 1.524 . S
C3321 C3318 1.403 . S
C3321 C3322 1.392 . S
C3321 C3325 1.495 . S
C3322 C3321 1.392 . S
C3322 C3323 1.385 . S
C3322 C3324 1.478 . S
C3323 H3317 0.930 . S
C3323 C3319 1.400 . S
C3323 C3322 1.385 . S
C3324 C3322 1.478 . S
C3324 C3326 1.381 . S
C3324 C3330 1.383 . S
C3325 C3321 1.495 . S
C3325 H3331 0.959 . S
C3325 H3332 0.961 . S
C3325 H3333 0.960 . S
C3326 C3324 1.381 . S
C3326 C3327 1.394 . S
C3326 H3334 0.930 . S
C3327 C3326 1.394 . S
C3327 C3328 1.383 . S
C3327 H3335 0.929 . S
C3328 C3327 1.383 . S
C3328 C3329 1.377 . S
C3329 H3313 0.930 . S
C3329 C3328 1.377 . S
C3329 C3330 1.379 . S
C3330 H3314 0.931 . S
C3330 C3324 1.383 . S
C3330 C3329 1.379 . S
H3331 C3325 0.959 . S
H3332 C3325 0.961 . S
H3333 C3325 0.960 . S
H3334 C3326 0.930 . S
H3335 C3327 0.929 . S
H3336 C3344 0.929 . S
H3337 C3346 0.930 . S
H3338 C3348 0.930 . S
H3339 C3351 0.929 . S
H3340 C3354 0.930 . S
H3341 C3356 0.960 . S
H3342 C3356 0.960 . S
H3343 C3356 0.960 . S
C3344 H3336 0.929 . S
C3344 C3345 1.377 . S
C3344 C3346 1.384 . S
C3345 C3344 1.377 . S
C3345 C3351 1.390 . S
C3346 H3337 0.930 . S
C3346 C3344 1.384 . S
C3346 C3347 1.372 . S
C3347 C3346 1.372 . S
C3347 C3348 1.400 . S
C3347 C3352 1.490 . S
C3348 H3338 0.930 . S
C3348 C3347 1.400 . S
C3348 C3351 1.386 . S
H3349 C3365 0.930 . S
H3350 C3366 0.931 . S
C3351 H3339 0.929 . S
C3351 C3345 1.390 . S
C3351 C3348 1.386 . S
C3352 C3347 1.490 . S
C3352 C3354 1.395 . S
C3352 C3355 1.403 . S
H3353 C3359 0.930 . S
C3354 H3340 0.930 . S
C3354 C3352 1.395 . S
C3354 C3357 1.403 . S
C3355 C3352 1.403 . S
C3355 C3356 1.524 . S
C3355 C3359 1.400 . S
C3356 H3341 0.960 . S
C3356 H3342 0.960 . S
C3356 H3343 0.960 . S
C3356 C3355 1.524 . S
C3357 C3354 1.403 . S
C3357 C3358 1.392 . S
C3357 C3361 1.495 . S
C3358 C3357 1.392 . S
C3358 C3359 1.385 . S
C3358 C3360 1.478 . S
C3359 H3353 0.930 . S
C3359 C3355 1.400 . S
C3359 C3358 1.385 . S
C3360 C3358 1.478 . S
C3360 C3362 1.381 . S
C3360 C3366 1.383 . S
C3361 C3357 1.495 . S
C3361 H3367 0.959 . S
C3361 H3368 0.961 . S
C3361 H3369 0.960 . S
C3362 C3360 1.381 . S
C3362 C3363 1.394 . S
C3362 H3370 0.930 . S
C3363 C3362 1.394 . S
C3363 C3364 1.383 . S
C3363 H3371 0.929 . S
C3364 C3363 1.383 . S
C3364 C3365 1.377 . S
C3365 H3349 0.930 . S
C3365 C3364 1.377 . S
C3365 C3366 1.379 . S
C3366 H3350 0.931 . S
C3366 C3360 1.383 . S
C3366 C3365 1.379 . S
H3367 C3361 0.959 . S
H3368 C3361 0.961 . S
H3369 C3361 0.960 . S
H3370 C3362 0.930 . S
H3371 C3363 0.929 . S
H3372 C3380 0.929 . S
H3373 C3382 0.930 . S
H3374 C3384 0.930 . S
H3375 C3387 0.929 . S
H3376 C3390 0.930 . S
H3377 C3392 0.960 . S
H3378 C3392 0.960 . S
H3379 C3392 0.960 . S
C3380 H3372 0.929 . S
C3380 C3381 1.377 . S
C3380 C3382 1.384 . S
C3381 C3380 1.377 . S
C3381 C3387 1.390 . S
C3382 H3373 0.930 . S
C3382 C3380 1.384 . S
C3382 C3383 1.372 . S
C3383 C3382 1.372 . S
C3383 C3384 1.400 . S
C3383 C3388 1.490 . S
C3384 H3374 0.930 . S
C3384 C3383 1.400 . S
C3384 C3387 1.386 . S
H3385 C3401 0.930 . S
H3386 C3402 0.931 . S
C3387 H3375 0.929 . S
C3387 C3381 1.390 . S
C3387 C3384 1.386 . S
C3388 C3383 1.490 . S
C3388 C3390 1.395 . S
C3388 C3391 1.403 . S
H3389 C3395 0.930 . S
C3390 H3376 0.930 . S
C3390 C3388 1.395 . S
C3390 C3393 1.403 . S
C3391 C3388 1.403 . S
C3391 C3392 1.524 . S
C3391 C3395 1.400 . S
C3392 H3377 0.960 . S
C3392 H3378 0.960 . S
C3392 H3379 0.960 . S
C3392 C3391 1.524 . S
C3393 C3390 1.403 . S
C3393 C3394 1.392 . S
C3393 C3397 1.495 . S
C3394 C3393 1.392 . S
C3394 C3395 1.385 . S
C3394 C3396 1.478 . S
C3395 H3389 0.930 . S
C3395 C3391 1.400 . S
C3395 C3394 1.385 . S
C3396 C3394 1.478 . S
C3396 C3398 1.381 . S
C3396 C3402 1.383 . S
C3397 C3393 1.495 . S
C3397 H3403 0.959 . S
C3397 H3404 0.961 . S
C3397 H3405 0.960 . S
C3398 C3396 1.381 . S
C3398 C3399 1.394 . S
C3398 H3406 0.930 . S
C3399 C3398 1.394 . S
C3399 C3400 1.383 . S
C3399 H3407 0.929 . S
C3400 C3399 1.383 . S
C3400 C3401 1.377 . S
C3401 H3385 0.930 . S
C3401 C3400 1.377 . S
C3401 C3402 1.379 . S
C3402 H3386 0.931 . S
C3402 C3396 1.383 . S
C3402 C3401 1.379 . S
H3403 C3397 0.959 . S
H3404 C3397 0.961 . S
H3405 C3397 0.960 . S
H3406 C3398 0.930 . S
H3407 C3399 0.929 . S
H3408 C3416 0.929 . S
H3409 C3418 0.930 . S
H3410 C3420 0.930 . S
H3411 C3423 0.929 . S
H3412 C3426 0.930 . S
H3413 C3428 0.960 . S
H3414 C3428 0.960 . S
H3415 C3428 0.960 . S
C3416 H3408 0.929 . S
C3416 C3417 1.377 . S
C3416 C3418 1.384 . S
C3417 C3416 1.377 . S
C3417 C3423 1.390 . S
C3418 H3409 0.930 . S
C3418 C3416 1.384 . S
C3418 C3419 1.372 . S
C3419 C3418 1.372 . S
C3419 C3420 1.400 . S
C3419 C3424 1.490 . S
C3420 H3410 0.930 . S
C3420 C3419 1.400 . S
C3420 C3423 1.386 . S
H3421 C3437 0.930 . S
H3422 C3438 0.931 . S
C3423 H3411 0.929 . S
C3423 C3417 1.390 . S
C3423 C3420 1.386 . S
C3424 C3419 1.490 . S
C3424 C3426 1.395 . S
C3424 C3427 1.403 . S
H3425 C3431 0.930 . S
C3426 H3412 0.930 . S
C3426 C3424 1.395 . S
C3426 C3429 1.403 . S
C3427 C3424 1.403 . S
C3427 C3428 1.524 . S
C3427 C3431 1.400 . S
C3428 H3413 0.960 . S
C3428 H3414 0.960 . S
C3428 H3415 0.960 . S
C3428 C3427 1.524 . S
C3429 C3426 1.403 . S
C3429 C3430 1.392 . S
C3429 C3433 1.495 . S
C3430 C3429 1.392 . S
C3430 C3431 1.385 . S
C3430 C3432 1.478 . S
C3431 H3425 0.930 . S
C3431 C3427 1.400 . S
C3431 C3430 1.385 . S
C3432 C3430 1.478 . S
C3432 C3434 1.381 . S
C3432 C3438 1.383 . S
C3433 C3429 1.495 . S
C3433 H3439 0.959 . S
C3433 H3440 0.961 . S
C3433 H3441 0.960 . S
C3434 C3432 1.381 . S
C3434 C3435 1.394 . S
C3434 H3442 0.930 . S
C3435 C3434 1.394 . S
C3435 C3436 1.383 . S
C3435 H3443 0.929 . S
C3436 C3435 1.383 . S
C3436 C3437 1.377 . S
C3437 H3421 0.930 . S
C3437 C3436 1.377 . S
C3437 C3438 1.379 . S
C3438 H3422 0.931 . S
C3438 C3432 1.383 . S
C3438 C3437 1.379 . S
H3439 C3433 0.959 . S
H3440 C3433 0.961 . S
H3441 C3433 0.960 . S
H3442 C3434 0.930 . S
H3443 C3435 0.929 . S
H3444 C3452 0.929 . S
H3445 C3454 0.930 . S
H3446 C3456 0.930 . S
H3447 C3459 0.929 . S
H3448 C3462 0.930 . S
H3449 C3464 0.960 . S
H3450 C3464 0.960 . S
H3451 C3464 0.960 . S
C3452 H3444 0.929 . S
C3452 C3453 1.377 . S
C3452 C3454 1.384 . S
C3453 C3452 1.377 . S
C3453 C3459 1.390 . S
C3454 H3445 0.930 . S
C3454 C3452 1.384 . S
C3454 C3455 1.372 . S
C3455 C3454 1.372 . S
C3455 C3456 1.400 . S
C3455 C3460 1.490 . S
C3456 H3446 0.930 . S
C3456 C3455 1.400 . S
C3456 C3459 1.386 . S
H3457 C3473 0.930 . S
H3458 C3474 0.931 . S
C3459 H3447 0.929 . S
C3459 C3453 1.390 . S
C3459 C3456 1.386 . S
C3460 C3455 1.490 . S
C3460 C3462 1.395 . S
C3460 C3463 1.403 . S
H3461 C3467 0.930 . S
C3462 H3448 0.930 . S
C3462 C3460 1.395 . S
C3462 C3465 1.403 . S
C3463 C3460 1.403 . S
C3463 C3464 1.524 . S
C3463 C3467 1.400 . S
C3464 H3449 0.960 . S
C3464 H3450 0.960 . S
C3464 H3451 0.960 . S
C3464 C3463 1.524 . S
C3465 C3462 1.403 . S
C3465 C3466 1.392 . S
C3465 C3469 1.495 . S
C3466 C3465 1.392 . S
C3466 C3467 1.385 . S
C3466 C3468 1.478 . S
C3467 H3461 0.930 . S
C3467 C3463 1.400 . S
C3467 C3466 1.385 . S
C3468 C3466 1.478 . S
C3468 C3470 1.381 . S
C3468 C3474 1.383 . S
C3469 C3465 1.495 . S
C3469 H3475 0.959 . S
C3469 H3476 0.961 . S
C3469 H3477 0.960 . S
C3470 C3468 1.381 . S
C3470 C3471 1.394 . S
C3470 H3478 0.930 . S
C3471 C3470 1.394 . S
C3471 C3472 1.383 . S
C3471 H3479 0.929 . S
C3472 C3471 1.383 . S
C3472 C3473 1.377 . S
C3473 H3457 0.930 . S
C3473 C3472 1.377 . S
C3473 C3474 1.379 . S
C3474 H3458 0.931 . S
C3474 C3468 1.383 . S
C3474 C3473 1.379 . S
H3475 C3469 0.959 . S
H3476 C3469 0.961 . S
H3477 C3469 0.960 . S
H3478 C3470 0.930 . S
H3479 C3471 0.929 . S
H3480 C3488 0.929 . S
H3481 C3490 0.930 . S
H3482 C3492 0.930 . S
H3483 C3495 0.929 . S
H3484 C3498 0.930 . S
H3485 C3500 0.960 . S
H3486 C3500 0.960 . S
H3487 C3500 0.960 . S
C3488 H3480 0.929 . S
C3488 C3489 1.377 . S
C3488 C3490 1.384 . S
C3489 C3488 1.377 . S
C3489 C3495 1.390 . S
C3490 H3481 0.930 . S
C3490 C3488 1.384 . S
C3490 C3491 1.372 . S
C3491 C3490 1.372 . S
C3491 C3492 1.400 . S
C3491 C3496 1.490 . S
C3492 H3482 0.930 . S
C3492 C3491 1.400 . S
C3492 C3495 1.386 . S
H3493 C3509 0.930 . S
H3494 C3510 0.931 . S
C3495 H3483 0.929 . S
C3495 C3489 1.390 . S
C3495 C3492 1.386 . S
C3496 C3491 1.490 . S
C3496 C3498 1.395 . S
C3496 C3499 1.403 . S
H3497 C3503 0.930 . S
C3498 H3484 0.930 . S
C3498 C3496 1.395 . S
C3498 C3501 1.403 . S
C3499 C3496 1.403 . S
C3499 C3500 1.524 . S
C3499 C3503 1.400 . S
C3500 H3485 0.960 . S
C3500 H3486 0.960 . S
C3500 H3487 0.960 . S
C3500 C3499 1.524 . S
C3501 C3498 1.403 . S
C3501 C3502 1.392 . S
C3501 C3505 1.495 . S
C3502 C3501 1.392 . S
C3502 C3503 1.385 . S
C3502 C3504 1.478 . S
C3503 H3497 0.930 . S
C3503 C3499 1.400 . S
C3503 C3502 1.385 . S
C3504 C3502 1.478 . S
C3504 C3506 1.381 . S
C3504 C3510 1.383 . S
C3505 C3501 1.495 . S
C3505 H3511 0.959 . S
C3505 H3512 0.961 . S
C3505 H3513 0.960 . S
C3506 C3504 1.381 . S
C3506 C3507 1.394 . S
C3506 H3514 0.930 . S
C3507 C3506 1.394 . S
C3507 C3508 1.383 . S
C3507 H3515 0.929 . S
C3508 C3507 1.383 . S
C3508 C3509 1.377 . S
C3509 H3493 0.930 . S
C3509 C3508 1.377 . S
C3509 C3510 1.379 . S
C3510 H3494 0.931 . S
C3510 C3504 1.383 . S
C3510 C3509 1.379 . S
H3511 C3505 0.959 . S
H3512 C3505 0.961 . S
H3513 C3505 0.960 . S
H3514 C3506 0.930 . S
H3515 C3507 0.929 . S
H3516 C3524 0.929 . S
H3517 C3526 0.930 . S
H3518 C3528 0.930 . S
H3519 C3531 0.929 . S
H3520 C3534 0.930 . S
H3521 C3536 0.960 . S
H3522 C3536 0.960 . S
H3523 C3536 0.960 . S
C3524 H3516 0.929 . S
C3524 C3525 1.377 . S
C3524 C3526 1.384 . S
C3525 C3524 1.377 . S
C3525 C3531 1.390 . S
C3526 H3517 0.930 . S
C3526 C3524 1.384 . S
C3526 C3527 1.372 . S
C3527 C3526 1.372 . S
C3527 C3528 1.400 . S
C3527 C3532 1.490 . S
C3528 H3518 0.930 . S
C3528 C3527 1.400 . S
C3528 C3531 1.386 . S
H3529 C3545 0.930 . S
H3530 C3546 0.931 . S
C3531 H3519 0.929 . S
C3531 C3525 1.390 . S
C3531 C3528 1.386 . S
C3532 C3527 1.490 . S
C3532 C3534 1.395 . S
C3532 C3535 1.403 . S
H3533 C3539 0.930 . S
C3534 H3520 0.930 . S
C3534 C3532 1.395 . S
C3534 C3537 1.403 . S
C3535 C3532 1.403 . S
C3535 C3536 1.524 . S
C3535 C3539 1.400 . S
C3536 H3521 0.960 . S
C3536 H3522 0.960 . S
C3536 H3523 0.960 . S
C3536 C3535 1.524 . S
C3537 C3534 1.403 . S
C3537 C3538 1.392 . S
C3537 C3541 1.495 . S
C3538 C3537 1.392 . S
C3538 C3539 1.385 . S
C3538 C3540 1.478 . S
C3539 H3533 0.930 . S
C3539 C3535 1.400 . S
C3539 C3538 1.385 . S
C3540 C3538 1.478 . S
C3540 C3542 1.381 . S
C3540 C3546 1.383 . S
C3541 C3537 1.495 . S
C3541 H3547 0.959 . S
C3541 H3548 0.961 . S
C3541 H3549 0.960 . S
C3542 C3540 1.381 . S
C3542 C3543 1.394 . S
C3542 H3550 0.930 . S
C3543 C3542 1.394 . S
C3543 C3544 1.383 . S
C3543 H3551 0.929 . S
C3544 C3543 1.383 . S
C3544 C3545 1.377 . S
C3545 H3529 0.930 . S
C3545 C3544 1.377 . S
C3545 C3546 1.379 . S
C3546 H3530 0.931 . S
C3546 C3540 1.383 . S
C3546 C3545 1.379 . S
H3547 C3541 0.959 . S
H3548 C3541 0.961 . S
H3549 C3541 0.960 . S
H3550 C3542 0.930 . S
H3551 C3543 0.929 . S
H3552 C3560 0.929 . S
H3553 C3562 0.930 . S
H3554 C3564 0.930 . S
H3555 C3567 0.929 . S
H3556 C3570 0.930 . S
H3557 C3572 0.960 . S
H3558 C3572 0.960 . S
H3559 C3572 0.960 . S
C3560 H3552 0.929 . S
C3560 C3561 1.377 . S
C3560 C3562 1.384 . S
C3561 C3560 1.377 . S
C3561 C3567 1.390 . S
C3562 H3553 0.930 . S
C3562 C3560 1.384 . S
C3562 C3563 1.372 . S
C3563 C3562 1.372 . S
C3563 C3564 1.400 . S
C3563 C3568 1.490 . S
C3564 H3554 0.930 . S
C3564 C3563 1.400 . S
C3564 C3567 1.386 . S
H3565 C3581 0.930 . S
H3566 C3582 0.931 . S
C3567 H3555 0.929 . S
C3567 C3561 1.390 . S
C3567 C3564 1.386 . S
C3568 C3563 1.490 . S
C3568 C3570 1.395 . S
C3568 C3571 1.403 . S
H3569 C3575 0.930 . S
C3570 H3556 0.930 . S
C3570 C3568 1.395 . S
C3570 C3573 1.403 . S
C3571 C3568 1.403 . S
C3571 C3572 1.524 . S
C3571 C3575 1.400 . S
C3572 H3557 0.960 . S
C3572 H3558 0.960 . S
C3572 H3559 0.960 . S
C3572 C3571 1.524 . S
C3573 C3570 1.403 . S
C3573 C3574 1.392 . S
C3573 C3577 1.495 . S
C3574 C3573 1.392 . S
C3574 C3575 1.385 . S
C3574 C3576 1.478 . S
C3575 H3569 0.930 . S
C3575 C3571 1.400 . S
C3575 C3574 1.385 . S
C3576 C3574 1.478 . S
C3576 C3578 1.381 . S
C3576 C3582 1.383 . S
C3577 C3573 1.495 . S
C3577 H3583 0.959 . S
C3577 H3584 0.961 . S
C3577 H3585 0.960 . S
C3578 C3576 1.381 . S
C3578 C3579 1.394 . S
C3578 H3586 0.930 . S
C3579 C3578 1.394 . S
C3579 C3580 1.383 . S
C3579 H3587 0.929 . S
C3580 C3579 1.383 . S
C3580 C3581 1.377 . S
C3581 H3565 0.930 . S
C3581 C3580 1.377 . S
C3581 C3582 1.379 . S
C3582 H3566 0.931 . S
C3582 C3576 1.383 . S
C3582 C3581 1.379 . S
H3583 C3577 0.959 . S
H3584 C3577 0.961 . S
H3585 C3577 0.960 . S
H3586 C3578 0.930 . S
H3587 C3579 0.929 . S
H3588 C3596 0.929 . S
H3589 C3598 0.930 . S
H3590 C3600 0.930 . S
H3591 C3603 0.929 . S
H3592 C3606 0.930 . S
H3593 C3608 0.960 . S
H3594 C3608 0.960 . S
H3595 C3608 0.960 . S
C3596 H3588 0.929 . S
C3596 C3597 1.377 . S
C3596 C3598 1.384 . S
C3597 C3596 1.377 . S
C3597 C3603 1.390 . S
C3598 H3589 0.930 . S
C3598 C3596 1.384 . S
C3598 C3599 1.372 . S
C3599 C3598 1.372 . S
C3599 C3600 1.400 . S
C3599 C3604 1.490 . S
C3600 H3590 0.930 . S
C3600 C3599 1.400 . S
C3600 C3603 1.386 . S
H3601 C3617 0.930 . S
H3602 C3618 0.931 . S
C3603 H3591 0.929 . S
C3603 C3597 1.390 . S
C3603 C3600 1.386 . S
C3604 C3599 1.490 . S
C3604 C3606 1.395 . S
C3604 C3607 1.403 . S
H3605 C3611 0.930 . S
C3606 H3592 0.930 . S
C3606 C3604 1.395 . S
C3606 C3609 1.403 . S
C3607 C3604 1.403 . S
C3607 C3608 1.524 . S
C3607 C3611 1.400 . S
C3608 H3593 0.960 . S
C3608 H3594 0.960 . S
C3608 H3595 0.960 . S
C3608 C3607 1.524 . S
C3609 C3606 1.403 . S
C3609 C3610 1.392 . S
C3609 C3613 1.495 . S
C3610 C3609 1.392 . S
C3610 C3611 1.385 . S
C3610 C3612 1.478 . S
C3611 H3605 0.930 . S
C3611 C3607 1.400 . S
C3611 C3610 1.385 . S
C3612 C3610 1.478 . S
C3612 C3614 1.381 . S
C3612 C3618 1.383 . S
C3613 C3609 1.495 . S
C3613 H3619 0.959 . S
C3613 H3620 0.961 . S
C3613 H3621 0.960 . S
C3614 C3612 1.381 . S
C3614 C3615 1.394 . S
C3614 H3622 0.930 . S
C3615 C3614 1.394 . S
C3615 C3616 1.383 . S
C3615 H3623 0.929 . S
C3616 C3615 1.383 . S
C3616 C3617 1.377 . S
C3617 H3601 0.930 . S
C3617 C3616 1.377 . S
C3617 C3618 1.379 . S
C3618 H3602 0.931 . S
C3618 C3612 1.383 . S
C3618 C3617 1.379 . S
H3619 C3613 0.959 . S
H3620 C3613 0.961 . S
H3621 C3613 0.960 . S
H3622 C3614 0.930 . S
H3623 C3615 0.929 . S
H3624 C3632 0.929 . S
H3625 C3634 0.930 . S
H3626 C3636 0.930 . S
H3627 C3639 0.929 . S
H3628 C3642 0.930 . S
H3629 C3644 0.960 . S
H3630 C3644 0.960 . S
H3631 C3644 0.960 . S
C3632 H3624 0.929 . S
C3632 C3633 1.377 . S
C3632 C3634 1.384 . S
C3633 C3632 1.377 . S
C3633 C3639 1.390 . S
C3634 H3625 0.930 . S
C3634 C3632 1.384 . S
C3634 C3635 1.372 . S
C3635 C3634 1.372 . S
C3635 C3636 1.400 . S
C3635 C3640 1.490 . S
C3636 H3626 0.930 . S
C3636 C3635 1.400 . S
C3636 C3639 1.386 . S
H3637 C3653 0.930 . S
H3638 C3654 0.931 . S
C3639 H3627 0.929 . S
C3639 C3633 1.390 . S
C3639 C3636 1.386 . S
C3640 C3635 1.490 . S
C3640 C3642 1.395 . S
C3640 C3643 1.403 . S
H3641 C3647 0.930 . S
C3642 H3628 0.930 . S
C3642 C3640 1.395 . S
C3642 C3645 1.403 . S
C3643 C3640 1.403 . S
C3643 C3644 1.524 . S
C3643 C3647 1.400 . S
C3644 H3629 0.960 . S
C3644 H3630 0.960 . S
C3644 H3631 0.960 . S
C3644 C3643 1.524 . S
C3645 C3642 1.403 . S
C3645 C3646 1.392 . S
C3645 C3649 1.495 . S
C3646 C3645 1.392 . S
C3646 C3647 1.385 . S
C3646 C3648 1.478 . S
C3647 H3641 0.930 . S
C3647 C3643 1.400 . S
C3647 C3646 1.385 . S
C3648 C3646 1.478 . S
C3648 C3650 1.381 . S
C3648 C3654 1.383 . S
C3649 C3645 1.495 . S
C3649 H3655 0.959 . S
C3649 H3656 0.961 . S
C3649 H3657 0.960 . S
C3650 C3648 1.381 . S
C3650 C3651 1.394 . S
C3650 H3658 0.930 . S
C3651 C3650 1.394 . S
C3651 C3652 1.383 . S
C3651 H3659 0.929 . S
C3652 C3651 1.383 . S
C3652 C3653 1.377 . S
C3653 H3637 0.930 . S
C3653 C3652 1.377 . S
C3653 C3654 1.379 . S
C3654 H3638 0.931 . S
C3654 C3648 1.383 . S
C3654 C3653 1.379 . S
H3655 C3649 0.959 . S
H3656 C3649 0.961 . S
H3657 C3649 0.960 . S
H3658 C3650 0.930 . S
H3659 C3651 0.929 . S
H3660 C3668 0.929 . S
H3661 C3670 0.930 . S
H3662 C3672 0.930 . S
H3663 C3675 0.929 . S
H3664 C3678 0.930 . S
H3665 C3680 0.960 . S
H3666 C3680 0.960 . S
H3667 C3680 0.960 . S
C3668 H3660 0.929 . S
C3668 C3669 1.377 . S
C3668 C3670 1.384 . S
C3669 C3668 1.377 . S
C3669 C3675 1.390 . S
C3670 H3661 0.930 . S
C3670 C3668 1.384 . S
C3670 C3671 1.372 . S
C3671 C3670 1.372 . S
C3671 C3672 1.400 . S
C3671 C3676 1.490 . S
C3672 H3662 0.930 . S
C3672 C3671 1.400 . S
C3672 C3675 1.386 . S
H3673 C3689 0.930 . S
H3674 C3690 0.931 . S
C3675 H3663 0.929 . S
C3675 C3669 1.390 . S
C3675 C3672 1.386 . S
C3676 C3671 1.490 . S
C3676 C3678 1.395 . S
C3676 C3679 1.403 . S
H3677 C3683 0.930 . S
C3678 H3664 0.930 . S
C3678 C3676 1.395 . S
C3678 C3681 1.403 . S
C3679 C3676 1.403 . S
C3679 C3680 1.524 . S
C3679 C3683 1.400 . S
C3680 H3665 0.960 . S
C3680 H3666 0.960 . S
C3680 H3667 0.960 . S
C3680 C3679 1.524 . S
C3681 C3678 1.403 . S
C3681 C3682 1.392 . S
C3681 C3685 1.495 . S
C3682 C3681 1.392 . S
C3682 C3683 1.385 . S
C3682 C3684 1.478 . S
C3683 H3677 0.930 . S
C3683 C3679 1.400 . S
C3683 C3682 1.385 . S
C3684 C3682 1.478 . S
C3684 C3686 1.381 . S
C3684 C3690 1.383 . S
C3685 C3681 1.495 . S
C3685 H3691 0.959 . S
C3685 H3692 0.961 . S
C3685 H3693 0.960 . S
C3686 C3684 1.381 . S
C3686 C3687 1.394 . S
C3686 H3694 0.930 . S
C3687 C3686 1.394 . S
C3687 C3688 1.383 . S
C3687 H3695 0.929 . S
C3688 C3687 1.383 . S
C3688 C3689 1.377 . S
C3689 H3673 0.930 . S
C3689 C3688 1.377 . S
C3689 C3690 1.379 . S
C3690 H3674 0.931 . S
C3690 C3684 1.383 . S
C3690 C3689 1.379 . S
H3691 C3685 0.959 . S
H3692 C3685 0.961 . S
H3693 C3685 0.960 . S
H3694 C3686 0.930 . S
H3695 C3687 0.929 . S
H3696 C3704 0.929 . S
H3697 C3706 0.930 . S
H3698 C3708 0.930 . S
H3699 C3711 0.929 . S
H3700 C3714 0.930 . S
H3701 C3716 0.960 . S
H3702 C3716 0.960 . S
H3703 C3716 0.960 . S
C3704 H3696 0.929 . S
C3704 C3705 1.377 . S
C3704 C3706 1.384 . S
C3705 C3704 1.377 . S
C3705 C3711 1.390 . S
C3706 H3697 0.930 . S
C3706 C3704 1.384 . S
C3706 C3707 1.372 . S
C3707 C3706 1.372 . S
C3707 C3708 1.400 . S
C3707 C3712 1.490 . S
C3708 H3698 0.930 . S
C3708 C3707 1.400 . S
C3708 C3711 1.386 . S
H3709 C3725 0.930 . S
H3710 C3726 0.931 . S
C3711 H3699 0.929 . S
C3711 C3705 1.390 . S
C3711 C3708 1.386 . S
C3712 C3707 1.490 . S
C3712 C3714 1.395 . S
C3712 C3715 1.403 . S
H3713 C3719 0.930 . S
C3714 H3700 0.930 . S
C3714 C3712 1.395 . S
C3714 C3717 1.403 . S
C3715 C3712 1.403 . S
C3715 C3716 1.524 . S
C3715 C3719 1.400 . S
C3716 H3701 0.960 . S
C3716 H3702 0.960 . S
C3716 H3703 0.960 . S
C3716 C3715 1.524 . S
C3717 C3714 1.403 . S
C3717 C3718 1.392 . S
C3717 C3721 1.495 . S
C3718 C3717 1.392 . S
C3718 C3719 1.385 . S
C3718 C3720 1.478 . S
C3719 H3713 0.930 . S
C3719 C3715 1.400 . S
C3719 C3718 1.385 . S
C3720 C3718 1.478 . S
C3720 C3722 1.381 . S
C3720 C3726 1.383 . S
C3721 C3717 1.495 . S
C3721 H3727 0.959 . S
C3721 H3728 0.961 . S
C3721 H3729 0.960 . S
C3722 C3720 1.381 . S
C3722 C3723 1.394 . S
C3722 H3730 0.930 . S
C3723 C3722 1.394 . S
C3723 C3724 1.383 . S
C3723 H3731 0.929 . S
C3724 C3723 1.383 . S
C3724 C3725 1.377 . S
C3725 H3709 0.930 . S
C3725 C3724 1.377 . S
C3725 C3726 1.379 . S
C3726 H3710 0.931 . S
C3726 C3720 1.383 . S
C3726 C3725 1.379 . S
H3727 C3721 0.959 . S
H3728 C3721 0.961 . S
H3729 C3721 0.960 . S
H3730 C3722 0.930 . S
H3731 C3723 0.929 . S
H3732 C3740 0.929 . S
H3733 C3742 0.930 . S
H3734 C3744 0.930 . S
H3735 C3747 0.929 . S
H3736 C3750 0.930 . S
H3737 C3752 0.960 . S
H3738 C3752 0.960 . S
H3739 C3752 0.960 . S
C3740 H3732 0.929 . S
C3740 C3741 1.377 . S
C3740 C3742 1.384 . S
C3741 C3740 1.377 . S
C3741 C3747 1.390 . S
C3742 H3733 0.930 . S
C3742 C3740 1.384 . S
C3742 C3743 1.372 . S
C3743 C3742 1.372 . S
C3743 C3744 1.400 . S
C3743 C3748 1.490 . S
C3744 H3734 0.930 . S
C3744 C3743 1.400 . S
C3744 C3747 1.386 . S
H3745 C3761 0.930 . S
H3746 C3762 0.931 . S
C3747 H3735 0.929 . S
C3747 C3741 1.390 . S
C3747 C3744 1.386 . S
C3748 C3743 1.490 . S
C3748 C3750 1.395 . S
C3748 C3751 1.403 . S
H3749 C3755 0.930 . S
C3750 H3736 0.930 . S
C3750 C3748 1.395 . S
C3750 C3753 1.403 . S
C3751 C3748 1.403 . S
C3751 C3752 1.524 . S
C3751 C3755 1.400 . S
C3752 H3737 0.960 . S
C3752 H3738 0.960 . S
C3752 H3739 0.960 . S
C3752 C3751 1.524 . S
C3753 C3750 1.403 . S
C3753 C3754 1.392 . S
C3753 C3757 1.495 . S
C3754 C3753 1.392 . S
C3754 C3755 1.385 . S
C3754 C3756 1.478 . S
C3755 H3749 0.930 . S
C3755 C3751 1.400 . S
C3755 C3754 1.385 . S
C3756 C3754 1.478 . S
C3756 C3758 1.381 . S
C3756 C3762 1.383 . S
C3757 C3753 1.495 . S
C3757 H3763 0.959 . S
C3757 H3764 0.961 . S
C3757 H3765 0.960 . S
C3758 C3756 1.381 . S
C3758 C3759 1.394 . S
C3758 H3766 0.930 . S
C3759 C3758 1.394 . S
C3759 C3760 1.383 . S
C3759 H3767 0.929 . S
C3760 C3759 1.383 . S
C3760 C3761 1.377 . S
C3761 H3745 0.930 . S
C3761 C3760 1.377 . S
C3761 C3762 1.379 . S
C3762 H3746 0.931 . S
C3762 C3756 1.383 . S
C3762 C3761 1.379 . S
H3763 C3757 0.959 . S
H3764 C3757 0.961 . S
H3765 C3757 0.960 . S
H3766 C3758 0.930 . S
H3767 C3759 0.929 . S
H3768 C3776 0.929 . S
H3769 C3778 0.930 . S
H3770 C3780 0.930 . S
H3771 C3783 0.929 . S
H3772 C3786 0.930 . S
H3773 C3788 0.960 . S
H3774 C3788 0.960 . S
H3775 C3788 0.960 . S
C3776 H3768 0.929 . S
C3776 C3777 1.377 . S
C3776 C3778 1.384 . S
C3777 C3776 1.377 . S
C3777 C3783 1.390 . S
C3778 H3769 0.930 . S
C3778 C3776 1.384 . S
C3778 C3779 1.372 . S
C3779 C3778 1.372 . S
C3779 C3780 1.400 . S
C3779 C3784 1.490 . S
C3780 H3770 0.930 . S
C3780 C3779 1.400 . S
C3780 C3783 1.386 . S
H3781 C3797 0.930 . S
H3782 C3798 0.931 . S
C3783 H3771 0.929 . S
C3783 C3777 1.390 . S
C3783 C3780 1.386 . S
C3784 C3779 1.490 . S
C3784 C3786 1.395 . S
C3784 C3787 1.403 . S
H3785 C3791 0.930 . S
C3786 H3772 0.930 . S
C3786 C3784 1.395 . S
C3786 C3789 1.403 . S
C3787 C3784 1.403 . S
C3787 C3788 1.524 . S
C3787 C3791 1.400 . S
C3788 H3773 0.960 . S
C3788 H3774 0.960 . S
C3788 H3775 0.960 . S
C3788 C3787 1.524 . S
C3789 C3786 1.403 . S
C3789 C3790 1.392 . S
C3789 C3793 1.495 . S
C3790 C3789 1.392 . S
C3790 C3791 1.385 . S
C3790 C3792 1.478 . S
C3791 H3785 0.930 . S
C3791 C3787 1.400 . S
C3791 C3790 1.385 . S
C3792 C3790 1.478 . S
C3792 C3794 1.381 . S
C3792 C3798 1.383 . S
C3793 C3789 1.495 . S
C3793 H3799 0.959 . S
C3793 H3800 0.961 . S
C3793 H3801 0.960 . S
C3794 C3792 1.381 . S
C3794 C3795 1.394 . S
C3794 H3802 0.930 . S
C3795 C3794 1.394 . S
C3795 C3796 1.383 . S
C3795 H3803 0.929 . S
C3796 C3795 1.383 . S
C3796 C3797 1.377 . S
C3797 H3781 0.930 . S
C3797 C3796 1.377 . S
C3797 C3798 1.379 . S
C3798 H3782 0.931 . S
C3798 C3792 1.383 . S
C3798 C3797 1.379 . S
H3799 C3793 0.959 . S
H3800 C3793 0.961 . S
H3801 C3793 0.960 . S
H3802 C3794 0.930 . S
H3803 C3795 0.929 . S
H3804 C3812 0.929 . S
H3805 C3814 0.930 . S
H3806 C3816 0.930 . S
H3807 C3819 0.929 . S
H3808 C3822 0.930 . S
H3809 C3824 0.960 . S
H3810 C3824 0.960 . S
H3811 C3824 0.960 . S
C3812 H3804 0.929 . S
C3812 C3813 1.377 . S
C3812 C3814 1.384 . S
C3813 C3812 1.377 . S
C3813 C3819 1.390 . S
C3814 H3805 0.930 . S
C3814 C3812 1.384 . S
C3814 C3815 1.372 . S
C3815 C3814 1.372 . S
C3815 C3816 1.400 . S
C3815 C3820 1.490 . S
C3816 H3806 0.930 . S
C3816 C3815 1.400 . S
C3816 C3819 1.386 . S
H3817 C3833 0.930 . S
H3818 C3834 0.931 . S
C3819 H3807 0.929 . S
C3819 C3813 1.390 . S
C3819 C3816 1.386 . S
C3820 C3815 1.490 . S
C3820 C3822 1.395 . S
C3820 C3823 1.403 . S
H3821 C3827 0.930 . S
C3822 H3808 0.930 . S
C3822 C3820 1.395 . S
C3822 C3825 1.403 . S
C3823 C3820 1.403 . S
C3823 C3824 1.524 . S
C3823 C3827 1.400 . S
C3824 H3809 0.960 . S
C3824 H3810 0.960 . S
C3824 H3811 0.960 . S
C3824 C3823 1.524 . S
C3825 C3822 1.403 . S
C3825 C3826 1.392 . S
C3825 C3829 1.495 . S
C3826 C3825 1.392 . S
C3826 C3827 1.385 . S
C3826 C3828 1.478 . S
C3827 H3821 0.930 . S
C3827 C3823 1.400 . S
C3827 C3826 1.385 . S
C3828 C3826 1.478 . S
C3828 C3830 1.381 . S
C3828 C3834 1.383 . S
C3829 C3825 1.495 . S
C3829 H3835 0.959 . S
C3829 H3836 0.961 . S
C3829 H3837 0.960 . S
C3830 C3828 1.381 . S
C3830 C3831 1.394 . S
C3830 H3838 0.930 . S
C3831 C3830 1.394 . S
C3831 C3832 1.383 . S
C3831 H3839 0.929 . S
C3832 C3831 1.383 . S
C3832 C3833 1.377 . S
C3833 H3817 0.930 . S
C3833 C3832 1.377 . S
C3833 C3834 1.379 . S
C3834 H3818 0.931 . S
C3834 C3828 1.383 . S
C3834 C3833 1.379 . S
H3835 C3829 0.959 . S
H3836 C3829 0.961 . S
H3837 C3829 0.960 . S
H3838 C3830 0.930 . S
H3839 C3831 0.929 . S
H3840 C3848 0.929 . S
H3841 C3850 0.930 . S
H3842 C3852 0.930 . S
H3843 C3855 0.929 . S
H3844 C3858 0.930 . S
H3845 C3860 0.960 . S
H3846 C3860 0.960 . S
H3847 C3860 0.960 . S
C3848 H3840 0.929 . S
C3848 C3849 1.377 . S
C3848 C3850 1.384 . S
C3849 C3848 1.377 . S
C3849 C3855 1.390 . S
C3850 H3841 0.930 . S
C3850 C3848 1.384 . S
C3850 C3851 1.372 . S
C3851 C3850 1.372 . S
C3851 C3852 1.400 . S
C3851 C3856 1.490 . S
C3852 H3842 0.930 . S
C3852 C3851 1.400 . S
C3852 C3855 1.386 . S
H3853 C3869 0.930 . S
H3854 C3870 0.931 . S
C3855 H3843 0.929 . S
C3855 C3849 1.390 . S
C3855 C3852 1.386 . S
C3856 C3851 1.490 . S
C3856 C3858 1.395 . S
C3856 C3859 1.403 . S
H3857 C3863 0.930 . S
C3858 H3844 0.930 . S
C3858 C3856 1.395 . S
C3858 C3861 1.403 . S
C3859 C3856 1.403 . S
C3859 C3860 1.524 . S
C3859 C3863 1.400 . S
C3860 H3845 0.960 . S
C3860 H3846 0.960 . S
C3860 H3847 0.960 . S
C3860 C3859 1.524 . S
C3861 C3858 1.403 . S
C3861 C3862 1.392 . S
C3861 C3865 1.495 . S
C3862 C3861 1.392 . S
C3862 C3863 1.385 . S
C3862 C3864 1.478 . S
C3863 H3857 0.930 . S
C3863 C3859 1.400 . S
C3863 C3862 1.385 . S
C3864 C3862 1.478 . S
C3864 C3866 1.381 . S
C3864 C3870 1.383 . S
C3865 C3861 1.495 . S
C3865 H3871 0.959 . S
C3865 H3872 0.961 . S
C3865 H3873 0.960 . S
C3866 C3864 1.381 . S
C3866 C3867 1.394 . S
C3866 H3874 0.930 . S
C3867 C3866 1.394 . S
C3867 C3868 1.383 . S
C3867 H3875 0.929 . S
C3868 C3867 1.383 . S
C3868 C3869 1.377 . S
C3869 H3853 0.930 . S
C3869 C3868 1.377 . S
C3869 C3870 1.379 . S
C3870 H3854 0.931 . S
C3870 C3864 1.383 . S
C3870 C3869 1.379 . S
H3871 C3865 0.959 . S
H3872 C3865 0.961 . S
H3873 C3865 0.960 . S
H3874 C3866 0.930 . S
H3875 C3867 0.929 . S
H3876 C3884 0.929 . S
H3877 C3886 0.930 . S
H3878 C3888 0.930 . S
H3879 C3891 0.929 . S
H3880 C3894 0.930 . S
H3881 C3896 0.960 . S
H3882 C3896 0.960 . S
H3883 C3896 0.960 . S
C3884 H3876 0.929 . S
C3884 C3885 1.377 . S
C3884 C3886 1.384 . S
C3885 C3884 1.377 . S
C3885 C3891 1.390 . S
C3886 H3877 0.930 . S
C3886 C3884 1.384 . S
C3886 C3887 1.372 . S
C3887 C3886 1.372 . S
C3887 C3888 1.400 . S
C3887 C3892 1.490 . S
C3888 H3878 0.930 . S
C3888 C3887 1.400 . S
C3888 C3891 1.386 . S
H3889 C3905 0.930 . S
H3890 C3906 0.931 . S
C3891 H3879 0.929 . S
C3891 C3885 1.390 . S
C3891 C3888 1.386 . S
C3892 C3887 1.490 . S
C3892 C3894 1.395 . S
C3892 C3895 1.403 . S
H3893 C3899 0.930 . S
C3894 H3880 0.930 . S
C3894 C3892 1.395 . S
C3894 C3897 1.403 . S
C3895 C3892 1.403 . S
C3895 C3896 1.524 . S
C3895 C3899 1.400 . S
C3896 H3881 0.960 . S
C3896 H3882 0.960 . S
C3896 H3883 0.960 . S
C3896 C3895 1.524 . S
C3897 C3894 1.403 . S
C3897 C3898 1.392 . S
C3897 C3901 1.495 . S
C3898 C3897 1.392 . S
C3898 C3899 1.385 . S
C3898 C3900 1.478 . S
C3899 H3893 0.930 . S
C3899 C3895 1.400 . S
C3899 C3898 1.385 . S
C3900 C3898 1.478 . S
C3900 C3902 1.381 . S
C3900 C3906 1.383 . S
C3901 C3897 1.495 . S
C3901 H3907 0.959 . S
C3901 H3908 0.961 . S
C3901 H3909 0.960 . S
C3902 C3900 1.381 . S
C3902 C3903 1.394 . S
C3902 H3910 0.930 . S
C3903 C3902 1.394 . S
C3903 C3904 1.383 . S
C3903 H3911 0.929 . S
C3904 C3903 1.383 . S
C3904 C3905 1.377 . S
C3905 H3889 0.930 . S
C3905 C3904 1.377 . S
C3905 C3906 1.379 . S
C3906 H3890 0.931 . S
C3906 C3900 1.383 . S
C3906 C3905 1.379 . S
H3907 C3901 0.959 . S
H3908 C3901 0.961 . S
H3909 C3901 0.960 . S
H3910 C3902 0.930 . S
H3911 C3903 0.929 . S
H3912 C3920 0.929 . S
H3913 C3922 0.930 . S
H3914 C3924 0.930 . S
H3915 C3927 0.929 . S
H3916 C3930 0.930 . S
H3917 C3932 0.960 . S
H3918 C3932 0.960 . S
H3919 C3932 0.960 . S
C3920 H3912 0.929 . S
C3920 C3921 1.377 . S
C3920 C3922 1.384 . S
C3921 C3920 1.377 . S
C3921 C3927 1.390 . S
C3922 H3913 0.930 . S
C3922 C3920 1.384 . S
C3922 C3923 1.372 . S
C3923 C3922 1.372 . S
C3923 C3924 1.400 . S
C3923 C3928 1.490 . S
C3924 H3914 0.930 . S
C3924 C3923 1.400 . S
C3924 C3927 1.386 . S
H3925 C3941 0.930 . S
H3926 C3942 0.931 . S
C3927 H3915 0.929 . S
C3927 C3921 1.390 . S
C3927 C3924 1.386 . S
C3928 C3923 1.490 . S
C3928 C3930 1.395 . S
C3928 C3931 1.403 . S
H3929 C3935 0.930 . S
C3930 H3916 0.930 . S
C3930 C3928 1.395 . S
C3930 C3933 1.403 . S
C3931 C3928 1.403 . S
C3931 C3932 1.524 . S
C3931 C3935 1.400 . S
C3932 H3917 0.960 . S
C3932 H3918 0.960 . S
C3932 H3919 0.960 . S
C3932 C3931 1.524 . S
C3933 C3930 1.403 . S
C3933 C3934 1.392 . S
C3933 C3937 1.495 . S
C3934 C3933 1.392 . S
C3934 C3935 1.385 . S
C3934 C3936 1.478 . S
C3935 H3929 0.930 . S
C3935 C3931 1.400 . S
C3935 C3934 1.385 . S
C3936 C3934 1.478 . S
C3936 C3938 1.381 . S
C3936 C3942 1.383 . S
C3937 C3933 1.495 . S
C3937 H3943 0.959 . S
C3937 H3944 0.961 . S
C3937 H3945 0.960 . S
C3938 C3936 1.381 . S
C3938 C3939 1.394 . S
C3938 H3946 0.930 . S
C3939 C3938 1.394 . S
C3939 C3940 1.383 . S
C3939 H3947 0.929 . S
C3940 C3939 1.383 . S
C3940 C3941 1.377 . S
C3941 H3925 0.930 . S
C3941 C3940 1.377 . S
C3941 C3942 1.379 . S
C3942 H3926 0.931 . S
C3942 C3936 1.383 . S
C3942 C3941 1.379 . S
H3943 C3937 0.959 . S
H3944 C3937 0.961 . S
H3945 C3937 0.960 . S
H3946 C3938 0.930 . S
H3947 C3939 0.929 . S
H3948 C3956 0.929 . S
H3949 C3958 0.930 . S
H3950 C3960 0.930 . S
H3951 C3963 0.929 . S
H3952 C3966 0.930 . S
H3953 C3968 0.960 . S
H3954 C3968 0.960 . S
H3955 C3968 0.960 . S
C3956 H3948 0.929 . S
C3956 C3957 1.377 . S
C3956 C3958 1.384 . S
C3957 C3956 1.377 . S
C3957 C3963 1.390 . S
C3958 H3949 0.930 . S
C3958 C3956 1.384 . S
C3958 C3959 1.372 . S
C3959 C3958 1.372 . S
C3959 C3960 1.400 . S
C3959 C3964 1.490 . S
C3960 H3950 0.930 . S
C3960 C3959 1.400 . S
C3960 C3963 1.386 . S
H3961 C3977 0.930 . S
H3962 C3978 0.931 . S
C3963 H3951 0.929 . S
C3963 C3957 1.390 . S
C3963 C3960 1.386 . S
C3964 C3959 1.490 . S
C3964 C3966 1.395 . S
C3964 C3967 1.403 . S
H3965 C3971 0.930 . S
C3966 H3952 0.930 . S
C3966 C3964 1.395 . S
C3966 C3969 1.403 . S
C3967 C3964 1.403 . S
C3967 C3968 1.524 . S
C3967 C3971 1.400 . S
C3968 H3953 0.960 . S
C3968 H3954 0.960 . S
C3968 H3955 0.960 . S
C3968 C3967 1.524 . S
C3969 C3966 1.403 . S
C3969 C3970 1.392 . S
C3969 C3973 1.495 . S
C3970 C3969 1.392 . S
C3970 C3971 1.385 . S
C3970 C3972 1.478 . S
C3971 H3965 0.930 . S
C3971 C3967 1.400 . S
C3971 C3970 1.385 . S
C3972 C3970 1.478 . S
C3972 C3974 1.381 . S
C3972 C3978 1.383 . S
C3973 C3969 1.495 . S
C3973 H3979 0.959 . S
C3973 H3980 0.961 . S
C3973 H3981 0.960 . S
C3974 C3972 1.381 . S
C3974 C3975 1.394 . S
C3974 H3982 0.930 . S
C3975 C3974 1.394 . S
C3975 C3976 1.383 . S
C3975 H3983 0.929 . S
C3976 C3975 1.383 . S
C3976 C3977 1.377 . S
C3977 H3961 0.930 . S
C3977 C3976 1.377 . S
C3977 C3978 1.379 . S
C3978 H3962 0.931 . S
C3978 C3972 1.383 . S
C3978 C3977 1.379 . S
H3979 C3973 0.959 . S
H3980 C3973 0.961 . S
H3981 C3973 0.960 . S
H3982 C3974 0.930 . S
H3983 C3975 0.929 . S
H3984 C3992 0.929 . S
H3985 C3994 0.930 . S
H3986 C3996 0.930 . S
H3987 C3999 0.929 . S
H3988 C4002 0.930 . S
H3989 C4004 0.960 . S
H3990 C4004 0.960 . S
H3991 C4004 0.960 . S
C3992 H3984 0.929 . S
C3992 C3993 1.377 . S
C3992 C3994 1.384 . S
C3993 C3992 1.377 . S
C3993 C3999 1.390 . S
C3994 H3985 0.930 . S
C3994 C3992 1.384 . S
C3994 C3995 1.372 . S
C3995 C3994 1.372 . S
C3995 C3996 1.400 . S
C3995 C4000 1.490 . S
C3996 H3986 0.930 . S
C3996 C3995 1.400 . S
C3996 C3999 1.386 . S
H3997 C4013 0.930 . S
H3998 C4014 0.931 . S
C3999 H3987 0.929 . S
C3999 C3993 1.390 . S
C3999 C3996 1.386 . S
C4000 C3995 1.490 . S
C4000 C4002 1.395 . S
C4000 C4003 1.403 . S
H4001 C4007 0.930 . S
C4002 H3988 0.930 . S
C4002 C4000 1.395 . S
C4002 C4005 1.403 . S
C4003 C4000 1.403 . S
C4003 C4004 1.524 . S
C4003 C4007 1.400 . S
C4004 H3989 0.960 . S
C4004 H3990 0.960 . S
C4004 H3991 0.960 . S
C4004 C4003 1.524 . S
C4005 C4002 1.403 . S
C4005 C4006 1.392 . S
C4005 C4009 1.495 . S
C4006 C4005 1.392 . S
C4006 C4007 1.385 . S
C4006 C4008 1.478 . S
C4007 H4001 0.930 . S
C4007 C4003 1.400 . S
C4007 C4006 1.385 . S
C4008 C4006 1.478 . S
C4008 C4010 1.381 . S
C4008 C4014 1.383 . S
C4009 C4005 1.495 . S
C4009 H4015 0.959 . S
C4009 H4016 0.961 . S
C4009 H4017 0.960 . S
C4010 C4008 1.381 . S
C4010 C4011 1.394 . S
C4010 H4018 0.930 . S
C4011 C4010 1.394 . S
C4011 C4012 1.383 . S
C4011 H4019 0.929 . S
C4012 C4011 1.383 . S
C4012 C4013 1.377 . S
C4013 H3997 0.930 . S
C4013 C4012 1.377 . S
C4013 C4014 1.379 . S
C4014 H3998 0.931 . S
C4014 C4008 1.383 . S
C4014 C4013 1.379 . S
H4015 C4009 0.959 . S
H4016 C4009 0.961 . S
H4017 C4009 0.960 . S
H4018 C4010 0.930 . S
H4019 C4011 0.929 . S
H4020 C4028 0.929 . S
H4021 C4030 0.930 . S
H4022 C4032 0.930 . S
H4023 C4035 0.929 . S
H4024 C4038 0.930 . S
H4025 C4040 0.960 . S
H4026 C4040 0.960 . S
H4027 C4040 0.960 . S
C4028 H4020 0.929 . S
C4028 C4029 1.377 . S
C4028 C4030 1.384 . S
C4029 C4028 1.377 . S
C4029 C4035 1.390 . S
C4030 H4021 0.930 . S
C4030 C4028 1.384 . S
C4030 C4031 1.372 . S
C4031 C4030 1.372 . S
C4031 C4032 1.400 . S
C4031 C4036 1.490 . S
C4032 H4022 0.930 . S
C4032 C4031 1.400 . S
C4032 C4035 1.386 . S
H4033 C4049 0.930 . S
H4034 C4050 0.931 . S
C4035 H4023 0.929 . S
C4035 C4029 1.390 . S
C4035 C4032 1.386 . S
C4036 C4031 1.490 . S
C4036 C4038 1.395 . S
C4036 C4039 1.403 . S
H4037 C4043 0.930 . S
C4038 H4024 0.930 . S
C4038 C4036 1.395 . S
C4038 C4041 1.403 . S
C4039 C4036 1.403 . S
C4039 C4040 1.524 . S
C4039 C4043 1.400 . S
C4040 H4025 0.960 . S
C4040 H4026 0.960 . S
C4040 H4027 0.960 . S
C4040 C4039 1.524 . S
C4041 C4038 1.403 . S
C4041 C4042 1.392 . S
C4041 C4045 1.495 . S
C4042 C4041 1.392 . S
C4042 C4043 1.385 . S
C4042 C4044 1.478 . S
C4043 H4037 0.930 . S
C4043 C4039 1.400 . S
C4043 C4042 1.385 . S
C4044 C4042 1.478 . S
C4044 C4046 1.381 . S
C4044 C4050 1.383 . S
C4045 C4041 1.495 . S
C4045 H4051 0.959 . S
C4045 H4052 0.961 . S
C4045 H4053 0.960 . S
C4046 C4044 1.381 . S
C4046 C4047 1.394 . S
C4046 H4054 0.930 . S
C4047 C4046 1.394 . S
C4047 C4048 1.383 . S
C4047 H4055 0.929 . S
C4048 C4047 1.383 . S
C4048 C4049 1.377 . S
C4049 H4033 0.930 . S
C4049 C4048 1.377 . S
C4049 C4050 1.379 . S
C4050 H4034 0.931 . S
C4050 C4044 1.383 . S
C4050 C4049 1.379 . S
H4051 C4045 0.959 . S
H4052 C4045 0.961 . S
H4053 C4045 0.960 . S
H4054 C4046 0.930 . S
H4055 C4047 0.929 . S
H4056 C4064 0.929 . S
H4057 C4066 0.930 . S
H4058 C4068 0.930 . S
H4059 C4071 0.929 . S
H4060 C4074 0.930 . S
H4061 C4076 0.960 . S
H4062 C4076 0.960 . S
H4063 C4076 0.960 . S
C4064 H4056 0.929 . S
C4064 C4065 1.377 . S
C4064 C4066 1.384 . S
C4065 C4064 1.377 . S
C4065 C4071 1.390 . S
C4066 H4057 0.930 . S
C4066 C4064 1.384 . S
C4066 C4067 1.372 . S
C4067 C4066 1.372 . S
C4067 C4068 1.400 . S
C4067 C4072 1.490 . S
C4068 H4058 0.930 . S
C4068 C4067 1.400 . S
C4068 C4071 1.386 . S
H4069 C4085 0.930 . S
H4070 C4086 0.931 . S
C4071 H4059 0.929 . S
C4071 C4065 1.390 . S
C4071 C4068 1.386 . S
C4072 C4067 1.490 . S
C4072 C4074 1.395 . S
C4072 C4075 1.403 . S
H4073 C4079 0.930 . S
C4074 H4060 0.930 . S
C4074 C4072 1.395 . S
C4074 C4077 1.403 . S
C4075 C4072 1.403 . S
C4075 C4076 1.524 . S
C4075 C4079 1.400 . S
C4076 H4061 0.960 . S
C4076 H4062 0.960 . S
C4076 H4063 0.960 . S
C4076 C4075 1.524 . S
C4077 C4074 1.403 . S
C4077 C4078 1.392 . S
C4077 C4081 1.495 . S
C4078 C4077 1.392 . S
C4078 C4079 1.385 . S
C4078 C4080 1.478 . S
C4079 H4073 0.930 . S
C4079 C4075 1.400 . S
C4079 C4078 1.385 . S
C4080 C4078 1.478 . S
C4080 C4082 1.381 . S
C4080 C4086 1.383 . S
C4081 C4077 1.495 . S
C4081 H4087 0.959 . S
C4081 H4088 0.961 . S
C4081 H4089 0.960 . S
C4082 C4080 1.381 . S
C4082 C4083 1.394 . S
C4082 H4090 0.930 . S
C4083 C4082 1.394 . S
C4083 C4084 1.383 . S
C4083 H4091 0.929 . S
C4084 C4083 1.383 . S
C4084 C4085 1.377 . S
C4085 H4069 0.930 . S
C4085 C4084 1.377 . S
C4085 C4086 1.379 . S
C4086 H4070 0.931 . S
C4086 C4080 1.383 . S
C4086 C4085 1.379 . S
H4087 C4081 0.959 . S
H4088 C4081 0.961 . S
H4089 C4081 0.960 . S
H4090 C4082 0.930 . S
H4091 C4083 0.929 . S
H4092 C4100 0.929 . S
H4093 C4102 0.930 . S
H4094 C4104 0.930 . S
H4095 C4107 0.929 . S
H4096 C4110 0.930 . S
H4097 C4112 0.960 . S
H4098 C4112 0.960 . S
H4099 C4112 0.960 . S
C4100 H4092 0.929 . S
C4100 C4101 1.377 . S
C4100 C4102 1.384 . S
C4101 C4100 1.377 . S
C4101 C4107 1.390 . S
C4102 H4093 0.930 . S
C4102 C4100 1.384 . S
C4102 C4103 1.372 . S
C4103 C4102 1.372 . S
C4103 C4104 1.400 . S
C4103 C4108 1.490 . S
C4104 H4094 0.930 . S
C4104 C4103 1.400 . S
C4104 C4107 1.386 . S
H4105 C4121 0.930 . S
H4106 C4122 0.931 . S
C4107 H4095 0.929 . S
C4107 C4101 1.390 . S
C4107 C4104 1.386 . S
C4108 C4103 1.490 . S
C4108 C4110 1.395 . S
C4108 C4111 1.403 . S
H4109 C4115 0.930 . S
C4110 H4096 0.930 . S
C4110 C4108 1.395 . S
C4110 C4113 1.403 . S
C4111 C4108 1.403 . S
C4111 C4112 1.524 . S
C4111 C4115 1.400 . S
C4112 H4097 0.960 . S
C4112 H4098 0.960 . S
C4112 H4099 0.960 . S
C4112 C4111 1.524 . S
C4113 C4110 1.403 . S
C4113 C4114 1.392 . S
C4113 C4117 1.495 . S
C4114 C4113 1.392 . S
C4114 C4115 1.385 . S
C4114 C4116 1.478 . S
C4115 H4109 0.930 . S
C4115 C4111 1.400 . S
C4115 C4114 1.385 . S
C4116 C4114 1.478 . S
C4116 C4118 1.381 . S
C4116 C4122 1.383 . S
C4117 C4113 1.495 . S
C4117 H4123 0.959 . S
C4117 H4124 0.961 . S
C4117 H4125 0.960 . S
C4118 C4116 1.381 . S
C4118 C4119 1.394 . S
C4118 H4126 0.930 . S
C4119 C4118 1.394 . S
C4119 C4120 1.383 . S
C4119 H4127 0.929 . S
C4120 C4119 1.383 . S
C4120 C4121 1.377 . S
C4121 H4105 0.930 . S
C4121 C4120 1.377 . S
C4121 C4122 1.379 . S
C4122 H4106 0.931 . S
C4122 C4116 1.383 . S
C4122 C4121 1.379 . S
H4123 C4117 0.959 . S
H4124 C4117 0.961 . S
H4125 C4117 0.960 . S
H4126 C4118 0.930 . S
H4127 C4119 0.929 . S
C681 C440 1.418 . S
C700 C6 1.435 . S
C717 C20 1.418 . S
C736 C398 1.435 . S
C753 C34 1.421 . S
C772 C412 1.416 . S
C789 C426 1.420 . S
C808 C48 1.430 . S
C825 C356 1.424 . S
C844 C62 1.407 . S
C861 C76 1.418 . S
C880 C370 1.435 . S
C897 C384 1.425 . S
C916 C90 1.402 . S
C933 C104 1.418 . S
C952 C342 1.435 . S
C969 C118 1.424 . S
C988 C622 1.401 . S
C1005 C580 1.420 . S
C1024 C132 1.430 . S
C1041 C594 1.424 . S
C1060 C146 1.402 . S
C1077 C160 1.425 . S
C1096 C608 1.404 . S
C1113 C174 1.425 . S
C1132 C664 1.403 . S
C1149 C188 1.424 . S
C1168 C636 1.408 . S
C1185 C202 1.424 . S
C1204 C650 1.408 . S
C1221 C566 1.425 . S
C1240 C216 1.402 . S
C1257 C552 1.418 . S
C1276 C230 1.434 . S
C1293 C244 1.424 . S
C1312 C468 1.401 . S
C1329 C482 1.421 . S
C1348 C258 1.412 . S
C1365 C272 1.418 . S
C1384 C496 1.436 . S
C1401 C454 1.421 . S
C1420 C286 1.426 . S
C1437 C524 1.420 . S
C1456 C300 1.430 . S
C1473 C314 1.418 . S
C1492 C538 1.429 . S
C1509 C510 1.423 . S
C1528 C328 1.417 . S
C1545 C134 1.599 . S
C1564 C8 1.576 . S
C1581 C148 1.599 . S
C1600 C22 1.575 . S
C1617 C36 1.596 . S
C1636 C162 1.587 . S
C1653 C120 1.593 . S
C1672 C50 1.610 . S
C1689 C64 1.593 . S
C1708 C218 1.604 . S
C1725 C176 1.600 . S
C1744 C78 1.576 . S
C1761 C190 1.593 . S
C1780 C92 1.601 . S
C1797 C204 1.600 . S
C1816 C106 1.575 . S
C1833 C260 1.593 . S
C1852 C232 1.608 . S
C1869 C316 1.600 . S
C1888 C246 1.575 . S
C1905 C330 1.600 . S
C1924 C274 1.578 . S
C1941 C288 1.597 . S
C1960 C302 1.592 . S
C1977 C470 1.595 . S
C1996 C344 1.595 . S
C2013 C484 1.599 . S
C2032 C358 1.577 . S
C2049 C498 1.596 . S
C2068 C372 1.590 . S
C2085 C386 1.595 . S
C2104 C456 1.593 . S
C2121 C400 1.593 . S
C2140 C554 1.602 . S
C2157 C414 1.595 . S
C2176 C512 1.602 . S
C2193 C526 1.600 . S
C2212 C428 1.575 . S
C2229 C540 1.597 . S
C2248 C442 1.583 . S
C2265 C568 1.599 . S
C2284 C596 1.580 . S
C2301 C652 1.596 . S
C2320 C582 1.586 . S
C2337 C666 1.599 . S
C2356 C610 1.585 . S
C2373 C638 1.594 . S
C2392 C624 1.601 . S
C2409 C7 1.352 . S
C2428 C261 1.339 . S
C2445 C21 1.357 . S
C2464 C275 1.362 . S
C2481 C35 1.353 . S
C2500 C289 1.331 . S
C2517 C247 1.348 . S
C2536 C49 1.335 . S
C2553 C63 1.352 . S
C2572 C317 1.345 . S
C2589 C77 1.354 . S
C2608 C233 1.325 . S
C2625 C331 1.343 . S
C2644 C91 1.370 . S
C2661 C303 1.349 . S
C2680 C105 1.361 . S
C2697 C119 1.353 . S
C2716 C135 1.330 . S
C2733 C133 1.352 . S
C2752 C149 1.336 . S
C2769 C147 1.356 . S
C2788 C163 1.364 . S
C2805 C121 1.350 . S
C2824 C161 1.354 . S
C2841 C219 1.341 . S
C2860 C175 1.355 . S
C2877 C177 1.347 . S
C2896 C189 1.370 . S
C2913 C191 1.350 . S
C2932 C203 1.350 . S
C2949 C217 1.357 . S
C2968 C205 1.361 . S
C2985 C51 1.341 . S
C3004 C231 1.353 . S
C3021 C79 1.350 . S
C3040 C245 1.341 . S
C3057 C93 1.350 . S
C3076 C259 1.351 . S
C3093 C273 1.354 . S
C3112 C107 1.326 . S
C3129 C65 1.350 . S
C3148 C287 1.342 . S
C3165 C23 1.345 . S
C3184 C301 1.372 . S
C3201 C37 1.341 . S
C3220 C315 1.366 . S
C3237 C9 1.350 . S
C3256 C329 1.348 . S
C3273 C597 1.350 . S
C3292 C343 1.351 . S
C3309 C357 1.359 . S
C3328 C611 1.324 . S
C3345 C625 1.348 . S
C3364 C371 1.368 . S
C3381 C583 1.350 . S
C3400 C385 1.357 . S
C3417 C399 1.352 . S
C3436 C653 1.339 . S
C3453 C413 1.354 . S
C3472 C569 1.324 . S
C3489 C667 1.343 . S
C3508 C427 1.371 . S
C3525 C441 1.359 . S
C3544 C639 1.329 . S
C3561 C455 1.358 . S
C3580 C471 1.357 . S
C3597 C469 1.352 . S
C3616 C485 1.335 . S
C3633 C483 1.352 . S
C3652 C499 1.346 . S
C3669 C497 1.359 . S
C3688 C457 1.347 . S
C3705 C555 1.350 . S
C3724 C511 1.354 . S
C3741 C513 1.341 . S
C3760 C525 1.354 . S
C3777 C527 1.350 . S
C3796 C539 1.346 . S
C3813 C553 1.352 . S
C3832 C541 1.344 . S
C3849 C387 1.344 . S
C3868 C567 1.337 . S
C3885 C415 1.345 . S
C3904 C581 1.335 . S
C3921 C429 1.342 . S
C3940 C595 1.368 . S
C3957 C609 1.359 . S
C3976 C443 1.352 . S
C3993 C401 1.341 . S
C4012 C623 1.359 . S
C4029 C359 1.345 . S
C4048 C637 1.372 . S
C4065 C651 1.358 . S
C4084 C373 1.359 . S
C4101 C345 1.348 . S
C4120 C665 1.335 . S
