# Generated by pormake.
# Topology smt, (6)-cn, num edge types: 1
# Building blocks:
#     Node 0, Type 0, BuildingBlock: UKALOJ_clean_sbu_0, # of connection points: 6
#     Node 1, Type 0, BuildingBlock: UKALOJ_clean_sbu_0, # of connection points: 6
#     Node 2, Type 0, BuildingBlock: UKALOJ_clean_sbu_0, # of connection points: 6
#     Node 3, Type 0, BuildingBlock: UKALOJ_clean_sbu_0, # of connection points: 6
#     Node 4, Type 0, BuildingBlock: UKALOJ_clean_sbu_0, # of connection points: 6
#     Node 5, Type 0, BuildingBlock: UKALOJ_clean_sbu_0, # of connection points: 6
#     Edge 6, Type (0, 0), BuildingBlock: OJICUG_clean_linker_0, # of connection points: 2
#     Edge 7, Type (0, 0), BuildingBlock: OJICUG_clean_linker_0, # of connection points: 2
#     Edge 8, Type (0, 0), BuildingBlock: OJICUG_clean_linker_0, # of connection points: 2
#     Edge 9, Type (0, 0), BuildingBlock: OJICUG_clean_linker_0, # of connection points: 2
#     Edge 10, Type (0, 0), BuildingBlock: OJICUG_clean_linker_0, # of connection points: 2
#     Edge 11, Type (0, 0), BuildingBlock: OJICUG_clean_linker_0, # of connection points: 2
#     Edge 12, Type (0, 0), BuildingBlock: OJICUG_clean_linker_0, # of connection points: 2
#     Edge 13, Type (0, 0), BuildingBlock: OJICUG_clean_linker_0, # of connection points: 2
#     Edge 14, Type (0, 0), BuildingBlock: OJICUG_clean_linker_0, # of connection points: 2
#     Edge 15, Type (0, 0), BuildingBlock: OJICUG_clean_linker_0, # of connection points: 2
#     Edge 16, Type (0, 0), BuildingBlock: OJICUG_clean_linker_0, # of connection points: 2
#     Edge 17, Type (0, 0), BuildingBlock: OJICUG_clean_linker_0, # of connection points: 2
#     Edge 18, Type (0, 0), BuildingBlock: OJICUG_clean_linker_0, # of connection points: 2
#     Edge 19, Type (0, 0), BuildingBlock: OJICUG_clean_linker_0, # of connection points: 2
#     Edge 20, Type (0, 0), BuildingBlock: OJICUG_clean_linker_0, # of connection points: 2
#     Edge 21, Type (0, 0), BuildingBlock: OJICUG_clean_linker_0, # of connection points: 2
#     Edge 22, Type (0, 0), BuildingBlock: OJICUG_clean_linker_0, # of connection points: 2
#     Edge 23, Type (0, 0), BuildingBlock: OJICUG_clean_linker_0, # of connection points: 2
# Relax obj value: 0.366
# Max RMSD: 0.288
# Mean RMSD: 0.288
data_MOF--net-smt--node1-UKALOJ_clean_sbu_0--edge1-OJICUG_clean_linker_0
_symmetry_space_group_name_H-M    P1
_symmetry_Int_Tables_number       1
_symmetry_cell_setting            triclinic
loop_
_symmetry_equiv_pos_as_xyz
'x, y, z'
_cell_length_a     28.729881
_cell_length_b     28.80711
_cell_length_c     19.629626
_cell_angle_alpha  90.4195
_cell_angle_beta   89.896514
_cell_angle_gamma 120.00285
loop_
_atom_site_label
_atom_site_type_symbol
_atom_site_fract_x
_atom_site_fract_y
_atom_site_fract_z
_atom_type_partial_charge
Zn0 Zn 0.51596 0.12775 -0.00986 0.0
O1 O 0.49553 0.0717 0.07197 0.0
C2 C 0.40153 0.06946 0.95063 0.0
Zn3 Zn 0.47056 0.16091 0.04435 0.0
C4 C 0.46574 0.07143 0.12052 0.0
O5 O 0.4488 0.10449 0.12032 0.0
C6 C 0.52449 0.22101 0.91811 0.0
O7 O 0.54107 0.21378 0.10247 0.0
O8 O 0.58487 0.18245 0.04341 0.0
N9 N 0.42362 0.18825 0.08808 0.0
C10 C 0.42774 0.23697 0.09025 0.0
C11 C 0.34821 0.18008 0.12184 0.0
N12 N 0.37429 0.15311 0.10815 0.0
N13 N 0.38077 0.23272 0.11064 0.0
C14 C 0.54395 0.05407 0.90499 0.0
C15 C 0.62254 0.10999 0.87053 0.0
N16 N 0.55973 0.10011 0.93963 0.0
N17 N 0.60903 0.13458 0.91887 0.0
N18 N 0.5823 0.05935 0.86099 0.0
H19 H 0.47235 0.00251 0.96227 0.0
H20 H 0.49483 0.96834 0.90468 0.0
H21 H 0.46329 0.00321 0.87085 0.0
C22 C 0.49035 0.00419 0.91168 0.0
C23 C 0.47549 0.28733 0.06512 0.0
H24 H 0.51234 0.28424 0.06823 0.0
H25 H 0.48175 0.32278 0.09486 0.0
H26 H 0.4685 0.2937 0.01128 0.0
O27 O 0.49509 0.21936 0.96741 0.0
O28 O 0.53685 0.18468 0.91181 0.0
C29 C 0.58447 0.21355 0.08919 0.0
O30 O 0.44625 0.0727 0.93786 0.0
O31 O 0.40042 0.10425 -0.01033 0.0
Zn32 Zn 0.38572 0.5171 0.16281 0.0
O33 O 0.42107 0.49918 0.24774 0.0
C34 C 0.33208 0.40205 0.12577 0.0
Zn35 Zn 0.30566 0.47037 0.21306 0.0
C36 C 0.39075 0.46857 0.29484 0.0
O37 O 0.34039 0.4501 0.29165 0.0
C38 C 0.30084 0.52285 0.08514 0.0
O39 O 0.32221 0.5417 0.26925 0.0
O40 O 0.3981 0.58621 0.21214 0.0
N41 N 0.23072 0.42336 0.25535 0.0
C42 C 0.18374 0.4229 0.24861 0.0
C43 C 0.16621 0.34957 0.29586 0.0
N44 N 0.2196 0.3778 0.28499 0.0
N45 N 0.1424 0.37648 0.27255 0.0
C46 C 0.48696 0.54236 0.07851 0.0
C47 C 0.50954 0.61972 0.04043 0.0
N48 N 0.45761 0.55966 0.1125 0.0
N49 N 0.47238 0.60819 0.08936 0.0
N50 N 0.51924 0.57887 0.03259 0.0
H51 H 0.47171 0.47579 0.1422 0.0
H52 H 0.52442 0.49387 0.0799 0.0
H53 H 0.45575 0.45957 0.05265 0.0
C54 C 0.48442 0.48973 0.08938 0.0
C55 C 0.17931 0.46936 0.22276 0.0
H56 H 0.21726 0.50747 0.23236 0.0
H57 H 0.14562 0.47114 0.24797 0.0
H58 H 0.17169 0.46475 0.16707 0.0
O59 O 0.27227 0.49369 0.13379 0.0
O60 O 0.34981 0.53546 0.0812 0.0
C61 C 0.36547 0.58544 0.25634 0.0
O62 O 0.37304 0.44736 0.11555 0.0
O63 O 0.29337 0.3994 0.16015 0.0
Zn64 Zn 0.87225 0.38396 0.32712 0.0
O65 O 0.9318 0.41719 0.40619 0.0
C66 C 0.92353 0.32246 0.28805 0.0
Zn67 Zn 0.83271 0.30601 0.38154 0.0
C68 C 0.92703 0.38848 0.45782 0.0
O69 O 0.88836 0.34055 0.4604 0.0
C70 C 0.77445 0.30167 0.25485 0.0
O71 O 0.77928 0.32638 0.43489 0.0
O72 O 0.82465 0.40463 0.38421 0.0
N73 N 0.80303 0.23195 0.42598 0.0
C74 C 0.75667 0.18507 0.41787 0.0
C75 C 0.81176 0.16775 0.46839 0.0
N76 N 0.837 0.22096 0.45767 0.0
N77 N 0.76146 0.14391 0.44291 0.0
C78 C 0.9495 0.48182 0.24078 0.0
C79 C 0.89811 0.51108 0.20925 0.0
N80 N 0.9036 0.45505 0.27651 0.0
N81 N 0.87198 0.47389 0.25752 0.0
N82 N 0.94678 0.51655 0.19769 0.0
H83 H 0.99802 0.4578 0.29804 0.0
H84 H 0.03486 0.51347 0.24074 0.0
H85 H 0.99619 0.44712 0.20682 0.0
C86 C 0.99735 0.47447 0.24755 0.0
C87 C 0.70611 0.1806 0.3898 0.0
H88 H 0.70567 0.21843 0.39897 0.0
H89 H 0.67023 0.14694 0.41388 0.0
H90 H 0.70409 0.1731 0.33409 0.0
O91 O 0.77568 0.27258 0.30223 0.0
O92 O 0.81139 0.3503 0.25108 0.0
C93 C 0.78853 0.37416 0.42576 0.0
O94 O 0.92085 0.36332 0.27113 0.0
O95 O 0.88982 0.2901 0.33077 0.0
Zn96 Zn 0.48599 0.8742 0.49171 0.0
O97 O 0.5131 0.93392 0.57057 0.0
C98 C 0.59857 0.92489 0.45258 0.0
Zn99 Zn 0.52463 0.83469 0.54561 0.0
C100 C 0.53727 0.92916 0.62221 0.0
O101 O 0.54637 0.8904 0.62476 0.0
C102 C 0.46942 0.77623 0.4194 0.0
O103 O 0.4514 0.78181 0.5987 0.0
O104 O 0.41811 0.82725 0.54889 0.0
N105 N 0.56877 0.80458 0.58948 0.0
C106 C 0.56693 0.75701 0.58339 0.0
C107 C 0.64186 0.81163 0.62985 0.0
N108 N 0.61528 0.83829 0.61864 0.0
N109 N 0.61291 0.76065 0.60723 0.0
C110 C 0.46478 0.95034 0.40463 0.0
C111 C 0.38383 0.89867 0.37331 0.0
N112 N 0.44579 0.90517 0.44133 0.0
N113 N 0.39516 0.87339 0.42248 0.0
N114 N 0.42708 0.9469 0.36095 0.0
H115 H 0.53731 -0.00045 0.46236 0.0
H116 H 0.51804 0.03554 0.4041 0.0
H117 H 0.5463 0.99703 0.37137 0.0
C118 C 0.51989 -0.00167 0.41156 0.0
C119 C 0.51873 0.70672 0.55828 0.0
H120 H 0.48163 0.70865 0.5674 0.0
H121 H 0.51537 0.67114 0.58439 0.0
H122 H 0.52256 0.70219 0.50272 0.0
O123 O 0.50039 0.77755 0.4663 0.0
O124 O 0.45789 0.81326 0.41588 0.0
C125 C 0.41276 0.79111 0.58993 0.0
O126 O 0.55489 0.92223 0.43551 0.0
O127 O 0.59739 0.89125 0.49508 0.0
Zn128 Zn 0.60757 0.48026 0.66279 0.0
O129 O 0.57429 0.5042 0.74496 0.0
C130 C 0.66553 0.59496 0.62386 0.0
Zn131 Zn 0.68732 0.52561 0.71405 0.0
C132 C 0.60412 0.53198 0.79463 0.0
O133 O 0.65366 0.54616 0.7946 0.0
C134 C 0.69103 0.47091 0.58611 0.0
O135 O 0.66995 0.45362 0.76743 0.0
O136 O 0.59099 0.41198 0.71608 0.0
N137 N 0.76251 0.57074 0.75601 0.0
C138 C 0.80801 0.56833 0.74927 0.0
C139 C 0.82961 0.64381 0.79489 0.0
N140 N 0.7761 0.6176 0.7846 0.0
N141 N 0.85099 0.61426 0.7722 0.0
C142 C 0.50758 0.45827 0.57976 0.0
C143 C 0.48233 0.38042 0.53961 0.0
N144 N 0.53568 0.43934 0.61268 0.0
N145 N 0.51928 0.39053 0.58835 0.0
N146 N 0.47456 0.42254 0.53303 0.0
H147 H 0.52935 0.52755 0.64386 0.0
H148 H 0.47141 0.50752 0.58946 0.0
H149 H 0.53709 0.54022 0.55317 0.0
C150 C 0.51185 0.51157 0.59291 0.0
C151 C 0.80934 0.51976 0.72408 0.0
H152 H 0.77001 0.48305 0.73249 0.0
H153 H 0.84127 0.51582 0.75057 0.0
H154 H 0.81786 0.5235 0.66866 0.0
O155 O 0.72039 0.50375 0.63201 0.0
O156 O 0.64115 0.45497 0.58501 0.0
C157 C 0.62454 0.41137 0.75739 0.0
O158 O 0.62486 0.55012 0.60925 0.0
O159 O 0.70054 0.59642 0.66447 0.0
Zn160 Zn 0.12804 0.60794 0.82589 0.0
O161 O 0.0716 0.574 0.90785 0.0
C162 C 0.06938 0.6643 0.78816 0.0
Zn163 Zn 0.16199 0.68741 0.87818 0.0
C164 C 0.07365 0.60348 0.95799 0.0
O165 O 0.10838 0.65309 0.95833 0.0
C166 C 0.21954 0.69199 0.74981 0.0
O167 O 0.21772 0.6711 0.93161 0.0
O168 O 0.18118 0.59272 0.87902 0.0
N169 N 0.19114 0.76252 0.92051 0.0
C170 C 0.23861 0.80833 0.91353 0.0
C171 C 0.18398 0.82905 0.95894 0.0
N172 N 0.1574 0.77557 0.94898 0.0
N173 N 0.23491 0.85096 0.93615 0.0
C174 C 0.05251 0.50684 0.7411 0.0
C175 C 0.10714 0.48245 0.70603 0.0
N176 N 0.09878 0.53615 0.77571 0.0
N177 N 0.13243 0.52024 0.75456 0.0
N178 N 0.05689 0.4734 0.69665 0.0
H179 H 0.00222 0.52841 0.7994 0.0
H180 H 0.96671 0.47129 0.74281 0.0
H181 H 0.00209 0.53714 0.70792 0.0
C182 C 0.00309 0.5114 0.74886 0.0
C183 C 0.28889 0.81032 0.88847 0.0
H184 H 0.28708 0.77147 0.89714 0.0
H185 H 0.32469 0.84271 0.91485 0.0
H186 H 0.29322 0.8184 0.83301 0.0
O187 O 0.21621 0.72093 0.79642 0.0
O188 O 0.18604 0.64218 0.74819 0.0
C189 C 0.2151 0.62605 0.921 0.0
O190 O 0.07389 0.62391 0.77293 0.0
O191 O 0.10321 0.69938 0.82875 0.0
C192 C 0.31191 0.99615 0.98744 0.0
C193 C 0.35202 0.01784 0.9372 0.0
H194 H 0.24435 0.9255 0.02737 0.0
C195 C 0.34991 0.98489 0.88283 0.0
H196 H 0.31276 0.02031 0.0305 0.0
C197 C 0.31061 0.93052 0.88108 0.0
C198 C 0.27348 0.90768 0.93464 0.0
H199 H 0.37987 0.00075 0.84292 0.0
H200 H 0.30987 0.90651 0.83814 0.0
C201 C 0.2732 0.94164 0.98624 0.0
C202 C 0.38289 0.35858 0.1614 0.0
C203 C 0.34039 0.35568 0.12267 0.0
H204 H 0.4283 0.32101 0.18863 0.0
C205 C 0.30902 0.31012 0.08242 0.0
H206 H 0.40656 0.39263 0.19456 0.0
C207 C 0.3219 0.26906 0.07896 0.0
C208 C 0.36613 0.27351 0.11558 0.0
H209 H 0.27576 0.3069 0.05279 0.0
H210 H 0.29827 0.23443 0.04669 0.0
C211 C 0.39552 0.31791 0.15803 0.0
C212 C 0.99792 0.30838 0.32698 0.0
C213 C 0.97446 0.32301 0.27475 0.0
H214 H 0.07043 0.31554 0.36783 0.0
C215 C 0.00587 0.35042 0.21804 0.0
H216 H 0.975 0.2878 0.3718 0.0
C217 C 0.06061 0.36664 0.21613 0.0
C218 C 0.08523 0.35652 0.27142 0.0
H219 H 0.98866 0.36161 0.17664 0.0
H220 H 0.0837 0.38789 0.17192 0.0
C221 C 0.05277 0.32503 0.32531 0.0
C222 C 0.7236 0.05422 0.49405 0.0
C223 C 0.72473 0.08682 0.44042 0.0
H224 H 0.68353 0.97626 0.53883 0.0
C225 C 0.69091 0.0624 0.38393 0.0
H226 H 0.75009 0.07172 0.53749 0.0
C227 C 0.65299 0.00762 0.38436 0.0
C228 C 0.64878 0.97599 0.44074 0.0
H229 H 0.69301 0.08561 0.33985 0.0
H230 H 0.62517 0.9905 0.34208 0.0
C231 C 0.68609 -0.00065 0.49421 0.0
C232 C 0.66436 0.72252 0.65915 0.0
C233 C 0.63101 0.72208 0.60657 0.0
H234 H 0.70298 0.68334 0.70466 0.0
C235 C 0.61782 0.68503 0.55275 0.0
H236 H 0.67621 0.75136 0.70048 0.0
C237 C 0.63322 0.64602 0.55499 0.0
C238 C 0.66309 0.64405 0.6103 0.0
H239 H 0.59519 0.68566 0.50925 0.0
H240 H 0.6201 0.61616 0.51473 0.0
C241 C 0.68037 0.68404 0.66094 0.0
C242 C 0.98497 0.63156 0.72005 0.0
C243 C 0.01758 0.66183 0.77492 0.0
H244 H 0.90687 0.59428 0.67454 0.0
C245 C 0.99569 0.68024 0.82523 0.0
H246 H 0.00106 0.61766 0.67996 0.0
C247 C 0.94129 0.66509 0.82352 0.0
C248 C 0.90761 0.63151 0.77134 0.0
H249 H 0.01961 0.70324 0.86859 0.0
H250 H 0.92498 0.67787 0.86462 0.0
C251 C 0.93066 0.61709 0.71784 0.0
C252 C 0.48364 0.01111 0.19323 0.0
C253 C 0.45322 0.03579 0.17959 0.0
H254 H 0.4988 0.96318 0.26277 0.0
C255 C 0.41277 0.02925 0.22576 0.0
H256 H 0.51494 0.01534 0.15865 0.0
C257 C 0.40382 -0.00035 0.2852 0.0
C258 C 0.43572 0.97697 0.2999 0.0
H259 H 0.38836 0.04753 0.21635 0.0
H260 H 0.37282 0.99524 0.32038 0.0
C261 C 0.47498 0.982 0.25304 0.0
C262 C 0.37875 0.41358 0.39834 0.0
C263 C 0.41309 0.45541 0.35453 0.0
H264 H 0.37203 0.37028 0.49008 0.0
C265 C 0.46805 0.48556 0.37015 0.0
H266 H 0.33619 0.38933 0.38741 0.0
C267 C 0.48797 0.47489 0.42923 0.0
C268 C 0.4534 0.43381 0.47339 0.0
H269 H 0.49546 0.51788 0.33743 0.0
H270 H 0.53054 0.4984 0.44034 0.0
C271 C 0.39891 0.4026 0.457 0.0
C272 C 0.99636 0.39647 0.62487 0.0
C273 C 0.02619 0.45184 0.63556 0.0
H274 H 0.94134 0.33282 0.55962 0.0
C275 C 0.02615 0.48661 0.58582 0.0
H276 H 0.9965 0.36935 0.66268 0.0
C277 C 0.99545 0.4662 0.5266 0.0
C278 C 0.96388 0.4106 0.51666 0.0
H279 H 0.04967 0.5296 0.59335 0.0
H280 H 0.99526 0.49386 0.48967 0.0
C281 C 0.96507 0.37591 0.56605 0.0
C282 C 0.53001 -0.00056 0.68935 0.0
C283 C 0.55231 0.96614 0.68108 0.0
H284 H 0.52214 0.05514 0.7548 0.0
C285 C 0.58671 0.96587 0.73202 0.0
H286 H 0.50331 0.00042 0.65122 0.0
C287 C 0.59753 0.99734 0.79079 0.0
C288 C 0.57369 0.02896 0.79969 0.0
H289 H 0.60473 0.94077 0.72695 0.0
H290 H 0.62345 0.9962 0.82992 0.0
C291 C 0.54045 0.03041 0.74843 0.0
C292 C 0.59574 0.59773 0.95853 0.0
C293 C 0.54067 0.56846 0.97218 0.0
H294 H 0.6592 0.60889 0.89128 0.0
C295 C 0.506 0.52905 0.92563 0.0
H296 H 0.62278 0.62856 -0.00627 0.0
C297 C 0.52628 0.51816 0.8667 0.0
C298 C 0.58173 0.54619 0.8538 0.0
H299 H 0.46316 0.50672 0.93517 0.0
H300 H 0.49874 0.48701 0.83218 0.0
C301 C 0.61625 0.58638 0.90006 0.0
C302 C 0.01146 0.52515 0.02939 0.0
C303 C 0.03819 0.58054 0.0176 0.0
H304 H 0.96133 0.46152 0.0972 0.0
C305 C 0.03322 0.61448 0.06551 0.0
H306 H 0.01451 0.49805 -0.00649 0.0
C307 C 0.0028 0.59346 0.12458 0.0
C308 C 0.9778 0.53848 0.13717 0.0
H309 H 0.05313 0.65737 0.05758 0.0
H310 H -0.00055 0.62004 0.16102 0.0
C311 C 0.98166 0.50435 0.08886 0.0
C312 C 0.55787 0.26592 0.8057 0.0
C313 C 0.55161 0.26938 0.87607 0.0
H314 H 0.58617 0.30939 0.71212 0.0
C315 C 0.57468 0.32004 0.90771 0.0
H316 H 0.54099 0.22722 0.78056 0.0
C317 C 0.60262 0.36665 0.86938 0.0
C318 C 0.6067 0.36324 0.79865 0.0
H319 H 0.5714 0.32359 0.96225 0.0
H320 H 0.61862 0.4053 0.89448 0.0
C321 C 0.58422 0.31265 0.76696 0.0
C322 C 0.27292 0.58493 0.93276 0.0
C323 C 0.24462 0.60767 0.96336 0.0
H324 H 0.314 0.54061 0.94792 0.0
C325 C 0.23544 0.60265 0.03371 0.0
H326 H 0.27933 0.58746 0.87818 0.0
C327 C 0.25266 0.57367 0.07263 0.0
C328 C 0.28048 0.5504 0.04208 0.0
H329 H 0.21252 0.61871 0.05794 0.0
H330 H 0.24458 0.56981 0.12684 0.0
C331 C 0.2919 0.55754 0.9722 0.0
C332 C 0.62879 0.23618 0.20249 0.0
C333 C 0.63275 0.24309 0.13173 0.0
H334 H 0.67115 0.248 0.29651 0.0
C335 C 0.68383 0.27061 0.10137 0.0
H336 H 0.58982 0.21414 0.22673 0.0
C337 C 0.73037 0.29079 0.14134 0.0
C338 C 0.72626 0.28151 0.21169 0.0
H339 H 0.68764 0.2756 0.04661 0.0
H340 H 0.7694 0.312 0.11713 0.0
C341 C 0.67518 0.2546 0.24204 0.0
C342 C 0.41608 0.67719 0.40799 0.0
C343 C 0.44017 0.72777 0.37699 0.0
H344 H 0.37075 0.59193 0.39373 0.0
C345 C 0.4336 0.73116 0.3068 0.0
H346 H 0.41958 0.67375 0.46242 0.0
C347 C 0.40628 0.68434 0.26748 0.0
C348 C 0.38318 0.63374 0.29839 0.0
H349 H 0.45125 0.76982 0.28215 0.0
H350 H 0.40436 0.68754 0.21271 0.0
C351 C 0.3872 0.63053 0.36911 0.0
C352 C 0.70764 0.36759 0.48501 0.0
C353 C 0.76184 0.39752 0.4661 0.0
H354 H 0.64186 0.36837 0.53618 0.0
C355 C 0.79155 0.45215 0.48417 0.0
H356 H 0.68391 0.32557 0.47128 0.0
C357 C 0.76804 0.47627 0.52162 0.0
C358 C 0.71388 0.4467 0.54035 0.0
H359 H 0.83356 0.47617 0.47043 0.0
H360 H 0.79236 0.51805 0.5363 0.0
C361 C 0.68358 0.39227 0.52118 0.0
C362 C 0.33736 0.79318 0.64823 0.0
C363 C 0.36284 0.76407 0.62983 0.0
H364 H 0.27196 0.79305 0.70071 0.0
C365 C 0.33933 0.71003 0.64814 0.0
H366 H 0.3548 0.83506 0.63487 0.0
C367 C 0.29079 0.68552 0.68423 0.0
C368 C 0.26614 0.71525 0.70387 0.0
H369 H 0.35812 0.68679 0.63408 0.0
H370 H 0.27356 0.64395 0.69888 0.0
C371 C 0.28989 0.76923 0.68561 0.0
loop_
_geom_bond_atom_site_label_1
_geom_bond_atom_site_label_2
_geom_bond_distance
_geom_bond_site_symmetry_2
_ccdc_geom_bond_type
Zn0 O1 2.055 1_556 S
Zn0 O8 2.046 1_556 S
Zn0 N16 2.036 . S
Zn0 O28 2.053 . S
Zn0 O30 2.066 . S
O1 Zn0 2.055 1_554 S
O1 C4 1.259 . S
C2 O30 1.256 . S
C2 O31 1.244 1_556 S
Zn3 O5 2.046 . S
Zn3 O7 2.055 . S
Zn3 N9 2.036 . S
Zn3 O27 2.066 1_554 S
Zn3 O31 2.053 . S
C4 O1 1.259 . S
C4 O5 1.254 . S
O5 Zn3 2.046 . S
O5 C4 1.254 . S
C6 O27 1.256 . S
C6 O28 1.244 . S
O7 Zn3 2.055 . S
O7 C29 1.259 . S
O8 Zn0 2.046 1_554 S
O8 C29 1.254 . S
N9 Zn3 2.036 . S
N9 C10 1.298 . S
N9 N12 1.398 . S
C10 N9 1.298 . S
C10 N13 1.367 . S
C10 C23 1.481 . S
C11 N12 1.299 . S
C11 N13 1.379 . S
N12 N9 1.398 . S
N12 C11 1.299 . S
N13 C10 1.367 . S
N13 C11 1.379 . S
C14 N16 1.298 . S
C14 N18 1.367 . S
C14 C22 1.476 1_545 S
C15 N17 1.299 . S
C15 N18 1.379 . S
N16 Zn0 2.036 . S
N16 C14 1.298 . S
N16 N17 1.398 . S
N17 C15 1.299 . S
N17 N16 1.398 . S
N18 C14 1.367 . S
N18 C15 1.379 . S
H19 C22 0.977 1_545 S
H20 C22 0.988 . S
H21 C22 0.982 . S
C22 C14 1.476 1_565 S
C22 H19 0.977 1_565 S
C22 H20 0.988 . S
C22 H21 0.982 . S
C23 C10 1.481 . S
C23 H24 0.980 . S
C23 H25 0.981 . S
C23 H26 0.981 . S
H24 C23 0.980 . S
H25 C23 0.981 . S
H26 C23 0.981 . S
O27 Zn3 2.066 1_556 S
O27 C6 1.256 . S
O28 Zn0 2.053 . S
O28 C6 1.244 . S
C29 O7 1.259 . S
C29 O8 1.254 . S
O30 Zn0 2.066 . S
O30 C2 1.256 . S
O31 C2 1.244 1_554 S
O31 Zn3 2.053 . S
Zn32 O33 2.055 . S
Zn32 O40 2.046 . S
Zn32 N48 2.036 . S
Zn32 O60 2.053 . S
Zn32 O62 2.066 . S
O33 Zn32 2.055 . S
O33 C36 1.259 . S
C34 O62 1.256 . S
C34 O63 1.244 . S
Zn35 O37 2.046 . S
Zn35 O39 2.055 . S
Zn35 N41 2.036 . S
Zn35 O59 2.066 . S
Zn35 O63 2.053 . S
C36 O33 1.259 . S
C36 O37 1.254 . S
O37 Zn35 2.046 . S
O37 C36 1.254 . S
C38 O59 1.256 . S
C38 O60 1.244 . S
O39 Zn35 2.055 . S
O39 C61 1.259 . S
O40 Zn32 2.046 . S
O40 C61 1.254 . S
N41 Zn35 2.036 . S
N41 C42 1.298 . S
N41 N44 1.398 . S
C42 N41 1.298 . S
C42 N45 1.367 . S
C42 C55 1.481 . S
C43 N44 1.299 . S
C43 N45 1.379 . S
N44 N41 1.398 . S
N44 C43 1.299 . S
N45 C42 1.367 . S
N45 C43 1.379 . S
C46 N48 1.298 . S
C46 N50 1.367 . S
C46 C54 1.481 . S
C47 N49 1.299 1_556 S
C47 N50 1.379 1_556 S
N48 Zn32 2.036 . S
N48 C46 1.298 . S
N48 N49 1.398 . S
N49 C47 1.299 1_554 S
N49 N48 1.398 . S
N50 C46 1.367 . S
N50 C47 1.379 1_554 S
H51 C54 0.980 . S
H52 C54 0.981 . S
H53 C54 0.981 . S
C54 C46 1.481 . S
C54 H51 0.980 . S
C54 H52 0.981 . S
C54 H53 0.981 . S
C55 C42 1.481 . S
C55 H56 0.980 . S
C55 H57 0.981 . S
C55 H58 0.981 . S
H56 C55 0.980 . S
H57 C55 0.981 . S
H58 C55 0.981 . S
O59 Zn35 2.066 . S
O59 C38 1.256 . S
O60 Zn32 2.053 . S
O60 C38 1.244 . S
C61 O39 1.259 . S
C61 O40 1.254 . S
O62 Zn32 2.066 . S
O62 C34 1.256 . S
O63 C34 1.244 . S
O63 Zn35 2.053 . S
Zn64 O65 2.055 . S
Zn64 O72 2.046 . S
Zn64 N80 2.036 . S
Zn64 O92 2.053 . S
Zn64 O94 2.066 . S
O65 Zn64 2.055 . S
O65 C68 1.259 . S
C66 O94 1.256 . S
C66 O95 1.244 . S
Zn67 O69 2.046 . S
Zn67 O71 2.055 . S
Zn67 N73 2.036 . S
Zn67 O91 2.066 . S
Zn67 O95 2.053 . S
C68 O65 1.259 . S
C68 O69 1.254 . S
O69 Zn67 2.046 . S
O69 C68 1.254 . S
C70 O91 1.256 . S
C70 O92 1.244 . S
O71 Zn67 2.055 . S
O71 C93 1.259 . S
O72 Zn64 2.046 . S
O72 C93 1.254 . S
N73 Zn67 2.036 . S
N73 C74 1.298 . S
N73 N76 1.398 . S
C74 N73 1.298 . S
C74 N77 1.367 . S
C74 C87 1.481 . S
C75 N76 1.299 . S
C75 N77 1.379 . S
N76 N73 1.398 . S
N76 C75 1.299 . S
N77 C74 1.367 . S
N77 C75 1.379 . S
C78 N80 1.298 . S
C78 N82 1.367 . S
C78 C86 1.475 1_655 S
C79 N81 1.299 . S
C79 N82 1.379 . S
N80 Zn64 2.036 . S
N80 C78 1.298 . S
N80 N81 1.398 . S
N81 C79 1.299 . S
N81 N80 1.398 . S
N82 C78 1.367 . S
N82 C79 1.379 . S
H83 C86 0.979 1_655 S
H84 C86 0.981 . S
H85 C86 0.988 . S
C86 C78 1.475 1_455 S
C86 H83 0.979 1_455 S
C86 H84 0.981 . S
C86 H85 0.988 . S
C87 C74 1.481 . S
C87 H88 0.980 . S
C87 H89 0.981 . S
C87 H90 0.981 . S
H88 C87 0.980 . S
H89 C87 0.981 . S
H90 C87 0.981 . S
O91 Zn67 2.066 . S
O91 C70 1.256 . S
O92 Zn64 2.053 . S
O92 C70 1.244 . S
C93 O71 1.259 . S
C93 O72 1.254 . S
O94 Zn64 2.066 . S
O94 C66 1.256 . S
O95 C66 1.244 . S
O95 Zn67 2.053 . S
Zn96 O97 2.055 . S
Zn96 O104 2.046 . S
Zn96 N112 2.036 . S
Zn96 O124 2.053 . S
Zn96 O126 2.066 . S
O97 Zn96 2.055 . S
O97 C100 1.259 . S
C98 O126 1.256 . S
C98 O127 1.244 . S
Zn99 O101 2.046 . S
Zn99 O103 2.055 . S
Zn99 N105 2.036 . S
Zn99 O123 2.066 . S
Zn99 O127 2.053 . S
C100 O97 1.259 . S
C100 O101 1.254 . S
O101 Zn99 2.046 . S
O101 C100 1.254 . S
C102 O123 1.256 . S
C102 O124 1.244 . S
O103 Zn99 2.055 . S
O103 C125 1.259 . S
O104 Zn96 2.046 . S
O104 C125 1.254 . S
N105 Zn99 2.036 . S
N105 C106 1.298 . S
N105 N108 1.398 . S
C106 N105 1.298 . S
C106 N109 1.367 . S
C106 C119 1.481 . S
C107 N108 1.299 . S
C107 N109 1.379 . S
N108 N105 1.398 . S
N108 C107 1.299 . S
N109 C106 1.367 . S
N109 C107 1.379 . S
C110 N112 1.298 . S
C110 N114 1.367 . S
C110 C118 1.476 1_565 S
C111 N113 1.299 . S
C111 N114 1.379 . S
N112 Zn96 2.036 . S
N112 C110 1.298 . S
N112 N113 1.398 . S
N113 C111 1.299 . S
N113 N112 1.398 . S
N114 C110 1.367 . S
N114 C111 1.379 . S
H115 C118 0.977 1_565 S
H116 C118 0.988 . S
H117 C118 0.982 . S
C118 C110 1.476 1_545 S
C118 H115 0.977 1_545 S
C118 H116 0.988 . S
C118 H117 0.982 . S
C119 C106 1.481 . S
C119 H120 0.980 . S
C119 H121 0.981 . S
C119 H122 0.981 . S
H120 C119 0.980 . S
H121 C119 0.981 . S
H122 C119 0.981 . S
O123 Zn99 2.066 . S
O123 C102 1.256 . S
O124 Zn96 2.053 . S
O124 C102 1.244 . S
C125 O103 1.259 . S
C125 O104 1.254 . S
O126 Zn96 2.066 . S
O126 C98 1.256 . S
O127 C98 1.244 . S
O127 Zn99 2.053 . S
Zn128 O129 2.055 . S
Zn128 O136 2.046 . S
Zn128 N144 2.036 . S
Zn128 O156 2.053 . S
Zn128 O158 2.066 . S
O129 Zn128 2.055 . S
O129 C132 1.259 . S
C130 O158 1.256 . S
C130 O159 1.244 . S
Zn131 O133 2.046 . S
Zn131 O135 2.055 . S
Zn131 N137 2.036 . S
Zn131 O155 2.066 . S
Zn131 O159 2.053 . S
C132 O129 1.259 . S
C132 O133 1.254 . S
O133 Zn131 2.046 . S
O133 C132 1.254 . S
C134 O155 1.256 . S
C134 O156 1.244 . S
O135 Zn131 2.055 . S
O135 C157 1.259 . S
O136 Zn128 2.046 . S
O136 C157 1.254 . S
N137 Zn131 2.036 . S
N137 C138 1.298 . S
N137 N140 1.398 . S
C138 N137 1.298 . S
C138 N141 1.367 . S
C138 C151 1.481 . S
C139 N140 1.299 . S
C139 N141 1.379 . S
N140 N137 1.398 . S
N140 C139 1.299 . S
N141 C138 1.367 . S
N141 C139 1.379 . S
C142 N144 1.298 . S
C142 N146 1.367 . S
C142 C150 1.481 . S
C143 N145 1.299 . S
C143 N146 1.379 . S
N144 Zn128 2.036 . S
N144 C142 1.298 . S
N144 N145 1.398 . S
N145 C143 1.299 . S
N145 N144 1.398 . S
N146 C142 1.367 . S
N146 C143 1.379 . S
H147 C150 0.980 . S
H148 C150 0.981 . S
H149 C150 0.981 . S
C150 C142 1.481 . S
C150 H147 0.980 . S
C150 H148 0.981 . S
C150 H149 0.981 . S
C151 C138 1.481 . S
C151 H152 0.980 . S
C151 H153 0.981 . S
C151 H154 0.981 . S
H152 C151 0.980 . S
H153 C151 0.981 . S
H154 C151 0.981 . S
O155 Zn131 2.066 . S
O155 C134 1.256 . S
O156 Zn128 2.053 . S
O156 C134 1.244 . S
C157 O135 1.259 . S
C157 O136 1.254 . S
O158 Zn128 2.066 . S
O158 C130 1.256 . S
O159 C130 1.244 . S
O159 Zn131 2.053 . S
Zn160 O161 2.055 . S
Zn160 O168 2.046 . S
Zn160 N176 2.036 . S
Zn160 O188 2.053 . S
Zn160 O190 2.066 . S
O161 Zn160 2.055 . S
O161 C164 1.259 . S
C162 O190 1.256 . S
C162 O191 1.244 . S
Zn163 O165 2.046 . S
Zn163 O167 2.055 . S
Zn163 N169 2.036 . S
Zn163 O187 2.066 . S
Zn163 O191 2.053 . S
C164 O161 1.259 . S
C164 O165 1.254 . S
O165 Zn163 2.046 . S
O165 C164 1.254 . S
C166 O187 1.256 . S
C166 O188 1.244 . S
O167 Zn163 2.055 . S
O167 C189 1.259 . S
O168 Zn160 2.046 . S
O168 C189 1.254 . S
N169 Zn163 2.036 . S
N169 C170 1.298 . S
N169 N172 1.398 . S
C170 N169 1.298 . S
C170 N173 1.367 . S
C170 C183 1.481 . S
C171 N172 1.299 . S
C171 N173 1.379 . S
N172 N169 1.398 . S
N172 C171 1.299 . S
N173 C170 1.367 . S
N173 C171 1.379 . S
C174 N176 1.298 . S
C174 N178 1.367 . S
C174 C182 1.475 1_455 S
C175 N177 1.299 . S
C175 N178 1.379 . S
N176 Zn160 2.036 . S
N176 C174 1.298 . S
N176 N177 1.398 . S
N177 C175 1.299 . S
N177 N176 1.398 . S
N178 C174 1.367 . S
N178 C175 1.379 . S
H179 C182 0.979 1_455 S
H180 C182 0.981 . S
H181 C182 0.988 . S
C182 C174 1.475 1_655 S
C182 H179 0.979 1_655 S
C182 H180 0.981 . S
C182 H181 0.988 . S
C183 C170 1.481 . S
C183 H184 0.980 . S
C183 H185 0.981 1_556 S
C183 H186 0.981 . S
H184 C183 0.980 . S
H185 C183 0.981 1_554 S
H186 C183 0.981 . S
O187 Zn163 2.066 . S
O187 C166 1.256 . S
O188 Zn160 2.053 . S
O188 C166 1.244 . S
C189 O167 1.259 . S
C189 O168 1.254 . S
O190 Zn160 2.066 . S
O190 C162 1.256 . S
O191 C162 1.244 . S
O191 Zn163 2.053 . S
C192 C193 1.387 1_554 S
C192 H196 0.950 . S
C192 C201 1.390 1_545 S
C193 C192 1.387 1_556 S
C193 C195 1.387 1_545 S
H194 C201 0.950 . S
C195 C193 1.387 1_565 S
C195 C197 1.390 . S
C195 H199 0.950 . S
H196 C192 0.950 . S
C197 C195 1.390 . S
C197 C198 1.387 . S
C197 H200 0.950 . S
C198 C197 1.387 . S
C198 C201 1.387 1_556 S
H199 C195 0.950 . S
H200 C197 0.950 . S
C201 C192 1.390 1_565 S
C201 H194 0.950 . S
C201 C198 1.387 1_554 S
C202 C203 1.387 . S
C202 H206 0.950 . S
C202 C211 1.390 . S
C203 C202 1.387 . S
C203 C205 1.387 . S
H204 C211 0.950 . S
C205 C203 1.387 . S
C205 C207 1.390 . S
C205 H209 0.950 . S
H206 C202 0.950 . S
C207 C205 1.390 . S
C207 C208 1.387 . S
C207 H210 0.950 . S
C208 C207 1.387 . S
C208 C211 1.387 . S
H209 C205 0.950 . S
H210 C207 0.950 . S
C211 C202 1.390 . S
C211 H204 0.950 . S
C211 C208 1.387 . S
C212 C213 1.387 . S
C212 H216 0.950 . S
C212 C221 1.390 1_655 S
C213 C212 1.387 . S
C213 C215 1.387 1_655 S
H214 C221 0.950 . S
C215 C213 1.387 1_455 S
C215 C217 1.390 . S
C215 H219 0.950 . S
H216 C212 0.950 . S
C217 C215 1.390 . S
C217 C218 1.387 . S
C217 H220 0.950 . S
C218 C217 1.387 . S
C218 C221 1.387 . S
H219 C215 0.950 . S
H220 C217 0.950 . S
C221 C212 1.390 1_455 S
C221 H214 0.950 . S
C221 C218 1.387 . S
C222 C223 1.387 . S
C222 H226 0.950 . S
C222 C231 1.390 1_545 S
C223 C222 1.387 . S
C223 C225 1.387 . S
H224 C231 0.950 . S
C225 C223 1.387 . S
C225 C227 1.390 . S
C225 H229 0.950 . S
H226 C222 0.950 . S
C227 C225 1.390 . S
C227 C228 1.387 1_545 S
C227 H230 0.950 1_545 S
C228 C227 1.387 1_565 S
C228 C231 1.387 . S
H229 C225 0.950 . S
H230 C227 0.950 1_565 S
C231 C222 1.390 1_565 S
C231 H224 0.950 . S
C231 C228 1.387 . S
C232 C233 1.387 . S
C232 H236 0.950 . S
C232 C241 1.390 . S
C233 C232 1.387 . S
C233 C235 1.387 . S
H234 C241 0.950 . S
C235 C233 1.387 . S
C235 C237 1.390 . S
C235 H239 0.950 . S
H236 C232 0.950 . S
C237 C235 1.390 . S
C237 C238 1.387 . S
C237 H240 0.950 . S
C238 C237 1.387 . S
C238 C241 1.387 . S
H239 C235 0.950 . S
H240 C237 0.950 . S
C241 C232 1.390 . S
C241 H234 0.950 . S
C241 C238 1.387 . S
C242 C243 1.387 1_655 S
C242 H246 0.950 . S
C242 C251 1.390 . S
C243 C242 1.387 1_455 S
C243 C245 1.387 . S
H244 C251 0.950 . S
C245 C243 1.387 . S
C245 C247 1.390 1_455 S
C245 H249 0.950 . S
H246 C242 0.950 . S
C247 C245 1.390 1_655 S
C247 C248 1.387 . S
C247 H250 0.950 . S
C248 C247 1.387 . S
C248 C251 1.387 . S
H249 C245 0.950 . S
H250 C247 0.950 . S
C251 C242 1.390 . S
C251 H244 0.950 . S
C251 C248 1.387 . S
C252 C253 1.387 . S
C252 H256 0.950 . S
C252 C261 1.390 . S
C253 C252 1.387 . S
C253 C255 1.387 1_545 S
H254 C261 0.950 . S
C255 C253 1.387 1_565 S
C255 C257 1.390 . S
C255 H259 0.950 . S
H256 C252 0.950 . S
C257 C255 1.390 . S
C257 C258 1.387 . S
C257 H260 0.950 . S
C258 C257 1.387 . S
C258 C261 1.387 1_565 S
H259 C255 0.950 . S
H260 C257 0.950 . S
C261 C252 1.390 . S
C261 H254 0.950 . S
C261 C258 1.387 1_545 S
C262 C263 1.387 . S
C262 H266 0.950 . S
C262 C271 1.390 . S
C263 C262 1.387 . S
C263 C265 1.387 . S
H264 C271 0.950 . S
C265 C263 1.387 . S
C265 C267 1.390 . S
C265 H269 0.950 . S
H266 C262 0.950 . S
C267 C265 1.390 . S
C267 C268 1.387 . S
C267 H270 0.950 . S
C268 C267 1.387 . S
C268 C271 1.387 . S
H269 C265 0.950 . S
H270 C267 0.950 . S
C271 C262 1.390 . S
C271 H264 0.950 . S
C271 C268 1.387 . S
C272 C273 1.387 . S
C272 H276 0.950 . S
C272 C281 1.390 1_455 S
C273 C272 1.387 . S
C273 C275 1.387 1_455 S
H274 C281 0.950 1_455 S
C275 C273 1.387 1_655 S
C275 C277 1.390 . S
C275 H279 0.950 . S
H276 C272 0.950 . S
C277 C275 1.390 . S
C277 C278 1.387 . S
C277 H280 0.950 . S
C278 C277 1.387 . S
C278 C281 1.387 . S
H279 C275 0.950 . S
H280 C277 0.950 . S
C281 C272 1.390 1_655 S
C281 H274 0.950 1_655 S
C281 C278 1.387 . S
C282 C283 1.387 . S
C282 H286 0.950 . S
C282 C291 1.390 . S
C283 C282 1.387 . S
C283 C285 1.387 1_565 S
H284 C291 0.950 . S
C285 C283 1.387 1_545 S
C285 C287 1.390 . S
C285 H289 0.950 . S
H286 C282 0.950 . S
C287 C285 1.390 . S
C287 C288 1.387 . S
C287 H290 0.950 . S
C288 C287 1.387 . S
C288 C291 1.387 1_545 S
H289 C285 0.950 . S
H290 C287 0.950 . S
C291 C282 1.390 . S
C291 H284 0.950 . S
C291 C288 1.387 1_565 S
C292 C293 1.387 . S
C292 H296 0.950 . S
C292 C301 1.390 . S
C293 C292 1.387 . S
C293 C295 1.387 . S
H294 C301 0.950 . S
C295 C293 1.387 . S
C295 C297 1.390 . S
C295 H299 0.950 . S
H296 C292 0.950 . S
C297 C295 1.390 . S
C297 C298 1.387 . S
C297 H300 0.950 . S
C298 C297 1.387 . S
C298 C301 1.387 . S
H299 C295 0.950 . S
H300 C297 0.950 . S
C301 C292 1.390 . S
C301 H294 0.950 . S
C301 C298 1.387 . S
C302 C303 1.387 . S
C302 H306 0.950 1_554 S
C302 C311 1.390 1_455 S
C303 C302 1.387 . S
C303 C305 1.387 . S
H304 C311 0.950 . S
C305 C303 1.387 . S
C305 C307 1.390 . S
C305 H309 0.950 . S
H306 C302 0.950 1_556 S
C307 C305 1.390 . S
C307 C308 1.387 1_455 S
C307 H310 0.950 . S
C308 C307 1.387 1_655 S
C308 C311 1.387 . S
H309 C305 0.950 . S
H310 C307 0.950 . S
C311 C302 1.390 1_655 S
C311 H304 0.950 . S
C311 C308 1.387 . S
C312 C313 1.387 . S
C312 H316 0.950 . S
C312 C321 1.390 . S
C313 C312 1.387 . S
C313 C315 1.387 . S
H314 C321 0.950 . S
C315 C313 1.387 . S
C315 C317 1.390 . S
C315 H319 0.950 . S
H316 C312 0.950 . S
C317 C315 1.390 . S
C317 C318 1.387 . S
C317 H320 0.950 . S
C318 C317 1.387 . S
C318 C321 1.387 . S
H319 C315 0.950 . S
H320 C317 0.950 . S
C321 C312 1.390 . S
C321 H314 0.950 . S
C321 C318 1.387 . S
C322 C323 1.387 . S
C322 H326 0.950 . S
C322 C331 1.390 . S
C323 C322 1.387 . S
C323 C325 1.387 1_556 S
H324 C331 0.950 . S
C325 C323 1.387 1_554 S
C325 C327 1.390 . S
C325 H329 0.950 . S
H326 C322 0.950 . S
C327 C325 1.390 . S
C327 C328 1.387 . S
C327 H330 0.950 . S
C328 C327 1.387 . S
C328 C331 1.387 1_554 S
H329 C325 0.950 . S
H330 C327 0.950 . S
C331 C322 1.390 . S
C331 H324 0.950 . S
C331 C328 1.387 1_556 S
C332 C333 1.387 . S
C332 H336 0.950 . S
C332 C341 1.390 . S
C333 C332 1.387 . S
C333 C335 1.387 . S
H334 C341 0.950 . S
C335 C333 1.387 . S
C335 C337 1.390 . S
C335 H339 0.950 . S
H336 C332 0.950 . S
C337 C335 1.390 . S
C337 C338 1.387 . S
C337 H340 0.950 . S
C338 C337 1.387 . S
C338 C341 1.387 . S
H339 C335 0.950 . S
H340 C337 0.950 . S
C341 C332 1.390 . S
C341 H334 0.950 . S
C341 C338 1.387 . S
C342 C343 1.387 . S
C342 H346 0.950 . S
C342 C351 1.390 . S
C343 C342 1.387 . S
C343 C345 1.387 . S
H344 C351 0.950 . S
C345 C343 1.387 . S
C345 C347 1.390 . S
C345 H349 0.950 . S
H346 C342 0.950 . S
C347 C345 1.390 . S
C347 C348 1.387 . S
C347 H350 0.950 . S
C348 C347 1.387 . S
C348 C351 1.387 . S
H349 C345 0.950 . S
H350 C347 0.950 . S
C351 C342 1.390 . S
C351 H344 0.950 . S
C351 C348 1.387 . S
C352 C353 1.387 . S
C352 H356 0.950 . S
C352 C361 1.390 . S
C353 C352 1.387 . S
C353 C355 1.387 . S
H354 C361 0.950 . S
C355 C353 1.387 . S
C355 C357 1.390 . S
C355 H359 0.950 . S
H356 C352 0.950 . S
C357 C355 1.390 . S
C357 C358 1.387 . S
C357 H360 0.950 . S
C358 C357 1.387 . S
C358 C361 1.387 . S
H359 C355 0.950 . S
H360 C357 0.950 . S
C361 C352 1.390 . S
C361 H354 0.950 . S
C361 C358 1.387 . S
C362 C363 1.387 . S
C362 H366 0.950 . S
C362 C371 1.390 . S
C363 C362 1.387 . S
C363 C365 1.387 . S
H364 C371 0.950 . S
C365 C363 1.387 . S
C365 C367 1.390 . S
C365 H369 0.950 . S
H366 C362 0.950 . S
C367 C365 1.390 . S
C367 C368 1.387 . S
C367 H370 0.950 . S
C368 C367 1.387 . S
C368 C371 1.387 . S
H369 C365 0.950 . S
H370 C367 0.950 . S
C371 C362 1.390 . S
C371 H364 0.950 . S
C371 C368 1.387 . S
C193 C2 1.433 . S
C198 N173 1.478 . S
C203 C34 1.437 . S
C208 N13 1.481 . S
C213 C66 1.433 . S
C218 N45 1.478 . S
C223 N77 1.479 . S
C228 C98 1.434 . S
C233 N109 1.478 . S
C238 C130 1.433 . S
C243 C162 1.438 . S
C248 N141 1.481 . S
C253 C4 1.279 . S
C258 N114 1.232 . S
C263 C36 1.277 . S
C268 N146 1.228 . S
C273 N178 1.228 . S
C278 C68 1.277 . S
C283 C100 1.279 . S
C288 N18 1.232 . S
C293 N50 1.228 1_556 S
C298 C132 1.277 . S
C303 C164 1.280 1_554 S
C308 N82 1.232 . S
C313 C6 1.783 . S
C318 C157 1.676 . S
C323 C189 1.675 . S
C328 C38 1.783 . S
C333 C29 1.679 . S
C338 C70 1.785 . S
C343 C102 1.785 . S
C348 C61 1.679 . S
C353 C93 1.679 . S
C358 C134 1.784 . S
C363 C125 1.677 . S
C368 C166 1.785 . S
