# Generated by pormake.
# Topology hcp, (12)-cn, num edge types: 1
# Building blocks:
#     Node 0, Type 0, BuildingBlock: EZIPEK_clean_sbu_0, # of connection points: 12
#     Node 1, Type 0, BuildingBlock: EZIPEK_clean_sbu_0, # of connection points: 12
#     Edge 2, Type (0, 0), BuildingBlock: FUNLAD_clean_linker_1, # of connection points: 2
#     Edge 3, Type (0, 0), BuildingBlock: FUNLAD_clean_linker_1, # of connection points: 2
#     Edge 4, Type (0, 0), BuildingBlock: FUNLAD_clean_linker_1, # of connection points: 2
#     Edge 5, Type (0, 0), BuildingBlock: FUNLAD_clean_linker_1, # of connection points: 2
#     Edge 6, Type (0, 0), BuildingBlock: FUNLAD_clean_linker_1, # of connection points: 2
#     Edge 7, Type (0, 0), BuildingBlock: FUNLAD_clean_linker_1, # of connection points: 2
#     Edge 8, Type (0, 0), BuildingBlock: FUNLAD_clean_linker_1, # of connection points: 2
#     Edge 9, Type (0, 0), BuildingBlock: FUNLAD_clean_linker_1, # of connection points: 2
#     Edge 10, Type (0, 0), BuildingBlock: FUNLAD_clean_linker_1, # of connection points: 2
#     Edge 11, Type (0, 0), BuildingBlock: FUNLAD_clean_linker_1, # of connection points: 2
#     Edge 12, Type (0, 0), BuildingBlock: FUNLAD_clean_linker_1, # of connection points: 2
#     Edge 13, Type (0, 0), BuildingBlock: FUNLAD_clean_linker_1, # of connection points: 2
# Relax obj value: 0.186
# Max RMSD: 0.270
# Mean RMSD: 0.270
data_MOF--net-hcp--node1-EZIPEK_clean_sbu_0--edge1-FUNLAD_clean_linker_1
_symmetry_space_group_name_H-M    P1
_symmetry_Int_Tables_number       1
_symmetry_cell_setting            triclinic
loop_
_symmetry_equiv_pos_as_xyz
'x, y, z'
_cell_length_a     19.270492
_cell_length_b     19.28901
_cell_length_c     30.18389
_cell_angle_alpha  90.694864
_cell_angle_beta   89.953754
_cell_angle_gamma 120.45542
loop_
_atom_site_label
_atom_site_type_symbol
_atom_site_fract_x
_atom_site_fract_y
_atom_site_fract_z
_atom_type_partial_charge
C0 C 0.63493 0.07377 0.29303 0.0
C1 C 0.81915 0.38156 0.16762 0.0
C2 C 0.52287 0.2566 0.42274 0.0
C3 C 0.68291 0.56875 0.28918 0.0
C4 C 0.43238 0.34573 0.29446 0.0
C5 C 0.54625 0.14911 0.17005 0.0
C6 C 0.73725 0.47283 0.41876 0.0
C7 C 0.87851 0.29877 0.28554 0.0
C8 C 0.90849 0.54734 0.29 0.0
C9 C 0.58851 0.41978 0.16997 0.0
C10 C 0.73499 0.25689 0.41908 0.0
C11 C 0.40826 0.10183 0.29302 0.0
Eu12 Eu 0.70256 0.24618 0.24056 0.0
O13 O 0.65422 0.32 0.21963 0.0
O14 O 0.70811 0.25648 0.31224 0.0
Eu15 Eu 0.53227 0.27083 0.24271 0.0
Eu16 Eu 0.78225 0.37839 0.33753 0.0
O17 O 0.58708 0.20594 0.26867 0.0
O18 O 0.76976 0.36762 0.26666 0.0
Eu19 Eu 0.59003 0.20055 0.33991 0.0
Eu20 Eu 0.7302 0.44393 0.24076 0.0
O21 O 0.54094 0.27182 0.3144 0.0
O22 O 0.61088 0.38863 0.26877 0.0
O23 O 0.72536 0.44083 0.31253 0.0
O24 O 0.66008 0.32457 0.35738 0.0
Eu25 Eu 0.60541 0.39245 0.3399 0.0
O26 O 0.6721 0.11979 0.25819 0.0
O27 O 0.78137 0.30587 0.18145 0.0
O28 O 0.54665 0.3304 0.40689 0.0
O29 O 0.63606 0.51844 0.32065 0.0
O30 O 0.43953 0.30614 0.25982 0.0
O31 O 0.50556 0.18278 0.18605 0.0
O32 O 0.78634 0.44794 0.4025 0.0
O33 O 0.87592 0.3461 0.31746 0.0
O34 O 0.85928 0.53949 0.25673 0.0
O35 O 0.66399 0.46357 0.18497 0.0
O36 O 0.65864 0.20714 0.40527 0.0
O37 O 0.46039 0.10635 0.32382 0.0
O38 O 0.67341 0.46564 0.39812 0.0
O39 O 0.48389 0.37815 0.32808 0.0
O40 O 0.82192 0.25669 0.25523 0.0
O41 O 0.61886 0.1652 0.18444 0.0
O42 O 0.80962 0.44103 0.18436 0.0
O43 O 0.7241 0.55435 0.25862 0.0
O44 O 0.60297 0.09279 0.3267 0.0
O45 O 0.52449 0.19795 0.4005 0.0
O46 O 0.42224 0.15509 0.26161 0.0
O47 O 0.53298 0.34741 0.1849 0.0
O48 O 0.79177 0.31514 0.39548 0.0
O49 O 0.89128 0.49687 0.32316 0.0
C50 C 0.30132 0.41433 0.78027 0.0
C51 C 0.17109 0.59367 0.65999 0.0
C52 C 0.46771 0.70792 0.9173 0.0
C53 C 0.35508 0.9097 0.7928 0.0
C54 C 0.25864 0.74789 0.91075 0.0
C55 C 0.08656 0.44024 0.77083 0.0
C56 C 0.58311 0.88773 0.80139 0.0
C57 C 0.43005 0.58676 0.6665 0.0
C58 C 0.43972 0.85005 0.67187 0.0
C59 C 0.10709 0.68939 0.77575 0.0
C60 C 0.55262 0.64184 0.79305 0.0
C61 C 0.22192 0.51417 0.90963 0.0
Eu62 Eu 0.27064 0.54811 0.73073 0.0
O63 O 0.22132 0.61809 0.75742 0.0
O64 O 0.38436 0.60442 0.76347 0.0
Eu65 Eu 0.20089 0.61023 0.82766 0.0
Eu66 Eu 0.46243 0.72594 0.74116 0.0
O67 O 0.25896 0.54644 0.80233 0.0
O68 O 0.34254 0.6735 0.71298 0.0
Eu69 Eu 0.37255 0.58701 0.83414 0.0
Eu70 Eu 0.28466 0.73879 0.73534 0.0
O71 O 0.32048 0.65747 0.85304 0.0
O72 O 0.28146 0.73068 0.80688 0.0
O73 O 0.39997 0.78198 0.76742 0.0
O74 O 0.4441 0.70999 0.81205 0.0
Eu75 Eu 0.39845 0.78144 0.83881 0.0
O76 O 0.27266 0.43497 0.74596 0.0
O77 O 0.19534 0.54349 0.6727 0.0
O78 O 0.45524 0.76665 0.90327 0.0
O79 O 0.3934 0.89327 0.82398 0.0
O80 O 0.19989 0.68185 0.89009 0.0
O81 O 0.09572 0.48969 0.80472 0.0
O82 O 0.57103 0.8426 0.76511 0.0
O83 O 0.47915 0.65906 0.6843 0.0
O84 O 0.3641 0.82507 0.68351 0.0
O85 O 0.16395 0.72819 0.7457 0.0
O86 O 0.49439 0.59998 0.82215 0.0
O87 O 0.29559 0.52982 0.89721 0.0
O88 O 0.52914 0.87464 0.83244 0.0
O89 O 0.3333 0.79258 0.89633 0.0
O90 O 0.35225 0.53887 0.67738 0.0
O91 O 0.14161 0.4512 0.74069 0.0
O92 O 0.19854 0.66799 0.67694 0.0
O93 O 0.3116 0.86171 0.7591 0.0
O94 O 0.33789 0.45968 0.81596 0.0
O95 O 0.44577 0.63991 0.8953 0.0
O96 O 0.17466 0.53134 0.88603 0.0
O97 O 0.10914 0.64436 0.80829 0.0
O98 O 0.55268 0.69033 0.76178 0.0
O99 O 0.48467 0.82015 0.68738 0.0
H100 H 0.19159 0.78405 0.95712 0.0
C101 C 0.24433 0.77814 0.95333 0.0
H102 H 0.35763 0.80503 0.978 0.0
H103 H 0.49373 0.14536 0.0532 0.0
H104 H 0.52951 0.18048 0.97631 0.0
H105 H 0.4693 0.07741 0.91695 0.0
H106 H 0.37283 0.93858 0.93419 0.0
C107 C 0.30577 0.81232 0.98308 0.0
C108 C 0.31967 0.87634 1.01623 0.0
C109 C 0.37597 0.95758 1.00597 0.0
C110 C 0.41112 0.01703 1.04032 0.0
C111 C 0.4665 0.0975 1.02866 0.0
C112 C 0.48722 0.1186 0.98459 0.0
C113 C 0.45338 0.06059 0.95116 0.0
C114 C 0.39848 0.98099 0.96153 0.0
H115 H 0.54393 0.06867 0.11601 0.0
C116 C 0.50767 0.08866 0.13342 0.0
H117 H 0.39147 0.07338 0.14043 0.0
H118 H 0.20481 0.73021 0.04596 0.0
H119 H 0.15921 0.69649 0.12213 0.0
H120 H 0.21803 0.79961 0.18158 0.0
H121 H 0.32397 0.93566 0.16615 0.0
C122 C 0.42928 0.05675 0.12185 0.0
C123 C 0.38989 0.9954 0.0852 0.0
C124 C 0.32761 0.91579 0.09485 0.0
C125 C 0.29301 0.85625 0.06037 0.0
C126 C 0.23281 0.77706 0.07108 0.0
C127 C 0.20609 0.75715 0.1145 0.0
C128 C 0.2393 0.81512 0.14805 0.0
C129 C 0.29983 0.89331 0.13866 0.0
H130 H 0.42515 0.50696 0.611 0.0
C131 C 0.46558 0.5577 0.63201 0.0
H132 H 0.58688 0.64013 0.6492 0.0
H133 H 0.75507 0.46805 0.55801 0.0
H134 H 0.77967 0.45786 0.63608 0.0
H135 H 0.71572 0.49738 0.69407 0.0
H136 H 0.62583 0.54635 0.67479 0.0
C137 C 0.54645 0.59228 0.6266 0.0
C138 C 0.58529 0.56764 0.5912 0.0
C139 C 0.63789 0.53898 0.60302 0.0
C140 C 0.67532 0.5161 0.56949 0.0
C141 C 0.72567 0.48615 0.58227 0.0
C142 C 0.74051 0.48042 0.62685 0.0
C143 C 0.70443 0.50274 0.65954 0.0
C144 C 0.65315 0.53099 0.648 0.0
H145 H 0.80149 0.55978 0.47466 0.0
C146 C 0.74622 0.50583 0.46467 0.0
H147 H 0.62452 0.42286 0.47765 0.0
H148 H 0.50375 0.63671 0.55609 0.0
H149 H 0.48791 0.65523 0.47841 0.0
H150 H 0.55135 0.61423 0.42084 0.0
H151 H 0.63166 0.5552 0.44088 0.0
C152 C 0.67816 0.47707 0.48927 0.0
C153 C 0.66138 0.52268 0.52413 0.0
C154 C 0.61408 0.55721 0.5124 0.0
C155 C 0.57639 0.57987 0.54571 0.0
C156 C 0.53155 0.61595 0.53244 0.0
C157 C 0.52244 0.62759 0.48785 0.0
C158 C 0.55814 0.60452 0.45545 0.0
C159 C 0.60358 0.56999 0.46739 0.0
H160 H 0.86146 0.34715 0.1082 0.0
C161 C 0.87532 0.39753 0.13032 0.0
H162 H 0.96245 0.51714 0.14764 0.0
H163 H 0.14046 0.36642 1.01697 0.0
H164 H 0.12999 0.2864 0.08095 0.0
H165 H 0.06377 0.29399 0.14937 0.0
H166 H 0.00552 0.37991 0.15387 0.0
C167 C 0.94613 0.46632 0.12543 0.0
C168 C 0.00232 0.4748 0.08852 0.0
C169 C 0.03825 0.42608 0.08663 0.0
C170 C 0.07971 0.42428 0.0477 0.0
C171 C 0.11042 0.37154 0.04603 0.0
C172 C 0.1047 0.32529 0.08249 0.0
C173 C 0.0672 0.32937 0.12099 0.0
C174 C 0.03372 0.3786 0.1231 0.0
H175 H 0.23836 0.50418 0.98168 0.0
C176 C 0.19359 0.48819 0.95584 0.0
H177 H 0.0724 0.44702 0.93997 0.0
H178 H 0.95448 0.58586 0.0844 0.0
H179 H 0.97581 0.67522 1.0235 0.0
H180 H 0.04846 0.67358 0.95659 0.0
H181 H 0.10213 0.58421 0.9507 0.0
C182 C 0.11587 0.46216 0.96665 0.0
C183 C 0.088 0.47356 1.01125 0.0
C184 C 0.05883 0.52803 1.01513 0.0
C185 C 0.01645 0.52884 0.05371 0.0
C186 C 0.98694 0.58273 0.05593 0.0
C187 C -0.00118 0.63444 1.02122 0.0
C188 C 0.03986 0.63363 0.9836 0.0
C189 C 0.06992 0.58157 0.98051 0.0
H190 H 0.52579 0.92468 0.619 0.0
C191 C 0.47492 0.9161 0.63872 0.0
H192 H 0.3952 0.95812 0.65386 0.0
H193 H 0.5637 0.29304 0.56093 0.0
H194 H 0.59316 0.33502 0.6382 0.0
H195 H 0.56819 0.23744 0.69636 0.0
H196 H 0.51237 0.09528 0.6783 0.0
C197 C 0.44297 0.96394 0.63225 0.0
C198 C 0.46737 0.02504 0.59615 0.0
C199 C 0.50183 0.10813 0.6071 0.0
C200 C 0.5173 0.16557 0.57332 0.0
C201 C 0.55167 0.24759 0.5853 0.0
C202 C 0.56919 0.27251 0.62938 0.0
C203 C 0.55484 0.21714 0.66224 0.0
C204 C 0.52215 0.13589 0.65145 0.0
H205 H 0.4472 0.23538 0.48309 0.0
C206 C 0.49984 0.23579 0.46997 0.0
H207 H 0.58738 0.2023 0.47733 0.0
H208 H 0.39109 0.87047 0.56324 0.0
H209 H 0.35549 0.82872 0.48675 0.0
H210 H 0.38436 0.92834 0.42857 0.0
H211 H 0.44804 0.07019 0.44686 0.0
C212 C 0.53502 0.20033 0.49195 0.0
C213 C 0.49853 0.14057 0.52851 0.0
C214 C 0.46116 0.05722 0.51778 0.0
C215 C 0.44533 -0.00037 0.55141 0.0
C216 C 0.40629 0.91707 0.53924 0.0
C217 C 0.3851 0.89208 0.49535 0.0
C218 C 0.40137 0.94813 0.46261 0.0
C219 C 0.43863 0.02961 0.47352 0.0
H220 H 0.51891 0.41457 0.11024 0.0
C221 C 0.56427 0.45502 0.13393 0.0
H222 H 0.6388 0.57467 0.15584 0.0
H223 H 0.67419 0.75782 0.97938 0.0
H224 H 0.8129 0.79932 0.99784 0.0
H225 H 0.84415 0.73833 0.06039 0.0
H226 H 0.7378 0.6359 0.10479 0.0
C227 C 0.59487 0.53532 0.13121 0.0
C228 C 0.57514 0.57445 0.09436 0.0
C229 C 0.63857 0.6354 0.06896 0.0
C230 C 0.62081 0.67005 1.03232 0.0
C231 C 0.6849 0.72926 1.00708 0.0
C232 C 0.76455 0.75374 1.01743 0.0
C233 C 0.78213 0.71952 0.05272 0.0
C234 C 0.72026 0.6609 0.07816 0.0
H235 H 0.50887 0.7592 0.98564 0.0
C236 C 0.50315 0.7135 0.96213 0.0
H237 H 0.5159 0.61188 0.95084 0.0
H238 H 0.43889 0.47271 0.14101 0.0
H239 H 0.30147 0.42967 0.12022 0.0
H240 H 0.27223 0.49035 0.05704 0.0
H241 H 0.37996 0.58892 1.01122 0.0
C242 C 0.5207 0.65675 0.97469 0.0
C243 C 0.54006 0.64397 1.02072 0.0
C244 C 0.4771 0.58774 0.04794 0.0
C245 C 0.4944 0.55334 0.08491 0.0
C246 C 0.42964 0.49801 0.11142 0.0
C247 C 0.35036 0.474 0.10044 0.0
C248 C 0.33373 0.50751 0.06451 0.0
C249 C 0.39606 0.56383 1.03849 0.0
H250 H 0.77437 0.2128 0.47619 0.0
C251 C 0.76138 0.25865 0.46564 0.0
H252 H 0.78031 0.37492 0.47523 0.0
H253 H 0.94807 0.38765 0.66633 0.0
H254 H 0.81724 0.28016 0.68913 0.0
H255 H 0.70523 0.21199 0.63574 0.0
H256 H 0.72408 0.24911 0.55819 0.0
C257 C 0.79312 0.33017 0.48788 0.0
C258 C 0.86282 0.36307 0.5199 0.0
C259 C 0.85126 0.34149 0.56509 0.0
C260 C 0.9162 0.38195 0.5962 0.0
C261 C 0.90179 0.35886 0.64114 0.0
C262 C 0.82658 0.29774 0.65486 0.0
C263 C 0.76351 0.25916 0.6247 0.0
C264 C 0.77521 0.28085 0.58031 0.0
H265 H 0.08971 0.60308 0.61089 0.0
C266 C 0.10542 0.56186 0.62582 0.0
H267 H 0.07569 0.44077 0.63173 0.0
H268 H 0.9074 0.42274 0.43627 0.0
H269 H 0.03924 0.52454 0.4121 0.0
H270 H 0.15297 0.58863 0.46486 0.0
H271 H 0.13463 0.55212 0.54202 0.0
C272 C 0.06251 0.48226 0.61486 0.0
C273 C 0.99323 0.44474 0.58232 0.0
C274 C 0.00526 0.46495 0.53679 0.0
C275 C 0.93997 0.42551 0.50594 0.0
C276 C 0.95412 0.44924 0.46105 0.0
C277 C 0.02992 0.50781 0.44665 0.0
C278 C 0.09383 0.54398 0.47634 0.0
C279 C 0.08214 0.52283 0.5208 0.0
H280 H 0.60473 0.96163 0.32642 0.0
C281 C 0.63014 0.99569 0.29632 0.0
H282 H 0.68175 0.99728 0.234 0.0
H283 H 0.7484 0.75595 0.35938 0.0
H284 H 0.8544 0.88081 0.39191 0.0
H285 H 0.87211 0.0114 0.36944 0.0
H286 H 0.78318 0.01773 0.31479 0.0
C287 C 0.6578 0.96626 0.26501 0.0
C288 C 0.65564 0.88962 0.27287 0.0
C289 C 0.7095 0.88743 0.30404 0.0
C290 C 0.70096 0.81261 0.31593 0.0
C291 C 0.75357 0.81152 0.34832 0.0
C292 C 0.81439 0.8827 0.36742 0.0
C293 C 0.82425 0.95619 0.35485 0.0
C294 C 0.77252 0.95892 0.32361 0.0
H295 H 0.73694 0.69269 0.2658 0.0
C296 C 0.68949 0.64759 0.28638 0.0
H297 H 0.58472 0.61803 0.32321 0.0
H298 H 0.54605 0.87442 0.21017 0.0
H299 H 0.44538 0.75024 0.17414 0.0
H300 H 0.43386 0.62058 0.19281 0.0
H301 H 0.52101 0.61378 0.24841 0.0
C302 C 0.63583 0.66347 0.30485 0.0
C303 C 0.64044 0.74073 0.29543 0.0
C304 C 0.58836 0.74318 0.26317 0.0
C305 C 0.59594 0.81794 0.25188 0.0
C306 C 0.543 0.81906 0.21976 0.0
C307 C 0.48512 0.74831 0.1988 0.0
C308 C 0.47842 0.67526 0.2094 0.0
C309 C 0.52901 0.67226 0.2413 0.0
H310 H 0.02278 0.71236 0.73897 0.0
C311 C 0.03418 0.6943 0.77088 0.0
H312 H 0.99219 0.65791 0.83594 0.0
H313 H 0.77331 0.80122 0.7426 0.0
H314 H 0.89797 0.9288 0.73841 0.0
H315 H 0.02604 0.94227 0.76355 0.0
H316 H 0.03028 0.82732 0.79167 0.0
C317 C 0.98149 0.67614 0.80394 0.0
C318 C 0.90367 0.67204 0.79585 0.0
C319 C 0.90193 0.74077 0.78121 0.0
C320 C 0.82777 0.73364 0.76832 0.0
C321 C 0.82781 0.80289 0.75301 0.0
C322 C 0.89898 0.87681 0.75064 0.0
C323 C 0.97113 0.8843 0.76457 0.0
C324 C 0.97283 0.81752 0.78012 0.0
H325 H 0.6366 0.61761 0.82921 0.0
C326 C 0.62521 0.63632 0.79752 0.0
H327 H 0.66661 0.67327 0.73241 0.0
H328 H 0.88546 0.52997 0.82622 0.0
H329 H 0.76057 0.40304 0.83159 0.0
H330 H 0.63268 0.38897 0.80547 0.0
H331 H 0.62882 0.50334 0.77604 0.0
C332 C 0.67753 0.65464 0.76423 0.0
C333 C 0.75537 0.65863 0.7719 0.0
C334 C 0.75711 0.58994 0.78658 0.0
C335 C 0.83123 0.59713 0.7996 0.0
C336 C 0.83103 0.5282 0.81556 0.0
C337 C 0.75971 0.45459 0.81853 0.0
C338 C 0.68767 0.44683 0.80416 0.0
C339 C 0.68615 0.51328 0.7879 0.0
H340 H 0.28802 0.02609 0.26462 0.0
C341 C 0.32822 0.03002 0.29112 0.0
H342 H 0.34534 0.96789 0.34332 0.0
H343 H 0.95494 0.76647 0.28288 0.0
H344 H 0.94763 0.87687 0.31719 0.0
H345 H 0.06898 0.99421 0.34842 0.0
H346 H 0.19915 0.00259 0.345 0.0
C347 C 0.30533 0.96737 0.3178 0.0
C348 C 0.23039 0.89152 0.30697 0.0
C349 C 0.15505 0.88756 0.30997 0.0
C350 C 0.08492 0.8193 0.29285 0.0
C351 C 0.01025 0.81683 0.29567 0.0
C352 C 0.00514 0.87978 0.31529 0.0
C353 C 0.07362 0.94603 0.33276 0.0
C354 C 0.14789 0.95023 0.3303 0.0
H355 H 0.02625 0.62458 0.32073 0.0
C356 C 0.98863 0.61882 0.2924 0.0
H357 H 0.97802 0.67678 0.2359 0.0
H358 H 0.36624 0.88087 0.29642 0.0
H359 H 0.37291 0.7692 0.26356 0.0
H360 H 0.25063 0.64924 0.23553 0.0
H361 H 0.1201 0.6401 0.23967 0.0
C362 C 0.01513 0.67874 0.26352 0.0
C363 C 0.09016 0.75433 0.27436 0.0
C364 C 0.1652 0.75755 0.27214 0.0
C365 C 0.23566 0.82657 0.2884 0.0
C366 C 0.3105 0.82959 0.28482 0.0
C367 C 0.31526 0.76588 0.26602 0.0
C368 C 0.2462 0.69812 0.25032 0.0
C369 C 0.17179 0.69353 0.25322 0.0
H370 H 0.24816 0.2904 0.7548 0.0
C371 C 0.29309 0.33472 0.77742 0.0
H372 H 0.38948 0.36197 0.82122 0.0
H373 H 0.26772 0.9963 0.85961 0.0
H374 H 0.25599 0.04511 0.93188 0.0
H375 H 0.28016 0.18282 0.94173 0.0
H376 H 0.31651 0.2724 0.87929 0.0
C377 C 0.34374 0.31807 0.79881 0.0
C378 C 0.33709 0.23853 0.79337 0.0
C379 C 0.31717 0.18766 0.83045 0.0
C380 C 0.30462 0.10896 0.82492 0.0
C381 C 0.2812 0.05787 0.86213 0.0
C382 C 0.27327 0.0848 0.9038 0.0
C383 C 0.28677 0.16225 0.90932 0.0
C384 C 0.30784 0.21314 0.87316 0.0
H385 H 0.40697 0.03341 0.81848 0.0
C386 C 0.36065 0.98805 0.79686 0.0
H387 H 0.26067 0.95841 0.75537 0.0
H388 H 0.38824 0.32589 0.71673 0.0
H389 H 0.39596 0.27569 0.64401 0.0
H390 H 0.36389 0.13551 0.63343 0.0
H391 H 0.32858 0.04627 0.69595 0.0
C392 C 0.30755 0.00304 0.77697 0.0
C393 C 0.31379 0.0823 0.78245 0.0
C394 C 0.33268 0.13273 0.74529 0.0
C395 C 0.34683 0.21198 0.75097 0.0
C396 C 0.37196 0.2635 0.71392 0.0
C397 C 0.37751 0.23573 0.67201 0.0
C398 C 0.35983 0.15694 0.6661 0.0
C399 C 0.33926 0.10624 0.7023 0.0
H400 H 0.35224 0.37896 0.32796 0.0
C401 C 0.36028 0.35266 0.29768 0.0
H402 H 0.30977 0.30048 0.2351 0.0
H403 H 0.00163 0.23794 0.36245 0.0
H404 H 0.02704 0.14247 0.40027 0.0
H405 H 0.14382 0.12883 0.38033 0.0
H406 H 0.23438 0.20868 0.32185 0.0
C407 C 0.30293 0.32487 0.26636 0.0
C408 C 0.2281 0.3265 0.27465 0.0
C409 C 0.17378 0.2763 0.30761 0.0
C410 C 0.10609 0.2833 0.31871 0.0
C411 C 0.05367 0.2343 0.35249 0.0
C412 C 0.06756 0.17935 0.37446 0.0
C413 C 0.13317 0.17154 0.36317 0.0
C414 C 0.18535 0.21859 0.32987 0.0
H415 H 0.95144 0.2512 0.25758 0.0
C416 C 0.95124 0.29328 0.28186 0.0
H417 H 0.02127 0.38582 0.32861 0.0
H418 H 0.32118 0.43217 0.21035 0.0
H419 H 0.29255 0.5252 0.1716 0.0
H420 H 0.16947 0.52933 0.18712 0.0
H421 H 0.0773 0.44643 0.24432 0.0
C422 C 0.01821 0.34139 0.30499 0.0
C423 C 0.09168 0.33829 0.2958 0.0
C424 C 0.14432 0.38665 0.26199 0.0
C425 C 0.21338 0.38144 0.25168 0.0
C426 C 0.26686 0.43263 0.21891 0.0
C427 C 0.25112 0.4859 0.19631 0.0
C428 C 0.18201 0.48882 0.20531 0.0
C429 C 0.12942 0.44058 0.23806 0.0
H430 H 0.0019 0.32736 0.73688 0.0
C431 C 0.01088 0.36326 0.76674 0.0
H432 H 0.96627 0.36389 0.83088 0.0
H433 H 0.63078 0.06422 0.75489 0.0
H434 H 0.59783 0.16907 0.74944 0.0
H435 H 0.70099 0.31125 0.7626 0.0
H436 H 0.83719 0.34856 0.78511 0.0
C437 C 0.95856 0.33111 0.80002 0.0
C438 C 0.89412 0.24573 0.79651 0.0
C439 C 0.81539 0.22563 0.78389 0.0
C440 C 0.75635 0.14406 0.77532 0.0
C441 C 0.67803 0.12522 0.76226 0.0
C442 C 0.65846 0.18509 0.75849 0.0
C443 C 0.71641 0.26501 0.76648 0.0
C444 C 0.79416 0.2855 0.77919 0.0
H445 H 0.67118 0.99387 0.83911 0.0
C446 C 0.66067 0.962 0.80757 0.0
H447 H 0.70223 0.96983 0.74182 0.0
H448 H 0.038 0.264 0.82436 0.0
H449 H 0.0688 0.15764 0.83394 0.0
H450 H 0.96557 0.0158 0.81963 0.0
H451 H 0.8311 0.97954 0.79475 0.0
C452 C 0.71232 0.99787 0.77443 0.0
C453 C 0.77613 0.08304 0.7802 0.0
C454 C 0.85413 0.10286 0.79416 0.0
C455 C 0.91337 0.18448 0.80246 0.0
C456 C 0.99091 0.20295 0.81694 0.0
C457 C 0.00926 0.14245 0.82281 0.0
C458 C 0.95114 0.06257 0.81471 0.0
C459 C 0.87431 0.0426 0.80052 0.0
loop_
_geom_bond_atom_site_label_1
_geom_bond_atom_site_label_2
_geom_bond_distance
_geom_bond_site_symmetry_2
_ccdc_geom_bond_type
C0 O26 1.283 . S
C0 O44 1.283 . S
C1 O27 1.283 . S
C1 O42 1.283 . S
C2 O28 1.283 . S
C2 O45 1.283 . S
C3 O29 1.283 . S
C3 O43 1.283 . S
C4 O30 1.283 . S
C4 O39 1.283 . S
C5 O31 1.283 . S
C5 O41 1.283 . S
C6 O32 1.283 . S
C6 O38 1.283 . S
C7 O33 1.283 . S
C7 O40 1.283 . S
C8 O34 1.283 . S
C8 O49 1.283 . S
C9 O35 1.283 . S
C9 O47 1.283 . S
C10 O36 1.283 . S
C10 O48 1.283 . S
C11 O37 1.283 . S
C11 O46 1.283 . S
Eu12 O13 2.370 . S
Eu12 O14 2.370 . S
Eu12 O17 2.370 . S
Eu12 O18 2.370 . S
Eu12 O26 2.363 . S
Eu12 O27 2.363 . S
Eu12 O40 2.363 . S
Eu12 O41 2.363 . S
O13 Eu12 2.370 . S
O13 Eu15 2.370 . S
O13 Eu20 2.370 . S
O14 Eu12 2.370 . S
O14 Eu16 2.370 . S
O14 Eu19 2.370 . S
Eu15 O13 2.370 . S
Eu15 O17 2.370 . S
Eu15 O21 2.370 . S
Eu15 O22 2.370 . S
Eu15 O30 2.363 . S
Eu15 O31 2.363 . S
Eu15 O46 2.363 . S
Eu15 O47 2.363 . S
Eu16 O14 2.370 . S
Eu16 O18 2.370 . S
Eu16 O23 2.370 . S
Eu16 O24 2.370 . S
Eu16 O32 2.363 . S
Eu16 O33 2.363 . S
Eu16 O48 2.363 . S
Eu16 O49 2.363 . S
O17 Eu12 2.370 . S
O17 Eu15 2.370 . S
O17 Eu19 2.370 . S
O18 Eu12 2.370 . S
O18 Eu16 2.370 . S
O18 Eu20 2.370 . S
Eu19 O14 2.370 . S
Eu19 O17 2.370 . S
Eu19 O21 2.370 . S
Eu19 O24 2.370 . S
Eu19 O36 2.363 . S
Eu19 O37 2.363 . S
Eu19 O44 2.363 . S
Eu19 O45 2.363 . S
Eu20 O13 2.370 . S
Eu20 O18 2.370 . S
Eu20 O22 2.370 . S
Eu20 O23 2.370 . S
Eu20 O34 2.363 . S
Eu20 O35 2.363 . S
Eu20 O42 2.363 . S
Eu20 O43 2.363 . S
O21 Eu15 2.370 . S
O21 Eu19 2.370 . S
O21 Eu25 2.370 . S
O22 Eu15 2.370 . S
O22 Eu20 2.370 . S
O22 Eu25 2.370 . S
O23 Eu16 2.370 . S
O23 Eu20 2.370 . S
O23 Eu25 2.370 . S
O24 Eu16 2.370 . S
O24 Eu19 2.370 . S
O24 Eu25 2.370 . S
Eu25 O21 2.370 . S
Eu25 O22 2.370 . S
Eu25 O23 2.370 . S
Eu25 O24 2.370 . S
Eu25 O28 2.363 . S
Eu25 O29 2.363 . S
Eu25 O38 2.363 . S
Eu25 O39 2.363 . S
O26 C0 1.283 . S
O26 Eu12 2.363 . S
O27 C1 1.283 . S
O27 Eu12 2.363 . S
O28 C2 1.283 . S
O28 Eu25 2.363 . S
O29 C3 1.283 . S
O29 Eu25 2.363 . S
O30 C4 1.283 . S
O30 Eu15 2.363 . S
O31 C5 1.283 . S
O31 Eu15 2.363 . S
O32 C6 1.283 . S
O32 Eu16 2.363 . S
O33 C7 1.283 . S
O33 Eu16 2.363 . S
O34 C8 1.283 . S
O34 Eu20 2.363 . S
O35 C9 1.283 . S
O35 Eu20 2.363 . S
O36 C10 1.283 . S
O36 Eu19 2.363 . S
O37 C11 1.283 . S
O37 Eu19 2.363 . S
O38 C6 1.283 . S
O38 Eu25 2.363 . S
O39 C4 1.283 . S
O39 Eu25 2.363 . S
O40 C7 1.283 . S
O40 Eu12 2.363 . S
O41 C5 1.283 . S
O41 Eu12 2.363 . S
O42 C1 1.283 . S
O42 Eu20 2.363 . S
O43 C3 1.283 . S
O43 Eu20 2.363 . S
O44 C0 1.283 . S
O44 Eu19 2.363 . S
O45 C2 1.283 . S
O45 Eu19 2.363 . S
O46 C11 1.283 . S
O46 Eu15 2.363 . S
O47 C9 1.283 . S
O47 Eu15 2.363 . S
O48 C10 1.283 . S
O48 Eu16 2.363 . S
O49 C8 1.283 . S
O49 Eu16 2.363 . S
C50 O76 1.283 . S
C50 O94 1.283 . S
C51 O77 1.283 . S
C51 O92 1.283 . S
C52 O78 1.283 . S
C52 O95 1.283 . S
C53 O79 1.283 . S
C53 O93 1.283 . S
C54 O80 1.283 . S
C54 O89 1.283 . S
C55 O81 1.283 . S
C55 O91 1.283 . S
C56 O82 1.283 . S
C56 O88 1.283 . S
C57 O83 1.283 . S
C57 O90 1.283 . S
C58 O84 1.283 . S
C58 O99 1.283 . S
C59 O85 1.283 . S
C59 O97 1.283 . S
C60 O86 1.283 . S
C60 O98 1.283 . S
C61 O87 1.283 . S
C61 O96 1.283 . S
Eu62 O63 2.370 . S
Eu62 O64 2.370 . S
Eu62 O67 2.370 . S
Eu62 O68 2.370 . S
Eu62 O76 2.363 . S
Eu62 O77 2.363 . S
Eu62 O90 2.363 . S
Eu62 O91 2.363 . S
O63 Eu62 2.370 . S
O63 Eu65 2.370 . S
O63 Eu70 2.370 . S
O64 Eu62 2.370 . S
O64 Eu66 2.370 . S
O64 Eu69 2.370 . S
Eu65 O63 2.370 . S
Eu65 O67 2.370 . S
Eu65 O71 2.370 . S
Eu65 O72 2.370 . S
Eu65 O80 2.363 . S
Eu65 O81 2.363 . S
Eu65 O96 2.363 . S
Eu65 O97 2.363 . S
Eu66 O64 2.370 . S
Eu66 O68 2.370 . S
Eu66 O73 2.370 . S
Eu66 O74 2.370 . S
Eu66 O82 2.363 . S
Eu66 O83 2.363 . S
Eu66 O98 2.363 . S
Eu66 O99 2.363 . S
O67 Eu62 2.370 . S
O67 Eu65 2.370 . S
O67 Eu69 2.370 . S
O68 Eu62 2.370 . S
O68 Eu66 2.370 . S
O68 Eu70 2.370 . S
Eu69 O64 2.370 . S
Eu69 O67 2.370 . S
Eu69 O71 2.370 . S
Eu69 O74 2.370 . S
Eu69 O86 2.363 . S
Eu69 O87 2.363 . S
Eu69 O94 2.363 . S
Eu69 O95 2.363 . S
Eu70 O63 2.370 . S
Eu70 O68 2.370 . S
Eu70 O72 2.370 . S
Eu70 O73 2.370 . S
Eu70 O84 2.363 . S
Eu70 O85 2.363 . S
Eu70 O92 2.363 . S
Eu70 O93 2.363 . S
O71 Eu65 2.370 . S
O71 Eu69 2.370 . S
O71 Eu75 2.370 . S
O72 Eu65 2.370 . S
O72 Eu70 2.370 . S
O72 Eu75 2.370 . S
O73 Eu66 2.370 . S
O73 Eu70 2.370 . S
O73 Eu75 2.370 . S
O74 Eu66 2.370 . S
O74 Eu69 2.370 . S
O74 Eu75 2.370 . S
Eu75 O71 2.370 . S
Eu75 O72 2.370 . S
Eu75 O73 2.370 . S
Eu75 O74 2.370 . S
Eu75 O78 2.363 . S
Eu75 O79 2.363 . S
Eu75 O88 2.363 . S
Eu75 O89 2.363 . S
O76 C50 1.283 . S
O76 Eu62 2.363 . S
O77 C51 1.283 . S
O77 Eu62 2.363 . S
O78 C52 1.283 . S
O78 Eu75 2.363 . S
O79 C53 1.283 . S
O79 Eu75 2.363 . S
O80 C54 1.283 . S
O80 Eu65 2.363 . S
O81 C55 1.283 . S
O81 Eu65 2.363 . S
O82 C56 1.283 . S
O82 Eu66 2.363 . S
O83 C57 1.283 . S
O83 Eu66 2.363 . S
O84 C58 1.283 . S
O84 Eu70 2.363 . S
O85 C59 1.283 . S
O85 Eu70 2.363 . S
O86 C60 1.283 . S
O86 Eu69 2.363 . S
O87 C61 1.283 . S
O87 Eu69 2.363 . S
O88 C56 1.283 . S
O88 Eu75 2.363 . S
O89 C54 1.283 . S
O89 Eu75 2.363 . S
O90 C57 1.283 . S
O90 Eu62 2.363 . S
O91 C55 1.283 . S
O91 Eu62 2.363 . S
O92 C51 1.283 . S
O92 Eu70 2.363 . S
O93 C53 1.283 . S
O93 Eu70 2.363 . S
O94 C50 1.283 . S
O94 Eu69 2.363 . S
O95 C52 1.283 . S
O95 Eu69 2.363 . S
O96 C61 1.283 . S
O96 Eu65 2.363 . S
O97 C59 1.283 . S
O97 Eu65 2.363 . S
O98 C60 1.283 . S
O98 Eu66 2.363 . S
O99 C58 1.283 . S
O99 Eu66 2.363 . S
H100 C101 0.951 . S
C101 H100 0.951 . S
C101 C107 1.265 . S
H102 C107 0.950 . S
H103 C111 0.949 . S
H104 C112 0.950 . S
H105 C113 0.951 . S
H106 C114 0.951 . S
C107 C101 1.265 . S
C107 H102 0.950 . S
C107 C108 1.478 . S
C108 C107 1.478 . S
C108 C109 1.397 . S
C108 C125 1.394 . S
C109 C108 1.397 . S
C109 C110 1.438 1_566 S
C109 C114 1.429 . S
C110 C109 1.438 1_544 S
C110 C111 1.428 . S
C110 C123 1.394 . S
C111 H103 0.949 . S
C111 C110 1.428 . S
C111 C112 1.345 1_554 S
C112 H104 0.950 . S
C112 C111 1.345 1_556 S
C112 C113 1.424 1_545 S
C113 H105 0.951 . S
C113 C112 1.424 1_565 S
C113 C114 1.347 . S
C114 H106 0.951 . S
C114 C109 1.429 . S
C114 C113 1.347 . S
H115 C116 0.951 . S
C116 H115 0.951 . S
C116 C122 1.265 . S
H117 C122 0.950 . S
H118 C126 0.949 . S
H119 C127 0.950 . S
H120 C128 0.951 . S
H121 C129 0.951 . S
C122 C116 1.265 . S
C122 H117 0.950 . S
C122 C123 1.478 . S
C123 C110 1.394 . S
C123 C122 1.478 . S
C123 C124 1.397 1_545 S
C124 C123 1.397 1_565 S
C124 C125 1.438 1_554 S
C124 C129 1.429 1_565 S
C125 C108 1.394 . S
C125 C124 1.438 1_556 S
C125 C126 1.428 . S
C126 H118 0.949 . S
C126 C125 1.428 . S
C126 C127 1.345 1_556 S
C127 H119 0.950 . S
C127 C126 1.345 1_554 S
C127 C128 1.424 . S
C128 H120 0.951 . S
C128 C127 1.424 . S
C128 C129 1.347 1_565 S
C129 H121 0.951 . S
C129 C124 1.429 1_545 S
C129 C128 1.347 1_545 S
H130 C131 0.951 . S
C131 H130 0.951 . S
C131 C137 1.265 . S
H132 C137 0.950 . S
H133 C141 0.949 . S
H134 C142 0.950 . S
H135 C143 0.951 . S
H136 C144 0.951 . S
C137 C131 1.265 . S
C137 H132 0.950 . S
C137 C138 1.478 . S
C138 C137 1.478 . S
C138 C139 1.397 . S
C138 C155 1.394 . S
C139 C138 1.397 . S
C139 C140 1.438 . S
C139 C144 1.429 . S
C140 C139 1.438 . S
C140 C141 1.428 . S
C140 C153 1.394 . S
C141 H133 0.949 . S
C141 C140 1.428 . S
C141 C142 1.345 . S
C142 H134 0.950 . S
C142 C141 1.345 . S
C142 C143 1.424 . S
C143 H135 0.951 . S
C143 C142 1.424 . S
C143 C144 1.347 . S
C144 H136 0.951 . S
C144 C139 1.429 . S
C144 C143 1.347 . S
H145 C146 0.951 . S
C146 H145 0.951 . S
C146 C152 1.265 . S
H147 C152 0.950 . S
H148 C156 0.949 . S
H149 C157 0.950 . S
H150 C158 0.951 . S
H151 C159 0.951 . S
C152 C146 1.265 . S
C152 H147 0.950 . S
C152 C153 1.478 . S
C153 C140 1.394 . S
C153 C152 1.478 . S
C153 C154 1.397 . S
C154 C153 1.397 . S
C154 C155 1.438 . S
C154 C159 1.429 . S
C155 C138 1.394 . S
C155 C154 1.438 . S
C155 C156 1.428 . S
C156 H148 0.949 . S
C156 C155 1.428 . S
C156 C157 1.345 . S
C157 H149 0.950 . S
C157 C156 1.345 . S
C157 C158 1.424 . S
C158 H150 0.951 . S
C158 C157 1.424 . S
C158 C159 1.347 . S
C159 H151 0.951 . S
C159 C154 1.429 . S
C159 C158 1.347 . S
H160 C161 0.951 . S
C161 H160 0.951 . S
C161 C167 1.265 . S
H162 C167 0.950 . S
H163 C171 0.949 . S
H164 C172 0.950 . S
H165 C173 0.951 . S
H166 C174 0.951 . S
C167 C161 1.265 . S
C167 H162 0.950 . S
C167 C168 1.478 . S
C168 C167 1.478 . S
C168 C169 1.397 1_655 S
C168 C185 1.394 . S
C169 C168 1.397 1_455 S
C169 C170 1.438 1_554 S
C169 C174 1.429 . S
C170 C169 1.438 1_556 S
C170 C171 1.428 . S
C170 C183 1.394 . S
C171 H163 0.949 . S
C171 C170 1.428 . S
C171 C172 1.345 1_556 S
C172 H164 0.950 . S
C172 C171 1.345 1_554 S
C172 C173 1.424 . S
C173 H165 0.951 . S
C173 C172 1.424 . S
C173 C174 1.347 . S
C174 H166 0.951 . S
C174 C169 1.429 . S
C174 C173 1.347 . S
H175 C176 0.951 . S
C176 H175 0.951 . S
C176 C182 1.265 . S
H177 C182 0.950 . S
H178 C186 0.949 . S
H179 C187 0.950 . S
H180 C188 0.951 . S
H181 C189 0.951 . S
C182 C176 1.265 . S
C182 H177 0.950 . S
C182 C183 1.478 . S
C183 C170 1.394 . S
C183 C182 1.478 . S
C183 C184 1.397 . S
C184 C183 1.397 . S
C184 C185 1.438 1_456 S
C184 C189 1.429 1_455 S
C185 C168 1.394 . S
C185 C184 1.438 1_654 S
C185 C186 1.428 . S
C186 H178 0.949 . S
C186 C185 1.428 . S
C186 C187 1.345 1_554 S
C187 H179 0.950 . S
C187 C186 1.345 1_556 S
C187 C188 1.424 . S
C188 H180 0.951 . S
C188 C187 1.424 . S
C188 C189 1.347 . S
C189 H181 0.951 . S
C189 C184 1.429 1_655 S
C189 C188 1.347 . S
H190 C191 0.951 . S
C191 H190 0.951 . S
C191 C197 1.265 . S
H192 C197 0.950 . S
H193 C201 0.949 . S
H194 C202 0.950 . S
H195 C203 0.951 . S
H196 C204 0.951 . S
C197 C191 1.265 . S
C197 H192 0.950 . S
C197 C198 1.478 . S
C198 C197 1.478 . S
C198 C199 1.397 1_565 S
C198 C215 1.394 . S
C199 C198 1.397 1_545 S
C199 C200 1.438 . S
C199 C204 1.429 . S
C200 C199 1.438 . S
C200 C201 1.428 . S
C200 C213 1.394 . S
C201 H193 0.949 . S
C201 C200 1.428 . S
C201 C202 1.345 . S
C202 H194 0.950 . S
C202 C201 1.345 . S
C202 C203 1.424 . S
C203 H195 0.951 . S
C203 C202 1.424 . S
C203 C204 1.347 . S
C204 H196 0.951 . S
C204 C199 1.429 . S
C204 C203 1.347 . S
H205 C206 0.951 . S
C206 H205 0.951 . S
C206 C212 1.265 . S
H207 C212 0.950 . S
H208 C216 0.949 . S
H209 C217 0.950 . S
H210 C218 0.951 . S
H211 C219 0.951 . S
C212 C206 1.265 . S
C212 H207 0.950 . S
C212 C213 1.478 . S
C213 C200 1.394 . S
C213 C212 1.478 . S
C213 C214 1.397 1_545 S
C214 C213 1.397 1_565 S
C214 C215 1.438 . S
C214 C219 1.429 . S
C215 C198 1.394 . S
C215 C214 1.438 . S
C215 C216 1.428 . S
C216 H208 0.949 . S
C216 C215 1.428 . S
C216 C217 1.345 . S
C217 H209 0.950 . S
C217 C216 1.345 . S
C217 C218 1.424 . S
C218 H210 0.951 . S
C218 C217 1.424 . S
C218 C219 1.347 . S
C219 H211 0.951 . S
C219 C214 1.429 . S
C219 C218 1.347 . S
H220 C221 0.951 . S
C221 H220 0.951 . S
C221 C227 1.265 . S
H222 C227 0.950 . S
H223 C231 0.949 . S
H224 C232 0.950 . S
H225 C233 0.951 . S
H226 C234 0.951 . S
C227 C221 1.265 . S
C227 H222 0.950 . S
C227 C228 1.478 . S
C228 C227 1.478 . S
C228 C229 1.397 . S
C228 C245 1.394 . S
C229 C228 1.397 . S
C229 C230 1.438 1_554 S
C229 C234 1.429 . S
C230 C229 1.438 1_556 S
C230 C231 1.428 . S
C230 C243 1.394 . S
C231 H223 0.949 . S
C231 C230 1.428 . S
C231 C232 1.345 1_556 S
C232 H224 0.950 . S
C232 C231 1.345 1_554 S
C232 C233 1.424 . S
C233 H225 0.951 . S
C233 C232 1.424 . S
C233 C234 1.347 . S
C234 H226 0.951 . S
C234 C229 1.429 . S
C234 C233 1.347 . S
H235 C236 0.951 . S
C236 H235 0.951 . S
C236 C242 1.265 . S
H237 C242 0.950 . S
H238 C246 0.949 . S
H239 C247 0.950 . S
H240 C248 0.951 . S
H241 C249 0.951 . S
C242 C236 1.265 . S
C242 H237 0.950 . S
C242 C243 1.478 . S
C243 C230 1.394 . S
C243 C242 1.478 . S
C243 C244 1.397 . S
C244 C243 1.397 . S
C244 C245 1.438 1_556 S
C244 C249 1.429 . S
C245 C228 1.394 . S
C245 C244 1.438 1_554 S
C245 C246 1.428 . S
C246 H238 0.949 . S
C246 C245 1.428 . S
C246 C247 1.345 1_554 S
C247 H239 0.950 . S
C247 C246 1.345 1_556 S
C247 C248 1.424 . S
C248 H240 0.951 . S
C248 C247 1.424 . S
C248 C249 1.347 . S
C249 H241 0.951 . S
C249 C244 1.429 . S
C249 C248 1.347 . S
H250 C251 0.951 . S
C251 H250 0.951 . S
C251 C257 1.265 . S
H252 C257 0.950 . S
H253 C261 0.949 . S
H254 C262 0.950 1_455 S
H255 C263 0.951 . S
H256 C264 0.951 . S
C257 C251 1.265 . S
C257 H252 0.950 . S
C257 C258 1.478 . S
C258 C257 1.478 . S
C258 C259 1.397 . S
C258 C275 1.394 . S
C259 C258 1.397 . S
C259 C260 1.438 . S
C259 C264 1.429 . S
C260 C259 1.438 . S
C260 C261 1.428 1_655 S
C260 C273 1.394 1_655 S
C261 H253 0.949 . S
C261 C260 1.428 1_455 S
C261 C262 1.345 1_455 S
C262 H254 0.950 1_655 S
C262 C261 1.345 1_655 S
C262 C263 1.424 . S
C263 H255 0.951 . S
C263 C262 1.424 . S
C263 C264 1.347 . S
C264 H256 0.951 . S
C264 C259 1.429 . S
C264 C263 1.347 . S
H265 C266 0.951 . S
C266 H265 0.951 . S
C266 C272 1.265 . S
H267 C272 0.950 . S
H268 C276 0.949 . S
H269 C277 0.950 . S
H270 C278 0.951 1_455 S
H271 C279 0.951 . S
C272 C266 1.265 . S
C272 H267 0.950 . S
C272 C273 1.478 . S
C273 C260 1.394 1_455 S
C273 C272 1.478 . S
C273 C274 1.397 1_455 S
C274 C273 1.397 1_655 S
C274 C275 1.438 . S
C274 C279 1.429 1_655 S
C275 C258 1.394 . S
C275 C274 1.438 . S
C275 C276 1.428 . S
C276 H268 0.949 . S
C276 C275 1.428 . S
C276 C277 1.345 . S
C277 H269 0.950 . S
C277 C276 1.345 . S
C277 C278 1.426 . S
C278 H270 0.951 1_655 S
C278 C277 1.426 . S
C278 C279 1.345 1_655 S
C279 H271 0.951 . S
C279 C274 1.429 1_455 S
C279 C278 1.345 1_455 S
H280 C281 0.951 . S
C281 H280 0.951 . S
C281 C287 1.265 . S
H282 C287 0.950 . S
H283 C291 0.949 . S
H284 C292 0.950 . S
H285 C293 0.951 . S
H286 C294 0.951 . S
C287 C281 1.265 . S
C287 H282 0.950 . S
C287 C288 1.478 1_545 S
C288 C287 1.478 1_565 S
C288 C289 1.397 . S
C288 C305 1.394 . S
C289 C288 1.397 . S
C289 C290 1.438 . S
C289 C294 1.429 . S
C290 C289 1.438 . S
C290 C291 1.428 . S
C290 C303 1.394 . S
C291 H283 0.949 . S
C291 C290 1.428 . S
C291 C292 1.345 . S
C292 H284 0.950 . S
C292 C291 1.345 . S
C292 C293 1.424 . S
C293 H285 0.951 . S
C293 C292 1.424 . S
C293 C294 1.347 . S
C294 H286 0.951 . S
C294 C289 1.429 . S
C294 C293 1.347 . S
H295 C296 0.951 . S
C296 H295 0.951 . S
C296 C302 1.265 . S
H297 C302 0.950 . S
H298 C306 0.949 . S
H299 C307 0.950 . S
H300 C308 0.951 . S
H301 C309 0.951 . S
C302 C296 1.265 . S
C302 H297 0.950 . S
C302 C303 1.478 . S
C303 C290 1.394 . S
C303 C302 1.478 . S
C303 C304 1.397 . S
C304 C303 1.397 . S
C304 C305 1.438 . S
C304 C309 1.429 . S
C305 C288 1.394 . S
C305 C304 1.438 . S
C305 C306 1.428 . S
C306 H298 0.949 . S
C306 C305 1.428 . S
C306 C307 1.345 . S
C307 H299 0.950 . S
C307 C306 1.345 . S
C307 C308 1.424 . S
C308 H300 0.951 . S
C308 C307 1.424 . S
C308 C309 1.347 . S
C309 H301 0.951 . S
C309 C304 1.429 . S
C309 C308 1.347 . S
H310 C311 0.951 . S
C311 H310 0.951 . S
C311 C317 1.265 . S
H312 C317 0.950 . S
H313 C321 0.949 . S
H314 C322 0.950 . S
H315 C323 0.951 . S
H316 C324 0.951 . S
C317 C311 1.265 . S
C317 H312 0.950 . S
C317 C318 1.478 1_455 S
C318 C317 1.478 1_655 S
C318 C319 1.397 . S
C318 C335 1.394 . S
C319 C318 1.397 . S
C319 C320 1.438 . S
C319 C324 1.429 . S
C320 C319 1.438 . S
C320 C321 1.428 . S
C320 C333 1.394 . S
C321 H313 0.949 . S
C321 C320 1.428 . S
C321 C322 1.345 . S
C322 H314 0.950 . S
C322 C321 1.345 . S
C322 C323 1.424 . S
C323 H315 0.951 . S
C323 C322 1.424 . S
C323 C324 1.347 . S
C324 H316 0.951 . S
C324 C319 1.429 . S
C324 C323 1.347 . S
H325 C326 0.951 . S
C326 H325 0.951 . S
C326 C332 1.265 . S
H327 C332 0.950 . S
H328 C336 0.949 . S
H329 C337 0.950 . S
H330 C338 0.951 . S
H331 C339 0.951 . S
C332 C326 1.265 . S
C332 H327 0.950 . S
C332 C333 1.478 . S
C333 C320 1.394 . S
C333 C332 1.478 . S
C333 C334 1.397 . S
C334 C333 1.397 . S
C334 C335 1.438 . S
C334 C339 1.429 . S
C335 C318 1.394 . S
C335 C334 1.438 . S
C335 C336 1.428 . S
C336 H328 0.949 . S
C336 C335 1.428 . S
C336 C337 1.345 . S
C337 H329 0.950 . S
C337 C336 1.345 . S
C337 C338 1.424 . S
C338 H330 0.951 . S
C338 C337 1.424 . S
C338 C339 1.347 . S
C339 H331 0.951 . S
C339 C334 1.429 . S
C339 C338 1.347 . S
H340 C341 0.951 . S
C341 H340 0.951 . S
C341 C347 1.265 1_545 S
H342 C347 0.950 . S
H343 C351 0.949 . S
H344 C352 0.950 . S
H345 C353 0.951 . S
H346 C354 0.951 . S
C347 C341 1.265 1_565 S
C347 H342 0.950 . S
C347 C348 1.478 . S
C348 C347 1.478 . S
C348 C349 1.397 . S
C348 C365 1.394 . S
C349 C348 1.397 . S
C349 C350 1.438 . S
C349 C354 1.429 . S
C350 C349 1.438 . S
C350 C351 1.428 . S
C350 C363 1.394 . S
C351 H343 0.949 . S
C351 C350 1.428 . S
C351 C352 1.345 . S
C352 H344 0.950 . S
C352 C351 1.345 . S
C352 C353 1.424 . S
C353 H345 0.951 . S
C353 C352 1.424 . S
C353 C354 1.347 . S
C354 H346 0.951 . S
C354 C349 1.429 . S
C354 C353 1.347 . S
H355 C356 0.951 . S
C356 H355 0.951 . S
C356 C362 1.265 . S
H357 C362 0.950 . S
H358 C366 0.949 . S
H359 C367 0.950 . S
H360 C368 0.951 . S
H361 C369 0.951 . S
C362 C356 1.265 . S
C362 H357 0.950 . S
C362 C363 1.478 1_655 S
C363 C350 1.394 . S
C363 C362 1.478 1_455 S
C363 C364 1.397 . S
C364 C363 1.397 . S
C364 C365 1.438 . S
C364 C369 1.429 . S
C365 C348 1.394 . S
C365 C364 1.438 . S
C365 C366 1.428 . S
C366 H358 0.949 . S
C366 C365 1.428 . S
C366 C367 1.345 . S
C367 H359 0.950 . S
C367 C366 1.345 . S
C367 C368 1.424 . S
C368 H360 0.951 . S
C368 C367 1.424 . S
C368 C369 1.347 . S
C369 H361 0.951 . S
C369 C364 1.429 . S
C369 C368 1.347 . S
H370 C371 0.951 . S
C371 H370 0.951 . S
C371 C377 1.265 . S
H372 C377 0.950 . S
H373 C381 0.949 . S
H374 C382 0.950 . S
H375 C383 0.951 . S
H376 C384 0.951 . S
C377 C371 1.265 . S
C377 H372 0.950 . S
C377 C378 1.478 . S
C378 C377 1.478 . S
C378 C379 1.397 . S
C378 C395 1.394 . S
C379 C378 1.397 . S
C379 C380 1.438 . S
C379 C384 1.429 . S
C380 C379 1.438 . S
C380 C381 1.428 . S
C380 C393 1.394 . S
C381 H373 0.949 . S
C381 C380 1.428 . S
C381 C382 1.345 . S
C382 H374 0.950 . S
C382 C381 1.345 . S
C382 C383 1.424 . S
C383 H375 0.951 . S
C383 C382 1.424 . S
C383 C384 1.347 . S
C384 H376 0.951 . S
C384 C379 1.429 . S
C384 C383 1.347 . S
H385 C386 0.951 1_545 S
C386 H385 0.951 1_565 S
C386 C392 1.265 1_565 S
H387 C392 0.950 1_565 S
H388 C396 0.949 . S
H389 C397 0.950 . S
H390 C398 0.951 . S
H391 C399 0.951 . S
C392 C386 1.265 1_545 S
C392 H387 0.950 1_545 S
C392 C393 1.478 . S
C393 C380 1.394 . S
C393 C392 1.478 . S
C393 C394 1.397 . S
C394 C393 1.397 . S
C394 C395 1.438 . S
C394 C399 1.429 . S
C395 C378 1.394 . S
C395 C394 1.438 . S
C395 C396 1.428 . S
C396 H388 0.949 . S
C396 C395 1.428 . S
C396 C397 1.345 . S
C397 H389 0.950 . S
C397 C396 1.345 . S
C397 C398 1.424 . S
C398 H390 0.951 . S
C398 C397 1.424 . S
C398 C399 1.347 . S
C399 H391 0.951 . S
C399 C394 1.429 . S
C399 C398 1.347 . S
H400 C401 0.951 . S
C401 H400 0.951 . S
C401 C407 1.265 . S
H402 C407 0.950 . S
H403 C411 0.949 . S
H404 C412 0.950 . S
H405 C413 0.951 . S
H406 C414 0.951 . S
C407 C401 1.265 . S
C407 H402 0.950 . S
C407 C408 1.478 . S
C408 C407 1.478 . S
C408 C409 1.397 . S
C408 C425 1.394 . S
C409 C408 1.397 . S
C409 C410 1.438 . S
C409 C414 1.429 . S
C410 C409 1.438 . S
C410 C411 1.428 . S
C410 C423 1.394 . S
C411 H403 0.949 . S
C411 C410 1.428 . S
C411 C412 1.345 . S
C412 H404 0.950 . S
C412 C411 1.345 . S
C412 C413 1.424 . S
C413 H405 0.951 . S
C413 C412 1.424 . S
C413 C414 1.347 . S
C414 H406 0.951 . S
C414 C409 1.429 . S
C414 C413 1.347 . S
H415 C416 0.951 . S
C416 H415 0.951 . S
C416 C422 1.265 1_655 S
H417 C422 0.950 . S
H418 C426 0.949 . S
H419 C427 0.950 . S
H420 C428 0.951 . S
H421 C429 0.951 . S
C422 C416 1.265 1_455 S
C422 H417 0.950 . S
C422 C423 1.478 . S
C423 C410 1.394 . S
C423 C422 1.478 . S
C423 C424 1.397 . S
C424 C423 1.397 . S
C424 C425 1.438 . S
C424 C429 1.429 . S
C425 C408 1.394 . S
C425 C424 1.438 . S
C425 C426 1.428 . S
C426 H418 0.949 . S
C426 C425 1.428 . S
C426 C427 1.345 . S
C427 H419 0.950 . S
C427 C426 1.345 . S
C427 C428 1.424 . S
C428 H420 0.951 . S
C428 C427 1.424 . S
C428 C429 1.347 . S
C429 H421 0.951 . S
C429 C424 1.429 . S
C429 C428 1.347 . S
H430 C431 0.951 . S
C431 H430 0.951 . S
C431 C437 1.265 1_455 S
H432 C437 0.950 . S
H433 C441 0.949 . S
H434 C442 0.950 . S
H435 C443 0.951 . S
H436 C444 0.951 . S
C437 C431 1.265 1_655 S
C437 H432 0.950 . S
C437 C438 1.478 . S
C438 C437 1.478 . S
C438 C439 1.397 . S
C438 C455 1.394 . S
C439 C438 1.397 . S
C439 C440 1.438 . S
C439 C444 1.429 . S
C440 C439 1.438 . S
C440 C441 1.428 . S
C440 C453 1.394 . S
C441 H433 0.949 . S
C441 C440 1.428 . S
C441 C442 1.345 . S
C442 H434 0.950 . S
C442 C441 1.345 . S
C442 C443 1.424 . S
C443 H435 0.951 . S
C443 C442 1.424 . S
C443 C444 1.347 . S
C444 H436 0.951 . S
C444 C439 1.429 . S
C444 C443 1.347 . S
H445 C446 0.951 . S
C446 H445 0.951 . S
C446 C452 1.265 . S
H447 C452 0.950 . S
H448 C456 0.949 . S
H449 C457 0.950 . S
H450 C458 0.951 . S
H451 C459 0.951 . S
C452 C446 1.265 . S
C452 H447 0.950 . S
C452 C453 1.478 1_565 S
C453 C440 1.394 . S
C453 C452 1.478 1_545 S
C453 C454 1.397 . S
C454 C453 1.397 . S
C454 C455 1.438 . S
C454 C459 1.429 . S
C455 C438 1.394 . S
C455 C454 1.438 . S
C455 C456 1.428 . S
C456 H448 0.949 . S
C456 C455 1.428 . S
C456 C457 1.345 . S
C457 H449 0.950 . S
C457 C456 1.345 . S
C457 C458 1.424 . S
C458 H450 0.951 . S
C458 C457 1.424 . S
C458 C459 1.347 . S
C459 H451 0.951 . S
C459 C454 1.429 . S
C459 C458 1.347 . S
C101 C54 1.826 . S
C116 C5 1.942 . S
C131 C57 1.917 . S
C146 C6 1.772 . S
C161 C1 1.905 . S
C176 C61 1.753 . S
C191 C58 1.951 . S
C206 C2 1.856 . S
C221 C9 1.931 . S
C236 C52 1.818 . S
C251 C10 1.784 . S
C266 C51 1.923 . S
C281 C0 1.070 . S
C296 C3 1.070 . S
C311 C59 1.069 . S
C326 C60 1.069 . S
C341 C11 1.069 . S
C356 C8 1.069 . S
C371 C50 1.131 . S
C386 C53 1.131 . S
C401 C4 1.069 . S
C416 C7 1.069 . S
C431 C55 1.069 . S
C446 C56 1.069 . S
