# Generated by pormake.
# Topology uml, (4)-cn, num edge types: 1
# Building blocks:
#     Node 0, Type 0, BuildingBlock: GALJAG_clean_sbu_0, # of connection points: 4
#     Node 1, Type 0, BuildingBlock: GALJAG_clean_sbu_0, # of connection points: 4
#     Node 2, Type 0, BuildingBlock: GALJAG_clean_sbu_0, # of connection points: 4
#     Node 3, Type 0, BuildingBlock: GALJAG_clean_sbu_0, # of connection points: 4
#     Node 4, Type 0, BuildingBlock: GALJAG_clean_sbu_0, # of connection points: 4
#     Node 5, Type 0, BuildingBlock: GALJAG_clean_sbu_0, # of connection points: 4
#     Node 6, Type 0, BuildingBlock: GALJAG_clean_sbu_0, # of connection points: 4
#     Node 7, Type 0, BuildingBlock: GALJAG_clean_sbu_0, # of connection points: 4
#     Node 8, Type 0, BuildingBlock: GALJAG_clean_sbu_0, # of connection points: 4
#     Node 9, Type 0, BuildingBlock: GALJAG_clean_sbu_0, # of connection points: 4
#     Node 10, Type 0, BuildingBlock: GALJAG_clean_sbu_0, # of connection points: 4
#     Node 11, Type 0, BuildingBlock: GALJAG_clean_sbu_0, # of connection points: 4
#     Node 12, Type 0, BuildingBlock: GALJAG_clean_sbu_0, # of connection points: 4
#     Node 13, Type 0, BuildingBlock: GALJAG_clean_sbu_0, # of connection points: 4
#     Node 14, Type 0, BuildingBlock: GALJAG_clean_sbu_0, # of connection points: 4
#     Node 15, Type 0, BuildingBlock: GALJAG_clean_sbu_0, # of connection points: 4
#     Node 16, Type 0, BuildingBlock: GALJAG_clean_sbu_0, # of connection points: 4
#     Node 17, Type 0, BuildingBlock: GALJAG_clean_sbu_0, # of connection points: 4
#     Node 18, Type 0, BuildingBlock: GALJAG_clean_sbu_0, # of connection points: 4
#     Node 19, Type 0, BuildingBlock: GALJAG_clean_sbu_0, # of connection points: 4
#     Node 20, Type 0, BuildingBlock: GALJAG_clean_sbu_0, # of connection points: 4
#     Node 21, Type 0, BuildingBlock: GALJAG_clean_sbu_0, # of connection points: 4
#     Node 22, Type 0, BuildingBlock: GALJAG_clean_sbu_0, # of connection points: 4
#     Node 23, Type 0, BuildingBlock: GALJAG_clean_sbu_0, # of connection points: 4
#     Node 24, Type 0, BuildingBlock: GALJAG_clean_sbu_0, # of connection points: 4
#     Node 25, Type 0, BuildingBlock: GALJAG_clean_sbu_0, # of connection points: 4
#     Node 26, Type 0, BuildingBlock: GALJAG_clean_sbu_0, # of connection points: 4
#     Node 27, Type 0, BuildingBlock: GALJAG_clean_sbu_0, # of connection points: 4
#     Node 28, Type 0, BuildingBlock: GALJAG_clean_sbu_0, # of connection points: 4
#     Node 29, Type 0, BuildingBlock: GALJAG_clean_sbu_0, # of connection points: 4
#     Node 30, Type 0, BuildingBlock: GALJAG_clean_sbu_0, # of connection points: 4
#     Node 31, Type 0, BuildingBlock: GALJAG_clean_sbu_0, # of connection points: 4
#     Node 32, Type 0, BuildingBlock: GALJAG_clean_sbu_0, # of connection points: 4
#     Node 33, Type 0, BuildingBlock: GALJAG_clean_sbu_0, # of connection points: 4
#     Node 34, Type 0, BuildingBlock: GALJAG_clean_sbu_0, # of connection points: 4
#     Node 35, Type 0, BuildingBlock: GALJAG_clean_sbu_0, # of connection points: 4
#     Edge 36, Type (0, 0), BuildingBlock: AJUNOK_clean_linker_0, # of connection points: 2
#     Edge 37, Type (0, 0), BuildingBlock: AJUNOK_clean_linker_0, # of connection points: 2
#     Edge 38, Type (0, 0), BuildingBlock: AJUNOK_clean_linker_0, # of connection points: 2
#     Edge 39, Type (0, 0), BuildingBlock: AJUNOK_clean_linker_0, # of connection points: 2
#     Edge 40, Type (0, 0), BuildingBlock: AJUNOK_clean_linker_0, # of connection points: 2
#     Edge 41, Type (0, 0), BuildingBlock: AJUNOK_clean_linker_0, # of connection points: 2
#     Edge 42, Type (0, 0), BuildingBlock: AJUNOK_clean_linker_0, # of connection points: 2
#     Edge 43, Type (0, 0), BuildingBlock: AJUNOK_clean_linker_0, # of connection points: 2
#     Edge 44, Type (0, 0), BuildingBlock: AJUNOK_clean_linker_0, # of connection points: 2
#     Edge 45, Type (0, 0), BuildingBlock: AJUNOK_clean_linker_0, # of connection points: 2
#     Edge 46, Type (0, 0), BuildingBlock: AJUNOK_clean_linker_0, # of connection points: 2
#     Edge 47, Type (0, 0), BuildingBlock: AJUNOK_clean_linker_0, # of connection points: 2
#     Edge 48, Type (0, 0), BuildingBlock: AJUNOK_clean_linker_0, # of connection points: 2
#     Edge 49, Type (0, 0), BuildingBlock: AJUNOK_clean_linker_0, # of connection points: 2
#     Edge 50, Type (0, 0), BuildingBlock: AJUNOK_clean_linker_0, # of connection points: 2
#     Edge 51, Type (0, 0), BuildingBlock: AJUNOK_clean_linker_0, # of connection points: 2
#     Edge 52, Type (0, 0), BuildingBlock: AJUNOK_clean_linker_0, # of connection points: 2
#     Edge 53, Type (0, 0), BuildingBlock: AJUNOK_clean_linker_0, # of connection points: 2
#     Edge 54, Type (0, 0), BuildingBlock: AJUNOK_clean_linker_0, # of connection points: 2
#     Edge 55, Type (0, 0), BuildingBlock: AJUNOK_clean_linker_0, # of connection points: 2
#     Edge 56, Type (0, 0), BuildingBlock: AJUNOK_clean_linker_0, # of connection points: 2
#     Edge 57, Type (0, 0), BuildingBlock: AJUNOK_clean_linker_0, # of connection points: 2
#     Edge 58, Type (0, 0), BuildingBlock: AJUNOK_clean_linker_0, # of connection points: 2
#     Edge 59, Type (0, 0), BuildingBlock: AJUNOK_clean_linker_0, # of connection points: 2
#     Edge 60, Type (0, 0), BuildingBlock: AJUNOK_clean_linker_0, # of connection points: 2
#     Edge 61, Type (0, 0), BuildingBlock: AJUNOK_clean_linker_0, # of connection points: 2
#     Edge 62, Type (0, 0), BuildingBlock: AJUNOK_clean_linker_0, # of connection points: 2
#     Edge 63, Type (0, 0), BuildingBlock: AJUNOK_clean_linker_0, # of connection points: 2
#     Edge 64, Type (0, 0), BuildingBlock: AJUNOK_clean_linker_0, # of connection points: 2
#     Edge 65, Type (0, 0), BuildingBlock: AJUNOK_clean_linker_0, # of connection points: 2
#     Edge 66, Type (0, 0), BuildingBlock: AJUNOK_clean_linker_0, # of connection points: 2
#     Edge 67, Type (0, 0), BuildingBlock: AJUNOK_clean_linker_0, # of connection points: 2
#     Edge 68, Type (0, 0), BuildingBlock: AJUNOK_clean_linker_0, # of connection points: 2
#     Edge 69, Type (0, 0), BuildingBlock: AJUNOK_clean_linker_0, # of connection points: 2
#     Edge 70, Type (0, 0), BuildingBlock: AJUNOK_clean_linker_0, # of connection points: 2
#     Edge 71, Type (0, 0), BuildingBlock: AJUNOK_clean_linker_0, # of connection points: 2
#     Edge 72, Type (0, 0), BuildingBlock: AJUNOK_clean_linker_0, # of connection points: 2
#     Edge 73, Type (0, 0), BuildingBlock: AJUNOK_clean_linker_0, # of connection points: 2
#     Edge 74, Type (0, 0), BuildingBlock: AJUNOK_clean_linker_0, # of connection points: 2
#     Edge 75, Type (0, 0), BuildingBlock: AJUNOK_clean_linker_0, # of connection points: 2
#     Edge 76, Type (0, 0), BuildingBlock: AJUNOK_clean_linker_0, # of connection points: 2
#     Edge 77, Type (0, 0), BuildingBlock: AJUNOK_clean_linker_0, # of connection points: 2
#     Edge 78, Type (0, 0), BuildingBlock: AJUNOK_clean_linker_0, # of connection points: 2
#     Edge 79, Type (0, 0), BuildingBlock: AJUNOK_clean_linker_0, # of connection points: 2
#     Edge 80, Type (0, 0), BuildingBlock: AJUNOK_clean_linker_0, # of connection points: 2
#     Edge 81, Type (0, 0), BuildingBlock: AJUNOK_clean_linker_0, # of connection points: 2
#     Edge 82, Type (0, 0), BuildingBlock: AJUNOK_clean_linker_0, # of connection points: 2
#     Edge 83, Type (0, 0), BuildingBlock: AJUNOK_clean_linker_0, # of connection points: 2
#     Edge 84, Type (0, 0), BuildingBlock: AJUNOK_clean_linker_0, # of connection points: 2
#     Edge 85, Type (0, 0), BuildingBlock: AJUNOK_clean_linker_0, # of connection points: 2
#     Edge 86, Type (0, 0), BuildingBlock: AJUNOK_clean_linker_0, # of connection points: 2
#     Edge 87, Type (0, 0), BuildingBlock: AJUNOK_clean_linker_0, # of connection points: 2
#     Edge 88, Type (0, 0), BuildingBlock: AJUNOK_clean_linker_0, # of connection points: 2
#     Edge 89, Type (0, 0), BuildingBlock: AJUNOK_clean_linker_0, # of connection points: 2
#     Edge 90, Type (0, 0), BuildingBlock: AJUNOK_clean_linker_0, # of connection points: 2
#     Edge 91, Type (0, 0), BuildingBlock: AJUNOK_clean_linker_0, # of connection points: 2
#     Edge 92, Type (0, 0), BuildingBlock: AJUNOK_clean_linker_0, # of connection points: 2
#     Edge 93, Type (0, 0), BuildingBlock: AJUNOK_clean_linker_0, # of connection points: 2
#     Edge 94, Type (0, 0), BuildingBlock: AJUNOK_clean_linker_0, # of connection points: 2
#     Edge 95, Type (0, 0), BuildingBlock: AJUNOK_clean_linker_0, # of connection points: 2
#     Edge 96, Type (0, 0), BuildingBlock: AJUNOK_clean_linker_0, # of connection points: 2
#     Edge 97, Type (0, 0), BuildingBlock: AJUNOK_clean_linker_0, # of connection points: 2
#     Edge 98, Type (0, 0), BuildingBlock: AJUNOK_clean_linker_0, # of connection points: 2
#     Edge 99, Type (0, 0), BuildingBlock: AJUNOK_clean_linker_0, # of connection points: 2
#     Edge 100, Type (0, 0), BuildingBlock: AJUNOK_clean_linker_0, # of connection points: 2
#     Edge 101, Type (0, 0), BuildingBlock: AJUNOK_clean_linker_0, # of connection points: 2
#     Edge 102, Type (0, 0), BuildingBlock: AJUNOK_clean_linker_0, # of connection points: 2
#     Edge 103, Type (0, 0), BuildingBlock: AJUNOK_clean_linker_0, # of connection points: 2
#     Edge 104, Type (0, 0), BuildingBlock: AJUNOK_clean_linker_0, # of connection points: 2
#     Edge 105, Type (0, 0), BuildingBlock: AJUNOK_clean_linker_0, # of connection points: 2
#     Edge 106, Type (0, 0), BuildingBlock: AJUNOK_clean_linker_0, # of connection points: 2
#     Edge 107, Type (0, 0), BuildingBlock: AJUNOK_clean_linker_0, # of connection points: 2
# Relax obj value: 0.085
# Max RMSD: 0.314
# Mean RMSD: 0.220
data_MOF--net-uml--node1-GALJAG_clean_sbu_0--edge1-AJUNOK_clean_linker_0
_symmetry_space_group_name_H-M    P1
_symmetry_Int_Tables_number       1
_symmetry_cell_setting            triclinic
loop_
_symmetry_equiv_pos_as_xyz
'x, y, z'
_cell_length_a     69.780581
_cell_length_b     69.610192
_cell_length_c     21.136087
_cell_angle_alpha  89.982777
_cell_angle_beta   90.144169
_cell_angle_gamma 116.38166
loop_
_atom_site_label
_atom_site_type_symbol
_atom_site_fract_x
_atom_site_fract_y
_atom_site_fract_z
_atom_type_partial_charge
In0 In 0.33899 0.09095 0.17604 0.0
O1 O 0.31411 0.07069 0.24792 0.0
O2 O 0.34541 0.09195 0.28105 0.0
C3 C 0.32501 0.07906 0.05884 0.0
C4 C 0.33605 0.12788 0.17243 0.0
C5 C 0.36768 0.07679 0.15078 0.0
O6 O 0.31313 0.07 0.10591 0.0
O7 O 0.343 0.09429 0.07162 0.0
O8 O 0.37336 0.0967 0.15803 0.0
O9 O 0.34839 0.06455 0.16404 0.0
C10 C 0.32657 0.07842 0.2947 0.0
O11 O 0.3539 0.12742 0.17962 0.0
O12 O 0.32004 0.10978 0.16918 0.0
In13 In 0.89407 0.24912 0.15712 0.0
O14 O 0.85973 0.22239 0.16501 0.0
O15 O 0.88568 0.21403 0.16103 0.0
C16 C 0.89622 0.28755 0.12916 0.0
C17 C 0.90961 0.25291 0.27615 0.0
C18 C 0.90377 0.24453 0.03741 0.0
O19 O 0.87854 0.27205 0.14473 0.0
O20 O 0.91233 0.28379 0.1319 0.0
O21 O 0.91805 0.25058 0.08039 0.0
O22 O 0.88528 0.24101 0.05553 0.0
C23 C 0.86569 0.20758 0.16347 0.0
O24 O 0.9191 0.24985 0.22892 0.0
O25 O 0.89289 0.25486 0.26266 0.0
In26 In 0.7435 0.62943 0.1358 0.0
O27 O 0.77468 0.62612 0.14729 0.0
O28 O 0.77639 0.6572 0.13241 0.0
C29 C 0.70643 0.59423 0.12393 0.0
C30 C 0.73818 0.64006 0.25321 0.0
C31 C 0.73978 0.63872 0.01602 0.0
O32 O 0.72411 0.59328 0.11755 0.0
O33 O 0.70781 0.61234 0.1392 0.0
O34 O 0.73809 0.65 0.06096 0.0
O35 O 0.74408 0.6236 0.03215 0.0
C36 C 0.78645 0.64618 0.14149 0.0
O37 O 0.73753 0.65088 0.20559 0.0
O38 O 0.74117 0.62377 0.24092 0.0
In39 In 0.08619 0.33506 0.31798 0.0
O40 O 0.12256 0.35044 0.31385 0.0
O41 O 0.10541 0.3164 0.32211 0.0
C42 C 0.07194 0.36352 0.34654 0.0
C43 C 0.07353 0.3239 0.19849 0.0
C44 C 0.0743 0.32035 0.43427 0.0
O45 O 0.0918 0.36928 0.33937 0.0
O46 O 0.05977 0.34426 0.33192 0.0
O47 O 0.06516 0.30871 0.38665 0.0
O48 O 0.08967 0.33833 0.4224 0.0
C49 C 0.12333 0.33264 0.31935 0.0
O50 O 0.06642 0.31064 0.24367 0.0
O51 O 0.08665 0.34273 0.21413 0.0
In52 In 0.6294 0.74518 0.35193 0.0
O53 O 0.65024 0.73827 0.28273 0.0
O54 O 0.62173 0.73924 0.24822 0.0
C55 C 0.63956 0.74773 0.47313 0.0
C56 C 0.64655 0.78782 0.33717 0.0
C57 C 0.59618 0.70805 0.37956 0.0
O58 O 0.64871 0.74107 0.43267 0.0
O59 O 0.62606 0.75359 0.45154 0.0
O60 O 0.59345 0.72472 0.36958 0.0
O61 O 0.61497 0.7102 0.37159 0.0
C62 C 0.63837 0.73697 0.23566 0.0
O63 O 0.62638 0.77618 0.33459 0.0
O64 O 0.65756 0.77772 0.34638 0.0
In65 In 0.25446 0.89666 0.33047 0.0
O66 O 0.2572 0.92317 0.26153 0.0
O67 O 0.25884 0.8954 0.2245 0.0
C68 C 0.25143 0.906 0.45202 0.0
C69 C 0.21241 0.87038 0.31986 0.0
C70 C 0.29183 0.89537 0.3506 0.0
O71 O 0.25779 0.92064 0.41016 0.0
O72 O 0.24699 0.88743 0.43193 0.0
O73 O 0.27453 0.87828 0.34522 0.0
O74 O 0.2902 0.9126 0.34317 0.0
C75 C 0.25865 0.91315 0.21299 0.0
O76 O 0.22639 0.86339 0.31598 0.0
O77 O 0.21989 0.8904 0.32765 0.0
In78 In 0.66081 0.91032 0.82515 0.0
O79 O 0.68565 0.92973 0.75156 0.0
O80 O 0.65367 0.90983 0.72069 0.0
C81 C 0.67497 0.92143 0.94301 0.0
C82 C 0.66227 0.87269 0.8278 0.0
C83 C 0.63298 0.92531 0.85286 0.0
O84 O 0.68675 0.93093 0.89609 0.0
O85 O 0.65707 0.90617 0.92956 0.0
O86 O 0.62681 0.90537 0.84474 0.0
O87 O 0.65226 0.93726 0.8387 0.0
C88 C 0.6726 0.92272 0.70574 0.0
O89 O 0.64475 0.87387 0.82141 0.0
O90 O 0.67877 0.89046 0.8301 0.0
In91 In 0.10239 0.75235 0.83054 0.0
O92 O 0.13762 0.77774 0.82944 0.0
O93 O 0.11307 0.78769 0.84218 0.0
C94 C 0.09718 0.7119 0.84025 0.0
C95 C 0.09036 0.75365 0.70974 0.0
C96 C 0.08724 0.75103 0.94783 0.0
O97 O 0.11543 0.72771 0.84782 0.0
O98 O 0.08237 0.71676 0.82478 0.0
O99 O 0.07715 0.75258 0.89952 0.0
O100 O 0.10453 0.7501 0.93618 0.0
C101 C 0.13283 0.79314 0.83831 0.0
O102 O 0.07934 0.75435 0.75654 0.0
O103 O 0.10703 0.75172 0.72416 0.0
In104 In 0.25249 0.37543 0.84341 0.0
O105 O 0.22086 0.37774 0.83132 0.0
O106 O 0.22037 0.34681 0.83838 0.0
C107 C 0.29044 0.40735 0.87211 0.0
C108 C 0.2607 0.36856 0.72522 0.0
C109 C 0.25181 0.36456 0.96306 0.0
O110 O 0.2742 0.411 0.86483 0.0
O111 O 0.28745 0.38838 0.86068 0.0
O112 O 0.25493 0.35377 0.91912 0.0
O113 O 0.24797 0.37992 0.94562 0.0
C114 C 0.20973 0.35742 0.83234 0.0
O115 O 0.25992 0.35616 0.77028 0.0
O116 O 0.25762 0.38459 0.74051 0.0
In117 In 0.90864 0.66118 0.67536 0.0
O118 O 0.87216 0.64495 0.67994 0.0
O119 O 0.88873 0.67898 0.66929 0.0
C120 C 0.92512 0.63379 0.65701 0.0
C121 C 0.92153 0.67495 0.79317 0.0
C122 C 0.91863 0.6743 0.55668 0.0
O123 O 0.90502 0.62732 0.65988 0.0
O124 O 0.93633 0.65349 0.66887 0.0
O125 O 0.92696 0.6871 0.60264 0.0
O126 O 0.90533 0.65551 0.57119 0.0
C127 C 0.87099 0.66251 0.67272 0.0
O128 O 0.92909 0.68697 0.74544 0.0
O129 O 0.90782 0.65598 0.78093 0.0
In130 In 0.3754 0.25691 0.65748 0.0
O131 O 0.37825 0.2256 0.671 0.0
O132 O 0.34717 0.22458 0.66322 0.0
C133 C 0.40667 0.29508 0.62836 0.0
C134 C 0.36837 0.26573 0.77482 0.0
C135 C 0.36505 0.25502 0.53702 0.0
O136 O 0.41078 0.27919 0.63775 0.0
O137 O 0.38751 0.29167 0.63773 0.0
O138 O 0.35387 0.25817 0.57961 0.0
O139 O 0.38063 0.25186 0.55622 0.0
C140 C 0.35802 0.21419 0.66968 0.0
O141 O 0.35588 0.26443 0.72943 0.0
O142 O 0.38449 0.26278 0.76027 0.0
In143 In 0.74719 0.1024 0.66156 0.0
O144 O 0.74631 0.07724 0.73329 0.0
O145 O 0.74268 0.1043 0.76733 0.0
C146 C 0.74845 0.09106 0.54082 0.0
C147 C 0.78901 0.13008 0.66529 0.0
C148 C 0.70955 0.10301 0.64057 0.0
O149 O 0.74311 0.07719 0.58482 0.0
O150 O 0.75316 0.10992 0.55877 0.0
O151 O 0.72663 0.12027 0.64697 0.0
O152 O 0.71151 0.08596 0.64809 0.0
C153 C 0.74397 0.0872 0.78065 0.0
O154 O 0.77455 0.13639 0.66989 0.0
O155 O 0.78214 0.11001 0.66083 0.0
In156 In 0.00748 0.42442 0.5166 0.0
O157 O 0.98301 0.40603 0.59195 0.0
O158 O 0.01491 0.42714 0.62101 0.0
C159 C 0.99206 0.41217 0.4007 0.0
C160 C 0.00669 0.4623 0.50925 0.0
C161 C 0.03453 0.40777 0.4953 0.0
O162 O 0.98044 0.40395 0.44891 0.0
O163 O 0.01075 0.42639 0.41198 0.0
O164 O 0.04096 0.42793 0.49671 0.0
O165 O 0.01519 0.39668 0.51081 0.0
C166 C 0.99614 0.41414 0.63713 0.0
O167 O 0.02413 0.46091 0.51518 0.0
O168 O 0.99001 0.44467 0.50965 0.0
In169 In 0.55877 0.5878 0.50958 0.0
O170 O 0.58388 0.58892 0.58176 0.0
O171 O 0.55558 0.58968 0.61643 0.0
C172 C 0.57437 0.58805 0.39294 0.0
C173 C 0.52813 0.54686 0.50927 0.0
C174 C 0.55992 0.62658 0.49411 0.0
O175 O 0.58367 0.58583 0.44209 0.0
O176 O 0.55774 0.59035 0.40313 0.0
O177 O 0.54287 0.60948 0.48548 0.0
O178 O 0.57571 0.62395 0.5139 0.0
C179 C 0.57313 0.58936 0.62953 0.0
O180 O 0.5237 0.56249 0.51739 0.0
O181 O 0.54772 0.5521 0.50172 0.0
In182 In 0.41063 0.96302 0.47759 0.0
O183 O 0.40497 0.98392 0.55025 0.0
O184 O 0.40692 0.9555 0.58161 0.0
C185 C 0.40821 0.97452 0.35899 0.0
C186 C 0.45343 0.97867 0.48755 0.0
C187 C 0.37346 0.9282 0.45973 0.0
O188 O 0.4055 0.98464 0.40543 0.0
O189 O 0.41282 0.95945 0.37332 0.0
O190 O 0.39116 0.92733 0.45292 0.0
O191 O 0.37484 0.94598 0.47875 0.0
C192 C 0.40452 0.97195 0.59617 0.0
O193 O 0.44116 0.95865 0.49092 0.0
O194 O 0.44396 0.99024 0.47837 0.0
In195 In 0.75666 0.67564 0.6356 0.0
O196 O 0.73632 0.65201 0.56068 0.0
O197 O 0.75797 0.68379 0.53178 0.0
C198 C 0.74631 0.6606 0.75236 0.0
C199 C 0.79286 0.67149 0.63592 0.0
C200 C 0.74182 0.70329 0.66797 0.0
O201 O 0.73632 0.64929 0.70499 0.0
O202 O 0.76148 0.67867 0.73979 0.0
O203 O 0.76174 0.70955 0.66 0.0
O204 O 0.7299 0.68417 0.65143 0.0
C205 C 0.7442 0.66524 0.51569 0.0
O206 O 0.79302 0.68978 0.63164 0.0
O207 O 0.77453 0.65576 0.63731 0.0
In208 In 0.29387 0.07745 0.67714 0.0
O209 O 0.29317 0.11011 0.67116 0.0
O210 O 0.32318 0.10908 0.68171 0.0
C211 C 0.25822 0.04098 0.69112 0.0
C212 C 0.30204 0.0721 0.55746 0.0
C213 C 0.30373 0.07286 0.79543 0.0
O214 O 0.258 0.05903 0.69872 0.0
O215 O 0.27581 0.04179 0.67291 0.0
O216 O 0.31394 0.07016 0.74925 0.0
O217 O 0.28925 0.07831 0.78104 0.0
C218 C 0.31342 0.12054 0.67638 0.0
O219 O 0.31331 0.07064 0.60278 0.0
O220 O 0.28669 0.07618 0.57308 0.0
In221 In 0.92076 0.21944 0.65502 0.0
O222 O 0.89484 0.18489 0.64299 0.0
O223 O 0.88532 0.20991 0.65345 0.0
C224 C 0.95836 0.2188 0.6789 0.0
C225 C 0.92368 0.23585 0.53734 0.0
C226 C 0.91732 0.23094 0.77408 0.0
O227 O 0.94108 0.20166 0.67555 0.0
O228 O 0.95665 0.23574 0.66704 0.0
O229 O 0.92436 0.24489 0.73048 0.0
O230 O 0.91231 0.21196 0.75708 0.0
C231 C 0.87957 0.19005 0.64758 0.0
O232 O 0.92125 0.24511 0.58615 0.0
O233 O 0.92539 0.21882 0.54846 0.0
In234 In 0.33088 0.24649 0.15321 0.0
O235 O 0.35642 0.2671 0.08366 0.0
O236 O 0.32461 0.24828 0.04929 0.0
C237 C 0.34477 0.25186 0.27161 0.0
C238 C 0.33043 0.20814 0.14437 0.0
C239 C 0.30631 0.26476 0.18747 0.0
O240 O 0.35712 0.2624 0.22689 0.0
O241 O 0.32609 0.23865 0.25558 0.0
O242 O 0.29812 0.24498 0.17319 0.0
O243 O 0.32614 0.27519 0.17707 0.0
C244 C 0.34383 0.26103 0.0366 0.0
O245 O 0.31323 0.21018 0.14216 0.0
O246 O 0.3474 0.22545 0.14829 0.0
In247 In 0.77582 0.07568 0.1607 0.0
O248 O 0.75047 0.07519 0.09067 0.0
O249 O 0.77667 0.07077 0.0543 0.0
C250 C 0.76138 0.07794 0.27706 0.0
C251 C 0.80517 0.1169 0.15149 0.0
C252 C 0.7792 0.0394 0.18656 0.0
O253 O 0.74839 0.06859 0.23242 0.0
O254 O 0.78083 0.08612 0.26217 0.0
O255 O 0.79509 0.05766 0.19079 0.0
O256 O 0.76227 0.03954 0.16613 0.0
C257 C 0.7598 0.07261 0.04236 0.0
O258 O 0.81022 0.10152 0.14788 0.0
O259 O 0.78539 0.11125 0.15776 0.0
In260 In 0.92261 0.70842 0.17389 0.0
O261 O 0.93059 0.6894 0.1006 0.0
O262 O 0.92673 0.71691 0.0703 0.0
C263 C 0.92244 0.69598 0.29254 0.0
C264 C 0.87977 0.6895 0.16173 0.0
C265 C 0.95879 0.74353 0.20001 0.0
O266 O 0.92738 0.68705 0.24717 0.0
O267 O 0.91711 0.71049 0.27696 0.0
O268 O 0.94093 0.74433 0.19778 0.0
O269 O 0.95818 0.72562 0.18585 0.0
C270 C 0.93035 0.70121 0.05511 0.0
O271 O 0.8905 0.70985 0.16091 0.0
O272 O 0.89081 0.67936 0.16848 0.0
In273 In 0.57419 0.99116 0.01878 0.0
O274 O 0.59402 0.01489 0.09405 0.0
O275 O 0.57092 0.98358 0.12274 0.0
C276 C 0.58724 0.00481 0.90248 0.0
C277 C 0.53843 0.99598 0.01254 0.0
C278 C 0.5892 0.96265 0.00154 0.0
O279 O 0.59558 0.01698 0.94978 0.0
O280 O 0.57225 0.98659 0.91459 0.0
O281 O 0.56921 0.95704 0.99913 0.0
O282 O 0.60072 0.98191 0.01756 0.0
C283 C 0.58518 0.00187 0.13896 0.0
O284 O 0.53784 0.97757 0.01888 0.0
O285 O 0.55691 0.01146 0.01128 0.0
In286 In 0.03538 0.58982 0.99191 0.0
O287 O 0.03748 0.55821 0.00682 0.0
O288 O 0.00668 0.55816 0.00369 0.0
C289 C 0.06259 0.62871 0.95359 0.0
C290 C 0.03095 0.60001 0.1093 0.0
C291 C 0.02451 0.58486 0.87246 0.0
O292 O 0.0694 0.61492 0.96705 0.0
O293 O 0.04296 0.62312 0.96449 0.0
O294 O 0.01334 0.58861 0.91385 0.0
O295 O 0.04055 0.58262 0.89281 0.0
C296 C 0.01715 0.54731 0.00878 0.0
O297 O 0.01741 0.59794 0.06627 0.0
O298 O 0.04695 0.59714 0.09221 0.0
In299 In 0.41075 0.44082 0.99688 0.0
O300 O 0.4099 0.41593 0.06931 0.0
O301 O 0.40915 0.44444 0.10346 0.0
C302 C 0.40782 0.42513 0.87905 0.0
C303 C 0.45253 0.46913 0.99582 0.0
C304 C 0.37241 0.44075 0.9849 0.0
O305 O 0.40869 0.41456 0.92703 0.0
O306 O 0.40876 0.44326 0.89113 0.0
O307 O 0.38962 0.4577 0.97618 0.0
O308 O 0.37482 0.42467 0.00322 0.0
C309 C 0.40957 0.42691 0.11682 0.0
O310 O 0.43798 0.47513 0.00398 0.0
O311 O 0.44576 0.44923 0.98811 0.0
In312 In 0.67394 0.75758 0.85474 0.0
O313 O 0.64976 0.7368 0.92766 0.0
O314 O 0.68167 0.75731 0.9583 0.0
C315 C 0.65788 0.75019 0.73863 0.0
C316 C 0.67043 0.794 0.86374 0.0
C317 C 0.70232 0.74341 0.82363 0.0
O318 O 0.64874 0.73681 0.78259 0.0
O319 O 0.67455 0.7667 0.75382 0.0
O320 O 0.70798 0.76334 0.82964 0.0
O321 O 0.68305 0.73129 0.83708 0.0
C322 C 0.66296 0.74373 0.97319 0.0
O323 O 0.6886 0.79389 0.86404 0.0
O324 O 0.65451 0.77574 0.86234 0.0
In325 In 0.22629 0.92351 0.83425 0.0
O326 O 0.19176 0.89851 0.85028 0.0
O327 O 0.21585 0.88779 0.83999 0.0
C328 C 0.22493 0.96057 0.8066 0.0
C329 C 0.24331 0.92822 0.95177 0.0
C330 C 0.23789 0.91885 0.71624 0.0
O331 O 0.20796 0.94327 0.81286 0.0
O332 O 0.24209 0.95916 0.81675 0.0
O333 O 0.25182 0.92705 0.7595 0.0
O334 O 0.21885 0.91321 0.73312 0.0
C335 C 0.19625 0.88275 0.8477 0.0
O336 O 0.25163 0.92375 0.90427 0.0
O337 O 0.22696 0.93093 0.93931 0.0
In338 In 0.0733 0.29091 0.81657 0.0
O339 O 0.1062 0.29093 0.82561 0.0
O340 O 0.10465 0.32063 0.81197 0.0
C341 C 0.03767 0.2543 0.80217 0.0
C342 C 0.06751 0.29989 0.93517 0.0
C343 C 0.06831 0.3001 0.69783 0.0
O344 O 0.05599 0.25489 0.79419 0.0
O345 O 0.03779 0.27157 0.82118 0.0
O346 O 0.06533 0.3103 0.74364 0.0
O347 O 0.07436 0.28607 0.71277 0.0
C348 C 0.11634 0.31122 0.81966 0.0
O349 O 0.06558 0.31043 0.88859 0.0
O350 O 0.07199 0.28462 0.92125 0.0
In351 In 0.42443 0.00985 0.97775 0.0
O352 O 0.40376 0.985 0.90571 0.0
O353 O 0.42599 0.01596 0.87257 0.0
C354 C 0.41266 0.99611 0.09535 0.0
C355 C 0.46134 0.00707 0.97994 0.0
C356 C 0.41027 0.03892 0.99844 0.0
O357 O 0.40409 0.98385 0.04841 0.0
O358 O 0.42719 0.01447 0.08226 0.0
O359 O 0.43016 0.04413 0.99802 0.0
O360 O 0.39826 0.0198 0.98211 0.0
C361 C 0.41193 0.99729 0.85885 0.0
O362 O 0.46077 0.02489 0.9724 0.0
O363 O 0.44334 0.99099 0.98456 0.0
In364 In 0.95996 0.41066 0.01873 0.0
O365 O 0.98205 0.40723 0.9467 0.0
O366 O 0.95409 0.40974 0.9137 0.0
C367 C 0.96903 0.40665 0.13813 0.0
C368 C 0.97549 0.45356 0.01931 0.0
C369 C 0.92807 0.37115 0.0269 0.0
O370 O 0.98092 0.40615 0.09328 0.0
O371 O 0.95327 0.40996 0.12209 0.0
O372 O 0.92444 0.38741 0.03422 0.0
O373 O 0.94705 0.37524 0.01211 0.0
C374 C 0.9709 0.40791 0.89993 0.0
O375 O 0.95551 0.44143 0.01293 0.0
O376 O 0.98695 0.44383 0.02564 0.0
In377 In 0.58477 0.55785 0.00997 0.0
O378 O 0.55867 0.52341 0.99674 0.0
O379 O 0.54929 0.54832 0.01125 0.0
C380 C 0.62302 0.55799 0.02637 0.0
C381 C 0.58778 0.57358 0.89144 0.0
C382 C 0.5846 0.57034 0.13064 0.0
O383 O 0.60581 0.54071 0.02769 0.0
O384 O 0.62085 0.57469 0.01427 0.0
O385 O 0.58684 0.58292 0.08463 0.0
O386 O 0.58203 0.55188 0.11487 0.0
C387 C 0.54346 0.52859 0.0022 0.0
O388 O 0.58504 0.58308 0.93926 0.0
O389 O 0.58953 0.55666 0.90399 0.0
In390 In 0.99622 0.57798 0.48645 0.0
O391 O 0.98122 0.54175 0.47312 0.0
O392 O 0.01527 0.55943 0.47971 0.0
C393 C 0.96982 0.59411 0.52067 0.0
C394 C 0.00871 0.59419 0.37182 0.0
C395 C 0.00868 0.58282 0.60526 0.0
O396 O 0.96261 0.57453 0.50458 0.0
O397 O 0.98971 0.60537 0.51303 0.0
O398 O 0.0214 0.59421 0.56238 0.0
O399 O 0.99054 0.56893 0.58727 0.0
C400 C 0.99925 0.54136 0.47492 0.0
O401 O 0.02129 0.60035 0.4189 0.0
O402 O 0.98977 0.58041 0.38359 0.0
In403 In 0.43819 0.41472 0.50066 0.0
O404 O 0.41375 0.41395 0.42647 0.0
O405 O 0.44192 0.41222 0.39457 0.0
C406 C 0.42185 0.412 0.61743 0.0
C407 C 0.4668 0.45645 0.50287 0.0
C408 C 0.43892 0.37674 0.5146 0.0
O409 O 0.41142 0.41236 0.56849 0.0
O410 O 0.44006 0.41311 0.60671 0.0
O411 O 0.45555 0.39425 0.5234 0.0
O412 O 0.42268 0.37865 0.49538 0.0
C413 C 0.4246 0.41279 0.37988 0.0
O414 O 0.47252 0.44168 0.49497 0.0
O415 O 0.44693 0.44997 0.50916 0.0
In416 In 0.58953 0.03629 0.52068 0.0
O417 O 0.55811 0.03933 0.5103 0.0
O418 O 0.55691 0.00838 0.52389 0.0
C419 C 0.62757 0.07026 0.53221 0.0
C420 C 0.59371 0.0263 0.40219 0.0
C421 C 0.59316 0.02614 0.63936 0.0
O422 O 0.61041 0.0721 0.54105 0.0
O423 O 0.62512 0.05196 0.51467 0.0
O424 O 0.59514 0.01538 0.59343 0.0
O425 O 0.58871 0.04132 0.62458 0.0
C426 C 0.54659 0.01916 0.51522 0.0
O427 O 0.59455 0.01509 0.44858 0.0
O428 O 0.59122 0.04276 0.41628 0.0
In429 In 0.24285 0.32967 0.34566 0.0
O430 O 0.26233 0.3558 0.41586 0.0
O431 O 0.24284 0.32415 0.45059 0.0
C432 C 0.25039 0.34343 0.22708 0.0
C433 C 0.20414 0.32848 0.3481 0.0
C434 C 0.26177 0.30455 0.32447 0.0
O435 O 0.25955 0.35601 0.27291 0.0
O436 O 0.2377 0.32444 0.24194 0.0
O437 O 0.24157 0.29677 0.32918 0.0
O438 O 0.27194 0.32446 0.33488 0.0
C439 C 0.25554 0.34344 0.46324 0.0
O440 O 0.20651 0.31147 0.35253 0.0
O441 O 0.22126 0.34564 0.34479 0.0
In442 In 0.70787 0.92464 0.3244 0.0
O443 O 0.68769 0.93164 0.39612 0.0
O444 O 0.71352 0.92558 0.4297 0.0
C445 C 0.69754 0.92961 0.20637 0.0
C446 C 0.68941 0.88146 0.32514 0.0
C447 C 0.74449 0.96037 0.31117 0.0
O448 O 0.68728 0.93177 0.25323 0.0
O449 O 0.7124 0.92464 0.21983 0.0
O450 O 0.7437 0.942 0.30158 0.0
O451 O 0.72739 0.96024 0.3312 0.0
C452 C 0.69802 0.92966 0.44316 0.0
O453 O 0.70951 0.89239 0.33254 0.0
O454 O 0.67928 0.89245 0.31745 0.0
In455 In 0.07939 0.78374 0.32584 0.0
O456 O 0.10599 0.81839 0.33093 0.0
O457 O 0.11463 0.79296 0.31676 0.0
C458 C 0.04053 0.7824 0.31246 0.0
C459 C 0.07806 0.77056 0.44654 0.0
C460 C 0.07626 0.76744 0.20912 0.0
O461 O 0.05746 0.79948 0.30213 0.0
O462 O 0.04344 0.76681 0.33277 0.0
O463 O 0.07731 0.75712 0.25751 0.0
O464 O 0.07731 0.78566 0.22033 0.0
C465 C 0.12088 0.81287 0.3229 0.0
O466 O 0.07934 0.75968 0.4 0.0
O467 O 0.07715 0.78776 0.43183 0.0
C468 C 0.32863 0.07653 0.47334 0.0
C469 C 0.30734 0.07078 0.4906 0.0
C470 C 0.33458 0.07819 0.40959 0.0
C471 C 0.31938 0.0737 0.36097 0.0
H472 H 0.34096 0.08076 0.5092 0.0
H473 H 0.35132 0.08353 0.39833 0.0
S474 S 0.26114 0.05577 0.38165 0.0
N475 N 0.27075 0.05914 0.45443 0.0
N476 N 0.28185 0.06176 0.33453 0.0
C477 C 0.29783 0.06673 0.3777 0.0
C478 C 0.29183 0.06543 0.4426 0.0
C479 C 0.93 0.23507 0.42073 0.0
C480 C 0.92264 0.24305 0.4716 0.0
C481 C 0.92688 0.23944 0.35759 0.0
C482 C 0.91589 0.2516 0.34275 0.0
H483 H 0.93778 0.22489 0.42966 0.0
H484 H 0.93221 0.23233 0.32018 0.0
S485 S 0.89478 0.27757 0.45817 0.0
N486 N 0.90515 0.26501 0.50255 0.0
N487 N 0.89884 0.27274 0.38417 0.0
C488 C 0.90918 0.26037 0.3931 0.0
C489 C 0.91268 0.25624 0.4574 0.0
C490 C 0.73309 0.63731 0.43152 0.0
C491 C 0.73966 0.65883 0.44864 0.0
C492 C 0.73194 0.63128 0.3679 0.0
C493 C 0.73691 0.64648 0.31909 0.0
H494 H 0.72984 0.62518 0.46752 0.0
H495 H 0.72764 0.61465 0.35697 0.0
S496 S 0.75262 0.70452 0.33889 0.0
N497 N 0.74966 0.69513 0.41184 0.0
N498 N 0.74703 0.68371 0.29205 0.0
C499 C 0.74225 0.66783 0.33545 0.0
C500 C 0.74377 0.67404 0.40033 0.0
C501 C 0.06276 0.29059 0.0498 0.0
C502 C 0.06611 0.30569 0.0016 0.0
C503 C 0.06389 0.29631 0.11371 0.0
C504 C 0.06884 0.31744 0.1316 0.0
H505 H 0.05976 0.27434 0.03812 0.0
H506 H 0.06193 0.28436 0.14923 0.0
S507 S 0.07718 0.36254 0.02389 0.0
N508 N 0.07294 0.34226 0.97617 0.0
N509 N 0.07556 0.35313 0.09642 0.0
C510 C 0.07131 0.33246 0.08399 0.0
C511 C 0.06979 0.32655 0.0189 0.0
C512 C 0.62918 0.73071 0.12097 0.0
C513 C 0.64438 0.73517 0.16965 0.0
C514 C 0.63509 0.73216 0.05721 0.0
C515 C 0.65647 0.73845 0.03985 0.0
H516 H 0.61271 0.72679 0.1321 0.0
H517 H 0.62302 0.72947 0.0214 0.0
S518 S 0.70192 0.74939 0.14881 0.0
N519 N 0.68135 0.74407 0.19598 0.0
N520 N 0.6925 0.74716 0.07604 0.0
C521 C 0.67159 0.74176 0.0879 0.0
C522 C 0.66552 0.74 0.15287 0.0
C523 C 0.26411 0.91104 0.09654 0.0
C524 C 0.25785 0.92021 0.14699 0.0
C525 C 0.26061 0.91485 0.03324 0.0
C526 C 0.25032 0.92763 0.01791 0.0
H527 H 0.27118 0.90028 0.106 0.0
H528 H 0.26497 0.90677 0.99626 0.0
S529 S 0.23254 0.95695 0.13187 0.0
N530 N 0.24243 0.94409 0.17686 0.0
N531 N 0.23541 0.95082 0.05817 0.0
C532 C 0.24489 0.93771 0.06771 0.0
C533 C 0.24879 0.93413 0.13215 0.0
C534 C 0.70053 0.9325 0.62217 0.0
C535 C 0.67934 0.92739 0.63901 0.0
C536 C 0.70659 0.93387 0.55853 0.0
C537 C 0.69179 0.93062 0.50947 0.0
H538 H 0.7123 0.93445 0.6583 0.0
H539 H 0.7229 0.93704 0.54772 0.0
S540 S 0.63485 0.91904 0.52881 0.0
N541 N 0.64387 0.9205 0.60183 0.0
N542 N 0.65537 0.92358 0.48218 0.0
C543 C 0.67084 0.92669 0.52573 0.0
C544 C 0.66458 0.92493 0.59055 0.0
C545 C 0.09036 0.75278 0.52962 0.0
C546 C 0.07905 0.76452 0.51346 0.0
C547 C 0.09354 0.74895 0.59319 0.0
C548 C 0.08509 0.75625 0.64303 0.0
H549 H 0.09753 0.74722 0.49299 0.0
H550 H 0.10295 0.74043 0.60338 0.0
S551 S 0.05289 0.78638 0.62571 0.0
N552 N 0.05859 0.78262 0.55235 0.0
N553 N 0.06402 0.77489 0.67149 0.0
C554 C 0.07297 0.76721 0.62736 0.0
C555 C 0.07012 0.7715 0.56271 0.0
C556 C 0.25635 0.33607 0.57815 0.0
C557 C 0.26034 0.35106 0.52922 0.0
C558 C 0.25772 0.34218 0.64169 0.0
C559 C 0.26279 0.36342 0.6586 0.0
H560 H 0.25148 0.31933 0.5673 0.0
H561 H 0.25375 0.32991 0.67763 0.0
S562 S 0.27675 0.40925 0.54868 0.0
N563 N 0.27134 0.38844 0.50199 0.0
N564 N 0.27357 0.39987 0.62165 0.0
C565 C 0.26787 0.3788 0.6103 0.0
C566 C 0.26677 0.37263 0.5455 0.0
C567 C 0.92288 0.6677 0.90815 0.0
C568 C 0.92697 0.68264 0.85899 0.0
C569 C 0.92532 0.6741 0.97167 0.0
C570 C 0.93153 0.69561 0.98831 0.0
H571 H 0.91721 0.65082 0.89756 0.0
H572 H 0.92125 0.66192 0.00792 0.0
S573 S 0.94591 0.74127 0.87754 0.0
N574 N 0.93913 0.72014 0.83115 0.0
N575 N 0.94324 0.73211 0.9507 0.0
C576 C 0.93658 0.71086 0.93966 0.0
C577 C 0.93445 0.70439 0.87491 0.0
C578 C 0.33609 0.26162 0.92173 0.0
C579 C 0.35123 0.26618 0.97056 0.0
C580 C 0.34205 0.2628 0.85814 0.0
C581 C 0.3633 0.26826 0.84114 0.0
H582 H 0.31935 0.25633 0.9327 0.0
H583 H 0.32968 0.25829 0.8223 0.0
S584 S 0.40952 0.28416 0.95053 0.0
N585 N 0.38879 0.27842 0.99737 0.0
N586 N 0.39992 0.28031 0.87769 0.0
C587 C 0.37883 0.27408 0.88925 0.0
C588 C 0.37281 0.27316 0.95405 0.0
C589 C 0.75693 0.06958 0.86249 0.0
C590 C 0.74503 0.0808 0.84719 0.0
C591 C 0.76098 0.06632 0.92581 0.0
C592 C 0.7529 0.07373 0.97633 0.0
H593 H 0.76409 0.06421 0.82534 0.0
H594 H 0.77098 0.05838 0.93521 0.0
S595 S 0.71891 0.10209 0.96142 0.0
N596 N 0.72401 0.09808 0.88765 0.0
N597 N 0.73111 0.09147 0.00634 0.0
C598 C 0.73995 0.08389 0.96157 0.0
C599 C 0.73617 0.08756 0.89713 0.0
C600 C 0.96233 0.40332 0.78459 0.0
C601 C 0.97735 0.4075 0.83359 0.0
C602 C 0.96834 0.40449 0.72098 0.0
C603 C 0.98967 0.41026 0.70414 0.0
H604 H 0.94584 0.39945 0.79536 0.0
H605 H 0.95636 0.40169 0.6848 0.0
S606 S 0.03486 0.42131 0.81424 0.0
N607 N 0.01423 0.41632 0.86088 0.0
N608 N 0.0256 0.41893 0.74124 0.0
C609 C 0.00471 0.4138 0.75257 0.0
C610 C 0.99853 0.41229 0.81736 0.0
C611 C 0.57014 0.59392 0.74635 0.0
C612 C 0.57948 0.58785 0.69596 0.0
C613 C 0.57393 0.59043 0.80973 0.0
C614 C 0.5868 0.58026 0.82517 0.0
H615 H 0.55942 0.60103 0.73674 0.0
H616 H 0.56586 0.59478 0.84672 0.0
S617 S 0.61619 0.56254 0.71149 0.0
N618 N 0.60337 0.57245 0.66638 0.0
N619 N 0.60995 0.56533 0.78512 0.0
C620 C 0.59683 0.57478 0.77544 0.0
C621 C 0.59333 0.57873 0.71098 0.0
C622 C 0.41276 0.00544 0.74369 0.0
C623 C 0.40692 0.99012 0.79244 0.0
C624 C 0.41077 0.99932 0.67995 0.0
C625 C 0.40326 0.97768 0.66276 0.0
H626 H 0.41945 0.02238 0.75484 0.0
H627 H 0.41614 0.01172 0.64409 0.0
S628 S 0.38405 0.93114 0.77188 0.0
N629 N 0.39172 0.9522 0.81893 0.0
N630 N 0.38841 0.94073 0.69909 0.0
C631 C 0.39648 0.96211 0.71084 0.0
C632 C 0.39817 0.96832 0.77573 0.0
C633 C 0.59907 0.03545 0.28766 0.0
C634 C 0.59411 0.02002 0.33579 0.0
C635 C 0.59721 0.02958 0.22378 0.0
C636 C 0.5899 0.00802 0.20595 0.0
H637 H 0.60398 0.05213 0.29939 0.0
H638 H 0.60058 0.04188 0.18825 0.0
S639 S 0.57643 0.96172 0.31357 0.0
N640 N 0.58303 0.9825 0.36128 0.0
N641 N 0.57908 0.97139 0.24106 0.0
C642 C 0.58568 0.99256 0.25349 0.0
C643 C 0.58793 0.99858 0.31854 0.0
C644 C 0.00063 0.59711 0.25895 0.0
C645 C 0.01592 0.60032 0.30632 0.0
C646 C 0.00607 0.59855 0.19498 0.0
C647 C 0.02691 0.6029 0.17618 0.0
H648 H 0.9841 0.59252 0.27131 0.0
H649 H 0.9935 0.59495 0.1602 0.0
S650 S 0.07346 0.61537 0.28197 0.0
N651 N 0.05327 0.61035 0.33047 0.0
N652 N 0.06347 0.61275 0.20982 0.0
C653 C 0.04271 0.60763 0.22304 0.0
C654 C 0.03721 0.60644 0.28833 0.0
C655 C 0.40387 0.42918 0.23317 0.0
C656 C 0.41122 0.42078 0.1833 0.0
C657 C 0.40724 0.42555 0.29677 0.0
C658 C 0.41859 0.41385 0.31294 0.0
H659 H 0.39577 0.43898 0.22298 0.0
H660 H 0.40176 0.43278 0.33345 0.0
S661 S 0.44026 0.38752 0.20056 0.0
N662 N 0.42933 0.39922 0.15475 0.0
N663 N 0.43626 0.39299 0.27399 0.0
C664 C 0.42551 0.40488 0.26363 0.0
C665 C 0.42165 0.40816 0.19892 0.0
C666 C 0.35105 0.1869 0.15414 0.0
C667 C 0.3311 0.18726 0.14799 0.0
C668 C 0.35247 0.16766 0.16258 0.0
C669 C 0.33401 0.148 0.16504 0.0
H670 H 0.36579 0.20164 0.15324 0.0
H671 H 0.36819 0.16825 0.16715 0.0
S672 S 0.27788 0.14006 0.15019 0.0
N673 N 0.29248 0.16623 0.14413 0.0
N674 N 0.29506 0.12994 0.15974 0.0
C675 C 0.31393 0.14805 0.15826 0.0
C676 C 0.31249 0.1677 0.14972 0.0
C677 C 0.81391 0.15582 0.15928 0.0
C678 C 0.821 0.13986 0.15257 0.0
C679 C 0.8284 0.17763 0.16327 0.0
C680 C 0.85059 0.18438 0.16089 0.0
H681 H 0.79698 0.15148 0.16185 0.0
H682 H 0.82213 0.18926 0.16827 0.0
S683 S 0.8775 0.14903 0.14276 0.0
N684 N 0.85173 0.13239 0.14306 0.0
N685 N 0.87898 0.17324 0.15059 0.0
C686 C 0.85791 0.16858 0.15389 0.0
C687 C 0.84313 0.14637 0.14968 0.0
C688 C 0.84404 0.68965 0.14824 0.0
C689 C 0.85603 0.67807 0.15589 0.0
C690 C 0.82164 0.67913 0.1433 0.0
C691 C 0.81022 0.65657 0.14594 0.0
H692 H 0.85199 0.707 0.14619 0.0
H693 H 0.81321 0.68887 0.13769 0.0
S694 S 0.83398 0.61866 0.16457 0.0
N695 N 0.8547 0.64258 0.16515 0.0
N696 N 0.81271 0.623 0.15605 0.0
C697 C 0.82199 0.64477 0.15327 0.0
C698 C 0.84482 0.65546 0.15818 0.0
C699 C 0.16306 0.34965 0.32845 0.0
C700 C 0.14361 0.33094 0.3258 0.0
C701 C 0.18243 0.34857 0.33683 0.0
C702 C 0.18315 0.32875 0.34283 0.0
H703 H 0.16337 0.3653 0.32431 0.0
H704 H 0.19699 0.36349 0.33823 0.0
S705 S 0.13667 0.27497 0.33898 0.0
N706 N 0.12618 0.29188 0.32987 0.0
N707 N 0.16272 0.28995 0.3455 0.0
C708 C 0.16383 0.30988 0.34042 0.0
C709 C 0.14404 0.31096 0.33186 0.0
C710 C 0.6793 0.82318 0.33963 0.0
C711 C 0.65694 0.81162 0.33195 0.0
C712 C 0.68971 0.84567 0.3369 0.0
C713 C 0.6782 0.85759 0.32628 0.0
H714 H 0.68894 0.81481 0.34841 0.0
H715 H 0.70689 0.85376 0.34361 0.0
S716 S 0.6194 0.83511 0.30131 0.0
N717 N 0.6237 0.81386 0.31205 0.0
N718 N 0.64309 0.85602 0.30668 0.0
C719 C 0.65583 0.84622 0.31774 0.0
C720 C 0.64525 0.8233 0.32063 0.0
C721 C 0.18126 0.83394 0.31189 0.0
C722 C 0.18898 0.85623 0.31849 0.0
C723 C 0.15926 0.8202 0.31304 0.0
C724 C 0.14401 0.82813 0.32094 0.0
H725 H 0.19229 0.82698 0.3063 0.0
H726 H 0.15421 0.80314 0.30808 0.0
S727 S 0.15577 0.88531 0.33911 0.0
N728 N 0.1795 0.8857 0.33228 0.0
N729 N 0.13822 0.85982 0.33452 0.0
C730 C 0.15146 0.8504 0.327 0.0
C731 C 0.1739 0.86444 0.32574 0.0
C732 C 0.6839 0.85263 0.84361 0.0
C733 C 0.66368 0.85229 0.83636 0.0
C734 C 0.68592 0.83378 0.85417 0.0
C735 C 0.66781 0.81386 0.85801 0.0
H736 H 0.69837 0.8676 0.84109 0.0
H737 H 0.70184 0.83485 0.85858 0.0
S738 S 0.61114 0.80424 0.84326 0.0
N739 N 0.62516 0.83039 0.83449 0.0
N740 N 0.62887 0.79489 0.85442 0.0
C741 C 0.64744 0.81328 0.85141 0.0
C742 C 0.6454 0.8325 0.84046 0.0
C743 C 0.18588 0.84356 0.83569 0.0
C744 C 0.1799 0.86001 0.84907 0.0
C745 C 0.17066 0.82197 0.83296 0.0
C746 C 0.14887 0.81597 0.84351 0.0
H747 H 0.20243 0.84739 0.82618 0.0
H748 H 0.17602 0.80996 0.82168 0.0
S749 S 0.12502 0.85273 0.88393 0.0
N750 N 0.15077 0.86868 0.87541 0.0
N751 N 0.12219 0.82825 0.87057 0.0
C752 C 0.14274 0.83223 0.85829 0.0
C753 C 0.15824 0.85419 0.86098 0.0
C754 C 0.1528 0.31252 0.82923 0.0
C755 C 0.14012 0.32338 0.822 0.0
C756 C 0.1752 0.32372 0.83211 0.0
C757 C 0.18594 0.3463 0.82802 0.0
H758 H 0.14539 0.29519 0.83283 0.0
H759 H 0.18416 0.3145 0.8379 0.0
S760 S 0.16023 0.38249 0.80842 0.0
N761 N 0.14006 0.35821 0.81041 0.0
N762 N 0.18207 0.3791 0.81601 0.0
C763 C 0.17349 0.35739 0.82058 0.0
C764 C 0.15064 0.34599 0.81752 0.0
C765 C 0.83253 0.68661 0.6457 0.0
C766 C 0.81249 0.66861 0.64358 0.0
C767 C 0.85124 0.68438 0.65607 0.0
C768 C 0.85068 0.66407 0.66479 0.0
H769 H 0.83381 0.70259 0.63971 0.0
H770 H 0.8663 0.69878 0.65704 0.0
S771 S 0.80222 0.61176 0.66344 0.0
N772 N 0.79314 0.62966 0.65101 0.0
N773 N 0.82841 0.62559 0.67048 0.0
C774 C 0.83076 0.6459 0.66279 0.0
C775 C 0.81166 0.64815 0.65212 0.0
C776 C 0.32479 0.17927 0.66829 0.0
C777 C 0.34728 0.19036 0.67329 0.0
C778 C 0.31397 0.15679 0.6696 0.0
C779 C 0.32516 0.14438 0.67603 0.0
H780 H 0.31535 0.18802 0.66283 0.0
H781 H 0.2967 0.14911 0.66522 0.0
S782 S 0.38417 0.16545 0.69223 0.0
N783 N 0.38033 0.18712 0.68583 0.0
N784 N 0.36015 0.14495 0.68848 0.0
C785 C 0.34767 0.15525 0.68169 0.0
C786 C 0.35868 0.17818 0.68028 0.0
C787 C 0.81915 0.16725 0.66299 0.0
C788 C 0.81221 0.14496 0.66171 0.0
C789 C 0.8409 0.1816 0.65748 0.0
C790 C 0.85665 0.17428 0.65038 0.0
H791 H 0.8077 0.17373 0.66806 0.0
H792 H 0.84537 0.19862 0.6591 0.0
S793 S 0.84698 0.11742 0.64449 0.0
N794 N 0.82295 0.1162 0.65298 0.0
N795 N 0.86374 0.1432 0.64265 0.0
C796 C 0.84996 0.15203 0.64901 0.0
C797 C 0.82779 0.13739 0.65471 0.0
C798 C 0.98529 0.48267 0.49568 0.0
C799 C 0.00548 0.48273 0.49939 0.0
C800 C 0.98338 0.5016 0.48549 0.0
C801 C 0.00158 0.52131 0.47856 0.0
H802 H 0.97076 0.46789 0.5012 0.0
H803 H 0.96752 0.5008 0.48438 0.0
S804 S 0.05814 0.53001 0.48076 0.0
N805 N 0.04402 0.50403 0.4928 0.0
N806 N 0.04052 0.53968 0.47345 0.0
C807 C 0.02189 0.52155 0.48069 0.0
C808 C 0.02382 0.50225 0.49126 0.0
C809 C 0.50398 0.48619 0.49557 0.0
C810 C 0.48202 0.47959 0.50485 0.0
C811 C 0.51864 0.50795 0.49716 0.0
C812 C 0.51198 0.52404 0.50815 0.0
H813 H 0.50994 0.47447 0.48689 0.0
H814 H 0.53539 0.51215 0.48959 0.0
S815 S 0.45624 0.51531 0.53592 0.0
N816 N 0.45429 0.49099 0.52587 0.0
N817 N 0.48191 0.53183 0.5288 0.0
C818 C 0.49008 0.5177 0.51764 0.0
C819 C 0.47511 0.49551 0.51601 0.0
C820 C 0.51165 0.02068 0.49711 0.0
C821 C 0.52282 0.00853 0.50943 0.0
C822 C 0.4893 0.01082 0.48996 0.0
C823 C 0.47712 0.98838 0.49477 0.0
H824 H 0.52022 0.03795 0.49265 0.0
H825 H 0.48152 0.02096 0.4805 0.0
S826 S 0.49854 0.94919 0.52704 0.0
N827 N 0.51986 0.97267 0.52654 0.0
N828 N 0.478 0.95433 0.51304 0.0
C829 C 0.48806 0.97603 0.50724 0.0
C830 C 0.51083 0.98605 0.5146 0.0
C831 C 0.48026 0.98441 0.99654 0.0
C832 C 0.48135 0.00487 0.98634 0.0
C833 C 0.49877 0.98168 0.00541 0.0
C834 C 0.51908 0.99931 0.00448 0.0
H835 H 0.46496 0.9703 0.99808 0.0
H836 H 0.49711 0.96562 0.01303 0.0
S837 S 0.53071 0.0563 0.97879 0.0
N838 N 0.50439 0.04305 0.97529 0.0
N839 N 0.53927 0.03803 0.99193 0.0
C840 C 0.52044 0.01989 0.99405 0.0
C841 C 0.50155 0.02265 0.98493 0.0
C842 C 0.01797 0.51173 0.01918 0.0
C843 C 0.00607 0.52347 0.01386 0.0
C844 C 0.00785 0.48923 0.0215 0.0
C845 C 0.98537 0.47743 0.01836 0.0
H846 H 0.03528 0.51994 0.02108 0.0
H847 H 0.01785 0.48102 0.02519 0.0
S848 S 0.94671 0.50042 0.00554 0.0
N849 N 0.97036 0.52151 0.00665 0.0
N850 N 0.95152 0.47931 0.01073 0.0
C851 C 0.97324 0.48895 0.01368 0.0
C852 C 0.98353 0.5119 0.01152 0.0
C853 C 0.48282 0.50607 0.00594 0.0
C854 C 0.47577 0.48399 0.99608 0.0
C855 C 0.50471 0.52028 0.00746 0.0
C856 C 0.52047 0.51303 -0.00078 0.0
H857 H 0.47137 0.51245 0.01285 0.0
H858 H 0.50928 0.53713 0.01548 0.0
S859 S 0.51049 0.45676 0.97096 0.0
N860 N 0.48641 0.45554 0.9772 0.0
N861 N 0.52742 0.48228 0.98018 0.0
C862 C 0.51365 0.49102 0.98892 0.0
C863 C 0.49136 0.47652 0.98732 0.0
C864 C 0.37867 0.04395 0.02831 0.0
C865 C 0.401 0.05177 0.02982 0.0
C866 C 0.36832 0.05206 0.06871 0.0
C867 C 0.37986 0.06869 0.11146 0.0
H868 H 0.3689 0.03078 0.99742 0.0
H869 H 0.35103 0.04522 0.06602 0.0
S870 S 0.43869 0.09621 0.13084 0.0
N871 N 0.43455 0.0779 0.07581 0.0
N872 N 0.41482 0.09387 0.15028 0.0
C873 C 0.40225 0.07762 0.11128 0.0
C874 C 0.4129 0.06902 0.07068 0.0
C875 C 0.90735 0.31178 0.03737 0.0
C876 C 0.89807 0.30721 0.09778 0.0
C877 C 0.91464 0.33222 0.01098 0.0
C878 C 0.91307 0.34895 0.04419 0.0
H879 H 0.91027 0.2998 0.012 0.0
H880 H 0.92318 0.33542 0.96646 0.0
S881 S 0.88784 0.34453 0.20115 0.0
N882 N 0.8857 0.32026 0.18767 0.0
N883 N 0.89967 0.35904 0.13824 0.0
C884 C 0.9021 0.34411 0.10229 0.0
C885 C 0.89457 0.32311 0.12923 0.0
C886 C 0.68208 0.57416 0.0367 0.0
C887 C 0.68571 0.57744 0.1022 0.0
C888 C 0.66123 0.56578 0.01164 0.0
C889 C 0.64346 0.55984 0.05162 0.0
H890 H 0.69547 0.58019 0.00432 0.0
H891 H 0.65915 0.56544 0.96077 0.0
S892 S 0.64445 0.56319 0.22652 0.0
N893 N 0.66988 0.5728 0.20637 0.0
N894 N 0.6307 0.5561 0.15972 0.0
C895 C 0.64682 0.56121 0.1173 0.0
C896 C 0.66799 0.57023 0.14257 0.0
C897 C 0.03641 0.37503 0.45803 0.0
C898 C 0.04651 0.39746 0.46421 0.0
C899 C 0.04464 0.36454 0.41851 0.0
C900 C 0.0636 0.37594 0.38425 0.0
H901 H 0.02152 0.36539 0.48221 0.0
H902 H 0.03607 0.34722 0.41542 0.0
S903 S 0.09735 0.4347 0.38758 0.0
N904 N 0.07713 0.43079 0.43493 0.0
N905 N 0.09312 0.41072 0.36193 0.0
C906 C 0.07453 0.39827 0.39206 0.0
C907 C 0.06589 0.40911 0.43182 0.0
C908 C 0.58528 0.68642 0.47636 0.0
C909 C 0.58072 0.68893 0.41292 0.0
C910 C 0.57666 0.66617 0.50489 0.0
C911 C 0.56296 0.64777 0.47119 0.0
H912 H 0.59711 0.69994 0.50234 0.0
H913 H 0.58199 0.6647 0.55207 0.0
S914 S 0.5447 0.6461 0.30548 0.0
N915 N 0.56072 0.67172 0.31843 0.0
N916 N 0.54389 0.63355 0.37256 0.0
C917 C 0.5568 0.65032 0.40947 0.0
C918 C 0.5659 0.67097 0.38006 0.0
C919 C 0.31409 0.89747 0.44356 0.0
C920 C 0.31158 0.89604 0.37748 0.0
C921 C 0.33448 0.90562 0.47134 0.0
C922 C 0.35293 0.91216 0.43396 0.0
H923 H 0.30043 0.89423 0.47363 0.0
H924 H 0.33594 0.90851 0.52191 0.0
S925 S 0.35462 0.90968 0.25907 0.0
N926 N 0.32892 0.90043 0.27563 0.0
N927 N 0.36724 0.91498 0.32789 0.0
C928 C 0.35042 0.90893 0.36821 0.0
C929 C 0.3297 0.9011 0.33985 0.0
C930 C 0.58801 0.93386 0.92832 0.0
C931 C 0.59918 0.94996 0.97328 0.0
C932 C 0.59886 0.92555 0.88936 0.0
C933 C 0.62118 0.93356 0.89333 0.0
H934 H 0.57102 0.92842 0.92097 0.0
H935 H 0.5899 0.91345 0.85452 0.0
S936 S 0.65718 0.97308 0.01008 0.0
N937 N 0.63327 0.97128 0.02524 0.0
N938 N 0.6537 0.9566 0.95036 0.0
C939 C 0.63227 0.94878 0.94036 0.0
C940 C 0.62123 0.95669 0.98093 0.0
C941 C 0.10252 0.68544 0.91018 0.0
C942 C 0.09214 0.68961 0.85834 0.0
C943 C 0.09394 0.66503 0.93898 0.0
C944 C 0.0748 0.64837 0.91652 0.0
H945 H 0.11636 0.69837 0.93158 0.0
H946 H 0.10143 0.66275 0.98139 0.0
S947 S 0.04378 0.65 0.77556 0.0
N948 N 0.06346 0.67451 0.78091 0.0
N949 N 0.04743 0.63652 0.83479 0.0
C950 C 0.06544 0.65192 0.86162 0.0
C951 C 0.0741 0.67246 0.83249 0.0
C952 C 0.33296 0.4228 0.99566 0.0
C953 C 0.35108 0.43815 0.96467 0.0
C954 C 0.3127 0.41471 0.96756 0.0
C955 C 0.3098 0.42159 0.90735 0.0
H956 H 0.33468 0.41579 0.03983 0.0
H957 H 0.29952 0.40164 0.99082 0.0
S958 S 0.35153 0.46313 0.80927 0.0
N959 N 0.36447 0.4615 0.87308 0.0
N960 N 0.32619 0.44586 0.81984 0.0
C961 C 0.32736 0.43815 0.87798 0.0
C962 C 0.34809 0.4466 0.90694 0.0
C963 C 0.95763 0.6298 0.63055 0.0
C964 C 0.9352 0.62101 0.62965 0.0
C965 C 0.96841 0.62095 0.59458 0.0
C966 C 0.95727 0.60275 0.55658 0.0
H967 H 0.96708 0.64415 0.65765 0.0
H968 H 0.98573 0.62856 0.59671 0.0
S969 S 0.89838 0.57251 0.54107 0.0
N970 N 0.90203 0.59239 0.58988 0.0
N971 N 0.92252 0.57532 0.52306 0.0
C972 C 0.93481 0.59308 0.55738 0.0
C973 C 0.92371 0.60229 0.59382 0.0
C974 C 0.42254 0.33721 0.50378 0.0
C975 C 0.43682 0.3557 0.53602 0.0
C976 C 0.41478 0.317 0.53214 0.0
C977 C 0.42091 0.31455 0.59386 0.0
H978 H 0.41608 0.33856 0.45822 0.0
H979 H 0.40247 0.30343 0.50769 0.0
S980 S 0.45924 0.35756 0.69645 0.0
N981 N 0.45821 0.37007 0.631 0.0
N982 N 0.44315 0.33188 0.68471 0.0
C983 C 0.43639 0.33257 0.62484 0.0
C984 C 0.44453 0.35325 0.59564 0.0
C985 C 0.65215 0.09258 0.61697 0.0
C986 C 0.64894 0.08618 0.55303 0.0
C987 C 0.67255 0.1002 0.64504 0.0
C988 C 0.69026 0.10205 0.60942 0.0
H989 H 0.63853 0.08954 0.64699 0.0
H990 H 0.67413 0.10302 0.69561 0.0
S991 S 0.69068 0.08987 0.43905 0.0
N992 N 0.66545 0.08398 0.45416 0.0
N993 N 0.70373 0.09887 0.50626 0.0
C994 C 0.68754 0.09758 0.54441 0.0
C995 C 0.66686 0.08955 0.51625 0.0
C996 C 0.73123 0.74656 0.74805 0.0
C997 C 0.71556 0.7345 0.7929 0.0
C998 C 0.74025 0.73663 0.7079 0.0
C999 C 0.73345 0.71439 0.7109 0.0
H1000 H 0.73573 0.76346 0.74174 0.0
H1001 H 0.75187 0.74618 0.67281 0.0
S1002 S 0.69584 0.6766 0.82771 0.0
N1003 N 0.69606 0.69988 0.84378 0.0
N1004 N 0.71233 0.68121 0.7676 0.0
C1005 C 0.71883 0.70254 0.75822 0.0
C1006 C 0.71007 0.71262 0.7995 0.0
C1007 C 0.22854 0.9817 0.71008 0.0
C1008 C 0.22556 0.97978 0.77589 0.0
C1009 C 0.23662 0.0018 0.68058 0.0
C1010 C 0.24169 0.02056 0.71587 0.0
H1011 H 0.22656 0.96788 0.68212 0.0
H1012 H 0.24077 0.00289 0.63089 0.0
S1013 S 0.2343 0.02357 0.88853 0.0
N1014 N 0.22646 0.9978 0.87473 0.0
N1015 N 0.24107 0.03563 0.81909 0.0
C1016 C 0.23672 0.01853 0.78072 0.0
C1017 C 0.22887 0.99807 0.81094 0.0
C1018 C 0.01649 0.23407 0.70964 0.0
C1019 C 0.01773 0.2375 0.77551 0.0
C1020 C 0.99668 0.22583 0.67792 0.0
C1021 C 0.97758 0.22015 0.71149 0.0
H1022 H 0.03099 0.24002 0.68169 0.0
H1023 H 0.99647 0.22547 0.62667 0.0
S1024 S 0.97211 0.22385 0.88471 0.0
N1025 N 0.99813 0.23315 0.87331 0.0
N1026 N 0.96092 0.21675 0.81416 0.0
C1027 C 0.9785 0.2216 0.77775 0.0
C1028 C 0.99861 0.23047 0.80974 0.0
C1029 C 0.27233 0.26532 0.22359 0.0
C1030 C 0.29479 0.27435 0.22429 0.0
C1031 C 0.26145 0.27438 0.25936 0.0
C1032 C 0.27273 0.29258 0.29741 0.0
H1033 H 0.26315 0.2515 0.19416 0.0
H1034 H 0.24421 0.26761 0.25518 0.0
S1035 S 0.33144 0.32015 0.32335 0.0
N1036 N 0.32776 0.30111 0.2715 0.0
N1037 N 0.30736 0.31786 0.33877 0.0
C1038 C 0.29509 0.30096 0.30117 0.0
C1039 C 0.30612 0.29193 0.2645 0.0
C1040 C 0.76431 0.98136 0.21835 0.0
C1041 C 0.7611 0.98032 0.28424 0.0
C1042 C 0.77235 0.00109 0.18633 0.0
C1043 C 0.77816 0.02036 0.2196 0.0
H1044 H 0.7583 0.96674 0.1906 0.0
H1045 H 0.77249 0.00113 0.13507 0.0
S1046 S 0.77513 0.02637 0.39286 0.0
N1047 N 0.76579 1.00026 0.38182 0.0
N1048 N 0.78198 0.03739 0.32212 0.0
C1049 C 0.77703 0.01966 0.28592 0.0
C1050 C 0.76825 0.99959 0.31822 0.0
C1051 C 0.01631 0.783 0.22646 0.0
C1052 C 0.01916 0.77888 0.29018 0.0
C1053 C 0.99597 0.7732 0.19777 0.0
C1054 C 0.97786 0.75962 0.23261 0.0
H1055 H 0.03011 0.79206 0.19705 0.0
H1056 H 0.99468 0.77493 0.14721 0.0
S1057 S 0.97659 0.74588 0.40239 0.0
N1058 N 0.00205 0.76173 0.38806 0.0
N1059 N 0.96383 0.74416 0.3351 0.0
C1060 C 0.98031 0.75704 0.29754 0.0
C1061 C 0.00098 0.7665 0.32619 0.0
C1062 C 0.29796 0.0691 0.97303 0.0
C1063 C 0.3186 0.07328 0.99287 0.0
C1064 C 0.29308 0.06811 0.90854 0.0
C1065 C 0.30854 0.07077 0.86214 0.0
H1066 H 0.28597 0.06799 0.00725 0.0
H1067 H 0.27731 0.06605 0.89496 0.0
S1068 S 0.36405 0.07898 0.89111 0.0
N1069 N 0.35403 0.07811 0.96234 0.0
N1070 N 0.34461 0.07555 0.84089 0.0
C1071 C 0.32873 0.0733 0.8817 0.0
C1072 C 0.33383 0.07475 0.94729 0.0
C1073 C 0.92682 0.25466 0.93989 0.0
C1074 C 0.90767 0.2411 0.97065 0.0
C1075 C 0.92972 0.25205 0.87503 0.0
C1076 C 0.91371 0.23551 0.83984 0.0
H1077 H 0.93944 0.26752 0.96577 0.0
H1078 H 0.94471 0.26258 0.85279 0.0
S1079 S 0.86097 0.19559 0.89866 0.0
N1080 N 0.8726 0.21063 0.96087 0.0
N1081 N 0.87827 0.20546 0.84023 0.0
C1082 C 0.89465 0.22185 0.87032 0.0
C1083 C 0.89156 0.22471 0.93546 0.0
C1084 C 0.74407 0.66449 0.92958 0.0
C1085 C 0.73809 0.64333 0.94894 0.0
C1086 C 0.74581 0.6697 0.86533 0.0
C1087 C 0.74114 0.65386 0.81847 0.0
H1088 H 0.74853 0.67726 0.96414 0.0
H1089 H 0.7514 0.68638 0.85224 0.0
S1090 S 0.72201 0.59568 0.84487 0.0
N1091 N 0.72566 0.60612 0.91664 0.0
N1092 N 0.72838 0.61599 0.79549 0.0
C1093 C 0.73367 0.63245 0.8371 0.0
C1094 C 0.73232 0.62717 0.90259 0.0
C1095 C 0.06352 0.28879 0.5851 0.0
C1096 C 0.06588 0.30442 0.63093 0.0
C1097 C 0.06451 0.29342 0.52041 0.0
C1098 C 0.06822 0.3139 0.49994 0.0
H1099 H 0.06171 0.27312 0.59932 0.0
H1100 H 0.0638 0.28141 0.48662 0.0
S1101 S 0.07234 0.35936 0.59987 0.0
N1102 N 0.06952 0.34029 0.65082 0.0
N1103 N 0.07181 0.34913 0.52904 0.0
C1104 C 0.06911 0.32915 0.54489 0.0
C1105 C 0.06779 0.32436 0.61062 0.0
C1106 C 0.65071 0.73158 0.6349 0.0
C1107 C 0.65003 0.74762 0.67368 0.0
C1108 C 0.64761 0.73183 0.56935 0.0
C1109 C 0.64347 0.74796 0.54143 0.0
H1110 H 0.65458 0.7194 0.65491 0.0
H1111 H 0.64842 0.71937 0.54043 0.0
S1112 S 0.63977 0.7932 0.62394 0.0
N1113 N 0.64495 0.77984 0.6806 0.0
N1114 N 0.63843 0.78001 0.55782 0.0
C1115 C 0.64219 0.7637 0.58033 0.0
C1116 C 0.64569 0.76362 0.6465 0.0
C1117 C 0.25919 0.93137 0.61591 0.0
C1118 C 0.24269 0.91524 0.65062 0.0
C1119 C 0.26183 0.92865 0.55092 0.0
C1120 C 0.24833 0.90953 0.51946 0.0
H1121 H 0.26964 0.94637 0.63855 0.0
H1122 H 0.27459 0.94143 0.52538 0.0
S1123 S 0.20308 0.8624 0.59027 0.0
N1124 N 0.21288 0.87961 0.6492 0.0
N1125 N 0.21805 0.87426 0.52838 0.0
C1126 C 0.23206 0.89323 0.55431 0.0
C1127 C 0.22918 0.89615 0.61959 0.0
C1128 C 0.7078 0.93574 0.09293 0.0
C1129 C 0.69209 0.93124 0.13993 0.0
C1130 C 0.70248 0.93395 0.02854 0.0
C1131 C 0.6812 0.92711 0.00942 0.0
H1132 H 0.72422 0.93999 0.10603 0.0
H1133 H 0.71483 0.9367 0.99384 0.0
S1134 S 0.63461 0.91585 0.11345 0.0
N1135 N 0.65489 0.92191 0.16273 0.0
N1136 N 0.64466 0.91776 0.04179 0.0
C1137 C 0.66557 0.92373 0.0558 0.0
C1138 C 0.67109 0.92604 0.12118 0.0
C1139 C 0.08609 0.74771 0.12668 0.0
C1140 C 0.0754 0.75992 0.14338 0.0
C1141 C 0.08889 0.74399 0.06292 0.0
C1142 C 0.08073 0.75199 0.01382 0.0
H1143 H 0.09343 0.7421 0.1628 0.0
H1144 H 0.09818 0.73542 0.05196 0.0
S1145 S 0.04903 0.78245 0.03346 0.0
N1146 N 0.05489 0.7783 0.10637 0.0
N1147 N 0.05981 0.77092 0.98667 0.0
C1148 C 0.06868 0.76286 0.03015 0.0
C1149 C 0.06613 0.76696 0.09497 0.0
C1150 C 0.24898 0.33432 0.11342 0.0
C1151 C 0.25325 0.35002 0.16045 0.0
C1152 C 0.2491 0.33929 0.04936 0.0
C1153 C 0.25307 0.36001 0.03037 0.0
H1154 H 0.24518 0.31795 0.12625 0.0
H1155 H 0.24541 0.32666 0.0147 0.0
S1156 S 0.26661 0.4072 0.13478 0.0
N1157 N 0.26285 0.38736 0.18376 0.0
N1158 N 0.26265 0.39673 0.06304 0.0
C1159 C 0.258 0.37604 0.07678 0.0
C1160 C 0.25826 0.37105 0.14201 0.0
C1161 C 0.92313 0.7002 0.47091 0.0
C1162 C 0.92258 0.68072 0.49018 0.0
C1163 C 0.92312 0.70491 0.40663 0.0
C1164 C 0.92322 0.6906 0.35961 0.0
H1165 H 0.92248 0.71136 0.50555 0.0
H1166 H 0.92283 0.71984 0.39379 0.0
S1167 S 0.92342 0.63807 0.38686 0.0
N1168 N 0.92291 0.64731 0.45848 0.0
N1169 N 0.92379 0.65658 0.33725 0.0
C1170 C 0.92361 0.67145 0.37856 0.0
C1171 C 0.92308 0.66642 0.44406 0.0
C1172 C 0.33983 0.25057 0.44901 0.0
C1173 C 0.36063 0.25547 0.46925 0.0
C1174 C 0.33505 0.2499 0.38465 0.0
C1175 C 0.351 0.25455 0.33852 0.0
H1176 H 0.32703 0.24666 0.48299 0.0
H1177 H 0.31866 0.24555 0.37089 0.0
S1178 S 0.40835 0.27003 0.36735 0.0
N1179 N 0.39761 0.26609 0.4386 0.0
N1180 N 0.38857 0.26531 0.31719 0.0
C1181 C 0.37204 0.26034 0.35809 0.0
C1182 C 0.37687 0.26062 0.42369 0.0
C1183 C 0.76272 0.10388 0.43368 0.0
C1184 C 0.75009 0.08658 0.47307 0.0
C1185 C 0.7654 0.10085 0.36967 0.0
C1186 C 0.75516 0.08049 0.34181 0.0
H1187 H 0.77116 0.11996 0.45272 0.0
H1188 H 0.77592 0.11457 0.34185 0.0
S1189 S 0.71974 0.02988 0.42266 0.0
N1190 N 0.72682 0.04825 0.47902 0.0
N1191 N 0.73159 0.04267 0.35733 0.0
C1192 C 0.74195 0.06304 0.37966 0.0
C1193 C 0.73951 0.06605 0.44571 0.0
C1194 C 0.99462 0.40943 0.22351 0.0
C1195 C 0.97367 0.40466 0.20504 0.0
C1196 C 9e-05 0.41065 0.28747 0.0
C1197 C 0.98473 0.40681 0.33503 0.0
H1198 H 0.00711 0.4133 0.18853 0.0
H1199 H 0.01667 0.41537 0.29977 0.0
S1200 S 0.92703 0.39073 0.31112 0.0
N1201 N 0.93698 0.39393 0.23891 0.0
N1202 N 0.94737 0.396 0.35958 0.0
C1203 C 0.96342 0.40049 0.31727 0.0
C1204 C 0.95787 0.39951 0.25203 0.0
C1205 C 0.58082 0.59386 0.21499 0.0
C1206 C 0.58444 0.57619 0.19816 0.0
C1207 C 0.57851 0.59822 0.27871 0.0
C1208 C 0.58048 0.58553 0.32781 0.0
H1209 H 0.57886 0.60384 0.1787 0.0
H1210 H 0.57468 0.61133 0.28961 0.0
S1211 S 0.59051 0.5379 0.30968 0.0
N1212 N 0.58999 0.54602 0.23658 0.0
N1213 N 0.58673 0.55502 0.35583 0.0
C1214 C 0.58502 0.56846 0.31194 0.0
C1215 C 0.58671 0.56358 0.24721 0.0
C1216 C 0.40417 0.96434 0.24522 0.0
C1217 C 0.40636 0.97957 0.29219 0.0
C1218 C 0.40453 0.96919 0.18086 0.0
C1219 C 0.40753 0.98957 0.16153 0.0
H1220 H 0.4028 0.94873 0.25815 0.0
H1221 H 0.40376 0.95739 0.14625 0.0
S1222 S 0.41166 0.03432 0.26482 0.0
N1223 N 0.40955 0.01515 0.3145 0.0
N1224 N 0.4108 0.02448 0.19323 0.0
C1225 C 0.40861 0.00457 0.20769 0.0
C1226 C 0.40787 0.99951 0.27322 0.0
C1227 C 0.59699 0.03195 0.81711 0.0
C1228 C 0.59315 0.01134 0.83675 0.0
C1229 C 0.59784 0.03683 0.75266 0.0
C1230 C 0.59516 0.02132 0.70614 0.0
H1231 H 0.59798 0.04392 0.85144 0.0
H1232 H 0.59988 0.05264 0.73925 0.0
S1233 S 0.58812 0.96602 0.73467 0.0
N1234 N 0.58903 0.97606 0.806 0.0
N1235 N 0.59098 0.98533 0.6846 0.0
C1236 C 0.59301 0.00118 0.72552 0.0
C1237 C 0.59188 0.99616 0.79107 0.0
C1238 C 0.03247 0.58563 0.69557 0.0
C1239 C 0.0137 0.5857 0.67247 0.0
C1240 C 0.0357 0.58511 0.76073 0.0
C1241 C 0.02036 0.58495 0.80433 0.0
H1242 H 0.04427 0.58513 0.66323 0.0
H1243 H 0.05028 0.58477 0.77693 0.0
S1244 S 0.96956 0.58732 0.76562 0.0
N1245 N 0.98028 0.58698 0.69637 0.0
N1246 N 0.98644 0.58645 0.81912 0.0
C1247 C 0.00192 0.58591 0.78128 0.0
C1248 C 0.99857 0.58618 0.71511 0.0
C1249 C 0.42307 0.40423 0.73216 0.0
C1250 C 0.41454 0.41187 0.68315 0.0
C1251 C 0.41949 0.4071 0.796 0.0
C1252 C 0.40763 0.41813 0.81295 0.0
H1253 H 0.43326 0.39664 0.72112 0.0
H1254 H 0.42716 0.40186 0.8321 0.0
S1255 S 0.37992 0.43921 0.70313 0.0
N1256 N 0.39202 0.42908 0.65617 0.0
N1257 N 0.3857 0.43499 0.77609 0.0
C1258 C 0.39801 0.42477 0.76454 0.0
C1259 C 0.40132 0.42148 0.69958 0.0
loop_
_geom_bond_atom_site_label_1
_geom_bond_atom_site_label_2
_geom_bond_distance
_geom_bond_site_symmetry_2
_ccdc_geom_bond_type
In0 O1 2.294 . S
In0 O2 2.326 . S
In0 O6 2.266 . S
In0 O7 2.326 . S
In0 O8 2.266 . S
In0 O9 2.326 . S
In0 O11 2.294 . S
In0 O12 2.326 . S
O1 In0 2.294 . S
O1 C10 1.240 . S
O2 In0 2.326 . S
O2 C10 1.252 . S
C3 O6 1.252 . S
C3 O7 1.260 . S
C4 O11 1.240 . S
C4 O12 1.252 . S
C5 O8 1.252 . S
C5 O9 1.260 . S
O6 In0 2.266 . S
O6 C3 1.252 . S
O7 In0 2.326 . S
O7 C3 1.260 . S
O8 In0 2.266 . S
O8 C5 1.252 . S
O9 In0 2.326 . S
O9 C5 1.260 . S
C10 O1 1.240 . S
C10 O2 1.252 . S
O11 In0 2.294 . S
O11 C4 1.240 . S
O12 In0 2.326 . S
O12 C4 1.252 . S
In13 O14 2.294 . S
In13 O15 2.326 . S
In13 O19 2.266 . S
In13 O20 2.326 . S
In13 O21 2.266 . S
In13 O22 2.326 . S
In13 O24 2.294 . S
In13 O25 2.326 . S
O14 In13 2.294 . S
O14 C23 1.240 . S
O15 In13 2.326 . S
O15 C23 1.252 . S
C16 O19 1.252 . S
C16 O20 1.260 . S
C17 O24 1.240 . S
C17 O25 1.252 . S
C18 O21 1.252 . S
C18 O22 1.260 . S
O19 In13 2.266 . S
O19 C16 1.252 . S
O20 In13 2.326 . S
O20 C16 1.260 . S
O21 In13 2.266 . S
O21 C18 1.252 . S
O22 In13 2.326 . S
O22 C18 1.260 . S
C23 O14 1.240 . S
C23 O15 1.252 . S
O24 In13 2.294 . S
O24 C17 1.240 . S
O25 In13 2.326 . S
O25 C17 1.252 . S
In26 O27 2.294 . S
In26 O28 2.326 . S
In26 O32 2.266 . S
In26 O33 2.326 . S
In26 O34 2.266 . S
In26 O35 2.326 . S
In26 O37 2.294 . S
In26 O38 2.326 . S
O27 In26 2.294 . S
O27 C36 1.240 . S
O28 In26 2.326 . S
O28 C36 1.252 . S
C29 O32 1.252 . S
C29 O33 1.260 . S
C30 O37 1.240 . S
C30 O38 1.252 . S
C31 O34 1.252 . S
C31 O35 1.260 . S
O32 In26 2.266 . S
O32 C29 1.252 . S
O33 In26 2.326 . S
O33 C29 1.260 . S
O34 In26 2.266 . S
O34 C31 1.252 . S
O35 In26 2.326 . S
O35 C31 1.260 . S
C36 O27 1.240 . S
C36 O28 1.252 . S
O37 In26 2.294 . S
O37 C30 1.240 . S
O38 In26 2.326 . S
O38 C30 1.252 . S
In39 O40 2.294 . S
In39 O41 2.326 . S
In39 O45 2.266 . S
In39 O46 2.326 . S
In39 O47 2.266 . S
In39 O48 2.326 . S
In39 O50 2.294 . S
In39 O51 2.326 . S
O40 In39 2.294 . S
O40 C49 1.240 . S
O41 In39 2.326 . S
O41 C49 1.252 . S
C42 O45 1.252 . S
C42 O46 1.260 . S
C43 O50 1.240 . S
C43 O51 1.252 . S
C44 O47 1.252 . S
C44 O48 1.260 . S
O45 In39 2.266 . S
O45 C42 1.252 . S
O46 In39 2.326 . S
O46 C42 1.260 . S
O47 In39 2.266 . S
O47 C44 1.252 . S
O48 In39 2.326 . S
O48 C44 1.260 . S
C49 O40 1.240 . S
C49 O41 1.252 . S
O50 In39 2.294 . S
O50 C43 1.240 . S
O51 In39 2.326 . S
O51 C43 1.252 . S
In52 O53 2.294 . S
In52 O54 2.326 . S
In52 O58 2.266 . S
In52 O59 2.326 . S
In52 O60 2.266 . S
In52 O61 2.326 . S
In52 O63 2.294 . S
In52 O64 2.326 . S
O53 In52 2.294 . S
O53 C62 1.240 . S
O54 In52 2.326 . S
O54 C62 1.252 . S
C55 O58 1.252 . S
C55 O59 1.260 . S
C56 O63 1.240 . S
C56 O64 1.252 . S
C57 O60 1.252 . S
C57 O61 1.260 . S
O58 In52 2.266 . S
O58 C55 1.252 . S
O59 In52 2.326 . S
O59 C55 1.260 . S
O60 In52 2.266 . S
O60 C57 1.252 . S
O61 In52 2.326 . S
O61 C57 1.260 . S
C62 O53 1.240 . S
C62 O54 1.252 . S
O63 In52 2.294 . S
O63 C56 1.240 . S
O64 In52 2.326 . S
O64 C56 1.252 . S
In65 O66 2.294 . S
In65 O67 2.326 . S
In65 O71 2.266 . S
In65 O72 2.326 . S
In65 O73 2.266 . S
In65 O74 2.326 . S
In65 O76 2.294 . S
In65 O77 2.326 . S
O66 In65 2.294 . S
O66 C75 1.240 . S
O67 In65 2.326 . S
O67 C75 1.252 . S
C68 O71 1.252 . S
C68 O72 1.260 . S
C69 O76 1.240 . S
C69 O77 1.252 . S
C70 O73 1.252 . S
C70 O74 1.260 . S
O71 In65 2.266 . S
O71 C68 1.252 . S
O72 In65 2.326 . S
O72 C68 1.260 . S
O73 In65 2.266 . S
O73 C70 1.252 . S
O74 In65 2.326 . S
O74 C70 1.260 . S
C75 O66 1.240 . S
C75 O67 1.252 . S
O76 In65 2.294 . S
O76 C69 1.240 . S
O77 In65 2.326 . S
O77 C69 1.252 . S
In78 O79 2.294 . S
In78 O80 2.326 . S
In78 O84 2.266 . S
In78 O85 2.326 . S
In78 O86 2.266 . S
In78 O87 2.326 . S
In78 O89 2.294 . S
In78 O90 2.326 . S
O79 In78 2.294 . S
O79 C88 1.240 . S
O80 In78 2.326 . S
O80 C88 1.252 . S
C81 O84 1.252 . S
C81 O85 1.260 . S
C82 O89 1.240 . S
C82 O90 1.252 . S
C83 O86 1.252 . S
C83 O87 1.260 . S
O84 In78 2.266 . S
O84 C81 1.252 . S
O85 In78 2.326 . S
O85 C81 1.260 . S
O86 In78 2.266 . S
O86 C83 1.252 . S
O87 In78 2.326 . S
O87 C83 1.260 . S
C88 O79 1.240 . S
C88 O80 1.252 . S
O89 In78 2.294 . S
O89 C82 1.240 . S
O90 In78 2.326 . S
O90 C82 1.252 . S
In91 O92 2.294 . S
In91 O93 2.326 . S
In91 O97 2.266 . S
In91 O98 2.326 . S
In91 O99 2.266 . S
In91 O100 2.326 . S
In91 O102 2.294 . S
In91 O103 2.326 . S
O92 In91 2.294 . S
O92 C101 1.240 . S
O93 In91 2.326 . S
O93 C101 1.252 . S
C94 O97 1.252 . S
C94 O98 1.260 . S
C95 O102 1.240 . S
C95 O103 1.252 . S
C96 O99 1.252 . S
C96 O100 1.260 . S
O97 In91 2.266 . S
O97 C94 1.252 . S
O98 In91 2.326 . S
O98 C94 1.260 . S
O99 In91 2.266 . S
O99 C96 1.252 . S
O100 In91 2.326 . S
O100 C96 1.260 . S
C101 O92 1.240 . S
C101 O93 1.252 . S
O102 In91 2.294 . S
O102 C95 1.240 . S
O103 In91 2.326 . S
O103 C95 1.252 . S
In104 O105 2.294 . S
In104 O106 2.326 . S
In104 O110 2.266 . S
In104 O111 2.326 . S
In104 O112 2.266 . S
In104 O113 2.326 . S
In104 O115 2.294 . S
In104 O116 2.326 . S
O105 In104 2.294 . S
O105 C114 1.240 . S
O106 In104 2.326 . S
O106 C114 1.252 . S
C107 O110 1.252 . S
C107 O111 1.260 . S
C108 O115 1.240 . S
C108 O116 1.252 . S
C109 O112 1.252 . S
C109 O113 1.260 . S
O110 In104 2.266 . S
O110 C107 1.252 . S
O111 In104 2.326 . S
O111 C107 1.260 . S
O112 In104 2.266 . S
O112 C109 1.252 . S
O113 In104 2.326 . S
O113 C109 1.260 . S
C114 O105 1.240 . S
C114 O106 1.252 . S
O115 In104 2.294 . S
O115 C108 1.240 . S
O116 In104 2.326 . S
O116 C108 1.252 . S
In117 O118 2.294 . S
In117 O119 2.326 . S
In117 O123 2.266 . S
In117 O124 2.326 . S
In117 O125 2.266 . S
In117 O126 2.326 . S
In117 O128 2.294 . S
In117 O129 2.326 . S
O118 In117 2.294 . S
O118 C127 1.240 . S
O119 In117 2.326 . S
O119 C127 1.252 . S
C120 O123 1.252 . S
C120 O124 1.260 . S
C121 O128 1.240 . S
C121 O129 1.252 . S
C122 O125 1.252 . S
C122 O126 1.260 . S
O123 In117 2.266 . S
O123 C120 1.252 . S
O124 In117 2.326 . S
O124 C120 1.260 . S
O125 In117 2.266 . S
O125 C122 1.252 . S
O126 In117 2.326 . S
O126 C122 1.260 . S
C127 O118 1.240 . S
C127 O119 1.252 . S
O128 In117 2.294 . S
O128 C121 1.240 . S
O129 In117 2.326 . S
O129 C121 1.252 . S
In130 O131 2.294 . S
In130 O132 2.326 . S
In130 O136 2.266 . S
In130 O137 2.326 . S
In130 O138 2.266 . S
In130 O139 2.326 . S
In130 O141 2.294 . S
In130 O142 2.326 . S
O131 In130 2.294 . S
O131 C140 1.240 . S
O132 In130 2.326 . S
O132 C140 1.252 . S
C133 O136 1.252 . S
C133 O137 1.260 . S
C134 O141 1.240 . S
C134 O142 1.252 . S
C135 O138 1.252 . S
C135 O139 1.260 . S
O136 In130 2.266 . S
O136 C133 1.252 . S
O137 In130 2.326 . S
O137 C133 1.260 . S
O138 In130 2.266 . S
O138 C135 1.252 . S
O139 In130 2.326 . S
O139 C135 1.260 . S
C140 O131 1.240 . S
C140 O132 1.252 . S
O141 In130 2.294 . S
O141 C134 1.240 . S
O142 In130 2.326 . S
O142 C134 1.252 . S
In143 O144 2.294 . S
In143 O145 2.326 . S
In143 O149 2.266 . S
In143 O150 2.326 . S
In143 O151 2.266 . S
In143 O152 2.326 . S
In143 O154 2.294 . S
In143 O155 2.326 . S
O144 In143 2.294 . S
O144 C153 1.240 . S
O145 In143 2.326 . S
O145 C153 1.252 . S
C146 O149 1.252 . S
C146 O150 1.260 . S
C147 O154 1.240 . S
C147 O155 1.252 . S
C148 O151 1.252 . S
C148 O152 1.260 . S
O149 In143 2.266 . S
O149 C146 1.252 . S
O150 In143 2.326 . S
O150 C146 1.260 . S
O151 In143 2.266 . S
O151 C148 1.252 . S
O152 In143 2.326 . S
O152 C148 1.260 . S
C153 O144 1.240 . S
C153 O145 1.252 . S
O154 In143 2.294 . S
O154 C147 1.240 . S
O155 In143 2.326 . S
O155 C147 1.252 . S
In156 O157 2.294 1_455 S
In156 O158 2.326 . S
In156 O162 2.267 1_455 S
In156 O163 2.326 . S
In156 O164 2.265 . S
In156 O165 2.325 . S
In156 O167 2.294 . S
In156 O168 2.327 1_455 S
O157 In156 2.294 1_655 S
O157 C166 1.240 . S
O158 In156 2.326 . S
O158 C166 1.252 1_455 S
C159 O162 1.252 . S
C159 O163 1.260 1_655 S
C160 O167 1.240 . S
C160 O168 1.252 1_455 S
C161 O164 1.252 . S
C161 O165 1.260 . S
O162 In156 2.267 1_655 S
O162 C159 1.252 . S
O163 In156 2.326 . S
O163 C159 1.260 1_455 S
O164 In156 2.265 . S
O164 C161 1.252 . S
O165 In156 2.325 . S
O165 C161 1.260 . S
C166 O157 1.240 . S
C166 O158 1.252 1_655 S
O167 In156 2.294 . S
O167 C160 1.240 . S
O168 In156 2.327 1_655 S
O168 C160 1.252 1_655 S
In169 O170 2.294 . S
In169 O171 2.326 . S
In169 O175 2.266 . S
In169 O176 2.326 . S
In169 O177 2.266 . S
In169 O178 2.326 . S
In169 O180 2.294 . S
In169 O181 2.326 . S
O170 In169 2.294 . S
O170 C179 1.240 . S
O171 In169 2.326 . S
O171 C179 1.252 . S
C172 O175 1.252 . S
C172 O176 1.260 . S
C173 O180 1.240 . S
C173 O181 1.252 . S
C174 O177 1.252 . S
C174 O178 1.260 . S
O175 In169 2.266 . S
O175 C172 1.252 . S
O176 In169 2.326 . S
O176 C172 1.260 . S
O177 In169 2.266 . S
O177 C174 1.252 . S
O178 In169 2.326 . S
O178 C174 1.260 . S
C179 O170 1.240 . S
C179 O171 1.252 . S
O180 In169 2.294 . S
O180 C173 1.240 . S
O181 In169 2.326 . S
O181 C173 1.252 . S
In182 O183 2.294 . S
In182 O184 2.326 . S
In182 O188 2.266 . S
In182 O189 2.326 . S
In182 O190 2.266 . S
In182 O191 2.326 . S
In182 O193 2.294 . S
In182 O194 2.326 . S
O183 In182 2.294 . S
O183 C192 1.240 . S
O184 In182 2.326 . S
O184 C192 1.252 . S
C185 O188 1.252 . S
C185 O189 1.260 . S
C186 O193 1.240 . S
C186 O194 1.252 . S
C187 O190 1.252 . S
C187 O191 1.260 . S
O188 In182 2.266 . S
O188 C185 1.252 . S
O189 In182 2.326 . S
O189 C185 1.260 . S
O190 In182 2.266 . S
O190 C187 1.252 . S
O191 In182 2.326 . S
O191 C187 1.260 . S
C192 O183 1.240 . S
C192 O184 1.252 . S
O193 In182 2.294 . S
O193 C186 1.240 . S
O194 In182 2.326 . S
O194 C186 1.252 . S
In195 O196 2.294 . S
In195 O197 2.326 . S
In195 O201 2.266 . S
In195 O202 2.326 . S
In195 O203 2.266 . S
In195 O204 2.326 . S
In195 O206 2.294 . S
In195 O207 2.326 . S
O196 In195 2.294 . S
O196 C205 1.240 . S
O197 In195 2.326 . S
O197 C205 1.252 . S
C198 O201 1.252 . S
C198 O202 1.260 . S
C199 O206 1.240 . S
C199 O207 1.252 . S
C200 O203 1.252 . S
C200 O204 1.260 . S
O201 In195 2.266 . S
O201 C198 1.252 . S
O202 In195 2.326 . S
O202 C198 1.260 . S
O203 In195 2.266 . S
O203 C200 1.252 . S
O204 In195 2.326 . S
O204 C200 1.260 . S
C205 O196 1.240 . S
C205 O197 1.252 . S
O206 In195 2.294 . S
O206 C199 1.240 . S
O207 In195 2.326 . S
O207 C199 1.252 . S
In208 O209 2.294 . S
In208 O210 2.326 . S
In208 O214 2.266 . S
In208 O215 2.326 . S
In208 O216 2.266 . S
In208 O217 2.326 . S
In208 O219 2.294 . S
In208 O220 2.326 . S
O209 In208 2.294 . S
O209 C218 1.240 . S
O210 In208 2.326 . S
O210 C218 1.252 . S
C211 O214 1.252 . S
C211 O215 1.260 . S
C212 O219 1.240 . S
C212 O220 1.252 . S
C213 O216 1.252 . S
C213 O217 1.260 . S
O214 In208 2.266 . S
O214 C211 1.252 . S
O215 In208 2.326 . S
O215 C211 1.260 . S
O216 In208 2.266 . S
O216 C213 1.252 . S
O217 In208 2.326 . S
O217 C213 1.260 . S
C218 O209 1.240 . S
C218 O210 1.252 . S
O219 In208 2.294 . S
O219 C212 1.240 . S
O220 In208 2.326 . S
O220 C212 1.252 . S
In221 O222 2.294 . S
In221 O223 2.326 . S
In221 O227 2.266 . S
In221 O228 2.326 . S
In221 O229 2.266 . S
In221 O230 2.326 . S
In221 O232 2.294 . S
In221 O233 2.326 . S
O222 In221 2.294 . S
O222 C231 1.240 . S
O223 In221 2.326 . S
O223 C231 1.252 . S
C224 O227 1.252 . S
C224 O228 1.260 . S
C225 O232 1.240 . S
C225 O233 1.252 . S
C226 O229 1.252 . S
C226 O230 1.260 . S
O227 In221 2.266 . S
O227 C224 1.252 . S
O228 In221 2.326 . S
O228 C224 1.260 . S
O229 In221 2.266 . S
O229 C226 1.252 . S
O230 In221 2.326 . S
O230 C226 1.260 . S
C231 O222 1.240 . S
C231 O223 1.252 . S
O232 In221 2.294 . S
O232 C225 1.240 . S
O233 In221 2.326 . S
O233 C225 1.252 . S
In234 O235 2.294 . S
In234 O236 2.326 . S
In234 O240 2.266 . S
In234 O241 2.326 . S
In234 O242 2.266 . S
In234 O243 2.326 . S
In234 O245 2.294 . S
In234 O246 2.326 . S
O235 In234 2.294 . S
O235 C244 1.240 . S
O236 In234 2.326 . S
O236 C244 1.252 . S
C237 O240 1.252 . S
C237 O241 1.260 . S
C238 O245 1.240 . S
C238 O246 1.252 . S
C239 O242 1.252 . S
C239 O243 1.260 . S
O240 In234 2.266 . S
O240 C237 1.252 . S
O241 In234 2.326 . S
O241 C237 1.260 . S
O242 In234 2.266 . S
O242 C239 1.252 . S
O243 In234 2.326 . S
O243 C239 1.260 . S
C244 O235 1.240 . S
C244 O236 1.252 . S
O245 In234 2.294 . S
O245 C238 1.240 . S
O246 In234 2.326 . S
O246 C238 1.252 . S
In247 O248 2.294 . S
In247 O249 2.326 . S
In247 O253 2.266 . S
In247 O254 2.326 . S
In247 O255 2.266 . S
In247 O256 2.326 . S
In247 O258 2.294 . S
In247 O259 2.326 . S
O248 In247 2.294 . S
O248 C257 1.240 . S
O249 In247 2.326 . S
O249 C257 1.252 . S
C250 O253 1.252 . S
C250 O254 1.260 . S
C251 O258 1.240 . S
C251 O259 1.252 . S
C252 O255 1.252 . S
C252 O256 1.260 . S
O253 In247 2.266 . S
O253 C250 1.252 . S
O254 In247 2.326 . S
O254 C250 1.260 . S
O255 In247 2.266 . S
O255 C252 1.252 . S
O256 In247 2.326 . S
O256 C252 1.260 . S
C257 O248 1.240 . S
C257 O249 1.252 . S
O258 In247 2.294 . S
O258 C251 1.240 . S
O259 In247 2.326 . S
O259 C251 1.252 . S
In260 O261 2.294 . S
In260 O262 2.326 . S
In260 O266 2.266 . S
In260 O267 2.326 . S
In260 O268 2.266 . S
In260 O269 2.326 . S
In260 O271 2.294 . S
In260 O272 2.326 . S
O261 In260 2.294 . S
O261 C270 1.240 . S
O262 In260 2.326 . S
O262 C270 1.252 . S
C263 O266 1.252 . S
C263 O267 1.260 . S
C264 O271 1.240 . S
C264 O272 1.252 . S
C265 O268 1.252 . S
C265 O269 1.260 . S
O266 In260 2.266 . S
O266 C263 1.252 . S
O267 In260 2.326 . S
O267 C263 1.260 . S
O268 In260 2.266 . S
O268 C265 1.252 . S
O269 In260 2.326 . S
O269 C265 1.260 . S
C270 O261 1.240 . S
C270 O262 1.252 . S
O271 In260 2.294 . S
O271 C264 1.240 . S
O272 In260 2.326 . S
O272 C264 1.252 . S
In273 O274 2.297 1_565 S
In273 O275 2.330 . S
In273 O279 2.264 1_564 S
In273 O280 2.322 1_554 S
In273 O281 2.265 1_554 S
In273 O282 2.325 1_554 S
In273 O284 2.294 . S
In273 O285 2.327 1_565 S
O274 In273 2.297 1_545 S
O274 C283 1.240 . S
O275 In273 2.330 . S
O275 C283 1.252 1_565 S
C276 O279 1.252 . S
C276 O280 1.260 1_545 S
C277 O284 1.240 . S
C277 O285 1.252 1_565 S
C278 O281 1.252 . S
C278 O282 1.260 . S
O279 In273 2.264 1_546 S
O279 C276 1.252 . S
O280 In273 2.322 1_556 S
O280 C276 1.260 1_565 S
O281 In273 2.265 1_556 S
O281 C278 1.252 . S
O282 In273 2.325 1_556 S
O282 C278 1.260 . S
C283 O274 1.240 . S
C283 O275 1.252 1_545 S
O284 In273 2.294 . S
O284 C277 1.240 . S
O285 In273 2.327 1_545 S
O285 C277 1.252 1_545 S
In286 O287 2.294 . S
In286 O288 2.327 . S
In286 O292 2.265 1_554 S
In286 O293 2.325 1_554 S
In286 O294 2.264 1_554 S
In286 O295 2.322 1_554 S
In286 O297 2.296 . S
In286 O298 2.330 . S
O287 In286 2.294 . S
O287 C296 1.240 . S
O288 In286 2.327 . S
O288 C296 1.252 . S
C289 O292 1.252 . S
C289 O293 1.260 . S
C290 O297 1.240 . S
C290 O298 1.252 . S
C291 O294 1.252 . S
C291 O295 1.260 . S
O292 In286 2.265 1_556 S
O292 C289 1.252 . S
O293 In286 2.325 1_556 S
O293 C289 1.260 . S
O294 In286 2.264 1_556 S
O294 C291 1.252 . S
O295 In286 2.322 1_556 S
O295 C291 1.260 . S
C296 O287 1.240 . S
C296 O288 1.252 . S
O297 In286 2.296 . S
O297 C290 1.240 . S
O298 In286 2.330 . S
O298 C290 1.252 . S
In299 O300 2.296 . S
In299 O301 2.330 . S
In299 O305 2.264 1_554 S
In299 O306 2.322 1_554 S
In299 O307 2.265 1_554 S
In299 O308 2.325 1_554 S
In299 O310 2.294 . S
In299 O311 2.327 . S
O300 In299 2.296 . S
O300 C309 1.240 . S
O301 In299 2.330 . S
O301 C309 1.252 . S
C302 O305 1.252 . S
C302 O306 1.260 . S
C303 O310 1.240 . S
C303 O311 1.252 . S
C304 O307 1.252 . S
C304 O308 1.260 . S
O305 In299 2.264 1_556 S
O305 C302 1.252 . S
O306 In299 2.322 1_556 S
O306 C302 1.260 . S
O307 In299 2.265 1_556 S
O307 C304 1.252 . S
O308 In299 2.325 1_556 S
O308 C304 1.260 . S
C309 O300 1.240 . S
C309 O301 1.252 . S
O310 In299 2.294 . S
O310 C303 1.240 . S
O311 In299 2.327 . S
O311 C303 1.252 . S
In312 O313 2.294 . S
In312 O314 2.326 . S
In312 O318 2.266 . S
In312 O319 2.326 . S
In312 O320 2.266 . S
In312 O321 2.326 . S
In312 O323 2.294 . S
In312 O324 2.326 . S
O313 In312 2.294 . S
O313 C322 1.240 . S
O314 In312 2.326 . S
O314 C322 1.252 . S
C315 O318 1.252 . S
C315 O319 1.260 . S
C316 O323 1.240 . S
C316 O324 1.252 . S
C317 O320 1.252 . S
C317 O321 1.260 . S
O318 In312 2.266 . S
O318 C315 1.252 . S
O319 In312 2.326 . S
O319 C315 1.260 . S
O320 In312 2.266 . S
O320 C317 1.252 . S
O321 In312 2.326 . S
O321 C317 1.260 . S
C322 O313 1.240 . S
C322 O314 1.252 . S
O323 In312 2.294 . S
O323 C316 1.240 . S
O324 In312 2.326 . S
O324 C316 1.252 . S
In325 O326 2.294 . S
In325 O327 2.326 . S
In325 O331 2.266 . S
In325 O332 2.326 . S
In325 O333 2.266 . S
In325 O334 2.326 . S
In325 O336 2.294 . S
In325 O337 2.326 . S
O326 In325 2.294 . S
O326 C335 1.240 . S
O327 In325 2.326 . S
O327 C335 1.252 . S
C328 O331 1.252 . S
C328 O332 1.260 . S
C329 O336 1.240 . S
C329 O337 1.252 . S
C330 O333 1.252 . S
C330 O334 1.260 . S
O331 In325 2.266 . S
O331 C328 1.252 . S
O332 In325 2.326 . S
O332 C328 1.260 . S
O333 In325 2.266 . S
O333 C330 1.252 . S
O334 In325 2.326 . S
O334 C330 1.260 . S
C335 O326 1.240 . S
C335 O327 1.252 . S
O336 In325 2.294 . S
O336 C329 1.240 . S
O337 In325 2.326 . S
O337 C329 1.252 . S
In338 O339 2.294 . S
In338 O340 2.326 . S
In338 O344 2.266 . S
In338 O345 2.326 . S
In338 O346 2.266 . S
In338 O347 2.326 . S
In338 O349 2.294 . S
In338 O350 2.326 . S
O339 In338 2.294 . S
O339 C348 1.240 . S
O340 In338 2.326 . S
O340 C348 1.252 . S
C341 O344 1.252 . S
C341 O345 1.260 . S
C342 O349 1.240 . S
C342 O350 1.252 . S
C343 O346 1.252 . S
C343 O347 1.260 . S
O344 In338 2.266 . S
O344 C341 1.252 . S
O345 In338 2.326 . S
O345 C341 1.260 . S
O346 In338 2.266 . S
O346 C343 1.252 . S
O347 In338 2.326 . S
O347 C343 1.260 . S
C348 O339 1.240 . S
C348 O340 1.252 . S
O349 In338 2.294 . S
O349 C342 1.240 . S
O350 In338 2.326 . S
O350 C342 1.252 . S
In351 O352 2.297 1_545 S
In351 O353 2.330 . S
In351 O357 2.264 1_546 S
In351 O358 2.322 1_556 S
In351 O359 2.265 1_556 S
In351 O360 2.325 1_556 S
In351 O362 2.294 . S
In351 O363 2.327 1_545 S
O352 In351 2.297 1_565 S
O352 C361 1.240 . S
O353 In351 2.330 . S
O353 C361 1.252 1_545 S
C354 O357 1.252 . S
C354 O358 1.260 1_565 S
C355 O362 1.240 . S
C355 O363 1.252 1_545 S
C356 O359 1.252 . S
C356 O360 1.260 . S
O357 In351 2.264 1_564 S
O357 C354 1.252 . S
O358 In351 2.322 1_554 S
O358 C354 1.260 1_545 S
O359 In351 2.265 1_554 S
O359 C356 1.252 . S
O360 In351 2.325 1_554 S
O360 C356 1.260 . S
C361 O352 1.240 . S
C361 O353 1.252 1_565 S
O362 In351 2.294 . S
O362 C355 1.240 . S
O363 In351 2.327 1_565 S
O363 C355 1.252 1_565 S
In364 O365 2.296 . S
In364 O366 2.330 . S
In364 O370 2.264 1_556 S
In364 O371 2.322 1_556 S
In364 O372 2.265 1_556 S
In364 O373 2.325 1_556 S
In364 O375 2.294 . S
In364 O376 2.327 . S
O365 In364 2.296 . S
O365 C374 1.240 . S
O366 In364 2.330 . S
O366 C374 1.252 . S
C367 O370 1.252 . S
C367 O371 1.260 . S
C368 O375 1.240 . S
C368 O376 1.252 . S
C369 O372 1.252 . S
C369 O373 1.260 . S
O370 In364 2.264 1_554 S
O370 C367 1.252 . S
O371 In364 2.322 1_554 S
O371 C367 1.260 . S
O372 In364 2.265 1_554 S
O372 C369 1.252 . S
O373 In364 2.325 1_554 S
O373 C369 1.260 . S
C374 O365 1.240 . S
C374 O366 1.252 . S
O375 In364 2.294 . S
O375 C368 1.240 . S
O376 In364 2.327 . S
O376 C368 1.252 . S
In377 O378 2.294 . S
In377 O379 2.327 . S
In377 O383 2.265 1_556 S
In377 O384 2.325 1_556 S
In377 O385 2.264 1_556 S
In377 O386 2.322 1_556 S
In377 O388 2.296 . S
In377 O389 2.330 . S
O378 In377 2.294 . S
O378 C387 1.240 . S
O379 In377 2.327 . S
O379 C387 1.252 . S
C380 O383 1.252 . S
C380 O384 1.260 . S
C381 O388 1.240 . S
C381 O389 1.252 . S
C382 O385 1.252 . S
C382 O386 1.260 . S
O383 In377 2.265 1_554 S
O383 C380 1.252 . S
O384 In377 2.325 1_554 S
O384 C380 1.260 . S
O385 In377 2.264 1_554 S
O385 C382 1.252 . S
O386 In377 2.322 1_554 S
O386 C382 1.260 . S
C387 O378 1.240 . S
C387 O379 1.252 . S
O388 In377 2.296 . S
O388 C381 1.240 . S
O389 In377 2.330 . S
O389 C381 1.252 . S
In390 O391 2.294 . S
In390 O392 2.327 1_655 S
In390 O396 2.265 . S
In390 O397 2.325 . S
In390 O398 2.267 1_655 S
In390 O399 2.326 . S
In390 O401 2.294 1_655 S
In390 O402 2.326 . S
O391 In390 2.294 . S
O391 C400 1.240 . S
O392 In390 2.327 1_455 S
O392 C400 1.252 1_455 S
C393 O396 1.252 . S
C393 O397 1.260 . S
C394 O401 1.240 . S
C394 O402 1.252 1_455 S
C395 O398 1.252 . S
C395 O399 1.260 1_455 S
O396 In390 2.265 . S
O396 C393 1.252 . S
O397 In390 2.325 . S
O397 C393 1.260 . S
O398 In390 2.267 1_455 S
O398 C395 1.252 . S
O399 In390 2.326 . S
O399 C395 1.260 1_655 S
C400 O391 1.240 . S
C400 O392 1.252 1_655 S
O401 In390 2.294 1_455 S
O401 C394 1.240 . S
O402 In390 2.326 . S
O402 C394 1.252 1_655 S
In403 O404 2.294 . S
In403 O405 2.326 . S
In403 O409 2.266 . S
In403 O410 2.326 . S
In403 O411 2.266 . S
In403 O412 2.326 . S
In403 O414 2.294 . S
In403 O415 2.326 . S
O404 In403 2.294 . S
O404 C413 1.240 . S
O405 In403 2.326 . S
O405 C413 1.252 . S
C406 O409 1.252 . S
C406 O410 1.260 . S
C407 O414 1.240 . S
C407 O415 1.252 . S
C408 O411 1.252 . S
C408 O412 1.260 . S
O409 In403 2.266 . S
O409 C406 1.252 . S
O410 In403 2.326 . S
O410 C406 1.260 . S
O411 In403 2.266 . S
O411 C408 1.252 . S
O412 In403 2.326 . S
O412 C408 1.260 . S
C413 O404 1.240 . S
C413 O405 1.252 . S
O414 In403 2.294 . S
O414 C407 1.240 . S
O415 In403 2.326 . S
O415 C407 1.252 . S
In416 O417 2.294 . S
In416 O418 2.326 . S
In416 O422 2.266 . S
In416 O423 2.326 . S
In416 O424 2.266 . S
In416 O425 2.326 . S
In416 O427 2.294 . S
In416 O428 2.326 . S
O417 In416 2.294 . S
O417 C426 1.240 . S
O418 In416 2.326 . S
O418 C426 1.252 . S
C419 O422 1.252 . S
C419 O423 1.260 . S
C420 O427 1.240 . S
C420 O428 1.252 . S
C421 O424 1.252 . S
C421 O425 1.260 . S
O422 In416 2.266 . S
O422 C419 1.252 . S
O423 In416 2.326 . S
O423 C419 1.260 . S
O424 In416 2.266 . S
O424 C421 1.252 . S
O425 In416 2.326 . S
O425 C421 1.260 . S
C426 O417 1.240 . S
C426 O418 1.252 . S
O427 In416 2.294 . S
O427 C420 1.240 . S
O428 In416 2.326 . S
O428 C420 1.252 . S
In429 O430 2.294 . S
In429 O431 2.326 . S
In429 O435 2.266 . S
In429 O436 2.326 . S
In429 O437 2.266 . S
In429 O438 2.326 . S
In429 O440 2.294 . S
In429 O441 2.326 . S
O430 In429 2.294 . S
O430 C439 1.240 . S
O431 In429 2.326 . S
O431 C439 1.252 . S
C432 O435 1.252 . S
C432 O436 1.260 . S
C433 O440 1.240 . S
C433 O441 1.252 . S
C434 O437 1.252 . S
C434 O438 1.260 . S
O435 In429 2.266 . S
O435 C432 1.252 . S
O436 In429 2.326 . S
O436 C432 1.260 . S
O437 In429 2.266 . S
O437 C434 1.252 . S
O438 In429 2.326 . S
O438 C434 1.260 . S
C439 O430 1.240 . S
C439 O431 1.252 . S
O440 In429 2.294 . S
O440 C433 1.240 . S
O441 In429 2.326 . S
O441 C433 1.252 . S
In442 O443 2.294 . S
In442 O444 2.326 . S
In442 O448 2.266 . S
In442 O449 2.326 . S
In442 O450 2.266 . S
In442 O451 2.326 . S
In442 O453 2.294 . S
In442 O454 2.326 . S
O443 In442 2.294 . S
O443 C452 1.240 . S
O444 In442 2.326 . S
O444 C452 1.252 . S
C445 O448 1.252 . S
C445 O449 1.260 . S
C446 O453 1.240 . S
C446 O454 1.252 . S
C447 O450 1.252 . S
C447 O451 1.260 . S
O448 In442 2.266 . S
O448 C445 1.252 . S
O449 In442 2.326 . S
O449 C445 1.260 . S
O450 In442 2.266 . S
O450 C447 1.252 . S
O451 In442 2.326 . S
O451 C447 1.260 . S
C452 O443 1.240 . S
C452 O444 1.252 . S
O453 In442 2.294 . S
O453 C446 1.240 . S
O454 In442 2.326 . S
O454 C446 1.252 . S
In455 O456 2.294 . S
In455 O457 2.326 . S
In455 O461 2.266 . S
In455 O462 2.326 . S
In455 O463 2.266 . S
In455 O464 2.326 . S
In455 O466 2.294 . S
In455 O467 2.326 . S
O456 In455 2.294 . S
O456 C465 1.240 . S
O457 In455 2.326 . S
O457 C465 1.252 . S
C458 O461 1.252 . S
C458 O462 1.260 . S
C459 O466 1.240 . S
C459 O467 1.252 . S
C460 O463 1.252 . S
C460 O464 1.260 . S
O461 In455 2.266 . S
O461 C458 1.252 . S
O462 In455 2.326 . S
O462 C458 1.260 . S
O463 In455 2.266 . S
O463 C460 1.252 . S
O464 In455 2.326 . S
O464 C460 1.260 . S
C465 O456 1.240 . S
C465 O457 1.252 . S
O466 In455 2.294 . S
O466 C459 1.240 . S
O467 In455 2.326 . S
O467 C459 1.252 . S
C468 C469 1.369 . S
C468 C470 1.419 . S
C468 H472 0.930 . S
C469 C468 1.369 . S
C469 C478 1.429 . S
C470 C468 1.419 . S
C470 C471 1.363 . S
C470 H473 0.929 . S
C471 C470 1.363 . S
C471 C477 1.428 . S
H472 C468 0.930 . S
H473 C470 0.929 . S
S474 N475 1.613 . S
S474 N476 1.610 . S
N475 S474 1.613 . S
N475 C478 1.350 . S
N476 S474 1.610 . S
N476 C477 1.351 . S
C477 C471 1.428 . S
C477 N476 1.351 . S
C477 C478 1.434 . S
C478 C469 1.429 . S
C478 N475 1.350 . S
C478 C477 1.434 . S
C479 C480 1.369 . S
C479 C481 1.419 . S
C479 H483 0.930 . S
C480 C479 1.369 . S
C480 C489 1.429 . S
C481 C479 1.419 . S
C481 C482 1.363 . S
C481 H484 0.929 . S
C482 C481 1.363 . S
C482 C488 1.428 . S
H483 C479 0.930 . S
H484 C481 0.929 . S
S485 N486 1.613 . S
S485 N487 1.610 . S
N486 S485 1.613 . S
N486 C489 1.350 . S
N487 S485 1.610 . S
N487 C488 1.351 . S
C488 C482 1.428 . S
C488 N487 1.351 . S
C488 C489 1.434 . S
C489 C480 1.429 . S
C489 N486 1.350 . S
C489 C488 1.434 . S
C490 C491 1.369 . S
C490 C492 1.419 . S
C490 H494 0.930 . S
C491 C490 1.369 . S
C491 C500 1.429 . S
C492 C490 1.419 . S
C492 C493 1.363 . S
C492 H495 0.929 . S
C493 C492 1.363 . S
C493 C499 1.428 . S
H494 C490 0.930 . S
H495 C492 0.929 . S
S496 N497 1.613 . S
S496 N498 1.610 . S
N497 S496 1.613 . S
N497 C500 1.350 . S
N498 S496 1.610 . S
N498 C499 1.351 . S
C499 C493 1.428 . S
C499 N498 1.351 . S
C499 C500 1.434 . S
C500 C491 1.429 . S
C500 N497 1.350 . S
C500 C499 1.434 . S
C501 C502 1.369 . S
C501 C503 1.419 . S
C501 H505 0.930 . S
C502 C501 1.369 . S
C502 C511 1.429 . S
C503 C501 1.419 . S
C503 C504 1.363 . S
C503 H506 0.929 . S
C504 C503 1.363 . S
C504 C510 1.428 . S
H505 C501 0.930 . S
H506 C503 0.929 . S
S507 N508 1.613 . S
S507 N509 1.610 . S
N508 S507 1.613 . S
N508 C511 1.350 . S
N509 S507 1.610 . S
N509 C510 1.351 . S
C510 C504 1.428 . S
C510 N509 1.351 . S
C510 C511 1.434 . S
C511 C502 1.429 . S
C511 N508 1.350 . S
C511 C510 1.434 . S
C512 C513 1.369 . S
C512 C514 1.419 . S
C512 H516 0.930 . S
C513 C512 1.369 . S
C513 C522 1.429 . S
C514 C512 1.419 . S
C514 C515 1.363 . S
C514 H517 0.929 . S
C515 C514 1.363 . S
C515 C521 1.428 . S
H516 C512 0.930 . S
H517 C514 0.929 . S
S518 N519 1.613 . S
S518 N520 1.610 . S
N519 S518 1.613 . S
N519 C522 1.350 . S
N520 S518 1.610 . S
N520 C521 1.351 . S
C521 C515 1.428 . S
C521 N520 1.351 . S
C521 C522 1.434 . S
C522 C513 1.429 . S
C522 N519 1.350 . S
C522 C521 1.434 . S
C523 C524 1.369 . S
C523 C525 1.419 . S
C523 H527 0.930 . S
C524 C523 1.369 . S
C524 C533 1.429 . S
C525 C523 1.419 . S
C525 C526 1.363 . S
C525 H528 0.929 . S
C526 C525 1.363 . S
C526 C532 1.428 . S
H527 C523 0.930 . S
H528 C525 0.929 . S
S529 N530 1.613 . S
S529 N531 1.610 . S
N530 S529 1.613 . S
N530 C533 1.350 . S
N531 S529 1.610 . S
N531 C532 1.351 . S
C532 C526 1.428 . S
C532 N531 1.351 . S
C532 C533 1.434 . S
C533 C524 1.429 . S
C533 N530 1.350 . S
C533 C532 1.434 . S
C534 C535 1.369 . S
C534 C536 1.419 . S
C534 H538 0.930 . S
C535 C534 1.369 . S
C535 C544 1.429 . S
C536 C534 1.419 . S
C536 C537 1.363 . S
C536 H539 0.929 . S
C537 C536 1.363 . S
C537 C543 1.428 . S
H538 C534 0.930 . S
H539 C536 0.929 . S
S540 N541 1.613 . S
S540 N542 1.610 . S
N541 S540 1.613 . S
N541 C544 1.350 . S
N542 S540 1.610 . S
N542 C543 1.351 . S
C543 C537 1.428 . S
C543 N542 1.351 . S
C543 C544 1.434 . S
C544 C535 1.429 . S
C544 N541 1.350 . S
C544 C543 1.434 . S
C545 C546 1.369 . S
C545 C547 1.419 . S
C545 H549 0.930 . S
C546 C545 1.369 . S
C546 C555 1.429 . S
C547 C545 1.419 . S
C547 C548 1.363 . S
C547 H550 0.929 . S
C548 C547 1.363 . S
C548 C554 1.428 . S
H549 C545 0.930 . S
H550 C547 0.929 . S
S551 N552 1.613 . S
S551 N553 1.610 . S
N552 S551 1.613 . S
N552 C555 1.350 . S
N553 S551 1.610 . S
N553 C554 1.351 . S
C554 C548 1.428 . S
C554 N553 1.351 . S
C554 C555 1.434 . S
C555 C546 1.429 . S
C555 N552 1.350 . S
C555 C554 1.434 . S
C556 C557 1.369 . S
C556 C558 1.419 . S
C556 H560 0.930 . S
C557 C556 1.369 . S
C557 C566 1.429 . S
C558 C556 1.419 . S
C558 C559 1.363 . S
C558 H561 0.929 . S
C559 C558 1.363 . S
C559 C565 1.428 . S
H560 C556 0.930 . S
H561 C558 0.929 . S
S562 N563 1.613 . S
S562 N564 1.610 . S
N563 S562 1.613 . S
N563 C566 1.350 . S
N564 S562 1.610 . S
N564 C565 1.351 . S
C565 C559 1.428 . S
C565 N564 1.351 . S
C565 C566 1.434 . S
C566 C557 1.429 . S
C566 N563 1.350 . S
C566 C565 1.434 . S
C567 C568 1.369 . S
C567 C569 1.419 . S
C567 H571 0.930 . S
C568 C567 1.369 . S
C568 C577 1.429 . S
C569 C567 1.419 . S
C569 C570 1.363 . S
C569 H572 0.929 . S
C570 C569 1.363 . S
C570 C576 1.428 . S
H571 C567 0.930 . S
H572 C569 0.929 . S
S573 N574 1.613 . S
S573 N575 1.610 . S
N574 S573 1.613 . S
N574 C577 1.350 . S
N575 S573 1.610 . S
N575 C576 1.351 . S
C576 C570 1.428 . S
C576 N575 1.351 . S
C576 C577 1.434 . S
C577 C568 1.429 . S
C577 N574 1.350 . S
C577 C576 1.434 . S
C578 C579 1.369 . S
C578 C580 1.419 . S
C578 H582 0.930 . S
C579 C578 1.369 . S
C579 C588 1.429 . S
C580 C578 1.419 . S
C580 C581 1.363 . S
C580 H583 0.929 . S
C581 C580 1.363 . S
C581 C587 1.428 . S
H582 C578 0.930 . S
H583 C580 0.929 . S
S584 N585 1.613 . S
S584 N586 1.610 . S
N585 S584 1.613 . S
N585 C588 1.350 . S
N586 S584 1.610 . S
N586 C587 1.351 . S
C587 C581 1.428 . S
C587 N586 1.351 . S
C587 C588 1.434 . S
C588 C579 1.429 . S
C588 N585 1.350 . S
C588 C587 1.434 . S
C589 C590 1.369 . S
C589 C591 1.419 . S
C589 H593 0.930 . S
C590 C589 1.369 . S
C590 C599 1.429 . S
C591 C589 1.419 . S
C591 C592 1.363 . S
C591 H594 0.929 . S
C592 C591 1.363 . S
C592 C598 1.428 . S
H593 C589 0.930 . S
H594 C591 0.929 . S
S595 N596 1.613 . S
S595 N597 1.610 . S
N596 S595 1.613 . S
N596 C599 1.350 . S
N597 S595 1.610 . S
N597 C598 1.351 . S
C598 C592 1.428 . S
C598 N597 1.351 . S
C598 C599 1.434 . S
C599 C590 1.429 . S
C599 N596 1.350 . S
C599 C598 1.434 . S
C600 C601 1.369 . S
C600 C602 1.419 . S
C600 H604 0.930 . S
C601 C600 1.369 . S
C601 C610 1.429 1_655 S
C602 C600 1.419 . S
C602 C603 1.363 . S
C602 H605 0.929 . S
C603 C602 1.363 . S
C603 C609 1.448 . S
H604 C600 0.930 . S
H605 C602 0.929 . S
S606 N607 1.613 . S
S606 N608 1.610 . S
N607 S606 1.613 . S
N607 C610 1.350 . S
N608 S606 1.610 . S
N608 C609 1.331 1_455 S
C609 C603 1.448 . S
C609 N608 1.331 1_655 S
C609 C610 1.433 1_655 S
C610 C601 1.429 1_455 S
C610 N607 1.350 . S
C610 C609 1.433 1_455 S
C611 C612 1.369 . S
C611 C613 1.419 . S
C611 H615 0.930 . S
C612 C611 1.369 . S
C612 C621 1.429 . S
C613 C611 1.419 . S
C613 C614 1.363 . S
C613 H616 0.929 . S
C614 C613 1.363 . S
C614 C620 1.428 . S
H615 C611 0.930 . S
H616 C613 0.929 . S
S617 N618 1.613 . S
S617 N619 1.610 . S
N618 S617 1.613 . S
N618 C621 1.350 . S
N619 S617 1.610 . S
N619 C620 1.351 . S
C620 C614 1.428 . S
C620 N619 1.351 . S
C620 C621 1.434 . S
C621 C612 1.429 . S
C621 N618 1.350 . S
C621 C620 1.434 . S
C622 C623 1.369 . S
C622 C624 1.419 . S
C622 H626 0.930 . S
C623 C622 1.369 . S
C623 C632 1.429 . S
C624 C622 1.419 . S
C624 C625 1.363 . S
C624 H627 0.928 1_565 S
C625 C624 1.363 . S
C625 C631 1.428 . S
H626 C622 0.930 . S
H627 C624 0.928 1_545 S
S628 N629 1.613 . S
S628 N630 1.610 . S
N629 S628 1.613 . S
N629 C632 1.350 . S
N630 S628 1.610 . S
N630 C631 1.351 . S
C631 C625 1.428 . S
C631 N630 1.351 . S
C631 C632 1.434 . S
C632 C623 1.429 . S
C632 N629 1.350 . S
C632 C631 1.434 . S
C633 C634 1.369 . S
C633 C635 1.419 . S
C633 H637 0.930 . S
C634 C633 1.369 . S
C634 C643 1.429 1_545 S
C635 C633 1.419 . S
C635 C636 1.363 . S
C635 H638 0.929 . S
C636 C635 1.363 . S
C636 C642 1.428 1_545 S
H637 C633 0.930 . S
H638 C635 0.929 . S
S639 N640 1.613 . S
S639 N641 1.610 . S
N640 S639 1.613 . S
N640 C643 1.350 . S
N641 S639 1.610 . S
N641 C642 1.351 . S
C642 C636 1.428 1_565 S
C642 N641 1.351 . S
C642 C643 1.434 . S
C643 C634 1.429 1_565 S
C643 N640 1.350 . S
C643 C642 1.434 . S
C644 C645 1.369 . S
C644 C646 1.419 . S
C644 H648 0.930 1_455 S
C645 C644 1.369 . S
C645 C654 1.429 . S
C646 C644 1.419 . S
C646 C647 1.363 . S
C646 H649 0.929 1_455 S
C647 C646 1.363 . S
C647 C653 1.428 . S
H648 C644 0.930 1_655 S
H649 C646 0.929 1_655 S
S650 N651 1.613 . S
S650 N652 1.610 . S
N651 S650 1.613 . S
N651 C654 1.350 . S
N652 S650 1.610 . S
N652 C653 1.351 . S
C653 C647 1.428 . S
C653 N652 1.351 . S
C653 C654 1.434 . S
C654 C645 1.429 . S
C654 N651 1.350 . S
C654 C653 1.434 . S
C655 C656 1.369 . S
C655 C657 1.419 . S
C655 H659 0.930 . S
C656 C655 1.369 . S
C656 C665 1.429 . S
C657 C655 1.419 . S
C657 C658 1.363 . S
C657 H660 0.929 . S
C658 C657 1.363 . S
C658 C664 1.428 . S
H659 C655 0.930 . S
H660 C657 0.929 . S
S661 N662 1.613 . S
S661 N663 1.610 . S
N662 S661 1.613 . S
N662 C665 1.350 . S
N663 S661 1.610 . S
N663 C664 1.351 . S
C664 C658 1.428 . S
C664 N663 1.351 . S
C664 C665 1.434 . S
C665 C656 1.429 . S
C665 N662 1.350 . S
C665 C664 1.434 . S
C666 C667 1.369 . S
C666 C668 1.419 . S
C666 H670 0.930 . S
C667 C666 1.369 . S
C667 C676 1.429 . S
C668 C666 1.419 . S
C668 C669 1.363 . S
C668 H671 0.929 . S
C669 C668 1.363 . S
C669 C675 1.428 . S
H670 C666 0.930 . S
H671 C668 0.929 . S
S672 N673 1.613 . S
S672 N674 1.610 . S
N673 S672 1.613 . S
N673 C676 1.350 . S
N674 S672 1.610 . S
N674 C675 1.351 . S
C675 C669 1.428 . S
C675 N674 1.351 . S
C675 C676 1.434 . S
C676 C667 1.429 . S
C676 N673 1.350 . S
C676 C675 1.434 . S
C677 C678 1.369 . S
C677 C679 1.419 . S
C677 H681 0.930 . S
C678 C677 1.369 . S
C678 C687 1.429 . S
C679 C677 1.419 . S
C679 C680 1.363 . S
C679 H682 0.929 . S
C680 C679 1.363 . S
C680 C686 1.428 . S
H681 C677 0.930 . S
H682 C679 0.929 . S
S683 N684 1.613 . S
S683 N685 1.610 . S
N684 S683 1.613 . S
N684 C687 1.350 . S
N685 S683 1.610 . S
N685 C686 1.351 . S
C686 C680 1.428 . S
C686 N685 1.351 . S
C686 C687 1.434 . S
C687 C678 1.429 . S
C687 N684 1.350 . S
C687 C686 1.434 . S
C688 C689 1.369 . S
C688 C690 1.419 . S
C688 H692 0.930 . S
C689 C688 1.369 . S
C689 C698 1.429 . S
C690 C688 1.419 . S
C690 C691 1.363 . S
C690 H693 0.929 . S
C691 C690 1.363 . S
C691 C697 1.428 . S
H692 C688 0.930 . S
H693 C690 0.929 . S
S694 N695 1.613 . S
S694 N696 1.610 . S
N695 S694 1.613 . S
N695 C698 1.350 . S
N696 S694 1.610 . S
N696 C697 1.351 . S
C697 C691 1.428 . S
C697 N696 1.351 . S
C697 C698 1.434 . S
C698 C689 1.429 . S
C698 N695 1.350 . S
C698 C697 1.434 . S
C699 C700 1.369 . S
C699 C701 1.419 . S
C699 H703 0.930 . S
C700 C699 1.369 . S
C700 C709 1.429 . S
C701 C699 1.419 . S
C701 C702 1.363 . S
C701 H704 0.929 . S
C702 C701 1.363 . S
C702 C708 1.428 . S
H703 C699 0.930 . S
H704 C701 0.929 . S
S705 N706 1.613 . S
S705 N707 1.610 . S
N706 S705 1.613 . S
N706 C709 1.350 . S
N707 S705 1.610 . S
N707 C708 1.351 . S
C708 C702 1.428 . S
C708 N707 1.351 . S
C708 C709 1.434 . S
C709 C700 1.429 . S
C709 N706 1.350 . S
C709 C708 1.434 . S
C710 C711 1.369 . S
C710 C712 1.419 . S
C710 H714 0.930 . S
C711 C710 1.369 . S
C711 C720 1.429 . S
C712 C710 1.419 . S
C712 C713 1.363 . S
C712 H715 0.929 . S
C713 C712 1.363 . S
C713 C719 1.428 . S
H714 C710 0.930 . S
H715 C712 0.929 . S
S716 N717 1.613 . S
S716 N718 1.610 . S
N717 S716 1.613 . S
N717 C720 1.350 . S
N718 S716 1.610 . S
N718 C719 1.351 . S
C719 C713 1.428 . S
C719 N718 1.351 . S
C719 C720 1.434 . S
C720 C711 1.429 . S
C720 N717 1.350 . S
C720 C719 1.434 . S
C721 C722 1.369 . S
C721 C723 1.419 . S
C721 H725 0.930 . S
C722 C721 1.369 . S
C722 C731 1.429 . S
C723 C721 1.419 . S
C723 C724 1.363 . S
C723 H726 0.929 . S
C724 C723 1.363 . S
C724 C730 1.428 . S
H725 C721 0.930 . S
H726 C723 0.929 . S
S727 N728 1.613 . S
S727 N729 1.610 . S
N728 S727 1.613 . S
N728 C731 1.350 . S
N729 S727 1.610 . S
N729 C730 1.351 . S
C730 C724 1.428 . S
C730 N729 1.351 . S
C730 C731 1.434 . S
C731 C722 1.429 . S
C731 N728 1.350 . S
C731 C730 1.434 . S
C732 C733 1.369 . S
C732 C734 1.419 . S
C732 H736 0.930 . S
C733 C732 1.369 . S
C733 C742 1.429 . S
C734 C732 1.419 . S
C734 C735 1.363 . S
C734 H737 0.929 . S
C735 C734 1.363 . S
C735 C741 1.428 . S
H736 C732 0.930 . S
H737 C734 0.929 . S
S738 N739 1.613 . S
S738 N740 1.610 . S
N739 S738 1.613 . S
N739 C742 1.350 . S
N740 S738 1.610 . S
N740 C741 1.351 . S
C741 C735 1.428 . S
C741 N740 1.351 . S
C741 C742 1.434 . S
C742 C733 1.429 . S
C742 N739 1.350 . S
C742 C741 1.434 . S
C743 C744 1.369 . S
C743 C745 1.419 . S
C743 H747 0.930 . S
C744 C743 1.369 . S
C744 C753 1.429 . S
C745 C743 1.419 . S
C745 C746 1.363 . S
C745 H748 0.929 . S
C746 C745 1.363 . S
C746 C752 1.428 . S
H747 C743 0.930 . S
H748 C745 0.929 . S
S749 N750 1.613 . S
S749 N751 1.610 . S
N750 S749 1.613 . S
N750 C753 1.350 . S
N751 S749 1.610 . S
N751 C752 1.351 . S
C752 C746 1.428 . S
C752 N751 1.351 . S
C752 C753 1.434 . S
C753 C744 1.429 . S
C753 N750 1.350 . S
C753 C752 1.434 . S
C754 C755 1.369 . S
C754 C756 1.419 . S
C754 H758 0.930 . S
C755 C754 1.369 . S
C755 C764 1.429 . S
C756 C754 1.419 . S
C756 C757 1.363 . S
C756 H759 0.929 . S
C757 C756 1.363 . S
C757 C763 1.428 . S
H758 C754 0.930 . S
H759 C756 0.929 . S
S760 N761 1.613 . S
S760 N762 1.610 . S
N761 S760 1.613 . S
N761 C764 1.350 . S
N762 S760 1.610 . S
N762 C763 1.351 . S
C763 C757 1.428 . S
C763 N762 1.351 . S
C763 C764 1.434 . S
C764 C755 1.429 . S
C764 N761 1.350 . S
C764 C763 1.434 . S
C765 C766 1.369 . S
C765 C767 1.419 . S
C765 H769 0.930 . S
C766 C765 1.369 . S
C766 C775 1.429 . S
C767 C765 1.419 . S
C767 C768 1.363 . S
C767 H770 0.929 . S
C768 C767 1.363 . S
C768 C774 1.428 . S
H769 C765 0.930 . S
H770 C767 0.929 . S
S771 N772 1.613 . S
S771 N773 1.610 . S
N772 S771 1.613 . S
N772 C775 1.350 . S
N773 S771 1.610 . S
N773 C774 1.351 . S
C774 C768 1.428 . S
C774 N773 1.351 . S
C774 C775 1.434 . S
C775 C766 1.429 . S
C775 N772 1.350 . S
C775 C774 1.434 . S
C776 C777 1.369 . S
C776 C778 1.419 . S
C776 H780 0.930 . S
C777 C776 1.369 . S
C777 C786 1.429 . S
C778 C776 1.419 . S
C778 C779 1.363 . S
C778 H781 0.929 . S
C779 C778 1.363 . S
C779 C785 1.428 . S
H780 C776 0.930 . S
H781 C778 0.929 . S
S782 N783 1.613 . S
S782 N784 1.610 . S
N783 S782 1.613 . S
N783 C786 1.350 . S
N784 S782 1.610 . S
N784 C785 1.351 . S
C785 C779 1.428 . S
C785 N784 1.351 . S
C785 C786 1.434 . S
C786 C777 1.429 . S
C786 N783 1.350 . S
C786 C785 1.434 . S
C787 C788 1.369 . S
C787 C789 1.419 . S
C787 H791 0.930 . S
C788 C787 1.369 . S
C788 C797 1.429 . S
C789 C787 1.419 . S
C789 C790 1.363 . S
C789 H792 0.929 . S
C790 C789 1.363 . S
C790 C796 1.428 . S
H791 C787 0.930 . S
H792 C789 0.929 . S
S793 N794 1.613 . S
S793 N795 1.610 . S
N794 S793 1.613 . S
N794 C797 1.350 . S
N795 S793 1.610 . S
N795 C796 1.351 . S
C796 C790 1.428 . S
C796 N795 1.351 . S
C796 C797 1.434 . S
C797 C788 1.429 . S
C797 N794 1.350 . S
C797 C796 1.434 . S
C798 C799 1.369 1_655 S
C798 C800 1.419 . S
C798 H802 0.930 . S
C799 C798 1.369 1_455 S
C799 C808 1.429 . S
C800 C798 1.419 . S
C800 C801 1.363 . S
C800 H803 0.929 . S
C801 C800 1.363 . S
C801 C807 1.428 1_655 S
H802 C798 0.930 . S
H803 C800 0.929 . S
S804 N805 1.613 . S
S804 N806 1.610 . S
N805 S804 1.613 . S
N805 C808 1.350 . S
N806 S804 1.610 . S
N806 C807 1.351 . S
C807 C801 1.428 1_455 S
C807 N806 1.351 . S
C807 C808 1.434 . S
C808 C799 1.429 . S
C808 N805 1.350 . S
C808 C807 1.434 . S
C809 C810 1.369 . S
C809 C811 1.419 . S
C809 H813 0.930 . S
C810 C809 1.369 . S
C810 C819 1.429 . S
C811 C809 1.419 . S
C811 C812 1.363 . S
C811 H814 0.929 . S
C812 C811 1.363 . S
C812 C818 1.428 . S
H813 C809 0.930 . S
H814 C811 0.929 . S
S815 N816 1.613 . S
S815 N817 1.610 . S
N816 S815 1.613 . S
N816 C819 1.350 . S
N817 S815 1.610 . S
N817 C818 1.351 . S
C818 C812 1.428 . S
C818 N817 1.351 . S
C818 C819 1.434 . S
C819 C810 1.429 . S
C819 N816 1.350 . S
C819 C818 1.434 . S
C820 C821 1.369 . S
C820 C822 1.419 . S
C820 H824 0.930 . S
C821 C820 1.369 . S
C821 C830 1.429 1_545 S
C822 C820 1.419 . S
C822 C823 1.363 1_545 S
C822 H825 0.929 . S
C823 C822 1.363 1_565 S
C823 C829 1.428 . S
H824 C820 0.930 . S
H825 C822 0.929 . S
S826 N827 1.613 . S
S826 N828 1.610 . S
N827 S826 1.613 . S
N827 C830 1.350 . S
N828 S826 1.610 . S
N828 C829 1.351 . S
C829 C823 1.428 . S
C829 N828 1.351 . S
C829 C830 1.434 . S
C830 C821 1.429 1_565 S
C830 N827 1.350 . S
C830 C829 1.434 . S
C831 C832 1.369 1_564 S
C831 C833 1.419 . S
C831 H835 0.930 . S
C832 C831 1.369 1_546 S
C832 C841 1.429 . S
C833 C831 1.419 . S
C833 C834 1.363 . S
C833 H836 0.929 . S
C834 C833 1.363 . S
C834 C840 1.428 1_564 S
H835 C831 0.930 . S
H836 C833 0.929 . S
S837 N838 1.613 . S
S837 N839 1.610 . S
N838 S837 1.613 . S
N838 C841 1.350 . S
N839 S837 1.610 . S
N839 C840 1.351 . S
C840 C834 1.428 1_546 S
C840 N839 1.351 . S
C840 C841 1.434 . S
C841 C832 1.429 . S
C841 N838 1.350 . S
C841 C840 1.434 . S
C842 C843 1.369 1_556 S
C842 C844 1.419 . S
C842 H846 0.930 . S
C843 C842 1.369 1_554 S
C843 C852 1.429 1_455 S
C844 C842 1.419 . S
C844 C845 1.363 1_455 S
C844 H847 0.929 . S
C845 C844 1.363 1_655 S
C845 C851 1.428 1_556 S
H846 C842 0.930 . S
H847 C844 0.929 . S
S848 N849 1.613 . S
S848 N850 1.610 . S
N849 S848 1.613 . S
N849 C852 1.350 . S
N850 S848 1.610 . S
N850 C851 1.351 . S
C851 C845 1.428 1_554 S
C851 N850 1.351 . S
C851 C852 1.434 . S
C852 C843 1.429 1_655 S
C852 N849 1.350 . S
C852 C851 1.434 . S
C853 C854 1.369 1_556 S
C853 C855 1.419 . S
C853 H857 0.930 . S
C854 C853 1.369 1_554 S
C854 C863 1.429 . S
C855 C853 1.419 . S
C855 C856 1.363 . S
C855 H858 0.929 . S
C856 C855 1.363 . S
C856 C862 1.428 1_556 S
H857 C853 0.930 . S
H858 C855 0.929 . S
S859 N860 1.613 . S
S859 N861 1.610 . S
N860 S859 1.613 . S
N860 C863 1.350 . S
N861 S859 1.610 . S
N861 C862 1.351 . S
C862 C856 1.428 1_554 S
C862 N861 1.351 . S
C862 C863 1.434 . S
C863 C854 1.429 . S
C863 N860 1.350 . S
C863 C862 1.434 . S
C864 C865 1.369 . S
C864 C866 1.419 . S
C864 H868 0.930 1_554 S
C865 C864 1.369 . S
C865 C874 1.429 . S
C866 C864 1.419 . S
C866 C867 1.363 . S
C866 H869 0.929 . S
C867 C866 1.363 . S
C867 C873 1.428 . S
H868 C864 0.930 1_556 S
H869 C866 0.929 . S
S870 N871 1.613 . S
S870 N872 1.610 . S
N871 S870 1.613 . S
N871 C874 1.350 . S
N872 S870 1.610 . S
N872 C873 1.351 . S
C873 C867 1.428 . S
C873 N872 1.351 . S
C873 C874 1.434 . S
C874 C865 1.429 . S
C874 N871 1.350 . S
C874 C873 1.434 . S
C875 C876 1.369 . S
C875 C877 1.419 . S
C875 H879 0.930 . S
C876 C875 1.369 . S
C876 C885 1.429 . S
C877 C875 1.419 . S
C877 C878 1.363 . S
C877 H880 0.929 . S
C878 C877 1.363 . S
C878 C884 1.428 . S
H879 C875 0.930 . S
H880 C877 0.929 . S
S881 N882 1.613 . S
S881 N883 1.610 . S
N882 S881 1.613 . S
N882 C885 1.350 . S
N883 S881 1.610 . S
N883 C884 1.351 . S
C884 C878 1.428 . S
C884 N883 1.351 . S
C884 C885 1.434 . S
C885 C876 1.429 . S
C885 N882 1.350 . S
C885 C884 1.434 . S
C886 C887 1.369 . S
C886 C888 1.419 . S
C886 H890 0.930 . S
C887 C886 1.369 . S
C887 C896 1.429 . S
C888 C886 1.419 . S
C888 C889 1.363 . S
C888 H891 0.929 1_554 S
C889 C888 1.363 . S
C889 C895 1.428 . S
H890 C886 0.930 . S
H891 C888 0.929 1_556 S
S892 N893 1.613 . S
S892 N894 1.610 . S
N893 S892 1.613 . S
N893 C896 1.350 . S
N894 S892 1.610 . S
N894 C895 1.351 . S
C895 C889 1.428 . S
C895 N894 1.351 . S
C895 C896 1.434 . S
C896 C887 1.429 . S
C896 N893 1.350 . S
C896 C895 1.434 . S
C897 C898 1.369 . S
C897 C899 1.419 . S
C897 H901 0.930 . S
C898 C897 1.369 . S
C898 C907 1.429 . S
C899 C897 1.419 . S
C899 C900 1.363 . S
C899 H902 0.929 . S
C900 C899 1.363 . S
C900 C906 1.428 . S
H901 C897 0.930 . S
H902 C899 0.929 . S
S903 N904 1.613 . S
S903 N905 1.610 . S
N904 S903 1.613 . S
N904 C907 1.350 . S
N905 S903 1.610 . S
N905 C906 1.351 . S
C906 C900 1.428 . S
C906 N905 1.351 . S
C906 C907 1.434 . S
C907 C898 1.429 . S
C907 N904 1.350 . S
C907 C906 1.434 . S
C908 C909 1.369 . S
C908 C910 1.419 . S
C908 H912 0.930 . S
C909 C908 1.369 . S
C909 C918 1.429 . S
C910 C908 1.419 . S
C910 C911 1.363 . S
C910 H913 0.929 . S
C911 C910 1.363 . S
C911 C917 1.428 . S
H912 C908 0.930 . S
H913 C910 0.929 . S
S914 N915 1.613 . S
S914 N916 1.610 . S
N915 S914 1.613 . S
N915 C918 1.350 . S
N916 S914 1.610 . S
N916 C917 1.351 . S
C917 C911 1.428 . S
C917 N916 1.351 . S
C917 C918 1.434 . S
C918 C909 1.429 . S
C918 N915 1.350 . S
C918 C917 1.434 . S
C919 C920 1.369 . S
C919 C921 1.419 . S
C919 H923 0.930 . S
C920 C919 1.369 . S
C920 C929 1.429 . S
C921 C919 1.419 . S
C921 C922 1.363 . S
C921 H924 0.929 . S
C922 C921 1.363 . S
C922 C928 1.428 . S
H923 C919 0.930 . S
H924 C921 0.929 . S
S925 N926 1.613 . S
S925 N927 1.610 . S
N926 S925 1.613 . S
N926 C929 1.350 . S
N927 S925 1.610 . S
N927 C928 1.351 . S
C928 C922 1.428 . S
C928 N927 1.351 . S
C928 C929 1.434 . S
C929 C920 1.429 . S
C929 N926 1.350 . S
C929 C928 1.434 . S
C930 C931 1.369 . S
C930 C932 1.419 . S
C930 H934 0.930 . S
C931 C930 1.369 . S
C931 C940 1.429 . S
C932 C930 1.419 . S
C932 C933 1.363 . S
C932 H935 0.929 . S
C933 C932 1.363 . S
C933 C939 1.428 . S
H934 C930 0.930 . S
H935 C932 0.929 . S
S936 N937 1.617 1_545 S
S936 N938 1.595 1_545 S
N937 S936 1.617 1_565 S
N937 C940 1.350 . S
N938 S936 1.595 1_565 S
N938 C939 1.351 . S
C939 C933 1.428 . S
C939 N938 1.351 . S
C939 C940 1.434 . S
C940 C931 1.429 . S
C940 N937 1.350 . S
C940 C939 1.434 . S
C941 C942 1.369 . S
C941 C943 1.419 . S
C941 H945 0.930 . S
C942 C941 1.369 . S
C942 C951 1.429 . S
C943 C941 1.419 . S
C943 C944 1.363 . S
C943 H946 0.929 . S
C944 C943 1.363 . S
C944 C950 1.428 . S
H945 C941 0.930 . S
H946 C943 0.929 . S
S947 N948 1.613 . S
S947 N949 1.610 . S
N948 S947 1.613 . S
N948 C951 1.350 . S
N949 S947 1.610 . S
N949 C950 1.351 . S
C950 C944 1.428 . S
C950 N949 1.351 . S
C950 C951 1.434 . S
C951 C942 1.429 . S
C951 N948 1.350 . S
C951 C950 1.434 . S
C952 C953 1.369 . S
C952 C954 1.419 . S
C952 H956 0.930 . S
C953 C952 1.369 . S
C953 C962 1.429 . S
C954 C952 1.419 . S
C954 C955 1.363 . S
C954 H957 0.929 . S
C955 C954 1.363 . S
C955 C961 1.428 . S
H956 C952 0.930 . S
H957 C954 0.929 . S
S958 N959 1.613 . S
S958 N960 1.610 . S
N959 S958 1.613 . S
N959 C962 1.350 . S
N960 S958 1.610 . S
N960 C961 1.351 . S
C961 C955 1.428 . S
C961 N960 1.351 . S
C961 C962 1.434 . S
C962 C953 1.429 . S
C962 N959 1.350 . S
C962 C961 1.434 . S
C963 C964 1.369 . S
C963 C965 1.419 . S
C963 H967 0.930 . S
C964 C963 1.369 . S
C964 C973 1.429 . S
C965 C963 1.419 . S
C965 C966 1.363 . S
C965 H968 0.929 . S
C966 C965 1.363 . S
C966 C972 1.428 . S
H967 C963 0.930 . S
H968 C965 0.929 . S
S969 N970 1.613 . S
S969 N971 1.610 . S
N970 S969 1.613 . S
N970 C973 1.350 . S
N971 S969 1.610 . S
N971 C972 1.351 . S
C972 C966 1.428 . S
C972 N971 1.351 . S
C972 C973 1.434 . S
C973 C964 1.429 . S
C973 N970 1.350 . S
C973 C972 1.434 . S
C974 C975 1.369 . S
C974 C976 1.419 . S
C974 H978 0.930 . S
C975 C974 1.369 . S
C975 C984 1.429 . S
C976 C974 1.419 . S
C976 C977 1.363 . S
C976 H979 0.929 . S
C977 C976 1.363 . S
C977 C983 1.428 . S
H978 C974 0.930 . S
H979 C976 0.929 . S
S980 N981 1.613 . S
S980 N982 1.610 . S
N981 S980 1.613 . S
N981 C984 1.350 . S
N982 S980 1.610 . S
N982 C983 1.351 . S
C983 C977 1.428 . S
C983 N982 1.351 . S
C983 C984 1.434 . S
C984 C975 1.429 . S
C984 N981 1.350 . S
C984 C983 1.434 . S
C985 C986 1.369 . S
C985 C987 1.419 . S
C985 H989 0.930 . S
C986 C985 1.369 . S
C986 C995 1.429 . S
C987 C985 1.419 . S
C987 C988 1.363 . S
C987 H990 0.929 . S
C988 C987 1.363 . S
C988 C994 1.428 . S
H989 C985 0.930 . S
H990 C987 0.929 . S
S991 N992 1.613 . S
S991 N993 1.610 . S
N992 S991 1.613 . S
N992 C995 1.350 . S
N993 S991 1.610 . S
N993 C994 1.351 . S
C994 C988 1.428 . S
C994 N993 1.351 . S
C994 C995 1.434 . S
C995 C986 1.429 . S
C995 N992 1.350 . S
C995 C994 1.434 . S
C996 C997 1.369 . S
C996 C998 1.419 . S
C996 H1000 0.930 . S
C997 C996 1.369 . S
C997 C1006 1.429 . S
C998 C996 1.419 . S
C998 C999 1.363 . S
C998 H1001 0.929 . S
C999 C998 1.363 . S
C999 C1005 1.428 . S
H1000 C996 0.930 . S
H1001 C998 0.929 . S
S1002 N1003 1.613 . S
S1002 N1004 1.610 . S
N1003 S1002 1.613 . S
N1003 C1006 1.350 . S
N1004 S1002 1.610 . S
N1004 C1005 1.351 . S
C1005 C999 1.428 . S
C1005 N1004 1.351 . S
C1005 C1006 1.434 . S
C1006 C997 1.429 . S
C1006 N1003 1.350 . S
C1006 C1005 1.434 . S
C1007 C1008 1.369 . S
C1007 C1009 1.450 . S
C1007 H1011 0.930 . S
C1008 C1007 1.369 . S
C1008 C1017 1.429 . S
C1009 C1007 1.450 . S
C1009 C1010 1.336 1_565 S
C1009 H1012 0.926 1_565 S
C1010 C1009 1.336 1_545 S
C1010 C1016 1.428 . S
H1011 C1007 0.930 . S
H1012 C1009 0.926 1_545 S
S1013 N1014 1.613 1_545 S
S1013 N1015 1.610 . S
N1014 S1013 1.613 1_565 S
N1014 C1017 1.350 . S
N1015 S1013 1.610 . S
N1015 C1016 1.351 . S
C1016 C1010 1.428 . S
C1016 N1015 1.351 . S
C1016 C1017 1.434 1_545 S
C1017 C1008 1.429 . S
C1017 N1014 1.350 . S
C1017 C1016 1.434 1_565 S
C1018 C1019 1.369 . S
C1018 C1020 1.419 1_455 S
C1018 H1022 0.930 . S
C1019 C1018 1.369 . S
C1019 C1028 1.429 . S
C1020 C1018 1.419 1_655 S
C1020 C1021 1.363 . S
C1020 H1023 0.929 . S
C1021 C1020 1.363 . S
C1021 C1027 1.428 . S
H1022 C1018 0.930 . S
H1023 C1020 0.929 . S
S1024 N1025 1.613 1_655 S
S1024 N1026 1.610 . S
N1025 S1024 1.613 1_455 S
N1025 C1028 1.350 . S
N1026 S1024 1.610 . S
N1026 C1027 1.351 . S
C1027 C1021 1.428 . S
C1027 N1026 1.351 . S
C1027 C1028 1.434 1_655 S
C1028 C1019 1.429 . S
C1028 N1025 1.350 . S
C1028 C1027 1.434 1_455 S
C1029 C1030 1.369 . S
C1029 C1031 1.419 . S
C1029 H1033 0.930 . S
C1030 C1029 1.369 . S
C1030 C1039 1.429 . S
C1031 C1029 1.419 . S
C1031 C1032 1.363 . S
C1031 H1034 0.929 . S
C1032 C1031 1.363 . S
C1032 C1038 1.428 . S
H1033 C1029 0.930 . S
H1034 C1031 0.929 . S
S1035 N1036 1.613 . S
S1035 N1037 1.610 . S
N1036 S1035 1.613 . S
N1036 C1039 1.350 . S
N1037 S1035 1.610 . S
N1037 C1038 1.351 . S
C1038 C1032 1.428 . S
C1038 N1037 1.351 . S
C1038 C1039 1.434 . S
C1039 C1030 1.429 . S
C1039 N1036 1.350 . S
C1039 C1038 1.434 . S
C1040 C1041 1.369 . S
C1040 C1042 1.419 1_565 S
C1040 H1044 0.930 . S
C1041 C1040 1.369 . S
C1041 C1050 1.392 1_565 S
C1042 C1040 1.419 1_545 S
C1042 C1043 1.363 . S
C1042 H1045 0.929 . S
C1043 C1042 1.363 . S
C1043 C1049 1.428 . S
H1044 C1040 0.930 . S
H1045 C1042 0.929 . S
S1046 N1047 1.613 . S
S1046 N1048 1.610 . S
N1047 S1046 1.613 . S
N1047 C1050 1.350 . S
N1048 S1046 1.610 . S
N1048 C1049 1.351 . S
C1049 C1043 1.428 . S
C1049 N1048 1.351 . S
C1049 C1050 1.476 . S
C1050 C1041 1.392 1_545 S
C1050 N1047 1.350 . S
C1050 C1049 1.476 . S
C1051 C1052 1.369 . S
C1051 C1053 1.391 1_455 S
C1051 H1055 0.930 . S
C1052 C1051 1.369 . S
C1052 C1061 1.429 . S
C1053 C1051 1.391 1_655 S
C1053 C1054 1.377 . S
C1053 H1056 0.945 . S
C1054 C1053 1.377 . S
C1054 C1060 1.428 . S
H1055 C1051 0.930 . S
H1056 C1053 0.945 . S
S1057 N1058 1.613 1_655 S
S1057 N1059 1.610 . S
N1058 S1057 1.613 1_455 S
N1058 C1061 1.350 . S
N1059 S1057 1.610 . S
N1059 C1060 1.351 . S
C1060 C1054 1.428 . S
C1060 N1059 1.351 . S
C1060 C1061 1.434 1_655 S
C1061 C1052 1.429 . S
C1061 N1058 1.350 . S
C1061 C1060 1.434 1_455 S
C1062 C1063 1.369 . S
C1062 C1064 1.419 . S
C1062 H1066 0.930 . S
C1063 C1062 1.369 . S
C1063 C1072 1.429 . S
C1064 C1062 1.419 . S
C1064 C1065 1.363 . S
C1064 H1067 0.929 . S
C1065 C1064 1.363 . S
C1065 C1071 1.428 . S
H1066 C1062 0.930 . S
H1067 C1064 0.929 . S
S1068 N1069 1.613 . S
S1068 N1070 1.610 . S
N1069 S1068 1.613 . S
N1069 C1072 1.350 . S
N1070 S1068 1.610 . S
N1070 C1071 1.351 . S
C1071 C1065 1.428 . S
C1071 N1070 1.351 . S
C1071 C1072 1.434 . S
C1072 C1063 1.429 . S
C1072 N1069 1.350 . S
C1072 C1071 1.434 . S
C1073 C1074 1.369 . S
C1073 C1075 1.419 . S
C1073 H1077 0.930 . S
C1074 C1073 1.369 . S
C1074 C1083 1.429 . S
C1075 C1073 1.419 . S
C1075 C1076 1.363 . S
C1075 H1078 0.929 . S
C1076 C1075 1.363 . S
C1076 C1082 1.428 . S
H1077 C1073 0.930 . S
H1078 C1075 0.929 . S
S1079 N1080 1.613 . S
S1079 N1081 1.610 . S
N1080 S1079 1.613 . S
N1080 C1083 1.350 . S
N1081 S1079 1.610 . S
N1081 C1082 1.351 . S
C1082 C1076 1.428 . S
C1082 N1081 1.351 . S
C1082 C1083 1.434 . S
C1083 C1074 1.429 . S
C1083 N1080 1.350 . S
C1083 C1082 1.434 . S
C1084 C1085 1.369 . S
C1084 C1086 1.419 . S
C1084 H1088 0.930 . S
C1085 C1084 1.369 . S
C1085 C1094 1.429 . S
C1086 C1084 1.419 . S
C1086 C1087 1.363 . S
C1086 H1089 0.929 . S
C1087 C1086 1.363 . S
C1087 C1093 1.428 . S
H1088 C1084 0.930 . S
H1089 C1086 0.929 . S
S1090 N1091 1.603 1_556 S
S1090 N1092 1.610 . S
N1091 S1090 1.603 1_554 S
N1091 C1094 1.340 1_554 S
N1092 S1090 1.610 . S
N1092 C1093 1.351 . S
C1093 C1087 1.428 . S
C1093 N1092 1.351 . S
C1093 C1094 1.434 . S
C1094 C1085 1.429 . S
C1094 N1091 1.340 1_556 S
C1094 C1093 1.434 . S
C1095 C1096 1.369 . S
C1095 C1097 1.419 . S
C1095 H1099 0.930 . S
C1096 C1095 1.369 . S
C1096 C1105 1.429 . S
C1097 C1095 1.419 . S
C1097 C1098 1.363 . S
C1097 H1100 0.929 . S
C1098 C1097 1.363 . S
C1098 C1104 1.428 . S
H1099 C1095 0.930 . S
H1100 C1097 0.929 . S
S1101 N1102 1.613 . S
S1101 N1103 1.610 . S
N1102 S1101 1.613 . S
N1102 C1105 1.350 . S
N1103 S1101 1.610 . S
N1103 C1104 1.351 . S
C1104 C1098 1.428 . S
C1104 N1103 1.351 . S
C1104 C1105 1.434 . S
C1105 C1096 1.429 . S
C1105 N1102 1.350 . S
C1105 C1104 1.434 . S
C1106 C1107 1.369 . S
C1106 C1108 1.419 . S
C1106 H1110 0.930 . S
C1107 C1106 1.369 . S
C1107 C1116 1.429 . S
C1108 C1106 1.419 . S
C1108 C1109 1.363 . S
C1108 H1111 0.929 . S
C1109 C1108 1.363 . S
C1109 C1115 1.428 . S
H1110 C1106 0.930 . S
H1111 C1108 0.929 . S
S1112 N1113 1.613 . S
S1112 N1114 1.610 . S
N1113 S1112 1.613 . S
N1113 C1116 1.350 . S
N1114 S1112 1.610 . S
N1114 C1115 1.351 . S
C1115 C1109 1.428 . S
C1115 N1114 1.351 . S
C1115 C1116 1.434 . S
C1116 C1107 1.429 . S
C1116 N1113 1.350 . S
C1116 C1115 1.434 . S
C1117 C1118 1.369 . S
C1117 C1119 1.419 . S
C1117 H1121 0.930 . S
C1118 C1117 1.369 . S
C1118 C1127 1.429 . S
C1119 C1117 1.419 . S
C1119 C1120 1.363 . S
C1119 H1122 0.929 . S
C1120 C1119 1.363 . S
C1120 C1126 1.428 . S
H1121 C1117 0.930 . S
H1122 C1119 0.929 . S
S1123 N1124 1.613 . S
S1123 N1125 1.610 . S
N1124 S1123 1.613 . S
N1124 C1127 1.350 . S
N1125 S1123 1.610 . S
N1125 C1126 1.351 . S
C1126 C1120 1.428 . S
C1126 N1125 1.351 . S
C1126 C1127 1.434 . S
C1127 C1118 1.429 . S
C1127 N1124 1.350 . S
C1127 C1126 1.434 . S
C1128 C1129 1.369 . S
C1128 C1130 1.419 . S
C1128 H1132 0.930 . S
C1129 C1128 1.369 . S
C1129 C1138 1.429 . S
C1130 C1128 1.419 . S
C1130 C1131 1.363 . S
C1130 H1133 0.929 . S
C1131 C1130 1.363 . S
C1131 C1137 1.428 . S
H1132 C1128 0.930 . S
H1133 C1130 0.929 . S
S1134 N1135 1.613 . S
S1134 N1136 1.610 . S
N1135 S1134 1.613 . S
N1135 C1138 1.350 . S
N1136 S1134 1.610 . S
N1136 C1137 1.351 . S
C1137 C1131 1.428 . S
C1137 N1136 1.351 . S
C1137 C1138 1.434 . S
C1138 C1129 1.429 . S
C1138 N1135 1.350 . S
C1138 C1137 1.434 . S
C1139 C1140 1.369 . S
C1139 C1141 1.419 . S
C1139 H1143 0.930 . S
C1140 C1139 1.369 . S
C1140 C1149 1.429 . S
C1141 C1139 1.419 . S
C1141 C1142 1.363 . S
C1141 H1144 0.929 . S
C1142 C1141 1.363 . S
C1142 C1148 1.428 . S
H1143 C1139 0.930 . S
H1144 C1141 0.929 . S
S1145 N1146 1.613 . S
S1145 N1147 1.610 . S
N1146 S1145 1.613 . S
N1146 C1149 1.350 . S
N1147 S1145 1.610 . S
N1147 C1148 1.351 . S
C1148 C1142 1.428 . S
C1148 N1147 1.351 . S
C1148 C1149 1.434 . S
C1149 C1140 1.429 . S
C1149 N1146 1.350 . S
C1149 C1148 1.434 . S
C1150 C1151 1.369 . S
C1150 C1152 1.419 . S
C1150 H1154 0.930 . S
C1151 C1150 1.369 . S
C1151 C1160 1.429 . S
C1152 C1150 1.419 . S
C1152 C1153 1.363 . S
C1152 H1155 0.929 . S
C1153 C1152 1.363 . S
C1153 C1159 1.428 . S
H1154 C1150 0.930 . S
H1155 C1152 0.929 . S
S1156 N1157 1.613 . S
S1156 N1158 1.610 . S
N1157 S1156 1.613 . S
N1157 C1160 1.350 . S
N1158 S1156 1.610 . S
N1158 C1159 1.351 . S
C1159 C1153 1.428 . S
C1159 N1158 1.351 . S
C1159 C1160 1.434 . S
C1160 C1151 1.429 . S
C1160 N1157 1.350 . S
C1160 C1159 1.434 . S
C1161 C1162 1.369 . S
C1161 C1163 1.419 . S
C1161 H1165 0.930 . S
C1162 C1161 1.369 . S
C1162 C1171 1.429 . S
C1163 C1161 1.419 . S
C1163 C1164 1.363 . S
C1163 H1166 0.929 . S
C1164 C1163 1.363 . S
C1164 C1170 1.428 . S
H1165 C1161 0.930 . S
H1166 C1163 0.929 . S
S1167 N1168 1.613 . S
S1167 N1169 1.610 . S
N1168 S1167 1.613 . S
N1168 C1171 1.350 . S
N1169 S1167 1.610 . S
N1169 C1170 1.351 . S
C1170 C1164 1.428 . S
C1170 N1169 1.351 . S
C1170 C1171 1.434 . S
C1171 C1162 1.429 . S
C1171 N1168 1.350 . S
C1171 C1170 1.434 . S
C1172 C1173 1.369 . S
C1172 C1174 1.419 . S
C1172 H1176 0.930 . S
C1173 C1172 1.369 . S
C1173 C1182 1.429 . S
C1174 C1172 1.419 . S
C1174 C1175 1.363 . S
C1174 H1177 0.929 . S
C1175 C1174 1.363 . S
C1175 C1181 1.428 . S
H1176 C1172 0.930 . S
H1177 C1174 0.929 . S
S1178 N1179 1.613 . S
S1178 N1180 1.610 . S
N1179 S1178 1.613 . S
N1179 C1182 1.350 . S
N1180 S1178 1.610 . S
N1180 C1181 1.351 . S
C1181 C1175 1.428 . S
C1181 N1180 1.351 . S
C1181 C1182 1.434 . S
C1182 C1173 1.429 . S
C1182 N1179 1.350 . S
C1182 C1181 1.434 . S
C1183 C1184 1.369 . S
C1183 C1185 1.419 . S
C1183 H1187 0.930 . S
C1184 C1183 1.369 . S
C1184 C1193 1.429 . S
C1185 C1183 1.419 . S
C1185 C1186 1.363 . S
C1185 H1188 0.929 . S
C1186 C1185 1.363 . S
C1186 C1192 1.428 . S
H1187 C1183 0.930 . S
H1188 C1185 0.929 . S
S1189 N1190 1.613 . S
S1189 N1191 1.610 . S
N1190 S1189 1.613 . S
N1190 C1193 1.350 . S
N1191 S1189 1.610 . S
N1191 C1192 1.351 . S
C1192 C1186 1.428 . S
C1192 N1191 1.351 . S
C1192 C1193 1.434 . S
C1193 C1184 1.429 . S
C1193 N1190 1.350 . S
C1193 C1192 1.434 . S
C1194 C1195 1.369 1_455 S
C1194 C1196 1.417 1_455 S
C1194 H1198 0.930 . S
C1195 C1194 1.369 1_655 S
C1195 C1204 1.429 . S
C1196 C1194 1.417 1_655 S
C1196 C1197 1.373 . S
C1196 H1199 0.920 1_655 S
C1197 C1196 1.373 . S
C1197 C1203 1.428 . S
H1198 C1194 0.930 . S
H1199 C1196 0.920 1_455 S
S1200 N1201 1.613 . S
S1200 N1202 1.610 . S
N1201 S1200 1.613 . S
N1201 C1204 1.350 . S
N1202 S1200 1.610 . S
N1202 C1203 1.351 . S
C1203 C1197 1.428 . S
C1203 N1202 1.351 . S
C1203 C1204 1.434 . S
C1204 C1195 1.429 . S
C1204 N1201 1.350 . S
C1204 C1203 1.434 . S
C1205 C1206 1.369 . S
C1205 C1207 1.419 . S
C1205 H1209 0.930 . S
C1206 C1205 1.369 . S
C1206 C1215 1.429 . S
C1207 C1205 1.419 . S
C1207 C1208 1.363 . S
C1207 H1210 0.929 . S
C1208 C1207 1.363 . S
C1208 C1214 1.428 . S
H1209 C1205 0.930 . S
H1210 C1207 0.929 . S
S1211 N1212 1.613 . S
S1211 N1213 1.610 . S
N1212 S1211 1.613 . S
N1212 C1215 1.350 . S
N1213 S1211 1.610 . S
N1213 C1214 1.351 . S
C1214 C1208 1.428 . S
C1214 N1213 1.351 . S
C1214 C1215 1.434 . S
C1215 C1206 1.429 . S
C1215 N1212 1.350 . S
C1215 C1214 1.434 . S
C1216 C1217 1.369 . S
C1216 C1218 1.419 . S
C1216 H1220 0.930 . S
C1217 C1216 1.369 . S
C1217 C1226 1.429 1_565 S
C1218 C1216 1.419 . S
C1218 C1219 1.363 . S
C1218 H1221 0.929 . S
C1219 C1218 1.363 . S
C1219 C1225 1.428 1_565 S
H1220 C1216 0.930 . S
H1221 C1218 0.929 . S
S1222 N1223 1.613 . S
S1222 N1224 1.610 . S
N1223 S1222 1.613 . S
N1223 C1226 1.350 . S
N1224 S1222 1.610 . S
N1224 C1225 1.351 . S
C1225 C1219 1.428 1_545 S
C1225 N1224 1.351 . S
C1225 C1226 1.434 . S
C1226 C1217 1.429 1_545 S
C1226 N1223 1.350 . S
C1226 C1225 1.434 . S
C1227 C1228 1.369 . S
C1227 C1229 1.419 . S
C1227 H1231 0.930 . S
C1228 C1227 1.369 . S
C1228 C1237 1.429 1_545 S
C1229 C1227 1.419 . S
C1229 C1230 1.363 . S
C1229 H1232 0.929 . S
C1230 C1229 1.363 . S
C1230 C1236 1.428 1_545 S
H1231 C1227 0.930 . S
H1232 C1229 0.929 . S
S1233 N1234 1.613 . S
S1233 N1235 1.610 . S
N1234 S1233 1.613 . S
N1234 C1237 1.350 . S
N1235 S1233 1.610 . S
N1235 C1236 1.351 . S
C1236 C1230 1.428 1_565 S
C1236 N1235 1.351 . S
C1236 C1237 1.434 . S
C1237 C1228 1.429 1_565 S
C1237 N1234 1.350 . S
C1237 C1236 1.434 . S
C1238 C1239 1.369 . S
C1238 C1240 1.419 . S
C1238 H1242 0.930 . S
C1239 C1238 1.369 . S
C1239 C1248 1.429 . S
C1240 C1238 1.419 . S
C1240 C1241 1.363 . S
C1240 H1243 0.929 . S
C1241 C1240 1.363 . S
C1241 C1247 1.428 . S
H1242 C1238 0.930 . S
H1243 C1240 0.929 . S
S1244 N1245 1.613 . S
S1244 N1246 1.610 . S
N1245 S1244 1.613 . S
N1245 C1248 1.350 1_655 S
N1246 S1244 1.610 . S
N1246 C1247 1.351 1_655 S
C1247 C1241 1.428 . S
C1247 N1246 1.351 1_455 S
C1247 C1248 1.434 . S
C1248 C1239 1.429 . S
C1248 N1245 1.350 1_455 S
C1248 C1247 1.434 . S
C1249 C1250 1.369 . S
C1249 C1251 1.419 . S
C1249 H1253 0.930 . S
C1250 C1249 1.369 . S
C1250 C1259 1.429 . S
C1251 C1249 1.419 . S
C1251 C1252 1.363 . S
C1251 H1254 0.929 . S
C1252 C1251 1.363 . S
C1252 C1258 1.428 . S
H1253 C1249 0.930 . S
H1254 C1251 0.929 . S
S1255 N1256 1.613 . S
S1255 N1257 1.610 . S
N1256 S1255 1.613 . S
N1256 C1259 1.350 . S
N1257 S1255 1.610 . S
N1257 C1258 1.351 . S
C1258 C1252 1.428 . S
C1258 N1257 1.351 . S
C1258 C1259 1.434 . S
C1259 C1250 1.429 . S
C1259 N1256 1.350 . S
C1259 C1258 1.434 . S
C469 C212 1.619 . S
C471 C10 1.615 . S
C480 C225 1.626 . S
C482 C17 1.621 . S
C491 C205 1.611 . S
C493 C30 1.624 . S
C502 C342 1.599 1_554 S
C504 C43 1.590 . S
C513 C62 1.608 . S
C515 C322 1.593 1_554 S
C524 C75 1.592 . S
C526 C329 1.589 1_554 S
C535 C88 1.610 . S
C537 C452 1.621 . S
C546 C459 1.621 . S
C548 C95 1.622 . S
C557 C439 1.612 . S
C559 C108 1.620 . S
C568 C121 1.593 . S
C570 C270 1.594 1_556 S
C579 C244 1.598 1_556 S
C581 C134 1.605 . S
C590 C153 1.589 . S
C592 C257 1.592 1_556 S
C601 C374 1.566 . S
C603 C166 1.550 . S
C612 C179 1.548 . S
C614 C381 1.552 . S
C623 C361 1.542 . S
C625 C192 1.538 . S
C634 C420 1.543 . S
C636 C283 1.534 . S
C645 C394 1.557 . S
C647 C290 1.561 . S
C656 C309 1.557 . S
C658 C413 1.545 . S
C667 C238 1.394 . S
C669 C4 1.391 . S
C678 C251 1.511 . S
C680 C23 1.503 . S
C689 C264 1.812 . S
C691 C36 1.824 . S
C700 C49 1.401 . S
C702 C433 1.399 . S
C711 C56 1.851 . S
C713 C446 1.844 . S
C722 C69 1.514 . S
C724 C465 1.528 . S
C733 C82 1.391 . S
C735 C316 1.392 . S
C744 C335 1.510 . S
C746 C101 1.503 . S
C755 C348 1.805 . S
C757 C114 1.829 . S
C766 C199 1.397 . S
C768 C127 1.403 . S
C777 C140 1.852 . S
C779 C218 1.844 . S
C788 C147 1.514 . S
C790 C231 1.527 . S
C799 C160 1.414 . S
C801 C400 1.414 . S
C810 C407 1.472 . S
C812 C173 1.475 . S
C821 C426 1.668 . S
C823 C186 1.674 . S
C832 C355 1.476 . S
C834 C277 1.477 . S
C843 C296 1.756 . S
C845 C368 1.760 . S
C854 C303 1.566 . S
C856 C387 1.569 . S
C865 C356 1.477 . S
C867 C5 1.483 . S
C876 C16 1.481 . S
C878 C369 1.428 . S
C887 C29 1.427 . S
C889 C380 1.487 . S
C898 C161 1.453 . S
C900 C42 1.455 . S
C909 C57 1.439 . S
C911 C174 1.522 . S
C920 C70 1.426 . S
C922 C187 1.383 . S
C931 C278 1.476 . S
C933 C83 1.482 . S
C942 C94 1.480 . S
C944 C289 1.421 . S
C953 C304 1.489 . S
C955 C107 1.428 . S
C964 C120 1.459 . S
C966 C393 1.450 . S
C975 C408 1.523 . S
C977 C133 1.439 . S
C986 C419 1.378 . S
C988 C148 1.424 . S
C997 C317 1.486 . S
C999 C200 1.483 . S
C1008 C328 1.534 . S
C1010 C211 1.449 . S
C1019 C341 1.454 . S
C1021 C224 1.535 . S
C1030 C239 1.483 . S
C1032 C434 1.485 . S
C1041 C447 1.449 . S
C1043 C252 1.531 . S
C1052 C458 1.536 . S
C1054 C265 1.448 . S
C1063 C3 1.146 1_556 S
C1065 C213 1.158 . S
C1074 C18 1.182 1_556 S
C1076 C226 1.185 . S
C1085 C31 1.161 1_556 S
C1087 C198 1.166 . S
C1096 C343 1.180 . S
C1098 C44 1.165 . S
C1107 C315 1.168 . S
C1109 C55 1.176 . S
C1118 C330 1.184 . S
C1120 C68 1.179 . S
C1129 C445 1.162 . S
C1131 C81 1.146 1_554 S
C1140 C460 1.178 . S
C1142 C96 1.188 1_554 S
C1151 C432 1.168 . S
C1153 C109 1.164 1_554 S
C1162 C122 1.164 . S
C1164 C263 1.179 . S
C1173 C135 1.171 . S
C1175 C237 1.175 . S
C1184 C146 1.186 . S
C1186 C250 1.183 . S
C1195 C367 1.200 . S
C1197 C159 1.213 . S
C1206 C382 1.223 . S
C1208 C172 1.236 . S
C1217 C185 1.240 . S
C1219 C354 1.224 . S
C1228 C276 1.220 . S
C1230 C421 1.242 . S
C1239 C395 1.206 . S
C1241 C291 1.213 . S
C1250 C406 1.235 . S
C1252 C302 1.225 . S
