# Generated by pormake.
# Topology ukb, (4)-cn, num edge types: 1
# Building blocks:
#     Node 0, Type 0, BuildingBlock: GALJAG_clean_sbu_0, # of connection points: 4
#     Node 1, Type 0, BuildingBlock: GALJAG_clean_sbu_0, # of connection points: 4
#     Node 2, Type 0, BuildingBlock: GALJAG_clean_sbu_0, # of connection points: 4
#     Node 3, Type 0, BuildingBlock: GALJAG_clean_sbu_0, # of connection points: 4
#     Node 4, Type 0, BuildingBlock: GALJAG_clean_sbu_0, # of connection points: 4
#     Node 5, Type 0, BuildingBlock: GALJAG_clean_sbu_0, # of connection points: 4
#     Node 6, Type 0, BuildingBlock: GALJAG_clean_sbu_0, # of connection points: 4
#     Node 7, Type 0, BuildingBlock: GALJAG_clean_sbu_0, # of connection points: 4
#     Node 8, Type 0, BuildingBlock: GALJAG_clean_sbu_0, # of connection points: 4
#     Node 9, Type 0, BuildingBlock: GALJAG_clean_sbu_0, # of connection points: 4
#     Node 10, Type 0, BuildingBlock: GALJAG_clean_sbu_0, # of connection points: 4
#     Node 11, Type 0, BuildingBlock: GALJAG_clean_sbu_0, # of connection points: 4
#     Node 12, Type 0, BuildingBlock: GALJAG_clean_sbu_0, # of connection points: 4
#     Node 13, Type 0, BuildingBlock: GALJAG_clean_sbu_0, # of connection points: 4
#     Node 14, Type 0, BuildingBlock: GALJAG_clean_sbu_0, # of connection points: 4
#     Node 15, Type 0, BuildingBlock: GALJAG_clean_sbu_0, # of connection points: 4
#     Edge 16, Type (0, 0), BuildingBlock: EZIPEK_clean_linker_0, # of connection points: 2
#     Edge 17, Type (0, 0), BuildingBlock: EZIPEK_clean_linker_0, # of connection points: 2
#     Edge 18, Type (0, 0), BuildingBlock: EZIPEK_clean_linker_0, # of connection points: 2
#     Edge 19, Type (0, 0), BuildingBlock: EZIPEK_clean_linker_0, # of connection points: 2
#     Edge 20, Type (0, 0), BuildingBlock: EZIPEK_clean_linker_0, # of connection points: 2
#     Edge 21, Type (0, 0), BuildingBlock: EZIPEK_clean_linker_0, # of connection points: 2
#     Edge 22, Type (0, 0), BuildingBlock: EZIPEK_clean_linker_0, # of connection points: 2
#     Edge 23, Type (0, 0), BuildingBlock: EZIPEK_clean_linker_0, # of connection points: 2
#     Edge 24, Type (0, 0), BuildingBlock: EZIPEK_clean_linker_0, # of connection points: 2
#     Edge 25, Type (0, 0), BuildingBlock: EZIPEK_clean_linker_0, # of connection points: 2
#     Edge 26, Type (0, 0), BuildingBlock: EZIPEK_clean_linker_0, # of connection points: 2
#     Edge 27, Type (0, 0), BuildingBlock: EZIPEK_clean_linker_0, # of connection points: 2
#     Edge 28, Type (0, 0), BuildingBlock: EZIPEK_clean_linker_0, # of connection points: 2
#     Edge 29, Type (0, 0), BuildingBlock: EZIPEK_clean_linker_0, # of connection points: 2
#     Edge 30, Type (0, 0), BuildingBlock: EZIPEK_clean_linker_0, # of connection points: 2
#     Edge 31, Type (0, 0), BuildingBlock: EZIPEK_clean_linker_0, # of connection points: 2
#     Edge 32, Type (0, 0), BuildingBlock: EZIPEK_clean_linker_0, # of connection points: 2
#     Edge 33, Type (0, 0), BuildingBlock: EZIPEK_clean_linker_0, # of connection points: 2
#     Edge 34, Type (0, 0), BuildingBlock: EZIPEK_clean_linker_0, # of connection points: 2
#     Edge 35, Type (0, 0), BuildingBlock: EZIPEK_clean_linker_0, # of connection points: 2
#     Edge 36, Type (0, 0), BuildingBlock: EZIPEK_clean_linker_0, # of connection points: 2
#     Edge 37, Type (0, 0), BuildingBlock: EZIPEK_clean_linker_0, # of connection points: 2
#     Edge 38, Type (0, 0), BuildingBlock: EZIPEK_clean_linker_0, # of connection points: 2
#     Edge 39, Type (0, 0), BuildingBlock: EZIPEK_clean_linker_0, # of connection points: 2
#     Edge 40, Type (0, 0), BuildingBlock: EZIPEK_clean_linker_0, # of connection points: 2
#     Edge 41, Type (0, 0), BuildingBlock: EZIPEK_clean_linker_0, # of connection points: 2
#     Edge 42, Type (0, 0), BuildingBlock: EZIPEK_clean_linker_0, # of connection points: 2
#     Edge 43, Type (0, 0), BuildingBlock: EZIPEK_clean_linker_0, # of connection points: 2
#     Edge 44, Type (0, 0), BuildingBlock: EZIPEK_clean_linker_0, # of connection points: 2
#     Edge 45, Type (0, 0), BuildingBlock: EZIPEK_clean_linker_0, # of connection points: 2
#     Edge 46, Type (0, 0), BuildingBlock: EZIPEK_clean_linker_0, # of connection points: 2
#     Edge 47, Type (0, 0), BuildingBlock: EZIPEK_clean_linker_0, # of connection points: 2
# Relax obj value: 0.140
# Max RMSD: 0.093
# Mean RMSD: 0.093
data_MOF--net-ukb--node1-GALJAG_clean_sbu_0--edge1-EZIPEK_clean_linker_0
_symmetry_space_group_name_H-M    P1
_symmetry_Int_Tables_number       1
_symmetry_cell_setting            triclinic
loop_
_symmetry_equiv_pos_as_xyz
'x, y, z'
_cell_length_a     32.594164
_cell_length_b     32.629391
_cell_length_c     27.809142
_cell_angle_alpha  90.032836
_cell_angle_beta   90.021753
_cell_angle_gamma 89.961738
loop_
_atom_site_label
_atom_site_type_symbol
_atom_site_fract_x
_atom_site_fract_y
_atom_site_fract_z
_atom_type_partial_charge
In0 In 0.53929 0.19321 0.19185 0.0
O1 O 0.58535 0.14419 0.17006 0.0
O2 O 0.58129 0.16015 0.24438 0.0
C3 C 0.52332 0.21581 0.10075 0.0
C4 C 0.47437 0.15257 0.22772 0.0
C5 C 0.56804 0.26536 0.22498 0.0
O6 O 0.55453 0.19518 0.11207 0.0
O7 O 0.49952 0.2243 0.135 0.0
O8 O 0.53032 0.25681 0.22529 0.0
O9 O 0.59093 0.23753 0.20871 0.0
C10 C 0.59859 0.13886 0.21228 0.0
O11 O 0.48894 0.18392 0.24804 0.0
O12 O 0.49215 0.14222 0.18936 0.0
In13 In 0.30246 0.52007 0.67288 0.0
O14 O 0.30454 0.45745 0.71049 0.0
O15 O 0.35913 0.48061 0.67819 0.0
C16 C 0.23276 0.55128 0.71017 0.0
C17 C 0.34968 0.5838 0.70021 0.0
C18 C 0.28673 0.50422 0.58016 0.0
O19 O 0.25452 0.52597 0.73322 0.0
O20 O 0.24524 0.55914 0.6684 0.0
O21 O 0.3174 0.52489 0.5936 0.0
O22 O 0.26518 0.48938 0.61361 0.0
C23 C 0.34236 0.45249 0.70218 0.0
O24 O 0.33392 0.58165 0.65886 0.0
O25 O 0.34247 0.55353 0.7269 0.0
In26 In 0.96245 0.30405 0.19627 0.0
O27 O 0.0211 0.3099 0.2402 0.0
O28 O 0.00899 0.35488 0.18636 0.0
C29 C 0.93422 0.23375 0.23488 0.0
C30 C 0.90674 0.3585 0.22913 0.0
C31 C 0.97289 0.28333 0.10334 0.0
O32 O 0.97093 0.24507 0.24027 0.0
O33 O 0.91195 0.25807 0.21144 0.0
O34 O 0.94886 0.31151 0.11634 0.0
O35 O 0.99266 0.26656 0.13692 0.0
C36 C 0.03238 0.34245 0.21951 0.0
O37 O 0.90337 0.3408 0.18898 0.0
O38 O 0.93869 0.34938 0.2524 0.0
In39 In 0.18775 0.97633 0.68691 0.0
O40 O 0.17653 0.02142 0.74867 0.0
O41 O 0.14301 0.02983 0.68392 0.0
C42 C 0.25863 0.94381 0.71882 0.0
C43 C 0.1348 0.91442 0.70128 0.0
C44 C 0.21116 0.98998 0.59572 0.0
O45 O 0.22796 0.92257 0.70722 0.0
O46 O 0.25354 0.98209 0.71559 0.0
O47 O 0.17781 0.97259 0.60619 0.0
O48 O 0.23177 0.00255 0.63113 0.0
C49 C 0.14972 0.0416 0.72626 0.0
O50 O 0.14462 0.92648 0.65974 0.0
O51 O 0.15073 0.93421 0.73554 0.0
In52 In 0.52498 0.29759 0.81421 0.0
O53 O 0.56821 0.34841 0.83883 0.0
O54 O 0.56668 0.33337 0.76418 0.0
C55 C 0.51513 0.27222 0.90515 0.0
C56 C 0.45822 0.33751 0.78128 0.0
C57 C 0.55668 0.22707 0.78014 0.0
O58 O 0.54222 0.29785 0.89314 0.0
O59 O 0.49201 0.26018 0.87158 0.0
O60 O 0.5184 0.23276 0.78254 0.0
O61 O 0.57816 0.25699 0.79345 0.0
C62 C 0.58242 0.35472 0.79723 0.0
O63 O 0.48017 0.31554 0.75422 0.0
O64 O 0.46883 0.33768 0.82481 0.0
In65 In 0.20622 0.52082 0.29254 0.0
O66 O 0.19678 0.45824 0.2571 0.0
O67 O 0.14755 0.4841 0.29728 0.0
C68 C 0.27585 0.54541 0.24977 0.0
C69 C 0.159 0.58433 0.26477 0.0
C70 C 0.22918 0.50659 0.38391 0.0
O71 O 0.25649 0.51427 0.2352 0.0
O72 O 0.26048 0.56337 0.28553 0.0
O73 O 0.19993 0.53009 0.373 0.0
O74 O 0.24627 0.489 0.34885 0.0
C75 C 0.16017 0.455 0.2714 0.0
O76 O 0.17311 0.58107 0.30684 0.0
O77 O 0.1683 0.55534 0.23674 0.0
In78 In 0.96462 0.20335 0.8143 0.0
O79 O 0.9043 0.16916 0.8261 0.0
O80 O 0.9401 0.15332 0.76499 0.0
C81 C 0.97274 0.22853 0.90582 0.0
C82 C 0.03192 0.15896 0.79499 0.0
C83 C 0.94093 0.27225 0.76838 0.0
O84 O 0.94679 0.20197 0.89313 0.0
O85 O 0.99529 0.24195 0.8725 0.0
O86 O 0.97823 0.26223 0.7714 0.0
O87 O 0.91626 0.24738 0.78714 0.0
C88 C 0.90769 0.14747 0.78872 0.0
O89 O 0.01665 0.18362 0.76488 0.0
O90 O 0.01438 0.15814 0.83545 0.0
In91 In 0.30262 0.9757 0.31268 0.0
O92 O 0.33795 0.91632 0.32484 0.0
O93 O 0.33865 0.94235 0.25461 0.0
C94 C 0.2786 0.98813 0.40393 0.0
C95 C 0.34929 0.04126 0.29225 0.0
C96 C 0.23308 0.95144 0.2692 0.0
O97 O 0.30658 0.96315 0.39288 0.0
O98 O 0.26369 0.00808 0.3693 0.0
O99 O 0.25183 0.98341 0.25618 0.0
O100 O 0.24904 0.93241 0.30381 0.0
C101 C 0.35004 0.91354 0.28183 0.0
O102 O 0.31191 0.03938 0.28053 0.0
O103 O 0.3624 0.01101 0.31588 0.0
In104 In 0.46217 0.80091 0.80121 0.0
O105 O 0.51606 0.81378 0.751 0.0
O106 O 0.50647 0.85341 0.81108 0.0
C107 C 0.43252 0.73011 0.7655 0.0
C108 C 0.40322 0.85315 0.77355 0.0
C109 C 0.4774 0.77865 0.89238 0.0
O110 O 0.47013 0.73908 0.76252 0.0
O111 O 0.41056 0.75673 0.78568 0.0
O112 O 0.4487 0.80277 0.88121 0.0
O113 O 0.49924 0.76654 0.85775 0.0
C114 C 0.52743 0.84506 0.77425 0.0
O115 O 0.40734 0.84187 0.81673 0.0
O116 O 0.42948 0.8389 0.74461 0.0
In117 In 0.69212 0.47743 0.32091 0.0
O118 O 0.65837 0.41712 0.33269 0.0
O119 O 0.65525 0.44426 0.26329 0.0
C120 C 0.70611 0.49022 0.41495 0.0
C121 C 0.65279 0.54401 0.28737 0.0
C122 C 0.76537 0.44994 0.29027 0.0
O123 O 0.67326 0.47463 0.39954 0.0
O124 O 0.73105 0.50133 0.38289 0.0
O125 O 0.75537 0.48723 0.28629 0.0
O126 O 0.73876 0.42727 0.30943 0.0
C127 C 0.64553 0.4146 0.29 0.0
O128 O 0.68522 0.53072 0.26807 0.0
O129 O 0.64097 0.52458 0.32393 0.0
In130 In 0.0329 0.69617 0.80267 0.0
O131 O 0.08712 0.65465 0.82144 0.0
O132 O 0.06972 0.65946 0.74789 0.0
C133 C 0.02364 0.72354 0.89274 0.0
C134 C 0.96605 0.65047 0.78354 0.0
C135 C 0.05454 0.76737 0.76115 0.0
O136 O 0.04887 0.69568 0.88188 0.0
O137 O 0.00237 0.73724 0.85834 0.0
O138 O 0.01846 0.75358 0.75784 0.0
O139 O 0.07912 0.74537 0.78461 0.0
C140 C 0.0938 0.64419 0.7785 0.0
O141 O 0.98293 0.67256 0.75206 0.0
O142 O 0.98219 0.65224 0.82462 0.0
In143 In 0.80851 0.01895 0.31491 0.0
O144 O 0.81345 0.95358 0.28466 0.0
O145 O 0.86803 0.98372 0.30672 0.0
C146 C 0.73913 0.04688 0.27408 0.0
C147 C 0.85445 0.08439 0.29261 0.0
C148 C 0.78724 0.00552 0.40675 0.0
O149 O 0.75983 0.01835 0.25518 0.0
O150 O 0.75301 0.06056 0.31313 0.0
O151 O 0.81868 0.02564 0.39511 0.0
O152 O 0.7675 0.99016 0.37217 0.0
C153 C 0.85198 0.95219 0.28872 0.0
O154 O 0.84635 0.0746 0.33543 0.0
O155 O 0.8401 0.06079 0.26079 0.0
In156 In 0.46908 0.69995 0.17965 0.0
O157 O 0.43051 0.64642 0.15238 0.0
O158 O 0.42547 0.66329 0.22623 0.0
C159 C 0.47988 0.72614 0.08939 0.0
C160 C 0.53565 0.66008 0.21305 0.0
C161 C 0.43716 0.76979 0.21557 0.0
O162 O 0.45167 0.70161 0.10097 0.0
O163 O 0.50324 0.73721 0.12321 0.0
O164 O 0.47538 0.76333 0.2151 0.0
O165 O 0.4157 0.74099 0.19907 0.0
C166 C 0.41362 0.64021 0.19257 0.0
O167 O 0.51161 0.67919 0.24064 0.0
O168 O 0.52728 0.66295 0.16901 0.0
In169 In 0.79464 0.47267 0.69838 0.0
O170 O 0.81226 0.51966 0.75573 0.0
O171 O 0.84275 0.52219 0.68812 0.0
C172 C 0.72567 0.444 0.73958 0.0
C173 C 0.85102 0.41349 0.71015 0.0
C174 C 0.76414 0.48648 0.61016 0.0
O175 O 0.73374 0.4818 0.7384 0.0
O176 O 0.75248 0.42103 0.7213 0.0
O177 O 0.7872 0.45661 0.61985 0.0
O178 O 0.75677 0.51028 0.64485 0.0
C179 C 0.8393 0.53644 0.73001 0.0
O180 O 0.84142 0.4271 0.66919 0.0
O181 O 0.83293 0.43022 0.74518 0.0
In182 In 0.03919 0.80294 0.18009 0.0
O183 O 0.07923 0.85765 0.1608 0.0
O184 O 0.08168 0.83492 0.2327 0.0
C185 C 0.026 0.78153 0.08811 0.0
C186 C 0.9728 0.83944 0.21856 0.0
C187 C 0.07183 0.73131 0.20966 0.0
O188 O 0.05716 0.80142 0.10124 0.0
O189 O 0.00069 0.77342 0.12101 0.0
O190 O 0.03365 0.73784 0.2107 0.0
O191 O 0.09308 0.76087 0.19472 0.0
C192 C 0.09495 0.86032 0.20219 0.0
O193 O 0.98967 0.80882 0.23805 0.0
O194 O 0.98866 0.85069 0.17943 0.0
In195 In 0.69776 0.0243 0.69009 0.0
O196 O 0.68183 0.96958 0.73785 0.0
O197 O 0.64556 0.98067 0.6753 0.0
C198 C 0.76815 0.05332 0.72699 0.0
C199 C 0.64695 0.08395 0.71959 0.0
C200 C 0.72275 0.01111 0.5997 0.0
O201 O 0.75738 0.01648 0.73351 0.0
O202 O 0.74354 0.07466 0.70268 0.0
O203 O 0.69358 0.03503 0.60989 0.0
O204 O 0.73859 0.99261 0.63497 0.0
C205 C 0.65132 0.95938 0.71249 0.0
O206 O 0.65861 0.08088 0.67643 0.0
O207 O 0.66037 0.05659 0.74756 0.0
C208 C 0.40673 0.11852 0.21483 0.0
C209 C 0.4389 0.12936 0.24669 0.0
C210 C 0.40436 0.09202 0.31132 0.0
C211 C 0.37691 0.07491 0.27721 0.0
N212 N 0.35671 0.06715 0.19376 0.0
N213 N 0.47149 0.12136 0.32436 0.0
C214 C 0.37895 0.08715 0.22823 0.0
C215 C 0.43846 0.11516 0.29494 0.0
N216 N 0.40226 0.13865 0.17206 0.0
N217 N 0.3975 0.08674 0.35939 0.0
H218 H 0.49791 0.13676 0.31359 0.0
H219 H 0.47426 0.1077 0.35807 0.0
H220 H 0.37199 0.07109 0.37268 0.0
H221 H 0.4145 0.10168 0.38585 0.0
H222 H 0.37703 0.13446 0.14956 0.0
H223 H 0.42126 0.16281 0.1617 0.0
H224 H 0.36075 0.0723 0.15708 0.0
H225 H 0.33737 0.04253 0.20096 0.0
C226 C 0.36663 0.37952 0.71115 0.0
C227 C 0.36746 0.42095 0.72635 0.0
C228 C 0.42848 0.40786 0.77482 0.0
C229 C 0.42632 0.36565 0.76263 0.0
N230 N 0.38902 0.30972 0.72636 0.0
N231 N 0.39131 0.47145 0.7831 0.0
C232 C 0.39411 0.35092 0.73278 0.0
C233 C 0.3959 0.43408 0.76155 0.0
N234 N 0.34056 0.36786 0.67519 0.0
N235 N 0.46273 0.42366 0.79641 0.0
H236 H 0.36673 0.49086 0.77557 0.0
H237 H 0.40901 0.48096 0.81227 0.0
H238 H 0.48864 0.40632 0.80462 0.0
H239 H 0.46732 0.455 0.80124 0.0
H240 H 0.34164 0.33919 0.65878 0.0
H241 H 0.31941 0.38792 0.65969 0.0
H242 H 0.36387 0.29698 0.70876 0.0
H243 H 0.40814 0.28797 0.74231 0.0
C244 C 0.09709 0.37916 0.19804 0.0
C245 C 0.06934 0.36571 0.23398 0.0
C246 C 0.11031 0.40087 0.29511 0.0
C247 C 0.13298 0.42049 0.25828 0.0
N248 N 0.14446 0.43201 0.17334 0.0
N249 N 0.04622 0.36881 0.3167 0.0
C250 C 0.1259 0.41032 0.2093 0.0
C251 C 0.07525 0.37742 0.2827 0.0
N252 N 0.09635 0.36169 0.15337 0.0
N253 N 0.12257 0.40429 0.34195 0.0
H254 H 0.01906 0.35324 0.3093 0.0
H255 H 0.0472 0.3807 0.35146 0.0
H256 H 0.14881 0.42043 0.35212 0.0
H257 H 0.10938 0.3875 0.3698 0.0
H258 H 0.11842 0.36762 0.12719 0.0
H259 H 0.07633 0.33797 0.14426 0.0
H260 H 0.1366 0.42876 0.13722 0.0
H261 H 0.16501 0.45587 0.1795 0.0
C262 C 0.08935 0.05878 0.77693 0.0
C263 C 0.1234 0.07242 0.74972 0.0
C264 C 0.10146 0.14364 0.76048 0.0
C265 C 0.06449 0.12947 0.7817 0.0
N266 N 0.01966 0.07267 0.80121 0.0
N267 N 0.16128 0.12705 0.71219 0.0
C268 C 0.05755 0.08682 0.78809 0.0
C269 C 0.12937 0.1147 0.74055 0.0
N270 N 0.08709 0.0189 0.79175 0.0
N271 N 0.11045 0.18455 0.76079 0.0
H272 H 0.18331 0.10674 0.69894 0.0
H273 H 0.1646 0.15691 0.69957 0.0
H274 H 0.09109 0.20644 0.77608 0.0
H275 H 0.13861 0.19641 0.74996 0.0
H276 H 0.06509 0.00837 0.81594 0.0
H277 H 0.1094 0.9971 0.78353 0.0
H278 H 0.01185 0.04172 0.80105 0.0
H279 H 0.99446 0.09164 0.80727 0.0
C280 C 0.60089 0.8599 0.75296 0.0
C281 C 0.55953 0.87312 0.75673 0.0
C282 C 0.57972 0.94317 0.73693 0.0
C283 C 0.62045 0.92943 0.72881 0.0
N284 N 0.66923 0.87415 0.72248 0.0
N285 N 0.50807 0.92492 0.74199 0.0
C286 C 0.63099 0.88759 0.73507 0.0
C287 C 0.5485 0.91408 0.74576 0.0
N288 N 0.61161 0.8215 0.76807 0.0
N289 N 0.57109 0.9842 0.73835 0.0
H290 H 0.48402 0.90434 0.74718 0.0
H291 H 0.49837 0.95323 0.7289 0.0
H292 H 0.59318 0.00687 0.73337 0.0
H293 H 0.54286 0.9959 0.74935 0.0
H294 H 0.64187 0.81159 0.77109 0.0
H295 H 0.59031 0.80042 0.78114 0.0
H296 H 0.67743 0.84331 0.72138 0.0
H297 H 0.69198 0.89368 0.70947 0.0
C298 C 0.56702 0.59024 0.21478 0.0
C299 C 0.56748 0.63154 0.23093 0.0
C300 C 0.62529 0.61582 0.28435 0.0
C301 C 0.62676 0.57566 0.26495 0.0
N302 N 0.60507 0.52731 0.20435 0.0
N303 N 0.60117 0.68575 0.27477 0.0
C304 C 0.59973 0.56386 0.22758 0.0
C305 C 0.59777 0.64501 0.26407 0.0
N306 N 0.53396 0.5752 0.19008 0.0
N307 N 0.64979 0.62583 0.32248 0.0
H308 H 0.58199 0.70799 0.25992 0.0
H309 H 0.62512 0.69795 0.295 0.0
H310 H 0.67157 0.60571 0.33665 0.0
H311 H 0.64688 0.65304 0.34177 0.0
H312 H 0.5302 0.54422 0.18215 0.0
H313 H 0.50796 0.59252 0.18216 0.0
H314 H 0.58887 0.51923 0.17346 0.0
H315 H 0.62839 0.50675 0.21297 0.0
C316 C 0.89648 0.6368 0.74785 0.0
C317 C 0.93181 0.62225 0.77242 0.0
C318 C 0.90064 0.55426 0.77909 0.0
C319 C 0.86825 0.56726 0.74873 0.0
N320 N 0.83629 0.6197 0.70056 0.0
N321 N 0.97121 0.56473 0.80228 0.0
C322 C 0.86646 0.60822 0.73195 0.0
C323 C 0.93481 0.5804 0.78603 0.0
N324 N 0.89077 0.67795 0.7415 0.0
N325 N 0.89912 0.51678 0.80096 0.0
H326 H 0.99797 0.58199 0.80522 0.0
H327 H 0.97618 0.53353 0.8077 0.0
H328 H 0.87512 0.49613 0.79602 0.0
H329 H 0.91989 0.50768 0.82738 0.0
H330 H 0.86378 0.69057 0.728 0.0
H331 H 0.91143 0.69989 0.75404 0.0
H332 H 0.83618 0.64772 0.68263 0.0
H333 H 0.81251 0.60017 0.69029 0.0
C334 C 0.90735 0.90151 0.3056 0.0
C335 C 0.87737 0.91689 0.27337 0.0
C336 C 0.90321 0.87079 0.21083 0.0
C337 C 0.93775 0.86179 0.24001 0.0
N338 N 0.97532 0.8729 0.31401 0.0
N339 N 0.84922 0.91923 0.19286 0.0
C340 C 0.94037 0.87778 0.28741 0.0
C341 C 0.87546 0.90197 0.22544 0.0
N342 N 0.90396 0.90923 0.35375 0.0
N343 N 0.89666 0.84915 0.16945 0.0
H344 H 0.82884 0.94272 0.20137 0.0
H345 H 0.85015 0.91262 0.15622 0.0
H346 H 0.91593 0.8254 0.15834 0.0
H347 H 0.86996 0.85175 0.14906 0.0
H348 H 0.92285 0.89564 0.37944 0.0
H349 H 0.87944 0.92563 0.36839 0.0
H350 H 0.98034 0.88805 0.34646 0.0
H351 H 0.00094 0.85683 0.30194 0.0
C352 C 0.61323 0.32578 0.21005 0.0
C353 C 0.58463 0.30555 0.24023 0.0
C354 C 0.59001 0.36173 0.29834 0.0
C355 C 0.62339 0.37813 0.27184 0.0
N356 N 0.67256 0.36979 0.20724 0.0
N357 N 0.55058 0.30109 0.31731 0.0
C358 C 0.63655 0.3587 0.22882 0.0
C359 C 0.57404 0.32271 0.28549 0.0
N360 N 0.61739 0.31441 0.16298 0.0
N361 N 0.57272 0.38385 0.33483 0.0
H362 H 0.53926 0.27186 0.31016 0.0
H363 H 0.54569 0.31054 0.35264 0.0
H364 H 0.58263 0.41316 0.34426 0.0
H365 H 0.54585 0.37497 0.35222 0.0
H366 H 0.63507 0.33087 0.13845 0.0
H367 H 0.59963 0.29152 0.1471 0.0
H368 H 0.6852 0.35357 0.17853 0.0
H369 H 0.69224 0.39202 0.22105 0.0
C370 C 0.16396 0.55373 0.7517 0.0
C371 C 0.19832 0.57442 0.73186 0.0
C372 C 0.16387 0.64057 0.74272 0.0
C373 C 0.13023 0.62012 0.76431 0.0
N374 N 0.1006 0.55866 0.79737 0.0
N375 N 0.23531 0.63776 0.7197 0.0
C376 C 0.13113 0.5771 0.77158 0.0
C377 C 0.19949 0.61792 0.73048 0.0
N378 N 0.16168 0.51195 0.74922 0.0
N379 N 0.16175 0.68169 0.73351 0.0
H380 H 0.26256 0.62252 0.71167 0.0
H381 H 0.2393 0.66926 0.72341 0.0
H382 H 0.13754 0.70012 0.74492 0.0
H383 H 0.18278 0.69713 0.71195 0.0
H384 H 0.13556 0.49532 0.75826 0.0
H385 H 0.18488 0.49385 0.73454 0.0
H386 H 0.10162 0.52817 0.80831 0.0
H387 H 0.07549 0.57471 0.81104 0.0
C388 C 0.91399 0.11999 0.25388 0.0
C389 C 0.87698 0.12224 0.28057 0.0
C390 C 0.8839 0.19673 0.28626 0.0
C391 C 0.91772 0.19501 0.25434 0.0
N392 N 0.96286 0.1556 0.20329 0.0
N393 N 0.82295 0.16304 0.31601 0.0
C394 C 0.9325 0.15677 0.23718 0.0
C395 C 0.861 0.16067 0.29544 0.0
N396 N 0.93203 0.08279 0.24568 0.0
N397 N 0.87431 0.23275 0.30869 0.0
H398 H 0.80453 0.13751 0.3224 0.0
H399 H 0.80795 0.19067 0.32264 0.0
H400 H 0.89114 0.25953 0.30345 0.0
H401 H 0.85258 0.23508 0.33601 0.0
H402 H 0.96117 0.07948 0.23081 0.0
H403 H 0.91947 0.05523 0.25767 0.0
H404 H 0.97131 0.129 0.18508 0.0
H405 H 0.97775 0.18173 0.1907 0.0
C406 C 0.313 0.8925 0.70054 0.0
C407 C 0.29843 0.92442 0.73065 0.0
C408 C 0.35816 0.91515 0.78295 0.0
C409 C 0.36835 0.87879 0.75752 0.0
N410 N 0.34943 0.8283 0.69754 0.0
N411 N 0.30443 0.963 0.80453 0.0
C412 C 0.34431 0.86624 0.71759 0.0
C413 C 0.32038 0.93521 0.77286 0.0
N414 N 0.29779 0.88792 0.65504 0.0
N415 N 0.38503 0.93123 0.81562 0.0
H416 H 0.27648 0.97782 0.79908 0.0
H417 H 0.31718 0.96858 0.83826 0.0
H418 H 0.41362 0.91818 0.82272 0.0
H419 H 0.38081 0.95972 0.83181 0.0
H420 H 0.31008 0.86731 0.63027 0.0
H421 H 0.27634 0.90799 0.64019 0.0
H422 H 0.32967 0.81654 0.67149 0.0
H423 H 0.37026 0.8067 0.71041 0.0
C424 C 0.56516 0.16704 0.72346 0.0
C425 C 0.57589 0.18756 0.7667 0.0
C426 C 0.6341 0.14121 0.77773 0.0
C427 C 0.62153 0.11856 0.73675 0.0
N428 N 0.56913 0.10391 0.67781 0.0
N429 N 0.61277 0.18594 0.84215 0.0
C430 C 0.5852 0.12962 0.71172 0.0
C431 C 0.60791 0.17204 0.79611 0.0
N432 N 0.53755 0.18408 0.69236 0.0
N433 N 0.67203 0.13525 0.79758 0.0
H434 H 0.59325 0.20745 0.85785 0.0
H435 H 0.63323 0.17268 0.8664 0.0
H436 H 0.69354 0.11471 0.78383 0.0
H437 H 0.68392 0.15406 0.82449 0.0
H438 H 0.53209 0.17246 0.65805 0.0
H439 H 0.52281 0.21188 0.69888 0.0
H440 H 0.54061 0.10868 0.66183 0.0
H441 H 0.5822 0.07562 0.66935 0.0
C442 C 0.38597 0.5803 0.23777 0.0
C443 C 0.38123 0.60917 0.20007 0.0
C444 C 0.31185 0.58339 0.18456 0.0
C445 C 0.31409 0.56043 0.22763 0.0
N446 N 0.35266 0.53576 0.29559 0.0
N447 N 0.33851 0.64083 0.13936 0.0
C448 C 0.35117 0.55818 0.2541 0.0
C449 C 0.34417 0.61091 0.17315 0.0
N450 N 0.42393 0.5736 0.2572 0.0
N451 N 0.27849 0.57947 0.15513 0.0
H452 H 0.36084 0.66232 0.13037 0.0
H453 H 0.31041 0.64662 0.12288 0.0
H454 H 0.25408 0.55994 0.16294 0.0
H455 H 0.27676 0.59248 0.12101 0.0
H456 H 0.43019 0.55038 0.28179 0.0
H457 H 0.45015 0.58886 0.24529 0.0
H458 H 0.37698 0.53698 0.31983 0.0
H459 H 0.3285 0.51711 0.30686 0.0
C460 C 0.8697 0.3396 0.698 0.0
C461 C 0.87957 0.37877 0.71692 0.0
C462 C 0.93612 0.34915 0.76341 0.0
C463 C 0.92597 0.30997 0.74472 0.0
N464 N 0.8925 0.26995 0.68358 0.0
N465 N 0.9287 0.42286 0.7556 0.0
C466 C 0.8958 0.30596 0.70838 0.0
C467 C 0.91497 0.38419 0.74584 0.0
N468 N 0.83414 0.33385 0.67276 0.0
N469 N 0.96418 0.35275 0.79968 0.0
H470 H 0.91447 0.44892 0.74166 0.0
H471 H 0.95631 0.42893 0.77306 0.0
H472 H 0.98114 0.32808 0.81273 0.0
H473 H 0.96891 0.37978 0.81882 0.0
H474 H 0.82318 0.30503 0.66309 0.0
H475 H 0.81374 0.35746 0.66467 0.0
H476 H 0.87352 0.26615 0.65378 0.0
H477 H 0.91222 0.24528 0.68971 0.0
C478 C 0.12322 0.91576 0.25454 0.0
C479 C 0.12794 0.88974 0.21406 0.0
C480 C 0.19743 0.91634 0.20139 0.0
C481 C 0.19506 0.93655 0.24635 0.0
N482 N 0.15651 0.95592 0.31672 0.0
N483 N 0.17117 0.86159 0.15147 0.0
C484 C 0.15804 0.93662 0.27309 0.0
C485 C 0.16521 0.88953 0.1875 0.0
N486 N 0.08522 0.92125 0.27439 0.0
N487 N 0.23078 0.92214 0.1724 0.0
H488 H 0.14908 0.84039 0.14083 0.0
H489 H 0.1994 0.85684 0.13485 0.0
H490 H 0.25531 0.94095 0.18194 0.0
H491 H 0.23241 0.91141 0.13718 0.0
H492 H 0.07902 0.94261 0.30125 0.0
H493 H 0.05892 0.90718 0.26078 0.0
H494 H 0.13224 0.95275 0.34076 0.0
H495 H 0.1806 0.97373 0.32992 0.0
C496 C 0.36363 0.63722 0.76301 0.0
C497 C 0.37284 0.62003 0.71733 0.0
C498 C 0.42147 0.67585 0.70204 0.0
C499 C 0.41497 0.69057 0.74946 0.0
N500 N 0.38838 0.67809 0.82924 0.0
N501 N 0.41787 0.61753 0.64837 0.0
C502 C 0.38869 0.66902 0.78124 0.0
C503 C 0.40394 0.63772 0.68822 0.0
N504 N 0.32968 0.62502 0.78809 0.0
N505 N 0.44255 0.69898 0.66941 0.0
H506 H 0.407 0.5888 0.63801 0.0
H507 H 0.44321 0.62725 0.6286 0.0
H508 H 0.4551 0.72751 0.67757 0.0
H509 H 0.44425 0.69156 0.63301 0.0
H510 H 0.31951 0.63996 0.81901 0.0
H511 H 0.30901 0.60313 0.77565 0.0
H512 H 0.37282 0.6604 0.85454 0.0
H513 H 0.40718 0.70039 0.84456 0.0
C514 C 0.85776 0.41672 0.21585 0.0
C515 C 0.87488 0.38708 0.24747 0.0
C516 C 0.82804 0.41016 0.31079 0.0
C517 C 0.80594 0.43339 0.27643 0.0
N518 N 0.79754 0.45612 0.19438 0.0
N519 N 0.87236 0.3522 0.32446 0.0
C520 C 0.82039 0.43643 0.2285 0.0
C521 C 0.85939 0.38318 0.29507 0.0
N522 N 0.87778 0.42688 0.17437 0.0
N523 N 0.81938 0.41433 0.35865 0.0
H524 H 0.8945 0.33082 0.31477 0.0
H525 H 0.85829 0.34536 0.35712 0.0
H526 H 0.79724 0.43468 0.37153 0.0
H527 H 0.83717 0.4011 0.38566 0.0
H528 H 0.86857 0.45091 0.15218 0.0
H529 H 0.90615 0.41442 0.16498 0.0
H530 H 0.80444 0.45506 0.15782 0.0
H531 H 0.76987 0.47079 0.20194 0.0
C532 C 0.05463 0.8442 0.75535 0.0
C533 C 0.06839 0.80567 0.7381 0.0
C534 C 0.12344 0.83875 0.69277 0.0
C535 C 0.10959 0.87747 0.70963 0.0
N536 N 0.05663 0.9182 0.74662 0.0
N537 N 0.1075 0.76696 0.68044 0.0
C538 C 0.0734 0.88055 0.73772 0.0
C539 C 0.10009 0.80325 0.70345 0.0
N540 N 0.02512 0.846 0.79019 0.0
N541 N 0.16018 0.83536 0.66933 0.0
H542 H 0.0903 0.74058 0.68704 0.0
H543 H 0.12763 0.76406 0.65156 0.0
H544 H 0.17885 0.86031 0.66121 0.0
H545 H 0.17395 0.80734 0.66144 0.0
H546 H 0.01749 0.87277 0.80853 0.0
H547 H 0.00982 0.82014 0.8029 0.0
H548 H 0.02832 0.92239 0.76324 0.0
H549 H 0.06926 0.94524 0.73316 0.0
C550 C 0.62821 0.07957 0.2576 0.0
C551 C 0.6334 0.11129 0.22329 0.0
C552 C 0.70567 0.09207 0.21322 0.0
C553 C 0.70176 0.06444 0.25223 0.0
N554 N 0.66047 0.03232 0.31338 0.0
N555 N 0.678 0.15151 0.17243 0.0
C556 C 0.66327 0.05817 0.27482 0.0
C557 C 0.67222 0.11821 0.20153 0.0
N558 N 0.58963 0.06917 0.27257 0.0
N559 N 0.74157 0.09384 0.18789 0.0
H560 H 0.65477 0.1722 0.16379 0.0
H561 H 0.70665 0.16088 0.16011 0.0
H562 H 0.76725 0.07624 0.19651 0.0
H563 H 0.74485 0.11011 0.15592 0.0
H564 H 0.58335 0.04379 0.294 0.0
H565 H 0.56324 0.0838 0.26003 0.0
H566 H 0.63465 0.0303 0.33528 0.0
H567 H 0.68491 0.01418 0.32502 0.0
C568 C 0.42812 0.82675 0.27636 0.0
C569 C 0.41821 0.80889 0.23126 0.0
C570 C 0.36187 0.8577 0.22138 0.0
C571 C 0.37417 0.87813 0.26405 0.0
N572 N 0.42538 0.88777 0.32586 0.0
N573 N 0.3835 0.81547 0.15478 0.0
C574 C 0.40923 0.86437 0.28975 0.0
C575 C 0.38751 0.82688 0.20186 0.0
N576 N 0.45384 0.80703 0.30753 0.0
N577 N 0.32463 0.86583 0.20082 0.0
H578 H 0.40291 0.79431 0.13826 0.0
H579 H 0.36403 0.83052 0.13084 0.0
H580 H 0.30345 0.88616 0.21562 0.0
H581 H 0.31283 0.84882 0.17226 0.0
H582 H 0.4585 0.81674 0.34281 0.0
H583 H 0.46749 0.77889 0.2999 0.0
H584 H 0.45319 0.88099 0.34256 0.0
H585 H 0.41336 0.9162 0.33563 0.0
C586 C 0.68999 0.39988 0.79931 0.0
C587 C 0.6874 0.42711 0.75982 0.0
C588 C 0.61362 0.41392 0.75337 0.0
C589 C 0.61758 0.38224 0.78797 0.0
N590 N 0.66082 0.34117 0.83976 0.0
N591 N 0.64794 0.45792 0.69588 0.0
C592 C 0.65598 0.37446 0.81041 0.0
C593 C 0.64942 0.43403 0.73623 0.0
N594 N 0.72496 0.39864 0.82645 0.0
N595 N 0.57555 0.42517 0.73749 0.0
H596 H 0.67338 0.47345 0.68234 0.0
H597 H 0.62223 0.46003 0.67379 0.0
H598 H 0.54871 0.4111 0.74946 0.0
H599 H 0.57026 0.45075 0.71598 0.0
H600 H 0.72729 0.38245 0.8586 0.0
H601 H 0.75039 0.41708 0.81927 0.0
H602 H 0.68925 0.33136 0.85245 0.0
H603 H 0.63715 0.32099 0.84822 0.0
C604 C 0.101 0.63395 0.27763 0.0
C605 C 0.13452 0.62026 0.24921 0.0
C606 C 0.11967 0.67383 0.19023 0.0
C607 C 0.09078 0.69146 0.22231 0.0
N608 N 0.0584 0.69151 0.3005 0.0
N609 N 0.18102 0.63287 0.18305 0.0
C610 C 0.08239 0.67232 0.26705 0.0
C611 C 0.14524 0.64159 0.20658 0.0
N612 N 0.08601 0.6098 0.3137 0.0
N613 N 0.12195 0.687 0.14365 0.0
H614 H 0.20202 0.61112 0.19516 0.0
H615 H 0.19201 0.65043 0.15454 0.0
H616 H 0.10251 0.7094 0.12957 0.0
H617 H 0.13986 0.67244 0.11772 0.0
H618 H 0.05917 0.6166 0.33241 0.0
H619 H 0.09783 0.58084 0.32148 0.0
H620 H 0.05503 0.6808 0.33557 0.0
H621 H 0.04496 0.72009 0.29487 0.0
C622 C 0.85612 0.09187 0.80543 0.0
C623 C 0.87491 0.11921 0.77233 0.0
C624 C 0.83177 0.09165 0.7081 0.0
C625 C 0.80796 0.07051 0.74265 0.0
N626 N 0.79498 0.05341 0.82573 0.0
N627 N 0.87458 0.15036 0.69318 0.0
C628 C 0.81961 0.07098 0.79178 0.0
C629 C 0.86145 0.12032 0.72375 0.0
N630 N 0.87373 0.08492 0.84927 0.0
N631 N 0.82633 0.08396 0.6602 0.0
H632 H 0.89423 0.1739 0.70349 0.0
H633 H 0.86223 0.15462 0.65896 0.0
H634 H 0.80588 0.06181 0.64759 0.0
H635 H 0.84537 0.09602 0.63364 0.0
H636 H 0.86336 0.06249 0.87297 0.0
H637 H 0.90128 0.09847 0.85981 0.0
H638 H 0.79975 0.05699 0.86254 0.0
H639 H 0.76798 0.0379 0.8173 0.0
C640 C 0.51371 0.20092 0.01341 0.0
C641 C 0.51618 0.23005 0.0511 0.0
C642 C 0.50786 0.28578 0.99304 0.0
C643 C 0.51167 0.25707 0.95503 0.0
N644 N 0.52302 0.18732 0.92861 0.0
N645 N 0.52082 0.30066 0.07689 0.0
C646 C 0.51547 0.21453 0.96497 0.0
C647 C 0.51428 0.27266 0.04109 0.0
N648 N 0.50869 0.1603 0.02394 0.0
N649 N 0.49705 0.32541 0.98326 0.0
H650 H 0.52603 0.29254 0.11262 0.0
H651 H 0.5246 0.33188 0.07051 0.0
H652 H 0.49119 0.33587 0.94847 0.0
H653 H 0.48981 0.34673 0.00983 0.0
H654 H 0.50247 0.13811 -0.002 0.0
H655 H 0.5067 0.14932 0.0591 0.0
H656 H 0.53103 0.15683 0.93454 0.0
H657 H 0.5246 0.1957 0.89253 0.0
C658 C 0.25777 0.54174 0.4559 0.0
C659 C 0.24573 0.50472 0.4333 0.0
C660 C 0.2659 0.46619 0.50524 0.0
C661 C 0.27309 0.50379 0.52948 0.0
N662 N 0.26619 0.57766 0.53101 0.0
N663 N 0.23339 0.43195 0.43772 0.0
C664 C 0.26645 0.54169 0.5057 0.0
C665 C 0.24859 0.46687 0.4582 0.0
N666 N 0.26242 0.57679 0.42949 0.0
N667 N 0.27669 0.43003 0.52657 0.0
H668 H 0.22043 0.43138 0.40343 0.0
H669 H 0.23063 0.40429 0.45609 0.0
H670 H 0.28964 0.42854 0.56084 0.0
H671 H 0.27606 0.40193 0.50883 0.0
H672 H 0.27523 0.60351 0.44349 0.0
H673 H 0.2578 0.57799 0.39241 0.0
H674 H 0.25717 0.60551 0.51601 0.0
H675 H 0.27052 0.57927 0.5681 0.0
C676 C 0.97113 0.227 0.0419 0.0
C677 C 0.9756 0.26927 0.05287 0.0
C678 C 0.97608 0.28541 0.96696 0.0
C679 C 0.97601 0.24283 0.95619 0.0
N680 N 0.98447 0.17326 0.98418 0.0
N681 N 0.99219 0.33759 0.02587 0.0
C682 C 0.97692 0.21363 0.99391 0.0
C683 C 0.9811 0.2982 0.0154 0.0
N684 N 0.95899 0.19983 0.07649 0.0
N685 N 0.96902 0.31365 0.93163 0.0
H686 H 0.99742 0.34782 0.06088 0.0
H687 H 0.00041 0.35879 -0.00042 0.0
H688 H 0.96303 0.3057 0.89603 0.0
H689 H 0.96476 0.34474 0.93864 0.0
H690 H 0.95152 0.16945 0.06894 0.0
H691 H 0.95183 0.2085 0.11156 0.0
H692 H 0.98921 0.15147 0.01102 0.0
H693 H 0.99058 0.16239 0.94963 0.0
C694 C 0.24372 0.9532 0.47222 0.0
C695 C 0.26068 0.98952 0.45262 0.0
C696 C 0.24018 0.02766 0.52466 0.0
C697 C 0.22758 0.99032 0.54622 0.0
N698 N 0.22614 0.91615 0.54435 0.0
N699 N 0.28022 0.06034 0.4619 0.0
C700 C 0.23169 0.95267 0.52108 0.0
C701 C 0.26026 0.02661 0.47923 0.0
N702 N 0.23749 0.91959 0.44372 0.0
N703 N 0.23173 0.06412 0.54677 0.0
H704 H 0.29533 0.06057 0.42883 0.0
H705 H 0.28471 0.08694 0.48191 0.0
H706 H 0.2166 0.06602 0.57975 0.0
H707 H 0.23641 0.0925 0.53059 0.0
H708 H 0.22114 0.89394 0.45507 0.0
H709 H 0.24476 0.91888 0.40721 0.0
H710 H 0.23328 0.88795 0.52887 0.0
H711 H 0.21855 0.91389 0.58065 0.0
C712 C 0.48687 0.79492 0.9794 0.0
C713 C 0.48399 0.76508 0.94245 0.0
C714 C 0.48927 0.71048 0.00243 0.0
C715 C 0.48518 0.74013 0.03936 0.0
N716 N 0.47569 0.8107 0.06339 0.0
N717 N 0.47768 0.69391 0.91888 0.0
C718 C 0.48321 0.78248 0.0281 0.0
C719 C 0.48436 0.72264 0.95383 0.0
N720 N 0.49421 0.83499 0.96796 0.0
N721 N 0.49883 0.67084 0.0138 0.0
H722 H 0.47372 0.70107 0.88271 0.0
H723 H 0.47262 0.66304 0.92634 0.0
H724 H 0.50351 0.66101 0.04908 0.0
H725 H 0.50628 0.64879 0.98813 0.0
H726 H 0.50058 0.85742 0.99356 0.0
H727 H 0.4982 0.84501 0.93265 0.0
H728 H 0.4691 0.84135 0.05629 0.0
H729 H 0.47268 0.80305 0.09959 0.0
C730 C 0.74969 0.52624 0.53436 0.0
C731 C 0.74445 0.49044 0.5626 0.0
C732 C 0.71401 0.45468 0.49424 0.0
C733 C 0.71677 0.49116 0.4666 0.0
N734 N 0.72835 0.56414 0.46364 0.0
N735 N 0.71035 0.42555 0.57398 0.0
C736 C 0.73189 0.52779 0.48769 0.0
C737 C 0.72295 0.45625 0.54397 0.0
N738 N 0.77322 0.55788 0.55099 0.0
N739 N 0.70568 0.41789 0.47276 0.0
H740 H 0.71522 0.42626 0.61107 0.0
H741 H 0.69116 0.40184 0.56284 0.0
H742 H 0.70127 0.41439 0.43589 0.0
H743 H 0.70763 0.39002 0.4909 0.0
H744 H 0.78181 0.5827 0.52974 0.0
H745 H 0.78693 0.55785 0.58486 0.0
H746 H 0.73529 0.59238 0.47911 0.0
H747 H 0.71461 0.56649 0.42986 0.0
C748 C 0.02291 0.79583 -3e-05 0.0
C749 C 0.02089 0.76715 0.03816 0.0
C750 C 0.01194 0.71139 0.98025 0.0
C751 C 0.01997 0.73923 0.94231 0.0
N752 N 0.03948 0.80713 0.91625 0.0
N753 N 0.02017 0.69659 0.06484 0.0
C754 C 0.02687 0.78136 0.95207 0.0
C755 C 0.01689 0.72461 0.02848 0.0
N756 N 0.02012 0.83686 0.00939 0.0
N757 N 0.99863 0.67258 0.97022 0.0
H758 H 0.02482 0.70464 0.1007 0.0
H759 H 0.02215 0.66513 0.05886 0.0
H760 H 0.99386 0.66204 0.93523 0.0
H761 H 0.98836 0.65234 0.99655 0.0
H762 H 0.01733 0.85896 0.98257 0.0
H763 H 0.01643 0.84853 0.04406 0.0
H764 H 0.04916 0.83709 0.92247 0.0
H765 H 0.04403 0.79759 0.88088 0.0
C766 C 0.75243 0.04546 0.52772 0.0
C767 C 0.74003 0.00875 0.55074 0.0
C768 C 0.76305 0.96893 0.481 0.0
C769 C 0.77104 0.00606 0.45626 0.0
N770 N 0.76374 0.07978 0.45212 0.0
N771 N 0.72771 0.93588 0.54719 0.0
C772 C 0.76311 0.0444 0.47848 0.0
C773 C 0.74384 0.97045 0.52691 0.0
N774 N 0.75568 0.08116 0.55325 0.0
N775 N 0.77494 0.93241 0.46134 0.0
H776 H 0.71297 0.93592 0.58048 0.0
H777 H 0.72578 0.90792 0.52928 0.0
H778 H 0.78928 0.93027 0.42789 0.0
H779 H 0.7738 0.90469 0.47984 0.0
H780 H 0.76887 0.10766 0.53919 0.0
H781 H 0.74937 0.08332 0.58991 0.0
H782 H 0.75388 0.10789 0.46569 0.0
H783 H 0.76976 0.08056 0.41532 0.0
loop_
_geom_bond_atom_site_label_1
_geom_bond_atom_site_label_2
_geom_bond_distance
_geom_bond_site_symmetry_2
_ccdc_geom_bond_type
In0 O1 2.294 . S
In0 O2 2.326 . S
In0 O6 2.266 . S
In0 O7 2.326 . S
In0 O8 2.266 . S
In0 O9 2.326 . S
In0 O11 2.294 . S
In0 O12 2.326 . S
O1 In0 2.294 . S
O1 C10 1.240 . S
O2 In0 2.326 . S
O2 C10 1.252 . S
C3 O6 1.252 . S
C3 O7 1.260 . S
C4 O11 1.240 . S
C4 O12 1.252 . S
C5 O8 1.252 . S
C5 O9 1.260 . S
O6 In0 2.266 . S
O6 C3 1.252 . S
O7 In0 2.326 . S
O7 C3 1.260 . S
O8 In0 2.266 . S
O8 C5 1.252 . S
O9 In0 2.326 . S
O9 C5 1.260 . S
C10 O1 1.240 . S
C10 O2 1.252 . S
O11 In0 2.294 . S
O11 C4 1.240 . S
O12 In0 2.326 . S
O12 C4 1.252 . S
In13 O14 2.294 . S
In13 O15 2.326 . S
In13 O19 2.266 . S
In13 O20 2.326 . S
In13 O21 2.266 . S
In13 O22 2.326 . S
In13 O24 2.294 . S
In13 O25 2.326 . S
O14 In13 2.294 . S
O14 C23 1.240 . S
O15 In13 2.326 . S
O15 C23 1.252 . S
C16 O19 1.252 . S
C16 O20 1.260 . S
C17 O24 1.240 . S
C17 O25 1.252 . S
C18 O21 1.252 . S
C18 O22 1.260 . S
O19 In13 2.266 . S
O19 C16 1.252 . S
O20 In13 2.326 . S
O20 C16 1.260 . S
O21 In13 2.266 . S
O21 C18 1.252 . S
O22 In13 2.326 . S
O22 C18 1.260 . S
C23 O14 1.240 . S
C23 O15 1.252 . S
O24 In13 2.294 . S
O24 C17 1.240 . S
O25 In13 2.326 . S
O25 C17 1.252 . S
In26 O27 2.294 1_655 S
In26 O28 2.326 1_655 S
In26 O32 2.266 . S
In26 O33 2.326 . S
In26 O34 2.266 . S
In26 O35 2.326 1_655 S
In26 O37 2.294 . S
In26 O38 2.326 . S
O27 In26 2.294 1_455 S
O27 C36 1.240 . S
O28 In26 2.326 1_455 S
O28 C36 1.252 . S
C29 O32 1.252 . S
C29 O33 1.260 . S
C30 O37 1.240 . S
C30 O38 1.252 . S
C31 O34 1.252 . S
C31 O35 1.260 1_655 S
O32 In26 2.266 . S
O32 C29 1.252 . S
O33 In26 2.326 . S
O33 C29 1.260 . S
O34 In26 2.266 . S
O34 C31 1.252 . S
O35 In26 2.326 1_455 S
O35 C31 1.260 1_455 S
C36 O27 1.240 . S
C36 O28 1.252 . S
O37 In26 2.294 . S
O37 C30 1.240 . S
O38 In26 2.326 . S
O38 C30 1.252 . S
In39 O40 2.294 1_565 S
In39 O41 2.326 1_565 S
In39 O45 2.266 . S
In39 O46 2.326 . S
In39 O47 2.266 . S
In39 O48 2.326 1_565 S
In39 O50 2.294 . S
In39 O51 2.326 . S
O40 In39 2.294 1_545 S
O40 C49 1.240 . S
O41 In39 2.326 1_545 S
O41 C49 1.252 . S
C42 O45 1.252 . S
C42 O46 1.260 . S
C43 O50 1.240 . S
C43 O51 1.252 . S
C44 O47 1.252 . S
C44 O48 1.260 1_565 S
O45 In39 2.266 . S
O45 C42 1.252 . S
O46 In39 2.326 . S
O46 C42 1.260 . S
O47 In39 2.266 . S
O47 C44 1.252 . S
O48 In39 2.326 1_545 S
O48 C44 1.260 1_545 S
C49 O40 1.240 . S
C49 O41 1.252 . S
O50 In39 2.294 . S
O50 C43 1.240 . S
O51 In39 2.326 . S
O51 C43 1.252 . S
In52 O53 2.294 . S
In52 O54 2.326 . S
In52 O58 2.266 . S
In52 O59 2.326 . S
In52 O60 2.266 . S
In52 O61 2.326 . S
In52 O63 2.294 . S
In52 O64 2.326 . S
O53 In52 2.294 . S
O53 C62 1.240 . S
O54 In52 2.326 . S
O54 C62 1.252 . S
C55 O58 1.252 . S
C55 O59 1.260 . S
C56 O63 1.240 . S
C56 O64 1.252 . S
C57 O60 1.252 . S
C57 O61 1.260 . S
O58 In52 2.266 . S
O58 C55 1.252 . S
O59 In52 2.326 . S
O59 C55 1.260 . S
O60 In52 2.266 . S
O60 C57 1.252 . S
O61 In52 2.326 . S
O61 C57 1.260 . S
C62 O53 1.240 . S
C62 O54 1.252 . S
O63 In52 2.294 . S
O63 C56 1.240 . S
O64 In52 2.326 . S
O64 C56 1.252 . S
In65 O66 2.294 . S
In65 O67 2.326 . S
In65 O71 2.266 . S
In65 O72 2.326 . S
In65 O73 2.266 . S
In65 O74 2.326 . S
In65 O76 2.294 . S
In65 O77 2.326 . S
O66 In65 2.294 . S
O66 C75 1.240 . S
O67 In65 2.326 . S
O67 C75 1.252 . S
C68 O71 1.252 . S
C68 O72 1.260 . S
C69 O76 1.240 . S
C69 O77 1.252 . S
C70 O73 1.252 . S
C70 O74 1.260 . S
O71 In65 2.266 . S
O71 C68 1.252 . S
O72 In65 2.326 . S
O72 C68 1.260 . S
O73 In65 2.266 . S
O73 C70 1.252 . S
O74 In65 2.326 . S
O74 C70 1.260 . S
C75 O66 1.240 . S
C75 O67 1.252 . S
O76 In65 2.294 . S
O76 C69 1.240 . S
O77 In65 2.326 . S
O77 C69 1.252 . S
In78 O79 2.294 . S
In78 O80 2.326 . S
In78 O84 2.266 . S
In78 O85 2.326 1_655 S
In78 O86 2.266 . S
In78 O87 2.326 . S
In78 O89 2.294 1_655 S
In78 O90 2.326 1_655 S
O79 In78 2.294 . S
O79 C88 1.240 . S
O80 In78 2.326 . S
O80 C88 1.252 . S
C81 O84 1.252 . S
C81 O85 1.260 1_655 S
C82 O89 1.240 . S
C82 O90 1.252 . S
C83 O86 1.252 . S
C83 O87 1.260 . S
O84 In78 2.266 . S
O84 C81 1.252 . S
O85 In78 2.326 1_455 S
O85 C81 1.260 1_455 S
O86 In78 2.266 . S
O86 C83 1.252 . S
O87 In78 2.326 . S
O87 C83 1.260 . S
C88 O79 1.240 . S
C88 O80 1.252 . S
O89 In78 2.294 1_455 S
O89 C82 1.240 . S
O90 In78 2.326 1_455 S
O90 C82 1.252 . S
In91 O92 2.294 . S
In91 O93 2.326 . S
In91 O97 2.266 . S
In91 O98 2.326 1_565 S
In91 O99 2.266 . S
In91 O100 2.326 . S
In91 O102 2.294 1_565 S
In91 O103 2.326 1_565 S
O92 In91 2.294 . S
O92 C101 1.240 . S
O93 In91 2.326 . S
O93 C101 1.252 . S
C94 O97 1.252 . S
C94 O98 1.260 1_565 S
C95 O102 1.240 . S
C95 O103 1.252 . S
C96 O99 1.252 . S
C96 O100 1.260 . S
O97 In91 2.266 . S
O97 C94 1.252 . S
O98 In91 2.326 1_545 S
O98 C94 1.260 1_545 S
O99 In91 2.266 . S
O99 C96 1.252 . S
O100 In91 2.326 . S
O100 C96 1.260 . S
C101 O92 1.240 . S
C101 O93 1.252 . S
O102 In91 2.294 1_545 S
O102 C95 1.240 . S
O103 In91 2.326 1_545 S
O103 C95 1.252 . S
In104 O105 2.294 . S
In104 O106 2.326 . S
In104 O110 2.266 . S
In104 O111 2.326 . S
In104 O112 2.266 . S
In104 O113 2.326 . S
In104 O115 2.294 . S
In104 O116 2.326 . S
O105 In104 2.294 . S
O105 C114 1.240 . S
O106 In104 2.326 . S
O106 C114 1.252 . S
C107 O110 1.252 . S
C107 O111 1.260 . S
C108 O115 1.240 . S
C108 O116 1.252 . S
C109 O112 1.252 . S
C109 O113 1.260 . S
O110 In104 2.266 . S
O110 C107 1.252 . S
O111 In104 2.326 . S
O111 C107 1.260 . S
O112 In104 2.266 . S
O112 C109 1.252 . S
O113 In104 2.326 . S
O113 C109 1.260 . S
C114 O105 1.240 . S
C114 O106 1.252 . S
O115 In104 2.294 . S
O115 C108 1.240 . S
O116 In104 2.326 . S
O116 C108 1.252 . S
In117 O118 2.294 . S
In117 O119 2.326 . S
In117 O123 2.266 . S
In117 O124 2.326 . S
In117 O125 2.266 . S
In117 O126 2.326 . S
In117 O128 2.294 . S
In117 O129 2.326 . S
O118 In117 2.294 . S
O118 C127 1.240 . S
O119 In117 2.326 . S
O119 C127 1.252 . S
C120 O123 1.252 . S
C120 O124 1.260 . S
C121 O128 1.240 . S
C121 O129 1.252 . S
C122 O125 1.252 . S
C122 O126 1.260 . S
O123 In117 2.266 . S
O123 C120 1.252 . S
O124 In117 2.326 . S
O124 C120 1.260 . S
O125 In117 2.266 . S
O125 C122 1.252 . S
O126 In117 2.326 . S
O126 C122 1.260 . S
C127 O118 1.240 . S
C127 O119 1.252 . S
O128 In117 2.294 . S
O128 C121 1.240 . S
O129 In117 2.326 . S
O129 C121 1.252 . S
In130 O131 2.294 . S
In130 O132 2.326 . S
In130 O136 2.266 . S
In130 O137 2.326 1_455 S
In130 O138 2.266 . S
In130 O139 2.326 . S
In130 O141 2.294 1_455 S
In130 O142 2.326 1_455 S
O131 In130 2.294 . S
O131 C140 1.240 . S
O132 In130 2.326 . S
O132 C140 1.252 . S
C133 O136 1.252 . S
C133 O137 1.260 1_455 S
C134 O141 1.240 . S
C134 O142 1.252 . S
C135 O138 1.252 . S
C135 O139 1.260 . S
O136 In130 2.266 . S
O136 C133 1.252 . S
O137 In130 2.326 1_655 S
O137 C133 1.260 1_655 S
O138 In130 2.266 . S
O138 C135 1.252 . S
O139 In130 2.326 . S
O139 C135 1.260 . S
C140 O131 1.240 . S
C140 O132 1.252 . S
O141 In130 2.294 1_655 S
O141 C134 1.240 . S
O142 In130 2.326 1_655 S
O142 C134 1.252 . S
In143 O144 2.294 1_545 S
In143 O145 2.326 1_545 S
In143 O149 2.266 . S
In143 O150 2.326 . S
In143 O151 2.266 . S
In143 O152 2.326 1_545 S
In143 O154 2.294 . S
In143 O155 2.326 . S
O144 In143 2.294 1_565 S
O144 C153 1.240 . S
O145 In143 2.326 1_565 S
O145 C153 1.252 . S
C146 O149 1.252 . S
C146 O150 1.260 . S
C147 O154 1.240 . S
C147 O155 1.252 . S
C148 O151 1.252 . S
C148 O152 1.260 1_545 S
O149 In143 2.266 . S
O149 C146 1.252 . S
O150 In143 2.326 . S
O150 C146 1.260 . S
O151 In143 2.266 . S
O151 C148 1.252 . S
O152 In143 2.326 1_565 S
O152 C148 1.260 1_565 S
C153 O144 1.240 . S
C153 O145 1.252 . S
O154 In143 2.294 . S
O154 C147 1.240 . S
O155 In143 2.326 . S
O155 C147 1.252 . S
In156 O157 2.294 . S
In156 O158 2.326 . S
In156 O162 2.266 . S
In156 O163 2.326 . S
In156 O164 2.266 . S
In156 O165 2.326 . S
In156 O167 2.294 . S
In156 O168 2.326 . S
O157 In156 2.294 . S
O157 C166 1.240 . S
O158 In156 2.326 . S
O158 C166 1.252 . S
C159 O162 1.252 . S
C159 O163 1.260 . S
C160 O167 1.240 . S
C160 O168 1.252 . S
C161 O164 1.252 . S
C161 O165 1.260 . S
O162 In156 2.266 . S
O162 C159 1.252 . S
O163 In156 2.326 . S
O163 C159 1.260 . S
O164 In156 2.266 . S
O164 C161 1.252 . S
O165 In156 2.326 . S
O165 C161 1.260 . S
C166 O157 1.240 . S
C166 O158 1.252 . S
O167 In156 2.294 . S
O167 C160 1.240 . S
O168 In156 2.326 . S
O168 C160 1.252 . S
In169 O170 2.294 . S
In169 O171 2.326 . S
In169 O175 2.266 . S
In169 O176 2.326 . S
In169 O177 2.266 . S
In169 O178 2.326 . S
In169 O180 2.294 . S
In169 O181 2.326 . S
O170 In169 2.294 . S
O170 C179 1.240 . S
O171 In169 2.326 . S
O171 C179 1.252 . S
C172 O175 1.252 . S
C172 O176 1.260 . S
C173 O180 1.240 . S
C173 O181 1.252 . S
C174 O177 1.252 . S
C174 O178 1.260 . S
O175 In169 2.266 . S
O175 C172 1.252 . S
O176 In169 2.326 . S
O176 C172 1.260 . S
O177 In169 2.266 . S
O177 C174 1.252 . S
O178 In169 2.326 . S
O178 C174 1.260 . S
C179 O170 1.240 . S
C179 O171 1.252 . S
O180 In169 2.294 . S
O180 C173 1.240 . S
O181 In169 2.326 . S
O181 C173 1.252 . S
In182 O183 2.294 . S
In182 O184 2.326 . S
In182 O188 2.266 . S
In182 O189 2.326 1_455 S
In182 O190 2.266 . S
In182 O191 2.326 . S
In182 O193 2.294 1_455 S
In182 O194 2.326 1_455 S
O183 In182 2.294 . S
O183 C192 1.240 . S
O184 In182 2.326 . S
O184 C192 1.252 . S
C185 O188 1.252 . S
C185 O189 1.260 1_455 S
C186 O193 1.240 . S
C186 O194 1.252 . S
C187 O190 1.252 . S
C187 O191 1.260 . S
O188 In182 2.266 . S
O188 C185 1.252 . S
O189 In182 2.326 1_655 S
O189 C185 1.260 1_655 S
O190 In182 2.266 . S
O190 C187 1.252 . S
O191 In182 2.326 . S
O191 C187 1.260 . S
C192 O183 1.240 . S
C192 O184 1.252 . S
O193 In182 2.294 1_655 S
O193 C186 1.240 . S
O194 In182 2.326 1_655 S
O194 C186 1.252 . S
In195 O196 2.294 1_545 S
In195 O197 2.326 1_545 S
In195 O201 2.266 . S
In195 O202 2.326 . S
In195 O203 2.266 . S
In195 O204 2.326 1_545 S
In195 O206 2.294 . S
In195 O207 2.326 . S
O196 In195 2.294 1_565 S
O196 C205 1.240 . S
O197 In195 2.326 1_565 S
O197 C205 1.252 . S
C198 O201 1.252 . S
C198 O202 1.260 . S
C199 O206 1.240 . S
C199 O207 1.252 . S
C200 O203 1.252 . S
C200 O204 1.260 1_545 S
O201 In195 2.266 . S
O201 C198 1.252 . S
O202 In195 2.326 . S
O202 C198 1.260 . S
O203 In195 2.266 . S
O203 C200 1.252 . S
O204 In195 2.326 1_565 S
O204 C200 1.260 1_565 S
C205 O196 1.240 . S
C205 O197 1.252 . S
O206 In195 2.294 . S
O206 C199 1.240 . S
O207 In195 2.326 . S
O207 C199 1.252 . S
C208 C209 1.363 . S
C208 C214 1.379 . S
C208 N216 1.356 . S
C209 C208 1.363 . S
C209 C215 1.363 . S
C210 C211 1.363 . S
C210 C215 1.379 . S
C210 N217 1.356 . S
C211 C210 1.363 . S
C211 C214 1.363 . S
N212 C214 1.356 . S
N212 H224 0.984 . S
N212 H225 0.985 . S
N213 C215 1.356 . S
N213 H218 0.984 . S
N213 H219 0.985 . S
C214 C208 1.379 . S
C214 C211 1.363 . S
C214 N212 1.356 . S
C215 C209 1.363 . S
C215 C210 1.379 . S
C215 N213 1.356 . S
N216 C208 1.356 . S
N216 H222 0.984 . S
N216 H223 0.984 . S
N217 C210 1.356 . S
N217 H220 0.984 . S
N217 H221 0.985 . S
H218 N213 0.984 . S
H219 N213 0.985 . S
H220 N217 0.984 . S
H221 N217 0.985 . S
H222 N216 0.984 . S
H223 N216 0.984 . S
H224 N212 0.984 . S
H225 N212 0.985 . S
C226 C227 1.363 . S
C226 C232 1.379 . S
C226 N234 1.356 . S
C227 C226 1.363 . S
C227 C233 1.363 . S
C228 C229 1.363 . S
C228 C233 1.379 . S
C228 N235 1.356 . S
C229 C228 1.363 . S
C229 C232 1.363 . S
N230 C232 1.356 . S
N230 H242 0.984 . S
N230 H243 0.985 . S
N231 C233 1.356 . S
N231 H236 0.984 . S
N231 H237 0.985 . S
C232 C226 1.379 . S
C232 C229 1.363 . S
C232 N230 1.356 . S
C233 C227 1.363 . S
C233 C228 1.379 . S
C233 N231 1.356 . S
N234 C226 1.356 . S
N234 H240 0.984 . S
N234 H241 0.984 . S
N235 C228 1.356 . S
N235 H238 0.984 . S
N235 H239 0.985 . S
H236 N231 0.984 . S
H237 N231 0.985 . S
H238 N235 0.984 . S
H239 N235 0.985 . S
H240 N234 0.984 . S
H241 N234 0.984 . S
H242 N230 0.984 . S
H243 N230 0.985 . S
C244 C245 1.363 . S
C244 C250 1.379 . S
C244 N252 1.356 . S
C245 C244 1.363 . S
C245 C251 1.363 . S
C246 C247 1.363 . S
C246 C251 1.379 . S
C246 N253 1.356 . S
C247 C246 1.363 . S
C247 C250 1.363 . S
N248 C250 1.356 . S
N248 H260 0.984 . S
N248 H261 0.985 . S
N249 C251 1.356 . S
N249 H254 0.984 . S
N249 H255 0.985 . S
C250 C244 1.379 . S
C250 C247 1.363 . S
C250 N248 1.356 . S
C251 C245 1.363 . S
C251 C246 1.379 . S
C251 N249 1.356 . S
N252 C244 1.356 . S
N252 H258 0.984 . S
N252 H259 0.984 . S
N253 C246 1.356 . S
N253 H256 0.984 . S
N253 H257 0.985 . S
H254 N249 0.984 . S
H255 N249 0.985 . S
H256 N253 0.984 . S
H257 N253 0.985 . S
H258 N252 0.984 . S
H259 N252 0.984 . S
H260 N248 0.984 . S
H261 N248 0.985 . S
C262 C263 1.363 . S
C262 C268 1.379 . S
C262 N270 1.356 . S
C263 C262 1.363 . S
C263 C269 1.363 . S
C264 C265 1.363 . S
C264 C269 1.379 . S
C264 N271 1.356 . S
C265 C264 1.363 . S
C265 C268 1.363 . S
N266 C268 1.356 . S
N266 H278 0.984 1_455 S
N266 H279 0.985 . S
N267 C269 1.356 . S
N267 H272 0.984 . S
N267 H273 0.985 . S
C268 C262 1.379 . S
C268 C265 1.363 . S
C268 N266 1.356 . S
C269 C263 1.363 . S
C269 C264 1.379 . S
C269 N267 1.356 . S
N270 C262 1.356 . S
N270 H276 0.984 . S
N270 H277 0.984 . S
N271 C264 1.356 . S
N271 H274 0.984 . S
N271 H275 0.985 . S
H272 N267 0.984 . S
H273 N267 0.985 . S
H274 N271 0.984 . S
H275 N271 0.985 . S
H276 N270 0.984 . S
H277 N270 0.984 . S
H278 N266 0.984 1_655 S
H279 N266 0.985 . S
C280 C281 1.363 . S
C280 C286 1.379 . S
C280 N288 1.356 . S
C281 C280 1.363 . S
C281 C287 1.363 . S
C282 C283 1.363 . S
C282 C287 1.379 . S
C282 N289 1.356 . S
C283 C282 1.363 . S
C283 C286 1.363 . S
N284 C286 1.356 . S
N284 H296 0.984 . S
N284 H297 0.985 . S
N285 C287 1.356 . S
N285 H290 0.984 . S
N285 H291 0.985 . S
C286 C280 1.379 . S
C286 C283 1.363 . S
C286 N284 1.356 . S
C287 C281 1.363 . S
C287 C282 1.379 . S
C287 N285 1.356 . S
N288 C280 1.356 . S
N288 H294 0.984 . S
N288 H295 0.984 . S
N289 C282 1.356 . S
N289 H292 0.984 . S
N289 H293 0.985 . S
H290 N285 0.984 . S
H291 N285 0.985 . S
H292 N289 0.984 . S
H293 N289 0.985 . S
H294 N288 0.984 . S
H295 N288 0.984 . S
H296 N284 0.984 . S
H297 N284 0.985 . S
C298 C299 1.363 . S
C298 C304 1.379 . S
C298 N306 1.356 . S
C299 C298 1.363 . S
C299 C305 1.363 . S
C300 C301 1.363 . S
C300 C305 1.379 . S
C300 N307 1.356 . S
C301 C300 1.363 . S
C301 C304 1.363 . S
N302 C304 1.356 . S
N302 H314 0.984 . S
N302 H315 0.985 . S
N303 C305 1.356 . S
N303 H308 0.984 . S
N303 H309 0.985 . S
C304 C298 1.379 . S
C304 C301 1.363 . S
C304 N302 1.356 . S
C305 C299 1.363 . S
C305 C300 1.379 . S
C305 N303 1.356 . S
N306 C298 1.356 . S
N306 H312 0.984 . S
N306 H313 0.984 . S
N307 C300 1.356 . S
N307 H310 0.984 . S
N307 H311 0.985 . S
H308 N303 0.984 . S
H309 N303 0.985 . S
H310 N307 0.984 . S
H311 N307 0.985 . S
H312 N306 0.984 . S
H313 N306 0.984 . S
H314 N302 0.984 . S
H315 N302 0.985 . S
C316 C317 1.363 . S
C316 C322 1.379 . S
C316 N324 1.356 . S
C317 C316 1.363 . S
C317 C323 1.363 . S
C318 C319 1.363 . S
C318 C323 1.379 . S
C318 N325 1.356 . S
C319 C318 1.363 . S
C319 C322 1.363 . S
N320 C322 1.356 . S
N320 H332 0.984 . S
N320 H333 0.985 . S
N321 C323 1.356 . S
N321 H326 0.984 . S
N321 H327 0.985 . S
C322 C316 1.379 . S
C322 C319 1.363 . S
C322 N320 1.356 . S
C323 C317 1.363 . S
C323 C318 1.379 . S
C323 N321 1.356 . S
N324 C316 1.356 . S
N324 H330 0.984 . S
N324 H331 0.984 . S
N325 C318 1.356 . S
N325 H328 0.984 . S
N325 H329 0.985 . S
H326 N321 0.984 . S
H327 N321 0.985 . S
H328 N325 0.984 . S
H329 N325 0.985 . S
H330 N324 0.984 . S
H331 N324 0.984 . S
H332 N320 0.984 . S
H333 N320 0.985 . S
C334 C335 1.363 . S
C334 C340 1.379 . S
C334 N342 1.356 . S
C335 C334 1.363 . S
C335 C341 1.363 . S
C336 C337 1.363 . S
C336 C341 1.379 . S
C336 N343 1.356 . S
C337 C336 1.363 . S
C337 C340 1.363 . S
N338 C340 1.356 . S
N338 H350 0.984 . S
N338 H351 0.985 . S
N339 C341 1.356 . S
N339 H344 0.984 . S
N339 H345 0.985 . S
C340 C334 1.379 . S
C340 C337 1.363 . S
C340 N338 1.356 . S
C341 C335 1.363 . S
C341 C336 1.379 . S
C341 N339 1.356 . S
N342 C334 1.356 . S
N342 H348 0.984 . S
N342 H349 0.984 . S
N343 C336 1.356 . S
N343 H346 0.984 . S
N343 H347 0.985 . S
H344 N339 0.984 . S
H345 N339 0.985 . S
H346 N343 0.984 . S
H347 N343 0.985 . S
H348 N342 0.984 . S
H349 N342 0.984 . S
H350 N338 0.984 . S
H351 N338 0.985 . S
C352 C353 1.363 . S
C352 C358 1.379 . S
C352 N360 1.356 . S
C353 C352 1.363 . S
C353 C359 1.363 . S
C354 C355 1.363 . S
C354 C359 1.379 . S
C354 N361 1.356 . S
C355 C354 1.363 . S
C355 C358 1.363 . S
N356 C358 1.356 . S
N356 H368 0.984 . S
N356 H369 0.985 . S
N357 C359 1.356 . S
N357 H362 0.984 . S
N357 H363 0.985 . S
C358 C352 1.379 . S
C358 C355 1.363 . S
C358 N356 1.356 . S
C359 C353 1.363 . S
C359 C354 1.379 . S
C359 N357 1.356 . S
N360 C352 1.356 . S
N360 H366 0.984 . S
N360 H367 0.984 . S
N361 C354 1.356 . S
N361 H364 0.984 . S
N361 H365 0.985 . S
H362 N357 0.984 . S
H363 N357 0.985 . S
H364 N361 0.984 . S
H365 N361 0.985 . S
H366 N360 0.984 . S
H367 N360 0.984 . S
H368 N356 0.984 . S
H369 N356 0.985 . S
C370 C371 1.363 . S
C370 C376 1.379 . S
C370 N378 1.356 . S
C371 C370 1.363 . S
C371 C377 1.363 . S
C372 C373 1.363 . S
C372 C377 1.379 . S
C372 N379 1.356 . S
C373 C372 1.363 . S
C373 C376 1.363 . S
N374 C376 1.356 . S
N374 H386 0.984 . S
N374 H387 0.985 . S
N375 C377 1.356 . S
N375 H380 0.984 . S
N375 H381 0.985 . S
C376 C370 1.379 . S
C376 C373 1.363 . S
C376 N374 1.356 . S
C377 C371 1.363 . S
C377 C372 1.379 . S
C377 N375 1.356 . S
N378 C370 1.356 . S
N378 H384 0.984 . S
N378 H385 0.984 . S
N379 C372 1.356 . S
N379 H382 0.984 . S
N379 H383 0.985 . S
H380 N375 0.984 . S
H381 N375 0.985 . S
H382 N379 0.984 . S
H383 N379 0.985 . S
H384 N378 0.984 . S
H385 N378 0.984 . S
H386 N374 0.984 . S
H387 N374 0.985 . S
C388 C389 1.363 . S
C388 C394 1.379 . S
C388 N396 1.356 . S
C389 C388 1.363 . S
C389 C395 1.363 . S
C390 C391 1.363 . S
C390 C395 1.379 . S
C390 N397 1.356 . S
C391 C390 1.363 . S
C391 C394 1.363 . S
N392 C394 1.356 . S
N392 H404 0.984 . S
N392 H405 0.985 . S
N393 C395 1.356 . S
N393 H398 0.984 . S
N393 H399 0.985 . S
C394 C388 1.379 . S
C394 C391 1.363 . S
C394 N392 1.356 . S
C395 C389 1.363 . S
C395 C390 1.379 . S
C395 N393 1.356 . S
N396 C388 1.356 . S
N396 H402 0.984 . S
N396 H403 0.984 . S
N397 C390 1.356 . S
N397 H400 0.984 . S
N397 H401 0.985 . S
H398 N393 0.984 . S
H399 N393 0.985 . S
H400 N397 0.984 . S
H401 N397 0.985 . S
H402 N396 0.984 . S
H403 N396 0.984 . S
H404 N392 0.984 . S
H405 N392 0.985 . S
C406 C407 1.363 . S
C406 C412 1.379 . S
C406 N414 1.356 . S
C407 C406 1.363 . S
C407 C413 1.363 . S
C408 C409 1.363 . S
C408 C413 1.379 . S
C408 N415 1.356 . S
C409 C408 1.363 . S
C409 C412 1.363 . S
N410 C412 1.356 . S
N410 H422 0.984 . S
N410 H423 0.985 . S
N411 C413 1.356 . S
N411 H416 0.984 . S
N411 H417 0.985 1_565 S
C412 C406 1.379 . S
C412 C409 1.363 . S
C412 N410 1.356 . S
C413 C407 1.363 . S
C413 C408 1.379 . S
C413 N411 1.356 . S
N414 C406 1.356 . S
N414 H420 0.984 . S
N414 H421 0.984 . S
N415 C408 1.356 . S
N415 H418 0.984 . S
N415 H419 0.985 . S
H416 N411 0.984 . S
H417 N411 0.985 1_545 S
H418 N415 0.984 . S
H419 N415 0.985 . S
H420 N414 0.984 . S
H421 N414 0.984 . S
H422 N410 0.984 . S
H423 N410 0.985 . S
C424 C425 1.363 . S
C424 C430 1.379 . S
C424 N432 1.356 . S
C425 C424 1.363 . S
C425 C431 1.363 . S
C426 C427 1.363 . S
C426 C431 1.379 . S
C426 N433 1.356 . S
C427 C426 1.363 . S
C427 C430 1.363 . S
N428 C430 1.356 . S
N428 H440 0.984 . S
N428 H441 0.985 . S
N429 C431 1.356 . S
N429 H434 0.984 . S
N429 H435 0.985 . S
C430 C424 1.379 . S
C430 C427 1.363 . S
C430 N428 1.356 . S
C431 C425 1.363 . S
C431 C426 1.379 . S
C431 N429 1.356 . S
N432 C424 1.356 . S
N432 H438 0.984 . S
N432 H439 0.984 . S
N433 C426 1.356 . S
N433 H436 0.984 . S
N433 H437 0.985 . S
H434 N429 0.984 . S
H435 N429 0.985 . S
H436 N433 0.984 . S
H437 N433 0.985 . S
H438 N432 0.984 . S
H439 N432 0.984 . S
H440 N428 0.984 . S
H441 N428 0.985 . S
C442 C443 1.363 . S
C442 C448 1.379 . S
C442 N450 1.356 . S
C443 C442 1.363 . S
C443 C449 1.363 . S
C444 C445 1.363 . S
C444 C449 1.379 . S
C444 N451 1.356 . S
C445 C444 1.363 . S
C445 C448 1.363 . S
N446 C448 1.356 . S
N446 H458 0.984 . S
N446 H459 0.985 . S
N447 C449 1.356 . S
N447 H452 0.984 . S
N447 H453 0.985 . S
C448 C442 1.379 . S
C448 C445 1.363 . S
C448 N446 1.356 . S
C449 C443 1.363 . S
C449 C444 1.379 . S
C449 N447 1.356 . S
N450 C442 1.356 . S
N450 H456 0.984 . S
N450 H457 0.984 . S
N451 C444 1.356 . S
N451 H454 0.984 . S
N451 H455 0.985 . S
H452 N447 0.984 . S
H453 N447 0.985 . S
H454 N451 0.984 . S
H455 N451 0.985 . S
H456 N450 0.984 . S
H457 N450 0.984 . S
H458 N446 0.984 . S
H459 N446 0.985 . S
C460 C461 1.363 . S
C460 C466 1.379 . S
C460 N468 1.356 . S
C461 C460 1.363 . S
C461 C467 1.363 . S
C462 C463 1.363 . S
C462 C467 1.379 . S
C462 N469 1.356 . S
C463 C462 1.363 . S
C463 C466 1.363 . S
N464 C466 1.356 . S
N464 H476 0.984 . S
N464 H477 0.985 . S
N465 C467 1.356 . S
N465 H470 0.984 . S
N465 H471 0.985 . S
C466 C460 1.379 . S
C466 C463 1.363 . S
C466 N464 1.356 . S
C467 C461 1.363 . S
C467 C462 1.379 . S
C467 N465 1.356 . S
N468 C460 1.356 . S
N468 H474 0.984 . S
N468 H475 0.984 . S
N469 C462 1.356 . S
N469 H472 0.984 . S
N469 H473 0.985 . S
H470 N465 0.984 . S
H471 N465 0.985 . S
H472 N469 0.984 . S
H473 N469 0.985 . S
H474 N468 0.984 . S
H475 N468 0.984 . S
H476 N464 0.984 . S
H477 N464 0.985 . S
C478 C479 1.363 . S
C478 C484 1.379 . S
C478 N486 1.356 . S
C479 C478 1.363 . S
C479 C485 1.363 . S
C480 C481 1.363 . S
C480 C485 1.379 . S
C480 N487 1.356 . S
C481 C480 1.363 . S
C481 C484 1.363 . S
N482 C484 1.356 . S
N482 H494 0.984 . S
N482 H495 0.985 . S
N483 C485 1.356 . S
N483 H488 0.984 . S
N483 H489 0.985 . S
C484 C478 1.379 . S
C484 C481 1.363 . S
C484 N482 1.356 . S
C485 C479 1.363 . S
C485 C480 1.379 . S
C485 N483 1.356 . S
N486 C478 1.356 . S
N486 H492 0.984 . S
N486 H493 0.984 . S
N487 C480 1.356 . S
N487 H490 0.984 . S
N487 H491 0.985 . S
H488 N483 0.984 . S
H489 N483 0.985 . S
H490 N487 0.984 . S
H491 N487 0.985 . S
H492 N486 0.984 . S
H493 N486 0.984 . S
H494 N482 0.984 . S
H495 N482 0.985 . S
C496 C497 1.363 . S
C496 C502 1.379 . S
C496 N504 1.356 . S
C497 C496 1.363 . S
C497 C503 1.363 . S
C498 C499 1.363 . S
C498 C503 1.379 . S
C498 N505 1.356 . S
C499 C498 1.363 . S
C499 C502 1.363 . S
N500 C502 1.356 . S
N500 H512 0.984 . S
N500 H513 0.985 . S
N501 C503 1.356 . S
N501 H506 0.984 . S
N501 H507 0.985 . S
C502 C496 1.379 . S
C502 C499 1.363 . S
C502 N500 1.356 . S
C503 C497 1.363 . S
C503 C498 1.379 . S
C503 N501 1.356 . S
N504 C496 1.356 . S
N504 H510 0.984 . S
N504 H511 0.984 . S
N505 C498 1.356 . S
N505 H508 0.984 . S
N505 H509 0.985 . S
H506 N501 0.984 . S
H507 N501 0.985 . S
H508 N505 0.984 . S
H509 N505 0.985 . S
H510 N504 0.984 . S
H511 N504 0.984 . S
H512 N500 0.984 . S
H513 N500 0.985 . S
C514 C515 1.363 . S
C514 C520 1.379 . S
C514 N522 1.356 . S
C515 C514 1.363 . S
C515 C521 1.363 . S
C516 C517 1.363 . S
C516 C521 1.379 . S
C516 N523 1.356 . S
C517 C516 1.363 . S
C517 C520 1.363 . S
N518 C520 1.356 . S
N518 H530 0.984 . S
N518 H531 0.985 . S
N519 C521 1.356 . S
N519 H524 0.984 . S
N519 H525 0.985 . S
C520 C514 1.379 . S
C520 C517 1.363 . S
C520 N518 1.356 . S
C521 C515 1.363 . S
C521 C516 1.379 . S
C521 N519 1.356 . S
N522 C514 1.356 . S
N522 H528 0.984 . S
N522 H529 0.984 . S
N523 C516 1.356 . S
N523 H526 0.984 . S
N523 H527 0.985 . S
H524 N519 0.984 . S
H525 N519 0.985 . S
H526 N523 0.984 . S
H527 N523 0.985 . S
H528 N522 0.984 . S
H529 N522 0.984 . S
H530 N518 0.984 . S
H531 N518 0.985 . S
C532 C533 1.363 . S
C532 C538 1.379 . S
C532 N540 1.356 . S
C533 C532 1.363 . S
C533 C539 1.363 . S
C534 C535 1.363 . S
C534 C539 1.379 . S
C534 N541 1.356 . S
C535 C534 1.363 . S
C535 C538 1.363 . S
N536 C538 1.356 . S
N536 H548 0.984 . S
N536 H549 0.985 . S
N537 C539 1.356 . S
N537 H542 0.984 . S
N537 H543 0.985 . S
C538 C532 1.379 . S
C538 C535 1.363 . S
C538 N536 1.356 . S
C539 C533 1.363 . S
C539 C534 1.379 . S
C539 N537 1.356 . S
N540 C532 1.356 . S
N540 H546 0.984 1_455 S
N540 H547 0.984 . S
N541 C534 1.356 . S
N541 H544 0.984 . S
N541 H545 0.985 . S
H542 N537 0.984 . S
H543 N537 0.985 . S
H544 N541 0.984 . S
H545 N541 0.985 . S
H546 N540 0.984 1_655 S
H547 N540 0.984 . S
H548 N536 0.984 . S
H549 N536 0.985 . S
C550 C551 1.363 . S
C550 C556 1.379 . S
C550 N558 1.356 . S
C551 C550 1.363 . S
C551 C557 1.363 . S
C552 C553 1.363 . S
C552 C557 1.379 . S
C552 N559 1.356 . S
C553 C552 1.363 . S
C553 C556 1.363 . S
N554 C556 1.356 . S
N554 H566 0.984 . S
N554 H567 0.985 . S
N555 C557 1.356 . S
N555 H560 0.984 . S
N555 H561 0.985 . S
C556 C550 1.379 . S
C556 C553 1.363 . S
C556 N554 1.356 . S
C557 C551 1.363 . S
C557 C552 1.379 . S
C557 N555 1.356 . S
N558 C550 1.356 . S
N558 H564 0.984 . S
N558 H565 0.984 . S
N559 C552 1.356 . S
N559 H562 0.984 . S
N559 H563 0.985 . S
H560 N555 0.984 . S
H561 N555 0.985 . S
H562 N559 0.984 . S
H563 N559 0.985 . S
H564 N558 0.984 . S
H565 N558 0.984 . S
H566 N554 0.984 . S
H567 N554 0.985 . S
C568 C569 1.363 . S
C568 C574 1.379 . S
C568 N576 1.356 . S
C569 C568 1.363 . S
C569 C575 1.363 . S
C570 C571 1.363 . S
C570 C575 1.379 . S
C570 N577 1.356 . S
C571 C570 1.363 . S
C571 C574 1.363 . S
N572 C574 1.356 . S
N572 H584 0.984 . S
N572 H585 0.985 . S
N573 C575 1.356 . S
N573 H578 0.984 . S
N573 H579 0.985 . S
C574 C568 1.379 . S
C574 C571 1.363 . S
C574 N572 1.356 . S
C575 C569 1.363 . S
C575 C570 1.379 . S
C575 N573 1.356 . S
N576 C568 1.356 . S
N576 H582 0.984 . S
N576 H583 0.984 . S
N577 C570 1.356 . S
N577 H580 0.984 . S
N577 H581 0.985 . S
H578 N573 0.984 . S
H579 N573 0.985 . S
H580 N577 0.984 . S
H581 N577 0.985 . S
H582 N576 0.984 . S
H583 N576 0.984 . S
H584 N572 0.984 . S
H585 N572 0.985 . S
C586 C587 1.363 . S
C586 C592 1.379 . S
C586 N594 1.356 . S
C587 C586 1.363 . S
C587 C593 1.363 . S
C588 C589 1.363 . S
C588 C593 1.379 . S
C588 N595 1.356 . S
C589 C588 1.363 . S
C589 C592 1.363 . S
N590 C592 1.356 . S
N590 H602 0.984 . S
N590 H603 0.985 . S
N591 C593 1.356 . S
N591 H596 0.984 . S
N591 H597 0.985 . S
C592 C586 1.379 . S
C592 C589 1.363 . S
C592 N590 1.356 . S
C593 C587 1.363 . S
C593 C588 1.379 . S
C593 N591 1.356 . S
N594 C586 1.356 . S
N594 H600 0.984 . S
N594 H601 0.984 . S
N595 C588 1.356 . S
N595 H598 0.984 . S
N595 H599 0.985 . S
H596 N591 0.984 . S
H597 N591 0.985 . S
H598 N595 0.984 . S
H599 N595 0.985 . S
H600 N594 0.984 . S
H601 N594 0.984 . S
H602 N590 0.984 . S
H603 N590 0.985 . S
C604 C605 1.363 . S
C604 C610 1.379 . S
C604 N612 1.356 . S
C605 C604 1.363 . S
C605 C611 1.363 . S
C606 C607 1.363 . S
C606 C611 1.379 . S
C606 N613 1.356 . S
C607 C606 1.363 . S
C607 C610 1.363 . S
N608 C610 1.356 . S
N608 H620 0.984 . S
N608 H621 0.985 . S
N609 C611 1.356 . S
N609 H614 0.984 . S
N609 H615 0.985 . S
C610 C604 1.379 . S
C610 C607 1.363 . S
C610 N608 1.356 . S
C611 C605 1.363 . S
C611 C606 1.379 . S
C611 N609 1.356 . S
N612 C604 1.356 . S
N612 H618 0.984 . S
N612 H619 0.984 . S
N613 C606 1.356 . S
N613 H616 0.984 . S
N613 H617 0.985 . S
H614 N609 0.984 . S
H615 N609 0.985 . S
H616 N613 0.984 . S
H617 N613 0.985 . S
H618 N612 0.984 . S
H619 N612 0.984 . S
H620 N608 0.984 . S
H621 N608 0.985 . S
C622 C623 1.363 . S
C622 C628 1.379 . S
C622 N630 1.356 . S
C623 C622 1.363 . S
C623 C629 1.363 . S
C624 C625 1.363 . S
C624 C629 1.379 . S
C624 N631 1.356 . S
C625 C624 1.363 . S
C625 C628 1.363 . S
N626 C628 1.356 . S
N626 H638 0.984 . S
N626 H639 0.985 . S
N627 C629 1.356 . S
N627 H632 0.984 . S
N627 H633 0.985 . S
C628 C622 1.379 . S
C628 C625 1.363 . S
C628 N626 1.356 . S
C629 C623 1.363 . S
C629 C624 1.379 . S
C629 N627 1.356 . S
N630 C622 1.356 . S
N630 H636 0.984 . S
N630 H637 0.984 . S
N631 C624 1.356 . S
N631 H634 0.984 . S
N631 H635 0.985 . S
H632 N627 0.984 . S
H633 N627 0.985 . S
H634 N631 0.984 . S
H635 N631 0.985 . S
H636 N630 0.984 . S
H637 N630 0.984 . S
H638 N626 0.984 . S
H639 N626 0.985 . S
C640 C641 1.363 . S
C640 C646 1.379 1_554 S
C640 N648 1.356 . S
C641 C640 1.363 . S
C641 C647 1.363 . S
C642 C643 1.363 . S
C642 C647 1.379 1_556 S
C642 N649 1.356 . S
C643 C642 1.363 . S
C643 C646 1.363 . S
N644 C646 1.356 . S
N644 H656 0.984 . S
N644 H657 0.985 . S
N645 C647 1.356 . S
N645 H650 0.984 . S
N645 H651 0.985 . S
C646 C640 1.379 1_556 S
C646 C643 1.363 . S
C646 N644 1.356 . S
C647 C641 1.363 . S
C647 C642 1.379 1_554 S
C647 N645 1.356 . S
N648 C640 1.356 . S
N648 H654 0.984 . S
N648 H655 0.984 . S
N649 C642 1.356 . S
N649 H652 0.984 . S
N649 H653 0.985 . S
H650 N645 0.984 . S
H651 N645 0.985 . S
H652 N649 0.984 . S
H653 N649 0.985 . S
H654 N648 0.984 . S
H655 N648 0.984 . S
H656 N644 0.984 . S
H657 N644 0.985 . S
C658 C659 1.363 . S
C658 C664 1.379 . S
C658 N666 1.356 . S
C659 C658 1.363 . S
C659 C665 1.363 . S
C660 C661 1.363 . S
C660 C665 1.379 . S
C660 N667 1.356 . S
C661 C660 1.363 . S
C661 C664 1.363 . S
N662 C664 1.356 . S
N662 H674 0.984 . S
N662 H675 0.985 . S
N663 C665 1.356 . S
N663 H668 0.984 . S
N663 H669 0.985 . S
C664 C658 1.379 . S
C664 C661 1.363 . S
C664 N662 1.356 . S
C665 C659 1.363 . S
C665 C660 1.379 . S
C665 N663 1.356 . S
N666 C658 1.356 . S
N666 H672 0.984 . S
N666 H673 0.984 . S
N667 C660 1.356 . S
N667 H670 0.984 . S
N667 H671 0.985 . S
H668 N663 0.984 . S
H669 N663 0.985 . S
H670 N667 0.984 . S
H671 N667 0.985 . S
H672 N666 0.984 . S
H673 N666 0.984 . S
H674 N662 0.984 . S
H675 N662 0.985 . S
C676 C677 1.378 . S
C676 C682 1.379 1_554 S
C676 N684 1.356 . S
C677 C676 1.378 . S
C677 C683 1.348 1_655 S
C678 C679 1.348 1_455 S
C678 C683 1.379 1_556 S
C678 N685 1.356 . S
C679 C678 1.348 1_655 S
C679 C682 1.378 . S
N680 C682 1.356 . S
N680 H692 0.984 . S
N680 H693 0.985 . S
N681 C683 1.356 . S
N681 H686 0.984 . S
N681 H687 0.985 . S
C682 C676 1.379 1_556 S
C682 C679 1.378 . S
C682 N680 1.356 . S
C683 C677 1.348 1_455 S
C683 C678 1.379 1_554 S
C683 N681 1.356 . S
N684 C676 1.356 . S
N684 H690 0.984 . S
N684 H691 0.984 . S
N685 C678 1.356 . S
N685 H688 0.984 . S
N685 H689 0.985 . S
H686 N681 0.984 . S
H687 N681 0.985 . S
H688 N685 0.984 . S
H689 N685 0.985 . S
H690 N684 0.984 . S
H691 N684 0.984 . S
H692 N680 0.984 . S
H693 N680 0.985 . S
C694 C695 1.379 . S
C694 C700 1.379 . S
C694 N702 1.356 . S
C695 C694 1.379 . S
C695 C701 1.347 1_565 S
C696 C697 1.347 1_545 S
C696 C701 1.379 . S
C696 N703 1.356 . S
C697 C696 1.347 1_565 S
C697 C700 1.379 . S
N698 C700 1.356 . S
N698 H710 0.984 . S
N698 H711 0.985 . S
N699 C701 1.356 . S
N699 H704 0.984 . S
N699 H705 0.985 . S
C700 C694 1.379 . S
C700 C697 1.379 . S
C700 N698 1.356 . S
C701 C695 1.347 1_545 S
C701 C696 1.379 . S
C701 N699 1.356 . S
N702 C694 1.356 . S
N702 H708 0.984 . S
N702 H709 0.984 . S
N703 C696 1.356 . S
N703 H706 0.984 . S
N703 H707 0.985 . S
H704 N699 0.984 . S
H705 N699 0.985 . S
H706 N703 0.984 . S
H707 N703 0.985 . S
H708 N702 0.984 . S
H709 N702 0.984 . S
H710 N698 0.984 . S
H711 N698 0.985 . S
C712 C713 1.363 . S
C712 C718 1.379 1_556 S
C712 N720 1.356 . S
C713 C712 1.363 . S
C713 C719 1.363 . S
C714 C715 1.363 . S
C714 C719 1.379 1_554 S
C714 N721 1.356 . S
C715 C714 1.363 . S
C715 C718 1.363 . S
N716 C718 1.356 . S
N716 H728 0.984 . S
N716 H729 0.985 . S
N717 C719 1.356 . S
N717 H722 0.984 . S
N717 H723 0.985 . S
C718 C712 1.379 1_554 S
C718 C715 1.363 . S
C718 N716 1.356 . S
C719 C713 1.363 . S
C719 C714 1.379 1_556 S
C719 N717 1.356 . S
N720 C712 1.356 . S
N720 H726 0.984 . S
N720 H727 0.984 . S
N721 C714 1.356 . S
N721 H724 0.984 . S
N721 H725 0.985 . S
H722 N717 0.984 . S
H723 N717 0.985 . S
H724 N721 0.984 . S
H725 N721 0.985 . S
H726 N720 0.984 . S
H727 N720 0.984 . S
H728 N716 0.984 . S
H729 N716 0.985 . S
C730 C731 1.363 . S
C730 C736 1.379 . S
C730 N738 1.356 . S
C731 C730 1.363 . S
C731 C737 1.363 . S
C732 C733 1.363 . S
C732 C737 1.379 . S
C732 N739 1.356 . S
C733 C732 1.363 . S
C733 C736 1.363 . S
N734 C736 1.356 . S
N734 H746 0.984 . S
N734 H747 0.985 . S
N735 C737 1.356 . S
N735 H740 0.984 . S
N735 H741 0.985 . S
C736 C730 1.379 . S
C736 C733 1.363 . S
C736 N734 1.356 . S
C737 C731 1.363 . S
C737 C732 1.379 . S
C737 N735 1.356 . S
N738 C730 1.356 . S
N738 H744 0.984 . S
N738 H745 0.984 . S
N739 C732 1.356 . S
N739 H742 0.984 . S
N739 H743 0.985 . S
H740 N735 0.984 . S
H741 N735 0.985 . S
H742 N739 0.984 . S
H743 N739 0.985 . S
H744 N738 0.984 . S
H745 N738 0.984 . S
H746 N734 0.984 . S
H747 N734 0.985 . S
C748 C749 1.348 1_655 S
C748 C754 1.379 1_554 S
C748 N756 1.356 . S
C749 C748 1.348 1_455 S
C749 C755 1.378 . S
C750 C751 1.378 . S
C750 C755 1.379 1_556 S
C750 N757 1.356 . S
C751 C750 1.378 . S
C751 C754 1.348 1_455 S
N752 C754 1.356 . S
N752 H764 0.984 . S
N752 H765 0.985 . S
N753 C755 1.356 . S
N753 H758 0.984 . S
N753 H759 0.985 . S
C754 C748 1.379 1_556 S
C754 C751 1.348 1_655 S
C754 N752 1.356 . S
C755 C749 1.378 . S
C755 C750 1.379 1_554 S
C755 N753 1.356 . S
N756 C748 1.356 . S
N756 H762 0.984 . S
N756 H763 0.984 . S
N757 C750 1.356 . S
N757 H760 0.984 . S
N757 H761 0.985 . S
H758 N753 0.984 . S
H759 N753 0.985 . S
H760 N757 0.984 . S
H761 N757 0.985 . S
H762 N756 0.984 . S
H763 N756 0.984 . S
H764 N752 0.984 . S
H765 N752 0.985 . S
C766 C767 1.379 . S
C766 C772 1.379 . S
C766 N774 1.356 . S
C767 C766 1.379 . S
C767 C773 1.347 1_545 S
C768 C769 1.347 1_565 S
C768 C773 1.379 . S
C768 N775 1.356 . S
C769 C768 1.347 1_545 S
C769 C772 1.379 . S
N770 C772 1.356 . S
N770 H782 0.984 . S
N770 H783 0.985 . S
N771 C773 1.356 . S
N771 H776 0.984 . S
N771 H777 0.985 . S
C772 C766 1.379 . S
C772 C769 1.379 . S
C772 N770 1.356 . S
C773 C767 1.347 1_565 S
C773 C768 1.379 . S
C773 N771 1.356 . S
N774 C766 1.356 . S
N774 H780 0.984 . S
N774 H781 0.984 . S
N775 C768 1.356 . S
N775 H778 0.984 . S
N775 H779 0.985 . S
H776 N771 0.984 . S
H777 N771 0.985 . S
H778 N775 0.984 . S
H779 N775 0.985 . S
H780 N774 0.984 . S
H781 N774 0.984 . S
H782 N770 0.984 . S
H783 N770 0.985 . S
C209 C4 1.325 . S
C211 C95 1.325 . S
C227 C23 1.325 . S
C229 C56 1.325 . S
C245 C36 1.325 . S
C247 C75 1.325 . S
C263 C49 1.325 . S
C265 C82 1.325 . S
C281 C114 1.325 . S
C283 C205 1.325 . S
C299 C160 1.325 . S
C301 C121 1.325 . S
C317 C134 1.325 . S
C319 C179 1.325 . S
C335 C153 1.325 . S
C337 C186 1.325 . S
C353 C5 1.596 . S
C355 C127 1.606 . S
C371 C16 1.595 . S
C373 C140 1.606 . S
C389 C147 1.606 . S
C391 C29 1.596 . S
C407 C42 1.596 . S
C409 C108 1.606 . S
C425 C57 1.595 . S
C427 C199 1.606 . S
C443 C166 1.606 . S
C445 C68 1.596 . S
C461 C173 1.606 . S
C463 C83 1.596 . S
C479 C192 1.606 . S
C481 C96 1.596 . S
C497 C17 1.606 . S
C499 C107 1.596 . S
C515 C30 1.606 . S
C517 C122 1.595 . S
C533 C135 1.596 . S
C535 C43 1.606 . S
C551 C10 1.606 . S
C553 C146 1.596 . S
C569 C161 1.595 . S
C571 C101 1.606 . S
C587 C172 1.596 . S
C589 C62 1.606 . S
C605 C69 1.606 . S
C607 C187 1.596 . S
C623 C88 1.606 . S
C625 C198 1.596 . S
C641 C3 1.624 . S
C643 C55 1.624 . S
C659 C70 1.624 . S
C661 C18 1.624 . S
C677 C31 1.626 . S
C679 C81 1.626 . S
C695 C94 1.626 . S
C697 C44 1.626 . S
C713 C109 1.624 . S
C715 C159 1.624 . S
C731 C174 1.624 . S
C733 C120 1.624 . S
C749 C185 1.626 . S
C751 C133 1.626 . S
C767 C200 1.626 . S
C769 C148 1.626 . S
