# Generated by pormake.
# Topology wje, (4)-cn, num edge types: 1
# Building blocks:
#     Node 0, Type 0, BuildingBlock: CEKHIL_clean_sbu_0, # of connection points: 4
#     Node 1, Type 0, BuildingBlock: CEKHIL_clean_sbu_0, # of connection points: 4
#     Node 2, Type 0, BuildingBlock: CEKHIL_clean_sbu_0, # of connection points: 4
#     Node 3, Type 0, BuildingBlock: CEKHIL_clean_sbu_0, # of connection points: 4
#     Node 4, Type 0, BuildingBlock: CEKHIL_clean_sbu_0, # of connection points: 4
#     Node 5, Type 0, BuildingBlock: CEKHIL_clean_sbu_0, # of connection points: 4
#     Node 6, Type 0, BuildingBlock: CEKHIL_clean_sbu_0, # of connection points: 4
#     Node 7, Type 0, BuildingBlock: CEKHIL_clean_sbu_0, # of connection points: 4
#     Node 8, Type 0, BuildingBlock: CEKHIL_clean_sbu_0, # of connection points: 4
#     Node 9, Type 0, BuildingBlock: CEKHIL_clean_sbu_0, # of connection points: 4
#     Node 10, Type 0, BuildingBlock: CEKHIL_clean_sbu_0, # of connection points: 4
#     Node 11, Type 0, BuildingBlock: CEKHIL_clean_sbu_0, # of connection points: 4
#     Edge 12, Type (0, 0), BuildingBlock: CIFDUS_clean_linker_0, # of connection points: 2
#     Edge 13, Type (0, 0), BuildingBlock: CIFDUS_clean_linker_0, # of connection points: 2
#     Edge 14, Type (0, 0), BuildingBlock: CIFDUS_clean_linker_0, # of connection points: 2
#     Edge 15, Type (0, 0), BuildingBlock: CIFDUS_clean_linker_0, # of connection points: 2
#     Edge 16, Type (0, 0), BuildingBlock: CIFDUS_clean_linker_0, # of connection points: 2
#     Edge 17, Type (0, 0), BuildingBlock: CIFDUS_clean_linker_0, # of connection points: 2
#     Edge 18, Type (0, 0), BuildingBlock: CIFDUS_clean_linker_0, # of connection points: 2
#     Edge 19, Type (0, 0), BuildingBlock: CIFDUS_clean_linker_0, # of connection points: 2
#     Edge 20, Type (0, 0), BuildingBlock: CIFDUS_clean_linker_0, # of connection points: 2
#     Edge 21, Type (0, 0), BuildingBlock: CIFDUS_clean_linker_0, # of connection points: 2
#     Edge 22, Type (0, 0), BuildingBlock: CIFDUS_clean_linker_0, # of connection points: 2
#     Edge 23, Type (0, 0), BuildingBlock: CIFDUS_clean_linker_0, # of connection points: 2
#     Edge 24, Type (0, 0), BuildingBlock: CIFDUS_clean_linker_0, # of connection points: 2
#     Edge 25, Type (0, 0), BuildingBlock: CIFDUS_clean_linker_0, # of connection points: 2
#     Edge 26, Type (0, 0), BuildingBlock: CIFDUS_clean_linker_0, # of connection points: 2
#     Edge 27, Type (0, 0), BuildingBlock: CIFDUS_clean_linker_0, # of connection points: 2
#     Edge 28, Type (0, 0), BuildingBlock: CIFDUS_clean_linker_0, # of connection points: 2
#     Edge 29, Type (0, 0), BuildingBlock: CIFDUS_clean_linker_0, # of connection points: 2
#     Edge 30, Type (0, 0), BuildingBlock: CIFDUS_clean_linker_0, # of connection points: 2
#     Edge 31, Type (0, 0), BuildingBlock: CIFDUS_clean_linker_0, # of connection points: 2
#     Edge 32, Type (0, 0), BuildingBlock: CIFDUS_clean_linker_0, # of connection points: 2
#     Edge 33, Type (0, 0), BuildingBlock: CIFDUS_clean_linker_0, # of connection points: 2
#     Edge 34, Type (0, 0), BuildingBlock: CIFDUS_clean_linker_0, # of connection points: 2
#     Edge 35, Type (0, 0), BuildingBlock: CIFDUS_clean_linker_0, # of connection points: 2
# Relax obj value: 0.160
# Max RMSD: 0.099
# Mean RMSD: 0.099
data_MOF--net-wje--node1-CEKHIL_clean_sbu_0--edge1-CIFDUS_clean_linker_0
_symmetry_space_group_name_H-M    P1
_symmetry_Int_Tables_number       1
_symmetry_cell_setting            triclinic
loop_
_symmetry_equiv_pos_as_xyz
'x, y, z'
_cell_length_a     34.362677
_cell_length_b     34.292946
_cell_length_c     33.188784
_cell_angle_alpha  89.946444
_cell_angle_beta   90.069546
_cell_angle_gamma 120.09328
loop_
_atom_site_label
_atom_site_type_symbol
_atom_site_fract_x
_atom_site_fract_y
_atom_site_fract_z
_atom_type_partial_charge
Co0 Co 0.32296 0.01604 0.29461 0.0
O1 O 0.32032 0.02819 0.238 0.0
O2 O 0.34694 0.08036 0.2853 0.0
C3 C 0.25226 0.95642 0.29915 0.0
O4 O 0.32867 0.01575 0.3566 0.0
Co5 Co 0.31104 0.92388 0.32323 0.0
O6 O 0.30521 0.94478 0.37728 0.0
C7 C 0.39326 0.98895 0.28041 0.0
C8 C 0.33732 0.07034 0.24739 0.0
C9 C 0.31741 0.9858 0.38479 0.0
O10 O 0.38409 0.02086 0.28608 0.0
O11 O 0.36571 0.94764 0.28877 0.0
O12 O 0.25866 0.99711 0.3012 0.0
O13 O 0.28746 0.95394 0.29092 0.0
Co14 Co 0.29203 0.31344 0.63959 0.0
O15 O 0.27875 0.31159 0.58291 0.0
O16 O 0.26325 0.34914 0.62791 0.0
C17 C 0.26375 0.23863 0.64743 0.0
O18 O 0.30026 0.3209 0.70127 0.0
Co19 Co 0.36037 0.28397 0.66606 0.0
O20 O 0.33911 0.28714 0.72076 0.0
C21 C 0.39463 0.37443 0.63157 0.0
C22 C 0.26157 0.33684 0.59048 0.0
C23 C 0.3168 0.30667 0.72896 0.0
O24 O 0.35413 0.36763 0.63062 0.0
O25 O 0.40381 0.34396 0.64191 0.0
O26 O 0.23732 0.2554 0.64842 0.0
O27 O 0.30494 0.26644 0.63749 0.0
Co28 Co 0.97481 0.29715 0.96951 0.0
O29 O 0.95523 0.27697 0.91453 0.0
O30 O 0.90942 0.26322 0.96578 0.0
C31 C 0.02732 0.27563 0.97328 0.0
O32 O 0.98171 0.30924 0.03082 0.0
Co33 Co 0.07285 0.37066 0.99051 0.0
O34 O 0.05512 0.35036 0.0468 0.0
C35 C 0.01275 0.39719 0.95137 0.0
C36 C 0.91419 0.25713 0.92782 0.0
C37 C 0.01399 0.32671 0.05706 0.0
O38 O 0.97819 0.35761 0.95795 0.0
O39 O 0.05317 0.40658 0.95817 0.0
O40 O 0.98507 0.24608 0.97842 0.0
O41 O 0.03531 0.31499 0.96222 0.0
Co42 Co 0.69264 0.98736 0.30003 0.0
O43 O 0.69575 0.9758 0.24346 0.0
O44 O 0.65242 0.92351 0.28707 0.0
C45 C 0.76766 0.02717 0.30988 0.0
O46 O 0.68296 0.98789 0.36156 0.0
Co47 Co 0.73389 0.08712 0.32882 0.0
O48 O 0.72437 0.05971 0.38306 0.0
C49 C 0.64471 0.04187 0.28952 0.0
C50 C 0.66755 0.93369 0.25029 0.0
C51 C 0.69941 0.0177 0.39013 0.0
O52 O 0.64436 0.00394 0.28878 0.0
O53 O 0.67875 0.07894 0.30099 0.0
O54 O 0.74673 0.9835 0.31122 0.0
O55 O 0.74374 0.04467 0.29919 0.0
Co56 Co 0.71723 0.68659 0.65067 0.0
O57 O 0.73264 0.68291 0.59537 0.0
O58 O 0.75482 0.65891 0.64743 0.0
C59 C 0.73372 0.75925 0.64834 0.0
O60 O 0.70881 0.68732 0.71242 0.0
Co61 Co 0.63853 0.7044 0.66831 0.0
O62 O 0.66532 0.71843 0.72302 0.0
C63 C 0.61805 0.61463 0.64052 0.0
C64 C 0.75577 0.6652 0.60862 0.0
C65 C 0.69138 0.70477 0.73585 0.0
O66 O 0.65972 0.62576 0.6452 0.0
O67 O 0.60402 0.64262 0.64469 0.0
O68 O 0.76562 0.74993 0.65356 0.0
O69 O 0.69471 0.72503 0.64037 0.0
Co70 Co 0.02823 0.70976 0.96561 0.0
O71 O 0.04867 0.72832 0.91061 0.0
O72 O 0.09284 0.733 0.96075 0.0
C73 C 0.98864 0.74595 0.97105 0.0
O74 O 0.01976 0.69671 0.02667 0.0
Co75 Co 0.92602 0.6522 0.9858 0.0
O76 O 0.94669 0.66848 0.04227 0.0
C77 C 0.97365 0.60724 0.953 0.0
C78 C 0.08917 0.74167 0.92317 0.0
C79 C 0.98757 0.68411 0.05272 0.0
O80 O 0.01191 0.64464 0.9539 0.0
O81 O 0.93619 0.60497 0.96124 0.0
O82 O 0.03184 0.76766 0.97643 0.0
O83 O 0.97179 0.70501 0.95868 0.0
Co84 Co 0.96446 0.67962 0.38318 0.0
O85 O 0.94889 0.68016 0.43916 0.0
O86 O 0.89961 0.65198 0.38952 0.0
C87 C 0.02073 0.75219 0.37996 0.0
O88 O 0.96872 0.67527 0.32141 0.0
Co89 Co 0.05947 0.69622 0.36057 0.0
O90 O 0.0411 0.70055 0.30491 0.0
C91 C 0.99332 0.60951 0.39613 0.0
C92 C 0.90722 0.66115 0.42778 0.0
C93 C 1.00045 0.6871 0.29498 0.0
O94 O 0.96198 0.61952 0.39148 0.0
O95 O 0.03488 0.63763 0.3896 0.0
O96 O 0.97921 0.74269 0.37673 0.0
O97 O 0.02602 0.71865 0.38937 0.0
Co98 Co 0.28679 0.97353 0.71399 0.0
O99 O 0.26913 0.95348 0.76932 0.0
O100 O 0.26465 0.9091 0.71943 0.0
C101 C 0.25008 0.01267 0.70934 0.0
O102 O 0.29894 0.98072 0.65283 0.0
Co103 Co 0.34155 0.07536 0.69035 0.0
O104 O 0.32617 0.05294 0.63422 0.0
C105 C 0.38873 0.03038 0.72483 0.0
C106 C 0.25633 0.91291 0.75704 0.0
C107 C 0.31121 0.01164 0.62548 0.0
O108 O 0.3522 0.99132 0.72518 0.0
O109 O 0.38959 0.06702 0.71549 0.0
O110 O 0.22849 0.96938 0.70376 0.0
O111 O 0.29135 0.02991 0.72038 0.0
Co112 Co 0.32375 0.30182 0.05946 0.0
O113 O 0.32203 0.28699 0.11594 0.0
O114 O 0.34465 0.25887 0.06763 0.0
C115 C 0.25448 0.29446 0.05618 0.0
O116 O 0.32787 0.30784 0.99748 0.0
Co117 Co 0.31777 0.38591 0.03292 0.0
O118 O 0.30799 0.3586 0.97864 0.0
C119 C 0.40083 0.39825 0.07044 0.0
C120 C 0.33682 0.26023 0.10584 0.0
C121 C 0.31749 0.32809 0.97011 0.0
O122 O 0.38707 0.35573 0.06652 0.0
O123 O 0.37596 0.41528 0.06277 0.0
O124 O 0.25863 0.25886 0.05408 0.0
O125 O 0.29101 0.33133 0.06438 0.0
Co126 Co 0.03154 0.31759 0.38787 0.0
O127 O 0.04391 0.31478 0.44412 0.0
O128 O 0.09618 0.35407 0.39894 0.0
C129 C 0.9861 0.24293 0.37922 0.0
O130 O 0.02946 0.32604 0.32636 0.0
Co131 Co 0.93259 0.28603 0.36332 0.0
O132 O 0.95637 0.29063 0.3081 0.0
C133 C 0.98725 0.37539 0.40027 0.0
C134 C 0.08614 0.34079 0.43624 0.0
C135 C 0.99809 0.31132 0.29916 0.0
O136 O 0.02208 0.37044 0.39897 0.0
O137 O 0.94775 0.34412 0.39045 0.0
O138 O 0.02939 0.26042 0.37726 0.0
O139 O 0.97223 0.26989 0.39046 0.0
Co140 Co 0.69826 0.02801 0.71989 0.0
O141 O 0.71798 0.04686 0.77522 0.0
O142 O 0.73795 0.0929 0.7232 0.0
C143 C 0.71039 0.96892 0.71898 0.0
O144 O 0.68838 0.02238 0.6583 0.0
Co145 Co 0.61893 0.93337 0.69611 0.0
O146 O 0.6417 0.95036 0.64027 0.0
C147 C 0.60119 0.99892 0.73735 0.0
C148 C 0.74182 0.0877 0.76152 0.0
C149 C 0.66931 0.99124 0.63117 0.0
O150 O 0.6414 0.03167 0.72948 0.0
O151 O 0.58869 0.95752 0.73091 0.0
O152 O 0.74399 0.00953 0.71344 0.0
O153 O 0.67287 0.96645 0.72785 0.0
Co154 Co 0.69988 0.71934 0.05901 0.0
O155 O 0.70296 0.73993 0.11363 0.0
O156 O 0.66295 0.74795 0.06588 0.0
C157 C 0.77443 0.7481 0.0498 0.0
O158 O 0.69119 0.70232 0.99845 0.0
Co159 Co 0.73126 0.64926 0.04555 0.0
O160 O 0.72243 0.65869 0.98821 0.0
C161 C 0.64132 0.61801 0.07872 0.0
C162 C 0.67625 0.75455 0.10335 0.0
C163 C 0.70319 0.6798 0.97514 0.0
O164 O 0.64717 0.65799 0.07393 0.0
O165 O 0.67224 0.60842 0.0721 0.0
O166 O 0.75667 0.77343 0.04505 0.0
O167 O 0.74802 0.70876 0.06484 0.0
H168 H 0.3457 0.15346 0.25859 0.0
H169 H 0.34031 0.06285 0.16591 0.0
H170 H 0.34298 0.1146 0.11392 0.0
H171 H 0.34244 0.18393 0.09432 0.0
H172 H 0.34316 0.27217 0.18716 0.0
H173 H 0.34693 0.2236 0.23899 0.0
C174 C 0.34567 0.14532 0.22702 0.0
C175 C 0.34289 0.10424 0.21631 0.0
C176 C 0.34609 0.17487 0.19706 0.0
C177 C 0.34234 0.09411 0.17515 0.0
C178 C 0.34383 0.12373 0.14529 0.0
C179 C 0.34393 0.19276 0.12587 0.0
C180 C 0.34254 0.23178 0.13668 0.0
C181 C 0.34505 0.16396 0.15581 0.0
C182 C 0.34403 0.24235 0.17784 0.0
C183 C 0.34618 0.21452 0.20762 0.0
H184 H 0.19099 0.35251 0.59628 0.0
H185 H 0.28085 0.34441 0.51064 0.0
H186 H 0.2382 0.35123 0.45488 0.0
H187 H 0.1703 0.35111 0.42991 0.0
H188 H 0.07688 0.3524 0.51562 0.0
H189 H 0.1257 0.35723 0.57128 0.0
C190 C 0.20172 0.35321 0.56544 0.0
C191 C 0.23911 0.34799 0.55772 0.0
C192 C 0.17598 0.35557 0.53325 0.0
C193 C 0.25213 0.34824 0.51748 0.0
C194 C 0.22766 0.35206 0.48548 0.0
C195 C 0.16126 0.35354 0.46073 0.0
C196 C 0.12009 0.35159 0.46855 0.0
C197 C 0.1888 0.35456 0.49288 0.0
C198 C 0.1084 0.35385 0.50875 0.0
C199 C 0.13626 0.35645 0.54068 0.0
H200 H 0.74287 0.09563 0.84399 0.0
H201 H 0.81612 0.16505 0.73707 0.0
H202 H 0.87512 0.224 0.77846 0.0
H203 H 0.9084 0.25413 0.84539 0.0
H204 H 0.83286 0.18785 0.9523 0.0
H205 H 0.77259 0.13009 0.91089 0.0
C206 C 0.77155 0.12388 0.82976 0.0
C207 C 0.77503 0.12557 0.78734 0.0
C208 C 0.80521 0.15838 0.85387 0.0
C209 C 0.81234 0.16276 0.76953 0.0
C210 C 0.8463 0.1965 0.79325 0.0
C211 C 0.87852 0.22731 0.85962 0.0
C212 C 0.87544 0.22535 0.90204 0.0
C213 C 0.84346 0.19444 0.83548 0.0
C214 C 0.83623 0.19045 0.91982 0.0
C215 C 0.80174 0.15716 0.89609 0.0
H216 H 0.66489 0.82796 0.09311 0.0
H217 H 0.6606 0.73479 0.18261 0.0
H218 H 0.65097 0.7783 0.23586 0.0
H219 H 0.6522 0.84758 0.25826 0.0
H220 H 0.66369 0.94458 0.16957 0.0
H221 H 0.66146 0.89525 0.11536 0.0
C222 C 0.66082 0.81673 0.12416 0.0
C223 C 0.66328 0.77799 0.13375 0.0
C224 C 0.65694 0.84305 0.15511 0.0
C225 C 0.65884 0.76445 0.17433 0.0
C226 C 0.65344 0.78942 0.20492 0.0
C227 C 0.65306 0.85734 0.22704 0.0
C228 C 0.65776 0.89964 0.21808 0.0
C229 C 0.6536 0.82946 0.19588 0.0
C230 C 0.6599 0.91217 0.17738 0.0
C231 C 0.65884 0.884 0.14628 0.0
H232 H 0.90923 0.65761 0.50992 0.0
H233 H 0.82414 0.64916 0.41071 0.0
H234 H 0.76854 0.64697 0.45801 0.0
H235 H 0.74678 0.65343 0.5274 0.0
H236 H 0.83004 0.65866 0.62693 0.0
H237 H 0.88331 0.65562 0.57983 0.0
C238 C 0.87827 0.65478 0.49866 0.0
C239 C 0.87111 0.65397 0.45671 0.0
C240 C 0.84617 0.65313 0.52615 0.0
C241 C 0.83058 0.64982 0.44273 0.0
C242 C 0.79882 0.64877 0.46981 0.0
C243 C 0.77631 0.65333 0.53884 0.0
C244 C 0.78457 0.65665 0.5807 0.0
C245 C 0.80665 0.65128 0.51155 0.0
C246 C 0.82277 0.65604 0.59496 0.0
C247 C 0.85341 0.65457 0.56797 0.0
H248 H 0.25733 0.90509 0.83934 0.0
H249 H 0.18852 0.83108 0.73254 0.0
H250 H 0.13176 0.77016 0.77409 0.0
H251 H 0.09746 0.741 0.8411 0.0
H252 H 0.16975 0.81148 0.94797 0.0
H253 H 0.22926 0.86999 0.90645 0.0
C254 C 0.23038 0.87522 0.8252 0.0
C255 C 0.22717 0.87291 0.78276 0.0
C256 C 0.19818 0.83964 0.84942 0.0
C257 C 0.1921 0.83377 0.76501 0.0
C258 C 0.15935 0.79896 0.78883 0.0
C259 C 0.12671 0.76869 0.85527 0.0
C260 C 0.12892 0.77184 0.89771 0.0
C261 C 0.16142 0.80193 0.83109 0.0
C262 C 0.16721 0.80793 0.9155 0.0
C263 C 0.20117 0.84168 0.89169 0.0
H264 H 0.47438 0.06558 0.29327 0.0
H265 H 0.41395 0.93333 0.23967 0.0
H266 H 0.48727 0.9391 0.23434 0.0
H267 H 0.56702 0.97697 0.2538 0.0
H268 H 0.62779 0.10983 0.3066 0.0
H269 H 0.55658 0.10852 0.3029 0.0
C270 C 0.47748 0.03868 0.27933 0.0
C271 C 0.43864 0.99883 0.26762 0.0
C272 C 0.51992 0.04181 0.27686 0.0
C273 C 0.44329 0.96418 0.24959 0.0
C274 C 0.48523 0.96729 0.24665 0.0
C275 C 0.56486 0.00589 0.26394 0.0
C276 C 0.60273 0.04295 0.28107 0.0
C277 C 0.52356 0.00514 0.26176 0.0
C278 C 0.59928 0.08047 0.2935 0.0
C279 C 0.55839 0.07985 0.29152 0.0
H280 H 0.53162 0.58253 0.61662 0.0
H281 H 0.62597 0.53887 0.64725 0.0
H282 H 0.56554 0.46015 0.64331 0.0
H283 H 0.48479 0.4044 0.63765 0.0
H284 H 0.3908 0.44925 0.60886 0.0
H285 H 0.45254 0.5269 0.60544 0.0
C286 C 0.53926 0.55591 0.62217 0.0
C287 C 0.58335 0.56682 0.6328 0.0
C288 C 0.50432 0.51088 0.62044 0.0
C289 C 0.59245 0.53163 0.63917 0.0
C290 C 0.55781 0.48657 0.6371 0.0
C291 C 0.47771 0.431 0.6301 0.0
C292 C 0.43286 0.42073 0.62398 0.0
C293 C 0.51341 0.47586 0.62874 0.0
C294 C 0.42472 0.4559 0.61403 0.0
C295 C 0.46007 0.50044 0.61214 0.0
H296 H 0.03998 0.59112 0.92535 0.0
H297 H 0.90219 0.52317 0.96653 0.0
H298 H 0.89977 0.45135 0.96522 0.0
H299 H 0.93904 0.40803 0.95968 0.0
H300 H 0.07586 0.47525 0.91639 0.0
H301 H 0.07572 0.54581 0.91065 0.0
C302 C 0.00926 0.56058 0.93351 0.0
C303 C 0.97173 0.56321 0.9465 0.0
C304 C 0.00771 0.51865 0.93254 0.0
C305 C 0.93199 0.52281 0.95653 0.0
C306 C 0.93041 0.48133 0.95593 0.0
C307 C 0.96839 0.43779 0.94804 0.0
C308 C 0.00755 0.4362 0.93928 0.0
C309 C 0.96838 0.47887 0.94495 0.0
C310 C 0.04531 0.47539 0.92412 0.0
C311 C 0.04544 0.51604 0.92088 0.0
H312 H 0.05025 0.5809 0.42037 0.0
H313 H 0.91056 0.5321 0.39231 0.0
H314 H 0.89543 0.45439 0.3957 0.0
H315 H 0.92392 0.40139 0.39846 0.0
H316 H 0.06465 0.45146 0.42338 0.0
H317 H 0.07714 0.52775 0.42946 0.0
C318 C 0.01628 0.55335 0.4154 0.0
C319 C 0.98172 0.56249 0.40543 0.0
C320 C 0.00812 0.50898 0.41641 0.0
C321 C 0.93785 0.52618 0.39987 0.0
C322 C 0.92926 0.48172 0.40154 0.0
C323 C 0.95728 0.4288 0.40578 0.0
C324 C 0.99344 0.42052 0.40988 0.0
C325 C 0.96446 0.47285 0.40851 0.0
C326 C 0.03625 0.45665 0.41966 0.0
C327 C 0.04346 0.50039 0.4231 0.0
H328 H 0.58823 0.06848 0.7158 0.0
H329 H 0.53058 0.94606 0.78565 0.0
H330 H 0.45933 0.94512 0.78991 0.0
H331 H 0.41 0.97357 0.76593 0.0
H332 H 0.46889 0.097 0.69698 0.0
H333 H 0.54203 0.10279 0.70033 0.0
C334 C 0.56059 0.04255 0.73311 0.0
C335 C 0.56463 0.00724 0.74995 0.0
C336 C 0.51915 0.04162 0.73482 0.0
C337 C 0.52823 0.97354 0.77205 0.0
C338 C 0.48723 0.97269 0.77425 0.0
C339 C 0.43893 1.0019 0.75204 0.0
C340 C 0.43348 0.03436 0.73095 0.0
C341 C 0.48165 0.00552 0.7543 0.0
C342 C 0.47169 0.07127 0.71351 0.0
C343 C 0.51385 0.07476 0.71529 0.0
H344 H 0.4342 0.48333 0.09814 0.0
H345 H 0.47487 0.38727 0.06514 0.0
H346 H 0.55403 0.44664 0.0697 0.0
H347 H 0.61066 0.52749 0.0745 0.0
H348 H 0.56829 0.62335 0.10373 0.0
H349 H 0.49063 0.56211 0.10919 0.0
C350 C 0.46029 0.47506 0.09233 0.0
C351 C 0.44848 0.43092 0.08064 0.0
C352 C 0.50542 0.50948 0.09389 0.0
C353 C 0.48288 0.42086 0.07407 0.0
C354 C 0.52816 0.45493 0.07638 0.0
C355 C 0.58463 0.53504 0.08275 0.0
C356 C 0.59546 0.58027 0.08824 0.0
C357 C 0.53972 0.49966 0.08497 0.0
C358 C 0.56107 0.58911 0.09895 0.0
C359 C 0.51657 0.55406 0.10204 0.0
H360 H 0.1032 0.76794 0.36112 0.0
H361 H 0.02489 0.83405 0.36862 0.0
H362 H 0.08999 0.90466 0.34467 0.0
H363 H 0.1701 0.94694 0.3209 0.0
H364 H 0.24062 0.873 0.30617 0.0
H365 H 0.17724 0.80596 0.33291 0.0
C366 C 0.09984 0.79744 0.35734 0.0
C367 C 0.05923 0.79563 0.36664 0.0
C368 C 0.13621 0.83666 0.34204 0.0
C369 C 0.05595 0.83462 0.36165 0.0
C370 C 0.09309 0.87489 0.34787 0.0
C371 C 0.17132 0.91605 0.32342 0.0
C372 C 0.2107 0.91558 0.31238 0.0
C373 C 0.13353 0.87627 0.33776 0.0
C374 C 0.21146 0.87504 0.31521 0.0
C375 C 0.17504 0.83633 0.33045 0.0
H376 H 0.24521 0.16219 0.6078 0.0
H377 H 0.25113 0.21613 0.72625 0.0
H378 H 0.24171 0.14718 0.75704 0.0
H379 H 0.24182 0.07578 0.74971 0.0
H380 H 0.22764 0.01768 0.6319 0.0
H381 H 0.22876 0.08322 0.60109 0.0
C382 C 0.24359 0.15827 0.6403 0.0
C383 C 0.25038 0.19437 0.66494 0.0
C384 C 0.23638 0.11778 0.65773 0.0
C385 C 0.24732 0.18906 0.70691 0.0
C386 C 0.24164 0.14958 0.72448 0.0
C387 C 0.2372 0.07682 0.71745 0.0
C388 C 0.23479 0.04242 0.69296 0.0
C389 C 0.23751 0.11429 0.70017 0.0
C390 C 0.22915 0.04385 0.65122 0.0
C391 C 0.23036 0.08153 0.63361 0.0
H392 H 0.16931 0.22341 0.03905 0.0
H393 H 0.24844 0.36889 0.04282 0.0
H394 H 0.1873 0.37461 0.01366 0.0
H395 H 0.11294 0.33993 0.98624 0.0
H396 H 0.02553 0.19592 0.99177 0.0
H397 H 0.0885 0.1878 0.01726 0.0
C398 C 0.1729 0.25623 0.03363 0.0
C399 C 0.21414 0.29563 0.04213 0.0
C400 C 0.1363 0.25958 0.01824 0.0
C401 C 0.21789 0.33792 0.0357 0.0
C402 C 0.18274 0.34138 0.01906 0.0
C403 C 0.10696 0.30663 0.99343 0.0
C404 C 0.06439 0.26869 0.98729 0.0
C405 C 0.14209 0.30259 1.01 0.0
C406 C 0.05806 0.2258 0.99627 0.0
C407 C 0.094 0.2212 0.01097 0.0
H408 H 0.92267 0.16836 0.41699 0.0
H409 H 0.98074 0.22071 0.30056 0.0
H410 H 0.91911 0.15476 0.26765 0.0
H411 H 0.84334 0.0876 0.27231 0.0
H412 H 0.78944 0.03062 0.38868 0.0
H413 H 0.85524 0.09238 0.42176 0.0
C414 C 0.9222 0.16453 0.38451 0.0
C415 C 0.95518 0.1993 0.36095 0.0
C416 C 0.8875 0.12591 0.366 0.0
C417 C 0.95506 0.19432 0.31902 0.0
C418 C 0.91991 0.15672 0.30026 0.0
C419 C 0.84695 0.08808 0.30482 0.0
C420 C 0.81185 0.05538 0.32826 0.0
C421 C 0.88518 0.12307 0.32342 0.0
C422 C 0.81631 0.05583 0.37027 0.0
C423 C 0.85371 0.0912 0.38913 0.0
H424 H 0.66784 0.77672 0.66581 0.0
H425 H 0.81185 0.84163 0.65408 0.0
H426 H 0.81866 0.91395 0.67408 0.0
H427 H 0.7821 0.95803 0.69623 0.0
H428 H 0.63866 0.88495 0.71798 0.0
H429 H 0.63349 0.81648 0.6937 0.0
C430 C 0.70089 0.80634 0.66788 0.0
C431 C 0.73918 0.80369 0.65855 0.0
C432 C 0.70461 0.84653 0.68147 0.0
C433 C 0.78172 0.84285 0.66115 0.0
C434 C 0.78561 0.8841 0.67272 0.0
C435 C 0.7499 0.92703 0.69578 0.0
C436 C 0.71069 0.9273 0.70779 0.0
C437 C 0.74711 0.8863 0.68329 0.0
C438 C 0.66932 0.88654 0.70785 0.0
C439 C 0.66615 0.84696 0.69408 0.0
H440 H 0.85245 0.76287 0.08359 0.0
H441 H 0.78927 0.75593 0.96959 0.0
H442 H 0.85218 0.75746 0.9338 0.0
H443 H 0.92119 0.75209 0.93588 0.0
H444 H 0.99013 0.77052 0.04884 0.0
H445 H 0.92965 0.77424 0.08436 0.0
C446 C 0.85313 0.76263 0.05092 0.0
C447 C 0.81609 0.758 0.02909 0.0
C448 C 0.89036 0.76561 0.03054 0.0
C449 C 0.81722 0.75851 0.98684 0.0
C450 C 0.85318 0.75951 0.9664 0.0
C451 C 0.92345 0.75828 0.96808 0.0
C452 C 0.9594 0.76047 0.98994 0.0
C453 C 0.88933 0.76178 0.98802 0.0
C454 C 0.9625 0.76871 0.03156 0.0
C455 C 0.92783 0.77051 0.05188 0.0
H456 H 0.29311 0.93056 0.4505 0.0
H457 H 0.3442 0.06963 0.41709 0.0
H458 H 0.34614 0.08949 0.4882 0.0
H459 H 0.33394 0.06748 0.55985 0.0
H460 H 0.28297 0.92821 0.5926 0.0
H461 H 0.28036 0.90853 0.52158 0.0
C462 C 0.30479 0.96535 0.45852 0.0
C463 C 0.31868 0.99857 0.42807 0.0
C464 C 0.30581 0.97653 0.49946 0.0
C465 C 0.3334 0.04331 0.43957 0.0
C466 C 0.3345 0.05469 0.48033 0.0
C467 C 0.3222 0.03274 0.55161 0.0
C468 C 0.30878 0.99942 0.58196 0.0
C469 C 0.32087 0.02159 0.51055 0.0
C470 C 0.29359 0.95465 0.57025 0.0
C471 C 0.2921 0.94334 0.52953 0.0
H472 H 0.29054 0.35888 0.90596 0.0
H473 H 0.34424 0.27236 0.93576 0.0
H474 H 0.34698 0.25719 0.86416 0.0
H475 H 0.33654 0.27029 0.79338 0.0
H476 H 0.28329 0.35706 0.76319 0.0
H477 H 0.27774 0.37002 0.83499 0.0
C478 C 0.30286 0.33662 0.89699 0.0
C479 C 0.31752 0.31707 0.92658 0.0
C480 C 0.30445 0.32811 0.85569 0.0
C481 C 0.33287 0.28801 0.91396 0.0
C482 C 0.3345 0.27936 0.87293 0.0
C483 C 0.32366 0.29211 0.80228 0.0
C484 C 0.31071 0.313 0.77256 0.0
C485 C 0.32076 0.29955 0.84356 0.0
C486 C 0.2936 0.3406 0.78512 0.0
C487 C 0.29053 0.3481 0.82624 0.0
H488 H 0.93987 0.2809 0.23567 0.0
H489 H 0.08181 0.35658 0.26319 0.0
H490 H 0.09891 0.36773 0.19101 0.0
H491 H 0.07345 0.35651 0.12025 0.0
H492 H 0.93126 0.2808 0.09359 0.0
H493 H 0.91458 0.26933 0.16556 0.0
C494 C 0.97471 0.29996 0.22617 0.0
C495 C 0.00952 0.31804 0.25528 0.0
C496 C 0.98425 0.3063 0.18469 0.0
C497 C 0.05429 0.34232 0.2418 0.0
C498 C 0.06407 0.34873 0.20044 0.0
C499 C 0.03871 0.33752 0.13001 0.0
C500 C 0.00364 0.31969 0.10111 0.0
C501 C 0.0293 0.33099 0.17162 0.0
C502 C 0.95897 0.29504 0.11478 0.0
C503 C 0.94939 0.28843 0.15605 0.0
H504 H 0.73175 0.07204 0.45609 0.0
H505 H 0.64448 0.93295 0.42244 0.0
H506 H 0.62766 0.91267 0.49374 0.0
H507 H 0.63722 0.93476 0.56563 0.0
H508 H 0.72463 0.07435 0.59797 0.0
H509 H 0.74165 0.09388 0.52698 0.0
C510 C 0.70895 0.03714 0.46403 0.0
C511 C 0.68932 0.00411 0.43346 0.0
C512 C 0.69934 0.0258 0.50499 0.0
C513 C 0.66011 0.95916 0.44498 0.0
C514 C 0.65044 0.94757 0.48585 0.0
C515 C 0.65998 0.96954 0.55728 0.0
C516 C 0.67946 0.00304 0.58755 0.0
C517 C 0.66974 0.98066 0.51613 0.0
C518 C 0.70898 0.04779 0.57572 0.0
C519 C 0.71879 0.05903 0.53499 0.0
H520 H 0.70979 0.74579 0.92328 0.0
H521 H 0.6818 0.60839 0.92702 0.0
H522 H 0.67969 0.60477 0.85374 0.0
H523 H 0.68645 0.64052 0.78767 0.0
H524 H 0.71202 0.77689 0.78309 0.0
H525 H 0.71539 0.78137 0.85671 0.0
C526 C 0.70247 0.71491 0.90799 0.0
C527 C 0.69575 0.67741 0.93077 0.0
C528 C 0.70188 0.71312 0.86536 0.0
C529 C 0.68711 0.63784 0.91032 0.0
C530 C 0.68614 0.63573 0.86829 0.0
C531 C 0.69357 0.67141 0.80286 0.0
C532 C 0.69968 0.70851 0.77997 0.0
C533 C 0.69404 0.67329 0.84538 0.0
C534 C 0.70765 0.74798 0.80011 0.0
C535 C 0.70923 0.75046 0.84224 0.0
H536 H 0.05923 0.7092 0.23226 0.0
H537 H 0.91883 0.6593 0.25794 0.0
H538 H 0.90293 0.65442 0.18564 0.0
H539 H 0.92868 0.66364 0.11532 0.0
H540 H 0.06911 0.71322 0.08996 0.0
H541 H 0.08501 0.71886 0.16219 0.0
C542 C 0.02502 0.69721 0.22228 0.0
C543 C 0.99024 0.68452 0.25093 0.0
C544 C 0.0161 0.69437 0.18065 0.0
C545 C 0.9463 0.66925 0.23691 0.0
C546 C 0.93718 0.66643 0.19547 0.0
C547 C 0.96286 0.67564 0.1254 0.0
C548 C 0.99763 0.68779 0.09683 0.0
C549 C 0.9718 0.67876 0.16708 0.0
C550 C 0.04162 0.70349 0.11092 0.0
C551 C 0.05075 0.70673 0.15233 0.0
loop_
_geom_bond_atom_site_label_1
_geom_bond_atom_site_label_2
_geom_bond_distance
_geom_bond_site_symmetry_2
_ccdc_geom_bond_type
Co0 O1 2.216 . S
Co0 O2 2.091 . S
Co0 O4 2.004 . S
Co0 O10 2.021 . S
Co0 O12 2.137 1_545 S
Co0 O13 2.244 1_545 S
O1 Co0 2.216 . S
O1 C8 1.247 . S
O2 Co0 2.091 . S
O2 C8 1.261 . S
C3 O12 1.247 . S
C3 O13 1.272 . S
O4 Co0 2.004 . S
O4 C9 1.259 . S
Co5 O6 2.061 . S
Co5 O11 2.052 . S
Co5 O13 2.135 . S
O6 Co5 2.061 . S
O6 C9 1.235 1_565 S
C7 O10 1.238 . S
C7 O11 1.241 1_545 S
C8 O1 1.247 . S
C8 O2 1.261 . S
C9 O4 1.259 . S
C9 O6 1.235 1_545 S
O10 Co0 2.021 . S
O10 C7 1.238 . S
O11 Co5 2.052 . S
O11 C7 1.241 1_565 S
O12 Co0 2.137 1_565 S
O12 C3 1.247 . S
O13 Co0 2.244 1_565 S
O13 C3 1.272 . S
O13 Co5 2.135 . S
Co14 O15 2.216 . S
Co14 O16 2.091 . S
Co14 O18 2.004 . S
Co14 O24 2.021 . S
Co14 O26 2.137 . S
Co14 O27 2.244 . S
O15 Co14 2.216 . S
O15 C22 1.247 . S
O16 Co14 2.091 . S
O16 C22 1.261 . S
C17 O26 1.247 . S
C17 O27 1.272 . S
O18 Co14 2.004 . S
O18 C23 1.259 . S
Co19 O20 2.061 . S
Co19 O25 2.052 . S
Co19 O27 2.135 . S
O20 Co19 2.061 . S
O20 C23 1.235 . S
C21 O24 1.238 . S
C21 O25 1.241 . S
C22 O15 1.247 . S
C22 O16 1.261 . S
C23 O18 1.259 . S
C23 O20 1.235 . S
O24 Co14 2.021 . S
O24 C21 1.238 . S
O25 Co19 2.052 . S
O25 C21 1.241 . S
O26 Co14 2.137 . S
O26 C17 1.247 . S
O27 Co14 2.244 . S
O27 C17 1.272 . S
O27 Co19 2.135 . S
Co28 O29 2.216 . S
Co28 O30 2.091 . S
Co28 O32 2.004 1_556 S
Co28 O38 2.021 . S
Co28 O40 2.137 1_655 S
Co28 O41 2.244 1_655 S
O29 Co28 2.216 . S
O29 C36 1.247 . S
O30 Co28 2.091 . S
O30 C36 1.261 . S
C31 O40 1.247 . S
C31 O41 1.272 . S
O32 Co28 2.004 1_554 S
O32 C37 1.259 . S
Co33 O34 2.061 . S
Co33 O39 2.052 1_554 S
Co33 O41 2.135 1_554 S
O34 Co33 2.061 . S
O34 C37 1.235 1_455 S
C35 O38 1.238 . S
C35 O39 1.241 1_655 S
C36 O29 1.247 . S
C36 O30 1.261 . S
C37 O32 1.259 . S
C37 O34 1.235 1_655 S
O38 Co28 2.021 . S
O38 C35 1.238 . S
O39 Co33 2.052 1_556 S
O39 C35 1.241 1_455 S
O40 Co28 2.137 1_455 S
O40 C31 1.247 . S
O41 Co28 2.244 1_455 S
O41 C31 1.272 . S
O41 Co33 2.135 1_556 S
Co42 O43 2.216 . S
Co42 O44 2.091 . S
Co42 O46 2.004 . S
Co42 O52 2.021 . S
Co42 O54 2.137 1_565 S
Co42 O55 2.244 1_565 S
O43 Co42 2.216 . S
O43 C50 1.247 . S
O44 Co42 2.091 . S
O44 C50 1.261 . S
C45 O54 1.247 . S
C45 O55 1.272 . S
O46 Co42 2.004 . S
O46 C51 1.259 . S
Co47 O48 2.061 . S
Co47 O53 2.052 . S
Co47 O55 2.135 . S
O48 Co47 2.061 . S
O48 C51 1.235 1_545 S
C49 O52 1.238 . S
C49 O53 1.241 1_565 S
C50 O43 1.247 . S
C50 O44 1.261 . S
C51 O46 1.259 . S
C51 O48 1.235 1_565 S
O52 Co42 2.021 . S
O52 C49 1.238 . S
O53 Co47 2.052 . S
O53 C49 1.241 1_545 S
O54 Co42 2.137 1_545 S
O54 C45 1.247 . S
O55 Co42 2.244 1_545 S
O55 C45 1.272 . S
O55 Co47 2.135 . S
Co56 O57 2.216 . S
Co56 O58 2.091 . S
Co56 O60 2.004 . S
Co56 O66 2.021 . S
Co56 O68 2.137 . S
Co56 O69 2.244 . S
O57 Co56 2.216 . S
O57 C64 1.247 . S
O58 Co56 2.091 . S
O58 C64 1.261 . S
C59 O68 1.247 . S
C59 O69 1.272 . S
O60 Co56 2.004 . S
O60 C65 1.259 . S
Co61 O62 2.061 . S
Co61 O67 2.052 . S
Co61 O69 2.135 . S
O62 Co61 2.061 . S
O62 C65 1.235 . S
C63 O66 1.238 . S
C63 O67 1.241 . S
C64 O57 1.247 . S
C64 O58 1.261 . S
C65 O60 1.259 . S
C65 O62 1.235 . S
O66 Co56 2.021 . S
O66 C63 1.238 . S
O67 Co61 2.052 . S
O67 C63 1.241 . S
O68 Co56 2.137 . S
O68 C59 1.247 . S
O69 Co56 2.244 . S
O69 C59 1.272 . S
O69 Co61 2.135 . S
Co70 O71 2.216 . S
Co70 O72 2.091 . S
Co70 O74 2.004 1_556 S
Co70 O80 2.021 . S
Co70 O82 2.137 1_455 S
Co70 O83 2.244 1_455 S
O71 Co70 2.216 . S
O71 C78 1.247 . S
O72 Co70 2.091 . S
O72 C78 1.261 . S
C73 O82 1.247 . S
C73 O83 1.272 . S
O74 Co70 2.004 1_554 S
O74 C79 1.259 . S
Co75 O76 2.061 . S
Co75 O81 2.052 1_554 S
Co75 O83 2.135 1_554 S
O76 Co75 2.061 . S
O76 C79 1.235 1_655 S
C77 O80 1.238 . S
C77 O81 1.241 1_455 S
C78 O71 1.247 . S
C78 O72 1.261 . S
C79 O74 1.259 . S
C79 O76 1.235 1_455 S
O80 Co70 2.021 . S
O80 C77 1.238 . S
O81 Co75 2.052 1_556 S
O81 C77 1.241 1_655 S
O82 Co70 2.137 1_655 S
O82 C73 1.247 . S
O83 Co70 2.244 1_655 S
O83 C73 1.272 . S
O83 Co75 2.135 1_556 S
Co84 O85 2.216 . S
Co84 O86 2.091 . S
Co84 O88 2.004 . S
Co84 O94 2.021 . S
Co84 O96 2.137 1_655 S
Co84 O97 2.244 1_655 S
O85 Co84 2.216 . S
O85 C92 1.247 . S
O86 Co84 2.091 . S
O86 C92 1.261 . S
C87 O96 1.247 . S
C87 O97 1.272 . S
O88 Co84 2.004 . S
O88 C93 1.259 . S
Co89 O90 2.061 . S
Co89 O95 2.052 . S
Co89 O97 2.135 . S
O90 Co89 2.061 . S
O90 C93 1.235 1_455 S
C91 O94 1.238 . S
C91 O95 1.241 1_655 S
C92 O85 1.247 . S
C92 O86 1.261 . S
C93 O88 1.259 . S
C93 O90 1.235 1_655 S
O94 Co84 2.021 . S
O94 C91 1.238 . S
O95 Co89 2.052 . S
O95 C91 1.241 1_455 S
O96 Co84 2.137 1_455 S
O96 C87 1.247 . S
O97 Co84 2.244 1_455 S
O97 C87 1.272 . S
O97 Co89 2.135 . S
Co98 O99 2.216 . S
Co98 O100 2.091 . S
Co98 O102 2.004 . S
Co98 O108 2.021 . S
Co98 O110 2.137 1_565 S
Co98 O111 2.244 1_565 S
O99 Co98 2.216 . S
O99 C106 1.247 . S
O100 Co98 2.091 . S
O100 C106 1.261 . S
C101 O110 1.247 . S
C101 O111 1.272 . S
O102 Co98 2.004 . S
O102 C107 1.259 . S
Co103 O104 2.061 . S
Co103 O109 2.052 . S
Co103 O111 2.135 . S
O104 Co103 2.061 . S
O104 C107 1.235 1_545 S
C105 O108 1.238 . S
C105 O109 1.241 1_565 S
C106 O99 1.247 . S
C106 O100 1.261 . S
C107 O102 1.259 . S
C107 O104 1.235 1_565 S
O108 Co98 2.021 . S
O108 C105 1.238 . S
O109 Co103 2.052 . S
O109 C105 1.241 1_545 S
O110 Co98 2.137 1_545 S
O110 C101 1.247 . S
O111 Co98 2.244 1_545 S
O111 C101 1.272 . S
O111 Co103 2.135 . S
Co112 O113 2.216 . S
Co112 O114 2.091 . S
Co112 O116 2.004 1_554 S
Co112 O122 2.021 . S
Co112 O124 2.137 . S
Co112 O125 2.244 . S
O113 Co112 2.216 . S
O113 C120 1.247 . S
O114 Co112 2.091 . S
O114 C120 1.261 . S
C115 O124 1.247 . S
C115 O125 1.272 . S
O116 Co112 2.004 1_556 S
O116 C121 1.259 . S
Co117 O118 2.061 . S
Co117 O123 2.052 1_556 S
Co117 O125 2.135 1_556 S
O118 Co117 2.061 . S
O118 C121 1.235 . S
C119 O122 1.238 . S
C119 O123 1.241 . S
C120 O113 1.247 . S
C120 O114 1.261 . S
C121 O116 1.259 . S
C121 O118 1.235 . S
O122 Co112 2.021 . S
O122 C119 1.238 . S
O123 Co117 2.052 1_554 S
O123 C119 1.241 . S
O124 Co112 2.137 . S
O124 C115 1.247 . S
O125 Co112 2.244 . S
O125 C115 1.272 . S
O125 Co117 2.135 1_554 S
Co126 O127 2.216 . S
Co126 O128 2.091 . S
Co126 O130 2.004 . S
Co126 O136 2.021 . S
Co126 O138 2.137 1_455 S
Co126 O139 2.244 1_455 S
O127 Co126 2.216 . S
O127 C134 1.247 . S
O128 Co126 2.091 . S
O128 C134 1.261 . S
C129 O138 1.247 . S
C129 O139 1.272 . S
O130 Co126 2.004 . S
O130 C135 1.259 . S
Co131 O132 2.061 . S
Co131 O137 2.052 . S
Co131 O139 2.135 . S
O132 Co131 2.061 . S
O132 C135 1.235 1_655 S
C133 O136 1.238 . S
C133 O137 1.241 1_455 S
C134 O127 1.247 . S
C134 O128 1.261 . S
C135 O130 1.259 . S
C135 O132 1.235 1_455 S
O136 Co126 2.021 . S
O136 C133 1.238 . S
O137 Co131 2.052 . S
O137 C133 1.241 1_655 S
O138 Co126 2.137 1_655 S
O138 C129 1.247 . S
O139 Co126 2.244 1_655 S
O139 C129 1.272 . S
O139 Co131 2.135 . S
Co140 O141 2.216 . S
Co140 O142 2.091 . S
Co140 O144 2.004 . S
Co140 O150 2.021 . S
Co140 O152 2.137 1_545 S
Co140 O153 2.244 1_545 S
O141 Co140 2.216 . S
O141 C148 1.247 . S
O142 Co140 2.091 . S
O142 C148 1.261 . S
C143 O152 1.247 . S
C143 O153 1.272 . S
O144 Co140 2.004 . S
O144 C149 1.259 . S
Co145 O146 2.061 . S
Co145 O151 2.052 . S
Co145 O153 2.135 . S
O146 Co145 2.061 . S
O146 C149 1.235 1_565 S
C147 O150 1.238 . S
C147 O151 1.241 1_545 S
C148 O141 1.247 . S
C148 O142 1.261 . S
C149 O144 1.259 . S
C149 O146 1.235 1_545 S
O150 Co140 2.021 . S
O150 C147 1.238 . S
O151 Co145 2.052 . S
O151 C147 1.241 1_565 S
O152 Co140 2.137 1_565 S
O152 C143 1.247 . S
O153 Co140 2.244 1_565 S
O153 C143 1.272 . S
O153 Co145 2.135 . S
Co154 O155 2.216 . S
Co154 O156 2.091 . S
Co154 O158 2.004 1_554 S
Co154 O164 2.021 . S
Co154 O166 2.137 . S
Co154 O167 2.244 . S
O155 Co154 2.216 . S
O155 C162 1.247 . S
O156 Co154 2.091 . S
O156 C162 1.261 . S
C157 O166 1.247 . S
C157 O167 1.272 . S
O158 Co154 2.004 1_556 S
O158 C163 1.259 . S
Co159 O160 2.061 . S
Co159 O165 2.052 1_556 S
Co159 O167 2.135 1_556 S
O160 Co159 2.061 . S
O160 C163 1.235 . S
C161 O164 1.238 . S
C161 O165 1.241 . S
C162 O155 1.247 . S
C162 O156 1.261 . S
C163 O158 1.259 . S
C163 O160 1.235 . S
O164 Co154 2.021 . S
O164 C161 1.238 . S
O165 Co159 2.052 1_554 S
O165 C161 1.241 . S
O166 Co154 2.137 . S
O166 C157 1.247 . S
O167 Co154 2.244 . S
O167 C157 1.272 . S
O167 Co159 2.135 1_554 S
H168 C174 0.930 . S
H169 C177 0.930 . S
H170 C178 0.930 . S
H171 C179 0.930 . S
H172 C182 0.930 . S
H173 C183 0.930 . S
C174 H168 0.930 . S
C174 C175 1.355 . S
C174 C176 1.415 . S
C175 C174 1.355 . S
C175 C177 1.419 . S
C176 C174 1.415 . S
C176 C181 1.425 . S
C176 C183 1.409 . S
C177 H169 0.930 . S
C177 C175 1.419 . S
C177 C178 1.362 . S
C178 H170 0.930 . S
C178 C177 1.362 . S
C178 C181 1.409 . S
C179 H171 0.930 . S
C179 C180 1.355 . S
C179 C181 1.415 . S
C180 C179 1.355 . S
C180 C182 1.419 . S
C181 C176 1.425 . S
C181 C178 1.409 . S
C181 C179 1.415 . S
C182 H172 0.930 . S
C182 C180 1.419 . S
C182 C183 1.362 . S
C183 H173 0.930 . S
C183 C176 1.409 . S
C183 C182 1.362 . S
H184 C190 0.930 . S
H185 C193 0.930 . S
H186 C194 0.930 . S
H187 C195 0.930 . S
H188 C198 0.930 . S
H189 C199 0.930 . S
C190 H184 0.930 . S
C190 C191 1.355 . S
C190 C192 1.415 . S
C191 C190 1.355 . S
C191 C193 1.419 . S
C192 C190 1.415 . S
C192 C197 1.425 . S
C192 C199 1.409 . S
C193 H185 0.930 . S
C193 C191 1.419 . S
C193 C194 1.362 . S
C194 H186 0.930 . S
C194 C193 1.362 . S
C194 C197 1.409 . S
C195 H187 0.930 . S
C195 C196 1.355 . S
C195 C197 1.415 . S
C196 C195 1.355 . S
C196 C198 1.419 . S
C197 C192 1.425 . S
C197 C194 1.409 . S
C197 C195 1.415 . S
C198 H188 0.930 . S
C198 C196 1.419 . S
C198 C199 1.362 . S
C199 H189 0.930 . S
C199 C192 1.409 . S
C199 C198 1.362 . S
H200 C206 0.930 . S
H201 C209 0.930 . S
H202 C210 0.930 . S
H203 C211 0.930 . S
H204 C214 0.930 . S
H205 C215 0.930 . S
C206 H200 0.930 . S
C206 C207 1.355 . S
C206 C208 1.415 . S
C207 C206 1.355 . S
C207 C209 1.419 . S
C208 C206 1.415 . S
C208 C213 1.425 . S
C208 C215 1.409 . S
C209 H201 0.930 . S
C209 C207 1.419 . S
C209 C210 1.362 . S
C210 H202 0.930 . S
C210 C209 1.362 . S
C210 C213 1.409 . S
C211 H203 0.930 . S
C211 C212 1.355 . S
C211 C213 1.415 . S
C212 C211 1.355 . S
C212 C214 1.419 . S
C213 C208 1.425 . S
C213 C210 1.409 . S
C213 C211 1.415 . S
C214 H204 0.930 . S
C214 C212 1.419 . S
C214 C215 1.362 . S
C215 H205 0.930 . S
C215 C208 1.409 . S
C215 C214 1.362 . S
H216 C222 0.930 . S
H217 C225 0.930 . S
H218 C226 0.930 . S
H219 C227 0.930 . S
H220 C230 0.930 . S
H221 C231 0.930 . S
C222 H216 0.930 . S
C222 C223 1.355 . S
C222 C224 1.415 . S
C223 C222 1.355 . S
C223 C225 1.419 . S
C224 C222 1.415 . S
C224 C229 1.425 . S
C224 C231 1.409 . S
C225 H217 0.930 . S
C225 C223 1.419 . S
C225 C226 1.362 . S
C226 H218 0.930 . S
C226 C225 1.362 . S
C226 C229 1.409 . S
C227 H219 0.930 . S
C227 C228 1.355 . S
C227 C229 1.415 . S
C228 C227 1.355 . S
C228 C230 1.419 . S
C229 C224 1.425 . S
C229 C226 1.409 . S
C229 C227 1.415 . S
C230 H220 0.930 . S
C230 C228 1.419 . S
C230 C231 1.362 . S
C231 H221 0.930 . S
C231 C224 1.409 . S
C231 C230 1.362 . S
H232 C238 0.930 . S
H233 C241 0.930 . S
H234 C242 0.930 . S
H235 C243 0.930 . S
H236 C246 0.930 . S
H237 C247 0.930 . S
C238 H232 0.930 . S
C238 C239 1.355 . S
C238 C240 1.415 . S
C239 C238 1.355 . S
C239 C241 1.419 . S
C240 C238 1.415 . S
C240 C245 1.425 . S
C240 C247 1.409 . S
C241 H233 0.930 . S
C241 C239 1.419 . S
C241 C242 1.362 . S
C242 H234 0.930 . S
C242 C241 1.362 . S
C242 C245 1.409 . S
C243 H235 0.930 . S
C243 C244 1.355 . S
C243 C245 1.415 . S
C244 C243 1.355 . S
C244 C246 1.419 . S
C245 C240 1.425 . S
C245 C242 1.409 . S
C245 C243 1.415 . S
C246 H236 0.930 . S
C246 C244 1.419 . S
C246 C247 1.362 . S
C247 H237 0.930 . S
C247 C240 1.409 . S
C247 C246 1.362 . S
H248 C254 0.930 . S
H249 C257 0.930 . S
H250 C258 0.930 . S
H251 C259 0.930 . S
H252 C262 0.930 . S
H253 C263 0.930 . S
C254 H248 0.930 . S
C254 C255 1.355 . S
C254 C256 1.415 . S
C255 C254 1.355 . S
C255 C257 1.419 . S
C256 C254 1.415 . S
C256 C261 1.425 . S
C256 C263 1.409 . S
C257 H249 0.930 . S
C257 C255 1.419 . S
C257 C258 1.362 . S
C258 H250 0.930 . S
C258 C257 1.362 . S
C258 C261 1.409 . S
C259 H251 0.930 . S
C259 C260 1.355 . S
C259 C261 1.415 . S
C260 C259 1.355 . S
C260 C262 1.419 . S
C261 C256 1.425 . S
C261 C258 1.409 . S
C261 C259 1.415 . S
C262 H252 0.930 . S
C262 C260 1.419 . S
C262 C263 1.362 . S
C263 H253 0.930 . S
C263 C256 1.409 . S
C263 C262 1.362 . S
H264 C270 0.930 . S
H265 C273 0.930 . S
H266 C274 0.930 . S
H267 C275 0.930 . S
H268 C278 0.930 . S
H269 C279 0.930 . S
C270 H264 0.930 . S
C270 C271 1.355 . S
C270 C272 1.415 . S
C271 C270 1.355 . S
C271 C273 1.419 1_545 S
C272 C270 1.415 . S
C272 C277 1.425 1_545 S
C272 C279 1.409 . S
C273 H265 0.930 . S
C273 C271 1.419 1_565 S
C273 C274 1.362 . S
C274 H266 0.930 . S
C274 C273 1.362 . S
C274 C277 1.409 . S
C275 H267 0.930 . S
C275 C276 1.355 . S
C275 C277 1.415 . S
C276 C275 1.355 . S
C276 C278 1.419 1_565 S
C277 C272 1.425 1_565 S
C277 C274 1.409 . S
C277 C275 1.415 . S
C278 H268 0.930 . S
C278 C276 1.419 1_545 S
C278 C279 1.362 . S
C279 H269 0.930 . S
C279 C272 1.409 . S
C279 C278 1.362 . S
H280 C286 0.930 . S
H281 C289 0.930 . S
H282 C290 0.930 . S
H283 C291 0.930 . S
H284 C294 0.930 . S
H285 C295 0.930 . S
C286 H280 0.930 . S
C286 C287 1.355 . S
C286 C288 1.415 . S
C287 C286 1.355 . S
C287 C289 1.419 . S
C288 C286 1.415 . S
C288 C293 1.425 . S
C288 C295 1.409 . S
C289 H281 0.930 . S
C289 C287 1.419 . S
C289 C290 1.362 . S
C290 H282 0.930 . S
C290 C289 1.362 . S
C290 C293 1.409 . S
C291 H283 0.930 . S
C291 C292 1.355 . S
C291 C293 1.415 . S
C292 C291 1.355 . S
C292 C294 1.419 . S
C293 C288 1.425 . S
C293 C290 1.409 . S
C293 C291 1.415 . S
C294 H284 0.930 . S
C294 C292 1.419 . S
C294 C295 1.362 . S
C295 H285 0.930 . S
C295 C288 1.409 . S
C295 C294 1.362 . S
H296 C302 0.930 . S
H297 C305 0.930 1_554 S
H298 C306 0.920 1_554 S
H299 C307 0.930 1_554 S
H300 C310 0.930 . S
H301 C311 0.930 . S
C302 H296 0.930 . S
C302 C303 1.355 . S
C302 C304 1.415 . S
C303 C302 1.355 . S
C303 C305 1.419 1_455 S
C304 C302 1.415 . S
C304 C309 1.425 1_455 S
C304 C311 1.409 . S
C305 H297 0.930 1_556 S
C305 C303 1.419 1_655 S
C305 C306 1.365 . S
C306 H298 0.920 1_556 S
C306 C305 1.365 . S
C306 C309 1.418 . S
C307 H299 0.930 1_556 S
C307 C308 1.355 . S
C307 C309 1.415 . S
C308 C307 1.355 . S
C308 C310 1.419 1_655 S
C309 C304 1.425 1_655 S
C309 C306 1.418 . S
C309 C307 1.415 . S
C310 H300 0.930 . S
C310 C308 1.419 1_455 S
C310 C311 1.362 . S
C311 H301 0.930 . S
C311 C304 1.409 . S
C311 C310 1.362 . S
H312 C318 0.928 . S
H313 C321 0.930 . S
H314 C322 0.930 . S
H315 C323 0.928 . S
H316 C326 0.930 . S
H317 C327 0.930 . S
C318 H312 0.928 . S
C318 C319 1.355 . S
C318 C320 1.415 1_655 S
C319 C318 1.355 . S
C319 C321 1.419 . S
C320 C318 1.415 1_455 S
C320 C325 1.425 1_455 S
C320 C327 1.409 . S
C321 H313 0.930 . S
C321 C319 1.419 . S
C321 C322 1.362 . S
C322 H314 0.930 . S
C322 C321 1.362 . S
C322 C325 1.409 . S
C323 H315 0.928 . S
C323 C324 1.355 . S
C323 C325 1.415 1_455 S
C324 C323 1.355 . S
C324 C326 1.419 . S
C325 C320 1.425 1_655 S
C325 C322 1.409 . S
C325 C323 1.415 1_655 S
C326 H316 0.930 . S
C326 C324 1.419 . S
C326 C327 1.362 . S
C327 H317 0.930 . S
C327 C320 1.409 . S
C327 C326 1.362 . S
H328 C334 0.930 . S
H329 C337 0.930 . S
H330 C338 0.930 . S
H331 C339 0.930 . S
H332 C342 0.930 . S
H333 C343 0.930 . S
C334 H328 0.930 . S
C334 C335 1.355 . S
C334 C336 1.415 . S
C335 C334 1.355 . S
C335 C337 1.419 1_545 S
C336 C334 1.415 . S
C336 C341 1.425 1_545 S
C336 C343 1.409 . S
C337 H329 0.930 . S
C337 C335 1.419 1_565 S
C337 C338 1.362 . S
C338 H330 0.930 . S
C338 C337 1.362 . S
C338 C341 1.409 . S
C339 H331 0.930 . S
C339 C340 1.355 . S
C339 C341 1.415 . S
C340 C339 1.355 . S
C340 C342 1.419 1_565 S
C341 C336 1.425 1_565 S
C341 C338 1.409 . S
C341 C339 1.415 . S
C342 H332 0.930 . S
C342 C340 1.419 1_545 S
C342 C343 1.362 . S
C343 H333 0.930 . S
C343 C336 1.409 . S
C343 C342 1.362 . S
H344 C350 0.948 . S
H345 C353 0.930 . S
H346 C354 0.930 . S
H347 C355 0.930 . S
H348 C358 0.930 1_556 S
H349 C359 0.939 . S
C350 H344 0.948 . S
C350 C351 1.355 . S
C350 C352 1.415 . S
C351 C350 1.355 . S
C351 C353 1.419 . S
C352 C350 1.415 . S
C352 C357 1.425 . S
C352 C359 1.402 1_554 S
C353 H345 0.930 . S
C353 C351 1.419 . S
C353 C354 1.362 . S
C354 H346 0.930 . S
C354 C353 1.362 . S
C354 C357 1.409 . S
C355 H347 0.930 . S
C355 C356 1.355 . S
C355 C357 1.415 . S
C356 C355 1.355 . S
C356 C358 1.419 . S
C357 C352 1.425 . S
C357 C354 1.409 . S
C357 C355 1.415 . S
C358 H348 0.930 1_554 S
C358 C356 1.419 . S
C358 C359 1.361 1_554 S
C359 H349 0.939 . S
C359 C352 1.402 1_556 S
C359 C358 1.361 1_556 S
H360 C366 0.930 . S
H361 C369 0.930 . S
H362 C370 0.930 . S
H363 C371 0.930 . S
H364 C374 0.930 . S
H365 C375 0.930 . S
C366 H360 0.930 . S
C366 C367 1.355 . S
C366 C368 1.415 . S
C367 C366 1.355 . S
C367 C369 1.419 . S
C368 C366 1.415 . S
C368 C373 1.425 . S
C368 C375 1.409 . S
C369 H361 0.930 . S
C369 C367 1.419 . S
C369 C370 1.362 . S
C370 H362 0.930 . S
C370 C369 1.362 . S
C370 C373 1.409 . S
C371 H363 0.930 . S
C371 C372 1.355 . S
C371 C373 1.415 . S
C372 C371 1.355 . S
C372 C374 1.419 . S
C373 C368 1.425 . S
C373 C370 1.409 . S
C373 C371 1.415 . S
C374 H364 0.930 . S
C374 C372 1.419 . S
C374 C375 1.362 . S
C375 H365 0.930 . S
C375 C368 1.409 . S
C375 C374 1.362 . S
H376 C382 0.930 . S
H377 C385 0.930 . S
H378 C386 0.930 . S
H379 C387 0.930 . S
H380 C390 0.930 . S
H381 C391 0.930 . S
C382 H376 0.930 . S
C382 C383 1.355 . S
C382 C384 1.415 . S
C383 C382 1.355 . S
C383 C385 1.419 . S
C384 C382 1.415 . S
C384 C389 1.425 . S
C384 C391 1.409 . S
C385 H377 0.930 . S
C385 C383 1.419 . S
C385 C386 1.362 . S
C386 H378 0.930 . S
C386 C385 1.362 . S
C386 C389 1.409 . S
C387 H379 0.930 . S
C387 C388 1.355 . S
C387 C389 1.415 . S
C388 C387 1.355 . S
C388 C390 1.419 . S
C389 C384 1.425 . S
C389 C386 1.409 . S
C389 C387 1.415 . S
C390 H380 0.930 . S
C390 C388 1.419 . S
C390 C391 1.362 . S
C391 H381 0.930 . S
C391 C384 1.409 . S
C391 C390 1.362 . S
H392 C398 0.930 . S
H393 C401 0.930 . S
H394 C402 0.930 . S
H395 C403 0.930 . S
H396 C406 0.930 . S
H397 C407 0.930 . S
C398 H392 0.930 . S
C398 C399 1.355 . S
C398 C400 1.415 . S
C399 C398 1.355 . S
C399 C401 1.419 1_554 S
C400 C398 1.415 . S
C400 C405 1.425 1_554 S
C400 C407 1.409 . S
C401 H393 0.930 . S
C401 C399 1.419 1_556 S
C401 C402 1.362 . S
C402 H394 0.930 . S
C402 C401 1.362 . S
C402 C405 1.409 . S
C403 H395 0.930 . S
C403 C404 1.355 . S
C403 C405 1.415 . S
C404 C403 1.355 . S
C404 C406 1.419 1_556 S
C405 C400 1.425 1_556 S
C405 C402 1.409 . S
C405 C403 1.415 . S
C406 H396 0.930 . S
C406 C404 1.419 1_554 S
C406 C407 1.362 . S
C407 H397 0.930 . S
C407 C400 1.409 . S
C407 C406 1.362 . S
H408 C414 0.930 . S
H409 C417 0.930 . S
H410 C418 0.930 . S
H411 C419 0.930 . S
H412 C422 0.930 . S
H413 C423 0.930 . S
C414 H408 0.930 . S
C414 C415 1.355 . S
C414 C416 1.415 . S
C415 C414 1.355 . S
C415 C417 1.419 . S
C416 C414 1.415 . S
C416 C421 1.425 . S
C416 C423 1.409 . S
C417 H409 0.930 . S
C417 C415 1.419 . S
C417 C418 1.362 . S
C418 H410 0.930 . S
C418 C417 1.362 . S
C418 C421 1.409 . S
C419 H411 0.930 . S
C419 C420 1.355 . S
C419 C421 1.415 . S
C420 C419 1.355 . S
C420 C422 1.419 . S
C421 C416 1.425 . S
C421 C418 1.409 . S
C421 C419 1.415 . S
C422 H412 0.930 . S
C422 C420 1.419 . S
C422 C423 1.362 . S
C423 H413 0.930 . S
C423 C416 1.409 . S
C423 C422 1.362 . S
H424 C430 0.930 . S
H425 C433 0.930 . S
H426 C434 0.930 . S
H427 C435 0.930 . S
H428 C438 0.930 . S
H429 C439 0.930 . S
C430 H424 0.930 . S
C430 C431 1.355 . S
C430 C432 1.415 . S
C431 C430 1.355 . S
C431 C433 1.419 . S
C432 C430 1.415 . S
C432 C437 1.425 . S
C432 C439 1.409 . S
C433 H425 0.930 . S
C433 C431 1.419 . S
C433 C434 1.362 . S
C434 H426 0.930 . S
C434 C433 1.362 . S
C434 C437 1.409 . S
C435 H427 0.930 . S
C435 C436 1.355 . S
C435 C437 1.415 . S
C436 C435 1.355 . S
C436 C438 1.419 . S
C437 C432 1.425 . S
C437 C434 1.409 . S
C437 C435 1.415 . S
C438 H428 0.930 . S
C438 C436 1.419 . S
C438 C439 1.362 . S
C439 H429 0.930 . S
C439 C432 1.409 . S
C439 C438 1.362 . S
H440 C446 0.930 . S
H441 C449 0.930 . S
H442 C450 0.930 . S
H443 C451 0.930 . S
H444 C454 0.930 . S
H445 C455 0.930 . S
C446 H440 0.930 . S
C446 C447 1.355 . S
C446 C448 1.415 . S
C447 C446 1.355 . S
C447 C449 1.419 1_554 S
C448 C446 1.415 . S
C448 C453 1.425 1_554 S
C448 C455 1.409 . S
C449 H441 0.930 . S
C449 C447 1.419 1_556 S
C449 C450 1.362 . S
C450 H442 0.930 . S
C450 C449 1.362 . S
C450 C453 1.409 . S
C451 H443 0.930 . S
C451 C452 1.355 . S
C451 C453 1.415 . S
C452 C451 1.355 . S
C452 C454 1.419 1_556 S
C453 C448 1.425 1_556 S
C453 C450 1.409 . S
C453 C451 1.415 . S
C454 H444 0.930 . S
C454 C452 1.419 1_554 S
C454 C455 1.362 . S
C455 H445 0.930 . S
C455 C448 1.409 . S
C455 C454 1.362 . S
H456 C462 0.930 . S
H457 C465 0.930 . S
H458 C466 0.930 . S
H459 C467 0.930 . S
H460 C470 0.930 . S
H461 C471 0.930 . S
C462 H456 0.930 . S
C462 C463 1.355 . S
C462 C464 1.415 . S
C463 C462 1.355 . S
C463 C465 1.419 1_545 S
C464 C462 1.415 . S
C464 C469 1.425 1_545 S
C464 C471 1.409 . S
C465 H457 0.930 . S
C465 C463 1.419 1_565 S
C465 C466 1.362 . S
C466 H458 0.930 . S
C466 C465 1.362 . S
C466 C469 1.409 . S
C467 H459 0.930 . S
C467 C468 1.355 . S
C467 C469 1.415 . S
C468 C467 1.355 . S
C468 C470 1.419 1_565 S
C469 C464 1.425 1_565 S
C469 C466 1.409 . S
C469 C467 1.415 . S
C470 H460 0.930 . S
C470 C468 1.419 1_545 S
C470 C471 1.362 . S
C471 H461 0.930 . S
C471 C464 1.409 . S
C471 C470 1.362 . S
H472 C478 0.930 . S
H473 C481 0.930 . S
H474 C482 0.930 . S
H475 C483 0.930 . S
H476 C486 0.930 . S
H477 C487 0.930 . S
C478 H472 0.930 . S
C478 C479 1.355 . S
C478 C480 1.415 . S
C479 C478 1.355 . S
C479 C481 1.419 . S
C480 C478 1.415 . S
C480 C485 1.425 . S
C480 C487 1.409 . S
C481 H473 0.930 . S
C481 C479 1.419 . S
C481 C482 1.362 . S
C482 H474 0.930 . S
C482 C481 1.362 . S
C482 C485 1.409 . S
C483 H475 0.930 . S
C483 C484 1.355 . S
C483 C485 1.415 . S
C484 C483 1.355 . S
C484 C486 1.419 . S
C485 C480 1.425 . S
C485 C482 1.409 . S
C485 C483 1.415 . S
C486 H476 0.930 . S
C486 C484 1.419 . S
C486 C487 1.362 . S
C487 H477 0.930 . S
C487 C480 1.409 . S
C487 C486 1.362 . S
H488 C494 0.929 . S
H489 C497 0.930 . S
H490 C498 0.930 . S
H491 C499 0.929 . S
H492 C502 0.930 . S
H493 C503 0.930 . S
C494 H488 0.929 . S
C494 C495 1.354 1_655 S
C494 C496 1.416 . S
C495 C494 1.354 1_455 S
C495 C497 1.419 . S
C496 C494 1.416 . S
C496 C501 1.425 1_655 S
C496 C503 1.409 . S
C497 H489 0.930 . S
C497 C495 1.419 . S
C497 C498 1.362 . S
C498 H490 0.930 . S
C498 C497 1.362 . S
C498 C501 1.409 . S
C499 H491 0.929 . S
C499 C500 1.354 1_455 S
C499 C501 1.416 . S
C500 C499 1.354 1_655 S
C500 C502 1.419 . S
C501 C496 1.425 1_455 S
C501 C498 1.409 . S
C501 C499 1.416 . S
C502 H492 0.930 . S
C502 C500 1.419 . S
C502 C503 1.362 . S
C503 H493 0.930 . S
C503 C496 1.409 . S
C503 C502 1.362 . S
H504 C510 0.930 . S
H505 C513 0.930 . S
H506 C514 0.930 . S
H507 C515 0.930 . S
H508 C518 0.930 . S
H509 C519 0.930 . S
C510 H504 0.930 . S
C510 C511 1.355 1_545 S
C510 C512 1.415 . S
C511 C510 1.355 1_565 S
C511 C513 1.419 . S
C512 C510 1.415 . S
C512 C517 1.425 1_545 S
C512 C519 1.409 . S
C513 H505 0.930 . S
C513 C511 1.419 . S
C513 C514 1.362 . S
C514 H506 0.930 . S
C514 C513 1.362 . S
C514 C517 1.409 . S
C515 H507 0.930 . S
C515 C516 1.355 1_565 S
C515 C517 1.415 . S
C516 C515 1.355 1_545 S
C516 C518 1.419 . S
C517 C512 1.425 1_565 S
C517 C514 1.409 . S
C517 C515 1.415 . S
C518 H508 0.930 . S
C518 C516 1.419 . S
C518 C519 1.362 . S
C519 H509 0.930 . S
C519 C512 1.409 . S
C519 C518 1.362 . S
H520 C526 0.930 . S
H521 C529 0.930 . S
H522 C530 0.930 . S
H523 C531 0.930 . S
H524 C534 0.930 . S
H525 C535 0.930 . S
C526 H520 0.930 . S
C526 C527 1.355 . S
C526 C528 1.415 . S
C527 C526 1.355 . S
C527 C529 1.419 . S
C528 C526 1.415 . S
C528 C533 1.425 . S
C528 C535 1.409 . S
C529 H521 0.930 . S
C529 C527 1.419 . S
C529 C530 1.362 . S
C530 H522 0.930 . S
C530 C529 1.362 . S
C530 C533 1.409 . S
C531 H523 0.930 . S
C531 C532 1.355 . S
C531 C533 1.415 . S
C532 C531 1.355 . S
C532 C534 1.419 . S
C533 C528 1.425 . S
C533 C530 1.409 . S
C533 C531 1.415 . S
C534 H524 0.930 . S
C534 C532 1.419 . S
C534 C535 1.362 . S
C535 H525 0.930 . S
C535 C528 1.409 . S
C535 C534 1.362 . S
H536 C542 0.930 . S
H537 C545 0.930 . S
H538 C546 0.930 . S
H539 C547 0.930 . S
H540 C550 0.930 . S
H541 C551 0.930 . S
C542 H536 0.930 . S
C542 C543 1.355 . S
C542 C544 1.415 . S
C543 C542 1.355 . S
C543 C545 1.419 1_655 S
C544 C542 1.415 . S
C544 C549 1.425 1_655 S
C544 C551 1.409 . S
C545 H537 0.930 . S
C545 C543 1.419 1_455 S
C545 C546 1.362 . S
C546 H538 0.930 . S
C546 C545 1.362 . S
C546 C549 1.409 . S
C547 H539 0.930 . S
C547 C548 1.355 . S
C547 C549 1.415 . S
C548 C547 1.355 . S
C548 C550 1.419 1_455 S
C549 C544 1.425 1_455 S
C549 C546 1.409 . S
C549 C547 1.415 . S
C550 H540 0.930 . S
C550 C548 1.419 1_655 S
C550 C551 1.362 . S
C551 H541 0.930 . S
C551 C544 1.409 . S
C551 C550 1.362 . S
C175 C8 1.735 . S
C180 C120 1.744 . S
C191 C22 1.740 . S
C196 C134 1.748 . S
C207 C148 1.747 . S
C212 C36 1.737 . S
C223 C162 1.749 . S
C228 C50 1.745 . S
C239 C92 1.735 . S
C244 C64 1.732 . S
C255 C106 1.732 . S
C260 C78 1.740 . S
C271 C7 1.479 . S
C276 C49 1.470 . S
C287 C63 1.517 . S
C292 C21 1.551 . S
C303 C77 1.467 . S
C308 C35 1.484 . S
C319 C91 1.479 . S
C324 C133 1.528 . S
C335 C147 1.482 . S
C340 C105 1.468 . S
C351 C119 1.514 . S
C356 C161 1.470 . S
C367 C87 0.986 . S
C372 C3 0.984 . S
C383 C17 0.934 . S
C388 C101 0.934 . S
C399 C115 0.937 . S
C404 C31 0.938 . S
C415 C129 0.956 . S
C420 C45 0.954 . S
C431 C59 0.969 . S
C436 C143 0.967 . S
C447 C157 0.934 . S
C452 C73 0.934 . S
C463 C9 1.076 . S
C468 C107 1.097 . S
C479 C121 1.037 . S
C484 C23 1.039 . S
C495 C135 1.125 . S
C500 C37 1.137 . S
C511 C51 1.124 . S
C516 C149 1.106 . S
C527 C163 1.048 . S
C532 C65 1.064 . S
C543 C93 1.049 . S
C548 C79 1.039 . S
