# Generated by pormake.
# Topology unp, (4)-cn, num edge types: 1
# Building blocks:
#     Node 0, Type 0, BuildingBlock: KUFVIS_clean_sbu_0, # of connection points: 4
#     Node 1, Type 0, BuildingBlock: KUFVIS_clean_sbu_0, # of connection points: 4
#     Node 2, Type 0, BuildingBlock: KUFVIS_clean_sbu_0, # of connection points: 4
#     Node 3, Type 0, BuildingBlock: KUFVIS_clean_sbu_0, # of connection points: 4
#     Node 4, Type 0, BuildingBlock: KUFVIS_clean_sbu_0, # of connection points: 4
#     Node 5, Type 0, BuildingBlock: KUFVIS_clean_sbu_0, # of connection points: 4
#     Node 6, Type 0, BuildingBlock: KUFVIS_clean_sbu_0, # of connection points: 4
#     Node 7, Type 0, BuildingBlock: KUFVIS_clean_sbu_0, # of connection points: 4
#     Node 8, Type 0, BuildingBlock: KUFVIS_clean_sbu_0, # of connection points: 4
#     Node 9, Type 0, BuildingBlock: KUFVIS_clean_sbu_0, # of connection points: 4
#     Node 10, Type 0, BuildingBlock: KUFVIS_clean_sbu_0, # of connection points: 4
#     Node 11, Type 0, BuildingBlock: KUFVIS_clean_sbu_0, # of connection points: 4
#     Node 12, Type 0, BuildingBlock: KUFVIS_clean_sbu_0, # of connection points: 4
#     Node 13, Type 0, BuildingBlock: KUFVIS_clean_sbu_0, # of connection points: 4
#     Node 14, Type 0, BuildingBlock: KUFVIS_clean_sbu_0, # of connection points: 4
#     Node 15, Type 0, BuildingBlock: KUFVIS_clean_sbu_0, # of connection points: 4
#     Node 16, Type 0, BuildingBlock: KUFVIS_clean_sbu_0, # of connection points: 4
#     Node 17, Type 0, BuildingBlock: KUFVIS_clean_sbu_0, # of connection points: 4
#     Edge 18, Type (0, 0), BuildingBlock: XIVTED_clean_linker_0, # of connection points: 2
#     Edge 19, Type (0, 0), BuildingBlock: XIVTED_clean_linker_0, # of connection points: 2
#     Edge 20, Type (0, 0), BuildingBlock: XIVTED_clean_linker_0, # of connection points: 2
#     Edge 21, Type (0, 0), BuildingBlock: XIVTED_clean_linker_0, # of connection points: 2
#     Edge 22, Type (0, 0), BuildingBlock: XIVTED_clean_linker_0, # of connection points: 2
#     Edge 23, Type (0, 0), BuildingBlock: XIVTED_clean_linker_0, # of connection points: 2
#     Edge 24, Type (0, 0), BuildingBlock: XIVTED_clean_linker_0, # of connection points: 2
#     Edge 25, Type (0, 0), BuildingBlock: XIVTED_clean_linker_0, # of connection points: 2
#     Edge 26, Type (0, 0), BuildingBlock: XIVTED_clean_linker_0, # of connection points: 2
#     Edge 27, Type (0, 0), BuildingBlock: XIVTED_clean_linker_0, # of connection points: 2
#     Edge 28, Type (0, 0), BuildingBlock: XIVTED_clean_linker_0, # of connection points: 2
#     Edge 29, Type (0, 0), BuildingBlock: XIVTED_clean_linker_0, # of connection points: 2
#     Edge 30, Type (0, 0), BuildingBlock: XIVTED_clean_linker_0, # of connection points: 2
#     Edge 31, Type (0, 0), BuildingBlock: XIVTED_clean_linker_0, # of connection points: 2
#     Edge 32, Type (0, 0), BuildingBlock: XIVTED_clean_linker_0, # of connection points: 2
#     Edge 33, Type (0, 0), BuildingBlock: XIVTED_clean_linker_0, # of connection points: 2
#     Edge 34, Type (0, 0), BuildingBlock: XIVTED_clean_linker_0, # of connection points: 2
#     Edge 35, Type (0, 0), BuildingBlock: XIVTED_clean_linker_0, # of connection points: 2
#     Edge 36, Type (0, 0), BuildingBlock: XIVTED_clean_linker_0, # of connection points: 2
#     Edge 37, Type (0, 0), BuildingBlock: XIVTED_clean_linker_0, # of connection points: 2
#     Edge 38, Type (0, 0), BuildingBlock: XIVTED_clean_linker_0, # of connection points: 2
#     Edge 39, Type (0, 0), BuildingBlock: XIVTED_clean_linker_0, # of connection points: 2
#     Edge 40, Type (0, 0), BuildingBlock: XIVTED_clean_linker_0, # of connection points: 2
#     Edge 41, Type (0, 0), BuildingBlock: XIVTED_clean_linker_0, # of connection points: 2
#     Edge 42, Type (0, 0), BuildingBlock: XIVTED_clean_linker_0, # of connection points: 2
#     Edge 43, Type (0, 0), BuildingBlock: XIVTED_clean_linker_0, # of connection points: 2
#     Edge 44, Type (0, 0), BuildingBlock: XIVTED_clean_linker_0, # of connection points: 2
#     Edge 45, Type (0, 0), BuildingBlock: XIVTED_clean_linker_0, # of connection points: 2
#     Edge 46, Type (0, 0), BuildingBlock: XIVTED_clean_linker_0, # of connection points: 2
#     Edge 47, Type (0, 0), BuildingBlock: XIVTED_clean_linker_0, # of connection points: 2
#     Edge 48, Type (0, 0), BuildingBlock: XIVTED_clean_linker_0, # of connection points: 2
#     Edge 49, Type (0, 0), BuildingBlock: XIVTED_clean_linker_0, # of connection points: 2
#     Edge 50, Type (0, 0), BuildingBlock: XIVTED_clean_linker_0, # of connection points: 2
#     Edge 51, Type (0, 0), BuildingBlock: XIVTED_clean_linker_0, # of connection points: 2
#     Edge 52, Type (0, 0), BuildingBlock: XIVTED_clean_linker_0, # of connection points: 2
#     Edge 53, Type (0, 0), BuildingBlock: XIVTED_clean_linker_0, # of connection points: 2
# Relax obj value: 0.410
# Max RMSD: 0.190
# Mean RMSD: 0.188
data_MOF--net-unp--node1-KUFVIS_clean_sbu_0--edge1-XIVTED_clean_linker_0
_symmetry_space_group_name_H-M    P1
_symmetry_Int_Tables_number       1
_symmetry_cell_setting            triclinic
loop_
_symmetry_equiv_pos_as_xyz
'x, y, z'
_cell_length_a     48.07345
_cell_length_b     48.078307
_cell_length_c     58.089968
_cell_angle_alpha  90.175078
_cell_angle_beta   89.858993
_cell_angle_gamma 120.22191
loop_
_atom_site_label
_atom_site_type_symbol
_atom_site_fract_x
_atom_site_fract_y
_atom_site_fract_z
_atom_type_partial_charge
Mn0 Mn 0.22608 0.14085 0.05475 0.0
Mn1 Mn 0.26629 0.1232 0.01569 0.0
C2 C 0.22289 0.09144 0.05601 0.0
C3 C 0.17956 0.14155 0.06405 0.0
C4 C 0.29822 0.16849 0.05617 0.0
O5 O 0.2374 0.17441 0.03026 0.0
O6 O 0.25881 0.15763 0.00275 0.0
C7 C 0.21835 0.09526 0.97823 0.0
N8 N 0.23694 0.09192 0.99436 0.0
C9 C 0.21743 0.03695 0.98308 0.0
C10 C 0.19831 0.03992 0.96619 0.0
C11 C 0.19891 0.06928 0.96373 0.0
C12 C 0.23691 0.06394 -0.0033 0.0
H13 H 0.21842 0.11761 0.97638 0.0
C14 C 0.24887 0.17636 0.01016 0.0
O15 O 0.20653 0.16062 0.07448 0.0
O16 O 0.17994 0.12261 0.04833 0.0
N17 N 0.2737 0.08977 0.02628 0.0
C18 C 0.29274 0.09054 0.0439 0.0
C19 C 0.29424 0.06282 0.04908 0.0
C20 C 0.27614 0.03459 0.03613 0.0
C21 C 0.25668 0.03435 0.0181 0.0
C22 C 0.25628 0.06275 0.01366 0.0
H23 H 0.30647 0.11205 0.05407 0.0
O24 O 0.21643 0.10308 0.0741 0.0
O25 O 0.23103 0.10942 0.03769 0.0
O26 O 0.2725 0.16434 0.06565 0.0
O27 O 0.29862 0.155 0.03726 0.0
C28 C 0.2373 0.00689 0.00458 0.0
C29 C 0.21776 0.00822 0.98704 0.0
H30 H 0.18308 0.01983 0.95507 0.0
H31 H 0.18448 0.072 0.9507 0.0
H32 H 0.3092 0.06315 0.06309 0.0
H33 H 0.27721 0.0132 0.04027 0.0
H34 H 0.23711 0.98458 0.00762 0.0
H35 H 0.20288 0.98693 0.97681 0.0
Mn36 Mn 0.90872 0.06393 0.12552 0.0
Mn37 Mn 0.93446 0.12265 0.08575 0.0
C38 C 0.96219 0.09185 0.11573 0.0
C39 C 0.88694 0.00932 0.13229 0.0
C40 C 0.91928 0.13061 0.13528 0.0
O41 O 0.86751 0.05664 0.11087 0.0
O42 O 0.88709 0.0931 0.08225 0.0
C43 C 0.92279 0.08384 0.04341 0.0
N44 N 0.94355 0.10791 0.05765 0.0
C45 C 0.98877 0.1183 0.03381 0.0
C46 C 0.96785 0.09378 0.0188 0.0
C47 C 0.9347 0.07658 0.02356 0.0
C48 C 0.9754 0.12508 0.05295 0.0
H49 H 0.89735 0.07022 0.04718 0.0
C50 C 0.86371 0.06979 0.09308 0.0
O51 O 0.88457 0.02762 0.14778 0.0
O52 O 0.90119 0.02264 0.11318 0.0
N53 N 0.97979 0.15242 0.08712 0.0
C54 C -0.00328 0.1754 0.10329 0.0
C55 C 0.03025 0.19484 0.101 0.0
C56 C 0.04601 0.19029 0.08222 0.0
C57 C 0.02801 0.16672 0.06569 0.0
C58 C -0.00544 0.14876 0.06849 0.0
H59 H 0.98479 0.17868 0.11794 0.0
O60 O 0.9531 0.07561 0.13473 0.0
O61 O 0.9395 0.09042 0.10271 0.0
O62 O 0.91295 0.10301 0.14267 0.0
O63 O 0.92644 0.13964 0.11435 0.0
C64 C 0.04205 0.15966 0.04693 0.0
C65 C 0.02244 0.13567 0.03088 0.0
H66 H 0.97701 0.08778 0.00366 0.0
H67 H 0.9184 0.05757 0.01209 0.0
H68 H 0.04397 0.21295 0.11385 0.0
H69 H 0.07196 0.20481 0.08078 0.0
H70 H 0.06795 0.17246 0.04475 0.0
H71 H 0.03354 0.13063 0.01645 0.0
Mn72 Mn -0.00251 0.84553 0.11354 0.0
Mn73 Mn 0.91899 0.79212 0.10462 0.0
C74 C 0.95946 0.85933 0.12337 0.0
C75 C 0.04629 0.88443 0.09748 0.0
C76 C 0.9586 0.7876 0.14351 0.0
O77 O -0.00253 0.81137 0.09292 0.0
O78 O 0.94531 0.78324 0.0826 0.0
C79 C 0.9098 0.81039 0.05782 0.0
N80 N 0.90154 0.8057 0.08051 0.0
C81 C 0.86002 0.81896 0.07464 0.0
C82 C 0.86792 0.82372 0.05117 0.0
C83 C 0.89297 0.81948 0.04275 0.0
C84 C 0.87743 0.80964 0.0888 0.0
H85 H 0.92909 0.80724 0.05129 0.0
C86 C 0.97469 0.79025 0.08056 0.0
O87 O 0.04551 0.86842 0.11571 0.0
O88 O 0.01885 0.87811 0.0889 0.0
N89 N 0.89103 0.79855 0.12468 0.0
C90 C 0.88787 0.79519 0.14798 0.0
C91 C 0.8648 0.80004 0.15928 0.0
C92 C 0.84508 0.80808 0.14651 0.0
C93 C 0.84857 0.81114 0.12253 0.0
C94 C 0.87185 0.80584 0.11219 0.0
H95 H 0.90291 0.78901 0.15791 0.0
O96 O 0.98851 0.87564 0.13149 0.0
O97 O 0.9541 0.83649 0.10889 0.0
O98 O 0.98391 0.81499 0.14102 0.0
O99 O 0.93437 0.77621 0.13001 0.0
C100 C 0.83034 0.81992 0.10855 0.0
C101 C 0.83604 0.8238 0.08463 0.0
H102 H 0.85515 0.83094 0.03952 0.0
H103 H 0.89933 0.82327 0.02468 0.0
H104 H 0.86227 0.79767 0.1778 0.0
H105 H 0.82749 0.81207 0.15531 0.0
H106 H 0.81219 0.82421 0.11607 0.0
H107 H 0.82216 0.83098 0.07413 0.0
Mn108 Mn 0.06022 0.18284 0.89578 0.0
Mn109 Mn 0.05885 0.23763 0.93092 0.0
C110 C 0.01169 0.17445 0.90955 0.0
C111 C 0.06625 0.13804 0.89261 0.0
C112 C 0.06951 0.24641 0.87922 0.0
O113 O 0.10649 0.21031 0.90572 0.0
O114 O 0.10221 0.24126 0.93309 0.0
C115 C 0.06608 0.2164 0.97702 0.0
N116 N 0.04805 0.22185 0.96165 0.0
C117 C 0.00626 0.20824 0.9897 0.0
C118 C 0.02447 0.20266 0.00587 0.0
C119 C 0.05464 0.20702 -0.00049 0.0
C120 C 0.01937 0.21852 0.96772 0.0
H121 H 0.08924 0.21963 0.97228 0.0
C122 C 0.11831 0.2308 0.92201 0.0
O123 O 0.07163 0.15678 0.87501 0.0
O124 O 0.05759 0.14551 0.91167 0.0
N125 N 0.01787 0.23533 0.93047 0.0
C126 C 0.00351 0.24213 0.91291 0.0
C127 C 0.97295 0.23855 0.9163 0.0
C128 C 0.95752 0.22816 0.93772 0.0
C129 C 0.97284 0.22147 0.95557 0.0
C130 C 0.0033 0.22547 0.95118 0.0
H131 H 0.01514 0.24999 0.89638 0.0
O132 O 0.01287 0.15924 0.89142 0.0
O133 O 0.03914 0.1936 0.91938 0.0
O134 O 0.06484 0.21849 0.87443 0.0
O135 O 0.06936 0.256 0.89972 0.0
C136 C 0.95896 0.2107 0.97749 0.0
C137 C 0.97574 0.20425 0.99459 0.0
H138 H 0.01563 0.19534 0.02324 0.0
H139 H 0.06932 0.20353 0.01187 0.0
H140 H 0.96126 0.24372 0.90242 0.0
H141 H 0.9339 0.22532 0.94024 0.0
H142 H 0.93542 0.20735 0.98138 0.0
H143 H 0.96492 0.19616 0.01142 0.0
Mn144 Mn 0.7685 0.93713 0.94512 0.0
Mn145 Mn 0.72694 0.86817 0.97486 0.0
C146 C 0.78243 0.89798 0.94137 0.0
C147 C 0.80853 0.99113 0.94515 0.0
C148 C 0.70222 0.88367 0.93151 0.0
O149 O 0.74287 0.94658 0.96825 0.0
O150 O 0.7239 0.90317 0.99113 0.0
C151 C 0.76663 0.88617 0.01713 0.0
N152 N 0.75304 0.86608 -0.0012 0.0
C153 C 0.77612 0.83395 0.0102 0.0
C154 C 0.79003 0.85408 0.02933 0.0
C155 C 0.7853 0.88033 0.03279 0.0
C156 C 0.75749 0.84078 0.99528 0.0
H157 H 0.76349 0.90667 0.01969 0.0
C158 C 0.72927 0.93157 0.98667 0.0
O159 O 0.78455 0.98013 0.93084 0.0
O160 O 0.80934 0.97067 0.95925 0.0
N161 N 0.72882 0.83279 0.96129 0.0
C162 C 0.71593 0.81722 0.94105 0.0
C163 C 0.71968 0.79114 0.93455 0.0
C164 C 0.73652 0.78125 0.94893 0.0
C165 C 0.74936 0.79746 0.96975 0.0
C166 C 0.74456 0.82307 0.97546 0.0
H167 H 0.70306 0.82472 0.92985 0.0
O168 O 0.79217 0.92098 0.92636 0.0
O169 O 0.76616 0.8996 0.95875 0.0
O170 O 0.72806 0.90959 0.92656 0.0
O171 O 0.69836 0.86769 0.95 0.0
C172 C 0.76739 0.78969 0.98479 0.0
C173 C 0.78081 0.80795 0.00498 0.0
H174 H 0.8048 0.84992 0.04127 0.0
H175 H 0.79623 0.89617 0.0474 0.0
H176 H 0.70974 0.77878 0.91843 0.0
H177 H 0.73966 0.76135 0.94372 0.0
H178 H 0.77156 0.77007 0.98079 0.0
H179 H 0.79511 0.80212 0.0162 0.0
Mn180 Mn -0.00503 0.85962 0.90005 0.0
Mn181 Mn 0.07392 0.90305 0.91333 0.0
C182 C 0.0234 0.91409 0.8929 0.0
C183 C 0.94207 0.83928 0.91229 0.0
C184 C 0.04836 0.8613 0.87062 0.0
O185 O 0.001 0.82961 0.9209 0.0
O186 O 0.0535 0.86077 0.92959 0.0
C187 C 0.06698 0.91363 0.9628 0.0
N188 N 0.0784 0.92578 0.94146 0.0
C189 C 0.10148 0.98011 0.95547 0.0
C190 C 0.09025 0.96818 0.97763 0.0
C191 C 0.07296 0.93478 0.9813 0.0
C192 C 0.09537 0.95788 0.9378 0.0
H193 H 0.05333 0.88799 0.9657 0.0
C194 C 0.02633 0.8346 0.93139 0.0
O195 O 0.94847 0.82675 0.89461 0.0
O196 O 0.96619 0.8627 0.9228 0.0
N197 N 0.09654 0.94473 0.89935 0.0
C198 C 0.105 0.95243 0.87688 0.0
C199 C 0.12206 0.9849 0.87026 0.0
C200 C 0.13026 0.00915 0.8868 0.0
C201 C 0.12164 0.00068 0.90987 0.0
C202 C 0.10517 0.96792 0.91553 0.0
H203 H 0.09839 0.93395 0.86411 0.0
O204 O -0.00338 0.89572 0.88222 0.0
O205 O 0.03248 0.90008 0.90778 0.0
O206 O 0.01839 0.85046 0.87418 0.0
O207 O 0.0709 0.88103 0.88394 0.0
C208 C 0.12788 0.02343 0.92735 0.0
C209 C 0.11783 0.01317 0.95014 0.0
H210 H 0.09451 0.98441 0.99189 0.0
H211 H 0.06407 0.92536 -0.00167 0.0
H212 H 0.12857 0.99121 0.8524 0.0
H213 H 0.14293 0.03416 0.88157 0.0
H214 H 0.14 0.04887 0.92337 0.0
H215 H 0.12258 0.03089 0.96341 0.0
Mn216 Mn 0.82611 0.40569 0.45216 0.0
Mn217 Mn 0.88422 0.3967 0.42708 0.0
C218 C 0.81789 0.35491 0.44521 0.0
C219 C 0.7821 0.41273 0.44749 0.0
C220 C 0.88634 0.4176 0.47671 0.0
O221 O 0.85616 0.44955 0.43887 0.0
O222 O 0.8904 0.43982 0.4184 0.0
C223 C 0.86969 0.39581 0.37764 0.0
N224 N 0.87276 0.38072 0.39641 0.0
C225 C 0.86234 0.33445 0.3738 0.0
C226 C 0.85956 0.34971 0.35417 0.0
C227 C 0.86328 0.38056 0.35613 0.0
C228 C 0.86959 0.35121 0.3947 0.0
H229 H 0.87244 0.41945 0.37903 0.0
C230 C 0.87946 0.45817 0.42479 0.0
O231 O 0.79855 0.42121 0.46652 0.0
O232 O 0.79138 0.40047 0.43142 0.0
N233 N 0.87978 0.35571 0.43404 0.0
C234 C 0.88254 0.34406 0.45474 0.0
C235 C 0.87837 0.31301 0.45595 0.0
C236 C 0.8714 0.29427 0.4359 0.0
C237 C 0.86862 0.30675 0.4148 0.0
C238 C 0.87311 0.33788 0.41465 0.0
H239 H 0.88753 0.35817 0.47024 0.0
O240 O 0.80074 0.35927 0.46054 0.0
O241 O 0.83911 0.38047 0.43442 0.0
O242 O 0.85851 0.41462 0.47771 0.0
O243 O 0.89816 0.41248 0.4586 0.0
C244 C 0.86113 0.28935 0.39398 0.0
C245 C 0.85816 0.30327 0.37346 0.0
H246 H 0.85471 0.33793 0.33756 0.0
H247 H 0.86145 0.39278 0.34115 0.0
H248 H 0.88036 0.30349 0.47233 0.0
H249 H 0.86802 0.27027 0.43693 0.0
H250 H 0.85752 0.26523 0.39356 0.0
H251 H 0.85241 0.28968 0.35754 0.0
Mn252 Mn 0.50556 0.32868 0.41505 0.0
Mn253 Mn 0.54393 0.4056 0.39692 0.0
C254 C 0.55877 0.36229 0.42471 0.0
C255 C 0.49 0.27549 0.40665 0.0
C256 C 0.49622 0.38087 0.43663 0.0
O257 O 0.47603 0.32899 0.39028 0.0
O258 O 0.50674 0.37915 0.37636 0.0
C259 C 0.56833 0.39768 0.35197 0.0
N260 N 0.57411 0.41147 0.37325 0.0
C261 C 0.63123 0.44046 0.3664 0.0
C262 C 0.62588 0.42678 0.34435 0.0
C263 C 0.59427 0.40532 0.3371 0.0
C264 C 0.6044 0.4324 0.38032 0.0
H265 H 0.54411 0.38088 0.3464 0.0
C266 C 0.48182 0.35089 0.37556 0.0
O267 O 0.47483 0.28227 0.42223 0.0
O268 O 0.51359 0.29937 0.39605 0.0
N269 N 0.58083 0.43334 0.41516 0.0
C270 C 0.58205 0.44298 0.43741 0.0
C271 C 0.61203 0.46386 0.4475 0.0
C272 C 0.6404 0.4746 0.43464 0.0
C273 C 0.63854 0.46452 0.41174 0.0
C274 C 0.60796 0.44407 0.40249 0.0
H275 H 0.56036 0.43462 0.44743 0.0
O276 O 0.54126 0.33603 0.4362 0.0
O277 O 0.54473 0.36754 0.40755 0.0
O278 O 0.4915 0.35227 0.43735 0.0
O279 O 0.51395 0.40178 0.42163 0.0
C280 C 0.66586 0.47324 0.39794 0.0
C281 C 0.66219 0.46106 0.37535 0.0
H282 H 0.64586 0.43234 0.33293 0.0
H283 H 0.58994 0.39452 0.32015 0.0
H284 H 0.61328 0.47146 0.4652 0.0
H285 H 0.6635 0.49034 0.4426 0.0
H286 H 0.68983 0.48881 0.40468 0.0
H287 H 0.68334 0.46723 0.36509 0.0
Mn288 Mn 0.59331 0.10425 0.39991 0.0
Mn289 Mn 0.52636 0.05662 0.3695 0.0
C290 C 0.55223 0.11555 0.39966 0.0
C291 C 0.6464 0.1458 0.40129 0.0
C292 C 0.54231 0.0382 0.41542 0.0
O293 O 0.60559 0.07789 0.37964 0.0
O294 O 0.56319 0.05434 0.35559 0.0
C295 C 0.54351 0.09141 0.32504 0.0
N296 N 0.5233 0.07916 0.34344 0.0
C297 C 0.48929 0.09835 0.32864 0.0
C298 C 0.50948 0.11075 0.30938 0.0
C299 C 0.53675 0.10732 0.3076 0.0
C300 C 0.49703 0.08239 0.34535 0.0
H301 H 0.56474 0.08925 0.32374 0.0
C302 C 0.59173 0.06161 0.36164 0.0
O303 O 0.63491 0.12271 0.41629 0.0
O304 O 0.62697 0.14476 0.38535 0.0
N305 N 0.48946 0.05755 0.381 0.0
C306 C 0.47365 0.0462 0.40137 0.0
C307 C 0.44652 0.04897 0.40626 0.0
C308 C 0.43588 0.0633 0.39016 0.0
C309 C 0.45239 0.07462 0.36925 0.0
C310 C 0.47906 0.07087 0.36521 0.0
H311 H 0.48175 0.03529 0.41388 0.0
O312 O 0.5743 0.12772 0.41545 0.0
O313 O 0.55582 0.09834 0.38386 0.0
O314 O 0.56657 0.06556 0.41975 0.0
O315 O 0.52676 0.03125 0.39644 0.0
C316 C 0.44383 0.09008 0.35249 0.0
C317 C 0.46227 0.10195 0.3322 0.0
H318 H 0.50452 0.1233 0.296 0.0
H319 H 0.55264 0.11711 0.2929 0.0
H320 H 0.43395 0.04024 0.42246 0.0
H321 H 0.41516 0.06571 0.39411 0.0
H322 H 0.42337 0.09339 0.35518 0.0
H323 H 0.45573 0.11422 0.3196 0.0
Mn324 Mn 0.81824 0.54565 0.26498 0.0
Mn325 Mn 0.7958 0.59222 0.2931 0.0
C326 C 0.7701 0.54236 0.25581 0.0
C327 C 0.82 0.49846 0.26303 0.0
C328 C 0.8481 0.61718 0.25652 0.0
O329 O 0.84707 0.56069 0.29284 0.0
O330 O 0.82683 0.58676 0.3129 0.0
C331 C 0.76029 0.55035 0.33253 0.0
N332 N 0.76059 0.56656 0.31325 0.0
C333 C 0.70438 0.54914 0.31772 0.0
C334 C 0.70355 0.53251 0.33772 0.0
C335 C 0.73167 0.53319 0.34518 0.0
C336 C 0.73376 0.56633 0.30605 0.0
H337 H 0.78173 0.55053 0.33823 0.0
C338 C 0.84599 0.57556 0.31071 0.0
O339 O 0.84102 0.52414 0.25216 0.0
O340 O 0.7984 0.50047 0.27516 0.0
N341 N 0.76535 0.59804 0.27567 0.0
C342 C 0.76987 0.61422 0.25552 0.0
C343 C 0.74384 0.61507 0.24536 0.0
C344 C 0.71346 0.59928 0.25599 0.0
C345 C 0.70938 0.58277 0.27672 0.0
C346 C 0.73625 0.58292 0.28611 0.0
H347 H 0.79309 0.62619 0.24717 0.0
O348 O 0.78434 0.53312 0.24122 0.0
O349 O 0.78483 0.55336 0.27537 0.0
O350 O 0.84426 0.58989 0.25094 0.0
O351 O 0.83185 0.62101 0.2724 0.0
C352 C 0.6796 0.56576 0.28823 0.0
C353 C 0.67712 0.54902 0.30874 0.0
H354 H 0.68144 0.51908 0.34743 0.0
H355 H 0.73132 0.52052 0.36064 0.0
H356 H 0.74714 0.62775 0.22931 0.0
H357 H 0.69339 0.5998 0.24801 0.0
H358 H 0.6584 0.56521 0.28137 0.0
H359 H 0.65405 0.53587 0.31737 0.0
Mn360 Mn 0.53223 0.30971 0.19697 0.0
Mn361 Mn 0.48509 0.22999 0.20742 0.0
C362 C 0.55161 0.27523 0.18993 0.0
C363 C 0.56787 0.36098 0.21137 0.0
C364 C 0.47832 0.26334 0.16524 0.0
O365 O 0.49624 0.30742 0.21641 0.0
O366 O 0.46858 0.25457 0.22484 0.0
C367 C 0.50011 0.23036 0.2569 0.0
N368 N 0.49871 0.21903 0.23516 0.0
C369 C 0.51741 0.1838 0.24821 0.0
C370 C 0.51861 0.19477 0.27078 0.0
C371 C 0.51002 0.21824 0.27512 0.0
C372 C 0.50705 0.19654 0.23078 0.0
H373 H 0.4938 0.24858 0.26031 0.0
C374 C 0.47359 0.28332 0.22677 0.0
O375 O 0.55124 0.35721 0.19282 0.0
O376 O 0.56393 0.33513 0.22128 0.0
N377 N 0.49826 0.20302 0.19228 0.0
C378 C 0.49792 0.19658 0.16941 0.0
C379 C 0.50712 0.17453 0.16203 0.0
C380 C 0.5164 0.15916 0.17825 0.0
C381 C 0.51631 0.16592 0.20173 0.0
C382 C 0.50662 0.18791 0.20807 0.0
H383 H 0.49104 0.20845 0.15692 0.0
O384 O 0.56514 0.30346 0.18043 0.0
O385 O 0.52774 0.26837 0.20382 0.0
O386 O 0.50144 0.29165 0.16956 0.0
O387 O 0.47 0.23898 0.17826 0.0
C388 C 0.52619 0.15229 0.21904 0.0
C389 C 0.52677 0.16124 0.24226 0.0
H390 H 0.52647 0.18566 0.28485 0.0
H391 H 0.51115 0.22704 0.29246 0.0
H392 H 0.50723 0.16954 0.14386 0.0
H393 H 0.52383 0.14243 0.17247 0.0
H394 H 0.53391 0.1353 0.21463 0.0
H395 H 0.5349 0.15097 0.25536 0.0
Mn396 Mn 0.75584 0.22602 0.22145 0.0
Mn397 Mn 0.80361 0.25188 0.26821 0.0
C398 C 0.78379 0.27993 0.2299 0.0
C399 C 0.70427 0.20603 0.20717 0.0
C400 C 0.82166 0.23191 0.22361 0.0
O401 O 0.74218 0.1852 0.23942 0.0
O402 O 0.771 0.20535 0.27195 0.0
C403 C 0.75573 0.24584 0.30296 0.0
N404 N 0.78373 0.26448 0.29133 0.0
C405 C 0.7909 0.31244 0.30992 0.0
C406 C 0.76229 0.29373 0.32224 0.0
C407 C 0.74473 0.26025 0.31883 0.0
C408 C 0.80121 0.29661 0.29488 0.0
H409 H 0.74181 0.22018 0.30006 0.0
C410 C 0.74983 0.1819 0.25979 0.0
O411 O 0.7251 0.20162 0.1958 0.0
O412 O 0.71337 0.22141 0.22648 0.0
N413 N 0.83565 0.29655 0.26667 0.0
C414 C 0.86238 0.31124 0.25309 0.0
C415 C 0.8827 0.34476 0.2545 0.0
C416 C 0.87515 0.36282 0.26967 0.0
C417 C 0.8476 0.34713 0.28354 0.0
C418 C 0.82883 0.31357 0.28194 0.0
H419 H 0.86801 0.29754 0.24114 0.0
O420 O 0.77253 0.2703 0.20936 0.0
O421 O 0.77767 0.25753 0.24492 0.0
O422 O 0.79715 0.22704 0.21186 0.0
O423 O 0.82579 0.24008 0.24486 0.0
C424 C 0.83739 0.36359 0.29825 0.0
C425 C 0.80905 0.34627 0.31143 0.0
H426 H 0.75343 0.30484 0.33418 0.0
H427 H 0.72255 0.24565 0.3282 0.0
H428 H 0.90386 0.3567 0.24367 0.0
H429 H 0.89045 0.38875 0.2703 0.0
H430 H 0.85098 0.38961 0.29937 0.0
H431 H 0.80138 0.35922 0.32261 0.0
Mn432 Mn 0.47708 0.77558 0.78495 0.0
Mn433 Mn 0.52005 0.74361 0.76386 0.0
C434 C 0.45624 0.72061 0.78643 0.0
C435 C 0.44135 0.79388 0.77823 0.0
C436 C 0.53552 0.78135 0.80866 0.0
O437 O 0.51117 0.81115 0.76502 0.0
O438 O 0.53273 0.78449 0.74737 0.0
C439 C 0.49616 0.72838 0.71591 0.0
N440 N 0.50041 0.71845 0.73687 0.0
C441 C 0.47536 0.66345 0.72392 0.0
C442 C 0.47089 0.67313 0.70216 0.0
C443 C 0.48134 0.70574 0.69815 0.0
C444 C 0.49072 0.68717 0.74086 0.0
H445 H 0.50393 0.75338 0.71277 0.0
C446 C 0.52907 0.80904 0.74963 0.0
O447 O 0.46065 0.8041 0.79582 0.0
O448 O 0.44296 0.77326 0.76468 0.0
N449 N 0.50854 0.7035 0.77838 0.0
C450 C 0.51253 0.69777 0.80074 0.0
C451 C 0.50207 0.66612 0.80785 0.0
C452 C 0.48759 0.6407 0.79194 0.0
C453 C 0.48372 0.64717 0.76902 0.0
C454 C 0.49489 0.67923 0.76287 0.0
H455 H 0.52343 0.71715 0.8131 0.0
O456 O 0.44517 0.73426 0.80005 0.0
O457 O 0.47896 0.73969 0.77249 0.0
O458 O 0.51033 0.78369 0.80954 0.0
O459 O 0.54221 0.76855 0.79182 0.0
C460 C 0.46858 0.62296 0.75217 0.0
C461 C 0.46444 0.6311 0.72963 0.0
H462 H 0.45916 0.6557 0.68849 0.0
H463 H 0.47783 0.71338 0.68144 0.0
H464 H 0.505 0.6613 0.8256 0.0
H465 H 0.47927 0.61628 0.79755 0.0
H466 H 0.45964 0.59795 0.75645 0.0
H467 H 0.45235 0.61222 0.71693 0.0
Mn468 Mn 0.18302 0.74839 0.748 0.0
Mn469 Mn 0.2199 0.8232 0.72646 0.0
C470 C 0.23591 0.78374 0.75775 0.0
C471 C 0.1678 0.6947 0.74207 0.0
C472 C 0.16808 0.79909 0.76358 0.0
O473 O 0.15433 0.74647 0.72198 0.0
O474 O 0.18589 0.79397 0.70436 0.0
C475 C 0.25133 0.81571 0.68493 0.0
N476 N 0.25362 0.83005 0.70565 0.0
C477 C 0.31129 0.86179 0.70244 0.0
C478 C 0.30952 0.84756 0.68097 0.0
C479 C 0.27939 0.82442 0.67221 0.0
C480 C 0.28245 0.85248 0.71421 0.0
H481 H 0.22829 0.79762 0.67824 0.0
C482 C 0.16084 0.76574 0.70513 0.0
O483 O 0.15215 0.70265 0.75641 0.0
O484 O 0.19223 0.71786 0.73152 0.0
N485 N 0.25363 0.85279 0.74637 0.0
C486 C 0.25139 0.86231 0.76808 0.0
C487 C 0.27953 0.88436 0.77978 0.0
C488 C 0.30964 0.89635 0.76907 0.0
C489 C 0.31135 0.8862 0.74672 0.0
C490 C 0.28248 0.86442 0.73582 0.0
H491 H 0.22835 0.85304 0.77647 0.0
O492 O 0.21844 0.75852 0.77033 0.0
O493 O 0.22167 0.78699 0.73985 0.0
O494 O 0.16672 0.77238 0.76746 0.0
O495 O 0.18593 0.81882 0.748 0.0
C496 C 0.34062 0.89632 0.73504 0.0
C497 C 0.34059 0.88415 0.7129 0.0
H498 H 0.33114 0.85392 0.6712 0.0
H499 H 0.27779 0.81314 0.65576 0.0
H500 H 0.27802 0.89198 0.79706 0.0
H501 H 0.3313 0.91313 0.77823 0.0
H502 H 0.36333 0.91312 0.74305 0.0
H503 H 0.36327 0.89174 0.70424 0.0
Mn504 Mn 0.21173 0.47764 0.74782 0.0
Mn505 Mn 0.14838 0.44138 0.71197 0.0
C506 C 0.17851 0.49875 0.74346 0.0
C507 C 0.26633 0.5131 0.75303 0.0
C508 C 0.15009 0.4161 0.7593 0.0
O509 O 0.22065 0.44743 0.72909 0.0
O510 O 0.18135 0.4299 0.70244 0.0
C511 C 0.17917 0.47558 0.66887 0.0
N512 N 0.15604 0.46726 0.68525 0.0
C513 C 0.13528 0.49749 0.66637 0.0
C514 C 0.15865 0.50606 0.64913 0.0
C515 C 0.18068 0.49505 0.65045 0.0
C516 C 0.13466 0.47765 0.68419 0.0
H517 H 0.19644 0.46756 0.66991 0.0
C518 C 0.20707 0.43199 0.71074 0.0
O519 O 0.25006 0.49001 0.7676 0.0
O520 O 0.25095 0.51522 0.73544 0.0
N521 N 0.11545 0.45135 0.71918 0.0
C522 C 0.09568 0.44247 0.7379 0.0
C523 C 0.07289 0.45247 0.73972 0.0
C524 C 0.07063 0.47144 0.7223 0.0
C525 C 0.09111 0.48013 0.70314 0.0
C526 C 0.11312 0.46918 0.70215 0.0
H527 H 0.09744 0.42809 0.75142 0.0
O528 O 0.19732 0.50636 0.7612 0.0
O529 O 0.18059 0.47977 0.7284 0.0
O530 O 0.17695 0.4399 0.76553 0.0
O531 O 0.13792 0.41323 0.7393 0.0
C532 C 0.09098 0.49977 0.68522 0.0
C533 C 0.11304 0.50843 0.66684 0.0
H534 H 0.16008 0.52132 0.63499 0.0
H535 H 0.19895 0.50158 0.63745 0.0
H536 H 0.05722 0.44574 0.75459 0.0
H537 H 0.05324 0.47938 0.72389 0.0
H538 H 0.07428 0.50866 0.68555 0.0
H539 H 0.11298 0.52385 0.6533 0.0
Mn540 Mn 0.45564 0.81562 0.56367 0.0
Mn541 Mn 0.42545 0.86104 0.58386 0.0
C542 C 0.40452 0.80305 0.55292 0.0
C543 C 0.46721 0.77474 0.57025 0.0
C544 C 0.47301 0.88081 0.54436 0.0
O545 O 0.48667 0.84261 0.58889 0.0
O546 O 0.46017 0.86532 0.60474 0.0
C547 C 0.39582 0.82594 0.62708 0.0
N548 N 0.39307 0.83798 0.60657 0.0
C549 C 0.33709 0.81963 0.61354 0.0
C550 C 0.33938 0.80723 0.63482 0.0
C551 C 0.36887 0.81037 0.6416 0.0
C552 C 0.36482 0.8351 0.59987 0.0
H553 H 0.4184 0.82815 0.6323 0.0
C554 C 0.48319 0.8592 0.60455 0.0
O555 O 0.48364 0.7975 0.55551 0.0
O556 O 0.444 0.77569 0.58102 0.0
N557 N 0.39139 0.85933 0.56575 0.0
C558 C 0.39276 0.87111 0.5442 0.0
C559 C 0.36501 0.86906 0.5346 0.0
C560 C 0.33627 0.85532 0.54734 0.0
C561 C 0.33556 0.84385 0.56962 0.0
C562 C 0.36403 0.84672 0.57835 0.0
H563 H 0.41478 0.8818 0.53433 0.0
O564 O 0.41966 0.79126 0.54173 0.0
O565 O 0.41885 0.82013 0.57117 0.0
O566 O 0.47355 0.85467 0.54264 0.0
O567 O 0.45782 0.88638 0.56012 0.0
C568 C 0.30751 0.82891 0.58325 0.0
C569 C 0.30825 0.81669 0.60515 0.0
H570 H 0.3186 0.79497 0.64599 0.0
H571 H 0.37078 0.80073 0.65795 0.0
H572 H 0.36576 0.87801 0.51741 0.0
H573 H 0.31483 0.85349 0.53978 0.0
H574 H 0.2851 0.82616 0.57689 0.0
H575 H 0.28636 0.80469 0.61524 0.0
Mn576 Mn 0.15821 0.6212 0.53627 0.0
Mn577 Mn 0.1449 0.57182 0.58112 0.0
C578 C 0.17976 0.588 0.53616 0.0
C579 C 0.19065 0.6725 0.52191 0.0
C580 C 0.09497 0.55899 0.54465 0.0
O581 O 0.14197 0.639 0.5609 0.0
O582 O 0.13628 0.60667 0.59072 0.0
C583 C 0.1985 0.6176 0.61086 0.0
N584 N 0.1834 0.58927 0.59905 0.0
C585 C 0.22392 0.57652 0.61007 0.0
C586 C 0.23978 0.60545 0.62249 0.0
C587 C 0.227 0.62607 0.62289 0.0
C588 C 0.19538 0.56916 0.59866 0.0
H589 H 0.18893 0.63367 0.61103 0.0
C590 C 0.13491 0.63032 0.58176 0.0
O591 O 0.16155 0.65483 0.51398 0.0
O592 O 0.20044 0.66025 0.5374 0.0
N593 N 0.15271 0.53738 0.57415 0.0
C594 C 0.13519 0.51102 0.56062 0.0
C595 C 0.14494 0.4881 0.55819 0.0
C596 C 0.17264 0.49259 0.5696 0.0
C597 C 0.19023 0.51988 0.58346 0.0
C598 C 0.17902 0.54159 0.58559 0.0
H599 H 0.11411 0.50766 0.55161 0.0
O600 O 0.17656 0.59977 0.51694 0.0
O601 O 0.17007 0.59607 0.55455 0.0
O602 O 0.11225 0.58358 0.53201 0.0
O603 O 0.10488 0.55231 0.56308 0.0
C604 C 0.21889 0.52678 0.5948 0.0
C605 C 0.23571 0.55507 0.60811 0.0
H606 H 0.26194 0.61222 0.63159 0.0
H607 H 0.2392 0.64853 0.63233 0.0
H608 H 0.13131 0.46718 0.54737 0.0
H609 H 0.18037 0.47512 0.5674 0.0
H610 H 0.22833 0.5106 0.59329 0.0
H611 H 0.25783 0.56021 0.61661 0.0
Mn612 Mn 0.38746 0.5155 0.56581 0.0
Mn613 Mn 0.44347 0.51809 0.60146 0.0
C614 C 0.43639 0.56243 0.56921 0.0
C615 C 0.34341 0.52192 0.55983 0.0
C616 C 0.42668 0.48362 0.55528 0.0
O617 O 0.36201 0.47705 0.58647 0.0
O618 O 0.40007 0.48355 0.61206 0.0
C619 C 0.42655 0.53942 0.64451 0.0
N620 N 0.44828 0.54448 0.62759 0.0
C621 C 0.48731 0.59505 0.64446 0.0
C622 C 0.46544 0.59024 0.66214 0.0
C623 C 0.43492 0.5623 0.66216 0.0
C624 C 0.47777 0.57122 0.62747 0.0
H625 H 0.40291 0.5182 0.64447 0.0
C626 C 0.3708 0.46928 0.6049 0.0
O627 O 0.34902 0.50374 0.54627 0.0
O628 O 0.36284 0.53544 0.577 0.0
N629 N 0.48581 0.5514 0.59301 0.0
C630 C 0.50327 0.5535 0.57391 0.0
C631 C 0.53396 0.58061 0.57085 0.0
C632 C 0.54634 0.6053 0.5874 0.0
C633 C 0.52791 0.60265 0.60689 0.0
C634 C 0.4976 0.57493 0.60913 0.0
H635 H 0.49378 0.53475 0.56102 0.0
O636 O 0.41893 0.5567 0.55087 0.0
O637 O 0.4247 0.53981 0.58465 0.0
O638 O 0.4068 0.49228 0.5492 0.0
O639 O 0.44096 0.49087 0.57478 0.0
C640 C 0.53819 0.62671 0.62396 0.0
C641 C 0.51791 0.62291 0.64273 0.0
H642 H 0.4717 0.608 0.67565 0.0
H643 H 0.41783 0.55853 0.67566 0.0
H644 H 0.54798 0.58255 0.5557 0.0
H645 H 0.56992 0.6263 0.58488 0.0
H646 H 0.5615 0.64842 0.62268 0.0
H647 H 0.52591 0.64176 0.6556 0.0
H648 H 0.44131 0.28975 0.15584 0.0
H649 H 0.3563 0.17205 0.04887 0.0
H650 H 0.47031 0.22481 0.12849 0.0
H651 H 0.31042 0.21196 0.09073 0.0
H652 H 0.40542 0.20245 0.07153 0.0
H653 H 0.40068 0.27282 0.12525 0.0
C654 C 0.43953 0.27247 0.14306 0.0
C655 C 0.45869 0.25825 0.14471 0.0
C656 C 0.38466 0.20476 0.07556 0.0
C657 C 0.41265 0.23879 0.11005 0.0
C658 C 0.35663 0.18746 0.06263 0.0
C659 C 0.32902 0.18904 0.06816 0.0
C660 C 0.38516 0.22398 0.09398 0.0
C661 C 0.33096 0.20958 0.08611 0.0
C662 C 0.41632 0.26268 0.12577 0.0
C663 C 0.45552 0.23582 0.12799 0.0
N664 N 0.3585 0.2261 0.09849 0.0
N665 N 0.43274 0.22659 0.11139 0.0
H666 H 0.90811 0.12398 0.18189 0.0
H667 H 0.86522 0.21942 0.24438 0.0
H668 H 0.92205 0.18733 0.12489 0.0
H669 H 0.83251 0.23026 0.17759 0.0
H670 H 0.89913 0.20161 0.22553 0.0
H671 H 0.8933 0.15604 0.20612 0.0
C672 C 0.90871 0.14498 0.17459 0.0
C673 C 0.91572 0.15258 0.15121 0.0
C674 C 0.88457 0.20799 0.21507 0.0
C675 C 0.89921 0.18952 0.17886 0.0
C676 C 0.86544 0.2184 0.22575 0.0
C677 C 0.84547 0.2256 0.2125 0.0
C678 C 0.88377 0.20501 0.19103 0.0
C679 C 0.84698 0.22424 0.18846 0.0
C680 C 0.90057 0.16348 0.18851 0.0
C681 C 0.91637 0.18024 0.14273 0.0
N682 N 0.86568 0.2139 0.17848 0.0
N683 N 0.90747 0.19728 0.15643 0.0
H684 H 0.89056 0.61902 0.22444 0.0
H685 H 0.95483 0.80142 0.18838 0.0
H686 H 0.86135 0.68 0.25897 0.0
H687 H 0.95263 0.72877 0.1436 0.0
H688 H 0.93464 0.76219 0.22008 0.0
H689 H 0.92711 0.66428 0.20059 0.0
C690 C 0.89189 0.64197 0.22714 0.0
C691 C 0.87228 0.64548 0.24347 0.0
C692 C 0.93941 0.75516 0.20347 0.0
C693 C 0.91442 0.69754 0.21614 0.0
C694 C 0.95122 0.77754 0.18555 0.0
C695 C 0.95546 0.76807 0.16361 0.0
C696 C 0.9322 0.72344 0.19923 0.0
C697 C 0.94977 0.73681 0.16041 0.0
C698 C 0.9129 0.66783 0.21352 0.0
C699 C 0.87568 0.67606 0.24639 0.0
N700 N 0.93823 0.71549 0.17802 0.0
N701 N 0.89613 0.70091 0.23264 0.0
H702 H 0.15027 0.42287 0.8056 0.0
H703 H 0.07181 0.23732 0.83252 0.0
H704 H 0.11051 0.3515 0.75161 0.0
H705 H 0.08162 0.30807 0.88291 0.0
H706 H 0.08619 0.27778 0.80228 0.0
H707 H 0.12565 0.38025 0.83414 0.0
C708 C 0.13614 0.39814 0.79979 0.0
C709 C 0.13258 0.39055 0.7763 0.0
C710 C 0.08481 0.28418 0.81996 0.0
C711 C 0.10459 0.34161 0.80882 0.0
C712 C 0.07677 0.2612 0.83723 0.0
C713 C 0.07597 0.26941 0.86036 0.0
C714 C 0.09235 0.31551 0.82597 0.0
C715 C 0.08232 0.30065 0.86541 0.0
C716 C 0.12197 0.37383 0.81606 0.0
C717 C 0.11376 0.35821 0.76963 0.0
N718 N 0.09054 0.32259 0.8484 0.0
N719 N 0.10078 0.33474 0.78588 0.0
H720 H 0.70832 0.89619 0.88555 0.0
H721 H 0.52389 0.79023 0.8535 0.0
H722 H 0.63791 0.83981 0.93746 0.0
H723 H 0.60009 0.80419 0.80703 0.0
H724 H 0.56383 0.81554 0.88436 0.0
H725 H 0.6669 0.87068 0.85611 0.0
C726 C 0.68405 0.87872 0.89081 0.0
C727 C 0.67653 0.87009 0.91401 0.0
C728 C 0.57162 0.81286 0.8674 0.0
C729 C 0.62914 0.84089 0.88034 0.0
C730 C 0.54898 0.79858 0.84982 0.0
C731 C 0.55878 0.79516 0.82771 0.0
C732 C 0.60422 0.8244 0.86261 0.0
C733 C 0.5915 0.80621 0.82385 0.0
C734 C 0.66054 0.86401 0.87396 0.0
C735 C 0.64471 0.84705 0.91975 0.0
N736 N 0.61313 0.82065 0.84109 0.0
N737 N 0.62203 0.83328 0.90299 0.0
H738 H 0.16708 0.85548 0.76325 0.0
H739 H 0.03014 0.79937 0.85962 0.0
H740 H 0.12121 0.76136 0.79478 0.0
H741 H 0.08963 0.89723 0.83671 0.0
H742 H 0.05585 0.78209 0.83075 0.0
H743 H 0.13225 0.86852 0.7856 0.0
C744 C 0.1497 0.83752 0.77487 0.0
C745 C 0.14733 0.80737 0.77729 0.0
C746 C 0.06293 0.80729 0.83187 0.0
C747 C 0.10719 0.82216 0.80287 0.0
C748 C 0.04808 0.81704 0.84813 0.0
C749 C 0.05819 0.84975 0.85059 0.0
C750 C 0.08777 0.83053 0.81804 0.0
C751 C 0.08167 0.87189 0.8356 0.0
C752 C 0.12974 0.84498 0.78759 0.0
C753 C 0.12415 0.78504 0.79253 0.0
N754 N 0.09584 0.86191 0.82004 0.0
N755 N 0.10503 0.79293 0.80482 0.0
H756 H 0.89467 0.46846 0.50245 0.0
H757 H 0.05554 0.57393 0.52059 0.0
H758 H 0.92951 0.40213 0.49353 0.0
H759 H 0.05724 0.49542 0.5552 0.0
H760 H -0.00131 0.53779 0.51143 0.0
H761 H 0.94329 0.50402 0.5246 0.0
C762 C 0.91196 0.46084 0.50593 0.0
C763 C 0.90851 0.43267 0.496 0.0
C764 C 0.01143 0.52873 0.52142 0.0
C765 C 0.96385 0.47312 0.52056 0.0
C766 C 0.04394 0.54911 0.52623 0.0
C767 C 0.06109 0.53749 0.53842 0.0
C768 C -0.0037 0.49649 0.52855 0.0
C769 C 0.04487 0.50526 0.54564 0.0
C770 C 0.93981 0.48131 0.51818 0.0
C771 C 0.93161 0.42388 0.50075 0.0
N772 N 0.01344 0.48566 0.54021 0.0
N773 N 0.95861 0.44429 0.51255 0.0
H774 H 0.41195 0.47571 0.50963 0.0
H775 H 0.48334 0.36156 0.4817 0.0
H776 H 0.45808 0.44955 0.56215 0.0
H777 H 0.47666 0.42453 0.43205 0.0
H778 H 0.464 0.38405 0.5117 0.0
H779 H 0.42533 0.44705 0.48129 0.0
C780 C 0.42475 0.46378 0.51529 0.0
C781 C 0.43407 0.46522 0.53835 0.0
C782 C 0.46662 0.39267 0.49418 0.0
C783 C 0.44936 0.43219 0.50578 0.0
C784 C 0.47735 0.37973 0.47708 0.0
C785 C 0.4816 0.39132 0.45444 0.0
C786 C 0.45957 0.41677 0.48835 0.0
C787 C 0.47387 0.41509 0.44934 0.0
C788 C 0.43245 0.44749 0.49903 0.0
C789 C 0.45066 0.44925 0.54454 0.0
N790 N 0.46316 0.42697 0.46614 0.0
N791 N 0.4578 0.43331 0.5283 0.0
H792 H 0.50666 0.97213 0.41175 0.0
H793 H 0.49558 0.94523 0.5471 0.0
H794 H 0.55445 0.04941 0.46106 0.0
H795 H 0.48239 0.87042 0.49948 0.0
H796 H 0.51289 0.98324 0.5152 0.0
H797 H 0.49206 0.93322 0.44335 0.0
C798 C 0.51393 0.98086 0.42917 0.0
C799 C 0.53187 0.01396 0.43381 0.0
C800 C 0.50654 0.95858 0.51176 0.0
C801 C 0.51537 0.97002 0.46969 0.0
C802 C 0.49673 0.93693 0.52995 0.0
C803 C 0.48771 0.90475 0.52589 0.0
C804 C 0.50676 0.94782 0.48931 0.0
C805 C 0.4895 0.89517 0.50334 0.0
C806 C 0.50586 0.95874 0.44709 0.0
C807 C 0.54084 0.02409 0.45665 0.0
N808 N 0.4985 0.91659 0.48577 0.0
N809 N 0.53238 0.00222 0.47372 0.0
H810 H 0.12431 0.11363 0.0393 0.0
H811 H 0.01832 0.1339 0.13696 0.0
H812 H 0.16521 0.16504 0.10272 0.0
H813 H 0.97963 0.07309 0.07723 0.0
H814 H 0.07302 0.15006 0.12368 0.0
H815 H 0.07191 0.10457 0.05122 0.0
C816 C 0.12226 0.12318 0.05573 0.0
C817 C 0.149 0.13975 0.07021 0.0
C818 C 0.05258 0.13342 0.11339 0.0
C819 C 0.08888 0.129 0.08415 0.0
C820 C 0.02155 0.12436 0.1209 0.0
C821 C -0.00507 0.1034 0.10752 0.0
C822 C 0.05663 0.12075 0.09266 0.0
C823 C -0.00017 0.09045 0.08741 0.0
C824 C 0.09229 0.11791 0.06256 0.0
C825 C 0.14509 0.15201 0.09113 0.0
N826 N 0.03015 0.09946 0.0805 0.0
N827 N 0.11539 0.14609 0.09763 0.0
H828 H 0.89648 0.98386 0.17148 0.0
H829 H 0.92967 0.87447 0.09059 0.0
H830 H 0.86077 0.95997 0.10203 0.0
H831 H 0.9412 0.87389 0.16402 0.0
H832 H 0.8971 0.89972 0.09603 0.0
H833 H 0.9037 0.93686 0.1719 0.0
C834 C 0.88875 0.96784 0.15674 0.0
C835 C 0.87859 0.97592 0.13654 0.0
C836 C 0.90603 0.89348 0.11109 0.0
C837 C 0.88767 0.92312 0.13657 0.0
C838 C 0.92446 0.8789 0.10793 0.0
C839 C 0.93702 0.8712 0.12692 0.0
C840 C 0.90136 0.90179 0.13341 0.0
C841 C 0.93126 0.87901 0.149 0.0
C842 C 0.8932 0.94123 0.15686 0.0
C843 C 0.86918 0.9547 0.1178 0.0
N844 N 0.91403 0.89421 0.15168 0.0
N845 N 0.87463 0.92967 0.11806 0.0
H846 H 0.23029 0.05304 0.08658 0.0
H847 H 0.05495 0.91341 0.05565 0.0
H848 H 0.18013 0.05041 0.02456 0.0
H849 H 0.10735 0.9119 0.11537 0.0
H850 H 0.10451 0.95816 0.0402 0.0
H851 H 0.19107 0.99613 0.09301 0.0
C852 C 0.21177 0.04003 0.07381 0.0
C853 C 0.2085 0.05627 0.05496 0.0
C854 C 0.10535 0.94786 0.05656 0.0
C855 C 0.16268 0.99172 0.06268 0.0
C856 C 0.07698 0.92237 0.06546 0.0
C857 C 0.0769 0.90932 0.08706 0.0
C858 C 0.13388 0.96079 0.06949 0.0
C859 C 0.10625 0.92151 0.09879 0.0
C860 C 0.18917 0.00764 0.07758 0.0
C861 C 0.1838 0.0386 0.0391 0.0
N862 N 0.13346 0.94691 0.09003 0.0
N863 N 0.16143 0.00744 0.04357 0.0
H864 H 0.03326 0.95259 0.92945 0.0
H865 H 0.06758 0.10513 0.85412 0.0
H866 H 0.04002 0.95342 0.85549 0.0
H867 H 0.06896 0.10355 0.92838 0.0
H868 H 0.06265 0.0517 0.85356 0.0
H869 H 0.05048 0.00972 0.92898 0.0
C870 C 0.03914 0.96518 0.91314 0.0
C871 C 0.03655 0.94893 0.89256 0.0
C872 C 0.06443 0.0633 0.86994 0.0
C873 C 0.05491 0.01387 0.89163 0.0
C874 C 0.06734 0.09377 0.87025 0.0
C875 C 0.06812 0.10844 0.89132 0.0
C876 C 0.0623 0.04768 0.89086 0.0
C877 C 0.06785 0.09283 0.91174 0.0
C878 C 0.04871 -0.0023 0.9128 0.0
C879 C 0.04265 0.96563 0.87173 0.0
N880 N 0.06467 0.06323 0.91099 0.0
N881 N 0.05166 -0.00265 0.87176 0.0
H882 H -0.00274 0.15221 0.95339 0.0
H883 H 0.81549 0.03898 0.9161 0.0
H884 H 0.95551 0.16448 0.89148 0.0
H885 H 0.86063 0.02096 0.97378 0.0
H886 H 0.86209 0.09324 0.91299 0.0
H887 H 0.9433 0.11414 0.96759 0.0
C888 C 0.97658 0.14797 0.94327 0.0
C889 C 0.98061 0.16156 0.92134 0.0
C890 C 0.8616 0.07758 0.92654 0.0
C891 C 0.91911 0.11683 0.93679 0.0
C892 C 0.83503 0.04656 0.92828 0.0
C893 C 0.83454 0.02518 0.94487 0.0
C894 C 0.88792 0.08721 0.94143 0.0
C895 C 0.8603 0.03645 0.96043 0.0
C896 C 0.9458 0.12586 0.9512 0.0
C897 C 0.9532 0.15447 0.90852 0.0
N898 N 0.88616 0.06654 0.95812 0.0
N899 N 0.92358 0.13215 0.91626 0.0
H900 H 0.88855 0.81726 0.8849 0.0
H901 H 0.81653 0.88867 0.9744 0.0
H902 H 0.92147 0.84375 0.95481 0.0
H903 H 0.78053 0.86083 0.90538 0.0
H904 H 0.84635 0.86019 0.97022 0.0
H905 H 0.84026 0.82004 0.89455 0.0
C906 C 0.88506 0.82256 0.90245 0.0
C907 C 0.90918 0.83089 0.91899 0.0
C908 C 0.8314 0.85959 0.9561 0.0
C909 C 0.85467 0.83476 0.93003 0.0
C910 C 0.81415 0.87559 0.95862 0.0
C911 C 0.79548 0.87622 0.94043 0.0
C912 C 0.83098 0.84522 0.93487 0.0
C913 C 0.79438 0.86035 0.91989 0.0
C914 C 0.85766 0.82443 0.90793 0.0
C915 C 0.90363 0.83774 0.94145 0.0
N916 N 0.81215 0.84571 0.91755 0.0
N917 N 0.87725 0.84006 0.94621 0.0
H918 H 0.74612 0.42203 0.48022 0.0
H919 H 0.60226 0.37263 0.39159 0.0
H920 H 0.75161 0.4083 0.40726 0.0
H921 H 0.59385 0.38644 0.464 0.0
H922 H 0.65983 0.39379 0.39651 0.0
H923 H 0.69339 0.41742 0.47432 0.0
C924 C 0.73647 0.41857 0.46295 0.0
C925 C 0.75291 0.41497 0.44425 0.0
C926 C 0.64566 0.39277 0.41134 0.0
C927 C 0.69291 0.40957 0.4374 0.0
C928 C 0.61289 0.381 0.40844 0.0
C929 C 0.59381 0.37892 0.42728 0.0
C930 C 0.65925 0.40154 0.43343 0.0
C931 C 0.60816 0.38841 0.44901 0.0
C932 C 0.70639 0.41586 0.4596 0.0
C933 C 0.73948 0.41065 0.42222 0.0
N934 N 0.64014 0.39927 0.45155 0.0
N935 N 0.71017 0.40777 0.41945 0.0
H936 H 0.49859 0.2518 0.3666 0.0
H937 H 0.51159 0.11508 0.43244 0.0
H938 H 0.46779 0.22497 0.43684 0.0
H939 H 0.54422 0.14553 0.36306 0.0
H940 H 0.48299 0.14532 0.43151 0.0
H941 H 0.50156 0.20298 0.36185 0.0
C942 C 0.49178 0.23517 0.3809 0.0
C943 C 0.4835 0.24258 0.40226 0.0
C944 C 0.49565 0.14469 0.41625 0.0
C945 C 0.48779 0.18715 0.39721 0.0
C946 C 0.51189 0.12744 0.4168 0.0
C947 C 0.52961 0.12743 0.39763 0.0
C948 C 0.49804 0.16276 0.39661 0.0
C949 C 0.53005 0.14432 0.37795 0.0
C950 C 0.49356 0.20734 0.37821 0.0
C951 C 0.4745 0.22015 0.42013 0.0
N952 N 0.51474 0.16154 0.37801 0.0
N953 N 0.47763 0.19372 0.41739 0.0
H954 H 0.80287 0.30002 0.4683 0.0
H955 H 0.67857 0.19692 0.37198 0.0
H956 H 0.80222 0.33664 0.40085 0.0
H957 H 0.68982 0.15682 0.43528 0.0
H958 H 0.73026 0.24565 0.37908 0.0
H959 H 0.76891 0.24514 0.45381 0.0
C960 C 0.79632 0.2963 0.45025 0.0
C961 C 0.80542 0.32256 0.43565 0.0
C962 C 0.72169 0.22599 0.39125 0.0
C963 C 0.76563 0.26035 0.41914 0.0
C964 C 0.69211 0.19821 0.38722 0.0
C965 C 0.67956 0.17315 0.40336 0.0
C966 C 0.73849 0.22883 0.41172 0.0
C967 C 0.69834 0.17583 0.4226 0.0
C968 C 0.7769 0.26508 0.44196 0.0
C969 C 0.79604 0.31682 0.4125 0.0
N970 N 0.72658 0.20343 0.42646 0.0
N971 N 0.77616 0.28631 0.40502 0.0
H972 H 0.83203 0.3356 0.2117 0.0
H973 H 0.7838 0.44391 0.2878 0.0
H974 H 0.75505 0.29827 0.2614 0.0
H975 H 0.85418 0.48272 0.23314 0.0
H976 H 0.77811 0.39125 0.28135 0.0
H977 H 0.84465 0.39055 0.22147 0.0
C978 C 0.81817 0.33918 0.2249 0.0
C979 C 0.79346 0.31288 0.23655 0.0
C980 C 0.79488 0.41126 0.27078 0.0
C981 C 0.80682 0.37486 0.24726 0.0
C982 C 0.79821 0.44137 0.2745 0.0
C983 C 0.81921 0.46758 0.26078 0.0
C984 C 0.81246 0.40724 0.25306 0.0
C985 C 0.83757 0.46303 0.244 0.0
C986 C 0.82523 0.37035 0.2304 0.0
C987 C 0.77518 0.31824 0.2528 0.0
N988 N 0.83354 0.43326 0.24044 0.0
N989 N 0.7823 0.34868 0.25775 0.0
H990 H 0.73734 0.54398 0.21821 0.0
H991 H 0.59239 0.37559 0.25476 0.0
H992 H 0.72389 0.50558 0.28682 0.0
H993 H 0.59625 0.4194 0.18926 0.0
H994 H 0.63554 0.42718 0.26883 0.0
H995 H 0.68116 0.5044 0.20944 0.0
C996 C 0.72209 0.52806 0.23171 0.0
C997 C 0.73507 0.52815 0.2533 0.0
C998 C 0.62675 0.42576 0.25147 0.0
C999 C 0.67138 0.48194 0.24319 0.0
C1000 C 0.60217 0.39621 0.24339 0.0
C1001 C 0.59113 0.3931 0.22067 0.0
C1002 C 0.64096 0.45237 0.23659 0.0
C1003 C 0.6043 0.42072 0.20683 0.0
C1004 C 0.69012 0.50528 0.22667 0.0
C1005 C 0.71462 0.5067 0.2701 0.0
N1006 N 0.62897 0.44909 0.21486 0.0
N1007 N 0.68397 0.48403 0.26455 0.0
H1008 H 0.57266 0.25772 0.15178 0.0
H1009 H 0.64796 0.17648 0.23007 0.0
H1010 H 0.56922 0.25214 0.2258 0.0
H1011 H 0.68984 0.21991 0.16483 0.0
H1012 H 0.60255 0.18435 0.22218 0.0
H1013 H 0.60241 0.22821 0.15126 0.0
C1014 C 0.5777 0.24972 0.16783 0.0
C1015 C 0.56755 0.25607 0.18884 0.0
C1016 C 0.62116 0.19128 0.20925 0.0
C1017 C 0.60108 0.22275 0.18838 0.0
C1018 C 0.64682 0.18642 0.21361 0.0
C1019 C 0.67263 0.19789 0.19814 0.0
C1020 C 0.62173 0.20822 0.18948 0.0
C1021 C 0.67025 0.21076 0.17712 0.0
C1022 C 0.59445 0.2329 0.16752 0.0
C1023 C 0.57544 0.24637 0.20925 0.0
N1024 N 0.64554 0.21643 0.1736 0.0
N1025 N 0.59157 0.23 0.20851 0.0
H1026 H 0.27623 0.79005 0.72325 0.0
H1027 H 0.41842 0.82142 0.80871 0.0
H1028 H 0.27432 0.80832 0.79569 0.0
H1029 H 0.40953 0.78867 0.73844 0.0
H1030 H 0.37279 0.83006 0.80251 0.0
H1031 H 0.33228 0.80418 0.72666 0.0
C1032 C 0.2881 0.79826 0.73974 0.0
C1033 C 0.27107 0.79894 0.75909 0.0
C1034 C 0.38121 0.82146 0.78838 0.0
C1035 C 0.33459 0.81293 0.76357 0.0
C1036 C 0.40723 0.81659 0.79189 0.0
C1037 C 0.41731 0.80377 0.77416 0.0
C1038 C 0.36549 0.81366 0.76697 0.0
C1039 C 0.40214 0.79804 0.75269 0.0
C1040 C 0.31997 0.80584 0.74179 0.0
C1041 C 0.28697 0.80802 0.78033 0.0
N1042 N 0.37685 0.80276 0.74977 0.0
N1043 N 0.31785 0.81435 0.78209 0.0
H1044 H 0.13881 0.50865 0.77122 0.0
H1045 H 0.18589 0.67083 0.70623 0.0
H1046 H 0.18739 0.53529 0.70573 0.0
H1047 H 0.13038 0.64193 0.76903 0.0
H1048 H 0.17788 0.61682 0.7023 0.0
H1049 H 0.12624 0.5519 0.76733 0.0
C1050 C 0.14588 0.52304 0.75568 0.0
C1051 C 0.16359 0.51822 0.73857 0.0
C1052 C 0.16706 0.62205 0.71682 0.0
C1053 C 0.15061 0.56838 0.73437 0.0
C1054 C 0.17175 0.65297 0.71911 0.0
C1055 C 0.15929 0.66098 0.73823 0.0
C1056 C 0.15027 0.59907 0.73398 0.0
C1057 C 0.14067 0.63678 0.75416 0.0
C1058 C 0.13886 0.54776 0.75349 0.0
C1059 C 0.17297 0.53782 0.71901 0.0
N1060 N 0.13719 0.60701 0.7519 0.0
N1061 N 0.1667 0.56232 0.71756 0.0
H1062 H 0.43146 0.67019 0.81674 0.0
H1063 H 0.30948 0.55327 0.72142 0.0
H1064 H 0.4331 0.69372 0.74509 0.0
H1065 H 0.30019 0.52893 0.79353 0.0
H1066 H 0.36235 0.59977 0.72895 0.0
H1067 H 0.39042 0.6141 0.80799 0.0
C1068 C 0.42371 0.66325 0.79911 0.0
C1069 C 0.43607 0.68615 0.78147 0.0
C1070 C 0.34899 0.58413 0.74315 0.0
C1071 C 0.38903 0.62285 0.77142 0.0
C1072 C 0.31879 0.55755 0.73883 0.0
C1073 C 0.30027 0.53765 0.75696 0.0
C1074 C 0.36052 0.59125 0.76585 0.0
C1075 C 0.31367 0.54394 0.77911 0.0
C1076 C 0.40038 0.6314 0.79411 0.0
C1077 C 0.42485 0.67646 0.75901 0.0
N1078 N 0.34282 0.57062 0.78305 0.0
N1079 N 0.40192 0.64561 0.75464 0.0
H1080 H 0.50562 0.75908 0.54487 0.0
H1081 H 0.43543 0.59139 0.60903 0.0
H1082 H 0.44391 0.73014 0.60465 0.0
H1083 H 0.48158 0.61082 0.54265 0.0
H1084 H 0.45455 0.64849 0.61383 0.0
H1085 H 0.51088 0.71124 0.54934 0.0
C1086 C 0.49354 0.74291 0.55911 0.0
C1087 C 0.47377 0.74822 0.57415 0.0
C1088 C 0.46141 0.64053 0.59848 0.0
C1089 C 0.47992 0.69374 0.57946 0.0
C1090 C 0.45107 0.60792 0.59596 0.0
C1091 C 0.45738 0.59645 0.57555 0.0
C1092 C 0.47733 0.66167 0.58015 0.0
C1093 C 0.4764 0.61884 0.55869 0.0
C1094 C 0.49661 0.71566 0.56167 0.0
C1095 C 0.45892 0.72667 0.59241 0.0
N1096 N 0.48519 0.65036 0.56114 0.0
N1097 N 0.46205 0.70024 0.59441 0.0
H1098 H 0.23113 0.69355 0.4853 0.0
H1099 H 0.35039 0.77581 0.57905 0.0
H1100 H 0.20298 0.72552 0.54561 0.0
H1101 H 0.38452 0.80719 0.51006 0.0
H1102 H 0.2953 0.75701 0.56603 0.0
H1103 H 0.28642 0.73785 0.49034 0.0
C1104 C 0.23615 0.71122 0.49868 0.0
C1105 C 0.21271 0.70581 0.51523 0.0
C1106 C 0.31493 0.76883 0.55385 0.0
C1107 C 0.27576 0.75498 0.52188 0.0
C1108 C 0.34625 0.77956 0.5613 0.0
C1109 C 0.37186 0.79426 0.54578 0.0
C1110 C 0.30915 0.77156 0.53049 0.0
C1111 C 0.36523 0.7967 0.5226 0.0
C1112 C 0.26784 0.73617 0.50182 0.0
C1113 C 0.22055 0.72894 0.53256 0.0
N1114 N 0.33437 0.78514 0.51553 0.0
N1115 N 0.25178 0.75176 0.53609 0.0
H1116 H 0.29774 0.49821 0.52543 0.0
H1117 H 0.23451 0.61762 0.56022 0.0
H1118 H 0.33049 0.56237 0.58403 0.0
H1119 H 0.18073 0.5378 0.51415 0.0
H1120 H 0.27483 0.60158 0.56425 0.0
H1121 H 0.25773 0.51455 0.51744 0.0
C1122 C 0.2964 0.51554 0.53665 0.0
C1123 C 0.3175 0.52905 0.55537 0.0
C1124 C 0.25421 0.58736 0.5533 0.0
C1125 C 0.2726 0.54808 0.54613 0.0
C1126 C 0.23121 0.59647 0.55109 0.0
C1127 C 0.20385 0.57807 0.53766 0.0
C1128 C 0.24987 0.55966 0.54192 0.0
C1129 C 0.20121 0.55184 0.52524 0.0
C1130 C 0.27371 0.52487 0.53204 0.0
C1131 C 0.31482 0.55136 0.56937 0.0
N1132 N 0.22383 0.54299 0.52792 0.0
N1133 N 0.29296 0.56027 0.56437 0.0
H1134 H 0.24398 0.229 0.02101 0.0
H1135 H 0.16186 0.21806 0.9011 0.0
H1136 H 0.24681 0.17454 0.96276 0.0
H1137 H 0.14835 0.26091 0.96243 0.0
H1138 H 0.2068 0.21714 0.91959 0.0
H1139 H 0.22388 0.25558 0.99605 0.0
C1140 C 0.24104 0.2231 0.00284 0.0
C1141 C 0.24611 0.19871 0.99411 0.0
C1142 C 0.19444 0.22735 0.92884 0.0
C1143 C 0.22266 0.22886 0.96547 0.0
C1144 C 0.16873 0.22795 0.91829 0.0
C1145 C 0.15054 0.23865 0.93049 0.0
C1146 C 0.202 0.2374 0.9518 0.0
C1147 C 0.16116 0.2518 0.95251 0.0
C1148 C 0.22949 0.2383 0.98859 0.0
C1149 C 0.2426 0.19269 0.97034 0.0
N1150 N 0.18576 0.25016 0.96265 0.0
N1151 N 0.23034 0.2071 0.95693 0.0
H1152 H 0.73714 0.99213 0.98434 0.0
H1153 H 0.80833 0.01726 0.10883 0.0
H1154 H 0.71697 0.91605 0.03256 0.0
H1155 H 0.84414 0.08791 0.05435 0.0
H1156 H 0.75873 0.98553 0.08715 0.0
H1157 H 0.75722 0.03073 0.01591 0.0
C1158 C 0.73587 0.98328 0.00167 0.0
C1159 C 0.72703 0.95102 0.00563 0.0
C1160 C 0.77712 0.00838 0.08023 0.0
C1161 C 0.75033 0.99521 0.0417 0.0
C1162 C 0.80557 0.02653 0.09255 0.0
C1163 C 0.83102 0.05477 0.08299 0.0
C1164 C 0.77416 0.01844 0.05819 0.0
C1165 C 0.82559 0.06585 0.06211 0.0
C1166 C 0.74749 0.00545 0.01969 0.0
C1167 C 0.72481 0.9409 0.02854 0.0
N1168 N 0.79803 0.0473 0.05017 0.0
N1169 N 0.73746 0.96312 0.04567 0.0
H1170 H 0.97314 0.77609 0.94123 0.0
H1171 H 0.03481 0.80232 0.06773 0.0
H1172 H 0.07129 0.83961 0.96277 0.0
H1173 H 0.93507 0.74941 0.04689 0.0
H1174 H 0.05056 0.79663 0.02892 0.0
H1175 H 0.9625 0.74773 0.97774 0.0
C1176 C 0.99274 0.78361 0.95335 0.0
C1177 C 0.02277 0.81126 0.94935 0.0
C1178 C 0.02518 0.7855 0.033 0.0
C1179 C 0.01055 0.77907 0.99127 0.0
C1180 C 0.01611 0.78872 0.05521 0.0
C1181 C 0.9836 0.77764 0.0603 0.0
C1182 C 0.0016 0.77143 0.01579 0.0
C1183 C 0.9605 0.75939 0.04354 0.0
C1184 C 0.98661 0.76733 0.97423 0.0
C1185 C 0.04744 0.81913 0.96541 0.0
N1186 N 0.97 0.75765 0.02182 0.0
N1187 N 0.04053 0.8037 0.98597 0.0
H1188 H 0.83718 0.58419 0.35637 0.0
H1189 H 0.87414 0.50941 0.4395 0.0
H1190 H 0.89773 0.56655 0.31084 0.0
H1191 H 0.91089 0.47826 0.38332 0.0
H1192 H 0.87905 0.5532 0.41579 0.0
H1193 H 0.85789 0.5685 0.38877 0.0
C1194 C 0.85561 0.57796 0.35327 0.0
C1195 C 0.86491 0.57565 0.33078 0.0
C1196 C 0.88603 0.53691 0.4085 0.0
C1197 C 0.88917 0.55762 0.36795 0.0
C1198 C 0.88359 0.51201 0.42219 0.0
C1199 C 0.89089 0.48933 0.41306 0.0
C1200 C 0.89516 0.53867 0.38531 0.0
C1201 C 0.90411 0.4946 0.39088 0.0
C1202 C 0.86763 0.56896 0.37191 0.0
C1203 C 0.88914 0.56777 0.32785 0.0
N1204 N 0.90507 0.51826 0.37758 0.0
N1205 N 0.89987 0.55836 0.34613 0.0
H1206 H 0.4683 0.3372 0.23187 0.0
H1207 H 0.48398 0.3899 0.34046 0.0
H1208 H 0.43798 0.24464 0.2626 0.0
H1209 H 0.43524 0.29043 0.36176 0.0
H1210 H 0.46584 0.37292 0.30154 0.0
H1211 H 0.4529 0.35384 0.26683 0.0
C1212 C 0.45803 0.32022 0.24593 0.0
C1213 C 0.45577 0.28998 0.24467 0.0
C1214 C 0.45809 0.35455 0.3146 0.0
C1215 C 0.43965 0.30948 0.28543 0.0
C1216 C 0.46862 0.36442 0.33707 0.0
C1217 C 0.46222 0.34156 0.35429 0.0
C1218 C 0.44125 0.32147 0.30926 0.0
C1219 C 0.44156 0.30896 0.34893 0.0
C1220 C 0.44955 0.3299 0.26614 0.0
C1221 C 0.44113 0.26857 0.26304 0.0
N1222 N 0.43258 0.29988 0.32677 0.0
N1223 N 0.43448 0.27906 0.28289 0.0
H1224 H 0.64968 0.0655 0.36963 0.0
H1225 H 0.69583 0.12872 0.24309 0.0
H1226 H 0.58165 0.04829 0.31535 0.0
H1227 H 0.75967 0.16221 0.30174 0.0
H1228 H 0.6577 0.08183 0.26525 0.0
H1229 H 0.69177 0.08069 0.34083 0.0
C1230 C 0.64331 0.06392 0.3516 0.0
C1231 C 0.61247 0.05723 0.34493 0.0
C1232 C 0.68042 0.09903 0.27305 0.0
C1233 C 0.66064 0.07507 0.31202 0.0
C1234 C 0.70225 0.1259 0.26044 0.0
C1235 C 0.73055 0.15008 0.27086 0.0
C1236 C 0.68692 0.09637 0.29621 0.0
C1237 C 0.73775 0.14469 0.29322 0.0
C1238 C 0.66744 0.07271 0.33517 0.0
C1239 C 0.60539 0.05448 0.32133 0.0
N1240 N 0.71576 0.11873 0.30531 0.0
N1241 N 0.6296 0.06446 0.3057 0.0
H1242 H 0.5399 0.85898 0.60905 0.0
H1243 H 0.56661 0.81319 0.71269 0.0
H1244 H 0.47516 0.88018 0.64663 0.0
H1245 H 0.51778 0.85906 0.74299 0.0
H1246 H 0.5695 0.83916 0.67655 0.0
H1247 H 0.5676 0.86224 0.64476 0.0
C1248 C 0.53164 0.86455 0.62483 0.0
C1249 C 0.50441 0.86815 0.62494 0.0
C1250 C 0.55904 0.84463 0.6911 0.0
C1251 C 0.53518 0.87052 0.66627 0.0
C1252 C 0.55737 0.82958 0.71196 0.0
C1253 C 0.54087 0.83295 0.73075 0.0
C1254 C 0.54394 0.8631 0.68899 0.0
C1255 C 0.52999 0.85502 0.72881 0.0
C1256 C 0.54733 0.86611 0.64538 0.0
C1257 C 0.49553 0.87643 0.64576 0.0
N1258 N 0.53094 0.86854 0.70813 0.0
N1259 N 0.51042 0.87661 0.66563 0.0
H1260 H 0.10257 0.61312 0.62277 0.0
H1261 H 0.17576 0.78922 0.66099 0.0
H1262 H 0.14743 0.6917 0.5744 0.0
H1263 H 0.10314 0.70985 0.7006 0.0
H1264 H 0.15694 0.75581 0.62653 0.0
H1265 H 0.09476 0.64807 0.64921 0.0
C1266 C 0.11045 0.63764 0.61762 0.0
C1267 C 0.12632 0.64974 0.59662 0.0
C1268 C 0.14446 0.74598 0.64264 0.0
C1269 C 0.11767 0.68997 0.6268 0.0
C1270 C 0.15516 0.76515 0.66236 0.0
C1271 C 0.14206 0.75175 0.68389 0.0
C1272 C 0.12086 0.7133 0.64469 0.0
C1273 C 0.11486 0.72072 0.68447 0.0
C1274 C 0.10572 0.65753 0.63262 0.0
C1275 C 0.13547 0.68151 0.5906 0.0
N1276 N 0.10581 0.70214 0.66527 0.0
N1277 N 0.13167 0.70077 0.60585 0.0
H1278 H 0.376 0.45516 0.64992 0.0
H1279 H 0.25433 0.42009 0.72506 0.0
H1280 H 0.30634 0.43161 0.59568 0.0
H1281 H 0.20008 0.41618 0.66484 0.0
H1282 H 0.29152 0.41323 0.70071 0.0
H1283 H 0.33263 0.43144 0.67766 0.0
C1284 C 0.35147 0.44415 0.64373 0.0
C1285 C 0.34498 0.44645 0.6205 0.0
C1286 C 0.27166 0.41389 0.69263 0.0
C1287 C 0.2945 0.41904 0.65239 0.0
C1288 C 0.25009 0.41749 0.70667 0.0
C1289 C 0.22467 0.41988 0.69692 0.0
C1290 C 0.26821 0.41344 0.66858 0.0
C1291 C 0.21976 0.41526 0.6731 0.0
C1292 C 0.32638 0.43047 0.65972 0.0
C1293 C 0.31263 0.43126 0.61352 0.0
N1294 N 0.24177 0.41302 0.65972 0.0
N1295 N 0.28871 0.41891 0.62945 0.0
loop_
_geom_bond_atom_site_label_1
_geom_bond_atom_site_label_2
_geom_bond_distance
_geom_bond_site_symmetry_2
_ccdc_geom_bond_type
Mn0 O5 2.095 . S
Mn0 O15 2.162 . S
Mn0 O16 2.297 . S
Mn0 O24 2.385 . S
Mn0 O25 2.209 . S
Mn0 O26 2.094 . S
Mn1 O6 2.121 . S
Mn1 N8 2.257 . S
Mn1 N17 2.282 . S
Mn1 O25 2.215 . S
Mn1 O27 2.117 . S
C2 O24 1.234 . S
C2 O25 1.283 . S
C3 O15 1.281 . S
C3 O16 1.236 . S
C4 O26 1.240 . S
C4 O27 1.264 . S
O5 Mn0 2.095 . S
O5 C14 1.250 . S
O6 Mn1 2.121 . S
O6 C14 1.258 . S
C7 N8 1.326 . S
C7 C11 1.460 . S
C7 H13 0.929 . S
N8 Mn1 2.257 . S
N8 C7 1.326 . S
N8 C12 1.362 . S
C9 C10 1.258 . S
C9 C12 1.431 . S
C9 C29 1.449 . S
C10 C9 1.258 . S
C10 C11 1.477 . S
C10 H30 0.931 . S
C11 C7 1.460 . S
C11 C10 1.477 . S
C11 H31 0.930 . S
C12 N8 1.362 . S
C12 C9 1.431 . S
C12 C22 1.476 . S
H13 C7 0.929 . S
C14 O5 1.250 . S
C14 O6 1.258 . S
O15 Mn0 2.162 . S
O15 C3 1.281 . S
O16 Mn0 2.297 . S
O16 C3 1.236 . S
N17 Mn1 2.282 . S
N17 C18 1.328 . S
N17 C22 1.318 . S
C18 N17 1.328 . S
C18 C19 1.457 . S
C18 H23 0.929 . S
C19 C18 1.457 . S
C19 C20 1.291 . S
C19 H32 0.931 . S
C20 C19 1.291 . S
C20 C21 1.373 . S
C20 H33 0.929 . S
C21 C20 1.373 . S
C21 C22 1.396 . S
C21 C28 1.403 . S
C22 C12 1.476 . S
C22 N17 1.318 . S
C22 C21 1.396 . S
H23 C18 0.929 . S
O24 Mn0 2.385 . S
O24 C2 1.234 . S
O25 Mn0 2.209 . S
O25 Mn1 2.215 . S
O25 C2 1.283 . S
O26 Mn0 2.094 . S
O26 C4 1.240 . S
O27 Mn1 2.117 . S
O27 C4 1.264 . S
C28 C21 1.403 . S
C28 C29 1.399 . S
C28 H34 0.929 . S
C29 C9 1.449 . S
C29 C28 1.399 . S
C29 H35 0.930 . S
H30 C10 0.931 . S
H31 C11 0.930 . S
H32 C19 0.931 . S
H33 C20 0.929 . S
H34 C28 0.929 . S
H35 C29 0.930 . S
Mn36 O41 2.095 . S
Mn36 O51 2.162 . S
Mn36 O52 2.297 . S
Mn36 O60 2.385 1_565 S
Mn36 O61 2.209 1_565 S
Mn36 O62 2.094 1_565 S
Mn37 O42 2.121 . S
Mn37 N44 2.257 . S
Mn37 N53 2.282 . S
Mn37 O61 2.215 . S
Mn37 O63 2.117 . S
C38 O60 1.234 . S
C38 O61 1.283 . S
C39 O51 1.281 . S
C39 O52 1.236 . S
C40 O62 1.240 . S
C40 O63 1.264 . S
O41 Mn36 2.095 . S
O41 C50 1.255 . S
O42 Mn37 2.121 . S
O42 C50 1.248 1_545 S
C43 N44 1.326 . S
C43 C47 1.460 . S
C43 H49 0.929 . S
N44 Mn37 2.257 . S
N44 C43 1.326 . S
N44 C48 1.362 . S
C45 C46 1.258 . S
C45 C48 1.431 . S
C45 C65 1.449 . S
C46 C45 1.258 . S
C46 C47 1.477 . S
C46 H66 0.931 . S
C47 C43 1.460 . S
C47 C46 1.477 . S
C47 H67 0.930 . S
C48 N44 1.362 . S
C48 C45 1.431 . S
C48 C58 1.476 . S
H49 C43 0.929 . S
C50 O41 1.255 . S
C50 O42 1.248 1_565 S
O51 Mn36 2.162 . S
O51 C39 1.281 . S
O52 Mn36 2.297 . S
O52 C39 1.236 . S
N53 Mn37 2.282 . S
N53 C54 1.328 . S
N53 C58 1.318 . S
C54 N53 1.328 . S
C54 C55 1.457 . S
C54 H59 0.929 . S
C55 C54 1.457 . S
C55 C56 1.291 . S
C55 H68 0.931 . S
C56 C55 1.291 . S
C56 C57 1.373 . S
C56 H69 0.929 . S
C57 C56 1.373 . S
C57 C58 1.396 . S
C57 C64 1.403 . S
C58 C48 1.476 . S
C58 N53 1.318 . S
C58 C57 1.396 . S
H59 C54 0.929 . S
O60 Mn36 2.385 1_545 S
O60 C38 1.234 . S
O61 Mn36 2.209 1_545 S
O61 Mn37 2.215 . S
O61 C38 1.283 . S
O62 Mn36 2.094 1_545 S
O62 C40 1.240 . S
O63 Mn37 2.117 . S
O63 C40 1.264 . S
C64 C57 1.403 . S
C64 C65 1.399 . S
C64 H70 0.929 . S
C65 C45 1.449 . S
C65 C64 1.399 . S
C65 H71 0.930 . S
H66 C46 0.931 . S
H67 C47 0.930 . S
H68 C55 0.931 . S
H69 C56 0.929 . S
H70 C64 0.929 . S
H71 C65 0.930 . S
Mn72 O77 2.095 . S
Mn72 O87 2.162 . S
Mn72 O88 2.297 . S
Mn72 O96 2.385 1_455 S
Mn72 O97 2.209 1_455 S
Mn72 O98 2.094 1_455 S
Mn73 O78 2.121 . S
Mn73 N80 2.257 . S
Mn73 N89 2.282 . S
Mn73 O97 2.215 . S
Mn73 O99 2.117 . S
C74 O96 1.234 . S
C74 O97 1.283 . S
C75 O87 1.281 . S
C75 O88 1.236 . S
C76 O98 1.240 . S
C76 O99 1.264 . S
O77 Mn72 2.095 . S
O77 C86 1.256 . S
O78 Mn73 2.121 . S
O78 C86 1.246 1_655 S
C79 N80 1.326 . S
C79 C83 1.460 . S
C79 H85 0.929 . S
N80 Mn73 2.257 . S
N80 C79 1.326 . S
N80 C84 1.362 . S
C81 C82 1.258 . S
C81 C84 1.431 . S
C81 C101 1.449 . S
C82 C81 1.258 . S
C82 C83 1.477 . S
C82 H102 0.931 . S
C83 C79 1.460 . S
C83 C82 1.477 . S
C83 H103 0.930 . S
C84 N80 1.362 . S
C84 C81 1.431 . S
C84 C94 1.476 . S
H85 C79 0.929 . S
C86 O77 1.256 . S
C86 O78 1.246 1_455 S
O87 Mn72 2.162 . S
O87 C75 1.281 . S
O88 Mn72 2.297 . S
O88 C75 1.236 . S
N89 Mn73 2.282 . S
N89 C90 1.328 . S
N89 C94 1.318 . S
C90 N89 1.328 . S
C90 C91 1.457 . S
C90 H95 0.929 . S
C91 C90 1.457 . S
C91 C92 1.291 . S
C91 H104 0.931 . S
C92 C91 1.291 . S
C92 C93 1.373 . S
C92 H105 0.929 . S
C93 C92 1.373 . S
C93 C94 1.396 . S
C93 C100 1.403 . S
C94 C84 1.476 . S
C94 N89 1.318 . S
C94 C93 1.396 . S
H95 C90 0.929 . S
O96 Mn72 2.385 1_655 S
O96 C74 1.234 . S
O97 Mn72 2.209 1_655 S
O97 Mn73 2.215 . S
O97 C74 1.283 . S
O98 Mn72 2.094 1_655 S
O98 C76 1.240 . S
O99 Mn73 2.117 . S
O99 C76 1.264 . S
C100 C93 1.403 . S
C100 C101 1.399 . S
C100 H106 0.929 . S
C101 C81 1.449 . S
C101 C100 1.399 . S
C101 H107 0.930 . S
H102 C82 0.931 . S
H103 C83 0.930 . S
H104 C91 0.931 . S
H105 C92 0.929 . S
H106 C100 0.929 . S
H107 C101 0.930 . S
Mn108 O113 2.095 . S
Mn108 O123 2.162 . S
Mn108 O124 2.297 . S
Mn108 O132 2.385 . S
Mn108 O133 2.209 . S
Mn108 O134 2.094 . S
Mn109 O114 2.121 . S
Mn109 N116 2.257 . S
Mn109 N125 2.282 . S
Mn109 O133 2.215 . S
Mn109 O135 2.117 . S
C110 O132 1.234 . S
C110 O133 1.283 . S
C111 O123 1.281 . S
C111 O124 1.236 . S
C112 O134 1.240 . S
C112 O135 1.264 . S
O113 Mn108 2.095 . S
O113 C122 1.250 . S
O114 Mn109 2.121 . S
O114 C122 1.258 . S
C115 N116 1.326 . S
C115 C119 1.460 . S
C115 H121 0.929 . S
N116 Mn109 2.257 . S
N116 C115 1.326 . S
N116 C120 1.362 . S
C117 C118 1.258 . S
C117 C120 1.431 . S
C117 C137 1.449 . S
C118 C117 1.258 . S
C118 C119 1.477 . S
C118 H138 0.931 . S
C119 C115 1.460 . S
C119 C118 1.477 . S
C119 H139 0.930 . S
C120 N116 1.362 . S
C120 C117 1.431 . S
C120 C130 1.476 . S
H121 C115 0.929 . S
C122 O113 1.250 . S
C122 O114 1.258 . S
O123 Mn108 2.162 . S
O123 C111 1.281 . S
O124 Mn108 2.297 . S
O124 C111 1.236 . S
N125 Mn109 2.282 . S
N125 C126 1.328 . S
N125 C130 1.318 . S
C126 N125 1.328 . S
C126 C127 1.457 . S
C126 H131 0.929 . S
C127 C126 1.457 . S
C127 C128 1.291 . S
C127 H140 0.931 . S
C128 C127 1.291 . S
C128 C129 1.373 . S
C128 H141 0.929 . S
C129 C128 1.373 . S
C129 C130 1.396 . S
C129 C136 1.403 . S
C130 C120 1.476 . S
C130 N125 1.318 . S
C130 C129 1.396 . S
H131 C126 0.929 . S
O132 Mn108 2.385 . S
O132 C110 1.234 . S
O133 Mn108 2.209 . S
O133 Mn109 2.215 . S
O133 C110 1.283 . S
O134 Mn108 2.094 . S
O134 C112 1.240 . S
O135 Mn109 2.117 . S
O135 C112 1.264 . S
C136 C129 1.403 . S
C136 C137 1.399 . S
C136 H142 0.929 . S
C137 C117 1.449 . S
C137 C136 1.399 . S
C137 H143 0.930 . S
H138 C118 0.931 . S
H139 C119 0.930 . S
H140 C127 0.931 . S
H141 C128 0.929 . S
H142 C136 0.929 . S
H143 C137 0.930 . S
Mn144 O149 2.095 . S
Mn144 O159 2.162 . S
Mn144 O160 2.297 . S
Mn144 O168 2.385 1_545 S
Mn144 O169 2.209 1_545 S
Mn144 O170 2.094 1_545 S
Mn145 O150 2.121 . S
Mn145 N152 2.257 . S
Mn145 N161 2.282 . S
Mn145 O169 2.215 . S
Mn145 O171 2.117 . S
C146 O168 1.234 . S
C146 O169 1.283 . S
C147 O159 1.281 . S
C147 O160 1.236 . S
C148 O170 1.240 . S
C148 O171 1.264 . S
O149 Mn144 2.095 . S
O149 C158 1.256 . S
O150 Mn145 2.121 . S
O150 C158 1.246 1_565 S
C151 N152 1.326 . S
C151 C155 1.460 . S
C151 H157 0.929 . S
N152 Mn145 2.257 . S
N152 C151 1.326 . S
N152 C156 1.362 . S
C153 C154 1.258 . S
C153 C156 1.431 . S
C153 C173 1.449 . S
C154 C153 1.258 . S
C154 C155 1.477 . S
C154 H174 0.931 . S
C155 C151 1.460 . S
C155 C154 1.477 . S
C155 H175 0.930 . S
C156 N152 1.362 . S
C156 C153 1.431 . S
C156 C166 1.476 . S
H157 C151 0.929 . S
C158 O149 1.256 . S
C158 O150 1.246 1_545 S
O159 Mn144 2.162 . S
O159 C147 1.281 . S
O160 Mn144 2.297 . S
O160 C147 1.236 . S
N161 Mn145 2.282 . S
N161 C162 1.328 . S
N161 C166 1.318 . S
C162 N161 1.328 . S
C162 C163 1.457 . S
C162 H167 0.929 . S
C163 C162 1.457 . S
C163 C164 1.291 . S
C163 H176 0.931 . S
C164 C163 1.291 . S
C164 C165 1.373 . S
C164 H177 0.929 . S
C165 C164 1.373 . S
C165 C166 1.396 . S
C165 C172 1.403 . S
C166 C156 1.476 . S
C166 N161 1.318 . S
C166 C165 1.396 . S
H167 C162 0.929 . S
O168 Mn144 2.385 1_565 S
O168 C146 1.234 . S
O169 Mn144 2.209 1_565 S
O169 Mn145 2.215 . S
O169 C146 1.283 . S
O170 Mn144 2.094 1_565 S
O170 C148 1.240 . S
O171 Mn145 2.117 . S
O171 C148 1.264 . S
C172 C165 1.403 . S
C172 C173 1.399 . S
C172 H178 0.929 . S
C173 C153 1.449 . S
C173 C172 1.399 . S
C173 H179 0.930 . S
H174 C154 0.931 . S
H175 C155 0.930 . S
H176 C163 0.931 . S
H177 C164 0.929 . S
H178 C172 0.929 . S
H179 C173 0.930 . S
Mn180 O185 2.095 . S
Mn180 O195 2.162 . S
Mn180 O196 2.297 . S
Mn180 O204 2.385 1_655 S
Mn180 O205 2.209 1_655 S
Mn180 O206 2.094 1_655 S
Mn181 O186 2.121 . S
Mn181 N188 2.257 . S
Mn181 N197 2.282 . S
Mn181 O205 2.215 . S
Mn181 O207 2.117 . S
C182 O204 1.234 . S
C182 O205 1.283 . S
C183 O195 1.281 . S
C183 O196 1.236 . S
C184 O206 1.240 . S
C184 O207 1.264 . S
O185 Mn180 2.095 . S
O185 C194 1.255 . S
O186 Mn181 2.121 . S
O186 C194 1.248 1_455 S
C187 N188 1.326 . S
C187 C191 1.460 . S
C187 H193 0.929 . S
N188 Mn181 2.257 . S
N188 C187 1.326 . S
N188 C192 1.362 . S
C189 C190 1.258 . S
C189 C192 1.431 . S
C189 C209 1.449 . S
C190 C189 1.258 . S
C190 C191 1.477 . S
C190 H210 0.931 . S
C191 C187 1.460 . S
C191 C190 1.477 . S
C191 H211 0.930 . S
C192 N188 1.362 . S
C192 C189 1.431 . S
C192 C202 1.476 . S
H193 C187 0.929 . S
C194 O185 1.255 . S
C194 O186 1.248 1_655 S
O195 Mn180 2.162 . S
O195 C183 1.281 . S
O196 Mn180 2.297 . S
O196 C183 1.236 . S
N197 Mn181 2.282 . S
N197 C198 1.328 . S
N197 C202 1.318 . S
C198 N197 1.328 . S
C198 C199 1.457 . S
C198 H203 0.929 . S
C199 C198 1.457 . S
C199 C200 1.291 . S
C199 H212 0.931 . S
C200 C199 1.291 . S
C200 C201 1.373 . S
C200 H213 0.929 . S
C201 C200 1.373 . S
C201 C202 1.396 . S
C201 C208 1.403 . S
C202 C192 1.476 . S
C202 N197 1.318 . S
C202 C201 1.396 . S
H203 C198 0.929 . S
O204 Mn180 2.385 1_455 S
O204 C182 1.234 . S
O205 Mn180 2.209 1_455 S
O205 Mn181 2.215 . S
O205 C182 1.283 . S
O206 Mn180 2.094 1_455 S
O206 C184 1.240 . S
O207 Mn181 2.117 . S
O207 C184 1.264 . S
C208 C201 1.403 . S
C208 C209 1.399 . S
C208 H214 0.929 . S
C209 C189 1.449 . S
C209 C208 1.399 . S
C209 H215 0.930 . S
H210 C190 0.931 . S
H211 C191 0.930 . S
H212 C199 0.931 . S
H213 C200 0.929 . S
H214 C208 0.929 . S
H215 C209 0.930 . S
Mn216 O221 2.095 . S
Mn216 O231 2.162 . S
Mn216 O232 2.297 . S
Mn216 O240 2.385 . S
Mn216 O241 2.209 . S
Mn216 O242 2.094 . S
Mn217 O222 2.121 . S
Mn217 N224 2.257 . S
Mn217 N233 2.282 . S
Mn217 O241 2.215 . S
Mn217 O243 2.117 . S
C218 O240 1.234 . S
C218 O241 1.283 . S
C219 O231 1.281 . S
C219 O232 1.236 . S
C220 O242 1.240 . S
C220 O243 1.264 . S
O221 Mn216 2.095 . S
O221 C230 1.250 . S
O222 Mn217 2.121 . S
O222 C230 1.258 . S
C223 N224 1.326 . S
C223 C227 1.460 . S
C223 H229 0.929 . S
N224 Mn217 2.257 . S
N224 C223 1.326 . S
N224 C228 1.362 . S
C225 C226 1.258 . S
C225 C228 1.431 . S
C225 C245 1.449 . S
C226 C225 1.258 . S
C226 C227 1.477 . S
C226 H246 0.931 . S
C227 C223 1.460 . S
C227 C226 1.477 . S
C227 H247 0.930 . S
C228 N224 1.362 . S
C228 C225 1.431 . S
C228 C238 1.476 . S
H229 C223 0.929 . S
C230 O221 1.250 . S
C230 O222 1.258 . S
O231 Mn216 2.162 . S
O231 C219 1.281 . S
O232 Mn216 2.297 . S
O232 C219 1.236 . S
N233 Mn217 2.282 . S
N233 C234 1.328 . S
N233 C238 1.318 . S
C234 N233 1.328 . S
C234 C235 1.457 . S
C234 H239 0.929 . S
C235 C234 1.457 . S
C235 C236 1.291 . S
C235 H248 0.931 . S
C236 C235 1.291 . S
C236 C237 1.373 . S
C236 H249 0.929 . S
C237 C236 1.373 . S
C237 C238 1.396 . S
C237 C244 1.403 . S
C238 C228 1.476 . S
C238 N233 1.318 . S
C238 C237 1.396 . S
H239 C234 0.929 . S
O240 Mn216 2.385 . S
O240 C218 1.234 . S
O241 Mn216 2.209 . S
O241 Mn217 2.215 . S
O241 C218 1.283 . S
O242 Mn216 2.094 . S
O242 C220 1.240 . S
O243 Mn217 2.117 . S
O243 C220 1.264 . S
C244 C237 1.403 . S
C244 C245 1.399 . S
C244 H250 0.929 . S
C245 C225 1.449 . S
C245 C244 1.399 . S
C245 H251 0.930 . S
H246 C226 0.931 . S
H247 C227 0.930 . S
H248 C235 0.931 . S
H249 C236 0.929 . S
H250 C244 0.929 . S
H251 C245 0.930 . S
Mn252 O257 2.095 . S
Mn252 O267 2.162 . S
Mn252 O268 2.297 . S
Mn252 O276 2.385 . S
Mn252 O277 2.209 . S
Mn252 O278 2.094 . S
Mn253 O258 2.121 . S
Mn253 N260 2.257 . S
Mn253 N269 2.282 . S
Mn253 O277 2.215 . S
Mn253 O279 2.117 . S
C254 O276 1.234 . S
C254 O277 1.283 . S
C255 O267 1.281 . S
C255 O268 1.236 . S
C256 O278 1.240 . S
C256 O279 1.264 . S
O257 Mn252 2.095 . S
O257 C266 1.250 . S
O258 Mn253 2.121 . S
O258 C266 1.258 . S
C259 N260 1.326 . S
C259 C263 1.460 . S
C259 H265 0.929 . S
N260 Mn253 2.257 . S
N260 C259 1.326 . S
N260 C264 1.362 . S
C261 C262 1.258 . S
C261 C264 1.431 . S
C261 C281 1.449 . S
C262 C261 1.258 . S
C262 C263 1.477 . S
C262 H282 0.931 . S
C263 C259 1.460 . S
C263 C262 1.477 . S
C263 H283 0.930 . S
C264 N260 1.362 . S
C264 C261 1.431 . S
C264 C274 1.476 . S
H265 C259 0.929 . S
C266 O257 1.250 . S
C266 O258 1.258 . S
O267 Mn252 2.162 . S
O267 C255 1.281 . S
O268 Mn252 2.297 . S
O268 C255 1.236 . S
N269 Mn253 2.282 . S
N269 C270 1.328 . S
N269 C274 1.318 . S
C270 N269 1.328 . S
C270 C271 1.457 . S
C270 H275 0.929 . S
C271 C270 1.457 . S
C271 C272 1.291 . S
C271 H284 0.931 . S
C272 C271 1.291 . S
C272 C273 1.373 . S
C272 H285 0.929 . S
C273 C272 1.373 . S
C273 C274 1.396 . S
C273 C280 1.403 . S
C274 C264 1.476 . S
C274 N269 1.318 . S
C274 C273 1.396 . S
H275 C270 0.929 . S
O276 Mn252 2.385 . S
O276 C254 1.234 . S
O277 Mn252 2.209 . S
O277 Mn253 2.215 . S
O277 C254 1.283 . S
O278 Mn252 2.094 . S
O278 C256 1.240 . S
O279 Mn253 2.117 . S
O279 C256 1.264 . S
C280 C273 1.403 . S
C280 C281 1.399 . S
C280 H286 0.929 . S
C281 C261 1.449 . S
C281 C280 1.399 . S
C281 H287 0.930 . S
H282 C262 0.931 . S
H283 C263 0.930 . S
H284 C271 0.931 . S
H285 C272 0.929 . S
H286 C280 0.929 . S
H287 C281 0.930 . S
Mn288 O293 2.095 . S
Mn288 O303 2.162 . S
Mn288 O304 2.297 . S
Mn288 O312 2.385 . S
Mn288 O313 2.209 . S
Mn288 O314 2.094 . S
Mn289 O294 2.121 . S
Mn289 N296 2.257 . S
Mn289 N305 2.282 . S
Mn289 O313 2.215 . S
Mn289 O315 2.117 . S
C290 O312 1.234 . S
C290 O313 1.283 . S
C291 O303 1.281 . S
C291 O304 1.236 . S
C292 O314 1.240 . S
C292 O315 1.264 . S
O293 Mn288 2.095 . S
O293 C302 1.250 . S
O294 Mn289 2.121 . S
O294 C302 1.258 . S
C295 N296 1.326 . S
C295 C299 1.460 . S
C295 H301 0.929 . S
N296 Mn289 2.257 . S
N296 C295 1.326 . S
N296 C300 1.362 . S
C297 C298 1.258 . S
C297 C300 1.431 . S
C297 C317 1.449 . S
C298 C297 1.258 . S
C298 C299 1.477 . S
C298 H318 0.931 . S
C299 C295 1.460 . S
C299 C298 1.477 . S
C299 H319 0.930 . S
C300 N296 1.362 . S
C300 C297 1.431 . S
C300 C310 1.476 . S
H301 C295 0.929 . S
C302 O293 1.250 . S
C302 O294 1.258 . S
O303 Mn288 2.162 . S
O303 C291 1.281 . S
O304 Mn288 2.297 . S
O304 C291 1.236 . S
N305 Mn289 2.282 . S
N305 C306 1.328 . S
N305 C310 1.318 . S
C306 N305 1.328 . S
C306 C307 1.457 . S
C306 H311 0.929 . S
C307 C306 1.457 . S
C307 C308 1.291 . S
C307 H320 0.931 . S
C308 C307 1.291 . S
C308 C309 1.373 . S
C308 H321 0.929 . S
C309 C308 1.373 . S
C309 C310 1.396 . S
C309 C316 1.403 . S
C310 C300 1.476 . S
C310 N305 1.318 . S
C310 C309 1.396 . S
H311 C306 0.929 . S
O312 Mn288 2.385 . S
O312 C290 1.234 . S
O313 Mn288 2.209 . S
O313 Mn289 2.215 . S
O313 C290 1.283 . S
O314 Mn288 2.094 . S
O314 C292 1.240 . S
O315 Mn289 2.117 . S
O315 C292 1.264 . S
C316 C309 1.403 . S
C316 C317 1.399 . S
C316 H322 0.929 . S
C317 C297 1.449 . S
C317 C316 1.399 . S
C317 H323 0.930 . S
H318 C298 0.931 . S
H319 C299 0.930 . S
H320 C307 0.931 . S
H321 C308 0.929 . S
H322 C316 0.929 . S
H323 C317 0.930 . S
Mn324 O329 2.095 . S
Mn324 O339 2.162 . S
Mn324 O340 2.297 . S
Mn324 O348 2.385 . S
Mn324 O349 2.209 . S
Mn324 O350 2.094 . S
Mn325 O330 2.121 . S
Mn325 N332 2.257 . S
Mn325 N341 2.282 . S
Mn325 O349 2.215 . S
Mn325 O351 2.117 . S
C326 O348 1.234 . S
C326 O349 1.283 . S
C327 O339 1.281 . S
C327 O340 1.236 . S
C328 O350 1.240 . S
C328 O351 1.264 . S
O329 Mn324 2.095 . S
O329 C338 1.250 . S
O330 Mn325 2.121 . S
O330 C338 1.258 . S
C331 N332 1.326 . S
C331 C335 1.460 . S
C331 H337 0.929 . S
N332 Mn325 2.257 . S
N332 C331 1.326 . S
N332 C336 1.362 . S
C333 C334 1.258 . S
C333 C336 1.431 . S
C333 C353 1.449 . S
C334 C333 1.258 . S
C334 C335 1.477 . S
C334 H354 0.931 . S
C335 C331 1.460 . S
C335 C334 1.477 . S
C335 H355 0.930 . S
C336 N332 1.362 . S
C336 C333 1.431 . S
C336 C346 1.476 . S
H337 C331 0.929 . S
C338 O329 1.250 . S
C338 O330 1.258 . S
O339 Mn324 2.162 . S
O339 C327 1.281 . S
O340 Mn324 2.297 . S
O340 C327 1.236 . S
N341 Mn325 2.282 . S
N341 C342 1.328 . S
N341 C346 1.318 . S
C342 N341 1.328 . S
C342 C343 1.457 . S
C342 H347 0.929 . S
C343 C342 1.457 . S
C343 C344 1.291 . S
C343 H356 0.931 . S
C344 C343 1.291 . S
C344 C345 1.373 . S
C344 H357 0.929 . S
C345 C344 1.373 . S
C345 C346 1.396 . S
C345 C352 1.403 . S
C346 C336 1.476 . S
C346 N341 1.318 . S
C346 C345 1.396 . S
H347 C342 0.929 . S
O348 Mn324 2.385 . S
O348 C326 1.234 . S
O349 Mn324 2.209 . S
O349 Mn325 2.215 . S
O349 C326 1.283 . S
O350 Mn324 2.094 . S
O350 C328 1.240 . S
O351 Mn325 2.117 . S
O351 C328 1.264 . S
C352 C345 1.403 . S
C352 C353 1.399 . S
C352 H358 0.929 . S
C353 C333 1.449 . S
C353 C352 1.399 . S
C353 H359 0.930 . S
H354 C334 0.931 . S
H355 C335 0.930 . S
H356 C343 0.931 . S
H357 C344 0.929 . S
H358 C352 0.929 . S
H359 C353 0.930 . S
Mn360 O365 2.095 . S
Mn360 O375 2.162 . S
Mn360 O376 2.297 . S
Mn360 O384 2.385 . S
Mn360 O385 2.209 . S
Mn360 O386 2.094 . S
Mn361 O366 2.121 . S
Mn361 N368 2.257 . S
Mn361 N377 2.282 . S
Mn361 O385 2.215 . S
Mn361 O387 2.117 . S
C362 O384 1.234 . S
C362 O385 1.283 . S
C363 O375 1.281 . S
C363 O376 1.236 . S
C364 O386 1.240 . S
C364 O387 1.264 . S
O365 Mn360 2.095 . S
O365 C374 1.250 . S
O366 Mn361 2.121 . S
O366 C374 1.258 . S
C367 N368 1.326 . S
C367 C371 1.460 . S
C367 H373 0.929 . S
N368 Mn361 2.257 . S
N368 C367 1.326 . S
N368 C372 1.362 . S
C369 C370 1.258 . S
C369 C372 1.431 . S
C369 C389 1.449 . S
C370 C369 1.258 . S
C370 C371 1.477 . S
C370 H390 0.931 . S
C371 C367 1.460 . S
C371 C370 1.477 . S
C371 H391 0.930 . S
C372 N368 1.362 . S
C372 C369 1.431 . S
C372 C382 1.476 . S
H373 C367 0.929 . S
C374 O365 1.250 . S
C374 O366 1.258 . S
O375 Mn360 2.162 . S
O375 C363 1.281 . S
O376 Mn360 2.297 . S
O376 C363 1.236 . S
N377 Mn361 2.282 . S
N377 C378 1.328 . S
N377 C382 1.318 . S
C378 N377 1.328 . S
C378 C379 1.457 . S
C378 H383 0.929 . S
C379 C378 1.457 . S
C379 C380 1.291 . S
C379 H392 0.931 . S
C380 C379 1.291 . S
C380 C381 1.373 . S
C380 H393 0.929 . S
C381 C380 1.373 . S
C381 C382 1.396 . S
C381 C388 1.403 . S
C382 C372 1.476 . S
C382 N377 1.318 . S
C382 C381 1.396 . S
H383 C378 0.929 . S
O384 Mn360 2.385 . S
O384 C362 1.234 . S
O385 Mn360 2.209 . S
O385 Mn361 2.215 . S
O385 C362 1.283 . S
O386 Mn360 2.094 . S
O386 C364 1.240 . S
O387 Mn361 2.117 . S
O387 C364 1.264 . S
C388 C381 1.403 . S
C388 C389 1.399 . S
C388 H394 0.929 . S
C389 C369 1.449 . S
C389 C388 1.399 . S
C389 H395 0.930 . S
H390 C370 0.931 . S
H391 C371 0.930 . S
H392 C379 0.931 . S
H393 C380 0.929 . S
H394 C388 0.929 . S
H395 C389 0.930 . S
Mn396 O401 2.095 . S
Mn396 O411 2.162 . S
Mn396 O412 2.297 . S
Mn396 O420 2.385 . S
Mn396 O421 2.209 . S
Mn396 O422 2.094 . S
Mn397 O402 2.121 . S
Mn397 N404 2.257 . S
Mn397 N413 2.282 . S
Mn397 O421 2.215 . S
Mn397 O423 2.117 . S
C398 O420 1.234 . S
C398 O421 1.283 . S
C399 O411 1.281 . S
C399 O412 1.236 . S
C400 O422 1.240 . S
C400 O423 1.264 . S
O401 Mn396 2.095 . S
O401 C410 1.250 . S
O402 Mn397 2.121 . S
O402 C410 1.258 . S
C403 N404 1.326 . S
C403 C407 1.460 . S
C403 H409 0.929 . S
N404 Mn397 2.257 . S
N404 C403 1.326 . S
N404 C408 1.362 . S
C405 C406 1.258 . S
C405 C408 1.431 . S
C405 C425 1.449 . S
C406 C405 1.258 . S
C406 C407 1.477 . S
C406 H426 0.931 . S
C407 C403 1.460 . S
C407 C406 1.477 . S
C407 H427 0.930 . S
C408 N404 1.362 . S
C408 C405 1.431 . S
C408 C418 1.476 . S
H409 C403 0.929 . S
C410 O401 1.250 . S
C410 O402 1.258 . S
O411 Mn396 2.162 . S
O411 C399 1.281 . S
O412 Mn396 2.297 . S
O412 C399 1.236 . S
N413 Mn397 2.282 . S
N413 C414 1.328 . S
N413 C418 1.318 . S
C414 N413 1.328 . S
C414 C415 1.457 . S
C414 H419 0.929 . S
C415 C414 1.457 . S
C415 C416 1.291 . S
C415 H428 0.931 . S
C416 C415 1.291 . S
C416 C417 1.373 . S
C416 H429 0.929 . S
C417 C416 1.373 . S
C417 C418 1.396 . S
C417 C424 1.403 . S
C418 C408 1.476 . S
C418 N413 1.318 . S
C418 C417 1.396 . S
H419 C414 0.929 . S
O420 Mn396 2.385 . S
O420 C398 1.234 . S
O421 Mn396 2.209 . S
O421 Mn397 2.215 . S
O421 C398 1.283 . S
O422 Mn396 2.094 . S
O422 C400 1.240 . S
O423 Mn397 2.117 . S
O423 C400 1.264 . S
C424 C417 1.403 . S
C424 C425 1.399 . S
C424 H430 0.929 . S
C425 C405 1.449 . S
C425 C424 1.399 . S
C425 H431 0.930 . S
H426 C406 0.931 . S
H427 C407 0.930 . S
H428 C415 0.931 . S
H429 C416 0.929 . S
H430 C424 0.929 . S
H431 C425 0.930 . S
Mn432 O437 2.095 . S
Mn432 O447 2.162 . S
Mn432 O448 2.297 . S
Mn432 O456 2.385 . S
Mn432 O457 2.209 . S
Mn432 O458 2.094 . S
Mn433 O438 2.121 . S
Mn433 N440 2.257 . S
Mn433 N449 2.282 . S
Mn433 O457 2.215 . S
Mn433 O459 2.117 . S
C434 O456 1.234 . S
C434 O457 1.283 . S
C435 O447 1.281 . S
C435 O448 1.236 . S
C436 O458 1.240 . S
C436 O459 1.264 . S
O437 Mn432 2.095 . S
O437 C446 1.250 . S
O438 Mn433 2.121 . S
O438 C446 1.258 . S
C439 N440 1.326 . S
C439 C443 1.460 . S
C439 H445 0.929 . S
N440 Mn433 2.257 . S
N440 C439 1.326 . S
N440 C444 1.362 . S
C441 C442 1.258 . S
C441 C444 1.431 . S
C441 C461 1.449 . S
C442 C441 1.258 . S
C442 C443 1.477 . S
C442 H462 0.931 . S
C443 C439 1.460 . S
C443 C442 1.477 . S
C443 H463 0.930 . S
C444 N440 1.362 . S
C444 C441 1.431 . S
C444 C454 1.476 . S
H445 C439 0.929 . S
C446 O437 1.250 . S
C446 O438 1.258 . S
O447 Mn432 2.162 . S
O447 C435 1.281 . S
O448 Mn432 2.297 . S
O448 C435 1.236 . S
N449 Mn433 2.282 . S
N449 C450 1.328 . S
N449 C454 1.318 . S
C450 N449 1.328 . S
C450 C451 1.457 . S
C450 H455 0.929 . S
C451 C450 1.457 . S
C451 C452 1.291 . S
C451 H464 0.931 . S
C452 C451 1.291 . S
C452 C453 1.373 . S
C452 H465 0.929 . S
C453 C452 1.373 . S
C453 C454 1.396 . S
C453 C460 1.403 . S
C454 C444 1.476 . S
C454 N449 1.318 . S
C454 C453 1.396 . S
H455 C450 0.929 . S
O456 Mn432 2.385 . S
O456 C434 1.234 . S
O457 Mn432 2.209 . S
O457 Mn433 2.215 . S
O457 C434 1.283 . S
O458 Mn432 2.094 . S
O458 C436 1.240 . S
O459 Mn433 2.117 . S
O459 C436 1.264 . S
C460 C453 1.403 . S
C460 C461 1.399 . S
C460 H466 0.929 . S
C461 C441 1.449 . S
C461 C460 1.399 . S
C461 H467 0.930 . S
H462 C442 0.931 . S
H463 C443 0.930 . S
H464 C451 0.931 . S
H465 C452 0.929 . S
H466 C460 0.929 . S
H467 C461 0.930 . S
Mn468 O473 2.095 . S
Mn468 O483 2.162 . S
Mn468 O484 2.297 . S
Mn468 O492 2.385 . S
Mn468 O493 2.209 . S
Mn468 O494 2.094 . S
Mn469 O474 2.121 . S
Mn469 N476 2.257 . S
Mn469 N485 2.282 . S
Mn469 O493 2.215 . S
Mn469 O495 2.117 . S
C470 O492 1.234 . S
C470 O493 1.283 . S
C471 O483 1.281 . S
C471 O484 1.236 . S
C472 O494 1.240 . S
C472 O495 1.264 . S
O473 Mn468 2.095 . S
O473 C482 1.250 . S
O474 Mn469 2.121 . S
O474 C482 1.258 . S
C475 N476 1.326 . S
C475 C479 1.460 . S
C475 H481 0.929 . S
N476 Mn469 2.257 . S
N476 C475 1.326 . S
N476 C480 1.362 . S
C477 C478 1.258 . S
C477 C480 1.431 . S
C477 C497 1.449 . S
C478 C477 1.258 . S
C478 C479 1.477 . S
C478 H498 0.931 . S
C479 C475 1.460 . S
C479 C478 1.477 . S
C479 H499 0.930 . S
C480 N476 1.362 . S
C480 C477 1.431 . S
C480 C490 1.476 . S
H481 C475 0.929 . S
C482 O473 1.250 . S
C482 O474 1.258 . S
O483 Mn468 2.162 . S
O483 C471 1.281 . S
O484 Mn468 2.297 . S
O484 C471 1.236 . S
N485 Mn469 2.282 . S
N485 C486 1.328 . S
N485 C490 1.318 . S
C486 N485 1.328 . S
C486 C487 1.457 . S
C486 H491 0.929 . S
C487 C486 1.457 . S
C487 C488 1.291 . S
C487 H500 0.931 . S
C488 C487 1.291 . S
C488 C489 1.373 . S
C488 H501 0.929 . S
C489 C488 1.373 . S
C489 C490 1.396 . S
C489 C496 1.403 . S
C490 C480 1.476 . S
C490 N485 1.318 . S
C490 C489 1.396 . S
H491 C486 0.929 . S
O492 Mn468 2.385 . S
O492 C470 1.234 . S
O493 Mn468 2.209 . S
O493 Mn469 2.215 . S
O493 C470 1.283 . S
O494 Mn468 2.094 . S
O494 C472 1.240 . S
O495 Mn469 2.117 . S
O495 C472 1.264 . S
C496 C489 1.403 . S
C496 C497 1.399 . S
C496 H502 0.929 . S
C497 C477 1.449 . S
C497 C496 1.399 . S
C497 H503 0.930 . S
H498 C478 0.931 . S
H499 C479 0.930 . S
H500 C487 0.931 . S
H501 C488 0.929 . S
H502 C496 0.929 . S
H503 C497 0.930 . S
Mn504 O509 2.095 . S
Mn504 O519 2.162 . S
Mn504 O520 2.297 . S
Mn504 O528 2.385 . S
Mn504 O529 2.209 . S
Mn504 O530 2.094 . S
Mn505 O510 2.121 . S
Mn505 N512 2.257 . S
Mn505 N521 2.282 . S
Mn505 O529 2.215 . S
Mn505 O531 2.117 . S
C506 O528 1.234 . S
C506 O529 1.283 . S
C507 O519 1.281 . S
C507 O520 1.236 . S
C508 O530 1.240 . S
C508 O531 1.264 . S
O509 Mn504 2.095 . S
O509 C518 1.250 . S
O510 Mn505 2.121 . S
O510 C518 1.258 . S
C511 N512 1.326 . S
C511 C515 1.460 . S
C511 H517 0.929 . S
N512 Mn505 2.257 . S
N512 C511 1.326 . S
N512 C516 1.362 . S
C513 C514 1.258 . S
C513 C516 1.431 . S
C513 C533 1.449 . S
C514 C513 1.258 . S
C514 C515 1.477 . S
C514 H534 0.931 . S
C515 C511 1.460 . S
C515 C514 1.477 . S
C515 H535 0.930 . S
C516 N512 1.362 . S
C516 C513 1.431 . S
C516 C526 1.476 . S
H517 C511 0.929 . S
C518 O509 1.250 . S
C518 O510 1.258 . S
O519 Mn504 2.162 . S
O519 C507 1.281 . S
O520 Mn504 2.297 . S
O520 C507 1.236 . S
N521 Mn505 2.282 . S
N521 C522 1.328 . S
N521 C526 1.318 . S
C522 N521 1.328 . S
C522 C523 1.457 . S
C522 H527 0.929 . S
C523 C522 1.457 . S
C523 C524 1.291 . S
C523 H536 0.931 . S
C524 C523 1.291 . S
C524 C525 1.373 . S
C524 H537 0.929 . S
C525 C524 1.373 . S
C525 C526 1.396 . S
C525 C532 1.403 . S
C526 C516 1.476 . S
C526 N521 1.318 . S
C526 C525 1.396 . S
H527 C522 0.929 . S
O528 Mn504 2.385 . S
O528 C506 1.234 . S
O529 Mn504 2.209 . S
O529 Mn505 2.215 . S
O529 C506 1.283 . S
O530 Mn504 2.094 . S
O530 C508 1.240 . S
O531 Mn505 2.117 . S
O531 C508 1.264 . S
C532 C525 1.403 . S
C532 C533 1.399 . S
C532 H538 0.929 . S
C533 C513 1.449 . S
C533 C532 1.399 . S
C533 H539 0.930 . S
H534 C514 0.931 . S
H535 C515 0.930 . S
H536 C523 0.931 . S
H537 C524 0.929 . S
H538 C532 0.929 . S
H539 C533 0.930 . S
Mn540 O545 2.095 . S
Mn540 O555 2.162 . S
Mn540 O556 2.297 . S
Mn540 O564 2.385 . S
Mn540 O565 2.209 . S
Mn540 O566 2.094 . S
Mn541 O546 2.121 . S
Mn541 N548 2.257 . S
Mn541 N557 2.282 . S
Mn541 O565 2.215 . S
Mn541 O567 2.117 . S
C542 O564 1.234 . S
C542 O565 1.283 . S
C543 O555 1.281 . S
C543 O556 1.236 . S
C544 O566 1.240 . S
C544 O567 1.264 . S
O545 Mn540 2.095 . S
O545 C554 1.250 . S
O546 Mn541 2.121 . S
O546 C554 1.258 . S
C547 N548 1.326 . S
C547 C551 1.460 . S
C547 H553 0.929 . S
N548 Mn541 2.257 . S
N548 C547 1.326 . S
N548 C552 1.362 . S
C549 C550 1.258 . S
C549 C552 1.431 . S
C549 C569 1.449 . S
C550 C549 1.258 . S
C550 C551 1.477 . S
C550 H570 0.931 . S
C551 C547 1.460 . S
C551 C550 1.477 . S
C551 H571 0.930 . S
C552 N548 1.362 . S
C552 C549 1.431 . S
C552 C562 1.476 . S
H553 C547 0.929 . S
C554 O545 1.250 . S
C554 O546 1.258 . S
O555 Mn540 2.162 . S
O555 C543 1.281 . S
O556 Mn540 2.297 . S
O556 C543 1.236 . S
N557 Mn541 2.282 . S
N557 C558 1.328 . S
N557 C562 1.318 . S
C558 N557 1.328 . S
C558 C559 1.457 . S
C558 H563 0.929 . S
C559 C558 1.457 . S
C559 C560 1.291 . S
C559 H572 0.931 . S
C560 C559 1.291 . S
C560 C561 1.373 . S
C560 H573 0.929 . S
C561 C560 1.373 . S
C561 C562 1.396 . S
C561 C568 1.403 . S
C562 C552 1.476 . S
C562 N557 1.318 . S
C562 C561 1.396 . S
H563 C558 0.929 . S
O564 Mn540 2.385 . S
O564 C542 1.234 . S
O565 Mn540 2.209 . S
O565 Mn541 2.215 . S
O565 C542 1.283 . S
O566 Mn540 2.094 . S
O566 C544 1.240 . S
O567 Mn541 2.117 . S
O567 C544 1.264 . S
C568 C561 1.403 . S
C568 C569 1.399 . S
C568 H574 0.929 . S
C569 C549 1.449 . S
C569 C568 1.399 . S
C569 H575 0.930 . S
H570 C550 0.931 . S
H571 C551 0.930 . S
H572 C559 0.931 . S
H573 C560 0.929 . S
H574 C568 0.929 . S
H575 C569 0.930 . S
Mn576 O581 2.095 . S
Mn576 O591 2.162 . S
Mn576 O592 2.297 . S
Mn576 O600 2.385 . S
Mn576 O601 2.209 . S
Mn576 O602 2.094 . S
Mn577 O582 2.121 . S
Mn577 N584 2.257 . S
Mn577 N593 2.282 . S
Mn577 O601 2.215 . S
Mn577 O603 2.117 . S
C578 O600 1.234 . S
C578 O601 1.283 . S
C579 O591 1.281 . S
C579 O592 1.236 . S
C580 O602 1.240 . S
C580 O603 1.264 . S
O581 Mn576 2.095 . S
O581 C590 1.250 . S
O582 Mn577 2.121 . S
O582 C590 1.258 . S
C583 N584 1.326 . S
C583 C587 1.460 . S
C583 H589 0.929 . S
N584 Mn577 2.257 . S
N584 C583 1.326 . S
N584 C588 1.362 . S
C585 C586 1.258 . S
C585 C588 1.431 . S
C585 C605 1.449 . S
C586 C585 1.258 . S
C586 C587 1.477 . S
C586 H606 0.931 . S
C587 C583 1.460 . S
C587 C586 1.477 . S
C587 H607 0.930 . S
C588 N584 1.362 . S
C588 C585 1.431 . S
C588 C598 1.476 . S
H589 C583 0.929 . S
C590 O581 1.250 . S
C590 O582 1.258 . S
O591 Mn576 2.162 . S
O591 C579 1.281 . S
O592 Mn576 2.297 . S
O592 C579 1.236 . S
N593 Mn577 2.282 . S
N593 C594 1.328 . S
N593 C598 1.318 . S
C594 N593 1.328 . S
C594 C595 1.457 . S
C594 H599 0.929 . S
C595 C594 1.457 . S
C595 C596 1.291 . S
C595 H608 0.931 . S
C596 C595 1.291 . S
C596 C597 1.373 . S
C596 H609 0.929 . S
C597 C596 1.373 . S
C597 C598 1.396 . S
C597 C604 1.403 . S
C598 C588 1.476 . S
C598 N593 1.318 . S
C598 C597 1.396 . S
H599 C594 0.929 . S
O600 Mn576 2.385 . S
O600 C578 1.234 . S
O601 Mn576 2.209 . S
O601 Mn577 2.215 . S
O601 C578 1.283 . S
O602 Mn576 2.094 . S
O602 C580 1.240 . S
O603 Mn577 2.117 . S
O603 C580 1.264 . S
C604 C597 1.403 . S
C604 C605 1.399 . S
C604 H610 0.929 . S
C605 C585 1.449 . S
C605 C604 1.399 . S
C605 H611 0.930 . S
H606 C586 0.931 . S
H607 C587 0.930 . S
H608 C595 0.931 . S
H609 C596 0.929 . S
H610 C604 0.929 . S
H611 C605 0.930 . S
Mn612 O617 2.095 . S
Mn612 O627 2.162 . S
Mn612 O628 2.297 . S
Mn612 O636 2.385 . S
Mn612 O637 2.209 . S
Mn612 O638 2.094 . S
Mn613 O618 2.121 . S
Mn613 N620 2.257 . S
Mn613 N629 2.282 . S
Mn613 O637 2.215 . S
Mn613 O639 2.117 . S
C614 O636 1.234 . S
C614 O637 1.283 . S
C615 O627 1.281 . S
C615 O628 1.236 . S
C616 O638 1.240 . S
C616 O639 1.264 . S
O617 Mn612 2.095 . S
O617 C626 1.250 . S
O618 Mn613 2.121 . S
O618 C626 1.258 . S
C619 N620 1.326 . S
C619 C623 1.460 . S
C619 H625 0.929 . S
N620 Mn613 2.257 . S
N620 C619 1.326 . S
N620 C624 1.362 . S
C621 C622 1.258 . S
C621 C624 1.431 . S
C621 C641 1.449 . S
C622 C621 1.258 . S
C622 C623 1.477 . S
C622 H642 0.931 . S
C623 C619 1.460 . S
C623 C622 1.477 . S
C623 H643 0.930 . S
C624 N620 1.362 . S
C624 C621 1.431 . S
C624 C634 1.476 . S
H625 C619 0.929 . S
C626 O617 1.250 . S
C626 O618 1.258 . S
O627 Mn612 2.162 . S
O627 C615 1.281 . S
O628 Mn612 2.297 . S
O628 C615 1.236 . S
N629 Mn613 2.282 . S
N629 C630 1.328 . S
N629 C634 1.318 . S
C630 N629 1.328 . S
C630 C631 1.457 . S
C630 H635 0.929 . S
C631 C630 1.457 . S
C631 C632 1.291 . S
C631 H644 0.931 . S
C632 C631 1.291 . S
C632 C633 1.373 . S
C632 H645 0.929 . S
C633 C632 1.373 . S
C633 C634 1.396 . S
C633 C640 1.403 . S
C634 C624 1.476 . S
C634 N629 1.318 . S
C634 C633 1.396 . S
H635 C630 0.929 . S
O636 Mn612 2.385 . S
O636 C614 1.234 . S
O637 Mn612 2.209 . S
O637 Mn613 2.215 . S
O637 C614 1.283 . S
O638 Mn612 2.094 . S
O638 C616 1.240 . S
O639 Mn613 2.117 . S
O639 C616 1.264 . S
C640 C633 1.403 . S
C640 C641 1.399 . S
C640 H646 0.929 . S
C641 C621 1.449 . S
C641 C640 1.399 . S
C641 H647 0.930 . S
H642 C622 0.931 . S
H643 C623 0.930 . S
H644 C631 0.931 . S
H645 C632 0.929 . S
H646 C640 0.929 . S
H647 C641 0.930 . S
H648 C654 0.930 . S
H649 C658 0.930 . S
H650 C663 0.929 . S
H651 C661 0.929 . S
H652 C656 0.929 . S
H653 C662 0.929 . S
C654 H648 0.930 . S
C654 C655 1.367 . S
C654 C662 1.378 . S
C655 C654 1.367 . S
C655 C663 1.433 . S
C656 H652 0.929 . S
C656 C658 1.378 . S
C656 C660 1.350 . S
C657 C660 1.463 . S
C657 C662 1.350 . S
C657 N665 1.427 . S
C658 H649 0.930 . S
C658 C656 1.378 . S
C658 C659 1.367 . S
C659 C658 1.367 . S
C659 C661 1.433 . S
C660 C656 1.350 . S
C660 C657 1.463 . S
C660 N664 1.427 . S
C661 H651 0.929 . S
C661 C659 1.433 . S
C661 N664 1.384 . S
C662 H653 0.929 . S
C662 C654 1.378 . S
C662 C657 1.350 . S
C663 H650 0.929 . S
C663 C655 1.433 . S
C663 N665 1.384 . S
N664 C660 1.427 . S
N664 C661 1.384 . S
N665 C657 1.427 . S
N665 C663 1.384 . S
H666 C672 0.930 1_565 S
H667 C676 0.930 . S
H668 C681 0.929 . S
H669 C679 0.929 . S
H670 C674 0.929 . S
H671 C680 0.929 . S
C672 H666 0.930 1_545 S
C672 C673 1.367 . S
C672 C680 1.378 . S
C673 C672 1.367 . S
C673 C681 1.433 . S
C674 H670 0.929 . S
C674 C676 1.378 . S
C674 C678 1.350 . S
C675 C678 1.463 . S
C675 C680 1.350 . S
C675 N683 1.427 . S
C676 H667 0.930 . S
C676 C674 1.378 . S
C676 C677 1.367 . S
C677 C676 1.367 . S
C677 C679 1.433 . S
C678 C674 1.350 . S
C678 C675 1.463 . S
C678 N682 1.427 . S
C679 H669 0.929 . S
C679 C677 1.433 . S
C679 N682 1.384 . S
C680 H671 0.929 . S
C680 C672 1.378 . S
C680 C675 1.350 . S
C681 H668 0.929 . S
C681 C673 1.433 . S
C681 N683 1.384 . S
N682 C678 1.427 . S
N682 C679 1.384 . S
N683 C675 1.427 . S
N683 C681 1.384 . S
H684 C690 0.930 . S
H685 C694 0.928 . S
H686 C699 0.929 . S
H687 C697 0.929 . S
H688 C692 0.929 . S
H689 C698 0.929 . S
C690 H684 0.930 . S
C690 C691 1.367 . S
C690 C698 1.378 . S
C691 C690 1.367 . S
C691 C699 1.433 . S
C692 H688 0.929 . S
C692 C694 1.378 . S
C692 C696 1.350 . S
C693 C696 1.463 . S
C693 C698 1.350 . S
C693 N701 1.427 . S
C694 H685 0.928 . S
C694 C692 1.378 . S
C694 C695 1.367 . S
C695 C694 1.367 . S
C695 C697 1.433 . S
C696 C692 1.350 . S
C696 C693 1.463 . S
C696 N700 1.427 . S
C697 H687 0.929 . S
C697 C695 1.433 . S
C697 N700 1.384 . S
C698 H689 0.929 . S
C698 C690 1.378 . S
C698 C693 1.350 . S
C699 H686 0.929 . S
C699 C691 1.433 . S
C699 N701 1.384 . S
N700 C696 1.427 . S
N700 C697 1.384 . S
N701 C693 1.427 . S
N701 C699 1.384 . S
H702 C708 0.930 . S
H703 C712 0.930 . S
H704 C717 0.929 . S
H705 C715 0.929 . S
H706 C710 0.929 . S
H707 C716 0.929 . S
C708 H702 0.930 . S
C708 C709 1.367 . S
C708 C716 1.378 . S
C709 C708 1.367 . S
C709 C717 1.433 . S
C710 H706 0.929 . S
C710 C712 1.378 . S
C710 C714 1.350 . S
C711 C714 1.463 . S
C711 C716 1.350 . S
C711 N719 1.427 . S
C712 H703 0.930 . S
C712 C710 1.378 . S
C712 C713 1.367 . S
C713 C712 1.367 . S
C713 C715 1.433 . S
C714 C710 1.350 . S
C714 C711 1.463 . S
C714 N718 1.427 . S
C715 H705 0.929 . S
C715 C713 1.433 . S
C715 N718 1.384 . S
C716 H707 0.929 . S
C716 C708 1.378 . S
C716 C711 1.350 . S
C717 H704 0.929 . S
C717 C709 1.433 . S
C717 N719 1.384 . S
N718 C714 1.427 . S
N718 C715 1.384 . S
N719 C711 1.427 . S
N719 C717 1.384 . S
H720 C726 0.930 . S
H721 C730 0.930 . S
H722 C735 0.929 . S
H723 C733 0.929 . S
H724 C728 0.929 . S
H725 C734 0.929 . S
C726 H720 0.930 . S
C726 C727 1.367 . S
C726 C734 1.378 . S
C727 C726 1.367 . S
C727 C735 1.433 . S
C728 H724 0.929 . S
C728 C730 1.378 . S
C728 C732 1.350 . S
C729 C732 1.463 . S
C729 C734 1.350 . S
C729 N737 1.427 . S
C730 H721 0.930 . S
C730 C728 1.378 . S
C730 C731 1.367 . S
C731 C730 1.367 . S
C731 C733 1.433 . S
C732 C728 1.350 . S
C732 C729 1.463 . S
C732 N736 1.427 . S
C733 H723 0.929 . S
C733 C731 1.433 . S
C733 N736 1.384 . S
C734 H725 0.929 . S
C734 C726 1.378 . S
C734 C729 1.350 . S
C735 H722 0.929 . S
C735 C727 1.433 . S
C735 N737 1.384 . S
N736 C732 1.427 . S
N736 C733 1.384 . S
N737 C729 1.427 . S
N737 C735 1.384 . S
H738 C744 0.930 . S
H739 C748 0.930 . S
H740 C753 0.929 . S
H741 C751 0.929 . S
H742 C746 0.929 . S
H743 C752 0.929 . S
C744 H738 0.930 . S
C744 C745 1.367 . S
C744 C752 1.378 . S
C745 C744 1.367 . S
C745 C753 1.433 . S
C746 H742 0.929 . S
C746 C748 1.378 . S
C746 C750 1.350 . S
C747 C750 1.463 . S
C747 C752 1.350 . S
C747 N755 1.427 . S
C748 H739 0.930 . S
C748 C746 1.378 . S
C748 C749 1.367 . S
C749 C748 1.367 . S
C749 C751 1.433 . S
C750 C746 1.350 . S
C750 C747 1.463 . S
C750 N754 1.427 . S
C751 H741 0.929 . S
C751 C749 1.433 . S
C751 N754 1.384 . S
C752 H743 0.929 . S
C752 C744 1.378 . S
C752 C747 1.350 . S
C753 H740 0.929 . S
C753 C745 1.433 . S
C753 N755 1.384 . S
N754 C750 1.427 . S
N754 C751 1.384 . S
N755 C747 1.427 . S
N755 C753 1.384 . S
H756 C762 0.930 . S
H757 C766 0.930 . S
H758 C771 0.929 . S
H759 C769 0.929 . S
H760 C764 0.929 . S
H761 C770 0.929 . S
C762 H756 0.930 . S
C762 C763 1.367 . S
C762 C770 1.378 . S
C763 C762 1.367 . S
C763 C771 1.433 . S
C764 H760 0.929 . S
C764 C766 1.378 . S
C764 C768 1.350 . S
C765 C768 1.463 1_655 S
C765 C770 1.350 . S
C765 N773 1.427 . S
C766 H757 0.930 . S
C766 C764 1.378 . S
C766 C767 1.367 . S
C767 C766 1.367 . S
C767 C769 1.433 . S
C768 C764 1.350 . S
C768 C765 1.463 1_455 S
C768 N772 1.427 . S
C769 H759 0.929 . S
C769 C767 1.433 . S
C769 N772 1.384 . S
C770 H761 0.929 . S
C770 C762 1.378 . S
C770 C765 1.350 . S
C771 H758 0.929 . S
C771 C763 1.433 . S
C771 N773 1.384 . S
N772 C768 1.427 . S
N772 C769 1.384 . S
N773 C765 1.427 . S
N773 C771 1.384 . S
H774 C780 0.930 . S
H775 C784 0.930 . S
H776 C789 0.929 . S
H777 C787 0.929 . S
H778 C782 0.929 . S
H779 C788 0.929 . S
C780 H774 0.930 . S
C780 C781 1.367 . S
C780 C788 1.378 . S
C781 C780 1.367 . S
C781 C789 1.433 . S
C782 H778 0.929 . S
C782 C784 1.378 . S
C782 C786 1.350 . S
C783 C786 1.463 . S
C783 C788 1.350 . S
C783 N791 1.427 . S
C784 H775 0.930 . S
C784 C782 1.378 . S
C784 C785 1.367 . S
C785 C784 1.367 . S
C785 C787 1.433 . S
C786 C782 1.350 . S
C786 C783 1.463 . S
C786 N790 1.427 . S
C787 H777 0.929 . S
C787 C785 1.433 . S
C787 N790 1.384 . S
C788 H779 0.929 . S
C788 C780 1.378 . S
C788 C783 1.350 . S
C789 H776 0.929 . S
C789 C781 1.433 . S
C789 N791 1.384 . S
N790 C786 1.427 . S
N790 C787 1.384 . S
N791 C783 1.427 . S
N791 C789 1.384 . S
H792 C798 0.930 . S
H793 C802 0.930 . S
H794 C807 0.929 . S
H795 C805 0.929 . S
H796 C800 0.929 . S
H797 C806 0.929 . S
C798 H792 0.930 . S
C798 C799 1.367 . S
C798 C806 1.378 . S
C799 C798 1.367 . S
C799 C807 1.433 . S
C800 H796 0.929 . S
C800 C802 1.378 . S
C800 C804 1.350 . S
C801 C804 1.463 1_545 S
C801 C806 1.350 . S
C801 N809 1.427 . S
C802 H793 0.930 . S
C802 C800 1.378 . S
C802 C803 1.367 . S
C803 C802 1.367 . S
C803 C805 1.433 . S
C804 C800 1.350 . S
C804 C801 1.463 1_565 S
C804 N808 1.427 . S
C805 H795 0.929 . S
C805 C803 1.433 . S
C805 N808 1.384 . S
C806 H797 0.929 . S
C806 C798 1.378 . S
C806 C801 1.350 . S
C807 H794 0.929 . S
C807 C799 1.433 . S
C807 N809 1.384 . S
N808 C804 1.427 . S
N808 C805 1.384 . S
N809 C801 1.427 . S
N809 C807 1.384 . S
H810 C816 0.930 . S
H811 C820 0.930 . S
H812 C825 0.929 . S
H813 C823 0.929 . S
H814 C818 0.929 . S
H815 C824 0.929 . S
C816 H810 0.930 . S
C816 C817 1.367 . S
C816 C824 1.378 . S
C817 C816 1.367 . S
C817 C825 1.433 . S
C818 H814 0.929 . S
C818 C820 1.378 . S
C818 C822 1.350 . S
C819 C822 1.463 1_455 S
C819 C824 1.350 . S
C819 N827 1.427 . S
C820 H811 0.930 . S
C820 C818 1.378 . S
C820 C821 1.367 . S
C821 C820 1.367 . S
C821 C823 1.433 . S
C822 C818 1.350 . S
C822 C819 1.463 1_655 S
C822 N826 1.427 . S
C823 H813 0.929 . S
C823 C821 1.433 . S
C823 N826 1.384 . S
C824 H815 0.929 . S
C824 C816 1.378 . S
C824 C819 1.350 . S
C825 H812 0.929 . S
C825 C817 1.433 . S
C825 N827 1.384 . S
N826 C822 1.427 . S
N826 C823 1.384 . S
N827 C819 1.427 . S
N827 C825 1.384 . S
H828 C834 0.930 . S
H829 C838 0.930 . S
H830 C843 0.929 . S
H831 C841 0.929 . S
H832 C836 0.929 . S
H833 C842 0.929 . S
C834 H828 0.930 . S
C834 C835 1.367 . S
C834 C842 1.378 . S
C835 C834 1.367 . S
C835 C843 1.433 . S
C836 H832 0.929 . S
C836 C838 1.378 . S
C836 C840 1.350 . S
C837 C840 1.463 . S
C837 C842 1.350 . S
C837 N845 1.427 . S
C838 H829 0.930 . S
C838 C836 1.378 . S
C838 C839 1.367 . S
C839 C838 1.367 . S
C839 C841 1.433 . S
C840 C836 1.350 . S
C840 C837 1.463 . S
C840 N844 1.427 . S
C841 H831 0.929 . S
C841 C839 1.433 . S
C841 N844 1.384 . S
C842 H833 0.929 . S
C842 C834 1.378 . S
C842 C837 1.350 . S
C843 H830 0.929 . S
C843 C835 1.433 . S
C843 N845 1.384 . S
N844 C840 1.427 . S
N844 C841 1.384 . S
N845 C837 1.427 . S
N845 C843 1.384 . S
H846 C852 0.930 . S
H847 C856 0.930 . S
H848 C861 0.929 . S
H849 C859 0.929 . S
H850 C854 0.929 . S
H851 C860 0.929 . S
C852 H846 0.930 . S
C852 C853 1.367 . S
C852 C860 1.378 . S
C853 C852 1.367 . S
C853 C861 1.433 . S
C854 H850 0.929 . S
C854 C856 1.378 . S
C854 C858 1.350 . S
C855 C858 1.463 1_545 S
C855 C860 1.350 . S
C855 N863 1.427 . S
C856 H847 0.930 . S
C856 C854 1.378 . S
C856 C857 1.367 . S
C857 C856 1.367 . S
C857 C859 1.433 . S
C858 C854 1.350 . S
C858 C855 1.463 1_565 S
C858 N862 1.427 . S
C859 H849 0.929 . S
C859 C857 1.433 . S
C859 N862 1.384 . S
C860 H851 0.929 . S
C860 C852 1.378 . S
C860 C855 1.350 . S
C861 H848 0.929 . S
C861 C853 1.433 . S
C861 N863 1.384 . S
N862 C858 1.427 . S
N862 C859 1.384 . S
N863 C855 1.427 . S
N863 C861 1.384 . S
H864 C870 0.930 . S
H865 C874 0.930 . S
H866 C879 0.929 . S
H867 C877 0.929 . S
H868 C872 0.929 . S
H869 C878 0.929 . S
C870 H864 0.930 . S
C870 C871 1.367 . S
C870 C878 1.378 . S
C871 C870 1.367 . S
C871 C879 1.433 . S
C872 H868 0.929 . S
C872 C874 1.378 . S
C872 C876 1.350 . S
C873 C876 1.463 1_565 S
C873 C878 1.350 . S
C873 N881 1.427 . S
C874 H865 0.930 . S
C874 C872 1.378 . S
C874 C875 1.367 . S
C875 C874 1.367 . S
C875 C877 1.433 . S
C876 C872 1.350 . S
C876 C873 1.463 1_545 S
C876 N880 1.427 . S
C877 H867 0.929 . S
C877 C875 1.433 . S
C877 N880 1.384 . S
C878 H869 0.929 . S
C878 C870 1.378 . S
C878 C873 1.350 . S
C879 H866 0.929 . S
C879 C871 1.433 . S
C879 N881 1.384 . S
N880 C876 1.427 . S
N880 C877 1.384 . S
N881 C873 1.427 . S
N881 C879 1.384 . S
H882 C888 0.930 . S
H883 C892 0.930 . S
H884 C897 0.929 . S
H885 C895 0.929 . S
H886 C890 0.929 . S
H887 C896 0.929 . S
C888 H882 0.930 . S
C888 C889 1.367 . S
C888 C896 1.378 . S
C889 C888 1.367 . S
C889 C897 1.433 . S
C890 H886 0.929 . S
C890 C892 1.378 . S
C890 C894 1.350 . S
C891 C894 1.463 1_455 S
C891 C896 1.350 . S
C891 N899 1.427 . S
C892 H883 0.930 . S
C892 C890 1.378 . S
C892 C893 1.367 . S
C893 C892 1.367 . S
C893 C895 1.433 . S
C894 C890 1.350 . S
C894 C891 1.463 1_655 S
C894 N898 1.427 . S
C895 H885 0.929 . S
C895 C893 1.433 . S
C895 N898 1.384 . S
C896 H887 0.929 . S
C896 C888 1.378 . S
C896 C891 1.350 . S
C897 H884 0.929 . S
C897 C889 1.433 . S
C897 N899 1.384 . S
N898 C894 1.427 . S
N898 C895 1.384 . S
N899 C891 1.427 . S
N899 C897 1.384 . S
H900 C906 0.930 . S
H901 C910 0.930 . S
H902 C915 0.929 . S
H903 C913 0.929 . S
H904 C908 0.929 . S
H905 C914 0.929 . S
C906 H900 0.930 . S
C906 C907 1.367 . S
C906 C914 1.378 . S
C907 C906 1.367 . S
C907 C915 1.433 . S
C908 H904 0.929 . S
C908 C910 1.378 . S
C908 C912 1.350 . S
C909 C912 1.463 . S
C909 C914 1.350 . S
C909 N917 1.427 . S
C910 H901 0.930 . S
C910 C908 1.378 . S
C910 C911 1.367 . S
C911 C910 1.367 . S
C911 C913 1.433 . S
C912 C908 1.350 . S
C912 C909 1.463 . S
C912 N916 1.427 . S
C913 H903 0.929 . S
C913 C911 1.433 . S
C913 N916 1.384 . S
C914 H905 0.929 . S
C914 C906 1.378 . S
C914 C909 1.350 . S
C915 H902 0.929 . S
C915 C907 1.433 . S
C915 N917 1.384 . S
N916 C912 1.427 . S
N916 C913 1.384 . S
N917 C909 1.427 . S
N917 C915 1.384 . S
H918 C924 0.930 . S
H919 C928 0.930 . S
H920 C933 0.929 . S
H921 C931 0.929 . S
H922 C926 0.929 . S
H923 C932 0.929 . S
C924 H918 0.930 . S
C924 C925 1.367 . S
C924 C932 1.378 . S
C925 C924 1.367 . S
C925 C933 1.433 . S
C926 H922 0.929 . S
C926 C928 1.378 . S
C926 C930 1.350 . S
C927 C930 1.463 . S
C927 C932 1.350 . S
C927 N935 1.427 . S
C928 H919 0.930 . S
C928 C926 1.378 . S
C928 C929 1.367 . S
C929 C928 1.367 . S
C929 C931 1.433 . S
C930 C926 1.350 . S
C930 C927 1.463 . S
C930 N934 1.427 . S
C931 H921 0.929 . S
C931 C929 1.433 . S
C931 N934 1.384 . S
C932 H923 0.929 . S
C932 C924 1.378 . S
C932 C927 1.350 . S
C933 H920 0.929 . S
C933 C925 1.433 . S
C933 N935 1.384 . S
N934 C930 1.427 . S
N934 C931 1.384 . S
N935 C927 1.427 . S
N935 C933 1.384 . S
H936 C942 0.930 . S
H937 C946 0.930 . S
H938 C951 0.929 . S
H939 C949 0.929 . S
H940 C944 0.929 . S
H941 C950 0.929 . S
C942 H936 0.930 . S
C942 C943 1.367 . S
C942 C950 1.378 . S
C943 C942 1.367 . S
C943 C951 1.433 . S
C944 H940 0.929 . S
C944 C946 1.378 . S
C944 C948 1.350 . S
C945 C948 1.463 . S
C945 C950 1.350 . S
C945 N953 1.427 . S
C946 H937 0.930 . S
C946 C944 1.378 . S
C946 C947 1.367 . S
C947 C946 1.367 . S
C947 C949 1.433 . S
C948 C944 1.350 . S
C948 C945 1.463 . S
C948 N952 1.427 . S
C949 H939 0.929 . S
C949 C947 1.433 . S
C949 N952 1.384 . S
C950 H941 0.929 . S
C950 C942 1.378 . S
C950 C945 1.350 . S
C951 H938 0.929 . S
C951 C943 1.433 . S
C951 N953 1.384 . S
N952 C948 1.427 . S
N952 C949 1.384 . S
N953 C945 1.427 . S
N953 C951 1.384 . S
H954 C960 0.930 . S
H955 C964 0.930 . S
H956 C969 0.929 . S
H957 C967 0.929 . S
H958 C962 0.929 . S
H959 C968 0.929 . S
C960 H954 0.930 . S
C960 C961 1.367 . S
C960 C968 1.378 . S
C961 C960 1.367 . S
C961 C969 1.433 . S
C962 H958 0.929 . S
C962 C964 1.378 . S
C962 C966 1.350 . S
C963 C966 1.463 . S
C963 C968 1.350 . S
C963 N971 1.427 . S
C964 H955 0.930 . S
C964 C962 1.378 . S
C964 C965 1.367 . S
C965 C964 1.367 . S
C965 C967 1.433 . S
C966 C962 1.350 . S
C966 C963 1.463 . S
C966 N970 1.427 . S
C967 H957 0.929 . S
C967 C965 1.433 . S
C967 N970 1.384 . S
C968 H959 0.929 . S
C968 C960 1.378 . S
C968 C963 1.350 . S
C969 H956 0.929 . S
C969 C961 1.433 . S
C969 N971 1.384 . S
N970 C966 1.427 . S
N970 C967 1.384 . S
N971 C963 1.427 . S
N971 C969 1.384 . S
H972 C978 0.930 . S
H973 C982 0.930 . S
H974 C987 0.929 . S
H975 C985 0.929 . S
H976 C980 0.929 . S
H977 C986 0.929 . S
C978 H972 0.930 . S
C978 C979 1.367 . S
C978 C986 1.378 . S
C979 C978 1.367 . S
C979 C987 1.433 . S
C980 H976 0.929 . S
C980 C982 1.378 . S
C980 C984 1.350 . S
C981 C984 1.463 . S
C981 C986 1.350 . S
C981 N989 1.427 . S
C982 H973 0.930 . S
C982 C980 1.378 . S
C982 C983 1.367 . S
C983 C982 1.367 . S
C983 C985 1.433 . S
C984 C980 1.350 . S
C984 C981 1.463 . S
C984 N988 1.427 . S
C985 H975 0.929 . S
C985 C983 1.433 . S
C985 N988 1.384 . S
C986 H977 0.929 . S
C986 C978 1.378 . S
C986 C981 1.350 . S
C987 H974 0.929 . S
C987 C979 1.433 . S
C987 N989 1.384 . S
N988 C984 1.427 . S
N988 C985 1.384 . S
N989 C981 1.427 . S
N989 C987 1.384 . S
H990 C996 0.930 . S
H991 C1000 0.930 . S
H992 C1005 0.929 . S
H993 C1003 0.929 . S
H994 C998 0.929 . S
H995 C1004 0.929 . S
C996 H990 0.930 . S
C996 C997 1.367 . S
C996 C1004 1.378 . S
C997 C996 1.367 . S
C997 C1005 1.433 . S
C998 H994 0.929 . S
C998 C1000 1.378 . S
C998 C1002 1.350 . S
C999 C1002 1.463 . S
C999 C1004 1.350 . S
C999 N1007 1.427 . S
C1000 H991 0.930 . S
C1000 C998 1.378 . S
C1000 C1001 1.367 . S
C1001 C1000 1.367 . S
C1001 C1003 1.433 . S
C1002 C998 1.350 . S
C1002 C999 1.463 . S
C1002 N1006 1.427 . S
C1003 H993 0.929 . S
C1003 C1001 1.433 . S
C1003 N1006 1.384 . S
C1004 H995 0.929 . S
C1004 C996 1.378 . S
C1004 C999 1.350 . S
C1005 H992 0.929 . S
C1005 C997 1.433 . S
C1005 N1007 1.384 . S
N1006 C1002 1.427 . S
N1006 C1003 1.384 . S
N1007 C999 1.427 . S
N1007 C1005 1.384 . S
H1008 C1014 0.930 . S
H1009 C1018 0.930 . S
H1010 C1023 0.929 . S
H1011 C1021 0.929 . S
H1012 C1016 0.929 . S
H1013 C1022 0.929 . S
C1014 H1008 0.930 . S
C1014 C1015 1.367 . S
C1014 C1022 1.378 . S
C1015 C1014 1.367 . S
C1015 C1023 1.433 . S
C1016 H1012 0.929 . S
C1016 C1018 1.378 . S
C1016 C1020 1.350 . S
C1017 C1020 1.463 . S
C1017 C1022 1.350 . S
C1017 N1025 1.427 . S
C1018 H1009 0.930 . S
C1018 C1016 1.378 . S
C1018 C1019 1.367 . S
C1019 C1018 1.367 . S
C1019 C1021 1.433 . S
C1020 C1016 1.350 . S
C1020 C1017 1.463 . S
C1020 N1024 1.427 . S
C1021 H1011 0.929 . S
C1021 C1019 1.433 . S
C1021 N1024 1.384 . S
C1022 H1013 0.929 . S
C1022 C1014 1.378 . S
C1022 C1017 1.350 . S
C1023 H1010 0.929 . S
C1023 C1015 1.433 . S
C1023 N1025 1.384 . S
N1024 C1020 1.427 . S
N1024 C1021 1.384 . S
N1025 C1017 1.427 . S
N1025 C1023 1.384 . S
H1026 C1032 0.930 . S
H1027 C1036 0.930 . S
H1028 C1041 0.929 . S
H1029 C1039 0.929 . S
H1030 C1034 0.929 . S
H1031 C1040 0.929 . S
C1032 H1026 0.930 . S
C1032 C1033 1.367 . S
C1032 C1040 1.378 . S
C1033 C1032 1.367 . S
C1033 C1041 1.433 . S
C1034 H1030 0.929 . S
C1034 C1036 1.378 . S
C1034 C1038 1.350 . S
C1035 C1038 1.463 . S
C1035 C1040 1.350 . S
C1035 N1043 1.427 . S
C1036 H1027 0.930 . S
C1036 C1034 1.378 . S
C1036 C1037 1.367 . S
C1037 C1036 1.367 . S
C1037 C1039 1.433 . S
C1038 C1034 1.350 . S
C1038 C1035 1.463 . S
C1038 N1042 1.427 . S
C1039 H1029 0.929 . S
C1039 C1037 1.433 . S
C1039 N1042 1.384 . S
C1040 H1031 0.929 . S
C1040 C1032 1.378 . S
C1040 C1035 1.350 . S
C1041 H1028 0.929 . S
C1041 C1033 1.433 . S
C1041 N1043 1.384 . S
N1042 C1038 1.427 . S
N1042 C1039 1.384 . S
N1043 C1035 1.427 . S
N1043 C1041 1.384 . S
H1044 C1050 0.930 . S
H1045 C1054 0.930 . S
H1046 C1059 0.929 . S
H1047 C1057 0.929 . S
H1048 C1052 0.929 . S
H1049 C1058 0.929 . S
C1050 H1044 0.930 . S
C1050 C1051 1.367 . S
C1050 C1058 1.378 . S
C1051 C1050 1.367 . S
C1051 C1059 1.433 . S
C1052 H1048 0.929 . S
C1052 C1054 1.378 . S
C1052 C1056 1.350 . S
C1053 C1056 1.463 . S
C1053 C1058 1.350 . S
C1053 N1061 1.427 . S
C1054 H1045 0.930 . S
C1054 C1052 1.378 . S
C1054 C1055 1.367 . S
C1055 C1054 1.367 . S
C1055 C1057 1.433 . S
C1056 C1052 1.350 . S
C1056 C1053 1.463 . S
C1056 N1060 1.427 . S
C1057 H1047 0.929 . S
C1057 C1055 1.433 . S
C1057 N1060 1.384 . S
C1058 H1049 0.929 . S
C1058 C1050 1.378 . S
C1058 C1053 1.350 . S
C1059 H1046 0.929 . S
C1059 C1051 1.433 . S
C1059 N1061 1.384 . S
N1060 C1056 1.427 . S
N1060 C1057 1.384 . S
N1061 C1053 1.427 . S
N1061 C1059 1.384 . S
H1062 C1068 0.930 . S
H1063 C1072 0.930 . S
H1064 C1077 0.929 . S
H1065 C1075 0.929 . S
H1066 C1070 0.929 . S
H1067 C1076 0.929 . S
C1068 H1062 0.930 . S
C1068 C1069 1.367 . S
C1068 C1076 1.378 . S
C1069 C1068 1.367 . S
C1069 C1077 1.433 . S
C1070 H1066 0.929 . S
C1070 C1072 1.378 . S
C1070 C1074 1.350 . S
C1071 C1074 1.463 . S
C1071 C1076 1.350 . S
C1071 N1079 1.427 . S
C1072 H1063 0.930 . S
C1072 C1070 1.378 . S
C1072 C1073 1.367 . S
C1073 C1072 1.367 . S
C1073 C1075 1.433 . S
C1074 C1070 1.350 . S
C1074 C1071 1.463 . S
C1074 N1078 1.427 . S
C1075 H1065 0.929 . S
C1075 C1073 1.433 . S
C1075 N1078 1.384 . S
C1076 H1067 0.929 . S
C1076 C1068 1.378 . S
C1076 C1071 1.350 . S
C1077 H1064 0.929 . S
C1077 C1069 1.433 . S
C1077 N1079 1.384 . S
N1078 C1074 1.427 . S
N1078 C1075 1.384 . S
N1079 C1071 1.427 . S
N1079 C1077 1.384 . S
H1080 C1086 0.930 . S
H1081 C1090 0.930 . S
H1082 C1095 0.929 . S
H1083 C1093 0.929 . S
H1084 C1088 0.929 . S
H1085 C1094 0.929 . S
C1086 H1080 0.930 . S
C1086 C1087 1.367 . S
C1086 C1094 1.378 . S
C1087 C1086 1.367 . S
C1087 C1095 1.433 . S
C1088 H1084 0.929 . S
C1088 C1090 1.378 . S
C1088 C1092 1.350 . S
C1089 C1092 1.463 . S
C1089 C1094 1.350 . S
C1089 N1097 1.427 . S
C1090 H1081 0.930 . S
C1090 C1088 1.378 . S
C1090 C1091 1.367 . S
C1091 C1090 1.367 . S
C1091 C1093 1.433 . S
C1092 C1088 1.350 . S
C1092 C1089 1.463 . S
C1092 N1096 1.427 . S
C1093 H1083 0.929 . S
C1093 C1091 1.433 . S
C1093 N1096 1.384 . S
C1094 H1085 0.929 . S
C1094 C1086 1.378 . S
C1094 C1089 1.350 . S
C1095 H1082 0.929 . S
C1095 C1087 1.433 . S
C1095 N1097 1.384 . S
N1096 C1092 1.427 . S
N1096 C1093 1.384 . S
N1097 C1089 1.427 . S
N1097 C1095 1.384 . S
H1098 C1104 0.930 . S
H1099 C1108 0.930 . S
H1100 C1113 0.929 . S
H1101 C1111 0.929 . S
H1102 C1106 0.929 . S
H1103 C1112 0.929 . S
C1104 H1098 0.930 . S
C1104 C1105 1.367 . S
C1104 C1112 1.378 . S
C1105 C1104 1.367 . S
C1105 C1113 1.433 . S
C1106 H1102 0.929 . S
C1106 C1108 1.378 . S
C1106 C1110 1.350 . S
C1107 C1110 1.463 . S
C1107 C1112 1.350 . S
C1107 N1115 1.427 . S
C1108 H1099 0.930 . S
C1108 C1106 1.378 . S
C1108 C1109 1.367 . S
C1109 C1108 1.367 . S
C1109 C1111 1.433 . S
C1110 C1106 1.350 . S
C1110 C1107 1.463 . S
C1110 N1114 1.427 . S
C1111 H1101 0.929 . S
C1111 C1109 1.433 . S
C1111 N1114 1.384 . S
C1112 H1103 0.929 . S
C1112 C1104 1.378 . S
C1112 C1107 1.350 . S
C1113 H1100 0.929 . S
C1113 C1105 1.433 . S
C1113 N1115 1.384 . S
N1114 C1110 1.427 . S
N1114 C1111 1.384 . S
N1115 C1107 1.427 . S
N1115 C1113 1.384 . S
H1116 C1122 0.930 . S
H1117 C1126 0.930 . S
H1118 C1131 0.929 . S
H1119 C1129 0.929 . S
H1120 C1124 0.929 . S
H1121 C1130 0.929 . S
C1122 H1116 0.930 . S
C1122 C1123 1.367 . S
C1122 C1130 1.378 . S
C1123 C1122 1.367 . S
C1123 C1131 1.433 . S
C1124 H1120 0.929 . S
C1124 C1126 1.378 . S
C1124 C1128 1.350 . S
C1125 C1128 1.463 . S
C1125 C1130 1.350 . S
C1125 N1133 1.427 . S
C1126 H1117 0.930 . S
C1126 C1124 1.378 . S
C1126 C1127 1.367 . S
C1127 C1126 1.367 . S
C1127 C1129 1.433 . S
C1128 C1124 1.350 . S
C1128 C1125 1.463 . S
C1128 N1132 1.427 . S
C1129 H1119 0.929 . S
C1129 C1127 1.433 . S
C1129 N1132 1.384 . S
C1130 H1121 0.929 . S
C1130 C1122 1.378 . S
C1130 C1125 1.350 . S
C1131 H1118 0.929 . S
C1131 C1123 1.433 . S
C1131 N1133 1.384 . S
N1132 C1128 1.427 . S
N1132 C1129 1.384 . S
N1133 C1125 1.427 . S
N1133 C1131 1.384 . S
H1134 C1140 0.930 . S
H1135 C1144 0.930 . S
H1136 C1149 0.929 . S
H1137 C1147 0.929 . S
H1138 C1142 0.929 . S
H1139 C1148 0.929 . S
C1140 H1134 0.930 . S
C1140 C1141 1.367 . S
C1140 C1148 1.378 . S
C1141 C1140 1.367 . S
C1141 C1149 1.433 . S
C1142 H1138 0.929 . S
C1142 C1144 1.378 . S
C1142 C1146 1.350 . S
C1143 C1146 1.463 1_554 S
C1143 C1148 1.350 . S
C1143 N1151 1.427 . S
C1144 H1135 0.930 . S
C1144 C1142 1.378 . S
C1144 C1145 1.367 . S
C1145 C1144 1.367 . S
C1145 C1147 1.433 . S
C1146 C1142 1.350 . S
C1146 C1143 1.463 1_556 S
C1146 N1150 1.427 . S
C1147 H1137 0.929 . S
C1147 C1145 1.433 . S
C1147 N1150 1.384 . S
C1148 H1139 0.929 . S
C1148 C1140 1.378 . S
C1148 C1143 1.350 . S
C1149 H1136 0.929 . S
C1149 C1141 1.433 . S
C1149 N1151 1.384 . S
N1150 C1146 1.427 . S
N1150 C1147 1.384 . S
N1151 C1143 1.427 . S
N1151 C1149 1.384 . S
H1152 C1158 0.930 . S
H1153 C1162 0.930 . S
H1154 C1167 0.929 . S
H1155 C1165 0.929 . S
H1156 C1160 0.929 . S
H1157 C1166 0.929 . S
C1158 H1152 0.930 . S
C1158 C1159 1.367 . S
C1158 C1166 1.378 . S
C1159 C1158 1.367 . S
C1159 C1167 1.433 1_545 S
C1160 H1156 0.929 . S
C1160 C1162 1.378 . S
C1160 C1164 1.350 . S
C1161 C1164 1.463 1_546 S
C1161 C1166 1.350 . S
C1161 N1169 1.427 1_545 S
C1162 H1153 0.930 . S
C1162 C1160 1.378 . S
C1162 C1163 1.367 . S
C1163 C1162 1.367 . S
C1163 C1165 1.433 1_565 S
C1164 C1160 1.350 . S
C1164 C1161 1.463 1_564 S
C1164 N1168 1.427 1_565 S
C1165 H1155 0.929 . S
C1165 C1163 1.433 1_545 S
C1165 N1168 1.384 . S
C1166 H1157 0.929 . S
C1166 C1158 1.378 . S
C1166 C1161 1.350 . S
C1167 H1154 0.929 . S
C1167 C1159 1.433 1_565 S
C1167 N1169 1.384 . S
N1168 C1164 1.427 1_545 S
N1168 C1165 1.384 . S
N1169 C1161 1.427 1_565 S
N1169 C1167 1.384 . S
H1170 C1176 0.930 . S
H1171 C1180 0.930 . S
H1172 C1185 0.929 . S
H1173 C1183 0.929 . S
H1174 C1178 0.929 . S
H1175 C1184 0.929 . S
C1176 H1170 0.930 . S
C1176 C1177 1.367 . S
C1176 C1184 1.378 . S
C1177 C1176 1.367 . S
C1177 C1185 1.433 1_655 S
C1178 H1174 0.929 . S
C1178 C1180 1.378 . S
C1178 C1182 1.350 . S
C1179 C1182 1.463 1_656 S
C1179 C1184 1.350 . S
C1179 N1187 1.427 1_655 S
C1180 H1171 0.930 . S
C1180 C1178 1.378 . S
C1180 C1181 1.367 . S
C1181 C1180 1.367 . S
C1181 C1183 1.433 1_455 S
C1182 C1178 1.350 . S
C1182 C1179 1.463 1_454 S
C1182 N1186 1.427 1_455 S
C1183 H1173 0.929 . S
C1183 C1181 1.433 1_655 S
C1183 N1186 1.384 . S
C1184 H1175 0.929 . S
C1184 C1176 1.378 . S
C1184 C1179 1.350 . S
C1185 H1172 0.929 . S
C1185 C1177 1.433 1_455 S
C1185 N1187 1.384 . S
N1186 C1182 1.427 1_655 S
N1186 C1183 1.384 . S
N1187 C1179 1.427 1_455 S
N1187 C1185 1.384 . S
H1188 C1194 0.930 . S
H1189 C1198 0.930 . S
H1190 C1203 0.929 . S
H1191 C1201 0.929 . S
H1192 C1196 0.929 . S
H1193 C1202 0.929 . S
C1194 H1188 0.930 . S
C1194 C1195 1.367 . S
C1194 C1202 1.378 . S
C1195 C1194 1.367 . S
C1195 C1203 1.433 . S
C1196 H1192 0.929 . S
C1196 C1198 1.378 . S
C1196 C1200 1.350 . S
C1197 C1200 1.463 . S
C1197 C1202 1.350 . S
C1197 N1205 1.427 . S
C1198 H1189 0.930 . S
C1198 C1196 1.378 . S
C1198 C1199 1.367 . S
C1199 C1198 1.367 . S
C1199 C1201 1.433 . S
C1200 C1196 1.350 . S
C1200 C1197 1.463 . S
C1200 N1204 1.427 . S
C1201 H1191 0.929 . S
C1201 C1199 1.433 . S
C1201 N1204 1.384 . S
C1202 H1193 0.929 . S
C1202 C1194 1.378 . S
C1202 C1197 1.350 . S
C1203 H1190 0.929 . S
C1203 C1195 1.433 . S
C1203 N1205 1.384 . S
N1204 C1200 1.427 . S
N1204 C1201 1.384 . S
N1205 C1197 1.427 . S
N1205 C1203 1.384 . S
H1206 C1212 0.930 . S
H1207 C1216 0.930 . S
H1208 C1221 0.929 . S
H1209 C1219 0.929 . S
H1210 C1214 0.929 . S
H1211 C1220 0.929 . S
C1212 H1206 0.930 . S
C1212 C1213 1.367 . S
C1212 C1220 1.378 . S
C1213 C1212 1.367 . S
C1213 C1221 1.433 . S
C1214 H1210 0.929 . S
C1214 C1216 1.378 . S
C1214 C1218 1.350 . S
C1215 C1218 1.463 . S
C1215 C1220 1.350 . S
C1215 N1223 1.427 . S
C1216 H1207 0.930 . S
C1216 C1214 1.378 . S
C1216 C1217 1.367 . S
C1217 C1216 1.367 . S
C1217 C1219 1.433 . S
C1218 C1214 1.350 . S
C1218 C1215 1.463 . S
C1218 N1222 1.427 . S
C1219 H1209 0.929 . S
C1219 C1217 1.433 . S
C1219 N1222 1.384 . S
C1220 H1211 0.929 . S
C1220 C1212 1.378 . S
C1220 C1215 1.350 . S
C1221 H1208 0.929 . S
C1221 C1213 1.433 . S
C1221 N1223 1.384 . S
N1222 C1218 1.427 . S
N1222 C1219 1.384 . S
N1223 C1215 1.427 . S
N1223 C1221 1.384 . S
H1224 C1230 0.930 . S
H1225 C1234 0.930 . S
H1226 C1239 0.929 . S
H1227 C1237 0.929 . S
H1228 C1232 0.929 . S
H1229 C1238 0.929 . S
C1230 H1224 0.930 . S
C1230 C1231 1.367 . S
C1230 C1238 1.378 . S
C1231 C1230 1.367 . S
C1231 C1239 1.433 . S
C1232 H1228 0.929 . S
C1232 C1234 1.378 . S
C1232 C1236 1.350 . S
C1233 C1236 1.463 . S
C1233 C1238 1.350 . S
C1233 N1241 1.427 . S
C1234 H1225 0.930 . S
C1234 C1232 1.378 . S
C1234 C1235 1.367 . S
C1235 C1234 1.367 . S
C1235 C1237 1.433 . S
C1236 C1232 1.350 . S
C1236 C1233 1.463 . S
C1236 N1240 1.427 . S
C1237 H1227 0.929 . S
C1237 C1235 1.433 . S
C1237 N1240 1.384 . S
C1238 H1229 0.929 . S
C1238 C1230 1.378 . S
C1238 C1233 1.350 . S
C1239 H1226 0.929 . S
C1239 C1231 1.433 . S
C1239 N1241 1.384 . S
N1240 C1236 1.427 . S
N1240 C1237 1.384 . S
N1241 C1233 1.427 . S
N1241 C1239 1.384 . S
H1242 C1248 0.930 . S
H1243 C1252 0.930 . S
H1244 C1257 0.929 . S
H1245 C1255 0.929 . S
H1246 C1250 0.929 . S
H1247 C1256 0.929 . S
C1248 H1242 0.930 . S
C1248 C1249 1.367 . S
C1248 C1256 1.378 . S
C1249 C1248 1.367 . S
C1249 C1257 1.433 . S
C1250 H1246 0.929 . S
C1250 C1252 1.378 . S
C1250 C1254 1.350 . S
C1251 C1254 1.463 . S
C1251 C1256 1.350 . S
C1251 N1259 1.427 . S
C1252 H1243 0.930 . S
C1252 C1250 1.378 . S
C1252 C1253 1.367 . S
C1253 C1252 1.367 . S
C1253 C1255 1.433 . S
C1254 C1250 1.350 . S
C1254 C1251 1.463 . S
C1254 N1258 1.427 . S
C1255 H1245 0.929 . S
C1255 C1253 1.433 . S
C1255 N1258 1.384 . S
C1256 H1247 0.929 . S
C1256 C1248 1.378 . S
C1256 C1251 1.350 . S
C1257 H1244 0.929 . S
C1257 C1249 1.433 . S
C1257 N1259 1.384 . S
N1258 C1254 1.427 . S
N1258 C1255 1.384 . S
N1259 C1251 1.427 . S
N1259 C1257 1.384 . S
H1260 C1266 0.930 . S
H1261 C1270 0.930 . S
H1262 C1275 0.929 . S
H1263 C1273 0.929 . S
H1264 C1268 0.929 . S
H1265 C1274 0.929 . S
C1266 H1260 0.930 . S
C1266 C1267 1.367 . S
C1266 C1274 1.378 . S
C1267 C1266 1.367 . S
C1267 C1275 1.433 . S
C1268 H1264 0.929 . S
C1268 C1270 1.378 . S
C1268 C1272 1.350 . S
C1269 C1272 1.463 . S
C1269 C1274 1.350 . S
C1269 N1277 1.427 . S
C1270 H1261 0.930 . S
C1270 C1268 1.378 . S
C1270 C1271 1.367 . S
C1271 C1270 1.367 . S
C1271 C1273 1.433 . S
C1272 C1268 1.350 . S
C1272 C1269 1.463 . S
C1272 N1276 1.427 . S
C1273 H1263 0.929 . S
C1273 C1271 1.433 . S
C1273 N1276 1.384 . S
C1274 H1265 0.929 . S
C1274 C1266 1.378 . S
C1274 C1269 1.350 . S
C1275 H1262 0.929 . S
C1275 C1267 1.433 . S
C1275 N1277 1.384 . S
N1276 C1272 1.427 . S
N1276 C1273 1.384 . S
N1277 C1269 1.427 . S
N1277 C1275 1.384 . S
H1278 C1284 0.930 . S
H1279 C1288 0.930 . S
H1280 C1293 0.929 . S
H1281 C1291 0.929 . S
H1282 C1286 0.929 . S
H1283 C1292 0.929 . S
C1284 H1278 0.930 . S
C1284 C1285 1.367 . S
C1284 C1292 1.378 . S
C1285 C1284 1.367 . S
C1285 C1293 1.433 . S
C1286 H1282 0.929 . S
C1286 C1288 1.378 . S
C1286 C1290 1.350 . S
C1287 C1290 1.463 . S
C1287 C1292 1.350 . S
C1287 N1295 1.427 . S
C1288 H1279 0.930 . S
C1288 C1286 1.378 . S
C1288 C1289 1.367 . S
C1289 C1288 1.367 . S
C1289 C1291 1.433 . S
C1290 C1286 1.350 . S
C1290 C1287 1.463 . S
C1290 N1294 1.427 . S
C1291 H1281 0.929 . S
C1291 C1289 1.433 . S
C1291 N1294 1.384 . S
C1292 H1283 0.929 . S
C1292 C1284 1.378 . S
C1292 C1287 1.350 . S
C1293 H1280 0.929 . S
C1293 C1285 1.433 . S
C1293 N1295 1.384 . S
N1294 C1290 1.427 . S
N1294 C1291 1.384 . S
N1295 C1287 1.427 . S
N1295 C1293 1.384 . S
C655 C364 1.103 . S
C659 C4 1.106 . S
C673 C40 1.112 . S
C677 C400 1.093 . S
C691 C328 1.105 . S
C695 C76 1.117 . S
C709 C508 1.112 . S
C713 C112 1.119 . S
C727 C148 1.114 . S
C731 C436 1.111 . S
C745 C472 1.101 . S
C749 C184 1.094 . S
C763 C220 1.130 . S
C767 C580 1.120 . S
C781 C616 1.124 . S
C785 C256 1.127 . S
C799 C292 1.121 . S
C803 C544 1.113 . S
C817 C3 1.003 . S
C821 C38 1.036 . S
C835 C39 1.002 . S
C839 C74 1.034 . S
C853 C2 1.055 . S
C857 C75 1.025 . S
C871 C182 1.034 . S
C875 C111 1.012 . S
C889 C110 1.053 . S
C893 C147 1.029 . S
C907 C183 1.007 . S
C911 C146 1.032 . S
C925 C219 1.037 . S
C929 C254 1.052 . S
C943 C255 1.010 . S
C947 C290 1.050 . S
C961 C218 1.050 . S
C965 C291 1.017 . S
C979 C398 1.063 . S
C983 C327 1.019 . S
C997 C326 1.043 . S
C1001 C363 1.007 . S
C1015 C362 1.043 . S
C1019 C399 1.021 . S
C1033 C470 1.055 . S
C1037 C435 1.040 . S
C1051 C506 1.048 . S
C1055 C471 1.005 . S
C1069 C434 1.039 . S
C1073 C507 1.018 . S
C1087 C543 1.037 . S
C1091 C614 1.052 . S
C1105 C579 1.028 . S
C1109 C542 1.046 . S
C1123 C615 1.024 . S
C1127 C578 1.044 . S
C1141 C14 1.556 . S
C1145 C122 1.555 . S
C1159 C158 1.568 . S
C1163 C50 1.569 . S
C1177 C194 1.562 . S
C1181 C86 1.563 . S
C1195 C338 1.570 . S
C1199 C230 1.569 . S
C1213 C374 1.554 . S
C1217 C266 1.554 . S
C1231 C302 1.572 . S
C1235 C410 1.572 . S
C1249 C554 1.570 . S
C1253 C446 1.571 . S
C1267 C590 1.559 . S
C1271 C482 1.559 . S
C1285 C626 1.557 . S
C1289 C518 1.557 . S
