# Generated by pormake.
# Topology uox, (4)-cn, num edge types: 1
# Building blocks:
#     Node 0, Type 0, BuildingBlock: CEKHIL_clean_sbu_0, # of connection points: 4
#     Node 1, Type 0, BuildingBlock: CEKHIL_clean_sbu_0, # of connection points: 4
#     Node 2, Type 0, BuildingBlock: CEKHIL_clean_sbu_0, # of connection points: 4
#     Node 3, Type 0, BuildingBlock: CEKHIL_clean_sbu_0, # of connection points: 4
#     Node 4, Type 0, BuildingBlock: CEKHIL_clean_sbu_0, # of connection points: 4
#     Node 5, Type 0, BuildingBlock: CEKHIL_clean_sbu_0, # of connection points: 4
#     Node 6, Type 0, BuildingBlock: CEKHIL_clean_sbu_0, # of connection points: 4
#     Node 7, Type 0, BuildingBlock: CEKHIL_clean_sbu_0, # of connection points: 4
#     Node 8, Type 0, BuildingBlock: CEKHIL_clean_sbu_0, # of connection points: 4
#     Node 9, Type 0, BuildingBlock: CEKHIL_clean_sbu_0, # of connection points: 4
#     Node 10, Type 0, BuildingBlock: CEKHIL_clean_sbu_0, # of connection points: 4
#     Node 11, Type 0, BuildingBlock: CEKHIL_clean_sbu_0, # of connection points: 4
#     Node 12, Type 0, BuildingBlock: CEKHIL_clean_sbu_0, # of connection points: 4
#     Node 13, Type 0, BuildingBlock: CEKHIL_clean_sbu_0, # of connection points: 4
#     Node 14, Type 0, BuildingBlock: CEKHIL_clean_sbu_0, # of connection points: 4
#     Node 15, Type 0, BuildingBlock: CEKHIL_clean_sbu_0, # of connection points: 4
#     Node 16, Type 0, BuildingBlock: CEKHIL_clean_sbu_0, # of connection points: 4
#     Node 17, Type 0, BuildingBlock: CEKHIL_clean_sbu_0, # of connection points: 4
#     Node 18, Type 0, BuildingBlock: CEKHIL_clean_sbu_0, # of connection points: 4
#     Node 19, Type 0, BuildingBlock: CEKHIL_clean_sbu_0, # of connection points: 4
#     Node 20, Type 0, BuildingBlock: CEKHIL_clean_sbu_0, # of connection points: 4
#     Node 21, Type 0, BuildingBlock: CEKHIL_clean_sbu_0, # of connection points: 4
#     Node 22, Type 0, BuildingBlock: CEKHIL_clean_sbu_0, # of connection points: 4
#     Node 23, Type 0, BuildingBlock: CEKHIL_clean_sbu_0, # of connection points: 4
#     Node 24, Type 0, BuildingBlock: CEKHIL_clean_sbu_0, # of connection points: 4
#     Node 25, Type 0, BuildingBlock: CEKHIL_clean_sbu_0, # of connection points: 4
#     Node 26, Type 0, BuildingBlock: CEKHIL_clean_sbu_0, # of connection points: 4
#     Node 27, Type 0, BuildingBlock: CEKHIL_clean_sbu_0, # of connection points: 4
#     Node 28, Type 0, BuildingBlock: CEKHIL_clean_sbu_0, # of connection points: 4
#     Node 29, Type 0, BuildingBlock: CEKHIL_clean_sbu_0, # of connection points: 4
#     Node 30, Type 0, BuildingBlock: CEKHIL_clean_sbu_0, # of connection points: 4
#     Node 31, Type 0, BuildingBlock: CEKHIL_clean_sbu_0, # of connection points: 4
#     Edge 32, Type (0, 0), BuildingBlock: ZUJKAS_clean_linker_0, # of connection points: 2
#     Edge 33, Type (0, 0), BuildingBlock: ZUJKAS_clean_linker_0, # of connection points: 2
#     Edge 34, Type (0, 0), BuildingBlock: ZUJKAS_clean_linker_0, # of connection points: 2
#     Edge 35, Type (0, 0), BuildingBlock: ZUJKAS_clean_linker_0, # of connection points: 2
#     Edge 36, Type (0, 0), BuildingBlock: ZUJKAS_clean_linker_0, # of connection points: 2
#     Edge 37, Type (0, 0), BuildingBlock: ZUJKAS_clean_linker_0, # of connection points: 2
#     Edge 38, Type (0, 0), BuildingBlock: ZUJKAS_clean_linker_0, # of connection points: 2
#     Edge 39, Type (0, 0), BuildingBlock: ZUJKAS_clean_linker_0, # of connection points: 2
#     Edge 40, Type (0, 0), BuildingBlock: ZUJKAS_clean_linker_0, # of connection points: 2
#     Edge 41, Type (0, 0), BuildingBlock: ZUJKAS_clean_linker_0, # of connection points: 2
#     Edge 42, Type (0, 0), BuildingBlock: ZUJKAS_clean_linker_0, # of connection points: 2
#     Edge 43, Type (0, 0), BuildingBlock: ZUJKAS_clean_linker_0, # of connection points: 2
#     Edge 44, Type (0, 0), BuildingBlock: ZUJKAS_clean_linker_0, # of connection points: 2
#     Edge 45, Type (0, 0), BuildingBlock: ZUJKAS_clean_linker_0, # of connection points: 2
#     Edge 46, Type (0, 0), BuildingBlock: ZUJKAS_clean_linker_0, # of connection points: 2
#     Edge 47, Type (0, 0), BuildingBlock: ZUJKAS_clean_linker_0, # of connection points: 2
#     Edge 48, Type (0, 0), BuildingBlock: ZUJKAS_clean_linker_0, # of connection points: 2
#     Edge 49, Type (0, 0), BuildingBlock: ZUJKAS_clean_linker_0, # of connection points: 2
#     Edge 50, Type (0, 0), BuildingBlock: ZUJKAS_clean_linker_0, # of connection points: 2
#     Edge 51, Type (0, 0), BuildingBlock: ZUJKAS_clean_linker_0, # of connection points: 2
#     Edge 52, Type (0, 0), BuildingBlock: ZUJKAS_clean_linker_0, # of connection points: 2
#     Edge 53, Type (0, 0), BuildingBlock: ZUJKAS_clean_linker_0, # of connection points: 2
#     Edge 54, Type (0, 0), BuildingBlock: ZUJKAS_clean_linker_0, # of connection points: 2
#     Edge 55, Type (0, 0), BuildingBlock: ZUJKAS_clean_linker_0, # of connection points: 2
#     Edge 56, Type (0, 0), BuildingBlock: ZUJKAS_clean_linker_0, # of connection points: 2
#     Edge 57, Type (0, 0), BuildingBlock: ZUJKAS_clean_linker_0, # of connection points: 2
#     Edge 58, Type (0, 0), BuildingBlock: ZUJKAS_clean_linker_0, # of connection points: 2
#     Edge 59, Type (0, 0), BuildingBlock: ZUJKAS_clean_linker_0, # of connection points: 2
#     Edge 60, Type (0, 0), BuildingBlock: ZUJKAS_clean_linker_0, # of connection points: 2
#     Edge 61, Type (0, 0), BuildingBlock: ZUJKAS_clean_linker_0, # of connection points: 2
#     Edge 62, Type (0, 0), BuildingBlock: ZUJKAS_clean_linker_0, # of connection points: 2
#     Edge 63, Type (0, 0), BuildingBlock: ZUJKAS_clean_linker_0, # of connection points: 2
#     Edge 64, Type (0, 0), BuildingBlock: ZUJKAS_clean_linker_0, # of connection points: 2
#     Edge 65, Type (0, 0), BuildingBlock: ZUJKAS_clean_linker_0, # of connection points: 2
#     Edge 66, Type (0, 0), BuildingBlock: ZUJKAS_clean_linker_0, # of connection points: 2
#     Edge 67, Type (0, 0), BuildingBlock: ZUJKAS_clean_linker_0, # of connection points: 2
#     Edge 68, Type (0, 0), BuildingBlock: ZUJKAS_clean_linker_0, # of connection points: 2
#     Edge 69, Type (0, 0), BuildingBlock: ZUJKAS_clean_linker_0, # of connection points: 2
#     Edge 70, Type (0, 0), BuildingBlock: ZUJKAS_clean_linker_0, # of connection points: 2
#     Edge 71, Type (0, 0), BuildingBlock: ZUJKAS_clean_linker_0, # of connection points: 2
#     Edge 72, Type (0, 0), BuildingBlock: ZUJKAS_clean_linker_0, # of connection points: 2
#     Edge 73, Type (0, 0), BuildingBlock: ZUJKAS_clean_linker_0, # of connection points: 2
#     Edge 74, Type (0, 0), BuildingBlock: ZUJKAS_clean_linker_0, # of connection points: 2
#     Edge 75, Type (0, 0), BuildingBlock: ZUJKAS_clean_linker_0, # of connection points: 2
#     Edge 76, Type (0, 0), BuildingBlock: ZUJKAS_clean_linker_0, # of connection points: 2
#     Edge 77, Type (0, 0), BuildingBlock: ZUJKAS_clean_linker_0, # of connection points: 2
#     Edge 78, Type (0, 0), BuildingBlock: ZUJKAS_clean_linker_0, # of connection points: 2
#     Edge 79, Type (0, 0), BuildingBlock: ZUJKAS_clean_linker_0, # of connection points: 2
#     Edge 80, Type (0, 0), BuildingBlock: ZUJKAS_clean_linker_0, # of connection points: 2
#     Edge 81, Type (0, 0), BuildingBlock: ZUJKAS_clean_linker_0, # of connection points: 2
#     Edge 82, Type (0, 0), BuildingBlock: ZUJKAS_clean_linker_0, # of connection points: 2
#     Edge 83, Type (0, 0), BuildingBlock: ZUJKAS_clean_linker_0, # of connection points: 2
#     Edge 84, Type (0, 0), BuildingBlock: ZUJKAS_clean_linker_0, # of connection points: 2
#     Edge 85, Type (0, 0), BuildingBlock: ZUJKAS_clean_linker_0, # of connection points: 2
#     Edge 86, Type (0, 0), BuildingBlock: ZUJKAS_clean_linker_0, # of connection points: 2
#     Edge 87, Type (0, 0), BuildingBlock: ZUJKAS_clean_linker_0, # of connection points: 2
#     Edge 88, Type (0, 0), BuildingBlock: ZUJKAS_clean_linker_0, # of connection points: 2
#     Edge 89, Type (0, 0), BuildingBlock: ZUJKAS_clean_linker_0, # of connection points: 2
#     Edge 90, Type (0, 0), BuildingBlock: ZUJKAS_clean_linker_0, # of connection points: 2
#     Edge 91, Type (0, 0), BuildingBlock: ZUJKAS_clean_linker_0, # of connection points: 2
#     Edge 92, Type (0, 0), BuildingBlock: ZUJKAS_clean_linker_0, # of connection points: 2
#     Edge 93, Type (0, 0), BuildingBlock: ZUJKAS_clean_linker_0, # of connection points: 2
#     Edge 94, Type (0, 0), BuildingBlock: ZUJKAS_clean_linker_0, # of connection points: 2
#     Edge 95, Type (0, 0), BuildingBlock: ZUJKAS_clean_linker_0, # of connection points: 2
# Relax obj value: 0.061
# Max RMSD: 0.089
# Mean RMSD: 0.089
data_MOF--net-uox--node1-CEKHIL_clean_sbu_0--edge1-ZUJKAS_clean_linker_0
_symmetry_space_group_name_H-M    P1
_symmetry_Int_Tables_number       1
_symmetry_cell_setting            triclinic
loop_
_symmetry_equiv_pos_as_xyz
'x, y, z'
_cell_length_a     59.781116
_cell_length_b     59.785434
_cell_length_c     99.269506
_cell_angle_alpha  89.989244
_cell_angle_beta   90.012507
_cell_angle_gamma 89.996368
loop_
_atom_site_label
_atom_site_type_symbol
_atom_site_fract_x
_atom_site_fract_y
_atom_site_fract_z
_atom_type_partial_charge
Co0 Co 0.41853 0.05214 0.16291 0.0
O1 O 0.42669 0.02965 0.17598 0.0
O2 O 0.39993 0.05469 0.17888 0.0
C3 C 0.45372 0.06336 0.15796 0.0
O4 O 0.40619 0.0787 0.15218 0.0
Co5 Co 0.43329 0.04841 0.13295 0.0
O6 O 0.42405 0.08021 0.13227 0.0
C7 C 0.39568 0.0208 0.14279 0.0
C8 C 0.41138 0.03804 0.18375 0.0
C9 C 0.4111 0.08877 0.14107 0.0
O10 O 0.39631 0.03087 0.15428 0.0
O11 O 0.40989 0.02444 0.13339 0.0
O12 O 0.44365 0.07087 0.16865 0.0
O13 O 0.44317 0.04788 0.15149 0.0
Co14 Co 0.1983 0.16873 0.41275 0.0
O15 O 0.22105 0.17689 0.42566 0.0
O16 O 0.196 0.15018 0.42874 0.0
C17 C 0.18704 0.20393 0.40781 0.0
O18 O 0.17154 0.15636 0.40222 0.0
Co19 Co 0.20142 0.18335 0.38274 0.0
O20 O 0.16962 0.17406 0.38227 0.0
C21 C 0.229 0.14558 0.3924 0.0
C22 C 0.21277 0.16159 0.43349 0.0
C23 C 0.16126 0.16114 0.39115 0.0
O24 O 0.21935 0.14645 0.40401 0.0
O25 O 0.22513 0.15967 0.38296 0.0
O26 O 0.17971 0.19391 0.41856 0.0
O27 O 0.20238 0.19333 0.40125 0.0
Co28 Co 0.08238 0.94766 0.66395 0.0
O29 O 0.07428 0.96975 0.67726 0.0
O30 O 0.1013 0.94489 0.67978 0.0
C31 C 0.0472 0.93626 0.65908 0.0
O32 O 0.09473 0.92161 0.65284 0.0
Co33 Co 0.067 0.95268 0.63415 0.0
O34 O 0.07733 0.92122 0.63274 0.0
C35 C 0.1037 0.98085 0.64442 0.0
C36 C 0.08985 0.96137 0.68485 0.0
C37 C 0.09022 0.91225 0.64145 0.0
O38 O 0.10428 0.96928 0.65538 0.0
O39 O 0.08879 0.97812 0.6353 0.0
O40 O 0.05749 0.92854 0.66964 0.0
O41 O 0.0575 0.95205 0.65275 0.0
Co42 Co 0.3017 0.83071 0.91338 0.0
O43 O 0.2793 0.8222 0.92644 0.0
O44 O 0.30448 0.84877 0.92952 0.0
C45 C 0.31308 0.79575 0.90798 0.0
O46 O 0.3281 0.84344 0.90273 0.0
Co47 Co 0.29725 0.81694 0.88326 0.0
O48 O 0.32732 0.83047 0.8814 0.0
C49 C 0.26884 0.85307 0.89402 0.0
C50 C 0.28782 0.83728 0.93433 0.0
C51 C 0.33656 0.84157 0.89084 0.0
O52 O 0.28018 0.85309 0.90508 0.0
O53 O 0.27185 0.83863 0.88468 0.0
O54 O 0.3206 0.80553 0.91876 0.0
O55 O 0.29743 0.80636 0.90169 0.0
Co56 Co 0.41883 0.94766 0.3423 0.0
O57 O 0.42704 0.97005 0.32917 0.0
O58 O 0.40032 0.94496 0.32631 0.0
C59 C 0.45401 0.93652 0.34737 0.0
O60 O 0.40642 0.92121 0.35308 0.0
Co61 Co 0.43336 0.95166 0.37228 0.0
O62 O 0.42401 0.91989 0.37309 0.0
C63 C 0.39583 0.97917 0.36225 0.0
C64 C 0.41175 0.9616 0.32141 0.0
C65 C 0.41114 0.91126 0.36427 0.0
O66 O 0.39656 0.96897 0.35081 0.0
O67 O 0.40996 0.97565 0.37171 0.0
O68 O 0.444 0.9289 0.33669 0.0
O69 O 0.44342 0.95204 0.35377 0.0
Co70 Co 0.30337 0.16793 0.59204 0.0
O71 O 0.28145 0.17639 0.57871 0.0
O72 O 0.30648 0.14956 0.576 0.0
C73 C 0.31452 0.20299 0.59739 0.0
O74 O 0.32934 0.15536 0.60315 0.0
Co75 Co 0.29782 0.18232 0.62198 0.0
O76 O 0.32928 0.17199 0.62347 0.0
C77 C 0.2697 0.14616 0.61103 0.0
C78 C 0.29004 0.16114 0.57098 0.0
C79 C 0.33848 0.1595 0.61466 0.0
O80 O 0.28169 0.14568 0.60023 0.0
O81 O 0.27216 0.16089 0.62027 0.0
O82 O 0.32246 0.19309 0.58675 0.0
O83 O 0.29869 0.1924 0.6035 0.0
Co84 Co 0.08212 0.05265 0.84288 0.0
O85 O 0.07398 0.03094 0.82938 0.0
O86 O 0.10179 0.05502 0.82734 0.0
C87 C 0.04704 0.06483 0.84706 0.0
O88 O 0.09466 0.0783 0.85427 0.0
Co89 Co 0.06509 0.04832 0.87231 0.0
O90 O 0.0754 0.07976 0.8737 0.0
C91 C 0.1022 0.01956 0.86302 0.0
C92 C 0.09004 0.03894 0.82204 0.0
C93 C 0.08928 0.08816 0.86537 0.0
O94 O 0.10296 0.0303 0.85175 0.0
O95 O 0.08729 0.02321 0.87202 0.0
O96 O 0.05819 0.07266 0.83686 0.0
O97 O 0.0565 0.0487 0.85355 0.0
Co98 Co 0.19787 0.83097 0.093 0.0
O99 O 0.22112 0.82324 0.08032 0.0
O100 O 0.19525 0.84902 0.07683 0.0
C101 C 0.18742 0.79561 0.09812 0.0
O102 O 0.17063 0.84287 0.10328 0.0
Co103 Co 0.20089 0.81705 0.12314 0.0
O104 O 0.16891 0.82574 0.12342 0.0
C105 C 0.22785 0.85514 0.11331 0.0
C106 C 0.21248 0.83807 0.0723 0.0
C107 C 0.16036 0.83822 0.11437 0.0
O108 O 0.21822 0.85395 0.1017 0.0
O109 O 0.22422 0.84112 0.12281 0.0
O110 O 0.18006 0.80524 0.08725 0.0
O111 O 0.20238 0.8067 0.10471 0.0
Co112 Co 0.58083 0.94745 0.84216 0.0
O113 O 0.57283 0.96948 0.8288 0.0
O114 O 0.6003 0.94504 0.82655 0.0
C115 C 0.54565 0.93562 0.84646 0.0
O116 O 0.59322 0.92143 0.85333 0.0
Co117 Co 0.5643 0.95129 0.87173 0.0
O118 O 0.57401 0.91964 0.87276 0.0
C119 C 0.60215 0.97928 0.86261 0.0
C120 C 0.58874 0.96136 0.82137 0.0
C121 C 0.58778 0.91132 0.86434 0.0
O122 O 0.60209 0.96937 0.85106 0.0
O123 O 0.58763 0.97535 0.87179 0.0
O124 O 0.55656 0.92789 0.83614 0.0
O125 O 0.55541 0.95151 0.853 0.0
Co126 Co 0.8029 0.83108 0.5931 0.0
O127 O 0.77974 0.82369 0.5803 0.0
O128 O 0.80567 0.84948 0.57707 0.0
C129 C 0.8132 0.79558 0.59798 0.0
O130 O 0.83006 0.84267 0.60361 0.0
Co131 Co 0.79944 0.8164 0.6231 0.0
O132 O 0.83145 0.82494 0.62357 0.0
C133 C 0.77269 0.85478 0.61347 0.0
C134 C 0.78843 0.83867 0.57241 0.0
C135 C 0.84016 0.83766 0.6147 0.0
O136 O 0.78252 0.85392 0.60191 0.0
O137 O 0.77611 0.84045 0.62283 0.0
O138 O 0.8207 0.80541 0.58721 0.0
O139 O 0.79819 0.80657 0.60458 0.0
Co140 Co 0.91865 0.05198 0.34291 0.0
O141 O 0.92598 0.02884 0.33006 0.0
O142 O 0.90038 0.05497 0.32683 0.0
C143 C 0.95423 0.06197 0.34785 0.0
O144 O 0.90719 0.07919 0.3534 0.0
Co145 Co 0.93321 0.04852 0.37293 0.0
O146 O 0.92505 0.08062 0.37332 0.0
C147 C 0.89451 0.02217 0.3633 0.0
C148 C 0.91114 0.03773 0.32215 0.0
C149 C 0.91234 0.08935 0.36445 0.0
O150 O 0.89562 0.03173 0.35166 0.0
O151 O 0.90874 0.02563 0.37271 0.0
O152 O 0.94449 0.06962 0.33709 0.0
O153 O 0.94308 0.04705 0.35442 0.0
Co154 Co 0.69787 0.16873 0.09239 0.0
O155 O 0.72082 0.17616 0.07946 0.0
O156 O 0.6947 0.15053 0.0763 0.0
C157 C 0.68785 0.20424 0.09743 0.0
O158 O 0.67086 0.15717 0.10301 0.0
Co159 Co 0.70193 0.18309 0.12241 0.0
O160 O 0.6699 0.17465 0.12306 0.0
C161 C 0.7283 0.14465 0.11248 0.0
C162 C 0.71188 0.16134 0.07157 0.0
C163 C 0.66098 0.16207 0.11419 0.0
O164 O 0.71826 0.1457 0.10099 0.0
O165 O 0.72514 0.15892 0.12191 0.0
O166 O 0.68009 0.19453 0.08669 0.0
O167 O 0.70291 0.19312 0.10391 0.0
Co168 Co 0.58225 0.05207 0.66337 0.0
O169 O 0.57434 0.02938 0.67638 0.0
O170 O 0.60071 0.0548 0.67937 0.0
C171 C 0.54693 0.0628 0.65832 0.0
O172 O 0.59437 0.07883 0.65275 0.0
Co173 Co 0.56795 0.04839 0.63335 0.0
O174 O 0.57676 0.08033 0.63276 0.0
C175 C 0.60582 0.02124 0.64327 0.0
C176 C 0.58955 0.03791 0.68418 0.0
C177 C 0.58953 0.08894 0.64164 0.0
O178 O 0.60483 0.03118 0.65479 0.0
O179 O 0.59174 0.02477 0.63378 0.0
O180 O 0.5568 0.0704 0.66905 0.0
O181 O 0.55777 0.04754 0.65184 0.0
Co182 Co 0.69797 0.83161 0.41392 0.0
O183 O 0.72109 0.82425 0.42677 0.0
O184 O 0.69497 0.84985 0.43 0.0
C185 C 0.68798 0.79605 0.40896 0.0
O186 O 0.67081 0.84311 0.40339 0.0
Co187 Co 0.70166 0.8172 0.3839 0.0
O188 O 0.6696 0.82553 0.38338 0.0
C189 C 0.72801 0.85577 0.39366 0.0
C190 C 0.71221 0.83908 0.43469 0.0
C191 C 0.66079 0.83814 0.39227 0.0
O192 O 0.71822 0.85466 0.40522 0.0
O193 O 0.72471 0.84153 0.38423 0.0
O194 O 0.68033 0.80578 0.41972 0.0
O195 O 0.70292 0.8072 0.4024 0.0
Co196 Co 0.91884 0.94835 0.16342 0.0
O197 O 0.92613 0.97163 0.17618 0.0
O198 O 0.90073 0.94535 0.17954 0.0
C199 C 0.9544 0.93848 0.15835 0.0
O200 O 0.90746 0.92101 0.15303 0.0
Co201 Co 0.93302 0.95172 0.13332 0.0
O202 O 0.92506 0.91956 0.13303 0.0
C203 C 0.89422 0.97781 0.14303 0.0
C204 C 0.91139 0.96271 0.18415 0.0
C205 C 0.91253 0.91082 0.14198 0.0
O206 O 0.89558 0.96837 0.15469 0.0
O207 O 0.90835 0.97438 0.13356 0.0
O208 O 0.94484 0.9309 0.16919 0.0
O209 O 0.94311 0.95332 0.15179 0.0
Co210 Co 0.8013 0.16835 0.91273 0.0
O211 O 0.77854 0.1767 0.9256 0.0
O212 O 0.80403 0.15051 0.92897 0.0
C213 C 0.81236 0.20337 0.90722 0.0
O214 O 0.82805 0.15584 0.90229 0.0
Co215 Co 0.79719 0.18173 0.88251 0.0
O216 O 0.82763 0.16897 0.881 0.0
C217 C 0.76988 0.14454 0.89305 0.0
C218 C 0.78709 0.16178 0.9336 0.0
C219 C 0.83679 0.1579 0.89048 0.0
O220 O 0.7803 0.14553 0.90442 0.0
O221 O 0.77307 0.15857 0.8835 0.0
O222 O 0.81975 0.19385 0.91812 0.0
O223 O 0.79693 0.1925 0.90089 0.0
Co224 Co 0.91968 0.55222 0.66403 0.0
O225 O 0.92804 0.53003 0.67724 0.0
O226 O 0.90127 0.55509 0.68004 0.0
C227 C 0.95476 0.56344 0.65879 0.0
O228 O 0.9071 0.57848 0.65316 0.0
Co229 Co 0.93398 0.54784 0.63402 0.0
O230 O 0.92424 0.57948 0.63301 0.0
C231 C 0.89662 0.52036 0.64429 0.0
C232 C 0.91276 0.53853 0.68499 0.0
C233 C 0.9115 0.58821 0.64186 0.0
O234 O 0.89739 0.53075 0.65567 0.0
O235 O 0.91072 0.52375 0.6348 0.0
O236 O 0.94484 0.57115 0.66947 0.0
O237 O 0.94417 0.54777 0.65251 0.0
Co238 Co 0.69831 0.66909 0.91337 0.0
O239 O 0.72031 0.67746 0.92668 0.0
O240 O 0.6955 0.65041 0.92929 0.0
C241 C 0.68686 0.70418 0.90832 0.0
O242 O 0.67225 0.65649 0.9023 0.0
Co243 Co 0.70303 0.68398 0.88349 0.0
O244 O 0.67149 0.67401 0.88226 0.0
C245 C 0.73064 0.64663 0.89364 0.0
C246 C 0.7119 0.662 0.93435 0.0
C247 C 0.66269 0.66105 0.89097 0.0
O248 O 0.72008 0.64713 0.90497 0.0
O249 O 0.72729 0.66087 0.88422 0.0
O250 O 0.67911 0.69398 0.9189 0.0
O251 O 0.70267 0.69385 0.90203 0.0
Co252 Co 0.58257 0.44769 0.16372 0.0
O253 O 0.57374 0.46936 0.17708 0.0
O254 O 0.60164 0.44541 0.17952 0.0
C255 C 0.54768 0.4355 0.15895 0.0
O256 O 0.59569 0.42201 0.1526 0.0
Co257 Co 0.56708 0.45177 0.13397 0.0
O258 O 0.57744 0.42034 0.13283 0.0
C259 C 0.6042 0.4801 0.14371 0.0
C260 C 0.58957 0.46141 0.18464 0.0
C261 C 0.59092 0.41205 0.14144 0.0
O262 O 0.60382 0.47001 0.1552 0.0
O263 O 0.59007 0.47615 0.13431 0.0
O264 O 0.55836 0.42774 0.16935 0.0
O265 O 0.55748 0.45157 0.15258 0.0
Co266 Co 0.80316 0.33157 0.41435 0.0
O267 O 0.78149 0.32294 0.42778 0.0
O268 O 0.80602 0.35029 0.43025 0.0
C269 C 0.81494 0.29664 0.40918 0.0
O270 O 0.82878 0.34449 0.4031 0.0
Co271 Co 0.79769 0.31661 0.3845 0.0
O272 O 0.82885 0.32771 0.38282 0.0
C273 C 0.76904 0.35251 0.39528 0.0
C274 C 0.7898 0.33853 0.43538 0.0
C275 C 0.83786 0.34049 0.39156 0.0
O276 O 0.78101 0.35327 0.40608 0.0
O277 O 0.77175 0.33772 0.38609 0.0
O278 O 0.82277 0.30687 0.41973 0.0
O279 O 0.79887 0.30683 0.40304 0.0
Co280 Co 0.91936 0.44813 0.84325 0.0
O281 O 0.92751 0.47102 0.83041 0.0
O282 O 0.90093 0.44588 0.82722 0.0
C283 C 0.95459 0.43702 0.84823 0.0
O284 O 0.90696 0.42123 0.85362 0.0
Co285 Co 0.93366 0.45083 0.87331 0.0
O286 O 0.92422 0.41907 0.8737 0.0
C287 C 0.89598 0.47854 0.86365 0.0
C288 C 0.91228 0.46273 0.82253 0.0
C289 C 0.91146 0.41083 0.86469 0.0
O290 O 0.89695 0.46905 0.852 0.0
O291 O 0.90996 0.47453 0.87313 0.0
O292 O 0.94467 0.42972 0.83744 0.0
O293 O 0.94385 0.4522 0.85484 0.0
Co294 Co 0.80189 0.66929 0.09292 0.0
O295 O 0.77955 0.67732 0.07973 0.0
O296 O 0.80452 0.65044 0.07705 0.0
C297 C 0.81312 0.70454 0.09771 0.0
O298 O 0.82827 0.65701 0.10385 0.0
Co299 Co 0.7979 0.6847 0.12277 0.0
O300 O 0.82966 0.67533 0.12361 0.0
C301 C 0.77025 0.64699 0.11308 0.0
C302 C 0.78794 0.66187 0.07206 0.0
C303 C 0.83824 0.66211 0.11497 0.0
O304 O 0.78043 0.64731 0.10162 0.0
O305 O 0.77385 0.6614 0.12237 0.0
O306 O 0.82078 0.69429 0.08712 0.0
O307 O 0.79756 0.69411 0.10416 0.0
Co308 Co 0.58273 0.55282 0.34272 0.0
O309 O 0.57452 0.53092 0.32932 0.0
O310 O 0.60149 0.55587 0.32687 0.0
C311 C 0.54766 0.5643 0.34777 0.0
O312 O 0.59528 0.57863 0.35395 0.0
Co313 Co 0.56759 0.54737 0.37254 0.0
O314 O 0.57845 0.57862 0.37421 0.0
C315 C 0.60369 0.51888 0.36186 0.0
C316 C 0.59004 0.53942 0.32175 0.0
C317 C 0.59117 0.58771 0.36547 0.0
O318 O 0.60459 0.53094 0.3511 0.0
O319 O 0.58876 0.52146 0.37097 0.0
O320 O 0.55788 0.57212 0.33721 0.0
O321 O 0.55794 0.54836 0.35397 0.0
Co322 Co 0.69853 0.33175 0.59333 0.0
O323 O 0.72144 0.32394 0.58044 0.0
O324 O 0.69603 0.3503 0.57736 0.0
C325 C 0.68781 0.29636 0.5982 0.0
O326 O 0.67157 0.34376 0.60383 0.0
Co327 Co 0.70161 0.31707 0.62333 0.0
O328 O 0.66973 0.32609 0.62379 0.0
C329 C 0.72873 0.35526 0.6138 0.0
C330 C 0.71298 0.33916 0.57262 0.0
C331 C 0.66129 0.33893 0.61489 0.0
O332 O 0.71927 0.35427 0.60213 0.0
O333 O 0.72491 0.34115 0.62323 0.0
O334 O 0.68031 0.30633 0.58748 0.0
O335 O 0.70294 0.30717 0.60481 0.0
Co336 Co 0.0813 0.44865 0.34309 0.0
O337 O 0.07343 0.47142 0.33011 0.0
O338 O 0.09971 0.44592 0.32707 0.0
C339 C 0.04597 0.43802 0.34814 0.0
O340 O 0.09335 0.42181 0.35367 0.0
Co341 Co 0.06706 0.45232 0.37312 0.0
O342 O 0.07611 0.42046 0.37378 0.0
C343 C 0.10499 0.47938 0.36321 0.0
C344 C 0.08856 0.46284 0.32228 0.0
C345 C 0.08872 0.41179 0.36484 0.0
O346 O 0.10398 0.46943 0.3517 0.0
O347 O 0.09086 0.47592 0.37268 0.0
O348 O 0.0558 0.43044 0.33739 0.0
O349 O 0.05686 0.45322 0.35464 0.0
Co350 Co 0.30205 0.33203 0.09292 0.0
O351 O 0.27948 0.32342 0.07997 0.0
O352 O 0.30425 0.35038 0.07687 0.0
C353 C 0.31373 0.29709 0.09816 0.0
O354 O 0.3286 0.34489 0.10337 0.0
Co355 Co 0.29872 0.31799 0.12307 0.0
O356 O 0.32883 0.33155 0.12461 0.0
C357 C 0.26986 0.3542 0.11278 0.0
C358 C 0.28763 0.33877 0.07211 0.0
C359 C 0.33757 0.34289 0.11511 0.0
O360 O 0.28058 0.35418 0.10149 0.0
O361 O 0.2734 0.33982 0.12209 0.0
O362 O 0.32099 0.30696 0.08734 0.0
O363 O 0.29823 0.30762 0.1046 0.0
Co364 Co 0.41951 0.55176 0.84257 0.0
O365 O 0.42757 0.52919 0.82952 0.0
O366 O 0.40063 0.55408 0.82672 0.0
C367 C 0.45478 0.56311 0.84728 0.0
O368 O 0.40716 0.57832 0.85328 0.0
Co369 Co 0.43481 0.54844 0.87246 0.0
O370 O 0.42506 0.5801 0.87317 0.0
C371 C 0.39758 0.52009 0.86283 0.0
C372 C 0.41206 0.53744 0.82183 0.0
C373 C 0.41195 0.58847 0.86438 0.0
O374 O 0.39757 0.53043 0.85142 0.0
O375 O 0.41212 0.52377 0.87204 0.0
O376 O 0.44451 0.57054 0.83664 0.0
O377 O 0.44436 0.54771 0.85387 0.0
Co378 Co 0.19869 0.66903 0.59274 0.0
O379 O 0.2218 0.67657 0.57992 0.0
O380 O 0.19611 0.65052 0.57675 0.0
C381 C 0.18814 0.70452 0.59748 0.0
O382 O 0.17156 0.65727 0.60318 0.0
Co383 Co 0.20163 0.68387 0.62271 0.0
O384 O 0.16971 0.67504 0.62311 0.0
C385 C 0.22873 0.64555 0.6133 0.0
C386 C 0.21321 0.6615 0.57206 0.0
C387 C 0.16125 0.6622 0.61421 0.0
O388 O 0.21921 0.64641 0.60165 0.0
O389 O 0.22498 0.65982 0.62265 0.0
O390 O 0.18072 0.69452 0.58675 0.0
O391 O 0.20315 0.69367 0.60417 0.0
Co392 Co 0.08081 0.55215 0.16384 0.0
O393 O 0.07257 0.52995 0.17708 0.0
O394 O 0.09968 0.55469 0.17969 0.0
C395 C 0.04567 0.56371 0.15899 0.0
O396 O 0.09336 0.57834 0.15292 0.0
Co397 Co 0.0655 0.54814 0.13398 0.0
O398 O 0.07602 0.57953 0.13283 0.0
C399 C 0.10226 0.51957 0.14397 0.0
C400 C 0.08813 0.53824 0.18471 0.0
C401 C 0.08898 0.5881 0.14162 0.0
O402 O 0.1026 0.53047 0.15518 0.0
O403 O 0.0876 0.52298 0.13478 0.0
O404 O 0.05596 0.57129 0.16958 0.0
O405 O 0.05597 0.54803 0.15257 0.0
Co406 Co 0.19867 0.33144 0.91355 0.0
O407 O 0.22064 0.32314 0.92689 0.0
O408 O 0.19597 0.35034 0.92937 0.0
C409 C 0.18707 0.29632 0.90871 0.0
O410 O 0.17269 0.34403 0.90242 0.0
Co411 Co 0.20328 0.31603 0.88376 0.0
O412 O 0.17186 0.3264 0.88242 0.0
C413 C 0.23166 0.35282 0.89385 0.0
C414 C 0.2123 0.33872 0.93448 0.0
C415 C 0.16313 0.33948 0.89109 0.0
O416 O 0.22058 0.35312 0.905 0.0
O417 O 0.22839 0.33819 0.88464 0.0
O418 O 0.17934 0.30672 0.91923 0.0
O419 O 0.2029 0.30651 0.90236 0.0
Co420 Co 0.41833 0.44738 0.66354 0.0
O421 O 0.42627 0.47002 0.67657 0.0
O422 O 0.39994 0.44456 0.67957 0.0
C423 C 0.45361 0.43664 0.65843 0.0
O424 O 0.40625 0.42062 0.65289 0.0
Co425 Co 0.4326 0.45124 0.63351 0.0
O426 O 0.42392 0.41927 0.63292 0.0
C427 C 0.39468 0.47826 0.64348 0.0
C428 C 0.41114 0.46142 0.68439 0.0
C429 C 0.41118 0.41056 0.64178 0.0
O430 O 0.39569 0.46829 0.65499 0.0
O431 O 0.40876 0.47479 0.63399 0.0
O432 O 0.44379 0.42903 0.66918 0.0
O433 O 0.44277 0.45197 0.652 0.0
Co434 Co 0.30306 0.66866 0.4135 0.0
O435 O 0.27993 0.67587 0.42637 0.0
O436 O 0.3062 0.65039 0.42956 0.0
C437 C 0.31291 0.70426 0.40853 0.0
O438 O 0.33024 0.65729 0.40294 0.0
Co439 Co 0.29929 0.68318 0.38348 0.0
O440 O 0.33139 0.67498 0.38296 0.0
C441 C 0.27307 0.64448 0.39322 0.0
C442 C 0.28888 0.66103 0.43425 0.0
C443 C 0.34025 0.66236 0.39183 0.0
O444 O 0.28283 0.64557 0.40479 0.0
O445 O 0.27636 0.65875 0.3838 0.0
O446 O 0.32064 0.69456 0.41928 0.0
O447 O 0.29798 0.69307 0.40199 0.0
H448 H 0.37866 0.95029 0.30342 0.0
H449 H 0.37429 0.96344 0.28016 0.0
H450 H 0.43316 0.0045 0.28455 0.0
H451 H 0.43717 0.99204 0.30784 0.0
H452 H 0.40132 0.02679 0.27152 0.0
H453 H 0.41036 0.9428 0.24838 0.0
H454 H 0.38756 0.94486 0.26007 0.0
H455 H 0.41586 0.94785 0.26598 0.0
C456 C 0.39062 0.96218 0.29943 0.0
C457 C 0.40834 0.97001 0.30747 0.0
C458 C 0.3882 0.96956 0.28608 0.0
C459 C 0.40366 0.98464 0.28045 0.0
C460 C 0.42105 0.99281 0.2886 0.0
H461 H 0.43741 0.00828 0.19745 0.0
H462 H 0.43353 0.99583 0.22074 0.0
C463 C 0.42334 0.98563 0.30194 0.0
C464 C 0.40201 0.99194 0.2661 0.0
H465 H 0.40238 0.97276 0.23365 0.0
C466 C 0.40148 0.01497 0.26324 0.0
C467 C 0.40246 0.97655 0.25525 0.0
C468 C 0.40431 0.95165 0.25752 0.0
C469 C 0.40175 0.02302 0.24992 0.0
C470 C 0.4019 0.00762 0.23907 0.0
C471 C 0.40208 0.9846 0.24193 0.0
C472 C 0.4035 0.01496 0.22472 0.0
C473 C 0.40281 0.04797 0.24766 0.0
C474 C 0.38772 0.02964 0.21901 0.0
C475 C 0.39008 0.03704 0.20567 0.0
C476 C 0.40804 0.0296 0.19769 0.0
C477 C 0.42337 0.01437 0.20329 0.0
C478 C 0.42116 0.00719 0.21664 0.0
H479 H 0.40852 0.057 0.25682 0.0
H480 H 0.41429 0.05215 0.23923 0.0
H481 H 0.38587 0.05423 0.24507 0.0
H482 H 0.3736 0.03543 0.22488 0.0
H483 H 0.37787 0.04862 0.20162 0.0
H484 H 0.30123 0.12797 0.55299 0.0
H485 H 0.28819 0.12376 0.52969 0.0
H486 H 0.24798 0.18325 0.53393 0.0
H487 H 0.26031 0.1871 0.55724 0.0
H488 H 0.22516 0.15175 0.52111 0.0
H489 H 0.30912 0.1591 0.49769 0.0
H490 H 0.30672 0.13643 0.50945 0.0
H491 H 0.30432 0.16482 0.51529 0.0
C492 C 0.28957 0.14011 0.54895 0.0
C493 C 0.28189 0.15792 0.55697 0.0
C494 C 0.28225 0.13778 0.53558 0.0
C495 C 0.2674 0.15343 0.52991 0.0
C496 C 0.25947 0.17098 0.53801 0.0
H497 H 0.24318 0.18725 0.44694 0.0
H498 H 0.25603 0.18323 0.47015 0.0
C499 C 0.26658 0.17318 0.55137 0.0
C500 C 0.25998 0.15179 0.51558 0.0
H501 H 0.27886 0.15167 0.48306 0.0
C502 C 0.23692 0.15165 0.51279 0.0
C503 C 0.27528 0.1519 0.50468 0.0
C504 C 0.30023 0.15329 0.50688 0.0
C505 C 0.22875 0.15201 0.4995 0.0
C506 C 0.24405 0.15185 0.4886 0.0
C507 C 0.26711 0.15161 0.49139 0.0
C508 C 0.23658 0.15347 0.47428 0.0
C509 C 0.20381 0.15354 0.49732 0.0
C510 C 0.22161 0.13787 0.46869 0.0
C511 C 0.21399 0.14029 0.4554 0.0
C512 C 0.22149 0.15816 0.44736 0.0
C513 C 0.23703 0.1733 0.45284 0.0
C514 C 0.24444 0.171 0.46614 0.0
H515 H 0.19497 0.15946 0.5065 0.0
H516 H 0.19977 0.16507 0.48889 0.0
H517 H 0.1972 0.13672 0.49478 0.0
H518 H 0.21574 0.12384 0.47461 0.0
H519 H 0.20218 0.12823 0.45144 0.0
H520 H 0.12398 0.04985 0.80446 0.0
H521 H 0.12896 0.03658 0.78124 0.0
H522 H 0.06935 0.99641 0.78492 0.0
H523 H 0.06469 0.00899 0.80811 0.0
H524 H 0.10153 0.97353 0.77248 0.0
H525 H 0.09408 0.05742 0.7489 0.0
H526 H 0.11642 0.05501 0.7609 0.0
H527 H 0.08787 0.05259 0.76644 0.0
C528 C 0.112 0.03813 0.80031 0.0
C529 C 0.09388 0.03057 0.80813 0.0
C530 C 0.11477 0.03068 0.787 0.0
C531 C 0.0993 0.01578 0.78119 0.0
C532 C 0.08149 0.00793 0.78911 0.0
H533 H 0.06439 0.99137 0.69871 0.0
H534 H 0.06907 0.00409 0.72189 0.0
C535 C 0.07883 0.01519 0.8024 0.0
C536 C 0.10128 0.00831 0.76689 0.0
H537 H 0.1011 0.02707 0.73435 0.0
C538 C 0.10156 0.98525 0.76414 0.0
C539 C 0.10109 0.02357 0.75597 0.0
C540 C 0.09965 0.04852 0.75814 0.0
C541 C 0.10116 0.97702 0.75086 0.0
C542 C 0.1011 0.99228 0.73994 0.0
C543 C 0.10131 0.01535 0.74269 0.0
C544 C 0.09906 0.98478 0.72564 0.0
C545 C 0.09977 0.95207 0.74872 0.0
C546 C 0.11453 0.96987 0.71986 0.0
C547 C 0.11172 0.96232 0.70657 0.0
C548 C 0.09359 0.96981 0.69875 0.0
C549 C 0.07854 0.98522 0.70444 0.0
C550 C 0.08122 0.99257 0.71772 0.0
H551 H 0.09423 0.94318 0.75797 0.0
H552 H 0.08799 0.94794 0.74043 0.0
H553 H 0.11655 0.9456 0.74597 0.0
H554 H 0.12876 0.96403 0.72561 0.0
H555 H 0.12372 0.9506 0.70245 0.0
H556 H 0.30659 0.862 0.9547 0.0
H557 H 0.29424 0.86435 0.97822 0.0
H558 H 0.23758 0.82244 0.96895 0.0
H559 H 0.25014 0.81952 0.9456 0.0
H560 H 0.25651 0.87938 0.99057 0.0
H561 H 0.26565 0.78846 0.99967 0.0
H562 H 0.27631 0.80185 0.98471 0.0
H563 H 0.24716 0.79454 0.98591 0.0
C564 C 0.29146 0.85335 0.95767 0.0
C565 C 0.27949 0.84036 0.9483 0.0
C566 C 0.2844 0.85472 0.97112 0.0
C567 C 0.26524 0.84315 0.97547 0.0
C568 C 0.25276 0.83099 0.96597 0.0
H569 H 0.1933 0.86123 0.05141 0.0
H570 H 0.20659 0.86378 0.02812 0.0
C571 C 0.2599 0.82945 0.95258 0.0
C572 C 0.25849 0.84344 0.98993 0.0
H573 H 0.2468 0.80926 0.01661 0.0
C574 C 0.25448 0.86406 0.99629 0.0
C575 C 0.25622 0.82348 0.99751 0.0
C576 C 0.26178 0.80085 0.99165 0.0
C577 C 0.24784 0.86523 0.00989 0.0
C578 C 0.24462 0.8452 0.01728 0.0
C579 C 0.24902 0.82463 0.01096 0.0
C580 C 0.23702 0.84498 0.0316 0.0
C581 C 0.24481 0.88794 0.01625 0.0
C582 C 0.24942 0.83327 0.04135 0.0
C583 C 0.24166 0.83147 0.05461 0.0
C584 C 0.22133 0.84143 0.05847 0.0
C585 C 0.20912 0.85354 0.04879 0.0
C586 C 0.21679 0.85514 0.03547 0.0
H587 H 0.25433 0.90103 0.01076 0.0
H588 H 0.22685 0.89258 0.0159 0.0
H589 H 0.25029 0.8879 0.02694 0.0
H590 H 0.26504 0.82524 0.03866 0.0
H591 H 0.25149 0.82204 0.0618 0.0
H592 H 0.62243 0.95008 0.80376 0.0
H593 H 0.62777 0.96362 0.78063 0.0
H594 H 0.56864 0.00449 0.78438 0.0
H595 H 0.56364 0.99162 0.80747 0.0
H596 H 0.60205 0.95925 0.75897 0.0
H597 H 0.61133 0.04947 0.76931 0.0
H598 H 0.61242 0.02873 0.78249 0.0
H599 H 0.58589 0.03891 0.77642 0.0
C600 C 0.61074 0.96216 0.79969 0.0
C601 C 0.59271 0.96988 0.80751 0.0
C602 C 0.61378 0.96987 0.78646 0.0
C603 C 0.59887 0.98547 0.78079 0.0
C604 C 0.58079 0.99303 0.78859 0.0
H605 H 0.5648 0.00674 0.69763 0.0
H606 H 0.5695 0.99366 0.72073 0.0
C607 C 0.57785 0.98549 0.80181 0.0
C608 C 0.60138 0.99301 0.76653 0.0
H609 H 0.60128 0.03961 0.74657 0.0
C610 C 0.60217 0.97683 0.75628 0.0
C611 C 0.60203 0.01594 0.76294 0.0
C612 C 0.60313 0.03423 0.77339 0.0
C613 C 0.60254 0.98293 0.74259 0.0
C614 C 0.60144 0.00585 0.73899 0.0
C615 C 0.60173 0.02203 0.74925 0.0
C616 C 0.59914 0.01339 0.72472 0.0
C617 C 0.6042 0.96468 0.73214 0.0
C618 C 0.61381 0.02942 0.71927 0.0
C619 C 0.61091 0.03725 0.70606 0.0
C620 C 0.59329 0.0292 0.69802 0.0
C621 C 0.5787 0.01313 0.70348 0.0
C622 C 0.58148 0.00547 0.71669 0.0
H623 H 0.61262 0.9496 0.73628 0.0
H624 H 0.58711 0.95966 0.72899 0.0
H625 H 0.61355 0.97037 0.72311 0.0
H626 H 0.62747 0.03594 0.72527 0.0
H627 H 0.62241 0.04967 0.70218 0.0
H628 H 0.75048 0.82226 0.44574 0.0
H629 H 0.76323 0.82527 0.46905 0.0
H630 H 0.7059 0.86603 0.47862 0.0
H631 H 0.69327 0.86354 0.45515 0.0
H632 H 0.74412 0.88148 0.49094 0.0
H633 H 0.73516 0.79039 0.4996 0.0
H634 H 0.75336 0.79681 0.48576 0.0
H635 H 0.72417 0.80404 0.48481 0.0
C636 C 0.74062 0.83199 0.45277 0.0
C637 C 0.72073 0.84249 0.4486 0.0
C638 C 0.74788 0.83358 0.46613 0.0
C639 C 0.73527 0.84542 0.4757 0.0
C640 C 0.71584 0.85665 0.47146 0.0
H641 H 0.74929 0.82314 0.56185 0.0
H642 H 0.73569 0.82683 0.53875 0.0
C643 C 0.70863 0.85521 0.45803 0.0
C644 C 0.74209 0.84555 0.49015 0.0
H645 H 0.75394 0.811 0.51663 0.0
C646 C 0.74618 0.86608 0.49659 0.0
C647 C 0.74441 0.82549 0.49762 0.0
C648 C 0.73883 0.80295 0.49165 0.0
C649 C 0.75295 0.86706 0.51018 0.0
C650 C 0.75618 0.84693 0.51746 0.0
C651 C 0.75171 0.82645 0.51106 0.0
C652 C 0.76381 0.84649 0.53179 0.0
C653 C 0.75612 0.88967 0.51664 0.0
C654 C 0.78412 0.85646 0.5357 0.0
C655 C 0.79183 0.85458 0.549 0.0
C656 C 0.77958 0.84237 0.55861 0.0
C657 C 0.75917 0.83263 0.55471 0.0
C658 C 0.75137 0.83471 0.54147 0.0
H659 H 0.74667 0.90289 0.5112 0.0
H660 H 0.75066 0.88953 0.52733 0.0
H661 H 0.77411 0.8942 0.51631 0.0
H662 H 0.79435 0.86516 0.52839 0.0
H663 H 0.80771 0.86211 0.55165 0.0
H664 H 0.92756 0.99924 0.31115 0.0
H665 H 0.9246 0.98657 0.28782 0.0
H666 H 0.88471 0.04447 0.27812 0.0
H667 H 0.88712 0.05699 0.30161 0.0
H668 H 0.86886 0.00674 0.26568 0.0
H669 H 0.96022 0.01397 0.25743 0.0
H670 H 0.95328 0.99576 0.27117 0.0
H671 H 0.94663 0.02508 0.2722 0.0
C672 C 0.91803 0.00924 0.30408 0.0
C673 C 0.90775 0.02925 0.30823 0.0
C674 C 0.91647 0.00203 0.29071 0.0
C675 C 0.9049 0.01483 0.2811 0.0
C676 C 0.89388 0.03438 0.28531 0.0
H677 H 0.92748 0.00149 0.19494 0.0
H678 H 0.92396 0.01477 0.21811 0.0
C679 C 0.89527 0.04153 0.29875 0.0
C680 C 0.90481 0.00806 0.26663 0.0
H681 H 0.93941 0.9958 0.24025 0.0
C682 C 0.88427 0.00443 0.26009 0.0
C683 C 0.9249 0.0054 0.25924 0.0
C684 C 0.94749 0.01047 0.26532 0.0
C685 C 0.88331 0.99782 0.24648 0.0
C686 C 0.90345 0.99429 0.23926 0.0
C687 C 0.92395 0.99828 0.24576 0.0
C688 C 0.90388 0.98684 0.22491 0.0
C689 C 0.86071 0.99515 0.23991 0.0
C690 C 0.89364 0.96673 0.22088 0.0
C691 C 0.89545 0.95919 0.20754 0.0
C692 C 0.90783 0.97142 0.198 0.0
C693 C 0.91784 0.99163 0.20202 0.0
C694 C 0.91586 0.99925 0.21529 0.0
H695 H 0.84759 0.00472 0.24536 0.0
H696 H 0.86106 0.0008 0.22926 0.0
H697 H 0.85588 0.97723 0.2401 0.0
H698 H 0.88477 0.95653 0.22813 0.0
H699 H 0.8877 0.94346 0.20481 0.0
H700 H 0.80573 0.13755 0.95423 0.0
H701 H 0.7925 0.1347 0.97752 0.0
H702 H 0.73535 0.17555 0.96758 0.0
H703 H 0.74883 0.17901 0.94444 0.0
H704 H 0.75437 0.19009 0.98985 0.0
H705 H 0.74337 0.09843 0.99437 0.0
H706 H 0.77111 0.10612 0.98927 0.0
H707 H 0.74778 0.11208 0.97838 0.0
C708 C 0.79021 0.14571 0.95698 0.0
C709 C 0.77834 0.15851 0.94747 0.0
C710 C 0.78257 0.14394 0.97029 0.0
C711 C 0.76271 0.15463 0.97433 0.0
C712 C 0.75068 0.16709 0.96475 0.0
H713 H 0.69218 0.13788 0.05095 0.0
H714 H 0.7046 0.13561 0.02743 0.0
C715 C 0.75841 0.16904 0.9515 0.0
C716 C 0.75514 0.15413 0.98865 0.0
H717 H 0.74187 0.11935 0.01485 0.0
C718 C 0.75155 0.17458 0.99527 0.0
C719 C 0.75114 0.13394 0.99575 0.0
C720 C 0.75332 0.1114 0.98904 0.0
C721 C 0.74439 0.17546 0.00874 0.0
C722 C 0.74131 0.15531 0.01601 0.0
C723 C 0.74451 0.13481 0.00936 0.0
C724 C 0.73457 0.15529 0.03048 0.0
C725 C 0.73975 0.19805 0.01494 0.0
C726 C 0.74758 0.1665 0.04013 0.0
C727 C 0.74042 0.168 0.05352 0.0
C728 C 0.72026 0.15798 0.05763 0.0
C729 C 0.70777 0.14583 0.04811 0.0
C730 C 0.71485 0.14451 0.03466 0.0
H731 H 0.73645 0.21094 0.00712 0.0
H732 H 0.72515 0.19736 0.02184 0.0
H733 H 0.75459 0.2035 0.0208 0.0
H734 H 0.76317 0.17441 0.03727 0.0
H735 H 0.75059 0.17726 0.06062 0.0
H736 H 0.93808 0.50808 0.69865 0.0
H737 H 0.93373 0.49545 0.72186 0.0
H738 H 0.87523 0.53705 0.72622 0.0
H739 H 0.87992 0.55034 0.703 0.0
H740 H 0.90162 0.54127 0.74755 0.0
H741 H 0.89095 0.45107 0.73749 0.0
H742 H 0.91633 0.46136 0.73016 0.0
H743 H 0.88977 0.47175 0.72428 0.0
C744 C 0.92415 0.51442 0.70448 0.0
C745 C 0.90928 0.53015 0.69893 0.0
C746 C 0.92158 0.50703 0.71776 0.0
C747 C 0.90386 0.51487 0.72577 0.0
C748 C 0.88895 0.53059 0.72024 0.0
H749 H 0.87934 0.45161 0.80445 0.0
H750 H 0.87478 0.46533 0.78133 0.0
C751 C 0.89163 0.53816 0.70696 0.0
C752 C 0.90166 0.50745 0.74006 0.0
H753 H 0.90111 0.461 0.76015 0.0
C754 C 0.90125 0.52371 0.75028 0.0
C755 C 0.90069 0.48455 0.74372 0.0
C756 C 0.8992 0.46621 0.73332 0.0
C757 C 0.90085 0.51772 0.76399 0.0
C758 C 0.90152 0.49481 0.76764 0.0
C759 C 0.90096 0.47857 0.75742 0.0
C760 C 0.90354 0.48733 0.78194 0.0
C761 C 0.89954 0.53608 0.77439 0.0
C762 C 0.92126 0.49496 0.79003 0.0
C763 C 0.92374 0.48733 0.80327 0.0
C764 C 0.9088 0.47155 0.80869 0.0
C765 C 0.89111 0.46381 0.8006 0.0
C766 C 0.88851 0.47162 0.78736 0.0
H767 H 0.89146 0.55131 0.7702 0.0
H768 H 0.89004 0.53065 0.78342 0.0
H769 H 0.91672 0.54075 0.77755 0.0
H770 H 0.9335 0.50652 0.78601 0.0
H771 H 0.9377 0.49347 0.80916 0.0
H772 H 0.79939 0.62874 0.05411 0.0
H773 H 0.78628 0.62426 0.03085 0.0
H774 H 0.74496 0.68296 0.03517 0.0
H775 H 0.75738 0.68708 0.05845 0.0
H776 H 0.7228 0.65099 0.02215 0.0
H777 H 0.80681 0.66044 0.99906 0.0
H778 H 0.80478 0.63764 0.01075 0.0
H779 H 0.8017 0.66593 0.01665 0.0
C780 C 0.78745 0.64063 0.05011 0.0
C781 C 0.77954 0.65834 0.05813 0.0
C782 C 0.78008 0.63815 0.03676 0.0
C783 C 0.76494 0.65353 0.03111 0.0
C784 C 0.75669 0.6709 0.03923 0.0
H785 H 0.7413 0.68808 0.94828 0.0
H786 H 0.75364 0.68393 0.97157 0.0
C787 C 0.76386 0.67326 0.05257 0.0
C788 C 0.75766 0.65187 0.01675 0.0
H789 H 0.77686 0.65261 0.9843 0.0
C790 C 0.73464 0.65126 0.01388 0.0
C791 C 0.77306 0.65246 0.0059 0.0
C792 C 0.79795 0.65436 0.00819 0.0
C793 C 0.72659 0.65161 1.00055 0.0
C794 C 0.742 0.65196 0.98971 0.0
C795 C 0.76503 0.65217 0.99258 0.0
C796 C 0.73467 0.65374 0.97536 0.0
C797 C 0.70164 0.65259 0.99828 0.0
C798 C 0.72009 0.63798 0.96955 0.0
C799 C 0.71275 0.64048 0.9562 0.0
C800 C 0.72016 0.65858 0.94832 0.0
C801 C 0.73525 0.67393 0.95404 0.0
C802 C 0.74236 0.67156 0.96739 0.0
H803 H 0.69257 0.6581 0.00747 0.0
H804 H 0.69742 0.66419 0.98992 0.0
H805 H 0.69547 0.63567 0.99559 0.0
H806 H 0.71435 0.62374 0.97533 0.0
H807 H 0.70128 0.62826 0.95206 0.0
H808 H 0.6181 0.55647 0.30237 0.0
H809 H 0.62241 0.54361 0.27904 0.0
H810 H 0.57466 0.49094 0.28631 0.0
H811 H 0.5704 0.50352 0.30959 0.0
H812 H 0.61231 0.47663 0.2718 0.0
H813 H 0.5749 0.5533 0.24956 0.0
H814 H 0.59821 0.55793 0.26066 0.0
H815 H 0.57261 0.54662 0.26723 0.0
C816 C 0.60862 0.54207 0.29902 0.0
C817 C 0.5938 0.53111 0.30783 0.0
C818 C 0.61102 0.53481 0.28565 0.0
C819 C 0.59863 0.51648 0.28086 0.0
C820 C 0.58434 0.50516 0.28976 0.0
H821 H 0.55896 0.48237 0.20041 0.0
H822 H 0.56326 0.49525 0.22357 0.0
C823 C 0.58188 0.51242 0.30307 0.0
C824 C 0.60001 0.50928 0.26652 0.0
H825 H 0.58788 0.52594 0.23443 0.0
C826 C 0.60708 0.48741 0.26359 0.0
C827 C 0.59294 0.52329 0.25585 0.0
C828 C 0.58405 0.54654 0.25842 0.0
C829 C 0.60694 0.47904 0.25034 0.0
C830 C 0.59999 0.49311 0.23962 0.0
C831 C 0.59332 0.51514 0.24257 0.0
C832 C 0.59787 0.485 0.22543 0.0
C833 C 0.61336 0.45491 0.24809 0.0
C834 C 0.61591 0.47498 0.21859 0.0
C835 C 0.61329 0.46709 0.20536 0.0
C836 C 0.5928 0.46968 0.19859 0.0
C837 C 0.575 0.48021 0.20532 0.0
C838 C 0.57746 0.48762 0.21859 0.0
H839 H 0.6123 0.44499 0.25754 0.0
H840 H 0.60245 0.44695 0.24041 0.0
H841 H 0.63091 0.45413 0.24449 0.0
H842 H 0.63205 0.47335 0.22343 0.0
H843 H 0.62737 0.45927 0.20036 0.0
H844 H 0.74456 0.3146 0.5594 0.0
H845 H 0.75773 0.31908 0.5363 0.0
H846 H 0.71487 0.37653 0.53134 0.0
H847 H 0.70105 0.37169 0.55443 0.0
H848 H 0.71156 0.34983 0.51019 0.0
H849 H 0.80139 0.36246 0.52058 0.0
H850 H 0.79157 0.33698 0.52802 0.0
H851 H 0.78054 0.3634 0.5337 0.0
C852 C 0.73806 0.32834 0.55346 0.0
C853 C 0.7218 0.34285 0.5588 0.0
C854 C 0.74577 0.33099 0.54025 0.0
C855 C 0.7377 0.34844 0.5321 0.0
C856 C 0.7215 0.36303 0.53743 0.0
H857 H 0.8008 0.37212 0.45311 0.0
H858 H 0.78727 0.3771 0.47626 0.0
C859 C 0.71363 0.36027 0.55064 0.0
C860 C 0.74528 0.35058 0.51783 0.0
H861 H 0.79197 0.35152 0.49794 0.0
C862 C 0.72915 0.35048 0.50754 0.0
C863 C 0.76821 0.35191 0.51427 0.0
C864 C 0.78639 0.35395 0.52474 0.0
C865 C 0.73529 0.35066 0.49386 0.0
C866 C 0.75825 0.35029 0.49031 0.0
C867 C 0.77437 0.35143 0.50059 0.0
C868 C 0.7659 0.34786 0.47607 0.0
C869 C 0.71703 0.35137 0.48337 0.0
C870 C 0.75863 0.32969 0.46825 0.0
C871 C 0.76615 0.32695 0.45501 0.0
C872 C 0.78146 0.34211 0.44932 0.0
C873 C 0.78896 0.36019 0.45717 0.0
C874 C 0.78125 0.36303 0.47042 0.0
H875 H 0.70163 0.35932 0.4874 0.0
H876 H 0.72242 0.36069 0.47426 0.0
H877 H 0.71268 0.33403 0.48037 0.0
H878 H 0.74736 0.31734 0.47245 0.0
H879 H 0.76021 0.31269 0.44931 0.0
H880 H 0.12134 0.4511 0.30423 0.0
H881 H 0.12613 0.46466 0.28109 0.0
H882 H 0.06802 0.50674 0.28567 0.0
H883 H 0.0636 0.49385 0.30883 0.0
H884 H 0.0998 0.46067 0.25988 0.0
H885 H 0.11072 0.55085 0.26983 0.0
H886 H 0.11183 0.53021 0.28308 0.0
H887 H 0.0853 0.54071 0.2772 0.0
C888 C 0.10976 0.46345 0.30035 0.0
C889 C 0.09218 0.4715 0.30842 0.0
C890 C 0.11249 0.47117 0.2871 0.0
C891 C 0.0977 0.48709 0.28165 0.0
C892 C 0.08009 0.49501 0.28971 0.0
H893 H 0.06276 0.508 0.19849 0.0
H894 H 0.06731 0.49535 0.22169 0.0
C895 C 0.07747 0.48747 0.30296 0.0
C896 C 0.09984 0.49451 0.26734 0.0
H897 H 0.10023 0.54091 0.2472 0.0
C898 C 0.10017 0.47823 0.25713 0.0
C899 C 0.10081 0.5174 0.26366 0.0
C900 C 0.1024 0.53576 0.27404 0.0
C901 C 0.10044 0.48418 0.24342 0.0
C902 C 0.09971 0.50708 0.23975 0.0
C903 C 0.10041 0.52335 0.24995 0.0
C904 C 0.09742 0.51448 0.22545 0.0
C905 C 0.10164 0.46579 0.23304 0.0
C906 C 0.1124 0.53006 0.21984 0.0
C907 C 0.10962 0.53764 0.20657 0.0
C908 C 0.09177 0.5298 0.19863 0.0
C909 C 0.07684 0.51421 0.20426 0.0
C910 C 0.07952 0.50681 0.21753 0.0
H911 H 0.10979 0.45058 0.2372 0.0
H912 H 0.08442 0.46109 0.22995 0.0
H913 H 0.11102 0.47121 0.22396 0.0
H914 H 0.12626 0.53639 0.22575 0.0
H915 H 0.12137 0.54971 0.20256 0.0
H916 H 0.29848 0.37194 0.05415 0.0
H917 H 0.28477 0.3766 0.03104 0.0
H918 H 0.24415 0.31743 0.03546 0.0
H919 H 0.25722 0.31311 0.05861 0.0
H920 H 0.28942 0.35052 0.00977 0.0
H921 H 0.19898 0.35928 0.01977 0.0
H922 H 0.21961 0.36075 0.03301 0.0
H923 H 0.20979 0.33404 0.02703 0.0
C924 C 0.28642 0.36008 0.05024 0.0
C925 C 0.27884 0.34223 0.05827 0.0
C926 C 0.2786 0.36274 0.03701 0.0
C927 C 0.26306 0.34762 0.03152 0.0
C928 C 0.25559 0.32974 0.03953 0.0
H929 H 0.24276 0.31355 0.94821 0.0
H930 H 0.25523 0.31792 0.97145 0.0
C931 C 0.26323 0.32718 0.05277 0.0
C932 C 0.25558 0.34974 0.01722 0.0
H933 H 0.20918 0.34958 0.99707 0.0
C934 C 0.27185 0.35057 0.00702 0.0
C935 C 0.23268 0.3503 0.01355 0.0
C936 C 0.21428 0.3513 0.02394 0.0
C937 C 0.2659 0.35098 0.99332 0.0
C938 C 0.24302 0.34989 0.98963 0.0
C939 C 0.22673 0.35005 0.99983 0.0
C940 C 0.23568 0.34772 0.97532 0.0
C941 C 0.28426 0.35271 0.98294 0.0
C942 C 0.21995 0.36259 0.96976 0.0
C943 C 0.21249 0.35992 0.95645 0.0
C944 C 0.2206 0.34229 0.94843 0.0
C945 C 0.23633 0.32746 0.95403 0.0
C946 C 0.24363 0.33004 0.96733 0.0
H947 H 0.29934 0.36101 0.98716 0.0
H948 H 0.28923 0.33565 0.97971 0.0
H949 H 0.27868 0.3622 0.97393 0.0
H950 H 0.21342 0.37628 0.97573 0.0
H951 H 0.2003 0.37158 0.95247 0.0
H952 H 0.37843 0.54817 0.80409 0.0
H953 H 0.37348 0.53452 0.78097 0.0
H954 H 0.43313 0.49447 0.78495 0.0
H955 H 0.43772 0.50742 0.80808 0.0
H956 H 0.39896 0.53932 0.75945 0.0
H957 H 0.39154 0.44885 0.76966 0.0
H958 H 0.39013 0.46949 0.78289 0.0
H959 H 0.41682 0.4599 0.77672 0.0
C960 C 0.39032 0.53624 0.80008 0.0
C961 C 0.40838 0.52876 0.80798 0.0
C962 C 0.3875 0.52847 0.78685 0.0
C963 C 0.40267 0.51307 0.78124 0.0
C964 C 0.42078 0.50576 0.78912 0.0
H965 H 0.43577 0.4928 0.69774 0.0
H966 H 0.43144 0.5056 0.72092 0.0
C967 C 0.42348 0.51334 0.80235 0.0
C968 C 0.40035 0.50554 0.76697 0.0
H969 H 0.401 0.45905 0.7469 0.0
C970 C 0.39914 0.52175 0.75674 0.0
C971 C 0.40009 0.48261 0.76333 0.0
C972 C 0.39946 0.46424 0.77375 0.0
C973 C 0.39866 0.51572 0.74304 0.0
C974 C 0.40008 0.49285 0.73939 0.0
C975 C 0.40029 0.47661 0.74963 0.0
C976 C 0.40217 0.48543 0.72509 0.0
C977 C 0.39649 0.534 0.73264 0.0
C978 C 0.38758 0.46928 0.71971 0.0
C979 C 0.39025 0.46163 0.70644 0.0
C980 C 0.40758 0.46998 0.69828 0.0
C981 C 0.42209 0.48618 0.70368 0.0
C982 C 0.41953 0.49366 0.71694 0.0
H983 H 0.38794 0.54894 0.73687 0.0
H984 H 0.41342 0.53928 0.72935 0.0
H985 H 0.38701 0.52821 0.72367 0.0
H986 H 0.37414 0.46252 0.72579 0.0
H987 H 0.37882 0.44909 0.70261 0.0
H988 H 0.25053 0.67985 0.5607 0.0
H989 H 0.26327 0.67669 0.53739 0.0
H990 H 0.20805 0.63271 0.52848 0.0
H991 H 0.19542 0.63543 0.55195 0.0
H992 H 0.24727 0.6188 0.51635 0.0
H993 H 0.23289 0.70884 0.50641 0.0
H994 H 0.25139 0.70399 0.52034 0.0
H995 H 0.22268 0.6951 0.52137 0.0
C996 C 0.24114 0.66938 0.55382 0.0
C997 C 0.22182 0.65805 0.55817 0.0
C998 C 0.24839 0.66769 0.54046 0.0
C999 C 0.23635 0.65487 0.53108 0.0
C1000 C 0.21753 0.64284 0.5355 0.0
H1001 H 0.24902 0.67493 0.44465 0.0
H1002 H 0.23563 0.67128 0.46779 0.0
C1003 C 0.21032 0.64442 0.54892 0.0
C1004 C 0.24309 0.65456 0.51662 0.0
H1005 H 0.25275 0.68869 0.48963 0.0
C1006 C 0.24838 0.63406 0.51047 0.0
C1007 C 0.24417 0.67441 0.50886 0.0
C1008 C 0.23727 0.6968 0.51452 0.0
C1009 C 0.25515 0.63294 0.49689 0.0
C1010 C 0.25713 0.65293 0.4893 0.0
C1011 C 0.25146 0.67335 0.49542 0.0
C1012 C 0.2647 0.65326 0.47497 0.0
C1013 C 0.25963 0.61029 0.49076 0.0
C1014 C 0.28547 0.64418 0.47115 0.0
C1015 C 0.29305 0.64599 0.45781 0.0
C1016 C 0.28021 0.6573 0.44809 0.0
C1017 C 0.25936 0.66616 0.45189 0.0
C1018 C 0.25168 0.6641 0.46515 0.0
H1019 H 0.25089 0.59678 0.49637 0.0
H1020 H 0.25425 0.60969 0.48006 0.0
H1021 H 0.27784 0.60678 0.4912 0.0
H1022 H 0.29615 0.63626 0.47855 0.0
H1023 H 0.30928 0.63918 0.45524 0.0
H1024 H 0.36615 0.00156 0.16069 0.0
H1025 H 0.33692 0.97394 0.1557 0.0
H1026 H 0.35439 0.9763 0.11358 0.0
H1027 H 0.38376 0.00327 0.11844 0.0
H1028 H 0.29994 0.97606 0.13935 0.0
H1029 H 0.35729 0.91003 0.12091 0.0
H1030 H 0.36715 0.93444 0.12978 0.0
H1031 H 0.36073 0.93598 0.11208 0.0
C1032 C 0.36381 0.99613 0.15038 0.0
C1033 C 0.37753 0.00446 0.14001 0.0
C1034 C 0.34709 0.98036 0.14754 0.0
C1035 C 0.3438 0.97267 0.13431 0.0
C1036 C 0.35704 0.98146 0.12392 0.0
H1037 H 0.24879 0.88289 0.09513 0.0
H1038 H 0.2761 0.91249 0.10005 0.0
C1039 C 0.3738 0.997 0.12674 0.0
C1040 C 0.3264 0.95567 0.13123 0.0
H1041 H 0.31846 0.90453 0.11657 0.0
C1042 C 0.30401 0.96037 0.13445 0.0
C1043 C 0.33172 0.93516 0.12483 0.0
C1044 C 0.35555 0.92847 0.12182 0.0
C1045 C 0.28679 0.94528 0.13124 0.0
C1046 C 0.29212 0.92501 0.12466 0.0
C1047 C 0.31445 0.92026 0.12146 0.0
C1048 C 0.2749 0.90793 0.12165 0.0
C1049 C 0.26296 0.95115 0.13475 0.0
C1050 C 0.26536 0.89558 0.13216 0.0
C1051 C 0.25 0.8786 0.12941 0.0
C1052 C 0.24376 0.87365 0.11605 0.0
C1053 C 0.25316 0.8863 0.10552 0.0
C1054 C 0.26876 0.90318 0.1083 0.0
H1055 H 0.26112 0.96904 0.13755 0.0
H1056 H 0.25167 0.94745 0.12614 0.0
H1057 H 0.25745 0.94078 0.14341 0.0
H1058 H 0.27007 0.89886 0.14252 0.0
H1059 H 0.24305 0.86931 0.13779 0.0
H1060 H 0.24394 0.13184 0.3678 0.0
H1061 H 0.27052 0.10217 0.36275 0.0
H1062 H 0.27777 0.08843 0.40518 0.0
H1063 H 0.25049 0.11782 0.41035 0.0
H1064 H 0.31333 0.09899 0.36935 0.0
H1065 H 0.26795 0.02636 0.39079 0.0
H1066 H 0.25484 0.05326 0.38842 0.0
H1067 H 0.27253 0.04831 0.40279 0.0
C1068 C 0.25107 0.12248 0.3761 0.0
C1069 C 0.24505 0.12725 0.38951 0.0
C1070 C 0.26628 0.10546 0.37317 0.0
C1071 C 0.27596 0.09282 0.38355 0.0
C1072 C 0.27011 0.09756 0.39697 0.0
H1073 H 0.38416 0.99776 0.38639 0.0
H1074 H 0.35457 0.0248 0.39092 0.0
C1075 C 0.25463 0.11448 0.39992 0.0
C1076 C 0.29286 0.07543 0.38022 0.0
H1077 H 0.30575 0.02009 0.38413 0.0
C1078 C 0.31156 0.08171 0.3725 0.0
C1079 C 0.29053 0.05284 0.38428 0.0
C1080 C 0.27028 0.0447 0.39191 0.0
C1081 C 0.32813 0.06615 0.36896 0.0
C1082 C 0.32596 0.04372 0.37321 0.0
C1083 C 0.3073 0.03735 0.38088 0.0
C1084 C 0.34342 0.02686 0.37026 0.0
C1085 C 0.34814 0.07386 0.36095 0.0
C1086 C 0.3468 0.01891 0.35711 0.0
C1087 C 0.36372 0.00329 0.35443 0.0
C1088 C 0.37761 0.9955 0.36488 0.0
C1089 C 0.37395 0.00346 0.37806 0.0
C1090 C 0.35697 0.01887 0.38071 0.0
H1091 H 0.34894 0.09238 0.36012 0.0
H1092 H 0.36385 0.06775 0.36566 0.0
H1093 H 0.34722 0.06676 0.35063 0.0
H1094 H 0.33636 0.02479 0.34892 0.0
H1095 H 0.36603 0.99751 0.34419 0.0
H1096 H 0.10173 0.01689 0.62765 0.0
H1097 H 0.1316 0.04303 0.62203 0.0
H1098 H 0.17624 0.00832 0.64904 0.0
H1099 H 0.14601 0.98253 0.65514 0.0
H1100 H 0.18188 0.05148 0.65145 0.0
H1101 H 0.1826 0.0319 0.59713 0.0
H1102 H 0.15535 0.04091 0.60232 0.0
H1103 H 0.16698 0.01547 0.60911 0.0
C1104 C 0.11789 0.01481 0.63242 0.0
C1105 C 0.12154 0.9975 0.64177 0.0
C1106 C 0.13505 0.02966 0.62909 0.0
C1107 C 0.15642 0.02725 0.63476 0.0
C1108 C 0.15997 0.01038 0.6444 0.0
H1109 H 0.26941 0.10324 0.60121 0.0
H1110 H 0.24336 0.07311 0.60718 0.0
C1111 C 0.14266 0.99569 0.64792 0.0
C1112 C 0.1748 0.04273 0.63084 0.0
H1113 H 0.20062 0.06625 0.60359 0.0
C1114 C 0.18614 0.05451 0.64099 0.0
C1115 C 0.18085 0.04634 0.6172 0.0
C1116 C 0.17097 0.03278 0.60584 0.0
C1117 C 0.20262 0.07043 0.63787 0.0
C1118 C 0.20734 0.07535 0.62419 0.0
C1119 C 0.19672 0.06287 0.61406 0.0
C1120 C 0.22283 0.09369 0.6202 0.0
C1121 C 0.21495 0.08157 0.64932 0.0
C1122 C 0.21958 0.11544 0.62515 0.0
C1123 C 0.23458 0.13251 0.62193 0.0
C1124 C 0.25286 0.1284 0.61337 0.0
C1125 C 0.25548 0.10692 0.60783 0.0
C1126 C 0.24065 0.08968 0.61127 0.0
H1127 H 0.21526 0.07074 0.65841 0.0
H1128 H 0.23245 0.08566 0.6465 0.0
H1129 H 0.2062 0.09729 0.65207 0.0
H1130 H 0.2055 0.11922 0.63162 0.0
H1131 H 0.23189 0.14897 0.62619 0.0
H1132 H 0.10492 0.99264 0.88522 0.0
H1133 H 0.13394 0.9657 0.89089 0.0
H1134 H 0.16814 0.98051 0.85372 0.0
H1135 H 0.13915 0.00791 0.84794 0.0
H1136 H 0.14653 0.92783 0.87691 0.0
H1137 H 0.21774 0.98684 0.88228 0.0
H1138 H 0.18897 0.99603 0.88186 0.0
H1139 H 0.20306 0.98862 0.86651 0.0
C1140 C 0.11859 0.9903 0.8782 0.0
C1141 C 0.11966 0.00259 0.86611 0.0
C1142 C 0.1352 0.97485 0.8815 0.0
C1143 C 0.15337 0.97133 0.87284 0.0
C1144 C 0.15447 0.98329 0.86068 0.0
H1145 H 0.24186 0.85789 0.87199 0.0
H1146 H 0.21423 0.88681 0.8676 0.0
C1147 C 0.13778 0.99882 0.85734 0.0
C1148 C 0.17066 0.95455 0.87647 0.0
H1149 H 0.2263 0.94806 0.88339 0.0
C1150 C 0.16396 0.93227 0.87835 0.0
C1151 C 0.19333 0.96044 0.87857 0.0
C1152 C 0.20126 0.98431 0.87733 0.0
C1153 C 0.17936 0.91564 0.88201 0.0
C1154 C 0.20215 0.92136 0.88366 0.0
C1155 C 0.20883 0.94371 0.88206 0.0
C1156 C 0.21937 0.90412 0.88647 0.0
C1157 C 0.17105 0.89207 0.8842 0.0
C1158 C 0.23186 0.9045 0.89845 0.0
C1159 C 0.24787 0.88788 0.90105 0.0
C1160 C 0.25175 0.87072 0.89162 0.0
C1161 C 0.23931 0.87068 0.87956 0.0
C1162 C 0.22339 0.8872 0.87702 0.0
H1163 H 0.15276 0.89166 0.88615 0.0
H1164 H 0.17438 0.88203 0.87501 0.0
H1165 H 0.17983 0.88402 0.89279 0.0
H1166 H 0.22906 0.91752 0.90585 0.0
H1167 H 0.25718 0.88852 0.9104 0.0
H1168 H 0.74992 0.11648 0.91151 0.0
H1169 H 0.72251 0.08677 0.90693 0.0
H1170 H 0.72616 0.10124 0.86446 0.0
H1171 H 0.75321 0.13085 0.86884 0.0
H1172 H 0.67915 0.09442 0.89116 0.0
H1173 H 0.73638 0.03114 0.86882 0.0
H1174 H 0.74601 0.05268 0.8802 0.0
H1175 H 0.73954 0.05951 0.86304 0.0
C1176 C 0.74497 0.11325 0.90119 0.0
C1177 C 0.75373 0.12613 0.89056 0.0
C1178 C 0.72933 0.0963 0.8986 0.0
C1179 C 0.72253 0.09174 0.88534 0.0
C1180 C 0.73139 0.10437 0.87474 0.0
H1181 H 0.63169 0.99967 0.8452 0.0
H1182 H 0.66077 0.02709 0.85083 0.0
C1183 C 0.74677 0.1214 0.8773 0.0
C1184 C 0.7054 0.0745 0.88249 0.0
H1185 H 0.69752 0.02411 0.867 0.0
C1186 C 0.68313 0.07893 0.88599 0.0
C1187 C 0.71069 0.05454 0.87556 0.0
C1188 C 0.73446 0.04898 0.87173 0.0
C1189 C 0.66586 0.0641 0.88252 0.0
C1190 C 0.67112 0.04396 0.87567 0.0
C1191 C 0.69348 0.03952 0.87223 0.0
C1192 C 0.65371 0.02717 0.87222 0.0
C1193 C 0.64207 0.07053 0.88583 0.0
C1194 C 0.64038 0.01781 0.88237 0.0
C1195 C 0.62366 0.0024 0.87919 0.0
C1196 C 0.6201 0.99565 0.86576 0.0
C1197 C 0.6339 0.00457 0.85562 0.0
C1198 C 0.65054 0.02022 0.85882 0.0
H1199 H 0.64029 0.0889 0.88715 0.0
H1200 H 0.63034 0.065 0.87782 0.0
H1201 H 0.6371 0.06244 0.89543 0.0
H1202 H 0.64294 0.02236 0.89282 0.0
H1203 H 0.61365 0.99564 0.88731 0.0
H1204 H 0.61862 0.00392 0.619 0.0
H1205 H 0.64836 0.97701 0.61448 0.0
H1206 H 0.66467 0.97496 0.65675 0.0
H1207 H 0.63488 0.00212 0.66146 0.0
H1208 H 0.69742 0.9811 0.62268 0.0
H1209 H 0.65138 0.90792 0.64361 0.0
H1210 H 0.63719 0.93294 0.63802 0.0
H1211 H 0.65242 0.93306 0.65359 0.0
C1212 C 0.62847 0.9978 0.62739 0.0
C1213 C 0.62422 0.00512 0.64063 0.0
C1214 C 0.64554 0.98247 0.62474 0.0
C1215 C 0.65858 0.97396 0.63527 0.0
C1216 C 0.65464 0.9813 0.6485 0.0
H1217 H 0.75636 0.86751 0.63796 0.0
H1218 H 0.7299 0.89731 0.64295 0.0
C1219 C 0.63765 0.99684 0.65116 0.0
C1220 C 0.67601 0.95705 0.63235 0.0
H1221 H 0.68749 0.90135 0.63512 0.0
C1222 C 0.69536 0.96365 0.62541 0.0
C1223 C 0.67315 0.93437 0.63593 0.0
C1224 C 0.6524 0.92646 0.64314 0.0
C1225 C 0.71216 0.94814 0.6221 0.0
C1226 C 0.70917 0.92533 0.6255 0.0
C1227 C 0.68977 0.91881 0.63248 0.0
C1228 C 0.72608 0.90791 0.62224 0.0
C1229 C 0.73313 0.95644 0.61529 0.0
C1230 C 0.73281 0.90386 0.60889 0.0
C1231 C 0.7482 0.88684 0.60597 0.0
C1232 C 0.75684 0.87331 0.61635 0.0
C1233 C 0.74999 0.87746 0.62968 0.0
C1234 C 0.73484 0.89454 0.63258 0.0
H1235 H 0.73558 0.97468 0.61688 0.0
H1236 H 0.74814 0.94747 0.61907 0.0
H1237 H 0.73179 0.95349 0.60429 0.0
H1238 H 0.72588 0.91359 0.60069 0.0
H1239 H 0.75298 0.88401 0.59559 0.0
H1240 H 0.74709 0.88518 0.41165 0.0
H1241 H 0.77374 0.91533 0.40667 0.0
H1242 H 0.7709 0.89884 0.36444 0.0
H1243 H 0.74451 0.8688 0.36923 0.0
H1244 H 0.81694 0.90864 0.39229 0.0
H1245 H 0.75983 0.9682 0.36644 0.0
H1246 H 0.74985 0.94677 0.3778 0.0
H1247 H 0.75828 0.93954 0.361 0.0
C1248 C 0.75202 0.88807 0.4013 0.0
C1249 C 0.74367 0.8745 0.39086 0.0
C1250 C 0.76724 0.90528 0.39848 0.0
C1251 C 0.77405 0.90943 0.38517 0.0
C1252 C 0.7656 0.8961 0.37475 0.0
H1253 H 0.86675 0.00053 0.34539 0.0
H1254 H 0.83733 0.97323 0.35069 0.0
C1255 C 0.75061 0.87881 0.37755 0.0
C1256 C 0.79091 0.92689 0.38215 0.0
H1257 H 0.79864 0.9762 0.3654 0.0
C1258 C 0.81295 0.92352 0.38651 0.0
C1259 C 0.78564 0.94606 0.37444 0.0
C1260 C 0.76209 0.95056 0.3697 0.0
C1261 C 0.83003 0.93865 0.38317 0.0
C1262 C 0.82477 0.95802 0.37557 0.0
C1263 C 0.80266 0.96138 0.37122 0.0
C1264 C 0.84193 0.97515 0.37229 0.0
C1265 C 0.85366 0.93334 0.38748 0.0
C1266 C 0.85386 0.98571 0.38265 0.0
C1267 C 0.87074 0.00103 0.37967 0.0
C1268 C 0.87587 0.0065 0.36622 0.0
C1269 C 0.86329 0.99661 0.35583 0.0
C1270 C 0.84649 0.98102 0.35885 0.0
H1271 H 0.85591 0.91517 0.38942 0.0
H1272 H 0.86595 0.93863 0.37973 0.0
H1273 H 0.85743 0.94236 0.39698 0.0
H1274 H 0.85018 0.982 0.3931 0.0
H1275 H 0.87977 0.00861 0.38795 0.0
H1276 H 0.74653 0.13265 0.13667 0.0
H1277 H 0.77298 0.10258 0.14128 0.0
H1278 H 0.77239 0.08394 0.09935 0.0
H1279 H 0.74574 0.11414 0.09453 0.0
H1280 H 0.76803 0.05415 0.13519 0.0
H1281 H 0.83997 0.09557 0.10975 0.0
H1282 H 0.81546 0.11086 0.11508 0.0
H1283 H 0.81428 0.09346 0.10038 0.0
C1284 C 0.75197 0.12223 0.12837 0.0
C1285 C 0.74408 0.12598 0.11518 0.0
C1286 C 0.76704 0.10497 0.13107 0.0
C1287 C 0.77473 0.09118 0.12065 0.0
C1288 C 0.76675 0.09457 0.1075 0.0
H1289 H 0.87899 0.99095 0.1184 0.0
H1290 H 0.84889 0.01703 0.1133 0.0
C1291 C 0.7515 0.1118 0.10478 0.0
C1292 C 0.79147 0.07359 0.12363 0.0
H1293 H 0.84642 0.06013 0.11924 0.0
C1294 C 0.78518 0.05535 0.13168 0.0
C1295 C 0.81377 0.07531 0.11905 0.0
C1296 C 0.82146 0.09489 0.11065 0.0
C1297 C 0.8006 0.03855 0.13515 0.0
C1298 C 0.82305 0.04042 0.13074 0.0
C1299 C 0.82924 0.05869 0.12264 0.0
C1300 C 0.84041 0.02351 0.13412 0.0
C1301 C 0.79255 0.01875 0.14323 0.0
C1302 C 0.8457 0.01833 0.14757 0.0
C1303 C 0.86287 0.00313 0.15056 0.0
C1304 C 0.87533 0.99319 0.14014 0.0
C1305 C 0.86989 0.99841 0.1267 0.0
C1306 C 0.85263 0.01332 0.12374 0.0
H1307 H 0.77414 0.01658 0.1424 0.0
H1308 H 0.80081 0.00307 0.1399 0.0
H1309 H 0.7966 0.02148 0.15402 0.0
H1310 H 0.83689 0.02637 0.15578 0.0
H1311 H 0.86673 0.99959 0.16101 0.0
H1312 H 0.74171 0.37036 0.63849 0.0
H1313 H 0.76828 0.39998 0.64371 0.0
H1314 H 0.77896 0.41123 0.60127 0.0
H1315 H 0.75167 0.38194 0.59592 0.0
H1316 H 0.81143 0.40198 0.63839 0.0
H1317 H 0.76976 0.47423 0.614 0.0
H1318 H 0.75582 0.44778 0.61646 0.0
H1319 H 0.7748 0.45155 0.60257 0.0
C1320 C 0.74958 0.37919 0.63022 0.0
C1321 C 0.74455 0.37374 0.61677 0.0
C1322 C 0.76478 0.39618 0.63324 0.0
C1323 C 0.77546 0.40808 0.62291 0.0
C1324 C 0.77053 0.4027 0.60943 0.0
H1325 H 0.88575 0.50044 0.6204 0.0
H1326 H 0.85585 0.47375 0.61594 0.0
C1327 C 0.75503 0.38584 0.60638 0.0
C1328 C 0.7925 0.42528 0.62636 0.0
H1329 H 0.80729 0.47991 0.62144 0.0
C1330 C 0.81039 0.41906 0.63477 0.0
C1331 C 0.79114 0.44763 0.62168 0.0
C1332 C 0.77173 0.45578 0.61329 0.0
C1333 C 0.82713 0.43439 0.63838 0.0
C1334 C 0.82596 0.45654 0.6335 0.0
C1335 C 0.80809 0.46287 0.62517 0.0
C1336 C 0.84374 0.47309 0.63644 0.0
C1337 C 0.84628 0.42669 0.64714 0.0
C1338 C 0.84674 0.48169 0.64948 0.0
C1339 C 0.86387 0.4971 0.65211 0.0
C1340 C 0.87834 0.50406 0.64174 0.0
C1341 C 0.87509 0.4954 0.62868 0.0
C1342 C 0.85793 0.48019 0.62607 0.0
H1343 H 0.84653 0.40822 0.64838 0.0
H1344 H 0.8625 0.43213 0.64279 0.0
H1345 H 0.84469 0.4344 0.65726 0.0
H1346 H 0.8358 0.47651 0.6576 0.0
H1347 H 0.86583 0.50344 0.66227 0.0
H1348 H 0.88133 0.49244 0.88827 0.0
H1349 H 0.85189 0.51929 0.89333 0.0
H1350 H 0.84015 0.52878 0.85084 0.0
H1351 H 0.86926 0.50122 0.84566 0.0
H1352 H 0.84974 0.56234 0.88755 0.0
H1353 H 0.77731 0.51975 0.86394 0.0
H1354 H 0.80382 0.50596 0.86646 0.0
H1355 H 0.79987 0.52451 0.85238 0.0
C1356 C 0.87243 0.50011 0.87996 0.0
C1357 C 0.87768 0.49464 0.86654 0.0
C1358 C 0.85556 0.51548 0.88289 0.0
C1359 C 0.84355 0.52589 0.8725 0.0
C1360 C 0.84876 0.52056 0.85905 0.0
H1361 H 0.75064 0.63595 0.86974 0.0
H1362 H 0.77758 0.60625 0.86527 0.0
C1363 C 0.86552 0.50491 0.8561 0.0
C1364 C 0.82634 0.54299 0.87584 0.0
H1365 H 0.77156 0.55739 0.8711 0.0
C1366 C 0.83261 0.56113 0.88403 0.0
C1367 C 0.80393 0.54141 0.8713 0.0
C1368 C 0.79574 0.52175 0.86315 0.0
C1369 C 0.81725 0.57789 0.88758 0.0
C1370 C 0.79502 0.57647 0.88284 0.0
C1371 C 0.78866 0.55837 0.87471 0.0
C1372 C 0.77838 0.59418 0.88578 0.0
C1373 C 0.82496 0.59728 0.89612 0.0
C1374 C 0.76979 0.59712 0.89882 0.0
C1375 C 0.75423 0.61411 0.90146 0.0
C1376 C 0.74712 0.62851 0.89108 0.0
C1377 C 0.75579 0.62534 0.87802 0.0
C1378 C 0.77115 0.6083 0.8754 0.0
H1379 H 0.84343 0.5976 0.89732 0.0
H1380 H 0.81945 0.61337 0.89161 0.0
H1381 H 0.81729 0.59598 0.90627 0.0
H1382 H 0.77508 0.58624 0.90695 0.0
H1383 H 0.74789 0.61602 0.91161 0.0
H1384 H 0.75123 0.61688 0.09543 0.0
H1385 H 0.72334 0.58799 0.10061 0.0
H1386 H 0.72498 0.60701 0.14249 0.0
H1387 H 0.75224 0.636 0.13744 0.0
H1388 H 0.7249 0.55158 0.11767 0.0
H1389 H 0.65882 0.61034 0.13441 0.0
H1390 H 0.68351 0.61954 0.12554 0.0
H1391 H 0.68462 0.61403 0.14336 0.0
C1392 C 0.74559 0.61494 0.10573 0.0
C1393 C 0.75379 0.629 0.11597 0.0
C1394 C 0.72967 0.59842 0.10868 0.0
C1395 C 0.7217 0.59569 0.1219 0.0
C1396 C 0.73037 0.60924 0.13216 0.0
H1397 H 0.63311 0.50015 0.16164 0.0
H1398 H 0.66249 0.52762 0.15654 0.0
C1399 C 0.74608 0.62579 0.12923 0.0
C1400 C 0.70448 0.57858 0.12509 0.0
H1401 H 0.65285 0.57178 0.13933 0.0
C1402 C 0.7091 0.55601 0.12233 0.0
C1403 C 0.68382 0.58439 0.13116 0.0
C1404 C 0.67727 0.60841 0.13367 0.0
C1405 C 0.69377 0.53909 0.12569 0.0
C1406 C 0.67338 0.54491 0.13197 0.0
C1407 C 0.66868 0.56741 0.13468 0.0
C1408 C 0.65614 0.52796 0.1351 0.0
C1409 C 0.69943 0.51503 0.12264 0.0
C1410 C 0.64284 0.51931 0.12473 0.0
C1411 C 0.62598 0.50388 0.12759 0.0
C1412 C 0.62213 0.49666 0.1409 0.0
C1413 C 0.63563 0.5053 0.15129 0.0
C1414 C 0.65241 0.52097 0.14841 0.0
H1415 H 0.71709 0.51297 0.11939 0.0
H1416 H 0.69643 0.50445 0.13166 0.0
H1417 H 0.68835 0.50885 0.11448 0.0
H1418 H 0.64541 0.52465 0.11441 0.0
H1419 H 0.61605 0.49753 0.11931 0.0
H1420 H 0.76744 0.39512 0.4055 0.0
H1421 H 0.74062 0.42464 0.3998 0.0
H1422 H 0.70482 0.37855 0.37422 0.0
H1423 H 0.732 0.3494 0.37942 0.0
H1424 H 0.71033 0.41658 0.36167 0.0
H1425 H 0.67843 0.43469 0.41295 0.0
H1426 H 0.70812 0.43825 0.41151 0.0
H1427 H 0.696 0.4109 0.40941 0.0
C1428 C 0.75368 0.39125 0.39879 0.0
C1429 C 0.75183 0.36992 0.39293 0.0
C1430 C 0.7383 0.40811 0.39557 0.0
C1431 C 0.72047 0.40379 0.3867 0.0
C1432 C 0.71842 0.38236 0.38106 0.0
H1433 H 0.60013 0.48141 0.37728 0.0
H1434 H 0.62912 0.45405 0.38248 0.0
C1435 C 0.73396 0.36566 0.38408 0.0
C1436 C 0.70428 0.4216 0.38285 0.0
H1437 H 0.66669 0.4591 0.39552 0.0
C1438 C 0.70074 0.42584 0.36908 0.0
C1439 C 0.69163 0.43359 0.39249 0.0
C1440 C 0.69354 0.429 0.4074 0.0
C1441 C 0.68475 0.44144 0.36468 0.0
C1442 C 0.67243 0.45377 0.37433 0.0
C1443 C 0.6762 0.44976 0.3881 0.0
C1444 C 0.65474 0.47009 0.37047 0.0
C1445 C 0.68068 0.44387 0.34974 0.0
C1446 C 0.65934 0.4882 0.36185 0.0
C1447 C 0.64256 0.50368 0.35862 0.0
C1448 C 0.62106 0.50165 0.36423 0.0
C1449 C 0.61654 0.48351 0.37283 0.0
C1450 C 0.63314 0.46787 0.37585 0.0
H1451 H 0.68654 0.42895 0.34408 0.0
H1452 H 0.66265 0.44642 0.34754 0.0
H1453 H 0.69008 0.45857 0.34594 0.0
H1454 H 0.67599 0.49065 0.35784 0.0
H1455 H 0.64663 0.51764 0.3521 0.0
H1456 H 0.11714 0.49743 0.38742 0.0
H1457 H 0.14715 0.52398 0.39202 0.0
H1458 H 0.16508 0.52423 0.34997 0.0
H1459 H 0.13497 0.49746 0.34518 0.0
H1460 H 0.19576 0.51896 0.38527 0.0
H1461 H 0.15342 0.59173 0.36126 0.0
H1462 H 0.13828 0.56717 0.36666 0.0
H1463 H 0.15497 0.56622 0.35167 0.0
C1464 C 0.12738 0.50309 0.37909 0.0
C1465 C 0.12349 0.49537 0.36589 0.0
C1466 C 0.14461 0.51821 0.38178 0.0
C1467 C 0.1582 0.52614 0.37133 0.0
C1468 C 0.15461 0.51839 0.35815 0.0
H1469 H 0.25863 0.6301 0.36866 0.0
H1470 H 0.23209 0.60035 0.36369 0.0
C1471 C 0.13744 0.50308 0.35545 0.0
C1472 C 0.17587 0.54279 0.3743 0.0
H1473 H 0.18922 0.59786 0.37034 0.0
C1474 C 0.19444 0.53622 0.38199 0.0
C1475 C 0.17398 0.56524 0.37002 0.0
C1476 C 0.15406 0.5732 0.36201 0.0
C1477 C 0.21141 0.5515 0.38537 0.0
C1478 C 0.2094 0.57409 0.38124 0.0
C1479 C 0.19077 0.58058 0.37353 0.0
C1480 C 0.22653 0.5913 0.38452 0.0
C1481 C 0.23156 0.54316 0.39303 0.0
C1482 C 0.23237 0.59615 0.39793 0.0
C1483 C 0.24784 0.61312 0.40084 0.0
C1484 C 0.2574 0.62581 0.39038 0.0
C1485 C 0.2515 0.62081 0.37699 0.0
C1486 C 0.23631 0.60376 0.3741 0.0
H1487 H 0.23363 0.52477 0.39197 0.0
H1488 H 0.24711 0.55147 0.38951 0.0
H1489 H 0.22936 0.54691 0.40389 0.0
H1490 H 0.22465 0.58715 0.40617 0.0
H1491 H 0.25188 0.61664 0.41126 0.0
H1492 H 0.2459 0.36053 0.13589 0.0
H1493 H 0.21826 0.38925 0.1407 0.0
H1494 H 0.22739 0.41695 0.10099 0.0
H1495 H 0.25553 0.38817 0.09601 0.0
H1496 H 0.22635 0.44935 0.12248 0.0
H1497 H 0.15461 0.39059 0.12492 0.0
H1498 H 0.17784 0.38278 0.13539 0.0
H1499 H 0.18105 0.38311 0.11738 0.0
C1500 C 0.24208 0.37261 0.12808 0.0
C1501 C 0.2529 0.37184 0.11548 0.0
C1502 C 0.22618 0.38902 0.13088 0.0
C1503 C 0.22053 0.405 0.12114 0.0
C1504 C 0.23146 0.40465 0.10862 0.0
H1505 H 0.10432 0.49058 0.12274 0.0
H1506 H 0.13361 0.46375 0.11742 0.0
C1507 C 0.24748 0.38816 0.10578 0.0
C1508 C 0.20314 0.42197 0.12417 0.0
H1509 H 0.14817 0.42749 0.1329 0.0
C1510 C 0.20922 0.44463 0.1247 0.0
C1511 C 0.18079 0.41574 0.12698 0.0
C1512 C 0.17307 0.39176 0.12603 0.0
C1513 C 0.19358 0.46122 0.12819 0.0
C1514 C 0.17139 0.45489 0.13137 0.0
C1515 C 0.16527 0.43227 0.13063 0.0
C1516 C 0.1539 0.47152 0.13483 0.0
C1517 C 0.20078 0.4854 0.12825 0.0
C1518 C 0.15541 0.48465 0.14653 0.0
C1519 C 0.13854 0.5001 0.14968 0.0
C1520 C 0.11989 0.50266 0.14116 0.0
C1521 C 0.11842 0.48922 0.12954 0.0
C1522 C 0.13518 0.47381 0.12645 0.0
H1523 H 0.21688 0.48788 0.12287 0.0
H1524 H 0.18784 0.49614 0.1235 0.0
H1525 H 0.20298 0.49104 0.13882 0.0
H1526 H 0.16955 0.48285 0.15327 0.0
H1527 H 0.14022 0.51012 0.15871 0.0
H1528 H 0.36283 0.50628 0.84651 0.0
H1529 H 0.33376 0.47871 0.85185 0.0
H1530 H 0.36284 0.46879 0.89114 0.0
H1531 H 0.39192 0.49588 0.88594 0.0
H1532 H 0.35365 0.42919 0.87799 0.0
H1533 H 0.27996 0.48584 0.87737 0.0
H1534 H 0.29685 0.48645 0.8624 0.0
H1535 H 0.30835 0.49611 0.87807 0.0
C1536 C 0.36302 0.49827 0.8563 0.0
C1537 C 0.37978 0.50338 0.86578 0.0
C1538 C 0.34629 0.48263 0.85937 0.0
C1539 C 0.34597 0.47191 0.87197 0.0
C1540 C 0.36271 0.47691 0.88138 0.0
H1541 H 0.24147 0.39016 0.90904 0.0
H1542 H 0.26921 0.41929 0.90405 0.0
C1543 C 0.37937 0.49245 0.87835 0.0
C1544 C 0.32878 0.45487 0.87532 0.0
H1545 H 0.27267 0.44705 0.87997 0.0
C1546 C 0.33594 0.4331 0.87842 0.0
C1547 C 0.30572 0.46009 0.87608 0.0
C1548 C 0.29719 0.48342 0.87342 0.0
C1549 C 0.32068 0.41635 0.88209 0.0
C1550 C 0.29758 0.4214 0.8825 0.0
C1551 C 0.29039 0.44322 0.87959 0.0
C1552 C 0.28066 0.40398 0.88555 0.0
C1553 C 0.32941 0.39341 0.88564 0.0
C1554 C 0.27782 0.38588 0.87675 0.0
C1555 C 0.26207 0.36929 0.87955 0.0
C1556 C 0.24871 0.37041 0.89122 0.0
C1557 C 0.25153 0.38867 0.90001 0.0
C1558 C 0.2673 0.40537 0.89716 0.0
H1559 H 0.34754 0.39376 0.88809 0.0
H1560 H 0.32018 0.38631 0.89436 0.0
H1561 H 0.327 0.38205 0.87692 0.0
H1562 H 0.28774 0.38465 0.86765 0.0
H1563 H 0.26039 0.35558 0.87249 0.0
H1564 H 0.36563 0.49754 0.66162 0.0
H1565 H 0.33576 0.52461 0.6568 0.0
H1566 H 0.3521 0.5222 0.61455 0.0
H1567 H 0.38186 0.4954 0.61917 0.0
H1568 H 0.34273 0.5681 0.64236 0.0
H1569 H 0.28256 0.51122 0.61685 0.0
H1570 H 0.30396 0.50118 0.62821 0.0
H1571 H 0.31119 0.50943 0.61138 0.0
C1572 C 0.36278 0.50267 0.65129 0.0
C1573 C 0.37621 0.4943 0.6408 0.0
C1574 C 0.34573 0.51813 0.64857 0.0
C1575 C 0.34161 0.52517 0.6353 0.0
C1576 C 0.35484 0.51674 0.62483 0.0
H1577 H 0.25033 0.61755 0.59552 0.0
H1578 H 0.27774 0.58831 0.60092 0.0
C1579 C 0.37196 0.50151 0.62753 0.0
C1580 C 0.32421 0.54212 0.63236 0.0
H1581 H 0.27475 0.55004 0.6158 0.0
C1582 C 0.32775 0.56417 0.63666 0.0
C1583 C 0.30491 0.53693 0.62474 0.0
C1584 C 0.30023 0.51339 0.62008 0.0
C1585 C 0.31269 0.58132 0.63332 0.0
C1586 C 0.2932 0.57614 0.62581 0.0
C1587 C 0.28966 0.55402 0.62154 0.0
C1588 C 0.27616 0.59339 0.62249 0.0
C1589 C 0.3182 0.60495 0.63755 0.0
C1590 C 0.26578 0.60558 0.63281 0.0
C1591 C 0.25039 0.62238 0.62977 0.0
C1592 C 0.24465 0.62715 0.61631 0.0
C1593 C 0.25444 0.61437 0.60598 0.0
C1594 C 0.27009 0.59766 0.60905 0.0
H1595 H 0.33641 0.60709 0.6394 0.0
H1596 H 0.31289 0.61722 0.62978 0.0
H1597 H 0.30932 0.60884 0.64707 0.0
H1598 H 0.26963 0.60213 0.64327 0.0
H1599 H 0.24291 0.63158 0.63802 0.0
H1600 H 0.41999 0.11582 0.11954 0.0
H1601 H 0.40326 0.15176 0.11402 0.0
H1602 H 0.36287 0.14857 0.14993 0.0
H1603 H 0.37945 0.11217 0.15557 0.0
H1604 H 0.33894 0.16027 0.12625 0.0
H1605 H 0.41506 0.21233 0.13193 0.0
H1606 H 0.41904 0.18848 0.12122 0.0
H1607 H 0.41293 0.18444 0.13879 0.0
C1608 C 0.40762 0.12269 0.12636 0.0
C1609 C 0.40111 0.111 0.13804 0.0
C1610 C 0.39819 0.14338 0.1232 0.0
C1611 C 0.3821 0.15302 0.13167 0.0
C1612 C 0.37541 0.14147 0.14331 0.0
H1613 H 0.30249 0.27469 0.12113 0.0
H1614 H 0.31866 0.24 0.12981 0.0
C1615 C 0.38492 0.12069 0.14652 0.0
C1616 C 0.37177 0.17475 0.12795 0.0
H1617 H 0.38437 0.22902 0.12027 0.0
C1618 C 0.34879 0.17538 0.12509 0.0
C1619 C 0.38469 0.19442 0.1264 0.0
C1620 C 0.40926 0.19501 0.12987 0.0
C1621 C 0.33852 0.19496 0.12026 0.0
C1622 C 0.35154 0.21452 0.11847 0.0
C1623 C 0.37444 0.21398 0.12157 0.0
C1624 C 0.34178 0.23567 0.11325 0.0
C1625 C 0.314 0.19431 0.11667 0.0
C1626 C 0.3498 0.2451 0.10122 0.0
C1627 C 0.34068 0.26505 0.09627 0.0
C1628 C 0.32346 0.27597 0.10331 0.0
C1629 C 0.31564 0.26661 0.11542 0.0
C1630 C 0.32478 0.2467 0.12037 0.0
H1631 H 0.30786 0.17689 0.1154 0.0
H1632 H 0.30419 0.20222 0.12487 0.0
H1633 H 0.31072 0.20371 0.10722 0.0
H1634 H 0.36301 0.23692 0.09561 0.0
H1635 H 0.34712 0.27188 0.08694 0.0
H1636 H 0.13365 0.16993 0.36987 0.0
H1637 H 0.09795 0.15261 0.36447 0.0
H1638 H 0.10241 0.11186 0.4002 0.0
H1639 H 0.13858 0.12904 0.40571 0.0
H1640 H 0.09089 0.08794 0.37655 0.0
H1641 H 0.03736 0.16291 0.38262 0.0
H1642 H 0.06099 0.16758 0.37183 0.0
H1643 H 0.06537 0.16132 0.38936 0.0
C1644 C 0.12711 0.15737 0.37668 0.0
C1645 C 0.13909 0.15092 0.38827 0.0
C1646 C 0.10654 0.14759 0.37359 0.0
C1647 C 0.09733 0.13121 0.38204 0.0
C1648 C 0.10917 0.12461 0.3936 0.0
H1649 H 0.97654 0.05015 0.37077 0.0
H1650 H 0.01109 0.06629 0.37971 0.0
C1651 C 0.12981 0.13447 0.39674 0.0
C1652 C 0.07579 0.12048 0.37836 0.0
H1653 H 0.02133 0.13215 0.37065 0.0
C1654 C 0.07559 0.09751 0.37543 0.0
C1655 C 0.05587 0.13303 0.37686 0.0
C1656 C 0.05478 0.15753 0.38045 0.0
C1657 C 0.05622 0.08694 0.37052 0.0
C1658 C 0.03645 0.09963 0.36872 0.0
C1659 C 0.03653 0.12248 0.37195 0.0
C1660 C 0.01558 0.08964 0.36327 0.0
C1661 C 0.05731 0.06247 0.36685 0.0
C1662 C 0.00636 0.0977 0.3512 0.0
C1663 C 0.98653 0.08859 0.3461 0.0
C1664 C 0.97549 0.07132 0.35303 0.0
C1665 C 0.98471 0.06334 0.36515 0.0
C1666 C 0.00453 0.07247 0.37024 0.0
H1667 H 0.07484 0.05656 0.36576 0.0
H1668 H 0.04924 0.05248 0.37492 0.0
H1669 H 0.04825 0.0592 0.35728 0.0
H1670 H 0.01457 0.11102 0.34569 0.0
H1671 H 0.97981 0.09515 0.33677 0.0
H1672 H 0.08194 0.88618 0.61939 0.0
H1673 H 0.09953 0.85093 0.61319 0.0
H1674 H 0.14009 0.8534 0.64907 0.0
H1675 H 0.12228 0.88876 0.65553 0.0
H1676 H 0.14428 0.84319 0.60814 0.0
H1677 H 0.11425 0.79007 0.65038 0.0
H1678 H 0.1022 0.81706 0.64664 0.0
H1679 H 0.12851 0.81521 0.65533 0.0
C1680 C 0.09451 0.87927 0.62605 0.0
C1681 C 0.10066 0.89041 0.63799 0.0
C1682 C 0.10456 0.85906 0.62246 0.0
C1683 C 0.12096 0.84939 0.63071 0.0
C1684 C 0.12717 0.86034 0.64267 0.0
H1685 H 0.19957 0.72749 0.62025 0.0
H1686 H 0.18403 0.7629 0.62837 0.0
C1687 C 0.11704 0.88062 0.64631 0.0
C1688 C 0.13196 0.82826 0.62643 0.0
H1689 H 0.13953 0.77343 0.63504 0.0
C1690 C 0.14324 0.82794 0.61402 0.0
C1691 C 0.13065 0.80839 0.63414 0.0
C1692 C 0.1181 0.80752 0.64731 0.0
C1693 C 0.15325 0.80832 0.60911 0.0
C1694 C 0.15164 0.78837 0.6167 0.0
C1695 C 0.14069 0.78875 0.62922 0.0
C1696 C 0.16098 0.76688 0.61174 0.0
C1697 C 0.16571 0.80921 0.5959 0.0
C1698 C 0.15299 0.75722 0.59977 0.0
C1699 C 0.16185 0.73699 0.5951 0.0
C1700 C 0.17879 0.72599 0.60235 0.0
C1701 C 0.18659 0.73559 0.6144 0.0
C1702 C 0.17771 0.7558 0.61907 0.0
H1703 H 0.17049 0.82659 0.59319 0.0
H1704 H 0.18107 0.79877 0.59628 0.0
H1705 H 0.15478 0.80262 0.58778 0.0
H1706 H 0.13978 0.76526 0.59408 0.0
H1707 H 0.15538 0.72995 0.58583 0.0
H1708 H 0.51275 0.95587 0.86083 0.0
H1709 H 0.47796 0.93938 0.86908 0.0
H1710 H 0.49707 0.8757 0.8521 0.0
H1711 H 0.53119 0.89267 0.84304 0.0
H1712 H 0.45612 0.88118 0.84753 0.0
H1713 H 0.46753 0.90245 0.90113 0.0
H1714 H 0.46772 0.9274 0.89116 0.0
H1715 H 0.48936 0.9067 0.88888 0.0
C1716 C 0.50947 0.93835 0.85886 0.0
C1717 C 0.52461 0.92552 0.85131 0.0
C1718 C 0.4897 0.92884 0.86373 0.0
C1719 C 0.48506 0.90606 0.8616 0.0
C1720 C 0.50023 0.89326 0.85397 0.0
H1721 H 0.37557 0.83976 0.9051 0.0
H1722 H 0.41219 0.85442 0.89815 0.0
C1723 C 0.51972 0.90295 0.84878 0.0
C1724 C 0.46397 0.89585 0.86679 0.0
H1725 H 0.43016 0.89241 0.89448 0.0
C1726 C 0.45063 0.88345 0.85785 0.0
C1727 C 0.45686 0.89824 0.88035 0.0
C1728 C 0.47128 0.90919 0.89094 0.0
C1729 C 0.43027 0.87391 0.86195 0.0
C1730 C 0.42229 0.87788 0.87519 0.0
C1731 C 0.43592 0.88972 0.88425 0.0
C1732 C 0.39994 0.86986 0.87981 0.0
C1733 C 0.41794 0.85921 0.85205 0.0
C1734 C 0.38068 0.87422 0.87211 0.0
C1735 C 0.36001 0.86531 0.87588 0.0
C1736 C 0.35794 0.85271 0.88773 0.0
C1737 C 0.3768 0.84951 0.89593 0.0
C1738 C 0.39769 0.85785 0.89194 0.0
H1739 H 0.42963 0.85145 0.84472 0.0
H1740 H 0.40861 0.84565 0.85723 0.0
H1741 H 0.40593 0.86955 0.84623 0.0
H1742 H 0.38166 0.88425 0.86305 0.0
H1743 H 0.3456 0.86821 0.86948 0.0
H1744 H 0.34618 0.72988 0.41949 0.0
H1745 H 0.36187 0.7647 0.41053 0.0
H1746 H 0.3167 0.76124 0.37672 0.0
H1747 H 0.30074 0.72663 0.38569 0.0
H1748 H 0.38267 0.77155 0.38548 0.0
H1749 H 0.30708 0.82495 0.39078 0.0
H1750 H 0.30988 0.79835 0.39923 0.0
H1751 H 0.30286 0.79936 0.38164 0.0
C1752 C 0.33948 0.73662 0.4102 0.0
C1753 C 0.32215 0.72556 0.40334 0.0
C1754 C 0.34849 0.75648 0.40508 0.0
C1755 C 0.34025 0.76573 0.39305 0.0
C1756 C 0.32301 0.75466 0.38615 0.0
H1757 H 0.37894 0.88827 0.34998 0.0
H1758 H 0.36188 0.85217 0.35578 0.0
C1759 C 0.31399 0.73481 0.39126 0.0
C1760 C 0.35014 0.78662 0.38757 0.0
H1761 H 0.33823 0.84101 0.37973 0.0
C1762 C 0.37295 0.78674 0.38422 0.0
C1763 C 0.33739 0.80636 0.38583 0.0
C1764 C 0.31299 0.80743 0.38965 0.0
C1765 C 0.38339 0.80608 0.37923 0.0
C1766 C 0.37076 0.82596 0.37776 0.0
C1767 C 0.34785 0.82573 0.38083 0.0
C1768 C 0.38138 0.84748 0.37393 0.0
C1769 C 0.40784 0.80504 0.3755 0.0
C1770 C 0.3978 0.85689 0.38226 0.0
C1771 C 0.40751 0.87741 0.37901 0.0
C1772 C 0.40096 0.88915 0.36736 0.0
C1773 C 0.38446 0.87969 0.35899 0.0
C1774 C 0.37466 0.85908 0.3623 0.0
H1775 H 0.41327 0.78761 0.37342 0.0
H1776 H 0.41142 0.81549 0.36651 0.0
H1777 H 0.41798 0.81146 0.38403 0.0
H1778 H 0.40292 0.84846 0.39142 0.0
H1779 H 0.42011 0.88411 0.38573 0.0
H1780 H 0.36367 0.16642 0.63726 0.0
H1781 H 0.3995 0.1497 0.64312 0.0
H1782 H 0.39946 0.11276 0.60584 0.0
H1783 H 0.36325 0.12936 0.59984 0.0
H1784 H 0.41026 0.08689 0.62917 0.0
H1785 H 0.46083 0.16452 0.62668 0.0
H1786 H 0.43621 0.16699 0.63693 0.0
H1787 H 0.43344 0.16226 0.61912 0.0
C1788 C 0.37121 0.15481 0.63023 0.0
C1789 C 0.36049 0.14932 0.61803 0.0
C1790 C 0.39182 0.14536 0.63359 0.0
C1791 C 0.40233 0.13027 0.62483 0.0
C1792 C 0.39169 0.12452 0.6127 0.0
H1793 H 0.5251 0.05206 0.63504 0.0
H1794 H 0.49028 0.06799 0.62637 0.0
C1795 C 0.37101 0.13404 0.60928 0.0
C1796 C 0.42408 0.1201 0.62866 0.0
H1797 H 0.47778 0.13317 0.63743 0.0
C1798 C 0.42511 0.09693 0.63084 0.0
C1799 C 0.4434 0.13328 0.63087 0.0
C1800 C 0.44356 0.15812 0.62817 0.0
C1801 C 0.44473 0.08668 0.63564 0.0
C1802 C 0.46395 0.09993 0.63807 0.0
C1803 C 0.46301 0.12305 0.63564 0.0
C1804 C 0.48514 0.09022 0.64329 0.0
C1805 C 0.44443 0.0619 0.63852 0.0
C1806 C 0.4942 0.09783 0.65552 0.0
C1807 C 0.51424 0.08889 0.66045 0.0
C1808 C 0.52564 0.07221 0.65321 0.0
C1809 C 0.51663 0.06476 0.64091 0.0
C1810 C 0.49665 0.07376 0.63597 0.0
H1811 H 0.4271 0.0554 0.63951 0.0
H1812 H 0.4526 0.05289 0.63008 0.0
H1813 H 0.45375 0.05801 0.64791 0.0
H1814 H 0.48567 0.11061 0.6613 0.0
H1815 H 0.52078 0.09503 0.66993 0.0
H1816 H 0.12317 0.11052 0.85218 0.0
H1817 H 0.14102 0.1458 0.85886 0.0
H1818 H 0.09683 0.1504 0.89306 0.0
H1819 H 0.07916 0.11531 0.88665 0.0
H1820 H 0.12241 0.18872 0.86265 0.0
H1821 H 0.1586 0.15639 0.91025 0.0
H1822 H 0.14791 0.1382 0.89724 0.0
H1823 H 0.12905 0.15164 0.90881 0.0
C1824 C 0.11727 0.11903 0.86113 0.0
C1825 C 0.09987 0.10988 0.86894 0.0
C1826 C 0.12749 0.13919 0.86493 0.0
C1827 C 0.12055 0.15048 0.87662 0.0
C1828 C 0.10283 0.1417 0.8842 0.0
H1829 H 0.15269 0.27213 0.91964 0.0
H1830 H 0.13678 0.23701 0.91125 0.0
C1831 C 0.09268 0.12162 0.88046 0.0
C1832 C 0.13155 0.17158 0.88091 0.0
H1833 H 0.15875 0.19596 0.90739 0.0
C1834 C 0.13055 0.19028 0.87237 0.0
C1835 C 0.14215 0.17358 0.89361 0.0
C1836 C 0.14472 0.15383 0.90296 0.0
C1837 C 0.13923 0.21111 0.87638 0.0
C1838 C 0.14947 0.21316 0.88918 0.0
C1839 C 0.15076 0.19438 0.89762 0.0
C1840 C 0.15892 0.23466 0.89406 0.0
C1841 C 0.13676 0.23089 0.86705 0.0
C1842 C 0.1768 0.24486 0.88727 0.0
C1843 C 0.18591 0.2649 0.89204 0.0
C1844 C 0.1774 0.27506 0.90374 0.0
C1845 C 0.15959 0.26474 0.91059 0.0
C1846 C 0.15049 0.24468 0.90581 0.0
H1847 H 0.1238 0.22792 0.85923 0.0
H1848 H 0.13229 0.24622 0.87276 0.0
H1849 H 0.15291 0.23394 0.86187 0.0
H1850 H 0.18388 0.2372 0.87835 0.0
H1851 H 0.19969 0.27237 0.88657 0.0
H1852 H 0.13269 0.82938 0.1356 0.0
H1853 H 0.09697 0.84669 0.14096 0.0
H1854 H 0.10125 0.88704 0.10506 0.0
H1855 H 0.13745 0.86988 0.0996 0.0
H1856 H 0.09011 0.91131 0.12848 0.0
H1857 H 0.03609 0.83654 0.12332 0.0
H1858 H 0.05979 0.83191 0.13406 0.0
H1859 H 0.06404 0.83778 0.11647 0.0
C1860 C 0.12608 0.84182 0.12874 0.0
C1861 C 0.13804 0.8482 0.11713 0.0
C1862 C 0.10551 0.8516 0.1318 0.0
C1863 C 0.09626 0.8679 0.12331 0.0
C1864 C 0.10803 0.87435 0.11169 0.0
H1865 H 0.97615 0.94987 0.13515 0.0
H1866 H 0.01033 0.93337 0.12595 0.0
C1867 C 0.12869 0.8645 0.10858 0.0
C1868 C 0.07482 0.87881 0.12704 0.0
H1869 H 0.0205 0.86757 0.13529 0.0
C1870 C 0.07479 0.90183 0.1298 0.0
C1871 C 0.05488 0.86639 0.12879 0.0
C1872 C 0.05357 0.84183 0.12538 0.0
C1873 C 0.0556 0.9126 0.13479 0.0
C1874 C 0.03582 0.90005 0.13687 0.0
C1875 C 0.03571 0.87713 0.13379 0.0
C1876 C 0.01516 0.91024 0.14246 0.0
C1877 C 0.0569 0.93713 0.13828 0.0
C1878 C 0.00625 0.90242 0.15467 0.0
C1879 C 0.98663 0.91174 0.15993 0.0
C1880 C 0.97549 0.92898 0.15302 0.0
C1881 C 0.98441 0.93671 0.14076 0.0
C1882 C 0.00401 0.92738 0.13551 0.0
H1883 H 0.07448 0.94298 0.13916 0.0
H1884 H 0.04867 0.94701 0.13022 0.0
H1885 H 0.04811 0.94064 0.1479 0.0
H1886 H 0.01454 0.88914 0.16017 0.0
H1887 H 0.98014 0.90536 0.16937 0.0
H1888 H 0.6523 0.72836 0.91901 0.0
H1889 H 0.6362 0.7632 0.91035 0.0
H1890 H 0.68347 0.76274 0.87754 0.0
H1891 H 0.69948 0.72781 0.88604 0.0
H1892 H 0.65779 0.80424 0.90634 0.0
H1893 H 0.62356 0.77146 0.8582 0.0
H1894 H 0.63212 0.75337 0.87183 0.0
H1895 H 0.65271 0.76575 0.86095 0.0
C1896 C 0.65921 0.73563 0.90992 0.0
C1897 C 0.67712 0.7253 0.90319 0.0
C1898 C 0.64999 0.75553 0.90498 0.0
C1899 C 0.65841 0.7654 0.89318 0.0
C1900 C 0.6764 0.75519 0.8865 0.0
H1901 H 0.6219 0.88932 0.85115 0.0
H1902 H 0.63995 0.85409 0.85777 0.0
C1903 C 0.68562 0.7353 0.89143 0.0
C1904 C 0.64885 0.78676 0.88817 0.0
H1905 H 0.62167 0.81066 0.86149 0.0
C1906 C 0.64986 0.80563 0.89654 0.0
C1907 C 0.63867 0.78859 0.87533 0.0
C1908 C 0.63648 0.7687 0.86607 0.0
C1909 C 0.64102 0.8263 0.89244 0.0
C1910 C 0.63048 0.82805 0.87972 0.0
C1911 C 0.62977 0.80928 0.87123 0.0
C1912 C 0.61921 0.84897 0.87536 0.0
C1913 C 0.64325 0.84615 0.90174 0.0
C1914 C 0.60125 0.85746 0.88285 0.0
C1915 C 0.59097 0.8775 0.87915 0.0
C1916 C 0.5983 0.88951 0.86776 0.0
C1917 C 0.61589 0.8806 0.86 0.0
C1918 C 0.62622 0.86048 0.86376 0.0
H1919 H 0.65705 0.8438 0.90911 0.0
H1920 H 0.64636 0.86176 0.89598 0.0
H1921 H 0.62748 0.84824 0.9075 0.0
H1922 H 0.59519 0.84859 0.89164 0.0
H1923 H 0.57731 0.88361 0.88529 0.0
H1924 H 0.02395 0.94824 0.63652 0.0
H1925 H 0.98895 0.93225 0.62809 0.0
H1926 H 0.98777 0.88613 0.66148 0.0
H1927 H 0.02269 0.90216 0.67005 0.0
H1928 H 0.97921 0.8878 0.62057 0.0
H1929 H 0.92587 0.91582 0.66308 0.0
H1930 H 0.95345 0.92707 0.66008 0.0
H1931 H 0.9502 0.90034 0.66815 0.0
C1932 C 0.01621 0.93474 0.6421 0.0
C1933 C 0.02601 0.92656 0.65401 0.0
C1934 C 0.99624 0.92559 0.63724 0.0
C1935 C 0.98559 0.90821 0.64425 0.0
C1936 C 0.99548 0.89982 0.65605 0.0
H1937 H 0.86773 0.82764 0.63579 0.0
H1938 H 0.90311 0.8451 0.6418 0.0
C1939 C 0.01548 0.90894 0.66091 0.0
C1940 C 0.96423 0.89874 0.63916 0.0
H1941 H 0.9096 0.89009 0.64772 0.0
C1942 C 0.96393 0.88842 0.62644 0.0
C1943 C 0.94431 0.89968 0.64681 0.0
C1944 C 0.94332 0.9115 0.66023 0.0
C1945 C 0.9444 0.87832 0.62139 0.0
C1946 C 0.92459 0.8789 0.62918 0.0
C1947 C 0.92482 0.8896 0.64177 0.0
C1948 C 0.90362 0.8677 0.62481 0.0
C1949 C 0.9453 0.86648 0.60799 0.0
C1950 C 0.89212 0.87452 0.61316 0.0
C1951 C 0.87172 0.86449 0.60962 0.0
C1952 C 0.86241 0.84759 0.61775 0.0
C1953 C 0.87424 0.84066 0.6293 0.0
C1954 C 0.89453 0.85063 0.63278 0.0
H1955 H 0.96277 0.86333 0.60469 0.0
H1956 H 0.93627 0.85027 0.60846 0.0
H1957 H 0.93703 0.87702 0.60024 0.0
H1958 H 0.89865 0.88793 0.60696 0.0
H1959 H 0.86306 0.87031 0.60071 0.0
H1960 H 0.80252 0.27345 0.3867 0.0
H1961 H 0.81836 0.23848 0.37814 0.0
H1962 H 0.86534 0.23739 0.41109 0.0
H1963 H 0.84946 0.27229 0.4198 0.0
H1964 H 0.86258 0.22859 0.37022 0.0
H1965 H 0.83553 0.17559 0.41311 0.0
H1966 H 0.82428 0.20318 0.41015 0.0
H1967 H 0.8512 0.1999 0.41798 0.0
C1968 C 0.81619 0.26574 0.39215 0.0
C1969 C 0.82464 0.27555 0.40399 0.0
C1970 C 0.82524 0.24578 0.38722 0.0
C1971 C 0.84281 0.23516 0.39407 0.0
C1972 C 0.8515 0.24508 0.40578 0.0
H1973 H 0.92293 0.11715 0.38531 0.0
H1974 H 0.9057 0.15264 0.39131 0.0
C1975 C 0.84248 0.26507 0.41072 0.0
C1976 C 0.8521 0.21376 0.38894 0.0
H1977 H 0.86087 0.15918 0.39757 0.0
C1978 C 0.86209 0.21335 0.37614 0.0
C1979 C 0.85131 0.19389 0.39666 0.0
C1980 C 0.83982 0.19301 0.41019 0.0
C1981 C 0.87202 0.19377 0.37105 0.0
C1982 C 0.87162 0.17402 0.37889 0.0
C1983 C 0.86124 0.17436 0.39158 0.0
C1984 C 0.88271 0.15301 0.3745 0.0
C1985 C 0.88351 0.19454 0.35752 0.0
C1986 C 0.87561 0.1414 0.36295 0.0
C1987 C 0.88551 0.12094 0.35943 0.0
C1988 C 0.90256 0.11167 0.36747 0.0
C1989 C 0.90978 0.12362 0.3789 0.0
C1990 C 0.89995 0.14398 0.38237 0.0
H1991 H 0.88658 0.21199 0.35414 0.0
H1992 H 0.89973 0.18552 0.35788 0.0
H1993 H 0.87277 0.18622 0.34991 0.0
H1994 H 0.86207 0.14789 0.35684 0.0
H1995 H 0.87947 0.11218 0.3506 0.0
H1996 H 0.63376 0.17193 0.13547 0.0
H1997 H 0.5985 0.15436 0.14164 0.0
H1998 H 0.60219 0.11209 0.10655 0.0
H1999 H 0.6377 0.12979 0.10013 0.0
H2000 H 0.55894 0.13109 0.1115 0.0
H2001 H 0.59381 0.09087 0.15727 0.0
H2002 H 0.59884 0.12043 0.15642 0.0
H2003 H 0.61129 0.10222 0.14411 0.0
C2004 C 0.62718 0.15891 0.129 0.0
C2005 C 0.6388 0.15212 0.11735 0.0
C2006 C 0.607 0.14882 0.1326 0.0
C2007 C 0.59797 0.1316 0.12472 0.0
C2008 C 0.60901 0.12523 0.11284 0.0
H2009 H 0.47641 0.05202 0.1351 0.0
H2010 H 0.51114 0.06831 0.12651 0.0
C2011 C 0.62929 0.13537 0.10918 0.0
C2012 C 0.57708 0.12029 0.12906 0.0
H2013 H 0.55415 0.09095 0.15517 0.0
C2014 C 0.5579 0.12211 0.12098 0.0
C2015 C 0.57579 0.10861 0.14144 0.0
C2016 C 0.59607 0.10519 0.15027 0.0
C2017 C 0.53727 0.11319 0.12517 0.0
C2018 C 0.53592 0.10187 0.13767 0.0
C2019 C 0.55519 0.09975 0.14563 0.0
C2020 C 0.51467 0.09219 0.14275 0.0
C2021 C 0.51694 0.11653 0.11638 0.0
C2022 C 0.50536 0.09987 0.15488 0.0
C2023 C 0.48555 0.09052 0.15986 0.0
C2024 C 0.47478 0.07319 0.15282 0.0
C2025 C 0.48425 0.06541 0.14073 0.0
C2026 C 0.50402 0.07479 0.13575 0.0
H2027 H 0.51957 0.12997 0.10881 0.0
H2028 H 0.51331 0.10078 0.11089 0.0
H2029 H 0.50206 0.12079 0.12257 0.0
H2030 H 0.5134 0.11319 0.16048 0.0
H2031 H 0.47869 0.09686 0.1692 0.0
H2032 H 0.70093 0.2726 0.6203 0.0
H2033 H 0.68488 0.23783 0.62899 0.0
H2034 H 0.63722 0.23722 0.59638 0.0
H2035 H 0.6531 0.27216 0.58766 0.0
H2036 H 0.6184 0.22949 0.62235 0.0
H2037 H 0.69185 0.17473 0.61276 0.0
H2038 H 0.69765 0.19982 0.62209 0.0
H2039 H 0.6886 0.20175 0.60488 0.0
C2040 C 0.68709 0.26502 0.61493 0.0
C2041 C 0.67834 0.27507 0.60325 0.0
C2042 C 0.67802 0.24509 0.61988 0.0
C2043 C 0.66005 0.23479 0.61323 0.0
C2044 C 0.65116 0.24486 0.60162 0.0
H2045 H 0.57867 0.11741 0.62114 0.0
H2046 H 0.59579 0.15315 0.61551 0.0
C2047 C 0.66028 0.26477 0.59664 0.0
C2048 C 0.65019 0.21378 0.61855 0.0
H2049 H 0.66154 0.15867 0.62462 0.0
C2050 C 0.62782 0.214 0.62285 0.0
C2051 C 0.66258 0.19365 0.61929 0.0
C2052 C 0.68645 0.19229 0.61442 0.0
C2053 C 0.61749 0.1946 0.62784 0.0
C2054 C 0.62974 0.17436 0.62833 0.0
C2055 C 0.65222 0.17423 0.62428 0.0
C2056 C 0.61906 0.15288 0.63219 0.0
C2057 C 0.59357 0.19595 0.63262 0.0
C2058 C 0.6267 0.14062 0.64336 0.0
C2059 C 0.61691 0.12 0.64664 0.0
C2060 C 0.59952 0.11117 0.63869 0.0
C2061 C 0.592 0.12361 0.62751 0.0
C2062 C 0.60168 0.14417 0.62431 0.0
H2063 H 0.58873 0.21339 0.63516 0.0
H2064 H 0.58232 0.19 0.62448 0.0
H2065 H 0.59088 0.18522 0.64161 0.0
H2066 H 0.64022 0.147 0.64952 0.0
H2067 H 0.62319 0.11086 0.65527 0.0
H2068 H 0.47703 0.94862 0.36998 0.0
H2069 H 0.51204 0.93278 0.37852 0.0
H2070 H 0.51363 0.88662 0.34516 0.0
H2071 H 0.47874 0.90254 0.33647 0.0
H2072 H 0.52189 0.88864 0.38616 0.0
H2073 H 0.57544 0.91616 0.34364 0.0
H2074 H 0.54778 0.92733 0.34648 0.0
H2075 H 0.55123 0.90052 0.33854 0.0
C2076 C 0.48487 0.93515 0.36443 0.0
C2077 C 0.4752 0.92693 0.3525 0.0
C2078 C 0.50485 0.92609 0.36934 0.0
C2079 C 0.51561 0.90875 0.36238 0.0
C2080 C 0.50584 0.9003 0.35055 0.0
H2081 H 0.63318 0.82792 0.37124 0.0
H2082 H 0.59784 0.84542 0.36515 0.0
C2083 C 0.48586 0.90935 0.34563 0.0
C2084 C 0.53694 0.89932 0.36754 0.0
H2085 H 0.59156 0.89038 0.35906 0.0
C2086 C 0.53719 0.88915 0.3803 0.0
C2087 C 0.55689 0.90012 0.3599 0.0
C2088 C 0.55797 0.9118 0.34643 0.0
C2089 C 0.55667 0.87904 0.38541 0.0
C2090 C 0.57649 0.87945 0.37763 0.0
C2091 C 0.57633 0.89001 0.36499 0.0
C2092 C 0.5974 0.86821 0.38206 0.0
C2093 C 0.55571 0.86738 0.39887 0.0
C2094 C 0.60891 0.87511 0.39368 0.0
C2095 C 0.62927 0.86505 0.39726 0.0
C2096 C 0.63854 0.84804 0.3892 0.0
C2097 C 0.6267 0.84102 0.37768 0.0
C2098 C 0.60643 0.85102 0.37416 0.0
H2099 H 0.53821 0.86434 0.40218 0.0
H2100 H 0.56467 0.85112 0.39848 0.0
H2101 H 0.564 0.87798 0.40657 0.0
H2102 H 0.60243 0.88861 0.39982 0.0
H2103 H 0.63796 0.87094 0.40615 0.0
H2104 H 0.80097 0.72768 0.12022 0.0
H2105 H 0.81766 0.76192 0.12915 0.0
H2106 H 0.86416 0.76331 0.09596 0.0
H2107 H 0.84772 0.72877 0.08703 0.0
H2108 H 0.88417 0.77047 0.12127 0.0
H2109 H 0.81004 0.82532 0.11427 0.0
H2110 H 0.80476 0.80013 0.1236 0.0
H2111 H 0.81259 0.79842 0.10616 0.0
C2112 C 0.81469 0.73531 0.11477 0.0
C2113 C 0.82297 0.72558 0.10287 0.0
C2114 C 0.82413 0.75495 0.11986 0.0
C2115 C 0.84193 0.76536 0.11311 0.0
C2116 C 0.85035 0.7556 0.10128 0.0
H2117 H 0.92328 0.88272 0.12129 0.0
H2118 H 0.90639 0.84692 0.11561 0.0
C2119 C 0.84091 0.73592 0.09618 0.0
C2120 C 0.85207 0.78616 0.11854 0.0
H2121 H 0.84084 0.84083 0.12596 0.0
C2122 C 0.87471 0.78586 0.12229 0.0
C2123 C 0.83964 0.80617 0.11997 0.0
C2124 C 0.81546 0.8077 0.11569 0.0
C2125 C 0.88527 0.80505 0.12741 0.0
C2126 C 0.87296 0.82516 0.1286 0.0
C2127 C 0.85022 0.82536 0.12509 0.0
C2128 C 0.88373 0.84653 0.13259 0.0
C2129 C 0.9095 0.80357 0.13158 0.0
C2130 C 0.87637 0.85846 0.14395 0.0
C2131 C 0.88598 0.87915 0.14724 0.0
C2132 C 0.90294 0.88838 0.13912 0.0
C2133 C 0.91028 0.87622 0.1278 0.0
C2134 C 0.90075 0.8556 0.12457 0.0
H2135 H 0.91448 0.78606 0.13384 0.0
H2136 H 0.92019 0.80967 0.12321 0.0
H2137 H 0.91286 0.81406 0.14058 0.0
H2138 H 0.86312 0.85181 0.15022 0.0
H2139 H 0.87986 0.88806 0.156 0.0
H2140 H 0.0125 0.04343 0.85919 0.0
H2141 H 0.9771 0.05947 0.86688 0.0
H2142 H 0.9994 0.12495 0.85436 0.0
H2143 H 0.0341 0.10854 0.84572 0.0
H2144 H 0.96641 0.08676 0.88513 0.0
H2145 H 0.94048 0.12601 0.83715 0.0
H2146 H 0.96428 0.10764 0.83819 0.0
H2147 H 0.96683 0.13673 0.84277 0.0
C2148 C 0.00965 0.06121 0.85794 0.0
C2149 C 0.02578 0.07472 0.85168 0.0
C2150 C 0.98947 0.0704 0.86239 0.0
C2151 C 0.98521 0.09342 0.86097 0.0
C2152 C 0.00177 0.10705 0.85512 0.0
H2153 H 0.87476 0.15665 0.90587 0.0
H2154 H 0.91132 0.14141 0.89936 0.0
C2155 C 0.02168 0.09771 0.85026 0.0
C2156 C 0.9636 0.10299 0.86581 0.0
H2157 H 0.91973 0.13619 0.85659 0.0
C2158 C 0.95613 0.09743 0.87883 0.0
C2159 C 0.94993 0.11673 0.85759 0.0
C2160 C 0.95567 0.12192 0.84311 0.0
C2161 C 0.93542 0.10496 0.88378 0.0
C2162 C 0.9222 0.11945 0.87576 0.0
C2163 C 0.92982 0.12522 0.86282 0.0
C2164 C 0.89998 0.12812 0.88021 0.0
C2165 C 0.92767 0.09655 0.89734 0.0
C2166 C 0.88147 0.12636 0.87154 0.0
C2167 C 0.86091 0.13576 0.87504 0.0
C2168 C 0.85819 0.14668 0.88744 0.0
C2169 C 0.8764 0.14798 0.89634 0.0
C2170 C 0.89724 0.13913 0.89264 0.0
H2171 H 0.93585 0.08046 0.90001 0.0
H2172 H 0.93224 0.10892 0.9052 0.0
H2173 H 0.90927 0.09406 0.89755 0.0
H2174 H 0.88299 0.11793 0.86192 0.0
H2175 H 0.84709 0.13453 0.86801 0.0
H2176 H 0.80219 0.77343 0.62111 0.0
H2177 H 0.81881 0.73905 0.63 0.0
H2178 H 0.86216 0.73525 0.59536 0.0
H2179 H 0.84588 0.76984 0.58651 0.0
H2180 H 0.82047 0.69666 0.6189 0.0
H2181 H 0.9061 0.72987 0.62659 0.0
H2182 H 0.88233 0.74779 0.62353 0.0
H2183 H 0.89587 0.7337 0.60975 0.0
C2184 C 0.8153 0.76531 0.61539 0.0
C2185 C 0.82282 0.77442 0.60314 0.0
C2186 C 0.82477 0.74565 0.62049 0.0
C2187 C 0.842 0.73478 0.61347 0.0
C2188 C 0.84925 0.74363 0.6011 0.0
H2189 H 0.91855 0.61426 0.61963 0.0
H2190 H 0.90102 0.64976 0.61392 0.0
C2191 C 0.83982 0.76332 0.59601 0.0
C2192 C 0.85206 0.71395 0.61893 0.0
H2193 H 0.90175 0.69033 0.62823 0.0
C2194 C 0.8382 0.69531 0.62107 0.0
C2195 C 0.87518 0.71227 0.62182 0.0
C2196 C 0.89072 0.73203 0.62044 0.0
C2197 C 0.84699 0.67479 0.62553 0.0
C2198 C 0.8702 0.67298 0.6281 0.0
C2199 C 0.88396 0.69175 0.62624 0.0
C2200 C 0.88078 0.65144 0.63194 0.0
C2201 C 0.83152 0.655 0.62698 0.0
C2202 C 0.87543 0.64064 0.6441 0.0
C2203 C 0.88546 0.62017 0.64744 0.0
C2204 C 0.90106 0.61017 0.63868 0.0
C2205 C 0.90655 0.62131 0.62662 0.0
C2206 C 0.89657 0.64169 0.62332 0.0
H2207 H 0.81511 0.65793 0.62202 0.0
H2208 H 0.83919 0.63973 0.62259 0.0
H2209 H 0.82843 0.65181 0.63783 0.0
H2210 H 0.86356 0.64808 0.65101 0.0
H2211 H 0.88091 0.61216 0.65683 0.0
H2212 H 0.63757 0.66765 0.86831 0.0
H2213 H 0.60228 0.65012 0.8622 0.0
H2214 H 0.60274 0.61279 0.89936 0.0
H2215 H 0.63821 0.63052 0.90572 0.0
H2216 H 0.59385 0.60481 0.85862 0.0
H2217 H 0.53986 0.64056 0.89881 0.0
H2218 H 0.56718 0.65169 0.89493 0.0
H2219 H 0.5646 0.62643 0.90459 0.0
C2220 C 0.63022 0.65581 0.87528 0.0
C2221 C 0.64084 0.65055 0.88755 0.0
C2222 C 0.60999 0.64577 0.87173 0.0
C2223 C 0.59974 0.63031 0.88036 0.0
C2224 C 0.61016 0.62498 0.89264 0.0
H2225 H 0.47711 0.55288 0.87047 0.0
H2226 H 0.51241 0.56862 0.87859 0.0
C2227 C 0.63051 0.63505 0.89623 0.0
C2228 C 0.57851 0.61942 0.87616 0.0
H2229 H 0.5231 0.6144 0.88408 0.0
C2230 C 0.57838 0.60689 0.86419 0.0
C2231 C 0.55836 0.62214 0.88345 0.0
C2232 C 0.55733 0.63607 0.89611 0.0
C2233 C 0.55867 0.59701 0.85932 0.0
C2234 C 0.53846 0.6 0.86649 0.0
C2235 C 0.53863 0.6122 0.87858 0.0
C2236 C 0.51696 0.59069 0.86155 0.0
C2237 C 0.55967 0.58323 0.8466 0.0
C2238 C 0.50766 0.59808 0.84934 0.0
C2239 C 0.48744 0.58916 0.84467 0.0
C2240 C 0.47615 0.5727 0.85215 0.0
C2241 C 0.48542 0.56548 0.86444 0.0
C2242 C 0.50557 0.57448 0.86912 0.0
H2243 H 0.57706 0.57808 0.84415 0.0
H2244 H 0.54913 0.56801 0.84751 0.0
H2245 H 0.5532 0.59332 0.83806 0.0
H2246 H 0.51601 0.61084 0.84344 0.0
H2247 H 0.48067 0.59514 0.83521 0.0
H2248 H 0.62268 0.38887 0.15597 0.0
H2249 H 0.64014 0.35302 0.15013 0.0
H2250 H 0.60097 0.3502 0.1137 0.0
H2251 H 0.58335 0.38564 0.11943 0.0
H2252 H 0.60101 0.31004 0.12857 0.0
H2253 H 0.68719 0.34243 0.12033 0.0
H2254 H 0.6746 0.3491 0.13627 0.0
H2255 H 0.66308 0.36058 0.12107 0.0
C2256 C 0.6178 0.38064 0.14671 0.0
C2257 C 0.60166 0.39028 0.13816 0.0
C2258 C 0.62788 0.36021 0.14335 0.0
C2259 C 0.62204 0.34909 0.13139 0.0
C2260 C 0.60579 0.35852 0.12295 0.0
H2261 H 0.65478 0.22993 0.08635 0.0
H2262 H 0.639 0.26469 0.09527 0.0
C2263 C 0.59576 0.37887 0.12626 0.0
C2264 C 0.63248 0.32746 0.1276 0.0
H2265 H 0.68174 0.30362 0.11768 0.0
C2266 C 0.61868 0.3086 0.12624 0.0
C2267 C 0.65554 0.32563 0.1246 0.0
C2268 C 0.67102 0.3455 0.12552 0.0
C2269 C 0.62727 0.28798 0.12188 0.0
C2270 C 0.65021 0.28628 0.11854 0.0
C2271 C 0.66414 0.30499 0.1202 0.0
C2272 C 0.65997 0.26533 0.11305 0.0
C2273 C 0.61172 0.26814 0.12101 0.0
C2274 C 0.67744 0.25449 0.11987 0.0
C2275 C 0.6866 0.23471 0.11474 0.0
C2276 C 0.67853 0.22547 0.10265 0.0
C2277 C 0.66127 0.23656 0.09572 0.0
C2278 C 0.65214 0.25634 0.10086 0.0
H2279 H 0.59665 0.27046 0.1274 0.0
H2280 H 0.60606 0.26611 0.11043 0.0
H2281 H 0.62032 0.25251 0.12413 0.0
H2282 H 0.68384 0.26121 0.12924 0.0
H2283 H 0.69992 0.2266 0.1203 0.0
H2284 H 0.86252 0.37068 0.40642 0.0
H2285 H 0.89766 0.38896 0.39992 0.0
H2286 H 0.89736 0.35288 0.36233 0.0
H2287 H 0.8624 0.33482 0.36857 0.0
H2288 H 0.93938 0.36998 0.39312 0.0
H2289 H 0.90437 0.41782 0.35019 0.0
H2290 H 0.88695 0.40493 0.36285 0.0
H2291 H 0.89837 0.38844 0.34934 0.0
C2292 C 0.8699 0.36667 0.39675 0.0
C2293 C 0.85944 0.35139 0.38799 0.0
C2294 C 0.88999 0.37713 0.39306 0.0
C2295 C 0.89989 0.37261 0.38052 0.0
C2296 C 0.88975 0.35704 0.37191 0.0
H2297 H 0.01938 0.40646 0.33623 0.0
H2298 H 0.98412 0.39106 0.34476 0.0
C2299 C 0.86975 0.34662 0.37556 0.0
C2300 C 0.92101 0.38376 0.37641 0.0
H2301 H 0.94417 0.41546 0.35139 0.0
C2302 C 0.94041 0.38014 0.38408 0.0
C2303 C 0.92231 0.39702 0.36462 0.0
C2304 C 0.90185 0.40249 0.35634 0.0
C2305 C 0.96123 0.38876 0.38 0.0
C2306 C 0.96258 0.40154 0.36803 0.0
C2307 C 0.94311 0.40552 0.36051 0.0
C2308 C 0.98408 0.41076 0.36304 0.0
C2309 C 0.98174 0.38354 0.38829 0.0
C2310 C 0.99561 0.42712 0.37042 0.0
C2311 C 0.01569 0.436 0.36555 0.0
C2312 C 0.02461 0.4287 0.3532 0.0
C2313 C 0.01297 0.41239 0.34579 0.0
C2314 C 0.99283 0.40359 0.35064 0.0
H2315 H 0.97872 0.36965 0.3955 0.0
H2316 H 0.99602 0.37899 0.38168 0.0
H2317 H 0.98657 0.39859 0.39414 0.0
H2318 H 0.98896 0.43316 0.37989 0.0
H2319 H 0.02421 0.4486 0.37148 0.0
H2320 H 0.88078 0.38774 0.84929 0.0
H2321 H 0.86333 0.35159 0.85445 0.0
H2322 H 0.90098 0.34784 0.89143 0.0
H2323 H 0.91861 0.38355 0.88636 0.0
H2324 H 0.90134 0.30797 0.87647 0.0
H2325 H 0.81494 0.34069 0.88328 0.0
H2326 H 0.82827 0.34735 0.86756 0.0
H2327 H 0.83912 0.35876 0.88296 0.0
C2328 C 0.88536 0.37922 0.85851 0.0
C2329 C 0.90104 0.3887 0.86743 0.0
C2330 C 0.87527 0.35861 0.86148 0.0
C2331 C 0.88064 0.34718 0.87342 0.0
C2332 C 0.89652 0.35641 0.88219 0.0
H2333 H 0.84564 0.22877 0.91827 0.0
H2334 H 0.86208 0.26309 0.9092 0.0
C2335 C 0.90657 0.37691 0.87926 0.0
C2336 C 0.86991 0.32554 0.87692 0.0
H2337 H 0.82013 0.3019 0.88605 0.0
C2338 C 0.88357 0.30661 0.8785 0.0
C2339 C 0.84671 0.32378 0.87953 0.0
C2340 C 0.83135 0.34372 0.87836 0.0
C2341 C 0.8747 0.28602 0.88273 0.0
C2342 C 0.85161 0.28442 0.88573 0.0
C2343 C 0.83784 0.30319 0.88381 0.0
C2344 C 0.84156 0.26362 0.89123 0.0
C2345 C 0.89013 0.26614 0.88388 0.0
C2346 C 0.82411 0.25283 0.88435 0.0
C2347 C 0.81456 0.2333 0.88957 0.0
C2348 C 0.8222 0.22425 0.90182 0.0
C2349 C 0.83947 0.23524 0.90878 0.0
C2350 C 0.84899 0.25478 0.90356 0.0
H2351 H 0.90537 0.26829 0.87761 0.0
H2352 H 0.89554 0.26428 0.89452 0.0
H2353 H 0.88156 0.25048 0.88079 0.0
H2354 H 0.81801 0.25944 0.87487 0.0
H2355 H 0.80124 0.22525 0.88398 0.0
H2356 H 0.02239 0.55168 0.13649 0.0
H2357 H 0.98752 0.56776 0.12799 0.0
H2358 H 0.98624 0.61392 0.16135 0.0
H2359 H 0.0211 0.59777 0.17 0.0
H2360 H 0.94527 0.59181 0.15668 0.0
H2361 H 0.97891 0.62856 0.10944 0.0
H2362 H 0.98503 0.59941 0.11186 0.0
H2363 H 0.99672 0.61978 0.12315 0.0
C2364 C 0.01475 0.56531 0.142 0.0
C2365 C 0.02453 0.5735 0.15391 0.0
C2366 C 0.99489 0.57457 0.13707 0.0
C2367 C 0.98447 0.59227 0.14391 0.0
C2368 C 0.99409 0.60036 0.15587 0.0
H2369 H 0.86556 0.67216 0.13617 0.0
H2370 H 0.90067 0.65446 0.14249 0.0
C2371 C 0.01399 0.59112 0.1608 0.0
C2372 C 0.96313 0.60183 0.13886 0.0
H2373 H 0.93959 0.62979 0.11236 0.0
C2374 C 0.94404 0.60015 0.14701 0.0
C2375 C 0.96152 0.61252 0.12617 0.0
C2376 C 0.98165 0.61539 0.11716 0.0
C2377 C 0.92336 0.60883 0.14281 0.0
C2378 C 0.92181 0.6199 0.13024 0.0
C2379 C 0.94081 0.62128 0.12198 0.0
C2380 C 0.90086 0.6311 0.12586 0.0
C2381 C 0.90327 0.60588 0.15185 0.0
C2382 C 0.88965 0.62441 0.11409 0.0
C2383 C 0.86945 0.63463 0.11035 0.0
C2384 C 0.8602 0.65179 0.11831 0.0
C2385 C 0.87194 0.65882 0.12986 0.0
C2386 C 0.89203 0.64866 0.13355 0.0
H2387 H 0.90562 0.59181 0.15902 0.0
H2388 H 0.90074 0.62137 0.15782 0.0
H2389 H 0.88789 0.60277 0.14586 0.0
H2390 H 0.89631 0.611 0.10795 0.0
H2391 H 0.86095 0.62886 0.10137 0.0
H2392 H 0.62153 0.6123 0.35072 0.0
H2393 H 0.63969 0.64748 0.35724 0.0
H2394 H 0.60295 0.64747 0.39459 0.0
H2395 H 0.58498 0.61246 0.38833 0.0
H2396 H 0.62063 0.68929 0.36386 0.0
H2397 H 0.66776 0.65434 0.40709 0.0
H2398 H 0.65505 0.6369 0.39437 0.0
H2399 H 0.63836 0.64841 0.40776 0.0
C2400 C 0.61734 0.61976 0.36033 0.0
C2401 C 0.60191 0.60936 0.36903 0.0
C2402 C 0.62773 0.63987 0.36403 0.0
C2403 C 0.623 0.64986 0.37652 0.0
C2404 C 0.60727 0.6398 0.38506 0.0
H2405 H 0.65657 0.7693 0.42085 0.0
H2406 H 0.64134 0.73398 0.41231 0.0
C2407 C 0.59691 0.61977 0.3814 0.0
C2408 C 0.63414 0.67096 0.38066 0.0
H2409 H 0.6656 0.69413 0.40578 0.0
C2410 C 0.63067 0.69033 0.37294 0.0
C2411 C 0.64725 0.67227 0.39251 0.0
C2412 C 0.65253 0.65183 0.40085 0.0
C2413 C 0.6393 0.71114 0.37702 0.0
C2414 C 0.65195 0.7125 0.38904 0.0
C2415 C 0.65577 0.69306 0.39662 0.0
C2416 C 0.66113 0.734 0.39407 0.0
C2417 C 0.63422 0.73163 0.36869 0.0
C2418 C 0.6775 0.74557 0.38671 0.0
C2419 C 0.68628 0.76569 0.39159 0.0
C2420 C 0.67887 0.7746 0.40392 0.0
C2421 C 0.66259 0.7629 0.4113 0.0
C2422 C 0.65388 0.74273 0.40645 0.0
H2423 H 0.62037 0.72863 0.36145 0.0
H2424 H 0.62969 0.74597 0.37525 0.0
H2425 H 0.64934 0.73636 0.36286 0.0
H2426 H 0.68362 0.73893 0.37725 0.0
H2427 H 0.69887 0.77426 0.38568 0.0
H2428 H 0.6379 0.36998 0.59991 0.0
H2429 H 0.60172 0.3871 0.6054 0.0
H2430 H 0.5984 0.34809 0.64187 0.0
H2431 H 0.63413 0.33078 0.63647 0.0
H2432 H 0.55834 0.34829 0.62712 0.0
H2433 H 0.59119 0.4344 0.63491 0.0
H2434 H 0.59763 0.42167 0.61897 0.0
H2435 H 0.60925 0.41022 0.63416 0.0
C2436 C 0.62946 0.36502 0.60908 0.0
C2437 C 0.63908 0.34908 0.61777 0.0
C2438 C 0.60884 0.37492 0.61224 0.0
C2439 C 0.59752 0.36909 0.62414 0.0
C2440 C 0.60687 0.35291 0.63266 0.0
H2441 H 0.47885 0.40308 0.6694 0.0
H2442 H 0.51328 0.38675 0.66034 0.0
C2443 C 0.62739 0.34306 0.62955 0.0
C2444 C 0.57592 0.37969 0.62788 0.0
H2445 H 0.5524 0.42917 0.63766 0.0
C2446 C 0.557 0.36599 0.62937 0.0
C2447 C 0.57421 0.40279 0.63078 0.0
C2448 C 0.59415 0.41818 0.62974 0.0
C2449 C 0.53645 0.37473 0.63377 0.0
C2450 C 0.53489 0.39773 0.63702 0.0
C2451 C 0.55366 0.41153 0.63522 0.0
C2452 C 0.51406 0.40769 0.64255 0.0
C2453 C 0.51656 0.35929 0.63478 0.0
C2454 C 0.5034 0.42532 0.63577 0.0
C2455 C 0.48383 0.4348 0.64098 0.0
C2456 C 0.47461 0.4269 0.65312 0.0
C2457 C 0.48547 0.40945 0.65999 0.0
C2458 C 0.50506 0.4 0.65478 0.0
H2459 H 0.51871 0.34418 0.6284 0.0
H2460 H 0.51467 0.35368 0.64537 0.0
H2461 H 0.50091 0.36794 0.63173 0.0
H2462 H 0.51012 0.43161 0.62637 0.0
H2463 H 0.4759 0.44825 0.63546 0.0
H2464 H 0.08069 0.3849 0.38658 0.0
H2465 H 0.09796 0.34917 0.39207 0.0
H2466 H 0.13663 0.35199 0.35546 0.0
H2467 H 0.11956 0.38815 0.34987 0.0
H2468 H 0.09794 0.30892 0.37742 0.0
H2469 H 0.18414 0.34171 0.38494 0.0
H2470 H 0.15996 0.35978 0.38422 0.0
H2471 H 0.17133 0.34814 0.36902 0.0
C2472 C 0.09289 0.37805 0.37965 0.0
C2473 C 0.09883 0.38959 0.3678 0.0
C2474 C 0.10271 0.35753 0.38282 0.0
C2475 C 0.11879 0.34805 0.37428 0.0
C2476 C 0.12453 0.35922 0.36232 0.0
H2477 H 0.19812 0.22656 0.38487 0.0
H2478 H 0.18122 0.26085 0.37607 0.0
C2479 C 0.11466 0.37982 0.3591 0.0
C2480 C 0.12937 0.32647 0.37806 0.0
H2481 H 0.17896 0.30288 0.38761 0.0
C2482 C 0.11567 0.30756 0.3796 0.0
C2483 C 0.1525 0.32474 0.38088 0.0
C2484 C 0.16789 0.34467 0.3798 0.0
C2485 C 0.12446 0.28699 0.38393 0.0
C2486 C 0.1475 0.28539 0.38706 0.0
C2487 C 0.16129 0.30417 0.38525 0.0
C2488 C 0.15757 0.26448 0.39242 0.0
C2489 C 0.10902 0.26709 0.38497 0.0
C2490 C 0.1501 0.25526 0.40464 0.0
C2491 C 0.15971 0.23562 0.40969 0.0
C2492 C 0.17708 0.22493 0.40266 0.0
C2493 C 0.18473 0.23436 0.39052 0.0
C2494 C 0.1751 0.25397 0.38547 0.0
H2495 H 0.09378 0.26932 0.3787 0.0
H2496 H 0.1176 0.25148 0.3818 0.0
H2497 H 0.10361 0.26509 0.39559 0.0
H2498 H 0.13694 0.26336 0.41033 0.0
H2499 H 0.15353 0.22884 0.4191 0.0
H2500 H 0.34577 0.37216 0.13525 0.0
H2501 H 0.38157 0.38916 0.14138 0.0
H2502 H 0.41349 0.35422 0.10851 0.0
H2503 H 0.3772 0.33862 0.1018 0.0
H2504 H 0.41648 0.37149 0.15041 0.0
H2505 H 0.44146 0.4128 0.1029 0.0
H2506 H 0.41391 0.40124 0.10528 0.0
H2507 H 0.43694 0.38347 0.10046 0.0
C2508 C 0.3604 0.36858 0.12918 0.0
C2509 C 0.35882 0.35438 0.11798 0.0
C2510 C 0.38088 0.37817 0.13271 0.0
C2511 C 0.40037 0.37329 0.12533 0.0
C2512 C 0.39872 0.35895 0.11412 0.0
H2513 H 0.53143 0.3934 0.16333 0.0
H2514 H 0.49645 0.37744 0.15482 0.0
C2515 C 0.37803 0.3499 0.11033 0.0
C2516 C 0.42241 0.38216 0.12997 0.0
H2517 H 0.4699 0.40888 0.1196 0.0
C2518 C 0.42804 0.37985 0.14366 0.0
C2519 C 0.43754 0.39329 0.12127 0.0
C2520 C 0.43205 0.39806 0.1067 0.0
C2521 C 0.44811 0.38842 0.14889 0.0
C2522 C 0.4637 0.39861 0.14007 0.0
C2523 C 0.45814 0.40086 0.12637 0.0
C2524 C 0.48546 0.40782 0.14489 0.0
C2525 C 0.45187 0.38712 0.16391 0.0
C2526 C 0.49159 0.42986 0.14164 0.0
C2527 C 0.51191 0.43873 0.14613 0.0
C2528 C 0.52636 0.42588 0.15416 0.0
C2529 C 0.52039 0.40379 0.15735 0.0
C2530 C 0.50031 0.39472 0.15257 0.0
H2531 H 0.4358 0.38578 0.16948 0.0
H2532 H 0.46184 0.37197 0.16627 0.0
H2533 H 0.46099 0.40203 0.1677 0.0
H2534 H 0.48055 0.44034 0.13571 0.0
H2535 H 0.51613 0.45579 0.14349 0.0
H2536 H 0.30085 0.77272 0.88537 0.0
H2537 H 0.31638 0.73745 0.87698 0.0
H2538 H 0.36261 0.73588 0.91032 0.0
H2539 H 0.34701 0.77098 0.91885 0.0
H2540 H 0.36042 0.72689 0.86939 0.0
H2541 H 0.33239 0.67449 0.91229 0.0
H2542 H 0.32152 0.70221 0.90926 0.0
H2543 H 0.34827 0.6986 0.91726 0.0
C2544 C 0.31428 0.76483 0.89094 0.0
C2545 C 0.3226 0.77455 0.90283 0.0
C2546 C 0.32316 0.7447 0.88611 0.0
C2547 C 0.34041 0.73386 0.89313 0.0
C2548 C 0.34899 0.74372 0.90489 0.0
H2549 H 0.42117 0.61618 0.88554 0.0
H2550 H 0.40322 0.65142 0.89135 0.0
C2551 C 0.34012 0.76384 0.90972 0.0
C2552 C 0.3496 0.71233 0.88813 0.0
H2553 H 0.35832 0.6579 0.89713 0.0
C2554 C 0.35982 0.71173 0.87539 0.0
C2555 C 0.34868 0.69256 0.89594 0.0
C2556 C 0.33694 0.69185 0.90939 0.0
C2557 C 0.3699 0.69209 0.87048 0.0
C2558 C 0.36941 0.67247 0.87845 0.0
C2559 C 0.35876 0.67298 0.89105 0.0
C2560 C 0.38075 0.65147 0.87428 0.0
C2561 C 0.38166 0.69271 0.85704 0.0
C2562 C 0.37413 0.63972 0.86268 0.0
C2563 C 0.38445 0.61942 0.85926 0.0
C2564 C 0.40146 0.61044 0.86746 0.0
C2565 C 0.4081 0.62245 0.87899 0.0
C2566 C 0.39785 0.64266 0.88235 0.0
H2567 H 0.38476 0.71012 0.85359 0.0
H2568 H 0.39789 0.68372 0.85755 0.0
H2569 H 0.37108 0.68427 0.84939 0.0
H2570 H 0.3607 0.64601 0.85642 0.0
H2571 H 0.37884 0.61061 0.85035 0.0
H2572 H 0.97913 0.59813 0.66917 0.0
H2573 H 0.01332 0.61469 0.65993 0.0
H2574 H 0.01156 0.56788 0.6269 0.0
H2575 H 0.97756 0.55106 0.63616 0.0
H2576 H 0.05369 0.57187 0.63853 0.0
H2577 H 0.01826 0.65539 0.62694 0.0
H2578 H 0.01403 0.64679 0.64408 0.0
H2579 H 0.00095 0.63142 0.63065 0.0
C2580 C 0.98601 0.59138 0.65993 0.0
C2581 C 0.9756 0.57334 0.65337 0.0
C2582 C 0.00546 0.60096 0.65461 0.0
C2583 C 0.01478 0.59277 0.64259 0.0
C2584 C 0.00458 0.57456 0.63613 0.0
H2585 H 0.13849 0.63006 0.59974 0.0
H2586 H 0.10246 0.61278 0.6054 0.0
C2587 C 0.98514 0.56498 0.64144 0.0
C2588 C 0.03548 0.60282 0.63695 0.0
H2589 H 0.05796 0.65204 0.62589 0.0
C2590 C 0.05459 0.58934 0.63563 0.0
C2591 C 0.03657 0.62559 0.63312 0.0
C2592 C 0.01631 0.64062 0.63363 0.0
C2593 C 0.07501 0.59823 0.63108 0.0
C2594 C 0.07623 0.62113 0.62757 0.0
C2595 C 0.05699 0.63449 0.6286 0.0
C2596 C 0.09765 0.63193 0.62367 0.0
C2597 C 0.09531 0.58326 0.63057 0.0
C2598 C 0.10657 0.64881 0.63185 0.0
C2599 C 0.12701 0.65875 0.62864 0.0
C2600 C 0.13903 0.65211 0.6171 0.0
C2601 C 0.12978 0.63552 0.60872 0.0
C2602 C 0.10925 0.62552 0.61198 0.0
H2603 H 0.09264 0.56735 0.63613 0.0
H2604 H 0.09911 0.5791 0.61992 0.0
H2605 H 0.11013 0.59187 0.63489 0.0
H2606 H 0.09786 0.65408 0.64088 0.0
H2607 H 0.13345 0.67155 0.63531 0.0
H2608 H 0.08295 0.61368 0.11909 0.0
H2609 H 0.10055 0.64918 0.11346 0.0
H2610 H 0.13645 0.64819 0.15113 0.0
H2611 H 0.11903 0.61228 0.15686 0.0
H2612 H 0.09877 0.68981 0.12758 0.0
H2613 H 0.18605 0.65842 0.12297 0.0
H2614 H 0.16218 0.63992 0.12324 0.0
H2615 H 0.1721 0.65233 0.13859 0.0
C2616 C 0.09462 0.62087 0.12622 0.0
C2617 C 0.09963 0.60995 0.13843 0.0
C2618 C 0.10465 0.64125 0.12297 0.0
C2619 C 0.12001 0.65121 0.13178 0.0
C2620 C 0.12493 0.64059 0.14406 0.0
H2621 H 0.19776 0.774 0.12157 0.0
H2622 H 0.18115 0.73959 0.13044 0.0
C2623 C 0.11486 0.62012 0.14735 0.0
C2624 C 0.13052 0.67284 0.12804 0.0
H2625 H 0.18037 0.69705 0.11962 0.0
C2626 C 0.11663 0.69143 0.12588 0.0
C2627 C 0.15382 0.67492 0.12588 0.0
C2628 C 0.16947 0.65534 0.12767 0.0
C2629 C 0.12536 0.71202 0.12156 0.0
C2630 C 0.14858 0.71395 0.11904 0.0
C2631 C 0.16256 0.69551 0.1215 0.0
C2632 C 0.15862 0.73483 0.11362 0.0
C2633 C 0.10964 0.73157 0.11984 0.0
C2634 C 0.15172 0.74341 0.10112 0.0
C2635 C 0.16114 0.76311 0.09604 0.0
C2636 C 0.17778 0.77449 0.10332 0.0
C2637 C 0.18493 0.76566 0.11573 0.0
C2638 C 0.17547 0.74599 0.12081 0.0
H2639 H 0.09406 0.72931 0.12579 0.0
H2640 H 0.11771 0.74748 0.12295 0.0
H2641 H 0.10486 0.733 0.10907 0.0
H2642 H 0.13912 0.7348 0.09524 0.0
H2643 H 0.15537 0.76941 0.08641 0.0
H2644 H 0.13758 0.33239 0.86866 0.0
H2645 H 0.10247 0.35023 0.8625 0.0
H2646 H 0.10377 0.38861 0.89924 0.0
H2647 H 0.1391 0.37058 0.90567 0.0
H2648 H 0.06153 0.36932 0.89324 0.0
H2649 H 0.09576 0.41466 0.84911 0.0
H2650 H 0.10159 0.38521 0.84886 0.0
H2651 H 0.11341 0.40243 0.8619 0.0
C2652 C 0.13054 0.34465 0.87548 0.0
C2653 C 0.14138 0.35015 0.88764 0.0
C2654 C 0.11045 0.35492 0.87188 0.0
C2655 C 0.10072 0.37107 0.88027 0.0
C2656 C 0.11112 0.37631 0.89256 0.0
H2657 H 0.97681 0.4476 0.87141 0.0
H2658 H 0.01203 0.43193 0.87969 0.0
C2659 C 0.13131 0.366 0.89621 0.0
C2660 C 0.07957 0.38216 0.87615 0.0
H2661 H 0.05602 0.41288 0.85081 0.0
C2662 C 0.06034 0.37905 0.88405 0.0
C2663 C 0.07806 0.39484 0.86413 0.0
C2664 C 0.09835 0.3997 0.85557 0.0
C2665 C 0.03949 0.38764 0.88001 0.0
C2666 C 0.03793 0.39991 0.86785 0.0
C2667 C 0.05723 0.40334 0.86008 0.0
C2668 C 0.0164 0.40923 0.86293 0.0
C2669 C 0.01916 0.38293 0.88856 0.0
C2670 C 0.00738 0.40199 0.85062 0.0
C2671 C 0.98726 0.41096 0.84583 0.0
C2672 C 0.97591 0.42748 0.85322 0.0
C2673 C 0.98509 0.43483 0.8655 0.0
C2674 C 0.00516 0.4258 0.87029 0.0
H2675 H 0.02218 0.36911 0.89582 0.0
H2676 H 0.01481 0.39816 0.89438 0.0
H2677 H 0.00457 0.37852 0.88216 0.0
H2678 H 0.01587 0.3893 0.84474 0.0
H2679 H 0.98064 0.40499 0.83633 0.0
H2680 H 0.30199 0.2254 0.62012 0.0
H2681 H 0.31798 0.25985 0.62926 0.0
H2682 H 0.36448 0.26268 0.5961 0.0
H2683 H 0.34877 0.22797 0.58698 0.0
H2684 H 0.38437 0.2701 0.62128 0.0
H2685 H 0.30885 0.32321 0.61476 0.0
H2686 H 0.30434 0.29785 0.62408 0.0
H2687 H 0.31191 0.29642 0.60658 0.0
C2688 C 0.31557 0.23338 0.61473 0.0
C2689 C 0.32405 0.22402 0.60278 0.0
C2690 C 0.32461 0.25315 0.61994 0.0
C2691 C 0.34219 0.26403 0.61325 0.0
C2692 C 0.35083 0.25461 0.60139 0.0
H2693 H 0.4212 0.38294 0.62072 0.0
H2694 H 0.40455 0.34698 0.61515 0.0
C2695 C 0.34181 0.23481 0.59617 0.0
C2696 C 0.35187 0.28502 0.61874 0.0
H2697 H 0.33954 0.33948 0.62616 0.0
C2698 C 0.37457 0.28526 0.62235 0.0
C2699 C 0.33901 0.30476 0.62023 0.0
C2700 C 0.31472 0.30572 0.61611 0.0
C2701 C 0.38479 0.30472 0.62736 0.0
C2702 C 0.37206 0.32456 0.62858 0.0
C2703 C 0.34924 0.32422 0.62525 0.0
C2704 C 0.38247 0.3462 0.6324 0.0
C2705 C 0.40913 0.30382 0.63135 0.0
C2706 C 0.37529 0.358 0.64385 0.0
C2707 C 0.38477 0.37878 0.64708 0.0
C2708 C 0.40141 0.38823 0.63881 0.0
C2709 C 0.40846 0.37627 0.62735 0.0
C2710 C 0.39907 0.35556 0.62418 0.0
H2711 H 0.41456 0.28644 0.63359 0.0
H2712 H 0.4195 0.31015 0.62289 0.0
H2713 H 0.41242 0.31443 0.64031 0.0
H2714 H 0.36236 0.35112 0.65027 0.0
H2715 H 0.37888 0.38753 0.65595 0.0
H2716 H 0.52292 0.59829 0.33687 0.0
H2717 H 0.48823 0.6145 0.34569 0.0
H2718 H 0.49012 0.56861 0.37919 0.0
H2719 H 0.52483 0.55243 0.3705 0.0
H2720 H 0.44736 0.59206 0.35069 0.0
H2721 H 0.48169 0.6299 0.39747 0.0
H2722 H 0.49927 0.62113 0.38365 0.0
H2723 H 0.48798 0.60077 0.39509 0.0
C2724 C 0.51599 0.59171 0.34614 0.0
C2725 C 0.52664 0.57412 0.353 0.0
C2726 C 0.49618 0.60099 0.35117 0.0
C2727 C 0.48677 0.59298 0.3632 0.0
C2728 C 0.49732 0.57535 0.37003 0.0
H2729 H 0.36342 0.62984 0.40579 0.0
H2730 H 0.39899 0.61225 0.39937 0.0
C2731 C 0.51708 0.56602 0.365 0.0
C2732 C 0.4655 0.60256 0.36832 0.0
H2733 H 0.44236 0.63122 0.39466 0.0
C2734 C 0.44627 0.60065 0.36029 0.0
C2735 C 0.46408 0.61359 0.38091 0.0
C2736 C 0.48436 0.61668 0.38976 0.0
C2737 C 0.42566 0.60944 0.36451 0.0
C2738 C 0.42431 0.62085 0.37698 0.0
C2739 C 0.44344 0.62245 0.38512 0.0
C2740 C 0.4034 0.63212 0.38135 0.0
C2741 C 0.40542 0.60624 0.35562 0.0
C2742 C 0.39446 0.6495 0.37356 0.0
C2743 C 0.37424 0.65952 0.37716 0.0
C2744 C 0.3625 0.6525 0.38871 0.0
C2745 C 0.37193 0.6356 0.3968 0.0
C2746 C 0.39224 0.62553 0.39316 0.0
H2747 H 0.4077 0.59204 0.34853 0.0
H2748 H 0.39016 0.60318 0.36172 0.0
H2749 H 0.40272 0.6216 0.34956 0.0
H2750 H 0.40304 0.65522 0.36459 0.0
H2751 H 0.36773 0.67267 0.37076 0.0
loop_
_geom_bond_atom_site_label_1
_geom_bond_atom_site_label_2
_geom_bond_distance
_geom_bond_site_symmetry_2
_ccdc_geom_bond_type
Co0 O1 2.216 . S
Co0 O2 2.091 . S
Co0 O4 2.004 . S
Co0 O10 2.021 . S
Co0 O12 2.137 . S
Co0 O13 2.244 . S
O1 Co0 2.216 . S
O1 C8 1.247 . S
O2 Co0 2.091 . S
O2 C8 1.261 . S
C3 O12 1.247 . S
C3 O13 1.272 . S
O4 Co0 2.004 . S
O4 C9 1.259 . S
Co5 O6 2.061 . S
Co5 O11 2.052 . S
Co5 O13 2.135 . S
O6 Co5 2.061 . S
O6 C9 1.235 . S
C7 O10 1.238 . S
C7 O11 1.241 . S
C8 O1 1.247 . S
C8 O2 1.261 . S
C9 O4 1.259 . S
C9 O6 1.235 . S
O10 Co0 2.021 . S
O10 C7 1.238 . S
O11 Co5 2.052 . S
O11 C7 1.241 . S
O12 Co0 2.137 . S
O12 C3 1.247 . S
O13 Co0 2.244 . S
O13 C3 1.272 . S
O13 Co5 2.135 . S
Co14 O15 2.216 . S
Co14 O16 2.091 . S
Co14 O18 2.004 . S
Co14 O24 2.021 . S
Co14 O26 2.137 . S
Co14 O27 2.244 . S
O15 Co14 2.216 . S
O15 C22 1.247 . S
O16 Co14 2.091 . S
O16 C22 1.261 . S
C17 O26 1.247 . S
C17 O27 1.272 . S
O18 Co14 2.004 . S
O18 C23 1.259 . S
Co19 O20 2.061 . S
Co19 O25 2.052 . S
Co19 O27 2.135 . S
O20 Co19 2.061 . S
O20 C23 1.235 . S
C21 O24 1.238 . S
C21 O25 1.241 . S
C22 O15 1.247 . S
C22 O16 1.261 . S
C23 O18 1.259 . S
C23 O20 1.235 . S
O24 Co14 2.021 . S
O24 C21 1.238 . S
O25 Co19 2.052 . S
O25 C21 1.241 . S
O26 Co14 2.137 . S
O26 C17 1.247 . S
O27 Co14 2.244 . S
O27 C17 1.272 . S
O27 Co19 2.135 . S
Co28 O29 2.216 . S
Co28 O30 2.091 . S
Co28 O32 2.004 . S
Co28 O38 2.021 . S
Co28 O40 2.137 . S
Co28 O41 2.244 . S
O29 Co28 2.216 . S
O29 C36 1.247 . S
O30 Co28 2.091 . S
O30 C36 1.261 . S
C31 O40 1.247 . S
C31 O41 1.272 . S
O32 Co28 2.004 . S
O32 C37 1.259 . S
Co33 O34 2.061 . S
Co33 O39 2.052 . S
Co33 O41 2.135 . S
O34 Co33 2.061 . S
O34 C37 1.235 . S
C35 O38 1.238 . S
C35 O39 1.241 . S
C36 O29 1.247 . S
C36 O30 1.261 . S
C37 O32 1.259 . S
C37 O34 1.235 . S
O38 Co28 2.021 . S
O38 C35 1.238 . S
O39 Co33 2.052 . S
O39 C35 1.241 . S
O40 Co28 2.137 . S
O40 C31 1.247 . S
O41 Co28 2.244 . S
O41 C31 1.272 . S
O41 Co33 2.135 . S
Co42 O43 2.216 . S
Co42 O44 2.091 . S
Co42 O46 2.004 . S
Co42 O52 2.021 . S
Co42 O54 2.137 . S
Co42 O55 2.244 . S
O43 Co42 2.216 . S
O43 C50 1.247 . S
O44 Co42 2.091 . S
O44 C50 1.261 . S
C45 O54 1.247 . S
C45 O55 1.272 . S
O46 Co42 2.004 . S
O46 C51 1.259 . S
Co47 O48 2.061 . S
Co47 O53 2.052 . S
Co47 O55 2.135 . S
O48 Co47 2.061 . S
O48 C51 1.235 . S
C49 O52 1.238 . S
C49 O53 1.241 . S
C50 O43 1.247 . S
C50 O44 1.261 . S
C51 O46 1.259 . S
C51 O48 1.235 . S
O52 Co42 2.021 . S
O52 C49 1.238 . S
O53 Co47 2.052 . S
O53 C49 1.241 . S
O54 Co42 2.137 . S
O54 C45 1.247 . S
O55 Co42 2.244 . S
O55 C45 1.272 . S
O55 Co47 2.135 . S
Co56 O57 2.216 . S
Co56 O58 2.091 . S
Co56 O60 2.004 . S
Co56 O66 2.021 . S
Co56 O68 2.137 . S
Co56 O69 2.244 . S
O57 Co56 2.216 . S
O57 C64 1.247 . S
O58 Co56 2.091 . S
O58 C64 1.261 . S
C59 O68 1.247 . S
C59 O69 1.272 . S
O60 Co56 2.004 . S
O60 C65 1.259 . S
Co61 O62 2.061 . S
Co61 O67 2.052 . S
Co61 O69 2.135 . S
O62 Co61 2.061 . S
O62 C65 1.235 . S
C63 O66 1.238 . S
C63 O67 1.241 . S
C64 O57 1.247 . S
C64 O58 1.261 . S
C65 O60 1.259 . S
C65 O62 1.235 . S
O66 Co56 2.021 . S
O66 C63 1.238 . S
O67 Co61 2.052 . S
O67 C63 1.241 . S
O68 Co56 2.137 . S
O68 C59 1.247 . S
O69 Co56 2.244 . S
O69 C59 1.272 . S
O69 Co61 2.135 . S
Co70 O71 2.216 . S
Co70 O72 2.091 . S
Co70 O74 2.004 . S
Co70 O80 2.021 . S
Co70 O82 2.137 . S
Co70 O83 2.244 . S
O71 Co70 2.216 . S
O71 C78 1.247 . S
O72 Co70 2.091 . S
O72 C78 1.261 . S
C73 O82 1.247 . S
C73 O83 1.272 . S
O74 Co70 2.004 . S
O74 C79 1.259 . S
Co75 O76 2.061 . S
Co75 O81 2.052 . S
Co75 O83 2.135 . S
O76 Co75 2.061 . S
O76 C79 1.235 . S
C77 O80 1.238 . S
C77 O81 1.241 . S
C78 O71 1.247 . S
C78 O72 1.261 . S
C79 O74 1.259 . S
C79 O76 1.235 . S
O80 Co70 2.021 . S
O80 C77 1.238 . S
O81 Co75 2.052 . S
O81 C77 1.241 . S
O82 Co70 2.137 . S
O82 C73 1.247 . S
O83 Co70 2.244 . S
O83 C73 1.272 . S
O83 Co75 2.135 . S
Co84 O85 2.216 . S
Co84 O86 2.091 . S
Co84 O88 2.004 . S
Co84 O94 2.021 . S
Co84 O96 2.137 . S
Co84 O97 2.244 . S
O85 Co84 2.216 . S
O85 C92 1.247 . S
O86 Co84 2.091 . S
O86 C92 1.261 . S
C87 O96 1.247 . S
C87 O97 1.272 . S
O88 Co84 2.004 . S
O88 C93 1.259 . S
Co89 O90 2.061 . S
Co89 O95 2.052 . S
Co89 O97 2.135 . S
O90 Co89 2.061 . S
O90 C93 1.235 . S
C91 O94 1.238 . S
C91 O95 1.241 . S
C92 O85 1.247 . S
C92 O86 1.261 . S
C93 O88 1.259 . S
C93 O90 1.235 . S
O94 Co84 2.021 . S
O94 C91 1.238 . S
O95 Co89 2.052 . S
O95 C91 1.241 . S
O96 Co84 2.137 . S
O96 C87 1.247 . S
O97 Co84 2.244 . S
O97 C87 1.272 . S
O97 Co89 2.135 . S
Co98 O99 2.216 . S
Co98 O100 2.091 . S
Co98 O102 2.004 . S
Co98 O108 2.021 . S
Co98 O110 2.137 . S
Co98 O111 2.244 . S
O99 Co98 2.216 . S
O99 C106 1.247 . S
O100 Co98 2.091 . S
O100 C106 1.261 . S
C101 O110 1.247 . S
C101 O111 1.272 . S
O102 Co98 2.004 . S
O102 C107 1.259 . S
Co103 O104 2.061 . S
Co103 O109 2.052 . S
Co103 O111 2.135 . S
O104 Co103 2.061 . S
O104 C107 1.235 . S
C105 O108 1.238 . S
C105 O109 1.241 . S
C106 O99 1.247 . S
C106 O100 1.261 . S
C107 O102 1.259 . S
C107 O104 1.235 . S
O108 Co98 2.021 . S
O108 C105 1.238 . S
O109 Co103 2.052 . S
O109 C105 1.241 . S
O110 Co98 2.137 . S
O110 C101 1.247 . S
O111 Co98 2.244 . S
O111 C101 1.272 . S
O111 Co103 2.135 . S
Co112 O113 2.216 . S
Co112 O114 2.091 . S
Co112 O116 2.004 . S
Co112 O122 2.021 . S
Co112 O124 2.137 . S
Co112 O125 2.244 . S
O113 Co112 2.216 . S
O113 C120 1.247 . S
O114 Co112 2.091 . S
O114 C120 1.261 . S
C115 O124 1.247 . S
C115 O125 1.272 . S
O116 Co112 2.004 . S
O116 C121 1.259 . S
Co117 O118 2.061 . S
Co117 O123 2.052 . S
Co117 O125 2.135 . S
O118 Co117 2.061 . S
O118 C121 1.235 . S
C119 O122 1.238 . S
C119 O123 1.241 . S
C120 O113 1.247 . S
C120 O114 1.261 . S
C121 O116 1.259 . S
C121 O118 1.235 . S
O122 Co112 2.021 . S
O122 C119 1.238 . S
O123 Co117 2.052 . S
O123 C119 1.241 . S
O124 Co112 2.137 . S
O124 C115 1.247 . S
O125 Co112 2.244 . S
O125 C115 1.272 . S
O125 Co117 2.135 . S
Co126 O127 2.216 . S
Co126 O128 2.091 . S
Co126 O130 2.004 . S
Co126 O136 2.021 . S
Co126 O138 2.137 . S
Co126 O139 2.244 . S
O127 Co126 2.216 . S
O127 C134 1.247 . S
O128 Co126 2.091 . S
O128 C134 1.261 . S
C129 O138 1.247 . S
C129 O139 1.272 . S
O130 Co126 2.004 . S
O130 C135 1.259 . S
Co131 O132 2.061 . S
Co131 O137 2.052 . S
Co131 O139 2.135 . S
O132 Co131 2.061 . S
O132 C135 1.235 . S
C133 O136 1.238 . S
C133 O137 1.241 . S
C134 O127 1.247 . S
C134 O128 1.261 . S
C135 O130 1.259 . S
C135 O132 1.235 . S
O136 Co126 2.021 . S
O136 C133 1.238 . S
O137 Co131 2.052 . S
O137 C133 1.241 . S
O138 Co126 2.137 . S
O138 C129 1.247 . S
O139 Co126 2.244 . S
O139 C129 1.272 . S
O139 Co131 2.135 . S
Co140 O141 2.216 . S
Co140 O142 2.091 . S
Co140 O144 2.004 . S
Co140 O150 2.021 . S
Co140 O152 2.137 . S
Co140 O153 2.244 . S
O141 Co140 2.216 . S
O141 C148 1.247 . S
O142 Co140 2.091 . S
O142 C148 1.261 . S
C143 O152 1.247 . S
C143 O153 1.272 . S
O144 Co140 2.004 . S
O144 C149 1.259 . S
Co145 O146 2.061 . S
Co145 O151 2.052 . S
Co145 O153 2.135 . S
O146 Co145 2.061 . S
O146 C149 1.235 . S
C147 O150 1.238 . S
C147 O151 1.241 . S
C148 O141 1.247 . S
C148 O142 1.261 . S
C149 O144 1.259 . S
C149 O146 1.235 . S
O150 Co140 2.021 . S
O150 C147 1.238 . S
O151 Co145 2.052 . S
O151 C147 1.241 . S
O152 Co140 2.137 . S
O152 C143 1.247 . S
O153 Co140 2.244 . S
O153 C143 1.272 . S
O153 Co145 2.135 . S
Co154 O155 2.216 . S
Co154 O156 2.091 . S
Co154 O158 2.004 . S
Co154 O164 2.021 . S
Co154 O166 2.137 . S
Co154 O167 2.244 . S
O155 Co154 2.216 . S
O155 C162 1.247 . S
O156 Co154 2.091 . S
O156 C162 1.261 . S
C157 O166 1.247 . S
C157 O167 1.272 . S
O158 Co154 2.004 . S
O158 C163 1.259 . S
Co159 O160 2.061 . S
Co159 O165 2.052 . S
Co159 O167 2.135 . S
O160 Co159 2.061 . S
O160 C163 1.235 . S
C161 O164 1.238 . S
C161 O165 1.241 . S
C162 O155 1.247 . S
C162 O156 1.261 . S
C163 O158 1.259 . S
C163 O160 1.235 . S
O164 Co154 2.021 . S
O164 C161 1.238 . S
O165 Co159 2.052 . S
O165 C161 1.241 . S
O166 Co154 2.137 . S
O166 C157 1.247 . S
O167 Co154 2.244 . S
O167 C157 1.272 . S
O167 Co159 2.135 . S
Co168 O169 2.216 . S
Co168 O170 2.091 . S
Co168 O172 2.004 . S
Co168 O178 2.021 . S
Co168 O180 2.137 . S
Co168 O181 2.244 . S
O169 Co168 2.216 . S
O169 C176 1.247 . S
O170 Co168 2.091 . S
O170 C176 1.261 . S
C171 O180 1.247 . S
C171 O181 1.272 . S
O172 Co168 2.004 . S
O172 C177 1.259 . S
Co173 O174 2.061 . S
Co173 O179 2.052 . S
Co173 O181 2.135 . S
O174 Co173 2.061 . S
O174 C177 1.235 . S
C175 O178 1.238 . S
C175 O179 1.241 . S
C176 O169 1.247 . S
C176 O170 1.261 . S
C177 O172 1.259 . S
C177 O174 1.235 . S
O178 Co168 2.021 . S
O178 C175 1.238 . S
O179 Co173 2.052 . S
O179 C175 1.241 . S
O180 Co168 2.137 . S
O180 C171 1.247 . S
O181 Co168 2.244 . S
O181 C171 1.272 . S
O181 Co173 2.135 . S
Co182 O183 2.216 . S
Co182 O184 2.091 . S
Co182 O186 2.004 . S
Co182 O192 2.021 . S
Co182 O194 2.137 . S
Co182 O195 2.244 . S
O183 Co182 2.216 . S
O183 C190 1.247 . S
O184 Co182 2.091 . S
O184 C190 1.261 . S
C185 O194 1.247 . S
C185 O195 1.272 . S
O186 Co182 2.004 . S
O186 C191 1.259 . S
Co187 O188 2.061 . S
Co187 O193 2.052 . S
Co187 O195 2.135 . S
O188 Co187 2.061 . S
O188 C191 1.235 . S
C189 O192 1.238 . S
C189 O193 1.241 . S
C190 O183 1.247 . S
C190 O184 1.261 . S
C191 O186 1.259 . S
C191 O188 1.235 . S
O192 Co182 2.021 . S
O192 C189 1.238 . S
O193 Co187 2.052 . S
O193 C189 1.241 . S
O194 Co182 2.137 . S
O194 C185 1.247 . S
O195 Co182 2.244 . S
O195 C185 1.272 . S
O195 Co187 2.135 . S
Co196 O197 2.216 . S
Co196 O198 2.091 . S
Co196 O200 2.004 . S
Co196 O206 2.021 . S
Co196 O208 2.137 . S
Co196 O209 2.244 . S
O197 Co196 2.216 . S
O197 C204 1.247 . S
O198 Co196 2.091 . S
O198 C204 1.261 . S
C199 O208 1.247 . S
C199 O209 1.272 . S
O200 Co196 2.004 . S
O200 C205 1.259 . S
Co201 O202 2.061 . S
Co201 O207 2.052 . S
Co201 O209 2.135 . S
O202 Co201 2.061 . S
O202 C205 1.235 . S
C203 O206 1.238 . S
C203 O207 1.241 . S
C204 O197 1.247 . S
C204 O198 1.261 . S
C205 O200 1.259 . S
C205 O202 1.235 . S
O206 Co196 2.021 . S
O206 C203 1.238 . S
O207 Co201 2.052 . S
O207 C203 1.241 . S
O208 Co196 2.137 . S
O208 C199 1.247 . S
O209 Co196 2.244 . S
O209 C199 1.272 . S
O209 Co201 2.135 . S
Co210 O211 2.216 . S
Co210 O212 2.091 . S
Co210 O214 2.004 . S
Co210 O220 2.021 . S
Co210 O222 2.137 . S
Co210 O223 2.244 . S
O211 Co210 2.216 . S
O211 C218 1.247 . S
O212 Co210 2.091 . S
O212 C218 1.261 . S
C213 O222 1.247 . S
C213 O223 1.272 . S
O214 Co210 2.004 . S
O214 C219 1.259 . S
Co215 O216 2.061 . S
Co215 O221 2.052 . S
Co215 O223 2.135 . S
O216 Co215 2.061 . S
O216 C219 1.235 . S
C217 O220 1.238 . S
C217 O221 1.241 . S
C218 O211 1.247 . S
C218 O212 1.261 . S
C219 O214 1.259 . S
C219 O216 1.235 . S
O220 Co210 2.021 . S
O220 C217 1.238 . S
O221 Co215 2.052 . S
O221 C217 1.241 . S
O222 Co210 2.137 . S
O222 C213 1.247 . S
O223 Co210 2.244 . S
O223 C213 1.272 . S
O223 Co215 2.135 . S
Co224 O225 2.216 . S
Co224 O226 2.091 . S
Co224 O228 2.004 . S
Co224 O234 2.021 . S
Co224 O236 2.137 . S
Co224 O237 2.244 . S
O225 Co224 2.216 . S
O225 C232 1.247 . S
O226 Co224 2.091 . S
O226 C232 1.261 . S
C227 O236 1.247 . S
C227 O237 1.272 . S
O228 Co224 2.004 . S
O228 C233 1.259 . S
Co229 O230 2.061 . S
Co229 O235 2.052 . S
Co229 O237 2.135 . S
O230 Co229 2.061 . S
O230 C233 1.235 . S
C231 O234 1.238 . S
C231 O235 1.241 . S
C232 O225 1.247 . S
C232 O226 1.261 . S
C233 O228 1.259 . S
C233 O230 1.235 . S
O234 Co224 2.021 . S
O234 C231 1.238 . S
O235 Co229 2.052 . S
O235 C231 1.241 . S
O236 Co224 2.137 . S
O236 C227 1.247 . S
O237 Co224 2.244 . S
O237 C227 1.272 . S
O237 Co229 2.135 . S
Co238 O239 2.216 . S
Co238 O240 2.091 . S
Co238 O242 2.004 . S
Co238 O248 2.021 . S
Co238 O250 2.137 . S
Co238 O251 2.244 . S
O239 Co238 2.216 . S
O239 C246 1.247 . S
O240 Co238 2.091 . S
O240 C246 1.261 . S
C241 O250 1.247 . S
C241 O251 1.272 . S
O242 Co238 2.004 . S
O242 C247 1.259 . S
Co243 O244 2.061 . S
Co243 O249 2.052 . S
Co243 O251 2.135 . S
O244 Co243 2.061 . S
O244 C247 1.235 . S
C245 O248 1.238 . S
C245 O249 1.241 . S
C246 O239 1.247 . S
C246 O240 1.261 . S
C247 O242 1.259 . S
C247 O244 1.235 . S
O248 Co238 2.021 . S
O248 C245 1.238 . S
O249 Co243 2.052 . S
O249 C245 1.241 . S
O250 Co238 2.137 . S
O250 C241 1.247 . S
O251 Co238 2.244 . S
O251 C241 1.272 . S
O251 Co243 2.135 . S
Co252 O253 2.216 . S
Co252 O254 2.091 . S
Co252 O256 2.004 . S
Co252 O262 2.021 . S
Co252 O264 2.137 . S
Co252 O265 2.244 . S
O253 Co252 2.216 . S
O253 C260 1.247 . S
O254 Co252 2.091 . S
O254 C260 1.261 . S
C255 O264 1.247 . S
C255 O265 1.272 . S
O256 Co252 2.004 . S
O256 C261 1.259 . S
Co257 O258 2.061 . S
Co257 O263 2.052 . S
Co257 O265 2.135 . S
O258 Co257 2.061 . S
O258 C261 1.235 . S
C259 O262 1.238 . S
C259 O263 1.241 . S
C260 O253 1.247 . S
C260 O254 1.261 . S
C261 O256 1.259 . S
C261 O258 1.235 . S
O262 Co252 2.021 . S
O262 C259 1.238 . S
O263 Co257 2.052 . S
O263 C259 1.241 . S
O264 Co252 2.137 . S
O264 C255 1.247 . S
O265 Co252 2.244 . S
O265 C255 1.272 . S
O265 Co257 2.135 . S
Co266 O267 2.216 . S
Co266 O268 2.091 . S
Co266 O270 2.004 . S
Co266 O276 2.021 . S
Co266 O278 2.137 . S
Co266 O279 2.244 . S
O267 Co266 2.216 . S
O267 C274 1.247 . S
O268 Co266 2.091 . S
O268 C274 1.261 . S
C269 O278 1.247 . S
C269 O279 1.272 . S
O270 Co266 2.004 . S
O270 C275 1.259 . S
Co271 O272 2.061 . S
Co271 O277 2.052 . S
Co271 O279 2.135 . S
O272 Co271 2.061 . S
O272 C275 1.235 . S
C273 O276 1.238 . S
C273 O277 1.241 . S
C274 O267 1.247 . S
C274 O268 1.261 . S
C275 O270 1.259 . S
C275 O272 1.235 . S
O276 Co266 2.021 . S
O276 C273 1.238 . S
O277 Co271 2.052 . S
O277 C273 1.241 . S
O278 Co266 2.137 . S
O278 C269 1.247 . S
O279 Co266 2.244 . S
O279 C269 1.272 . S
O279 Co271 2.135 . S
Co280 O281 2.216 . S
Co280 O282 2.091 . S
Co280 O284 2.004 . S
Co280 O290 2.021 . S
Co280 O292 2.137 . S
Co280 O293 2.244 . S
O281 Co280 2.216 . S
O281 C288 1.247 . S
O282 Co280 2.091 . S
O282 C288 1.261 . S
C283 O292 1.247 . S
C283 O293 1.272 . S
O284 Co280 2.004 . S
O284 C289 1.259 . S
Co285 O286 2.061 . S
Co285 O291 2.052 . S
Co285 O293 2.135 . S
O286 Co285 2.061 . S
O286 C289 1.235 . S
C287 O290 1.238 . S
C287 O291 1.241 . S
C288 O281 1.247 . S
C288 O282 1.261 . S
C289 O284 1.259 . S
C289 O286 1.235 . S
O290 Co280 2.021 . S
O290 C287 1.238 . S
O291 Co285 2.052 . S
O291 C287 1.241 . S
O292 Co280 2.137 . S
O292 C283 1.247 . S
O293 Co280 2.244 . S
O293 C283 1.272 . S
O293 Co285 2.135 . S
Co294 O295 2.216 . S
Co294 O296 2.091 . S
Co294 O298 2.004 . S
Co294 O304 2.021 . S
Co294 O306 2.137 . S
Co294 O307 2.244 . S
O295 Co294 2.216 . S
O295 C302 1.247 . S
O296 Co294 2.091 . S
O296 C302 1.261 . S
C297 O306 1.247 . S
C297 O307 1.272 . S
O298 Co294 2.004 . S
O298 C303 1.259 . S
Co299 O300 2.061 . S
Co299 O305 2.052 . S
Co299 O307 2.135 . S
O300 Co299 2.061 . S
O300 C303 1.235 . S
C301 O304 1.238 . S
C301 O305 1.241 . S
C302 O295 1.247 . S
C302 O296 1.261 . S
C303 O298 1.259 . S
C303 O300 1.235 . S
O304 Co294 2.021 . S
O304 C301 1.238 . S
O305 Co299 2.052 . S
O305 C301 1.241 . S
O306 Co294 2.137 . S
O306 C297 1.247 . S
O307 Co294 2.244 . S
O307 C297 1.272 . S
O307 Co299 2.135 . S
Co308 O309 2.216 . S
Co308 O310 2.091 . S
Co308 O312 2.004 . S
Co308 O318 2.021 . S
Co308 O320 2.137 . S
Co308 O321 2.244 . S
O309 Co308 2.216 . S
O309 C316 1.247 . S
O310 Co308 2.091 . S
O310 C316 1.261 . S
C311 O320 1.247 . S
C311 O321 1.272 . S
O312 Co308 2.004 . S
O312 C317 1.259 . S
Co313 O314 2.061 . S
Co313 O319 2.052 . S
Co313 O321 2.135 . S
O314 Co313 2.061 . S
O314 C317 1.235 . S
C315 O318 1.238 . S
C315 O319 1.241 . S
C316 O309 1.247 . S
C316 O310 1.261 . S
C317 O312 1.259 . S
C317 O314 1.235 . S
O318 Co308 2.021 . S
O318 C315 1.238 . S
O319 Co313 2.052 . S
O319 C315 1.241 . S
O320 Co308 2.137 . S
O320 C311 1.247 . S
O321 Co308 2.244 . S
O321 C311 1.272 . S
O321 Co313 2.135 . S
Co322 O323 2.216 . S
Co322 O324 2.091 . S
Co322 O326 2.004 . S
Co322 O332 2.021 . S
Co322 O334 2.137 . S
Co322 O335 2.244 . S
O323 Co322 2.216 . S
O323 C330 1.247 . S
O324 Co322 2.091 . S
O324 C330 1.261 . S
C325 O334 1.247 . S
C325 O335 1.272 . S
O326 Co322 2.004 . S
O326 C331 1.259 . S
Co327 O328 2.061 . S
Co327 O333 2.052 . S
Co327 O335 2.135 . S
O328 Co327 2.061 . S
O328 C331 1.235 . S
C329 O332 1.238 . S
C329 O333 1.241 . S
C330 O323 1.247 . S
C330 O324 1.261 . S
C331 O326 1.259 . S
C331 O328 1.235 . S
O332 Co322 2.021 . S
O332 C329 1.238 . S
O333 Co327 2.052 . S
O333 C329 1.241 . S
O334 Co322 2.137 . S
O334 C325 1.247 . S
O335 Co322 2.244 . S
O335 C325 1.272 . S
O335 Co327 2.135 . S
Co336 O337 2.216 . S
Co336 O338 2.091 . S
Co336 O340 2.004 . S
Co336 O346 2.021 . S
Co336 O348 2.137 . S
Co336 O349 2.244 . S
O337 Co336 2.216 . S
O337 C344 1.247 . S
O338 Co336 2.091 . S
O338 C344 1.261 . S
C339 O348 1.247 . S
C339 O349 1.272 . S
O340 Co336 2.004 . S
O340 C345 1.259 . S
Co341 O342 2.061 . S
Co341 O347 2.052 . S
Co341 O349 2.135 . S
O342 Co341 2.061 . S
O342 C345 1.235 . S
C343 O346 1.238 . S
C343 O347 1.241 . S
C344 O337 1.247 . S
C344 O338 1.261 . S
C345 O340 1.259 . S
C345 O342 1.235 . S
O346 Co336 2.021 . S
O346 C343 1.238 . S
O347 Co341 2.052 . S
O347 C343 1.241 . S
O348 Co336 2.137 . S
O348 C339 1.247 . S
O349 Co336 2.244 . S
O349 C339 1.272 . S
O349 Co341 2.135 . S
Co350 O351 2.216 . S
Co350 O352 2.091 . S
Co350 O354 2.004 . S
Co350 O360 2.021 . S
Co350 O362 2.137 . S
Co350 O363 2.244 . S
O351 Co350 2.216 . S
O351 C358 1.247 . S
O352 Co350 2.091 . S
O352 C358 1.261 . S
C353 O362 1.247 . S
C353 O363 1.272 . S
O354 Co350 2.004 . S
O354 C359 1.259 . S
Co355 O356 2.061 . S
Co355 O361 2.052 . S
Co355 O363 2.135 . S
O356 Co355 2.061 . S
O356 C359 1.235 . S
C357 O360 1.238 . S
C357 O361 1.241 . S
C358 O351 1.247 . S
C358 O352 1.261 . S
C359 O354 1.259 . S
C359 O356 1.235 . S
O360 Co350 2.021 . S
O360 C357 1.238 . S
O361 Co355 2.052 . S
O361 C357 1.241 . S
O362 Co350 2.137 . S
O362 C353 1.247 . S
O363 Co350 2.244 . S
O363 C353 1.272 . S
O363 Co355 2.135 . S
Co364 O365 2.216 . S
Co364 O366 2.091 . S
Co364 O368 2.004 . S
Co364 O374 2.021 . S
Co364 O376 2.137 . S
Co364 O377 2.244 . S
O365 Co364 2.216 . S
O365 C372 1.247 . S
O366 Co364 2.091 . S
O366 C372 1.261 . S
C367 O376 1.247 . S
C367 O377 1.272 . S
O368 Co364 2.004 . S
O368 C373 1.259 . S
Co369 O370 2.061 . S
Co369 O375 2.052 . S
Co369 O377 2.135 . S
O370 Co369 2.061 . S
O370 C373 1.235 . S
C371 O374 1.238 . S
C371 O375 1.241 . S
C372 O365 1.247 . S
C372 O366 1.261 . S
C373 O368 1.259 . S
C373 O370 1.235 . S
O374 Co364 2.021 . S
O374 C371 1.238 . S
O375 Co369 2.052 . S
O375 C371 1.241 . S
O376 Co364 2.137 . S
O376 C367 1.247 . S
O377 Co364 2.244 . S
O377 C367 1.272 . S
O377 Co369 2.135 . S
Co378 O379 2.216 . S
Co378 O380 2.091 . S
Co378 O382 2.004 . S
Co378 O388 2.021 . S
Co378 O390 2.137 . S
Co378 O391 2.244 . S
O379 Co378 2.216 . S
O379 C386 1.247 . S
O380 Co378 2.091 . S
O380 C386 1.261 . S
C381 O390 1.247 . S
C381 O391 1.272 . S
O382 Co378 2.004 . S
O382 C387 1.259 . S
Co383 O384 2.061 . S
Co383 O389 2.052 . S
Co383 O391 2.135 . S
O384 Co383 2.061 . S
O384 C387 1.235 . S
C385 O388 1.238 . S
C385 O389 1.241 . S
C386 O379 1.247 . S
C386 O380 1.261 . S
C387 O382 1.259 . S
C387 O384 1.235 . S
O388 Co378 2.021 . S
O388 C385 1.238 . S
O389 Co383 2.052 . S
O389 C385 1.241 . S
O390 Co378 2.137 . S
O390 C381 1.247 . S
O391 Co378 2.244 . S
O391 C381 1.272 . S
O391 Co383 2.135 . S
Co392 O393 2.216 . S
Co392 O394 2.091 . S
Co392 O396 2.004 . S
Co392 O402 2.021 . S
Co392 O404 2.137 . S
Co392 O405 2.244 . S
O393 Co392 2.216 . S
O393 C400 1.247 . S
O394 Co392 2.091 . S
O394 C400 1.261 . S
C395 O404 1.247 . S
C395 O405 1.272 . S
O396 Co392 2.004 . S
O396 C401 1.259 . S
Co397 O398 2.061 . S
Co397 O403 2.052 . S
Co397 O405 2.135 . S
O398 Co397 2.061 . S
O398 C401 1.235 . S
C399 O402 1.238 . S
C399 O403 1.241 . S
C400 O393 1.247 . S
C400 O394 1.261 . S
C401 O396 1.259 . S
C401 O398 1.235 . S
O402 Co392 2.021 . S
O402 C399 1.238 . S
O403 Co397 2.052 . S
O403 C399 1.241 . S
O404 Co392 2.137 . S
O404 C395 1.247 . S
O405 Co392 2.244 . S
O405 C395 1.272 . S
O405 Co397 2.135 . S
Co406 O407 2.216 . S
Co406 O408 2.091 . S
Co406 O410 2.004 . S
Co406 O416 2.021 . S
Co406 O418 2.137 . S
Co406 O419 2.244 . S
O407 Co406 2.216 . S
O407 C414 1.247 . S
O408 Co406 2.091 . S
O408 C414 1.261 . S
C409 O418 1.247 . S
C409 O419 1.272 . S
O410 Co406 2.004 . S
O410 C415 1.259 . S
Co411 O412 2.061 . S
Co411 O417 2.052 . S
Co411 O419 2.135 . S
O412 Co411 2.061 . S
O412 C415 1.235 . S
C413 O416 1.238 . S
C413 O417 1.241 . S
C414 O407 1.247 . S
C414 O408 1.261 . S
C415 O410 1.259 . S
C415 O412 1.235 . S
O416 Co406 2.021 . S
O416 C413 1.238 . S
O417 Co411 2.052 . S
O417 C413 1.241 . S
O418 Co406 2.137 . S
O418 C409 1.247 . S
O419 Co406 2.244 . S
O419 C409 1.272 . S
O419 Co411 2.135 . S
Co420 O421 2.216 . S
Co420 O422 2.091 . S
Co420 O424 2.004 . S
Co420 O430 2.021 . S
Co420 O432 2.137 . S
Co420 O433 2.244 . S
O421 Co420 2.216 . S
O421 C428 1.247 . S
O422 Co420 2.091 . S
O422 C428 1.261 . S
C423 O432 1.247 . S
C423 O433 1.272 . S
O424 Co420 2.004 . S
O424 C429 1.259 . S
Co425 O426 2.061 . S
Co425 O431 2.052 . S
Co425 O433 2.135 . S
O426 Co425 2.061 . S
O426 C429 1.235 . S
C427 O430 1.238 . S
C427 O431 1.241 . S
C428 O421 1.247 . S
C428 O422 1.261 . S
C429 O424 1.259 . S
C429 O426 1.235 . S
O430 Co420 2.021 . S
O430 C427 1.238 . S
O431 Co425 2.052 . S
O431 C427 1.241 . S
O432 Co420 2.137 . S
O432 C423 1.247 . S
O433 Co420 2.244 . S
O433 C423 1.272 . S
O433 Co425 2.135 . S
Co434 O435 2.216 . S
Co434 O436 2.091 . S
Co434 O438 2.004 . S
Co434 O444 2.021 . S
Co434 O446 2.137 . S
Co434 O447 2.244 . S
O435 Co434 2.216 . S
O435 C442 1.247 . S
O436 Co434 2.091 . S
O436 C442 1.261 . S
C437 O446 1.247 . S
C437 O447 1.272 . S
O438 Co434 2.004 . S
O438 C443 1.259 . S
Co439 O440 2.061 . S
Co439 O445 2.052 . S
Co439 O447 2.135 . S
O440 Co439 2.061 . S
O440 C443 1.235 . S
C441 O444 1.238 . S
C441 O445 1.241 . S
C442 O435 1.247 . S
C442 O436 1.261 . S
C443 O438 1.259 . S
C443 O440 1.235 . S
O444 Co434 2.021 . S
O444 C441 1.238 . S
O445 Co439 2.052 . S
O445 C441 1.241 . S
O446 Co434 2.137 . S
O446 C437 1.247 . S
O447 Co434 2.244 . S
O447 C437 1.272 . S
O447 Co439 2.135 . S
H448 C456 0.929 . S
H449 C458 0.930 . S
H450 C460 0.930 . S
H451 C463 0.929 . S
H452 C466 0.930 . S
H453 C468 0.960 . S
H454 C468 0.960 . S
H455 C468 0.960 . S
C456 H448 0.929 . S
C456 C457 1.377 . S
C456 C458 1.384 . S
C457 C456 1.377 . S
C457 C463 1.390 . S
C458 H449 0.930 . S
C458 C456 1.384 . S
C458 C459 1.372 . S
C459 C458 1.372 . S
C459 C460 1.400 . S
C459 C464 1.490 . S
C460 H450 0.930 . S
C460 C459 1.400 . S
C460 C463 1.386 . S
H461 C477 0.930 . S
H462 C478 0.931 . S
C463 H451 0.929 . S
C463 C457 1.390 . S
C463 C460 1.386 . S
C464 C459 1.490 . S
C464 C466 1.395 1_565 S
C464 C467 1.403 . S
H465 C471 0.930 . S
C466 H452 0.930 . S
C466 C464 1.395 1_545 S
C466 C469 1.403 . S
C467 C464 1.403 . S
C467 C468 1.524 . S
C467 C471 1.400 . S
C468 H453 0.960 . S
C468 H454 0.960 . S
C468 H455 0.960 . S
C468 C467 1.524 . S
C469 C466 1.403 . S
C469 C470 1.392 . S
C469 C473 1.495 . S
C470 C469 1.392 . S
C470 C471 1.385 1_545 S
C470 C472 1.478 . S
C471 H465 0.930 . S
C471 C467 1.400 . S
C471 C470 1.385 1_565 S
C472 C470 1.478 . S
C472 C474 1.381 . S
C472 C478 1.383 . S
C473 C469 1.495 . S
C473 H479 0.959 . S
C473 H480 0.961 . S
C473 H481 0.960 . S
C474 C472 1.381 . S
C474 C475 1.394 . S
C474 H482 0.930 . S
C475 C474 1.394 . S
C475 C476 1.383 . S
C475 H483 0.929 . S
C476 C475 1.383 . S
C476 C477 1.377 . S
C477 H461 0.930 . S
C477 C476 1.377 . S
C477 C478 1.379 . S
C478 H462 0.931 . S
C478 C472 1.383 . S
C478 C477 1.379 . S
H479 C473 0.959 . S
H480 C473 0.961 . S
H481 C473 0.960 . S
H482 C474 0.930 . S
H483 C475 0.929 . S
H484 C492 0.929 . S
H485 C494 0.930 . S
H486 C496 0.930 . S
H487 C499 0.929 . S
H488 C502 0.930 . S
H489 C504 0.960 . S
H490 C504 0.960 . S
H491 C504 0.960 . S
C492 H484 0.929 . S
C492 C493 1.377 . S
C492 C494 1.384 . S
C493 C492 1.377 . S
C493 C499 1.390 . S
C494 H485 0.930 . S
C494 C492 1.384 . S
C494 C495 1.372 . S
C495 C494 1.372 . S
C495 C496 1.400 . S
C495 C500 1.490 . S
C496 H486 0.930 . S
C496 C495 1.400 . S
C496 C499 1.386 . S
H497 C513 0.930 . S
H498 C514 0.931 . S
C499 H487 0.929 . S
C499 C493 1.390 . S
C499 C496 1.386 . S
C500 C495 1.490 . S
C500 C502 1.395 . S
C500 C503 1.403 . S
H501 C507 0.930 . S
C502 H488 0.930 . S
C502 C500 1.395 . S
C502 C505 1.403 . S
C503 C500 1.403 . S
C503 C504 1.524 . S
C503 C507 1.400 . S
C504 H489 0.960 . S
C504 H490 0.960 . S
C504 H491 0.960 . S
C504 C503 1.524 . S
C505 C502 1.403 . S
C505 C506 1.392 . S
C505 C509 1.495 . S
C506 C505 1.392 . S
C506 C507 1.385 . S
C506 C508 1.478 . S
C507 H501 0.930 . S
C507 C503 1.400 . S
C507 C506 1.385 . S
C508 C506 1.478 . S
C508 C510 1.381 . S
C508 C514 1.383 . S
C509 C505 1.495 . S
C509 H515 0.959 . S
C509 H516 0.961 . S
C509 H517 0.960 . S
C510 C508 1.381 . S
C510 C511 1.394 . S
C510 H518 0.930 . S
C511 C510 1.394 . S
C511 C512 1.383 . S
C511 H519 0.929 . S
C512 C511 1.383 . S
C512 C513 1.377 . S
C513 H497 0.930 . S
C513 C512 1.377 . S
C513 C514 1.379 . S
C514 H498 0.931 . S
C514 C508 1.383 . S
C514 C513 1.379 . S
H515 C509 0.959 . S
H516 C509 0.961 . S
H517 C509 0.960 . S
H518 C510 0.930 . S
H519 C511 0.929 . S
H520 C528 0.929 . S
H521 C530 0.930 . S
H522 C532 0.930 . S
H523 C535 0.929 . S
H524 C538 0.930 . S
H525 C540 0.960 . S
H526 C540 0.960 . S
H527 C540 0.960 . S
C528 H520 0.929 . S
C528 C529 1.377 . S
C528 C530 1.384 . S
C529 C528 1.377 . S
C529 C535 1.390 . S
C530 H521 0.930 . S
C530 C528 1.384 . S
C530 C531 1.372 . S
C531 C530 1.372 . S
C531 C532 1.400 . S
C531 C536 1.490 . S
C532 H522 0.930 . S
C532 C531 1.400 . S
C532 C535 1.386 . S
H533 C549 0.930 . S
H534 C550 0.931 . S
C535 H523 0.929 . S
C535 C529 1.390 . S
C535 C532 1.386 . S
C536 C531 1.490 . S
C536 C538 1.395 1_545 S
C536 C539 1.403 . S
H537 C543 0.930 . S
C538 H524 0.930 . S
C538 C536 1.395 1_565 S
C538 C541 1.403 . S
C539 C536 1.403 . S
C539 C540 1.524 . S
C539 C543 1.400 . S
C540 H525 0.960 . S
C540 H526 0.960 . S
C540 H527 0.960 . S
C540 C539 1.524 . S
C541 C538 1.403 . S
C541 C542 1.392 . S
C541 C545 1.495 . S
C542 C541 1.392 . S
C542 C543 1.385 1_565 S
C542 C544 1.478 . S
C543 H537 0.930 . S
C543 C539 1.400 . S
C543 C542 1.385 1_545 S
C544 C542 1.478 . S
C544 C546 1.381 . S
C544 C550 1.383 . S
C545 C541 1.495 . S
C545 H551 0.959 . S
C545 H552 0.961 . S
C545 H553 0.960 . S
C546 C544 1.381 . S
C546 C547 1.394 . S
C546 H554 0.930 . S
C547 C546 1.394 . S
C547 C548 1.383 . S
C547 H555 0.929 . S
C548 C547 1.383 . S
C548 C549 1.377 . S
C549 H533 0.930 . S
C549 C548 1.377 . S
C549 C550 1.379 . S
C550 H534 0.931 . S
C550 C544 1.383 . S
C550 C549 1.379 . S
H551 C545 0.959 . S
H552 C545 0.961 . S
H553 C545 0.960 . S
H554 C546 0.930 . S
H555 C547 0.929 . S
H556 C564 0.929 . S
H557 C566 0.930 . S
H558 C568 0.930 . S
H559 C571 0.929 . S
H560 C574 0.930 . S
H561 C576 0.960 . S
H562 C576 0.960 . S
H563 C576 0.960 . S
C564 H556 0.929 . S
C564 C565 1.377 . S
C564 C566 1.384 . S
C565 C564 1.377 . S
C565 C571 1.390 . S
C566 H557 0.930 . S
C566 C564 1.384 . S
C566 C567 1.372 . S
C567 C566 1.372 . S
C567 C568 1.400 . S
C567 C572 1.490 . S
C568 H558 0.930 . S
C568 C567 1.400 . S
C568 C571 1.386 . S
H569 C585 0.930 . S
H570 C586 0.931 . S
C571 H559 0.929 . S
C571 C565 1.390 . S
C571 C568 1.386 . S
C572 C567 1.490 . S
C572 C574 1.395 . S
C572 C575 1.403 . S
H573 C579 0.930 . S
C574 H560 0.930 . S
C574 C572 1.395 . S
C574 C577 1.403 1_556 S
C575 C572 1.403 . S
C575 C576 1.524 . S
C575 C579 1.400 1_556 S
C576 H561 0.960 . S
C576 H562 0.960 . S
C576 H563 0.960 . S
C576 C575 1.524 . S
C577 C574 1.403 1_554 S
C577 C578 1.392 . S
C577 C581 1.495 . S
C578 C577 1.392 . S
C578 C579 1.385 . S
C578 C580 1.478 . S
C579 H573 0.930 . S
C579 C575 1.400 1_554 S
C579 C578 1.385 . S
C580 C578 1.478 . S
C580 C582 1.381 . S
C580 C586 1.383 . S
C581 C577 1.495 . S
C581 H587 0.959 . S
C581 H588 0.961 . S
C581 H589 0.960 . S
C582 C580 1.381 . S
C582 C583 1.394 . S
C582 H590 0.930 . S
C583 C582 1.394 . S
C583 C584 1.383 . S
C583 H591 0.929 . S
C584 C583 1.383 . S
C584 C585 1.377 . S
C585 H569 0.930 . S
C585 C584 1.377 . S
C585 C586 1.379 . S
C586 H570 0.931 . S
C586 C580 1.383 . S
C586 C585 1.379 . S
H587 C581 0.959 . S
H588 C581 0.961 . S
H589 C581 0.960 . S
H590 C582 0.930 . S
H591 C583 0.929 . S
H592 C600 0.929 . S
H593 C602 0.930 . S
H594 C604 0.930 . S
H595 C607 0.929 . S
H596 C610 0.930 . S
H597 C612 0.960 . S
H598 C612 0.960 . S
H599 C612 0.960 . S
C600 H592 0.929 . S
C600 C601 1.377 . S
C600 C602 1.384 . S
C601 C600 1.377 . S
C601 C607 1.390 . S
C602 H593 0.930 . S
C602 C600 1.384 . S
C602 C603 1.372 . S
C603 C602 1.372 . S
C603 C604 1.400 . S
C603 C608 1.490 . S
C604 H594 0.930 . S
C604 C603 1.400 . S
C604 C607 1.386 . S
H605 C621 0.930 . S
H606 C622 0.931 . S
C607 H595 0.929 . S
C607 C601 1.390 . S
C607 C604 1.386 . S
C608 C603 1.490 . S
C608 C610 1.395 . S
C608 C611 1.403 1_565 S
H609 C615 0.930 . S
C610 H596 0.930 . S
C610 C608 1.395 . S
C610 C613 1.403 . S
C611 C608 1.403 1_545 S
C611 C612 1.524 . S
C611 C615 1.400 . S
C612 H597 0.960 . S
C612 H598 0.960 . S
C612 H599 0.960 . S
C612 C611 1.524 . S
C613 C610 1.403 . S
C613 C614 1.392 1_565 S
C613 C617 1.495 . S
C614 C613 1.392 1_545 S
C614 C615 1.385 . S
C614 C616 1.478 . S
C615 H609 0.930 . S
C615 C611 1.400 . S
C615 C614 1.385 . S
C616 C614 1.478 . S
C616 C618 1.381 . S
C616 C622 1.383 . S
C617 C613 1.495 . S
C617 H623 0.959 . S
C617 H624 0.961 . S
C617 H625 0.960 . S
C618 C616 1.381 . S
C618 C619 1.394 . S
C618 H626 0.930 . S
C619 C618 1.394 . S
C619 C620 1.383 . S
C619 H627 0.929 . S
C620 C619 1.383 . S
C620 C621 1.377 . S
C621 H605 0.930 . S
C621 C620 1.377 . S
C621 C622 1.379 . S
C622 H606 0.931 . S
C622 C616 1.383 . S
C622 C621 1.379 . S
H623 C617 0.959 . S
H624 C617 0.961 . S
H625 C617 0.960 . S
H626 C618 0.930 . S
H627 C619 0.929 . S
H628 C636 0.929 . S
H629 C638 0.930 . S
H630 C640 0.930 . S
H631 C643 0.929 . S
H632 C646 0.930 . S
H633 C648 0.960 . S
H634 C648 0.960 . S
H635 C648 0.960 . S
C636 H628 0.929 . S
C636 C637 1.377 . S
C636 C638 1.384 . S
C637 C636 1.377 . S
C637 C643 1.390 . S
C638 H629 0.930 . S
C638 C636 1.384 . S
C638 C639 1.372 . S
C639 C638 1.372 . S
C639 C640 1.400 . S
C639 C644 1.490 . S
C640 H630 0.930 . S
C640 C639 1.400 . S
C640 C643 1.386 . S
H641 C657 0.930 . S
H642 C658 0.931 . S
C643 H631 0.929 . S
C643 C637 1.390 . S
C643 C640 1.386 . S
C644 C639 1.490 . S
C644 C646 1.395 . S
C644 C647 1.403 . S
H645 C651 0.930 . S
C646 H632 0.930 . S
C646 C644 1.395 . S
C646 C649 1.403 . S
C647 C644 1.403 . S
C647 C648 1.524 . S
C647 C651 1.400 . S
C648 H633 0.960 . S
C648 H634 0.960 . S
C648 H635 0.960 . S
C648 C647 1.524 . S
C649 C646 1.403 . S
C649 C650 1.392 . S
C649 C653 1.495 . S
C650 C649 1.392 . S
C650 C651 1.385 . S
C650 C652 1.478 . S
C651 H645 0.930 . S
C651 C647 1.400 . S
C651 C650 1.385 . S
C652 C650 1.478 . S
C652 C654 1.381 . S
C652 C658 1.383 . S
C653 C649 1.495 . S
C653 H659 0.959 . S
C653 H660 0.961 . S
C653 H661 0.960 . S
C654 C652 1.381 . S
C654 C655 1.394 . S
C654 H662 0.930 . S
C655 C654 1.394 . S
C655 C656 1.383 . S
C655 H663 0.929 . S
C656 C655 1.383 . S
C656 C657 1.377 . S
C657 H641 0.930 . S
C657 C656 1.377 . S
C657 C658 1.379 . S
C658 H642 0.931 . S
C658 C652 1.383 . S
C658 C657 1.379 . S
H659 C653 0.959 . S
H660 C653 0.961 . S
H661 C653 0.960 . S
H662 C654 0.930 . S
H663 C655 0.929 . S
H664 C672 0.929 . S
H665 C674 0.930 1_565 S
H666 C676 0.930 . S
H667 C679 0.929 . S
H668 C682 0.930 . S
H669 C684 0.960 . S
H670 C684 0.960 . S
H671 C684 0.960 1_545 S
C672 H664 0.929 . S
C672 C673 1.377 . S
C672 C674 1.384 . S
C673 C672 1.377 . S
C673 C679 1.390 . S
C674 H665 0.930 1_545 S
C674 C672 1.384 . S
C674 C675 1.372 . S
C675 C674 1.372 . S
C675 C676 1.400 . S
C675 C680 1.490 . S
C676 H666 0.930 . S
C676 C675 1.400 . S
C676 C679 1.386 . S
H677 C693 0.938 . S
H678 C694 0.931 1_545 S
C679 H667 0.929 . S
C679 C673 1.390 . S
C679 C676 1.386 . S
C680 C675 1.490 . S
C680 C682 1.395 . S
C680 C683 1.403 1_545 S
H681 C687 0.930 . S
C682 H668 0.930 . S
C682 C680 1.395 . S
C682 C685 1.415 . S
C683 C680 1.403 1_565 S
C683 C684 1.524 . S
C683 C687 1.400 . S
C684 H669 0.960 . S
C684 H670 0.960 . S
C684 H671 0.960 1_565 S
C684 C683 1.524 . S
C685 C682 1.415 . S
C685 C686 1.380 1_545 S
C685 C689 1.499 . S
C686 C685 1.380 1_565 S
C686 C687 1.385 . S
C686 C688 1.478 . S
C687 H681 0.930 . S
C687 C683 1.400 . S
C687 C686 1.385 . S
C688 C686 1.478 . S
C688 C690 1.381 . S
C688 C694 1.383 . S
C689 C685 1.499 . S
C689 H695 0.959 . S
C689 H696 0.961 . S
C689 H697 0.960 1_545 S
C690 C688 1.381 . S
C690 C691 1.394 . S
C690 H698 0.930 . S
C691 C690 1.394 . S
C691 C692 1.383 . S
C691 H699 0.929 . S
C692 C691 1.383 . S
C692 C693 1.377 . S
C693 H677 0.938 . S
C693 C692 1.377 . S
C693 C694 1.379 . S
C694 H678 0.931 1_565 S
C694 C688 1.383 . S
C694 C693 1.379 . S
H695 C689 0.959 . S
H696 C689 0.961 . S
H697 C689 0.960 1_565 S
H698 C690 0.930 . S
H699 C691 0.929 . S
H700 C708 0.929 . S
H701 C710 0.930 . S
H702 C712 0.930 . S
H703 C715 0.929 . S
H704 C718 0.930 . S
H705 C720 0.960 . S
H706 C720 0.960 . S
H707 C720 0.960 . S
C708 H700 0.929 . S
C708 C709 1.377 . S
C708 C710 1.384 . S
C709 C708 1.377 . S
C709 C715 1.390 . S
C710 H701 0.930 . S
C710 C708 1.384 . S
C710 C711 1.372 . S
C711 C710 1.372 . S
C711 C712 1.400 . S
C711 C716 1.490 . S
C712 H702 0.930 . S
C712 C711 1.400 . S
C712 C715 1.386 . S
H713 C729 0.930 . S
H714 C730 0.931 . S
C715 H703 0.929 . S
C715 C709 1.390 . S
C715 C712 1.386 . S
C716 C711 1.490 . S
C716 C718 1.395 . S
C716 C719 1.403 . S
H717 C723 0.930 . S
C718 H704 0.930 . S
C718 C716 1.395 . S
C718 C721 1.403 1_556 S
C719 C716 1.403 . S
C719 C720 1.524 . S
C719 C723 1.400 1_556 S
C720 H705 0.960 . S
C720 H706 0.960 . S
C720 H707 0.960 . S
C720 C719 1.524 . S
C721 C718 1.403 1_554 S
C721 C722 1.392 . S
C721 C725 1.495 . S
C722 C721 1.392 . S
C722 C723 1.385 . S
C722 C724 1.478 . S
C723 H717 0.930 . S
C723 C719 1.400 1_554 S
C723 C722 1.385 . S
C724 C722 1.478 . S
C724 C726 1.381 . S
C724 C730 1.383 . S
C725 C721 1.495 . S
C725 H731 0.959 . S
C725 H732 0.961 . S
C725 H733 0.960 . S
C726 C724 1.381 . S
C726 C727 1.394 . S
C726 H734 0.930 . S
C727 C726 1.394 . S
C727 C728 1.383 . S
C727 H735 0.929 . S
C728 C727 1.383 . S
C728 C729 1.377 . S
C729 H713 0.930 . S
C729 C728 1.377 . S
C729 C730 1.379 . S
C730 H714 0.931 . S
C730 C724 1.383 . S
C730 C729 1.379 . S
H731 C725 0.959 . S
H732 C725 0.961 . S
H733 C725 0.960 . S
H734 C726 0.930 . S
H735 C727 0.929 . S
H736 C744 0.929 . S
H737 C746 0.930 . S
H738 C748 0.930 . S
H739 C751 0.929 . S
H740 C754 0.930 . S
H741 C756 0.960 . S
H742 C756 0.960 . S
H743 C756 0.960 . S
C744 H736 0.929 . S
C744 C745 1.377 . S
C744 C746 1.384 . S
C745 C744 1.377 . S
C745 C751 1.390 . S
C746 H737 0.930 . S
C746 C744 1.384 . S
C746 C747 1.372 . S
C747 C746 1.372 . S
C747 C748 1.400 . S
C747 C752 1.490 . S
C748 H738 0.930 . S
C748 C747 1.400 . S
C748 C751 1.386 . S
H749 C765 0.930 . S
H750 C766 0.931 . S
C751 H739 0.929 . S
C751 C745 1.390 . S
C751 C748 1.386 . S
C752 C747 1.490 . S
C752 C754 1.395 . S
C752 C755 1.403 . S
H753 C759 0.930 . S
C754 H740 0.930 . S
C754 C752 1.395 . S
C754 C757 1.403 . S
C755 C752 1.403 . S
C755 C756 1.524 . S
C755 C759 1.400 . S
C756 H741 0.960 . S
C756 H742 0.960 . S
C756 H743 0.960 . S
C756 C755 1.524 . S
C757 C754 1.403 . S
C757 C758 1.392 . S
C757 C761 1.495 . S
C758 C757 1.392 . S
C758 C759 1.385 . S
C758 C760 1.478 . S
C759 H753 0.930 . S
C759 C755 1.400 . S
C759 C758 1.385 . S
C760 C758 1.478 . S
C760 C762 1.381 . S
C760 C766 1.383 . S
C761 C757 1.495 . S
C761 H767 0.959 . S
C761 H768 0.961 . S
C761 H769 0.960 . S
C762 C760 1.381 . S
C762 C763 1.394 . S
C762 H770 0.930 . S
C763 C762 1.394 . S
C763 C764 1.383 . S
C763 H771 0.929 . S
C764 C763 1.383 . S
C764 C765 1.377 . S
C765 H749 0.930 . S
C765 C764 1.377 . S
C765 C766 1.379 . S
C766 H750 0.931 . S
C766 C760 1.383 . S
C766 C765 1.379 . S
H767 C761 0.959 . S
H768 C761 0.961 . S
H769 C761 0.960 . S
H770 C762 0.930 . S
H771 C763 0.929 . S
H772 C780 0.929 . S
H773 C782 0.930 . S
H774 C784 0.930 . S
H775 C787 0.929 . S
H776 C790 0.930 . S
H777 C792 0.960 1_556 S
H778 C792 0.960 . S
H779 C792 0.960 . S
C780 H772 0.929 . S
C780 C781 1.377 . S
C780 C782 1.384 . S
C781 C780 1.377 . S
C781 C787 1.390 . S
C782 H773 0.930 . S
C782 C780 1.384 . S
C782 C783 1.372 . S
C783 C782 1.372 . S
C783 C784 1.400 . S
C783 C788 1.490 . S
C784 H774 0.930 . S
C784 C783 1.400 . S
C784 C787 1.386 . S
H785 C801 0.930 . S
H786 C802 0.931 . S
C787 H775 0.929 . S
C787 C781 1.390 . S
C787 C784 1.386 . S
C788 C783 1.490 . S
C788 C790 1.395 . S
C788 C791 1.403 . S
H789 C795 0.930 . S
C790 H776 0.930 . S
C790 C788 1.395 . S
C790 C793 1.403 1_554 S
C791 C788 1.403 . S
C791 C792 1.524 . S
C791 C795 1.400 1_554 S
C792 H777 0.960 1_554 S
C792 H778 0.960 . S
C792 H779 0.960 . S
C792 C791 1.524 . S
C793 C790 1.403 1_556 S
C793 C794 1.392 . S
C793 C797 1.495 . S
C794 C793 1.392 . S
C794 C795 1.385 . S
C794 C796 1.478 . S
C795 H789 0.930 . S
C795 C791 1.400 1_556 S
C795 C794 1.385 . S
C796 C794 1.478 . S
C796 C798 1.381 . S
C796 C802 1.383 . S
C797 C793 1.495 . S
C797 H803 0.959 1_556 S
C797 H804 0.961 . S
C797 H805 0.960 . S
C798 C796 1.381 . S
C798 C799 1.394 . S
C798 H806 0.930 . S
C799 C798 1.394 . S
C799 C800 1.383 . S
C799 H807 0.929 . S
C800 C799 1.383 . S
C800 C801 1.377 . S
C801 H785 0.930 . S
C801 C800 1.377 . S
C801 C802 1.379 . S
C802 H786 0.931 . S
C802 C796 1.383 . S
C802 C801 1.379 . S
H803 C797 0.959 1_554 S
H804 C797 0.961 . S
H805 C797 0.960 . S
H806 C798 0.930 . S
H807 C799 0.929 . S
H808 C816 0.929 . S
H809 C818 0.930 . S
H810 C820 0.930 . S
H811 C823 0.929 . S
H812 C826 0.930 . S
H813 C828 0.960 . S
H814 C828 0.960 . S
H815 C828 0.960 . S
C816 H808 0.929 . S
C816 C817 1.377 . S
C816 C818 1.384 . S
C817 C816 1.377 . S
C817 C823 1.390 . S
C818 H809 0.930 . S
C818 C816 1.384 . S
C818 C819 1.372 . S
C819 C818 1.372 . S
C819 C820 1.400 . S
C819 C824 1.490 . S
C820 H810 0.930 . S
C820 C819 1.400 . S
C820 C823 1.386 . S
H821 C837 0.930 . S
H822 C838 0.931 . S
C823 H811 0.929 . S
C823 C817 1.390 . S
C823 C820 1.386 . S
C824 C819 1.490 . S
C824 C826 1.395 . S
C824 C827 1.403 . S
H825 C831 0.930 . S
C826 H812 0.930 . S
C826 C824 1.395 . S
C826 C829 1.403 . S
C827 C824 1.403 . S
C827 C828 1.524 . S
C827 C831 1.400 . S
C828 H813 0.960 . S
C828 H814 0.960 . S
C828 H815 0.960 . S
C828 C827 1.524 . S
C829 C826 1.403 . S
C829 C830 1.392 . S
C829 C833 1.495 . S
C830 C829 1.392 . S
C830 C831 1.385 . S
C830 C832 1.478 . S
C831 H825 0.930 . S
C831 C827 1.400 . S
C831 C830 1.385 . S
C832 C830 1.478 . S
C832 C834 1.381 . S
C832 C838 1.383 . S
C833 C829 1.495 . S
C833 H839 0.959 . S
C833 H840 0.961 . S
C833 H841 0.960 . S
C834 C832 1.381 . S
C834 C835 1.394 . S
C834 H842 0.930 . S
C835 C834 1.394 . S
C835 C836 1.383 . S
C835 H843 0.929 . S
C836 C835 1.383 . S
C836 C837 1.377 . S
C837 H821 0.930 . S
C837 C836 1.377 . S
C837 C838 1.379 . S
C838 H822 0.931 . S
C838 C832 1.383 . S
C838 C837 1.379 . S
H839 C833 0.959 . S
H840 C833 0.961 . S
H841 C833 0.960 . S
H842 C834 0.930 . S
H843 C835 0.929 . S
H844 C852 0.929 . S
H845 C854 0.930 . S
H846 C856 0.930 . S
H847 C859 0.929 . S
H848 C862 0.930 . S
H849 C864 0.960 . S
H850 C864 0.960 . S
H851 C864 0.960 . S
C852 H844 0.929 . S
C852 C853 1.377 . S
C852 C854 1.384 . S
C853 C852 1.377 . S
C853 C859 1.390 . S
C854 H845 0.930 . S
C854 C852 1.384 . S
C854 C855 1.372 . S
C855 C854 1.372 . S
C855 C856 1.400 . S
C855 C860 1.490 . S
C856 H846 0.930 . S
C856 C855 1.400 . S
C856 C859 1.386 . S
H857 C873 0.930 . S
H858 C874 0.931 . S
C859 H847 0.929 . S
C859 C853 1.390 . S
C859 C856 1.386 . S
C860 C855 1.490 . S
C860 C862 1.395 . S
C860 C863 1.403 . S
H861 C867 0.930 . S
C862 H848 0.930 . S
C862 C860 1.395 . S
C862 C865 1.403 . S
C863 C860 1.403 . S
C863 C864 1.524 . S
C863 C867 1.400 . S
C864 H849 0.960 . S
C864 H850 0.960 . S
C864 H851 0.960 . S
C864 C863 1.524 . S
C865 C862 1.403 . S
C865 C866 1.392 . S
C865 C869 1.495 . S
C866 C865 1.392 . S
C866 C867 1.385 . S
C866 C868 1.478 . S
C867 H861 0.930 . S
C867 C863 1.400 . S
C867 C866 1.385 . S
C868 C866 1.478 . S
C868 C870 1.381 . S
C868 C874 1.383 . S
C869 C865 1.495 . S
C869 H875 0.959 . S
C869 H876 0.961 . S
C869 H877 0.960 . S
C870 C868 1.381 . S
C870 C871 1.394 . S
C870 H878 0.930 . S
C871 C870 1.394 . S
C871 C872 1.383 . S
C871 H879 0.929 . S
C872 C871 1.383 . S
C872 C873 1.377 . S
C873 H857 0.930 . S
C873 C872 1.377 . S
C873 C874 1.379 . S
C874 H858 0.931 . S
C874 C868 1.383 . S
C874 C873 1.379 . S
H875 C869 0.959 . S
H876 C869 0.961 . S
H877 C869 0.960 . S
H878 C870 0.930 . S
H879 C871 0.929 . S
H880 C888 0.929 . S
H881 C890 0.930 . S
H882 C892 0.930 . S
H883 C895 0.929 . S
H884 C898 0.930 . S
H885 C900 0.960 . S
H886 C900 0.960 . S
H887 C900 0.960 . S
C888 H880 0.929 . S
C888 C889 1.377 . S
C888 C890 1.384 . S
C889 C888 1.377 . S
C889 C895 1.390 . S
C890 H881 0.930 . S
C890 C888 1.384 . S
C890 C891 1.372 . S
C891 C890 1.372 . S
C891 C892 1.400 . S
C891 C896 1.490 . S
C892 H882 0.930 . S
C892 C891 1.400 . S
C892 C895 1.386 . S
H893 C909 0.930 . S
H894 C910 0.931 . S
C895 H883 0.929 . S
C895 C889 1.390 . S
C895 C892 1.386 . S
C896 C891 1.490 . S
C896 C898 1.395 . S
C896 C899 1.403 . S
H897 C903 0.930 . S
C898 H884 0.930 . S
C898 C896 1.395 . S
C898 C901 1.403 . S
C899 C896 1.403 . S
C899 C900 1.524 . S
C899 C903 1.400 . S
C900 H885 0.960 . S
C900 H886 0.960 . S
C900 H887 0.960 . S
C900 C899 1.524 . S
C901 C898 1.403 . S
C901 C902 1.392 . S
C901 C905 1.495 . S
C902 C901 1.392 . S
C902 C903 1.385 . S
C902 C904 1.478 . S
C903 H897 0.930 . S
C903 C899 1.400 . S
C903 C902 1.385 . S
C904 C902 1.478 . S
C904 C906 1.381 . S
C904 C910 1.383 . S
C905 C901 1.495 . S
C905 H911 0.959 . S
C905 H912 0.961 . S
C905 H913 0.960 . S
C906 C904 1.381 . S
C906 C907 1.394 . S
C906 H914 0.930 . S
C907 C906 1.394 . S
C907 C908 1.383 . S
C907 H915 0.929 . S
C908 C907 1.383 . S
C908 C909 1.377 . S
C909 H893 0.930 . S
C909 C908 1.377 . S
C909 C910 1.379 . S
C910 H894 0.931 . S
C910 C904 1.383 . S
C910 C909 1.379 . S
H911 C905 0.959 . S
H912 C905 0.961 . S
H913 C905 0.960 . S
H914 C906 0.930 . S
H915 C907 0.929 . S
H916 C924 0.929 . S
H917 C926 0.930 . S
H918 C928 0.930 . S
H919 C931 0.929 . S
H920 C934 0.930 . S
H921 C936 0.960 . S
H922 C936 0.960 . S
H923 C936 0.960 . S
C924 H916 0.929 . S
C924 C925 1.377 . S
C924 C926 1.384 . S
C925 C924 1.377 . S
C925 C931 1.390 . S
C926 H917 0.930 . S
C926 C924 1.384 . S
C926 C927 1.372 . S
C927 C926 1.372 . S
C927 C928 1.400 . S
C927 C932 1.490 . S
C928 H918 0.930 . S
C928 C927 1.400 . S
C928 C931 1.386 . S
H929 C945 0.930 . S
H930 C946 0.931 . S
C931 H919 0.929 . S
C931 C925 1.390 . S
C931 C928 1.386 . S
C932 C927 1.490 . S
C932 C934 1.395 . S
C932 C935 1.403 . S
H933 C939 0.930 . S
C934 H920 0.930 . S
C934 C932 1.395 . S
C934 C937 1.403 1_554 S
C935 C932 1.403 . S
C935 C936 1.524 . S
C935 C939 1.400 1_554 S
C936 H921 0.960 . S
C936 H922 0.960 . S
C936 H923 0.960 . S
C936 C935 1.524 . S
C937 C934 1.403 1_556 S
C937 C938 1.392 . S
C937 C941 1.495 . S
C938 C937 1.392 . S
C938 C939 1.385 . S
C938 C940 1.478 . S
C939 H933 0.930 . S
C939 C935 1.400 1_556 S
C939 C938 1.385 . S
C940 C938 1.478 . S
C940 C942 1.381 . S
C940 C946 1.383 . S
C941 C937 1.495 . S
C941 H947 0.959 . S
C941 H948 0.961 . S
C941 H949 0.960 . S
C942 C940 1.381 . S
C942 C943 1.394 . S
C942 H950 0.930 . S
C943 C942 1.394 . S
C943 C944 1.383 . S
C943 H951 0.929 . S
C944 C943 1.383 . S
C944 C945 1.377 . S
C945 H929 0.930 . S
C945 C944 1.377 . S
C945 C946 1.379 . S
C946 H930 0.931 . S
C946 C940 1.383 . S
C946 C945 1.379 . S
H947 C941 0.959 . S
H948 C941 0.961 . S
H949 C941 0.960 . S
H950 C942 0.930 . S
H951 C943 0.929 . S
H952 C960 0.929 . S
H953 C962 0.930 . S
H954 C964 0.930 . S
H955 C967 0.929 . S
H956 C970 0.930 . S
H957 C972 0.960 . S
H958 C972 0.960 . S
H959 C972 0.960 . S
C960 H952 0.929 . S
C960 C961 1.377 . S
C960 C962 1.384 . S
C961 C960 1.377 . S
C961 C967 1.390 . S
C962 H953 0.930 . S
C962 C960 1.384 . S
C962 C963 1.372 . S
C963 C962 1.372 . S
C963 C964 1.400 . S
C963 C968 1.490 . S
C964 H954 0.930 . S
C964 C963 1.400 . S
C964 C967 1.386 . S
H965 C981 0.930 . S
H966 C982 0.931 . S
C967 H955 0.929 . S
C967 C961 1.390 . S
C967 C964 1.386 . S
C968 C963 1.490 . S
C968 C970 1.395 . S
C968 C971 1.403 . S
H969 C975 0.930 . S
C970 H956 0.930 . S
C970 C968 1.395 . S
C970 C973 1.403 . S
C971 C968 1.403 . S
C971 C972 1.524 . S
C971 C975 1.400 . S
C972 H957 0.960 . S
C972 H958 0.960 . S
C972 H959 0.960 . S
C972 C971 1.524 . S
C973 C970 1.403 . S
C973 C974 1.392 . S
C973 C977 1.495 . S
C974 C973 1.392 . S
C974 C975 1.385 . S
C974 C976 1.478 . S
C975 H969 0.930 . S
C975 C971 1.400 . S
C975 C974 1.385 . S
C976 C974 1.478 . S
C976 C978 1.381 . S
C976 C982 1.383 . S
C977 C973 1.495 . S
C977 H983 0.959 . S
C977 H984 0.961 . S
C977 H985 0.960 . S
C978 C976 1.381 . S
C978 C979 1.394 . S
C978 H986 0.930 . S
C979 C978 1.394 . S
C979 C980 1.383 . S
C979 H987 0.929 . S
C980 C979 1.383 . S
C980 C981 1.377 . S
C981 H965 0.930 . S
C981 C980 1.377 . S
C981 C982 1.379 . S
C982 H966 0.931 . S
C982 C976 1.383 . S
C982 C981 1.379 . S
H983 C977 0.959 . S
H984 C977 0.961 . S
H985 C977 0.960 . S
H986 C978 0.930 . S
H987 C979 0.929 . S
H988 C996 0.929 . S
H989 C998 0.930 . S
H990 C1000 0.930 . S
H991 C1003 0.929 . S
H992 C1006 0.930 . S
H993 C1008 0.960 . S
H994 C1008 0.960 . S
H995 C1008 0.960 . S
C996 H988 0.929 . S
C996 C997 1.377 . S
C996 C998 1.384 . S
C997 C996 1.377 . S
C997 C1003 1.390 . S
C998 H989 0.930 . S
C998 C996 1.384 . S
C998 C999 1.372 . S
C999 C998 1.372 . S
C999 C1000 1.400 . S
C999 C1004 1.490 . S
C1000 H990 0.930 . S
C1000 C999 1.400 . S
C1000 C1003 1.386 . S
H1001 C1017 0.930 . S
H1002 C1018 0.931 . S
C1003 H991 0.929 . S
C1003 C997 1.390 . S
C1003 C1000 1.386 . S
C1004 C999 1.490 . S
C1004 C1006 1.395 . S
C1004 C1007 1.403 . S
H1005 C1011 0.930 . S
C1006 H992 0.930 . S
C1006 C1004 1.395 . S
C1006 C1009 1.403 . S
C1007 C1004 1.403 . S
C1007 C1008 1.524 . S
C1007 C1011 1.400 . S
C1008 H993 0.960 . S
C1008 H994 0.960 . S
C1008 H995 0.960 . S
C1008 C1007 1.524 . S
C1009 C1006 1.403 . S
C1009 C1010 1.392 . S
C1009 C1013 1.495 . S
C1010 C1009 1.392 . S
C1010 C1011 1.385 . S
C1010 C1012 1.478 . S
C1011 H1005 0.930 . S
C1011 C1007 1.400 . S
C1011 C1010 1.385 . S
C1012 C1010 1.478 . S
C1012 C1014 1.381 . S
C1012 C1018 1.383 . S
C1013 C1009 1.495 . S
C1013 H1019 0.959 . S
C1013 H1020 0.961 . S
C1013 H1021 0.960 . S
C1014 C1012 1.381 . S
C1014 C1015 1.394 . S
C1014 H1022 0.930 . S
C1015 C1014 1.394 . S
C1015 C1016 1.383 . S
C1015 H1023 0.929 . S
C1016 C1015 1.383 . S
C1016 C1017 1.377 . S
C1017 H1001 0.930 . S
C1017 C1016 1.377 . S
C1017 C1018 1.379 . S
C1018 H1002 0.931 . S
C1018 C1012 1.383 . S
C1018 C1017 1.379 . S
H1019 C1013 0.959 . S
H1020 C1013 0.961 . S
H1021 C1013 0.960 . S
H1022 C1014 0.930 . S
H1023 C1015 0.929 . S
H1024 C1032 0.929 . S
H1025 C1034 0.930 . S
H1026 C1036 0.930 . S
H1027 C1039 0.929 . S
H1028 C1042 0.930 . S
H1029 C1044 0.960 . S
H1030 C1044 0.960 . S
H1031 C1044 0.960 . S
C1032 H1024 0.929 . S
C1032 C1033 1.377 . S
C1032 C1034 1.384 1_545 S
C1033 C1032 1.377 . S
C1033 C1039 1.390 . S
C1034 H1025 0.930 . S
C1034 C1032 1.384 1_565 S
C1034 C1035 1.372 . S
C1035 C1034 1.372 . S
C1035 C1036 1.400 . S
C1035 C1040 1.490 . S
C1036 H1026 0.930 . S
C1036 C1035 1.400 . S
C1036 C1039 1.386 1_565 S
H1037 C1053 0.930 . S
H1038 C1054 0.931 . S
C1039 H1027 0.929 . S
C1039 C1033 1.390 . S
C1039 C1036 1.386 1_545 S
C1040 C1035 1.490 . S
C1040 C1042 1.395 . S
C1040 C1043 1.403 . S
H1041 C1047 0.930 . S
C1042 H1028 0.930 . S
C1042 C1040 1.395 . S
C1042 C1045 1.403 . S
C1043 C1040 1.403 . S
C1043 C1044 1.524 . S
C1043 C1047 1.400 . S
C1044 H1029 0.960 . S
C1044 H1030 0.960 . S
C1044 H1031 0.960 . S
C1044 C1043 1.524 . S
C1045 C1042 1.403 . S
C1045 C1046 1.392 . S
C1045 C1049 1.495 . S
C1046 C1045 1.392 . S
C1046 C1047 1.385 . S
C1046 C1048 1.478 . S
C1047 H1041 0.930 . S
C1047 C1043 1.400 . S
C1047 C1046 1.385 . S
C1048 C1046 1.478 . S
C1048 C1050 1.381 . S
C1048 C1054 1.383 . S
C1049 C1045 1.495 . S
C1049 H1055 0.959 . S
C1049 H1056 0.961 . S
C1049 H1057 0.960 . S
C1050 C1048 1.381 . S
C1050 C1051 1.394 . S
C1050 H1058 0.930 . S
C1051 C1050 1.394 . S
C1051 C1052 1.383 . S
C1051 H1059 0.929 . S
C1052 C1051 1.383 . S
C1052 C1053 1.377 . S
C1053 H1037 0.930 . S
C1053 C1052 1.377 . S
C1053 C1054 1.379 . S
C1054 H1038 0.931 . S
C1054 C1048 1.383 . S
C1054 C1053 1.379 . S
H1055 C1049 0.959 . S
H1056 C1049 0.961 . S
H1057 C1049 0.960 . S
H1058 C1050 0.930 . S
H1059 C1051 0.929 . S
H1060 C1068 0.929 . S
H1061 C1070 0.930 . S
H1062 C1072 0.930 . S
H1063 C1075 0.929 . S
H1064 C1078 0.930 . S
H1065 C1080 0.960 . S
H1066 C1080 0.960 . S
H1067 C1080 0.960 . S
C1068 H1060 0.929 . S
C1068 C1069 1.377 . S
C1068 C1070 1.384 . S
C1069 C1068 1.377 . S
C1069 C1075 1.390 . S
C1070 H1061 0.930 . S
C1070 C1068 1.384 . S
C1070 C1071 1.372 . S
C1071 C1070 1.372 . S
C1071 C1072 1.400 . S
C1071 C1076 1.490 . S
C1072 H1062 0.930 . S
C1072 C1071 1.400 . S
C1072 C1075 1.386 . S
H1073 C1089 0.930 . S
H1074 C1090 0.931 . S
C1075 H1063 0.929 . S
C1075 C1069 1.390 . S
C1075 C1072 1.386 . S
C1076 C1071 1.490 . S
C1076 C1078 1.395 . S
C1076 C1079 1.403 . S
H1077 C1083 0.930 . S
C1078 H1064 0.930 . S
C1078 C1076 1.395 . S
C1078 C1081 1.403 . S
C1079 C1076 1.403 . S
C1079 C1080 1.524 . S
C1079 C1083 1.400 . S
C1080 H1065 0.960 . S
C1080 H1066 0.960 . S
C1080 H1067 0.960 . S
C1080 C1079 1.524 . S
C1081 C1078 1.403 . S
C1081 C1082 1.392 . S
C1081 C1085 1.495 . S
C1082 C1081 1.392 . S
C1082 C1083 1.385 . S
C1082 C1084 1.478 . S
C1083 H1077 0.930 . S
C1083 C1079 1.400 . S
C1083 C1082 1.385 . S
C1084 C1082 1.478 . S
C1084 C1086 1.381 . S
C1084 C1090 1.383 . S
C1085 C1081 1.495 . S
C1085 H1091 0.959 . S
C1085 H1092 0.961 . S
C1085 H1093 0.960 . S
C1086 C1084 1.381 . S
C1086 C1087 1.394 1_545 S
C1086 H1094 0.930 . S
C1087 C1086 1.394 1_565 S
C1087 C1088 1.383 . S
C1087 H1095 0.929 . S
C1088 C1087 1.383 . S
C1088 C1089 1.377 . S
C1089 H1073 0.930 . S
C1089 C1088 1.377 . S
C1089 C1090 1.379 1_565 S
C1090 H1074 0.931 . S
C1090 C1084 1.383 . S
C1090 C1089 1.379 1_545 S
H1091 C1085 0.959 . S
H1092 C1085 0.961 . S
H1093 C1085 0.960 . S
H1094 C1086 0.930 . S
H1095 C1087 0.929 . S
H1096 C1104 0.929 . S
H1097 C1106 0.930 . S
H1098 C1108 0.930 . S
H1099 C1111 0.929 . S
H1100 C1114 0.930 . S
H1101 C1116 0.960 . S
H1102 C1116 0.960 . S
H1103 C1116 0.962 1_565 S
C1104 H1096 0.929 . S
C1104 C1105 1.377 1_545 S
C1104 C1106 1.384 . S
C1105 C1104 1.377 1_565 S
C1105 C1111 1.390 . S
C1106 H1097 0.930 . S
C1106 C1104 1.384 . S
C1106 C1107 1.372 . S
C1107 C1106 1.372 . S
C1107 C1108 1.400 1_545 S
C1107 C1112 1.490 . S
C1108 H1098 0.930 . S
C1108 C1107 1.400 1_565 S
C1108 C1111 1.386 . S
H1109 C1125 0.930 . S
H1110 C1126 0.931 . S
C1111 H1099 0.929 . S
C1111 C1105 1.390 . S
C1111 C1108 1.386 . S
C1112 C1107 1.490 . S
C1112 C1114 1.395 . S
C1112 C1115 1.403 . S
H1113 C1119 0.930 . S
C1114 H1100 0.930 . S
C1114 C1112 1.395 . S
C1114 C1117 1.403 . S
C1115 C1112 1.403 . S
C1115 C1116 1.524 . S
C1115 C1119 1.400 . S
C1116 H1101 0.960 . S
C1116 H1102 0.960 . S
C1116 H1103 0.962 1_545 S
C1116 C1115 1.524 . S
C1117 C1114 1.403 . S
C1117 C1118 1.392 . S
C1117 C1121 1.495 . S
C1118 C1117 1.392 . S
C1118 C1119 1.385 . S
C1118 C1120 1.478 . S
C1119 H1113 0.930 . S
C1119 C1115 1.400 . S
C1119 C1118 1.385 . S
C1120 C1118 1.478 . S
C1120 C1122 1.381 . S
C1120 C1126 1.383 . S
C1121 C1117 1.495 . S
C1121 H1127 0.959 . S
C1121 H1128 0.961 . S
C1121 H1129 0.960 . S
C1122 C1120 1.381 . S
C1122 C1123 1.394 . S
C1122 H1130 0.930 . S
C1123 C1122 1.394 . S
C1123 C1124 1.383 . S
C1123 H1131 0.929 . S
C1124 C1123 1.383 . S
C1124 C1125 1.377 . S
C1125 H1109 0.930 . S
C1125 C1124 1.377 . S
C1125 C1126 1.379 . S
C1126 H1110 0.931 . S
C1126 C1120 1.383 . S
C1126 C1125 1.379 . S
H1127 C1121 0.959 . S
H1128 C1121 0.961 . S
H1129 C1121 0.960 . S
H1130 C1122 0.930 . S
H1131 C1123 0.929 . S
H1132 C1140 0.929 . S
H1133 C1142 0.930 . S
H1134 C1144 0.930 . S
H1135 C1147 0.929 . S
H1136 C1150 0.930 . S
H1137 C1152 0.960 . S
H1138 C1152 0.973 . S
H1139 C1152 0.960 1_545 S
C1140 H1132 0.929 . S
C1140 C1141 1.377 1_565 S
C1140 C1142 1.384 . S
C1141 C1140 1.377 1_545 S
C1141 C1147 1.390 . S
C1142 H1133 0.930 . S
C1142 C1140 1.384 . S
C1142 C1143 1.372 . S
C1143 C1142 1.372 . S
C1143 C1144 1.400 . S
C1143 C1148 1.490 . S
C1144 H1134 0.930 . S
C1144 C1143 1.400 . S
C1144 C1147 1.386 1_565 S
H1145 C1161 0.930 . S
H1146 C1162 0.931 . S
C1147 H1135 0.929 . S
C1147 C1141 1.390 . S
C1147 C1144 1.386 1_545 S
C1148 C1143 1.490 . S
C1148 C1150 1.395 . S
C1148 C1151 1.403 . S
H1149 C1155 0.930 . S
C1150 H1136 0.930 . S
C1150 C1148 1.395 . S
C1150 C1153 1.403 . S
C1151 C1148 1.403 . S
C1151 C1152 1.524 . S
C1151 C1155 1.400 . S
C1152 H1137 0.960 . S
C1152 H1138 0.973 . S
C1152 H1139 0.960 1_565 S
C1152 C1151 1.524 . S
C1153 C1150 1.403 . S
C1153 C1154 1.392 . S
C1153 C1157 1.495 . S
C1154 C1153 1.392 . S
C1154 C1155 1.385 . S
C1154 C1156 1.478 . S
C1155 H1149 0.930 . S
C1155 C1151 1.400 . S
C1155 C1154 1.385 . S
C1156 C1154 1.478 . S
C1156 C1158 1.381 . S
C1156 C1162 1.383 . S
C1157 C1153 1.495 . S
C1157 H1163 0.959 . S
C1157 H1164 0.961 . S
C1157 H1165 0.960 . S
C1158 C1156 1.381 . S
C1158 C1159 1.394 . S
C1158 H1166 0.930 . S
C1159 C1158 1.394 . S
C1159 C1160 1.383 . S
C1159 H1167 0.929 . S
C1160 C1159 1.383 . S
C1160 C1161 1.377 . S
C1161 H1145 0.930 . S
C1161 C1160 1.377 . S
C1161 C1162 1.379 . S
C1162 H1146 0.931 . S
C1162 C1156 1.383 . S
C1162 C1161 1.379 . S
H1163 C1157 0.959 . S
H1164 C1157 0.961 . S
H1165 C1157 0.960 . S
H1166 C1158 0.930 . S
H1167 C1159 0.929 . S
H1168 C1176 0.929 . S
H1169 C1178 0.930 . S
H1170 C1180 0.930 . S
H1171 C1183 0.929 . S
H1172 C1186 0.930 . S
H1173 C1188 0.960 . S
H1174 C1188 0.960 . S
H1175 C1188 0.960 . S
C1176 H1168 0.929 . S
C1176 C1177 1.377 . S
C1176 C1178 1.384 . S
C1177 C1176 1.377 . S
C1177 C1183 1.390 . S
C1178 H1169 0.930 . S
C1178 C1176 1.384 . S
C1178 C1179 1.372 . S
C1179 C1178 1.372 . S
C1179 C1180 1.400 . S
C1179 C1184 1.490 . S
C1180 H1170 0.930 . S
C1180 C1179 1.400 . S
C1180 C1183 1.386 . S
H1181 C1197 0.930 . S
H1182 C1198 0.931 . S
C1183 H1171 0.929 . S
C1183 C1177 1.390 . S
C1183 C1180 1.386 . S
C1184 C1179 1.490 . S
C1184 C1186 1.395 . S
C1184 C1187 1.403 . S
H1185 C1191 0.930 . S
C1186 H1172 0.930 . S
C1186 C1184 1.395 . S
C1186 C1189 1.403 . S
C1187 C1184 1.403 . S
C1187 C1188 1.524 . S
C1187 C1191 1.400 . S
C1188 H1173 0.960 . S
C1188 H1174 0.960 . S
C1188 H1175 0.960 . S
C1188 C1187 1.524 . S
C1189 C1186 1.403 . S
C1189 C1190 1.392 . S
C1189 C1193 1.495 . S
C1190 C1189 1.392 . S
C1190 C1191 1.385 . S
C1190 C1192 1.478 . S
C1191 H1185 0.930 . S
C1191 C1187 1.400 . S
C1191 C1190 1.385 . S
C1192 C1190 1.478 . S
C1192 C1194 1.381 . S
C1192 C1198 1.383 . S
C1193 C1189 1.495 . S
C1193 H1199 0.959 . S
C1193 H1200 0.961 . S
C1193 H1201 0.960 . S
C1194 C1192 1.381 . S
C1194 C1195 1.394 1_545 S
C1194 H1202 0.930 . S
C1195 C1194 1.394 1_565 S
C1195 C1196 1.383 . S
C1195 H1203 0.929 . S
C1196 C1195 1.383 . S
C1196 C1197 1.377 1_565 S
C1197 H1181 0.930 . S
C1197 C1196 1.377 1_545 S
C1197 C1198 1.379 . S
C1198 H1182 0.931 . S
C1198 C1192 1.383 . S
C1198 C1197 1.379 . S
H1199 C1193 0.959 . S
H1200 C1193 0.961 . S
H1201 C1193 0.960 . S
H1202 C1194 0.930 . S
H1203 C1195 0.929 . S
H1204 C1212 0.929 . S
H1205 C1214 0.927 1_545 S
H1206 C1216 0.930 . S
H1207 C1219 0.929 . S
H1208 C1222 0.930 . S
H1209 C1224 0.960 . S
H1210 C1224 0.960 . S
H1211 C1224 0.960 . S
C1212 H1204 0.929 . S
C1212 C1213 1.377 . S
C1212 C1214 1.366 1_545 S
C1213 C1212 1.377 . S
C1213 C1219 1.390 1_545 S
C1214 H1205 0.927 1_565 S
C1214 C1212 1.366 1_565 S
C1214 C1215 1.393 . S
C1215 C1214 1.393 . S
C1215 C1216 1.400 . S
C1215 C1220 1.490 . S
C1216 H1206 0.930 . S
C1216 C1215 1.400 . S
C1216 C1219 1.386 . S
H1217 C1233 0.930 . S
H1218 C1234 0.931 . S
C1219 H1207 0.929 . S
C1219 C1213 1.390 1_565 S
C1219 C1216 1.386 . S
C1220 C1215 1.490 . S
C1220 C1222 1.395 . S
C1220 C1223 1.403 . S
H1221 C1227 0.930 . S
C1222 H1208 0.930 . S
C1222 C1220 1.395 . S
C1222 C1225 1.403 . S
C1223 C1220 1.403 . S
C1223 C1224 1.524 . S
C1223 C1227 1.400 . S
C1224 H1209 0.960 . S
C1224 H1210 0.960 . S
C1224 H1211 0.960 . S
C1224 C1223 1.524 . S
C1225 C1222 1.403 . S
C1225 C1226 1.392 . S
C1225 C1229 1.495 . S
C1226 C1225 1.392 . S
C1226 C1227 1.385 . S
C1226 C1228 1.478 . S
C1227 H1221 0.930 . S
C1227 C1223 1.400 . S
C1227 C1226 1.385 . S
C1228 C1226 1.478 . S
C1228 C1230 1.381 . S
C1228 C1234 1.383 . S
C1229 C1225 1.495 . S
C1229 H1235 0.959 . S
C1229 H1236 0.961 . S
C1229 H1237 0.960 . S
C1230 C1228 1.381 . S
C1230 C1231 1.394 . S
C1230 H1238 0.930 . S
C1231 C1230 1.394 . S
C1231 C1232 1.383 . S
C1231 H1239 0.929 . S
C1232 C1231 1.383 . S
C1232 C1233 1.377 . S
C1233 H1217 0.930 . S
C1233 C1232 1.377 . S
C1233 C1234 1.379 . S
C1234 H1218 0.931 . S
C1234 C1228 1.383 . S
C1234 C1233 1.379 . S
H1235 C1229 0.959 . S
H1236 C1229 0.961 . S
H1237 C1229 0.960 . S
H1238 C1230 0.930 . S
H1239 C1231 0.929 . S
H1240 C1248 0.929 . S
H1241 C1250 0.930 . S
H1242 C1252 0.930 . S
H1243 C1255 0.929 . S
H1244 C1258 0.930 . S
H1245 C1260 0.960 . S
H1246 C1260 0.960 . S
H1247 C1260 0.960 . S
C1248 H1240 0.929 . S
C1248 C1249 1.377 . S
C1248 C1250 1.384 . S
C1249 C1248 1.377 . S
C1249 C1255 1.390 . S
C1250 H1241 0.930 . S
C1250 C1248 1.384 . S
C1250 C1251 1.372 . S
C1251 C1250 1.372 . S
C1251 C1252 1.400 . S
C1251 C1256 1.490 . S
C1252 H1242 0.930 . S
C1252 C1251 1.400 . S
C1252 C1255 1.386 . S
H1253 C1269 0.930 . S
H1254 C1270 0.931 . S
C1255 H1243 0.929 . S
C1255 C1249 1.390 . S
C1255 C1252 1.386 . S
C1256 C1251 1.490 . S
C1256 C1258 1.395 . S
C1256 C1259 1.403 . S
H1257 C1263 0.930 . S
C1258 H1244 0.930 . S
C1258 C1256 1.395 . S
C1258 C1261 1.403 . S
C1259 C1256 1.403 . S
C1259 C1260 1.524 . S
C1259 C1263 1.400 . S
C1260 H1245 0.960 . S
C1260 H1246 0.960 . S
C1260 H1247 0.960 . S
C1260 C1259 1.524 . S
C1261 C1258 1.403 . S
C1261 C1262 1.392 . S
C1261 C1265 1.495 . S
C1262 C1261 1.392 . S
C1262 C1263 1.385 . S
C1262 C1264 1.478 . S
C1263 H1257 0.930 . S
C1263 C1259 1.400 . S
C1263 C1262 1.385 . S
C1264 C1262 1.478 . S
C1264 C1266 1.381 . S
C1264 C1270 1.383 . S
C1265 C1261 1.495 . S
C1265 H1271 0.959 . S
C1265 H1272 0.961 . S
C1265 H1273 0.960 . S
C1266 C1264 1.381 . S
C1266 C1267 1.394 1_565 S
C1266 H1274 0.933 . S
C1267 C1266 1.394 1_545 S
C1267 C1268 1.383 . S
C1267 H1275 0.929 . S
C1268 C1267 1.383 . S
C1268 C1269 1.377 1_545 S
C1269 H1253 0.930 . S
C1269 C1268 1.377 1_565 S
C1269 C1270 1.379 . S
C1270 H1254 0.931 . S
C1270 C1264 1.383 . S
C1270 C1269 1.379 . S
H1271 C1265 0.959 . S
H1272 C1265 0.961 . S
H1273 C1265 0.960 . S
H1274 C1266 0.933 . S
H1275 C1267 0.929 . S
H1276 C1284 0.929 . S
H1277 C1286 0.930 . S
H1278 C1288 0.930 . S
H1279 C1291 0.929 . S
H1280 C1294 0.930 . S
H1281 C1296 0.960 . S
H1282 C1296 0.960 . S
H1283 C1296 0.960 . S
C1284 H1276 0.929 . S
C1284 C1285 1.377 . S
C1284 C1286 1.384 . S
C1285 C1284 1.377 . S
C1285 C1291 1.390 . S
C1286 H1277 0.930 . S
C1286 C1284 1.384 . S
C1286 C1287 1.372 . S
C1287 C1286 1.372 . S
C1287 C1288 1.400 . S
C1287 C1292 1.490 . S
C1288 H1278 0.930 . S
C1288 C1287 1.400 . S
C1288 C1291 1.386 . S
H1289 C1305 0.930 . S
H1290 C1306 0.931 . S
C1291 H1279 0.929 . S
C1291 C1285 1.390 . S
C1291 C1288 1.386 . S
C1292 C1287 1.490 . S
C1292 C1294 1.395 . S
C1292 C1295 1.403 . S
H1293 C1299 0.930 . S
C1294 H1280 0.930 . S
C1294 C1292 1.395 . S
C1294 C1297 1.403 . S
C1295 C1292 1.403 . S
C1295 C1296 1.524 . S
C1295 C1299 1.400 . S
C1296 H1281 0.960 . S
C1296 H1282 0.960 . S
C1296 H1283 0.960 . S
C1296 C1295 1.524 . S
C1297 C1294 1.403 . S
C1297 C1298 1.392 . S
C1297 C1301 1.495 . S
C1298 C1297 1.392 . S
C1298 C1299 1.385 . S
C1298 C1300 1.478 . S
C1299 H1293 0.930 . S
C1299 C1295 1.400 . S
C1299 C1298 1.385 . S
C1300 C1298 1.478 . S
C1300 C1302 1.381 . S
C1300 C1306 1.381 1_545 S
C1301 C1297 1.495 . S
C1301 H1307 0.959 . S
C1301 H1308 0.961 . S
C1301 H1309 0.960 . S
C1302 C1300 1.381 . S
C1302 C1303 1.394 . S
C1302 H1310 0.930 . S
C1303 C1302 1.394 . S
C1303 C1304 1.383 1_545 S
C1303 H1311 0.929 . S
C1304 C1303 1.383 1_565 S
C1304 C1305 1.377 . S
C1305 H1289 0.930 . S
C1305 C1304 1.377 . S
C1305 C1306 1.381 . S
C1306 H1290 0.931 . S
C1306 C1300 1.381 1_565 S
C1306 C1305 1.381 . S
H1307 C1301 0.959 . S
H1308 C1301 0.961 . S
H1309 C1301 0.960 . S
H1310 C1302 0.930 . S
H1311 C1303 0.929 . S
H1312 C1320 0.929 . S
H1313 C1322 0.930 . S
H1314 C1324 0.930 . S
H1315 C1327 0.929 . S
H1316 C1330 0.930 . S
H1317 C1332 0.960 . S
H1318 C1332 0.960 . S
H1319 C1332 0.960 . S
C1320 H1312 0.929 . S
C1320 C1321 1.377 . S
C1320 C1322 1.384 . S
C1321 C1320 1.377 . S
C1321 C1327 1.390 . S
C1322 H1313 0.930 . S
C1322 C1320 1.384 . S
C1322 C1323 1.372 . S
C1323 C1322 1.372 . S
C1323 C1324 1.400 . S
C1323 C1328 1.490 . S
C1324 H1314 0.930 . S
C1324 C1323 1.400 . S
C1324 C1327 1.386 . S
H1325 C1341 0.930 . S
H1326 C1342 0.931 . S
C1327 H1315 0.929 . S
C1327 C1321 1.390 . S
C1327 C1324 1.386 . S
C1328 C1323 1.490 . S
C1328 C1330 1.395 . S
C1328 C1331 1.403 . S
H1329 C1335 0.930 . S
C1330 H1316 0.930 . S
C1330 C1328 1.395 . S
C1330 C1333 1.403 . S
C1331 C1328 1.403 . S
C1331 C1332 1.524 . S
C1331 C1335 1.400 . S
C1332 H1317 0.960 . S
C1332 H1318 0.960 . S
C1332 H1319 0.960 . S
C1332 C1331 1.524 . S
C1333 C1330 1.403 . S
C1333 C1334 1.392 . S
C1333 C1337 1.495 . S
C1334 C1333 1.392 . S
C1334 C1335 1.385 . S
C1334 C1336 1.478 . S
C1335 H1329 0.930 . S
C1335 C1331 1.400 . S
C1335 C1334 1.385 . S
C1336 C1334 1.478 . S
C1336 C1338 1.381 . S
C1336 C1342 1.383 . S
C1337 C1333 1.495 . S
C1337 H1343 0.959 . S
C1337 H1344 0.961 . S
C1337 H1345 0.960 . S
C1338 C1336 1.381 . S
C1338 C1339 1.394 . S
C1338 H1346 0.930 . S
C1339 C1338 1.394 . S
C1339 C1340 1.383 . S
C1339 H1347 0.929 . S
C1340 C1339 1.383 . S
C1340 C1341 1.377 . S
C1341 H1325 0.930 . S
C1341 C1340 1.377 . S
C1341 C1342 1.379 . S
C1342 H1326 0.931 . S
C1342 C1336 1.383 . S
C1342 C1341 1.379 . S
H1343 C1337 0.959 . S
H1344 C1337 0.961 . S
H1345 C1337 0.960 . S
H1346 C1338 0.930 . S
H1347 C1339 0.929 . S
H1348 C1356 0.929 . S
H1349 C1358 0.930 . S
H1350 C1360 0.930 . S
H1351 C1363 0.929 . S
H1352 C1366 0.930 . S
H1353 C1368 0.960 . S
H1354 C1368 0.960 . S
H1355 C1368 0.960 . S
C1356 H1348 0.929 . S
C1356 C1357 1.377 . S
C1356 C1358 1.384 . S
C1357 C1356 1.377 . S
C1357 C1363 1.390 . S
C1358 H1349 0.930 . S
C1358 C1356 1.384 . S
C1358 C1359 1.372 . S
C1359 C1358 1.372 . S
C1359 C1360 1.400 . S
C1359 C1364 1.490 . S
C1360 H1350 0.930 . S
C1360 C1359 1.400 . S
C1360 C1363 1.386 . S
H1361 C1377 0.930 . S
H1362 C1378 0.931 . S
C1363 H1351 0.929 . S
C1363 C1357 1.390 . S
C1363 C1360 1.386 . S
C1364 C1359 1.490 . S
C1364 C1366 1.395 . S
C1364 C1367 1.403 . S
H1365 C1371 0.930 . S
C1366 H1352 0.930 . S
C1366 C1364 1.395 . S
C1366 C1369 1.403 . S
C1367 C1364 1.403 . S
C1367 C1368 1.524 . S
C1367 C1371 1.400 . S
C1368 H1353 0.960 . S
C1368 H1354 0.960 . S
C1368 H1355 0.960 . S
C1368 C1367 1.524 . S
C1369 C1366 1.403 . S
C1369 C1370 1.392 . S
C1369 C1373 1.495 . S
C1370 C1369 1.392 . S
C1370 C1371 1.385 . S
C1370 C1372 1.478 . S
C1371 H1365 0.930 . S
C1371 C1367 1.400 . S
C1371 C1370 1.385 . S
C1372 C1370 1.478 . S
C1372 C1374 1.381 . S
C1372 C1378 1.383 . S
C1373 C1369 1.495 . S
C1373 H1379 0.959 . S
C1373 H1380 0.961 . S
C1373 H1381 0.960 . S
C1374 C1372 1.381 . S
C1374 C1375 1.394 . S
C1374 H1382 0.930 . S
C1375 C1374 1.394 . S
C1375 C1376 1.383 . S
C1375 H1383 0.929 . S
C1376 C1375 1.383 . S
C1376 C1377 1.377 . S
C1377 H1361 0.930 . S
C1377 C1376 1.377 . S
C1377 C1378 1.379 . S
C1378 H1362 0.931 . S
C1378 C1372 1.383 . S
C1378 C1377 1.379 . S
H1379 C1373 0.959 . S
H1380 C1373 0.961 . S
H1381 C1373 0.960 . S
H1382 C1374 0.930 . S
H1383 C1375 0.929 . S
H1384 C1392 0.929 . S
H1385 C1394 0.930 . S
H1386 C1396 0.930 . S
H1387 C1399 0.929 . S
H1388 C1402 0.930 . S
H1389 C1404 0.960 . S
H1390 C1404 0.960 . S
H1391 C1404 0.960 . S
C1392 H1384 0.929 . S
C1392 C1393 1.377 . S
C1392 C1394 1.384 . S
C1393 C1392 1.377 . S
C1393 C1399 1.390 . S
C1394 H1385 0.930 . S
C1394 C1392 1.384 . S
C1394 C1395 1.372 . S
C1395 C1394 1.372 . S
C1395 C1396 1.400 . S
C1395 C1400 1.490 . S
C1396 H1386 0.930 . S
C1396 C1395 1.400 . S
C1396 C1399 1.386 . S
H1397 C1413 0.930 . S
H1398 C1414 0.931 . S
C1399 H1387 0.929 . S
C1399 C1393 1.390 . S
C1399 C1396 1.386 . S
C1400 C1395 1.490 . S
C1400 C1402 1.395 . S
C1400 C1403 1.403 . S
H1401 C1407 0.930 . S
C1402 H1388 0.930 . S
C1402 C1400 1.395 . S
C1402 C1405 1.403 . S
C1403 C1400 1.403 . S
C1403 C1404 1.524 . S
C1403 C1407 1.400 . S
C1404 H1389 0.960 . S
C1404 H1390 0.960 . S
C1404 H1391 0.960 . S
C1404 C1403 1.524 . S
C1405 C1402 1.403 . S
C1405 C1406 1.392 . S
C1405 C1409 1.495 . S
C1406 C1405 1.392 . S
C1406 C1407 1.385 . S
C1406 C1408 1.478 . S
C1407 H1401 0.930 . S
C1407 C1403 1.400 . S
C1407 C1406 1.385 . S
C1408 C1406 1.478 . S
C1408 C1410 1.381 . S
C1408 C1414 1.383 . S
C1409 C1405 1.495 . S
C1409 H1415 0.959 . S
C1409 H1416 0.961 . S
C1409 H1417 0.960 . S
C1410 C1408 1.381 . S
C1410 C1411 1.394 . S
C1410 H1418 0.930 . S
C1411 C1410 1.394 . S
C1411 C1412 1.383 . S
C1411 H1419 0.929 . S
C1412 C1411 1.383 . S
C1412 C1413 1.377 . S
C1413 H1397 0.930 . S
C1413 C1412 1.377 . S
C1413 C1414 1.379 . S
C1414 H1398 0.931 . S
C1414 C1408 1.383 . S
C1414 C1413 1.379 . S
H1415 C1409 0.959 . S
H1416 C1409 0.961 . S
H1417 C1409 0.960 . S
H1418 C1410 0.930 . S
H1419 C1411 0.929 . S
H1420 C1428 0.929 . S
H1421 C1430 0.930 . S
H1422 C1432 0.930 . S
H1423 C1435 0.929 . S
H1424 C1438 0.930 . S
H1425 C1440 0.960 . S
H1426 C1440 0.960 . S
H1427 C1440 0.960 . S
C1428 H1420 0.929 . S
C1428 C1429 1.377 . S
C1428 C1430 1.384 . S
C1429 C1428 1.377 . S
C1429 C1435 1.390 . S
C1430 H1421 0.930 . S
C1430 C1428 1.384 . S
C1430 C1431 1.372 . S
C1431 C1430 1.372 . S
C1431 C1432 1.400 . S
C1431 C1436 1.490 . S
C1432 H1422 0.930 . S
C1432 C1431 1.400 . S
C1432 C1435 1.386 . S
H1433 C1449 0.930 . S
H1434 C1450 0.931 . S
C1435 H1423 0.929 . S
C1435 C1429 1.390 . S
C1435 C1432 1.386 . S
C1436 C1431 1.490 . S
C1436 C1438 1.395 . S
C1436 C1439 1.403 . S
H1437 C1443 0.930 . S
C1438 H1424 0.930 . S
C1438 C1436 1.395 . S
C1438 C1441 1.403 . S
C1439 C1436 1.403 . S
C1439 C1440 1.524 . S
C1439 C1443 1.400 . S
C1440 H1425 0.960 . S
C1440 H1426 0.960 . S
C1440 H1427 0.960 . S
C1440 C1439 1.524 . S
C1441 C1438 1.403 . S
C1441 C1442 1.392 . S
C1441 C1445 1.495 . S
C1442 C1441 1.392 . S
C1442 C1443 1.385 . S
C1442 C1444 1.478 . S
C1443 H1437 0.930 . S
C1443 C1439 1.400 . S
C1443 C1442 1.385 . S
C1444 C1442 1.478 . S
C1444 C1446 1.381 . S
C1444 C1450 1.383 . S
C1445 C1441 1.495 . S
C1445 H1451 0.959 . S
C1445 H1452 0.961 . S
C1445 H1453 0.960 . S
C1446 C1444 1.381 . S
C1446 C1447 1.394 . S
C1446 H1454 0.930 . S
C1447 C1446 1.394 . S
C1447 C1448 1.383 . S
C1447 H1455 0.929 . S
C1448 C1447 1.383 . S
C1448 C1449 1.377 . S
C1449 H1433 0.930 . S
C1449 C1448 1.377 . S
C1449 C1450 1.379 . S
C1450 H1434 0.931 . S
C1450 C1444 1.383 . S
C1450 C1449 1.379 . S
H1451 C1445 0.959 . S
H1452 C1445 0.961 . S
H1453 C1445 0.960 . S
H1454 C1446 0.930 . S
H1455 C1447 0.929 . S
H1456 C1464 0.929 . S
H1457 C1466 0.930 . S
H1458 C1468 0.930 . S
H1459 C1471 0.929 . S
H1460 C1474 0.930 . S
H1461 C1476 0.960 . S
H1462 C1476 0.960 . S
H1463 C1476 0.960 . S
C1464 H1456 0.929 . S
C1464 C1465 1.377 . S
C1464 C1466 1.384 . S
C1465 C1464 1.377 . S
C1465 C1471 1.390 . S
C1466 H1457 0.930 . S
C1466 C1464 1.384 . S
C1466 C1467 1.372 . S
C1467 C1466 1.372 . S
C1467 C1468 1.400 . S
C1467 C1472 1.490 . S
C1468 H1458 0.930 . S
C1468 C1467 1.400 . S
C1468 C1471 1.386 . S
H1469 C1485 0.930 . S
H1470 C1486 0.931 . S
C1471 H1459 0.929 . S
C1471 C1465 1.390 . S
C1471 C1468 1.386 . S
C1472 C1467 1.490 . S
C1472 C1474 1.395 . S
C1472 C1475 1.403 . S
H1473 C1479 0.930 . S
C1474 H1460 0.930 . S
C1474 C1472 1.395 . S
C1474 C1477 1.403 . S
C1475 C1472 1.403 . S
C1475 C1476 1.524 . S
C1475 C1479 1.400 . S
C1476 H1461 0.960 . S
C1476 H1462 0.960 . S
C1476 H1463 0.960 . S
C1476 C1475 1.524 . S
C1477 C1474 1.403 . S
C1477 C1478 1.392 . S
C1477 C1481 1.495 . S
C1478 C1477 1.392 . S
C1478 C1479 1.385 . S
C1478 C1480 1.478 . S
C1479 H1473 0.930 . S
C1479 C1475 1.400 . S
C1479 C1478 1.385 . S
C1480 C1478 1.478 . S
C1480 C1482 1.381 . S
C1480 C1486 1.383 . S
C1481 C1477 1.495 . S
C1481 H1487 0.959 . S
C1481 H1488 0.961 . S
C1481 H1489 0.960 . S
C1482 C1480 1.381 . S
C1482 C1483 1.394 . S
C1482 H1490 0.930 . S
C1483 C1482 1.394 . S
C1483 C1484 1.383 . S
C1483 H1491 0.929 . S
C1484 C1483 1.383 . S
C1484 C1485 1.377 . S
C1485 H1469 0.930 . S
C1485 C1484 1.377 . S
C1485 C1486 1.379 . S
C1486 H1470 0.931 . S
C1486 C1480 1.383 . S
C1486 C1485 1.379 . S
H1487 C1481 0.959 . S
H1488 C1481 0.961 . S
H1489 C1481 0.960 . S
H1490 C1482 0.930 . S
H1491 C1483 0.929 . S
H1492 C1500 0.929 . S
H1493 C1502 0.930 . S
H1494 C1504 0.930 . S
H1495 C1507 0.929 . S
H1496 C1510 0.930 . S
H1497 C1512 0.960 . S
H1498 C1512 0.960 . S
H1499 C1512 0.960 . S
C1500 H1492 0.929 . S
C1500 C1501 1.377 . S
C1500 C1502 1.384 . S
C1501 C1500 1.377 . S
C1501 C1507 1.390 . S
C1502 H1493 0.930 . S
C1502 C1500 1.384 . S
C1502 C1503 1.372 . S
C1503 C1502 1.372 . S
C1503 C1504 1.400 . S
C1503 C1508 1.490 . S
C1504 H1494 0.930 . S
C1504 C1503 1.400 . S
C1504 C1507 1.386 . S
H1505 C1521 0.930 . S
H1506 C1522 0.931 . S
C1507 H1495 0.929 . S
C1507 C1501 1.390 . S
C1507 C1504 1.386 . S
C1508 C1503 1.490 . S
C1508 C1510 1.395 . S
C1508 C1511 1.403 . S
H1509 C1515 0.930 . S
C1510 H1496 0.930 . S
C1510 C1508 1.395 . S
C1510 C1513 1.403 . S
C1511 C1508 1.403 . S
C1511 C1512 1.524 . S
C1511 C1515 1.400 . S
C1512 H1497 0.960 . S
C1512 H1498 0.960 . S
C1512 H1499 0.960 . S
C1512 C1511 1.524 . S
C1513 C1510 1.403 . S
C1513 C1514 1.392 . S
C1513 C1517 1.495 . S
C1514 C1513 1.392 . S
C1514 C1515 1.385 . S
C1514 C1516 1.478 . S
C1515 H1509 0.930 . S
C1515 C1511 1.400 . S
C1515 C1514 1.385 . S
C1516 C1514 1.478 . S
C1516 C1518 1.381 . S
C1516 C1522 1.383 . S
C1517 C1513 1.495 . S
C1517 H1523 0.959 . S
C1517 H1524 0.961 . S
C1517 H1525 0.960 . S
C1518 C1516 1.381 . S
C1518 C1519 1.394 . S
C1518 H1526 0.930 . S
C1519 C1518 1.394 . S
C1519 C1520 1.383 . S
C1519 H1527 0.929 . S
C1520 C1519 1.383 . S
C1520 C1521 1.377 . S
C1521 H1505 0.930 . S
C1521 C1520 1.377 . S
C1521 C1522 1.379 . S
C1522 H1506 0.931 . S
C1522 C1516 1.383 . S
C1522 C1521 1.379 . S
H1523 C1517 0.959 . S
H1524 C1517 0.961 . S
H1525 C1517 0.960 . S
H1526 C1518 0.930 . S
H1527 C1519 0.929 . S
H1528 C1536 0.929 . S
H1529 C1538 0.930 . S
H1530 C1540 0.930 . S
H1531 C1543 0.929 . S
H1532 C1546 0.930 . S
H1533 C1548 0.960 . S
H1534 C1548 0.960 . S
H1535 C1548 0.960 . S
C1536 H1528 0.929 . S
C1536 C1537 1.377 . S
C1536 C1538 1.384 . S
C1537 C1536 1.377 . S
C1537 C1543 1.390 . S
C1538 H1529 0.930 . S
C1538 C1536 1.384 . S
C1538 C1539 1.372 . S
C1539 C1538 1.372 . S
C1539 C1540 1.400 . S
C1539 C1544 1.490 . S
C1540 H1530 0.930 . S
C1540 C1539 1.400 . S
C1540 C1543 1.386 . S
H1541 C1557 0.930 . S
H1542 C1558 0.931 . S
C1543 H1531 0.929 . S
C1543 C1537 1.390 . S
C1543 C1540 1.386 . S
C1544 C1539 1.490 . S
C1544 C1546 1.395 . S
C1544 C1547 1.403 . S
H1545 C1551 0.930 . S
C1546 H1532 0.930 . S
C1546 C1544 1.395 . S
C1546 C1549 1.403 . S
C1547 C1544 1.403 . S
C1547 C1548 1.524 . S
C1547 C1551 1.400 . S
C1548 H1533 0.960 . S
C1548 H1534 0.960 . S
C1548 H1535 0.960 . S
C1548 C1547 1.524 . S
C1549 C1546 1.403 . S
C1549 C1550 1.392 . S
C1549 C1553 1.495 . S
C1550 C1549 1.392 . S
C1550 C1551 1.385 . S
C1550 C1552 1.478 . S
C1551 H1545 0.930 . S
C1551 C1547 1.400 . S
C1551 C1550 1.385 . S
C1552 C1550 1.478 . S
C1552 C1554 1.381 . S
C1552 C1558 1.383 . S
C1553 C1549 1.495 . S
C1553 H1559 0.959 . S
C1553 H1560 0.961 . S
C1553 H1561 0.960 . S
C1554 C1552 1.381 . S
C1554 C1555 1.394 . S
C1554 H1562 0.930 . S
C1555 C1554 1.394 . S
C1555 C1556 1.383 . S
C1555 H1563 0.929 . S
C1556 C1555 1.383 . S
C1556 C1557 1.377 . S
C1557 H1541 0.930 . S
C1557 C1556 1.377 . S
C1557 C1558 1.379 . S
C1558 H1542 0.931 . S
C1558 C1552 1.383 . S
C1558 C1557 1.379 . S
H1559 C1553 0.959 . S
H1560 C1553 0.961 . S
H1561 C1553 0.960 . S
H1562 C1554 0.930 . S
H1563 C1555 0.929 . S
H1564 C1572 0.929 . S
H1565 C1574 0.930 . S
H1566 C1576 0.930 . S
H1567 C1579 0.929 . S
H1568 C1582 0.930 . S
H1569 C1584 0.960 . S
H1570 C1584 0.960 . S
H1571 C1584 0.960 . S
C1572 H1564 0.929 . S
C1572 C1573 1.377 . S
C1572 C1574 1.384 . S
C1573 C1572 1.377 . S
C1573 C1579 1.390 . S
C1574 H1565 0.930 . S
C1574 C1572 1.384 . S
C1574 C1575 1.372 . S
C1575 C1574 1.372 . S
C1575 C1576 1.400 . S
C1575 C1580 1.490 . S
C1576 H1566 0.930 . S
C1576 C1575 1.400 . S
C1576 C1579 1.386 . S
H1577 C1593 0.930 . S
H1578 C1594 0.931 . S
C1579 H1567 0.929 . S
C1579 C1573 1.390 . S
C1579 C1576 1.386 . S
C1580 C1575 1.490 . S
C1580 C1582 1.395 . S
C1580 C1583 1.403 . S
H1581 C1587 0.930 . S
C1582 H1568 0.930 . S
C1582 C1580 1.395 . S
C1582 C1585 1.403 . S
C1583 C1580 1.403 . S
C1583 C1584 1.524 . S
C1583 C1587 1.400 . S
C1584 H1569 0.960 . S
C1584 H1570 0.960 . S
C1584 H1571 0.960 . S
C1584 C1583 1.524 . S
C1585 C1582 1.403 . S
C1585 C1586 1.392 . S
C1585 C1589 1.495 . S
C1586 C1585 1.392 . S
C1586 C1587 1.385 . S
C1586 C1588 1.478 . S
C1587 H1581 0.930 . S
C1587 C1583 1.400 . S
C1587 C1586 1.385 . S
C1588 C1586 1.478 . S
C1588 C1590 1.381 . S
C1588 C1594 1.383 . S
C1589 C1585 1.495 . S
C1589 H1595 0.959 . S
C1589 H1596 0.961 . S
C1589 H1597 0.960 . S
C1590 C1588 1.381 . S
C1590 C1591 1.394 . S
C1590 H1598 0.930 . S
C1591 C1590 1.394 . S
C1591 C1592 1.383 . S
C1591 H1599 0.929 . S
C1592 C1591 1.383 . S
C1592 C1593 1.377 . S
C1593 H1577 0.930 . S
C1593 C1592 1.377 . S
C1593 C1594 1.379 . S
C1594 H1578 0.931 . S
C1594 C1588 1.383 . S
C1594 C1593 1.379 . S
H1595 C1589 0.959 . S
H1596 C1589 0.961 . S
H1597 C1589 0.960 . S
H1598 C1590 0.930 . S
H1599 C1591 0.929 . S
H1600 C1608 0.929 . S
H1601 C1610 0.930 . S
H1602 C1612 0.930 . S
H1603 C1615 0.929 . S
H1604 C1618 0.930 . S
H1605 C1620 0.960 . S
H1606 C1620 0.960 . S
H1607 C1620 0.960 . S
C1608 H1600 0.929 . S
C1608 C1609 1.377 . S
C1608 C1610 1.384 . S
C1609 C1608 1.377 . S
C1609 C1615 1.390 . S
C1610 H1601 0.930 . S
C1610 C1608 1.384 . S
C1610 C1611 1.372 . S
C1611 C1610 1.372 . S
C1611 C1612 1.400 . S
C1611 C1616 1.490 . S
C1612 H1602 0.930 . S
C1612 C1611 1.400 . S
C1612 C1615 1.386 . S
H1613 C1629 0.930 . S
H1614 C1630 0.931 . S
C1615 H1603 0.929 . S
C1615 C1609 1.390 . S
C1615 C1612 1.386 . S
C1616 C1611 1.490 . S
C1616 C1618 1.395 . S
C1616 C1619 1.403 . S
H1617 C1623 0.930 . S
C1618 H1604 0.930 . S
C1618 C1616 1.395 . S
C1618 C1621 1.403 . S
C1619 C1616 1.403 . S
C1619 C1620 1.524 . S
C1619 C1623 1.400 . S
C1620 H1605 0.960 . S
C1620 H1606 0.960 . S
C1620 H1607 0.960 . S
C1620 C1619 1.524 . S
C1621 C1618 1.403 . S
C1621 C1622 1.392 . S
C1621 C1625 1.495 . S
C1622 C1621 1.392 . S
C1622 C1623 1.385 . S
C1622 C1624 1.478 . S
C1623 H1617 0.930 . S
C1623 C1619 1.400 . S
C1623 C1622 1.385 . S
C1624 C1622 1.478 . S
C1624 C1626 1.381 . S
C1624 C1630 1.383 . S
C1625 C1621 1.495 . S
C1625 H1631 0.959 . S
C1625 H1632 0.961 . S
C1625 H1633 0.960 . S
C1626 C1624 1.381 . S
C1626 C1627 1.394 . S
C1626 H1634 0.930 . S
C1627 C1626 1.394 . S
C1627 C1628 1.383 . S
C1627 H1635 0.929 . S
C1628 C1627 1.383 . S
C1628 C1629 1.377 . S
C1629 H1613 0.930 . S
C1629 C1628 1.377 . S
C1629 C1630 1.379 . S
C1630 H1614 0.931 . S
C1630 C1624 1.383 . S
C1630 C1629 1.379 . S
H1631 C1625 0.959 . S
H1632 C1625 0.961 . S
H1633 C1625 0.960 . S
H1634 C1626 0.930 . S
H1635 C1627 0.929 . S
H1636 C1644 0.929 . S
H1637 C1646 0.930 . S
H1638 C1648 0.930 . S
H1639 C1651 0.929 . S
H1640 C1654 0.930 . S
H1641 C1656 0.960 . S
H1642 C1656 0.960 . S
H1643 C1656 0.960 . S
C1644 H1636 0.929 . S
C1644 C1645 1.377 . S
C1644 C1646 1.384 . S
C1645 C1644 1.377 . S
C1645 C1651 1.390 . S
C1646 H1637 0.930 . S
C1646 C1644 1.384 . S
C1646 C1647 1.372 . S
C1647 C1646 1.372 . S
C1647 C1648 1.400 . S
C1647 C1652 1.490 . S
C1648 H1638 0.930 . S
C1648 C1647 1.400 . S
C1648 C1651 1.386 . S
H1649 C1665 0.930 . S
H1650 C1666 0.931 . S
C1651 H1639 0.929 . S
C1651 C1645 1.390 . S
C1651 C1648 1.386 . S
C1652 C1647 1.490 . S
C1652 C1654 1.395 . S
C1652 C1655 1.403 . S
H1653 C1659 0.930 . S
C1654 H1640 0.930 . S
C1654 C1652 1.395 . S
C1654 C1657 1.403 . S
C1655 C1652 1.403 . S
C1655 C1656 1.524 . S
C1655 C1659 1.400 . S
C1656 H1641 0.960 . S
C1656 H1642 0.960 . S
C1656 H1643 0.960 . S
C1656 C1655 1.524 . S
C1657 C1654 1.403 . S
C1657 C1658 1.392 . S
C1657 C1661 1.495 . S
C1658 C1657 1.392 . S
C1658 C1659 1.385 . S
C1658 C1660 1.478 . S
C1659 H1653 0.930 . S
C1659 C1655 1.400 . S
C1659 C1658 1.385 . S
C1660 C1658 1.478 . S
C1660 C1662 1.381 . S
C1660 C1666 1.383 1_455 S
C1661 C1657 1.495 . S
C1661 H1667 0.959 . S
C1661 H1668 0.961 . S
C1661 H1669 0.960 . S
C1662 C1660 1.381 . S
C1662 C1663 1.394 1_455 S
C1662 H1670 0.930 . S
C1663 C1662 1.394 1_655 S
C1663 C1664 1.383 . S
C1663 H1671 0.929 . S
C1664 C1663 1.383 . S
C1664 C1665 1.377 . S
C1665 H1649 0.930 . S
C1665 C1664 1.377 . S
C1665 C1666 1.379 . S
C1666 H1650 0.931 . S
C1666 C1660 1.383 1_655 S
C1666 C1665 1.379 . S
H1667 C1661 0.959 . S
H1668 C1661 0.961 . S
H1669 C1661 0.960 . S
H1670 C1662 0.930 . S
H1671 C1663 0.929 . S
H1672 C1680 0.929 . S
H1673 C1682 0.930 . S
H1674 C1684 0.930 . S
H1675 C1687 0.929 . S
H1676 C1690 0.930 . S
H1677 C1692 0.960 . S
H1678 C1692 0.960 . S
H1679 C1692 0.960 . S
C1680 H1672 0.929 . S
C1680 C1681 1.377 . S
C1680 C1682 1.384 . S
C1681 C1680 1.377 . S
C1681 C1687 1.390 . S
C1682 H1673 0.930 . S
C1682 C1680 1.384 . S
C1682 C1683 1.372 . S
C1683 C1682 1.372 . S
C1683 C1684 1.400 . S
C1683 C1688 1.490 . S
C1684 H1674 0.930 . S
C1684 C1683 1.400 . S
C1684 C1687 1.386 . S
H1685 C1701 0.930 . S
H1686 C1702 0.931 . S
C1687 H1675 0.929 . S
C1687 C1681 1.390 . S
C1687 C1684 1.386 . S
C1688 C1683 1.490 . S
C1688 C1690 1.395 . S
C1688 C1691 1.403 . S
H1689 C1695 0.930 . S
C1690 H1676 0.930 . S
C1690 C1688 1.395 . S
C1690 C1693 1.403 . S
C1691 C1688 1.403 . S
C1691 C1692 1.524 . S
C1691 C1695 1.400 . S
C1692 H1677 0.960 . S
C1692 H1678 0.960 . S
C1692 H1679 0.960 . S
C1692 C1691 1.524 . S
C1693 C1690 1.403 . S
C1693 C1694 1.392 . S
C1693 C1697 1.495 . S
C1694 C1693 1.392 . S
C1694 C1695 1.385 . S
C1694 C1696 1.478 . S
C1695 H1689 0.930 . S
C1695 C1691 1.400 . S
C1695 C1694 1.385 . S
C1696 C1694 1.478 . S
C1696 C1698 1.381 . S
C1696 C1702 1.383 . S
C1697 C1693 1.495 . S
C1697 H1703 0.959 . S
C1697 H1704 0.961 . S
C1697 H1705 0.960 . S
C1698 C1696 1.381 . S
C1698 C1699 1.394 . S
C1698 H1706 0.930 . S
C1699 C1698 1.394 . S
C1699 C1700 1.383 . S
C1699 H1707 0.929 . S
C1700 C1699 1.383 . S
C1700 C1701 1.377 . S
C1701 H1685 0.930 . S
C1701 C1700 1.377 . S
C1701 C1702 1.379 . S
C1702 H1686 0.931 . S
C1702 C1696 1.383 . S
C1702 C1701 1.379 . S
H1703 C1697 0.959 . S
H1704 C1697 0.961 . S
H1705 C1697 0.960 . S
H1706 C1698 0.930 . S
H1707 C1699 0.929 . S
H1708 C1716 0.929 . S
H1709 C1718 0.930 . S
H1710 C1720 0.930 . S
H1711 C1723 0.929 . S
H1712 C1726 0.930 . S
H1713 C1728 0.960 . S
H1714 C1728 0.960 . S
H1715 C1728 0.960 . S
C1716 H1708 0.929 . S
C1716 C1717 1.377 . S
C1716 C1718 1.384 . S
C1717 C1716 1.377 . S
C1717 C1723 1.390 . S
C1718 H1709 0.930 . S
C1718 C1716 1.384 . S
C1718 C1719 1.372 . S
C1719 C1718 1.372 . S
C1719 C1720 1.400 . S
C1719 C1724 1.490 . S
C1720 H1710 0.930 . S
C1720 C1719 1.400 . S
C1720 C1723 1.386 . S
H1721 C1737 0.930 . S
H1722 C1738 0.931 . S
C1723 H1711 0.929 . S
C1723 C1717 1.390 . S
C1723 C1720 1.386 . S
C1724 C1719 1.490 . S
C1724 C1726 1.395 . S
C1724 C1727 1.403 . S
H1725 C1731 0.930 . S
C1726 H1712 0.930 . S
C1726 C1724 1.395 . S
C1726 C1729 1.403 . S
C1727 C1724 1.403 . S
C1727 C1728 1.524 . S
C1727 C1731 1.400 . S
C1728 H1713 0.960 . S
C1728 H1714 0.960 . S
C1728 H1715 0.960 . S
C1728 C1727 1.524 . S
C1729 C1726 1.403 . S
C1729 C1730 1.392 . S
C1729 C1733 1.495 . S
C1730 C1729 1.392 . S
C1730 C1731 1.385 . S
C1730 C1732 1.478 . S
C1731 H1725 0.930 . S
C1731 C1727 1.400 . S
C1731 C1730 1.385 . S
C1732 C1730 1.478 . S
C1732 C1734 1.381 . S
C1732 C1738 1.383 . S
C1733 C1729 1.495 . S
C1733 H1739 0.959 . S
C1733 H1740 0.961 . S
C1733 H1741 0.960 . S
C1734 C1732 1.381 . S
C1734 C1735 1.394 . S
C1734 H1742 0.930 . S
C1735 C1734 1.394 . S
C1735 C1736 1.383 . S
C1735 H1743 0.929 . S
C1736 C1735 1.383 . S
C1736 C1737 1.377 . S
C1737 H1721 0.930 . S
C1737 C1736 1.377 . S
C1737 C1738 1.379 . S
C1738 H1722 0.931 . S
C1738 C1732 1.383 . S
C1738 C1737 1.379 . S
H1739 C1733 0.959 . S
H1740 C1733 0.961 . S
H1741 C1733 0.960 . S
H1742 C1734 0.930 . S
H1743 C1735 0.929 . S
H1744 C1752 0.929 . S
H1745 C1754 0.930 . S
H1746 C1756 0.930 . S
H1747 C1759 0.929 . S
H1748 C1762 0.930 . S
H1749 C1764 0.960 . S
H1750 C1764 0.960 . S
H1751 C1764 0.960 . S
C1752 H1744 0.929 . S
C1752 C1753 1.377 . S
C1752 C1754 1.384 . S
C1753 C1752 1.377 . S
C1753 C1759 1.390 . S
C1754 H1745 0.930 . S
C1754 C1752 1.384 . S
C1754 C1755 1.372 . S
C1755 C1754 1.372 . S
C1755 C1756 1.400 . S
C1755 C1760 1.490 . S
C1756 H1746 0.930 . S
C1756 C1755 1.400 . S
C1756 C1759 1.386 . S
H1757 C1773 0.930 . S
H1758 C1774 0.931 . S
C1759 H1747 0.929 . S
C1759 C1753 1.390 . S
C1759 C1756 1.386 . S
C1760 C1755 1.490 . S
C1760 C1762 1.395 . S
C1760 C1763 1.403 . S
H1761 C1767 0.930 . S
C1762 H1748 0.930 . S
C1762 C1760 1.395 . S
C1762 C1765 1.403 . S
C1763 C1760 1.403 . S
C1763 C1764 1.524 . S
C1763 C1767 1.400 . S
C1764 H1749 0.960 . S
C1764 H1750 0.960 . S
C1764 H1751 0.960 . S
C1764 C1763 1.524 . S
C1765 C1762 1.403 . S
C1765 C1766 1.392 . S
C1765 C1769 1.495 . S
C1766 C1765 1.392 . S
C1766 C1767 1.385 . S
C1766 C1768 1.478 . S
C1767 H1761 0.930 . S
C1767 C1763 1.400 . S
C1767 C1766 1.385 . S
C1768 C1766 1.478 . S
C1768 C1770 1.381 . S
C1768 C1774 1.383 . S
C1769 C1765 1.495 . S
C1769 H1775 0.959 . S
C1769 H1776 0.961 . S
C1769 H1777 0.960 . S
C1770 C1768 1.381 . S
C1770 C1771 1.394 . S
C1770 H1778 0.930 . S
C1771 C1770 1.394 . S
C1771 C1772 1.383 . S
C1771 H1779 0.929 . S
C1772 C1771 1.383 . S
C1772 C1773 1.377 . S
C1773 H1757 0.930 . S
C1773 C1772 1.377 . S
C1773 C1774 1.379 . S
C1774 H1758 0.931 . S
C1774 C1768 1.383 . S
C1774 C1773 1.379 . S
H1775 C1769 0.959 . S
H1776 C1769 0.961 . S
H1777 C1769 0.960 . S
H1778 C1770 0.930 . S
H1779 C1771 0.929 . S
H1780 C1788 0.929 . S
H1781 C1790 0.930 . S
H1782 C1792 0.930 . S
H1783 C1795 0.929 . S
H1784 C1798 0.930 . S
H1785 C1800 0.960 . S
H1786 C1800 0.960 . S
H1787 C1800 0.960 . S
C1788 H1780 0.929 . S
C1788 C1789 1.377 . S
C1788 C1790 1.384 . S
C1789 C1788 1.377 . S
C1789 C1795 1.390 . S
C1790 H1781 0.930 . S
C1790 C1788 1.384 . S
C1790 C1791 1.372 . S
C1791 C1790 1.372 . S
C1791 C1792 1.400 . S
C1791 C1796 1.490 . S
C1792 H1782 0.930 . S
C1792 C1791 1.400 . S
C1792 C1795 1.386 . S
H1793 C1809 0.930 . S
H1794 C1810 0.931 . S
C1795 H1783 0.929 . S
C1795 C1789 1.390 . S
C1795 C1792 1.386 . S
C1796 C1791 1.490 . S
C1796 C1798 1.395 . S
C1796 C1799 1.403 . S
H1797 C1803 0.930 . S
C1798 H1784 0.930 . S
C1798 C1796 1.395 . S
C1798 C1801 1.403 . S
C1799 C1796 1.403 . S
C1799 C1800 1.524 . S
C1799 C1803 1.400 . S
C1800 H1785 0.960 . S
C1800 H1786 0.960 . S
C1800 H1787 0.960 . S
C1800 C1799 1.524 . S
C1801 C1798 1.403 . S
C1801 C1802 1.392 . S
C1801 C1805 1.495 . S
C1802 C1801 1.392 . S
C1802 C1803 1.385 . S
C1802 C1804 1.478 . S
C1803 H1797 0.930 . S
C1803 C1799 1.400 . S
C1803 C1802 1.385 . S
C1804 C1802 1.478 . S
C1804 C1806 1.381 . S
C1804 C1810 1.383 . S
C1805 C1801 1.495 . S
C1805 H1811 0.959 . S
C1805 H1812 0.961 . S
C1805 H1813 0.960 . S
C1806 C1804 1.381 . S
C1806 C1807 1.394 . S
C1806 H1814 0.930 . S
C1807 C1806 1.394 . S
C1807 C1808 1.383 . S
C1807 H1815 0.929 . S
C1808 C1807 1.383 . S
C1808 C1809 1.377 . S
C1809 H1793 0.930 . S
C1809 C1808 1.377 . S
C1809 C1810 1.379 . S
C1810 H1794 0.931 . S
C1810 C1804 1.383 . S
C1810 C1809 1.379 . S
H1811 C1805 0.959 . S
H1812 C1805 0.961 . S
H1813 C1805 0.960 . S
H1814 C1806 0.930 . S
H1815 C1807 0.929 . S
H1816 C1824 0.929 . S
H1817 C1826 0.930 . S
H1818 C1828 0.930 . S
H1819 C1831 0.929 . S
H1820 C1834 0.930 . S
H1821 C1836 0.960 . S
H1822 C1836 0.960 . S
H1823 C1836 0.960 . S
C1824 H1816 0.929 . S
C1824 C1825 1.377 . S
C1824 C1826 1.384 . S
C1825 C1824 1.377 . S
C1825 C1831 1.390 . S
C1826 H1817 0.930 . S
C1826 C1824 1.384 . S
C1826 C1827 1.372 . S
C1827 C1826 1.372 . S
C1827 C1828 1.400 . S
C1827 C1832 1.490 . S
C1828 H1818 0.930 . S
C1828 C1827 1.400 . S
C1828 C1831 1.386 . S
H1829 C1845 0.930 . S
H1830 C1846 0.931 . S
C1831 H1819 0.929 . S
C1831 C1825 1.390 . S
C1831 C1828 1.386 . S
C1832 C1827 1.490 . S
C1832 C1834 1.395 . S
C1832 C1835 1.403 . S
H1833 C1839 0.930 . S
C1834 H1820 0.930 . S
C1834 C1832 1.395 . S
C1834 C1837 1.403 . S
C1835 C1832 1.403 . S
C1835 C1836 1.524 . S
C1835 C1839 1.400 . S
C1836 H1821 0.960 . S
C1836 H1822 0.960 . S
C1836 H1823 0.960 . S
C1836 C1835 1.524 . S
C1837 C1834 1.403 . S
C1837 C1838 1.392 . S
C1837 C1841 1.495 . S
C1838 C1837 1.392 . S
C1838 C1839 1.385 . S
C1838 C1840 1.478 . S
C1839 H1833 0.930 . S
C1839 C1835 1.400 . S
C1839 C1838 1.385 . S
C1840 C1838 1.478 . S
C1840 C1842 1.381 . S
C1840 C1846 1.383 . S
C1841 C1837 1.495 . S
C1841 H1847 0.959 . S
C1841 H1848 0.961 . S
C1841 H1849 0.960 . S
C1842 C1840 1.381 . S
C1842 C1843 1.394 . S
C1842 H1850 0.930 . S
C1843 C1842 1.394 . S
C1843 C1844 1.383 . S
C1843 H1851 0.929 . S
C1844 C1843 1.383 . S
C1844 C1845 1.377 . S
C1845 H1829 0.930 . S
C1845 C1844 1.377 . S
C1845 C1846 1.379 . S
C1846 H1830 0.931 . S
C1846 C1840 1.383 . S
C1846 C1845 1.379 . S
H1847 C1841 0.959 . S
H1848 C1841 0.961 . S
H1849 C1841 0.960 . S
H1850 C1842 0.930 . S
H1851 C1843 0.929 . S
H1852 C1860 0.929 . S
H1853 C1862 0.930 . S
H1854 C1864 0.930 . S
H1855 C1867 0.929 . S
H1856 C1870 0.930 . S
H1857 C1872 0.960 . S
H1858 C1872 0.960 . S
H1859 C1872 0.960 . S
C1860 H1852 0.929 . S
C1860 C1861 1.377 . S
C1860 C1862 1.384 . S
C1861 C1860 1.377 . S
C1861 C1867 1.390 . S
C1862 H1853 0.930 . S
C1862 C1860 1.384 . S
C1862 C1863 1.372 . S
C1863 C1862 1.372 . S
C1863 C1864 1.400 . S
C1863 C1868 1.490 . S
C1864 H1854 0.930 . S
C1864 C1863 1.400 . S
C1864 C1867 1.386 . S
H1865 C1881 0.930 . S
H1866 C1882 0.931 . S
C1867 H1855 0.929 . S
C1867 C1861 1.390 . S
C1867 C1864 1.386 . S
C1868 C1863 1.490 . S
C1868 C1870 1.395 . S
C1868 C1871 1.403 . S
H1869 C1875 0.930 . S
C1870 H1856 0.930 . S
C1870 C1868 1.395 . S
C1870 C1873 1.403 . S
C1871 C1868 1.403 . S
C1871 C1872 1.524 . S
C1871 C1875 1.400 . S
C1872 H1857 0.960 . S
C1872 H1858 0.960 . S
C1872 H1859 0.960 . S
C1872 C1871 1.524 . S
C1873 C1870 1.403 . S
C1873 C1874 1.392 . S
C1873 C1877 1.495 . S
C1874 C1873 1.392 . S
C1874 C1875 1.385 . S
C1874 C1876 1.478 . S
C1875 H1869 0.930 . S
C1875 C1871 1.400 . S
C1875 C1874 1.385 . S
C1876 C1874 1.478 . S
C1876 C1878 1.381 . S
C1876 C1882 1.383 1_455 S
C1877 C1873 1.495 . S
C1877 H1883 0.959 . S
C1877 H1884 0.961 . S
C1877 H1885 0.960 . S
C1878 C1876 1.381 . S
C1878 C1879 1.394 1_455 S
C1878 H1886 0.930 . S
C1879 C1878 1.394 1_655 S
C1879 C1880 1.383 . S
C1879 H1887 0.929 . S
C1880 C1879 1.383 . S
C1880 C1881 1.377 . S
C1881 H1865 0.930 . S
C1881 C1880 1.377 . S
C1881 C1882 1.379 . S
C1882 H1866 0.931 . S
C1882 C1876 1.383 1_655 S
C1882 C1881 1.379 . S
H1883 C1877 0.959 . S
H1884 C1877 0.961 . S
H1885 C1877 0.960 . S
H1886 C1878 0.930 . S
H1887 C1879 0.929 . S
H1888 C1896 0.929 . S
H1889 C1898 0.930 . S
H1890 C1900 0.930 . S
H1891 C1903 0.929 . S
H1892 C1906 0.930 . S
H1893 C1908 0.960 . S
H1894 C1908 0.960 . S
H1895 C1908 0.960 . S
C1896 H1888 0.929 . S
C1896 C1897 1.377 . S
C1896 C1898 1.384 . S
C1897 C1896 1.377 . S
C1897 C1903 1.390 . S
C1898 H1889 0.930 . S
C1898 C1896 1.384 . S
C1898 C1899 1.372 . S
C1899 C1898 1.372 . S
C1899 C1900 1.400 . S
C1899 C1904 1.490 . S
C1900 H1890 0.930 . S
C1900 C1899 1.400 . S
C1900 C1903 1.386 . S
H1901 C1917 0.930 . S
H1902 C1918 0.931 . S
C1903 H1891 0.929 . S
C1903 C1897 1.390 . S
C1903 C1900 1.386 . S
C1904 C1899 1.490 . S
C1904 C1906 1.395 . S
C1904 C1907 1.403 . S
H1905 C1911 0.930 . S
C1906 H1892 0.930 . S
C1906 C1904 1.395 . S
C1906 C1909 1.403 . S
C1907 C1904 1.403 . S
C1907 C1908 1.524 . S
C1907 C1911 1.400 . S
C1908 H1893 0.960 . S
C1908 H1894 0.960 . S
C1908 H1895 0.960 . S
C1908 C1907 1.524 . S
C1909 C1906 1.403 . S
C1909 C1910 1.392 . S
C1909 C1913 1.495 . S
C1910 C1909 1.392 . S
C1910 C1911 1.385 . S
C1910 C1912 1.478 . S
C1911 H1905 0.930 . S
C1911 C1907 1.400 . S
C1911 C1910 1.385 . S
C1912 C1910 1.478 . S
C1912 C1914 1.381 . S
C1912 C1918 1.383 . S
C1913 C1909 1.495 . S
C1913 H1919 0.959 . S
C1913 H1920 0.961 . S
C1913 H1921 0.960 . S
C1914 C1912 1.381 . S
C1914 C1915 1.394 . S
C1914 H1922 0.930 . S
C1915 C1914 1.394 . S
C1915 C1916 1.383 . S
C1915 H1923 0.929 . S
C1916 C1915 1.383 . S
C1916 C1917 1.377 . S
C1917 H1901 0.930 . S
C1917 C1916 1.377 . S
C1917 C1918 1.379 . S
C1918 H1902 0.931 . S
C1918 C1912 1.383 . S
C1918 C1917 1.379 . S
H1919 C1913 0.959 . S
H1920 C1913 0.961 . S
H1921 C1913 0.960 . S
H1922 C1914 0.930 . S
H1923 C1915 0.929 . S
H1924 C1932 0.929 . S
H1925 C1934 0.931 . S
H1926 C1936 0.930 . S
H1927 C1939 0.929 . S
H1928 C1942 0.930 . S
H1929 C1944 0.960 . S
H1930 C1944 0.960 . S
H1931 C1944 0.960 . S
C1932 H1924 0.929 . S
C1932 C1933 1.377 . S
C1932 C1934 1.384 . S
C1933 C1932 1.377 . S
C1933 C1939 1.390 . S
C1934 H1925 0.931 . S
C1934 C1932 1.384 . S
C1934 C1935 1.372 1_455 S
C1935 C1934 1.372 1_655 S
C1935 C1936 1.400 . S
C1935 C1940 1.490 . S
C1936 H1926 0.930 . S
C1936 C1935 1.400 . S
C1936 C1939 1.386 1_655 S
H1937 C1953 0.930 . S
H1938 C1954 0.931 . S
C1939 H1927 0.929 . S
C1939 C1933 1.390 . S
C1939 C1936 1.386 1_455 S
C1940 C1935 1.490 . S
C1940 C1942 1.395 . S
C1940 C1943 1.403 . S
H1941 C1947 0.930 . S
C1942 H1928 0.930 . S
C1942 C1940 1.395 . S
C1942 C1945 1.403 . S
C1943 C1940 1.403 . S
C1943 C1944 1.524 . S
C1943 C1947 1.400 . S
C1944 H1929 0.960 . S
C1944 H1930 0.960 . S
C1944 H1931 0.960 . S
C1944 C1943 1.524 . S
C1945 C1942 1.403 . S
C1945 C1946 1.392 . S
C1945 C1949 1.495 . S
C1946 C1945 1.392 . S
C1946 C1947 1.385 . S
C1946 C1948 1.478 . S
C1947 H1941 0.930 . S
C1947 C1943 1.400 . S
C1947 C1946 1.385 . S
C1948 C1946 1.478 . S
C1948 C1950 1.381 . S
C1948 C1954 1.383 . S
C1949 C1945 1.495 . S
C1949 H1955 0.959 . S
C1949 H1956 0.961 . S
C1949 H1957 0.960 . S
C1950 C1948 1.381 . S
C1950 C1951 1.394 . S
C1950 H1958 0.930 . S
C1951 C1950 1.394 . S
C1951 C1952 1.383 . S
C1951 H1959 0.929 . S
C1952 C1951 1.383 . S
C1952 C1953 1.377 . S
C1953 H1937 0.930 . S
C1953 C1952 1.377 . S
C1953 C1954 1.379 . S
C1954 H1938 0.931 . S
C1954 C1948 1.383 . S
C1954 C1953 1.379 . S
H1955 C1949 0.959 . S
H1956 C1949 0.961 . S
H1957 C1949 0.960 . S
H1958 C1950 0.930 . S
H1959 C1951 0.929 . S
H1960 C1968 0.929 . S
H1961 C1970 0.930 . S
H1962 C1972 0.930 . S
H1963 C1975 0.929 . S
H1964 C1978 0.930 . S
H1965 C1980 0.960 . S
H1966 C1980 0.960 . S
H1967 C1980 0.960 . S
C1968 H1960 0.929 . S
C1968 C1969 1.377 . S
C1968 C1970 1.384 . S
C1969 C1968 1.377 . S
C1969 C1975 1.390 . S
C1970 H1961 0.930 . S
C1970 C1968 1.384 . S
C1970 C1971 1.372 . S
C1971 C1970 1.372 . S
C1971 C1972 1.400 . S
C1971 C1976 1.490 . S
C1972 H1962 0.930 . S
C1972 C1971 1.400 . S
C1972 C1975 1.386 . S
H1973 C1989 0.930 . S
H1974 C1990 0.931 . S
C1975 H1963 0.929 . S
C1975 C1969 1.390 . S
C1975 C1972 1.386 . S
C1976 C1971 1.490 . S
C1976 C1978 1.395 . S
C1976 C1979 1.403 . S
H1977 C1983 0.930 . S
C1978 H1964 0.930 . S
C1978 C1976 1.395 . S
C1978 C1981 1.403 . S
C1979 C1976 1.403 . S
C1979 C1980 1.524 . S
C1979 C1983 1.400 . S
C1980 H1965 0.960 . S
C1980 H1966 0.960 . S
C1980 H1967 0.960 . S
C1980 C1979 1.524 . S
C1981 C1978 1.403 . S
C1981 C1982 1.392 . S
C1981 C1985 1.495 . S
C1982 C1981 1.392 . S
C1982 C1983 1.385 . S
C1982 C1984 1.478 . S
C1983 H1977 0.930 . S
C1983 C1979 1.400 . S
C1983 C1982 1.385 . S
C1984 C1982 1.478 . S
C1984 C1986 1.381 . S
C1984 C1990 1.383 . S
C1985 C1981 1.495 . S
C1985 H1991 0.959 . S
C1985 H1992 0.961 . S
C1985 H1993 0.960 . S
C1986 C1984 1.381 . S
C1986 C1987 1.394 . S
C1986 H1994 0.930 . S
C1987 C1986 1.394 . S
C1987 C1988 1.383 . S
C1987 H1995 0.929 . S
C1988 C1987 1.383 . S
C1988 C1989 1.377 . S
C1989 H1973 0.930 . S
C1989 C1988 1.377 . S
C1989 C1990 1.379 . S
C1990 H1974 0.931 . S
C1990 C1984 1.383 . S
C1990 C1989 1.379 . S
H1991 C1985 0.959 . S
H1992 C1985 0.961 . S
H1993 C1985 0.960 . S
H1994 C1986 0.930 . S
H1995 C1987 0.929 . S
H1996 C2004 0.929 . S
H1997 C2006 0.930 . S
H1998 C2008 0.930 . S
H1999 C2011 0.929 . S
H2000 C2014 0.930 . S
H2001 C2016 0.960 . S
H2002 C2016 0.960 . S
H2003 C2016 0.960 . S
C2004 H1996 0.929 . S
C2004 C2005 1.377 . S
C2004 C2006 1.384 . S
C2005 C2004 1.377 . S
C2005 C2011 1.390 . S
C2006 H1997 0.930 . S
C2006 C2004 1.384 . S
C2006 C2007 1.372 . S
C2007 C2006 1.372 . S
C2007 C2008 1.400 . S
C2007 C2012 1.490 . S
C2008 H1998 0.930 . S
C2008 C2007 1.400 . S
C2008 C2011 1.386 . S
H2009 C2025 0.930 . S
H2010 C2026 0.931 . S
C2011 H1999 0.929 . S
C2011 C2005 1.390 . S
C2011 C2008 1.386 . S
C2012 C2007 1.490 . S
C2012 C2014 1.395 . S
C2012 C2015 1.403 . S
H2013 C2019 0.930 . S
C2014 H2000 0.930 . S
C2014 C2012 1.395 . S
C2014 C2017 1.403 . S
C2015 C2012 1.403 . S
C2015 C2016 1.524 . S
C2015 C2019 1.400 . S
C2016 H2001 0.960 . S
C2016 H2002 0.960 . S
C2016 H2003 0.960 . S
C2016 C2015 1.524 . S
C2017 C2014 1.403 . S
C2017 C2018 1.392 . S
C2017 C2021 1.495 . S
C2018 C2017 1.392 . S
C2018 C2019 1.385 . S
C2018 C2020 1.478 . S
C2019 H2013 0.930 . S
C2019 C2015 1.400 . S
C2019 C2018 1.385 . S
C2020 C2018 1.478 . S
C2020 C2022 1.381 . S
C2020 C2026 1.383 . S
C2021 C2017 1.495 . S
C2021 H2027 0.959 . S
C2021 H2028 0.961 . S
C2021 H2029 0.960 . S
C2022 C2020 1.381 . S
C2022 C2023 1.394 . S
C2022 H2030 0.930 . S
C2023 C2022 1.394 . S
C2023 C2024 1.383 . S
C2023 H2031 0.929 . S
C2024 C2023 1.383 . S
C2024 C2025 1.377 . S
C2025 H2009 0.930 . S
C2025 C2024 1.377 . S
C2025 C2026 1.379 . S
C2026 H2010 0.931 . S
C2026 C2020 1.383 . S
C2026 C2025 1.379 . S
H2027 C2021 0.959 . S
H2028 C2021 0.961 . S
H2029 C2021 0.960 . S
H2030 C2022 0.930 . S
H2031 C2023 0.929 . S
H2032 C2040 0.929 . S
H2033 C2042 0.930 . S
H2034 C2044 0.930 . S
H2035 C2047 0.929 . S
H2036 C2050 0.930 . S
H2037 C2052 0.960 . S
H2038 C2052 0.960 . S
H2039 C2052 0.960 . S
C2040 H2032 0.929 . S
C2040 C2041 1.377 . S
C2040 C2042 1.384 . S
C2041 C2040 1.377 . S
C2041 C2047 1.390 . S
C2042 H2033 0.930 . S
C2042 C2040 1.384 . S
C2042 C2043 1.372 . S
C2043 C2042 1.372 . S
C2043 C2044 1.400 . S
C2043 C2048 1.490 . S
C2044 H2034 0.930 . S
C2044 C2043 1.400 . S
C2044 C2047 1.386 . S
H2045 C2061 0.930 . S
H2046 C2062 0.931 . S
C2047 H2035 0.929 . S
C2047 C2041 1.390 . S
C2047 C2044 1.386 . S
C2048 C2043 1.490 . S
C2048 C2050 1.395 . S
C2048 C2051 1.403 . S
H2049 C2055 0.930 . S
C2050 H2036 0.930 . S
C2050 C2048 1.395 . S
C2050 C2053 1.403 . S
C2051 C2048 1.403 . S
C2051 C2052 1.524 . S
C2051 C2055 1.400 . S
C2052 H2037 0.960 . S
C2052 H2038 0.960 . S
C2052 H2039 0.960 . S
C2052 C2051 1.524 . S
C2053 C2050 1.403 . S
C2053 C2054 1.392 . S
C2053 C2057 1.495 . S
C2054 C2053 1.392 . S
C2054 C2055 1.385 . S
C2054 C2056 1.478 . S
C2055 H2049 0.930 . S
C2055 C2051 1.400 . S
C2055 C2054 1.385 . S
C2056 C2054 1.478 . S
C2056 C2058 1.381 . S
C2056 C2062 1.383 . S
C2057 C2053 1.495 . S
C2057 H2063 0.959 . S
C2057 H2064 0.961 . S
C2057 H2065 0.960 . S
C2058 C2056 1.381 . S
C2058 C2059 1.394 . S
C2058 H2066 0.930 . S
C2059 C2058 1.394 . S
C2059 C2060 1.383 . S
C2059 H2067 0.929 . S
C2060 C2059 1.383 . S
C2060 C2061 1.377 . S
C2061 H2045 0.930 . S
C2061 C2060 1.377 . S
C2061 C2062 1.379 . S
C2062 H2046 0.931 . S
C2062 C2056 1.383 . S
C2062 C2061 1.379 . S
H2063 C2057 0.959 . S
H2064 C2057 0.961 . S
H2065 C2057 0.960 . S
H2066 C2058 0.930 . S
H2067 C2059 0.929 . S
H2068 C2076 0.929 . S
H2069 C2078 0.930 . S
H2070 C2080 0.930 . S
H2071 C2083 0.929 . S
H2072 C2086 0.930 . S
H2073 C2088 0.960 . S
H2074 C2088 0.960 . S
H2075 C2088 0.960 . S
C2076 H2068 0.929 . S
C2076 C2077 1.377 . S
C2076 C2078 1.384 . S
C2077 C2076 1.377 . S
C2077 C2083 1.390 . S
C2078 H2069 0.930 . S
C2078 C2076 1.384 . S
C2078 C2079 1.372 . S
C2079 C2078 1.372 . S
C2079 C2080 1.400 . S
C2079 C2084 1.490 . S
C2080 H2070 0.930 . S
C2080 C2079 1.400 . S
C2080 C2083 1.386 . S
H2081 C2097 0.930 . S
H2082 C2098 0.931 . S
C2083 H2071 0.929 . S
C2083 C2077 1.390 . S
C2083 C2080 1.386 . S
C2084 C2079 1.490 . S
C2084 C2086 1.395 . S
C2084 C2087 1.403 . S
H2085 C2091 0.930 . S
C2086 H2072 0.930 . S
C2086 C2084 1.395 . S
C2086 C2089 1.403 . S
C2087 C2084 1.403 . S
C2087 C2088 1.524 . S
C2087 C2091 1.400 . S
C2088 H2073 0.960 . S
C2088 H2074 0.960 . S
C2088 H2075 0.960 . S
C2088 C2087 1.524 . S
C2089 C2086 1.403 . S
C2089 C2090 1.392 . S
C2089 C2093 1.495 . S
C2090 C2089 1.392 . S
C2090 C2091 1.385 . S
C2090 C2092 1.478 . S
C2091 H2085 0.930 . S
C2091 C2087 1.400 . S
C2091 C2090 1.385 . S
C2092 C2090 1.478 . S
C2092 C2094 1.381 . S
C2092 C2098 1.383 . S
C2093 C2089 1.495 . S
C2093 H2099 0.959 . S
C2093 H2100 0.961 . S
C2093 H2101 0.960 . S
C2094 C2092 1.381 . S
C2094 C2095 1.394 . S
C2094 H2102 0.930 . S
C2095 C2094 1.394 . S
C2095 C2096 1.383 . S
C2095 H2103 0.929 . S
C2096 C2095 1.383 . S
C2096 C2097 1.377 . S
C2097 H2081 0.930 . S
C2097 C2096 1.377 . S
C2097 C2098 1.379 . S
C2098 H2082 0.931 . S
C2098 C2092 1.383 . S
C2098 C2097 1.379 . S
H2099 C2093 0.959 . S
H2100 C2093 0.961 . S
H2101 C2093 0.960 . S
H2102 C2094 0.930 . S
H2103 C2095 0.929 . S
H2104 C2112 0.929 . S
H2105 C2114 0.930 . S
H2106 C2116 0.930 . S
H2107 C2119 0.929 . S
H2108 C2122 0.930 . S
H2109 C2124 0.960 . S
H2110 C2124 0.960 . S
H2111 C2124 0.960 . S
C2112 H2104 0.929 . S
C2112 C2113 1.377 . S
C2112 C2114 1.384 . S
C2113 C2112 1.377 . S
C2113 C2119 1.390 . S
C2114 H2105 0.930 . S
C2114 C2112 1.384 . S
C2114 C2115 1.372 . S
C2115 C2114 1.372 . S
C2115 C2116 1.400 . S
C2115 C2120 1.490 . S
C2116 H2106 0.930 . S
C2116 C2115 1.400 . S
C2116 C2119 1.386 . S
H2117 C2133 0.930 . S
H2118 C2134 0.931 . S
C2119 H2107 0.929 . S
C2119 C2113 1.390 . S
C2119 C2116 1.386 . S
C2120 C2115 1.490 . S
C2120 C2122 1.395 . S
C2120 C2123 1.403 . S
H2121 C2127 0.930 . S
C2122 H2108 0.930 . S
C2122 C2120 1.395 . S
C2122 C2125 1.403 . S
C2123 C2120 1.403 . S
C2123 C2124 1.524 . S
C2123 C2127 1.400 . S
C2124 H2109 0.960 . S
C2124 H2110 0.960 . S
C2124 H2111 0.960 . S
C2124 C2123 1.524 . S
C2125 C2122 1.403 . S
C2125 C2126 1.392 . S
C2125 C2129 1.495 . S
C2126 C2125 1.392 . S
C2126 C2127 1.385 . S
C2126 C2128 1.478 . S
C2127 H2121 0.930 . S
C2127 C2123 1.400 . S
C2127 C2126 1.385 . S
C2128 C2126 1.478 . S
C2128 C2130 1.381 . S
C2128 C2134 1.383 . S
C2129 C2125 1.495 . S
C2129 H2135 0.959 . S
C2129 H2136 0.961 . S
C2129 H2137 0.960 . S
C2130 C2128 1.381 . S
C2130 C2131 1.394 . S
C2130 H2138 0.930 . S
C2131 C2130 1.394 . S
C2131 C2132 1.383 . S
C2131 H2139 0.929 . S
C2132 C2131 1.383 . S
C2132 C2133 1.377 . S
C2133 H2117 0.930 . S
C2133 C2132 1.377 . S
C2133 C2134 1.379 . S
C2134 H2118 0.931 . S
C2134 C2128 1.383 . S
C2134 C2133 1.379 . S
H2135 C2129 0.959 . S
H2136 C2129 0.961 . S
H2137 C2129 0.960 . S
H2138 C2130 0.930 . S
H2139 C2131 0.929 . S
H2140 C2148 0.929 . S
H2141 C2150 0.930 . S
H2142 C2152 0.930 . S
H2143 C2155 0.929 . S
H2144 C2158 0.930 . S
H2145 C2160 0.960 . S
H2146 C2160 0.960 . S
H2147 C2160 0.960 . S
C2148 H2140 0.929 . S
C2148 C2149 1.377 . S
C2148 C2150 1.384 1_455 S
C2149 C2148 1.377 . S
C2149 C2155 1.390 . S
C2150 H2141 0.930 . S
C2150 C2148 1.384 1_655 S
C2150 C2151 1.372 . S
C2151 C2150 1.372 . S
C2151 C2152 1.400 1_655 S
C2151 C2156 1.490 . S
C2152 H2142 0.930 . S
C2152 C2151 1.400 1_455 S
C2152 C2155 1.386 . S
H2153 C2169 0.930 . S
H2154 C2170 0.931 . S
C2155 H2143 0.929 . S
C2155 C2149 1.390 . S
C2155 C2152 1.386 . S
C2156 C2151 1.490 . S
C2156 C2158 1.395 . S
C2156 C2159 1.403 . S
H2157 C2163 0.930 . S
C2158 H2144 0.930 . S
C2158 C2156 1.395 . S
C2158 C2161 1.403 . S
C2159 C2156 1.403 . S
C2159 C2160 1.524 . S
C2159 C2163 1.400 . S
C2160 H2145 0.960 . S
C2160 H2146 0.960 . S
C2160 H2147 0.960 . S
C2160 C2159 1.524 . S
C2161 C2158 1.403 . S
C2161 C2162 1.392 . S
C2161 C2165 1.495 . S
C2162 C2161 1.392 . S
C2162 C2163 1.385 . S
C2162 C2164 1.478 . S
C2163 H2157 0.930 . S
C2163 C2159 1.400 . S
C2163 C2162 1.385 . S
C2164 C2162 1.478 . S
C2164 C2166 1.381 . S
C2164 C2170 1.383 . S
C2165 C2161 1.495 . S
C2165 H2171 0.959 . S
C2165 H2172 0.961 . S
C2165 H2173 0.960 . S
C2166 C2164 1.381 . S
C2166 C2167 1.394 . S
C2166 H2174 0.930 . S
C2167 C2166 1.394 . S
C2167 C2168 1.383 . S
C2167 H2175 0.929 . S
C2168 C2167 1.383 . S
C2168 C2169 1.377 . S
C2169 H2153 0.930 . S
C2169 C2168 1.377 . S
C2169 C2170 1.379 . S
C2170 H2154 0.931 . S
C2170 C2164 1.383 . S
C2170 C2169 1.379 . S
H2171 C2165 0.959 . S
H2172 C2165 0.961 . S
H2173 C2165 0.960 . S
H2174 C2166 0.930 . S
H2175 C2167 0.929 . S
H2176 C2184 0.929 . S
H2177 C2186 0.930 . S
H2178 C2188 0.930 . S
H2179 C2191 0.929 . S
H2180 C2194 0.930 . S
H2181 C2196 0.960 . S
H2182 C2196 0.960 . S
H2183 C2196 0.960 . S
C2184 H2176 0.929 . S
C2184 C2185 1.377 . S
C2184 C2186 1.384 . S
C2185 C2184 1.377 . S
C2185 C2191 1.390 . S
C2186 H2177 0.930 . S
C2186 C2184 1.384 . S
C2186 C2187 1.372 . S
C2187 C2186 1.372 . S
C2187 C2188 1.400 . S
C2187 C2192 1.490 . S
C2188 H2178 0.930 . S
C2188 C2187 1.400 . S
C2188 C2191 1.386 . S
H2189 C2205 0.930 . S
H2190 C2206 0.931 . S
C2191 H2179 0.929 . S
C2191 C2185 1.390 . S
C2191 C2188 1.386 . S
C2192 C2187 1.490 . S
C2192 C2194 1.395 . S
C2192 C2195 1.403 . S
H2193 C2199 0.930 . S
C2194 H2180 0.930 . S
C2194 C2192 1.395 . S
C2194 C2197 1.403 . S
C2195 C2192 1.403 . S
C2195 C2196 1.524 . S
C2195 C2199 1.400 . S
C2196 H2181 0.960 . S
C2196 H2182 0.960 . S
C2196 H2183 0.960 . S
C2196 C2195 1.524 . S
C2197 C2194 1.403 . S
C2197 C2198 1.392 . S
C2197 C2201 1.495 . S
C2198 C2197 1.392 . S
C2198 C2199 1.385 . S
C2198 C2200 1.478 . S
C2199 H2193 0.930 . S
C2199 C2195 1.400 . S
C2199 C2198 1.385 . S
C2200 C2198 1.478 . S
C2200 C2202 1.381 . S
C2200 C2206 1.383 . S
C2201 C2197 1.495 . S
C2201 H2207 0.959 . S
C2201 H2208 0.961 . S
C2201 H2209 0.960 . S
C2202 C2200 1.381 . S
C2202 C2203 1.394 . S
C2202 H2210 0.930 . S
C2203 C2202 1.394 . S
C2203 C2204 1.383 . S
C2203 H2211 0.929 . S
C2204 C2203 1.383 . S
C2204 C2205 1.377 . S
C2205 H2189 0.930 . S
C2205 C2204 1.377 . S
C2205 C2206 1.379 . S
C2206 H2190 0.931 . S
C2206 C2200 1.383 . S
C2206 C2205 1.379 . S
H2207 C2201 0.959 . S
H2208 C2201 0.961 . S
H2209 C2201 0.960 . S
H2210 C2202 0.930 . S
H2211 C2203 0.929 . S
H2212 C2220 0.929 . S
H2213 C2222 0.930 . S
H2214 C2224 0.930 . S
H2215 C2227 0.929 . S
H2216 C2230 0.930 . S
H2217 C2232 0.960 . S
H2218 C2232 0.960 . S
H2219 C2232 0.960 . S
C2220 H2212 0.929 . S
C2220 C2221 1.377 . S
C2220 C2222 1.384 . S
C2221 C2220 1.377 . S
C2221 C2227 1.390 . S
C2222 H2213 0.930 . S
C2222 C2220 1.384 . S
C2222 C2223 1.372 . S
C2223 C2222 1.372 . S
C2223 C2224 1.400 . S
C2223 C2228 1.490 . S
C2224 H2214 0.930 . S
C2224 C2223 1.400 . S
C2224 C2227 1.386 . S
H2225 C2241 0.930 . S
H2226 C2242 0.931 . S
C2227 H2215 0.929 . S
C2227 C2221 1.390 . S
C2227 C2224 1.386 . S
C2228 C2223 1.490 . S
C2228 C2230 1.395 . S
C2228 C2231 1.403 . S
H2229 C2235 0.930 . S
C2230 H2216 0.930 . S
C2230 C2228 1.395 . S
C2230 C2233 1.403 . S
C2231 C2228 1.403 . S
C2231 C2232 1.524 . S
C2231 C2235 1.400 . S
C2232 H2217 0.960 . S
C2232 H2218 0.960 . S
C2232 H2219 0.960 . S
C2232 C2231 1.524 . S
C2233 C2230 1.403 . S
C2233 C2234 1.392 . S
C2233 C2237 1.495 . S
C2234 C2233 1.392 . S
C2234 C2235 1.385 . S
C2234 C2236 1.478 . S
C2235 H2229 0.930 . S
C2235 C2231 1.400 . S
C2235 C2234 1.385 . S
C2236 C2234 1.478 . S
C2236 C2238 1.381 . S
C2236 C2242 1.383 . S
C2237 C2233 1.495 . S
C2237 H2243 0.959 . S
C2237 H2244 0.961 . S
C2237 H2245 0.960 . S
C2238 C2236 1.381 . S
C2238 C2239 1.394 . S
C2238 H2246 0.930 . S
C2239 C2238 1.394 . S
C2239 C2240 1.383 . S
C2239 H2247 0.929 . S
C2240 C2239 1.383 . S
C2240 C2241 1.377 . S
C2241 H2225 0.930 . S
C2241 C2240 1.377 . S
C2241 C2242 1.379 . S
C2242 H2226 0.931 . S
C2242 C2236 1.383 . S
C2242 C2241 1.379 . S
H2243 C2237 0.959 . S
H2244 C2237 0.961 . S
H2245 C2237 0.960 . S
H2246 C2238 0.930 . S
H2247 C2239 0.929 . S
H2248 C2256 0.929 . S
H2249 C2258 0.930 . S
H2250 C2260 0.930 . S
H2251 C2263 0.929 . S
H2252 C2266 0.930 . S
H2253 C2268 0.960 . S
H2254 C2268 0.960 . S
H2255 C2268 0.960 . S
C2256 H2248 0.929 . S
C2256 C2257 1.377 . S
C2256 C2258 1.384 . S
C2257 C2256 1.377 . S
C2257 C2263 1.390 . S
C2258 H2249 0.930 . S
C2258 C2256 1.384 . S
C2258 C2259 1.372 . S
C2259 C2258 1.372 . S
C2259 C2260 1.400 . S
C2259 C2264 1.490 . S
C2260 H2250 0.930 . S
C2260 C2259 1.400 . S
C2260 C2263 1.386 . S
H2261 C2277 0.930 . S
H2262 C2278 0.931 . S
C2263 H2251 0.929 . S
C2263 C2257 1.390 . S
C2263 C2260 1.386 . S
C2264 C2259 1.490 . S
C2264 C2266 1.395 . S
C2264 C2267 1.403 . S
H2265 C2271 0.930 . S
C2266 H2252 0.930 . S
C2266 C2264 1.395 . S
C2266 C2269 1.403 . S
C2267 C2264 1.403 . S
C2267 C2268 1.524 . S
C2267 C2271 1.400 . S
C2268 H2253 0.960 . S
C2268 H2254 0.960 . S
C2268 H2255 0.960 . S
C2268 C2267 1.524 . S
C2269 C2266 1.403 . S
C2269 C2270 1.392 . S
C2269 C2273 1.495 . S
C2270 C2269 1.392 . S
C2270 C2271 1.385 . S
C2270 C2272 1.478 . S
C2271 H2265 0.930 . S
C2271 C2267 1.400 . S
C2271 C2270 1.385 . S
C2272 C2270 1.478 . S
C2272 C2274 1.381 . S
C2272 C2278 1.383 . S
C2273 C2269 1.495 . S
C2273 H2279 0.959 . S
C2273 H2280 0.961 . S
C2273 H2281 0.960 . S
C2274 C2272 1.381 . S
C2274 C2275 1.394 . S
C2274 H2282 0.930 . S
C2275 C2274 1.394 . S
C2275 C2276 1.383 . S
C2275 H2283 0.929 . S
C2276 C2275 1.383 . S
C2276 C2277 1.377 . S
C2277 H2261 0.930 . S
C2277 C2276 1.377 . S
C2277 C2278 1.379 . S
C2278 H2262 0.931 . S
C2278 C2272 1.383 . S
C2278 C2277 1.379 . S
H2279 C2273 0.959 . S
H2280 C2273 0.961 . S
H2281 C2273 0.960 . S
H2282 C2274 0.930 . S
H2283 C2275 0.929 . S
H2284 C2292 0.929 . S
H2285 C2294 0.930 . S
H2286 C2296 0.930 . S
H2287 C2299 0.929 . S
H2288 C2302 0.930 . S
H2289 C2304 0.960 . S
H2290 C2304 0.960 . S
H2291 C2304 0.960 . S
C2292 H2284 0.929 . S
C2292 C2293 1.377 . S
C2292 C2294 1.384 . S
C2293 C2292 1.377 . S
C2293 C2299 1.390 . S
C2294 H2285 0.930 . S
C2294 C2292 1.384 . S
C2294 C2295 1.372 . S
C2295 C2294 1.372 . S
C2295 C2296 1.400 . S
C2295 C2300 1.490 . S
C2296 H2286 0.930 . S
C2296 C2295 1.400 . S
C2296 C2299 1.386 . S
H2297 C2313 0.930 . S
H2298 C2314 0.925 1_655 S
C2299 H2287 0.929 . S
C2299 C2293 1.390 . S
C2299 C2296 1.386 . S
C2300 C2295 1.490 . S
C2300 C2302 1.395 . S
C2300 C2303 1.403 . S
H2301 C2307 0.930 . S
C2302 H2288 0.930 . S
C2302 C2300 1.395 . S
C2302 C2305 1.403 . S
C2303 C2300 1.403 . S
C2303 C2304 1.524 . S
C2303 C2307 1.400 . S
C2304 H2289 0.960 . S
C2304 H2290 0.960 . S
C2304 H2291 0.960 . S
C2304 C2303 1.524 . S
C2305 C2302 1.403 . S
C2305 C2306 1.392 . S
C2305 C2309 1.495 . S
C2306 C2305 1.392 . S
C2306 C2307 1.385 . S
C2306 C2308 1.478 . S
C2307 H2301 0.930 . S
C2307 C2303 1.400 . S
C2307 C2306 1.385 . S
C2308 C2306 1.478 . S
C2308 C2310 1.381 1_655 S
C2308 C2314 1.380 1_655 S
C2309 C2305 1.495 . S
C2309 H2315 0.959 . S
C2309 H2316 0.961 . S
C2309 H2317 0.960 . S
C2310 C2308 1.381 1_455 S
C2310 C2311 1.394 . S
C2310 H2318 0.930 . S
C2311 C2310 1.394 . S
C2311 C2312 1.383 . S
C2311 H2319 0.929 . S
C2312 C2311 1.383 . S
C2312 C2313 1.377 . S
C2313 H2297 0.930 . S
C2313 C2312 1.377 . S
C2313 C2314 1.388 . S
C2314 H2298 0.925 1_455 S
C2314 C2308 1.380 1_455 S
C2314 C2313 1.388 . S
H2315 C2309 0.959 . S
H2316 C2309 0.961 . S
H2317 C2309 0.960 . S
H2318 C2310 0.930 . S
H2319 C2311 0.929 . S
H2320 C2328 0.929 . S
H2321 C2330 0.930 . S
H2322 C2332 0.930 . S
H2323 C2335 0.929 . S
H2324 C2338 0.930 . S
H2325 C2340 0.960 . S
H2326 C2340 0.960 . S
H2327 C2340 0.960 . S
C2328 H2320 0.929 . S
C2328 C2329 1.377 . S
C2328 C2330 1.384 . S
C2329 C2328 1.377 . S
C2329 C2335 1.390 . S
C2330 H2321 0.930 . S
C2330 C2328 1.384 . S
C2330 C2331 1.372 . S
C2331 C2330 1.372 . S
C2331 C2332 1.400 . S
C2331 C2336 1.490 . S
C2332 H2322 0.930 . S
C2332 C2331 1.400 . S
C2332 C2335 1.386 . S
H2333 C2349 0.930 . S
H2334 C2350 0.931 . S
C2335 H2323 0.929 . S
C2335 C2329 1.390 . S
C2335 C2332 1.386 . S
C2336 C2331 1.490 . S
C2336 C2338 1.395 . S
C2336 C2339 1.403 . S
H2337 C2343 0.930 . S
C2338 H2324 0.930 . S
C2338 C2336 1.395 . S
C2338 C2341 1.403 . S
C2339 C2336 1.403 . S
C2339 C2340 1.524 . S
C2339 C2343 1.400 . S
C2340 H2325 0.960 . S
C2340 H2326 0.960 . S
C2340 H2327 0.960 . S
C2340 C2339 1.524 . S
C2341 C2338 1.403 . S
C2341 C2342 1.392 . S
C2341 C2345 1.495 . S
C2342 C2341 1.392 . S
C2342 C2343 1.385 . S
C2342 C2344 1.478 . S
C2343 H2337 0.930 . S
C2343 C2339 1.400 . S
C2343 C2342 1.385 . S
C2344 C2342 1.478 . S
C2344 C2346 1.381 . S
C2344 C2350 1.383 . S
C2345 C2341 1.495 . S
C2345 H2351 0.959 . S
C2345 H2352 0.961 . S
C2345 H2353 0.960 . S
C2346 C2344 1.381 . S
C2346 C2347 1.394 . S
C2346 H2354 0.930 . S
C2347 C2346 1.394 . S
C2347 C2348 1.383 . S
C2347 H2355 0.929 . S
C2348 C2347 1.383 . S
C2348 C2349 1.377 . S
C2349 H2333 0.930 . S
C2349 C2348 1.377 . S
C2349 C2350 1.379 . S
C2350 H2334 0.931 . S
C2350 C2344 1.383 . S
C2350 C2349 1.379 . S
H2351 C2345 0.959 . S
H2352 C2345 0.961 . S
H2353 C2345 0.960 . S
H2354 C2346 0.930 . S
H2355 C2347 0.929 . S
H2356 C2364 0.929 . S
H2357 C2366 0.930 . S
H2358 C2368 0.930 . S
H2359 C2371 0.929 . S
H2360 C2374 0.930 . S
H2361 C2376 0.960 . S
H2362 C2376 0.960 . S
H2363 C2376 0.960 . S
C2364 H2356 0.929 . S
C2364 C2365 1.377 . S
C2364 C2366 1.384 1_455 S
C2365 C2364 1.377 . S
C2365 C2371 1.390 . S
C2366 H2357 0.930 . S
C2366 C2364 1.384 1_655 S
C2366 C2367 1.372 . S
C2367 C2366 1.372 . S
C2367 C2368 1.400 1_655 S
C2367 C2372 1.490 . S
C2368 H2358 0.930 . S
C2368 C2367 1.400 1_455 S
C2368 C2371 1.386 . S
H2369 C2385 0.930 . S
H2370 C2386 0.931 . S
C2371 H2359 0.929 . S
C2371 C2365 1.390 . S
C2371 C2368 1.386 . S
C2372 C2367 1.490 . S
C2372 C2374 1.395 . S
C2372 C2375 1.403 . S
H2373 C2379 0.930 . S
C2374 H2360 0.930 . S
C2374 C2372 1.395 . S
C2374 C2377 1.403 . S
C2375 C2372 1.403 . S
C2375 C2376 1.524 . S
C2375 C2379 1.400 . S
C2376 H2361 0.960 . S
C2376 H2362 0.960 . S
C2376 H2363 0.960 . S
C2376 C2375 1.524 . S
C2377 C2374 1.403 . S
C2377 C2378 1.392 . S
C2377 C2381 1.495 . S
C2378 C2377 1.392 . S
C2378 C2379 1.385 . S
C2378 C2380 1.478 . S
C2379 H2373 0.930 . S
C2379 C2375 1.400 . S
C2379 C2378 1.385 . S
C2380 C2378 1.478 . S
C2380 C2382 1.381 . S
C2380 C2386 1.383 . S
C2381 C2377 1.495 . S
C2381 H2387 0.959 . S
C2381 H2388 0.961 . S
C2381 H2389 0.960 . S
C2382 C2380 1.381 . S
C2382 C2383 1.394 . S
C2382 H2390 0.930 . S
C2383 C2382 1.394 . S
C2383 C2384 1.383 . S
C2383 H2391 0.929 . S
C2384 C2383 1.383 . S
C2384 C2385 1.377 . S
C2385 H2369 0.930 . S
C2385 C2384 1.377 . S
C2385 C2386 1.379 . S
C2386 H2370 0.931 . S
C2386 C2380 1.383 . S
C2386 C2385 1.379 . S
H2387 C2381 0.959 . S
H2388 C2381 0.961 . S
H2389 C2381 0.960 . S
H2390 C2382 0.930 . S
H2391 C2383 0.929 . S
H2392 C2400 0.929 . S
H2393 C2402 0.930 . S
H2394 C2404 0.930 . S
H2395 C2407 0.929 . S
H2396 C2410 0.930 . S
H2397 C2412 0.960 . S
H2398 C2412 0.960 . S
H2399 C2412 0.960 . S
C2400 H2392 0.929 . S
C2400 C2401 1.377 . S
C2400 C2402 1.384 . S
C2401 C2400 1.377 . S
C2401 C2407 1.390 . S
C2402 H2393 0.930 . S
C2402 C2400 1.384 . S
C2402 C2403 1.372 . S
C2403 C2402 1.372 . S
C2403 C2404 1.400 . S
C2403 C2408 1.490 . S
C2404 H2394 0.930 . S
C2404 C2403 1.400 . S
C2404 C2407 1.386 . S
H2405 C2421 0.930 . S
H2406 C2422 0.931 . S
C2407 H2395 0.929 . S
C2407 C2401 1.390 . S
C2407 C2404 1.386 . S
C2408 C2403 1.490 . S
C2408 C2410 1.395 . S
C2408 C2411 1.403 . S
H2409 C2415 0.930 . S
C2410 H2396 0.930 . S
C2410 C2408 1.395 . S
C2410 C2413 1.403 . S
C2411 C2408 1.403 . S
C2411 C2412 1.524 . S
C2411 C2415 1.400 . S
C2412 H2397 0.960 . S
C2412 H2398 0.960 . S
C2412 H2399 0.960 . S
C2412 C2411 1.524 . S
C2413 C2410 1.403 . S
C2413 C2414 1.392 . S
C2413 C2417 1.495 . S
C2414 C2413 1.392 . S
C2414 C2415 1.385 . S
C2414 C2416 1.478 . S
C2415 H2409 0.930 . S
C2415 C2411 1.400 . S
C2415 C2414 1.385 . S
C2416 C2414 1.478 . S
C2416 C2418 1.381 . S
C2416 C2422 1.383 . S
C2417 C2413 1.495 . S
C2417 H2423 0.959 . S
C2417 H2424 0.961 . S
C2417 H2425 0.960 . S
C2418 C2416 1.381 . S
C2418 C2419 1.394 . S
C2418 H2426 0.930 . S
C2419 C2418 1.394 . S
C2419 C2420 1.383 . S
C2419 H2427 0.929 . S
C2420 C2419 1.383 . S
C2420 C2421 1.377 . S
C2421 H2405 0.930 . S
C2421 C2420 1.377 . S
C2421 C2422 1.379 . S
C2422 H2406 0.931 . S
C2422 C2416 1.383 . S
C2422 C2421 1.379 . S
H2423 C2417 0.959 . S
H2424 C2417 0.961 . S
H2425 C2417 0.960 . S
H2426 C2418 0.930 . S
H2427 C2419 0.929 . S
H2428 C2436 0.929 . S
H2429 C2438 0.930 . S
H2430 C2440 0.930 . S
H2431 C2443 0.929 . S
H2432 C2446 0.930 . S
H2433 C2448 0.960 . S
H2434 C2448 0.960 . S
H2435 C2448 0.960 . S
C2436 H2428 0.929 . S
C2436 C2437 1.377 . S
C2436 C2438 1.384 . S
C2437 C2436 1.377 . S
C2437 C2443 1.390 . S
C2438 H2429 0.930 . S
C2438 C2436 1.384 . S
C2438 C2439 1.372 . S
C2439 C2438 1.372 . S
C2439 C2440 1.400 . S
C2439 C2444 1.490 . S
C2440 H2430 0.930 . S
C2440 C2439 1.400 . S
C2440 C2443 1.386 . S
H2441 C2457 0.930 . S
H2442 C2458 0.931 . S
C2443 H2431 0.929 . S
C2443 C2437 1.390 . S
C2443 C2440 1.386 . S
C2444 C2439 1.490 . S
C2444 C2446 1.395 . S
C2444 C2447 1.403 . S
H2445 C2451 0.930 . S
C2446 H2432 0.930 . S
C2446 C2444 1.395 . S
C2446 C2449 1.403 . S
C2447 C2444 1.403 . S
C2447 C2448 1.524 . S
C2447 C2451 1.400 . S
C2448 H2433 0.960 . S
C2448 H2434 0.960 . S
C2448 H2435 0.960 . S
C2448 C2447 1.524 . S
C2449 C2446 1.403 . S
C2449 C2450 1.392 . S
C2449 C2453 1.495 . S
C2450 C2449 1.392 . S
C2450 C2451 1.385 . S
C2450 C2452 1.478 . S
C2451 H2445 0.930 . S
C2451 C2447 1.400 . S
C2451 C2450 1.385 . S
C2452 C2450 1.478 . S
C2452 C2454 1.381 . S
C2452 C2458 1.383 . S
C2453 C2449 1.495 . S
C2453 H2459 0.959 . S
C2453 H2460 0.961 . S
C2453 H2461 0.960 . S
C2454 C2452 1.381 . S
C2454 C2455 1.394 . S
C2454 H2462 0.930 . S
C2455 C2454 1.394 . S
C2455 C2456 1.383 . S
C2455 H2463 0.929 . S
C2456 C2455 1.383 . S
C2456 C2457 1.377 . S
C2457 H2441 0.930 . S
C2457 C2456 1.377 . S
C2457 C2458 1.379 . S
C2458 H2442 0.931 . S
C2458 C2452 1.383 . S
C2458 C2457 1.379 . S
H2459 C2453 0.959 . S
H2460 C2453 0.961 . S
H2461 C2453 0.960 . S
H2462 C2454 0.930 . S
H2463 C2455 0.929 . S
H2464 C2472 0.929 . S
H2465 C2474 0.930 . S
H2466 C2476 0.930 . S
H2467 C2479 0.929 . S
H2468 C2482 0.930 . S
H2469 C2484 0.960 . S
H2470 C2484 0.960 . S
H2471 C2484 0.960 . S
C2472 H2464 0.929 . S
C2472 C2473 1.377 . S
C2472 C2474 1.384 . S
C2473 C2472 1.377 . S
C2473 C2479 1.390 . S
C2474 H2465 0.930 . S
C2474 C2472 1.384 . S
C2474 C2475 1.372 . S
C2475 C2474 1.372 . S
C2475 C2476 1.400 . S
C2475 C2480 1.490 . S
C2476 H2466 0.930 . S
C2476 C2475 1.400 . S
C2476 C2479 1.386 . S
H2477 C2493 0.930 . S
H2478 C2494 0.931 . S
C2479 H2467 0.929 . S
C2479 C2473 1.390 . S
C2479 C2476 1.386 . S
C2480 C2475 1.490 . S
C2480 C2482 1.395 . S
C2480 C2483 1.403 . S
H2481 C2487 0.930 . S
C2482 H2468 0.930 . S
C2482 C2480 1.395 . S
C2482 C2485 1.403 . S
C2483 C2480 1.403 . S
C2483 C2484 1.524 . S
C2483 C2487 1.400 . S
C2484 H2469 0.960 . S
C2484 H2470 0.960 . S
C2484 H2471 0.960 . S
C2484 C2483 1.524 . S
C2485 C2482 1.403 . S
C2485 C2486 1.392 . S
C2485 C2489 1.495 . S
C2486 C2485 1.392 . S
C2486 C2487 1.385 . S
C2486 C2488 1.478 . S
C2487 H2481 0.930 . S
C2487 C2483 1.400 . S
C2487 C2486 1.385 . S
C2488 C2486 1.478 . S
C2488 C2490 1.381 . S
C2488 C2494 1.383 . S
C2489 C2485 1.495 . S
C2489 H2495 0.959 . S
C2489 H2496 0.961 . S
C2489 H2497 0.960 . S
C2490 C2488 1.381 . S
C2490 C2491 1.394 . S
C2490 H2498 0.930 . S
C2491 C2490 1.394 . S
C2491 C2492 1.383 . S
C2491 H2499 0.929 . S
C2492 C2491 1.383 . S
C2492 C2493 1.377 . S
C2493 H2477 0.930 . S
C2493 C2492 1.377 . S
C2493 C2494 1.379 . S
C2494 H2478 0.931 . S
C2494 C2488 1.383 . S
C2494 C2493 1.379 . S
H2495 C2489 0.959 . S
H2496 C2489 0.961 . S
H2497 C2489 0.960 . S
H2498 C2490 0.930 . S
H2499 C2491 0.929 . S
H2500 C2508 0.929 . S
H2501 C2510 0.930 . S
H2502 C2512 0.930 . S
H2503 C2515 0.929 . S
H2504 C2518 0.930 . S
H2505 C2520 0.960 . S
H2506 C2520 0.960 . S
H2507 C2520 0.960 . S
C2508 H2500 0.929 . S
C2508 C2509 1.377 . S
C2508 C2510 1.384 . S
C2509 C2508 1.377 . S
C2509 C2515 1.390 . S
C2510 H2501 0.930 . S
C2510 C2508 1.384 . S
C2510 C2511 1.372 . S
C2511 C2510 1.372 . S
C2511 C2512 1.400 . S
C2511 C2516 1.490 . S
C2512 H2502 0.930 . S
C2512 C2511 1.400 . S
C2512 C2515 1.386 . S
H2513 C2529 0.930 . S
H2514 C2530 0.931 . S
C2515 H2503 0.929 . S
C2515 C2509 1.390 . S
C2515 C2512 1.386 . S
C2516 C2511 1.490 . S
C2516 C2518 1.395 . S
C2516 C2519 1.403 . S
H2517 C2523 0.930 . S
C2518 H2504 0.930 . S
C2518 C2516 1.395 . S
C2518 C2521 1.403 . S
C2519 C2516 1.403 . S
C2519 C2520 1.524 . S
C2519 C2523 1.400 . S
C2520 H2505 0.960 . S
C2520 H2506 0.960 . S
C2520 H2507 0.960 . S
C2520 C2519 1.524 . S
C2521 C2518 1.403 . S
C2521 C2522 1.392 . S
C2521 C2525 1.495 . S
C2522 C2521 1.392 . S
C2522 C2523 1.385 . S
C2522 C2524 1.478 . S
C2523 H2517 0.930 . S
C2523 C2519 1.400 . S
C2523 C2522 1.385 . S
C2524 C2522 1.478 . S
C2524 C2526 1.381 . S
C2524 C2530 1.383 . S
C2525 C2521 1.495 . S
C2525 H2531 0.959 . S
C2525 H2532 0.961 . S
C2525 H2533 0.960 . S
C2526 C2524 1.381 . S
C2526 C2527 1.394 . S
C2526 H2534 0.930 . S
C2527 C2526 1.394 . S
C2527 C2528 1.383 . S
C2527 H2535 0.929 . S
C2528 C2527 1.383 . S
C2528 C2529 1.377 . S
C2529 H2513 0.930 . S
C2529 C2528 1.377 . S
C2529 C2530 1.379 . S
C2530 H2514 0.931 . S
C2530 C2524 1.383 . S
C2530 C2529 1.379 . S
H2531 C2525 0.959 . S
H2532 C2525 0.961 . S
H2533 C2525 0.960 . S
H2534 C2526 0.930 . S
H2535 C2527 0.929 . S
H2536 C2544 0.929 . S
H2537 C2546 0.930 . S
H2538 C2548 0.930 . S
H2539 C2551 0.929 . S
H2540 C2554 0.930 . S
H2541 C2556 0.960 . S
H2542 C2556 0.960 . S
H2543 C2556 0.960 . S
C2544 H2536 0.929 . S
C2544 C2545 1.377 . S
C2544 C2546 1.384 . S
C2545 C2544 1.377 . S
C2545 C2551 1.390 . S
C2546 H2537 0.930 . S
C2546 C2544 1.384 . S
C2546 C2547 1.372 . S
C2547 C2546 1.372 . S
C2547 C2548 1.400 . S
C2547 C2552 1.490 . S
C2548 H2538 0.930 . S
C2548 C2547 1.400 . S
C2548 C2551 1.386 . S
H2549 C2565 0.930 . S
H2550 C2566 0.931 . S
C2551 H2539 0.929 . S
C2551 C2545 1.390 . S
C2551 C2548 1.386 . S
C2552 C2547 1.490 . S
C2552 C2554 1.395 . S
C2552 C2555 1.403 . S
H2553 C2559 0.930 . S
C2554 H2540 0.930 . S
C2554 C2552 1.395 . S
C2554 C2557 1.403 . S
C2555 C2552 1.403 . S
C2555 C2556 1.524 . S
C2555 C2559 1.400 . S
C2556 H2541 0.960 . S
C2556 H2542 0.960 . S
C2556 H2543 0.960 . S
C2556 C2555 1.524 . S
C2557 C2554 1.403 . S
C2557 C2558 1.392 . S
C2557 C2561 1.495 . S
C2558 C2557 1.392 . S
C2558 C2559 1.385 . S
C2558 C2560 1.478 . S
C2559 H2553 0.930 . S
C2559 C2555 1.400 . S
C2559 C2558 1.385 . S
C2560 C2558 1.478 . S
C2560 C2562 1.381 . S
C2560 C2566 1.383 . S
C2561 C2557 1.495 . S
C2561 H2567 0.959 . S
C2561 H2568 0.961 . S
C2561 H2569 0.960 . S
C2562 C2560 1.381 . S
C2562 C2563 1.394 . S
C2562 H2570 0.930 . S
C2563 C2562 1.394 . S
C2563 C2564 1.383 . S
C2563 H2571 0.929 . S
C2564 C2563 1.383 . S
C2564 C2565 1.377 . S
C2565 H2549 0.930 . S
C2565 C2564 1.377 . S
C2565 C2566 1.379 . S
C2566 H2550 0.931 . S
C2566 C2560 1.383 . S
C2566 C2565 1.379 . S
H2567 C2561 0.959 . S
H2568 C2561 0.961 . S
H2569 C2561 0.960 . S
H2570 C2562 0.930 . S
H2571 C2563 0.929 . S
H2572 C2580 0.929 . S
H2573 C2582 0.930 . S
H2574 C2584 0.930 . S
H2575 C2587 0.929 . S
H2576 C2590 0.930 . S
H2577 C2592 0.960 . S
H2578 C2592 0.960 . S
H2579 C2592 0.960 . S
C2580 H2572 0.929 . S
C2580 C2581 1.377 . S
C2580 C2582 1.384 1_655 S
C2581 C2580 1.377 . S
C2581 C2587 1.390 . S
C2582 H2573 0.930 . S
C2582 C2580 1.384 1_455 S
C2582 C2583 1.372 . S
C2583 C2582 1.372 . S
C2583 C2584 1.400 1_455 S
C2583 C2588 1.490 . S
C2584 H2574 0.930 . S
C2584 C2583 1.400 1_655 S
C2584 C2587 1.386 . S
H2585 C2601 0.930 . S
H2586 C2602 0.931 . S
C2587 H2575 0.929 . S
C2587 C2581 1.390 . S
C2587 C2584 1.386 . S
C2588 C2583 1.490 . S
C2588 C2590 1.395 . S
C2588 C2591 1.403 . S
H2589 C2595 0.930 . S
C2590 H2576 0.930 . S
C2590 C2588 1.395 . S
C2590 C2593 1.403 . S
C2591 C2588 1.403 . S
C2591 C2592 1.524 . S
C2591 C2595 1.400 . S
C2592 H2577 0.960 . S
C2592 H2578 0.960 . S
C2592 H2579 0.960 . S
C2592 C2591 1.524 . S
C2593 C2590 1.403 . S
C2593 C2594 1.392 . S
C2593 C2597 1.495 . S
C2594 C2593 1.392 . S
C2594 C2595 1.385 . S
C2594 C2596 1.478 . S
C2595 H2589 0.930 . S
C2595 C2591 1.400 . S
C2595 C2594 1.385 . S
C2596 C2594 1.478 . S
C2596 C2598 1.381 . S
C2596 C2602 1.383 . S
C2597 C2593 1.495 . S
C2597 H2603 0.959 . S
C2597 H2604 0.961 . S
C2597 H2605 0.960 . S
C2598 C2596 1.381 . S
C2598 C2599 1.394 . S
C2598 H2606 0.930 . S
C2599 C2598 1.394 . S
C2599 C2600 1.383 . S
C2599 H2607 0.929 . S
C2600 C2599 1.383 . S
C2600 C2601 1.377 . S
C2601 H2585 0.930 . S
C2601 C2600 1.377 . S
C2601 C2602 1.379 . S
C2602 H2586 0.931 . S
C2602 C2596 1.383 . S
C2602 C2601 1.379 . S
H2603 C2597 0.959 . S
H2604 C2597 0.961 . S
H2605 C2597 0.960 . S
H2606 C2598 0.930 . S
H2607 C2599 0.929 . S
H2608 C2616 0.929 . S
H2609 C2618 0.930 . S
H2610 C2620 0.930 . S
H2611 C2623 0.929 . S
H2612 C2626 0.930 . S
H2613 C2628 0.960 . S
H2614 C2628 0.960 . S
H2615 C2628 0.960 . S
C2616 H2608 0.929 . S
C2616 C2617 1.377 . S
C2616 C2618 1.384 . S
C2617 C2616 1.377 . S
C2617 C2623 1.390 . S
C2618 H2609 0.930 . S
C2618 C2616 1.384 . S
C2618 C2619 1.372 . S
C2619 C2618 1.372 . S
C2619 C2620 1.400 . S
C2619 C2624 1.490 . S
C2620 H2610 0.930 . S
C2620 C2619 1.400 . S
C2620 C2623 1.386 . S
H2621 C2637 0.930 . S
H2622 C2638 0.931 . S
C2623 H2611 0.929 . S
C2623 C2617 1.390 . S
C2623 C2620 1.386 . S
C2624 C2619 1.490 . S
C2624 C2626 1.395 . S
C2624 C2627 1.403 . S
H2625 C2631 0.930 . S
C2626 H2612 0.930 . S
C2626 C2624 1.395 . S
C2626 C2629 1.403 . S
C2627 C2624 1.403 . S
C2627 C2628 1.524 . S
C2627 C2631 1.400 . S
C2628 H2613 0.960 . S
C2628 H2614 0.960 . S
C2628 H2615 0.960 . S
C2628 C2627 1.524 . S
C2629 C2626 1.403 . S
C2629 C2630 1.392 . S
C2629 C2633 1.495 . S
C2630 C2629 1.392 . S
C2630 C2631 1.385 . S
C2630 C2632 1.478 . S
C2631 H2625 0.930 . S
C2631 C2627 1.400 . S
C2631 C2630 1.385 . S
C2632 C2630 1.478 . S
C2632 C2634 1.381 . S
C2632 C2638 1.383 . S
C2633 C2629 1.495 . S
C2633 H2639 0.959 . S
C2633 H2640 0.961 . S
C2633 H2641 0.960 . S
C2634 C2632 1.381 . S
C2634 C2635 1.394 . S
C2634 H2642 0.930 . S
C2635 C2634 1.394 . S
C2635 C2636 1.383 . S
C2635 H2643 0.929 . S
C2636 C2635 1.383 . S
C2636 C2637 1.377 . S
C2637 H2621 0.930 . S
C2637 C2636 1.377 . S
C2637 C2638 1.379 . S
C2638 H2622 0.931 . S
C2638 C2632 1.383 . S
C2638 C2637 1.379 . S
H2639 C2633 0.959 . S
H2640 C2633 0.961 . S
H2641 C2633 0.960 . S
H2642 C2634 0.930 . S
H2643 C2635 0.929 . S
H2644 C2652 0.929 . S
H2645 C2654 0.930 . S
H2646 C2656 0.930 . S
H2647 C2659 0.929 . S
H2648 C2662 0.930 . S
H2649 C2664 0.960 . S
H2650 C2664 0.960 . S
H2651 C2664 0.960 . S
C2652 H2644 0.929 . S
C2652 C2653 1.377 . S
C2652 C2654 1.384 . S
C2653 C2652 1.377 . S
C2653 C2659 1.390 . S
C2654 H2645 0.930 . S
C2654 C2652 1.384 . S
C2654 C2655 1.372 . S
C2655 C2654 1.372 . S
C2655 C2656 1.400 . S
C2655 C2660 1.490 . S
C2656 H2646 0.930 . S
C2656 C2655 1.400 . S
C2656 C2659 1.386 . S
H2657 C2673 0.930 . S
H2658 C2674 0.931 . S
C2659 H2647 0.929 . S
C2659 C2653 1.390 . S
C2659 C2656 1.386 . S
C2660 C2655 1.490 . S
C2660 C2662 1.395 . S
C2660 C2663 1.403 . S
H2661 C2667 0.930 . S
C2662 H2648 0.930 . S
C2662 C2660 1.395 . S
C2662 C2665 1.403 . S
C2663 C2660 1.403 . S
C2663 C2664 1.524 . S
C2663 C2667 1.400 . S
C2664 H2649 0.960 . S
C2664 H2650 0.960 . S
C2664 H2651 0.960 . S
C2664 C2663 1.524 . S
C2665 C2662 1.403 . S
C2665 C2666 1.392 . S
C2665 C2669 1.495 . S
C2666 C2665 1.392 . S
C2666 C2667 1.385 . S
C2666 C2668 1.478 . S
C2667 H2661 0.930 . S
C2667 C2663 1.400 . S
C2667 C2666 1.385 . S
C2668 C2666 1.478 . S
C2668 C2670 1.381 1_455 S
C2668 C2674 1.383 . S
C2669 C2665 1.495 . S
C2669 H2675 0.959 . S
C2669 H2676 0.961 . S
C2669 H2677 0.960 . S
C2670 C2668 1.381 1_655 S
C2670 C2671 1.394 . S
C2670 H2678 0.930 . S
C2671 C2670 1.394 . S
C2671 C2672 1.383 . S
C2671 H2679 0.929 . S
C2672 C2671 1.383 . S
C2672 C2673 1.377 . S
C2673 H2657 0.930 . S
C2673 C2672 1.377 . S
C2673 C2674 1.379 1_655 S
C2674 H2658 0.931 . S
C2674 C2668 1.383 . S
C2674 C2673 1.379 1_455 S
H2675 C2669 0.959 . S
H2676 C2669 0.961 . S
H2677 C2669 0.960 . S
H2678 C2670 0.930 . S
H2679 C2671 0.929 . S
H2680 C2688 0.929 . S
H2681 C2690 0.930 . S
H2682 C2692 0.930 . S
H2683 C2695 0.929 . S
H2684 C2698 0.930 . S
H2685 C2700 0.960 . S
H2686 C2700 0.960 . S
H2687 C2700 0.960 . S
C2688 H2680 0.929 . S
C2688 C2689 1.377 . S
C2688 C2690 1.384 . S
C2689 C2688 1.377 . S
C2689 C2695 1.390 . S
C2690 H2681 0.930 . S
C2690 C2688 1.384 . S
C2690 C2691 1.372 . S
C2691 C2690 1.372 . S
C2691 C2692 1.400 . S
C2691 C2696 1.490 . S
C2692 H2682 0.930 . S
C2692 C2691 1.400 . S
C2692 C2695 1.386 . S
H2693 C2709 0.930 . S
H2694 C2710 0.931 . S
C2695 H2683 0.929 . S
C2695 C2689 1.390 . S
C2695 C2692 1.386 . S
C2696 C2691 1.490 . S
C2696 C2698 1.395 . S
C2696 C2699 1.403 . S
H2697 C2703 0.930 . S
C2698 H2684 0.930 . S
C2698 C2696 1.395 . S
C2698 C2701 1.403 . S
C2699 C2696 1.403 . S
C2699 C2700 1.524 . S
C2699 C2703 1.400 . S
C2700 H2685 0.960 . S
C2700 H2686 0.960 . S
C2700 H2687 0.960 . S
C2700 C2699 1.524 . S
C2701 C2698 1.403 . S
C2701 C2702 1.392 . S
C2701 C2705 1.495 . S
C2702 C2701 1.392 . S
C2702 C2703 1.385 . S
C2702 C2704 1.478 . S
C2703 H2697 0.930 . S
C2703 C2699 1.400 . S
C2703 C2702 1.385 . S
C2704 C2702 1.478 . S
C2704 C2706 1.381 . S
C2704 C2710 1.383 . S
C2705 C2701 1.495 . S
C2705 H2711 0.959 . S
C2705 H2712 0.961 . S
C2705 H2713 0.960 . S
C2706 C2704 1.381 . S
C2706 C2707 1.394 . S
C2706 H2714 0.930 . S
C2707 C2706 1.394 . S
C2707 C2708 1.383 . S
C2707 H2715 0.929 . S
C2708 C2707 1.383 . S
C2708 C2709 1.377 . S
C2709 H2693 0.930 . S
C2709 C2708 1.377 . S
C2709 C2710 1.379 . S
C2710 H2694 0.931 . S
C2710 C2704 1.383 . S
C2710 C2709 1.379 . S
H2711 C2705 0.959 . S
H2712 C2705 0.961 . S
H2713 C2705 0.960 . S
H2714 C2706 0.930 . S
H2715 C2707 0.929 . S
H2716 C2724 0.929 . S
H2717 C2726 0.930 . S
H2718 C2728 0.930 . S
H2719 C2731 0.929 . S
H2720 C2734 0.930 . S
H2721 C2736 0.960 . S
H2722 C2736 0.960 . S
H2723 C2736 0.960 . S
C2724 H2716 0.929 . S
C2724 C2725 1.377 . S
C2724 C2726 1.384 . S
C2725 C2724 1.377 . S
C2725 C2731 1.390 . S
C2726 H2717 0.930 . S
C2726 C2724 1.384 . S
C2726 C2727 1.372 . S
C2727 C2726 1.372 . S
C2727 C2728 1.400 . S
C2727 C2732 1.490 . S
C2728 H2718 0.930 . S
C2728 C2727 1.400 . S
C2728 C2731 1.386 . S
H2729 C2745 0.930 . S
H2730 C2746 0.931 . S
C2731 H2719 0.929 . S
C2731 C2725 1.390 . S
C2731 C2728 1.386 . S
C2732 C2727 1.490 . S
C2732 C2734 1.395 . S
C2732 C2735 1.403 . S
H2733 C2739 0.930 . S
C2734 H2720 0.930 . S
C2734 C2732 1.395 . S
C2734 C2737 1.403 . S
C2735 C2732 1.403 . S
C2735 C2736 1.524 . S
C2735 C2739 1.400 . S
C2736 H2721 0.960 . S
C2736 H2722 0.960 . S
C2736 H2723 0.960 . S
C2736 C2735 1.524 . S
C2737 C2734 1.403 . S
C2737 C2738 1.392 . S
C2737 C2741 1.495 . S
C2738 C2737 1.392 . S
C2738 C2739 1.385 . S
C2738 C2740 1.478 . S
C2739 H2733 0.930 . S
C2739 C2735 1.400 . S
C2739 C2738 1.385 . S
C2740 C2738 1.478 . S
C2740 C2742 1.381 . S
C2740 C2746 1.383 . S
C2741 C2737 1.495 . S
C2741 H2747 0.959 . S
C2741 H2748 0.961 . S
C2741 H2749 0.960 . S
C2742 C2740 1.381 . S
C2742 C2743 1.394 . S
C2742 H2750 0.930 . S
C2743 C2742 1.394 . S
C2743 C2744 1.383 . S
C2743 H2751 0.929 . S
C2744 C2743 1.383 . S
C2744 C2745 1.377 . S
C2745 H2729 0.930 . S
C2745 C2744 1.377 . S
C2745 C2746 1.379 . S
C2746 H2730 0.931 . S
C2746 C2740 1.383 . S
C2746 C2745 1.379 . S
H2747 C2741 0.959 . S
H2748 C2741 0.961 . S
H2749 C2741 0.960 . S
H2750 C2742 0.930 . S
H2751 C2743 0.929 . S
C457 C64 1.511 . S
C476 C8 1.502 . S
C493 C78 1.511 . S
C512 C22 1.502 . S
C529 C92 1.511 . S
C548 C36 1.501 . S
C565 C50 1.512 . S
C584 C106 1.507 . S
C601 C120 1.514 . S
C620 C176 1.515 . S
C637 C190 1.514 . S
C656 C134 1.502 . S
C673 C148 1.514 . S
C692 C204 1.509 . S
C709 C218 1.511 . S
C728 C162 1.516 . S
C745 C232 1.514 . S
C764 C288 1.518 . S
C781 C302 1.511 . S
C800 C246 1.501 . S
C817 C316 1.511 . S
C836 C260 1.503 . S
C853 C330 1.514 . S
C872 C274 1.518 . S
C889 C344 1.513 . S
C908 C400 1.516 . S
C925 C358 1.514 . S
C944 C414 1.515 . S
C961 C372 1.514 . S
C980 C428 1.511 . S
C997 C386 1.513 . S
C1016 C442 1.501 . S
C1033 C7 1.198 . S
C1052 C105 1.184 . S
C1069 C21 1.192 . S
C1088 C63 1.205 . S
C1105 C35 1.191 . S
C1124 C77 1.178 . S
C1141 C91 1.190 . S
C1160 C49 1.186 . S
C1177 C217 1.196 . S
C1196 C119 1.187 . S
C1213 C175 1.191 . S
C1232 C133 1.189 . S
C1249 C189 1.195 . S
C1268 C147 1.182 . S
C1285 C161 1.194 . S
C1304 C203 1.203 . S
C1321 C329 1.193 . S
C1340 C231 1.209 . S
C1357 C287 1.193 . S
C1376 C245 1.208 . S
C1393 C301 1.198 . S
C1412 C259 1.189 . S
C1429 C273 1.197 . S
C1448 C315 1.209 . S
C1465 C343 1.193 . S
C1484 C441 1.198 . S
C1501 C357 1.190 . S
C1520 C399 1.178 . S
C1537 C371 1.198 . S
C1556 C413 1.201 . S
C1573 C427 1.194 . S
C1592 C385 1.179 . S
C1609 C9 1.431 . S
C1628 C353 1.446 . S
C1645 C23 1.431 . S
C1664 C143 1.446 . S
C1681 C37 1.433 . S
C1700 C381 1.431 . S
C1717 C115 1.440 . S
C1736 C51 1.418 . S
C1753 C437 1.438 . S
C1772 C65 1.424 . S
C1789 C79 1.431 . S
C1808 C171 1.446 . S
C1825 C93 1.432 . S
C1844 C409 1.444 . S
C1861 C107 1.431 . S
C1880 C199 1.446 . S
C1897 C241 1.437 . S
C1916 C121 1.416 . S
C1933 C31 1.440 . S
C1952 C135 1.433 . S
C1969 C269 1.440 . S
C1988 C149 1.436 . S
C2005 C163 1.430 . S
C2024 C3 1.433 . S
C2041 C325 1.440 . S
C2060 C177 1.425 . S
C2077 C59 1.440 . S
C2096 C191 1.441 . S
C2113 C297 1.440 . S
C2132 C205 1.422 . S
C2149 C87 1.438 . S
C2168 C219 1.444 . S
C2185 C129 1.436 . S
C2204 C233 1.444 . S
C2221 C247 1.430 . S
C2240 C367 1.445 . S
C2257 C261 1.436 . S
C2276 C157 1.424 . S
C2293 C275 1.436 . S
C2312 C339 1.428 . S
C2329 C289 1.436 . S
C2348 C213 1.424 . S
C2365 C395 1.440 . S
C2384 C303 1.419 . S
C2401 C317 1.436 . S
C2420 C185 1.429 . S
C2437 C331 1.436 . S
C2456 C423 1.424 . S
C2473 C345 1.433 . S
C2492 C17 1.423 . S
C2509 C359 1.436 . S
C2528 C255 1.431 . S
C2545 C45 1.439 . S
C2564 C373 1.444 . S
C2581 C227 1.436 . S
C2600 C387 1.438 . S
C2617 C401 1.435 . S
C2636 C101 1.427 . S
C2653 C415 1.430 . S
C2672 C283 1.431 . S
C2689 C73 1.440 . S
C2708 C429 1.421 . S
C2725 C311 1.436 . S
C2744 C443 1.424 . S
