# Generated by pormake.
# Topology wfv, (7)-cn, num edge types: 1
# Building blocks:
#     Node 0, Type 0, BuildingBlock: NUHQUE_clean_sbu_2, # of connection points: 7
#     Node 1, Type 0, BuildingBlock: NUHQUE_clean_sbu_2, # of connection points: 7
#     Node 2, Type 0, BuildingBlock: NUHQUE_clean_sbu_2, # of connection points: 7
#     Node 3, Type 0, BuildingBlock: NUHQUE_clean_sbu_2, # of connection points: 7
#     Node 4, Type 0, BuildingBlock: NUHQUE_clean_sbu_2, # of connection points: 7
#     Node 5, Type 0, BuildingBlock: NUHQUE_clean_sbu_2, # of connection points: 7
#     Node 6, Type 0, BuildingBlock: NUHQUE_clean_sbu_2, # of connection points: 7
#     Node 7, Type 0, BuildingBlock: NUHQUE_clean_sbu_2, # of connection points: 7
#     Node 8, Type 0, BuildingBlock: NUHQUE_clean_sbu_2, # of connection points: 7
#     Node 9, Type 0, BuildingBlock: NUHQUE_clean_sbu_2, # of connection points: 7
#     Node 10, Type 0, BuildingBlock: NUHQUE_clean_sbu_2, # of connection points: 7
#     Node 11, Type 0, BuildingBlock: NUHQUE_clean_sbu_2, # of connection points: 7
#     Node 12, Type 0, BuildingBlock: NUHQUE_clean_sbu_2, # of connection points: 7
#     Node 13, Type 0, BuildingBlock: NUHQUE_clean_sbu_2, # of connection points: 7
#     Node 14, Type 0, BuildingBlock: NUHQUE_clean_sbu_2, # of connection points: 7
#     Node 15, Type 0, BuildingBlock: NUHQUE_clean_sbu_2, # of connection points: 7
#     Edge 16, Type (0, 0), BuildingBlock: MIFKUJ_clean_linker_0, # of connection points: 2
#     Edge 17, Type (0, 0), BuildingBlock: MIFKUJ_clean_linker_0, # of connection points: 2
#     Edge 18, Type (0, 0), BuildingBlock: MIFKUJ_clean_linker_0, # of connection points: 2
#     Edge 19, Type (0, 0), BuildingBlock: MIFKUJ_clean_linker_0, # of connection points: 2
#     Edge 20, Type (0, 0), BuildingBlock: MIFKUJ_clean_linker_0, # of connection points: 2
#     Edge 21, Type (0, 0), BuildingBlock: MIFKUJ_clean_linker_0, # of connection points: 2
#     Edge 22, Type (0, 0), BuildingBlock: MIFKUJ_clean_linker_0, # of connection points: 2
#     Edge 23, Type (0, 0), BuildingBlock: MIFKUJ_clean_linker_0, # of connection points: 2
#     Edge 24, Type (0, 0), BuildingBlock: MIFKUJ_clean_linker_0, # of connection points: 2
#     Edge 25, Type (0, 0), BuildingBlock: MIFKUJ_clean_linker_0, # of connection points: 2
#     Edge 26, Type (0, 0), BuildingBlock: MIFKUJ_clean_linker_0, # of connection points: 2
#     Edge 27, Type (0, 0), BuildingBlock: MIFKUJ_clean_linker_0, # of connection points: 2
#     Edge 28, Type (0, 0), BuildingBlock: MIFKUJ_clean_linker_0, # of connection points: 2
#     Edge 29, Type (0, 0), BuildingBlock: MIFKUJ_clean_linker_0, # of connection points: 2
#     Edge 30, Type (0, 0), BuildingBlock: MIFKUJ_clean_linker_0, # of connection points: 2
#     Edge 31, Type (0, 0), BuildingBlock: MIFKUJ_clean_linker_0, # of connection points: 2
#     Edge 32, Type (0, 0), BuildingBlock: MIFKUJ_clean_linker_0, # of connection points: 2
#     Edge 33, Type (0, 0), BuildingBlock: MIFKUJ_clean_linker_0, # of connection points: 2
#     Edge 34, Type (0, 0), BuildingBlock: MIFKUJ_clean_linker_0, # of connection points: 2
#     Edge 35, Type (0, 0), BuildingBlock: MIFKUJ_clean_linker_0, # of connection points: 2
#     Edge 36, Type (0, 0), BuildingBlock: MIFKUJ_clean_linker_0, # of connection points: 2
#     Edge 37, Type (0, 0), BuildingBlock: MIFKUJ_clean_linker_0, # of connection points: 2
#     Edge 38, Type (0, 0), BuildingBlock: MIFKUJ_clean_linker_0, # of connection points: 2
#     Edge 39, Type (0, 0), BuildingBlock: MIFKUJ_clean_linker_0, # of connection points: 2
#     Edge 40, Type (0, 0), BuildingBlock: MIFKUJ_clean_linker_0, # of connection points: 2
#     Edge 41, Type (0, 0), BuildingBlock: MIFKUJ_clean_linker_0, # of connection points: 2
#     Edge 42, Type (0, 0), BuildingBlock: MIFKUJ_clean_linker_0, # of connection points: 2
#     Edge 43, Type (0, 0), BuildingBlock: MIFKUJ_clean_linker_0, # of connection points: 2
#     Edge 44, Type (0, 0), BuildingBlock: MIFKUJ_clean_linker_0, # of connection points: 2
#     Edge 45, Type (0, 0), BuildingBlock: MIFKUJ_clean_linker_0, # of connection points: 2
#     Edge 46, Type (0, 0), BuildingBlock: MIFKUJ_clean_linker_0, # of connection points: 2
#     Edge 47, Type (0, 0), BuildingBlock: MIFKUJ_clean_linker_0, # of connection points: 2
#     Edge 48, Type (0, 0), BuildingBlock: MIFKUJ_clean_linker_0, # of connection points: 2
#     Edge 49, Type (0, 0), BuildingBlock: MIFKUJ_clean_linker_0, # of connection points: 2
#     Edge 50, Type (0, 0), BuildingBlock: MIFKUJ_clean_linker_0, # of connection points: 2
#     Edge 51, Type (0, 0), BuildingBlock: MIFKUJ_clean_linker_0, # of connection points: 2
#     Edge 52, Type (0, 0), BuildingBlock: MIFKUJ_clean_linker_0, # of connection points: 2
#     Edge 53, Type (0, 0), BuildingBlock: MIFKUJ_clean_linker_0, # of connection points: 2
#     Edge 54, Type (0, 0), BuildingBlock: MIFKUJ_clean_linker_0, # of connection points: 2
#     Edge 55, Type (0, 0), BuildingBlock: MIFKUJ_clean_linker_0, # of connection points: 2
#     Edge 56, Type (0, 0), BuildingBlock: MIFKUJ_clean_linker_0, # of connection points: 2
#     Edge 57, Type (0, 0), BuildingBlock: MIFKUJ_clean_linker_0, # of connection points: 2
#     Edge 58, Type (0, 0), BuildingBlock: MIFKUJ_clean_linker_0, # of connection points: 2
#     Edge 59, Type (0, 0), BuildingBlock: MIFKUJ_clean_linker_0, # of connection points: 2
#     Edge 60, Type (0, 0), BuildingBlock: MIFKUJ_clean_linker_0, # of connection points: 2
#     Edge 61, Type (0, 0), BuildingBlock: MIFKUJ_clean_linker_0, # of connection points: 2
#     Edge 62, Type (0, 0), BuildingBlock: MIFKUJ_clean_linker_0, # of connection points: 2
#     Edge 63, Type (0, 0), BuildingBlock: MIFKUJ_clean_linker_0, # of connection points: 2
#     Edge 64, Type (0, 0), BuildingBlock: MIFKUJ_clean_linker_0, # of connection points: 2
#     Edge 65, Type (0, 0), BuildingBlock: MIFKUJ_clean_linker_0, # of connection points: 2
#     Edge 66, Type (0, 0), BuildingBlock: MIFKUJ_clean_linker_0, # of connection points: 2
#     Edge 67, Type (0, 0), BuildingBlock: MIFKUJ_clean_linker_0, # of connection points: 2
#     Edge 68, Type (0, 0), BuildingBlock: MIFKUJ_clean_linker_0, # of connection points: 2
#     Edge 69, Type (0, 0), BuildingBlock: MIFKUJ_clean_linker_0, # of connection points: 2
#     Edge 70, Type (0, 0), BuildingBlock: MIFKUJ_clean_linker_0, # of connection points: 2
#     Edge 71, Type (0, 0), BuildingBlock: MIFKUJ_clean_linker_0, # of connection points: 2
# Relax obj value: 0.195
# Max RMSD: 0.255
# Mean RMSD: 0.255
data_MOF--net-wfv--node1-NUHQUE_clean_sbu_2--edge1-MIFKUJ_clean_linker_0
_symmetry_space_group_name_H-M    P1
_symmetry_Int_Tables_number       1
_symmetry_cell_setting            triclinic
loop_
_symmetry_equiv_pos_as_xyz
'x, y, z'
_cell_length_a     57.0689
_cell_length_b     57.060522
_cell_length_c     56.563098
_cell_angle_alpha  89.985568
_cell_angle_beta   90.012925
_cell_angle_gamma 89.9739
loop_
_atom_site_label
_atom_site_type_symbol
_atom_site_fract_x
_atom_site_fract_y
_atom_site_fract_z
_atom_type_partial_charge
O0 O 0.65024 0.11878 0.09855 0.0
Tb1 Tb 0.68324 0.10296 0.10877 0.0
Eu2 Eu 0.68513 0.02148 0.12929 0.0
C3 C 0.64366 0.11546 0.07654 0.0
O4 O 0.65455 0.09923 0.06425 0.0
C5 C 0.70267 0.05447 0.08981 0.0
O6 O 0.71614 0.00395 0.1465 0.0
C7 C 0.65161 0.99192 0.1205 0.0
C8 C 0.73623 0.01504 0.14852 0.0
O9 O 0.73733 0.03724 0.14248 0.0
C10 C 0.68451 0.07241 0.15396 0.0
C11 C 0.62619 0.98737 0.11729 0.0
C12 C 0.61298 0.9977 0.09887 0.0
C13 C 0.58934 0.99135 0.0955 0.0
C14 C 0.57924 0.97448 0.11035 0.0
C15 C 0.59223 0.96353 0.12823 0.0
C16 C 0.61565 0.97023 0.13172 0.0
O17 O 0.68481 0.06617 0.09847 0.0
O18 O 0.70561 0.0328 0.09711 0.0
O19 O 0.70611 0.11867 0.08186 0.0
O20 O 0.70767 0.13124 0.11707 0.0
C21 C 0.71569 0.13415 0.09574 0.0
O22 O 0.67297 0.05754 0.14045 0.0
O23 O 0.68672 0.09424 0.14638 0.0
O24 O 0.65915 0.99654 0.14202 0.0
O25 O 0.66313 0.00315 0.10382 0.0
H26 H 0.62101 0.01033 0.08709 0.0
H27 H 0.56144 0.96876 0.10691 0.0
H28 H 0.62592 0.96161 0.14531 0.0
O29 O 0.38893 0.65297 0.09026 0.0
Tb30 Tb 0.40198 0.68793 0.09745 0.0
Eu31 Eu 0.48188 0.69699 0.11812 0.0
C32 C 0.39246 0.64471 0.06885 0.0
O33 O 0.40781 0.65548 0.05537 0.0
C34 C 0.44714 0.71447 0.07991 0.0
O35 O 0.4954 0.7277 0.13903 0.0
C36 C 0.51526 0.66813 0.10691 0.0
C37 C 0.48207 0.74616 0.14257 0.0
O38 O 0.46032 0.74584 0.13495 0.0
C39 C 0.43195 0.69036 0.14239 0.0
C40 C 0.52384 0.64429 0.10129 0.0
C41 C 0.51225 0.62923 0.08525 0.0
C42 C 0.52232 0.60743 0.07942 0.0
C43 C 0.54383 0.60102 0.08933 0.0
C44 C 0.55599 0.61613 0.10446 0.0
C45 C 0.54564 0.63754 0.1108 0.0
O46 O 0.43774 0.69422 0.08569 0.0
O47 O 0.46828 0.71902 0.08797 0.0
O48 O 0.38097 0.70326 0.06905 0.0
O49 O 0.37418 0.71341 0.10445 0.0
C50 C 0.36734 0.71566 0.08261 0.0
O51 O 0.44736 0.6806 0.12812 0.0
O52 O 0.40996 0.6914 0.13514 0.0
O53 O 0.50948 0.67283 0.12895 0.0
O54 O 0.50266 0.67947 0.09111 0.0
H55 H 0.49584 0.63448 0.0772 0.0
H56 H 0.5515 0.58426 0.08457 0.0
H57 H 0.55507 0.64948 0.12229 0.0
O58 O 0.84781 0.38517 0.09567 0.0
Tb59 Tb 0.8139 0.40094 0.10138 0.0
Eu60 Eu 0.81854 0.48222 0.11742 0.0
C61 C 0.8578 0.38942 0.07522 0.0
O62 O 0.84911 0.40629 0.06204 0.0
C63 C 0.79774 0.44956 0.07981 0.0
O64 O 0.78939 0.50307 0.13387 0.0
C65 C 0.85427 0.50871 0.10735 0.0
C66 C 0.76829 0.49405 0.13549 0.0
O67 O 0.76506 0.47212 0.12922 0.0
C68 C 0.81153 0.4337 0.14485 0.0
C69 C 0.87988 0.51347 0.10605 0.0
C70 C 0.89439 0.50358 0.08838 0.0
C71 C 0.91799 0.51063 0.08632 0.0
C72 C 0.92673 0.52791 0.10155 0.0
C73 C 0.91248 0.53849 0.11869 0.0
C74 C 0.88917 0.53092 0.12101 0.0
O75 O 0.81457 0.43713 0.08943 0.0
O76 O 0.79668 0.47177 0.08584 0.0
O77 O 0.79323 0.38332 0.07383 0.0
O78 O 0.7894 0.37288 0.10964 0.0
C79 C 0.78301 0.36846 0.08802 0.0
O80 O 0.82662 0.44649 0.13272 0.0
O81 O 0.80709 0.41213 0.13763 0.0
O82 O 0.84434 0.50806 0.12836 0.0
O83 O 0.84432 0.49475 0.09177 0.0
H84 H 0.88736 0.49082 0.0761 0.0
H85 H 0.94445 0.53423 0.09889 0.0
H86 H 0.87794 0.53926 0.13397 0.0
O87 O 0.12001 0.84287 0.07911 0.0
Tb88 Tb 0.10141 0.81371 0.09512 0.0
Eu89 Eu 0.01996 0.81136 0.11606 0.0
C90 C 0.12143 0.84217 0.05591 0.0
O91 O 0.10849 0.82673 0.0447 0.0
C92 C 0.0531 0.79364 0.07666 0.0
O93 O 0.0056 0.77884 0.13339 0.0
C94 C 0.98784 0.84274 0.10819 0.0
C95 C 0.01893 0.76009 0.13451 0.0
O96 O 0.04095 0.76179 0.12797 0.0
C97 C 0.07138 0.81724 0.14025 0.0
C98 C 0.98199 0.86787 0.10494 0.0
C99 C 0.99517 0.88276 0.09004 0.0
C100 C 0.98806 0.90615 0.08652 0.0
C101 C 0.96771 0.91434 0.09758 0.0
C102 C 0.95366 0.8995 0.1113 0.0
C103 C 0.96124 0.87641 0.11542 0.0
O104 O 0.06462 0.8117 0.08511 0.0
O105 O 0.03138 0.79081 0.08384 0.0
O106 O 0.11529 0.78535 0.07309 0.0
O107 O 0.12711 0.78857 0.10842 0.0
C108 C 0.12947 0.77679 0.08889 0.0
O109 O 0.05551 0.82612 0.12582 0.0
O110 O 0.09335 0.81693 0.13285 0.0
O111 O 0.99361 0.83563 0.12959 0.0
O112 O 0.99932 0.8319 0.09121 0.0
H113 H 0.0106 0.87619 0.08106 0.0
H114 H 0.96215 0.93226 0.09447 0.0
H115 H 0.9504 0.86469 0.12581 0.0
O116 O 0.65357 0.39478 0.41359 0.0
Tb117 Tb 0.68917 0.40716 0.40876 0.0
Eu118 Eu 0.69716 0.48944 0.39498 0.0
C119 C 0.64336 0.39815 0.43415 0.0
O120 O 0.65332 0.41248 0.44931 0.0
C121 C 0.71122 0.45236 0.43231 0.0
O122 O 0.72898 0.50731 0.37971 0.0
C123 C 0.66439 0.51984 0.40399 0.0
C124 C 0.74926 0.49648 0.37803 0.0
O125 O 0.75063 0.47425 0.38392 0.0
C126 C 0.69706 0.441 0.3668 0.0
C127 C 0.63918 0.5262 0.40567 0.0
C128 C 0.62427 0.51678 0.42323 0.0
C129 C 0.60146 0.52576 0.42616 0.0
C130 C 0.59349 0.54365 0.41123 0.0
C131 C 0.60796 0.55328 0.39377 0.0
C132 C 0.63081 0.54447 0.39111 0.0
O133 O 0.69284 0.44272 0.42227 0.0
O134 O 0.7158 0.4743 0.42684 0.0
O135 O 0.70965 0.38704 0.43471 0.0
O136 O 0.70893 0.37613 0.39878 0.0
C137 C 0.7167 0.37108 0.41979 0.0
O138 O 0.68412 0.45533 0.37958 0.0
O139 O 0.69845 0.41878 0.37314 0.0
O140 O 0.67335 0.51668 0.38278 0.0
O141 O 0.67391 0.50647 0.42037 0.0
H142 H 0.6306 0.50334 0.43516 0.0
H143 H 0.57612 0.55086 0.41403 0.0
H144 H 0.64235 0.5523 0.3781 0.0
O145 O 0.08842 0.66229 0.42681 0.0
Tb146 Tb 0.08887 0.68894 0.39929 0.0
Eu147 Eu 0.02881 0.68256 0.40758 0.0
C148 C 0.0974 0.66872 0.44728 0.0
O149 O 0.10095 0.6912 0.45082 0.0
C150 C 0.06008 0.71997 0.432 0.0
O151 O 1.00122 0.71076 0.409 0.0
C152 C 0.01248 0.64231 0.42095 0.0
C153 C 0.98763 0.71551 0.39083 0.0
O154 O 0.98852 0.70208 0.372 0.0
C155 C 0.05398 0.68784 0.35507 0.0
C156 C 1.00135 0.61956 0.41552 0.0
C157 C 0.00698 0.60037 0.43005 0.0
C158 C 0.99486 0.5791 0.42789 0.0
C159 C 0.97738 0.57699 0.41071 0.0
C160 C 0.97106 0.59598 0.39628 0.0
C161 C 0.98313 0.6174 0.39875 0.0
O162 O 0.07258 0.72064 0.41261 0.0
O163 O 0.04784 0.70118 0.43695 0.0
O164 O 0.11909 0.71181 0.40492 0.0
O165 O 0.12433 0.67903 0.38816 0.0
C166 C 0.13464 0.69783 0.39588 0.0
O167 O 0.03491 0.68716 0.36828 0.0
O168 O 0.07541 0.6856 0.36355 0.0
O169 O 0.99953 0.66129 0.41896 0.0
O170 O 0.03478 0.6455 0.41566 0.0
H171 H 0.02015 0.60229 0.44375 0.0
H172 H 0.96721 0.56094 0.40998 0.0
H173 H 0.97789 0.63242 0.38828 0.0
O174 O 0.85485 0.1034 0.42507 0.0
Tb175 Tb 0.8205 0.09874 0.40966 0.0
Eu176 Eu 0.81218 0.01804 0.39404 0.0
C177 C 0.85727 0.09658 0.44713 0.0
O178 O 0.84037 0.08408 0.45661 0.0
C179 C 0.79218 0.05329 0.42852 0.0
O180 O 0.78155 1.00162 0.37537 0.0
C181 C 0.8426 0.98679 0.40743 0.0
C182 C 0.76236 0.01362 0.37107 0.0
O183 O 0.76178 0.03609 0.37612 0.0
C184 C 0.81759 0.06704 0.36534 0.0
C185 C 0.86732 0.97899 0.40962 0.0
C186 C 0.88433 0.99137 0.42287 0.0
C187 C 0.90719 0.98217 0.42543 0.0
C188 C 0.91264 0.96058 0.41492 0.0
C189 C 0.89575 0.94775 0.40255 0.0
C190 C 0.87321 0.95709 0.39984 0.0
O191 O 0.80973 0.06321 0.41749 0.0
O192 O 0.78945 0.03095 0.4241 0.0
O193 O 0.79698 0.1192 0.43249 0.0
O194 O 0.80831 0.13344 0.39957 0.0
C195 C 0.79608 0.13747 0.41858 0.0
O196 O 0.82811 0.05133 0.3789 0.0
O197 O 0.81791 0.08924 0.37224 0.0
O198 O 0.83333 0.98729 0.38612 0.0
O199 O 0.83464 0.00332 0.42154 0.0
H200 H 0.87983 0.00781 0.43131 0.0
H201 H 0.92983 0.95294 0.41773 0.0
H202 H 0.86002 0.947 0.39051 0.0
O203 O 0.37703 0.8449 0.40587 0.0
Tb204 Tb 0.39724 0.81541 0.39284 0.0
Eu205 Eu 0.47997 0.81738 0.38385 0.0
C206 C 0.38251 0.85453 0.42625 0.0
O207 O 0.40251 0.84892 0.43626 0.0
C208 C 0.4439 0.79715 0.41861 0.0
O209 O 0.49897 0.78657 0.36789 0.0
C210 C 0.5087 0.85061 0.39617 0.0
C211 C 0.48831 0.76644 0.36437 0.0
O212 O 0.46574 0.76485 0.36869 0.0
C213 C 0.43234 0.82137 0.35181 0.0
C214 C 0.51401 0.87611 0.39751 0.0
C215 C 0.50318 0.89128 0.41403 0.0
C216 C 0.51051 0.91485 0.41593 0.0
C217 C 0.52896 0.92285 0.4017 0.0
C218 C 0.54048 0.90787 0.3859 0.0
C219 C 0.53265 0.88466 0.38367 0.0
O220 O 0.43268 0.81367 0.40702 0.0
O221 O 0.46655 0.79587 0.41463 0.0
O222 O 0.37961 0.78641 0.41091 0.0
O223 O 0.37493 0.79065 0.37399 0.0
C224 C 0.36909 0.7782 0.39229 0.0
O225 O 0.44595 0.8307 0.36818 0.0
O226 O 0.40973 0.81987 0.35655 0.0
O227 O 0.50866 0.84081 0.37509 0.0
O228 O 0.49332 0.84138 0.4108 0.0
H229 H 0.48945 0.88482 0.42554 0.0
H230 H 0.53546 0.94055 0.40421 0.0
H231 H 0.54169 0.87293 0.37167 0.0
O232 O 0.3613 0.89134 0.90793 0.0
Tb233 Tb 0.32711 0.90719 0.90334 0.0
Eu234 Eu 0.32291 0.9869 0.88504 0.0
C235 C 0.37325 0.89688 0.92701 0.0
O236 O 0.36625 0.91501 0.93948 0.0
C237 C 0.30712 0.95387 0.92533 0.0
O238 O 0.29117 0.00192 0.86702 0.0
C239 C 0.35466 0.01854 0.89275 0.0
C240 C 0.27125 0.99036 0.86714 0.0
O241 O 0.27058 0.96933 0.87656 0.0
C242 C 0.32548 0.93703 0.85898 0.0
C243 C 0.37959 0.02518 0.89536 0.0
C244 C 0.3949 0.01376 0.91126 0.0
C245 C 0.41783 0.02232 0.91467 0.0
C246 C 0.42503 0.04247 0.90252 0.0
C247 C 0.40967 0.0546 0.88756 0.0
C248 C 0.38721 0.0455 0.88356 0.0
O249 O 0.32551 0.94292 0.91675 0.0
O250 O 0.30343 0.97538 0.91784 0.0
O251 O 0.31342 0.88154 0.92864 0.0
O252 O 0.29504 0.88724 0.89667 0.0
C253 C 0.29552 0.87503 0.91608 0.0
O254 O 0.33649 0.95173 0.8731 0.0
O255 O 0.32408 0.91498 0.86576 0.0
O256 O 0.34693 0.01335 0.87144 0.0
O257 O 0.34451 0.00653 0.90977 0.0
H258 H 0.38897 0.99865 0.92121 0.0
H259 H 0.44238 0.04956 0.90579 0.0
H260 H 0.37506 0.0551 0.87242 0.0
O261 O 0.62888 0.35501 0.9048 0.0
Tb262 Tb 0.61453 0.31995 0.90418 0.0
Eu263 Eu 0.53197 0.3176 0.89458 0.0
C264 C 0.62194 0.3692 0.92169 0.0
O265 O 0.60277 0.36383 0.93335 0.0
C266 C 0.56872 0.30506 0.9321 0.0
O267 O 0.51464 0.2838 0.88404 0.0
C268 C 0.50201 0.35113 0.90206 0.0
C269 C 0.50422 0.28017 0.86363 0.0
O270 O 0.50365 0.29692 0.84772 0.0
C271 C 0.5788 0.31199 0.86364 0.0
C272 C 0.49483 0.37612 0.90339 0.0
C273 C 0.50577 0.39217 0.91896 0.0
C274 C 0.49636 0.4148 0.92204 0.0
C275 C 0.47598 0.42112 0.90992 0.0
C276 C 0.46435 0.40516 0.89527 0.0
C277 C 0.47415 0.3829 0.89154 0.0
O278 O 0.57922 0.31976 0.91786 0.0
O279 O 0.54616 0.30238 0.92872 0.0
O280 O 0.63309 0.30458 0.93438 0.0
O281 O 0.64299 0.29487 0.89947 0.0
C282 C 0.64785 0.29232 0.92183 0.0
O283 O 0.56588 0.32707 0.87573 0.0
O284 O 0.601 0.30886 0.86975 0.0
O285 O 0.50463 0.3411 0.88124 0.0
O286 O 0.51593 0.34266 0.91852 0.0
H287 H 0.52102 0.38697 0.92909 0.0
H288 H 0.46834 0.43829 0.91295 0.0
H289 H 0.46482 0.37031 0.8807 0.0
O290 O 0.15963 0.61222 0.91741 0.0
Tb291 Tb 0.19002 0.60253 0.89687 0.0
Eu292 Eu 0.1948 0.52018 0.88413 0.0
C293 C 0.1628 0.6129 0.94042 0.0
O294 O 0.18242 0.60431 0.94898 0.0
C295 C 0.21305 0.5559 0.91981 0.0
O296 O 0.22682 0.50457 0.86694 0.0
C297 C 0.1635 0.48848 0.89425 0.0
C298 C 0.24655 0.51642 0.86582 0.0
O299 O 0.24697 0.53816 0.87347 0.0
C300 C 0.18797 0.56893 0.85423 0.0
C301 C 0.13818 0.48228 0.89538 0.0
C302 C 0.12271 0.49245 0.91206 0.0
C303 C 0.09923 0.48482 0.91351 0.0
C304 C 0.09148 0.46695 0.89846 0.0
C305 C 0.10673 0.45605 0.88248 0.0
C306 C 0.13001 0.46385 0.88096 0.0
O307 O 0.19919 0.56673 0.90509 0.0
O308 O 0.21463 0.53321 0.91647 0.0
O309 O 0.21931 0.62126 0.91337 0.0
O310 O 0.20272 0.6355 0.88271 0.0
C311 C 0.21876 0.63896 0.89869 0.0
O312 O 0.17878 0.5536 0.86915 0.0
O313 O 0.18676 0.59141 0.85996 0.0
O314 O 0.17306 0.49073 0.87318 0.0
O315 O 0.17214 0.5031 0.90998 0.0
H316 H 0.12887 0.50593 0.92402 0.0
H317 H 0.07374 0.46037 0.90037 0.0
H318 H 0.14196 0.45515 0.86891 0.0
O319 O 0.88926 0.1618 0.93411 0.0
Tb320 Tb 0.90879 0.19113 0.9199 0.0
Eu321 Eu 0.9886 0.18843 0.89488 0.0
C322 C 0.88791 0.16076 0.9573 0.0
O323 O 0.90125 0.1749 0.96972 0.0
C324 C 0.95892 0.20735 0.936 0.0
O325 O 0.00436 0.21921 0.8757 0.0
C326 C 0.01908 0.15527 0.90153 0.0
C327 C 0.99255 0.23883 0.87309 0.0
O328 O 0.97065 0.23972 0.88018 0.0
C329 C 0.93654 0.18767 0.87328 0.0
C330 C 0.02478 0.12996 0.90312 0.0
C331 C 0.01421 0.11476 0.91973 0.0
C332 C 0.02171 0.09126 0.92148 0.0
C333 C 0.03999 0.08333 0.90699 0.0
C334 C 0.05121 0.09838 0.89104 0.0
C335 C 0.04325 0.12157 0.88898 0.0
O336 O 0.94609 0.19022 0.92765 0.0
O337 O 0.98022 0.20963 0.92751 0.0
O338 O 0.89634 0.21923 0.94339 0.0
O339 O 0.88395 0.21757 0.90812 0.0
C340 C 0.88217 0.22875 0.92806 0.0
O341 O 0.95208 0.17604 0.8859 0.0
O342 O 0.91511 0.18992 0.88182 0.0
O343 O 0.01407 0.16388 0.88052 0.0
O344 O 0.00759 0.16538 0.91895 0.0
H345 H 1.00051 0.12114 0.93132 0.0
H346 H 0.04653 0.06563 0.90934 0.0
H347 H 0.05195 0.13339 0.8768 0.0
O348 O 0.33108 0.61707 0.57988 0.0
Tb349 Tb 0.2987 0.60132 0.592 0.0
Eu350 Eu 0.307 0.52104 0.60616 0.0
C351 C 0.3346 0.61505 0.55701 0.0
O352 O 0.32151 0.60001 0.54536 0.0
C353 C 0.28059 0.55177 0.57166 0.0
O354 O 0.27716 0.50239 0.62385 0.0
C355 C 0.34124 0.49255 0.59636 0.0
C356 C 0.25713 0.51327 0.62703 0.0
O357 O 0.25572 0.53575 0.62224 0.0
C358 C 0.30398 0.56919 0.63579 0.0
C359 C 0.36666 0.48664 0.59723 0.0
C360 C 0.38259 0.49477 0.57987 0.0
C361 C 0.40568 0.48602 0.57921 0.0
C362 C 0.4129 0.4697 0.59614 0.0
C363 C 0.39742 0.46127 0.61331 0.0
C364 C 0.37432 0.46971 0.61373 0.0
O365 O 0.29664 0.56478 0.58184 0.0
O366 O 0.28279 0.52923 0.57545 0.0
O367 O 0.27649 0.61841 0.56557 0.0
O368 O 0.27359 0.62847 0.60167 0.0
C369 C 0.26634 0.63277 0.58027 0.0
O370 O 0.3172 0.55647 0.6215 0.0
O371 O 0.29781 0.59059 0.62914 0.0
O372 O 0.32946 0.49209 0.61638 0.0
O373 O 0.33362 0.50851 0.58135 0.0
H374 H 0.37685 0.50694 0.56635 0.0
H375 H 0.43051 0.46257 0.5951 0.0
H376 H 0.36211 0.46246 0.62647 0.0
O377 O 0.88417 0.32527 0.58993 0.0
Tb378 Tb 0.90139 0.29338 0.60161 0.0
Eu379 Eu 0.97962 0.30186 0.6284 0.0
C380 C 0.88405 0.32899 0.56698 0.0
O381 O 0.89695 0.3153 0.55358 0.0
C382 C 0.95351 0.27683 0.58855 0.0
O383 O 0.99617 0.2744 0.6514 0.0
C384 C 0.00796 0.33636 0.62035 0.0
C385 C 0.98728 0.25318 0.65187 0.0
O386 O 0.96798 0.24892 0.63998 0.0
C387 C 0.92757 0.29945 0.64873 0.0
C388 C 0.01094 0.3615 0.61543 0.0
C389 C 0.99528 0.37424 0.60103 0.0
C390 C 0.99988 0.39792 0.59595 0.0
C391 C 0.02018 0.40845 0.60492 0.0
C392 C 0.03644 0.3957 0.61822 0.0
C393 C 0.03141 0.3723 0.62385 0.0
O394 O 0.93901 0.29326 0.5956 0.0
O395 O 0.97492 0.27798 0.59687 0.0
O396 O 0.88631 0.27004 0.57473 0.0
O397 O 0.87658 0.26587 0.61069 0.0
C398 C 0.87289 0.25843 0.58927 0.0
O399 O 0.94195 0.31193 0.63555 0.0
O400 O 0.90699 0.29353 0.63984 0.0
O401 O 1.00134 0.33028 0.64179 0.0
O402 O 0.99928 0.32306 0.6035 0.0
H403 H 0.97999 0.36578 0.59354 0.0
H404 H 0.02413 0.4263 0.5999 0.0
H405 H 0.04381 0.3622 0.63422 0.0
O406 O 0.14543 0.89512 0.59935 0.0
Tb407 Tb 0.18187 0.90487 0.60351 0.0
Eu408 Eu 0.19174 0.98405 0.61895 0.0
C409 C 0.13476 0.90176 0.57986 0.0
O410 O 0.14498 0.91766 0.5666 0.0
C411 C 0.20856 0.94869 0.58258 0.0
O412 O 0.22197 1.00157 0.63735 0.0
C413 C 0.15923 0.01345 0.60625 0.0
C414 C 0.24193 0.99047 0.64045 0.0
O415 O 0.24361 0.96846 0.63387 0.0
C416 C 0.19068 0.93574 0.64712 0.0
C417 C 0.1338 0.01919 0.60714 0.0
C418 C 0.11749 0.01003 0.5907 0.0
C419 C 0.09397 0.01782 0.59079 0.0
C420 C 0.08722 0.0351 0.6071 0.0
C421 C 0.10322 0.04469 0.62317 0.0
C422 C 0.12636 0.03647 0.62323 0.0
O423 O 0.18879 0.9401 0.59081 0.0
O424 O 0.21367 0.97019 0.58897 0.0
O425 O 0.1968 0.88429 0.57459 0.0
O426 O 0.20378 0.87427 0.61008 0.0
C427 C 0.20713 0.8689 0.588 0.0
O428 O 0.17775 0.9508 0.63519 0.0
O429 O 0.19139 0.91382 0.63974 0.0
O430 O 0.17096 0.01494 0.62623 0.0
O431 O 0.16657 0.99638 0.59247 0.0
H432 H 0.12307 0.99721 0.57774 0.0
H433 H 0.06964 0.04223 0.60625 0.0
H434 H 0.13883 0.04415 0.63543 0.0
O435 O 0.61003 0.16885 0.58084 0.0
Tb436 Tb 0.59838 0.20125 0.59703 0.0
Eu437 Eu 0.51733 0.19678 0.61382 0.0
C438 C 0.60939 0.16832 0.55759 0.0
O439 O 0.59851 0.18544 0.54656 0.0
C440 C 0.54798 0.22001 0.5764 0.0
O441 O 0.50053 0.22762 0.63188 0.0
C442 C 0.48821 0.1628 0.60502 0.0
C443 C 0.51224 0.24736 0.63374 0.0
O444 O 0.53406 0.24806 0.62639 0.0
C445 C 0.56722 0.19691 0.64143 0.0
C446 C 0.48316 0.13723 0.60426 0.0
C447 C 0.49355 0.12203 0.58747 0.0
C448 C 0.48635 0.09841 0.58594 0.0
C449 C 0.46844 0.09036 0.60084 0.0
C450 C 0.45739 0.10532 0.61702 0.0
C451 C 0.46513 0.12862 0.61885 0.0
O452 O 0.56153 0.208 0.59061 0.0
O453 O 0.52554 0.21808 0.58094 0.0
O454 O 0.61771 0.22623 0.575 0.0
O455 O 0.62829 0.22064 0.61063 0.0
C456 C 0.63314 0.23169 0.59111 0.0
O457 O 0.55294 0.18502 0.62744 0.0
O458 O 0.58922 0.19975 0.63459 0.0
O459 O 0.48997 0.17296 0.62586 0.0
O460 O 0.50204 0.17198 0.58889 0.0
H461 H 0.50684 0.12852 0.57547 0.0
H462 H 0.462 0.07262 0.59861 0.0
H463 H 0.45649 0.14037 0.63114 0.0
H464 H 0.76319 0.33619 0.11677 0.0
H465 H 0.75432 0.29545 0.10729 0.0
H466 H 0.7702 0.30833 0.03403 0.0
H467 H 0.77921 0.34955 0.04338 0.0
H468 H 0.72967 0.27508 0.04451 0.0
H469 H 0.81079 0.28583 0.05717 0.0
H470 H 0.84571 0.30229 0.07671 0.0
H471 H 0.82735 0.26722 0.14123 0.0
H472 H 0.79196 0.251 0.12228 0.0
H473 H 0.72447 0.14889 0.05039 0.0
H474 H 0.74006 0.1871 0.03821 0.0
H475 H 0.74992 0.20571 0.1115 0.0
H476 H 0.73526 0.16748 0.12351 0.0
H477 H 0.78451 0.2225 0.08727 0.0
H478 H 0.69886 0.21704 0.07257 0.0
H479 H 0.66539 0.20078 0.05053 0.0
H480 H 0.69425 0.2268 0.98548 0.0
H481 H 0.72854 0.24215 0.00703 0.0
C482 C 0.76416 0.33061 0.09849 0.0
C483 C 0.77208 0.34602 0.08087 0.0
C484 C 0.75915 0.30728 0.09311 0.0
C485 C 0.76188 0.29884 0.06998 0.0
C486 C 0.76792 0.31459 0.05192 0.0
C487 C 0.77306 0.33808 0.05732 0.0
C488 C 0.76084 0.27314 0.06579 0.0
C489 C 0.74187 0.26348 0.05344 0.0
C490 C 0.77709 0.25803 0.07692 0.0
C491 C 0.79862 0.26731 0.08833 0.0
C492 C 0.81409 0.28176 0.07558 0.0
C493 C 0.83399 0.29104 0.08654 0.0
C494 C 0.83875 0.2858 0.11017 0.0
C495 C 0.82364 0.27125 0.12291 0.0
C496 C 0.80365 0.262 0.11207 0.0
C497 C 0.73071 0.16091 0.0638 0.0
C498 C 0.72874 0.15518 0.08791 0.0
C499 C 0.73941 0.18287 0.05683 0.0
C500 C 0.7459 0.19963 0.07389 0.0
C501 C 0.74505 0.19326 0.0979 0.0
C502 C 0.73662 0.17134 0.10481 0.0
C503 C 0.75222 0.22429 0.0676 0.0
C504 C 0.77249 0.2339 0.07785 0.0
C505 C 0.73734 0.2392 0.05412 0.0
C506 C 0.71645 0.23037 0.04138 0.0
C507 C 0.69817 0.21911 0.05355 0.0
C508 C 0.67905 0.21003 0.04112 0.0
C509 C 0.67766 0.21274 0.0166 0.0
C510 C 0.69541 0.22456 0.00446 0.0
C511 C 0.71476 0.23333 0.01675 0.0
H512 H 0.66281 0.20575 0.00702 0.0
H513 H 0.85417 0.29301 0.11862 0.0
H514 H 0.14858 0.76807 0.04576 0.0
H515 H 0.18809 0.75325 0.03813 0.0
H516 H 0.19676 0.73833 0.11238 0.0
H517 H 0.15749 0.75386 0.12019 0.0
H518 H 0.22632 0.77435 0.0565 0.0
H519 H 0.23724 0.69451 0.11883 0.0
H520 H 0.21434 0.66066 0.13306 0.0
H521 H 0.17196 0.66298 0.07035 0.0
H522 H 0.19482 0.69658 0.05572 0.0
H523 H 0.34121 0.75028 0.10286 0.0
H524 H 0.29945 0.75842 0.09594 0.0
H525 H 0.29775 0.70505 0.04204 0.0
H526 H 0.33962 0.69752 0.04822 0.0
H527 H 0.26427 0.70018 0.08147 0.0
H528 H 0.28198 0.75337 0.01742 0.0
H529 H 0.30166 0.78584 0.99649 0.0
H530 H 0.28429 0.83272 0.05324 0.0
H531 H 0.2645 0.80045 0.07444 0.0
C532 C 0.15861 0.76089 0.06033 0.0
C533 C 0.15005 0.76211 0.08358 0.0
C534 C 0.18123 0.75252 0.05596 0.0
C535 C 0.19535 0.74456 0.07465 0.0
C536 C 0.18609 0.7441 0.09764 0.0
C537 C 0.16366 0.75296 0.1021 0.0
C538 C 0.22062 0.73978 0.07071 0.0
C539 C 0.23451 0.75795 0.06158 0.0
C540 C 0.2314 0.71847 0.07748 0.0
C541 C 0.21755 0.69827 0.08628 0.0
C542 C 0.22306 0.68777 0.10807 0.0
C543 C 0.21009 0.66861 0.11623 0.0
C544 C 0.19164 0.65973 0.10268 0.0
C545 C 0.18615 0.66996 0.08093 0.0
C546 C 0.19907 0.68909 0.07272 0.0
C547 C 0.33205 0.74083 0.08907 0.0
C548 C 0.34365 0.72353 0.07587 0.0
C549 C 0.30825 0.74545 0.08513 0.0
C550 C 0.29559 0.7324 0.06839 0.0
C551 C 0.30727 0.71543 0.05488 0.0
C552 C 0.33118 0.71123 0.05837 0.0
C553 C 0.26976 0.73469 0.06708 0.0
C554 C 0.25588 0.71628 0.07575 0.0
C555 C 0.25884 0.75549 0.05927 0.0
C556 C 0.27215 0.77448 0.04763 0.0
C557 C 0.2827 0.77053 0.02556 0.0
C558 C 0.29371 0.78892 0.01358 0.0
C559 C 0.29435 0.8113 0.02359 0.0
C560 C 0.2839 0.81535 0.04556 0.0
C561 C 0.27275 0.79704 0.05754 0.0
H562 H 0.30285 0.82552 0.01427 0.0
H563 H 0.18164 0.64488 0.10901 0.0
H564 H 0.7266 0.33561 0.38977 0.0
H565 H 0.73865 0.29579 0.39959 0.0
H566 H 0.74249 0.31441 0.47332 0.0
H567 H 0.72999 0.35467 0.4636 0.0
H568 H 0.7829 0.28547 0.45147 0.0
H569 H 0.70219 0.28524 0.46658 0.0
H570 H 0.66057 0.29453 0.46031 0.0
H571 H 0.66029 0.25328 0.39685 0.0
H572 H 0.70228 0.24449 0.4022 0.0
H573 H 0.77261 0.15092 0.45902 0.0
H574 H 0.75861 0.19074 0.46882 0.0
H575 H 0.78229 0.21546 0.40098 0.0
H576 H 0.79625 0.17626 0.39112 0.0
H577 H 0.72645 0.22207 0.4325 0.0
H578 H 0.81467 0.23766 0.41879 0.0
H579 H 0.85592 0.23159 0.4303 0.0
H580 H 0.83819 0.24381 0.50299 0.0
H581 H 0.79662 0.2491 0.49198 0.0
C582 C 0.73032 0.33141 0.40807 0.0
C583 C 0.72737 0.34825 0.42593 0.0
C584 C 0.73709 0.30859 0.41365 0.0
C585 C 0.74131 0.30214 0.43717 0.0
C586 C 0.73941 0.31913 0.45505 0.0
C587 C 0.73231 0.34206 0.44948 0.0
C588 C 0.74717 0.27736 0.44248 0.0
C589 C 0.77036 0.27158 0.44811 0.0
C590 C 0.73079 0.25923 0.43821 0.0
C591 C 0.70552 0.26442 0.43467 0.0
C592 C 0.69337 0.2784 0.4511 0.0
C593 C 0.66967 0.28353 0.44774 0.0
C594 C 0.65773 0.27445 0.42824 0.0
C595 C 0.66955 0.2603 0.41197 0.0
C596 C 0.69334 0.25528 0.41513 0.0
C597 C 0.77473 0.16489 0.44622 0.0
C598 C 0.78567 0.16054 0.42436 0.0
C599 C 0.76689 0.18756 0.4519 0.0
C600 C 0.77022 0.20612 0.43594 0.0
C601 C 0.78029 0.20153 0.41385 0.0
C602 C 0.78805 0.17905 0.40816 0.0
C603 C 0.76218 0.23023 0.44131 0.0
C604 C 0.73863 0.2359 0.43714 0.0
C605 C 0.77796 0.24817 0.44795 0.0
C606 C 0.80251 0.24323 0.45462 0.0
C607 C 0.81946 0.23847 0.43728 0.0
C608 C 0.84292 0.23534 0.4437 0.0
C609 C 0.84966 0.23733 0.46737 0.0
C610 C 0.83293 0.2423 0.48468 0.0
C611 C 0.80941 0.24519 0.47838 0.0
H612 H 0.86783 0.23496 0.47232 0.0
H613 H 0.63934 0.27838 0.42574 0.0
H614 H 0.15756 0.73503 0.4148 0.0
H615 H 0.19974 0.74261 0.41459 0.0
H616 H 0.21145 0.67779 0.3772 0.0
H617 H 0.16909 0.67005 0.37742 0.0
H618 H 0.24512 0.68707 0.41427 0.0
H619 H 0.211 0.72423 0.34568 0.0
H620 H 0.18244 0.74942 0.32503 0.0
H621 H 0.20471 0.80855 0.36625 0.0
H622 H 0.23319 0.78362 0.38738 0.0
H623 H 0.34688 0.75936 0.35443 0.0
H624 H 0.30932 0.73874 0.35446 0.0
H625 H 0.30855 0.74007 0.43073 0.0
H626 H 0.34622 0.76068 0.43076 0.0
H627 H 0.27016 0.75877 0.37146 0.0
H628 H 0.27409 0.6929 0.4499 0.0
H629 H 0.30367 0.66811 0.4696 0.0
H630 H 0.3438 0.66516 0.40547 0.0
H631 H 0.31422 0.68937 0.38521 0.0
C632 C 0.16912 0.72239 0.40656 0.0
C633 C 0.1601 0.70212 0.39585 0.0
C634 C 0.19319 0.72667 0.40655 0.0
C635 C 0.20866 0.7108 0.3958 0.0
C636 C 0.19978 0.69019 0.38565 0.0
C637 C 0.17562 0.68591 0.3856 0.0
C638 C 0.23382 0.71675 0.39362 0.0
C639 C 0.25069 0.70268 0.40487 0.0
C640 C 0.24102 0.73694 0.38109 0.0
C641 C 0.22409 0.75202 0.36822 0.0
C642 C 0.20969 0.74257 0.35044 0.0
C643 C 0.19354 0.7568 0.33864 0.0
C644 C 0.19172 0.78056 0.34436 0.0
C645 C 0.20612 0.79014 0.36185 0.0
C646 C 0.22229 0.77597 0.37373 0.0
C647 C 0.33897 0.75472 0.3712 0.0
C648 C 0.34933 0.76164 0.39258 0.0
C649 C 0.3175 0.74303 0.37119 0.0
C650 C 0.3061 0.73799 0.39258 0.0
C651 C 0.31714 0.74362 0.41403 0.0
C652 C 0.33864 0.75538 0.41403 0.0
C653 C 0.28163 0.7293 0.39231 0.0
C654 C 0.26476 0.743 0.3807 0.0
C655 C 0.27463 0.70868 0.4043 0.0
C656 C 0.29199 0.69318 0.41609 0.0
C657 C 0.28911 0.6868 0.43993 0.0
C658 C 0.3059 0.67285 0.45121 0.0
C659 C 0.32562 0.66511 0.43879 0.0
C660 C 0.32854 0.67119 0.41506 0.0
C661 C 0.31175 0.68502 0.40368 0.0
H662 H 0.33863 0.65433 0.44749 0.0
H663 H 0.1792 0.79155 0.33521 0.0
H664 H 0.26481 0.85442 0.8859 0.0
H665 H 0.25091 0.81394 0.88745 0.0
H666 H 0.28315 0.80512 0.95585 0.0
H667 H 0.29738 0.84571 0.95428 0.0
H668 H 0.28446 0.77751 0.89002 0.0
H669 H 0.2462 0.75746 0.98311 0.0
H670 H 0.22367 0.77667 0.01473 0.0
H671 H 0.19688 0.82685 0.96509 0.0
H672 H 0.21851 0.80747 0.93294 0.0
H673 H 0.24262 0.65457 0.93755 0.0
H674 H 0.25674 0.69465 0.94486 0.0
H675 H 0.23439 0.71476 0.87485 0.0
H676 H 0.2204 0.67502 0.86766 0.0
H677 H 0.23142 0.73563 0.94504 0.0
H678 H 0.27034 0.75513 0.85224 0.0
H679 H 0.29138 0.7342 0.82054 0.0
H680 H 0.3178 0.68465 0.87109 0.0
H681 H 0.29722 0.70546 0.90315 0.0
C682 C 0.2684 0.84408 0.90156 0.0
C683 C 0.2824 0.85306 0.91983 0.0
C684 C 0.26055 0.82093 0.90237 0.0
C685 C 0.26624 0.80648 0.92162 0.0
C686 C 0.27858 0.81599 0.94083 0.0
C687 C 0.28666 0.83916 0.93992 0.0
C688 C 0.26162 0.78095 0.92013 0.0
C689 C 0.27272 0.76838 0.90198 0.0
C690 C 0.24706 0.76892 0.93634 0.0
C691 C 0.2344 0.78122 0.95564 0.0
C692 C 0.23555 0.77262 0.97892 0.0
C693 C 0.22285 0.7835 0.99695 0.0
C694 C 0.20893 0.80303 0.992 0.0
C695 C 0.20773 0.81178 0.96896 0.0
C696 C 0.22025 0.80084 0.9508 0.0
C697 C 0.24121 0.66749 0.92366 0.0
C698 C 0.23059 0.66171 0.90205 0.0
C699 C 0.24908 0.69038 0.92788 0.0
C700 C 0.24677 0.70768 0.91034 0.0
C701 C 0.23668 0.70166 0.88853 0.0
C702 C 0.2287 0.67893 0.88442 0.0
C703 C 0.25401 0.73229 0.91478 0.0
C704 C 0.24349 0.74469 0.93342 0.0
C705 C 0.26929 0.74421 0.89921 0.0
C706 C 0.28207 0.73178 0.88008 0.0
C707 C 0.28075 0.73985 0.85662 0.0
C708 C 0.29257 0.72798 0.83858 0.0
C709 C 0.30586 0.70807 0.84379 0.0
C710 C 0.30743 0.70003 0.86707 0.0
C711 C 0.29567 0.71184 0.88518 0.0
H712 H 0.31498 0.6989 0.82979 0.0
H713 H 0.19889 0.81124 0.00595 0.0
H714 H 0.66741 0.29746 0.96557 0.0
H715 H 0.70762 0.28713 0.97742 0.0
H716 H 0.71896 0.2558 0.90896 0.0
H717 H 0.67892 0.26558 0.89749 0.0
H718 H 0.74036 0.2308 0.9417 0.0
H719 H 0.73307 0.31434 0.92333 0.0
H720 H 0.71937 0.35484 0.92952 0.0
H721 H 0.7481 0.35445 0.99972 0.0
H722 H 0.76178 0.31377 0.99388 0.0
H723 H 0.85032 0.24606 0.89736 0.0
H724 H 0.81093 0.25948 0.90696 0.0
H725 H 0.82811 0.25896 0.98116 0.0
H726 H 0.86767 0.24448 0.97168 0.0
H727 H 0.7929 0.29807 0.95836 0.0
H728 H 0.80861 0.21684 0.97083 0.0
H729 H 0.8244 0.17802 0.96154 0.0
H730 H 0.78068 0.17428 0.89986 0.0
H731 H 0.76491 0.21356 0.90856 0.0
C732 C 0.67833 0.28772 0.95343 0.0
C733 C 0.67008 0.28227 0.93068 0.0
C734 C 0.70135 0.28206 0.96009 0.0
C735 C 0.71651 0.27102 0.94396 0.0
C736 C 0.7077 0.26434 0.92175 0.0
C737 C 0.68477 0.26995 0.91516 0.0
C738 C 0.74195 0.26778 0.94903 0.0
C739 C 0.7518 0.2455 0.94549 0.0
C740 C 0.75696 0.28679 0.95477 0.0
C741 C 0.74807 0.31092 0.95837 0.0
C742 C 0.73619 0.32279 0.94018 0.0
C743 C 0.7285 0.3458 0.94359 0.0
C744 C 0.73282 0.3572 0.96502 0.0
C745 C 0.74471 0.34557 0.98315 0.0
C746 C 0.7524 0.32255 0.97982 0.0
C747 C 0.84603 0.24947 0.9157 0.0
C748 C 0.86191 0.24385 0.9338 0.0
C749 C 0.82349 0.25717 0.92114 0.0
C750 C 0.81652 0.25972 0.94475 0.0
C751 C 0.83319 0.25693 0.96283 0.0
C752 C 0.85576 0.24872 0.95738 0.0
C753 C 0.79113 0.26142 0.95 0.0
C754 C 0.78136 0.28327 0.9554 0.0
C755 C 0.77617 0.24207 0.94575 0.0
C756 C 0.78568 0.21838 0.94031 0.0
C757 C 0.8026 0.208 0.95506 0.0
C758 C 0.81151 0.18579 0.94993 0.0
C759 C 0.80361 0.17363 0.93005 0.0
C760 C 0.78677 0.18371 0.91527 0.0
C761 C 0.77781 0.20596 0.92034 0.0
H762 H 0.81049 0.1564 0.92611 0.0
H763 H 0.72711 0.37507 0.96754 0.0
H764 H 0.22803 0.83546 0.61474 0.0
H765 H 0.23814 0.7955 0.60281 0.0
H766 H 0.21532 0.81035 0.53172 0.0
H767 H 0.20606 0.85085 0.54331 0.0
H768 H 0.19383 0.76815 0.56529 0.0
H769 H 0.26155 0.80155 0.52651 0.0
H770 H 0.29624 0.82726 0.52547 0.0
H771 H 0.32723 0.78834 0.58243 0.0
H772 H 0.29252 0.76266 0.58413 0.0
H773 H 0.2654 0.6535 0.53681 0.0
H774 H 0.25341 0.69394 0.52813 0.0
H775 H 0.2286 0.70163 0.59973 0.0
H776 H 0.24097 0.66152 0.6086 0.0
H777 H 0.2727 0.73318 0.55426 0.0
H778 H 0.18094 0.73877 0.59755 0.0
H779 H 0.14679 0.71303 0.60382 0.0
H780 H 0.16465 0.6739 0.54157 0.0
H781 H 0.19832 0.69997 0.53452 0.0
C782 C 0.2257 0.83039 0.59643 0.0
C783 C 0.21639 0.84621 0.5799 0.0
C784 C 0.23146 0.80761 0.58967 0.0
C785 C 0.22749 0.80013 0.56643 0.0
C786 C 0.21865 0.81597 0.54969 0.0
C787 C 0.21342 0.83902 0.55632 0.0
C788 C 0.23059 0.77513 0.56061 0.0
C789 C 0.21099 0.76045 0.56247 0.0
C790 C 0.25304 0.76533 0.55703 0.0
C791 C 0.27428 0.78031 0.5556 0.0
C792 C 0.27566 0.79859 0.53896 0.0
C793 C 0.29536 0.81313 0.53821 0.0
C794 C 0.3139 0.80948 0.55392 0.0
C795 C 0.31284 0.79117 0.5703 0.0
C796 C 0.29316 0.7766 0.57114 0.0
C797 C 0.2568 0.66364 0.55048 0.0
C798 C 0.25413 0.65449 0.57341 0.0
C799 C 0.25015 0.68675 0.54555 0.0
C800 C 0.24024 0.70075 0.56332 0.0
C801 C 0.23614 0.69106 0.58575 0.0
C802 C 0.24313 0.66815 0.59079 0.0
C803 C 0.23596 0.72607 0.55939 0.0
C804 C 0.25541 0.74083 0.55619 0.0
C805 C 0.2134 0.73599 0.56212 0.0
C806 C 0.19233 0.72112 0.56561 0.0
C807 C 0.17742 0.72483 0.58505 0.0
C808 C 0.15813 0.71018 0.58876 0.0
C809 C 0.15357 0.69176 0.57314 0.0
C810 C 0.16815 0.68812 0.55367 0.0
C811 C 0.18732 0.70283 0.54979 0.0
H812 H 0.13868 0.68038 0.57608 0.0
H813 H 0.32908 0.82083 0.55339 0.0
H814 H 0.66602 0.24424 0.62336 0.0
H815 H 0.70753 0.25126 0.61564 0.0
H816 H 0.69428 0.24957 0.54066 0.0
H817 H 0.65256 0.24216 0.54833 0.0
H818 H 0.72637 0.21531 0.55674 0.0
H819 H 0.71723 0.29747 0.56044 0.0
H820 H 0.70423 0.33582 0.57562 0.0
H821 H 0.74266 0.32428 0.63985 0.0
H822 H 0.75568 0.28571 0.62517 0.0
H823 H 0.85248 0.25542 0.54551 0.0
H824 H 0.81081 0.24728 0.53844 0.0
H825 H 0.8029 0.22593 0.61105 0.0
H826 H 0.84431 0.23378 0.61819 0.0
H827 H 0.78162 0.27322 0.59001 0.0
H828 H 0.78834 0.18925 0.58453 0.0
H829 H 0.7979 0.15006 0.56906 0.0
H830 H 0.76129 0.16562 0.50465 0.0
H831 H 0.75249 0.20539 0.51923 0.0
C832 C 0.67181 0.2461 0.60522 0.0
C833 C 0.65618 0.24244 0.58641 0.0
C834 C 0.69555 0.25015 0.60082 0.0
C835 C 0.70403 0.25056 0.57754 0.0
C836 C 0.68809 0.24896 0.55871 0.0
C837 C 0.66427 0.24498 0.56311 0.0
C838 C 0.72963 0.24899 0.57332 0.0
C839 C 0.73847 0.22841 0.56306 0.0
C840 C 0.7454 0.26566 0.58255 0.0
C841 C 0.73722 0.28857 0.59179 0.0
C842 C 0.72268 0.30298 0.57792 0.0
C843 C 0.71538 0.3248 0.5864 0.0
C844 C 0.72256 0.33245 0.60871 0.0
C845 C 0.73709 0.31831 0.62258 0.0
C846 C 0.74446 0.29648 0.61417 0.0
C847 C 0.84212 0.24784 0.55961 0.0
C848 C 0.85147 0.24557 0.58251 0.0
C849 C 0.81833 0.24319 0.55553 0.0
C850 C 0.80384 0.23605 0.57424 0.0
C851 C 0.81386 0.23122 0.59634 0.0
C852 C 0.83753 0.23578 0.60041 0.0
C853 C 0.77824 0.23972 0.57287 0.0
C854 C 0.76946 0.26063 0.58255 0.0
C855 C 0.76258 0.22349 0.56261 0.0
C856 C 0.7702 0.20058 0.55282 0.0
C857 C 0.78295 0.18465 0.56679 0.0
C858 C 0.7881 0.16224 0.55821 0.0
C859 C 0.78031 0.1554 0.53583 0.0
C860 C 0.76746 0.17101 0.5219 0.0
C861 C 0.76252 0.19354 0.53025 0.0
H862 H 0.78418 0.138 0.5293 0.0
H863 H 0.7169 0.34936 0.61524 0.0
H864 H 0.62164 0.15427 0.09498 0.0
H865 H 0.6055 0.18745 0.07279 0.0
H866 H 0.62049 0.15152 0.00736 0.0
H867 H 0.63532 0.11816 0.02925 0.0
H868 H 0.62659 0.21583 0.04636 0.0
H869 H 0.59 0.16863 0.96215 0.0
H870 H 0.56682 0.1334 0.95255 0.0
H871 H 0.53745 0.13358 0.02241 0.0
H872 H 0.56042 0.16874 0.03244 0.0
H873 H 0.59538 0.26733 0.92058 0.0
H874 H 0.60906 0.23653 0.94765 0.0
H875 H 0.58195 0.27571 0.00689 0.0
H876 H 0.56836 0.30641 0.9798 0.0
H877 H 0.57808 0.21143 0.97386 0.0
H878 H 0.60853 0.2605 0.0561 0.0
H879 H 0.63299 0.29363 0.0694 0.0
H880 H 0.67425 0.28856 0.0063 0.0
H881 H 0.64949 0.25587 0.9921 0.0
C882 C 0.62079 0.15319 0.07588 0.0
C883 C 0.6298 0.13355 0.06392 0.0
C884 C 0.61171 0.17224 0.06319 0.0
C885 C 0.61157 0.17206 0.03831 0.0
C886 C 0.61974 0.15202 0.02648 0.0
C887 C 0.62842 0.1329 0.03911 0.0
C888 C 0.60522 0.19345 0.02456 0.0
C889 C 0.61576 0.21484 0.03066 0.0
C890 C 0.59102 0.1924 0.00405 0.0
C891 C 0.57709 0.17123 0.99809 0.0
C892 C 0.57856 0.16117 0.97544 0.0
C893 C 0.56551 0.14116 0.96996 0.0
C894 C 0.55078 0.13115 0.98692 0.0
C895 C 0.54902 0.14119 0.00937 0.0
C896 C 0.56211 0.16112 0.01499 0.0
C897 C 0.59308 0.26961 0.93946 0.0
C898 C 0.58119 0.28924 0.94828 0.0
C899 C 0.60079 0.25204 0.95489 0.0
C900 C 0.59666 0.25385 0.97935 0.0
C901 C 0.58573 0.27408 0.9882 0.0
C902 C 0.57791 0.29156 0.97274 0.0
C903 C 0.60062 0.23331 0.99501 0.0
C904 C 0.58917 0.21222 0.98943 0.0
C905 C 0.61381 0.23469 0.01611 0.0
C906 C 0.627 0.25596 0.02297 0.0
C907 C 0.62258 0.26673 0.04486 0.0
C908 C 0.63647 0.28542 0.05251 0.0
C909 C 0.65508 0.29323 0.03858 0.0
C910 C 0.6596 0.28263 0.0168 0.0
C911 C 0.6455 0.2642 0.00884 0.0
H912 H 0.66605 0.30748 0.04467 0.0
H913 H 0.54067 0.11567 0.98264 0.0
H914 H 0.20824 0.55615 0.96754 0.0
H915 H 0.23671 0.57097 0.99663 0.0
H916 H 0.28073 0.59547 0.93979 0.0
H917 H 0.25211 0.58103 0.91082 0.0
H918 H 0.30181 0.56313 0.97329 0.0
H919 H 0.25477 0.6335 0.97122 0.0
H920 H 0.21846 0.65667 0.97566 0.0
H921 H 0.21489 0.6377 0.049 0.0
H922 H 0.25077 0.61397 0.04482 0.0
H923 H 0.39345 0.62683 0.02422 0.0
H924 H 0.36122 0.609 1.00276 0.0
H925 H 0.31939 0.60877 0.06632 0.0
H926 H 0.35153 0.62758 0.08783 0.0
H927 H 0.2945 0.62617 0.03314 0.0
H928 H 0.33667 0.55449 0.03764 0.0
H929 H 0.36958 0.52655 0.03548 0.0
H930 H 0.38006 0.54382 0.96236 0.0
H931 H 0.34689 0.57156 0.96397 0.0
C932 C 0.22373 0.56528 0.96141 0.0
C933 C 0.22797 0.56789 0.93712 0.0
C934 C 0.23992 0.57371 0.97796 0.0
C935 C 0.26074 0.58438 0.97034 0.0
C936 C 0.26468 0.58741 0.94601 0.0
C937 C 0.24836 0.57929 0.92952 0.0
C938 C 0.27956 0.59015 0.98742 0.0
C939 C 0.30034 0.57709 0.98623 0.0
C940 C 0.27705 0.6075 0.00511 0.0
C941 C 0.2553 0.62165 0.00756 0.0
C942 C 0.24604 0.634 0.98818 0.0
C943 C 0.22558 0.6473 0.99068 0.0
C944 C 0.21435 0.64861 0.01258 0.0
C945 C 0.22356 0.63664 0.03203 0.0
C946 C 0.24395 0.62324 0.02958 0.0
C947 C 0.37762 0.62252 0.03385 0.0
C948 C 0.37506 0.62882 0.05774 0.0
C949 C 0.35914 0.61214 0.02152 0.0
C950 C 0.33775 0.60737 0.03285 0.0
C951 C 0.33564 0.61233 0.05711 0.0
C952 C 0.35413 0.62292 0.06946 0.0
C953 C 0.31714 0.59944 0.01873 0.0
C954 C 0.29597 0.61202 0.02043 0.0
C955 C 0.31894 0.58116 1.0019 0.0
C956 C 0.33945 0.56523 1.001 0.0
C957 C 0.34611 0.55246 0.02115 0.0
C958 C 0.36471 0.53655 0.01998 0.0
C959 C 0.37698 0.53349 0.99882 0.0
C960 C 0.37056 0.54623 0.97874 0.0
C961 C 0.35177 0.56193 0.97973 0.0
H962 H 0.39143 0.52124 0.99799 0.0
H963 H 0.19853 0.6589 0.0145 0.0
H964 H 0.87718 0.39065 0.03124 0.0
H965 H 0.89515 0.35813 0.00999 0.0
H966 H 0.89094 0.31515 0.07256 0.0
H967 H 0.87263 0.34762 0.09405 0.0
H968 H 0.9324 0.30863 0.04775 0.0
H969 H 0.8511 0.30727 0.03345 0.0
H970 H 0.81176 0.32176 0.0232 0.0
H971 H 0.83522 0.33808 0.95302 0.0
H972 H 0.87494 0.32414 0.96301 0.0
H973 H 0.94096 0.20134 0.9798 0.0
H974 H 0.92497 0.23179 0.00605 0.0
H975 H 0.93874 0.2841 0.95275 0.0
H976 H 0.95522 0.25377 0.92676 0.0
H977 H 0.89087 0.28317 0.97503 0.0
H978 H 0.97414 0.28436 0.99331 0.0
H979 H 0.01133 0.26596 0.00551 0.0
H980 H 0.98003 0.24437 0.07101 0.0
H981 H 0.94252 0.26235 0.05903 0.0
C982 C 0.88043 0.37445 0.04068 0.0
C983 C 0.87323 0.37165 0.06428 0.0
C984 C 0.89057 0.35583 0.02843 0.0
C985 C 0.89384 0.33413 0.03957 0.0
C986 C 0.88834 0.33175 0.06362 0.0
C987 C 0.87797 0.35035 0.07589 0.0
C988 C 0.90208 0.31379 0.02565 0.0
C989 C 0.92314 0.30282 0.03206 0.0
C990 C 0.88989 0.30617 0.00522 0.0
C991 C 0.86615 0.31505 0.99915 0.0
C992 C 0.848 0.31429 0.01595 0.0
C993 C 0.82559 0.32233 0.01016 0.0
C994 C 0.82102 0.331 0.98753 0.0
C995 C 0.83883 0.33149 0.97059 0.0
C996 C 0.86131 0.32353 0.97632 0.0
C997 C 0.94043 0.21936 0.97378 0.0
C998 C 0.94902 0.22541 0.95138 0.0
C999 C 0.93144 0.23665 0.98872 0.0
C1000 C 0.93076 0.26008 0.98124 0.0
C1001 C 0.93915 0.26606 0.95873 0.0
C1002 C 0.94856 0.24885 0.94399 0.0
C1003 C 0.92132 0.27844 0.9969 0.0
C1004 C 0.89998 0.28893 0.99082 0.0
C1005 C 0.9329 0.28515 0.01792 0.0
C1006 C 0.95546 0.27445 0.02515 0.0
C1007 C 0.97512 0.27548 0.01021 0.0
C1008 C 0.99627 0.26518 0.01711 0.0
C1009 C 0.99803 0.25394 0.03899 0.0
C1010 C 0.97864 0.25304 0.05405 0.0
C1011 C 0.95743 0.2633 0.04722 0.0
H1012 H 0.01442 0.24598 0.0443 0.0
H1013 H 0.80365 0.33724 0.98309 0.0
H1014 H 0.31328 0.91667 0.95499 0.0
H1015 H 0.28292 0.89519 0.97682 0.0
H1016 H 0.23167 0.94633 0.9545 0.0
H1017 H 0.26128 0.96592 0.93065 0.0
H1018 H 0.25633 0.90098 0.011 0.0
H1019 H 0.17959 0.9259 0.94681 0.0
H1020 H 0.17442 0.933 0.90408 0.0
H1021 H 0.23514 0.89107 0.88912 0.0
H1022 H 0.24046 0.88346 0.9317 0.0
H1023 H 0.15015 0.87793 0.07121 0.0
H1024 H 0.183 0.89562 0.04962 0.0
H1025 H 0.16912 0.85005 0.99033 0.0
H1026 H 0.13601 0.83335 0.01113 0.0
H1027 H 0.17907 0.88783 0.97308 0.0
H1028 H 0.21628 0.84147 0.02999 0.0
H1029 H 0.22593 0.82471 0.06891 0.0
H1030 H 0.25081 0.89181 0.09236 0.0
H1031 H 0.24073 0.9091 0.05367 0.0
C1032 C 0.29529 0.92263 0.95406 0.0
C1033 C 0.28935 0.94201 0.94004 0.0
C1034 C 0.27806 0.91074 0.96699 0.0
C1035 C 0.25471 0.91862 0.96676 0.0
C1036 C 0.24926 0.9392 0.95422 0.0
C1037 C 0.26629 0.95056 0.94073 0.0
C1038 C 0.23589 0.9054 0.97926 0.0
C1039 C 0.23944 0.89809 1.00271 0.0
C1040 C 0.21419 0.90044 0.96817 0.0
C1041 C 0.21052 0.90428 0.94246 0.0
C1042 C 0.19172 0.91805 0.93438 0.0
C1043 C 0.18879 0.9222 0.91019 0.0
C1044 C 0.20448 0.91255 0.8939 0.0
C1045 C 0.22304 0.89859 0.90175 0.0
C1046 C 0.22602 0.89436 0.9259 0.0
C1047 C 0.15403 0.87193 0.05347 0.0
C1048 C 0.14037 0.85436 0.04287 0.0
C1049 C 0.17296 0.88185 0.04122 0.0
C1050 C 0.17888 0.87397 0.01837 0.0
C1051 C 0.16502 0.85658 0.00781 0.0
C1052 C 0.14597 0.84702 0.01981 0.0
C1053 C 0.19917 0.884 0.00517 0.0
C1054 C 0.19593 0.89065 0.98146 0.0
C1055 C 0.22163 0.88675 0.01554 0.0
C1056 C 0.22744 0.87664 0.03901 0.0
C1057 C 0.22354 0.85271 0.04353 0.0
C1058 C 0.22913 0.84311 0.06554 0.0
C1059 C 0.23896 0.8572 0.08312 0.0
C1060 C 0.24316 0.88093 0.07873 0.0
C1061 C 0.23748 0.89065 0.05676 0.0
H1062 H 0.24337 0.84971 0.10014 0.0
H1063 H 0.20223 0.91587 0.8752 0.0
H1064 H 0.62828 0.35785 0.41278 0.0
H1065 H 0.60533 0.32651 0.4309 0.0
H1066 H 0.59478 0.36924 0.4929 0.0
H1067 H 0.61765 0.40069 0.47488 0.0
H1068 H 0.61949 0.30417 0.46875 0.0
H1069 H 0.54376 0.34953 0.52265 0.0
H1070 H 0.51488 0.38125 0.51759 0.0
H1071 H 0.52332 0.37777 0.44227 0.0
H1072 H 0.5516 0.34546 0.44675 0.0
H1073 H 0.5832 0.25192 0.57896 0.0
H1074 H 0.59564 0.27968 0.54817 0.0
H1075 H 0.54036 0.25473 0.50273 0.0
H1076 H 0.52925 0.22569 0.53278 0.0
H1077 H 0.54405 0.30689 0.51208 0.0
H1078 H 0.58467 0.2402 0.48376 0.0
H1079 H 0.61065 0.20575 0.48462 0.0
H1080 H 0.66908 0.24987 0.50201 0.0
H1081 H 0.64328 0.2844 0.50236 0.0
C1082 C 0.62051 0.36088 0.42998 0.0
C1083 C 0.62504 0.38169 0.44249 0.0
C1084 C 0.60747 0.34287 0.44036 0.0
C1085 C 0.59843 0.34543 0.46332 0.0
C1086 C 0.60141 0.36688 0.47511 0.0
C1087 C 0.61459 0.38485 0.4648 0.0
C1088 C 0.58873 0.32483 0.47611 0.0
C1089 C 0.60294 0.3048 0.47812 0.0
C1090 C 0.56686 0.3254 0.48797 0.0
C1091 C 0.55011 0.34518 0.48508 0.0
C1092 C 0.5394 0.35542 0.50498 0.0
C1093 C 0.52302 0.37343 0.50221 0.0
C1094 C 0.51732 0.38156 0.47963 0.0
C1095 C 0.52785 0.37155 0.45976 0.0
C1096 C 0.54405 0.35334 0.46241 0.0
C1097 C 0.57473 0.25147 0.56186 0.0
C1098 C 0.55634 0.23578 0.5576 0.0
C1099 C 0.5814 0.26766 0.54454 0.0
C1100 C 0.56908 0.26898 0.52309 0.0
C1101 C 0.55022 0.25377 0.51908 0.0
C1102 C 0.54397 0.2372 0.53617 0.0
C1103 C 0.57535 0.28702 0.50539 0.0
C1104 C 0.56055 0.30645 0.50258 0.0
C1105 C 0.59647 0.28582 0.49247 0.0
C1106 C 0.61192 0.2649 0.49341 0.0
C1107 C 0.60295 0.2425 0.4883 0.0
C1108 C 0.61767 0.22292 0.48855 0.0
C1109 C 0.64149 0.22553 0.49355 0.0
C1110 C 0.65062 0.24775 0.49832 0.0
C1111 C 0.63592 0.26734 0.49842 0.0
H1112 H 0.65282 0.21034 0.4936 0.0
H1113 H 0.50476 0.39563 0.47754 0.0
H1114 H 0.11568 0.67733 0.49077 0.0
H1115 H 0.14373 0.65337 0.51239 0.0
H1116 H 0.13587 0.598 0.46127 0.0
H1117 H 0.10766 0.62211 0.43912 0.0
H1118 H 0.14147 0.5817 0.509 0.0
H1119 H 0.17754 0.63174 0.45389 0.0
H1120 H 0.18803 0.66763 0.43233 0.0
H1121 H 0.21799 0.6967 0.49539 0.0
H1122 H 0.20698 0.66117 0.51767 0.0
H1123 H 0.26102 0.53717 0.53043 0.0
H1124 H 0.22564 0.55262 0.511 0.0
H1125 H 0.21658 0.60203 0.56792 0.0
H1126 H 0.25113 0.58554 0.58801 0.0
H1127 H 0.21981 0.61896 0.51505 0.0
H1128 H 0.18096 0.5658 0.56951 0.0
H1129 H 0.17277 0.52712 0.58712 0.0
H1130 H 0.15176 0.50079 0.51927 0.0
H1131 H 0.16037 0.53914 0.50111 0.0
C1132 C 0.11945 0.65986 0.48429 0.0
C1133 C 0.10958 0.65176 0.463 0.0
C1134 C 0.13563 0.64623 0.49668 0.0
C1135 C 0.14231 0.62413 0.48821 0.0
C1136 C 0.13107 0.61509 0.46806 0.0
C1137 C 0.11488 0.62885 0.45546 0.0
C1138 C 0.16236 0.61166 0.49944 0.0
C1139 C 0.15866 0.58973 0.51011 0.0
C1140 C 0.18487 0.62211 0.50079 0.0
C1141 C 0.19084 0.64394 0.48766 0.0
C1142 C 0.18585 0.64596 0.46337 0.0
C1143 C 0.19199 0.66624 0.45097 0.0
C1144 C 0.20348 0.68454 0.46252 0.0
C1145 C 0.20888 0.68259 0.48653 0.0
C1146 C 0.20262 0.6624 0.49907 0.0
C1147 C 0.25139 0.5513 0.53876 0.0
C1148 C 0.25938 0.56112 0.56006 0.0
C1149 C 0.23118 0.56 0.52774 0.0
C1150 C 0.21864 0.57858 0.53794 0.0
C1151 C 0.22615 0.58782 0.55966 0.0
C1152 C 0.24606 0.57874 0.57089 0.0
C1153 C 0.1987 0.58948 0.52518 0.0
C1154 C 0.20254 0.61106 0.51402 0.0
C1155 C 0.1766 0.57843 0.52292 0.0
C1156 C 0.17169 0.55529 0.53386 0.0
C1157 C 0.17496 0.55168 0.55825 0.0
C1158 C 0.17015 0.52982 0.56836 0.0
C1159 C 0.16187 0.51148 0.55428 0.0
C1160 C 0.15828 0.51498 0.53011 0.0
C1161 C 0.16313 0.53677 0.51991 0.0
H1162 H 0.15816 0.49457 0.56208 0.0
H1163 H 0.20836 0.70016 0.45284 0.0
H1164 H 0.85586 0.09978 0.4951 0.0
H1165 H 0.87705 0.12777 0.51961 0.0
H1166 H 0.91831 0.14879 0.45943 0.0
H1167 H 0.89652 0.12126 0.43436 0.0
H1168 H 0.94245 0.14568 0.50755 0.0
H1169 H 0.87447 0.1753 0.46674 0.0
H1170 H 0.83295 0.17788 0.45532 0.0
H1171 H 0.81439 0.19397 0.52696 0.0
H1172 H 0.8552 0.18898 0.53937 0.0
H1173 H 0.97237 0.26162 0.54762 0.0
H1174 H 0.96085 0.22704 0.52454 0.0
H1175 H 0.90798 0.21075 0.57657 0.0
H1176 H 0.92011 0.24502 0.59994 0.0
H1177 H 0.89101 0.21191 0.53089 0.0
H1178 H 0.95433 0.17643 0.5733 0.0
H1179 H 0.99467 0.17225 0.58817 0.0
H1180 H 0.02069 0.16994 0.51698 0.0
H1181 H 0.98039 0.17411 0.50165 0.0
C1182 C 0.86983 0.10988 0.48711 0.0
C1183 C 0.87424 0.10864 0.46267 0.0
C1184 C 0.88187 0.12591 0.50118 0.0
C1185 C 0.89885 0.14057 0.49117 0.0
C1186 C 0.9051 0.13766 0.46736 0.0
C1187 C 0.89264 0.12198 0.45309 0.0
C1188 C 0.90791 0.16063 0.50487 0.0
C1189 C 0.93131 0.16031 0.51244 0.0
C1190 C 0.89306 0.17941 0.51162 0.0
C1191 C 0.86808 0.18103 0.50414 0.0
C1192 C 0.86147 0.1783 0.4803 0.0
C1193 C 0.83793 0.18007 0.47366 0.0
C1194 C 0.82092 0.18547 0.49054 0.0
C1195 C 0.82738 0.189 0.51405 0.0
C1196 C 0.85071 0.18648 0.52093 0.0
C1197 C 0.95827 0.25059 0.554 0.0
C1198 C 0.94626 0.25632 0.57485 0.0
C1199 C 0.95185 0.23082 0.54097 0.0
C1200 C 0.93351 0.21643 0.54881 0.0
C1201 C 0.92204 0.22179 0.57012 0.0
C1202 C 0.92864 0.24145 0.58323 0.0
C1203 C 0.92528 0.19666 0.53408 0.0
C1204 C 0.90209 0.1972 0.52606 0.0
C1205 C 0.94012 0.17799 0.52726 0.0
C1206 C 0.96439 0.17585 0.53634 0.0
C1207 C 0.96868 0.17526 0.56081 0.0
C1208 C 0.99153 0.17281 0.56933 0.0
C1209 C 0.01027 0.17095 0.55354 0.0
C1210 C 0.00616 0.17143 0.52919 0.0
C1211 C 0.98331 0.17377 0.52057 0.0
H1212 H 0.02796 0.16907 0.56018 0.0
H1213 H 0.80282 0.18747 0.48535 0.0
H1214 H 0.33538 0.85681 0.41768 0.0
H1215 H 0.30507 0.87196 0.44398 0.0
H1216 H 0.35829 0.8961 0.49241 0.0
H1217 H 0.38868 0.88021 0.46653 0.0
H1218 H 0.32669 0.87338 0.51574 0.0
H1219 H 0.32374 0.9342 0.45724 0.0
H1220 H 0.32025 0.95073 0.41711 0.0
H1221 H 0.25182 0.92029 0.40994 0.0
H1222 H 0.25502 0.90332 0.44994 0.0
H1223 H 0.25574 0.94707 0.58816 0.0
H1224 H 0.28446 0.92882 0.56183 0.0
H1225 H 0.22833 0.90216 0.51835 0.0
H1226 H 0.19959 0.92105 0.54445 0.0
H1227 H 0.2601 0.92412 0.49228 0.0
H1228 H 0.26389 0.86448 0.55293 0.0
H1229 H 0.2697 0.84776 0.59278 0.0
H1230 H 0.33828 0.87806 0.59632 0.0
H1231 H 0.33306 0.895 0.55657 0.0
C1232 C 0.34068 0.86576 0.4337 0.0
C1233 C 0.36448 0.8673 0.44001 0.0
C1234 C 0.32328 0.87446 0.44875 0.0
C1235 C 0.32932 0.8853 0.4702 0.0
C1236 C 0.35314 0.88771 0.47603 0.0
C1237 C 0.37053 0.87875 0.46114 0.0
C1238 C 0.3109 0.89283 0.48725 0.0
C1239 C 0.31232 0.88478 0.51067 0.0
C1240 C 0.2917 0.90708 0.48053 0.0
C1241 C 0.28972 0.9173 0.4565 0.0
C1242 C 0.30802 0.93088 0.44704 0.0
C1243 C 0.30608 0.94036 0.42433 0.0
C1244 C 0.28586 0.93651 0.41096 0.0
C1245 C 0.26749 0.92323 0.4203 0.0
C1246 C 0.26935 0.9137 0.443 0.0
C1247 C 0.24957 0.9369 0.57324 0.0
C1248 C 0.22548 0.93493 0.5686 0.0
C1249 C 0.26598 0.92636 0.55827 0.0
C1250 C 0.25861 0.91377 0.53826 0.0
C1251 C 0.23446 0.91158 0.53379 0.0
C1252 C 0.21805 0.92217 0.54878 0.0
C1253 C 0.27608 0.90493 0.52087 0.0
C1254 C 0.27444 0.91268 0.49734 0.0
C1255 C 0.29528 0.89067 0.52757 0.0
C1256 C 0.29797 0.88123 0.55186 0.0
C1257 C 0.28008 0.86785 0.56232 0.0
C1258 C 0.28329 0.85825 0.58484 0.0
C1259 C 0.30421 0.86194 0.59709 0.0
C1260 C 0.32205 0.87523 0.58684 0.0
C1261 C 0.31902 0.88479 0.5643 0.0
H1262 H 0.30663 0.85443 0.61449 0.0
H1263 H 0.28439 0.94386 0.39338 0.0
H1264 H 0.39698 0.90067 0.96878 0.0
H1265 H 0.41349 0.86864 0.99186 0.0
H1266 H 0.40155 0.82112 0.93378 0.0
H1267 H 0.38446 0.85304 0.91071 0.0
H1268 H 0.38077 0.80592 0.97223 0.0
H1269 H 0.45819 0.83347 0.95508 0.0
H1270 H 0.49025 0.86223 0.95187 0.0
H1271 H 0.48563 0.8762 0.02631 0.0
H1272 H 0.45346 0.84758 0.02996 0.0
H1273 H 0.42365 0.70782 0.03853 0.0
H1274 H 0.41279 0.73821 0.01 0.0
H1275 H 0.43285 0.79157 0.06027 0.0
H1276 H 0.44507 0.76114 0.08799 0.0
H1277 H 0.45184 0.80211 0.02239 0.0
H1278 H 0.36936 0.78414 0.03771 0.0
H1279 H 0.33339 0.76057 0.04092 0.0
H1280 H 0.34591 0.73123 0.97218 0.0
H1281 H 0.38153 0.75549 0.96816 0.0
C1282 C 0.39846 0.88356 0.96061 0.0
C1283 C 0.38901 0.87935 0.93803 0.0
C1284 C 0.40806 0.86523 0.97384 0.0
C1285 C 0.40869 0.84238 0.96464 0.0
C1286 C 0.40113 0.83857 0.94131 0.0
C1287 C 0.39144 0.85689 0.92809 0.0
C1288 C 0.41385 0.82217 0.98042 0.0
C1289 C 0.3966 0.80482 0.98282 0.0
C1290 C 0.43402 0.82115 0.99491 0.0
C1291 C 0.4533 0.83847 0.99275 0.0
C1292 C 0.46389 0.8428 0.97073 0.0
C1293 C 0.48212 0.85905 0.96885 0.0
C1294 C 0.48992 0.8711 0.98886 0.0
C1295 C 0.47956 0.86686 0.01082 0.0
C1296 C 0.46138 0.85057 0.01282 0.0
C1297 C 0.42503 0.72606 0.04365 0.0
C1298 C 0.43502 0.7322 0.06544 0.0
C1299 C 0.41877 0.7435 0.02735 0.0
C1300 C 0.42187 0.76739 0.03285 0.0
C1301 C 0.43045 0.77338 0.05537 0.0
C1302 C 0.43723 0.75598 0.07134 0.0
C1303 C 0.41846 0.78605 0.01463 0.0
C1304 C 0.4361 0.80307 0.01169 0.0
C1305 C 0.39849 0.78704 0.99983 0.0
C1306 C 0.37824 0.77123 1.00285 0.0
C1307 C 0.3646 0.7724 0.02344 0.0
C1308 C 0.34422 0.75901 0.02534 0.0
C1309 C 0.33756 0.74406 0.00695 0.0
C1310 C 0.35117 0.74268 0.98648 0.0
C1311 C 0.37134 0.75638 0.9843 0.0
H1312 H 0.32175 0.73373 0.00842 0.0
H1313 H 0.50404 0.88367 0.98736 0.0
H1314 H 0.80415 0.42099 0.04188 0.0
H1315 H 0.77424 0.40836 0.01325 0.0
H1316 H 0.72103 0.4437 0.05402 0.0
H1317 H 0.75087 0.45653 0.08241 0.0
H1318 H 0.70875 0.39667 0.03657 0.0
H1319 H 0.74063 0.47161 0.00996 0.0
H1320 H 0.77314 0.49759 0.99823 0.0
H1321 H 0.79219 0.4498 0.94283 0.0
H1322 H 0.75996 0.42336 0.95447 0.0
H1323 H 0.61489 0.39889 0.95892 0.0
H1324 H 0.64527 0.41583 0.98404 0.0
H1325 H 0.69832 0.39239 0.93521 0.0
H1326 H 0.66811 0.37545 0.9099 0.0
H1327 H 0.71188 0.43202 0.95639 0.0
H1328 H 0.68186 0.35758 0.98005 0.0
H1329 H 0.65061 0.32947 0.99003 0.0
H1330 H 0.63096 0.37149 0.04975 0.0
H1331 H 0.6617 0.40024 0.03977 0.0
C1332 C 0.78598 0.4256 0.0449 0.0
C1333 C 0.77964 0.4394 0.06442 0.0
C1334 C 0.76899 0.41853 0.02854 0.0
C1335 C 0.74548 0.42518 0.03155 0.0
C1336 C 0.73907 0.43833 0.05147 0.0
C1337 C 0.75607 0.44565 0.06762 0.0
C1338 C 0.72771 0.41969 0.01331 0.0
C1339 C 0.70926 0.40457 0.01913 0.0
C1340 C 0.72886 0.42944 0.99034 0.0
C1341 C 0.74805 0.44543 0.98322 0.0
C1342 C 0.75187 0.46656 0.9954 0.0
C1343 C 0.77021 0.48139 0.98874 0.0
C1344 C 0.78475 0.47533 0.96983 0.0
C1345 C 0.78093 0.45446 0.95749 0.0
C1346 C 0.76262 0.43956 0.96409 0.0
C1347 C 0.63297 0.39788 0.95316 0.0
C1348 C 0.63912 0.38529 0.93271 0.0
C1349 C 0.65032 0.40749 0.96762 0.0
C1350 C 0.67409 0.40453 0.96193 0.0
C1351 C 0.68011 0.3944 0.94017 0.0
C1352 C 0.66276 0.3848 0.92566 0.0
C1353 C 0.69252 0.40939 0.97979 0.0
C1354 C 0.71123 0.4242 0.97386 0.0
C1355 C 0.69193 0.39887 1.0025 0.0
C1356 C 0.67393 0.38122 0.00901 0.0
C1357 C 0.67081 0.36091 0.99524 0.0
C1358 C 0.65317 0.34487 1.00087 0.0
C1359 C 0.63877 0.34873 0.02046 0.0
C1360 C 0.64208 0.36857 0.03454 0.0
C1361 C 0.65959 0.38477 0.02889 0.0
H1362 H 0.62509 0.33631 0.02476 0.0
H1363 H 0.79895 0.48682 0.9647 0.0
H1364 H 0.1223 0.63584 0.92838 0.0
H1365 H 0.10218 0.6661 0.95149 0.0
H1366 H 0.15024 0.6549 0.00925 0.0
H1367 H 0.17029 0.62465 0.9865 0.0
H1368 H 0.0808 0.66683 0.99651 0.0
H1369 H 0.16543 0.71167 0.02933 0.0
H1370 H 0.2072 0.71481 0.01816 0.0
H1371 H 0.18939 0.70228 0.94557 0.0
H1372 H 0.14752 0.6999 0.95617 0.0
H1373 H 0.05647 0.74754 0.08783 0.0
H1374 H 0.07453 0.71635 0.06448 0.0
H1375 H 0.09237 0.76657 0.01031 0.0
H1376 H 0.07441 0.79791 0.03399 0.0
H1377 H 0.12824 0.73642 0.0185 0.0
H1378 H 0.0451 0.73057 0.00396 0.0
H1379 H 0.00363 0.7272 0.01578 0.0
H1380 H 0.01828 0.66189 0.05054 0.0
H1381 H 0.0599 0.66502 0.03914 0.0
C1382 C 0.12828 0.6395 0.94617 0.0
C1383 C 0.14799 0.62799 0.95551 0.0
C1384 C 0.1168 0.65679 0.95932 0.0
C1385 C 0.12503 0.66297 0.98186 0.0
C1386 C 0.14385 0.65058 0.99175 0.0
C1387 C 0.1552 0.63321 0.97872 0.0
C1388 C 0.11475 0.68314 0.99458 0.0
C1389 C 0.09114 0.68206 1.00131 0.0
C1390 C 0.12829 0.70307 1.00058 0.0
C1391 C 0.15335 0.7053 0.99367 0.0
C1392 C 0.17044 0.70978 0.01098 0.0
C1393 C 0.1941 0.71145 0.00475 0.0
C1394 C 0.20092 0.70857 0.98123 0.0
C1395 C 0.18407 0.70438 0.96381 0.0
C1396 C 0.16036 0.70291 0.96993 0.0
C1397 C 0.06442 0.75192 0.07106 0.0
C1398 C 0.06458 0.77512 0.06286 0.0
C1399 C 0.07464 0.7341 0.05767 0.0
C1400 C 0.08464 0.7391 0.03556 0.0
C1401 C 0.08486 0.76235 0.02738 0.0
C1402 C 0.07473 0.78022 0.04089 0.0
C1403 C 0.09436 0.71996 0.02078 0.0
C1404 C 0.11788 0.72123 0.01364 0.0
C1405 C 0.08075 0.70021 0.01434 0.0
C1406 C 0.05564 0.69812 0.02083 0.0
C1407 C 0.03949 0.71555 0.01421 0.0
C1408 C 0.01596 0.71368 0.02083 0.0
C1409 C 0.00834 0.69437 0.03394 0.0
C1410 C 0.02421 0.67684 0.04039 0.0
C1411 C 0.04776 0.67864 0.03382 0.0
H1412 H 0.99012 0.69297 0.03907 0.0
H1413 H 0.21927 0.70953 0.97654 0.0
H1414 H 0.69586 0.07898 0.04927 0.0
H1415 H 0.72605 0.09599 0.02352 0.0
H1416 H 0.77976 0.07083 0.07094 0.0
H1417 H 0.74963 0.05358 0.09637 0.0
H1418 H 0.75766 0.12916 0.03202 0.0
H1419 H 0.82873 0.05734 0.04054 0.0
H1420 H 0.83118 0.01468 0.04721 0.0
H1421 H 0.76294 0.00569 0.01656 0.0
H1422 H 0.7602 0.04825 0.00943 0.0
H1423 H 0.87929 0.1584 0.00457 0.0
H1424 H 0.8456 0.1409 0.02433 0.0
H1425 H 0.81886 0.11714 0.95726 0.0
H1426 H 0.85289 0.13437 0.93712 0.0
H1427 H 0.82505 0.08325 1.00173 0.0
H1428 H 0.76015 0.15332 0.98345 0.0
H1429 H 0.75206 0.19585 0.98228 0.0
H1430 H 0.80512 0.20764 0.03476 0.0
H1431 H 0.81304 0.16516 0.03663 0.0
C1432 C 0.71413 0.07729 0.05416 0.0
C1433 C 0.72056 0.06548 0.0749 0.0
C1434 C 0.73132 0.08688 0.03946 0.0
C1435 C 0.75516 0.08446 0.04519 0.0
C1436 C 0.76151 0.07256 0.06596 0.0
C1437 C 0.74434 0.06289 0.08055 0.0
C1438 C 0.77338 0.09495 0.02984 0.0
C1439 C 0.77223 0.11905 0.02519 0.0
C1440 C 0.79249 0.08175 0.02101 0.0
C1441 C 0.79421 0.05603 0.0246 0.0
C1442 C 0.81431 0.04625 0.03508 0.0
C1443 C 0.81574 0.02209 0.03898 0.0
C1444 C 0.79721 0.00749 0.03235 0.0
C1445 C 0.77725 0.01702 0.02174 0.0
C1446 C 0.77574 0.04117 0.01779 0.0
C1447 C 0.86634 0.1494 0.99393 0.0
C1448 C 0.86876 0.14786 0.96922 0.0
C1449 C 0.84691 0.13973 0.00526 0.0
C1450 C 0.82938 0.12856 0.99214 0.0
C1451 C 0.83203 0.12621 0.96759 0.0
C1452 C 0.85157 0.13583 0.95617 0.0
C1453 C 0.80946 0.11751 0.00446 0.0
C1454 C 0.81029 0.09325 0.00841 0.0
C1455 C 0.79009 0.13055 0.01282 0.0
C1456 C 0.78778 0.15618 0.00953 0.0
C1457 C 0.77038 0.16507 0.9944 0.0
C1458 C 0.76561 0.18911 0.99384 0.0
C1459 C 0.77816 0.20444 0.00836 0.0
C1460 C 0.79558 0.19576 0.02336 0.0
C1461 C 0.80028 0.17171 0.02411 0.0
H1462 H 0.77437 0.22303 0.00798 0.0
H1463 H 0.79835 0.9888 0.0354 0.0
H1464 H 0.3687 0.6456 0.57272 0.0
H1465 H 0.38703 0.67753 0.55014 0.0
H1466 H 0.34516 0.65904 0.4894 0.0
H1467 H 0.32825 0.62665 0.51105 0.0
H1468 H 0.38317 0.66839 0.47349 0.0
H1469 H 0.3338 0.70859 0.52593 0.0
H1470 H 0.31553 0.72122 0.56331 0.0
H1471 H 0.38152 0.74844 0.58725 0.0
H1472 H 0.40029 0.73568 0.5501 0.0
H1473 H 0.40536 0.80262 0.44688 0.0
H1474 H 0.38561 0.77246 0.47045 0.0
H1475 H 0.4391 0.72263 0.45065 0.0
H1476 H 0.45748 0.75213 0.42559 0.0
H1477 H 0.39253 0.74854 0.50594 0.0
H1478 H 0.42084 0.6683 0.44715 0.0
H1479 H 0.42635 0.65934 0.40482 0.0
H1480 H 0.38197 0.71723 0.38604 0.0
H1481 H 0.37616 0.72639 0.42824 0.0
C1482 C 0.36376 0.64823 0.55443 0.0
C1483 C 0.34727 0.63341 0.54362 0.0
C1484 C 0.37401 0.66664 0.54159 0.0
C1485 C 0.36739 0.67094 0.51797 0.0
C1486 C 0.35089 0.65606 0.50737 0.0
C1487 C 0.34119 0.63743 0.51988 0.0
C1488 C 0.37773 0.69053 0.50391 0.0
C1489 C 0.38522 0.68588 0.48071 0.0
C1490 C 0.3795 0.71373 0.51269 0.0
C1491 C 0.36853 0.72089 0.53536 0.0
C1492 C 0.34449 0.71702 0.53928 0.0
C1493 C 0.33402 0.72427 0.56039 0.0
C1494 C 0.34737 0.73555 0.57767 0.0
C1495 C 0.37122 0.73964 0.57386 0.0
C1496 C 0.38178 0.73241 0.55278 0.0
C1497 C 0.41251 0.78505 0.4472 0.0
C1498 C 0.43225 0.77941 0.43357 0.0
C1499 C 0.40142 0.76788 0.46093 0.0
C1500 C 0.4104 0.74492 0.46191 0.0
C1501 C 0.43116 0.73984 0.44953 0.0
C1502 C 0.44182 0.7568 0.43535 0.0
C1503 C 0.39823 0.72623 0.47572 0.0
C1504 C 0.39048 0.73102 0.49883 0.0
C1505 C 0.39446 0.70355 0.46624 0.0
C1506 C 0.39826 0.6982 0.44083 0.0
C1507 C 0.41226 0.6791 0.43398 0.0
C1508 C 0.41545 0.67399 0.41001 0.0
C1509 C 0.40459 0.68775 0.39275 0.0
C1510 C 0.39048 0.70664 0.39941 0.0
C1511 C 0.38728 0.71183 0.42333 0.0
H1512 H 0.40707 0.68375 0.37422 0.0
H1513 H 0.33922 0.7412 0.59398 0.0
H1514 H 0.70081 0.42433 0.46978 0.0
H1515 H 0.72856 0.405 0.49668 0.0
H1516 H 0.78625 0.43147 0.45516 0.0
H1517 H 0.75857 0.45133 0.42889 0.0
H1518 H 0.75974 0.37227 0.49274 0.0
H1519 H 0.83303 0.44304 0.48843 0.0
H1520 H 0.83661 0.48578 0.48299 0.0
H1521 H 0.76664 0.49535 0.50919 0.0
H1522 H 0.76275 0.4527 0.51509 0.0
H1523 H 0.87205 0.33077 0.52053 0.0
H1524 H 0.8405 0.3531 0.50226 0.0
H1525 H 0.82459 0.38526 0.5693 0.0
H1526 H 0.85606 0.36233 0.58812 0.0
H1527 H 0.82687 0.4167 0.52601 0.0
H1528 H 0.78716 0.35087 0.55792 0.0
H1529 H 0.7813 0.30929 0.56759 0.0
H1530 H 0.77991 0.29212 0.49378 0.0
H1531 H 0.78603 0.33378 0.48355 0.0
C1532 C 0.71944 0.4258 0.46641 0.0
C1533 C 0.72765 0.43905 0.44723 0.0
C1534 C 0.73527 0.41482 0.48176 0.0
C1535 C 0.75956 0.41707 0.47823 0.0
C1536 C 0.76766 0.4299 0.45864 0.0
C1537 C 0.75186 0.44108 0.44352 0.0
C1538 C 0.77648 0.40608 0.49494 0.0
C1539 C 0.7743 0.38209 0.50005 0.0
C1540 C 0.79524 0.41892 0.50515 0.0
C1541 C 0.79755 0.44464 0.50203 0.0
C1542 C 0.81845 0.45427 0.49315 0.0
C1543 C 0.82053 0.47848 0.48996 0.0
C1544 C 0.80185 0.49326 0.49568 0.0
C1545 C 0.78108 0.48387 0.50469 0.0
C1546 C 0.77892 0.45968 0.50794 0.0
C1547 C 0.86208 0.34274 0.53146 0.0
C1548 C 0.86659 0.34476 0.55584 0.0
C1549 C 0.84397 0.35542 0.52096 0.0
C1550 C 0.83017 0.37066 0.53447 0.0
C1551 C 0.83509 0.37351 0.55862 0.0
C1552 C 0.85305 0.36044 0.56931 0.0
C1553 C 0.81033 0.38299 0.52304 0.0
C1554 C 0.81208 0.40711 0.51884 0.0
C1555 C 0.79084 0.37048 0.51421 0.0
C1556 C 0.78724 0.3454 0.51999 0.0
C1557 C 0.7858 0.3382 0.54372 0.0
C1558 C 0.78237 0.31461 0.54928 0.0
C1559 C 0.78027 0.298 0.53126 0.0
C1560 C 0.78158 0.30501 0.50765 0.0
C1561 C 0.78498 0.32863 0.50195 0.0
H1562 H 0.77755 0.27973 0.53553 0.0
H1563 H 0.80348 0.51199 0.49317 0.0
H1564 H 0.11356 0.90661 0.53683 0.0
H1565 H 0.09199 0.87654 0.51548 0.0
H1566 H 0.09219 0.83272 0.57763 0.0
H1567 H 0.11454 0.86249 0.59897 0.0
H1568 H 0.11019 0.81 0.54246 0.0
H1569 H 0.04048 0.85473 0.55187 0.0
H1570 H 0.01414 0.88895 0.55097 0.0
H1571 H 0.02309 0.8945 0.47582 0.0
H1572 H 0.04982 0.86055 0.47628 0.0
H1573 H 0.05058 0.71923 0.47935 0.0
H1574 H 0.05558 0.75138 0.50769 0.0
H1575 H 0.07726 0.79717 0.45118 0.0
H1576 H 0.07258 0.76513 0.42277 0.0
H1577 H 0.04368 0.81711 0.48643 0.0
H1578 H 0.11801 0.77695 0.47874 0.0
H1579 H 0.14329 0.74189 0.47881 0.0
H1580 H 0.1246 0.72815 0.55102 0.0
H1581 H 0.09894 0.76294 0.55125 0.0
C1582 C 0.10848 0.89087 0.54623 0.0
C1583 C 0.11618 0.88679 0.5695 0.0
C1584 C 0.09595 0.8737 0.53398 0.0
C1585 C 0.09048 0.85228 0.54487 0.0
C1586 C 0.09633 0.84905 0.56879 0.0
C1587 C 0.10903 0.86615 0.58102 0.0
C1588 C 0.08198 0.83224 0.5304 0.0
C1589 C 0.09524 0.81145 0.5307 0.0
C1590 C 0.06291 0.83425 0.51444 0.0
C1591 C 0.04729 0.8551 0.51415 0.0
C1592 C 0.03703 0.86336 0.53517 0.0
C1593 C 0.02195 0.88267 0.53473 0.0
C1594 C 0.01684 0.89381 0.51334 0.0
C1595 C 0.02694 0.88576 0.49236 0.0
C1596 C 0.04208 0.86649 0.49271 0.0
C1597 C 0.05613 0.73623 0.47293 0.0
C1598 C 0.06134 0.73966 0.44889 0.0
C1599 C 0.05896 0.75454 0.48912 0.0
C1600 C 0.06668 0.7766 0.48143 0.0
C1601 C 0.07106 0.78031 0.45734 0.0
C1602 C 0.06859 0.76194 0.44121 0.0
C1603 C 0.07193 0.79534 0.49869 0.0
C1604 C 0.05825 0.81576 0.49868 0.0
C1605 C 0.09061 0.79311 0.51491 0.0
C1606 C 0.10628 0.77235 0.51491 0.0
C1607 C 0.11912 0.76632 0.49456 0.0
C1608 C 0.13358 0.74653 0.49456 0.0
C1609 C 0.13552 0.73275 0.51489 0.0
C1610 C 0.12309 0.73881 0.53528 0.0
C1611 C 0.10858 0.75856 0.53536 0.0
H1612 H 0.14667 0.7174 0.51482 0.0
H1613 H 0.00518 0.90877 0.51303 0.0
H1614 H 0.77953 0.04424 0.47354 0.0
H1615 H 0.74756 0.06243 0.496 0.0
H1616 H 0.73248 0.10765 0.43672 0.0
H1617 H 0.76445 0.08929 0.41427 0.0
H1618 H 0.73145 0.13139 0.47798 0.0
H1619 H 0.699 0.06032 0.44745 0.0
H1620 H 0.69703 0.01778 0.44011 0.0
H1621 H 0.69333 0.00489 0.51482 0.0
H1622 H 0.69563 0.04738 0.52262 0.0
H1623 H 0.61799 0.16921 0.51021 0.0
H1624 H 0.64844 0.14813 0.48872 0.0
H1625 H 0.66682 0.11057 0.55222 0.0
H1626 H 0.63647 0.13197 0.57412 0.0
H1627 H 0.66682 0.08265 0.51003 0.0
H1628 H 0.69314 0.15704 0.53816 0.0
H1629 H 0.69271 0.19976 0.54231 0.0
H1630 H 0.70918 0.20759 0.46876 0.0
H1631 H 0.70716 0.16485 0.46343 0.0
C1632 C 0.76954 0.05831 0.46554 0.0
C1633 C 0.77474 0.06599 0.44258 0.0
C1634 C 0.75122 0.06855 0.47825 0.0
C1635 C 0.73754 0.08629 0.46797 0.0
C1636 C 0.74289 0.09407 0.44502 0.0
C1637 C 0.7612 0.08376 0.4323 0.0
C1638 C 0.71748 0.09656 0.48104 0.0
C1639 C 0.71709 0.12083 0.48467 0.0
C1640 C 0.69912 0.08259 0.49024 0.0
C1641 C 0.69774 0.05703 0.48563 0.0
C1642 C 0.69797 0.04841 0.46232 0.0
C1643 C 0.69676 0.02431 0.45808 0.0
C1644 C 0.69512 0.00864 0.47699 0.0
C1645 C 0.69464 0.01705 0.50019 0.0
C1646 C 0.69588 0.04114 0.50453 0.0
C1647 C 0.6282 0.15621 0.51961 0.0
C1648 C 0.62493 0.15245 0.54399 0.0
C1649 C 0.64565 0.14421 0.50725 0.0
C1650 C 0.6601 0.12807 0.51896 0.0
C1651 C 0.6559 0.12307 0.54291 0.0
C1652 C 0.63857 0.1353 0.55539 0.0
C1653 C 0.6805 0.11763 0.50657 0.0
C1654 C 0.68107 0.09328 0.50324 0.0
C1655 C 0.69882 0.13166 0.49721 0.0
C1656 C 0.69963 0.15754 0.50033 0.0
C1657 C 0.69611 0.16778 0.52267 0.0
C1658 C 0.69641 0.19209 0.52525 0.0
C1659 C 0.70159 0.2064 0.50592 0.0
C1660 C 0.70549 0.19646 0.48375 0.0
C1661 C 0.70439 0.17217 0.48087 0.0
H1662 H 0.70254 0.22518 0.50802 0.0
H1663 H 0.69416 0.98998 0.47367 0.0
H1664 H 0.81206 0.02388 0.34312 0.0
H1665 H 0.78696 0.01504 0.30876 0.0
H1666 H 0.76653 0.08778 0.30526 0.0
H1667 H 0.79028 0.09632 0.33953 0.0
H1668 H 0.72984 0.06314 0.29977 0.0
H1669 H 0.80921 0.05939 0.26815 0.0
H1670 H 0.84909 0.04335 0.26356 0.0
H1671 H 0.82047 0.97636 0.2446 0.0
H1672 H 0.78039 0.99191 0.24948 0.0
H1673 H 0.71042 0.1 0.18317 0.0
H1674 H 0.72998 0.08936 0.21989 0.0
H1675 H 0.70689 0.01793 0.2119 0.0
H1676 H 0.68616 0.0287 0.17524 0.0
H1677 H 0.76028 0.02959 0.22499 0.0
H1678 H 0.68012 0.04029 0.24775 0.0
H1679 H 0.642 0.06032 0.24977 0.0
H1680 H 0.67447 0.11964 0.283 0.0
H1681 H 0.7129 0.10003 0.28095 0.0
C1682 C 0.80203 0.03787 0.33506 0.0
C1683 C 0.80306 0.06075 0.34435 0.0
C1684 C 0.7878 0.03285 0.3153 0.0
C1685 C 0.77472 0.05074 0.30424 0.0
C1686 C 0.77611 0.07353 0.31346 0.0
C1687 C 0.78994 0.07843 0.33314 0.0
C1688 C 0.75947 0.04657 0.28308 0.0
C1689 C 0.73658 0.05574 0.28346 0.0
C1690 C 0.76775 0.03616 0.26187 0.0
C1691 C 0.79182 0.02669 0.25961 0.0
C1692 C 0.81142 0.04116 0.26333 0.0
C1693 C 0.83406 0.03217 0.26061 0.0
C1694 C 0.83731 0.00882 0.25391 0.0
C1695 C 0.81793 0.99441 0.2499 0.0
C1696 C 0.79525 0.00329 0.25268 0.0
C1697 C 0.70942 0.08197 0.18906 0.0
C1698 C 0.69682 0.06515 0.17602 0.0
C1699 C 0.72069 0.07593 0.21011 0.0
C1700 C 0.71994 0.05288 0.21861 0.0
C1701 C 0.70777 0.03582 0.20557 0.0
C1702 C 0.69598 0.04199 0.18461 0.0
C1703 C 0.73143 0.0474 0.24158 0.0
C1704 C 0.75344 0.03639 0.24152 0.0
C1705 C 0.72264 0.05668 0.26299 0.0
C1706 C 0.69948 0.0686 0.26417 0.0
C1707 C 0.67921 0.05762 0.2554 0.0
C1708 C 0.65751 0.06891 0.25656 0.0
C1709 C 0.6558 0.09125 0.26651 0.0
C1710 C 0.67581 0.10232 0.27532 0.0
C1711 C 0.69755 0.09108 0.2742 0.0
H1712 H 0.63898 0.09997 0.26739 0.0
H1713 H 0.85485 0.00191 0.25173 0.0
H1714 H 0.4734 0.68797 0.16744 0.0
H1715 H 0.48475 0.71143 0.20215 0.0
H1716 H 0.41796 0.74675 0.19984 0.0
H1717 H 0.40672 0.72378 0.16546 0.0
H1718 H 0.45302 0.77761 0.20582 0.0
H1719 H 0.4311 0.70123 0.23845 0.0
H1720 H 0.43561 0.6587 0.24477 0.0
H1721 H 0.50526 0.6695 0.27136 0.0
H1722 H 0.50131 0.71208 0.26478 0.0
H1723 H 0.40585 0.80601 0.31532 0.0
H1724 H 0.41805 0.78641 0.27936 0.0
H1725 H 0.49031 0.79173 0.30076 0.0
H1726 H 0.47813 0.8129 0.33688 0.0
H1727 H 0.46754 0.74226 0.28458 0.0
H1728 H 0.48653 0.81908 0.2592 0.0
H1729 H 0.48175 0.8617 0.25394 0.0
H1730 H 0.41857 0.85026 0.21436 0.0
H1731 H 0.42275 0.80758 0.2197 0.0
C1732 C 0.46119 0.70077 0.17438 0.0
C1733 C 0.43918 0.70403 0.16359 0.0
C1734 C 0.46767 0.71412 0.19426 0.0
C1735 C 0.45221 0.73091 0.2037 0.0
C1736 C 0.43028 0.73405 0.19289 0.0
C1737 C 0.4238 0.72074 0.17324 0.0
C1738 C 0.45823 0.74536 0.22488 0.0
C1739 C 0.45633 0.76985 0.22301 0.0
C1740 C 0.46363 0.73542 0.24722 0.0
C1741 C 0.46606 0.70979 0.25071 0.0
C1742 C 0.44749 0.69451 0.24533 0.0
C1743 C 0.44992 0.6704 0.24902 0.0
C1744 C 0.47075 0.66139 0.25833 0.0
C1745 C 0.48918 0.67648 0.26403 0.0
C1746 C 0.48686 0.7006 0.2603 0.0
C1747 C 0.42442 0.80325 0.31254 0.0
C1748 C 0.441 0.81063 0.32942 0.0
C1749 C 0.43134 0.792 0.29183 0.0
C1750 C 0.45503 0.78746 0.2874 0.0
C1751 C 0.47188 0.79497 0.30392 0.0
C1752 C 0.46492 0.80691 0.3246 0.0
C1753 C 0.46121 0.77429 0.26556 0.0
C1754 C 0.46515 0.75006 0.26725 0.0
C1755 C 0.45777 0.78441 0.243 0.0
C1756 C 0.45488 0.8101 0.24003 0.0
C1757 C 0.47147 0.82565 0.24961 0.0
C1758 C 0.4689 0.84983 0.24655 0.0
C1759 C 0.44984 0.85868 0.23387 0.0
C1760 C 0.43332 0.84337 0.2242 0.0
C1761 C 0.4358 0.81918 0.22721 0.0
H1762 H 0.4479 0.87741 0.2315 0.0
H1763 H 0.47258 0.64272 0.26123 0.0
H1764 H 0.76917 0.41892 0.16045 0.0
H1765 H 0.75001 0.42817 0.19771 0.0
H1766 H 0.80466 0.47777 0.21404 0.0
H1767 H 0.82379 0.46891 0.17605 0.0
H1768 H 0.76956 0.41796 0.23866 0.0
H1769 H 0.7899 0.51226 0.24431 0.0
H1770 H 0.78722 0.54975 0.22258 0.0
H1771 H 0.72211 0.52762 0.19169 0.0
H1772 H 0.72499 0.48981 0.2126 0.0
H1773 H 0.74194 0.42887 0.35701 0.0
H1774 H 0.76359 0.43603 0.32049 0.0
H1775 H 0.70564 0.47674 0.29364 0.0
H1776 H 0.6847 0.47106 0.33118 0.0
H1777 H 0.74325 0.49292 0.27428 0.0
H1778 H 0.71194 0.41561 0.28292 0.0
H1779 H 0.70526 0.3775 0.30237 0.0
H1780 H 0.77898 0.36266 0.2995 0.0
H1781 H 0.78613 0.40085 0.2803 0.0
C1782 C 0.77694 0.43217 0.1717 0.0
C1783 C 0.79822 0.44293 0.16543 0.0
C1784 C 0.7659 0.43748 0.19305 0.0
C1785 C 0.77588 0.45356 0.20888 0.0
C1786 C 0.7964 0.4655 0.20207 0.0
C1787 C 0.80741 0.46035 0.18039 0.0
C1788 C 0.76632 0.45521 0.23341 0.0
C1789 C 0.76404 0.43442 0.24649 0.0
C1790 C 0.75854 0.47643 0.24359 0.0
C1791 C 0.75777 0.49833 0.22982 0.0
C1792 C 0.77521 0.5154 0.23266 0.0
C1793 C 0.7737 0.53663 0.22041 0.0
C1794 C 0.75459 0.54103 0.20558 0.0
C1795 C 0.73708 0.52412 0.20286 0.0
C1796 C 0.73873 0.50274 0.21477 0.0
C1797 C 0.73411 0.43988 0.34355 0.0
C1798 C 0.71157 0.44924 0.34678 0.0
C1799 C 0.74642 0.44385 0.32257 0.0
C1800 C 0.73596 0.45618 0.30381 0.0
C1801 C 0.71409 0.46698 0.30768 0.0
C1802 C 0.70208 0.46371 0.32912 0.0
C1803 C 0.74667 0.45563 0.27965 0.0
C1804 C 0.74915 0.47651 0.26664 0.0
C1805 C 0.75383 0.43423 0.26907 0.0
C1806 C 0.74959 0.41117 0.28041 0.0
C1807 C 0.72673 0.40427 0.28656 0.0
C1808 C 0.72286 0.38266 0.29753 0.0
C1809 C 0.74169 0.3677 0.30223 0.0
C1810 C 0.76442 0.37429 0.29589 0.0
C1811 C 0.76839 0.3959 0.28496 0.0
H1812 H 0.73866 0.35098 0.31073 0.0
H1813 H 0.7533 0.55756 0.19629 0.0
H1814 H 0.10173 0.79583 0.17032 0.0
H1815 H 0.09308 0.77133 0.20418 0.0
H1816 H 0.01907 0.78253 0.19358 0.0
H1817 H 0.02789 0.80912 0.1605 0.0
H1818 H 0.02764 0.78116 0.23862 0.0
H1819 H 0.05087 0.73101 0.17471 0.0
H1820 H 0.07692 0.71757 0.14249 0.0
H1821 H 0.13173 0.70431 0.19257 0.0
H1822 H 0.10649 0.71834 0.22492 0.0
H1823 H 0.01349 0.69539 0.32939 0.0
H1824 H 0.01029 0.71295 0.29002 0.0
H1825 H 0.08566 0.71392 0.28432 0.0
H1826 H 0.089 0.69577 0.323 0.0
H1827 H 0.06831 0.70447 0.24335 0.0
H1828 H 0.05099 0.7631 0.30368 0.0
H1829 H 0.02842 0.77958 0.337 0.0
H1830 H 0.96566 0.77768 0.29517 0.0
H1831 H 0.98784 0.76096 0.26167 0.0
C1832 C 0.08354 0.79326 0.17511 0.0
C1833 C 0.06541 0.80377 0.16198 0.0
C1834 C 0.0786 0.77894 0.19446 0.0
C1835 C 0.05536 0.77401 0.20087 0.0
C1836 C 0.03716 0.78553 0.18869 0.0
C1837 C 0.04218 0.80055 0.16961 0.0
C1838 C 0.05048 0.75707 0.22046 0.0
C1839 C 0.03616 0.76418 0.23936 0.0
C1840 C 0.06176 0.7349 0.22175 0.0
C1841 C 0.07671 0.72577 0.20226 0.0
C1842 C 0.06848 0.72526 0.17883 0.0
C1843 C 0.0831 0.71759 0.16055 0.0
C1844 C 0.10585 0.71002 0.16551 0.0
C1845 C 0.11408 0.71013 0.18875 0.0
C1846 C 0.09963 0.71797 0.20707 0.0
C1847 C 0.02939 0.69889 0.31957 0.0
C1848 C 0.05153 0.6943 0.32963 0.0
C1849 C 0.02752 0.70915 0.29709 0.0
C1850 C 0.04774 0.71536 0.28433 0.0
C1851 C 0.06975 0.70946 0.29375 0.0
C1852 C 0.07163 0.69902 0.31602 0.0
C1853 C 0.0465 0.7291 0.26187 0.0
C1854 C 0.05946 0.72127 0.24233 0.0
C1855 C 0.03433 0.75071 0.26014 0.0
C1856 C 0.02101 0.76061 0.28028 0.0
C1857 C 0.03235 0.76606 0.30166 0.0
C1858 C 0.01964 0.77546 0.32055 0.0
C1859 C 0.99564 0.77965 0.31818 0.0
C1860 C 0.98426 0.77441 0.29696 0.0
C1861 C 0.99688 0.76499 0.27801 0.0
H1862 H 0.98587 0.78708 0.33274 0.0
H1863 H 0.11712 0.7041 0.15132 0.0
H1864 H 0.23174 0.91549 0.66006 0.0
H1865 H 0.25494 0.923 0.69539 0.0
H1866 H 0.20797 0.97896 0.71495 0.0
H1867 H 0.18507 0.97211 0.67867 0.0
H1868 H 0.2524 0.98892 0.72929 0.0
H1869 H 0.20002 0.92403 0.73752 0.0
H1870 H 0.18145 0.8867 0.72605 0.0
H1871 H 0.24813 0.85198 0.72967 0.0
H1872 H 0.26715 0.8892 0.74085 0.0
H1873 H 0.28019 0.92523 0.85172 0.0
H1874 H 0.25604 0.93328 0.81715 0.0
H1875 H 0.31315 0.97208 0.78585 0.0
H1876 H 0.33654 0.96578 0.82174 0.0
H1877 H 0.26089 0.91713 0.77795 0.0
H1878 H 0.29541 0.00375 0.73761 0.0
H1879 H 0.31054 0.04215 0.75049 0.0
H1880 H 0.27301 0.03587 0.81589 0.0
H1881 H 0.2574 0.99748 0.80338 0.0
C1882 C 0.22648 0.92964 0.67167 0.0
C1883 C 0.2063 0.94293 0.66681 0.0
C1884 C 0.2398 0.93392 0.69192 0.0
C1885 C 0.23286 0.95108 0.70828 0.0
C1886 C 0.21359 0.96548 0.70272 0.0
C1887 C 0.20047 0.96151 0.68205 0.0
C1888 C 0.24445 0.95217 0.73196 0.0
C1889 C 0.25421 0.9733 0.74006 0.0
C1890 C 0.24643 0.93192 0.74631 0.0
C1891 C 0.23502 0.90943 0.73985 0.0
C1892 C 0.21073 0.90846 0.73575 0.0
C1893 C 0.20013 0.88732 0.72931 0.0
C1894 C 0.21361 0.86699 0.72709 0.0
C1895 C 0.23772 0.86775 0.73138 0.0
C1896 C 0.24841 0.88885 0.73779 0.0
C1897 C 0.28733 0.93605 0.83771 0.0
C1898 C 0.31018 0.94496 0.83941 0.0
C1899 C 0.27356 0.94055 0.81782 0.0
C1900 C 0.2826 0.9532 0.79851 0.0
C1901 C 0.30534 0.96271 0.80049 0.0
C1902 C 0.31884 0.95898 0.82097 0.0
C1903 C 0.26908 0.95399 0.77574 0.0
C1904 C 0.259 0.933 0.76758 0.0
C1905 C 0.26632 0.97455 0.76183 0.0
C1906 C 0.27543 0.99763 0.76961 0.0
C1907 C 0.29032 0.01058 0.75472 0.0
C1908 C 0.29899 0.03233 0.76198 0.0
C1909 C 0.29279 0.04138 0.78406 0.0
C1910 C 0.27785 0.02873 0.79888 0.0
C1911 C 0.26912 0.00696 0.79173 0.0
H1912 H 0.29952 0.05822 0.78965 0.0
H1913 H 0.20538 0.85065 0.72209 0.0
H1914 H 0.59159 0.26829 0.84972 0.0
H1915 H 0.58175 0.24842 0.81282 0.0
H1916 H 0.53577 0.30539 0.79384 0.0
H1917 H 0.54521 0.32518 0.83134 0.0
H1918 H 0.51884 0.26283 0.77703 0.0
H1919 H 0.5911 0.30575 0.7742 0.0
H1920 H 0.63034 0.31751 0.78807 0.0
H1921 H 0.65466 0.24668 0.78051 0.0
H1922 H 0.61544 0.23443 0.7669 0.0
H1923 H 0.58031 0.24085 0.6532 0.0
H1924 H 0.57375 0.26139 0.69028 0.0
H1925 H 0.53093 0.20408 0.71501 0.0
H1926 H 0.5366 0.18389 0.67692 0.0
H1927 H 0.59015 0.24822 0.72916 0.0
H1928 H 0.49821 0.22346 0.76509 0.0
H1929 H 0.45826 0.21558 0.75057 0.0
H1930 H 0.47199 0.25621 0.68831 0.0
H1931 H 0.51196 0.26463 0.70247 0.0
C1932 C 0.57899 0.27639 0.83794 0.0
C1933 C 0.56931 0.2984 0.84336 0.0
C1934 C 0.57338 0.265 0.81679 0.0
C1935 C 0.55838 0.27558 0.80022 0.0
C1936 C 0.54745 0.29687 0.80626 0.0
C1937 C 0.55286 0.30819 0.82769 0.0
C1938 C 0.55642 0.26565 0.77581 0.0
C1939 C 0.53438 0.2596 0.76649 0.0
C1940 C 0.57662 0.2618 0.7618 0.0
C1941 C 0.60029 0.26914 0.76974 0.0
C1942 C 0.60478 0.29266 0.77564 0.0
C1943 C 0.62702 0.29942 0.78344 0.0
C1944 C 0.64497 0.28285 0.78522 0.0
C1945 C 0.64073 0.25949 0.77914 0.0
C1946 C 0.61851 0.25264 0.77137 0.0
C1947 C 0.569 0.23284 0.66629 0.0
C1948 C 0.55908 0.21068 0.66218 0.0
C1949 C 0.56531 0.24459 0.68761 0.0
C1950 C 0.55209 0.2343 0.70582 0.0
C1951 C 0.54105 0.21263 0.70131 0.0
C1952 C 0.54431 0.20103 0.67953 0.0
C1953 C 0.55248 0.24518 0.72999 0.0
C1954 C 0.57442 0.25137 0.73945 0.0
C1955 C 0.53211 0.24953 0.74373 0.0
C1956 C 0.50825 0.24438 0.73473 0.0
C1957 C 0.49274 0.2307 0.74827 0.0
C1958 C 0.47008 0.22614 0.74008 0.0
C1959 C 0.46268 0.23524 0.71841 0.0
C1960 C 0.4779 0.24895 0.7049 0.0
C1961 C 0.50057 0.25362 0.713 0.0
H1962 H 0.4451 0.2318 0.71213 0.0
H1963 H 0.66217 0.28811 0.79127 0.0
H1964 H 0.32619 0.54106 0.66839 0.0
H1965 H 0.31237 0.53141 0.7086 0.0
H1966 H 0.24712 0.56671 0.69427 0.0
H1967 H 0.26118 0.57729 0.65486 0.0
H1968 H 0.29504 0.56914 0.74376 0.0
H1969 H 0.20694 0.52159 0.71781 0.0
H1970 H 0.19426 0.48943 0.69181 0.0
H1971 H 0.26523 0.46501 0.68636 0.0
H1972 H 0.27831 0.49676 0.7127 0.0
H1973 H 0.2102 0.59854 0.82417 0.0
H1974 H 0.23457 0.58942 0.79055 0.0
H1975 H 0.22483 0.51549 0.80324 0.0
H1976 H 0.19849 0.52477 0.83645 0.0
H1977 H 0.22431 0.52098 0.75935 0.0
H1978 H 0.27927 0.54521 0.81478 0.0
H1979 H 0.2973 0.56866 0.84652 0.0
H1980 H 0.30261 0.62766 0.79974 0.0
H1981 H 0.28428 0.60474 0.76776 0.0
C1982 C 0.30879 0.54643 0.67377 0.0
C1983 C 0.29476 0.55995 0.65851 0.0
C1984 C 0.30097 0.54103 0.69675 0.0
C1985 C 0.2787 0.54836 0.70443 0.0
C1986 C 0.26433 0.56084 0.68874 0.0
C1987 C 0.27238 0.56687 0.6662 0.0
C1988 C 0.27048 0.54455 0.72915 0.0
C1989 C 0.27971 0.55848 0.74732 0.0
C1990 C 0.2513 0.52974 0.73415 0.0
C1991 C 0.24361 0.5117 0.71706 0.0
C1992 C 0.21985 0.5094 0.71103 0.0
C1993 C 0.21259 0.49115 0.69633 0.0
C1994 C 0.22895 0.4751 0.68762 0.0
C1995 C 0.25262 0.47746 0.6932 0.0
C1996 C 0.25997 0.49563 0.70793 0.0
C1997 C 0.21317 0.58024 0.82004 0.0
C1998 C 0.20275 0.56233 0.83355 0.0
C1999 C 0.22749 0.57504 0.80079 0.0
C2000 C 0.23246 0.55174 0.79466 0.0
C2001 C 0.22168 0.53367 0.80774 0.0
C2002 C 0.20677 0.53894 0.82688 0.0
C2003 C 0.2478 0.54687 0.77371 0.0
C2004 C 0.23986 0.53141 0.75614 0.0
C2005 C 0.26901 0.55933 0.76977 0.0
C2006 C 0.28031 0.57323 0.78884 0.0
C2007 C 0.28418 0.56322 0.81126 0.0
C2008 C 0.29445 0.57642 0.82931 0.0
C2009 C 0.30108 0.59962 0.82515 0.0
C2010 C 0.29749 0.60967 0.80292 0.0
C2011 C 0.28719 0.59656 0.7848 0.0
H2012 H 0.30901 0.60981 0.83916 0.0
H2013 H 0.22336 0.46079 0.67655 0.0
H2014 H 0.95124 0.31828 0.68624 0.0
H2015 H 0.95929 0.29943 0.72432 0.0
H2016 H 0.93213 0.23414 0.69694 0.0
H2017 H 0.92157 0.25379 0.66024 0.0
H2018 H 0.91466 0.23816 0.73504 0.0
H2019 H 0.99662 0.24866 0.7134 0.0
H2020 H 0.03092 0.27197 0.70077 0.0
H2021 H 0.02286 0.31685 0.76103 0.0
H2022 H 0.98873 0.29376 0.7742 0.0
H2023 H 0.97349 0.18067 0.8425 0.0
H2024 H 0.97946 0.20013 0.80401 0.0
H2025 H 0.91997 0.24472 0.81764 0.0
H2026 H 0.9137 0.22535 0.85538 0.0
H2027 H 0.9845 0.24797 0.7863 0.0
H2028 H 0.88481 0.24263 0.77086 0.0
H2029 H 0.85118 0.21845 0.78335 0.0
H2030 H 0.89689 0.15961 0.7941 0.0
H2031 H 0.93072 0.18333 0.78134 0.0
C2032 C 0.94722 0.29985 0.68844 0.0
C2033 C 0.93571 0.28749 0.67042 0.0
C2034 C 0.95211 0.28893 0.71015 0.0
C2035 C 0.94663 0.26509 0.71378 0.0
C2036 C 0.93632 0.25256 0.69503 0.0
C2037 C 0.93035 0.26376 0.67393 0.0
C2038 C 0.94912 0.25363 0.73754 0.0
C2039 C 0.9302 0.24018 0.74589 0.0
C2040 C 0.96917 0.25614 0.75226 0.0
C2041 C 0.99006 0.26958 0.74467 0.0
C2042 C 0.00218 0.26351 0.72393 0.0
C2043 C 0.0216 0.27663 0.71671 0.0
C2044 C 0.02901 0.29586 0.73004 0.0
C2045 C 0.01709 0.30195 0.75071 0.0
C2046 C 0.99782 0.28877 0.75816 0.0
C2047 C 0.96195 0.19486 0.83736 0.0
C2048 C 0.94281 0.20109 0.85172 0.0
C2049 C 0.96544 0.20604 0.81547 0.0
C2050 C 0.9499 0.22362 0.8078 0.0
C2051 C 0.93196 0.23098 0.82301 0.0
C2052 C 0.92833 0.21975 0.84457 0.0
C2053 C 0.95027 0.23253 0.78307 0.0
C2054 C 0.96941 0.24565 0.77487 0.0
C2055 C 0.93065 0.22939 0.76813 0.0
C2056 C 0.91031 0.21482 0.77532 0.0
C2057 C 0.88766 0.22449 0.77576 0.0
C2058 C 0.86856 0.21088 0.78291 0.0
C2059 C 0.87191 0.18753 0.78957 0.0
C2060 C 0.89434 0.17772 0.789 0.0
C2061 C 0.91348 0.19124 0.78183 0.0
H2062 H 0.85711 0.17703 0.79513 0.0
H2063 H 0.044 0.30601 0.72438 0.0
H2064 H 0.46194 0.00554 0.90799 0.0
H2065 H 0.49187 0.99917 0.9384 0.0
H2066 H 0.4406 0.01299 0.99265 0.0
H2067 H 0.41054 0.01915 0.96215 0.0
H2068 H 0.48084 0.04111 0.99595 0.0
H2069 H 0.46215 0.95923 0.9882 0.0
H2070 H 0.45541 0.92276 0.9658 0.0
H2071 H 0.52598 0.92504 0.93963 0.0
H2072 H 0.5331 0.96165 0.96172 0.0
H2073 H 0.54632 0.01152 0.09791 0.0
H2074 H 0.51852 0.01697 0.06559 0.0
H2075 H 0.57136 0.99546 0.01553 0.0
H2076 H 0.59924 0.98959 0.04817 0.0
H2077 H 0.53149 0.97155 0.00862 0.0
H2078 H 0.55106 0.05235 0.01636 0.0
H2079 H 0.55831 0.08955 0.03731 0.0
H2080 H 0.4871 0.09034 0.06179 0.0
H2081 H 0.47948 0.05301 0.04119 0.0
C2082 C 0.45692 0.0064 0.92644 0.0
C2083 C 0.43391 0.01257 0.93277 0.0
C2084 C 0.47403 0.00288 0.9438 0.0
C2085 C 0.4685 0.00569 0.96782 0.0
C2086 C 0.44525 0.01075 0.97422 0.0
C2087 C 0.42803 0.01398 0.95684 0.0
C2088 C 0.48739 0.00529 0.98597 0.0
C2089 C 0.49169 0.02578 0.999 0.0
C2090 C 0.50213 0.98562 0.98926 0.0
C2091 C 0.49807 0.96333 0.9764 0.0
C2092 C 0.47619 0.95204 0.97755 0.0
C2093 C 0.4723 0.93133 0.96493 0.0
C2094 C 0.4902 0.92171 0.95116 0.0
C2095 C 0.51211 0.93259 0.95022 0.0
C2096 C 0.51609 0.95328 0.96283 0.0
C2097 C 0.5522 0.00861 0.07994 0.0
C2098 C 0.57497 1.00028 0.07552 0.0
C2099 C 0.53629 0.0117 0.06144 0.0
C2100 C 0.54278 0.00667 0.03803 0.0
C2101 C 0.56591 0.99944 0.03343 0.0
C2102 C 0.58193 0.99639 0.05202 0.0
C2103 C 0.52483 0.00734 0.01887 0.0
C2104 C 0.52071 0.98692 0.00558 0.0
C2105 C 0.51034 0.02717 0.01518 0.0
C2106 C 0.51477 0.04976 0.0274 0.0
C2107 C 0.53699 0.06037 0.02635 0.0
C2108 C 0.54116 0.08148 0.03814 0.0
C2109 C 0.52321 0.09223 0.05097 0.0
C2110 C 0.501 0.08196 0.05189 0.0
C2111 C 0.49674 0.06085 0.04012 0.0
H2112 H 0.52648 0.10855 0.06014 0.0
H2113 H 0.48711 0.90579 0.94126 0.0
H2114 H 0.51963 0.45544 0.91371 0.0
H2115 H 0.52412 0.4883 0.94128 0.0
H2116 H 0.49492 0.4461 0.99727 0.0
H2117 H 0.49067 0.41313 0.96964 0.0
H2118 H 0.47234 0.48879 0.99268 0.0
H2119 H 0.55088 0.46105 0.99995 0.0
H2120 H 0.58955 0.44755 0.98607 0.0
H2121 H 0.60135 0.51405 0.9526 0.0
H2122 H 0.56257 0.52784 0.96597 0.0
H2123 H 0.49779 0.56765 0.08785 0.0
H2124 H 0.49299 0.53479 0.06038 0.0
H2125 H 0.52246 0.57659 0.00423 0.0
H2126 H 0.52726 0.60948 0.03184 0.0
H2127 H 0.54477 0.53401 0.00913 0.0
H2128 H 0.46551 0.56128 1.00151 0.0
H2129 H 0.42873 0.57585 0.01909 0.0
H2130 H 0.41926 0.51028 0.05506 0.0
H2131 H 0.45615 0.49539 0.03789 0.0
C2132 C 0.51511 0.45293 0.93214 0.0
C2133 C 0.50538 0.43163 0.93975 0.0
C2134 C 0.51744 0.47176 0.94784 0.0
C2135 C 0.50979 0.46972 0.97137 0.0
C2136 C 0.50093 0.4481 0.97922 0.0
C2137 C 0.49885 0.42917 0.96356 0.0
C2138 C 0.5097 0.49059 0.9872 0.0
C2139 C 0.48824 0.49848 0.99651 0.0
C2140 C 0.53032 0.5036 0.99183 0.0
C2141 C 0.55369 0.4954 0.98376 0.0
C2142 C 0.56162 0.47273 0.98944 0.0
C2143 C 0.58358 0.46503 0.9817 0.0
C2144 C 0.59787 0.47991 0.96841 0.0
C2145 C 0.59024 0.50253 0.96287 0.0
C2146 C 0.56828 0.51031 0.97054 0.0
C2147 C 0.50221 0.57011 0.06938 0.0
C2148 C 0.51225 0.59125 0.06174 0.0
C2149 C 0.49973 0.55127 0.05375 0.0
C2150 C 0.5074 0.55318 0.0302 0.0
C2151 C 0.51642 0.5747 0.02228 0.0
C2152 C 0.51878 0.5936 0.03792 0.0
C2153 C 0.50744 0.53226 0.01443 0.0
C2154 C 0.52888 0.52435 0.00517 0.0
C2155 C 0.48684 0.51923 0.00988 0.0
C2156 C 0.4637 0.52731 0.01861 0.0
C2157 C 0.45556 0.54996 0.01315 0.0
C2158 C 0.43474 0.55829 0.02308 0.0
C2159 C 0.42185 0.5441 0.03841 0.0
C2160 C 0.4294 0.52131 0.04333 0.0
C2161 C 0.45022 0.51288 0.03344 0.0
H2162 H 0.40598 0.55076 0.04643 0.0
H2163 H 0.61486 0.47392 0.96244 0.0
H2164 H 0.05614 0.50409 0.90681 0.0
H2165 H 0.02517 0.509 0.93634 0.0
H2166 H 0.07315 0.48758 0.99116 0.0
H2167 H 0.10427 0.48273 0.9615 0.0
H2168 H 0.03196 0.46226 0.99181 0.0
H2169 H 0.05406 0.54314 0.98942 0.0
H2170 H 0.06301 0.5812 0.97088 0.0
H2171 H 0.99332 0.58447 0.94243 0.0
H2172 H 0.98404 0.54624 0.96054 0.0
H2173 H 0.96055 0.48994 0.09135 0.0
H2174 H 0.99061 0.48492 0.06096 0.0
H2175 H 0.94192 0.50894 0.00788 0.0
H2176 H 0.91173 0.51406 0.03848 0.0
H2177 H 0.98299 0.53275 0.00572 0.0
H2178 H 0.96055 0.4523 0.00826 0.0
H2179 H 0.95134 0.41421 0.0266 0.0
H2180 H 0.02127 0.4099 0.05429 0.0
H2181 H 0.03082 0.44815 0.03639 0.0
C2182 C 0.06025 0.50117 0.92527 0.0
C2183 C 0.08268 0.49332 0.93192 0.0
C2184 C 0.04252 0.50388 0.94214 0.0
C2185 C 0.04677 0.49864 0.96602 0.0
C2186 C 0.06945 0.49173 0.97285 0.0
C2187 C 0.08731 0.48925 0.95597 0.0
C2188 C 0.0271 0.49875 0.9834 0.0
C2189 C 0.02149 0.47779 0.99515 0.0
C2190 C 0.01288 0.51875 0.98715 0.0
C2191 C 0.01844 0.5417 0.97614 0.0
C2192 C 0.04071 0.55186 0.97902 0.0
C2193 C 0.04583 0.57349 0.96863 0.0
C2194 C 0.02877 0.58521 0.95543 0.0
C2195 C 0.00653 0.57535 0.95263 0.0
C2196 C 1.00133 0.55371 0.96298 0.0
C2197 C 0.95606 0.49342 0.07307 0.0
C2198 C 0.93373 0.50212 0.06722 0.0
C2199 C 0.97327 0.49063 0.05571 0.0
C2200 C 0.9686 0.49652 0.03206 0.0
C2201 C 0.94596 0.50426 0.02599 0.0
C2202 C 0.92862 0.50689 0.0434 0.0
C2203 C 0.98788 0.49628 0.01422 0.0
C2204 C 0.99342 0.51721 1.00237 0.0
C2205 C 0.002 0.47622 0.01032 0.0
C2206 C 0.99633 0.45322 0.02116 0.0
C2207 C 0.97391 0.44334 0.01844 0.0
C2208 C 0.96864 0.42169 0.02872 0.0
C2209 C 0.98569 0.40967 0.04165 0.0
C2210 C 0.00807 0.41925 0.04429 0.0
C2211 C 0.01343 0.44091 0.03406 0.0
H2212 H 0.98158 0.39291 0.04959 0.0
H2213 H 0.03276 0.60197 0.94741 0.0
H2214 H 0.00201 0.04861 0.91408 0.0
H2215 H 0.99642 0.01746 0.94323 0.0
H2216 H 0.01705 0.06485 0.99887 0.0
H2217 H 0.02274 0.09615 0.96952 0.0
H2218 H 0.04193 0.02418 1.00041 0.0
H2219 H 0.96116 0.04514 0.99576 0.0
H2220 H 0.92354 0.05429 0.97642 0.0
H2221 H 0.92171 0.98539 0.94599 0.0
H2222 H 0.95952 0.97592 0.96488 0.0
H2223 H 0.00919 0.94781 0.09574 0.0
H2224 H 0.01664 0.97924 0.06724 0.0
H2225 H 0.99776 0.93283 0.01015 0.0
H2226 H 0.99042 0.90129 0.03876 0.0
H2227 H 0.97206 0.9734 0.0099 0.0
H2228 H 0.05306 0.95262 0.01467 0.0
H2229 H 0.09053 0.94361 0.03437 0.0
H2230 H 0.09164 0.0124 0.0651 0.0
H2231 H 0.05398 0.02173 0.04584 0.0
C2232 C 0.0046 0.05257 0.93263 0.0
C2233 C 0.01255 0.07483 0.93961 0.0
C2234 C 1.00149 0.03474 0.94929 0.0
C2235 C 0.00633 0.03875 0.97329 0.0
C2236 C 0.01322 0.06133 0.98046 0.0
C2237 C 0.01617 0.07928 0.96376 0.0
C2238 C 0.00589 0.01888 0.99041 0.0
C2239 C 0.02651 0.01333 1.0028 0.0
C2240 C 0.98602 0.00426 0.99303 0.0
C2241 C 0.9633 0.0099 0.98157 0.0
C2242 C 0.95285 0.032 0.98477 0.0
C2243 C 0.93147 0.03724 0.97393 0.0
C2244 C 0.92027 0.02045 0.95994 0.0
C2245 C 0.93042 0.99838 0.95681 0.0
C2246 C 0.95182 0.99306 0.9676 0.0
C2247 C 0.00762 0.94407 0.07702 0.0
C2248 C 0.99959 0.92206 0.06938 0.0
C2249 C 0.01172 0.96208 0.06075 0.0
C2250 C 0.00767 0.95846 0.03652 0.0
C2251 C 1.00099 0.93604 0.02875 0.0
C2252 C 0.99711 0.91793 0.04504 0.0
C2253 C 0.00812 0.97864 0.0198 0.0
C2254 C 0.98747 0.98427 0.0075 0.0
C2255 C 0.02793 0.99335 0.01734 0.0
C2256 C 0.05056 0.98779 0.02899 0.0
C2257 C 0.06118 0.96576 0.02581 0.0
C2258 C 0.08248 0.96061 0.03685 0.0
C2259 C 0.09343 0.9774 0.05103 0.0
C2260 C 0.08312 0.9994 0.05414 0.0
C2261 C 0.06181 0.00464 0.04314 0.0
H2262 H 0.10993 0.97338 0.05956 0.0
H2263 H 0.90371 0.02454 0.95156 0.0
H2264 H 0.42889 0.52724 0.57169 0.0
H2265 H 0.46296 0.53316 0.54582 0.0
H2266 H 0.45516 0.46278 0.51897 0.0
H2267 H 0.42157 0.45681 0.54519 0.0
H2268 H 0.49907 0.46974 0.52994 0.0
H2269 H 0.44188 0.51301 0.48526 0.0
H2270 H 0.41105 0.54263 0.4788 0.0
H2271 H 0.45881 0.59724 0.4989 0.0
H2272 H 0.48985 0.5679 0.50578 0.0
H2273 H 0.57942 0.48357 0.43227 0.0
H2274 H 0.54643 0.47565 0.45909 0.0
H2275 H 0.55454 0.54437 0.48984 0.0
H2276 H 0.58715 0.5523 0.46294 0.0
H2277 H 0.51041 0.53752 0.47626 0.0
H2278 H 0.56654 0.49511 0.52301 0.0
H2279 H 0.59848 0.46647 0.52845 0.0
H2280 H 0.55387 0.41137 0.50341 0.0
H2281 H 0.52145 0.43965 0.49794 0.0
C2282 C 0.43408 0.51338 0.55969 0.0
C2283 C 0.42241 0.49175 0.56004 0.0
C2284 C 0.45362 0.51666 0.54501 0.0
C2285 C 0.46166 0.49844 0.53027 0.0
C2286 C 0.44942 0.4771 0.53013 0.0
C2287 C 0.43005 0.47379 0.54488 0.0
C2288 C 0.48335 0.50118 0.51576 0.0
C2289 C 0.50136 0.48441 0.51796 0.0
C2290 C 0.48675 0.52055 0.50047 0.0
C2291 C 0.46812 0.53822 0.49625 0.0
C2292 C 0.44576 0.53131 0.48847 0.0
C2293 C 0.42826 0.54806 0.4847 0.0
C2294 C 0.43295 0.57179 0.48849 0.0
C2295 C 0.45519 0.57884 0.496 0.0
C2296 C 0.47275 0.56217 0.49981 0.0
C2297 C 0.57458 0.49659 0.44532 0.0
C2298 C 0.58587 0.51844 0.44575 0.0
C2299 C 0.55567 0.49215 0.46055 0.0
C2300 C 0.54789 0.50948 0.47646 0.0
C2301 C 0.56007 0.5308 0.47766 0.0
C2302 C 0.57884 0.53523 0.46247 0.0
C2303 C 0.52608 0.50624 0.49059 0.0
C2304 C 0.50806 0.52287 0.48825 0.0
C2305 C 0.52271 0.48682 0.50575 0.0
C2306 C 0.54165 0.46951 0.50994 0.0
C2307 C 0.56351 0.47686 0.51869 0.0
C2308 C 0.58166 0.46069 0.52182 0.0
C2309 C 0.57814 0.4371 0.51629 0.0
C2310 C 0.55641 0.42962 0.50779 0.0
C2311 C 0.53813 0.44569 0.50476 0.0
H2312 H 0.59224 0.42461 0.51857 0.0
H2313 H 0.41938 0.58473 0.48557 0.0
H2314 H 1.00079 0.53242 0.41926 0.0
H2315 H 0.99772 0.50033 0.44782 0.0
H2316 H 0.99046 0.55053 0.50441 0.0
H2317 H 0.99402 0.58264 0.47593 0.0
H2318 H 0.01613 0.51536 0.51863 0.0
H2319 H 0.9422 0.52276 0.47981 0.0
H2320 H 0.91522 0.52523 0.44586 0.0
H2321 H 0.93568 0.45626 0.42368 0.0
H2322 H 0.96297 0.45342 0.45742 0.0
H2323 H 0.97615 0.43834 0.60376 0.0
H2324 H 0.96967 0.46872 0.57394 0.0
H2325 H 0.98902 0.41995 0.5191 0.0
H2326 H 0.99536 0.38946 0.54897 0.0
H2327 H 0.95547 0.45461 0.50436 0.0
H2328 H 0.03066 0.44933 0.54466 0.0
H2329 H 0.05618 0.44852 0.5798 0.0
H2330 H 0.03107 0.51637 0.60052 0.0
H2331 H 0.005 0.51741 0.56573 0.0
C2332 C 0.999 0.53655 0.43787 0.0
C2333 C 0.99765 0.55998 0.44541 0.0
C2334 C 0.997 0.51824 0.45413 0.0
C2335 C 0.99323 0.52301 0.47819 0.0
C2336 C 0.99321 0.54641 0.48592 0.0
C2337 C 0.99542 0.56475 0.46967 0.0
C2338 C 0.98878 0.50366 0.49521 0.0
C2339 C 0.00264 0.5023 0.51563 0.0
C2340 C 0.97131 0.48643 0.49123 0.0
C2341 C 0.9548 0.48797 0.47102 0.0
C2342 C 0.94107 0.50818 0.46761 0.0
C2343 C 0.92571 0.50964 0.44841 0.0
C2344 C 0.92381 0.49097 0.43256 0.0
C2345 C 0.9372 0.47073 0.43595 0.0
C2346 C 0.95259 0.46916 0.45513 0.0
C2347 C 0.97773 0.43378 0.58523 0.0
C2348 C 0.98623 0.41162 0.57859 0.0
C2349 C 0.97429 0.4512 0.56824 0.0
C2350 C 0.97946 0.44671 0.54441 0.0
C2351 C 0.98506 0.42377 0.53743 0.0
C2352 C 0.98846 0.40629 0.55446 0.0
C2353 C 0.98278 0.46646 0.52769 0.0
C2354 C 0.96883 0.46781 0.50733 0.0
C2355 C 0.99992 0.48395 0.53187 0.0
C2356 C 0.01565 0.48331 0.55275 0.0
C2357 C 0.03039 0.46397 0.55683 0.0
C2358 C 0.04495 0.46348 0.57669 0.0
C2359 C 0.04516 0.48232 0.59245 0.0
C2360 C 0.03082 0.50174 0.58835 0.0
C2361 C 0.01613 0.50229 0.56858 0.0
H2362 H 0.05655 0.48196 0.60773 0.0
H2363 H 0.91192 0.49215 0.4177 0.0
H2364 H 0.90343 0.99535 0.47183 0.0
H2365 H 0.9359 0.00343 0.49909 0.0
H2366 H 0.98466 1.00051 0.44088 0.0
H2367 H 0.95232 0.99228 0.41376 0.0
H2368 H 0.99884 0.97245 0.47501 0.0
H2369 H 0.97308 0.05188 0.47051 0.0
H2370 H 0.94532 0.08498 0.47231 0.0
H2371 H 0.93191 0.0703 0.5455 0.0
H2372 H 0.95932 0.03687 0.54407 0.0
H2373 H 0.09921 0.01277 0.54263 0.0
H2374 H 0.06785 0.00742 0.51333 0.0
H2375 H 0.01723 1.00112 0.56954 0.0
H2376 H 0.04839 0.0058 0.59875 0.0
H2377 H 0.00486 0.0348 0.53572 0.0
H2378 H 0.03221 0.95517 0.53924 0.0
H2379 H 0.0618 0.92379 0.53662 0.0
H2380 H 0.07329 0.94011 0.46345 0.0
H2381 H 0.04433 0.97212 0.4658 0.0
C2382 C 0.92097 0.99728 0.46478 0.0
C2383 C 0.92534 0.99322 0.44067 0.0
C2384 C 0.93958 1.00174 0.48038 0.0
C2385 C 0.96285 0.00242 0.47211 0.0
C2386 C 0.96696 0.99986 0.44778 0.0
C2387 C 0.94844 0.99536 0.43225 0.0
C2388 C 0.98301 0.0039 0.48888 0.0
C2389 C 1.00033 0.98633 0.48803 0.0
C2390 C 0.98479 0.0217 0.50623 0.0
C2391 C 0.9681 0.04168 0.50711 0.0
C2392 C 0.96404 0.05555 0.48693 0.0
C2393 C 0.9484 0.07441 0.4879 0.0
C2394 C 0.93682 0.0797 0.50899 0.0
C2395 C 0.94087 0.06616 0.52917 0.0
C2396 C 0.95647 0.04726 0.52829 0.0
C2397 C 0.08152 0.00955 0.54873 0.0
C2398 C 0.0763 0.0099 0.57304 0.0
C2399 C 0.06356 0.00672 0.53197 0.0
C2400 C 0.04012 0.0042 0.53925 0.0
C2401 C 0.03511 0.00336 0.56349 0.0
C2402 C 0.05298 0.00595 0.58017 0.0
C2403 C 0.02059 0.00339 0.52178 0.0
C2404 C 0.00338 0.02102 0.52258 0.0
C2405 C 0.01903 0.98578 0.50425 0.0
C2406 C 0.03631 0.96633 0.5028 0.0
C2407 C 0.04128 0.95233 0.52267 0.0
C2408 C 0.05797 0.93443 0.52125 0.0
C2409 C 0.06951 0.93006 0.49992 0.0
C2410 C 0.06439 0.94357 0.47998 0.0
C2411 C 0.04788 0.96164 0.48137 0.0
H2412 H 0.08232 0.91613 0.49879 0.0
H2413 H 0.92477 0.09434 0.50971 0.0
H2414 H 0.4913 0.9578 0.4085 0.0
H2415 H 0.48634 0.98905 0.43769 0.0
H2416 H 0.50567 0.94109 0.49332 0.0
H2417 H 0.51031 0.9096 0.46403 0.0
H2418 H 0.47206 0.97275 0.50811 0.0
H2419 H 0.54621 0.97524 0.46796 0.0
H2420 H 0.57155 0.97609 0.43267 0.0
H2421 H 0.5412 0.04165 0.41154 0.0
H2422 H 0.51522 0.04094 0.4464 0.0
H2423 H 0.50526 0.05524 0.59294 0.0
H2424 H 0.51003 0.02418 0.56353 0.0
H2425 H 0.49069 0.07257 0.50828 0.0
H2426 H 0.4862 0.10388 0.53781 0.0
H2427 H 0.5242 0.04083 0.49316 0.0
H2428 H 0.44995 0.03841 0.53271 0.0
H2429 H 0.42421 0.03781 0.5677 0.0
H2430 H 0.45447 0.97243 0.5897 0.0
H2431 H 0.48076 0.97288 0.55507 0.0
C2432 C 0.49372 0.95374 0.42706 0.0
C2433 C 0.50115 0.93127 0.43402 0.0
C2434 C 0.49111 0.97166 0.44371 0.0
C2435 C 0.49621 0.96762 0.46766 0.0
C2436 C 0.50177 0.94469 0.47493 0.0
C2437 C 0.50426 0.92665 0.45823 0.0
C2438 C 0.49767 0.98765 0.48458 0.0
C2439 C 0.48366 0.98748 0.50497 0.0
C2440 C 0.51253 0.00716 0.48034 0.0
C2441 C 0.5286 0.00793 0.4597 0.0
C2442 C 0.54483 0.98977 0.45573 0.0
C2443 C 0.55931 0.99022 0.4358 0.0
C2444 C 0.55798 0.00888 0.41987 0.0
C2445 C 0.54219 0.02719 0.42388 0.0
C2446 C 0.52757 0.02677 0.44372 0.0
C2447 C 0.50274 0.05943 0.57442 0.0
C2448 C 0.49534 0.08196 0.56765 0.0
C2449 C 0.50527 0.04162 0.55764 0.0
C2450 C 0.50015 0.04585 0.53373 0.0
C2451 C 0.49461 0.06883 0.52663 0.0
C2452 C 0.49219 0.08676 0.54348 0.0
C2453 C 0.49862 0.02591 0.51669 0.0
C2454 C 0.51261 0.0261 0.49629 0.0
C2455 C 0.48372 0.00644 0.52089 0.0
C2456 C 0.46748 0.00579 0.5414 0.0
C2457 C 0.45122 0.02396 0.54508 0.0
C2458 C 0.43653 0.02366 0.56485 0.0
C2459 C 0.43774 0.00512 0.58094 0.0
C2460 C 0.45358 0.9868 0.57724 0.0
C2461 C 0.46838 0.98707 0.55753 0.0
H2462 H 0.42637 0.00493 0.59625 0.0
H2463 H 0.5692 0.00917 0.40445 0.0
H2464 H 0.45901 0.78609 0.15581 0.0
H2465 H 0.47642 0.82438 0.16416 0.0
H2466 H 0.54554 0.79434 0.15805 0.0
H2467 H 0.5283 0.75597 0.15024 0.0
H2468 H 0.54508 0.82879 0.19091 0.0
H2469 H 0.51936 0.81828 0.11048 0.0
H2470 H 0.49079 0.80934 0.07901 0.0
H2471 H 0.44778 0.86688 0.10157 0.0
H2472 H 0.47592 0.87593 0.13345 0.0
H2473 H 0.61218 0.92094 0.13794 0.0
H2474 H 0.59212 0.88545 0.15122 0.0
H2475 H 0.52806 0.92464 0.1598 0.0
H2476 H 0.54811 0.9603 0.14691 0.0
H2477 H 0.52309 0.88742 0.13003 0.0
H2478 H 0.55403 0.90091 0.20737 0.0
H2479 H 0.58467 0.90919 0.23693 0.0
H2480 H 0.62046 0.84573 0.21791 0.0
H2481 H 0.5902 0.83722 0.18799 0.0
C2482 C 0.47792 0.78755 0.15668 0.0
C2483 C 0.4923 0.76813 0.15184 0.0
C2484 C 0.48784 0.80944 0.16147 0.0
C2485 C 0.51228 0.81232 0.16115 0.0
C2486 C 0.52664 0.79256 0.15825 0.0
C2487 C 0.51674 0.77063 0.15368 0.0
C2488 C 0.52287 0.83609 0.16101 0.0
C2489 C 0.54034 0.84163 0.17759 0.0
C2490 C 0.51649 0.85292 0.14376 0.0
C2491 C 0.49959 0.84759 0.12454 0.0
C2492 C 0.50371 0.8289 0.10885 0.0
C2493 C 0.48761 0.82383 0.09092 0.0
C2494 C 0.46745 0.83748 0.08834 0.0
C2495 C 0.46338 0.85628 0.10363 0.0
C2496 C 0.47939 0.86139 0.12164 0.0
C2497 C 0.59406 0.9222 0.14347 0.0
C2498 C 0.58168 0.9434 0.14114 0.0
C2499 C 0.58258 0.90186 0.151 0.0
C2500 C 0.55856 0.90238 0.15641 0.0
C2501 C 0.54657 0.92383 0.1556 0.0
C2502 C 0.55804 0.94417 0.14819 0.0
C2503 C 0.54539 0.88021 0.1599 0.0
C2504 C 0.52752 0.87486 0.14372 0.0
C2505 C 0.5517 0.8635 0.17727 0.0
C2506 C 0.56991 0.86852 0.1953 0.0
C2507 C 0.56853 0.88881 0.20935 0.0
C2508 C 0.58581 0.89353 0.22621 0.0
C2509 C 0.60452 0.87802 0.22927 0.0
C2510 C 0.60596 0.85774 0.21552 0.0
C2511 C 0.58872 0.85294 0.19862 0.0
H2512 H 0.61789 0.88171 0.24233 0.0
H2513 H 0.455 0.83352 0.07446 0.0
H2514 H 0.72207 0.48178 0.1367 0.0
H2515 H 0.68836 0.50799 0.13852 0.0
H2516 H 0.73455 0.56713 0.14784 0.0
H2517 H 0.76844 0.54105 0.14529 0.0
H2518 H 0.66888 0.5374 0.16765 0.0
H2519 H 0.71259 0.61398 0.11857 0.0
H2520 H 0.74555 0.62141 0.09131 0.0
H2521 H 0.73993 0.55128 0.06435 0.0
H2522 H 0.70679 0.54357 0.09124 0.0
H2523 H 0.57581 0.61967 0.14879 0.0
H2524 H 0.61463 0.6054 0.16109 0.0
H2525 H 0.62863 0.58343 0.08944 0.0
H2526 H 0.59078 0.59849 0.07704 0.0
H2527 H 0.66654 0.6002 0.10703 0.0
H2528 H 0.6068 0.54539 0.13367 0.0
H2529 H 0.57178 0.53393 0.15647 0.0
H2530 H 0.60611 0.55372 0.22101 0.0
H2531 H 0.64126 0.56553 0.19853 0.0
C2532 C 0.72508 0.50033 0.13941 0.0
C2533 C 0.74795 0.50937 0.14047 0.0
C2534 C 0.70575 0.51531 0.14055 0.0
C2535 C 0.70889 0.53961 0.14287 0.0
C2536 C 0.73169 0.54851 0.14548 0.0
C2537 C 0.75106 0.53355 0.14414 0.0
C2538 C 0.68838 0.55553 0.14063 0.0
C2539 C 0.66846 0.55131 0.15458 0.0
C2540 C 0.6877 0.57363 0.12351 0.0
C2541 C 0.70745 0.57813 0.10712 0.0
C2542 C 0.71839 0.60019 0.10678 0.0
C2543 C 0.73709 0.60444 0.0914 0.0
C2544 C 0.74489 0.5868 0.07618 0.0
C2545 C 0.73394 0.5649 0.07622 0.0
C2546 C 0.71521 0.56057 0.09153 0.0
C2547 C 0.58742 0.61217 0.13567 0.0
C2548 C 0.58009 0.60978 0.11205 0.0
C2549 C 0.60949 0.60387 0.14272 0.0
C2550 C 0.62443 0.59297 0.12626 0.0
C2551 C 0.61748 0.59169 0.10251 0.0
C2552 C 0.59567 0.60007 0.09548 0.0
C2553 C 0.64675 0.58155 0.13345 0.0
C2554 C 0.66711 0.58671 0.12054 0.0
C2555 C 0.64755 0.56378 0.15092 0.0
C2556 C 0.6265 0.55661 0.16442 0.0
C2557 C 0.60681 0.54743 0.15271 0.0
C2558 C 0.58695 0.54085 0.16557 0.0
C2559 C 0.58669 0.54317 0.19017 0.0
C2560 C 0.60632 0.55199 0.20196 0.0
C2561 C 0.62621 0.55863 0.18917 0.0
H2562 H 0.57131 0.53806 0.20009 0.0
H2563 H 0.75939 0.59012 0.0643 0.0
H2564 H 0.97551 0.75028 0.15275 0.0
H2565 H 0.95761 0.71161 0.15774 0.0
H2566 H 0.0216 0.67892 0.13389 0.0
H2567 H 0.03892 0.71737 0.12759 0.0
H2568 H 0.98752 0.66051 0.11182 0.0
H2569 H 0.0027 0.67655 0.19245 0.0
H2570 H 0.0027 0.69953 0.22936 0.0
H2571 H 0.92751 0.69732 0.23118 0.0
H2572 H 0.92703 0.67469 0.19401 0.0
H2573 H 0.95616 0.54485 0.13786 0.0
H2574 H 0.97387 0.58215 0.14929 0.0
H2575 H 0.90718 0.61661 0.14108 0.0
H2576 H 0.88946 0.57962 0.12858 0.0
H2577 H 0.94322 0.63289 0.18203 0.0
H2578 H 0.93189 0.61926 0.09634 0.0
H2579 H 0.93563 0.59376 0.06134 0.0
H2580 H 0.00993 0.58913 0.07241 0.0
H2581 H 0.00651 0.6142 0.10782 0.0
C2582 C 0.98581 0.73482 0.14881 0.0
C2583 C 0.00877 0.73689 0.14006 0.0
C2584 C 0.97562 0.7127 0.15184 0.0
C2585 C 0.98831 0.69226 0.14643 0.0
C2586 C 0.01143 0.69437 0.13825 0.0
C2587 C 0.02146 0.71641 0.13494 0.0
C2588 C 0.97704 0.66878 0.14753 0.0
C2589 C 0.97813 0.65448 0.12735 0.0
C2590 C 0.96465 0.66077 0.16771 0.0
C2591 C 0.96481 0.67409 0.19029 0.0
C2592 C 0.98614 0.6811 0.20061 0.0
C2593 C 0.98624 0.69405 0.2216 0.0
C2594 C 0.96512 0.69992 0.23258 0.0
C2595 C 0.94386 0.69278 0.22263 0.0
C2596 C 0.94366 0.67987 0.20161 0.0
C2597 C 0.94511 0.56025 0.13892 0.0
C2598 C 0.92149 0.5593 0.13179 0.0
C2599 C 0.95523 0.58149 0.14571 0.0
C2600 C 0.94184 0.60208 0.14589 0.0
C2601 C 0.91774 0.60082 0.14121 0.0
C2602 C 0.90764 0.57961 0.13408 0.0
C2603 C 0.95375 0.62511 0.14636 0.0
C2604 C 0.95273 0.63917 0.16669 0.0
C2605 C 0.96678 0.63278 0.12658 0.0
C2606 C 0.9689 0.61834 0.10487 0.0
C2607 C 0.94898 0.61263 0.09143 0.0
C2608 C 0.95105 0.59827 0.07151 0.0
C2609 C 0.973 0.58976 0.0647 0.0
C2610 C 0.99293 0.59569 0.07774 0.0
C2611 C 0.99094 0.60996 0.09773 0.0
H2612 H 0.97456 0.57862 0.04928 0.0
H2613 H 0.96522 0.70996 0.24881 0.0
H2614 H 0.78101 0.03194 0.15171 0.0
H2615 H 0.81726 0.00909 0.15249 0.0
H2616 H 0.77712 0.94526 0.1573 0.0
H2617 H 0.74079 0.96793 0.1564 0.0
H2618 H 0.83942 0.97608 0.18043 0.0
H2619 H 0.80024 0.90726 0.11703 0.0
H2620 H 0.76857 0.904 0.08746 0.0
H2621 H 0.77263 0.97799 0.07411 0.0
H2622 H 0.80455 0.98159 0.10328 0.0
H2623 H 0.93199 0.89358 0.15462 0.0
H2624 H 0.89394 0.90967 0.16716 0.0
H2625 H 0.88502 0.94096 0.09827 0.0
H2626 H 0.922 0.92425 0.08551 0.0
H2627 H 0.84592 0.92341 0.11094 0.0
H2628 H 0.90445 0.97179 0.14831 0.0
H2629 H 0.93791 0.98041 0.17449 0.0
H2630 H 0.89879 0.9557 0.23435 0.0
H2631 H 0.86521 0.94658 0.20845 0.0
C2632 C 0.77987 0.01307 0.15343 0.0
C2633 C 0.75799 1.00174 0.15357 0.0
C2634 C 0.80064 1.00004 0.15399 0.0
C2635 C 0.79988 0.97546 0.15459 0.0
C2636 C 0.77809 0.9642 0.15656 0.0
C2637 C 0.75733 0.97721 0.15605 0.0
C2638 C 0.82154 0.96167 0.15025 0.0
C2639 C 0.84083 0.96435 0.1654 0.0
C2640 C 0.82351 0.94676 0.13037 0.0
C2641 C 0.80453 0.94471 0.11257 0.0
C2642 C 0.79439 0.9228 0.10773 0.0
C2643 C 0.77642 0.9209 0.09103 0.0
C2644 C 0.76854 0.94079 0.07897 0.0
C2645 C 0.77869 0.96261 0.08351 0.0
C2646 C 0.7967 0.96459 0.10014 0.0
C2647 C 0.92172 0.90367 0.14215 0.0
C2648 C 0.93022 0.90795 0.1192 0.0
C2649 C 0.90009 0.91303 0.14937 0.0
C2650 C 0.88669 0.92683 0.13376 0.0
C2651 C 0.89496 0.93046 0.1107 0.0
C2652 C 0.91631 0.92108 0.10349 0.0
C2653 C 0.86413 0.93786 0.141 0.0
C2654 C 0.84451 0.93468 0.12633 0.0
C2655 C 0.86222 0.9529 0.16086 0.0
C2656 C 0.88247 0.95816 0.17639 0.0
C2657 C 0.90308 0.96795 0.16702 0.0
C2658 C 0.92205 0.97298 0.18181 0.0
C2659 C 0.92051 0.96851 0.20606 0.0
C2660 C 0.89998 0.95907 0.21556 0.0
C2661 C 0.88099 0.95396 0.20083 0.0
H2662 H 0.93521 0.97244 0.21749 0.0
H2663 H 0.75461 0.93928 0.06608 0.0
H2664 H 0.56516 0.55981 0.37301 0.0
H2665 H 0.54846 0.5967 0.35911 0.0
H2666 H 0.61488 0.63102 0.37039 0.0
H2667 H 0.63147 0.59424 0.3851 0.0
H2668 H 0.58161 0.65357 0.39243 0.0
H2669 H 0.5904 0.62412 0.31442 0.0
H2670 H 0.58721 0.59627 0.28128 0.0
H2671 H 0.51215 0.59935 0.28544 0.0
H2672 H 0.51485 0.62688 0.3189 0.0
H2673 H 0.53578 0.76304 0.35877 0.0
H2674 H 0.55906 0.72729 0.3551 0.0
H2675 H 0.49583 0.68599 0.3536 0.0
H2676 H 0.47232 0.72171 0.3572 0.0
H2677 H 0.53072 0.6688 0.32297 0.0
H2678 H 0.52261 0.69305 0.40437 0.0
H2679 H 0.52538 0.721 0.43751 0.0
H2680 H 0.59954 0.72726 0.42629 0.0
H2681 H 0.59713 0.69959 0.39284 0.0
C2682 C 0.57634 0.57512 0.3721 0.0
C2683 C 0.59958 0.57414 0.38037 0.0
C2684 C 0.56682 0.59619 0.36394 0.0
C2685 C 0.58038 0.61672 0.36364 0.0
C2686 C 0.60405 0.61543 0.37045 0.0
C2687 C 0.61359 0.59433 0.37867 0.0
C2688 C 0.56907 0.63985 0.35924 0.0
C2689 C 0.57097 0.65703 0.37691 0.0
C2690 C 0.55457 0.64423 0.33935 0.0
C2691 C 0.55285 0.62743 0.31937 0.0
C2692 C 0.5732 0.61867 0.30846 0.0
C2693 C 0.57148 0.60297 0.28957 0.0
C2694 C 0.54949 0.59599 0.2813 0.0
C2695 C 0.52918 0.60473 0.29189 0.0
C2696 C 0.53079 0.6204 0.31081 0.0
C2697 C 0.52676 0.74641 0.35727 0.0
C2698 C 0.50217 0.74521 0.35863 0.0
C2699 C 0.54012 0.72598 0.35518 0.0
C2700 C 0.52919 0.70397 0.35442 0.0
C2701 C 0.50462 0.7028 0.35421 0.0
C2702 C 0.49122 0.72324 0.35638 0.0
C2703 C 0.54332 0.68217 0.35616 0.0
C2704 C 0.54177 0.6653 0.33818 0.0
C2705 C 0.55815 0.67795 0.37576 0.0
C2706 C 0.55964 0.69448 0.39594 0.0
C2707 C 0.53947 0.70054 0.40885 0.0
C2708 C 0.54098 0.7163 0.42771 0.0
C2709 C 0.56261 0.72595 0.43396 0.0
C2710 C 0.58279 0.71981 0.4214 0.0
C2711 C 0.58136 0.70409 0.4025 0.0
H2712 H 0.56375 0.73815 0.44856 0.0
H2713 H 0.5482 0.58385 0.26666 0.0
H2714 H 0.93321 0.62544 0.39432 0.0
H2715 H 0.89365 0.61449 0.38171 0.0
H2716 H 0.92023 0.54885 0.35495 0.0
H2717 H 0.95979 0.56028 0.36633 0.0
H2718 H 0.88325 0.55941 0.33093 0.0
H2719 H 0.90246 0.55565 0.41308 0.0
H2720 H 0.91588 0.57087 0.45158 0.0
H2721 H 0.85817 0.61918 0.45298 0.0
H2722 H 0.84467 0.60453 0.41423 0.0
H2723 H 0.79253 0.47921 0.36643 0.0
H2724 H 0.8289 0.50139 0.36104 0.0
H2725 H 0.79127 0.56602 0.37197 0.0
H2726 H 0.7548 0.54404 0.37709 0.0
H2727 H 0.83146 0.55967 0.40138 0.0
H2728 H 0.81025 0.55448 0.31879 0.0
H2729 H 0.7989 0.5331 0.28271 0.0
H2730 H 0.86306 0.49382 0.28538 0.0
H2731 H 0.87461 0.5147 0.32172 0.0
C2732 C 0.93077 0.60921 0.3847 0.0
C2733 C 0.94952 0.59352 0.38171 0.0
C2734 C 0.90809 0.6028 0.37778 0.0
C2735 C 0.90379 0.58044 0.36818 0.0
C2736 C 0.92294 0.56605 0.36258 0.0
C2737 C 0.9456 0.57259 0.36915 0.0
C2738 C 0.8796 0.57061 0.36712 0.0
C2739 C 0.87193 0.55952 0.34632 0.0
C2740 C 0.86479 0.57048 0.38726 0.0
C2741 C 0.87273 0.57921 0.41063 0.0
C2742 C 0.89273 0.56963 0.42153 0.0
C2743 C 0.90035 0.57814 0.44339 0.0
C2744 C 0.88791 0.59601 0.45469 0.0
C2745 C 0.86781 0.60537 0.44417 0.0
C2746 C 0.86018 0.59699 0.42225 0.0
C2747 C 0.79193 0.49816 0.36736 0.0
C2748 C 0.77078 0.50985 0.37227 0.0
C2749 C 0.81272 0.51081 0.3642 0.0
C2750 C 0.81276 0.53536 0.36606 0.0
C2751 C 0.79159 0.54709 0.37041 0.0
C2752 C 0.77076 0.53449 0.37326 0.0
C2753 C 0.83514 0.5486 0.36521 0.0
C2754 C 0.84255 0.5601 0.3858 0.0
C2755 C 0.85 0.54831 0.34519 0.0
C2756 C 0.84322 0.53606 0.32308 0.0
C2757 C 0.82187 0.54118 0.31177 0.0
C2758 C 0.81541 0.52915 0.29125 0.0
C2759 C 0.83024 0.51206 0.28178 0.0
C2760 C 0.85159 0.50704 0.29275 0.0
C2761 C 0.85811 0.51899 0.31329 0.0
H2762 H 0.82525 0.5027 0.26593 0.0
H2763 H 0.89382 0.60257 0.47163 0.0
H2764 H 0.93343 0.93333 0.37671 0.0
H2765 H 0.94616 0.89297 0.36964 0.0
H2766 H 0.88441 0.8674 0.40536 0.0
H2767 H 0.87137 0.90773 0.41181 0.0
H2768 H 0.95866 0.86314 0.401 0.0
H2769 H 0.87141 0.81211 0.38841 0.0
H2770 H 0.83258 0.81802 0.37018 0.0
H2771 H 0.86181 0.86871 0.32246 0.0
H2772 H 0.90086 0.86288 0.34017 0.0
H2773 H 0.97939 0.74534 0.42766 0.0
H2774 H 0.96073 0.78381 0.42615 0.0
H2775 H 0.94676 0.77439 0.35179 0.0
H2776 H 0.96505 0.73567 0.35324 0.0
H2777 H 0.91141 0.79634 0.37142 0.0
H2778 H 0.99466 0.80601 0.37155 0.0
H2779 H 0.03515 0.80102 0.38591 0.0
H2780 H 0.01696 0.83484 0.4512 0.0
H2781 H 0.97624 0.83966 0.43736 0.0
C2782 C 0.92235 0.91903 0.38254 0.0
C2783 C 0.9014 0.9236 0.39474 0.0
C2784 C 0.92966 0.896 0.3786 0.0
C2785 C 0.91628 0.87707 0.38694 0.0
C2786 C 0.89487 0.88162 0.39836 0.0
C2787 C 0.88741 0.90469 0.40204 0.0
C2788 C 0.92571 0.85279 0.38557 0.0
C2789 C 0.94832 0.84858 0.39442 0.0
C2790 C 0.9124 0.83376 0.37674 0.0
C2791 C 0.88902 0.8372 0.36578 0.0
C2792 C 0.86957 0.82444 0.37396 0.0
C2793 C 0.84751 0.82779 0.36373 0.0
C2794 C 0.84471 0.84378 0.34522 0.0
C2795 C 0.86398 0.85639 0.33685 0.0
C2796 C 0.88608 0.8531 0.34701 0.0
C2797 C 0.97212 0.75132 0.41103 0.0
C2798 C 0.97389 0.73752 0.39053 0.0
C2799 C 0.96154 0.77338 0.41016 0.0
C2800 C 0.95287 0.78226 0.38871 0.0
C2801 C 0.9535 0.768 0.36849 0.0
C2802 C 0.96396 0.74585 0.36936 0.0
C2803 C 0.94415 0.80676 0.38718 0.0
C2804 C 0.92172 0.81097 0.37787 0.0
C2805 C 0.95784 0.82594 0.39505 0.0
C2806 C 0.98233 0.823 0.40348 0.0
C2807 C 0.99924 0.8122 0.38904 0.0
C2808 C 0.02224 0.80942 0.39708 0.0
C2809 C 0.02861 0.81758 0.41946 0.0
C2810 C 0.01199 0.82851 0.43387 0.0
C2811 C 0.98894 0.83127 0.42593 0.0
H2812 H 0.04644 0.81556 0.42559 0.0
H2813 H 0.82762 0.84636 0.33734 0.0
H2814 H 0.58167 0.88382 0.38154 0.0
H2815 H 0.61976 0.89962 0.37019 0.0
H2816 H 0.58775 0.96621 0.35413 0.0
H2817 H 0.54933 0.9503 0.36481 0.0
H2818 H 0.62603 0.95498 0.32374 0.0
H2819 H 0.60763 0.95853 0.40715 0.0
H2820 H 0.59545 0.94182 0.44548 0.0
H2821 H 0.65436 0.89505 0.44429 0.0
H2822 H 0.66667 0.91116 0.40575 0.0
H2823 H 0.721 0.03272 0.35573 0.0
H2824 H 0.68373 0.0122 0.3497 0.0
H2825 H 0.71753 0.94626 0.36476 0.0
H2826 H 0.75478 0.96648 0.37053 0.0
H2827 H 0.67879 0.95603 0.39351 0.0
H2828 H 0.69952 0.95428 0.31229 0.0
H2829 H 0.7122 0.97007 0.27383 0.0
H2830 H 0.65024 0.01265 0.27037 0.0
H2831 H 0.63745 0.99755 0.30914 0.0
C2832 C 0.58252 0.90155 0.37477 0.0
C2833 C 0.56247 0.91588 0.37433 0.0
C2834 C 0.60437 0.91061 0.36843 0.0
C2835 C 0.6066 0.93418 0.3617 0.0
C2836 C 0.5864 0.94799 0.35935 0.0
C2837 C 0.5645 0.93892 0.36565 0.0
C2838 C 0.63009 0.94515 0.36028 0.0
C2839 C 0.63754 0.95543 0.339 0.0
C2840 C 0.64519 0.94537 0.38014 0.0
C2841 C 0.63793 0.93587 0.40345 0.0
C2842 C 0.61788 0.94456 0.41497 0.0
C2843 C 0.61096 0.93522 0.43674 0.0
C2844 C 0.62409 0.91737 0.44727 0.0
C2845 C 0.64419 0.90886 0.43609 0.0
C2846 C 0.65115 0.91808 0.41429 0.0
C2847 C 0.72056 0.01381 0.35733 0.0
C2848 C 0.74076 1.00124 0.36387 0.0
C2849 C 0.6993 0.00212 0.35379 0.0
C2850 C 0.69792 0.97775 0.35689 0.0
C2851 C 0.71827 0.96509 0.36233 0.0
C2852 C 0.73955 0.97669 0.36557 0.0
C2853 C 0.67491 0.96577 0.35693 0.0
C2854 C 0.66744 0.95547 0.37813 0.0
C2855 C 0.65993 0.96557 0.337 0.0
C2856 C 0.66764 0.97496 0.31379 0.0
C2857 C 0.68873 0.96725 0.3035 0.0
C2858 C 0.69593 0.97605 0.28162 0.0
C2859 C 0.68207 0.99238 0.26968 0.0
C2860 C 0.661 1.00003 0.27966 0.0
C2861 C 0.65377 0.99136 0.3016 0.0
H2862 H 0.68763 0.99898 0.25265 0.0
H2863 H 0.61871 0.91018 0.46412 0.0
H2864 H 0.40539 0.07278 0.84259 0.0
H2865 H 0.41631 0.1125 0.82938 0.0
H2866 H 0.43893 0.12917 0.90019 0.0
H2867 H 0.42807 0.09005 0.91334 0.0
H2868 H 0.41069 0.16353 0.88042 0.0
H2869 H 0.47808 0.11464 0.85877 0.0
H2870 H 0.49683 0.08244 0.83665 0.0
H2871 H 0.47541 0.11377 0.77107 0.0
H2872 H 0.45628 0.14603 0.79286 0.0
H2873 H 0.4964 0.24575 0.8958 0.0
H2874 H 0.47523 0.20924 0.89037 0.0
H2875 H 0.46353 0.22614 0.81699 0.0
H2876 H 0.48491 0.26327 0.8223 0.0
H2877 H 0.47784 0.17771 0.82655 0.0
H2878 H 0.41864 0.23158 0.84903 0.0
H2879 H 0.40101 0.26397 0.87173 0.0
H2880 H 0.4065 0.22354 0.93552 0.0
H2881 H 0.42452 0.19103 0.91329 0.0
C2882 C 0.41268 0.08502 0.85524 0.0
C2883 C 0.41616 0.07827 0.87891 0.0
C2884 C 0.41894 0.1076 0.8477 0.0
C2885 C 0.42845 0.12373 0.86383 0.0
C2886 C 0.43159 0.11702 0.88746 0.0
C2887 C 0.42558 0.09457 0.8949 0.0
C2888 C 0.43554 0.14769 0.85667 0.0
C2889 C 0.42525 0.16668 0.8685 0.0
C2890 C 0.45394 0.15185 0.84044 0.0
C2891 C 0.46549 0.13253 0.82742 0.0
C2892 C 0.4772 0.11454 0.83964 0.0
C2893 C 0.48793 0.09631 0.82717 0.0
C2894 C 0.48723 0.09601 0.80247 0.0
C2895 C 0.47588 0.11399 0.7902 0.0
C2896 C 0.4651 0.13225 0.8026 0.0
C2897 C 0.48945 0.24181 0.87843 0.0
C2898 C 0.49216 0.25756 0.85953 0.0
C2899 C 0.47728 0.22091 0.87539 0.0
C2900 C 0.46754 0.21517 0.85339 0.0
C2901 C 0.47079 0.23039 0.83416 0.0
C2902 C 0.48291 0.25157 0.83725 0.0
C2903 C 0.45374 0.1933 0.85128 0.0
C2904 C 0.46272 0.17473 0.83777 0.0
C2905 C 0.43404 0.18946 0.86595 0.0
C2906 C 0.423 0.20887 0.87946 0.0
C2907 C 0.41622 0.22964 0.86792 0.0
C2908 C 0.40614 0.24802 0.88071 0.0
C2909 C 0.40265 0.24582 0.90506 0.0
C2910 C 0.4092 0.22521 0.91666 0.0
C2911 C 0.41931 0.20678 0.90396 0.0
H2912 H 0.39485 0.26007 0.91493 0.0
H2913 H 0.49555 0.08189 0.79285 0.0
H2914 H 0.44748 0.40477 0.84962 0.0
H2915 H 0.40903 0.41935 0.83612 0.0
H2916 H 0.38988 0.43399 0.90844 0.0
H2917 H 0.42774 0.41937 0.92179 0.0
H2918 H 0.3537 0.41587 0.88534 0.0
H2919 H 0.41197 0.47657 0.8725 0.0
H2920 H 0.44802 0.49286 0.85494 0.0
H2921 H 0.42019 0.48162 0.7853 0.0
H2922 H 0.38408 0.46498 0.8025 0.0
H2923 H 0.29137 0.53232 0.87127 0.0
H2924 H 0.32748 0.50979 0.86712 0.0
H2925 H 0.28792 0.45064 0.84142 0.0
H2926 H 0.2516 0.47299 0.84593 0.0
H2927 H 0.35232 0.48671 0.83445 0.0
H2928 H 0.30993 0.4013 0.86697 0.0
H2929 H 0.27512 0.38803 0.88918 0.0
H2930 H 0.27318 0.45347 0.92661 0.0
H2931 H 0.30811 0.46698 0.90485 0.0
C2932 C 0.43482 0.41078 0.86253 0.0
C2933 C 0.44058 0.41123 0.88668 0.0
C2934 C 0.41297 0.41919 0.85485 0.0
C2935 C 0.39665 0.42796 0.87128 0.0
C2936 C 0.40212 0.42731 0.89544 0.0
C2937 C 0.42381 0.41909 0.90304 0.0
C2938 C 0.37433 0.43915 0.86378 0.0
C2939 C 0.35335 0.4311 0.87385 0.0
C2940 C 0.37386 0.45924 0.84908 0.0
C2941 C 0.39549 0.46927 0.83876 0.0
C2942 C 0.41363 0.47741 0.85345 0.0
C2943 C 0.43405 0.48673 0.84356 0.0
C2944 C 0.43643 0.4882 0.81902 0.0
C2945 C 0.41835 0.48042 0.80431 0.0
C2946 C 0.39791 0.47104 0.81411 0.0
C2947 C 0.29036 0.51469 0.86425 0.0
C2948 C 0.26857 0.50431 0.8593 0.0
C2949 C 0.31107 0.50183 0.86182 0.0
C2950 C 0.3104 0.47837 0.85436 0.0
C2951 C 0.28883 0.46858 0.8476 0.0
C2952 C 0.26808 0.48139 0.85019 0.0
C2953 C 0.33179 0.46361 0.85633 0.0
C2954 C 0.35255 0.47102 0.84528 0.0
C2955 C 0.33223 0.44326 0.87067 0.0
C2956 C 0.3114 0.43523 0.88406 0.0
C2957 C 0.30207 0.41281 0.87998 0.0
C2958 C 0.28234 0.40526 0.89249 0.0
C2959 C 0.27189 0.41994 0.90922 0.0
C2960 C 0.28123 0.44216 0.91358 0.0
C2961 C 0.30098 0.44977 0.90115 0.0
H2962 H 0.2566 0.41407 0.91886 0.0
H2963 H 0.45225 0.49543 0.81139 0.0
H2964 H 0.06624 0.45062 0.85738 0.0
H2965 H 0.04798 0.41352 0.84599 0.0
H2966 H 0.10982 0.37617 0.86841 0.0
H2967 H 0.12821 0.41329 0.87981 0.0
H2968 H 0.08655 0.35472 0.82927 0.0
H2969 H 0.06949 0.38473 0.90724 0.0
H2970 H 0.05668 0.4155 0.935 0.0
H2971 H 0.9891 0.41744 0.90167 0.0
H2972 H 1.0017 0.38701 0.87336 0.0
H2973 H 0.03971 0.24634 0.86981 0.0
H2974 H 0.05968 0.28346 0.86272 0.0
H2975 H 0.993 0.31746 0.8517 0.0
H2976 H 0.97285 0.28044 0.85964 0.0
H2977 H 0.01775 0.34168 0.88128 0.0
H2978 H 0.034 0.30588 0.80668 0.0
H2979 H 0.04808 0.27464 0.78011 0.0
H2980 H 0.11785 0.28281 0.80715 0.0
H2981 H 0.10412 0.31346 0.83454 0.0
C2982 C 0.0762 0.43455 0.85922 0.0
C2983 C 0.09852 0.4348 0.86977 0.0
C2984 C 0.06577 0.41339 0.85269 0.0
C2985 C 0.07739 0.39207 0.85677 0.0
C2986 C 0.10055 0.39243 0.86513 0.0
C2987 C 0.11106 0.41366 0.87161 0.0
C2988 C 0.06419 0.36967 0.85589 0.0
C2989 C 0.07155 0.35172 0.84065 0.0
C2990 C 0.04445 0.36598 0.87058 0.0
C2991 C 0.03662 0.38378 0.88802 0.0
C2992 C 0.05194 0.39182 0.90573 0.0
C2993 C 0.04473 0.4092 0.92156 0.0
C2994 C 0.02211 0.41846 0.92006 0.0
C2995 C 0.00663 0.41029 0.90278 0.0
C2996 C 0.0138 0.39298 0.88683 0.0
C2997 C 0.02929 0.26162 0.86548 0.0
C2998 C 0.00467 0.26048 0.86542 0.0
C2999 C 0.04077 0.28287 0.86132 0.0
C3000 C 0.02791 0.30332 0.85648 0.0
C3001 C 0.00333 0.30196 0.85544 0.0
C3002 C 0.99183 0.28078 0.85993 0.0
C3003 C 0.03992 0.32642 0.85452 0.0
C3004 C 0.03245 0.34459 0.86948 0.0
C3005 C 0.0596 0.33014 0.83964 0.0
C3006 C 0.06796 0.31194 0.82282 0.0
C3007 C 0.05231 0.30093 0.80711 0.0
C3008 C 0.06023 0.28332 0.79189 0.0
C3009 C 0.08383 0.27683 0.79188 0.0
C3010 C 0.09957 0.28788 0.80716 0.0
C3011 C 0.09172 0.30534 0.82257 0.0
H3012 H 0.08992 0.26323 0.78005 0.0
H3013 H 0.01657 0.43193 0.93233 0.0
H3014 H 0.26426 0.0372 0.86079 0.0
H3015 H 0.22684 0.05743 0.85606 0.0
H3016 H 0.19091 0.991 0.85416 0.0
H3017 H 0.22842 0.97052 0.85879 0.0
H3018 H 0.17168 0.02667 0.82264 0.0
H3019 H 0.19391 0.01495 0.90419 0.0
H3020 H 0.22098 0.01706 0.93811 0.0
H3021 H 0.22386 0.09198 0.93143 0.0
H3022 H 0.19709 0.09025 0.89719 0.0
H3023 H 0.05938 0.056 0.86972 0.0
H3024 H 0.0972 0.04015 0.85734 0.0
H3025 H 0.12995 0.10665 0.8723 0.0
H3026 H 0.09237 0.12231 0.8856 0.0
H3027 H 0.1519 0.0727 0.89436 0.0
H3028 H 0.12501 0.08474 0.81567 0.0
H3029 H 0.09775 0.08228 0.78203 0.0
H3030 H 0.10315 0.00722 0.78264 0.0
H3031 H 0.12999 0.00919 0.81675 0.0
C3032 C 0.24849 0.02684 0.85878 0.0
C3033 C 0.24925 0.00227 0.86038 0.0
C3034 C 0.22713 0.03844 0.85609 0.0
C3035 C 0.20614 0.0257 0.85499 0.0
C3036 C 0.20695 1.00113 0.85495 0.0
C3037 C 0.22835 0.98948 0.85776 0.0
C3038 C 0.18338 0.03803 0.85692 0.0
C3039 C 0.16718 0.03663 0.83833 0.0
C3040 C 0.17783 0.05134 0.87725 0.0
C3041 C 0.19373 0.05244 0.89797 0.0
C3042 C 0.20048 0.03185 0.90983 0.0
C3043 C 0.21574 0.03298 0.92913 0.0
C3044 C 0.22419 0.05464 0.93688 0.0
C3045 C 0.21734 0.07521 0.92538 0.0
C3046 C 0.20212 0.07417 0.90603 0.0
C3047 C 0.07458 0.06736 0.87004 0.0
C3048 C 0.07288 0.09036 0.87886 0.0
C3049 C 0.09617 0.05834 0.86274 0.0
C3050 C 0.11646 0.07221 0.86386 0.0
C3051 C 0.11454 0.09562 0.87129 0.0
C3052 C 0.09297 0.10462 0.87869 0.0
C3053 C 0.13992 0.06157 0.85998 0.0
C3054 C 0.15633 0.06309 0.87841 0.0
C3055 C 0.14552 0.04839 0.8395 0.0
C3056 C 0.12939 0.04712 0.81894 0.0
C3057 C 0.12022 0.06769 0.8088 0.0
C3058 C 0.10486 0.06638 0.7896 0.0
C3059 C 0.09873 0.0446 0.78017 0.0
C3060 C 0.10792 0.02408 0.78996 0.0
C3061 C 0.1232 0.02528 0.80924 0.0
H3062 H 0.08689 0.04361 0.76526 0.0
H3063 H 0.236 0.05548 0.95183 0.0
H3064 H 0.53212 0.28956 0.64445 0.0
H3065 H 0.51204 0.32691 0.65096 0.0
H3066 H 0.44522 0.29213 0.6448 0.0
H3067 H 0.46514 0.25478 0.63833 0.0
H3068 H 0.48441 0.34831 0.61934 0.0
H3069 H 0.40441 0.32086 0.67633 0.0
H3070 H 0.39537 0.29341 0.7088 0.0
H3071 H 0.46713 0.29545 0.73151 0.0
H3072 H 0.47661 0.32285 0.69918 0.0
H3073 H 0.37534 0.41937 0.62044 0.0
H3074 H 0.39376 0.38324 0.63475 0.0
H3075 H 0.4559 0.42204 0.65331 0.0
H3076 H 0.43754 0.45818 0.63924 0.0
H3077 H 0.42027 0.36508 0.67619 0.0
H3078 H 0.50004 0.39472 0.62228 0.0
H3079 H 0.50961 0.42295 0.59062 0.0
H3080 H 0.43978 0.41689 0.56304 0.0
H3081 H 0.42999 0.38825 0.59417 0.0
C3082 C 0.51315 0.28982 0.64482 0.0
C3083 C 0.50021 0.26925 0.64077 0.0
C3084 C 0.5017 0.31117 0.64855 0.0
C3085 C 0.47713 0.31233 0.64844 0.0
C3086 C 0.46419 0.29164 0.64529 0.0
C3087 C 0.47561 0.2703 0.64149 0.0
C3088 C 0.46504 0.33536 0.64935 0.0
C3089 C 0.47073 0.35211 0.6321 0.0
C3090 C 0.44683 0.34017 0.66565 0.0
C3091 C 0.44122 0.32379 0.68523 0.0
C3092 C 0.41824 0.31549 0.68829 0.0
C3093 C 0.41306 0.29989 0.70663 0.0
C3094 C 0.43068 0.29263 0.72215 0.0
C3095 C 0.45352 0.30101 0.71941 0.0
C3096 C 0.45883 0.31648 0.70101 0.0
C3097 C 0.3925 0.42036 0.62857 0.0
C3098 C 0.40517 0.44148 0.62844 0.0
C3099 C 0.40302 0.3997 0.63671 0.0
C3100 C 0.42631 0.39997 0.64469 0.0
C3101 C 0.43797 0.42148 0.64702 0.0
C3102 C 0.42749 0.44208 0.63894 0.0
C3103 C 0.43976 0.37782 0.64626 0.0
C3104 C 0.4342 0.36127 0.66373 0.0
C3105 C 0.45821 0.37314 0.63021 0.0
C3106 C 0.46421 0.38958 0.61076 0.0
C3107 C 0.48679 0.39931 0.60936 0.0
C3108 C 0.49225 0.41538 0.59151 0.0
C3109 C 0.47528 0.42179 0.57489 0.0
C3110 C 0.45288 0.41198 0.57597 0.0
C3111 C 0.44738 0.39583 0.59371 0.0
H3112 H 0.4795 0.43432 0.56116 0.0
H3113 H 0.42665 0.28054 0.73632 0.0
H3114 H 0.04598 0.44055 0.63272 0.0
H3115 H 0.08441 0.45934 0.63538 0.0
H3116 H 0.11787 0.39371 0.61851 0.0
H3117 H 0.07953 0.37492 0.61492 0.0
H3118 H 0.13821 0.41747 0.6568 0.0
H3119 H 0.11712 0.43158 0.57645 0.0
H3120 H 0.09564 0.44501 0.54113 0.0
H3121 H 0.09521 0.51535 0.56805 0.0
H3122 H 0.11661 0.50232 0.6036 0.0
H3123 H 0.25083 0.46619 0.62189 0.0
H3124 H 0.21397 0.44463 0.62388 0.0
H3125 H 0.17783 0.50784 0.64427 0.0
H3126 H 0.21459 0.5298 0.64147 0.0
H3127 H 0.15946 0.48402 0.60465 0.0
H3128 H 0.163 0.45527 0.6942 0.0
H3129 H 0.18751 0.43998 0.72675 0.0
H3130 H 0.22421 0.39564 0.67782 0.0
H3131 H 0.19963 0.41048 0.64512 0.0
C3132 C 0.06151 0.43009 0.62958 0.0
C3133 C 0.05966 0.40624 0.62351 0.0
C3134 C 0.08341 0.44089 0.63101 0.0
C3135 C 0.10385 0.42798 0.6267 0.0
C3136 C 0.10221 0.40396 0.62173 0.0
C3137 C 0.0803 0.39321 0.61998 0.0
C3138 C 0.127 0.43947 0.62796 0.0
C3139 C 0.14294 0.43186 0.64519 0.0
C3140 C 0.13305 0.4584 0.61301 0.0
C3141 C 0.11817 0.46589 0.59287 0.0
C3142 C 0.11209 0.44983 0.57505 0.0
C3143 C 0.10016 0.45742 0.55485 0.0
C3144 C 0.09415 0.48103 0.5523 0.0
C3145 C 0.09992 0.49708 0.57002 0.0
C3146 C 0.11192 0.48959 0.5902 0.0
C3147 C 0.23515 0.47542 0.62733 0.0
C3148 C 0.23561 0.49968 0.63167 0.0
C3149 C 0.21411 0.46299 0.62866 0.0
C3150 C 0.1933 0.47445 0.635 0.0
C3151 C 0.1938 0.49859 0.63979 0.0
C3152 C 0.21478 0.51111 0.63816 0.0
C3153 C 0.17059 0.46209 0.63345 0.0
C3154 C 0.15464 0.46965 0.61622 0.0
C3155 C 0.1647 0.44285 0.64802 0.0
C3156 C 0.18011 0.43454 0.66721 0.0
C3157 C 0.17646 0.44241 0.69042 0.0
C3158 C 0.19023 0.43372 0.7089 0.0
C3159 C 0.20755 0.41699 0.70433 0.0
C3160 C 0.21096 0.40876 0.6813 0.0
C3161 C 0.19714 0.41734 0.6628 0.0
H3162 H 0.21825 0.41032 0.71863 0.0
H3163 H 0.08488 0.48686 0.53667 0.0
H3164 H 0.03392 0.25255 0.66225 0.0
H3165 H 0.05799 0.21805 0.67016 0.0
H3166 H 0.99612 0.17469 0.67027 0.0
H3167 H 0.9718 0.20927 0.66279 0.0
H3168 H 0.03241 0.15874 0.70189 0.0
H3169 H 0.02102 0.18442 0.62092 0.0
H3170 H 0.02257 0.21335 0.58855 0.0
H3171 H 0.09708 0.21927 0.59717 0.0
H3172 H 0.09585 0.19081 0.63003 0.0
H3173 H 0.06208 0.05112 0.64727 0.0
H3174 H 0.04728 0.08777 0.6637 0.0
H3175 H 0.11358 0.1211 0.64912 0.0
H3176 H 0.12808 0.08483 0.63159 0.0
H3177 H 0.07997 0.14467 0.62983 0.0
H3178 H 0.09259 0.11334 0.70611 0.0
H3179 H 0.09118 0.0843 0.73824 0.0
H3180 H 0.01606 0.08839 0.73925 0.0
H3181 H 0.01695 0.117 0.70659 0.0
C3182 C 0.02532 0.23583 0.66486 0.0
C3183 C 1.00101 0.23352 0.66163 0.0
C3184 C 0.03912 0.21614 0.66934 0.0
C3185 C 0.02884 0.19384 0.67046 0.0
C3186 C 0.00436 0.19178 0.66945 0.0
C3187 C 0.99053 0.2115 0.66496 0.0
C3188 C 0.04355 0.17259 0.66836 0.0
C3189 C 0.04284 0.15552 0.68619 0.0
C3190 C 0.05752 0.16879 0.64805 0.0
C3191 C 0.05829 0.18572 0.62813 0.0
C3192 C 0.03769 0.19205 0.61604 0.0
C3193 C 0.03851 0.20835 0.59761 0.0
C3194 C 0.0599 0.21815 0.59082 0.0
C3195 C 0.08051 0.21168 0.60247 0.0
C3196 C 0.07975 0.19551 0.62104 0.0
C3197 C 0.07363 0.06617 0.6479 0.0
C3198 C 0.09614 0.06513 0.63783 0.0
C3199 C 0.06524 0.08706 0.65757 0.0
C3200 C 0.07932 0.10723 0.65769 0.0
C3201 C 0.1024 0.10576 0.64921 0.0
C3202 C 0.11074 0.08492 0.63936 0.0
C3203 C 0.06888 0.1304 0.66332 0.0
C3204 C 0.07014 0.1479 0.64593 0.0
C3205 C 0.05553 0.13447 0.68405 0.0
C3206 C 0.05484 0.11725 0.70374 0.0
C3207 C 0.07574 0.10791 0.713 0.0
C3208 C 0.07504 0.09153 0.73136 0.0
C3209 C 0.05354 0.08452 0.74083 0.0
C3210 C 0.0327 0.09385 0.73191 0.0
C3211 C 0.0333 0.11015 0.71345 0.0
H3212 H 0.05303 0.0719 0.7551 0.0
H3213 H 0.06051 0.23073 0.57651 0.0
H3214 H 0.24591 0.03752 0.6486 0.0
H3215 H 0.28202 0.05987 0.65403 0.0
H3216 H 0.32197 0.99571 0.65423 0.0
H3217 H 0.28589 0.97314 0.64884 0.0
H3218 H 0.33949 0.03039 0.68613 0.0
H3219 H 0.31599 0.02243 0.6042 0.0
H3220 H 0.28829 0.02576 0.57089 0.0
H3221 H 0.28312 0.09999 0.58229 0.0
H3222 H 0.31055 0.09702 0.61591 0.0
H3223 H 0.44985 0.06254 0.63784 0.0
H3224 H 0.41245 0.04639 0.65088 0.0
H3225 H 0.37918 0.11316 0.63832 0.0
H3226 H 0.41629 0.12909 0.62416 0.0
H3227 H 0.35651 0.08031 0.61638 0.0
H3228 H 0.38464 0.08928 0.69497 0.0
H3229 H 0.41232 0.08596 0.72826 0.0
H3230 H 0.40922 0.01091 0.72387 0.0
H3231 H 0.38177 0.01375 0.69032 0.0
C3232 C 0.2623 0.02809 0.65028 0.0
C3233 C 0.26308 0.00357 0.64786 0.0
C3234 C 0.28292 0.04091 0.6534 0.0
C3235 C 0.30467 0.02945 0.65419 0.0
C3236 C 0.30535 0.00488 0.65361 0.0
C3237 C 0.28472 0.99203 0.65039 0.0
C3238 C 0.32672 0.04309 0.65271 0.0
C3239 C 0.34336 0.04125 0.67088 0.0
C3240 C 0.33144 0.05764 0.63303 0.0
C3241 C 0.31508 0.05946 0.61273 0.0
C3242 C 0.30879 0.03943 0.59972 0.0
C3243 C 0.29317 0.04125 0.58077 0.0
C3244 C 0.28389 0.06306 0.57453 0.0
C3245 C 0.29028 0.0831 0.58718 0.0
C3246 C 0.30586 0.08136 0.60618 0.0
C3247 C 0.43464 0.0739 0.63816 0.0
C3248 C 0.43606 0.09706 0.62971 0.0
C3249 C 0.41328 0.0647 0.6459 0.0
C3250 C 0.39294 0.07856 0.64567 0.0
C3251 C 0.39463 0.10212 0.63867 0.0
C3252 C 0.41595 0.11128 0.63077 0.0
C3253 C 0.36961 0.06772 0.64982 0.0
C3254 C 0.35267 0.06989 0.63195 0.0
C3255 C 0.3647 0.05356 0.66981 0.0
C3256 C 0.38126 0.05174 0.68998 0.0
C3257 C 0.39 0.07206 0.70096 0.0
C3258 C 0.40563 0.07026 0.71991 0.0
C3259 C 0.41256 0.04824 0.72815 0.0
C3260 C 0.40384 0.02796 0.71747 0.0
C3261 C 0.38822 0.02965 0.6985 0.0
H3262 H 0.42466 0.04689 0.74282 0.0
H3263 H 0.2718 0.06444 0.55984 0.0
loop_
_geom_bond_atom_site_label_1
_geom_bond_atom_site_label_2
_geom_bond_distance
_geom_bond_site_symmetry_2
_ccdc_geom_bond_type
O0 Tb1 2.292 . S
O0 C3 1.255 . S
Tb1 O0 2.292 . S
Tb1 O17 2.326 . S
Tb1 O19 2.500 . S
Tb1 O20 2.473 . S
Tb1 O23 2.324 . S
Eu2 O6 2.292 . S
Eu2 C7 2.852 . S
Eu2 O18 2.324 . S
Eu2 O22 2.326 . S
Eu2 O24 2.500 . S
Eu2 O25 2.473 . S
C3 O0 1.255 . S
C3 O4 1.247 . S
O4 C3 1.247 . S
C5 O17 1.242 . S
C5 O18 1.258 . S
O6 Eu2 2.292 . S
O6 C8 1.255 . S
C7 Eu2 2.852 . S
C7 C11 1.503 . S
C7 O24 1.273 . S
C7 O25 1.257 . S
C8 O6 1.255 . S
C8 O9 1.247 . S
O9 C8 1.247 . S
C10 O22 1.242 . S
C10 O23 1.258 . S
C11 C7 1.503 . S
C11 C12 1.379 . S
C11 C16 1.392 1_545 S
C12 C11 1.379 . S
C12 C13 1.404 . S
C12 H26 0.929 . S
C13 C12 1.404 . S
C13 C14 1.389 1_545 S
C14 C13 1.389 1_565 S
C14 C15 1.399 . S
C14 H27 0.931 . S
C15 C14 1.399 . S
C15 C16 1.390 . S
C16 C11 1.392 1_565 S
C16 C15 1.390 . S
C16 H28 0.929 . S
O17 Tb1 2.326 . S
O17 C5 1.242 . S
O18 Eu2 2.324 . S
O18 C5 1.258 . S
O19 Tb1 2.500 . S
O19 C21 1.273 . S
O20 Tb1 2.473 . S
O20 C21 1.257 . S
C21 O19 1.273 . S
C21 O20 1.257 . S
O22 Eu2 2.326 . S
O22 C10 1.242 . S
O23 Tb1 2.324 . S
O23 C10 1.258 . S
O24 Eu2 2.500 . S
O24 C7 1.273 . S
O25 Eu2 2.473 . S
O25 C7 1.257 . S
H26 C12 0.929 . S
H27 C14 0.931 . S
H28 C16 0.929 . S
O29 Tb30 2.292 . S
O29 C32 1.255 . S
Tb30 O29 2.292 . S
Tb30 O46 2.326 . S
Tb30 O48 2.500 . S
Tb30 O49 2.473 . S
Tb30 O52 2.324 . S
Eu31 O35 2.292 . S
Eu31 C36 2.852 . S
Eu31 O47 2.324 . S
Eu31 O51 2.326 . S
Eu31 O53 2.500 . S
Eu31 O54 2.473 . S
C32 O29 1.255 . S
C32 O33 1.247 . S
O33 C32 1.247 . S
C34 O46 1.242 . S
C34 O47 1.258 . S
O35 Eu31 2.292 . S
O35 C37 1.255 . S
C36 Eu31 2.852 . S
C36 C40 1.503 . S
C36 O53 1.273 . S
C36 O54 1.257 . S
C37 O35 1.255 . S
C37 O38 1.247 . S
O38 C37 1.247 . S
C39 O51 1.242 . S
C39 O52 1.258 . S
C40 C36 1.503 . S
C40 C41 1.379 . S
C40 C45 1.392 . S
C41 C40 1.379 . S
C41 C42 1.404 . S
C41 H55 0.929 . S
C42 C41 1.404 . S
C42 C43 1.389 . S
C43 C42 1.389 . S
C43 C44 1.399 . S
C43 H56 0.931 . S
C44 C43 1.399 . S
C44 C45 1.390 . S
C45 C40 1.392 . S
C45 C44 1.390 . S
C45 H57 0.929 . S
O46 Tb30 2.326 . S
O46 C34 1.242 . S
O47 Eu31 2.324 . S
O47 C34 1.258 . S
O48 Tb30 2.500 . S
O48 C50 1.273 . S
O49 Tb30 2.473 . S
O49 C50 1.257 . S
C50 O48 1.273 . S
C50 O49 1.257 . S
O51 Eu31 2.326 . S
O51 C39 1.242 . S
O52 Tb30 2.324 . S
O52 C39 1.258 . S
O53 Eu31 2.500 . S
O53 C36 1.273 . S
O54 Eu31 2.473 . S
O54 C36 1.257 . S
H55 C41 0.929 . S
H56 C43 0.931 . S
H57 C45 0.929 . S
O58 Tb59 2.292 . S
O58 C61 1.255 . S
Tb59 O58 2.292 . S
Tb59 O75 2.326 . S
Tb59 O77 2.500 . S
Tb59 O78 2.473 . S
Tb59 O81 2.324 . S
Eu60 O64 2.292 . S
Eu60 C65 2.852 . S
Eu60 O76 2.324 . S
Eu60 O80 2.326 . S
Eu60 O82 2.500 . S
Eu60 O83 2.473 . S
C61 O58 1.255 . S
C61 O62 1.247 . S
O62 C61 1.247 . S
C63 O75 1.242 . S
C63 O76 1.258 . S
O64 Eu60 2.292 . S
O64 C66 1.255 . S
C65 Eu60 2.852 . S
C65 C69 1.503 . S
C65 O82 1.273 . S
C65 O83 1.257 . S
C66 O64 1.255 . S
C66 O67 1.247 . S
O67 C66 1.247 . S
C68 O80 1.242 . S
C68 O81 1.258 . S
C69 C65 1.503 . S
C69 C70 1.379 . S
C69 C74 1.392 . S
C70 C69 1.379 . S
C70 C71 1.404 . S
C70 H84 0.929 . S
C71 C70 1.404 . S
C71 C72 1.389 . S
C72 C71 1.389 . S
C72 C73 1.399 . S
C72 H85 0.931 . S
C73 C72 1.399 . S
C73 C74 1.390 . S
C74 C69 1.392 . S
C74 C73 1.390 . S
C74 H86 0.929 . S
O75 Tb59 2.326 . S
O75 C63 1.242 . S
O76 Eu60 2.324 . S
O76 C63 1.258 . S
O77 Tb59 2.500 . S
O77 C79 1.273 . S
O78 Tb59 2.473 . S
O78 C79 1.257 . S
C79 O77 1.273 . S
C79 O78 1.257 . S
O80 Eu60 2.326 . S
O80 C68 1.242 . S
O81 Tb59 2.324 . S
O81 C68 1.258 . S
O82 Eu60 2.500 . S
O82 C65 1.273 . S
O83 Eu60 2.473 . S
O83 C65 1.257 . S
H84 C70 0.929 . S
H85 C72 0.931 . S
H86 C74 0.929 . S
O87 Tb88 2.292 . S
O87 C90 1.255 . S
Tb88 O87 2.292 . S
Tb88 O104 2.326 . S
Tb88 O106 2.500 . S
Tb88 O107 2.473 . S
Tb88 O110 2.324 . S
Eu89 O93 2.292 . S
Eu89 C94 2.852 . S
Eu89 O105 2.324 . S
Eu89 O109 2.326 . S
Eu89 O111 2.500 . S
Eu89 O112 2.473 . S
C90 O87 1.255 . S
C90 O91 1.247 . S
O91 C90 1.247 . S
C92 O104 1.242 . S
C92 O105 1.258 . S
O93 Eu89 2.292 . S
O93 C95 1.255 . S
C94 Eu89 2.852 . S
C94 C98 1.503 . S
C94 O111 1.273 . S
C94 O112 1.257 . S
C95 O93 1.255 . S
C95 O96 1.247 . S
O96 C95 1.247 . S
C97 O109 1.242 . S
C97 O110 1.258 . S
C98 C94 1.503 . S
C98 C99 1.379 . S
C98 C103 1.392 1_455 S
C99 C98 1.379 . S
C99 C100 1.404 . S
C99 H113 0.929 . S
C100 C99 1.404 . S
C100 C101 1.389 1_455 S
C101 C100 1.389 1_655 S
C101 C102 1.399 . S
C101 H114 0.931 . S
C102 C101 1.399 . S
C102 C103 1.390 . S
C103 C98 1.392 1_655 S
C103 C102 1.390 . S
C103 H115 0.929 . S
O104 Tb88 2.326 . S
O104 C92 1.242 . S
O105 Eu89 2.324 . S
O105 C92 1.258 . S
O106 Tb88 2.500 . S
O106 C108 1.273 . S
O107 Tb88 2.473 . S
O107 C108 1.257 . S
C108 O106 1.273 . S
C108 O107 1.257 . S
O109 Eu89 2.326 . S
O109 C97 1.242 . S
O110 Tb88 2.324 . S
O110 C97 1.258 . S
O111 Eu89 2.500 . S
O111 C94 1.273 . S
O112 Eu89 2.473 . S
O112 C94 1.257 . S
H113 C99 0.929 . S
H114 C101 0.931 . S
H115 C103 0.929 . S
O116 Tb117 2.292 . S
O116 C119 1.255 . S
Tb117 O116 2.292 . S
Tb117 O133 2.326 . S
Tb117 O135 2.500 . S
Tb117 O136 2.473 . S
Tb117 O139 2.324 . S
Eu118 O122 2.292 . S
Eu118 C123 2.852 . S
Eu118 O134 2.324 . S
Eu118 O138 2.326 . S
Eu118 O140 2.500 . S
Eu118 O141 2.473 . S
C119 O116 1.255 . S
C119 O120 1.247 . S
O120 C119 1.247 . S
C121 O133 1.242 . S
C121 O134 1.258 . S
O122 Eu118 2.292 . S
O122 C124 1.255 . S
C123 Eu118 2.852 . S
C123 C127 1.503 . S
C123 O140 1.273 . S
C123 O141 1.257 . S
C124 O122 1.255 . S
C124 O125 1.247 . S
O125 C124 1.247 . S
C126 O138 1.242 . S
C126 O139 1.258 . S
C127 C123 1.503 . S
C127 C128 1.379 . S
C127 C132 1.392 . S
C128 C127 1.379 . S
C128 C129 1.404 . S
C128 H142 0.929 . S
C129 C128 1.404 . S
C129 C130 1.389 . S
C130 C129 1.389 . S
C130 C131 1.399 . S
C130 H143 0.931 . S
C131 C130 1.399 . S
C131 C132 1.390 . S
C132 C127 1.392 . S
C132 C131 1.390 . S
C132 H144 0.929 . S
O133 Tb117 2.326 . S
O133 C121 1.242 . S
O134 Eu118 2.324 . S
O134 C121 1.258 . S
O135 Tb117 2.500 . S
O135 C137 1.273 . S
O136 Tb117 2.473 . S
O136 C137 1.257 . S
C137 O135 1.273 . S
C137 O136 1.257 . S
O138 Eu118 2.326 . S
O138 C126 1.242 . S
O139 Tb117 2.324 . S
O139 C126 1.258 . S
O140 Eu118 2.500 . S
O140 C123 1.273 . S
O141 Eu118 2.473 . S
O141 C123 1.257 . S
H142 C128 0.929 . S
H143 C130 0.931 . S
H144 C132 0.929 . S
O145 Tb146 2.292 . S
O145 C148 1.255 . S
Tb146 O145 2.292 . S
Tb146 O162 2.326 . S
Tb146 O164 2.500 . S
Tb146 O165 2.473 . S
Tb146 O168 2.324 . S
Eu147 O151 2.292 . S
Eu147 C152 2.852 . S
Eu147 O163 2.324 . S
Eu147 O167 2.326 . S
Eu147 O169 2.500 . S
Eu147 O170 2.473 . S
C148 O145 1.255 . S
C148 O149 1.247 . S
O149 C148 1.247 . S
C150 O162 1.242 . S
C150 O163 1.258 . S
O151 Eu147 2.292 . S
O151 C153 1.255 . S
C152 Eu147 2.852 . S
C152 C156 1.503 . S
C152 O169 1.273 . S
C152 O170 1.257 . S
C153 O151 1.255 . S
C153 O154 1.247 . S
O154 C153 1.247 . S
C155 O167 1.242 . S
C155 O168 1.258 . S
C156 C152 1.503 . S
C156 C157 1.379 . S
C156 C161 1.392 1_455 S
C157 C156 1.379 . S
C157 C158 1.404 . S
C157 H171 0.929 . S
C158 C157 1.404 . S
C158 C159 1.389 1_455 S
C159 C158 1.389 1_655 S
C159 C160 1.399 . S
C159 H172 0.931 . S
C160 C159 1.399 . S
C160 C161 1.390 . S
C161 C156 1.392 1_655 S
C161 C160 1.390 . S
C161 H173 0.929 . S
O162 Tb146 2.326 . S
O162 C150 1.242 . S
O163 Eu147 2.324 . S
O163 C150 1.258 . S
O164 Tb146 2.500 . S
O164 C166 1.273 . S
O165 Tb146 2.473 . S
O165 C166 1.257 . S
C166 O164 1.273 . S
C166 O165 1.257 . S
O167 Eu147 2.326 . S
O167 C155 1.242 . S
O168 Tb146 2.324 . S
O168 C155 1.258 . S
O169 Eu147 2.500 . S
O169 C152 1.273 . S
O170 Eu147 2.473 . S
O170 C152 1.257 . S
H171 C157 0.929 . S
H172 C159 0.931 . S
H173 C161 0.929 . S
O174 Tb175 2.292 . S
O174 C177 1.255 . S
Tb175 O174 2.292 . S
Tb175 O191 2.326 . S
Tb175 O193 2.500 . S
Tb175 O194 2.473 . S
Tb175 O197 2.324 . S
Eu176 O180 2.292 . S
Eu176 C181 2.852 . S
Eu176 O192 2.324 . S
Eu176 O196 2.326 . S
Eu176 O198 2.500 . S
Eu176 O199 2.473 . S
C177 O174 1.255 . S
C177 O178 1.247 . S
O178 C177 1.247 . S
C179 O191 1.242 . S
C179 O192 1.258 . S
O180 Eu176 2.292 . S
O180 C182 1.255 . S
C181 Eu176 2.852 . S
C181 C185 1.503 . S
C181 O198 1.273 . S
C181 O199 1.257 . S
C182 O180 1.255 . S
C182 O183 1.247 . S
O183 C182 1.247 . S
C184 O196 1.242 . S
C184 O197 1.258 . S
C185 C181 1.503 . S
C185 C186 1.379 . S
C185 C190 1.392 1_545 S
C186 C185 1.379 . S
C186 C187 1.404 . S
C186 H200 0.929 . S
C187 C186 1.404 . S
C187 C188 1.389 1_545 S
C188 C187 1.389 1_565 S
C188 C189 1.399 . S
C188 H201 0.931 . S
C189 C188 1.399 . S
C189 C190 1.390 . S
C190 C185 1.392 1_565 S
C190 C189 1.390 . S
C190 H202 0.929 . S
O191 Tb175 2.326 . S
O191 C179 1.242 . S
O192 Eu176 2.324 . S
O192 C179 1.258 . S
O193 Tb175 2.500 . S
O193 C195 1.273 . S
O194 Tb175 2.473 . S
O194 C195 1.257 . S
C195 O193 1.273 . S
C195 O194 1.257 . S
O196 Eu176 2.326 . S
O196 C184 1.242 . S
O197 Tb175 2.324 . S
O197 C184 1.258 . S
O198 Eu176 2.500 . S
O198 C181 1.273 . S
O199 Eu176 2.473 . S
O199 C181 1.257 . S
H200 C186 0.929 . S
H201 C188 0.931 . S
H202 C190 0.929 . S
O203 Tb204 2.292 . S
O203 C206 1.255 . S
Tb204 O203 2.292 . S
Tb204 O220 2.326 . S
Tb204 O222 2.500 . S
Tb204 O223 2.473 . S
Tb204 O226 2.324 . S
Eu205 O209 2.292 . S
Eu205 C210 2.852 . S
Eu205 O221 2.324 . S
Eu205 O225 2.326 . S
Eu205 O227 2.500 . S
Eu205 O228 2.473 . S
C206 O203 1.255 . S
C206 O207 1.247 . S
O207 C206 1.247 . S
C208 O220 1.242 . S
C208 O221 1.258 . S
O209 Eu205 2.292 . S
O209 C211 1.255 . S
C210 Eu205 2.852 . S
C210 C214 1.503 . S
C210 O227 1.273 . S
C210 O228 1.257 . S
C211 O209 1.255 . S
C211 O212 1.247 . S
O212 C211 1.247 . S
C213 O225 1.242 . S
C213 O226 1.258 . S
C214 C210 1.503 . S
C214 C215 1.379 . S
C214 C219 1.392 . S
C215 C214 1.379 . S
C215 C216 1.404 . S
C215 H229 0.929 . S
C216 C215 1.404 . S
C216 C217 1.389 . S
C217 C216 1.389 . S
C217 C218 1.399 . S
C217 H230 0.931 . S
C218 C217 1.399 . S
C218 C219 1.390 . S
C219 C214 1.392 . S
C219 C218 1.390 . S
C219 H231 0.929 . S
O220 Tb204 2.326 . S
O220 C208 1.242 . S
O221 Eu205 2.324 . S
O221 C208 1.258 . S
O222 Tb204 2.500 . S
O222 C224 1.273 . S
O223 Tb204 2.473 . S
O223 C224 1.257 . S
C224 O222 1.273 . S
C224 O223 1.257 . S
O225 Eu205 2.326 . S
O225 C213 1.242 . S
O226 Tb204 2.324 . S
O226 C213 1.258 . S
O227 Eu205 2.500 . S
O227 C210 1.273 . S
O228 Eu205 2.473 . S
O228 C210 1.257 . S
H229 C215 0.929 . S
H230 C217 0.931 . S
H231 C219 0.929 . S
O232 Tb233 2.292 . S
O232 C235 1.255 . S
Tb233 O232 2.292 . S
Tb233 O249 2.326 . S
Tb233 O251 2.500 . S
Tb233 O252 2.473 . S
Tb233 O255 2.324 . S
Eu234 O238 2.292 . S
Eu234 C239 2.852 . S
Eu234 O250 2.324 . S
Eu234 O254 2.326 . S
Eu234 O256 2.500 . S
Eu234 O257 2.473 . S
C235 O232 1.255 . S
C235 O236 1.247 . S
O236 C235 1.247 . S
C237 O249 1.242 . S
C237 O250 1.258 . S
O238 Eu234 2.292 . S
O238 C240 1.255 . S
C239 Eu234 2.852 . S
C239 C243 1.503 . S
C239 O256 1.273 . S
C239 O257 1.257 . S
C240 O238 1.255 . S
C240 O241 1.247 . S
O241 C240 1.247 . S
C242 O254 1.242 . S
C242 O255 1.258 . S
C243 C239 1.503 . S
C243 C244 1.379 . S
C243 C248 1.392 1_565 S
C244 C243 1.379 . S
C244 C245 1.404 . S
C244 H258 0.929 . S
C245 C244 1.404 . S
C245 C246 1.389 1_565 S
C246 C245 1.389 1_545 S
C246 C247 1.399 . S
C246 H259 0.931 . S
C247 C246 1.399 . S
C247 C248 1.390 . S
C248 C243 1.392 1_545 S
C248 C247 1.390 . S
C248 H260 0.929 . S
O249 Tb233 2.326 . S
O249 C237 1.242 . S
O250 Eu234 2.324 . S
O250 C237 1.258 . S
O251 Tb233 2.500 . S
O251 C253 1.273 . S
O252 Tb233 2.473 . S
O252 C253 1.257 . S
C253 O251 1.273 . S
C253 O252 1.257 . S
O254 Eu234 2.326 . S
O254 C242 1.242 . S
O255 Tb233 2.324 . S
O255 C242 1.258 . S
O256 Eu234 2.500 . S
O256 C239 1.273 . S
O257 Eu234 2.473 . S
O257 C239 1.257 . S
H258 C244 0.929 . S
H259 C246 0.931 . S
H260 C248 0.929 . S
O261 Tb262 2.292 . S
O261 C264 1.255 . S
Tb262 O261 2.292 . S
Tb262 O278 2.326 . S
Tb262 O280 2.500 . S
Tb262 O281 2.473 . S
Tb262 O284 2.324 . S
Eu263 O267 2.292 . S
Eu263 C268 2.852 . S
Eu263 O279 2.324 . S
Eu263 O283 2.326 . S
Eu263 O285 2.500 . S
Eu263 O286 2.473 . S
C264 O261 1.255 . S
C264 O265 1.247 . S
O265 C264 1.247 . S
C266 O278 1.242 . S
C266 O279 1.258 . S
O267 Eu263 2.292 . S
O267 C269 1.255 . S
C268 Eu263 2.852 . S
C268 C272 1.503 . S
C268 O285 1.273 . S
C268 O286 1.257 . S
C269 O267 1.255 . S
C269 O270 1.247 . S
O270 C269 1.247 . S
C271 O283 1.242 . S
C271 O284 1.258 . S
C272 C268 1.503 . S
C272 C273 1.379 . S
C272 C277 1.392 . S
C273 C272 1.379 . S
C273 C274 1.404 . S
C273 H287 0.929 . S
C274 C273 1.404 . S
C274 C275 1.389 . S
C275 C274 1.389 . S
C275 C276 1.399 . S
C275 H288 0.931 . S
C276 C275 1.399 . S
C276 C277 1.390 . S
C277 C272 1.392 . S
C277 C276 1.390 . S
C277 H289 0.929 . S
O278 Tb262 2.326 . S
O278 C266 1.242 . S
O279 Eu263 2.324 . S
O279 C266 1.258 . S
O280 Tb262 2.500 . S
O280 C282 1.273 . S
O281 Tb262 2.473 . S
O281 C282 1.257 . S
C282 O280 1.273 . S
C282 O281 1.257 . S
O283 Eu263 2.326 . S
O283 C271 1.242 . S
O284 Tb262 2.324 . S
O284 C271 1.258 . S
O285 Eu263 2.500 . S
O285 C268 1.273 . S
O286 Eu263 2.473 . S
O286 C268 1.257 . S
H287 C273 0.929 . S
H288 C275 0.931 . S
H289 C277 0.929 . S
O290 Tb291 2.292 . S
O290 C293 1.255 . S
Tb291 O290 2.292 . S
Tb291 O307 2.326 . S
Tb291 O309 2.500 . S
Tb291 O310 2.473 . S
Tb291 O313 2.324 . S
Eu292 O296 2.292 . S
Eu292 C297 2.852 . S
Eu292 O308 2.324 . S
Eu292 O312 2.326 . S
Eu292 O314 2.500 . S
Eu292 O315 2.473 . S
C293 O290 1.255 . S
C293 O294 1.247 . S
O294 C293 1.247 . S
C295 O307 1.242 . S
C295 O308 1.258 . S
O296 Eu292 2.292 . S
O296 C298 1.255 . S
C297 Eu292 2.852 . S
C297 C301 1.503 . S
C297 O314 1.273 . S
C297 O315 1.257 . S
C298 O296 1.255 . S
C298 O299 1.247 . S
O299 C298 1.247 . S
C300 O312 1.242 . S
C300 O313 1.258 . S
C301 C297 1.503 . S
C301 C302 1.379 . S
C301 C306 1.392 . S
C302 C301 1.379 . S
C302 C303 1.404 . S
C302 H316 0.929 . S
C303 C302 1.404 . S
C303 C304 1.389 . S
C304 C303 1.389 . S
C304 C305 1.399 . S
C304 H317 0.931 . S
C305 C304 1.399 . S
C305 C306 1.390 . S
C306 C301 1.392 . S
C306 C305 1.390 . S
C306 H318 0.929 . S
O307 Tb291 2.326 . S
O307 C295 1.242 . S
O308 Eu292 2.324 . S
O308 C295 1.258 . S
O309 Tb291 2.500 . S
O309 C311 1.273 . S
O310 Tb291 2.473 . S
O310 C311 1.257 . S
C311 O309 1.273 . S
C311 O310 1.257 . S
O312 Eu292 2.326 . S
O312 C300 1.242 . S
O313 Tb291 2.324 . S
O313 C300 1.258 . S
O314 Eu292 2.500 . S
O314 C297 1.273 . S
O315 Eu292 2.473 . S
O315 C297 1.257 . S
H316 C302 0.929 . S
H317 C304 0.931 . S
H318 C306 0.929 . S
O319 Tb320 2.292 . S
O319 C322 1.255 . S
Tb320 O319 2.292 . S
Tb320 O336 2.326 . S
Tb320 O338 2.500 . S
Tb320 O339 2.473 . S
Tb320 O342 2.324 . S
Eu321 O325 2.292 . S
Eu321 C326 2.852 . S
Eu321 O337 2.324 . S
Eu321 O341 2.326 . S
Eu321 O343 2.500 . S
Eu321 O344 2.473 . S
C322 O319 1.255 . S
C322 O323 1.247 . S
O323 C322 1.247 . S
C324 O336 1.242 . S
C324 O337 1.258 . S
O325 Eu321 2.292 . S
O325 C327 1.255 . S
C326 Eu321 2.852 . S
C326 C330 1.503 . S
C326 O343 1.273 . S
C326 O344 1.257 . S
C327 O325 1.255 . S
C327 O328 1.247 . S
O328 C327 1.247 . S
C329 O341 1.242 . S
C329 O342 1.258 . S
C330 C326 1.503 . S
C330 C331 1.379 . S
C330 C335 1.392 1_655 S
C331 C330 1.379 . S
C331 C332 1.404 . S
C331 H345 0.929 . S
C332 C331 1.404 . S
C332 C333 1.389 1_655 S
C333 C332 1.389 1_455 S
C333 C334 1.399 . S
C333 H346 0.931 . S
C334 C333 1.399 . S
C334 C335 1.390 . S
C335 C330 1.392 1_455 S
C335 C334 1.390 . S
C335 H347 0.929 . S
O336 Tb320 2.326 . S
O336 C324 1.242 . S
O337 Eu321 2.324 . S
O337 C324 1.258 . S
O338 Tb320 2.500 . S
O338 C340 1.273 . S
O339 Tb320 2.473 . S
O339 C340 1.257 . S
C340 O338 1.273 . S
C340 O339 1.257 . S
O341 Eu321 2.326 . S
O341 C329 1.242 . S
O342 Tb320 2.324 . S
O342 C329 1.258 . S
O343 Eu321 2.500 . S
O343 C326 1.273 . S
O344 Eu321 2.473 . S
O344 C326 1.257 . S
H345 C331 0.929 . S
H346 C333 0.931 . S
H347 C335 0.929 . S
O348 Tb349 2.292 . S
O348 C351 1.255 . S
Tb349 O348 2.292 . S
Tb349 O365 2.326 . S
Tb349 O367 2.500 . S
Tb349 O368 2.473 . S
Tb349 O371 2.324 . S
Eu350 O354 2.292 . S
Eu350 C355 2.852 . S
Eu350 O366 2.324 . S
Eu350 O370 2.326 . S
Eu350 O372 2.500 . S
Eu350 O373 2.473 . S
C351 O348 1.255 . S
C351 O352 1.247 . S
O352 C351 1.247 . S
C353 O365 1.242 . S
C353 O366 1.258 . S
O354 Eu350 2.292 . S
O354 C356 1.255 . S
C355 Eu350 2.852 . S
C355 C359 1.503 . S
C355 O372 1.273 . S
C355 O373 1.257 . S
C356 O354 1.255 . S
C356 O357 1.247 . S
O357 C356 1.247 . S
C358 O370 1.242 . S
C358 O371 1.258 . S
C359 C355 1.503 . S
C359 C360 1.379 . S
C359 C364 1.392 . S
C360 C359 1.379 . S
C360 C361 1.404 . S
C360 H374 0.929 . S
C361 C360 1.404 . S
C361 C362 1.389 . S
C362 C361 1.389 . S
C362 C363 1.399 . S
C362 H375 0.931 . S
C363 C362 1.399 . S
C363 C364 1.390 . S
C364 C359 1.392 . S
C364 C363 1.390 . S
C364 H376 0.929 . S
O365 Tb349 2.326 . S
O365 C353 1.242 . S
O366 Eu350 2.324 . S
O366 C353 1.258 . S
O367 Tb349 2.500 . S
O367 C369 1.273 . S
O368 Tb349 2.473 . S
O368 C369 1.257 . S
C369 O367 1.273 . S
C369 O368 1.257 . S
O370 Eu350 2.326 . S
O370 C358 1.242 . S
O371 Tb349 2.324 . S
O371 C358 1.258 . S
O372 Eu350 2.500 . S
O372 C355 1.273 . S
O373 Eu350 2.473 . S
O373 C355 1.257 . S
H374 C360 0.929 . S
H375 C362 0.931 . S
H376 C364 0.929 . S
O377 Tb378 2.292 . S
O377 C380 1.255 . S
Tb378 O377 2.292 . S
Tb378 O394 2.326 . S
Tb378 O396 2.500 . S
Tb378 O397 2.473 . S
Tb378 O400 2.324 . S
Eu379 O383 2.292 . S
Eu379 C384 2.852 . S
Eu379 O395 2.324 . S
Eu379 O399 2.326 . S
Eu379 O401 2.500 . S
Eu379 O402 2.473 . S
C380 O377 1.255 . S
C380 O381 1.247 . S
O381 C380 1.247 . S
C382 O394 1.242 . S
C382 O395 1.258 . S
O383 Eu379 2.292 . S
O383 C385 1.255 . S
C384 Eu379 2.852 . S
C384 C388 1.503 . S
C384 O401 1.273 . S
C384 O402 1.257 . S
C385 O383 1.255 . S
C385 O386 1.247 . S
O386 C385 1.247 . S
C387 O399 1.242 . S
C387 O400 1.258 . S
C388 C384 1.503 . S
C388 C389 1.379 . S
C388 C393 1.392 1_655 S
C389 C388 1.379 . S
C389 C390 1.404 . S
C389 H403 0.929 . S
C390 C389 1.404 . S
C390 C391 1.389 1_655 S
C391 C390 1.389 1_455 S
C391 C392 1.399 . S
C391 H404 0.931 . S
C392 C391 1.399 . S
C392 C393 1.390 . S
C393 C388 1.392 1_455 S
C393 C392 1.390 . S
C393 H405 0.929 . S
O394 Tb378 2.326 . S
O394 C382 1.242 . S
O395 Eu379 2.324 . S
O395 C382 1.258 . S
O396 Tb378 2.500 . S
O396 C398 1.273 . S
O397 Tb378 2.473 . S
O397 C398 1.257 . S
C398 O396 1.273 . S
C398 O397 1.257 . S
O399 Eu379 2.326 . S
O399 C387 1.242 . S
O400 Tb378 2.324 . S
O400 C387 1.258 . S
O401 Eu379 2.500 . S
O401 C384 1.273 . S
O402 Eu379 2.473 . S
O402 C384 1.257 . S
H403 C389 0.929 . S
H404 C391 0.931 . S
H405 C393 0.929 . S
O406 Tb407 2.292 . S
O406 C409 1.255 . S
Tb407 O406 2.292 . S
Tb407 O423 2.326 . S
Tb407 O425 2.500 . S
Tb407 O426 2.473 . S
Tb407 O429 2.324 . S
Eu408 O412 2.292 . S
Eu408 C413 2.852 . S
Eu408 O424 2.324 . S
Eu408 O428 2.326 . S
Eu408 O430 2.500 . S
Eu408 O431 2.473 . S
C409 O406 1.255 . S
C409 O410 1.247 . S
O410 C409 1.247 . S
C411 O423 1.242 . S
C411 O424 1.258 . S
O412 Eu408 2.292 . S
O412 C414 1.255 . S
C413 Eu408 2.852 . S
C413 C417 1.503 . S
C413 O430 1.273 . S
C413 O431 1.257 . S
C414 O412 1.255 . S
C414 O415 1.247 . S
O415 C414 1.247 . S
C416 O428 1.242 . S
C416 O429 1.258 . S
C417 C413 1.503 . S
C417 C418 1.379 . S
C417 C422 1.392 1_565 S
C418 C417 1.379 . S
C418 C419 1.404 . S
C418 H432 0.929 . S
C419 C418 1.404 . S
C419 C420 1.389 1_565 S
C420 C419 1.389 1_545 S
C420 C421 1.399 . S
C420 H433 0.931 . S
C421 C420 1.399 . S
C421 C422 1.390 . S
C422 C417 1.392 1_545 S
C422 C421 1.390 . S
C422 H434 0.929 . S
O423 Tb407 2.326 . S
O423 C411 1.242 . S
O424 Eu408 2.324 . S
O424 C411 1.258 . S
O425 Tb407 2.500 . S
O425 C427 1.273 . S
O426 Tb407 2.473 . S
O426 C427 1.257 . S
C427 O425 1.273 . S
C427 O426 1.257 . S
O428 Eu408 2.326 . S
O428 C416 1.242 . S
O429 Tb407 2.324 . S
O429 C416 1.258 . S
O430 Eu408 2.500 . S
O430 C413 1.273 . S
O431 Eu408 2.473 . S
O431 C413 1.257 . S
H432 C418 0.929 . S
H433 C420 0.931 . S
H434 C422 0.929 . S
O435 Tb436 2.292 . S
O435 C438 1.255 . S
Tb436 O435 2.292 . S
Tb436 O452 2.326 . S
Tb436 O454 2.500 . S
Tb436 O455 2.473 . S
Tb436 O458 2.324 . S
Eu437 O441 2.292 . S
Eu437 C442 2.852 . S
Eu437 O453 2.324 . S
Eu437 O457 2.326 . S
Eu437 O459 2.500 . S
Eu437 O460 2.473 . S
C438 O435 1.255 . S
C438 O439 1.247 . S
O439 C438 1.247 . S
C440 O452 1.242 . S
C440 O453 1.258 . S
O441 Eu437 2.292 . S
O441 C443 1.255 . S
C442 Eu437 2.852 . S
C442 C446 1.503 . S
C442 O459 1.273 . S
C442 O460 1.257 . S
C443 O441 1.255 . S
C443 O444 1.247 . S
O444 C443 1.247 . S
C445 O457 1.242 . S
C445 O458 1.258 . S
C446 C442 1.503 . S
C446 C447 1.379 . S
C446 C451 1.392 . S
C447 C446 1.379 . S
C447 C448 1.404 . S
C447 H461 0.929 . S
C448 C447 1.404 . S
C448 C449 1.389 . S
C449 C448 1.389 . S
C449 C450 1.399 . S
C449 H462 0.931 . S
C450 C449 1.399 . S
C450 C451 1.390 . S
C451 C446 1.392 . S
C451 C450 1.390 . S
C451 H463 0.929 . S
O452 Tb436 2.326 . S
O452 C440 1.242 . S
O453 Eu437 2.324 . S
O453 C440 1.258 . S
O454 Tb436 2.500 . S
O454 C456 1.273 . S
O455 Tb436 2.473 . S
O455 C456 1.257 . S
C456 O454 1.273 . S
C456 O455 1.257 . S
O457 Eu437 2.326 . S
O457 C445 1.242 . S
O458 Tb436 2.324 . S
O458 C445 1.258 . S
O459 Eu437 2.500 . S
O459 C442 1.273 . S
O460 Eu437 2.473 . S
O460 C442 1.257 . S
H461 C447 0.929 . S
H462 C449 0.931 . S
H463 C451 0.929 . S
H464 C482 0.951 . S
H465 C484 0.951 . S
H466 C486 0.950 . S
H467 C487 0.950 . S
H468 C489 0.950 . S
H469 C492 0.950 . S
H470 C493 0.950 . S
H471 C495 0.950 . S
H472 C496 0.950 . S
H473 C497 0.951 . S
H474 C499 0.951 . S
H475 C501 0.950 . S
H476 C502 0.950 . S
H477 C504 0.950 . S
H478 C507 0.950 . S
H479 C508 0.950 . S
H480 C510 0.950 . S
H481 C511 0.950 . S
C482 H464 0.951 . S
C482 C483 1.366 . S
C482 C484 1.388 . S
C483 C482 1.366 . S
C483 C487 1.385 . S
C484 H465 0.951 . S
C484 C482 1.388 . S
C484 C485 1.366 . S
C485 C484 1.366 . S
C485 C486 1.414 . S
C485 C488 1.499 . S
C486 H466 0.950 . S
C486 C485 1.414 . S
C486 C487 1.374 . S
C487 H467 0.950 . S
C487 C483 1.385 . S
C487 C486 1.374 . S
C488 C485 1.499 . S
C488 C489 1.373 . S
C488 C490 1.389 . S
C489 H468 0.950 . S
C489 C488 1.373 . S
C489 C505 1.377 . S
C490 C488 1.389 . S
C490 C491 1.524 . S
C490 C504 1.377 . S
C491 C490 1.524 . S
C491 C492 1.397 . S
C491 C496 1.363 . S
C492 H469 0.950 . S
C492 C491 1.397 . S
C492 C493 1.334 . S
C493 H470 0.950 . S
C493 C492 1.334 . S
C493 C494 1.287 . S
C494 C493 1.287 . S
C494 C495 1.524 . S
C494 H513 0.913 . S
C495 H471 0.950 . S
C495 C494 1.524 . S
C495 C496 1.415 . S
C496 H472 0.950 . S
C496 C491 1.363 . S
C496 C495 1.415 . S
C497 H473 0.951 . S
C497 C498 1.366 . S
C497 C499 1.388 . S
C498 C497 1.366 . S
C498 C502 1.385 . S
C499 H474 0.951 . S
C499 C497 1.388 . S
C499 C500 1.366 . S
C500 C499 1.366 . S
C500 C501 1.414 . S
C500 C503 1.499 . S
C501 H475 0.950 . S
C501 C500 1.414 . S
C501 C502 1.374 . S
C502 H476 0.950 . S
C502 C498 1.385 . S
C502 C501 1.374 . S
C503 C500 1.499 . S
C503 C504 1.373 . S
C503 C505 1.389 . S
C504 H477 0.950 . S
C504 C490 1.377 . S
C504 C503 1.373 . S
C505 C489 1.377 . S
C505 C503 1.389 . S
C505 C506 1.524 . S
C506 C505 1.524 . S
C506 C507 1.397 . S
C506 C511 1.363 . S
C507 H478 0.950 . S
C507 C506 1.397 . S
C507 C508 1.334 . S
C508 H479 0.950 . S
C508 C507 1.334 . S
C508 C509 1.287 . S
C509 C508 1.287 . S
C509 C510 1.524 . S
C509 H512 0.999 . S
C510 H480 0.950 . S
C510 C509 1.524 . S
C510 C511 1.415 . S
C511 H481 0.950 . S
C511 C506 1.363 . S
C511 C510 1.415 . S
H512 C509 0.999 . S
H513 C494 0.913 . S
H514 C532 0.951 . S
H515 C534 0.951 . S
H516 C536 0.950 . S
H517 C537 0.950 . S
H518 C539 0.950 . S
H519 C542 0.950 . S
H520 C543 0.950 . S
H521 C545 0.950 . S
H522 C546 0.950 . S
H523 C547 0.951 . S
H524 C549 0.951 . S
H525 C551 0.950 . S
H526 C552 0.950 . S
H527 C554 0.950 . S
H528 C557 0.950 . S
H529 C558 0.950 . S
H530 C560 0.950 . S
H531 C561 0.950 . S
C532 H514 0.951 . S
C532 C533 1.366 . S
C532 C534 1.388 . S
C533 C532 1.366 . S
C533 C537 1.385 . S
C534 H515 0.951 . S
C534 C532 1.388 . S
C534 C535 1.366 . S
C535 C534 1.366 . S
C535 C536 1.414 . S
C535 C538 1.499 . S
C536 H516 0.950 . S
C536 C535 1.414 . S
C536 C537 1.374 . S
C537 H517 0.950 . S
C537 C533 1.385 . S
C537 C536 1.374 . S
C538 C535 1.499 . S
C538 C539 1.373 . S
C538 C540 1.389 . S
C539 H518 0.950 . S
C539 C538 1.373 . S
C539 C555 1.377 . S
C540 C538 1.389 . S
C540 C541 1.524 . S
C540 C554 1.377 . S
C541 C540 1.524 . S
C541 C542 1.397 . S
C541 C546 1.363 . S
C542 H519 0.950 . S
C542 C541 1.397 . S
C542 C543 1.334 . S
C543 H520 0.950 . S
C543 C542 1.334 . S
C543 C544 1.287 . S
C544 C543 1.287 . S
C544 C545 1.524 . S
C544 H563 0.913 . S
C545 H521 0.950 . S
C545 C544 1.524 . S
C545 C546 1.415 . S
C546 H522 0.950 . S
C546 C541 1.363 . S
C546 C545 1.415 . S
C547 H523 0.951 . S
C547 C548 1.366 . S
C547 C549 1.388 . S
C548 C547 1.366 . S
C548 C552 1.385 . S
C549 H524 0.951 . S
C549 C547 1.388 . S
C549 C550 1.366 . S
C550 C549 1.366 . S
C550 C551 1.414 . S
C550 C553 1.499 . S
C551 H525 0.950 . S
C551 C550 1.414 . S
C551 C552 1.374 . S
C552 H526 0.950 . S
C552 C548 1.385 . S
C552 C551 1.374 . S
C553 C550 1.499 . S
C553 C554 1.373 . S
C553 C555 1.389 . S
C554 H527 0.950 . S
C554 C540 1.377 . S
C554 C553 1.373 . S
C555 C539 1.377 . S
C555 C553 1.389 . S
C555 C556 1.524 . S
C556 C555 1.524 . S
C556 C557 1.397 . S
C556 C561 1.363 . S
C557 H528 0.950 . S
C557 C556 1.397 . S
C557 C558 1.334 . S
C558 H529 0.950 . S
C558 C557 1.334 . S
C558 C559 1.287 . S
C559 C558 1.287 . S
C559 C560 1.524 . S
C559 H562 0.999 . S
C560 H530 0.950 . S
C560 C559 1.524 . S
C560 C561 1.415 . S
C561 H531 0.950 . S
C561 C556 1.363 . S
C561 C560 1.415 . S
H562 C559 0.999 . S
H563 C544 0.913 . S
H564 C582 0.951 . S
H565 C584 0.951 . S
H566 C586 0.950 . S
H567 C587 0.950 . S
H568 C589 0.950 . S
H569 C592 0.950 . S
H570 C593 0.950 . S
H571 C595 0.950 . S
H572 C596 0.950 . S
H573 C597 0.951 . S
H574 C599 0.951 . S
H575 C601 0.950 . S
H576 C602 0.950 . S
H577 C604 0.950 . S
H578 C607 0.950 . S
H579 C608 0.950 . S
H580 C610 0.950 . S
H581 C611 0.950 . S
C582 H564 0.951 . S
C582 C583 1.366 . S
C582 C584 1.388 . S
C583 C582 1.366 . S
C583 C587 1.385 . S
C584 H565 0.951 . S
C584 C582 1.388 . S
C584 C585 1.366 . S
C585 C584 1.366 . S
C585 C586 1.414 . S
C585 C588 1.499 . S
C586 H566 0.950 . S
C586 C585 1.414 . S
C586 C587 1.374 . S
C587 H567 0.950 . S
C587 C583 1.385 . S
C587 C586 1.374 . S
C588 C585 1.499 . S
C588 C589 1.373 . S
C588 C590 1.389 . S
C589 H568 0.950 . S
C589 C588 1.373 . S
C589 C605 1.377 . S
C590 C588 1.389 . S
C590 C591 1.524 . S
C590 C604 1.377 . S
C591 C590 1.524 . S
C591 C592 1.397 . S
C591 C596 1.363 . S
C592 H569 0.950 . S
C592 C591 1.397 . S
C592 C593 1.334 . S
C593 H570 0.950 . S
C593 C592 1.334 . S
C593 C594 1.287 . S
C594 C593 1.287 . S
C594 C595 1.524 . S
C594 H613 0.913 . S
C595 H571 0.950 . S
C595 C594 1.524 . S
C595 C596 1.415 . S
C596 H572 0.950 . S
C596 C591 1.363 . S
C596 C595 1.415 . S
C597 H573 0.951 . S
C597 C598 1.366 . S
C597 C599 1.388 . S
C598 C597 1.366 . S
C598 C602 1.385 . S
C599 H574 0.951 . S
C599 C597 1.388 . S
C599 C600 1.366 . S
C600 C599 1.366 . S
C600 C601 1.414 . S
C600 C603 1.499 . S
C601 H575 0.950 . S
C601 C600 1.414 . S
C601 C602 1.374 . S
C602 H576 0.950 . S
C602 C598 1.385 . S
C602 C601 1.374 . S
C603 C600 1.499 . S
C603 C604 1.373 . S
C603 C605 1.389 . S
C604 H577 0.950 . S
C604 C590 1.377 . S
C604 C603 1.373 . S
C605 C589 1.377 . S
C605 C603 1.389 . S
C605 C606 1.524 . S
C606 C605 1.524 . S
C606 C607 1.397 . S
C606 C611 1.363 . S
C607 H578 0.950 . S
C607 C606 1.397 . S
C607 C608 1.334 . S
C608 H579 0.950 . S
C608 C607 1.334 . S
C608 C609 1.287 . S
C609 C608 1.287 . S
C609 C610 1.524 . S
C609 H612 0.999 . S
C610 H580 0.950 . S
C610 C609 1.524 . S
C610 C611 1.415 . S
C611 H581 0.950 . S
C611 C606 1.363 . S
C611 C610 1.415 . S
H612 C609 0.999 . S
H613 C594 0.913 . S
H614 C632 0.951 . S
H615 C634 0.951 . S
H616 C636 0.950 . S
H617 C637 0.950 . S
H618 C639 0.950 . S
H619 C642 0.950 . S
H620 C643 0.950 . S
H621 C645 0.950 . S
H622 C646 0.950 . S
H623 C647 0.951 . S
H624 C649 0.951 . S
H625 C651 0.950 . S
H626 C652 0.950 . S
H627 C654 0.950 . S
H628 C657 0.950 . S
H629 C658 0.950 . S
H630 C660 0.950 . S
H631 C661 0.950 . S
C632 H614 0.951 . S
C632 C633 1.366 . S
C632 C634 1.388 . S
C633 C632 1.366 . S
C633 C637 1.385 . S
C634 H615 0.951 . S
C634 C632 1.388 . S
C634 C635 1.366 . S
C635 C634 1.366 . S
C635 C636 1.414 . S
C635 C638 1.499 . S
C636 H616 0.950 . S
C636 C635 1.414 . S
C636 C637 1.374 . S
C637 H617 0.950 . S
C637 C633 1.385 . S
C637 C636 1.374 . S
C638 C635 1.499 . S
C638 C639 1.373 . S
C638 C640 1.389 . S
C639 H618 0.950 . S
C639 C638 1.373 . S
C639 C655 1.377 . S
C640 C638 1.389 . S
C640 C641 1.524 . S
C640 C654 1.377 . S
C641 C640 1.524 . S
C641 C642 1.397 . S
C641 C646 1.363 . S
C642 H619 0.950 . S
C642 C641 1.397 . S
C642 C643 1.334 . S
C643 H620 0.950 . S
C643 C642 1.334 . S
C643 C644 1.287 . S
C644 C643 1.287 . S
C644 C645 1.524 . S
C644 H663 0.913 . S
C645 H621 0.950 . S
C645 C644 1.524 . S
C645 C646 1.415 . S
C646 H622 0.950 . S
C646 C641 1.363 . S
C646 C645 1.415 . S
C647 H623 0.951 . S
C647 C648 1.366 . S
C647 C649 1.388 . S
C648 C647 1.366 . S
C648 C652 1.385 . S
C649 H624 0.951 . S
C649 C647 1.388 . S
C649 C650 1.366 . S
C650 C649 1.366 . S
C650 C651 1.414 . S
C650 C653 1.499 . S
C651 H625 0.950 . S
C651 C650 1.414 . S
C651 C652 1.374 . S
C652 H626 0.950 . S
C652 C648 1.385 . S
C652 C651 1.374 . S
C653 C650 1.499 . S
C653 C654 1.373 . S
C653 C655 1.389 . S
C654 H627 0.950 . S
C654 C640 1.377 . S
C654 C653 1.373 . S
C655 C639 1.377 . S
C655 C653 1.389 . S
C655 C656 1.524 . S
C656 C655 1.524 . S
C656 C657 1.397 . S
C656 C661 1.363 . S
C657 H628 0.950 . S
C657 C656 1.397 . S
C657 C658 1.334 . S
C658 H629 0.950 . S
C658 C657 1.334 . S
C658 C659 1.287 . S
C659 C658 1.287 . S
C659 C660 1.524 . S
C659 H662 0.999 . S
C660 H630 0.950 . S
C660 C659 1.524 . S
C660 C661 1.415 . S
C661 H631 0.950 . S
C661 C656 1.363 . S
C661 C660 1.415 . S
H662 C659 0.999 . S
H663 C644 0.913 . S
H664 C682 0.951 . S
H665 C684 0.951 . S
H666 C686 0.950 . S
H667 C687 0.950 . S
H668 C689 0.950 . S
H669 C692 0.950 . S
H670 C693 0.950 . S
H671 C695 0.950 . S
H672 C696 0.950 . S
H673 C697 0.951 . S
H674 C699 0.951 . S
H675 C701 0.950 . S
H676 C702 0.950 . S
H677 C704 0.950 . S
H678 C707 0.950 . S
H679 C708 0.950 . S
H680 C710 0.950 . S
H681 C711 0.950 . S
C682 H664 0.951 . S
C682 C683 1.366 . S
C682 C684 1.388 . S
C683 C682 1.366 . S
C683 C687 1.385 . S
C684 H665 0.951 . S
C684 C682 1.388 . S
C684 C685 1.366 . S
C685 C684 1.366 . S
C685 C686 1.414 . S
C685 C688 1.499 . S
C686 H666 0.950 . S
C686 C685 1.414 . S
C686 C687 1.374 . S
C687 H667 0.950 . S
C687 C683 1.385 . S
C687 C686 1.374 . S
C688 C685 1.499 . S
C688 C689 1.373 . S
C688 C690 1.389 . S
C689 H668 0.950 . S
C689 C688 1.373 . S
C689 C705 1.377 . S
C690 C688 1.389 . S
C690 C691 1.524 . S
C690 C704 1.377 . S
C691 C690 1.524 . S
C691 C692 1.397 . S
C691 C696 1.363 . S
C692 H669 0.950 . S
C692 C691 1.397 . S
C692 C693 1.334 . S
C693 H670 0.950 . S
C693 C692 1.334 . S
C693 C694 1.287 . S
C694 C693 1.287 . S
C694 C695 1.524 . S
C694 H713 0.913 . S
C695 H671 0.950 . S
C695 C694 1.524 . S
C695 C696 1.415 . S
C696 H672 0.950 . S
C696 C691 1.363 . S
C696 C695 1.415 . S
C697 H673 0.951 . S
C697 C698 1.366 . S
C697 C699 1.388 . S
C698 C697 1.366 . S
C698 C702 1.385 . S
C699 H674 0.951 . S
C699 C697 1.388 . S
C699 C700 1.366 . S
C700 C699 1.366 . S
C700 C701 1.414 . S
C700 C703 1.499 . S
C701 H675 0.950 . S
C701 C700 1.414 . S
C701 C702 1.374 . S
C702 H676 0.950 . S
C702 C698 1.385 . S
C702 C701 1.374 . S
C703 C700 1.499 . S
C703 C704 1.373 . S
C703 C705 1.389 . S
C704 H677 0.950 . S
C704 C690 1.377 . S
C704 C703 1.373 . S
C705 C689 1.377 . S
C705 C703 1.389 . S
C705 C706 1.524 . S
C706 C705 1.524 . S
C706 C707 1.397 . S
C706 C711 1.363 . S
C707 H678 0.950 . S
C707 C706 1.397 . S
C707 C708 1.334 . S
C708 H679 0.950 . S
C708 C707 1.334 . S
C708 C709 1.287 . S
C709 C708 1.287 . S
C709 C710 1.524 . S
C709 H712 0.999 . S
C710 H680 0.950 . S
C710 C709 1.524 . S
C710 C711 1.415 . S
C711 H681 0.950 . S
C711 C706 1.363 . S
C711 C710 1.415 . S
H712 C709 0.999 . S
H713 C694 0.913 . S
H714 C732 0.951 . S
H715 C734 0.951 . S
H716 C736 0.950 . S
H717 C737 0.950 . S
H718 C739 0.950 . S
H719 C742 0.950 . S
H720 C743 0.950 . S
H721 C745 0.950 . S
H722 C746 0.950 . S
H723 C747 0.951 . S
H724 C749 0.951 . S
H725 C751 0.950 . S
H726 C752 0.950 . S
H727 C754 0.950 . S
H728 C757 0.950 . S
H729 C758 0.950 . S
H730 C760 0.950 . S
H731 C761 0.950 . S
C732 H714 0.951 . S
C732 C733 1.366 . S
C732 C734 1.388 . S
C733 C732 1.366 . S
C733 C737 1.385 . S
C734 H715 0.951 . S
C734 C732 1.388 . S
C734 C735 1.366 . S
C735 C734 1.366 . S
C735 C736 1.414 . S
C735 C738 1.499 . S
C736 H716 0.950 . S
C736 C735 1.414 . S
C736 C737 1.374 . S
C737 H717 0.950 . S
C737 C733 1.385 . S
C737 C736 1.374 . S
C738 C735 1.499 . S
C738 C739 1.373 . S
C738 C740 1.389 . S
C739 H718 0.950 . S
C739 C738 1.373 . S
C739 C755 1.377 . S
C740 C738 1.389 . S
C740 C741 1.524 . S
C740 C754 1.377 . S
C741 C740 1.524 . S
C741 C742 1.397 . S
C741 C746 1.363 . S
C742 H719 0.950 . S
C742 C741 1.397 . S
C742 C743 1.334 . S
C743 H720 0.950 . S
C743 C742 1.334 . S
C743 C744 1.287 . S
C744 C743 1.287 . S
C744 C745 1.524 . S
C744 H763 0.913 . S
C745 H721 0.950 . S
C745 C744 1.524 . S
C745 C746 1.415 . S
C746 H722 0.950 . S
C746 C741 1.363 . S
C746 C745 1.415 . S
C747 H723 0.951 . S
C747 C748 1.366 . S
C747 C749 1.388 . S
C748 C747 1.366 . S
C748 C752 1.385 . S
C749 H724 0.951 . S
C749 C747 1.388 . S
C749 C750 1.366 . S
C750 C749 1.366 . S
C750 C751 1.414 . S
C750 C753 1.499 . S
C751 H725 0.950 . S
C751 C750 1.414 . S
C751 C752 1.374 . S
C752 H726 0.950 . S
C752 C748 1.385 . S
C752 C751 1.374 . S
C753 C750 1.499 . S
C753 C754 1.373 . S
C753 C755 1.389 . S
C754 H727 0.950 . S
C754 C740 1.377 . S
C754 C753 1.373 . S
C755 C739 1.377 . S
C755 C753 1.389 . S
C755 C756 1.524 . S
C756 C755 1.524 . S
C756 C757 1.397 . S
C756 C761 1.363 . S
C757 H728 0.950 . S
C757 C756 1.397 . S
C757 C758 1.334 . S
C758 H729 0.950 . S
C758 C757 1.334 . S
C758 C759 1.287 . S
C759 C758 1.287 . S
C759 C760 1.524 . S
C759 H762 0.999 . S
C760 H730 0.950 . S
C760 C759 1.524 . S
C760 C761 1.415 . S
C761 H731 0.950 . S
C761 C756 1.363 . S
C761 C760 1.415 . S
H762 C759 0.999 . S
H763 C744 0.913 . S
H764 C782 0.951 . S
H765 C784 0.951 . S
H766 C786 0.950 . S
H767 C787 0.950 . S
H768 C789 0.950 . S
H769 C792 0.950 . S
H770 C793 0.950 . S
H771 C795 0.950 . S
H772 C796 0.950 . S
H773 C797 0.951 . S
H774 C799 0.951 . S
H775 C801 0.950 . S
H776 C802 0.950 . S
H777 C804 0.950 . S
H778 C807 0.950 . S
H779 C808 0.950 . S
H780 C810 0.950 . S
H781 C811 0.950 . S
C782 H764 0.951 . S
C782 C783 1.366 . S
C782 C784 1.388 . S
C783 C782 1.366 . S
C783 C787 1.385 . S
C784 H765 0.951 . S
C784 C782 1.388 . S
C784 C785 1.366 . S
C785 C784 1.366 . S
C785 C786 1.414 . S
C785 C788 1.499 . S
C786 H766 0.950 . S
C786 C785 1.414 . S
C786 C787 1.374 . S
C787 H767 0.950 . S
C787 C783 1.385 . S
C787 C786 1.374 . S
C788 C785 1.499 . S
C788 C789 1.373 . S
C788 C790 1.389 . S
C789 H768 0.950 . S
C789 C788 1.373 . S
C789 C805 1.377 . S
C790 C788 1.389 . S
C790 C791 1.524 . S
C790 C804 1.377 . S
C791 C790 1.524 . S
C791 C792 1.397 . S
C791 C796 1.363 . S
C792 H769 0.950 . S
C792 C791 1.397 . S
C792 C793 1.334 . S
C793 H770 0.950 . S
C793 C792 1.334 . S
C793 C794 1.287 . S
C794 C793 1.287 . S
C794 C795 1.524 . S
C794 H813 0.913 . S
C795 H771 0.950 . S
C795 C794 1.524 . S
C795 C796 1.415 . S
C796 H772 0.950 . S
C796 C791 1.363 . S
C796 C795 1.415 . S
C797 H773 0.951 . S
C797 C798 1.366 . S
C797 C799 1.388 . S
C798 C797 1.366 . S
C798 C802 1.385 . S
C799 H774 0.951 . S
C799 C797 1.388 . S
C799 C800 1.366 . S
C800 C799 1.366 . S
C800 C801 1.414 . S
C800 C803 1.499 . S
C801 H775 0.950 . S
C801 C800 1.414 . S
C801 C802 1.374 . S
C802 H776 0.950 . S
C802 C798 1.385 . S
C802 C801 1.374 . S
C803 C800 1.499 . S
C803 C804 1.373 . S
C803 C805 1.389 . S
C804 H777 0.950 . S
C804 C790 1.377 . S
C804 C803 1.373 . S
C805 C789 1.377 . S
C805 C803 1.389 . S
C805 C806 1.524 . S
C806 C805 1.524 . S
C806 C807 1.397 . S
C806 C811 1.363 . S
C807 H778 0.950 . S
C807 C806 1.397 . S
C807 C808 1.334 . S
C808 H779 0.950 . S
C808 C807 1.334 . S
C808 C809 1.287 . S
C809 C808 1.287 . S
C809 C810 1.524 . S
C809 H812 0.999 . S
C810 H780 0.950 . S
C810 C809 1.524 . S
C810 C811 1.415 . S
C811 H781 0.950 . S
C811 C806 1.363 . S
C811 C810 1.415 . S
H812 C809 0.999 . S
H813 C794 0.913 . S
H814 C832 0.951 . S
H815 C834 0.951 . S
H816 C836 0.950 . S
H817 C837 0.950 . S
H818 C839 0.950 . S
H819 C842 0.950 . S
H820 C843 0.950 . S
H821 C845 0.950 . S
H822 C846 0.950 . S
H823 C847 0.951 . S
H824 C849 0.951 . S
H825 C851 0.950 . S
H826 C852 0.950 . S
H827 C854 0.950 . S
H828 C857 0.950 . S
H829 C858 0.950 . S
H830 C860 0.950 . S
H831 C861 0.950 . S
C832 H814 0.951 . S
C832 C833 1.366 . S
C832 C834 1.388 . S
C833 C832 1.366 . S
C833 C837 1.385 . S
C834 H815 0.951 . S
C834 C832 1.388 . S
C834 C835 1.366 . S
C835 C834 1.366 . S
C835 C836 1.414 . S
C835 C838 1.499 . S
C836 H816 0.950 . S
C836 C835 1.414 . S
C836 C837 1.374 . S
C837 H817 0.950 . S
C837 C833 1.385 . S
C837 C836 1.374 . S
C838 C835 1.499 . S
C838 C839 1.373 . S
C838 C840 1.389 . S
C839 H818 0.950 . S
C839 C838 1.373 . S
C839 C855 1.377 . S
C840 C838 1.389 . S
C840 C841 1.524 . S
C840 C854 1.377 . S
C841 C840 1.524 . S
C841 C842 1.397 . S
C841 C846 1.363 . S
C842 H819 0.950 . S
C842 C841 1.397 . S
C842 C843 1.334 . S
C843 H820 0.950 . S
C843 C842 1.334 . S
C843 C844 1.287 . S
C844 C843 1.287 . S
C844 C845 1.524 . S
C844 H863 0.913 . S
C845 H821 0.950 . S
C845 C844 1.524 . S
C845 C846 1.415 . S
C846 H822 0.950 . S
C846 C841 1.363 . S
C846 C845 1.415 . S
C847 H823 0.951 . S
C847 C848 1.366 . S
C847 C849 1.388 . S
C848 C847 1.366 . S
C848 C852 1.385 . S
C849 H824 0.951 . S
C849 C847 1.388 . S
C849 C850 1.366 . S
C850 C849 1.366 . S
C850 C851 1.414 . S
C850 C853 1.499 . S
C851 H825 0.950 . S
C851 C850 1.414 . S
C851 C852 1.374 . S
C852 H826 0.950 . S
C852 C848 1.385 . S
C852 C851 1.374 . S
C853 C850 1.499 . S
C853 C854 1.373 . S
C853 C855 1.389 . S
C854 H827 0.950 . S
C854 C840 1.377 . S
C854 C853 1.373 . S
C855 C839 1.377 . S
C855 C853 1.389 . S
C855 C856 1.524 . S
C856 C855 1.524 . S
C856 C857 1.397 . S
C856 C861 1.363 . S
C857 H828 0.950 . S
C857 C856 1.397 . S
C857 C858 1.334 . S
C858 H829 0.950 . S
C858 C857 1.334 . S
C858 C859 1.287 . S
C859 C858 1.287 . S
C859 C860 1.524 . S
C859 H862 0.999 . S
C860 H830 0.950 . S
C860 C859 1.524 . S
C860 C861 1.415 . S
C861 H831 0.950 . S
C861 C856 1.363 . S
C861 C860 1.415 . S
H862 C859 0.999 . S
H863 C844 0.913 . S
H864 C882 0.951 . S
H865 C884 0.951 . S
H866 C886 0.950 . S
H867 C887 0.950 . S
H868 C889 0.950 . S
H869 C892 0.950 . S
H870 C893 0.950 . S
H871 C895 0.950 . S
H872 C896 0.945 1_554 S
H873 C897 0.951 . S
H874 C899 0.951 . S
H875 C901 0.950 . S
H876 C902 0.950 . S
H877 C904 0.950 . S
H878 C907 0.950 . S
H879 C908 0.950 . S
H880 C910 0.950 . S
H881 C911 0.950 . S
C882 H864 0.951 . S
C882 C883 1.366 . S
C882 C884 1.388 . S
C883 C882 1.366 . S
C883 C887 1.385 . S
C884 H865 0.951 . S
C884 C882 1.388 . S
C884 C885 1.366 . S
C885 C884 1.366 . S
C885 C886 1.414 . S
C885 C888 1.499 . S
C886 H866 0.950 . S
C886 C885 1.414 . S
C886 C887 1.374 . S
C887 H867 0.950 . S
C887 C883 1.385 . S
C887 C886 1.374 . S
C888 C885 1.499 . S
C888 C889 1.373 . S
C888 C890 1.389 . S
C889 H868 0.950 . S
C889 C888 1.373 . S
C889 C905 1.377 . S
C890 C888 1.389 . S
C890 C891 1.520 1_554 S
C890 C904 1.377 1_554 S
C891 C890 1.520 1_556 S
C891 C892 1.405 . S
C891 C896 1.363 . S
C892 H869 0.950 . S
C892 C891 1.405 . S
C892 C893 1.334 . S
C893 H870 0.950 . S
C893 C892 1.334 . S
C893 C894 1.287 . S
C894 C893 1.287 . S
C894 C895 1.524 . S
C894 H913 0.913 . S
C895 H871 0.950 . S
C895 C894 1.524 . S
C895 C896 1.421 . S
C896 H872 0.945 1_556 S
C896 C891 1.363 . S
C896 C895 1.421 . S
C897 H873 0.951 . S
C897 C898 1.366 . S
C897 C899 1.388 . S
C898 C897 1.366 . S
C898 C902 1.385 . S
C899 H874 0.951 . S
C899 C897 1.388 . S
C899 C900 1.366 . S
C900 C899 1.366 . S
C900 C901 1.414 . S
C900 C903 1.499 . S
C901 H875 0.950 . S
C901 C900 1.414 . S
C901 C902 1.374 . S
C902 H876 0.950 . S
C902 C898 1.385 . S
C902 C901 1.374 . S
C903 C900 1.499 . S
C903 C904 1.373 . S
C903 C905 1.389 1_556 S
C904 H877 0.950 . S
C904 C890 1.377 1_556 S
C904 C903 1.373 . S
C905 C889 1.377 . S
C905 C903 1.389 1_554 S
C905 C906 1.524 . S
C906 C905 1.524 . S
C906 C907 1.397 . S
C906 C911 1.363 . S
C907 H878 0.950 . S
C907 C906 1.397 . S
C907 C908 1.334 . S
C908 H879 0.950 . S
C908 C907 1.334 . S
C908 C909 1.287 . S
C909 C908 1.287 . S
C909 C910 1.524 . S
C909 H912 0.999 . S
C910 H880 0.950 . S
C910 C909 1.524 . S
C910 C911 1.415 . S
C911 H881 0.950 . S
C911 C906 1.363 . S
C911 C910 1.415 . S
H912 C909 0.999 . S
H913 C894 0.913 . S
H914 C932 0.951 . S
H915 C934 0.951 . S
H916 C936 0.950 . S
H917 C937 0.950 . S
H918 C939 0.950 . S
H919 C942 0.913 1_556 S
H920 C943 0.950 1_556 S
H921 C945 0.950 . S
H922 C946 0.950 . S
H923 C947 0.951 . S
H924 C949 0.951 . S
H925 C951 0.950 . S
H926 C952 0.950 . S
H927 C954 0.950 . S
H928 C957 0.950 . S
H929 C958 0.950 . S
H930 C960 0.950 . S
H931 C961 0.950 . S
C932 H914 0.951 . S
C932 C933 1.366 . S
C932 C934 1.388 . S
C933 C932 1.366 . S
C933 C937 1.385 . S
C934 H915 0.951 . S
C934 C932 1.388 . S
C934 C935 1.366 . S
C935 C934 1.366 . S
C935 C936 1.414 . S
C935 C938 1.499 . S
C936 H916 0.950 . S
C936 C935 1.414 . S
C936 C937 1.374 . S
C937 H917 0.950 . S
C937 C933 1.385 . S
C937 C936 1.374 . S
C938 C935 1.499 . S
C938 C939 1.373 . S
C938 C940 1.389 1_556 S
C939 H918 0.950 . S
C939 C938 1.373 . S
C939 C955 1.377 . S
C940 C938 1.389 1_554 S
C940 C941 1.524 . S
C940 C954 1.377 . S
C941 C940 1.524 . S
C941 C942 1.425 . S
C941 C946 1.363 . S
C942 H919 0.913 1_554 S
C942 C941 1.425 . S
C942 C943 1.343 . S
C943 H920 0.950 1_554 S
C943 C942 1.343 . S
C943 C944 1.287 . S
C944 C943 1.287 . S
C944 C945 1.524 . S
C944 H963 0.913 . S
C945 H921 0.950 . S
C945 C944 1.524 . S
C945 C946 1.415 . S
C946 H922 0.950 . S
C946 C941 1.363 . S
C946 C945 1.415 . S
C947 H923 0.951 . S
C947 C948 1.366 . S
C947 C949 1.388 . S
C948 C947 1.366 . S
C948 C952 1.385 . S
C949 H924 0.951 . S
C949 C947 1.388 . S
C949 C950 1.366 . S
C950 C949 1.366 . S
C950 C951 1.414 . S
C950 C953 1.499 . S
C951 H925 0.950 . S
C951 C950 1.414 . S
C951 C952 1.374 . S
C952 H926 0.950 . S
C952 C948 1.385 . S
C952 C951 1.374 . S
C953 C950 1.499 . S
C953 C954 1.373 . S
C953 C955 1.389 1_554 S
C954 H927 0.950 . S
C954 C940 1.377 . S
C954 C953 1.373 . S
C955 C939 1.377 . S
C955 C953 1.389 1_556 S
C955 C956 1.524 . S
C956 C955 1.524 . S
C956 C957 1.397 1_556 S
C956 C961 1.363 . S
C957 H928 0.950 . S
C957 C956 1.397 1_554 S
C957 C958 1.334 . S
C958 H929 0.950 . S
C958 C957 1.334 . S
C958 C959 1.287 1_554 S
C959 C958 1.287 1_556 S
C959 C960 1.524 . S
C959 H962 0.999 . S
C960 H930 0.950 . S
C960 C959 1.524 . S
C960 C961 1.415 . S
C961 H931 0.950 . S
C961 C956 1.363 . S
C961 C960 1.415 . S
H962 C959 0.999 . S
H963 C944 0.913 . S
H964 C982 0.951 . S
H965 C984 0.951 . S
H966 C986 0.950 . S
H967 C987 0.950 . S
H968 C989 0.950 . S
H969 C992 0.950 1_554 S
H970 C993 0.950 . S
H971 C995 0.950 . S
H972 C996 0.950 . S
H973 C997 0.951 . S
H974 C999 0.951 . S
H975 C1001 0.950 . S
H976 C1002 0.950 . S
H977 C1004 0.950 . S
H978 C1007 0.950 . S
H979 C1008 0.950 . S
H980 C1010 0.950 . S
H981 C1011 0.950 . S
C982 H964 0.951 . S
C982 C983 1.366 . S
C982 C984 1.388 . S
C983 C982 1.366 . S
C983 C987 1.385 . S
C984 H965 0.951 . S
C984 C982 1.388 . S
C984 C985 1.366 . S
C985 C984 1.366 . S
C985 C986 1.414 . S
C985 C988 1.499 . S
C986 H966 0.950 . S
C986 C985 1.414 . S
C986 C987 1.374 . S
C987 H967 0.950 . S
C987 C983 1.385 . S
C987 C986 1.374 . S
C988 C985 1.499 . S
C988 C989 1.373 . S
C988 C990 1.389 1_554 S
C989 H968 0.950 . S
C989 C988 1.373 . S
C989 C1005 1.377 . S
C990 C988 1.389 1_556 S
C990 C991 1.524 . S
C990 C1004 1.377 . S
C991 C990 1.524 . S
C991 C992 1.397 . S
C991 C996 1.363 . S
C992 H969 0.950 1_556 S
C992 C991 1.397 . S
C992 C993 1.334 . S
C993 H970 0.950 . S
C993 C992 1.334 . S
C993 C994 1.287 . S
C994 C993 1.287 . S
C994 C995 1.524 . S
C994 H1013 0.913 . S
C995 H971 0.950 . S
C995 C994 1.524 . S
C995 C996 1.415 . S
C996 H972 0.950 . S
C996 C991 1.363 . S
C996 C995 1.415 . S
C997 H973 0.951 . S
C997 C998 1.366 . S
C997 C999 1.388 . S
C998 C997 1.366 . S
C998 C1002 1.385 . S
C999 H974 0.951 . S
C999 C997 1.388 . S
C999 C1000 1.366 . S
C1000 C999 1.366 . S
C1000 C1001 1.414 . S
C1000 C1003 1.499 . S
C1001 H975 0.950 . S
C1001 C1000 1.414 . S
C1001 C1002 1.374 . S
C1002 H976 0.950 . S
C1002 C998 1.385 . S
C1002 C1001 1.374 . S
C1003 C1000 1.499 . S
C1003 C1004 1.373 . S
C1003 C1005 1.389 1_556 S
C1004 H977 0.950 . S
C1004 C990 1.377 . S
C1004 C1003 1.373 . S
C1005 C989 1.377 . S
C1005 C1003 1.389 1_554 S
C1005 C1006 1.524 . S
C1006 C1005 1.524 . S
C1006 C1007 1.397 . S
C1006 C1011 1.363 . S
C1007 H978 0.950 . S
C1007 C1006 1.397 . S
C1007 C1008 1.334 . S
C1008 H979 0.950 . S
C1008 C1007 1.334 . S
C1008 C1009 1.287 . S
C1009 C1008 1.287 . S
C1009 C1010 1.524 . S
C1009 H1012 0.999 . S
C1010 H980 0.950 . S
C1010 C1009 1.524 . S
C1010 C1011 1.415 . S
C1011 H981 0.950 . S
C1011 C1006 1.363 . S
C1011 C1010 1.415 . S
H1012 C1009 0.999 . S
H1013 C994 0.913 . S
H1014 C1032 0.951 . S
H1015 C1034 0.951 . S
H1016 C1036 0.950 . S
H1017 C1037 0.950 . S
H1018 C1039 0.950 . S
H1019 C1042 0.950 . S
H1020 C1043 0.950 . S
H1021 C1045 0.950 . S
H1022 C1046 0.950 . S
H1023 C1047 0.951 . S
H1024 C1049 0.951 . S
H1025 C1051 0.950 . S
H1026 C1052 0.950 . S
H1027 C1054 0.950 . S
H1028 C1057 0.950 . S
H1029 C1058 0.950 . S
H1030 C1060 0.950 . S
H1031 C1061 0.950 . S
C1032 H1014 0.951 . S
C1032 C1033 1.366 . S
C1032 C1034 1.388 . S
C1033 C1032 1.366 . S
C1033 C1037 1.385 . S
C1034 H1015 0.951 . S
C1034 C1032 1.388 . S
C1034 C1035 1.366 . S
C1035 C1034 1.366 . S
C1035 C1036 1.414 . S
C1035 C1038 1.499 . S
C1036 H1016 0.950 . S
C1036 C1035 1.414 . S
C1036 C1037 1.374 . S
C1037 H1017 0.950 . S
C1037 C1033 1.385 . S
C1037 C1036 1.374 . S
C1038 C1035 1.499 . S
C1038 C1039 1.373 1_556 S
C1038 C1040 1.389 . S
C1039 H1018 0.950 . S
C1039 C1038 1.373 1_554 S
C1039 C1055 1.377 . S
C1040 C1038 1.389 . S
C1040 C1041 1.524 . S
C1040 C1054 1.377 . S
C1041 C1040 1.524 . S
C1041 C1042 1.397 . S
C1041 C1046 1.363 . S
C1042 H1019 0.950 . S
C1042 C1041 1.397 . S
C1042 C1043 1.334 . S
C1043 H1020 0.950 . S
C1043 C1042 1.334 . S
C1043 C1044 1.287 . S
C1044 C1043 1.287 . S
C1044 C1045 1.524 . S
C1044 H1063 0.913 . S
C1045 H1021 0.950 . S
C1045 C1044 1.524 . S
C1045 C1046 1.415 . S
C1046 H1022 0.950 . S
C1046 C1041 1.363 . S
C1046 C1045 1.415 . S
C1047 H1023 0.951 . S
C1047 C1048 1.366 . S
C1047 C1049 1.388 . S
C1048 C1047 1.366 . S
C1048 C1052 1.385 . S
C1049 H1024 0.951 . S
C1049 C1047 1.388 . S
C1049 C1050 1.366 . S
C1050 C1049 1.366 . S
C1050 C1051 1.414 . S
C1050 C1053 1.499 . S
C1051 H1025 0.950 . S
C1051 C1050 1.414 . S
C1051 C1052 1.374 . S
C1052 H1026 0.950 . S
C1052 C1048 1.385 . S
C1052 C1051 1.374 . S
C1053 C1050 1.499 . S
C1053 C1054 1.373 1_554 S
C1053 C1055 1.389 . S
C1054 H1027 0.950 . S
C1054 C1040 1.377 . S
C1054 C1053 1.373 1_556 S
C1055 C1039 1.377 . S
C1055 C1053 1.389 . S
C1055 C1056 1.524 . S
C1056 C1055 1.524 . S
C1056 C1057 1.397 . S
C1056 C1061 1.363 . S
C1057 H1028 0.950 . S
C1057 C1056 1.397 . S
C1057 C1058 1.334 . S
C1058 H1029 0.950 . S
C1058 C1057 1.334 . S
C1058 C1059 1.287 . S
C1059 C1058 1.287 . S
C1059 C1060 1.524 . S
C1059 H1062 0.999 . S
C1060 H1030 0.950 . S
C1060 C1059 1.524 . S
C1060 C1061 1.415 . S
C1061 H1031 0.950 . S
C1061 C1056 1.363 . S
C1061 C1060 1.415 . S
H1062 C1059 0.999 . S
H1063 C1044 0.913 . S
H1064 C1082 0.951 . S
H1065 C1084 0.951 . S
H1066 C1086 0.950 . S
H1067 C1087 0.950 . S
H1068 C1089 0.950 . S
H1069 C1092 0.950 . S
H1070 C1093 0.950 . S
H1071 C1095 0.950 . S
H1072 C1096 0.950 . S
H1073 C1097 0.951 . S
H1074 C1099 0.951 . S
H1075 C1101 0.950 . S
H1076 C1102 0.950 . S
H1077 C1104 0.950 . S
H1078 C1107 0.950 . S
H1079 C1108 0.950 . S
H1080 C1110 0.950 . S
H1081 C1111 0.950 . S
C1082 H1064 0.951 . S
C1082 C1083 1.366 . S
C1082 C1084 1.388 . S
C1083 C1082 1.366 . S
C1083 C1087 1.385 . S
C1084 H1065 0.951 . S
C1084 C1082 1.388 . S
C1084 C1085 1.366 . S
C1085 C1084 1.366 . S
C1085 C1086 1.414 . S
C1085 C1088 1.499 . S
C1086 H1066 0.950 . S
C1086 C1085 1.414 . S
C1086 C1087 1.374 . S
C1087 H1067 0.950 . S
C1087 C1083 1.385 . S
C1087 C1086 1.374 . S
C1088 C1085 1.499 . S
C1088 C1089 1.373 . S
C1088 C1090 1.389 . S
C1089 H1068 0.950 . S
C1089 C1088 1.373 . S
C1089 C1105 1.377 . S
C1090 C1088 1.389 . S
C1090 C1091 1.524 . S
C1090 C1104 1.377 . S
C1091 C1090 1.524 . S
C1091 C1092 1.397 . S
C1091 C1096 1.363 . S
C1092 H1069 0.950 . S
C1092 C1091 1.397 . S
C1092 C1093 1.334 . S
C1093 H1070 0.950 . S
C1093 C1092 1.334 . S
C1093 C1094 1.287 . S
C1094 C1093 1.287 . S
C1094 C1095 1.524 . S
C1094 H1113 0.913 . S
C1095 H1071 0.950 . S
C1095 C1094 1.524 . S
C1095 C1096 1.415 . S
C1096 H1072 0.950 . S
C1096 C1091 1.363 . S
C1096 C1095 1.415 . S
C1097 H1073 0.951 . S
C1097 C1098 1.366 . S
C1097 C1099 1.388 . S
C1098 C1097 1.366 . S
C1098 C1102 1.385 . S
C1099 H1074 0.951 . S
C1099 C1097 1.388 . S
C1099 C1100 1.366 . S
C1100 C1099 1.366 . S
C1100 C1101 1.414 . S
C1100 C1103 1.499 . S
C1101 H1075 0.950 . S
C1101 C1100 1.414 . S
C1101 C1102 1.374 . S
C1102 H1076 0.950 . S
C1102 C1098 1.385 . S
C1102 C1101 1.374 . S
C1103 C1100 1.499 . S
C1103 C1104 1.373 . S
C1103 C1105 1.389 . S
C1104 H1077 0.950 . S
C1104 C1090 1.377 . S
C1104 C1103 1.373 . S
C1105 C1089 1.377 . S
C1105 C1103 1.389 . S
C1105 C1106 1.524 . S
C1106 C1105 1.524 . S
C1106 C1107 1.397 . S
C1106 C1111 1.363 . S
C1107 H1078 0.950 . S
C1107 C1106 1.397 . S
C1107 C1108 1.334 . S
C1108 H1079 0.950 . S
C1108 C1107 1.334 . S
C1108 C1109 1.287 . S
C1109 C1108 1.287 . S
C1109 C1110 1.524 . S
C1109 H1112 0.999 . S
C1110 H1080 0.950 . S
C1110 C1109 1.524 . S
C1110 C1111 1.415 . S
C1111 H1081 0.950 . S
C1111 C1106 1.363 . S
C1111 C1110 1.415 . S
H1112 C1109 0.999 . S
H1113 C1094 0.913 . S
H1114 C1132 0.951 . S
H1115 C1134 0.951 . S
H1116 C1136 0.950 . S
H1117 C1137 0.950 . S
H1118 C1139 0.950 . S
H1119 C1142 0.950 . S
H1120 C1143 0.950 . S
H1121 C1145 0.950 . S
H1122 C1146 0.950 . S
H1123 C1147 0.951 . S
H1124 C1149 0.951 . S
H1125 C1151 0.950 . S
H1126 C1152 0.950 . S
H1127 C1154 0.950 . S
H1128 C1157 0.950 . S
H1129 C1158 0.950 . S
H1130 C1160 0.950 . S
H1131 C1161 0.950 . S
C1132 H1114 0.951 . S
C1132 C1133 1.366 . S
C1132 C1134 1.388 . S
C1133 C1132 1.366 . S
C1133 C1137 1.385 . S
C1134 H1115 0.951 . S
C1134 C1132 1.388 . S
C1134 C1135 1.366 . S
C1135 C1134 1.366 . S
C1135 C1136 1.414 . S
C1135 C1138 1.499 . S
C1136 H1116 0.950 . S
C1136 C1135 1.414 . S
C1136 C1137 1.374 . S
C1137 H1117 0.950 . S
C1137 C1133 1.385 . S
C1137 C1136 1.374 . S
C1138 C1135 1.499 . S
C1138 C1139 1.373 . S
C1138 C1140 1.389 . S
C1139 H1118 0.950 . S
C1139 C1138 1.373 . S
C1139 C1155 1.377 . S
C1140 C1138 1.389 . S
C1140 C1141 1.524 . S
C1140 C1154 1.377 . S
C1141 C1140 1.524 . S
C1141 C1142 1.397 . S
C1141 C1146 1.363 . S
C1142 H1119 0.950 . S
C1142 C1141 1.397 . S
C1142 C1143 1.334 . S
C1143 H1120 0.950 . S
C1143 C1142 1.334 . S
C1143 C1144 1.287 . S
C1144 C1143 1.287 . S
C1144 C1145 1.524 . S
C1144 H1163 0.913 . S
C1145 H1121 0.950 . S
C1145 C1144 1.524 . S
C1145 C1146 1.415 . S
C1146 H1122 0.950 . S
C1146 C1141 1.363 . S
C1146 C1145 1.415 . S
C1147 H1123 0.951 . S
C1147 C1148 1.366 . S
C1147 C1149 1.388 . S
C1148 C1147 1.366 . S
C1148 C1152 1.385 . S
C1149 H1124 0.951 . S
C1149 C1147 1.388 . S
C1149 C1150 1.366 . S
C1150 C1149 1.366 . S
C1150 C1151 1.414 . S
C1150 C1153 1.499 . S
C1151 H1125 0.950 . S
C1151 C1150 1.414 . S
C1151 C1152 1.374 . S
C1152 H1126 0.950 . S
C1152 C1148 1.385 . S
C1152 C1151 1.374 . S
C1153 C1150 1.499 . S
C1153 C1154 1.373 . S
C1153 C1155 1.389 . S
C1154 H1127 0.950 . S
C1154 C1140 1.377 . S
C1154 C1153 1.373 . S
C1155 C1139 1.377 . S
C1155 C1153 1.389 . S
C1155 C1156 1.524 . S
C1156 C1155 1.524 . S
C1156 C1157 1.397 . S
C1156 C1161 1.363 . S
C1157 H1128 0.950 . S
C1157 C1156 1.397 . S
C1157 C1158 1.334 . S
C1158 H1129 0.950 . S
C1158 C1157 1.334 . S
C1158 C1159 1.287 . S
C1159 C1158 1.287 . S
C1159 C1160 1.524 . S
C1159 H1162 0.999 . S
C1160 H1130 0.950 . S
C1160 C1159 1.524 . S
C1160 C1161 1.415 . S
C1161 H1131 0.950 . S
C1161 C1156 1.363 . S
C1161 C1160 1.415 . S
H1162 C1159 0.999 . S
H1163 C1144 0.913 . S
H1164 C1182 0.951 . S
H1165 C1184 0.951 . S
H1166 C1186 0.950 . S
H1167 C1187 0.950 . S
H1168 C1189 0.950 . S
H1169 C1192 0.950 . S
H1170 C1193 0.950 . S
H1171 C1195 0.950 . S
H1172 C1196 0.950 . S
H1173 C1197 0.951 . S
H1174 C1199 0.951 . S
H1175 C1201 0.950 . S
H1176 C1202 0.950 . S
H1177 C1204 0.950 . S
H1178 C1207 0.950 . S
H1179 C1208 0.950 . S
H1180 C1210 0.950 . S
H1181 C1211 0.950 . S
C1182 H1164 0.951 . S
C1182 C1183 1.366 . S
C1182 C1184 1.388 . S
C1183 C1182 1.366 . S
C1183 C1187 1.385 . S
C1184 H1165 0.951 . S
C1184 C1182 1.388 . S
C1184 C1185 1.366 . S
C1185 C1184 1.366 . S
C1185 C1186 1.414 . S
C1185 C1188 1.499 . S
C1186 H1166 0.950 . S
C1186 C1185 1.414 . S
C1186 C1187 1.374 . S
C1187 H1167 0.950 . S
C1187 C1183 1.385 . S
C1187 C1186 1.374 . S
C1188 C1185 1.499 . S
C1188 C1189 1.373 . S
C1188 C1190 1.389 . S
C1189 H1168 0.950 . S
C1189 C1188 1.373 . S
C1189 C1205 1.377 . S
C1190 C1188 1.389 . S
C1190 C1191 1.524 . S
C1190 C1204 1.377 . S
C1191 C1190 1.524 . S
C1191 C1192 1.397 . S
C1191 C1196 1.363 . S
C1192 H1169 0.950 . S
C1192 C1191 1.397 . S
C1192 C1193 1.334 . S
C1193 H1170 0.950 . S
C1193 C1192 1.334 . S
C1193 C1194 1.287 . S
C1194 C1193 1.287 . S
C1194 C1195 1.524 . S
C1194 H1213 0.913 . S
C1195 H1171 0.950 . S
C1195 C1194 1.524 . S
C1195 C1196 1.415 . S
C1196 H1172 0.950 . S
C1196 C1191 1.363 . S
C1196 C1195 1.415 . S
C1197 H1173 0.951 . S
C1197 C1198 1.366 . S
C1197 C1199 1.388 . S
C1198 C1197 1.366 . S
C1198 C1202 1.385 . S
C1199 H1174 0.951 . S
C1199 C1197 1.388 . S
C1199 C1200 1.366 . S
C1200 C1199 1.366 . S
C1200 C1201 1.414 . S
C1200 C1203 1.499 . S
C1201 H1175 0.950 . S
C1201 C1200 1.414 . S
C1201 C1202 1.374 . S
C1202 H1176 0.950 . S
C1202 C1198 1.385 . S
C1202 C1201 1.374 . S
C1203 C1200 1.499 . S
C1203 C1204 1.373 . S
C1203 C1205 1.389 . S
C1204 H1177 0.950 . S
C1204 C1190 1.377 . S
C1204 C1203 1.373 . S
C1205 C1189 1.377 . S
C1205 C1203 1.389 . S
C1205 C1206 1.524 . S
C1206 C1205 1.524 . S
C1206 C1207 1.397 . S
C1206 C1211 1.363 . S
C1207 H1178 0.950 . S
C1207 C1206 1.397 . S
C1207 C1208 1.334 . S
C1208 H1179 0.950 . S
C1208 C1207 1.334 . S
C1208 C1209 1.287 . S
C1209 C1208 1.287 . S
C1209 C1210 1.524 . S
C1209 H1212 0.999 . S
C1210 H1180 0.950 . S
C1210 C1209 1.524 . S
C1210 C1211 1.415 . S
C1211 H1181 0.950 . S
C1211 C1206 1.363 . S
C1211 C1210 1.415 . S
H1212 C1209 0.999 . S
H1213 C1194 0.913 . S
H1214 C1232 0.951 . S
H1215 C1234 0.951 . S
H1216 C1236 0.950 . S
H1217 C1237 0.950 . S
H1218 C1239 0.950 . S
H1219 C1242 0.950 . S
H1220 C1243 0.950 . S
H1221 C1245 0.950 . S
H1222 C1246 0.950 . S
H1223 C1247 0.951 . S
H1224 C1249 0.951 . S
H1225 C1251 0.950 . S
H1226 C1252 0.950 . S
H1227 C1254 0.950 . S
H1228 C1257 0.950 . S
H1229 C1258 0.950 . S
H1230 C1260 0.950 . S
H1231 C1261 0.950 . S
C1232 H1214 0.951 . S
C1232 C1233 1.366 . S
C1232 C1234 1.388 . S
C1233 C1232 1.366 . S
C1233 C1237 1.385 . S
C1234 H1215 0.951 . S
C1234 C1232 1.388 . S
C1234 C1235 1.366 . S
C1235 C1234 1.366 . S
C1235 C1236 1.414 . S
C1235 C1238 1.499 . S
C1236 H1216 0.950 . S
C1236 C1235 1.414 . S
C1236 C1237 1.374 . S
C1237 H1217 0.950 . S
C1237 C1233 1.385 . S
C1237 C1236 1.374 . S
C1238 C1235 1.499 . S
C1238 C1239 1.373 . S
C1238 C1240 1.389 . S
C1239 H1218 0.950 . S
C1239 C1238 1.373 . S
C1239 C1255 1.377 . S
C1240 C1238 1.389 . S
C1240 C1241 1.524 . S
C1240 C1254 1.377 . S
C1241 C1240 1.524 . S
C1241 C1242 1.397 . S
C1241 C1246 1.363 . S
C1242 H1219 0.950 . S
C1242 C1241 1.397 . S
C1242 C1243 1.334 . S
C1243 H1220 0.950 . S
C1243 C1242 1.334 . S
C1243 C1244 1.287 . S
C1244 C1243 1.287 . S
C1244 C1245 1.524 . S
C1244 H1263 0.913 . S
C1245 H1221 0.950 . S
C1245 C1244 1.524 . S
C1245 C1246 1.415 . S
C1246 H1222 0.950 . S
C1246 C1241 1.363 . S
C1246 C1245 1.415 . S
C1247 H1223 0.951 . S
C1247 C1248 1.366 . S
C1247 C1249 1.388 . S
C1248 C1247 1.366 . S
C1248 C1252 1.385 . S
C1249 H1224 0.951 . S
C1249 C1247 1.388 . S
C1249 C1250 1.366 . S
C1250 C1249 1.366 . S
C1250 C1251 1.414 . S
C1250 C1253 1.499 . S
C1251 H1225 0.950 . S
C1251 C1250 1.414 . S
C1251 C1252 1.374 . S
C1252 H1226 0.950 . S
C1252 C1248 1.385 . S
C1252 C1251 1.374 . S
C1253 C1250 1.499 . S
C1253 C1254 1.373 . S
C1253 C1255 1.389 . S
C1254 H1227 0.950 . S
C1254 C1240 1.377 . S
C1254 C1253 1.373 . S
C1255 C1239 1.377 . S
C1255 C1253 1.389 . S
C1255 C1256 1.524 . S
C1256 C1255 1.524 . S
C1256 C1257 1.397 . S
C1256 C1261 1.363 . S
C1257 H1228 0.950 . S
C1257 C1256 1.397 . S
C1257 C1258 1.334 . S
C1258 H1229 0.950 . S
C1258 C1257 1.334 . S
C1258 C1259 1.287 . S
C1259 C1258 1.287 . S
C1259 C1260 1.524 . S
C1259 H1262 0.999 . S
C1260 H1230 0.950 . S
C1260 C1259 1.524 . S
C1260 C1261 1.415 . S
C1261 H1231 0.950 . S
C1261 C1256 1.363 . S
C1261 C1260 1.415 . S
H1262 C1259 0.999 . S
H1263 C1244 0.913 . S
H1264 C1282 0.951 . S
H1265 C1284 0.951 . S
H1266 C1286 0.950 . S
H1267 C1287 0.950 . S
H1268 C1289 0.950 . S
H1269 C1292 0.950 . S
H1270 C1293 0.950 . S
H1271 C1295 0.950 . S
H1272 C1296 0.950 . S
H1273 C1297 0.951 . S
H1274 C1299 0.951 . S
H1275 C1301 0.950 . S
H1276 C1302 0.950 . S
H1277 C1304 0.950 . S
H1278 C1307 0.950 . S
H1279 C1308 0.950 . S
H1280 C1310 0.950 . S
H1281 C1311 0.950 . S
C1282 H1264 0.951 . S
C1282 C1283 1.366 . S
C1282 C1284 1.388 . S
C1283 C1282 1.366 . S
C1283 C1287 1.385 . S
C1284 H1265 0.951 . S
C1284 C1282 1.388 . S
C1284 C1285 1.366 . S
C1285 C1284 1.366 . S
C1285 C1286 1.414 . S
C1285 C1288 1.499 . S
C1286 H1266 0.950 . S
C1286 C1285 1.414 . S
C1286 C1287 1.374 . S
C1287 H1267 0.950 . S
C1287 C1283 1.385 . S
C1287 C1286 1.374 . S
C1288 C1285 1.499 . S
C1288 C1289 1.373 . S
C1288 C1290 1.389 . S
C1289 H1268 0.950 . S
C1289 C1288 1.373 . S
C1289 C1305 1.377 1_556 S
C1290 C1288 1.389 . S
C1290 C1291 1.524 . S
C1290 C1304 1.377 . S
C1291 C1290 1.524 . S
C1291 C1292 1.397 . S
C1291 C1296 1.363 . S
C1292 H1269 0.950 . S
C1292 C1291 1.397 . S
C1292 C1293 1.334 . S
C1293 H1270 0.950 . S
C1293 C1292 1.334 . S
C1293 C1294 1.287 . S
C1294 C1293 1.287 . S
C1294 C1295 1.524 . S
C1294 H1313 0.913 . S
C1295 H1271 0.950 . S
C1295 C1294 1.524 . S
C1295 C1296 1.415 . S
C1296 H1272 0.950 . S
C1296 C1291 1.363 . S
C1296 C1295 1.415 . S
C1297 H1273 0.951 . S
C1297 C1298 1.366 . S
C1297 C1299 1.388 . S
C1298 C1297 1.366 . S
C1298 C1302 1.385 . S
C1299 H1274 0.951 . S
C1299 C1297 1.388 . S
C1299 C1300 1.366 . S
C1300 C1299 1.366 . S
C1300 C1301 1.414 . S
C1300 C1303 1.499 . S
C1301 H1275 0.950 . S
C1301 C1300 1.414 . S
C1301 C1302 1.374 . S
C1302 H1276 0.950 . S
C1302 C1298 1.385 . S
C1302 C1301 1.374 . S
C1303 C1300 1.499 . S
C1303 C1304 1.373 1_554 S
C1303 C1305 1.389 . S
C1304 H1277 0.950 . S
C1304 C1290 1.377 . S
C1304 C1303 1.373 1_556 S
C1305 C1289 1.377 1_554 S
C1305 C1303 1.389 . S
C1305 C1306 1.524 . S
C1306 C1305 1.524 . S
C1306 C1307 1.397 . S
C1306 C1311 1.363 . S
C1307 H1278 0.950 . S
C1307 C1306 1.397 . S
C1307 C1308 1.334 . S
C1308 H1279 0.950 . S
C1308 C1307 1.334 . S
C1308 C1309 1.287 . S
C1309 C1308 1.287 . S
C1309 C1310 1.524 . S
C1309 H1312 0.999 . S
C1310 H1280 0.950 . S
C1310 C1309 1.524 . S
C1310 C1311 1.415 . S
C1311 H1281 0.950 . S
C1311 C1306 1.363 . S
C1311 C1310 1.415 . S
H1312 C1309 0.999 . S
H1313 C1294 0.913 . S
H1314 C1332 0.951 . S
H1315 C1334 0.951 . S
H1316 C1336 0.950 . S
H1317 C1337 0.950 . S
H1318 C1339 0.950 . S
H1319 C1342 0.950 . S
H1320 C1343 0.950 . S
H1321 C1345 0.950 . S
H1322 C1346 0.950 . S
H1323 C1347 0.951 . S
H1324 C1349 0.951 . S
H1325 C1351 0.950 . S
H1326 C1352 0.950 . S
H1327 C1354 0.950 . S
H1328 C1357 0.949 . S
H1329 C1358 0.950 . S
H1330 C1360 0.950 . S
H1331 C1361 0.950 . S
C1332 H1314 0.951 . S
C1332 C1333 1.366 . S
C1332 C1334 1.388 . S
C1333 C1332 1.366 . S
C1333 C1337 1.385 . S
C1334 H1315 0.951 . S
C1334 C1332 1.388 . S
C1334 C1335 1.366 . S
C1335 C1334 1.366 . S
C1335 C1336 1.414 . S
C1335 C1338 1.499 . S
C1336 H1316 0.950 . S
C1336 C1335 1.414 . S
C1336 C1337 1.374 . S
C1337 H1317 0.950 . S
C1337 C1333 1.385 . S
C1337 C1336 1.374 . S
C1338 C1335 1.499 . S
C1338 C1339 1.373 . S
C1338 C1340 1.389 1_554 S
C1339 H1318 0.950 . S
C1339 C1338 1.373 . S
C1339 C1355 1.377 . S
C1340 C1338 1.389 1_556 S
C1340 C1341 1.524 . S
C1340 C1354 1.377 . S
C1341 C1340 1.524 . S
C1341 C1342 1.397 . S
C1341 C1346 1.363 . S
C1342 H1319 0.950 . S
C1342 C1341 1.397 . S
C1342 C1343 1.334 . S
C1343 H1320 0.950 . S
C1343 C1342 1.334 . S
C1343 C1344 1.287 . S
C1344 C1343 1.287 . S
C1344 C1345 1.524 . S
C1344 H1363 0.913 . S
C1345 H1321 0.950 . S
C1345 C1344 1.524 . S
C1345 C1346 1.415 . S
C1346 H1322 0.950 . S
C1346 C1341 1.363 . S
C1346 C1345 1.415 . S
C1347 H1323 0.951 . S
C1347 C1348 1.366 . S
C1347 C1349 1.388 . S
C1348 C1347 1.366 . S
C1348 C1352 1.385 . S
C1349 H1324 0.951 . S
C1349 C1347 1.388 . S
C1349 C1350 1.366 . S
C1350 C1349 1.366 . S
C1350 C1351 1.414 . S
C1350 C1353 1.499 . S
C1351 H1325 0.950 . S
C1351 C1350 1.414 . S
C1351 C1352 1.374 . S
C1352 H1326 0.950 . S
C1352 C1348 1.385 . S
C1352 C1351 1.374 . S
C1353 C1350 1.499 . S
C1353 C1354 1.373 . S
C1353 C1355 1.389 1_556 S
C1354 H1327 0.950 . S
C1354 C1340 1.377 . S
C1354 C1353 1.373 . S
C1355 C1339 1.377 . S
C1355 C1353 1.389 1_554 S
C1355 C1356 1.524 . S
C1356 C1355 1.524 . S
C1356 C1357 1.397 . S
C1356 C1361 1.363 . S
C1357 H1328 0.949 . S
C1357 C1356 1.397 . S
C1357 C1358 1.334 . S
C1358 H1329 0.950 . S
C1358 C1357 1.334 . S
C1358 C1359 1.287 . S
C1359 C1358 1.287 . S
C1359 C1360 1.524 . S
C1359 H1362 0.999 . S
C1360 H1330 0.950 . S
C1360 C1359 1.524 . S
C1360 C1361 1.415 . S
C1361 H1331 0.950 . S
C1361 C1356 1.363 . S
C1361 C1360 1.415 . S
H1362 C1359 0.999 . S
H1363 C1344 0.913 . S
H1364 C1382 0.951 . S
H1365 C1384 0.951 . S
H1366 C1386 0.950 . S
H1367 C1387 0.950 . S
H1368 C1389 0.950 . S
H1369 C1392 0.950 1_554 S
H1370 C1393 0.941 1_554 S
H1371 C1395 0.950 . S
H1372 C1396 0.950 . S
H1373 C1397 0.951 . S
H1374 C1399 0.951 . S
H1375 C1401 0.950 . S
H1376 C1402 0.950 . S
H1377 C1404 0.950 . S
H1378 C1407 0.950 . S
H1379 C1408 0.950 . S
H1380 C1410 0.950 . S
H1381 C1411 0.950 . S
C1382 H1364 0.951 . S
C1382 C1383 1.366 . S
C1382 C1384 1.388 . S
C1383 C1382 1.366 . S
C1383 C1387 1.385 . S
C1384 H1365 0.951 . S
C1384 C1382 1.388 . S
C1384 C1385 1.366 . S
C1385 C1384 1.366 . S
C1385 C1386 1.414 . S
C1385 C1388 1.499 . S
C1386 H1366 0.950 . S
C1386 C1385 1.414 . S
C1386 C1387 1.374 . S
C1387 H1367 0.950 . S
C1387 C1383 1.385 . S
C1387 C1386 1.374 . S
C1388 C1385 1.499 . S
C1388 C1389 1.373 . S
C1388 C1390 1.389 . S
C1389 H1368 0.950 . S
C1389 C1388 1.373 . S
C1389 C1405 1.406 . S
C1390 C1388 1.389 . S
C1390 C1391 1.524 . S
C1390 C1404 1.377 1_556 S
C1391 C1390 1.524 . S
C1391 C1392 1.397 . S
C1391 C1396 1.363 . S
C1392 H1369 0.950 1_556 S
C1392 C1391 1.397 . S
C1392 C1393 1.334 . S
C1393 H1370 0.941 1_556 S
C1393 C1392 1.334 . S
C1393 C1394 1.287 . S
C1394 C1393 1.287 . S
C1394 C1395 1.524 . S
C1394 H1413 0.913 . S
C1395 H1371 0.950 . S
C1395 C1394 1.524 . S
C1395 C1396 1.415 . S
C1396 H1372 0.950 . S
C1396 C1391 1.363 . S
C1396 C1395 1.415 . S
C1397 H1373 0.951 . S
C1397 C1398 1.366 . S
C1397 C1399 1.388 . S
C1398 C1397 1.366 . S
C1398 C1402 1.385 . S
C1399 H1374 0.951 . S
C1399 C1397 1.388 . S
C1399 C1400 1.366 . S
C1400 C1399 1.366 . S
C1400 C1401 1.414 . S
C1400 C1403 1.499 . S
C1401 H1375 0.950 . S
C1401 C1400 1.414 . S
C1401 C1402 1.374 . S
C1402 H1376 0.950 . S
C1402 C1398 1.385 . S
C1402 C1401 1.374 . S
C1403 C1400 1.499 . S
C1403 C1404 1.373 . S
C1403 C1405 1.368 1_554 S
C1404 H1377 0.950 . S
C1404 C1390 1.377 1_554 S
C1404 C1403 1.373 . S
C1405 C1389 1.406 . S
C1405 C1403 1.368 1_556 S
C1405 C1406 1.523 1_556 S
C1406 C1405 1.523 1_554 S
C1406 C1407 1.394 1_554 S
C1406 C1411 1.365 . S
C1407 H1378 0.950 . S
C1407 C1406 1.394 1_556 S
C1407 C1408 1.334 . S
C1408 H1379 0.950 . S
C1408 C1407 1.334 . S
C1408 C1409 1.287 . S
C1409 C1408 1.287 . S
C1409 C1410 1.524 1_556 S
C1409 H1412 0.999 . S
C1410 H1380 0.950 . S
C1410 C1409 1.524 1_554 S
C1410 C1411 1.415 . S
C1411 H1381 0.950 . S
C1411 C1406 1.365 . S
C1411 C1410 1.415 . S
H1412 C1409 0.999 . S
H1413 C1394 0.913 . S
H1414 C1432 0.951 . S
H1415 C1434 0.951 . S
H1416 C1436 0.950 . S
H1417 C1437 0.950 . S
H1418 C1439 0.950 . S
H1419 C1442 0.950 . S
H1420 C1443 0.950 . S
H1421 C1445 0.950 . S
H1422 C1446 0.950 . S
H1423 C1447 0.951 . S
H1424 C1449 0.951 . S
H1425 C1451 0.950 . S
H1426 C1452 0.950 . S
H1427 C1454 0.950 . S
H1428 C1457 0.950 . S
H1429 C1458 0.950 . S
H1430 C1460 0.950 . S
H1431 C1461 0.950 . S
C1432 H1414 0.951 . S
C1432 C1433 1.366 . S
C1432 C1434 1.388 . S
C1433 C1432 1.366 . S
C1433 C1437 1.385 . S
C1434 H1415 0.951 . S
C1434 C1432 1.388 . S
C1434 C1435 1.366 . S
C1435 C1434 1.366 . S
C1435 C1436 1.414 . S
C1435 C1438 1.499 . S
C1436 H1416 0.950 . S
C1436 C1435 1.414 . S
C1436 C1437 1.374 . S
C1437 H1417 0.950 . S
C1437 C1433 1.385 . S
C1437 C1436 1.374 . S
C1438 C1435 1.499 . S
C1438 C1439 1.373 1_554 S
C1438 C1440 1.389 . S
C1439 H1418 0.950 . S
C1439 C1438 1.373 1_556 S
C1439 C1455 1.377 . S
C1440 C1438 1.389 . S
C1440 C1441 1.524 . S
C1440 C1454 1.377 1_554 S
C1441 C1440 1.524 . S
C1441 C1442 1.397 . S
C1441 C1446 1.363 . S
C1442 H1419 0.950 . S
C1442 C1441 1.397 . S
C1442 C1443 1.334 . S
C1443 H1420 0.950 . S
C1443 C1442 1.334 . S
C1443 C1444 1.287 . S
C1444 C1443 1.287 . S
C1444 C1445 1.524 . S
C1444 H1463 0.913 . S
C1445 H1421 0.950 . S
C1445 C1444 1.524 . S
C1445 C1446 1.415 . S
C1446 H1422 0.950 . S
C1446 C1441 1.363 . S
C1446 C1445 1.415 . S
C1447 H1423 0.951 . S
C1447 C1448 1.366 . S
C1447 C1449 1.388 . S
C1448 C1447 1.366 . S
C1448 C1452 1.385 . S
C1449 H1424 0.951 . S
C1449 C1447 1.388 . S
C1449 C1450 1.366 . S
C1450 C1449 1.366 . S
C1450 C1451 1.414 . S
C1450 C1453 1.499 . S
C1451 H1425 0.950 . S
C1451 C1450 1.414 . S
C1451 C1452 1.374 . S
C1452 H1426 0.950 . S
C1452 C1448 1.385 . S
C1452 C1451 1.374 . S
C1453 C1450 1.499 . S
C1453 C1454 1.373 . S
C1453 C1455 1.389 . S
C1454 H1427 0.950 . S
C1454 C1440 1.377 1_556 S
C1454 C1453 1.373 . S
C1455 C1439 1.377 . S
C1455 C1453 1.389 . S
C1455 C1456 1.524 . S
C1456 C1455 1.524 . S
C1456 C1457 1.397 . S
C1456 C1461 1.363 . S
C1457 H1428 0.950 . S
C1457 C1456 1.397 . S
C1457 C1458 1.334 . S
C1458 H1429 0.950 . S
C1458 C1457 1.334 . S
C1458 C1459 1.287 . S
C1459 C1458 1.287 . S
C1459 C1460 1.524 . S
C1459 H1462 0.999 . S
C1460 H1430 0.950 . S
C1460 C1459 1.524 . S
C1460 C1461 1.415 . S
C1461 H1431 0.950 . S
C1461 C1456 1.363 . S
C1461 C1460 1.415 . S
H1462 C1459 0.999 . S
H1463 C1444 0.913 . S
H1464 C1482 0.951 . S
H1465 C1484 0.951 . S
H1466 C1486 0.950 . S
H1467 C1487 0.950 . S
H1468 C1489 0.950 . S
H1469 C1492 0.950 . S
H1470 C1493 0.950 . S
H1471 C1495 0.950 . S
H1472 C1496 0.950 . S
H1473 C1497 0.951 . S
H1474 C1499 0.951 . S
H1475 C1501 0.950 . S
H1476 C1502 0.950 . S
H1477 C1504 0.950 . S
H1478 C1507 0.950 . S
H1479 C1508 0.950 . S
H1480 C1510 0.950 . S
H1481 C1511 0.950 . S
C1482 H1464 0.951 . S
C1482 C1483 1.366 . S
C1482 C1484 1.388 . S
C1483 C1482 1.366 . S
C1483 C1487 1.385 . S
C1484 H1465 0.951 . S
C1484 C1482 1.388 . S
C1484 C1485 1.366 . S
C1485 C1484 1.366 . S
C1485 C1486 1.414 . S
C1485 C1488 1.499 . S
C1486 H1466 0.950 . S
C1486 C1485 1.414 . S
C1486 C1487 1.374 . S
C1487 H1467 0.950 . S
C1487 C1483 1.385 . S
C1487 C1486 1.374 . S
C1488 C1485 1.499 . S
C1488 C1489 1.373 . S
C1488 C1490 1.389 . S
C1489 H1468 0.950 . S
C1489 C1488 1.373 . S
C1489 C1505 1.377 . S
C1490 C1488 1.389 . S
C1490 C1491 1.524 . S
C1490 C1504 1.377 . S
C1491 C1490 1.524 . S
C1491 C1492 1.397 . S
C1491 C1496 1.363 . S
C1492 H1469 0.950 . S
C1492 C1491 1.397 . S
C1492 C1493 1.334 . S
C1493 H1470 0.950 . S
C1493 C1492 1.334 . S
C1493 C1494 1.287 . S
C1494 C1493 1.287 . S
C1494 C1495 1.524 . S
C1494 H1513 0.913 . S
C1495 H1471 0.950 . S
C1495 C1494 1.524 . S
C1495 C1496 1.415 . S
C1496 H1472 0.950 . S
C1496 C1491 1.363 . S
C1496 C1495 1.415 . S
C1497 H1473 0.951 . S
C1497 C1498 1.366 . S
C1497 C1499 1.388 . S
C1498 C1497 1.366 . S
C1498 C1502 1.385 . S
C1499 H1474 0.951 . S
C1499 C1497 1.388 . S
C1499 C1500 1.366 . S
C1500 C1499 1.366 . S
C1500 C1501 1.414 . S
C1500 C1503 1.499 . S
C1501 H1475 0.950 . S
C1501 C1500 1.414 . S
C1501 C1502 1.374 . S
C1502 H1476 0.950 . S
C1502 C1498 1.385 . S
C1502 C1501 1.374 . S
C1503 C1500 1.499 . S
C1503 C1504 1.373 . S
C1503 C1505 1.389 . S
C1504 H1477 0.950 . S
C1504 C1490 1.377 . S
C1504 C1503 1.373 . S
C1505 C1489 1.377 . S
C1505 C1503 1.389 . S
C1505 C1506 1.524 . S
C1506 C1505 1.524 . S
C1506 C1507 1.397 . S
C1506 C1511 1.363 . S
C1507 H1478 0.950 . S
C1507 C1506 1.397 . S
C1507 C1508 1.334 . S
C1508 H1479 0.950 . S
C1508 C1507 1.334 . S
C1508 C1509 1.287 . S
C1509 C1508 1.287 . S
C1509 C1510 1.524 . S
C1509 H1512 0.999 . S
C1510 H1480 0.950 . S
C1510 C1509 1.524 . S
C1510 C1511 1.415 . S
C1511 H1481 0.950 . S
C1511 C1506 1.363 . S
C1511 C1510 1.415 . S
H1512 C1509 0.999 . S
H1513 C1494 0.913 . S
H1514 C1532 0.951 . S
H1515 C1534 0.951 . S
H1516 C1536 0.950 . S
H1517 C1537 0.950 . S
H1518 C1539 0.950 . S
H1519 C1542 0.950 . S
H1520 C1543 0.950 . S
H1521 C1545 0.950 . S
H1522 C1546 0.950 . S
H1523 C1547 0.951 . S
H1524 C1549 0.951 . S
H1525 C1551 0.950 . S
H1526 C1552 0.950 . S
H1527 C1554 0.950 . S
H1528 C1557 0.950 . S
H1529 C1558 0.950 . S
H1530 C1560 0.950 . S
H1531 C1561 0.950 . S
C1532 H1514 0.951 . S
C1532 C1533 1.366 . S
C1532 C1534 1.388 . S
C1533 C1532 1.366 . S
C1533 C1537 1.385 . S
C1534 H1515 0.951 . S
C1534 C1532 1.388 . S
C1534 C1535 1.366 . S
C1535 C1534 1.366 . S
C1535 C1536 1.414 . S
C1535 C1538 1.499 . S
C1536 H1516 0.950 . S
C1536 C1535 1.414 . S
C1536 C1537 1.374 . S
C1537 H1517 0.950 . S
C1537 C1533 1.385 . S
C1537 C1536 1.374 . S
C1538 C1535 1.499 . S
C1538 C1539 1.373 . S
C1538 C1540 1.389 . S
C1539 H1518 0.950 . S
C1539 C1538 1.373 . S
C1539 C1555 1.377 . S
C1540 C1538 1.389 . S
C1540 C1541 1.524 . S
C1540 C1554 1.377 . S
C1541 C1540 1.524 . S
C1541 C1542 1.397 . S
C1541 C1546 1.363 . S
C1542 H1519 0.950 . S
C1542 C1541 1.397 . S
C1542 C1543 1.334 . S
C1543 H1520 0.950 . S
C1543 C1542 1.334 . S
C1543 C1544 1.287 . S
C1544 C1543 1.287 . S
C1544 C1545 1.524 . S
C1544 H1563 0.913 . S
C1545 H1521 0.950 . S
C1545 C1544 1.524 . S
C1545 C1546 1.415 . S
C1546 H1522 0.950 . S
C1546 C1541 1.363 . S
C1546 C1545 1.415 . S
C1547 H1523 0.951 . S
C1547 C1548 1.366 . S
C1547 C1549 1.388 . S
C1548 C1547 1.366 . S
C1548 C1552 1.385 . S
C1549 H1524 0.951 . S
C1549 C1547 1.388 . S
C1549 C1550 1.366 . S
C1550 C1549 1.366 . S
C1550 C1551 1.414 . S
C1550 C1553 1.499 . S
C1551 H1525 0.950 . S
C1551 C1550 1.414 . S
C1551 C1552 1.374 . S
C1552 H1526 0.950 . S
C1552 C1548 1.385 . S
C1552 C1551 1.374 . S
C1553 C1550 1.499 . S
C1553 C1554 1.373 . S
C1553 C1555 1.389 . S
C1554 H1527 0.950 . S
C1554 C1540 1.377 . S
C1554 C1553 1.373 . S
C1555 C1539 1.377 . S
C1555 C1553 1.389 . S
C1555 C1556 1.524 . S
C1556 C1555 1.524 . S
C1556 C1557 1.397 . S
C1556 C1561 1.363 . S
C1557 H1528 0.950 . S
C1557 C1556 1.397 . S
C1557 C1558 1.334 . S
C1558 H1529 0.950 . S
C1558 C1557 1.334 . S
C1558 C1559 1.287 . S
C1559 C1558 1.287 . S
C1559 C1560 1.524 . S
C1559 H1562 0.999 . S
C1560 H1530 0.950 . S
C1560 C1559 1.524 . S
C1560 C1561 1.415 . S
C1561 H1531 0.950 . S
C1561 C1556 1.363 . S
C1561 C1560 1.415 . S
H1562 C1559 0.999 . S
H1563 C1544 0.913 . S
H1564 C1582 0.951 . S
H1565 C1584 0.951 . S
H1566 C1586 0.950 . S
H1567 C1587 0.950 . S
H1568 C1589 0.950 . S
H1569 C1592 0.950 . S
H1570 C1593 0.950 . S
H1571 C1595 0.950 . S
H1572 C1596 0.950 . S
H1573 C1597 0.951 . S
H1574 C1599 0.951 . S
H1575 C1601 0.950 . S
H1576 C1602 0.950 . S
H1577 C1604 0.950 . S
H1578 C1607 0.950 . S
H1579 C1608 0.950 . S
H1580 C1610 0.950 . S
H1581 C1611 0.950 . S
C1582 H1564 0.951 . S
C1582 C1583 1.366 . S
C1582 C1584 1.388 . S
C1583 C1582 1.366 . S
C1583 C1587 1.385 . S
C1584 H1565 0.951 . S
C1584 C1582 1.388 . S
C1584 C1585 1.366 . S
C1585 C1584 1.366 . S
C1585 C1586 1.414 . S
C1585 C1588 1.499 . S
C1586 H1566 0.950 . S
C1586 C1585 1.414 . S
C1586 C1587 1.374 . S
C1587 H1567 0.950 . S
C1587 C1583 1.385 . S
C1587 C1586 1.374 . S
C1588 C1585 1.499 . S
C1588 C1589 1.373 . S
C1588 C1590 1.389 . S
C1589 H1568 0.950 . S
C1589 C1588 1.373 . S
C1589 C1605 1.377 . S
C1590 C1588 1.389 . S
C1590 C1591 1.524 . S
C1590 C1604 1.377 . S
C1591 C1590 1.524 . S
C1591 C1592 1.397 . S
C1591 C1596 1.363 . S
C1592 H1569 0.950 . S
C1592 C1591 1.397 . S
C1592 C1593 1.334 . S
C1593 H1570 0.950 . S
C1593 C1592 1.334 . S
C1593 C1594 1.287 . S
C1594 C1593 1.287 . S
C1594 C1595 1.524 . S
C1594 H1613 0.913 . S
C1595 H1571 0.950 . S
C1595 C1594 1.524 . S
C1595 C1596 1.415 . S
C1596 H1572 0.950 . S
C1596 C1591 1.363 . S
C1596 C1595 1.415 . S
C1597 H1573 0.951 . S
C1597 C1598 1.366 . S
C1597 C1599 1.388 . S
C1598 C1597 1.366 . S
C1598 C1602 1.385 . S
C1599 H1574 0.951 . S
C1599 C1597 1.388 . S
C1599 C1600 1.366 . S
C1600 C1599 1.366 . S
C1600 C1601 1.414 . S
C1600 C1603 1.499 . S
C1601 H1575 0.950 . S
C1601 C1600 1.414 . S
C1601 C1602 1.374 . S
C1602 H1576 0.950 . S
C1602 C1598 1.385 . S
C1602 C1601 1.374 . S
C1603 C1600 1.499 . S
C1603 C1604 1.373 . S
C1603 C1605 1.389 . S
C1604 H1577 0.950 . S
C1604 C1590 1.377 . S
C1604 C1603 1.373 . S
C1605 C1589 1.377 . S
C1605 C1603 1.389 . S
C1605 C1606 1.524 . S
C1606 C1605 1.524 . S
C1606 C1607 1.397 . S
C1606 C1611 1.363 . S
C1607 H1578 0.950 . S
C1607 C1606 1.397 . S
C1607 C1608 1.334 . S
C1608 H1579 0.950 . S
C1608 C1607 1.334 . S
C1608 C1609 1.287 . S
C1609 C1608 1.287 . S
C1609 C1610 1.524 . S
C1609 H1612 0.999 . S
C1610 H1580 0.950 . S
C1610 C1609 1.524 . S
C1610 C1611 1.415 . S
C1611 H1581 0.950 . S
C1611 C1606 1.363 . S
C1611 C1610 1.415 . S
H1612 C1609 0.999 . S
H1613 C1594 0.913 . S
H1614 C1632 0.951 . S
H1615 C1634 0.951 . S
H1616 C1636 0.950 . S
H1617 C1637 0.950 . S
H1618 C1639 0.950 . S
H1619 C1642 0.950 . S
H1620 C1643 0.950 . S
H1621 C1645 0.950 . S
H1622 C1646 0.950 . S
H1623 C1647 0.951 . S
H1624 C1649 0.951 . S
H1625 C1651 0.950 . S
H1626 C1652 0.950 . S
H1627 C1654 0.950 . S
H1628 C1657 0.950 . S
H1629 C1658 0.950 . S
H1630 C1660 0.950 . S
H1631 C1661 0.950 . S
C1632 H1614 0.951 . S
C1632 C1633 1.366 . S
C1632 C1634 1.388 . S
C1633 C1632 1.366 . S
C1633 C1637 1.385 . S
C1634 H1615 0.951 . S
C1634 C1632 1.388 . S
C1634 C1635 1.366 . S
C1635 C1634 1.366 . S
C1635 C1636 1.414 . S
C1635 C1638 1.499 . S
C1636 H1616 0.950 . S
C1636 C1635 1.414 . S
C1636 C1637 1.374 . S
C1637 H1617 0.950 . S
C1637 C1633 1.385 . S
C1637 C1636 1.374 . S
C1638 C1635 1.499 . S
C1638 C1639 1.373 . S
C1638 C1640 1.389 . S
C1639 H1618 0.950 . S
C1639 C1638 1.373 . S
C1639 C1655 1.377 . S
C1640 C1638 1.389 . S
C1640 C1641 1.524 . S
C1640 C1654 1.377 . S
C1641 C1640 1.524 . S
C1641 C1642 1.397 . S
C1641 C1646 1.363 . S
C1642 H1619 0.950 . S
C1642 C1641 1.397 . S
C1642 C1643 1.334 . S
C1643 H1620 0.950 . S
C1643 C1642 1.334 . S
C1643 C1644 1.287 . S
C1644 C1643 1.287 . S
C1644 C1645 1.524 . S
C1644 H1663 0.913 . S
C1645 H1621 0.950 . S
C1645 C1644 1.524 . S
C1645 C1646 1.415 . S
C1646 H1622 0.950 . S
C1646 C1641 1.363 . S
C1646 C1645 1.415 . S
C1647 H1623 0.951 . S
C1647 C1648 1.366 . S
C1647 C1649 1.388 . S
C1648 C1647 1.366 . S
C1648 C1652 1.385 . S
C1649 H1624 0.951 . S
C1649 C1647 1.388 . S
C1649 C1650 1.366 . S
C1650 C1649 1.366 . S
C1650 C1651 1.414 . S
C1650 C1653 1.499 . S
C1651 H1625 0.950 . S
C1651 C1650 1.414 . S
C1651 C1652 1.374 . S
C1652 H1626 0.950 . S
C1652 C1648 1.385 . S
C1652 C1651 1.374 . S
C1653 C1650 1.499 . S
C1653 C1654 1.373 . S
C1653 C1655 1.389 . S
C1654 H1627 0.950 . S
C1654 C1640 1.377 . S
C1654 C1653 1.373 . S
C1655 C1639 1.377 . S
C1655 C1653 1.389 . S
C1655 C1656 1.524 . S
C1656 C1655 1.524 . S
C1656 C1657 1.397 . S
C1656 C1661 1.363 . S
C1657 H1628 0.950 . S
C1657 C1656 1.397 . S
C1657 C1658 1.334 . S
C1658 H1629 0.950 . S
C1658 C1657 1.334 . S
C1658 C1659 1.287 . S
C1659 C1658 1.287 . S
C1659 C1660 1.524 . S
C1659 H1662 0.999 . S
C1660 H1630 0.950 . S
C1660 C1659 1.524 . S
C1660 C1661 1.415 . S
C1661 H1631 0.950 . S
C1661 C1656 1.363 . S
C1661 C1660 1.415 . S
H1662 C1659 0.999 . S
H1663 C1644 0.913 . S
H1664 C1682 0.951 . S
H1665 C1684 0.951 . S
H1666 C1686 0.950 . S
H1667 C1687 0.950 . S
H1668 C1689 0.950 . S
H1669 C1692 0.950 . S
H1670 C1693 0.950 . S
H1671 C1695 0.950 . S
H1672 C1696 0.950 . S
H1673 C1697 0.951 . S
H1674 C1699 0.951 . S
H1675 C1701 0.950 . S
H1676 C1702 0.950 . S
H1677 C1704 0.950 . S
H1678 C1707 0.950 . S
H1679 C1708 0.950 . S
H1680 C1710 0.950 . S
H1681 C1711 0.950 . S
C1682 H1664 0.951 . S
C1682 C1683 1.366 . S
C1682 C1684 1.388 . S
C1683 C1682 1.366 . S
C1683 C1687 1.385 . S
C1684 H1665 0.951 . S
C1684 C1682 1.388 . S
C1684 C1685 1.366 . S
C1685 C1684 1.366 . S
C1685 C1686 1.414 . S
C1685 C1688 1.499 . S
C1686 H1666 0.950 . S
C1686 C1685 1.414 . S
C1686 C1687 1.374 . S
C1687 H1667 0.950 . S
C1687 C1683 1.385 . S
C1687 C1686 1.374 . S
C1688 C1685 1.499 . S
C1688 C1689 1.373 . S
C1688 C1690 1.389 . S
C1689 H1668 0.950 . S
C1689 C1688 1.373 . S
C1689 C1705 1.377 . S
C1690 C1688 1.389 . S
C1690 C1691 1.524 . S
C1690 C1704 1.377 . S
C1691 C1690 1.524 . S
C1691 C1692 1.397 . S
C1691 C1696 1.363 . S
C1692 H1669 0.950 . S
C1692 C1691 1.397 . S
C1692 C1693 1.334 . S
C1693 H1670 0.950 . S
C1693 C1692 1.334 . S
C1693 C1694 1.287 . S
C1694 C1693 1.287 . S
C1694 C1695 1.524 . S
C1694 H1713 0.913 . S
C1695 H1671 0.950 . S
C1695 C1694 1.524 . S
C1695 C1696 1.415 . S
C1696 H1672 0.950 . S
C1696 C1691 1.363 . S
C1696 C1695 1.415 . S
C1697 H1673 0.951 . S
C1697 C1698 1.366 . S
C1697 C1699 1.388 . S
C1698 C1697 1.366 . S
C1698 C1702 1.385 . S
C1699 H1674 0.951 . S
C1699 C1697 1.388 . S
C1699 C1700 1.366 . S
C1700 C1699 1.366 . S
C1700 C1701 1.414 . S
C1700 C1703 1.499 . S
C1701 H1675 0.950 . S
C1701 C1700 1.414 . S
C1701 C1702 1.374 . S
C1702 H1676 0.950 . S
C1702 C1698 1.385 . S
C1702 C1701 1.374 . S
C1703 C1700 1.499 . S
C1703 C1704 1.373 . S
C1703 C1705 1.389 . S
C1704 H1677 0.950 . S
C1704 C1690 1.377 . S
C1704 C1703 1.373 . S
C1705 C1689 1.377 . S
C1705 C1703 1.389 . S
C1705 C1706 1.524 . S
C1706 C1705 1.524 . S
C1706 C1707 1.397 . S
C1706 C1711 1.363 . S
C1707 H1678 0.950 . S
C1707 C1706 1.397 . S
C1707 C1708 1.334 . S
C1708 H1679 0.950 . S
C1708 C1707 1.334 . S
C1708 C1709 1.287 . S
C1709 C1708 1.287 . S
C1709 C1710 1.524 . S
C1709 H1712 0.999 . S
C1710 H1680 0.950 . S
C1710 C1709 1.524 . S
C1710 C1711 1.415 . S
C1711 H1681 0.950 . S
C1711 C1706 1.363 . S
C1711 C1710 1.415 . S
H1712 C1709 0.999 . S
H1713 C1694 0.913 . S
H1714 C1732 0.951 . S
H1715 C1734 0.951 . S
H1716 C1736 0.950 . S
H1717 C1737 0.950 . S
H1718 C1739 0.950 . S
H1719 C1742 0.950 . S
H1720 C1743 0.950 . S
H1721 C1745 0.950 . S
H1722 C1746 0.950 . S
H1723 C1747 0.951 . S
H1724 C1749 0.951 . S
H1725 C1751 0.950 . S
H1726 C1752 0.950 . S
H1727 C1754 0.950 . S
H1728 C1757 0.950 . S
H1729 C1758 0.950 . S
H1730 C1760 0.950 . S
H1731 C1761 0.950 . S
C1732 H1714 0.951 . S
C1732 C1733 1.366 . S
C1732 C1734 1.388 . S
C1733 C1732 1.366 . S
C1733 C1737 1.385 . S
C1734 H1715 0.951 . S
C1734 C1732 1.388 . S
C1734 C1735 1.366 . S
C1735 C1734 1.366 . S
C1735 C1736 1.414 . S
C1735 C1738 1.499 . S
C1736 H1716 0.950 . S
C1736 C1735 1.414 . S
C1736 C1737 1.374 . S
C1737 H1717 0.950 . S
C1737 C1733 1.385 . S
C1737 C1736 1.374 . S
C1738 C1735 1.499 . S
C1738 C1739 1.373 . S
C1738 C1740 1.389 . S
C1739 H1718 0.950 . S
C1739 C1738 1.373 . S
C1739 C1755 1.377 . S
C1740 C1738 1.389 . S
C1740 C1741 1.524 . S
C1740 C1754 1.377 . S
C1741 C1740 1.524 . S
C1741 C1742 1.397 . S
C1741 C1746 1.363 . S
C1742 H1719 0.950 . S
C1742 C1741 1.397 . S
C1742 C1743 1.334 . S
C1743 H1720 0.950 . S
C1743 C1742 1.334 . S
C1743 C1744 1.287 . S
C1744 C1743 1.287 . S
C1744 C1745 1.524 . S
C1744 H1763 0.913 . S
C1745 H1721 0.950 . S
C1745 C1744 1.524 . S
C1745 C1746 1.415 . S
C1746 H1722 0.950 . S
C1746 C1741 1.363 . S
C1746 C1745 1.415 . S
C1747 H1723 0.951 . S
C1747 C1748 1.366 . S
C1747 C1749 1.388 . S
C1748 C1747 1.366 . S
C1748 C1752 1.385 . S
C1749 H1724 0.951 . S
C1749 C1747 1.388 . S
C1749 C1750 1.366 . S
C1750 C1749 1.366 . S
C1750 C1751 1.414 . S
C1750 C1753 1.499 . S
C1751 H1725 0.950 . S
C1751 C1750 1.414 . S
C1751 C1752 1.374 . S
C1752 H1726 0.950 . S
C1752 C1748 1.385 . S
C1752 C1751 1.374 . S
C1753 C1750 1.499 . S
C1753 C1754 1.373 . S
C1753 C1755 1.389 . S
C1754 H1727 0.950 . S
C1754 C1740 1.377 . S
C1754 C1753 1.373 . S
C1755 C1739 1.377 . S
C1755 C1753 1.389 . S
C1755 C1756 1.524 . S
C1756 C1755 1.524 . S
C1756 C1757 1.397 . S
C1756 C1761 1.363 . S
C1757 H1728 0.950 . S
C1757 C1756 1.397 . S
C1757 C1758 1.334 . S
C1758 H1729 0.950 . S
C1758 C1757 1.334 . S
C1758 C1759 1.287 . S
C1759 C1758 1.287 . S
C1759 C1760 1.524 . S
C1759 H1762 0.999 . S
C1760 H1730 0.950 . S
C1760 C1759 1.524 . S
C1760 C1761 1.415 . S
C1761 H1731 0.950 . S
C1761 C1756 1.363 . S
C1761 C1760 1.415 . S
H1762 C1759 0.999 . S
H1763 C1744 0.913 . S
H1764 C1782 0.951 . S
H1765 C1784 0.951 . S
H1766 C1786 0.950 . S
H1767 C1787 0.950 . S
H1768 C1789 0.950 . S
H1769 C1792 0.950 . S
H1770 C1793 0.950 . S
H1771 C1795 0.950 . S
H1772 C1796 0.950 . S
H1773 C1797 0.951 . S
H1774 C1799 0.951 . S
H1775 C1801 0.950 . S
H1776 C1802 0.950 . S
H1777 C1804 0.950 . S
H1778 C1807 0.950 . S
H1779 C1808 0.950 . S
H1780 C1810 0.950 . S
H1781 C1811 0.950 . S
C1782 H1764 0.951 . S
C1782 C1783 1.366 . S
C1782 C1784 1.388 . S
C1783 C1782 1.366 . S
C1783 C1787 1.385 . S
C1784 H1765 0.951 . S
C1784 C1782 1.388 . S
C1784 C1785 1.366 . S
C1785 C1784 1.366 . S
C1785 C1786 1.414 . S
C1785 C1788 1.499 . S
C1786 H1766 0.950 . S
C1786 C1785 1.414 . S
C1786 C1787 1.374 . S
C1787 H1767 0.950 . S
C1787 C1783 1.385 . S
C1787 C1786 1.374 . S
C1788 C1785 1.499 . S
C1788 C1789 1.373 . S
C1788 C1790 1.389 . S
C1789 H1768 0.950 . S
C1789 C1788 1.373 . S
C1789 C1805 1.377 . S
C1790 C1788 1.389 . S
C1790 C1791 1.524 . S
C1790 C1804 1.377 . S
C1791 C1790 1.524 . S
C1791 C1792 1.397 . S
C1791 C1796 1.363 . S
C1792 H1769 0.950 . S
C1792 C1791 1.397 . S
C1792 C1793 1.334 . S
C1793 H1770 0.950 . S
C1793 C1792 1.334 . S
C1793 C1794 1.287 . S
C1794 C1793 1.287 . S
C1794 C1795 1.524 . S
C1794 H1813 0.913 . S
C1795 H1771 0.950 . S
C1795 C1794 1.524 . S
C1795 C1796 1.415 . S
C1796 H1772 0.950 . S
C1796 C1791 1.363 . S
C1796 C1795 1.415 . S
C1797 H1773 0.951 . S
C1797 C1798 1.366 . S
C1797 C1799 1.388 . S
C1798 C1797 1.366 . S
C1798 C1802 1.385 . S
C1799 H1774 0.951 . S
C1799 C1797 1.388 . S
C1799 C1800 1.366 . S
C1800 C1799 1.366 . S
C1800 C1801 1.414 . S
C1800 C1803 1.499 . S
C1801 H1775 0.950 . S
C1801 C1800 1.414 . S
C1801 C1802 1.374 . S
C1802 H1776 0.950 . S
C1802 C1798 1.385 . S
C1802 C1801 1.374 . S
C1803 C1800 1.499 . S
C1803 C1804 1.373 . S
C1803 C1805 1.389 . S
C1804 H1777 0.950 . S
C1804 C1790 1.377 . S
C1804 C1803 1.373 . S
C1805 C1789 1.377 . S
C1805 C1803 1.389 . S
C1805 C1806 1.524 . S
C1806 C1805 1.524 . S
C1806 C1807 1.397 . S
C1806 C1811 1.363 . S
C1807 H1778 0.950 . S
C1807 C1806 1.397 . S
C1807 C1808 1.334 . S
C1808 H1779 0.950 . S
C1808 C1807 1.334 . S
C1808 C1809 1.287 . S
C1809 C1808 1.287 . S
C1809 C1810 1.524 . S
C1809 H1812 0.999 . S
C1810 H1780 0.950 . S
C1810 C1809 1.524 . S
C1810 C1811 1.415 . S
C1811 H1781 0.950 . S
C1811 C1806 1.363 . S
C1811 C1810 1.415 . S
H1812 C1809 0.999 . S
H1813 C1794 0.913 . S
H1814 C1832 0.951 . S
H1815 C1834 0.951 . S
H1816 C1836 0.950 . S
H1817 C1837 0.950 . S
H1818 C1839 0.950 . S
H1819 C1842 0.950 . S
H1820 C1843 0.950 . S
H1821 C1845 0.950 . S
H1822 C1846 0.950 . S
H1823 C1847 0.951 . S
H1824 C1849 0.951 . S
H1825 C1851 0.950 . S
H1826 C1852 0.950 . S
H1827 C1854 0.950 . S
H1828 C1857 0.950 . S
H1829 C1858 0.950 . S
H1830 C1860 0.950 . S
H1831 C1861 0.950 1_655 S
C1832 H1814 0.951 . S
C1832 C1833 1.366 . S
C1832 C1834 1.388 . S
C1833 C1832 1.366 . S
C1833 C1837 1.385 . S
C1834 H1815 0.951 . S
C1834 C1832 1.388 . S
C1834 C1835 1.366 . S
C1835 C1834 1.366 . S
C1835 C1836 1.414 . S
C1835 C1838 1.499 . S
C1836 H1816 0.950 . S
C1836 C1835 1.414 . S
C1836 C1837 1.374 . S
C1837 H1817 0.950 . S
C1837 C1833 1.385 . S
C1837 C1836 1.374 . S
C1838 C1835 1.499 . S
C1838 C1839 1.373 . S
C1838 C1840 1.389 . S
C1839 H1818 0.950 . S
C1839 C1838 1.373 . S
C1839 C1855 1.377 . S
C1840 C1838 1.389 . S
C1840 C1841 1.524 . S
C1840 C1854 1.377 . S
C1841 C1840 1.524 . S
C1841 C1842 1.397 . S
C1841 C1846 1.363 . S
C1842 H1819 0.950 . S
C1842 C1841 1.397 . S
C1842 C1843 1.334 . S
C1843 H1820 0.950 . S
C1843 C1842 1.334 . S
C1843 C1844 1.287 . S
C1844 C1843 1.287 . S
C1844 C1845 1.524 . S
C1844 H1863 0.913 . S
C1845 H1821 0.950 . S
C1845 C1844 1.524 . S
C1845 C1846 1.415 . S
C1846 H1822 0.950 . S
C1846 C1841 1.363 . S
C1846 C1845 1.415 . S
C1847 H1823 0.951 . S
C1847 C1848 1.366 . S
C1847 C1849 1.388 . S
C1848 C1847 1.366 . S
C1848 C1852 1.385 . S
C1849 H1824 0.951 . S
C1849 C1847 1.388 . S
C1849 C1850 1.366 . S
C1850 C1849 1.366 . S
C1850 C1851 1.414 . S
C1850 C1853 1.499 . S
C1851 H1825 0.950 . S
C1851 C1850 1.414 . S
C1851 C1852 1.374 . S
C1852 H1826 0.950 . S
C1852 C1848 1.385 . S
C1852 C1851 1.374 . S
C1853 C1850 1.499 . S
C1853 C1854 1.373 . S
C1853 C1855 1.389 . S
C1854 H1827 0.950 . S
C1854 C1840 1.377 . S
C1854 C1853 1.373 . S
C1855 C1839 1.377 . S
C1855 C1853 1.389 . S
C1855 C1856 1.524 . S
C1856 C1855 1.524 . S
C1856 C1857 1.397 . S
C1856 C1861 1.363 . S
C1857 H1828 0.950 . S
C1857 C1856 1.397 . S
C1857 C1858 1.334 . S
C1858 H1829 0.950 . S
C1858 C1857 1.334 . S
C1858 C1859 1.287 . S
C1859 C1858 1.287 . S
C1859 C1860 1.524 1_455 S
C1859 H1862 0.999 1_455 S
C1860 H1830 0.950 . S
C1860 C1859 1.524 1_655 S
C1860 C1861 1.415 1_655 S
C1861 H1831 0.950 1_455 S
C1861 C1856 1.363 . S
C1861 C1860 1.415 1_455 S
H1862 C1859 0.999 1_655 S
H1863 C1844 0.913 . S
H1864 C1882 0.951 . S
H1865 C1884 0.951 . S
H1866 C1886 0.950 . S
H1867 C1887 0.950 . S
H1868 C1889 0.950 . S
H1869 C1892 0.950 . S
H1870 C1893 0.950 . S
H1871 C1895 0.950 . S
H1872 C1896 0.950 . S
H1873 C1897 0.951 . S
H1874 C1899 0.951 . S
H1875 C1901 0.950 . S
H1876 C1902 0.950 . S
H1877 C1904 0.950 . S
H1878 C1907 0.950 . S
H1879 C1908 0.950 . S
H1880 C1910 0.950 . S
H1881 C1911 0.950 . S
C1882 H1864 0.951 . S
C1882 C1883 1.366 . S
C1882 C1884 1.388 . S
C1883 C1882 1.366 . S
C1883 C1887 1.385 . S
C1884 H1865 0.951 . S
C1884 C1882 1.388 . S
C1884 C1885 1.366 . S
C1885 C1884 1.366 . S
C1885 C1886 1.414 . S
C1885 C1888 1.499 . S
C1886 H1866 0.950 . S
C1886 C1885 1.414 . S
C1886 C1887 1.374 . S
C1887 H1867 0.950 . S
C1887 C1883 1.385 . S
C1887 C1886 1.374 . S
C1888 C1885 1.499 . S
C1888 C1889 1.373 . S
C1888 C1890 1.389 . S
C1889 H1868 0.950 . S
C1889 C1888 1.373 . S
C1889 C1905 1.377 . S
C1890 C1888 1.389 . S
C1890 C1891 1.524 . S
C1890 C1904 1.377 . S
C1891 C1890 1.524 . S
C1891 C1892 1.397 . S
C1891 C1896 1.363 . S
C1892 H1869 0.950 . S
C1892 C1891 1.397 . S
C1892 C1893 1.334 . S
C1893 H1870 0.950 . S
C1893 C1892 1.334 . S
C1893 C1894 1.287 . S
C1894 C1893 1.287 . S
C1894 C1895 1.524 . S
C1894 H1913 0.913 . S
C1895 H1871 0.950 . S
C1895 C1894 1.524 . S
C1895 C1896 1.415 . S
C1896 H1872 0.950 . S
C1896 C1891 1.363 . S
C1896 C1895 1.415 . S
C1897 H1873 0.951 . S
C1897 C1898 1.366 . S
C1897 C1899 1.388 . S
C1898 C1897 1.366 . S
C1898 C1902 1.385 . S
C1899 H1874 0.951 . S
C1899 C1897 1.388 . S
C1899 C1900 1.366 . S
C1900 C1899 1.366 . S
C1900 C1901 1.414 . S
C1900 C1903 1.499 . S
C1901 H1875 0.950 . S
C1901 C1900 1.414 . S
C1901 C1902 1.374 . S
C1902 H1876 0.950 . S
C1902 C1898 1.385 . S
C1902 C1901 1.374 . S
C1903 C1900 1.499 . S
C1903 C1904 1.373 . S
C1903 C1905 1.389 . S
C1904 H1877 0.950 . S
C1904 C1890 1.377 . S
C1904 C1903 1.373 . S
C1905 C1889 1.377 . S
C1905 C1903 1.389 . S
C1905 C1906 1.524 . S
C1906 C1905 1.524 . S
C1906 C1907 1.397 . S
C1906 C1911 1.363 . S
C1907 H1878 0.950 . S
C1907 C1906 1.397 . S
C1907 C1908 1.334 1_565 S
C1908 H1879 0.950 . S
C1908 C1907 1.334 1_545 S
C1908 C1909 1.287 1_545 S
C1909 C1908 1.287 1_565 S
C1909 C1910 1.520 . S
C1909 H1912 1.002 1_565 S
C1910 H1880 0.950 . S
C1910 C1909 1.520 . S
C1910 C1911 1.415 . S
C1911 H1881 0.950 . S
C1911 C1906 1.363 . S
C1911 C1910 1.415 . S
H1912 C1909 1.002 1_545 S
H1913 C1894 0.913 . S
H1914 C1932 0.951 . S
H1915 C1934 0.951 . S
H1916 C1936 0.950 . S
H1917 C1937 0.950 . S
H1918 C1939 0.950 . S
H1919 C1942 0.950 . S
H1920 C1943 0.950 . S
H1921 C1945 0.950 . S
H1922 C1946 0.950 . S
H1923 C1947 0.951 . S
H1924 C1949 0.951 . S
H1925 C1951 0.950 . S
H1926 C1952 0.950 . S
H1927 C1954 0.950 . S
H1928 C1957 0.950 . S
H1929 C1958 0.950 . S
H1930 C1960 0.950 . S
H1931 C1961 0.950 . S
C1932 H1914 0.951 . S
C1932 C1933 1.366 . S
C1932 C1934 1.388 . S
C1933 C1932 1.366 . S
C1933 C1937 1.385 . S
C1934 H1915 0.951 . S
C1934 C1932 1.388 . S
C1934 C1935 1.366 . S
C1935 C1934 1.366 . S
C1935 C1936 1.414 . S
C1935 C1938 1.499 . S
C1936 H1916 0.950 . S
C1936 C1935 1.414 . S
C1936 C1937 1.374 . S
C1937 H1917 0.950 . S
C1937 C1933 1.385 . S
C1937 C1936 1.374 . S
C1938 C1935 1.499 . S
C1938 C1939 1.373 . S
C1938 C1940 1.389 . S
C1939 H1918 0.950 . S
C1939 C1938 1.373 . S
C1939 C1955 1.377 . S
C1940 C1938 1.389 . S
C1940 C1941 1.524 . S
C1940 C1954 1.377 . S
C1941 C1940 1.524 . S
C1941 C1942 1.397 . S
C1941 C1946 1.363 . S
C1942 H1919 0.950 . S
C1942 C1941 1.397 . S
C1942 C1943 1.334 . S
C1943 H1920 0.950 . S
C1943 C1942 1.334 . S
C1943 C1944 1.287 . S
C1944 C1943 1.287 . S
C1944 C1945 1.524 . S
C1944 H1963 0.913 . S
C1945 H1921 0.950 . S
C1945 C1944 1.524 . S
C1945 C1946 1.415 . S
C1946 H1922 0.950 . S
C1946 C1941 1.363 . S
C1946 C1945 1.415 . S
C1947 H1923 0.951 . S
C1947 C1948 1.366 . S
C1947 C1949 1.388 . S
C1948 C1947 1.366 . S
C1948 C1952 1.385 . S
C1949 H1924 0.951 . S
C1949 C1947 1.388 . S
C1949 C1950 1.366 . S
C1950 C1949 1.366 . S
C1950 C1951 1.414 . S
C1950 C1953 1.499 . S
C1951 H1925 0.950 . S
C1951 C1950 1.414 . S
C1951 C1952 1.374 . S
C1952 H1926 0.950 . S
C1952 C1948 1.385 . S
C1952 C1951 1.374 . S
C1953 C1950 1.499 . S
C1953 C1954 1.373 . S
C1953 C1955 1.389 . S
C1954 H1927 0.950 . S
C1954 C1940 1.377 . S
C1954 C1953 1.373 . S
C1955 C1939 1.377 . S
C1955 C1953 1.389 . S
C1955 C1956 1.524 . S
C1956 C1955 1.524 . S
C1956 C1957 1.397 . S
C1956 C1961 1.363 . S
C1957 H1928 0.950 . S
C1957 C1956 1.397 . S
C1957 C1958 1.334 . S
C1958 H1929 0.950 . S
C1958 C1957 1.334 . S
C1958 C1959 1.287 . S
C1959 C1958 1.287 . S
C1959 C1960 1.524 . S
C1959 H1962 0.999 . S
C1960 H1930 0.950 . S
C1960 C1959 1.524 . S
C1960 C1961 1.415 . S
C1961 H1931 0.950 . S
C1961 C1956 1.363 . S
C1961 C1960 1.415 . S
H1962 C1959 0.999 . S
H1963 C1944 0.913 . S
H1964 C1982 0.951 . S
H1965 C1984 0.951 . S
H1966 C1986 0.950 . S
H1967 C1987 0.950 . S
H1968 C1989 0.950 . S
H1969 C1992 0.950 . S
H1970 C1993 0.950 . S
H1971 C1995 0.950 . S
H1972 C1996 0.950 . S
H1973 C1997 0.951 . S
H1974 C1999 0.951 . S
H1975 C2001 0.950 . S
H1976 C2002 0.950 . S
H1977 C2004 0.950 . S
H1978 C2007 0.950 . S
H1979 C2008 0.950 . S
H1980 C2010 0.950 . S
H1981 C2011 0.950 . S
C1982 H1964 0.951 . S
C1982 C1983 1.366 . S
C1982 C1984 1.388 . S
C1983 C1982 1.366 . S
C1983 C1987 1.385 . S
C1984 H1965 0.951 . S
C1984 C1982 1.388 . S
C1984 C1985 1.366 . S
C1985 C1984 1.366 . S
C1985 C1986 1.414 . S
C1985 C1988 1.499 . S
C1986 H1966 0.950 . S
C1986 C1985 1.414 . S
C1986 C1987 1.374 . S
C1987 H1967 0.950 . S
C1987 C1983 1.385 . S
C1987 C1986 1.374 . S
C1988 C1985 1.499 . S
C1988 C1989 1.373 . S
C1988 C1990 1.389 . S
C1989 H1968 0.950 . S
C1989 C1988 1.373 . S
C1989 C2005 1.377 . S
C1990 C1988 1.389 . S
C1990 C1991 1.524 . S
C1990 C2004 1.377 . S
C1991 C1990 1.524 . S
C1991 C1992 1.397 . S
C1991 C1996 1.363 . S
C1992 H1969 0.950 . S
C1992 C1991 1.397 . S
C1992 C1993 1.334 . S
C1993 H1970 0.950 . S
C1993 C1992 1.334 . S
C1993 C1994 1.287 . S
C1994 C1993 1.287 . S
C1994 C1995 1.524 . S
C1994 H2013 0.913 . S
C1995 H1971 0.950 . S
C1995 C1994 1.524 . S
C1995 C1996 1.415 . S
C1996 H1972 0.950 . S
C1996 C1991 1.363 . S
C1996 C1995 1.415 . S
C1997 H1973 0.951 . S
C1997 C1998 1.366 . S
C1997 C1999 1.388 . S
C1998 C1997 1.366 . S
C1998 C2002 1.385 . S
C1999 H1974 0.951 . S
C1999 C1997 1.388 . S
C1999 C2000 1.366 . S
C2000 C1999 1.366 . S
C2000 C2001 1.414 . S
C2000 C2003 1.499 . S
C2001 H1975 0.950 . S
C2001 C2000 1.414 . S
C2001 C2002 1.374 . S
C2002 H1976 0.950 . S
C2002 C1998 1.385 . S
C2002 C2001 1.374 . S
C2003 C2000 1.499 . S
C2003 C2004 1.373 . S
C2003 C2005 1.389 . S
C2004 H1977 0.950 . S
C2004 C1990 1.377 . S
C2004 C2003 1.373 . S
C2005 C1989 1.377 . S
C2005 C2003 1.389 . S
C2005 C2006 1.524 . S
C2006 C2005 1.524 . S
C2006 C2007 1.397 . S
C2006 C2011 1.363 . S
C2007 H1978 0.950 . S
C2007 C2006 1.397 . S
C2007 C2008 1.334 . S
C2008 H1979 0.950 . S
C2008 C2007 1.334 . S
C2008 C2009 1.287 . S
C2009 C2008 1.287 . S
C2009 C2010 1.524 . S
C2009 H2012 0.999 . S
C2010 H1980 0.950 . S
C2010 C2009 1.524 . S
C2010 C2011 1.415 . S
C2011 H1981 0.950 . S
C2011 C2006 1.363 . S
C2011 C2010 1.415 . S
H2012 C2009 0.999 . S
H2013 C1994 0.913 . S
H2014 C2032 0.951 . S
H2015 C2034 0.951 . S
H2016 C2036 0.950 . S
H2017 C2037 0.950 . S
H2018 C2039 0.950 . S
H2019 C2042 0.950 . S
H2020 C2043 0.950 . S
H2021 C2045 0.950 . S
H2022 C2046 0.950 . S
H2023 C2047 0.951 . S
H2024 C2049 0.951 . S
H2025 C2051 0.950 . S
H2026 C2052 0.950 . S
H2027 C2054 0.950 . S
H2028 C2057 0.950 . S
H2029 C2058 0.950 . S
H2030 C2060 0.950 . S
H2031 C2061 0.950 . S
C2032 H2014 0.951 . S
C2032 C2033 1.366 . S
C2032 C2034 1.388 . S
C2033 C2032 1.366 . S
C2033 C2037 1.385 . S
C2034 H2015 0.951 . S
C2034 C2032 1.388 . S
C2034 C2035 1.366 . S
C2035 C2034 1.366 . S
C2035 C2036 1.414 . S
C2035 C2038 1.499 . S
C2036 H2016 0.950 . S
C2036 C2035 1.414 . S
C2036 C2037 1.374 . S
C2037 H2017 0.950 . S
C2037 C2033 1.385 . S
C2037 C2036 1.374 . S
C2038 C2035 1.499 . S
C2038 C2039 1.373 . S
C2038 C2040 1.389 . S
C2039 H2018 0.950 . S
C2039 C2038 1.373 . S
C2039 C2055 1.377 . S
C2040 C2038 1.389 . S
C2040 C2041 1.524 . S
C2040 C2054 1.377 . S
C2041 C2040 1.524 . S
C2041 C2042 1.397 . S
C2041 C2046 1.363 . S
C2042 H2019 0.950 . S
C2042 C2041 1.397 . S
C2042 C2043 1.334 1_655 S
C2043 H2020 0.950 . S
C2043 C2042 1.334 1_455 S
C2043 C2044 1.287 . S
C2044 C2043 1.287 . S
C2044 C2045 1.524 . S
C2044 H2063 0.913 . S
C2045 H2021 0.950 . S
C2045 C2044 1.524 . S
C2045 C2046 1.415 1_455 S
C2046 H2022 0.950 . S
C2046 C2041 1.363 . S
C2046 C2045 1.415 1_655 S
C2047 H2023 0.951 . S
C2047 C2048 1.366 . S
C2047 C2049 1.388 . S
C2048 C2047 1.366 . S
C2048 C2052 1.385 . S
C2049 H2024 0.951 . S
C2049 C2047 1.388 . S
C2049 C2050 1.366 . S
C2050 C2049 1.366 . S
C2050 C2051 1.414 . S
C2050 C2053 1.499 . S
C2051 H2025 0.950 . S
C2051 C2050 1.414 . S
C2051 C2052 1.374 . S
C2052 H2026 0.950 . S
C2052 C2048 1.385 . S
C2052 C2051 1.374 . S
C2053 C2050 1.499 . S
C2053 C2054 1.373 . S
C2053 C2055 1.389 . S
C2054 H2027 0.950 . S
C2054 C2040 1.377 . S
C2054 C2053 1.373 . S
C2055 C2039 1.377 . S
C2055 C2053 1.389 . S
C2055 C2056 1.524 . S
C2056 C2055 1.524 . S
C2056 C2057 1.397 . S
C2056 C2061 1.363 . S
C2057 H2028 0.950 . S
C2057 C2056 1.397 . S
C2057 C2058 1.334 . S
C2058 H2029 0.950 . S
C2058 C2057 1.334 . S
C2058 C2059 1.287 . S
C2059 C2058 1.287 . S
C2059 C2060 1.524 . S
C2059 H2062 0.999 . S
C2060 H2030 0.950 . S
C2060 C2059 1.524 . S
C2060 C2061 1.415 . S
C2061 H2031 0.950 . S
C2061 C2056 1.363 . S
C2061 C2060 1.415 . S
H2062 C2059 0.999 . S
H2063 C2044 0.913 . S
H2064 C2082 0.951 . S
H2065 C2084 0.951 1_545 S
H2066 C2086 0.950 . S
H2067 C2087 0.950 . S
H2068 C2089 0.950 . S
H2069 C2092 0.950 . S
H2070 C2093 0.950 . S
H2071 C2095 0.950 . S
H2072 C2096 0.950 . S
H2073 C2097 0.951 . S
H2074 C2099 0.951 1_565 S
H2075 C2101 0.950 . S
H2076 C2102 0.950 . S
H2077 C2104 0.950 . S
H2078 C2107 0.950 . S
H2079 C2108 0.950 . S
H2080 C2110 0.950 . S
H2081 C2111 0.950 . S
C2082 H2064 0.951 . S
C2082 C2083 1.366 . S
C2082 C2084 1.388 . S
C2083 C2082 1.366 . S
C2083 C2087 1.385 . S
C2084 H2065 0.951 1_565 S
C2084 C2082 1.388 . S
C2084 C2085 1.366 . S
C2085 C2084 1.366 . S
C2085 C2086 1.414 . S
C2085 C2088 1.499 . S
C2086 H2066 0.950 . S
C2086 C2085 1.414 . S
C2086 C2087 1.374 . S
C2087 H2067 0.950 . S
C2087 C2083 1.385 . S
C2087 C2086 1.374 . S
C2088 C2085 1.499 . S
C2088 C2089 1.373 1_566 S
C2088 C2090 1.389 . S
C2089 H2068 0.950 . S
C2089 C2088 1.373 1_544 S
C2089 C2105 1.377 . S
C2090 C2088 1.389 . S
C2090 C2091 1.524 . S
C2090 C2104 1.377 . S
C2091 C2090 1.524 . S
C2091 C2092 1.397 . S
C2091 C2096 1.363 . S
C2092 H2069 0.950 . S
C2092 C2091 1.397 . S
C2092 C2093 1.334 . S
C2093 H2070 0.950 . S
C2093 C2092 1.334 . S
C2093 C2094 1.287 . S
C2094 C2093 1.287 . S
C2094 C2095 1.524 . S
C2094 H2113 0.913 . S
C2095 H2071 0.950 . S
C2095 C2094 1.524 . S
C2095 C2096 1.415 . S
C2096 H2072 0.950 . S
C2096 C2091 1.363 . S
C2096 C2095 1.415 . S
C2097 H2073 0.951 . S
C2097 C2098 1.366 . S
C2097 C2099 1.388 . S
C2098 C2097 1.366 . S
C2098 C2102 1.385 . S
C2099 H2074 0.951 1_545 S
C2099 C2097 1.388 . S
C2099 C2100 1.366 . S
C2100 C2099 1.366 . S
C2100 C2101 1.414 . S
C2100 C2103 1.499 . S
C2101 H2075 0.950 . S
C2101 C2100 1.414 . S
C2101 C2102 1.374 . S
C2102 H2076 0.950 . S
C2102 C2098 1.385 . S
C2102 C2101 1.374 . S
C2103 C2100 1.499 . S
C2103 C2104 1.373 1_544 S
C2103 C2105 1.389 . S
C2104 H2077 0.950 . S
C2104 C2090 1.377 . S
C2104 C2103 1.373 1_566 S
C2105 C2089 1.377 . S
C2105 C2103 1.389 . S
C2105 C2106 1.524 . S
C2106 C2105 1.524 . S
C2106 C2107 1.397 . S
C2106 C2111 1.363 . S
C2107 H2078 0.950 . S
C2107 C2106 1.397 . S
C2107 C2108 1.334 . S
C2108 H2079 0.950 . S
C2108 C2107 1.334 . S
C2108 C2109 1.287 . S
C2109 C2108 1.287 . S
C2109 C2110 1.524 . S
C2109 H2112 0.999 . S
C2110 H2080 0.950 . S
C2110 C2109 1.524 . S
C2110 C2111 1.415 . S
C2111 H2081 0.950 . S
C2111 C2106 1.363 . S
C2111 C2110 1.415 . S
H2112 C2109 0.999 . S
H2113 C2094 0.913 . S
H2114 C2132 0.951 . S
H2115 C2134 0.951 . S
H2116 C2136 0.950 . S
H2117 C2137 0.950 . S
H2118 C2139 0.950 . S
H2119 C2142 0.950 . S
H2120 C2143 0.950 . S
H2121 C2145 0.950 . S
H2122 C2146 0.950 . S
H2123 C2147 0.951 . S
H2124 C2149 0.951 . S
H2125 C2151 0.950 . S
H2126 C2152 0.950 . S
H2127 C2154 0.950 . S
H2128 C2157 0.950 . S
H2129 C2158 0.950 . S
H2130 C2160 0.950 . S
H2131 C2161 0.950 . S
C2132 H2114 0.951 . S
C2132 C2133 1.366 . S
C2132 C2134 1.388 . S
C2133 C2132 1.366 . S
C2133 C2137 1.385 . S
C2134 H2115 0.951 . S
C2134 C2132 1.388 . S
C2134 C2135 1.366 . S
C2135 C2134 1.366 . S
C2135 C2136 1.414 . S
C2135 C2138 1.499 . S
C2136 H2116 0.950 . S
C2136 C2135 1.414 . S
C2136 C2137 1.374 . S
C2137 H2117 0.950 . S
C2137 C2133 1.385 . S
C2137 C2136 1.374 . S
C2138 C2135 1.499 . S
C2138 C2139 1.373 . S
C2138 C2140 1.389 1_556 S
C2139 H2118 0.950 . S
C2139 C2138 1.373 . S
C2139 C2155 1.377 . S
C2140 C2138 1.389 1_554 S
C2140 C2141 1.524 . S
C2140 C2154 1.377 . S
C2141 C2140 1.524 . S
C2141 C2142 1.397 . S
C2141 C2146 1.363 . S
C2142 H2119 0.950 . S
C2142 C2141 1.397 . S
C2142 C2143 1.334 . S
C2143 H2120 0.950 . S
C2143 C2142 1.334 . S
C2143 C2144 1.287 . S
C2144 C2143 1.287 . S
C2144 C2145 1.524 . S
C2144 H2163 0.913 . S
C2145 H2121 0.950 . S
C2145 C2144 1.524 . S
C2145 C2146 1.415 . S
C2146 H2122 0.950 . S
C2146 C2141 1.363 . S
C2146 C2145 1.415 . S
C2147 H2123 0.951 . S
C2147 C2148 1.366 . S
C2147 C2149 1.388 . S
C2148 C2147 1.366 . S
C2148 C2152 1.385 . S
C2149 H2124 0.951 . S
C2149 C2147 1.388 . S
C2149 C2150 1.366 . S
C2150 C2149 1.366 . S
C2150 C2151 1.414 . S
C2150 C2153 1.499 . S
C2151 H2125 0.950 . S
C2151 C2150 1.414 . S
C2151 C2152 1.374 . S
C2152 H2126 0.950 . S
C2152 C2148 1.385 . S
C2152 C2151 1.374 . S
C2153 C2150 1.499 . S
C2153 C2154 1.373 . S
C2153 C2155 1.389 1_554 S
C2154 H2127 0.950 . S
C2154 C2140 1.377 . S
C2154 C2153 1.373 . S
C2155 C2139 1.377 . S
C2155 C2153 1.389 1_556 S
C2155 C2156 1.524 . S
C2156 C2155 1.524 . S
C2156 C2157 1.397 . S
C2156 C2161 1.363 . S
C2157 H2128 0.950 . S
C2157 C2156 1.397 . S
C2157 C2158 1.334 . S
C2158 H2129 0.950 . S
C2158 C2157 1.334 . S
C2158 C2159 1.287 . S
C2159 C2158 1.287 . S
C2159 C2160 1.524 . S
C2159 H2162 0.999 . S
C2160 H2130 0.950 . S
C2160 C2159 1.524 . S
C2160 C2161 1.415 . S
C2161 H2131 0.950 . S
C2161 C2156 1.363 . S
C2161 C2160 1.415 . S
H2162 C2159 0.999 . S
H2163 C2144 0.913 . S
H2164 C2182 0.951 . S
H2165 C2184 0.951 . S
H2166 C2186 0.950 . S
H2167 C2187 0.950 . S
H2168 C2189 0.950 . S
H2169 C2192 0.950 . S
H2170 C2193 0.950 . S
H2171 C2195 0.950 . S
H2172 C2196 0.950 . S
H2173 C2197 0.951 . S
H2174 C2199 0.951 . S
H2175 C2201 0.950 . S
H2176 C2202 0.950 . S
H2177 C2204 0.950 . S
H2178 C2207 0.950 . S
H2179 C2208 0.950 . S
H2180 C2210 0.950 . S
H2181 C2211 0.950 . S
C2182 H2164 0.951 . S
C2182 C2183 1.366 . S
C2182 C2184 1.388 . S
C2183 C2182 1.366 . S
C2183 C2187 1.385 . S
C2184 H2165 0.951 . S
C2184 C2182 1.388 . S
C2184 C2185 1.366 . S
C2185 C2184 1.366 . S
C2185 C2186 1.414 . S
C2185 C2188 1.499 . S
C2186 H2166 0.950 . S
C2186 C2185 1.414 . S
C2186 C2187 1.374 . S
C2187 H2167 0.950 . S
C2187 C2183 1.385 . S
C2187 C2186 1.374 . S
C2188 C2185 1.499 . S
C2188 C2189 1.373 1_556 S
C2188 C2190 1.389 1_455 S
C2189 H2168 0.950 . S
C2189 C2188 1.373 1_554 S
C2189 C2205 1.377 . S
C2190 C2188 1.389 1_655 S
C2190 C2191 1.524 . S
C2190 C2204 1.377 . S
C2191 C2190 1.524 . S
C2191 C2192 1.397 1_655 S
C2191 C2196 1.363 . S
C2192 H2169 0.950 . S
C2192 C2191 1.397 1_455 S
C2192 C2193 1.334 . S
C2193 H2170 0.950 . S
C2193 C2192 1.334 . S
C2193 C2194 1.287 1_455 S
C2194 C2193 1.287 1_655 S
C2194 C2195 1.524 . S
C2194 H2213 0.913 . S
C2195 H2171 0.950 . S
C2195 C2194 1.524 . S
C2195 C2196 1.415 . S
C2196 H2172 0.950 . S
C2196 C2191 1.363 . S
C2196 C2195 1.415 . S
C2197 H2173 0.951 . S
C2197 C2198 1.366 . S
C2197 C2199 1.388 . S
C2198 C2197 1.366 . S
C2198 C2202 1.385 . S
C2199 H2174 0.951 . S
C2199 C2197 1.388 . S
C2199 C2200 1.366 . S
C2200 C2199 1.366 . S
C2200 C2201 1.414 . S
C2200 C2203 1.499 . S
C2201 H2175 0.950 . S
C2201 C2200 1.414 . S
C2201 C2202 1.374 . S
C2202 H2176 0.950 . S
C2202 C2198 1.385 . S
C2202 C2201 1.374 . S
C2203 C2200 1.499 . S
C2203 C2204 1.373 1_554 S
C2203 C2205 1.389 1_655 S
C2204 H2177 0.950 . S
C2204 C2190 1.377 . S
C2204 C2203 1.373 1_556 S
C2205 C2189 1.377 . S
C2205 C2203 1.389 1_455 S
C2205 C2206 1.524 . S
C2206 C2205 1.524 . S
C2206 C2207 1.397 1_455 S
C2206 C2211 1.363 . S
C2207 H2178 0.950 . S
C2207 C2206 1.397 1_655 S
C2207 C2208 1.334 . S
C2208 H2179 0.950 . S
C2208 C2207 1.334 . S
C2208 C2209 1.287 1_655 S
C2209 C2208 1.287 1_455 S
C2209 C2210 1.524 . S
C2209 H2212 0.999 . S
C2210 H2180 0.950 . S
C2210 C2209 1.524 . S
C2210 C2211 1.415 . S
C2211 H2181 0.950 . S
C2211 C2206 1.363 . S
C2211 C2210 1.415 . S
H2212 C2209 0.999 . S
H2213 C2194 0.913 . S
H2214 C2232 0.951 . S
H2215 C2234 0.951 . S
H2216 C2236 0.950 . S
H2217 C2237 0.950 . S
H2218 C2239 0.950 . S
H2219 C2242 0.950 . S
H2220 C2243 0.950 . S
H2221 C2245 0.950 . S
H2222 C2246 0.950 . S
H2223 C2247 0.951 . S
H2224 C2249 0.951 . S
H2225 C2251 0.950 . S
H2226 C2252 0.950 . S
H2227 C2254 0.950 . S
H2228 C2257 0.950 . S
H2229 C2258 0.950 . S
H2230 C2260 0.950 . S
H2231 C2261 0.950 . S
C2232 H2214 0.951 . S
C2232 C2233 1.366 . S
C2232 C2234 1.388 . S
C2233 C2232 1.366 . S
C2233 C2237 1.385 1_655 S
C2234 H2215 0.951 . S
C2234 C2232 1.388 . S
C2234 C2235 1.366 . S
C2235 C2234 1.366 . S
C2235 C2236 1.414 1_655 S
C2235 C2238 1.499 . S
C2236 H2216 0.950 . S
C2236 C2235 1.414 1_455 S
C2236 C2237 1.374 . S
C2237 H2217 0.950 . S
C2237 C2233 1.385 1_455 S
C2237 C2236 1.374 . S
C2238 C2235 1.499 . S
C2238 C2239 1.373 1_655 S
C2238 C2240 1.389 1_556 S
C2239 H2218 0.950 . S
C2239 C2238 1.373 1_455 S
C2239 C2255 1.377 1_545 S
C2240 C2238 1.389 1_554 S
C2240 C2241 1.524 . S
C2240 C2254 1.377 1_545 S
C2241 C2240 1.524 . S
C2241 C2242 1.397 . S
C2241 C2246 1.363 . S
C2242 H2219 0.950 . S
C2242 C2241 1.397 . S
C2242 C2243 1.334 . S
C2243 H2220 0.950 . S
C2243 C2242 1.334 . S
C2243 C2244 1.287 . S
C2244 C2243 1.287 . S
C2244 C2245 1.524 . S
C2244 H2263 0.913 . S
C2245 H2221 0.950 . S
C2245 C2244 1.524 . S
C2245 C2246 1.415 . S
C2246 H2222 0.950 . S
C2246 C2241 1.363 . S
C2246 C2245 1.415 . S
C2247 H2223 0.951 . S
C2247 C2248 1.366 . S
C2247 C2249 1.388 . S
C2248 C2247 1.366 . S
C2248 C2252 1.385 1_455 S
C2249 H2224 0.951 . S
C2249 C2247 1.388 . S
C2249 C2250 1.366 . S
C2250 C2249 1.366 . S
C2250 C2251 1.414 1_455 S
C2250 C2253 1.499 . S
C2251 H2225 0.950 . S
C2251 C2250 1.414 1_655 S
C2251 C2252 1.374 . S
C2252 H2226 0.950 . S
C2252 C2248 1.385 1_655 S
C2252 C2251 1.374 . S
C2253 C2250 1.499 . S
C2253 C2254 1.373 1_455 S
C2253 C2255 1.389 1_554 S
C2254 H2227 0.950 . S
C2254 C2240 1.377 1_565 S
C2254 C2253 1.373 1_655 S
C2255 C2239 1.377 1_565 S
C2255 C2253 1.389 1_556 S
C2255 C2256 1.524 . S
C2256 C2255 1.524 . S
C2256 C2257 1.397 . S
C2256 C2261 1.363 . S
C2257 H2228 0.950 . S
C2257 C2256 1.397 . S
C2257 C2258 1.334 . S
C2258 H2229 0.950 . S
C2258 C2257 1.334 . S
C2258 C2259 1.287 . S
C2259 C2258 1.287 . S
C2259 C2260 1.524 . S
C2259 H2262 0.999 . S
C2260 H2230 0.950 . S
C2260 C2259 1.524 . S
C2260 C2261 1.415 . S
C2261 H2231 0.950 . S
C2261 C2256 1.363 . S
C2261 C2260 1.415 . S
H2262 C2259 0.999 . S
H2263 C2244 0.913 . S
H2264 C2282 0.951 . S
H2265 C2284 0.951 . S
H2266 C2286 0.950 . S
H2267 C2287 0.950 . S
H2268 C2289 0.950 . S
H2269 C2292 0.950 . S
H2270 C2293 0.950 . S
H2271 C2295 0.950 . S
H2272 C2296 0.950 . S
H2273 C2297 0.951 . S
H2274 C2299 0.951 . S
H2275 C2301 0.950 . S
H2276 C2302 0.950 . S
H2277 C2304 0.950 . S
H2278 C2307 0.950 . S
H2279 C2308 0.950 . S
H2280 C2310 0.950 . S
H2281 C2311 0.950 . S
C2282 H2264 0.951 . S
C2282 C2283 1.366 . S
C2282 C2284 1.388 . S
C2283 C2282 1.366 . S
C2283 C2287 1.385 . S
C2284 H2265 0.951 . S
C2284 C2282 1.388 . S
C2284 C2285 1.366 . S
C2285 C2284 1.366 . S
C2285 C2286 1.414 . S
C2285 C2288 1.499 . S
C2286 H2266 0.950 . S
C2286 C2285 1.414 . S
C2286 C2287 1.374 . S
C2287 H2267 0.950 . S
C2287 C2283 1.385 . S
C2287 C2286 1.374 . S
C2288 C2285 1.499 . S
C2288 C2289 1.373 . S
C2288 C2290 1.389 . S
C2289 H2268 0.950 . S
C2289 C2288 1.373 . S
C2289 C2305 1.377 . S
C2290 C2288 1.389 . S
C2290 C2291 1.524 . S
C2290 C2304 1.377 . S
C2291 C2290 1.524 . S
C2291 C2292 1.397 . S
C2291 C2296 1.363 . S
C2292 H2269 0.950 . S
C2292 C2291 1.397 . S
C2292 C2293 1.334 . S
C2293 H2270 0.950 . S
C2293 C2292 1.334 . S
C2293 C2294 1.287 . S
C2294 C2293 1.287 . S
C2294 C2295 1.524 . S
C2294 H2313 0.913 . S
C2295 H2271 0.950 . S
C2295 C2294 1.524 . S
C2295 C2296 1.415 . S
C2296 H2272 0.950 . S
C2296 C2291 1.363 . S
C2296 C2295 1.415 . S
C2297 H2273 0.951 . S
C2297 C2298 1.366 . S
C2297 C2299 1.388 . S
C2298 C2297 1.366 . S
C2298 C2302 1.385 . S
C2299 H2274 0.951 . S
C2299 C2297 1.388 . S
C2299 C2300 1.366 . S
C2300 C2299 1.366 . S
C2300 C2301 1.414 . S
C2300 C2303 1.499 . S
C2301 H2275 0.950 . S
C2301 C2300 1.414 . S
C2301 C2302 1.374 . S
C2302 H2276 0.950 . S
C2302 C2298 1.385 . S
C2302 C2301 1.374 . S
C2303 C2300 1.499 . S
C2303 C2304 1.373 . S
C2303 C2305 1.389 . S
C2304 H2277 0.950 . S
C2304 C2290 1.377 . S
C2304 C2303 1.373 . S
C2305 C2289 1.377 . S
C2305 C2303 1.389 . S
C2305 C2306 1.524 . S
C2306 C2305 1.524 . S
C2306 C2307 1.397 . S
C2306 C2311 1.363 . S
C2307 H2278 0.950 . S
C2307 C2306 1.397 . S
C2307 C2308 1.334 . S
C2308 H2279 0.950 . S
C2308 C2307 1.334 . S
C2308 C2309 1.287 . S
C2309 C2308 1.287 . S
C2309 C2310 1.524 . S
C2309 H2312 0.999 . S
C2310 H2280 0.950 . S
C2310 C2309 1.524 . S
C2310 C2311 1.415 . S
C2311 H2281 0.950 . S
C2311 C2306 1.363 . S
C2311 C2310 1.415 . S
H2312 C2309 0.999 . S
H2313 C2294 0.913 . S
H2314 C2332 0.951 . S
H2315 C2334 0.951 . S
H2316 C2336 0.948 1_655 S
H2317 C2337 0.949 1_655 S
H2318 C2339 0.950 . S
H2319 C2342 0.950 . S
H2320 C2343 0.950 . S
H2321 C2345 0.950 . S
H2322 C2346 0.950 . S
H2323 C2347 0.951 . S
H2324 C2349 0.951 . S
H2325 C2351 0.948 1_455 S
H2326 C2352 0.949 1_455 S
H2327 C2354 0.950 . S
H2328 C2357 0.950 . S
H2329 C2358 0.950 . S
H2330 C2360 0.950 . S
H2331 C2361 0.950 . S
C2332 H2314 0.951 . S
C2332 C2333 1.366 . S
C2332 C2334 1.388 . S
C2333 C2332 1.366 . S
C2333 C2337 1.385 . S
C2334 H2315 0.951 . S
C2334 C2332 1.388 . S
C2334 C2335 1.366 . S
C2335 C2334 1.366 . S
C2335 C2336 1.416 . S
C2335 C2338 1.499 . S
C2336 H2316 0.948 1_455 S
C2336 C2335 1.416 . S
C2336 C2337 1.375 . S
C2337 H2317 0.949 1_455 S
C2337 C2333 1.385 . S
C2337 C2336 1.375 . S
C2338 C2335 1.499 . S
C2338 C2339 1.373 . S
C2338 C2340 1.389 1_455 S
C2339 H2318 0.950 . S
C2339 C2338 1.373 . S
C2339 C2355 1.377 . S
C2340 C2338 1.389 1_655 S
C2340 C2341 1.524 . S
C2340 C2354 1.377 . S
C2341 C2340 1.524 . S
C2341 C2342 1.397 . S
C2341 C2346 1.363 . S
C2342 H2319 0.950 . S
C2342 C2341 1.397 . S
C2342 C2343 1.334 . S
C2343 H2320 0.950 . S
C2343 C2342 1.334 . S
C2343 C2344 1.287 . S
C2344 C2343 1.287 . S
C2344 C2345 1.524 . S
C2344 H2363 0.913 . S
C2345 H2321 0.950 . S
C2345 C2344 1.524 . S
C2345 C2346 1.415 . S
C2346 H2322 0.950 . S
C2346 C2341 1.363 . S
C2346 C2345 1.415 . S
C2347 H2323 0.951 . S
C2347 C2348 1.366 . S
C2347 C2349 1.388 . S
C2348 C2347 1.366 . S
C2348 C2352 1.385 . S
C2349 H2324 0.951 . S
C2349 C2347 1.388 . S
C2349 C2350 1.366 . S
C2350 C2349 1.366 . S
C2350 C2351 1.416 . S
C2350 C2353 1.499 . S
C2351 H2325 0.948 1_655 S
C2351 C2350 1.416 . S
C2351 C2352 1.375 . S
C2352 H2326 0.949 1_655 S
C2352 C2348 1.385 . S
C2352 C2351 1.375 . S
C2353 C2350 1.499 . S
C2353 C2354 1.373 . S
C2353 C2355 1.389 1_655 S
C2354 H2327 0.950 . S
C2354 C2340 1.377 . S
C2354 C2353 1.373 . S
C2355 C2339 1.377 . S
C2355 C2353 1.389 1_455 S
C2355 C2356 1.524 . S
C2356 C2355 1.524 . S
C2356 C2357 1.397 . S
C2356 C2361 1.363 . S
C2357 H2328 0.950 . S
C2357 C2356 1.397 . S
C2357 C2358 1.334 . S
C2358 H2329 0.950 . S
C2358 C2357 1.334 . S
C2358 C2359 1.287 . S
C2359 C2358 1.287 . S
C2359 C2360 1.524 . S
C2359 H2362 0.999 . S
C2360 H2330 0.950 . S
C2360 C2359 1.524 . S
C2360 C2361 1.415 . S
C2361 H2331 0.950 . S
C2361 C2356 1.363 . S
C2361 C2360 1.415 . S
H2362 C2359 0.999 . S
H2363 C2344 0.913 . S
H2364 C2382 0.951 . S
H2365 C2384 0.951 . S
H2366 C2386 0.950 . S
H2367 C2387 0.950 . S
H2368 C2389 0.950 . S
H2369 C2392 0.950 . S
H2370 C2393 0.950 . S
H2371 C2395 0.950 . S
H2372 C2396 0.950 . S
H2373 C2397 0.951 . S
H2374 C2399 0.951 . S
H2375 C2401 0.950 . S
H2376 C2402 0.950 . S
H2377 C2404 0.950 . S
H2378 C2407 0.950 . S
H2379 C2408 0.950 . S
H2380 C2410 0.950 . S
H2381 C2411 0.950 . S
C2382 H2364 0.951 . S
C2382 C2383 1.366 . S
C2382 C2384 1.388 . S
C2383 C2382 1.366 . S
C2383 C2387 1.385 . S
C2384 H2365 0.951 . S
C2384 C2382 1.388 . S
C2384 C2385 1.366 . S
C2385 C2384 1.366 . S
C2385 C2386 1.414 . S
C2385 C2388 1.499 . S
C2386 H2366 0.950 . S
C2386 C2385 1.414 . S
C2386 C2387 1.374 . S
C2387 H2367 0.950 . S
C2387 C2383 1.385 . S
C2387 C2386 1.374 . S
C2388 C2385 1.499 . S
C2388 C2389 1.373 1_545 S
C2388 C2390 1.389 . S
C2389 H2368 0.950 . S
C2389 C2388 1.373 1_565 S
C2389 C2405 1.377 1_655 S
C2390 C2388 1.389 . S
C2390 C2391 1.524 . S
C2390 C2404 1.377 1_655 S
C2391 C2390 1.524 . S
C2391 C2392 1.397 . S
C2391 C2396 1.363 . S
C2392 H2369 0.950 . S
C2392 C2391 1.397 . S
C2392 C2393 1.334 . S
C2393 H2370 0.950 . S
C2393 C2392 1.334 . S
C2393 C2394 1.287 . S
C2394 C2393 1.287 . S
C2394 C2395 1.524 . S
C2394 H2413 0.913 . S
C2395 H2371 0.950 . S
C2395 C2394 1.524 . S
C2395 C2396 1.415 . S
C2396 H2372 0.950 . S
C2396 C2391 1.363 . S
C2396 C2395 1.415 . S
C2397 H2373 0.951 . S
C2397 C2398 1.366 . S
C2397 C2399 1.388 . S
C2398 C2397 1.366 . S
C2398 C2402 1.385 . S
C2399 H2374 0.951 . S
C2399 C2397 1.388 . S
C2399 C2400 1.366 . S
C2400 C2399 1.366 . S
C2400 C2401 1.414 . S
C2400 C2403 1.499 . S
C2401 H2375 0.950 . S
C2401 C2400 1.414 . S
C2401 C2402 1.374 . S
C2402 H2376 0.950 . S
C2402 C2398 1.385 . S
C2402 C2401 1.374 . S
C2403 C2400 1.499 . S
C2403 C2404 1.373 1_565 S
C2403 C2405 1.389 . S
C2404 H2377 0.950 . S
C2404 C2390 1.377 1_455 S
C2404 C2403 1.373 1_545 S
C2405 C2389 1.377 1_455 S
C2405 C2403 1.389 . S
C2405 C2406 1.524 . S
C2406 C2405 1.524 . S
C2406 C2407 1.397 . S
C2406 C2411 1.363 . S
C2407 H2378 0.950 . S
C2407 C2406 1.397 . S
C2407 C2408 1.334 . S
C2408 H2379 0.950 . S
C2408 C2407 1.334 . S
C2408 C2409 1.287 . S
C2409 C2408 1.287 . S
C2409 C2410 1.524 . S
C2409 H2412 0.999 . S
C2410 H2380 0.950 . S
C2410 C2409 1.524 . S
C2410 C2411 1.415 . S
C2411 H2381 0.950 . S
C2411 C2406 1.363 . S
C2411 C2410 1.415 . S
H2412 C2409 0.999 . S
H2413 C2394 0.913 . S
H2414 C2432 0.951 . S
H2415 C2434 0.951 . S
H2416 C2436 0.950 . S
H2417 C2437 0.950 . S
H2418 C2439 0.950 . S
H2419 C2442 0.950 1_565 S
H2420 C2443 0.950 . S
H2421 C2445 0.950 . S
H2422 C2446 0.950 . S
H2423 C2447 0.951 . S
H2424 C2449 0.951 . S
H2425 C2451 0.950 . S
H2426 C2452 0.950 . S
H2427 C2454 0.950 . S
H2428 C2457 0.950 1_545 S
H2429 C2458 0.950 . S
H2430 C2460 0.950 . S
H2431 C2461 0.950 . S
C2432 H2414 0.951 . S
C2432 C2433 1.366 . S
C2432 C2434 1.388 . S
C2433 C2432 1.366 . S
C2433 C2437 1.385 . S
C2434 H2415 0.951 . S
C2434 C2432 1.388 . S
C2434 C2435 1.366 . S
C2435 C2434 1.366 . S
C2435 C2436 1.414 . S
C2435 C2438 1.499 . S
C2436 H2416 0.950 . S
C2436 C2435 1.414 . S
C2436 C2437 1.374 . S
C2437 H2417 0.950 . S
C2437 C2433 1.385 . S
C2437 C2436 1.374 . S
C2438 C2435 1.499 . S
C2438 C2439 1.373 . S
C2438 C2440 1.389 1_565 S
C2439 H2418 0.950 . S
C2439 C2438 1.373 . S
C2439 C2455 1.377 . S
C2440 C2438 1.389 1_545 S
C2440 C2441 1.524 . S
C2440 C2454 1.377 . S
C2441 C2440 1.524 . S
C2441 C2442 1.397 . S
C2441 C2446 1.363 . S
C2442 H2419 0.950 1_545 S
C2442 C2441 1.397 . S
C2442 C2443 1.334 . S
C2443 H2420 0.950 . S
C2443 C2442 1.334 . S
C2443 C2444 1.287 . S
C2444 C2443 1.287 . S
C2444 C2445 1.524 . S
C2444 H2463 0.913 . S
C2445 H2421 0.950 . S
C2445 C2444 1.524 . S
C2445 C2446 1.415 . S
C2446 H2422 0.950 . S
C2446 C2441 1.363 . S
C2446 C2445 1.415 . S
C2447 H2423 0.951 . S
C2447 C2448 1.366 . S
C2447 C2449 1.388 . S
C2448 C2447 1.366 . S
C2448 C2452 1.385 . S
C2449 H2424 0.951 . S
C2449 C2447 1.388 . S
C2449 C2450 1.366 . S
C2450 C2449 1.366 . S
C2450 C2451 1.414 . S
C2450 C2453 1.499 . S
C2451 H2425 0.950 . S
C2451 C2450 1.414 . S
C2451 C2452 1.374 . S
C2452 H2426 0.950 . S
C2452 C2448 1.385 . S
C2452 C2451 1.374 . S
C2453 C2450 1.499 . S
C2453 C2454 1.373 . S
C2453 C2455 1.389 1_545 S
C2454 H2427 0.950 . S
C2454 C2440 1.377 . S
C2454 C2453 1.373 . S
C2455 C2439 1.377 . S
C2455 C2453 1.389 1_565 S
C2455 C2456 1.524 . S
C2456 C2455 1.524 . S
C2456 C2457 1.397 . S
C2456 C2461 1.363 . S
C2457 H2428 0.950 1_565 S
C2457 C2456 1.397 . S
C2457 C2458 1.334 . S
C2458 H2429 0.950 . S
C2458 C2457 1.334 . S
C2458 C2459 1.287 . S
C2459 C2458 1.287 . S
C2459 C2460 1.524 . S
C2459 H2462 0.999 . S
C2460 H2430 0.950 . S
C2460 C2459 1.524 . S
C2460 C2461 1.415 . S
C2461 H2431 0.950 . S
C2461 C2456 1.363 . S
C2461 C2460 1.415 . S
H2462 C2459 0.999 . S
H2463 C2444 0.913 . S
H2464 C2482 0.951 . S
H2465 C2484 0.951 . S
H2466 C2486 0.950 . S
H2467 C2487 0.950 . S
H2468 C2489 0.950 . S
H2469 C2492 0.950 . S
H2470 C2493 0.950 . S
H2471 C2495 0.950 . S
H2472 C2496 0.950 . S
H2473 C2497 0.951 . S
H2474 C2499 0.951 . S
H2475 C2501 0.950 . S
H2476 C2502 0.950 . S
H2477 C2504 0.950 . S
H2478 C2507 0.950 . S
H2479 C2508 0.950 . S
H2480 C2510 0.950 . S
H2481 C2511 0.950 . S
C2482 H2464 0.951 . S
C2482 C2483 1.366 . S
C2482 C2484 1.388 . S
C2483 C2482 1.366 . S
C2483 C2487 1.385 . S
C2484 H2465 0.951 . S
C2484 C2482 1.388 . S
C2484 C2485 1.366 . S
C2485 C2484 1.366 . S
C2485 C2486 1.414 . S
C2485 C2488 1.499 . S
C2486 H2466 0.950 . S
C2486 C2485 1.414 . S
C2486 C2487 1.374 . S
C2487 H2467 0.950 . S
C2487 C2483 1.385 . S
C2487 C2486 1.374 . S
C2488 C2485 1.499 . S
C2488 C2489 1.373 . S
C2488 C2490 1.389 . S
C2489 H2468 0.950 . S
C2489 C2488 1.373 . S
C2489 C2505 1.377 . S
C2490 C2488 1.389 . S
C2490 C2491 1.524 . S
C2490 C2504 1.377 . S
C2491 C2490 1.524 . S
C2491 C2492 1.397 . S
C2491 C2496 1.363 . S
C2492 H2469 0.950 . S
C2492 C2491 1.397 . S
C2492 C2493 1.334 . S
C2493 H2470 0.950 . S
C2493 C2492 1.334 . S
C2493 C2494 1.287 . S
C2494 C2493 1.287 . S
C2494 C2495 1.524 . S
C2494 H2513 0.913 . S
C2495 H2471 0.950 . S
C2495 C2494 1.524 . S
C2495 C2496 1.415 . S
C2496 H2472 0.950 . S
C2496 C2491 1.363 . S
C2496 C2495 1.415 . S
C2497 H2473 0.951 . S
C2497 C2498 1.366 . S
C2497 C2499 1.388 . S
C2498 C2497 1.366 . S
C2498 C2502 1.385 . S
C2499 H2474 0.951 . S
C2499 C2497 1.388 . S
C2499 C2500 1.366 . S
C2500 C2499 1.366 . S
C2500 C2501 1.414 . S
C2500 C2503 1.499 . S
C2501 H2475 0.950 . S
C2501 C2500 1.414 . S
C2501 C2502 1.374 . S
C2502 H2476 0.950 . S
C2502 C2498 1.385 . S
C2502 C2501 1.374 . S
C2503 C2500 1.499 . S
C2503 C2504 1.373 . S
C2503 C2505 1.389 . S
C2504 H2477 0.950 . S
C2504 C2490 1.377 . S
C2504 C2503 1.373 . S
C2505 C2489 1.377 . S
C2505 C2503 1.389 . S
C2505 C2506 1.524 . S
C2506 C2505 1.524 . S
C2506 C2507 1.397 . S
C2506 C2511 1.363 . S
C2507 H2478 0.950 . S
C2507 C2506 1.397 . S
C2507 C2508 1.334 . S
C2508 H2479 0.950 . S
C2508 C2507 1.334 . S
C2508 C2509 1.287 . S
C2509 C2508 1.287 . S
C2509 C2510 1.524 . S
C2509 H2512 0.999 . S
C2510 H2480 0.950 . S
C2510 C2509 1.524 . S
C2510 C2511 1.415 . S
C2511 H2481 0.950 . S
C2511 C2506 1.363 . S
C2511 C2510 1.415 . S
H2512 C2509 0.999 . S
H2513 C2494 0.913 . S
H2514 C2532 0.951 . S
H2515 C2534 0.951 . S
H2516 C2536 0.950 . S
H2517 C2537 0.950 . S
H2518 C2539 0.950 . S
H2519 C2542 0.950 . S
H2520 C2543 0.950 . S
H2521 C2545 0.950 . S
H2522 C2546 0.950 . S
H2523 C2547 0.951 . S
H2524 C2549 0.951 . S
H2525 C2551 0.950 . S
H2526 C2552 0.950 . S
H2527 C2554 0.950 . S
H2528 C2557 0.950 . S
H2529 C2558 0.950 . S
H2530 C2560 0.950 . S
H2531 C2561 0.950 . S
C2532 H2514 0.951 . S
C2532 C2533 1.366 . S
C2532 C2534 1.388 . S
C2533 C2532 1.366 . S
C2533 C2537 1.385 . S
C2534 H2515 0.951 . S
C2534 C2532 1.388 . S
C2534 C2535 1.366 . S
C2535 C2534 1.366 . S
C2535 C2536 1.414 . S
C2535 C2538 1.499 . S
C2536 H2516 0.950 . S
C2536 C2535 1.414 . S
C2536 C2537 1.374 . S
C2537 H2517 0.950 . S
C2537 C2533 1.385 . S
C2537 C2536 1.374 . S
C2538 C2535 1.499 . S
C2538 C2539 1.373 . S
C2538 C2540 1.389 . S
C2539 H2518 0.950 . S
C2539 C2538 1.373 . S
C2539 C2555 1.377 . S
C2540 C2538 1.389 . S
C2540 C2541 1.524 . S
C2540 C2554 1.377 . S
C2541 C2540 1.524 . S
C2541 C2542 1.397 . S
C2541 C2546 1.363 . S
C2542 H2519 0.950 . S
C2542 C2541 1.397 . S
C2542 C2543 1.334 . S
C2543 H2520 0.950 . S
C2543 C2542 1.334 . S
C2543 C2544 1.287 . S
C2544 C2543 1.287 . S
C2544 C2545 1.524 . S
C2544 H2563 0.913 . S
C2545 H2521 0.950 . S
C2545 C2544 1.524 . S
C2545 C2546 1.415 . S
C2546 H2522 0.950 . S
C2546 C2541 1.363 . S
C2546 C2545 1.415 . S
C2547 H2523 0.951 . S
C2547 C2548 1.366 . S
C2547 C2549 1.388 . S
C2548 C2547 1.366 . S
C2548 C2552 1.385 . S
C2549 H2524 0.951 . S
C2549 C2547 1.388 . S
C2549 C2550 1.366 . S
C2550 C2549 1.366 . S
C2550 C2551 1.414 . S
C2550 C2553 1.499 . S
C2551 H2525 0.950 . S
C2551 C2550 1.414 . S
C2551 C2552 1.374 . S
C2552 H2526 0.950 . S
C2552 C2548 1.385 . S
C2552 C2551 1.374 . S
C2553 C2550 1.499 . S
C2553 C2554 1.373 . S
C2553 C2555 1.389 . S
C2554 H2527 0.950 . S
C2554 C2540 1.377 . S
C2554 C2553 1.373 . S
C2555 C2539 1.377 . S
C2555 C2553 1.389 . S
C2555 C2556 1.524 . S
C2556 C2555 1.524 . S
C2556 C2557 1.397 . S
C2556 C2561 1.363 . S
C2557 H2528 0.950 . S
C2557 C2556 1.397 . S
C2557 C2558 1.334 . S
C2558 H2529 0.950 . S
C2558 C2557 1.334 . S
C2558 C2559 1.287 . S
C2559 C2558 1.287 . S
C2559 C2560 1.524 . S
C2559 H2562 0.999 . S
C2560 H2530 0.950 . S
C2560 C2559 1.524 . S
C2560 C2561 1.415 . S
C2561 H2531 0.950 . S
C2561 C2556 1.363 . S
C2561 C2560 1.415 . S
H2562 C2559 0.999 . S
H2563 C2544 0.913 . S
H2564 C2582 0.951 . S
H2565 C2584 0.951 . S
H2566 C2586 0.950 1_455 S
H2567 C2587 0.950 . S
H2568 C2589 0.950 . S
H2569 C2592 0.950 . S
H2570 C2593 0.950 . S
H2571 C2595 0.950 . S
H2572 C2596 0.950 . S
H2573 C2597 0.951 . S
H2574 C2599 0.951 . S
H2575 C2601 0.950 . S
H2576 C2602 0.950 . S
H2577 C2604 0.950 . S
H2578 C2607 0.950 . S
H2579 C2608 0.950 . S
H2580 C2610 0.950 1_455 S
H2581 C2611 0.950 . S
C2582 H2564 0.951 . S
C2582 C2583 1.366 . S
C2582 C2584 1.388 . S
C2583 C2582 1.366 . S
C2583 C2587 1.385 1_655 S
C2584 H2565 0.951 . S
C2584 C2582 1.388 . S
C2584 C2585 1.366 . S
C2585 C2584 1.366 . S
C2585 C2586 1.414 . S
C2585 C2588 1.499 . S
C2586 H2566 0.950 1_655 S
C2586 C2585 1.414 . S
C2586 C2587 1.374 1_655 S
C2587 H2567 0.950 . S
C2587 C2583 1.385 1_455 S
C2587 C2586 1.374 1_455 S
C2588 C2585 1.499 . S
C2588 C2589 1.373 . S
C2588 C2590 1.389 . S
C2589 H2568 0.950 . S
C2589 C2588 1.373 . S
C2589 C2605 1.377 . S
C2590 C2588 1.389 . S
C2590 C2591 1.524 . S
C2590 C2604 1.377 . S
C2591 C2590 1.524 . S
C2591 C2592 1.397 . S
C2591 C2596 1.363 . S
C2592 H2569 0.950 . S
C2592 C2591 1.397 . S
C2592 C2593 1.334 . S
C2593 H2570 0.950 . S
C2593 C2592 1.334 . S
C2593 C2594 1.287 . S
C2594 C2593 1.287 . S
C2594 C2595 1.524 . S
C2594 H2613 0.913 . S
C2595 H2571 0.950 . S
C2595 C2594 1.524 . S
C2595 C2596 1.415 . S
C2596 H2572 0.950 . S
C2596 C2591 1.363 . S
C2596 C2595 1.415 . S
C2597 H2573 0.951 . S
C2597 C2598 1.366 . S
C2597 C2599 1.388 . S
C2598 C2597 1.366 . S
C2598 C2602 1.385 . S
C2599 H2574 0.951 . S
C2599 C2597 1.388 . S
C2599 C2600 1.366 . S
C2600 C2599 1.366 . S
C2600 C2601 1.414 . S
C2600 C2603 1.499 . S
C2601 H2575 0.950 . S
C2601 C2600 1.414 . S
C2601 C2602 1.374 . S
C2602 H2576 0.950 . S
C2602 C2598 1.385 . S
C2602 C2601 1.374 . S
C2603 C2600 1.499 . S
C2603 C2604 1.373 . S
C2603 C2605 1.389 . S
C2604 H2577 0.950 . S
C2604 C2590 1.377 . S
C2604 C2603 1.373 . S
C2605 C2589 1.377 . S
C2605 C2603 1.389 . S
C2605 C2606 1.524 . S
C2606 C2605 1.524 . S
C2606 C2607 1.397 . S
C2606 C2611 1.363 . S
C2607 H2578 0.950 . S
C2607 C2606 1.397 . S
C2607 C2608 1.334 . S
C2608 H2579 0.950 . S
C2608 C2607 1.334 . S
C2608 C2609 1.287 . S
C2609 C2608 1.287 . S
C2609 C2610 1.524 . S
C2609 H2612 0.999 . S
C2610 H2580 0.950 1_655 S
C2610 C2609 1.524 . S
C2610 C2611 1.415 . S
C2611 H2581 0.950 . S
C2611 C2606 1.363 . S
C2611 C2610 1.415 . S
H2612 C2609 0.999 . S
H2613 C2594 0.913 . S
H2614 C2632 0.951 . S
H2615 C2634 0.951 . S
H2616 C2636 0.950 . S
H2617 C2637 0.950 . S
H2618 C2639 0.950 . S
H2619 C2642 0.950 . S
H2620 C2643 0.950 . S
H2621 C2645 0.950 . S
H2622 C2646 0.950 . S
H2623 C2647 0.951 . S
H2624 C2649 0.951 . S
H2625 C2651 0.950 . S
H2626 C2652 0.950 . S
H2627 C2654 0.950 . S
H2628 C2657 0.950 . S
H2629 C2658 0.950 . S
H2630 C2660 0.950 . S
H2631 C2661 0.950 . S
C2632 H2614 0.951 . S
C2632 C2633 1.366 . S
C2632 C2634 1.388 . S
C2633 C2632 1.366 . S
C2633 C2637 1.385 . S
C2634 H2615 0.951 . S
C2634 C2632 1.388 . S
C2634 C2635 1.366 . S
C2635 C2634 1.366 . S
C2635 C2636 1.414 . S
C2635 C2638 1.499 . S
C2636 H2616 0.950 . S
C2636 C2635 1.414 . S
C2636 C2637 1.374 . S
C2637 H2617 0.950 . S
C2637 C2633 1.385 . S
C2637 C2636 1.374 . S
C2638 C2635 1.499 . S
C2638 C2639 1.373 . S
C2638 C2640 1.389 . S
C2639 H2618 0.950 . S
C2639 C2638 1.373 . S
C2639 C2655 1.377 . S
C2640 C2638 1.389 . S
C2640 C2641 1.524 . S
C2640 C2654 1.377 . S
C2641 C2640 1.524 . S
C2641 C2642 1.397 . S
C2641 C2646 1.363 . S
C2642 H2619 0.950 . S
C2642 C2641 1.397 . S
C2642 C2643 1.334 . S
C2643 H2620 0.950 . S
C2643 C2642 1.334 . S
C2643 C2644 1.287 . S
C2644 C2643 1.287 . S
C2644 C2645 1.524 . S
C2644 H2663 0.913 . S
C2645 H2621 0.950 . S
C2645 C2644 1.524 . S
C2645 C2646 1.415 . S
C2646 H2622 0.950 . S
C2646 C2641 1.363 . S
C2646 C2645 1.415 . S
C2647 H2623 0.951 . S
C2647 C2648 1.366 . S
C2647 C2649 1.388 . S
C2648 C2647 1.366 . S
C2648 C2652 1.385 . S
C2649 H2624 0.951 . S
C2649 C2647 1.388 . S
C2649 C2650 1.366 . S
C2650 C2649 1.366 . S
C2650 C2651 1.414 . S
C2650 C2653 1.499 . S
C2651 H2625 0.950 . S
C2651 C2650 1.414 . S
C2651 C2652 1.374 . S
C2652 H2626 0.950 . S
C2652 C2648 1.385 . S
C2652 C2651 1.374 . S
C2653 C2650 1.499 . S
C2653 C2654 1.373 . S
C2653 C2655 1.389 . S
C2654 H2627 0.950 . S
C2654 C2640 1.377 . S
C2654 C2653 1.373 . S
C2655 C2639 1.377 . S
C2655 C2653 1.389 . S
C2655 C2656 1.524 . S
C2656 C2655 1.524 . S
C2656 C2657 1.397 . S
C2656 C2661 1.363 . S
C2657 H2628 0.950 . S
C2657 C2656 1.397 . S
C2657 C2658 1.334 . S
C2658 H2629 0.950 . S
C2658 C2657 1.334 . S
C2658 C2659 1.287 . S
C2659 C2658 1.287 . S
C2659 C2660 1.524 . S
C2659 H2662 0.999 . S
C2660 H2630 0.950 . S
C2660 C2659 1.524 . S
C2660 C2661 1.415 . S
C2661 H2631 0.950 . S
C2661 C2656 1.363 . S
C2661 C2660 1.415 . S
H2662 C2659 0.999 . S
H2663 C2644 0.913 . S
H2664 C2682 0.951 . S
H2665 C2684 0.951 . S
H2666 C2686 0.950 . S
H2667 C2687 0.950 . S
H2668 C2689 0.950 . S
H2669 C2692 0.950 . S
H2670 C2693 0.950 . S
H2671 C2695 0.950 . S
H2672 C2696 0.950 . S
H2673 C2697 0.951 . S
H2674 C2699 0.951 . S
H2675 C2701 0.950 . S
H2676 C2702 0.950 . S
H2677 C2704 0.950 . S
H2678 C2707 0.950 . S
H2679 C2708 0.950 . S
H2680 C2710 0.950 . S
H2681 C2711 0.950 . S
C2682 H2664 0.951 . S
C2682 C2683 1.366 . S
C2682 C2684 1.388 . S
C2683 C2682 1.366 . S
C2683 C2687 1.385 . S
C2684 H2665 0.951 . S
C2684 C2682 1.388 . S
C2684 C2685 1.366 . S
C2685 C2684 1.366 . S
C2685 C2686 1.414 . S
C2685 C2688 1.499 . S
C2686 H2666 0.950 . S
C2686 C2685 1.414 . S
C2686 C2687 1.374 . S
C2687 H2667 0.950 . S
C2687 C2683 1.385 . S
C2687 C2686 1.374 . S
C2688 C2685 1.499 . S
C2688 C2689 1.373 . S
C2688 C2690 1.389 . S
C2689 H2668 0.950 . S
C2689 C2688 1.373 . S
C2689 C2705 1.377 . S
C2690 C2688 1.389 . S
C2690 C2691 1.524 . S
C2690 C2704 1.377 . S
C2691 C2690 1.524 . S
C2691 C2692 1.397 . S
C2691 C2696 1.363 . S
C2692 H2669 0.950 . S
C2692 C2691 1.397 . S
C2692 C2693 1.334 . S
C2693 H2670 0.950 . S
C2693 C2692 1.334 . S
C2693 C2694 1.287 . S
C2694 C2693 1.287 . S
C2694 C2695 1.524 . S
C2694 H2713 0.913 . S
C2695 H2671 0.950 . S
C2695 C2694 1.524 . S
C2695 C2696 1.415 . S
C2696 H2672 0.950 . S
C2696 C2691 1.363 . S
C2696 C2695 1.415 . S
C2697 H2673 0.951 . S
C2697 C2698 1.366 . S
C2697 C2699 1.388 . S
C2698 C2697 1.366 . S
C2698 C2702 1.385 . S
C2699 H2674 0.951 . S
C2699 C2697 1.388 . S
C2699 C2700 1.366 . S
C2700 C2699 1.366 . S
C2700 C2701 1.414 . S
C2700 C2703 1.499 . S
C2701 H2675 0.950 . S
C2701 C2700 1.414 . S
C2701 C2702 1.374 . S
C2702 H2676 0.950 . S
C2702 C2698 1.385 . S
C2702 C2701 1.374 . S
C2703 C2700 1.499 . S
C2703 C2704 1.373 . S
C2703 C2705 1.389 . S
C2704 H2677 0.950 . S
C2704 C2690 1.377 . S
C2704 C2703 1.373 . S
C2705 C2689 1.377 . S
C2705 C2703 1.389 . S
C2705 C2706 1.524 . S
C2706 C2705 1.524 . S
C2706 C2707 1.397 . S
C2706 C2711 1.363 . S
C2707 H2678 0.950 . S
C2707 C2706 1.397 . S
C2707 C2708 1.334 . S
C2708 H2679 0.950 . S
C2708 C2707 1.334 . S
C2708 C2709 1.287 . S
C2709 C2708 1.287 . S
C2709 C2710 1.524 . S
C2709 H2712 0.999 . S
C2710 H2680 0.950 . S
C2710 C2709 1.524 . S
C2710 C2711 1.415 . S
C2711 H2681 0.950 . S
C2711 C2706 1.363 . S
C2711 C2710 1.415 . S
H2712 C2709 0.999 . S
H2713 C2694 0.913 . S
H2714 C2732 0.951 . S
H2715 C2734 0.951 . S
H2716 C2736 0.950 . S
H2717 C2737 0.950 . S
H2718 C2739 0.950 . S
H2719 C2742 0.950 . S
H2720 C2743 0.950 . S
H2721 C2745 0.950 . S
H2722 C2746 0.950 . S
H2723 C2747 0.951 . S
H2724 C2749 0.951 . S
H2725 C2751 0.950 . S
H2726 C2752 0.950 . S
H2727 C2754 0.950 . S
H2728 C2757 0.950 . S
H2729 C2758 0.950 . S
H2730 C2760 0.950 . S
H2731 C2761 0.950 . S
C2732 H2714 0.951 . S
C2732 C2733 1.366 . S
C2732 C2734 1.388 . S
C2733 C2732 1.366 . S
C2733 C2737 1.385 . S
C2734 H2715 0.951 . S
C2734 C2732 1.388 . S
C2734 C2735 1.366 . S
C2735 C2734 1.366 . S
C2735 C2736 1.414 . S
C2735 C2738 1.499 . S
C2736 H2716 0.950 . S
C2736 C2735 1.414 . S
C2736 C2737 1.374 . S
C2737 H2717 0.950 . S
C2737 C2733 1.385 . S
C2737 C2736 1.374 . S
C2738 C2735 1.499 . S
C2738 C2739 1.373 . S
C2738 C2740 1.389 . S
C2739 H2718 0.950 . S
C2739 C2738 1.373 . S
C2739 C2755 1.377 . S
C2740 C2738 1.389 . S
C2740 C2741 1.524 . S
C2740 C2754 1.377 . S
C2741 C2740 1.524 . S
C2741 C2742 1.397 . S
C2741 C2746 1.363 . S
C2742 H2719 0.950 . S
C2742 C2741 1.397 . S
C2742 C2743 1.334 . S
C2743 H2720 0.950 . S
C2743 C2742 1.334 . S
C2743 C2744 1.287 . S
C2744 C2743 1.287 . S
C2744 C2745 1.524 . S
C2744 H2763 0.913 . S
C2745 H2721 0.950 . S
C2745 C2744 1.524 . S
C2745 C2746 1.415 . S
C2746 H2722 0.950 . S
C2746 C2741 1.363 . S
C2746 C2745 1.415 . S
C2747 H2723 0.951 . S
C2747 C2748 1.366 . S
C2747 C2749 1.388 . S
C2748 C2747 1.366 . S
C2748 C2752 1.385 . S
C2749 H2724 0.951 . S
C2749 C2747 1.388 . S
C2749 C2750 1.366 . S
C2750 C2749 1.366 . S
C2750 C2751 1.414 . S
C2750 C2753 1.499 . S
C2751 H2725 0.950 . S
C2751 C2750 1.414 . S
C2751 C2752 1.374 . S
C2752 H2726 0.950 . S
C2752 C2748 1.385 . S
C2752 C2751 1.374 . S
C2753 C2750 1.499 . S
C2753 C2754 1.373 . S
C2753 C2755 1.389 . S
C2754 H2727 0.950 . S
C2754 C2740 1.377 . S
C2754 C2753 1.373 . S
C2755 C2739 1.377 . S
C2755 C2753 1.389 . S
C2755 C2756 1.524 . S
C2756 C2755 1.524 . S
C2756 C2757 1.397 . S
C2756 C2761 1.363 . S
C2757 H2728 0.950 . S
C2757 C2756 1.397 . S
C2757 C2758 1.334 . S
C2758 H2729 0.950 . S
C2758 C2757 1.334 . S
C2758 C2759 1.287 . S
C2759 C2758 1.287 . S
C2759 C2760 1.524 . S
C2759 H2762 0.999 . S
C2760 H2730 0.950 . S
C2760 C2759 1.524 . S
C2760 C2761 1.415 . S
C2761 H2731 0.950 . S
C2761 C2756 1.363 . S
C2761 C2760 1.415 . S
H2762 C2759 0.999 . S
H2763 C2744 0.913 . S
H2764 C2782 0.951 . S
H2765 C2784 0.951 . S
H2766 C2786 0.950 . S
H2767 C2787 0.950 . S
H2768 C2789 0.950 . S
H2769 C2792 0.950 . S
H2770 C2793 0.950 . S
H2771 C2795 0.950 . S
H2772 C2796 0.950 . S
H2773 C2797 0.951 . S
H2774 C2799 0.951 . S
H2775 C2801 0.950 . S
H2776 C2802 0.950 . S
H2777 C2804 0.950 . S
H2778 C2807 0.950 . S
H2779 C2808 0.950 . S
H2780 C2810 0.950 . S
H2781 C2811 0.950 . S
C2782 H2764 0.951 . S
C2782 C2783 1.366 . S
C2782 C2784 1.388 . S
C2783 C2782 1.366 . S
C2783 C2787 1.385 . S
C2784 H2765 0.951 . S
C2784 C2782 1.388 . S
C2784 C2785 1.366 . S
C2785 C2784 1.366 . S
C2785 C2786 1.414 . S
C2785 C2788 1.499 . S
C2786 H2766 0.950 . S
C2786 C2785 1.414 . S
C2786 C2787 1.374 . S
C2787 H2767 0.950 . S
C2787 C2783 1.385 . S
C2787 C2786 1.374 . S
C2788 C2785 1.499 . S
C2788 C2789 1.373 . S
C2788 C2790 1.389 . S
C2789 H2768 0.950 . S
C2789 C2788 1.373 . S
C2789 C2805 1.377 . S
C2790 C2788 1.389 . S
C2790 C2791 1.524 . S
C2790 C2804 1.377 . S
C2791 C2790 1.524 . S
C2791 C2792 1.397 . S
C2791 C2796 1.363 . S
C2792 H2769 0.950 . S
C2792 C2791 1.397 . S
C2792 C2793 1.334 . S
C2793 H2770 0.950 . S
C2793 C2792 1.334 . S
C2793 C2794 1.287 . S
C2794 C2793 1.287 . S
C2794 C2795 1.524 . S
C2794 H2813 0.913 . S
C2795 H2771 0.950 . S
C2795 C2794 1.524 . S
C2795 C2796 1.415 . S
C2796 H2772 0.950 . S
C2796 C2791 1.363 . S
C2796 C2795 1.415 . S
C2797 H2773 0.951 . S
C2797 C2798 1.366 . S
C2797 C2799 1.388 . S
C2798 C2797 1.366 . S
C2798 C2802 1.385 . S
C2799 H2774 0.951 . S
C2799 C2797 1.388 . S
C2799 C2800 1.366 . S
C2800 C2799 1.366 . S
C2800 C2801 1.414 . S
C2800 C2803 1.499 . S
C2801 H2775 0.950 . S
C2801 C2800 1.414 . S
C2801 C2802 1.374 . S
C2802 H2776 0.950 . S
C2802 C2798 1.385 . S
C2802 C2801 1.374 . S
C2803 C2800 1.499 . S
C2803 C2804 1.373 . S
C2803 C2805 1.389 . S
C2804 H2777 0.950 . S
C2804 C2790 1.377 . S
C2804 C2803 1.373 . S
C2805 C2789 1.377 . S
C2805 C2803 1.389 . S
C2805 C2806 1.524 . S
C2806 C2805 1.524 . S
C2806 C2807 1.397 1_655 S
C2806 C2811 1.363 . S
C2807 H2778 0.950 . S
C2807 C2806 1.397 1_455 S
C2807 C2808 1.334 . S
C2808 H2779 0.950 . S
C2808 C2807 1.334 . S
C2808 C2809 1.287 . S
C2809 C2808 1.287 . S
C2809 C2810 1.512 1_455 S
C2809 H2812 0.999 . S
C2810 H2780 0.950 . S
C2810 C2809 1.512 1_655 S
C2810 C2811 1.426 . S
C2811 H2781 0.950 . S
C2811 C2806 1.363 . S
C2811 C2810 1.426 . S
H2812 C2809 0.999 . S
H2813 C2794 0.913 . S
H2814 C2832 0.951 . S
H2815 C2834 0.951 . S
H2816 C2836 0.950 . S
H2817 C2837 0.950 . S
H2818 C2839 0.950 . S
H2819 C2842 0.950 . S
H2820 C2843 0.950 . S
H2821 C2845 0.950 . S
H2822 C2846 0.950 . S
H2823 C2847 0.951 1_545 S
H2824 C2849 0.951 . S
H2825 C2851 0.950 . S
H2826 C2852 0.950 . S
H2827 C2854 0.950 . S
H2828 C2857 0.950 . S
H2829 C2858 0.950 . S
H2830 C2860 0.950 . S
H2831 C2861 0.950 . S
C2832 H2814 0.951 . S
C2832 C2833 1.366 . S
C2832 C2834 1.388 . S
C2833 C2832 1.366 . S
C2833 C2837 1.385 . S
C2834 H2815 0.951 . S
C2834 C2832 1.388 . S
C2834 C2835 1.366 . S
C2835 C2834 1.366 . S
C2835 C2836 1.414 . S
C2835 C2838 1.499 . S
C2836 H2816 0.950 . S
C2836 C2835 1.414 . S
C2836 C2837 1.374 . S
C2837 H2817 0.950 . S
C2837 C2833 1.385 . S
C2837 C2836 1.374 . S
C2838 C2835 1.499 . S
C2838 C2839 1.373 . S
C2838 C2840 1.389 . S
C2839 H2818 0.950 . S
C2839 C2838 1.373 . S
C2839 C2855 1.377 . S
C2840 C2838 1.389 . S
C2840 C2841 1.524 . S
C2840 C2854 1.377 . S
C2841 C2840 1.524 . S
C2841 C2842 1.397 . S
C2841 C2846 1.363 . S
C2842 H2819 0.950 . S
C2842 C2841 1.397 . S
C2842 C2843 1.334 . S
C2843 H2820 0.950 . S
C2843 C2842 1.334 . S
C2843 C2844 1.287 . S
C2844 C2843 1.287 . S
C2844 C2845 1.524 . S
C2844 H2863 0.913 . S
C2845 H2821 0.950 . S
C2845 C2844 1.524 . S
C2845 C2846 1.415 . S
C2846 H2822 0.950 . S
C2846 C2841 1.363 . S
C2846 C2845 1.415 . S
C2847 H2823 0.951 1_565 S
C2847 C2848 1.366 . S
C2847 C2849 1.388 . S
C2848 C2847 1.366 . S
C2848 C2852 1.385 . S
C2849 H2824 0.951 . S
C2849 C2847 1.388 . S
C2849 C2850 1.366 . S
C2850 C2849 1.366 . S
C2850 C2851 1.414 . S
C2850 C2853 1.499 . S
C2851 H2825 0.950 . S
C2851 C2850 1.414 . S
C2851 C2852 1.374 . S
C2852 H2826 0.950 . S
C2852 C2848 1.385 . S
C2852 C2851 1.374 . S
C2853 C2850 1.499 . S
C2853 C2854 1.373 . S
C2853 C2855 1.389 . S
C2854 H2827 0.950 . S
C2854 C2840 1.377 . S
C2854 C2853 1.373 . S
C2855 C2839 1.377 . S
C2855 C2853 1.389 . S
C2855 C2856 1.524 . S
C2856 C2855 1.524 . S
C2856 C2857 1.397 . S
C2856 C2861 1.363 . S
C2857 H2828 0.950 . S
C2857 C2856 1.397 . S
C2857 C2858 1.334 . S
C2858 H2829 0.950 . S
C2858 C2857 1.334 . S
C2858 C2859 1.287 . S
C2859 C2858 1.287 . S
C2859 C2860 1.524 . S
C2859 H2862 0.999 . S
C2860 H2830 0.950 . S
C2860 C2859 1.524 . S
C2860 C2861 1.415 . S
C2861 H2831 0.950 . S
C2861 C2856 1.363 . S
C2861 C2860 1.415 . S
H2862 C2859 0.999 . S
H2863 C2844 0.913 . S
H2864 C2882 0.951 . S
H2865 C2884 0.951 . S
H2866 C2886 0.950 . S
H2867 C2887 0.950 . S
H2868 C2889 0.950 . S
H2869 C2892 0.950 . S
H2870 C2893 0.950 . S
H2871 C2895 0.950 . S
H2872 C2896 0.950 . S
H2873 C2897 0.951 . S
H2874 C2899 0.951 . S
H2875 C2901 0.950 . S
H2876 C2902 0.950 . S
H2877 C2904 0.950 . S
H2878 C2907 0.950 . S
H2879 C2908 0.950 . S
H2880 C2910 0.950 . S
H2881 C2911 0.950 . S
C2882 H2864 0.951 . S
C2882 C2883 1.366 . S
C2882 C2884 1.388 . S
C2883 C2882 1.366 . S
C2883 C2887 1.385 . S
C2884 H2865 0.951 . S
C2884 C2882 1.388 . S
C2884 C2885 1.366 . S
C2885 C2884 1.366 . S
C2885 C2886 1.414 . S
C2885 C2888 1.499 . S
C2886 H2866 0.950 . S
C2886 C2885 1.414 . S
C2886 C2887 1.374 . S
C2887 H2867 0.950 . S
C2887 C2883 1.385 . S
C2887 C2886 1.374 . S
C2888 C2885 1.499 . S
C2888 C2889 1.373 . S
C2888 C2890 1.389 . S
C2889 H2868 0.950 . S
C2889 C2888 1.373 . S
C2889 C2905 1.377 . S
C2890 C2888 1.389 . S
C2890 C2891 1.524 . S
C2890 C2904 1.377 . S
C2891 C2890 1.524 . S
C2891 C2892 1.397 . S
C2891 C2896 1.363 . S
C2892 H2869 0.950 . S
C2892 C2891 1.397 . S
C2892 C2893 1.334 . S
C2893 H2870 0.950 . S
C2893 C2892 1.334 . S
C2893 C2894 1.287 . S
C2894 C2893 1.287 . S
C2894 C2895 1.524 . S
C2894 H2913 0.913 . S
C2895 H2871 0.950 . S
C2895 C2894 1.524 . S
C2895 C2896 1.415 . S
C2896 H2872 0.950 . S
C2896 C2891 1.363 . S
C2896 C2895 1.415 . S
C2897 H2873 0.951 . S
C2897 C2898 1.366 . S
C2897 C2899 1.388 . S
C2898 C2897 1.366 . S
C2898 C2902 1.385 . S
C2899 H2874 0.951 . S
C2899 C2897 1.388 . S
C2899 C2900 1.366 . S
C2900 C2899 1.366 . S
C2900 C2901 1.414 . S
C2900 C2903 1.499 . S
C2901 H2875 0.950 . S
C2901 C2900 1.414 . S
C2901 C2902 1.374 . S
C2902 H2876 0.950 . S
C2902 C2898 1.385 . S
C2902 C2901 1.374 . S
C2903 C2900 1.499 . S
C2903 C2904 1.373 . S
C2903 C2905 1.389 . S
C2904 H2877 0.950 . S
C2904 C2890 1.377 . S
C2904 C2903 1.373 . S
C2905 C2889 1.377 . S
C2905 C2903 1.389 . S
C2905 C2906 1.524 . S
C2906 C2905 1.524 . S
C2906 C2907 1.397 . S
C2906 C2911 1.363 . S
C2907 H2878 0.950 . S
C2907 C2906 1.397 . S
C2907 C2908 1.334 . S
C2908 H2879 0.950 . S
C2908 C2907 1.334 . S
C2908 C2909 1.287 . S
C2909 C2908 1.287 . S
C2909 C2910 1.524 . S
C2909 H2912 0.999 . S
C2910 H2880 0.950 . S
C2910 C2909 1.524 . S
C2910 C2911 1.415 . S
C2911 H2881 0.950 . S
C2911 C2906 1.363 . S
C2911 C2910 1.415 . S
H2912 C2909 0.999 . S
H2913 C2894 0.913 . S
H2914 C2932 0.951 . S
H2915 C2934 0.951 . S
H2916 C2936 0.950 . S
H2917 C2937 0.950 . S
H2918 C2939 0.950 . S
H2919 C2942 0.950 . S
H2920 C2943 0.950 . S
H2921 C2945 0.950 . S
H2922 C2946 0.950 . S
H2923 C2947 0.951 . S
H2924 C2949 0.951 . S
H2925 C2951 0.950 . S
H2926 C2952 0.950 . S
H2927 C2954 0.950 . S
H2928 C2957 0.950 . S
H2929 C2958 0.950 . S
H2930 C2960 0.950 . S
H2931 C2961 0.950 . S
C2932 H2914 0.951 . S
C2932 C2933 1.366 . S
C2932 C2934 1.388 . S
C2933 C2932 1.366 . S
C2933 C2937 1.385 . S
C2934 H2915 0.951 . S
C2934 C2932 1.388 . S
C2934 C2935 1.366 . S
C2935 C2934 1.366 . S
C2935 C2936 1.414 . S
C2935 C2938 1.499 . S
C2936 H2916 0.950 . S
C2936 C2935 1.414 . S
C2936 C2937 1.374 . S
C2937 H2917 0.950 . S
C2937 C2933 1.385 . S
C2937 C2936 1.374 . S
C2938 C2935 1.499 . S
C2938 C2939 1.373 . S
C2938 C2940 1.389 . S
C2939 H2918 0.950 . S
C2939 C2938 1.373 . S
C2939 C2955 1.377 . S
C2940 C2938 1.389 . S
C2940 C2941 1.524 . S
C2940 C2954 1.377 . S
C2941 C2940 1.524 . S
C2941 C2942 1.397 . S
C2941 C2946 1.363 . S
C2942 H2919 0.950 . S
C2942 C2941 1.397 . S
C2942 C2943 1.334 . S
C2943 H2920 0.950 . S
C2943 C2942 1.334 . S
C2943 C2944 1.287 . S
C2944 C2943 1.287 . S
C2944 C2945 1.524 . S
C2944 H2963 0.913 . S
C2945 H2921 0.950 . S
C2945 C2944 1.524 . S
C2945 C2946 1.415 . S
C2946 H2922 0.950 . S
C2946 C2941 1.363 . S
C2946 C2945 1.415 . S
C2947 H2923 0.951 . S
C2947 C2948 1.366 . S
C2947 C2949 1.388 . S
C2948 C2947 1.366 . S
C2948 C2952 1.385 . S
C2949 H2924 0.951 . S
C2949 C2947 1.388 . S
C2949 C2950 1.366 . S
C2950 C2949 1.366 . S
C2950 C2951 1.414 . S
C2950 C2953 1.499 . S
C2951 H2925 0.950 . S
C2951 C2950 1.414 . S
C2951 C2952 1.374 . S
C2952 H2926 0.950 . S
C2952 C2948 1.385 . S
C2952 C2951 1.374 . S
C2953 C2950 1.499 . S
C2953 C2954 1.373 . S
C2953 C2955 1.389 . S
C2954 H2927 0.950 . S
C2954 C2940 1.377 . S
C2954 C2953 1.373 . S
C2955 C2939 1.377 . S
C2955 C2953 1.389 . S
C2955 C2956 1.524 . S
C2956 C2955 1.524 . S
C2956 C2957 1.397 . S
C2956 C2961 1.363 . S
C2957 H2928 0.950 . S
C2957 C2956 1.397 . S
C2957 C2958 1.334 . S
C2958 H2929 0.950 . S
C2958 C2957 1.334 . S
C2958 C2959 1.287 . S
C2959 C2958 1.287 . S
C2959 C2960 1.524 . S
C2959 H2962 0.999 . S
C2960 H2930 0.950 . S
C2960 C2959 1.524 . S
C2960 C2961 1.415 . S
C2961 H2931 0.950 . S
C2961 C2956 1.363 . S
C2961 C2960 1.415 . S
H2962 C2959 0.999 . S
H2963 C2944 0.913 . S
H2964 C2982 0.951 . S
H2965 C2984 0.951 . S
H2966 C2986 0.950 . S
H2967 C2987 0.950 . S
H2968 C2989 0.950 . S
H2969 C2992 0.950 . S
H2970 C2993 0.950 . S
H2971 C2995 0.905 1_655 S
H2972 C2996 0.950 . S
H2973 C2997 0.951 . S
H2974 C2999 0.951 . S
H2975 C3001 0.950 1_655 S
H2976 C3002 0.950 . S
H2977 C3004 0.950 . S
H2978 C3007 0.950 . S
H2979 C3008 0.950 . S
H2980 C3010 0.950 . S
H2981 C3011 0.950 . S
C2982 H2964 0.951 . S
C2982 C2983 1.366 . S
C2982 C2984 1.388 . S
C2983 C2982 1.366 . S
C2983 C2987 1.385 . S
C2984 H2965 0.951 . S
C2984 C2982 1.388 . S
C2984 C2985 1.366 . S
C2985 C2984 1.366 . S
C2985 C2986 1.414 . S
C2985 C2988 1.499 . S
C2986 H2966 0.950 . S
C2986 C2985 1.414 . S
C2986 C2987 1.374 . S
C2987 H2967 0.950 . S
C2987 C2983 1.385 . S
C2987 C2986 1.374 . S
C2988 C2985 1.499 . S
C2988 C2989 1.373 . S
C2988 C2990 1.389 . S
C2989 H2968 0.950 . S
C2989 C2988 1.373 . S
C2989 C3005 1.377 . S
C2990 C2988 1.389 . S
C2990 C2991 1.524 . S
C2990 C3004 1.377 . S
C2991 C2990 1.524 . S
C2991 C2992 1.397 . S
C2991 C2996 1.363 . S
C2992 H2969 0.950 . S
C2992 C2991 1.397 . S
C2992 C2993 1.334 . S
C2993 H2970 0.950 . S
C2993 C2992 1.334 . S
C2993 C2994 1.287 . S
C2994 C2993 1.287 . S
C2994 C2995 1.554 . S
C2994 H3013 0.913 . S
C2995 H2971 0.905 1_455 S
C2995 C2994 1.554 . S
C2995 C2996 1.438 . S
C2996 H2972 0.950 . S
C2996 C2991 1.363 . S
C2996 C2995 1.438 . S
C2997 H2973 0.951 . S
C2997 C2998 1.366 . S
C2997 C2999 1.388 . S
C2998 C2997 1.366 . S
C2998 C3002 1.385 1_455 S
C2999 H2974 0.951 . S
C2999 C2997 1.388 . S
C2999 C3000 1.366 . S
C3000 C2999 1.366 . S
C3000 C3001 1.414 . S
C3000 C3003 1.499 . S
C3001 H2975 0.950 1_455 S
C3001 C3000 1.414 . S
C3001 C3002 1.374 1_455 S
C3002 H2976 0.950 . S
C3002 C2998 1.385 1_655 S
C3002 C3001 1.374 1_655 S
C3003 C3000 1.499 . S
C3003 C3004 1.373 . S
C3003 C3005 1.389 . S
C3004 H2977 0.950 . S
C3004 C2990 1.377 . S
C3004 C3003 1.373 . S
C3005 C2989 1.377 . S
C3005 C3003 1.389 . S
C3005 C3006 1.524 . S
C3006 C3005 1.524 . S
C3006 C3007 1.397 . S
C3006 C3011 1.363 . S
C3007 H2978 0.950 . S
C3007 C3006 1.397 . S
C3007 C3008 1.334 . S
C3008 H2979 0.950 . S
C3008 C3007 1.334 . S
C3008 C3009 1.287 . S
C3009 C3008 1.287 . S
C3009 C3010 1.524 . S
C3009 H3012 0.999 . S
C3010 H2980 0.950 . S
C3010 C3009 1.524 . S
C3010 C3011 1.415 . S
C3011 H2981 0.950 . S
C3011 C3006 1.363 . S
C3011 C3010 1.415 . S
H3012 C3009 0.999 . S
H3013 C2994 0.913 . S
H3014 C3032 0.951 . S
H3015 C3034 0.951 . S
H3016 C3036 0.950 1_565 S
H3017 C3037 0.950 . S
H3018 C3039 0.950 . S
H3019 C3042 0.950 . S
H3020 C3043 0.950 . S
H3021 C3045 0.950 . S
H3022 C3046 0.950 . S
H3023 C3047 0.951 . S
H3024 C3049 0.951 . S
H3025 C3051 0.950 . S
H3026 C3052 0.950 . S
H3027 C3054 0.950 . S
H3028 C3057 0.950 . S
H3029 C3058 0.950 . S
H3030 C3060 0.950 . S
H3031 C3061 0.950 . S
C3032 H3014 0.951 . S
C3032 C3033 1.366 . S
C3032 C3034 1.388 . S
C3033 C3032 1.366 . S
C3033 C3037 1.385 1_545 S
C3034 H3015 0.951 . S
C3034 C3032 1.388 . S
C3034 C3035 1.366 . S
C3035 C3034 1.366 . S
C3035 C3036 1.414 . S
C3035 C3038 1.499 . S
C3036 H3016 0.950 1_545 S
C3036 C3035 1.414 . S
C3036 C3037 1.374 1_545 S
C3037 H3017 0.950 . S
C3037 C3033 1.385 1_565 S
C3037 C3036 1.374 1_565 S
C3038 C3035 1.499 . S
C3038 C3039 1.373 . S
C3038 C3040 1.389 . S
C3039 H3018 0.950 . S
C3039 C3038 1.373 . S
C3039 C3055 1.377 . S
C3040 C3038 1.389 . S
C3040 C3041 1.524 . S
C3040 C3054 1.377 . S
C3041 C3040 1.524 . S
C3041 C3042 1.397 . S
C3041 C3046 1.363 . S
C3042 H3019 0.950 . S
C3042 C3041 1.397 . S
C3042 C3043 1.334 . S
C3043 H3020 0.950 . S
C3043 C3042 1.334 . S
C3043 C3044 1.287 . S
C3044 C3043 1.287 . S
C3044 C3045 1.524 . S
C3044 H3063 0.913 . S
C3045 H3021 0.950 . S
C3045 C3044 1.524 . S
C3045 C3046 1.415 . S
C3046 H3022 0.950 . S
C3046 C3041 1.363 . S
C3046 C3045 1.415 . S
C3047 H3023 0.951 . S
C3047 C3048 1.366 . S
C3047 C3049 1.388 . S
C3048 C3047 1.366 . S
C3048 C3052 1.385 . S
C3049 H3024 0.951 . S
C3049 C3047 1.388 . S
C3049 C3050 1.366 . S
C3050 C3049 1.366 . S
C3050 C3051 1.414 . S
C3050 C3053 1.499 . S
C3051 H3025 0.950 . S
C3051 C3050 1.414 . S
C3051 C3052 1.374 . S
C3052 H3026 0.950 . S
C3052 C3048 1.385 . S
C3052 C3051 1.374 . S
C3053 C3050 1.499 . S
C3053 C3054 1.373 . S
C3053 C3055 1.389 . S
C3054 H3027 0.950 . S
C3054 C3040 1.377 . S
C3054 C3053 1.373 . S
C3055 C3039 1.377 . S
C3055 C3053 1.389 . S
C3055 C3056 1.524 . S
C3056 C3055 1.524 . S
C3056 C3057 1.397 . S
C3056 C3061 1.363 . S
C3057 H3028 0.950 . S
C3057 C3056 1.397 . S
C3057 C3058 1.334 . S
C3058 H3029 0.950 . S
C3058 C3057 1.334 . S
C3058 C3059 1.287 . S
C3059 C3058 1.287 . S
C3059 C3060 1.524 . S
C3059 H3062 0.999 . S
C3060 H3030 0.950 . S
C3060 C3059 1.524 . S
C3060 C3061 1.415 . S
C3061 H3031 0.950 . S
C3061 C3056 1.363 . S
C3061 C3060 1.415 . S
H3062 C3059 0.999 . S
H3063 C3044 0.913 . S
H3064 C3082 0.951 . S
H3065 C3084 0.951 . S
H3066 C3086 0.950 . S
H3067 C3087 0.950 . S
H3068 C3089 0.950 . S
H3069 C3092 0.950 . S
H3070 C3093 0.950 . S
H3071 C3095 0.950 . S
H3072 C3096 0.950 . S
H3073 C3097 0.951 . S
H3074 C3099 0.951 . S
H3075 C3101 0.950 . S
H3076 C3102 0.950 . S
H3077 C3104 0.950 . S
H3078 C3107 0.950 . S
H3079 C3108 0.950 . S
H3080 C3110 0.950 . S
H3081 C3111 0.950 . S
C3082 H3064 0.951 . S
C3082 C3083 1.366 . S
C3082 C3084 1.388 . S
C3083 C3082 1.366 . S
C3083 C3087 1.385 . S
C3084 H3065 0.951 . S
C3084 C3082 1.388 . S
C3084 C3085 1.366 . S
C3085 C3084 1.366 . S
C3085 C3086 1.414 . S
C3085 C3088 1.499 . S
C3086 H3066 0.950 . S
C3086 C3085 1.414 . S
C3086 C3087 1.374 . S
C3087 H3067 0.950 . S
C3087 C3083 1.385 . S
C3087 C3086 1.374 . S
C3088 C3085 1.499 . S
C3088 C3089 1.373 . S
C3088 C3090 1.389 . S
C3089 H3068 0.950 . S
C3089 C3088 1.373 . S
C3089 C3105 1.377 . S
C3090 C3088 1.389 . S
C3090 C3091 1.524 . S
C3090 C3104 1.377 . S
C3091 C3090 1.524 . S
C3091 C3092 1.397 . S
C3091 C3096 1.363 . S
C3092 H3069 0.950 . S
C3092 C3091 1.397 . S
C3092 C3093 1.334 . S
C3093 H3070 0.950 . S
C3093 C3092 1.334 . S
C3093 C3094 1.287 . S
C3094 C3093 1.287 . S
C3094 C3095 1.524 . S
C3094 H3113 0.913 . S
C3095 H3071 0.950 . S
C3095 C3094 1.524 . S
C3095 C3096 1.415 . S
C3096 H3072 0.950 . S
C3096 C3091 1.363 . S
C3096 C3095 1.415 . S
C3097 H3073 0.951 . S
C3097 C3098 1.366 . S
C3097 C3099 1.388 . S
C3098 C3097 1.366 . S
C3098 C3102 1.385 . S
C3099 H3074 0.951 . S
C3099 C3097 1.388 . S
C3099 C3100 1.366 . S
C3100 C3099 1.366 . S
C3100 C3101 1.414 . S
C3100 C3103 1.499 . S
C3101 H3075 0.950 . S
C3101 C3100 1.414 . S
C3101 C3102 1.374 . S
C3102 H3076 0.950 . S
C3102 C3098 1.385 . S
C3102 C3101 1.374 . S
C3103 C3100 1.499 . S
C3103 C3104 1.373 . S
C3103 C3105 1.389 . S
C3104 H3077 0.950 . S
C3104 C3090 1.377 . S
C3104 C3103 1.373 . S
C3105 C3089 1.377 . S
C3105 C3103 1.389 . S
C3105 C3106 1.524 . S
C3106 C3105 1.524 . S
C3106 C3107 1.397 . S
C3106 C3111 1.363 . S
C3107 H3078 0.950 . S
C3107 C3106 1.397 . S
C3107 C3108 1.334 . S
C3108 H3079 0.950 . S
C3108 C3107 1.334 . S
C3108 C3109 1.287 . S
C3109 C3108 1.287 . S
C3109 C3110 1.524 . S
C3109 H3112 0.999 . S
C3110 H3080 0.950 . S
C3110 C3109 1.524 . S
C3110 C3111 1.415 . S
C3111 H3081 0.950 . S
C3111 C3106 1.363 . S
C3111 C3110 1.415 . S
H3112 C3109 0.999 . S
H3113 C3094 0.913 . S
H3114 C3132 0.951 . S
H3115 C3134 0.951 . S
H3116 C3136 0.950 . S
H3117 C3137 0.950 . S
H3118 C3139 0.950 . S
H3119 C3142 0.950 . S
H3120 C3143 0.950 . S
H3121 C3145 0.950 . S
H3122 C3146 0.950 . S
H3123 C3147 0.951 . S
H3124 C3149 0.951 . S
H3125 C3151 0.950 . S
H3126 C3152 0.950 . S
H3127 C3154 0.950 . S
H3128 C3157 0.950 . S
H3129 C3158 0.950 . S
H3130 C3160 0.950 . S
H3131 C3161 0.950 . S
C3132 H3114 0.951 . S
C3132 C3133 1.366 . S
C3132 C3134 1.388 . S
C3133 C3132 1.366 . S
C3133 C3137 1.385 . S
C3134 H3115 0.951 . S
C3134 C3132 1.388 . S
C3134 C3135 1.366 . S
C3135 C3134 1.366 . S
C3135 C3136 1.414 . S
C3135 C3138 1.499 . S
C3136 H3116 0.950 . S
C3136 C3135 1.414 . S
C3136 C3137 1.374 . S
C3137 H3117 0.950 . S
C3137 C3133 1.385 . S
C3137 C3136 1.374 . S
C3138 C3135 1.499 . S
C3138 C3139 1.373 . S
C3138 C3140 1.389 . S
C3139 H3118 0.950 . S
C3139 C3138 1.373 . S
C3139 C3155 1.377 . S
C3140 C3138 1.389 . S
C3140 C3141 1.524 . S
C3140 C3154 1.377 . S
C3141 C3140 1.524 . S
C3141 C3142 1.397 . S
C3141 C3146 1.363 . S
C3142 H3119 0.950 . S
C3142 C3141 1.397 . S
C3142 C3143 1.334 . S
C3143 H3120 0.950 . S
C3143 C3142 1.334 . S
C3143 C3144 1.287 . S
C3144 C3143 1.287 . S
C3144 C3145 1.524 . S
C3144 H3163 0.913 . S
C3145 H3121 0.950 . S
C3145 C3144 1.524 . S
C3145 C3146 1.415 . S
C3146 H3122 0.950 . S
C3146 C3141 1.363 . S
C3146 C3145 1.415 . S
C3147 H3123 0.951 . S
C3147 C3148 1.366 . S
C3147 C3149 1.388 . S
C3148 C3147 1.366 . S
C3148 C3152 1.385 . S
C3149 H3124 0.951 . S
C3149 C3147 1.388 . S
C3149 C3150 1.366 . S
C3150 C3149 1.366 . S
C3150 C3151 1.414 . S
C3150 C3153 1.499 . S
C3151 H3125 0.950 . S
C3151 C3150 1.414 . S
C3151 C3152 1.374 . S
C3152 H3126 0.950 . S
C3152 C3148 1.385 . S
C3152 C3151 1.374 . S
C3153 C3150 1.499 . S
C3153 C3154 1.373 . S
C3153 C3155 1.389 . S
C3154 H3127 0.950 . S
C3154 C3140 1.377 . S
C3154 C3153 1.373 . S
C3155 C3139 1.377 . S
C3155 C3153 1.389 . S
C3155 C3156 1.524 . S
C3156 C3155 1.524 . S
C3156 C3157 1.397 . S
C3156 C3161 1.363 . S
C3157 H3128 0.950 . S
C3157 C3156 1.397 . S
C3157 C3158 1.334 . S
C3158 H3129 0.950 . S
C3158 C3157 1.334 . S
C3158 C3159 1.287 . S
C3159 C3158 1.287 . S
C3159 C3160 1.524 . S
C3159 H3162 0.999 . S
C3160 H3130 0.950 . S
C3160 C3159 1.524 . S
C3160 C3161 1.415 . S
C3161 H3131 0.950 . S
C3161 C3156 1.363 . S
C3161 C3160 1.415 . S
H3162 C3159 0.999 . S
H3163 C3144 0.913 . S
H3164 C3182 0.951 . S
H3165 C3184 0.951 . S
H3166 C3186 0.950 1_655 S
H3167 C3187 0.950 . S
H3168 C3189 0.950 . S
H3169 C3192 0.950 . S
H3170 C3193 0.950 . S
H3171 C3195 0.950 . S
H3172 C3196 0.950 . S
H3173 C3197 0.951 . S
H3174 C3199 0.951 . S
H3175 C3201 0.950 . S
H3176 C3202 0.950 . S
H3177 C3204 0.950 . S
H3178 C3207 0.950 . S
H3179 C3208 0.950 . S
H3180 C3210 0.996 . S
H3181 C3211 0.950 . S
C3182 H3164 0.951 . S
C3182 C3183 1.366 . S
C3182 C3184 1.388 . S
C3183 C3182 1.366 . S
C3183 C3187 1.385 1_455 S
C3184 H3165 0.951 . S
C3184 C3182 1.388 . S
C3184 C3185 1.366 . S
C3185 C3184 1.366 . S
C3185 C3186 1.414 . S
C3185 C3188 1.499 . S
C3186 H3166 0.950 1_455 S
C3186 C3185 1.414 . S
C3186 C3187 1.374 1_455 S
C3187 H3167 0.950 . S
C3187 C3183 1.385 1_655 S
C3187 C3186 1.374 1_655 S
C3188 C3185 1.499 . S
C3188 C3189 1.373 . S
C3188 C3190 1.389 . S
C3189 H3168 0.950 . S
C3189 C3188 1.373 . S
C3189 C3205 1.377 . S
C3190 C3188 1.389 . S
C3190 C3191 1.524 . S
C3190 C3204 1.377 . S
C3191 C3190 1.524 . S
C3191 C3192 1.397 . S
C3191 C3196 1.363 . S
C3192 H3169 0.950 . S
C3192 C3191 1.397 . S
C3192 C3193 1.334 . S
C3193 H3170 0.950 . S
C3193 C3192 1.334 . S
C3193 C3194 1.287 . S
C3194 C3193 1.287 . S
C3194 C3195 1.524 . S
C3194 H3213 0.913 . S
C3195 H3171 0.950 . S
C3195 C3194 1.524 . S
C3195 C3196 1.415 . S
C3196 H3172 0.950 . S
C3196 C3191 1.363 . S
C3196 C3195 1.415 . S
C3197 H3173 0.951 . S
C3197 C3198 1.366 . S
C3197 C3199 1.388 . S
C3198 C3197 1.366 . S
C3198 C3202 1.385 . S
C3199 H3174 0.951 . S
C3199 C3197 1.388 . S
C3199 C3200 1.366 . S
C3200 C3199 1.366 . S
C3200 C3201 1.414 . S
C3200 C3203 1.499 . S
C3201 H3175 0.950 . S
C3201 C3200 1.414 . S
C3201 C3202 1.374 . S
C3202 H3176 0.950 . S
C3202 C3198 1.385 . S
C3202 C3201 1.374 . S
C3203 C3200 1.499 . S
C3203 C3204 1.373 . S
C3203 C3205 1.389 . S
C3204 H3177 0.950 . S
C3204 C3190 1.377 . S
C3204 C3203 1.373 . S
C3205 C3189 1.377 . S
C3205 C3203 1.389 . S
C3205 C3206 1.524 . S
C3206 C3205 1.524 . S
C3206 C3207 1.397 . S
C3206 C3211 1.363 . S
C3207 H3178 0.950 . S
C3207 C3206 1.397 . S
C3207 C3208 1.334 . S
C3208 H3179 0.950 . S
C3208 C3207 1.334 . S
C3208 C3209 1.287 . S
C3209 C3208 1.287 . S
C3209 C3210 1.524 . S
C3209 H3212 0.999 . S
C3210 H3180 0.996 . S
C3210 C3209 1.524 . S
C3210 C3211 1.415 . S
C3211 H3181 0.950 . S
C3211 C3206 1.363 . S
C3211 C3210 1.415 . S
H3212 C3209 0.999 . S
H3213 C3194 0.913 . S
H3214 C3232 0.951 . S
H3215 C3234 0.951 . S
H3216 C3236 0.950 1_565 S
H3217 C3237 0.950 . S
H3218 C3239 0.950 . S
H3219 C3242 0.950 . S
H3220 C3243 0.950 . S
H3221 C3245 0.950 . S
H3222 C3246 0.950 . S
H3223 C3247 0.951 . S
H3224 C3249 0.951 . S
H3225 C3251 0.950 . S
H3226 C3252 0.950 . S
H3227 C3254 0.950 . S
H3228 C3257 0.950 . S
H3229 C3258 0.950 . S
H3230 C3260 0.950 . S
H3231 C3261 0.950 . S
C3232 H3214 0.951 . S
C3232 C3233 1.366 . S
C3232 C3234 1.388 . S
C3233 C3232 1.366 . S
C3233 C3237 1.385 1_545 S
C3234 H3215 0.951 . S
C3234 C3232 1.388 . S
C3234 C3235 1.366 . S
C3235 C3234 1.366 . S
C3235 C3236 1.414 . S
C3235 C3238 1.499 . S
C3236 H3216 0.950 1_545 S
C3236 C3235 1.414 . S
C3236 C3237 1.374 1_545 S
C3237 H3217 0.950 . S
C3237 C3233 1.385 1_565 S
C3237 C3236 1.374 1_565 S
C3238 C3235 1.499 . S
C3238 C3239 1.373 . S
C3238 C3240 1.389 . S
C3239 H3218 0.950 . S
C3239 C3238 1.373 . S
C3239 C3255 1.377 . S
C3240 C3238 1.389 . S
C3240 C3241 1.524 . S
C3240 C3254 1.377 . S
C3241 C3240 1.524 . S
C3241 C3242 1.397 . S
C3241 C3246 1.363 . S
C3242 H3219 0.950 . S
C3242 C3241 1.397 . S
C3242 C3243 1.334 . S
C3243 H3220 0.950 . S
C3243 C3242 1.334 . S
C3243 C3244 1.287 . S
C3244 C3243 1.287 . S
C3244 C3245 1.524 . S
C3244 H3263 0.913 . S
C3245 H3221 0.950 . S
C3245 C3244 1.524 . S
C3245 C3246 1.415 . S
C3246 H3222 0.950 . S
C3246 C3241 1.363 . S
C3246 C3245 1.415 . S
C3247 H3223 0.951 . S
C3247 C3248 1.366 . S
C3247 C3249 1.388 . S
C3248 C3247 1.366 . S
C3248 C3252 1.385 . S
C3249 H3224 0.951 . S
C3249 C3247 1.388 . S
C3249 C3250 1.366 . S
C3250 C3249 1.366 . S
C3250 C3251 1.414 . S
C3250 C3253 1.499 . S
C3251 H3225 0.950 . S
C3251 C3250 1.414 . S
C3251 C3252 1.374 . S
C3252 H3226 0.950 . S
C3252 C3248 1.385 . S
C3252 C3251 1.374 . S
C3253 C3250 1.499 . S
C3253 C3254 1.373 . S
C3253 C3255 1.389 . S
C3254 H3227 0.950 . S
C3254 C3240 1.377 . S
C3254 C3253 1.373 . S
C3255 C3239 1.377 . S
C3255 C3253 1.389 . S
C3255 C3256 1.524 . S
C3256 C3255 1.524 . S
C3256 C3257 1.397 . S
C3256 C3261 1.363 . S
C3257 H3228 0.950 . S
C3257 C3256 1.397 . S
C3257 C3258 1.334 . S
C3258 H3229 0.950 . S
C3258 C3257 1.334 . S
C3258 C3259 1.287 . S
C3259 C3258 1.287 . S
C3259 C3260 1.524 . S
C3259 H3262 0.999 . S
C3260 H3230 0.950 . S
C3260 C3259 1.524 . S
C3260 C3261 1.415 . S
C3261 H3231 0.950 . S
C3261 C3256 1.363 . S
C3261 C3260 1.415 . S
H3262 C3259 0.999 . S
H3263 C3244 0.913 . S
C483 C79 1.224 . S
C498 C21 1.224 . S
C533 C108 1.223 . S
C548 C50 1.222 . S
C583 C137 1.224 . S
C598 C195 1.224 . S
C633 C166 1.223 . S
C648 C224 1.223 . S
C683 C253 1.222 . S
C698 C311 1.223 . S
C733 C282 1.224 . S
C748 C340 1.224 . S
C783 C427 1.222 . S
C798 C369 1.222 . S
C833 C456 1.222 . S
C848 C398 1.222 . S
C883 C3 0.765 . S
C898 C266 0.759 . S
C933 C295 0.759 . S
C948 C32 0.765 . S
C983 C61 0.765 . S
C998 C324 0.760 . S
C1033 C237 0.762 . S
C1048 C90 0.764 . S
C1083 C119 0.765 . S
C1098 C440 0.759 . S
C1133 C148 0.765 . S
C1148 C353 0.762 . S
C1183 C177 0.765 . S
C1198 C382 0.762 . S
C1233 C206 0.764 . S
C1248 C411 0.761 . S
C1283 C235 0.765 . S
C1298 C34 0.761 . S
C1333 C63 0.760 . S
C1348 C264 0.765 . S
C1383 C293 0.765 . S
C1398 C92 0.761 . S
C1433 C5 0.762 . S
C1448 C322 0.764 . S
C1483 C351 0.764 . S
C1498 C208 0.762 . S
C1533 C121 0.762 . S
C1548 C380 0.764 . S
C1583 C409 0.764 . S
C1598 C150 0.761 . S
C1633 C179 0.762 . S
C1648 C438 0.765 . S
C1683 C184 1.343 . S
C1698 C10 1.343 . S
C1733 C39 1.344 . S
C1748 C213 1.343 . S
C1783 C68 1.343 . S
C1798 C126 1.345 . S
C1833 C97 1.345 . S
C1848 C155 1.344 . S
C1883 C416 1.345 . S
C1898 C242 1.344 . S
C1933 C271 1.344 . S
C1948 C445 1.343 . S
C1983 C358 1.344 . S
C1998 C300 1.345 . S
C2033 C387 1.343 . S
C2048 C329 1.344 . S
C2083 C245 2.290 . S
C2098 C13 2.290 . S
C2133 C274 2.291 . S
C2148 C42 2.291 . S
C2183 C303 2.290 . S
C2198 C71 2.290 . S
C2233 C332 2.291 . S
C2248 C100 2.291 . S
C2283 C361 2.290 . S
C2298 C129 2.290 . S
C2333 C158 2.291 . S
C2348 C390 2.291 . S
C2383 C187 2.290 . S
C2398 C419 2.290 . S
C2433 C216 2.290 . S
C2448 C448 2.290 . S
C2483 C37 2.019 . S
C2498 C15 2.178 . S
C2533 C66 2.018 . S
C2548 C44 2.178 . S
C2583 C95 2.018 1_655 S
C2598 C73 2.179 . S
C2633 C8 2.018 1_565 S
C2648 C102 2.178 . S
C2683 C131 2.178 . S
C2698 C211 2.019 . S
C2733 C160 2.179 . S
C2748 C124 2.018 . S
C2783 C189 2.178 . S
C2798 C153 2.019 1_655 S
C2833 C218 2.179 . S
C2848 C182 2.018 1_565 S
C2883 C247 2.179 . S
C2898 C269 2.018 . S
C2933 C276 2.178 . S
C2948 C298 2.019 . S
C2983 C305 2.179 . S
C2998 C327 2.018 1_455 S
C3033 C240 2.019 1_545 S
C3048 C334 2.178 . S
C3083 C443 2.018 . S
C3098 C363 2.179 . S
C3133 C392 2.179 . S
C3148 C356 2.018 . S
C3183 C385 2.018 1_455 S
C3198 C421 2.178 . S
C3233 C414 2.019 1_545 S
C3248 C450 2.178 . S
