# Generated by pormake.
# Topology sod, (4)-cn, num edge types: 1
# Building blocks:
#     Node 0, Type 0, BuildingBlock: CEKHIL_clean_sbu_0, # of connection points: 4
#     Node 1, Type 0, BuildingBlock: CEKHIL_clean_sbu_0, # of connection points: 4
#     Node 2, Type 0, BuildingBlock: CEKHIL_clean_sbu_0, # of connection points: 4
#     Node 3, Type 0, BuildingBlock: CEKHIL_clean_sbu_0, # of connection points: 4
#     Node 4, Type 0, BuildingBlock: CEKHIL_clean_sbu_0, # of connection points: 4
#     Node 5, Type 0, BuildingBlock: CEKHIL_clean_sbu_0, # of connection points: 4
#     Node 6, Type 0, BuildingBlock: CEKHIL_clean_sbu_0, # of connection points: 4
#     Node 7, Type 0, BuildingBlock: CEKHIL_clean_sbu_0, # of connection points: 4
#     Node 8, Type 0, BuildingBlock: CEKHIL_clean_sbu_0, # of connection points: 4
#     Node 9, Type 0, BuildingBlock: CEKHIL_clean_sbu_0, # of connection points: 4
#     Node 10, Type 0, BuildingBlock: CEKHIL_clean_sbu_0, # of connection points: 4
#     Node 11, Type 0, BuildingBlock: CEKHIL_clean_sbu_0, # of connection points: 4
#     Edge 12, Type (0, 0), BuildingBlock: OJICUG_clean_linker_0, # of connection points: 2
#     Edge 13, Type (0, 0), BuildingBlock: OJICUG_clean_linker_0, # of connection points: 2
#     Edge 14, Type (0, 0), BuildingBlock: OJICUG_clean_linker_0, # of connection points: 2
#     Edge 15, Type (0, 0), BuildingBlock: OJICUG_clean_linker_0, # of connection points: 2
#     Edge 16, Type (0, 0), BuildingBlock: OJICUG_clean_linker_0, # of connection points: 2
#     Edge 17, Type (0, 0), BuildingBlock: OJICUG_clean_linker_0, # of connection points: 2
#     Edge 18, Type (0, 0), BuildingBlock: OJICUG_clean_linker_0, # of connection points: 2
#     Edge 19, Type (0, 0), BuildingBlock: OJICUG_clean_linker_0, # of connection points: 2
#     Edge 20, Type (0, 0), BuildingBlock: OJICUG_clean_linker_0, # of connection points: 2
#     Edge 21, Type (0, 0), BuildingBlock: OJICUG_clean_linker_0, # of connection points: 2
#     Edge 22, Type (0, 0), BuildingBlock: OJICUG_clean_linker_0, # of connection points: 2
#     Edge 23, Type (0, 0), BuildingBlock: OJICUG_clean_linker_0, # of connection points: 2
#     Edge 24, Type (0, 0), BuildingBlock: OJICUG_clean_linker_0, # of connection points: 2
#     Edge 25, Type (0, 0), BuildingBlock: OJICUG_clean_linker_0, # of connection points: 2
#     Edge 26, Type (0, 0), BuildingBlock: OJICUG_clean_linker_0, # of connection points: 2
#     Edge 27, Type (0, 0), BuildingBlock: OJICUG_clean_linker_0, # of connection points: 2
#     Edge 28, Type (0, 0), BuildingBlock: OJICUG_clean_linker_0, # of connection points: 2
#     Edge 29, Type (0, 0), BuildingBlock: OJICUG_clean_linker_0, # of connection points: 2
#     Edge 30, Type (0, 0), BuildingBlock: OJICUG_clean_linker_0, # of connection points: 2
#     Edge 31, Type (0, 0), BuildingBlock: OJICUG_clean_linker_0, # of connection points: 2
#     Edge 32, Type (0, 0), BuildingBlock: OJICUG_clean_linker_0, # of connection points: 2
#     Edge 33, Type (0, 0), BuildingBlock: OJICUG_clean_linker_0, # of connection points: 2
#     Edge 34, Type (0, 0), BuildingBlock: OJICUG_clean_linker_0, # of connection points: 2
#     Edge 35, Type (0, 0), BuildingBlock: OJICUG_clean_linker_0, # of connection points: 2
# Relax obj value: 0.140
# Max RMSD: 0.179
# Mean RMSD: 0.169
data_MOF--net-sod--node1-CEKHIL_clean_sbu_0--edge1-OJICUG_clean_linker_0
_symmetry_space_group_name_H-M    P1
_symmetry_Int_Tables_number       1
_symmetry_cell_setting            triclinic
loop_
_symmetry_equiv_pos_as_xyz
'x, y, z'
_cell_length_a     30.296717
_cell_length_b     30.527481
_cell_length_c     30.395234
_cell_angle_alpha  92.158297
_cell_angle_beta   90.044053
_cell_angle_gamma 91.175491
loop_
_atom_site_label
_atom_site_type_symbol
_atom_site_fract_x
_atom_site_fract_y
_atom_site_fract_z
_atom_type_partial_charge
Co0 Co 0.01217 0.26965 0.50373 0.0
O1 O 0.97834 0.31389 0.47511 0.0
O2 O 0.04851 0.29935 0.46202 0.0
C3 C 0.96118 0.21462 0.50064 0.0
O4 O 0.05857 0.22643 0.52107 0.0
Co5 Co 0.98757 0.22646 0.59146 0.0
O6 O 0.03687 0.1862 0.57772 0.0
C7 C 0.00712 0.32094 0.5883 0.0
C8 C 0.01449 0.32265 0.45359 0.0
C9 C 0.06366 0.1944 0.54664 0.0
O10 O 0.02874 0.3143 0.55221 0.0
O11 O 0.98429 0.29085 0.60634 0.0
O12 O 0.98461 0.22301 0.46586 0.0
O13 O 0.96661 0.24164 0.53374 0.0
Co14 Co 0.76525 0.01176 0.51452 0.0
O15 O 0.81259 0.98252 0.48184 0.0
O16 O 0.79295 0.96996 0.55032 0.0
C17 C 0.71273 0.01082 0.46118 0.0
O18 O 0.7194 0.02758 0.56053 0.0
Co19 Co 0.71955 0.09898 0.49689 0.0
O20 O 0.67833 0.08519 0.54561 0.0
C21 C 0.81498 0.09533 0.51316 0.0
C22 C 0.81916 0.96139 0.51782 0.0
C23 C 0.68691 0.05268 0.56897 0.0
O24 O 0.80894 0.0597 0.53411 0.0
O25 O 0.78413 0.1133 0.49206 0.0
O26 O 0.71991 0.9754 0.48269 0.0
O27 O 0.73897 0.04342 0.47036 0.0
Co28 Co 0.99711 0.77137 0.5398 0.0
O29 O 0.96371 0.72563 0.56922 0.0
O30 O 0.03352 0.74439 0.58225 0.0
C31 C 0.94518 0.82394 0.5409 0.0
O32 O 0.04408 0.81539 0.52233 0.0
Co33 Co 0.97588 0.81552 0.45243 0.0
O34 O 0.0231 0.85949 0.46944 0.0
C35 C 0.99594 0.72114 0.45448 0.0
C36 C 1.00015 0.71907 0.59079 0.0
C37 C 0.05014 0.84927 0.49926 0.0
O38 O 0.01471 0.72712 0.49234 0.0
O39 O 0.97494 0.75119 0.43557 0.0
O40 O 0.96839 0.8175 0.57619 0.0
O41 O 0.95199 0.79706 0.50823 0.0
Co42 Co 0.26531 0.02996 0.51433 0.0
O43 O 0.21853 0.05675 0.48106 0.0
O44 O 0.2377 0.07431 0.54992 0.0
C45 C 0.31876 0.02761 0.46263 0.0
O46 O 0.31098 0.01625 0.56045 0.0
Co47 Co 0.30854 0.94039 0.4952 0.0
O48 O 0.353 0.95942 0.54031 0.0
C49 C 0.21498 0.94444 0.52034 0.0
C50 C 0.21146 0.08008 0.51718 0.0
C51 C 0.34485 0.99242 0.56559 0.0
O52 O 0.22059 0.98463 0.53404 0.0
O53 O 0.24522 0.92215 0.5013 0.0
O54 O 0.31098 0.06431 0.48437 0.0
O55 O 0.29176 0.99553 0.46989 0.0
Co56 Co 0.52491 0.03806 0.27732 0.0
O57 O 0.55705 0.06683 0.23045 0.0
O58 O 0.4893 0.08204 0.25238 0.0
C59 C 0.5796 0.03645 0.32818 0.0
O60 O 0.48009 0.02196 0.32373 0.0
Co61 Co 0.54449 0.94859 0.31733 0.0
O62 O 0.49659 0.96208 0.36023 0.0
C63 C 0.5193 0.9545 0.22437 0.0
C64 C 0.52151 0.08969 0.22568 0.0
C65 C 0.4727 0.99526 0.35454 0.0
O66 O 0.50199 0.9921 0.23282 0.0
O67 O 0.54191 0.93432 0.25246 0.0
O68 O 0.55823 0.07256 0.32279 0.0
O69 O 0.56987 1.00465 0.30076 0.0
Co70 Co 0.02706 0.50572 0.26999 0.0
O71 O 0.06142 0.48 0.31624 0.0
O72 O 0.99407 0.45876 0.29531 0.0
C73 C 0.07999 0.51184 0.21803 0.0
O74 O 0.9812 0.51842 0.22386 0.0
Co75 Co 0.04268 0.59737 0.23159 0.0
O76 O 0.99677 0.5793 0.18736 0.0
C77 C 0.01794 0.58829 0.324 0.0
C78 C 0.02718 0.45409 0.32153 0.0
C79 C 0.9739 0.54442 0.1926 0.0
O80 O 1.00257 0.54935 0.31494 0.0
O81 O 0.03952 0.61087 0.2964 0.0
O82 O 0.06064 0.47394 0.22396 0.0
O83 O 0.07003 0.54263 0.24612 0.0
Co84 Co 0.52847 0.00784 0.77383 0.0
O85 O 0.56265 0.98201 0.82017 0.0
O86 O 0.49482 0.96179 0.79986 0.0
C87 C 0.58115 0.01262 0.72146 0.0
O88 O 0.48254 0.02072 0.72788 0.0
Co89 Co 0.54494 0.09872 0.73428 0.0
O90 O 0.49824 0.08111 0.69069 0.0
C91 C 0.52268 0.09059 0.82737 0.0
C92 C 0.52797 0.95681 0.82595 0.0
C93 C 0.47514 0.04648 0.69645 0.0
O94 O 0.50524 0.05244 0.81849 0.0
O95 O 0.54468 0.11212 0.79924 0.0
O96 O 0.56126 0.97508 0.72784 0.0
O97 O 0.57178 0.04382 0.74929 0.0
Co98 Co 0.02364 0.5368 0.77422 0.0
O99 O 0.05631 0.56542 0.7276 0.0
O100 O 0.98823 0.5805 0.74853 0.0
C101 C 0.07768 0.53558 0.8258 0.0
O102 O 0.97823 0.52078 0.82011 0.0
Co103 Co 0.04273 0.44759 0.81484 0.0
O104 O 0.99387 0.46077 0.85676 0.0
C105 C 0.02047 0.45368 0.7212 0.0
C106 C 0.02074 0.58808 0.72217 0.0
C107 C 0.97021 0.49403 0.85073 0.0
O108 O 1.00167 0.49054 0.7296 0.0
O109 O 0.04297 0.434 0.74977 0.0
O110 O 0.05629 0.5716 0.81997 0.0
O111 O 0.06833 0.50364 0.79843 0.0
Co112 Co 0.26399 0.51257 0.01179 0.0
O113 O 0.31137 0.48275 0.97955 0.0
O114 O 0.2915 0.47121 0.04816 0.0
C115 C 0.21142 0.51111 0.95845 0.0
O116 O 0.21817 0.52879 0.05761 0.0
Co117 Co 0.21806 0.59943 0.99356 0.0
O118 O 0.17675 0.58601 0.04238 0.0
C119 C 0.31355 0.59631 0.00986 0.0
C120 C 0.31774 0.46207 0.01585 0.0
C121 C 0.18556 0.55373 0.06596 0.0
O122 O 0.30768 0.56073 0.03094 0.0
O123 O 0.28258 0.61403 0.98868 0.0
O124 O 0.21863 0.47593 0.98033 0.0
O125 O 0.23768 0.54379 0.96729 0.0
Co126 Co 0.4958 0.27312 0.04383 0.0
O127 O 0.46311 0.22703 0.07335 0.0
O128 O 0.53221 0.24783 0.08743 0.0
C129 C 0.44274 0.32448 0.04299 0.0
O130 O 0.54172 0.31803 0.02615 0.0
Co131 Co 0.47434 0.31406 0.95474 0.0
O132 O 0.52144 0.3587 0.97021 0.0
C133 C 0.49766 0.22092 0.95966 0.0
C134 C 0.49937 0.22166 0.0956 0.0
C135 C 0.54792 0.35056 1.00129 0.0
O136 O 0.51564 0.22863 0.99763 0.0
O137 O 0.47558 0.24941 0.9396 0.0
O138 O 0.46541 0.31909 0.07884 0.0
O139 O 0.45045 0.29699 0.01102 0.0
Co140 Co 0.76375 0.53139 0.01107 0.0
O141 O 0.71677 0.55867 0.97853 0.0
O142 O 0.73727 0.57614 0.04705 0.0
C143 C 0.81642 0.52815 0.95864 0.0
O144 O 0.80987 0.51704 0.05644 0.0
Co145 Co 0.80514 0.441 0.99144 0.0
O146 O 0.85023 0.459 0.03635 0.0
C147 C 0.71224 0.44672 0.01828 0.0
C148 C 0.71047 0.58202 0.0148 0.0
C149 C 0.84308 0.49234 0.06152 0.0
O150 O 0.71878 0.48684 0.03171 0.0
O151 O 0.74164 0.42377 0.99869 0.0
O152 O 0.80939 0.56502 0.98036 0.0
O153 O 0.78906 0.49646 0.96628 0.0
Co154 Co 0.51078 0.77124 0.00673 0.0
O155 O 0.4772 0.81613 0.97875 0.0
O156 O 0.5476 0.80213 0.96637 0.0
C157 C 0.46008 0.71604 1.00146 0.0
O158 O 0.55721 0.72779 0.02333 0.0
Co159 Co 0.48567 0.7252 0.0927 0.0
O160 O 0.5351 0.68537 0.07813 0.0
C161 C 0.5046 0.82007 0.09273 0.0
C162 C 0.51364 0.82548 0.95794 0.0
C163 C 0.56218 0.69482 0.04769 0.0
O164 O 0.52644 0.81474 0.05656 0.0
O165 O 0.48207 0.78911 0.10971 0.0
O166 O 0.48394 0.72552 0.96728 0.0
O167 O 0.46498 0.7421 0.03539 0.0
C168 C 0.05911 0.37426 0.40833 0.0
C169 C 0.01756 0.35746 0.42102 0.0
H170 H 0.09486 0.41856 0.36742 0.0
C171 C 0.97947 0.37348 0.40156 0.0
H172 H 0.0891 0.36266 0.42294 0.0
C173 C 0.9829 0.40486 0.36929 0.0
C174 C 0.02443 0.42154 0.3564 0.0
H175 H 0.94708 0.36114 0.41059 0.0
H176 H 0.95287 0.41615 0.35447 0.0
C177 C 0.06249 0.40634 0.37665 0.0
C178 C 0.66216 0.05898 0.42046 0.0
C179 C 0.67541 0.01636 0.4303 0.0
H180 H 0.62114 0.09881 0.38129 0.0
C181 C 0.65489 0.98043 0.40808 0.0
H182 H 0.67721 0.08755 0.43691 0.0
C183 C 0.62325 0.98713 0.37541 0.0
C184 C 0.61078 0.02985 0.36494 0.0
H185 H 0.66446 0.94733 0.41471 0.0
H186 H 0.60906 0.9587 0.35791 0.0
C187 C 0.62993 0.06562 0.38853 0.0
C188 C 0.96736 0.62872 0.37366 0.0
C189 C 0.00883 0.61049 0.36647 0.0
H190 H 0.93096 0.67873 0.40785 0.0
C191 C 0.04441 0.62377 0.39391 0.0
H192 H 0.9398 0.6195 0.35228 0.0
C193 C 0.03938 0.65734 0.42606 0.0
C194 C 0.99901 0.67872 0.43005 0.0
H195 H 0.0769 0.61049 0.38821 0.0
H196 H 0.06792 0.6691 0.44484 0.0
C197 C 0.96255 0.66285 0.40505 0.0
C198 C 0.38338 0.05514 0.41887 0.0
C199 C 0.35916 0.02016 0.43619 0.0
H200 H 0.43812 0.07453 0.37878 0.0
C201 C 0.37347 0.97707 0.42752 0.0
H202 H 0.37316 0.08862 0.42492 0.0
C203 C 0.4111 0.96904 0.40222 0.0
C204 C 0.4346 1.00382 0.38384 0.0
H205 H 0.35562 0.94925 0.44021 0.0
H206 H 0.42104 0.93548 0.39598 0.0
C207 C 0.42044 0.047 0.39243 0.0
C208 C 0.97341 0.63362 0.67494 0.0
C209 C 0.01586 0.62029 0.68721 0.0
H210 H 0.93496 0.67464 0.6344 0.0
C211 C 0.05275 0.63865 0.66645 0.0
H212 H 0.94421 0.61984 0.69015 0.0
C213 C 0.04734 0.67054 0.63501 0.0
C214 C 1.00491 0.68414 0.62302 0.0
H215 H 0.08577 0.62909 0.67513 0.0
H216 H 0.07655 0.68459 0.62006 0.0
C217 C 0.96797 0.66489 0.64289 0.0
C218 C 0.43223 0.9882 0.65431 0.0
C219 C 0.44037 0.03305 0.6643 0.0
H220 H 0.39613 0.9401 0.61463 0.0
C221 C 0.41607 0.06424 0.64244 0.0
H222 H 0.45078 0.96341 0.67044 0.0
C223 C 0.38402 0.05078 0.61135 0.0
C224 C 0.37666 0.00595 0.60061 0.0
H225 H 0.42169 0.09896 0.64952 0.0
H226 H 0.36584 0.07554 0.59477 0.0
C227 C 0.40113 0.97479 0.6223 0.0
C228 C 0.05045 0.3839 0.62223 0.0
C229 C 0.00954 0.36372 0.61234 0.0
H230 H 0.08575 0.42932 0.66554 0.0
C231 C 0.97115 0.38032 0.6324 0.0
H232 H 0.08044 0.37148 0.60743 0.0
C233 C 0.97401 0.414 0.66479 0.0
C234 C 0.01541 0.43082 0.67806 0.0
H235 H 0.93918 0.36519 0.62511 0.0
H236 H 0.94444 0.42384 0.68225 0.0
C237 C 0.05341 0.4169 0.65538 0.0
C238 C 0.62607 0.98835 0.65559 0.0
C239 C 0.60738 0.02202 0.68161 0.0
H240 H 0.6666 0.97187 0.59977 0.0
C241 C 0.61431 0.0658 0.66958 0.0
H242 H 0.62141 0.9544 0.664 0.0
C243 C 0.63901 0.07575 0.63235 0.0
C244 C 0.65861 0.04227 0.607 0.0
H245 H 0.60069 0.09271 0.68888 0.0
H246 H 0.64377 0.10974 0.62412 0.0
C247 C 0.65197 0.99843 0.61896 0.0
C248 C 0.39733 0.38741 0.07177 0.0
C249 C 0.41335 0.36201 0.03617 0.0
H250 H 0.35441 0.43884 0.09303 0.0
C251 C 0.39972 0.3717 0.99321 0.0
H252 H 0.40713 0.38087 0.10513 0.0
C253 C 0.37017 0.40544 0.98608 0.0
C254 C 0.35281 0.42961 0.02183 0.0
H255 H 0.41138 0.35281 0.96488 0.0
H256 H 0.3597 0.41147 0.9528 0.0
C257 C 0.36708 0.42055 0.0647 0.0
C258 C 0.37967 0.63229 0.0461 0.0
C259 C 0.35723 0.61821 0.00774 0.0
H260 H 0.43006 0.67484 0.07403 0.0
C261 C 0.37287 0.63178 0.9667 0.0
H262 H 0.36799 0.62257 0.07804 0.0
C263 C 0.40869 0.6612 0.96417 0.0
C264 C 0.42876 0.67833 1.00277 0.0
H265 H 0.3559 0.62123 0.93661 0.0
H266 H 0.41862 0.67275 0.93233 0.0
C267 C 0.41493 0.66247 0.04365 0.0
C268 C 0.62377 0.36085 0.03264 0.0
C269 C 0.58844 0.37786 0.00895 0.0
H270 H 0.69073 0.36979 0.05441 0.0
C271 C 0.59273 0.4204 0.99303 0.0
H272 H 0.62164 0.32828 0.04554 0.0
C273 C 0.63213 0.44474 0.99954 0.0
C274 C 0.66796 0.42652 0.02127 0.0
H275 H 0.56601 0.43453 0.975 0.0
H276 H 0.63552 0.47668 0.98536 0.0
C277 C 0.66326 0.38467 0.03817 0.0
C278 C 0.65557 0.61699 0.06487 0.0
C279 C 0.67239 0.61092 0.02195 0.0
H280 H 0.60725 0.64759 0.10652 0.0
C281 C 0.65267 0.63259 0.9874 0.0
H282 H 0.66991 0.60039 0.09216 0.0
C283 C 0.61729 0.66059 0.99595 0.0
C284 C 0.60031 0.66629 0.03893 0.0
H285 H 0.66499 0.62847 0.95409 0.0
H286 H 0.60272 0.67723 0.96881 0.0
C287 C 0.6196 0.64388 0.07317 0.0
C288 C 0.4792 0.87717 0.90637 0.0
C289 C 0.51707 0.86068 0.92582 0.0
H290 H 0.45317 0.9201 0.85922 0.0
C291 C 0.55881 0.8771 0.91322 0.0
H292 H 0.44667 0.86515 0.91533 0.0
C293 C 0.56262 0.90908 0.8815 0.0
C294 C 0.52478 0.92462 0.86114 0.0
H295 H 0.58866 0.86513 0.92782 0.0
H296 H 0.59514 0.92089 0.87224 0.0
C297 C 0.48304 0.9085 0.87409 0.0
C298 C 0.16073 0.55894 0.91745 0.0
C299 C 0.17391 0.51641 0.92774 0.0
H300 H 0.11959 0.59842 0.87803 0.0
C301 C 0.15305 0.4803 0.90615 0.0
H302 H 0.17602 0.58765 0.93342 0.0
C303 C 0.12118 0.48672 0.87362 0.0
C304 C 0.10883 0.52933 0.86267 0.0
H305 H 0.16252 0.44726 0.91314 0.0
H306 H 0.10674 0.45814 0.85657 0.0
C307 C 0.12827 0.56531 0.88567 0.0
C308 C 0.55245 0.13243 0.89253 0.0
C309 C 0.51586 0.11298 0.87032 0.0
H310 H 0.57516 0.18159 0.94006 0.0
C311 C 0.47317 0.12354 0.88406 0.0
H312 H 0.5857 0.12485 0.88205 0.0
C313 C 0.46724 0.15669 0.91638 0.0
C314 C 0.50391 0.1787 0.93599 0.0
H315 H 0.4446 0.10931 0.867 0.0
H316 H 0.43406 0.16716 0.92399 0.0
C317 C 0.5465 0.16475 0.92565 0.0
C318 C 0.90777 0.46835 0.89777 0.0
C319 C 0.93188 0.5029 0.87967 0.0
H320 H 0.85189 0.44922 0.93561 0.0
C321 C 0.91828 0.54625 0.88835 0.0
H322 H 0.91728 0.43468 0.89145 0.0
C323 C 0.88127 0.55482 0.91471 0.0
C324 C 0.85652 0.52012 0.9319 0.0
H325 H 0.93642 0.57361 0.87491 0.0
H326 H 0.87157 0.58844 0.92092 0.0
C327 C 0.87017 0.47683 0.92303 0.0
C328 C 0.47371 0.13484 0.17861 0.0
C329 C 0.51632 0.12223 0.19111 0.0
H330 H 0.43477 0.17552 0.13819 0.0
C331 C 0.55303 0.14174 0.17108 0.0
H332 H 0.44466 0.12019 0.19329 0.0
C333 C 0.54725 0.174 0.14009 0.0
C334 C 0.50464 0.18678 0.12779 0.0
H335 H 0.58618 0.13278 0.18002 0.0
H336 H 0.57631 0.1889 0.12566 0.0
C337 C 0.46792 0.16643 0.14696 0.0
C338 C 0.93054 0.48663 0.15007 0.0
C339 C 0.9392 0.53137 0.16024 0.0
H340 H 0.89386 0.4391 0.1102 0.0
C341 C 0.91537 0.56293 0.13841 0.0
H342 H 0.94872 0.46156 0.16618 0.0
C343 C 0.88327 0.54998 0.10721 0.0
C344 C 0.87531 0.50527 0.09635 0.0
H345 H 0.92138 0.59757 0.14561 0.0
H346 H 0.86545 0.57505 0.09072 0.0
C347 C 0.89935 0.47371 0.11796 0.0
C348 C 0.46843 0.87565 0.14175 0.0
C349 C 0.50594 0.86249 0.1177 0.0
H350 H 0.44301 0.91709 0.19397 0.0
C351 C 0.54547 0.88678 0.123 0.0
H352 H 0.4374 0.8576 0.13797 0.0
C353 C 0.54861 0.92057 0.15538 0.0
C354 C 0.51199 0.93121 0.18182 0.0
H355 H 0.57479 0.87726 0.10496 0.0
H356 H 0.58046 0.93628 0.16195 0.0
C357 C 0.47137 0.90995 0.17342 0.0
C358 C 0.1511 0.49909 0.11569 0.0
C359 C 0.15725 0.54304 0.1039 0.0
H360 H 0.12108 0.45452 0.16048 0.0
C361 C 0.13724 0.5762 0.12935 0.0
H362 H 0.16605 0.47275 0.09643 0.0
C363 C 0.11261 0.56579 0.16654 0.0
C364 C 0.10622 0.52188 0.17837 0.0
H365 H 0.14161 0.61026 0.12123 0.0
H366 H 0.09861 0.59243 0.18594 0.0
C367 C 0.12533 0.48856 0.15224 0.0
C368 C 0.87249 0.90645 0.48668 0.0
C369 C 0.85446 0.92904 0.52309 0.0
H370 H 0.91451 0.85518 0.4639 0.0
C371 C 0.86855 0.91865 0.56567 0.0
H372 H 0.86224 0.91357 0.4536 0.0
C373 C 0.89924 0.88566 0.57175 0.0
C374 C 0.91585 0.86176 0.5354 0.0
H375 H 0.85539 0.93574 0.5945 0.0
H376 H 0.90883 0.87794 0.60487 0.0
C377 C 0.90244 0.87287 0.49279 0.0
C378 C 0.91095 0.15722 0.46558 0.0
C379 C 0.92993 0.17699 0.50357 0.0
H380 H 0.85912 0.11513 0.43934 0.0
C381 C 0.91524 0.16368 0.54515 0.0
H382 H 0.92158 0.16674 0.43323 0.0
C383 C 0.88015 0.13348 0.54868 0.0
C384 C 0.85883 0.1167 0.51068 0.0
H385 H 0.92947 0.17811 0.57512 0.0
H386 H 0.86766 0.12587 0.58096 0.0
C387 C 0.87535 0.12769 0.46915 0.0
C388 C 0.12793 0.85558 0.5258 0.0
C389 C 0.09113 0.8756 0.50748 0.0
H390 H 0.19589 0.86205 0.54463 0.0
C391 C 0.09414 0.92033 0.49816 0.0
H392 H 0.12673 0.82121 0.53352 0.0
C393 C 0.13369 0.94415 0.50597 0.0
C394 C 0.17093 0.92327 0.52228 0.0
H395 H 0.06616 0.93673 0.48453 0.0
H396 H 0.1359 0.97814 0.49696 0.0
C397 C 0.16747 0.87898 0.53258 0.0
C398 C 0.12088 0.14406 0.57367 0.0
C399 C 0.10166 0.16546 0.53871 0.0
H400 H 0.17096 0.10098 0.59405 0.0
C401 C 0.11855 0.15833 0.49587 0.0
H402 H 0.10861 0.14889 0.60693 0.0
C403 C 0.1538 0.12994 0.4882 0.0
C404 C 0.17344 0.10926 0.52344 0.0
H405 H 0.10403 0.17415 0.46819 0.0
H406 H 0.16607 0.12474 0.45499 0.0
C407 C 0.15668 0.11674 0.5662 0.0
loop_
_geom_bond_atom_site_label_1
_geom_bond_atom_site_label_2
_geom_bond_distance
_geom_bond_site_symmetry_2
_ccdc_geom_bond_type
Co0 O1 2.216 1_455 S
Co0 O2 2.091 . S
Co0 O4 2.004 . S
Co0 O10 2.021 . S
Co0 O12 2.137 1_455 S
Co0 O13 2.244 1_455 S
O1 Co0 2.216 1_655 S
O1 C8 1.247 . S
O2 Co0 2.091 . S
O2 C8 1.261 1_455 S
C3 O12 1.247 . S
C3 O13 1.272 . S
O4 Co0 2.004 . S
O4 C9 1.259 . S
Co5 O6 2.061 1_655 S
Co5 O11 2.052 . S
Co5 O13 2.135 . S
O6 Co5 2.061 1_455 S
O6 C9 1.235 . S
C7 O10 1.238 . S
C7 O11 1.241 1_455 S
C8 O1 1.247 . S
C8 O2 1.261 1_655 S
C9 O4 1.259 . S
C9 O6 1.235 . S
O10 Co0 2.021 . S
O10 C7 1.238 . S
O11 Co5 2.052 . S
O11 C7 1.241 1_655 S
O12 Co0 2.137 1_655 S
O12 C3 1.247 . S
O13 Co0 2.244 1_655 S
O13 C3 1.272 . S
O13 Co5 2.135 . S
Co14 O15 2.216 . S
Co14 O16 2.091 . S
Co14 O18 2.004 1_565 S
Co14 O24 2.021 1_565 S
Co14 O26 2.137 . S
Co14 O27 2.244 1_565 S
O15 Co14 2.216 . S
O15 C22 1.247 . S
O16 Co14 2.091 . S
O16 C22 1.261 . S
C17 O26 1.247 . S
C17 O27 1.272 1_565 S
O18 Co14 2.004 1_545 S
O18 C23 1.259 . S
Co19 O20 2.061 . S
Co19 O25 2.052 . S
Co19 O27 2.135 . S
O20 Co19 2.061 . S
O20 C23 1.235 . S
C21 O24 1.238 . S
C21 O25 1.241 . S
C22 O15 1.247 . S
C22 O16 1.261 . S
C23 O18 1.259 . S
C23 O20 1.235 . S
O24 Co14 2.021 1_545 S
O24 C21 1.238 . S
O25 Co19 2.052 . S
O25 C21 1.241 . S
O26 Co14 2.137 . S
O26 C17 1.247 . S
O27 Co14 2.244 1_545 S
O27 C17 1.272 1_545 S
O27 Co19 2.135 . S
Co28 O29 2.216 1_455 S
Co28 O30 2.091 . S
Co28 O32 2.004 . S
Co28 O38 2.021 . S
Co28 O40 2.137 1_455 S
Co28 O41 2.244 1_455 S
O29 Co28 2.216 1_655 S
O29 C36 1.247 . S
O30 Co28 2.091 . S
O30 C36 1.261 1_455 S
C31 O40 1.247 . S
C31 O41 1.272 . S
O32 Co28 2.004 . S
O32 C37 1.259 . S
Co33 O34 2.061 1_655 S
Co33 O39 2.052 1_655 S
Co33 O41 2.135 . S
O34 Co33 2.061 1_455 S
O34 C37 1.235 . S
C35 O38 1.238 . S
C35 O39 1.241 . S
C36 O29 1.247 . S
C36 O30 1.261 1_655 S
C37 O32 1.259 . S
C37 O34 1.235 . S
O38 Co28 2.021 . S
O38 C35 1.238 . S
O39 Co33 2.052 1_455 S
O39 C35 1.241 . S
O40 Co28 2.137 1_655 S
O40 C31 1.247 . S
O41 Co28 2.244 1_655 S
O41 C31 1.272 . S
O41 Co33 2.135 . S
Co42 O43 2.216 . S
Co42 O44 2.091 . S
Co42 O46 2.004 . S
Co42 O52 2.021 1_545 S
Co42 O54 2.137 . S
Co42 O55 2.244 1_545 S
O43 Co42 2.216 . S
O43 C50 1.247 . S
O44 Co42 2.091 . S
O44 C50 1.261 . S
C45 O54 1.247 . S
C45 O55 1.272 1_545 S
O46 Co42 2.004 . S
O46 C51 1.250 1_545 S
Co47 O48 2.061 . S
Co47 O53 2.052 . S
Co47 O55 2.135 . S
O48 Co47 2.061 . S
O48 C51 1.245 . S
C49 O52 1.238 . S
C49 O53 1.241 . S
C50 O43 1.247 . S
C50 O44 1.261 . S
C51 O46 1.250 1_565 S
C51 O48 1.245 . S
O52 Co42 2.021 1_565 S
O52 C49 1.238 . S
O53 Co47 2.052 . S
O53 C49 1.241 . S
O54 Co42 2.137 . S
O54 C45 1.247 . S
O55 Co42 2.244 1_565 S
O55 C45 1.272 1_565 S
O55 Co47 2.135 . S
Co56 O57 2.216 . S
Co56 O58 2.091 . S
Co56 O60 2.004 . S
Co56 O66 2.021 1_545 S
Co56 O68 2.137 . S
Co56 O69 2.244 1_545 S
O57 Co56 2.216 . S
O57 C64 1.247 . S
O58 Co56 2.091 . S
O58 C64 1.261 . S
C59 O68 1.247 . S
C59 O69 1.272 1_545 S
O60 Co56 2.004 . S
O60 C65 1.259 1_545 S
Co61 O62 2.061 . S
Co61 O67 2.052 . S
Co61 O69 2.135 . S
O62 Co61 2.061 . S
O62 C65 1.235 . S
C63 O66 1.238 . S
C63 O67 1.241 . S
C64 O57 1.247 . S
C64 O58 1.261 . S
C65 O60 1.259 1_565 S
C65 O62 1.235 . S
O66 Co56 2.021 1_565 S
O66 C63 1.238 . S
O67 Co61 2.052 . S
O67 C63 1.241 . S
O68 Co56 2.137 . S
O68 C59 1.247 . S
O69 Co56 2.244 1_565 S
O69 C59 1.272 1_565 S
O69 Co61 2.135 . S
Co70 O71 2.216 . S
Co70 O72 2.091 1_455 S
Co70 O74 2.004 1_455 S
Co70 O80 2.021 1_455 S
Co70 O82 2.137 . S
Co70 O83 2.244 . S
O71 Co70 2.216 . S
O71 C78 1.247 . S
O72 Co70 2.091 1_655 S
O72 C78 1.261 1_655 S
C73 O82 1.247 . S
C73 O83 1.272 . S
O74 Co70 2.004 1_655 S
O74 C79 1.259 . S
Co75 O76 2.061 1_455 S
Co75 O81 2.052 . S
Co75 O83 2.135 . S
O76 Co75 2.061 1_655 S
O76 C79 1.235 . S
C77 O80 1.237 1_455 S
C77 O81 1.242 . S
C78 O71 1.247 . S
C78 O72 1.261 1_455 S
C79 O74 1.259 . S
C79 O76 1.235 . S
O80 Co70 2.021 1_655 S
O80 C77 1.237 1_655 S
O81 Co75 2.052 . S
O81 C77 1.242 . S
O82 Co70 2.137 . S
O82 C73 1.247 . S
O83 Co70 2.244 . S
O83 C73 1.272 . S
O83 Co75 2.135 . S
Co84 O85 2.216 1_545 S
Co84 O86 2.091 1_545 S
Co84 O88 2.004 . S
Co84 O94 2.021 . S
Co84 O96 2.137 1_545 S
Co84 O97 2.244 . S
O85 Co84 2.216 1_565 S
O85 C92 1.247 . S
O86 Co84 2.091 1_565 S
O86 C92 1.261 . S
C87 O96 1.247 1_545 S
C87 O97 1.272 . S
O88 Co84 2.004 . S
O88 C93 1.259 . S
Co89 O90 2.061 . S
Co89 O95 2.052 . S
Co89 O97 2.135 . S
O90 Co89 2.061 . S
O90 C93 1.235 . S
C91 O94 1.238 . S
C91 O95 1.241 . S
C92 O85 1.247 . S
C92 O86 1.261 . S
C93 O88 1.259 . S
C93 O90 1.235 . S
O94 Co84 2.021 . S
O94 C91 1.238 . S
O95 Co89 2.052 . S
O95 C91 1.241 . S
O96 Co84 2.137 1_565 S
O96 C87 1.247 1_565 S
O97 Co84 2.244 . S
O97 C87 1.272 . S
O97 Co89 2.135 . S
Co98 O99 2.216 . S
Co98 O100 2.091 1_455 S
Co98 O102 2.004 1_455 S
Co98 O108 2.021 1_455 S
Co98 O110 2.137 . S
Co98 O111 2.244 . S
O99 Co98 2.216 . S
O99 C106 1.247 . S
O100 Co98 2.091 1_655 S
O100 C106 1.261 1_655 S
C101 O110 1.247 . S
C101 O111 1.272 . S
O102 Co98 2.004 1_655 S
O102 C107 1.259 . S
Co103 O104 2.061 1_455 S
Co103 O109 2.052 . S
Co103 O111 2.135 . S
O104 Co103 2.061 1_655 S
O104 C107 1.235 . S
C105 O108 1.238 . S
C105 O109 1.241 1_655 S
C106 O99 1.247 . S
C106 O100 1.261 1_455 S
C107 O102 1.259 . S
C107 O104 1.235 . S
O108 Co98 2.021 1_655 S
O108 C105 1.238 . S
O109 Co103 2.052 . S
O109 C105 1.241 1_455 S
O110 Co98 2.137 . S
O110 C101 1.247 . S
O111 Co98 2.244 . S
O111 C101 1.272 . S
O111 Co103 2.135 . S
Co112 O113 2.216 1_554 S
Co112 O114 2.091 . S
Co112 O116 2.004 . S
Co112 O122 2.021 . S
Co112 O124 2.137 1_554 S
Co112 O125 2.244 1_554 S
O113 Co112 2.216 1_556 S
O113 C120 1.247 . S
O114 Co112 2.091 . S
O114 C120 1.261 1_554 S
C115 O124 1.247 . S
C115 O125 1.272 . S
O116 Co112 2.004 . S
O116 C121 1.259 . S
Co117 O118 2.061 1_556 S
Co117 O123 2.052 1_556 S
Co117 O125 2.135 . S
O118 Co117 2.061 1_554 S
O118 C121 1.235 . S
C119 O122 1.238 . S
C119 O123 1.241 . S
C120 O113 1.247 . S
C120 O114 1.261 1_556 S
C121 O116 1.259 . S
C121 O118 1.235 . S
O122 Co112 2.021 . S
O122 C119 1.238 . S
O123 Co117 2.052 1_554 S
O123 C119 1.241 . S
O124 Co112 2.137 1_556 S
O124 C115 1.247 . S
O125 Co112 2.244 1_556 S
O125 C115 1.272 . S
O125 Co117 2.135 . S
Co126 O127 2.216 . S
Co126 O128 2.091 . S
Co126 O130 2.004 . S
Co126 O136 2.021 1_554 S
Co126 O138 2.137 . S
Co126 O139 2.244 1_554 S
O127 Co126 2.216 . S
O127 C134 1.247 . S
O128 Co126 2.091 . S
O128 C134 1.261 . S
C129 O138 1.247 . S
C129 O139 1.272 1_554 S
O130 Co126 2.004 . S
O130 C135 1.259 1_554 S
Co131 O132 2.061 . S
Co131 O137 2.052 . S
Co131 O139 2.135 . S
O132 Co131 2.061 . S
O132 C135 1.235 . S
C133 O136 1.238 . S
C133 O137 1.241 . S
C134 O127 1.247 . S
C134 O128 1.261 . S
C135 O130 1.259 1_556 S
C135 O132 1.235 . S
O136 Co126 2.021 1_556 S
O136 C133 1.238 . S
O137 Co131 2.052 . S
O137 C133 1.241 . S
O138 Co126 2.137 . S
O138 C129 1.247 . S
O139 Co126 2.244 1_556 S
O139 C129 1.272 1_556 S
O139 Co131 2.135 . S
Co140 O141 2.216 1_554 S
Co140 O142 2.091 . S
Co140 O144 2.004 . S
Co140 O150 2.021 . S
Co140 O152 2.137 1_554 S
Co140 O153 2.244 1_554 S
O141 Co140 2.216 1_556 S
O141 C148 1.247 1_556 S
O142 Co140 2.091 . S
O142 C148 1.261 . S
C143 O152 1.247 . S
C143 O153 1.272 . S
O144 Co140 2.004 . S
O144 C149 1.259 . S
Co145 O146 2.061 1_556 S
Co145 O151 2.052 1_556 S
Co145 O153 2.135 . S
O146 Co145 2.061 1_554 S
O146 C149 1.235 . S
C147 O150 1.238 . S
C147 O151 1.241 . S
C148 O141 1.247 1_554 S
C148 O142 1.261 . S
C149 O144 1.259 . S
C149 O146 1.235 . S
O150 Co140 2.021 . S
O150 C147 1.238 . S
O151 Co145 2.052 1_554 S
O151 C147 1.241 . S
O152 Co140 2.137 1_556 S
O152 C143 1.247 . S
O153 Co140 2.244 1_556 S
O153 C143 1.272 . S
O153 Co145 2.135 . S
Co154 O155 2.207 1_554 S
Co154 O156 2.070 1_554 S
Co154 O158 2.007 . S
Co154 O164 2.038 . S
Co154 O166 2.127 1_554 S
Co154 O167 2.258 . S
O155 Co154 2.207 1_556 S
O155 C162 1.247 . S
O156 Co154 2.070 1_556 S
O156 C162 1.261 . S
C157 O166 1.247 1_554 S
C157 O167 1.272 . S
O158 Co154 2.007 . S
O158 C163 1.259 . S
Co159 O160 2.061 . S
Co159 O165 2.052 . S
Co159 O167 2.135 . S
O160 Co159 2.061 . S
O160 C163 1.235 . S
C161 O164 1.238 . S
C161 O165 1.241 . S
C162 O155 1.247 . S
C162 O156 1.261 . S
C163 O158 1.259 . S
C163 O160 1.235 . S
O164 Co154 2.038 . S
O164 C161 1.238 . S
O165 Co159 2.052 . S
O165 C161 1.241 . S
O166 Co154 2.127 1_556 S
O166 C157 1.247 1_556 S
O167 Co154 2.258 . S
O167 C157 1.272 . S
O167 Co159 2.135 . S
C168 C169 1.387 1_455 S
C168 H172 0.950 . S
C168 C177 1.390 . S
C169 C168 1.387 1_655 S
C169 C171 1.387 . S
H170 C177 0.950 . S
C171 C169 1.387 . S
C171 C173 1.390 1_655 S
C171 H175 0.950 . S
H172 C168 0.950 . S
C173 C171 1.390 1_455 S
C173 C174 1.387 . S
C173 H176 0.950 . S
C174 C173 1.387 . S
C174 C177 1.387 . S
H175 C171 0.950 . S
H176 C173 0.950 . S
C177 C168 1.390 . S
C177 H170 0.950 . S
C177 C174 1.387 . S
C178 C179 1.387 . S
C178 H182 0.950 . S
C178 C187 1.390 . S
C179 C178 1.387 . S
C179 C181 1.387 1_545 S
H180 C187 0.950 . S
C181 C179 1.387 1_565 S
C181 C183 1.390 . S
C181 H185 0.950 . S
H182 C178 0.950 . S
C183 C181 1.390 . S
C183 C184 1.387 1_565 S
C183 H186 0.950 . S
C184 C183 1.387 1_545 S
C184 C187 1.387 . S
H185 C181 0.950 . S
H186 C183 0.950 . S
C187 C178 1.390 . S
C187 H180 0.950 . S
C187 C184 1.387 . S
C188 C189 1.387 1_655 S
C188 H192 0.950 . S
C188 C197 1.395 . S
C189 C188 1.387 1_455 S
C189 C191 1.387 . S
H190 C197 0.956 . S
C191 C189 1.387 . S
C191 C193 1.390 . S
C191 H195 0.950 . S
H192 C188 0.950 . S
C193 C191 1.390 . S
C193 C194 1.387 . S
C193 H196 0.950 . S
C194 C193 1.387 . S
C194 C197 1.377 1_455 S
H195 C191 0.950 . S
H196 C193 0.950 . S
C197 C188 1.395 . S
C197 H190 0.956 . S
C197 C194 1.377 1_655 S
C198 C199 1.387 . S
C198 H202 0.950 . S
C198 C207 1.390 . S
C199 C198 1.387 . S
C199 C201 1.387 1_545 S
H200 C207 0.950 . S
C201 C199 1.387 1_565 S
C201 C203 1.390 . S
C201 H205 0.950 . S
H202 C198 0.950 . S
C203 C201 1.390 . S
C203 C204 1.387 1_565 S
C203 H206 0.950 . S
C204 C203 1.387 1_545 S
C204 C207 1.387 . S
H205 C201 0.950 . S
H206 C203 0.950 . S
C207 C198 1.390 . S
C207 H200 0.950 . S
C207 C204 1.387 . S
C208 C209 1.387 1_655 S
C208 H212 0.950 . S
C208 C217 1.390 . S
C209 C208 1.387 1_455 S
C209 C211 1.387 . S
H210 C217 0.950 . S
C211 C209 1.387 . S
C211 C213 1.390 . S
C211 H215 0.950 . S
H212 C208 0.950 . S
C213 C211 1.390 . S
C213 C214 1.404 . S
C213 H216 0.950 . S
C214 C213 1.404 . S
C214 C217 1.376 1_455 S
H215 C211 0.950 . S
H216 C213 0.950 . S
C217 C208 1.390 . S
C217 H210 0.950 . S
C217 C214 1.376 1_655 S
C218 C219 1.387 1_565 S
C218 H222 0.950 . S
C218 C227 1.390 . S
C219 C218 1.387 1_545 S
C219 C221 1.387 . S
H220 C227 0.950 . S
C221 C219 1.387 . S
C221 C223 1.390 . S
C221 H225 0.950 . S
H222 C218 0.950 . S
C223 C221 1.390 . S
C223 C224 1.387 . S
C223 H226 0.950 . S
C224 C223 1.387 . S
C224 C227 1.387 1_545 S
H225 C221 0.950 . S
H226 C223 0.950 . S
C227 C218 1.390 . S
C227 H220 0.950 . S
C227 C224 1.387 1_565 S
C228 C229 1.387 . S
C228 H232 0.950 . S
C228 C237 1.390 . S
C229 C228 1.387 . S
C229 C231 1.387 1_455 S
H230 C237 0.950 . S
C231 C229 1.387 1_655 S
C231 C233 1.390 . S
C231 H235 0.950 . S
H232 C228 0.950 . S
C233 C231 1.390 . S
C233 C234 1.387 . S
C233 H236 0.950 . S
C234 C233 1.387 . S
C234 C237 1.387 1_655 S
H235 C231 0.950 . S
H236 C233 0.950 . S
C237 C228 1.390 . S
C237 H230 0.950 . S
C237 C234 1.387 1_455 S
C238 C239 1.387 1_565 S
C238 H242 0.950 . S
C238 C247 1.390 . S
C239 C238 1.387 1_545 S
C239 C241 1.387 . S
H240 C247 0.950 . S
C241 C239 1.387 . S
C241 C243 1.390 . S
C241 H245 0.950 . S
H242 C238 0.950 . S
C243 C241 1.390 . S
C243 C244 1.387 . S
C243 H246 0.950 . S
C244 C243 1.387 . S
C244 C247 1.387 1_545 S
H245 C241 0.950 . S
H246 C243 0.950 . S
C247 C238 1.390 . S
C247 H240 0.950 . S
C247 C244 1.387 1_565 S
C248 C249 1.387 . S
C248 H252 0.950 . S
C248 C257 1.390 . S
C249 C248 1.387 . S
C249 C251 1.387 1_554 S
H250 C257 0.950 . S
C251 C249 1.387 1_556 S
C251 C253 1.390 . S
C251 H255 0.950 . S
H252 C248 0.950 . S
C253 C251 1.390 . S
C253 C254 1.395 . S
C253 H256 0.950 . S
C254 C253 1.395 . S
C254 C257 1.378 1_556 S
H255 C251 0.950 . S
H256 C253 0.950 . S
C257 C248 1.390 . S
C257 H250 0.950 . S
C257 C254 1.378 1_554 S
C258 C259 1.387 . S
C258 H262 0.950 . S
C258 C267 1.390 . S
C259 C258 1.387 . S
C259 C261 1.387 1_554 S
H260 C267 0.950 . S
C261 C259 1.387 1_556 S
C261 C263 1.390 . S
C261 H265 0.950 . S
H262 C258 0.950 . S
C263 C261 1.390 . S
C263 C264 1.387 1_556 S
C263 H266 0.950 . S
C264 C263 1.387 1_554 S
C264 C267 1.387 . S
H265 C261 0.950 . S
H266 C263 0.950 . S
C267 C258 1.390 . S
C267 H260 0.950 . S
C267 C264 1.387 . S
C268 C269 1.382 1_554 S
C268 H272 0.950 . S
C268 C277 1.390 . S
C269 C268 1.382 1_556 S
C269 C271 1.392 . S
H270 C277 0.950 . S
C271 C269 1.392 . S
C271 C273 1.390 . S
C271 H275 0.950 . S
H272 C268 0.950 . S
C273 C271 1.390 . S
C273 C274 1.387 1_556 S
C273 H276 0.950 . S
C274 C273 1.387 1_554 S
C274 C277 1.387 . S
H275 C271 0.950 . S
H276 C273 0.950 . S
C277 C268 1.390 . S
C277 H270 0.950 . S
C277 C274 1.387 . S
C278 C279 1.387 . S
C278 H282 0.950 . S
C278 C287 1.390 . S
C279 C278 1.387 . S
C279 C281 1.387 1_554 S
H280 C287 0.950 . S
C281 C279 1.387 1_556 S
C281 C283 1.390 . S
C281 H285 0.950 . S
H282 C278 0.950 . S
C283 C281 1.390 . S
C283 C284 1.387 1_556 S
C283 H286 0.950 . S
C284 C283 1.387 1_554 S
C284 C287 1.387 . S
H285 C281 0.950 . S
H286 C283 0.950 . S
C287 C278 1.390 . S
C287 H280 0.950 . S
C287 C284 1.387 . S
C288 C289 1.387 . S
C288 H292 0.950 . S
C288 C297 1.390 . S
C289 C288 1.387 . S
C289 C291 1.387 . S
H290 C297 0.950 . S
C291 C289 1.387 . S
C291 C293 1.390 . S
C291 H295 0.950 . S
H292 C288 0.950 . S
C293 C291 1.390 . S
C293 C294 1.387 . S
C293 H296 0.950 . S
C294 C293 1.387 . S
C294 C297 1.387 . S
H295 C291 0.950 . S
H296 C293 0.950 . S
C297 C288 1.390 . S
C297 H290 0.950 . S
C297 C294 1.387 . S
C298 C299 1.387 . S
C298 H302 0.950 . S
C298 C307 1.390 . S
C299 C298 1.387 . S
C299 C301 1.387 . S
H300 C307 0.950 . S
C301 C299 1.387 . S
C301 C303 1.390 . S
C301 H305 0.950 . S
H302 C298 0.950 . S
C303 C301 1.390 . S
C303 C304 1.387 . S
C303 H306 0.950 . S
C304 C303 1.387 . S
C304 C307 1.387 . S
H305 C301 0.950 . S
H306 C303 0.950 . S
C307 C298 1.390 . S
C307 H300 0.950 . S
C307 C304 1.387 . S
C308 C309 1.387 . S
C308 H312 0.950 . S
C308 C317 1.390 . S
C309 C308 1.387 . S
C309 C311 1.387 . S
H310 C317 0.950 . S
C311 C309 1.387 . S
C311 C313 1.390 . S
C311 H315 0.950 . S
H312 C308 0.950 . S
C313 C311 1.390 . S
C313 C314 1.387 . S
C313 H316 0.950 . S
C314 C313 1.387 . S
C314 C317 1.387 . S
H315 C311 0.950 . S
H316 C313 0.950 . S
C317 C308 1.390 . S
C317 H310 0.950 . S
C317 C314 1.387 . S
C318 C319 1.387 . S
C318 H322 0.950 . S
C318 C327 1.390 . S
C319 C318 1.387 . S
C319 C321 1.387 . S
H320 C327 0.950 . S
C321 C319 1.387 . S
C321 C323 1.390 . S
C321 H325 0.950 . S
H322 C318 0.950 . S
C323 C321 1.390 . S
C323 C324 1.387 . S
C323 H326 0.950 . S
C324 C323 1.387 . S
C324 C327 1.387 . S
H325 C321 0.950 . S
H326 C323 0.950 . S
C327 C318 1.390 . S
C327 H320 0.950 . S
C327 C324 1.387 . S
C328 C329 1.387 . S
C328 H332 0.950 . S
C328 C337 1.390 . S
C329 C328 1.387 . S
C329 C331 1.387 . S
H330 C337 0.950 . S
C331 C329 1.387 . S
C331 C333 1.390 . S
C331 H335 0.950 . S
H332 C328 0.950 . S
C333 C331 1.390 . S
C333 C334 1.387 . S
C333 H336 0.950 . S
C334 C333 1.387 . S
C334 C337 1.387 . S
H335 C331 0.950 . S
H336 C333 0.950 . S
C337 C328 1.390 . S
C337 H330 0.950 . S
C337 C334 1.387 . S
C338 C339 1.387 . S
C338 H342 0.950 . S
C338 C347 1.390 . S
C339 C338 1.387 . S
C339 C341 1.387 . S
H340 C347 0.950 . S
C341 C339 1.387 . S
C341 C343 1.390 . S
C341 H345 0.950 . S
H342 C338 0.950 . S
C343 C341 1.390 . S
C343 C344 1.387 . S
C343 H346 0.950 . S
C344 C343 1.387 . S
C344 C347 1.387 . S
H345 C341 0.950 . S
H346 C343 0.950 . S
C347 C338 1.390 . S
C347 H340 0.950 . S
C347 C344 1.387 . S
C348 C349 1.387 . S
C348 H352 0.950 . S
C348 C357 1.390 . S
C349 C348 1.387 . S
C349 C351 1.387 . S
H350 C357 0.950 . S
C351 C349 1.387 . S
C351 C353 1.390 . S
C351 H355 0.950 . S
H352 C348 0.950 . S
C353 C351 1.390 . S
C353 C354 1.387 . S
C353 H356 0.950 . S
C354 C353 1.387 . S
C354 C357 1.387 . S
H355 C351 0.950 . S
H356 C353 0.950 . S
C357 C348 1.390 . S
C357 H350 0.950 . S
C357 C354 1.387 . S
C358 C359 1.387 . S
C358 H362 0.950 . S
C358 C367 1.390 . S
C359 C358 1.387 . S
C359 C361 1.387 . S
H360 C367 0.950 . S
C361 C359 1.387 . S
C361 C363 1.390 . S
C361 H365 0.950 . S
H362 C358 0.950 . S
C363 C361 1.390 . S
C363 C364 1.387 . S
C363 H366 0.950 . S
C364 C363 1.387 . S
C364 C367 1.387 . S
H365 C361 0.950 . S
H366 C363 0.950 . S
C367 C358 1.390 . S
C367 H360 0.950 . S
C367 C364 1.387 . S
C368 C369 1.387 . S
C368 H372 0.950 . S
C368 C377 1.390 . S
C369 C368 1.387 . S
C369 C371 1.387 . S
H370 C377 0.950 . S
C371 C369 1.387 . S
C371 C373 1.390 . S
C371 H375 0.950 . S
H372 C368 0.950 . S
C373 C371 1.390 . S
C373 C374 1.387 . S
C373 H376 0.950 . S
C374 C373 1.387 . S
C374 C377 1.387 . S
H375 C371 0.950 . S
H376 C373 0.950 . S
C377 C368 1.390 . S
C377 H370 0.950 . S
C377 C374 1.387 . S
C378 C379 1.387 . S
C378 H382 0.950 . S
C378 C387 1.390 . S
C379 C378 1.387 . S
C379 C381 1.387 . S
H380 C387 0.950 . S
C381 C379 1.387 . S
C381 C383 1.390 . S
C381 H385 0.950 . S
H382 C378 0.950 . S
C383 C381 1.390 . S
C383 C384 1.387 . S
C383 H386 0.950 . S
C384 C383 1.387 . S
C384 C387 1.387 . S
H385 C381 0.950 . S
H386 C383 0.950 . S
C387 C378 1.390 . S
C387 H380 0.950 . S
C387 C384 1.387 . S
C388 C389 1.387 . S
C388 H392 0.950 . S
C388 C397 1.390 . S
C389 C388 1.387 . S
C389 C391 1.387 . S
H390 C397 0.950 . S
C391 C389 1.387 . S
C391 C393 1.390 . S
C391 H395 0.950 . S
H392 C388 0.950 . S
C393 C391 1.390 . S
C393 C394 1.387 . S
C393 H396 0.950 . S
C394 C393 1.387 . S
C394 C397 1.387 . S
H395 C391 0.950 . S
H396 C393 0.950 . S
C397 C388 1.390 . S
C397 H390 0.950 . S
C397 C394 1.387 . S
C398 C399 1.387 . S
C398 H402 0.950 . S
C398 C407 1.390 . S
C399 C398 1.387 . S
C399 C401 1.387 . S
H400 C407 0.950 . S
C401 C399 1.387 . S
C401 C403 1.390 . S
C401 H405 0.950 . S
H402 C398 0.950 . S
C403 C401 1.390 . S
C403 C404 1.387 . S
C403 H406 0.950 . S
C404 C403 1.387 . S
C404 C407 1.387 . S
H405 C401 0.950 . S
H406 C403 0.950 . S
C407 C398 1.390 . S
C407 H400 0.950 . S
C407 C404 1.387 . S
C169 C8 1.518 . S
C174 C78 1.521 . S
C179 C17 1.586 1_545 S
C184 C59 1.589 . S
C189 C77 1.425 . S
C194 C35 1.424 . S
C199 C45 1.499 . S
C204 C65 1.499 1_545 S
C209 C106 1.550 . S
C214 C36 1.552 1_455 S
C219 C93 1.439 . S
C224 C51 1.441 1_545 S
C229 C7 1.460 . S
C234 C105 1.460 . S
C239 C87 1.533 . S
C244 C23 1.531 . S
C249 C129 1.582 . S
C254 C120 1.561 . S
C259 C119 1.500 . S
C264 C157 1.539 . S
C269 C135 1.449 . S
C274 C147 1.417 . S
C279 C148 1.473 . S
C284 C163 1.492 . S
C289 C162 1.517 . S
C294 C92 1.520 . S
C299 C115 1.586 . S
C304 C101 1.589 . S
C309 C91 1.426 . S
C314 C133 1.423 . S
C319 C107 1.500 . S
C324 C143 1.498 . S
C329 C64 1.551 . S
C334 C134 1.553 . S
C339 C79 1.439 . S
C344 C149 1.442 . S
C349 C161 1.459 . S
C354 C63 1.458 . S
C359 C121 1.531 . S
C364 C73 1.532 . S
C369 C22 1.560 . S
C374 C31 1.582 . S
C379 C3 1.540 . S
C384 C21 1.502 . S
C389 C37 1.448 . S
C394 C49 1.417 . S
C399 C9 1.492 . S
C404 C50 1.473 . S
