# Generated by pormake.
# Topology qdl, (4)-cn, num edge types: 1
# Building blocks:
#     Node 0, Type 0, BuildingBlock: MUDLON_clean_sbu_0, # of connection points: 4
#     Node 1, Type 0, BuildingBlock: MUDLON_clean_sbu_0, # of connection points: 4
#     Node 2, Type 0, BuildingBlock: MUDLON_clean_sbu_0, # of connection points: 4
#     Node 3, Type 0, BuildingBlock: MUDLON_clean_sbu_0, # of connection points: 4
#     Node 4, Type 0, BuildingBlock: MUDLON_clean_sbu_0, # of connection points: 4
#     Node 5, Type 0, BuildingBlock: MUDLON_clean_sbu_0, # of connection points: 4
#     Edge 6, Type (0, 0), BuildingBlock: ZUJKAS_clean_linker_0, # of connection points: 2
#     Edge 7, Type (0, 0), BuildingBlock: ZUJKAS_clean_linker_0, # of connection points: 2
#     Edge 8, Type (0, 0), BuildingBlock: ZUJKAS_clean_linker_0, # of connection points: 2
#     Edge 9, Type (0, 0), BuildingBlock: ZUJKAS_clean_linker_0, # of connection points: 2
#     Edge 10, Type (0, 0), BuildingBlock: ZUJKAS_clean_linker_0, # of connection points: 2
#     Edge 11, Type (0, 0), BuildingBlock: ZUJKAS_clean_linker_0, # of connection points: 2
#     Edge 12, Type (0, 0), BuildingBlock: ZUJKAS_clean_linker_0, # of connection points: 2
#     Edge 13, Type (0, 0), BuildingBlock: ZUJKAS_clean_linker_0, # of connection points: 2
#     Edge 14, Type (0, 0), BuildingBlock: ZUJKAS_clean_linker_0, # of connection points: 2
#     Edge 15, Type (0, 0), BuildingBlock: ZUJKAS_clean_linker_0, # of connection points: 2
#     Edge 16, Type (0, 0), BuildingBlock: ZUJKAS_clean_linker_0, # of connection points: 2
#     Edge 17, Type (0, 0), BuildingBlock: ZUJKAS_clean_linker_0, # of connection points: 2
# Relax obj value: 0.001
# Max RMSD: 0.013
# Mean RMSD: 0.012
data_MOF--net-qdl--node1-MUDLON_clean_sbu_0--edge1-ZUJKAS_clean_linker_0
_symmetry_space_group_name_H-M    P1
_symmetry_Int_Tables_number       1
_symmetry_cell_setting            triclinic
loop_
_symmetry_equiv_pos_as_xyz
'x, y, z'
_cell_length_a     19.559142
_cell_length_b     19.602939
_cell_length_c     116.34488
_cell_angle_alpha  90.36597
_cell_angle_beta   90.473132
_cell_angle_gamma 119.98389
loop_
_atom_site_label
_atom_site_type_symbol
_atom_site_fract_x
_atom_site_fract_y
_atom_site_fract_z
_atom_type_partial_charge
Mg0 Mg 0.9368 1.00882 0.10606 0.0
C1 C 0.89499 0.84571 0.09977 0.0
O2 O 0.95857 0.88948 0.09377 0.0
C3 C 0.92046 0.14669 0.10871 0.0
O4 O 0.99652 0.17138 0.10904 0.0
C5 C 0.02802 0.99269 0.12623 0.0
O6 O 1.00765 0.9259 0.12088 0.0
O7 O 1.01225 0.04166 0.12148 0.0
O8 O 0.86677 0.87986 0.10585 0.0
O9 O 0.99378 0.04406 0.08932 0.0
C10 C 0.94349 0.02427 0.08113 0.0
O11 O 0.86822 0.98859 0.08372 0.0
O12 O 0.87277 0.07303 0.10761 0.0
Mg13 Mg 0.17142 0.16615 0.4381 0.0
C14 C 0.08574 0.25241 0.44626 0.0
O15 O 0.10559 0.23841 0.45642 0.0
C16 C 0.32618 0.18245 0.44248 0.0
O17 O 0.27437 0.10831 0.44444 0.0
C18 C 0.05797 0.06023 0.4569 0.0
O19 O 1.00408 0.06326 0.45045 0.0
O20 O 0.12861 0.09229 0.45335 0.0
O21 O 0.11163 0.23541 0.43733 0.0
O22 O 0.14744 0.10574 0.42148 0.0
C23 C 0.08296 0.08228 0.41596 0.0
O24 O 0.0247 0.08549 0.42098 0.0
O25 O 0.30055 0.22845 0.43966 0.0
Mg26 Mg 0.07924 0.95033 0.76888 0.0
C27 C 0.93822 0.79606 0.7702 0.0
O28 O 0.91408 0.84775 0.77018 0.0
C29 C 0.24571 0.05975 0.76139 0.0
O30 O 0.20495 0.06917 0.75316 0.0
C31 C 0.05512 0.9547 0.79354 0.0
O32 O 0.07312 0.89911 0.79197 0.0
O33 O 0.05091 0.99102 0.78477 0.0
O34 O 1.01215 0.82158 0.76974 0.0
O35 O 0.04236 0.97907 0.75264 0.0
C36 C 0.034 0.93323 0.74425 0.0
O37 O 0.04394 0.87279 0.7462 0.0
O38 O 0.20863 1.0083 0.76903 0.0
Mg39 Mg 0.07529 0.14959 0.60036 0.0
C40 C 0.24253 0.20415 0.60723 0.0
O41 O 0.20286 0.14673 0.61445 0.0
C42 C 0.93702 0.16971 0.60276 0.0
O43 O 0.91447 0.0989 0.60667 0.0
C44 C 0.98815 0.0561 0.57852 0.0
O45 O 0.93303 0.0699 0.58227 0.0
O46 O 0.04942 0.0768 0.58476 0.0
O47 O 0.20431 0.2235 0.60034 0.0
O48 O 0.04399 0.08991 0.617 0.0
C49 C 0.05129 0.13574 0.62533 0.0
O50 O 0.07408 0.20961 0.62305 0.0
O51 O 1.00753 0.21087 0.59922 0.0
Mg52 Mg 0.13171 0.01905 0.93652 0.0
C53 C 0.28927 0.15296 0.94095 0.0
O54 O 0.24003 0.17702 0.94392 0.0
C55 C 1.00052 0.86082 0.931 0.0
O56 O 0.9759 0.90892 0.92767 0.0
C57 C 0.14477 0.06211 0.91219 0.0
O58 O 0.20269 0.04777 0.9141 0.0
O59 O 0.10176 0.05812 0.92061 0.0
O60 O 0.26071 0.08209 0.93744 0.0
O61 O 0.09417 0.04591 0.95282 0.0
C62 C 0.08198 0.99708 0.9608 0.0
O63 O 0.08818 0.93481 0.95843 0.0
O64 O 0.07038 0.8904 0.93508 0.0
Mg65 Mg 0.9462 0.957 0.2699 0.0
C66 C 0.91956 0.08921 0.26508 0.0
O67 O 0.99155 0.11278 0.26156 0.0
C68 C 0.91437 0.7963 0.27437 0.0
O69 O 0.984 0.84296 0.27906 0.0
C70 C 0.02862 0.94508 0.24821 0.0
O71 O 1.00316 0.87338 0.25195 0.0
O72 O 1.01885 0.99321 0.25441 0.0
O73 O 0.87997 0.02018 0.26918 0.0
O74 O 1.00732 0.98619 0.28661 0.0
C75 C 0.02559 0.04785 0.29254 0.0
O76 O 1.0166 0.1041 0.28801 0.0
O77 O 0.87815 0.82761 0.26954 0.0
H78 H 0.78433 0.73804 0.11451 0.0
H79 H 0.7506 0.60038 0.11709 0.0
H80 H 0.90684 0.62337 0.08956 0.0
H81 H 0.93899 0.75895 0.08676 0.0
H82 H 0.77126 0.47971 0.08901 0.0
H83 H 0.90586 0.54975 0.13295 0.0
H84 H 0.82505 0.56709 0.13047 0.0
H85 H 0.91668 0.62546 0.12319 0.0
C86 C 0.81034 0.7132 0.10889 0.0
C87 C 0.86509 0.75983 0.10052 0.0
C88 C 0.79148 0.63472 0.11043 0.0
C89 C 0.82739 0.60196 0.10367 0.0
C90 C 0.87855 0.64727 0.09492 0.0
H91 H 1.0115 0.305 0.11162 0.0
H92 H 0.97126 0.40382 0.1113 0.0
C93 C 0.89715 0.72514 0.09336 0.0
C94 C 0.81727 0.52293 0.10602 0.0
H95 H 0.87019 0.42588 0.12523 0.0
C96 C 0.79139 0.4671 0.09701 0.0
C97 C 0.84408 0.50687 0.11644 0.0
C98 C 0.87505 0.56542 0.12631 0.0
C99 C 0.79591 0.39793 0.09789 0.0
C100 C 0.82575 0.3835 0.10814 0.0
C101 C 0.84706 0.43698 0.1174 0.0
C102 C 0.84684 0.32052 0.10885 0.0
C103 C 0.77389 0.34366 0.08756 0.0
C104 C 0.79007 0.24017 0.10772 0.0
C105 C 0.81314 0.18282 0.10784 0.0
C106 C 0.89328 0.2051 0.10914 0.0
C107 C 0.94931 0.28547 0.11055 0.0
C108 C 0.92637 0.3423 0.11041 0.0
H109 H 0.7633 0.36952 0.07975 0.0
H110 H 0.82121 0.32968 0.08573 0.0
H111 H 0.71909 0.28758 0.08938 0.0
H112 H 0.72817 0.22188 0.10668 0.0
H113 H 0.76852 0.12139 0.10678 0.0
H114 H 0.45287 0.32322 0.43543 0.0
H115 H 0.59232 0.35746 0.4348 0.0
H116 H 0.53146 0.13433 0.44993 0.0
H117 H 0.3935 0.09963 0.45051 0.0
H118 H 0.70073 0.3659 0.45241 0.0
H119 H 0.64154 0.1345 0.41995 0.0
H120 H 0.57181 0.16693 0.42298 0.0
H121 H 0.57851 0.09699 0.43218 0.0
C122 C 0.46945 0.28181 0.43869 0.0
C123 C 0.41177 0.20831 0.4429 0.0
C124 C 0.54907 0.3014 0.43831 0.0
C125 C 0.57202 0.24769 0.44209 0.0
C126 C 0.51496 0.17593 0.44672 0.0
H127 H 1.00059 0.2687 0.46352 0.0
H128 H 0.88318 0.28134 0.46165 0.0
C129 C 0.43592 0.15634 0.44708 0.0
C130 C 0.6549 0.26475 0.44111 0.0
H131 H 0.76375 0.18709 0.43041 0.0
C132 C 0.71491 0.32759 0.44747 0.0
C133 C 0.67382 0.21569 0.4345 0.0
C134 C 0.6132 0.15023 0.42692 0.0
C135 C 0.79235 0.34002 0.44787 0.0
C136 C 0.80983 0.28737 0.44191 0.0
C137 C 0.7506 0.22714 0.43508 0.0
C138 C 0.88722 0.29018 0.44311 0.0
C139 C 0.85446 0.40924 0.45472 0.0
C140 C 0.92904 0.29052 0.43331 0.0
C141 C 0.996 0.28229 0.43435 0.0
C142 C 1.02253 0.27329 0.44521 0.0
C143 C 0.98238 0.27611 0.45503 0.0
C144 C 0.91526 0.2839 0.45398 0.0
H145 H 0.84028 0.45743 0.45527 0.0
H146 H 0.85663 0.3902 0.46361 0.0
H147 H 0.91376 0.4328 0.45089 0.0
H148 H 0.9085 0.29487 0.42482 0.0
H149 H 0.02524 0.28018 0.4266 0.0
H150 H 0.77869 0.72948 0.77084 0.0
H151 H 0.6795 0.59064 0.77109 0.0
H152 H 0.86211 0.52852 0.7707 0.0
H153 H 0.96311 0.6691 0.77026 0.0
H154 H 0.74124 0.43964 0.75532 0.0
H155 H 0.61545 0.43913 0.79759 0.0
H156 H 0.61904 0.51526 0.78873 0.0
H157 H 0.70953 0.51905 0.79309 0.0
C158 C 0.79832 0.68668 0.77088 0.0
C159 C 0.87914 0.71068 0.77059 0.0
C160 C 0.74123 0.60702 0.77112 0.0
C161 C 0.76319 0.549 0.77119 0.0
C162 C 0.84381 0.57234 0.77078 0.0
H163 H 0.34673 0.07805 0.77932 0.0
H164 H 0.48315 0.18552 0.78215 0.0
C165 C 0.90142 0.65261 0.77053 0.0
C166 C 0.70076 0.46445 0.77112 0.0
H167 H 0.52823 0.33653 0.78417 0.0
C168 C 0.69549 0.41646 0.76175 0.0
C169 C 0.64188 0.43321 0.77964 0.0
C170 C 0.64722 0.47917 0.79039 0.0
C171 C 0.62988 0.34046 0.76023 0.0
C172 C 0.5671 0.31244 0.76815 0.0
C173 C 0.57549 0.35809 0.77798 0.0
C174 C 0.48915 0.24062 0.76583 0.0
C175 C 0.62797 0.29171 0.75002 0.0
C176 C 0.44727 0.235 0.75568 0.0
C177 C 0.36981 0.17366 0.75403 0.0
C178 C 0.33163 0.11678 0.76256 0.0
C179 C 0.3744 0.12063 0.77256 0.0
C180 C 0.45235 0.1822 0.7742 0.0
H181 H 0.68859 0.30603 0.74765 0.0
H182 H 0.59241 0.22766 0.75175 0.0
H183 H 0.60167 0.30539 0.74252 0.0
H184 H 0.47311 0.2802 0.74922 0.0
H185 H 0.33878 0.17284 0.74623 0.0
H186 H 0.34028 0.29047 0.5896 0.0
H187 H 0.4774 0.32202 0.58677 0.0
H188 H 0.47528 0.2193 0.61952 0.0
H189 H 0.33984 0.18884 0.62247 0.0
H190 H 0.62018 0.35642 0.61495 0.0
H191 H 0.51667 0.13984 0.57856 0.0
H192 H 0.49724 0.22008 0.57752 0.0
H193 H 0.44875 0.14643 0.58827 0.0
C194 C 0.36972 0.27623 0.59629 0.0
C195 C 0.3288 0.23622 0.60619 0.0
C196 C 0.44786 0.29383 0.59464 0.0
C197 C 0.48609 0.27175 0.60285 0.0
C198 C 0.44698 0.23668 0.61305 0.0
H199 H 0.7821 0.08754 0.60834 0.0
H200 H 0.68379 0.12851 0.60696 0.0
C201 C 0.36926 0.21899 0.6147 0.0
C202 C 0.56351 0.27759 0.60059 0.0
H203 H 0.64563 0.18759 0.58534 0.0
C204 C 0.62663 0.32112 0.6083 0.0
C205 C 0.57145 0.23083 0.59196 0.0
C206 C 0.50502 0.18114 0.58362 0.0
C207 C 0.69577 0.31592 0.60797 0.0
C208 C 0.70185 0.26613 0.59971 0.0
C209 C 0.64075 0.22612 0.59161 0.0
C210 C 0.76429 0.24446 0.60052 0.0
C211 C 0.75967 0.35925 0.61692 0.0
C212 C 0.84262 0.29639 0.59736 0.0
C213 C 0.89967 0.27294 0.59811 0.0
C214 C 0.87898 0.19735 0.60206 0.0
C215 C 0.80043 0.14617 0.60527 0.0
C216 C 0.74387 0.16938 0.60447 0.0
H217 H 0.74502 0.39404 0.62296 0.0
H218 H 0.76928 0.31661 0.62191 0.0
H219 H 0.81596 0.39978 0.61263 0.0
H220 H 0.85935 0.35455 0.59424 0.0
H221 H 0.95961 0.31366 0.59556 0.0
H222 H 0.40949 0.13486 0.93195 0.0
H223 H 0.54982 0.23594 0.93076 0.0
H224 H 0.50211 0.40155 0.9484 0.0
H225 H 0.36371 0.30173 0.94979 0.0
H226 H 0.61213 0.37586 0.91968 0.0
H227 H 0.69678 0.43542 0.96551 0.0
H228 H 0.60779 0.34836 0.96065 0.0
H229 H 0.60893 0.44011 0.96278 0.0
C230 C 0.42938 0.19242 0.93576 0.0
C231 C 0.37534 0.21011 0.94098 0.0
C232 C 0.50949 0.25014 0.93505 0.0
C233 C 0.53693 0.32604 0.93968 0.0
C234 C 0.48309 0.34301 0.94504 0.0
H235 H 0.85617 0.78389 0.9206 0.0
H236 H 0.75599 0.64588 0.9221 0.0
C237 C 0.40351 0.28579 0.94573 0.0
C238 C 0.61979 0.39034 0.93811 0.0
H239 H 0.77201 0.54438 0.95253 0.0
C240 C 0.64794 0.41164 0.92689 0.0
C241 C 0.66764 0.43634 0.94748 0.0
C242 C 0.644 0.41327 0.95978 0.0
C243 C 0.71934 0.48114 0.92476 0.0
C244 C 0.76292 0.53145 0.93408 0.0
C245 C 0.73815 0.50669 0.94535 0.0
C246 C 0.82816 0.61352 0.93231 0.0
C247 C 0.74614 0.50102 0.91251 0.0
C248 C 0.90236 0.64221 0.93769 0.0
C249 C 0.96023 0.72209 0.93692 0.0
C250 C 0.94433 0.77469 0.93088 0.0
C251 C 0.87064 0.74517 0.92531 0.0
C252 C 0.81328 0.6658 0.92606 0.0
H253 H 0.72559 0.44671 0.90721 0.0
H254 H 0.72018 0.53491 0.90871 0.0
H255 H 0.81143 0.53695 0.91201 0.0
H256 H 0.91493 0.60314 0.94267 0.0
H257 H 1.01619 0.74305 0.94137 0.0
H258 H 0.78118 0.07157 0.27405 0.0
H259 H 0.73986 0.17125 0.2748 0.0
H260 H 0.95105 0.33413 0.25697 0.0
H261 H 0.99132 0.23564 0.25596 0.0
H262 H 0.81227 0.312 0.28541 0.0
H263 H 0.79075 0.36297 0.23941 0.0
H264 H 0.79496 0.27816 0.24444 0.0
H265 H 0.88443 0.37087 0.2424 0.0
C266 C 0.81793 0.12819 0.27011 0.0
C267 C 0.88948 0.14542 0.26493 0.0
C268 C 0.79433 0.18513 0.27055 0.0
C269 C 0.84147 0.25985 0.26572 0.0
C270 C 0.91228 0.27638 0.26045 0.0
H271 H 0.97717 0.7177 0.2852 0.0
H272 H 0.93836 0.57966 0.28344 0.0
C273 C 0.93569 0.21991 0.25999 0.0
C274 C 0.82182 0.32378 0.267 0.0
H275 H 0.82564 0.47561 0.25221 0.0
C276 C 0.81322 0.34663 0.27811 0.0
C277 C 0.82088 0.36823 0.25751 0.0
C278 C 0.82232 0.3431 0.24527 0.0
C279 C 0.81091 0.41631 0.28005 0.0
C280 C 0.81944 0.46553 0.27065 0.0
C281 C 0.82071 0.43899 0.25946 0.0
C282 C 0.83727 0.54827 0.27234 0.0
C283 C 0.80164 0.43749 0.29219 0.0
C284 C 0.79452 0.57789 0.26649 0.0
C285 C 0.8174 0.65809 0.26737 0.0
C286 C 0.88392 0.71004 0.27404 0.0
C287 C 0.92548 0.67963 0.28001 0.0
C288 C 0.9028 0.60011 0.27911 0.0
H289 H 0.76556 0.38367 0.2973 0.0
H290 H 0.86065 0.47045 0.29641 0.0
H291 H 0.77347 0.47458 0.29241 0.0
H292 H 0.74425 0.53923 0.2611 0.0
H293 H 0.78439 0.67969 0.26261 0.0
H294 H 0.05273 0.0741 0.23586 0.0
H295 H 0.07327 0.09323 0.21512 0.0
H296 H 0.0845 0.87964 0.21243 0.0
H297 H 0.06259 0.85921 0.23308 0.0
H298 H 0.18846 0.10375 0.19945 0.0
H299 H 0.89742 0.83583 0.19148 0.0
H300 H 0.92816 0.88156 0.2055 0.0
H301 H 0.96395 0.81911 0.20012 0.0
C302 C 0.06086 0.03182 0.2309 0.0
C303 C 0.05487 0.96447 0.23613 0.0
C304 C 0.07258 0.04288 0.21903 0.0
C305 C 0.07862 0.98694 0.21218 0.0
C306 C 0.07817 0.92263 0.2175 0.0
H307 H 0.06255 0.89688 0.13896 0.0
H308 H 0.08583 0.9026 0.15969 0.0
C309 C 0.06601 0.91126 0.22933 0.0
C310 C 0.07976 0.99265 0.19943 0.0
H311 H 0.97553 0.89568 0.17522 0.0
C312 C 0.14195 0.05837 0.19413 0.0
C313 C 1.01864 0.9337 0.19251 0.0
C314 C 0.94783 0.86392 0.19767 0.0
C315 C 0.14545 0.06571 0.18208 0.0
C316 C 0.0847 1.00624 0.17518 0.0
C317 C 1.02247 0.94089 0.1805 0.0
C318 C 0.08287 1.01032 0.16243 0.0
C319 C 0.21472 0.1362 0.17682 0.0
C320 C 0.07511 0.06996 0.157 0.0
C321 C 0.06181 0.06693 0.1451 0.0
C322 C 0.0554 1.00381 0.13841 0.0
C323 C 0.06694 0.94626 0.14382 0.0
C324 C 0.08022 0.94937 0.15569 0.0
H325 H 0.26536 0.16564 0.18295 0.0
H326 H 0.23449 0.11895 0.16896 0.0
H327 H 0.19669 0.17957 0.17434 0.0
H328 H 0.07554 0.11685 0.16203 0.0
H329 H 0.05288 0.11207 0.14124 0.0
H330 H 0.10604 0.05396 0.56613 0.0
H331 H 0.10707 0.0329 0.54537 0.0
H332 H 0.86491 0.97831 0.5427 0.0
H333 H 0.86368 1.0006 0.56337 0.0
H334 H 1.01547 0.9083 0.52972 0.0
H335 H 0.9805 0.16837 0.52176 0.0
H336 H 1.0039 0.14643 0.53579 0.0
H337 H 0.90418 0.09372 0.53032 0.0
C338 C 0.05256 0.03624 0.56117 0.0
C339 C 0.9851 0.03008 0.56641 0.0
C340 C 0.05329 0.02426 0.54929 0.0
C341 C 0.98666 1.00583 0.54244 0.0
C342 C 0.91761 0.99433 0.54777 0.0
H343 H 0.91882 1.0074 0.46834 0.0
H344 H 0.89637 0.98244 0.48892 0.0
C345 C 0.91693 1.00672 0.55961 0.0
C346 C 0.99099 1.00385 0.52969 0.0
H347 H 0.97957 0.09569 0.50549 0.0
C348 C 1.00751 0.94913 0.5244 0.0
C349 C 0.98094 0.05743 0.52276 0.0
C350 C 0.96712 0.12033 0.52792 0.0
C351 C 1.01333 0.94603 0.51237 0.0
C352 C 1.0035 0.99981 0.50547 0.0
C353 C 0.98646 0.05405 0.51077 0.0
C354 C 1.0139 1.00383 0.49279 0.0
C355 C 0.02901 0.88463 0.50715 0.0
C356 C 0.08707 0.02293 0.48806 0.0
C357 C 0.10014 0.03719 0.47628 0.0
C358 C 0.0404 0.0332 0.46898 0.0
C359 C 0.96615 1.01089 0.47367 0.0
C360 C 0.95319 0.99673 0.48546 0.0
H361 H 1.01244 0.83461 0.51307 0.0
H362 H 0.99604 0.86146 0.49891 0.0
H363 H 0.09298 0.91169 0.50539 0.0
H364 H 0.13536 0.03035 0.49355 0.0
H365 H 0.15811 0.05447 0.47299 0.0
H366 H 0.04537 0.8752 0.81304 0.0
H367 H 0.03902 0.91225 0.83278 0.0
H368 H 0.03432 0.11822 0.8211 0.0
H369 H 0.04195 0.08171 0.80106 0.0
H370 H 0.14248 0.1534 0.83834 0.0
H371 H 0.86062 0.89947 0.8515 0.0
H372 H 0.9212 0.866 0.84489 0.0
H373 H 0.88715 0.92082 0.83658 0.0
C374 C 0.04205 0.92799 0.81459 0.0
C375 C 0.04422 0.9755 0.80543 0.0
C376 C 0.03762 0.94873 0.82593 0.0
C377 C 0.03454 0.01719 0.82846 0.0
C378 C 0.03574 0.06462 0.81935 0.0
H379 H 1.01286 0.06302 0.90375 0.0
H380 H 0.97973 0.06873 0.88347 0.0
C381 C 0.03999 0.04365 0.80791 0.0
C382 C 0.03709 0.04129 0.84069 0.0
H383 H 0.95889 0.96493 0.86681 0.0
C384 C 0.10121 0.11304 0.84454 0.0
C385 C 0.98237 0.98986 0.84882 0.0
C386 C 0.90851 0.91519 0.8452 0.0
C387 C 0.11587 0.13127 0.85634 0.0
C388 C 0.06615 0.07554 0.8645 0.0
C389 C 0.99805 1.00719 0.86061 0.0
C390 C 0.08885 0.0819 0.87688 0.0
C391 C 0.18595 0.20916 0.85992 0.0
C392 C 0.16108 0.08763 0.87995 0.0
C393 C 0.18003 0.08451 0.89145 0.0
C394 C 0.1269 0.07473 0.90022 0.0
C395 C 0.05528 0.07104 0.89721 0.0
C396 C 0.03622 0.07412 0.88563 0.0
H397 H 0.19779 0.25511 0.85345 0.0
H398 H 0.17683 0.2295 0.8684 0.0
H399 H 0.23916 0.2028 0.8605 0.0
H400 H 0.20182 0.09136 0.8734 0.0
H401 H 0.23564 0.08739 0.89342 0.0
H402 H 0.84662 0.96681 0.06238 0.0
H403 H 0.88224 0.98082 0.04221 0.0
H404 H 0.12811 0.12495 0.05165 0.0
H405 H 0.09278 0.10893 0.07207 0.0
H406 H 0.95285 0.10545 0.02852 0.0
H407 H 0.13474 0.96078 0.03149 0.0
H408 H 0.07399 0.95962 0.04314 0.0
H409 H 0.16759 0.04625 0.04055 0.0
C410 C 0.90844 1.00157 0.06022 0.0
C411 C 0.96694 0.03628 0.06888 0.0
C412 C 0.92869 1.00972 0.04864 0.0
C413 C 1.00793 0.05308 0.04536 0.0
C414 C 0.06665 0.08971 0.05395 0.0
H415 H 0.10976 0.13626 0.97094 0.0
H416 H 0.09742 0.15976 0.99139 0.0
C417 C 0.04639 0.08087 0.06562 0.0
C418 C 0.02759 0.05773 0.03293 0.0
H419 H 0.12218 1.00494 1.01329 0.0
C420 C 0.99039 0.08404 0.02518 0.0
C421 C 0.07608 0.02921 0.02857 0.0
C422 C 0.11493 0.99671 0.03633 0.0
C423 C 0.99818 0.08024 1.01322 0.0
C424 C 0.04617 0.05114 1.00886 0.0
C425 C 0.08552 0.0274 1.01663 0.0
C426 C 0.05145 0.03833 0.99634 0.0
C427 C 0.95189 0.10381 1.00537 0.0
C428 C 0.03039 0.96264 0.99229 0.0
C429 C 0.03829 0.94941 0.98071 0.0
C430 C 0.06713 1.01147 0.97282 0.0
C431 C 0.08654 0.08708 0.97678 0.0
C432 C 0.07936 0.10052 0.98847 0.0
H433 H 0.90402 0.10697 1.00999 0.0
H434 H 0.99215 0.16291 1.00184 0.0
H435 H 0.92528 0.0616 0.99806 0.0
H436 H 1.0084 0.9136 0.99816 0.0
H437 H 1.02257 0.89039 0.97795 0.0
H438 H 1.00367 0.92539 0.30617 0.0
H439 H 1.01654 0.92582 0.32708 0.0
H440 H 0.10462 0.17619 0.32805 0.0
H441 H 0.08855 0.17554 0.30716 0.0
H442 H 0.1313 0.9926 0.34239 0.0
H443 H 0.92482 0.10395 0.34964 0.0
H444 H 0.93942 0.07417 0.33561 0.0
H445 H 1.00806 0.17059 0.34131 0.0
C446 C 0.0264 0.98076 0.31082 0.0
C447 C 0.04419 0.05034 0.305 0.0
C448 C 0.03365 0.98087 0.3228 0.0
C449 C 0.05945 0.05061 0.32922 0.0
C450 C 0.08193 0.12106 0.32335 0.0
H451 H 0.20463 0.11763 0.4013 0.0
H452 H 0.19812 0.10448 0.3804 0.0
C453 C 0.07347 0.12079 0.31138 0.0
C454 C 0.06093 0.049 0.34204 0.0
H455 H 0.99615 0.10003 0.36601 0.0
C456 C 0.10142 1.01577 0.34756 0.0
C457 C 1.0204 0.07743 0.34883 0.0
C458 C 0.97002 0.10772 0.34355 0.0
C459 C 0.10377 1.01157 0.35961 0.0
C460 C 0.06674 0.04384 0.3664 0.0
C461 C 0.0252 0.07585 0.36087 0.0
C462 C 0.07055 0.04601 0.37923 0.0
C463 C 0.14435 0.97084 0.3649 0.0
C464 C 1.00124 0.01875 0.38565 0.0
C465 C 1.00496 0.02787 0.39762 0.0
C466 C 0.07808 0.06384 0.40348 0.0
C467 C 0.14722 0.0887 0.39709 0.0
C468 C 0.14355 0.08077 0.3851 0.0
H469 H 0.14482 0.927 0.35885 0.0
H470 H 0.20664 1.01521 0.36694 0.0
H471 H 0.11521 0.94032 0.37294 0.0
H472 H 0.94412 0.9918 0.38136 0.0
H473 H 0.95062 1.00816 0.40227 0.0
H474 H 0.05282 0.21926 0.6442 0.0
H475 H 0.04026 0.18115 0.66429 0.0
H476 H 1.00958 0.95528 0.65431 0.0
H477 H 1.02136 0.99282 0.63398 0.0
H478 H 0.90345 0.94868 0.67165 0.0
H479 H 0.21407 0.16949 0.68263 0.0
H480 H 0.16002 0.21008 0.67577 0.0
H481 H 0.17933 0.14208 0.66799 0.0
C482 C 0.04325 0.1613 0.64622 0.0
C483 C 0.03882 0.10933 0.63745 0.0
C484 C 0.03641 0.13978 0.65775 0.0
C485 C 0.02557 0.06604 0.66083 0.0
C486 C 1.01854 1.01278 0.65211 0.0
H487 H 1.00057 0.83847 0.72537 0.0
H488 H 0.99224 0.86991 0.70536 0.0
C489 C 0.02527 0.03428 0.64051 0.0
C490 C 1.02256 0.04553 0.67316 0.0
H491 H 0.1301 0.1034 0.69822 0.0
C492 C 0.95307 0.9822 0.67746 0.0
C493 C 0.08727 0.08959 0.68075 0.0
C494 C 0.16469 0.15617 0.67656 0.0
C495 C 0.94613 0.96257 0.68917 0.0
C496 C 1.01087 1.00671 0.69675 0.0
C497 C 0.08027 0.07005 0.69244 0.0
C498 C 1.00966 0.98587 0.70904 0.0
C499 C 0.86907 0.89563 0.69336 0.0
C500 C 1.02294 0.04089 0.71783 0.0
C501 C 0.02805 0.02315 0.72936 0.0
C502 C 1.02091 0.95037 0.73228 0.0
C503 C 1.00622 0.89505 0.72345 0.0
C504 C 1.00086 0.91268 0.71198 0.0
H505 H 0.8193 0.88329 0.68743 0.0
H506 H 0.87362 0.84152 0.69385 0.0
H507 H 0.85524 0.90861 0.70207 0.0
H508 H 0.03049 0.09802 0.71575 0.0
H509 H 0.03985 0.06722 0.73593 0.0
loop_
_geom_bond_atom_site_label_1
_geom_bond_atom_site_label_2
_geom_bond_distance
_geom_bond_site_symmetry_2
_ccdc_geom_bond_type
Mg0 O7 2.141 . S
Mg0 O8 2.048 1_545 S
Mg0 O9 2.048 . S
Mg0 O12 2.141 . S
C1 O2 1.313 . S
C1 O8 1.195 1_455 S
O2 C1 1.313 . S
C3 O4 1.245 . S
C3 O12 1.289 1_455 S
O4 C3 1.245 . S
C5 O6 1.245 . S
C5 O7 1.289 1_455 S
O6 C5 1.245 . S
O7 Mg0 2.141 . S
O7 C5 1.289 1_655 S
O8 Mg0 2.048 1_565 S
O8 C1 1.195 1_655 S
O9 Mg0 2.048 . S
O9 C10 1.195 1_655 S
C10 O9 1.195 1_455 S
C10 O11 1.313 . S
O11 C10 1.313 . S
O12 Mg0 2.141 . S
O12 C3 1.289 1_655 S
Mg13 O20 2.141 . S
Mg13 O21 2.048 1_455 S
Mg13 O22 2.048 . S
Mg13 O25 2.141 . S
C14 O15 1.313 1_545 S
C14 O21 1.195 . S
O15 C14 1.313 1_565 S
C16 O17 1.245 1_545 S
C16 O25 1.289 . S
O17 C16 1.245 1_565 S
C18 O19 1.245 1_445 S
C18 O20 1.289 . S
O19 C18 1.245 1_665 S
O20 Mg13 2.141 . S
O20 C18 1.289 . S
O21 Mg13 2.048 1_655 S
O21 C14 1.195 . S
O22 Mg13 2.048 . S
O22 C23 1.195 . S
C23 O22 1.195 . S
C23 O24 1.313 1_445 S
O24 C23 1.313 1_665 S
O25 Mg13 2.141 . S
O25 C16 1.289 . S
Mg26 O33 2.141 . S
Mg26 O34 2.048 1_445 S
Mg26 O35 2.048 . S
Mg26 O38 2.141 . S
C27 O28 1.313 . S
C27 O34 1.195 . S
O28 C27 1.313 . S
C29 O30 1.245 . S
C29 O38 1.289 . S
O30 C29 1.245 . S
C31 O32 1.245 1_545 S
C31 O33 1.289 . S
O32 C31 1.245 1_565 S
O33 Mg26 2.141 . S
O33 C31 1.289 . S
O34 Mg26 2.048 1_665 S
O34 C27 1.195 . S
O35 Mg26 2.048 . S
O35 C36 1.195 . S
C36 O35 1.195 . S
C36 O37 1.313 1_545 S
O37 C36 1.313 1_565 S
O38 Mg26 2.141 . S
O38 C29 1.289 . S
Mg39 O46 2.141 . S
Mg39 O47 2.048 . S
Mg39 O48 2.048 . S
Mg39 O51 2.141 1_455 S
C40 O41 1.313 1_545 S
C40 O47 1.195 . S
O41 C40 1.313 1_565 S
C42 O43 1.245 1_545 S
C42 O51 1.289 . S
O43 C42 1.245 1_565 S
C44 O45 1.245 1_445 S
C44 O46 1.289 . S
O45 C44 1.245 1_665 S
O46 Mg39 2.141 . S
O46 C44 1.289 . S
O47 Mg39 2.048 . S
O47 C40 1.195 . S
O48 Mg39 2.048 . S
O48 C49 1.195 . S
C49 O48 1.195 . S
C49 O50 1.313 1_445 S
O50 C49 1.313 1_665 S
O51 Mg39 2.141 1_655 S
O51 C42 1.289 . S
Mg52 O59 2.141 . S
Mg52 O60 2.048 1_655 S
Mg52 O61 2.048 . S
Mg52 O64 2.141 1_545 S
C53 O54 1.313 . S
C53 O60 1.195 . S
O54 C53 1.313 . S
C55 O56 1.245 . S
C55 O64 1.289 . S
O56 C55 1.245 . S
C57 O58 1.245 1_545 S
C57 O59 1.289 1_455 S
O58 C57 1.245 1_565 S
O59 Mg52 2.141 . S
O59 C57 1.289 1_655 S
O60 Mg52 2.048 1_455 S
O60 C53 1.195 . S
O61 Mg52 2.048 . S
O61 C62 1.195 1_655 S
C62 O61 1.195 1_455 S
C62 O63 1.313 . S
O63 C62 1.313 . S
O64 Mg52 2.141 1_565 S
O64 C55 1.289 . S
Mg65 O72 2.141 . S
Mg65 O73 2.048 1_565 S
Mg65 O74 2.048 . S
Mg65 O77 2.141 . S
C66 O67 1.313 . S
C66 O73 1.195 1_455 S
O67 C66 1.313 . S
C68 O69 1.245 . S
C68 O77 1.289 1_455 S
O69 C68 1.245 . S
C70 O71 1.245 . S
C70 O72 1.289 1_445 S
O71 C70 1.245 . S
O72 Mg65 2.141 . S
O72 C70 1.289 1_665 S
O73 Mg65 2.048 1_545 S
O73 C66 1.195 1_655 S
O74 Mg65 2.048 . S
O74 C75 1.195 1_665 S
C75 O74 1.195 1_445 S
C75 O76 1.313 . S
O76 C75 1.313 . S
O77 Mg65 2.141 . S
O77 C68 1.289 1_655 S
H78 C86 0.929 . S
H79 C88 0.930 . S
H80 C90 0.930 . S
H81 C93 0.929 . S
H82 C96 0.930 . S
H83 C98 0.960 . S
H84 C98 0.960 . S
H85 C98 0.960 . S
C86 H78 0.929 . S
C86 C87 1.377 1_655 S
C86 C88 1.384 . S
C87 C86 1.377 1_455 S
C87 C93 1.390 . S
C88 H79 0.930 . S
C88 C86 1.384 . S
C88 C89 1.372 1_655 S
C89 C88 1.372 1_455 S
C89 C90 1.400 . S
C89 C94 1.490 . S
C90 H80 0.930 . S
C90 C89 1.400 . S
C90 C93 1.386 . S
H91 C107 0.930 . S
H92 C108 0.931 . S
C93 H81 0.929 . S
C93 C87 1.390 . S
C93 C90 1.386 . S
C94 C89 1.490 . S
C94 C96 1.395 1_455 S
C94 C97 1.403 . S
H95 C101 0.930 . S
C96 H82 0.930 . S
C96 C94 1.395 1_655 S
C96 C99 1.403 . S
C97 C94 1.403 . S
C97 C98 1.524 . S
C97 C101 1.400 . S
C98 H83 0.960 . S
C98 H84 0.960 . S
C98 H85 0.960 . S
C98 C97 1.524 . S
C99 C96 1.403 . S
C99 C100 1.392 1_655 S
C99 C103 1.495 . S
C100 C99 1.392 1_455 S
C100 C101 1.385 . S
C100 C102 1.478 . S
C101 H95 0.930 . S
C101 C97 1.400 . S
C101 C100 1.385 . S
C102 C100 1.478 . S
C102 C104 1.381 1_455 S
C102 C108 1.383 . S
C103 C99 1.495 . S
C103 H109 0.959 . S
C103 H110 0.961 . S
C103 H111 0.960 . S
C104 C102 1.381 1_655 S
C104 C105 1.394 . S
C104 H112 0.930 . S
C105 C104 1.394 . S
C105 C106 1.383 1_655 S
C105 H113 0.929 . S
C106 C105 1.383 1_455 S
C106 C107 1.377 . S
C107 H91 0.930 . S
C107 C106 1.377 . S
C107 C108 1.379 . S
C108 H92 0.931 . S
C108 C102 1.383 . S
C108 C107 1.379 . S
H109 C103 0.959 . S
H110 C103 0.961 . S
H111 C103 0.960 . S
H112 C104 0.930 . S
H113 C105 0.929 . S
H114 C122 0.929 . S
H115 C124 0.930 . S
H116 C126 0.930 . S
H117 C129 0.929 . S
H118 C132 0.930 . S
H119 C134 0.960 . S
H120 C134 0.960 . S
H121 C134 0.960 . S
C122 H114 0.929 . S
C122 C123 1.377 . S
C122 C124 1.384 . S
C123 C122 1.377 . S
C123 C129 1.390 1_545 S
C124 H115 0.930 . S
C124 C122 1.384 . S
C124 C125 1.372 . S
C125 C124 1.372 . S
C125 C126 1.400 1_545 S
C125 C130 1.490 . S
C126 H116 0.930 . S
C126 C125 1.400 1_565 S
C126 C129 1.386 . S
H127 C143 0.930 . S
H128 C144 0.931 . S
C129 H117 0.929 . S
C129 C123 1.390 1_565 S
C129 C126 1.386 . S
C130 C125 1.490 . S
C130 C132 1.395 . S
C130 C133 1.403 1_545 S
H131 C137 0.930 . S
C132 H118 0.930 . S
C132 C130 1.395 . S
C132 C135 1.403 . S
C133 C130 1.403 1_565 S
C133 C134 1.524 . S
C133 C137 1.400 . S
C134 H119 0.960 . S
C134 H120 0.960 . S
C134 H121 0.960 . S
C134 C133 1.524 . S
C135 C132 1.403 . S
C135 C136 1.392 . S
C135 C139 1.495 . S
C136 C135 1.392 . S
C136 C137 1.385 1_545 S
C136 C138 1.478 . S
C137 H131 0.930 . S
C137 C133 1.400 . S
C137 C136 1.385 1_565 S
C138 C136 1.478 . S
C138 C140 1.381 . S
C138 C144 1.383 1_545 S
C139 C135 1.495 . S
C139 H145 0.959 . S
C139 H146 0.961 . S
C139 H147 0.960 . S
C140 C138 1.381 . S
C140 C141 1.394 . S
C140 H148 0.930 . S
C141 C140 1.394 . S
C141 C142 1.383 . S
C141 H149 0.929 . S
C142 C141 1.383 . S
C142 C143 1.377 1_545 S
C143 H127 0.930 . S
C143 C142 1.377 1_565 S
C143 C144 1.379 . S
C144 H128 0.931 . S
C144 C138 1.383 1_565 S
C144 C143 1.379 . S
H145 C139 0.959 . S
H146 C139 0.961 . S
H147 C139 0.960 . S
H148 C140 0.930 . S
H149 C141 0.929 . S
H150 C158 0.929 . S
H151 C160 0.930 . S
H152 C162 0.930 . S
H153 C165 0.929 . S
H154 C168 0.930 . S
H155 C170 0.960 . S
H156 C170 0.960 . S
H157 C170 0.960 . S
C158 H150 0.929 . S
C158 C159 1.377 . S
C158 C160 1.384 . S
C159 C158 1.377 . S
C159 C165 1.390 . S
C160 H151 0.930 . S
C160 C158 1.384 . S
C160 C161 1.372 . S
C161 C160 1.372 . S
C161 C162 1.400 . S
C161 C166 1.490 . S
C162 H152 0.930 . S
C162 C161 1.400 . S
C162 C165 1.386 . S
H163 C179 0.930 . S
H164 C180 0.931 . S
C165 H153 0.929 . S
C165 C159 1.390 . S
C165 C162 1.386 . S
C166 C161 1.490 . S
C166 C168 1.395 . S
C166 C169 1.403 . S
H167 C173 0.930 . S
C168 H154 0.930 . S
C168 C166 1.395 . S
C168 C171 1.403 . S
C169 C166 1.403 . S
C169 C170 1.524 . S
C169 C173 1.400 . S
C170 H155 0.960 . S
C170 H156 0.960 . S
C170 H157 0.960 . S
C170 C169 1.524 . S
C171 C168 1.403 . S
C171 C172 1.392 . S
C171 C175 1.495 . S
C172 C171 1.392 . S
C172 C173 1.385 . S
C172 C174 1.478 . S
C173 H167 0.930 . S
C173 C169 1.400 . S
C173 C172 1.385 . S
C174 C172 1.478 . S
C174 C176 1.381 . S
C174 C180 1.383 . S
C175 C171 1.495 . S
C175 H181 0.959 . S
C175 H182 0.961 . S
C175 H183 0.960 . S
C176 C174 1.381 . S
C176 C177 1.394 . S
C176 H184 0.930 . S
C177 C176 1.394 . S
C177 C178 1.383 . S
C177 H185 0.929 . S
C178 C177 1.383 . S
C178 C179 1.377 . S
C179 H163 0.930 . S
C179 C178 1.377 . S
C179 C180 1.379 . S
C180 H164 0.931 . S
C180 C174 1.383 . S
C180 C179 1.379 . S
H181 C175 0.959 . S
H182 C175 0.961 . S
H183 C175 0.960 . S
H184 C176 0.930 . S
H185 C177 0.929 . S
H186 C194 0.929 . S
H187 C196 0.930 . S
H188 C198 0.930 . S
H189 C201 0.929 . S
H190 C204 0.930 . S
H191 C206 0.960 . S
H192 C206 0.960 1_545 S
H193 C206 0.960 . S
C194 H186 0.929 . S
C194 C195 1.377 . S
C194 C196 1.384 . S
C195 C194 1.377 . S
C195 C201 1.390 1_545 S
C196 H187 0.930 . S
C196 C194 1.384 . S
C196 C197 1.372 . S
C197 C196 1.372 . S
C197 C198 1.400 1_545 S
C197 C202 1.490 . S
C198 H188 0.930 . S
C198 C197 1.400 1_565 S
C198 C201 1.386 . S
H199 C215 0.930 . S
H200 C216 0.931 . S
C201 H189 0.929 . S
C201 C195 1.390 1_565 S
C201 C198 1.386 . S
C202 C197 1.490 . S
C202 C204 1.395 . S
C202 C205 1.403 . S
H203 C209 0.930 1_565 S
C204 H190 0.930 . S
C204 C202 1.395 . S
C204 C207 1.403 . S
C205 C202 1.403 . S
C205 C206 1.524 1_545 S
C205 C209 1.400 . S
C206 H191 0.960 . S
C206 H192 0.960 1_565 S
C206 H193 0.960 . S
C206 C205 1.524 1_565 S
C207 C204 1.403 . S
C207 C208 1.392 . S
C207 C211 1.495 . S
C208 C207 1.392 . S
C208 C209 1.385 . S
C208 C210 1.478 . S
C209 H203 0.930 1_545 S
C209 C205 1.400 . S
C209 C208 1.385 . S
C210 C208 1.478 . S
C210 C212 1.381 . S
C210 C216 1.383 1_545 S
C211 C207 1.495 . S
C211 H217 0.959 . S
C211 H218 0.961 . S
C211 H219 0.960 . S
C212 C210 1.381 . S
C212 C213 1.394 . S
C212 H220 0.930 . S
C213 C212 1.394 . S
C213 C214 1.383 . S
C213 H221 0.929 . S
C214 C213 1.383 . S
C214 C215 1.377 1_545 S
C215 H199 0.930 . S
C215 C214 1.377 1_565 S
C215 C216 1.379 . S
C216 H200 0.931 . S
C216 C210 1.383 1_565 S
C216 C215 1.379 . S
H217 C211 0.959 . S
H218 C211 0.961 . S
H219 C211 0.960 . S
H220 C212 0.930 . S
H221 C213 0.929 . S
H222 C230 0.929 . S
H223 C232 0.930 . S
H224 C234 0.930 . S
H225 C237 0.929 . S
H226 C240 0.930 . S
H227 C242 0.960 . S
H228 C242 0.960 . S
H229 C242 0.960 . S
C230 H222 0.929 . S
C230 C231 1.377 . S
C230 C232 1.384 . S
C231 C230 1.377 . S
C231 C237 1.390 . S
C232 H223 0.930 . S
C232 C230 1.384 . S
C232 C233 1.372 . S
C233 C232 1.372 . S
C233 C234 1.400 . S
C233 C238 1.490 . S
C234 H224 0.930 . S
C234 C233 1.400 . S
C234 C237 1.386 . S
H235 C251 0.930 . S
H236 C252 0.931 . S
C237 H225 0.929 . S
C237 C231 1.390 . S
C237 C234 1.386 . S
C238 C233 1.490 . S
C238 C240 1.395 . S
C238 C241 1.403 . S
H239 C245 0.930 . S
C240 H226 0.930 . S
C240 C238 1.395 . S
C240 C243 1.403 . S
C241 C238 1.403 . S
C241 C242 1.524 . S
C241 C245 1.400 . S
C242 H227 0.960 . S
C242 H228 0.960 . S
C242 H229 0.960 . S
C242 C241 1.524 . S
C243 C240 1.403 . S
C243 C244 1.392 . S
C243 C247 1.495 . S
C244 C243 1.392 . S
C244 C245 1.385 . S
C244 C246 1.478 . S
C245 H239 0.930 . S
C245 C241 1.400 . S
C245 C244 1.385 . S
C246 C244 1.478 . S
C246 C248 1.381 . S
C246 C252 1.383 . S
C247 C243 1.495 . S
C247 H253 0.959 . S
C247 H254 0.961 . S
C247 H255 0.960 . S
C248 C246 1.381 . S
C248 C249 1.394 . S
C248 H256 0.930 . S
C249 C248 1.394 . S
C249 C250 1.383 . S
C249 H257 0.929 . S
C250 C249 1.383 . S
C250 C251 1.377 . S
C251 H235 0.930 . S
C251 C250 1.377 . S
C251 C252 1.379 . S
C252 H236 0.931 . S
C252 C246 1.383 . S
C252 C251 1.379 . S
H253 C247 0.959 . S
H254 C247 0.961 . S
H255 C247 0.960 . S
H256 C248 0.930 . S
H257 C249 0.929 . S
H258 C266 0.929 . S
H259 C268 0.930 . S
H260 C270 0.930 . S
H261 C273 0.929 . S
H262 C276 0.930 1_655 S
H263 C278 0.960 . S
H264 C278 0.960 . S
H265 C278 0.960 . S
C266 H258 0.929 . S
C266 C267 1.377 1_655 S
C266 C268 1.384 . S
C267 C266 1.377 1_455 S
C267 C273 1.390 . S
C268 H259 0.930 . S
C268 C266 1.384 . S
C268 C269 1.372 1_655 S
C269 C268 1.372 1_455 S
C269 C270 1.400 . S
C269 C274 1.490 . S
C270 H260 0.930 . S
C270 C269 1.400 . S
C270 C273 1.386 . S
H271 C287 0.930 . S
H272 C288 0.931 . S
C273 H261 0.929 . S
C273 C267 1.390 . S
C273 C270 1.386 . S
C274 C269 1.490 . S
C274 C276 1.395 . S
C274 C277 1.403 . S
H275 C281 0.930 . S
C276 H262 0.930 1_455 S
C276 C274 1.395 . S
C276 C279 1.403 . S
C277 C274 1.403 . S
C277 C278 1.524 . S
C277 C281 1.400 . S
C278 H263 0.960 . S
C278 H264 0.960 . S
C278 H265 0.960 . S
C278 C277 1.524 . S
C279 C276 1.403 . S
C279 C280 1.392 . S
C279 C283 1.495 1_455 S
C280 C279 1.392 . S
C280 C281 1.385 . S
C280 C282 1.478 . S
C281 H275 0.930 . S
C281 C277 1.400 . S
C281 C280 1.385 . S
C282 C280 1.478 . S
C282 C284 1.381 1_455 S
C282 C288 1.383 . S
C283 C279 1.495 1_655 S
C283 H289 0.959 . S
C283 H290 0.961 1_655 S
C283 H291 0.960 . S
C284 C282 1.381 1_655 S
C284 C285 1.394 . S
C284 H292 0.930 . S
C285 C284 1.394 . S
C285 C286 1.383 1_655 S
C285 H293 0.929 . S
C286 C285 1.383 1_455 S
C286 C287 1.377 . S
C287 H271 0.930 . S
C287 C286 1.377 . S
C287 C288 1.379 . S
C288 H272 0.931 . S
C288 C282 1.383 . S
C288 C287 1.379 . S
H289 C283 0.959 . S
H290 C283 0.961 1_455 S
H291 C283 0.960 . S
H292 C284 0.930 . S
H293 C285 0.929 . S
H294 C302 0.931 1_565 S
H295 C304 0.930 1_565 S
H296 C306 0.930 . S
H297 C309 0.929 . S
H298 C312 0.928 1_655 S
H299 C314 0.960 . S
H300 C314 0.962 . S
H301 C314 0.960 . S
C302 H294 0.931 1_545 S
C302 C303 1.376 1_655 S
C302 C304 1.384 . S
C303 C302 1.376 1_455 S
C303 C309 1.390 . S
C304 H295 0.930 1_545 S
C304 C302 1.384 . S
C304 C305 1.372 1_655 S
C305 C304 1.372 1_455 S
C305 C306 1.400 . S
C305 C310 1.490 . S
C306 H296 0.930 . S
C306 C305 1.400 . S
C306 C309 1.386 . S
H307 C323 0.930 . S
H308 C324 0.931 . S
C309 H297 0.929 . S
C309 C303 1.390 . S
C309 C306 1.386 . S
C310 C305 1.490 . S
C310 C312 1.395 . S
C310 C313 1.403 1_545 S
H311 C317 0.930 . S
C312 H298 0.928 1_455 S
C312 C310 1.395 . S
C312 C315 1.403 . S
C313 C310 1.403 1_565 S
C313 C314 1.524 . S
C313 C317 1.400 . S
C314 H299 0.960 . S
C314 H300 0.962 . S
C314 H301 0.960 . S
C314 C313 1.524 . S
C315 C312 1.403 . S
C315 C316 1.392 . S
C315 C319 1.495 1_455 S
C316 C315 1.392 . S
C316 C317 1.385 1_545 S
C316 C318 1.478 . S
C317 H311 0.930 . S
C317 C313 1.400 . S
C317 C316 1.385 1_565 S
C318 C316 1.478 . S
C318 C320 1.381 1_455 S
C318 C324 1.383 . S
C319 C315 1.495 1_655 S
C319 H325 0.959 . S
C319 H326 0.961 1_655 S
C319 H327 0.960 . S
C320 C318 1.381 1_655 S
C320 C321 1.394 . S
C320 H328 0.930 . S
C321 C320 1.394 . S
C321 C322 1.383 1_655 S
C321 H329 0.929 1_545 S
C322 C321 1.383 1_455 S
C322 C323 1.377 . S
C323 H307 0.930 . S
C323 C322 1.377 . S
C323 C324 1.379 . S
C324 H308 0.931 . S
C324 C318 1.383 . S
C324 C323 1.379 . S
H325 C319 0.959 . S
H326 C319 0.961 1_455 S
H327 C319 0.960 . S
H328 C320 0.930 . S
H329 C321 0.929 1_565 S
H330 C338 0.929 . S
H331 C340 0.930 . S
H332 C342 0.930 . S
H333 C345 0.929 . S
H334 C348 0.930 . S
H335 C350 0.959 . S
H336 C350 0.954 1_545 S
H337 C350 0.965 . S
C338 H330 0.929 . S
C338 C339 1.377 . S
C338 C340 1.384 . S
C339 C338 1.377 . S
C339 C345 1.390 1_445 S
C340 H331 0.930 . S
C340 C338 1.384 . S
C340 C341 1.372 . S
C341 C340 1.372 . S
C341 C342 1.400 1_445 S
C341 C346 1.490 . S
C342 H332 0.930 . S
C342 C341 1.400 1_665 S
C342 C345 1.386 . S
H343 C359 0.930 . S
H344 C360 0.931 1_655 S
C345 H333 0.929 . S
C345 C339 1.390 1_665 S
C345 C342 1.386 . S
C346 C341 1.490 . S
C346 C348 1.395 . S
C346 C349 1.403 1_455 S
H347 C353 0.930 . S
C348 H334 0.930 . S
C348 C346 1.395 . S
C348 C351 1.403 . S
C349 C346 1.403 1_655 S
C349 C350 1.526 1_545 S
C349 C353 1.400 . S
C350 H335 0.959 . S
C350 H336 0.954 1_565 S
C350 H337 0.965 . S
C350 C349 1.526 1_565 S
C351 C348 1.403 . S
C351 C352 1.392 . S
C351 C355 1.495 . S
C352 C351 1.392 . S
C352 C353 1.385 1_455 S
C352 C354 1.478 . S
C353 H347 0.930 . S
C353 C349 1.400 . S
C353 C352 1.385 1_655 S
C354 C352 1.478 . S
C354 C356 1.381 . S
C354 C360 1.383 1_545 S
C355 C351 1.495 . S
C355 H361 0.959 . S
C355 H362 0.961 . S
C355 H363 0.960 . S
C356 C354 1.381 . S
C356 C357 1.394 . S
C356 H364 0.930 . S
C357 C356 1.394 . S
C357 C358 1.383 . S
C357 H365 0.929 . S
C358 C357 1.383 . S
C358 C359 1.376 1_445 S
C359 H343 0.930 . S
C359 C358 1.376 1_665 S
C359 C360 1.379 1_655 S
C360 H344 0.931 1_455 S
C360 C354 1.383 1_565 S
C360 C359 1.379 1_455 S
H361 C355 0.959 . S
H362 C355 0.961 . S
H363 C355 0.960 . S
H364 C356 0.930 . S
H365 C357 0.929 . S
H366 C374 0.929 . S
H367 C376 0.930 . S
H368 C378 0.930 . S
H369 C381 0.929 . S
H370 C384 0.930 . S
H371 C386 0.960 . S
H372 C386 0.960 . S
H373 C386 0.960 . S
C374 H366 0.929 . S
C374 C375 1.377 1_565 S
C374 C376 1.384 . S
C375 C374 1.377 1_545 S
C375 C381 1.390 1_455 S
C376 H367 0.930 . S
C376 C374 1.384 . S
C376 C377 1.372 1_565 S
C377 C376 1.372 1_545 S
C377 C378 1.400 1_455 S
C377 C382 1.490 . S
C378 H368 0.930 . S
C378 C377 1.400 1_655 S
C378 C381 1.386 . S
H379 C395 0.930 . S
H380 C396 0.935 . S
C381 H369 0.929 . S
C381 C375 1.390 1_655 S
C381 C378 1.386 . S
C382 C377 1.490 . S
C382 C384 1.395 . S
C382 C385 1.403 1_445 S
H383 C389 0.930 . S
C384 H370 0.930 . S
C384 C382 1.395 . S
C384 C387 1.403 . S
C385 C382 1.403 1_665 S
C385 C386 1.524 . S
C385 C389 1.400 . S
C386 H371 0.960 . S
C386 H372 0.960 . S
C386 H373 0.960 . S
C386 C385 1.524 . S
C387 C384 1.403 . S
C387 C388 1.392 . S
C387 C391 1.495 . S
C388 C387 1.392 . S
C388 C389 1.385 1_445 S
C388 C390 1.478 . S
C389 H383 0.930 . S
C389 C385 1.400 . S
C389 C388 1.385 1_665 S
C390 C388 1.478 . S
C390 C392 1.381 1_545 S
C390 C396 1.378 1_455 S
C391 C387 1.495 . S
C391 H397 0.959 . S
C391 H398 0.961 . S
C391 H399 0.960 . S
C392 C390 1.381 1_565 S
C392 C393 1.394 . S
C392 H400 0.930 . S
C393 C392 1.394 . S
C393 C394 1.383 1_565 S
C393 H401 0.929 . S
C394 C393 1.383 1_545 S
C394 C395 1.377 1_455 S
C395 H379 0.930 . S
C395 C394 1.377 1_655 S
C395 C396 1.380 . S
C396 H380 0.935 . S
C396 C390 1.378 1_655 S
C396 C395 1.380 . S
H397 C391 0.959 . S
H398 C391 0.961 . S
H399 C391 0.960 . S
H400 C392 0.930 . S
H401 C393 0.929 . S
H402 C410 0.929 . S
H403 C412 0.930 . S
H404 C414 0.930 . S
H405 C417 0.929 . S
H406 C420 0.930 . S
H407 C422 0.960 . S
H408 C422 0.960 . S
H409 C422 0.960 . S
C410 H402 0.929 . S
C410 C411 1.377 1_565 S
C410 C412 1.384 . S
C411 C410 1.377 1_545 S
C411 C417 1.390 . S
C412 H403 0.930 . S
C412 C410 1.384 . S
C412 C413 1.372 1_565 S
C413 C412 1.372 1_545 S
C413 C414 1.400 . S
C413 C418 1.490 . S
C414 H404 0.930 . S
C414 C413 1.400 . S
C414 C417 1.386 . S
H415 C431 0.930 . S
H416 C432 0.931 . S
C417 H405 0.929 . S
C417 C411 1.390 . S
C417 C414 1.386 . S
C418 C413 1.490 . S
C418 C420 1.395 1_445 S
C418 C421 1.403 . S
H419 C425 0.930 . S
C420 H406 0.930 . S
C420 C418 1.395 1_665 S
C420 C423 1.403 1_554 S
C421 C418 1.403 . S
C421 C422 1.524 . S
C421 C425 1.400 1_554 S
C422 H407 0.960 . S
C422 H408 0.960 . S
C422 H409 0.960 . S
C422 C421 1.524 . S
C423 C420 1.403 1_556 S
C423 C424 1.392 1_565 S
C423 C427 1.495 . S
C424 C423 1.392 1_545 S
C424 C425 1.385 1_655 S
C424 C426 1.478 . S
C425 H419 0.930 . S
C425 C421 1.400 1_556 S
C425 C424 1.385 1_455 S
C426 C424 1.478 . S
C426 C428 1.381 1_645 S
C426 C432 1.383 . S
C427 C423 1.495 . S
C427 H433 0.959 . S
C427 H434 0.961 . S
C427 H435 0.960 . S
C428 C426 1.381 1_465 S
C428 C429 1.394 . S
C428 H436 0.930 . S
C429 C428 1.394 . S
C429 C430 1.378 1_465 S
C429 H437 0.929 . S
C430 C429 1.378 1_645 S
C430 C431 1.382 . S
C431 H415 0.930 . S
C431 C430 1.382 . S
C431 C432 1.379 . S
C432 H416 0.931 . S
C432 C426 1.383 . S
C432 C431 1.379 . S
H433 C427 0.959 . S
H434 C427 0.961 . S
H435 C427 0.960 . S
H436 C428 0.930 . S
H437 C429 0.929 . S
H438 C446 0.929 . S
H439 C448 0.930 . S
H440 C450 0.930 . S
H441 C453 0.929 . S
H442 C456 0.930 . S
H443 C458 0.960 . S
H444 C458 0.960 . S
H445 C458 0.960 1_455 S
C446 H438 0.929 . S
C446 C447 1.377 1_665 S
C446 C448 1.384 . S
C447 C446 1.377 1_445 S
C447 C453 1.390 . S
C448 H439 0.930 . S
C448 C446 1.384 . S
C448 C449 1.372 1_665 S
C449 C448 1.372 1_445 S
C449 C450 1.400 . S
C449 C454 1.490 . S
C450 H440 0.930 . S
C450 C449 1.400 . S
C450 C453 1.386 . S
H451 C467 0.930 . S
H452 C468 0.931 . S
C453 H441 0.929 . S
C453 C447 1.390 . S
C453 C450 1.386 . S
C454 C449 1.490 . S
C454 C456 1.395 1_545 S
C454 C457 1.403 . S
H455 C461 0.930 1_655 S
C456 H442 0.930 . S
C456 C454 1.395 1_565 S
C456 C459 1.403 . S
C457 C454 1.403 . S
C457 C458 1.524 1_455 S
C457 C461 1.400 . S
C458 H443 0.960 . S
C458 H444 0.960 . S
C458 H445 0.960 1_655 S
C458 C457 1.524 1_655 S
C459 C456 1.403 . S
C459 C460 1.392 1_565 S
C459 C463 1.495 . S
C460 C459 1.392 1_545 S
C460 C461 1.385 . S
C460 C462 1.478 . S
C461 H455 0.930 1_455 S
C461 C457 1.400 . S
C461 C460 1.385 . S
C462 C460 1.478 . S
C462 C464 1.381 1_545 S
C462 C468 1.383 . S
C463 C459 1.495 . S
C463 H469 0.959 . S
C463 H470 0.961 . S
C463 H471 0.960 . S
C464 C462 1.381 1_565 S
C464 C465 1.394 . S
C464 H472 0.930 1_455 S
C465 C464 1.394 . S
C465 C466 1.383 1_565 S
C465 H473 0.929 1_455 S
C466 C465 1.383 1_545 S
C466 C467 1.377 . S
C467 H451 0.930 . S
C467 C466 1.377 . S
C467 C468 1.379 . S
C468 H452 0.931 . S
C468 C462 1.383 . S
C468 C467 1.379 . S
H469 C463 0.959 . S
H470 C463 0.961 . S
H471 C463 0.960 . S
H472 C464 0.930 1_655 S
H473 C465 0.929 1_655 S
H474 C482 0.929 . S
H475 C484 0.930 . S
H476 C486 0.930 . S
H477 C489 0.929 . S
H478 C492 0.930 . S
H479 C494 0.960 . S
H480 C494 0.960 1_655 S
H481 C494 0.960 . S
C482 H474 0.929 . S
C482 C483 1.377 1_665 S
C482 C484 1.384 . S
C483 C482 1.377 1_445 S
C483 C489 1.390 . S
C484 H475 0.930 . S
C484 C482 1.384 . S
C484 C485 1.372 1_665 S
C485 C484 1.372 1_445 S
C485 C486 1.400 . S
C485 C490 1.490 . S
C486 H476 0.930 . S
C486 C485 1.400 . S
C486 C489 1.386 . S
H487 C503 0.930 . S
H488 C504 0.931 . S
C489 H477 0.929 . S
C489 C483 1.390 . S
C489 C486 1.386 . S
C490 C485 1.490 . S
C490 C492 1.395 1_545 S
C490 C493 1.403 . S
H491 C497 0.930 . S
C492 H478 0.930 . S
C492 C490 1.395 1_565 S
C492 C495 1.403 . S
C493 C490 1.403 . S
C493 C494 1.524 . S
C493 C497 1.400 . S
C494 H479 0.960 . S
C494 H480 0.960 1_455 S
C494 H481 0.960 . S
C494 C493 1.524 . S
C495 C492 1.403 . S
C495 C496 1.392 1_565 S
C495 C499 1.495 . S
C496 C495 1.392 1_545 S
C496 C497 1.385 . S
C496 C498 1.478 . S
C497 H491 0.930 . S
C497 C493 1.400 . S
C497 C496 1.385 . S
C498 C496 1.478 . S
C498 C500 1.381 1_445 S
C498 C504 1.383 . S
C499 C495 1.495 . S
C499 H505 0.959 . S
C499 H506 0.961 . S
C499 H507 0.960 1_455 S
C500 C498 1.381 1_665 S
C500 C501 1.394 . S
C500 H508 0.930 . S
C501 C500 1.394 . S
C501 C502 1.383 1_665 S
C501 H509 0.929 . S
C502 C501 1.383 1_445 S
C502 C503 1.377 . S
C503 H487 0.930 . S
C503 C502 1.377 . S
C503 C504 1.379 . S
C504 H488 0.931 . S
C504 C498 1.383 . S
C504 C503 1.379 . S
H505 C499 0.959 . S
H506 C499 0.961 . S
H507 C499 0.960 1_655 S
H508 C500 0.930 . S
H509 C501 0.929 . S
C87 C1 1.493 . S
C106 C3 1.497 . S
C123 C16 1.489 . S
C142 C14 1.498 . S
C159 C27 1.493 . S
C178 C29 1.473 . S
C195 C40 1.495 . S
C214 C42 1.489 . S
C231 C53 1.494 . S
C250 C55 1.477 . S
C267 C66 1.494 . S
C286 C68 1.490 . S
C303 C70 1.491 . S
C322 C5 1.486 . S
C339 C44 1.493 . S
C358 C18 1.486 . S
C375 C31 1.490 . S
C394 C57 1.481 . S
C411 C10 1.491 . S
C430 C62 1.491 1_655 S
C447 C75 1.495 . S
C466 C23 1.488 . S
C483 C49 1.495 . S
C502 C36 1.481 . S
