# Generated by pormake.
# Topology smt, (6)-cn, num edge types: 1
# Building blocks:
#     Node 0, Type 0, BuildingBlock: UKALOJ_clean_sbu_0, # of connection points: 6
#     Node 1, Type 0, BuildingBlock: UKALOJ_clean_sbu_0, # of connection points: 6
#     Node 2, Type 0, BuildingBlock: UKALOJ_clean_sbu_0, # of connection points: 6
#     Node 3, Type 0, BuildingBlock: UKALOJ_clean_sbu_0, # of connection points: 6
#     Node 4, Type 0, BuildingBlock: UKALOJ_clean_sbu_0, # of connection points: 6
#     Node 5, Type 0, BuildingBlock: UKALOJ_clean_sbu_0, # of connection points: 6
#     Edge 6, Type (0, 0), BuildingBlock: ZUJKAS_clean_linker_0, # of connection points: 2
#     Edge 7, Type (0, 0), BuildingBlock: ZUJKAS_clean_linker_0, # of connection points: 2
#     Edge 8, Type (0, 0), BuildingBlock: ZUJKAS_clean_linker_0, # of connection points: 2
#     Edge 9, Type (0, 0), BuildingBlock: ZUJKAS_clean_linker_0, # of connection points: 2
#     Edge 10, Type (0, 0), BuildingBlock: ZUJKAS_clean_linker_0, # of connection points: 2
#     Edge 11, Type (0, 0), BuildingBlock: ZUJKAS_clean_linker_0, # of connection points: 2
#     Edge 12, Type (0, 0), BuildingBlock: ZUJKAS_clean_linker_0, # of connection points: 2
#     Edge 13, Type (0, 0), BuildingBlock: ZUJKAS_clean_linker_0, # of connection points: 2
#     Edge 14, Type (0, 0), BuildingBlock: ZUJKAS_clean_linker_0, # of connection points: 2
#     Edge 15, Type (0, 0), BuildingBlock: ZUJKAS_clean_linker_0, # of connection points: 2
#     Edge 16, Type (0, 0), BuildingBlock: ZUJKAS_clean_linker_0, # of connection points: 2
#     Edge 17, Type (0, 0), BuildingBlock: ZUJKAS_clean_linker_0, # of connection points: 2
#     Edge 18, Type (0, 0), BuildingBlock: ZUJKAS_clean_linker_0, # of connection points: 2
#     Edge 19, Type (0, 0), BuildingBlock: ZUJKAS_clean_linker_0, # of connection points: 2
#     Edge 20, Type (0, 0), BuildingBlock: ZUJKAS_clean_linker_0, # of connection points: 2
#     Edge 21, Type (0, 0), BuildingBlock: ZUJKAS_clean_linker_0, # of connection points: 2
#     Edge 22, Type (0, 0), BuildingBlock: ZUJKAS_clean_linker_0, # of connection points: 2
#     Edge 23, Type (0, 0), BuildingBlock: ZUJKAS_clean_linker_0, # of connection points: 2
# Relax obj value: 0.347
# Max RMSD: 0.282
# Mean RMSD: 0.282
data_MOF--net-smt--node1-UKALOJ_clean_sbu_0--edge1-ZUJKAS_clean_linker_0
_symmetry_space_group_name_H-M    P1
_symmetry_Int_Tables_number       1
_symmetry_cell_setting            triclinic
loop_
_symmetry_equiv_pos_as_xyz
'x, y, z'
_cell_length_a     48.233158
_cell_length_b     48.25906
_cell_length_c     31.815787
_cell_angle_alpha  90.018459
_cell_angle_beta   89.88465
_cell_angle_gamma 120.03114
loop_
_atom_site_label
_atom_site_type_symbol
_atom_site_fract_x
_atom_site_fract_y
_atom_site_fract_z
_atom_type_partial_charge
Zn0 Zn 0.48039 0.12224 0.00526 0.0
O1 O 0.46533 0.08458 0.04909 0.0
C2 C 0.41334 0.09533 0.98313 0.0
Zn3 Zn 0.45908 0.14474 0.0444 0.0
C4 C 0.45275 0.08606 0.08354 0.0
O5 O 0.44809 0.10935 0.09039 0.0
C6 C 0.48825 0.18132 0.96624 0.0
O7 O 0.50269 0.17496 0.07631 0.0
O8 O 0.52207 0.14975 0.04005 0.0
N9 N 0.43481 0.16161 0.07836 0.0
C10 C 0.43664 0.19036 0.07847 0.0
C11 C 0.39413 0.15809 0.11162 0.0
N12 N 0.40856 0.14165 0.09941 0.0
N13 N 0.41125 0.18869 0.09866 0.0
C14 C 0.4951 0.07887 0.94822 0.0
C15 C 0.54534 0.10875 0.93857 0.0
N16 N 0.5046 0.1055 0.97127 0.0
N17 N 0.53587 0.1239 0.96551 0.0
N18 N 0.52017 0.08048 0.92716 0.0
H19 H 0.44992 0.04829 0.97868 0.0
H20 H 0.46199 0.02841 0.94063 0.0
H21 H 0.4477 0.05446 0.92324 0.0
C22 C 0.46174 0.05079 0.94787 0.0
C23 C 0.46363 0.22032 0.06 0.0
H24 H 0.48614 0.21939 0.06018 0.0
H25 H 0.46712 0.24155 0.07797 0.0
H26 H 0.45774 0.22301 0.02719 0.0
O27 O 0.47109 0.18019 -0.00275 0.0
O28 O 0.49571 0.15974 0.96218 0.0
C29 C 0.52589 0.17055 0.06733 0.0
O30 O 0.43829 0.09515 0.97084 0.0
O31 O 0.41547 0.11365 0.01315 0.0
Zn32 Zn 0.35329 0.48509 0.15539 0.0
O33 O 0.38213 0.47392 0.19352 0.0
C34 C 0.32008 0.4199 0.12284 0.0
Zn35 Zn 0.31089 0.4547 0.19536 0.0
C36 C 0.36961 0.45508 0.22457 0.0
O37 O 0.33988 0.44304 0.23196 0.0
C38 C 0.29563 0.48662 0.12717 0.0
O39 O 0.32105 0.49285 0.23757 0.0
O40 O 0.36192 0.52228 0.19621 0.0
N41 N 0.27184 0.42283 0.2293 0.0
C42 C 0.24357 0.42112 0.23695 0.0
C43 C 0.23943 0.37727 0.25788 0.0
N44 N 0.26931 0.39566 0.24268 0.0
N45 N 0.2227 0.39263 0.25432 0.0
C46 C 0.41376 0.51372 0.09786 0.0
C47 C 0.42091 0.56039 0.08648 0.0
N48 N 0.39188 0.51665 0.12083 0.0
N49 N 0.39663 0.54579 0.1141 0.0
N50 N 0.43222 0.54086 0.07597 0.0
H51 H 0.40222 0.46677 0.12002 0.0
H52 H 0.43989 0.48833 0.09317 0.0
H53 H 0.40356 0.47163 0.0635 0.0
C54 C 0.41486 0.48333 0.09366 0.0
C55 C 0.23684 0.44777 0.22895 0.0
H56 H 0.25914 0.47131 0.23079 0.0
H57 H 0.21918 0.44699 0.25205 0.0
H58 H 0.22657 0.44492 0.19708 0.0
O59 O 0.28274 0.4677 0.15804 0.0
O60 O 0.32478 0.49661 0.11842 0.0
C61 C 0.34543 0.51973 0.22863 0.0
O62 O 0.34395 0.44726 0.11496 0.0
O63 O 0.30193 0.41673 0.15367 0.0
Zn64 Zn 0.87182 0.35158 0.34148 0.0
O65 O 0.90689 0.37831 0.38724 0.0
C66 C 0.90555 0.31764 0.31944 0.0
Zn67 Zn 0.85354 0.30776 0.38079 0.0
C68 C 0.90883 0.36432 0.42004 0.0
O69 O 0.88958 0.33456 0.42489 0.0
C70 C 0.81578 0.29597 0.30263 0.0
O71 O 0.82159 0.31768 0.41512 0.0
O72 O 0.83901 0.35985 0.37428 0.0
N73 N 0.84106 0.26724 0.41487 0.0
C74 C 0.81364 0.23893 0.41718 0.0
C75 C 0.84943 0.23347 0.44904 0.0
N76 N 0.86321 0.26387 0.43502 0.0
N77 N 0.81836 0.21725 0.43794 0.0
C78 C 0.91094 0.41274 0.28657 0.0
C79 C 0.8752 0.42507 0.27293 0.0
N80 N 0.88403 0.3916 0.30687 0.0
N81 N 0.86194 0.39944 0.29852 0.0
N82 N 0.90592 0.43386 0.26475 0.0
H83 H 0.94445 0.40443 0.32114 0.0
H84 H 0.96259 0.43833 0.28568 0.0
H85 H 0.9437 0.39812 0.26539 0.0
C86 C 0.94232 0.41359 0.29008 0.0
C87 C 0.78206 0.23285 0.4006 0.0
H88 H 0.78089 0.25521 0.40045 0.0
H89 H 0.76214 0.21451 0.41994 0.0
H90 H 0.77913 0.22368 0.36804 0.0
O91 O 0.81725 0.2819 0.33559 0.0
O92 O 0.83659 0.3251 0.29665 0.0
C93 C 0.82098 0.34268 0.40395 0.0
O94 O 0.90454 0.34257 0.30933 0.0
O95 O 0.88631 0.29889 0.34716 0.0
Zn96 Zn 0.5085 0.86427 0.50012 0.0
O97 O 0.51649 0.90185 0.5412 0.0
C98 C 0.57621 0.89676 0.47906 0.0
Zn99 Zn 0.53333 0.84787 0.54361 0.0
C100 C 0.53182 0.90524 0.57504 0.0
O101 O 0.54196 0.88611 0.58328 0.0
C102 C 0.50783 0.8057 0.46937 0.0
O103 O 0.49082 0.81769 0.57861 0.0
O104 O 0.46737 0.83419 0.53421 0.0
N105 N 0.56121 0.83782 0.58189 0.0
C106 C 0.56316 0.81115 0.58683 0.0
C107 C 0.60395 0.84906 0.61686 0.0
N108 N 0.58641 0.86129 0.60107 0.0
N109 N 0.58982 0.81761 0.6082 0.0
C110 C 0.48644 0.90025 0.43961 0.0
C111 C 0.44048 0.86212 0.42175 0.0
N112 N 0.48119 0.87403 0.46113 0.0
N113 N 0.45259 0.85045 0.45014 0.0
N114 N 0.46125 0.89331 0.41425 0.0
H115 H 0.5258 0.9351 0.47699 0.0
H116 H 0.50948 0.9518 0.44043 0.0
H117 H 0.534 0.93571 0.42206 0.0
C118 C 0.51549 0.93264 0.44525 0.0
C119 C 0.53921 0.77874 0.57073 0.0
H120 H 0.53825 0.75984 0.59158 0.0
H121 H 0.54683 0.77549 0.53912 0.0
H122 H 0.51508 0.77619 0.56883 0.0
O123 O 0.5235 0.80921 0.50288 0.0
O124 O 0.49973 0.8262 0.46009 0.0
C125 C 0.46574 0.81763 0.56608 0.0
O126 O 0.55029 0.89492 0.46685 0.0
O127 O 0.57546 0.87905 0.50913 0.0
Zn128 Zn 0.63428 0.51242 0.6589 0.0
O129 O 0.60683 0.52428 0.69888 0.0
C130 C 0.67196 0.5795 0.63377 0.0
Zn131 Zn 0.67685 0.53764 0.70015 0.0
C132 C 0.61974 0.5401 0.73212 0.0
O133 O 0.64875 0.54867 0.74004 0.0
C134 C 0.69021 0.508 0.62743 0.0
O135 O 0.66429 0.49618 0.7366 0.0
O136 O 0.62197 0.47211 0.696 0.0
N137 N 0.71566 0.56558 0.7368 0.0
C138 C 0.74394 0.56679 0.7417 0.0
C139 C 0.74788 0.6082 0.77136 0.0
N140 N 0.71805 0.59118 0.75565 0.0
N141 N 0.76467 0.59348 0.76274 0.0
C142 C 0.57744 0.49191 0.5971 0.0
C143 C 0.5624 0.44262 0.58779 0.0
N144 N 0.59556 0.48491 0.62213 0.0
N145 N 0.586 0.45421 0.61655 0.0
N146 N 0.55668 0.46587 0.57498 0.0
H147 H 0.58692 0.53608 0.62639 0.0
H148 H 0.55538 0.52071 0.5874 0.0
H149 H 0.59652 0.53874 0.57125 0.0
C150 C 0.57907 0.5237 0.59569 0.0
C151 C 0.75093 0.54141 0.72722 0.0
H152 H 0.72875 0.51767 0.72705 0.0
H153 H 0.76896 0.54052 0.74794 0.0
H154 H 0.76088 0.5472 0.69496 0.0
O155 O 0.70392 0.52537 0.6593 0.0
O156 O 0.66137 0.49997 0.61962 0.0
C157 C 0.63825 0.47116 0.7267 0.0
O158 O 0.64732 0.55362 0.62266 0.0
O159 O 0.68868 0.57905 0.66426 0.0
Zn160 Zn 0.11542 0.64074 0.84165 0.0
O161 O 0.07876 0.61659 0.88634 0.0
C162 C 0.08424 0.67569 0.81309 0.0
Zn163 Zn 0.13472 0.68636 0.87696 0.0
C164 C 0.07776 0.63181 0.91837 0.0
O165 O 0.09816 0.66141 0.92197 0.0
C166 C 0.17349 0.69371 0.80134 0.0
O167 O 0.16583 0.67713 0.91388 0.0
O168 O 0.146 0.63215 0.87843 0.0
N169 N 0.1474 0.72795 0.90786 0.0
C170 C 0.17512 0.75596 0.91031 0.0
C171 C 0.13902 0.76273 0.93917 0.0
N172 N 0.12506 0.73215 0.92605 0.0
N173 N 0.17041 0.7783 0.92938 0.0
C174 C 0.07631 0.57895 0.78848 0.0
C175 C 0.11028 0.56335 0.78085 0.0
N176 N 0.10259 0.5992 0.81042 0.0
N177 N 0.12355 0.58929 0.80591 0.0
N178 N 0.08066 0.55644 0.76938 0.0
H179 H 0.04273 0.59034 0.81712 0.0
H180 H 0.02504 0.55616 0.78214 0.0
H181 H 0.0473 0.59599 0.76105 0.0
C182 C 0.046 0.58035 0.78735 0.0
C183 C 0.20686 0.76074 0.89609 0.0
H184 H 0.20729 0.73804 0.89838 0.0
H185 H 0.22655 0.77935 0.91534 0.0
H186 H 0.21092 0.76862 0.86283 0.0
O187 O 0.17165 0.71023 0.83123 0.0
O188 O 0.15234 0.66441 0.79817 0.0
C189 C 0.1648 0.65075 0.90643 0.0
O190 O 0.08499 0.6503 0.80515 0.0
O191 O 0.10284 0.6948 0.84089 0.0
H192 H 0.35515 0.07667 0.019 0.0
H193 H 0.30562 0.02631 0.00608 0.0
H194 H 0.3502 0.00664 0.90164 0.0
H195 H 0.39975 0.05711 0.91394 0.0
H196 H 0.27834 0.98572 0.89559 0.0
H197 H 0.3176 0.94659 0.03735 0.0
H198 H 0.3152 0.98253 0.0413 0.0
H199 H 0.34476 0.9818 0.00777 0.0
C200 C 0.35412 0.0622 0.99237 0.0
C201 C 0.3816 0.07041 0.96811 0.0
C202 C 0.32582 0.03342 0.98514 0.0
C203 C 0.32463 0.01269 0.95344 0.0
C204 C 0.35086 0.02236 0.92642 0.0
H205 H 0.21332 0.81864 0.87214 0.0
H206 H 0.24832 0.87632 0.87925 0.0
C207 C 0.37919 0.05109 0.93367 0.0
C208 C 0.29837 0.97917 0.95252 0.0
H209 H 0.27218 0.90767 0.0021 0.0
C210 C 0.27666 0.96863 0.91903 0.0
C211 C 0.29645 0.95713 0.98326 0.0
C212 C 0.31977 0.96734 0.01942 0.0
C213 C 0.25308 0.93625 0.91522 0.0
C214 C 0.25195 0.91396 0.94511 0.0
C215 C 0.27314 0.9248 0.97924 0.0
C216 C 0.23028 0.87906 0.94056 0.0
C217 C 0.22963 0.9263 0.87932 0.0
C218 C 0.20935 0.86127 0.97331 0.0
C219 C 0.19009 0.82808 0.96984 0.0
C220 C 0.19171 0.81214 0.93381 0.0
C221 C 0.2125 0.83005 0.90097 0.0
C222 C 0.2319 0.86316 0.90454 0.0
H223 H 0.22672 0.94654 0.86833 0.0
H224 H 0.2388 0.91849 0.85249 0.0
H225 H 0.20578 0.90613 0.88846 0.0
H226 H 0.2079 0.87308 0.00151 0.0
H227 H 0.17392 0.81478 0.99529 0.0
H228 H 0.35497 0.41794 0.05637 0.0
H229 H 0.36362 0.37355 0.03923 0.0
H230 H 0.28943 0.31305 0.12677 0.0
H231 H 0.28055 0.35722 0.14411 0.0
H232 H 0.38401 0.35192 0.10884 0.0
H233 H 0.27943 0.25133 0.02983 0.0
H234 H 0.28731 0.29209 0.02792 0.0
H235 H 0.26984 0.26817 0.07411 0.0
C236 C 0.33969 0.39489 0.07088 0.0
C237 C 0.31763 0.39131 0.10235 0.0
C238 C 0.34463 0.36954 0.06096 0.0
C239 C 0.32731 0.34017 0.08196 0.0
C240 C 0.30281 0.33545 0.1099 0.0
H241 H 0.3895 0.20881 0.16296 0.0
H242 H 0.36782 0.24541 0.15839 0.0
C243 C 0.29785 0.36082 0.11988 0.0
C244 C 0.33906 0.31721 0.08129 0.0
H245 H 0.31775 0.23972 0.06032 0.0
C246 C 0.36965 0.32747 0.09783 0.0
C247 C 0.32012 0.28536 0.06723 0.0
C248 C 0.28742 0.27353 0.04843 0.0
C249 C 0.38166 0.30653 0.1013 0.0
C250 C 0.36249 0.27453 0.0881 0.0
C251 C 0.33214 0.2643 0.0708 0.0
C252 C 0.37426 0.25174 0.09104 0.0
C253 C 0.41475 0.31863 0.11903 0.0
C254 C 0.38473 0.24334 0.0547 0.0
C255 C 0.39732 0.22296 0.05741 0.0
C256 C 0.39959 0.21072 0.09649 0.0
C257 C 0.38839 0.21852 0.13274 0.0
C258 C 0.37599 0.23917 0.13009 0.0
H259 H 0.4281 0.34507 0.12275 0.0
H260 H 0.41277 0.30759 0.15031 0.0
H261 H 0.42876 0.3116 0.09832 0.0
H262 H 0.38338 0.25276 0.02434 0.0
H263 H 0.40472 0.21625 0.02888 0.0
H264 H 0.92305 0.27543 0.34878 0.0
H265 H 0.97365 0.27681 0.3352 0.0
H266 H -0.00105 0.35139 0.24337 0.0
H267 H 0.94844 0.35027 0.25661 0.0
H268 H 0.01464 0.29412 0.22879 0.0
H269 H 0.05722 0.36729 0.3752 0.0
H270 H 0.01871 0.33116 0.37495 0.0
H271 H 0.0246 0.36503 0.34476 0.0
C272 C 0.93893 0.29152 0.32481 0.0
C273 C 0.93201 0.31317 0.30424 0.0
C274 C 0.96781 0.29225 0.31719 0.0
C275 C 0.98994 0.3144 0.28866 0.0
C276 C 0.98203 0.33418 0.26557 0.0
H277 H 0.18044 0.39442 0.2005 0.0
H278 H 0.12293 0.37092 0.21078 0.0
C279 C 0.95324 0.33359 0.2733 0.0
C280 C 0.02287 0.31999 0.28679 0.0
H281 H 0.09517 0.3618 0.33559 0.0
C282 C 0.03225 0.30857 0.2523 0.0
C283 C 0.0455 0.3386 0.31781 0.0
C284 C 0.03628 0.35142 0.35534 0.0
C285 C 0.06419 0.31605 0.24746 0.0
C286 C 0.08727 0.33618 0.27733 0.0
C287 C 0.07747 0.34644 0.31272 0.0
C288 C 0.122 0.34926 0.27076 0.0
C289 C 0.07291 0.30249 0.21031 0.0
C290 C 0.1408 0.34577 0.30166 0.0
C291 C 0.17397 0.36012 0.29634 0.0
C292 C 0.18878 0.37853 0.2604 0.0
C293 C 0.16983 0.38152 0.22929 0.0
C294 C 0.13683 0.36737 0.23466 0.0
H295 H 0.05211 0.27952 0.19979 0.0
H296 H 0.08021 0.31958 0.18367 0.0
H297 H 0.09305 0.29839 0.21781 0.0
H298 H 0.12982 0.33205 0.3299 0.0
H299 H 0.18815 0.35719 0.32039 0.0
H300 H 0.80852 0.18058 0.50631 0.0
H301 H 0.77387 0.1221 0.51112 0.0
H302 H 0.74777 0.11918 0.38088 0.0
H303 H 0.78304 0.17703 0.37579 0.0
H304 H 0.70868 0.08793 0.4978 0.0
H305 H 0.77049 0.04865 0.3863 0.0
H306 H 0.78921 0.08874 0.40744 0.0
H307 H 0.76192 0.07767 0.36392 0.0
C308 C 0.79536 0.16725 0.47886 0.0
C309 C 0.79761 0.18324 0.44108 0.0
C310 C 0.77574 0.13401 0.48153 0.0
C311 C 0.75859 0.11631 0.44619 0.0
C312 C 0.76118 0.13229 0.40832 0.0
H313 H 0.58674 0.93894 0.41533 0.0
H314 H 0.63515 0.99076 0.40469 0.0
C315 C 0.78074 0.16542 0.40569 0.0
C316 C 0.73622 0.08146 0.44944 0.0
H317 H 0.71614 0.00956 0.40416 0.0
C318 C 0.71059 0.07075 0.47779 0.0
C319 C 0.73883 0.05911 0.42329 0.0
C320 C 0.76679 0.06906 0.39381 0.0
C321 C 0.68678 0.03845 0.47953 0.0
C322 C 0.68871 0.0164 0.45221 0.0
C323 C 0.71477 0.02675 0.42476 0.0
C324 C 0.66287 0.98272 0.45137 0.0
C325 C 0.65914 0.02804 0.50975 0.0
C326 C 0.6632 0.9607 0.47971 0.0
C327 C 0.63558 0.93107 0.48596 0.0
C328 C 0.60723 0.9233 0.46413 0.0
C329 C 0.60804 0.94434 0.43295 0.0
C330 C 0.63568 0.97391 0.42672 0.0
H331 H 0.66175 0.04801 0.52991 0.0
H332 H 0.63641 0.01838 0.49191 0.0
H333 H 0.65725 0.00855 0.53027 0.0
H334 H 0.68408 0.96728 0.499 0.0
H335 H 0.63581 0.91538 0.51012 0.0
H336 H 0.60476 0.79331 0.54197 0.0
H337 H 0.6285 0.75876 0.54344 0.0
H338 H 0.63437 0.76597 0.67865 0.0
H339 H 0.61033 0.80068 0.67703 0.0
H340 H 0.68985 0.76936 0.58476 0.0
H341 H 0.57563 0.66745 0.64532 0.0
H342 H 0.57723 0.70167 0.6199 0.0
H343 H 0.59188 0.70511 0.67252 0.0
C344 C 0.61105 0.78735 0.57192 0.0
C345 C 0.60511 0.79872 0.60951 0.0
C346 C 0.62491 0.76804 0.57271 0.0
C347 C 0.63296 0.75979 0.61113 0.0
C348 C 0.62815 0.77209 0.64874 0.0
H349 H 0.71296 0.63923 0.66433 0.0
H350 H 0.7089 0.68706 0.65281 0.0
C351 C 0.61445 0.7917 0.64788 0.0
C352 C 0.64393 0.73626 0.61162 0.0
H353 H 0.61797 0.65777 0.63242 0.0
C354 C 0.67433 0.74499 0.59542 0.0
C355 C 0.6233 0.7045 0.62498 0.0
C356 C 0.59008 0.69384 0.64147 0.0
C357 C 0.68469 0.72253 0.59242 0.0
C358 C 0.66397 0.69078 0.60573 0.0
C359 C 0.63366 0.68218 0.62199 0.0
C360 C 0.67302 0.66579 0.60418 0.0
C361 C 0.7173 0.73256 0.57442 0.0
C362 C 0.65526 0.63857 0.5792 0.0
C363 C 0.65751 0.61117 0.58564 0.0
C364 C 0.67718 0.61047 0.61765 0.0
C365 C 0.69741 0.63889 0.63957 0.0
C366 C 0.6952 0.66633 0.63301 0.0
H367 H 0.72824 0.75646 0.55917 0.0
H368 H 0.73337 0.7336 0.60005 0.0
H369 H 0.71571 0.71472 0.55104 0.0
H370 H 0.63807 0.63783 0.55669 0.0
H371 H 0.64214 0.58993 0.56766 0.0
H372 H 0.06646 0.71857 0.83874 0.0
H373 H 0.01492 0.71505 0.82532 0.0
H374 H 0.99089 0.63857 0.73709 0.0
H375 H 0.04246 0.642 0.74992 0.0
H376 H 0.97257 0.70217 0.73228 0.0
H377 H 0.93404 0.61175 0.86108 0.0
H378 H 0.97391 0.64614 0.85942 0.0
H379 H 0.96274 0.61412 0.82272 0.0
C380 C 0.05075 0.70174 0.81535 0.0
C381 C 0.05815 0.67996 0.79613 0.0
C382 C 0.02134 0.69983 0.80776 0.0
C383 C -0.00077 0.67635 0.78064 0.0
C384 C 0.00782 0.65679 0.75821 0.0
H385 H 0.80618 0.59894 0.70209 0.0
H386 H 0.86413 0.6231 0.70856 0.0
C387 C 0.03718 0.65865 0.76579 0.0
C388 C 0.96559 0.66849 0.78117 0.0
H389 H 0.89391 0.61714 0.82685 0.0
C390 C 0.95531 0.68381 0.7531 0.0
C391 C 0.9435 0.64485 0.80887 0.0
C392 C 0.95387 0.62818 0.83994 0.0
C393 C 0.92292 0.67527 0.75119 0.0
C394 C 0.90051 0.65048 0.77757 0.0
C395 C 0.91116 0.63609 0.80669 0.0
C396 C 0.86564 0.63732 0.77344 0.0
C397 C 0.91296 0.69271 0.72091 0.0
C398 C 0.8472 0.63656 0.80812 0.0
C399 C 0.81392 0.62201 0.80469 0.0
C400 C 0.79869 0.60757 0.76682 0.0
C401 C 0.81725 0.60878 0.73208 0.0
C402 C 0.85041 0.62326 0.73546 0.0
H403 H 0.93324 0.71694 0.71344 0.0
H404 H 0.90495 0.67902 0.69109 0.0
H405 H 0.89286 0.69514 0.73378 0.0
H406 H 0.85857 0.64711 0.83779 0.0
H407 H 0.79997 0.62168 0.83159 0.0
H408 H 0.43343 0.02289 0.07339 0.0
H409 H 0.42464 0.98398 0.12871 0.0
H410 H 0.45016 0.05758 0.22246 0.0
H411 H 0.45662 0.09562 0.16765 0.0
H412 H 0.46443 0.98221 0.17709 0.0
H413 H 0.37634 0.98848 0.28065 0.0
H414 H 0.3855 0.00653 0.22916 0.0
H415 H 0.40965 0.02804 0.27398 0.0
C416 C 0.43646 0.03041 0.10596 0.0
C417 C 0.44548 0.06205 0.11647 0.0
C418 C 0.43146 0.00825 0.13751 0.0
C419 C 0.43611 0.0176 0.17997 0.0
C420 C 0.44514 0.04932 0.19026 0.0
H421 H 0.50691 0.94003 0.3644 0.0
H422 H 0.49829 0.96925 0.30885 0.0
C423 C 0.44918 0.07118 0.15886 0.0
C424 C 0.43479 0.99534 0.21308 0.0
H425 H 0.41112 0.97196 0.31424 0.0
C426 C 0.45221 0.97951 0.20676 0.0
C427 C 0.41828 0.99103 0.25155 0.0
C428 C 0.39611 0.00416 0.25893 0.0
C429 C 0.45487 0.96084 0.23844 0.0
C430 C 0.4412 0.95938 0.27838 0.0
C431 C 0.42238 0.97378 0.28403 0.0
C432 C 0.4466 0.94352 0.31481 0.0
C433 C 0.47208 0.94273 0.22836 0.0
C434 C 0.42065 0.92086 0.33872 0.0
C435 C 0.42577 0.90544 0.3724 0.0
C436 C 0.45688 0.91218 0.3827 0.0
C437 C 0.48282 0.93514 0.35892 0.0
C438 C 0.47778 0.95121 0.32604 0.0
H439 H 0.47005 0.93656 0.19442 0.0
H440 H 0.49793 0.95805 0.2355 0.0
H441 H 0.46242 0.92027 0.24688 0.0
H442 H 0.39637 0.91462 0.33086 0.0
H443 H 0.40529 0.88769 0.38996 0.0
H444 H 0.34996 0.41336 0.29057 0.0
H445 H 0.3832 0.4118 0.34739 0.0
H446 H 0.46796 0.48394 0.28434 0.0
H447 H 0.435 0.48573 0.22717 0.0
H448 H 0.44347 0.40504 0.34615 0.0
H449 H 0.45876 0.52114 0.40286 0.0
H450 H 0.42664 0.49508 0.3681 0.0
H451 H 0.46664 0.51847 0.34812 0.0
C452 C 0.37572 0.42847 0.28834 0.0
C453 C 0.38986 0.44998 0.25468 0.0
C454 C 0.39462 0.42747 0.32077 0.0
C455 C 0.42783 0.44803 0.32006 0.0
C456 C 0.44225 0.46808 0.28534 0.0
H457 H 0.57425 0.50632 0.50917 0.0
H458 H 0.54231 0.50087 0.4469 0.0
C459 C 0.4234 0.46899 0.25275 0.0
C460 C 0.44695 0.45063 0.35742 0.0
H461 H 0.48509 0.49926 0.44075 0.0
C462 C 0.45267 0.42559 0.36692 0.0
C463 C 0.45864 0.47747 0.38424 0.0
C464 C 0.45229 0.50457 0.3757 0.0
C465 C 0.47046 0.42698 0.40251 0.0
C466 C 0.48199 0.45377 0.42958 0.0
C467 C 0.47614 0.47875 0.41995 0.0
C468 C 0.50086 0.45688 0.46762 0.0
C469 C 0.47737 0.40018 0.41025 0.0
C470 C 0.4879 0.43422 0.50015 0.0
C471 C 0.50611 0.43746 0.53585 0.0
C472 C 0.53718 0.46373 0.53983 0.0
C473 C 0.54994 0.4865 0.50745 0.0
C474 C 0.53188 0.48318 0.47172 0.0
H475 H 0.47431 0.38609 0.38126 0.0
H476 H 0.50212 0.40958 0.42212 0.0
H477 H 0.46045 0.38369 0.43427 0.0
H478 H 0.46376 0.41409 0.49794 0.0
H479 H 0.49604 0.41956 0.56042 0.0
H480 H 0.05413 0.56808 0.70214 0.0
H481 H 0.0264 0.53156 0.64381 0.0
H482 H 0.0395 0.45875 0.70358 0.0
H483 H 0.0671 0.49538 0.76253 0.0
H484 H 0.05758 0.49846 0.59467 0.0
H485 H 0.93939 0.41841 0.67024 0.0
H486 H 0.96483 0.45922 0.68739 0.0
H487 H 0.97556 0.42951 0.69922 0.0
C488 C 0.0502 0.54398 0.70345 0.0
C489 C 0.06185 0.53409 0.73725 0.0
C490 C 0.0348 0.52335 0.66994 0.0
C491 C 0.03082 0.49254 0.66976 0.0
C492 C 0.04218 0.48242 0.70355 0.0
H493 H 0.92382 0.34081 0.48889 0.0
H494 H 0.95718 0.3711 0.5484 0.0
C495 C 0.0578 0.50319 0.73702 0.0
C496 C 0.01576 0.47156 0.63328 0.0
H497 H 0.94544 0.40855 0.59945 0.0
C498 C 0.03314 0.47863 0.59562 0.0
C499 C 0.98406 0.4457 0.63507 0.0
C500 C 0.96462 0.4376 0.67501 0.0
C501 C 0.01937 0.46058 0.5592 0.0
C502 C 0.98717 0.43541 0.56048 0.0
C503 C 0.97012 0.42789 0.59856 0.0
C504 C 0.97008 0.41746 0.52239 0.0
C505 C 0.03948 0.46854 0.51987 0.0
C506 C 0.96661 0.43354 0.48783 0.0
C507 C 0.94778 0.41632 0.4536 0.0
C508 C 0.93168 0.3827 0.45373 0.0
C509 C 0.93585 0.36671 0.48793 0.0
C510 C 0.95488 0.38395 0.52196 0.0
H511 H 0.06543 0.48068 0.52742 0.0
H512 H 0.03311 0.44671 0.50121 0.0
H513 H 0.03537 0.48509 0.50014 0.0
H514 H 0.97751 0.45935 0.48795 0.0
H515 H 0.94486 0.42931 0.42784 0.0
H516 H 0.56951 0.92355 0.64478 0.0
H517 H 0.56914 0.95677 0.70252 0.0
H518 H 0.50148 0.9736 0.63516 0.0
H519 H 0.50168 0.94043 0.57695 0.0
H520 H 0.57853 0.02469 0.70134 0.0
H521 H 0.45872 0.92585 0.75155 0.0
H522 H 0.48523 0.91897 0.71861 0.0
H523 H 0.46408 0.93739 0.69701 0.0
C524 C 0.55492 0.93471 0.64191 0.0
C525 C 0.53534 0.92913 0.60658 0.0
C526 C 0.55482 0.95369 0.67485 0.0
C527 C 0.53502 0.96716 0.67304 0.0
C528 C 0.51673 0.9631 0.63698 0.0
H529 H 0.47931 0.05853 0.86174 0.0
H530 H 0.48308 0.03052 0.79992 0.0
C531 C 0.51696 0.94427 0.60381 0.0
C532 C 0.53183 0.98344 0.71024 0.0
H533 H 0.48159 0.97304 0.79181 0.0
C534 C 0.55737 0.01357 0.72117 0.0
C535 C 0.50415 0.96858 0.73577 0.0
C536 C 0.47645 0.93582 0.72552 0.0
C537 C 0.55579 0.02956 0.75709 0.0
C538 C 0.52828 0.01448 0.78306 0.0
C539 C 0.50268 0.98439 0.77188 0.0
C540 C 0.52523 0.02981 0.82157 0.0
C541 C 0.58327 0.06265 0.7664 0.0
C542 C 0.5472 0.03788 0.8546 0.0
C543 C 0.5449 0.05369 0.89004 0.0
C544 C 0.52027 0.061 0.89325 0.0
C545 C 0.49783 0.05214 0.86065 0.0
C546 C 0.50021 0.03653 0.82516 0.0
H547 H 0.59822 0.07397 0.73806 0.0
H548 H 0.57446 0.07843 0.77852 0.0
H549 H 0.59881 0.06098 0.79075 0.0
H550 H 0.5663 0.03229 0.85274 0.0
H551 H 0.56253 0.06059 0.91479 0.0
H552 H 0.4262 0.55738 -0.0024 0.0
H553 H 0.45945 0.56212 0.9365 0.0
H554 H 0.51864 0.5401 0.01517 0.0
H555 H 0.48576 0.53615 0.07654 0.0
H556 H 0.52981 0.60199 0.92492 0.0
H557 H 0.48194 0.47048 0.91867 0.0
H558 H 0.4619 0.488 0.94676 0.0
H559 H 0.49677 0.48934 0.96881 0.0
C560 C 0.44653 0.5539 0.00173 0.0
C561 C 0.4531 0.54559 0.04124 0.0
C562 C 0.46541 0.55657 0.967 0.0
C563 C 0.49107 0.55095 0.9714 0.0
C564 C 0.49851 0.54395 0.0112 0.0
H565 H 0.64137 0.57679 0.80281 0.0
H566 H 0.60928 0.58216 0.85822 0.0
C567 C 0.47968 0.54143 0.04601 0.0
C568 C 0.50928 0.55123 0.93399 0.0
H569 H 0.52362 0.50248 0.87125 0.0
C570 C 0.5285 0.5803 0.91305 0.0
C571 C 0.50696 0.52274 0.91843 0.0
C572 C 0.48562 0.49075 0.93901 0.0
C573 C 0.54619 0.58169 0.87724 0.0
C574 C 0.54455 0.55331 0.86239 0.0
C575 C 0.52478 0.52417 0.88286 0.0
C576 C 0.56404 0.55328 0.82661 0.0
C577 C 0.56632 0.61338 0.85541 0.0
C578 C 0.54914 0.53538 0.79046 0.0
C579 C 0.56739 0.5322 0.7587 0.0
C580 C 0.60078 0.54658 0.76295 0.0
C581 C 0.61569 0.56538 0.79863 0.0
C582 C 0.59744 0.56865 0.83022 0.0
H583 H 0.55899 0.63105 0.86431 0.0
H584 H 0.59176 0.62329 0.8645 0.0
H585 H 0.56467 0.61035 0.82074 0.0
H586 H 0.52332 0.52321 0.78734 0.0
H587 H 0.55522 0.51755 0.73161 0.0
H588 H 0.0738 0.65601 0.99436 0.0
H589 H 0.04286 0.62585 0.05577 0.0
H590 H 0.00092 0.53867 0.98343 0.0
H591 H 0.03168 0.56854 0.9217 0.0
H592 H 0.95741 0.54767 0.04034 0.0
H593 H 0.06887 0.56443 0.11578 0.0
H594 H 0.06953 0.60002 0.09742 0.0
H595 H 0.06647 0.57064 0.06025 0.0
C596 C 0.05761 0.6305 0.99125 0.0
C597 C 0.05546 0.61459 0.95328 0.0
C598 C 0.04007 0.61334 0.02642 0.0
C599 C 0.0201 0.58007 0.02413 0.0
C600 C 0.0164 0.56436 0.98571 0.0
H601 H 0.94407 0.42915 0.20594 0.0
H602 H 0.97315 0.4674 0.14975 0.0
C603 C 0.034 0.58147 0.95053 0.0
C604 C 0.00468 0.56129 0.06236 0.0
H605 H 0.0209 0.53582 0.1543 0.0
C606 C 0.9712 0.54521 0.06545 0.0
C607 C 0.02291 0.55795 0.09465 0.0
C608 C 0.05893 0.57394 0.09199 0.0
C609 C 0.95538 0.52572 0.1002 0.0
C610 C 0.97363 0.52251 0.13257 0.0
C611 C 0.0071 0.53865 0.1295 0.0
C612 C 0.95825 0.50101 0.16875 0.0
C613 C 0.91926 0.50796 0.10154 0.0
C614 C 0.94098 0.50776 0.19851 0.0
C615 C 0.92481 0.48617 0.23108 0.0
C616 C 0.92591 0.45771 0.23454 0.0
C617 C 0.94382 0.45142 0.20513 0.0
C618 C 0.96007 0.47304 0.17268 0.0
H619 H 0.90871 0.50862 0.0708 0.0
H620 H 0.90987 0.48258 0.11066 0.0
H621 H 0.91113 0.51907 0.1255 0.0
H622 H 0.93957 0.52941 0.19611 0.0
H623 H 0.91091 0.49135 0.2532 0.0
H624 H 0.53937 0.19973 0.91442 0.0
H625 H 0.56764 0.24919 0.87413 0.0
H626 H 0.49812 0.27548 0.91294 0.0
H627 H 0.46993 0.22612 0.95417 0.0
H628 H 0.55026 0.27259 0.81002 0.0
H629 H 0.58128 0.35364 0.94713 0.0
H630 H 0.56512 0.31107 0.95264 0.0
H631 H 0.53899 0.32682 0.94211 0.0
C632 C 0.52989 0.21588 0.91416 0.0
C633 C 0.50265 0.20927 0.93795 0.0
C634 C 0.54617 0.2442 0.89123 0.0
C635 C 0.53545 0.26636 0.89146 0.0
C636 C 0.50737 0.25914 0.91349 0.0
H637 H 0.58076 0.41698 0.71703 0.0
H638 H 0.55893 0.36772 0.75734 0.0
C639 C 0.49119 0.23089 0.93682 0.0
C640 C 0.55367 0.29686 0.86829 0.0
H641 H 0.59065 0.37799 0.87934 0.0
C642 C 0.55929 0.29564 0.82524 0.0
C643 C 0.5661 0.3269 0.88844 0.0
C644 C 0.56289 0.32978 0.93521 0.0
C645 C 0.57608 0.32366 0.80143 0.0
C646 C 0.58675 0.35363 0.82103 0.0
C647 C 0.58216 0.35493 0.86436 0.0
C648 C 0.6008 0.38365 0.79656 0.0
C649 C 0.58225 0.32088 0.75552 0.0
C650 C 0.6313 0.4094 0.80615 0.0
C651 C 0.64385 0.43799 0.78335 0.0
C652 C 0.62595 0.44115 0.75081 0.0
C653 C 0.59536 0.41529 0.74161 0.0
C654 C 0.58286 0.38697 0.76444 0.0
H655 H 0.58235 0.29829 0.74904 0.0
H656 H 0.56288 0.3206 0.73645 0.0
H657 H 0.60548 0.34136 0.74507 0.0
H658 H 0.64535 0.40732 0.83117 0.0
H659 H 0.66742 0.45755 0.79123 0.0
H660 H 0.18902 0.66888 0.98606 0.0
H661 H 0.21215 0.64351 0.02981 0.0
H662 H 0.20528 0.58317 0.92561 0.0
H663 H 0.18203 0.60786 0.88228 0.0
H664 H 0.17478 0.55022 0.00124 0.0
H665 H 0.30081 0.64774 0.02521 0.0
H666 H 0.26942 0.65668 0.03574 0.0
H667 H 0.27636 0.64866 0.9829 0.0
C668 C 0.19316 0.6507 0.97238 0.0
C669 C 0.18355 0.64011 0.931 0.0
C670 C 0.20628 0.63625 -0.00268 0.0
C671 C 0.21023 0.61145 0.98081 0.0
C672 C 0.20218 0.60214 0.93888 0.0
H673 H 0.3107 0.51599 0.05092 0.0
H674 H 0.28754 0.54554 0.01817 0.0
C675 C 0.18896 0.6163 0.91421 0.0
C676 C 0.22055 0.59327 0.00735 0.0
H677 H 0.28573 0.5975 0.05503 0.0
C678 C 0.19894 0.56054 0.01344 0.0
C679 C 0.25207 0.60697 0.02287 0.0
C680 C 0.27621 0.6419 0.0163 0.0
C681 C 0.20837 0.54077 0.03346 0.0
C682 C 0.24009 0.55433 0.04832 0.0
C683 C 0.26143 0.58728 0.04345 0.0
C684 C 0.25222 0.53449 0.06701 0.0
C685 C 0.18479 0.50537 0.03691 0.0
C686 C 0.23953 0.51804 0.10485 0.0
C687 C 0.25249 0.50085 0.12341 0.0
C688 C 0.27851 0.50016 0.10457 0.0
C689 C 0.29058 0.51601 0.0661 0.0
C690 C 0.27753 0.53303 0.04749 0.0
H691 H 0.16378 0.49784 0.01602 0.0
H692 H 0.1964 0.49116 0.02889 0.0
H693 H 0.17594 0.49958 0.06976 0.0
H694 H 0.22032 0.51935 0.12069 0.0
H695 H 0.24318 0.48954 0.15347 0.0
H696 H 0.53938 0.20193 0.14304 0.0
H697 H 0.59024 0.22505 0.18151 0.0
H698 H 0.6331 0.20194 0.07813 0.0
H699 H 0.58259 0.17835 0.04019 0.0
H700 H 0.64144 0.17995 0.15299 0.0
H701 H 0.67532 0.30791 0.16514 0.0
H702 H 0.63583 0.28025 0.18416 0.0
H703 H 0.64496 0.28051 0.12932 0.0
C704 C 0.55985 0.20233 0.12835 0.0
C705 C 0.55702 0.18819 0.08881 0.0
C706 C 0.58886 0.21559 0.15024 0.0
C707 C 0.61542 0.21529 0.13251 0.0
C708 C 0.61286 0.20229 0.09239 0.0
H709 H 0.81071 0.31463 0.22351 0.0
H710 H 0.76239 0.29332 0.18044 0.0
C711 C 0.58397 0.18885 0.07077 0.0
C712 C 0.64533 0.22637 0.15654 0.0
H713 H 0.70666 0.29154 0.20398 0.0
C714 C 0.65577 0.20438 0.16406 0.0
C715 C 0.66406 0.2583 0.17048 0.0
C716 C 0.6547 0.28324 0.1616 0.0
C717 C 0.68445 0.21343 0.18534 0.0
C718 C 0.70277 0.24514 0.20026 0.0
C719 C 0.69245 0.2672 0.19255 0.0
C720 C 0.73256 0.25591 0.22443 0.0
C721 C 0.69513 0.18912 0.19096 0.0
C722 C 0.73184 0.24157 0.26305 0.0
C723 C 0.75944 0.25349 0.28751 0.0
C724 C 0.78814 0.28017 0.27398 0.0
C725 C 0.78898 0.29395 0.23472 0.0
C726 C 0.7614 0.28191 0.21017 0.0
H727 H 0.6836 0.16936 0.16775 0.0
H728 H 0.72153 0.20042 0.18776 0.0
H729 H 0.68825 0.1785 0.22285 0.0
H730 H 0.70965 0.22192 0.27504 0.0
H731 H 0.75777 0.24281 0.31793 0.0
H732 H 0.47918 0.79383 0.39256 0.0
H733 H 0.44958 0.74211 0.35729 0.0
H734 H 0.47625 0.69823 0.45521 0.0
H735 H 0.50599 0.74981 0.49062 0.0
H736 H 0.48036 0.67797 0.37435 0.0
H737 H 0.36307 0.67009 0.40168 0.0
H738 H 0.39162 0.70645 0.37594 0.0
H739 H 0.39913 0.69851 0.42867 0.0
C740 C 0.47916 0.77329 0.40633 0.0
C741 C 0.49492 0.77595 0.44453 0.0
C742 C 0.46198 0.74373 0.38634 0.0
C743 C 0.46007 0.71631 0.40433 0.0
C744 C 0.4772 0.71913 0.44114 0.0
H745 H 0.32894 0.52124 0.31107 0.0
H746 H 0.35483 0.56729 0.3591 0.0
C747 C 0.49444 0.74872 0.46115 0.0
C748 C 0.43998 0.68469 0.38475 0.0
H749 H 0.36378 0.63323 0.3517 0.0
C750 C 0.45481 0.66798 0.36984 0.0
C751 C 0.40653 0.67142 0.37981 0.0
C752 C 0.38905 0.68737 0.39776 0.0
C753 C 0.43734 0.63916 0.3479 0.0
C754 C 0.40438 0.62711 0.34035 0.0
C755 C 0.38914 0.64282 0.35727 0.0
C756 C 0.38635 0.60002 0.31157 0.0
C757 C 0.45439 0.62215 0.33205 0.0
C758 C 0.39472 0.60381 0.26897 0.0
C759 C 0.38009 0.5779 0.24174 0.0
C760 C 0.35668 0.54766 0.25658 0.0
C761 C 0.34692 0.54428 0.29884 0.0
C762 C 0.36172 0.57042 0.32626 0.0
H763 H 0.47688 0.62949 0.34968 0.0
H764 H 0.43877 0.59578 0.33458 0.0
H765 H 0.46068 0.62822 0.29843 0.0
H766 H 0.41326 0.6267 0.25702 0.0
H767 H 0.38787 0.58139 0.20924 0.0
H768 H 0.80367 0.38487 0.37596 0.0
H769 H 0.77986 0.41052 0.41654 0.0
H770 H 0.77155 0.3525 0.52413 0.0
H771 H 0.79527 0.32621 0.48332 0.0
H772 H 0.71745 0.36189 0.50971 0.0
H773 H 0.8338 0.47554 0.50933 0.0
H774 H 0.82033 0.45897 0.45788 0.0
H775 H 0.83017 0.43754 0.49567 0.0
C776 C 0.79642 0.3772 0.4081 0.0
C777 C 0.80171 0.35383 0.4267 0.0
C778 C 0.78294 0.39198 0.43124 0.0
C779 C 0.77476 0.38392 0.4735 0.0
C780 C 0.77806 0.35919 0.49156 0.0
H781 H 0.74411 0.50546 0.64713 0.0
H782 H 0.76496 0.47502 0.61114 0.0
C783 C 0.79147 0.34415 0.46824 0.0
C784 C 0.76423 0.40259 0.49892 0.0
H785 H 0.7882 0.47872 0.53126 0.0
C786 C 0.73292 0.38737 0.51479 0.0
C787 C 0.78475 0.43571 0.50601 0.0
C788 C 0.81925 0.4529 0.49171 0.0
C789 C 0.72113 0.40474 0.53632 0.0
C790 C 0.74111 0.43821 0.5413 0.0
C791 C 0.77281 0.45315 0.5268 0.0
C792 C 0.72959 0.45817 0.56155 0.0
C793 C 0.6875 0.38708 0.55373 0.0
C794 C 0.7036 0.45978 0.54466 0.0
C795 C 0.69172 0.47729 0.56509 0.0
C796 C 0.70586 0.49379 0.60255 0.0
C797 C 0.73288 0.49338 0.61821 0.0
C798 C 0.74467 0.47575 0.59784 0.0
H799 H 0.67886 0.36113 0.55764 0.0
H800 H 0.68607 0.39708 0.58457 0.0
H801 H 0.67113 0.38957 0.53159 0.0
H802 H 0.69219 0.44707 0.51602 0.0
H803 H 0.67096 0.47725 0.55208 0.0
H804 H 0.4121 0.82061 0.55047 0.0
H805 H 0.36323 0.79814 0.59135 0.0
H806 H 0.3999 0.75387 0.67525 0.0
H807 H 0.45019 0.77767 0.63491 0.0
H808 H 0.31916 0.73891 0.60674 0.0
H809 H 0.37358 0.80033 0.75725 0.0
H810 H 0.3958 0.8105 0.7086 0.0
H811 H 0.38879 0.77561 0.73768 0.0
C812 C 0.40997 0.80605 0.57753 0.0
C813 C 0.4352 0.80107 0.58957 0.0
C814 C 0.38188 0.79319 0.60091 0.0
C815 C 0.37805 0.77475 0.63673 0.0
C816 C 0.40268 0.76871 0.64826 0.0
H817 H 0.19131 0.66006 0.75075 0.0
H818 H 0.24072 0.67985 0.7111 0.0
C819 C 0.43123 0.78202 0.625 0.0
C820 C 0.34797 0.76206 0.66126 0.0
H821 H 0.31773 0.76408 0.75758 0.0
C822 C 0.31886 0.74438 0.63976 0.0
C823 C 0.34763 0.76978 0.7041 0.0
C824 C 0.37809 0.79035 0.72825 0.0
C825 C 0.28944 0.73445 0.6597 0.0
C826 C 0.28903 0.74125 0.70288 0.0
C827 C 0.31811 0.75881 0.72451 0.0
C828 C 0.25866 0.72967 0.72638 0.0
C829 C 0.25923 0.71764 0.63383 0.0
C830 C 0.25256 0.75104 0.74912 0.0
C831 C 0.22436 0.73968 0.77262 0.0
C832 C 0.20182 0.7068 0.77354 0.0
C833 C 0.20789 0.68562 0.75021 0.0
C834 C 0.23615 0.69689 0.72735 0.0
H835 H 0.26418 0.72391 0.59998 0.0
H836 H 0.24893 0.69138 0.63667 0.0
H837 H 0.24107 0.72379 0.64466 0.0
H838 H 0.26973 0.77646 0.74891 0.0
H839 H 0.2204 0.75654 0.79036 0.0
loop_
_geom_bond_atom_site_label_1
_geom_bond_atom_site_label_2
_geom_bond_distance
_geom_bond_site_symmetry_2
_ccdc_geom_bond_type
Zn0 O1 2.055 1_556 S
Zn0 O8 2.046 1_556 S
Zn0 N16 2.036 . S
Zn0 O28 2.053 . S
Zn0 O30 2.066 . S
O1 Zn0 2.055 1_554 S
O1 C4 1.259 . S
C2 O30 1.256 . S
C2 O31 1.244 1_556 S
Zn3 O5 2.046 . S
Zn3 O7 2.055 . S
Zn3 N9 2.036 . S
Zn3 O27 2.064 . S
Zn3 O31 2.053 . S
C4 O1 1.259 . S
C4 O5 1.254 . S
O5 Zn3 2.046 . S
O5 C4 1.254 . S
C6 O27 1.259 1_556 S
C6 O28 1.244 . S
O7 Zn3 2.055 . S
O7 C29 1.259 . S
O8 Zn0 2.046 1_554 S
O8 C29 1.254 . S
N9 Zn3 2.036 . S
N9 C10 1.298 . S
N9 N12 1.398 . S
C10 N9 1.298 . S
C10 N13 1.367 . S
C10 C23 1.481 . S
C11 N12 1.299 . S
C11 N13 1.379 . S
N12 N9 1.398 . S
N12 C11 1.299 . S
N13 C10 1.367 . S
N13 C11 1.379 . S
C14 N16 1.298 . S
C14 N18 1.367 . S
C14 C22 1.481 . S
C15 N17 1.299 . S
C15 N18 1.379 . S
N16 Zn0 2.036 . S
N16 C14 1.298 . S
N16 N17 1.398 . S
N17 C15 1.299 . S
N17 N16 1.398 . S
N18 C14 1.367 . S
N18 C15 1.379 . S
H19 C22 0.980 1_554 S
H20 C22 0.981 . S
H21 C22 0.981 . S
C22 C14 1.481 . S
C22 H19 0.980 1_556 S
C22 H20 0.981 . S
C22 H21 0.981 . S
C23 C10 1.481 . S
C23 H24 0.980 . S
C23 H25 0.981 . S
C23 H26 0.981 . S
H24 C23 0.980 . S
H25 C23 0.981 . S
H26 C23 0.981 . S
O27 Zn3 2.064 . S
O27 C6 1.259 1_554 S
O28 Zn0 2.053 . S
O28 C6 1.244 . S
C29 O7 1.259 . S
C29 O8 1.254 . S
O30 Zn0 2.066 . S
O30 C2 1.256 . S
O31 C2 1.244 1_554 S
O31 Zn3 2.053 . S
Zn32 O33 2.055 . S
Zn32 O40 2.046 . S
Zn32 N48 2.036 . S
Zn32 O60 2.053 . S
Zn32 O62 2.066 . S
O33 Zn32 2.055 . S
O33 C36 1.259 . S
C34 O62 1.256 . S
C34 O63 1.244 . S
Zn35 O37 2.046 . S
Zn35 O39 2.055 . S
Zn35 N41 2.036 . S
Zn35 O59 2.066 . S
Zn35 O63 2.053 . S
C36 O33 1.259 . S
C36 O37 1.254 . S
O37 Zn35 2.046 . S
O37 C36 1.254 . S
C38 O59 1.256 . S
C38 O60 1.244 . S
O39 Zn35 2.055 . S
O39 C61 1.259 . S
O40 Zn32 2.046 . S
O40 C61 1.254 . S
N41 Zn35 2.036 . S
N41 C42 1.298 . S
N41 N44 1.398 . S
C42 N41 1.298 . S
C42 N45 1.367 . S
C42 C55 1.481 . S
C43 N44 1.299 . S
C43 N45 1.379 . S
N44 N41 1.398 . S
N44 C43 1.299 . S
N45 C42 1.367 . S
N45 C43 1.379 . S
C46 N48 1.298 . S
C46 N50 1.367 . S
C46 C54 1.481 . S
C47 N49 1.299 . S
C47 N50 1.379 . S
N48 Zn32 2.036 . S
N48 C46 1.298 . S
N48 N49 1.398 . S
N49 C47 1.299 . S
N49 N48 1.398 . S
N50 C46 1.367 . S
N50 C47 1.379 . S
H51 C54 0.980 . S
H52 C54 0.981 . S
H53 C54 0.981 . S
C54 C46 1.481 . S
C54 H51 0.980 . S
C54 H52 0.981 . S
C54 H53 0.981 . S
C55 C42 1.481 . S
C55 H56 0.980 . S
C55 H57 0.981 . S
C55 H58 0.981 . S
H56 C55 0.980 . S
H57 C55 0.981 . S
H58 C55 0.981 . S
O59 Zn35 2.066 . S
O59 C38 1.256 . S
O60 Zn32 2.053 . S
O60 C38 1.244 . S
C61 O39 1.259 . S
C61 O40 1.254 . S
O62 Zn32 2.066 . S
O62 C34 1.256 . S
O63 C34 1.244 . S
O63 Zn35 2.053 . S
Zn64 O65 2.055 . S
Zn64 O72 2.046 . S
Zn64 N80 2.036 . S
Zn64 O92 2.053 . S
Zn64 O94 2.066 . S
O65 Zn64 2.055 . S
O65 C68 1.259 . S
C66 O94 1.256 . S
C66 O95 1.244 . S
Zn67 O69 2.046 . S
Zn67 O71 2.055 . S
Zn67 N73 2.036 . S
Zn67 O91 2.066 . S
Zn67 O95 2.053 . S
C68 O65 1.259 . S
C68 O69 1.254 . S
O69 Zn67 2.046 . S
O69 C68 1.254 . S
C70 O91 1.256 . S
C70 O92 1.244 . S
O71 Zn67 2.055 . S
O71 C93 1.259 . S
O72 Zn64 2.046 . S
O72 C93 1.254 . S
N73 Zn67 2.036 . S
N73 C74 1.298 . S
N73 N76 1.398 . S
C74 N73 1.298 . S
C74 N77 1.367 . S
C74 C87 1.481 . S
C75 N76 1.299 . S
C75 N77 1.379 . S
N76 N73 1.398 . S
N76 C75 1.299 . S
N77 C74 1.367 . S
N77 C75 1.379 . S
C78 N80 1.298 . S
C78 N82 1.367 . S
C78 C86 1.481 . S
C79 N81 1.299 . S
C79 N82 1.379 . S
N80 Zn64 2.036 . S
N80 C78 1.298 . S
N80 N81 1.398 . S
N81 C79 1.299 . S
N81 N80 1.398 . S
N82 C78 1.367 . S
N82 C79 1.379 . S
H83 C86 0.980 . S
H84 C86 0.981 . S
H85 C86 0.981 . S
C86 C78 1.481 . S
C86 H83 0.980 . S
C86 H84 0.981 . S
C86 H85 0.981 . S
C87 C74 1.481 . S
C87 H88 0.980 . S
C87 H89 0.981 . S
C87 H90 0.981 . S
H88 C87 0.980 . S
H89 C87 0.981 . S
H90 C87 0.981 . S
O91 Zn67 2.066 . S
O91 C70 1.256 . S
O92 Zn64 2.053 . S
O92 C70 1.244 . S
C93 O71 1.259 . S
C93 O72 1.254 . S
O94 Zn64 2.066 . S
O94 C66 1.256 . S
O95 C66 1.244 . S
O95 Zn67 2.053 . S
Zn96 O97 2.055 . S
Zn96 O104 2.046 . S
Zn96 N112 2.036 . S
Zn96 O124 2.053 . S
Zn96 O126 2.066 . S
O97 Zn96 2.055 . S
O97 C100 1.259 . S
C98 O126 1.256 . S
C98 O127 1.244 . S
Zn99 O101 2.046 . S
Zn99 O103 2.055 . S
Zn99 N105 2.036 . S
Zn99 O123 2.066 . S
Zn99 O127 2.053 . S
C100 O97 1.259 . S
C100 O101 1.254 . S
O101 Zn99 2.046 . S
O101 C100 1.254 . S
C102 O123 1.256 . S
C102 O124 1.244 . S
O103 Zn99 2.055 . S
O103 C125 1.259 . S
O104 Zn96 2.046 . S
O104 C125 1.254 . S
N105 Zn99 2.036 . S
N105 C106 1.298 . S
N105 N108 1.398 . S
C106 N105 1.298 . S
C106 N109 1.367 . S
C106 C119 1.481 . S
C107 N108 1.299 . S
C107 N109 1.379 . S
N108 N105 1.398 . S
N108 C107 1.299 . S
N109 C106 1.367 . S
N109 C107 1.379 . S
C110 N112 1.298 . S
C110 N114 1.367 . S
C110 C118 1.481 . S
C111 N113 1.299 . S
C111 N114 1.379 . S
N112 Zn96 2.036 . S
N112 C110 1.298 . S
N112 N113 1.398 . S
N113 C111 1.299 . S
N113 N112 1.398 . S
N114 C110 1.367 . S
N114 C111 1.379 . S
H115 C118 0.980 . S
H116 C118 0.981 . S
H117 C118 0.981 . S
C118 C110 1.481 . S
C118 H115 0.980 . S
C118 H116 0.981 . S
C118 H117 0.981 . S
C119 C106 1.481 . S
C119 H120 0.980 . S
C119 H121 0.981 . S
C119 H122 0.981 . S
H120 C119 0.980 . S
H121 C119 0.981 . S
H122 C119 0.981 . S
O123 Zn99 2.066 . S
O123 C102 1.256 . S
O124 Zn96 2.053 . S
O124 C102 1.244 . S
C125 O103 1.259 . S
C125 O104 1.254 . S
O126 Zn96 2.066 . S
O126 C98 1.256 . S
O127 C98 1.244 . S
O127 Zn99 2.053 . S
Zn128 O129 2.055 . S
Zn128 O136 2.046 . S
Zn128 N144 2.036 . S
Zn128 O156 2.053 . S
Zn128 O158 2.066 . S
O129 Zn128 2.055 . S
O129 C132 1.259 . S
C130 O158 1.256 . S
C130 O159 1.244 . S
Zn131 O133 2.046 . S
Zn131 O135 2.055 . S
Zn131 N137 2.036 . S
Zn131 O155 2.066 . S
Zn131 O159 2.053 . S
C132 O129 1.259 . S
C132 O133 1.254 . S
O133 Zn131 2.046 . S
O133 C132 1.254 . S
C134 O155 1.256 . S
C134 O156 1.244 . S
O135 Zn131 2.055 . S
O135 C157 1.259 . S
O136 Zn128 2.046 . S
O136 C157 1.254 . S
N137 Zn131 2.036 . S
N137 C138 1.298 . S
N137 N140 1.398 . S
C138 N137 1.298 . S
C138 N141 1.367 . S
C138 C151 1.481 . S
C139 N140 1.299 . S
C139 N141 1.379 . S
N140 N137 1.398 . S
N140 C139 1.299 . S
N141 C138 1.367 . S
N141 C139 1.379 . S
C142 N144 1.298 . S
C142 N146 1.367 . S
C142 C150 1.481 . S
C143 N145 1.299 . S
C143 N146 1.379 . S
N144 Zn128 2.036 . S
N144 C142 1.298 . S
N144 N145 1.398 . S
N145 C143 1.299 . S
N145 N144 1.398 . S
N146 C142 1.367 . S
N146 C143 1.379 . S
H147 C150 0.980 . S
H148 C150 0.981 . S
H149 C150 0.981 . S
C150 C142 1.481 . S
C150 H147 0.980 . S
C150 H148 0.981 . S
C150 H149 0.981 . S
C151 C138 1.481 . S
C151 H152 0.980 . S
C151 H153 0.981 . S
C151 H154 0.981 . S
H152 C151 0.980 . S
H153 C151 0.981 . S
H154 C151 0.981 . S
O155 Zn131 2.066 . S
O155 C134 1.256 . S
O156 Zn128 2.053 . S
O156 C134 1.244 . S
C157 O135 1.259 . S
C157 O136 1.254 . S
O158 Zn128 2.066 . S
O158 C130 1.256 . S
O159 C130 1.244 . S
O159 Zn131 2.053 . S
Zn160 O161 2.055 . S
Zn160 O168 2.046 . S
Zn160 N176 2.036 . S
Zn160 O188 2.053 . S
Zn160 O190 2.066 . S
O161 Zn160 2.055 . S
O161 C164 1.259 . S
C162 O190 1.256 . S
C162 O191 1.244 . S
Zn163 O165 2.046 . S
Zn163 O167 2.055 . S
Zn163 N169 2.036 . S
Zn163 O187 2.066 . S
Zn163 O191 2.053 . S
C164 O161 1.259 . S
C164 O165 1.254 . S
O165 Zn163 2.046 . S
O165 C164 1.254 . S
C166 O187 1.256 . S
C166 O188 1.244 . S
O167 Zn163 2.055 . S
O167 C189 1.259 . S
O168 Zn160 2.046 . S
O168 C189 1.254 . S
N169 Zn163 2.036 . S
N169 C170 1.298 . S
N169 N172 1.398 . S
C170 N169 1.298 . S
C170 N173 1.367 . S
C170 C183 1.481 . S
C171 N172 1.299 . S
C171 N173 1.379 . S
N172 N169 1.398 . S
N172 C171 1.299 . S
N173 C170 1.367 . S
N173 C171 1.379 . S
C174 N176 1.298 . S
C174 N178 1.367 . S
C174 C182 1.481 . S
C175 N177 1.299 . S
C175 N178 1.379 . S
N176 Zn160 2.036 . S
N176 C174 1.298 . S
N176 N177 1.398 . S
N177 C175 1.299 . S
N177 N176 1.398 . S
N178 C174 1.367 . S
N178 C175 1.379 . S
H179 C182 0.980 . S
H180 C182 0.981 . S
H181 C182 0.981 . S
C182 C174 1.481 . S
C182 H179 0.980 . S
C182 H180 0.981 . S
C182 H181 0.981 . S
C183 C170 1.481 . S
C183 H184 0.980 . S
C183 H185 0.981 . S
C183 H186 0.981 . S
H184 C183 0.980 . S
H185 C183 0.981 . S
H186 C183 0.981 . S
O187 Zn163 2.066 . S
O187 C166 1.256 . S
O188 Zn160 2.053 . S
O188 C166 1.244 . S
C189 O167 1.259 . S
C189 O168 1.254 . S
O190 Zn160 2.066 . S
O190 C162 1.256 . S
O191 C162 1.244 . S
O191 Zn163 2.053 . S
H192 C200 0.929 . S
H193 C202 0.930 . S
H194 C204 0.930 . S
H195 C207 0.929 . S
H196 C210 0.930 1_554 S
H197 C212 0.960 . S
H198 C212 0.960 . S
H199 C212 0.960 . S
C200 H192 0.929 . S
C200 C201 1.377 1_554 S
C200 C202 1.384 . S
C201 C200 1.377 1_556 S
C201 C207 1.390 . S
C202 H193 0.930 . S
C202 C200 1.384 . S
C202 C203 1.378 1_554 S
C203 C202 1.378 1_556 S
C203 C204 1.409 . S
C203 C208 1.475 1_545 S
C204 H194 0.930 . S
C204 C203 1.409 . S
C204 C207 1.386 . S
H205 C221 0.930 . S
H206 C222 0.931 . S
C207 H195 0.929 . S
C207 C201 1.390 . S
C207 C204 1.386 . S
C208 C203 1.475 1_565 S
C208 C210 1.395 . S
C208 C211 1.403 . S
H209 C215 0.930 . S
C210 H196 0.930 1_556 S
C210 C208 1.395 . S
C210 C213 1.403 . S
C211 C208 1.403 . S
C211 C212 1.524 . S
C211 C215 1.400 . S
C212 H197 0.960 . S
C212 H198 0.960 . S
C212 H199 0.960 . S
C212 C211 1.524 . S
C213 C210 1.403 . S
C213 C214 1.392 . S
C213 C217 1.495 1_556 S
C214 C213 1.392 . S
C214 C215 1.385 . S
C214 C216 1.478 . S
C215 H209 0.930 . S
C215 C211 1.400 . S
C215 C214 1.385 . S
C216 C214 1.478 . S
C216 C218 1.381 . S
C216 C222 1.383 . S
C217 C213 1.495 1_554 S
C217 H223 0.959 . S
C217 H224 0.961 1_554 S
C217 H225 0.960 . S
C218 C216 1.381 . S
C218 C219 1.394 . S
C218 H226 0.930 1_556 S
C219 C218 1.394 . S
C219 C220 1.383 . S
C219 H227 0.929 1_556 S
C220 C219 1.383 . S
C220 C221 1.377 . S
C221 H205 0.930 . S
C221 C220 1.377 . S
C221 C222 1.379 . S
C222 H206 0.931 . S
C222 C216 1.383 . S
C222 C221 1.379 . S
H223 C217 0.959 . S
H224 C217 0.961 1_556 S
H225 C217 0.960 . S
H226 C218 0.930 1_554 S
H227 C219 0.929 1_554 S
H228 C236 0.929 . S
H229 C238 0.930 . S
H230 C240 0.930 . S
H231 C243 0.929 . S
H232 C246 0.930 . S
H233 C248 0.960 . S
H234 C248 0.960 . S
H235 C248 0.960 . S
C236 H228 0.929 . S
C236 C237 1.377 . S
C236 C238 1.384 . S
C237 C236 1.377 . S
C237 C243 1.390 . S
C238 H229 0.930 . S
C238 C236 1.384 . S
C238 C239 1.372 . S
C239 C238 1.372 . S
C239 C240 1.400 . S
C239 C244 1.490 . S
C240 H230 0.930 . S
C240 C239 1.400 . S
C240 C243 1.386 . S
H241 C257 0.930 . S
H242 C258 0.931 . S
C243 H231 0.929 . S
C243 C237 1.390 . S
C243 C240 1.386 . S
C244 C239 1.490 . S
C244 C246 1.395 . S
C244 C247 1.403 . S
H245 C251 0.930 . S
C246 H232 0.930 . S
C246 C244 1.395 . S
C246 C249 1.403 . S
C247 C244 1.403 . S
C247 C248 1.524 . S
C247 C251 1.400 . S
C248 H233 0.960 . S
C248 H234 0.960 . S
C248 H235 0.960 . S
C248 C247 1.524 . S
C249 C246 1.403 . S
C249 C250 1.392 . S
C249 C253 1.495 . S
C250 C249 1.392 . S
C250 C251 1.385 . S
C250 C252 1.478 . S
C251 H245 0.930 . S
C251 C247 1.400 . S
C251 C250 1.385 . S
C252 C250 1.478 . S
C252 C254 1.381 . S
C252 C258 1.383 . S
C253 C249 1.495 . S
C253 H259 0.959 . S
C253 H260 0.961 . S
C253 H261 0.960 . S
C254 C252 1.381 . S
C254 C255 1.394 . S
C254 H262 0.930 . S
C255 C254 1.394 . S
C255 C256 1.383 . S
C255 H263 0.929 . S
C256 C255 1.383 . S
C256 C257 1.377 . S
C257 H241 0.930 . S
C257 C256 1.377 . S
C257 C258 1.379 . S
C258 H242 0.931 . S
C258 C252 1.383 . S
C258 C257 1.379 . S
H259 C253 0.959 . S
H260 C253 0.961 . S
H261 C253 0.960 . S
H262 C254 0.930 . S
H263 C255 0.929 . S
H264 C272 0.929 . S
H265 C274 0.930 . S
H266 C276 0.930 1_455 S
H267 C279 0.929 . S
H268 C282 0.930 . S
H269 C284 0.960 . S
H270 C284 0.960 . S
H271 C284 0.960 . S
C272 H264 0.929 . S
C272 C273 1.377 . S
C272 C274 1.384 . S
C273 C272 1.377 . S
C273 C279 1.390 . S
C274 H265 0.930 . S
C274 C272 1.384 . S
C274 C275 1.372 . S
C275 C274 1.372 . S
C275 C276 1.400 . S
C275 C280 1.490 1_655 S
C276 H266 0.930 1_655 S
C276 C275 1.400 . S
C276 C279 1.386 . S
H277 C293 0.930 . S
H278 C294 0.931 . S
C279 H267 0.929 . S
C279 C273 1.390 . S
C279 C276 1.386 . S
C280 C275 1.490 1_455 S
C280 C282 1.395 . S
C280 C283 1.403 . S
H281 C287 0.930 . S
C282 H268 0.930 . S
C282 C280 1.395 . S
C282 C285 1.403 . S
C283 C280 1.403 . S
C283 C284 1.524 . S
C283 C287 1.400 . S
C284 H269 0.960 . S
C284 H270 0.960 . S
C284 H271 0.960 . S
C284 C283 1.524 . S
C285 C282 1.403 . S
C285 C286 1.392 . S
C285 C289 1.495 . S
C286 C285 1.392 . S
C286 C287 1.385 . S
C286 C288 1.478 . S
C287 H281 0.930 . S
C287 C283 1.400 . S
C287 C286 1.385 . S
C288 C286 1.478 . S
C288 C290 1.381 . S
C288 C294 1.383 . S
C289 C285 1.495 . S
C289 H295 0.959 . S
C289 H296 0.961 . S
C289 H297 0.960 . S
C290 C288 1.381 . S
C290 C291 1.394 . S
C290 H298 0.930 . S
C291 C290 1.394 . S
C291 C292 1.383 . S
C291 H299 0.929 . S
C292 C291 1.383 . S
C292 C293 1.377 . S
C293 H277 0.930 . S
C293 C292 1.377 . S
C293 C294 1.379 . S
C294 H278 0.931 . S
C294 C288 1.383 . S
C294 C293 1.379 . S
H295 C289 0.959 . S
H296 C289 0.961 . S
H297 C289 0.960 . S
H298 C290 0.930 . S
H299 C291 0.929 . S
H300 C308 0.929 . S
H301 C310 0.930 . S
H302 C312 0.930 . S
H303 C315 0.929 . S
H304 C318 0.930 . S
H305 C320 0.960 . S
H306 C320 0.960 . S
H307 C320 0.960 . S
C308 H300 0.929 . S
C308 C309 1.377 . S
C308 C310 1.384 . S
C309 C308 1.377 . S
C309 C315 1.390 . S
C310 H301 0.930 . S
C310 C308 1.384 . S
C310 C311 1.372 . S
C311 C310 1.372 . S
C311 C312 1.400 . S
C311 C316 1.490 . S
C312 H302 0.930 . S
C312 C311 1.400 . S
C312 C315 1.386 . S
H313 C329 0.930 . S
H314 C330 0.931 . S
C315 H303 0.929 . S
C315 C309 1.390 . S
C315 C312 1.386 . S
C316 C311 1.490 . S
C316 C318 1.395 . S
C316 C319 1.403 . S
H317 C323 0.930 . S
C318 H304 0.930 . S
C318 C316 1.395 . S
C318 C321 1.403 . S
C319 C316 1.403 . S
C319 C320 1.524 . S
C319 C323 1.400 . S
C320 H305 0.960 . S
C320 H306 0.960 . S
C320 H307 0.960 . S
C320 C319 1.524 . S
C321 C318 1.403 . S
C321 C322 1.392 . S
C321 C325 1.495 . S
C322 C321 1.392 . S
C322 C323 1.385 . S
C322 C324 1.479 1_545 S
C323 H317 0.930 . S
C323 C319 1.400 . S
C323 C322 1.385 . S
C324 C322 1.479 1_565 S
C324 C326 1.381 . S
C324 C330 1.381 . S
C325 C321 1.495 . S
C325 H331 0.959 . S
C325 H332 0.961 . S
C325 H333 0.960 . S
C326 C324 1.381 . S
C326 C327 1.394 . S
C326 H334 0.930 1_565 S
C327 C326 1.394 . S
C327 C328 1.383 . S
C327 H335 0.929 . S
C328 C327 1.383 . S
C328 C329 1.377 . S
C329 H313 0.930 . S
C329 C328 1.377 . S
C329 C330 1.379 . S
C330 H314 0.931 . S
C330 C324 1.381 . S
C330 C329 1.379 . S
H331 C325 0.959 . S
H332 C325 0.961 . S
H333 C325 0.960 . S
H334 C326 0.930 1_545 S
H335 C327 0.929 . S
H336 C344 0.929 . S
H337 C346 0.930 . S
H338 C348 0.930 . S
H339 C351 0.929 . S
H340 C354 0.930 . S
H341 C356 0.960 . S
H342 C356 0.960 . S
H343 C356 0.960 . S
C344 H336 0.929 . S
C344 C345 1.377 . S
C344 C346 1.384 . S
C345 C344 1.377 . S
C345 C351 1.390 . S
C346 H337 0.930 . S
C346 C344 1.384 . S
C346 C347 1.372 . S
C347 C346 1.372 . S
C347 C348 1.400 . S
C347 C352 1.490 . S
C348 H338 0.930 . S
C348 C347 1.400 . S
C348 C351 1.386 . S
H349 C365 0.930 . S
H350 C366 0.931 . S
C351 H339 0.929 . S
C351 C345 1.390 . S
C351 C348 1.386 . S
C352 C347 1.490 . S
C352 C354 1.395 . S
C352 C355 1.403 . S
H353 C359 0.930 . S
C354 H340 0.930 . S
C354 C352 1.395 . S
C354 C357 1.403 . S
C355 C352 1.403 . S
C355 C356 1.524 . S
C355 C359 1.400 . S
C356 H341 0.960 . S
C356 H342 0.960 . S
C356 H343 0.960 . S
C356 C355 1.524 . S
C357 C354 1.403 . S
C357 C358 1.392 . S
C357 C361 1.495 . S
C358 C357 1.392 . S
C358 C359 1.385 . S
C358 C360 1.478 . S
C359 H353 0.930 . S
C359 C355 1.400 . S
C359 C358 1.385 . S
C360 C358 1.478 . S
C360 C362 1.381 . S
C360 C366 1.383 . S
C361 C357 1.495 . S
C361 H367 0.959 . S
C361 H368 0.961 . S
C361 H369 0.960 . S
C362 C360 1.381 . S
C362 C363 1.394 . S
C362 H370 0.930 . S
C363 C362 1.394 . S
C363 C364 1.383 . S
C363 H371 0.929 . S
C364 C363 1.383 . S
C364 C365 1.377 . S
C365 H349 0.930 . S
C365 C364 1.377 . S
C365 C366 1.379 . S
C366 H350 0.931 . S
C366 C360 1.383 . S
C366 C365 1.379 . S
H367 C361 0.959 . S
H368 C361 0.961 . S
H369 C361 0.960 . S
H370 C362 0.930 . S
H371 C363 0.929 . S
H372 C380 0.929 . S
H373 C382 0.930 . S
H374 C384 0.930 . S
H375 C387 0.929 . S
H376 C390 0.930 . S
H377 C392 0.960 . S
H378 C392 0.960 . S
H379 C392 0.960 . S
C380 H372 0.929 . S
C380 C381 1.377 . S
C380 C382 1.384 . S
C381 C380 1.377 . S
C381 C387 1.390 . S
C382 H373 0.930 . S
C382 C380 1.384 . S
C382 C383 1.382 . S
C383 C382 1.382 . S
C383 C384 1.421 . S
C383 C388 1.460 1_455 S
C384 H374 0.930 . S
C384 C383 1.421 . S
C384 C387 1.386 . S
H385 C401 0.930 . S
H386 C402 0.931 . S
C387 H375 0.929 . S
C387 C381 1.390 . S
C387 C384 1.386 . S
C388 C383 1.460 1_655 S
C388 C390 1.395 . S
C388 C391 1.403 . S
H389 C395 0.930 . S
C390 H376 0.930 . S
C390 C388 1.395 . S
C390 C393 1.403 . S
C391 C388 1.403 . S
C391 C392 1.524 . S
C391 C395 1.400 . S
C392 H377 0.960 . S
C392 H378 0.960 . S
C392 H379 0.960 . S
C392 C391 1.524 . S
C393 C390 1.403 . S
C393 C394 1.392 . S
C393 C397 1.495 . S
C394 C393 1.392 . S
C394 C395 1.385 . S
C394 C396 1.478 . S
C395 H389 0.930 . S
C395 C391 1.400 . S
C395 C394 1.385 . S
C396 C394 1.478 . S
C396 C398 1.381 . S
C396 C402 1.383 . S
C397 C393 1.495 . S
C397 H403 0.959 . S
C397 H404 0.961 . S
C397 H405 0.960 . S
C398 C396 1.381 . S
C398 C399 1.394 . S
C398 H406 0.930 . S
C399 C398 1.394 . S
C399 C400 1.383 . S
C399 H407 0.929 . S
C400 C399 1.383 . S
C400 C401 1.377 . S
C401 H385 0.930 . S
C401 C400 1.377 . S
C401 C402 1.379 . S
C402 H386 0.931 . S
C402 C396 1.383 . S
C402 C401 1.379 . S
H403 C397 0.959 . S
H404 C397 0.961 . S
H405 C397 0.960 . S
H406 C398 0.930 . S
H407 C399 0.929 . S
H408 C416 0.929 . S
H409 C418 0.930 . S
H410 C420 0.930 . S
H411 C423 0.929 . S
H412 C426 0.930 1_565 S
H413 C428 0.960 . S
H414 C428 0.960 . S
H415 C428 0.960 . S
C416 H408 0.929 . S
C416 C417 1.377 . S
C416 C418 1.384 . S
C417 C416 1.377 . S
C417 C423 1.390 . S
C418 H409 0.930 . S
C418 C416 1.384 . S
C418 C419 1.372 . S
C419 C418 1.372 . S
C419 C420 1.400 . S
C419 C424 1.490 . S
C420 H410 0.930 . S
C420 C419 1.400 . S
C420 C423 1.386 . S
H421 C437 0.930 . S
H422 C438 0.931 1_545 S
C423 H411 0.929 . S
C423 C417 1.390 . S
C423 C420 1.386 . S
C424 C419 1.490 . S
C424 C426 1.395 . S
C424 C427 1.403 . S
H425 C431 0.930 . S
C426 H412 0.930 1_545 S
C426 C424 1.395 . S
C426 C429 1.403 1_545 S
C427 C424 1.403 . S
C427 C428 1.524 . S
C427 C431 1.400 . S
C428 H413 0.960 . S
C428 H414 0.960 . S
C428 H415 0.960 . S
C428 C427 1.524 . S
C429 C426 1.403 1_565 S
C429 C430 1.392 . S
C429 C433 1.495 . S
C430 C429 1.392 . S
C430 C431 1.385 1_565 S
C430 C432 1.478 . S
C431 H425 0.930 . S
C431 C427 1.400 . S
C431 C430 1.385 1_545 S
C432 C430 1.478 . S
C432 C434 1.381 . S
C432 C438 1.383 . S
C433 C429 1.495 . S
C433 H439 0.959 . S
C433 H440 0.961 . S
C433 H441 0.960 . S
C434 C432 1.381 . S
C434 C435 1.394 . S
C434 H442 0.930 . S
C435 C434 1.394 . S
C435 C436 1.383 . S
C435 H443 0.929 . S
C436 C435 1.383 . S
C436 C437 1.377 . S
C437 H421 0.930 . S
C437 C436 1.377 . S
C437 C438 1.379 . S
C438 H422 0.931 1_565 S
C438 C432 1.383 . S
C438 C437 1.379 . S
H439 C433 0.959 . S
H440 C433 0.961 . S
H441 C433 0.960 . S
H442 C434 0.930 . S
H443 C435 0.929 . S
H444 C452 0.929 . S
H445 C454 0.930 . S
H446 C456 0.930 . S
H447 C459 0.929 . S
H448 C462 0.930 . S
H449 C464 0.960 . S
H450 C464 0.960 . S
H451 C464 0.960 . S
C452 H444 0.929 . S
C452 C453 1.377 . S
C452 C454 1.384 . S
C453 C452 1.377 . S
C453 C459 1.390 . S
C454 H445 0.930 . S
C454 C452 1.384 . S
C454 C455 1.372 . S
C455 C454 1.372 . S
C455 C456 1.400 . S
C455 C460 1.490 . S
C456 H446 0.930 . S
C456 C455 1.400 . S
C456 C459 1.386 . S
H457 C473 0.930 . S
H458 C474 0.931 . S
C459 H447 0.929 . S
C459 C453 1.390 . S
C459 C456 1.386 . S
C460 C455 1.490 . S
C460 C462 1.395 . S
C460 C463 1.403 . S
H461 C467 0.930 . S
C462 H448 0.930 . S
C462 C460 1.395 . S
C462 C465 1.403 . S
C463 C460 1.403 . S
C463 C464 1.524 . S
C463 C467 1.400 . S
C464 H449 0.960 . S
C464 H450 0.960 . S
C464 H451 0.960 . S
C464 C463 1.524 . S
C465 C462 1.403 . S
C465 C466 1.392 . S
C465 C469 1.495 . S
C466 C465 1.392 . S
C466 C467 1.385 . S
C466 C468 1.478 . S
C467 H461 0.930 . S
C467 C463 1.400 . S
C467 C466 1.385 . S
C468 C466 1.478 . S
C468 C470 1.381 . S
C468 C474 1.383 . S
C469 C465 1.495 . S
C469 H475 0.959 . S
C469 H476 0.961 . S
C469 H477 0.960 . S
C470 C468 1.381 . S
C470 C471 1.394 . S
C470 H478 0.930 . S
C471 C470 1.394 . S
C471 C472 1.383 . S
C471 H479 0.929 . S
C472 C471 1.383 . S
C472 C473 1.377 . S
C473 H457 0.930 . S
C473 C472 1.377 . S
C473 C474 1.379 . S
C474 H458 0.931 . S
C474 C468 1.383 . S
C474 C473 1.379 . S
H475 C469 0.959 . S
H476 C469 0.961 . S
H477 C469 0.960 . S
H478 C470 0.930 . S
H479 C471 0.929 . S
H480 C488 0.929 . S
H481 C490 0.930 . S
H482 C492 0.930 . S
H483 C495 0.929 . S
H484 C498 0.930 . S
H485 C500 0.960 . S
H486 C500 0.960 . S
H487 C500 0.960 . S
C488 H480 0.929 . S
C488 C489 1.377 . S
C488 C490 1.384 . S
C489 C488 1.377 . S
C489 C495 1.390 . S
C490 H481 0.930 . S
C490 C488 1.384 . S
C490 C491 1.372 . S
C491 C490 1.372 . S
C491 C492 1.400 . S
C491 C496 1.490 . S
C492 H482 0.930 . S
C492 C491 1.400 . S
C492 C495 1.386 . S
H493 C509 0.930 . S
H494 C510 0.931 . S
C495 H483 0.929 . S
C495 C489 1.390 . S
C495 C492 1.386 . S
C496 C491 1.490 . S
C496 C498 1.395 . S
C496 C499 1.403 1_455 S
H497 C503 0.930 . S
C498 H484 0.930 . S
C498 C496 1.395 . S
C498 C501 1.403 . S
C499 C496 1.403 1_655 S
C499 C500 1.524 . S
C499 C503 1.400 . S
C500 H485 0.960 . S
C500 H486 0.960 . S
C500 H487 0.960 . S
C500 C499 1.524 . S
C501 C498 1.403 . S
C501 C502 1.392 1_455 S
C501 C505 1.495 . S
C502 C501 1.392 1_655 S
C502 C503 1.385 . S
C502 C504 1.478 . S
C503 H497 0.930 . S
C503 C499 1.400 . S
C503 C502 1.385 . S
C504 C502 1.478 . S
C504 C506 1.381 . S
C504 C510 1.383 . S
C505 C501 1.495 . S
C505 H511 0.959 . S
C505 H512 0.961 . S
C505 H513 0.960 . S
C506 C504 1.381 . S
C506 C507 1.394 . S
C506 H514 0.930 . S
C507 C506 1.394 . S
C507 C508 1.383 . S
C507 H515 0.929 . S
C508 C507 1.383 . S
C508 C509 1.377 . S
C509 H493 0.930 . S
C509 C508 1.377 . S
C509 C510 1.379 . S
C510 H494 0.931 . S
C510 C504 1.383 . S
C510 C509 1.379 . S
H511 C505 0.959 . S
H512 C505 0.961 . S
H513 C505 0.960 . S
H514 C506 0.930 . S
H515 C507 0.929 . S
H516 C524 0.929 . S
H517 C526 0.930 . S
H518 C528 0.930 . S
H519 C531 0.929 . S
H520 C534 0.930 . S
H521 C536 0.960 . S
H522 C536 0.960 . S
H523 C536 0.960 . S
C524 H516 0.929 . S
C524 C525 1.377 . S
C524 C526 1.384 . S
C525 C524 1.377 . S
C525 C531 1.390 . S
C526 H517 0.930 . S
C526 C524 1.384 . S
C526 C527 1.372 . S
C527 C526 1.372 . S
C527 C528 1.400 . S
C527 C532 1.490 . S
C528 H518 0.930 . S
C528 C527 1.400 . S
C528 C531 1.386 . S
H529 C545 0.930 . S
H530 C546 0.931 . S
C531 H519 0.929 . S
C531 C525 1.390 . S
C531 C528 1.386 . S
C532 C527 1.490 . S
C532 C534 1.395 1_565 S
C532 C535 1.403 . S
H533 C539 0.930 . S
C534 H520 0.930 . S
C534 C532 1.395 1_545 S
C534 C537 1.403 . S
C535 C532 1.403 . S
C535 C536 1.524 . S
C535 C539 1.400 . S
C536 H521 0.960 . S
C536 H522 0.960 . S
C536 H523 0.960 . S
C536 C535 1.524 . S
C537 C534 1.403 . S
C537 C538 1.392 . S
C537 C541 1.495 . S
C538 C537 1.392 . S
C538 C539 1.385 1_545 S
C538 C540 1.478 . S
C539 H533 0.930 . S
C539 C535 1.400 . S
C539 C538 1.385 1_565 S
C540 C538 1.478 . S
C540 C542 1.381 . S
C540 C546 1.383 . S
C541 C537 1.495 . S
C541 H547 0.959 . S
C541 H548 0.961 . S
C541 H549 0.960 . S
C542 C540 1.381 . S
C542 C543 1.394 . S
C542 H550 0.930 . S
C543 C542 1.394 . S
C543 C544 1.383 . S
C543 H551 0.929 . S
C544 C543 1.383 . S
C544 C545 1.377 . S
C545 H529 0.930 . S
C545 C544 1.377 . S
C545 C546 1.379 . S
C546 H530 0.931 . S
C546 C540 1.383 . S
C546 C545 1.379 . S
H547 C541 0.959 . S
H548 C541 0.961 . S
H549 C541 0.960 . S
H550 C542 0.930 . S
H551 C543 0.929 . S
H552 C560 0.929 . S
H553 C562 0.930 . S
H554 C564 0.930 . S
H555 C567 0.929 . S
H556 C570 0.930 . S
H557 C572 0.960 . S
H558 C572 0.960 . S
H559 C572 0.960 . S
C560 H552 0.929 . S
C560 C561 1.377 . S
C560 C562 1.384 1_554 S
C561 C560 1.377 . S
C561 C567 1.390 . S
C562 H553 0.930 . S
C562 C560 1.384 1_556 S
C562 C563 1.372 . S
C563 C562 1.372 . S
C563 C564 1.400 1_556 S
C563 C568 1.490 . S
C564 H554 0.930 . S
C564 C563 1.400 1_554 S
C564 C567 1.386 . S
H565 C581 0.930 . S
H566 C582 0.931 . S
C567 H555 0.929 . S
C567 C561 1.390 . S
C567 C564 1.386 . S
C568 C563 1.490 . S
C568 C570 1.395 . S
C568 C571 1.403 . S
H569 C575 0.930 . S
C570 H556 0.930 . S
C570 C568 1.395 . S
C570 C573 1.403 . S
C571 C568 1.403 . S
C571 C572 1.524 . S
C571 C575 1.400 . S
C572 H557 0.960 . S
C572 H558 0.960 . S
C572 H559 0.960 . S
C572 C571 1.524 . S
C573 C570 1.403 . S
C573 C574 1.392 . S
C573 C577 1.495 . S
C574 C573 1.392 . S
C574 C575 1.385 . S
C574 C576 1.478 . S
C575 H569 0.930 . S
C575 C571 1.400 . S
C575 C574 1.385 . S
C576 C574 1.478 . S
C576 C578 1.381 . S
C576 C582 1.383 . S
C577 C573 1.495 . S
C577 H583 0.959 . S
C577 H584 0.961 . S
C577 H585 0.960 . S
C578 C576 1.381 . S
C578 C579 1.394 . S
C578 H586 0.930 . S
C579 C578 1.394 . S
C579 C580 1.383 . S
C579 H587 0.929 . S
C580 C579 1.383 . S
C580 C581 1.377 . S
C581 H565 0.930 . S
C581 C580 1.377 . S
C581 C582 1.379 . S
C582 H566 0.931 . S
C582 C576 1.383 . S
C582 C581 1.379 . S
H583 C577 0.959 . S
H584 C577 0.961 . S
H585 C577 0.960 . S
H586 C578 0.930 . S
H587 C579 0.929 . S
H588 C596 0.929 . S
H589 C598 0.930 1_554 S
H590 C600 0.930 . S
H591 C603 0.929 . S
H592 C606 0.930 . S
H593 C608 0.960 . S
H594 C608 0.960 . S
H595 C608 0.960 . S
C596 H588 0.929 . S
C596 C597 1.377 . S
C596 C598 1.384 . S
C597 C596 1.377 . S
C597 C603 1.390 . S
C598 H589 0.930 1_556 S
C598 C596 1.384 . S
C598 C599 1.372 1_556 S
C599 C598 1.372 1_554 S
C599 C600 1.400 1_554 S
C599 C604 1.490 . S
C600 H590 0.930 . S
C600 C599 1.400 1_556 S
C600 C603 1.386 . S
H601 C617 0.930 . S
H602 C618 0.931 . S
C603 H591 0.929 . S
C603 C597 1.390 . S
C603 C600 1.386 . S
C604 C599 1.490 . S
C604 C606 1.395 1_455 S
C604 C607 1.403 . S
H605 C611 0.930 . S
C606 H592 0.930 . S
C606 C604 1.395 1_655 S
C606 C609 1.403 . S
C607 C604 1.403 . S
C607 C608 1.524 . S
C607 C611 1.400 . S
C608 H593 0.960 . S
C608 H594 0.960 . S
C608 H595 0.960 . S
C608 C607 1.524 . S
C609 C606 1.403 . S
C609 C610 1.392 . S
C609 C613 1.495 . S
C610 C609 1.392 . S
C610 C611 1.385 1_655 S
C610 C612 1.478 . S
C611 H605 0.930 . S
C611 C607 1.400 . S
C611 C610 1.385 1_455 S
C612 C610 1.478 . S
C612 C614 1.381 . S
C612 C618 1.383 . S
C613 C609 1.495 . S
C613 H619 0.959 . S
C613 H620 0.961 . S
C613 H621 0.960 . S
C614 C612 1.381 . S
C614 C615 1.394 . S
C614 H622 0.930 . S
C615 C614 1.394 . S
C615 C616 1.383 . S
C615 H623 0.929 . S
C616 C615 1.383 . S
C616 C617 1.377 . S
C617 H601 0.930 . S
C617 C616 1.377 . S
C617 C618 1.379 . S
C618 H602 0.931 . S
C618 C612 1.383 . S
C618 C617 1.379 . S
H619 C613 0.959 . S
H620 C613 0.961 . S
H621 C613 0.960 . S
H622 C614 0.930 . S
H623 C615 0.929 . S
H624 C632 0.929 . S
H625 C634 0.930 . S
H626 C636 0.930 . S
H627 C639 0.929 . S
H628 C642 0.930 . S
H629 C644 0.960 . S
H630 C644 0.960 . S
H631 C644 0.960 . S
C632 H624 0.929 . S
C632 C633 1.377 . S
C632 C634 1.384 . S
C633 C632 1.377 . S
C633 C639 1.390 . S
C634 H625 0.930 . S
C634 C632 1.384 . S
C634 C635 1.372 . S
C635 C634 1.372 . S
C635 C636 1.400 . S
C635 C640 1.490 . S
C636 H626 0.930 . S
C636 C635 1.400 . S
C636 C639 1.386 . S
H637 C653 0.930 . S
H638 C654 0.931 . S
C639 H627 0.929 . S
C639 C633 1.390 . S
C639 C636 1.386 . S
C640 C635 1.490 . S
C640 C642 1.395 . S
C640 C643 1.403 . S
H641 C647 0.930 . S
C642 H628 0.930 . S
C642 C640 1.395 . S
C642 C645 1.403 . S
C643 C640 1.403 . S
C643 C644 1.524 . S
C643 C647 1.400 . S
C644 H629 0.960 . S
C644 H630 0.960 . S
C644 H631 0.960 . S
C644 C643 1.524 . S
C645 C642 1.403 . S
C645 C646 1.392 . S
C645 C649 1.495 . S
C646 C645 1.392 . S
C646 C647 1.385 . S
C646 C648 1.478 . S
C647 H641 0.930 . S
C647 C643 1.400 . S
C647 C646 1.385 . S
C648 C646 1.478 . S
C648 C650 1.381 . S
C648 C654 1.383 . S
C649 C645 1.495 . S
C649 H655 0.959 . S
C649 H656 0.961 . S
C649 H657 0.960 . S
C650 C648 1.381 . S
C650 C651 1.394 . S
C650 H658 0.930 . S
C651 C650 1.394 . S
C651 C652 1.383 . S
C651 H659 0.929 . S
C652 C651 1.383 . S
C652 C653 1.377 . S
C653 H637 0.930 . S
C653 C652 1.377 . S
C653 C654 1.379 . S
C654 H638 0.931 . S
C654 C648 1.383 . S
C654 C653 1.379 . S
H655 C649 0.959 . S
H656 C649 0.961 . S
H657 C649 0.960 . S
H658 C650 0.930 . S
H659 C651 0.929 . S
H660 C668 0.929 . S
H661 C670 0.930 . S
H662 C672 0.930 . S
H663 C675 0.929 . S
H664 C678 0.930 . S
H665 C680 0.960 1_554 S
H666 C680 0.960 1_554 S
H667 C680 0.960 . S
C668 H660 0.929 . S
C668 C669 1.377 . S
C668 C670 1.384 . S
C669 C668 1.377 . S
C669 C675 1.390 . S
C670 H661 0.930 . S
C670 C668 1.384 . S
C670 C671 1.372 . S
C671 C670 1.372 . S
C671 C672 1.400 . S
C671 C676 1.490 . S
C672 H662 0.930 . S
C672 C671 1.400 . S
C672 C675 1.386 . S
H673 C689 0.930 . S
H674 C690 0.931 . S
C675 H663 0.929 . S
C675 C669 1.390 . S
C675 C672 1.386 . S
C676 C671 1.490 . S
C676 C678 1.395 . S
C676 C679 1.403 . S
H677 C683 0.930 . S
C678 H664 0.930 . S
C678 C676 1.395 . S
C678 C681 1.403 1_556 S
C679 C676 1.403 . S
C679 C680 1.524 . S
C679 C683 1.400 1_556 S
C680 H665 0.960 1_556 S
C680 H666 0.960 1_556 S
C680 H667 0.960 . S
C680 C679 1.524 . S
C681 C678 1.403 1_554 S
C681 C682 1.392 . S
C681 C685 1.495 . S
C682 C681 1.392 . S
C682 C683 1.385 . S
C682 C684 1.478 . S
C683 H677 0.930 . S
C683 C679 1.400 1_554 S
C683 C682 1.385 . S
C684 C682 1.478 . S
C684 C686 1.381 . S
C684 C690 1.383 . S
C685 C681 1.495 . S
C685 H691 0.959 . S
C685 H692 0.961 . S
C685 H693 0.960 . S
C686 C684 1.381 . S
C686 C687 1.394 . S
C686 H694 0.930 . S
C687 C686 1.394 . S
C687 C688 1.383 . S
C687 H695 0.929 . S
C688 C687 1.383 . S
C688 C689 1.377 . S
C689 H673 0.930 . S
C689 C688 1.377 . S
C689 C690 1.379 . S
C690 H674 0.931 . S
C690 C684 1.383 . S
C690 C689 1.379 . S
H691 C685 0.959 . S
H692 C685 0.961 . S
H693 C685 0.960 . S
H694 C686 0.930 . S
H695 C687 0.929 . S
H696 C704 0.929 . S
H697 C706 0.930 . S
H698 C708 0.930 . S
H699 C711 0.929 . S
H700 C714 0.930 . S
H701 C716 0.960 . S
H702 C716 0.960 . S
H703 C716 0.960 . S
C704 H696 0.929 . S
C704 C705 1.377 . S
C704 C706 1.384 . S
C705 C704 1.377 . S
C705 C711 1.390 . S
C706 H697 0.930 . S
C706 C704 1.384 . S
C706 C707 1.372 . S
C707 C706 1.372 . S
C707 C708 1.400 . S
C707 C712 1.490 . S
C708 H698 0.930 . S
C708 C707 1.400 . S
C708 C711 1.386 . S
H709 C725 0.930 . S
H710 C726 0.931 . S
C711 H699 0.929 . S
C711 C705 1.390 . S
C711 C708 1.386 . S
C712 C707 1.490 . S
C712 C714 1.395 . S
C712 C715 1.403 . S
H713 C719 0.930 . S
C714 H700 0.930 . S
C714 C712 1.395 . S
C714 C717 1.403 . S
C715 C712 1.403 . S
C715 C716 1.524 . S
C715 C719 1.400 . S
C716 H701 0.960 . S
C716 H702 0.960 . S
C716 H703 0.960 . S
C716 C715 1.524 . S
C717 C714 1.403 . S
C717 C718 1.392 . S
C717 C721 1.495 . S
C718 C717 1.392 . S
C718 C719 1.385 . S
C718 C720 1.478 . S
C719 H713 0.930 . S
C719 C715 1.400 . S
C719 C718 1.385 . S
C720 C718 1.478 . S
C720 C722 1.381 . S
C720 C726 1.383 . S
C721 C717 1.495 . S
C721 H727 0.959 . S
C721 H728 0.961 . S
C721 H729 0.960 . S
C722 C720 1.381 . S
C722 C723 1.394 . S
C722 H730 0.930 . S
C723 C722 1.394 . S
C723 C724 1.383 . S
C723 H731 0.929 . S
C724 C723 1.383 . S
C724 C725 1.377 . S
C725 H709 0.930 . S
C725 C724 1.377 . S
C725 C726 1.379 . S
C726 H710 0.931 . S
C726 C720 1.383 . S
C726 C725 1.379 . S
H727 C721 0.959 . S
H728 C721 0.961 . S
H729 C721 0.960 . S
H730 C722 0.930 . S
H731 C723 0.929 . S
H732 C740 0.929 . S
H733 C742 0.930 . S
H734 C744 0.930 . S
H735 C747 0.929 . S
H736 C750 0.930 . S
H737 C752 0.960 . S
H738 C752 0.960 . S
H739 C752 0.960 . S
C740 H732 0.929 . S
C740 C741 1.377 . S
C740 C742 1.384 . S
C741 C740 1.377 . S
C741 C747 1.390 . S
C742 H733 0.930 . S
C742 C740 1.384 . S
C742 C743 1.372 . S
C743 C742 1.372 . S
C743 C744 1.400 . S
C743 C748 1.490 . S
C744 H734 0.930 . S
C744 C743 1.400 . S
C744 C747 1.386 . S
H745 C761 0.930 . S
H746 C762 0.931 . S
C747 H735 0.929 . S
C747 C741 1.390 . S
C747 C744 1.386 . S
C748 C743 1.490 . S
C748 C750 1.395 . S
C748 C751 1.403 . S
H749 C755 0.930 . S
C750 H736 0.930 . S
C750 C748 1.395 . S
C750 C753 1.403 . S
C751 C748 1.403 . S
C751 C752 1.524 . S
C751 C755 1.400 . S
C752 H737 0.960 . S
C752 H738 0.960 . S
C752 H739 0.960 . S
C752 C751 1.524 . S
C753 C750 1.403 . S
C753 C754 1.392 . S
C753 C757 1.495 . S
C754 C753 1.392 . S
C754 C755 1.385 . S
C754 C756 1.478 . S
C755 H749 0.930 . S
C755 C751 1.400 . S
C755 C754 1.385 . S
C756 C754 1.478 . S
C756 C758 1.381 . S
C756 C762 1.383 . S
C757 C753 1.495 . S
C757 H763 0.959 . S
C757 H764 0.961 . S
C757 H765 0.960 . S
C758 C756 1.381 . S
C758 C759 1.394 . S
C758 H766 0.930 . S
C759 C758 1.394 . S
C759 C760 1.383 . S
C759 H767 0.929 . S
C760 C759 1.383 . S
C760 C761 1.377 . S
C761 H745 0.930 . S
C761 C760 1.377 . S
C761 C762 1.379 . S
C762 H746 0.931 . S
C762 C756 1.383 . S
C762 C761 1.379 . S
H763 C757 0.959 . S
H764 C757 0.961 . S
H765 C757 0.960 . S
H766 C758 0.930 . S
H767 C759 0.929 . S
H768 C776 0.929 . S
H769 C778 0.930 . S
H770 C780 0.930 . S
H771 C783 0.929 . S
H772 C786 0.930 . S
H773 C788 0.960 . S
H774 C788 0.960 . S
H775 C788 0.960 . S
C776 H768 0.929 . S
C776 C777 1.377 . S
C776 C778 1.384 . S
C777 C776 1.377 . S
C777 C783 1.390 . S
C778 H769 0.930 . S
C778 C776 1.384 . S
C778 C779 1.372 . S
C779 C778 1.372 . S
C779 C780 1.400 . S
C779 C784 1.490 . S
C780 H770 0.930 . S
C780 C779 1.400 . S
C780 C783 1.386 . S
H781 C797 0.930 . S
H782 C798 0.931 . S
C783 H771 0.929 . S
C783 C777 1.390 . S
C783 C780 1.386 . S
C784 C779 1.490 . S
C784 C786 1.395 . S
C784 C787 1.403 . S
H785 C791 0.930 . S
C786 H772 0.930 . S
C786 C784 1.395 . S
C786 C789 1.403 . S
C787 C784 1.403 . S
C787 C788 1.524 . S
C787 C791 1.400 . S
C788 H773 0.960 . S
C788 H774 0.960 . S
C788 H775 0.960 . S
C788 C787 1.524 . S
C789 C786 1.403 . S
C789 C790 1.392 . S
C789 C793 1.495 . S
C790 C789 1.392 . S
C790 C791 1.385 . S
C790 C792 1.478 . S
C791 H785 0.930 . S
C791 C787 1.400 . S
C791 C790 1.385 . S
C792 C790 1.478 . S
C792 C794 1.381 . S
C792 C798 1.383 . S
C793 C789 1.495 . S
C793 H799 0.959 . S
C793 H800 0.961 . S
C793 H801 0.960 . S
C794 C792 1.381 . S
C794 C795 1.394 . S
C794 H802 0.930 . S
C795 C794 1.394 . S
C795 C796 1.383 . S
C795 H803 0.929 . S
C796 C795 1.383 . S
C796 C797 1.377 . S
C797 H781 0.930 . S
C797 C796 1.377 . S
C797 C798 1.379 . S
C798 H782 0.931 . S
C798 C792 1.383 . S
C798 C797 1.379 . S
H799 C793 0.959 . S
H800 C793 0.961 . S
H801 C793 0.960 . S
H802 C794 0.930 . S
H803 C795 0.929 . S
H804 C812 0.929 . S
H805 C814 0.930 . S
H806 C816 0.930 . S
H807 C819 0.929 . S
H808 C822 0.930 . S
H809 C824 0.960 . S
H810 C824 0.960 . S
H811 C824 0.960 . S
C812 H804 0.929 . S
C812 C813 1.377 . S
C812 C814 1.384 . S
C813 C812 1.377 . S
C813 C819 1.390 . S
C814 H805 0.930 . S
C814 C812 1.384 . S
C814 C815 1.372 . S
C815 C814 1.372 . S
C815 C816 1.400 . S
C815 C820 1.490 . S
C816 H806 0.930 . S
C816 C815 1.400 . S
C816 C819 1.386 . S
H817 C833 0.930 . S
H818 C834 0.931 . S
C819 H807 0.929 . S
C819 C813 1.390 . S
C819 C816 1.386 . S
C820 C815 1.490 . S
C820 C822 1.395 . S
C820 C823 1.403 . S
H821 C827 0.930 . S
C822 H808 0.930 . S
C822 C820 1.395 . S
C822 C825 1.403 . S
C823 C820 1.403 . S
C823 C824 1.524 . S
C823 C827 1.400 . S
C824 H809 0.960 . S
C824 H810 0.960 . S
C824 H811 0.960 . S
C824 C823 1.524 . S
C825 C822 1.403 . S
C825 C826 1.392 . S
C825 C829 1.495 . S
C826 C825 1.392 . S
C826 C827 1.385 . S
C826 C828 1.478 . S
C827 H821 0.930 . S
C827 C823 1.400 . S
C827 C826 1.385 . S
C828 C826 1.478 . S
C828 C830 1.381 . S
C828 C834 1.383 . S
C829 C825 1.495 . S
C829 H835 0.959 . S
C829 H836 0.961 . S
C829 H837 0.960 . S
C830 C828 1.381 . S
C830 C831 1.394 . S
C830 H838 0.930 . S
C831 C830 1.394 . S
C831 C832 1.383 . S
C831 H839 0.929 . S
C832 C831 1.383 . S
C832 C833 1.377 . S
C833 H817 0.930 . S
C833 C832 1.377 . S
C833 C834 1.379 . S
C834 H818 0.931 . S
C834 C828 1.383 . S
C834 C833 1.379 . S
H835 C829 0.959 . S
H836 C829 0.961 . S
H837 C829 0.960 . S
H838 C830 0.930 . S
H839 C831 0.929 . S
C201 C2 1.222 . S
C220 N173 1.239 . S
C237 C34 1.231 . S
C256 N13 1.270 . S
C273 C66 1.229 . S
C292 N45 1.232 . S
C309 N77 1.255 . S
C328 C98 1.204 . S
C345 N109 1.252 . S
C364 C130 1.253 . S
C381 C162 1.224 . S
C400 N141 1.232 . S
C417 C4 0.960 . S
C436 N114 0.912 . S
C453 C36 0.951 . S
C472 N146 0.912 . S
C489 N178 0.949 . S
C508 C68 0.982 . S
C525 C100 0.953 . S
C544 N18 0.906 . S
C561 N50 0.939 . S
C580 C132 0.981 . S
C597 C164 0.954 . S
C616 N82 0.905 . S
C633 C6 1.489 . S
C652 C157 1.452 . S
C669 C189 1.436 . S
C688 C38 1.498 . S
C705 C29 1.437 . S
C724 C70 1.496 . S
C741 C102 1.489 . S
C760 C61 1.445 . S
C777 C93 1.434 . S
C796 C134 1.487 . S
C813 C125 1.432 . S
C832 C166 1.496 . S
