# Generated by pormake.
# Topology vbm, (6)-cn, num edge types: 1
# Building blocks:
#     Node 0, Type 0, BuildingBlock: BETFAJ_clean_sbu_0, # of connection points: 6
#     Node 1, Type 0, BuildingBlock: BETFAJ_clean_sbu_0, # of connection points: 6
#     Node 2, Type 0, BuildingBlock: BETFAJ_clean_sbu_0, # of connection points: 6
#     Node 3, Type 0, BuildingBlock: BETFAJ_clean_sbu_0, # of connection points: 6
#     Node 4, Type 0, BuildingBlock: BETFAJ_clean_sbu_0, # of connection points: 6
#     Node 5, Type 0, BuildingBlock: BETFAJ_clean_sbu_0, # of connection points: 6
#     Node 6, Type 0, BuildingBlock: BETFAJ_clean_sbu_0, # of connection points: 6
#     Node 7, Type 0, BuildingBlock: BETFAJ_clean_sbu_0, # of connection points: 6
#     Node 8, Type 0, BuildingBlock: BETFAJ_clean_sbu_0, # of connection points: 6
#     Node 9, Type 0, BuildingBlock: BETFAJ_clean_sbu_0, # of connection points: 6
#     Node 10, Type 0, BuildingBlock: BETFAJ_clean_sbu_0, # of connection points: 6
#     Node 11, Type 0, BuildingBlock: BETFAJ_clean_sbu_0, # of connection points: 6
#     Node 12, Type 0, BuildingBlock: BETFAJ_clean_sbu_0, # of connection points: 6
#     Node 13, Type 0, BuildingBlock: BETFAJ_clean_sbu_0, # of connection points: 6
#     Node 14, Type 0, BuildingBlock: BETFAJ_clean_sbu_0, # of connection points: 6
#     Node 15, Type 0, BuildingBlock: BETFAJ_clean_sbu_0, # of connection points: 6
#     Edge 16, Type (0, 0), BuildingBlock: XIVTED_clean_linker_0, # of connection points: 2
#     Edge 17, Type (0, 0), BuildingBlock: XIVTED_clean_linker_0, # of connection points: 2
#     Edge 18, Type (0, 0), BuildingBlock: XIVTED_clean_linker_0, # of connection points: 2
#     Edge 19, Type (0, 0), BuildingBlock: XIVTED_clean_linker_0, # of connection points: 2
#     Edge 20, Type (0, 0), BuildingBlock: XIVTED_clean_linker_0, # of connection points: 2
#     Edge 21, Type (0, 0), BuildingBlock: XIVTED_clean_linker_0, # of connection points: 2
#     Edge 22, Type (0, 0), BuildingBlock: XIVTED_clean_linker_0, # of connection points: 2
#     Edge 23, Type (0, 0), BuildingBlock: XIVTED_clean_linker_0, # of connection points: 2
#     Edge 24, Type (0, 0), BuildingBlock: XIVTED_clean_linker_0, # of connection points: 2
#     Edge 25, Type (0, 0), BuildingBlock: XIVTED_clean_linker_0, # of connection points: 2
#     Edge 26, Type (0, 0), BuildingBlock: XIVTED_clean_linker_0, # of connection points: 2
#     Edge 27, Type (0, 0), BuildingBlock: XIVTED_clean_linker_0, # of connection points: 2
#     Edge 28, Type (0, 0), BuildingBlock: XIVTED_clean_linker_0, # of connection points: 2
#     Edge 29, Type (0, 0), BuildingBlock: XIVTED_clean_linker_0, # of connection points: 2
#     Edge 30, Type (0, 0), BuildingBlock: XIVTED_clean_linker_0, # of connection points: 2
#     Edge 31, Type (0, 0), BuildingBlock: XIVTED_clean_linker_0, # of connection points: 2
#     Edge 32, Type (0, 0), BuildingBlock: XIVTED_clean_linker_0, # of connection points: 2
#     Edge 33, Type (0, 0), BuildingBlock: XIVTED_clean_linker_0, # of connection points: 2
#     Edge 34, Type (0, 0), BuildingBlock: XIVTED_clean_linker_0, # of connection points: 2
#     Edge 35, Type (0, 0), BuildingBlock: XIVTED_clean_linker_0, # of connection points: 2
#     Edge 36, Type (0, 0), BuildingBlock: XIVTED_clean_linker_0, # of connection points: 2
#     Edge 37, Type (0, 0), BuildingBlock: XIVTED_clean_linker_0, # of connection points: 2
#     Edge 38, Type (0, 0), BuildingBlock: XIVTED_clean_linker_0, # of connection points: 2
#     Edge 39, Type (0, 0), BuildingBlock: XIVTED_clean_linker_0, # of connection points: 2
#     Edge 40, Type (0, 0), BuildingBlock: XIVTED_clean_linker_0, # of connection points: 2
#     Edge 41, Type (0, 0), BuildingBlock: XIVTED_clean_linker_0, # of connection points: 2
#     Edge 42, Type (0, 0), BuildingBlock: XIVTED_clean_linker_0, # of connection points: 2
#     Edge 43, Type (0, 0), BuildingBlock: XIVTED_clean_linker_0, # of connection points: 2
#     Edge 44, Type (0, 0), BuildingBlock: XIVTED_clean_linker_0, # of connection points: 2
#     Edge 45, Type (0, 0), BuildingBlock: XIVTED_clean_linker_0, # of connection points: 2
#     Edge 46, Type (0, 0), BuildingBlock: XIVTED_clean_linker_0, # of connection points: 2
#     Edge 47, Type (0, 0), BuildingBlock: XIVTED_clean_linker_0, # of connection points: 2
#     Edge 48, Type (0, 0), BuildingBlock: XIVTED_clean_linker_0, # of connection points: 2
#     Edge 49, Type (0, 0), BuildingBlock: XIVTED_clean_linker_0, # of connection points: 2
#     Edge 50, Type (0, 0), BuildingBlock: XIVTED_clean_linker_0, # of connection points: 2
#     Edge 51, Type (0, 0), BuildingBlock: XIVTED_clean_linker_0, # of connection points: 2
#     Edge 52, Type (0, 0), BuildingBlock: XIVTED_clean_linker_0, # of connection points: 2
#     Edge 53, Type (0, 0), BuildingBlock: XIVTED_clean_linker_0, # of connection points: 2
#     Edge 54, Type (0, 0), BuildingBlock: XIVTED_clean_linker_0, # of connection points: 2
#     Edge 55, Type (0, 0), BuildingBlock: XIVTED_clean_linker_0, # of connection points: 2
#     Edge 56, Type (0, 0), BuildingBlock: XIVTED_clean_linker_0, # of connection points: 2
#     Edge 57, Type (0, 0), BuildingBlock: XIVTED_clean_linker_0, # of connection points: 2
#     Edge 58, Type (0, 0), BuildingBlock: XIVTED_clean_linker_0, # of connection points: 2
#     Edge 59, Type (0, 0), BuildingBlock: XIVTED_clean_linker_0, # of connection points: 2
#     Edge 60, Type (0, 0), BuildingBlock: XIVTED_clean_linker_0, # of connection points: 2
#     Edge 61, Type (0, 0), BuildingBlock: XIVTED_clean_linker_0, # of connection points: 2
#     Edge 62, Type (0, 0), BuildingBlock: XIVTED_clean_linker_0, # of connection points: 2
#     Edge 63, Type (0, 0), BuildingBlock: XIVTED_clean_linker_0, # of connection points: 2
# Relax obj value: 0.067
# Max RMSD: 0.142
# Mean RMSD: 0.142
data_MOF--net-vbm--node1-BETFAJ_clean_sbu_0--edge1-XIVTED_clean_linker_0
_symmetry_space_group_name_H-M    P1
_symmetry_Int_Tables_number       1
_symmetry_cell_setting            triclinic
loop_
_symmetry_equiv_pos_as_xyz
'x, y, z'
_cell_length_a     55.817097
_cell_length_b     26.160195
_cell_length_c     56.547785
_cell_angle_alpha  90.08947
_cell_angle_beta   90.188041
_cell_angle_gamma 90.136965
loop_
_atom_site_label
_atom_site_type_symbol
_atom_site_fract_x
_atom_site_fract_y
_atom_site_fract_z
_atom_type_partial_charge
Sm0 Sm 0.13256 0.06323 0.15855 0.0
Sm1 Sm 0.10931 0.17318 0.15405 0.0
C2 C 0.14353 0.97367 0.17749 0.0
C3 C 0.14039 0.91814 0.1739 0.0
C4 C 0.1378 0.88657 0.19374 0.0
C5 C 0.13492 0.83376 0.19108 0.0
C6 C 0.13456 0.81123 0.16847 0.0
C7 C 0.13714 0.8431 0.14855 0.0
C8 C 0.13996 0.8961 0.15124 0.0
C9 C 0.13148 0.08812 0.11114 0.0
C10 C 0.07628 0.07842 0.1414 0.0
C11 C 0.0971 0.2691 0.14461 0.0
C12 C 0.1041 0.32319 0.14839 0.0
C13 C 0.10771 0.35476 0.12866 0.0
C14 C 0.11249 0.40694 0.1315 0.0
C15 C 0.11368 0.42895 0.1542 0.0
C16 C 0.11051 0.39704 0.17399 0.0
C17 C 0.10579 0.34472 0.17113 0.0
C18 C 0.10625 0.12415 0.1974 0.0
C19 C 0.16715 0.16435 0.16471 0.0
O20 O 0.12431 0.99955 0.18318 0.0
O21 O 0.15767 0.9982 0.16287 0.0
O22 O 0.12387 0.11592 0.12788 0.0
O23 O 0.14029 0.04594 0.11952 0.0
O24 O 0.09167 0.04924 0.15314 0.0
O25 O 0.08132 0.12576 0.13548 0.0
O26 O 0.11063 0.24156 0.1307 0.0
O27 O 0.08869 0.24331 0.16261 0.0
O28 O 0.12416 0.12604 0.18399 0.0
O29 O 0.08865 0.15012 0.1883 0.0
O30 O 0.14851 0.19356 0.16004 0.0
O31 O 0.16574 0.11383 0.16614 0.0
H32 H 0.13812 0.90282 0.21138 0.0
H33 H 0.13334 0.81048 0.20682 0.0
H34 H 0.13665 0.82718 0.13087 0.0
H35 H 0.14175 0.91979 0.13565 0.0
H36 H 0.10629 0.33923 0.11093 0.0
H37 H 0.11451 0.43031 0.11585 0.0
H38 H 0.11161 0.41252 0.19174 0.0
H39 H 0.10314 0.32139 0.18672 0.0
Sm40 Sm 0.85042 0.97297 0.14442 0.0
Sm41 Sm 0.87504 0.8641 0.13961 0.0
C42 C 0.83922 0.0636 0.16222 0.0
C43 C 0.84307 0.11903 0.15773 0.0
C44 C 0.86543 0.14226 0.16205 0.0
C45 C 0.86848 0.195 0.1591 0.0
C46 C 0.84928 0.22605 0.15178 0.0
C47 C 0.82696 0.20269 0.14732 0.0
C48 C 0.82389 0.14989 0.15032 0.0
C49 C 0.85196 0.94829 0.09688 0.0
C50 C 0.90728 0.96031 0.12906 0.0
C51 C 0.88825 0.76866 0.13038 0.0
C52 C 0.88216 0.71439 0.13492 0.0
C53 C 0.85921 0.6944 0.13027 0.0
C54 C 0.85465 0.64193 0.13284 0.0
C55 C 0.87295 0.60832 0.14009 0.0
C56 C 0.89569 0.62888 0.14533 0.0
C57 C 0.90023 0.68118 0.14271 0.0
C58 C 0.87707 0.91247 0.18329 0.0
C59 C 0.81727 0.87002 0.1512 0.0
O60 O 0.85782 0.03686 0.16911 0.0
O61 O 0.8251 0.03841 0.14767 0.0
O62 O 0.85986 0.92097 0.11364 0.0
O63 O 0.84251 0.9897 0.10533 0.0
O64 O 0.89134 0.98778 0.14088 0.0
O65 O 0.9027 0.91354 0.12183 0.0
O66 O 0.87387 0.79509 0.11676 0.0
O67 O 0.89702 0.79539 0.14798 0.0
O68 O 0.85941 0.91001 0.16952 0.0
O69 O 0.89502 0.88735 0.17445 0.0
O70 O 0.83596 0.84206 0.14528 0.0
O71 O 0.81829 0.92051 0.15337 0.0
H72 H 0.88058 0.11989 0.16803 0.0
H73 H 0.88583 0.21157 0.16308 0.0
H74 H 0.81182 0.22516 0.14139 0.0
H75 H 0.8064 0.13324 0.14704 0.0
H76 H 0.84489 0.71906 0.12422 0.0
H77 H 0.83698 0.62754 0.12848 0.0
H78 H 0.9101 0.6045 0.15139 0.0
H79 H 0.91806 0.69562 0.14642 0.0
Sm80 Sm 0.13051 0.96408 0.39016 0.0
Sm81 Sm 0.10631 0.86161 0.39003 0.0
C82 C 0.14443 0.05985 0.38214 0.0
C83 C 0.13764 0.11447 0.38389 0.0
C84 C 0.13806 0.14467 0.3634 0.0
C85 C 0.13388 0.19731 0.36463 0.0
C86 C 0.12927 0.22123 0.38644 0.0
C87 C 0.12829 0.19069 0.40693 0.0
C88 C 0.13247 0.1379 0.40568 0.0
C89 C 0.13223 0.91636 0.43364 0.0
C90 C 0.07229 0.95471 0.40072 0.0
C91 C 0.09175 0.76548 0.39565 0.0
C92 C 0.09919 0.71111 0.39451 0.0
C93 C 0.09838 0.68137 0.41514 0.0
C94 C 0.1031 0.6289 0.41435 0.0
C95 C 0.10863 0.60463 0.39283 0.0
C96 C 0.11 0.63471 0.37222 0.0
C97 C 0.10529 0.68733 0.37303 0.0
C98 C 0.10524 0.91397 0.34734 0.0
C99 C 0.1639 0.8663 0.38097 0.0
O100 O 0.13324 0.03177 0.36645 0.0
O101 O 0.14932 0.03498 0.40161 0.0
O102 O 0.11405 0.91732 0.42016 0.0
O103 O 0.14998 0.94107 0.4242 0.0
O104 O 0.08987 0.9838 0.39256 0.0
O105 O 0.07552 0.90602 0.40513 0.0
O106 O 0.10054 0.7934 0.41282 0.0
O107 O 0.08931 0.79085 0.37588 0.0
O108 O 0.12306 0.90898 0.36083 0.0
O109 O 0.08684 0.89001 0.35598 0.0
O110 O 0.14592 0.83977 0.38965 0.0
O111 O 0.16179 0.91555 0.37637 0.0
H112 H 0.14207 0.12762 0.34639 0.0
H113 H 0.13436 0.21931 0.34843 0.0
H114 H 0.12499 0.20777 0.42406 0.0
H115 H 0.13212 0.1157 0.42183 0.0
H116 H 0.09361 0.69859 0.43191 0.0
H117 H 0.10229 0.6073 0.43064 0.0
H118 H 0.11397 0.61736 0.35529 0.0
H119 H 0.10594 0.70907 0.35677 0.0
Sm120 Sm 0.84909 0.06893 0.37243 0.0
Sm121 Sm 0.87368 0.17871 0.37473 0.0
C122 C 0.83736 0.9777 0.35553 0.0
C123 C 0.84099 0.92216 0.3596 0.0
C124 C 0.8612 0.89716 0.35038 0.0
C125 C 0.86366 0.84417 0.35241 0.0
C126 C 0.84592 0.81466 0.3636 0.0
C127 C 0.8259 0.83973 0.3732 0.0
C128 C 0.82341 0.89283 0.37113 0.0
C129 C 0.85051 0.09978 0.41916 0.0
C130 C 0.90558 0.08349 0.38928 0.0
C131 C 0.88734 0.27482 0.38165 0.0
C132 C 0.8799 0.32846 0.37804 0.0
C133 C 0.85767 0.34686 0.38595 0.0
C134 C 0.85194 0.39879 0.38368 0.0
C135 C 0.86826 0.43319 0.37333 0.0
C136 C 0.89027 0.41429 0.36507 0.0
C137 C 0.89602 0.36259 0.36746 0.0
C138 C 0.87668 0.12475 0.33269 0.0
C139 C 0.81556 0.17045 0.36496 0.0
O140 O 0.85587 1.00419 0.34818 0.0
O141 O 0.82382 1.00302 0.37042 0.0
O142 O 0.85839 0.12457 0.40162 0.0
O143 O 0.84106 0.05702 0.41201 0.0
O144 O 0.88968 0.05369 0.37844 0.0
O145 O 0.90144 0.13196 0.39382 0.0
O146 O 0.87583 0.24779 0.39746 0.0
O147 O 0.89312 0.24845 0.36285 0.0
O148 O 0.85856 0.12876 0.34576 0.0
O149 O 0.89448 0.15083 0.34148 0.0
O150 O 0.83441 0.1995 0.36939 0.0
O151 O 0.81659 0.11989 0.36382 0.0
H152 H 0.87502 0.91835 0.34121 0.0
H153 H 0.87948 0.82629 0.34512 0.0
H154 H 0.81176 0.81817 0.38169 0.0
H155 H 0.80746 0.91077 0.37812 0.0
H156 H 0.84482 0.32135 0.39411 0.0
H157 H 0.83472 0.41198 0.38998 0.0
H158 H 0.9034 0.43974 0.35731 0.0
H159 H 0.91333 0.34937 0.36138 0.0
Sm160 Sm 0.87184 0.88258 0.87781 0.0
Sm161 Sm 0.84673 0.99192 0.87327 0.0
C162 C 0.88515 0.78737 0.88746 0.0
C163 C 0.87943 0.73307 0.88248 0.0
C164 C 0.85578 0.71444 0.88261 0.0
C165 C 0.85117 0.66209 0.87944 0.0
C166 C 0.87009 0.62729 0.87599 0.0
C167 C 0.89368 0.64644 0.87551 0.0
C168 C 0.89826 0.69862 0.87872 0.0
C169 C 0.87407 0.93123 0.83438 0.0
C170 C 0.81368 0.8886 0.867 0.0
C171 C 0.83465 0.08251 0.85601 0.0
C172 C 0.83825 0.13796 0.86047 0.0
C173 C 0.86131 0.15958 0.86194 0.0
C174 C 0.86428 0.21254 0.86443 0.0
C175 C 0.8443 0.24521 0.8656 0.0
C176 C 0.82125 0.22331 0.86463 0.0
C177 C 0.81829 0.17036 0.86201 0.0
C178 C 0.84918 0.96532 0.9207 0.0
C179 C 0.90308 0.98061 0.8895 0.0
O180 O 0.86999 0.81335 0.90035 0.0
O181 O 0.89456 0.81439 0.87036 0.0
O182 O 0.85619 0.92925 0.84788 0.0
O183 O 0.89178 0.90531 0.84329 0.0
O184 O 0.83272 0.86051 0.87176 0.0
O185 O 0.8144 0.93919 0.8654 0.0
O186 O 0.85322 0.05629 0.84872 0.0
O187 O 0.8211 0.05706 0.87083 0.0
O188 O 0.85679 0.93952 0.90341 0.0
O189 O 0.83962 1.00726 0.91289 0.0
O190 O 0.88758 1.00705 0.87664 0.0
O191 O 0.89872 0.93361 0.89659 0.0
H192 H 0.84089 0.74018 0.88543 0.0
H193 H 0.83276 0.64893 0.87961 0.0
H194 H 0.90875 0.62092 0.87326 0.0
H195 H 0.91665 0.712 0.87872 0.0
H196 H 0.8771 0.13571 0.86091 0.0
H197 H 0.88229 0.22789 0.86548 0.0
H198 H 0.80545 0.24721 0.86522 0.0
H199 H 0.80032 0.15477 0.86076 0.0
Sm200 Sm 0.10796 0.16271 0.89265 0.0
Sm201 Sm 0.13309 0.05331 0.88666 0.0
C202 C 0.09554 0.25788 0.90363 0.0
C203 C 0.10211 0.31234 0.89955 0.0
C204 C 0.10999 0.34254 0.91864 0.0
C205 C 0.11454 0.39486 0.91572 0.0
C206 C 0.11118 0.41856 0.89362 0.0
C207 C 0.10363 0.38808 0.87441 0.0
C208 C 0.09915 0.33566 0.87733 0.0
C209 C 0.10655 0.11728 0.84832 0.0
C210 C 0.16601 0.15703 0.88119 0.0
C211 C 0.14474 0.96339 0.86828 0.0
C212 C 0.14135 0.90776 0.87216 0.0
C213 C 0.1346 0.87673 0.85299 0.0
C214 C 0.13138 0.82401 0.85588 0.0
C215 C 0.1349 0.80081 0.87807 0.0
C216 C 0.1417 0.83206 0.89731 0.0
C217 C 0.14483 0.88497 0.89441 0.0
C218 C 0.13007 0.07659 0.93451 0.0
C219 C 0.07589 0.0649 0.90015 0.0
O220 O 0.1101 0.23034 0.91657 0.0
O221 O 0.08597 0.23203 0.88611 0.0
O222 O 0.12403 0.11807 0.86241 0.0
O223 O 0.08873 0.14308 0.85705 0.0
O224 O 0.14717 0.18456 0.88719 0.0
O225 O 0.16516 0.10661 0.87853 0.0
O226 O 0.12575 0.98924 0.86179 0.0
O227 O 0.15863 0.98866 0.88302 0.0
O228 O 0.12269 0.10366 0.91752 0.0
O229 O 0.13963 0.0352 0.92613 0.0
O230 O 0.09204 0.03966 0.88762 0.0
O231 O 0.08016 0.11055 0.90905 0.0
H232 H 0.11217 0.32584 0.93603 0.0
H233 H 0.12001 0.41703 0.931 0.0
H234 H 0.10116 0.40472 0.85706 0.0
H235 H 0.09306 0.31366 0.86222 0.0
H236 H 0.13189 0.89334 0.83564 0.0
H237 H 0.1265 0.80129 0.84058 0.0
H238 H 0.14429 0.81574 0.91471 0.0
H239 H 0.14991 0.90797 0.90956 0.0
Sm240 Sm 0.87533 0.18148 0.63842 0.0
Sm241 Sm 0.8505 0.07935 0.63913 0.0
C242 C 0.89005 0.27728 0.63171 0.0
C243 C 0.88429 0.33204 0.63538 0.0
C244 C 0.8616 0.3523 0.63001 0.0
C245 C 0.85751 0.40516 0.6315 0.0
C246 C 0.87603 0.43893 0.63829 0.0
C247 C 0.89848 0.41812 0.64427 0.0
C248 C 0.90253 0.36542 0.6428 0.0
C249 C 0.87578 0.13164 0.68174 0.0
C250 C 0.81786 0.17828 0.64883 0.0
C251 C 0.83628 0.98368 0.64724 0.0
C252 C 0.84181 0.92876 0.64371 0.0
C253 C 0.86453 0.90828 0.64875 0.0
C254 C 0.86846 0.85535 0.64733 0.0
C255 C 0.84974 0.8217 0.64092 0.0
C256 C 0.82723 0.84272 0.63532 0.0
C257 C 0.82334 0.89548 0.63674 0.0
C258 C 0.84927 0.12579 0.59527 0.0
C259 C 0.9087 0.08687 0.62839 0.0
O260 O 0.87719 0.25155 0.61638 0.0
O261 O 0.89616 0.25012 0.65015 0.0
O262 O 0.85813 0.13557 0.66797 0.0
O263 O 0.89417 0.15576 0.67321 0.0
O264 O 0.83583 0.20426 0.63979 0.0
O265 O 0.81982 0.12901 0.65356 0.0
O266 O 0.84984 1.01 0.66174 0.0
O267 O 0.82926 1.01017 0.62892 0.0
O268 O 0.86741 0.12452 0.60879 0.0
O269 O 0.83141 0.10168 0.60478 0.0
O270 O 0.89099 0.05879 0.63699 0.0
O271 O 0.90564 0.13528 0.62317 0.0
H272 H 0.84718 0.32748 0.62417 0.0
H273 H 0.84003 0.41967 0.62659 0.0
H274 H 0.91305 0.44261 0.65002 0.0
H275 H 0.92018 0.35078 0.64701 0.0
H276 H 0.87914 0.933 0.65423 0.0
H277 H 0.88598 0.84071 0.65195 0.0
H278 H 0.8125 0.81835 0.62987 0.0
H279 H 0.80565 0.91027 0.6328 0.0
Sm280 Sm 0.10746 0.86141 0.65379 0.0
Sm281 Sm 0.13256 0.97141 0.6567 0.0
C282 C 0.09355 0.76606 0.64485 0.0
C283 C 0.09923 0.71165 0.64887 0.0
C284 C 0.12262 0.69497 0.65375 0.0
C285 C 0.12745 0.64262 0.65641 0.0
C286 C 0.10897 0.60602 0.65425 0.0
C287 C 0.08557 0.62331 0.64952 0.0
C288 C 0.08079 0.67545 0.6469 0.0
C289 C 0.10521 0.91327 0.69645 0.0
C290 C 0.16555 0.86863 0.66422 0.0
C291 C 0.14495 0.06236 0.67356 0.0
C292 C 0.14154 0.11754 0.66898 0.0
C293 C 0.1195 0.13692 0.66099 0.0
C294 C 0.11616 0.18973 0.65849 0.0
C295 C 0.13481 0.22432 0.66381 0.0
C296 C 0.15703 0.20455 0.67123 0.0
C297 C 0.16031 0.15177 0.67383 0.0
C298 C 0.13042 0.94149 0.60979 0.0
C299 C 0.07586 0.95841 0.64057 0.0
O300 O 0.10795 0.79208 0.63112 0.0
O301 O 0.08575 0.7926 0.66287 0.0
O302 O 0.12306 0.91053 0.68294 0.0
O303 O 0.08752 0.88636 0.688 0.0
O304 O 0.14652 0.83985 0.66011 0.0
O305 O 0.16484 0.9193 0.66494 0.0
O306 O 0.12615 0.03666 0.68081 0.0
O307 O 0.15832 0.03662 0.65871 0.0
O308 O 0.12267 0.91669 0.62736 0.0
O309 O 0.14012 0.98393 0.61702 0.0
O310 O 0.09198 0.98735 0.65156 0.0
O311 O 0.07979 0.91011 0.63538 0.0
H312 H 0.13713 0.72231 0.65533 0.0
H313 H 0.14563 0.6309 0.6603 0.0
H314 H 0.07093 0.59648 0.6473 0.0
H315 H 0.06265 0.68749 0.64298 0.0
H316 H 0.10474 0.1113 0.657 0.0
H317 H 0.09893 0.20349 0.6524 0.0
H318 H 0.17172 0.22993 0.67572 0.0
H319 H 0.17743 0.13771 0.68011 0.0
Sm320 Sm 0.63235 0.56921 0.159 0.0
Sm321 Sm 0.60693 0.67718 0.16062 0.0
C322 C 0.64539 0.47666 0.17311 0.0
C323 C 0.6426 0.42198 0.16713 0.0
C324 C 0.65915 0.38667 0.17608 0.0
C325 C 0.65594 0.33419 0.1723 0.0
C326 C 0.63603 0.31576 0.15947 0.0
C327 C 0.61973 0.35155 0.15007 0.0
C328 C 0.62298 0.40412 0.15386 0.0
C329 C 0.63119 0.60678 0.11344 0.0
C330 C 0.5753 0.58275 0.14313 0.0
C331 C 0.59248 0.77388 0.15986 0.0
C332 C 0.59998 0.82755 0.15591 0.0
C333 C 0.5848 0.86012 0.14312 0.0
C334 C 0.58988 0.9124 0.14135 0.0
C335 C 0.61028 0.9335 0.1524 0.0
C336 C 0.62594 0.90039 0.16453 0.0
C337 C 0.62082 0.84799 0.16631 0.0
C338 C 0.60441 0.61664 0.20075 0.0
C339 C 0.66533 0.67109 0.16506 0.0
O340 O 0.6262 0.50019 0.18077 0.0
O341 O 0.65852 0.5049 0.15903 0.0
O342 O 0.6229 0.62907 0.13156 0.0
O343 O 0.64088 0.56353 0.11934 0.0
O344 O 0.59207 0.55201 0.15177 0.0
O345 O 0.57816 0.63256 0.14169 0.0
O346 O 0.59081 0.74348 0.14149 0.0
O347 O 0.60057 0.75092 0.17881 0.0
O348 O 0.62254 0.62372 0.18798 0.0
O349 O 0.58635 0.64242 0.19256 0.0
O350 O 0.64646 0.69814 0.15882 0.0
O351 O 0.66427 0.62119 0.16892 0.0
H352 H 0.67433 0.39964 0.18649 0.0
H353 H 0.6687 0.30798 0.18009 0.0
H354 H 0.60439 0.33894 0.13983 0.0
H355 H 0.60999 0.43076 0.14676 0.0
H356 H 0.56861 0.84531 0.13497 0.0
H357 H 0.57764 0.93641 0.13149 0.0
H358 H 0.64171 0.91519 0.17342 0.0
H359 H 0.63282 0.82381 0.17637 0.0
Sm360 Sm 0.35128 0.46598 0.14353 0.0
Sm361 Sm 0.37698 0.35775 0.14366 0.0
C362 C 0.33812 0.55817 0.15811 0.0
C363 C 0.34075 0.61294 0.15223 0.0
C364 C 0.32434 0.6482 0.16141 0.0
C365 C 0.32748 0.70074 0.15773 0.0
C366 C 0.34718 0.71926 0.14478 0.0
C367 C 0.36334 0.68352 0.13515 0.0
C368 C 0.36016 0.63091 0.13884 0.0
C369 C 0.35281 0.4308 0.09737 0.0
C370 C 0.40888 0.45377 0.12967 0.0
C371 C 0.3916 0.26127 0.14107 0.0
C372 C 0.38385 0.2075 0.13788 0.0
C373 C 0.39864 0.174 0.12523 0.0
C374 C 0.39339 0.12169 0.12413 0.0
C375 C 0.3732 0.10149 0.13574 0.0
C376 C 0.35789 0.13555 0.14772 0.0
C377 C 0.36319 0.18799 0.14882 0.0
C378 C 0.37925 0.41591 0.18471 0.0
C379 C 0.31886 0.36328 0.15036 0.0
O380 O 0.35747 0.53479 0.16556 0.0
O381 O 0.32486 0.52987 0.14404 0.0
O382 O 0.36101 0.40784 0.11534 0.0
O383 O 0.34293 0.47348 0.10379 0.0
O384 O 0.3918 0.48327 0.13855 0.0
O385 O 0.40601 0.40435 0.12634 0.0
O386 O 0.39097 0.29174 0.12272 0.0
O387 O 0.38565 0.28402 0.16082 0.0
O388 O 0.36121 0.40954 0.17159 0.0
O389 O 0.39735 0.39045 0.17644 0.0
O390 O 0.33737 0.33661 0.1429 0.0
O391 O 0.32011 0.41309 0.15453 0.0
H392 H 0.30934 0.63516 0.17193 0.0
H393 H 0.31484 0.72689 0.16569 0.0
H394 H 0.37851 0.69618 0.1248 0.0
H395 H 0.37306 0.60435 0.13157 0.0
H396 H 0.41468 0.18813 0.11666 0.0
H397 H 0.40534 0.09697 0.11435 0.0
H398 H 0.34228 0.12148 0.157 0.0
H399 H 0.35149 0.21299 0.15876 0.0
Sm400 Sm 0.63116 0.46308 0.39451 0.0
Sm401 Sm 0.60696 0.36095 0.3953 0.0
C402 C 0.64481 0.55883 0.38596 0.0
C403 C 0.63811 0.61354 0.38825 0.0
C404 C 0.63156 0.64127 0.36798 0.0
C405 C 0.62761 0.69401 0.36919 0.0
C406 C 0.63026 0.72059 0.3907 0.0
C407 C 0.63631 0.69262 0.41111 0.0
C408 C 0.64026 0.63977 0.4099 0.0
C409 C 0.6329 0.41714 0.43844 0.0
C410 C 0.57294 0.45436 0.40519 0.0
C411 C 0.59284 0.26474 0.40176 0.0
C412 C 0.60043 0.21044 0.39992 0.0
C413 C 0.60764 0.18379 0.42031 0.0
C414 C 0.61237 0.13131 0.4194 0.0
C415 C 0.60987 0.1039 0.3981 0.0
C416 C 0.60317 0.1308 0.37757 0.0
C417 C 0.59843 0.18336 0.37849 0.0
C418 C 0.60579 0.41121 0.35207 0.0
C419 C 0.66437 0.36522 0.38523 0.0
O420 O 0.63275 0.53086 0.37085 0.0
O421 O 0.65087 0.53364 0.40501 0.0
O422 O 0.61469 0.4177 0.42499 0.0
O423 O 0.65066 0.44131 0.42874 0.0
O424 O 0.59056 0.48295 0.39677 0.0
O425 O 0.57614 0.4059 0.41013 0.0
O426 O 0.60266 0.2928 0.41834 0.0
O427 O 0.58893 0.29027 0.38226 0.0
O428 O 0.62366 0.407 0.36556 0.0
O429 O 0.58746 0.38746 0.36097 0.0
O430 O 0.64659 0.33906 0.3945 0.0
O431 O 0.66213 0.41427 0.38029 0.0
H432 H 0.62998 0.62231 0.35099 0.0
H433 H 0.62261 0.71402 0.35317 0.0
H434 H 0.63877 0.71179 0.42793 0.0
H435 H 0.64555 0.61977 0.42583 0.0
H436 H 0.60914 0.2033 0.43716 0.0
H437 H 0.61783 0.11211 0.43548 0.0
H438 H 0.60076 0.11094 0.36092 0.0
H439 H 0.5926 0.20244 0.3625 0.0
Sm440 Sm 0.3502 0.57218 0.37521 0.0
Sm441 Sm 0.37487 0.68178 0.37665 0.0
C442 C 0.33782 0.48068 0.35913 0.0
C443 C 0.34143 0.4255 0.36368 0.0
C444 C 0.3645 0.40445 0.36566 0.0
C445 C 0.36754 0.35154 0.36774 0.0
C446 C 0.3476 0.3185 0.36803 0.0
C447 C 0.32452 0.33985 0.36677 0.0
C448 C 0.32149 0.39276 0.36453 0.0
C449 C 0.35233 0.6039 0.42187 0.0
C450 C 0.40685 0.58637 0.39112 0.0
C451 C 0.38897 0.77765 0.38364 0.0
C452 C 0.38246 0.83162 0.37968 0.0
C453 C 0.35864 0.84864 0.38088 0.0
C454 C 0.35335 0.90078 0.37845 0.0
C455 C 0.37178 0.93679 0.37472 0.0
C456 C 0.39553 0.91918 0.37321 0.0
C457 C 0.40077 0.86724 0.37566 0.0
C458 C 0.37697 0.62742 0.33459 0.0
C459 C 0.3167 0.67376 0.36726 0.0
O460 O 0.35628 0.50664 0.35127 0.0
O461 O 0.32468 0.50646 0.37417 0.0
O462 O 0.36 0.62841 0.40415 0.0
O463 O 0.34274 0.56113 0.41494 0.0
O464 O 0.3908 0.55655 0.38054 0.0
O465 O 0.40281 0.63494 0.39553 0.0
O466 O 0.37623 0.75166 0.39888 0.0
O467 O 0.39529 0.75068 0.3652 0.0
O468 O 0.35916 0.63144 0.34807 0.0
O469 O 0.39487 0.6539 0.34289 0.0
O470 O 0.33563 0.70289 0.37126 0.0
O471 O 0.31769 0.62315 0.3666 0.0
H472 H 0.38025 0.42872 0.36519 0.0
H473 H 0.38555 0.33646 0.36904 0.0
H474 H 0.30879 0.31555 0.36673 0.0
H475 H 0.30354 0.40803 0.36291 0.0
H476 H 0.34418 0.82178 0.38393 0.0
H477 H 0.33484 0.91284 0.37943 0.0
H478 H 0.41024 0.94569 0.37074 0.0
H479 H 0.41928 0.85495 0.37482 0.0
Sm480 Sm 0.37597 0.35533 0.87531 0.0
Sm481 Sm 0.35004 0.46282 0.87684 0.0
C482 C 0.39065 0.25873 0.87636 0.0
C483 C 0.38334 0.20484 0.88018 0.0
C484 C 0.39867 0.17231 0.89281 0.0
C485 C 0.39384 0.11987 0.89436 0.0
C486 C 0.37353 0.09852 0.88325 0.0
C487 C 0.35769 0.13157 0.8713 0.0
C488 C 0.36257 0.18413 0.86973 0.0
C489 C 0.37755 0.41479 0.8348 0.0
C490 C 0.31743 0.36019 0.87141 0.0
C491 C 0.33655 0.55517 0.86278 0.0
C492 C 0.33928 0.61002 0.86861 0.0
C493 C 0.32223 0.64492 0.86024 0.0
C494 C 0.3253 0.69753 0.86385 0.0
C495 C 0.34557 0.71655 0.87593 0.0
C496 C 0.36241 0.68118 0.88473 0.0
C497 C 0.35929 0.62848 0.88111 0.0
C498 C 0.35232 0.42645 0.92262 0.0
C499 C 0.40767 0.45105 0.89104 0.0
O500 O 0.39198 0.28921 0.89473 0.0
O501 O 0.38274 0.28154 0.8573 0.0
O502 O 0.35964 0.40797 0.84794 0.0
O503 O 0.39581 0.38935 0.84279 0.0
O504 O 0.33651 0.33368 0.87753 0.0
O505 O 0.31821 0.41007 0.86743 0.0
O506 O 0.35565 0.53176 0.85487 0.0
O507 O 0.32369 0.52687 0.87708 0.0
O508 O 0.36038 0.40381 0.90448 0.0
O509 O 0.34231 0.46927 0.91661 0.0
O510 O 0.39039 0.48098 0.88282 0.0
O511 O 0.40522 0.40119 0.89295 0.0
H512 H 0.41482 0.1873 0.90098 0.0
H513 H 0.40622 0.09594 0.90409 0.0
H514 H 0.34197 0.11661 0.86238 0.0
H515 H 0.35046 0.20826 0.85978 0.0
H516 H 0.30674 0.63154 0.8504 0.0
H517 H 0.31211 0.72336 0.85651 0.0
H518 H 0.37805 0.69419 0.8944 0.0
H519 H 0.37269 0.60221 0.88776 0.0
Sm520 Sm 0.60592 0.68729 0.89444 0.0
Sm521 Sm 0.63129 0.58602 0.89428 0.0
C522 C 0.59123 0.7832 0.90054 0.0
C523 C 0.59869 0.83779 0.89914 0.0
C524 C 0.60222 0.86598 0.92005 0.0
C525 C 0.60686 0.91859 0.91927 0.0
C526 C 0.60794 0.94467 0.89754 0.0
C527 C 0.60492 0.9162 0.87656 0.0
C528 C 0.60029 0.86348 0.87735 0.0
C529 C 0.60487 0.63536 0.85166 0.0
C530 C 0.66364 0.68548 0.88466 0.0
C531 C 0.64563 0.49032 0.88665 0.0
C532 C 0.63866 0.43552 0.88831 0.0
C533 C 0.63518 0.40701 0.86749 0.0
C534 C 0.63096 0.35425 0.86842 0.0
C535 C 0.63023 0.32838 0.89022 0.0
C536 C 0.63321 0.35717 0.91111 0.0
C537 C 0.63743 0.41003 0.91017 0.0
C538 C 0.63243 0.63426 0.93779 0.0
C539 C 0.57281 0.5918 0.9044 0.0
O540 O 0.60041 0.75534 0.91748 0.0
O541 O 0.58824 0.7576 0.88086 0.0
O542 O 0.62284 0.64052 0.86502 0.0
O543 O 0.58651 0.65916 0.8604 0.0
O544 O 0.64539 0.71104 0.89337 0.0
O545 O 0.66211 0.63596 0.88031 0.0
O546 O 0.63495 0.51828 0.87064 0.0
O547 O 0.65008 0.51556 0.90616 0.0
O548 O 0.61426 0.63169 0.92434 0.0
O549 O 0.65053 0.61094 0.92828 0.0
O550 O 0.59091 0.56412 0.8964 0.0
O551 O 0.57523 0.64079 0.9089 0.0
H552 H 0.60091 0.8475 0.93713 0.0
H553 H 0.60946 0.9389 0.93579 0.0
H554 H 0.60534 0.9349 0.8595 0.0
H555 H 0.5974 0.84317 0.86088 0.0
H556 H 0.6362 0.4254 0.85037 0.0
H557 H 0.62837 0.33369 0.85197 0.0
H558 H 0.63303 0.33863 0.92821 0.0
H559 H 0.64026 0.43064 0.92658 0.0
Sm560 Sm 0.37666 0.68322 0.64384 0.0
Sm561 Sm 0.35205 0.57476 0.64378 0.0
C562 C 0.39064 0.78037 0.64196 0.0
C563 C 0.38252 0.8336 0.63838 0.0
C564 C 0.39851 0.86936 0.62882 0.0
C565 C 0.39246 0.92121 0.62768 0.0
C566 C 0.37019 0.9386 0.63609 0.0
C567 C 0.35386 0.90225 0.645 0.0
C568 C 0.35998 0.85031 0.64617 0.0
C569 C 0.37878 0.62667 0.68529 0.0
C570 C 0.31863 0.67584 0.64888 0.0
C571 C 0.33898 0.48256 0.65843 0.0
C572 C 0.34102 0.42761 0.65255 0.0
C573 C 0.32226 0.39441 0.65859 0.0
C574 C 0.32443 0.34164 0.65503 0.0
C575 C 0.34547 0.32074 0.64537 0.0
C576 C 0.36404 0.35439 0.63877 0.0
C577 C 0.36184 0.40727 0.64233 0.0
C578 C 0.35364 0.60763 0.59737 0.0
C579 C 0.40977 0.58927 0.63081 0.0
O580 O 0.39122 0.74976 0.62362 0.0
O581 O 0.38374 0.75751 0.66134 0.0
O582 O 0.36083 0.63185 0.67199 0.0
O583 O 0.39689 0.65195 0.67688 0.0
O584 O 0.33705 0.70257 0.64123 0.0
O585 O 0.32029 0.62659 0.65401 0.0
O586 O 0.35857 0.50583 0.6655 0.0
O587 O 0.32545 0.51099 0.64478 0.0
O588 O 0.36157 0.63233 0.61507 0.0
O589 O 0.34424 0.56476 0.60419 0.0
O590 O 0.39287 0.55922 0.63973 0.0
O591 O 0.40633 0.63823 0.62695 0.0
H592 H 0.41608 0.8574 0.6229 0.0
H593 H 0.40566 0.94789 0.621 0.0
H594 H 0.33642 0.91395 0.65131 0.0
H595 H 0.34733 0.82346 0.65368 0.0
H596 H 0.30603 0.40925 0.66647 0.0
H597 H 0.30958 0.31718 0.65995 0.0
H598 H 0.38059 0.3398 0.63148 0.0
H599 H 0.3766 0.43212 0.63754 0.0
Sm600 Sm 0.60871 0.36809 0.66026 0.0
Sm601 Sm 0.63344 0.47723 0.66089 0.0
C602 C 0.59488 0.27136 0.65556 0.0
C603 C 0.60349 0.21782 0.65728 0.0
C604 C 0.61585 0.19444 0.63852 0.0
C605 C 0.62196 0.14257 0.63959 0.0
C606 C 0.61585 0.11287 0.65941 0.0
C607 C 0.6038 0.13654 0.67828 0.0
C608 C 0.59762 0.18826 0.67718 0.0
C609 C 0.60649 0.42422 0.70174 0.0
C610 C 0.66706 0.37594 0.66796 0.0
C611 C 0.64559 0.56851 0.67736 0.0
C612 C 0.6426 0.62401 0.67338 0.0
C613 C 0.63386 0.65433 0.69191 0.0
C614 C 0.63166 0.7072 0.68927 0.0
C615 C 0.6383 0.73124 0.66802 0.0
C616 C 0.64679 0.70068 0.64931 0.0
C617 C 0.64893 0.64758 0.65196 0.0
C618 C 0.63193 0.4442 0.61456 0.0
C619 C 0.57659 0.46255 0.64466 0.0
O620 O 0.6024 0.29936 0.63788 0.0
O621 O 0.59283 0.2973 0.67525 0.0
O622 O 0.62443 0.41924 0.6885 0.0
O623 O 0.58836 0.3987 0.69327 0.0
O624 O 0.64815 0.34714 0.66351 0.0
O625 O 0.66603 0.42644 0.66949 0.0
O626 O 0.62664 0.54332 0.68453 0.0
O627 O 0.65896 0.54246 0.66258 0.0
O628 O 0.62401 0.41999 0.6323 0.0
O629 O 0.64142 0.48727 0.62129 0.0
O630 O 0.59288 0.49311 0.65446 0.0
O631 O 0.58025 0.4134 0.64152 0.0
H632 H 0.62048 0.21591 0.62282 0.0
H633 H 0.63144 0.12568 0.62484 0.0
H634 H 0.59847 0.11472 0.69365 0.0
H635 H 0.58775 0.20483 0.69175 0.0
H636 H 0.62885 0.63706 0.70859 0.0
H637 H 0.62463 0.72922 0.7039 0.0
H638 H 0.65225 0.71788 0.63277 0.0
H639 H 0.65576 0.62516 0.63735 0.0
H640 H 0.2125 0.12414 0.1613 0.0
H641 H 0.27529 0.40014 0.1655 0.0
H642 H 0.17459 0.26501 0.1745 0.0
H643 H 0.31153 0.26061 0.14592 0.0
H644 H 0.23892 0.3502 0.173 0.0
H645 H 0.25017 0.17243 0.16061 0.0
C646 C 0.21214 0.165 0.1644 0.0
C647 C 0.19039 0.19064 0.16764 0.0
C648 C 0.25491 0.33062 0.16712 0.0
C649 C 0.23318 0.24611 0.16664 0.0
C650 C 0.27563 0.35916 0.16277 0.0
C651 C 0.29646 0.33472 0.1549 0.0
C652 C 0.2551 0.27735 0.16362 0.0
C653 C 0.29589 0.28135 0.15182 0.0
C654 C 0.23359 0.19263 0.16386 0.0
C655 C 0.19093 0.24372 0.17156 0.0
N656 N 0.27557 0.25457 0.15613 0.0
N657 N 0.21194 0.26971 0.17076 0.0
H658 H 0.7724 0.90917 0.16013 0.0
H659 H 0.71106 0.63203 0.16745 0.0
H660 H 0.81108 0.76683 0.15413 0.0
H661 H 0.67176 0.77408 0.16734 0.0
H662 H 0.74853 0.68108 0.16716 0.0
H663 H 0.73559 0.86034 0.16708 0.0
C664 C 0.77319 0.86781 0.16036 0.0
C665 C 0.79481 0.84218 0.1563 0.0
C666 C 0.73166 0.70141 0.16734 0.0
C667 C 0.75293 0.78614 0.16428 0.0
C668 C 0.71031 0.6734 0.16759 0.0
C669 C 0.68827 0.69892 0.16711 0.0
C670 C 0.73087 0.75517 0.1667 0.0
C671 C 0.68832 0.75267 0.16736 0.0
C672 C 0.75221 0.83992 0.16432 0.0
C673 C 0.79481 0.78841 0.15691 0.0
N674 N 0.70926 0.77895 0.167 0.0
N675 N 0.7742 0.76227 0.16072 0.0
H676 H 0.27148 0.63222 0.36832 0.0
H677 H 0.20725 0.90579 0.36674 0.0
H678 H 0.30916 0.77532 0.35945 0.0
H679 H 0.17135 0.76358 0.38283 0.0
H680 H 0.24409 0.85781 0.35914 0.0
H681 H 0.23359 0.67903 0.36819 0.0
C682 C 0.27178 0.67333 0.36606 0.0
C683 C 0.29351 0.69992 0.36424 0.0
C684 C 0.22808 0.83721 0.36425 0.0
C685 C 0.25038 0.7537 0.36426 0.0
C686 C 0.20709 0.86459 0.36861 0.0
C687 C 0.18629 0.83878 0.37569 0.0
C688 C 0.22815 0.78375 0.36691 0.0
C689 C 0.18703 0.78527 0.37769 0.0
C690 C 0.25018 0.70008 0.36609 0.0
C691 C 0.29285 0.75325 0.36129 0.0
N692 N 0.20762 0.75961 0.37341 0.0
N693 N 0.27165 0.77841 0.36159 0.0
H694 H 0.77033 0.12928 0.3673 0.0
H695 H 0.7069 0.4037 0.36831 0.0
H696 H 0.80803 0.27188 0.357 0.0
H697 H 0.67192 0.2626 0.38801 0.0
H698 H 0.74306 0.35503 0.35878 0.0
H699 H 0.73261 0.17664 0.36879 0.0
C700 C 0.77064 0.17037 0.365 0.0
C701 C 0.79236 0.1967 0.36236 0.0
C702 C 0.7274 0.33483 0.36512 0.0
C703 C 0.74946 0.25108 0.36428 0.0
C704 C 0.70681 0.36261 0.37061 0.0
C705 C 0.68646 0.33731 0.37921 0.0
C706 C 0.72753 0.28147 0.36817 0.0
C707 C 0.68726 0.2839 0.38168 0.0
C708 C 0.74915 0.19744 0.36599 0.0
C709 C 0.79173 0.25003 0.35944 0.0
N710 N 0.70746 0.25783 0.37626 0.0
N711 N 0.77065 0.27549 0.36068 0.0
H712 H 0.70724 0.64903 0.86947 0.0
H713 H 0.76795 0.92722 0.8691 0.0
H714 H 0.66994 0.78871 0.88663 0.0
H715 H 0.80713 0.78672 0.85906 0.0
H716 H 0.73066 0.87775 0.87018 0.0
H717 H 0.74321 0.69958 0.86093 0.0
C718 C 0.70659 0.6902 0.8714 0.0
C719 C 0.68562 0.71452 0.87901 0.0
C720 C 0.74744 0.85786 0.86754 0.0
C721 C 0.72652 0.77254 0.86914 0.0
C722 C 0.76869 0.88615 0.86679 0.0
C723 C 0.79069 0.86106 0.86432 0.0
C724 C 0.74827 0.80422 0.86576 0.0
C725 C 0.7906 0.80767 0.86139 0.0
C726 C 0.72708 0.71906 0.86649 0.0
C727 C 0.68575 0.7681 0.88106 0.0
N728 N 0.76976 0.78103 0.86238 0.0
N729 N 0.70587 0.79521 0.87623 0.0
H730 H 0.27147 0.39777 0.86752 0.0
H731 H 0.21145 0.11901 0.87409 0.0
H732 H 0.31156 0.25687 0.8706 0.0
H733 H 0.17167 0.2603 0.87781 0.0
H734 H 0.24826 0.16879 0.86858 0.0
H735 H 0.23429 0.34767 0.86696 0.0
C736 C 0.27248 0.35644 0.8679 0.0
C737 C 0.29464 0.3316 0.86937 0.0
C738 C 0.23141 0.18877 0.87051 0.0
C739 C 0.25235 0.27412 0.86876 0.0
C740 C 0.21042 0.16034 0.87363 0.0
C741 C 0.18847 0.18539 0.87667 0.0
C742 C 0.23037 0.24254 0.87035 0.0
C743 C 0.18819 0.23915 0.87584 0.0
C744 C 0.25128 0.32783 0.86764 0.0
C745 C 0.29489 0.27784 0.86976 0.0
N746 N 0.20879 0.26584 0.87285 0.0
N747 N 0.2741 0.25099 0.86957 0.0
H748 H 0.71247 0.41636 0.66509 0.0
H749 H 0.77488 0.14065 0.66514 0.0
H750 H 0.67432 0.27454 0.67602 0.0
H751 H 0.81089 0.28114 0.64634 0.0
H752 H 0.73878 0.19009 0.6741 0.0
H753 H 0.75005 0.36835 0.66376 0.0
C754 C 0.71203 0.37531 0.66754 0.0
C755 C 0.69023 0.34938 0.67033 0.0
C756 C 0.75466 0.20999 0.66809 0.0
C757 C 0.73297 0.29425 0.66864 0.0
C758 C 0.77522 0.18177 0.66294 0.0
C759 C 0.79584 0.20665 0.65474 0.0
C760 C 0.75483 0.26338 0.66509 0.0
C761 C 0.79535 0.26013 0.65236 0.0
C762 C 0.73344 0.34786 0.66665 0.0
C763 C 0.69069 0.29609 0.67344 0.0
N764 N 0.77517 0.28661 0.65743 0.0
N765 N 0.71168 0.27027 0.67232 0.0
H766 H 0.17258 0.76843 0.67547 0.0
H767 H 0.31018 0.77652 0.64009 0.0
H768 H 0.21094 0.90725 0.65883 0.0
H769 H 0.27563 0.64014 0.66647 0.0
H770 H 0.27397 0.82448 0.64757 0.0
H771 H 0.2101 0.72117 0.67387 0.0
C772 C 0.18896 0.78912 0.6717 0.0
C773 C 0.18861 0.84183 0.66697 0.0
C774 C 0.27425 0.78414 0.65184 0.0
C775 C 0.23159 0.78771 0.66496 0.0
C776 C 0.29497 0.75645 0.64749 0.0
C777 C 0.29602 0.70396 0.65266 0.0
C778 C 0.25419 0.75934 0.66126 0.0
C779 C 0.2756 0.68042 0.66213 0.0
C780 C 0.21037 0.76202 0.67081 0.0
C781 C 0.21038 0.86667 0.66253 0.0
N782 N 0.25544 0.70831 0.66606 0.0
N783 N 0.23098 0.83924 0.66136 0.0
H784 H 0.14374 0.95609 0.32471 0.0
H785 H 0.06697 0.09968 0.22454 0.0
H786 H 0.06694 0.94222 0.31952 0.0
H787 H 0.14346 0.07901 0.22088 0.0
H788 H 0.06629 0.04823 0.26093 0.0
H789 H 0.14377 1.0072 0.28845 0.0
C790 C 0.12686 0.96376 0.31592 0.0
C791 C 0.10532 0.94462 0.32515 0.0
C792 C 0.08321 0.05495 0.25215 0.0
C793 C 0.10516 1.00373 0.28355 0.0
C794 C 0.08362 0.08447 0.23142 0.0
C795 C 0.1053 0.09373 0.21964 0.0
C796 C 0.1047 0.035 0.26137 0.0
C797 C 0.12632 0.07288 0.22935 0.0
C798 C 0.12688 0.99293 0.29517 0.0
C799 C 0.08398 0.95597 0.31298 0.0
N800 N 0.1255 0.04478 0.24961 0.0
N801 N 0.08442 0.98489 0.2929 0.0
H802 H 0.91605 0.09751 0.30644 0.0
H803 H 0.83899 0.95537 0.20583 0.0
H804 H 0.83932 0.0798 0.30912 0.0
H805 H 0.91563 0.93915 0.21142 0.0
H806 H 0.83917 1.00637 0.24211 0.0
H807 H 0.91674 0.04499 0.27032 0.0
C808 C 0.89936 0.08265 0.29941 0.0
C809 C 0.87759 0.0931 0.31082 0.0
C810 C 0.85598 0.99161 0.2355 0.0
C811 C 0.87821 0.03322 0.2694 0.0
C812 C 0.85589 0.96248 0.21474 0.0
C813 C 0.87733 0.94281 0.20558 0.0
C814 C 0.8777 1.00177 0.24726 0.0
C815 C 0.89868 0.9534 0.2179 0.0
C816 C 0.89977 0.05255 0.27883 0.0
C817 C 0.85651 0.07272 0.30094 0.0
N818 N 0.89835 0.98232 0.23803 0.0
N819 N 0.85734 0.04405 0.28083 0.0
H820 H 0.8371 0.09001 0.70432 0.0
H821 H 0.91329 0.95512 0.80729 0.0
H822 H 0.9137 0.10675 0.71063 0.0
H823 H 0.83675 0.97521 0.81043 0.0
H824 H 0.91404 1.00442 0.77033 0.0
H825 H 0.83676 0.04176 0.74144 0.0
C826 C 0.85386 0.08358 0.71354 0.0
C827 C 0.87545 0.10267 0.70438 0.0
C828 C 0.89708 0.99808 0.77911 0.0
C829 C 0.87525 0.04686 0.74692 0.0
C830 C 0.89664 0.9698 0.80018 0.0
C831 C 0.87492 0.96094 0.81196 0.0
C832 C 0.8756 1.01718 0.76954 0.0
C833 C 0.8539 0.98108 0.80195 0.0
C834 C 0.85366 0.05607 0.73478 0.0
C835 C 0.89663 0.09297 0.7171 0.0
N836 N 0.85474 1.00796 0.78133 0.0
N837 N 0.89602 0.06561 0.73762 0.0
H838 H 0.14438 0.07375 0.82549 0.0
H839 H 0.06634 0.93742 0.72401 0.0
H840 H 0.06789 0.09297 0.81999 0.0
H841 H 0.14282 0.95836 0.71966 0.0
H842 H 0.06615 0.98762 0.76083 0.0
H843 H 0.14383 0.02456 0.78862 0.0
C844 C 0.12744 0.06767 0.81648 0.0
C845 C 0.10615 0.08775 0.8258 0.0
C846 C 0.08296 0.98127 0.75179 0.0
C847 C 0.10536 0.03088 0.7835 0.0
C848 C 0.08309 0.9525 0.73082 0.0
C849 C 0.10463 0.94362 0.71873 0.0
C850 C 0.10459 1.00079 0.76097 0.0
C851 C 0.12579 0.96423 0.72836 0.0
C852 C 0.12715 0.03962 0.79539 0.0
C853 C 0.08473 0.07846 0.81337 0.0
N854 N 0.12525 0.99153 0.7489 0.0
N855 N 0.08485 0.05054 0.79294 0.0
H856 H 0.64409 0.4532 0.32891 0.0
H857 H 0.56572 0.58879 0.22771 0.0
H858 H 0.56742 0.43614 0.3238 0.0
H859 H 0.64241 0.57225 0.22367 0.0
H860 H 0.56581 0.53793 0.26418 0.0
H861 H 0.64375 0.50194 0.29191 0.0
C862 C 0.62717 0.45964 0.31998 0.0
C863 C 0.60575 0.44036 0.32946 0.0
C864 C 0.58262 0.5453 0.2553 0.0
C865 C 0.60519 0.49667 0.28703 0.0
C866 C 0.58258 0.57443 0.23448 0.0
C867 C 0.60409 0.58488 0.2226 0.0
C868 C 0.60437 0.52687 0.26455 0.0
C869 C 0.6254 0.56517 0.23222 0.0
C870 C 0.62699 0.48743 0.29881 0.0
C871 C 0.58436 0.45008 0.3171 0.0
N872 N 0.62502 0.53744 0.25263 0.0
N873 N 0.58461 0.47767 0.29663 0.0
H874 H 0.33907 0.58189 0.31196 0.0
H875 H 0.41793 0.44467 0.21186 0.0
H876 H 0.41555 0.60192 0.30683 0.0
H877 H 0.34117 0.45984 0.20743 0.0
H878 H 0.41772 0.49644 0.24817 0.0
H879 H 0.33971 0.53117 0.27549 0.0
C880 C 0.35602 0.5756 0.30316 0.0
C881 C 0.37729 0.59633 0.31247 0.0
C882 C 0.40092 0.48852 0.23924 0.0
C883 C 0.37819 0.53781 0.27061 0.0
C884 C 0.40103 0.45887 0.21852 0.0
C885 C 0.37953 0.44782 0.20657 0.0
C886 C 0.37912 0.50684 0.24831 0.0
C887 C 0.35818 0.46737 0.21603 0.0
C888 C 0.35637 0.54669 0.28227 0.0
C889 C 0.39872 0.58682 0.30026 0.0
N890 N 0.3585 0.49559 0.23633 0.0
N891 N 0.39864 0.55815 0.28006 0.0
H892 H 0.33925 0.45955 0.81254 0.0
H893 H 0.41745 0.60009 0.71277 0.0
H894 H 0.41588 0.44322 0.80742 0.0
H895 H 0.34083 0.58176 0.70796 0.0
H896 H 0.41739 0.54893 0.74917 0.0
H897 H 0.33955 0.51084 0.77625 0.0
C898 C 0.35616 0.46683 0.8038 0.0
C899 C 0.37757 0.44687 0.81303 0.0
C900 C 0.40058 0.55605 0.74015 0.0
C901 C 0.37808 0.50599 0.77141 0.0
C902 C 0.40061 0.58535 0.71938 0.0
C903 C 0.37911 0.59531 0.70728 0.0
C904 C 0.37886 0.53694 0.74913 0.0
C905 C 0.35783 0.57508 0.71668 0.0
C906 C 0.35631 0.49603 0.78302 0.0
C907 C 0.39894 0.45766 0.80092 0.0
N908 N 0.35822 0.54717 0.73704 0.0
N909 N 0.39867 0.48654 0.78084 0.0
H910 H 0.56621 0.60791 0.82431 0.0
H911 H 0.64455 0.46946 0.72414 0.0
H912 H 0.64302 0.59318 0.82825 0.0
H913 H 0.56797 0.45131 0.72929 0.0
H914 H 0.64415 0.52101 0.76035 0.0
H915 H 0.56626 0.55681 0.78783 0.0
C916 C 0.5831 0.59407 0.81746 0.0
C917 C 0.60465 0.60495 0.82936 0.0
C918 C 0.62741 0.50574 0.75362 0.0
C919 C 0.60487 0.54651 0.78747 0.0
C920 C 0.62762 0.47634 0.7329 0.0
C921 C 0.60626 0.45588 0.72367 0.0
C922 C 0.60564 0.51531 0.76524 0.0
C923 C 0.58487 0.46617 0.73579 0.0
C924 C 0.58311 0.56475 0.79666 0.0
C925 C 0.62598 0.58577 0.81969 0.0
N926 N 0.58509 0.49524 0.75587 0.0
N927 N 0.62556 0.55775 0.79933 0.0
H928 H 0.10278 0.14725 0.96007 0.0
H929 H 0.16573 0.05846 0.08116 0.0
H930 H 0.15824 0.03391 0.9675 0.0
H931 H 0.09998 0.14439 0.08277 0.0
H932 H 0.16623 0.06467 0.03845 0.0
H933 H 0.10359 0.1598 1.00361 0.0
C934 C 0.11523 0.12549 0.97076 0.0
C935 C 0.13042 0.08931 0.96015 0.0
C936 C 0.15164 0.08257 0.04792 0.0
C937 C 0.13159 0.10368 1.00953 0.0
C938 C 0.15143 0.0792 0.07244 0.0
C939 C 0.13273 0.1006 0.08557 0.0
C940 C 0.13275 0.10686 0.03596 0.0
C941 C 0.11478 0.12744 0.07326 0.0
C942 C 0.11562 0.13251 0.99555 0.0
C943 C 0.1461 0.06198 0.9748 0.0
N944 N 0.11503 0.12927 0.04901 0.0
N945 N 0.14625 0.06976 0.99849 0.0
H946 H 0.8167 0.99556 0.95252 0.0
H947 H 0.88364 0.89259 0.06862 0.0
H948 H 0.88007 0.90266 0.94665 0.0
H949 H 0.81753 0.9773 0.06676 0.0
H950 H 0.88247 0.8874 0.02479 0.0
H951 H 0.81627 0.98117 0.99473 0.0
C952 C 0.83054 0.97171 0.96019 0.0
C953 C 0.84848 0.9505 0.94602 0.0
C954 C 0.8681 0.90639 0.03411 0.0
C955 C 0.84848 0.93428 0.99515 0.0
C956 C 0.86869 0.90907 0.05907 0.0
C957 C 0.85071 0.93572 0.0713 0.0
C958 C 0.84932 0.93029 0.02158 0.0
C959 C 0.8319 0.95682 0.05811 0.0
C960 C 0.83032 0.96341 0.98445 0.0
C961 C 0.86586 0.91959 0.957 0.0
N962 N 0.83179 0.95384 0.0342 0.0
N963 N 0.86564 0.9129 0.98105 0.0
H964 H 0.09325 0.89248 0.46195 0.0
H965 H 0.1658 0.96066 0.57899 0.0
H966 H 0.1695 0.91886 0.46452 0.0
H967 H 0.09687 0.88686 0.58334 0.0
H968 H 0.16638 0.945 0.53663 0.0
H969 H 0.09281 0.8887 0.50559 0.0
C970 C 0.10992 0.89671 0.47164 0.0
C971 C 0.13143 0.90659 0.45955 0.0
C972 C 0.15117 0.93153 0.54671 0.0
C973 C 0.131 0.90279 0.5093 0.0
C974 C 0.15084 0.94051 0.57098 0.0
C975 C 0.13131 0.92489 0.58471 0.0
C976 C 0.13152 0.90771 0.53566 0.0
C977 C 0.11238 0.89907 0.57336 0.0
C978 C 0.10964 0.89458 0.49652 0.0
C979 C 0.15246 0.91175 0.47301 0.0
N980 N 0.11276 0.89193 0.54936 0.0
N981 N 0.15165 0.91035 0.497 0.0
H982 H 0.88832 0.14852 0.56682 0.0
H983 H 0.81534 0.08015 0.45015 0.0
H984 H 0.81194 0.12377 0.56453 0.0
H985 H 0.88403 0.15484 0.4454 0.0
H986 H 0.81496 0.0959 0.49252 0.0
H987 H 0.88862 0.15202 0.52317 0.0
C988 C 0.87161 0.14458 0.55719 0.0
C989 C 0.8501 0.13524 0.56934 0.0
C990 C 0.83007 0.10955 0.48234 0.0
C991 C 0.85036 0.13872 0.51961 0.0
C992 C 0.83028 0.10052 0.45807 0.0
C993 C 0.84968 0.11639 0.44423 0.0
C994 C 0.84972 0.13365 0.49327 0.0
C995 C 0.86862 0.14245 0.45547 0.0
C996 C 0.8718 0.14655 0.53231 0.0
C997 C 0.829 0.13044 0.55598 0.0
N998 N 0.86836 0.14963 0.47946 0.0
N999 N 0.82972 0.13166 0.53198 0.0
H1000 H 0.66827 0.60023 0.08349 0.0
H1001 H 0.59307 0.65381 0.96622 0.0
H1002 H 0.59556 0.65433 0.08712 0.0
H1003 H 0.66984 0.63645 0.96857 0.0
H1004 H 0.59266 0.65812 1.00982 0.0
H1005 H 0.66862 0.61719 0.04121 0.0
C1006 C 0.65245 0.61659 0.07535 0.0
C1007 C 0.63194 0.62621 0.08884 0.0
C1008 C 0.60959 0.65408 1.00073 0.0
C1009 C 0.63184 0.64441 0.03988 0.0
C1010 C 0.60985 0.65168 0.97585 0.0
C1011 C 0.63152 0.64419 0.96371 0.0
C1012 C 0.63115 0.64871 1.01347 0.0
C1013 C 0.65268 0.64168 0.97711 0.0
C1014 C 0.65261 0.62618 0.05112 0.0
C1015 C 0.61185 0.64702 0.07735 0.0
N1016 N 0.65192 0.64341 1.00111 0.0
N1017 N 0.61215 0.6547 0.0534 0.0
H1018 H 0.31434 0.42791 0.95144 0.0
H1019 H 0.38731 0.3774 0.07181 0.0
H1020 H 0.38878 0.38516 0.95028 0.0
H1021 H 0.31739 0.44573 0.06597 0.0
H1022 H 0.38711 0.36327 0.02842 0.0
H1023 H 0.31374 0.41569 0.99402 0.0
C1024 C 0.33051 0.41491 0.96019 0.0
C1025 C 0.35159 0.40744 0.94731 0.0
C1026 C 0.3717 0.38057 0.03679 0.0
C1027 C 0.3514 0.39511 0.99668 0.0
C1028 C 0.37174 0.38825 0.06152 0.0
C1029 C 0.35232 0.41282 0.07245 0.0
C1030 C 0.35195 0.39697 0.02317 0.0
C1031 C 0.33277 0.42685 0.05829 0.0
C1032 C 0.33024 0.40826 0.98462 0.0
C1033 C 0.37208 0.39081 0.95959 0.0
N1034 N 0.33314 0.41887 0.03459 0.0
N1035 N 0.37161 0.38596 0.98373 0.0
H1036 H 0.59405 0.39382 0.46703 0.0
H1037 H 0.66771 0.46028 0.58383 0.0
H1038 H 0.6703 0.42028 0.46917 0.0
H1039 H 0.5978 0.39094 0.58828 0.0
H1040 H 0.6681 0.44423 0.54149 0.0
H1041 H 0.59383 0.39035 0.51067 0.0
C1042 C 0.61076 0.39817 0.47662 0.0
C1043 C 0.6322 0.40793 0.46441 0.0
C1044 C 0.65271 0.43179 0.55159 0.0
C1045 C 0.63204 0.40442 0.51418 0.0
C1046 C 0.6525 0.44095 0.57585 0.0
C1047 C 0.63276 0.42672 0.58961 0.0
C1048 C 0.63272 0.40923 0.54056 0.0
C1049 C 0.61348 0.402 0.57829 0.0
C1050 C 0.61061 0.39621 0.50151 0.0
C1051 C 0.6533 0.41324 0.47776 0.0
N1052 N 0.61376 0.39469 0.5543 0.0
N1053 N 0.65262 0.41194 0.50176 0.0
H1054 H 0.38729 0.66168 0.57076 0.0
H1055 H 0.31589 0.58931 0.45184 0.0
H1056 H 0.31816 0.58857 0.56657 0.0
H1057 H 0.38662 0.65517 0.44907 0.0
H1058 H 0.3152 0.60255 0.49427 0.0
H1059 H 0.38657 0.67239 0.52717 0.0
C1060 C 0.37177 0.64907 0.56078 0.0
C1061 C 0.35276 0.62408 0.57225 0.0
C1062 C 0.33091 0.61471 0.4846 0.0
C1063 C 0.35184 0.63582 0.52274 0.0
C1064 C 0.33124 0.60729 0.46023 0.0
C1065 C 0.35132 0.62108 0.44689 0.0
C1066 C 0.35109 0.63514 0.49621 0.0
C1067 C 0.3707 0.64432 0.45874 0.0
C1068 C 0.37144 0.6548 0.53593 0.0
C1069 C 0.33326 0.60778 0.55849 0.0
N1070 N 0.37029 0.64994 0.48285 0.0
N1071 N 0.33338 0.61374 0.53467 0.0
H1072 H 0.94663 0.90498 0.11669 0.0
H1073 H 0.03807 0.13596 0.12813 0.0
H1074 H 0.92454 0.05751 0.13624 0.0
H1075 H 0.05857 0.98011 0.14315 0.0
H1076 H -0.00303 0.10788 0.12213 0.0
H1077 H 0.98825 0.93317 0.11727 0.0
C1078 C 0.95045 0.94464 0.12078 0.0
C1079 C 0.93205 0.97902 0.12655 0.0
C1080 C 0.0105 0.07985 0.12663 0.0
C1081 C 0.97966 1.01109 0.12717 0.0
C1082 C 0.03402 0.09565 0.12996 0.0
C1083 C 0.05182 0.06022 0.13626 0.0
C1084 C 0.0047 0.02818 0.12929 0.0
C1085 C 0.04538 1.00864 0.13844 0.0
C1086 C 0.97425 0.96043 0.12126 0.0
C1087 C 0.93817 0.02976 0.13179 0.0
N1088 N 0.02224 0.99405 0.13491 0.0
N1089 N 0.96154 0.04433 0.13198 0.0
H1090 H 0.94445 0.139 0.40333 0.0
H1091 H 0.03194 0.90112 0.41148 0.0
H1092 H 0.92172 0.98434 0.38799 0.0
H1093 H 0.05686 0.05395 0.39591 0.0
H1094 H 0.99097 0.9323 0.41187 0.0
H1095 H 0.9851 0.1085 0.40947 0.0
C1096 C 0.9479 0.09847 0.40147 0.0
C1097 C 0.92964 0.06408 0.39496 0.0
C1098 C 0.00543 0.95899 0.40852 0.0
C1099 C 0.97619 0.02931 0.40208 0.0
C1100 C 0.02888 0.94143 0.40838 0.0
C1101 C 0.04789 0.97503 0.40343 0.0
C1102 C 0.00094 1.01059 0.40394 0.0
C1103 C 0.04273 0.02675 0.39964 0.0
C1104 C 0.97117 0.08129 0.40489 0.0
C1105 C 0.93528 1.01213 0.39283 0.0
N1106 N 0.01964 0.04303 0.39992 0.0
N1107 N 0.95816 0.99625 0.39637 0.0
H1108 H 0.0518 1.01639 0.8649 0.0
H1109 H 0.92965 0.97403 0.92968 0.0
H1110 H 0.04352 0.07459 0.93584 0.0
H1111 H 0.9316 0.02908 0.85786 0.0
H1112 H 0.97256 0.99389 0.93371 0.0
H1113 H 0.00855 0.99985 0.86322 0.0
C1114 C 0.04094 0.02447 0.8803 0.0
C1115 C 0.05106 0.04657 0.90059 0.0
C1116 C 0.96343 1.00216 0.91723 0.0
C1117 C 0.00204 0.02814 0.8987 0.0
C1118 C 0.9391 0.99111 0.91494 0.0
C1119 C 0.92728 1.0005 0.89349 0.0
C1120 C 0.97598 1.02085 0.89764 0.0
C1121 C 0.94014 0.02206 0.87477 0.0
C1122 C 0.01634 1.01576 0.87919 0.0
C1123 C 0.03624 0.05739 0.91992 0.0
N1124 N 0.96402 0.03071 0.87712 0.0
N1125 N 0.01235 0.04776 0.91858 0.0
H1126 H 0.92301 0.98708 0.63354 0.0
H1127 H 0.06085 0.0583 0.64188 0.0
H1128 H 0.94982 0.13876 0.61872 0.0
H1129 H 0.03608 0.90459 0.62771 0.0
H1130 H 0.01987 0.08913 0.63584 0.0
H1131 H 0.96433 0.95563 0.63372 0.0
C1132 C 0.93752 1.0136 0.6301 0.0
C1133 C 0.93298 0.06557 0.62621 0.0
C1134 C 0.02355 0.04873 0.63385 0.0
C1135 C 0.98004 0.03022 0.62673 0.0
C1136 C 0.04688 0.03116 0.63735 0.0
C1137 C 0.05186 0.97887 0.63536 0.0
C1138 C 0.00516 1.01358 0.62874 0.0
C1139 C 0.03308 0.9453 0.62941 0.0
C1140 C 0.96104 0.99568 0.63018 0.0
C1141 C 0.95246 0.09834 0.62183 0.0
N1142 N 0.0105 0.96317 0.62655 0.0
N1143 N 0.97516 0.08022 0.62248 0.0
H1144 H 0.42341 0.55396 0.13234 0.0
H1145 H 0.56066 0.48226 0.14149 0.0
H1146 H 0.44958 0.40142 0.11865 0.0
H1147 H 0.53601 0.63646 0.12907 0.0
H1148 H 0.52 0.45115 0.13345 0.0
H1149 H 0.4647 0.58536 0.1313 0.0
C1150 C 0.43776 0.52722 0.12883 0.0
C1151 C 0.43305 0.47497 0.12585 0.0
C1152 C 0.52366 0.49174 0.13224 0.0
C1153 C 0.48018 0.51035 0.12496 0.0
C1154 C 0.54682 0.50947 0.13689 0.0
C1155 C 0.5517 0.56202 0.13623 0.0
C1156 C 0.50534 0.52693 0.12723 0.0
C1157 C 0.53309 0.5956 0.13002 0.0
C1158 C 0.4613 0.54512 0.12822 0.0
C1159 C 0.45235 0.44201 0.12124 0.0
N1160 N 0.51069 0.57754 0.12605 0.0
N1161 N 0.4751 0.46015 0.12128 0.0
H1162 H 0.44602 0.64147 0.40464 0.0
H1163 H 0.53219 0.40157 0.41545 0.0
H1164 H 0.42249 0.4868 0.39057 0.0
H1165 H 0.55799 0.55369 0.39983 0.0
H1166 H 0.49131 0.43355 0.415 0.0
H1167 H 0.48644 0.61014 0.41138 0.0
C1168 C 0.44926 0.60078 0.40316 0.0
C1169 C 0.43083 0.56662 0.39687 0.0
C1170 C 0.50594 0.45991 0.41182 0.0
C1171 C 0.47713 0.53086 0.40467 0.0
C1172 C 0.52932 0.44188 0.41218 0.0
C1173 C 0.54856 0.47505 0.40747 0.0
C1174 C 0.50175 0.51154 0.407 0.0
C1175 C 0.54368 0.52681 0.4034 0.0
C1176 C 0.47239 0.5831 0.40693 0.0
C1177 C 0.43618 0.51444 0.39523 0.0
N1178 N 0.52066 0.54353 0.4032 0.0
N1179 N 0.45894 0.49807 0.39911 0.0
H1180 H 0.42078 0.5523 0.89312 0.0
H1181 H 0.55987 0.49097 0.89986 0.0
H1182 H 0.44856 0.39946 0.90215 0.0
H1183 H 0.53094 0.641 0.91393 0.0
H1184 H 0.5191 0.45642 0.89989 0.0
H1185 H 0.46115 0.58617 0.8999 0.0
C1186 C 0.43528 0.52593 0.89668 0.0
C1187 C 0.43131 0.47301 0.89689 0.0
C1188 C 0.52176 0.49682 0.90322 0.0
C1189 C 0.47738 0.5113 0.90445 0.0
C1190 C 0.545 0.51652 0.90317 0.0
C1191 C 0.5488 0.56893 0.90674 0.0
C1192 C 0.50226 0.52995 0.90653 0.0
C1193 C 0.52887 0.60033 0.91101 0.0
C1194 C 0.45828 0.54525 0.9006 0.0
C1195 C 0.45075 0.44057 0.90171 0.0
N1196 N 0.50644 0.58043 0.91053 0.0
N1197 N 0.47298 0.46022 0.90505 0.0
H1198 H 0.44996 0.64426 0.62039 0.0
H1199 H 0.53809 0.40721 0.62948 0.0
H1200 H 0.42568 0.49023 0.63435 0.0
H1201 H 0.56036 0.56195 0.64532 0.0
H1202 H 0.49769 0.43758 0.62216 0.0
H1203 H 0.49115 0.61401 0.62028 0.0
C1204 C 0.4532 0.6039 0.62313 0.0
C1205 C 0.43429 0.5697 0.62763 0.0
C1206 C 0.51145 0.46488 0.6271 0.0
C1207 C 0.48148 0.53522 0.62745 0.0
C1208 C 0.5346 0.44774 0.63125 0.0
C1209 C 0.55268 0.48213 0.63829 0.0
C1210 C 0.50629 0.51683 0.62975 0.0
C1211 C 0.54696 0.53411 0.64012 0.0
C1212 C 0.47677 0.58687 0.62318 0.0
C1213 C 0.4397 0.51794 0.63099 0.0
N1214 N 0.52415 0.54995 0.63593 0.0
N1215 N 0.46288 0.50224 0.63091 0.0
H1216 H 0.15737 0.74642 0.13746 0.0
H1217 H 0.0918 0.49399 0.18558 0.0
H1218 H 0.10501 0.74694 0.19346 0.0
H1219 H 0.14373 0.49255 0.1292 0.0
H1220 H 0.09701 0.58642 0.18912 0.0
H1221 H 0.15268 0.65366 0.13407 0.0
C1222 C 0.14476 0.72716 0.14895 0.0
C1223 C 0.1316 0.75476 0.16581 0.0
C1224 C 0.10731 0.56592 0.17599 0.0
C1225 C 0.12633 0.64816 0.16218 0.0
C1226 C 0.10448 0.51297 0.17408 0.0
C1227 C 0.11735 0.48518 0.15707 0.0
C1228 C 0.12317 0.59163 0.16082 0.0
C1229 C 0.13319 0.5123 0.14239 0.0
C1230 C 0.14221 0.67407 0.1471 0.0
C1231 C 0.11581 0.72737 0.18043 0.0
N1232 N 0.13564 0.56388 0.1446 0.0
N1233 N 0.11363 0.67577 0.17827 0.0
H1234 H 0.88827 0.27826 0.13439 0.0
H1235 H 0.8327 0.55721 0.15578 0.0
H1236 H 0.81774 0.30316 0.16323 0.0
H1237 H 0.90334 0.53039 0.12757 0.0
H1238 H 0.82639 0.46467 0.15791 0.0
H1239 H 0.89375 0.37061 0.13144 0.0
C1240 C 0.87394 0.30306 0.1402 0.0
C1241 C 0.85252 0.28253 0.14917 0.0
C1242 C 0.84327 0.47907 0.15127 0.0
C1243 C 0.85862 0.38899 0.14555 0.0
C1244 C 0.84686 0.53199 0.14993 0.0
C1245 C 0.86865 0.55196 0.14158 0.0
C1246 C 0.86157 0.44561 0.14417 0.0
C1247 C 0.88641 0.51708 0.13453 0.0
C1248 C 0.87704 0.35594 0.13838 0.0
C1249 C 0.83445 0.31695 0.15595 0.0
N1250 N 0.88248 0.46584 0.136 0.0
N1251 N 0.83793 0.36834 0.15406 0.0
H1252 H 0.09765 0.27606 0.41385 0.0
H1253 H 0.14122 0.55 0.36642 0.0
H1254 H 0.15368 0.29599 0.36223 0.0
H1255 H 0.08415 0.52976 0.4169 0.0
H1256 H 0.14624 0.4572 0.36483 0.0
H1257 H 0.09296 0.36891 0.41575 0.0
C1258 C 0.10905 0.29987 0.40298 0.0
C1259 C 0.12605 0.27787 0.3878 0.0
C1260 C 0.13264 0.47307 0.37629 0.0
C1261 C 0.12062 0.38462 0.38976 0.0
C1262 C 0.12967 0.52614 0.37711 0.0
C1263 C 0.11224 0.54806 0.39185 0.0
C1264 C 0.11807 0.44136 0.39027 0.0
C1265 C 0.09807 0.51491 0.40555 0.0
C1266 C 0.10627 0.35298 0.40399 0.0
C1267 C 0.14007 0.31094 0.37393 0.0
N1268 N 0.10128 0.46342 0.4044 0.0
N1269 N 0.13706 0.36247 0.37525 0.0
H1270 H 0.84716 0.49526 0.40655 0.0
H1271 H 0.86172 0.74966 0.32893 0.0
H1272 H 0.87701 0.49811 0.33626 0.0
H1273 H 0.83479 0.74989 0.40039 0.0
H1274 H 0.86585 0.65699 0.33092 0.0
H1275 H 0.84039 0.58754 0.40403 0.0
C1276 C 0.85208 0.51515 0.39049 0.0
C1277 C 0.86277 0.48879 0.37162 0.0
C1278 C 0.85902 0.67721 0.34619 0.0
C1279 C 0.85529 0.59467 0.36872 0.0
C1280 C 0.85681 0.7303 0.34513 0.0
C1281 C 0.84807 0.75788 0.3646 0.0
C1282 C 0.85247 0.65112 0.36688 0.0
C1283 C 0.84146 0.73031 0.38489 0.0
C1284 C 0.84835 0.56794 0.38913 0.0
C1285 C 0.86904 0.51684 0.35139 0.0
N1286 N 0.84388 0.67853 0.38553 0.0
N1287 N 0.86525 0.56812 0.3505 0.0
H1288 H 0.81874 0.31432 0.89228 0.0
H1289 H 0.89247 0.55861 0.84655 0.0
H1290 H 0.87708 0.30575 0.84256 0.0
H1291 H 0.83719 0.56745 0.89957 0.0
H1292 H 0.88606 0.46641 0.84398 0.0
H1293 H 0.82412 0.40717 0.89422 0.0
C1294 C 0.83262 0.3319 0.88169 0.0
C1295 C 0.8475 0.30188 0.86726 0.0
C1296 C 0.87529 0.48847 0.85617 0.0
C1297 C 0.85383 0.40854 0.86949 0.0
C1298 C 0.87902 0.54124 0.85773 0.0
C1299 C 0.86546 0.57117 0.87341 0.0
C1300 C 0.85784 0.46498 0.87036 0.0
C1301 C 0.84794 0.54627 0.88706 0.0
C1302 C 0.83575 0.38497 0.88289 0.0
C1303 C 0.86538 0.32701 0.85419 0.0
N1304 N 0.8447 0.49475 0.88527 0.0
N1305 N 0.868 0.37868 0.85559 0.0
H1306 H 0.08444 0.48656 0.8675 0.0
H1307 H 0.16176 0.73349 0.90462 0.0
H1308 H 0.14617 0.47988 0.91353 0.0
H1309 H 0.10034 0.73883 0.85815 0.0
H1310 H 0.15621 0.64103 0.90848 0.0
H1311 H 0.09022 0.57878 0.86376 0.0
C1312 C 0.09935 0.5043 0.87669 0.0
C1313 C 0.11486 0.47499 0.89083 0.0
C1314 C 0.14394 0.66242 0.89744 0.0
C1315 C 0.12141 0.58142 0.88685 0.0
C1316 C 0.147 0.7154 0.89534 0.0
C1317 C 0.13154 0.74435 0.88099 0.0
C1318 C 0.12521 0.63789 0.88517 0.0
C1319 C 0.11296 0.71828 0.86914 0.0
C1320 C 0.10254 0.55719 0.87467 0.0
C1321 C 0.13357 0.50072 0.90264 0.0
N1322 N 0.11033 0.66677 0.8715 0.0
N1323 N 0.13632 0.55227 0.90038 0.0
H1324 H 0.81848 0.74609 0.65493 0.0
H1325 H 0.90733 0.51462 0.62458 0.0
H1326 H 0.8894 0.76729 0.62633 0.0
H1327 H 0.83611 0.49312 0.65241 0.0
H1328 H 0.90116 0.60697 0.62539 0.0
H1329 H 0.82455 0.6537 0.65403 0.0
C1330 C 0.83529 0.73145 0.64828 0.0
C1331 C 0.8534 0.76497 0.64058 0.0
C1332 C 0.88687 0.58211 0.63134 0.0
C1333 C 0.8606 0.65844 0.63983 0.0
C1334 C 0.89042 0.5292 0.63104 0.0
C1335 C 0.87227 0.49562 0.63857 0.0
C1336 C 0.86496 0.6021 0.63923 0.0
C1337 C 0.85057 0.5172 0.64623 0.0
C1338 C 0.83879 0.67851 0.64793 0.0
C1339 C 0.87498 0.74329 0.63267 0.0
N1340 N 0.84756 0.5689 0.6464 0.0
N1341 N 0.87794 0.69158 0.63247 0.0
H1342 H 0.0952 0.27913 0.67726 0.0
H1343 H 0.14816 0.55174 0.63851 0.0
H1344 H 0.1656 0.29854 0.64721 0.0
H1345 H 0.081 0.53197 0.67505 0.0
H1346 H 0.15487 0.45948 0.64104 0.0
H1347 H 0.08934 0.37153 0.67537 0.0
C1348 C 0.10938 0.30273 0.67008 0.0
C1349 C 0.13092 0.28074 0.66233 0.0
C1350 C 0.13868 0.47537 0.64854 0.0
C1351 C 0.12439 0.38722 0.66035 0.0
C1352 C 0.1349 0.52821 0.64725 0.0
C1353 C 0.11391 0.55002 0.65649 0.0
C1354 C 0.12135 0.44382 0.65912 0.0
C1355 C 0.09725 0.5171 0.66728 0.0
C1356 C 0.10608 0.35565 0.66918 0.0
C1357 C 0.14879 0.31366 0.65361 0.0
N1358 N 0.1013 0.46587 0.66823 0.0
N1359 N 0.14511 0.3651 0.65281 0.0
H1360 H 0.65312 0.98558 0.14799 0.0
H1361 H 0.59337 0.26299 0.16113 0.0
H1362 H 0.57722 1.0107 0.15639 0.0
H1363 H 0.66928 0.23967 0.15178 0.0
H1364 H 0.58715 0.1708 0.15819 0.0
H1365 H 0.65948 0.07823 0.14868 0.0
C1366 C 0.63778 1.01045 0.15002 0.0
C1367 C 0.61457 0.98997 0.15209 0.0
C1368 C 0.60518 0.1858 0.1567 0.0
C1369 C 0.62175 0.09649 0.15275 0.0
C1370 C 0.60874 0.23864 0.15821 0.0
C1371 C 0.63192 0.25951 0.15672 0.0
C1372 C 0.6249 0.15314 0.15369 0.0
C1373 C 0.65113 0.22552 0.15337 0.0
C1374 C 0.64143 0.06345 0.15029 0.0
C1375 C 0.5954 0.02444 0.15436 0.0
N1376 N 0.6472 0.17418 0.15201 0.0
N1377 N 0.59943 0.07576 0.15469 0.0
H1378 H 0.38986 0.7721 0.14603 0.0
H1379 H 0.33014 0.04957 0.13256 0.0
H1380 H 0.31378 0.79544 0.1376 0.0
H1381 H 0.40616 0.02415 0.14 0.0
H1382 H 0.32364 0.95698 0.13401 0.0
H1383 H 0.39606 0.86423 0.14289 0.0
C1384 C 0.37444 0.79643 0.14328 0.0
C1385 C 0.35123 0.77556 0.14207 0.0
C1386 C 0.34175 0.97168 0.13525 0.0
C1387 C 0.35824 0.88193 0.13882 0.0
C1388 C 0.34548 0.02466 0.13455 0.0
C1389 C 0.36877 0.04504 0.13609 0.0
C1390 C 0.36142 0.93857 0.13761 0.0
C1391 C 0.38792 1.01049 0.13836 0.0
C1392 C 0.37799 0.84926 0.14167 0.0
C1393 C 0.33197 0.80957 0.13896 0.0
N1394 N 0.38382 0.95922 0.13909 0.0
N1395 N 0.3359 0.8609 0.13747 0.0
H1396 H 0.59633 0.03287 0.43128 0.0
H1397 H 0.64492 0.79188 0.35809 0.0
H1398 H 0.63114 0.04535 0.36349 0.0
H1399 H 0.60935 0.77925 0.4255 0.0
H1400 H 0.64019 0.88457 0.35985 0.0
H1401 H 0.6016 0.94029 0.4298 0.0
C1402 C 0.60528 1.01628 0.41615 0.0
C1403 C 0.61336 0.04729 0.3975 0.0
C1404 C 0.6334 0.86157 0.37426 0.0
C1405 C 0.61916 0.94064 0.39556 0.0
C1406 C 0.63594 0.80846 0.3732 0.0
C1407 C 0.62742 0.77736 0.39163 0.0
C1408 C 0.62225 0.88413 0.3939 0.0
C1409 C 0.61642 0.80149 0.41098 0.0
C1410 C 0.60813 0.96324 0.41525 0.0
C1411 C 0.62438 0.02315 0.37817 0.0
N1412 N 0.61413 0.85329 0.41158 0.0
N1413 N 0.62696 0.97141 0.37771 0.0
H1414 H 0.33932 0.99361 0.40022 0.0
H1415 H 0.38039 0.26077 0.34392 0.0
H1416 H 0.39237 1.0077 0.34523 0.0
H1417 H 0.32221 0.24716 0.39359 0.0
H1418 H 0.38545 0.16813 0.34495 0.0
H1419 H 0.33267 0.08596 0.39828 0.0
C1420 C 0.34942 1.01594 0.38757 0.0
C1421 C 0.36654 0.99261 0.37294 0.0
C1422 C 0.37156 0.18531 0.35564 0.0
C1423 C 0.35924 0.09875 0.3709 0.0
C1424 C 0.36877 0.23834 0.35519 0.0
C1425 C 0.35091 0.26197 0.36878 0.0
C1426 C 0.35646 0.15534 0.36986 0.0
C1427 C 0.3361 0.23065 0.38269 0.0
C1428 C 0.34571 0.06879 0.38659 0.0
C1429 C 0.37929 0.02389 0.35716 0.0
N1430 N 0.33926 0.17904 0.38294 0.0
N1431 N 0.37544 0.07518 0.35662 0.0
H1432 H 0.31208 0.79167 0.88467 0.0
H1433 H 0.40699 0.02221 0.87885 0.0
H1434 H 0.38783 0.77079 0.8731 0.0
H1435 H 0.33097 0.0451 0.88745 0.0
H1436 H 0.40033 0.93001 0.87838 0.0
H1437 H 0.31864 0.88402 0.88706 0.0
C1438 C 0.3301 0.80636 0.88258 0.0
C1439 C 0.34941 0.77297 0.8786 0.0
C1440 C 0.38508 0.95511 0.88043 0.0
C1441 C 0.35707 0.87926 0.88155 0.0
C1442 C 0.38888 1.00796 0.88088 0.0
C1443 C 0.36954 0.04188 0.8833 0.0
C1444 C 0.36172 0.93551 0.88242 0.0
C1445 C 0.34644 1.02069 0.88531 0.0
C1446 C 0.33384 0.85923 0.88406 0.0
C1447 C 0.3724 0.79462 0.87648 0.0
N1448 N 0.34319 0.96902 0.88485 0.0
N1449 N 0.37554 0.84618 0.87791 0.0
H1450 H 0.64905 0.25564 0.86038 0.0
H1451 H 0.58934 1.01745 0.92747 0.0
H1452 H 0.60429 0.27088 0.92208 0.0
H1453 H 0.63429 1.00201 0.86592 0.0
H1454 H 0.59492 0.10998 0.92596 0.0
H1455 H 0.64371 0.16302 0.86202 0.0
C1456 C 0.63793 0.23967 0.87419 0.0
C1457 C 0.62703 0.27155 0.89106 0.0
C1458 C 0.6036 0.0864 0.91279 0.0
C1459 C 0.62111 0.16473 0.89322 0.0
C1460 C 0.60056 0.03335 0.91372 0.0
C1461 C 0.61142 1.00144 0.89684 0.0
C1462 C 0.61761 0.1082 0.89482 0.0
C1463 C 0.62533 0.02482 0.87918 0.0
C1464 C 0.63503 0.18658 0.87521 0.0
C1465 C 0.61327 0.2481 0.90882 0.0
N1466 N 0.62803 0.0766 0.87865 0.0
N1467 N 0.61069 0.1963 0.9094 0.0
H1468 H 0.34638 0.99308 0.6704 0.0
H1469 H 0.36678 0.26639 0.60926 0.0
H1470 H 0.38153 1.01245 0.60311 0.0
H1471 H 0.33068 0.24539 0.67594 0.0
H1472 H 0.37179 0.17367 0.60626 0.0
H1473 H 0.33929 0.08505 0.67192 0.0
C1474 C 0.35239 1.01646 0.65578 0.0
C1475 C 0.36462 0.99456 0.63659 0.0
C1476 C 0.3627 0.18935 0.62151 0.0
C1477 C 0.35688 0.10077 0.63847 0.0
C1478 C 0.35995 0.24242 0.62331 0.0
C1479 C 0.34826 0.26409 0.64289 0.0
C1480 C 0.35379 0.15742 0.63944 0.0
C1481 C 0.3395 0.23069 0.66034 0.0
C1482 C 0.34849 0.06922 0.65677 0.0
C1483 C 0.37234 0.02742 0.61844 0.0
N1484 N 0.34249 0.17927 0.65822 0.0
N1485 N 0.3684 0.0787 0.61986 0.0
H1486 H 0.62397 0.78747 0.6293 0.0
H1487 H 0.63219 0.05645 0.69703 0.0
H1488 H 0.64863 0.80468 0.70132 0.0
H1489 H 0.61169 0.04193 0.62368 0.0
H1490 H 0.6388 0.96426 0.69862 0.0
H1491 H 0.62021 0.88045 0.62643 0.0
C1492 C 0.62877 0.81071 0.64446 0.0
C1493 C 0.6365 0.78792 0.66564 0.0
C1494 C 0.63295 0.9812 0.68213 0.0
C1495 C 0.63196 0.89463 0.66254 0.0
C1496 C 0.62906 0.03389 0.68124 0.0
C1497 C 0.62127 0.05711 0.66021 0.0
C1498 C 0.62893 0.95115 0.66187 0.0
C1499 C 0.61791 0.02587 0.64022 0.0
C1500 C 0.62649 0.86385 0.64284 0.0
C1501 C 0.64216 0.82022 0.68477 0.0
N1502 N 0.62163 0.97454 0.64157 0.0
N1503 N 0.63971 0.87173 0.68278 0.0
loop_
_geom_bond_atom_site_label_1
_geom_bond_atom_site_label_2
_geom_bond_distance
_geom_bond_site_symmetry_2
_ccdc_geom_bond_type
Sm0 C2 2.846 1_545 S
Sm0 O20 2.543 1_545 S
Sm0 O21 2.450 1_545 S
Sm0 O22 2.681 . S
Sm0 O23 2.464 . S
Sm0 O24 2.396 . S
Sm0 O28 2.386 . S
Sm0 O31 2.408 . S
Sm1 C11 2.846 . S
Sm1 O22 2.386 . S
Sm1 O25 2.408 . S
Sm1 O26 2.543 . S
Sm1 O27 2.450 . S
Sm1 O28 2.681 . S
Sm1 O29 2.464 . S
Sm1 O30 2.396 . S
C2 Sm0 2.846 1_565 S
C2 C3 1.506 . S
C2 O20 1.261 . S
C2 O21 1.242 . S
C3 C2 1.506 . S
C3 C4 1.358 . S
C3 C8 1.382 . S
C4 C3 1.358 . S
C4 C5 1.385 . S
C4 H32 0.930 . S
C5 C4 1.385 . S
C5 C6 1.395 . S
C5 H33 0.929 . S
C6 C5 1.395 . S
C6 C7 1.335 . S
C7 C6 1.335 . S
C7 C8 1.398 . S
C7 H34 0.930 . S
C8 C3 1.382 . S
C8 C7 1.398 . S
C8 H35 0.929 . S
C9 O22 1.271 . S
C9 O23 1.251 . S
C10 O24 1.252 . S
C10 O25 1.272 . S
C11 Sm1 2.846 . S
C11 C12 1.506 . S
C11 O26 1.261 . S
C11 O27 1.242 . S
C12 C11 1.506 . S
C12 C13 1.358 . S
C12 C17 1.382 . S
C13 C12 1.358 . S
C13 C14 1.385 . S
C13 H36 0.930 . S
C14 C13 1.385 . S
C14 C15 1.395 . S
C14 H37 0.929 . S
C15 C14 1.395 . S
C15 C16 1.335 . S
C16 C15 1.335 . S
C16 C17 1.398 . S
C16 H38 0.930 . S
C17 C12 1.382 . S
C17 C16 1.398 . S
C17 H39 0.929 . S
C18 O28 1.271 . S
C18 O29 1.251 . S
C19 O30 1.252 . S
C19 O31 1.272 . S
O20 Sm0 2.543 1_565 S
O20 C2 1.261 . S
O21 Sm0 2.450 1_565 S
O21 C2 1.242 . S
O22 Sm0 2.681 . S
O22 Sm1 2.386 . S
O22 C9 1.271 . S
O23 Sm0 2.464 . S
O23 C9 1.251 . S
O24 Sm0 2.396 . S
O24 C10 1.252 . S
O25 Sm1 2.408 . S
O25 C10 1.272 . S
O26 Sm1 2.543 . S
O26 C11 1.261 . S
O27 Sm1 2.450 . S
O27 C11 1.242 . S
O28 Sm0 2.386 . S
O28 Sm1 2.681 . S
O28 C18 1.271 . S
O29 Sm1 2.464 . S
O29 C18 1.251 . S
O30 Sm1 2.396 . S
O30 C19 1.252 . S
O31 Sm0 2.408 . S
O31 C19 1.272 . S
H32 C4 0.930 . S
H33 C5 0.929 . S
H34 C7 0.930 . S
H35 C8 0.929 . S
H36 C13 0.930 . S
H37 C14 0.929 . S
H38 C16 0.930 . S
H39 C17 0.929 . S
Sm40 C42 2.846 1_565 S
Sm40 O60 2.543 1_565 S
Sm40 O61 2.450 1_565 S
Sm40 O62 2.681 . S
Sm40 O63 2.464 . S
Sm40 O64 2.396 . S
Sm40 O68 2.386 . S
Sm40 O71 2.408 . S
Sm41 C51 2.846 . S
Sm41 O62 2.386 . S
Sm41 O65 2.408 . S
Sm41 O66 2.543 . S
Sm41 O67 2.450 . S
Sm41 O68 2.681 . S
Sm41 O69 2.464 . S
Sm41 O70 2.396 . S
C42 Sm40 2.846 1_545 S
C42 C43 1.506 . S
C42 O60 1.261 . S
C42 O61 1.242 . S
C43 C42 1.506 . S
C43 C44 1.358 . S
C43 C48 1.382 . S
C44 C43 1.358 . S
C44 C45 1.385 . S
C44 H72 0.930 . S
C45 C44 1.385 . S
C45 C46 1.395 . S
C45 H73 0.929 . S
C46 C45 1.395 . S
C46 C47 1.335 . S
C47 C46 1.335 . S
C47 C48 1.398 . S
C47 H74 0.930 . S
C48 C43 1.382 . S
C48 C47 1.398 . S
C48 H75 0.929 . S
C49 O62 1.271 . S
C49 O63 1.251 . S
C50 O64 1.252 . S
C50 O65 1.272 . S
C51 Sm41 2.846 . S
C51 C52 1.506 . S
C51 O66 1.261 . S
C51 O67 1.242 . S
C52 C51 1.506 . S
C52 C53 1.358 . S
C52 C57 1.382 . S
C53 C52 1.358 . S
C53 C54 1.385 . S
C53 H76 0.930 . S
C54 C53 1.385 . S
C54 C55 1.395 . S
C54 H77 0.929 . S
C55 C54 1.395 . S
C55 C56 1.335 . S
C56 C55 1.335 . S
C56 C57 1.398 . S
C56 H78 0.930 . S
C57 C52 1.382 . S
C57 C56 1.398 . S
C57 H79 0.929 . S
C58 O68 1.271 . S
C58 O69 1.251 . S
C59 O70 1.252 . S
C59 O71 1.272 . S
O60 Sm40 2.543 1_545 S
O60 C42 1.261 . S
O61 Sm40 2.450 1_545 S
O61 C42 1.242 . S
O62 Sm40 2.681 . S
O62 Sm41 2.386 . S
O62 C49 1.271 . S
O63 Sm40 2.464 . S
O63 C49 1.251 . S
O64 Sm40 2.396 . S
O64 C50 1.252 . S
O65 Sm41 2.408 . S
O65 C50 1.272 . S
O66 Sm41 2.543 . S
O66 C51 1.261 . S
O67 Sm41 2.450 . S
O67 C51 1.242 . S
O68 Sm40 2.386 . S
O68 Sm41 2.681 . S
O68 C58 1.271 . S
O69 Sm41 2.464 . S
O69 C58 1.251 . S
O70 Sm41 2.396 . S
O70 C59 1.252 . S
O71 Sm40 2.408 . S
O71 C59 1.272 . S
H72 C44 0.930 . S
H73 C45 0.929 . S
H74 C47 0.930 . S
H75 C48 0.929 . S
H76 C53 0.930 . S
H77 C54 0.929 . S
H78 C56 0.930 . S
H79 C57 0.929 . S
Sm80 C82 2.846 1_565 S
Sm80 O100 2.543 1_565 S
Sm80 O101 2.450 1_565 S
Sm80 O102 2.681 . S
Sm80 O103 2.464 . S
Sm80 O104 2.396 . S
Sm80 O108 2.386 . S
Sm80 O111 2.408 . S
Sm81 C91 2.846 . S
Sm81 O102 2.386 . S
Sm81 O105 2.408 . S
Sm81 O106 2.543 . S
Sm81 O107 2.450 . S
Sm81 O108 2.681 . S
Sm81 O109 2.464 . S
Sm81 O110 2.396 . S
C82 Sm80 2.846 1_545 S
C82 C83 1.506 . S
C82 O100 1.261 . S
C82 O101 1.242 . S
C83 C82 1.506 . S
C83 C84 1.358 . S
C83 C88 1.382 . S
C84 C83 1.358 . S
C84 C85 1.385 . S
C84 H112 0.930 . S
C85 C84 1.385 . S
C85 C86 1.395 . S
C85 H113 0.929 . S
C86 C85 1.395 . S
C86 C87 1.335 . S
C87 C86 1.335 . S
C87 C88 1.398 . S
C87 H114 0.930 . S
C88 C83 1.382 . S
C88 C87 1.398 . S
C88 H115 0.929 . S
C89 O102 1.271 . S
C89 O103 1.251 . S
C90 O104 1.252 . S
C90 O105 1.272 . S
C91 Sm81 2.846 . S
C91 C92 1.506 . S
C91 O106 1.261 . S
C91 O107 1.242 . S
C92 C91 1.506 . S
C92 C93 1.358 . S
C92 C97 1.382 . S
C93 C92 1.358 . S
C93 C94 1.385 . S
C93 H116 0.930 . S
C94 C93 1.385 . S
C94 C95 1.395 . S
C94 H117 0.929 . S
C95 C94 1.395 . S
C95 C96 1.335 . S
C96 C95 1.335 . S
C96 C97 1.398 . S
C96 H118 0.930 . S
C97 C92 1.382 . S
C97 C96 1.398 . S
C97 H119 0.929 . S
C98 O108 1.271 . S
C98 O109 1.251 . S
C99 O110 1.252 . S
C99 O111 1.272 . S
O100 Sm80 2.543 1_545 S
O100 C82 1.261 . S
O101 Sm80 2.450 1_545 S
O101 C82 1.242 . S
O102 Sm80 2.681 . S
O102 Sm81 2.386 . S
O102 C89 1.271 . S
O103 Sm80 2.464 . S
O103 C89 1.251 . S
O104 Sm80 2.396 . S
O104 C90 1.252 . S
O105 Sm81 2.408 . S
O105 C90 1.272 . S
O106 Sm81 2.543 . S
O106 C91 1.261 . S
O107 Sm81 2.450 . S
O107 C91 1.242 . S
O108 Sm80 2.386 . S
O108 Sm81 2.681 . S
O108 C98 1.271 . S
O109 Sm81 2.464 . S
O109 C98 1.251 . S
O110 Sm81 2.396 . S
O110 C99 1.252 . S
O111 Sm80 2.408 . S
O111 C99 1.272 . S
H112 C84 0.930 . S
H113 C85 0.929 . S
H114 C87 0.930 . S
H115 C88 0.929 . S
H116 C93 0.930 . S
H117 C94 0.929 . S
H118 C96 0.930 . S
H119 C97 0.929 . S
Sm120 C122 2.846 1_545 S
Sm120 O140 2.543 1_545 S
Sm120 O141 2.450 1_545 S
Sm120 O142 2.681 . S
Sm120 O143 2.464 . S
Sm120 O144 2.396 . S
Sm120 O148 2.386 . S
Sm120 O151 2.408 . S
Sm121 C131 2.846 . S
Sm121 O142 2.386 . S
Sm121 O145 2.408 . S
Sm121 O146 2.543 . S
Sm121 O147 2.450 . S
Sm121 O148 2.681 . S
Sm121 O149 2.464 . S
Sm121 O150 2.396 . S
C122 Sm120 2.846 1_565 S
C122 C123 1.506 . S
C122 O140 1.261 . S
C122 O141 1.242 . S
C123 C122 1.506 . S
C123 C124 1.358 . S
C123 C128 1.382 . S
C124 C123 1.358 . S
C124 C125 1.385 . S
C124 H152 0.930 . S
C125 C124 1.385 . S
C125 C126 1.395 . S
C125 H153 0.929 . S
C126 C125 1.395 . S
C126 C127 1.335 . S
C127 C126 1.335 . S
C127 C128 1.398 . S
C127 H154 0.930 . S
C128 C123 1.382 . S
C128 C127 1.398 . S
C128 H155 0.929 . S
C129 O142 1.271 . S
C129 O143 1.251 . S
C130 O144 1.252 . S
C130 O145 1.272 . S
C131 Sm121 2.846 . S
C131 C132 1.506 . S
C131 O146 1.261 . S
C131 O147 1.242 . S
C132 C131 1.506 . S
C132 C133 1.358 . S
C132 C137 1.382 . S
C133 C132 1.358 . S
C133 C134 1.385 . S
C133 H156 0.930 . S
C134 C133 1.385 . S
C134 C135 1.395 . S
C134 H157 0.929 . S
C135 C134 1.395 . S
C135 C136 1.335 . S
C136 C135 1.335 . S
C136 C137 1.398 . S
C136 H158 0.930 . S
C137 C132 1.382 . S
C137 C136 1.398 . S
C137 H159 0.929 . S
C138 O148 1.271 . S
C138 O149 1.251 . S
C139 O150 1.252 . S
C139 O151 1.272 . S
O140 Sm120 2.543 1_565 S
O140 C122 1.261 . S
O141 Sm120 2.450 1_565 S
O141 C122 1.242 . S
O142 Sm120 2.681 . S
O142 Sm121 2.386 . S
O142 C129 1.271 . S
O143 Sm120 2.464 . S
O143 C129 1.251 . S
O144 Sm120 2.396 . S
O144 C130 1.252 . S
O145 Sm121 2.408 . S
O145 C130 1.272 . S
O146 Sm121 2.543 . S
O146 C131 1.261 . S
O147 Sm121 2.450 . S
O147 C131 1.242 . S
O148 Sm120 2.386 . S
O148 Sm121 2.681 . S
O148 C138 1.271 . S
O149 Sm121 2.464 . S
O149 C138 1.251 . S
O150 Sm121 2.396 . S
O150 C139 1.252 . S
O151 Sm120 2.408 . S
O151 C139 1.272 . S
H152 C124 0.930 . S
H153 C125 0.929 . S
H154 C127 0.930 . S
H155 C128 0.929 . S
H156 C133 0.930 . S
H157 C134 0.929 . S
H158 C136 0.930 . S
H159 C137 0.929 . S
Sm160 C162 2.846 . S
Sm160 O180 2.543 . S
Sm160 O181 2.450 . S
Sm160 O182 2.681 . S
Sm160 O183 2.464 . S
Sm160 O184 2.396 . S
Sm160 O188 2.386 . S
Sm160 O191 2.408 . S
Sm161 C171 2.846 1_565 S
Sm161 O182 2.386 . S
Sm161 O185 2.408 . S
Sm161 O186 2.543 1_565 S
Sm161 O187 2.450 1_565 S
Sm161 O188 2.681 . S
Sm161 O189 2.464 . S
Sm161 O190 2.396 . S
C162 Sm160 2.846 . S
C162 C163 1.506 . S
C162 O180 1.261 . S
C162 O181 1.242 . S
C163 C162 1.506 . S
C163 C164 1.358 . S
C163 C168 1.382 . S
C164 C163 1.358 . S
C164 C165 1.385 . S
C164 H192 0.930 . S
C165 C164 1.385 . S
C165 C166 1.395 . S
C165 H193 0.929 . S
C166 C165 1.395 . S
C166 C167 1.335 . S
C167 C166 1.335 . S
C167 C168 1.398 . S
C167 H194 0.930 . S
C168 C163 1.382 . S
C168 C167 1.398 . S
C168 H195 0.929 . S
C169 O182 1.271 . S
C169 O183 1.251 . S
C170 O184 1.252 . S
C170 O185 1.272 . S
C171 Sm161 2.846 1_545 S
C171 C172 1.506 . S
C171 O186 1.261 . S
C171 O187 1.242 . S
C172 C171 1.506 . S
C172 C173 1.358 . S
C172 C177 1.382 . S
C173 C172 1.358 . S
C173 C174 1.385 . S
C173 H196 0.930 . S
C174 C173 1.385 . S
C174 C175 1.395 . S
C174 H197 0.929 . S
C175 C174 1.395 . S
C175 C176 1.335 . S
C176 C175 1.335 . S
C176 C177 1.398 . S
C176 H198 0.930 . S
C177 C172 1.382 . S
C177 C176 1.398 . S
C177 H199 0.929 . S
C178 O188 1.271 . S
C178 O189 1.251 . S
C179 O190 1.252 . S
C179 O191 1.272 . S
O180 Sm160 2.543 . S
O180 C162 1.261 . S
O181 Sm160 2.450 . S
O181 C162 1.242 . S
O182 Sm160 2.681 . S
O182 Sm161 2.386 . S
O182 C169 1.271 . S
O183 Sm160 2.464 . S
O183 C169 1.251 . S
O184 Sm160 2.396 . S
O184 C170 1.252 . S
O185 Sm161 2.408 . S
O185 C170 1.272 . S
O186 Sm161 2.543 1_545 S
O186 C171 1.261 . S
O187 Sm161 2.450 1_545 S
O187 C171 1.242 . S
O188 Sm160 2.386 . S
O188 Sm161 2.681 . S
O188 C178 1.271 . S
O189 Sm161 2.464 . S
O189 C178 1.251 . S
O190 Sm161 2.396 . S
O190 C179 1.252 . S
O191 Sm160 2.408 . S
O191 C179 1.272 . S
H192 C164 0.930 . S
H193 C165 0.929 . S
H194 C167 0.930 . S
H195 C168 0.929 . S
H196 C173 0.930 . S
H197 C174 0.929 . S
H198 C176 0.930 . S
H199 C177 0.929 . S
Sm200 C202 2.846 . S
Sm200 O220 2.543 . S
Sm200 O221 2.450 . S
Sm200 O222 2.681 . S
Sm200 O223 2.464 . S
Sm200 O224 2.396 . S
Sm200 O228 2.386 . S
Sm200 O231 2.408 . S
Sm201 C211 2.846 1_545 S
Sm201 O222 2.386 . S
Sm201 O225 2.408 . S
Sm201 O226 2.543 1_545 S
Sm201 O227 2.450 1_545 S
Sm201 O228 2.681 . S
Sm201 O229 2.464 . S
Sm201 O230 2.396 . S
C202 Sm200 2.846 . S
C202 C203 1.506 . S
C202 O220 1.261 . S
C202 O221 1.242 . S
C203 C202 1.506 . S
C203 C204 1.358 . S
C203 C208 1.382 . S
C204 C203 1.358 . S
C204 C205 1.385 . S
C204 H232 0.930 . S
C205 C204 1.385 . S
C205 C206 1.395 . S
C205 H233 0.929 . S
C206 C205 1.395 . S
C206 C207 1.335 . S
C207 C206 1.335 . S
C207 C208 1.398 . S
C207 H234 0.930 . S
C208 C203 1.382 . S
C208 C207 1.398 . S
C208 H235 0.929 . S
C209 O222 1.271 . S
C209 O223 1.251 . S
C210 O224 1.252 . S
C210 O225 1.272 . S
C211 Sm201 2.846 1_565 S
C211 C212 1.506 . S
C211 O226 1.261 . S
C211 O227 1.242 . S
C212 C211 1.506 . S
C212 C213 1.358 . S
C212 C217 1.382 . S
C213 C212 1.358 . S
C213 C214 1.385 . S
C213 H236 0.930 . S
C214 C213 1.385 . S
C214 C215 1.395 . S
C214 H237 0.929 . S
C215 C214 1.395 . S
C215 C216 1.335 . S
C216 C215 1.335 . S
C216 C217 1.398 . S
C216 H238 0.930 . S
C217 C212 1.382 . S
C217 C216 1.398 . S
C217 H239 0.929 . S
C218 O228 1.271 . S
C218 O229 1.251 . S
C219 O230 1.252 . S
C219 O231 1.272 . S
O220 Sm200 2.543 . S
O220 C202 1.261 . S
O221 Sm200 2.450 . S
O221 C202 1.242 . S
O222 Sm200 2.681 . S
O222 Sm201 2.386 . S
O222 C209 1.271 . S
O223 Sm200 2.464 . S
O223 C209 1.251 . S
O224 Sm200 2.396 . S
O224 C210 1.252 . S
O225 Sm201 2.408 . S
O225 C210 1.272 . S
O226 Sm201 2.543 1_565 S
O226 C211 1.261 . S
O227 Sm201 2.450 1_565 S
O227 C211 1.242 . S
O228 Sm200 2.386 . S
O228 Sm201 2.681 . S
O228 C218 1.271 . S
O229 Sm201 2.464 . S
O229 C218 1.251 . S
O230 Sm201 2.396 . S
O230 C219 1.252 . S
O231 Sm200 2.408 . S
O231 C219 1.272 . S
H232 C204 0.930 . S
H233 C205 0.929 . S
H234 C207 0.930 . S
H235 C208 0.929 . S
H236 C213 0.930 . S
H237 C214 0.929 . S
H238 C216 0.930 . S
H239 C217 0.929 . S
Sm240 C242 2.846 . S
Sm240 O260 2.543 . S
Sm240 O261 2.450 . S
Sm240 O262 2.681 . S
Sm240 O263 2.464 . S
Sm240 O264 2.396 . S
Sm240 O268 2.386 . S
Sm240 O271 2.408 . S
Sm241 C251 2.846 1_545 S
Sm241 O262 2.386 . S
Sm241 O265 2.408 . S
Sm241 O266 2.543 1_545 S
Sm241 O267 2.450 1_545 S
Sm241 O268 2.681 . S
Sm241 O269 2.464 . S
Sm241 O270 2.396 . S
C242 Sm240 2.846 . S
C242 C243 1.506 . S
C242 O260 1.261 . S
C242 O261 1.242 . S
C243 C242 1.506 . S
C243 C244 1.358 . S
C243 C248 1.382 . S
C244 C243 1.358 . S
C244 C245 1.385 . S
C244 H272 0.930 . S
C245 C244 1.385 . S
C245 C246 1.395 . S
C245 H273 0.929 . S
C246 C245 1.395 . S
C246 C247 1.335 . S
C247 C246 1.335 . S
C247 C248 1.398 . S
C247 H274 0.930 . S
C248 C243 1.382 . S
C248 C247 1.398 . S
C248 H275 0.929 . S
C249 O262 1.271 . S
C249 O263 1.251 . S
C250 O264 1.252 . S
C250 O265 1.272 . S
C251 Sm241 2.846 1_565 S
C251 C252 1.506 . S
C251 O266 1.261 . S
C251 O267 1.242 . S
C252 C251 1.506 . S
C252 C253 1.358 . S
C252 C257 1.382 . S
C253 C252 1.358 . S
C253 C254 1.385 . S
C253 H276 0.930 . S
C254 C253 1.385 . S
C254 C255 1.395 . S
C254 H277 0.929 . S
C255 C254 1.395 . S
C255 C256 1.335 . S
C256 C255 1.335 . S
C256 C257 1.398 . S
C256 H278 0.930 . S
C257 C252 1.382 . S
C257 C256 1.398 . S
C257 H279 0.929 . S
C258 O268 1.271 . S
C258 O269 1.251 . S
C259 O270 1.252 . S
C259 O271 1.272 . S
O260 Sm240 2.543 . S
O260 C242 1.261 . S
O261 Sm240 2.450 . S
O261 C242 1.242 . S
O262 Sm240 2.681 . S
O262 Sm241 2.386 . S
O262 C249 1.271 . S
O263 Sm240 2.464 . S
O263 C249 1.251 . S
O264 Sm240 2.396 . S
O264 C250 1.252 . S
O265 Sm241 2.408 . S
O265 C250 1.272 . S
O266 Sm241 2.543 1_565 S
O266 C251 1.261 . S
O267 Sm241 2.450 1_565 S
O267 C251 1.242 . S
O268 Sm240 2.386 . S
O268 Sm241 2.681 . S
O268 C258 1.271 . S
O269 Sm241 2.464 . S
O269 C258 1.251 . S
O270 Sm241 2.396 . S
O270 C259 1.252 . S
O271 Sm240 2.408 . S
O271 C259 1.272 . S
H272 C244 0.930 . S
H273 C245 0.929 . S
H274 C247 0.930 . S
H275 C248 0.929 . S
H276 C253 0.930 . S
H277 C254 0.929 . S
H278 C256 0.930 . S
H279 C257 0.929 . S
Sm280 C282 2.846 . S
Sm280 O300 2.543 . S
Sm280 O301 2.450 . S
Sm280 O302 2.681 . S
Sm280 O303 2.464 . S
Sm280 O304 2.396 . S
Sm280 O308 2.386 . S
Sm280 O311 2.408 . S
Sm281 C291 2.846 1_565 S
Sm281 O302 2.386 . S
Sm281 O305 2.408 . S
Sm281 O306 2.543 1_565 S
Sm281 O307 2.450 1_565 S
Sm281 O308 2.681 . S
Sm281 O309 2.464 . S
Sm281 O310 2.396 . S
C282 Sm280 2.846 . S
C282 C283 1.506 . S
C282 O300 1.261 . S
C282 O301 1.242 . S
C283 C282 1.506 . S
C283 C284 1.358 . S
C283 C288 1.382 . S
C284 C283 1.358 . S
C284 C285 1.385 . S
C284 H312 0.930 . S
C285 C284 1.385 . S
C285 C286 1.395 . S
C285 H313 0.929 . S
C286 C285 1.395 . S
C286 C287 1.335 . S
C287 C286 1.335 . S
C287 C288 1.398 . S
C287 H314 0.930 . S
C288 C283 1.382 . S
C288 C287 1.398 . S
C288 H315 0.929 . S
C289 O302 1.271 . S
C289 O303 1.251 . S
C290 O304 1.252 . S
C290 O305 1.272 . S
C291 Sm281 2.846 1_545 S
C291 C292 1.506 . S
C291 O306 1.261 . S
C291 O307 1.242 . S
C292 C291 1.506 . S
C292 C293 1.358 . S
C292 C297 1.382 . S
C293 C292 1.358 . S
C293 C294 1.385 . S
C293 H316 0.930 . S
C294 C293 1.385 . S
C294 C295 1.395 . S
C294 H317 0.929 . S
C295 C294 1.395 . S
C295 C296 1.335 . S
C296 C295 1.335 . S
C296 C297 1.398 . S
C296 H318 0.930 . S
C297 C292 1.382 . S
C297 C296 1.398 . S
C297 H319 0.929 . S
C298 O308 1.271 . S
C298 O309 1.251 . S
C299 O310 1.252 . S
C299 O311 1.272 . S
O300 Sm280 2.543 . S
O300 C282 1.261 . S
O301 Sm280 2.450 . S
O301 C282 1.242 . S
O302 Sm280 2.681 . S
O302 Sm281 2.386 . S
O302 C289 1.271 . S
O303 Sm280 2.464 . S
O303 C289 1.251 . S
O304 Sm280 2.396 . S
O304 C290 1.252 . S
O305 Sm281 2.408 . S
O305 C290 1.272 . S
O306 Sm281 2.543 1_545 S
O306 C291 1.261 . S
O307 Sm281 2.450 1_545 S
O307 C291 1.242 . S
O308 Sm280 2.386 . S
O308 Sm281 2.681 . S
O308 C298 1.271 . S
O309 Sm281 2.464 . S
O309 C298 1.251 . S
O310 Sm281 2.396 . S
O310 C299 1.252 . S
O311 Sm280 2.408 . S
O311 C299 1.272 . S
H312 C284 0.930 . S
H313 C285 0.929 . S
H314 C287 0.930 . S
H315 C288 0.929 . S
H316 C293 0.930 . S
H317 C294 0.929 . S
H318 C296 0.930 . S
H319 C297 0.929 . S
Sm320 C322 2.846 . S
Sm320 O340 2.543 . S
Sm320 O341 2.450 . S
Sm320 O342 2.681 . S
Sm320 O343 2.464 . S
Sm320 O344 2.396 . S
Sm320 O348 2.386 . S
Sm320 O351 2.408 . S
Sm321 C331 2.846 . S
Sm321 O342 2.386 . S
Sm321 O345 2.408 . S
Sm321 O346 2.543 . S
Sm321 O347 2.450 . S
Sm321 O348 2.681 . S
Sm321 O349 2.464 . S
Sm321 O350 2.396 . S
C322 Sm320 2.846 . S
C322 C323 1.506 . S
C322 O340 1.261 . S
C322 O341 1.242 . S
C323 C322 1.506 . S
C323 C324 1.358 . S
C323 C328 1.382 . S
C324 C323 1.358 . S
C324 C325 1.385 . S
C324 H352 0.930 . S
C325 C324 1.385 . S
C325 C326 1.395 . S
C325 H353 0.929 . S
C326 C325 1.395 . S
C326 C327 1.335 . S
C327 C326 1.335 . S
C327 C328 1.398 . S
C327 H354 0.930 . S
C328 C323 1.382 . S
C328 C327 1.398 . S
C328 H355 0.929 . S
C329 O342 1.271 . S
C329 O343 1.251 . S
C330 O344 1.252 . S
C330 O345 1.272 . S
C331 Sm321 2.846 . S
C331 C332 1.506 . S
C331 O346 1.261 . S
C331 O347 1.242 . S
C332 C331 1.506 . S
C332 C333 1.358 . S
C332 C337 1.382 . S
C333 C332 1.358 . S
C333 C334 1.385 . S
C333 H356 0.930 . S
C334 C333 1.385 . S
C334 C335 1.395 . S
C334 H357 0.929 . S
C335 C334 1.395 . S
C335 C336 1.335 . S
C336 C335 1.335 . S
C336 C337 1.398 . S
C336 H358 0.930 . S
C337 C332 1.382 . S
C337 C336 1.398 . S
C337 H359 0.929 . S
C338 O348 1.271 . S
C338 O349 1.251 . S
C339 O350 1.252 . S
C339 O351 1.272 . S
O340 Sm320 2.543 . S
O340 C322 1.261 . S
O341 Sm320 2.450 . S
O341 C322 1.242 . S
O342 Sm320 2.681 . S
O342 Sm321 2.386 . S
O342 C329 1.271 . S
O343 Sm320 2.464 . S
O343 C329 1.251 . S
O344 Sm320 2.396 . S
O344 C330 1.252 . S
O345 Sm321 2.408 . S
O345 C330 1.272 . S
O346 Sm321 2.543 . S
O346 C331 1.261 . S
O347 Sm321 2.450 . S
O347 C331 1.242 . S
O348 Sm320 2.386 . S
O348 Sm321 2.681 . S
O348 C338 1.271 . S
O349 Sm321 2.464 . S
O349 C338 1.251 . S
O350 Sm321 2.396 . S
O350 C339 1.252 . S
O351 Sm320 2.408 . S
O351 C339 1.272 . S
H352 C324 0.930 . S
H353 C325 0.929 . S
H354 C327 0.930 . S
H355 C328 0.929 . S
H356 C333 0.930 . S
H357 C334 0.929 . S
H358 C336 0.930 . S
H359 C337 0.929 . S
Sm360 C362 2.846 . S
Sm360 O380 2.543 . S
Sm360 O381 2.450 . S
Sm360 O382 2.681 . S
Sm360 O383 2.464 . S
Sm360 O384 2.396 . S
Sm360 O388 2.386 . S
Sm360 O391 2.408 . S
Sm361 C371 2.846 . S
Sm361 O382 2.386 . S
Sm361 O385 2.408 . S
Sm361 O386 2.543 . S
Sm361 O387 2.450 . S
Sm361 O388 2.681 . S
Sm361 O389 2.464 . S
Sm361 O390 2.396 . S
C362 Sm360 2.846 . S
C362 C363 1.506 . S
C362 O380 1.261 . S
C362 O381 1.242 . S
C363 C362 1.506 . S
C363 C364 1.358 . S
C363 C368 1.382 . S
C364 C363 1.358 . S
C364 C365 1.385 . S
C364 H392 0.930 . S
C365 C364 1.385 . S
C365 C366 1.395 . S
C365 H393 0.929 . S
C366 C365 1.395 . S
C366 C367 1.335 . S
C367 C366 1.335 . S
C367 C368 1.398 . S
C367 H394 0.930 . S
C368 C363 1.382 . S
C368 C367 1.398 . S
C368 H395 0.929 . S
C369 O382 1.271 . S
C369 O383 1.251 . S
C370 O384 1.252 . S
C370 O385 1.272 . S
C371 Sm361 2.846 . S
C371 C372 1.506 . S
C371 O386 1.261 . S
C371 O387 1.242 . S
C372 C371 1.506 . S
C372 C373 1.358 . S
C372 C377 1.382 . S
C373 C372 1.358 . S
C373 C374 1.385 . S
C373 H396 0.930 . S
C374 C373 1.385 . S
C374 C375 1.395 . S
C374 H397 0.929 . S
C375 C374 1.395 . S
C375 C376 1.335 . S
C376 C375 1.335 . S
C376 C377 1.398 . S
C376 H398 0.930 . S
C377 C372 1.382 . S
C377 C376 1.398 . S
C377 H399 0.929 . S
C378 O388 1.271 . S
C378 O389 1.251 . S
C379 O390 1.252 . S
C379 O391 1.272 . S
O380 Sm360 2.543 . S
O380 C362 1.261 . S
O381 Sm360 2.450 . S
O381 C362 1.242 . S
O382 Sm360 2.681 . S
O382 Sm361 2.386 . S
O382 C369 1.271 . S
O383 Sm360 2.464 . S
O383 C369 1.251 . S
O384 Sm360 2.396 . S
O384 C370 1.252 . S
O385 Sm361 2.408 . S
O385 C370 1.272 . S
O386 Sm361 2.543 . S
O386 C371 1.261 . S
O387 Sm361 2.450 . S
O387 C371 1.242 . S
O388 Sm360 2.386 . S
O388 Sm361 2.681 . S
O388 C378 1.271 . S
O389 Sm361 2.464 . S
O389 C378 1.251 . S
O390 Sm361 2.396 . S
O390 C379 1.252 . S
O391 Sm360 2.408 . S
O391 C379 1.272 . S
H392 C364 0.930 . S
H393 C365 0.929 . S
H394 C367 0.930 . S
H395 C368 0.929 . S
H396 C373 0.930 . S
H397 C374 0.929 . S
H398 C376 0.930 . S
H399 C377 0.929 . S
Sm400 C402 2.846 . S
Sm400 O420 2.543 . S
Sm400 O421 2.450 . S
Sm400 O422 2.681 . S
Sm400 O423 2.464 . S
Sm400 O424 2.396 . S
Sm400 O428 2.386 . S
Sm400 O431 2.408 . S
Sm401 C411 2.846 . S
Sm401 O422 2.386 . S
Sm401 O425 2.408 . S
Sm401 O426 2.543 . S
Sm401 O427 2.450 . S
Sm401 O428 2.681 . S
Sm401 O429 2.464 . S
Sm401 O430 2.396 . S
C402 Sm400 2.846 . S
C402 C403 1.506 . S
C402 O420 1.261 . S
C402 O421 1.242 . S
C403 C402 1.506 . S
C403 C404 1.358 . S
C403 C408 1.382 . S
C404 C403 1.358 . S
C404 C405 1.385 . S
C404 H432 0.930 . S
C405 C404 1.385 . S
C405 C406 1.395 . S
C405 H433 0.929 . S
C406 C405 1.395 . S
C406 C407 1.335 . S
C407 C406 1.335 . S
C407 C408 1.398 . S
C407 H434 0.930 . S
C408 C403 1.382 . S
C408 C407 1.398 . S
C408 H435 0.929 . S
C409 O422 1.271 . S
C409 O423 1.251 . S
C410 O424 1.252 . S
C410 O425 1.272 . S
C411 Sm401 2.846 . S
C411 C412 1.506 . S
C411 O426 1.261 . S
C411 O427 1.242 . S
C412 C411 1.506 . S
C412 C413 1.358 . S
C412 C417 1.382 . S
C413 C412 1.358 . S
C413 C414 1.385 . S
C413 H436 0.930 . S
C414 C413 1.385 . S
C414 C415 1.395 . S
C414 H437 0.929 . S
C415 C414 1.395 . S
C415 C416 1.335 . S
C416 C415 1.335 . S
C416 C417 1.398 . S
C416 H438 0.930 . S
C417 C412 1.382 . S
C417 C416 1.398 . S
C417 H439 0.929 . S
C418 O428 1.271 . S
C418 O429 1.251 . S
C419 O430 1.252 . S
C419 O431 1.272 . S
O420 Sm400 2.543 . S
O420 C402 1.261 . S
O421 Sm400 2.450 . S
O421 C402 1.242 . S
O422 Sm400 2.681 . S
O422 Sm401 2.386 . S
O422 C409 1.271 . S
O423 Sm400 2.464 . S
O423 C409 1.251 . S
O424 Sm400 2.396 . S
O424 C410 1.252 . S
O425 Sm401 2.408 . S
O425 C410 1.272 . S
O426 Sm401 2.543 . S
O426 C411 1.261 . S
O427 Sm401 2.450 . S
O427 C411 1.242 . S
O428 Sm400 2.386 . S
O428 Sm401 2.681 . S
O428 C418 1.271 . S
O429 Sm401 2.464 . S
O429 C418 1.251 . S
O430 Sm401 2.396 . S
O430 C419 1.252 . S
O431 Sm400 2.408 . S
O431 C419 1.272 . S
H432 C404 0.930 . S
H433 C405 0.929 . S
H434 C407 0.930 . S
H435 C408 0.929 . S
H436 C413 0.930 . S
H437 C414 0.929 . S
H438 C416 0.930 . S
H439 C417 0.929 . S
Sm440 C442 2.846 . S
Sm440 O460 2.543 . S
Sm440 O461 2.450 . S
Sm440 O462 2.681 . S
Sm440 O463 2.464 . S
Sm440 O464 2.396 . S
Sm440 O468 2.386 . S
Sm440 O471 2.408 . S
Sm441 C451 2.846 . S
Sm441 O462 2.386 . S
Sm441 O465 2.408 . S
Sm441 O466 2.543 . S
Sm441 O467 2.450 . S
Sm441 O468 2.681 . S
Sm441 O469 2.464 . S
Sm441 O470 2.396 . S
C442 Sm440 2.846 . S
C442 C443 1.506 . S
C442 O460 1.261 . S
C442 O461 1.242 . S
C443 C442 1.506 . S
C443 C444 1.358 . S
C443 C448 1.382 . S
C444 C443 1.358 . S
C444 C445 1.385 . S
C444 H472 0.930 . S
C445 C444 1.385 . S
C445 C446 1.395 . S
C445 H473 0.929 . S
C446 C445 1.395 . S
C446 C447 1.335 . S
C447 C446 1.335 . S
C447 C448 1.398 . S
C447 H474 0.930 . S
C448 C443 1.382 . S
C448 C447 1.398 . S
C448 H475 0.929 . S
C449 O462 1.271 . S
C449 O463 1.251 . S
C450 O464 1.252 . S
C450 O465 1.272 . S
C451 Sm441 2.846 . S
C451 C452 1.506 . S
C451 O466 1.261 . S
C451 O467 1.242 . S
C452 C451 1.506 . S
C452 C453 1.358 . S
C452 C457 1.382 . S
C453 C452 1.358 . S
C453 C454 1.385 . S
C453 H476 0.930 . S
C454 C453 1.385 . S
C454 C455 1.395 . S
C454 H477 0.929 . S
C455 C454 1.395 . S
C455 C456 1.335 . S
C456 C455 1.335 . S
C456 C457 1.398 . S
C456 H478 0.930 . S
C457 C452 1.382 . S
C457 C456 1.398 . S
C457 H479 0.929 . S
C458 O468 1.271 . S
C458 O469 1.251 . S
C459 O470 1.252 . S
C459 O471 1.272 . S
O460 Sm440 2.543 . S
O460 C442 1.261 . S
O461 Sm440 2.450 . S
O461 C442 1.242 . S
O462 Sm440 2.681 . S
O462 Sm441 2.386 . S
O462 C449 1.271 . S
O463 Sm440 2.464 . S
O463 C449 1.251 . S
O464 Sm440 2.396 . S
O464 C450 1.252 . S
O465 Sm441 2.408 . S
O465 C450 1.272 . S
O466 Sm441 2.543 . S
O466 C451 1.261 . S
O467 Sm441 2.450 . S
O467 C451 1.242 . S
O468 Sm440 2.386 . S
O468 Sm441 2.681 . S
O468 C458 1.271 . S
O469 Sm441 2.464 . S
O469 C458 1.251 . S
O470 Sm441 2.396 . S
O470 C459 1.252 . S
O471 Sm440 2.408 . S
O471 C459 1.272 . S
H472 C444 0.930 . S
H473 C445 0.929 . S
H474 C447 0.930 . S
H475 C448 0.929 . S
H476 C453 0.930 . S
H477 C454 0.929 . S
H478 C456 0.930 . S
H479 C457 0.929 . S
Sm480 C482 2.846 . S
Sm480 O500 2.543 . S
Sm480 O501 2.450 . S
Sm480 O502 2.681 . S
Sm480 O503 2.464 . S
Sm480 O504 2.396 . S
Sm480 O508 2.386 . S
Sm480 O511 2.408 . S
Sm481 C491 2.846 . S
Sm481 O502 2.386 . S
Sm481 O505 2.408 . S
Sm481 O506 2.543 . S
Sm481 O507 2.450 . S
Sm481 O508 2.681 . S
Sm481 O509 2.464 . S
Sm481 O510 2.396 . S
C482 Sm480 2.846 . S
C482 C483 1.506 . S
C482 O500 1.261 . S
C482 O501 1.242 . S
C483 C482 1.506 . S
C483 C484 1.358 . S
C483 C488 1.382 . S
C484 C483 1.358 . S
C484 C485 1.385 . S
C484 H512 0.930 . S
C485 C484 1.385 . S
C485 C486 1.395 . S
C485 H513 0.929 . S
C486 C485 1.395 . S
C486 C487 1.335 . S
C487 C486 1.335 . S
C487 C488 1.398 . S
C487 H514 0.930 . S
C488 C483 1.382 . S
C488 C487 1.398 . S
C488 H515 0.929 . S
C489 O502 1.271 . S
C489 O503 1.251 . S
C490 O504 1.252 . S
C490 O505 1.272 . S
C491 Sm481 2.846 . S
C491 C492 1.506 . S
C491 O506 1.261 . S
C491 O507 1.242 . S
C492 C491 1.506 . S
C492 C493 1.358 . S
C492 C497 1.382 . S
C493 C492 1.358 . S
C493 C494 1.385 . S
C493 H516 0.930 . S
C494 C493 1.385 . S
C494 C495 1.395 . S
C494 H517 0.929 . S
C495 C494 1.395 . S
C495 C496 1.335 . S
C496 C495 1.335 . S
C496 C497 1.398 . S
C496 H518 0.930 . S
C497 C492 1.382 . S
C497 C496 1.398 . S
C497 H519 0.929 . S
C498 O508 1.271 . S
C498 O509 1.251 . S
C499 O510 1.252 . S
C499 O511 1.272 . S
O500 Sm480 2.543 . S
O500 C482 1.261 . S
O501 Sm480 2.450 . S
O501 C482 1.242 . S
O502 Sm480 2.681 . S
O502 Sm481 2.386 . S
O502 C489 1.271 . S
O503 Sm480 2.464 . S
O503 C489 1.251 . S
O504 Sm480 2.396 . S
O504 C490 1.252 . S
O505 Sm481 2.408 . S
O505 C490 1.272 . S
O506 Sm481 2.543 . S
O506 C491 1.261 . S
O507 Sm481 2.450 . S
O507 C491 1.242 . S
O508 Sm480 2.386 . S
O508 Sm481 2.681 . S
O508 C498 1.271 . S
O509 Sm481 2.464 . S
O509 C498 1.251 . S
O510 Sm481 2.396 . S
O510 C499 1.252 . S
O511 Sm480 2.408 . S
O511 C499 1.272 . S
H512 C484 0.930 . S
H513 C485 0.929 . S
H514 C487 0.930 . S
H515 C488 0.929 . S
H516 C493 0.930 . S
H517 C494 0.929 . S
H518 C496 0.930 . S
H519 C497 0.929 . S
Sm520 C522 2.846 . S
Sm520 O540 2.543 . S
Sm520 O541 2.450 . S
Sm520 O542 2.681 . S
Sm520 O543 2.464 . S
Sm520 O544 2.396 . S
Sm520 O548 2.386 . S
Sm520 O551 2.408 . S
Sm521 C531 2.846 . S
Sm521 O542 2.386 . S
Sm521 O545 2.408 . S
Sm521 O546 2.543 . S
Sm521 O547 2.450 . S
Sm521 O548 2.681 . S
Sm521 O549 2.464 . S
Sm521 O550 2.396 . S
C522 Sm520 2.846 . S
C522 C523 1.506 . S
C522 O540 1.261 . S
C522 O541 1.242 . S
C523 C522 1.506 . S
C523 C524 1.358 . S
C523 C528 1.382 . S
C524 C523 1.358 . S
C524 C525 1.385 . S
C524 H552 0.930 . S
C525 C524 1.385 . S
C525 C526 1.395 . S
C525 H553 0.929 . S
C526 C525 1.395 . S
C526 C527 1.335 . S
C527 C526 1.335 . S
C527 C528 1.398 . S
C527 H554 0.930 . S
C528 C523 1.382 . S
C528 C527 1.398 . S
C528 H555 0.929 . S
C529 O542 1.271 . S
C529 O543 1.251 . S
C530 O544 1.252 . S
C530 O545 1.272 . S
C531 Sm521 2.846 . S
C531 C532 1.506 . S
C531 O546 1.261 . S
C531 O547 1.242 . S
C532 C531 1.506 . S
C532 C533 1.358 . S
C532 C537 1.382 . S
C533 C532 1.358 . S
C533 C534 1.385 . S
C533 H556 0.930 . S
C534 C533 1.385 . S
C534 C535 1.395 . S
C534 H557 0.929 . S
C535 C534 1.395 . S
C535 C536 1.335 . S
C536 C535 1.335 . S
C536 C537 1.398 . S
C536 H558 0.930 . S
C537 C532 1.382 . S
C537 C536 1.398 . S
C537 H559 0.929 . S
C538 O548 1.271 . S
C538 O549 1.251 . S
C539 O550 1.252 . S
C539 O551 1.272 . S
O540 Sm520 2.543 . S
O540 C522 1.261 . S
O541 Sm520 2.450 . S
O541 C522 1.242 . S
O542 Sm520 2.681 . S
O542 Sm521 2.386 . S
O542 C529 1.271 . S
O543 Sm520 2.464 . S
O543 C529 1.251 . S
O544 Sm520 2.396 . S
O544 C530 1.252 . S
O545 Sm521 2.408 . S
O545 C530 1.272 . S
O546 Sm521 2.543 . S
O546 C531 1.261 . S
O547 Sm521 2.450 . S
O547 C531 1.242 . S
O548 Sm520 2.386 . S
O548 Sm521 2.681 . S
O548 C538 1.271 . S
O549 Sm521 2.464 . S
O549 C538 1.251 . S
O550 Sm521 2.396 . S
O550 C539 1.252 . S
O551 Sm520 2.408 . S
O551 C539 1.272 . S
H552 C524 0.930 . S
H553 C525 0.929 . S
H554 C527 0.930 . S
H555 C528 0.929 . S
H556 C533 0.930 . S
H557 C534 0.929 . S
H558 C536 0.930 . S
H559 C537 0.929 . S
Sm560 C562 2.846 . S
Sm560 O580 2.543 . S
Sm560 O581 2.450 . S
Sm560 O582 2.681 . S
Sm560 O583 2.464 . S
Sm560 O584 2.396 . S
Sm560 O588 2.386 . S
Sm560 O591 2.408 . S
Sm561 C571 2.846 . S
Sm561 O582 2.386 . S
Sm561 O585 2.408 . S
Sm561 O586 2.543 . S
Sm561 O587 2.450 . S
Sm561 O588 2.681 . S
Sm561 O589 2.464 . S
Sm561 O590 2.396 . S
C562 Sm560 2.846 . S
C562 C563 1.506 . S
C562 O580 1.261 . S
C562 O581 1.242 . S
C563 C562 1.506 . S
C563 C564 1.358 . S
C563 C568 1.382 . S
C564 C563 1.358 . S
C564 C565 1.385 . S
C564 H592 0.930 . S
C565 C564 1.385 . S
C565 C566 1.395 . S
C565 H593 0.929 . S
C566 C565 1.395 . S
C566 C567 1.335 . S
C567 C566 1.335 . S
C567 C568 1.398 . S
C567 H594 0.930 . S
C568 C563 1.382 . S
C568 C567 1.398 . S
C568 H595 0.929 . S
C569 O582 1.271 . S
C569 O583 1.251 . S
C570 O584 1.252 . S
C570 O585 1.272 . S
C571 Sm561 2.846 . S
C571 C572 1.506 . S
C571 O586 1.261 . S
C571 O587 1.242 . S
C572 C571 1.506 . S
C572 C573 1.358 . S
C572 C577 1.382 . S
C573 C572 1.358 . S
C573 C574 1.385 . S
C573 H596 0.930 . S
C574 C573 1.385 . S
C574 C575 1.395 . S
C574 H597 0.929 . S
C575 C574 1.395 . S
C575 C576 1.335 . S
C576 C575 1.335 . S
C576 C577 1.398 . S
C576 H598 0.930 . S
C577 C572 1.382 . S
C577 C576 1.398 . S
C577 H599 0.929 . S
C578 O588 1.271 . S
C578 O589 1.251 . S
C579 O590 1.252 . S
C579 O591 1.272 . S
O580 Sm560 2.543 . S
O580 C562 1.261 . S
O581 Sm560 2.450 . S
O581 C562 1.242 . S
O582 Sm560 2.681 . S
O582 Sm561 2.386 . S
O582 C569 1.271 . S
O583 Sm560 2.464 . S
O583 C569 1.251 . S
O584 Sm560 2.396 . S
O584 C570 1.252 . S
O585 Sm561 2.408 . S
O585 C570 1.272 . S
O586 Sm561 2.543 . S
O586 C571 1.261 . S
O587 Sm561 2.450 . S
O587 C571 1.242 . S
O588 Sm560 2.386 . S
O588 Sm561 2.681 . S
O588 C578 1.271 . S
O589 Sm561 2.464 . S
O589 C578 1.251 . S
O590 Sm561 2.396 . S
O590 C579 1.252 . S
O591 Sm560 2.408 . S
O591 C579 1.272 . S
H592 C564 0.930 . S
H593 C565 0.929 . S
H594 C567 0.930 . S
H595 C568 0.929 . S
H596 C573 0.930 . S
H597 C574 0.929 . S
H598 C576 0.930 . S
H599 C577 0.929 . S
Sm600 C602 2.846 . S
Sm600 O620 2.543 . S
Sm600 O621 2.450 . S
Sm600 O622 2.681 . S
Sm600 O623 2.464 . S
Sm600 O624 2.396 . S
Sm600 O628 2.386 . S
Sm600 O631 2.408 . S
Sm601 C611 2.846 . S
Sm601 O622 2.386 . S
Sm601 O625 2.408 . S
Sm601 O626 2.543 . S
Sm601 O627 2.450 . S
Sm601 O628 2.681 . S
Sm601 O629 2.464 . S
Sm601 O630 2.396 . S
C602 Sm600 2.846 . S
C602 C603 1.506 . S
C602 O620 1.261 . S
C602 O621 1.242 . S
C603 C602 1.506 . S
C603 C604 1.358 . S
C603 C608 1.382 . S
C604 C603 1.358 . S
C604 C605 1.385 . S
C604 H632 0.930 . S
C605 C604 1.385 . S
C605 C606 1.395 . S
C605 H633 0.929 . S
C606 C605 1.395 . S
C606 C607 1.335 . S
C607 C606 1.335 . S
C607 C608 1.398 . S
C607 H634 0.930 . S
C608 C603 1.382 . S
C608 C607 1.398 . S
C608 H635 0.929 . S
C609 O622 1.271 . S
C609 O623 1.251 . S
C610 O624 1.252 . S
C610 O625 1.272 . S
C611 Sm601 2.846 . S
C611 C612 1.506 . S
C611 O626 1.261 . S
C611 O627 1.242 . S
C612 C611 1.506 . S
C612 C613 1.358 . S
C612 C617 1.382 . S
C613 C612 1.358 . S
C613 C614 1.385 . S
C613 H636 0.930 . S
C614 C613 1.385 . S
C614 C615 1.395 . S
C614 H637 0.929 . S
C615 C614 1.395 . S
C615 C616 1.335 . S
C616 C615 1.335 . S
C616 C617 1.398 . S
C616 H638 0.930 . S
C617 C612 1.382 . S
C617 C616 1.398 . S
C617 H639 0.929 . S
C618 O628 1.271 . S
C618 O629 1.251 . S
C619 O630 1.252 . S
C619 O631 1.272 . S
O620 Sm600 2.543 . S
O620 C602 1.261 . S
O621 Sm600 2.450 . S
O621 C602 1.242 . S
O622 Sm600 2.681 . S
O622 Sm601 2.386 . S
O622 C609 1.271 . S
O623 Sm600 2.464 . S
O623 C609 1.251 . S
O624 Sm600 2.396 . S
O624 C610 1.252 . S
O625 Sm601 2.408 . S
O625 C610 1.272 . S
O626 Sm601 2.543 . S
O626 C611 1.261 . S
O627 Sm601 2.450 . S
O627 C611 1.242 . S
O628 Sm600 2.386 . S
O628 Sm601 2.681 . S
O628 C618 1.271 . S
O629 Sm601 2.464 . S
O629 C618 1.251 . S
O630 Sm601 2.396 . S
O630 C619 1.252 . S
O631 Sm600 2.408 . S
O631 C619 1.272 . S
H632 C604 0.930 . S
H633 C605 0.929 . S
H634 C607 0.930 . S
H635 C608 0.929 . S
H636 C613 0.930 . S
H637 C614 0.929 . S
H638 C616 0.930 . S
H639 C617 0.929 . S
H640 C646 0.930 . S
H641 C650 0.930 . S
H642 C655 0.929 . S
H643 C653 0.929 . S
H644 C648 0.929 . S
H645 C654 0.929 . S
C646 H640 0.930 . S
C646 C647 1.367 . S
C646 C654 1.378 . S
C647 C646 1.367 . S
C647 C655 1.433 . S
C648 H644 0.929 . S
C648 C650 1.378 . S
C648 C652 1.350 . S
C649 C652 1.463 . S
C649 C654 1.350 . S
C649 N657 1.427 . S
C650 H641 0.930 . S
C650 C648 1.378 . S
C650 C651 1.367 . S
C651 C650 1.367 . S
C651 C653 1.433 . S
C652 C648 1.350 . S
C652 C649 1.463 . S
C652 N656 1.427 . S
C653 H643 0.929 . S
C653 C651 1.433 . S
C653 N656 1.384 . S
C654 H645 0.929 . S
C654 C646 1.378 . S
C654 C649 1.350 . S
C655 H642 0.929 . S
C655 C647 1.433 . S
C655 N657 1.384 . S
N656 C652 1.427 . S
N656 C653 1.384 . S
N657 C649 1.427 . S
N657 C655 1.384 . S
H658 C664 0.930 . S
H659 C668 0.930 . S
H660 C673 0.929 . S
H661 C671 0.929 . S
H662 C666 0.929 . S
H663 C672 0.929 . S
C664 H658 0.930 . S
C664 C665 1.367 . S
C664 C672 1.378 . S
C665 C664 1.367 . S
C665 C673 1.433 . S
C666 H662 0.929 . S
C666 C668 1.378 . S
C666 C670 1.350 . S
C667 C670 1.463 . S
C667 C672 1.350 . S
C667 N675 1.427 . S
C668 H659 0.930 . S
C668 C666 1.378 . S
C668 C669 1.367 . S
C669 C668 1.367 . S
C669 C671 1.433 . S
C670 C666 1.350 . S
C670 C667 1.463 . S
C670 N674 1.427 . S
C671 H661 0.929 . S
C671 C669 1.433 . S
C671 N674 1.384 . S
C672 H663 0.929 . S
C672 C664 1.378 . S
C672 C667 1.350 . S
C673 H660 0.929 . S
C673 C665 1.433 . S
C673 N675 1.384 . S
N674 C670 1.427 . S
N674 C671 1.384 . S
N675 C667 1.427 . S
N675 C673 1.384 . S
H676 C682 0.930 . S
H677 C686 0.930 . S
H678 C691 0.929 . S
H679 C689 0.929 . S
H680 C684 0.929 . S
H681 C690 0.929 . S
C682 H676 0.930 . S
C682 C683 1.367 . S
C682 C690 1.378 . S
C683 C682 1.367 . S
C683 C691 1.433 . S
C684 H680 0.929 . S
C684 C686 1.378 . S
C684 C688 1.350 . S
C685 C688 1.463 . S
C685 C690 1.350 . S
C685 N693 1.427 . S
C686 H677 0.930 . S
C686 C684 1.378 . S
C686 C687 1.367 . S
C687 C686 1.367 . S
C687 C689 1.433 . S
C688 C684 1.350 . S
C688 C685 1.463 . S
C688 N692 1.427 . S
C689 H679 0.929 . S
C689 C687 1.433 . S
C689 N692 1.384 . S
C690 H681 0.929 . S
C690 C682 1.378 . S
C690 C685 1.350 . S
C691 H678 0.929 . S
C691 C683 1.433 . S
C691 N693 1.384 . S
N692 C688 1.427 . S
N692 C689 1.384 . S
N693 C685 1.427 . S
N693 C691 1.384 . S
H694 C700 0.930 . S
H695 C704 0.930 . S
H696 C709 0.929 . S
H697 C707 0.929 . S
H698 C702 0.929 . S
H699 C708 0.929 . S
C700 H694 0.930 . S
C700 C701 1.367 . S
C700 C708 1.378 . S
C701 C700 1.367 . S
C701 C709 1.433 . S
C702 H698 0.929 . S
C702 C704 1.378 . S
C702 C706 1.350 . S
C703 C706 1.463 . S
C703 C708 1.350 . S
C703 N711 1.427 . S
C704 H695 0.930 . S
C704 C702 1.378 . S
C704 C705 1.367 . S
C705 C704 1.367 . S
C705 C707 1.433 . S
C706 C702 1.350 . S
C706 C703 1.463 . S
C706 N710 1.427 . S
C707 H697 0.929 . S
C707 C705 1.433 . S
C707 N710 1.384 . S
C708 H699 0.929 . S
C708 C700 1.378 . S
C708 C703 1.350 . S
C709 H696 0.929 . S
C709 C701 1.433 . S
C709 N711 1.384 . S
N710 C706 1.427 . S
N710 C707 1.384 . S
N711 C703 1.427 . S
N711 C709 1.384 . S
H712 C718 0.930 . S
H713 C722 0.930 . S
H714 C727 0.929 . S
H715 C725 0.929 . S
H716 C720 0.929 . S
H717 C726 0.929 . S
C718 H712 0.930 . S
C718 C719 1.367 . S
C718 C726 1.378 . S
C719 C718 1.367 . S
C719 C727 1.433 . S
C720 H716 0.929 . S
C720 C722 1.378 . S
C720 C724 1.350 . S
C721 C724 1.463 . S
C721 C726 1.350 . S
C721 N729 1.427 . S
C722 H713 0.930 . S
C722 C720 1.378 . S
C722 C723 1.367 . S
C723 C722 1.367 . S
C723 C725 1.433 . S
C724 C720 1.350 . S
C724 C721 1.463 . S
C724 N728 1.427 . S
C725 H715 0.929 . S
C725 C723 1.433 . S
C725 N728 1.384 . S
C726 H717 0.929 . S
C726 C718 1.378 . S
C726 C721 1.350 . S
C727 H714 0.929 . S
C727 C719 1.433 . S
C727 N729 1.384 . S
N728 C724 1.427 . S
N728 C725 1.384 . S
N729 C721 1.427 . S
N729 C727 1.384 . S
H730 C736 0.930 . S
H731 C740 0.930 . S
H732 C745 0.929 . S
H733 C743 0.929 . S
H734 C738 0.929 . S
H735 C744 0.929 . S
C736 H730 0.930 . S
C736 C737 1.367 . S
C736 C744 1.378 . S
C737 C736 1.367 . S
C737 C745 1.433 . S
C738 H734 0.929 . S
C738 C740 1.378 . S
C738 C742 1.350 . S
C739 C742 1.463 . S
C739 C744 1.350 . S
C739 N747 1.427 . S
C740 H731 0.930 . S
C740 C738 1.378 . S
C740 C741 1.367 . S
C741 C740 1.367 . S
C741 C743 1.433 . S
C742 C738 1.350 . S
C742 C739 1.463 . S
C742 N746 1.427 . S
C743 H733 0.929 . S
C743 C741 1.433 . S
C743 N746 1.384 . S
C744 H735 0.929 . S
C744 C736 1.378 . S
C744 C739 1.350 . S
C745 H732 0.929 . S
C745 C737 1.433 . S
C745 N747 1.384 . S
N746 C742 1.427 . S
N746 C743 1.384 . S
N747 C739 1.427 . S
N747 C745 1.384 . S
H748 C754 0.930 . S
H749 C758 0.930 . S
H750 C763 0.929 . S
H751 C761 0.929 . S
H752 C756 0.929 . S
H753 C762 0.929 . S
C754 H748 0.930 . S
C754 C755 1.367 . S
C754 C762 1.378 . S
C755 C754 1.367 . S
C755 C763 1.433 . S
C756 H752 0.929 . S
C756 C758 1.378 . S
C756 C760 1.350 . S
C757 C760 1.463 . S
C757 C762 1.350 . S
C757 N765 1.427 . S
C758 H749 0.930 . S
C758 C756 1.378 . S
C758 C759 1.367 . S
C759 C758 1.367 . S
C759 C761 1.433 . S
C760 C756 1.350 . S
C760 C757 1.463 . S
C760 N764 1.427 . S
C761 H751 0.929 . S
C761 C759 1.433 . S
C761 N764 1.384 . S
C762 H753 0.929 . S
C762 C754 1.378 . S
C762 C757 1.350 . S
C763 H750 0.929 . S
C763 C755 1.433 . S
C763 N765 1.384 . S
N764 C760 1.427 . S
N764 C761 1.384 . S
N765 C757 1.427 . S
N765 C763 1.384 . S
H766 C772 0.930 . S
H767 C776 0.930 . S
H768 C781 0.929 . S
H769 C779 0.929 . S
H770 C774 0.929 . S
H771 C780 0.929 . S
C772 H766 0.930 . S
C772 C773 1.367 . S
C772 C780 1.378 . S
C773 C772 1.367 . S
C773 C781 1.433 . S
C774 H770 0.929 . S
C774 C776 1.378 . S
C774 C778 1.350 . S
C775 C778 1.463 . S
C775 C780 1.350 . S
C775 N783 1.427 . S
C776 H767 0.930 . S
C776 C774 1.378 . S
C776 C777 1.367 . S
C777 C776 1.367 . S
C777 C779 1.433 . S
C778 C774 1.350 . S
C778 C775 1.463 . S
C778 N782 1.427 . S
C779 H769 0.929 . S
C779 C777 1.433 . S
C779 N782 1.384 . S
C780 H771 0.929 . S
C780 C772 1.378 . S
C780 C775 1.350 . S
C781 H768 0.929 . S
C781 C773 1.433 . S
C781 N783 1.384 . S
N782 C778 1.427 . S
N782 C779 1.384 . S
N783 C775 1.427 . S
N783 C781 1.384 . S
H784 C790 0.930 . S
H785 C794 0.930 . S
H786 C799 0.929 . S
H787 C797 0.929 . S
H788 C792 0.928 1_565 S
H789 C798 0.928 1_545 S
C790 H784 0.930 . S
C790 C791 1.367 . S
C790 C798 1.378 . S
C791 C790 1.367 . S
C791 C799 1.433 . S
C792 H788 0.928 1_545 S
C792 C794 1.378 . S
C792 C796 1.350 . S
C793 C796 1.463 1_565 S
C793 C798 1.350 . S
C793 N801 1.427 . S
C794 H785 0.930 . S
C794 C792 1.378 . S
C794 C795 1.367 . S
C795 C794 1.367 . S
C795 C797 1.433 . S
C796 C792 1.350 . S
C796 C793 1.463 1_545 S
C796 N800 1.427 . S
C797 H787 0.929 . S
C797 C795 1.433 . S
C797 N800 1.384 . S
C798 H789 0.928 1_565 S
C798 C790 1.378 . S
C798 C793 1.350 . S
C799 H786 0.929 . S
C799 C791 1.433 . S
C799 N801 1.384 . S
N800 C796 1.427 . S
N800 C797 1.384 . S
N801 C793 1.427 . S
N801 C799 1.384 . S
H802 C808 0.930 . S
H803 C812 0.930 . S
H804 C817 0.929 . S
H805 C815 0.929 . S
H806 C810 0.929 . S
H807 C816 0.929 . S
C808 H802 0.930 . S
C808 C809 1.367 . S
C808 C816 1.378 . S
C809 C808 1.367 . S
C809 C817 1.433 . S
C810 H806 0.929 . S
C810 C812 1.378 . S
C810 C814 1.350 . S
C811 C814 1.463 1_545 S
C811 C816 1.350 . S
C811 N819 1.427 . S
C812 H803 0.930 . S
C812 C810 1.378 . S
C812 C813 1.367 . S
C813 C812 1.367 . S
C813 C815 1.433 . S
C814 C810 1.350 . S
C814 C811 1.463 1_565 S
C814 N818 1.427 . S
C815 H805 0.929 . S
C815 C813 1.433 . S
C815 N818 1.384 . S
C816 H807 0.929 . S
C816 C808 1.378 . S
C816 C811 1.350 . S
C817 H804 0.929 . S
C817 C809 1.433 . S
C817 N819 1.384 . S
N818 C814 1.427 . S
N818 C815 1.384 . S
N819 C811 1.427 . S
N819 C817 1.384 . S
H820 C826 0.930 . S
H821 C830 0.930 . S
H822 C835 0.929 1_565 S
H823 C833 0.929 1_545 S
H824 C828 0.929 . S
H825 C834 0.929 . S
C826 H820 0.930 . S
C826 C827 1.367 . S
C826 C834 1.378 . S
C827 C826 1.367 . S
C827 C835 1.433 . S
C828 H824 0.929 . S
C828 C830 1.378 . S
C828 C832 1.350 . S
C829 C832 1.463 1_545 S
C829 C834 1.350 . S
C829 N837 1.427 1_545 S
C830 H821 0.930 . S
C830 C828 1.378 . S
C830 C831 1.367 . S
C831 C830 1.367 . S
C831 C833 1.433 . S
C832 C828 1.350 . S
C832 C829 1.463 1_565 S
C832 N836 1.427 1_565 S
C833 H823 0.929 1_565 S
C833 C831 1.433 . S
C833 N836 1.384 1_565 S
C834 H825 0.929 . S
C834 C826 1.378 . S
C834 C829 1.350 . S
C835 H822 0.929 1_545 S
C835 C827 1.433 . S
C835 N837 1.384 1_545 S
N836 C832 1.427 1_545 S
N836 C833 1.384 1_545 S
N837 C829 1.427 1_565 S
N837 C835 1.384 1_565 S
H838 C844 0.930 1_565 S
H839 C848 0.930 1_545 S
H840 C853 0.929 . S
H841 C851 0.929 . S
H842 C846 0.929 . S
H843 C852 0.929 . S
C844 H838 0.930 1_545 S
C844 C845 1.367 . S
C844 C852 1.378 1_545 S
C845 C844 1.367 . S
C845 C853 1.433 . S
C846 H842 0.929 . S
C846 C848 1.378 1_545 S
C846 C850 1.350 1_545 S
C847 C850 1.463 1_545 S
C847 C852 1.350 1_545 S
C847 N855 1.427 . S
C848 H839 0.930 1_565 S
C848 C846 1.378 1_565 S
C848 C849 1.367 . S
C849 C848 1.367 . S
C849 C851 1.433 . S
C850 C846 1.350 1_565 S
C850 C847 1.463 1_565 S
C850 N854 1.427 . S
C851 H841 0.929 . S
C851 C849 1.433 . S
C851 N854 1.384 . S
C852 H843 0.929 . S
C852 C844 1.378 1_565 S
C852 C847 1.350 1_565 S
C853 H840 0.929 . S
C853 C845 1.433 . S
C853 N855 1.384 . S
N854 C850 1.427 . S
N854 C851 1.384 . S
N855 C847 1.427 . S
N855 C853 1.384 . S
H856 C862 0.930 . S
H857 C866 0.930 . S
H858 C871 0.929 . S
H859 C869 0.929 . S
H860 C864 0.929 . S
H861 C870 0.929 . S
C862 H856 0.930 . S
C862 C863 1.367 . S
C862 C870 1.378 . S
C863 C862 1.367 . S
C863 C871 1.433 . S
C864 H860 0.929 . S
C864 C866 1.378 . S
C864 C868 1.350 . S
C865 C868 1.463 . S
C865 C870 1.350 . S
C865 N873 1.427 . S
C866 H857 0.930 . S
C866 C864 1.378 . S
C866 C867 1.367 . S
C867 C866 1.367 . S
C867 C869 1.433 . S
C868 C864 1.350 . S
C868 C865 1.463 . S
C868 N872 1.427 . S
C869 H859 0.929 . S
C869 C867 1.433 . S
C869 N872 1.384 . S
C870 H861 0.929 . S
C870 C862 1.378 . S
C870 C865 1.350 . S
C871 H858 0.929 . S
C871 C863 1.433 . S
C871 N873 1.384 . S
N872 C868 1.427 . S
N872 C869 1.384 . S
N873 C865 1.427 . S
N873 C871 1.384 . S
H874 C880 0.930 . S
H875 C884 0.930 . S
H876 C889 0.929 . S
H877 C887 0.929 . S
H878 C882 0.929 . S
H879 C888 0.929 . S
C880 H874 0.930 . S
C880 C881 1.367 . S
C880 C888 1.378 . S
C881 C880 1.367 . S
C881 C889 1.433 . S
C882 H878 0.929 . S
C882 C884 1.378 . S
C882 C886 1.350 . S
C883 C886 1.463 . S
C883 C888 1.350 . S
C883 N891 1.427 . S
C884 H875 0.930 . S
C884 C882 1.378 . S
C884 C885 1.367 . S
C885 C884 1.367 . S
C885 C887 1.433 . S
C886 C882 1.350 . S
C886 C883 1.463 . S
C886 N890 1.427 . S
C887 H877 0.929 . S
C887 C885 1.433 . S
C887 N890 1.384 . S
C888 H879 0.929 . S
C888 C880 1.378 . S
C888 C883 1.350 . S
C889 H876 0.929 . S
C889 C881 1.433 . S
C889 N891 1.384 . S
N890 C886 1.427 . S
N890 C887 1.384 . S
N891 C883 1.427 . S
N891 C889 1.384 . S
H892 C898 0.930 . S
H893 C902 0.930 . S
H894 C907 0.929 . S
H895 C905 0.929 . S
H896 C900 0.929 . S
H897 C906 0.929 . S
C898 H892 0.930 . S
C898 C899 1.367 . S
C898 C906 1.378 . S
C899 C898 1.367 . S
C899 C907 1.433 . S
C900 H896 0.929 . S
C900 C902 1.378 . S
C900 C904 1.350 . S
C901 C904 1.463 . S
C901 C906 1.350 . S
C901 N909 1.427 . S
C902 H893 0.930 . S
C902 C900 1.378 . S
C902 C903 1.367 . S
C903 C902 1.367 . S
C903 C905 1.433 . S
C904 C900 1.350 . S
C904 C901 1.463 . S
C904 N908 1.427 . S
C905 H895 0.929 . S
C905 C903 1.433 . S
C905 N908 1.384 . S
C906 H897 0.929 . S
C906 C898 1.378 . S
C906 C901 1.350 . S
C907 H894 0.929 . S
C907 C899 1.433 . S
C907 N909 1.384 . S
N908 C904 1.427 . S
N908 C905 1.384 . S
N909 C901 1.427 . S
N909 C907 1.384 . S
H910 C916 0.930 . S
H911 C920 0.930 . S
H912 C925 0.929 . S
H913 C923 0.929 . S
H914 C918 0.929 . S
H915 C924 0.929 . S
C916 H910 0.930 . S
C916 C917 1.367 . S
C916 C924 1.378 . S
C917 C916 1.367 . S
C917 C925 1.433 . S
C918 H914 0.929 . S
C918 C920 1.378 . S
C918 C922 1.350 . S
C919 C922 1.463 . S
C919 C924 1.350 . S
C919 N927 1.427 . S
C920 H911 0.930 . S
C920 C918 1.378 . S
C920 C921 1.367 . S
C921 C920 1.367 . S
C921 C923 1.433 . S
C922 C918 1.350 . S
C922 C919 1.463 . S
C922 N926 1.427 . S
C923 H913 0.929 . S
C923 C921 1.433 . S
C923 N926 1.384 . S
C924 H915 0.929 . S
C924 C916 1.378 . S
C924 C919 1.350 . S
C925 H912 0.929 . S
C925 C917 1.433 . S
C925 N927 1.384 . S
N926 C922 1.427 . S
N926 C923 1.384 . S
N927 C919 1.427 . S
N927 C925 1.384 . S
H928 C934 0.930 . S
H929 C938 0.930 . S
H930 C943 0.929 . S
H931 C941 0.929 . S
H932 C936 0.929 . S
H933 C942 0.929 . S
C934 H928 0.930 . S
C934 C935 1.367 . S
C934 C942 1.378 . S
C935 C934 1.367 . S
C935 C943 1.433 . S
C936 H932 0.929 . S
C936 C938 1.378 . S
C936 C940 1.350 . S
C937 C940 1.463 1_556 S
C937 C942 1.350 . S
C937 N945 1.427 . S
C938 H929 0.930 . S
C938 C936 1.378 . S
C938 C939 1.367 . S
C939 C938 1.367 . S
C939 C941 1.433 . S
C940 C936 1.350 . S
C940 C937 1.463 1_554 S
C940 N944 1.427 . S
C941 H931 0.929 . S
C941 C939 1.433 . S
C941 N944 1.384 . S
C942 H933 0.929 . S
C942 C934 1.378 . S
C942 C937 1.350 . S
C943 H930 0.929 . S
C943 C935 1.433 . S
C943 N945 1.384 . S
N944 C940 1.427 . S
N944 C941 1.384 . S
N945 C937 1.427 . S
N945 C943 1.384 . S
H946 C952 0.930 . S
H947 C956 0.930 . S
H948 C961 0.929 . S
H949 C959 0.929 . S
H950 C954 0.929 . S
H951 C960 0.929 . S
C952 H946 0.930 . S
C952 C953 1.367 . S
C952 C960 1.378 . S
C953 C952 1.367 . S
C953 C961 1.433 . S
C954 H950 0.929 . S
C954 C956 1.378 . S
C954 C958 1.350 . S
C955 C958 1.463 1_556 S
C955 C960 1.350 . S
C955 N963 1.427 . S
C956 H947 0.930 . S
C956 C954 1.378 . S
C956 C957 1.367 . S
C957 C956 1.367 . S
C957 C959 1.433 . S
C958 C954 1.350 . S
C958 C955 1.463 1_554 S
C958 N962 1.427 . S
C959 H949 0.929 . S
C959 C957 1.433 . S
C959 N962 1.384 . S
C960 H951 0.929 . S
C960 C952 1.378 . S
C960 C955 1.350 . S
C961 H948 0.929 . S
C961 C953 1.433 . S
C961 N963 1.384 . S
N962 C958 1.427 . S
N962 C959 1.384 . S
N963 C955 1.427 . S
N963 C961 1.384 . S
H964 C970 0.930 . S
H965 C974 0.930 . S
H966 C979 0.929 . S
H967 C977 0.929 . S
H968 C972 0.929 . S
H969 C978 0.929 . S
C970 H964 0.930 . S
C970 C971 1.367 . S
C970 C978 1.378 . S
C971 C970 1.367 . S
C971 C979 1.433 . S
C972 H968 0.929 . S
C972 C974 1.378 . S
C972 C976 1.350 . S
C973 C976 1.463 . S
C973 C978 1.350 . S
C973 N981 1.427 . S
C974 H965 0.930 . S
C974 C972 1.378 . S
C974 C975 1.367 . S
C975 C974 1.367 . S
C975 C977 1.433 . S
C976 C972 1.350 . S
C976 C973 1.463 . S
C976 N980 1.427 . S
C977 H967 0.929 . S
C977 C975 1.433 . S
C977 N980 1.384 . S
C978 H969 0.929 . S
C978 C970 1.378 . S
C978 C973 1.350 . S
C979 H966 0.929 . S
C979 C971 1.433 . S
C979 N981 1.384 . S
N980 C976 1.427 . S
N980 C977 1.384 . S
N981 C973 1.427 . S
N981 C979 1.384 . S
H982 C988 0.930 . S
H983 C992 0.930 . S
H984 C997 0.929 . S
H985 C995 0.929 . S
H986 C990 0.929 . S
H987 C996 0.929 . S
C988 H982 0.930 . S
C988 C989 1.367 . S
C988 C996 1.378 . S
C989 C988 1.367 . S
C989 C997 1.433 . S
C990 H986 0.929 . S
C990 C992 1.378 . S
C990 C994 1.350 . S
C991 C994 1.463 . S
C991 C996 1.350 . S
C991 N999 1.427 . S
C992 H983 0.930 . S
C992 C990 1.378 . S
C992 C993 1.367 . S
C993 C992 1.367 . S
C993 C995 1.433 . S
C994 C990 1.350 . S
C994 C991 1.463 . S
C994 N998 1.427 . S
C995 H985 0.929 . S
C995 C993 1.433 . S
C995 N998 1.384 . S
C996 H987 0.929 . S
C996 C988 1.378 . S
C996 C991 1.350 . S
C997 H984 0.929 . S
C997 C989 1.433 . S
C997 N999 1.384 . S
N998 C994 1.427 . S
N998 C995 1.384 . S
N999 C991 1.427 . S
N999 C997 1.384 . S
H1000 C1006 0.930 . S
H1001 C1010 0.930 . S
H1002 C1015 0.929 . S
H1003 C1013 0.929 . S
H1004 C1008 0.929 . S
H1005 C1014 0.929 . S
C1006 H1000 0.930 . S
C1006 C1007 1.367 . S
C1006 C1014 1.378 . S
C1007 C1006 1.367 . S
C1007 C1015 1.433 . S
C1008 H1004 0.929 . S
C1008 C1010 1.378 . S
C1008 C1012 1.350 . S
C1009 C1012 1.463 1_554 S
C1009 C1014 1.350 . S
C1009 N1017 1.427 . S
C1010 H1001 0.930 . S
C1010 C1008 1.378 . S
C1010 C1011 1.367 . S
C1011 C1010 1.367 . S
C1011 C1013 1.433 . S
C1012 C1008 1.350 . S
C1012 C1009 1.463 1_556 S
C1012 N1016 1.427 . S
C1013 H1003 0.929 . S
C1013 C1011 1.433 . S
C1013 N1016 1.384 . S
C1014 H1005 0.929 . S
C1014 C1006 1.378 . S
C1014 C1009 1.350 . S
C1015 H1002 0.929 . S
C1015 C1007 1.433 . S
C1015 N1017 1.384 . S
N1016 C1012 1.427 . S
N1016 C1013 1.384 . S
N1017 C1009 1.427 . S
N1017 C1015 1.384 . S
H1018 C1024 0.930 . S
H1019 C1028 0.930 . S
H1020 C1033 0.929 . S
H1021 C1031 0.929 . S
H1022 C1026 0.929 . S
H1023 C1032 0.929 . S
C1024 H1018 0.930 . S
C1024 C1025 1.367 . S
C1024 C1032 1.378 . S
C1025 C1024 1.367 . S
C1025 C1033 1.433 . S
C1026 H1022 0.929 . S
C1026 C1028 1.378 . S
C1026 C1030 1.350 . S
C1027 C1030 1.463 1_556 S
C1027 C1032 1.350 . S
C1027 N1035 1.427 . S
C1028 H1019 0.930 . S
C1028 C1026 1.378 . S
C1028 C1029 1.367 . S
C1029 C1028 1.367 . S
C1029 C1031 1.433 . S
C1030 C1026 1.350 . S
C1030 C1027 1.463 1_554 S
C1030 N1034 1.427 . S
C1031 H1021 0.929 . S
C1031 C1029 1.433 . S
C1031 N1034 1.384 . S
C1032 H1023 0.929 . S
C1032 C1024 1.378 . S
C1032 C1027 1.350 . S
C1033 H1020 0.929 . S
C1033 C1025 1.433 . S
C1033 N1035 1.384 . S
N1034 C1030 1.427 . S
N1034 C1031 1.384 . S
N1035 C1027 1.427 . S
N1035 C1033 1.384 . S
H1036 C1042 0.930 . S
H1037 C1046 0.930 . S
H1038 C1051 0.929 . S
H1039 C1049 0.929 . S
H1040 C1044 0.929 . S
H1041 C1050 0.929 . S
C1042 H1036 0.930 . S
C1042 C1043 1.367 . S
C1042 C1050 1.378 . S
C1043 C1042 1.367 . S
C1043 C1051 1.433 . S
C1044 H1040 0.929 . S
C1044 C1046 1.378 . S
C1044 C1048 1.350 . S
C1045 C1048 1.463 . S
C1045 C1050 1.350 . S
C1045 N1053 1.427 . S
C1046 H1037 0.930 . S
C1046 C1044 1.378 . S
C1046 C1047 1.367 . S
C1047 C1046 1.367 . S
C1047 C1049 1.433 . S
C1048 C1044 1.350 . S
C1048 C1045 1.463 . S
C1048 N1052 1.427 . S
C1049 H1039 0.929 . S
C1049 C1047 1.433 . S
C1049 N1052 1.384 . S
C1050 H1041 0.929 . S
C1050 C1042 1.378 . S
C1050 C1045 1.350 . S
C1051 H1038 0.929 . S
C1051 C1043 1.433 . S
C1051 N1053 1.384 . S
N1052 C1048 1.427 . S
N1052 C1049 1.384 . S
N1053 C1045 1.427 . S
N1053 C1051 1.384 . S
H1054 C1060 0.930 . S
H1055 C1064 0.930 . S
H1056 C1069 0.929 . S
H1057 C1067 0.929 . S
H1058 C1062 0.929 . S
H1059 C1068 0.929 . S
C1060 H1054 0.930 . S
C1060 C1061 1.367 . S
C1060 C1068 1.378 . S
C1061 C1060 1.367 . S
C1061 C1069 1.433 . S
C1062 H1058 0.929 . S
C1062 C1064 1.378 . S
C1062 C1066 1.350 . S
C1063 C1066 1.463 . S
C1063 C1068 1.350 . S
C1063 N1071 1.427 . S
C1064 H1055 0.930 . S
C1064 C1062 1.378 . S
C1064 C1065 1.367 . S
C1065 C1064 1.367 . S
C1065 C1067 1.433 . S
C1066 C1062 1.350 . S
C1066 C1063 1.463 . S
C1066 N1070 1.427 . S
C1067 H1057 0.929 . S
C1067 C1065 1.433 . S
C1067 N1070 1.384 . S
C1068 H1059 0.929 . S
C1068 C1060 1.378 . S
C1068 C1063 1.350 . S
C1069 H1056 0.929 . S
C1069 C1061 1.433 . S
C1069 N1071 1.384 . S
N1070 C1066 1.427 . S
N1070 C1067 1.384 . S
N1071 C1063 1.427 . S
N1071 C1069 1.384 . S
H1072 C1078 0.930 . S
H1073 C1082 0.930 . S
H1074 C1087 0.929 . S
H1075 C1085 0.929 . S
H1076 C1080 0.929 . S
H1077 C1086 0.929 . S
C1078 H1072 0.930 . S
C1078 C1079 1.367 . S
C1078 C1086 1.378 . S
C1079 C1078 1.367 . S
C1079 C1087 1.433 1_565 S
C1080 H1076 0.929 . S
C1080 C1082 1.378 . S
C1080 C1084 1.350 . S
C1081 C1084 1.463 1_665 S
C1081 C1086 1.350 . S
C1081 N1089 1.427 1_565 S
C1082 H1073 0.930 . S
C1082 C1080 1.378 . S
C1082 C1083 1.367 . S
C1083 C1082 1.367 . S
C1083 C1085 1.433 1_545 S
C1084 C1080 1.350 . S
C1084 C1081 1.463 1_445 S
C1084 N1088 1.427 1_545 S
C1085 H1075 0.929 . S
C1085 C1083 1.433 1_565 S
C1085 N1088 1.384 . S
C1086 H1077 0.929 . S
C1086 C1078 1.378 . S
C1086 C1081 1.350 . S
C1087 H1074 0.929 . S
C1087 C1079 1.433 1_545 S
C1087 N1089 1.384 . S
N1088 C1084 1.427 1_565 S
N1088 C1085 1.384 . S
N1089 C1081 1.427 1_545 S
N1089 C1087 1.384 . S
H1090 C1096 0.930 . S
H1091 C1100 0.930 . S
H1092 C1105 0.932 . S
H1093 C1103 0.932 . S
H1094 C1098 0.929 . S
H1095 C1104 0.929 . S
C1096 H1090 0.930 . S
C1096 C1097 1.367 . S
C1096 C1104 1.378 . S
C1097 C1096 1.367 . S
C1097 C1105 1.433 . S
C1098 H1094 0.929 . S
C1098 C1100 1.378 . S
C1098 C1102 1.350 . S
C1099 C1102 1.463 1_645 S
C1099 C1104 1.350 . S
C1099 N1107 1.427 1_545 S
C1100 H1091 0.930 . S
C1100 C1098 1.378 . S
C1100 C1101 1.367 . S
C1101 C1100 1.367 . S
C1101 C1103 1.433 . S
C1102 C1098 1.350 . S
C1102 C1099 1.463 1_465 S
C1102 N1106 1.427 1_565 S
C1103 H1093 0.932 . S
C1103 C1101 1.433 . S
C1103 N1106 1.384 1_565 S
C1104 H1095 0.929 . S
C1104 C1096 1.378 . S
C1104 C1099 1.350 . S
C1105 H1092 0.932 . S
C1105 C1097 1.433 . S
C1105 N1107 1.384 1_545 S
N1106 C1102 1.427 1_545 S
N1106 C1103 1.384 1_545 S
N1107 C1099 1.427 1_565 S
N1107 C1105 1.384 1_565 S
H1108 C1114 0.930 . S
H1109 C1118 0.930 . S
H1110 C1123 0.929 . S
H1111 C1121 0.929 . S
H1112 C1116 0.929 . S
H1113 C1122 0.929 . S
C1114 H1108 0.930 . S
C1114 C1115 1.367 . S
C1114 C1122 1.378 . S
C1115 C1114 1.367 . S
C1115 C1123 1.433 . S
C1116 H1112 0.929 . S
C1116 C1118 1.378 . S
C1116 C1120 1.350 . S
C1117 C1120 1.463 1_445 S
C1117 C1122 1.350 . S
C1117 N1125 1.427 . S
C1118 H1109 0.930 . S
C1118 C1116 1.378 . S
C1118 C1119 1.367 . S
C1119 C1118 1.367 . S
C1119 C1121 1.433 . S
C1120 C1116 1.350 . S
C1120 C1117 1.463 1_665 S
C1120 N1124 1.427 . S
C1121 H1111 0.929 . S
C1121 C1119 1.433 . S
C1121 N1124 1.384 . S
C1122 H1113 0.929 . S
C1122 C1114 1.378 . S
C1122 C1117 1.350 . S
C1123 H1110 0.929 . S
C1123 C1115 1.433 . S
C1123 N1125 1.384 . S
N1124 C1120 1.427 . S
N1124 C1121 1.384 . S
N1125 C1117 1.427 . S
N1125 C1123 1.384 . S
H1126 C1132 0.930 . S
H1127 C1136 0.930 . S
H1128 C1141 0.929 . S
H1129 C1139 0.929 . S
H1130 C1134 0.929 . S
H1131 C1140 0.929 . S
C1132 H1126 0.930 . S
C1132 C1133 1.367 1_565 S
C1132 C1140 1.378 . S
C1133 C1132 1.367 1_545 S
C1133 C1141 1.433 . S
C1134 H1130 0.929 . S
C1134 C1136 1.378 . S
C1134 C1138 1.350 1_545 S
C1135 C1138 1.463 1_645 S
C1135 C1140 1.350 1_545 S
C1135 N1143 1.427 . S
C1136 H1127 0.930 . S
C1136 C1134 1.378 . S
C1136 C1137 1.367 1_545 S
C1137 C1136 1.367 1_565 S
C1137 C1139 1.433 . S
C1138 C1134 1.350 1_565 S
C1138 C1135 1.463 1_465 S
C1138 N1142 1.427 . S
C1139 H1129 0.929 . S
C1139 C1137 1.433 . S
C1139 N1142 1.384 . S
C1140 H1131 0.929 . S
C1140 C1132 1.378 . S
C1140 C1135 1.350 1_565 S
C1141 H1128 0.929 . S
C1141 C1133 1.433 . S
C1141 N1143 1.384 . S
N1142 C1138 1.427 . S
N1142 C1139 1.384 . S
N1143 C1135 1.427 . S
N1143 C1141 1.384 . S
H1144 C1150 0.930 . S
H1145 C1154 0.930 . S
H1146 C1159 0.929 . S
H1147 C1157 0.929 . S
H1148 C1152 0.929 . S
H1149 C1158 0.929 . S
C1150 H1144 0.930 . S
C1150 C1151 1.367 . S
C1150 C1158 1.378 . S
C1151 C1150 1.367 . S
C1151 C1159 1.433 . S
C1152 H1148 0.929 . S
C1152 C1154 1.378 . S
C1152 C1156 1.350 . S
C1153 C1156 1.463 . S
C1153 C1158 1.350 . S
C1153 N1161 1.427 . S
C1154 H1145 0.930 . S
C1154 C1152 1.378 . S
C1154 C1155 1.367 . S
C1155 C1154 1.367 . S
C1155 C1157 1.433 . S
C1156 C1152 1.350 . S
C1156 C1153 1.463 . S
C1156 N1160 1.427 . S
C1157 H1147 0.929 . S
C1157 C1155 1.433 . S
C1157 N1160 1.384 . S
C1158 H1149 0.929 . S
C1158 C1150 1.378 . S
C1158 C1153 1.350 . S
C1159 H1146 0.929 . S
C1159 C1151 1.433 . S
C1159 N1161 1.384 . S
N1160 C1156 1.427 . S
N1160 C1157 1.384 . S
N1161 C1153 1.427 . S
N1161 C1159 1.384 . S
H1162 C1168 0.930 . S
H1163 C1172 0.930 . S
H1164 C1177 0.929 . S
H1165 C1175 0.929 . S
H1166 C1170 0.929 . S
H1167 C1176 0.929 . S
C1168 H1162 0.930 . S
C1168 C1169 1.367 . S
C1168 C1176 1.378 . S
C1169 C1168 1.367 . S
C1169 C1177 1.433 . S
C1170 H1166 0.929 . S
C1170 C1172 1.378 . S
C1170 C1174 1.350 . S
C1171 C1174 1.463 . S
C1171 C1176 1.350 . S
C1171 N1179 1.427 . S
C1172 H1163 0.930 . S
C1172 C1170 1.378 . S
C1172 C1173 1.367 . S
C1173 C1172 1.367 . S
C1173 C1175 1.433 . S
C1174 C1170 1.350 . S
C1174 C1171 1.463 . S
C1174 N1178 1.427 . S
C1175 H1165 0.929 . S
C1175 C1173 1.433 . S
C1175 N1178 1.384 . S
C1176 H1167 0.929 . S
C1176 C1168 1.378 . S
C1176 C1171 1.350 . S
C1177 H1164 0.929 . S
C1177 C1169 1.433 . S
C1177 N1179 1.384 . S
N1178 C1174 1.427 . S
N1178 C1175 1.384 . S
N1179 C1171 1.427 . S
N1179 C1177 1.384 . S
H1180 C1186 0.930 . S
H1181 C1190 0.930 . S
H1182 C1195 0.929 . S
H1183 C1193 0.929 . S
H1184 C1188 0.929 . S
H1185 C1194 0.929 . S
C1186 H1180 0.930 . S
C1186 C1187 1.367 . S
C1186 C1194 1.378 . S
C1187 C1186 1.367 . S
C1187 C1195 1.433 . S
C1188 H1184 0.929 . S
C1188 C1190 1.378 . S
C1188 C1192 1.350 . S
C1189 C1192 1.463 . S
C1189 C1194 1.350 . S
C1189 N1197 1.427 . S
C1190 H1181 0.930 . S
C1190 C1188 1.378 . S
C1190 C1191 1.367 . S
C1191 C1190 1.367 . S
C1191 C1193 1.433 . S
C1192 C1188 1.350 . S
C1192 C1189 1.463 . S
C1192 N1196 1.427 . S
C1193 H1183 0.929 . S
C1193 C1191 1.433 . S
C1193 N1196 1.384 . S
C1194 H1185 0.929 . S
C1194 C1186 1.378 . S
C1194 C1189 1.350 . S
C1195 H1182 0.929 . S
C1195 C1187 1.433 . S
C1195 N1197 1.384 . S
N1196 C1192 1.427 . S
N1196 C1193 1.384 . S
N1197 C1189 1.427 . S
N1197 C1195 1.384 . S
H1198 C1204 0.930 . S
H1199 C1208 0.930 . S
H1200 C1213 0.929 . S
H1201 C1211 0.929 . S
H1202 C1206 0.929 . S
H1203 C1212 0.929 . S
C1204 H1198 0.930 . S
C1204 C1205 1.367 . S
C1204 C1212 1.378 . S
C1205 C1204 1.367 . S
C1205 C1213 1.433 . S
C1206 H1202 0.929 . S
C1206 C1208 1.378 . S
C1206 C1210 1.350 . S
C1207 C1210 1.463 . S
C1207 C1212 1.350 . S
C1207 N1215 1.427 . S
C1208 H1199 0.930 . S
C1208 C1206 1.378 . S
C1208 C1209 1.367 . S
C1209 C1208 1.367 . S
C1209 C1211 1.433 . S
C1210 C1206 1.350 . S
C1210 C1207 1.463 . S
C1210 N1214 1.427 . S
C1211 H1201 0.929 . S
C1211 C1209 1.433 . S
C1211 N1214 1.384 . S
C1212 H1203 0.929 . S
C1212 C1204 1.378 . S
C1212 C1207 1.350 . S
C1213 H1200 0.929 . S
C1213 C1205 1.433 . S
C1213 N1215 1.384 . S
N1214 C1210 1.427 . S
N1214 C1211 1.384 . S
N1215 C1207 1.427 . S
N1215 C1213 1.384 . S
H1216 C1222 0.930 . S
H1217 C1226 0.930 . S
H1218 C1231 0.929 . S
H1219 C1229 0.929 . S
H1220 C1224 0.929 . S
H1221 C1230 0.929 . S
C1222 H1216 0.930 . S
C1222 C1223 1.367 . S
C1222 C1230 1.378 . S
C1223 C1222 1.367 . S
C1223 C1231 1.433 . S
C1224 H1220 0.929 . S
C1224 C1226 1.378 . S
C1224 C1228 1.350 . S
C1225 C1228 1.463 . S
C1225 C1230 1.350 . S
C1225 N1233 1.427 . S
C1226 H1217 0.930 . S
C1226 C1224 1.378 . S
C1226 C1227 1.367 . S
C1227 C1226 1.367 . S
C1227 C1229 1.433 . S
C1228 C1224 1.350 . S
C1228 C1225 1.463 . S
C1228 N1232 1.427 . S
C1229 H1219 0.929 . S
C1229 C1227 1.433 . S
C1229 N1232 1.384 . S
C1230 H1221 0.929 . S
C1230 C1222 1.378 . S
C1230 C1225 1.350 . S
C1231 H1218 0.929 . S
C1231 C1223 1.433 . S
C1231 N1233 1.384 . S
N1232 C1228 1.427 . S
N1232 C1229 1.384 . S
N1233 C1225 1.427 . S
N1233 C1231 1.384 . S
H1234 C1240 0.930 . S
H1235 C1244 0.930 . S
H1236 C1249 0.929 . S
H1237 C1247 0.929 . S
H1238 C1242 0.929 . S
H1239 C1248 0.929 . S
C1240 H1234 0.930 . S
C1240 C1241 1.367 . S
C1240 C1248 1.378 . S
C1241 C1240 1.367 . S
C1241 C1249 1.433 . S
C1242 H1238 0.929 . S
C1242 C1244 1.378 . S
C1242 C1246 1.350 . S
C1243 C1246 1.463 . S
C1243 C1248 1.350 . S
C1243 N1251 1.427 . S
C1244 H1235 0.930 . S
C1244 C1242 1.378 . S
C1244 C1245 1.367 . S
C1245 C1244 1.367 . S
C1245 C1247 1.433 . S
C1246 C1242 1.350 . S
C1246 C1243 1.463 . S
C1246 N1250 1.427 . S
C1247 H1237 0.929 . S
C1247 C1245 1.433 . S
C1247 N1250 1.384 . S
C1248 H1239 0.929 . S
C1248 C1240 1.378 . S
C1248 C1243 1.350 . S
C1249 H1236 0.929 . S
C1249 C1241 1.433 . S
C1249 N1251 1.384 . S
N1250 C1246 1.427 . S
N1250 C1247 1.384 . S
N1251 C1243 1.427 . S
N1251 C1249 1.384 . S
H1252 C1258 0.930 . S
H1253 C1262 0.930 . S
H1254 C1267 0.929 . S
H1255 C1265 0.929 . S
H1256 C1260 0.929 . S
H1257 C1266 0.929 . S
C1258 H1252 0.930 . S
C1258 C1259 1.367 . S
C1258 C1266 1.378 . S
C1259 C1258 1.367 . S
C1259 C1267 1.433 . S
C1260 H1256 0.929 . S
C1260 C1262 1.378 . S
C1260 C1264 1.350 . S
C1261 C1264 1.463 . S
C1261 C1266 1.350 . S
C1261 N1269 1.427 . S
C1262 H1253 0.930 . S
C1262 C1260 1.378 . S
C1262 C1263 1.367 . S
C1263 C1262 1.367 . S
C1263 C1265 1.433 . S
C1264 C1260 1.350 . S
C1264 C1261 1.463 . S
C1264 N1268 1.427 . S
C1265 H1255 0.929 . S
C1265 C1263 1.433 . S
C1265 N1268 1.384 . S
C1266 H1257 0.929 . S
C1266 C1258 1.378 . S
C1266 C1261 1.350 . S
C1267 H1254 0.929 . S
C1267 C1259 1.433 . S
C1267 N1269 1.384 . S
N1268 C1264 1.427 . S
N1268 C1265 1.384 . S
N1269 C1261 1.427 . S
N1269 C1267 1.384 . S
H1270 C1276 0.930 . S
H1271 C1280 0.930 . S
H1272 C1285 0.929 . S
H1273 C1283 0.929 . S
H1274 C1278 0.929 . S
H1275 C1284 0.929 . S
C1276 H1270 0.930 . S
C1276 C1277 1.367 . S
C1276 C1284 1.378 . S
C1277 C1276 1.367 . S
C1277 C1285 1.433 . S
C1278 H1274 0.929 . S
C1278 C1280 1.378 . S
C1278 C1282 1.350 . S
C1279 C1282 1.463 . S
C1279 C1284 1.350 . S
C1279 N1287 1.427 . S
C1280 H1271 0.930 . S
C1280 C1278 1.378 . S
C1280 C1281 1.367 . S
C1281 C1280 1.367 . S
C1281 C1283 1.433 . S
C1282 C1278 1.350 . S
C1282 C1279 1.463 . S
C1282 N1286 1.427 . S
C1283 H1273 0.929 . S
C1283 C1281 1.433 . S
C1283 N1286 1.384 . S
C1284 H1275 0.929 . S
C1284 C1276 1.378 . S
C1284 C1279 1.350 . S
C1285 H1272 0.929 . S
C1285 C1277 1.433 . S
C1285 N1287 1.384 . S
N1286 C1282 1.427 . S
N1286 C1283 1.384 . S
N1287 C1279 1.427 . S
N1287 C1285 1.384 . S
H1288 C1294 0.930 . S
H1289 C1298 0.930 . S
H1290 C1303 0.929 . S
H1291 C1301 0.929 . S
H1292 C1296 0.929 . S
H1293 C1302 0.929 . S
C1294 H1288 0.930 . S
C1294 C1295 1.367 . S
C1294 C1302 1.378 . S
C1295 C1294 1.367 . S
C1295 C1303 1.433 . S
C1296 H1292 0.929 . S
C1296 C1298 1.378 . S
C1296 C1300 1.350 . S
C1297 C1300 1.463 . S
C1297 C1302 1.350 . S
C1297 N1305 1.427 . S
C1298 H1289 0.930 . S
C1298 C1296 1.378 . S
C1298 C1299 1.367 . S
C1299 C1298 1.367 . S
C1299 C1301 1.433 . S
C1300 C1296 1.350 . S
C1300 C1297 1.463 . S
C1300 N1304 1.427 . S
C1301 H1291 0.929 . S
C1301 C1299 1.433 . S
C1301 N1304 1.384 . S
C1302 H1293 0.929 . S
C1302 C1294 1.378 . S
C1302 C1297 1.350 . S
C1303 H1290 0.929 . S
C1303 C1295 1.433 . S
C1303 N1305 1.384 . S
N1304 C1300 1.427 . S
N1304 C1301 1.384 . S
N1305 C1297 1.427 . S
N1305 C1303 1.384 . S
H1306 C1312 0.930 . S
H1307 C1316 0.930 . S
H1308 C1321 0.929 . S
H1309 C1319 0.929 . S
H1310 C1314 0.929 . S
H1311 C1320 0.929 . S
C1312 H1306 0.930 . S
C1312 C1313 1.367 . S
C1312 C1320 1.378 . S
C1313 C1312 1.367 . S
C1313 C1321 1.433 . S
C1314 H1310 0.929 . S
C1314 C1316 1.378 . S
C1314 C1318 1.350 . S
C1315 C1318 1.463 . S
C1315 C1320 1.350 . S
C1315 N1323 1.427 . S
C1316 H1307 0.930 . S
C1316 C1314 1.378 . S
C1316 C1317 1.367 . S
C1317 C1316 1.367 . S
C1317 C1319 1.433 . S
C1318 C1314 1.350 . S
C1318 C1315 1.463 . S
C1318 N1322 1.427 . S
C1319 H1309 0.929 . S
C1319 C1317 1.433 . S
C1319 N1322 1.384 . S
C1320 H1311 0.929 . S
C1320 C1312 1.378 . S
C1320 C1315 1.350 . S
C1321 H1308 0.929 . S
C1321 C1313 1.433 . S
C1321 N1323 1.384 . S
N1322 C1318 1.427 . S
N1322 C1319 1.384 . S
N1323 C1315 1.427 . S
N1323 C1321 1.384 . S
H1324 C1330 0.930 . S
H1325 C1334 0.930 . S
H1326 C1339 0.929 . S
H1327 C1337 0.929 . S
H1328 C1332 0.929 . S
H1329 C1338 0.929 . S
C1330 H1324 0.930 . S
C1330 C1331 1.367 . S
C1330 C1338 1.378 . S
C1331 C1330 1.367 . S
C1331 C1339 1.433 . S
C1332 H1328 0.929 . S
C1332 C1334 1.378 . S
C1332 C1336 1.350 . S
C1333 C1336 1.463 . S
C1333 C1338 1.350 . S
C1333 N1341 1.427 . S
C1334 H1325 0.930 . S
C1334 C1332 1.378 . S
C1334 C1335 1.367 . S
C1335 C1334 1.367 . S
C1335 C1337 1.433 . S
C1336 C1332 1.350 . S
C1336 C1333 1.463 . S
C1336 N1340 1.427 . S
C1337 H1327 0.929 . S
C1337 C1335 1.433 . S
C1337 N1340 1.384 . S
C1338 H1329 0.929 . S
C1338 C1330 1.378 . S
C1338 C1333 1.350 . S
C1339 H1326 0.929 . S
C1339 C1331 1.433 . S
C1339 N1341 1.384 . S
N1340 C1336 1.427 . S
N1340 C1337 1.384 . S
N1341 C1333 1.427 . S
N1341 C1339 1.384 . S
H1342 C1348 0.930 . S
H1343 C1352 0.930 . S
H1344 C1357 0.929 . S
H1345 C1355 0.929 . S
H1346 C1350 0.929 . S
H1347 C1356 0.929 . S
C1348 H1342 0.930 . S
C1348 C1349 1.367 . S
C1348 C1356 1.378 . S
C1349 C1348 1.367 . S
C1349 C1357 1.433 . S
C1350 H1346 0.929 . S
C1350 C1352 1.378 . S
C1350 C1354 1.350 . S
C1351 C1354 1.463 . S
C1351 C1356 1.350 . S
C1351 N1359 1.427 . S
C1352 H1343 0.930 . S
C1352 C1350 1.378 . S
C1352 C1353 1.367 . S
C1353 C1352 1.367 . S
C1353 C1355 1.433 . S
C1354 C1350 1.350 . S
C1354 C1351 1.463 . S
C1354 N1358 1.427 . S
C1355 H1345 0.929 . S
C1355 C1353 1.433 . S
C1355 N1358 1.384 . S
C1356 H1347 0.929 . S
C1356 C1348 1.378 . S
C1356 C1351 1.350 . S
C1357 H1344 0.929 . S
C1357 C1349 1.433 . S
C1357 N1359 1.384 . S
N1358 C1354 1.427 . S
N1358 C1355 1.384 . S
N1359 C1351 1.427 . S
N1359 C1357 1.384 . S
H1360 C1366 0.930 . S
H1361 C1370 0.930 . S
H1362 C1375 0.929 . S
H1363 C1373 0.929 . S
H1364 C1368 0.929 . S
H1365 C1374 0.929 . S
C1366 H1360 0.930 . S
C1366 C1367 1.367 . S
C1366 C1374 1.378 1_565 S
C1367 C1366 1.367 . S
C1367 C1375 1.433 . S
C1368 H1364 0.929 . S
C1368 C1370 1.378 . S
C1368 C1372 1.350 . S
C1369 C1372 1.463 . S
C1369 C1374 1.350 . S
C1369 N1377 1.427 . S
C1370 H1361 0.930 . S
C1370 C1368 1.378 . S
C1370 C1371 1.367 . S
C1371 C1370 1.367 . S
C1371 C1373 1.433 . S
C1372 C1368 1.350 . S
C1372 C1369 1.463 . S
C1372 N1376 1.427 . S
C1373 H1363 0.929 . S
C1373 C1371 1.433 . S
C1373 N1376 1.384 . S
C1374 H1365 0.929 . S
C1374 C1366 1.378 1_545 S
C1374 C1369 1.350 . S
C1375 H1362 0.929 . S
C1375 C1367 1.433 . S
C1375 N1377 1.384 1_565 S
N1376 C1372 1.427 . S
N1376 C1373 1.384 . S
N1377 C1369 1.427 . S
N1377 C1375 1.384 1_545 S
H1378 C1384 0.930 . S
H1379 C1388 0.930 1_545 S
H1380 C1393 0.929 . S
H1381 C1391 0.929 . S
H1382 C1386 0.929 . S
H1383 C1392 0.929 . S
C1384 H1378 0.930 . S
C1384 C1385 1.367 . S
C1384 C1392 1.378 . S
C1385 C1384 1.367 . S
C1385 C1393 1.433 . S
C1386 H1382 0.929 . S
C1386 C1388 1.381 . S
C1386 C1390 1.350 . S
C1387 C1390 1.463 . S
C1387 C1392 1.350 . S
C1387 N1395 1.427 . S
C1388 H1379 0.930 1_565 S
C1388 C1386 1.381 . S
C1388 C1389 1.365 1_565 S
C1389 C1388 1.365 1_545 S
C1389 C1391 1.433 . S
C1390 C1386 1.350 . S
C1390 C1387 1.463 . S
C1390 N1394 1.427 . S
C1391 H1381 0.929 . S
C1391 C1389 1.433 . S
C1391 N1394 1.384 1_545 S
C1392 H1383 0.929 . S
C1392 C1384 1.378 . S
C1392 C1387 1.350 . S
C1393 H1380 0.929 . S
C1393 C1385 1.433 . S
C1393 N1395 1.384 . S
N1394 C1390 1.427 . S
N1394 C1391 1.384 1_565 S
N1395 C1387 1.427 . S
N1395 C1393 1.384 . S
H1396 C1402 0.930 . S
H1397 C1406 0.930 . S
H1398 C1411 0.929 . S
H1399 C1409 0.929 . S
H1400 C1404 0.929 . S
H1401 C1410 0.929 . S
C1402 H1396 0.930 . S
C1402 C1403 1.367 . S
C1402 C1410 1.378 1_545 S
C1403 C1402 1.367 . S
C1403 C1411 1.434 . S
C1404 H1400 0.929 . S
C1404 C1406 1.378 . S
C1404 C1408 1.350 . S
C1405 C1408 1.463 . S
C1405 C1410 1.350 . S
C1405 N1413 1.427 . S
C1406 H1397 0.930 . S
C1406 C1404 1.378 . S
C1406 C1407 1.367 . S
C1407 C1406 1.367 . S
C1407 C1409 1.433 . S
C1408 C1404 1.350 . S
C1408 C1405 1.463 . S
C1408 N1412 1.427 . S
C1409 H1399 0.929 . S
C1409 C1407 1.433 . S
C1409 N1412 1.384 . S
C1410 H1401 0.929 . S
C1410 C1402 1.378 1_565 S
C1410 C1405 1.350 . S
C1411 H1398 0.929 . S
C1411 C1403 1.434 . S
C1411 N1413 1.383 1_545 S
N1412 C1408 1.427 . S
N1412 C1409 1.384 . S
N1413 C1405 1.427 . S
N1413 C1411 1.383 1_565 S
H1414 C1420 0.930 . S
H1415 C1424 0.930 . S
H1416 C1429 0.929 . S
H1417 C1427 0.929 . S
H1418 C1422 0.929 . S
H1419 C1428 0.929 . S
C1420 H1414 0.930 . S
C1420 C1421 1.367 . S
C1420 C1428 1.378 1_565 S
C1421 C1420 1.367 . S
C1421 C1429 1.433 . S
C1422 H1418 0.929 . S
C1422 C1424 1.378 . S
C1422 C1426 1.350 . S
C1423 C1426 1.463 . S
C1423 C1428 1.350 . S
C1423 N1431 1.427 . S
C1424 H1415 0.930 . S
C1424 C1422 1.378 . S
C1424 C1425 1.367 . S
C1425 C1424 1.367 . S
C1425 C1427 1.433 . S
C1426 C1422 1.350 . S
C1426 C1423 1.463 . S
C1426 N1430 1.427 . S
C1427 H1417 0.929 . S
C1427 C1425 1.433 . S
C1427 N1430 1.384 . S
C1428 H1419 0.929 . S
C1428 C1420 1.378 1_545 S
C1428 C1423 1.350 . S
C1429 H1416 0.929 . S
C1429 C1421 1.433 . S
C1429 N1431 1.384 1_565 S
N1430 C1426 1.427 . S
N1430 C1427 1.384 . S
N1431 C1423 1.427 . S
N1431 C1429 1.384 1_545 S
H1432 C1438 0.930 . S
H1433 C1442 0.930 . S
H1434 C1447 0.929 . S
H1435 C1445 0.929 1_545 S
H1436 C1440 0.929 . S
H1437 C1446 0.929 . S
C1438 H1432 0.930 . S
C1438 C1439 1.367 . S
C1438 C1446 1.378 . S
C1439 C1438 1.367 . S
C1439 C1447 1.433 . S
C1440 H1436 0.929 . S
C1440 C1442 1.378 1_565 S
C1440 C1444 1.350 . S
C1441 C1444 1.463 . S
C1441 C1446 1.350 . S
C1441 N1449 1.427 . S
C1442 H1433 0.930 . S
C1442 C1440 1.378 1_545 S
C1442 C1443 1.367 . S
C1443 C1442 1.367 . S
C1443 C1445 1.434 1_545 S
C1444 C1440 1.350 . S
C1444 C1441 1.463 . S
C1444 N1448 1.427 . S
C1445 H1435 0.929 1_565 S
C1445 C1443 1.434 1_565 S
C1445 N1448 1.383 . S
C1446 H1437 0.929 . S
C1446 C1438 1.378 . S
C1446 C1441 1.350 . S
C1447 H1434 0.929 . S
C1447 C1439 1.433 . S
C1447 N1449 1.384 . S
N1448 C1444 1.427 . S
N1448 C1445 1.383 . S
N1449 C1441 1.427 . S
N1449 C1447 1.384 . S
H1450 C1456 0.930 . S
H1451 C1460 0.930 . S
H1452 C1465 0.929 . S
H1453 C1463 0.929 . S
H1454 C1458 0.929 . S
H1455 C1464 0.929 . S
C1456 H1450 0.930 . S
C1456 C1457 1.367 . S
C1456 C1464 1.378 . S
C1457 C1456 1.367 . S
C1457 C1465 1.433 . S
C1458 H1454 0.929 . S
C1458 C1460 1.378 1_545 S
C1458 C1462 1.350 . S
C1459 C1462 1.463 . S
C1459 C1464 1.350 . S
C1459 N1467 1.427 . S
C1460 H1451 0.930 . S
C1460 C1458 1.378 1_565 S
C1460 C1461 1.367 . S
C1461 C1460 1.367 . S
C1461 C1463 1.432 . S
C1462 C1458 1.350 . S
C1462 C1459 1.463 . S
C1462 N1466 1.427 . S
C1463 H1453 0.929 . S
C1463 C1461 1.432 . S
C1463 N1466 1.385 1_565 S
C1464 H1455 0.929 . S
C1464 C1456 1.378 . S
C1464 C1459 1.350 . S
C1465 H1452 0.929 . S
C1465 C1457 1.433 . S
C1465 N1467 1.384 . S
N1466 C1462 1.427 . S
N1466 C1463 1.385 1_545 S
N1467 C1459 1.427 . S
N1467 C1465 1.384 . S
H1468 C1474 0.930 . S
H1469 C1478 0.930 . S
H1470 C1483 0.929 . S
H1471 C1481 0.929 . S
H1472 C1476 0.929 . S
H1473 C1482 0.929 . S
C1474 H1468 0.930 . S
C1474 C1475 1.367 . S
C1474 C1482 1.378 1_565 S
C1475 C1474 1.367 . S
C1475 C1483 1.433 . S
C1476 H1472 0.929 . S
C1476 C1478 1.378 . S
C1476 C1480 1.350 . S
C1477 C1480 1.463 . S
C1477 C1482 1.350 . S
C1477 N1485 1.427 . S
C1478 H1469 0.930 . S
C1478 C1476 1.378 . S
C1478 C1479 1.367 . S
C1479 C1478 1.367 . S
C1479 C1481 1.433 . S
C1480 C1476 1.350 . S
C1480 C1477 1.463 . S
C1480 N1484 1.427 . S
C1481 H1471 0.929 . S
C1481 C1479 1.433 . S
C1481 N1484 1.384 . S
C1482 H1473 0.929 . S
C1482 C1474 1.378 1_545 S
C1482 C1477 1.350 . S
C1483 H1470 0.929 . S
C1483 C1475 1.433 . S
C1483 N1485 1.384 1_565 S
N1484 C1480 1.427 . S
N1484 C1481 1.384 . S
N1485 C1477 1.427 . S
N1485 C1483 1.384 1_545 S
H1486 C1492 0.930 . S
H1487 C1496 0.930 . S
H1488 C1501 0.929 . S
H1489 C1499 0.929 . S
H1490 C1494 0.929 . S
H1491 C1500 0.929 . S
C1492 H1486 0.930 . S
C1492 C1493 1.367 . S
C1492 C1500 1.378 . S
C1493 C1492 1.367 . S
C1493 C1501 1.433 . S
C1494 H1490 0.929 . S
C1494 C1496 1.378 1_565 S
C1494 C1498 1.350 . S
C1495 C1498 1.463 . S
C1495 C1500 1.350 . S
C1495 N1503 1.427 . S
C1496 H1487 0.930 . S
C1496 C1494 1.378 1_545 S
C1496 C1497 1.367 . S
C1497 C1496 1.367 . S
C1497 C1499 1.433 . S
C1498 C1494 1.350 . S
C1498 C1495 1.463 . S
C1498 N1502 1.427 . S
C1499 H1489 0.929 . S
C1499 C1497 1.433 . S
C1499 N1502 1.384 1_545 S
C1500 H1491 0.929 . S
C1500 C1492 1.378 . S
C1500 C1495 1.350 . S
C1501 H1488 0.929 . S
C1501 C1493 1.433 . S
C1501 N1503 1.384 . S
N1502 C1498 1.427 . S
N1502 C1499 1.384 1_565 S
N1503 C1495 1.427 . S
N1503 C1501 1.384 . S
C647 C19 1.554 . S
C651 C379 1.548 . S
C665 C59 1.552 . S
C669 C339 1.550 . S
C683 C459 1.552 . S
C687 C99 1.550 . S
C701 C139 1.554 . S
C705 C419 1.549 . S
C719 C530 1.548 . S
C723 C170 1.554 . S
C737 C490 1.549 . S
C741 C210 1.553 . S
C755 C610 1.553 . S
C759 C250 1.549 . S
C773 C290 1.549 . S
C777 C570 1.554 . S
C791 C98 1.683 . S
C795 C18 1.679 . S
C809 C138 1.677 . S
C813 C58 1.683 . S
C827 C249 1.681 . S
C831 C169 1.678 . S
C845 C209 1.683 . S
C849 C289 1.680 . S
C863 C418 1.683 . S
C867 C338 1.679 . S
C881 C458 1.682 . S
C885 C378 1.680 . S
C899 C489 1.683 . S
C903 C569 1.677 . S
C917 C529 1.679 . S
C921 C609 1.683 . S
C935 C218 1.527 . S
C939 C9 1.511 . S
C953 C178 1.511 . S
C957 C49 1.527 . S
C971 C89 1.517 . S
C975 C298 1.521 . S
C989 C258 1.523 . S
C993 C129 1.515 . S
C1007 C329 1.524 . S
C1011 C538 1.514 . S
C1025 C498 1.511 . S
C1029 C369 1.527 . S
C1043 C409 1.515 . S
C1047 C618 1.523 . S
C1061 C578 1.527 . S
C1065 C449 1.511 . S
C1079 C50 1.621 . S
C1083 C10 1.625 . S
C1097 C130 1.628 . S
C1101 C90 1.622 . S
C1115 C219 1.629 . S
C1119 C179 1.623 . S
C1133 C259 1.628 . S
C1137 C299 1.632 . S
C1151 C370 1.629 . S
C1155 C330 1.624 . S
C1169 C450 1.626 . S
C1173 C410 1.621 . S
C1187 C499 1.631 . S
C1191 C539 1.626 . S
C1205 C579 1.620 . S
C1209 C619 1.620 . S
C1223 C6 1.631 . S
C1227 C15 1.631 . S
C1241 C46 1.636 . S
C1245 C55 1.636 . S
C1259 C86 1.636 . S
C1263 C95 1.636 . S
C1277 C135 1.632 . S
C1281 C126 1.632 . S
C1295 C175 1.635 . S
C1299 C166 1.635 . S
C1313 C206 1.631 . S
C1317 C215 1.631 . S
C1331 C255 1.629 . S
C1335 C246 1.629 . S
C1349 C295 1.633 . S
C1353 C286 1.633 . S
C1367 C335 1.635 . S
C1371 C326 1.635 . S
C1385 C366 1.637 . S
C1389 C375 1.637 . S
C1403 C415 1.629 . S
C1407 C406 1.629 . S
C1421 C455 1.630 . S
C1425 C446 1.630 . S
C1439 C495 1.629 . S
C1443 C486 1.629 . S
C1457 C535 1.629 . S
C1461 C526 1.629 . S
C1475 C566 1.631 . S
C1479 C575 1.631 . S
C1493 C615 1.635 . S
C1497 C606 1.635 . S
