# Generated by pormake.
# Topology ukg, (4)-cn, num edge types: 1
# Building blocks:
#     Node 0, Type 0, BuildingBlock: GALJAG_clean_sbu_0, # of connection points: 4
#     Node 1, Type 0, BuildingBlock: GALJAG_clean_sbu_0, # of connection points: 4
#     Node 2, Type 0, BuildingBlock: GALJAG_clean_sbu_0, # of connection points: 4
#     Node 3, Type 0, BuildingBlock: GALJAG_clean_sbu_0, # of connection points: 4
#     Node 4, Type 0, BuildingBlock: GALJAG_clean_sbu_0, # of connection points: 4
#     Node 5, Type 0, BuildingBlock: GALJAG_clean_sbu_0, # of connection points: 4
#     Node 6, Type 0, BuildingBlock: GALJAG_clean_sbu_0, # of connection points: 4
#     Node 7, Type 0, BuildingBlock: GALJAG_clean_sbu_0, # of connection points: 4
#     Edge 8, Type (0, 0), BuildingBlock: ZUJKAS_clean_linker_0, # of connection points: 2
#     Edge 9, Type (0, 0), BuildingBlock: ZUJKAS_clean_linker_0, # of connection points: 2
#     Edge 10, Type (0, 0), BuildingBlock: ZUJKAS_clean_linker_0, # of connection points: 2
#     Edge 11, Type (0, 0), BuildingBlock: ZUJKAS_clean_linker_0, # of connection points: 2
#     Edge 12, Type (0, 0), BuildingBlock: ZUJKAS_clean_linker_0, # of connection points: 2
#     Edge 13, Type (0, 0), BuildingBlock: ZUJKAS_clean_linker_0, # of connection points: 2
#     Edge 14, Type (0, 0), BuildingBlock: ZUJKAS_clean_linker_0, # of connection points: 2
#     Edge 15, Type (0, 0), BuildingBlock: ZUJKAS_clean_linker_0, # of connection points: 2
#     Edge 16, Type (0, 0), BuildingBlock: ZUJKAS_clean_linker_0, # of connection points: 2
#     Edge 17, Type (0, 0), BuildingBlock: ZUJKAS_clean_linker_0, # of connection points: 2
#     Edge 18, Type (0, 0), BuildingBlock: ZUJKAS_clean_linker_0, # of connection points: 2
#     Edge 19, Type (0, 0), BuildingBlock: ZUJKAS_clean_linker_0, # of connection points: 2
#     Edge 20, Type (0, 0), BuildingBlock: ZUJKAS_clean_linker_0, # of connection points: 2
#     Edge 21, Type (0, 0), BuildingBlock: ZUJKAS_clean_linker_0, # of connection points: 2
#     Edge 22, Type (0, 0), BuildingBlock: ZUJKAS_clean_linker_0, # of connection points: 2
#     Edge 23, Type (0, 0), BuildingBlock: ZUJKAS_clean_linker_0, # of connection points: 2
# Relax obj value: 0.111
# Max RMSD: 0.188
# Mean RMSD: 0.187
data_MOF--net-ukg--node1-GALJAG_clean_sbu_0--edge1-ZUJKAS_clean_linker_0
_symmetry_space_group_name_H-M    P1
_symmetry_Int_Tables_number       1
_symmetry_cell_setting            triclinic
loop_
_symmetry_equiv_pos_as_xyz
'x, y, z'
_cell_length_a     38.711324
_cell_length_b     38.717765
_cell_length_c     50.543322
_cell_angle_alpha  90.066258
_cell_angle_beta   89.937937
_cell_angle_gamma 89.99658
loop_
_atom_site_label
_atom_site_type_symbol
_atom_site_fract_x
_atom_site_fract_y
_atom_site_fract_z
_atom_type_partial_charge
In0 In 0.00551 0.68838 0.14096 0.0
O1 O 0.99262 0.66722 0.09981 0.0
O2 O 0.01174 0.63228 0.12874 0.0
C3 C 0.97666 0.75188 0.13984 0.0
C4 C 0.07345 0.70148 0.13765 0.0
C5 C 0.97321 0.6654 0.1848 0.0
O6 O 0.96365 0.72672 0.12743 0.0
O7 O 0.00434 0.74503 0.15178 0.0
O8 O 0.00497 0.67275 0.1846 0.0
O9 O 0.95814 0.66899 0.16287 0.0
C10 C 0.00137 0.63662 0.10533 0.0
O11 O 0.0597 0.68876 0.15813 0.0
O12 O 0.05292 0.70715 0.11873 0.0
In13 In 0.3145 0.49872 0.63393 0.0
O14 O 0.31584 0.5531 0.65098 0.0
O15 O 0.29221 0.54555 0.61329 0.0
C16 C 0.34035 0.47354 0.67954 0.0
C17 C 0.36233 0.49503 0.59516 0.0
C18 C 0.25385 0.46386 0.63409 0.0
O19 O 0.32117 0.4999 0.679 0.0
O20 O 0.34701 0.46072 0.65717 0.0
O21 O 0.28252 0.44882 0.63135 0.0
O22 O 0.25582 0.49625 0.63517 0.0
C23 C 0.30018 0.56639 0.63154 0.0
O24 O 0.33241 0.48248 0.59243 0.0
O25 O 0.36789 0.50893 0.6173 0.0
In26 In 0.49748 0.81489 0.13329 0.0
O27 O 0.511 0.83435 0.09171 0.0
O28 O 0.49492 0.87106 0.12041 0.0
C29 C 0.52321 0.75002 0.12969 0.0
C30 C 0.429 0.80441 0.13345 0.0
C31 C 0.52918 0.83622 0.17795 0.0
O32 O 0.54125 0.77635 0.12472 0.0
O33 O 0.49218 0.75643 0.13521 0.0
O34 O 0.49669 0.83571 0.1758 0.0
O35 O 0.54529 0.82657 0.15757 0.0
C36 C 0.50439 0.86556 0.09693 0.0
O37 O 0.44595 0.80982 0.15443 0.0
O38 O 0.44664 0.80468 0.11239 0.0
In39 In 0.18051 0.98835 0.63909 0.0
O40 O 0.1774 0.93331 0.65452 0.0
O41 O 0.20016 0.94152 0.61664 0.0
C42 C 0.15527 0.02205 0.68154 0.0
C43 C 0.13208 0.99687 0.60131 0.0
C44 C 0.24591 0.01155 0.64303 0.0
O45 O 0.15598 0.98948 0.68025 0.0
O46 O 0.16655 0.03734 0.66127 0.0
O47 O 0.2246 0.02497 0.6271 0.0
O48 O 0.23427 0.98643 0.65612 0.0
C49 C 0.19191 0.92023 0.63446 0.0
O50 O 0.16327 0.00533 0.59768 0.0
O51 O 0.12557 0.9848 0.62392 0.0
In52 In 0.99709 0.31843 0.87224 0.0
O53 O 0.94166 0.32656 0.85874 0.0
O54 O 0.95055 0.29551 0.89293 0.0
C55 C 0.0277 0.34103 0.82756 0.0
C56 C 0.00571 0.36665 0.9103 0.0
C57 C 0.02281 0.25387 0.86916 0.0
O58 O 0.99553 0.33592 0.82893 0.0
O59 O 0.04393 0.33552 0.84876 0.0
O60 O 0.03934 0.27806 0.8802 0.0
O61 O 0.99331 0.26213 0.86082 0.0
C62 C 0.9289 0.30819 0.87697 0.0
O63 O 0.01224 0.33511 0.91432 0.0
O64 O 0.99554 0.37354 0.88725 0.0
In65 In 0.67313 0.48785 0.35581 0.0
O66 O 0.67308 0.43157 0.34293 0.0
O67 O 0.69759 0.44437 0.37936 0.0
C68 C 0.64514 0.51671 0.31235 0.0
C69 C 0.624 0.49419 0.39335 0.0
C70 C 0.73604 0.5171 0.35155 0.0
O71 O 0.65192 0.48486 0.31366 0.0
O72 O 0.65188 0.53362 0.33306 0.0
O73 O 0.71351 0.52871 0.36736 0.0
O74 O 0.72687 0.4908 0.33865 0.0
C75 C 0.68971 0.42115 0.36288 0.0
O76 O 0.65413 0.5061 0.39643 0.0
O77 O 0.61882 0.47961 0.3714 0.0
In78 In 0.51046 0.1774 0.85923 0.0
O79 O 0.49285 0.15985 0.90042 0.0
O80 O 0.51785 0.12339 0.87539 0.0
C81 C 0.48039 0.23966 0.85373 0.0
C82 C 0.57689 0.19478 0.86654 0.0
C83 C 0.48193 0.14972 0.81548 0.0
O84 O 0.46865 0.2174 0.86971 0.0
O85 O 0.50712 0.23049 0.84132 0.0
O86 O 0.51332 0.15858 0.81631 0.0
O87 O 0.4655 0.15406 0.83679 0.0
C88 C 0.50395 0.12937 0.89749 0.0
O89 O 0.56764 0.17357 0.84889 0.0
O90 O 0.55273 0.2066 0.88068 0.0
In91 In 0.81947 0.00329 0.36377 0.0
O92 O 0.8219 0.05853 0.34866 0.0
O93 O 0.79862 0.04941 0.3863 0.0
C94 C 0.84167 0.97769 0.31708 0.0
C95 C 0.86951 0.99777 0.40065 0.0
C96 C 0.75777 0.97048 0.3646 0.0
O97 O 0.82632 0.00637 0.31878 0.0
O98 O 0.84652 0.96267 0.33888 0.0
O99 O 0.78571 0.95504 0.36958 0.0
O100 O 0.76097 0.00238 0.36062 0.0
C101 C 0.80688 0.07108 0.36872 0.0
O102 O 0.83899 0.98754 0.40482 0.0
O103 O 0.87464 0.01015 0.37794 0.0
H104 H 0.99353 0.43538 0.90478 0.0
H105 H 0.99407 0.47973 0.93914 0.0
H106 H 0.02274 0.40327 0.99709 0.0
H107 H 0.02259 0.35856 0.96261 0.0
H108 H 0.95288 0.48027 0.98505 0.0
H109 H 0.093 0.48182 0.00915 0.0
H110 H 0.07633 0.46254 0.97922 0.0
H111 H 0.07259 0.44014 0.01019 0.0
C112 C 0.00028 0.42799 0.92479 0.0
C113 C 0.00809 0.39349 0.93102 0.0
C114 C 0.00051 0.45338 0.94439 0.0
C115 C 0.00871 0.44484 0.97058 0.0
C116 C 0.01688 0.41047 0.97689 0.0
H117 H 0.01741 0.56902 0.11377 0.0
H118 H 0.01776 0.52196 0.08146 0.0
C119 C 0.01667 0.38497 0.95722 0.0
C120 C 0.00724 0.47184 0.99131 0.0
H121 H 0.0565 0.5167 0.03553 0.0
C122 C 0.97552 0.48828 0.9961 0.0
C123 C 0.03681 0.48209 0.0057 0.0
C124 C 0.07172 0.46599 0.00075 0.0
C125 C 0.9725 0.51464 0.01503 0.0
C126 C 0.00217 0.52525 0.02917 0.0
C127 C 0.03382 0.50854 0.0246 0.0
C128 C 0.00099 0.55376 0.04873 0.0
C129 C 0.93747 0.53049 0.02002 0.0
C130 C 0.99161 0.5873 0.04099 0.0
C131 C 0.99124 0.61425 0.05944 0.0
C132 C 0.00056 0.60812 0.08588 0.0
C133 C 0.01002 0.57453 0.09354 0.0
C134 C 0.0103 0.54762 0.07512 0.0
H135 H 0.91626 0.51342 0.01307 0.0
H136 H 0.93359 0.53595 0.04139 0.0
H137 H 0.93556 0.55525 0.00908 0.0
H138 H 0.98502 0.59274 0.0206 0.0
H139 H 0.98409 0.63991 0.05294 0.0
H140 H 0.4278 0.52028 0.59777 0.0
H141 H 0.47156 0.52068 0.56292 0.0
H142 H 0.40109 0.46844 0.51034 0.0
H143 H 0.35684 0.46827 0.54514 0.0
H144 H 0.50098 0.46448 0.53615 0.0
H145 H 0.43268 0.55285 0.46724 0.0
H146 H 0.42026 0.54809 0.50148 0.0
H147 H 0.40809 0.5159 0.47761 0.0
C148 C 0.42155 0.5089 0.57878 0.0
C149 C 0.38883 0.49436 0.57412 0.0
C150 C 0.4466 0.50915 0.55891 0.0
C151 C 0.43939 0.49504 0.53398 0.0
C152 C 0.40691 0.48005 0.52932 0.0
H153 H 0.55807 0.47017 0.39028 0.0
H154 H 0.51386 0.47081 0.42482 0.0
C155 C 0.38177 0.47978 0.54924 0.0
C156 C 0.4662 0.49562 0.51307 0.0
H157 H 0.48436 0.52718 0.45157 0.0
C158 C 0.49744 0.47826 0.51768 0.0
C159 C 0.46144 0.5137 0.48905 0.0
C160 C 0.42895 0.53397 0.48353 0.0
C161 C 0.52389 0.47797 0.49868 0.0
C162 C 0.51914 0.49604 0.47466 0.0
C163 C 0.4879 0.51341 0.47005 0.0
C164 C 0.54597 0.49654 0.45377 0.0
C165 C 0.55638 0.45768 0.50422 0.0
C166 C 0.57851 0.51133 0.45849 0.0
C167 C 0.6039 0.51099 0.43876 0.0
C168 C 0.59702 0.49599 0.41399 0.0
C169 C 0.56417 0.48184 0.40919 0.0
C170 C 0.53887 0.4822 0.42888 0.0
H171 H 0.55262 0.43879 0.52051 0.0
H172 H 0.5651 0.44357 0.48628 0.0
H173 H 0.57723 0.47574 0.51018 0.0
H174 H 0.58426 0.52312 0.47742 0.0
H175 H 0.62892 0.52222 0.44297 0.0
H176 H 0.52333 0.86041 0.04491 0.0
H177 H 0.52347 0.9065 0.01168 0.0
H178 H 0.48809 0.97911 0.07055 0.0
H179 H 0.48844 0.93346 0.10388 0.0
H180 H 0.46754 0.94597 0.99519 0.0
H181 H 0.56989 0.0296 0.03774 0.0
H182 H 0.56344 0.98548 0.04814 0.0
H183 H 0.53584 0.01919 0.06051 0.0
C184 C 0.51595 0.88629 0.0508 0.0
C185 C 0.50604 0.89339 0.077 0.0
C186 C 0.51597 0.91254 0.03182 0.0
C187 C 0.50625 0.94631 0.03875 0.0
C188 C 0.4964 0.95342 0.0649 0.0
H189 H 0.48061 0.13661 0.94841 0.0
H190 H 0.47921 0.09216 0.98302 0.0
C191 C 0.49645 0.92725 0.08389 0.0
C192 C 0.50499 0.97378 0.01839 0.0
H193 H 0.53741 0.05303 0.00218 0.0
C194 C 0.48293 0.96931 0.99664 0.0
C195 C 0.52494 0.00429 0.02046 0.0
C196 C 0.55011 0.0099 0.04284 0.0
C197 C 0.48005 0.99469 0.97697 0.0
C198 C 0.5001 0.0251 0.97899 0.0
C199 C 0.52196 0.02973 0.00082 0.0
C200 C 0.49989 0.05173 0.95801 0.0
C201 C 0.45527 0.98898 0.95436 0.0
C202 C 0.5122 0.04368 0.93266 0.0
C203 C 0.5131 0.0689 0.91298 0.0
C204 C 0.50178 0.10271 0.91831 0.0
C205 C 0.48936 0.11075 0.94372 0.0
C206 C 0.4886 0.08545 0.96348 0.0
H207 H 0.43564 0.96901 0.95918 0.0
H208 H 0.44178 0.01333 0.94909 0.0
H209 H 0.46991 0.98008 0.93674 0.0
H210 H 0.52158 0.01796 0.92819 0.0
H211 H 0.52295 0.06195 0.89362 0.0
H212 H 0.86437 0.97598 0.452 0.0
H213 H 0.9097 0.97692 0.48587 0.0
H214 H 0.98182 0.01765 0.42877 0.0
H215 H 0.93668 0.01723 0.39501 0.0
H216 H 0.97432 0.94387 0.48602 0.0
H217 H 0.98898 0.08646 0.4901 0.0
H218 H 0.95248 0.06571 0.47456 0.0
H219 H 0.9932 0.06831 0.45754 0.0
C220 C 0.8899 0.98511 0.4467 0.0
C221 C 0.89694 0.99672 0.42092 0.0
C222 C 0.91573 0.98565 0.46603 0.0
C223 C 0.94891 0.99796 0.45992 0.0
C224 C 0.95618 0.0088 0.43405 0.0
H225 H 0.13968 0.01851 0.55002 0.0
H226 H 0.09544 0.01879 0.51524 0.0
C227 C 0.93041 0.00832 0.41475 0.0
C228 C 0.97611 -0.00104 0.48048 0.0
H229 H 0.03019 0.0534 0.51386 0.0
C230 C 0.98645 0.96781 0.4922 0.0
C231 C 0.99196 0.03025 0.48839 0.0
C232 C 0.98094 0.06464 0.4772 0.0
C233 C 0.01255 0.96704 0.51143 0.0
C234 C 0.02828 -0.00167 0.51942 0.0
C235 C 0.0181 0.02947 0.50761 0.0
C236 C 0.05475 -0.00071 0.54052 0.0
C237 C 0.02347 0.93267 0.52273 0.0
C238 C 0.04623 0.98903 0.5663 0.0
C239 C 0.07131 0.98887 0.58611 0.0
C240 C 0.10537 -0.00083 0.58053 0.0
C241 C 0.11367 0.01037 0.55486 0.0
C242 C 0.08848 0.01052 0.53501 0.0
H243 H 0.01555 0.91083 0.50981 0.0
H244 H 0.05191 0.93163 0.52551 0.0
H245 H 0.01105 0.92905 0.54232 0.0
H246 H 0.02016 0.98096 0.57108 0.0
H247 H 0.06405 0.98031 0.60574 0.0
H248 H 0.12057 0.69922 0.17764 0.0
H249 H 0.18095 0.71779 0.17614 0.0
H250 H 0.17019 0.74221 0.0933 0.0
H251 H 0.10956 0.72448 0.0948 0.0
H252 H 0.23519 0.69421 0.14651 0.0
H253 H 0.20828 0.83169 0.12323 0.0
H254 H 0.17501 0.80217 0.13389 0.0
H255 H 0.18965 0.80186 0.1001 0.0
C256 C 0.1311 0.70851 0.1591 0.0
C257 C 0.11035 0.71067 0.13638 0.0
C258 C 0.16555 0.71911 0.15829 0.0
C259 C 0.1798 0.73201 0.13475 0.0
C260 C 0.15942 0.73318 0.11183 0.0
H261 H 0.38648 0.79637 0.09092 0.0
H262 H 0.32556 0.77915 0.09128 0.0
C263 C 0.12489 0.72281 0.11267 0.0
C264 C 0.21609 0.74392 0.13421 0.0
H265 H 0.26704 0.81402 0.12159 0.0
C266 C 0.24215 0.72043 0.14118 0.0
C267 C 0.22503 0.7782 0.12729 0.0
C268 C 0.19803 0.80506 0.12094 0.0
C269 C 0.27702 0.73021 0.14108 0.0
C270 C 0.28588 0.76435 0.13399 0.0
C271 C 0.25995 0.78783 0.12694 0.0
C272 C 0.32208 0.77612 0.13391 0.0
C273 C 0.30424 0.70396 0.14824 0.0
C274 C 0.33982 0.78068 0.15782 0.0
C275 C 0.37446 0.79072 0.15771 0.0
C276 C 0.39184 0.79619 0.13365 0.0
C277 C 0.37373 0.79226 0.10974 0.0
C278 C 0.33902 0.78245 0.10989 0.0
H279 H 0.29366 0.6773 0.14893 0.0
H280 H 0.32584 0.70472 0.13377 0.0
H281 H 0.31497 0.7103 0.16802 0.0
H282 H 0.32693 0.77618 0.17654 0.0
H283 H 0.38778 0.79357 0.17642 0.0
H284 H 0.31314 0.61601 0.66864 0.0
H285 H 0.29388 0.67629 0.6681 0.0
H286 H 0.24611 0.65997 0.59206 0.0
H287 H 0.26498 0.59968 0.59251 0.0
H288 H 0.30739 0.72876 0.63002 0.0
H289 H 0.16745 0.69878 0.63894 0.0
H290 H 0.20074 0.66745 0.64602 0.0
H291 H 0.18941 0.67706 0.61236 0.0
C292 C 0.29862 0.62531 0.65178 0.0
C293 C 0.29037 0.60315 0.63068 0.0
C294 C 0.28767 0.65968 0.65151 0.0
C295 C 0.26816 0.67229 0.63024 0.0
C296 C 0.26062 0.65047 0.60886 0.0
H297 H 0.22458 0.88703 0.59397 0.0
H298 H 0.24249 0.82644 0.59237 0.0
C299 C 0.27158 0.61613 0.6091 0.0
C300 C 0.25569 0.70832 0.63043 0.0
H301 H 0.1824 0.75731 0.63133 0.0
C302 C 0.28009 0.73508 0.63033 0.0
C303 C 0.22005 0.71629 0.63111 0.0
C304 C 0.19282 0.68844 0.63235 0.0
C305 C 0.26975 0.76978 0.63059 0.0
C306 C 0.2341 0.77775 0.63063 0.0
C307 C 0.2097 0.75099 0.63105 0.0
C308 C 0.22167 0.8138 0.6309 0.0
C309 C 0.29703 0.79762 0.6313 0.0
C310 C 0.20304 0.82629 0.65272 0.0
C311 C 0.19262 0.86079 0.65364 0.0
C312 C 0.20056 0.88324 0.63267 0.0
C313 C 0.21828 0.87035 0.61047 0.0
C314 C 0.22868 0.83585 0.60958 0.0
H315 H 0.32261 0.78727 0.63732 0.0
H316 H 0.29976 0.80901 0.61127 0.0
H317 H 0.28959 0.8186 0.64517 0.0
H318 H 0.19724 0.80952 0.66928 0.0
H319 H 0.17893 0.87002 0.67096 0.0
H320 H 0.59968 0.25116 0.89344 0.0
H321 H 0.65877 0.27306 0.89599 0.0
H322 H 0.6945 0.18614 0.84995 0.0
H323 H 0.6351 0.16495 0.84633 0.0
H324 H 0.71576 0.24829 0.91644 0.0
H325 H 0.73507 0.26412 0.80861 0.0
H326 H 0.6934 0.2546 0.82281 0.0
H327 H 0.72423 0.22051 0.81712 0.0
C328 C 0.62016 0.23673 0.88386 0.0
C329 C 0.61286 0.20653 0.86949 0.0
C330 C 0.65389 0.24927 0.88533 0.0
C331 C 0.68096 0.23167 0.87266 0.0
C332 C 0.67387 0.20074 0.85915 0.0
H333 H 0.89832 0.25713 0.90547 0.0
H334 H 0.83749 0.24064 0.90534 0.0
C335 C 0.64002 0.1885 0.85729 0.0
C336 C 0.71657 0.24561 0.87385 0.0
H337 H 0.78548 0.26829 0.83552 0.0
C338 C 0.73093 0.25291 0.89873 0.0
C339 C 0.73608 0.25237 0.85073 0.0
C340 C 0.72127 0.24786 0.82332 0.0
C341 C 0.76454 0.26605 0.90117 0.0
C342 C 0.78476 0.27084 0.87812 0.0
C343 C 0.77012 0.26427 0.85321 0.0
C344 C 0.82136 0.28196 0.87926 0.0
C345 C 0.7777 0.27518 0.92839 0.0
C346 C 0.83277 0.31013 0.8641 0.0
C347 C 0.86772 0.3191 0.86365 0.0
C348 C 0.89176 0.3002 0.87855 0.0
C349 C 0.88026 0.2724 0.89405 0.0
C350 C 0.84544 0.2631 0.89415 0.0
H351 H 0.75609 0.28136 0.94209 0.0
H352 H 0.79177 0.25271 0.93671 0.0
H353 H 0.79555 0.2976 0.92775 0.0
H354 H 0.81467 0.32494 0.85235 0.0
H355 H 0.87595 0.34062 0.85151 0.0
H356 H 0.67665 0.36705 0.32979 0.0
H357 H 0.69697 0.3075 0.33422 0.0
H358 H 0.74736 0.33384 0.40759 0.0
H359 H 0.72741 0.39357 0.40319 0.0
H360 H 0.78952 0.29761 0.3718 0.0
H361 H 0.66296 0.23283 0.38589 0.0
H362 H 0.66484 0.26035 0.35733 0.0
H363 H 0.66864 0.27885 0.38984 0.0
C364 C 0.6918 0.36008 0.34698 0.0
C365 C 0.70039 0.38488 0.36618 0.0
C366 C 0.70325 0.32606 0.34954 0.0
C367 C 0.72328 0.31628 0.37139 0.0
C368 C 0.73177 0.34093 0.39066 0.0
H369 H 0.77378 0.10317 0.4095 0.0
H370 H 0.75565 0.16362 0.41194 0.0
C371 C 0.72031 0.37496 0.38813 0.0
C372 C 0.73657 0.28063 0.37354 0.0
H373 H 0.71117 0.19642 0.3768 0.0
C374 C 0.77245 0.27546 0.37309 0.0
C375 C 0.71419 0.25193 0.37556 0.0
C376 C 0.67552 0.25616 0.37744 0.0
C377 C 0.78656 0.24211 0.37384 0.0
C378 C 0.76411 0.21334 0.37469 0.0
C379 C 0.72828 0.21858 0.37591 0.0
C380 C 0.77716 0.1775 0.37389 0.0
C381 C 0.82531 0.23796 0.37383 0.0
C382 C 0.79529 0.1654 0.35168 0.0
C383 C 0.80572 0.13092 0.35024 0.0
C384 C 0.79795 0.10798 0.37092 0.0
C385 C 0.78017 0.12029 0.39328 0.0
C386 C 0.76977 0.15475 0.3947 0.0
H387 H 0.83853 0.26198 0.38033 0.0
H388 H 0.83335 0.21645 0.38698 0.0
H389 H 0.83416 0.23192 0.35346 0.0
H390 H 0.80064 0.18242 0.33519 0.0
H391 H 0.81922 0.12209 0.33271 0.0
H392 H 0.78762 0.49417 0.31985 0.0
H393 H 0.83759 0.52622 0.30448 0.0
H394 H 0.81022 0.61143 0.35548 0.0
H395 H 0.75906 0.57947 0.37054 0.0
H396 H 0.81874 0.63293 0.30693 0.0
H397 H 0.93116 0.55204 0.33007 0.0
H398 H 0.89941 0.52554 0.31425 0.0
H399 H 0.88976 0.54534 0.34577 0.0
C400 C 0.79259 0.51941 0.3283 0.0
C401 C 0.76929 0.53443 0.34626 0.0
C402 C 0.82151 0.5376 0.31971 0.0
C403 C 0.82812 0.57105 0.32913 0.0
C404 C 0.80582 0.58551 0.34813 0.0
H405 H 0.99788 0.66194 0.23554 0.0
H406 H 0.96572 0.64531 0.27546 0.0
C407 C 0.77664 0.56726 0.35672 0.0
C408 C 0.85495 0.59223 0.31586 0.0
H409 H 0.9351 0.58504 0.28826 0.0
C410 C 0.84455 0.62297 0.3035 0.0
C411 C 0.88897 0.5799 0.31178 0.0
C412 C 0.903 0.54909 0.32649 0.0
C413 C 0.86594 0.63963 0.28513 0.0
C414 C 0.89812 0.62463 0.27846 0.0
C415 C 0.91001 0.59602 0.29283 0.0
C416 C 0.91773 0.63577 0.25477 0.0
C417 C 0.85323 0.67243 0.27231 0.0
C418 C 0.90163 0.63516 0.22991 0.0
C419 C 0.91979 0.64466 0.20723 0.0
C420 C 0.95462 0.6545 0.20889 0.0
C421 C 0.97102 0.65448 0.23371 0.0
C422 C 0.9527 0.6451 0.2565 0.0
H423 H 0.83602 0.68704 0.28592 0.0
H424 H 0.875 0.6894 0.26633 0.0
H425 H 0.83797 0.6658 0.25444 0.0
H426 H 0.875 0.62696 0.22797 0.0
H427 H 0.90653 0.64415 0.18838 0.0
H428 H 0.32491 0.49215 0.73063 0.0
H429 H 0.34118 0.46123 0.77125 0.0
H430 H 0.39822 0.38728 0.72464 0.0
H431 H 0.38211 0.41764 0.68427 0.0
H432 H 0.34697 0.35969 0.76218 0.0
H433 H 0.44021 0.45288 0.8066 0.0
H434 H 0.39888 0.46815 0.79507 0.0
H435 H 0.43044 0.45345 0.77167 0.0
C436 C 0.34126 0.46952 0.72915 0.0
C437 C 0.35223 0.45725 0.7043 0.0
C438 C 0.3505 0.45196 0.75232 0.0
C439 C 0.37087 0.42205 0.75085 0.0
C440 C 0.38241 0.4103 0.72613 0.0
H441 H 0.50483 0.2916 0.82319 0.0
H442 H 0.47275 0.34048 0.80573 0.0
C443 C 0.37324 0.42773 0.70309 0.0
C444 C 0.37949 0.40165 0.77463 0.0
H445 H 0.43746 0.39742 0.82528 0.0
C446 C 0.36613 0.36809 0.77646 0.0
C447 C 0.4044 0.41294 0.79309 0.0
C448 C 0.41955 0.44877 0.79169 0.0
C449 C 0.37896 0.34448 0.79502 0.0
C450 C 0.40547 0.35507 0.81253 0.0
C451 C 0.417 0.38949 0.81195 0.0
C452 C 0.42591 0.32938 0.82755 0.0
C453 C 0.36608 0.30767 0.7942 0.0
C454 C 0.41071 0.30764 0.84653 0.0
C455 C 0.42904 0.27925 0.85644 0.0
C456 C 0.4628 0.27249 0.84756 0.0
C457 C 0.47872 0.29591 0.8302 0.0
C458 C 0.46046 0.32403 0.8203 0.0
H459 H 0.34884 0.3028 0.77703 0.0
H460 H 0.38811 0.28936 0.79313 0.0
H461 H 0.35133 0.30206 0.81252 0.0
H462 H 0.38423 0.31171 0.85273 0.0
H463 H 0.41625 0.26173 0.86997 0.0
H464 H 0.59838 0.83648 0.18654 0.0
H465 H 0.62909 0.85613 0.22589 0.0
H466 H 0.53215 0.88058 0.26364 0.0
H467 H 0.50097 0.86053 0.22418 0.0
H468 H 0.62366 0.92417 0.2459 0.0
H469 H 0.58724 0.82529 0.32081 0.0
H470 H 0.58335 0.81772 0.28565 0.0
H471 H 0.55273 0.84492 0.30229 0.0
C472 C 0.58351 0.84579 0.20326 0.0
C473 C 0.54728 0.84714 0.20225 0.0
C474 C 0.6011 0.85691 0.22575 0.0
C475 C 0.58286 0.86948 0.24772 0.0
C476 C 0.54663 0.87042 0.24702 0.0
H477 H 0.69366 -0.00156 0.35961 0.0
H478 H 0.64476 0.97254 0.33629 0.0
C479 C 0.52892 0.85922 0.22444 0.0
C480 C 0.60232 0.884 0.27031 0.0
H481 H 0.62389 0.87051 0.33504 0.0
C482 C 0.62348 0.91266 0.26546 0.0
C483 C 0.6021 0.86867 0.29569 0.0
C484 C 0.58035 0.83729 0.30156 0.0
C485 C 0.64509 0.92605 0.28513 0.0
C486 C 0.64501 0.91077 0.31056 0.0
C487 C 0.6235 0.88235 0.3156 0.0
C488 C 0.66929 0.9228 0.33116 0.0
C489 C 0.66886 0.95566 0.2782 0.0
C490 C 0.6981 0.90253 0.33765 0.0
C491 C 0.72597 0.91715 0.35123 0.0
C492 C 0.72535 0.95228 0.35824 0.0
C493 C 0.69494 0.97138 0.3542 0.0
C494 C 0.66701 0.95666 0.34087 0.0
H495 H 0.67048 0.95993 0.25649 0.0
H496 H 0.65901 0.97973 0.28745 0.0
H497 H 0.69531 0.9509 0.28585 0.0
H498 H 0.70025 0.87629 0.33035 0.0
H499 H 0.74907 0.90183 0.35411 0.0
H500 H 0.09133 0.23879 0.86363 0.0
H501 H 0.11514 0.19015 0.83844 0.0
H502 H 0.01341 0.14549 0.83243 0.0
H503 H 0.98936 0.19438 0.85696 0.0
H504 H 0.11348 0.11471 0.8381 0.0
H505 H 0.03932 0.17557 0.75627 0.0
H506 H 0.04593 0.19667 0.78768 0.0
H507 H 0.01398 0.16323 0.7845 0.0
C508 C 0.07428 0.21796 0.85777 0.0
C509 C 0.03846 0.22053 0.8618 0.0
C510 C 0.08789 0.19023 0.84336 0.0
C511 C 0.06585 0.16473 0.83312 0.0
C512 C 0.0307 0.16527 0.83982 0.0
H513 H 0.12576 0.99569 0.72648 0.0
H514 H 0.10464 0.02811 0.76499 0.0
C515 C 0.01704 0.19313 0.85388 0.0
C516 C 0.07835 0.14119 0.81213 0.0
H517 H 0.07014 0.12503 0.74607 0.0
C518 C 0.10396 0.11673 0.81799 0.0
C519 C 0.06621 0.14443 0.78584 0.0
C520 C 0.04008 0.17156 0.77803 0.0
C521 C 0.11776 0.0953 0.79812 0.0
C522 C 0.10524 0.09833 0.77192 0.0
C523 C 0.07951 0.12266 0.76621 0.0
C524 C 0.1196 0.07808 0.74961 0.0
C525 C 0.14628 0.0704 0.8051 0.0
C526 C 0.13441 0.09548 0.72808 0.0
C527 C 0.14599 0.07717 0.70602 0.0
C528 C 0.14298 0.04105 0.70506 0.0
C529 C 0.12843 0.02353 0.72673 0.0
C530 C 0.11665 0.04196 0.74881 0.0
H531 H 0.1581 0.07655 0.82457 0.0
H532 H 0.13554 0.04386 0.80613 0.0
H533 H 0.16682 0.07062 0.78974 0.0
H534 H 0.13679 0.12337 0.72826 0.0
H535 H 0.15723 0.09138 0.68969 0.0
H536 H -0.00096 0.3564 0.77937 0.0
H537 H 0.02953 0.37471 0.73909 0.0
H538 H 0.12676 0.36744 0.78032 0.0
H539 H 0.09666 0.34971 0.82047 0.0
H540 H 0.11663 0.42987 0.75396 0.0
H541 H 0.09123 0.31716 0.68835 0.0
H542 H 0.05425 0.3369 0.70378 0.0
H543 H 0.08573 0.31522 0.72381 0.0
C544 C 0.02692 0.35863 0.77975 0.0
C545 C 0.04548 0.35179 0.80307 0.0
C546 C 0.04429 0.36881 0.75671 0.0
C547 C 0.08041 0.37203 0.75669 0.0
C548 C 0.09888 0.36499 0.77992 0.0
H549 H 0.2471 0.39685 0.65 0.0
H550 H 0.1986 0.37316 0.6752 0.0
C551 C 0.08162 0.35494 0.80286 0.0
C552 C 0.0993 0.38462 0.73313 0.0
H553 H 0.1244 0.36276 0.67045 0.0
C554 C 0.11805 0.41541 0.73559 0.0
C555 C 0.10123 0.36546 0.70933 0.0
C556 C 0.08228 0.3317 0.70604 0.0
C557 C 0.13948 0.42719 0.71519 0.0
C558 C 0.14157 0.40805 0.69136 0.0
C559 C 0.12232 0.37754 0.68863 0.0
C560 C 0.16612 0.41818 0.67029 0.0
C561 C 0.16093 0.45924 0.71984 0.0
C562 C 0.16294 0.45034 0.6578 0.0
C563 C 0.1907 0.46406 0.64362 0.0
C564 C 0.22184 0.44557 0.64149 0.0
C565 C 0.22344 0.4117 0.65137 0.0
C566 C 0.19575 0.39813 0.66578 0.0
H567 H 0.16148 0.4668 0.74105 0.0
H568 H 0.18792 0.45525 0.71302 0.0
H569 H 0.1498 0.48104 0.70845 0.0
H570 H 0.14002 0.46594 0.66072 0.0
H571 H 0.18865 0.49012 0.636 0.0
H572 H 0.6285 0.58435 0.306 0.0
H573 H 0.60649 0.61254 0.26631 0.0
H574 H 0.60862 0.51536 0.22456 0.0
H575 H 0.63105 0.48678 0.26439 0.0
H576 H 0.63694 0.573 0.19566 0.0
H577 H 0.5076 0.60138 0.23707 0.0
H578 H 0.54191 0.61509 0.2585 0.0
H579 H 0.53632 0.56985 0.2515 0.0
C580 C 0.62417 0.56888 0.28844 0.0
C581 C 0.63124 0.53331 0.28835 0.0
C582 C 0.61152 0.58502 0.2658 0.0
C583 C 0.6055 0.56591 0.24267 0.0
C584 C 0.61294 0.53046 0.24231 0.0
H585 H 0.48942 0.68846 0.13048 0.0
H586 H 0.51024 0.63496 0.15051 0.0
C587 C 0.6256 0.5142 0.26506 0.0
C588 C 0.59156 0.58352 0.21904 0.0
H589 H 0.52549 0.6359 0.20015 0.0
C590 C 0.61227 0.58626 0.19632 0.0
C591 C 0.55908 0.60009 0.21974 0.0
C592 C 0.53477 0.59619 0.24291 0.0
C593 C 0.60229 0.60724 0.17496 0.0
C594 C 0.57117 0.62631 0.17672 0.0
C595 C 0.54949 0.62154 0.19873 0.0
C596 C 0.56194 0.65408 0.15776 0.0
C597 C 0.62547 0.60919 0.15103 0.0
C598 C 0.58459 0.68198 0.1538 0.0
C599 C 0.57288 0.71235 0.14187 0.0
C600 C 0.53814 0.71554 0.13432 0.0
C601 C 0.51631 0.68668 0.13623 0.0
C602 C 0.52818 0.65613 0.14772 0.0
H603 H 0.63954 0.58447 0.14802 0.0
H604 H 0.61067 0.61523 0.13281 0.0
H605 H 0.64506 0.62971 0.15416 0.0
H606 H 0.61047 0.68147 0.16187 0.0
H607 H 0.59017 0.73432 0.14084 0.0
H608 H 0.5092 0.14469 0.76549 0.0
H609 H 0.47884 0.12726 0.72493 0.0
H610 H 0.38637 0.10865 0.77041 0.0
H611 H 0.41612 0.1264 0.81065 0.0
H612 H 0.44647 0.06603 0.71131 0.0
H613 H 0.35198 0.17263 0.71234 0.0
H614 H 0.39073 0.17331 0.73221 0.0
H615 H 0.35269 0.15105 0.7437 0.0
C616 C 0.48241 0.13681 0.76677 0.0
C617 C 0.46492 0.13713 0.79118 0.0
C618 C 0.46513 0.12696 0.74362 0.0
C619 C 0.43014 0.11753 0.7446 0.0
C620 C 0.41308 0.11682 0.7691 0.0
H621 H 0.29519 0.98419 0.6747 0.0
H622 H 0.34669 0.01252 0.69131 0.0
C623 C 0.43021 0.12669 0.79212 0.0
C624 C 0.41113 0.10739 0.7204 0.0
H625 H 0.3338 0.12018 0.68986 0.0
C626 C 0.42221 0.07831 0.70614 0.0
C627 C 0.38011 0.12409 0.71303 0.0
C628 C 0.36841 0.15725 0.72595 0.0
C629 C 0.40131 0.06351 0.68647 0.0
C630 C 0.36825 0.07774 0.68148 0.0
C631 C 0.35885 0.10882 0.6939 0.0
C632 C 0.34102 0.05834 0.66713 0.0
C633 C 0.41441 0.03211 0.67191 0.0
C634 C 0.32043 0.07451 0.64786 0.0
C635 C 0.29036 0.05843 0.63857 0.0
C636 C 0.28042 0.02607 0.64857 0.0
C637 C 0.30215 0.00914 0.66661 0.0
C638 C 0.33196 0.02519 0.67592 0.0
H639 H 0.44285 0.03355 0.66917 0.0
H640 H 0.4089 0.00869 0.68384 0.0
H641 H 0.402 0.02925 0.65224 0.0
H642 H 0.32675 0.10022 0.64096 0.0
H643 H 0.27404 0.07209 0.62468 0.0
H644 H 0.91043 0.7694 0.12599 0.0
H645 H 0.87793 0.81966 0.14199 0.0
H646 H 0.96998 0.85828 0.17996 0.0
H647 H 0.00244 0.80915 0.16351 0.0
H648 H 0.86679 0.82839 0.19212 0.0
H649 H 0.92899 0.94746 0.15761 0.0
H650 H 0.93684 0.90634 0.14178 0.0
H651 H 0.96191 0.9195 0.17016 0.0
C652 C 0.92393 0.78934 0.1369 0.0
C653 C 0.95886 0.78523 0.14373 0.0
C654 C 0.90535 0.81802 0.14605 0.0
C655 C 0.92151 0.84303 0.16201 0.0
C656 C 0.95701 0.84002 0.16713 0.0
H657 H 0.87573 0.91716 0.30981 0.0
H658 H 0.88878 0.88825 0.26813 0.0
C659 C 0.97553 0.81157 0.15795 0.0
C660 C 0.90083 0.86822 0.17754 0.0
H661 H 0.90579 0.94953 0.20348 0.0
C662 C 0.8746 0.85519 0.19395 0.0
C663 C 0.91034 0.90342 0.17977 0.0
C664 C 0.93582 0.91997 0.1611 0.0
C665 C 0.86034 0.87531 0.21425 0.0
C666 C 0.87317 0.90901 0.21862 0.0
C667 C 0.89664 0.92333 0.20053 0.0
C668 C 0.86576 0.92775 0.24352 0.0
C669 C 0.83282 0.85965 0.23168 0.0
C670 C 0.84974 0.96026 0.24344 0.0
C671 C 0.84244 0.97707 0.26738 0.0
C672 C 0.85136 0.96164 0.29162 0.0
C673 C 0.86834 0.92961 0.29148 0.0
C674 C 0.87558 0.91293 0.26768 0.0
H675 H 0.81773 0.83979 0.2208 0.0
H676 H 0.84529 0.84678 0.2488 0.0
H677 H 0.8148 0.87966 0.23929 0.0
H678 H 0.84233 0.97227 0.22495 0.0
H679 H 0.82936 0.00179 0.26692 0.0
loop_
_geom_bond_atom_site_label_1
_geom_bond_atom_site_label_2
_geom_bond_distance
_geom_bond_site_symmetry_2
_ccdc_geom_bond_type
In0 O1 2.293 1_455 S
In0 O2 2.327 . S
In0 O6 2.264 1_455 S
In0 O7 2.325 1_455 S
In0 O8 2.266 1_455 S
In0 O9 2.323 1_455 S
In0 O11 2.297 . S
In0 O12 2.329 . S
O1 In0 2.293 1_655 S
O1 C10 1.240 1_655 S
O2 In0 2.327 . S
O2 C10 1.252 . S
C3 O6 1.252 . S
C3 O7 1.260 . S
C4 O11 1.240 . S
C4 O12 1.252 . S
C5 O8 1.252 . S
C5 O9 1.260 . S
O6 In0 2.264 1_655 S
O6 C3 1.252 . S
O7 In0 2.325 1_655 S
O7 C3 1.260 . S
O8 In0 2.266 1_655 S
O8 C5 1.252 . S
O9 In0 2.323 1_655 S
O9 C5 1.260 . S
C10 O1 1.240 1_455 S
C10 O2 1.252 . S
O11 In0 2.297 . S
O11 C4 1.240 . S
O12 In0 2.329 . S
O12 C4 1.252 . S
In13 O14 2.294 . S
In13 O15 2.326 . S
In13 O19 2.266 . S
In13 O20 2.326 . S
In13 O21 2.266 . S
In13 O22 2.326 . S
In13 O24 2.294 . S
In13 O25 2.326 . S
O14 In13 2.294 . S
O14 C23 1.240 . S
O15 In13 2.326 . S
O15 C23 1.252 . S
C16 O19 1.252 . S
C16 O20 1.260 . S
C17 O24 1.240 . S
C17 O25 1.252 . S
C18 O21 1.252 . S
C18 O22 1.260 . S
O19 In13 2.266 . S
O19 C16 1.252 . S
O20 In13 2.326 . S
O20 C16 1.260 . S
O21 In13 2.266 . S
O21 C18 1.252 . S
O22 In13 2.326 . S
O22 C18 1.260 . S
C23 O14 1.240 . S
C23 O15 1.252 . S
O24 In13 2.294 . S
O24 C17 1.240 . S
O25 In13 2.326 . S
O25 C17 1.252 . S
In26 O27 2.294 . S
In26 O28 2.326 . S
In26 O32 2.266 . S
In26 O33 2.326 . S
In26 O34 2.266 . S
In26 O35 2.326 . S
In26 O37 2.294 . S
In26 O38 2.326 . S
O27 In26 2.294 . S
O27 C36 1.240 . S
O28 In26 2.326 . S
O28 C36 1.252 . S
C29 O32 1.252 . S
C29 O33 1.260 . S
C30 O37 1.240 . S
C30 O38 1.252 . S
C31 O34 1.252 . S
C31 O35 1.260 . S
O32 In26 2.266 . S
O32 C29 1.252 . S
O33 In26 2.326 . S
O33 C29 1.260 . S
O34 In26 2.266 . S
O34 C31 1.252 . S
O35 In26 2.326 . S
O35 C31 1.260 . S
C36 O27 1.240 . S
C36 O28 1.252 . S
O37 In26 2.294 . S
O37 C30 1.240 . S
O38 In26 2.326 . S
O38 C30 1.252 . S
In39 O40 2.297 . S
In39 O41 2.329 . S
In39 O45 2.266 1_565 S
In39 O46 2.323 1_565 S
In39 O47 2.264 1_565 S
In39 O48 2.325 1_565 S
In39 O50 2.293 1_565 S
In39 O51 2.327 . S
O40 In39 2.297 . S
O40 C49 1.240 . S
O41 In39 2.329 . S
O41 C49 1.252 . S
C42 O45 1.252 . S
C42 O46 1.260 . S
C43 O50 1.240 1_565 S
C43 O51 1.252 . S
C44 O47 1.252 . S
C44 O48 1.260 . S
O45 In39 2.266 1_545 S
O45 C42 1.252 . S
O46 In39 2.323 1_545 S
O46 C42 1.260 . S
O47 In39 2.264 1_545 S
O47 C44 1.252 . S
O48 In39 2.325 1_545 S
O48 C44 1.260 . S
C49 O40 1.240 . S
C49 O41 1.252 . S
O50 In39 2.293 1_545 S
O50 C43 1.240 1_545 S
O51 In39 2.327 . S
O51 C43 1.252 . S
In52 O53 2.297 . S
In52 O54 2.329 . S
In52 O58 2.266 1_655 S
In52 O59 2.323 1_655 S
In52 O60 2.264 1_655 S
In52 O61 2.325 1_655 S
In52 O63 2.293 1_655 S
In52 O64 2.327 . S
O53 In52 2.297 . S
O53 C62 1.240 . S
O54 In52 2.329 . S
O54 C62 1.252 . S
C55 O58 1.252 . S
C55 O59 1.260 . S
C56 O63 1.240 1_655 S
C56 O64 1.252 . S
C57 O60 1.252 . S
C57 O61 1.260 . S
O58 In52 2.266 1_455 S
O58 C55 1.252 . S
O59 In52 2.323 1_455 S
O59 C55 1.260 . S
O60 In52 2.264 1_455 S
O60 C57 1.252 . S
O61 In52 2.325 1_455 S
O61 C57 1.260 . S
C62 O53 1.240 . S
C62 O54 1.252 . S
O63 In52 2.293 1_455 S
O63 C56 1.240 1_455 S
O64 In52 2.327 . S
O64 C56 1.252 . S
In65 O66 2.294 . S
In65 O67 2.326 . S
In65 O71 2.266 . S
In65 O72 2.326 . S
In65 O73 2.266 . S
In65 O74 2.326 . S
In65 O76 2.294 . S
In65 O77 2.326 . S
O66 In65 2.294 . S
O66 C75 1.240 . S
O67 In65 2.326 . S
O67 C75 1.252 . S
C68 O71 1.252 . S
C68 O72 1.260 . S
C69 O76 1.240 . S
C69 O77 1.252 . S
C70 O73 1.252 . S
C70 O74 1.260 . S
O71 In65 2.266 . S
O71 C68 1.252 . S
O72 In65 2.326 . S
O72 C68 1.260 . S
O73 In65 2.266 . S
O73 C70 1.252 . S
O74 In65 2.326 . S
O74 C70 1.260 . S
C75 O66 1.240 . S
C75 O67 1.252 . S
O76 In65 2.294 . S
O76 C69 1.240 . S
O77 In65 2.326 . S
O77 C69 1.252 . S
In78 O79 2.294 . S
In78 O80 2.326 . S
In78 O84 2.266 . S
In78 O85 2.326 . S
In78 O86 2.266 . S
In78 O87 2.326 . S
In78 O89 2.294 . S
In78 O90 2.326 . S
O79 In78 2.294 . S
O79 C88 1.240 . S
O80 In78 2.326 . S
O80 C88 1.252 . S
C81 O84 1.252 . S
C81 O85 1.260 . S
C82 O89 1.240 . S
C82 O90 1.252 . S
C83 O86 1.252 . S
C83 O87 1.260 . S
O84 In78 2.266 . S
O84 C81 1.252 . S
O85 In78 2.326 . S
O85 C81 1.260 . S
O86 In78 2.266 . S
O86 C83 1.252 . S
O87 In78 2.326 . S
O87 C83 1.260 . S
C88 O79 1.240 . S
C88 O80 1.252 . S
O89 In78 2.294 . S
O89 C82 1.240 . S
O90 In78 2.326 . S
O90 C82 1.252 . S
In91 O92 2.297 . S
In91 O93 2.329 . S
In91 O97 2.266 1_545 S
In91 O98 2.323 1_545 S
In91 O99 2.264 1_545 S
In91 O100 2.325 1_545 S
In91 O102 2.293 1_545 S
In91 O103 2.327 . S
O92 In91 2.297 . S
O92 C101 1.240 . S
O93 In91 2.329 . S
O93 C101 1.252 . S
C94 O97 1.252 . S
C94 O98 1.260 . S
C95 O102 1.240 1_545 S
C95 O103 1.252 . S
C96 O99 1.252 . S
C96 O100 1.260 . S
O97 In91 2.266 1_565 S
O97 C94 1.252 . S
O98 In91 2.323 1_565 S
O98 C94 1.260 . S
O99 In91 2.264 1_565 S
O99 C96 1.252 . S
O100 In91 2.325 1_565 S
O100 C96 1.260 . S
C101 O92 1.240 . S
C101 O93 1.252 . S
O102 In91 2.293 1_565 S
O102 C95 1.240 1_565 S
O103 In91 2.327 . S
O103 C95 1.252 . S
H104 C112 0.929 . S
H105 C114 0.930 . S
H106 C116 0.930 . S
H107 C119 0.929 . S
H108 C122 0.931 . S
H109 C124 0.960 . S
H110 C124 0.960 . S
H111 C124 0.960 1_655 S
C112 H104 0.929 . S
C112 C113 1.377 1_455 S
C112 C114 1.384 . S
C113 C112 1.377 1_655 S
C113 C119 1.390 . S
C114 H105 0.930 . S
C114 C112 1.384 . S
C114 C115 1.386 . S
C115 C114 1.386 . S
C115 C116 1.385 1_455 S
C115 C120 1.490 . S
C116 H106 0.930 . S
C116 C115 1.385 1_655 S
C116 C119 1.386 . S
H117 C133 0.930 . S
H118 C134 0.931 . S
C119 H107 0.929 . S
C119 C113 1.390 . S
C119 C116 1.386 . S
C120 C115 1.490 . S
C120 C122 1.393 1_455 S
C120 C123 1.403 1_556 S
H121 C127 0.930 . S
C122 H108 0.931 . S
C122 C120 1.393 1_655 S
C122 C125 1.403 . S
C123 C120 1.403 1_554 S
C123 C124 1.524 . S
C123 C127 1.400 . S
C124 H109 0.960 . S
C124 H110 0.960 . S
C124 H111 0.960 1_455 S
C124 C123 1.524 . S
C125 C122 1.403 . S
C125 C126 1.390 1_656 S
C125 C129 1.498 . S
C126 C125 1.390 1_454 S
C126 C127 1.388 . S
C126 C128 1.477 . S
C127 H121 0.930 . S
C127 C123 1.400 . S
C127 C126 1.388 . S
C128 C126 1.477 . S
C128 C130 1.396 . S
C128 C134 1.368 1_455 S
C129 C125 1.498 . S
C129 H135 0.959 . S
C129 H136 0.961 . S
C129 H137 0.960 1_655 S
C130 C128 1.396 . S
C130 C131 1.394 . S
C130 H138 0.930 . S
C131 C130 1.394 . S
C131 C132 1.383 . S
C131 H139 0.929 . S
C132 C131 1.383 . S
C132 C133 1.377 1_455 S
C133 H117 0.930 . S
C133 C132 1.377 1_655 S
C133 C134 1.379 . S
C134 H118 0.931 . S
C134 C128 1.368 1_655 S
C134 C133 1.379 . S
H135 C129 0.959 . S
H136 C129 0.961 . S
H137 C129 0.960 1_455 S
H138 C130 0.930 . S
H139 C131 0.929 . S
H140 C148 0.929 . S
H141 C150 0.930 . S
H142 C152 0.930 . S
H143 C155 0.929 . S
H144 C158 0.930 . S
H145 C160 0.960 . S
H146 C160 0.960 . S
H147 C160 0.960 . S
C148 H140 0.929 . S
C148 C149 1.377 . S
C148 C150 1.384 . S
C149 C148 1.377 . S
C149 C155 1.390 . S
C150 H141 0.930 . S
C150 C148 1.384 . S
C150 C151 1.372 . S
C151 C150 1.372 . S
C151 C152 1.400 . S
C151 C156 1.490 . S
C152 H142 0.930 . S
C152 C151 1.400 . S
C152 C155 1.386 . S
H153 C169 0.930 . S
H154 C170 0.931 . S
C155 H143 0.929 . S
C155 C149 1.390 . S
C155 C152 1.386 . S
C156 C151 1.490 . S
C156 C158 1.395 . S
C156 C159 1.403 . S
H157 C163 0.930 . S
C158 H144 0.930 . S
C158 C156 1.395 . S
C158 C161 1.403 . S
C159 C156 1.403 . S
C159 C160 1.524 . S
C159 C163 1.400 . S
C160 H145 0.960 . S
C160 H146 0.960 . S
C160 H147 0.960 . S
C160 C159 1.524 . S
C161 C158 1.403 . S
C161 C162 1.392 . S
C161 C165 1.495 . S
C162 C161 1.392 . S
C162 C163 1.385 . S
C162 C164 1.478 . S
C163 H157 0.930 . S
C163 C159 1.400 . S
C163 C162 1.385 . S
C164 C162 1.478 . S
C164 C166 1.381 . S
C164 C170 1.383 . S
C165 C161 1.495 . S
C165 H171 0.959 . S
C165 H172 0.961 . S
C165 H173 0.960 . S
C166 C164 1.381 . S
C166 C167 1.394 . S
C166 H174 0.930 . S
C167 C166 1.394 . S
C167 C168 1.383 . S
C167 H175 0.929 . S
C168 C167 1.383 . S
C168 C169 1.377 . S
C169 H153 0.930 . S
C169 C168 1.377 . S
C169 C170 1.379 . S
C170 H154 0.931 . S
C170 C164 1.383 . S
C170 C169 1.379 . S
H171 C165 0.959 . S
H172 C165 0.961 . S
H173 C165 0.960 . S
H174 C166 0.930 . S
H175 C167 0.929 . S
H176 C184 0.929 . S
H177 C186 0.930 . S
H178 C188 0.930 . S
H179 C191 0.929 . S
H180 C194 0.930 . S
H181 C196 0.977 . S
H182 C196 0.960 . S
H183 C196 0.960 . S
C184 H176 0.929 . S
C184 C185 1.377 . S
C184 C186 1.384 . S
C185 C184 1.377 . S
C185 C191 1.390 . S
C186 H177 0.930 . S
C186 C184 1.384 . S
C186 C187 1.372 . S
C187 C186 1.372 . S
C187 C188 1.400 . S
C187 C192 1.490 . S
C188 H178 0.930 . S
C188 C187 1.400 . S
C188 C191 1.386 . S
H189 C205 0.930 . S
H190 C206 0.931 . S
C191 H179 0.929 . S
C191 C185 1.390 . S
C191 C188 1.386 . S
C192 C187 1.490 . S
C192 C194 1.395 . S
C192 C195 1.403 . S
H193 C199 0.930 . S
C194 H180 0.930 . S
C194 C192 1.395 . S
C194 C197 1.403 1_564 S
C195 C192 1.403 . S
C195 C196 1.524 . S
C195 C199 1.400 1_564 S
C196 H181 0.977 . S
C196 H182 0.960 . S
C196 H183 0.960 . S
C196 C195 1.524 . S
C197 C194 1.403 1_546 S
C197 C198 1.392 . S
C197 C201 1.495 . S
C198 C197 1.392 . S
C198 C199 1.385 . S
C198 C200 1.478 . S
C199 H193 0.930 . S
C199 C195 1.400 1_546 S
C199 C198 1.385 . S
C200 C198 1.478 . S
C200 C202 1.381 . S
C200 C206 1.383 . S
C201 C197 1.495 . S
C201 H207 0.959 . S
C201 H208 0.961 . S
C201 H209 0.960 . S
C202 C200 1.381 . S
C202 C203 1.394 . S
C202 H210 0.930 . S
C203 C202 1.394 . S
C203 C204 1.383 . S
C203 H211 0.929 . S
C204 C203 1.383 . S
C204 C205 1.377 . S
C205 H189 0.930 . S
C205 C204 1.377 . S
C205 C206 1.379 . S
C206 H190 0.931 . S
C206 C200 1.383 . S
C206 C205 1.379 . S
H207 C201 0.959 . S
H208 C201 0.961 . S
H209 C201 0.960 . S
H210 C202 0.930 . S
H211 C203 0.929 . S
H212 C220 0.929 . S
H213 C222 0.930 . S
H214 C224 0.930 . S
H215 C227 0.929 . S
H216 C230 0.930 . S
H217 C232 0.960 . S
H218 C232 0.960 1_655 S
H219 C232 0.960 . S
C220 H212 0.929 . S
C220 C221 1.377 . S
C220 C222 1.384 . S
C221 C220 1.377 . S
C221 C227 1.390 1_545 S
C222 H213 0.930 . S
C222 C220 1.384 . S
C222 C223 1.372 . S
C223 C222 1.372 . S
C223 C224 1.400 1_545 S
C223 C228 1.490 . S
C224 H214 0.930 . S
C224 C223 1.400 1_565 S
C224 C227 1.386 . S
H225 C241 0.930 . S
H226 C242 0.931 . S
C227 H215 0.929 . S
C227 C221 1.390 1_565 S
C227 C224 1.386 . S
C228 C223 1.490 . S
C228 C230 1.395 1_545 S
C228 C231 1.403 1_655 S
H229 C235 0.930 . S
C230 H216 0.930 . S
C230 C228 1.395 1_565 S
C230 C233 1.403 . S
C231 C228 1.403 1_455 S
C231 C232 1.524 . S
C231 C235 1.400 . S
C232 H217 0.960 . S
C232 H218 0.960 1_455 S
C232 H219 0.960 . S
C232 C231 1.524 . S
C233 C230 1.403 . S
C233 C234 1.392 1_655 S
C233 C237 1.495 . S
C234 C233 1.392 1_455 S
C234 C235 1.385 1_565 S
C234 C236 1.478 . S
C235 H229 0.930 . S
C235 C231 1.400 . S
C235 C234 1.385 1_545 S
C236 C234 1.478 . S
C236 C238 1.381 1_565 S
C236 C242 1.383 . S
C237 C233 1.495 . S
C237 H243 0.959 . S
C237 H244 0.961 . S
C237 H245 0.958 . S
C238 C236 1.381 1_545 S
C238 C239 1.394 . S
C238 H246 0.930 . S
C239 C238 1.394 . S
C239 C240 1.383 1_545 S
C239 H247 0.929 . S
C240 C239 1.383 1_565 S
C240 C241 1.377 . S
C241 H225 0.930 . S
C241 C240 1.377 . S
C241 C242 1.379 . S
C242 H226 0.931 . S
C242 C236 1.383 . S
C242 C241 1.379 . S
H243 C237 0.959 . S
H244 C237 0.961 . S
H245 C237 0.958 . S
H246 C238 0.930 . S
H247 C239 0.929 . S
H248 C256 0.929 . S
H249 C258 0.930 . S
H250 C260 0.930 . S
H251 C263 0.929 . S
H252 C266 0.930 . S
H253 C268 0.960 . S
H254 C268 0.960 . S
H255 C268 0.960 . S
C256 H248 0.929 . S
C256 C257 1.377 . S
C256 C258 1.384 . S
C257 C256 1.377 . S
C257 C263 1.390 . S
C258 H249 0.930 . S
C258 C256 1.384 . S
C258 C259 1.372 . S
C259 C258 1.372 . S
C259 C260 1.400 . S
C259 C264 1.490 . S
C260 H250 0.930 . S
C260 C259 1.400 . S
C260 C263 1.386 . S
H261 C277 0.930 . S
H262 C278 0.931 . S
C263 H251 0.929 . S
C263 C257 1.390 . S
C263 C260 1.386 . S
C264 C259 1.490 . S
C264 C266 1.395 . S
C264 C267 1.403 . S
H265 C271 0.930 . S
C266 H252 0.930 . S
C266 C264 1.395 . S
C266 C269 1.403 . S
C267 C264 1.403 . S
C267 C268 1.524 . S
C267 C271 1.400 . S
C268 H253 0.960 . S
C268 H254 0.960 . S
C268 H255 0.960 . S
C268 C267 1.524 . S
C269 C266 1.403 . S
C269 C270 1.392 . S
C269 C273 1.495 . S
C270 C269 1.392 . S
C270 C271 1.385 . S
C270 C272 1.478 . S
C271 H265 0.930 . S
C271 C267 1.400 . S
C271 C270 1.385 . S
C272 C270 1.478 . S
C272 C274 1.381 . S
C272 C278 1.383 . S
C273 C269 1.495 . S
C273 H279 0.959 . S
C273 H280 0.961 . S
C273 H281 0.960 . S
C274 C272 1.381 . S
C274 C275 1.394 . S
C274 H282 0.930 . S
C275 C274 1.394 . S
C275 C276 1.383 . S
C275 H283 0.929 . S
C276 C275 1.383 . S
C276 C277 1.377 . S
C277 H261 0.930 . S
C277 C276 1.377 . S
C277 C278 1.379 . S
C278 H262 0.931 . S
C278 C272 1.383 . S
C278 C277 1.379 . S
H279 C273 0.959 . S
H280 C273 0.961 . S
H281 C273 0.960 . S
H282 C274 0.930 . S
H283 C275 0.929 . S
H284 C292 0.929 . S
H285 C294 0.930 . S
H286 C296 0.930 . S
H287 C299 0.929 . S
H288 C302 0.930 . S
H289 C304 0.960 . S
H290 C304 0.960 . S
H291 C304 0.960 . S
C292 H284 0.929 . S
C292 C293 1.377 . S
C292 C294 1.384 . S
C293 C292 1.377 . S
C293 C299 1.390 . S
C294 H285 0.930 . S
C294 C292 1.384 . S
C294 C295 1.372 . S
C295 C294 1.372 . S
C295 C296 1.400 . S
C295 C300 1.490 . S
C296 H286 0.930 . S
C296 C295 1.400 . S
C296 C299 1.386 . S
H297 C313 0.930 . S
H298 C314 0.931 . S
C299 H287 0.929 . S
C299 C293 1.390 . S
C299 C296 1.386 . S
C300 C295 1.490 . S
C300 C302 1.395 . S
C300 C303 1.403 . S
H301 C307 0.930 . S
C302 H288 0.930 . S
C302 C300 1.395 . S
C302 C305 1.403 . S
C303 C300 1.403 . S
C303 C304 1.524 . S
C303 C307 1.400 . S
C304 H289 0.960 . S
C304 H290 0.960 . S
C304 H291 0.960 . S
C304 C303 1.524 . S
C305 C302 1.403 . S
C305 C306 1.392 . S
C305 C309 1.495 . S
C306 C305 1.392 . S
C306 C307 1.385 . S
C306 C308 1.478 . S
C307 H301 0.930 . S
C307 C303 1.400 . S
C307 C306 1.385 . S
C308 C306 1.478 . S
C308 C310 1.381 . S
C308 C314 1.383 . S
C309 C305 1.495 . S
C309 H315 0.959 . S
C309 H316 0.961 . S
C309 H317 0.960 . S
C310 C308 1.381 . S
C310 C311 1.394 . S
C310 H318 0.930 . S
C311 C310 1.394 . S
C311 C312 1.383 . S
C311 H319 0.929 . S
C312 C311 1.383 . S
C312 C313 1.377 . S
C313 H297 0.930 . S
C313 C312 1.377 . S
C313 C314 1.379 . S
C314 H298 0.931 . S
C314 C308 1.383 . S
C314 C313 1.379 . S
H315 C309 0.959 . S
H316 C309 0.961 . S
H317 C309 0.960 . S
H318 C310 0.930 . S
H319 C311 0.929 . S
H320 C328 0.929 . S
H321 C330 0.930 . S
H322 C332 0.930 . S
H323 C335 0.929 . S
H324 C338 0.930 . S
H325 C340 0.960 . S
H326 C340 0.960 . S
H327 C340 0.960 . S
C328 H320 0.929 . S
C328 C329 1.377 . S
C328 C330 1.384 . S
C329 C328 1.377 . S
C329 C335 1.390 . S
C330 H321 0.930 . S
C330 C328 1.384 . S
C330 C331 1.372 . S
C331 C330 1.372 . S
C331 C332 1.400 . S
C331 C336 1.490 . S
C332 H322 0.930 . S
C332 C331 1.400 . S
C332 C335 1.386 . S
H333 C349 0.930 . S
H334 C350 0.931 . S
C335 H323 0.929 . S
C335 C329 1.390 . S
C335 C332 1.386 . S
C336 C331 1.490 . S
C336 C338 1.395 . S
C336 C339 1.403 . S
H337 C343 0.930 . S
C338 H324 0.930 . S
C338 C336 1.395 . S
C338 C341 1.403 . S
C339 C336 1.403 . S
C339 C340 1.524 . S
C339 C343 1.400 . S
C340 H325 0.960 . S
C340 H326 0.960 . S
C340 H327 0.960 . S
C340 C339 1.524 . S
C341 C338 1.403 . S
C341 C342 1.392 . S
C341 C345 1.495 . S
C342 C341 1.392 . S
C342 C343 1.385 . S
C342 C344 1.478 . S
C343 H337 0.930 . S
C343 C339 1.400 . S
C343 C342 1.385 . S
C344 C342 1.478 . S
C344 C346 1.381 . S
C344 C350 1.383 . S
C345 C341 1.495 . S
C345 H351 0.959 . S
C345 H352 0.961 . S
C345 H353 0.960 . S
C346 C344 1.381 . S
C346 C347 1.394 . S
C346 H354 0.930 . S
C347 C346 1.394 . S
C347 C348 1.383 . S
C347 H355 0.929 . S
C348 C347 1.383 . S
C348 C349 1.377 . S
C349 H333 0.930 . S
C349 C348 1.377 . S
C349 C350 1.379 . S
C350 H334 0.931 . S
C350 C344 1.383 . S
C350 C349 1.379 . S
H351 C345 0.959 . S
H352 C345 0.961 . S
H353 C345 0.960 . S
H354 C346 0.930 . S
H355 C347 0.929 . S
H356 C364 0.929 . S
H357 C366 0.930 . S
H358 C368 0.930 . S
H359 C371 0.929 . S
H360 C374 0.930 . S
H361 C376 0.960 . S
H362 C376 0.960 . S
H363 C376 0.960 . S
C364 H356 0.929 . S
C364 C365 1.377 . S
C364 C366 1.384 . S
C365 C364 1.377 . S
C365 C371 1.390 . S
C366 H357 0.930 . S
C366 C364 1.384 . S
C366 C367 1.372 . S
C367 C366 1.372 . S
C367 C368 1.400 . S
C367 C372 1.490 . S
C368 H358 0.930 . S
C368 C367 1.400 . S
C368 C371 1.386 . S
H369 C385 0.930 . S
H370 C386 0.931 . S
C371 H359 0.929 . S
C371 C365 1.390 . S
C371 C368 1.386 . S
C372 C367 1.490 . S
C372 C374 1.395 . S
C372 C375 1.403 . S
H373 C379 0.930 . S
C374 H360 0.930 . S
C374 C372 1.395 . S
C374 C377 1.403 . S
C375 C372 1.403 . S
C375 C376 1.524 . S
C375 C379 1.400 . S
C376 H361 0.960 . S
C376 H362 0.960 . S
C376 H363 0.960 . S
C376 C375 1.524 . S
C377 C374 1.403 . S
C377 C378 1.392 . S
C377 C381 1.495 . S
C378 C377 1.392 . S
C378 C379 1.385 . S
C378 C380 1.478 . S
C379 H373 0.930 . S
C379 C375 1.400 . S
C379 C378 1.385 . S
C380 C378 1.478 . S
C380 C382 1.381 . S
C380 C386 1.383 . S
C381 C377 1.495 . S
C381 H387 0.959 . S
C381 H388 0.961 . S
C381 H389 0.960 . S
C382 C380 1.381 . S
C382 C383 1.394 . S
C382 H390 0.930 . S
C383 C382 1.394 . S
C383 C384 1.383 . S
C383 H391 0.929 . S
C384 C383 1.383 . S
C384 C385 1.377 . S
C385 H369 0.930 . S
C385 C384 1.377 . S
C385 C386 1.379 . S
C386 H370 0.931 . S
C386 C380 1.383 . S
C386 C385 1.379 . S
H387 C381 0.959 . S
H388 C381 0.961 . S
H389 C381 0.960 . S
H390 C382 0.930 . S
H391 C383 0.929 . S
H392 C400 0.929 . S
H393 C402 0.930 . S
H394 C404 0.930 . S
H395 C407 0.929 . S
H396 C410 0.930 . S
H397 C412 0.960 . S
H398 C412 0.960 . S
H399 C412 0.960 . S
C400 H392 0.929 . S
C400 C401 1.377 . S
C400 C402 1.384 . S
C401 C400 1.377 . S
C401 C407 1.390 . S
C402 H393 0.930 . S
C402 C400 1.384 . S
C402 C403 1.372 . S
C403 C402 1.372 . S
C403 C404 1.400 . S
C403 C408 1.490 . S
C404 H394 0.930 . S
C404 C403 1.400 . S
C404 C407 1.386 . S
H405 C421 0.930 . S
H406 C422 0.931 . S
C407 H395 0.929 . S
C407 C401 1.390 . S
C407 C404 1.386 . S
C408 C403 1.490 . S
C408 C410 1.395 . S
C408 C411 1.403 . S
H409 C415 0.930 . S
C410 H396 0.930 . S
C410 C408 1.395 . S
C410 C413 1.403 . S
C411 C408 1.403 . S
C411 C412 1.524 . S
C411 C415 1.400 . S
C412 H397 0.960 . S
C412 H398 0.960 . S
C412 H399 0.960 . S
C412 C411 1.524 . S
C413 C410 1.403 . S
C413 C414 1.392 . S
C413 C417 1.495 . S
C414 C413 1.392 . S
C414 C415 1.385 . S
C414 C416 1.478 . S
C415 H409 0.930 . S
C415 C411 1.400 . S
C415 C414 1.385 . S
C416 C414 1.478 . S
C416 C418 1.381 . S
C416 C422 1.383 . S
C417 C413 1.495 . S
C417 H423 0.959 . S
C417 H424 0.961 . S
C417 H425 0.960 . S
C418 C416 1.381 . S
C418 C419 1.394 . S
C418 H426 0.930 . S
C419 C418 1.394 . S
C419 C420 1.383 . S
C419 H427 0.929 . S
C420 C419 1.383 . S
C420 C421 1.377 . S
C421 H405 0.930 . S
C421 C420 1.377 . S
C421 C422 1.379 . S
C422 H406 0.931 . S
C422 C416 1.383 . S
C422 C421 1.379 . S
H423 C417 0.959 . S
H424 C417 0.961 . S
H425 C417 0.960 . S
H426 C418 0.930 . S
H427 C419 0.929 . S
H428 C436 0.929 . S
H429 C438 0.930 . S
H430 C440 0.930 . S
H431 C443 0.929 . S
H432 C446 0.930 . S
H433 C448 0.960 . S
H434 C448 0.960 . S
H435 C448 0.960 . S
C436 H428 0.929 . S
C436 C437 1.377 . S
C436 C438 1.384 . S
C437 C436 1.377 . S
C437 C443 1.390 . S
C438 H429 0.930 . S
C438 C436 1.384 . S
C438 C439 1.372 . S
C439 C438 1.372 . S
C439 C440 1.400 . S
C439 C444 1.490 . S
C440 H430 0.930 . S
C440 C439 1.400 . S
C440 C443 1.386 . S
H441 C457 0.930 . S
H442 C458 0.931 . S
C443 H431 0.929 . S
C443 C437 1.390 . S
C443 C440 1.386 . S
C444 C439 1.490 . S
C444 C446 1.395 . S
C444 C447 1.403 . S
H445 C451 0.930 . S
C446 H432 0.930 . S
C446 C444 1.395 . S
C446 C449 1.403 . S
C447 C444 1.403 . S
C447 C448 1.524 . S
C447 C451 1.400 . S
C448 H433 0.960 . S
C448 H434 0.960 . S
C448 H435 0.960 . S
C448 C447 1.524 . S
C449 C446 1.403 . S
C449 C450 1.392 . S
C449 C453 1.495 . S
C450 C449 1.392 . S
C450 C451 1.385 . S
C450 C452 1.478 . S
C451 H445 0.930 . S
C451 C447 1.400 . S
C451 C450 1.385 . S
C452 C450 1.478 . S
C452 C454 1.381 . S
C452 C458 1.383 . S
C453 C449 1.495 . S
C453 H459 0.959 . S
C453 H460 0.961 . S
C453 H461 0.960 . S
C454 C452 1.381 . S
C454 C455 1.394 . S
C454 H462 0.930 . S
C455 C454 1.394 . S
C455 C456 1.383 . S
C455 H463 0.929 . S
C456 C455 1.383 . S
C456 C457 1.377 . S
C457 H441 0.930 . S
C457 C456 1.377 . S
C457 C458 1.379 . S
C458 H442 0.931 . S
C458 C452 1.383 . S
C458 C457 1.379 . S
H459 C453 0.959 . S
H460 C453 0.961 . S
H461 C453 0.960 . S
H462 C454 0.930 . S
H463 C455 0.929 . S
H464 C472 0.929 . S
H465 C474 0.930 . S
H466 C476 0.930 . S
H467 C479 0.929 . S
H468 C482 0.930 . S
H469 C484 0.960 . S
H470 C484 0.960 . S
H471 C484 0.960 . S
C472 H464 0.929 . S
C472 C473 1.377 . S
C472 C474 1.384 . S
C473 C472 1.377 . S
C473 C479 1.390 . S
C474 H465 0.930 . S
C474 C472 1.384 . S
C474 C475 1.372 . S
C475 C474 1.372 . S
C475 C476 1.400 . S
C475 C480 1.490 . S
C476 H466 0.930 . S
C476 C475 1.400 . S
C476 C479 1.386 . S
H477 C493 0.930 . S
H478 C494 0.931 . S
C479 H467 0.929 . S
C479 C473 1.390 . S
C479 C476 1.386 . S
C480 C475 1.490 . S
C480 C482 1.395 . S
C480 C483 1.403 . S
H481 C487 0.930 . S
C482 H468 0.930 . S
C482 C480 1.395 . S
C482 C485 1.403 . S
C483 C480 1.403 . S
C483 C484 1.524 . S
C483 C487 1.400 . S
C484 H469 0.960 . S
C484 H470 0.960 . S
C484 H471 0.960 . S
C484 C483 1.524 . S
C485 C482 1.403 . S
C485 C486 1.392 . S
C485 C489 1.495 . S
C486 C485 1.392 . S
C486 C487 1.385 . S
C486 C488 1.478 . S
C487 H481 0.930 . S
C487 C483 1.400 . S
C487 C486 1.385 . S
C488 C486 1.478 . S
C488 C490 1.381 . S
C488 C494 1.383 . S
C489 C485 1.495 . S
C489 H495 0.959 . S
C489 H496 0.961 . S
C489 H497 0.960 . S
C490 C488 1.381 . S
C490 C491 1.394 . S
C490 H498 0.930 . S
C491 C490 1.394 . S
C491 C492 1.383 . S
C491 H499 0.929 . S
C492 C491 1.383 . S
C492 C493 1.377 . S
C493 H477 0.930 . S
C493 C492 1.377 . S
C493 C494 1.379 . S
C494 H478 0.931 . S
C494 C488 1.383 . S
C494 C493 1.379 . S
H495 C489 0.959 . S
H496 C489 0.961 . S
H497 C489 0.960 . S
H498 C490 0.930 . S
H499 C491 0.929 . S
H500 C508 0.929 . S
H501 C510 0.930 . S
H502 C512 0.930 . S
H503 C515 0.929 1_655 S
H504 C518 0.930 . S
H505 C520 0.960 . S
H506 C520 0.960 . S
H507 C520 0.960 . S
C508 H500 0.929 . S
C508 C509 1.377 . S
C508 C510 1.384 . S
C509 C508 1.377 . S
C509 C515 1.390 . S
C510 H501 0.930 . S
C510 C508 1.384 . S
C510 C511 1.372 . S
C511 C510 1.372 . S
C511 C512 1.400 . S
C511 C516 1.490 . S
C512 H502 0.930 . S
C512 C511 1.400 . S
C512 C515 1.386 . S
H513 C529 0.930 . S
H514 C530 0.931 . S
C515 H503 0.929 1_455 S
C515 C509 1.390 . S
C515 C512 1.386 . S
C516 C511 1.490 . S
C516 C518 1.395 . S
C516 C519 1.403 . S
H517 C523 0.930 . S
C518 H504 0.930 . S
C518 C516 1.395 . S
C518 C521 1.403 . S
C519 C516 1.403 . S
C519 C520 1.524 . S
C519 C523 1.400 . S
C520 H505 0.960 . S
C520 H506 0.960 . S
C520 H507 0.960 . S
C520 C519 1.524 . S
C521 C518 1.403 . S
C521 C522 1.392 . S
C521 C525 1.495 . S
C522 C521 1.392 . S
C522 C523 1.385 . S
C522 C524 1.478 . S
C523 H517 0.930 . S
C523 C519 1.400 . S
C523 C522 1.385 . S
C524 C522 1.478 . S
C524 C526 1.381 . S
C524 C530 1.383 . S
C525 C521 1.495 . S
C525 H531 0.959 . S
C525 H532 0.961 . S
C525 H533 0.960 . S
C526 C524 1.381 . S
C526 C527 1.394 . S
C526 H534 0.930 . S
C527 C526 1.394 . S
C527 C528 1.383 . S
C527 H535 0.929 . S
C528 C527 1.383 . S
C528 C529 1.377 . S
C529 H513 0.930 . S
C529 C528 1.377 . S
C529 C530 1.379 . S
C530 H514 0.931 . S
C530 C524 1.383 . S
C530 C529 1.379 . S
H531 C525 0.959 . S
H532 C525 0.961 . S
H533 C525 0.960 . S
H534 C526 0.930 . S
H535 C527 0.929 . S
H536 C544 0.929 . S
H537 C546 0.930 . S
H538 C548 0.930 . S
H539 C551 0.929 . S
H540 C554 0.930 . S
H541 C556 0.960 . S
H542 C556 0.960 . S
H543 C556 0.960 . S
C544 H536 0.929 . S
C544 C545 1.377 . S
C544 C546 1.384 . S
C545 C544 1.377 . S
C545 C551 1.390 . S
C546 H537 0.930 . S
C546 C544 1.384 . S
C546 C547 1.372 . S
C547 C546 1.372 . S
C547 C548 1.400 . S
C547 C552 1.490 . S
C548 H538 0.930 . S
C548 C547 1.400 . S
C548 C551 1.386 . S
H549 C565 0.930 . S
H550 C566 0.931 . S
C551 H539 0.929 . S
C551 C545 1.390 . S
C551 C548 1.386 . S
C552 C547 1.490 . S
C552 C554 1.395 . S
C552 C555 1.403 . S
H553 C559 0.930 . S
C554 H540 0.930 . S
C554 C552 1.395 . S
C554 C557 1.403 . S
C555 C552 1.403 . S
C555 C556 1.524 . S
C555 C559 1.400 . S
C556 H541 0.960 . S
C556 H542 0.960 . S
C556 H543 0.960 . S
C556 C555 1.524 . S
C557 C554 1.403 . S
C557 C558 1.392 . S
C557 C561 1.495 . S
C558 C557 1.392 . S
C558 C559 1.385 . S
C558 C560 1.478 . S
C559 H553 0.930 . S
C559 C555 1.400 . S
C559 C558 1.385 . S
C560 C558 1.478 . S
C560 C562 1.381 . S
C560 C566 1.383 . S
C561 C557 1.495 . S
C561 H567 0.959 . S
C561 H568 0.961 . S
C561 H569 0.960 . S
C562 C560 1.381 . S
C562 C563 1.394 . S
C562 H570 0.930 . S
C563 C562 1.394 . S
C563 C564 1.383 . S
C563 H571 0.929 . S
C564 C563 1.383 . S
C564 C565 1.377 . S
C565 H549 0.930 . S
C565 C564 1.377 . S
C565 C566 1.379 . S
C566 H550 0.931 . S
C566 C560 1.383 . S
C566 C565 1.379 . S
H567 C561 0.959 . S
H568 C561 0.961 . S
H569 C561 0.960 . S
H570 C562 0.930 . S
H571 C563 0.929 . S
H572 C580 0.929 . S
H573 C582 0.930 . S
H574 C584 0.930 . S
H575 C587 0.929 . S
H576 C590 0.930 . S
H577 C592 0.960 . S
H578 C592 0.960 . S
H579 C592 0.960 . S
C580 H572 0.929 . S
C580 C581 1.377 . S
C580 C582 1.384 . S
C581 C580 1.377 . S
C581 C587 1.390 . S
C582 H573 0.930 . S
C582 C580 1.384 . S
C582 C583 1.372 . S
C583 C582 1.372 . S
C583 C584 1.400 . S
C583 C588 1.490 . S
C584 H574 0.930 . S
C584 C583 1.400 . S
C584 C587 1.386 . S
H585 C601 0.930 . S
H586 C602 0.931 . S
C587 H575 0.929 . S
C587 C581 1.390 . S
C587 C584 1.386 . S
C588 C583 1.490 . S
C588 C590 1.395 . S
C588 C591 1.403 . S
H589 C595 0.930 . S
C590 H576 0.930 . S
C590 C588 1.395 . S
C590 C593 1.403 . S
C591 C588 1.403 . S
C591 C592 1.524 . S
C591 C595 1.400 . S
C592 H577 0.960 . S
C592 H578 0.960 . S
C592 H579 0.960 . S
C592 C591 1.524 . S
C593 C590 1.403 . S
C593 C594 1.392 . S
C593 C597 1.495 . S
C594 C593 1.392 . S
C594 C595 1.385 . S
C594 C596 1.478 . S
C595 H589 0.930 . S
C595 C591 1.400 . S
C595 C594 1.385 . S
C596 C594 1.478 . S
C596 C598 1.381 . S
C596 C602 1.383 . S
C597 C593 1.495 . S
C597 H603 0.959 . S
C597 H604 0.961 . S
C597 H605 0.960 . S
C598 C596 1.381 . S
C598 C599 1.394 . S
C598 H606 0.930 . S
C599 C598 1.394 . S
C599 C600 1.383 . S
C599 H607 0.929 . S
C600 C599 1.383 . S
C600 C601 1.377 . S
C601 H585 0.930 . S
C601 C600 1.377 . S
C601 C602 1.379 . S
C602 H586 0.931 . S
C602 C596 1.383 . S
C602 C601 1.379 . S
H603 C597 0.959 . S
H604 C597 0.961 . S
H605 C597 0.960 . S
H606 C598 0.930 . S
H607 C599 0.929 . S
H608 C616 0.929 . S
H609 C618 0.930 . S
H610 C620 0.930 . S
H611 C623 0.929 . S
H612 C626 0.930 . S
H613 C628 0.960 . S
H614 C628 0.960 . S
H615 C628 0.960 . S
C616 H608 0.929 . S
C616 C617 1.377 . S
C616 C618 1.384 . S
C617 C616 1.377 . S
C617 C623 1.390 . S
C618 H609 0.930 . S
C618 C616 1.384 . S
C618 C619 1.372 . S
C619 C618 1.372 . S
C619 C620 1.400 . S
C619 C624 1.490 . S
C620 H610 0.930 . S
C620 C619 1.400 . S
C620 C623 1.386 . S
H621 C637 0.930 . S
H622 C638 0.931 . S
C623 H611 0.929 . S
C623 C617 1.390 . S
C623 C620 1.386 . S
C624 C619 1.490 . S
C624 C626 1.395 . S
C624 C627 1.403 . S
H625 C631 0.930 . S
C626 H612 0.930 . S
C626 C624 1.395 . S
C626 C629 1.403 . S
C627 C624 1.403 . S
C627 C628 1.524 . S
C627 C631 1.400 . S
C628 H613 0.960 . S
C628 H614 0.960 . S
C628 H615 0.960 . S
C628 C627 1.524 . S
C629 C626 1.403 . S
C629 C630 1.392 . S
C629 C633 1.495 . S
C630 C629 1.392 . S
C630 C631 1.385 . S
C630 C632 1.478 . S
C631 H625 0.930 . S
C631 C627 1.400 . S
C631 C630 1.385 . S
C632 C630 1.478 . S
C632 C634 1.381 . S
C632 C638 1.383 . S
C633 C629 1.495 . S
C633 H639 0.959 . S
C633 H640 0.961 . S
C633 H641 0.960 . S
C634 C632 1.381 . S
C634 C635 1.394 . S
C634 H642 0.930 . S
C635 C634 1.394 . S
C635 C636 1.383 . S
C635 H643 0.929 . S
C636 C635 1.383 . S
C636 C637 1.377 . S
C637 H621 0.930 . S
C637 C636 1.377 . S
C637 C638 1.379 . S
C638 H622 0.931 . S
C638 C632 1.383 . S
C638 C637 1.379 . S
H639 C633 0.959 . S
H640 C633 0.961 . S
H641 C633 0.960 . S
H642 C634 0.930 . S
H643 C635 0.929 . S
H644 C652 0.929 . S
H645 C654 0.930 . S
H646 C656 0.930 . S
H647 C659 0.929 1_455 S
H648 C662 0.930 . S
H649 C664 0.960 . S
H650 C664 0.960 . S
H651 C664 0.960 . S
C652 H644 0.929 . S
C652 C653 1.377 . S
C652 C654 1.384 . S
C653 C652 1.377 . S
C653 C659 1.390 . S
C654 H645 0.930 . S
C654 C652 1.384 . S
C654 C655 1.372 . S
C655 C654 1.372 . S
C655 C656 1.400 . S
C655 C660 1.490 . S
C656 H646 0.930 . S
C656 C655 1.400 . S
C656 C659 1.386 . S
H657 C673 0.930 . S
H658 C674 0.931 . S
C659 H647 0.929 1_655 S
C659 C653 1.390 . S
C659 C656 1.386 . S
C660 C655 1.490 . S
C660 C662 1.395 . S
C660 C663 1.403 . S
H661 C667 0.930 . S
C662 H648 0.930 . S
C662 C660 1.395 . S
C662 C665 1.403 . S
C663 C660 1.403 . S
C663 C664 1.524 . S
C663 C667 1.400 . S
C664 H649 0.960 . S
C664 H650 0.960 . S
C664 H651 0.960 . S
C664 C663 1.524 . S
C665 C662 1.403 . S
C665 C666 1.392 . S
C665 C669 1.495 . S
C666 C665 1.392 . S
C666 C667 1.385 . S
C666 C668 1.478 . S
C667 H661 0.930 . S
C667 C663 1.400 . S
C667 C666 1.385 . S
C668 C666 1.478 . S
C668 C670 1.381 . S
C668 C674 1.383 . S
C669 C665 1.495 . S
C669 H675 0.959 . S
C669 H676 0.961 . S
C669 H677 0.960 . S
C670 C668 1.381 . S
C670 C671 1.394 . S
C670 H678 0.930 . S
C671 C670 1.394 . S
C671 C672 1.383 . S
C671 H679 0.929 . S
C672 C671 1.383 . S
C672 C673 1.377 . S
C673 H657 0.930 . S
C673 C672 1.377 . S
C673 C674 1.379 . S
C674 H658 0.931 . S
C674 C668 1.383 . S
C674 C673 1.379 . S
H675 C669 0.959 . S
H676 C669 0.961 . S
H677 C669 0.960 . S
H678 C670 0.930 . S
H679 C671 0.929 . S
C113 C56 1.725 . S
C132 C10 1.738 . S
C149 C17 1.729 . S
C168 C69 1.741 . S
C185 C36 1.716 . S
C204 C88 1.713 . S
C221 C95 1.709 . S
C240 C43 1.690 . S
C257 C4 1.716 . S
C276 C30 1.705 . S
C293 C23 1.716 . S
C312 C49 1.707 . S
C329 C82 1.716 . S
C348 C62 1.711 . S
C365 C75 1.717 . S
C384 C101 1.714 . S
C401 C70 0.900 . S
C420 C5 0.914 . S
C437 C16 0.924 . S
C456 C81 0.926 . S
C473 C31 0.908 . S
C492 C96 0.857 . S
C509 C57 0.884 . S
C528 C42 0.897 . S
C545 C55 0.916 . S
C564 C18 0.859 . S
C581 C68 0.921 . S
C600 C29 0.936 . S
C617 C83 0.908 . S
C636 C44 0.910 . S
C653 C3 0.898 . S
C672 C94 0.894 . S
