# Generated by pormake.
# Topology pcl, (4)-cn, num edge types: 1
# Building blocks:
#     Node 0, Type 0, BuildingBlock: CEKHIL_clean_sbu_0, # of connection points: 4
#     Node 1, Type 0, BuildingBlock: CEKHIL_clean_sbu_0, # of connection points: 4
#     Node 2, Type 0, BuildingBlock: CEKHIL_clean_sbu_0, # of connection points: 4
#     Node 3, Type 0, BuildingBlock: CEKHIL_clean_sbu_0, # of connection points: 4
#     Node 4, Type 0, BuildingBlock: CEKHIL_clean_sbu_0, # of connection points: 4
#     Node 5, Type 0, BuildingBlock: CEKHIL_clean_sbu_0, # of connection points: 4
#     Node 6, Type 0, BuildingBlock: CEKHIL_clean_sbu_0, # of connection points: 4
#     Node 7, Type 0, BuildingBlock: CEKHIL_clean_sbu_0, # of connection points: 4
#     Node 8, Type 0, BuildingBlock: CEKHIL_clean_sbu_0, # of connection points: 4
#     Node 9, Type 0, BuildingBlock: CEKHIL_clean_sbu_0, # of connection points: 4
#     Node 10, Type 0, BuildingBlock: CEKHIL_clean_sbu_0, # of connection points: 4
#     Node 11, Type 0, BuildingBlock: CEKHIL_clean_sbu_0, # of connection points: 4
#     Node 12, Type 0, BuildingBlock: CEKHIL_clean_sbu_0, # of connection points: 4
#     Node 13, Type 0, BuildingBlock: CEKHIL_clean_sbu_0, # of connection points: 4
#     Node 14, Type 0, BuildingBlock: CEKHIL_clean_sbu_0, # of connection points: 4
#     Node 15, Type 0, BuildingBlock: CEKHIL_clean_sbu_0, # of connection points: 4
#     Edge 16, Type (0, 0), BuildingBlock: ZUJKAS_clean_linker_0, # of connection points: 2
#     Edge 17, Type (0, 0), BuildingBlock: ZUJKAS_clean_linker_0, # of connection points: 2
#     Edge 18, Type (0, 0), BuildingBlock: ZUJKAS_clean_linker_0, # of connection points: 2
#     Edge 19, Type (0, 0), BuildingBlock: ZUJKAS_clean_linker_0, # of connection points: 2
#     Edge 20, Type (0, 0), BuildingBlock: ZUJKAS_clean_linker_0, # of connection points: 2
#     Edge 21, Type (0, 0), BuildingBlock: ZUJKAS_clean_linker_0, # of connection points: 2
#     Edge 22, Type (0, 0), BuildingBlock: ZUJKAS_clean_linker_0, # of connection points: 2
#     Edge 23, Type (0, 0), BuildingBlock: ZUJKAS_clean_linker_0, # of connection points: 2
#     Edge 24, Type (0, 0), BuildingBlock: ZUJKAS_clean_linker_0, # of connection points: 2
#     Edge 25, Type (0, 0), BuildingBlock: ZUJKAS_clean_linker_0, # of connection points: 2
#     Edge 26, Type (0, 0), BuildingBlock: ZUJKAS_clean_linker_0, # of connection points: 2
#     Edge 27, Type (0, 0), BuildingBlock: ZUJKAS_clean_linker_0, # of connection points: 2
#     Edge 28, Type (0, 0), BuildingBlock: ZUJKAS_clean_linker_0, # of connection points: 2
#     Edge 29, Type (0, 0), BuildingBlock: ZUJKAS_clean_linker_0, # of connection points: 2
#     Edge 30, Type (0, 0), BuildingBlock: ZUJKAS_clean_linker_0, # of connection points: 2
#     Edge 31, Type (0, 0), BuildingBlock: ZUJKAS_clean_linker_0, # of connection points: 2
#     Edge 32, Type (0, 0), BuildingBlock: ZUJKAS_clean_linker_0, # of connection points: 2
#     Edge 33, Type (0, 0), BuildingBlock: ZUJKAS_clean_linker_0, # of connection points: 2
#     Edge 34, Type (0, 0), BuildingBlock: ZUJKAS_clean_linker_0, # of connection points: 2
#     Edge 35, Type (0, 0), BuildingBlock: ZUJKAS_clean_linker_0, # of connection points: 2
#     Edge 36, Type (0, 0), BuildingBlock: ZUJKAS_clean_linker_0, # of connection points: 2
#     Edge 37, Type (0, 0), BuildingBlock: ZUJKAS_clean_linker_0, # of connection points: 2
#     Edge 38, Type (0, 0), BuildingBlock: ZUJKAS_clean_linker_0, # of connection points: 2
#     Edge 39, Type (0, 0), BuildingBlock: ZUJKAS_clean_linker_0, # of connection points: 2
#     Edge 40, Type (0, 0), BuildingBlock: ZUJKAS_clean_linker_0, # of connection points: 2
#     Edge 41, Type (0, 0), BuildingBlock: ZUJKAS_clean_linker_0, # of connection points: 2
#     Edge 42, Type (0, 0), BuildingBlock: ZUJKAS_clean_linker_0, # of connection points: 2
#     Edge 43, Type (0, 0), BuildingBlock: ZUJKAS_clean_linker_0, # of connection points: 2
#     Edge 44, Type (0, 0), BuildingBlock: ZUJKAS_clean_linker_0, # of connection points: 2
#     Edge 45, Type (0, 0), BuildingBlock: ZUJKAS_clean_linker_0, # of connection points: 2
#     Edge 46, Type (0, 0), BuildingBlock: ZUJKAS_clean_linker_0, # of connection points: 2
#     Edge 47, Type (0, 0), BuildingBlock: ZUJKAS_clean_linker_0, # of connection points: 2
# Relax obj value: 0.074
# Max RMSD: 0.055
# Mean RMSD: 0.053
data_MOF--net-pcl--node1-CEKHIL_clean_sbu_0--edge1-ZUJKAS_clean_linker_0
_symmetry_space_group_name_H-M    P1
_symmetry_Int_Tables_number       1
_symmetry_cell_setting            triclinic
loop_
_symmetry_equiv_pos_as_xyz
'x, y, z'
_cell_length_a     68.078624
_cell_length_b     53.064495
_cell_length_c     55.537502
_cell_angle_alpha  89.999888
_cell_angle_beta   89.997805
_cell_angle_gamma 90.007319
loop_
_atom_site_label
_atom_site_type_symbol
_atom_site_fract_x
_atom_site_fract_y
_atom_site_fract_z
_atom_type_partial_charge
Co0 Co 0.1445 0.34148 0.07503 0.0
O1 O 0.17251 0.33621 0.07285 0.0
O2 O 0.15029 0.30733 0.06419 0.0
C3 C 0.14466 0.37911 0.05566 0.0
O4 O 0.11424 0.34048 0.07414 0.0
Co5 Co 0.12743 0.38781 0.10244 0.0
O6 O 0.10295 0.37852 0.08546 0.0
C7 C 0.14158 0.34331 0.12983 0.0
C8 C 0.16875 0.31366 0.06517 0.0
C9 C 0.10013 0.35657 0.07681 0.0
O10 O 0.14475 0.33088 0.11022 0.0
O11 O 0.13599 0.36636 0.13013 0.0
O12 O 0.14466 0.35821 0.0435 0.0
O13 O 0.14604 0.37658 0.07867 0.0
Co14 Co 0.86835 0.66075 0.57579 0.0
O15 O 0.84034 0.6661 0.57336 0.0
O16 O 0.86271 0.69486 0.56487 0.0
C17 C 0.86826 0.62307 0.55651 0.0
O18 O 0.8986 0.66183 0.57505 0.0
Co19 Co 0.88552 0.61468 0.60336 0.0
O20 O 0.91006 0.62392 0.58644 0.0
C21 C 0.87134 0.65924 0.63061 0.0
C22 C 0.84422 0.68863 0.56566 0.0
C23 C 0.91277 0.64587 0.57775 0.0
O24 O 0.86795 0.67147 0.61094 0.0
O25 O 0.87716 0.6363 0.63106 0.0
O26 O 0.86831 0.64395 0.54431 0.0
O27 O 0.86682 0.62563 0.57953 0.0
Co28 Co 0.1433 0.66269 0.92767 0.0
O29 O 0.17138 0.66653 0.93062 0.0
O30 O 0.14996 0.69687 0.93772 0.0
C31 C 0.14227 0.62547 0.9477 0.0
O32 O 0.11309 0.66522 0.92785 0.0
Co33 Co 0.12481 0.61678 0.90113 0.0
O34 O 0.10114 0.62666 0.91956 0.0
C35 C 0.14023 0.66009 0.87291 0.0
C36 C 0.16819 0.68945 0.93764 0.0
C37 C 0.0988 0.64921 0.92687 0.0
O38 O 0.14429 0.67246 0.89231 0.0
O39 O 0.13348 0.63755 0.87296 0.0
O40 O 0.14259 0.64659 0.95952 0.0
O41 O 0.14382 0.62751 0.92466 0.0
Co42 Co 0.86801 0.33898 0.42896 0.0
O43 O 0.83993 0.33391 0.43063 0.0
O44 O 0.86195 0.30492 0.43972 0.0
C45 C 0.86769 0.37666 0.44826 0.0
O46 O 0.89823 0.33753 0.43044 0.0
Co47 Co 0.88636 0.38493 0.40237 0.0
O48 O 0.90989 0.37609 0.42156 0.0
C49 C 0.87247 0.3406 0.37435 0.0
C50 C 0.84353 0.31136 0.43846 0.0
C51 C 0.91234 0.35378 0.42945 0.0
O52 O 0.86823 0.32839 0.39379 0.0
O53 O 0.87874 0.36337 0.37429 0.0
O54 O 0.86746 0.35577 0.46045 0.0
O55 O 0.86681 0.37411 0.4252 0.0
Co56 Co 0.84765 0.66887 0.91762 0.0
O57 O 0.81978 0.67239 0.92334 0.0
O58 O 0.84287 0.68673 0.94767 0.0
C59 C 0.84652 0.68072 0.87839 0.0
O60 O 0.87786 0.66974 0.91737 0.0
Co61 Co 0.8638 0.63103 0.87967 0.0
O62 O 0.88853 0.65031 0.88382 0.0
C63 C 0.84894 0.61227 0.92652 0.0
C64 C 0.82422 0.68438 0.94296 0.0
C65 C 0.89165 0.66378 0.90244 0.0
O66 O 0.84759 0.63501 0.93463 0.0
O67 O 0.85357 0.60716 0.9047 0.0
O68 O 0.84707 0.69768 0.89527 0.0
O69 O 0.84531 0.65778 0.88579 0.0
Co70 Co 0.16344 0.33452 0.41704 0.0
O71 O 0.19136 0.33106 0.42223 0.0
O72 O 0.16862 0.3171 0.44724 0.0
C73 C 0.16408 0.32204 0.37797 0.0
O74 O 0.13323 0.3338 0.41738 0.0
Co75 Co 0.14697 0.37182 0.37875 0.0
O76 O 0.12213 0.35305 0.38394 0.0
C77 C 0.16276 0.39124 0.42488 0.0
C78 C 0.18719 0.31936 0.44209 0.0
C79 C 0.11923 0.33983 0.40278 0.0
O80 O 0.1638 0.36868 0.43351 0.0
O81 O 0.15804 0.39592 0.403 0.0
O82 O 0.16371 0.30534 0.3951 0.0
O83 O 0.1654 0.34508 0.38504 0.0
Co84 Co 0.84974 0.33691 0.08687 0.0
O85 O 0.82186 0.33201 0.0826 0.0
O86 O 0.84444 0.31974 0.05654 0.0
C87 C 0.85019 0.32417 0.12589 0.0
O88 O 0.87995 0.33742 0.08575 0.0
Co89 Co 0.86565 0.37501 0.12476 0.0
O90 O 0.89115 0.35838 0.11817 0.0
C91 C 0.84889 0.39376 0.07902 0.0
C92 C 0.82595 0.32085 0.06245 0.0
C93 C 0.8941 0.34479 0.09959 0.0
O94 O 0.84819 0.37112 0.07054 0.0
O95 O 0.85375 0.39872 0.10079 0.0
O96 O 0.85069 0.3076 0.10865 0.0
O97 O 0.84808 0.34717 0.11899 0.0
Co98 Co 0.16238 0.66734 0.58503 0.0
O99 O 0.19025 0.67102 0.57944 0.0
O100 O 0.16721 0.68525 0.55502 0.0
C101 C 0.16333 0.67916 0.62428 0.0
O102 O 0.13216 0.66805 0.58515 0.0
Co103 Co 0.1464 0.62919 0.62282 0.0
O104 O 0.12113 0.64685 0.6175 0.0
C105 C 0.16156 0.61072 0.57608 0.0
C106 C 0.18584 0.683 0.55982 0.0
C107 C 0.11812 0.6609 0.59925 0.0
O108 O 0.16263 0.63349 0.56797 0.0
O109 O 0.15705 0.60555 0.59792 0.0
O110 O 0.16279 0.69613 0.60741 0.0
O111 O 0.16467 0.65623 0.61687 0.0
Co112 Co 0.64286 0.84082 0.07642 0.0
O113 O 0.67089 0.83577 0.07415 0.0
O114 O 0.64876 0.80679 0.06537 0.0
C115 C 0.64275 0.87856 0.05728 0.0
O116 O 0.6126 0.83956 0.07557 0.0
Co117 Co 0.62554 0.88668 0.10424 0.0
O118 O 0.60118 0.87752 0.08693 0.0
C119 C 0.63973 0.84199 0.13126 0.0
C120 C 0.6672 0.81324 0.06634 0.0
C121 C 0.59846 0.85559 0.07817 0.0
O122 O 0.64321 0.82992 0.11152 0.0
O123 O 0.63383 0.8649 0.13185 0.0
O124 O 0.64289 0.85772 0.04501 0.0
O125 O 0.64419 0.87592 0.08029 0.0
Co126 Co 0.36723 0.15995 0.57477 0.0
O127 O 0.33929 0.16507 0.57133 0.0
O128 O 0.36166 0.19435 0.56464 0.0
C129 C 0.3679 0.12287 0.55449 0.0
O130 O 0.39743 0.16124 0.57544 0.0
Co131 Co 0.3837 0.11312 0.60189 0.0
O132 O 0.40845 0.12262 0.58543 0.0
C133 C 0.3663 0.1556 0.6293 0.0
C134 C 0.34321 0.1879 0.56455 0.0
C135 C 0.41139 0.14489 0.57761 0.0
O136 O 0.36565 0.16939 0.61017 0.0
O137 O 0.37143 0.13236 0.62908 0.0
O138 O 0.36821 0.14409 0.54282 0.0
O139 O 0.36581 0.12481 0.57747 0.0
Co140 Co 0.64424 0.16215 0.92954 0.0
O141 O 0.67199 0.16641 0.93502 0.0
O142 O 0.64994 0.1964 0.94041 0.0
C143 C 0.64218 0.12471 0.94907 0.0
O144 O 0.6141 0.16381 0.92698 0.0
Co145 Co 0.62941 0.11617 0.89975 0.0
O146 O 0.60357 0.12631 0.91306 0.0
C147 C 0.64822 0.15908 0.87506 0.0
C148 C 0.66821 0.18926 0.94178 0.0
C149 C 0.60021 0.14799 0.92211 0.0
O150 O 0.64737 0.17238 0.89449 0.0
O151 O 0.64367 0.13568 0.87426 0.0
O152 O 0.64167 0.1457 0.96111 0.0
O153 O 0.64545 0.1271 0.92634 0.0
Co154 Co 0.36835 0.83854 0.4278 0.0
O155 O 0.34025 0.83377 0.42944 0.0
O156 O 0.36208 0.80463 0.43877 0.0
C157 C 0.36827 0.87637 0.4468 0.0
O158 O 0.39856 0.83685 0.42935 0.0
Co159 Co 0.38694 0.8841 0.40082 0.0
O160 O 0.41036 0.87527 0.4202 0.0
C161 C 0.37274 0.83969 0.37317 0.0
C162 C 0.3437 0.81123 0.4374 0.0
C163 C 0.41272 0.85302 0.42829 0.0
O164 O 0.36852 0.82767 0.39272 0.0
O165 O 0.37911 0.86242 0.37291 0.0
O166 O 0.36788 0.85559 0.45916 0.0
O167 O 0.36736 0.87364 0.42377 0.0
Co168 Co 0.3491 0.1672 0.91783 0.0
O169 O 0.32128 0.17149 0.92332 0.0
O170 O 0.34442 0.18536 0.94778 0.0
C171 C 0.34837 0.17883 0.87851 0.0
O172 O 0.37934 0.16724 0.91768 0.0
Co173 Co 0.3644 0.12841 0.88014 0.0
O174 O 0.38992 0.1455 0.88541 0.0
C175 C 0.34852 0.11064 0.92673 0.0
C176 C 0.32577 0.18343 0.94292 0.0
C177 C 0.39321 0.15965 0.90352 0.0
O178 O 0.34833 0.1334 0.935 0.0
O179 O 0.35272 0.10536 0.90483 0.0
O180 O 0.34913 0.19591 0.89528 0.0
O181 O 0.34668 0.15601 0.88609 0.0
Co182 Co 0.66385 0.8341 0.41785 0.0
O183 O 0.69175 0.83065 0.42323 0.0
O184 O 0.6689 0.81656 0.44801 0.0
C185 C 0.66466 0.82182 0.37872 0.0
O186 O 0.63363 0.8333 0.41801 0.0
Co187 Co 0.64741 0.87153 0.37969 0.0
O188 O 0.62264 0.85252 0.38451 0.0
C189 C 0.6627 0.8908 0.42615 0.0
C190 C 0.6875 0.81888 0.44302 0.0
C191 C 0.61968 0.83925 0.4033 0.0
O192 O 0.66408 0.86815 0.4345 0.0
O193 O 0.6579 0.89564 0.40433 0.0
O194 O 0.66423 0.80504 0.39577 0.0
O195 O 0.66592 0.84484 0.38589 0.0
Co196 Co 0.34805 0.83525 0.08636 0.0
O197 O 0.32025 0.83 0.08169 0.0
O198 O 0.34316 0.81822 0.05586 0.0
C199 C 0.34834 0.82235 0.12532 0.0
O200 O 0.37826 0.83615 0.08562 0.0
Co201 Co 0.36336 0.87341 0.12457 0.0
O202 O 0.38906 0.85721 0.11818 0.0
C203 C 0.34691 0.89216 0.07869 0.0
C204 C 0.32462 0.81909 0.06149 0.0
C205 C 0.39226 0.8437 0.0996 0.0
O206 O 0.34637 0.86952 0.07018 0.0
O207 O 0.35159 0.89712 0.10052 0.0
O208 O 0.34908 0.80585 0.10802 0.0
O209 O 0.34608 0.84534 0.11849 0.0
Co210 Co 0.66301 0.16617 0.58673 0.0
O211 O 0.69091 0.17027 0.5815 0.0
O212 O 0.66794 0.1839 0.55666 0.0
C213 C 0.66322 0.17829 0.62592 0.0
O214 O 0.63278 0.16634 0.58645 0.0
Co215 Co 0.647 0.12796 0.62458 0.0
O216 O 0.62207 0.14662 0.61985 0.0
C217 C 0.66299 0.10948 0.57827 0.0
C218 C 0.68655 0.18201 0.56172 0.0
C219 C 0.61894 0.16002 0.60119 0.0
O220 O 0.66371 0.13218 0.56992 0.0
O221 O 0.65839 0.10439 0.6001 0.0
O222 O 0.66295 0.19515 0.60893 0.0
O223 O 0.66494 0.15535 0.61868 0.0
H224 H 0.06859 0.38787 0.07297 0.0
H225 H 0.03409 0.37674 0.07034 0.0
H226 H 0.04942 0.29805 0.06569 0.0
H227 H 0.08442 0.30908 0.06902 0.0
H228 H 0.01137 0.35247 0.03763 0.0
H229 H 0.0132 0.29893 0.12382 0.0
H230 H 0.03351 0.3182 0.11403 0.0
H231 H 0.02926 0.288 0.10037 0.0
C232 C 0.06478 0.36813 0.07125 0.0
C233 C 0.0794 0.34935 0.07159 0.0
C234 C 0.04493 0.36181 0.06963 0.0
C235 C 0.03903 0.33653 0.06827 0.0
C236 C 0.05356 0.31768 0.06725 0.0
H237 H 0.9088 0.32056 0.05921 0.0
H238 H 0.94348 0.31333 0.04896 0.0
C239 C 0.07359 0.32403 0.06894 0.0
C240 C 0.01761 0.33054 0.0693 0.0
H241 H 0.98241 0.30596 0.10642 0.0
C242 C 1.00502 0.34191 0.05243 0.0
C243 C 0.00931 0.3169 0.08872 0.0
C244 C 0.02193 0.30492 0.10791 0.0
C245 C 0.98446 0.34121 0.05513 0.0
C246 C 0.97618 0.32832 0.07502 0.0
C247 C 0.98874 0.31576 0.09114 0.0
C248 C 0.95495 0.3306 0.08137 0.0
C249 C 0.97187 0.35569 0.03756 0.0
C250 C 0.94976 0.34187 0.10331 0.0
C251 C 0.93009 0.34581 0.10928 0.0
C252 C 0.9149 0.33858 0.09347 0.0
C253 C 0.92005 0.32651 0.07177 0.0
C254 C 0.9399 0.32252 0.0658 0.0
H255 H 0.98074 0.36825 0.0258 0.0
H256 H 0.96383 0.34223 0.02588 0.0
H257 H 0.96087 0.36733 0.04727 0.0
H258 H 0.96103 0.34825 0.11567 0.0
H259 H 0.92685 0.35498 0.12624 0.0
H260 H 0.92816 0.69353 0.57053 0.0
H261 H 0.96305 0.70496 0.56668 0.0
H262 H 0.97889 0.62638 0.57029 0.0
H263 H 0.9445 0.61489 0.57358 0.0
H264 H 0.99175 0.69695 0.59935 0.0
H265 H 0.01289 0.64889 0.51536 0.0
H266 H 0.98753 0.65412 0.52347 0.0
H267 H 1.00068 0.62726 0.53509 0.0
C268 C 0.93907 0.67869 0.56994 0.0
C269 C 0.93344 0.65328 0.57241 0.0
C270 C 0.95902 0.68525 0.56783 0.0
C271 C 0.97366 0.66652 0.56781 0.0
C272 C 0.96795 0.64119 0.56961 0.0
H273 H 0.08593 0.65404 0.62782 0.0
H274 H 0.05162 0.6608 0.61788 0.0
C275 C 0.94817 0.63466 0.57175 0.0
C276 C 0.99498 0.67306 0.56824 0.0
H277 H 0.03919 0.65514 0.54457 0.0
C278 C 1.00209 0.68825 0.58703 0.0
C279 C 0.00859 0.66223 0.55193 0.0
C280 C 1.00198 0.64746 0.53019 0.0
C281 C 0.02236 0.69125 0.59104 0.0
C282 C 0.03595 0.67828 0.5762 0.0
C283 C 0.02886 0.66475 0.55627 0.0
C284 C 0.0572 0.67628 0.5825 0.0
C285 C 0.02899 0.70787 0.61152 0.0
C286 C 0.07201 0.68231 0.56578 0.0
C287 C 0.09191 0.67823 0.57137 0.0
C288 C 0.09735 0.66774 0.59369 0.0
C289 C 0.08243 0.66217 0.61045 0.0
C290 C 0.06269 0.66626 0.60489 0.0
H291 H 0.0182 0.72316 0.61496 0.0
H292 H 0.0301 0.69641 0.62818 0.0
H293 H 0.04354 0.71648 0.60781 0.0
H294 H 0.06816 0.68984 0.54828 0.0
H295 H 0.10294 0.68263 0.55797 0.0
H296 H 0.90952 0.67066 0.9464 0.0
H297 H 0.94487 0.67478 0.95414 0.0
H298 H 0.95582 0.67709 0.87766 0.0
H299 H 0.92078 0.67207 0.86992 0.0
H300 H 0.97757 0.64264 0.89767 0.0
H301 H 0.98541 0.72984 0.95161 0.0
H302 H 0.96825 0.70792 0.96437 0.0
H303 H 0.96311 0.72213 0.93563 0.0
C304 C 0.91945 0.67266 0.93128 0.0
C305 C 0.91235 0.67088 0.90755 0.0
C306 C 0.93969 0.67513 0.93572 0.0
C307 C 0.95314 0.67641 0.91649 0.0
C308 C 0.94584 0.67606 0.89283 0.0
H309 H 0.08122 0.69474 0.91697 0.0
H310 H 0.04569 0.70336 0.91663 0.0
C311 C 0.92576 0.6732 0.88842 0.0
C312 C 0.97481 0.67517 0.92062 0.0
H313 H 0.0135 0.70268 0.95006 0.0
C314 C 0.98536 0.65593 0.90902 0.0
C315 C 0.98516 0.69256 0.93528 0.0
C316 C 0.97495 0.71443 0.94725 0.0
C317 C 0.00575 0.65341 0.91176 0.0
C318 C 0.01601 0.67011 0.92717 0.0
C319 C 1.00561 0.68967 0.93852 0.0
C320 C 0.03749 0.66715 0.93149 0.0
C321 C 0.01617 0.633 0.89773 0.0
C322 C 0.04474 0.64452 0.94108 0.0
C323 C 0.06488 0.63949 0.94102 0.0
C324 C 0.07831 0.65719 0.93184 0.0
C325 C 0.07123 0.68079 0.92425 0.0
C326 C 0.05093 0.6857 0.92398 0.0
H327 H 0.00739 0.62669 0.88198 0.0
H328 H 0.03071 0.63958 0.89121 0.0
H329 H 0.01851 0.61644 0.90958 0.0
H330 H 0.03471 0.63015 0.94749 0.0
H331 H 0.0699 0.62123 0.94722 0.0
H332 H 0.08893 0.33369 0.37137 0.0
H333 H 0.05401 0.33008 0.38063 0.0
H334 H 0.06727 0.32859 0.45651 0.0
H335 H 0.10253 0.3316 0.4473 0.0
H336 H 0.03531 0.29651 0.44348 0.0
H337 H 0.02616 0.3927 0.40631 0.0
H338 H 0.03703 0.37117 0.38527 0.0
H339 H 0.04996 0.37928 0.41246 0.0
C340 C 0.08449 0.3322 0.39005 0.0
C341 C 0.09853 0.33329 0.40861 0.0
C342 C 0.06448 0.33021 0.39531 0.0
C343 C 0.05794 0.32972 0.41927 0.0
C344 C 0.07195 0.32912 0.43788 0.0
H345 H 0.94034 0.38215 0.45113 0.0
H346 H 0.97558 0.37389 0.45283 0.0
C347 C 0.09211 0.33081 0.43259 0.0
C348 C 0.03656 0.33193 0.42464 0.0
H349 H 0.99697 0.36995 0.41449 0.0
C350 C 0.02691 0.31262 0.43731 0.0
C351 C 0.02563 0.35316 0.41698 0.0
C352 C 0.03523 0.37538 0.40472 0.0
C353 C 0.00653 0.31372 0.44194 0.0
C354 C 0.99548 0.33448 0.4333 0.0
C355 C 1.0053 0.35393 0.42107 0.0
C356 C 0.97376 0.33689 0.43655 0.0
C357 C 0.99715 0.29284 0.45632 0.0
C358 C 0.96072 0.31845 0.42775 0.0
C359 C 0.94038 0.32297 0.42727 0.0
C360 C 0.93281 0.34623 0.43507 0.0
C361 C 0.94576 0.36406 0.44497 0.0
C362 C 0.96594 0.35938 0.44587 0.0
H363 H 0.0081 0.28296 0.46776 0.0
H364 H 0.98522 0.30016 0.46802 0.0
H365 H 0.99074 0.27879 0.44378 0.0
H366 H 0.9663 0.30118 0.41996 0.0
H367 H 0.93078 0.30905 0.41921 0.0
H368 H 0.42484 0.8554 0.12599 0.0
H369 H 0.45911 0.84874 0.11581 0.0
H370 H 0.44206 0.81139 0.05012 0.0
H371 H 0.4073 0.81852 0.05996 0.0
H372 H 0.48065 0.80625 0.1081 0.0
H373 H 0.47929 0.86566 0.02552 0.0
H374 H 0.4593 0.8654 0.04682 0.0
H375 H 0.46246 0.83958 0.02628 0.0
C376 C 0.42821 0.84571 0.10934 0.0
C377 C 0.41314 0.83773 0.0937 0.0
C378 C 0.44794 0.84183 0.10359 0.0
C379 C 0.45328 0.82986 0.08205 0.0
C380 C 0.43835 0.82111 0.06664 0.0
H381 H 0.58276 0.80799 0.07124 0.0
H382 H 0.54776 0.79695 0.06786 0.0
C383 C 0.41846 0.82506 0.07238 0.0
C384 C 0.47455 0.82747 0.07596 0.0
H385 H 0.5099 0.85038 0.03807 0.0
C386 C 0.48705 0.81553 0.09256 0.0
C387 C 0.48291 0.83968 0.05573 0.0
C388 C 0.47039 0.85348 0.0376 0.0
C389 C 0.50762 0.81662 0.09026 0.0
C390 C 0.51601 0.82958 0.07047 0.0
C391 C 0.50348 0.84033 0.05315 0.0
C392 C 0.53742 0.83551 0.06939 0.0
C393 C 0.52017 0.80535 0.10991 0.0
C394 C 0.54334 0.8608 0.07017 0.0
C395 C 0.56319 0.86712 0.07186 0.0
C396 C 0.57777 0.84831 0.07281 0.0
C397 C 0.57195 0.82294 0.07067 0.0
C398 C 0.55193 0.8166 0.06896 0.0
H399 H 0.51138 0.79988 0.12593 0.0
H400 H 0.52759 0.78822 0.10296 0.0
H401 H 0.53168 0.81889 0.11569 0.0
H402 H 0.53252 0.87577 0.07042 0.0
H403 H 0.56704 0.88688 0.07315 0.0
H404 H 0.58932 0.1671 0.6333 0.0
H405 H 0.55422 0.17051 0.62499 0.0
H406 H 0.566 0.1699 0.54872 0.0
H407 H 0.60145 0.16716 0.55697 0.0
H408 H 0.53429 0.20202 0.56156 0.0
H409 H 0.52596 0.10721 0.60208 0.0
H410 H 0.5371 0.12948 0.62219 0.0
H411 H 0.54964 0.1205 0.59497 0.0
C412 C 0.5845 0.16811 0.61472 0.0
C413 C 0.59817 0.16651 0.59578 0.0
C414 C 0.5644 0.16997 0.61 0.0
C415 C 0.5574 0.16977 0.58624 0.0
C416 C 0.57105 0.16989 0.56722 0.0
H417 H 0.43974 0.1156 0.55792 0.0
H418 H 0.47496 0.12392 0.55617 0.0
C419 C 0.5913 0.16837 0.57195 0.0
C420 C 0.53592 0.16733 0.58155 0.0
H421 H 0.4966 0.12958 0.59396 0.0
C422 C 0.52602 0.18612 0.56848 0.0
C423 C 0.52517 0.14636 0.59021 0.0
C424 C 0.53502 0.12461 0.60292 0.0
C425 C 0.50558 0.18477 0.56437 0.0
C426 C 0.49472 0.1643 0.57397 0.0
C427 C 0.50478 0.14538 0.58666 0.0
C428 C 0.47299 0.16154 0.57108 0.0
C429 C 0.49593 0.20503 0.54946 0.0
C430 C 0.45988 0.18022 0.57922 0.0
C431 C 0.43954 0.17563 0.57974 0.0
C432 C 0.43205 0.15208 0.57267 0.0
C433 C 0.4451 0.1339 0.56358 0.0
C434 C 0.46526 0.13863 0.56263 0.0
H435 H 0.5067 0.21459 0.53752 0.0
H436 H 0.48392 0.19718 0.5382 0.0
H437 H 0.48958 0.21947 0.56163 0.0
H438 H 0.46539 0.19783 0.58636 0.0
H439 H 0.42986 0.18987 0.58711 0.0
H440 H 0.5685 0.11668 0.92133 0.0
H441 H 0.53393 0.12748 0.92415 0.0
H442 H 0.54902 0.20554 0.93512 0.0
H443 H 0.58411 0.19488 0.93189 0.0
H444 H 0.51176 0.14965 0.96008 0.0
H445 H 0.51195 0.20821 0.87688 0.0
H446 H 0.53223 0.18792 0.88472 0.0
H447 H 0.52873 0.21718 0.90037 0.0
C448 C 0.56462 0.13621 0.9244 0.0
C449 C 0.57922 0.15495 0.92608 0.0
C450 C 0.54474 0.14233 0.92613 0.0
C451 C 0.53878 0.16735 0.92952 0.0
C452 C 0.55324 0.18613 0.93209 0.0
H453 H 0.40892 0.18299 0.94378 0.0
H454 H 0.44385 0.19003 0.95281 0.0
C455 C 0.5733 0.17998 0.9304 0.0
C456 C 0.51735 0.17326 0.92935 0.0
H457 H 0.48143 0.19974 0.89455 0.0
C458 C 0.50511 0.16099 0.94603 0.0
C459 C 0.50867 0.18792 0.9109 0.0
C460 C 0.52098 0.20098 0.89205 0.0
C461 C 0.4845 0.1619 0.94405 0.0
C462 C 0.47583 0.17584 0.92508 0.0
C463 C 0.48806 0.18916 0.90915 0.0
C464 C 0.45444 0.17395 0.91941 0.0
C465 C 0.47225 0.1466 0.96136 0.0
C466 C 0.44868 0.16345 0.89735 0.0
C467 C 0.42886 0.1596 0.89209 0.0
C468 C 0.41411 0.16616 0.90876 0.0
C469 C 0.41983 0.17758 0.93057 0.0
C470 C 0.43982 0.18146 0.93583 0.0
H471 H 0.48134 0.13353 0.97232 0.0
H472 H 0.46444 0.1595 0.97382 0.0
H473 H 0.46106 0.13542 0.95149 0.0
H474 H 0.45962 0.15754 0.88434 0.0
H475 H 0.42515 0.15095 0.87502 0.0
H476 H 0.43115 0.80818 0.41849 0.0
H477 H 0.46667 0.80027 0.41955 0.0
H478 H 0.47585 0.87319 0.45203 0.0
H479 H 0.44062 0.88147 0.45004 0.0
H480 H 0.49733 0.86893 0.41372 0.0
H481 H 0.50832 0.78243 0.46778 0.0
H482 H 0.49101 0.77811 0.44377 0.0
H483 H 0.48546 0.79967 0.46783 0.0
C484 C 0.44073 0.82214 0.42654 0.0
C485 C 0.43314 0.84546 0.43413 0.0
C486 C 0.46106 0.81759 0.4272 0.0
C487 C 0.47407 0.83608 0.43597 0.0
C488 C 0.46623 0.85863 0.4451 0.0
H489 H 0.60275 0.83121 0.44772 0.0
H490 H 0.56744 0.8281 0.45663 0.0
C491 C 0.44605 0.86334 0.44403 0.0
C492 C 0.4958 0.83365 0.43284 0.0
H493 H 0.53563 0.79586 0.44362 0.0
C494 C 0.50565 0.853 0.42049 0.0
C495 C 0.50684 0.813 0.44173 0.0
C496 C 0.49741 0.79224 0.45623 0.0
C497 C 0.52599 0.85223 0.41654 0.0
C498 C 0.53692 0.8311 0.42447 0.0
C499 C 0.52723 0.81189 0.43725 0.0
C500 C 0.55834 0.82891 0.4193 0.0
C501 C 0.53562 0.87435 0.40415 0.0
C502 C 0.56502 0.82924 0.3954 0.0
C503 C 0.58505 0.8313 0.3903 0.0
C504 C 0.59897 0.8326 0.40899 0.0
C505 C 0.59242 0.83025 0.43292 0.0
C506 C 0.57224 0.82851 0.43804 0.0
H507 H 0.52651 0.89167 0.40552 0.0
H508 H 0.55031 0.87836 0.41195 0.0
H509 H 0.53751 0.86995 0.38475 0.0
H510 H 0.55464 0.82895 0.38062 0.0
H511 H 0.58961 0.83268 0.37166 0.0
H512 H 0.12436 0.35694 0.17184 0.0
H513 H 0.13003 0.3401 0.21186 0.0
H514 H 0.16968 0.28464 0.18258 0.0
H515 H 0.16411 0.30172 0.14183 0.0
H516 H 0.12529 0.29056 0.2315 0.0
H517 H 0.20276 0.32475 0.23301 0.0
H518 H 0.18544 0.33571 0.21076 0.0
H519 H 0.19513 0.30435 0.20885 0.0
C520 C 0.13426 0.34108 0.17373 0.0
C521 C 0.14401 0.33091 0.15361 0.0
C522 C 0.13736 0.33135 0.19669 0.0
C523 C 0.15038 0.31127 0.20026 0.0
C524 C 0.15968 0.30032 0.18021 0.0
H525 H 0.15993 0.27534 0.35667 0.0
H526 H 0.15809 0.26616 0.31323 0.0
C527 C 0.15644 0.31 0.15697 0.0
C528 C 0.15482 0.30353 0.22538 0.0
H529 H 0.18865 0.31326 0.2698 0.0
C530 C 0.13931 0.29479 0.23985 0.0
C531 C 0.17308 0.30929 0.23618 0.0
C532 C 0.19011 0.31915 0.22156 0.0
C533 C 0.14117 0.29332 0.26502 0.0
C534 C 0.15905 0.3006 0.27594 0.0
C535 C 0.17498 0.30763 0.26133 0.0
C536 C 0.16051 0.30518 0.30225 0.0
C537 C 0.12356 0.2859 0.27992 0.0
C538 C 0.16262 0.33003 0.3104 0.0
C539 C 0.16365 0.33527 0.33495 0.0
C540 C 0.16267 0.31576 0.35203 0.0
C541 C 0.16065 0.29077 0.34393 0.0
C542 C 0.15957 0.28551 0.31916 0.0
H543 H 0.11023 0.28296 0.26873 0.0
H544 H 0.12678 0.26814 0.28969 0.0
H545 H 0.12038 0.30066 0.29355 0.0
H546 H 0.1633 0.3455 0.29768 0.0
H547 H 0.16525 0.35472 0.34051 0.0
H548 H 0.84669 0.69859 0.64293 0.0
H549 H 0.84096 0.71555 0.68368 0.0
H550 H 0.88462 0.66475 0.71209 0.0
H551 H 0.89035 0.64794 0.67204 0.0
H552 H 0.82803 0.68655 0.72319 0.0
H553 H 0.89909 0.73128 0.7446 0.0
H554 H 0.8915 0.72459 0.71407 0.0
H555 H 0.90252 0.70033 0.73231 0.0
C556 C 0.85528 0.69144 0.65785 0.0
C557 C 0.86888 0.67183 0.65428 0.0
C558 C 0.85199 0.7011 0.68108 0.0
C559 C 0.86259 0.69169 0.70088 0.0
C560 C 0.87657 0.67271 0.69708 0.0
H561 H 0.84346 0.6478 0.84125 0.0
H562 H 0.84526 0.65649 0.79829 0.0
C563 C 0.87967 0.66292 0.67413 0.0
C564 C 0.85797 0.69932 0.72598 0.0
H565 H 0.88065 0.71482 0.77883 0.0
C566 C 0.83936 0.69343 0.73525 0.0
C567 C 0.87264 0.70861 0.74173 0.0
C568 C 0.89249 0.71682 0.7326 0.0
C569 C 0.83561 0.6944 0.76011 0.0
C570 C 0.85094 0.70115 0.77608 0.0
C571 C 0.86897 0.70928 0.76663 0.0
C572 C 0.84935 0.69669 0.80242 0.0
C573 C 0.81551 0.68713 0.76915 0.0
C574 C 0.85161 0.71634 0.81916 0.0
C575 C 0.85063 0.71139 0.84398 0.0
C576 C 0.84766 0.68666 0.85235 0.0
C577 C 0.84568 0.66708 0.83547 0.0
C578 C 0.84655 0.67204 0.81084 0.0
H579 H 0.80406 0.69073 0.7553 0.0
H580 H 0.81534 0.66667 0.7733 0.0
H581 H 0.81164 0.69762 0.78579 0.0
H582 H 0.85403 0.73547 0.81303 0.0
H583 H 0.85228 0.72683 0.85657 0.0
H584 H 0.16571 0.69826 0.85974 0.0
H585 H 0.17143 0.7145 0.81872 0.0
H586 H 0.12654 0.66478 0.79145 0.0
H587 H 0.12081 0.64868 0.83176 0.0
H588 H 0.18332 0.68463 0.77914 0.0
H589 H 0.11294 0.73165 0.75882 0.0
H590 H 0.12083 0.72498 0.78925 0.0
H591 H 0.10908 0.70093 0.77145 0.0
C592 C 0.15688 0.69117 0.845 0.0
C593 C 0.1429 0.67208 0.84899 0.0
C594 C 0.16016 0.70042 0.82162 0.0
C595 C 0.14918 0.69113 0.80208 0.0
C596 C 0.13489 0.67264 0.80626 0.0
H597 H 0.1659 0.64612 0.66141 0.0
H598 H 0.16461 0.6549 0.70438 0.0
C599 C 0.13179 0.66325 0.82936 0.0
C600 C 0.15363 0.69843 0.77684 0.0
H601 H 0.13063 0.71446 0.72437 0.0
C602 C 0.17199 0.69184 0.76725 0.0
C603 C 0.13897 0.70815 0.76133 0.0
C604 C 0.11942 0.71709 0.77081 0.0
C605 C 0.17544 0.69256 0.74233 0.0
C606 C 0.16006 0.69977 0.72661 0.0
C607 C 0.14233 0.70856 0.73637 0.0
C608 C 0.16125 0.69521 0.70027 0.0
C609 C 0.19528 0.68456 0.73295 0.0
C610 C 0.15919 0.71491 0.68353 0.0
C611 C 0.15986 0.70991 0.65871 0.0
C612 C 0.16233 0.68509 0.65033 0.0
C613 C 0.16407 0.66547 0.6672 0.0
C614 C 0.1635 0.67048 0.69184 0.0
H615 H 0.20696 0.68782 0.74657 0.0
H616 H 0.19496 0.66409 0.72888 0.0
H617 H 0.19915 0.69486 0.7162 0.0
H618 H 0.15719 0.73411 0.68968 0.0
H619 H 0.15841 0.7254 0.64613 0.0
H620 H 0.85567 0.27754 0.14684 0.0
H621 H 0.85722 0.26798 0.19023 0.0
H622 H 0.8497 0.34686 0.2064 0.0
H623 H 0.8481 0.35647 0.16363 0.0
H624 H 0.88379 0.28726 0.22548 0.0
H625 H 0.80722 0.3127 0.24771 0.0
H626 H 0.81516 0.30619 0.21728 0.0
H627 H 0.81912 0.33681 0.23038 0.0
C628 C 0.85431 0.29278 0.15971 0.0
C629 C 0.85167 0.31774 0.1518 0.0
C630 C 0.85516 0.28729 0.18444 0.0
C631 C 0.85313 0.30665 0.20154 0.0
C632 C 0.8508 0.33154 0.19357 0.0
H633 H 0.89289 0.35149 0.33382 0.0
H634 H 0.88773 0.33543 0.29338 0.0
C635 C 0.85005 0.33702 0.16904 0.0
C636 C 0.85426 0.30159 0.2278 0.0
H637 H 0.83072 0.31563 0.28041 0.0
C638 C 0.87202 0.29283 0.23751 0.0
C639 C 0.83878 0.30835 0.24355 0.0
C640 C 0.81892 0.31628 0.23419 0.0
C641 C 0.87529 0.29288 0.26251 0.0
C642 C 0.86052 0.30221 0.27809 0.0
C643 C 0.84214 0.30873 0.2685 0.0
C644 C 0.86483 0.30921 0.30346 0.0
C645 C 0.89485 0.28394 0.27193 0.0
C646 C 0.85354 0.29996 0.32276 0.0
C647 C 0.85648 0.30921 0.34622 0.0
C648 C 0.87043 0.32825 0.35051 0.0
C649 C 0.88193 0.33694 0.33117 0.0
C650 C 0.87916 0.32756 0.30799 0.0
H651 H 0.90132 0.26943 0.25988 0.0
H652 H 0.90519 0.3001 0.27259 0.0
H653 H 0.89348 0.27597 0.29035 0.0
H654 H 0.84222 0.286 0.3196 0.0
H655 H 0.84734 0.30225 0.36072 0.0
H656 H 0.65938 0.77539 0.35732 0.0
H657 H 0.65767 0.76632 0.31385 0.0
H658 H 0.66533 0.84535 0.29844 0.0
H659 H 0.66708 0.85447 0.3413 0.0
H660 H 0.63082 0.786 0.27939 0.0
H661 H 0.70706 0.81171 0.25583 0.0
H662 H 0.69954 0.80489 0.28636 0.0
H663 H 0.69545 0.83566 0.27363 0.0
C664 C 0.66078 0.79075 0.3446 0.0
C665 C 0.66344 0.81563 0.35275 0.0
C666 C 0.65983 0.78555 0.31982 0.0
C667 C 0.66181 0.8051 0.3029 0.0
C668 C 0.66427 0.82989 0.31111 0.0
H669 H 0.62024 0.85246 0.17255 0.0
H670 H 0.62605 0.83561 0.21257 0.0
C671 C 0.66511 0.83509 0.33569 0.0
C672 C 0.66032 0.80037 0.27661 0.0
H673 H 0.68306 0.81526 0.22368 0.0
C674 C 0.64242 0.79176 0.26718 0.0
C675 C 0.67556 0.80738 0.26062 0.0
C676 C 0.69556 0.81517 0.26964 0.0
C677 C 0.63876 0.79222 0.24227 0.0
C678 C 0.65329 0.80181 0.2265 0.0
C679 C 0.67182 0.80816 0.23576 0.0
C680 C 0.64857 0.80932 0.20139 0.0
C681 C 0.61904 0.78348 0.23316 0.0
C682 C 0.6594 0.80028 0.18162 0.0
C683 C 0.65606 0.80997 0.15841 0.0
C684 C 0.64218 0.82925 0.15484 0.0
C685 C 0.63113 0.83774 0.17465 0.0
C686 C 0.63429 0.82791 0.19758 0.0
H687 H 0.6127 0.76883 0.24516 0.0
H688 H 0.60874 0.79968 0.2329 0.0
H689 H 0.62014 0.77575 0.21462 0.0
H690 H 0.67067 0.78613 0.18422 0.0
H691 H 0.66485 0.80315 0.14352 0.0
H692 H 0.35494 0.22452 0.8561 0.0
H693 H 0.35583 0.23267 0.81237 0.0
H694 H 0.34495 0.15392 0.79874 0.0
H695 H 0.34415 0.14565 0.84182 0.0
H696 H 0.38139 0.20607 0.77545 0.0
H697 H 0.30155 0.19384 0.76032 0.0
H698 H 0.31177 0.20189 0.78937 0.0
H699 H 0.31221 0.16979 0.77897 0.0
C700 C 0.35275 0.20901 0.84372 0.0
C701 C 0.3494 0.18447 0.85242 0.0
C702 C 0.35326 0.21368 0.81881 0.0
C703 C 0.35016 0.19394 0.80239 0.0
C704 C 0.34708 0.16948 0.81111 0.0
H705 H 0.35435 0.13038 0.66918 0.0
H706 H 0.34932 0.14678 0.70958 0.0
C707 C 0.34671 0.16479 0.83579 0.0
C708 C 0.35042 0.19809 0.77599 0.0
H709 H 0.32257 0.18663 0.72608 0.0
C710 C 0.36845 0.20264 0.76454 0.0
C711 C 0.33349 0.19366 0.76187 0.0
C712 C 0.3136 0.18975 0.77324 0.0
C713 C 0.37029 0.20065 0.73937 0.0
C714 C 0.35363 0.19416 0.72544 0.0
C715 C 0.33533 0.19159 0.73678 0.0
C716 C 0.35553 0.1855 0.70015 0.0
C717 C 0.39029 0.20345 0.72799 0.0
C718 C 0.3603 0.20197 0.68121 0.0
C719 C 0.36312 0.1926 0.65778 0.0
C720 C 0.36139 0.16661 0.65313 0.0
C721 C 0.35602 0.15045 0.67211 0.0
C722 C 0.35306 0.1598 0.69526 0.0
H723 H 0.40196 0.20715 0.74153 0.0
H724 H 0.39411 0.18607 0.71788 0.0
H725 H 0.39005 0.2193 0.71497 0.0
H726 H 0.3621 0.22194 0.68461 0.0
H727 H 0.36726 0.20551 0.64356 0.0
H728 H 0.66961 0.13864 0.83891 0.0
H729 H 0.67339 0.15458 0.79792 0.0
H730 H 0.64137 0.22174 0.81707 0.0
H731 H 0.63787 0.20599 0.8586 0.0
H732 H 0.62624 0.19048 0.77608 0.0
H733 H 0.70509 0.21499 0.76713 0.0
H734 H 0.70043 0.18589 0.78272 0.0
H735 H 0.69236 0.21512 0.79572 0.0
C736 C 0.66383 0.15711 0.83458 0.0
C737 C 0.65348 0.17111 0.85192 0.0
C738 C 0.66605 0.16623 0.81118 0.0
C739 C 0.65777 0.1894 0.80451 0.0
C740 C 0.64803 0.20392 0.82197 0.0
H741 H 0.66479 0.22466 0.64818 0.0
H742 H 0.66222 0.23328 0.6917 0.0
C743 C 0.64612 0.19498 0.84565 0.0
C744 C 0.65745 0.19648 0.77868 0.0
H745 H 0.68786 0.20513 0.73046 0.0
C746 C 0.63961 0.19441 0.76616 0.0
C747 C 0.6749 0.20157 0.76577 0.0
C748 C 0.69429 0.20476 0.77851 0.0
C749 C 0.63904 0.19544 0.74089 0.0
C750 C 0.65671 0.19868 0.72791 0.0
C751 C 0.67433 0.20262 0.74048 0.0
C752 C 0.65758 0.19431 0.70158 0.0
C753 C 0.61971 0.19169 0.72813 0.0
C754 C 0.65591 0.16962 0.69289 0.0
C755 C 0.65758 0.16465 0.66833 0.0
C756 C 0.66081 0.1843 0.65181 0.0
C757 C 0.66222 0.20916 0.66047 0.0
C758 C 0.66079 0.2141 0.68526 0.0
H759 H 0.60703 0.19522 0.74028 0.0
H760 H 0.61858 0.20435 0.71226 0.0
H761 H 0.61877 0.17196 0.7216 0.0
H762 H 0.65361 0.15408 0.70523 0.0
H763 H 0.65646 0.14529 0.66234 0.0
H764 H 0.35433 0.77576 0.14617 0.0
H765 H 0.35619 0.76618 0.18954 0.0
H766 H 0.34792 0.8449 0.20585 0.0
H767 H 0.34599 0.85452 0.16311 0.0
H768 H 0.38273 0.78561 0.22444 0.0
H769 H 0.30625 0.8103 0.24776 0.0
H770 H 0.31395 0.80401 0.2172 0.0
H771 H 0.31779 0.83464 0.23036 0.0
C772 C 0.35286 0.79095 0.15907 0.0
C773 C 0.34992 0.81587 0.15121 0.0
C774 C 0.35389 0.78545 0.18379 0.0
C775 C 0.35174 0.80476 0.20092 0.0
C776 C 0.3491 0.82961 0.193 0.0
H777 H 0.39276 0.85035 0.33227 0.0
H778 H 0.38724 0.83399 0.29202 0.0
C779 C 0.34816 0.8351 0.16849 0.0
C780 C 0.35315 0.79971 0.22717 0.0
H781 H 0.33009 0.81375 0.2801 0.0
C782 C 0.37105 0.79113 0.23663 0.0
C783 C 0.33779 0.80638 0.24314 0.0
C784 C 0.31779 0.81409 0.23408 0.0
C785 C 0.37458 0.79129 0.26157 0.0
C786 C 0.35993 0.80058 0.27735 0.0
C787 C 0.34142 0.80689 0.26803 0.0
C788 C 0.36449 0.80776 0.3026 0.0
C789 C 0.39428 0.78252 0.27071 0.0
C790 C 0.35341 0.79863 0.32213 0.0
C791 C 0.35655 0.80806 0.34547 0.0
C792 C 0.3705 0.82718 0.34943 0.0
C793 C 0.3818 0.83576 0.32987 0.0
C794 C 0.37882 0.8262 0.30681 0.0
H795 H 0.40065 0.76795 0.25865 0.0
H796 H 0.40458 0.79873 0.27107 0.0
H797 H 0.39315 0.77468 0.2892 0.0
H798 H 0.34209 0.78461 0.31922 0.0
H799 H 0.34756 0.80118 0.36015 0.0
H800 H 0.28609 0.17738 0.93899 0.0
H801 H 0.26022 0.19776 0.96253 0.0
H802 H 0.30404 0.23586 0.0051 0.0
H803 H 0.33014 0.21545 0.98156 0.0
H804 H 0.25324 0.19733 0.01426 0.0
H805 H 0.2682 0.29321 0.97824 0.0
H806 H 0.27725 0.26501 0.96381 0.0
H807 H 0.28892 0.27664 0.99058 0.0
C808 C 0.29028 0.19001 0.95343 0.0
C809 C 0.31023 0.19486 0.9583 0.0
C810 C 0.27544 0.20161 0.9669 0.0
C811 C 0.28015 0.21856 0.98541 0.0
C812 C 0.30004 0.22309 0.9907 0.0
H813 H 0.20817 0.32 0.07145 0.0
H814 H 0.23493 0.29553 0.05384 0.0
C815 C 0.31495 0.21132 0.9773 0.0
C816 C 0.26417 0.23175 0.99877 0.0
H817 H 0.24351 0.28969 0.00772 0.0
C818 C 0.25111 0.21754 0.01289 0.0
C819 C 0.26137 0.2581 0.99696 0.0
C820 C 0.27454 0.27422 0.98146 0.0
C821 C 0.23552 0.22899 0.02551 0.0
C822 C 0.23255 0.25535 0.02347 0.0
C823 C 0.2457 0.26952 0.00937 0.0
C824 C 0.21602 0.26878 0.03574 0.0
C825 C 0.2227 0.21278 0.04134 0.0
C826 C 0.19631 0.26187 0.03175 0.0
C827 C 0.18089 0.27574 0.0421 0.0
C828 C 0.18484 0.29706 0.05635 0.0
C829 C 0.20456 0.30369 0.06059 0.0
C830 C 0.21992 0.28972 0.05045 0.0
H831 H 0.23033 0.19515 0.04675 0.0
H832 H 0.21816 0.22303 0.05786 0.0
H833 H 0.20928 0.20739 0.03123 0.0
H834 H 0.1928 0.24622 0.02001 0.0
H835 H 0.16589 0.2703 0.03823 0.0
H836 H 0.80461 0.68175 0.5698 0.0
H837 H 0.77833 0.70647 0.55123 0.0
H838 H 0.82123 0.75762 0.52177 0.0
H839 H 0.84771 0.73295 0.54037 0.0
H840 H 0.76853 0.76014 0.55507 0.0
H841 H 0.78954 0.73075 0.46247 0.0
H842 H 0.79798 0.71429 0.48897 0.0
H843 H 0.80884 0.74387 0.48068 0.0
C844 C 0.80849 0.69841 0.55958 0.0
C845 C 0.82831 0.70529 0.55649 0.0
C846 C 0.79341 0.71253 0.54898 0.0
C847 C 0.79779 0.73371 0.53485 0.0
C848 C 0.81751 0.74116 0.53236 0.0
H849 H 0.72697 0.82689 0.43962 0.0
H850 H 0.75322 0.80755 0.4632 0.0
C851 C 0.83263 0.72712 0.54312 0.0
C852 C 0.78174 0.74737 0.52207 0.0
H853 H 0.76338 0.75952 0.466 0.0
C854 C 0.76739 0.76007 0.53559 0.0
C855 C 0.78023 0.7472 0.49667 0.0
C856 C 0.79484 0.73317 0.48125 0.0
C857 C 0.75178 0.77299 0.52438 0.0
C858 C 0.75015 0.77263 0.49893 0.0
C859 C 0.76455 0.75988 0.48547 0.0
C860 C 0.73381 0.78546 0.48573 0.0
C861 C 0.73749 0.78739 0.53993 0.0
C862 C 0.71401 0.77966 0.49045 0.0
C863 C 0.69887 0.79097 0.47709 0.0
C864 C 0.70324 0.80802 0.45844 0.0
C865 C 0.72305 0.81385 0.45383 0.0
C866 C 0.73812 0.80275 0.46731 0.0
H867 H 0.74397 0.79211 0.55773 0.0
H868 H 0.73275 0.80512 0.53105 0.0
H869 H 0.7243 0.77558 0.54316 0.0
H870 H 0.71023 0.76592 0.5041 0.0
H871 H 0.68379 0.78587 0.48095 0.0
H872 H 0.32431 0.8122 0.01242 0.0
H873 H 0.29769 0.79446 0.98784 0.0
H874 H 0.26402 0.78035 0.0523 0.0
H875 H 0.28984 0.79963 0.07647 0.0
H876 H 0.28226 0.75196 0.983 0.0
H877 H 0.22207 0.8122 0.0154 0.0
H878 H 0.24729 0.8184 0.02321 0.0
H879 H 0.23285 0.79635 0.04056 0.0
C880 C 0.31111 0.80552 0.02123 0.0
C881 C 0.30904 0.80762 0.04632 0.0
C882 C 0.29587 0.79535 0.00719 0.0
C883 C 0.2784 0.78665 0.018 0.0
C884 C 0.27679 0.78791 0.04322 0.0
H885 H 0.2023 0.67305 0.95732 0.0
H886 H 0.22869 0.69782 0.97498 0.0
C887 C 0.29172 0.7987 0.05712 0.0
C888 C 0.26224 0.77525 0.0032 0.0
H889 H 0.21224 0.77273 0.99738 0.0
C890 C 0.26698 0.75684 0.98595 0.0
C891 C 0.24219 0.78191 0.00627 0.0
C892 C 0.23586 0.80352 0.02216 0.0
C893 C 0.25238 0.74427 0.9726 0.0
C894 C 0.23225 0.74918 0.97743 0.0
C895 C 0.22755 0.76838 0.99389 0.0
C896 C 0.21593 0.73412 0.96634 0.0
C897 C 0.25887 0.72621 0.95317 0.0
C898 C 0.19917 0.74596 0.9566 0.0
C899 C 0.18356 0.73164 0.94724 0.0
C900 C 0.18454 0.70519 0.94703 0.0
C901 C 0.20125 0.69341 0.95674 0.0
C902 C 0.21653 0.70764 0.96666 0.0
H903 H 0.2732 0.73205 0.94539 0.0
H904 H 0.26091 0.7072 0.96109 0.0
H905 H 0.24796 0.725 0.93835 0.0
H906 H 0.19813 0.76632 0.95625 0.0
H907 H 0.17082 0.74124 0.94 0.0
H908 H 0.72627 0.17621 0.56595 0.0
H909 H 0.75215 0.19647 0.54228 0.0
H910 H 0.70833 0.23385 0.49916 0.0
H911 H 0.68225 0.21355 0.52278 0.0
H912 H 0.75896 0.19553 0.49013 0.0
H913 H 0.74418 0.29159 0.52583 0.0
H914 H 0.73532 0.26346 0.54056 0.0
H915 H 0.7234 0.27481 0.51386 0.0
C916 C 0.72209 0.18865 0.55137 0.0
C917 C 0.70214 0.19333 0.54635 0.0
C918 C 0.73693 0.20019 0.53782 0.0
C919 C 0.73222 0.21689 0.5191 0.0
C920 C 0.71233 0.22126 0.5137 0.0
H921 H 0.80409 0.31806 0.43238 0.0
H922 H 0.77727 0.29376 0.45014 0.0
C923 C 0.69743 0.20955 0.52715 0.0
C924 C 0.74816 0.23001 0.50561 0.0
H925 H 0.76877 0.28791 0.49625 0.0
C926 C 0.76111 0.21573 0.49141 0.0
C927 C 0.75096 0.25636 0.50728 0.0
C928 C 0.73786 0.27254 0.52282 0.0
C929 C 0.77661 0.22714 0.47858 0.0
C930 C 0.77961 0.25351 0.4805 0.0
C931 C 0.76655 0.26774 0.49468 0.0
C932 C 0.79613 0.26686 0.46812 0.0
C933 C 0.7893 0.21086 0.46265 0.0
C934 C 0.81581 0.25982 0.472 0.0
C935 C 0.83125 0.27357 0.46156 0.0
C936 C 0.82735 0.29492 0.44733 0.0
C937 C 0.80765 0.3017 0.4432 0.0
C938 C 0.79226 0.28784 0.45343 0.0
H939 H 0.78157 0.19329 0.45729 0.0
H940 H 0.79381 0.22109 0.44611 0.0
H941 H 0.80273 0.20536 0.47268 0.0
H942 H 0.81931 0.24415 0.48372 0.0
H943 H 0.84624 0.26801 0.46535 0.0
H944 H 0.66439 0.76977 0.03958 0.0
H945 H 0.6913 0.74586 0.02116 0.0
H946 H 0.7334 0.79572 0.0543 0.0
H947 H 0.70663 0.82001 0.07213 0.0
H948 H 0.74157 0.78973 0.008 0.0
H949 H 0.72937 0.69532 0.0478 0.0
H950 H 0.70811 0.70727 0.03253 0.0
H951 H 0.71716 0.72316 0.05894 0.0
C952 C 0.67939 0.77537 0.04325 0.0
C953 C 0.68333 0.79679 0.05738 0.0
C954 C 0.69481 0.7616 0.03279 0.0
C955 C 0.7145 0.76871 0.03653 0.0
C956 C 0.7184 0.78976 0.05112 0.0
H957 H 0.82851 0.71643 0.98153 0.0
H958 H 0.80238 0.73655 0.00521 0.0
C959 C 0.70304 0.80362 0.06138 0.0
C960 C 0.731 0.75539 0.02413 0.0
H961 H 0.752 0.69754 0.01502 0.0
C962 C 0.74392 0.7696 0.00975 0.0
C963 C 0.73416 0.72908 0.0263 0.0
C964 C 0.72159 0.71284 0.04241 0.0
C965 C 0.75955 0.75826 0.99721 0.0
C966 C 0.76254 0.73197 0.99916 0.0
C967 C 0.74971 0.7177 0.01355 0.0
C968 C 0.77853 0.71889 0.98574 0.0
C969 C 0.77247 0.77442 0.98143 0.0
C970 C 0.77386 0.70183 0.96731 0.0
C971 C 0.78873 0.69038 0.95374 0.0
C972 C 0.80865 0.69553 0.95846 0.0
C973 C 0.81333 0.71208 0.9774 0.0
C974 C 0.79841 0.72368 0.99088 0.0
H975 H 0.76597 0.79332 0.97816 0.0
H976 H 0.78692 0.77707 0.99034 0.0
H977 H 0.77509 0.76511 0.96381 0.0
H978 H 0.75865 0.69777 0.96307 0.0
H979 H 0.78457 0.67768 0.93936 0.0
H980 H 0.34684 0.2323 0.53941 0.0
H981 H 0.32037 0.25731 0.52112 0.0
H982 H 0.27739 0.20627 0.5506 0.0
H983 H 0.30363 0.1812 0.56875 0.0
H984 H 0.29158 0.23655 0.48716 0.0
H985 H 0.25631 0.27785 0.56828 0.0
H986 H 0.28124 0.26616 0.56841 0.0
H987 H 0.26099 0.24452 0.56945 0.0
C988 C 0.33174 0.22665 0.54232 0.0
C989 C 0.32737 0.20477 0.55558 0.0
C990 C 0.31663 0.24091 0.5318 0.0
C991 C 0.29687 0.2338 0.53467 0.0
C992 C 0.29248 0.21235 0.54842 0.0
H993 H 0.1837 0.28574 0.47957 0.0
H994 H 0.21035 0.26538 0.50215 0.0
C995 C 0.30754 0.19797 0.55872 0.0
C996 C 0.2809 0.24769 0.52201 0.0
H997 H 0.23936 0.28263 0.53125 0.0
C998 C 0.28025 0.24682 0.49677 0.0
C999 C 0.26596 0.26074 0.53458 0.0
C1000 C 0.26613 0.26262 0.56168 0.0
C1001 C 0.2649 0.25822 0.48377 0.0
C1002 C 0.25003 0.27161 0.4963 0.0
C1003 C 0.25072 0.27248 0.52159 0.0
C1004 C 0.23376 0.28486 0.48343 0.0
C1005 C 0.26445 0.25504 0.45677 0.0
C1006 C 0.23792 0.30312 0.46584 0.0
C1007 C 0.22276 0.31455 0.4528 0.0
C1008 C 0.203 0.30838 0.4573 0.0
C1009 C 0.19875 0.2909 0.47562 0.0
C1010 C 0.21399 0.27924 0.48854 0.0
H1011 H 0.273 0.23827 0.45096 0.0
H1012 H 0.24917 0.25305 0.45005 0.0
H1013 H 0.27115 0.27185 0.44817 0.0
H1014 H 0.25296 0.30842 0.46203 0.0
H1015 H 0.22657 0.32815 0.43902 0.0
H1016 H 0.79104 0.30268 0.07836 0.0
H1017 H 0.76503 0.28247 0.05517 0.0
H1018 H 0.79829 0.29404 0.98992 0.0
H1019 H 0.82507 0.31271 0.01354 0.0
H1020 H 0.74124 0.29692 0.0236 0.0
H1021 H 0.78597 0.22276 0.97996 0.0
H1022 H 0.7958 0.24286 0.00312 0.0
H1023 H 0.79439 0.25374 0.9724 0.0
C1024 C 0.79288 0.30075 0.05907 0.0
C1025 C 0.81018 0.30909 0.04779 0.0
C1026 C 0.77793 0.28922 0.04576 0.0
C1027 C 0.77965 0.28617 0.02069 0.0
C1028 C 0.79675 0.29523 0.00928 0.0
H1029 H 0.67119 0.24113 0.94235 0.0
H1030 H 0.69815 0.26646 0.95912 0.0
C1031 C 0.81202 0.30614 0.02275 0.0
C1032 C 0.76336 0.27376 0.00687 0.0
H1033 H 0.75318 0.22684 0.96655 0.0
C1034 C 0.7439 0.2815 0.0112 0.0
C1035 C 0.76661 0.25345 0.99075 0.0
C1036 C 0.78679 0.24253 0.98646 0.0
C1037 C 0.72773 0.26925 1.00055 0.0
C1038 C 0.73101 0.24938 0.98395 0.0
C1039 C 0.7505 0.24211 0.97911 0.0
C1040 C 0.71462 0.23451 0.97278 0.0
C1041 C 0.70735 0.27703 0.00825 0.0
C1042 C 0.7151 0.20804 0.97374 0.0
C1043 C 0.70014 0.19365 0.96337 0.0
C1044 C 0.684 0.20524 0.95215 0.0
C1045 C 0.68334 0.23169 0.95113 0.0
C1046 C 0.69869 0.24617 0.96095 0.0
H1047 H 0.70751 0.28673 0.02598 0.0
H1048 H 0.70125 0.29042 0.99486 0.0
H1049 H 0.69738 0.26053 0.00955 0.0
H1050 H 0.72705 0.19839 0.98274 0.0
H1051 H 0.70105 0.1733 0.96458 0.0
H1052 H 0.2255 0.6765 0.56364 0.0
H1053 H 0.25145 0.6966 0.53999 0.0
H1054 H 0.20777 0.73507 0.49752 0.0
H1055 H 0.18161 0.71494 0.52115 0.0
H1056 H 0.25823 0.69609 0.48812 0.0
H1057 H 0.24403 0.79209 0.52434 0.0
H1058 H 0.23488 0.76396 0.53881 0.0
H1059 H 0.22316 0.7757 0.51213 0.0
C1060 C 0.22136 0.68914 0.5492 0.0
C1061 C 0.20144 0.69419 0.54438 0.0
C1062 C 0.23624 0.70059 0.53566 0.0
C1063 C 0.23159 0.71756 0.51715 0.0
C1064 C 0.21172 0.72228 0.51192 0.0
H1065 H 0.30433 0.81833 0.43111 0.0
H1066 H 0.2773 0.79424 0.44865 0.0
C1067 C 0.19678 0.71067 0.52537 0.0
C1068 C 0.24761 0.7306 0.50373 0.0
H1069 H 0.26863 0.78833 0.49477 0.0
C1070 C 0.26051 0.71627 0.48951 0.0
C1071 C 0.25058 0.75692 0.50556 0.0
C1072 C 0.23756 0.77315 0.52115 0.0
C1073 C 0.27612 0.72758 0.47683 0.0
C1074 C 0.27929 0.7539 0.47891 0.0
C1075 C 0.26628 0.76819 0.49309 0.0
C1076 C 0.29593 0.76713 0.46669 0.0
C1077 C 0.28878 0.71125 0.4609 0.0
C1078 C 0.31556 0.75991 0.4707 0.0
C1079 C 0.33112 0.77354 0.4604 0.0
C1080 C 0.3274 0.79495 0.44618 0.0
C1081 C 0.30776 0.80192 0.44193 0.0
C1082 C 0.29225 0.78819 0.45203 0.0
H1083 H 0.28097 0.69378 0.45543 0.0
H1084 H 0.29339 0.72152 0.44442 0.0
H1085 H 0.30215 0.7056 0.47096 0.0
H1086 H 0.31891 0.74417 0.48241 0.0
H1087 H 0.34606 0.76784 0.46428 0.0
H1088 H 0.13953 0.57976 0.92579 0.0
H1089 H 0.13797 0.53828 0.94465 0.0
H1090 H 0.13947 0.57293 0.01486 0.0
H1091 H 0.14078 0.61475 0.99603 0.0
H1092 H 0.16588 0.51737 0.97487 0.0
H1093 H 0.0935 0.52344 0.02064 0.0
H1094 H 0.10089 0.54522 0.99736 0.0
H1095 H 0.11013 0.54874 0.02748 0.0
C1096 C 0.13932 0.57863 0.94526 0.0
C1097 C 0.14025 0.60056 0.95944 0.0
C1098 C 0.13845 0.55487 0.956 0.0
C1099 C 0.1384 0.55249 0.98115 0.0
C1100 C 0.13912 0.57435 0.99542 0.0
H1101 H 0.14352 0.42477 0.07805 0.0
H1102 H 0.1417 0.46645 0.0595 0.0
C1103 C 0.13997 0.59821 0.98465 0.0
C1104 C 0.13862 0.52702 0.99222 0.0
H1105 H 0.11306 0.48758 0.0294 0.0
C1106 C 0.15429 0.51081 0.98671 0.0
C1107 C 0.1235 0.51852 0.00769 0.0
C1108 C 0.10594 0.53476 0.01353 0.0
C1109 C 0.15542 0.48647 0.99652 0.0
C1110 C 0.14027 0.47793 0.01194 0.0
C1111 C 0.12461 0.49415 0.01751 0.0
C1112 C 0.14071 0.45244 0.02295 0.0
C1113 C 0.17306 0.47034 0.99076 0.0
C1114 C 0.14042 0.43066 0.00856 0.0
C1115 C 0.14149 0.40673 0.01913 0.0
C1116 C 0.14277 0.40421 0.04427 0.0
C1117 C 0.14261 0.42605 0.05862 0.0
C1118 C 0.14154 0.44991 0.04806 0.0
H1119 H 0.18546 0.48172 0.98363 0.0
H1120 H 0.17816 0.45999 0.00698 0.0
H1121 H 0.16896 0.45627 0.97685 0.0
H1122 H 0.13941 0.43217 0.98916 0.0
H1123 H 0.14147 0.39026 0.00762 0.0
H1124 H 0.86967 0.57741 0.5789 0.0
H1125 H 0.87124 0.53573 0.56033 0.0
H1126 H 0.87238 0.56993 0.48992 0.0
H1127 H 0.8706 0.61187 0.50842 0.0
H1128 H 0.84491 0.53083 0.4945 0.0
H1129 H 0.91795 0.50075 0.52823 0.0
H1130 H 0.90152 0.51149 0.55135 0.0
H1131 H 0.90998 0.5332 0.52876 0.0
C1132 C 0.87042 0.57611 0.55946 0.0
C1133 C 0.87006 0.59795 0.54511 0.0
C1134 C 0.87144 0.55225 0.54888 0.0
C1135 C 0.87224 0.54972 0.52376 0.0
C1136 C 0.87191 0.57148 0.50936 0.0
H1137 H 0.87022 0.42214 0.42577 0.0
H1138 H 0.87168 0.46389 0.44416 0.0
C1139 C 0.87092 0.59541 0.51994 0.0
C1140 C 0.87241 0.52431 0.51256 0.0
H1141 H 0.89818 0.4691 0.50994 0.0
C1142 C 0.85663 0.51739 0.49772 0.0
C1143 C 0.88765 0.50674 0.51694 0.0
C1144 C 0.90533 0.51343 0.53201 0.0
C1145 C 0.85547 0.49324 0.48748 0.0
C1146 C 0.8707 0.47566 0.49184 0.0
C1147 C 0.8865 0.48257 0.50667 0.0
C1148 C 0.8706 0.45017 0.48082 0.0
C1149 C 0.83769 0.48655 0.47254 0.0
C1150 C 0.87019 0.42849 0.49533 0.0
C1151 C 0.86949 0.40448 0.48484 0.0
C1152 C 0.86929 0.4018 0.45966 0.0
C1153 C 0.8702 0.42355 0.44523 0.0
C1154 C 0.87093 0.44746 0.4557 0.0
H1155 H 0.82514 0.49937 0.47625 0.0
H1156 H 0.84145 0.48827 0.45317 0.0
H1157 H 0.83295 0.46686 0.47599 0.0
H1158 H 0.87006 0.43017 0.51477 0.0
H1159 H 0.86886 0.38808 0.49643 0.0
H1160 H 0.84341 0.44276 0.09224 0.0
H1161 H 0.84015 0.4795 0.06638 0.0
H1162 H 0.84254 0.43184 0.00359 0.0
H1163 H 0.84566 0.39457 0.02949 0.0
H1164 H 0.86792 0.49482 0.03304 0.0
H1165 H 0.79569 0.47836 0.98927 0.0
H1166 H 0.8033 0.46172 0.01607 0.0
H1167 H 0.81272 0.45259 0.98714 0.0
C1168 C 0.84304 0.4399 0.07294 0.0
C1169 C 0.84491 0.4156 0.06297 0.0
C1170 C 0.84116 0.46102 0.05818 0.0
C1171 C 0.841 0.45845 0.03308 0.0
C1172 C 0.84232 0.43423 0.02295 0.0
H1173 H 0.84651 0.56246 0.91451 0.0
H1174 H 0.84363 0.52634 0.94124 0.0
C1175 C 0.84416 0.41294 0.03777 0.0
C1176 C 0.8408 0.4814 0.01776 0.0
H1177 H 0.81472 0.5125 0.97443 0.0
C1178 C 0.85622 0.49877 0.02032 0.0
C1179 C 0.82554 0.48649 1.00119 0.0
C1180 C 0.80826 0.46895 0.99831 0.0
C1181 C 0.85703 0.52086 0.00644 0.0
C1182 C 0.84178 0.52597 0.98984 0.0
C1183 C 0.82631 0.50863 0.9873 0.0
C1184 C 0.8423 0.54842 0.97389 0.0
C1185 C 0.8745 0.53814 0.00912 0.0
C1186 C 0.84209 0.573 0.98334 0.0
C1187 C 0.84378 0.59392 0.96804 0.0
C1188 C 0.8457 0.59057 0.94301 0.0
C1189 C 0.84525 0.56588 0.93368 0.0
C1190 C 0.84352 0.5451 0.94893 0.0
H1191 H 0.88689 0.52879 0.0186 0.0
H1192 H 0.87975 0.54471 0.99126 0.0
H1193 H 0.87014 0.55492 0.01977 0.0
H1194 H 0.84081 0.57599 0.00257 0.0
H1195 H 0.84397 0.61262 0.97585 0.0
H1196 H 0.16883 0.43995 0.41119 0.0
H1197 H 0.17195 0.47703 0.43664 0.0
H1198 H 0.16761 0.43037 0.49998 0.0
H1199 H 0.16471 0.39276 0.47448 0.0
H1200 H 0.14406 0.49383 0.46847 0.0
H1201 H 0.21455 0.47567 0.51562 0.0
H1202 H 0.20725 0.45858 0.48897 0.0
H1203 H 0.19696 0.45054 0.51776 0.0
C1204 C 0.16872 0.43739 0.43054 0.0
C1205 C 0.16641 0.41328 0.44077 0.0
C1206 C 0.17053 0.4587 0.44506 0.0
C1207 C 0.17014 0.45651 0.47019 0.0
C1208 C 0.1683 0.43246 0.4806 0.0
H1209 H 0.163 0.56082 0.58792 0.0
H1210 H 0.16612 0.52478 0.56119 0.0
C1211 C 0.16656 0.41099 0.46601 0.0
C1212 C 0.17036 0.47967 0.48521 0.0
H1213 H 0.19559 0.51033 0.52957 0.0
C1214 C 0.1554 0.49754 0.48172 0.0
C1215 C 0.18517 0.48446 0.50247 0.0
C1216 C 0.20201 0.46644 0.50635 0.0
C1217 C 0.15458 0.51977 0.49538 0.0
C1218 C 0.16932 0.52452 0.51274 0.0
C1219 C 0.18437 0.50674 0.51614 0.0
C1220 C 0.16861 0.54696 0.52869 0.0
C1221 C 0.13755 0.53757 0.49167 0.0
C1222 C 0.16938 0.57157 0.51935 0.0
C1223 C 0.16751 0.59246 0.53466 0.0
C1224 C 0.16491 0.58905 0.55959 0.0
C1225 C 0.16482 0.56431 0.56883 0.0
C1226 C 0.16667 0.54357 0.55358 0.0
H1227 H 0.12533 0.52855 0.4816 0.0
H1228 H 0.13181 0.54443 0.5092 0.0
H1229 H 0.14261 0.55414 0.48118 0.0
H1230 H 0.17123 0.57461 0.5002 0.0
H1231 H 0.16777 0.6112 0.52693 0.0
H1232 H 0.6387 0.11352 0.9971 0.0
H1233 H 0.63728 0.07149 0.01553 0.0
H1234 H 0.6387 0.03748 0.94504 0.0
H1235 H 0.64043 0.07918 0.92658 0.0
H1236 H 0.61041 0.03151 0.00986 0.0
H1237 H 0.68498 0.00398 0.97924 0.0
H1238 H 0.67638 0.03614 0.97839 0.0
H1239 H 0.66909 0.01421 0.95537 0.0
C1240 C 0.63862 0.09707 0.98556 0.0
C1241 C 0.63986 0.09965 0.96041 0.0
C1242 C 0.63781 0.07309 0.9961 0.0
C1243 C 0.63828 0.05136 0.98166 0.0
C1244 C 0.63879 0.05397 0.95654 0.0
H1245 H 0.64073 0.88986 0.00922 0.0
H1246 H 0.6384 0.93179 0.99081 0.0
C1247 C 0.63967 0.07785 0.94602 0.0
C1248 C 0.63846 0.02591 0.99277 0.0
H1249 H 0.66541 0.97174 0.99657 0.0
C1250 C 0.62246 0.01847 0.00706 0.0
C1251 C 0.65421 0.00891 0.98908 0.0
C1252 C 0.67223 0.01623 0.97488 0.0
C1253 C 0.62163 0.9943 0.01738 0.0
C1254 C 0.63733 0.97729 0.01357 0.0
C1255 C 0.65332 0.98475 0.99932 0.0
C1256 C 0.63777 0.95187 0.02472 0.0
C1257 C 0.60378 0.98699 0.0319 0.0
C1258 C 0.63831 0.94929 0.04984 0.0
C1259 C 0.63968 0.92543 0.06037 0.0
C1260 C 0.64061 0.90366 0.04596 0.0
C1261 C 0.63997 0.90626 0.02079 0.0
C1262 C 0.63866 0.93018 0.01026 0.0
H1263 H 0.59103 0.99938 0.02791 0.0
H1264 H 0.59953 0.96714 0.02833 0.0
H1265 H 0.60723 0.98879 0.05135 0.0
H1266 H 0.63805 0.96578 0.06134 0.0
H1267 H 0.64023 0.92408 0.07981 0.0
H1268 H 0.37097 0.92163 0.42395 0.0
H1269 H 0.37306 0.9635 0.44201 0.0
H1270 H 0.37152 0.93032 0.51287 0.0
H1271 H 0.3697 0.88817 0.49486 0.0
H1272 H 0.34596 0.98607 0.47202 0.0
H1273 H 0.41835 0.97833 0.5174 0.0
H1274 H 0.41035 0.95629 0.49465 0.0
H1275 H 0.40135 0.9537 0.52499 0.0
C1276 C 0.37125 0.92318 0.44339 0.0
C1277 C 0.37022 0.90157 0.458 0.0
C1278 C 0.37242 0.94715 0.45368 0.0
C1279 C 0.37269 0.95005 0.47877 0.0
C1280 C 0.37174 0.92851 0.49345 0.0
H1281 H 0.36877 0.0768 0.57603 0.0
H1282 H 0.37052 0.0355 0.55677 0.0
C1283 C 0.37059 0.90445 0.48315 0.0
C1284 C 0.37304 0.97572 0.48944 0.0
H1285 H 0.39922 0.01456 0.52656 0.0
C1286 C 0.35767 0.99236 0.48382 0.0
C1287 C 0.38833 0.98389 0.50483 0.0
C1288 C 0.40564 0.96723 0.51069 0.0
C1289 C 0.35693 0.01676 0.4936 0.0
C1290 C 0.37217 0.02489 0.50909 0.0
C1291 C 0.38759 0.0083 0.51462 0.0
C1292 C 0.37193 0.05019 0.52049 0.0
C1293 C 0.33956 0.03335 0.48782 0.0
C1294 C 0.37251 0.07225 0.50649 0.0
C1295 C 0.37149 0.09599 0.51748 0.0
C1296 C 0.36996 0.09802 0.54264 0.0
C1297 C 0.36988 0.0759 0.55659 0.0
C1298 C 0.3709 0.05225 0.54563 0.0
H1299 H 0.32708 0.02237 0.48033 0.0
H1300 H 0.33443 0.04352 0.50413 0.0
H1301 H 0.34398 0.04757 0.47421 0.0
H1302 H 0.37366 0.0711 0.48708 0.0
H1303 H 0.37169 0.11269 0.50627 0.0
H1304 H 0.34267 0.9415 0.09161 0.0
H1305 H 0.33943 0.97801 0.06552 0.0
H1306 H 0.33894 0.9296 0.00318 0.0
H1307 H 0.34252 0.89256 0.02931 0.0
H1308 H 0.36566 0.96895 0.99984 0.0
H1309 H 0.29303 0.00572 0.02799 0.0
H1310 H 0.30941 1.00041 0.05279 0.0
H1311 H 0.3011 0.97415 0.03501 0.0
C1312 C 0.34165 0.93842 0.07237 0.0
C1313 C 0.34293 0.91396 0.06259 0.0
C1314 C 0.33962 0.95942 0.05747 0.0
C1315 C 0.33864 0.95656 0.03242 0.0
C1316 C 0.33952 0.9322 0.02252 0.0
H1317 H 0.34086 0.06207 0.9139 0.0
H1318 H 0.33759 0.02545 0.93991 0.0
C1319 C 0.34152 0.91106 0.03747 0.0
C1320 C 0.33833 0.9792 0.0167 0.0
H1321 H 0.31334 0.03382 0.0053 0.0
C1322 C 0.35411 0.98299 1.00085 0.0
C1323 C 0.32337 0.99767 0.01825 0.0
C1324 C 0.30567 0.99422 0.03427 0.0
C1325 C 0.35553 0.00493 0.98684 0.0
C1326 C 0.34061 0.02343 0.98844 0.0
C1327 C 0.3248 0.01967 0.00423 0.0
C1328 C 0.34094 0.04629 0.97308 0.0
C1329 C 0.37322 0.00838 0.97079 0.0
C1330 C 0.34311 0.07042 0.98317 0.0
C1331 C 0.34493 0.09167 0.96827 0.0
C1332 C 0.34459 0.08902 0.94306 0.0
C1333 C 0.34152 0.06487 0.9332 0.0
C1334 C 0.33966 0.04381 0.94804 0.0
H1335 H 0.38553 0.99582 0.97611 0.0
H1336 H 0.36911 0.00376 0.95196 0.0
H1337 H 0.37845 0.0282 0.97122 0.0
H1338 H 0.34398 0.07271 0.00253 0.0
H1339 H 0.34721 0.10996 0.97645 0.0
H1340 H 0.6637 0.10841 0.52859 0.0
H1341 H 0.66641 0.07097 0.50273 0.0
H1342 H 0.67366 0.02416 0.56553 0.0
H1343 H 0.67081 0.06103 0.59135 0.0
H1344 H 0.69628 0.03264 0.49856 0.0
H1345 H 0.62554 0.99364 0.53156 0.0
H1346 H 0.63268 0.02599 0.53649 0.0
H1347 H 0.64274 0.00132 0.55494 0.0
C1348 C 0.66606 0.09018 0.53685 0.0
C1349 C 0.66674 0.08772 0.56207 0.0
C1350 C 0.66758 0.06881 0.52207 0.0
C1351 C 0.66979 0.04474 0.53228 0.0
C1352 C 0.67148 0.04246 0.55731 0.0
H1353 H 0.66851 0.89104 0.47534 0.0
H1354 H 0.67216 0.92799 0.50157 0.0
C1355 C 0.66989 0.06365 0.57204 0.0
C1356 C 0.66981 0.02178 0.51701 0.0
H1357 H 0.64481 0.96695 0.50688 0.0
C1358 C 0.685 0.01831 0.50028 0.0
C1359 C 0.65512 0.00305 0.51941 0.0
C1360 C 0.63799 0.0062 0.53641 0.0
C1361 C 0.68605 0.9964 0.48609 0.0
C1362 C 0.67132 0.97771 0.48844 0.0
C1363 C 0.65618 0.98117 0.50526 0.0
C1364 C 0.67057 0.9552 0.4726 0.0
C1365 C 0.70307 0.99331 0.46894 0.0
C1366 C 0.6684 0.95824 0.44769 0.0
C1367 C 0.6663 0.93729 0.43273 0.0
C1368 C 0.66617 0.9127 0.44232 0.0
C1369 C 0.6686 0.90964 0.46731 0.0
C1370 C 0.67067 0.93074 0.48233 0.0
H1371 H 0.71582 0.00508 0.47437 0.0
H1372 H 0.70784 0.97333 0.46792 0.0
H1373 H 0.69845 0.99937 0.45068 0.0
H1374 H 0.66783 0.9769 0.43982 0.0
H1375 H 0.66446 0.94051 0.41361 0.0
loop_
_geom_bond_atom_site_label_1
_geom_bond_atom_site_label_2
_geom_bond_distance
_geom_bond_site_symmetry_2
_ccdc_geom_bond_type
Co0 O1 2.216 . S
Co0 O2 2.091 . S
Co0 O4 2.004 . S
Co0 O10 2.021 . S
Co0 O12 2.137 . S
Co0 O13 2.244 . S
O1 Co0 2.216 . S
O1 C8 1.247 . S
O2 Co0 2.091 . S
O2 C8 1.261 . S
C3 O12 1.247 . S
C3 O13 1.272 . S
O4 Co0 2.004 . S
O4 C9 1.259 . S
Co5 O6 2.061 . S
Co5 O11 2.052 . S
Co5 O13 2.135 . S
O6 Co5 2.061 . S
O6 C9 1.235 . S
C7 O10 1.238 . S
C7 O11 1.241 . S
C8 O1 1.247 . S
C8 O2 1.261 . S
C9 O4 1.259 . S
C9 O6 1.235 . S
O10 Co0 2.021 . S
O10 C7 1.238 . S
O11 Co5 2.052 . S
O11 C7 1.241 . S
O12 Co0 2.137 . S
O12 C3 1.247 . S
O13 Co0 2.244 . S
O13 C3 1.272 . S
O13 Co5 2.135 . S
Co14 O15 2.216 . S
Co14 O16 2.091 . S
Co14 O18 2.004 . S
Co14 O24 2.021 . S
Co14 O26 2.137 . S
Co14 O27 2.244 . S
O15 Co14 2.216 . S
O15 C22 1.247 . S
O16 Co14 2.091 . S
O16 C22 1.261 . S
C17 O26 1.247 . S
C17 O27 1.272 . S
O18 Co14 2.004 . S
O18 C23 1.259 . S
Co19 O20 2.061 . S
Co19 O25 2.052 . S
Co19 O27 2.135 . S
O20 Co19 2.061 . S
O20 C23 1.235 . S
C21 O24 1.238 . S
C21 O25 1.241 . S
C22 O15 1.247 . S
C22 O16 1.261 . S
C23 O18 1.259 . S
C23 O20 1.235 . S
O24 Co14 2.021 . S
O24 C21 1.238 . S
O25 Co19 2.052 . S
O25 C21 1.241 . S
O26 Co14 2.137 . S
O26 C17 1.247 . S
O27 Co14 2.244 . S
O27 C17 1.272 . S
O27 Co19 2.135 . S
Co28 O29 2.216 . S
Co28 O30 2.091 . S
Co28 O32 2.004 . S
Co28 O38 2.021 . S
Co28 O40 2.137 . S
Co28 O41 2.244 . S
O29 Co28 2.216 . S
O29 C36 1.247 . S
O30 Co28 2.091 . S
O30 C36 1.261 . S
C31 O40 1.247 . S
C31 O41 1.272 . S
O32 Co28 2.004 . S
O32 C37 1.259 . S
Co33 O34 2.061 . S
Co33 O39 2.052 . S
Co33 O41 2.135 . S
O34 Co33 2.061 . S
O34 C37 1.235 . S
C35 O38 1.238 . S
C35 O39 1.241 . S
C36 O29 1.247 . S
C36 O30 1.261 . S
C37 O32 1.259 . S
C37 O34 1.235 . S
O38 Co28 2.021 . S
O38 C35 1.238 . S
O39 Co33 2.052 . S
O39 C35 1.241 . S
O40 Co28 2.137 . S
O40 C31 1.247 . S
O41 Co28 2.244 . S
O41 C31 1.272 . S
O41 Co33 2.135 . S
Co42 O43 2.216 . S
Co42 O44 2.091 . S
Co42 O46 2.004 . S
Co42 O52 2.021 . S
Co42 O54 2.137 . S
Co42 O55 2.244 . S
O43 Co42 2.216 . S
O43 C50 1.247 . S
O44 Co42 2.091 . S
O44 C50 1.261 . S
C45 O54 1.247 . S
C45 O55 1.272 . S
O46 Co42 2.004 . S
O46 C51 1.259 . S
Co47 O48 2.061 . S
Co47 O53 2.052 . S
Co47 O55 2.135 . S
O48 Co47 2.061 . S
O48 C51 1.235 . S
C49 O52 1.238 . S
C49 O53 1.241 . S
C50 O43 1.247 . S
C50 O44 1.261 . S
C51 O46 1.259 . S
C51 O48 1.235 . S
O52 Co42 2.021 . S
O52 C49 1.238 . S
O53 Co47 2.052 . S
O53 C49 1.241 . S
O54 Co42 2.137 . S
O54 C45 1.247 . S
O55 Co42 2.244 . S
O55 C45 1.272 . S
O55 Co47 2.135 . S
Co56 O57 2.216 . S
Co56 O58 2.091 . S
Co56 O60 2.004 . S
Co56 O66 2.021 . S
Co56 O68 2.137 . S
Co56 O69 2.244 . S
O57 Co56 2.216 . S
O57 C64 1.247 . S
O58 Co56 2.091 . S
O58 C64 1.261 . S
C59 O68 1.247 . S
C59 O69 1.272 . S
O60 Co56 2.004 . S
O60 C65 1.259 . S
Co61 O62 2.061 . S
Co61 O67 2.052 . S
Co61 O69 2.135 . S
O62 Co61 2.061 . S
O62 C65 1.235 . S
C63 O66 1.238 . S
C63 O67 1.241 . S
C64 O57 1.247 . S
C64 O58 1.261 . S
C65 O60 1.259 . S
C65 O62 1.235 . S
O66 Co56 2.021 . S
O66 C63 1.238 . S
O67 Co61 2.052 . S
O67 C63 1.241 . S
O68 Co56 2.137 . S
O68 C59 1.247 . S
O69 Co56 2.244 . S
O69 C59 1.272 . S
O69 Co61 2.135 . S
Co70 O71 2.216 . S
Co70 O72 2.091 . S
Co70 O74 2.004 . S
Co70 O80 2.021 . S
Co70 O82 2.137 . S
Co70 O83 2.244 . S
O71 Co70 2.216 . S
O71 C78 1.247 . S
O72 Co70 2.091 . S
O72 C78 1.261 . S
C73 O82 1.247 . S
C73 O83 1.272 . S
O74 Co70 2.004 . S
O74 C79 1.259 . S
Co75 O76 2.061 . S
Co75 O81 2.052 . S
Co75 O83 2.135 . S
O76 Co75 2.061 . S
O76 C79 1.235 . S
C77 O80 1.238 . S
C77 O81 1.241 . S
C78 O71 1.247 . S
C78 O72 1.261 . S
C79 O74 1.259 . S
C79 O76 1.235 . S
O80 Co70 2.021 . S
O80 C77 1.238 . S
O81 Co75 2.052 . S
O81 C77 1.241 . S
O82 Co70 2.137 . S
O82 C73 1.247 . S
O83 Co70 2.244 . S
O83 C73 1.272 . S
O83 Co75 2.135 . S
Co84 O85 2.216 . S
Co84 O86 2.091 . S
Co84 O88 2.004 . S
Co84 O94 2.021 . S
Co84 O96 2.137 . S
Co84 O97 2.244 . S
O85 Co84 2.216 . S
O85 C92 1.247 . S
O86 Co84 2.091 . S
O86 C92 1.261 . S
C87 O96 1.247 . S
C87 O97 1.272 . S
O88 Co84 2.004 . S
O88 C93 1.259 . S
Co89 O90 2.061 . S
Co89 O95 2.052 . S
Co89 O97 2.135 . S
O90 Co89 2.061 . S
O90 C93 1.235 . S
C91 O94 1.238 . S
C91 O95 1.241 . S
C92 O85 1.247 . S
C92 O86 1.261 . S
C93 O88 1.259 . S
C93 O90 1.235 . S
O94 Co84 2.021 . S
O94 C91 1.238 . S
O95 Co89 2.052 . S
O95 C91 1.241 . S
O96 Co84 2.137 . S
O96 C87 1.247 . S
O97 Co84 2.244 . S
O97 C87 1.272 . S
O97 Co89 2.135 . S
Co98 O99 2.216 . S
Co98 O100 2.091 . S
Co98 O102 2.004 . S
Co98 O108 2.021 . S
Co98 O110 2.137 . S
Co98 O111 2.244 . S
O99 Co98 2.216 . S
O99 C106 1.247 . S
O100 Co98 2.091 . S
O100 C106 1.261 . S
C101 O110 1.247 . S
C101 O111 1.272 . S
O102 Co98 2.004 . S
O102 C107 1.259 . S
Co103 O104 2.061 . S
Co103 O109 2.052 . S
Co103 O111 2.135 . S
O104 Co103 2.061 . S
O104 C107 1.235 . S
C105 O108 1.238 . S
C105 O109 1.241 . S
C106 O99 1.247 . S
C106 O100 1.261 . S
C107 O102 1.259 . S
C107 O104 1.235 . S
O108 Co98 2.021 . S
O108 C105 1.238 . S
O109 Co103 2.052 . S
O109 C105 1.241 . S
O110 Co98 2.137 . S
O110 C101 1.247 . S
O111 Co98 2.244 . S
O111 C101 1.272 . S
O111 Co103 2.135 . S
Co112 O113 2.216 . S
Co112 O114 2.091 . S
Co112 O116 2.004 . S
Co112 O122 2.021 . S
Co112 O124 2.137 . S
Co112 O125 2.244 . S
O113 Co112 2.216 . S
O113 C120 1.247 . S
O114 Co112 2.091 . S
O114 C120 1.261 . S
C115 O124 1.247 . S
C115 O125 1.272 . S
O116 Co112 2.004 . S
O116 C121 1.259 . S
Co117 O118 2.061 . S
Co117 O123 2.052 . S
Co117 O125 2.135 . S
O118 Co117 2.061 . S
O118 C121 1.235 . S
C119 O122 1.238 . S
C119 O123 1.241 . S
C120 O113 1.247 . S
C120 O114 1.261 . S
C121 O116 1.259 . S
C121 O118 1.235 . S
O122 Co112 2.021 . S
O122 C119 1.238 . S
O123 Co117 2.052 . S
O123 C119 1.241 . S
O124 Co112 2.137 . S
O124 C115 1.247 . S
O125 Co112 2.244 . S
O125 C115 1.272 . S
O125 Co117 2.135 . S
Co126 O127 2.216 . S
Co126 O128 2.091 . S
Co126 O130 2.004 . S
Co126 O136 2.021 . S
Co126 O138 2.137 . S
Co126 O139 2.244 . S
O127 Co126 2.216 . S
O127 C134 1.247 . S
O128 Co126 2.091 . S
O128 C134 1.261 . S
C129 O138 1.247 . S
C129 O139 1.272 . S
O130 Co126 2.004 . S
O130 C135 1.259 . S
Co131 O132 2.061 . S
Co131 O137 2.052 . S
Co131 O139 2.135 . S
O132 Co131 2.061 . S
O132 C135 1.235 . S
C133 O136 1.238 . S
C133 O137 1.241 . S
C134 O127 1.247 . S
C134 O128 1.261 . S
C135 O130 1.259 . S
C135 O132 1.235 . S
O136 Co126 2.021 . S
O136 C133 1.238 . S
O137 Co131 2.052 . S
O137 C133 1.241 . S
O138 Co126 2.137 . S
O138 C129 1.247 . S
O139 Co126 2.244 . S
O139 C129 1.272 . S
O139 Co131 2.135 . S
Co140 O141 2.216 . S
Co140 O142 2.091 . S
Co140 O144 2.004 . S
Co140 O150 2.021 . S
Co140 O152 2.137 . S
Co140 O153 2.244 . S
O141 Co140 2.216 . S
O141 C148 1.247 . S
O142 Co140 2.091 . S
O142 C148 1.261 . S
C143 O152 1.247 . S
C143 O153 1.272 . S
O144 Co140 2.004 . S
O144 C149 1.259 . S
Co145 O146 2.061 . S
Co145 O151 2.052 . S
Co145 O153 2.135 . S
O146 Co145 2.061 . S
O146 C149 1.235 . S
C147 O150 1.238 . S
C147 O151 1.241 . S
C148 O141 1.247 . S
C148 O142 1.261 . S
C149 O144 1.259 . S
C149 O146 1.235 . S
O150 Co140 2.021 . S
O150 C147 1.238 . S
O151 Co145 2.052 . S
O151 C147 1.241 . S
O152 Co140 2.137 . S
O152 C143 1.247 . S
O153 Co140 2.244 . S
O153 C143 1.272 . S
O153 Co145 2.135 . S
Co154 O155 2.216 . S
Co154 O156 2.091 . S
Co154 O158 2.004 . S
Co154 O164 2.021 . S
Co154 O166 2.137 . S
Co154 O167 2.244 . S
O155 Co154 2.216 . S
O155 C162 1.247 . S
O156 Co154 2.091 . S
O156 C162 1.261 . S
C157 O166 1.247 . S
C157 O167 1.272 . S
O158 Co154 2.004 . S
O158 C163 1.259 . S
Co159 O160 2.061 . S
Co159 O165 2.052 . S
Co159 O167 2.135 . S
O160 Co159 2.061 . S
O160 C163 1.235 . S
C161 O164 1.238 . S
C161 O165 1.241 . S
C162 O155 1.247 . S
C162 O156 1.261 . S
C163 O158 1.259 . S
C163 O160 1.235 . S
O164 Co154 2.021 . S
O164 C161 1.238 . S
O165 Co159 2.052 . S
O165 C161 1.241 . S
O166 Co154 2.137 . S
O166 C157 1.247 . S
O167 Co154 2.244 . S
O167 C157 1.272 . S
O167 Co159 2.135 . S
Co168 O169 2.216 . S
Co168 O170 2.091 . S
Co168 O172 2.004 . S
Co168 O178 2.021 . S
Co168 O180 2.137 . S
Co168 O181 2.244 . S
O169 Co168 2.216 . S
O169 C176 1.247 . S
O170 Co168 2.091 . S
O170 C176 1.261 . S
C171 O180 1.247 . S
C171 O181 1.272 . S
O172 Co168 2.004 . S
O172 C177 1.259 . S
Co173 O174 2.061 . S
Co173 O179 2.052 . S
Co173 O181 2.135 . S
O174 Co173 2.061 . S
O174 C177 1.235 . S
C175 O178 1.238 . S
C175 O179 1.241 . S
C176 O169 1.247 . S
C176 O170 1.261 . S
C177 O172 1.259 . S
C177 O174 1.235 . S
O178 Co168 2.021 . S
O178 C175 1.238 . S
O179 Co173 2.052 . S
O179 C175 1.241 . S
O180 Co168 2.137 . S
O180 C171 1.247 . S
O181 Co168 2.244 . S
O181 C171 1.272 . S
O181 Co173 2.135 . S
Co182 O183 2.216 . S
Co182 O184 2.091 . S
Co182 O186 2.004 . S
Co182 O192 2.021 . S
Co182 O194 2.137 . S
Co182 O195 2.244 . S
O183 Co182 2.216 . S
O183 C190 1.247 . S
O184 Co182 2.091 . S
O184 C190 1.261 . S
C185 O194 1.247 . S
C185 O195 1.272 . S
O186 Co182 2.004 . S
O186 C191 1.259 . S
Co187 O188 2.061 . S
Co187 O193 2.052 . S
Co187 O195 2.135 . S
O188 Co187 2.061 . S
O188 C191 1.235 . S
C189 O192 1.238 . S
C189 O193 1.241 . S
C190 O183 1.247 . S
C190 O184 1.261 . S
C191 O186 1.259 . S
C191 O188 1.235 . S
O192 Co182 2.021 . S
O192 C189 1.238 . S
O193 Co187 2.052 . S
O193 C189 1.241 . S
O194 Co182 2.137 . S
O194 C185 1.247 . S
O195 Co182 2.244 . S
O195 C185 1.272 . S
O195 Co187 2.135 . S
Co196 O197 2.216 . S
Co196 O198 2.091 . S
Co196 O200 2.004 . S
Co196 O206 2.021 . S
Co196 O208 2.137 . S
Co196 O209 2.244 . S
O197 Co196 2.216 . S
O197 C204 1.247 . S
O198 Co196 2.091 . S
O198 C204 1.261 . S
C199 O208 1.247 . S
C199 O209 1.272 . S
O200 Co196 2.004 . S
O200 C205 1.259 . S
Co201 O202 2.061 . S
Co201 O207 2.052 . S
Co201 O209 2.135 . S
O202 Co201 2.061 . S
O202 C205 1.235 . S
C203 O206 1.238 . S
C203 O207 1.241 . S
C204 O197 1.247 . S
C204 O198 1.261 . S
C205 O200 1.259 . S
C205 O202 1.235 . S
O206 Co196 2.021 . S
O206 C203 1.238 . S
O207 Co201 2.052 . S
O207 C203 1.241 . S
O208 Co196 2.137 . S
O208 C199 1.247 . S
O209 Co196 2.244 . S
O209 C199 1.272 . S
O209 Co201 2.135 . S
Co210 O211 2.216 . S
Co210 O212 2.091 . S
Co210 O214 2.004 . S
Co210 O220 2.021 . S
Co210 O222 2.137 . S
Co210 O223 2.244 . S
O211 Co210 2.216 . S
O211 C218 1.247 . S
O212 Co210 2.091 . S
O212 C218 1.261 . S
C213 O222 1.247 . S
C213 O223 1.272 . S
O214 Co210 2.004 . S
O214 C219 1.259 . S
Co215 O216 2.061 . S
Co215 O221 2.052 . S
Co215 O223 2.135 . S
O216 Co215 2.061 . S
O216 C219 1.235 . S
C217 O220 1.238 . S
C217 O221 1.241 . S
C218 O211 1.247 . S
C218 O212 1.261 . S
C219 O214 1.259 . S
C219 O216 1.235 . S
O220 Co210 2.021 . S
O220 C217 1.238 . S
O221 Co215 2.052 . S
O221 C217 1.241 . S
O222 Co210 2.137 . S
O222 C213 1.247 . S
O223 Co210 2.244 . S
O223 C213 1.272 . S
O223 Co215 2.135 . S
H224 C232 0.929 . S
H225 C234 0.930 . S
H226 C236 0.930 . S
H227 C239 0.929 . S
H228 C242 0.930 . S
H229 C244 0.960 . S
H230 C244 0.960 . S
H231 C244 0.960 . S
C232 H224 0.929 . S
C232 C233 1.377 . S
C232 C234 1.384 . S
C233 C232 1.377 . S
C233 C239 1.390 . S
C234 H225 0.930 . S
C234 C232 1.384 . S
C234 C235 1.372 . S
C235 C234 1.372 . S
C235 C236 1.400 . S
C235 C240 1.490 . S
C236 H226 0.930 . S
C236 C235 1.400 . S
C236 C239 1.386 . S
H237 C253 0.930 . S
H238 C254 0.931 . S
C239 H227 0.929 . S
C239 C233 1.390 . S
C239 C236 1.386 . S
C240 C235 1.490 . S
C240 C242 1.395 . S
C240 C243 1.403 . S
H241 C247 0.930 . S
C242 H228 0.930 . S
C242 C240 1.395 . S
C242 C245 1.403 1_455 S
C243 C240 1.403 . S
C243 C244 1.524 . S
C243 C247 1.400 1_455 S
C244 H229 0.960 . S
C244 H230 0.960 . S
C244 H231 0.960 . S
C244 C243 1.524 . S
C245 C242 1.403 1_655 S
C245 C246 1.392 . S
C245 C249 1.495 . S
C246 C245 1.392 . S
C246 C247 1.385 . S
C246 C248 1.478 . S
C247 H241 0.930 . S
C247 C243 1.400 1_655 S
C247 C246 1.385 . S
C248 C246 1.478 . S
C248 C250 1.381 . S
C248 C254 1.383 . S
C249 C245 1.495 . S
C249 H255 0.959 . S
C249 H256 0.961 . S
C249 H257 0.960 . S
C250 C248 1.381 . S
C250 C251 1.394 . S
C250 H258 0.930 . S
C251 C250 1.394 . S
C251 C252 1.383 . S
C251 H259 0.929 . S
C252 C251 1.383 . S
C252 C253 1.377 . S
C253 H237 0.930 . S
C253 C252 1.377 . S
C253 C254 1.379 . S
C254 H238 0.931 . S
C254 C248 1.383 . S
C254 C253 1.379 . S
H255 C249 0.959 . S
H256 C249 0.961 . S
H257 C249 0.960 . S
H258 C250 0.930 . S
H259 C251 0.929 . S
H260 C268 0.929 . S
H261 C270 0.930 . S
H262 C272 0.930 . S
H263 C275 0.929 . S
H264 C278 0.930 . S
H265 C280 0.960 . S
H266 C280 0.960 . S
H267 C280 0.960 . S
C268 H260 0.929 . S
C268 C269 1.377 . S
C268 C270 1.384 . S
C269 C268 1.377 . S
C269 C275 1.390 . S
C270 H261 0.930 . S
C270 C268 1.384 . S
C270 C271 1.372 . S
C271 C270 1.372 . S
C271 C272 1.400 . S
C271 C276 1.490 . S
C272 H262 0.930 . S
C272 C271 1.400 . S
C272 C275 1.386 . S
H273 C289 0.930 . S
H274 C290 0.931 . S
C275 H263 0.929 . S
C275 C269 1.390 . S
C275 C272 1.386 . S
C276 C271 1.490 . S
C276 C278 1.395 . S
C276 C279 1.403 . S
H277 C283 0.930 . S
C278 H264 0.930 . S
C278 C276 1.395 . S
C278 C281 1.403 1_655 S
C279 C276 1.403 . S
C279 C280 1.524 . S
C279 C283 1.400 1_655 S
C280 H265 0.960 . S
C280 H266 0.960 . S
C280 H267 0.960 . S
C280 C279 1.524 . S
C281 C278 1.403 1_455 S
C281 C282 1.392 . S
C281 C285 1.495 . S
C282 C281 1.392 . S
C282 C283 1.385 . S
C282 C284 1.478 . S
C283 H277 0.930 . S
C283 C279 1.400 1_455 S
C283 C282 1.385 . S
C284 C282 1.478 . S
C284 C286 1.381 . S
C284 C290 1.383 . S
C285 C281 1.495 . S
C285 H291 0.959 . S
C285 H292 0.961 . S
C285 H293 0.960 . S
C286 C284 1.381 . S
C286 C287 1.394 . S
C286 H294 0.930 . S
C287 C286 1.394 . S
C287 C288 1.383 . S
C287 H295 0.929 . S
C288 C287 1.383 . S
C288 C289 1.377 . S
C289 H273 0.930 . S
C289 C288 1.377 . S
C289 C290 1.379 . S
C290 H274 0.931 . S
C290 C284 1.383 . S
C290 C289 1.379 . S
H291 C285 0.959 . S
H292 C285 0.961 . S
H293 C285 0.960 . S
H294 C286 0.930 . S
H295 C287 0.929 . S
H296 C304 0.929 . S
H297 C306 0.930 . S
H298 C308 0.930 . S
H299 C311 0.929 . S
H300 C314 0.930 . S
H301 C316 0.960 . S
H302 C316 0.960 . S
H303 C316 0.960 . S
C304 H296 0.929 . S
C304 C305 1.377 . S
C304 C306 1.384 . S
C305 C304 1.377 . S
C305 C311 1.390 . S
C306 H297 0.930 . S
C306 C304 1.384 . S
C306 C307 1.372 . S
C307 C306 1.372 . S
C307 C308 1.400 . S
C307 C312 1.490 . S
C308 H298 0.930 . S
C308 C307 1.400 . S
C308 C311 1.386 . S
H309 C325 0.930 . S
H310 C326 0.931 . S
C311 H299 0.929 . S
C311 C305 1.390 . S
C311 C308 1.386 . S
C312 C307 1.490 . S
C312 C314 1.395 . S
C312 C315 1.403 . S
H313 C319 0.930 . S
C314 H300 0.930 . S
C314 C312 1.395 . S
C314 C317 1.403 1_655 S
C315 C312 1.403 . S
C315 C316 1.524 . S
C315 C319 1.400 1_655 S
C316 H301 0.960 . S
C316 H302 0.960 . S
C316 H303 0.960 . S
C316 C315 1.524 . S
C317 C314 1.403 1_455 S
C317 C318 1.392 . S
C317 C321 1.495 . S
C318 C317 1.392 . S
C318 C319 1.385 . S
C318 C320 1.478 . S
C319 H313 0.930 . S
C319 C315 1.400 1_455 S
C319 C318 1.385 . S
C320 C318 1.478 . S
C320 C322 1.381 . S
C320 C326 1.383 . S
C321 C317 1.495 . S
C321 H327 0.959 . S
C321 H328 0.961 . S
C321 H329 0.960 . S
C322 C320 1.381 . S
C322 C323 1.394 . S
C322 H330 0.930 . S
C323 C322 1.394 . S
C323 C324 1.383 . S
C323 H331 0.929 . S
C324 C323 1.383 . S
C324 C325 1.377 . S
C325 H309 0.930 . S
C325 C324 1.377 . S
C325 C326 1.379 . S
C326 H310 0.931 . S
C326 C320 1.383 . S
C326 C325 1.379 . S
H327 C321 0.959 . S
H328 C321 0.961 . S
H329 C321 0.960 . S
H330 C322 0.930 . S
H331 C323 0.929 . S
H332 C340 0.929 . S
H333 C342 0.930 . S
H334 C344 0.930 . S
H335 C347 0.929 . S
H336 C350 0.930 . S
H337 C352 0.960 . S
H338 C352 0.960 . S
H339 C352 0.960 . S
C340 H332 0.929 . S
C340 C341 1.377 . S
C340 C342 1.384 . S
C341 C340 1.377 . S
C341 C347 1.390 . S
C342 H333 0.930 . S
C342 C340 1.384 . S
C342 C343 1.372 . S
C343 C342 1.372 . S
C343 C344 1.400 . S
C343 C348 1.490 . S
C344 H334 0.930 . S
C344 C343 1.400 . S
C344 C347 1.386 . S
H345 C361 0.930 . S
H346 C362 0.931 . S
C347 H335 0.929 . S
C347 C341 1.390 . S
C347 C344 1.386 . S
C348 C343 1.490 . S
C348 C350 1.395 . S
C348 C351 1.403 . S
H349 C355 0.930 . S
C350 H336 0.930 . S
C350 C348 1.395 . S
C350 C353 1.403 1_455 S
C351 C348 1.403 . S
C351 C352 1.524 . S
C351 C355 1.400 1_455 S
C352 H337 0.960 . S
C352 H338 0.960 . S
C352 H339 0.960 . S
C352 C351 1.524 . S
C353 C350 1.403 1_655 S
C353 C354 1.392 . S
C353 C357 1.495 . S
C354 C353 1.392 . S
C354 C355 1.385 . S
C354 C356 1.478 . S
C355 H349 0.930 . S
C355 C351 1.400 1_655 S
C355 C354 1.385 . S
C356 C354 1.478 . S
C356 C358 1.381 . S
C356 C362 1.383 . S
C357 C353 1.495 . S
C357 H363 0.959 . S
C357 H364 0.961 . S
C357 H365 0.960 . S
C358 C356 1.381 . S
C358 C359 1.394 . S
C358 H366 0.930 . S
C359 C358 1.394 . S
C359 C360 1.383 . S
C359 H367 0.929 . S
C360 C359 1.383 . S
C360 C361 1.377 . S
C361 H345 0.930 . S
C361 C360 1.377 . S
C361 C362 1.379 . S
C362 H346 0.931 . S
C362 C356 1.383 . S
C362 C361 1.379 . S
H363 C357 0.959 . S
H364 C357 0.961 . S
H365 C357 0.960 . S
H366 C358 0.930 . S
H367 C359 0.929 . S
H368 C376 0.929 . S
H369 C378 0.930 . S
H370 C380 0.930 . S
H371 C383 0.929 . S
H372 C386 0.930 . S
H373 C388 0.960 . S
H374 C388 0.960 . S
H375 C388 0.960 . S
C376 H368 0.929 . S
C376 C377 1.377 . S
C376 C378 1.384 . S
C377 C376 1.377 . S
C377 C383 1.390 . S
C378 H369 0.930 . S
C378 C376 1.384 . S
C378 C379 1.372 . S
C379 C378 1.372 . S
C379 C380 1.400 . S
C379 C384 1.490 . S
C380 H370 0.930 . S
C380 C379 1.400 . S
C380 C383 1.386 . S
H381 C397 0.930 . S
H382 C398 0.931 . S
C383 H371 0.929 . S
C383 C377 1.390 . S
C383 C380 1.386 . S
C384 C379 1.490 . S
C384 C386 1.395 . S
C384 C387 1.403 . S
H385 C391 0.930 . S
C386 H372 0.930 . S
C386 C384 1.395 . S
C386 C389 1.403 . S
C387 C384 1.403 . S
C387 C388 1.524 . S
C387 C391 1.400 . S
C388 H373 0.960 . S
C388 H374 0.960 . S
C388 H375 0.960 . S
C388 C387 1.524 . S
C389 C386 1.403 . S
C389 C390 1.392 . S
C389 C393 1.495 . S
C390 C389 1.392 . S
C390 C391 1.385 . S
C390 C392 1.478 . S
C391 H385 0.930 . S
C391 C387 1.400 . S
C391 C390 1.385 . S
C392 C390 1.478 . S
C392 C394 1.381 . S
C392 C398 1.383 . S
C393 C389 1.495 . S
C393 H399 0.959 . S
C393 H400 0.961 . S
C393 H401 0.960 . S
C394 C392 1.381 . S
C394 C395 1.394 . S
C394 H402 0.930 . S
C395 C394 1.394 . S
C395 C396 1.383 . S
C395 H403 0.929 . S
C396 C395 1.383 . S
C396 C397 1.377 . S
C397 H381 0.930 . S
C397 C396 1.377 . S
C397 C398 1.379 . S
C398 H382 0.931 . S
C398 C392 1.383 . S
C398 C397 1.379 . S
H399 C393 0.959 . S
H400 C393 0.961 . S
H401 C393 0.960 . S
H402 C394 0.930 . S
H403 C395 0.929 . S
H404 C412 0.929 . S
H405 C414 0.930 . S
H406 C416 0.930 . S
H407 C419 0.929 . S
H408 C422 0.930 . S
H409 C424 0.960 . S
H410 C424 0.960 . S
H411 C424 0.960 . S
C412 H404 0.929 . S
C412 C413 1.377 . S
C412 C414 1.384 . S
C413 C412 1.377 . S
C413 C419 1.390 . S
C414 H405 0.930 . S
C414 C412 1.384 . S
C414 C415 1.372 . S
C415 C414 1.372 . S
C415 C416 1.400 . S
C415 C420 1.490 . S
C416 H406 0.930 . S
C416 C415 1.400 . S
C416 C419 1.386 . S
H417 C433 0.930 . S
H418 C434 0.931 . S
C419 H407 0.929 . S
C419 C413 1.390 . S
C419 C416 1.386 . S
C420 C415 1.490 . S
C420 C422 1.395 . S
C420 C423 1.403 . S
H421 C427 0.930 . S
C422 H408 0.930 . S
C422 C420 1.395 . S
C422 C425 1.403 . S
C423 C420 1.403 . S
C423 C424 1.524 . S
C423 C427 1.400 . S
C424 H409 0.960 . S
C424 H410 0.960 . S
C424 H411 0.960 . S
C424 C423 1.524 . S
C425 C422 1.403 . S
C425 C426 1.392 . S
C425 C429 1.495 . S
C426 C425 1.392 . S
C426 C427 1.385 . S
C426 C428 1.478 . S
C427 H421 0.930 . S
C427 C423 1.400 . S
C427 C426 1.385 . S
C428 C426 1.478 . S
C428 C430 1.381 . S
C428 C434 1.383 . S
C429 C425 1.495 . S
C429 H435 0.959 . S
C429 H436 0.961 . S
C429 H437 0.960 . S
C430 C428 1.381 . S
C430 C431 1.394 . S
C430 H438 0.930 . S
C431 C430 1.394 . S
C431 C432 1.383 . S
C431 H439 0.929 . S
C432 C431 1.383 . S
C432 C433 1.377 . S
C433 H417 0.930 . S
C433 C432 1.377 . S
C433 C434 1.379 . S
C434 H418 0.931 . S
C434 C428 1.383 . S
C434 C433 1.379 . S
H435 C429 0.959 . S
H436 C429 0.961 . S
H437 C429 0.960 . S
H438 C430 0.930 . S
H439 C431 0.929 . S
H440 C448 0.929 . S
H441 C450 0.930 . S
H442 C452 0.930 . S
H443 C455 0.929 . S
H444 C458 0.930 . S
H445 C460 0.960 . S
H446 C460 0.960 . S
H447 C460 0.960 . S
C448 H440 0.929 . S
C448 C449 1.377 . S
C448 C450 1.384 . S
C449 C448 1.377 . S
C449 C455 1.390 . S
C450 H441 0.930 . S
C450 C448 1.384 . S
C450 C451 1.372 . S
C451 C450 1.372 . S
C451 C452 1.400 . S
C451 C456 1.490 . S
C452 H442 0.930 . S
C452 C451 1.400 . S
C452 C455 1.386 . S
H453 C469 0.930 . S
H454 C470 0.931 . S
C455 H443 0.929 . S
C455 C449 1.390 . S
C455 C452 1.386 . S
C456 C451 1.490 . S
C456 C458 1.395 . S
C456 C459 1.403 . S
H457 C463 0.930 . S
C458 H444 0.930 . S
C458 C456 1.395 . S
C458 C461 1.403 . S
C459 C456 1.403 . S
C459 C460 1.524 . S
C459 C463 1.400 . S
C460 H445 0.960 . S
C460 H446 0.960 . S
C460 H447 0.960 . S
C460 C459 1.524 . S
C461 C458 1.403 . S
C461 C462 1.392 . S
C461 C465 1.495 . S
C462 C461 1.392 . S
C462 C463 1.385 . S
C462 C464 1.478 . S
C463 H457 0.930 . S
C463 C459 1.400 . S
C463 C462 1.385 . S
C464 C462 1.478 . S
C464 C466 1.381 . S
C464 C470 1.383 . S
C465 C461 1.495 . S
C465 H471 0.959 . S
C465 H472 0.961 . S
C465 H473 0.960 . S
C466 C464 1.381 . S
C466 C467 1.394 . S
C466 H474 0.930 . S
C467 C466 1.394 . S
C467 C468 1.383 . S
C467 H475 0.929 . S
C468 C467 1.383 . S
C468 C469 1.377 . S
C469 H453 0.930 . S
C469 C468 1.377 . S
C469 C470 1.379 . S
C470 H454 0.931 . S
C470 C464 1.383 . S
C470 C469 1.379 . S
H471 C465 0.959 . S
H472 C465 0.961 . S
H473 C465 0.960 . S
H474 C466 0.930 . S
H475 C467 0.929 . S
H476 C484 0.929 . S
H477 C486 0.930 . S
H478 C488 0.930 . S
H479 C491 0.929 . S
H480 C494 0.930 . S
H481 C496 0.960 . S
H482 C496 0.960 . S
H483 C496 0.960 . S
C484 H476 0.929 . S
C484 C485 1.377 . S
C484 C486 1.384 . S
C485 C484 1.377 . S
C485 C491 1.390 . S
C486 H477 0.930 . S
C486 C484 1.384 . S
C486 C487 1.372 . S
C487 C486 1.372 . S
C487 C488 1.400 . S
C487 C492 1.490 . S
C488 H478 0.930 . S
C488 C487 1.400 . S
C488 C491 1.386 . S
H489 C505 0.930 . S
H490 C506 0.931 . S
C491 H479 0.929 . S
C491 C485 1.390 . S
C491 C488 1.386 . S
C492 C487 1.490 . S
C492 C494 1.395 . S
C492 C495 1.403 . S
H493 C499 0.930 . S
C494 H480 0.930 . S
C494 C492 1.395 . S
C494 C497 1.403 . S
C495 C492 1.403 . S
C495 C496 1.524 . S
C495 C499 1.400 . S
C496 H481 0.960 . S
C496 H482 0.960 . S
C496 H483 0.960 . S
C496 C495 1.524 . S
C497 C494 1.403 . S
C497 C498 1.392 . S
C497 C501 1.495 . S
C498 C497 1.392 . S
C498 C499 1.385 . S
C498 C500 1.478 . S
C499 H493 0.930 . S
C499 C495 1.400 . S
C499 C498 1.385 . S
C500 C498 1.478 . S
C500 C502 1.381 . S
C500 C506 1.383 . S
C501 C497 1.495 . S
C501 H507 0.959 . S
C501 H508 0.961 . S
C501 H509 0.960 . S
C502 C500 1.381 . S
C502 C503 1.394 . S
C502 H510 0.930 . S
C503 C502 1.394 . S
C503 C504 1.383 . S
C503 H511 0.929 . S
C504 C503 1.383 . S
C504 C505 1.377 . S
C505 H489 0.930 . S
C505 C504 1.377 . S
C505 C506 1.379 . S
C506 H490 0.931 . S
C506 C500 1.383 . S
C506 C505 1.379 . S
H507 C501 0.959 . S
H508 C501 0.961 . S
H509 C501 0.960 . S
H510 C502 0.930 . S
H511 C503 0.929 . S
H512 C520 0.929 . S
H513 C522 0.930 . S
H514 C524 0.930 . S
H515 C527 0.929 . S
H516 C530 0.930 . S
H517 C532 0.960 . S
H518 C532 0.960 . S
H519 C532 0.960 . S
C520 H512 0.929 . S
C520 C521 1.377 . S
C520 C522 1.384 . S
C521 C520 1.377 . S
C521 C527 1.390 . S
C522 H513 0.930 . S
C522 C520 1.384 . S
C522 C523 1.372 . S
C523 C522 1.372 . S
C523 C524 1.400 . S
C523 C528 1.490 . S
C524 H514 0.930 . S
C524 C523 1.400 . S
C524 C527 1.386 . S
H525 C541 0.930 . S
H526 C542 0.931 . S
C527 H515 0.929 . S
C527 C521 1.390 . S
C527 C524 1.386 . S
C528 C523 1.490 . S
C528 C530 1.395 . S
C528 C531 1.403 . S
H529 C535 0.930 . S
C530 H516 0.930 . S
C530 C528 1.395 . S
C530 C533 1.403 . S
C531 C528 1.403 . S
C531 C532 1.524 . S
C531 C535 1.400 . S
C532 H517 0.960 . S
C532 H518 0.960 . S
C532 H519 0.960 . S
C532 C531 1.524 . S
C533 C530 1.403 . S
C533 C534 1.392 . S
C533 C537 1.495 . S
C534 C533 1.392 . S
C534 C535 1.385 . S
C534 C536 1.478 . S
C535 H529 0.930 . S
C535 C531 1.400 . S
C535 C534 1.385 . S
C536 C534 1.478 . S
C536 C538 1.381 . S
C536 C542 1.383 . S
C537 C533 1.495 . S
C537 H543 0.959 . S
C537 H544 0.961 . S
C537 H545 0.960 . S
C538 C536 1.381 . S
C538 C539 1.394 . S
C538 H546 0.930 . S
C539 C538 1.394 . S
C539 C540 1.383 . S
C539 H547 0.929 . S
C540 C539 1.383 . S
C540 C541 1.377 . S
C541 H525 0.930 . S
C541 C540 1.377 . S
C541 C542 1.379 . S
C542 H526 0.931 . S
C542 C536 1.383 . S
C542 C541 1.379 . S
H543 C537 0.959 . S
H544 C537 0.961 . S
H545 C537 0.960 . S
H546 C538 0.930 . S
H547 C539 0.929 . S
H548 C556 0.929 . S
H549 C558 0.930 . S
H550 C560 0.930 . S
H551 C563 0.929 . S
H552 C566 0.930 . S
H553 C568 0.960 . S
H554 C568 0.960 . S
H555 C568 0.960 . S
C556 H548 0.929 . S
C556 C557 1.377 . S
C556 C558 1.384 . S
C557 C556 1.377 . S
C557 C563 1.390 . S
C558 H549 0.930 . S
C558 C556 1.384 . S
C558 C559 1.372 . S
C559 C558 1.372 . S
C559 C560 1.400 . S
C559 C564 1.490 . S
C560 H550 0.930 . S
C560 C559 1.400 . S
C560 C563 1.386 . S
H561 C577 0.930 . S
H562 C578 0.931 . S
C563 H551 0.929 . S
C563 C557 1.390 . S
C563 C560 1.386 . S
C564 C559 1.490 . S
C564 C566 1.395 . S
C564 C567 1.403 . S
H565 C571 0.930 . S
C566 H552 0.930 . S
C566 C564 1.395 . S
C566 C569 1.403 . S
C567 C564 1.403 . S
C567 C568 1.524 . S
C567 C571 1.400 . S
C568 H553 0.960 . S
C568 H554 0.960 . S
C568 H555 0.960 . S
C568 C567 1.524 . S
C569 C566 1.403 . S
C569 C570 1.392 . S
C569 C573 1.495 . S
C570 C569 1.392 . S
C570 C571 1.385 . S
C570 C572 1.478 . S
C571 H565 0.930 . S
C571 C567 1.400 . S
C571 C570 1.385 . S
C572 C570 1.478 . S
C572 C574 1.381 . S
C572 C578 1.383 . S
C573 C569 1.495 . S
C573 H579 0.959 . S
C573 H580 0.961 . S
C573 H581 0.960 . S
C574 C572 1.381 . S
C574 C575 1.394 . S
C574 H582 0.930 . S
C575 C574 1.394 . S
C575 C576 1.383 . S
C575 H583 0.929 . S
C576 C575 1.383 . S
C576 C577 1.377 . S
C577 H561 0.930 . S
C577 C576 1.377 . S
C577 C578 1.379 . S
C578 H562 0.931 . S
C578 C572 1.383 . S
C578 C577 1.379 . S
H579 C573 0.959 . S
H580 C573 0.961 . S
H581 C573 0.960 . S
H582 C574 0.930 . S
H583 C575 0.929 . S
H584 C592 0.929 . S
H585 C594 0.930 . S
H586 C596 0.930 . S
H587 C599 0.929 . S
H588 C602 0.930 . S
H589 C604 0.960 . S
H590 C604 0.960 . S
H591 C604 0.960 . S
C592 H584 0.929 . S
C592 C593 1.377 . S
C592 C594 1.384 . S
C593 C592 1.377 . S
C593 C599 1.390 . S
C594 H585 0.930 . S
C594 C592 1.384 . S
C594 C595 1.372 . S
C595 C594 1.372 . S
C595 C596 1.400 . S
C595 C600 1.490 . S
C596 H586 0.930 . S
C596 C595 1.400 . S
C596 C599 1.386 . S
H597 C613 0.930 . S
H598 C614 0.931 . S
C599 H587 0.929 . S
C599 C593 1.390 . S
C599 C596 1.386 . S
C600 C595 1.490 . S
C600 C602 1.395 . S
C600 C603 1.403 . S
H601 C607 0.930 . S
C602 H588 0.930 . S
C602 C600 1.395 . S
C602 C605 1.403 . S
C603 C600 1.403 . S
C603 C604 1.524 . S
C603 C607 1.400 . S
C604 H589 0.960 . S
C604 H590 0.960 . S
C604 H591 0.960 . S
C604 C603 1.524 . S
C605 C602 1.403 . S
C605 C606 1.392 . S
C605 C609 1.495 . S
C606 C605 1.392 . S
C606 C607 1.385 . S
C606 C608 1.478 . S
C607 H601 0.930 . S
C607 C603 1.400 . S
C607 C606 1.385 . S
C608 C606 1.478 . S
C608 C610 1.381 . S
C608 C614 1.383 . S
C609 C605 1.495 . S
C609 H615 0.959 . S
C609 H616 0.961 . S
C609 H617 0.960 . S
C610 C608 1.381 . S
C610 C611 1.394 . S
C610 H618 0.930 . S
C611 C610 1.394 . S
C611 C612 1.383 . S
C611 H619 0.929 . S
C612 C611 1.383 . S
C612 C613 1.377 . S
C613 H597 0.930 . S
C613 C612 1.377 . S
C613 C614 1.379 . S
C614 H598 0.931 . S
C614 C608 1.383 . S
C614 C613 1.379 . S
H615 C609 0.959 . S
H616 C609 0.961 . S
H617 C609 0.960 . S
H618 C610 0.930 . S
H619 C611 0.929 . S
H620 C628 0.929 . S
H621 C630 0.930 . S
H622 C632 0.930 . S
H623 C635 0.929 . S
H624 C638 0.930 . S
H625 C640 0.960 . S
H626 C640 0.960 . S
H627 C640 0.960 . S
C628 H620 0.929 . S
C628 C629 1.377 . S
C628 C630 1.384 . S
C629 C628 1.377 . S
C629 C635 1.390 . S
C630 H621 0.930 . S
C630 C628 1.384 . S
C630 C631 1.372 . S
C631 C630 1.372 . S
C631 C632 1.400 . S
C631 C636 1.490 . S
C632 H622 0.930 . S
C632 C631 1.400 . S
C632 C635 1.386 . S
H633 C649 0.930 . S
H634 C650 0.931 . S
C635 H623 0.929 . S
C635 C629 1.390 . S
C635 C632 1.386 . S
C636 C631 1.490 . S
C636 C638 1.395 . S
C636 C639 1.403 . S
H637 C643 0.930 . S
C638 H624 0.930 . S
C638 C636 1.395 . S
C638 C641 1.403 . S
C639 C636 1.403 . S
C639 C640 1.524 . S
C639 C643 1.400 . S
C640 H625 0.960 . S
C640 H626 0.960 . S
C640 H627 0.960 . S
C640 C639 1.524 . S
C641 C638 1.403 . S
C641 C642 1.392 . S
C641 C645 1.495 . S
C642 C641 1.392 . S
C642 C643 1.385 . S
C642 C644 1.478 . S
C643 H637 0.930 . S
C643 C639 1.400 . S
C643 C642 1.385 . S
C644 C642 1.478 . S
C644 C646 1.381 . S
C644 C650 1.383 . S
C645 C641 1.495 . S
C645 H651 0.959 . S
C645 H652 0.961 . S
C645 H653 0.960 . S
C646 C644 1.381 . S
C646 C647 1.394 . S
C646 H654 0.930 . S
C647 C646 1.394 . S
C647 C648 1.383 . S
C647 H655 0.929 . S
C648 C647 1.383 . S
C648 C649 1.377 . S
C649 H633 0.930 . S
C649 C648 1.377 . S
C649 C650 1.379 . S
C650 H634 0.931 . S
C650 C644 1.383 . S
C650 C649 1.379 . S
H651 C645 0.959 . S
H652 C645 0.961 . S
H653 C645 0.960 . S
H654 C646 0.930 . S
H655 C647 0.929 . S
H656 C664 0.929 . S
H657 C666 0.930 . S
H658 C668 0.930 . S
H659 C671 0.929 . S
H660 C674 0.930 . S
H661 C676 0.960 . S
H662 C676 0.960 . S
H663 C676 0.960 . S
C664 H656 0.929 . S
C664 C665 1.377 . S
C664 C666 1.384 . S
C665 C664 1.377 . S
C665 C671 1.390 . S
C666 H657 0.930 . S
C666 C664 1.384 . S
C666 C667 1.372 . S
C667 C666 1.372 . S
C667 C668 1.400 . S
C667 C672 1.490 . S
C668 H658 0.930 . S
C668 C667 1.400 . S
C668 C671 1.386 . S
H669 C685 0.930 . S
H670 C686 0.931 . S
C671 H659 0.929 . S
C671 C665 1.390 . S
C671 C668 1.386 . S
C672 C667 1.490 . S
C672 C674 1.395 . S
C672 C675 1.403 . S
H673 C679 0.930 . S
C674 H660 0.930 . S
C674 C672 1.395 . S
C674 C677 1.403 . S
C675 C672 1.403 . S
C675 C676 1.524 . S
C675 C679 1.400 . S
C676 H661 0.960 . S
C676 H662 0.960 . S
C676 H663 0.960 . S
C676 C675 1.524 . S
C677 C674 1.403 . S
C677 C678 1.392 . S
C677 C681 1.495 . S
C678 C677 1.392 . S
C678 C679 1.385 . S
C678 C680 1.478 . S
C679 H673 0.930 . S
C679 C675 1.400 . S
C679 C678 1.385 . S
C680 C678 1.478 . S
C680 C682 1.381 . S
C680 C686 1.383 . S
C681 C677 1.495 . S
C681 H687 0.959 . S
C681 H688 0.961 . S
C681 H689 0.960 . S
C682 C680 1.381 . S
C682 C683 1.394 . S
C682 H690 0.930 . S
C683 C682 1.394 . S
C683 C684 1.383 . S
C683 H691 0.929 . S
C684 C683 1.383 . S
C684 C685 1.377 . S
C685 H669 0.930 . S
C685 C684 1.377 . S
C685 C686 1.379 . S
C686 H670 0.931 . S
C686 C680 1.383 . S
C686 C685 1.379 . S
H687 C681 0.959 . S
H688 C681 0.961 . S
H689 C681 0.960 . S
H690 C682 0.930 . S
H691 C683 0.929 . S
H692 C700 0.929 . S
H693 C702 0.930 . S
H694 C704 0.930 . S
H695 C707 0.929 . S
H696 C710 0.930 . S
H697 C712 0.960 . S
H698 C712 0.960 . S
H699 C712 0.960 . S
C700 H692 0.929 . S
C700 C701 1.377 . S
C700 C702 1.384 . S
C701 C700 1.377 . S
C701 C707 1.390 . S
C702 H693 0.930 . S
C702 C700 1.384 . S
C702 C703 1.372 . S
C703 C702 1.372 . S
C703 C704 1.400 . S
C703 C708 1.490 . S
C704 H694 0.930 . S
C704 C703 1.400 . S
C704 C707 1.386 . S
H705 C721 0.930 . S
H706 C722 0.931 . S
C707 H695 0.929 . S
C707 C701 1.390 . S
C707 C704 1.386 . S
C708 C703 1.490 . S
C708 C710 1.395 . S
C708 C711 1.403 . S
H709 C715 0.930 . S
C710 H696 0.930 . S
C710 C708 1.395 . S
C710 C713 1.403 . S
C711 C708 1.403 . S
C711 C712 1.524 . S
C711 C715 1.400 . S
C712 H697 0.960 . S
C712 H698 0.960 . S
C712 H699 0.960 . S
C712 C711 1.524 . S
C713 C710 1.403 . S
C713 C714 1.392 . S
C713 C717 1.495 . S
C714 C713 1.392 . S
C714 C715 1.385 . S
C714 C716 1.478 . S
C715 H709 0.930 . S
C715 C711 1.400 . S
C715 C714 1.385 . S
C716 C714 1.478 . S
C716 C718 1.381 . S
C716 C722 1.383 . S
C717 C713 1.495 . S
C717 H723 0.959 . S
C717 H724 0.961 . S
C717 H725 0.960 . S
C718 C716 1.381 . S
C718 C719 1.394 . S
C718 H726 0.930 . S
C719 C718 1.394 . S
C719 C720 1.383 . S
C719 H727 0.929 . S
C720 C719 1.383 . S
C720 C721 1.377 . S
C721 H705 0.930 . S
C721 C720 1.377 . S
C721 C722 1.379 . S
C722 H706 0.931 . S
C722 C716 1.383 . S
C722 C721 1.379 . S
H723 C717 0.959 . S
H724 C717 0.961 . S
H725 C717 0.960 . S
H726 C718 0.930 . S
H727 C719 0.929 . S
H728 C736 0.929 . S
H729 C738 0.930 . S
H730 C740 0.930 . S
H731 C743 0.929 . S
H732 C746 0.930 . S
H733 C748 0.960 . S
H734 C748 0.960 . S
H735 C748 0.960 . S
C736 H728 0.929 . S
C736 C737 1.377 . S
C736 C738 1.384 . S
C737 C736 1.377 . S
C737 C743 1.390 . S
C738 H729 0.930 . S
C738 C736 1.384 . S
C738 C739 1.372 . S
C739 C738 1.372 . S
C739 C740 1.400 . S
C739 C744 1.490 . S
C740 H730 0.930 . S
C740 C739 1.400 . S
C740 C743 1.386 . S
H741 C757 0.930 . S
H742 C758 0.931 . S
C743 H731 0.929 . S
C743 C737 1.390 . S
C743 C740 1.386 . S
C744 C739 1.490 . S
C744 C746 1.395 . S
C744 C747 1.403 . S
H745 C751 0.930 . S
C746 H732 0.930 . S
C746 C744 1.395 . S
C746 C749 1.403 . S
C747 C744 1.403 . S
C747 C748 1.524 . S
C747 C751 1.400 . S
C748 H733 0.960 . S
C748 H734 0.960 . S
C748 H735 0.960 . S
C748 C747 1.524 . S
C749 C746 1.403 . S
C749 C750 1.392 . S
C749 C753 1.495 . S
C750 C749 1.392 . S
C750 C751 1.385 . S
C750 C752 1.478 . S
C751 H745 0.930 . S
C751 C747 1.400 . S
C751 C750 1.385 . S
C752 C750 1.478 . S
C752 C754 1.381 . S
C752 C758 1.383 . S
C753 C749 1.495 . S
C753 H759 0.959 . S
C753 H760 0.961 . S
C753 H761 0.960 . S
C754 C752 1.381 . S
C754 C755 1.394 . S
C754 H762 0.930 . S
C755 C754 1.394 . S
C755 C756 1.383 . S
C755 H763 0.929 . S
C756 C755 1.383 . S
C756 C757 1.377 . S
C757 H741 0.930 . S
C757 C756 1.377 . S
C757 C758 1.379 . S
C758 H742 0.931 . S
C758 C752 1.383 . S
C758 C757 1.379 . S
H759 C753 0.959 . S
H760 C753 0.961 . S
H761 C753 0.960 . S
H762 C754 0.930 . S
H763 C755 0.929 . S
H764 C772 0.929 . S
H765 C774 0.930 . S
H766 C776 0.930 . S
H767 C779 0.929 . S
H768 C782 0.930 . S
H769 C784 0.960 . S
H770 C784 0.960 . S
H771 C784 0.960 . S
C772 H764 0.929 . S
C772 C773 1.377 . S
C772 C774 1.384 . S
C773 C772 1.377 . S
C773 C779 1.390 . S
C774 H765 0.930 . S
C774 C772 1.384 . S
C774 C775 1.372 . S
C775 C774 1.372 . S
C775 C776 1.400 . S
C775 C780 1.490 . S
C776 H766 0.930 . S
C776 C775 1.400 . S
C776 C779 1.386 . S
H777 C793 0.930 . S
H778 C794 0.931 . S
C779 H767 0.929 . S
C779 C773 1.390 . S
C779 C776 1.386 . S
C780 C775 1.490 . S
C780 C782 1.395 . S
C780 C783 1.403 . S
H781 C787 0.930 . S
C782 H768 0.930 . S
C782 C780 1.395 . S
C782 C785 1.403 . S
C783 C780 1.403 . S
C783 C784 1.524 . S
C783 C787 1.400 . S
C784 H769 0.960 . S
C784 H770 0.960 . S
C784 H771 0.960 . S
C784 C783 1.524 . S
C785 C782 1.403 . S
C785 C786 1.392 . S
C785 C789 1.495 . S
C786 C785 1.392 . S
C786 C787 1.385 . S
C786 C788 1.478 . S
C787 H781 0.930 . S
C787 C783 1.400 . S
C787 C786 1.385 . S
C788 C786 1.478 . S
C788 C790 1.381 . S
C788 C794 1.383 . S
C789 C785 1.495 . S
C789 H795 0.959 . S
C789 H796 0.961 . S
C789 H797 0.960 . S
C790 C788 1.381 . S
C790 C791 1.394 . S
C790 H798 0.930 . S
C791 C790 1.394 . S
C791 C792 1.383 . S
C791 H799 0.929 . S
C792 C791 1.383 . S
C792 C793 1.377 . S
C793 H777 0.930 . S
C793 C792 1.377 . S
C793 C794 1.379 . S
C794 H778 0.931 . S
C794 C788 1.383 . S
C794 C793 1.379 . S
H795 C789 0.959 . S
H796 C789 0.961 . S
H797 C789 0.960 . S
H798 C790 0.930 . S
H799 C791 0.929 . S
H800 C808 0.929 . S
H801 C810 0.930 . S
H802 C812 0.930 . S
H803 C815 0.929 . S
H804 C818 0.930 . S
H805 C820 0.960 . S
H806 C820 0.960 . S
H807 C820 0.960 . S
C808 H800 0.929 . S
C808 C809 1.377 . S
C808 C810 1.384 . S
C809 C808 1.377 . S
C809 C815 1.390 . S
C810 H801 0.930 . S
C810 C808 1.384 . S
C810 C811 1.372 . S
C811 C810 1.372 . S
C811 C812 1.400 . S
C811 C816 1.490 . S
C812 H802 0.930 . S
C812 C811 1.400 . S
C812 C815 1.386 . S
H813 C829 0.930 . S
H814 C830 0.931 . S
C815 H803 0.929 . S
C815 C809 1.390 . S
C815 C812 1.386 . S
C816 C811 1.490 . S
C816 C818 1.395 1_556 S
C816 C819 1.403 . S
H817 C823 0.930 . S
C818 H804 0.930 . S
C818 C816 1.395 1_554 S
C818 C821 1.403 . S
C819 C816 1.403 . S
C819 C820 1.524 . S
C819 C823 1.400 . S
C820 H805 0.960 . S
C820 H806 0.960 . S
C820 H807 0.960 . S
C820 C819 1.524 . S
C821 C818 1.403 . S
C821 C822 1.392 . S
C821 C825 1.495 . S
C822 C821 1.392 . S
C822 C823 1.385 1_554 S
C822 C824 1.478 . S
C823 H817 0.930 . S
C823 C819 1.400 . S
C823 C822 1.385 1_556 S
C824 C822 1.478 . S
C824 C826 1.381 . S
C824 C830 1.383 . S
C825 C821 1.495 . S
C825 H831 0.959 . S
C825 H832 0.961 . S
C825 H833 0.960 . S
C826 C824 1.381 . S
C826 C827 1.394 . S
C826 H834 0.930 . S
C827 C826 1.394 . S
C827 C828 1.383 . S
C827 H835 0.929 . S
C828 C827 1.383 . S
C828 C829 1.377 . S
C829 H813 0.930 . S
C829 C828 1.377 . S
C829 C830 1.379 . S
C830 H814 0.931 . S
C830 C824 1.383 . S
C830 C829 1.379 . S
H831 C825 0.959 . S
H832 C825 0.961 . S
H833 C825 0.960 . S
H834 C826 0.930 . S
H835 C827 0.929 . S
H836 C844 0.929 . S
H837 C846 0.930 . S
H838 C848 0.930 . S
H839 C851 0.929 . S
H840 C854 0.930 . S
H841 C856 0.960 . S
H842 C856 0.960 . S
H843 C856 0.960 . S
C844 H836 0.929 . S
C844 C845 1.377 . S
C844 C846 1.384 . S
C845 C844 1.377 . S
C845 C851 1.390 . S
C846 H837 0.930 . S
C846 C844 1.384 . S
C846 C847 1.372 . S
C847 C846 1.372 . S
C847 C848 1.400 . S
C847 C852 1.490 . S
C848 H838 0.930 . S
C848 C847 1.400 . S
C848 C851 1.386 . S
H849 C865 0.930 . S
H850 C866 0.931 . S
C851 H839 0.929 . S
C851 C845 1.390 . S
C851 C848 1.386 . S
C852 C847 1.490 . S
C852 C854 1.395 . S
C852 C855 1.403 . S
H853 C859 0.930 . S
C854 H840 0.930 . S
C854 C852 1.395 . S
C854 C857 1.403 . S
C855 C852 1.403 . S
C855 C856 1.524 . S
C855 C859 1.400 . S
C856 H841 0.960 . S
C856 H842 0.960 . S
C856 H843 0.960 . S
C856 C855 1.524 . S
C857 C854 1.403 . S
C857 C858 1.392 . S
C857 C861 1.495 . S
C858 C857 1.392 . S
C858 C859 1.385 . S
C858 C860 1.478 . S
C859 H853 0.930 . S
C859 C855 1.400 . S
C859 C858 1.385 . S
C860 C858 1.478 . S
C860 C862 1.381 . S
C860 C866 1.383 . S
C861 C857 1.495 . S
C861 H867 0.959 . S
C861 H868 0.961 . S
C861 H869 0.960 . S
C862 C860 1.381 . S
C862 C863 1.394 . S
C862 H870 0.930 . S
C863 C862 1.394 . S
C863 C864 1.383 . S
C863 H871 0.929 . S
C864 C863 1.383 . S
C864 C865 1.377 . S
C865 H849 0.930 . S
C865 C864 1.377 . S
C865 C866 1.379 . S
C866 H850 0.931 . S
C866 C860 1.383 . S
C866 C865 1.379 . S
H867 C861 0.959 . S
H868 C861 0.961 . S
H869 C861 0.960 . S
H870 C862 0.930 . S
H871 C863 0.929 . S
H872 C880 0.929 . S
H873 C882 0.930 1_556 S
H874 C884 0.930 . S
H875 C887 0.929 . S
H876 C890 0.930 . S
H877 C892 0.960 . S
H878 C892 0.960 . S
H879 C892 0.960 . S
C880 H872 0.929 . S
C880 C881 1.377 . S
C880 C882 1.384 . S
C881 C880 1.377 . S
C881 C887 1.390 . S
C882 H873 0.930 1_554 S
C882 C880 1.384 . S
C882 C883 1.372 . S
C883 C882 1.372 . S
C883 C884 1.400 . S
C883 C888 1.490 . S
C884 H874 0.930 . S
C884 C883 1.400 . S
C884 C887 1.386 . S
H885 C901 0.930 . S
H886 C902 0.931 . S
C887 H875 0.929 . S
C887 C881 1.390 . S
C887 C884 1.386 . S
C888 C883 1.490 . S
C888 C890 1.395 1_554 S
C888 C891 1.403 . S
H889 C895 0.930 . S
C890 H876 0.930 . S
C890 C888 1.395 1_556 S
C890 C893 1.403 . S
C891 C888 1.403 . S
C891 C892 1.524 . S
C891 C895 1.400 . S
C892 H877 0.960 . S
C892 H878 0.960 . S
C892 H879 0.960 . S
C892 C891 1.524 . S
C893 C890 1.403 . S
C893 C894 1.392 . S
C893 C897 1.495 . S
C894 C893 1.392 . S
C894 C895 1.385 1_556 S
C894 C896 1.478 . S
C895 H889 0.930 . S
C895 C891 1.400 . S
C895 C894 1.385 1_554 S
C896 C894 1.478 . S
C896 C898 1.381 . S
C896 C902 1.383 . S
C897 C893 1.495 . S
C897 H903 0.959 . S
C897 H904 0.961 . S
C897 H905 0.960 . S
C898 C896 1.381 . S
C898 C899 1.394 . S
C898 H906 0.930 . S
C899 C898 1.394 . S
C899 C900 1.383 . S
C899 H907 0.929 . S
C900 C899 1.383 . S
C900 C901 1.377 . S
C901 H885 0.930 . S
C901 C900 1.377 . S
C901 C902 1.379 . S
C902 H886 0.931 . S
C902 C896 1.383 . S
C902 C901 1.379 . S
H903 C897 0.959 . S
H904 C897 0.961 . S
H905 C897 0.960 . S
H906 C898 0.930 . S
H907 C899 0.929 . S
H908 C916 0.929 . S
H909 C918 0.930 . S
H910 C920 0.930 . S
H911 C923 0.929 . S
H912 C926 0.930 . S
H913 C928 0.960 . S
H914 C928 0.960 . S
H915 C928 0.960 . S
C916 H908 0.929 . S
C916 C917 1.377 . S
C916 C918 1.384 . S
C917 C916 1.377 . S
C917 C923 1.390 . S
C918 H909 0.930 . S
C918 C916 1.384 . S
C918 C919 1.372 . S
C919 C918 1.372 . S
C919 C920 1.400 . S
C919 C924 1.490 . S
C920 H910 0.930 . S
C920 C919 1.400 . S
C920 C923 1.386 . S
H921 C937 0.930 . S
H922 C938 0.931 . S
C923 H911 0.929 . S
C923 C917 1.390 . S
C923 C920 1.386 . S
C924 C919 1.490 . S
C924 C926 1.395 . S
C924 C927 1.403 . S
H925 C931 0.930 . S
C926 H912 0.930 . S
C926 C924 1.395 . S
C926 C929 1.403 . S
C927 C924 1.403 . S
C927 C928 1.524 . S
C927 C931 1.400 . S
C928 H913 0.960 . S
C928 H914 0.960 . S
C928 H915 0.960 . S
C928 C927 1.524 . S
C929 C926 1.403 . S
C929 C930 1.392 . S
C929 C933 1.495 . S
C930 C929 1.392 . S
C930 C931 1.385 . S
C930 C932 1.478 . S
C931 H925 0.930 . S
C931 C927 1.400 . S
C931 C930 1.385 . S
C932 C930 1.478 . S
C932 C934 1.381 . S
C932 C938 1.383 . S
C933 C929 1.495 . S
C933 H939 0.959 . S
C933 H940 0.961 . S
C933 H941 0.960 . S
C934 C932 1.381 . S
C934 C935 1.394 . S
C934 H942 0.930 . S
C935 C934 1.394 . S
C935 C936 1.383 . S
C935 H943 0.929 . S
C936 C935 1.383 . S
C936 C937 1.377 . S
C937 H921 0.930 . S
C937 C936 1.377 . S
C937 C938 1.379 . S
C938 H922 0.931 . S
C938 C932 1.383 . S
C938 C937 1.379 . S
H939 C933 0.959 . S
H940 C933 0.961 . S
H941 C933 0.960 . S
H942 C934 0.930 . S
H943 C935 0.929 . S
H944 C952 0.929 . S
H945 C954 0.930 1_556 S
H946 C956 0.930 . S
H947 C959 0.929 . S
H948 C962 0.930 . S
H949 C964 0.960 . S
H950 C964 0.960 . S
H951 C964 0.960 . S
C952 H944 0.929 . S
C952 C953 1.377 . S
C952 C954 1.384 . S
C953 C952 1.377 . S
C953 C959 1.390 . S
C954 H945 0.930 1_554 S
C954 C952 1.384 . S
C954 C955 1.372 . S
C955 C954 1.372 . S
C955 C956 1.400 . S
C955 C960 1.490 . S
C956 H946 0.930 . S
C956 C955 1.400 . S
C956 C959 1.386 . S
H957 C973 0.930 . S
H958 C974 0.896 1_554 S
C959 H947 0.929 . S
C959 C953 1.390 . S
C959 C956 1.386 . S
C960 C955 1.490 . S
C960 C962 1.395 1_554 S
C960 C963 1.403 . S
H961 C967 0.930 . S
C962 H948 0.930 . S
C962 C960 1.395 1_556 S
C962 C965 1.403 . S
C963 C960 1.403 . S
C963 C964 1.524 . S
C963 C967 1.400 . S
C964 H949 0.960 . S
C964 H950 0.960 . S
C964 H951 0.960 . S
C964 C963 1.524 . S
C965 C962 1.403 . S
C965 C966 1.392 . S
C965 C969 1.495 . S
C966 C965 1.392 . S
C966 C967 1.385 1_556 S
C966 C968 1.478 . S
C967 H961 0.930 . S
C967 C963 1.400 . S
C967 C966 1.385 1_554 S
C968 C966 1.478 . S
C968 C970 1.381 . S
C968 C974 1.383 . S
C969 C965 1.495 . S
C969 H975 0.959 . S
C969 H976 0.961 . S
C969 H977 0.960 . S
C970 C968 1.381 . S
C970 C971 1.394 . S
C970 H978 0.930 . S
C971 C970 1.394 . S
C971 C972 1.383 . S
C971 H979 0.929 . S
C972 C971 1.383 . S
C972 C973 1.377 . S
C973 H957 0.930 . S
C973 C972 1.377 . S
C973 C974 1.379 . S
C974 H958 0.896 1_556 S
C974 C968 1.383 . S
C974 C973 1.379 . S
H975 C969 0.959 . S
H976 C969 0.961 . S
H977 C969 0.960 . S
H978 C970 0.930 . S
H979 C971 0.929 . S
H980 C988 0.929 . S
H981 C990 0.930 . S
H982 C992 0.930 . S
H983 C995 0.929 . S
H984 C998 0.930 . S
H985 C1000 0.960 . S
H986 C1000 0.960 . S
H987 C1000 0.960 . S
C988 H980 0.929 . S
C988 C989 1.377 . S
C988 C990 1.384 . S
C989 C988 1.377 . S
C989 C995 1.390 . S
C990 H981 0.930 . S
C990 C988 1.384 . S
C990 C991 1.372 . S
C991 C990 1.372 . S
C991 C992 1.400 . S
C991 C996 1.490 . S
C992 H982 0.930 . S
C992 C991 1.400 . S
C992 C995 1.386 . S
H993 C1009 0.930 . S
H994 C1010 0.931 . S
C995 H983 0.929 . S
C995 C989 1.390 . S
C995 C992 1.386 . S
C996 C991 1.490 . S
C996 C998 1.395 . S
C996 C999 1.403 . S
H997 C1003 0.930 . S
C998 H984 0.930 . S
C998 C996 1.395 . S
C998 C1001 1.403 . S
C999 C996 1.403 . S
C999 C1000 1.524 . S
C999 C1003 1.400 . S
C1000 H985 0.960 . S
C1000 H986 0.960 . S
C1000 H987 0.960 . S
C1000 C999 1.524 . S
C1001 C998 1.403 . S
C1001 C1002 1.392 . S
C1001 C1005 1.495 . S
C1002 C1001 1.392 . S
C1002 C1003 1.385 . S
C1002 C1004 1.478 . S
C1003 H997 0.930 . S
C1003 C999 1.400 . S
C1003 C1002 1.385 . S
C1004 C1002 1.478 . S
C1004 C1006 1.381 . S
C1004 C1010 1.383 . S
C1005 C1001 1.495 . S
C1005 H1011 0.959 . S
C1005 H1012 0.961 . S
C1005 H1013 0.960 . S
C1006 C1004 1.381 . S
C1006 C1007 1.394 . S
C1006 H1014 0.930 . S
C1007 C1006 1.394 . S
C1007 C1008 1.383 . S
C1007 H1015 0.929 . S
C1008 C1007 1.383 . S
C1008 C1009 1.377 . S
C1009 H993 0.930 . S
C1009 C1008 1.377 . S
C1009 C1010 1.379 . S
C1010 H994 0.931 . S
C1010 C1004 1.383 . S
C1010 C1009 1.379 . S
H1011 C1005 0.959 . S
H1012 C1005 0.961 . S
H1013 C1005 0.960 . S
H1014 C1006 0.930 . S
H1015 C1007 0.929 . S
H1016 C1024 0.929 . S
H1017 C1026 0.930 . S
H1018 C1028 0.930 1_556 S
H1019 C1031 0.929 . S
H1020 C1034 0.930 . S
H1021 C1036 0.960 . S
H1022 C1036 0.960 . S
H1023 C1036 0.960 . S
C1024 H1016 0.929 . S
C1024 C1025 1.377 . S
C1024 C1026 1.384 . S
C1025 C1024 1.377 . S
C1025 C1031 1.390 . S
C1026 H1017 0.930 . S
C1026 C1024 1.384 . S
C1026 C1027 1.372 . S
C1027 C1026 1.372 . S
C1027 C1028 1.400 . S
C1027 C1032 1.490 . S
C1028 H1018 0.930 1_554 S
C1028 C1027 1.400 . S
C1028 C1031 1.386 . S
H1029 C1045 0.930 . S
H1030 C1046 0.931 . S
C1031 H1019 0.929 . S
C1031 C1025 1.390 . S
C1031 C1028 1.386 . S
C1032 C1027 1.490 . S
C1032 C1034 1.395 . S
C1032 C1035 1.403 1_554 S
H1033 C1039 0.930 . S
C1034 H1020 0.930 . S
C1034 C1032 1.395 . S
C1034 C1037 1.403 . S
C1035 C1032 1.403 1_556 S
C1035 C1036 1.524 . S
C1035 C1039 1.400 . S
C1036 H1021 0.960 . S
C1036 H1022 0.960 . S
C1036 H1023 0.960 . S
C1036 C1035 1.524 . S
C1037 C1034 1.403 . S
C1037 C1038 1.392 1_554 S
C1037 C1041 1.495 . S
C1038 C1037 1.392 1_556 S
C1038 C1039 1.385 . S
C1038 C1040 1.478 . S
C1039 H1033 0.930 . S
C1039 C1035 1.400 . S
C1039 C1038 1.385 . S
C1040 C1038 1.478 . S
C1040 C1042 1.381 . S
C1040 C1046 1.383 . S
C1041 C1037 1.495 . S
C1041 H1047 0.959 . S
C1041 H1048 0.961 . S
C1041 H1049 0.960 . S
C1042 C1040 1.381 . S
C1042 C1043 1.394 . S
C1042 H1050 0.930 1_556 S
C1043 C1042 1.394 . S
C1043 C1044 1.383 . S
C1043 H1051 0.929 . S
C1044 C1043 1.383 . S
C1044 C1045 1.377 . S
C1045 H1029 0.930 . S
C1045 C1044 1.377 . S
C1045 C1046 1.379 . S
C1046 H1030 0.931 . S
C1046 C1040 1.383 . S
C1046 C1045 1.379 . S
H1047 C1041 0.959 . S
H1048 C1041 0.961 . S
H1049 C1041 0.960 . S
H1050 C1042 0.930 1_554 S
H1051 C1043 0.929 . S
H1052 C1060 0.929 . S
H1053 C1062 0.930 . S
H1054 C1064 0.930 . S
H1055 C1067 0.929 . S
H1056 C1070 0.930 . S
H1057 C1072 0.960 . S
H1058 C1072 0.960 . S
H1059 C1072 0.960 . S
C1060 H1052 0.929 . S
C1060 C1061 1.377 . S
C1060 C1062 1.384 . S
C1061 C1060 1.377 . S
C1061 C1067 1.390 . S
C1062 H1053 0.930 . S
C1062 C1060 1.384 . S
C1062 C1063 1.372 . S
C1063 C1062 1.372 . S
C1063 C1064 1.400 . S
C1063 C1068 1.490 . S
C1064 H1054 0.930 . S
C1064 C1063 1.400 . S
C1064 C1067 1.386 . S
H1065 C1081 0.930 . S
H1066 C1082 0.931 . S
C1067 H1055 0.929 . S
C1067 C1061 1.390 . S
C1067 C1064 1.386 . S
C1068 C1063 1.490 . S
C1068 C1070 1.395 . S
C1068 C1071 1.403 . S
H1069 C1075 0.930 . S
C1070 H1056 0.930 . S
C1070 C1068 1.395 . S
C1070 C1073 1.403 . S
C1071 C1068 1.403 . S
C1071 C1072 1.524 . S
C1071 C1075 1.400 . S
C1072 H1057 0.960 . S
C1072 H1058 0.960 . S
C1072 H1059 0.960 . S
C1072 C1071 1.524 . S
C1073 C1070 1.403 . S
C1073 C1074 1.392 . S
C1073 C1077 1.495 . S
C1074 C1073 1.392 . S
C1074 C1075 1.385 . S
C1074 C1076 1.478 . S
C1075 H1069 0.930 . S
C1075 C1071 1.400 . S
C1075 C1074 1.385 . S
C1076 C1074 1.478 . S
C1076 C1078 1.381 . S
C1076 C1082 1.383 . S
C1077 C1073 1.495 . S
C1077 H1083 0.959 . S
C1077 H1084 0.961 . S
C1077 H1085 0.960 . S
C1078 C1076 1.381 . S
C1078 C1079 1.394 . S
C1078 H1086 0.930 . S
C1079 C1078 1.394 . S
C1079 C1080 1.383 . S
C1079 H1087 0.929 . S
C1080 C1079 1.383 . S
C1080 C1081 1.377 . S
C1081 H1065 0.930 . S
C1081 C1080 1.377 . S
C1081 C1082 1.379 . S
C1082 H1066 0.931 . S
C1082 C1076 1.383 . S
C1082 C1081 1.379 . S
H1083 C1077 0.959 . S
H1084 C1077 0.961 . S
H1085 C1077 0.960 . S
H1086 C1078 0.930 . S
H1087 C1079 0.929 . S
H1088 C1096 0.929 . S
H1089 C1098 0.930 . S
H1090 C1100 0.930 1_554 S
H1091 C1103 0.929 . S
H1092 C1106 0.930 . S
H1093 C1108 0.960 . S
H1094 C1108 0.960 . S
H1095 C1108 0.960 . S
C1096 H1088 0.929 . S
C1096 C1097 1.377 . S
C1096 C1098 1.384 . S
C1097 C1096 1.377 . S
C1097 C1103 1.390 . S
C1098 H1089 0.930 . S
C1098 C1096 1.384 . S
C1098 C1099 1.372 . S
C1099 C1098 1.372 . S
C1099 C1100 1.400 . S
C1099 C1104 1.490 . S
C1100 H1090 0.930 1_556 S
C1100 C1099 1.400 . S
C1100 C1103 1.386 . S
H1101 C1117 0.930 . S
H1102 C1118 0.931 . S
C1103 H1091 0.929 . S
C1103 C1097 1.390 . S
C1103 C1100 1.386 . S
C1104 C1099 1.490 . S
C1104 C1106 1.395 . S
C1104 C1107 1.403 . S
H1105 C1111 0.930 . S
C1106 H1092 0.930 . S
C1106 C1104 1.395 . S
C1106 C1109 1.403 1_556 S
C1107 C1104 1.403 . S
C1107 C1108 1.524 . S
C1107 C1111 1.400 1_556 S
C1108 H1093 0.960 . S
C1108 H1094 0.960 . S
C1108 H1095 0.960 . S
C1108 C1107 1.524 . S
C1109 C1106 1.403 1_554 S
C1109 C1110 1.392 . S
C1109 C1113 1.495 . S
C1110 C1109 1.392 . S
C1110 C1111 1.385 . S
C1110 C1112 1.478 . S
C1111 H1105 0.930 . S
C1111 C1107 1.400 1_554 S
C1111 C1110 1.385 . S
C1112 C1110 1.478 . S
C1112 C1114 1.381 . S
C1112 C1118 1.383 . S
C1113 C1109 1.495 . S
C1113 H1119 0.959 . S
C1113 H1120 0.961 . S
C1113 H1121 0.970 . S
C1114 C1112 1.381 . S
C1114 C1115 1.394 . S
C1114 H1122 0.930 1_554 S
C1115 C1114 1.394 . S
C1115 C1116 1.383 . S
C1115 H1123 0.929 . S
C1116 C1115 1.383 . S
C1116 C1117 1.377 . S
C1117 H1101 0.930 . S
C1117 C1116 1.377 . S
C1117 C1118 1.379 . S
C1118 H1102 0.931 . S
C1118 C1112 1.383 . S
C1118 C1117 1.379 . S
H1119 C1113 0.959 . S
H1120 C1113 0.961 . S
H1121 C1113 0.970 . S
H1122 C1114 0.930 1_556 S
H1123 C1115 0.929 . S
H1124 C1132 0.929 . S
H1125 C1134 0.930 . S
H1126 C1136 0.930 . S
H1127 C1139 0.929 . S
H1128 C1142 0.930 . S
H1129 C1144 0.960 . S
H1130 C1144 0.960 . S
H1131 C1144 0.960 . S
C1132 H1124 0.929 . S
C1132 C1133 1.377 . S
C1132 C1134 1.384 . S
C1133 C1132 1.377 . S
C1133 C1139 1.390 . S
C1134 H1125 0.930 . S
C1134 C1132 1.384 . S
C1134 C1135 1.372 . S
C1135 C1134 1.372 . S
C1135 C1136 1.400 . S
C1135 C1140 1.490 . S
C1136 H1126 0.930 . S
C1136 C1135 1.400 . S
C1136 C1139 1.386 . S
H1137 C1153 0.930 . S
H1138 C1154 0.931 . S
C1139 H1127 0.929 . S
C1139 C1133 1.390 . S
C1139 C1136 1.386 . S
C1140 C1135 1.490 . S
C1140 C1142 1.395 . S
C1140 C1143 1.403 . S
H1141 C1147 0.930 . S
C1142 H1128 0.930 . S
C1142 C1140 1.395 . S
C1142 C1145 1.403 . S
C1143 C1140 1.403 . S
C1143 C1144 1.524 . S
C1143 C1147 1.400 . S
C1144 H1129 0.960 . S
C1144 H1130 0.960 . S
C1144 H1131 0.960 . S
C1144 C1143 1.524 . S
C1145 C1142 1.403 . S
C1145 C1146 1.392 . S
C1145 C1149 1.495 . S
C1146 C1145 1.392 . S
C1146 C1147 1.385 . S
C1146 C1148 1.478 . S
C1147 H1141 0.930 . S
C1147 C1143 1.400 . S
C1147 C1146 1.385 . S
C1148 C1146 1.478 . S
C1148 C1150 1.381 . S
C1148 C1154 1.383 . S
C1149 C1145 1.495 . S
C1149 H1155 0.959 . S
C1149 H1156 0.961 . S
C1149 H1157 0.960 . S
C1150 C1148 1.381 . S
C1150 C1151 1.394 . S
C1150 H1158 0.930 . S
C1151 C1150 1.394 . S
C1151 C1152 1.383 . S
C1151 H1159 0.929 . S
C1152 C1151 1.383 . S
C1152 C1153 1.377 . S
C1153 H1137 0.930 . S
C1153 C1152 1.377 . S
C1153 C1154 1.379 . S
C1154 H1138 0.931 . S
C1154 C1148 1.383 . S
C1154 C1153 1.379 . S
H1155 C1149 0.959 . S
H1156 C1149 0.961 . S
H1157 C1149 0.960 . S
H1158 C1150 0.930 . S
H1159 C1151 0.929 . S
H1160 C1168 0.929 . S
H1161 C1170 0.930 . S
H1162 C1172 0.930 . S
H1163 C1175 0.929 . S
H1164 C1178 0.932 . S
H1165 C1180 0.960 . S
H1166 C1180 0.960 . S
H1167 C1180 0.960 . S
C1168 H1160 0.929 . S
C1168 C1169 1.377 . S
C1168 C1170 1.384 . S
C1169 C1168 1.377 . S
C1169 C1175 1.390 . S
C1170 H1161 0.930 . S
C1170 C1168 1.384 . S
C1170 C1171 1.372 . S
C1171 C1170 1.372 . S
C1171 C1172 1.400 . S
C1171 C1176 1.490 . S
C1172 H1162 0.930 . S
C1172 C1171 1.400 . S
C1172 C1175 1.386 . S
H1173 C1189 0.930 . S
H1174 C1190 0.931 . S
C1175 H1163 0.929 . S
C1175 C1169 1.390 . S
C1175 C1172 1.386 . S
C1176 C1171 1.490 . S
C1176 C1178 1.410 . S
C1176 C1179 1.403 . S
H1177 C1183 0.932 . S
C1178 H1164 0.932 . S
C1178 C1176 1.410 . S
C1178 C1181 1.388 1_554 S
C1179 C1176 1.403 . S
C1179 C1180 1.524 . S
C1179 C1183 1.384 1_554 S
C1180 H1165 0.960 . S
C1180 H1166 0.960 . S
C1180 H1167 0.960 . S
C1180 C1179 1.524 . S
C1181 C1178 1.388 1_556 S
C1181 C1182 1.392 . S
C1181 C1185 1.495 . S
C1182 C1181 1.392 . S
C1182 C1183 1.400 . S
C1182 C1184 1.478 . S
C1183 H1177 0.932 . S
C1183 C1179 1.384 1_556 S
C1183 C1182 1.400 . S
C1184 C1182 1.478 . S
C1184 C1186 1.381 . S
C1184 C1190 1.383 . S
C1185 C1181 1.495 . S
C1185 H1191 0.959 . S
C1185 H1192 0.961 . S
C1185 H1193 0.960 . S
C1186 C1184 1.381 . S
C1186 C1187 1.394 . S
C1186 H1194 0.948 . S
C1187 C1186 1.394 . S
C1187 C1188 1.383 . S
C1187 H1195 0.929 . S
C1188 C1187 1.383 . S
C1188 C1189 1.377 . S
C1189 H1173 0.930 . S
C1189 C1188 1.377 . S
C1189 C1190 1.379 . S
C1190 H1174 0.931 . S
C1190 C1184 1.383 . S
C1190 C1189 1.379 . S
H1191 C1185 0.959 . S
H1192 C1185 0.961 . S
H1193 C1185 0.960 . S
H1194 C1186 0.948 . S
H1195 C1187 0.929 . S
H1196 C1204 0.929 . S
H1197 C1206 0.930 . S
H1198 C1208 0.930 . S
H1199 C1211 0.929 . S
H1200 C1214 0.930 . S
H1201 C1216 0.960 . S
H1202 C1216 0.960 . S
H1203 C1216 0.960 . S
C1204 H1196 0.929 . S
C1204 C1205 1.377 . S
C1204 C1206 1.384 . S
C1205 C1204 1.377 . S
C1205 C1211 1.390 . S
C1206 H1197 0.930 . S
C1206 C1204 1.384 . S
C1206 C1207 1.372 . S
C1207 C1206 1.372 . S
C1207 C1208 1.400 . S
C1207 C1212 1.490 . S
C1208 H1198 0.930 . S
C1208 C1207 1.400 . S
C1208 C1211 1.386 . S
H1209 C1225 0.930 . S
H1210 C1226 0.931 . S
C1211 H1199 0.929 . S
C1211 C1205 1.390 . S
C1211 C1208 1.386 . S
C1212 C1207 1.490 . S
C1212 C1214 1.395 . S
C1212 C1215 1.403 . S
H1213 C1219 0.930 . S
C1214 H1200 0.930 . S
C1214 C1212 1.395 . S
C1214 C1217 1.403 . S
C1215 C1212 1.403 . S
C1215 C1216 1.524 . S
C1215 C1219 1.400 . S
C1216 H1201 0.960 . S
C1216 H1202 0.960 . S
C1216 H1203 0.960 . S
C1216 C1215 1.524 . S
C1217 C1214 1.403 . S
C1217 C1218 1.392 . S
C1217 C1221 1.495 . S
C1218 C1217 1.392 . S
C1218 C1219 1.385 . S
C1218 C1220 1.478 . S
C1219 H1213 0.930 . S
C1219 C1215 1.400 . S
C1219 C1218 1.385 . S
C1220 C1218 1.478 . S
C1220 C1222 1.381 . S
C1220 C1226 1.383 . S
C1221 C1217 1.495 . S
C1221 H1227 0.959 . S
C1221 H1228 0.961 . S
C1221 H1229 0.960 . S
C1222 C1220 1.381 . S
C1222 C1223 1.394 . S
C1222 H1230 0.930 . S
C1223 C1222 1.394 . S
C1223 C1224 1.383 . S
C1223 H1231 0.929 . S
C1224 C1223 1.383 . S
C1224 C1225 1.377 . S
C1225 H1209 0.930 . S
C1225 C1224 1.377 . S
C1225 C1226 1.379 . S
C1226 H1210 0.931 . S
C1226 C1220 1.383 . S
C1226 C1225 1.379 . S
H1227 C1221 0.959 . S
H1228 C1221 0.961 . S
H1229 C1221 0.960 . S
H1230 C1222 0.930 . S
H1231 C1223 0.929 . S
H1232 C1240 0.929 . S
H1233 C1242 0.930 1_554 S
H1234 C1244 0.930 . S
H1235 C1247 0.929 . S
H1236 C1250 0.930 . S
H1237 C1252 0.960 1_565 S
H1238 C1252 0.960 . S
H1239 C1252 0.960 . S
C1240 H1232 0.929 . S
C1240 C1241 1.377 . S
C1240 C1242 1.384 . S
C1241 C1240 1.377 . S
C1241 C1247 1.390 . S
C1242 H1233 0.930 1_556 S
C1242 C1240 1.384 . S
C1242 C1243 1.372 . S
C1243 C1242 1.372 . S
C1243 C1244 1.400 . S
C1243 C1248 1.490 . S
C1244 H1234 0.930 . S
C1244 C1243 1.400 . S
C1244 C1247 1.386 . S
H1245 C1261 0.930 . S
H1246 C1262 0.931 1_556 S
C1247 H1235 0.929 . S
C1247 C1241 1.390 . S
C1247 C1244 1.386 . S
C1248 C1243 1.490 . S
C1248 C1250 1.395 1_556 S
C1248 C1251 1.403 . S
H1249 C1255 0.930 . S
C1250 H1236 0.930 . S
C1250 C1248 1.395 1_554 S
C1250 C1253 1.403 1_545 S
C1251 C1248 1.403 . S
C1251 C1252 1.524 . S
C1251 C1255 1.400 1_545 S
C1252 H1237 0.960 1_545 S
C1252 H1238 0.960 . S
C1252 H1239 0.960 . S
C1252 C1251 1.524 . S
C1253 C1250 1.403 1_565 S
C1253 C1254 1.392 . S
C1253 C1257 1.495 . S
C1254 C1253 1.392 . S
C1254 C1255 1.385 1_554 S
C1254 C1256 1.478 . S
C1255 H1249 0.930 . S
C1255 C1251 1.400 1_565 S
C1255 C1254 1.385 1_556 S
C1256 C1254 1.478 . S
C1256 C1258 1.381 . S
C1256 C1262 1.383 . S
C1257 C1253 1.495 . S
C1257 H1263 0.959 1_565 S
C1257 H1264 0.961 . S
C1257 H1265 0.960 . S
C1258 C1256 1.381 . S
C1258 C1259 1.394 . S
C1258 H1266 0.930 . S
C1259 C1258 1.394 . S
C1259 C1260 1.383 . S
C1259 H1267 0.929 . S
C1260 C1259 1.383 . S
C1260 C1261 1.377 . S
C1261 H1245 0.930 . S
C1261 C1260 1.377 . S
C1261 C1262 1.379 . S
C1262 H1246 0.931 1_554 S
C1262 C1256 1.383 . S
C1262 C1261 1.379 . S
H1263 C1257 0.959 1_545 S
H1264 C1257 0.961 . S
H1265 C1257 0.960 . S
H1266 C1258 0.930 . S
H1267 C1259 0.929 . S
H1268 C1276 0.929 . S
H1269 C1278 0.930 . S
H1270 C1280 0.930 . S
H1271 C1283 0.929 . S
H1272 C1286 0.930 . S
H1273 C1288 0.960 . S
H1274 C1288 0.960 . S
H1275 C1288 0.960 . S
C1276 H1268 0.929 . S
C1276 C1277 1.377 . S
C1276 C1278 1.384 . S
C1277 C1276 1.377 . S
C1277 C1283 1.390 . S
C1278 H1269 0.930 . S
C1278 C1276 1.384 . S
C1278 C1279 1.372 . S
C1279 C1278 1.372 . S
C1279 C1280 1.400 . S
C1279 C1284 1.490 . S
C1280 H1270 0.930 . S
C1280 C1279 1.400 . S
C1280 C1283 1.386 . S
H1281 C1297 0.930 . S
H1282 C1298 0.931 . S
C1283 H1271 0.929 . S
C1283 C1277 1.390 . S
C1283 C1280 1.386 . S
C1284 C1279 1.490 . S
C1284 C1286 1.395 . S
C1284 C1287 1.403 . S
H1285 C1291 0.930 . S
C1286 H1272 0.930 . S
C1286 C1284 1.395 . S
C1286 C1289 1.403 1_565 S
C1287 C1284 1.403 . S
C1287 C1288 1.524 . S
C1287 C1291 1.400 1_565 S
C1288 H1273 0.960 . S
C1288 H1274 0.960 . S
C1288 H1275 0.960 . S
C1288 C1287 1.524 . S
C1289 C1286 1.403 1_545 S
C1289 C1290 1.392 . S
C1289 C1293 1.495 . S
C1290 C1289 1.392 . S
C1290 C1291 1.385 . S
C1290 C1292 1.478 . S
C1291 H1285 0.930 . S
C1291 C1287 1.400 1_545 S
C1291 C1290 1.385 . S
C1292 C1290 1.478 . S
C1292 C1294 1.381 . S
C1292 C1298 1.383 . S
C1293 C1289 1.495 . S
C1293 H1299 0.959 . S
C1293 H1300 0.961 . S
C1293 H1301 0.960 . S
C1294 C1292 1.381 . S
C1294 C1295 1.394 . S
C1294 H1302 0.930 . S
C1295 C1294 1.394 . S
C1295 C1296 1.383 . S
C1295 H1303 0.929 . S
C1296 C1295 1.383 . S
C1296 C1297 1.377 . S
C1297 H1281 0.930 . S
C1297 C1296 1.377 . S
C1297 C1298 1.379 . S
C1298 H1282 0.931 . S
C1298 C1292 1.383 . S
C1298 C1297 1.379 . S
H1299 C1293 0.959 . S
H1300 C1293 0.961 . S
H1301 C1293 0.960 . S
H1302 C1294 0.930 . S
H1303 C1295 0.929 . S
H1304 C1312 0.929 . S
H1305 C1314 0.930 . S
H1306 C1316 0.930 . S
H1307 C1319 0.929 . S
H1308 C1322 0.930 . S
H1309 C1324 0.960 1_545 S
H1310 C1324 0.960 . S
H1311 C1324 0.960 . S
C1312 H1304 0.929 . S
C1312 C1313 1.377 . S
C1312 C1314 1.384 . S
C1313 C1312 1.377 . S
C1313 C1319 1.390 . S
C1314 H1305 0.930 . S
C1314 C1312 1.384 . S
C1314 C1315 1.372 . S
C1315 C1314 1.372 . S
C1315 C1316 1.400 . S
C1315 C1320 1.490 . S
C1316 H1306 0.930 . S
C1316 C1315 1.400 . S
C1316 C1319 1.386 . S
H1317 C1333 0.930 . S
H1318 C1334 0.931 . S
C1319 H1307 0.929 . S
C1319 C1313 1.390 . S
C1319 C1316 1.386 . S
C1320 C1315 1.490 . S
C1320 C1322 1.395 1_554 S
C1320 C1323 1.403 . S
H1321 C1327 0.930 . S
C1322 H1308 0.930 . S
C1322 C1320 1.395 1_556 S
C1322 C1325 1.403 1_565 S
C1323 C1320 1.403 . S
C1323 C1324 1.524 . S
C1323 C1327 1.400 1_565 S
C1324 H1309 0.960 1_565 S
C1324 H1310 0.960 . S
C1324 H1311 0.960 . S
C1324 C1323 1.524 . S
C1325 C1322 1.403 1_545 S
C1325 C1326 1.392 . S
C1325 C1329 1.495 . S
C1326 C1325 1.392 . S
C1326 C1327 1.385 1_556 S
C1326 C1328 1.478 . S
C1327 H1321 0.930 . S
C1327 C1323 1.400 1_545 S
C1327 C1326 1.385 1_554 S
C1328 C1326 1.478 . S
C1328 C1330 1.381 . S
C1328 C1334 1.383 . S
C1329 C1325 1.495 . S
C1329 H1335 0.959 1_545 S
C1329 H1336 0.961 . S
C1329 H1337 0.960 . S
C1330 C1328 1.381 . S
C1330 C1331 1.394 . S
C1330 H1338 0.930 . S
C1331 C1330 1.394 . S
C1331 C1332 1.383 . S
C1331 H1339 0.929 . S
C1332 C1331 1.383 . S
C1332 C1333 1.377 . S
C1333 H1317 0.930 . S
C1333 C1332 1.377 . S
C1333 C1334 1.379 . S
C1334 H1318 0.931 . S
C1334 C1328 1.383 . S
C1334 C1333 1.379 . S
H1335 C1329 0.959 1_565 S
H1336 C1329 0.961 . S
H1337 C1329 0.960 . S
H1338 C1330 0.930 . S
H1339 C1331 0.929 . S
H1340 C1348 0.929 . S
H1341 C1350 0.930 . S
H1342 C1352 0.930 . S
H1343 C1355 0.929 . S
H1344 C1358 0.930 . S
H1345 C1360 0.960 1_565 S
H1346 C1360 0.960 . S
H1347 C1360 0.960 . S
C1348 H1340 0.929 . S
C1348 C1349 1.377 . S
C1348 C1350 1.384 . S
C1349 C1348 1.377 . S
C1349 C1355 1.390 . S
C1350 H1341 0.930 . S
C1350 C1348 1.384 . S
C1350 C1351 1.372 . S
C1351 C1350 1.372 . S
C1351 C1352 1.400 . S
C1351 C1356 1.490 . S
C1352 H1342 0.930 . S
C1352 C1351 1.400 . S
C1352 C1355 1.386 . S
H1353 C1369 0.930 . S
H1354 C1370 0.931 . S
C1355 H1343 0.929 . S
C1355 C1349 1.390 . S
C1355 C1352 1.386 . S
C1356 C1351 1.490 . S
C1356 C1358 1.395 . S
C1356 C1359 1.403 . S
H1357 C1363 0.930 . S
C1358 H1344 0.930 . S
C1358 C1356 1.395 . S
C1358 C1361 1.392 1_545 S
C1359 C1356 1.403 . S
C1359 C1360 1.524 . S
C1359 C1363 1.400 1_545 S
C1360 H1345 0.960 1_545 S
C1360 H1346 0.960 . S
C1360 H1347 0.960 . S
C1360 C1359 1.524 . S
C1361 C1358 1.392 1_565 S
C1361 C1362 1.403 . S
C1361 C1365 1.495 . S
C1362 C1361 1.403 . S
C1362 C1363 1.385 . S
C1362 C1364 1.478 . S
C1363 H1357 0.930 . S
C1363 C1359 1.400 1_565 S
C1363 C1362 1.385 . S
C1364 C1362 1.478 . S
C1364 C1366 1.381 . S
C1364 C1370 1.383 . S
C1365 C1361 1.495 . S
C1365 H1371 0.918 1_565 S
C1365 H1372 0.988 . S
C1365 H1373 0.977 . S
C1366 C1364 1.381 . S
C1366 C1367 1.394 . S
C1366 H1374 0.930 . S
C1367 C1366 1.394 . S
C1367 C1368 1.383 . S
C1367 H1375 0.929 . S
C1368 C1367 1.383 . S
C1368 C1369 1.377 . S
C1369 H1353 0.930 . S
C1369 C1368 1.377 . S
C1369 C1370 1.379 . S
C1370 H1354 0.931 . S
C1370 C1364 1.383 . S
C1370 C1369 1.379 . S
H1371 C1365 0.918 1_545 S
H1372 C1365 0.988 . S
H1373 C1365 0.977 . S
H1374 C1366 0.930 . S
H1375 C1367 0.929 . S
C233 C9 1.398 . S
C252 C93 1.383 . S
C269 C23 1.398 . S
C288 C107 1.414 . S
C305 C65 1.402 . S
C324 C37 1.375 . S
C341 C79 1.397 . S
C360 C51 1.417 . S
C377 C205 1.398 . S
C396 C121 1.385 . S
C413 C219 1.396 . S
C432 C135 1.417 . S
C449 C149 1.394 . S
C468 C177 1.409 . S
C485 C163 1.402 . S
C504 C191 1.376 . S
C521 C7 1.411 . S
C540 C73 1.466 . S
C557 C21 1.420 . S
C576 C59 1.478 . S
C593 C35 1.422 . S
C612 C101 1.475 . S
C629 C87 1.476 . S
C648 C49 1.419 . S
C665 C185 1.476 . S
C684 C119 1.422 . S
C701 C171 1.475 . S
C720 C133 1.388 . S
C737 C147 1.422 . S
C756 C213 1.472 . S
C773 C199 1.476 . S
C792 C161 1.427 . S
C809 C176 1.357 . S
C828 C8 1.357 . S
C845 C22 1.347 . S
C864 C190 1.348 . S
C881 C204 1.356 . S
C900 C36 1.353 . S
C917 C218 1.356 . S
C936 C50 1.349 . S
C953 C120 1.349 . S
C972 C64 1.354 . S
C989 C134 1.351 . S
C1008 C78 1.358 . S
C1025 C92 1.356 . S
C1044 C148 1.341 . S
C1061 C106 1.356 . S
C1080 C162 1.344 . S
C1097 C31 1.497 . S
C1116 C3 1.498 . S
C1133 C17 1.498 . S
C1152 C45 1.496 . S
C1169 C91 1.401 . S
C1188 C63 1.378 . S
C1205 C77 1.407 . S
C1224 C105 1.404 . S
C1241 C143 1.498 . S
C1260 C115 1.491 . S
C1277 C157 1.497 . S
C1296 C129 1.497 . S
C1313 C203 1.399 . S
C1332 C175 1.374 . S
C1349 C217 1.401 . S
C1368 C189 1.390 . S
