# Generated by pormake.
# Topology noo, (5)-cn, num edge types: 1
# Building blocks:
#     Node 0, Type 0, BuildingBlock: BEQFEK_clean_sbu_0, # of connection points: 5
#     Node 1, Type 0, BuildingBlock: BEQFEK_clean_sbu_0, # of connection points: 5
#     Node 2, Type 0, BuildingBlock: BEQFEK_clean_sbu_0, # of connection points: 5
#     Node 3, Type 0, BuildingBlock: BEQFEK_clean_sbu_0, # of connection points: 5
#     Node 4, Type 0, BuildingBlock: BEQFEK_clean_sbu_0, # of connection points: 5
#     Node 5, Type 0, BuildingBlock: BEQFEK_clean_sbu_0, # of connection points: 5
#     Node 6, Type 0, BuildingBlock: BEQFEK_clean_sbu_0, # of connection points: 5
#     Node 7, Type 0, BuildingBlock: BEQFEK_clean_sbu_0, # of connection points: 5
#     Edge 8, Type (0, 0), BuildingBlock: OJICUG_clean_linker_0, # of connection points: 2
#     Edge 9, Type (0, 0), BuildingBlock: OJICUG_clean_linker_0, # of connection points: 2
#     Edge 10, Type (0, 0), BuildingBlock: OJICUG_clean_linker_0, # of connection points: 2
#     Edge 11, Type (0, 0), BuildingBlock: OJICUG_clean_linker_0, # of connection points: 2
#     Edge 12, Type (0, 0), BuildingBlock: OJICUG_clean_linker_0, # of connection points: 2
#     Edge 13, Type (0, 0), BuildingBlock: OJICUG_clean_linker_0, # of connection points: 2
#     Edge 14, Type (0, 0), BuildingBlock: OJICUG_clean_linker_0, # of connection points: 2
#     Edge 15, Type (0, 0), BuildingBlock: OJICUG_clean_linker_0, # of connection points: 2
#     Edge 16, Type (0, 0), BuildingBlock: OJICUG_clean_linker_0, # of connection points: 2
#     Edge 17, Type (0, 0), BuildingBlock: OJICUG_clean_linker_0, # of connection points: 2
#     Edge 18, Type (0, 0), BuildingBlock: OJICUG_clean_linker_0, # of connection points: 2
#     Edge 19, Type (0, 0), BuildingBlock: OJICUG_clean_linker_0, # of connection points: 2
#     Edge 20, Type (0, 0), BuildingBlock: OJICUG_clean_linker_0, # of connection points: 2
#     Edge 21, Type (0, 0), BuildingBlock: OJICUG_clean_linker_0, # of connection points: 2
#     Edge 22, Type (0, 0), BuildingBlock: OJICUG_clean_linker_0, # of connection points: 2
#     Edge 23, Type (0, 0), BuildingBlock: OJICUG_clean_linker_0, # of connection points: 2
#     Edge 24, Type (0, 0), BuildingBlock: OJICUG_clean_linker_0, # of connection points: 2
#     Edge 25, Type (0, 0), BuildingBlock: OJICUG_clean_linker_0, # of connection points: 2
#     Edge 26, Type (0, 0), BuildingBlock: OJICUG_clean_linker_0, # of connection points: 2
#     Edge 27, Type (0, 0), BuildingBlock: OJICUG_clean_linker_0, # of connection points: 2
# Relax obj value: 0.176
# Max RMSD: 0.163
# Mean RMSD: 0.163
data_MOF--net-noo--node1-BEQFEK_clean_sbu_0--edge1-OJICUG_clean_linker_0
_symmetry_space_group_name_H-M    P1
_symmetry_Int_Tables_number       1
_symmetry_cell_setting            triclinic
loop_
_symmetry_equiv_pos_as_xyz
'x, y, z'
_cell_length_a     31.03061
_cell_length_b     31.461707
_cell_length_c     21.273777
_cell_angle_alpha  90.032928
_cell_angle_beta   90.070288
_cell_angle_gamma 89.977621
loop_
_atom_site_label
_atom_site_type_symbol
_atom_site_fract_x
_atom_site_fract_y
_atom_site_fract_z
_atom_type_partial_charge
Co0 Co 0.3675 0.28106 0.07304 0.0
Co1 Co 0.40147 0.18917 0.09694 0.0
C2 C 0.35478 0.2074 0.97932 0.0
O3 O 0.34978 0.2463 0.99596 0.0
O4 O 0.37436 0.18077 1.01442 0.0
C5 C 0.35946 0.37046 0.04857 0.0
O6 O 0.39838 0.36542 0.02553 0.0
C7 C 0.43504 0.10143 0.10992 0.0
C8 C 0.4721 0.11018 0.19795 0.0
C9 C 0.4635 0.08112 0.15073 0.0
N10 N 0.42782 0.14075 0.13223 0.0
N11 N 0.44999 0.14564 0.18476 0.0
C12 C 0.41459 0.08433 0.05146 0.0
H13 H 0.38293 0.0998 0.04348 0.0
H14 H 0.41006 0.04942 0.05485 0.0
H15 H 0.4356 0.09148 1.01064 0.0
C16 C 0.32371 0.26266 0.19697 0.0
N17 N 0.34941 0.25215 0.14802 0.0
N18 N 0.3617 0.21241 0.15478 0.0
C19 C 0.34298 0.19586 0.20636 0.0
C20 C 0.31847 0.22711 0.23535 0.0
C21 C 0.30411 0.30564 0.20594 0.0
H22 H 0.28174 0.31226 0.16639 0.0
H23 H 0.28625 0.30773 0.25101 0.0
H24 H 0.32983 0.33012 0.20466 0.0
O25 O 0.43178 0.29106 0.07302 0.0
O26 O 0.45223 0.22461 0.08551 0.0
H27 H 0.37854 0.15017 0.2596 0.0
H28 H 0.32194 0.13955 0.25639 0.0
C29 C 0.34973 0.15119 0.22876 0.0
H30 H 0.35473 0.12959 0.18826 0.0
H31 H 0.45112 0.17387 0.21049 0.0
O32 O 0.33944 0.33825 0.07 0.0
C33 C 0.46149 0.26333 0.07729 0.0
Co34 Co 0.71499 0.36701 0.07046 0.0
Co35 Co 0.80564 0.40958 0.08211 0.0
C36 C 0.78639 0.35519 0.97254 0.0
O37 O 0.74851 0.34639 0.99304 0.0
O38 O 0.81153 0.3802 1.00231 0.0
C39 C 0.64347 0.30476 0.06307 0.0
O40 O 0.67183 0.27574 0.04692 0.0
C41 C 0.89638 0.44224 0.08984 0.0
C42 C 0.88924 0.48105 0.17598 0.0
C43 C 0.91853 0.46964 0.12998 0.0
N44 N 0.85586 0.43804 0.11154 0.0
N45 N 0.85196 0.46147 0.16276 0.0
C46 C 0.91349 0.41908 0.03379 0.0
H47 H 0.89545 0.38905 0.02647 0.0
H48 H 0.94832 0.41204 0.03965 0.0
H49 H 0.90923 0.43925 0.99146 0.0
C50 C 0.74352 0.33305 0.19876 0.0
N51 N 0.74825 0.3559 0.14518 0.0
N52 N 0.78799 0.37006 0.14299 0.0
C53 C 0.8108 0.35394 0.19077 0.0
C54 C 0.78326 0.33137 0.23034 0.0
C55 C 0.70155 0.31472 0.21995 0.0
H56 H 0.67428 0.33029 0.19534 0.0
H57 H 0.70101 0.28023 0.20908 0.0
H58 H 0.6977 0.3188 0.27146 0.0
O59 O 0.70143 0.42846 0.06238 0.0
O60 O 0.76563 0.45733 0.07352 0.0
H61 H 0.87069 0.38405 0.21517 0.0
H62 H 0.87227 0.32665 0.2173 0.0
C63 C 0.85918 0.35464 0.19191 0.0
H64 H 0.87185 0.35452 0.14314 0.0
H65 H 0.82356 0.46414 0.18869 0.0
O66 O 0.65612 0.34222 0.07514 0.0
C67 C 0.7254 0.46107 0.06552 0.0
Co68 Co 0.6438 0.71843 0.07065 0.0
Co69 Co 0.60941 0.81057 0.08428 0.0
C70 C 0.65938 0.79061 0.97391 0.0
O71 O 0.66399 0.75212 0.99295 0.0
O72 O 0.63816 0.81791 1.00546 0.0
C73 C 0.6528 0.62992 0.04654 0.0
O74 O 0.61529 0.63559 1.01915 0.0
C75 C 0.57525 0.89845 0.09935 0.0
C76 C 0.54264 0.88917 0.19083 0.0
C77 C 0.54907 0.91859 0.14346 0.0
N78 N 0.58329 0.8589 0.12012 0.0
N79 N 0.56377 0.85372 0.1747 0.0
C80 C 0.59322 0.91607 0.03962 0.0
H81 H 0.62382 0.89978 0.02752 0.0
H82 H 0.59905 0.95075 0.04405 0.0
H83 H 0.5699 0.91047 1.00092 0.0
C84 C 0.68232 0.74276 0.19845 0.0
N85 N 0.65934 0.74933 0.14504 0.0
N86 N 0.64907 0.78967 0.14243 0.0
C87 C 0.66809 0.8108 0.18934 0.0
C88 C 0.68818 0.78183 0.22919 0.0
C89 C 0.69677 0.69995 0.22043 0.0
H90 H 0.6793 0.67445 0.19495 0.0
H91 H 0.73182 0.69652 0.21147 0.0
H92 H 0.69127 0.69667 0.27174 0.0
O93 O 0.57992 0.70803 0.06719 0.0
O94 O 0.55895 0.7748 0.07128 0.0
H95 H 0.64421 0.87295 0.21369 0.0
H96 H 0.70215 0.86841 0.21429 0.0
C97 C 0.67225 0.85838 0.18975 0.0
H98 H 0.67276 0.87055 0.14077 0.0
H99 H 0.56421 0.82545 0.20034 0.0
O100 O 0.672 0.66166 0.07096 0.0
C101 C 0.55011 0.73574 0.06612 0.0
Co102 Co 0.29667 0.6338 0.06699 0.0
Co103 Co 0.20658 0.59194 0.08772 0.0
C104 C 0.22396 0.64508 0.97301 0.0
O105 O 0.26247 0.65328 0.99113 0.0
O106 O 0.199 0.62134 1.00545 0.0
C107 C 0.36918 0.69258 0.0456 0.0
O108 O 0.3419 0.71817 1.01727 0.0
C109 C 0.11544 0.56162 0.09617 0.0
C110 C 0.12273 0.51835 0.17742 0.0
C111 C 0.09319 0.53263 0.13347 0.0
N112 N 0.15624 0.56399 0.11743 0.0
N113 N 0.16025 0.53788 0.1657 0.0
C114 C 0.09835 0.58747 0.04271 0.0
H115 H 0.11622 0.61792 0.03916 0.0
H116 H 0.06346 0.59398 0.04886 0.0
H117 H 0.10302 0.56961 0.99824 0.0
C118 C 0.27421 0.67343 0.19145 0.0
N119 N 0.26589 0.64735 0.14239 0.0
N120 N 0.22714 0.63104 0.14936 0.0
C121 C 0.20917 0.64702 0.20205 0.0
C122 C 0.23838 0.67438 0.23076 0.0
C123 C 0.31502 0.69819 0.19889 0.0
H124 H 0.34292 0.67614 0.19737 0.0
H125 H 0.31827 0.72055 0.15887 0.0
H126 H 0.31546 0.71638 0.24359 0.0
O127 O 0.30943 0.57195 0.06073 0.0
O128 O 0.24574 0.54325 0.07743 0.0
H129 H 0.16683 0.60344 0.24762 0.0
H130 H 0.15303 0.65803 0.2608 0.0
C131 C 0.16524 0.63525 0.22535 0.0
H132 H 0.1423 0.63377 0.18541 0.0
H133 H 0.18897 0.53306 0.19026 0.0
O134 O 0.35562 0.65815 0.06938 0.0
C135 C 0.28567 0.53935 0.06657 0.0
Co136 Co 0.87585 0.21684 0.64426 0.0
Co137 Co 0.91068 0.30835 0.63197 0.0
C138 C 0.85805 0.28851 0.74084 0.0
O139 O 0.85329 0.25002 0.72157 0.0
O140 O 0.8803 0.3154 0.71005 0.0
C141 C 0.81929 0.14427 0.66783 0.0
O142 O 0.79437 0.17043 0.69938 0.0
C143 C 0.94368 0.39674 0.61757 0.0
C144 C 0.97909 0.38703 0.52837 0.0
C145 C 0.97048 0.4169 0.57439 0.0
N146 N 0.93729 0.35674 0.59754 0.0
N147 N 0.95851 0.35128 0.54438 0.0
C148 C 0.9235 0.41483 0.6755 0.0
H149 H 0.89299 0.39797 0.68621 0.0
H150 H 0.91701 0.44929 0.6696 0.0
H151 H 0.94578 0.41038 0.7158 0.0
C152 C 0.84018 0.24078 0.51414 0.0
N153 N 0.86188 0.24739 0.5687 0.0
N154 N 0.87237 0.28765 0.57155 0.0
C155 C 0.85478 0.30874 0.52339 0.0
C156 C 0.83546 0.27976 0.48267 0.0
C157 C 0.82567 0.19802 0.49203 0.0
H158 H 0.84251 0.17246 0.51825 0.0
H159 H 0.79047 0.19494 0.49998 0.0
H160 H 0.83191 0.19443 0.44094 0.0
O161 O 0.93913 0.20655 0.65149 0.0
O162 O 0.96127 0.27281 0.64592 0.0
H163 H 0.87924 0.37072 0.49968 0.0
H164 H 0.82129 0.36642 0.49709 0.0
C165 C 0.85076 0.35632 0.52269 0.0
H166 H 0.84941 0.36862 0.57158 0.0
H167 H 0.95943 0.3227 0.5195 0.0
O168 O 0.85276 0.15842 0.6409 0.0
C169 C 0.9694 0.23368 0.65224 0.0
Co170 Co 0.79958 0.8735 0.64434 0.0
Co171 Co 0.70556 0.90539 0.62917 0.0
C172 C 0.72625 0.85574 0.73949 0.0
O173 O 0.76559 0.85192 0.7214 0.0
O174 O 0.69856 0.87627 0.70736 0.0
C175 C 0.86975 0.81167 0.6478 0.0
O176 O 0.83959 0.78247 0.65127 0.0
C177 C 0.61552 0.93664 0.61469 0.0
C178 C 0.624 0.97092 0.5247 0.0
C179 C 0.59433 0.96269 0.57164 0.0
N180 N 0.65587 0.93036 0.59379 0.0
N181 N 0.66059 0.95089 0.54012 0.0
C182 C 0.59811 0.91721 0.67354 0.0
H183 H 0.61529 0.88713 0.68416 0.0
H184 H 0.56308 0.91082 0.66889 0.0
H185 H 0.60334 0.93945 0.71333 0.0
C186 C 0.77707 0.83629 0.51488 0.0
N187 N 0.76937 0.85804 0.56881 0.0
N188 N 0.72822 0.86739 0.5706 0.0
C189 C 0.70775 0.84899 0.5225 0.0
C190 C 0.73794 0.83029 0.48298 0.0
C191 C 0.82094 0.82326 0.49329 0.0
H192 H 0.84611 0.84207 0.51776 0.0
H193 H 0.82584 0.78909 0.50409 0.0
H194 H 0.82397 0.82758 0.44171 0.0
O195 O 0.80842 0.93635 0.64975 0.0
O196 O 0.7404 0.95583 0.64348 0.0
H197 H 0.64508 0.87233 0.4959 0.0
H198 H 0.65018 0.8153 0.49404 0.0
C199 C 0.65958 0.84454 0.51987 0.0
H200 H 0.64624 0.84329 0.56823 0.0
H201 H 0.68928 0.95188 0.51463 0.0
O202 O 0.85901 0.85051 0.64434 0.0
C203 C 0.77974 0.96517 0.65014 0.0
Co204 Co 0.14402 0.7828 0.64123 0.0
Co205 Co 0.11042 0.69118 0.6182 0.0
C206 C 0.15887 0.7099 0.73494 0.0
O207 O 0.16392 0.74878 0.71815 0.0
O208 O 0.13853 0.68348 0.70036 0.0
C209 C 0.20267 0.85536 0.66063 0.0
O210 O 0.23176 0.82795 0.67995 0.0
C211 C 0.07863 0.6028 0.60627 0.0
C212 C 0.04057 0.61063 0.51894 0.0
C213 C 0.05037 0.58183 0.56596 0.0
N214 N 0.08466 0.64224 0.58387 0.0
N215 N 0.06187 0.64661 0.53181 0.0
C216 C 0.09999 0.58615 0.66431 0.0
H217 H 0.07932 0.59312 0.70558 0.0
H218 H 0.13149 0.60211 0.67148 0.0
H219 H 0.10501 0.5513 0.661 0.0
C220 C 0.1858 0.7649 0.51485 0.0
N221 N 0.16135 0.75435 0.56518 0.0
N222 N 0.14928 0.71448 0.55912 0.0
C223 C 0.16705 0.69791 0.50681 0.0
C224 C 0.19046 0.72923 0.47649 0.0
C225 C 0.2047 0.80797 0.5043 0.0
H226 H 0.23142 0.81302 0.53819 0.0
H227 H 0.21738 0.81122 0.45577 0.0
H228 H 0.17992 0.83267 0.51333 0.0
O229 O 0.08021 0.79181 0.64389 0.0
O230 O 0.05897 0.72586 0.62942 0.0
H231 H 0.189 0.64198 0.457 0.0
H232 H 0.15738 0.63149 0.52628 0.0
C233 C 0.16118 0.65292 0.48534 0.0
H234 H 0.13202 0.65091 0.4553 0.0
H235 H 0.05985 0.67478 0.50609 0.0
O236 O 0.16607 0.84205 0.6427 0.0
C237 C 0.05021 0.76459 0.63871 0.0
Co238 Co 0.22037 0.12702 0.64612 0.0
Co239 Co 0.31409 0.09674 0.62176 0.0
C240 C 0.29465 0.14435 0.73808 0.0
O241 O 0.25494 0.14751 0.72191 0.0
O242 O 0.3221 0.12533 0.70332 0.0
C243 C 0.14908 0.18546 0.66765 0.0
O244 O 0.17857 0.21286 0.6857 0.0
C245 C 0.40442 0.06719 0.60797 0.0
C246 C 0.39646 0.02984 0.52053 0.0
C247 C 0.42594 0.03993 0.56705 0.0
N248 N 0.36406 0.0724 0.58636 0.0
N249 N 0.35964 0.05002 0.53422 0.0
C250 C 0.42138 0.08835 0.6659 0.0
H251 H 0.40449 0.11897 0.67377 0.0
H252 H 0.45654 0.09418 0.66191 0.0
H253 H 0.41531 0.06757 0.70707 0.0
C254 C 0.23613 0.17008 0.52102 0.0
N255 N 0.24791 0.14517 0.56997 0.0
N256 N 0.28852 0.13425 0.56277 0.0
C257 C 0.30435 0.1531 0.51081 0.0
C258 C 0.27172 0.17629 0.48218 0.0
C259 C 0.19214 0.18864 0.51281 0.0
H260 H 0.16738 0.16413 0.52283 0.0
H261 H 0.18783 0.21492 0.54701 0.0
H262 H 0.18755 0.20139 0.46463 0.0
O263 O 0.21275 0.06381 0.64909 0.0
O264 O 0.28048 0.04514 0.63576 0.0
H265 H 0.3518 0.11923 0.45809 0.0
H266 H 0.36026 0.17547 0.4594 0.0
C267 C 0.34975 0.14801 0.48804 0.0
H268 H 0.37206 0.1445 0.52843 0.0
H269 H 0.33087 0.0475 0.50902 0.0
O270 O 0.16056 0.1488 0.64934 0.0
C271 C 0.24156 0.03521 0.6453 0.0
C272 C 0.51617 0.9811 0.08684 0.0
C273 C 0.52887 0.96106 0.1429 0.0
H274 H 0.48667 0.03544 0.04471 0.0
C275 C 0.51895 0.98039 0.20057 0.0
H276 H 0.52201 0.96653 0.04164 0.0
C277 C 0.49688 0.01878 0.2024 0.0
C278 C 0.48419 0.03898 0.14659 0.0
H279 H 0.52813 0.96572 0.24468 0.0
H280 H 0.48973 0.03266 0.24783 0.0
C281 C 0.49449 0.02006 0.08866 0.0
C282 C 0.985 0.49189 0.1857 0.0
C283 C 0.96367 0.48457 0.1285 0.0
H284 H 0.04222 0.51314 0.23165 0.0
C285 C 0.98485 0.49432 0.07194 0.0
H286 H 0.96948 0.48484 0.23009 0.0
C287 C 0.02682 0.51084 0.07286 0.0
C288 C 0.04799 0.51802 0.13037 0.0
H289 H 0.96887 0.48999 0.02717 0.0
H290 H 0.04283 0.51713 0.02869 0.0
C291 C 0.02667 0.50815 0.18661 0.0
C292 C 0.99881 0.47911 0.51671 0.0
C293 C 0.98905 0.45999 0.57455 0.0
H294 H 0.02661 0.53196 0.46914 0.0
C295 C 1.00047 0.48087 0.63051 0.0
H296 H 0.99054 0.46375 0.47272 0.0
C297 C 0.02091 0.52044 0.62843 0.0
C298 C 0.03105 0.53917 0.57035 0.0
H299 H 0.99461 0.46648 0.67582 0.0
H300 H 0.02794 0.53645 0.67222 0.0
C301 C 0.01953 0.51818 0.51465 0.0
C302 C 0.53035 0.99049 0.51544 0.0
C303 C 0.55056 0.98101 0.5728 0.0
H304 H 0.47583 0.01728 0.46911 0.0
C305 C 0.52998 0.99223 0.62922 0.0
H306 H 0.54544 0.98244 0.47109 0.0
C307 C 0.48958 0.01195 0.62807 0.0
C308 C 0.46966 0.02163 0.57046 0.0
H309 H 0.5452 0.98668 0.6742 0.0
H310 H 0.47384 0.01872 0.67225 0.0
C311 C 0.49045 0.01051 0.51429 0.0
C312 C 0.34713 0.49036 0.04076 0.0
C313 C 0.30448 0.49612 0.06117 0.0
H314 H 0.39773 0.4463 1.02025 0.0
C315 C 0.27982 0.46005 0.07665 0.0
H316 H 0.36699 0.51738 0.02834 0.0
C317 C 0.29752 0.41925 0.07234 0.0
C318 C 0.34017 0.41353 0.05193 0.0
H319 H 0.24687 0.46329 0.0927 0.0
H320 H 0.27777 0.39223 0.08511 0.0
C321 C 0.3647 0.44954 0.03596 0.0
C322 C 0.53894 0.24259 0.06557 0.0
C323 C 0.5078 0.2749 0.07253 0.0
H324 H 0.60569 0.22655 0.05689 0.0
C325 C 0.52171 0.3173 0.07587 0.0
H326 H 0.52949 0.2095 0.06257 0.0
C327 C 0.56579 0.327 0.07315 0.0
C328 C 0.59682 0.29455 0.06629 0.0
H329 H 0.49866 0.3429 0.08131 0.0
H330 H 0.57553 0.36 0.07617 0.0
C331 C 0.58278 0.25229 0.06221 0.0
C332 C 0.64682 0.55096 0.03439 0.0
C333 C 0.67155 0.58679 0.0507 0.0
H334 H 0.6442 0.48311 0.02676 0.0
C335 C 0.714 0.5809 0.07184 0.0
H336 H 0.6139 0.55442 1.01818 0.0
C337 C 0.73143 0.54008 0.07629 0.0
C338 C 0.70664 0.50419 0.06036 0.0
H339 H 0.73386 0.60783 0.08481 0.0
H340 H 0.7643 0.53668 0.09276 0.0
C341 C 0.6641 0.51006 0.03951 0.0
C342 C 0.42997 0.74449 0.03673 0.0
C343 C 0.41563 0.70317 0.04964 0.0
H344 H 0.48344 0.78703 0.03202 0.0
C345 C 0.44613 0.67196 0.06652 0.0
H346 H 0.40739 0.76922 1.0236 0.0
C347 C 0.49004 0.68199 0.07062 0.0
C348 C 0.5042 0.7236 0.0589 0.0
H349 H 0.4361 0.63968 0.07642 0.0
H350 H 0.51272 0.65743 0.08406 0.0
C351 C 0.47364 0.75464 0.04171 0.0
C352 C 0.75952 0.03973 0.67735 0.0
C353 C 0.79115 0.01053 0.65758 0.0
H354 H 0.74366 0.10467 0.69657 0.0
C355 C 0.83242 0.02555 0.64257 0.0
H356 H 0.7274 0.02911 0.68958 0.0
C357 C 0.84148 0.06908 0.6457 0.0
C358 C 0.80966 0.09827 0.66493 0.0
H359 H 0.85734 0.00386 0.62699 0.0
H360 H 0.87348 0.07983 0.63309 0.0
C361 C 0.76877 0.08306 0.68145 0.0
C362 C 0.97186 0.7458 0.64257 0.0
C363 C 1.00422 0.77722 0.64265 0.0
H364 H 0.90438 0.73191 0.64433 0.0
C365 C 0.99191 0.82013 0.64535 0.0
H366 H 0.98007 0.71235 0.64065 0.0
C367 C 0.94825 0.83131 0.6472 0.0
C368 C 0.91597 0.79981 0.64674 0.0
H369 H 0.01595 0.84509 0.6454 0.0
H370 H 0.93982 0.86471 0.64884 0.0
C371 C 0.92833 0.75695 0.64474 0.0
C372 C 0.26366 0.95966 0.66299 0.0
C373 C 0.23069 0.9895 0.65165 0.0
H374 H 0.28071 0.89425 0.67526 0.0
C375 C 0.1882 0.97491 0.64481 0.0
H376 H 0.29678 0.9698 0.66887 0.0
C377 C 0.17909 0.93134 0.64785 0.0
C378 C 0.2122 0.90153 0.65864 0.0
H379 H 0.16213 0.99702 0.63591 0.0
H380 H 0.14606 0.92102 0.64161 0.0
C381 C 0.25449 0.91627 0.66681 0.0
C382 C 0.02742 0.17783 0.65189 0.0
C383 C 0.01499 0.22045 0.65919 0.0
H384 H 0.07963 0.13336 0.64841 0.0
C385 C 0.04695 0.2512 0.67117 0.0
H386 H 1.00365 0.15343 0.6425 0.0
C387 C 0.09034 0.23974 0.67496 0.0
C388 C 0.10292 0.19733 0.66629 0.0
H389 H 0.03852 0.28436 0.67729 0.0
H390 H 0.11407 0.26431 0.68366 0.0
C391 C 0.07098 0.16642 0.65507 0.0
C392 C 0.31554 0.24368 0.3501 0.0
C393 C 0.29741 0.22335 0.29766 0.0
H394 H 0.32065 0.24508 0.45079 0.0
C395 C 0.26469 0.19314 0.30706 0.0
H396 H 0.34098 0.26689 0.34404 0.0
C397 C 0.25334 0.18041 0.36795 0.0
C398 C 0.27446 0.19786 0.42029 0.0
H399 H 0.25025 0.17707 0.26721 0.0
H400 H 0.23054 0.15466 0.3739 0.0
C401 C 0.30407 0.23107 0.41101 0.0
C402 C 0.77475 0.2808 0.32447 0.0
C403 C 0.7944 0.31603 0.29505 0.0
H404 H 0.7706 0.24227 0.40814 0.0
C405 C 0.82674 0.33765 0.32816 0.0
H406 H 0.74991 0.26289 0.3006 0.0
C407 C 0.84152 0.32314 0.38559 0.0
C408 C 0.82102 0.28968 0.4171 0.0
H409 H 0.84127 0.36628 0.31011 0.0
H410 H 0.86927 0.33899 0.40526 0.0
C411 C 0.78735 0.26827 0.38568 0.0
C412 C 0.69658 0.83857 0.38436 0.0
C413 C 0.72895 0.81676 0.41701 0.0
H414 H 0.65421 0.84035 0.30728 0.0
C415 C 0.74961 0.78249 0.38669 0.0
H416 H 0.68139 0.86655 0.40368 0.0
C417 C 0.73722 0.77046 0.32515 0.0
C418 C 0.70309 0.79167 0.29442 0.0
H419 H 0.7748 0.76489 0.4104 0.0
H420 H 0.75427 0.74489 0.30199 0.0
C421 C 0.68221 0.82467 0.3265 0.0
C422 C 0.18777 0.73997 0.36039 0.0
C423 C 0.21013 0.72504 0.41332 0.0
H424 H 0.17971 0.73577 0.26025 0.0
C425 C 0.24596 0.69835 0.40461 0.0
H426 H 0.15967 0.76006 0.36606 0.0
C427 C 0.2573 0.68433 0.34427 0.0
C428 C 0.23276 0.69656 0.29185 0.0
H429 H 0.2633 0.686 0.44489 0.0
H430 H 0.28334 0.66166 0.33909 0.0
C431 C 0.19901 0.72585 0.30009 0.0
C432 C 0.7139 0.78617 0.8854 0.0
C433 C 0.67736 0.80493 0.91313 0.0
H434 H 0.75918 0.78812 0.80856 0.0
C435 C 0.6581 0.83999 0.88358 0.0
H436 H 0.72954 0.75925 0.90748 0.0
C437 C 0.67464 0.8561 0.828 0.0
C438 C 0.71127 0.83795 0.80004 0.0
H439 H 0.62984 0.85519 0.90333 0.0
H440 H 0.65858 0.88323 0.80708 0.0
C441 C 0.73105 0.80288 0.82933 0.0
C442 C 0.15715 0.65859 0.82478 0.0
C443 C 0.17575 0.69458 0.79646 0.0
H444 H 0.15724 0.61537 0.9023 0.0
C445 C 0.21045 0.71465 0.82706 0.0
H446 H 0.13025 0.6424 0.8028 0.0
C447 C 0.2266 0.69851 0.8841 0.0
C448 C 0.2077 0.66258 0.91238 0.0
H449 H 0.22557 0.74234 0.80643 0.0
H450 H 0.25359 0.71438 0.90632 0.0
C451 C 0.17258 0.64311 0.88211 0.0
C452 C 0.34553 0.14327 0.82918 0.0
C453 C 0.30944 0.16144 0.79957 0.0
H454 H 0.38747 0.14311 0.90895 0.0
C455 C 0.28827 0.19552 0.82934 0.0
H456 H 0.36251 0.11689 0.80775 0.0
C457 C 0.30331 0.21131 0.88722 0.0
C458 C 0.33901 0.19249 0.91712 0.0
H459 H 0.26046 0.21027 0.80757 0.0
H460 H 0.28656 0.23766 0.90907 0.0
C461 C 0.35977 0.15823 0.88741 0.0
C462 C 0.80334 0.28333 0.82944 0.0
C463 C 0.83878 0.30344 0.8008 0.0
H464 H 0.75797 0.28429 0.90619 0.0
C465 C 0.85583 0.3402 0.82892 0.0
H466 H 0.78937 0.25506 0.8087 0.0
C467 C 0.83825 0.35658 0.8838 0.0
C468 C 0.80273 0.33703 0.91265 0.0
H469 H 0.8832 0.35657 0.80863 0.0
H470 H 0.8527 0.38498 0.90349 0.0
C471 C 0.78519 0.30023 0.88483 0.0
loop_
_geom_bond_atom_site_label_1
_geom_bond_atom_site_label_2
_geom_bond_distance
_geom_bond_site_symmetry_2
_ccdc_geom_bond_type
Co0 O3 1.970 1_554 S
Co0 N17 1.989 . S
Co0 O25 1.967 . S
Co0 O32 1.920 . S
Co1 O4 1.966 1_554 S
Co1 N10 2.022 . S
Co1 N18 1.993 . S
Co1 O26 1.941 . S
C2 O3 1.258 . S
C2 O4 1.263 . S
O3 Co0 1.970 1_556 S
O3 C2 1.258 . S
O4 Co1 1.966 1_556 S
O4 C2 1.263 . S
C5 O6 1.235 . S
C5 O32 1.289 . S
O6 C5 1.235 . S
C7 C9 1.400 . S
C7 N10 1.351 . S
C7 C12 1.501 1_554 S
C8 C9 1.387 . S
C8 N11 1.341 . S
C9 C7 1.400 . S
C9 C8 1.387 . S
N10 Co1 2.022 . S
N10 C7 1.351 . S
N10 N11 1.365 . S
N11 C8 1.341 . S
N11 N10 1.365 . S
N11 H31 0.862 . S
C12 C7 1.501 1_556 S
C12 H13 0.961 . S
C12 H14 0.961 . S
C12 H15 0.960 . S
H13 C12 0.961 . S
H14 C12 0.961 . S
H15 C12 0.960 . S
C16 N17 1.342 . S
C16 C20 1.401 . S
C16 C21 1.499 . S
N17 Co0 1.989 . S
N17 C16 1.342 . S
N17 N18 1.388 . S
N18 Co1 1.993 . S
N18 N17 1.388 . S
N18 C19 1.346 . S
C19 N18 1.346 . S
C19 C20 1.396 . S
C19 C29 1.510 . S
C20 C16 1.401 . S
C20 C19 1.396 . S
C21 C16 1.499 . S
C21 H22 0.959 . S
C21 H23 0.960 . S
C21 H24 0.961 . S
H22 C21 0.959 . S
H23 C21 0.960 . S
H24 C21 0.961 . S
O25 Co0 1.967 . S
O25 C33 1.258 . S
O26 Co1 1.941 . S
O26 C33 1.266 . S
H27 C29 0.959 . S
H28 C29 0.961 . S
C29 C19 1.510 . S
C29 H27 0.959 . S
C29 H28 0.961 . S
C29 H30 0.960 . S
H30 C29 0.960 . S
H31 N11 0.862 . S
O32 Co0 1.920 . S
O32 C5 1.289 . S
C33 O25 1.258 . S
C33 O26 1.266 . S
Co34 O37 1.970 1_554 S
Co34 N51 1.989 . S
Co34 O59 1.967 . S
Co34 O66 1.920 . S
Co35 O38 1.966 1_554 S
Co35 N44 2.022 . S
Co35 N52 1.993 . S
Co35 O60 1.941 . S
C36 O37 1.258 . S
C36 O38 1.263 . S
O37 Co34 1.970 1_556 S
O37 C36 1.258 . S
O38 Co35 1.966 1_556 S
O38 C36 1.263 . S
C39 O40 1.235 . S
C39 O66 1.289 . S
O40 C39 1.235 . S
C41 C43 1.400 . S
C41 N44 1.351 . S
C41 C46 1.501 1_554 S
C42 C43 1.387 . S
C42 N45 1.341 . S
C43 C41 1.400 . S
C43 C42 1.387 . S
N44 Co35 2.022 . S
N44 C41 1.351 . S
N44 N45 1.365 . S
N45 C42 1.341 . S
N45 N44 1.365 . S
N45 H65 0.862 . S
C46 C41 1.501 1_556 S
C46 H47 0.961 . S
C46 H48 0.961 . S
C46 H49 0.960 . S
H47 C46 0.961 . S
H48 C46 0.961 . S
H49 C46 0.960 . S
C50 N51 1.342 . S
C50 C54 1.401 . S
C50 C55 1.499 . S
N51 Co34 1.989 . S
N51 C50 1.342 . S
N51 N52 1.388 . S
N52 Co35 1.993 . S
N52 N51 1.388 . S
N52 C53 1.346 . S
C53 N52 1.346 . S
C53 C54 1.396 . S
C53 C63 1.510 . S
C54 C50 1.401 . S
C54 C53 1.396 . S
C55 C50 1.499 . S
C55 H56 0.959 . S
C55 H57 0.960 . S
C55 H58 0.961 . S
H56 C55 0.959 . S
H57 C55 0.960 . S
H58 C55 0.961 . S
O59 Co34 1.967 . S
O59 C67 1.258 . S
O60 Co35 1.941 . S
O60 C67 1.266 . S
H61 C63 0.959 . S
H62 C63 0.961 . S
C63 C53 1.510 . S
C63 H61 0.959 . S
C63 H62 0.961 . S
C63 H64 0.960 . S
H64 C63 0.960 . S
H65 N45 0.862 . S
O66 Co34 1.920 . S
O66 C39 1.289 . S
C67 O59 1.258 . S
C67 O60 1.266 . S
Co68 O71 1.970 1_554 S
Co68 N85 1.989 . S
Co68 O93 1.967 . S
Co68 O100 1.920 . S
Co69 O72 1.966 1_554 S
Co69 N78 2.022 . S
Co69 N86 1.993 . S
Co69 O94 1.941 . S
C70 O71 1.258 . S
C70 O72 1.263 . S
O71 Co68 1.970 1_556 S
O71 C70 1.258 . S
O72 Co69 1.966 1_556 S
O72 C70 1.263 . S
C73 O74 1.235 . S
C73 O100 1.289 . S
O74 C73 1.235 . S
C75 C77 1.400 . S
C75 N78 1.351 . S
C75 C80 1.501 1_554 S
C76 C77 1.387 . S
C76 N79 1.341 . S
C77 C75 1.400 . S
C77 C76 1.387 . S
N78 Co69 2.022 . S
N78 C75 1.351 . S
N78 N79 1.365 . S
N79 C76 1.341 . S
N79 N78 1.365 . S
N79 H99 0.862 . S
C80 C75 1.501 1_556 S
C80 H81 0.961 . S
C80 H82 0.961 . S
C80 H83 0.960 . S
H81 C80 0.961 . S
H82 C80 0.961 . S
H83 C80 0.960 . S
C84 N85 1.342 . S
C84 C88 1.401 . S
C84 C89 1.499 . S
N85 Co68 1.989 . S
N85 C84 1.342 . S
N85 N86 1.388 . S
N86 Co69 1.993 . S
N86 N85 1.388 . S
N86 C87 1.346 . S
C87 N86 1.346 . S
C87 C88 1.396 . S
C87 C97 1.510 . S
C88 C84 1.401 . S
C88 C87 1.396 . S
C89 C84 1.499 . S
C89 H90 0.959 . S
C89 H91 0.960 . S
C89 H92 0.961 . S
H90 C89 0.959 . S
H91 C89 0.960 . S
H92 C89 0.961 . S
O93 Co68 1.967 . S
O93 C101 1.258 . S
O94 Co69 1.941 . S
O94 C101 1.266 . S
H95 C97 0.959 . S
H96 C97 0.961 . S
C97 C87 1.510 . S
C97 H95 0.959 . S
C97 H96 0.961 . S
C97 H98 0.960 . S
H98 C97 0.960 . S
H99 N79 0.862 . S
O100 Co68 1.920 . S
O100 C73 1.289 . S
C101 O93 1.258 . S
C101 O94 1.266 . S
Co102 O105 1.970 1_554 S
Co102 N119 1.989 . S
Co102 O127 1.967 . S
Co102 O134 1.920 . S
Co103 O106 1.966 1_554 S
Co103 N112 2.022 . S
Co103 N120 1.993 . S
Co103 O128 1.941 . S
C104 O105 1.258 . S
C104 O106 1.263 . S
O105 Co102 1.970 1_556 S
O105 C104 1.258 . S
O106 Co103 1.966 1_556 S
O106 C104 1.263 . S
C107 O108 1.235 . S
C107 O134 1.289 . S
O108 C107 1.235 . S
C109 C111 1.400 . S
C109 N112 1.351 . S
C109 C114 1.501 1_554 S
C110 C111 1.387 . S
C110 N113 1.341 . S
C111 C109 1.400 . S
C111 C110 1.387 . S
N112 Co103 2.022 . S
N112 C109 1.351 . S
N112 N113 1.365 . S
N113 C110 1.341 . S
N113 N112 1.365 . S
N113 H133 0.862 . S
C114 C109 1.501 1_556 S
C114 H115 0.961 . S
C114 H116 0.961 . S
C114 H117 0.960 . S
H115 C114 0.961 . S
H116 C114 0.961 . S
H117 C114 0.960 . S
C118 N119 1.342 . S
C118 C122 1.401 . S
C118 C123 1.499 . S
N119 Co102 1.989 . S
N119 C118 1.342 . S
N119 N120 1.388 . S
N120 Co103 1.993 . S
N120 N119 1.388 . S
N120 C121 1.346 . S
C121 N120 1.346 . S
C121 C122 1.396 . S
C121 C131 1.510 . S
C122 C118 1.401 . S
C122 C121 1.396 . S
C123 C118 1.499 . S
C123 H124 0.959 . S
C123 H125 0.960 . S
C123 H126 0.961 . S
H124 C123 0.959 . S
H125 C123 0.960 . S
H126 C123 0.961 . S
O127 Co102 1.967 . S
O127 C135 1.258 . S
O128 Co103 1.941 . S
O128 C135 1.266 . S
H129 C131 0.959 . S
H130 C131 0.961 . S
C131 C121 1.510 . S
C131 H129 0.959 . S
C131 H130 0.961 . S
C131 H132 0.960 . S
H132 C131 0.960 . S
H133 N113 0.862 . S
O134 Co102 1.920 . S
O134 C107 1.289 . S
C135 O127 1.258 . S
C135 O128 1.266 . S
Co136 O139 1.970 . S
Co136 N153 1.989 . S
Co136 O161 1.967 . S
Co136 O168 1.920 . S
Co137 O140 1.966 . S
Co137 N146 2.022 . S
Co137 N154 1.993 . S
Co137 O162 1.941 . S
C138 O139 1.258 . S
C138 O140 1.263 . S
O139 Co136 1.970 . S
O139 C138 1.258 . S
O140 Co137 1.966 . S
O140 C138 1.263 . S
C141 O142 1.235 . S
C141 O168 1.289 . S
O142 C141 1.235 . S
C143 C145 1.400 . S
C143 N146 1.351 . S
C143 C148 1.501 . S
C144 C145 1.387 . S
C144 N147 1.341 . S
C145 C143 1.400 . S
C145 C144 1.387 . S
N146 Co137 2.022 . S
N146 C143 1.351 . S
N146 N147 1.365 . S
N147 C144 1.341 . S
N147 N146 1.365 . S
N147 H167 0.862 . S
C148 C143 1.501 . S
C148 H149 0.961 . S
C148 H150 0.961 . S
C148 H151 0.960 . S
H149 C148 0.961 . S
H150 C148 0.961 . S
H151 C148 0.960 . S
C152 N153 1.342 . S
C152 C156 1.401 . S
C152 C157 1.499 . S
N153 Co136 1.989 . S
N153 C152 1.342 . S
N153 N154 1.388 . S
N154 Co137 1.993 . S
N154 N153 1.388 . S
N154 C155 1.346 . S
C155 N154 1.346 . S
C155 C156 1.396 . S
C155 C165 1.510 . S
C156 C152 1.401 . S
C156 C155 1.396 . S
C157 C152 1.499 . S
C157 H158 0.959 . S
C157 H159 0.960 . S
C157 H160 0.961 . S
H158 C157 0.959 . S
H159 C157 0.960 . S
H160 C157 0.961 . S
O161 Co136 1.967 . S
O161 C169 1.258 . S
O162 Co137 1.941 . S
O162 C169 1.266 . S
H163 C165 0.959 . S
H164 C165 0.961 . S
C165 C155 1.510 . S
C165 H163 0.959 . S
C165 H164 0.961 . S
C165 H166 0.960 . S
H166 C165 0.960 . S
H167 N147 0.862 . S
O168 Co136 1.920 . S
O168 C141 1.289 . S
C169 O161 1.258 . S
C169 O162 1.266 . S
Co170 O173 1.970 . S
Co170 N187 1.989 . S
Co170 O195 1.967 . S
Co170 O202 1.920 . S
Co171 O174 1.966 . S
Co171 N180 2.022 . S
Co171 N188 1.993 . S
Co171 O196 1.941 . S
C172 O173 1.258 . S
C172 O174 1.263 . S
O173 Co170 1.970 . S
O173 C172 1.258 . S
O174 Co171 1.966 . S
O174 C172 1.263 . S
C175 O176 1.235 . S
C175 O202 1.289 . S
O176 C175 1.235 . S
C177 C179 1.400 . S
C177 N180 1.351 . S
C177 C182 1.501 . S
C178 C179 1.387 . S
C178 N181 1.341 . S
C179 C177 1.400 . S
C179 C178 1.387 . S
N180 Co171 2.022 . S
N180 C177 1.351 . S
N180 N181 1.365 . S
N181 C178 1.341 . S
N181 N180 1.365 . S
N181 H201 0.862 . S
C182 C177 1.501 . S
C182 H183 0.961 . S
C182 H184 0.961 . S
C182 H185 0.960 . S
H183 C182 0.961 . S
H184 C182 0.961 . S
H185 C182 0.960 . S
C186 N187 1.342 . S
C186 C190 1.401 . S
C186 C191 1.499 . S
N187 Co170 1.989 . S
N187 C186 1.342 . S
N187 N188 1.388 . S
N188 Co171 1.993 . S
N188 N187 1.388 . S
N188 C189 1.346 . S
C189 N188 1.346 . S
C189 C190 1.396 . S
C189 C199 1.510 . S
C190 C186 1.401 . S
C190 C189 1.396 . S
C191 C186 1.499 . S
C191 H192 0.959 . S
C191 H193 0.960 . S
C191 H194 0.961 . S
H192 C191 0.959 . S
H193 C191 0.960 . S
H194 C191 0.961 . S
O195 Co170 1.967 . S
O195 C203 1.258 . S
O196 Co171 1.941 . S
O196 C203 1.266 . S
H197 C199 0.959 . S
H198 C199 0.961 . S
C199 C189 1.510 . S
C199 H197 0.959 . S
C199 H198 0.961 . S
C199 H200 0.960 . S
H200 C199 0.960 . S
H201 N181 0.862 . S
O202 Co170 1.920 . S
O202 C175 1.289 . S
C203 O195 1.258 . S
C203 O196 1.266 . S
Co204 O207 1.970 . S
Co204 N221 1.989 . S
Co204 O229 1.967 . S
Co204 O236 1.920 . S
Co205 O208 1.966 . S
Co205 N214 2.022 . S
Co205 N222 1.993 . S
Co205 O230 1.941 . S
C206 O207 1.258 . S
C206 O208 1.263 . S
O207 Co204 1.970 . S
O207 C206 1.258 . S
O208 Co205 1.966 . S
O208 C206 1.263 . S
C209 O210 1.235 . S
C209 O236 1.289 . S
O210 C209 1.235 . S
C211 C213 1.400 . S
C211 N214 1.351 . S
C211 C216 1.501 . S
C212 C213 1.387 . S
C212 N215 1.341 . S
C213 C211 1.400 . S
C213 C212 1.387 . S
N214 Co205 2.022 . S
N214 C211 1.351 . S
N214 N215 1.365 . S
N215 C212 1.341 . S
N215 N214 1.365 . S
N215 H235 0.862 . S
C216 C211 1.501 . S
C216 H217 0.961 . S
C216 H218 0.961 . S
C216 H219 0.960 . S
H217 C216 0.961 . S
H218 C216 0.961 . S
H219 C216 0.960 . S
C220 N221 1.342 . S
C220 C224 1.401 . S
C220 C225 1.499 . S
N221 Co204 1.989 . S
N221 C220 1.342 . S
N221 N222 1.388 . S
N222 Co205 1.993 . S
N222 N221 1.388 . S
N222 C223 1.346 . S
C223 N222 1.346 . S
C223 C224 1.396 . S
C223 C233 1.510 . S
C224 C220 1.401 . S
C224 C223 1.396 . S
C225 C220 1.499 . S
C225 H226 0.959 . S
C225 H227 0.960 . S
C225 H228 0.961 . S
H226 C225 0.959 . S
H227 C225 0.960 . S
H228 C225 0.961 . S
O229 Co204 1.967 . S
O229 C237 1.258 . S
O230 Co205 1.941 . S
O230 C237 1.266 . S
H231 C233 0.959 . S
H232 C233 0.961 . S
C233 C223 1.510 . S
C233 H231 0.959 . S
C233 H232 0.961 . S
C233 H234 0.960 . S
H234 C233 0.960 . S
H235 N215 0.862 . S
O236 Co204 1.920 . S
O236 C209 1.289 . S
C237 O229 1.258 . S
C237 O230 1.266 . S
Co238 O241 1.970 . S
Co238 N255 1.989 . S
Co238 O263 1.967 . S
Co238 O270 1.920 . S
Co239 O242 1.966 . S
Co239 N248 2.022 . S
Co239 N256 1.993 . S
Co239 O264 1.941 . S
C240 O241 1.258 . S
C240 O242 1.263 . S
O241 Co238 1.970 . S
O241 C240 1.258 . S
O242 Co239 1.966 . S
O242 C240 1.263 . S
C243 O244 1.235 . S
C243 O270 1.289 . S
O244 C243 1.235 . S
C245 C247 1.400 . S
C245 N248 1.351 . S
C245 C250 1.501 . S
C246 C247 1.387 . S
C246 N249 1.341 . S
C247 C245 1.400 . S
C247 C246 1.387 . S
N248 Co239 2.022 . S
N248 C245 1.351 . S
N248 N249 1.365 . S
N249 C246 1.341 . S
N249 N248 1.365 . S
N249 H269 0.862 . S
C250 C245 1.501 . S
C250 H251 0.961 . S
C250 H252 0.961 . S
C250 H253 0.960 . S
H251 C250 0.961 . S
H252 C250 0.961 . S
H253 C250 0.960 . S
C254 N255 1.342 . S
C254 C258 1.401 . S
C254 C259 1.499 . S
N255 Co238 1.989 . S
N255 C254 1.342 . S
N255 N256 1.388 . S
N256 Co239 1.993 . S
N256 N255 1.388 . S
N256 C257 1.346 . S
C257 N256 1.346 . S
C257 C258 1.396 . S
C257 C267 1.510 . S
C258 C254 1.401 . S
C258 C257 1.396 . S
C259 C254 1.499 . S
C259 H260 0.959 . S
C259 H261 0.960 . S
C259 H262 0.961 . S
H260 C259 0.959 . S
H261 C259 0.960 . S
H262 C259 0.961 . S
O263 Co238 1.967 . S
O263 C271 1.258 . S
O264 Co239 1.941 . S
O264 C271 1.266 . S
H265 C267 0.959 . S
H266 C267 0.961 . S
C267 C257 1.510 . S
C267 H265 0.959 . S
C267 H266 0.961 . S
C267 H268 0.960 . S
H268 C267 0.960 . S
H269 N249 0.862 . S
O270 Co238 1.920 . S
O270 C243 1.289 . S
C271 O263 1.258 . S
C271 O264 1.266 . S
C272 C273 1.387 . S
C272 H276 0.950 1_554 S
C272 C281 1.390 1_565 S
C273 C272 1.387 . S
C273 C275 1.387 . S
H274 C281 0.950 1_556 S
C275 C273 1.387 . S
C275 C277 1.390 1_565 S
C275 H279 0.950 . S
H276 C272 0.950 1_556 S
C277 C275 1.390 1_545 S
C277 C278 1.387 . S
C277 H280 0.950 . S
C278 C277 1.387 . S
C278 C281 1.387 . S
H279 C275 0.950 . S
H280 C277 0.950 . S
C281 C272 1.390 1_545 S
C281 H274 0.950 1_554 S
C281 C278 1.387 . S
C282 C283 1.387 . S
C282 H286 0.950 . S
C282 C291 1.390 1_655 S
C283 C282 1.387 . S
C283 C285 1.387 . S
H284 C291 0.950 . S
C285 C283 1.387 . S
C285 C287 1.390 1_655 S
C285 H289 0.950 1_554 S
H286 C282 0.950 . S
C287 C285 1.390 1_455 S
C287 C288 1.387 . S
C287 H290 0.950 1_554 S
C288 C287 1.387 . S
C288 C291 1.387 . S
H289 C285 0.950 1_556 S
H290 C287 0.950 1_556 S
C291 C282 1.390 1_455 S
C291 H284 0.950 . S
C291 C288 1.387 . S
C292 C293 1.387 . S
C292 H296 0.950 . S
C292 C301 1.390 1_655 S
C293 C292 1.387 . S
C293 C295 1.387 . S
H294 C301 0.950 . S
C295 C293 1.387 . S
C295 C297 1.390 1_655 S
C295 H299 0.950 . S
H296 C292 0.950 . S
C297 C295 1.390 1_455 S
C297 C298 1.387 . S
C297 H300 0.950 . S
C298 C297 1.387 . S
C298 C301 1.387 . S
H299 C295 0.950 . S
H300 C297 0.950 . S
C301 C292 1.390 1_455 S
C301 H294 0.950 . S
C301 C298 1.387 . S
C302 C303 1.387 . S
C302 H306 0.950 . S
C302 C311 1.390 1_565 S
C303 C302 1.387 . S
C303 C305 1.387 . S
H304 C311 0.950 . S
C305 C303 1.387 . S
C305 C307 1.390 1_565 S
C305 H309 0.950 . S
H306 C302 0.950 . S
C307 C305 1.390 1_545 S
C307 C308 1.387 . S
C307 H310 0.950 . S
C308 C307 1.387 . S
C308 C311 1.387 . S
H309 C305 0.950 . S
H310 C307 0.950 . S
C311 C302 1.390 1_545 S
C311 H304 0.950 . S
C311 C308 1.387 . S
C312 C313 1.387 1_556 S
C312 H316 0.950 . S
C312 C321 1.390 . S
C313 C312 1.387 1_554 S
C313 C315 1.387 . S
H314 C321 0.950 . S
C315 C313 1.387 . S
C315 C317 1.390 . S
C315 H319 0.950 . S
H316 C312 0.950 . S
C317 C315 1.390 . S
C317 C318 1.387 . S
C317 H320 0.950 . S
C318 C317 1.387 . S
C318 C321 1.387 1_554 S
H319 C315 0.950 . S
H320 C317 0.950 . S
C321 C312 1.390 . S
C321 H314 0.950 . S
C321 C318 1.387 1_556 S
C322 C323 1.387 . S
C322 H326 0.950 . S
C322 C331 1.390 . S
C323 C322 1.387 . S
C323 C325 1.387 1_554 S
H324 C331 0.950 . S
C325 C323 1.387 1_556 S
C325 C327 1.390 1_556 S
C325 H329 0.950 . S
H326 C322 0.950 . S
C327 C325 1.390 1_554 S
C327 C328 1.387 . S
C327 H330 0.950 1_554 S
C328 C327 1.387 . S
C328 C331 1.387 . S
H329 C325 0.950 . S
H330 C327 0.950 1_556 S
C331 C322 1.390 . S
C331 H324 0.950 . S
C331 C328 1.387 . S
C332 C333 1.387 1_556 S
C332 H336 0.950 . S
C332 C341 1.390 . S
C333 C332 1.387 1_554 S
C333 C335 1.387 . S
H334 C341 0.950 . S
C335 C333 1.387 . S
C335 C337 1.390 . S
C335 H339 0.950 . S
H336 C332 0.950 . S
C337 C335 1.390 . S
C337 C338 1.387 . S
C337 H340 0.950 . S
C338 C337 1.387 . S
C338 C341 1.387 1_554 S
H339 C335 0.950 . S
H340 C337 0.950 . S
C341 C332 1.390 . S
C341 H334 0.950 . S
C341 C338 1.387 1_556 S
C342 C343 1.387 . S
C342 H346 0.950 . S
C342 C351 1.390 . S
C343 C342 1.387 . S
C343 C345 1.387 1_554 S
H344 C351 0.950 . S
C345 C343 1.387 1_556 S
C345 C347 1.390 . S
C345 H349 0.950 . S
H346 C342 0.950 . S
C347 C345 1.390 . S
C347 C348 1.387 1_556 S
C347 H350 0.950 . S
C348 C347 1.387 1_554 S
C348 C351 1.387 . S
H349 C345 0.950 . S
H350 C347 0.950 . S
C351 C342 1.390 . S
C351 H344 0.950 . S
C351 C348 1.387 . S
C352 C353 1.387 . S
C352 H356 0.950 . S
C352 C361 1.390 . S
C353 C352 1.387 . S
C353 C355 1.387 . S
H354 C361 0.950 . S
C355 C353 1.387 . S
C355 C357 1.390 . S
C355 H359 0.950 . S
H356 C352 0.950 . S
C357 C355 1.390 . S
C357 C358 1.387 . S
C357 H360 0.950 . S
C358 C357 1.387 . S
C358 C361 1.387 . S
H359 C355 0.950 . S
H360 C357 0.950 . S
C361 C352 1.390 . S
C361 H354 0.950 . S
C361 C358 1.387 . S
C362 C363 1.387 . S
C362 H366 0.950 . S
C362 C371 1.390 . S
C363 C362 1.387 . S
C363 C365 1.387 . S
H364 C371 0.950 . S
C365 C363 1.387 . S
C365 C367 1.390 . S
C365 H369 0.950 . S
H366 C362 0.950 . S
C367 C365 1.390 . S
C367 C368 1.387 . S
C367 H370 0.950 . S
C368 C367 1.387 . S
C368 C371 1.387 . S
H369 C365 0.950 . S
H370 C367 0.950 . S
C371 C362 1.390 . S
C371 H364 0.950 . S
C371 C368 1.387 . S
C372 C373 1.387 . S
C372 H376 0.950 . S
C372 C381 1.390 . S
C373 C372 1.387 . S
C373 C375 1.387 . S
H374 C381 0.950 . S
C375 C373 1.387 . S
C375 C377 1.390 . S
C375 H379 0.950 . S
H376 C372 0.950 . S
C377 C375 1.390 . S
C377 C378 1.387 . S
C377 H380 0.950 . S
C378 C377 1.387 . S
C378 C381 1.387 . S
H379 C375 0.950 . S
H380 C377 0.950 . S
C381 C372 1.390 . S
C381 H374 0.950 . S
C381 C378 1.387 . S
C382 C383 1.387 . S
C382 H386 0.950 . S
C382 C391 1.390 . S
C383 C382 1.387 . S
C383 C385 1.387 . S
H384 C391 0.950 . S
C385 C383 1.387 . S
C385 C387 1.390 . S
C385 H389 0.950 . S
H386 C382 0.950 . S
C387 C385 1.390 . S
C387 C388 1.387 . S
C387 H390 0.950 . S
C388 C387 1.387 . S
C388 C391 1.387 . S
H389 C385 0.950 . S
H390 C387 0.950 . S
C391 C382 1.390 . S
C391 H384 0.950 . S
C391 C388 1.387 . S
C392 C393 1.387 . S
C392 H396 0.950 . S
C392 C401 1.390 . S
C393 C392 1.387 . S
C393 C395 1.387 . S
H394 C401 0.950 . S
C395 C393 1.387 . S
C395 C397 1.390 . S
C395 H399 0.950 . S
H396 C392 0.950 . S
C397 C395 1.390 . S
C397 C398 1.387 . S
C397 H400 0.950 . S
C398 C397 1.387 . S
C398 C401 1.387 . S
H399 C395 0.950 . S
H400 C397 0.950 . S
C401 C392 1.390 . S
C401 H394 0.950 . S
C401 C398 1.387 . S
C402 C403 1.387 . S
C402 H406 0.950 . S
C402 C411 1.390 . S
C403 C402 1.387 . S
C403 C405 1.387 . S
H404 C411 0.950 . S
C405 C403 1.387 . S
C405 C407 1.390 . S
C405 H409 0.950 . S
H406 C402 0.950 . S
C407 C405 1.390 . S
C407 C408 1.387 . S
C407 H410 0.950 . S
C408 C407 1.387 . S
C408 C411 1.387 . S
H409 C405 0.950 . S
H410 C407 0.950 . S
C411 C402 1.390 . S
C411 H404 0.950 . S
C411 C408 1.387 . S
C412 C413 1.387 . S
C412 H416 0.950 . S
C412 C421 1.390 . S
C413 C412 1.387 . S
C413 C415 1.387 . S
H414 C421 0.950 . S
C415 C413 1.387 . S
C415 C417 1.390 . S
C415 H419 0.950 . S
H416 C412 0.950 . S
C417 C415 1.390 . S
C417 C418 1.387 . S
C417 H420 0.950 . S
C418 C417 1.387 . S
C418 C421 1.387 . S
H419 C415 0.950 . S
H420 C417 0.950 . S
C421 C412 1.390 . S
C421 H414 0.950 . S
C421 C418 1.387 . S
C422 C423 1.387 . S
C422 H426 0.950 . S
C422 C431 1.390 . S
C423 C422 1.387 . S
C423 C425 1.387 . S
H424 C431 0.950 . S
C425 C423 1.387 . S
C425 C427 1.390 . S
C425 H429 0.950 . S
H426 C422 0.950 . S
C427 C425 1.390 . S
C427 C428 1.387 . S
C427 H430 0.950 . S
C428 C427 1.387 . S
C428 C431 1.387 . S
H429 C425 0.950 . S
H430 C427 0.950 . S
C431 C422 1.390 . S
C431 H424 0.950 . S
C431 C428 1.387 . S
C432 C433 1.387 . S
C432 H436 0.950 . S
C432 C441 1.390 . S
C433 C432 1.387 . S
C433 C435 1.387 . S
H434 C441 0.950 . S
C435 C433 1.387 . S
C435 C437 1.390 . S
C435 H439 0.950 . S
H436 C432 0.950 . S
C437 C435 1.390 . S
C437 C438 1.387 . S
C437 H440 0.950 . S
C438 C437 1.387 . S
C438 C441 1.387 . S
H439 C435 0.950 . S
H440 C437 0.950 . S
C441 C432 1.390 . S
C441 H434 0.950 . S
C441 C438 1.387 . S
C442 C443 1.387 . S
C442 H446 0.950 . S
C442 C451 1.390 . S
C443 C442 1.387 . S
C443 C445 1.387 . S
H444 C451 0.950 . S
C445 C443 1.387 . S
C445 C447 1.390 . S
C445 H449 0.950 . S
H446 C442 0.950 . S
C447 C445 1.390 . S
C447 C448 1.387 . S
C447 H450 0.950 . S
C448 C447 1.387 . S
C448 C451 1.387 . S
H449 C445 0.950 . S
H450 C447 0.950 . S
C451 C442 1.390 . S
C451 H444 0.950 . S
C451 C448 1.387 . S
C452 C453 1.387 . S
C452 H456 0.950 . S
C452 C461 1.390 . S
C453 C452 1.387 . S
C453 C455 1.387 . S
H454 C461 0.950 . S
C455 C453 1.387 . S
C455 C457 1.390 . S
C455 H459 0.950 . S
H456 C452 0.950 . S
C457 C455 1.390 . S
C457 C458 1.387 . S
C457 H460 0.950 . S
C458 C457 1.387 . S
C458 C461 1.387 . S
H459 C455 0.950 . S
H460 C457 0.950 . S
C461 C452 1.390 . S
C461 H454 0.950 . S
C461 C458 1.387 . S
C462 C463 1.387 . S
C462 H466 0.950 . S
C462 C471 1.390 . S
C463 C462 1.387 . S
C463 C465 1.387 . S
H464 C471 0.950 . S
C465 C463 1.387 . S
C465 C467 1.390 . S
C465 H469 0.950 . S
H466 C462 0.950 . S
C467 C465 1.390 . S
C467 C468 1.387 . S
C467 H470 0.950 . S
C468 C467 1.387 . S
C468 C471 1.387 . S
H469 C465 0.950 . S
H470 C467 0.950 . S
C471 C462 1.390 . S
C471 H464 0.950 . S
C471 C468 1.387 . S
C273 C77 1.087 . S
C278 C9 1.087 . S
C283 C43 1.079 . S
C288 C111 1.079 . S
C293 C145 1.079 . S
C298 C213 1.079 . S
C303 C179 1.080 . S
C308 C247 1.080 . S
C313 C135 1.685 . S
C318 C5 1.729 . S
C323 C33 1.687 . S
C328 C39 1.730 . S
C333 C73 1.729 . S
C338 C67 1.685 . S
C343 C107 1.730 . S
C348 C101 1.687 . S
C353 C203 1.685 1_545 S
C358 C141 1.729 . S
C363 C237 1.687 1_655 S
C368 C175 1.730 . S
C373 C271 1.685 1_565 S
C378 C209 1.729 . S
C383 C169 1.686 1_455 S
C388 C243 1.729 . S
C393 C20 1.730 . S
C398 C258 1.730 . S
C403 C54 1.731 . S
C408 C156 1.731 . S
C413 C190 1.730 . S
C418 C88 1.730 . S
C423 C224 1.731 . S
C428 C122 1.731 . S
C433 C70 1.986 . S
C438 C172 1.986 . S
C443 C206 1.987 . S
C448 C104 1.987 . S
C453 C240 1.987 . S
C458 C2 1.987 . S
C463 C138 1.985 . S
C468 C36 1.985 . S
