# Generated by pormake.
# Topology snp, (6)-cn, num edge types: 1
# Building blocks:
#     Node 0, Type 0, BuildingBlock: MIFKUJ_clean_sbu_0, # of connection points: 6
#     Node 1, Type 0, BuildingBlock: MIFKUJ_clean_sbu_0, # of connection points: 6
#     Node 2, Type 0, BuildingBlock: MIFKUJ_clean_sbu_0, # of connection points: 6
#     Node 3, Type 0, BuildingBlock: MIFKUJ_clean_sbu_0, # of connection points: 6
#     Edge 4, Type (0, 0), BuildingBlock: CIFDUS_clean_linker_0, # of connection points: 2
#     Edge 5, Type (0, 0), BuildingBlock: CIFDUS_clean_linker_0, # of connection points: 2
#     Edge 6, Type (0, 0), BuildingBlock: CIFDUS_clean_linker_0, # of connection points: 2
#     Edge 7, Type (0, 0), BuildingBlock: CIFDUS_clean_linker_0, # of connection points: 2
#     Edge 8, Type (0, 0), BuildingBlock: CIFDUS_clean_linker_0, # of connection points: 2
#     Edge 9, Type (0, 0), BuildingBlock: CIFDUS_clean_linker_0, # of connection points: 2
#     Edge 10, Type (0, 0), BuildingBlock: CIFDUS_clean_linker_0, # of connection points: 2
#     Edge 11, Type (0, 0), BuildingBlock: CIFDUS_clean_linker_0, # of connection points: 2
#     Edge 12, Type (0, 0), BuildingBlock: CIFDUS_clean_linker_0, # of connection points: 2
#     Edge 13, Type (0, 0), BuildingBlock: CIFDUS_clean_linker_0, # of connection points: 2
#     Edge 14, Type (0, 0), BuildingBlock: CIFDUS_clean_linker_0, # of connection points: 2
#     Edge 15, Type (0, 0), BuildingBlock: CIFDUS_clean_linker_0, # of connection points: 2
# Relax obj value: 0.275
# Max RMSD: 0.227
# Mean RMSD: 0.227
data_MOF--net-snp--node1-MIFKUJ_clean_sbu_0--edge1-CIFDUS_clean_linker_0
_symmetry_space_group_name_H-M    P1
_symmetry_Int_Tables_number       1
_symmetry_cell_setting            triclinic
loop_
_symmetry_equiv_pos_as_xyz
'x, y, z'
_cell_length_a     20.438334
_cell_length_b     20.881675
_cell_length_c     27.924925
_cell_angle_alpha  91.662424
_cell_angle_beta   89.067436
_cell_angle_gamma 90.393656
loop_
_atom_site_label
_atom_site_type_symbol
_atom_site_fract_x
_atom_site_fract_y
_atom_site_fract_z
_atom_type_partial_charge
Zn0 Zn 0.34362 0.96776 0.06412 0.0
Zn1 Zn 0.33845 0.94058 0.91295 0.0
C2 C 0.27251 0.93989 0.14631 0.0
O3 O 0.27709 0.0027 0.14877 0.0
C4 C 0.35811 0.051 0.84942 0.0
O5 O 0.35916 0.08777 0.88837 0.0
O6 O 0.40217 0.02747 0.10342 0.0
O7 O 0.37806 0.91964 0.00777 0.0
O8 O 0.42821 0.9273 0.9396 0.0
C9 C 0.42828 0.00633 0.14084 0.0
O10 O 0.43358 0.94399 0.1446 0.0
O11 O 0.29765 0.90993 0.11034 0.0
C12 C 0.23447 0.84628 0.89642 0.0
O13 O 0.20365 0.87755 0.93139 0.0
O14 O 0.29382 0.86045 0.88717 0.0
O15 O 0.27965 -0.0033 0.95751 0.0
O16 O 0.27524 0.02146 0.03607 0.0
O17 O 0.35155 -0.00929 0.85305 0.0
C18 C 0.42944 0.9339 0.98474 0.0
C19 C 0.25404 0.02659 0.99369 0.0
Zn20 Zn 0.18128 0.30388 0.56273 0.0
Zn21 Zn 0.20783 0.30035 0.40941 0.0
C22 C 0.25118 0.24241 0.628 0.0
O23 O 0.19719 0.20919 0.62118 0.0
C24 C 0.10622 0.31412 0.34375 0.0
O25 O 0.14637 0.35944 0.32954 0.0
O26 O 0.10661 0.31806 0.60978 0.0
O27 O 0.18415 0.36834 0.50829 0.0
O28 O 0.20066 0.39301 0.43219 0.0
C29 C 0.06622 0.36045 0.62478 0.0
O30 O 0.06623 0.41723 0.60574 0.0
O31 O 0.26071 0.29309 0.60443 0.0
C32 C 0.30803 0.22479 0.35961 0.0
O33 O 0.29688 0.18602 0.39509 0.0
O34 O 0.27941 0.2788 0.36019 0.0
O35 O 0.21317 0.25637 0.47014 0.0
O36 O 0.1624 0.21796 0.53143 0.0
O37 O 0.12235 0.28003 0.37854 0.0
C38 C 0.18513 0.40956 0.47542 0.0
C39 C 0.17828 0.21242 0.48762 0.0
Zn40 Zn 0.80106 0.15542 0.07566 0.0
Zn41 Zn 0.80662 0.19422 0.92993 0.0
C42 C 0.82379 0.23519 0.16049 0.0
O43 O 0.77758 0.19958 0.17934 0.0
C44 C 0.77638 0.09073 0.86327 0.0
O45 O 0.73911 0.13478 0.84531 0.0
O46 O 0.77235 0.0832 0.11878 0.0
O47 O 0.74506 0.18208 0.02159 0.0
O48 O 0.71252 0.21083 0.95158 0.0
C49 C 0.7235 0.07582 0.147 0.0
O50 O 0.67494 0.1167 0.14644 0.0
O51 O 0.83658 0.22919 0.11591 0.0
C52 C 0.89528 0.22397 0.86046 0.0
O53 O 0.91897 0.17581 0.88366 0.0
O54 O 0.84218 0.2491 0.87595 0.0
O55 O 0.86692 0.19619 0.98718 0.0
O56 O 0.87949 0.12244 0.04055 0.0
O57 O 0.80738 0.10406 0.90147 0.0
C58 C 0.69838 0.19286 0.99373 0.0
C59 C 0.89542 0.14586 0.00053 0.0
Zn60 Zn 0.98596 0.81367 0.58158 0.0
Zn61 Zn 0.94664 0.84357 0.4354 0.0
C62 C 0.92048 0.86802 0.65907 0.0
O63 O 0.98262 0.87921 0.6674 0.0
C64 C 0.04708 0.83149 0.36329 0.0
O65 O 0.01289 0.78013 0.35132 0.0
O66 O 0.05544 0.77976 0.62547 0.0
O67 O 0.97537 0.75521 0.52184 0.0
O68 O 0.94896 0.74875 0.44508 0.0
C69 C 0.04284 0.74862 0.66307 0.0
O70 O 0.98237 0.72989 0.67161 0.0
O71 O 0.90478 0.83741 0.6208 0.0
C72 C 0.88298 0.921 0.36988 0.0
O73 O 0.93514 0.95546 0.38004 0.0
O74 O 0.87232 0.86995 0.39263 0.0
O75 O 0.95043 0.88097 0.50119 0.0
O76 O 0.0218 0.8957 0.55746 0.0
O77 O 0.0293 0.86523 0.3997 0.0
C78 C 0.96718 0.7221 0.48321 0.0
C79 C 6e-05 0.91096 0.51718 0.0
H80 H 0.00912 0.19987 0.0244 0.0
H81 H 0.924 0.05006 0.93643 0.0
H82 H 0.03274 0.00608 0.91794 0.0
H83 H 0.14932 0.00076 0.93832 0.0
H84 H 0.23029 0.14187 0.03672 0.0
H85 H 0.12676 0.1997 0.03948 0.0
C86 C 0.01505 0.15883 -0.0 0.0
C87 C 0.95968 0.12863 0.98075 0.0
C88 C 0.077 0.13198 0.99219 0.0
C89 C 0.96668 0.07437 0.95051 0.0
C90 C 0.02864 0.04909 0.94044 0.0
C91 C 0.14452 0.04507 0.95927 0.0
C92 C 0.19672 0.06718 0.9874 0.0
C93 C 0.08386 0.07606 0.96265 0.0
C94 C 0.19023 0.12409 0.01502 0.0
C95 C 0.13115 0.15697 0.0167 0.0
H96 H 0.96326 0.01726 0.47249 0.0
H97 H 0.12879 0.89663 0.49677 0.0
H98 H 0.20353 0.98062 0.47029 0.0
H99 H 0.22095 0.0958 0.46385 0.0
H100 H 0.05573 0.22059 0.45346 0.0
H101 H 0.9818 0.12836 0.44786 0.0
C102 C 0.01553 0.00879 0.46989 0.0
C103 C 0.04099 0.95181 0.48697 0.0
C104 C 0.05827 0.05868 0.45717 0.0
C105 C 0.10864 0.94086 0.4842 0.0
C106 C 0.15128 -0.01113 0.46924 0.0
C107 C 0.16918 0.10225 0.45748 0.0
C108 C 0.14351 0.16423 0.45868 0.0
C109 C 0.12679 0.04931 0.45888 0.0
C110 C 0.07637 0.17291 0.4516 0.0
C111 C 0.03401 0.12016 0.44957 0.0
H112 H 0.66955 0.09467 0.0506 0.0
H113 H 0.58229 0.22878 0.95639 0.0
H114 H 0.48323 0.16259 0.9525 0.0
H115 H 0.43268 0.05701 0.96274 0.0
H116 H 0.52424 0.91869 0.05077 0.0
H117 H 0.61055 -0.00331 0.07154 0.0
C118 C 0.62773 0.11093 0.03106 0.0
C119 C 0.63299 0.16628 0.00372 0.0
C120 C 0.5727 0.07106 0.02711 0.0
C121 C 0.57915 0.18614 0.97753 0.0
C122 C 0.5229 0.14808 0.97501 0.0
C123 C 0.47112 0.04469 0.98707 0.0
C124 C 0.4738 -0.01746 0.00452 0.0
C125 C 0.5209 0.08884 0.99742 0.0
C126 C 0.52242 0.96642 0.03667 0.0
C127 C 0.57149 0.01084 0.04836 0.0
H128 H 0.10271 0.46606 0.41654 0.0
H129 H 0.1885 0.4866 0.55618 0.0
H130 H 0.12252 0.58262 0.57342 0.0
H131 H 0.04246 0.66151 0.54737 0.0
H132 H 0.95405 0.63648 0.40848 0.0
H133 H 0.01761 0.53966 0.39303 0.0
C134 C 0.10777 0.49226 0.45044 0.0
C135 C 0.15162 0.47083 0.48456 0.0
C136 C 0.06815 0.54543 0.46061 0.0
C137 C 0.15595 0.50341 0.52908 0.0
C138 C 0.11784 0.55772 0.53904 0.0
C139 C 0.03608 0.63423 0.51411 0.0
C140 C -0.00613 0.65658 0.47897 0.0
C141 C 0.07367 0.57907 0.50504 0.0
C142 C 0.98632 0.62056 0.43607 0.0
C143 C 0.0231 0.5655 0.42698 0.0
H144 H 0.38396 0.1184 0.34921 0.0
H145 H 0.30981 0.27665 0.27067 0.0
H146 H 0.34997 0.22709 0.19568 0.0
H147 H 0.39251 0.13207 0.15161 0.0
H148 H 0.46544 0.97331 0.23032 0.0
H149 H 0.44083 0.03049 0.30573 0.0
C150 C 0.37757 0.14264 0.31579 0.0
C151 C 0.34304 0.20078 0.31565 0.0
C152 C 0.40034 0.11358 0.27262 0.0
C153 C 0.33593 0.23179 0.27199 0.0
C154 C 0.35867 0.2033 0.22895 0.0
C155 C 0.40457 0.11052 0.18518 0.0
C156 C 0.42979 0.04782 0.18506 0.0
C157 C 0.38905 0.14321 0.22867 0.0
C158 C 0.44545 0.02112 0.2291 0.0
C159 C 0.43097 0.05367 0.27241 0.0
H160 H 0.06269 0.25002 0.67202 0.0
H161 H 0.9746 0.43724 0.67234 0.0
H162 H 0.91081 0.41144 0.74473 0.0
H163 H 0.88385 0.33563 0.8102 0.0
H164 H 0.97873 0.15115 0.80762 0.0
H165 H 0.0359 0.1763 0.73397 0.0
C166 C 0.02943 0.28549 0.68754 0.0
C167 C 0.02374 0.3456 0.66673 0.0
C168 C -0.00578 0.27085 0.72915 0.0
C169 C 0.98007 0.39054 0.68762 0.0
C170 C 0.9437 0.37583 0.72909 0.0
C171 C 0.9169 0.30111 0.79329 0.0
C172 C 0.92735 0.24185 0.8148 0.0
C173 C 0.95092 0.31619 0.75056 0.0
C174 C 0.97028 0.19748 0.79244 0.0
C175 C 0.00299 0.21161 0.75006 0.0
H176 H 0.76198 0.97002 0.35327 0.0
H177 H 0.93626 0.89605 0.28334 0.0
H178 H 0.89636 0.92809 0.20565 0.0
H179 H 0.81959 -0.01069 0.15966 0.0
H180 H 0.64752 0.06994 0.22901 0.0
H181 H 0.67753 0.02165 0.30429 0.0
C182 C 0.79011 0.95971 0.32073 0.0
C183 C 0.85169 0.93068 0.3236 0.0
C184 C 0.76744 0.97981 0.27616 0.0
C185 C 0.88854 0.91817 0.2816 0.0
C186 C 0.86587 0.93665 0.23729 0.0
C187 C 0.78783 -0.00457 0.19094 0.0
C188 C 0.73197 0.03422 0.18874 0.0
C189 C 0.80645 0.96931 0.23437 0.0
C190 C 0.69108 0.04074 0.22961 0.0
C191 C 0.70851 0.01352 0.27287 0.0
H192 H 0.01962 0.73572 0.7585 0.0
H193 H 0.17507 0.76558 0.65496 0.0
H194 H 0.25156 0.78862 0.71964 0.0
H195 H 0.27012 0.81506 0.80444 0.0
H196 H 0.11227 0.79425 0.90747 0.0
H197 H 0.04129 0.75177 0.84431 0.0
C198 C 0.0706 0.74566 0.75007 0.0
C199 C 0.09148 0.74926 0.7019 0.0
C200 C 0.11379 0.76114 0.78743 0.0
C201 C 0.15764 0.76281 0.6917 0.0
C202 C 0.20137 0.77622 0.72868 0.0
C203 C 0.22069 0.79981 0.81339 0.0
C204 C 0.19643 0.80826 0.86067 0.0
C205 C 0.17941 0.77775 0.77658 0.0
C206 C 0.13208 0.7886 0.87139 0.0
C207 C 0.09137 0.76455 0.83522 0.0
H208 H 0.73775 0.058 0.77252 0.0
H209 H 0.85215 -0.00914 0.88933 0.0
H210 H 0.90133 0.90906 0.83659 0.0
H211 H 0.9244 0.86837 0.75485 0.0
H212 H 0.80922 0.93242 0.63785 0.0
H213 H 0.7464 0.0027 0.69326 0.0
C214 C 0.77237 0.02462 0.78673 0.0
C215 C 0.7932 0.03224 0.83445 0.0
C216 C 0.80045 0.97736 0.75608 0.0
C217 C 0.83704 -0.01234 0.85242 0.0
C218 C 0.86503 0.9406 0.8223 0.0
C219 C 0.88429 0.89652 0.74182 0.0
C220 C 0.87159 0.89608 0.69257 0.0
C221 C 0.84917 0.93692 0.77368 0.0
C222 C 0.81944 0.93204 0.67579 0.0
C223 C 0.78408 0.97261 0.70738 0.0
H224 H 0.24482 -0.01467 0.23561 0.0
H225 H 0.22238 0.81792 0.14297 0.0
H226 H 0.15492 0.7666 0.20435 0.0
H227 H 0.09468 0.77375 0.28138 0.0
H228 H 0.11667 0.94275 0.37271 0.0
H229 H 0.19281 -0.01138 0.31501 0.0
C230 C 0.22537 0.93749 0.2289 0.0
C231 C 0.23744 0.90586 0.18459 0.0
C232 C 0.1866 0.90862 0.26409 0.0
C233 C 0.21328 0.84337 0.17675 0.0
C234 C 0.17461 0.81413 0.21175 0.0
C235 C 0.1167 0.82029 0.2889 0.0
C236 C 0.09952 0.85498 0.33114 0.0
C237 C 0.15978 0.84694 0.25513 0.0
C238 C 0.12892 0.915 0.34052 0.0
C239 C 0.17225 0.94149 0.3074 0.0
H240 H 0.2911 0.1231 0.6401 0.0
H241 H 0.3052 0.31429 0.7011 0.0
H242 H 0.34771 0.2716 0.77551 0.0
H243 H 0.36335 0.17795 0.82676 0.0
H244 H 0.34591 -0.01282 0.76376 0.0
H245 H 0.32265 0.03165 0.68654 0.0
C246 C 0.30552 0.15549 0.66922 0.0
C247 C 0.29517 0.22144 0.66551 0.0
C248 C 0.32801 0.1305 0.71183 0.0
C249 C 0.31364 0.26329 0.70318 0.0
C250 C 0.33699 0.23875 0.74587 0.0
C251 C 0.35559 0.14618 0.79594 0.0
C252 C 0.35507 0.07925 0.80143 0.0
C253 C 0.34167 0.17215 0.75127 0.0
C254 C 0.34575 0.03881 0.76092 0.0
C255 C 0.33241 0.06415 0.7166 0.0
H256 H 0.8426 0.21514 0.25446 0.0
H257 H 0.91388 0.32669 0.13656 0.0
H258 H 0.00542 0.36554 0.18498 0.0
H259 H 0.07083 0.35879 0.25765 0.0
H260 H 0.0032 0.24028 0.37277 0.0
H261 H 0.90454 0.21298 0.32845 0.0
C262 C 0.87731 0.24905 0.23963 0.0
C263 C 0.8715 0.26805 0.192 0.0
C264 C 0.93105 0.26905 0.26691 0.0
C265 C 0.91737 0.31139 0.17317 0.0
C266 C 0.96987 0.33329 0.20072 0.0
C267 C 0.03418 0.32752 0.27325 0.0
C268 C 0.04459 0.30118 0.31827 0.0
C269 C 0.97818 0.31095 0.24713 0.0
C270 C -0.00329 0.26067 0.33798 0.0
C271 C 0.94017 0.24517 0.31272 0.0
loop_
_geom_bond_atom_site_label_1
_geom_bond_atom_site_label_2
_geom_bond_distance
_geom_bond_site_symmetry_2
_ccdc_geom_bond_type
Zn0 O6 1.969 . S
Zn0 O7 1.965 . S
Zn0 O11 2.024 1_545 S
Zn0 O16 1.969 . S
Zn1 O8 1.969 . S
Zn1 O14 1.969 . S
Zn1 O15 1.965 . S
Zn1 O17 2.024 1_565 S
C2 O3 1.229 . S
C2 O11 1.058 . S
O3 C2 1.229 . S
C4 O5 1.229 . S
C4 O17 1.058 . S
O5 C4 1.229 . S
O6 Zn0 1.969 . S
O6 C9 1.267 . S
O7 Zn0 1.965 . S
O7 C18 1.260 1_554 S
O8 Zn1 1.969 . S
O8 C18 1.258 1_565 S
C9 O6 1.267 . S
C9 O10 1.228 . S
O10 C9 1.228 . S
O11 Zn0 2.024 1_565 S
O11 C2 1.058 . S
C12 O13 1.228 . S
C12 O14 1.267 . S
O13 C12 1.228 . S
O14 Zn1 1.969 . S
O14 C12 1.267 . S
O15 Zn1 1.965 . S
O15 C19 1.260 1_566 S
O16 Zn0 1.969 . S
O16 C19 1.258 . S
O17 Zn1 2.024 1_545 S
O17 C4 1.058 . S
C18 O7 1.260 1_556 S
C18 O8 1.258 1_545 S
C19 O15 1.260 1_544 S
C19 O16 1.258 . S
Zn20 O26 1.969 . S
Zn20 O27 1.965 . S
Zn20 O31 2.024 . S
Zn20 O36 1.969 . S
Zn21 O28 1.969 . S
Zn21 O34 1.969 . S
Zn21 O35 1.965 . S
Zn21 O37 2.024 . S
C22 O23 1.229 . S
C22 O31 1.058 . S
O23 C22 1.229 . S
C24 O25 1.229 . S
C24 O37 1.058 . S
O25 C24 1.229 . S
O26 Zn20 1.969 . S
O26 C29 1.267 . S
O27 Zn20 1.965 . S
O27 C38 1.260 . S
O28 Zn21 1.969 . S
O28 C38 1.258 . S
C29 O26 1.267 . S
C29 O30 1.228 . S
O30 C29 1.228 . S
O31 Zn20 2.024 . S
O31 C22 1.058 . S
C32 O33 1.228 . S
C32 O34 1.267 . S
O33 C32 1.228 . S
O34 Zn21 1.969 . S
O34 C32 1.267 . S
O35 Zn21 1.965 . S
O35 C39 1.260 . S
O36 Zn20 1.969 . S
O36 C39 1.258 . S
O37 Zn21 2.024 . S
O37 C24 1.058 . S
C38 O27 1.260 . S
C38 O28 1.258 . S
C39 O35 1.260 . S
C39 O36 1.258 . S
Zn40 O46 1.969 . S
Zn40 O47 1.965 . S
Zn40 O51 2.024 . S
Zn40 O56 1.969 . S
Zn41 O48 1.969 . S
Zn41 O54 1.969 . S
Zn41 O55 1.965 . S
Zn41 O57 2.024 . S
C42 O43 1.229 . S
C42 O51 1.058 . S
O43 C42 1.229 . S
C44 O45 1.229 . S
C44 O57 1.058 . S
O45 C44 1.229 . S
O46 Zn40 1.969 . S
O46 C49 1.267 . S
O47 Zn40 1.965 . S
O47 C58 1.260 1_554 S
O48 Zn41 1.969 . S
O48 C58 1.258 . S
C49 O46 1.267 . S
C49 O50 1.228 . S
O50 C49 1.228 . S
O51 Zn40 2.024 . S
O51 C42 1.058 . S
C52 O53 1.228 . S
C52 O54 1.267 . S
O53 C52 1.228 . S
O54 Zn41 1.969 . S
O54 C52 1.267 . S
O55 Zn41 1.965 . S
O55 C59 1.260 1_556 S
O56 Zn40 1.969 . S
O56 C59 1.258 . S
O57 Zn41 2.024 . S
O57 C44 1.058 . S
C58 O47 1.260 1_556 S
C58 O48 1.258 . S
C59 O55 1.260 1_554 S
C59 O56 1.258 . S
Zn60 O66 1.969 . S
Zn60 O67 1.965 . S
Zn60 O71 2.024 1_455 S
Zn60 O76 1.969 . S
Zn61 O68 1.969 . S
Zn61 O74 1.969 . S
Zn61 O75 1.965 . S
Zn61 O77 2.024 1_655 S
C62 O63 1.229 . S
C62 O71 1.058 . S
O63 C62 1.229 . S
C64 O65 1.229 . S
C64 O77 1.058 . S
O65 C64 1.229 . S
O66 Zn60 1.969 . S
O66 C69 1.267 . S
O67 Zn60 1.965 . S
O67 C78 1.260 . S
O68 Zn61 1.969 . S
O68 C78 1.258 1_655 S
C69 O66 1.267 . S
C69 O70 1.228 . S
O70 C69 1.228 . S
O71 Zn60 2.024 1_655 S
O71 C62 1.058 . S
C72 O73 1.228 . S
C72 O74 1.267 . S
O73 C72 1.228 . S
O74 Zn61 1.969 . S
O74 C72 1.267 . S
O75 Zn61 1.965 . S
O75 C79 1.260 1_655 S
O76 Zn60 1.969 . S
O76 C79 1.258 . S
O77 Zn61 2.024 1_455 S
O77 C64 1.058 . S
C78 O67 1.260 . S
C78 O68 1.258 1_455 S
C79 O75 1.260 1_455 S
C79 O76 1.258 . S
H80 C86 0.930 . S
H81 C89 0.930 . S
H82 C90 0.930 . S
H83 C91 0.930 1_565 S
H84 C94 0.930 . S
H85 C95 0.930 . S
C86 H80 0.930 . S
C86 C87 1.355 1_454 S
C86 C88 1.415 . S
C87 C86 1.355 1_656 S
C87 C89 1.419 . S
C88 C86 1.415 . S
C88 C93 1.425 1_554 S
C88 C95 1.409 . S
C89 H81 0.930 . S
C89 C87 1.419 . S
C89 C90 1.362 1_655 S
C90 H82 0.930 . S
C90 C89 1.362 1_455 S
C90 C93 1.409 . S
C91 H83 0.930 1_545 S
C91 C92 1.363 . S
C91 C93 1.415 . S
C92 C91 1.363 . S
C92 C94 1.409 1_556 S
C93 C88 1.425 1_556 S
C93 C90 1.409 . S
C93 C91 1.415 . S
C94 H84 0.930 . S
C94 C92 1.409 1_554 S
C94 C95 1.362 . S
C95 H85 0.930 . S
C95 C88 1.409 . S
C95 C94 1.362 . S
H96 C102 0.935 . S
H97 C105 0.930 . S
H98 C106 0.930 1_565 S
H99 C107 0.930 . S
H100 C110 0.930 . S
H101 C111 0.930 1_655 S
C102 H96 0.935 . S
C102 C103 1.353 1_645 S
C102 C104 1.410 1_655 S
C103 C102 1.353 1_465 S
C103 C105 1.419 . S
C104 C102 1.410 1_455 S
C104 C109 1.425 . S
C104 C111 1.409 . S
C105 H97 0.930 . S
C105 C103 1.419 . S
C105 C106 1.362 1_565 S
C106 H98 0.930 1_545 S
C106 C105 1.362 1_545 S
C106 C109 1.409 . S
C107 H99 0.930 . S
C107 C108 1.355 . S
C107 C109 1.415 . S
C108 C107 1.355 . S
C108 C110 1.419 . S
C109 C104 1.425 . S
C109 C106 1.409 . S
C109 C107 1.415 . S
C110 H100 0.930 . S
C110 C108 1.419 . S
C110 C111 1.362 . S
C111 H101 0.930 1_455 S
C111 C104 1.409 . S
C111 C110 1.362 . S
H112 C118 0.930 . S
H113 C121 0.930 . S
H114 C122 0.930 . S
H115 C123 0.930 . S
H116 C126 0.930 . S
H117 C127 0.930 . S
C118 H112 0.930 . S
C118 C119 1.355 . S
C118 C120 1.415 . S
C119 C118 1.355 . S
C119 C121 1.419 . S
C120 C118 1.415 . S
C120 C125 1.425 . S
C120 C127 1.409 1_545 S
C121 H113 0.930 . S
C121 C119 1.419 . S
C121 C122 1.362 . S
C122 H114 0.930 . S
C122 C121 1.362 . S
C122 C125 1.409 . S
C123 H115 0.930 . S
C123 C124 1.355 . S
C123 C125 1.415 . S
C124 C123 1.355 . S
C124 C126 1.419 1_545 S
C125 C120 1.425 . S
C125 C122 1.409 . S
C125 C123 1.415 . S
C126 H116 0.930 . S
C126 C124 1.419 1_565 S
C126 C127 1.362 . S
C127 H117 0.930 . S
C127 C120 1.409 1_565 S
C127 C126 1.362 . S
H128 C134 0.930 . S
H129 C137 0.930 . S
H130 C138 0.930 . S
H131 C139 0.930 . S
H132 C142 0.930 . S
H133 C143 0.930 . S
C134 H128 0.930 . S
C134 C135 1.355 . S
C134 C136 1.415 . S
C135 C134 1.355 . S
C135 C137 1.419 . S
C136 C134 1.415 . S
C136 C141 1.425 . S
C136 C143 1.409 . S
C137 H129 0.930 . S
C137 C135 1.419 . S
C137 C138 1.362 . S
C138 H130 0.930 . S
C138 C137 1.362 . S
C138 C141 1.409 . S
C139 H131 0.930 . S
C139 C140 1.355 . S
C139 C141 1.415 . S
C140 C139 1.355 . S
C140 C142 1.419 . S
C141 C136 1.425 . S
C141 C138 1.409 . S
C141 C139 1.415 . S
C142 H132 0.930 . S
C142 C140 1.419 . S
C142 C143 1.362 . S
C143 H133 0.930 . S
C143 C136 1.409 . S
C143 C142 1.362 . S
H144 C150 0.930 . S
H145 C153 0.930 . S
H146 C154 0.930 . S
H147 C155 0.930 . S
H148 C158 0.930 . S
H149 C159 0.930 . S
C150 H144 0.930 . S
C150 C151 1.355 . S
C150 C152 1.415 . S
C151 C150 1.355 . S
C151 C153 1.419 . S
C152 C150 1.415 . S
C152 C157 1.425 . S
C152 C159 1.409 . S
C153 H145 0.930 . S
C153 C151 1.419 . S
C153 C154 1.362 . S
C154 H146 0.930 . S
C154 C153 1.362 . S
C154 C157 1.409 . S
C155 H147 0.930 . S
C155 C156 1.355 . S
C155 C157 1.415 . S
C156 C155 1.355 . S
C156 C158 1.419 . S
C157 C152 1.425 . S
C157 C154 1.409 . S
C157 C155 1.415 . S
C158 H148 0.930 . S
C158 C156 1.419 . S
C158 C159 1.362 . S
C159 H149 0.930 . S
C159 C152 1.409 . S
C159 C158 1.362 . S
H160 C166 0.930 . S
H161 C169 0.930 . S
H162 C170 0.930 . S
H163 C171 0.930 . S
H164 C174 0.930 . S
H165 C175 0.930 1_455 S
C166 H160 0.930 . S
C166 C167 1.355 . S
C166 C168 1.415 1_455 S
C167 C166 1.355 . S
C167 C169 1.419 1_455 S
C168 C166 1.415 1_655 S
C168 C173 1.425 . S
C168 C175 1.409 . S
C169 H161 0.930 . S
C169 C167 1.419 1_655 S
C169 C170 1.362 . S
C170 H162 0.930 . S
C170 C169 1.362 . S
C170 C173 1.409 . S
C171 H163 0.930 . S
C171 C172 1.355 . S
C171 C173 1.415 . S
C172 C171 1.355 . S
C172 C174 1.419 . S
C173 C168 1.425 . S
C173 C170 1.409 . S
C173 C171 1.415 . S
C174 H164 0.930 . S
C174 C172 1.419 . S
C174 C175 1.362 . S
C175 H165 0.930 1_655 S
C175 C168 1.409 . S
C175 C174 1.362 . S
H176 C182 0.930 . S
H177 C185 0.930 . S
H178 C186 0.930 . S
H179 C187 0.930 . S
H180 C190 0.930 . S
H181 C191 0.930 . S
C182 H176 0.930 . S
C182 C183 1.355 . S
C182 C184 1.415 . S
C183 C182 1.355 . S
C183 C185 1.419 . S
C184 C182 1.415 . S
C184 C189 1.425 . S
C184 C191 1.409 1_565 S
C185 H177 0.930 . S
C185 C183 1.419 . S
C185 C186 1.362 . S
C186 H178 0.930 . S
C186 C185 1.362 . S
C186 C189 1.409 . S
C187 H179 0.930 . S
C187 C188 1.355 1_565 S
C187 C189 1.415 . S
C188 C187 1.355 1_545 S
C188 C190 1.419 . S
C189 C184 1.425 . S
C189 C186 1.409 . S
C189 C187 1.415 . S
C190 H180 0.930 . S
C190 C188 1.419 . S
C190 C191 1.362 . S
C191 H181 0.930 . S
C191 C184 1.409 1_545 S
C191 C190 1.362 . S
H192 C198 0.930 . S
H193 C201 0.930 . S
H194 C202 0.930 . S
H195 C203 0.930 . S
H196 C206 0.930 . S
H197 C207 0.930 . S
C198 H192 0.930 . S
C198 C199 1.355 . S
C198 C200 1.415 . S
C199 C198 1.355 . S
C199 C201 1.419 . S
C200 C198 1.415 . S
C200 C205 1.425 . S
C200 C207 1.409 . S
C201 H193 0.930 . S
C201 C199 1.419 . S
C201 C202 1.362 . S
C202 H194 0.930 . S
C202 C201 1.362 . S
C202 C205 1.409 . S
C203 H195 0.930 . S
C203 C204 1.355 . S
C203 C205 1.415 . S
C204 C203 1.355 . S
C204 C206 1.419 . S
C205 C200 1.425 . S
C205 C202 1.409 . S
C205 C203 1.415 . S
C206 H196 0.930 . S
C206 C204 1.419 . S
C206 C207 1.362 . S
C207 H197 0.930 . S
C207 C200 1.409 . S
C207 C206 1.362 . S
H208 C214 0.930 . S
H209 C217 0.930 . S
H210 C218 0.930 . S
H211 C219 0.930 . S
H212 C222 0.930 . S
H213 C223 0.930 . S
C214 H208 0.930 . S
C214 C215 1.355 . S
C214 C216 1.415 1_545 S
C215 C214 1.355 . S
C215 C217 1.419 1_545 S
C216 C214 1.415 1_565 S
C216 C221 1.425 . S
C216 C223 1.409 . S
C217 H209 0.930 . S
C217 C215 1.419 1_565 S
C217 C218 1.362 . S
C218 H210 0.930 . S
C218 C217 1.362 . S
C218 C221 1.409 . S
C219 H211 0.930 . S
C219 C220 1.355 . S
C219 C221 1.415 . S
C220 C219 1.355 . S
C220 C222 1.419 . S
C221 C216 1.425 . S
C221 C218 1.409 . S
C221 C219 1.415 . S
C222 H212 0.930 . S
C222 C220 1.419 . S
C222 C223 1.362 . S
C223 H213 0.930 . S
C223 C216 1.409 . S
C223 C222 1.362 . S
H224 C230 0.930 . S
H225 C233 0.930 . S
H226 C234 0.930 . S
H227 C235 0.930 . S
H228 C238 0.930 . S
H229 C239 0.930 . S
C230 H224 0.930 . S
C230 C231 1.355 . S
C230 C232 1.415 . S
C231 C230 1.355 . S
C231 C233 1.419 . S
C232 C230 1.415 . S
C232 C237 1.425 . S
C232 C239 1.409 . S
C233 H225 0.930 . S
C233 C231 1.419 . S
C233 C234 1.362 . S
C234 H226 0.930 . S
C234 C233 1.362 . S
C234 C237 1.409 . S
C235 H227 0.930 . S
C235 C236 1.355 . S
C235 C237 1.415 . S
C236 C235 1.355 . S
C236 C238 1.419 . S
C237 C232 1.425 . S
C237 C234 1.409 . S
C237 C235 1.415 . S
C238 H228 0.930 . S
C238 C236 1.419 . S
C238 C239 1.362 . S
C239 H229 0.930 . S
C239 C232 1.409 . S
C239 C238 1.362 . S
H240 C246 0.930 . S
H241 C249 0.930 . S
H242 C250 0.930 . S
H243 C251 0.930 . S
H244 C254 0.930 . S
H245 C255 0.930 . S
C246 H240 0.930 . S
C246 C247 1.355 . S
C246 C248 1.415 . S
C247 C246 1.355 . S
C247 C249 1.419 . S
C248 C246 1.415 . S
C248 C253 1.425 . S
C248 C255 1.409 . S
C249 H241 0.930 . S
C249 C247 1.419 . S
C249 C250 1.362 . S
C250 H242 0.930 . S
C250 C249 1.362 . S
C250 C253 1.409 . S
C251 H243 0.930 . S
C251 C252 1.355 . S
C251 C253 1.415 . S
C252 C251 1.355 . S
C252 C254 1.419 . S
C253 C248 1.425 . S
C253 C250 1.409 . S
C253 C251 1.415 . S
C254 H244 0.930 . S
C254 C252 1.419 . S
C254 C255 1.362 . S
C255 H245 0.930 . S
C255 C248 1.409 . S
C255 C254 1.362 . S
H256 C262 0.930 . S
H257 C265 0.930 . S
H258 C266 0.930 . S
H259 C267 0.930 . S
H260 C270 0.930 . S
H261 C271 0.930 . S
C262 H256 0.930 . S
C262 C263 1.355 . S
C262 C264 1.415 . S
C263 C262 1.355 . S
C263 C265 1.419 . S
C264 C262 1.415 . S
C264 C269 1.425 . S
C264 C271 1.409 . S
C265 H257 0.930 . S
C265 C263 1.419 . S
C265 C266 1.362 1_655 S
C266 H258 0.930 . S
C266 C265 1.362 1_455 S
C266 C269 1.409 1_455 S
C267 H259 0.930 . S
C267 C268 1.355 . S
C267 C269 1.415 1_455 S
C268 C267 1.355 . S
C268 C270 1.419 1_455 S
C269 C264 1.425 . S
C269 C266 1.409 1_655 S
C269 C267 1.415 1_655 S
C270 H260 0.930 . S
C270 C268 1.419 1_655 S
C270 C271 1.362 . S
C271 H261 0.930 . S
C271 C264 1.409 . S
C271 C270 1.362 . S
C87 C59 0.676 1_556 S
C92 C19 0.571 1_556 S
C103 C79 0.591 . S
C108 C39 0.579 . S
C119 C58 1.279 1_554 S
C124 C18 1.298 1_554 S
C135 C38 1.276 . S
C140 C78 1.227 . S
C151 C32 1.205 . S
C156 C9 1.192 . S
C167 C29 1.282 . S
C172 C52 1.126 . S
C183 C72 1.160 . S
C188 C49 1.212 . S
C199 C69 1.257 . S
C204 C12 1.208 . S
C215 C44 1.692 . S
C220 C62 1.559 . S
C231 C2 1.579 . S
C236 C64 1.677 . S
C247 C22 1.540 . S
C252 C4 1.624 . S
C263 C42 1.519 . S
C268 C24 1.707 . S
