# Generated by pormake.
# Topology soe, (5)-cn, num edge types: 1
# Building blocks:
#     Node 0, Type 0, BuildingBlock: XOMCOT_clean_sbu_0, # of connection points: 5
#     Node 1, Type 0, BuildingBlock: XOMCOT_clean_sbu_0, # of connection points: 5
#     Node 2, Type 0, BuildingBlock: XOMCOT_clean_sbu_0, # of connection points: 5
#     Node 3, Type 0, BuildingBlock: XOMCOT_clean_sbu_0, # of connection points: 5
#     Node 4, Type 0, BuildingBlock: XOMCOT_clean_sbu_0, # of connection points: 5
#     Node 5, Type 0, BuildingBlock: XOMCOT_clean_sbu_0, # of connection points: 5
#     Node 6, Type 0, BuildingBlock: XOMCOT_clean_sbu_0, # of connection points: 5
#     Node 7, Type 0, BuildingBlock: XOMCOT_clean_sbu_0, # of connection points: 5
#     Edge 8, Type (0, 0), BuildingBlock: TEMPAE_clean_linker_10, # of connection points: 2
#     Edge 9, Type (0, 0), BuildingBlock: TEMPAE_clean_linker_10, # of connection points: 2
#     Edge 10, Type (0, 0), BuildingBlock: TEMPAE_clean_linker_10, # of connection points: 2
#     Edge 11, Type (0, 0), BuildingBlock: TEMPAE_clean_linker_10, # of connection points: 2
#     Edge 12, Type (0, 0), BuildingBlock: TEMPAE_clean_linker_10, # of connection points: 2
#     Edge 13, Type (0, 0), BuildingBlock: TEMPAE_clean_linker_10, # of connection points: 2
#     Edge 14, Type (0, 0), BuildingBlock: TEMPAE_clean_linker_10, # of connection points: 2
#     Edge 15, Type (0, 0), BuildingBlock: TEMPAE_clean_linker_10, # of connection points: 2
#     Edge 16, Type (0, 0), BuildingBlock: TEMPAE_clean_linker_10, # of connection points: 2
#     Edge 17, Type (0, 0), BuildingBlock: TEMPAE_clean_linker_10, # of connection points: 2
#     Edge 18, Type (0, 0), BuildingBlock: TEMPAE_clean_linker_10, # of connection points: 2
#     Edge 19, Type (0, 0), BuildingBlock: TEMPAE_clean_linker_10, # of connection points: 2
#     Edge 20, Type (0, 0), BuildingBlock: TEMPAE_clean_linker_10, # of connection points: 2
#     Edge 21, Type (0, 0), BuildingBlock: TEMPAE_clean_linker_10, # of connection points: 2
#     Edge 22, Type (0, 0), BuildingBlock: TEMPAE_clean_linker_10, # of connection points: 2
#     Edge 23, Type (0, 0), BuildingBlock: TEMPAE_clean_linker_10, # of connection points: 2
#     Edge 24, Type (0, 0), BuildingBlock: TEMPAE_clean_linker_10, # of connection points: 2
#     Edge 25, Type (0, 0), BuildingBlock: TEMPAE_clean_linker_10, # of connection points: 2
#     Edge 26, Type (0, 0), BuildingBlock: TEMPAE_clean_linker_10, # of connection points: 2
#     Edge 27, Type (0, 0), BuildingBlock: TEMPAE_clean_linker_10, # of connection points: 2
# Relax obj value: 0.034
# Max RMSD: 0.066
# Mean RMSD: 0.066
data_MOF--net-soe--node1-XOMCOT_clean_sbu_0--edge1-TEMPAE_clean_linker_10
_symmetry_space_group_name_H-M    P1
_symmetry_Int_Tables_number       1
_symmetry_cell_setting            triclinic
loop_
_symmetry_equiv_pos_as_xyz
'x, y, z'
_cell_length_a     59.290468
_cell_length_b     44.709992
_cell_length_c     17.785586
_cell_angle_alpha  90.065187
_cell_angle_beta   90.175323
_cell_angle_gamma 90.051748
loop_
_atom_site_label
_atom_site_type_symbol
_atom_site_fract_x
_atom_site_fract_y
_atom_site_fract_z
_atom_type_partial_charge
Co0 Co 0.1085 0.10597 0.1117 0.0
C1 C 0.10825 0.11014 0.94546 0.0
C2 C 0.10342 0.15313 0.99679 0.0
C3 C 0.10255 0.1565 0.91983 0.0
N4 N 0.10714 0.12409 0.01282 0.0
N5 N 0.10547 0.12944 0.88769 0.0
H6 H 0.11093 0.08634 0.93884 0.0
H7 H 0.10093 0.17063 0.03789 0.0
C8 C 0.12831 0.15451 0.21255 0.0
O9 O 0.14006 0.13465 0.25037 0.0
N10 N 0.10941 0.08752 0.21109 0.0
C11 C 0.11812 0.06062 0.22936 0.0
C12 C 0.117 0.05693 0.30594 0.0
C13 C 0.10196 0.09906 0.277 0.0
N14 N 0.10712 0.08125 0.33607 0.0
C15 C 0.1443 0.06648 0.07104 0.0
C16 C 0.17998 0.10551 0.0884 0.0
C17 C 0.18441 0.07538 0.07212 0.0
C18 C 0.16618 0.05607 0.06129 0.0
C19 C 0.15758 0.11521 0.09631 0.0
N20 N 0.14008 0.09527 0.09289 0.0
H21 H 0.13081 0.05067 0.06295 0.0
H22 H 0.1546 0.13872 0.10453 0.0
H23 H 0.12503 0.04457 0.19062 0.0
H24 H 0.0942 0.12087 0.28218 0.0
O25 O 0.09461 0.07043 0.0714 0.0
O26 O 0.07575 0.10861 0.1194 0.0
O27 O 0.11623 0.14665 0.15613 0.0
C28 C 0.07535 0.08243 0.08717 0.0
H29 H 0.09931 0.17712 0.88985 0.0
H30 H 0.12335 0.03796 0.33729 0.0
H31 H 0.19365 0.12143 0.09436 0.0
H32 H 0.16879 0.03269 0.04775 0.0
Co33 Co 0.4096 0.93394 0.12125 0.0
C34 C 0.40552 0.93207 0.95499 0.0
C35 C 0.40221 0.88825 1.00276 0.0
C36 C 0.40054 0.88581 0.92584 0.0
N37 N 0.40515 0.91734 0.02125 0.0
N38 N 0.40279 0.91331 0.89626 0.0
H39 H 0.40797 0.95594 0.94933 0.0
H40 H 0.40165 0.86978 0.04175 0.0
C41 C 0.38711 0.88188 0.20345 0.0
O42 O 0.37063 0.89902 0.22716 0.0
N43 N 0.41481 0.95044 0.2222 0.0
C44 C 0.42137 0.9787 0.23923 0.0
C45 C 0.42248 0.98205 0.31586 0.0
C46 C 0.41319 0.93672 0.28982 0.0
N47 N 0.41734 0.95565 0.34733 0.0
C48 C 0.37416 0.9761 0.13944 0.0
C49 C 0.33903 0.94142 0.08617 0.0
C50 C 0.33503 0.97158 0.10365 0.0
C51 C 0.35289 0.98875 0.13138 0.0
C52 C 0.36083 0.92958 0.09468 0.0
N53 N 0.37807 0.94676 0.12263 0.0
H54 H 0.38772 0.9907 0.15534 0.0
H55 H 0.36385 0.90672 0.07785 0.0
H56 H 0.42471 0.99626 0.19914 0.0
H57 H 0.40902 0.91354 0.29813 0.0
O58 O 0.42168 0.96991 0.07779 0.0
O59 O 0.44203 0.93007 0.10808 0.0
O60 O 0.40342 0.89286 0.1654 0.0
C61 C 0.44131 0.95714 0.08084 0.0
H62 H 0.39869 0.86533 0.89387 0.0
H63 H 0.42673 1.0023 0.34624 0.0
H64 H 0.32569 0.92749 0.06351 0.0
H65 H 0.35061 1.01216 0.14519 0.0
Co66 Co 0.10765 0.42954 0.41294 0.0
C67 C 0.11043 0.42418 0.58082 0.0
C68 C 0.09832 0.38429 0.5277 0.0
C69 C 0.09677 0.38066 0.60428 0.0
N70 N 0.10732 0.41137 0.51254 0.0
N71 N 0.10442 0.40577 0.63748 0.0
H72 H 0.11504 0.4472 0.58985 0.0
H73 H 0.09204 0.36877 0.4859 0.0
C74 C 0.12908 0.36973 0.38799 0.0
O75 O 0.1433 0.37629 0.44238 0.0
N76 N 0.10716 0.44719 0.31377 0.0
C77 C 0.11016 0.47629 0.29688 0.0
C78 C 0.10923 0.47957 0.2199 0.0
C79 C 0.10455 0.43313 0.24714 0.0
N80 N 0.10582 0.4524 0.18887 0.0
C81 C 0.14552 0.46219 0.46994 0.0
C82 C 0.17619 0.44456 0.36212 0.0
C83 C 0.18235 0.467 0.41337 0.0
C84 C 0.1668 0.47537 0.46845 0.0
C85 C 0.15455 0.43194 0.36546 0.0
N86 N 0.13956 0.44034 0.41999 0.0
H87 H 0.13338 0.47149 0.50791 0.0
H88 H 0.14949 0.41667 0.32145 0.0
H89 H 0.11322 0.49383 0.33758 0.0
H90 H 0.10179 0.40932 0.24115 0.0
O91 O 0.09524 0.46571 0.4549 0.0
O92 O 0.07487 0.42774 0.41178 0.0
O93 O 0.1142 0.3888 0.36747 0.0
C94 C 0.07549 0.45415 0.44284 0.0
H95 H 0.08988 0.36145 0.63323 0.0
H96 H 0.11155 0.5002 0.18903 0.0
H97 H 0.1875 0.43802 0.31733 0.0
H98 H 0.17072 0.49288 0.50858 0.0
Co99 Co 0.40796 0.60665 0.40797 0.0
C100 C 0.40574 0.61341 0.57609 0.0
C101 C 0.4258 0.64704 0.52255 0.0
C102 C 0.42758 0.65075 0.59907 0.0
N103 N 0.41191 0.62381 0.50777 0.0
N104 N 0.41498 0.62957 0.63258 0.0
H105 H 0.39591 0.59354 0.58544 0.0
H106 H 0.43467 0.65981 0.48029 0.0
C107 C 0.3911 0.6693 0.39744 0.0
O108 O 0.38053 0.66433 0.46107 0.0
N109 N 0.40494 0.58981 0.30858 0.0
C110 C 0.39846 0.56175 0.29132 0.0
C111 C 0.39829 0.55871 0.21424 0.0
C112 C 0.40856 0.60352 0.24223 0.0
N113 N 0.40457 0.58502 0.18358 0.0
C114 C 0.36998 0.57554 0.46857 0.0
C115 C 0.33775 0.60036 0.37533 0.0
C116 C 0.33156 0.57654 0.42231 0.0
C117 C 0.34801 0.56447 0.47003 0.0
C118 C 0.36001 0.61089 0.37578 0.0
N119 N 0.37585 0.59884 0.42298 0.0
H120 H 0.38256 0.56366 0.5004 0.0
H121 H 0.36469 0.62736 0.33441 0.0
H122 H 0.39399 0.54478 0.33193 0.0
H123 H 0.41421 0.62644 0.23691 0.0
O124 O 0.41955 0.56917 0.44507 0.0
O125 O 0.44065 0.60549 0.39798 0.0
O126 O 0.40223 0.64822 0.36594 0.0
C127 C 0.4395 0.57907 0.42862 0.0
H128 H 0.43773 0.66736 0.62783 0.0
H129 H 0.39347 0.53887 0.18314 0.0
H130 H 0.3257 0.61014 0.33666 0.0
H131 H 0.34434 0.54527 0.50505 0.0
Co132 Co 0.90905 0.93143 0.91293 0.0
C133 C 0.90605 0.92533 0.08087 0.0
C134 C 0.92288 0.88865 0.02768 0.0
C135 C 0.92447 0.88497 0.10418 0.0
N136 N 0.91102 0.91371 0.01262 0.0
N137 N 0.91389 0.90806 0.13748 0.0
H138 H 0.89845 0.94687 0.09003 0.0
H139 H 0.93081 0.87469 0.98572 0.0
C140 C 0.89102 0.86938 0.89291 0.0
O141 O 0.8785 0.87412 0.9526 0.0
N142 N 0.90794 0.94872 0.81357 0.0
C143 C 0.90268 0.97722 0.7964 0.0
C144 C 0.90304 0.98041 0.71942 0.0
C145 C 0.91134 0.9349 0.74714 0.0
N146 N 0.90838 0.95376 0.68867 0.0
C147 C 0.87025 0.96186 0.96932 0.0
C148 C 0.83954 0.9391 0.86721 0.0
C149 C 0.83261 0.96183 0.91646 0.0
C150 C 0.8483 0.97293 0.96843 0.0
C151 C 0.86178 0.92862 0.86998 0.0
N152 N 0.87681 0.93954 0.92175 0.0
H153 H 0.88232 0.9731 1.00463 0.0
H154 H 0.86715 0.913 0.82736 0.0
H155 H 0.89849 0.99436 0.83697 0.0
H156 H 0.91589 0.91158 0.74151 0.0
O157 O 0.92015 0.96888 0.95214 0.0
O158 O 0.94183 0.9321 0.91045 0.0
O159 O 0.90383 0.89022 0.8683 0.0
C160 C 0.94029 0.95882 0.9394 0.0
H161 H 0.93329 0.86716 0.13309 0.0
H162 H 0.89905 1.00054 0.68837 0.0
H163 H 0.82812 0.9301 0.82529 0.0
H164 H 0.84412 0.9914 1.00531 0.0
Co165 Co 0.6078 0.10343 0.88914 0.0
C166 C 0.60681 0.10791 0.05735 0.0
C167 C 0.59803 0.14927 1.0046 0.0
C168 C 0.59643 0.15293 0.08125 0.0
N169 N 0.60548 0.12137 0.98923 0.0
N170 N 0.60189 0.12685 0.11415 0.0
H171 H 0.61022 0.0845 0.06598 0.0
H172 H 0.59311 0.16566 0.96309 0.0
C173 C 0.62766 0.16435 0.86564 0.0
O174 O 0.64081 0.15902 0.92375 0.0
N175 N 0.60927 0.08576 0.79004 0.0
C176 C 0.61783 0.05871 0.77279 0.0
C177 C 0.61786 0.05553 0.69576 0.0
C178 C 0.60385 0.0985 0.72362 0.0
N179 N 0.60908 0.08053 0.66506 0.0
C180 C 0.64614 0.07424 0.95357 0.0
C181 C 0.67717 0.09212 0.84713 0.0
C182 C 0.68337 0.07036 0.89989 0.0
C183 C 0.6677 0.06199 0.9545 0.0
C184 C 0.65523 0.10379 0.84791 0.0
N185 N 0.63996 0.09499 0.90118 0.0
H186 H 0.63399 0.06492 0.9914 0.0
H187 H 0.65015 0.11832 0.80248 0.0
H188 H 0.62427 0.04283 0.81334 0.0
H189 H 0.59706 0.12085 0.71805 0.0
O190 O 0.5964 0.06639 0.92881 0.0
O191 O 0.57507 0.10296 0.88339 0.0
O192 O 0.61368 0.14431 0.8435 0.0
C193 C 0.57638 0.07659 0.91441 0.0
H194 H 0.59071 0.17277 0.11044 0.0
H195 H 0.6241 0.03645 0.66462 0.0
H196 H 0.68867 0.09866 0.80287 0.0
H197 H 0.67175 0.045 0.99579 0.0
Co198 Co 0.90912 0.60437 0.61692 0.0
C199 C 0.90877 0.60873 0.44881 0.0
C200 C 0.91848 0.64988 0.50126 0.0
C201 C 0.91959 0.65359 0.42462 0.0
N202 N 0.91081 0.6221 0.51685 0.0
N203 N 0.91355 0.62765 0.39192 0.0
H204 H 0.90495 0.58541 0.44029 0.0
H205 H 0.92392 0.66611 0.54259 0.0
C206 C 0.8896 0.66557 0.64175 0.0
O207 O 0.87607 0.66055 0.58443 0.0
N208 N 0.90817 0.58688 0.71609 0.0
C209 C 0.9 0.55961 0.73321 0.0
C210 C 0.8998 0.55654 0.81018 0.0
C211 C 0.91317 0.59992 0.78255 0.0
N212 N 0.90806 0.58187 0.84095 0.0
C213 C 0.87026 0.575 0.55556 0.0
C214 C 0.8396 0.59484 0.66096 0.0
C215 C 0.83258 0.57358 0.60762 0.0
C216 C 0.84829 0.5639 0.55421 0.0
C217 C 0.86189 0.6053 0.66053 0.0
N218 N 0.87688 0.59586 0.60718 0.0
H219 H 0.88227 0.56494 0.51833 0.0
H220 H 0.86731 0.61983 0.70563 0.0
H221 H 0.89385 0.54351 0.69258 0.0
H222 H 0.91948 0.62254 0.7883 0.0
O223 O 0.92047 0.56703 0.57809 0.0
O224 O 0.94185 0.6043 0.61977 0.0
O225 O 0.90357 0.64535 0.66255 0.0
C226 C 0.94053 0.57751 0.59104 0.0
H227 H 0.92542 0.67331 0.39521 0.0
H228 H 0.89372 0.53736 0.84125 0.0
H229 H 0.8282 0.60279 0.70398 0.0
H230 H 0.84408 0.54655 0.51399 0.0
Co231 Co 0.6073 0.43073 0.60171 0.0
C232 C 0.6083 0.42641 0.43367 0.0
C233 C 0.59925 0.38493 0.48531 0.0
C234 C 0.59838 0.38123 0.40861 0.0
N235 N 0.60637 0.41294 0.50149 0.0
N236 N 0.60399 0.40737 0.37642 0.0
H237 H 0.61166 0.44988 0.42551 0.0
H238 H 0.59397 0.36854 0.52624 0.0
C239 C 0.62797 0.37027 0.62688 0.0
O240 O 0.64161 0.37597 0.57056 0.0
N241 N 0.60748 0.44827 0.70099 0.0
C242 C 0.61475 0.47601 0.71834 0.0
C243 C 0.61486 0.47913 0.79529 0.0
C244 C 0.60293 0.43499 0.76734 0.0
N245 N 0.60746 0.45336 0.82585 0.0
C246 C 0.64565 0.46191 0.54377 0.0
C247 C 0.67613 0.4437 0.65224 0.0
C248 C 0.68252 0.46598 0.6012 0.0
C249 C 0.6671 0.47466 0.54579 0.0
C250 C 0.65432 0.43167 0.64873 0.0
N251 N 0.63937 0.4405 0.59424 0.0
H252 H 0.63364 0.47116 0.50505 0.0
H253 H 0.64907 0.41667 0.6929 0.0
H254 H 0.6204 0.4924 0.67788 0.0
H255 H 0.59743 0.41202 0.77297 0.0
O256 O 0.59531 0.46762 0.56233 0.0
O257 O 0.57455 0.42957 0.60239 0.0
O258 O 0.61354 0.38994 0.64736 0.0
C259 C 0.57543 0.4564 0.5739 0.0
H260 H 0.59292 0.36137 0.37877 0.0
H261 H 0.62034 0.49864 0.82651 0.0
H262 H 0.68739 0.43694 0.69716 0.0
H263 H 0.67128 0.49209 0.50589 0.0
C264 C 0.29293 0.97302 0.11818 0.0
C265 C 0.31278 0.98595 0.09072 0.0
C266 C 0.27218 0.98811 0.11232 0.0
C267 C 0.27131 1.0166 0.07742 0.0
C268 C 0.29121 0.02924 0.04739 0.0
C269 C 0.31168 1.01381 0.05457 0.0
C270 C 0.25131 0.97394 0.1452 0.0
C271 C 0.29097 0.05932 1.00883 0.0
C272 C 0.21403 0.04405 1.01038 0.0
C273 C 0.2077 0.0633 0.06897 0.0
C274 C 0.23486 0.02917 0.01164 0.0
C275 C 0.24965 0.03343 0.07335 0.0
C276 C 0.24364 0.05354 0.13159 0.0
C277 C 0.22277 0.06839 0.12847 0.0
C278 C 0.2408 1.00835 0.9478 0.0
C279 C 0.25893 0.05863 0.19844 0.0
H280 H 0.29376 0.95159 0.14651 0.0
H281 H 0.32698 0.02369 0.03232 0.0
H282 H 0.24449 0.98843 0.19042 0.0
H283 H 0.23803 0.97187 0.10143 0.0
H284 H 0.25472 0.95142 0.16896 0.0
H285 H 0.30774 0.06548 0.98589 0.0
H286 H 0.27851 0.05924 0.96214 0.0
H287 H 0.28567 0.07688 0.04918 0.0
H288 H 0.20245 0.04024 0.96404 0.0
H289 H 0.2178 0.08297 0.17425 0.0
H290 H 0.24238 0.98514 0.96919 0.0
H291 H 0.25736 1.01465 0.92359 0.0
H292 H 0.22794 1.00862 0.90227 0.0
H293 H 0.26135 0.0373 0.22926 0.0
H294 H 0.25206 0.07554 0.238 0.0
H295 H 0.2758 0.06616 0.17937 0.0
C296 C 0.2245 0.46783 0.39858 0.0
C297 C 0.20412 0.48331 0.40702 0.0
C298 C 0.24521 0.48322 0.39751 0.0
C299 C 0.24547 0.51483 0.40426 0.0
C300 C 0.22486 0.53059 0.41019 0.0
C301 C 0.20448 0.51465 0.41165 0.0
C302 C 0.26683 0.46562 0.39136 0.0
C303 C 0.22436 0.56427 0.41653 0.0
C304 C 0.29804 0.55232 0.4831 0.0
C305 C 0.30879 0.5625 0.41773 0.0
C306 C 0.27749 0.53676 0.47939 0.0
C307 C 0.26727 0.53138 0.40859 0.0
C308 C 0.27775 0.54211 0.34245 0.0
C309 C 0.2984 0.55747 0.34778 0.0
C310 C 0.26682 0.52582 0.5513 0.0
C311 C 0.26732 0.53698 0.26598 0.0
H312 H 0.22429 0.44362 0.39513 0.0
H313 H 0.18873 0.52677 0.41668 0.0
H314 H 0.27706 0.47404 0.34373 0.0
H315 H 0.27701 0.46868 0.44327 0.0
H316 H 0.26373 0.44134 0.38304 0.0
H317 H 0.20689 0.57324 0.41694 0.0
H318 H 0.23296 0.57138 0.46907 0.0
H319 H 0.23363 0.5745 0.36896 0.0
H320 H 0.30579 0.55641 0.53743 0.0
H321 H 0.30672 0.56479 0.29685 0.0
H322 H 0.26473 0.50117 0.54916 0.0
H323 H 0.24976 0.53567 0.55762 0.0
H324 H 0.277 0.53164 0.60177 0.0
H325 H 0.26593 0.51264 0.25477 0.0
H326 H 0.27729 0.54741 0.22017 0.0
H327 H 0.24998 0.54628 0.26446 0.0
C328 C 0.70563 0.02302 0.89726 0.0
C329 C 0.70524 0.05438 0.89493 0.0
C330 C 0.72605 1.00725 0.8965 0.0
C331 C 0.74664 0.02323 0.89405 0.0
C332 C 0.74636 0.05491 0.88991 0.0
C333 C 0.72561 0.07013 0.88984 0.0
C334 C 0.72559 0.9735 0.89979 0.0
C335 C 0.76798 0.07272 0.88782 0.0
C336 C 0.79835 0.98485 0.97541 0.0
C337 C 0.80986 0.97579 0.91042 0.0
C338 C 0.77786 1.00041 0.97076 0.0
C339 C 0.76842 1.00679 0.89936 0.0
C340 C 0.77963 0.99711 0.83351 0.0
C341 C 0.80026 0.98184 0.8398 0.0
C342 C 0.76641 1.0103 0.04235 0.0
C343 C 0.76997 1.00322 0.75641 0.0
H344 H 0.68985 1.01078 0.89985 0.0
H345 H 0.72531 0.09436 0.88813 0.0
H346 H 0.73541 0.96397 0.85251 0.0
H347 H 0.73363 0.96575 0.95268 0.0
H348 H 0.70815 0.96442 0.89726 0.0
H349 H 0.76488 0.09709 0.88158 0.0
H350 H 0.77767 0.06896 0.94045 0.0
H351 H 0.77869 0.06508 0.84053 0.0
H352 H 0.80546 0.97992 0.03022 0.0
H353 H 0.80916 0.97538 0.78921 0.0
H354 H 0.74936 1.00018 0.04593 0.0
H355 H 0.7642 0.03494 0.04212 0.0
H356 H 0.77612 1.00395 0.09339 0.0
H357 H 0.75267 0.99388 0.75208 0.0
H358 H 0.78043 0.99347 0.71085 0.0
H359 H 0.76865 0.0277 0.74726 0.0
C360 C 0.79956 0.5526 0.67924 0.0
C361 C 0.80966 0.55978 0.61022 0.0
C362 C 0.7787 0.53765 0.68204 0.0
C363 C 0.76778 0.52932 0.61426 0.0
C364 C 0.77772 0.5368 0.54449 0.0
C365 C 0.79838 0.55213 0.54334 0.0
C366 C 0.76849 0.53043 0.75754 0.0
C367 C 0.76665 0.52829 0.47091 0.0
C368 C 0.7247 0.46605 0.61403 0.0
C369 C 0.70439 0.4819 0.60867 0.0
C370 C 0.74549 0.48119 0.61698 0.0
C371 C 0.74589 0.5129 0.61585 0.0
C372 C 0.72535 0.52896 0.61298 0.0
C373 C 0.70488 0.51327 0.60892 0.0
C374 C 0.76705 0.46327 0.61916 0.0
C375 C 0.725 0.56274 0.61306 0.0
H376 H 0.80822 0.55795 0.73128 0.0
H377 H 0.8058 0.55799 0.48972 0.0
H378 H 0.75118 0.53972 0.76103 0.0
H379 H 0.76709 0.50584 0.76427 0.0
H380 H 0.77864 0.5395 0.80497 0.0
H381 H 0.77672 0.53539 0.42147 0.0
H382 H 0.76427 0.50369 0.46828 0.0
H383 H 0.7497 0.53865 0.46691 0.0
H384 H 0.72433 0.44181 0.6137 0.0
H385 H 0.68915 0.52558 0.60603 0.0
H386 H 0.77742 0.46998 0.66837 0.0
H387 H 0.77713 0.46796 0.56804 0.0
H388 H 0.76384 0.43882 0.62223 0.0
H389 H 0.73454 0.57147 0.66216 0.0
H390 H 0.70757 0.57183 0.61492 0.0
H391 H 0.7334 0.57131 0.56176 0.0
C392 C 0.95892 1.00841 0.95152 0.0
C393 C 0.96019 0.97722 0.95798 0.0
C394 C 0.97724 0.02666 0.97159 0.0
C395 C 0.99702 1.01345 1.00135 0.0
C396 C 0.99829 0.9819 1.00868 0.0
C397 C 0.97996 0.96409 0.98564 0.0
C398 C 0.97548 0.06006 0.96029 0.0
C399 C 0.01887 0.96703 0.04192 0.0
C400 C 0.05295 0.05464 0.99267 0.0
C401 C 0.05438 0.06723 0.06465 0.0
C402 C 0.03407 0.03787 0.97066 0.0
C403 C 0.01658 0.03259 0.02302 0.0
C404 C 0.01793 0.04543 0.09593 0.0
C405 C 0.03672 0.06311 0.11551 0.0
C406 C 0.03298 0.02558 0.89158 0.0
C407 C 0.99991 0.03968 0.1539 0.0
H408 H 0.94362 0.01853 0.92976 0.0
H409 H 0.98079 0.93998 0.99149 0.0
H410 H 0.97727 0.07177 0.01497 0.0
H411 H 0.9894 0.06791 0.92367 0.0
H412 H 0.95917 0.06669 0.93437 0.0
H413 H 0.01678 0.94241 0.04698 0.0
H414 H 0.03381 0.97161 1.00639 0.0
H415 H 0.02243 0.97642 0.09852 0.0
H416 H 0.06668 0.058 0.95338 0.0
H417 H 0.03807 0.07259 0.17148 0.0
H418 H 0.01686 0.03217 0.86437 0.0
H419 H 0.03343 1.00079 0.89304 0.0
H420 H 0.04717 0.0336 0.85624 0.0
H421 H 0.9833 0.04741 0.13273 0.0
H422 H 1.00353 0.05113 0.2081 0.0
H423 H 0.99847 1.01529 0.16438 0.0
C424 C 0.46225 1.00477 0.06487 0.0
C425 C 0.46159 0.9736 0.05654 0.0
C426 C 0.48098 0.02139 0.04129 0.0
C427 C 0.49919 1.00661 1.00593 0.0
C428 C 0.49847 0.97512 0.99626 0.0
C429 C 0.47979 0.95887 0.02296 0.0
C430 C 0.48138 0.05473 0.05511 0.0
C431 C 0.51727 0.9587 0.95689 0.0
C432 C 0.53771 0.05644 0.88923 0.0
C433 C 0.55636 0.05938 0.93707 0.0
C434 C 0.51925 0.03846 0.90982 0.0
C435 C 0.51917 0.02419 0.98103 0.0
C436 C 0.53786 0.02776 0.03002 0.0
C437 C 0.5564 0.04484 1.00676 0.0
C438 C 0.49992 0.03453 0.85524 0.0
C439 C 0.53812 1.01397 0.10752 0.0
H440 H 0.44819 1.01619 0.09104 0.0
H441 H 0.47912 0.93481 0.01572 0.0
H442 H 0.49656 0.06084 0.08845 0.0
H443 H 0.48244 0.06686 1.00089 0.0
H444 H 0.46618 0.06262 0.08563 0.0
H445 H 0.51368 0.93442 0.95082 0.0
H446 H 0.51995 0.96838 0.90017 0.0
H447 H 0.53325 0.96144 0.98869 0.0
H448 H 0.53788 0.06748 0.83499 0.0
H449 H 0.57084 0.04734 0.04386 0.0
H450 H 0.48426 0.04403 0.87941 0.0
H451 H 0.4968 1.01036 0.84521 0.0
H452 H 0.50319 0.04557 0.80042 0.0
H453 H 0.5233 0.02177 0.14001 0.0
H454 H 0.55367 0.01968 0.13952 0.0
H455 H 0.53687 0.98928 0.10312 0.0
C456 C 0.05474 0.48507 0.53544 0.0
C457 C 0.05503 0.47035 0.46591 0.0
C458 C 0.03599 0.50197 0.55782 0.0
C459 C 0.01746 0.5052 0.50806 0.0
C460 C 0.01776 0.49044 0.4374 0.0
C461 C 0.03642 0.47266 0.41773 0.0
C462 C 0.03602 0.51633 0.63472 0.0
C463 C 0.99865 0.49406 0.38187 0.0
C464 C 0.96028 0.52858 0.5844 0.0
C465 C 0.96063 0.55956 0.57283 0.0
C466 C 0.97882 0.51071 0.5649 0.0
C467 C 0.9978 0.52402 0.53019 0.0
C468 C 0.99809 0.55534 0.51761 0.0
C469 C 0.97963 0.57285 0.54044 0.0
C470 C 0.97816 0.47764 0.58193 0.0
C471 C 0.0177 0.57026 0.47871 0.0
H472 H 0.06916 0.48309 0.57275 0.0
H473 H 0.03685 0.46152 0.36358 0.0
H474 H 0.0356 0.54102 0.62911 0.0
H475 H 0.0207 0.50958 0.66615 0.0
H476 H 0.05112 0.51009 0.66835 0.0
H477 H 1.00173 0.48175 0.32859 0.0
H478 H 0.98268 0.48585 0.40671 0.0
H479 H 0.99626 0.51811 0.36871 0.0
H480 H 0.94556 0.51836 0.60975 0.0
H481 H 0.97972 0.59678 0.53061 0.0
H482 H 0.99297 0.47134 0.61677 0.0
H483 H 0.97914 0.4646 0.52898 0.0
H484 H 0.96257 0.47104 0.61219 0.0
H485 H 0.03334 0.56716 0.51213 0.0
H486 H 0.01492 0.5946 0.47041 0.0
H487 H 0.02052 0.55968 0.42304 0.0
C488 C 0.45998 0.54576 0.51683 0.0
C489 C 0.45968 0.56156 0.44887 0.0
C490 C 0.47877 0.52866 0.53805 0.0
C491 C 0.49739 0.52638 0.48869 0.0
C492 C 0.497 0.54199 0.41927 0.0
C493 C 0.47828 0.55993 0.40083 0.0
C494 C 0.47881 0.51337 0.61374 0.0
C495 C 0.51621 0.53941 0.36416 0.0
C496 C 0.55472 0.5046 0.56764 0.0
C497 C 0.55506 0.47369 0.55474 0.0
C498 C 0.53592 0.52191 0.54746 0.0
C499 C 0.5174 0.50815 0.5107 0.0
C500 C 0.51783 0.47692 0.49661 0.0
C501 C 0.53653 0.45993 0.52016 0.0
C502 C 0.53581 0.55487 0.56615 0.0
C503 C 0.49874 0.46157 0.45553 0.0
H504 H 0.44562 0.54728 0.55427 0.0
H505 H 0.47791 0.57199 0.34798 0.0
H506 H 0.48011 0.48881 0.6063 0.0
H507 H 0.49374 0.52064 0.64689 0.0
H508 H 0.46336 0.51833 0.64665 0.0
H509 H 0.51282 0.55172 0.3111 0.0
H510 H 0.53193 0.54833 0.38965 0.0
H511 H 0.51928 0.51553 0.35051 0.0
H512 H 0.56908 0.51517 0.59464 0.0
H513 H 0.537 0.43607 0.50927 0.0
H514 H 0.52077 0.56034 0.60051 0.0
H515 H 0.53468 0.56824 0.51381 0.0
H516 H 0.55116 0.56186 0.59755 0.0
H517 H 0.4829 0.46376 0.48806 0.0
H518 H 0.50212 0.43742 0.446 0.0
H519 H 0.49591 0.4725 0.40031 0.0
C520 C 0.11326 0.14324 0.75588 0.0
C521 C 0.10479 0.12271 0.80829 0.0
C522 C 0.11276 0.13709 0.67836 0.0
C523 C 0.10323 0.1099 0.65231 0.0
C524 C 0.09424 0.08932 0.70494 0.0
C525 C 0.09532 0.09585 0.78229 0.0
C526 C 0.12292 0.1594 0.62445 0.0
C527 C 0.08361 0.06031 0.67958 0.0
C528 C 0.08756 0.10464 0.4441 0.0
C529 C 0.10577 0.08836 0.41516 0.0
C530 C 0.08626 0.11145 0.52137 0.0
C531 C 0.10385 0.10229 0.57047 0.0
C532 C 0.12239 0.08618 0.54116 0.0
C533 C 0.12303 0.07926 0.46421 0.0
C534 C 0.06606 0.1283 0.55057 0.0
C535 C 0.14174 0.07654 0.59094 0.0
H536 H 0.12074 0.1639 0.77579 0.0
H537 H 0.08842 0.08014 0.8225 0.0
H538 H 0.13722 0.14896 0.59408 0.0
H539 H 0.11026 0.1661 0.58162 0.0
H540 H 0.12914 0.17983 0.6535 0.0
H541 H 0.07611 0.04764 0.72704 0.0
H542 H 0.07025 0.0648 0.63727 0.0
H543 H 0.09648 0.04604 0.65213 0.0
H544 H 0.07417 0.11161 0.40642 0.0
H545 H 0.13738 0.06721 0.44196 0.0
H546 H 0.07154 0.14981 0.57585 0.0
H547 H 0.05772 0.11519 0.59556 0.0
H548 H 0.05351 0.13304 0.50563 0.0
H549 H 0.14951 0.0964 0.61813 0.0
H550 H 0.15501 0.06437 0.55926 0.0
H551 H 0.13547 0.0618 0.63644 0.0
C552 C 0.40428 0.97012 0.47305 0.0
C553 C 0.41521 0.94957 0.42622 0.0
C554 C 0.40169 0.96446 0.55005 0.0
C555 C 0.41084 0.93797 0.58115 0.0
C556 C 0.42212 0.91725 0.53408 0.0
C557 C 0.42387 0.92313 0.45678 0.0
C558 C 0.38897 0.98664 0.59791 0.0
C559 C 0.43256 0.88911 0.5655 0.0
C560 C 0.4221 0.93808 0.79146 0.0
C561 C 0.4043 0.92046 0.81788 0.0
C562 C 0.42464 0.94362 0.71432 0.0
C563 C 0.40856 0.93197 0.66295 0.0
C564 C 0.39023 0.91472 0.68982 0.0
C565 C 0.38854 0.90876 0.76703 0.0
C566 C 0.44473 0.96143 0.6877 0.0
C567 C 0.37237 0.9027 0.63713 0.0
H568 H 0.39733 0.99036 0.44886 0.0
H569 H 0.43242 0.9074 0.42028 0.0
H570 H 0.37465 0.97532 0.62619 0.0
H571 H 0.40016 0.99564 0.6426 0.0
H572 H 0.38228 1.00567 0.56448 0.0
H573 H 0.44131 0.87578 0.52167 0.0
H574 H 0.44487 0.89493 0.61032 0.0
H575 H 0.41937 0.87494 0.59153 0.0
H576 H 0.43441 0.94669 0.83115 0.0
H577 H 0.37477 0.89523 0.7881 0.0
H578 H 0.439 0.98181 0.6578 0.0
H579 H 0.45466 0.94797 0.64713 0.0
H580 H 0.45597 0.96826 0.7348 0.0
H581 H 0.36477 0.92131 0.60454 0.0
H582 H 0.35873 0.89073 0.66749 0.0
H583 H 0.38007 0.88708 0.59613 0.0
C584 C 0.12167 0.42978 0.74848 0.0
C585 C 0.1043 0.41262 0.71665 0.0
C586 C 0.122 0.43622 0.82582 0.0
C587 C 0.10428 0.42571 0.87213 0.0
C588 C 0.08652 0.40873 0.83999 0.0
C589 C 0.08686 0.40218 0.76276 0.0
C590 C 0.14141 0.454 0.85808 0.0
C591 C 0.0671 0.39763 0.8871 0.0
C592 C 0.11434 0.4187 0.08276 0.0
C593 C 0.10493 0.44536 0.10982 0.0
C594 C 0.11434 0.41208 1.00554 0.0
C595 C 0.10436 0.4324 0.95425 0.0
C596 C 0.09452 0.45915 0.98144 0.0
C597 C 0.09511 0.46542 0.05883 0.0
C598 C 0.12531 0.38354 0.97872 0.0
C599 C 0.08334 0.48112 0.9288 0.0
H600 H 0.13524 0.43765 0.71294 0.0
H601 H 0.07324 0.38929 0.73806 0.0
H602 H 0.13504 0.47476 0.88478 0.0
H603 H 0.15001 0.44082 0.90254 0.0
H604 H 0.15399 0.4602 0.81464 0.0
H605 H 0.05438 0.38525 0.85322 0.0
H606 H 0.07345 0.38265 0.93209 0.0
H607 H 0.05866 0.41678 0.91503 0.0
H608 H 0.1222 0.40335 0.12195 0.0
H609 H 0.08764 0.48589 0.07976 0.0
H610 H 0.13906 0.38887 0.93871 0.0
H611 H 0.11282 0.36957 0.94812 0.0
H612 H 0.13244 0.3702 0.02577 0.0
H613 H 0.09578 0.48958 0.88751 0.0
H614 H 0.07597 0.5005 0.95913 0.0
H615 H 0.06975 0.46979 0.89652 0.0
C616 C 0.40112 0.6207 0.07833 0.0
C617 C 0.40621 0.59193 0.10465 0.0
C618 C 0.40217 0.62751 1.00132 0.0
C619 C 0.40874 0.60508 0.94952 0.0
C620 C 0.41411 0.57607 0.97591 0.0
C621 C 0.41265 0.56981 0.05306 0.0
C622 C 0.39607 0.65861 0.97534 0.0
C623 C 0.42154 0.55167 0.92267 0.0
C624 C 0.39322 0.6126 0.74267 0.0
C625 C 0.41328 0.62381 0.71208 0.0
C626 C 0.39139 0.60681 0.82004 0.0
C627 C 0.41018 0.61195 0.86774 0.0
C628 C 0.4305 0.62317 0.83706 0.0
C629 C 0.43175 0.62912 0.75971 0.0
C630 C 0.36935 0.59518 0.85074 0.0
C631 C 0.45102 0.62851 0.88578 0.0
H632 H 0.39586 0.63775 0.11789 0.0
H633 H 0.41687 0.54767 0.07331 0.0
H634 H 0.41059 0.66892 0.94591 0.0
H635 H 0.38191 0.65748 0.93449 0.0
H636 H 0.39109 0.67341 0.02269 0.0
H637 H 0.42534 0.5304 0.95231 0.0
H638 H 0.40816 0.54737 0.88026 0.0
H639 H 0.43682 0.5589 0.89176 0.0
H640 H 0.37887 0.60875 0.70608 0.0
H641 H 0.44739 0.63735 0.73613 0.0
H642 H 0.36308 0.61037 0.8954 0.0
H643 H 0.37195 0.57291 0.87679 0.0
H644 H 0.35617 0.59311 0.8065 0.0
H645 H 0.44693 0.64456 0.93134 0.0
H646 H 0.4655 0.63744 0.85326 0.0
H647 H 0.45624 0.60728 0.91295 0.0
C648 C 0.93134 0.90704 0.26349 0.0
C649 C 0.91308 0.91443 0.21682 0.0
C650 C 0.93088 0.91326 0.34082 0.0
C651 C 0.91155 0.92684 0.37247 0.0
C652 C 0.89298 0.93418 0.32569 0.0
C653 C 0.89405 0.92811 0.24826 0.0
C654 C 0.95118 0.90559 0.3885 0.0
C655 C 0.87194 0.94831 0.3575 0.0
C656 C 0.90268 0.91865 0.58315 0.0
C657 C 0.9096 0.94674 0.60973 0.0
C658 C 0.90307 0.91191 0.50602 0.0
C659 C 0.91088 0.93366 0.45439 0.0
C660 C 0.91818 0.96192 0.48108 0.0
C661 C 0.91729 0.96818 0.55837 0.0
C662 C 0.89489 0.88166 0.47971 0.0
C663 C 0.92701 0.98551 0.42802 0.0
H664 H 0.94621 0.89688 0.23914 0.0
H665 H 0.87986 0.93359 0.21231 0.0
H666 H 0.9578 0.92609 0.41605 0.0
H667 H 0.94627 0.88986 0.43378 0.0
H668 H 0.96494 0.89526 0.35512 0.0
H669 H 0.85881 0.95205 0.31384 0.0
H670 H 0.86481 0.9338 0.4021 0.0
H671 H 0.87616 0.9701 0.38392 0.0
H672 H 0.89646 0.90218 0.62262 0.0
H673 H 0.92289 0.98978 0.5789 0.0
H674 H 0.90853 0.86992 0.44898 0.0
H675 H 0.8806 0.88447 0.43993 0.0
H676 H 0.8893 0.86728 0.52705 0.0
H677 H 0.9416 0.9766 0.39615 0.0
H678 H 0.93239 1.00615 0.45795 0.0
H679 H 0.9138 0.99151 0.38641 0.0
C680 C 0.62433 0.07839 0.53645 0.0
C681 C 0.60729 0.08733 0.58608 0.0
C682 C 0.62303 0.08499 0.4594 0.0
C683 C 0.60397 0.10036 0.43087 0.0
C684 C 0.58656 0.10916 0.48068 0.0
C685 C 0.58858 0.10286 0.5579 0.0
C686 C 0.64222 0.07585 0.40869 0.0
C687 C 0.56576 0.12504 0.45231 0.0
C688 C 0.61017 0.14148 0.24484 0.0
C689 C 0.60179 0.12041 0.19348 0.0
C690 C 0.61089 0.1353 0.32223 0.0
C691 C 0.60252 0.10763 0.34911 0.0
C692 C 0.59351 0.08655 0.29751 0.0
C693 C 0.59352 0.09306 0.22017 0.0
C694 C 0.6211 0.15812 0.375 0.0
C695 C 0.58395 0.05709 0.32393 0.0
H696 H 0.63896 0.06675 0.55836 0.0
H697 H 0.57533 0.10954 0.59619 0.0
H698 H 0.63596 0.06056 0.36412 0.0
H699 H 0.64929 0.09585 0.38031 0.0
H700 H 0.656 0.06446 0.43991 0.0
H701 H 0.55343 0.12947 0.49787 0.0
H702 H 0.57053 0.14665 0.42623 0.0
H703 H 0.55741 0.11138 0.40812 0.0
H704 H 0.61672 0.16252 0.22401 0.0
H705 H 0.58675 0.07694 0.1805 0.0
H706 H 0.63581 0.14822 0.40458 0.0
H707 H 0.60867 0.1646 0.41854 0.0
H708 H 0.62673 0.17861 0.34517 0.0
H709 H 0.59746 0.04351 0.35036 0.0
H710 H 0.57635 0.04396 0.2772 0.0
H711 H 0.57088 0.06103 0.36734 0.0
C712 C 0.92167 0.59403 0.28543 0.0
C713 C 0.91337 0.62127 0.31263 0.0
C714 C 0.92177 0.58777 0.20799 0.0
C715 C 0.91282 0.609 0.15688 0.0
C716 C 0.90431 0.63651 0.1843 0.0
C717 C 0.90495 0.64244 0.26181 0.0
C718 C 0.93146 0.55848 0.18087 0.0
C719 C 0.89413 0.65943 0.13196 0.0
C720 C 0.92775 0.60475 0.94903 0.0
C721 C 0.9093 0.58893 0.91982 0.0
C722 C 0.92931 0.61112 0.02631 0.0
C723 C 0.91169 0.60208 0.07499 0.0
C724 C 0.89284 0.58653 0.04534 0.0
C725 C 0.892 0.57986 0.96828 0.0
C726 C 0.94988 0.62722 0.05599 0.0
C727 C 0.87344 0.57716 0.0949 0.0
H728 H 0.92845 0.57786 0.32477 0.0
H729 H 0.89839 0.6634 0.28313 0.0
H730 H 0.9181 0.54504 0.153 0.0
H731 H 0.94477 0.56271 0.13846 0.0
H732 H 0.9388 0.54508 0.22745 0.0
H733 H 0.88824 0.67969 0.16231 0.0
H734 H 0.90668 0.66632 0.0892 0.0
H735 H 0.8796 0.64948 0.10138 0.0
H736 H 0.94117 0.61155 0.91152 0.0
H737 H 0.87758 0.56801 0.94545 0.0
H738 H 0.9582 0.61347 0.09995 0.0
H739 H 0.94486 0.64861 0.0827 0.0
H740 H 0.96233 0.63208 0.01105 0.0
H741 H 0.87952 0.56169 0.13924 0.0
H742 H 0.85978 0.56587 0.06271 0.0
H743 H 0.86627 0.59702 0.12362 0.0
C744 C 0.59493 0.44066 0.27018 0.0
C745 C 0.60402 0.41384 0.29725 0.0
C746 C 0.59456 0.44691 0.19279 0.0
C747 C 0.60405 0.42614 0.14162 0.0
C748 C 0.61339 0.3991 0.16893 0.0
C749 C 0.613 0.39312 0.24638 0.0
C750 C 0.58398 0.47567 0.16578 0.0
C751 C 0.62416 0.37672 0.11653 0.0
C752 C 0.58865 0.4295 0.93379 0.0
C753 C 0.60657 0.44626 0.90468 0.0
C754 C 0.58741 0.4231 0.01105 0.0
C755 C 0.60482 0.43309 0.05978 0.0
C756 C 0.62315 0.44959 0.03022 0.0
C757 C 0.62366 0.45625 0.95319 0.0
C758 C 0.56738 0.40596 0.04065 0.0
C759 C 0.64234 0.45999 0.07984 0.0
H760 H 0.58772 0.45646 0.30959 0.0
H761 H 0.62016 0.3725 0.26764 0.0
H762 H 0.59689 0.48977 0.13793 0.0
H763 H 0.57071 0.47075 0.12338 0.0
H764 H 0.57635 0.48872 0.21241 0.0
H765 H 0.63073 0.35682 0.14683 0.0
H766 H 0.61175 0.36913 0.07379 0.0
H767 H 0.63831 0.38743 0.08593 0.0
H768 H 0.57539 0.42198 0.89622 0.0
H769 H 0.63768 0.46885 0.93042 0.0
H770 H 0.55874 0.41928 0.08466 0.0
H771 H 0.57308 0.38485 0.06729 0.0
H772 H 0.55501 0.40044 0.99568 0.0
H773 H 0.63588 0.47515 0.12422 0.0
H774 H 0.6556 0.47197 0.04771 0.0
H775 H 0.65015 0.44053 0.10852 0.0
C776 C 0.1289 0.20908 0.18115 0.0
C777 C 0.12902 0.18635 0.23538 0.0
C778 C 0.12943 0.23941 0.20231 0.0
C779 C 0.12922 0.24721 0.2796 0.0
C780 C 0.12898 0.22424 0.33452 0.0
C781 C 0.1293 0.1941 0.31172 0.0
C782 C 0.13045 0.2631 0.14198 0.0
C783 C 0.12801 0.23146 0.41741 0.0
C784 C 0.14955 0.32349 0.3481 0.0
C785 C 0.12925 0.33929 0.35497 0.0
C786 C 0.14986 0.2939 0.32111 0.0
C787 C 0.12928 0.27935 0.30318 0.0
C788 C 0.10872 0.2953 0.30984 0.0
C789 C 0.109 0.32524 0.33441 0.0
C790 C 0.1722 0.27813 0.31242 0.0
C791 C 0.08636 0.28044 0.29352 0.0
H792 H 0.12884 0.20309 0.12206 0.0
H793 H 0.12912 0.17653 0.35371 0.0
H794 H 0.11536 0.27766 0.14513 0.0
H795 H 0.14543 0.27758 0.15105 0.0
H796 H 0.13137 0.25332 0.08462 0.0
H797 H 0.12688 0.21104 0.45277 0.0
H798 H 0.14325 0.24421 0.43438 0.0
H799 H 0.11318 0.24582 0.42921 0.0
H800 H 0.16525 0.33435 0.36357 0.0
H801 H 0.09324 0.33729 0.34048 0.0
H802 H 0.1737 0.26877 0.25483 0.0
H803 H 0.17322 0.25913 0.3523 0.0
H804 H 0.18674 0.29327 0.32301 0.0
H805 H 0.086 0.27189 0.23499 0.0
H806 H 0.0719 0.29591 0.30134 0.0
H807 H 0.0841 0.26093 0.3313 0.0
C808 C 0.36781 0.83399 0.23803 0.0
C809 C 0.38783 0.84999 0.22628 0.0
C810 C 0.36824 0.80382 0.2604 0.0
C811 C 0.38921 0.78953 0.2737 0.0
C812 C 0.40949 0.80561 0.26173 0.0
C813 C 0.40856 0.83548 0.23708 0.0
C814 C 0.34624 0.78732 0.27056 0.0
C815 C 0.43219 0.79159 0.27732 0.0
C816 C 0.38864 0.72468 0.41216 0.0
C817 C 0.39075 0.69978 0.36469 0.0
C818 C 0.38853 0.7539 0.3833 0.0
C819 C 0.38988 0.75844 0.30463 0.0
C820 C 0.39178 0.73332 0.2562 0.0
C821 C 0.39254 0.70429 0.28692 0.0
C822 C 0.38715 0.77997 0.43722 0.0
C823 C 0.39267 0.73709 0.17195 0.0
H824 H 0.35175 0.84502 0.22897 0.0
H825 H 0.4241 0.8478 0.2285 0.0
H826 H 0.34649 0.76604 0.23839 0.0
H827 H 0.34394 0.78151 0.33066 0.0
H828 H 0.33151 0.80076 0.25185 0.0
H829 H 0.44639 0.80684 0.26357 0.0
H830 H 0.43339 0.78543 0.33763 0.0
H831 H 0.43411 0.77071 0.24426 0.0
H832 H 0.38752 0.72134 0.47241 0.0
H833 H 0.39406 0.68508 0.25001 0.0
H834 H 0.37153 0.79293 0.42651 0.0
H835 H 0.40161 0.79531 0.42828 0.0
H836 H 0.38718 0.77269 0.49693 0.0
H837 H 0.3774 0.74912 0.15218 0.0
H838 H 0.39374 0.71532 0.14199 0.0
H839 H 0.40747 0.75089 0.15625 0.0
C840 C 0.87678 0.81663 0.88292 0.0
C841 C 0.89047 0.8397 0.85494 0.0
C842 C 0.87639 0.78824 0.84888 0.0
C843 C 0.89003 0.78262 0.7852 0.0
C844 C 0.90379 0.80585 0.75633 0.0
C845 C 0.90383 0.83407 0.79146 0.0
C846 C 0.86139 0.76419 0.88125 0.0
C847 C 0.91855 0.80084 0.68848 0.0
C848 C 0.90461 0.70165 0.73834 0.0
C849 C 0.88944 0.69526 0.67972 0.0
C850 C 0.90502 0.72995 0.77302 0.0
C851 C 0.88985 0.75247 0.74879 0.0
C852 C 0.87439 0.74609 0.69007 0.0
C853 C 0.87438 0.71764 0.65628 0.0
C854 C 0.92178 0.7358 0.83543 0.0
C855 C 0.85785 0.76937 0.66279 0.0
H856 H 0.86637 0.82067 0.93186 0.0
H857 H 0.91446 0.85169 0.76926 0.0
H858 H 0.84936 0.75618 0.83776 0.0
H859 H 0.87173 0.74472 0.89874 0.0
H860 H 0.85165 0.77219 0.93059 0.0
H861 H 0.92816 0.82121 0.67266 0.0
H862 H 0.93069 0.78251 0.69997 0.0
H863 H 0.90809 0.79382 0.63975 0.0
H864 H 0.91633 0.68458 0.75694 0.0
H865 H 0.86257 0.71301 0.61112 0.0
H866 H 0.91277 0.74233 0.8875 0.0
H867 H 0.93294 0.75474 0.8199 0.0
H868 H 0.93242 0.71596 0.8478 0.0
H869 H 0.84703 0.77685 0.70998 0.0
H870 H 0.84684 0.76087 0.61683 0.0
H871 H 0.86708 0.78931 0.64209 0.0
C872 C 0.64228 0.21691 0.8572 0.0
C873 C 0.62815 0.19426 0.82906 0.0
C874 C 0.64246 0.24564 0.82515 0.0
C875 C 0.62821 0.25201 0.7632 0.0
C876 C 0.61403 0.2292 0.73406 0.0
C877 C 0.61416 0.20064 0.76731 0.0
C878 C 0.65787 0.26925 0.8579 0.0
C879 C 0.59863 0.23501 0.66792 0.0
C880 C 0.61363 0.33351 0.7225 0.0
C881 C 0.62838 0.34032 0.66332 0.0
C882 C 0.61338 0.30491 0.75549 0.0
C883 C 0.62824 0.2825 0.72876 0.0
C884 C 0.64327 0.2893 0.66945 0.0
C885 C 0.64317 0.31806 0.63756 0.0
C886 C 0.59715 0.29864 0.81879 0.0
C887 C 0.65943 0.26612 0.63941 0.0
H888 H 0.65315 0.21232 0.90489 0.0
H889 H 0.60319 0.18335 0.74505 0.0
H890 H 0.66956 0.27757 0.81405 0.0
H891 H 0.64778 0.28864 0.87743 0.0
H892 H 0.66799 0.26071 0.90595 0.0
H893 H 0.58877 0.21488 0.65157 0.0
H894 H 0.58672 0.25332 0.68173 0.0
H895 H 0.60867 0.24244 0.6188 0.0
H896 H 0.60214 0.35049 0.74292 0.0
H897 H 0.65464 0.323 0.59188 0.0
H898 H 0.60657 0.29147 0.86964 0.0
H899 H 0.58571 0.28002 0.80286 0.0
H900 H 0.58678 0.31849 0.83337 0.0
H901 H 0.67062 0.2581 0.68524 0.0
H902 H 0.67007 0.27494 0.59317 0.0
H903 H 0.6499 0.24646 0.61818 0.0
loop_
_geom_bond_atom_site_label_1
_geom_bond_atom_site_label_2
_geom_bond_distance
_geom_bond_site_symmetry_2
_ccdc_geom_bond_type
Co0 N4 2.148 1_554 S
Co0 N10 2.128 . S
Co0 N20 2.194 . S
Co0 O25 2.351 . S
Co0 O26 2.155 . S
Co0 O27 2.096 . S
C1 N4 1.301 . S
C1 N5 1.328 . S
C1 H6 0.930 . S
C2 C3 1.333 . S
C2 N4 1.317 . S
C2 H7 0.929 1_556 S
C3 C2 1.333 . S
C3 N5 1.350 . S
C3 H29 0.931 . S
N4 Co0 2.148 1_556 S
N4 C1 1.301 . S
N4 C2 1.317 . S
N5 C1 1.328 . S
N5 C3 1.350 . S
H6 C1 0.930 . S
H7 C2 0.929 1_554 S
C8 O9 1.224 . S
C8 O27 1.247 . S
O9 C8 1.224 . S
N10 Co0 2.128 . S
N10 C11 1.355 . S
N10 C13 1.311 . S
C11 N10 1.355 . S
C11 C12 1.363 . S
C11 H23 0.929 . S
C12 C11 1.363 . S
C12 N14 1.375 . S
C12 H30 0.931 . S
C13 N10 1.311 . S
C13 N14 1.347 . S
C13 H24 0.929 . S
N14 C12 1.375 . S
N14 C13 1.347 . S
C15 C18 1.365 . S
C15 N20 1.328 . S
C15 H21 0.929 . S
C16 C17 1.362 . S
C16 C19 1.378 . S
C16 H31 0.929 . S
C17 C16 1.362 . S
C17 C18 1.366 . S
C18 C15 1.365 . S
C18 C17 1.366 . S
C18 H32 0.930 . S
C19 C16 1.378 . S
C19 N20 1.315 . S
C19 H22 0.930 . S
N20 Co0 2.194 . S
N20 C15 1.328 . S
N20 C19 1.315 . S
H21 C15 0.929 . S
H22 C19 0.930 . S
H23 C11 0.929 . S
H24 C13 0.929 . S
O25 Co0 2.351 . S
O25 C28 1.244 . S
O26 Co0 2.155 . S
O26 C28 1.240 . S
O27 Co0 2.096 . S
O27 C8 1.247 . S
C28 O25 1.244 . S
C28 O26 1.240 . S
H29 C3 0.931 . S
H30 C12 0.931 . S
H31 C16 0.929 . S
H32 C18 0.930 . S
Co33 N37 2.148 1_554 S
Co33 N43 2.128 . S
Co33 N53 2.194 . S
Co33 O58 2.351 . S
Co33 O59 2.155 . S
Co33 O60 2.096 . S
C34 N37 1.301 . S
C34 N38 1.328 . S
C34 H39 0.930 . S
C35 C36 1.333 . S
C35 N37 1.317 . S
C35 H40 0.929 1_556 S
C36 C35 1.333 . S
C36 N38 1.350 . S
C36 H62 0.931 . S
N37 Co33 2.148 1_556 S
N37 C34 1.301 . S
N37 C35 1.317 . S
N38 C34 1.328 . S
N38 C36 1.350 . S
H39 C34 0.930 . S
H40 C35 0.929 1_554 S
C41 O42 1.224 . S
C41 O60 1.247 . S
O42 C41 1.224 . S
N43 Co33 2.128 . S
N43 C44 1.355 . S
N43 C46 1.311 . S
C44 N43 1.355 . S
C44 C45 1.363 . S
C44 H56 0.929 . S
C45 C44 1.363 . S
C45 N47 1.375 . S
C45 H63 0.931 . S
C46 N43 1.311 . S
C46 N47 1.347 . S
C46 H57 0.929 . S
N47 C45 1.375 . S
N47 C46 1.347 . S
C48 C51 1.365 . S
C48 N53 1.328 . S
C48 H54 0.929 . S
C49 C50 1.362 . S
C49 C52 1.378 . S
C49 H64 0.929 . S
C50 C49 1.362 . S
C50 C51 1.366 . S
C51 C48 1.365 . S
C51 C50 1.366 . S
C51 H65 0.930 . S
C52 C49 1.378 . S
C52 N53 1.315 . S
C52 H55 0.930 . S
N53 Co33 2.194 . S
N53 C48 1.328 . S
N53 C52 1.315 . S
H54 C48 0.929 . S
H55 C52 0.930 . S
H56 C44 0.929 . S
H57 C46 0.929 . S
O58 Co33 2.351 . S
O58 C61 1.244 . S
O59 Co33 2.155 . S
O59 C61 1.240 . S
O60 Co33 2.096 . S
O60 C41 1.247 . S
C61 O58 1.244 . S
C61 O59 1.240 . S
H62 C36 0.931 . S
H63 C45 0.931 . S
H64 C49 0.929 . S
H65 C51 0.930 . S
Co66 N70 2.148 . S
Co66 N76 2.128 . S
Co66 N86 2.194 . S
Co66 O91 2.351 . S
Co66 O92 2.155 . S
Co66 O93 2.096 . S
C67 N70 1.301 . S
C67 N71 1.328 . S
C67 H72 0.930 . S
C68 C69 1.333 . S
C68 N70 1.317 . S
C68 H73 0.930 . S
C69 C68 1.333 . S
C69 N71 1.350 . S
C69 H95 0.931 . S
N70 Co66 2.148 . S
N70 C67 1.301 . S
N70 C68 1.317 . S
N71 C67 1.328 . S
N71 C69 1.350 . S
H72 C67 0.930 . S
H73 C68 0.930 . S
C74 O75 1.224 . S
C74 O93 1.247 . S
O75 C74 1.224 . S
N76 Co66 2.128 . S
N76 C77 1.355 . S
N76 C79 1.311 . S
C77 N76 1.355 . S
C77 C78 1.363 . S
C77 H89 0.929 . S
C78 C77 1.363 . S
C78 N80 1.375 . S
C78 H96 0.931 . S
C79 N76 1.311 . S
C79 N80 1.347 . S
C79 H90 0.929 . S
N80 C78 1.375 . S
N80 C79 1.347 . S
C81 C84 1.365 . S
C81 N86 1.328 . S
C81 H87 0.929 . S
C82 C83 1.362 . S
C82 C85 1.378 . S
C82 H97 0.929 . S
C83 C82 1.362 . S
C83 C84 1.366 . S
C84 C81 1.365 . S
C84 C83 1.366 . S
C84 H98 0.930 . S
C85 C82 1.378 . S
C85 N86 1.315 . S
C85 H88 0.930 . S
N86 Co66 2.194 . S
N86 C81 1.328 . S
N86 C85 1.315 . S
H87 C81 0.929 . S
H88 C85 0.930 . S
H89 C77 0.929 . S
H90 C79 0.929 . S
O91 Co66 2.351 . S
O91 C94 1.244 . S
O92 Co66 2.155 . S
O92 C94 1.240 . S
O93 Co66 2.096 . S
O93 C74 1.247 . S
C94 O91 1.244 . S
C94 O92 1.240 . S
H95 C69 0.931 . S
H96 C78 0.931 . S
H97 C82 0.929 . S
H98 C84 0.930 . S
Co99 N103 2.148 . S
Co99 N109 2.128 . S
Co99 N119 2.194 . S
Co99 O124 2.351 . S
Co99 O125 2.155 . S
Co99 O126 2.096 . S
C100 N103 1.301 . S
C100 N104 1.328 . S
C100 H105 0.930 . S
C101 C102 1.333 . S
C101 N103 1.317 . S
C101 H106 0.930 . S
C102 C101 1.333 . S
C102 N104 1.350 . S
C102 H128 0.931 . S
N103 Co99 2.148 . S
N103 C100 1.301 . S
N103 C101 1.317 . S
N104 C100 1.328 . S
N104 C102 1.350 . S
H105 C100 0.930 . S
H106 C101 0.930 . S
C107 O108 1.224 . S
C107 O126 1.247 . S
O108 C107 1.224 . S
N109 Co99 2.128 . S
N109 C110 1.355 . S
N109 C112 1.311 . S
C110 N109 1.355 . S
C110 C111 1.363 . S
C110 H122 0.929 . S
C111 C110 1.363 . S
C111 N113 1.375 . S
C111 H129 0.931 . S
C112 N109 1.311 . S
C112 N113 1.347 . S
C112 H123 0.929 . S
N113 C111 1.375 . S
N113 C112 1.347 . S
C114 C117 1.365 . S
C114 N119 1.328 . S
C114 H120 0.929 . S
C115 C116 1.362 . S
C115 C118 1.378 . S
C115 H130 0.929 . S
C116 C115 1.362 . S
C116 C117 1.366 . S
C117 C114 1.365 . S
C117 C116 1.366 . S
C117 H131 0.930 . S
C118 C115 1.378 . S
C118 N119 1.315 . S
C118 H121 0.930 . S
N119 Co99 2.194 . S
N119 C114 1.328 . S
N119 C118 1.315 . S
H120 C114 0.929 . S
H121 C118 0.930 . S
H122 C110 0.929 . S
H123 C112 0.929 . S
O124 Co99 2.351 . S
O124 C127 1.244 . S
O125 Co99 2.155 . S
O125 C127 1.240 . S
O126 Co99 2.096 . S
O126 C107 1.247 . S
C127 O124 1.244 . S
C127 O125 1.240 . S
H128 C102 0.931 . S
H129 C111 0.931 . S
H130 C115 0.929 . S
H131 C117 0.930 . S
Co132 N136 2.148 1_556 S
Co132 N142 2.128 . S
Co132 N152 2.194 . S
Co132 O157 2.351 . S
Co132 O158 2.155 . S
Co132 O159 2.096 . S
C133 N136 1.301 . S
C133 N137 1.328 . S
C133 H138 0.930 . S
C134 C135 1.333 . S
C134 N136 1.317 . S
C134 H139 0.929 1_554 S
C135 C134 1.333 . S
C135 N137 1.350 . S
C135 H161 0.931 . S
N136 Co132 2.148 1_554 S
N136 C133 1.301 . S
N136 C134 1.317 . S
N137 C133 1.328 . S
N137 C135 1.350 . S
H138 C133 0.930 . S
H139 C134 0.929 1_556 S
C140 O141 1.224 . S
C140 O159 1.247 . S
O141 C140 1.224 . S
N142 Co132 2.128 . S
N142 C143 1.355 . S
N142 C145 1.311 . S
C143 N142 1.355 . S
C143 C144 1.363 . S
C143 H155 0.929 . S
C144 C143 1.363 . S
C144 N146 1.375 . S
C144 H162 0.931 . S
C145 N142 1.311 . S
C145 N146 1.347 . S
C145 H156 0.929 . S
N146 C144 1.375 . S
N146 C145 1.347 . S
C147 C150 1.365 . S
C147 N152 1.328 . S
C147 H153 0.929 . S
C148 C149 1.362 . S
C148 C151 1.378 . S
C148 H163 0.929 . S
C149 C148 1.362 . S
C149 C150 1.366 . S
C150 C147 1.365 . S
C150 C149 1.366 . S
C150 H164 0.930 . S
C151 C148 1.378 . S
C151 N152 1.315 . S
C151 H154 0.930 . S
N152 Co132 2.194 . S
N152 C147 1.328 . S
N152 C151 1.315 . S
H153 C147 0.929 . S
H154 C151 0.930 . S
H155 C143 0.929 . S
H156 C145 0.929 . S
O157 Co132 2.351 . S
O157 C160 1.244 . S
O158 Co132 2.155 . S
O158 C160 1.240 . S
O159 Co132 2.096 . S
O159 C140 1.247 . S
C160 O157 1.244 . S
C160 O158 1.240 . S
H161 C135 0.931 . S
H162 C144 0.931 . S
H163 C148 0.929 . S
H164 C150 0.930 . S
Co165 N169 2.148 1_556 S
Co165 N175 2.128 . S
Co165 N185 2.194 . S
Co165 O190 2.351 . S
Co165 O191 2.155 . S
Co165 O192 2.096 . S
C166 N169 1.301 . S
C166 N170 1.328 . S
C166 H171 0.930 . S
C167 C168 1.333 . S
C167 N169 1.317 . S
C167 H172 0.929 1_554 S
C168 C167 1.333 . S
C168 N170 1.350 . S
C168 H194 0.931 . S
N169 Co165 2.148 1_554 S
N169 C166 1.301 . S
N169 C167 1.317 . S
N170 C166 1.328 . S
N170 C168 1.350 . S
H171 C166 0.930 . S
H172 C167 0.929 1_556 S
C173 O174 1.224 . S
C173 O192 1.247 . S
O174 C173 1.224 . S
N175 Co165 2.128 . S
N175 C176 1.355 . S
N175 C178 1.311 . S
C176 N175 1.355 . S
C176 C177 1.363 . S
C176 H188 0.929 . S
C177 C176 1.363 . S
C177 N179 1.375 . S
C177 H195 0.931 . S
C178 N175 1.311 . S
C178 N179 1.347 . S
C178 H189 0.929 . S
N179 C177 1.375 . S
N179 C178 1.347 . S
C180 C183 1.365 . S
C180 N185 1.328 . S
C180 H186 0.929 . S
C181 C182 1.362 . S
C181 C184 1.378 . S
C181 H196 0.929 . S
C182 C181 1.362 . S
C182 C183 1.366 . S
C183 C180 1.365 . S
C183 C182 1.366 . S
C183 H197 0.930 . S
C184 C181 1.378 . S
C184 N185 1.315 . S
C184 H187 0.930 . S
N185 Co165 2.194 . S
N185 C180 1.328 . S
N185 C184 1.315 . S
H186 C180 0.929 . S
H187 C184 0.930 . S
H188 C176 0.929 . S
H189 C178 0.929 . S
O190 Co165 2.351 . S
O190 C193 1.244 . S
O191 Co165 2.155 . S
O191 C193 1.240 . S
O192 Co165 2.096 . S
O192 C173 1.247 . S
C193 O190 1.244 . S
C193 O191 1.240 . S
H194 C168 0.931 . S
H195 C177 0.931 . S
H196 C181 0.929 . S
H197 C183 0.930 . S
Co198 N202 2.148 . S
Co198 N208 2.128 . S
Co198 N218 2.194 . S
Co198 O223 2.351 . S
Co198 O224 2.155 . S
Co198 O225 2.096 . S
C199 N202 1.301 . S
C199 N203 1.328 . S
C199 H204 0.930 . S
C200 C201 1.333 . S
C200 N202 1.317 . S
C200 H205 0.930 . S
C201 C200 1.333 . S
C201 N203 1.350 . S
C201 H227 0.931 . S
N202 Co198 2.148 . S
N202 C199 1.301 . S
N202 C200 1.317 . S
N203 C199 1.328 . S
N203 C201 1.350 . S
H204 C199 0.930 . S
H205 C200 0.930 . S
C206 O207 1.224 . S
C206 O225 1.247 . S
O207 C206 1.224 . S
N208 Co198 2.128 . S
N208 C209 1.355 . S
N208 C211 1.311 . S
C209 N208 1.355 . S
C209 C210 1.363 . S
C209 H221 0.929 . S
C210 C209 1.363 . S
C210 N212 1.375 . S
C210 H228 0.931 . S
C211 N208 1.311 . S
C211 N212 1.347 . S
C211 H222 0.929 . S
N212 C210 1.375 . S
N212 C211 1.347 . S
C213 C216 1.365 . S
C213 N218 1.328 . S
C213 H219 0.929 . S
C214 C215 1.362 . S
C214 C217 1.378 . S
C214 H229 0.929 . S
C215 C214 1.362 . S
C215 C216 1.366 . S
C216 C213 1.365 . S
C216 C215 1.366 . S
C216 H230 0.930 . S
C217 C214 1.378 . S
C217 N218 1.315 . S
C217 H220 0.930 . S
N218 Co198 2.194 . S
N218 C213 1.328 . S
N218 C217 1.315 . S
H219 C213 0.929 . S
H220 C217 0.930 . S
H221 C209 0.929 . S
H222 C211 0.929 . S
O223 Co198 2.351 . S
O223 C226 1.244 . S
O224 Co198 2.155 . S
O224 C226 1.240 . S
O225 Co198 2.096 . S
O225 C206 1.247 . S
C226 O223 1.244 . S
C226 O224 1.240 . S
H227 C201 0.931 . S
H228 C210 0.931 . S
H229 C214 0.929 . S
H230 C216 0.930 . S
Co231 N235 2.148 . S
Co231 N241 2.128 . S
Co231 N251 2.194 . S
Co231 O256 2.351 . S
Co231 O257 2.155 . S
Co231 O258 2.096 . S
C232 N235 1.301 . S
C232 N236 1.328 . S
C232 H237 0.930 . S
C233 C234 1.333 . S
C233 N235 1.317 . S
C233 H238 0.930 . S
C234 C233 1.333 . S
C234 N236 1.350 . S
C234 H260 0.931 . S
N235 Co231 2.148 . S
N235 C232 1.301 . S
N235 C233 1.317 . S
N236 C232 1.328 . S
N236 C234 1.350 . S
H237 C232 0.930 . S
H238 C233 0.930 . S
C239 O240 1.224 . S
C239 O258 1.247 . S
O240 C239 1.224 . S
N241 Co231 2.128 . S
N241 C242 1.355 . S
N241 C244 1.311 . S
C242 N241 1.355 . S
C242 C243 1.363 . S
C242 H254 0.929 . S
C243 C242 1.363 . S
C243 N245 1.375 . S
C243 H261 0.931 . S
C244 N241 1.311 . S
C244 N245 1.347 . S
C244 H255 0.929 . S
N245 C243 1.375 . S
N245 C244 1.347 . S
C246 C249 1.365 . S
C246 N251 1.328 . S
C246 H252 0.929 . S
C247 C248 1.362 . S
C247 C250 1.378 . S
C247 H262 0.929 . S
C248 C247 1.362 . S
C248 C249 1.366 . S
C249 C246 1.365 . S
C249 C248 1.366 . S
C249 H263 0.930 . S
C250 C247 1.378 . S
C250 N251 1.315 . S
C250 H253 0.930 . S
N251 Co231 2.194 . S
N251 C246 1.328 . S
N251 C250 1.315 . S
H252 C246 0.929 . S
H253 C250 0.930 . S
H254 C242 0.929 . S
H255 C244 0.929 . S
O256 Co231 2.351 . S
O256 C259 1.244 . S
O257 Co231 2.155 . S
O257 C259 1.240 . S
O258 Co231 2.096 . S
O258 C239 1.247 . S
C259 O256 1.244 . S
C259 O257 1.240 . S
H260 C234 0.931 . S
H261 C243 0.931 . S
H262 C247 0.929 . S
H263 C249 0.930 . S
C264 C265 1.391 . S
C264 C266 1.394 . S
C264 H280 0.931 . S
C265 C264 1.391 . S
C265 C269 1.376 . S
C266 C264 1.394 . S
C266 C267 1.369 . S
C266 C270 1.531 . S
C267 C266 1.369 . S
C267 C268 1.410 1_565 S
C267 C275 1.503 1_565 S
C268 C267 1.410 1_545 S
C268 C269 1.392 1_545 S
C268 C271 1.511 . S
C269 C265 1.376 . S
C269 C268 1.392 1_565 S
C269 H281 0.929 1_565 S
C270 C266 1.531 . S
C270 H282 0.960 . S
C270 H283 0.962 . S
C270 H284 0.960 . S
C271 C268 1.511 . S
C271 H285 0.961 1_554 S
C271 H286 0.961 . S
C271 H287 0.961 . S
C272 C273 1.370 . S
C272 C274 1.354 1_545 S
C272 H288 0.931 . S
C273 C272 1.370 . S
C273 C277 1.408 . S
C274 C272 1.354 1_565 S
C274 C275 1.362 1_565 S
C274 C278 1.543 . S
C275 C267 1.503 1_545 S
C275 C274 1.362 1_545 S
C275 C276 1.403 . S
C276 C275 1.403 . S
C276 C277 1.404 . S
C276 C279 1.539 . S
C277 C273 1.408 . S
C277 C276 1.404 . S
C277 H289 0.930 . S
C278 C274 1.543 . S
C278 H290 0.956 . S
C278 H291 0.961 1_554 S
C278 H292 0.961 1_554 S
C279 C276 1.539 . S
C279 H293 0.958 . S
C279 H294 0.961 . S
C279 H295 0.960 . S
H280 C264 0.931 . S
H281 C269 0.929 1_545 S
H282 C270 0.960 . S
H283 C270 0.962 . S
H284 C270 0.960 . S
H285 C271 0.961 1_556 S
H286 C271 0.961 . S
H287 C271 0.961 . S
H288 C272 0.931 . S
H289 C277 0.930 . S
H290 C278 0.956 . S
H291 C278 0.961 1_556 S
H292 C278 0.961 1_556 S
H293 C279 0.958 . S
H294 C279 0.961 . S
H295 C279 0.960 . S
C296 C297 1.391 . S
C296 C298 1.394 . S
C296 H312 0.931 . S
C297 C296 1.391 . S
C297 C301 1.376 . S
C298 C296 1.394 . S
C298 C299 1.369 . S
C298 C302 1.531 . S
C299 C298 1.369 . S
C299 C300 1.410 . S
C299 C307 1.503 . S
C300 C299 1.410 . S
C300 C301 1.392 . S
C300 C303 1.511 . S
C301 C297 1.376 . S
C301 C300 1.392 . S
C301 H313 0.929 . S
C302 C298 1.531 . S
C302 H314 0.960 . S
C302 H315 0.962 . S
C302 H316 0.960 . S
C303 C300 1.511 . S
C303 H317 0.961 . S
C303 H318 0.961 . S
C303 H319 0.961 . S
C304 C305 1.370 . S
C304 C306 1.363 . S
C304 H320 0.931 . S
C305 C304 1.370 . S
C305 C309 1.408 . S
C306 C304 1.363 . S
C306 C307 1.370 . S
C306 C310 1.524 . S
C307 C299 1.503 . S
C307 C306 1.370 . S
C307 C308 1.403 . S
C308 C307 1.403 . S
C308 C309 1.404 . S
C308 C311 1.539 . S
C309 C305 1.408 . S
C309 C308 1.404 . S
C309 H321 0.930 . S
C310 C306 1.524 . S
C310 H322 0.956 . S
C310 H323 0.961 . S
C310 H324 0.961 . S
C311 C308 1.539 . S
C311 H325 0.958 . S
C311 H326 0.961 . S
C311 H327 0.960 . S
H312 C296 0.931 . S
H313 C301 0.929 . S
H314 C302 0.960 . S
H315 C302 0.962 . S
H316 C302 0.960 . S
H317 C303 0.961 . S
H318 C303 0.961 . S
H319 C303 0.961 . S
H320 C304 0.931 . S
H321 C309 0.930 . S
H322 C310 0.956 . S
H323 C310 0.961 . S
H324 C310 0.961 . S
H325 C311 0.958 . S
H326 C311 0.961 . S
H327 C311 0.960 . S
C328 C329 1.391 . S
C328 C330 1.394 1_545 S
C328 H344 0.931 1_545 S
C329 C328 1.391 . S
C329 C333 1.376 . S
C330 C328 1.394 1_565 S
C330 C331 1.369 1_565 S
C330 C334 1.531 . S
C331 C330 1.369 1_545 S
C331 C332 1.410 . S
C331 C339 1.503 1_545 S
C332 C331 1.410 . S
C332 C333 1.392 . S
C332 C335 1.511 . S
C333 C329 1.376 . S
C333 C332 1.392 . S
C333 H345 0.929 . S
C334 C330 1.531 . S
C334 H346 0.960 . S
C334 H347 0.962 . S
C334 H348 0.960 . S
C335 C332 1.511 . S
C335 H349 0.961 . S
C335 H350 0.961 . S
C335 H351 0.961 . S
C336 C337 1.370 . S
C336 C338 1.363 . S
C336 H352 0.931 . S
C337 C336 1.370 . S
C337 C341 1.408 . S
C338 C336 1.363 . S
C338 C339 1.370 . S
C338 C342 1.524 1_556 S
C339 C331 1.503 1_565 S
C339 C338 1.370 . S
C339 C340 1.403 . S
C340 C339 1.403 . S
C340 C341 1.404 . S
C340 C343 1.539 1_565 S
C341 C337 1.408 . S
C341 C340 1.404 . S
C341 H353 0.930 . S
C342 C338 1.524 1_554 S
C342 H354 0.956 1_554 S
C342 H355 0.961 . S
C342 H356 0.961 . S
C343 C340 1.539 1_545 S
C343 H357 0.958 . S
C343 H358 0.961 . S
C343 H359 0.960 . S
H344 C328 0.931 1_565 S
H345 C333 0.929 . S
H346 C334 0.960 . S
H347 C334 0.962 . S
H348 C334 0.960 . S
H349 C335 0.961 . S
H350 C335 0.961 . S
H351 C335 0.961 . S
H352 C336 0.931 . S
H353 C341 0.930 . S
H354 C342 0.956 1_556 S
H355 C342 0.961 . S
H356 C342 0.961 . S
H357 C343 0.958 . S
H358 C343 0.961 . S
H359 C343 0.960 . S
C360 C361 1.391 . S
C360 C362 1.394 . S
C360 H376 0.931 . S
C361 C360 1.391 . S
C361 C365 1.376 . S
C362 C360 1.394 . S
C362 C363 1.369 . S
C362 C366 1.531 . S
C363 C362 1.369 . S
C363 C364 1.410 . S
C363 C371 1.503 . S
C364 C363 1.410 . S
C364 C365 1.392 . S
C364 C367 1.511 . S
C365 C361 1.376 . S
C365 C364 1.392 . S
C365 H377 0.929 . S
C366 C362 1.531 . S
C366 H378 0.960 . S
C366 H379 0.962 . S
C366 H380 0.960 . S
C367 C364 1.511 . S
C367 H381 0.961 . S
C367 H382 0.961 . S
C367 H383 0.961 . S
C368 C369 1.370 . S
C368 C370 1.363 . S
C368 H384 0.931 . S
C369 C368 1.370 . S
C369 C373 1.408 . S
C370 C368 1.363 . S
C370 C371 1.370 . S
C370 C374 1.524 . S
C371 C363 1.503 . S
C371 C370 1.370 . S
C371 C372 1.403 . S
C372 C371 1.403 . S
C372 C373 1.404 . S
C372 C375 1.539 . S
C373 C369 1.408 . S
C373 C372 1.404 . S
C373 H385 0.930 . S
C374 C370 1.524 . S
C374 H386 0.956 . S
C374 H387 0.961 . S
C374 H388 0.961 . S
C375 C372 1.539 . S
C375 H389 0.958 . S
C375 H390 0.961 . S
C375 H391 0.960 . S
H376 C360 0.931 . S
H377 C365 0.929 . S
H378 C366 0.960 . S
H379 C366 0.962 . S
H380 C366 0.960 . S
H381 C367 0.961 . S
H382 C367 0.961 . S
H383 C367 0.961 . S
H384 C368 0.931 . S
H385 C373 0.930 . S
H386 C374 0.956 . S
H387 C374 0.961 . S
H388 C374 0.961 . S
H389 C375 0.958 . S
H390 C375 0.961 . S
H391 C375 0.960 . S
C392 C393 1.391 . S
C392 C394 1.394 1_565 S
C392 H408 0.945 . S
C393 C392 1.391 . S
C393 C397 1.376 . S
C394 C392 1.394 1_545 S
C394 C395 1.369 1_546 S
C394 C398 1.531 . S
C395 C394 1.369 1_564 S
C395 C396 1.410 . S
C395 C403 1.503 1_665 S
C396 C395 1.410 . S
C396 C397 1.392 1_554 S
C396 C399 1.511 1_655 S
C397 C393 1.376 . S
C397 C396 1.392 1_556 S
C397 H409 0.929 1_556 S
C398 C394 1.531 . S
C398 H410 0.960 . S
C398 H411 0.962 . S
C398 H412 0.960 . S
C399 C396 1.511 1_455 S
C399 H413 0.961 . S
C399 H414 0.961 . S
C399 H415 0.961 1_455 S
C400 C401 1.370 1_556 S
C400 C402 1.363 . S
C400 H416 0.931 . S
C401 C400 1.370 1_554 S
C401 C405 1.408 . S
C402 C400 1.363 . S
C402 C403 1.370 1_556 S
C402 C406 1.524 1_545 S
C403 C395 1.503 1_445 S
C403 C402 1.370 1_554 S
C403 C404 1.403 . S
C404 C403 1.403 . S
C404 C405 1.404 . S
C404 C407 1.539 1_455 S
C405 C401 1.408 . S
C405 C404 1.404 . S
C405 H417 0.930 . S
C406 C402 1.524 1_565 S
C406 H418 0.957 1_565 S
C406 H419 0.961 . S
C406 H420 0.961 . S
C407 C404 1.539 1_655 S
C407 H421 0.958 . S
C407 H422 0.961 . S
C407 H423 0.960 . S
H408 C392 0.945 . S
H409 C397 0.929 1_554 S
H410 C398 0.960 . S
H411 C398 0.962 . S
H412 C398 0.960 . S
H413 C399 0.961 . S
H414 C399 0.961 . S
H415 C399 0.961 1_655 S
H416 C400 0.931 . S
H417 C405 0.930 . S
H418 C406 0.957 1_545 S
H419 C406 0.961 . S
H420 C406 0.961 . S
H421 C407 0.958 . S
H422 C407 0.961 . S
H423 C407 0.960 . S
C424 C425 1.391 . S
C424 C426 1.394 1_565 S
C424 H440 0.924 1_565 S
C425 C424 1.391 . S
C425 C429 1.376 . S
C426 C424 1.394 1_545 S
C426 C427 1.369 1_545 S
C426 C430 1.531 . S
C427 C426 1.369 1_565 S
C427 C428 1.410 . S
C427 C435 1.501 1_564 S
C428 C427 1.410 . S
C428 C429 1.392 . S
C428 C431 1.511 . S
C429 C425 1.376 . S
C429 C428 1.392 . S
C429 H441 0.929 . S
C430 C426 1.531 . S
C430 H442 0.960 . S
C430 H443 0.962 . S
C430 H444 0.960 . S
C431 C428 1.511 . S
C431 H445 0.961 1_554 S
C431 H446 0.961 1_554 S
C431 H447 0.961 . S
C432 C433 1.370 . S
C432 C434 1.363 . S
C432 H448 0.931 . S
C433 C432 1.370 . S
C433 C437 1.408 1_556 S
C434 C432 1.363 . S
C434 C435 1.378 . S
C434 C438 1.524 . S
C435 C427 1.501 1_546 S
C435 C434 1.378 . S
C435 C436 1.398 1_556 S
C436 C435 1.398 1_554 S
C436 C437 1.404 . S
C436 C439 1.539 . S
C437 C433 1.408 1_554 S
C437 C436 1.404 . S
C437 H449 0.930 . S
C438 C434 1.524 . S
C438 H450 0.956 . S
C438 H451 0.961 1_545 S
C438 H452 0.961 . S
C439 C436 1.539 . S
C439 H453 0.958 . S
C439 H454 0.961 . S
C439 H455 0.960 1_545 S
H440 C424 0.924 1_545 S
H441 C429 0.929 . S
H442 C430 0.960 . S
H443 C430 0.962 . S
H444 C430 0.960 . S
H445 C431 0.961 1_556 S
H446 C431 0.961 1_556 S
H447 C431 0.961 . S
H448 C432 0.931 . S
H449 C437 0.930 . S
H450 C438 0.956 . S
H451 C438 0.961 1_565 S
H452 C438 0.961 . S
H453 C439 0.958 . S
H454 C439 0.961 . S
H455 C439 0.960 1_565 S
C456 C457 1.391 . S
C456 C458 1.394 . S
C456 H472 0.931 . S
C457 C456 1.391 . S
C457 C461 1.376 . S
C458 C456 1.394 . S
C458 C459 1.369 . S
C458 C462 1.531 . S
C459 C458 1.369 . S
C459 C460 1.410 . S
C459 C467 1.503 1_455 S
C460 C459 1.410 . S
C460 C461 1.392 . S
C460 C463 1.511 1_455 S
C461 C457 1.376 . S
C461 C460 1.392 . S
C461 H473 0.929 . S
C462 C458 1.531 . S
C462 H474 0.960 . S
C462 H475 0.962 . S
C462 H476 0.960 . S
C463 C460 1.511 1_655 S
C463 H477 0.961 . S
C463 H478 0.961 . S
C463 H479 0.961 . S
C464 C465 1.370 . S
C464 C466 1.363 . S
C464 H480 0.931 . S
C465 C464 1.370 . S
C465 C469 1.408 . S
C466 C464 1.363 . S
C466 C467 1.370 . S
C466 C470 1.524 . S
C467 C459 1.503 1_655 S
C467 C466 1.370 . S
C467 C468 1.403 . S
C468 C467 1.403 . S
C468 C469 1.404 . S
C468 C471 1.539 1_655 S
C469 C465 1.408 . S
C469 C468 1.404 . S
C469 H481 0.930 . S
C470 C466 1.524 . S
C470 H482 0.956 . S
C470 H483 0.961 . S
C470 H484 0.961 . S
C471 C468 1.539 1_455 S
C471 H485 0.958 . S
C471 H486 0.961 1_455 S
C471 H487 0.960 . S
H472 C456 0.931 . S
H473 C461 0.929 . S
H474 C462 0.960 . S
H475 C462 0.962 . S
H476 C462 0.960 . S
H477 C463 0.961 . S
H478 C463 0.961 . S
H479 C463 0.961 . S
H480 C464 0.931 . S
H481 C469 0.930 . S
H482 C470 0.956 . S
H483 C470 0.961 . S
H484 C470 0.961 . S
H485 C471 0.958 . S
H486 C471 0.961 1_655 S
H487 C471 0.960 . S
C488 C489 1.391 . S
C488 C490 1.394 . S
C488 H504 0.931 . S
C489 C488 1.391 . S
C489 C493 1.376 . S
C490 C488 1.394 . S
C490 C491 1.369 . S
C490 C494 1.531 . S
C491 C490 1.369 . S
C491 C492 1.410 . S
C491 C499 1.503 . S
C492 C491 1.410 . S
C492 C493 1.392 . S
C492 C495 1.511 . S
C493 C489 1.376 . S
C493 C492 1.392 . S
C493 H505 0.929 . S
C494 C490 1.531 . S
C494 H506 0.960 . S
C494 H507 0.962 . S
C494 H508 0.960 . S
C495 C492 1.511 . S
C495 H509 0.961 . S
C495 H510 0.961 . S
C495 H511 0.961 . S
C496 C497 1.370 . S
C496 C498 1.363 . S
C496 H512 0.931 . S
C497 C496 1.370 . S
C497 C501 1.408 . S
C498 C496 1.363 . S
C498 C499 1.370 . S
C498 C502 1.524 . S
C499 C491 1.503 . S
C499 C498 1.370 . S
C499 C500 1.403 . S
C500 C499 1.403 . S
C500 C501 1.404 . S
C500 C503 1.539 . S
C501 C497 1.408 . S
C501 C500 1.404 . S
C501 H513 0.930 . S
C502 C498 1.524 . S
C502 H514 0.956 . S
C502 H515 0.961 . S
C502 H516 0.961 . S
C503 C500 1.539 . S
C503 H517 0.958 . S
C503 H518 0.961 . S
C503 H519 0.960 . S
H504 C488 0.931 . S
H505 C493 0.929 . S
H506 C494 0.960 . S
H507 C494 0.962 . S
H508 C494 0.960 . S
H509 C495 0.961 . S
H510 C495 0.961 . S
H511 C495 0.961 . S
H512 C496 0.931 . S
H513 C501 0.930 . S
H514 C502 0.956 . S
H515 C502 0.961 . S
H516 C502 0.961 . S
H517 C503 0.958 . S
H518 C503 0.961 . S
H519 C503 0.960 . S
C520 C521 1.391 . S
C520 C522 1.394 . S
C520 H536 0.931 . S
C521 C520 1.391 . S
C521 C525 1.376 . S
C522 C520 1.394 . S
C522 C523 1.369 . S
C522 C526 1.531 . S
C523 C522 1.369 . S
C523 C524 1.410 . S
C523 C531 1.503 . S
C524 C523 1.410 . S
C524 C525 1.392 . S
C524 C527 1.511 . S
C525 C521 1.376 . S
C525 C524 1.392 . S
C525 H537 0.929 . S
C526 C522 1.531 . S
C526 H538 0.960 . S
C526 H539 0.962 . S
C526 H540 0.960 . S
C527 C524 1.511 . S
C527 H541 0.961 . S
C527 H542 0.961 . S
C527 H543 0.961 . S
C528 C529 1.370 . S
C528 C530 1.363 . S
C528 H544 0.931 . S
C529 C528 1.370 . S
C529 C533 1.408 . S
C530 C528 1.363 . S
C530 C531 1.370 . S
C530 C534 1.524 . S
C531 C523 1.503 . S
C531 C530 1.370 . S
C531 C532 1.403 . S
C532 C531 1.403 . S
C532 C533 1.404 . S
C532 C535 1.539 . S
C533 C529 1.408 . S
C533 C532 1.404 . S
C533 H545 0.930 . S
C534 C530 1.524 . S
C534 H546 0.956 . S
C534 H547 0.961 . S
C534 H548 0.961 . S
C535 C532 1.539 . S
C535 H549 0.958 . S
C535 H550 0.961 . S
C535 H551 0.960 . S
H536 C520 0.931 . S
H537 C525 0.929 . S
H538 C526 0.960 . S
H539 C526 0.962 . S
H540 C526 0.960 . S
H541 C527 0.961 . S
H542 C527 0.961 . S
H543 C527 0.961 . S
H544 C528 0.931 . S
H545 C533 0.930 . S
H546 C534 0.956 . S
H547 C534 0.961 . S
H548 C534 0.961 . S
H549 C535 0.958 . S
H550 C535 0.961 . S
H551 C535 0.960 . S
C552 C553 1.391 . S
C552 C554 1.394 . S
C552 H568 0.931 . S
C553 C552 1.391 . S
C553 C557 1.376 . S
C554 C552 1.394 . S
C554 C555 1.369 . S
C554 C558 1.531 . S
C555 C554 1.369 . S
C555 C556 1.410 . S
C555 C563 1.503 . S
C556 C555 1.410 . S
C556 C557 1.392 . S
C556 C559 1.511 . S
C557 C553 1.376 . S
C557 C556 1.392 . S
C557 H569 0.929 . S
C558 C554 1.531 . S
C558 H570 0.960 . S
C558 H571 0.962 . S
C558 H572 0.960 . S
C559 C556 1.511 . S
C559 H573 0.961 . S
C559 H574 0.961 . S
C559 H575 0.961 . S
C560 C561 1.370 . S
C560 C562 1.363 . S
C560 H576 0.931 . S
C561 C560 1.370 . S
C561 C565 1.408 . S
C562 C560 1.363 . S
C562 C563 1.370 . S
C562 C566 1.524 . S
C563 C555 1.503 . S
C563 C562 1.370 . S
C563 C564 1.403 . S
C564 C563 1.403 . S
C564 C565 1.404 . S
C564 C567 1.539 . S
C565 C561 1.408 . S
C565 C564 1.404 . S
C565 H577 0.930 . S
C566 C562 1.524 . S
C566 H578 0.956 . S
C566 H579 0.961 . S
C566 H580 0.961 . S
C567 C564 1.539 . S
C567 H581 0.958 . S
C567 H582 0.961 . S
C567 H583 0.960 . S
H568 C552 0.931 . S
H569 C557 0.929 . S
H570 C558 0.960 . S
H571 C558 0.962 . S
H572 C558 0.960 . S
H573 C559 0.961 . S
H574 C559 0.961 . S
H575 C559 0.961 . S
H576 C560 0.931 . S
H577 C565 0.930 . S
H578 C566 0.956 . S
H579 C566 0.961 . S
H580 C566 0.961 . S
H581 C567 0.958 . S
H582 C567 0.961 . S
H583 C567 0.960 . S
C584 C585 1.391 . S
C584 C586 1.394 . S
C584 H600 0.931 . S
C585 C584 1.391 . S
C585 C589 1.376 . S
C586 C584 1.394 . S
C586 C587 1.369 . S
C586 C590 1.531 . S
C587 C586 1.369 . S
C587 C588 1.410 . S
C587 C595 1.503 . S
C588 C587 1.410 . S
C588 C589 1.392 . S
C588 C591 1.511 . S
C589 C585 1.376 . S
C589 C588 1.392 . S
C589 H601 0.929 . S
C590 C586 1.531 . S
C590 H602 0.960 . S
C590 H603 0.962 . S
C590 H604 0.960 . S
C591 C588 1.511 . S
C591 H605 0.961 . S
C591 H606 0.961 . S
C591 H607 0.961 . S
C592 C593 1.370 . S
C592 C594 1.363 1_554 S
C592 H608 0.931 . S
C593 C592 1.370 . S
C593 C597 1.408 . S
C594 C592 1.363 1_556 S
C594 C595 1.370 . S
C594 C598 1.524 . S
C595 C587 1.503 . S
C595 C594 1.370 . S
C595 C596 1.403 . S
C596 C595 1.403 . S
C596 C597 1.404 1_556 S
C596 C599 1.539 . S
C597 C593 1.408 . S
C597 C596 1.404 1_554 S
C597 H609 0.930 . S
C598 C594 1.524 . S
C598 H610 0.956 . S
C598 H611 0.961 . S
C598 H612 0.961 . S
C599 C596 1.539 . S
C599 H613 0.958 . S
C599 H614 0.961 . S
C599 H615 0.960 . S
H600 C584 0.931 . S
H601 C589 0.929 . S
H602 C590 0.960 . S
H603 C590 0.962 . S
H604 C590 0.960 . S
H605 C591 0.961 . S
H606 C591 0.961 . S
H607 C591 0.961 . S
H608 C592 0.931 . S
H609 C597 0.930 . S
H610 C598 0.956 . S
H611 C598 0.961 . S
H612 C598 0.961 . S
H613 C599 0.958 . S
H614 C599 0.961 . S
H615 C599 0.960 . S
C616 C617 1.391 . S
C616 C618 1.394 1_554 S
C616 H632 0.931 . S
C617 C616 1.391 . S
C617 C621 1.376 . S
C618 C616 1.394 1_556 S
C618 C619 1.369 . S
C618 C622 1.531 . S
C619 C618 1.369 . S
C619 C620 1.410 . S
C619 C627 1.503 . S
C620 C619 1.410 . S
C620 C621 1.392 1_556 S
C620 C623 1.511 . S
C621 C617 1.376 . S
C621 C620 1.392 1_554 S
C621 H633 0.929 . S
C622 C618 1.531 . S
C622 H634 0.960 . S
C622 H635 0.962 . S
C622 H636 0.960 . S
C623 C620 1.511 . S
C623 H637 0.961 . S
C623 H638 0.961 . S
C623 H639 0.961 . S
C624 C625 1.370 . S
C624 C626 1.363 . S
C624 H640 0.931 . S
C625 C624 1.370 . S
C625 C629 1.408 . S
C626 C624 1.363 . S
C626 C627 1.370 . S
C626 C630 1.524 . S
C627 C619 1.503 . S
C627 C626 1.370 . S
C627 C628 1.403 . S
C628 C627 1.403 . S
C628 C629 1.404 . S
C628 C631 1.539 . S
C629 C625 1.408 . S
C629 C628 1.404 . S
C629 H641 0.930 . S
C630 C626 1.524 . S
C630 H642 0.956 . S
C630 H643 0.961 . S
C630 H644 0.961 . S
C631 C628 1.539 . S
C631 H645 0.958 . S
C631 H646 0.961 . S
C631 H647 0.960 . S
H632 C616 0.931 . S
H633 C621 0.929 . S
H634 C622 0.960 . S
H635 C622 0.962 . S
H636 C622 0.960 . S
H637 C623 0.961 . S
H638 C623 0.961 . S
H639 C623 0.961 . S
H640 C624 0.931 . S
H641 C629 0.930 . S
H642 C630 0.956 . S
H643 C630 0.961 . S
H644 C630 0.961 . S
H645 C631 0.958 . S
H646 C631 0.961 . S
H647 C631 0.960 . S
C648 C649 1.391 . S
C648 C650 1.394 . S
C648 H664 0.931 . S
C649 C648 1.391 . S
C649 C653 1.376 . S
C650 C648 1.394 . S
C650 C651 1.369 . S
C650 C654 1.531 . S
C651 C650 1.369 . S
C651 C652 1.410 . S
C651 C659 1.503 . S
C652 C651 1.410 . S
C652 C653 1.392 . S
C652 C655 1.511 . S
C653 C649 1.376 . S
C653 C652 1.392 . S
C653 H665 0.929 . S
C654 C650 1.531 . S
C654 H666 0.960 . S
C654 H667 0.962 . S
C654 H668 0.960 . S
C655 C652 1.511 . S
C655 H669 0.961 . S
C655 H670 0.961 . S
C655 H671 0.961 . S
C656 C657 1.370 . S
C656 C658 1.363 . S
C656 H672 0.931 . S
C657 C656 1.370 . S
C657 C661 1.408 . S
C658 C656 1.363 . S
C658 C659 1.370 . S
C658 C662 1.524 . S
C659 C651 1.503 . S
C659 C658 1.370 . S
C659 C660 1.403 . S
C660 C659 1.403 . S
C660 C661 1.404 . S
C660 C663 1.539 . S
C661 C657 1.408 . S
C661 C660 1.404 . S
C661 H673 0.930 . S
C662 C658 1.524 . S
C662 H674 0.956 . S
C662 H675 0.961 . S
C662 H676 0.961 . S
C663 C660 1.539 . S
C663 H677 0.958 . S
C663 H678 0.961 . S
C663 H679 0.960 . S
H664 C648 0.931 . S
H665 C653 0.929 . S
H666 C654 0.960 . S
H667 C654 0.962 . S
H668 C654 0.960 . S
H669 C655 0.961 . S
H670 C655 0.961 . S
H671 C655 0.961 . S
H672 C656 0.931 . S
H673 C661 0.930 . S
H674 C662 0.956 . S
H675 C662 0.961 . S
H676 C662 0.961 . S
H677 C663 0.958 . S
H678 C663 0.961 . S
H679 C663 0.960 . S
C680 C681 1.391 . S
C680 C682 1.394 . S
C680 H696 0.931 . S
C681 C680 1.391 . S
C681 C685 1.376 . S
C682 C680 1.394 . S
C682 C683 1.369 . S
C682 C686 1.531 . S
C683 C682 1.369 . S
C683 C684 1.410 . S
C683 C691 1.503 . S
C684 C683 1.410 . S
C684 C685 1.392 . S
C684 C687 1.511 . S
C685 C681 1.376 . S
C685 C684 1.392 . S
C685 H697 0.929 . S
C686 C682 1.531 . S
C686 H698 0.960 . S
C686 H699 0.962 . S
C686 H700 0.960 . S
C687 C684 1.511 . S
C687 H701 0.961 . S
C687 H702 0.961 . S
C687 H703 0.961 . S
C688 C689 1.370 . S
C688 C690 1.363 . S
C688 H704 0.931 . S
C689 C688 1.370 . S
C689 C693 1.408 . S
C690 C688 1.363 . S
C690 C691 1.370 . S
C690 C694 1.524 . S
C691 C683 1.503 . S
C691 C690 1.370 . S
C691 C692 1.403 . S
C692 C691 1.403 . S
C692 C693 1.404 . S
C692 C695 1.539 . S
C693 C689 1.408 . S
C693 C692 1.404 . S
C693 H705 0.930 . S
C694 C690 1.524 . S
C694 H706 0.956 . S
C694 H707 0.961 . S
C694 H708 0.961 . S
C695 C692 1.539 . S
C695 H709 0.958 . S
C695 H710 0.961 . S
C695 H711 0.960 . S
H696 C680 0.931 . S
H697 C685 0.929 . S
H698 C686 0.960 . S
H699 C686 0.962 . S
H700 C686 0.960 . S
H701 C687 0.961 . S
H702 C687 0.961 . S
H703 C687 0.961 . S
H704 C688 0.931 . S
H705 C693 0.930 . S
H706 C694 0.956 . S
H707 C694 0.961 . S
H708 C694 0.961 . S
H709 C695 0.958 . S
H710 C695 0.961 . S
H711 C695 0.960 . S
C712 C713 1.391 . S
C712 C714 1.394 . S
C712 H728 0.931 . S
C713 C712 1.391 . S
C713 C717 1.376 . S
C714 C712 1.394 . S
C714 C715 1.369 . S
C714 C718 1.531 . S
C715 C714 1.369 . S
C715 C716 1.410 . S
C715 C723 1.503 . S
C716 C715 1.410 . S
C716 C717 1.392 . S
C716 C719 1.511 . S
C717 C713 1.376 . S
C717 C716 1.392 . S
C717 H729 0.929 . S
C718 C714 1.531 . S
C718 H730 0.960 . S
C718 H731 0.962 . S
C718 H732 0.960 . S
C719 C716 1.511 . S
C719 H733 0.961 . S
C719 H734 0.961 . S
C719 H735 0.961 . S
C720 C721 1.370 . S
C720 C722 1.363 1_556 S
C720 H736 0.931 . S
C721 C720 1.370 . S
C721 C725 1.408 . S
C722 C720 1.363 1_554 S
C722 C723 1.370 . S
C722 C726 1.524 . S
C723 C715 1.503 . S
C723 C722 1.370 . S
C723 C724 1.403 . S
C724 C723 1.403 . S
C724 C725 1.404 1_554 S
C724 C727 1.539 . S
C725 C721 1.408 . S
C725 C724 1.404 1_556 S
C725 H737 0.930 . S
C726 C722 1.524 . S
C726 H738 0.956 . S
C726 H739 0.961 . S
C726 H740 0.961 . S
C727 C724 1.539 . S
C727 H741 0.958 . S
C727 H742 0.961 . S
C727 H743 0.960 . S
H728 C712 0.931 . S
H729 C717 0.929 . S
H730 C718 0.960 . S
H731 C718 0.962 . S
H732 C718 0.960 . S
H733 C719 0.961 . S
H734 C719 0.961 . S
H735 C719 0.961 . S
H736 C720 0.931 . S
H737 C725 0.930 . S
H738 C726 0.956 . S
H739 C726 0.961 . S
H740 C726 0.961 . S
H741 C727 0.958 . S
H742 C727 0.961 . S
H743 C727 0.960 . S
C744 C745 1.391 . S
C744 C746 1.394 . S
C744 H760 0.931 . S
C745 C744 1.391 . S
C745 C749 1.376 . S
C746 C744 1.394 . S
C746 C747 1.369 . S
C746 C750 1.531 . S
C747 C746 1.369 . S
C747 C748 1.410 . S
C747 C755 1.503 . S
C748 C747 1.410 . S
C748 C749 1.392 . S
C748 C751 1.511 . S
C749 C745 1.376 . S
C749 C748 1.392 . S
C749 H761 0.929 . S
C750 C746 1.531 . S
C750 H762 0.960 . S
C750 H763 0.962 . S
C750 H764 0.960 . S
C751 C748 1.511 . S
C751 H765 0.961 . S
C751 H766 0.961 . S
C751 H767 0.961 . S
C752 C753 1.370 . S
C752 C754 1.363 1_556 S
C752 H768 0.931 . S
C753 C752 1.370 . S
C753 C757 1.408 . S
C754 C752 1.363 1_554 S
C754 C755 1.370 . S
C754 C758 1.524 . S
C755 C747 1.503 . S
C755 C754 1.370 . S
C755 C756 1.403 . S
C756 C755 1.403 . S
C756 C757 1.404 1_554 S
C756 C759 1.539 . S
C757 C753 1.408 . S
C757 C756 1.404 1_556 S
C757 H769 0.930 . S
C758 C754 1.524 . S
C758 H770 0.956 . S
C758 H771 0.961 . S
C758 H772 0.961 . S
C759 C756 1.539 . S
C759 H773 0.958 . S
C759 H774 0.961 . S
C759 H775 0.960 . S
H760 C744 0.931 . S
H761 C749 0.929 . S
H762 C750 0.960 . S
H763 C750 0.962 . S
H764 C750 0.960 . S
H765 C751 0.961 . S
H766 C751 0.961 . S
H767 C751 0.961 . S
H768 C752 0.931 . S
H769 C757 0.930 . S
H770 C758 0.956 . S
H771 C758 0.961 . S
H772 C758 0.961 . S
H773 C759 0.958 . S
H774 C759 0.961 . S
H775 C759 0.960 . S
C776 C777 1.391 . S
C776 C778 1.394 . S
C776 H792 0.931 . S
C777 C776 1.391 . S
C777 C781 1.376 . S
C778 C776 1.394 . S
C778 C779 1.369 . S
C778 C782 1.531 . S
C779 C778 1.369 . S
C779 C780 1.410 . S
C779 C787 1.503 . S
C780 C779 1.410 . S
C780 C781 1.392 . S
C780 C783 1.511 . S
C781 C777 1.376 . S
C781 C780 1.392 . S
C781 H793 0.929 . S
C782 C778 1.531 . S
C782 H794 0.960 . S
C782 H795 0.962 . S
C782 H796 0.960 . S
C783 C780 1.511 . S
C783 H797 0.961 . S
C783 H798 0.961 . S
C783 H799 0.961 . S
C784 C785 1.370 . S
C784 C786 1.363 . S
C784 H800 0.931 . S
C785 C784 1.370 . S
C785 C789 1.408 . S
C786 C784 1.363 . S
C786 C787 1.370 . S
C786 C790 1.524 . S
C787 C779 1.503 . S
C787 C786 1.370 . S
C787 C788 1.403 . S
C788 C787 1.403 . S
C788 C789 1.404 . S
C788 C791 1.539 . S
C789 C785 1.408 . S
C789 C788 1.404 . S
C789 H801 0.930 . S
C790 C786 1.524 . S
C790 H802 0.956 . S
C790 H803 0.961 . S
C790 H804 0.961 . S
C791 C788 1.539 . S
C791 H805 0.958 . S
C791 H806 0.961 . S
C791 H807 0.960 . S
H792 C776 0.931 . S
H793 C781 0.929 . S
H794 C782 0.960 . S
H795 C782 0.962 . S
H796 C782 0.960 . S
H797 C783 0.961 . S
H798 C783 0.961 . S
H799 C783 0.961 . S
H800 C784 0.931 . S
H801 C789 0.930 . S
H802 C790 0.956 . S
H803 C790 0.961 . S
H804 C790 0.961 . S
H805 C791 0.958 . S
H806 C791 0.961 . S
H807 C791 0.960 . S
C808 C809 1.391 . S
C808 C810 1.394 . S
C808 H824 0.931 . S
C809 C808 1.391 . S
C809 C813 1.376 . S
C810 C808 1.394 . S
C810 C811 1.369 . S
C810 C814 1.531 . S
C811 C810 1.369 . S
C811 C812 1.410 . S
C811 C819 1.503 . S
C812 C811 1.410 . S
C812 C813 1.392 . S
C812 C815 1.511 . S
C813 C809 1.376 . S
C813 C812 1.392 . S
C813 H825 0.929 . S
C814 C810 1.531 . S
C814 H826 0.960 . S
C814 H827 0.962 . S
C814 H828 0.960 . S
C815 C812 1.511 . S
C815 H829 0.961 . S
C815 H830 0.961 . S
C815 H831 0.961 . S
C816 C817 1.370 . S
C816 C818 1.363 . S
C816 H832 0.931 . S
C817 C816 1.370 . S
C817 C821 1.408 . S
C818 C816 1.363 . S
C818 C819 1.370 . S
C818 C822 1.524 . S
C819 C811 1.503 . S
C819 C818 1.370 . S
C819 C820 1.403 . S
C820 C819 1.403 . S
C820 C821 1.404 . S
C820 C823 1.539 . S
C821 C817 1.408 . S
C821 C820 1.404 . S
C821 H833 0.930 . S
C822 C818 1.524 . S
C822 H834 0.956 . S
C822 H835 0.961 . S
C822 H836 0.961 . S
C823 C820 1.539 . S
C823 H837 0.958 . S
C823 H838 0.961 . S
C823 H839 0.960 . S
H824 C808 0.931 . S
H825 C813 0.929 . S
H826 C814 0.960 . S
H827 C814 0.962 . S
H828 C814 0.960 . S
H829 C815 0.961 . S
H830 C815 0.961 . S
H831 C815 0.961 . S
H832 C816 0.931 . S
H833 C821 0.930 . S
H834 C822 0.956 . S
H835 C822 0.961 . S
H836 C822 0.961 . S
H837 C823 0.958 . S
H838 C823 0.961 . S
H839 C823 0.960 . S
C840 C841 1.391 . S
C840 C842 1.394 . S
C840 H856 0.931 . S
C841 C840 1.391 . S
C841 C845 1.376 . S
C842 C840 1.394 . S
C842 C843 1.369 . S
C842 C846 1.531 . S
C843 C842 1.369 . S
C843 C844 1.410 . S
C843 C851 1.503 . S
C844 C843 1.410 . S
C844 C845 1.392 . S
C844 C847 1.511 . S
C845 C841 1.376 . S
C845 C844 1.392 . S
C845 H857 0.929 . S
C846 C842 1.531 . S
C846 H858 0.960 . S
C846 H859 0.962 . S
C846 H860 0.960 . S
C847 C844 1.511 . S
C847 H861 0.961 . S
C847 H862 0.961 . S
C847 H863 0.961 . S
C848 C849 1.370 . S
C848 C850 1.363 . S
C848 H864 0.931 . S
C849 C848 1.370 . S
C849 C853 1.408 . S
C850 C848 1.363 . S
C850 C851 1.370 . S
C850 C854 1.524 . S
C851 C843 1.503 . S
C851 C850 1.370 . S
C851 C852 1.403 . S
C852 C851 1.403 . S
C852 C853 1.404 . S
C852 C855 1.539 . S
C853 C849 1.408 . S
C853 C852 1.404 . S
C853 H865 0.930 . S
C854 C850 1.524 . S
C854 H866 0.956 . S
C854 H867 0.961 . S
C854 H868 0.961 . S
C855 C852 1.539 . S
C855 H869 0.958 . S
C855 H870 0.961 . S
C855 H871 0.960 . S
H856 C840 0.931 . S
H857 C845 0.929 . S
H858 C846 0.960 . S
H859 C846 0.962 . S
H860 C846 0.960 . S
H861 C847 0.961 . S
H862 C847 0.961 . S
H863 C847 0.961 . S
H864 C848 0.931 . S
H865 C853 0.930 . S
H866 C854 0.956 . S
H867 C854 0.961 . S
H868 C854 0.961 . S
H869 C855 0.958 . S
H870 C855 0.961 . S
H871 C855 0.960 . S
C872 C873 1.391 . S
C872 C874 1.394 . S
C872 H888 0.931 . S
C873 C872 1.391 . S
C873 C877 1.376 . S
C874 C872 1.394 . S
C874 C875 1.369 . S
C874 C878 1.531 . S
C875 C874 1.369 . S
C875 C876 1.410 . S
C875 C883 1.503 . S
C876 C875 1.410 . S
C876 C877 1.392 . S
C876 C879 1.511 . S
C877 C873 1.376 . S
C877 C876 1.392 . S
C877 H889 0.929 . S
C878 C874 1.531 . S
C878 H890 0.960 . S
C878 H891 0.962 . S
C878 H892 0.960 . S
C879 C876 1.511 . S
C879 H893 0.961 . S
C879 H894 0.961 . S
C879 H895 0.961 . S
C880 C881 1.370 . S
C880 C882 1.363 . S
C880 H896 0.931 . S
C881 C880 1.370 . S
C881 C885 1.408 . S
C882 C880 1.363 . S
C882 C883 1.370 . S
C882 C886 1.524 . S
C883 C875 1.503 . S
C883 C882 1.370 . S
C883 C884 1.403 . S
C884 C883 1.403 . S
C884 C885 1.404 . S
C884 C887 1.539 . S
C885 C881 1.408 . S
C885 C884 1.404 . S
C885 H897 0.930 . S
C886 C882 1.524 . S
C886 H898 0.956 . S
C886 H899 0.961 . S
C886 H900 0.961 . S
C887 C884 1.539 . S
C887 H901 0.958 . S
C887 H902 0.961 . S
C887 H903 0.960 . S
H888 C872 0.931 . S
H889 C877 0.929 . S
H890 C878 0.960 . S
H891 C878 0.962 . S
H892 C878 0.960 . S
H893 C879 0.961 . S
H894 C879 0.961 . S
H895 C879 0.961 . S
H896 C880 0.931 . S
H897 C885 0.930 . S
H898 C886 0.956 . S
H899 C886 0.961 . S
H900 C886 0.961 . S
H901 C887 0.958 . S
H902 C887 0.961 . S
H903 C887 0.960 . S
C265 C50 1.513 . S
C273 C17 1.511 . S
C297 C83 1.513 . S
C305 C116 1.510 . S
C329 C182 1.509 . S
C337 C149 1.513 . S
C361 C215 1.506 . S
C369 C248 1.513 . S
C393 C160 1.521 . S
C401 C28 1.527 . S
C425 C61 1.524 . S
C433 C193 1.526 . S
C457 C94 1.524 . S
C465 C226 1.525 . S
C489 C127 1.525 . S
C497 C259 1.525 . S
C521 N5 1.358 . S
C529 N14 1.350 . S
C553 N47 1.354 . S
C561 N38 1.355 . S
C585 N71 1.372 . S
C593 N80 1.347 . S
C617 N113 1.363 . S
C625 N104 1.356 . S
C649 N137 1.374 . S
C657 N146 1.344 . S
C681 N179 1.336 . S
C689 N170 1.363 . S
C713 N203 1.372 . S
C721 N212 1.346 . S
C745 N236 1.370 . S
C753 N245 1.347 . S
C777 C8 1.535 . S
C785 C74 1.528 . S
C809 C41 1.534 . S
C817 C107 1.526 . S
C841 C140 1.518 . S
C849 C206 1.533 . S
C873 C173 1.527 . S
C881 C239 1.525 . S
