# Generated by pormake.
# Topology ttw, (5)-cn, num edge types: 1
# Building blocks:
#     Node 0, Type 0, BuildingBlock: BEQFEK_clean_sbu_0, # of connection points: 5
#     Node 1, Type 0, BuildingBlock: BEQFEK_clean_sbu_0, # of connection points: 5
#     Node 2, Type 0, BuildingBlock: BEQFEK_clean_sbu_0, # of connection points: 5
#     Node 3, Type 0, BuildingBlock: BEQFEK_clean_sbu_0, # of connection points: 5
#     Node 4, Type 0, BuildingBlock: BEQFEK_clean_sbu_0, # of connection points: 5
#     Node 5, Type 0, BuildingBlock: BEQFEK_clean_sbu_0, # of connection points: 5
#     Edge 6, Type (0, 0), BuildingBlock: EZIPEK_clean_linker_0, # of connection points: 2
#     Edge 7, Type (0, 0), BuildingBlock: EZIPEK_clean_linker_0, # of connection points: 2
#     Edge 8, Type (0, 0), BuildingBlock: EZIPEK_clean_linker_0, # of connection points: 2
#     Edge 9, Type (0, 0), BuildingBlock: EZIPEK_clean_linker_0, # of connection points: 2
#     Edge 10, Type (0, 0), BuildingBlock: EZIPEK_clean_linker_0, # of connection points: 2
#     Edge 11, Type (0, 0), BuildingBlock: EZIPEK_clean_linker_0, # of connection points: 2
#     Edge 12, Type (0, 0), BuildingBlock: EZIPEK_clean_linker_0, # of connection points: 2
#     Edge 13, Type (0, 0), BuildingBlock: EZIPEK_clean_linker_0, # of connection points: 2
#     Edge 14, Type (0, 0), BuildingBlock: EZIPEK_clean_linker_0, # of connection points: 2
#     Edge 15, Type (0, 0), BuildingBlock: EZIPEK_clean_linker_0, # of connection points: 2
#     Edge 16, Type (0, 0), BuildingBlock: EZIPEK_clean_linker_0, # of connection points: 2
#     Edge 17, Type (0, 0), BuildingBlock: EZIPEK_clean_linker_0, # of connection points: 2
#     Edge 18, Type (0, 0), BuildingBlock: EZIPEK_clean_linker_0, # of connection points: 2
#     Edge 19, Type (0, 0), BuildingBlock: EZIPEK_clean_linker_0, # of connection points: 2
#     Edge 20, Type (0, 0), BuildingBlock: EZIPEK_clean_linker_0, # of connection points: 2
# Relax obj value: 0.095
# Max RMSD: 0.173
# Mean RMSD: 0.161
data_MOF--net-ttw--node1-BEQFEK_clean_sbu_0--edge1-EZIPEK_clean_linker_0
_symmetry_space_group_name_H-M    P1
_symmetry_Int_Tables_number       1
_symmetry_cell_setting            triclinic
loop_
_symmetry_equiv_pos_as_xyz
'x, y, z'
_cell_length_a     41.48817
_cell_length_b     43.246384
_cell_length_c     15.508463
_cell_angle_alpha  91.315293
_cell_angle_beta   90.039151
_cell_angle_gamma 125.66949
loop_
_atom_site_label
_atom_site_type_symbol
_atom_site_fract_x
_atom_site_fract_y
_atom_site_fract_z
_atom_type_partial_charge
Co0 Co 0.17921 0.52465 0.99453 0.0
Co1 Co 0.17979 0.52843 0.19644 0.0
C2 C 0.2409 0.52728 0.10799 0.0
O3 O 0.22684 0.52824 0.03584 0.0
O4 O 0.2225 0.52175 0.17808 0.0
C5 C 0.20058 0.52368 0.81986 0.0
O6 O 0.23533 0.5364 0.85415 0.0
C7 C 0.18118 0.51806 0.38299 0.0
C8 C 0.15691 0.54859 0.43408 0.0
C9 C 0.17239 0.52911 0.4586 0.0
N10 N 0.17116 0.53031 0.31629 0.0
N11 N 0.15647 0.54835 0.34729 0.0
C12 C 0.20105 0.49841 0.37434 0.0
H13 H 0.23285 0.51982 0.36007 0.0
H14 H 0.18743 0.47736 0.31963 0.0
H15 H 0.1989 0.48404 0.43469 0.0
C16 C 0.09483 0.46435 0.02295 0.0
N17 N 0.13229 0.48895 0.0528 0.0
N18 N 0.13224 0.49035 0.13759 0.0
C19 C 0.09469 0.46614 0.16445 0.0
C20 C 0.06975 0.44923 0.09274 0.0
C21 C 0.08291 0.45958 0.92989 0.0
H22 H 0.09866 0.45019 0.89231 0.0
H23 H 0.0504 0.43843 0.92035 0.0
H24 H 0.09207 0.48746 0.90517 0.0
O25 O 0.19353 0.57634 0.01334 0.0
O26 O 0.20186 0.58048 0.1556 0.0
H27 H 0.05115 0.43758 0.26413 0.0
H28 H 0.10223 0.46077 0.29868 0.0
C29 C 0.08215 0.46289 0.25611 0.0
H30 H 0.08407 0.48875 0.27569 0.0
H31 H 0.1471 0.56136 0.30913 0.0
O32 O 0.17193 0.51504 0.8683 0.0
C33 C 0.20517 0.59569 0.08385 0.0
Co34 Co 0.4867 0.17022 0.17002 0.0
Co35 Co 0.48678 0.16449 0.96613 0.0
C36 C 0.47389 0.21828 0.05894 0.0
O37 O 0.47661 0.20765 0.13293 0.0
O38 O 0.47643 0.20293 0.99063 0.0
C39 C 0.45561 0.16537 0.3421 0.0
O40 O 0.43003 0.16947 0.3043 0.0
C41 C 0.46372 0.15579 0.78042 0.0
C42 C 0.50854 0.15002 0.72181 0.0
C43 C 0.47773 0.15263 0.70204 0.0
N44 N 0.48536 0.15514 0.84417 0.0
N45 N 0.51177 0.15124 0.80837 0.0
C46 C 0.43154 0.16104 0.79348 0.0
H47 H 0.42473 0.16019 0.8629 0.0
H48 H 0.40446 0.1383 0.75713 0.0
H49 H 0.44086 0.18865 0.76677 0.0
C50 C 0.438 0.0871 0.1439 0.0
N51 N 0.45421 0.12193 0.1124 0.0
N52 N 0.45336 0.11944 0.02749 0.0
C53 C 0.436 0.08288 0.00244 0.0
C54 C 0.42629 0.06133 0.07535 0.0
C55 C 0.44086 0.08006 0.23663 0.0
H56 H 0.47244 0.09803 0.25811 0.0
H57 H 0.42474 0.0884 0.27618 0.0
H58 H 0.42803 0.04967 0.24726 0.0
O59 O 0.54309 0.19325 0.14507 0.0
O60 O 0.54242 0.18851 0.00174 0.0
H61 H 0.46664 0.08123 0.89391 0.0
H62 H 0.41701 0.03855 0.90522 0.0
C63 C 0.43585 0.07009 0.91193 0.0
H64 H 0.42464 0.0816 0.86725 0.0
H65 H 0.53299 0.1507 0.84313 0.0
O66 O 0.48116 0.16508 0.29753 0.0
C67 C 0.56073 0.19841 0.07404 0.0
Co68 Co 0.48314 0.65429 0.98661 0.0
Co69 Co 0.48702 0.65445 0.19009 0.0
C70 C 0.50394 0.7224 0.09926 0.0
O71 O 0.49719 0.70527 0.02624 0.0
O72 O 0.50179 0.706 0.1685 0.0
C73 C 0.5184 0.68163 0.81843 0.0
O74 O 0.54833 0.71115 0.86129 0.0
C75 C 0.50837 0.6702 0.3779 0.0
C76 C 0.46682 0.61239 0.42767 0.0
C77 C 0.49555 0.64974 0.45294 0.0
N78 N 0.48809 0.64599 0.31065 0.0
N79 N 0.46353 0.61146 0.34116 0.0
C80 C 0.53876 0.71208 0.37134 0.0
H81 H 0.54834 0.71965 0.3037 0.0
H82 H 0.5648 0.72146 0.41337 0.0
H83 H 0.52593 0.72707 0.39505 0.0
C84 C 0.53235 0.62535 0.01011 0.0
N85 N 0.51469 0.64125 0.04133 0.0
N86 N 0.51819 0.64371 0.1261 0.0
C87 C 0.53943 0.63088 0.151 0.0
C88 C 0.54887 0.61868 0.07846 0.0
C89 C 0.52919 0.6122 0.91849 0.0
H90 H 0.50188 0.60583 0.88702 0.0
H91 H 0.55538 0.63502 0.88345 0.0
H92 H 0.52913 0.5865 0.91467 0.0
O93 O 0.42632 0.61616 0.01263 0.0
O94 O 0.43054 0.61845 0.15583 0.0
H95 H 0.51854 0.60151 0.2693 0.0
H96 H 0.56958 0.62073 0.24758 0.0
C97 C 0.54654 0.62608 0.24269 0.0
H98 H 0.55602 0.65201 0.28156 0.0
H99 H 0.44384 0.58727 0.30286 0.0
O100 O 0.48857 0.65512 0.85887 0.0
C101 C 0.41022 0.60546 0.08601 0.0
Co102 Co 0.79957 0.36026 0.1886 0.0
Co103 Co 0.80274 0.36198 0.98892 0.0
C104 C 0.73133 0.30015 0.07245 0.0
O105 O 0.74784 0.31475 0.14572 0.0
O106 O 0.7493 0.31462 0.00231 0.0
C107 C 0.81052 0.34194 0.36251 0.0
O108 O 0.82325 0.32313 0.32696 0.0
C109 C 0.79956 0.3507 0.80026 0.0
C110 C 0.85602 0.40455 0.76541 0.0
C111 C 0.82349 0.37053 0.73115 0.0
N112 N 0.81767 0.37181 0.8724 0.0
N113 N 0.85106 0.40411 0.851 0.0
C114 C 0.75956 0.31331 0.79804 0.0
H115 H 0.73796 0.31669 0.83073 0.0
H116 H 0.76107 0.29237 0.8344 0.0
H117 H 0.74909 0.30239 0.73098 0.0
C118 C 0.87987 0.37687 0.16485 0.0
N119 N 0.84397 0.36625 0.13595 0.0
N120 N 0.84232 0.3617 0.05148 0.0
C121 C 0.87568 0.36595 0.02531 0.0
C122 C 0.90072 0.37642 0.09585 0.0
C123 C 0.89699 0.39372 0.25257 0.0
H124 H 0.8791 0.40155 0.28601 0.0
H125 H 0.89803 0.3729 0.29062 0.0
H126 H 0.92793 0.41951 0.2477 0.0
O127 O 0.79902 0.40398 0.16666 0.0
O128 O 0.79863 0.40429 0.025 0.0
H129 H 0.90323 0.39154 0.90616 0.0
H130 H 0.90368 0.35177 0.93218 0.0
C131 C 0.88535 0.36285 0.93407 0.0
H132 H 0.8579 0.34356 0.89502 0.0
H133 H 0.8706 0.42581 0.8952 0.0
O134 O 0.79925 0.35747 0.31485 0.0
C135 C 0.7977 0.41821 0.09735 0.0
Co136 Co 0.39241 0.8251 0.1871 0.0
Co137 Co 0.38783 0.81994 0.98425 0.0
C138 C 0.44387 0.81117 0.08567 0.0
O139 O 0.43597 0.82152 0.15516 0.0
O140 O 0.42761 0.8092 0.01377 0.0
C141 C 0.42529 0.84545 0.3605 0.0
O142 O 0.45851 0.85544 0.32409 0.0
C143 C 0.40932 0.83379 0.79945 0.0
C144 C 0.35158 0.81465 0.74117 0.0
C145 C 0.39036 0.8291 0.72154 0.0
N146 N 0.38286 0.82273 0.86277 0.0
N147 N 0.34848 0.81144 0.82732 0.0
C148 C 0.45137 0.84752 0.81337 0.0
H149 H 0.45221 0.82255 0.82123 0.0
H150 H 0.46348 0.86539 0.87345 0.0
H151 H 0.46986 0.86388 0.75763 0.0
C152 C 0.40027 0.89613 0.15509 0.0
N153 N 0.39627 0.86436 0.1273 0.0
N154 N 0.39678 0.8635 0.04243 0.0
C155 C 0.40141 0.895 0.01356 0.0
C156 C 0.40358 0.91647 0.08395 0.0
C157 C 0.40176 0.90706 0.24791 0.0
H158 H 0.42936 0.91351 0.27819 0.0
H159 H 0.40125 0.93236 0.25527 0.0
H160 H 0.37626 0.88275 0.28186 0.0
O161 O 0.34232 0.77437 0.15952 0.0
O162 O 0.33641 0.77421 0.01709 0.0
H163 H 0.3743 0.88379 0.88888 0.0
H164 H 0.41186 0.93363 0.91299 0.0
C165 C 0.40361 0.90439 0.92058 0.0
H166 H 0.42577 0.9018 0.88812 0.0
H167 H 0.32271 0.80119 0.86211 0.0
O168 O 0.39445 0.833 0.31432 0.0
C169 C 0.32339 0.75832 0.0891 0.0
Co170 Co 0.62231 0.44812 0.17669 0.0
Co171 Co 0.62214 0.44761 0.97483 0.0
C172 C 0.68778 0.45508 0.07772 0.0
O173 O 0.67348 0.45843 0.14678 0.0
O174 O 0.67077 0.44978 0.00461 0.0
C175 C 0.6533 0.47355 0.35001 0.0
O176 O 0.68812 0.49227 0.31338 0.0
C177 C 0.64199 0.46413 0.78957 0.0
C178 C 0.5817 0.43557 0.73311 0.0
C179 C 0.6213 0.45578 0.71228 0.0
N180 N 0.61567 0.44956 0.85373 0.0
N181 N 0.57975 0.43265 0.81936 0.0
C182 C 0.68567 0.48447 0.80212 0.0
H183 H 0.6917 0.46371 0.82128 0.0
H184 H 0.69632 0.50607 0.85531 0.0
H185 H 0.70187 0.49835 0.74217 0.0
C186 C 0.6086 0.50707 0.14928 0.0
N187 N 0.6164 0.48263 0.11979 0.0
N188 N 0.61956 0.48465 0.03533 0.0
C189 C 0.61419 0.51078 0.0085 0.0
C190 C 0.60693 0.52564 0.07972 0.0
C191 C 0.60052 0.51072 0.24151 0.0
H192 H 0.62809 0.52298 0.28032 0.0
H193 H 0.5903 0.52929 0.24932 0.0
H194 H 0.5778 0.48206 0.26626 0.0
O195 O 0.57988 0.39363 0.14458 0.0
O196 O 0.57548 0.397 0.0035 0.0
H197 H 0.58394 0.495 0.88661 0.0
H198 H 0.61436 0.54553 0.91031 0.0
C199 C 0.61243 0.51896 0.91613 0.0
H200 H 0.63708 0.52167 0.88049 0.0
H201 H 0.55374 0.41863 0.85492 0.0
O202 O 0.62176 0.45383 0.30399 0.0
C203 C 0.5636 0.37793 0.07172 0.0
C204 C 0.01168 0.45264 0.08404 0.0
C205 C 0.02635 0.43023 0.09126 0.0
C206 C 0.9587 0.37271 0.10631 0.0
C207 C 0.94397 0.39474 0.09338 0.0
N208 N 0.95523 0.45439 0.05794 0.0
N209 N 0.01485 0.369 0.09859 0.0
C210 C 0.97013 0.43434 0.07857 0.0
C211 C 0.00012 0.39021 0.09934 0.0
N212 N 0.03746 0.49152 0.08546 0.0
N213 N 0.93311 0.33529 0.12702 0.0
H214 H 0.04513 0.38111 0.09518 0.0
H215 H 0.99716 0.33937 0.09527 0.0
H216 H 0.90249 0.3214 0.13037 0.0
H217 H 0.94223 0.31859 0.14636 0.0
H218 H 0.02852 0.5095 0.09135 0.0
H219 H 0.06822 0.50622 0.08734 0.0
H220 H 0.97256 0.48205 0.03565 0.0
H221 H 0.92502 0.44263 0.05708 0.0
C222 C 0.37581 0.95446 0.07372 0.0
C223 C 0.40924 0.95352 0.08322 0.0
C224 C 0.4539 0.0231 0.0831 0.0
C225 C 0.42032 0.02413 0.07891 0.0
N226 N 0.34958 0.99208 0.08118 0.0
N227 N 0.47941 0.98588 0.10843 0.0
C228 C 0.38129 0.99013 0.0773 0.0
C229 C 0.44811 0.98757 0.09131 0.0
N230 N 0.33897 0.92126 0.05964 0.0
N231 N 0.4913 0.056 0.07675 0.0
H232 H 0.47658 0.96034 0.11164 0.0
H233 H 0.50773 0.00957 0.12545 0.0
H234 H 0.49712 0.08286 0.07337 0.0
H235 H 0.51661 0.05668 0.06876 0.0
H236 H 0.31404 0.92012 0.04255 0.0
H237 H 0.33366 0.89452 0.05967 0.0
H238 H 0.32049 0.96856 0.08957 0.0
H239 H 0.35262 0.0178 0.08199 0.0
C240 C 0.55068 0.53184 0.07744 0.0
C241 C 0.59217 0.54959 0.07906 0.0
C242 C 0.60513 0.61243 0.07157 0.0
C243 C 0.56379 0.59486 0.07688 0.0
N244 N 0.49716 0.53874 0.09573 0.0
N245 N 0.65931 0.60618 0.08742 0.0
C246 C 0.53651 0.55478 0.08287 0.0
C247 C 0.61957 0.58977 0.07875 0.0
N248 N 0.52485 0.49309 0.06817 0.0
N249 N 0.63038 0.65065 0.058 0.0
H250 H 0.67087 0.59033 0.09111 0.0
H251 H 0.68065 0.6353 0.09693 0.0
H252 H 0.62078 0.66816 0.05422 0.0
H253 H 0.66031 0.66462 0.04443 0.0
H254 H 0.49456 0.47874 0.05629 0.0
H255 H 0.53397 0.47515 0.06576 0.0
H256 H 0.47663 0.51038 0.11126 0.0
H257 H 0.48524 0.55432 0.09686 0.0
C258 C 0.157 0.49171 0.59266 0.0
C259 C 0.18222 0.52602 0.54817 0.0
C260 C 0.21972 0.5587 0.68133 0.0
C261 C 0.19585 0.52394 0.72535 0.0
N262 N 0.14698 0.45585 0.72034 0.0
N263 N 0.24295 0.58929 0.54392 0.0
C264 C 0.16597 0.48993 0.68018 0.0
C265 C 0.21536 0.55859 0.59059 0.0
N266 N 0.12384 0.4613 0.5521 0.0
N267 N 0.24472 0.59228 0.72655 0.0
H268 H 0.2407 0.5902 0.47715 0.0
H269 H 0.26988 0.61224 0.57006 0.0
H270 H 0.24797 0.59413 0.7935 0.0
H271 H 0.25942 0.61883 0.69858 0.0
H272 H 0.1018 0.43705 0.58384 0.0
H273 H 0.11699 0.46127 0.48734 0.0
H274 H 0.12768 0.42963 0.68861 0.0
H275 H 0.15323 0.45351 0.78405 0.0
C276 C 0.42828 0.1301 0.47988 0.0
C277 C 0.45708 0.16401 0.43737 0.0
C278 C 0.49268 0.19323 0.57486 0.0
C279 C 0.46748 0.15752 0.61417 0.0
N280 N 0.41183 0.09148 0.60608 0.0
N281 N 0.51664 0.22825 0.44245 0.0
C282 C 0.43506 0.12589 0.56754 0.0
C283 C 0.48915 0.19581 0.48452 0.0
N284 N 0.39451 0.10201 0.43644 0.0
N285 N 0.51942 0.22478 0.62454 0.0
H286 H 0.51361 0.23215 0.37758 0.0
H287 H 0.54336 0.25065 0.47041 0.0
H288 H 0.52256 0.22383 0.69099 0.0
H289 H 0.53606 0.25237 0.60184 0.0
H290 H 0.37061 0.07813 0.46567 0.0
H291 H 0.38888 0.10404 0.37205 0.0
H292 H 0.39068 0.06617 0.57314 0.0
H293 H 0.41524 0.08777 0.67087 0.0
C294 C 0.54401 0.67586 0.67599 0.0
C295 C 0.51744 0.68032 0.7227 0.0
C296 C 0.48012 0.6703 0.58964 0.0
C297 C 0.50572 0.6644 0.54347 0.0
N298 N 0.56599 0.66839 0.53661 0.0
N299 N 0.46739 0.69203 0.72248 0.0
C300 C 0.53908 0.66953 0.58482 0.0
C301 C 0.4876 0.68061 0.67891 0.0
N302 N 0.57284 0.67608 0.71934 0.0
N303 N 0.44805 0.66508 0.54843 0.0
H304 H 0.47284 0.70054 0.78751 0.0
H305 H 0.44792 0.69649 0.69306 0.0
H306 H 0.44298 0.65988 0.48205 0.0
H307 H 0.42538 0.66408 0.58017 0.0
H308 H 0.58991 0.66812 0.69163 0.0
H309 H 0.57892 0.68301 0.78488 0.0
H310 H 0.59302 0.67553 0.56063 0.0
H311 H 0.56258 0.66277 0.4702 0.0
C312 C 0.81115 0.32733 0.60387 0.0
C313 C 0.81592 0.36048 0.63807 0.0
C314 C 0.82204 0.38336 0.49296 0.0
C315 C 0.81216 0.34804 0.45761 0.0
N316 N 0.78579 0.28224 0.48364 0.0
N317 N 0.81318 0.41382 0.61344 0.0
C318 C 0.80332 0.31868 0.51417 0.0
C319 C 0.81716 0.38644 0.58205 0.0
N320 N 0.81551 0.30485 0.6557 0.0
N321 N 0.8385 0.41488 0.4438 0.0
H322 H 0.80785 0.41598 0.67828 0.0
H323 H 0.8105 0.43128 0.5734 0.0
H324 H 0.84661 0.41588 0.37999 0.0
H325 H 0.84898 0.44168 0.46999 0.0
H326 H 0.81599 0.28243 0.63152 0.0
H327 H 0.82243 0.31079 0.72135 0.0
H328 H 0.77598 0.25953 0.52414 0.0
H329 H 0.77656 0.27382 0.41961 0.0
C330 C 0.43568 0.87552 0.5076 0.0
C331 C 0.42173 0.84254 0.4553 0.0
C332 C 0.39725 0.80305 0.58314 0.0
C333 C 0.40598 0.835 0.6331 0.0
N334 N 0.43267 0.90153 0.64543 0.0
N335 N 0.38934 0.77478 0.44073 0.0
C336 C 0.42545 0.87138 0.5963 0.0
C337 C 0.40279 0.80626 0.4925 0.0
N338 N 0.45877 0.91068 0.47235 0.0
N339 N 0.3843 0.76987 0.62298 0.0
H340 H 0.39487 0.77625 0.37481 0.0
H341 H 0.37105 0.74698 0.46183 0.0
H342 H 0.38007 0.76674 0.68939 0.0
H343 H 0.38097 0.74653 0.59207 0.0
H344 H 0.47306 0.93612 0.50827 0.0
H345 H 0.46624 0.91452 0.40735 0.0
H346 H 0.44247 0.92776 0.62057 0.0
H347 H 0.42686 0.89976 0.71126 0.0
C348 C 0.6393 0.43702 0.4843 0.0
C349 C 0.65067 0.47129 0.44499 0.0
C350 C 0.6485 0.4978 0.58452 0.0
C351 C 0.63646 0.4633 0.62334 0.0
N352 N 0.62867 0.40362 0.61688 0.0
N353 N 0.67414 0.53698 0.45803 0.0
C354 C 0.63449 0.43399 0.57516 0.0
C355 C 0.65804 0.50266 0.49542 0.0
N356 N 0.63245 0.40717 0.43434 0.0
N357 N 0.64924 0.52522 0.63221 0.0
H358 H 0.68058 0.54121 0.39257 0.0
H359 H 0.68386 0.562 0.49248 0.0
H360 H 0.64396 0.52317 0.69832 0.0
H361 H 0.65309 0.54909 0.60604 0.0
H362 H 0.61938 0.37987 0.45686 0.0
H363 H 0.63825 0.40916 0.3685 0.0
H364 H 0.63061 0.38293 0.58734 0.0
H365 H 0.62504 0.40065 0.68344 0.0
C366 C 0.31025 0.58208 0.14654 0.0
C367 C 0.28391 0.54424 0.11212 0.0
C368 C 0.34105 0.54513 0.06523 0.0
C369 C 0.36667 0.58397 0.09224 0.0
N370 N 0.37516 0.64186 0.14002 0.0
N371 N 0.27348 0.49065 0.03202 0.0
C372 C 0.35117 0.60305 0.12826 0.0
C373 C 0.29913 0.526 0.0694 0.0
N374 N 0.29646 0.5986 0.19581 0.0
N375 N 0.35683 0.52643 0.03775 0.0
H376 H 0.24277 0.47513 0.03827 0.0
H377 H 0.28241 0.47749 0.99158 0.0
H378 H 0.38735 0.53991 0.03307 0.0
H379 H 0.34003 0.49719 0.02525 0.0
H380 H 0.31509 0.62386 0.23158 0.0
H381 H 0.26667 0.58638 0.20666 0.0
H382 H 0.36451 0.65792 0.15546 0.0
H383 H 0.40527 0.65874 0.12555 0.0
C384 C 0.62331 0.26357 0.07421 0.0
C385 C 0.60439 0.22369 0.07374 0.0
C386 C 0.66873 0.23353 0.06213 0.0
C387 C 0.68769 0.27334 0.06966 0.0
N388 N 0.68421 0.3269 0.09137 0.0
N389 N 0.60753 0.16986 0.07339 0.0
C390 C 0.66529 0.28854 0.07802 0.0
C391 C 0.62666 0.20835 0.06917 0.0
N392 N 0.60109 0.27756 0.06799 0.0
N393 N 0.69099 0.22006 0.04709 0.0
H394 H 0.57673 0.15085 0.07711 0.0
H395 H 0.622 0.1568 0.0784 0.0
H396 H 0.72187 0.23797 0.04322 0.0
H397 H 0.67903 0.19161 0.03311 0.0
H398 H 0.61307 0.30597 0.05699 0.0
H399 H 0.57014 0.26037 0.06731 0.0
H400 H 0.66975 0.33915 0.10961 0.0
H401 H 0.71492 0.3467 0.08953 0.0
C402 C 0.51018 0.77866 0.03018 0.0
C403 C 0.5046 0.75751 0.10463 0.0
C404 C 0.46237 0.77355 0.1661 0.0
C405 C 0.46722 0.79503 0.09273 0.0
N406 N 0.50616 0.82743 0.96752 0.0
N407 N 0.49708 0.75802 0.25884 0.0
C408 C 0.49439 0.80055 0.02815 0.0
C409 C 0.48816 0.76287 0.17803 0.0
N410 N 0.53094 0.77824 0.96258 0.0
N411 N 0.43139 0.76025 0.22094 0.0
H412 H 0.52007 0.75529 0.26974 0.0
H413 H 0.48624 0.76302 0.31415 0.0
H414 H 0.40757 0.76163 0.20874 0.0
H415 H 0.42657 0.74274 0.27192 0.0
H416 H 0.53174 0.78881 0.90234 0.0
H417 H 0.54718 0.76688 0.96756 0.0
H418 H 0.52791 0.83457 0.92246 0.0
H419 H 0.49712 0.84543 0.96819 0.0
C420 C 0.78112 0.45996 0.02589 0.0
C421 C 0.78395 0.44348 0.10116 0.0
C422 C 0.72665 0.43719 0.16053 0.0
C423 C 0.72252 0.45327 0.08586 0.0
N424 N 0.7552 0.49234 0.96224 0.0
N425 N 0.77508 0.44153 0.25539 0.0
C426 C 0.75263 0.46851 0.02247 0.0
C427 C 0.76229 0.44098 0.174 0.0
N428 N 0.80589 0.46791 0.9589 0.0
N429 N 0.69591 0.41541 0.21512 0.0
H430 H 0.80321 0.44804 0.26746 0.0
H431 H 0.76013 0.441 0.31008 0.0
H432 H 0.66686 0.406 0.20172 0.0
H433 H 0.69829 0.40197 0.26722 0.0
H434 H 0.80206 0.47534 0.89828 0.0
H435 H 0.83018 0.46668 0.96474 0.0
H436 H 0.77809 0.50624 0.91817 0.0
H437 H 0.73701 0.50164 0.96294 0.0
C438 C 0.22396 0.66177 0.11425 0.0
C439 C 0.23368 0.63752 0.07993 0.0
C440 C 0.30125 0.69261 0.05011 0.0
C441 C 0.29207 0.7169 0.08727 0.0
N442 N 0.24696 0.72586 0.16096 0.0
N443 N 0.28258 0.62879 0.02525 0.0
C444 C 0.25402 0.70182 0.12133 0.0
C445 C 0.27245 0.65269 0.04962 0.0
N446 N 0.18578 0.64636 0.13794 0.0
N447 N 0.3379 0.70777 0.01586 0.0
H448 H 0.2626 0.59933 0.02155 0.0
H449 H 0.31149 0.63762 0.01433 0.0
H450 H 0.362 0.73609 0.02518 0.0
H451 H 0.34435 0.6927 0.97496 0.0
H452 H 0.17543 0.66226 0.15723 0.0
H453 H 0.16343 0.61717 0.13327 0.0
H454 H 0.22123 0.71685 0.19415 0.0
H455 H 0.26802 0.75533 0.16425 0.0
C456 C 0.47946 0.27539 0.12679 0.0
C457 C 0.47961 0.25575 0.05233 0.0
C458 C 0.53059 0.31529 0.98883 0.0
C459 C 0.53242 0.336 0.06377 0.0
N460 N 0.49778 0.33575 0.18964 0.0
N461 N 0.48591 0.26015 0.89796 0.0
C462 C 0.50346 0.3161 0.12878 0.0
C463 C 0.49831 0.27684 0.97808 0.0
N464 N 0.45628 0.25517 0.19463 0.0
N465 N 0.56087 0.33056 0.93144 0.0
H466 H 0.45982 0.23281 0.88906 0.0
H467 H 0.49827 0.27538 0.84176 0.0
H468 H 0.58837 0.35646 0.94209 0.0
H469 H 0.56056 0.3147 0.87929 0.0
H470 H 0.45855 0.26742 0.25499 0.0
H471 H 0.4349 0.22576 0.1896 0.0
H472 H 0.47527 0.3226 0.23472 0.0
H473 H 0.51273 0.3652 0.18911 0.0
loop_
_geom_bond_atom_site_label_1
_geom_bond_atom_site_label_2
_geom_bond_distance
_geom_bond_site_symmetry_2
_ccdc_geom_bond_type
Co0 O3 1.970 1_556 S
Co0 N17 1.989 1_556 S
Co0 O25 1.967 1_556 S
Co0 O32 1.920 . S
Co1 O4 1.966 . S
Co1 N10 2.022 . S
Co1 N18 1.993 . S
Co1 O26 1.941 . S
C2 O3 1.258 . S
C2 O4 1.263 . S
O3 Co0 1.970 1_554 S
O3 C2 1.258 . S
O4 Co1 1.966 . S
O4 C2 1.263 . S
C5 O6 1.235 . S
C5 O32 1.289 . S
O6 C5 1.235 . S
C7 C9 1.400 . S
C7 N10 1.351 . S
C7 C12 1.501 . S
C8 C9 1.387 . S
C8 N11 1.341 . S
C9 C7 1.400 . S
C9 C8 1.387 . S
N10 Co1 2.022 . S
N10 C7 1.351 . S
N10 N11 1.365 . S
N11 C8 1.341 . S
N11 N10 1.365 . S
N11 H31 0.862 . S
C12 C7 1.501 . S
C12 H13 0.961 . S
C12 H14 0.961 . S
C12 H15 0.960 . S
H13 C12 0.961 . S
H14 C12 0.961 . S
H15 C12 0.960 . S
C16 N17 1.342 . S
C16 C20 1.401 . S
C16 C21 1.499 1_554 S
N17 Co0 1.989 1_554 S
N17 C16 1.342 . S
N17 N18 1.388 . S
N18 Co1 1.993 . S
N18 N17 1.388 . S
N18 C19 1.346 . S
C19 N18 1.346 . S
C19 C20 1.396 . S
C19 C29 1.510 . S
C20 C16 1.401 . S
C20 C19 1.396 . S
C21 C16 1.499 1_556 S
C21 H22 0.959 . S
C21 H23 0.960 . S
C21 H24 0.961 . S
H22 C21 0.959 . S
H23 C21 0.960 . S
H24 C21 0.961 . S
O25 Co0 1.967 1_554 S
O25 C33 1.258 . S
O26 Co1 1.941 . S
O26 C33 1.266 . S
H27 C29 0.959 . S
H28 C29 0.961 . S
C29 C19 1.510 . S
C29 H27 0.959 . S
C29 H28 0.961 . S
C29 H30 0.960 . S
H30 C29 0.960 . S
H31 N11 0.862 . S
O32 Co0 1.920 . S
O32 C5 1.289 . S
C33 O25 1.258 . S
C33 O26 1.266 . S
Co34 O37 1.970 . S
Co34 N51 1.989 . S
Co34 O59 1.967 . S
Co34 O66 1.920 . S
Co35 O38 1.966 1_556 S
Co35 N44 2.022 . S
Co35 N52 1.993 1_556 S
Co35 O60 1.941 1_556 S
C36 O37 1.258 . S
C36 O38 1.263 . S
O37 Co34 1.970 . S
O37 C36 1.258 . S
O38 Co35 1.966 1_554 S
O38 C36 1.263 . S
C39 O40 1.235 . S
C39 O66 1.289 . S
O40 C39 1.235 . S
C41 C43 1.400 . S
C41 N44 1.351 . S
C41 C46 1.501 . S
C42 C43 1.387 . S
C42 N45 1.341 . S
C43 C41 1.400 . S
C43 C42 1.387 . S
N44 Co35 2.022 . S
N44 C41 1.351 . S
N44 N45 1.365 . S
N45 C42 1.341 . S
N45 N44 1.365 . S
N45 H65 0.862 . S
C46 C41 1.501 . S
C46 H47 0.961 . S
C46 H48 0.961 . S
C46 H49 0.960 . S
H47 C46 0.961 . S
H48 C46 0.961 . S
H49 C46 0.960 . S
C50 N51 1.342 . S
C50 C54 1.401 . S
C50 C55 1.499 . S
N51 Co34 1.989 . S
N51 C50 1.342 . S
N51 N52 1.388 . S
N52 Co35 1.993 1_554 S
N52 N51 1.388 . S
N52 C53 1.346 . S
C53 N52 1.346 . S
C53 C54 1.396 . S
C53 C63 1.510 1_554 S
C54 C50 1.401 . S
C54 C53 1.396 . S
C55 C50 1.499 . S
C55 H56 0.959 . S
C55 H57 0.960 . S
C55 H58 0.961 . S
H56 C55 0.959 . S
H57 C55 0.960 . S
H58 C55 0.961 . S
O59 Co34 1.967 . S
O59 C67 1.258 . S
O60 Co35 1.941 1_554 S
O60 C67 1.266 . S
H61 C63 0.959 . S
H62 C63 0.961 . S
C63 C53 1.510 1_556 S
C63 H61 0.959 . S
C63 H62 0.961 . S
C63 H64 0.960 . S
H64 C63 0.960 . S
H65 N45 0.862 . S
O66 Co34 1.920 . S
O66 C39 1.289 . S
C67 O59 1.258 . S
C67 O60 1.266 . S
Co68 O71 1.970 1_556 S
Co68 N85 1.989 1_556 S
Co68 O93 1.967 1_556 S
Co68 O100 1.920 . S
Co69 O72 1.966 . S
Co69 N78 2.022 . S
Co69 N86 1.993 . S
Co69 O94 1.941 . S
C70 O71 1.258 . S
C70 O72 1.263 . S
O71 Co68 1.970 1_554 S
O71 C70 1.258 . S
O72 Co69 1.966 . S
O72 C70 1.263 . S
C73 O74 1.235 . S
C73 O100 1.289 . S
O74 C73 1.235 . S
C75 C77 1.400 . S
C75 N78 1.351 . S
C75 C80 1.501 . S
C76 C77 1.387 . S
C76 N79 1.341 . S
C77 C75 1.400 . S
C77 C76 1.387 . S
N78 Co69 2.022 . S
N78 C75 1.351 . S
N78 N79 1.365 . S
N79 C76 1.341 . S
N79 N78 1.365 . S
N79 H99 0.862 . S
C80 C75 1.501 . S
C80 H81 0.961 . S
C80 H82 0.961 . S
C80 H83 0.960 . S
H81 C80 0.961 . S
H82 C80 0.961 . S
H83 C80 0.960 . S
C84 N85 1.342 . S
C84 C88 1.401 . S
C84 C89 1.499 1_554 S
N85 Co68 1.989 1_554 S
N85 C84 1.342 . S
N85 N86 1.388 . S
N86 Co69 1.993 . S
N86 N85 1.388 . S
N86 C87 1.346 . S
C87 N86 1.346 . S
C87 C88 1.396 . S
C87 C97 1.510 . S
C88 C84 1.401 . S
C88 C87 1.396 . S
C89 C84 1.499 1_556 S
C89 H90 0.959 . S
C89 H91 0.960 . S
C89 H92 0.961 . S
H90 C89 0.959 . S
H91 C89 0.960 . S
H92 C89 0.961 . S
O93 Co68 1.967 1_554 S
O93 C101 1.258 . S
O94 Co69 1.941 . S
O94 C101 1.266 . S
H95 C97 0.959 . S
H96 C97 0.961 . S
C97 C87 1.510 . S
C97 H95 0.959 . S
C97 H96 0.961 . S
C97 H98 0.960 . S
H98 C97 0.960 . S
H99 N79 0.862 . S
O100 Co68 1.920 . S
O100 C73 1.289 . S
C101 O93 1.258 . S
C101 O94 1.266 . S
Co102 O105 1.970 . S
Co102 N119 1.989 . S
Co102 O127 1.967 . S
Co102 O134 1.920 . S
Co103 O106 1.966 1_556 S
Co103 N112 2.022 . S
Co103 N120 1.993 1_556 S
Co103 O128 1.941 1_556 S
C104 O105 1.258 . S
C104 O106 1.263 . S
O105 Co102 1.970 . S
O105 C104 1.258 . S
O106 Co103 1.966 1_554 S
O106 C104 1.263 . S
C107 O108 1.235 . S
C107 O134 1.289 . S
O108 C107 1.235 . S
C109 C111 1.400 . S
C109 N112 1.351 . S
C109 C114 1.501 . S
C110 C111 1.387 . S
C110 N113 1.341 . S
C111 C109 1.400 . S
C111 C110 1.387 . S
N112 Co103 2.022 . S
N112 C109 1.351 . S
N112 N113 1.365 . S
N113 C110 1.341 . S
N113 N112 1.365 . S
N113 H133 0.862 . S
C114 C109 1.501 . S
C114 H115 0.961 . S
C114 H116 0.961 . S
C114 H117 0.960 . S
H115 C114 0.961 . S
H116 C114 0.961 . S
H117 C114 0.960 . S
C118 N119 1.342 . S
C118 C122 1.401 . S
C118 C123 1.499 . S
N119 Co102 1.989 . S
N119 C118 1.342 . S
N119 N120 1.388 . S
N120 Co103 1.993 1_554 S
N120 N119 1.388 . S
N120 C121 1.346 . S
C121 N120 1.346 . S
C121 C122 1.396 . S
C121 C131 1.510 1_554 S
C122 C118 1.401 . S
C122 C121 1.396 . S
C123 C118 1.499 . S
C123 H124 0.959 . S
C123 H125 0.960 . S
C123 H126 0.961 . S
H124 C123 0.959 . S
H125 C123 0.960 . S
H126 C123 0.961 . S
O127 Co102 1.967 . S
O127 C135 1.258 . S
O128 Co103 1.941 1_554 S
O128 C135 1.266 . S
H129 C131 0.959 . S
H130 C131 0.961 . S
C131 C121 1.510 1_556 S
C131 H129 0.959 . S
C131 H130 0.961 . S
C131 H132 0.960 . S
H132 C131 0.960 . S
H133 N113 0.862 . S
O134 Co102 1.920 . S
O134 C107 1.289 . S
C135 O127 1.258 . S
C135 O128 1.266 . S
Co136 O139 1.970 . S
Co136 N153 1.989 . S
Co136 O161 1.967 . S
Co136 O168 1.920 . S
Co137 O140 1.966 . S
Co137 N146 2.022 . S
Co137 N154 1.993 1_556 S
Co137 O162 1.941 . S
C138 O139 1.258 . S
C138 O140 1.263 1_554 S
O139 Co136 1.970 . S
O139 C138 1.258 . S
O140 Co137 1.966 . S
O140 C138 1.263 1_556 S
C141 O142 1.235 . S
C141 O168 1.289 . S
O142 C141 1.235 . S
C143 C145 1.400 . S
C143 N146 1.351 . S
C143 C148 1.501 . S
C144 C145 1.387 . S
C144 N147 1.341 . S
C145 C143 1.400 . S
C145 C144 1.387 . S
N146 Co137 2.022 . S
N146 C143 1.351 . S
N146 N147 1.365 . S
N147 C144 1.341 . S
N147 N146 1.365 . S
N147 H167 0.862 . S
C148 C143 1.501 . S
C148 H149 0.961 . S
C148 H150 0.961 . S
C148 H151 0.960 . S
H149 C148 0.961 . S
H150 C148 0.961 . S
H151 C148 0.960 . S
C152 N153 1.342 . S
C152 C156 1.401 . S
C152 C157 1.499 . S
N153 Co136 1.989 . S
N153 C152 1.342 . S
N153 N154 1.388 . S
N154 Co137 1.993 1_554 S
N154 N153 1.388 . S
N154 C155 1.346 1_554 S
C155 N154 1.346 1_556 S
C155 C156 1.396 1_556 S
C155 C165 1.510 . S
C156 C152 1.401 . S
C156 C155 1.396 1_554 S
C157 C152 1.499 . S
C157 H158 0.959 . S
C157 H159 0.960 . S
C157 H160 0.961 . S
H158 C157 0.959 . S
H159 C157 0.960 . S
H160 C157 0.961 . S
O161 Co136 1.967 . S
O161 C169 1.258 . S
O162 Co137 1.941 . S
O162 C169 1.266 1_556 S
H163 C165 0.959 . S
H164 C165 0.961 . S
C165 C155 1.510 . S
C165 H163 0.959 . S
C165 H164 0.961 . S
C165 H166 0.960 . S
H166 C165 0.960 . S
H167 N147 0.862 . S
O168 Co136 1.920 . S
O168 C141 1.289 . S
C169 O161 1.258 . S
C169 O162 1.266 1_554 S
Co170 O173 1.970 . S
Co170 N187 1.989 . S
Co170 O195 1.967 . S
Co170 O202 1.920 . S
Co171 O174 1.966 1_556 S
Co171 N180 2.022 . S
Co171 N188 1.993 1_556 S
Co171 O196 1.941 1_556 S
C172 O173 1.258 . S
C172 O174 1.263 . S
O173 Co170 1.970 . S
O173 C172 1.258 . S
O174 Co171 1.966 1_554 S
O174 C172 1.263 . S
C175 O176 1.235 . S
C175 O202 1.289 . S
O176 C175 1.235 . S
C177 C179 1.400 . S
C177 N180 1.351 . S
C177 C182 1.501 . S
C178 C179 1.387 . S
C178 N181 1.341 . S
C179 C177 1.400 . S
C179 C178 1.387 . S
N180 Co171 2.022 . S
N180 C177 1.351 . S
N180 N181 1.365 . S
N181 C178 1.341 . S
N181 N180 1.365 . S
N181 H201 0.862 . S
C182 C177 1.501 . S
C182 H183 0.961 . S
C182 H184 0.961 . S
C182 H185 0.960 . S
H183 C182 0.961 . S
H184 C182 0.961 . S
H185 C182 0.960 . S
C186 N187 1.342 . S
C186 C190 1.401 . S
C186 C191 1.499 . S
N187 Co170 1.989 . S
N187 C186 1.342 . S
N187 N188 1.388 . S
N188 Co171 1.993 1_554 S
N188 N187 1.388 . S
N188 C189 1.346 . S
C189 N188 1.346 . S
C189 C190 1.396 . S
C189 C199 1.510 1_554 S
C190 C186 1.401 . S
C190 C189 1.396 . S
C191 C186 1.499 . S
C191 H192 0.959 . S
C191 H193 0.960 . S
C191 H194 0.961 . S
H192 C191 0.959 . S
H193 C191 0.960 . S
H194 C191 0.961 . S
O195 Co170 1.967 . S
O195 C203 1.258 . S
O196 Co171 1.941 1_554 S
O196 C203 1.266 . S
H197 C199 0.959 . S
H198 C199 0.961 . S
C199 C189 1.510 1_556 S
C199 H197 0.959 . S
C199 H198 0.961 . S
C199 H200 0.960 . S
H200 C199 0.960 . S
H201 N181 0.862 . S
O202 Co170 1.920 . S
O202 C175 1.289 . S
C203 O195 1.258 . S
C203 O196 1.266 . S
C204 C205 1.363 . S
C204 C210 1.379 1_455 S
C204 N212 1.356 1_554 S
C205 C204 1.363 . S
C205 C211 1.363 . S
C206 C207 1.363 . S
C206 C211 1.379 1_655 S
C206 N213 1.356 . S
C207 C206 1.363 . S
C207 C210 1.363 . S
N208 C210 1.356 1_556 S
N208 H220 0.984 . S
N208 H221 0.985 . S
N209 C211 1.356 . S
N209 H214 0.984 . S
N209 H215 0.985 . S
C210 C204 1.379 1_655 S
C210 C207 1.363 . S
C210 N208 1.356 1_554 S
C211 C205 1.363 . S
C211 C206 1.379 1_455 S
C211 N209 1.356 . S
N212 C204 1.356 1_556 S
N212 H218 0.984 . S
N212 H219 0.984 . S
N213 C206 1.356 . S
N213 H216 0.984 . S
N213 H217 0.985 . S
H214 N209 0.984 . S
H215 N209 0.985 . S
H216 N213 0.984 . S
H217 N213 0.985 . S
H218 N212 0.984 . S
H219 N212 0.984 . S
H220 N208 0.984 . S
H221 N208 0.985 . S
C222 C223 1.363 . S
C222 C228 1.379 . S
C222 N230 1.356 . S
C223 C222 1.363 . S
C223 C229 1.363 1_554 S
C224 C225 1.363 . S
C224 C229 1.379 1_544 S
C224 N231 1.356 1_554 S
C225 C224 1.363 . S
C225 C228 1.363 1_545 S
N226 C228 1.356 1_545 S
N226 H238 0.984 1_545 S
N226 H239 0.985 . S
N227 C229 1.356 . S
N227 H232 0.984 . S
N227 H233 0.985 . S
C228 C222 1.379 . S
C228 C225 1.363 1_565 S
C228 N226 1.356 1_565 S
C229 C223 1.363 1_556 S
C229 C224 1.379 1_566 S
C229 N227 1.356 . S
N230 C222 1.356 . S
N230 H236 0.984 . S
N230 H237 0.984 . S
N231 C224 1.356 1_556 S
N231 H234 0.984 . S
N231 H235 0.985 . S
H232 N227 0.984 . S
H233 N227 0.985 . S
H234 N231 0.984 . S
H235 N231 0.985 . S
H236 N230 0.984 . S
H237 N230 0.984 . S
H238 N226 0.984 1_565 S
H239 N226 0.985 . S
C240 C241 1.363 . S
C240 C246 1.379 . S
C240 N248 1.356 . S
C241 C240 1.363 . S
C241 C247 1.363 . S
C242 C243 1.363 . S
C242 C247 1.379 . S
C242 N249 1.356 1_554 S
C243 C242 1.363 . S
C243 C246 1.363 . S
N244 C246 1.356 . S
N244 H256 0.984 . S
N244 H257 0.985 . S
N245 C247 1.356 1_556 S
N245 H250 0.984 1_556 S
N245 H251 0.985 . S
C246 C240 1.379 . S
C246 C243 1.363 . S
C246 N244 1.356 . S
C247 C241 1.363 . S
C247 C242 1.379 . S
C247 N245 1.356 1_554 S
N248 C240 1.356 . S
N248 H254 0.984 . S
N248 H255 0.984 . S
N249 C242 1.356 1_556 S
N249 H252 0.984 . S
N249 H253 0.985 . S
H250 N245 0.984 1_554 S
H251 N245 0.985 . S
H252 N249 0.984 . S
H253 N249 0.985 . S
H254 N248 0.984 . S
H255 N248 0.984 . S
H256 N244 0.984 . S
H257 N244 0.985 . S
C258 C259 1.363 . S
C258 C264 1.379 . S
C258 N266 1.356 . S
C259 C258 1.363 . S
C259 C265 1.363 . S
C260 C261 1.363 . S
C260 C265 1.379 . S
C260 N267 1.356 . S
C261 C260 1.363 . S
C261 C264 1.363 . S
N262 C264 1.356 . S
N262 H274 0.984 . S
N262 H275 0.985 . S
N263 C265 1.356 . S
N263 H268 0.984 . S
N263 H269 0.985 . S
C264 C258 1.379 . S
C264 C261 1.363 . S
C264 N262 1.356 . S
C265 C259 1.363 . S
C265 C260 1.379 . S
C265 N263 1.356 . S
N266 C258 1.356 . S
N266 H272 0.984 . S
N266 H273 0.984 . S
N267 C260 1.356 . S
N267 H270 0.984 . S
N267 H271 0.985 . S
H268 N263 0.984 . S
H269 N263 0.985 . S
H270 N267 0.984 . S
H271 N267 0.985 . S
H272 N266 0.984 . S
H273 N266 0.984 . S
H274 N262 0.984 . S
H275 N262 0.985 . S
C276 C277 1.363 . S
C276 C282 1.379 . S
C276 N284 1.356 . S
C277 C276 1.363 . S
C277 C283 1.363 . S
C278 C279 1.363 . S
C278 C283 1.379 . S
C278 N285 1.356 . S
C279 C278 1.363 . S
C279 C282 1.363 . S
N280 C282 1.356 . S
N280 H292 0.984 . S
N280 H293 0.985 . S
N281 C283 1.356 . S
N281 H286 0.984 . S
N281 H287 0.985 . S
C282 C276 1.379 . S
C282 C279 1.363 . S
C282 N280 1.356 . S
C283 C277 1.363 . S
C283 C278 1.379 . S
C283 N281 1.356 . S
N284 C276 1.356 . S
N284 H290 0.984 . S
N284 H291 0.984 . S
N285 C278 1.356 . S
N285 H288 0.984 . S
N285 H289 0.985 . S
H286 N281 0.984 . S
H287 N281 0.985 . S
H288 N285 0.984 . S
H289 N285 0.985 . S
H290 N284 0.984 . S
H291 N284 0.984 . S
H292 N280 0.984 . S
H293 N280 0.985 . S
C294 C295 1.363 . S
C294 C300 1.379 . S
C294 N302 1.356 . S
C295 C294 1.363 . S
C295 C301 1.363 . S
C296 C297 1.363 . S
C296 C301 1.379 . S
C296 N303 1.356 . S
C297 C296 1.363 . S
C297 C300 1.363 . S
N298 C300 1.356 . S
N298 H310 0.984 . S
N298 H311 0.985 . S
N299 C301 1.356 . S
N299 H304 0.984 . S
N299 H305 0.985 . S
C300 C294 1.379 . S
C300 C297 1.363 . S
C300 N298 1.356 . S
C301 C295 1.363 . S
C301 C296 1.379 . S
C301 N299 1.356 . S
N302 C294 1.356 . S
N302 H308 0.984 . S
N302 H309 0.984 . S
N303 C296 1.356 . S
N303 H306 0.984 . S
N303 H307 0.985 . S
H304 N299 0.984 . S
H305 N299 0.985 . S
H306 N303 0.984 . S
H307 N303 0.985 . S
H308 N302 0.984 . S
H309 N302 0.984 . S
H310 N298 0.984 . S
H311 N298 0.985 . S
C312 C313 1.363 . S
C312 C318 1.379 . S
C312 N320 1.356 . S
C313 C312 1.363 . S
C313 C319 1.363 . S
C314 C315 1.363 . S
C314 C319 1.379 . S
C314 N321 1.356 . S
C315 C314 1.363 . S
C315 C318 1.363 . S
N316 C318 1.356 . S
N316 H328 0.984 . S
N316 H329 0.985 . S
N317 C319 1.356 . S
N317 H322 0.984 . S
N317 H323 0.985 . S
C318 C312 1.379 . S
C318 C315 1.363 . S
C318 N316 1.356 . S
C319 C313 1.363 . S
C319 C314 1.379 . S
C319 N317 1.356 . S
N320 C312 1.356 . S
N320 H326 0.984 . S
N320 H327 0.984 . S
N321 C314 1.356 . S
N321 H324 0.984 . S
N321 H325 0.985 . S
H322 N317 0.984 . S
H323 N317 0.985 . S
H324 N321 0.984 . S
H325 N321 0.985 . S
H326 N320 0.984 . S
H327 N320 0.984 . S
H328 N316 0.984 . S
H329 N316 0.985 . S
C330 C331 1.363 . S
C330 C336 1.379 . S
C330 N338 1.356 . S
C331 C330 1.363 . S
C331 C337 1.363 . S
C332 C333 1.363 . S
C332 C337 1.379 . S
C332 N339 1.356 . S
C333 C332 1.363 . S
C333 C336 1.363 . S
N334 C336 1.356 . S
N334 H346 0.984 . S
N334 H347 0.985 . S
N335 C337 1.356 . S
N335 H340 0.984 . S
N335 H341 0.985 . S
C336 C330 1.379 . S
C336 C333 1.363 . S
C336 N334 1.356 . S
C337 C331 1.363 . S
C337 C332 1.379 . S
C337 N335 1.356 . S
N338 C330 1.356 . S
N338 H344 0.984 . S
N338 H345 0.984 . S
N339 C332 1.356 . S
N339 H342 0.984 . S
N339 H343 0.985 . S
H340 N335 0.984 . S
H341 N335 0.985 . S
H342 N339 0.984 . S
H343 N339 0.985 . S
H344 N338 0.984 . S
H345 N338 0.984 . S
H346 N334 0.984 . S
H347 N334 0.985 . S
C348 C349 1.363 . S
C348 C354 1.379 . S
C348 N356 1.356 . S
C349 C348 1.363 . S
C349 C355 1.363 . S
C350 C351 1.363 . S
C350 C355 1.379 . S
C350 N357 1.356 . S
C351 C350 1.363 . S
C351 C354 1.363 . S
N352 C354 1.356 . S
N352 H364 0.984 . S
N352 H365 0.985 . S
N353 C355 1.356 . S
N353 H358 0.984 . S
N353 H359 0.985 . S
C354 C348 1.379 . S
C354 C351 1.363 . S
C354 N352 1.356 . S
C355 C349 1.363 . S
C355 C350 1.379 . S
C355 N353 1.356 . S
N356 C348 1.356 . S
N356 H362 0.984 . S
N356 H363 0.984 . S
N357 C350 1.356 . S
N357 H360 0.984 . S
N357 H361 0.985 . S
H358 N353 0.984 . S
H359 N353 0.985 . S
H360 N357 0.984 . S
H361 N357 0.985 . S
H362 N356 0.984 . S
H363 N356 0.984 . S
H364 N352 0.984 . S
H365 N352 0.985 . S
C366 C367 1.363 . S
C366 C372 1.379 . S
C366 N374 1.356 . S
C367 C366 1.363 . S
C367 C373 1.363 . S
C368 C369 1.363 . S
C368 C373 1.379 . S
C368 N375 1.356 1_554 S
C369 C368 1.363 . S
C369 C372 1.363 . S
N370 C372 1.356 . S
N370 H382 0.984 . S
N370 H383 0.985 . S
N371 C373 1.356 . S
N371 H376 0.984 . S
N371 H377 0.985 1_554 S
C372 C366 1.379 . S
C372 C369 1.363 . S
C372 N370 1.356 . S
C373 C367 1.363 . S
C373 C368 1.379 . S
C373 N371 1.356 . S
N374 C366 1.356 . S
N374 H380 0.984 . S
N374 H381 0.984 . S
N375 C368 1.356 1_556 S
N375 H378 0.986 . S
N375 H379 0.985 . S
H376 N371 0.984 . S
H377 N371 0.985 1_556 S
H378 N375 0.986 . S
H379 N375 0.985 . S
H380 N374 0.984 . S
H381 N374 0.984 . S
H382 N370 0.984 . S
H383 N370 0.985 . S
C384 C385 1.363 . S
C384 C390 1.379 . S
C384 N392 1.356 . S
C385 C384 1.363 . S
C385 C391 1.363 . S
C386 C387 1.363 . S
C386 C391 1.379 . S
C386 N393 1.356 1_554 S
C387 C386 1.363 . S
C387 C390 1.363 . S
N388 C390 1.356 . S
N388 H400 0.984 . S
N388 H401 0.985 . S
N389 C391 1.356 1_556 S
N389 H394 0.984 1_556 S
N389 H395 0.985 . S
C390 C384 1.379 . S
C390 C387 1.363 . S
C390 N388 1.356 . S
C391 C385 1.363 . S
C391 C386 1.379 . S
C391 N389 1.356 1_554 S
N392 C384 1.356 . S
N392 H398 0.984 . S
N392 H399 0.984 . S
N393 C386 1.356 1_556 S
N393 H396 0.984 . S
N393 H397 0.985 . S
H394 N389 0.984 1_554 S
H395 N389 0.985 . S
H396 N393 0.984 . S
H397 N393 0.985 . S
H398 N392 0.984 . S
H399 N392 0.984 . S
H400 N388 0.984 . S
H401 N388 0.985 . S
C402 C403 1.363 . S
C402 C408 1.379 . S
C402 N410 1.356 1_554 S
C403 C402 1.363 . S
C403 C409 1.363 . S
C404 C405 1.363 . S
C404 C409 1.379 . S
C404 N411 1.356 . S
C405 C404 1.363 . S
C405 C408 1.363 . S
N406 C408 1.356 1_556 S
N406 H418 0.984 . S
N406 H419 0.985 . S
N407 C409 1.356 . S
N407 H412 0.984 . S
N407 H413 0.985 . S
C408 C402 1.379 . S
C408 C405 1.363 . S
C408 N406 1.356 1_554 S
C409 C403 1.363 . S
C409 C404 1.379 . S
C409 N407 1.356 . S
N410 C402 1.356 1_556 S
N410 H416 0.984 . S
N410 H417 0.984 1_556 S
N411 C404 1.356 . S
N411 H414 0.984 . S
N411 H415 0.985 . S
H412 N407 0.984 . S
H413 N407 0.985 . S
H414 N411 0.984 . S
H415 N411 0.985 . S
H416 N410 0.984 . S
H417 N410 0.984 1_554 S
H418 N406 0.984 . S
H419 N406 0.985 . S
C420 C421 1.363 . S
C420 C426 1.379 . S
C420 N428 1.356 . S
C421 C420 1.363 . S
C421 C427 1.363 . S
C422 C423 1.363 . S
C422 C427 1.379 . S
C422 N429 1.356 . S
C423 C422 1.363 . S
C423 C426 1.363 . S
N424 C426 1.356 1_556 S
N424 H436 0.984 . S
N424 H437 0.985 1_556 S
N425 C427 1.356 . S
N425 H430 0.984 . S
N425 H431 0.985 . S
C426 C420 1.379 . S
C426 C423 1.363 . S
C426 N424 1.356 1_554 S
C427 C421 1.363 . S
C427 C422 1.379 . S
C427 N425 1.356 . S
N428 C420 1.356 . S
N428 H434 0.984 1_554 S
N428 H435 0.984 . S
N429 C422 1.356 . S
N429 H432 0.984 . S
N429 H433 0.985 . S
H430 N425 0.984 . S
H431 N425 0.985 . S
H432 N429 0.984 . S
H433 N429 0.985 . S
H434 N428 0.984 1_556 S
H435 N428 0.984 . S
H436 N424 0.984 . S
H437 N424 0.985 1_554 S
C438 C439 1.363 . S
C438 C444 1.379 . S
C438 N446 1.356 . S
C439 C438 1.363 . S
C439 C445 1.363 . S
C440 C441 1.363 . S
C440 C445 1.379 . S
C440 N447 1.356 1_554 S
C441 C440 1.363 . S
C441 C444 1.363 . S
N442 C444 1.356 . S
N442 H454 0.984 . S
N442 H455 0.985 . S
N443 C445 1.356 1_556 S
N443 H448 0.984 . S
N443 H449 0.985 . S
C444 C438 1.379 . S
C444 C441 1.363 . S
C444 N442 1.356 . S
C445 C439 1.363 . S
C445 C440 1.379 . S
C445 N443 1.356 1_554 S
N446 C438 1.356 . S
N446 H452 0.984 . S
N446 H453 0.984 . S
N447 C440 1.356 1_556 S
N447 H450 0.984 . S
N447 H451 0.985 . S
H448 N443 0.984 . S
H449 N443 0.985 . S
H450 N447 0.984 . S
H451 N447 0.985 . S
H452 N446 0.984 . S
H453 N446 0.984 . S
H454 N442 0.984 . S
H455 N442 0.985 . S
C456 C457 1.363 . S
C456 C462 1.379 . S
C456 N464 1.356 . S
C457 C456 1.363 . S
C457 C463 1.363 . S
C458 C459 1.363 . S
C458 C463 1.379 . S
C458 N465 1.356 1_554 S
C459 C458 1.363 . S
C459 C462 1.363 . S
N460 C462 1.356 . S
N460 H472 0.984 . S
N460 H473 0.985 . S
N461 C463 1.356 1_556 S
N461 H466 0.984 . S
N461 H467 0.985 . S
C462 C456 1.379 . S
C462 C459 1.363 . S
C462 N460 1.356 . S
C463 C457 1.363 . S
C463 C458 1.379 . S
C463 N461 1.356 1_554 S
N464 C456 1.356 . S
N464 H470 0.984 . S
N464 H471 0.984 . S
N465 C458 1.356 1_556 S
N465 H468 0.984 . S
N465 H469 0.985 . S
H466 N461 0.984 . S
H467 N461 0.985 . S
H468 N465 0.984 . S
H469 N465 0.985 . S
H470 N464 0.984 . S
H471 N464 0.984 . S
H472 N460 0.984 . S
H473 N460 0.985 . S
C205 C20 1.367 . S
C207 C122 1.366 . S
C223 C156 1.517 . S
C225 C54 1.493 . S
C241 C190 1.385 . S
C243 C88 1.384 . S
C259 C9 1.427 . S
C261 C5 1.507 . S
C277 C39 1.515 . S
C279 C43 1.404 . S
C295 C73 1.521 . S
C297 C77 1.394 . S
C313 C111 1.408 . S
C315 C107 1.516 . S
C331 C141 1.500 . S
C333 C145 1.403 . S
C349 C175 1.516 . S
C351 C179 1.408 . S
C367 C2 1.185 . S
C369 C101 1.211 . S
C385 C67 1.264 . S
C387 C104 1.225 . S
C403 C70 1.207 . S
C405 C138 1.228 . S
C421 C135 1.099 . S
C423 C172 1.086 . S
C439 C33 1.073 . S
C441 C169 1.058 . S
C457 C36 1.342 . S
C459 C203 1.438 . S
