# Generated by pormake.
# Topology smn, (6)-cn, num edge types: 1
# Building blocks:
#     Node 0, Type 0, BuildingBlock: OJICUG_clean_sbu_0, # of connection points: 6
#     Node 1, Type 0, BuildingBlock: OJICUG_clean_sbu_0, # of connection points: 6
#     Node 2, Type 0, BuildingBlock: OJICUG_clean_sbu_0, # of connection points: 6
#     Node 3, Type 0, BuildingBlock: OJICUG_clean_sbu_0, # of connection points: 6
#     Node 4, Type 0, BuildingBlock: OJICUG_clean_sbu_0, # of connection points: 6
#     Node 5, Type 0, BuildingBlock: OJICUG_clean_sbu_0, # of connection points: 6
#     Node 6, Type 0, BuildingBlock: OJICUG_clean_sbu_0, # of connection points: 6
#     Node 7, Type 0, BuildingBlock: OJICUG_clean_sbu_0, # of connection points: 6
#     Node 8, Type 0, BuildingBlock: OJICUG_clean_sbu_0, # of connection points: 6
#     Node 9, Type 0, BuildingBlock: OJICUG_clean_sbu_0, # of connection points: 6
#     Node 10, Type 0, BuildingBlock: OJICUG_clean_sbu_0, # of connection points: 6
#     Node 11, Type 0, BuildingBlock: OJICUG_clean_sbu_0, # of connection points: 6
#     Node 12, Type 0, BuildingBlock: OJICUG_clean_sbu_0, # of connection points: 6
#     Node 13, Type 0, BuildingBlock: OJICUG_clean_sbu_0, # of connection points: 6
#     Node 14, Type 0, BuildingBlock: OJICUG_clean_sbu_0, # of connection points: 6
#     Node 15, Type 0, BuildingBlock: OJICUG_clean_sbu_0, # of connection points: 6
#     Node 16, Type 0, BuildingBlock: OJICUG_clean_sbu_0, # of connection points: 6
#     Node 17, Type 0, BuildingBlock: OJICUG_clean_sbu_0, # of connection points: 6
#     Edge 18, Type (0, 0), BuildingBlock: MIFKUJ_clean_linker_0, # of connection points: 2
#     Edge 19, Type (0, 0), BuildingBlock: MIFKUJ_clean_linker_0, # of connection points: 2
#     Edge 20, Type (0, 0), BuildingBlock: MIFKUJ_clean_linker_0, # of connection points: 2
#     Edge 21, Type (0, 0), BuildingBlock: MIFKUJ_clean_linker_0, # of connection points: 2
#     Edge 22, Type (0, 0), BuildingBlock: MIFKUJ_clean_linker_0, # of connection points: 2
#     Edge 23, Type (0, 0), BuildingBlock: MIFKUJ_clean_linker_0, # of connection points: 2
#     Edge 24, Type (0, 0), BuildingBlock: MIFKUJ_clean_linker_0, # of connection points: 2
#     Edge 25, Type (0, 0), BuildingBlock: MIFKUJ_clean_linker_0, # of connection points: 2
#     Edge 26, Type (0, 0), BuildingBlock: MIFKUJ_clean_linker_0, # of connection points: 2
#     Edge 27, Type (0, 0), BuildingBlock: MIFKUJ_clean_linker_0, # of connection points: 2
#     Edge 28, Type (0, 0), BuildingBlock: MIFKUJ_clean_linker_0, # of connection points: 2
#     Edge 29, Type (0, 0), BuildingBlock: MIFKUJ_clean_linker_0, # of connection points: 2
#     Edge 30, Type (0, 0), BuildingBlock: MIFKUJ_clean_linker_0, # of connection points: 2
#     Edge 31, Type (0, 0), BuildingBlock: MIFKUJ_clean_linker_0, # of connection points: 2
#     Edge 32, Type (0, 0), BuildingBlock: MIFKUJ_clean_linker_0, # of connection points: 2
#     Edge 33, Type (0, 0), BuildingBlock: MIFKUJ_clean_linker_0, # of connection points: 2
#     Edge 34, Type (0, 0), BuildingBlock: MIFKUJ_clean_linker_0, # of connection points: 2
#     Edge 35, Type (0, 0), BuildingBlock: MIFKUJ_clean_linker_0, # of connection points: 2
#     Edge 36, Type (0, 0), BuildingBlock: MIFKUJ_clean_linker_0, # of connection points: 2
#     Edge 37, Type (0, 0), BuildingBlock: MIFKUJ_clean_linker_0, # of connection points: 2
#     Edge 38, Type (0, 0), BuildingBlock: MIFKUJ_clean_linker_0, # of connection points: 2
#     Edge 39, Type (0, 0), BuildingBlock: MIFKUJ_clean_linker_0, # of connection points: 2
#     Edge 40, Type (0, 0), BuildingBlock: MIFKUJ_clean_linker_0, # of connection points: 2
#     Edge 41, Type (0, 0), BuildingBlock: MIFKUJ_clean_linker_0, # of connection points: 2
#     Edge 42, Type (0, 0), BuildingBlock: MIFKUJ_clean_linker_0, # of connection points: 2
#     Edge 43, Type (0, 0), BuildingBlock: MIFKUJ_clean_linker_0, # of connection points: 2
#     Edge 44, Type (0, 0), BuildingBlock: MIFKUJ_clean_linker_0, # of connection points: 2
#     Edge 45, Type (0, 0), BuildingBlock: MIFKUJ_clean_linker_0, # of connection points: 2
#     Edge 46, Type (0, 0), BuildingBlock: MIFKUJ_clean_linker_0, # of connection points: 2
#     Edge 47, Type (0, 0), BuildingBlock: MIFKUJ_clean_linker_0, # of connection points: 2
#     Edge 48, Type (0, 0), BuildingBlock: MIFKUJ_clean_linker_0, # of connection points: 2
#     Edge 49, Type (0, 0), BuildingBlock: MIFKUJ_clean_linker_0, # of connection points: 2
#     Edge 50, Type (0, 0), BuildingBlock: MIFKUJ_clean_linker_0, # of connection points: 2
#     Edge 51, Type (0, 0), BuildingBlock: MIFKUJ_clean_linker_0, # of connection points: 2
#     Edge 52, Type (0, 0), BuildingBlock: MIFKUJ_clean_linker_0, # of connection points: 2
#     Edge 53, Type (0, 0), BuildingBlock: MIFKUJ_clean_linker_0, # of connection points: 2
#     Edge 54, Type (0, 0), BuildingBlock: MIFKUJ_clean_linker_0, # of connection points: 2
#     Edge 55, Type (0, 0), BuildingBlock: MIFKUJ_clean_linker_0, # of connection points: 2
#     Edge 56, Type (0, 0), BuildingBlock: MIFKUJ_clean_linker_0, # of connection points: 2
#     Edge 57, Type (0, 0), BuildingBlock: MIFKUJ_clean_linker_0, # of connection points: 2
#     Edge 58, Type (0, 0), BuildingBlock: MIFKUJ_clean_linker_0, # of connection points: 2
#     Edge 59, Type (0, 0), BuildingBlock: MIFKUJ_clean_linker_0, # of connection points: 2
#     Edge 60, Type (0, 0), BuildingBlock: MIFKUJ_clean_linker_0, # of connection points: 2
#     Edge 61, Type (0, 0), BuildingBlock: MIFKUJ_clean_linker_0, # of connection points: 2
#     Edge 62, Type (0, 0), BuildingBlock: MIFKUJ_clean_linker_0, # of connection points: 2
#     Edge 63, Type (0, 0), BuildingBlock: MIFKUJ_clean_linker_0, # of connection points: 2
#     Edge 64, Type (0, 0), BuildingBlock: MIFKUJ_clean_linker_0, # of connection points: 2
#     Edge 65, Type (0, 0), BuildingBlock: MIFKUJ_clean_linker_0, # of connection points: 2
#     Edge 66, Type (0, 0), BuildingBlock: MIFKUJ_clean_linker_0, # of connection points: 2
#     Edge 67, Type (0, 0), BuildingBlock: MIFKUJ_clean_linker_0, # of connection points: 2
#     Edge 68, Type (0, 0), BuildingBlock: MIFKUJ_clean_linker_0, # of connection points: 2
#     Edge 69, Type (0, 0), BuildingBlock: MIFKUJ_clean_linker_0, # of connection points: 2
#     Edge 70, Type (0, 0), BuildingBlock: MIFKUJ_clean_linker_0, # of connection points: 2
#     Edge 71, Type (0, 0), BuildingBlock: MIFKUJ_clean_linker_0, # of connection points: 2
# Relax obj value: 0.148
# Max RMSD: 0.236
# Mean RMSD: 0.236
data_MOF--net-smn--node1-OJICUG_clean_sbu_0--edge1-MIFKUJ_clean_linker_0
_symmetry_space_group_name_H-M    P1
_symmetry_Int_Tables_number       1
_symmetry_cell_setting            triclinic
loop_
_symmetry_equiv_pos_as_xyz
'x, y, z'
_cell_length_a     83.772899
_cell_length_b     83.798115
_cell_length_c     23.165514
_cell_angle_alpha  89.996256
_cell_angle_beta   90.036678
_cell_angle_gamma 119.99497
loop_
_atom_site_label
_atom_site_type_symbol
_atom_site_fract_x
_atom_site_fract_y
_atom_site_fract_z
_atom_type_partial_charge
Sc0 Sc 0.00465 0.17997 0.75452 0.0
Sc1 Sc 0.01447 0.22159 0.82185 0.0
Sc2 Sc 0.99325 0.21027 0.68468 0.0
O3 O 0.00413 0.20395 0.75369 0.0
C4 C 0.01783 0.19505 0.62706 0.0
C5 C 0.04292 0.20685 0.81752 0.0
C6 C 0.02835 0.24944 0.71548 0.0
C7 C 0.99128 0.18189 0.88162 0.0
C8 C 0.96614 0.16686 0.69107 0.0
C9 C 0.9781 0.22335 0.78956 0.0
O10 O 0.01705 0.18544 0.67062 0.0
O11 O 0.03872 0.21898 0.83099 0.0
O12 O 0.01519 0.2383 0.68336 0.0
O13 O 0.9923 0.17305 0.83848 0.0
O14 O 0.96983 0.18295 0.6765 0.0
O15 O 0.99148 0.22621 0.82216 0.0
O16 O 0.97745 0.16382 0.7186 0.0
O17 O 0.9989 0.19942 0.88268 0.0
O18 O 0.97633 0.21715 0.73834 0.0
O19 O 0.03193 0.19222 0.7906 0.0
O20 O 0.00966 0.20444 0.62505 0.0
O21 O 0.03054 0.24543 0.76689 0.0
Sc22 Sc 0.7891 0.79779 0.81783 0.0
Sc23 Sc 0.80018 0.78827 0.67986 0.0
Sc24 Sc 0.8308 0.82943 0.75168 0.0
O25 O 0.80668 0.80515 0.7498 0.0
C26 C 0.80397 0.84105 0.81217 0.0
C27 C 0.76093 0.7836 0.71337 0.0
C28 C 0.81572 0.82811 0.62385 0.0
C29 C 0.78734 0.7598 0.78327 0.0
C30 C 0.82838 0.81392 0.87917 0.0
C31 C 0.84365 0.80413 0.68818 0.0
O32 O 0.79242 0.82484 0.82875 0.0
O33 O 0.77167 0.78088 0.6815 0.0
O34 O 0.82633 0.83635 0.66631 0.0
O35 O 0.78386 0.76994 0.81566 0.0
O36 O 0.83717 0.82444 0.83718 0.0
O37 O 0.82779 0.79299 0.66806 0.0
O38 O 0.81094 0.80345 0.87887 0.0
O39 O 0.79425 0.76465 0.73295 0.0
O40 O 0.84666 0.81753 0.72065 0.0
O41 O 0.76557 0.79108 0.76297 0.0
O42 O 0.81826 0.84468 0.78333 0.0
O43 O 0.80512 0.81067 0.62212 0.0
Sc44 Sc 0.17981 0.00403 0.74725 0.0
Sc45 Sc 0.21129 0.99496 0.82029 0.0
Sc46 Sc 0.22179 0.0146 0.68069 0.0
O47 O 0.20431 0.00452 0.74937 0.0
C48 C 0.18223 0.99054 0.62072 0.0
C49 C 0.16811 0.96637 0.81398 0.0
C50 C 0.22492 0.97937 0.71755 0.0
C51 C 0.19438 0.01841 0.87466 0.0
C52 C 0.20601 0.04226 0.68322 0.0
C53 C 0.24986 0.03033 0.78663 0.0
O54 O 0.17323 0.99146 0.66351 0.0
O55 O 0.18436 0.97105 0.83013 0.0
O56 O 0.22703 0.99201 0.68273 0.0
O57 O 0.18454 0.01669 0.8307 0.0
O58 O 0.21839 0.03836 0.66991 0.0
O59 O 0.23897 0.01764 0.82053 0.0
O60 O 0.1915 0.03114 0.71047 0.0
O61 O 0.20461 0.01119 0.8778 0.0
O62 O 0.2457 0.03149 0.73448 0.0
O63 O 0.1645 0.97682 0.78377 0.0
O64 O 0.19977 0.99835 0.62008 0.0
O65 O 0.21904 0.97824 0.76897 0.0
Sc66 Sc 0.00454 0.8283 0.25085 0.0
Sc67 Sc 0.99387 0.7865 0.18291 0.0
Sc68 Sc 0.01525 0.79743 0.31974 0.0
O69 O 0.00456 0.80408 0.25115 0.0
C70 C 0.04334 0.84069 0.31077 0.0
C71 C 0.01729 0.82584 0.1227 0.0
C72 C 0.02906 0.78277 0.21587 0.0
C73 C 0.96603 0.80211 0.19001 0.0
C74 C 0.99224 0.81392 0.37972 0.0
C75 C 0.9791 0.75894 0.2891 0.0
O76 O 0.03245 0.84403 0.28187 0.0
O77 O 0.01064 0.80843 0.12295 0.0
O78 O 0.03186 0.79033 0.26535 0.0
O79 O 0.97663 0.81596 0.22062 0.0
O80 O 0.99939 0.8036 0.3804 0.0
O81 O 0.97679 0.76319 0.23815 0.0
O82 O 0.99357 0.82393 0.3367 0.0
O83 O 0.97063 0.79071 0.17147 0.0
O84 O 0.99276 0.76954 0.32065 0.0
O85 O 0.01542 0.8346 0.1646 0.0
O86 O 0.03892 0.8246 0.32787 0.0
O87 O 0.01545 0.77975 0.18423 0.0
Sc88 Sc 0.22237 0.21179 0.18691 0.0
Sc89 Sc 0.21154 0.2227 0.32318 0.0
Sc90 Sc 0.18014 0.18137 0.25382 0.0
O91 O 0.20469 0.2053 0.25461 0.0
C92 C 0.18303 0.19674 0.1259 0.0
C93 C 0.22684 0.25106 0.21867 0.0
C94 C 0.16852 0.20843 0.31367 0.0
C95 C 0.24972 0.22422 0.29409 0.0
C96 C 0.20587 0.16827 0.19334 0.0
C97 C 0.19437 0.1829 0.38246 0.0
O98 O 0.20059 0.20659 0.12557 0.0
O99 O 0.21962 0.24668 0.26871 0.0
O100 O 0.16495 0.19391 0.28619 0.0
O101 O 0.24563 0.21801 0.24272 0.0
O102 O 0.1916 0.16523 0.22128 0.0
O103 O 0.20459 0.20039 0.3838 0.0
O104 O 0.21804 0.18433 0.17761 0.0
O105 O 0.2391 0.22726 0.3255 0.0
O106 O 0.18455 0.17431 0.33896 0.0
O107 O 0.2292 0.24004 0.18703 0.0
O108 O 0.17403 0.18671 0.16855 0.0
O109 O 0.1847 0.22011 0.32999 0.0
Sc110 Sc 0.82752 0.00471 0.25033 0.0
Sc111 Sc 0.79607 0.01403 0.17834 0.0
Sc112 Sc 0.78561 0.99421 0.31704 0.0
O113 O 0.80308 0.00429 0.24853 0.0
C114 C 0.80199 0.96698 0.31602 0.0
C115 C 0.81282 0.99076 0.12231 0.0
C116 C 0.75773 0.97807 0.2124 0.0
C117 C 0.8394 0.04249 0.18505 0.0
C118 C 0.8248 0.01881 0.37642 0.0
C119 C 0.78161 0.0289 0.27919 0.0
O120 O 0.81557 0.97724 0.28394 0.0
O121 O 0.80197 0.99728 0.12092 0.0
O122 O 0.76244 0.97613 0.26306 0.0
O123 O 0.84286 0.03221 0.21665 0.0
O124 O 0.80738 0.01198 0.37555 0.0
O125 O 0.78931 0.03137 0.23008 0.0
O126 O 0.83374 0.01656 0.33583 0.0
O127 O 0.82327 0.03761 0.16707 0.0
O128 O 0.77845 0.01544 0.31177 0.0
O129 O 0.82329 0.99293 0.16506 0.0
O130 O 0.79041 0.97154 0.33306 0.0
O131 O 0.76804 0.99162 0.18001 0.0
Sc132 Sc 0.67018 0.51302 0.07973 0.0
Sc133 Sc 0.68308 0.55544 0.14765 0.0
Sc134 Sc 0.66016 0.54472 0.01355 0.0
O135 O 0.67116 0.53773 0.08034 0.0
C136 C 0.68174 0.52732 0.95023 0.0
C137 C 0.70933 0.53793 0.13827 0.0
C138 C 0.69743 0.58263 0.0413 0.0
C139 C 0.65916 0.51646 0.20944 0.0
C140 C 0.63121 0.50174 0.02358 0.0
C141 C 0.64835 0.56043 0.11894 0.0
O142 O 0.68023 0.51681 0.99214 0.0
O143 O 0.70564 0.55004 0.15634 0.0
O144 O 0.68304 0.57246 0.01188 0.0
O145 O 0.66023 0.50743 0.16688 0.0
O146 O 0.63602 0.51778 0.00507 0.0
O147 O 0.66246 0.56361 0.14834 0.0
O148 O 0.64194 0.49815 0.05225 0.0
O149 O 0.66628 0.53394 0.20909 0.0
O150 O 0.64437 0.5521 0.07059 0.0
O151 O 0.69811 0.52417 0.10835 0.0
O152 O 0.67537 0.53829 0.95162 0.0
O153 O 0.70035 0.5782 0.09116 0.0
Sc154 Sc 0.49822 0.16149 0.08041 0.0
Sc155 Sc 0.45599 0.13263 0.1501 0.0
Sc156 Sc 0.46567 0.12002 0.01469 0.0
O157 O 0.47327 0.13806 0.08173 0.0
C158 C 0.48331 0.15917 0.95208 0.0
C159 C 0.47359 0.17624 0.13933 0.0
C160 C 0.4279 0.11923 0.0448 0.0
C161 C 0.49546 0.14746 0.21006 0.0
C162 C 0.50856 0.13343 0.02188 0.0
C163 C 0.45129 0.09298 0.12244 0.0
O164 O 0.49382 0.16799 0.99418 0.0
O165 O 0.46094 0.16049 0.15599 0.0
O166 O 0.43819 0.11566 0.01371 0.0
O167 O 0.50446 0.1567 0.16619 0.0
O168 O 0.49227 0.12216 0.00543 0.0
O169 O 0.44899 0.10426 0.15304 0.0
O170 O 0.51259 0.14798 0.04976 0.0
O171 O 0.47789 0.13821 0.21138 0.0
O172 O 0.45805 0.09679 0.07171 0.0
O173 O 0.48763 0.17851 0.11164 0.0
O174 O 0.47233 0.14181 0.95279 0.0
O175 O 0.43241 0.12607 0.09531 0.0
Sc176 Sc 0.84442 0.33783 0.08659 0.0
Sc177 Sc 0.87581 0.32656 0.1487 0.0
Sc178 Sc 0.8866 0.35099 0.01774 0.0
O179 O 0.86891 0.33844 0.08431 0.0
C180 C 0.84735 0.32704 0.95623 0.0
C181 C 0.83242 0.29864 0.14203 0.0
C182 C 0.89057 0.31526 0.0403 0.0
C183 C 0.86001 0.34925 0.21481 0.0
C184 C 0.86963 0.37748 0.03099 0.0
C185 C 0.9144 0.36326 0.12229 0.0
O186 O 0.83826 0.32767 0.99942 0.0
O187 O 0.84857 0.30285 0.15776 0.0
O188 O 0.8941 0.32995 0.01377 0.0
O189 O 0.84936 0.34798 0.1736 0.0
O190 O 0.88171 0.37391 0.01188 0.0
O191 O 0.90408 0.34838 0.14928 0.0
O192 O 0.85572 0.36587 0.05938 0.0
O193 O 0.8704 0.34217 0.21274 0.0
O194 O 0.90951 0.36756 0.07536 0.0
O195 O 0.82906 0.30978 0.11499 0.0
O196 O 0.86492 0.33481 0.9559 0.0
O197 O 0.8822 0.31074 0.08862 0.0
Sc198 Sc 0.65956 0.12042 0.51888 0.0
Sc199 Sc 0.68317 0.13173 0.65064 0.0
Sc200 Sc 0.67144 0.16249 0.58643 0.0
O201 O 0.6714 0.1383 0.58533 0.0
C202 C 0.68301 0.1593 0.45705 0.0
C203 C 0.69567 0.11748 0.54465 0.0
C204 C 0.7105 0.17537 0.64415 0.0
C205 C 0.64676 0.09301 0.62338 0.0
C206 C 0.63233 0.13675 0.52847 0.0
C207 C 0.6601 0.14712 0.71512 0.0
O208 O 0.67636 0.14189 0.45813 0.0
O209 O 0.70005 0.12653 0.59171 0.0
O210 O 0.69967 0.17844 0.61402 0.0
O211 O 0.64247 0.09801 0.57674 0.0
O212 O 0.64312 0.1503 0.55984 0.0
O213 O 0.66669 0.13633 0.71289 0.0
O214 O 0.63676 0.1254 0.5084 0.0
O215 O 0.66187 0.10312 0.6498 0.0
O216 O 0.66171 0.15803 0.67426 0.0
O217 O 0.68059 0.11274 0.51846 0.0
O218 O 0.68124 0.16833 0.49847 0.0
O219 O 0.70614 0.15934 0.66176 0.0
Sc220 Sc 0.88718 0.54355 0.51487 0.0
Sc221 Sc 0.87416 0.55233 0.65097 0.0
Sc222 Sc 0.84507 0.51091 0.57722 0.0
O223 O 0.86882 0.53561 0.58107 0.0
C224 C 0.84815 0.52697 0.4507 0.0
C225 C 0.88824 0.58124 0.54754 0.0
C226 C 0.83074 0.53546 0.63978 0.0
C227 C 0.91391 0.55712 0.62413 0.0
C228 C 0.87309 0.50054 0.51715 0.0
C229 C 0.85852 0.51214 0.70669 0.0
O230 O 0.86565 0.53698 0.45192 0.0
O231 O 0.88181 0.57662 0.59846 0.0
O232 O 0.82828 0.52128 0.61245 0.0
O233 O 0.91046 0.55148 0.57208 0.0
O234 O 0.85804 0.49653 0.5419 0.0
O235 O 0.86737 0.52969 0.71013 0.0
O236 O 0.88527 0.51702 0.50552 0.0
O237 O 0.9023 0.55849 0.65595 0.0
O238 O 0.84991 0.50352 0.66141 0.0
O239 O 0.89125 0.57087 0.51486 0.0
O240 O 0.83873 0.51673 0.49251 0.0
O241 O 0.8466 0.54819 0.65523 0.0
Sc242 Sc 0.4663 0.34822 0.51536 0.0
Sc243 Sc 0.457 0.32661 0.65205 0.0
Sc244 Sc 0.49863 0.33872 0.58045 0.0
O245 O 0.47394 0.33782 0.58259 0.0
C246 C 0.48329 0.32594 0.45295 0.0
C247 C 0.42828 0.31196 0.54777 0.0
C248 C 0.47353 0.29976 0.64177 0.0
C249 C 0.45311 0.36201 0.624 0.0
C250 C 0.50942 0.37716 0.52066 0.0
C251 C 0.49687 0.35067 0.7097 0.0
O252 O 0.4728 0.33289 0.45344 0.0
O253 O 0.43286 0.31018 0.5988 0.0
O254 O 0.48775 0.31138 0.61442 0.0
O255 O 0.45858 0.36396 0.57179 0.0
O256 O 0.51325 0.36626 0.54715 0.0
O257 O 0.47933 0.34229 0.71221 0.0
O258 O 0.49306 0.37264 0.5062 0.0
O259 O 0.45141 0.34896 0.65612 0.0
O260 O 0.5056 0.3505 0.66507 0.0
O261 O 0.43877 0.32523 0.51492 0.0
O262 O 0.49356 0.32714 0.49516 0.0
O263 O 0.46089 0.30303 0.65722 0.0
Sc264 Sc 0.34391 0.85078 0.40864 0.0
Sc265 Sc 0.35044 0.88875 0.49091 0.0
Sc266 Sc 0.32865 0.88019 0.35459 0.0
O267 O 0.34092 0.87321 0.41811 0.0
C268 C 0.3559 0.8704 0.28624 0.0
C269 C 0.3814 0.87776 0.47426 0.0
C270 C 0.36241 0.91933 0.39357 0.0
C271 C 0.32966 0.84728 0.53814 0.0
C272 C 0.30464 0.83645 0.34815 0.0
C273 C 0.31264 0.88874 0.46746 0.0
O274 O 0.35656 0.86035 0.32618 0.0
O275 O 0.37572 0.88802 0.495 0.0
O276 O 0.34918 0.90885 0.36035 0.0
O277 O 0.33159 0.84028 0.49166 0.0
O278 O 0.30654 0.85232 0.34066 0.0
O279 O 0.32646 0.89163 0.49786 0.0
O280 O 0.31709 0.8341 0.37099 0.0
O281 O 0.33608 0.86454 0.54477 0.0
O282 O 0.31086 0.88386 0.41468 0.0
O283 O 0.37138 0.86384 0.44316 0.0
O284 O 0.34578 0.87778 0.28839 0.0
O285 O 0.3654 0.91403 0.44185 0.0
Sc286 Sc 0.12269 0.46502 0.47835 0.0
Sc287 Sc 0.13252 0.45371 0.34089 0.0
Sc288 Sc 0.16392 0.4957 0.40735 0.0
O289 O 0.13969 0.47145 0.40885 0.0
C290 C 0.13815 0.50827 0.47099 0.0
C291 C 0.09382 0.45042 0.37452 0.0
C292 C 0.14801 0.49324 0.28066 0.0
C293 C 0.1199 0.42631 0.44806 0.0
C294 C 0.16281 0.48135 0.53533 0.0
C295 C 0.17593 0.46943 0.34428 0.0
O296 O 0.12586 0.49215 0.48582 0.0
O297 O 0.10453 0.44788 0.34191 0.0
O298 O 0.15806 0.5022 0.32336 0.0
O299 O 0.11765 0.43727 0.48041 0.0
O300 O 0.17135 0.49076 0.49115 0.0
O301 O 0.15969 0.45713 0.33046 0.0
O302 O 0.14527 0.4717 0.53792 0.0
O303 O 0.12563 0.43017 0.39617 0.0
O304 O 0.17928 0.48389 0.37159 0.0
O305 O 0.09848 0.4573 0.42499 0.0
O306 O 0.15247 0.51141 0.44324 0.0
O307 O 0.13819 0.47569 0.27995 0.0
Sc308 Sc 0.51215 0.67195 0.41624 0.0
Sc309 Sc 0.54244 0.66054 0.48556 0.0
Sc310 Sc 0.55492 0.68386 0.35282 0.0
O311 O 0.53646 0.6721 0.41815 0.0
C312 C 0.51656 0.6609 0.28713 0.0
C313 C 0.49908 0.6327 0.47287 0.0
C314 C 0.5585 0.64833 0.38272 0.0
C315 C 0.52571 0.68316 0.54648 0.0
C316 C 0.53842 0.71097 0.359 0.0
C317 C 0.58138 0.69701 0.46082 0.0
O318 O 0.50719 0.66224 0.32828 0.0
O319 O 0.51497 0.63709 0.49205 0.0
O320 O 0.56248 0.6628 0.35416 0.0
O321 O 0.51547 0.68176 0.50388 0.0
O322 O 0.55011 0.70666 0.34125 0.0
O323 O 0.57069 0.68241 0.48858 0.0
O324 O 0.52451 0.70017 0.38905 0.0
O325 O 0.53643 0.67646 0.54626 0.0
O326 O 0.57718 0.70073 0.41171 0.0
O327 O 0.49609 0.64369 0.4433 0.0
O328 O 0.53395 0.66752 0.28977 0.0
O329 O 0.5494 0.64418 0.42967 0.0
Sc330 Sc 0.34035 0.49816 0.91285 0.0
Sc331 Sc 0.32927 0.45567 0.84927 0.0
Sc332 Sc 0.35252 0.46842 0.98288 0.0
O333 O 0.34076 0.47411 0.91491 0.0
C334 C 0.37962 0.51192 0.97149 0.0
C335 C 0.35123 0.49436 0.78367 0.0
C336 C 0.36603 0.45404 0.87749 0.0
C337 C 0.30106 0.47072 0.85696 0.0
C338 C 0.32885 0.48427 0.04259 0.0
C339 C 0.31711 0.42893 0.95746 0.0
O340 O 0.36832 0.51469 0.94277 0.0
O341 O 0.34407 0.47689 0.78532 0.0
O342 O 0.36894 0.46145 0.9273 0.0
O343 O 0.31234 0.48547 0.88279 0.0
O344 O 0.33646 0.47435 0.0436 0.0
O345 O 0.31362 0.43279 0.90755 0.0
O346 O 0.3297 0.49399 0.99918 0.0
O347 O 0.30521 0.45865 0.84213 0.0
O348 O 0.33109 0.44011 0.98676 0.0
O349 O 0.35076 0.50378 0.82607 0.0
O350 O 0.37573 0.49602 0.98898 0.0
O351 O 0.35194 0.45046 0.84724 0.0
Sc352 Sc 0.55414 0.87863 0.84854 0.0
Sc353 Sc 0.542 0.8876 0.98606 0.0
Sc354 Sc 0.51017 0.849 0.90655 0.0
O355 O 0.53548 0.87174 0.91378 0.0
C356 C 0.51631 0.8678 0.78347 0.0
C357 C 0.55919 0.91775 0.88632 0.0
C358 C 0.49964 0.87575 0.97382 0.0
C359 C 0.57986 0.8882 0.95912 0.0
C360 C 0.53517 0.83501 0.84439 0.0
C361 C 0.52237 0.84626 0.03477 0.0
O362 O 0.53379 0.87504 0.7839 0.0
O363 O 0.55191 0.91276 0.93617 0.0
O364 O 0.49568 0.86164 0.94365 0.0
O365 O 0.57646 0.8835 0.90633 0.0
O366 O 0.52032 0.83257 0.86703 0.0
O367 O 0.53276 0.86363 0.04087 0.0
O368 O 0.54908 0.85092 0.83686 0.0
O369 O 0.56897 0.89064 0.99118 0.0
O370 O 0.51324 0.83893 0.98883 0.0
O371 O 0.56136 0.90705 0.8524 0.0
O372 O 0.506 0.85819 0.82479 0.0
O373 O 0.51583 0.88658 0.99201 0.0
Sc374 Sc 0.13243 0.6823 0.84264 0.0
Sc375 Sc 0.1219 0.66205 0.98053 0.0
Sc376 Sc 0.1631 0.67126 0.91151 0.0
O377 O 0.13916 0.67186 0.91155 0.0
C378 C 0.14738 0.65784 0.78415 0.0
C379 C 0.09365 0.64696 0.87696 0.0
C380 C 0.13699 0.63366 0.97665 0.0
C381 C 0.11869 0.69728 0.94457 0.0
C382 C 0.176 0.70942 0.84754 0.0
C383 C 0.16161 0.68549 0.03844 0.0
O384 O 0.13697 0.66487 0.78425 0.0
O385 O 0.09831 0.64444 0.92703 0.0
O386 O 0.15055 0.64358 0.94401 0.0
O387 O 0.12687 0.70025 0.89616 0.0
O388 O 0.17908 0.69892 0.87931 0.0
O389 O 0.1443 0.67953 0.03843 0.0
O390 O 0.16001 0.70504 0.82948 0.0
O391 O 0.11499 0.68347 0.97613 0.0
O392 O 0.16991 0.68261 0.99724 0.0
O393 O 0.10409 0.66064 0.84527 0.0
O394 O 0.15818 0.65976 0.82565 0.0
O395 O 0.12602 0.63887 0.99477 0.0
H396 H 0.03293 0.22174 0.54298 0.0
H397 H 0.05798 0.22718 0.47662 0.0
H398 H 0.05648 0.17793 0.53874 0.0
H399 H 0.03166 0.17241 0.6048 0.0
H400 H 0.09084 0.20846 0.54622 0.0
H401 H 0.04131 0.17895 0.40638 0.0
H402 H 0.01492 0.17578 0.34986 0.0
H403 H 0.04912 0.22937 0.27607 0.0
H404 H 0.07567 0.23296 0.33279 0.0
H405 H 0.1318 0.18598 0.2903 0.0
H406 H 0.10599 0.18796 0.33068 0.0
H407 H 0.14387 0.23903 0.41481 0.0
H408 H 0.16988 0.23705 0.37544 0.0
H409 H 0.09253 0.21172 0.33225 0.0
H410 H 0.128 0.23752 0.55043 0.0
H411 H 0.15356 0.23896 0.60767 0.0
H412 H 0.14559 0.18947 0.52616 0.0
H413 H 0.11992 0.18769 0.46878 0.0
C414 C 0.03764 0.21183 0.54147 0.0
C415 C 0.0304 0.19671 0.57956 0.0
C416 C 0.05198 0.215 0.50366 0.0
C417 C 0.05916 0.20303 0.50324 0.0
C418 C 0.05124 0.18742 0.53885 0.0
C419 C 0.03701 0.18427 0.5765 0.0
C420 C 0.07579 0.20724 0.46931 0.0
C421 C 0.09125 0.20933 0.49944 0.0
C422 C 0.07635 0.20849 0.4084 0.0
C423 C 0.06041 0.20631 0.3743 0.0
C424 C 0.04316 0.19013 0.3785 0.0
C425 C 0.02818 0.18824 0.34634 0.0
C426 C 0.03032 0.20239 0.30953 0.0
C427 C 0.04747 0.21844 0.30468 0.0
C428 C 0.06248 0.2204 0.33678 0.0
C429 C 0.13471 0.19778 0.31679 0.0
C430 C 0.15296 0.21113 0.33071 0.0
C431 C 0.1199 0.19895 0.33949 0.0
C432 C 0.12302 0.21347 0.37652 0.0
C433 C 0.14118 0.22756 0.38697 0.0
C434 C 0.15603 0.22638 0.36446 0.0
C435 C 0.1074 0.21258 0.40924 0.0
C436 C 0.0922 0.2112 0.37906 0.0
C437 C 0.10695 0.21182 0.47029 0.0
C438 C 0.12223 0.21262 0.50487 0.0
C439 C 0.13172 0.22696 0.54477 0.0
C440 C 0.14624 0.22785 0.57713 0.0
C441 C 0.15126 0.21437 0.57033 0.0
C442 C 0.14174 0.19994 0.53122 0.0
C443 C 0.12723 0.19901 0.49869 0.0
H444 H 0.16246 0.21505 0.59555 0.0
H445 H 0.01871 0.2009 0.28466 0.0
H446 H 0.81624 0.94749 0.26588 0.0
H447 H 0.8152 0.91959 0.3018 0.0
H448 H 0.78444 0.91994 0.45046 0.0
H449 H 0.78422 0.94704 0.41248 0.0
H450 H 0.83049 0.91552 0.3855 0.0
H451 H 0.76149 0.8788 0.51474 0.0
H452 H 0.72972 0.87312 0.50625 0.0
H453 H 0.73593 0.87996 0.32243 0.0
H454 H 0.76765 0.88543 0.32969 0.0
H455 H 0.83581 0.86553 0.61493 0.0
H456 H 0.8314 0.8852 0.54802 0.0
H457 H 0.78876 0.8374 0.46037 0.0
H458 H 0.79266 0.81733 0.52913 0.0
H459 H 0.77772 0.86134 0.47698 0.0
H460 H 0.83107 0.86501 0.39556 0.0
H461 H 0.86209 0.86851 0.39289 0.0
H462 H 0.88545 0.92362 0.4586 0.0
H463 H 0.85454 0.92037 0.46245 0.0
C464 C 0.80886 0.94135 0.30551 0.0
C465 C 0.80019 0.94938 0.33607 0.0
C466 C 0.80839 0.92548 0.32615 0.0
C467 C 0.79969 0.91752 0.37863 0.0
C468 C 0.79084 0.92544 0.40909 0.0
C469 C 0.79084 0.94105 0.38754 0.0
C470 C 0.80133 0.902 0.40348 0.0
C471 C 0.81886 0.90361 0.40495 0.0
C472 C 0.78615 0.88613 0.42767 0.0
C473 C 0.76701 0.88266 0.42286 0.0
C474 C 0.75605 0.879 0.47247 0.0
C475 C 0.73805 0.87584 0.46788 0.0
C476 C 0.73083 0.87623 0.41386 0.0
C477 C 0.74157 0.87973 0.36427 0.0
C478 C 0.75956 0.88288 0.36861 0.0
C479 C 0.82562 0.85906 0.58109 0.0
C480 C 0.81459 0.83976 0.57757 0.0
C481 C 0.82318 0.87041 0.54253 0.0
C482 C 0.80991 0.86282 0.49864 0.0
C483 C 0.79912 0.84356 0.49387 0.0
C484 C 0.80146 0.83211 0.53294 0.0
C485 C 0.8069 0.87525 0.46009 0.0
C486 C 0.7892 0.8731 0.45638 0.0
C487 C 0.82177 0.89031 0.43188 0.0
C488 C 0.84045 0.8924 0.42955 0.0
C489 C 0.84281 0.87784 0.40979 0.0
C490 C 0.86037 0.87978 0.40802 0.0
C491 C 0.87573 0.89627 0.42563 0.0
C492 C 0.87354 0.91086 0.44496 0.0
C493 C 0.856 0.90898 0.44685 0.0
H494 H 0.88931 0.89774 0.42424 0.0
H495 H 0.7169 0.87379 0.41041 0.0
H496 H 0.14657 0.97918 0.5924 0.0
H497 H 0.12706 0.95484 0.52494 0.0
H498 H 0.17357 0.94956 0.47243 0.0
H499 H 0.1934 0.97419 0.53981 0.0
H500 H 0.14801 0.94428 0.38013 0.0
H501 H 0.14815 0.9222 0.57329 0.0
H502 H 0.14534 0.92249 0.67932 0.0
H503 H 0.09002 0.91237 0.66213 0.0
H504 H 0.09257 0.91229 0.55606 0.0
H505 H 0.0709 0.83948 0.3711 0.0
H506 H 0.09918 0.86552 0.40899 0.0
H507 H 0.08512 0.90334 0.32938 0.0
H508 H 0.05682 0.87748 0.29101 0.0
H509 H 0.09842 0.89067 0.4846 0.0
H510 H 0.12729 0.94341 0.29534 0.0
H511 H 0.13044 0.94346 0.18949 0.0
H512 H 0.12782 0.89103 0.19734 0.0
H513 H 0.12499 0.89079 0.30326 0.0
C514 C 0.15279 0.97313 0.56575 0.0
C515 C 0.17149 0.97844 0.5721 0.0
C516 C 0.14161 0.95924 0.52713 0.0
C517 C 0.14882 0.95022 0.49453 0.0
C518 C 0.16776 0.95637 0.49737 0.0
C519 C 0.17905 0.97042 0.53591 0.0
C520 C 0.13611 0.9331 0.46309 0.0
C521 C 0.13718 0.93251 0.40274 0.0
C522 C 0.12224 0.91765 0.49295 0.0
C523 C 0.1206 0.91737 0.55676 0.0
C524 C 0.13544 0.92017 0.59213 0.0
C525 C 0.1339 0.92033 0.65218 0.0
C526 C 0.11756 0.91759 0.67724 0.0
C527 C 0.1027 0.91461 0.6425 0.0
C528 C 0.10416 0.91445 0.58246 0.0
C529 C 0.07392 0.85332 0.36076 0.0
C530 C 0.06148 0.85635 0.32823 0.0
C531 C 0.09013 0.86818 0.38236 0.0
C532 C 0.0943 0.88632 0.37138 0.0
C533 C 0.0823 0.88943 0.33728 0.0
C534 C 0.06606 0.8746 0.31578 0.0
C535 C 0.10991 0.90193 0.40128 0.0
C536 C 0.10935 0.90229 0.46168 0.0
C537 C 0.12417 0.91707 0.37124 0.0
C538 C 0.1258 0.91704 0.30738 0.0
C539 C 0.12749 0.93193 0.27457 0.0
C540 C 0.12926 0.93201 0.21453 0.0
C541 C 0.1294 0.91729 0.18674 0.0
C542 C 0.12774 0.90244 0.21893 0.0
C543 C 0.126 0.9023 0.27898 0.0
H544 H 0.13067 0.91733 0.14023 0.0
H545 H 0.11628 0.91745 0.7236 0.0
H546 H 0.21868 0.03236 0.96582 0.0
H547 H 0.22255 0.05671 0.03284 0.0
H548 H 0.17599 0.0572 0.95525 0.0
H549 H 0.17197 0.03303 0.88864 0.0
H550 H 0.20705 0.09129 0.95703 0.0
H551 H 0.17225 0.0403 0.08664 0.0
H552 H 0.16604 0.01272 0.14242 0.0
H553 H 0.21699 0.04417 0.23434 0.0
H554 H 0.22362 0.0719 0.17848 0.0
H555 H 0.18137 0.1316 0.21023 0.0
H556 H 0.18243 0.10546 0.16837 0.0
H557 H 0.23567 0.14234 0.0945 0.0
H558 H 0.23462 0.16869 0.13527 0.0
H559 H 0.20424 0.09021 0.17104 0.0
H560 H 0.23652 0.12749 0.95855 0.0
H561 H 0.24031 0.15393 0.90082 0.0
H562 H 0.19025 0.14782 0.97213 0.0
H563 H 0.1861 0.12126 0.02985 0.0
C564 C 0.20903 0.03738 0.96384 0.0
C565 C 0.19512 0.03084 0.92142 0.0
C566 C 0.21129 0.05131 0.00212 0.0
C567 C 0.19964 0.05883 0.99858 0.0
C568 C 0.18522 0.05168 0.95831 0.0
C569 C 0.18293 0.03781 0.9203 0.0
C570 C 0.2031 0.07506 0.03341 0.0
C571 C 0.20658 0.09109 0.00387 0.0
C572 C 0.2025 0.07477 0.09442 0.0
C573 C 0.19854 0.05811 0.12787 0.0
C574 C 0.18222 0.04129 0.11833 0.0
C575 C 0.1786 0.02564 0.15006 0.0
C576 C 0.19114 0.02668 0.19176 0.0
C577 C 0.2073 0.04338 0.20193 0.0
C578 C 0.21099 0.05907 0.17027 0.0
C579 C 0.19343 0.1342 0.18566 0.0
C580 C 0.20773 0.15231 0.17509 0.0
C581 C 0.19405 0.11919 0.16205 0.0
C582 C 0.20897 0.12198 0.12747 0.0
C583 C 0.22388 0.13992 0.12026 0.0
C584 C 0.22323 0.15496 0.14361 0.0
C585 C 0.20796 0.10633 0.09452 0.0
C586 C 0.20503 0.09048 0.12428 0.0
C587 C 0.20883 0.10664 0.03347 0.0
C588 C 0.21115 0.12258 0.99904 0.0
C589 C 0.22635 0.13182 0.96191 0.0
C590 C 0.22856 0.14683 0.92925 0.0
C591 C 0.21557 0.15261 0.93303 0.0
C592 C 0.20033 0.14338 0.96943 0.0
C593 C 0.19806 0.12837 0.00221 0.0
H594 H 0.21729 0.16419 0.9076 0.0
H595 H 0.18831 0.01455 0.2163 0.0
H596 H 0.87616 0.05635 0.20615 0.0
H597 H 0.90199 0.08429 0.16708 0.0
H598 H 0.86422 0.09755 0.08222 0.0
H599 H 0.83817 0.06929 0.12016 0.0
H600 H 0.88913 0.10012 0.0092 0.0
H601 H 0.89109 0.12324 0.19832 0.0
H602 H 0.89103 0.12243 0.30478 0.0
H603 H 0.94191 0.12171 0.30367 0.0
H604 H 0.94217 0.12226 0.1972 0.0
H605 H 0.97639 0.19337 0.96672 0.0
H606 H 0.9511 0.1736 0.03208 0.0
H607 H 0.95264 0.12598 0.96914 0.0
H608 H 0.97777 0.14544 0.90415 0.0
H609 H 0.94414 0.1455 0.11918 0.0
H610 H 0.90868 0.0952 0.92889 0.0
H611 H 0.90841 0.09608 0.82241 0.0
H612 H 0.92298 0.153 0.82725 0.0
H613 H 0.92298 0.15237 0.93369 0.0
C614 C 0.87327 0.06528 0.17979 0.0
C615 C 0.85503 0.06045 0.16604 0.0
C616 C 0.88811 0.08137 0.15777 0.0
C617 C 0.88508 0.09315 0.12214 0.0
C618 C 0.8669 0.08868 0.1097 0.0
C619 C 0.85201 0.07251 0.13147 0.0
C620 C 0.90088 0.10917 0.09394 0.0
C621 C 0.90103 0.11014 0.03343 0.0
C622 C 0.91638 0.12244 0.1255 0.0
C623 C 0.91657 0.12267 0.18965 0.0
C624 C 0.90223 0.12283 0.22074 0.0
C625 C 0.90217 0.12242 0.2811 0.0
C626 C 0.91641 0.12193 0.31091 0.0
C627 C 0.93086 0.12206 0.28048 0.0
C628 C 0.931 0.12246 0.22011 0.0
C629 C 0.97169 0.17876 0.96794 0.0
C630 C 0.97893 0.17095 0.92955 0.0
C631 C 0.95725 0.1675 0.00531 0.0
C632 C 0.94986 0.14834 0.00457 0.0
C633 C 0.95803 0.14073 0.96973 0.0
C634 C 0.97239 0.1519 0.93255 0.0
C635 C 0.93243 0.13593 0.03488 0.0
C636 C 0.93203 0.13564 0.09541 0.0
C637 C 0.91654 0.12342 0.0035 0.0
C638 C 0.91597 0.12376 0.93936 0.0
C639 C 0.9117 0.10787 0.90726 0.0
C640 C 0.91161 0.10833 0.84689 0.0
C641 C 0.91572 0.12459 0.81809 0.0
C642 C 0.91984 0.14042 0.8496 0.0
C643 C 0.91989 0.14001 0.90996 0.0
H644 H 0.91566 0.12493 0.77139 0.0
H645 H 0.91623 0.12142 0.35757 0.0
H646 H 0.81616 0.79055 0.97295 0.0
H647 H 0.83509 0.78679 0.04648 0.0
H648 H 0.88419 0.83017 0.96666 0.0
H649 H 0.86559 0.83439 0.89478 0.0
H650 H 0.85937 0.77613 0.03588 0.0
H651 H 0.91775 0.85321 0.05788 0.0
H652 H 0.9205 0.88389 0.06157 0.0
H653 H 0.86431 0.85951 0.11797 0.0
H654 H 0.86127 0.8287 0.11544 0.0
H655 H 0.94555 0.78487 0.0943 0.0
H656 H 0.91762 0.78432 0.0612 0.0
H657 H 0.91731 0.81296 0.21575 0.0
H658 H 0.94578 0.81433 0.24758 0.0
H659 H 0.91224 0.82879 0.13304 0.0
H660 H 0.88304 0.76618 0.18577 0.0
H661 H 0.87797 0.73463 0.19311 0.0
H662 H 0.87169 0.72846 0.00915 0.0
H663 H 0.87686 0.76004 0.00058 0.0
C664 C 0.83097 0.79955 0.97182 0.0
C665 C 0.83931 0.81282 0.92791 0.0
C666 C 0.84177 0.79729 0.01369 0.0
C667 C 0.86107 0.80832 0.01255 0.0
C668 C 0.86933 0.82176 0.96939 0.0
C669 C 0.85861 0.82409 0.92794 0.0
C670 C 0.87288 0.80524 0.05372 0.0
C671 C 0.87082 0.78759 0.05771 0.0
C672 C 0.88745 0.82005 0.08391 0.0
C673 C 0.88927 0.83861 0.08617 0.0
C674 C 0.90601 0.85439 0.07144 0.0
C675 C 0.90761 0.87181 0.07323 0.0
C676 C 0.89258 0.87364 0.08989 0.0
C677 C 0.87592 0.85806 0.10491 0.0
C678 C 0.87425 0.84061 0.10323 0.0
C679 C 0.93936 0.79079 0.12162 0.0
C680 C 0.94792 0.79975 0.17332 0.0
C681 C 0.92329 0.79036 0.10286 0.0
C682 C 0.91515 0.79843 0.13618 0.0
C683 C 0.92331 0.8067 0.18908 0.0
C684 C 0.93958 0.80747 0.20726 0.0
C685 C 0.89928 0.79981 0.11314 0.0
C686 C 0.90059 0.81719 0.11242 0.0
C687 C 0.88368 0.78461 0.0878 0.0
C688 C 0.88044 0.76554 0.09254 0.0
C689 C 0.88067 0.75814 0.14683 0.0
C690 C 0.87775 0.74023 0.15122 0.0
C691 C 0.87451 0.72955 0.10162 0.0
C692 C 0.87417 0.73675 0.04753 0.0
C693 C 0.87705 0.75464 0.0429 0.0
H694 H 0.87226 0.71569 0.10509 0.0
H695 H 0.89384 0.88714 0.09121 0.0
H696 H 0.84706 0.7868 0.59292 0.0
H697 H 0.87441 0.78601 0.56106 0.0
H698 H 0.90322 0.81505 0.71537 0.0
H699 H 0.87614 0.81658 0.74612 0.0
H700 H 0.92419 0.83058 0.63204 0.0
H701 H 0.89061 0.7684 0.68834 0.0
H702 H 0.86413 0.73691 0.69731 0.0
H703 H 0.86433 0.7294 0.51406 0.0
H704 H 0.89074 0.76092 0.50383 0.0
H705 H 0.98158 0.79129 0.47523 0.0
H706 H 0.95922 0.78807 0.54913 0.0
H707 H 0.95314 0.83085 0.46633 0.0
H708 H 0.97564 0.83455 0.39407 0.0
H709 H 0.92422 0.7773 0.53886 0.0
H710 H 0.94297 0.85451 0.55575 0.0
H711 H 0.97093 0.8852 0.55763 0.0
H712 H 0.00287 0.86117 0.61613 0.0
H713 H 0.97507 0.83036 0.61544 0.0
C714 C 0.85914 0.79279 0.62042 0.0
C715 C 0.85949 0.80188 0.67178 0.0
C716 C 0.87476 0.79221 0.6024 0.0
C717 C 0.8909 0.8003 0.63604 0.0
C718 C 0.891 0.80876 0.68849 0.0
C719 C 0.8755 0.80963 0.70602 0.0
C720 C 0.90813 0.80149 0.61374 0.0
C721 C 0.92421 0.81886 0.61229 0.0
C722 C 0.90847 0.78613 0.58962 0.0
C723 C 0.89261 0.7671 0.59532 0.0
C724 C 0.88495 0.76008 0.64989 0.0
C725 C 0.86998 0.74221 0.6552 0.0
C726 C 0.86256 0.73117 0.60627 0.0
C727 C 0.87013 0.73797 0.55192 0.0
C728 C 0.88513 0.75583 0.54636 0.0
C729 C 0.97577 0.80028 0.47353 0.0
C730 C 0.98048 0.81321 0.42865 0.0
C731 C 0.96291 0.79834 0.51562 0.0
C732 C 0.95462 0.80934 0.51371 0.0
C733 C 0.95961 0.82247 0.46963 0.0
C734 C 0.97246 0.82449 0.42796 0.0
C735 C 0.93986 0.80652 0.55495 0.0
C736 C 0.92427 0.7889 0.55983 0.0
C737 C 0.94016 0.82152 0.58404 0.0
C738 C 0.95692 0.84009 0.58527 0.0
C739 C 0.95593 0.85577 0.56941 0.0
C740 C 0.97176 0.8732 0.57016 0.0
C741 C 0.98867 0.87513 0.58689 0.0
C742 C 0.98977 0.85965 0.60303 0.0
C743 C 0.97398 0.8422 0.60239 0.0
H744 H 0.00091 0.88863 0.5874 0.0
H745 H 0.85095 0.71734 0.61047 0.0
H746 H 0.23498 0.07047 0.62498 0.0
H747 H 0.23701 0.09878 0.58803 0.0
H748 H 0.18348 0.08249 0.65962 0.0
H749 H 0.1815 0.05451 0.6977 0.0
H750 H 0.21614 0.10189 0.50994 0.0
H751 H 0.17884 0.11906 0.69032 0.0
H752 H 0.17552 0.11661 0.79621 0.0
H753 H 0.22778 0.11906 0.81118 0.0
H754 H 0.23155 0.12177 0.70537 0.0
H755 H 0.17187 0.14609 0.4009 0.0
H756 H 0.17734 0.1264 0.46546 0.0
H757 H 0.22485 0.17401 0.53636 0.0
H758 H 0.21963 0.19404 0.47115 0.0
H759 H 0.20177 0.14406 0.61963 0.0
H760 H 0.23488 0.15501 0.4416 0.0
H761 H 0.23817 0.1575 0.3357 0.0
H762 H 0.19703 0.10043 0.31827 0.0
H763 H 0.19325 0.09768 0.42413 0.0
C764 C 0.22374 0.07302 0.63357 0.0
C765 C 0.20805 0.06012 0.66422 0.0
C766 C 0.22492 0.08922 0.61236 0.0
C767 C 0.21049 0.09289 0.62151 0.0
C768 C 0.19499 0.08021 0.653 0.0
C769 C 0.19382 0.06409 0.67442 0.0
C770 C 0.21085 0.10913 0.59425 0.0
C771 C 0.21323 0.11122 0.53419 0.0
C772 C 0.20722 0.12148 0.62585 0.0
C773 C 0.2054 0.12048 0.68975 0.0
C774 C 0.1897 0.11922 0.71617 0.0
C775 C 0.18772 0.11774 0.77619 0.0
C776 C 0.20138 0.11758 0.81034 0.0
C777 C 0.21716 0.11909 0.78461 0.0
C778 C 0.21921 0.12058 0.7246 0.0
C779 C 0.1833 0.15251 0.4309 0.0
C780 C 0.19547 0.17167 0.43017 0.0
C781 C 0.18638 0.14119 0.46783 0.0
C782 C 0.20164 0.14875 0.50495 0.0
C783 C 0.21301 0.16795 0.50785 0.0
C784 C 0.20998 0.17936 0.47057 0.0
C785 C 0.20655 0.1363 0.53568 0.0
C786 C 0.20506 0.13491 0.59597 0.0
C787 C 0.21122 0.12469 0.50455 0.0
C788 C 0.2137 0.12617 0.44085 0.0
C789 C 0.22644 0.14302 0.4152 0.0
C790 C 0.2284 0.14448 0.35517 0.0
C791 C 0.2178 0.12914 0.32028 0.0
C792 C 0.20523 0.1123 0.34537 0.0
C793 C 0.20319 0.11078 0.4054 0.0
H794 H 0.21937 0.13029 0.27384 0.0
H795 H 0.19972 0.11626 0.85672 0.0
H796 H 0.85754 0.02499 0.42099 0.0
H797 H 0.8773 0.04902 0.4899 0.0
H798 H 0.83662 0.06592 0.5051 0.0
H799 H 0.81647 0.04155 0.43754 0.0
H800 H 0.87902 0.09305 0.46296 0.0
H801 H 0.83837 0.05376 0.61374 0.0
H802 H 0.82107 0.02434 0.66607 0.0
H803 H 0.87148 0.02458 0.70198 0.0
H804 H 0.88906 0.05387 0.649 0.0
H805 H 0.93593 0.16714 0.6466 0.0
H806 H 0.90806 0.14111 0.60664 0.0
H807 H 0.92853 0.10459 0.65119 0.0
H808 H 0.95612 0.13037 0.69274 0.0
H809 H 0.89304 0.08747 0.66765 0.0
H810 H 0.93358 0.12339 0.5143 0.0
H811 H 0.95263 0.15115 0.45587 0.0
H812 H 0.9049 0.15565 0.41716 0.0
H813 H 0.8856 0.12807 0.47619 0.0
C814 C 0.85263 0.03356 0.44001 0.0
C815 C 0.83548 0.0314 0.424 0.0
C816 C 0.8639 0.04722 0.47935 0.0
C817 C 0.85833 0.05912 0.50247 0.0
C818 C 0.84102 0.05672 0.48791 0.0
C819 C 0.82954 0.04277 0.44955 0.0
C820 C 0.87152 0.07519 0.53682 0.0
C821 C 0.88184 0.09203 0.50814 0.0
C822 C 0.87553 0.07349 0.59491 0.0
C823 C 0.865 0.0559 0.62681 0.0
C824 C 0.84575 0.04743 0.63219 0.0
C825 C 0.83589 0.03081 0.66213 0.0
C826 C 0.84516 0.02256 0.68718 0.0
C827 C 0.86431 0.03096 0.68248 0.0
C828 C 0.87423 0.04759 0.65254 0.0
C829 C 0.93443 0.15354 0.64844 0.0
C830 C 0.94841 0.15091 0.67213 0.0
C831 C 0.91849 0.13867 0.62543 0.0
C832 C 0.91637 0.12095 0.62474 0.0
C833 C 0.92987 0.11814 0.65096 0.0
C834 C 0.9457 0.13294 0.67456 0.0
C835 C 0.90068 0.10554 0.59388 0.0
C836 C 0.89001 0.08873 0.62289 0.0
C837 C 0.89659 0.10714 0.53548 0.0
C838 C 0.9082 0.12384 0.50045 0.0
C839 C 0.92718 0.13042 0.49389 0.0
C840 C 0.93802 0.14611 0.46061 0.0
C841 C 0.93 0.15523 0.43314 0.0
C842 C 0.91111 0.14864 0.43874 0.0
C843 C 0.90022 0.13298 0.47211 0.0
H844 H 0.93841 0.16733 0.40722 0.0
H845 H 0.83751 0.00969 0.71036 0.0
H846 H 0.78395 0.96993 0.04984 0.0
H847 H 0.78103 0.94578 0.98381 0.0
H848 H 0.8372 0.96032 0.02035 0.0
H849 H 0.83998 0.98394 0.08796 0.0
H850 H 0.79763 0.94193 0.88771 0.0
H851 H 0.84077 0.92403 0.03446 0.0
H852 H 0.85071 0.92708 0.13612 0.0
H853 H 0.80025 0.92405 0.19052 0.0
H854 H 0.79019 0.92128 0.08923 0.0
H855 H 0.82237 0.87672 0.77331 0.0
H856 H 0.82078 0.903 0.81228 0.0
H857 H 0.77824 0.86694 0.93062 0.0
H858 H 0.77966 0.84056 0.89202 0.0
H859 H 0.80893 0.89549 0.98336 0.0
H860 H 0.76745 0.88689 0.82809 0.0
H861 H 0.75765 0.88333 0.72627 0.0
H862 H 0.80317 0.93704 0.6877 0.0
H863 H 0.8134 0.94081 0.78917 0.0
C864 C 0.79579 0.96821 0.04294 0.0
C865 C 0.81212 0.97865 0.07471 0.0
C866 C 0.7941 0.95441 0.00513 0.0
C867 C 0.80876 0.95097 0.99812 0.0
C868 C 0.82556 0.96243 0.02616 0.0
C869 C 0.82715 0.97596 0.06468 0.0
C870 C 0.80595 0.93437 0.96634 0.0
C871 C 0.80011 0.93177 0.90849 0.0
C872 C 0.809 0.92099 0.99349 0.0
C873 C 0.81482 0.9226 0.05449 0.0
C874 C 0.83183 0.92403 0.06824 0.0
C875 C 0.83752 0.92579 0.12571 0.0
C876 C 0.82622 0.92593 0.16975 0.0
C877 C 0.80913 0.92419 0.15644 0.0
C878 C 0.80344 0.92258 0.09899 0.0
C879 C 0.81246 0.87431 0.80702 0.0
C880 C 0.80132 0.85654 0.83011 0.0
C881 C 0.81148 0.88934 0.82888 0.0
C882 C 0.79939 0.88688 0.87424 0.0
C883 C 0.78764 0.86908 0.89547 0.0
C884 C 0.78849 0.85402 0.87337 0.0
C885 C 0.8007 0.90302 0.90464 0.0
C886 C 0.80636 0.90558 0.96238 0.0
C887 C 0.79749 0.91624 0.87712 0.0
C888 C 0.79129 0.91406 0.81618 0.0
C889 C 0.77546 0.89788 0.79782 0.0
C890 C 0.76981 0.89584 0.74017 0.0
C891 C 0.77981 0.90993 0.70051 0.0
C892 C 0.79545 0.92612 0.71846 0.0
C893 C 0.80117 0.92823 0.77606 0.0
H894 H 0.77542 0.90832 0.65589 0.0
H895 H 0.83076 0.92737 0.21406 0.0
H896 H 0.16947 0.94161 0.88836 0.0
H897 H 0.14349 0.91394 0.92949 0.0
H898 H 0.10568 0.92298 0.82755 0.0
H899 H 0.13149 0.95073 0.78625 0.0
H900 H 0.11502 0.91579 0.99213 0.0
H901 H 0.06885 0.87668 0.79516 0.0
H902 H 0.07204 0.86966 0.69386 0.0
H903 H 0.12599 0.87811 0.7302 0.0
H904 H 0.12301 0.88486 0.8319 0.0
H905 H 0.02525 0.86014 0.08825 0.0
H906 H 0.04997 0.88086 0.02359 0.0
H907 H 0.0625 0.83787 0.9864 0.0
H908 H 0.03741 0.81683 0.05016 0.0
H909 H 0.06766 0.85968 0.89134 0.0
H910 H 0.08499 0.86849 0.0936 0.0
H911 H 0.08112 0.87434 0.1956 0.0
H912 H 0.08633 0.92634 0.14919 0.0
H913 H 0.08989 0.92066 0.04686 0.0
C914 C 0.15567 0.93761 0.87393 0.0
C915 C 0.1526 0.94851 0.83418 0.0
C916 C 0.14085 0.92178 0.89749 0.0
C917 C 0.12272 0.91638 0.88113 0.0
C918 C 0.11961 0.92682 0.84015 0.0
C919 C 0.1344 0.94274 0.81685 0.0
C920 C 0.10698 0.90109 0.91148 0.0
C921 C 0.10472 0.90347 0.97015 0.0
C922 C 0.09362 0.88504 0.88263 0.0
C923 C 0.09575 0.88144 0.82116 0.0
C924 C 0.08137 0.877 0.7816 0.0
C925 C 0.08312 0.87299 0.72414 0.0
C926 C 0.09917 0.87335 0.70568 0.0
C927 C 0.11354 0.8778 0.74459 0.0
C928 C 0.11186 0.88178 0.80212 0.0
C929 C 0.03299 0.85495 0.06534 0.0
C930 C 0.02953 0.83692 0.07487 0.0
C931 C 0.04715 0.86682 0.02852 0.0
C932 C 0.05836 0.86104 0.0014 0.0
C933 C 0.05407 0.84264 0.00725 0.0
C934 C 0.03971 0.83063 0.04363 0.0
C935 C 0.07549 0.87465 0.9716 0.0
C936 C 0.07802 0.87197 0.91324 0.0
C937 C 0.08919 0.89049 0.00064 0.0
C938 C 0.08752 0.89406 0.06249 0.0
C939 C 0.08518 0.88111 0.10511 0.0
C940 C 0.08299 0.88437 0.16296 0.0
C941 C 0.08332 0.90064 0.17869 0.0
C942 C 0.08596 0.91371 0.1368 0.0
C943 C 0.08808 0.91048 0.07893 0.0
H944 H 0.08171 0.90325 0.22334 0.0
H945 H 0.10052 0.87032 0.66112 0.0
H946 H 0.07126 0.23656 0.87286 0.0
H947 H 0.09976 0.23917 0.91057 0.0
H948 H 0.08358 0.18499 0.84491 0.0
H949 H 0.05541 0.18244 0.80597 0.0
H950 H 0.10312 0.21924 0.99135 0.0
H951 H 0.11999 0.17997 0.81747 0.0
H952 H 0.11694 0.17514 0.71214 0.0
H953 H 0.11928 0.2271 0.68943 0.0
H954 H 0.1226 0.2324 0.79462 0.0
H955 H 0.14631 0.17463 0.10518 0.0
H956 H 0.12715 0.18031 0.03901 0.0
H957 H 0.17535 0.22783 0.97106 0.0
H958 H 0.19489 0.2224 0.03811 0.0
H959 H 0.14522 0.20381 0.88586 0.0
H960 H 0.1562 0.23847 0.06122 0.0
H961 H 0.15856 0.24241 0.16696 0.0
H962 H 0.10146 0.20138 0.18461 0.0
H963 H 0.09883 0.19696 0.07896 0.0
C964 C 0.07388 0.2253 0.86568 0.0
C965 C 0.06096 0.20926 0.83645 0.0
C966 C 0.09019 0.22682 0.88733 0.0
C967 C 0.09395 0.21237 0.88012 0.0
C968 C 0.08124 0.19651 0.84999 0.0
C969 C 0.06502 0.19503 0.82805 0.0
C970 C 0.11029 0.21311 0.90813 0.0
C971 C 0.11245 0.21613 0.96796 0.0
C972 C 0.12262 0.20917 0.8777 0.0
C973 C 0.12142 0.20652 0.8141 0.0
C974 C 0.12002 0.19046 0.79002 0.0
C975 C 0.1182 0.18761 0.73034 0.0
C976 C 0.11781 0.20075 0.69419 0.0
C977 C 0.11948 0.21689 0.71755 0.0
C978 C 0.12132 0.21981 0.77723 0.0
C979 C 0.15299 0.18613 0.07561 0.0
C980 C 0.17217 0.19822 0.07766 0.0
C981 C 0.14197 0.18932 0.0377 0.0
C982 C 0.14983 0.2046 0.00082 0.0
C983 C 0.16906 0.21596 0.99938 0.0
C984 C 0.18018 0.21283 0.03769 0.0
C985 C 0.13758 0.20949 0.9687 0.0
C986 C 0.13612 0.20739 0.90856 0.0
C987 C 0.12596 0.21442 0.9986 0.0
C988 C 0.12735 0.21731 0.06213 0.0
C989 C 0.14417 0.2302 0.08765 0.0
C990 C 0.14556 0.23253 0.14757 0.0
C991 C 0.13017 0.22214 0.18247 0.0
C992 C 0.11336 0.20942 0.1575 0.0
C993 C 0.11191 0.20702 0.09758 0.0
H994 H 0.13127 0.22399 0.22883 0.0
H995 H 0.11619 0.19841 0.64808 0.0
H996 H 0.82931 0.56562 0.67915 0.0
H997 H 0.8024 0.56643 0.71625 0.0
H998 H 0.76823 0.50842 0.67974 0.0
H999 H 0.79484 0.50766 0.64069 0.0
H1000 H 0.74923 0.52451 0.65887 0.0
H1001 H 0.78669 0.52504 0.81666 0.0
H1002 H 0.81504 0.53634 0.87454 0.0
H1003 H 0.81722 0.5882 0.89873 0.0
H1004 H 0.78899 0.57728 0.84033 0.0
H1005 H 0.68749 0.50013 0.90824 0.0
H1006 H 0.71079 0.50358 0.83758 0.0
H1007 H 0.72644 0.56054 0.81299 0.0
H1008 H 0.70281 0.5571 0.88215 0.0
H1009 H 0.75441 0.54769 0.85901 0.0
H1010 H 0.71334 0.54367 0.70608 0.0
H1011 H 0.68381 0.52942 0.65333 0.0
H1012 H 0.6871 0.48043 0.62697 0.0
H1013 H 0.71653 0.49429 0.68035 0.0
C1014 C 0.81603 0.55308 0.67844 0.0
C1015 C 0.81429 0.53653 0.6575 0.0
C1016 C 0.80065 0.55355 0.69982 0.0
C1017 C 0.78333 0.53739 0.70192 0.0
C1018 C 0.78142 0.52106 0.6787 0.0
C1019 C 0.79671 0.52065 0.65654 0.0
C1020 C 0.76744 0.53714 0.73143 0.0
C1021 C 0.75038 0.52954 0.70268 0.0
C1022 C 0.76888 0.54381 0.78854 0.0
C1023 C 0.78587 0.55043 0.82354 0.0
C1024 C 0.7933 0.5389 0.83394 0.0
C1025 C 0.80933 0.54523 0.8669 0.0
C1026 C 0.81796 0.563 0.89014 0.0
C1027 C 0.81055 0.57446 0.88059 0.0
C1028 C 0.79453 0.56821 0.84758 0.0
C1029 C 0.69555 0.51324 0.88659 0.0
C1030 C 0.69333 0.52834 0.90069 0.0
C1031 C 0.7088 0.51517 0.84622 0.0
C1032 C 0.72022 0.53228 0.82012 0.0
C1033 C 0.71759 0.54719 0.83237 0.0
C1034 C 0.70406 0.54517 0.87174 0.0
C1035 C 0.73638 0.53511 0.78641 0.0
C1036 C 0.75343 0.54301 0.81477 0.0
C1037 C 0.73479 0.52836 0.72962 0.0
C1038 C 0.71704 0.51995 0.69785 0.0
C1039 C 0.70766 0.52977 0.68968 0.0
C1040 C 0.69097 0.52179 0.65948 0.0
C1041 C 0.68356 0.50401 0.63698 0.0
C1042 C 0.69285 0.49419 0.64451 0.0
C1043 C 0.70954 0.50211 0.67468 0.0
H1044 H 0.67064 0.49785 0.6136 0.0
H1045 H 0.83036 0.56787 0.91567 0.0
H1046 H 0.51059 0.19235 0.91326 0.0
H1047 H 0.50728 0.21326 0.8474 0.0
H1048 H 0.45042 0.17218 0.81772 0.0
H1049 H 0.45382 0.15092 0.88236 0.0
H1050 H 0.46536 0.19221 0.72118 0.0
H1051 H 0.46111 0.2046 0.91976 0.0
H1052 H 0.47067 0.21053 0.02191 0.0
H1053 H 0.52005 0.26012 0.97392 0.0
H1054 H 0.51095 0.25433 0.87139 0.0
H1055 H 0.44359 0.26841 0.68419 0.0
H1056 H 0.44329 0.2411 0.72405 0.0
H1057 H 0.50091 0.26474 0.68336 0.0
H1058 H 0.50135 0.29177 0.64243 0.0
H1059 H 0.48224 0.2519 0.81478 0.0
H1060 H 0.48597 0.23584 0.61188 0.0
H1061 H 0.47407 0.22915 0.51214 0.0
H1062 H 0.422 0.18575 0.57381 0.0
H1063 H 0.43356 0.19238 0.67405 0.0
C1064 C 0.49751 0.18761 0.89165 0.0
C1065 C 0.48241 0.1701 0.90345 0.0
C1066 C 0.4956 0.19959 0.85421 0.0
C1067 C 0.47846 0.19446 0.82897 0.0
C1068 C 0.46374 0.17646 0.83707 0.0
C1069 C 0.46571 0.16432 0.87394 0.0
C1070 C 0.47559 0.20845 0.79881 0.0
C1071 C 0.46892 0.20518 0.74186 0.0
C1072 C 0.47997 0.22532 0.826 0.0
C1073 C 0.48541 0.22895 0.88778 0.0
C1074 C 0.47407 0.21671 0.93094 0.0
C1075 C 0.4794 0.22005 0.98892 0.0
C1076 C 0.49597 0.23568 0.00435 0.0
C1077 C 0.50722 0.24801 0.96188 0.0
C1078 C 0.50198 0.24471 0.90383 0.0
C1079 C 0.45611 0.26766 0.68282 0.0
C1080 C 0.4725 0.28232 0.66025 0.0
C1081 C 0.45589 0.25204 0.70541 0.0
C1082 C 0.47206 0.25096 0.70613 0.0
C1083 C 0.48827 0.26531 0.68251 0.0
C1084 C 0.48846 0.28074 0.65917 0.0
C1085 C 0.47267 0.23586 0.73691 0.0
C1086 C 0.47872 0.2389 0.79432 0.0
C1087 C 0.46744 0.21875 0.71053 0.0
C1088 C 0.46053 0.21478 0.65042 0.0
C1089 C 0.47192 0.22503 0.60421 0.0
C1090 C 0.46526 0.22121 0.54758 0.0
C1091 C 0.44726 0.20709 0.53666 0.0
C1092 C 0.43592 0.19671 0.58234 0.0
C1093 C 0.44252 0.20049 0.63905 0.0
H1094 H 0.44213 0.20414 0.4928 0.0
H1095 H 0.50008 0.23827 0.04922 0.0
H1096 H 0.81047 0.31161 0.93563 0.0
H1097 H 0.79183 0.28681 0.86857 0.0
H1098 H 0.84081 0.28936 0.79957 0.0
H1099 H 0.8598 0.3143 0.8672 0.0
H1100 H 0.81105 0.28219 0.71436 0.0
H1101 H 0.82214 0.25862 0.88879 0.0
H1102 H 0.82476 0.25722 0.99449 0.0
H1103 H 0.7676 0.24083 0.01333 0.0
H1104 H 0.7647 0.2424 0.90769 0.0
H1105 H 0.73871 0.17487 0.70312 0.0
H1106 H 0.76668 0.20121 0.74142 0.0
H1107 H 0.7504 0.23821 0.66776 0.0
H1108 H 0.72275 0.21209 0.62814 0.0
H1109 H 0.76935 0.22441 0.81931 0.0
H1110 H 0.78679 0.28001 0.6407 0.0
H1111 H 0.78556 0.2814 0.5345 0.0
H1112 H 0.78893 0.23209 0.52051 0.0
H1113 H 0.79048 0.23054 0.6265 0.0
C1114 C 0.81742 0.30723 0.90554 0.0
C1115 C 0.83667 0.31484 0.90745 0.0
C1116 C 0.8067 0.29304 0.86715 0.0
C1117 C 0.81494 0.28613 0.8297 0.0
C1118 C 0.83422 0.29454 0.8282 0.0
C1119 C 0.84503 0.30879 0.86691 0.0
C1120 C 0.80311 0.26894 0.79725 0.0
C1121 C 0.80199 0.26948 0.73695 0.0
C1122 C 0.79174 0.25227 0.82689 0.0
C1123 C 0.79323 0.25075 0.89034 0.0
C1124 C 0.81015 0.25481 0.91549 0.0
C1125 C 0.81168 0.25398 0.97539 0.0
C1126 C 0.79636 0.24898 0.01063 0.0
C1127 C 0.77945 0.24471 0.98598 0.0
C1128 C 0.77785 0.24554 0.92607 0.0
C1129 C 0.74121 0.18862 0.69426 0.0
C1130 C 0.72839 0.1913 0.66264 0.0
C1131 C 0.75722 0.20369 0.71631 0.0
C1132 C 0.76077 0.22175 0.70723 0.0
C1133 C 0.74822 0.22447 0.67446 0.0
C1134 C 0.7323 0.20945 0.65206 0.0
C1135 C 0.77669 0.23765 0.73594 0.0
C1136 C 0.77856 0.23692 0.79601 0.0
C1137 C 0.78901 0.25396 0.7057 0.0
C1138 C 0.7886 0.25509 0.64172 0.0
C1139 C 0.7874 0.26953 0.615 0.0
C1140 C 0.78662 0.27033 0.55481 0.0
C1141 C 0.78709 0.2568 0.52082 0.0
C1142 C 0.78849 0.24252 0.54691 0.0
C1143 C 0.7893 0.24166 0.60705 0.0
H1144 H 0.78636 0.25736 0.4743 0.0
H1145 H 0.79759 0.24839 0.05701 0.0
H1146 H 0.84953 0.46358 0.5304 0.0
H1147 H 0.85278 0.43832 0.49251 0.0
H1148 H 0.90641 0.47705 0.42472 0.0
H1149 H 0.90309 0.50263 0.46151 0.0
H1150 H 0.88711 0.45329 0.34527 0.0
H1151 H 0.9015 0.44814 0.539 0.0
H1152 H 0.89827 0.44673 0.64493 0.0
H1153 H 0.84619 0.39669 0.63091 0.0
H1154 H 0.84895 0.39793 0.52483 0.0
H1155 H 0.88588 0.36208 0.30199 0.0
H1156 H 0.89305 0.38784 0.36747 0.0
H1157 H 0.8467 0.39103 0.30065 0.0
H1158 H 0.83922 0.36533 0.23621 0.0
H1159 H 0.87107 0.39592 0.45267 0.0
H1160 H 0.86612 0.43654 0.25626 0.0
H1161 H 0.87181 0.43875 0.15122 0.0
H1162 H 0.91039 0.4197 0.17384 0.0
H1163 H 0.90523 0.41773 0.27897 0.0
C1164 C 0.86215 0.46681 0.50805 0.0
C1165 C 0.87601 0.48521 0.49878 0.0
C1166 C 0.86405 0.45228 0.48675 0.0
C1167 C 0.87994 0.45573 0.45631 0.0
C1168 C 0.89404 0.47405 0.44822 0.0
C1169 C 0.89212 0.48865 0.46935 0.0
C1170 C 0.88094 0.44023 0.42887 0.0
C1171 C 0.88384 0.44087 0.36902 0.0
C1172 C 0.8771 0.42411 0.45992 0.0
C1173 C 0.87541 0.42318 0.52383 0.0
C1174 C 0.8893 0.43689 0.55845 0.0
C1175 C 0.88756 0.43612 0.61855 0.0
C1176 C 0.87203 0.42165 0.64463 0.0
C1177 C 0.85822 0.40789 0.61065 0.0
C1178 C 0.85988 0.4086 0.55052 0.0
C1179 C 0.8769 0.36791 0.30238 0.0
C1180 C 0.86211 0.36176 0.26318 0.0
C1181 C 0.88106 0.38265 0.33973 0.0
C1182 C 0.87058 0.39147 0.33793 0.0
C1183 C 0.85507 0.38451 0.30204 0.0
C1184 C 0.85082 0.36977 0.26524 0.0
C1185 C 0.87644 0.40889 0.36935 0.0
C1186 C 0.87474 0.40855 0.42954 0.0
C1187 C 0.88182 0.42545 0.33891 0.0
C1188 C 0.88514 0.42683 0.27557 0.0
C1189 C 0.87588 0.43291 0.23887 0.0
C1190 C 0.87902 0.43412 0.17929 0.0
C1191 C 0.89143 0.42934 0.1559 0.0
C1192 C 0.90075 0.42335 0.192 0.0
C1193 C 0.8977 0.42216 0.25158 0.0
H1194 H 0.89388 0.43031 0.10983 0.0
H1195 H 0.8707 0.42108 0.69116 0.0
H1196 H 0.50831 0.40319 0.45116 0.0
H1197 H 0.53458 0.43116 0.41244 0.0
H1198 H 0.5718 0.42025 0.51086 0.0
H1199 H 0.54575 0.39253 0.55044 0.0
H1200 H 0.58458 0.4571 0.50448 0.0
H1201 H 0.56116 0.40484 0.37529 0.0
H1202 H 0.53733 0.37946 0.31696 0.0
H1203 H 0.52917 0.41823 0.21848 0.0
H1204 H 0.55277 0.44381 0.27688 0.0
H1205 H 0.64883 0.48106 0.23714 0.0
H1206 H 0.62485 0.46103 0.30447 0.0
H1207 H 0.61852 0.50666 0.36007 0.0
H1208 H 0.64267 0.52701 0.29214 0.0
H1209 H 0.58967 0.4544 0.29177 0.0
H1210 H 0.60069 0.49452 0.50502 0.0
H1211 H 0.62616 0.51757 0.56505 0.0
H1212 H 0.66246 0.50006 0.49588 0.0
H1213 H 0.63717 0.47678 0.43602 0.0
C1214 C 0.52205 0.4069 0.46543 0.0
C1215 C 0.52491 0.39539 0.5031 0.0
C1216 C 0.53705 0.42291 0.44327 0.0
C1217 C 0.55515 0.42763 0.45817 0.0
C1218 C 0.55797 0.41687 0.49874 0.0
C1219 C 0.54301 0.40091 0.52094 0.0
C1220 C 0.57117 0.44235 0.4267 0.0
C1221 C 0.58564 0.45667 0.4579 0.0
C1222 C 0.57271 0.44155 0.36608 0.0
C1223 C 0.55854 0.4262 0.3309 0.0
C1224 C 0.55417 0.40793 0.34151 0.0
C1225 C 0.54072 0.39351 0.3084 0.0
C1226 C 0.5317 0.39722 0.26417 0.0
C1227 C 0.53614 0.41537 0.25286 0.0
C1228 C 0.54954 0.42983 0.28595 0.0
C1229 C 0.64262 0.48699 0.26433 0.0
C1230 C 0.64749 0.50559 0.25863 0.0
C1231 C 0.6289 0.47549 0.30281 0.0
C1232 C 0.61978 0.48231 0.3367 0.0
C1233 C 0.62544 0.50115 0.3343 0.0
C1234 C 0.63925 0.51276 0.29556 0.0
C1235 C 0.60316 0.46917 0.36942 0.0
C1236 C 0.58852 0.45511 0.33826 0.0
C1237 C 0.60173 0.47004 0.43001 0.0
C1238 C 0.61708 0.48409 0.46544 0.0
C1239 C 0.61411 0.4956 0.50262 0.0
C1240 C 0.62851 0.5087 0.53664 0.0
C1241 C 0.64593 0.51033 0.53409 0.0
C1242 C 0.64898 0.49886 0.49757 0.0
C1243 C 0.63463 0.48574 0.46347 0.0
H1244 H 0.65706 0.52045 0.56055 0.0
H1245 H 0.5213 0.38605 0.23855 0.0
H1246 H 0.61374 0.15162 0.58267 0.0
H1247 H 0.58544 0.15066 0.55119 0.0
H1248 H 0.58231 0.11736 0.40475 0.0
H1249 H 0.61014 0.11765 0.43734 0.0
H1250 H 0.57982 0.16474 0.4644 0.0
H1251 H 0.53956 0.09224 0.35177 0.0
H1252 H 0.53268 0.06042 0.36976 0.0
H1253 H 0.54344 0.0723 0.55051 0.0
H1254 H 0.55008 0.10409 0.53387 0.0
H1255 H 0.53278 0.16657 0.22339 0.0
H1256 H 0.55105 0.16295 0.29761 0.0
H1257 H 0.50152 0.12286 0.38442 0.0
H1258 H 0.48285 0.12598 0.30832 0.0
H1259 H 0.52469 0.1108 0.38103 0.0
H1260 H 0.52962 0.16621 0.44462 0.0
H1261 H 0.53369 0.19738 0.4377 0.0
H1262 H 0.58908 0.21845 0.37713 0.0
H1263 H 0.58529 0.18736 0.38305 0.0
C1264 C 0.60686 0.14385 0.54423 0.0
C1265 C 0.61426 0.13476 0.51239 0.0
C1266 C 0.59066 0.14332 0.52623 0.0
C1267 C 0.58156 0.13385 0.47569 0.0
C1268 C 0.58873 0.12441 0.44462 0.0
C1269 C 0.60477 0.12469 0.4631 0.0
C1270 C 0.56572 0.13528 0.45234 0.0
C1271 C 0.56769 0.15288 0.44679 0.0
C1272 C 0.54948 0.11979 0.4311 0.0
C1273 C 0.54548 0.10064 0.44143 0.0
C1274 C 0.54038 0.08806 0.39542 0.0
C1275 C 0.53653 0.07002 0.40538 0.0
C1276 C 0.53767 0.06436 0.46121 0.0
C1277 C 0.54263 0.07672 0.50724 0.0
C1278 C 0.54646 0.09476 0.49755 0.0
C1279 C 0.52563 0.15711 0.25846 0.0
C1280 C 0.50626 0.14659 0.2597 0.0
C1281 C 0.53618 0.15515 0.30132 0.0
C1282 C 0.52772 0.14287 0.34734 0.0
C1283 C 0.50837 0.13252 0.34954 0.0
C1284 C 0.49771 0.1344 0.30617 0.0
C1285 C 0.53941 0.14031 0.39054 0.0
C1286 C 0.53666 0.12255 0.3998 0.0
C1287 C 0.55461 0.15556 0.4171 0.0
C1288 C 0.55713 0.1744 0.41412 0.0
C1289 C 0.54264 0.17747 0.42957 0.0
C1290 C 0.5449 0.19513 0.42582 0.0
C1291 C 0.56161 0.20988 0.40687 0.0
C1292 C 0.57614 0.20701 0.39183 0.0
C1293 C 0.57396 0.18937 0.39552 0.0
H1294 H 0.56332 0.22354 0.40389 0.0
H1295 H 0.53469 0.05039 0.46881 0.0
H1296 H 0.54377 0.1504 0.06399 0.0
H1297 H 0.57005 0.14899 0.02449 0.0
H1298 H 0.53436 0.10821 0.90089 0.0
H1299 H 0.50792 0.1095 0.94002 0.0
H1300 H 0.57986 0.1213 1.00016 0.0
H1301 H 0.55641 0.12394 0.77018 0.0
H1302 H 0.53588 0.13237 0.71865 0.0
H1303 H 0.54454 0.17196 0.85041 0.0
H1304 H 0.56535 0.16398 0.90214 0.0
H1305 H 0.63976 0.11706 0.78361 0.0
H1306 H 0.6149 0.11241 0.84907 0.0
H1307 H 0.62821 0.16867 0.82189 0.0
H1308 H 0.65267 0.17325 0.75518 0.0
H1309 H 0.5933 0.14608 0.80055 0.0
H1310 H 0.63527 0.15264 0.95529 0.0
H1311 H 0.6563 0.1448 0.00629 0.0
H1312 H 0.61242 0.08891 0.02582 0.0
H1313 H 0.59117 0.0964 0.97451 0.0
C1314 C 0.54141 0.14087 0.02908 0.0
C1315 C 0.52379 0.1303 0.00445 0.0
C1316 C 0.55644 0.13997 0.00695 0.0
C1317 C 0.55414 0.12863 0.95953 0.0
C1318 C 0.53638 0.11711 0.93742 0.0
C1319 C 0.5213 0.11789 0.95979 0.0
C1320 C 0.57053 0.13087 0.92841 0.0
C1321 C 0.58281 0.12662 0.95642 0.0
C1322 C 0.57441 0.13798 0.87162 0.0
C1323 C 0.56223 0.14319 0.84033 0.0
C1324 C 0.55397 0.13448 0.788 0.0
C1325 C 0.54229 0.13919 0.75877 0.0
C1326 C 0.53885 0.15264 0.78136 0.0
C1327 C 0.54716 0.16149 0.83308 0.0
C1328 C 0.55889 0.15688 0.86238 0.0
C1329 C 0.63771 0.12859 0.79285 0.0
C1330 C 0.64807 0.1455 0.76397 0.0
C1331 C 0.62349 0.1259 0.83028 0.0
C1332 C 0.61965 0.14017 0.84021 0.0
C1333 C 0.63083 0.15742 0.81446 0.0
C1334 C 0.64484 0.16004 0.77652 0.0
C1335 C 0.60292 0.13674 0.87232 0.0
C1336 C 0.59043 0.14067 0.84422 0.0
C1337 C 0.599 0.12946 0.929 0.0
C1338 C 0.61167 0.12506 0.96083 0.0
C1339 C 0.63013 0.13867 0.9703 0.0
C1340 C 0.64208 0.13429 0.99929 0.0
C1341 C 0.6357 0.11637 0.01923 0.0
C1342 C 0.61733 0.1028 0.01043 0.0
C1343 C 0.60532 0.10711 0.98149 0.0
H1344 H 0.64499 0.11299 0.04154 0.0
H1345 H 0.52978 0.15624 0.75873 0.0
H1346 H 0.89142 0.40251 0.94922 0.0
H1347 H 0.89069 0.42989 0.91782 0.0
H1348 H 0.85075 0.42076 0.05014 0.0
H1349 H 0.85098 0.39299 0.08061 0.0
H1350 H 0.83897 0.4262 0.95624 0.0
H1351 H 0.89523 0.45899 0.0529 0.0
H1352 H 0.92651 0.46743 0.08521 0.0
H1353 H 0.94657 0.48228 0.91172 0.0
H1354 H 0.91532 0.47358 0.87809 0.0
H1355 H 0.87517 0.52428 0.81292 0.0
H1356 H 0.87732 0.50562 0.89088 0.0
H1357 H 0.84598 0.45659 0.78845 0.0
H1358 H 0.84334 0.47481 0.7118 0.0
H1359 H 0.89303 0.48531 0.89538 0.0
H1360 H 0.8199 0.42016 0.86511 0.0
H1361 H 0.78821 0.4133 0.84447 0.0
H1362 H 0.80128 0.46658 0.90838 0.0
H1363 H 0.83297 0.47368 0.9302 0.0
C1364 C 0.8827 0.40647 0.97229 0.0
C1365 C 0.8711 0.39542 0.01696 0.0
C1366 C 0.88239 0.42225 0.95453 0.0
C1367 C 0.87073 0.42751 0.98177 0.0
C1368 C 0.85977 0.41696 0.02818 0.0
C1369 C 0.85992 0.40106 0.04552 0.0
C1370 C 0.86861 0.4428 0.95766 0.0
C1371 C 0.8508 0.4392 0.9436 0.0
C1372 C 0.88395 0.46011 0.9431 0.0
C1373 C 0.90287 0.46553 0.96292 0.0
C1374 C 0.90628 0.46393 0.02152 0.0
C1375 C 0.92401 0.46878 0.04009 0.0
C1376 C 0.93852 0.47538 0.00053 0.0
C1377 C 0.93531 0.47717 0.94232 0.0
C1378 C 0.91759 0.4723 0.92349 0.0
C1379 C 0.86851 0.50948 0.8074 0.0
C1380 C 0.85899 0.50107 0.75606 0.0
C1381 C 0.86982 0.49886 0.85192 0.0
C1382 C 0.86158 0.47966 0.84594 0.0
C1383 C 0.85207 0.4713 0.79483 0.0
C1384 C 0.85065 0.48182 0.75072 0.0
C1385 C 0.86349 0.46816 0.89123 0.0
C1386 C 0.88122 0.47247 0.90926 0.0
C1387 C 0.84802 0.45178 0.91143 0.0
C1388 C 0.82887 0.44748 0.89907 0.0
C1389 C 0.81599 0.43037 0.87516 0.0
C1390 C 0.79803 0.42645 0.86314 0.0
C1391 C 0.79274 0.43951 0.87502 0.0
C1392 C 0.80541 0.4565 0.89906 0.0
C1393 C 0.82338 0.46049 0.91118 0.0
H1394 H 0.77884 0.43645 0.86564 0.0
H1395 H 0.95224 0.47913 0.01498 0.0
H1396 H 0.61075 0.46945 0.08189 0.0
H1397 H 0.58288 0.44203 0.04816 0.0
H1398 H 0.58299 0.4712 0.89447 0.0
H1399 H 0.61037 0.49889 0.92924 0.0
H1400 H 0.54874 0.44761 0.92267 0.0
H1401 H 0.60483 0.44499 0.89986 0.0
H1402 H 0.63318 0.44588 0.93382 0.0
H1403 H 0.60116 0.40009 0.04647 0.0
H1404 H 0.57263 0.3991 0.01362 0.0
H1405 H 0.53428 0.36981 0.72002 0.0
H1406 H 0.55261 0.39304 0.7911 0.0
H1407 H 0.50321 0.38201 0.88218 0.0
H1408 H 0.48448 0.35893 0.80937 0.0
H1409 H 0.55876 0.39436 0.90043 0.0
H1410 H 0.51048 0.42319 0.93951 0.0
H1411 H 0.48402 0.42336 0.89313 0.0
H1412 H 0.50378 0.41898 0.72625 0.0
H1413 H 0.53048 0.41903 0.77161 0.0
C1414 C 0.60461 0.47011 0.04143 0.0
C1415 C 0.6129 0.48621 0.00771 0.0
C1416 C 0.58869 0.45443 0.02219 0.0
C1417 C 0.58109 0.4544 0.96809 0.0
C1418 C 0.58861 0.47085 0.93628 0.0
C1419 C 0.60432 0.48667 0.95609 0.0
C1420 C 0.5668 0.43688 0.94155 0.0
C1421 C 0.55082 0.43589 0.91835 0.0
C1422 C 0.56955 0.42161 0.93529 0.0
C1423 C 0.58666 0.42211 0.95483 0.0
C1424 C 0.60387 0.43519 0.93213 0.0
C1425 C 0.61996 0.4357 0.95115 0.0
C1426 C 0.61898 0.42308 0.99241 0.0
C1427 C 0.6019 0.40988 0.01461 0.0
C1428 C 0.58577 0.40934 0.99581 0.0
C1429 C 0.5272 0.3721 0.75537 0.0
C1430 C 0.50784 0.3626 0.75844 0.0
C1431 C 0.53777 0.38539 0.79629 0.0
C1432 C 0.52931 0.38949 0.84159 0.0
C1433 C 0.51003 0.3793 0.847 0.0
C1434 C 0.49935 0.36602 0.80555 0.0
C1435 C 0.54091 0.40522 0.8803 0.0
C1436 C 0.5564 0.40588 0.90598 0.0
C1437 C 0.53799 0.42037 0.88701 0.0
C1438 C 0.52233 0.42089 0.85904 0.0
C1439 C 0.50921 0.42235 0.89292 0.0
C1440 C 0.49418 0.42239 0.86682 0.0
C1441 C 0.49219 0.42111 0.80682 0.0
C1442 C 0.50531 0.41991 0.77274 0.0
C1443 C 0.52039 0.4199 0.79862 0.0
H1444 H 0.48051 0.42108 0.78678 0.0
H1445 H 0.63145 0.4235 0.00708 0.0
H1446 H 0.50115 0.21216 0.13301 0.0
H1447 H 0.50127 0.23912 0.17309 0.0
H1448 H 0.44453 0.2054 0.22433 0.0
H1449 H 0.44427 0.17808 0.18515 0.0
H1450 H 0.45771 0.24456 0.172 0.0
H1451 H 0.46902 0.21094 0.32391 0.0
H1452 H 0.48493 0.19528 0.36349 0.0
H1453 H 0.53713 0.24488 0.34368 0.0
H1454 H 0.52152 0.26075 0.30318 0.0
H1455 H 0.45278 0.30167 0.39267 0.0
H1456 H 0.45026 0.27793 0.3259 0.0
H1457 H 0.50917 0.30036 0.3353 0.0
H1458 H 0.51148 0.32337 0.40475 0.0
H1459 H 0.49424 0.26647 0.35267 0.0
H1460 H 0.4845 0.30149 0.20824 0.0
H1461 H 0.47027 0.31805 0.16332 0.0
H1462 H 0.4177 0.26824 0.16197 0.0
H1463 H 0.43157 0.25143 0.20757 0.0
C1464 C 0.48856 0.21042 0.15196 0.0
C1465 C 0.47275 0.19286 0.15654 0.0
C1466 C 0.48868 0.2259 0.1747 0.0
C1467 C 0.47295 0.22418 0.20174 0.0
C1468 C 0.45678 0.20695 0.20336 0.0
C1469 C 0.45671 0.19136 0.18129 0.0
C1470 C 0.47416 0.23999 0.23384 0.0
C1471 C 0.46549 0.24932 0.21188 0.0
C1472 C 0.48477 0.2464 0.28478 0.0
C1473 C 0.49413 0.23696 0.30997 0.0
C1474 C 0.4839 0.21845 0.32756 0.0
C1475 C 0.49286 0.20955 0.35025 0.0
C1476 C 0.51204 0.21906 0.35592 0.0
C1477 C 0.52229 0.23752 0.33917 0.0
C1478 C 0.51339 0.24648 0.3164 0.0
C1479 C 0.46522 0.30178 0.37926 0.0
C1480 C 0.48233 0.3143 0.4038 0.0
C1481 C 0.4638 0.28822 0.34092 0.0
C1482 C 0.47954 0.28731 0.32514 0.0
C1483 C 0.49679 0.30062 0.34703 0.0
C1484 C 0.49814 0.31384 0.38645 0.0
C1485 C 0.47791 0.2715 0.29094 0.0
C1486 C 0.48648 0.26199 0.31268 0.0
C1487 C 0.46743 0.26518 0.23935 0.0
C1488 C 0.45905 0.27524 0.21183 0.0
C1489 C 0.46987 0.2941 0.19877 0.0
C1490 C 0.46188 0.30352 0.1731 0.0
C1491 C 0.44308 0.29421 0.15993 0.0
C1492 C 0.43225 0.27544 0.17225 0.0
C1493 C 0.44018 0.26595 0.19794 0.0
H1494 H 0.43691 0.30154 0.14007 0.0
H1495 H 0.51895 0.21214 0.37339 0.0
H1496 H 0.79595 0.28835 0.14018 0.0
H1497 H 0.77038 0.26091 0.18307 0.0
H1498 H 0.80698 0.2406 0.22727 0.0
H1499 H 0.83299 0.26837 0.18552 0.0
H1500 H 0.76413 0.21412 0.17398 0.0
H1501 H 0.80342 0.25331 0.33026 0.0
H1502 H 0.82234 0.28323 0.37866 0.0
H1503 H 0.77597 0.29189 0.38204 0.0
H1504 H 0.7569 0.26217 0.33245 0.0
H1505 H 0.70481 0.15067 0.39194 0.0
H1506 H 0.7296 0.17123 0.32694 0.0
H1507 H 0.71368 0.21255 0.34829 0.0
H1508 H 0.68945 0.19238 0.41528 0.0
H1509 H 0.74827 0.22713 0.36807 0.0
H1510 H 0.70835 0.18768 0.21647 0.0
H1511 H 0.68897 0.15804 0.16698 0.0
H1512 H 0.73528 0.14948 0.15442 0.0
H1513 H 0.75489 0.17898 0.20439 0.0
C1514 C 0.79861 0.27796 0.15809 0.0
C1515 C 0.81661 0.28071 0.16014 0.0
C1516 C 0.78394 0.26227 0.18246 0.0
C1517 C 0.78688 0.24888 0.20846 0.0
C1518 C 0.80452 0.25086 0.20727 0.0
C1519 C 0.81934 0.26676 0.1837 0.0
C1520 C 0.77187 0.23404 0.24228 0.0
C1521 C 0.76075 0.21675 0.21684 0.0
C1522 C 0.76736 0.23774 0.2975 0.0
C1523 C 0.77884 0.25568 0.32677 0.0
C1524 C 0.79735 0.26173 0.34047 0.0
C1525 C 0.80808 0.27863 0.36827 0.0
C1526 C 0.80039 0.2895 0.38315 0.0
C1527 C 0.78194 0.28349 0.3703 0.0
C1528 C 0.77116 0.26663 0.3423 0.0
C1529 C 0.70631 0.16396 0.38158 0.0
C1530 C 0.69524 0.16997 0.40883 0.0
C1531 C 0.72049 0.1757 0.3443 0.0
C1532 C 0.72355 0.19347 0.33256 0.0
C1533 C 0.71171 0.19898 0.357 0.0
C1534 C 0.6978 0.18742 0.39508 0.0
C1535 C 0.74004 0.20703 0.29969 0.0
C1536 C 0.75154 0.22424 0.3254 0.0
C1537 C 0.7448 0.20316 0.2448 0.0
C1538 C 0.73304 0.18547 0.21455 0.0
C1539 C 0.71437 0.17942 0.20346 0.0
C1540 C 0.70335 0.16266 0.17524 0.0
C1541 C 0.71089 0.15189 0.15759 0.0
C1542 C 0.72947 0.15786 0.16802 0.0
C1543 C 0.74054 0.1746 0.19625 0.0
H1544 H 0.70233 0.1389 0.13584 0.0
H1545 H 0.8087 0.30255 0.40487 0.0
H1546 H 0.81506 0.50082 0.40678 0.0
H1547 H 0.79601 0.50546 0.33592 0.0
H1548 H 0.83863 0.56214 0.31546 0.0
H1549 H 0.85802 0.55749 0.38497 0.0
H1550 H 0.79979 0.55271 0.35478 0.0
H1551 H 0.83331 0.54176 0.20657 0.0
H1552 H 0.84631 0.52456 0.15844 0.0
H1553 H 0.79201 0.47776 0.13894 0.0
H1554 H 0.7787 0.49458 0.1878 0.0
H1555 H 0.74137 0.56848 0.17282 0.0
H1556 H 0.76927 0.56953 0.20972 0.0
H1557 H 0.74423 0.51081 0.18412 0.0
H1558 H 0.71683 0.50987 0.14463 0.0
H1559 H 0.77829 0.5251 0.16085 0.0
H1560 H 0.74483 0.53165 0.3192 0.0
H1561 H 0.7298 0.54567 0.37442 0.0
H1562 H 0.78111 0.59673 0.38363 0.0
H1563 H 0.7964 0.58305 0.32784 0.0
C1564 C 0.82055 0.51413 0.38606 0.0
C1565 C 0.83801 0.52878 0.40129 0.0
C1566 C 0.80969 0.51675 0.34561 0.0
C1567 C 0.81598 0.53412 0.32062 0.0
C1568 C 0.83364 0.54861 0.33413 0.0
C1569 C 0.84471 0.5459 0.37359 0.0
C1570 C 0.8032 0.53752 0.28574 0.0
C1571 C 0.79536 0.54707 0.31177 0.0
C1572 C 0.79706 0.52956 0.23069 0.0
C1573 C 0.80503 0.51939 0.20135 0.0
C1574 C 0.82415 0.52774 0.19257 0.0
C1575 C 0.83158 0.51807 0.16502 0.0
C1576 C 0.82 0.50007 0.14576 0.0
C1577 C 0.80097 0.49171 0.15393 0.0
C1578 C 0.79347 0.50131 0.18149 0.0
C1579 C 0.74193 0.55585 0.17449 0.0
C1580 C 0.72684 0.53907 0.15624 0.0
C1581 C 0.75785 0.55644 0.19582 0.0
C1582 C 0.75875 0.54018 0.20096 0.0
C1583 C 0.74394 0.52356 0.18068 0.0
C1584 C 0.72821 0.52303 0.15822 0.0
C1585 C 0.77456 0.54013 0.23014 0.0
C1586 C 0.78292 0.5311 0.20334 0.0
C1587 C 0.78086 0.54814 0.28536 0.0
C1588 C 0.77169 0.55641 0.31874 0.0
C1589 C 0.75287 0.54591 0.33263 0.0
C1590 C 0.74431 0.55378 0.36408 0.0
C1591 C 0.75448 0.5721 0.38234 0.0
C1592 C 0.77324 0.58256 0.36933 0.0
C1593 C 0.78186 0.57476 0.33781 0.0
H1594 H 0.74783 0.57817 0.40672 0.0
H1595 H 0.82577 0.49261 0.12441 0.0
H1596 H 0.35063 0.8711 0.16894 0.0
H1597 H 0.37352 0.87683 0.09269 0.0
H1598 H 0.41437 0.88733 0.22322 0.0
H1599 H 0.39169 0.88113 0.2985 0.0
H1600 H 0.42703 0.91265 0.12264 0.0
H1601 H 0.3926 0.84636 0.17715 0.0
H1602 H 0.36324 0.81699 0.18529 0.0
H1603 H 0.35287 0.81918 0.0047 0.0
H1604 H 0.38211 0.8487 0.99576 0.0
H1605 H 0.49802 0.89464 0.06747 0.0
H1606 H 0.4721 0.898 0.09886 0.0
H1607 H 0.44142 0.86874 0.94722 0.0
H1608 H 0.46708 0.86454 0.91713 0.0
H1609 H 0.41992 0.85587 0.03151 0.0
H1610 H 0.45843 0.91695 0.96992 0.0
H1611 H 0.48684 0.94694 0.95796 0.0
H1612 H 0.48854 0.95664 0.14043 0.0
H1613 H 0.46031 0.92659 0.1537 0.0
C1614 C 0.36457 0.87485 0.18093 0.0
C1615 C 0.36941 0.87543 0.23927 0.0
C1616 C 0.37759 0.87816 0.13761 0.0
C1617 C 0.3956 0.88253 0.15256 0.0
C1618 C 0.40059 0.88408 0.21086 0.0
C1619 C 0.38758 0.88037 0.25374 0.0
C1620 C 0.40901 0.88364 0.109 0.0
C1621 C 0.42554 0.90034 0.10209 0.0
C1622 C 0.40668 0.86769 0.08074 0.0
C1623 C 0.3894 0.84977 0.08592 0.0
C1624 C 0.384 0.84061 0.13929 0.0
C1625 C 0.3674 0.82394 0.14403 0.0
C1626 C 0.35617 0.81625 0.09557 0.0
C1627 C 0.36157 0.82517 0.04221 0.0
C1628 C 0.37815 0.84185 0.03727 0.0
C1629 C 0.48585 0.88913 0.04042 0.0
C1630 C 0.48458 0.87928 0.98995 0.0
C1631 C 0.47104 0.89119 0.05815 0.0
C1632 C 0.45482 0.88393 0.02495 0.0
C1633 C 0.45374 0.8745 0.97363 0.0
C1634 C 0.46842 0.87211 0.95647 0.0
C1635 C 0.43856 0.88487 0.04668 0.0
C1636 C 0.42144 0.86847 0.04981 0.0
C1637 C 0.44027 0.90126 0.0704 0.0
C1638 C 0.45725 0.91944 0.0628 0.0
C1639 C 0.46492 0.92542 0.00757 0.0
C1640 C 0.48099 0.94244 0.00055 0.0
C1641 C 0.48949 0.95368 0.04841 0.0
C1642 C 0.48192 0.94793 0.10339 0.0
C1643 C 0.46586 0.93091 0.11067 0.0
H1644 H 0.50194 0.96686 0.04288 0.0
H1645 H 0.34331 0.80336 0.09934 0.0
H1646 H 0.17139 0.5294 0.25588 0.0
H1647 H 0.16573 0.54901 0.19157 0.0
H1648 H 0.11527 0.50189 0.13337 0.0
H1649 H 0.12079 0.48194 0.19817 0.0
H1650 H 0.13605 0.52934 0.0442 0.0
H1651 H 0.11014 0.52426 0.23198 0.0
H1652 H 0.11036 0.52418 0.33844 0.0
H1653 H 0.15389 0.58063 0.33944 0.0
H1654 H 0.1542 0.58095 0.23291 0.0
H1655 H 0.10938 0.60775 0.04484 0.0
H1656 H 0.10679 0.57942 0.08361 0.0
H1657 H 0.15652 0.59081 0.99403 0.0
H1658 H 0.15902 0.61886 0.95419 0.0
H1659 H 0.1294 0.57646 0.15465 0.0
H1660 H 0.15695 0.55178 0.9639 0.0
H1661 H 0.15607 0.55169 0.85746 0.0
H1662 H 0.10546 0.55291 0.86151 0.0
H1663 H 0.10587 0.55273 0.96797 0.0
C1664 C 0.15924 0.52306 0.22868 0.0
C1665 C 0.1464 0.50412 0.23287 0.0
C1666 C 0.15606 0.53432 0.19188 0.0
C1667 C 0.13994 0.52693 0.15856 0.0
C1668 C 0.12777 0.50783 0.15896 0.0
C1669 C 0.13096 0.49647 0.19597 0.0
C1670 C 0.13513 0.53957 0.1286 0.0
C1671 C 0.13446 0.53959 0.0681 0.0
C1672 C 0.13261 0.5526 0.16016 0.0
C1673 C 0.13227 0.55259 0.22435 0.0
C1674 C 0.11985 0.53662 0.25486 0.0
C1675 C 0.11988 0.53654 0.31523 0.0
C1676 C 0.13214 0.55239 0.34567 0.0
C1677 C 0.1444 0.56836 0.31579 0.0
C1678 C 0.14447 0.56851 0.25539 0.0
C1679 C 0.11964 0.60412 0.03271 0.0
C1680 C 0.13446 0.61568 0.99654 0.0
C1681 C 0.11814 0.58791 0.05498 0.0
C1682 C 0.13137 0.58288 0.04142 0.0
C1683 C 0.14593 0.59417 0.00428 0.0
C1684 C 0.14741 0.61032 0.98181 0.0
C1685 C 0.1309 0.56674 0.06978 0.0
C1686 C 0.13065 0.56608 0.13034 0.0
C1687 C 0.13227 0.55298 0.03814 0.0
C1688 C 0.13154 0.5524 0.97404 0.0
C1689 C 0.14555 0.55188 0.94214 0.0
C1690 C 0.14515 0.55192 0.88178 0.0
C1691 C 0.13077 0.5524 0.85279 0.0
C1692 C 0.11664 0.55263 0.88406 0.0
C1693 C 0.11696 0.55259 0.94442 0.0
H1694 H 0.1306 0.55263 0.80611 0.0
H1695 H 0.13211 0.5523 0.39239 0.0
H1696 H 0.39199 0.54856 0.95136 0.0
H1697 H 0.42002 0.57503 0.98837 0.0
H1698 H 0.43597 0.53849 0.06741 0.0
H1699 H 0.40799 0.51191 0.03057 0.0
H1700 H 0.43678 0.5622 0.14413 0.0
H1701 H 0.46245 0.56666 0.95877 0.0
H1702 H 0.46632 0.56871 0.85302 0.0
H1703 H 0.46211 0.61771 0.85117 0.0
H1704 H 0.45825 0.61598 0.957 0.0
H1705 H 0.52851 0.64582 0.2042 0.0
H1706 H 0.50939 0.62236 0.13276 0.0
H1707 H 0.46236 0.62679 0.18472 0.0
H1708 H 0.48116 0.65006 0.25602 0.0
H1709 H 0.48152 0.61854 0.03823 0.0
H1710 H 0.43561 0.58873 0.23186 0.0
H1711 H 0.43912 0.58929 0.33801 0.0
H1712 H 0.48992 0.58895 0.31875 0.0
H1713 H 0.48688 0.58878 0.21269 0.0
C1714 C 0.40156 0.54611 0.97592 0.0
C1715 C 0.39759 0.52803 0.98838 0.0
C1716 C 0.41768 0.5613 0.99671 0.0
C1717 C 0.43014 0.55876 0.03058 0.0
C1718 C 0.42655 0.54078 0.04137 0.0
C1719 C 0.41051 0.52558 0.02031 0.0
C1720 C 0.4457 0.57471 0.06 0.0
C1721 C 0.44658 0.57438 0.12054 0.0
C1722 C 0.45879 0.59062 0.0297 0.0
C1723 C 0.45993 0.59111 0.96578 0.0
C1724 C 0.46216 0.57777 0.93577 0.0
C1725 C 0.46453 0.57897 0.87588 0.0
C1726 C 0.46457 0.59339 0.84545 0.0
C1727 C 0.46216 0.60659 0.87483 0.0
C1728 C 0.45993 0.60554 0.93478 0.0
C1729 C 0.51422 0.64218 0.19931 0.0
C1730 C 0.50629 0.64961 0.23647 0.0
C1731 C 0.50336 0.62883 0.15831 0.0
C1732 C 0.4845 0.62284 0.15385 0.0
C1733 C 0.47692 0.63126 0.18769 0.0
C1734 C 0.48768 0.64449 0.22865 0.0
C1735 C 0.47202 0.60594 0.12135 0.0
C1736 C 0.47168 0.60618 0.06095 0.0
C1737 C 0.45978 0.5897 0.15124 0.0
C1738 C 0.46093 0.58857 0.21469 0.0
C1739 C 0.44742 0.58861 0.25042 0.0
C1740 C 0.44944 0.58907 0.31045 0.0
C1741 C 0.46471 0.58911 0.33499 0.0
C1742 C 0.47809 0.58888 0.29965 0.0
C1743 C 0.47627 0.58869 0.23967 0.0
H1744 H 0.46612 0.58913 0.38135 0.0
H1745 H 0.46634 0.59425 0.79906 0.0
H1746 H 0.50625 0.80043 0.82553 0.0
H1747 H 0.50708 0.77361 0.78947 0.0
H1748 H 0.5665 0.80508 0.78364 0.0
H1749 H 0.56573 0.83235 0.81781 0.0
H1750 H 0.55496 0.78626 0.69058 0.0
H1751 H 0.54219 0.77041 0.88751 0.0
H1752 H 0.52688 0.76603 0.98174 0.0
H1753 H 0.47563 0.72478 0.90824 0.0
H1754 H 0.49055 0.72911 0.81328 0.0
H1755 H 0.55512 0.70379 0.61687 0.0
H1756 H 0.55877 0.72812 0.68344 0.0
H1757 H 0.5025 0.71405 0.65195 0.0
H1758 H 0.49884 0.68997 0.5844 0.0
H1759 H 0.51649 0.72388 0.7744 0.0
H1760 H 0.53069 0.74523 0.57353 0.0
H1761 H 0.5476 0.74949 0.48248 0.0
H1762 H 0.59907 0.78047 0.572 0.0
H1763 H 0.58244 0.77618 0.66383 0.0
C1764 C 0.51954 0.80167 0.81707 0.0
C1765 C 0.53594 0.81857 0.82471 0.0
C1766 C 0.52 0.78623 0.79677 0.0
C1767 C 0.53687 0.78714 0.78487 0.0
C1768 C 0.55331 0.80398 0.79273 0.0
C1769 C 0.55285 0.81956 0.81229 0.0
C1770 C 0.53713 0.77075 0.76121 0.0
C1771 C 0.54686 0.77272 0.70985 0.0
C1772 C 0.52654 0.75297 0.78593 0.0
C1773 C 0.51749 0.75018 0.84309 0.0
C1774 C 0.52763 0.76048 0.89131 0.0
C1775 C 0.51902 0.758 0.94489 0.0
C1776 C 0.50029 0.74516 0.95095 0.0
C1777 C 0.49014 0.73473 0.90347 0.0
C1778 C 0.49867 0.73718 0.84976 0.0
C1779 C 0.54337 0.70553 0.62534 0.0
C1780 C 0.52671 0.69503 0.59522 0.0
C1781 C 0.5455 0.71946 0.66322 0.0
C1782 C 0.53092 0.72288 0.67227 0.0
C1783 C 0.51388 0.71155 0.64558 0.0
C1784 C 0.51183 0.69786 0.6069 0.0
C1785 C 0.53396 0.73954 0.7038 0.0
C1786 C 0.52483 0.73755 0.75627 0.0
C1787 C 0.54538 0.75735 0.68088 0.0
C1788 C 0.55534 0.76022 0.62556 0.0
C1789 C 0.54561 0.75284 0.57385 0.0
C1790 C 0.55514 0.75527 0.5221 0.0
C1791 C 0.57439 0.76519 0.52146 0.0
C1792 C 0.58416 0.77276 0.57257 0.0
C1793 C 0.57469 0.77035 0.62447 0.0
H1794 H 0.58174 0.76704 0.48135 0.0
H1795 H 0.49366 0.74326 0.99246 0.0
H1796 H 0.31295 0.80965 0.53993 0.0
H1797 H 0.2889 0.7886 0.60548 0.0
H1798 H 0.29488 0.83466 0.7057 0.0
H1799 H 0.31877 0.85595 0.63956 0.0
H1800 H 0.28473 0.78013 0.71687 0.0
H1801 H 0.25235 0.8265 0.74141 0.0
H1802 H 0.25231 0.85213 0.68875 0.0
H1803 H 0.26103 0.83172 0.52886 0.0
H1804 H 0.26087 0.80588 0.58036 0.0
H1805 H 0.20935 0.72981 0.90074 0.0
H1806 H 0.23694 0.75633 0.86142 0.0
H1807 H 0.20667 0.75418 0.70797 0.0
H1808 H 0.17884 0.72825 0.74833 0.0
H1809 H 0.23001 0.78819 0.72914 0.0
H1810 H 0.2338 0.73289 0.71725 0.0
H1811 H 0.23347 0.70518 0.75486 0.0
H1812 H 0.27956 0.73897 0.86459 0.0
H1813 H 0.28001 0.76687 0.82809 0.0
C1814 C 0.30942 0.81537 0.5764 0.0
C1815 C 0.31765 0.83455 0.58387 0.0
C1816 C 0.29568 0.80327 0.61402 0.0
C1817 C 0.28988 0.81007 0.65987 0.0
C1818 C 0.29895 0.82913 0.66999 0.0
C1819 C 0.31268 0.84128 0.63222 0.0
C1820 C 0.27332 0.79725 0.69362 0.0
C1821 C 0.27284 0.78199 0.72017 0.0
C1822 C 0.25762 0.79941 0.69644 0.0
C1823 C 0.2568 0.81439 0.66487 0.0
C1824 C 0.25412 0.82743 0.69498 0.0
C1825 C 0.25416 0.842 0.66534 0.0
C1826 C 0.25675 0.84359 0.60556 0.0
C1827 C 0.25909 0.83051 0.57518 0.0
C1828 C 0.25903 0.81591 0.60456 0.0
C1829 C 0.20852 0.7352 0.85901 0.0
C1830 C 0.19199 0.72683 0.8273 0.0
C1831 C 0.22431 0.75031 0.83647 0.0
C1832 C 0.22404 0.75699 0.78105 0.0
C1833 C 0.20728 0.74927 0.75073 0.0
C1834 C 0.19137 0.73441 0.77379 0.0
C1835 C 0.24138 0.771 0.75279 0.0
C1836 C 0.24201 0.78649 0.727 0.0
C1837 C 0.25698 0.76866 0.74867 0.0
C1838 C 0.25681 0.75193 0.77043 0.0
C1839 C 0.24379 0.73439 0.74966 0.0
C1840 C 0.24359 0.71866 0.77074 0.0
C1841 C 0.25645 0.72031 0.81221 0.0
C1842 C 0.26958 0.73771 0.83255 0.0
C1843 C 0.26982 0.75348 0.81167 0.0
H1844 H 0.25628 0.70812 0.82848 0.0
H1845 H 0.25695 0.85494 0.58271 0.0
H1846 H 0.15194 0.45622 0.62432 0.0
H1847 H 0.17211 0.45209 0.6922 0.0
H1848 H 0.21936 0.4999 0.62094 0.0
H1849 H 0.19953 0.50418 0.55361 0.0
H1850 H 0.22327 0.46948 0.62017 0.0
H1851 H 0.20457 0.50165 0.75249 0.0
H1852 H 0.18212 0.50638 0.80774 0.0
H1853 H 0.16304 0.45451 0.89337 0.0
H1854 H 0.18521 0.44935 0.83797 0.0
H1855 H 0.28762 0.49407 0.8767 0.0
H1856 H 0.26016 0.49247 0.83478 0.0
H1857 H 0.24564 0.44027 0.75631 0.0
H1858 H 0.27328 0.44185 0.79729 0.0
H1859 H 0.22298 0.46969 0.83437 0.0
H1860 H 0.23108 0.44065 0.61931 0.0
H1861 H 0.25477 0.43829 0.56269 0.0
H1862 H 0.29707 0.48809 0.64066 0.0
H1863 H 0.27361 0.49081 0.69731 0.0
C1864 C 0.16658 0.46609 0.62404 0.0
C1865 C 0.17413 0.48043 0.58311 0.0
C1866 C 0.17808 0.46368 0.66275 0.0
C1867 C 0.19724 0.47559 0.66116 0.0
C1868 C 0.20463 0.49044 0.62249 0.0
C1869 C 0.19323 0.49287 0.58406 0.0
C1870 C 0.20995 0.47205 0.69628 0.0
C1871 C 0.22308 0.46937 0.66703 0.0
C1872 C 0.20971 0.47191 0.75733 0.0
C1873 C 0.19638 0.47501 0.79056 0.0
C1874 C 0.19546 0.49116 0.78267 0.0
C1875 C 0.18281 0.49395 0.81411 0.0
C1876 C 0.17112 0.48073 0.8539 0.0
C1877 C 0.17208 0.46472 0.86245 0.0
C1878 C 0.18469 0.46186 0.83107 0.0
C1879 C 0.2785 0.4821 0.85117 0.0
C1880 C 0.28292 0.46827 0.83937 0.0
C1881 C 0.26271 0.48116 0.82753 0.0
C1882 C 0.25103 0.46642 0.79158 0.0
C1883 C 0.25463 0.45192 0.78322 0.0
C1884 C 0.27046 0.45286 0.80672 0.0
C1885 C 0.23639 0.46733 0.75813 0.0
C1886 C 0.2229 0.46946 0.78754 0.0
C1887 C 0.23639 0.4672 0.69702 0.0
C1888 C 0.25062 0.46578 0.66305 0.0
C1889 C 0.24544 0.45108 0.62435 0.0
C1890 C 0.25883 0.44967 0.59233 0.0
C1891 C 0.27743 0.46298 0.5983 0.0
C1892 C 0.28267 0.47775 0.63625 0.0
C1893 C 0.26934 0.47921 0.6684 0.0
H1894 H 0.28776 0.46189 0.57336 0.0
H1895 H 0.16134 0.48291 0.87822 0.0
H1896 H 0.17537 0.44024 0.28805 0.0
H1897 H 0.2018 0.43832 0.25172 0.0
H1898 H 0.23869 0.49243 0.32026 0.0
H1899 H 0.21259 0.49427 0.35785 0.0
H1900 H 0.22528 0.4587 0.17271 0.0
H1901 H 0.28019 0.49839 0.35056 0.0
H1902 H 0.28134 0.50232 0.45624 0.0
H1903 H 0.23247 0.44947 0.47431 0.0
H1904 H 0.23113 0.44508 0.36873 0.0
H1905 H 0.31303 0.50549 0.06047 0.0
H1906 H 0.28778 0.49915 0.1257 0.0
H1907 H 0.2908 0.4534 0.19847 0.0
H1908 H 0.31617 0.45951 0.13265 0.0
H1909 H 0.28283 0.47575 0.28083 0.0
H1910 H 0.26111 0.44154 0.10484 0.0
H1911 H 0.25988 0.43753 0.99918 0.0
H1912 H 0.2413 0.47658 0.97988 0.0
H1913 H 0.24274 0.48109 0.08547 0.0
C1914 C 0.18913 0.45161 0.29613 0.0
C1915 C 0.1918 0.46743 0.32577 0.0
C1916 C 0.20422 0.4505 0.27531 0.0
C1917 C 0.22227 0.46513 0.2838 0.0
C1918 C 0.22496 0.48076 0.31428 0.0
C1919 C 0.20994 0.48184 0.33539 0.0
C1920 C 0.23822 0.46493 0.25655 0.0
C1921 C 0.23774 0.46217 0.19664 0.0
C1922 C 0.25448 0.46927 0.28776 0.0
C1923 C 0.2555 0.47147 0.35155 0.0
C1924 C 0.26977 0.48752 0.37705 0.0
C1925 C 0.27043 0.48986 0.43694 0.0
C1926 C 0.25694 0.4762 0.4719 0.0
C1927 C 0.24285 0.46008 0.44711 0.0
C1928 C 0.24213 0.45767 0.38722 0.0
C1929 C 0.30865 0.49428 0.09101 0.0
C1930 C 0.31649 0.48283 0.09061 0.0
C1931 C 0.2942 0.4907 0.12831 0.0
C1932 C 0.28729 0.47565 0.16611 0.0
C1933 C 0.29596 0.46505 0.16936 0.0
C1934 C 0.31046 0.46859 0.13173 0.0
C1935 C 0.26989 0.4701 0.19733 0.0
C1936 C 0.27016 0.47186 0.25754 0.0
C1937 C 0.25333 0.46461 0.16667 0.0
C1938 C 0.25214 0.46173 0.10313 0.0
C1939 C 0.25689 0.44937 0.07808 0.0
C1940 C 0.25614 0.447 0.01819 0.0
C1941 C 0.25052 0.4568 0.98286 0.0
C1942 C 0.24564 0.469 0.00734 0.0
C1943 C 0.2464 0.47145 0.06723 0.0
H1944 H 0.24989 0.45488 0.93654 0.0
H1945 H 0.25739 0.47813 0.51818 0.0
H1946 H 0.5225 0.72951 0.40665 0.0
H1947 H 0.5216 0.75598 0.36621 0.0
H1948 H 0.556 0.75783 0.22482 0.0
H1949 H 0.55772 0.732 0.26653 0.0
H1950 H 0.56411 0.79106 0.24818 0.0
H1951 H 0.50755 0.7341 0.21653 0.0
H1952 H 0.47988 0.70512 0.24526 0.0
H1953 H 0.46119 0.73557 0.34631 0.0
H1954 H 0.48889 0.76473 0.31871 0.0
H1955 H 0.50432 0.8086 0.03417 0.0
H1956 H 0.50795 0.78844 0.10178 0.0
H1957 H 0.54381 0.83531 0.20728 0.0
H1958 H 0.54066 0.85577 0.13879 0.0
H1959 H 0.50088 0.77941 0.20974 0.0
H1960 H 0.57799 0.8282 0.26282 0.0
H1961 H 0.60563 0.85423 0.2191 0.0
H1962 H 0.58282 0.83585 0.04991 0.0
H1963 H 0.55521 0.80956 0.09252 0.0
C1964 C 0.53017 0.73579 0.36754 0.0
C1965 C 0.54001 0.72853 0.33945 0.0
C1966 C 0.52957 0.75088 0.34432 0.0
C1967 C 0.53833 0.75862 0.29163 0.0
C1968 C 0.54907 0.75208 0.2654 0.0
C1969 C 0.55 0.73725 0.28925 0.0
C1970 C 0.53511 0.77238 0.26122 0.0
C1971 C 0.55029 0.7886 0.2403 0.0
C1972 C 0.51707 0.76903 0.24971 0.0
C1973 C 0.50037 0.75155 0.26611 0.0
C1974 C 0.49758 0.73459 0.24517 0.0
C1975 C 0.4819 0.71815 0.26121 0.0
C1976 C 0.46881 0.7185 0.29773 0.0
C1977 C 0.47136 0.73532 0.31813 0.0
C1978 C 0.48704 0.7518 0.30229 0.0
C1979 C 0.51281 0.81468 0.07207 0.0
C1980 C 0.52234 0.83388 0.08062 0.0
C1981 C 0.51484 0.80308 0.11085 0.0
C1982 C 0.52637 0.81037 0.15918 0.0
C1983 C 0.5351 0.82941 0.16972 0.0
C1984 C 0.53318 0.84108 0.13065 0.0
C1985 C 0.52987 0.79803 0.19642 0.0
C1986 C 0.51472 0.78207 0.21864 0.0
C1987 C 0.54791 0.80128 0.20706 0.0
C1988 C 0.56445 0.81705 0.18097 0.0
C1989 C 0.5789 0.82971 0.2163 0.0
C1990 C 0.59456 0.84449 0.1917 0.0
C1991 C 0.59596 0.8467 0.13179 0.0
C1992 C 0.5817 0.83414 0.09632 0.0
C1993 C 0.56603 0.81931 0.12067 0.0
H1994 H 0.60814 0.85806 0.11284 0.0
H1995 H 0.45667 0.70576 0.3101 0.0
H1996 H 0.29893 0.80162 0.33397 0.0
H1997 H 0.27227 0.77512 0.29109 0.0
H1998 H 0.24522 0.80706 0.27089 0.0
H1999 H 0.27204 0.83392 0.31337 0.0
H2000 H 0.222 0.76803 0.31352 0.0
H2001 H 0.2635 0.80406 0.15959 0.0
H2002 H 0.29398 0.82088 0.1129 0.0
H2003 H 0.29742 0.77145 0.1101 0.0
H2004 H 0.26706 0.7544 0.15763 0.0
H2005 H 0.15586 0.70979 0.10142 0.0
H2006 H 0.1781 0.73431 0.16441 0.0
H2007 H 0.21575 0.71364 0.14404 0.0
H2008 H 0.19391 0.68966 0.07933 0.0
H2009 H 0.23318 0.74805 0.12358 0.0
H2010 H 0.19285 0.71147 0.2758 0.0
H2011 H 0.1634 0.69382 0.32778 0.0
H2012 H 0.15832 0.74224 0.33914 0.0
H2013 H 0.18766 0.76014 0.28661 0.0
C2014 C 0.28726 0.80304 0.32111 0.0
C2015 C 0.28772 0.81999 0.32673 0.0
C2016 C 0.27203 0.78785 0.29661 0.0
C2017 C 0.25686 0.78919 0.27767 0.0
C2018 C 0.25683 0.80578 0.2854 0.0
C2019 C 0.2722 0.82112 0.30935 0.0
C2020 C 0.24173 0.77363 0.246 0.0
C2021 C 0.22427 0.76374 0.27161 0.0
C2022 C 0.24496 0.76784 0.19216 0.0
C2023 C 0.26308 0.778 0.16268 0.0
C2024 C 0.27081 0.79681 0.14943 0.0
C2025 C 0.28806 0.80638 0.12274 0.0
C2026 C 0.29765 0.79725 0.10868 0.0
C2027 C 0.28998 0.77851 0.12108 0.0
C2028 C 0.27275 0.76888 0.14784 0.0
C2029 C 0.1687 0.71023 0.11158 0.0
C2030 C 0.17319 0.69785 0.08533 0.0
C2031 C 0.18142 0.72426 0.14766 0.0
C2032 C 0.19867 0.72589 0.15913 0.0
C2033 C 0.20264 0.71282 0.13553 0.0
C2034 C 0.19011 0.69905 0.09876 0.0
C2035 C 0.21324 0.74202 0.19122 0.0
C2036 C 0.23071 0.75217 0.1655 0.0
C2037 C 0.21003 0.74783 0.2453 0.0
C2038 C 0.19236 0.7371 0.27672 0.0
C2039 C 0.18538 0.71832 0.28894 0.0
C2040 C 0.16872 0.70827 0.31861 0.0
C2041 C 0.15897 0.71689 0.33659 0.0
C2042 C 0.16588 0.73558 0.3251 0.0
C2043 C 0.18253 0.74568 0.29544 0.0
H2044 H 0.14607 0.70909 0.35956 0.0
H2045 H 0.31101 0.80469 0.08805 0.0
H2046 H 0.17366 0.65077 0.74214 0.0
H2047 H 0.16913 0.6265 0.67383 0.0
H2048 H 0.11208 0.61124 0.65414 0.0
H2049 H 0.11659 0.63585 0.72098 0.0
H2050 H 0.12523 0.58293 0.69772 0.0
H2051 H 0.12801 0.62415 0.54622 0.0
H2052 H 0.14216 0.65387 0.49478 0.0
H2053 H 0.19102 0.65057 0.46503 0.0
H2054 H 0.17726 0.62095 0.51714 0.0
H2055 H 0.10765 0.50837 0.5142 0.0
H2056 H 0.10616 0.53465 0.5541 0.0
H2057 H 0.16361 0.57039 0.51317 0.0
H2058 H 0.16501 0.54449 0.47145 0.0
H2059 H 0.14674 0.58834 0.4954 0.0
H2060 H 0.14785 0.55093 0.65069 0.0
H2061 H 0.13734 0.52274 0.70871 0.0
H2062 H 0.08566 0.52036 0.73974 0.0
H2063 H 0.09577 0.5484 0.68113 0.0
C2064 C 0.16027 0.64252 0.72221 0.0
C2065 C 0.14549 0.64522 0.73673 0.0
C2066 C 0.15772 0.62871 0.68326 0.0
C2067 C 0.1403 0.61719 0.65908 0.0
C2068 C 0.12564 0.62013 0.67216 0.0
C2069 C 0.12828 0.63423 0.71009 0.0
C2070 C 0.13712 0.60099 0.62487 0.0
C2071 C 0.12952 0.58394 0.65303 0.0
C2072 C 0.14338 0.60263 0.56747 0.0
C2073 C 0.15168 0.62043 0.53617 0.0
C2074 C 0.14185 0.62986 0.52931 0.0
C2075 C 0.14978 0.64667 0.49987 0.0
C2076 C 0.1675 0.65413 0.4768 0.0
C2077 C 0.1773 0.64478 0.483 0.0
C2078 C 0.16944 0.62798 0.51243 0.0
C2079 C 0.1199 0.52187 0.51316 0.0
C2080 C 0.1365 0.52427 0.49023 0.0
C2081 C 0.11905 0.53688 0.53618 0.0
C2082 C 0.13488 0.55446 0.53782 0.0
C2083 C 0.15122 0.55699 0.51263 0.0
C2084 C 0.152 0.5421 0.48888 0.0
C2085 C 0.13486 0.57008 0.56822 0.0
C2086 C 0.14204 0.58711 0.53966 0.0
C2087 C 0.12863 0.56855 0.62595 0.0
C2088 C 0.12245 0.55159 0.66075 0.0
C2089 C 0.13417 0.54428 0.66935 0.0
C2090 C 0.12829 0.52834 0.7024 0.0
C2091 C 0.1108 0.51969 0.72757 0.0
C2092 C 0.09917 0.52701 0.71994 0.0
C2093 C 0.10496 0.54292 0.68681 0.0
H2094 H 0.10629 0.50739 0.75329 0.0
H2095 H 0.17361 0.66714 0.45399 0.0
H2096 H 0.36606 0.48243 0.7 0.0
H2097 H 0.38935 0.50164 0.62831 0.0
H2098 H 0.38457 0.54842 0.68073 0.0
H2099 H 0.3615 0.52954 0.75237 0.0
H2100 H 0.39342 0.52921 0.53424 0.0
H2101 H 0.42313 0.57638 0.72657 0.0
H2102 H 0.42237 0.57355 0.83293 0.0
H2103 H 0.42143 0.52201 0.81837 0.0
H2104 H 0.42179 0.52437 0.71208 0.0
H2105 H 0.46241 0.61944 0.45018 0.0
H2106 H 0.43619 0.59088 0.48516 0.0
H2107 H 0.47329 0.576 0.56613 0.0
H2108 H 0.49964 0.60453 0.53135 0.0
H2109 H 0.44905 0.57477 0.64155 0.0
H2110 H 0.44553 0.54871 0.45693 0.0
H2111 H 0.4438 0.54463 0.35123 0.0
H2112 H 0.39463 0.54852 0.34663 0.0
H2113 H 0.39599 0.55251 0.4524 0.0
C2114 C 0.36956 0.49667 0.69506 0.0
C2115 C 0.36216 0.50455 0.73252 0.0
C2116 C 0.38281 0.50758 0.65394 0.0
C2117 C 0.3887 0.52642 0.64971 0.0
C2118 C 0.38019 0.5339 0.6836 0.0
C2119 C 0.36709 0.52309 0.72474 0.0
C2120 C 0.40566 0.53901 0.6177 0.0
C2121 C 0.40563 0.53921 0.55728 0.0
C2122 C 0.42172 0.55148 0.64805 0.0
C2123 C 0.42263 0.55063 0.71169 0.0
C2124 C 0.42291 0.56454 0.7462 0.0
C2125 C 0.42236 0.56292 0.80635 0.0
C2126 C 0.42191 0.54764 0.83228 0.0
C2127 C 0.42181 0.53384 0.7982 0.0
C2128 C 0.4221 0.53528 0.73807 0.0
C2129 C 0.46505 0.61 0.47471 0.0
C2130 C 0.48319 0.61443 0.48846 0.0
C2131 C 0.45 0.59357 0.49429 0.0
C2132 C 0.45276 0.58127 0.52815 0.0
C2133 C 0.47084 0.5853 0.54003 0.0
C2134 C 0.4859 0.60166 0.52022 0.0
C2135 C 0.43691 0.56553 0.5571 0.0
C2136 C 0.43704 0.56477 0.61768 0.0
C2137 C 0.42121 0.55223 0.52641 0.0
C2138 C 0.42094 0.55104 0.46253 0.0
C2139 C 0.43444 0.54887 0.43332 0.0
C2140 C 0.43343 0.54639 0.37347 0.0
C2141 C 0.41906 0.54622 0.34228 0.0
C2142 C 0.4057 0.54858 0.37087 0.0
C2143 C 0.40656 0.55089 0.43079 0.0
H2144 H 0.41836 0.54439 0.29591 0.0
H2145 H 0.4218 0.54653 0.87876 0.0
H2146 H 0.40189 0.89559 0.56901 0.0
H2147 H 0.43151 0.89923 0.59741 0.0
H2148 H 0.43359 0.87325 0.43878 0.0
H2149 H 0.40337 0.86872 0.41161 0.0
H2150 H 0.44162 0.85857 0.51836 0.0
H2151 H 0.46506 0.92079 0.47192 0.0
H2152 H 0.46739 0.95126 0.46671 0.0
H2153 H 0.4742 0.95706 0.65062 0.0
H2154 H 0.47159 0.9265 0.65719 0.0
H2155 H 0.5253 0.87266 0.66791 0.0
H2156 H 0.50935 0.8797 0.59088 0.0
H2157 H 0.47251 0.88142 0.71742 0.0
H2158 H 0.48773 0.87383 0.79334 0.0
H2159 H 0.49018 0.91245 0.62455 0.0
H2160 H 0.4551 0.84429 0.66053 0.0
H2161 H 0.45407 0.81434 0.66163 0.0
H2162 H 0.47258 0.82238 0.48562 0.0
H2163 H 0.47392 0.85251 0.48387 0.0
C2164 C 0.40879 0.8909 0.53979 0.0
C2165 C 0.40026 0.88174 0.48835 0.0
C2166 C 0.42586 0.89315 0.55577 0.0
C2167 C 0.43505 0.8868 0.51986 0.0
C2168 C 0.42684 0.87829 0.46727 0.0
C2169 C 0.40956 0.87568 0.45184 0.0
C2170 C 0.45204 0.88716 0.54067 0.0
C2171 C 0.4525 0.87061 0.53986 0.0
C2172 C 0.4665 0.90282 0.56848 0.0
C2173 C 0.46806 0.92126 0.56502 0.0
C2174 C 0.46693 0.92849 0.51134 0.0
C2175 C 0.46831 0.9458 0.50813 0.0
C2176 C 0.47093 0.95608 0.5583 0.0
C2177 C 0.47218 0.94908 0.61178 0.0
C2178 C 0.47079 0.93177 0.61525 0.0
C2179 C 0.51381 0.87458 0.67895 0.0
C2180 C 0.50752 0.8724 0.73624 0.0
C2181 C 0.50483 0.87868 0.6352 0.0
C2182 C 0.48989 0.88116 0.64888 0.0
C2183 C 0.4841 0.87965 0.70627 0.0
C2184 C 0.49267 0.87511 0.74941 0.0
C2185 C 0.47895 0.88381 0.60398 0.0
C2186 C 0.47963 0.90082 0.6006 0.0
C2187 C 0.46579 0.86878 0.57124 0.0
C2188 C 0.46482 0.85068 0.57229 0.0
C2189 C 0.45909 0.83972 0.62227 0.0
C2190 C 0.45842 0.82271 0.62298 0.0
C2191 C 0.46331 0.81648 0.57378 0.0
C2192 C 0.46884 0.82723 0.52373 0.0
C2193 C 0.46955 0.84427 0.52285 0.0
H2194 H 0.46278 0.80331 0.5744 0.0
H2195 H 0.47199 0.96948 0.55572 0.0
H2196 H 0.03178 0.25957 0.60247 0.0
H2197 H 0.05161 0.2897 0.56051 0.0
H2198 H 0.07475 0.3112 0.72823 0.0
H2199 H 0.05456 0.2808 0.77136 0.0
H2200 H 0.06416 0.33299 0.67073 0.0
H2201 H 0.10021 0.30467 0.6264 0.0
H2202 H 0.10502 0.2798 0.58937 0.0
H2203 H 0.08826 0.28648 0.42013 0.0
H2204 H 0.0831 0.31123 0.45629 0.0
H2205 H 0.1256 0.41965 0.55833 0.0
H2206 H 0.11467 0.38985 0.60482 0.0
H2207 H 0.0923 0.36242 0.44247 0.0
H2208 H 0.104 0.39248 0.39504 0.0
H2209 H 0.1049 0.34398 0.50206 0.0
H2210 H 0.06527 0.36847 0.54428 0.0
H2211 H 0.0576 0.39176 0.57792 0.0
H2212 H 0.07821 0.39068 0.74681 0.0
H2213 H 0.08621 0.36754 0.71392 0.0
C2214 C 0.04111 0.27061 0.63075 0.0
C2215 C 0.04147 0.26773 0.69055 0.0
C2216 C 0.05259 0.28785 0.60641 0.0
C2217 C 0.06484 0.30267 0.64101 0.0
C2218 C 0.06545 0.2999 0.70067 0.0
C2219 C 0.05395 0.28253 0.72523 0.0
C2220 C 0.07606 0.32122 0.61483 0.0
C2221 C 0.07341 0.33552 0.63475 0.0
C2222 C 0.08759 0.3243 0.56644 0.0
C2223 C 0.09117 0.30976 0.54418 0.0
C2224 C 0.09747 0.30079 0.58134 0.0
C2225 C 0.10026 0.28672 0.56049 0.0
C2226 C 0.09691 0.28154 0.50246 0.0
C2227 C 0.09085 0.2905 0.46508 0.0
C2228 C 0.08803 0.30458 0.4857 0.0
C2229 C 0.11858 0.40727 0.53234 0.0
C2230 C 0.11542 0.40833 0.47323 0.0
C2231 C 0.11228 0.39023 0.55901 0.0
C2232 C 0.10218 0.37384 0.52758 0.0
C2233 C 0.09994 0.37487 0.46774 0.0
C2234 C 0.10661 0.39202 0.44065 0.0
C2235 C 0.09298 0.35576 0.55802 0.0
C2236 C 0.0959 0.34154 0.53867 0.0
C2237 C 0.08142 0.3526 0.60647 0.0
C2238 C 0.07651 0.36642 0.62647 0.0
C2239 C 0.06827 0.37329 0.58848 0.0
C2240 C 0.06385 0.38645 0.60743 0.0
C2241 C 0.06747 0.39274 0.66442 0.0
C2242 C 0.07545 0.38583 0.70265 0.0
C2243 C 0.07991 0.37268 0.6839 0.0
H2244 H 0.06404 0.40293 0.67901 0.0
H2245 H 0.09903 0.2706 0.48645 0.0
H2246 H 0.73951 0.79971 0.72643 0.0
H2247 H 0.70932 0.78977 0.68193 0.0
H2248 H 0.70987 0.74274 0.60789 0.0
H2249 H 0.7402 0.75317 0.64928 0.0
H2250 H 0.69842 0.75554 0.53116 0.0
H2251 H 0.6834 0.74138 0.73337 0.0
H2252 H 0.68506 0.74848 0.83731 0.0
H2253 H 0.66641 0.78689 0.80346 0.0
H2254 H 0.66485 0.78016 0.6992 0.0
H2255 H 0.59424 0.69347 0.56543 0.0
H2256 H 0.62454 0.71273 0.60706 0.0
H2257 H 0.64021 0.74915 0.46021 0.0
H2258 H 0.60974 0.72953 0.417 0.0
H2259 H 0.64411 0.74657 0.64313 0.0
H2260 H 0.68571 0.76469 0.43158 0.0
H2261 H 0.68301 0.75244 0.33288 0.0
H2262 H 0.64685 0.69757 0.39469 0.0
H2263 H 0.64951 0.70948 0.49371 0.0
C2264 C 0.73305 0.78722 0.70086 0.0
C2265 C 0.74216 0.77722 0.69116 0.0
C2266 C 0.71581 0.78152 0.67549 0.0
C2267 C 0.70719 0.76542 0.64155 0.0
C2268 C 0.71623 0.75531 0.63314 0.0
C2269 C 0.73355 0.76122 0.65714 0.0
C2270 C 0.68882 0.75885 0.61429 0.0
C2271 C 0.6866 0.75374 0.55572 0.0
C2272 C 0.67328 0.75638 0.64594 0.0
C2273 C 0.67423 0.76044 0.70851 0.0
C2274 C 0.67979 0.75144 0.74809 0.0
C2275 C 0.68069 0.75538 0.80704 0.0
C2276 C 0.67591 0.76817 0.82695 0.0
C2277 C 0.67016 0.77701 0.78796 0.0
C2278 C 0.66925 0.77314 0.72895 0.0
C2279 C 0.60402 0.7056 0.54175 0.0
C2280 C 0.59955 0.70978 0.4873 0.0
C2281 C 0.62136 0.71671 0.56603 0.0
C2282 C 0.63474 0.73232 0.5367 0.0
C2283 C 0.63017 0.73703 0.48335 0.0
C2284 C 0.61274 0.72582 0.45873 0.0
C2285 C 0.6537 0.74273 0.56084 0.0
C2286 C 0.65604 0.74871 0.61849 0.0
C2287 C 0.66924 0.74531 0.52911 0.0
C2288 C 0.66761 0.73802 0.46978 0.0
C2289 C 0.6772 0.75002 0.42402 0.0
C2290 C 0.67568 0.74313 0.36807 0.0
C2291 C 0.6647 0.72425 0.35748 0.0
C2292 C 0.65527 0.7122 0.40287 0.0
C2293 C 0.65677 0.71901 0.45889 0.0
H2294 H 0.66354 0.71896 0.31414 0.0
H2295 H 0.67661 0.7712 0.87261 0.0
H2296 H 0.23323 0.95673 0.78107 0.0
H2297 H 0.24378 0.93609 0.74418 0.0
H2298 H 0.23794 0.95032 0.56959 0.0
H2299 H 0.22747 0.97085 0.60576 0.0
H2300 H 0.22589 0.91288 0.58228 0.0
H2301 H 0.27884 0.97204 0.63125 0.0
H2302 H 0.29802 0.99781 0.69689 0.0
H2303 H 0.30389 0.96065 0.81092 0.0
H2304 H 0.28452 0.93461 0.74627 0.0
H2305 H 0.28884 0.89801 0.41601 0.0
H2306 H 0.26936 0.90804 0.46438 0.0
H2307 H 0.28515 0.89671 0.63002 0.0
H2308 H 0.3049 0.88712 0.58211 0.0
H2309 H 0.2902 0.92986 0.63022 0.0
H2310 H 0.23967 0.87106 0.58012 0.0
H2311 H 0.22065 0.84478 0.51597 0.0
H2312 H 0.20964 0.87983 0.40792 0.0
H2313 H 0.22891 0.90638 0.47094 0.0
C2314 C 0.23399 0.95527 0.73485 0.0
C2315 C 0.22975 0.96561 0.6964 0.0
C2316 C 0.24003 0.94351 0.71385 0.0
C2317 C 0.24177 0.9418 0.65413 0.0
C2318 C 0.2367 0.95143 0.61577 0.0
C2319 C 0.23086 0.96328 0.63663 0.0
C2320 C 0.25013 0.93112 0.63121 0.0
C2321 C 0.23997 0.91659 0.59255 0.0
C2322 C 0.26834 0.93571 0.64562 0.0
C2323 C 0.28006 0.95136 0.68432 0.0
C2324 C 0.2841 0.96935 0.67057 0.0
C2325 C 0.29502 0.984 0.70754 0.0
C2326 C 0.30212 0.98086 0.75814 0.0
C2327 C 0.29835 0.96306 0.77178 0.0
C2328 C 0.28741 0.94835 0.73499 0.0
C2329 C 0.28786 0.89732 0.46266 0.0
C2330 C 0.29861 0.89203 0.49522 0.0
C2331 C 0.27667 0.903 0.49034 0.0
C2332 C 0.27579 0.90317 0.55099 0.0
C2333 C 0.28573 0.89689 0.58329 0.0
C2334 C 0.29702 0.89141 0.55577 0.0
C2335 C 0.26603 0.91156 0.58083 0.0
C2336 C 0.276 0.92582 0.62059 0.0
C2337 C 0.24761 0.9066 0.56771 0.0
C2338 C 0.23591 0.89072 0.52982 0.0
C2339 C 0.23335 0.87317 0.5423 0.0
C2340 C 0.2225 0.85823 0.50624 0.0
C2341 C 0.21398 0.86064 0.45778 0.0
C2342 C 0.21627 0.87799 0.44542 0.0
C2343 C 0.22715 0.89299 0.48133 0.0
H2344 H 0.20558 0.84906 0.4299 0.0
H2345 H 0.31058 0.99222 0.7867 0.0
H2346 H 0.25943 0.03851 0.89952 0.0
H2347 H 0.28998 0.05826 0.93978 0.0
H2348 H 0.31261 0.07276 0.76805 0.0
H2349 H 0.28182 0.05278 0.72698 0.0
H2350 H 0.33129 0.06097 0.83715 0.0
H2351 H 0.31041 0.10454 0.85213 0.0
H2352 H 0.28872 0.11514 0.8785 0.0
H2353 H 0.29351 0.10471 0.05732 0.0
H2354 H 0.31503 0.09379 0.03197 0.0
H2355 H 0.42055 0.1211 0.93198 0.0
H2356 H 0.39064 0.11058 0.88687 0.0
H2357 H 0.36464 0.09689 0.0543 0.0
H2358 H 0.39489 0.10804 0.10016 0.0
H2359 H 0.34802 0.11003 0.98381 0.0
H2360 H 0.36579 0.06397 0.97094 0.0
H2361 H 0.38627 0.05161 0.94792 0.0
H2362 H 0.38583 0.06471 0.76893 0.0
H2363 H 0.36555 0.07741 0.79104 0.0
C2364 C 0.27084 0.04602 0.87009 0.0
C2365 C 0.2682 0.04394 0.80991 0.0
C2366 C 0.2883 0.05744 0.8933 0.0
C2367 C 0.30356 0.0671 0.857 0.0
C2368 C 0.30097 0.06547 0.79684 0.0
C2369 C 0.28339 0.05411 0.77343 0.0
C2370 C 0.32234 0.07756 0.88231 0.0
C2371 C 0.33509 0.07199 0.86822 0.0
C2372 C 0.32702 0.09143 0.92456 0.0
C2373 C 0.31425 0.09821 0.94006 0.0
C2374 C 0.30675 0.10438 0.89704 0.0
C2375 C 0.2945 0.11047 0.91182 0.0
C2376 C 0.28971 0.11056 0.96954 0.0
C2377 C 0.29722 0.10462 0.01263 0.0
C2378 C 0.30947 0.09851 0.99808 0.0
C2379 C 0.4085 0.11605 0.95935 0.0
C2380 C 0.41 0.1151 0.01957 0.0
C2381 C 0.3914 0.11002 0.93346 0.0
C2382 C 0.37532 0.10249 0.96701 0.0
C2383 C 0.37686 0.10254 0.02751 0.0
C2384 C 0.39412 0.10888 0.05368 0.0
C2385 C 0.35697 0.09347 0.93836 0.0
C2386 C 0.34428 0.09919 0.95213 0.0
C2387 C 0.35218 0.07952 0.89624 0.0
C2388 C 0.36431 0.07181 0.88275 0.0
C2389 C 0.37018 0.06434 0.92674 0.0
C2390 C 0.38173 0.05726 0.91385 0.0
C2391 C 0.38739 0.05742 0.85702 0.0
C2392 C 0.38146 0.06462 0.81294 0.0
C2393 C 0.36993 0.07176 0.82562 0.0
H2394 H 0.39634 0.05192 0.84712 0.0
H2395 H 0.28021 0.11527 0.98088 0.0
H2396 H 0.95372 0.23037 0.7303 0.0
H2397 H 0.9346 0.24226 0.77093 0.0
H2398 H 0.95236 0.23823 0.94232 0.0
H2399 H 0.97146 0.22657 0.90257 0.0
H2400 H 0.90625 0.23134 0.85933 0.0
H2401 H 0.96699 0.27947 0.00602 0.0
H2402 H 0.00087 0.29381 0.00908 0.0
H2403 H 0.00264 0.29287 0.82391 0.0
H2404 H 0.96883 0.2788 0.81977 0.0
H2405 H 0.88135 0.27967 0.0687 0.0
H2406 H 0.89268 0.26077 0.02279 0.0
H2407 H 0.92536 0.30518 0.90514 0.0
H2408 H 0.91426 0.32399 0.94999 0.0
H2409 H 0.9452 0.29136 0.95714 0.0
H2410 H 0.88792 0.26977 0.85705 0.0
H2411 H 0.85427 0.25675 0.85103 0.0
H2412 H 0.84568 0.20707 0.93274 0.0
H2413 H 0.87931 0.21994 0.94024 0.0
C2414 C 0.95326 0.2317 0.77669 0.0
C2415 C 0.96442 0.22792 0.81308 0.0
C2416 C 0.94227 0.23839 0.79982 0.0
C2417 C 0.94228 0.24133 0.85953 0.0
C2418 C 0.95232 0.23625 0.89608 0.0
C2419 C 0.96333 0.2297 0.87315 0.0
C2420 C 0.93388 0.25183 0.88345 0.0
C2421 C 0.91471 0.24444 0.88078 0.0
C2422 C 0.94498 0.26904 0.91074 0.0
C2423 C 0.96537 0.27792 0.91267 0.0
C2424 C 0.97463 0.28241 0.96598 0.0
C2425 C 0.99382 0.29048 0.9679 0.0
C2426 C 0.00389 0.2942 0.91673 0.0
C2427 C 0.99482 0.28993 0.86352 0.0
C2428 C 0.97564 0.28189 0.86137 0.0
C2429 C 0.89092 0.28537 0.033 0.0
C2430 C 0.89691 0.30337 0.01321 0.0
C2431 C 0.8973 0.27453 0.00667 0.0
C2432 C 0.90982 0.2816 0.96052 0.0
C2433 C 0.91572 0.29948 0.94071 0.0
C2434 C 0.90929 0.3102 0.96647 0.0
C2435 C 0.91751 0.27084 0.93382 0.0
C2436 C 0.93665 0.27821 0.93599 0.0
C2437 C 0.90637 0.25384 0.90538 0.0
C2438 C 0.88614 0.2459 0.89977 0.0
C2439 C 0.87886 0.25612 0.87415 0.0
C2440 C 0.85979 0.24877 0.87041 0.0
C2441 C 0.84784 0.23111 0.89164 0.0
C2442 C 0.85495 0.22075 0.9164 0.0
C2443 C 0.87402 0.22807 0.92039 0.0
H2444 H 0.83308 0.22546 0.88879 0.0
H2445 H 0.01874 0.30041 0.91831 0.0
H2446 H 0.7857 0.75007 0.89585 0.0
H2447 H 0.77507 0.71941 0.93526 0.0
H2448 H 0.7678 0.69739 0.76285 0.0
H2449 H 0.7786 0.72828 0.72272 0.0
H2450 H 0.73654 0.6791 0.83368 0.0
H2451 H 0.80075 0.69852 0.84301 0.0
H2452 H 0.83326 0.72014 0.86702 0.0
H2453 H 0.81958 0.71569 0.04708 0.0
H2454 H 0.78688 0.69423 0.0241 0.0
H2455 H 0.70534 0.58951 0.92758 0.0
H2456 H 0.72522 0.61911 0.88144 0.0
H2457 H 0.74013 0.6454 0.04842 0.0
H2458 H 0.72061 0.61545 0.09522 0.0
H2459 H 0.76912 0.66114 0.97575 0.0
H2460 H 0.70577 0.64538 0.96934 0.0
H2461 H 0.67257 0.62571 0.94941 0.0
H2462 H 0.68403 0.62526 0.76895 0.0
H2463 H 0.71734 0.64473 0.78795 0.0
C2464 C 0.78204 0.73876 0.86619 0.0
C2465 C 0.78283 0.74154 0.80612 0.0
C2466 C 0.7761 0.72126 0.88886 0.0
C2467 C 0.77074 0.70616 0.852 0.0
C2468 C 0.77197 0.70893 0.79196 0.0
C2469 C 0.77817 0.72655 0.76913 0.0
C2470 C 0.7623 0.68736 0.8766 0.0
C2471 C 0.74379 0.675 0.86368 0.0
C2472 C 0.7716 0.68236 0.91751 0.0
C2473 C 0.79132 0.69486 0.93175 0.0
C2474 C 0.80464 0.70222 0.88771 0.0
C2475 C 0.8231 0.71444 0.90114 0.0
C2476 C 0.82846 0.71933 0.95851 0.0
C2477 C 0.81538 0.7119 0.00264 0.0
C2478 C 0.79688 0.69968 0.98945 0.0
C2479 C 0.71301 0.60156 0.95458 0.0
C2480 C 0.7112 0.60027 0.01496 0.0
C2481 C 0.72437 0.61847 0.92813 0.0
C2482 C 0.7338 0.63455 0.96136 0.0
C2483 C 0.73288 0.63317 0.02191 0.0
C2484 C 0.72172 0.6161 0.0486 0.0
C2485 C 0.74335 0.65283 0.93253 0.0
C2486 C 0.76198 0.66513 0.94503 0.0
C2487 C 0.7341 0.65797 0.89179 0.0
C2488 C 0.71406 0.64634 0.88016 0.0
C2489 C 0.70122 0.64097 0.92547 0.0
C2490 C 0.68238 0.62987 0.91434 0.0
C2491 C 0.6762 0.62419 0.85798 0.0
C2492 C 0.68884 0.62965 0.8126 0.0
C2493 C 0.7077 0.64072 0.82352 0.0
H2494 H 0.6616 0.6156 0.84944 0.0
H2495 H 0.84273 0.72888 0.9687 0.0
H2496 H 0.88853 0.59007 0.43491 0.0
H2497 H 0.89999 0.62051 0.39314 0.0
H2498 H 0.90992 0.6443 0.56361 0.0
H2499 H 0.89809 0.6135 0.60627 0.0
H2500 H 0.89752 0.66153 0.48503 0.0
H2501 H 0.94434 0.64525 0.49687 0.0
H2502 H 0.95793 0.6253 0.48501 0.0
H2503 H 0.95209 0.62612 0.30105 0.0
H2504 H 0.93803 0.64573 0.31188 0.0
H2505 H 0.97065 0.75078 0.40236 0.0
H2506 H 0.95095 0.72058 0.44557 0.0
H2507 H 0.93758 0.69594 0.27619 0.0
H2508 H 0.95723 0.72635 0.23227 0.0
H2509 H 0.95112 0.67948 0.35572 0.0
H2510 H 0.90516 0.69768 0.34758 0.0
H2511 H 0.89347 0.71909 0.36383 0.0
H2512 H 0.90028 0.71665 0.54673 0.0
H2513 H 0.91229 0.6954 0.53153 0.0
C2514 C 0.89294 0.60171 0.46373 0.0
C2515 C 0.89274 0.59944 0.52394 0.0
C2516 C 0.89945 0.61911 0.43971 0.0
C2517 C 0.90615 0.6347 0.4752 0.0
C2518 C 0.90487 0.63242 0.53547 0.0
C2519 C 0.89816 0.61486 0.55976 0.0
C2520 C 0.91597 0.6533 0.44867 0.0
C2521 C 0.90936 0.66556 0.45728 0.0
C2522 C 0.93134 0.65849 0.41207 0.0
C2523 C 0.93995 0.64682 0.40524 0.0
C2524 C 0.9458 0.64105 0.4539 0.0
C2525 C 0.95362 0.62982 0.44737 0.0
C2526 C 0.95587 0.62444 0.39232 0.0
C2527 C 0.95032 0.63029 0.34367 0.0
C2528 C 0.94242 0.64145 0.34999 0.0
C2529 C 0.96335 0.73897 0.37417 0.0
C2530 C 0.96557 0.74089 0.31389 0.0
C2531 C 0.95202 0.72175 0.39898 0.0
C2532 C 0.94279 0.70606 0.36409 0.0
C2533 C 0.94458 0.70794 0.30378 0.0
C2534 C 0.95573 0.72528 0.27877 0.0
C2535 C 0.9325 0.6876 0.39114 0.0
C2536 C 0.93918 0.67541 0.38305 0.0
C2537 C 0.91745 0.68269 0.42888 0.0
C2538 C 0.90979 0.69508 0.43835 0.0
C2539 C 0.90428 0.70179 0.39126 0.0
C2540 C 0.89758 0.71388 0.40028 0.0
C2541 C 0.89621 0.71928 0.45625 0.0
C2542 C 0.90139 0.71248 0.50339 0.0
C2543 C 0.90812 0.70038 0.49459 0.0
H2544 H 0.89112 0.72872 0.46304 0.0
H2545 H 0.96194 0.61576 0.38734 0.0
H2546 H 0.28266 0.23484 0.23929 0.0
H2547 H 0.31269 0.24522 0.28516 0.0
H2548 H 0.28673 0.23268 0.45275 0.0
H2549 H 0.257 0.2229 0.40747 0.0
H2550 H 0.3147 0.26552 0.45456 0.0
H2551 H 0.30498 0.20714 0.39012 0.0
H2552 H 0.29806 0.18232 0.32019 0.0
H2553 H 0.34587 0.21901 0.2213 0.0
H2554 H 0.35293 0.24413 0.2902 0.0
H2555 H 0.39686 0.28839 0.60791 0.0
H2556 H 0.36592 0.26857 0.56781 0.0
H2557 H 0.38745 0.28509 0.39558 0.0
H2558 H 0.4182 0.30474 0.43493 0.0
H2559 H 0.36126 0.24805 0.40128 0.0
H2560 H 0.36869 0.30678 0.46123 0.0
H2561 H 0.37552 0.33155 0.53131 0.0
H2562 H 0.33136 0.29322 0.63972 0.0
H2563 H 0.32444 0.26816 0.5706 0.0
C2564 C 0.28337 0.23405 0.28581 0.0
C2565 C 0.26754 0.22827 0.31979 0.0
C2566 C 0.30052 0.23992 0.31204 0.0
C2567 C 0.30201 0.23973 0.37256 0.0
C2568 C 0.28601 0.23312 0.40612 0.0
C2569 C 0.269 0.22753 0.38011 0.0
C2570 C 0.32028 0.24772 0.40149 0.0
C2571 C 0.3247 0.26138 0.4436 0.0
C2572 C 0.33355 0.24266 0.38654 0.0
C2573 C 0.32939 0.22757 0.34509 0.0
C2574 C 0.31394 0.20996 0.35322 0.0
C2575 C 0.31001 0.19583 0.3138 0.0
C2576 C 0.3215 0.1991 0.26626 0.0
C2577 C 0.33697 0.2165 0.25812 0.0
C2578 C 0.34095 0.23069 0.29738 0.0
C2579 C 0.39502 0.28756 0.56151 0.0
C2580 C 0.40993 0.29835 0.52469 0.0
C2581 C 0.37735 0.27628 0.53866 0.0
C2582 C 0.37437 0.27552 0.47872 0.0
C2583 C 0.38942 0.28547 0.4419 0.0
C2584 C 0.40698 0.29683 0.4646 0.0
C2585 C 0.35548 0.26568 0.45417 0.0
C2586 C 0.35105 0.25186 0.4127 0.0
C2587 C 0.34211 0.27049 0.46976 0.0
C2588 C 0.34619 0.28556 0.51112 0.0
C2589 C 0.36053 0.30361 0.50024 0.0
C2590 C 0.36441 0.31771 0.53974 0.0
C2591 C 0.35392 0.31395 0.59003 0.0
C2592 C 0.3395 0.2961 0.60082 0.0
C2593 C 0.33559 0.28195 0.5615 0.0
H2594 H 0.35694 0.32489 0.62056 0.0
H2595 H 0.31843 0.18814 0.23579 0.0
H2596 H 0.79148 0.06349 0.23723 0.0
H2597 H 0.78365 0.0857 0.27886 0.0
H2598 H 0.75174 0.04638 0.41123 0.0
H2599 H 0.75961 0.02449 0.37114 0.0
H2600 H 0.75199 0.08527 0.29605 0.0
H2601 H 0.75587 0.0658 0.53725 0.0
H2602 H 0.77504 0.0571 0.59519 0.0
H2603 H 0.81916 0.08371 0.47289 0.0
H2604 H 0.80041 0.09287 0.41473 0.0
H2605 H 0.68748 0.09089 0.46411 0.0
H2606 H 0.70832 0.08301 0.41584 0.0
H2607 H 0.75401 0.12474 0.51365 0.0
H2608 H 0.73291 0.13243 0.56391 0.0
H2609 H 0.75709 0.0955 0.50799 0.0
H2610 H 0.74911 0.13131 0.36781 0.0
H2611 H 0.73256 0.14267 0.30773 0.0
H2612 H 0.70276 0.08994 0.22463 0.0
H2613 H 0.71895 0.07817 0.28461 0.0
C2614 C 0.78277 0.05961 0.27515 0.0
C2615 C 0.77633 0.04226 0.3011 0.0
C2616 C 0.77835 0.07232 0.29891 0.0
C2617 C 0.76747 0.06787 0.34897 0.0
C2618 C 0.7606 0.05036 0.37362 0.0
C2619 C 0.76505 0.03778 0.3503 0.0
C2620 C 0.76264 0.08103 0.37558 0.0
C2621 C 0.75329 0.08774 0.34223 0.0
C2622 C 0.7651 0.08497 0.43547 0.0
C2623 C 0.77666 0.07997 0.47144 0.0
C2624 C 0.76972 0.06996 0.52296 0.0
C2625 C 0.78051 0.06491 0.55579 0.0
C2626 C 0.79829 0.06982 0.53768 0.0
C2627 C 0.80537 0.07987 0.48683 0.0
C2628 C 0.79466 0.08499 0.45389 0.0
C2629 C 0.70196 0.09846 0.47548 0.0
C2630 C 0.70854 0.11238 0.5177 0.0
C2631 C 0.71392 0.09403 0.44739 0.0
C2632 C 0.73285 0.10362 0.45983 0.0
C2633 C 0.73949 0.11728 0.50288 0.0
C2634 C 0.72741 0.12162 0.53167 0.0
C2635 C 0.7453 0.0986 0.42905 0.0
C2636 C 0.75616 0.09349 0.4616 0.0
C2637 C 0.74481 0.09675 0.36812 0.0
C2638 C 0.73524 0.10383 0.33095 0.0
C2639 C 0.73898 0.12211 0.33688 0.0
C2640 C 0.72966 0.12862 0.30284 0.0
C2641 C 0.71659 0.11702 0.26253 0.0
C2642 C 0.7129 0.09891 0.25589 0.0
C2643 C 0.72218 0.09233 0.2898 0.0
H2644 H 0.7093 0.12204 0.23647 0.0
H2645 H 0.8066 0.06584 0.56307 0.0
H2646 H 0.58603 0.88263 0.07053 0.0
H2647 H 0.61564 0.89227 0.11693 0.0
H2648 H 0.64321 0.91201 0.95331 0.0
H2649 H 0.6134 0.90172 0.90619 0.0
H2650 H 0.66037 0.89857 0.0135 0.0
H2651 H 0.63875 0.94099 0.05391 0.0
H2652 H 0.61654 0.95002 0.08837 0.0
H2653 H 0.61782 0.92992 0.25783 0.0
H2654 H 0.63989 0.92055 0.22414 0.0
H2655 H 0.74653 0.97279 0.10012 0.0
H2656 H 0.71589 0.95205 0.06206 0.0
H2657 H 0.69661 0.93125 0.23343 0.0
H2658 H 0.72744 0.95219 0.27234 0.0
H2659 H 0.67456 0.94188 0.1771 0.0
H2660 H 0.7008 0.90399 0.13543 0.0
H2661 H 0.72441 0.89739 0.09767 0.0
H2662 H 0.71595 0.91147 0.92657 0.0
H2663 H 0.69248 0.91842 0.96341 0.0
C2664 C 0.59839 0.88881 0.0443 0.0
C2665 C 0.59747 0.89171 0.9849 0.0
C2666 C 0.61531 0.89435 0.07089 0.0
C2667 C 0.63173 0.90333 0.03897 0.0
C2668 C 0.63075 0.90521 0.97895 0.0
C2669 C 0.61372 0.89935 0.95204 0.0
C2670 C 0.64991 0.91193 0.06872 0.0
C2671 C 0.66351 0.90812 0.04904 0.0
C2672 C 0.65395 0.92415 0.11593 0.0
C2673 C 0.64081 0.9299 0.13637 0.0
C2674 C 0.63421 0.9384 0.09843 0.0
C2675 C 0.62166 0.94359 0.11783 0.0
C2676 C 0.61573 0.9405 0.17521 0.0
C2677 C 0.6224 0.93227 0.21337 0.0
C2678 C 0.63494 0.92703 0.19417 0.0
C2679 C 0.73585 0.96373 0.12987 0.0
C2680 C 0.73942 0.96427 0.18944 0.0
C2681 C 0.71835 0.95175 0.10786 0.0
C2682 C 0.704 0.93999 0.1448 0.0
C2683 C 0.70754 0.94017 0.20417 0.0
C2684 C 0.72515 0.95211 0.22629 0.0
C2685 C 0.68507 0.92867 0.12154 0.0
C2686 C 0.67133 0.93207 0.14227 0.0
C2687 C 0.68105 0.91633 0.07483 0.0
C2688 C 0.69494 0.91183 0.0523 0.0
C2689 C 0.70404 0.90578 0.0898 0.0
C2690 C 0.7174 0.90197 0.06855 0.0
C2691 C 0.7217 0.90404 0.00978 0.0
C2692 C 0.71261 0.90987 0.97209 0.0
C2693 C 0.69925 0.91372 0.99313 0.0
H2694 H 0.73207 0.90111 0.99342 0.0
H2695 H 0.60601 0.94452 0.19014 0.0
H2696 H 0.0214 0.75594 0.13705 0.0
H2697 H 0.0422 0.74639 0.09683 0.0
H2698 H 0.08668 0.78693 0.20087 0.0
H2699 H 0.06569 0.79645 0.24285 0.0
H2700 H 0.08808 0.77993 0.05409 0.0
H2701 H 0.08275 0.7568 0.25141 0.0
H2702 H 0.06472 0.74132 0.33858 0.0
H2703 H 0.02976 0.69302 0.2388 0.0
H2704 H 0.04743 0.70835 0.15086 0.0
H2705 H 0.13848 0.73487 0.95788 0.0
H2706 H 0.12821 0.75398 0.00857 0.0
H2707 H 0.074 0.70629 0.02825 0.0
H2708 H 0.0845 0.68727 0.98064 0.0
H2709 H 0.08393 0.72218 0.12556 0.0
H2710 H 0.08543 0.74372 0.93026 0.0
H2711 H 0.09999 0.75785 0.8373 0.0
H2712 H 0.13879 0.80742 0.925 0.0
H2713 H 0.12458 0.79348 0.01858 0.0
C2714 C 0.0356 0.76288 0.15154 0.0
C2715 C 0.0419 0.77695 0.19323 0.0
C2716 C 0.04745 0.75741 0.12838 0.0
C2717 C 0.06592 0.76602 0.14575 0.0
C2718 C 0.07243 0.78018 0.18697 0.0
C2719 C 0.06043 0.7855 0.21109 0.0
C2720 C 0.07789 0.75945 0.12122 0.0
C2721 C 0.08768 0.76759 0.07037 0.0
C2722 C 0.07681 0.74309 0.14169 0.0
C2723 C 0.0663 0.73378 0.19455 0.0
C2724 C 0.07111 0.74295 0.248 0.0
C2725 C 0.06098 0.73419 0.29755 0.0
C2726 C 0.04608 0.71622 0.29421 0.0
C2727 C 0.0413 0.70695 0.24132 0.0
C2728 C 0.05138 0.71566 0.19164 0.0
C2729 C 0.12431 0.72867 0.97225 0.0
C2730 C 0.11223 0.70967 0.96548 0.0
C2731 C 0.11844 0.73955 0.00124 0.0
C2732 C 0.1003 0.7316 0.02254 0.0
C2733 C 0.08811 0.71275 0.01305 0.0
C2734 C 0.09405 0.7019 0.98543 0.0
C2735 C 0.0939 0.74234 0.05703 0.0
C2736 C 0.08496 0.73486 0.10976 0.0
C2737 C 0.09555 0.75914 0.03759 0.0
C2738 C 0.1041 0.76748 0.98142 0.0
C2739 C 0.09716 0.75757 0.92974 0.0
C2740 C 0.10533 0.76556 0.87695 0.0
C2741 C 0.12034 0.78349 0.87527 0.0
C2742 C 0.12719 0.79351 0.92638 0.0
C2743 C 0.11908 0.78558 0.97929 0.0
H2744 H 0.12664 0.78965 0.83435 0.0
H2745 H 0.03825 0.70946 0.33261 0.0
H2746 H 0.25058 0.2676 0.12979 0.0
H2747 H 0.26089 0.29774 0.08829 0.0
H2748 H 0.22744 0.30712 0.20993 0.0
H2749 H 0.21729 0.27675 0.25331 0.0
H2750 H 0.24436 0.31213 0.03374 0.0
H2751 H 0.24876 0.35411 0.23483 0.0
H2752 H 0.25247 0.35367 0.34047 0.0
H2753 H 0.28209 0.32452 0.31873 0.0
H2754 H 0.27873 0.32498 0.21303 0.0
H2755 H 0.28052 0.40492 0.93321 0.0
H2756 H 0.2602 0.37527 0.98029 0.0
H2757 H 0.30559 0.38219 0.08654 0.0
H2758 H 0.32557 0.41181 0.04153 0.0
H2759 H 0.27671 0.36927 0.15027 0.0
H2760 H 0.29042 0.35416 0.96118 0.0
H2761 H 0.29091 0.35444 0.85468 0.0
H2762 H 0.23195 0.3294 0.85101 0.0
H2763 H 0.23115 0.32917 0.95757 0.0
C2764 C 0.24533 0.27599 0.14796 0.0
C2765 C 0.23308 0.26972 0.19504 0.0
C2766 C 0.2512 0.29325 0.12383 0.0
C2767 C 0.24495 0.30474 0.14572 0.0
C2768 C 0.2326 0.29856 0.19257 0.0
C2769 C 0.22682 0.28123 0.21736 0.0
C2770 C 0.25202 0.3233 0.11968 0.0
C2771 C 0.25125 0.32463 0.05935 0.0
C2772 C 0.26107 0.33965 0.15281 0.0
C2773 C 0.26325 0.33935 0.2162 0.0
C2774 C 0.25607 0.34762 0.25267 0.0
C2775 C 0.25812 0.34737 0.31252 0.0
C2776 C 0.26744 0.339 0.33631 0.0
C2777 C 0.2748 0.33092 0.30028 0.0
C2778 C 0.27281 0.33116 0.24041 0.0
C2779 C 0.28611 0.40005 0.96656 0.0
C2780 C 0.30465 0.4107 0.98354 0.0
C2781 C 0.2745 0.38313 0.99349 0.0
C2782 C 0.28136 0.37642 0.03694 0.0
C2783 C 0.29987 0.38709 0.05367 0.0
C2784 C 0.31133 0.40403 0.02756 0.0
C2785 C 0.26973 0.35807 0.06417 0.0
C2786 C 0.26947 0.35679 0.12473 0.0
C2787 C 0.26028 0.34173 0.03115 0.0
C2788 C 0.26075 0.34186 0.96721 0.0
C2789 C 0.27758 0.34884 0.93761 0.0
C2790 C 0.27791 0.34897 0.87727 0.0
C2791 C 0.26148 0.342 0.8461 0.0
C2792 C 0.24467 0.33484 0.87521 0.0
C2793 C 0.24427 0.3347 0.93556 0.0
H2794 H 0.26176 0.34211 0.79939 0.0
H2795 H 0.269 0.33881 0.38264 0.0
H2796 H 0.93717 0.4007 0.10611 0.0
H2797 H 0.96713 0.42064 0.15248 0.0
H2798 H 0.96317 0.37338 0.24041 0.0
H2799 H 0.93335 0.35376 0.19625 0.0
H2800 H 0.97543 0.40009 0.3126 0.0
H2801 H 0.99009 0.39335 0.1142 0.0
H2802 H 0.98908 0.3963 0.00846 0.0
H2803 H 0.01216 0.45479 0.02548 0.0
H2804 H 0.01311 0.45214 0.13143 0.0
H2805 H 0.07767 0.43007 0.27822 0.0
H2806 H 0.0474 0.42055 0.23906 0.0
H2807 H 0.0372 0.44893 0.37692 0.0
H2808 H 0.06771 0.45826 0.4178 0.0
H2809 H 0.0316 0.43761 0.19581 0.0
H2810 H 0.99044 0.42541 0.40491 0.0
H2811 H 0.99181 0.41865 0.50796 0.0
H2812 H 0.02239 0.3917 0.46503 0.0
H2813 H 0.02099 0.39811 0.36176 0.0
C2814 C 0.94276 0.39463 0.13525 0.0
C2815 C 0.93286 0.37565 0.14745 0.0
C2816 C 0.95987 0.40602 0.16179 0.0
C2817 C 0.96749 0.39854 0.20003 0.0
C2818 C 0.95758 0.37958 0.21175 0.0
C2819 C 0.9405 0.36833 0.18609 0.0
C2820 C 0.98595 0.40998 0.22718 0.0
C2821 C 0.98768 0.40846 0.28705 0.0
C2822 C 0.00202 0.42093 0.19421 0.0
C2823 C 0.00144 0.42252 0.13066 0.0
C2824 C 0.99482 0.40682 0.09537 0.0
C2825 C 0.99428 0.40844 0.03543 0.0
C2826 C 0.00049 0.42571 0.01028 0.0
C2827 C 0.00731 0.44141 0.04503 0.0
C2828 C 0.00785 0.43986 0.105 0.0
C2829 C 0.0691 0.43439 0.3005 0.0
C2830 C 0.07519 0.44491 0.3515 0.0
C2831 C 0.05175 0.42899 0.27766 0.0
C2832 C 0.03993 0.43397 0.30486 0.0
C2833 C 0.04599 0.44474 0.35538 0.0
C2834 C 0.06343 0.45006 0.37875 0.0
C2835 C 0.02111 0.42707 0.28072 0.0
C2836 C 0.01931 0.42958 0.22156 0.0
C2837 C 0.00502 0.41653 0.31398 0.0
C2838 C 0.00583 0.41247 0.37582 0.0
C2839 C 0.99743 0.41803 0.41753 0.0
C2840 C 0.9982 0.41425 0.47594 0.0
C2841 C 0.00725 0.40482 0.49305 0.0
C2842 C 0.01546 0.39907 0.45175 0.0
C2843 C 0.01469 0.40278 0.3933 0.0
H2844 H 0.00785 0.40193 0.53828 0.0
H2845 H 1.00007 0.42694 0.96387 0.0
H2846 H 0.61087 0.5416 0.13242 0.0
H2847 H 0.5922 0.55247 0.18224 0.0
H2848 H 0.64084 0.60582 0.20571 0.0
H2849 H 0.65949 0.59452 0.15986 0.0
H2850 H 0.62406 0.59792 0.29873 0.0
H2851 H 0.60361 0.59472 0.10198 0.0
H2852 H 0.59029 0.57978 0.00867 0.0
H2853 H 0.54009 0.54111 0.09358 0.0
H2854 H 0.5532 0.5557 0.18752 0.0
H2855 H 0.58833 0.65849 0.31435 0.0
H2856 H 0.59981 0.63915 0.27494 0.0
H2857 H 0.55566 0.59158 0.35838 0.0
H2858 H 0.54414 0.61106 0.3995 0.0
H2859 H 0.56592 0.59169 0.222 0.0
H2860 H 0.58822 0.59982 0.42001 0.0
H2861 H 0.603 0.61889 0.50612 0.0
H2862 H 0.65195 0.65292 0.40794 0.0
H2863 H 0.63736 0.63418 0.32105 0.0
C2864 C 0.61742 0.55568 0.14784 0.0
C2865 C 0.63655 0.56727 0.14238 0.0
C2866 C 0.60677 0.56193 0.17615 0.0
C2867 C 0.61502 0.58007 0.19762 0.0
C2868 C 0.63409 0.59173 0.19027 0.0
C2869 C 0.64475 0.58533 0.16368 0.0
C2870 C 0.60418 0.58699 0.22936 0.0
C2871 C 0.61137 0.59653 0.28153 0.0
C2872 C 0.58735 0.58493 0.20819 0.0
C2873 C 0.57947 0.57615 0.15181 0.0
C2874 C 0.58978 0.58294 0.10078 0.0
C2875 C 0.58226 0.57455 0.04779 0.0
C2876 C 0.56438 0.55947 0.04522 0.0
C2877 C 0.55395 0.55277 0.09564 0.0
C2878 C 0.56142 0.56109 0.14876 0.0
C2879 C 0.58099 0.64391 0.3244 0.0
C2880 C 0.5653 0.63629 0.36007 0.0
C2881 C 0.58758 0.6329 0.30179 0.0
C2882 C 0.57853 0.61399 0.31365 0.0
C2883 C 0.56276 0.60618 0.34873 0.0
C2884 C 0.55629 0.61731 0.3724 0.0
C2885 C 0.58613 0.60281 0.28981 0.0
C2886 C 0.57839 0.5926 0.23931 0.0
C2887 C 0.60271 0.60464 0.3115 0.0
C2888 C 0.61165 0.61567 0.36399 0.0
C2889 C 0.60209 0.61144 0.41671 0.0
C2890 C 0.61044 0.62217 0.46567 0.0
C2891 C 0.62839 0.63712 0.46248 0.0
C2892 C 0.63805 0.64133 0.41036 0.0
C2893 C 0.62975 0.63064 0.36128 0.0
H2894 H 0.63483 0.64543 0.50041 0.0
H2895 H 0.55858 0.553 0.00415 0.0
H2896 H 0.35474 0.93942 0.31844 0.0
H2897 H 0.37621 0.96873 0.27395 0.0
H2898 H 0.4208 0.97104 0.37391 0.0
H2899 H 0.39907 0.94167 0.4202 0.0
H2900 H 0.42524 0.00424 0.36594 0.0
H2901 H 0.41676 0.95923 0.23212 0.0
H2902 H 0.40036 0.93085 0.17412 0.0
H2903 H 0.37187 0.95371 0.0825 0.0
H2904 H 0.38786 0.98211 0.14058 0.0
H2905 H 0.45956 0.06674 0.08434 0.0
H2906 H 0.45168 0.03745 0.13151 0.0
H2907 H 0.42319 0.04902 0.26567 0.0
H2908 H 0.43124 0.07813 0.22014 0.0
H2909 H 0.42089 0.00782 0.15304 0.0
H2910 H 0.4263 0.03392 0.39278 0.0
H2911 H 0.44704 0.06166 0.44906 0.0
H2912 H 0.49024 0.07576 0.32546 0.0
H2913 H 0.46988 0.04798 0.26881 0.0
C2914 C 0.36909 0.9462 0.3314 0.0
C2915 C 0.37524 0.93816 0.37247 0.0
C2916 C 0.38139 0.96291 0.3056 0.0
C2917 C 0.40023 0.97183 0.31926 0.0
C2918 C 0.40635 0.9643 0.36225 0.0
C2919 C 0.39393 0.94758 0.3888 0.0
C2920 C 0.41321 0.98893 0.28788 0.0
C2921 C 0.42444 0.00503 0.3194 0.0
C2922 C 0.41305 0.98978 0.22679 0.0
C2923 C 0.4035 0.97282 0.19094 0.0
C2924 C 0.40693 0.95818 0.19981 0.0
C2925 C 0.39771 0.94209 0.16691 0.0
C2926 C 0.38507 0.94048 0.12469 0.0
C2927 C 0.38167 0.95499 0.1152 0.0
C2928 C 0.39084 0.97111 0.14805 0.0
C2929 C 0.45164 0.06302 0.12395 0.0
C2930 C 0.44613 0.07486 0.14855 0.0
C2931 C 0.4472 0.04631 0.15093 0.0
C2932 C 0.43721 0.04121 0.20292 0.0
C2933 C 0.43141 0.05287 0.22664 0.0
C2934 C 0.43591 0.0695 0.20012 0.0
C2935 C 0.43176 0.02333 0.23154 0.0
C2936 C 0.42203 0.00704 0.19946 0.0
C2937 C 0.43409 0.02222 0.29176 0.0
C2938 C 0.44648 0.03885 0.32633 0.0
C2939 C 0.44026 0.04285 0.37777 0.0
C2940 C 0.45194 0.05861 0.40969 0.0
C2941 C 0.46993 0.07048 0.39077 0.0
C2942 C 0.47628 0.06658 0.33996 0.0
C2943 C 0.46466 0.05084 0.30789 0.0
H2944 H 0.47894 0.08269 0.4155 0.0
H2945 H 0.37793 0.928 0.09929 0.0
H2946 H 0.55098 0.94337 0.93098 0.0
H2947 H 0.55912 0.97351 0.8896 0.0
H2948 H 0.5886 0.96463 0.75237 0.0
H2949 H 0.58043 0.93477 0.79234 0.0
H2950 H 0.59039 0.00404 0.87022 0.0
H2951 H 0.58406 0.98048 0.62757 0.0
H2952 H 0.56348 0.95309 0.56966 0.0
H2953 H 0.52071 0.93698 0.69623 0.0
H2954 H 0.54091 0.9644 0.75452 0.0
H2955 H 0.65476 0.07416 0.70282 0.0
H2956 H 0.63379 0.04539 0.75052 0.0
H2957 H 0.58822 0.04206 0.65359 0.0
H2958 H 0.60946 0.07093 0.60392 0.0
H2959 H 0.58439 0.00956 0.65896 0.0
H2960 H 0.59298 0.05293 0.79983 0.0
H2961 H 0.60908 0.08051 0.8614 0.0
H2962 H 0.63918 0.05769 0.94325 0.0
H2963 H 0.62339 0.03002 0.88184 0.0
C2964 C 0.55925 0.9479 0.89209 0.0
C2965 C 0.56492 0.93655 0.86482 0.0
C2966 C 0.56383 0.96509 0.86841 0.0
C2967 C 0.5741 0.97115 0.81707 0.0
C2968 C 0.58021 0.96006 0.79102 0.0
C2969 C 0.57561 0.94297 0.8143 0.0
C2970 C 0.57918 0.98927 0.79081 0.0
C2971 C 0.58892 0.00527 0.82418 0.0
C2972 C 0.5764 0.9909 0.73123 0.0
C2973 C 0.56408 0.97451 0.69562 0.0
C2974 C 0.57022 0.97119 0.64289 0.0
C2975 C 0.55863 0.95562 0.61004 0.0
C2976 C 0.54081 0.94328 0.62931 0.0
C2977 C 0.53453 0.94652 0.68142 0.0
C2978 C 0.54606 0.96206 0.71442 0.0
C2979 C 0.64028 0.06738 0.69149 0.0
C2980 C 0.63379 0.07494 0.64972 0.0
C2981 C 0.62824 0.05095 0.71927 0.0
C2982 C 0.6093 0.04176 0.70697 0.0
C2983 C 0.60275 0.04899 0.66428 0.0
C2984 C 0.6149 0.06545 0.63581 0.0
C2985 C 0.59677 0.02428 0.73769 0.0
C2986 C 0.58554 0.00839 0.70519 0.0
C2987 C 0.59745 0.02281 0.79853 0.0
C2988 C 0.60702 0.03939 0.83596 0.0
C2989 C 0.60311 0.05382 0.83072 0.0
C2990 C 0.61217 0.06948 0.86564 0.0
C2991 C 0.62518 0.07087 0.90609 0.0
C2992 C 0.62909 0.05658 0.91189 0.0
C2993 C 0.62005 0.04088 0.87714 0.0
H2994 H 0.63222 0.08302 0.93297 0.0
H2995 H 0.53187 0.93123 0.60386 0.0
H2996 H 0.0607 0.62741 0.93416 0.0
H2997 H 0.03013 0.60863 0.89053 0.0
H2998 H 0.05523 0.61733 0.72214 0.0
H2999 H 0.08551 0.63665 0.76519 0.0
H3000 H 0.02885 0.6238 0.71493 0.0
H3001 H 0.03429 0.57431 0.79662 0.0
H3002 H 0.03953 0.5569 0.87286 0.0
H3003 H 0.99337 0.5521 0.96809 0.0
H3004 H 0.98801 0.56972 0.89281 0.0
H3005 H 0.9455 0.56346 0.56793 0.0
H3006 H 0.97622 0.57509 0.60994 0.0
H3007 H 0.95465 0.57533 0.77871 0.0
H3008 H 0.92403 0.56363 0.73755 0.0
H3009 H 0.97931 0.5628 0.78229 0.0
H3010 H 0.97567 0.61416 0.70063 0.0
H3011 H 0.97063 0.63111 0.62229 0.0
H3012 H 0.01421 0.63144 0.52387 0.0
H3013 H 0.01931 0.61423 0.60125 0.0
C3014 C 0.05964 0.62503 0.88799 0.0
C3015 C 0.07542 0.63358 0.853 0.0
C3016 C 0.04219 0.61425 0.86302 0.0
C3017 C 0.04031 0.61146 0.80286 0.0
C3018 C 0.05623 0.61936 0.76848 0.0
C3019 C 0.07355 0.63038 0.79317 0.0
C3020 C 0.02182 0.60155 0.7749 0.0
C3021 C 0.01818 0.6103 0.72912 0.0
C3022 C 0.00766 0.58408 0.7939 0.0
C3023 C 0.01086 0.57349 0.8393 0.0
C3024 C 0.02534 0.56967 0.83404 0.0
C3025 C 0.02832 0.55974 0.87705 0.0
C3026 C 0.01682 0.55344 0.92536 0.0
C3027 C 0.00228 0.55701 0.93069 0.0
C3028 C 0.99926 0.56696 0.88783 0.0
C3029 C 0.94725 0.5658 0.61406 0.0
C3030 C 0.9323 0.56279 0.64919 0.0
C3031 C 0.96482 0.57249 0.63797 0.0
C3032 C 0.96774 0.57626 0.69739 0.0
C3033 C 0.95272 0.57254 0.73279 0.0
C3034 C 0.93522 0.56596 0.709 0.0
C3035 C 0.98656 0.58506 0.72254 0.0
C3036 C 0.99016 0.57618 0.76789 0.0
C3037 C 0.00078 0.60234 0.70287 0.0
C3038 C 0.99774 0.61274 0.65646 0.0
C3039 C 0.98408 0.61772 0.66208 0.0
C3040 C 0.98122 0.62739 0.61788 0.0
C3041 C 0.99207 0.63232 0.5681 0.0
C3042 C 0.0058 0.6276 0.56242 0.0
C3043 C 0.00868 0.61789 0.60643 0.0
H3044 H 0.98989 0.63986 0.534 0.0
H3045 H 0.01914 0.54574 0.9586 0.0
H3046 H 0.44049 0.38267 0.56926 0.0
H3047 H 0.42988 0.40214 0.61461 0.0
H3048 H 0.44513 0.39128 0.78191 0.0
H3049 H 0.45513 0.37143 0.73714 0.0
H3050 H 0.41245 0.38634 0.78832 0.0
H3051 H 0.46918 0.43455 0.7128 0.0
H3052 H 0.49286 0.45158 0.6389 0.0
H3053 H 0.45405 0.45989 0.54112 0.0
H3054 H 0.43005 0.44266 0.61409 0.0
H3055 H 0.3912 0.44797 0.93524 0.0
H3056 H 0.41044 0.4363 0.89446 0.0
H3057 H 0.38979 0.43678 0.7243 0.0
H3058 H 0.3706 0.44836 0.7644 0.0
H3059 H 0.42752 0.44885 0.72462 0.0
H3060 H 0.37045 0.39801 0.79746 0.0
H3061 H 0.34712 0.38118 0.87257 0.0
H3062 H 0.388 0.37852 0.97756 0.0
H3063 H 0.41163 0.39558 0.90333 0.0
C3064 C 0.44178 0.38464 0.61559 0.0
C3065 C 0.44845 0.37536 0.64965 0.0
C3066 C 0.43579 0.39584 0.64153 0.0
C3067 C 0.43676 0.39828 0.70182 0.0
C3068 C 0.44409 0.38955 0.73545 0.0
C3069 C 0.44981 0.37818 0.70974 0.0
C3070 C 0.42897 0.40881 0.73044 0.0
C3071 C 0.41608 0.40016 0.77502 0.0
C3072 C 0.43336 0.42673 0.71262 0.0
C3073 C 0.44777 0.43716 0.6687 0.0
C3074 C 0.46565 0.43988 0.67533 0.0
C3075 C 0.47914 0.44959 0.63363 0.0
C3076 C 0.47495 0.45677 0.58526 0.0
C3077 C 0.45727 0.4543 0.57858 0.0
C3078 C 0.44372 0.44457 0.62013 0.0
C3079 C 0.39097 0.44583 0.88907 0.0
C3080 C 0.37919 0.44887 0.8532 0.0
C3081 C 0.40193 0.43913 0.86585 0.0
C3082 C 0.4014 0.43552 0.8064 0.0
C3083 C 0.3904 0.43946 0.77024 0.0
C3084 C 0.37933 0.44595 0.79338 0.0
C3085 C 0.41114 0.42633 0.78211 0.0
C3086 C 0.42422 0.43515 0.73827 0.0
C3087 C 0.40706 0.40862 0.80077 0.0
C3088 C 0.39284 0.39825 0.84518 0.0
C3089 C 0.37449 0.39396 0.83677 0.0
C3090 C 0.36121 0.38436 0.87914 0.0
C3091 C 0.36609 0.37883 0.92989 0.0
C3092 C 0.38425 0.38284 0.93828 0.0
C3093 C 0.39758 0.39247 0.89608 0.0
H3094 H 0.35579 0.3714 0.96264 0.0
H3095 H 0.48541 0.46429 0.55302 0.0
loop_
_geom_bond_atom_site_label_1
_geom_bond_atom_site_label_2
_geom_bond_distance
_geom_bond_site_symmetry_2
_ccdc_geom_bond_type
Sc0 O3 2.025 . S
Sc0 O10 2.105 . S
Sc0 O13 2.105 1_455 S
Sc0 O16 2.105 1_455 S
Sc0 O19 2.105 . S
Sc1 O3 2.025 . S
Sc1 O11 2.105 . S
Sc1 O15 2.105 1_455 S
Sc1 O17 2.105 1_455 S
Sc1 O21 2.105 . S
Sc2 O3 2.025 . S
Sc2 O12 2.105 . S
Sc2 O14 2.105 1_455 S
Sc2 O18 2.105 1_455 S
Sc2 O20 2.105 . S
O3 Sc0 2.025 . S
O3 Sc1 2.025 . S
O3 Sc2 2.025 . S
C4 O10 1.268 . S
C4 O20 1.268 . S
C5 O11 1.268 . S
C5 O19 1.268 . S
C6 O12 1.268 . S
C6 O21 1.268 . S
C7 O13 1.268 . S
C7 O17 1.268 . S
C8 O14 1.268 . S
C8 O16 1.268 . S
C9 O15 1.268 . S
C9 O18 1.268 . S
O10 Sc0 2.105 . S
O10 C4 1.268 . S
O11 Sc1 2.105 . S
O11 C5 1.268 . S
O12 Sc2 2.105 . S
O12 C6 1.268 . S
O13 Sc0 2.105 1_655 S
O13 C7 1.268 . S
O14 Sc2 2.105 1_655 S
O14 C8 1.268 . S
O15 Sc1 2.105 1_655 S
O15 C9 1.268 . S
O16 Sc0 2.105 1_655 S
O16 C8 1.268 . S
O17 Sc1 2.105 1_655 S
O17 C7 1.268 . S
O18 Sc2 2.105 1_655 S
O18 C9 1.268 . S
O19 Sc0 2.105 . S
O19 C5 1.268 . S
O20 Sc2 2.105 . S
O20 C4 1.268 . S
O21 Sc1 2.105 . S
O21 C6 1.268 . S
Sc22 O25 2.025 . S
Sc22 O32 2.105 . S
Sc22 O35 2.105 . S
Sc22 O38 2.105 . S
Sc22 O41 2.105 . S
Sc23 O25 2.025 . S
Sc23 O33 2.105 . S
Sc23 O37 2.105 . S
Sc23 O39 2.105 . S
Sc23 O43 2.105 . S
Sc24 O25 2.025 . S
Sc24 O34 2.105 . S
Sc24 O36 2.105 . S
Sc24 O40 2.105 . S
Sc24 O42 2.105 . S
O25 Sc22 2.025 . S
O25 Sc23 2.025 . S
O25 Sc24 2.025 . S
C26 O32 1.268 . S
C26 O42 1.268 . S
C27 O33 1.268 . S
C27 O41 1.268 . S
C28 O34 1.268 . S
C28 O43 1.268 . S
C29 O35 1.268 . S
C29 O39 1.268 . S
C30 O36 1.268 . S
C30 O38 1.268 . S
C31 O37 1.268 . S
C31 O40 1.268 . S
O32 Sc22 2.105 . S
O32 C26 1.268 . S
O33 Sc23 2.105 . S
O33 C27 1.268 . S
O34 Sc24 2.105 . S
O34 C28 1.268 . S
O35 Sc22 2.105 . S
O35 C29 1.268 . S
O36 Sc24 2.105 . S
O36 C30 1.268 . S
O37 Sc23 2.105 . S
O37 C31 1.268 . S
O38 Sc22 2.105 . S
O38 C30 1.268 . S
O39 Sc23 2.105 . S
O39 C29 1.268 . S
O40 Sc24 2.105 . S
O40 C31 1.268 . S
O41 Sc22 2.105 . S
O41 C27 1.268 . S
O42 Sc24 2.105 . S
O42 C26 1.268 . S
O43 Sc23 2.105 . S
O43 C28 1.268 . S
Sc44 O47 2.025 . S
Sc44 O54 2.105 1_545 S
Sc44 O57 2.105 . S
Sc44 O60 2.105 . S
Sc44 O63 2.105 1_545 S
Sc45 O47 2.025 . S
Sc45 O55 2.105 1_545 S
Sc45 O59 2.105 . S
Sc45 O61 2.105 . S
Sc45 O65 2.105 1_545 S
Sc46 O47 2.025 . S
Sc46 O56 2.105 1_545 S
Sc46 O58 2.105 . S
Sc46 O62 2.105 . S
Sc46 O64 2.105 1_545 S
O47 Sc44 2.025 . S
O47 Sc45 2.025 . S
O47 Sc46 2.025 . S
C48 O54 1.268 . S
C48 O64 1.268 . S
C49 O55 1.268 . S
C49 O63 1.268 . S
C50 O56 1.268 . S
C50 O65 1.268 . S
C51 O57 1.268 . S
C51 O61 1.268 . S
C52 O58 1.268 . S
C52 O60 1.268 . S
C53 O59 1.268 . S
C53 O62 1.268 . S
O54 Sc44 2.105 1_565 S
O54 C48 1.268 . S
O55 Sc45 2.105 1_565 S
O55 C49 1.268 . S
O56 Sc46 2.105 1_565 S
O56 C50 1.268 . S
O57 Sc44 2.105 . S
O57 C51 1.268 . S
O58 Sc46 2.105 . S
O58 C52 1.268 . S
O59 Sc45 2.105 . S
O59 C53 1.268 . S
O60 Sc44 2.105 . S
O60 C52 1.268 . S
O61 Sc45 2.105 . S
O61 C51 1.268 . S
O62 Sc46 2.105 . S
O62 C53 1.268 . S
O63 Sc44 2.105 1_565 S
O63 C49 1.268 . S
O64 Sc46 2.105 1_565 S
O64 C48 1.268 . S
O65 Sc45 2.105 1_565 S
O65 C50 1.268 . S
Sc66 O69 2.025 . S
Sc66 O76 2.105 . S
Sc66 O79 2.105 1_455 S
Sc66 O82 2.105 1_455 S
Sc66 O85 2.105 . S
Sc67 O69 2.025 . S
Sc67 O77 2.105 . S
Sc67 O81 2.105 1_455 S
Sc67 O83 2.105 1_455 S
Sc67 O87 2.105 . S
Sc68 O69 2.025 . S
Sc68 O78 2.105 . S
Sc68 O80 2.105 1_455 S
Sc68 O84 2.105 1_455 S
Sc68 O86 2.105 . S
O69 Sc66 2.025 . S
O69 Sc67 2.025 . S
O69 Sc68 2.025 . S
C70 O76 1.268 . S
C70 O86 1.268 . S
C71 O77 1.268 . S
C71 O85 1.268 . S
C72 O78 1.268 . S
C72 O87 1.268 . S
C73 O79 1.268 . S
C73 O83 1.268 . S
C74 O80 1.268 . S
C74 O82 1.268 . S
C75 O81 1.268 . S
C75 O84 1.268 . S
O76 Sc66 2.105 . S
O76 C70 1.268 . S
O77 Sc67 2.105 . S
O77 C71 1.268 . S
O78 Sc68 2.105 . S
O78 C72 1.268 . S
O79 Sc66 2.105 1_655 S
O79 C73 1.268 . S
O80 Sc68 2.105 1_655 S
O80 C74 1.268 . S
O81 Sc67 2.105 1_655 S
O81 C75 1.268 . S
O82 Sc66 2.105 1_655 S
O82 C74 1.268 . S
O83 Sc67 2.105 1_655 S
O83 C73 1.268 . S
O84 Sc68 2.105 1_655 S
O84 C75 1.268 . S
O85 Sc66 2.105 . S
O85 C71 1.268 . S
O86 Sc68 2.105 . S
O86 C70 1.268 . S
O87 Sc67 2.105 . S
O87 C72 1.268 . S
Sc88 O91 2.025 . S
Sc88 O98 2.105 . S
Sc88 O101 2.105 . S
Sc88 O104 2.105 . S
Sc88 O107 2.105 . S
Sc89 O91 2.025 . S
Sc89 O99 2.105 . S
Sc89 O103 2.105 . S
Sc89 O105 2.105 . S
Sc89 O109 2.105 . S
Sc90 O91 2.025 . S
Sc90 O100 2.105 . S
Sc90 O102 2.105 . S
Sc90 O106 2.105 . S
Sc90 O108 2.105 . S
O91 Sc88 2.025 . S
O91 Sc89 2.025 . S
O91 Sc90 2.025 . S
C92 O98 1.268 . S
C92 O108 1.268 . S
C93 O99 1.268 . S
C93 O107 1.268 . S
C94 O100 1.268 . S
C94 O109 1.268 . S
C95 O101 1.268 . S
C95 O105 1.268 . S
C96 O102 1.268 . S
C96 O104 1.268 . S
C97 O103 1.268 . S
C97 O106 1.268 . S
O98 Sc88 2.105 . S
O98 C92 1.268 . S
O99 Sc89 2.105 . S
O99 C93 1.268 . S
O100 Sc90 2.105 . S
O100 C94 1.268 . S
O101 Sc88 2.105 . S
O101 C95 1.268 . S
O102 Sc90 2.105 . S
O102 C96 1.268 . S
O103 Sc89 2.105 . S
O103 C97 1.268 . S
O104 Sc88 2.105 . S
O104 C96 1.268 . S
O105 Sc89 2.105 . S
O105 C95 1.268 . S
O106 Sc90 2.105 . S
O106 C97 1.268 . S
O107 Sc88 2.105 . S
O107 C93 1.268 . S
O108 Sc90 2.105 . S
O108 C92 1.268 . S
O109 Sc89 2.105 . S
O109 C94 1.268 . S
Sc110 O113 2.025 . S
Sc110 O120 2.105 1_545 S
Sc110 O123 2.105 . S
Sc110 O126 2.105 . S
Sc110 O129 2.105 1_545 S
Sc111 O113 2.025 . S
Sc111 O121 2.105 1_545 S
Sc111 O125 2.105 . S
Sc111 O127 2.105 . S
Sc111 O131 2.105 1_545 S
Sc112 O113 2.025 . S
Sc112 O122 2.105 1_545 S
Sc112 O124 2.105 . S
Sc112 O128 2.105 . S
Sc112 O130 2.105 1_545 S
O113 Sc110 2.025 . S
O113 Sc111 2.025 . S
O113 Sc112 2.025 . S
C114 O120 1.268 . S
C114 O130 1.268 . S
C115 O121 1.268 . S
C115 O129 1.268 . S
C116 O122 1.268 . S
C116 O131 1.268 . S
C117 O123 1.268 . S
C117 O127 1.268 . S
C118 O124 1.268 . S
C118 O126 1.268 . S
C119 O125 1.268 . S
C119 O128 1.268 . S
O120 Sc110 2.105 1_565 S
O120 C114 1.268 . S
O121 Sc111 2.105 1_565 S
O121 C115 1.268 . S
O122 Sc112 2.105 1_565 S
O122 C116 1.268 . S
O123 Sc110 2.105 . S
O123 C117 1.268 . S
O124 Sc112 2.105 . S
O124 C118 1.268 . S
O125 Sc111 2.105 . S
O125 C119 1.268 . S
O126 Sc110 2.105 . S
O126 C118 1.268 . S
O127 Sc111 2.105 . S
O127 C117 1.268 . S
O128 Sc112 2.105 . S
O128 C119 1.268 . S
O129 Sc110 2.105 1_565 S
O129 C115 1.268 . S
O130 Sc112 2.105 1_565 S
O130 C114 1.268 . S
O131 Sc111 2.105 1_565 S
O131 C116 1.268 . S
Sc132 O135 2.025 . S
Sc132 O142 2.105 . S
Sc132 O145 2.105 . S
Sc132 O148 2.105 . S
Sc132 O151 2.105 . S
Sc133 O135 2.025 . S
Sc133 O143 2.105 . S
Sc133 O147 2.105 . S
Sc133 O149 2.105 . S
Sc133 O153 2.105 . S
Sc134 O135 2.025 . S
Sc134 O144 2.105 . S
Sc134 O146 2.105 1_554 S
Sc134 O150 2.105 . S
Sc134 O152 2.105 1_554 S
O135 Sc132 2.025 . S
O135 Sc133 2.025 . S
O135 Sc134 2.025 . S
C136 O142 1.268 1_556 S
C136 O152 1.268 . S
C137 O143 1.268 . S
C137 O151 1.268 . S
C138 O144 1.268 . S
C138 O153 1.268 . S
C139 O145 1.268 . S
C139 O149 1.268 . S
C140 O146 1.268 . S
C140 O148 1.268 1_556 S
C141 O147 1.268 . S
C141 O150 1.268 . S
O142 Sc132 2.105 . S
O142 C136 1.268 1_554 S
O143 Sc133 2.105 . S
O143 C137 1.268 . S
O144 Sc134 2.105 . S
O144 C138 1.268 . S
O145 Sc132 2.105 . S
O145 C139 1.268 . S
O146 Sc134 2.105 1_556 S
O146 C140 1.268 . S
O147 Sc133 2.105 . S
O147 C141 1.268 . S
O148 Sc132 2.105 . S
O148 C140 1.268 1_554 S
O149 Sc133 2.105 . S
O149 C139 1.268 . S
O150 Sc134 2.105 . S
O150 C141 1.268 . S
O151 Sc132 2.105 . S
O151 C137 1.268 . S
O152 Sc134 2.105 1_556 S
O152 C136 1.268 . S
O153 Sc133 2.105 . S
O153 C138 1.268 . S
Sc154 O157 2.025 . S
Sc154 O164 2.105 . S
Sc154 O167 2.105 . S
Sc154 O170 2.105 . S
Sc154 O173 2.105 . S
Sc155 O157 2.025 . S
Sc155 O165 2.105 . S
Sc155 O169 2.105 . S
Sc155 O171 2.105 . S
Sc155 O175 2.105 . S
Sc156 O157 2.025 . S
Sc156 O166 2.105 . S
Sc156 O168 2.105 1_554 S
Sc156 O172 2.105 . S
Sc156 O174 2.105 1_554 S
O157 Sc154 2.025 . S
O157 Sc155 2.025 . S
O157 Sc156 2.025 . S
C158 O164 1.268 1_556 S
C158 O174 1.268 . S
C159 O165 1.268 . S
C159 O173 1.268 . S
C160 O166 1.268 . S
C160 O175 1.268 . S
C161 O167 1.268 . S
C161 O171 1.268 . S
C162 O168 1.268 . S
C162 O170 1.268 1_556 S
C163 O169 1.268 . S
C163 O172 1.268 . S
O164 Sc154 2.105 . S
O164 C158 1.268 1_554 S
O165 Sc155 2.105 . S
O165 C159 1.268 . S
O166 Sc156 2.105 . S
O166 C160 1.268 . S
O167 Sc154 2.105 . S
O167 C161 1.268 . S
O168 Sc156 2.105 1_556 S
O168 C162 1.268 . S
O169 Sc155 2.105 . S
O169 C163 1.268 . S
O170 Sc154 2.105 . S
O170 C162 1.268 1_554 S
O171 Sc155 2.105 . S
O171 C161 1.268 . S
O172 Sc156 2.105 . S
O172 C163 1.268 . S
O173 Sc154 2.105 . S
O173 C159 1.268 . S
O174 Sc156 2.105 1_556 S
O174 C158 1.268 . S
O175 Sc155 2.105 . S
O175 C160 1.268 . S
Sc176 O179 2.025 . S
Sc176 O186 2.105 . S
Sc176 O189 2.105 . S
Sc176 O192 2.105 . S
Sc176 O195 2.105 . S
Sc177 O179 2.025 . S
Sc177 O187 2.105 . S
Sc177 O191 2.105 . S
Sc177 O193 2.105 . S
Sc177 O197 2.105 . S
Sc178 O179 2.025 . S
Sc178 O188 2.105 . S
Sc178 O190 2.105 1_554 S
Sc178 O194 2.105 . S
Sc178 O196 2.105 1_554 S
O179 Sc176 2.025 . S
O179 Sc177 2.025 . S
O179 Sc178 2.025 . S
C180 O186 1.268 1_556 S
C180 O196 1.268 . S
C181 O187 1.268 . S
C181 O195 1.268 . S
C182 O188 1.268 . S
C182 O197 1.268 . S
C183 O189 1.268 . S
C183 O193 1.268 . S
C184 O190 1.268 . S
C184 O192 1.268 1_556 S
C185 O191 1.268 . S
C185 O194 1.268 . S
O186 Sc176 2.105 . S
O186 C180 1.268 1_554 S
O187 Sc177 2.105 . S
O187 C181 1.268 . S
O188 Sc178 2.105 . S
O188 C182 1.268 . S
O189 Sc176 2.105 . S
O189 C183 1.268 . S
O190 Sc178 2.105 1_556 S
O190 C184 1.268 . S
O191 Sc177 2.105 . S
O191 C185 1.268 . S
O192 Sc176 2.105 . S
O192 C184 1.268 1_554 S
O193 Sc177 2.105 . S
O193 C183 1.268 . S
O194 Sc178 2.105 . S
O194 C185 1.268 . S
O195 Sc176 2.105 . S
O195 C181 1.268 . S
O196 Sc178 2.105 1_556 S
O196 C180 1.268 . S
O197 Sc177 2.105 . S
O197 C182 1.268 . S
Sc198 O201 2.025 . S
Sc198 O208 2.105 . S
Sc198 O211 2.105 . S
Sc198 O214 2.105 . S
Sc198 O217 2.105 . S
Sc199 O201 2.025 . S
Sc199 O209 2.105 . S
Sc199 O213 2.105 . S
Sc199 O215 2.105 . S
Sc199 O219 2.105 . S
Sc200 O201 2.025 . S
Sc200 O210 2.105 . S
Sc200 O212 2.105 . S
Sc200 O216 2.105 . S
Sc200 O218 2.105 . S
O201 Sc198 2.025 . S
O201 Sc199 2.025 . S
O201 Sc200 2.025 . S
C202 O208 1.268 . S
C202 O218 1.268 . S
C203 O209 1.268 . S
C203 O217 1.268 . S
C204 O210 1.268 . S
C204 O219 1.268 . S
C205 O211 1.268 . S
C205 O215 1.268 . S
C206 O212 1.268 . S
C206 O214 1.268 . S
C207 O213 1.268 . S
C207 O216 1.268 . S
O208 Sc198 2.105 . S
O208 C202 1.268 . S
O209 Sc199 2.105 . S
O209 C203 1.268 . S
O210 Sc200 2.105 . S
O210 C204 1.268 . S
O211 Sc198 2.105 . S
O211 C205 1.268 . S
O212 Sc200 2.105 . S
O212 C206 1.268 . S
O213 Sc199 2.105 . S
O213 C207 1.268 . S
O214 Sc198 2.105 . S
O214 C206 1.268 . S
O215 Sc199 2.105 . S
O215 C205 1.268 . S
O216 Sc200 2.105 . S
O216 C207 1.268 . S
O217 Sc198 2.105 . S
O217 C203 1.268 . S
O218 Sc200 2.105 . S
O218 C202 1.268 . S
O219 Sc199 2.105 . S
O219 C204 1.268 . S
Sc220 O223 2.025 . S
Sc220 O230 2.105 . S
Sc220 O233 2.105 . S
Sc220 O236 2.105 . S
Sc220 O239 2.105 . S
Sc221 O223 2.025 . S
Sc221 O231 2.105 . S
Sc221 O235 2.105 . S
Sc221 O237 2.105 . S
Sc221 O241 2.105 . S
Sc222 O223 2.025 . S
Sc222 O232 2.105 . S
Sc222 O234 2.105 . S
Sc222 O238 2.105 . S
Sc222 O240 2.105 . S
O223 Sc220 2.025 . S
O223 Sc221 2.025 . S
O223 Sc222 2.025 . S
C224 O230 1.268 . S
C224 O240 1.268 . S
C225 O231 1.268 . S
C225 O239 1.268 . S
C226 O232 1.268 . S
C226 O241 1.268 . S
C227 O233 1.268 . S
C227 O237 1.268 . S
C228 O234 1.268 . S
C228 O236 1.268 . S
C229 O235 1.268 . S
C229 O238 1.268 . S
O230 Sc220 2.105 . S
O230 C224 1.268 . S
O231 Sc221 2.105 . S
O231 C225 1.268 . S
O232 Sc222 2.105 . S
O232 C226 1.268 . S
O233 Sc220 2.105 . S
O233 C227 1.268 . S
O234 Sc222 2.105 . S
O234 C228 1.268 . S
O235 Sc221 2.105 . S
O235 C229 1.268 . S
O236 Sc220 2.105 . S
O236 C228 1.268 . S
O237 Sc221 2.105 . S
O237 C227 1.268 . S
O238 Sc222 2.105 . S
O238 C229 1.268 . S
O239 Sc220 2.105 . S
O239 C225 1.268 . S
O240 Sc222 2.105 . S
O240 C224 1.268 . S
O241 Sc221 2.105 . S
O241 C226 1.268 . S
Sc242 O245 2.025 . S
Sc242 O252 2.105 . S
Sc242 O255 2.105 . S
Sc242 O258 2.105 . S
Sc242 O261 2.105 . S
Sc243 O245 2.025 . S
Sc243 O253 2.105 . S
Sc243 O257 2.105 . S
Sc243 O259 2.105 . S
Sc243 O263 2.105 . S
Sc244 O245 2.025 . S
Sc244 O254 2.105 . S
Sc244 O256 2.105 . S
Sc244 O260 2.105 . S
Sc244 O262 2.105 . S
O245 Sc242 2.025 . S
O245 Sc243 2.025 . S
O245 Sc244 2.025 . S
C246 O252 1.268 . S
C246 O262 1.268 . S
C247 O253 1.268 . S
C247 O261 1.268 . S
C248 O254 1.268 . S
C248 O263 1.268 . S
C249 O255 1.268 . S
C249 O259 1.268 . S
C250 O256 1.268 . S
C250 O258 1.268 . S
C251 O257 1.268 . S
C251 O260 1.268 . S
O252 Sc242 2.105 . S
O252 C246 1.268 . S
O253 Sc243 2.105 . S
O253 C247 1.268 . S
O254 Sc244 2.105 . S
O254 C248 1.268 . S
O255 Sc242 2.105 . S
O255 C249 1.268 . S
O256 Sc244 2.105 . S
O256 C250 1.268 . S
O257 Sc243 2.105 . S
O257 C251 1.268 . S
O258 Sc242 2.105 . S
O258 C250 1.268 . S
O259 Sc243 2.105 . S
O259 C249 1.268 . S
O260 Sc244 2.105 . S
O260 C251 1.268 . S
O261 Sc242 2.105 . S
O261 C247 1.268 . S
O262 Sc244 2.105 . S
O262 C246 1.268 . S
O263 Sc243 2.105 . S
O263 C248 1.268 . S
Sc264 O267 2.025 . S
Sc264 O274 2.105 . S
Sc264 O277 2.105 . S
Sc264 O280 2.105 . S
Sc264 O283 2.105 . S
Sc265 O267 2.025 . S
Sc265 O275 2.105 . S
Sc265 O279 2.105 . S
Sc265 O281 2.105 . S
Sc265 O285 2.105 . S
Sc266 O267 2.025 . S
Sc266 O276 2.105 . S
Sc266 O278 2.105 . S
Sc266 O282 2.105 . S
Sc266 O284 2.105 . S
O267 Sc264 2.025 . S
O267 Sc265 2.025 . S
O267 Sc266 2.025 . S
C268 O274 1.268 . S
C268 O284 1.268 . S
C269 O275 1.268 . S
C269 O283 1.268 . S
C270 O276 1.268 . S
C270 O285 1.268 . S
C271 O277 1.268 . S
C271 O281 1.268 . S
C272 O278 1.268 . S
C272 O280 1.268 . S
C273 O279 1.268 . S
C273 O282 1.268 . S
O274 Sc264 2.105 . S
O274 C268 1.268 . S
O275 Sc265 2.105 . S
O275 C269 1.268 . S
O276 Sc266 2.105 . S
O276 C270 1.268 . S
O277 Sc264 2.105 . S
O277 C271 1.268 . S
O278 Sc266 2.105 . S
O278 C272 1.268 . S
O279 Sc265 2.105 . S
O279 C273 1.268 . S
O280 Sc264 2.105 . S
O280 C272 1.268 . S
O281 Sc265 2.105 . S
O281 C271 1.268 . S
O282 Sc266 2.105 . S
O282 C273 1.268 . S
O283 Sc264 2.105 . S
O283 C269 1.268 . S
O284 Sc266 2.105 . S
O284 C268 1.268 . S
O285 Sc265 2.105 . S
O285 C270 1.268 . S
Sc286 O289 2.025 . S
Sc286 O296 2.105 . S
Sc286 O299 2.105 . S
Sc286 O302 2.105 . S
Sc286 O305 2.105 . S
Sc287 O289 2.025 . S
Sc287 O297 2.105 . S
Sc287 O301 2.105 . S
Sc287 O303 2.105 . S
Sc287 O307 2.105 . S
Sc288 O289 2.025 . S
Sc288 O298 2.105 . S
Sc288 O300 2.105 . S
Sc288 O304 2.105 . S
Sc288 O306 2.105 . S
O289 Sc286 2.025 . S
O289 Sc287 2.025 . S
O289 Sc288 2.025 . S
C290 O296 1.268 . S
C290 O306 1.268 . S
C291 O297 1.268 . S
C291 O305 1.268 . S
C292 O298 1.268 . S
C292 O307 1.268 . S
C293 O299 1.268 . S
C293 O303 1.268 . S
C294 O300 1.268 . S
C294 O302 1.268 . S
C295 O301 1.268 . S
C295 O304 1.268 . S
O296 Sc286 2.105 . S
O296 C290 1.268 . S
O297 Sc287 2.105 . S
O297 C291 1.268 . S
O298 Sc288 2.105 . S
O298 C292 1.268 . S
O299 Sc286 2.105 . S
O299 C293 1.268 . S
O300 Sc288 2.105 . S
O300 C294 1.268 . S
O301 Sc287 2.105 . S
O301 C295 1.268 . S
O302 Sc286 2.105 . S
O302 C294 1.268 . S
O303 Sc287 2.105 . S
O303 C293 1.268 . S
O304 Sc288 2.105 . S
O304 C295 1.268 . S
O305 Sc286 2.105 . S
O305 C291 1.268 . S
O306 Sc288 2.105 . S
O306 C290 1.268 . S
O307 Sc287 2.105 . S
O307 C292 1.268 . S
Sc308 O311 2.025 . S
Sc308 O318 2.105 . S
Sc308 O321 2.105 . S
Sc308 O324 2.105 . S
Sc308 O327 2.105 . S
Sc309 O311 2.025 . S
Sc309 O319 2.105 . S
Sc309 O323 2.105 . S
Sc309 O325 2.105 . S
Sc309 O329 2.105 . S
Sc310 O311 2.025 . S
Sc310 O320 2.105 . S
Sc310 O322 2.105 . S
Sc310 O326 2.105 . S
Sc310 O328 2.105 . S
O311 Sc308 2.025 . S
O311 Sc309 2.025 . S
O311 Sc310 2.025 . S
C312 O318 1.268 . S
C312 O328 1.268 . S
C313 O319 1.268 . S
C313 O327 1.268 . S
C314 O320 1.268 . S
C314 O329 1.268 . S
C315 O321 1.268 . S
C315 O325 1.268 . S
C316 O322 1.268 . S
C316 O324 1.268 . S
C317 O323 1.268 . S
C317 O326 1.268 . S
O318 Sc308 2.105 . S
O318 C312 1.268 . S
O319 Sc309 2.105 . S
O319 C313 1.268 . S
O320 Sc310 2.105 . S
O320 C314 1.268 . S
O321 Sc308 2.105 . S
O321 C315 1.268 . S
O322 Sc310 2.105 . S
O322 C316 1.268 . S
O323 Sc309 2.105 . S
O323 C317 1.268 . S
O324 Sc308 2.105 . S
O324 C316 1.268 . S
O325 Sc309 2.105 . S
O325 C315 1.268 . S
O326 Sc310 2.105 . S
O326 C317 1.268 . S
O327 Sc308 2.105 . S
O327 C313 1.268 . S
O328 Sc310 2.105 . S
O328 C312 1.268 . S
O329 Sc309 2.105 . S
O329 C314 1.268 . S
Sc330 O333 2.025 . S
Sc330 O340 2.105 . S
Sc330 O343 2.105 . S
Sc330 O346 2.105 . S
Sc330 O349 2.105 . S
Sc331 O333 2.025 . S
Sc331 O341 2.105 . S
Sc331 O345 2.105 . S
Sc331 O347 2.105 . S
Sc331 O351 2.105 . S
Sc332 O333 2.025 . S
Sc332 O342 2.105 . S
Sc332 O344 2.105 1_556 S
Sc332 O348 2.105 . S
Sc332 O350 2.105 1_556 S
O333 Sc330 2.025 . S
O333 Sc331 2.025 . S
O333 Sc332 2.025 . S
C334 O340 1.268 1_554 S
C334 O350 1.268 . S
C335 O341 1.268 . S
C335 O349 1.268 . S
C336 O342 1.268 . S
C336 O351 1.268 . S
C337 O343 1.268 . S
C337 O347 1.268 . S
C338 O344 1.268 . S
C338 O346 1.268 1_554 S
C339 O345 1.268 . S
C339 O348 1.268 . S
O340 Sc330 2.105 . S
O340 C334 1.268 1_556 S
O341 Sc331 2.105 . S
O341 C335 1.268 . S
O342 Sc332 2.105 . S
O342 C336 1.268 . S
O343 Sc330 2.105 . S
O343 C337 1.268 . S
O344 Sc332 2.105 1_554 S
O344 C338 1.268 . S
O345 Sc331 2.105 . S
O345 C339 1.268 . S
O346 Sc330 2.105 . S
O346 C338 1.268 1_556 S
O347 Sc331 2.105 . S
O347 C337 1.268 . S
O348 Sc332 2.105 . S
O348 C339 1.268 . S
O349 Sc330 2.105 . S
O349 C335 1.268 . S
O350 Sc332 2.105 1_554 S
O350 C334 1.268 . S
O351 Sc331 2.105 . S
O351 C336 1.268 . S
Sc352 O355 2.025 . S
Sc352 O362 2.105 . S
Sc352 O365 2.105 . S
Sc352 O368 2.105 . S
Sc352 O371 2.105 . S
Sc353 O355 2.025 . S
Sc353 O363 2.105 . S
Sc353 O367 2.105 1_556 S
Sc353 O369 2.105 . S
Sc353 O373 2.105 1_556 S
Sc354 O355 2.025 . S
Sc354 O364 2.105 . S
Sc354 O366 2.105 . S
Sc354 O370 2.105 . S
Sc354 O372 2.105 . S
O355 Sc352 2.025 . S
O355 Sc353 2.025 . S
O355 Sc354 2.025 . S
C356 O362 1.268 . S
C356 O372 1.268 . S
C357 O363 1.268 . S
C357 O371 1.268 . S
C358 O364 1.268 1_554 S
C358 O373 1.268 . S
C359 O365 1.268 . S
C359 O369 1.268 . S
C360 O366 1.268 . S
C360 O368 1.268 . S
C361 O367 1.268 . S
C361 O370 1.268 1_554 S
O362 Sc352 2.105 . S
O362 C356 1.268 . S
O363 Sc353 2.105 . S
O363 C357 1.268 . S
O364 Sc354 2.105 . S
O364 C358 1.268 1_556 S
O365 Sc352 2.105 . S
O365 C359 1.268 . S
O366 Sc354 2.105 . S
O366 C360 1.268 . S
O367 Sc353 2.105 1_554 S
O367 C361 1.268 . S
O368 Sc352 2.105 . S
O368 C360 1.268 . S
O369 Sc353 2.105 . S
O369 C359 1.268 . S
O370 Sc354 2.105 . S
O370 C361 1.268 1_556 S
O371 Sc352 2.105 . S
O371 C357 1.268 . S
O372 Sc354 2.105 . S
O372 C356 1.268 . S
O373 Sc353 2.105 1_554 S
O373 C358 1.268 . S
Sc374 O377 2.025 . S
Sc374 O384 2.105 . S
Sc374 O387 2.105 . S
Sc374 O390 2.105 . S
Sc374 O393 2.105 . S
Sc375 O377 2.025 . S
Sc375 O385 2.105 . S
Sc375 O389 2.105 1_556 S
Sc375 O391 2.105 . S
Sc375 O395 2.105 1_556 S
Sc376 O377 2.025 . S
Sc376 O386 2.105 . S
Sc376 O388 2.105 . S
Sc376 O392 2.105 . S
Sc376 O394 2.105 . S
O377 Sc374 2.025 . S
O377 Sc375 2.025 . S
O377 Sc376 2.025 . S
C378 O384 1.268 . S
C378 O394 1.268 . S
C379 O385 1.268 . S
C379 O393 1.268 . S
C380 O386 1.268 1_554 S
C380 O395 1.268 . S
C381 O387 1.268 . S
C381 O391 1.268 . S
C382 O388 1.268 . S
C382 O390 1.268 . S
C383 O389 1.268 . S
C383 O392 1.268 1_554 S
O384 Sc374 2.105 . S
O384 C378 1.268 . S
O385 Sc375 2.105 . S
O385 C379 1.268 . S
O386 Sc376 2.105 . S
O386 C380 1.268 1_556 S
O387 Sc374 2.105 . S
O387 C381 1.268 . S
O388 Sc376 2.105 . S
O388 C382 1.268 . S
O389 Sc375 2.105 1_554 S
O389 C383 1.268 . S
O390 Sc374 2.105 . S
O390 C382 1.268 . S
O391 Sc375 2.105 . S
O391 C381 1.268 . S
O392 Sc376 2.105 . S
O392 C383 1.268 1_556 S
O393 Sc374 2.105 . S
O393 C379 1.268 . S
O394 Sc376 2.105 . S
O394 C378 1.268 . S
O395 Sc375 2.105 1_554 S
O395 C380 1.268 . S
H396 C414 0.951 . S
H397 C416 0.951 . S
H398 C418 0.950 . S
H399 C419 0.950 . S
H400 C421 0.950 . S
H401 C424 0.950 . S
H402 C425 0.950 . S
H403 C427 0.950 . S
H404 C428 0.950 . S
H405 C429 0.951 . S
H406 C431 0.951 . S
H407 C433 0.950 . S
H408 C434 0.950 . S
H409 C436 0.950 . S
H410 C439 0.950 . S
H411 C440 0.950 . S
H412 C442 0.950 . S
H413 C443 0.950 . S
C414 H396 0.951 . S
C414 C415 1.366 . S
C414 C416 1.388 . S
C415 C414 1.366 . S
C415 C419 1.385 . S
C416 H397 0.951 . S
C416 C414 1.388 . S
C416 C417 1.366 . S
C417 C416 1.366 . S
C417 C418 1.414 . S
C417 C420 1.499 . S
C418 H398 0.950 . S
C418 C417 1.414 . S
C418 C419 1.374 . S
C419 H399 0.950 . S
C419 C415 1.385 . S
C419 C418 1.374 . S
C420 C417 1.499 . S
C420 C421 1.373 . S
C420 C422 1.389 . S
C421 H400 0.950 . S
C421 C420 1.373 . S
C421 C437 1.377 . S
C422 C420 1.389 . S
C422 C423 1.524 . S
C422 C436 1.377 . S
C423 C422 1.524 . S
C423 C424 1.397 . S
C423 C428 1.363 . S
C424 H401 0.950 . S
C424 C423 1.397 . S
C424 C425 1.334 . S
C425 H402 0.950 . S
C425 C424 1.334 . S
C425 C426 1.287 . S
C426 C425 1.287 . S
C426 C427 1.524 . S
C426 H445 0.913 . S
C427 H403 0.950 . S
C427 C426 1.524 . S
C427 C428 1.415 . S
C428 H404 0.950 . S
C428 C423 1.363 . S
C428 C427 1.415 . S
C429 H405 0.951 . S
C429 C430 1.366 . S
C429 C431 1.388 . S
C430 C429 1.366 . S
C430 C434 1.385 . S
C431 H406 0.951 . S
C431 C429 1.388 . S
C431 C432 1.366 . S
C432 C431 1.366 . S
C432 C433 1.414 . S
C432 C435 1.499 . S
C433 H407 0.950 . S
C433 C432 1.414 . S
C433 C434 1.374 . S
C434 H408 0.950 . S
C434 C430 1.385 . S
C434 C433 1.374 . S
C435 C432 1.499 . S
C435 C436 1.373 . S
C435 C437 1.389 . S
C436 H409 0.950 . S
C436 C422 1.377 . S
C436 C435 1.373 . S
C437 C421 1.377 . S
C437 C435 1.389 . S
C437 C438 1.524 . S
C438 C437 1.524 . S
C438 C439 1.397 . S
C438 C443 1.363 . S
C439 H410 0.950 . S
C439 C438 1.397 . S
C439 C440 1.334 . S
C440 H411 0.950 . S
C440 C439 1.334 . S
C440 C441 1.287 . S
C441 C440 1.287 . S
C441 C442 1.524 . S
C441 H444 0.999 . S
C442 H412 0.950 . S
C442 C441 1.524 . S
C442 C443 1.415 . S
C443 H413 0.950 . S
C443 C438 1.363 . S
C443 C442 1.415 . S
H444 C441 0.999 . S
H445 C426 0.913 . S
H446 C464 0.951 . S
H447 C466 0.951 . S
H448 C468 0.950 . S
H449 C469 0.950 . S
H450 C471 0.950 . S
H451 C474 0.950 . S
H452 C475 0.950 . S
H453 C477 0.950 . S
H454 C478 0.950 . S
H455 C479 0.951 . S
H456 C481 0.951 . S
H457 C483 0.950 . S
H458 C484 0.950 . S
H459 C486 0.950 . S
H460 C489 0.950 . S
H461 C490 0.950 . S
H462 C492 0.950 . S
H463 C493 0.950 . S
C464 H446 0.951 . S
C464 C465 1.366 . S
C464 C466 1.388 . S
C465 C464 1.366 . S
C465 C469 1.385 . S
C466 H447 0.951 . S
C466 C464 1.388 . S
C466 C467 1.366 . S
C467 C466 1.366 . S
C467 C468 1.414 . S
C467 C470 1.499 . S
C468 H448 0.950 . S
C468 C467 1.414 . S
C468 C469 1.374 . S
C469 H449 0.950 . S
C469 C465 1.385 . S
C469 C468 1.374 . S
C470 C467 1.499 . S
C470 C471 1.373 . S
C470 C472 1.389 . S
C471 H450 0.950 . S
C471 C470 1.373 . S
C471 C487 1.377 . S
C472 C470 1.389 . S
C472 C473 1.524 . S
C472 C486 1.377 . S
C473 C472 1.524 . S
C473 C474 1.397 . S
C473 C478 1.363 . S
C474 H451 0.950 . S
C474 C473 1.397 . S
C474 C475 1.334 . S
C475 H452 0.950 . S
C475 C474 1.334 . S
C475 C476 1.287 . S
C476 C475 1.287 . S
C476 C477 1.524 . S
C476 H495 0.913 . S
C477 H453 0.950 . S
C477 C476 1.524 . S
C477 C478 1.415 . S
C478 H454 0.950 . S
C478 C473 1.363 . S
C478 C477 1.415 . S
C479 H455 0.951 . S
C479 C480 1.366 . S
C479 C481 1.388 . S
C480 C479 1.366 . S
C480 C484 1.385 . S
C481 H456 0.951 . S
C481 C479 1.388 . S
C481 C482 1.366 . S
C482 C481 1.366 . S
C482 C483 1.414 . S
C482 C485 1.499 . S
C483 H457 0.950 . S
C483 C482 1.414 . S
C483 C484 1.374 . S
C484 H458 0.950 . S
C484 C480 1.385 . S
C484 C483 1.374 . S
C485 C482 1.499 . S
C485 C486 1.373 . S
C485 C487 1.389 . S
C486 H459 0.950 . S
C486 C472 1.377 . S
C486 C485 1.373 . S
C487 C471 1.377 . S
C487 C485 1.389 . S
C487 C488 1.524 . S
C488 C487 1.524 . S
C488 C489 1.397 . S
C488 C493 1.363 . S
C489 H460 0.950 . S
C489 C488 1.397 . S
C489 C490 1.334 . S
C490 H461 0.950 . S
C490 C489 1.334 . S
C490 C491 1.287 . S
C491 C490 1.287 . S
C491 C492 1.524 . S
C491 H494 0.999 . S
C492 H462 0.950 . S
C492 C491 1.524 . S
C492 C493 1.415 . S
C493 H463 0.950 . S
C493 C488 1.363 . S
C493 C492 1.415 . S
H494 C491 0.999 . S
H495 C476 0.913 . S
H496 C514 0.951 . S
H497 C516 0.951 . S
H498 C518 0.950 . S
H499 C519 0.950 . S
H500 C521 0.950 . S
H501 C524 0.950 . S
H502 C525 0.950 . S
H503 C527 0.950 . S
H504 C528 0.950 . S
H505 C529 0.951 . S
H506 C531 0.951 . S
H507 C533 0.950 . S
H508 C534 0.950 . S
H509 C536 0.950 . S
H510 C539 0.950 . S
H511 C540 0.950 . S
H512 C542 0.950 . S
H513 C543 0.950 . S
C514 H496 0.951 . S
C514 C515 1.366 . S
C514 C516 1.388 . S
C515 C514 1.366 . S
C515 C519 1.385 . S
C516 H497 0.951 . S
C516 C514 1.388 . S
C516 C517 1.366 . S
C517 C516 1.366 . S
C517 C518 1.414 . S
C517 C520 1.499 . S
C518 H498 0.950 . S
C518 C517 1.414 . S
C518 C519 1.374 . S
C519 H499 0.950 . S
C519 C515 1.385 . S
C519 C518 1.374 . S
C520 C517 1.499 . S
C520 C521 1.373 . S
C520 C522 1.389 . S
C521 H500 0.950 . S
C521 C520 1.373 . S
C521 C537 1.377 . S
C522 C520 1.389 . S
C522 C523 1.524 . S
C522 C536 1.377 . S
C523 C522 1.524 . S
C523 C524 1.397 . S
C523 C528 1.363 . S
C524 H501 0.950 . S
C524 C523 1.397 . S
C524 C525 1.334 . S
C525 H502 0.950 . S
C525 C524 1.334 . S
C525 C526 1.287 . S
C526 C525 1.287 . S
C526 C527 1.524 . S
C526 H545 0.913 . S
C527 H503 0.950 . S
C527 C526 1.524 . S
C527 C528 1.415 . S
C528 H504 0.950 . S
C528 C523 1.363 . S
C528 C527 1.415 . S
C529 H505 0.951 . S
C529 C530 1.366 . S
C529 C531 1.388 . S
C530 C529 1.366 . S
C530 C534 1.385 . S
C531 H506 0.951 . S
C531 C529 1.388 . S
C531 C532 1.366 . S
C532 C531 1.366 . S
C532 C533 1.414 . S
C532 C535 1.499 . S
C533 H507 0.950 . S
C533 C532 1.414 . S
C533 C534 1.374 . S
C534 H508 0.950 . S
C534 C530 1.385 . S
C534 C533 1.374 . S
C535 C532 1.499 . S
C535 C536 1.373 . S
C535 C537 1.389 . S
C536 H509 0.950 . S
C536 C522 1.377 . S
C536 C535 1.373 . S
C537 C521 1.377 . S
C537 C535 1.389 . S
C537 C538 1.524 . S
C538 C537 1.524 . S
C538 C539 1.397 . S
C538 C543 1.363 . S
C539 H510 0.950 . S
C539 C538 1.397 . S
C539 C540 1.334 . S
C540 H511 0.950 . S
C540 C539 1.334 . S
C540 C541 1.287 . S
C541 C540 1.287 . S
C541 C542 1.524 . S
C541 H544 0.999 . S
C542 H512 0.950 . S
C542 C541 1.524 . S
C542 C543 1.415 . S
C543 H513 0.950 . S
C543 C538 1.363 . S
C543 C542 1.415 . S
H544 C541 0.999 . S
H545 C526 0.913 . S
H546 C564 0.951 . S
H547 C566 0.951 . S
H548 C568 0.950 . S
H549 C569 0.950 . S
H550 C571 0.950 . S
H551 C574 0.950 . S
H552 C575 0.950 . S
H553 C577 0.950 . S
H554 C578 0.950 . S
H555 C579 0.951 . S
H556 C581 0.951 . S
H557 C583 0.950 . S
H558 C584 0.950 . S
H559 C586 0.950 . S
H560 C589 0.950 . S
H561 C590 0.950 . S
H562 C592 0.950 . S
H563 C593 0.950 . S
C564 H546 0.951 . S
C564 C565 1.366 . S
C564 C566 1.388 . S
C565 C564 1.366 . S
C565 C569 1.385 . S
C566 H547 0.951 . S
C566 C564 1.388 . S
C566 C567 1.366 . S
C567 C566 1.366 . S
C567 C568 1.414 . S
C567 C570 1.499 . S
C568 H548 0.950 . S
C568 C567 1.414 . S
C568 C569 1.374 . S
C569 H549 0.950 . S
C569 C565 1.385 . S
C569 C568 1.374 . S
C570 C567 1.499 . S
C570 C571 1.373 . S
C570 C572 1.389 1_556 S
C571 H550 0.950 . S
C571 C570 1.373 . S
C571 C587 1.377 . S
C572 C570 1.389 1_554 S
C572 C573 1.524 . S
C572 C586 1.377 . S
C573 C572 1.524 . S
C573 C574 1.397 . S
C573 C578 1.363 . S
C574 H551 0.950 . S
C574 C573 1.397 . S
C574 C575 1.334 . S
C575 H552 0.950 . S
C575 C574 1.334 . S
C575 C576 1.287 . S
C576 C575 1.287 . S
C576 C577 1.524 . S
C576 H595 0.913 . S
C577 H553 0.950 . S
C577 C576 1.524 . S
C577 C578 1.415 . S
C578 H554 0.950 . S
C578 C573 1.363 . S
C578 C577 1.415 . S
C579 H555 0.951 . S
C579 C580 1.366 . S
C579 C581 1.388 . S
C580 C579 1.366 . S
C580 C584 1.385 . S
C581 H556 0.951 . S
C581 C579 1.388 . S
C581 C582 1.366 . S
C582 C581 1.366 . S
C582 C583 1.414 . S
C582 C585 1.499 . S
C583 H557 0.950 . S
C583 C582 1.414 . S
C583 C584 1.374 . S
C584 H558 0.950 . S
C584 C580 1.385 . S
C584 C583 1.374 . S
C585 C582 1.499 . S
C585 C586 1.373 . S
C585 C587 1.389 1_554 S
C586 H559 0.950 . S
C586 C572 1.377 . S
C586 C585 1.373 . S
C587 C571 1.377 . S
C587 C585 1.389 1_556 S
C587 C588 1.524 . S
C588 C587 1.524 . S
C588 C589 1.397 . S
C588 C593 1.363 . S
C589 H560 0.950 . S
C589 C588 1.397 . S
C589 C590 1.334 . S
C590 H561 0.950 . S
C590 C589 1.334 . S
C590 C591 1.287 . S
C591 C590 1.287 . S
C591 C592 1.524 . S
C591 H594 0.999 . S
C592 H562 0.950 . S
C592 C591 1.524 . S
C592 C593 1.415 . S
C593 H563 0.950 . S
C593 C588 1.363 . S
C593 C592 1.415 . S
H594 C591 0.999 . S
H595 C576 0.913 . S
H596 C614 0.951 . S
H597 C616 0.951 . S
H598 C618 0.950 . S
H599 C619 0.950 . S
H600 C621 0.950 . S
H601 C624 0.950 . S
H602 C625 0.950 . S
H603 C627 0.950 . S
H604 C628 0.950 . S
H605 C629 0.951 . S
H606 C631 0.951 . S
H607 C633 0.950 . S
H608 C634 0.950 . S
H609 C636 0.950 . S
H610 C639 0.950 . S
H611 C640 0.950 . S
H612 C642 0.950 . S
H613 C643 0.950 . S
C614 H596 0.951 . S
C614 C615 1.366 . S
C614 C616 1.388 . S
C615 C614 1.366 . S
C615 C619 1.385 . S
C616 H597 0.951 . S
C616 C614 1.388 . S
C616 C617 1.366 . S
C617 C616 1.366 . S
C617 C618 1.414 . S
C617 C620 1.499 . S
C618 H598 0.950 . S
C618 C617 1.414 . S
C618 C619 1.374 . S
C619 H599 0.950 . S
C619 C615 1.385 . S
C619 C618 1.374 . S
C620 C617 1.499 . S
C620 C621 1.373 1_554 S
C620 C622 1.389 . S
C621 H600 0.950 . S
C621 C620 1.373 1_556 S
C621 C637 1.377 . S
C622 C620 1.389 . S
C622 C623 1.524 . S
C622 C636 1.377 . S
C623 C622 1.524 . S
C623 C624 1.397 . S
C623 C628 1.363 . S
C624 H601 0.950 . S
C624 C623 1.397 . S
C624 C625 1.334 . S
C625 H602 0.950 . S
C625 C624 1.334 . S
C625 C626 1.287 . S
C626 C625 1.287 . S
C626 C627 1.524 . S
C626 H645 0.913 . S
C627 H603 0.950 . S
C627 C626 1.524 . S
C627 C628 1.415 . S
C628 H604 0.950 . S
C628 C623 1.363 . S
C628 C627 1.415 . S
C629 H605 0.951 . S
C629 C630 1.366 . S
C629 C631 1.388 . S
C630 C629 1.366 . S
C630 C634 1.385 . S
C631 H606 0.951 . S
C631 C629 1.388 . S
C631 C632 1.366 . S
C632 C631 1.366 . S
C632 C633 1.414 . S
C632 C635 1.499 . S
C633 H607 0.950 . S
C633 C632 1.414 . S
C633 C634 1.374 . S
C634 H608 0.950 . S
C634 C630 1.385 . S
C634 C633 1.374 . S
C635 C632 1.499 . S
C635 C636 1.373 1_556 S
C635 C637 1.389 . S
C636 H609 0.950 . S
C636 C622 1.377 . S
C636 C635 1.373 1_554 S
C637 C621 1.377 . S
C637 C635 1.389 . S
C637 C638 1.524 . S
C638 C637 1.524 . S
C638 C639 1.397 . S
C638 C643 1.363 . S
C639 H610 0.950 . S
C639 C638 1.397 . S
C639 C640 1.334 . S
C640 H611 0.950 . S
C640 C639 1.334 . S
C640 C641 1.287 . S
C641 C640 1.287 . S
C641 C642 1.524 . S
C641 H644 0.999 . S
C642 H612 0.950 . S
C642 C641 1.524 . S
C642 C643 1.415 . S
C643 H613 0.950 . S
C643 C638 1.363 . S
C643 C642 1.415 . S
H644 C641 0.999 . S
H645 C626 0.913 . S
H646 C664 0.951 . S
H647 C666 0.951 1_554 S
H648 C668 0.950 . S
H649 C669 0.950 . S
H650 C671 0.950 . S
H651 C674 0.950 1_556 S
H652 C675 0.950 . S
H653 C677 0.950 . S
H654 C678 0.950 . S
H655 C679 0.951 . S
H656 C681 0.951 . S
H657 C683 0.950 . S
H658 C684 0.950 . S
H659 C686 0.950 . S
H660 C689 0.950 . S
H661 C690 0.950 1_554 S
H662 C692 0.950 . S
H663 C693 0.950 . S
C664 H646 0.951 . S
C664 C665 1.366 . S
C664 C666 1.388 . S
C665 C664 1.366 . S
C665 C669 1.385 . S
C666 H647 0.951 1_556 S
C666 C664 1.388 . S
C666 C667 1.366 . S
C667 C666 1.366 . S
C667 C668 1.414 . S
C667 C670 1.499 . S
C668 H648 0.950 . S
C668 C667 1.414 . S
C668 C669 1.374 . S
C669 H649 0.950 . S
C669 C665 1.385 . S
C669 C668 1.374 . S
C670 C667 1.499 . S
C670 C671 1.373 . S
C670 C672 1.389 1_556 S
C671 H650 0.950 . S
C671 C670 1.373 . S
C671 C687 1.377 . S
C672 C670 1.389 1_554 S
C672 C673 1.524 . S
C672 C686 1.377 . S
C673 C672 1.524 . S
C673 C674 1.397 . S
C673 C678 1.363 . S
C674 H651 0.950 1_554 S
C674 C673 1.397 . S
C674 C675 1.334 . S
C675 H652 0.950 . S
C675 C674 1.334 . S
C675 C676 1.287 . S
C676 C675 1.287 . S
C676 C677 1.524 . S
C676 H695 0.913 . S
C677 H653 0.950 . S
C677 C676 1.524 . S
C677 C678 1.415 . S
C678 H654 0.950 . S
C678 C673 1.363 . S
C678 C677 1.415 . S
C679 H655 0.951 . S
C679 C680 1.366 . S
C679 C681 1.388 . S
C680 C679 1.366 . S
C680 C684 1.385 . S
C681 H656 0.951 . S
C681 C679 1.388 . S
C681 C682 1.366 . S
C682 C681 1.366 . S
C682 C683 1.414 . S
C682 C685 1.499 . S
C683 H657 0.950 . S
C683 C682 1.414 . S
C683 C684 1.374 . S
C684 H658 0.950 . S
C684 C680 1.385 . S
C684 C683 1.374 . S
C685 C682 1.499 . S
C685 C686 1.373 . S
C685 C687 1.389 1_554 S
C686 H659 0.950 . S
C686 C672 1.377 . S
C686 C685 1.373 . S
C687 C671 1.377 . S
C687 C685 1.389 1_556 S
C687 C688 1.524 . S
C688 C687 1.524 . S
C688 C689 1.397 1_556 S
C688 C693 1.363 . S
C689 H660 0.950 . S
C689 C688 1.397 1_554 S
C689 C690 1.334 1_554 S
C690 H661 0.950 1_556 S
C690 C689 1.334 1_556 S
C690 C691 1.287 . S
C691 C690 1.287 . S
C691 C692 1.524 . S
C691 H694 0.999 . S
C692 H662 0.950 . S
C692 C691 1.524 . S
C692 C693 1.415 . S
C693 H663 0.950 . S
C693 C688 1.363 . S
C693 C692 1.415 . S
H694 C691 0.999 . S
H695 C676 0.913 . S
H696 C714 0.951 . S
H697 C716 0.951 . S
H698 C718 0.950 . S
H699 C719 0.950 . S
H700 C721 0.950 . S
H701 C724 0.950 . S
H702 C725 0.950 . S
H703 C727 0.950 . S
H704 C728 0.950 . S
H705 C729 0.951 . S
H706 C731 0.951 . S
H707 C733 0.950 . S
H708 C734 0.950 . S
H709 C736 0.950 . S
H710 C739 0.950 . S
H711 C740 0.950 . S
H712 C742 0.950 . S
H713 C743 0.950 . S
C714 H696 0.951 . S
C714 C715 1.366 . S
C714 C716 1.388 . S
C715 C714 1.366 . S
C715 C719 1.385 . S
C716 H697 0.951 . S
C716 C714 1.388 . S
C716 C717 1.366 . S
C717 C716 1.366 . S
C717 C718 1.414 . S
C717 C720 1.499 . S
C718 H698 0.950 . S
C718 C717 1.414 . S
C718 C719 1.374 . S
C719 H699 0.950 . S
C719 C715 1.385 . S
C719 C718 1.374 . S
C720 C717 1.499 . S
C720 C721 1.373 . S
C720 C722 1.389 . S
C721 H700 0.950 . S
C721 C720 1.373 . S
C721 C737 1.377 . S
C722 C720 1.389 . S
C722 C723 1.524 . S
C722 C736 1.377 . S
C723 C722 1.524 . S
C723 C724 1.397 . S
C723 C728 1.363 . S
C724 H701 0.950 . S
C724 C723 1.397 . S
C724 C725 1.334 . S
C725 H702 0.950 . S
C725 C724 1.334 . S
C725 C726 1.287 . S
C726 C725 1.287 . S
C726 C727 1.524 . S
C726 H745 0.913 . S
C727 H703 0.950 . S
C727 C726 1.524 . S
C727 C728 1.415 . S
C728 H704 0.950 . S
C728 C723 1.363 . S
C728 C727 1.415 . S
C729 H705 0.951 . S
C729 C730 1.366 . S
C729 C731 1.388 . S
C730 C729 1.366 . S
C730 C734 1.385 . S
C731 H706 0.951 . S
C731 C729 1.388 . S
C731 C732 1.366 . S
C732 C731 1.366 . S
C732 C733 1.414 . S
C732 C735 1.499 . S
C733 H707 0.950 . S
C733 C732 1.414 . S
C733 C734 1.374 . S
C734 H708 0.950 . S
C734 C730 1.385 . S
C734 C733 1.374 . S
C735 C732 1.499 . S
C735 C736 1.373 . S
C735 C737 1.389 . S
C736 H709 0.950 . S
C736 C722 1.377 . S
C736 C735 1.373 . S
C737 C721 1.377 . S
C737 C735 1.389 . S
C737 C738 1.524 . S
C738 C737 1.524 . S
C738 C739 1.397 . S
C738 C743 1.363 . S
C739 H710 0.950 . S
C739 C738 1.397 . S
C739 C740 1.334 . S
C740 H711 0.950 . S
C740 C739 1.334 . S
C740 C741 1.287 . S
C741 C740 1.287 . S
C741 C742 1.524 . S
C741 H744 0.999 . S
C742 H712 0.950 . S
C742 C741 1.524 . S
C742 C743 1.415 . S
C743 H713 0.950 . S
C743 C738 1.363 . S
C743 C742 1.415 . S
H744 C741 0.999 . S
H745 C726 0.913 . S
H746 C764 0.951 . S
H747 C766 0.951 . S
H748 C768 0.950 . S
H749 C769 0.950 . S
H750 C771 0.950 . S
H751 C774 0.950 . S
H752 C775 0.950 . S
H753 C777 0.950 . S
H754 C778 0.950 . S
H755 C779 0.951 . S
H756 C781 0.951 . S
H757 C783 0.950 . S
H758 C784 0.950 . S
H759 C786 0.950 . S
H760 C789 0.950 . S
H761 C790 0.950 . S
H762 C792 0.950 . S
H763 C793 0.950 . S
C764 H746 0.951 . S
C764 C765 1.366 . S
C764 C766 1.388 . S
C765 C764 1.366 . S
C765 C769 1.385 . S
C766 H747 0.951 . S
C766 C764 1.388 . S
C766 C767 1.366 . S
C767 C766 1.366 . S
C767 C768 1.414 . S
C767 C770 1.499 . S
C768 H748 0.950 . S
C768 C767 1.414 . S
C768 C769 1.374 . S
C769 H749 0.950 . S
C769 C765 1.385 . S
C769 C768 1.374 . S
C770 C767 1.499 . S
C770 C771 1.373 . S
C770 C772 1.389 . S
C771 H750 0.950 . S
C771 C770 1.373 . S
C771 C787 1.377 . S
C772 C770 1.389 . S
C772 C773 1.524 . S
C772 C786 1.377 . S
C773 C772 1.524 . S
C773 C774 1.397 . S
C773 C778 1.363 . S
C774 H751 0.950 . S
C774 C773 1.397 . S
C774 C775 1.334 . S
C775 H752 0.950 . S
C775 C774 1.334 . S
C775 C776 1.287 . S
C776 C775 1.287 . S
C776 C777 1.524 . S
C776 H795 0.913 . S
C777 H753 0.950 . S
C777 C776 1.524 . S
C777 C778 1.415 . S
C778 H754 0.950 . S
C778 C773 1.363 . S
C778 C777 1.415 . S
C779 H755 0.951 . S
C779 C780 1.366 . S
C779 C781 1.388 . S
C780 C779 1.366 . S
C780 C784 1.385 . S
C781 H756 0.951 . S
C781 C779 1.388 . S
C781 C782 1.366 . S
C782 C781 1.366 . S
C782 C783 1.414 . S
C782 C785 1.499 . S
C783 H757 0.950 . S
C783 C782 1.414 . S
C783 C784 1.374 . S
C784 H758 0.950 . S
C784 C780 1.385 . S
C784 C783 1.374 . S
C785 C782 1.499 . S
C785 C786 1.373 . S
C785 C787 1.389 . S
C786 H759 0.950 . S
C786 C772 1.377 . S
C786 C785 1.373 . S
C787 C771 1.377 . S
C787 C785 1.389 . S
C787 C788 1.524 . S
C788 C787 1.524 . S
C788 C789 1.397 . S
C788 C793 1.363 . S
C789 H760 0.950 . S
C789 C788 1.397 . S
C789 C790 1.334 . S
C790 H761 0.950 . S
C790 C789 1.334 . S
C790 C791 1.287 . S
C791 C790 1.287 . S
C791 C792 1.524 . S
C791 H794 0.999 . S
C792 H762 0.950 . S
C792 C791 1.524 . S
C792 C793 1.415 . S
C793 H763 0.950 . S
C793 C788 1.363 . S
C793 C792 1.415 . S
H794 C791 0.999 . S
H795 C776 0.913 . S
H796 C814 0.951 . S
H797 C816 0.951 . S
H798 C818 0.950 . S
H799 C819 0.950 . S
H800 C821 0.950 . S
H801 C824 0.950 . S
H802 C825 0.950 . S
H803 C827 0.950 . S
H804 C828 0.950 . S
H805 C829 0.951 . S
H806 C831 0.951 . S
H807 C833 0.950 . S
H808 C834 0.950 . S
H809 C836 0.950 . S
H810 C839 0.950 . S
H811 C840 0.950 . S
H812 C842 0.950 . S
H813 C843 0.950 . S
C814 H796 0.951 . S
C814 C815 1.366 . S
C814 C816 1.388 . S
C815 C814 1.366 . S
C815 C819 1.385 . S
C816 H797 0.951 . S
C816 C814 1.388 . S
C816 C817 1.366 . S
C817 C816 1.366 . S
C817 C818 1.414 . S
C817 C820 1.499 . S
C818 H798 0.950 . S
C818 C817 1.414 . S
C818 C819 1.374 . S
C819 H799 0.950 . S
C819 C815 1.385 . S
C819 C818 1.374 . S
C820 C817 1.499 . S
C820 C821 1.373 . S
C820 C822 1.389 . S
C821 H800 0.950 . S
C821 C820 1.373 . S
C821 C837 1.377 . S
C822 C820 1.389 . S
C822 C823 1.524 . S
C822 C836 1.377 . S
C823 C822 1.524 . S
C823 C824 1.397 . S
C823 C828 1.363 . S
C824 H801 0.950 . S
C824 C823 1.397 . S
C824 C825 1.334 . S
C825 H802 0.950 . S
C825 C824 1.334 . S
C825 C826 1.287 . S
C826 C825 1.287 . S
C826 C827 1.524 . S
C826 H845 0.913 . S
C827 H803 0.950 . S
C827 C826 1.524 . S
C827 C828 1.415 . S
C828 H804 0.950 . S
C828 C823 1.363 . S
C828 C827 1.415 . S
C829 H805 0.951 . S
C829 C830 1.366 . S
C829 C831 1.388 . S
C830 C829 1.366 . S
C830 C834 1.385 . S
C831 H806 0.951 . S
C831 C829 1.388 . S
C831 C832 1.366 . S
C832 C831 1.366 . S
C832 C833 1.414 . S
C832 C835 1.499 . S
C833 H807 0.950 . S
C833 C832 1.414 . S
C833 C834 1.374 . S
C834 H808 0.950 . S
C834 C830 1.385 . S
C834 C833 1.374 . S
C835 C832 1.499 . S
C835 C836 1.373 . S
C835 C837 1.389 . S
C836 H809 0.950 . S
C836 C822 1.377 . S
C836 C835 1.373 . S
C837 C821 1.377 . S
C837 C835 1.389 . S
C837 C838 1.524 . S
C838 C837 1.524 . S
C838 C839 1.397 . S
C838 C843 1.363 . S
C839 H810 0.950 . S
C839 C838 1.397 . S
C839 C840 1.334 . S
C840 H811 0.950 . S
C840 C839 1.334 . S
C840 C841 1.287 . S
C841 C840 1.287 . S
C841 C842 1.524 . S
C841 H844 0.999 . S
C842 H812 0.950 . S
C842 C841 1.524 . S
C842 C843 1.415 . S
C843 H813 0.950 . S
C843 C838 1.363 . S
C843 C842 1.415 . S
H844 C841 0.999 . S
H845 C826 0.913 . S
H846 C864 0.951 . S
H847 C866 0.951 . S
H848 C868 0.950 1_556 S
H849 C869 0.950 . S
H850 C871 0.950 . S
H851 C874 0.950 . S
H852 C875 0.950 . S
H853 C877 0.950 . S
H854 C878 0.950 . S
H855 C879 0.951 . S
H856 C881 0.951 . S
H857 C883 0.950 . S
H858 C884 0.950 . S
H859 C886 0.950 . S
H860 C889 0.950 . S
H861 C890 0.950 . S
H862 C892 0.950 . S
H863 C893 0.950 . S
C864 H846 0.951 . S
C864 C865 1.366 . S
C864 C866 1.388 . S
C865 C864 1.366 . S
C865 C869 1.385 . S
C866 H847 0.951 . S
C866 C864 1.388 . S
C866 C867 1.366 . S
C867 C866 1.366 . S
C867 C868 1.414 . S
C867 C870 1.499 . S
C868 H848 0.950 1_554 S
C868 C867 1.414 . S
C868 C869 1.374 . S
C869 H849 0.950 . S
C869 C865 1.385 . S
C869 C868 1.374 . S
C870 C867 1.499 . S
C870 C871 1.373 1_554 S
C870 C872 1.389 . S
C871 H850 0.950 . S
C871 C870 1.373 1_556 S
C871 C887 1.377 . S
C872 C870 1.389 . S
C872 C873 1.524 . S
C872 C886 1.377 . S
C873 C872 1.524 . S
C873 C874 1.397 . S
C873 C878 1.363 . S
C874 H851 0.950 . S
C874 C873 1.397 . S
C874 C875 1.334 . S
C875 H852 0.950 . S
C875 C874 1.334 . S
C875 C876 1.287 . S
C876 C875 1.287 . S
C876 C877 1.524 . S
C876 H895 0.913 . S
C877 H853 0.950 . S
C877 C876 1.524 . S
C877 C878 1.415 . S
C878 H854 0.950 . S
C878 C873 1.363 . S
C878 C877 1.415 . S
C879 H855 0.951 . S
C879 C880 1.366 . S
C879 C881 1.388 . S
C880 C879 1.366 . S
C880 C884 1.385 . S
C881 H856 0.951 . S
C881 C879 1.388 . S
C881 C882 1.366 . S
C882 C881 1.366 . S
C882 C883 1.414 . S
C882 C885 1.499 . S
C883 H857 0.950 . S
C883 C882 1.414 . S
C883 C884 1.374 . S
C884 H858 0.950 . S
C884 C880 1.385 . S
C884 C883 1.374 . S
C885 C882 1.499 . S
C885 C886 1.373 1_556 S
C885 C887 1.389 . S
C886 H859 0.950 . S
C886 C872 1.377 . S
C886 C885 1.373 1_554 S
C887 C871 1.377 . S
C887 C885 1.389 . S
C887 C888 1.524 . S
C888 C887 1.524 . S
C888 C889 1.397 . S
C888 C893 1.363 . S
C889 H860 0.950 . S
C889 C888 1.397 . S
C889 C890 1.334 . S
C890 H861 0.950 . S
C890 C889 1.334 . S
C890 C891 1.287 . S
C891 C890 1.287 . S
C891 C892 1.524 . S
C891 H894 0.999 . S
C892 H862 0.950 . S
C892 C891 1.524 . S
C892 C893 1.415 . S
C893 H863 0.950 . S
C893 C888 1.363 . S
C893 C892 1.415 . S
H894 C891 0.999 . S
H895 C876 0.913 . S
H896 C914 0.951 . S
H897 C916 0.951 . S
H898 C918 0.950 . S
H899 C919 0.950 . S
H900 C921 0.950 . S
H901 C924 0.950 . S
H902 C925 0.950 . S
H903 C927 0.950 . S
H904 C928 0.950 . S
H905 C929 0.951 . S
H906 C931 0.951 . S
H907 C933 0.950 . S
H908 C934 0.950 . S
H909 C936 0.950 . S
H910 C939 0.950 . S
H911 C940 0.950 . S
H912 C942 0.950 . S
H913 C943 0.950 . S
C914 H896 0.951 . S
C914 C915 1.366 . S
C914 C916 1.388 . S
C915 C914 1.366 . S
C915 C919 1.385 . S
C916 H897 0.951 . S
C916 C914 1.388 . S
C916 C917 1.366 . S
C917 C916 1.366 . S
C917 C918 1.414 . S
C917 C920 1.499 . S
C918 H898 0.950 . S
C918 C917 1.414 . S
C918 C919 1.374 . S
C919 H899 0.950 . S
C919 C915 1.385 . S
C919 C918 1.374 . S
C920 C917 1.499 . S
C920 C921 1.373 1_556 S
C920 C922 1.389 . S
C921 H900 0.950 . S
C921 C920 1.373 1_554 S
C921 C937 1.377 . S
C922 C920 1.389 . S
C922 C923 1.524 . S
C922 C936 1.377 . S
C923 C922 1.524 . S
C923 C924 1.397 . S
C923 C928 1.363 . S
C924 H901 0.950 . S
C924 C923 1.397 . S
C924 C925 1.334 . S
C925 H902 0.950 . S
C925 C924 1.334 . S
C925 C926 1.287 . S
C926 C925 1.287 . S
C926 C927 1.524 . S
C926 H945 0.913 . S
C927 H903 0.950 . S
C927 C926 1.524 . S
C927 C928 1.415 . S
C928 H904 0.950 . S
C928 C923 1.363 . S
C928 C927 1.415 . S
C929 H905 0.951 . S
C929 C930 1.366 . S
C929 C931 1.388 . S
C930 C929 1.366 . S
C930 C934 1.385 . S
C931 H906 0.951 . S
C931 C929 1.388 . S
C931 C932 1.366 . S
C932 C931 1.366 . S
C932 C933 1.414 . S
C932 C935 1.499 . S
C933 H907 0.950 . S
C933 C932 1.414 . S
C933 C934 1.374 . S
C934 H908 0.950 . S
C934 C930 1.385 . S
C934 C933 1.374 . S
C935 C932 1.499 . S
C935 C936 1.373 1_554 S
C935 C937 1.389 . S
C936 H909 0.950 . S
C936 C922 1.377 . S
C936 C935 1.373 1_556 S
C937 C921 1.377 . S
C937 C935 1.389 . S
C937 C938 1.524 . S
C938 C937 1.524 . S
C938 C939 1.397 . S
C938 C943 1.363 . S
C939 H910 0.950 . S
C939 C938 1.397 . S
C939 C940 1.334 . S
C940 H911 0.950 . S
C940 C939 1.334 . S
C940 C941 1.287 . S
C941 C940 1.287 . S
C941 C942 1.524 . S
C941 H944 0.999 . S
C942 H912 0.950 . S
C942 C941 1.524 . S
C942 C943 1.415 . S
C943 H913 0.950 . S
C943 C938 1.363 . S
C943 C942 1.415 . S
H944 C941 0.999 . S
H945 C926 0.913 . S
H946 C964 0.951 . S
H947 C966 0.951 . S
H948 C968 0.950 . S
H949 C969 0.950 . S
H950 C971 0.950 . S
H951 C974 0.950 . S
H952 C975 0.950 . S
H953 C977 0.950 . S
H954 C978 0.950 . S
H955 C979 0.951 . S
H956 C981 0.951 . S
H957 C983 0.950 . S
H958 C984 0.950 . S
H959 C986 0.950 . S
H960 C989 0.950 . S
H961 C990 0.950 . S
H962 C992 0.950 . S
H963 C993 0.950 . S
C964 H946 0.951 . S
C964 C965 1.366 . S
C964 C966 1.388 . S
C965 C964 1.366 . S
C965 C969 1.385 . S
C966 H947 0.951 . S
C966 C964 1.388 . S
C966 C967 1.366 . S
C967 C966 1.366 . S
C967 C968 1.414 . S
C967 C970 1.499 . S
C968 H948 0.950 . S
C968 C967 1.414 . S
C968 C969 1.374 . S
C969 H949 0.950 . S
C969 C965 1.385 . S
C969 C968 1.374 . S
C970 C967 1.499 . S
C970 C971 1.373 1_556 S
C970 C972 1.389 . S
C971 H950 0.950 . S
C971 C970 1.373 1_554 S
C971 C987 1.377 . S
C972 C970 1.389 . S
C972 C973 1.524 . S
C972 C986 1.377 . S
C973 C972 1.524 . S
C973 C974 1.397 . S
C973 C978 1.363 . S
C974 H951 0.950 . S
C974 C973 1.397 . S
C974 C975 1.334 . S
C975 H952 0.950 . S
C975 C974 1.334 . S
C975 C976 1.287 . S
C976 C975 1.287 . S
C976 C977 1.524 . S
C976 H995 0.913 . S
C977 H953 0.950 . S
C977 C976 1.524 . S
C977 C978 1.415 . S
C978 H954 0.950 . S
C978 C973 1.363 . S
C978 C977 1.415 . S
C979 H955 0.951 . S
C979 C980 1.366 . S
C979 C981 1.388 . S
C980 C979 1.366 . S
C980 C984 1.385 . S
C981 H956 0.951 . S
C981 C979 1.388 . S
C981 C982 1.366 . S
C982 C981 1.366 . S
C982 C983 1.414 . S
C982 C985 1.499 . S
C983 H957 0.950 . S
C983 C982 1.414 . S
C983 C984 1.374 . S
C984 H958 0.950 . S
C984 C980 1.385 . S
C984 C983 1.374 . S
C985 C982 1.499 . S
C985 C986 1.373 1_554 S
C985 C987 1.389 . S
C986 H959 0.950 . S
C986 C972 1.377 . S
C986 C985 1.373 1_556 S
C987 C971 1.377 . S
C987 C985 1.389 . S
C987 C988 1.524 . S
C988 C987 1.524 . S
C988 C989 1.397 . S
C988 C993 1.363 . S
C989 H960 0.950 . S
C989 C988 1.397 . S
C989 C990 1.334 . S
C990 H961 0.950 . S
C990 C989 1.334 . S
C990 C991 1.287 . S
C991 C990 1.287 . S
C991 C992 1.524 . S
C991 H994 0.999 . S
C992 H962 0.950 . S
C992 C991 1.524 . S
C992 C993 1.415 . S
C993 H963 0.950 . S
C993 C988 1.363 . S
C993 C992 1.415 . S
H994 C991 0.999 . S
H995 C976 0.913 . S
H996 C1014 0.951 . S
H997 C1016 0.951 . S
H998 C1018 0.950 . S
H999 C1019 0.950 . S
H1000 C1021 0.950 . S
H1001 C1024 0.950 . S
H1002 C1025 0.950 . S
H1003 C1027 0.950 . S
H1004 C1028 0.950 . S
H1005 C1029 0.951 . S
H1006 C1031 0.951 . S
H1007 C1033 0.950 . S
H1008 C1034 0.950 . S
H1009 C1036 0.950 . S
H1010 C1039 0.950 . S
H1011 C1040 0.950 . S
H1012 C1042 0.950 . S
H1013 C1043 0.950 . S
C1014 H996 0.951 . S
C1014 C1015 1.366 . S
C1014 C1016 1.388 . S
C1015 C1014 1.366 . S
C1015 C1019 1.385 . S
C1016 H997 0.951 . S
C1016 C1014 1.388 . S
C1016 C1017 1.366 . S
C1017 C1016 1.366 . S
C1017 C1018 1.414 . S
C1017 C1020 1.499 . S
C1018 H998 0.950 . S
C1018 C1017 1.414 . S
C1018 C1019 1.374 . S
C1019 H999 0.950 . S
C1019 C1015 1.385 . S
C1019 C1018 1.374 . S
C1020 C1017 1.499 . S
C1020 C1021 1.373 . S
C1020 C1022 1.389 . S
C1021 H1000 0.950 . S
C1021 C1020 1.373 . S
C1021 C1037 1.377 . S
C1022 C1020 1.389 . S
C1022 C1023 1.524 . S
C1022 C1036 1.377 . S
C1023 C1022 1.524 . S
C1023 C1024 1.397 . S
C1023 C1028 1.363 . S
C1024 H1001 0.950 . S
C1024 C1023 1.397 . S
C1024 C1025 1.334 . S
C1025 H1002 0.950 . S
C1025 C1024 1.334 . S
C1025 C1026 1.287 . S
C1026 C1025 1.287 . S
C1026 C1027 1.524 . S
C1026 H1045 0.913 . S
C1027 H1003 0.950 . S
C1027 C1026 1.524 . S
C1027 C1028 1.415 . S
C1028 H1004 0.950 . S
C1028 C1023 1.363 . S
C1028 C1027 1.415 . S
C1029 H1005 0.951 . S
C1029 C1030 1.366 . S
C1029 C1031 1.388 . S
C1030 C1029 1.366 . S
C1030 C1034 1.385 . S
C1031 H1006 0.951 . S
C1031 C1029 1.388 . S
C1031 C1032 1.366 . S
C1032 C1031 1.366 . S
C1032 C1033 1.414 . S
C1032 C1035 1.499 . S
C1033 H1007 0.950 . S
C1033 C1032 1.414 . S
C1033 C1034 1.374 . S
C1034 H1008 0.950 . S
C1034 C1030 1.385 . S
C1034 C1033 1.374 . S
C1035 C1032 1.499 . S
C1035 C1036 1.373 . S
C1035 C1037 1.389 . S
C1036 H1009 0.950 . S
C1036 C1022 1.377 . S
C1036 C1035 1.373 . S
C1037 C1021 1.377 . S
C1037 C1035 1.389 . S
C1037 C1038 1.524 . S
C1038 C1037 1.524 . S
C1038 C1039 1.397 . S
C1038 C1043 1.363 . S
C1039 H1010 0.950 . S
C1039 C1038 1.397 . S
C1039 C1040 1.334 . S
C1040 H1011 0.950 . S
C1040 C1039 1.334 . S
C1040 C1041 1.287 . S
C1041 C1040 1.287 . S
C1041 C1042 1.524 . S
C1041 H1044 0.999 . S
C1042 H1012 0.950 . S
C1042 C1041 1.524 . S
C1042 C1043 1.415 . S
C1043 H1013 0.950 . S
C1043 C1038 1.363 . S
C1043 C1042 1.415 . S
H1044 C1041 0.999 . S
H1045 C1026 0.913 . S
H1046 C1064 0.951 . S
H1047 C1066 0.951 . S
H1048 C1068 0.950 . S
H1049 C1069 0.950 . S
H1050 C1071 0.950 . S
H1051 C1074 0.950 . S
H1052 C1075 0.950 1_554 S
H1053 C1077 0.950 . S
H1054 C1078 0.950 . S
H1055 C1079 0.951 . S
H1056 C1081 0.951 . S
H1057 C1083 0.950 . S
H1058 C1084 0.950 . S
H1059 C1086 0.950 . S
H1060 C1089 0.950 . S
H1061 C1090 0.950 . S
H1062 C1092 0.950 . S
H1063 C1093 0.950 . S
C1064 H1046 0.951 . S
C1064 C1065 1.366 . S
C1064 C1066 1.388 . S
C1065 C1064 1.366 . S
C1065 C1069 1.385 . S
C1066 H1047 0.951 . S
C1066 C1064 1.388 . S
C1066 C1067 1.366 . S
C1067 C1066 1.366 . S
C1067 C1068 1.414 . S
C1067 C1070 1.499 . S
C1068 H1048 0.950 . S
C1068 C1067 1.414 . S
C1068 C1069 1.374 . S
C1069 H1049 0.950 . S
C1069 C1065 1.385 . S
C1069 C1068 1.374 . S
C1070 C1067 1.499 . S
C1070 C1071 1.373 . S
C1070 C1072 1.389 . S
C1071 H1050 0.950 . S
C1071 C1070 1.373 . S
C1071 C1087 1.377 . S
C1072 C1070 1.389 . S
C1072 C1073 1.524 . S
C1072 C1086 1.377 . S
C1073 C1072 1.524 . S
C1073 C1074 1.397 . S
C1073 C1078 1.363 . S
C1074 H1051 0.950 . S
C1074 C1073 1.397 . S
C1074 C1075 1.334 . S
C1075 H1052 0.950 1_556 S
C1075 C1074 1.334 . S
C1075 C1076 1.287 . S
C1076 C1075 1.287 . S
C1076 C1077 1.524 . S
C1076 H1095 0.913 . S
C1077 H1053 0.950 . S
C1077 C1076 1.524 . S
C1077 C1078 1.415 . S
C1078 H1054 0.950 . S
C1078 C1073 1.363 . S
C1078 C1077 1.415 . S
C1079 H1055 0.951 . S
C1079 C1080 1.366 . S
C1079 C1081 1.388 . S
C1080 C1079 1.366 . S
C1080 C1084 1.385 . S
C1081 H1056 0.951 . S
C1081 C1079 1.388 . S
C1081 C1082 1.366 . S
C1082 C1081 1.366 . S
C1082 C1083 1.414 . S
C1082 C1085 1.499 . S
C1083 H1057 0.950 . S
C1083 C1082 1.414 . S
C1083 C1084 1.374 . S
C1084 H1058 0.950 . S
C1084 C1080 1.385 . S
C1084 C1083 1.374 . S
C1085 C1082 1.499 . S
C1085 C1086 1.373 . S
C1085 C1087 1.389 . S
C1086 H1059 0.950 . S
C1086 C1072 1.377 . S
C1086 C1085 1.373 . S
C1087 C1071 1.377 . S
C1087 C1085 1.389 . S
C1087 C1088 1.524 . S
C1088 C1087 1.524 . S
C1088 C1089 1.397 . S
C1088 C1093 1.363 . S
C1089 H1060 0.950 . S
C1089 C1088 1.397 . S
C1089 C1090 1.334 . S
C1090 H1061 0.950 . S
C1090 C1089 1.334 . S
C1090 C1091 1.287 . S
C1091 C1090 1.287 . S
C1091 C1092 1.524 . S
C1091 H1094 0.999 . S
C1092 H1062 0.950 . S
C1092 C1091 1.524 . S
C1092 C1093 1.415 . S
C1093 H1063 0.950 . S
C1093 C1088 1.363 . S
C1093 C1092 1.415 . S
H1094 C1091 0.999 . S
H1095 C1076 0.913 . S
H1096 C1114 0.951 . S
H1097 C1116 0.951 . S
H1098 C1118 0.950 . S
H1099 C1119 0.950 . S
H1100 C1121 0.950 . S
H1101 C1124 0.950 . S
H1102 C1125 0.950 . S
H1103 C1127 0.950 . S
H1104 C1128 0.950 . S
H1105 C1129 0.951 . S
H1106 C1131 0.951 . S
H1107 C1133 0.950 . S
H1108 C1134 0.950 . S
H1109 C1136 0.950 . S
H1110 C1139 0.950 . S
H1111 C1140 0.950 . S
H1112 C1142 0.950 . S
H1113 C1143 0.950 . S
C1114 H1096 0.951 . S
C1114 C1115 1.366 . S
C1114 C1116 1.388 . S
C1115 C1114 1.366 . S
C1115 C1119 1.385 . S
C1116 H1097 0.951 . S
C1116 C1114 1.388 . S
C1116 C1117 1.366 . S
C1117 C1116 1.366 . S
C1117 C1118 1.414 . S
C1117 C1120 1.499 . S
C1118 H1098 0.950 . S
C1118 C1117 1.414 . S
C1118 C1119 1.374 . S
C1119 H1099 0.950 . S
C1119 C1115 1.385 . S
C1119 C1118 1.374 . S
C1120 C1117 1.499 . S
C1120 C1121 1.373 . S
C1120 C1122 1.389 . S
C1121 H1100 0.950 . S
C1121 C1120 1.373 . S
C1121 C1137 1.377 . S
C1122 C1120 1.389 . S
C1122 C1123 1.524 . S
C1122 C1136 1.377 . S
C1123 C1122 1.524 . S
C1123 C1124 1.397 . S
C1123 C1128 1.363 . S
C1124 H1101 0.950 . S
C1124 C1123 1.397 . S
C1124 C1125 1.334 1_556 S
C1125 H1102 0.950 . S
C1125 C1124 1.334 1_554 S
C1125 C1126 1.287 . S
C1126 C1125 1.287 . S
C1126 C1127 1.524 . S
C1126 H1145 0.913 . S
C1127 H1103 0.950 . S
C1127 C1126 1.524 . S
C1127 C1128 1.415 1_554 S
C1128 H1104 0.950 . S
C1128 C1123 1.363 . S
C1128 C1127 1.415 1_556 S
C1129 H1105 0.951 . S
C1129 C1130 1.366 . S
C1129 C1131 1.388 . S
C1130 C1129 1.366 . S
C1130 C1134 1.385 . S
C1131 H1106 0.951 . S
C1131 C1129 1.388 . S
C1131 C1132 1.366 . S
C1132 C1131 1.366 . S
C1132 C1133 1.414 . S
C1132 C1135 1.499 . S
C1133 H1107 0.950 . S
C1133 C1132 1.414 . S
C1133 C1134 1.374 . S
C1134 H1108 0.950 . S
C1134 C1130 1.385 . S
C1134 C1133 1.374 . S
C1135 C1132 1.499 . S
C1135 C1136 1.373 . S
C1135 C1137 1.389 . S
C1136 H1109 0.950 . S
C1136 C1122 1.377 . S
C1136 C1135 1.373 . S
C1137 C1121 1.377 . S
C1137 C1135 1.389 . S
C1137 C1138 1.524 . S
C1138 C1137 1.524 . S
C1138 C1139 1.397 . S
C1138 C1143 1.363 . S
C1139 H1110 0.950 . S
C1139 C1138 1.397 . S
C1139 C1140 1.334 . S
C1140 H1111 0.950 . S
C1140 C1139 1.334 . S
C1140 C1141 1.287 . S
C1141 C1140 1.287 . S
C1141 C1142 1.524 . S
C1141 H1144 0.999 . S
C1142 H1112 0.950 . S
C1142 C1141 1.524 . S
C1142 C1143 1.415 . S
C1143 H1113 0.950 . S
C1143 C1138 1.363 . S
C1143 C1142 1.415 . S
H1144 C1141 0.999 . S
H1145 C1126 0.913 . S
H1146 C1164 0.951 . S
H1147 C1166 0.951 . S
H1148 C1168 0.950 . S
H1149 C1169 0.950 . S
H1150 C1171 0.950 . S
H1151 C1174 0.950 . S
H1152 C1175 0.950 . S
H1153 C1177 0.950 . S
H1154 C1178 0.950 . S
H1155 C1179 0.951 . S
H1156 C1181 0.951 . S
H1157 C1183 0.950 . S
H1158 C1184 0.950 . S
H1159 C1186 0.950 . S
H1160 C1189 0.950 . S
H1161 C1190 0.950 . S
H1162 C1192 0.950 . S
H1163 C1193 0.950 . S
C1164 H1146 0.951 . S
C1164 C1165 1.366 . S
C1164 C1166 1.388 . S
C1165 C1164 1.366 . S
C1165 C1169 1.385 . S
C1166 H1147 0.951 . S
C1166 C1164 1.388 . S
C1166 C1167 1.366 . S
C1167 C1166 1.366 . S
C1167 C1168 1.414 . S
C1167 C1170 1.499 . S
C1168 H1148 0.950 . S
C1168 C1167 1.414 . S
C1168 C1169 1.374 . S
C1169 H1149 0.950 . S
C1169 C1165 1.385 . S
C1169 C1168 1.374 . S
C1170 C1167 1.499 . S
C1170 C1171 1.373 . S
C1170 C1172 1.389 . S
C1171 H1150 0.950 . S
C1171 C1170 1.373 . S
C1171 C1187 1.377 . S
C1172 C1170 1.389 . S
C1172 C1173 1.524 . S
C1172 C1186 1.377 . S
C1173 C1172 1.524 . S
C1173 C1174 1.397 . S
C1173 C1178 1.363 . S
C1174 H1151 0.950 . S
C1174 C1173 1.397 . S
C1174 C1175 1.334 . S
C1175 H1152 0.950 . S
C1175 C1174 1.334 . S
C1175 C1176 1.287 . S
C1176 C1175 1.287 . S
C1176 C1177 1.524 . S
C1176 H1195 0.913 . S
C1177 H1153 0.950 . S
C1177 C1176 1.524 . S
C1177 C1178 1.415 . S
C1178 H1154 0.950 . S
C1178 C1173 1.363 . S
C1178 C1177 1.415 . S
C1179 H1155 0.951 . S
C1179 C1180 1.366 . S
C1179 C1181 1.388 . S
C1180 C1179 1.366 . S
C1180 C1184 1.385 . S
C1181 H1156 0.951 . S
C1181 C1179 1.388 . S
C1181 C1182 1.366 . S
C1182 C1181 1.366 . S
C1182 C1183 1.414 . S
C1182 C1185 1.499 . S
C1183 H1157 0.950 . S
C1183 C1182 1.414 . S
C1183 C1184 1.374 . S
C1184 H1158 0.950 . S
C1184 C1180 1.385 . S
C1184 C1183 1.374 . S
C1185 C1182 1.499 . S
C1185 C1186 1.373 . S
C1185 C1187 1.389 . S
C1186 H1159 0.950 . S
C1186 C1172 1.377 . S
C1186 C1185 1.373 . S
C1187 C1171 1.377 . S
C1187 C1185 1.389 . S
C1187 C1188 1.524 . S
C1188 C1187 1.524 . S
C1188 C1189 1.397 . S
C1188 C1193 1.363 . S
C1189 H1160 0.950 . S
C1189 C1188 1.397 . S
C1189 C1190 1.334 . S
C1190 H1161 0.950 . S
C1190 C1189 1.334 . S
C1190 C1191 1.287 . S
C1191 C1190 1.287 . S
C1191 C1192 1.524 . S
C1191 H1194 0.999 . S
C1192 H1162 0.950 . S
C1192 C1191 1.524 . S
C1192 C1193 1.415 . S
C1193 H1163 0.950 . S
C1193 C1188 1.363 . S
C1193 C1192 1.415 . S
H1194 C1191 0.999 . S
H1195 C1176 0.913 . S
H1196 C1214 0.951 . S
H1197 C1216 0.951 . S
H1198 C1218 0.950 . S
H1199 C1219 0.950 . S
H1200 C1221 0.950 . S
H1201 C1224 0.950 . S
H1202 C1225 0.950 . S
H1203 C1227 0.950 . S
H1204 C1228 0.950 . S
H1205 C1229 0.951 . S
H1206 C1231 0.951 . S
H1207 C1233 0.950 . S
H1208 C1234 0.950 . S
H1209 C1236 0.950 . S
H1210 C1239 0.950 . S
H1211 C1240 0.950 . S
H1212 C1242 0.950 . S
H1213 C1243 0.950 . S
C1214 H1196 0.951 . S
C1214 C1215 1.366 . S
C1214 C1216 1.388 . S
C1215 C1214 1.366 . S
C1215 C1219 1.385 . S
C1216 H1197 0.951 . S
C1216 C1214 1.388 . S
C1216 C1217 1.366 . S
C1217 C1216 1.366 . S
C1217 C1218 1.414 . S
C1217 C1220 1.499 . S
C1218 H1198 0.950 . S
C1218 C1217 1.414 . S
C1218 C1219 1.374 . S
C1219 H1199 0.950 . S
C1219 C1215 1.385 . S
C1219 C1218 1.374 . S
C1220 C1217 1.499 . S
C1220 C1221 1.373 . S
C1220 C1222 1.389 . S
C1221 H1200 0.950 . S
C1221 C1220 1.373 . S
C1221 C1237 1.377 . S
C1222 C1220 1.389 . S
C1222 C1223 1.524 . S
C1222 C1236 1.377 . S
C1223 C1222 1.524 . S
C1223 C1224 1.397 . S
C1223 C1228 1.363 . S
C1224 H1201 0.950 . S
C1224 C1223 1.397 . S
C1224 C1225 1.334 . S
C1225 H1202 0.950 . S
C1225 C1224 1.334 . S
C1225 C1226 1.287 . S
C1226 C1225 1.287 . S
C1226 C1227 1.524 . S
C1226 H1245 0.913 . S
C1227 H1203 0.950 . S
C1227 C1226 1.524 . S
C1227 C1228 1.415 . S
C1228 H1204 0.950 . S
C1228 C1223 1.363 . S
C1228 C1227 1.415 . S
C1229 H1205 0.951 . S
C1229 C1230 1.366 . S
C1229 C1231 1.388 . S
C1230 C1229 1.366 . S
C1230 C1234 1.385 . S
C1231 H1206 0.951 . S
C1231 C1229 1.388 . S
C1231 C1232 1.366 . S
C1232 C1231 1.366 . S
C1232 C1233 1.414 . S
C1232 C1235 1.499 . S
C1233 H1207 0.950 . S
C1233 C1232 1.414 . S
C1233 C1234 1.374 . S
C1234 H1208 0.950 . S
C1234 C1230 1.385 . S
C1234 C1233 1.374 . S
C1235 C1232 1.499 . S
C1235 C1236 1.373 . S
C1235 C1237 1.389 . S
C1236 H1209 0.950 . S
C1236 C1222 1.377 . S
C1236 C1235 1.373 . S
C1237 C1221 1.377 . S
C1237 C1235 1.389 . S
C1237 C1238 1.524 . S
C1238 C1237 1.524 . S
C1238 C1239 1.397 . S
C1238 C1243 1.363 . S
C1239 H1210 0.950 . S
C1239 C1238 1.397 . S
C1239 C1240 1.334 . S
C1240 H1211 0.950 . S
C1240 C1239 1.334 . S
C1240 C1241 1.287 . S
C1241 C1240 1.287 . S
C1241 C1242 1.524 . S
C1241 H1244 0.999 . S
C1242 H1212 0.950 . S
C1242 C1241 1.524 . S
C1242 C1243 1.415 . S
C1243 H1213 0.950 . S
C1243 C1238 1.363 . S
C1243 C1242 1.415 . S
H1244 C1241 0.999 . S
H1245 C1226 0.913 . S
H1246 C1264 0.951 . S
H1247 C1266 0.951 . S
H1248 C1268 0.950 . S
H1249 C1269 0.950 . S
H1250 C1271 0.950 . S
H1251 C1274 0.950 . S
H1252 C1275 0.950 . S
H1253 C1277 0.950 . S
H1254 C1278 0.950 . S
H1255 C1279 0.951 . S
H1256 C1281 0.951 . S
H1257 C1283 0.950 . S
H1258 C1284 0.950 . S
H1259 C1286 0.950 . S
H1260 C1289 0.950 . S
H1261 C1290 0.950 . S
H1262 C1292 0.950 . S
H1263 C1293 0.950 . S
C1264 H1246 0.951 . S
C1264 C1265 1.366 . S
C1264 C1266 1.388 . S
C1265 C1264 1.366 . S
C1265 C1269 1.385 . S
C1266 H1247 0.951 . S
C1266 C1264 1.388 . S
C1266 C1267 1.366 . S
C1267 C1266 1.366 . S
C1267 C1268 1.414 . S
C1267 C1270 1.499 . S
C1268 H1248 0.950 . S
C1268 C1267 1.414 . S
C1268 C1269 1.374 . S
C1269 H1249 0.950 . S
C1269 C1265 1.385 . S
C1269 C1268 1.374 . S
C1270 C1267 1.499 . S
C1270 C1271 1.373 . S
C1270 C1272 1.389 . S
C1271 H1250 0.950 . S
C1271 C1270 1.373 . S
C1271 C1287 1.377 . S
C1272 C1270 1.389 . S
C1272 C1273 1.524 . S
C1272 C1286 1.377 . S
C1273 C1272 1.524 . S
C1273 C1274 1.397 . S
C1273 C1278 1.363 . S
C1274 H1251 0.950 . S
C1274 C1273 1.397 . S
C1274 C1275 1.334 . S
C1275 H1252 0.950 . S
C1275 C1274 1.334 . S
C1275 C1276 1.287 . S
C1276 C1275 1.287 . S
C1276 C1277 1.524 . S
C1276 H1295 0.913 . S
C1277 H1253 0.950 . S
C1277 C1276 1.524 . S
C1277 C1278 1.415 . S
C1278 H1254 0.950 . S
C1278 C1273 1.363 . S
C1278 C1277 1.415 . S
C1279 H1255 0.951 . S
C1279 C1280 1.366 . S
C1279 C1281 1.388 . S
C1280 C1279 1.366 . S
C1280 C1284 1.385 . S
C1281 H1256 0.951 . S
C1281 C1279 1.388 . S
C1281 C1282 1.366 . S
C1282 C1281 1.366 . S
C1282 C1283 1.414 . S
C1282 C1285 1.499 . S
C1283 H1257 0.950 . S
C1283 C1282 1.414 . S
C1283 C1284 1.374 . S
C1284 H1258 0.950 . S
C1284 C1280 1.385 . S
C1284 C1283 1.374 . S
C1285 C1282 1.499 . S
C1285 C1286 1.373 . S
C1285 C1287 1.389 . S
C1286 H1259 0.950 . S
C1286 C1272 1.377 . S
C1286 C1285 1.373 . S
C1287 C1271 1.377 . S
C1287 C1285 1.389 . S
C1287 C1288 1.524 . S
C1288 C1287 1.524 . S
C1288 C1289 1.397 . S
C1288 C1293 1.363 . S
C1289 H1260 0.950 . S
C1289 C1288 1.397 . S
C1289 C1290 1.334 . S
C1290 H1261 0.950 . S
C1290 C1289 1.334 . S
C1290 C1291 1.287 . S
C1291 C1290 1.287 . S
C1291 C1292 1.524 . S
C1291 H1294 0.999 . S
C1292 H1262 0.950 . S
C1292 C1291 1.524 . S
C1292 C1293 1.415 . S
C1293 H1263 0.950 . S
C1293 C1288 1.363 . S
C1293 C1292 1.415 . S
H1294 C1291 0.999 . S
H1295 C1276 0.913 . S
H1296 C1314 0.951 . S
H1297 C1316 0.951 . S
H1298 C1318 0.950 . S
H1299 C1319 0.950 1_554 S
H1300 C1321 0.950 . S
H1301 C1324 0.950 . S
H1302 C1325 0.950 . S
H1303 C1327 0.950 . S
H1304 C1328 0.950 . S
H1305 C1329 0.951 . S
H1306 C1331 0.951 . S
H1307 C1333 0.950 . S
H1308 C1334 0.950 . S
H1309 C1336 0.950 . S
H1310 C1339 0.950 . S
H1311 C1340 0.950 . S
H1312 C1342 0.950 1_554 S
H1313 C1343 0.950 . S
C1314 H1296 0.951 . S
C1314 C1315 1.366 . S
C1314 C1316 1.388 . S
C1315 C1314 1.366 . S
C1315 C1319 1.385 . S
C1316 H1297 0.951 . S
C1316 C1314 1.388 . S
C1316 C1317 1.366 . S
C1317 C1316 1.366 . S
C1317 C1318 1.414 . S
C1317 C1320 1.499 . S
C1318 H1298 0.950 . S
C1318 C1317 1.414 . S
C1318 C1319 1.374 . S
C1319 H1299 0.950 1_556 S
C1319 C1315 1.385 . S
C1319 C1318 1.374 . S
C1320 C1317 1.499 . S
C1320 C1321 1.373 . S
C1320 C1322 1.389 . S
C1321 H1300 0.950 . S
C1321 C1320 1.373 . S
C1321 C1337 1.377 . S
C1322 C1320 1.389 . S
C1322 C1323 1.524 . S
C1322 C1336 1.377 . S
C1323 C1322 1.524 . S
C1323 C1324 1.397 . S
C1323 C1328 1.363 . S
C1324 H1301 0.950 . S
C1324 C1323 1.397 . S
C1324 C1325 1.334 . S
C1325 H1302 0.950 . S
C1325 C1324 1.334 . S
C1325 C1326 1.287 . S
C1326 C1325 1.287 . S
C1326 C1327 1.524 . S
C1326 H1345 0.913 . S
C1327 H1303 0.950 . S
C1327 C1326 1.524 . S
C1327 C1328 1.415 . S
C1328 H1304 0.950 . S
C1328 C1323 1.363 . S
C1328 C1327 1.415 . S
C1329 H1305 0.951 . S
C1329 C1330 1.366 . S
C1329 C1331 1.388 . S
C1330 C1329 1.366 . S
C1330 C1334 1.385 . S
C1331 H1306 0.951 . S
C1331 C1329 1.388 . S
C1331 C1332 1.366 . S
C1332 C1331 1.366 . S
C1332 C1333 1.414 . S
C1332 C1335 1.499 . S
C1333 H1307 0.950 . S
C1333 C1332 1.414 . S
C1333 C1334 1.374 . S
C1334 H1308 0.950 . S
C1334 C1330 1.385 . S
C1334 C1333 1.374 . S
C1335 C1332 1.499 . S
C1335 C1336 1.373 . S
C1335 C1337 1.389 . S
C1336 H1309 0.950 . S
C1336 C1322 1.377 . S
C1336 C1335 1.373 . S
C1337 C1321 1.377 . S
C1337 C1335 1.389 . S
C1337 C1338 1.524 . S
C1338 C1337 1.524 . S
C1338 C1339 1.397 . S
C1338 C1343 1.363 . S
C1339 H1310 0.950 . S
C1339 C1338 1.397 . S
C1339 C1340 1.334 . S
C1340 H1311 0.950 . S
C1340 C1339 1.334 . S
C1340 C1341 1.287 . S
C1341 C1340 1.287 . S
C1341 C1342 1.524 . S
C1341 H1344 0.999 1_556 S
C1342 H1312 0.950 1_556 S
C1342 C1341 1.524 . S
C1342 C1343 1.415 . S
C1343 H1313 0.950 . S
C1343 C1338 1.363 . S
C1343 C1342 1.415 . S
H1344 C1341 0.999 1_554 S
H1345 C1326 0.913 . S
H1346 C1364 0.951 . S
H1347 C1366 0.951 . S
H1348 C1368 0.950 . S
H1349 C1369 0.939 1_554 S
H1350 C1371 0.950 . S
H1351 C1374 0.950 . S
H1352 C1375 0.950 . S
H1353 C1377 0.950 . S
H1354 C1378 0.950 . S
H1355 C1379 0.951 . S
H1356 C1381 0.951 . S
H1357 C1383 0.950 . S
H1358 C1384 0.950 . S
H1359 C1386 0.950 . S
H1360 C1389 0.950 . S
H1361 C1390 0.950 . S
H1362 C1392 0.950 . S
H1363 C1393 0.950 . S
C1364 H1346 0.951 . S
C1364 C1365 1.366 . S
C1364 C1366 1.388 . S
C1365 C1364 1.366 . S
C1365 C1369 1.390 . S
C1366 H1347 0.951 . S
C1366 C1364 1.388 . S
C1366 C1367 1.366 . S
C1367 C1366 1.366 . S
C1367 C1368 1.414 . S
C1367 C1370 1.499 . S
C1368 H1348 0.950 . S
C1368 C1367 1.414 . S
C1368 C1369 1.380 . S
C1369 H1349 0.939 1_556 S
C1369 C1365 1.390 . S
C1369 C1368 1.380 . S
C1370 C1367 1.499 . S
C1370 C1371 1.373 . S
C1370 C1372 1.389 . S
C1371 H1350 0.950 . S
C1371 C1370 1.373 . S
C1371 C1387 1.377 . S
C1372 C1370 1.389 . S
C1372 C1373 1.524 . S
C1372 C1386 1.377 . S
C1373 C1372 1.524 . S
C1373 C1374 1.397 . S
C1373 C1378 1.363 . S
C1374 H1351 0.950 . S
C1374 C1373 1.397 . S
C1374 C1375 1.334 . S
C1375 H1352 0.950 . S
C1375 C1374 1.334 . S
C1375 C1376 1.287 . S
C1376 C1375 1.287 . S
C1376 C1377 1.524 . S
C1376 H1395 0.913 . S
C1377 H1353 0.950 . S
C1377 C1376 1.524 . S
C1377 C1378 1.415 . S
C1378 H1354 0.950 . S
C1378 C1373 1.363 . S
C1378 C1377 1.415 . S
C1379 H1355 0.951 . S
C1379 C1380 1.366 . S
C1379 C1381 1.388 . S
C1380 C1379 1.366 . S
C1380 C1384 1.385 . S
C1381 H1356 0.951 . S
C1381 C1379 1.388 . S
C1381 C1382 1.366 . S
C1382 C1381 1.366 . S
C1382 C1383 1.414 . S
C1382 C1385 1.499 . S
C1383 H1357 0.950 . S
C1383 C1382 1.414 . S
C1383 C1384 1.374 . S
C1384 H1358 0.950 . S
C1384 C1380 1.385 . S
C1384 C1383 1.374 . S
C1385 C1382 1.499 . S
C1385 C1386 1.373 . S
C1385 C1387 1.389 . S
C1386 H1359 0.950 . S
C1386 C1372 1.377 . S
C1386 C1385 1.373 . S
C1387 C1371 1.377 . S
C1387 C1385 1.389 . S
C1387 C1388 1.524 . S
C1388 C1387 1.524 . S
C1388 C1389 1.397 . S
C1388 C1393 1.363 . S
C1389 H1360 0.950 . S
C1389 C1388 1.397 . S
C1389 C1390 1.334 . S
C1390 H1361 0.950 . S
C1390 C1389 1.334 . S
C1390 C1391 1.287 . S
C1391 C1390 1.287 . S
C1391 C1392 1.524 . S
C1391 H1394 0.999 . S
C1392 H1362 0.950 . S
C1392 C1391 1.524 . S
C1392 C1393 1.415 . S
C1393 H1363 0.950 . S
C1393 C1388 1.363 . S
C1393 C1392 1.415 . S
H1394 C1391 0.999 . S
H1395 C1376 0.913 . S
H1396 C1414 0.951 1_554 S
H1397 C1416 0.951 . S
H1398 C1418 0.950 . S
H1399 C1419 0.950 . S
H1400 C1421 0.950 . S
H1401 C1424 0.950 . S
H1402 C1425 0.950 . S
H1403 C1427 0.950 . S
H1404 C1428 0.950 . S
H1405 C1429 0.951 . S
H1406 C1431 0.951 . S
H1407 C1433 0.950 . S
H1408 C1434 0.950 . S
H1409 C1436 0.950 . S
H1410 C1439 0.950 . S
H1411 C1440 0.950 . S
H1412 C1442 0.950 . S
H1413 C1443 0.950 . S
C1414 H1396 0.951 1_556 S
C1414 C1415 1.366 . S
C1414 C1416 1.388 . S
C1415 C1414 1.366 . S
C1415 C1419 1.385 . S
C1416 H1397 0.951 . S
C1416 C1414 1.388 . S
C1416 C1417 1.366 . S
C1417 C1416 1.366 . S
C1417 C1418 1.414 . S
C1417 C1420 1.499 . S
C1418 H1398 0.950 . S
C1418 C1417 1.414 . S
C1418 C1419 1.374 . S
C1419 H1399 0.950 . S
C1419 C1415 1.385 . S
C1419 C1418 1.374 . S
C1420 C1417 1.499 . S
C1420 C1421 1.373 . S
C1420 C1422 1.389 . S
C1421 H1400 0.950 . S
C1421 C1420 1.373 . S
C1421 C1437 1.377 . S
C1422 C1420 1.389 . S
C1422 C1423 1.524 . S
C1422 C1436 1.377 . S
C1423 C1422 1.524 . S
C1423 C1424 1.397 . S
C1423 C1428 1.363 . S
C1424 H1401 0.950 . S
C1424 C1423 1.397 . S
C1424 C1425 1.334 . S
C1425 H1402 0.950 . S
C1425 C1424 1.334 . S
C1425 C1426 1.287 . S
C1426 C1425 1.287 . S
C1426 C1427 1.524 . S
C1426 H1445 0.913 . S
C1427 H1403 0.950 . S
C1427 C1426 1.524 . S
C1427 C1428 1.415 . S
C1428 H1404 0.950 . S
C1428 C1423 1.363 . S
C1428 C1427 1.415 . S
C1429 H1405 0.951 . S
C1429 C1430 1.366 . S
C1429 C1431 1.388 . S
C1430 C1429 1.366 . S
C1430 C1434 1.385 . S
C1431 H1406 0.951 . S
C1431 C1429 1.388 . S
C1431 C1432 1.366 . S
C1432 C1431 1.366 . S
C1432 C1433 1.414 . S
C1432 C1435 1.499 . S
C1433 H1407 0.950 . S
C1433 C1432 1.414 . S
C1433 C1434 1.374 . S
C1434 H1408 0.950 . S
C1434 C1430 1.385 . S
C1434 C1433 1.374 . S
C1435 C1432 1.499 . S
C1435 C1436 1.373 . S
C1435 C1437 1.389 . S
C1436 H1409 0.950 . S
C1436 C1422 1.377 . S
C1436 C1435 1.373 . S
C1437 C1421 1.377 . S
C1437 C1435 1.389 . S
C1437 C1438 1.524 . S
C1438 C1437 1.524 . S
C1438 C1439 1.397 . S
C1438 C1443 1.363 . S
C1439 H1410 0.950 . S
C1439 C1438 1.397 . S
C1439 C1440 1.334 . S
C1440 H1411 0.950 . S
C1440 C1439 1.334 . S
C1440 C1441 1.287 . S
C1441 C1440 1.287 . S
C1441 C1442 1.524 . S
C1441 H1444 0.999 . S
C1442 H1412 0.950 . S
C1442 C1441 1.524 . S
C1442 C1443 1.415 . S
C1443 H1413 0.950 . S
C1443 C1438 1.363 . S
C1443 C1442 1.415 . S
H1444 C1441 0.999 . S
H1445 C1426 0.913 . S
H1446 C1464 0.951 . S
H1447 C1466 0.951 . S
H1448 C1468 0.950 . S
H1449 C1469 0.950 . S
H1450 C1471 0.950 . S
H1451 C1474 0.950 . S
H1452 C1475 0.950 . S
H1453 C1477 0.950 . S
H1454 C1478 0.950 . S
H1455 C1479 0.951 . S
H1456 C1481 0.951 . S
H1457 C1483 0.950 . S
H1458 C1484 0.950 . S
H1459 C1486 0.950 . S
H1460 C1489 0.950 . S
H1461 C1490 0.950 . S
H1462 C1492 0.950 . S
H1463 C1493 0.950 . S
C1464 H1446 0.951 . S
C1464 C1465 1.366 . S
C1464 C1466 1.388 . S
C1465 C1464 1.366 . S
C1465 C1469 1.385 . S
C1466 H1447 0.951 . S
C1466 C1464 1.388 . S
C1466 C1467 1.366 . S
C1467 C1466 1.366 . S
C1467 C1468 1.414 . S
C1467 C1470 1.499 . S
C1468 H1448 0.950 . S
C1468 C1467 1.414 . S
C1468 C1469 1.374 . S
C1469 H1449 0.950 . S
C1469 C1465 1.385 . S
C1469 C1468 1.374 . S
C1470 C1467 1.499 . S
C1470 C1471 1.373 . S
C1470 C1472 1.389 . S
C1471 H1450 0.950 . S
C1471 C1470 1.373 . S
C1471 C1487 1.377 . S
C1472 C1470 1.389 . S
C1472 C1473 1.524 . S
C1472 C1486 1.377 . S
C1473 C1472 1.524 . S
C1473 C1474 1.397 . S
C1473 C1478 1.363 . S
C1474 H1451 0.950 . S
C1474 C1473 1.397 . S
C1474 C1475 1.334 . S
C1475 H1452 0.950 . S
C1475 C1474 1.334 . S
C1475 C1476 1.287 . S
C1476 C1475 1.287 . S
C1476 C1477 1.524 . S
C1476 H1495 0.913 . S
C1477 H1453 0.950 . S
C1477 C1476 1.524 . S
C1477 C1478 1.415 . S
C1478 H1454 0.950 . S
C1478 C1473 1.363 . S
C1478 C1477 1.415 . S
C1479 H1455 0.951 . S
C1479 C1480 1.366 . S
C1479 C1481 1.388 . S
C1480 C1479 1.366 . S
C1480 C1484 1.385 . S
C1481 H1456 0.951 . S
C1481 C1479 1.388 . S
C1481 C1482 1.366 . S
C1482 C1481 1.366 . S
C1482 C1483 1.414 . S
C1482 C1485 1.499 . S
C1483 H1457 0.950 . S
C1483 C1482 1.414 . S
C1483 C1484 1.374 . S
C1484 H1458 0.950 . S
C1484 C1480 1.385 . S
C1484 C1483 1.374 . S
C1485 C1482 1.499 . S
C1485 C1486 1.373 . S
C1485 C1487 1.389 . S
C1486 H1459 0.950 . S
C1486 C1472 1.377 . S
C1486 C1485 1.373 . S
C1487 C1471 1.377 . S
C1487 C1485 1.389 . S
C1487 C1488 1.524 . S
C1488 C1487 1.524 . S
C1488 C1489 1.397 . S
C1488 C1493 1.363 . S
C1489 H1460 0.950 . S
C1489 C1488 1.397 . S
C1489 C1490 1.334 . S
C1490 H1461 0.950 . S
C1490 C1489 1.334 . S
C1490 C1491 1.287 . S
C1491 C1490 1.287 . S
C1491 C1492 1.524 . S
C1491 H1494 0.999 . S
C1492 H1462 0.950 . S
C1492 C1491 1.524 . S
C1492 C1493 1.415 . S
C1493 H1463 0.950 . S
C1493 C1488 1.363 . S
C1493 C1492 1.415 . S
H1494 C1491 0.999 . S
H1495 C1476 0.913 . S
H1496 C1514 0.951 . S
H1497 C1516 0.951 . S
H1498 C1518 0.950 . S
H1499 C1519 0.950 . S
H1500 C1521 0.950 . S
H1501 C1524 0.950 . S
H1502 C1525 0.950 . S
H1503 C1527 0.950 . S
H1504 C1528 0.950 . S
H1505 C1529 0.951 . S
H1506 C1531 0.951 . S
H1507 C1533 0.950 . S
H1508 C1534 0.950 . S
H1509 C1536 0.950 . S
H1510 C1539 0.950 . S
H1511 C1540 0.950 . S
H1512 C1542 0.950 . S
H1513 C1543 0.950 . S
C1514 H1496 0.951 . S
C1514 C1515 1.366 . S
C1514 C1516 1.388 . S
C1515 C1514 1.366 . S
C1515 C1519 1.385 . S
C1516 H1497 0.951 . S
C1516 C1514 1.388 . S
C1516 C1517 1.366 . S
C1517 C1516 1.366 . S
C1517 C1518 1.414 . S
C1517 C1520 1.499 . S
C1518 H1498 0.950 . S
C1518 C1517 1.414 . S
C1518 C1519 1.374 . S
C1519 H1499 0.950 . S
C1519 C1515 1.385 . S
C1519 C1518 1.374 . S
C1520 C1517 1.499 . S
C1520 C1521 1.373 . S
C1520 C1522 1.389 . S
C1521 H1500 0.950 . S
C1521 C1520 1.373 . S
C1521 C1537 1.377 . S
C1522 C1520 1.389 . S
C1522 C1523 1.524 . S
C1522 C1536 1.377 . S
C1523 C1522 1.524 . S
C1523 C1524 1.397 . S
C1523 C1528 1.363 . S
C1524 H1501 0.950 . S
C1524 C1523 1.397 . S
C1524 C1525 1.334 . S
C1525 H1502 0.950 . S
C1525 C1524 1.334 . S
C1525 C1526 1.287 . S
C1526 C1525 1.287 . S
C1526 C1527 1.524 . S
C1526 H1545 0.913 . S
C1527 H1503 0.950 . S
C1527 C1526 1.524 . S
C1527 C1528 1.415 . S
C1528 H1504 0.950 . S
C1528 C1523 1.363 . S
C1528 C1527 1.415 . S
C1529 H1505 0.951 . S
C1529 C1530 1.366 . S
C1529 C1531 1.388 . S
C1530 C1529 1.366 . S
C1530 C1534 1.385 . S
C1531 H1506 0.951 . S
C1531 C1529 1.388 . S
C1531 C1532 1.366 . S
C1532 C1531 1.366 . S
C1532 C1533 1.414 . S
C1532 C1535 1.499 . S
C1533 H1507 0.950 . S
C1533 C1532 1.414 . S
C1533 C1534 1.374 . S
C1534 H1508 0.950 . S
C1534 C1530 1.385 . S
C1534 C1533 1.374 . S
C1535 C1532 1.499 . S
C1535 C1536 1.373 . S
C1535 C1537 1.389 . S
C1536 H1509 0.950 . S
C1536 C1522 1.377 . S
C1536 C1535 1.373 . S
C1537 C1521 1.377 . S
C1537 C1535 1.389 . S
C1537 C1538 1.524 . S
C1538 C1537 1.524 . S
C1538 C1539 1.397 . S
C1538 C1543 1.363 . S
C1539 H1510 0.950 . S
C1539 C1538 1.397 . S
C1539 C1540 1.334 . S
C1540 H1511 0.950 . S
C1540 C1539 1.334 . S
C1540 C1541 1.287 . S
C1541 C1540 1.287 . S
C1541 C1542 1.524 . S
C1541 H1544 0.999 . S
C1542 H1512 0.950 . S
C1542 C1541 1.524 . S
C1542 C1543 1.415 . S
C1543 H1513 0.950 . S
C1543 C1538 1.363 . S
C1543 C1542 1.415 . S
H1544 C1541 0.999 . S
H1545 C1526 0.913 . S
H1546 C1564 0.951 . S
H1547 C1566 0.951 . S
H1548 C1568 0.950 . S
H1549 C1569 0.950 . S
H1550 C1571 0.950 . S
H1551 C1574 0.950 . S
H1552 C1575 0.950 . S
H1553 C1577 0.950 . S
H1554 C1578 0.950 . S
H1555 C1579 0.951 . S
H1556 C1581 0.951 . S
H1557 C1583 0.950 . S
H1558 C1584 0.950 . S
H1559 C1586 0.950 . S
H1560 C1589 0.950 . S
H1561 C1590 0.950 . S
H1562 C1592 0.950 . S
H1563 C1593 0.950 . S
C1564 H1546 0.951 . S
C1564 C1565 1.366 . S
C1564 C1566 1.388 . S
C1565 C1564 1.366 . S
C1565 C1569 1.385 . S
C1566 H1547 0.951 . S
C1566 C1564 1.388 . S
C1566 C1567 1.366 . S
C1567 C1566 1.366 . S
C1567 C1568 1.414 . S
C1567 C1570 1.499 . S
C1568 H1548 0.950 . S
C1568 C1567 1.414 . S
C1568 C1569 1.374 . S
C1569 H1549 0.950 . S
C1569 C1565 1.385 . S
C1569 C1568 1.374 . S
C1570 C1567 1.499 . S
C1570 C1571 1.373 . S
C1570 C1572 1.389 . S
C1571 H1550 0.950 . S
C1571 C1570 1.373 . S
C1571 C1587 1.377 . S
C1572 C1570 1.389 . S
C1572 C1573 1.524 . S
C1572 C1586 1.377 . S
C1573 C1572 1.524 . S
C1573 C1574 1.397 . S
C1573 C1578 1.363 . S
C1574 H1551 0.950 . S
C1574 C1573 1.397 . S
C1574 C1575 1.334 . S
C1575 H1552 0.950 . S
C1575 C1574 1.334 . S
C1575 C1576 1.287 . S
C1576 C1575 1.287 . S
C1576 C1577 1.524 . S
C1576 H1595 0.913 . S
C1577 H1553 0.950 . S
C1577 C1576 1.524 . S
C1577 C1578 1.415 . S
C1578 H1554 0.950 . S
C1578 C1573 1.363 . S
C1578 C1577 1.415 . S
C1579 H1555 0.951 . S
C1579 C1580 1.366 . S
C1579 C1581 1.388 . S
C1580 C1579 1.366 . S
C1580 C1584 1.385 . S
C1581 H1556 0.951 . S
C1581 C1579 1.388 . S
C1581 C1582 1.366 . S
C1582 C1581 1.366 . S
C1582 C1583 1.414 . S
C1582 C1585 1.499 . S
C1583 H1557 0.950 . S
C1583 C1582 1.414 . S
C1583 C1584 1.374 . S
C1584 H1558 0.950 . S
C1584 C1580 1.385 . S
C1584 C1583 1.374 . S
C1585 C1582 1.499 . S
C1585 C1586 1.373 . S
C1585 C1587 1.389 . S
C1586 H1559 0.950 . S
C1586 C1572 1.377 . S
C1586 C1585 1.373 . S
C1587 C1571 1.377 . S
C1587 C1585 1.389 . S
C1587 C1588 1.524 . S
C1588 C1587 1.524 . S
C1588 C1589 1.397 . S
C1588 C1593 1.363 . S
C1589 H1560 0.950 . S
C1589 C1588 1.397 . S
C1589 C1590 1.334 . S
C1590 H1561 0.950 . S
C1590 C1589 1.334 . S
C1590 C1591 1.287 . S
C1591 C1590 1.287 . S
C1591 C1592 1.524 . S
C1591 H1594 0.999 . S
C1592 H1562 0.950 . S
C1592 C1591 1.524 . S
C1592 C1593 1.415 . S
C1593 H1563 0.950 . S
C1593 C1588 1.363 . S
C1593 C1592 1.415 . S
H1594 C1591 0.999 . S
H1595 C1576 0.913 . S
H1596 C1614 0.951 . S
H1597 C1616 0.951 . S
H1598 C1618 0.950 . S
H1599 C1619 0.950 . S
H1600 C1621 0.950 . S
H1601 C1624 0.950 . S
H1602 C1625 0.950 . S
H1603 C1627 0.950 . S
H1604 C1628 0.950 . S
H1605 C1629 0.951 . S
H1606 C1631 0.951 . S
H1607 C1633 0.950 . S
H1608 C1634 0.950 . S
H1609 C1636 0.950 . S
H1610 C1639 0.950 . S
H1611 C1640 0.950 . S
H1612 C1642 0.950 . S
H1613 C1643 0.950 . S
C1614 H1596 0.951 . S
C1614 C1615 1.366 . S
C1614 C1616 1.388 . S
C1615 C1614 1.366 . S
C1615 C1619 1.385 . S
C1616 H1597 0.951 . S
C1616 C1614 1.388 . S
C1616 C1617 1.366 . S
C1617 C1616 1.366 . S
C1617 C1618 1.414 . S
C1617 C1620 1.499 . S
C1618 H1598 0.950 . S
C1618 C1617 1.414 . S
C1618 C1619 1.374 . S
C1619 H1599 0.950 . S
C1619 C1615 1.385 . S
C1619 C1618 1.374 . S
C1620 C1617 1.499 . S
C1620 C1621 1.373 . S
C1620 C1622 1.389 . S
C1621 H1600 0.950 . S
C1621 C1620 1.373 . S
C1621 C1637 1.377 . S
C1622 C1620 1.389 . S
C1622 C1623 1.524 . S
C1622 C1636 1.377 . S
C1623 C1622 1.524 . S
C1623 C1624 1.397 . S
C1623 C1628 1.363 . S
C1624 H1601 0.950 . S
C1624 C1623 1.397 . S
C1624 C1625 1.334 . S
C1625 H1602 0.950 . S
C1625 C1624 1.334 . S
C1625 C1626 1.287 . S
C1626 C1625 1.287 . S
C1626 C1627 1.524 . S
C1626 H1645 0.913 . S
C1627 H1603 0.950 . S
C1627 C1626 1.524 . S
C1627 C1628 1.415 . S
C1628 H1604 0.950 . S
C1628 C1623 1.363 . S
C1628 C1627 1.415 . S
C1629 H1605 0.951 . S
C1629 C1630 1.366 . S
C1629 C1631 1.388 . S
C1630 C1629 1.366 . S
C1630 C1634 1.385 1_554 S
C1631 H1606 0.951 . S
C1631 C1629 1.388 . S
C1631 C1632 1.366 . S
C1632 C1631 1.366 . S
C1632 C1633 1.414 . S
C1632 C1635 1.499 . S
C1633 H1607 0.950 . S
C1633 C1632 1.414 . S
C1633 C1634 1.374 1_554 S
C1634 H1608 0.950 . S
C1634 C1630 1.385 1_556 S
C1634 C1633 1.374 1_556 S
C1635 C1632 1.499 . S
C1635 C1636 1.373 . S
C1635 C1637 1.389 . S
C1636 H1609 0.950 . S
C1636 C1622 1.377 . S
C1636 C1635 1.373 . S
C1637 C1621 1.377 . S
C1637 C1635 1.389 . S
C1637 C1638 1.524 . S
C1638 C1637 1.524 . S
C1638 C1639 1.397 . S
C1638 C1643 1.363 . S
C1639 H1610 0.950 . S
C1639 C1638 1.397 . S
C1639 C1640 1.334 . S
C1640 H1611 0.950 . S
C1640 C1639 1.334 . S
C1640 C1641 1.287 . S
C1641 C1640 1.287 . S
C1641 C1642 1.524 . S
C1641 H1644 0.999 . S
C1642 H1612 0.950 . S
C1642 C1641 1.524 . S
C1642 C1643 1.415 . S
C1643 H1613 0.950 . S
C1643 C1638 1.363 . S
C1643 C1642 1.415 . S
H1644 C1641 0.999 . S
H1645 C1626 0.913 . S
H1646 C1664 0.951 . S
H1647 C1666 0.951 . S
H1648 C1668 0.950 . S
H1649 C1669 0.950 . S
H1650 C1671 0.950 . S
H1651 C1674 0.950 . S
H1652 C1675 0.950 . S
H1653 C1677 0.950 . S
H1654 C1678 0.950 . S
H1655 C1679 0.951 . S
H1656 C1681 0.951 . S
H1657 C1683 0.950 . S
H1658 C1684 0.950 . S
H1659 C1686 0.950 . S
H1660 C1689 0.950 1_554 S
H1661 C1690 0.950 . S
H1662 C1692 0.950 . S
H1663 C1693 0.950 . S
C1664 H1646 0.951 . S
C1664 C1665 1.366 . S
C1664 C1666 1.388 . S
C1665 C1664 1.366 . S
C1665 C1669 1.385 . S
C1666 H1647 0.951 . S
C1666 C1664 1.388 . S
C1666 C1667 1.366 . S
C1667 C1666 1.366 . S
C1667 C1668 1.414 . S
C1667 C1670 1.499 . S
C1668 H1648 0.950 . S
C1668 C1667 1.414 . S
C1668 C1669 1.374 . S
C1669 H1649 0.950 . S
C1669 C1665 1.385 . S
C1669 C1668 1.374 . S
C1670 C1667 1.499 . S
C1670 C1671 1.373 . S
C1670 C1672 1.389 . S
C1671 H1650 0.950 . S
C1671 C1670 1.373 . S
C1671 C1687 1.377 . S
C1672 C1670 1.389 . S
C1672 C1673 1.524 . S
C1672 C1686 1.377 . S
C1673 C1672 1.524 . S
C1673 C1674 1.397 . S
C1673 C1678 1.363 . S
C1674 H1651 0.950 . S
C1674 C1673 1.397 . S
C1674 C1675 1.334 . S
C1675 H1652 0.950 . S
C1675 C1674 1.334 . S
C1675 C1676 1.287 . S
C1676 C1675 1.287 . S
C1676 C1677 1.524 . S
C1676 H1695 0.913 . S
C1677 H1653 0.950 . S
C1677 C1676 1.524 . S
C1677 C1678 1.415 . S
C1678 H1654 0.950 . S
C1678 C1673 1.363 . S
C1678 C1677 1.415 . S
C1679 H1655 0.951 . S
C1679 C1680 1.366 . S
C1679 C1681 1.388 . S
C1680 C1679 1.366 . S
C1680 C1684 1.385 . S
C1681 H1656 0.951 . S
C1681 C1679 1.388 . S
C1681 C1682 1.366 . S
C1682 C1681 1.366 . S
C1682 C1683 1.414 . S
C1682 C1685 1.499 . S
C1683 H1657 0.950 . S
C1683 C1682 1.414 . S
C1683 C1684 1.374 . S
C1684 H1658 0.950 . S
C1684 C1680 1.385 . S
C1684 C1683 1.374 . S
C1685 C1682 1.499 . S
C1685 C1686 1.373 . S
C1685 C1687 1.389 . S
C1686 H1659 0.950 . S
C1686 C1672 1.377 . S
C1686 C1685 1.373 . S
C1687 C1671 1.377 . S
C1687 C1685 1.389 . S
C1687 C1688 1.524 . S
C1688 C1687 1.524 . S
C1688 C1689 1.397 1_554 S
C1688 C1693 1.363 . S
C1689 H1660 0.950 1_556 S
C1689 C1688 1.397 1_556 S
C1689 C1690 1.334 . S
C1690 H1661 0.950 . S
C1690 C1689 1.334 . S
C1690 C1691 1.287 . S
C1691 C1690 1.287 . S
C1691 C1692 1.524 . S
C1691 H1694 0.999 . S
C1692 H1662 0.950 . S
C1692 C1691 1.524 . S
C1692 C1693 1.415 1_556 S
C1693 H1663 0.950 . S
C1693 C1688 1.363 . S
C1693 C1692 1.415 1_554 S
H1694 C1691 0.999 . S
H1695 C1676 0.913 . S
H1696 C1714 0.951 . S
H1697 C1716 0.951 . S
H1698 C1718 0.950 . S
H1699 C1719 0.950 . S
H1700 C1721 0.950 . S
H1701 C1724 0.950 . S
H1702 C1725 0.950 . S
H1703 C1727 0.949 1_556 S
H1704 C1728 0.950 . S
H1705 C1729 0.951 . S
H1706 C1731 0.951 . S
H1707 C1733 0.950 . S
H1708 C1734 0.950 . S
H1709 C1736 0.950 . S
H1710 C1739 0.950 . S
H1711 C1740 0.950 . S
H1712 C1742 0.950 . S
H1713 C1743 0.950 . S
C1714 H1696 0.951 . S
C1714 C1715 1.366 . S
C1714 C1716 1.388 . S
C1715 C1714 1.366 . S
C1715 C1719 1.385 . S
C1716 H1697 0.951 . S
C1716 C1714 1.388 . S
C1716 C1717 1.366 . S
C1717 C1716 1.366 . S
C1717 C1718 1.414 . S
C1717 C1720 1.499 . S
C1718 H1698 0.950 . S
C1718 C1717 1.414 . S
C1718 C1719 1.374 . S
C1719 H1699 0.950 . S
C1719 C1715 1.385 . S
C1719 C1718 1.374 . S
C1720 C1717 1.499 . S
C1720 C1721 1.373 . S
C1720 C1722 1.389 . S
C1721 H1700 0.950 . S
C1721 C1720 1.373 . S
C1721 C1737 1.377 . S
C1722 C1720 1.389 . S
C1722 C1723 1.524 . S
C1722 C1736 1.377 . S
C1723 C1722 1.524 . S
C1723 C1724 1.397 1_554 S
C1723 C1728 1.363 . S
C1724 H1701 0.950 . S
C1724 C1723 1.397 1_556 S
C1724 C1725 1.334 . S
C1725 H1702 0.950 . S
C1725 C1724 1.334 . S
C1725 C1726 1.287 . S
C1726 C1725 1.287 . S
C1726 C1727 1.524 1_556 S
C1726 H1745 0.913 . S
C1727 H1703 0.949 1_554 S
C1727 C1726 1.524 1_554 S
C1727 C1728 1.415 . S
C1728 H1704 0.950 . S
C1728 C1723 1.363 . S
C1728 C1727 1.415 . S
C1729 H1705 0.951 . S
C1729 C1730 1.366 . S
C1729 C1731 1.388 . S
C1730 C1729 1.366 . S
C1730 C1734 1.385 . S
C1731 H1706 0.951 . S
C1731 C1729 1.388 . S
C1731 C1732 1.366 . S
C1732 C1731 1.366 . S
C1732 C1733 1.414 . S
C1732 C1735 1.499 . S
C1733 H1707 0.950 . S
C1733 C1732 1.414 . S
C1733 C1734 1.374 . S
C1734 H1708 0.950 . S
C1734 C1730 1.385 . S
C1734 C1733 1.374 . S
C1735 C1732 1.499 . S
C1735 C1736 1.373 . S
C1735 C1737 1.389 . S
C1736 H1709 0.950 . S
C1736 C1722 1.377 . S
C1736 C1735 1.373 . S
C1737 C1721 1.377 . S
C1737 C1735 1.389 . S
C1737 C1738 1.524 . S
C1738 C1737 1.524 . S
C1738 C1739 1.397 . S
C1738 C1743 1.363 . S
C1739 H1710 0.950 . S
C1739 C1738 1.397 . S
C1739 C1740 1.334 . S
C1740 H1711 0.950 . S
C1740 C1739 1.334 . S
C1740 C1741 1.287 . S
C1741 C1740 1.287 . S
C1741 C1742 1.524 . S
C1741 H1744 0.999 . S
C1742 H1712 0.950 . S
C1742 C1741 1.524 . S
C1742 C1743 1.415 . S
C1743 H1713 0.950 . S
C1743 C1738 1.363 . S
C1743 C1742 1.415 . S
H1744 C1741 0.999 . S
H1745 C1726 0.913 . S
H1746 C1764 0.951 . S
H1747 C1766 0.951 . S
H1748 C1768 0.950 . S
H1749 C1769 0.950 . S
H1750 C1771 0.950 . S
H1751 C1774 0.950 . S
H1752 C1775 0.950 . S
H1753 C1777 0.950 . S
H1754 C1778 0.950 . S
H1755 C1779 0.951 . S
H1756 C1781 0.951 . S
H1757 C1783 0.950 . S
H1758 C1784 0.950 . S
H1759 C1786 0.950 . S
H1760 C1789 0.950 . S
H1761 C1790 0.950 . S
H1762 C1792 0.950 . S
H1763 C1793 0.950 . S
C1764 H1746 0.951 . S
C1764 C1765 1.366 . S
C1764 C1766 1.388 . S
C1765 C1764 1.366 . S
C1765 C1769 1.385 . S
C1766 H1747 0.951 . S
C1766 C1764 1.388 . S
C1766 C1767 1.366 . S
C1767 C1766 1.366 . S
C1767 C1768 1.414 . S
C1767 C1770 1.499 . S
C1768 H1748 0.950 . S
C1768 C1767 1.414 . S
C1768 C1769 1.374 . S
C1769 H1749 0.950 . S
C1769 C1765 1.385 . S
C1769 C1768 1.374 . S
C1770 C1767 1.499 . S
C1770 C1771 1.373 . S
C1770 C1772 1.389 . S
C1771 H1750 0.950 . S
C1771 C1770 1.373 . S
C1771 C1787 1.377 . S
C1772 C1770 1.389 . S
C1772 C1773 1.524 . S
C1772 C1786 1.377 . S
C1773 C1772 1.524 . S
C1773 C1774 1.397 . S
C1773 C1778 1.363 . S
C1774 H1751 0.950 . S
C1774 C1773 1.397 . S
C1774 C1775 1.334 . S
C1775 H1752 0.950 . S
C1775 C1774 1.334 . S
C1775 C1776 1.287 . S
C1776 C1775 1.287 . S
C1776 C1777 1.524 . S
C1776 H1795 0.913 . S
C1777 H1753 0.950 . S
C1777 C1776 1.524 . S
C1777 C1778 1.415 . S
C1778 H1754 0.950 . S
C1778 C1773 1.363 . S
C1778 C1777 1.415 . S
C1779 H1755 0.951 . S
C1779 C1780 1.366 . S
C1779 C1781 1.388 . S
C1780 C1779 1.366 . S
C1780 C1784 1.385 . S
C1781 H1756 0.951 . S
C1781 C1779 1.388 . S
C1781 C1782 1.366 . S
C1782 C1781 1.366 . S
C1782 C1783 1.414 . S
C1782 C1785 1.499 . S
C1783 H1757 0.950 . S
C1783 C1782 1.414 . S
C1783 C1784 1.374 . S
C1784 H1758 0.950 . S
C1784 C1780 1.385 . S
C1784 C1783 1.374 . S
C1785 C1782 1.499 . S
C1785 C1786 1.373 . S
C1785 C1787 1.389 . S
C1786 H1759 0.950 . S
C1786 C1772 1.377 . S
C1786 C1785 1.373 . S
C1787 C1771 1.377 . S
C1787 C1785 1.389 . S
C1787 C1788 1.524 . S
C1788 C1787 1.524 . S
C1788 C1789 1.397 . S
C1788 C1793 1.363 . S
C1789 H1760 0.950 . S
C1789 C1788 1.397 . S
C1789 C1790 1.334 . S
C1790 H1761 0.950 . S
C1790 C1789 1.334 . S
C1790 C1791 1.287 . S
C1791 C1790 1.287 . S
C1791 C1792 1.524 . S
C1791 H1794 0.999 . S
C1792 H1762 0.950 . S
C1792 C1791 1.524 . S
C1792 C1793 1.415 . S
C1793 H1763 0.950 . S
C1793 C1788 1.363 . S
C1793 C1792 1.415 . S
H1794 C1791 0.999 . S
H1795 C1776 0.913 . S
H1796 C1814 0.951 . S
H1797 C1816 0.951 . S
H1798 C1818 0.950 . S
H1799 C1819 0.950 . S
H1800 C1821 0.950 . S
H1801 C1824 0.950 . S
H1802 C1825 0.950 . S
H1803 C1827 0.950 . S
H1804 C1828 0.950 . S
H1805 C1829 0.951 . S
H1806 C1831 0.951 . S
H1807 C1833 0.950 . S
H1808 C1834 0.950 . S
H1809 C1836 0.950 . S
H1810 C1839 0.950 . S
H1811 C1840 0.950 . S
H1812 C1842 0.950 . S
H1813 C1843 0.950 . S
C1814 H1796 0.951 . S
C1814 C1815 1.366 . S
C1814 C1816 1.388 . S
C1815 C1814 1.366 . S
C1815 C1819 1.385 . S
C1816 H1797 0.951 . S
C1816 C1814 1.388 . S
C1816 C1817 1.366 . S
C1817 C1816 1.366 . S
C1817 C1818 1.414 . S
C1817 C1820 1.499 . S
C1818 H1798 0.950 . S
C1818 C1817 1.414 . S
C1818 C1819 1.374 . S
C1819 H1799 0.950 . S
C1819 C1815 1.385 . S
C1819 C1818 1.374 . S
C1820 C1817 1.499 . S
C1820 C1821 1.373 . S
C1820 C1822 1.389 . S
C1821 H1800 0.950 . S
C1821 C1820 1.373 . S
C1821 C1837 1.377 . S
C1822 C1820 1.389 . S
C1822 C1823 1.524 . S
C1822 C1836 1.377 . S
C1823 C1822 1.524 . S
C1823 C1824 1.397 . S
C1823 C1828 1.363 . S
C1824 H1801 0.950 . S
C1824 C1823 1.397 . S
C1824 C1825 1.334 . S
C1825 H1802 0.950 . S
C1825 C1824 1.334 . S
C1825 C1826 1.287 . S
C1826 C1825 1.287 . S
C1826 C1827 1.524 . S
C1826 H1845 0.913 . S
C1827 H1803 0.950 . S
C1827 C1826 1.524 . S
C1827 C1828 1.415 . S
C1828 H1804 0.950 . S
C1828 C1823 1.363 . S
C1828 C1827 1.415 . S
C1829 H1805 0.951 . S
C1829 C1830 1.366 . S
C1829 C1831 1.388 . S
C1830 C1829 1.366 . S
C1830 C1834 1.385 . S
C1831 H1806 0.951 . S
C1831 C1829 1.388 . S
C1831 C1832 1.366 . S
C1832 C1831 1.366 . S
C1832 C1833 1.414 . S
C1832 C1835 1.499 . S
C1833 H1807 0.950 . S
C1833 C1832 1.414 . S
C1833 C1834 1.374 . S
C1834 H1808 0.950 . S
C1834 C1830 1.385 . S
C1834 C1833 1.374 . S
C1835 C1832 1.499 . S
C1835 C1836 1.373 . S
C1835 C1837 1.389 . S
C1836 H1809 0.950 . S
C1836 C1822 1.377 . S
C1836 C1835 1.373 . S
C1837 C1821 1.377 . S
C1837 C1835 1.389 . S
C1837 C1838 1.524 . S
C1838 C1837 1.524 . S
C1838 C1839 1.397 . S
C1838 C1843 1.363 . S
C1839 H1810 0.950 . S
C1839 C1838 1.397 . S
C1839 C1840 1.334 . S
C1840 H1811 0.950 . S
C1840 C1839 1.334 . S
C1840 C1841 1.287 . S
C1841 C1840 1.287 . S
C1841 C1842 1.524 . S
C1841 H1844 0.999 . S
C1842 H1812 0.950 . S
C1842 C1841 1.524 . S
C1842 C1843 1.415 . S
C1843 H1813 0.950 . S
C1843 C1838 1.363 . S
C1843 C1842 1.415 . S
H1844 C1841 0.999 . S
H1845 C1826 0.913 . S
H1846 C1864 0.951 . S
H1847 C1866 0.951 . S
H1848 C1868 0.950 . S
H1849 C1869 0.950 . S
H1850 C1871 0.950 . S
H1851 C1874 0.950 . S
H1852 C1875 0.950 . S
H1853 C1877 0.950 . S
H1854 C1878 0.950 . S
H1855 C1879 0.951 . S
H1856 C1881 0.951 . S
H1857 C1883 0.950 . S
H1858 C1884 0.950 . S
H1859 C1886 0.950 . S
H1860 C1889 0.950 . S
H1861 C1890 0.950 . S
H1862 C1892 0.950 . S
H1863 C1893 0.950 . S
C1864 H1846 0.951 . S
C1864 C1865 1.366 . S
C1864 C1866 1.388 . S
C1865 C1864 1.366 . S
C1865 C1869 1.385 . S
C1866 H1847 0.951 . S
C1866 C1864 1.388 . S
C1866 C1867 1.366 . S
C1867 C1866 1.366 . S
C1867 C1868 1.414 . S
C1867 C1870 1.499 . S
C1868 H1848 0.950 . S
C1868 C1867 1.414 . S
C1868 C1869 1.374 . S
C1869 H1849 0.950 . S
C1869 C1865 1.385 . S
C1869 C1868 1.374 . S
C1870 C1867 1.499 . S
C1870 C1871 1.373 . S
C1870 C1872 1.389 . S
C1871 H1850 0.950 . S
C1871 C1870 1.373 . S
C1871 C1887 1.377 . S
C1872 C1870 1.389 . S
C1872 C1873 1.524 . S
C1872 C1886 1.377 . S
C1873 C1872 1.524 . S
C1873 C1874 1.397 . S
C1873 C1878 1.363 . S
C1874 H1851 0.950 . S
C1874 C1873 1.397 . S
C1874 C1875 1.334 . S
C1875 H1852 0.950 . S
C1875 C1874 1.334 . S
C1875 C1876 1.287 . S
C1876 C1875 1.287 . S
C1876 C1877 1.524 . S
C1876 H1895 0.913 . S
C1877 H1853 0.950 . S
C1877 C1876 1.524 . S
C1877 C1878 1.415 . S
C1878 H1854 0.950 . S
C1878 C1873 1.363 . S
C1878 C1877 1.415 . S
C1879 H1855 0.951 . S
C1879 C1880 1.366 . S
C1879 C1881 1.388 . S
C1880 C1879 1.366 . S
C1880 C1884 1.385 . S
C1881 H1856 0.951 . S
C1881 C1879 1.388 . S
C1881 C1882 1.366 . S
C1882 C1881 1.366 . S
C1882 C1883 1.414 . S
C1882 C1885 1.499 . S
C1883 H1857 0.950 . S
C1883 C1882 1.414 . S
C1883 C1884 1.374 . S
C1884 H1858 0.950 . S
C1884 C1880 1.385 . S
C1884 C1883 1.374 . S
C1885 C1882 1.499 . S
C1885 C1886 1.373 . S
C1885 C1887 1.389 . S
C1886 H1859 0.950 . S
C1886 C1872 1.377 . S
C1886 C1885 1.373 . S
C1887 C1871 1.377 . S
C1887 C1885 1.389 . S
C1887 C1888 1.524 . S
C1888 C1887 1.524 . S
C1888 C1889 1.397 . S
C1888 C1893 1.363 . S
C1889 H1860 0.950 . S
C1889 C1888 1.397 . S
C1889 C1890 1.334 . S
C1890 H1861 0.950 . S
C1890 C1889 1.334 . S
C1890 C1891 1.287 . S
C1891 C1890 1.287 . S
C1891 C1892 1.524 . S
C1891 H1894 0.999 . S
C1892 H1862 0.950 . S
C1892 C1891 1.524 . S
C1892 C1893 1.415 . S
C1893 H1863 0.950 . S
C1893 C1888 1.363 . S
C1893 C1892 1.415 . S
H1894 C1891 0.999 . S
H1895 C1876 0.913 . S
H1896 C1914 0.951 . S
H1897 C1916 0.951 . S
H1898 C1918 0.950 . S
H1899 C1919 0.950 . S
H1900 C1921 0.950 . S
H1901 C1924 0.950 . S
H1902 C1925 0.950 . S
H1903 C1927 0.950 . S
H1904 C1928 0.950 . S
H1905 C1929 0.951 . S
H1906 C1931 0.951 . S
H1907 C1933 0.950 . S
H1908 C1934 0.950 . S
H1909 C1936 0.950 . S
H1910 C1939 0.950 . S
H1911 C1940 0.950 . S
H1912 C1942 0.950 . S
H1913 C1943 0.950 . S
C1914 H1896 0.951 . S
C1914 C1915 1.366 . S
C1914 C1916 1.388 . S
C1915 C1914 1.366 . S
C1915 C1919 1.385 . S
C1916 H1897 0.951 . S
C1916 C1914 1.388 . S
C1916 C1917 1.366 . S
C1917 C1916 1.366 . S
C1917 C1918 1.414 . S
C1917 C1920 1.499 . S
C1918 H1898 0.950 . S
C1918 C1917 1.414 . S
C1918 C1919 1.374 . S
C1919 H1899 0.950 . S
C1919 C1915 1.385 . S
C1919 C1918 1.374 . S
C1920 C1917 1.499 . S
C1920 C1921 1.373 . S
C1920 C1922 1.389 . S
C1921 H1900 0.950 . S
C1921 C1920 1.373 . S
C1921 C1937 1.377 . S
C1922 C1920 1.389 . S
C1922 C1923 1.524 . S
C1922 C1936 1.377 . S
C1923 C1922 1.524 . S
C1923 C1924 1.397 . S
C1923 C1928 1.363 . S
C1924 H1901 0.950 . S
C1924 C1923 1.397 . S
C1924 C1925 1.334 . S
C1925 H1902 0.950 . S
C1925 C1924 1.334 . S
C1925 C1926 1.287 . S
C1926 C1925 1.287 . S
C1926 C1927 1.524 . S
C1926 H1945 0.913 . S
C1927 H1903 0.950 . S
C1927 C1926 1.524 . S
C1927 C1928 1.415 . S
C1928 H1904 0.950 . S
C1928 C1923 1.363 . S
C1928 C1927 1.415 . S
C1929 H1905 0.951 . S
C1929 C1930 1.366 . S
C1929 C1931 1.388 . S
C1930 C1929 1.366 . S
C1930 C1934 1.385 . S
C1931 H1906 0.951 . S
C1931 C1929 1.388 . S
C1931 C1932 1.366 . S
C1932 C1931 1.366 . S
C1932 C1933 1.414 . S
C1932 C1935 1.499 . S
C1933 H1907 0.950 . S
C1933 C1932 1.414 . S
C1933 C1934 1.374 . S
C1934 H1908 0.950 . S
C1934 C1930 1.385 . S
C1934 C1933 1.374 . S
C1935 C1932 1.499 . S
C1935 C1936 1.373 . S
C1935 C1937 1.389 . S
C1936 H1909 0.950 . S
C1936 C1922 1.377 . S
C1936 C1935 1.373 . S
C1937 C1921 1.377 . S
C1937 C1935 1.389 . S
C1937 C1938 1.524 . S
C1938 C1937 1.524 . S
C1938 C1939 1.397 . S
C1938 C1943 1.363 . S
C1939 H1910 0.950 . S
C1939 C1938 1.397 . S
C1939 C1940 1.334 1_554 S
C1940 H1911 0.950 . S
C1940 C1939 1.334 1_556 S
C1940 C1941 1.287 . S
C1941 C1940 1.287 . S
C1941 C1942 1.524 . S
C1941 H1944 0.999 . S
C1942 H1912 0.950 . S
C1942 C1941 1.524 . S
C1942 C1943 1.415 1_556 S
C1943 H1913 0.950 . S
C1943 C1938 1.363 . S
C1943 C1942 1.415 1_554 S
H1944 C1941 0.999 . S
H1945 C1926 0.913 . S
H1946 C1964 0.951 . S
H1947 C1966 0.951 . S
H1948 C1968 0.950 . S
H1949 C1969 0.950 . S
H1950 C1971 0.950 . S
H1951 C1974 0.950 . S
H1952 C1975 0.950 . S
H1953 C1977 0.950 . S
H1954 C1978 0.950 . S
H1955 C1979 0.951 1_556 S
H1956 C1981 0.951 . S
H1957 C1983 0.950 . S
H1958 C1984 0.950 . S
H1959 C1986 0.950 . S
H1960 C1989 0.950 . S
H1961 C1990 0.950 . S
H1962 C1992 0.950 1_556 S
H1963 C1993 0.950 . S
C1964 H1946 0.951 . S
C1964 C1965 1.366 . S
C1964 C1966 1.388 . S
C1965 C1964 1.366 . S
C1965 C1969 1.385 . S
C1966 H1947 0.951 . S
C1966 C1964 1.388 . S
C1966 C1967 1.366 . S
C1967 C1966 1.366 . S
C1967 C1968 1.414 . S
C1967 C1970 1.499 . S
C1968 H1948 0.950 . S
C1968 C1967 1.414 . S
C1968 C1969 1.374 . S
C1969 H1949 0.950 . S
C1969 C1965 1.385 . S
C1969 C1968 1.374 . S
C1970 C1967 1.499 . S
C1970 C1971 1.373 . S
C1970 C1972 1.389 . S
C1971 H1950 0.950 . S
C1971 C1970 1.373 . S
C1971 C1987 1.377 . S
C1972 C1970 1.389 . S
C1972 C1973 1.524 . S
C1972 C1986 1.377 . S
C1973 C1972 1.524 . S
C1973 C1974 1.397 . S
C1973 C1978 1.363 . S
C1974 H1951 0.950 . S
C1974 C1973 1.397 . S
C1974 C1975 1.334 . S
C1975 H1952 0.950 . S
C1975 C1974 1.334 . S
C1975 C1976 1.287 . S
C1976 C1975 1.287 . S
C1976 C1977 1.524 . S
C1976 H1995 0.913 . S
C1977 H1953 0.950 . S
C1977 C1976 1.524 . S
C1977 C1978 1.415 . S
C1978 H1954 0.950 . S
C1978 C1973 1.363 . S
C1978 C1977 1.415 . S
C1979 H1955 0.951 1_554 S
C1979 C1980 1.366 . S
C1979 C1981 1.388 . S
C1980 C1979 1.366 . S
C1980 C1984 1.385 . S
C1981 H1956 0.951 . S
C1981 C1979 1.388 . S
C1981 C1982 1.366 . S
C1982 C1981 1.366 . S
C1982 C1983 1.414 . S
C1982 C1985 1.499 . S
C1983 H1957 0.950 . S
C1983 C1982 1.414 . S
C1983 C1984 1.374 . S
C1984 H1958 0.950 . S
C1984 C1980 1.385 . S
C1984 C1983 1.374 . S
C1985 C1982 1.499 . S
C1985 C1986 1.373 . S
C1985 C1987 1.389 . S
C1986 H1959 0.950 . S
C1986 C1972 1.377 . S
C1986 C1985 1.373 . S
C1987 C1971 1.377 . S
C1987 C1985 1.389 . S
C1987 C1988 1.524 . S
C1988 C1987 1.524 . S
C1988 C1989 1.397 . S
C1988 C1993 1.363 . S
C1989 H1960 0.950 . S
C1989 C1988 1.397 . S
C1989 C1990 1.334 . S
C1990 H1961 0.950 . S
C1990 C1989 1.334 . S
C1990 C1991 1.287 . S
C1991 C1990 1.287 . S
C1991 C1992 1.524 . S
C1991 H1994 0.999 . S
C1992 H1962 0.950 1_554 S
C1992 C1991 1.524 . S
C1992 C1993 1.415 . S
C1993 H1963 0.950 . S
C1993 C1988 1.363 . S
C1993 C1992 1.415 . S
H1994 C1991 0.999 . S
H1995 C1976 0.913 . S
H1996 C2014 0.951 . S
H1997 C2016 0.951 . S
H1998 C2018 0.950 . S
H1999 C2019 0.950 . S
H2000 C2021 0.950 . S
H2001 C2024 0.950 . S
H2002 C2025 0.950 . S
H2003 C2027 0.950 . S
H2004 C2028 0.950 . S
H2005 C2029 0.951 . S
H2006 C2031 0.951 . S
H2007 C2033 0.950 . S
H2008 C2034 0.950 . S
H2009 C2036 0.950 . S
H2010 C2039 0.950 . S
H2011 C2040 0.950 . S
H2012 C2042 0.950 . S
H2013 C2043 0.950 . S
C2014 H1996 0.951 . S
C2014 C2015 1.366 . S
C2014 C2016 1.388 . S
C2015 C2014 1.366 . S
C2015 C2019 1.385 . S
C2016 H1997 0.951 . S
C2016 C2014 1.388 . S
C2016 C2017 1.366 . S
C2017 C2016 1.366 . S
C2017 C2018 1.414 . S
C2017 C2020 1.499 . S
C2018 H1998 0.950 . S
C2018 C2017 1.414 . S
C2018 C2019 1.374 . S
C2019 H1999 0.950 . S
C2019 C2015 1.385 . S
C2019 C2018 1.374 . S
C2020 C2017 1.499 . S
C2020 C2021 1.373 . S
C2020 C2022 1.389 . S
C2021 H2000 0.950 . S
C2021 C2020 1.373 . S
C2021 C2037 1.377 . S
C2022 C2020 1.389 . S
C2022 C2023 1.524 . S
C2022 C2036 1.377 . S
C2023 C2022 1.524 . S
C2023 C2024 1.397 . S
C2023 C2028 1.363 . S
C2024 H2001 0.950 . S
C2024 C2023 1.397 . S
C2024 C2025 1.334 . S
C2025 H2002 0.950 . S
C2025 C2024 1.334 . S
C2025 C2026 1.287 . S
C2026 C2025 1.287 . S
C2026 C2027 1.524 . S
C2026 H2045 0.913 . S
C2027 H2003 0.950 . S
C2027 C2026 1.524 . S
C2027 C2028 1.415 . S
C2028 H2004 0.950 . S
C2028 C2023 1.363 . S
C2028 C2027 1.415 . S
C2029 H2005 0.951 . S
C2029 C2030 1.366 . S
C2029 C2031 1.388 . S
C2030 C2029 1.366 . S
C2030 C2034 1.385 . S
C2031 H2006 0.951 . S
C2031 C2029 1.388 . S
C2031 C2032 1.366 . S
C2032 C2031 1.366 . S
C2032 C2033 1.414 . S
C2032 C2035 1.499 . S
C2033 H2007 0.950 . S
C2033 C2032 1.414 . S
C2033 C2034 1.374 . S
C2034 H2008 0.950 . S
C2034 C2030 1.385 . S
C2034 C2033 1.374 . S
C2035 C2032 1.499 . S
C2035 C2036 1.373 . S
C2035 C2037 1.389 . S
C2036 H2009 0.950 . S
C2036 C2022 1.377 . S
C2036 C2035 1.373 . S
C2037 C2021 1.377 . S
C2037 C2035 1.389 . S
C2037 C2038 1.524 . S
C2038 C2037 1.524 . S
C2038 C2039 1.397 . S
C2038 C2043 1.363 . S
C2039 H2010 0.950 . S
C2039 C2038 1.397 . S
C2039 C2040 1.334 . S
C2040 H2011 0.950 . S
C2040 C2039 1.334 . S
C2040 C2041 1.287 . S
C2041 C2040 1.287 . S
C2041 C2042 1.524 . S
C2041 H2044 0.999 . S
C2042 H2012 0.950 . S
C2042 C2041 1.524 . S
C2042 C2043 1.415 . S
C2043 H2013 0.950 . S
C2043 C2038 1.363 . S
C2043 C2042 1.415 . S
H2044 C2041 0.999 . S
H2045 C2026 0.913 . S
H2046 C2064 0.951 . S
H2047 C2066 0.951 . S
H2048 C2068 0.950 . S
H2049 C2069 0.950 . S
H2050 C2071 0.950 . S
H2051 C2074 0.950 . S
H2052 C2075 0.950 . S
H2053 C2077 0.950 . S
H2054 C2078 0.950 . S
H2055 C2079 0.951 . S
H2056 C2081 0.951 . S
H2057 C2083 0.950 . S
H2058 C2084 0.950 . S
H2059 C2086 0.950 . S
H2060 C2089 0.950 . S
H2061 C2090 0.950 . S
H2062 C2092 0.950 . S
H2063 C2093 0.950 . S
C2064 H2046 0.951 . S
C2064 C2065 1.366 . S
C2064 C2066 1.388 . S
C2065 C2064 1.366 . S
C2065 C2069 1.385 . S
C2066 H2047 0.951 . S
C2066 C2064 1.388 . S
C2066 C2067 1.366 . S
C2067 C2066 1.366 . S
C2067 C2068 1.414 . S
C2067 C2070 1.499 . S
C2068 H2048 0.950 . S
C2068 C2067 1.414 . S
C2068 C2069 1.374 . S
C2069 H2049 0.950 . S
C2069 C2065 1.385 . S
C2069 C2068 1.374 . S
C2070 C2067 1.499 . S
C2070 C2071 1.373 . S
C2070 C2072 1.389 . S
C2071 H2050 0.950 . S
C2071 C2070 1.373 . S
C2071 C2087 1.377 . S
C2072 C2070 1.389 . S
C2072 C2073 1.524 . S
C2072 C2086 1.377 . S
C2073 C2072 1.524 . S
C2073 C2074 1.397 . S
C2073 C2078 1.363 . S
C2074 H2051 0.950 . S
C2074 C2073 1.397 . S
C2074 C2075 1.334 . S
C2075 H2052 0.950 . S
C2075 C2074 1.334 . S
C2075 C2076 1.287 . S
C2076 C2075 1.287 . S
C2076 C2077 1.524 . S
C2076 H2095 0.913 . S
C2077 H2053 0.950 . S
C2077 C2076 1.524 . S
C2077 C2078 1.415 . S
C2078 H2054 0.950 . S
C2078 C2073 1.363 . S
C2078 C2077 1.415 . S
C2079 H2055 0.951 . S
C2079 C2080 1.366 . S
C2079 C2081 1.388 . S
C2080 C2079 1.366 . S
C2080 C2084 1.385 . S
C2081 H2056 0.951 . S
C2081 C2079 1.388 . S
C2081 C2082 1.366 . S
C2082 C2081 1.366 . S
C2082 C2083 1.414 . S
C2082 C2085 1.499 . S
C2083 H2057 0.950 . S
C2083 C2082 1.414 . S
C2083 C2084 1.374 . S
C2084 H2058 0.950 . S
C2084 C2080 1.385 . S
C2084 C2083 1.374 . S
C2085 C2082 1.499 . S
C2085 C2086 1.373 . S
C2085 C2087 1.389 . S
C2086 H2059 0.950 . S
C2086 C2072 1.377 . S
C2086 C2085 1.373 . S
C2087 C2071 1.377 . S
C2087 C2085 1.389 . S
C2087 C2088 1.524 . S
C2088 C2087 1.524 . S
C2088 C2089 1.397 . S
C2088 C2093 1.363 . S
C2089 H2060 0.950 . S
C2089 C2088 1.397 . S
C2089 C2090 1.334 . S
C2090 H2061 0.950 . S
C2090 C2089 1.334 . S
C2090 C2091 1.287 . S
C2091 C2090 1.287 . S
C2091 C2092 1.524 . S
C2091 H2094 0.999 . S
C2092 H2062 0.950 . S
C2092 C2091 1.524 . S
C2092 C2093 1.415 . S
C2093 H2063 0.950 . S
C2093 C2088 1.363 . S
C2093 C2092 1.415 . S
H2094 C2091 0.999 . S
H2095 C2076 0.913 . S
H2096 C2114 0.951 . S
H2097 C2116 0.951 . S
H2098 C2118 0.950 . S
H2099 C2119 0.950 . S
H2100 C2121 0.950 . S
H2101 C2124 0.950 . S
H2102 C2125 0.950 . S
H2103 C2127 0.950 . S
H2104 C2128 0.950 . S
H2105 C2129 0.951 . S
H2106 C2131 0.951 . S
H2107 C2133 0.950 . S
H2108 C2134 0.950 . S
H2109 C2136 0.950 . S
H2110 C2139 0.950 . S
H2111 C2140 0.950 . S
H2112 C2142 0.950 . S
H2113 C2143 0.950 . S
C2114 H2096 0.951 . S
C2114 C2115 1.366 . S
C2114 C2116 1.388 . S
C2115 C2114 1.366 . S
C2115 C2119 1.385 . S
C2116 H2097 0.951 . S
C2116 C2114 1.388 . S
C2116 C2117 1.366 . S
C2117 C2116 1.366 . S
C2117 C2118 1.414 . S
C2117 C2120 1.499 . S
C2118 H2098 0.950 . S
C2118 C2117 1.414 . S
C2118 C2119 1.374 . S
C2119 H2099 0.950 . S
C2119 C2115 1.385 . S
C2119 C2118 1.374 . S
C2120 C2117 1.499 . S
C2120 C2121 1.373 . S
C2120 C2122 1.389 . S
C2121 H2100 0.950 . S
C2121 C2120 1.373 . S
C2121 C2137 1.377 . S
C2122 C2120 1.389 . S
C2122 C2123 1.524 . S
C2122 C2136 1.377 . S
C2123 C2122 1.524 . S
C2123 C2124 1.397 . S
C2123 C2128 1.363 . S
C2124 H2101 0.950 . S
C2124 C2123 1.397 . S
C2124 C2125 1.334 . S
C2125 H2102 0.950 . S
C2125 C2124 1.334 . S
C2125 C2126 1.287 . S
C2126 C2125 1.287 . S
C2126 C2127 1.524 . S
C2126 H2145 0.913 . S
C2127 H2103 0.950 . S
C2127 C2126 1.524 . S
C2127 C2128 1.415 . S
C2128 H2104 0.950 . S
C2128 C2123 1.363 . S
C2128 C2127 1.415 . S
C2129 H2105 0.951 . S
C2129 C2130 1.366 . S
C2129 C2131 1.388 . S
C2130 C2129 1.366 . S
C2130 C2134 1.385 . S
C2131 H2106 0.951 . S
C2131 C2129 1.388 . S
C2131 C2132 1.366 . S
C2132 C2131 1.366 . S
C2132 C2133 1.414 . S
C2132 C2135 1.499 . S
C2133 H2107 0.950 . S
C2133 C2132 1.414 . S
C2133 C2134 1.374 . S
C2134 H2108 0.950 . S
C2134 C2130 1.385 . S
C2134 C2133 1.374 . S
C2135 C2132 1.499 . S
C2135 C2136 1.373 . S
C2135 C2137 1.389 . S
C2136 H2109 0.950 . S
C2136 C2122 1.377 . S
C2136 C2135 1.373 . S
C2137 C2121 1.377 . S
C2137 C2135 1.389 . S
C2137 C2138 1.524 . S
C2138 C2137 1.524 . S
C2138 C2139 1.397 . S
C2138 C2143 1.363 . S
C2139 H2110 0.950 . S
C2139 C2138 1.397 . S
C2139 C2140 1.334 . S
C2140 H2111 0.950 . S
C2140 C2139 1.334 . S
C2140 C2141 1.287 . S
C2141 C2140 1.287 . S
C2141 C2142 1.524 . S
C2141 H2144 0.999 . S
C2142 H2112 0.950 . S
C2142 C2141 1.524 . S
C2142 C2143 1.415 . S
C2143 H2113 0.950 . S
C2143 C2138 1.363 . S
C2143 C2142 1.415 . S
H2144 C2141 0.999 . S
H2145 C2126 0.913 . S
H2146 C2164 0.951 . S
H2147 C2166 0.951 . S
H2148 C2168 0.950 . S
H2149 C2169 0.950 . S
H2150 C2171 0.950 . S
H2151 C2174 0.950 . S
H2152 C2175 0.950 . S
H2153 C2177 0.950 . S
H2154 C2178 0.950 . S
H2155 C2179 0.951 . S
H2156 C2181 0.951 . S
H2157 C2183 0.950 . S
H2158 C2184 0.950 . S
H2159 C2186 0.950 . S
H2160 C2189 0.950 . S
H2161 C2190 0.950 . S
H2162 C2192 0.950 . S
H2163 C2193 0.950 . S
C2164 H2146 0.951 . S
C2164 C2165 1.366 . S
C2164 C2166 1.388 . S
C2165 C2164 1.366 . S
C2165 C2169 1.385 . S
C2166 H2147 0.951 . S
C2166 C2164 1.388 . S
C2166 C2167 1.366 . S
C2167 C2166 1.366 . S
C2167 C2168 1.414 . S
C2167 C2170 1.499 . S
C2168 H2148 0.950 . S
C2168 C2167 1.414 . S
C2168 C2169 1.374 . S
C2169 H2149 0.950 . S
C2169 C2165 1.385 . S
C2169 C2168 1.374 . S
C2170 C2167 1.499 . S
C2170 C2171 1.373 . S
C2170 C2172 1.389 . S
C2171 H2150 0.950 . S
C2171 C2170 1.373 . S
C2171 C2187 1.377 . S
C2172 C2170 1.389 . S
C2172 C2173 1.524 . S
C2172 C2186 1.377 . S
C2173 C2172 1.524 . S
C2173 C2174 1.397 . S
C2173 C2178 1.363 . S
C2174 H2151 0.950 . S
C2174 C2173 1.397 . S
C2174 C2175 1.334 . S
C2175 H2152 0.950 . S
C2175 C2174 1.334 . S
C2175 C2176 1.287 . S
C2176 C2175 1.287 . S
C2176 C2177 1.524 . S
C2176 H2195 0.913 . S
C2177 H2153 0.950 . S
C2177 C2176 1.524 . S
C2177 C2178 1.415 . S
C2178 H2154 0.950 . S
C2178 C2173 1.363 . S
C2178 C2177 1.415 . S
C2179 H2155 0.951 . S
C2179 C2180 1.366 . S
C2179 C2181 1.388 . S
C2180 C2179 1.366 . S
C2180 C2184 1.385 . S
C2181 H2156 0.951 . S
C2181 C2179 1.388 . S
C2181 C2182 1.366 . S
C2182 C2181 1.366 . S
C2182 C2183 1.414 . S
C2182 C2185 1.499 . S
C2183 H2157 0.950 . S
C2183 C2182 1.414 . S
C2183 C2184 1.374 . S
C2184 H2158 0.950 . S
C2184 C2180 1.385 . S
C2184 C2183 1.374 . S
C2185 C2182 1.499 . S
C2185 C2186 1.373 . S
C2185 C2187 1.389 . S
C2186 H2159 0.950 . S
C2186 C2172 1.377 . S
C2186 C2185 1.373 . S
C2187 C2171 1.377 . S
C2187 C2185 1.389 . S
C2187 C2188 1.524 . S
C2188 C2187 1.524 . S
C2188 C2189 1.397 . S
C2188 C2193 1.363 . S
C2189 H2160 0.950 . S
C2189 C2188 1.397 . S
C2189 C2190 1.334 . S
C2190 H2161 0.950 . S
C2190 C2189 1.334 . S
C2190 C2191 1.287 . S
C2191 C2190 1.287 . S
C2191 C2192 1.524 . S
C2191 H2194 0.999 . S
C2192 H2162 0.950 . S
C2192 C2191 1.524 . S
C2192 C2193 1.415 . S
C2193 H2163 0.950 . S
C2193 C2188 1.363 . S
C2193 C2192 1.415 . S
H2194 C2191 0.999 . S
H2195 C2176 0.913 . S
H2196 C2214 0.951 . S
H2197 C2216 0.951 . S
H2198 C2218 0.950 . S
H2199 C2219 0.950 . S
H2200 C2221 0.950 . S
H2201 C2224 0.950 . S
H2202 C2225 0.950 . S
H2203 C2227 0.950 . S
H2204 C2228 0.950 . S
H2205 C2229 0.951 . S
H2206 C2231 0.951 . S
H2207 C2233 0.950 . S
H2208 C2234 0.950 . S
H2209 C2236 0.950 . S
H2210 C2239 0.950 . S
H2211 C2240 0.950 . S
H2212 C2242 0.950 . S
H2213 C2243 0.950 . S
C2214 H2196 0.951 . S
C2214 C2215 1.366 . S
C2214 C2216 1.388 . S
C2215 C2214 1.366 . S
C2215 C2219 1.385 . S
C2216 H2197 0.951 . S
C2216 C2214 1.388 . S
C2216 C2217 1.366 . S
C2217 C2216 1.366 . S
C2217 C2218 1.414 . S
C2217 C2220 1.499 . S
C2218 H2198 0.950 . S
C2218 C2217 1.414 . S
C2218 C2219 1.374 . S
C2219 H2199 0.950 . S
C2219 C2215 1.385 . S
C2219 C2218 1.374 . S
C2220 C2217 1.499 . S
C2220 C2221 1.373 . S
C2220 C2222 1.389 . S
C2221 H2200 0.950 . S
C2221 C2220 1.373 . S
C2221 C2237 1.377 . S
C2222 C2220 1.389 . S
C2222 C2223 1.524 . S
C2222 C2236 1.377 . S
C2223 C2222 1.524 . S
C2223 C2224 1.397 . S
C2223 C2228 1.363 . S
C2224 H2201 0.950 . S
C2224 C2223 1.397 . S
C2224 C2225 1.334 . S
C2225 H2202 0.950 . S
C2225 C2224 1.334 . S
C2225 C2226 1.287 . S
C2226 C2225 1.287 . S
C2226 C2227 1.524 . S
C2226 H2245 0.913 . S
C2227 H2203 0.950 . S
C2227 C2226 1.524 . S
C2227 C2228 1.415 . S
C2228 H2204 0.950 . S
C2228 C2223 1.363 . S
C2228 C2227 1.415 . S
C2229 H2205 0.951 . S
C2229 C2230 1.366 . S
C2229 C2231 1.388 . S
C2230 C2229 1.366 . S
C2230 C2234 1.385 . S
C2231 H2206 0.951 . S
C2231 C2229 1.388 . S
C2231 C2232 1.366 . S
C2232 C2231 1.366 . S
C2232 C2233 1.414 . S
C2232 C2235 1.499 . S
C2233 H2207 0.950 . S
C2233 C2232 1.414 . S
C2233 C2234 1.374 . S
C2234 H2208 0.950 . S
C2234 C2230 1.385 . S
C2234 C2233 1.374 . S
C2235 C2232 1.499 . S
C2235 C2236 1.373 . S
C2235 C2237 1.389 . S
C2236 H2209 0.950 . S
C2236 C2222 1.377 . S
C2236 C2235 1.373 . S
C2237 C2221 1.377 . S
C2237 C2235 1.389 . S
C2237 C2238 1.524 . S
C2238 C2237 1.524 . S
C2238 C2239 1.397 . S
C2238 C2243 1.363 . S
C2239 H2210 0.950 . S
C2239 C2238 1.397 . S
C2239 C2240 1.334 . S
C2240 H2211 0.950 . S
C2240 C2239 1.334 . S
C2240 C2241 1.287 . S
C2241 C2240 1.287 . S
C2241 C2242 1.524 . S
C2241 H2244 0.999 . S
C2242 H2212 0.950 . S
C2242 C2241 1.524 . S
C2242 C2243 1.415 . S
C2243 H2213 0.950 . S
C2243 C2238 1.363 . S
C2243 C2242 1.415 . S
H2244 C2241 0.999 . S
H2245 C2226 0.913 . S
H2246 C2264 0.951 . S
H2247 C2266 0.951 . S
H2248 C2268 0.950 . S
H2249 C2269 0.950 . S
H2250 C2271 0.950 . S
H2251 C2274 0.950 . S
H2252 C2275 0.950 . S
H2253 C2277 0.950 . S
H2254 C2278 0.950 . S
H2255 C2279 0.951 . S
H2256 C2281 0.951 . S
H2257 C2283 0.950 . S
H2258 C2284 0.950 . S
H2259 C2286 0.950 . S
H2260 C2289 0.950 . S
H2261 C2290 0.950 . S
H2262 C2292 0.950 . S
H2263 C2293 0.950 . S
C2264 H2246 0.951 . S
C2264 C2265 1.366 . S
C2264 C2266 1.388 . S
C2265 C2264 1.366 . S
C2265 C2269 1.385 . S
C2266 H2247 0.951 . S
C2266 C2264 1.388 . S
C2266 C2267 1.366 . S
C2267 C2266 1.366 . S
C2267 C2268 1.414 . S
C2267 C2270 1.499 . S
C2268 H2248 0.950 . S
C2268 C2267 1.414 . S
C2268 C2269 1.374 . S
C2269 H2249 0.950 . S
C2269 C2265 1.385 . S
C2269 C2268 1.374 . S
C2270 C2267 1.499 . S
C2270 C2271 1.373 . S
C2270 C2272 1.389 . S
C2271 H2250 0.950 . S
C2271 C2270 1.373 . S
C2271 C2287 1.377 . S
C2272 C2270 1.389 . S
C2272 C2273 1.524 . S
C2272 C2286 1.377 . S
C2273 C2272 1.524 . S
C2273 C2274 1.397 . S
C2273 C2278 1.363 . S
C2274 H2251 0.950 . S
C2274 C2273 1.397 . S
C2274 C2275 1.334 . S
C2275 H2252 0.950 . S
C2275 C2274 1.334 . S
C2275 C2276 1.287 . S
C2276 C2275 1.287 . S
C2276 C2277 1.524 . S
C2276 H2295 0.913 . S
C2277 H2253 0.950 . S
C2277 C2276 1.524 . S
C2277 C2278 1.415 . S
C2278 H2254 0.950 . S
C2278 C2273 1.363 . S
C2278 C2277 1.415 . S
C2279 H2255 0.951 . S
C2279 C2280 1.366 . S
C2279 C2281 1.388 . S
C2280 C2279 1.366 . S
C2280 C2284 1.385 . S
C2281 H2256 0.951 . S
C2281 C2279 1.388 . S
C2281 C2282 1.366 . S
C2282 C2281 1.366 . S
C2282 C2283 1.414 . S
C2282 C2285 1.499 . S
C2283 H2257 0.950 . S
C2283 C2282 1.414 . S
C2283 C2284 1.374 . S
C2284 H2258 0.950 . S
C2284 C2280 1.385 . S
C2284 C2283 1.374 . S
C2285 C2282 1.499 . S
C2285 C2286 1.373 . S
C2285 C2287 1.389 . S
C2286 H2259 0.950 . S
C2286 C2272 1.377 . S
C2286 C2285 1.373 . S
C2287 C2271 1.377 . S
C2287 C2285 1.389 . S
C2287 C2288 1.524 . S
C2288 C2287 1.524 . S
C2288 C2289 1.397 . S
C2288 C2293 1.363 . S
C2289 H2260 0.950 . S
C2289 C2288 1.397 . S
C2289 C2290 1.334 . S
C2290 H2261 0.950 . S
C2290 C2289 1.334 . S
C2290 C2291 1.287 . S
C2291 C2290 1.287 . S
C2291 C2292 1.524 . S
C2291 H2294 0.999 . S
C2292 H2262 0.950 . S
C2292 C2291 1.524 . S
C2292 C2293 1.415 . S
C2293 H2263 0.950 . S
C2293 C2288 1.363 . S
C2293 C2292 1.415 . S
H2294 C2291 0.999 . S
H2295 C2276 0.913 . S
H2296 C2314 0.951 . S
H2297 C2316 0.951 . S
H2298 C2318 0.950 . S
H2299 C2319 0.950 . S
H2300 C2321 0.950 . S
H2301 C2324 0.950 . S
H2302 C2325 0.950 1_545 S
H2303 C2327 0.950 . S
H2304 C2328 0.950 . S
H2305 C2329 0.951 . S
H2306 C2331 0.951 . S
H2307 C2333 0.950 . S
H2308 C2334 0.950 . S
H2309 C2336 0.950 . S
H2310 C2339 0.950 . S
H2311 C2340 0.950 . S
H2312 C2342 0.950 . S
H2313 C2343 0.950 . S
C2314 H2296 0.951 . S
C2314 C2315 1.366 . S
C2314 C2316 1.388 . S
C2315 C2314 1.366 . S
C2315 C2319 1.385 . S
C2316 H2297 0.951 . S
C2316 C2314 1.388 . S
C2316 C2317 1.366 . S
C2317 C2316 1.366 . S
C2317 C2318 1.414 . S
C2317 C2320 1.499 . S
C2318 H2298 0.950 . S
C2318 C2317 1.414 . S
C2318 C2319 1.374 . S
C2319 H2299 0.950 . S
C2319 C2315 1.385 . S
C2319 C2318 1.374 . S
C2320 C2317 1.499 . S
C2320 C2321 1.373 . S
C2320 C2322 1.389 . S
C2321 H2300 0.950 . S
C2321 C2320 1.373 . S
C2321 C2337 1.377 . S
C2322 C2320 1.389 . S
C2322 C2323 1.524 . S
C2322 C2336 1.377 . S
C2323 C2322 1.524 . S
C2323 C2324 1.397 . S
C2323 C2328 1.363 . S
C2324 H2301 0.950 . S
C2324 C2323 1.397 . S
C2324 C2325 1.334 . S
C2325 H2302 0.950 1_565 S
C2325 C2324 1.334 . S
C2325 C2326 1.287 . S
C2326 C2325 1.287 . S
C2326 C2327 1.524 . S
C2326 H2345 0.913 1_565 S
C2327 H2303 0.950 . S
C2327 C2326 1.524 . S
C2327 C2328 1.415 . S
C2328 H2304 0.950 . S
C2328 C2323 1.363 . S
C2328 C2327 1.415 . S
C2329 H2305 0.951 . S
C2329 C2330 1.366 . S
C2329 C2331 1.388 . S
C2330 C2329 1.366 . S
C2330 C2334 1.385 . S
C2331 H2306 0.951 . S
C2331 C2329 1.388 . S
C2331 C2332 1.366 . S
C2332 C2331 1.366 . S
C2332 C2333 1.414 . S
C2332 C2335 1.499 . S
C2333 H2307 0.950 . S
C2333 C2332 1.414 . S
C2333 C2334 1.374 . S
C2334 H2308 0.950 . S
C2334 C2330 1.385 . S
C2334 C2333 1.374 . S
C2335 C2332 1.499 . S
C2335 C2336 1.373 . S
C2335 C2337 1.389 . S
C2336 H2309 0.950 . S
C2336 C2322 1.377 . S
C2336 C2335 1.373 . S
C2337 C2321 1.377 . S
C2337 C2335 1.389 . S
C2337 C2338 1.524 . S
C2338 C2337 1.524 . S
C2338 C2339 1.397 . S
C2338 C2343 1.363 . S
C2339 H2310 0.950 . S
C2339 C2338 1.397 . S
C2339 C2340 1.334 . S
C2340 H2311 0.950 . S
C2340 C2339 1.334 . S
C2340 C2341 1.287 . S
C2341 C2340 1.287 . S
C2341 C2342 1.524 . S
C2341 H2344 0.999 . S
C2342 H2312 0.950 . S
C2342 C2341 1.524 . S
C2342 C2343 1.415 . S
C2343 H2313 0.950 . S
C2343 C2338 1.363 . S
C2343 C2342 1.415 . S
H2344 C2341 0.999 . S
H2345 C2326 0.913 1_545 S
H2346 C2364 0.951 . S
H2347 C2366 0.951 . S
H2348 C2368 0.950 . S
H2349 C2369 0.950 . S
H2350 C2371 0.950 . S
H2351 C2374 0.950 . S
H2352 C2375 0.950 . S
H2353 C2377 0.950 . S
H2354 C2378 0.950 1_554 S
H2355 C2379 0.951 . S
H2356 C2381 0.951 . S
H2357 C2383 0.950 . S
H2358 C2384 0.950 . S
H2359 C2386 0.950 . S
H2360 C2389 0.950 1_554 S
H2361 C2390 0.950 1_554 S
H2362 C2392 0.950 . S
H2363 C2393 0.950 . S
C2364 H2346 0.951 . S
C2364 C2365 1.366 . S
C2364 C2366 1.388 . S
C2365 C2364 1.366 . S
C2365 C2369 1.385 . S
C2366 H2347 0.951 . S
C2366 C2364 1.388 . S
C2366 C2367 1.366 . S
C2367 C2366 1.366 . S
C2367 C2368 1.414 . S
C2367 C2370 1.499 . S
C2368 H2348 0.950 . S
C2368 C2367 1.414 . S
C2368 C2369 1.374 . S
C2369 H2349 0.950 . S
C2369 C2365 1.385 . S
C2369 C2368 1.374 . S
C2370 C2367 1.499 . S
C2370 C2371 1.373 . S
C2370 C2372 1.389 . S
C2371 H2350 0.950 . S
C2371 C2370 1.373 . S
C2371 C2387 1.377 . S
C2372 C2370 1.389 . S
C2372 C2373 1.524 . S
C2372 C2386 1.377 . S
C2373 C2372 1.524 . S
C2373 C2374 1.397 . S
C2373 C2378 1.363 . S
C2374 H2351 0.950 . S
C2374 C2373 1.397 . S
C2374 C2375 1.334 . S
C2375 H2352 0.950 . S
C2375 C2374 1.334 . S
C2375 C2376 1.287 . S
C2376 C2375 1.287 . S
C2376 C2377 1.524 . S
C2376 H2395 0.913 . S
C2377 H2353 0.950 . S
C2377 C2376 1.524 . S
C2377 C2378 1.415 . S
C2378 H2354 0.950 1_556 S
C2378 C2373 1.363 . S
C2378 C2377 1.415 . S
C2379 H2355 0.951 . S
C2379 C2380 1.366 1_556 S
C2379 C2381 1.388 . S
C2380 C2379 1.366 1_554 S
C2380 C2384 1.385 . S
C2381 H2356 0.951 . S
C2381 C2379 1.388 . S
C2381 C2382 1.366 . S
C2382 C2381 1.366 . S
C2382 C2383 1.414 1_556 S
C2382 C2385 1.499 . S
C2383 H2357 0.950 . S
C2383 C2382 1.414 1_554 S
C2383 C2384 1.374 . S
C2384 H2358 0.950 . S
C2384 C2380 1.385 . S
C2384 C2383 1.374 . S
C2385 C2382 1.499 . S
C2385 C2386 1.373 . S
C2385 C2387 1.389 . S
C2386 H2359 0.950 . S
C2386 C2372 1.377 . S
C2386 C2385 1.373 . S
C2387 C2371 1.377 . S
C2387 C2385 1.389 . S
C2387 C2388 1.524 . S
C2388 C2387 1.524 . S
C2388 C2389 1.397 . S
C2388 C2393 1.363 . S
C2389 H2360 0.950 1_556 S
C2389 C2388 1.397 . S
C2389 C2390 1.334 . S
C2390 H2361 0.950 1_556 S
C2390 C2389 1.334 . S
C2390 C2391 1.287 . S
C2391 C2390 1.287 . S
C2391 C2392 1.524 . S
C2391 H2394 0.999 . S
C2392 H2362 0.950 . S
C2392 C2391 1.524 . S
C2392 C2393 1.415 . S
C2393 H2363 0.950 . S
C2393 C2388 1.363 . S
C2393 C2392 1.415 . S
H2394 C2391 0.999 . S
H2395 C2376 0.913 . S
H2396 C2414 0.951 . S
H2397 C2416 0.951 . S
H2398 C2418 0.950 . S
H2399 C2419 0.950 . S
H2400 C2421 0.950 . S
H2401 C2424 0.950 . S
H2402 C2425 0.950 . S
H2403 C2427 0.950 1_455 S
H2404 C2428 0.950 . S
H2405 C2429 0.951 . S
H2406 C2431 0.951 . S
H2407 C2433 0.950 . S
H2408 C2434 0.950 . S
H2409 C2436 0.950 . S
H2410 C2439 0.950 . S
H2411 C2440 0.950 . S
H2412 C2442 0.950 . S
H2413 C2443 0.950 . S
C2414 H2396 0.951 . S
C2414 C2415 1.366 . S
C2414 C2416 1.388 . S
C2415 C2414 1.366 . S
C2415 C2419 1.385 . S
C2416 H2397 0.951 . S
C2416 C2414 1.388 . S
C2416 C2417 1.366 . S
C2417 C2416 1.366 . S
C2417 C2418 1.414 . S
C2417 C2420 1.499 . S
C2418 H2398 0.950 . S
C2418 C2417 1.414 . S
C2418 C2419 1.374 . S
C2419 H2399 0.950 . S
C2419 C2415 1.385 . S
C2419 C2418 1.374 . S
C2420 C2417 1.499 . S
C2420 C2421 1.373 . S
C2420 C2422 1.389 . S
C2421 H2400 0.950 . S
C2421 C2420 1.373 . S
C2421 C2437 1.377 . S
C2422 C2420 1.389 . S
C2422 C2423 1.524 . S
C2422 C2436 1.377 . S
C2423 C2422 1.524 . S
C2423 C2424 1.397 . S
C2423 C2428 1.363 . S
C2424 H2401 0.950 . S
C2424 C2423 1.397 . S
C2424 C2425 1.334 . S
C2425 H2402 0.950 . S
C2425 C2424 1.334 . S
C2425 C2426 1.287 1_655 S
C2426 C2425 1.287 1_455 S
C2426 C2427 1.524 1_455 S
C2426 H2445 0.913 . S
C2427 H2403 0.950 1_655 S
C2427 C2426 1.524 1_655 S
C2427 C2428 1.415 . S
C2428 H2404 0.950 . S
C2428 C2423 1.363 . S
C2428 C2427 1.415 . S
C2429 H2405 0.951 . S
C2429 C2430 1.366 . S
C2429 C2431 1.388 . S
C2430 C2429 1.366 . S
C2430 C2434 1.385 . S
C2431 H2406 0.951 . S
C2431 C2429 1.388 . S
C2431 C2432 1.366 1_554 S
C2432 C2431 1.366 1_556 S
C2432 C2433 1.414 . S
C2432 C2435 1.499 . S
C2433 H2407 0.950 . S
C2433 C2432 1.414 . S
C2433 C2434 1.374 1_556 S
C2434 H2408 0.950 . S
C2434 C2430 1.385 . S
C2434 C2433 1.374 1_554 S
C2435 C2432 1.499 . S
C2435 C2436 1.373 . S
C2435 C2437 1.389 . S
C2436 H2409 0.950 . S
C2436 C2422 1.377 . S
C2436 C2435 1.373 . S
C2437 C2421 1.377 . S
C2437 C2435 1.389 . S
C2437 C2438 1.524 . S
C2438 C2437 1.524 . S
C2438 C2439 1.397 . S
C2438 C2443 1.363 . S
C2439 H2410 0.950 . S
C2439 C2438 1.397 . S
C2439 C2440 1.334 . S
C2440 H2411 0.950 . S
C2440 C2439 1.334 . S
C2440 C2441 1.287 . S
C2441 C2440 1.287 . S
C2441 C2442 1.524 . S
C2441 H2444 0.999 . S
C2442 H2412 0.950 . S
C2442 C2441 1.524 . S
C2442 C2443 1.415 . S
C2443 H2413 0.950 . S
C2443 C2438 1.363 . S
C2443 C2442 1.415 . S
H2444 C2441 0.999 . S
H2445 C2426 0.913 . S
H2446 C2464 0.951 . S
H2447 C2466 0.951 . S
H2448 C2468 0.950 . S
H2449 C2469 0.950 . S
H2450 C2471 0.950 . S
H2451 C2474 0.950 . S
H2452 C2475 0.950 . S
H2453 C2477 0.950 . S
H2454 C2478 0.950 . S
H2455 C2479 0.951 . S
H2456 C2481 0.951 . S
H2457 C2483 0.950 . S
H2458 C2484 0.950 . S
H2459 C2486 0.950 . S
H2460 C2489 0.950 . S
H2461 C2490 0.950 . S
H2462 C2492 0.950 . S
H2463 C2493 0.950 . S
C2464 H2446 0.951 . S
C2464 C2465 1.366 . S
C2464 C2466 1.388 . S
C2465 C2464 1.366 . S
C2465 C2469 1.385 . S
C2466 H2447 0.951 . S
C2466 C2464 1.388 . S
C2466 C2467 1.366 . S
C2467 C2466 1.366 . S
C2467 C2468 1.414 . S
C2467 C2470 1.499 . S
C2468 H2448 0.950 . S
C2468 C2467 1.414 . S
C2468 C2469 1.374 . S
C2469 H2449 0.950 . S
C2469 C2465 1.385 . S
C2469 C2468 1.374 . S
C2470 C2467 1.499 . S
C2470 C2471 1.373 . S
C2470 C2472 1.389 . S
C2471 H2450 0.950 . S
C2471 C2470 1.373 . S
C2471 C2487 1.377 . S
C2472 C2470 1.389 . S
C2472 C2473 1.524 . S
C2472 C2486 1.377 . S
C2473 C2472 1.524 . S
C2473 C2474 1.397 . S
C2473 C2478 1.363 . S
C2474 H2451 0.950 . S
C2474 C2473 1.397 . S
C2474 C2475 1.334 . S
C2475 H2452 0.950 . S
C2475 C2474 1.334 . S
C2475 C2476 1.287 . S
C2476 C2475 1.287 . S
C2476 C2477 1.524 . S
C2476 H2495 0.913 . S
C2477 H2453 0.950 . S
C2477 C2476 1.524 . S
C2477 C2478 1.415 . S
C2478 H2454 0.950 . S
C2478 C2473 1.363 . S
C2478 C2477 1.415 . S
C2479 H2455 0.951 . S
C2479 C2480 1.366 1_556 S
C2479 C2481 1.388 . S
C2480 C2479 1.366 1_554 S
C2480 C2484 1.385 . S
C2481 H2456 0.951 . S
C2481 C2479 1.388 . S
C2481 C2482 1.366 . S
C2482 C2481 1.366 . S
C2482 C2483 1.414 1_556 S
C2482 C2485 1.499 . S
C2483 H2457 0.950 . S
C2483 C2482 1.414 1_554 S
C2483 C2484 1.374 . S
C2484 H2458 0.950 . S
C2484 C2480 1.385 . S
C2484 C2483 1.374 . S
C2485 C2482 1.499 . S
C2485 C2486 1.373 . S
C2485 C2487 1.389 . S
C2486 H2459 0.950 . S
C2486 C2472 1.377 . S
C2486 C2485 1.373 . S
C2487 C2471 1.377 . S
C2487 C2485 1.389 . S
C2487 C2488 1.524 . S
C2488 C2487 1.524 . S
C2488 C2489 1.397 1_556 S
C2488 C2493 1.363 . S
C2489 H2460 0.950 . S
C2489 C2488 1.397 1_554 S
C2489 C2490 1.334 . S
C2490 H2461 0.950 . S
C2490 C2489 1.334 . S
C2490 C2491 1.293 . S
C2491 C2490 1.293 . S
C2491 C2492 1.514 1_554 S
C2491 H2494 1.002 . S
C2492 H2462 0.950 . S
C2492 C2491 1.514 1_556 S
C2492 C2493 1.415 . S
C2493 H2463 0.950 . S
C2493 C2488 1.363 . S
C2493 C2492 1.415 . S
H2494 C2491 1.002 . S
H2495 C2476 0.913 . S
H2496 C2514 0.951 . S
H2497 C2516 0.951 . S
H2498 C2518 0.950 . S
H2499 C2519 0.950 . S
H2500 C2521 0.950 . S
H2501 C2524 0.950 . S
H2502 C2525 0.950 . S
H2503 C2527 0.950 . S
H2504 C2528 0.950 . S
H2505 C2529 0.951 . S
H2506 C2531 0.951 . S
H2507 C2533 0.950 . S
H2508 C2534 0.950 . S
H2509 C2536 0.950 . S
H2510 C2539 0.950 . S
H2511 C2540 0.950 . S
H2512 C2542 0.950 . S
H2513 C2543 0.950 . S
C2514 H2496 0.951 . S
C2514 C2515 1.366 . S
C2514 C2516 1.388 . S
C2515 C2514 1.366 . S
C2515 C2519 1.385 . S
C2516 H2497 0.951 . S
C2516 C2514 1.388 . S
C2516 C2517 1.366 . S
C2517 C2516 1.366 . S
C2517 C2518 1.414 . S
C2517 C2520 1.499 . S
C2518 H2498 0.950 . S
C2518 C2517 1.414 . S
C2518 C2519 1.374 . S
C2519 H2499 0.950 . S
C2519 C2515 1.385 . S
C2519 C2518 1.374 . S
C2520 C2517 1.499 . S
C2520 C2521 1.373 . S
C2520 C2522 1.389 . S
C2521 H2500 0.950 . S
C2521 C2520 1.373 . S
C2521 C2537 1.377 . S
C2522 C2520 1.389 . S
C2522 C2523 1.524 . S
C2522 C2536 1.377 . S
C2523 C2522 1.524 . S
C2523 C2524 1.397 . S
C2523 C2528 1.363 . S
C2524 H2501 0.950 . S
C2524 C2523 1.397 . S
C2524 C2525 1.334 . S
C2525 H2502 0.950 . S
C2525 C2524 1.334 . S
C2525 C2526 1.287 . S
C2526 C2525 1.287 . S
C2526 C2527 1.524 . S
C2526 H2545 0.913 . S
C2527 H2503 0.950 . S
C2527 C2526 1.524 . S
C2527 C2528 1.415 . S
C2528 H2504 0.950 . S
C2528 C2523 1.363 . S
C2528 C2527 1.415 . S
C2529 H2505 0.951 . S
C2529 C2530 1.366 . S
C2529 C2531 1.388 . S
C2530 C2529 1.366 . S
C2530 C2534 1.385 . S
C2531 H2506 0.951 . S
C2531 C2529 1.388 . S
C2531 C2532 1.366 . S
C2532 C2531 1.366 . S
C2532 C2533 1.414 . S
C2532 C2535 1.499 . S
C2533 H2507 0.950 . S
C2533 C2532 1.414 . S
C2533 C2534 1.374 . S
C2534 H2508 0.950 . S
C2534 C2530 1.385 . S
C2534 C2533 1.374 . S
C2535 C2532 1.499 . S
C2535 C2536 1.373 . S
C2535 C2537 1.389 . S
C2536 H2509 0.950 . S
C2536 C2522 1.377 . S
C2536 C2535 1.373 . S
C2537 C2521 1.377 . S
C2537 C2535 1.389 . S
C2537 C2538 1.524 . S
C2538 C2537 1.524 . S
C2538 C2539 1.397 . S
C2538 C2543 1.363 . S
C2539 H2510 0.950 . S
C2539 C2538 1.397 . S
C2539 C2540 1.334 . S
C2540 H2511 0.950 . S
C2540 C2539 1.334 . S
C2540 C2541 1.287 . S
C2541 C2540 1.287 . S
C2541 C2542 1.524 . S
C2541 H2544 0.999 . S
C2542 H2512 0.950 . S
C2542 C2541 1.524 . S
C2542 C2543 1.415 . S
C2543 H2513 0.950 . S
C2543 C2538 1.363 . S
C2543 C2542 1.415 . S
H2544 C2541 0.999 . S
H2545 C2526 0.913 . S
H2546 C2564 0.951 . S
H2547 C2566 0.951 . S
H2548 C2568 0.950 . S
H2549 C2569 0.950 . S
H2550 C2571 0.950 . S
H2551 C2574 0.950 . S
H2552 C2575 0.950 . S
H2553 C2577 0.950 . S
H2554 C2578 0.950 . S
H2555 C2579 0.951 . S
H2556 C2581 0.951 . S
H2557 C2583 0.950 . S
H2558 C2584 0.950 . S
H2559 C2586 0.950 . S
H2560 C2589 0.950 . S
H2561 C2590 0.950 . S
H2562 C2592 0.950 . S
H2563 C2593 0.950 . S
C2564 H2546 0.951 . S
C2564 C2565 1.366 . S
C2564 C2566 1.388 . S
C2565 C2564 1.366 . S
C2565 C2569 1.385 . S
C2566 H2547 0.951 . S
C2566 C2564 1.388 . S
C2566 C2567 1.366 . S
C2567 C2566 1.366 . S
C2567 C2568 1.414 . S
C2567 C2570 1.499 . S
C2568 H2548 0.950 . S
C2568 C2567 1.414 . S
C2568 C2569 1.374 . S
C2569 H2549 0.950 . S
C2569 C2565 1.385 . S
C2569 C2568 1.374 . S
C2570 C2567 1.499 . S
C2570 C2571 1.373 . S
C2570 C2572 1.389 . S
C2571 H2550 0.950 . S
C2571 C2570 1.373 . S
C2571 C2587 1.377 . S
C2572 C2570 1.389 . S
C2572 C2573 1.524 . S
C2572 C2586 1.377 . S
C2573 C2572 1.524 . S
C2573 C2574 1.397 . S
C2573 C2578 1.363 . S
C2574 H2551 0.950 . S
C2574 C2573 1.397 . S
C2574 C2575 1.334 . S
C2575 H2552 0.950 . S
C2575 C2574 1.334 . S
C2575 C2576 1.287 . S
C2576 C2575 1.287 . S
C2576 C2577 1.524 . S
C2576 H2595 0.913 . S
C2577 H2553 0.950 . S
C2577 C2576 1.524 . S
C2577 C2578 1.415 . S
C2578 H2554 0.950 . S
C2578 C2573 1.363 . S
C2578 C2577 1.415 . S
C2579 H2555 0.951 . S
C2579 C2580 1.366 . S
C2579 C2581 1.388 . S
C2580 C2579 1.366 . S
C2580 C2584 1.385 . S
C2581 H2556 0.951 . S
C2581 C2579 1.388 . S
C2581 C2582 1.366 . S
C2582 C2581 1.366 . S
C2582 C2583 1.414 . S
C2582 C2585 1.499 . S
C2583 H2557 0.950 . S
C2583 C2582 1.414 . S
C2583 C2584 1.374 . S
C2584 H2558 0.950 . S
C2584 C2580 1.385 . S
C2584 C2583 1.374 . S
C2585 C2582 1.499 . S
C2585 C2586 1.373 . S
C2585 C2587 1.389 . S
C2586 H2559 0.950 . S
C2586 C2572 1.377 . S
C2586 C2585 1.373 . S
C2587 C2571 1.377 . S
C2587 C2585 1.389 . S
C2587 C2588 1.524 . S
C2588 C2587 1.524 . S
C2588 C2589 1.397 . S
C2588 C2593 1.363 . S
C2589 H2560 0.950 . S
C2589 C2588 1.397 . S
C2589 C2590 1.334 . S
C2590 H2561 0.950 . S
C2590 C2589 1.334 . S
C2590 C2591 1.287 . S
C2591 C2590 1.287 . S
C2591 C2592 1.524 . S
C2591 H2594 0.999 . S
C2592 H2562 0.950 . S
C2592 C2591 1.524 . S
C2592 C2593 1.415 . S
C2593 H2563 0.950 . S
C2593 C2588 1.363 . S
C2593 C2592 1.415 . S
H2594 C2591 0.999 . S
H2595 C2576 0.913 . S
H2596 C2614 0.951 . S
H2597 C2616 0.951 . S
H2598 C2618 0.950 . S
H2599 C2619 0.950 . S
H2600 C2621 0.950 . S
H2601 C2624 0.950 . S
H2602 C2625 0.950 . S
H2603 C2627 0.950 . S
H2604 C2628 0.950 . S
H2605 C2629 0.951 . S
H2606 C2631 0.951 . S
H2607 C2633 0.950 . S
H2608 C2634 0.950 . S
H2609 C2636 0.950 . S
H2610 C2639 0.950 . S
H2611 C2640 0.950 . S
H2612 C2642 0.950 . S
H2613 C2643 0.950 . S
C2614 H2596 0.951 . S
C2614 C2615 1.366 . S
C2614 C2616 1.388 . S
C2615 C2614 1.366 . S
C2615 C2619 1.385 . S
C2616 H2597 0.951 . S
C2616 C2614 1.388 . S
C2616 C2617 1.366 . S
C2617 C2616 1.366 . S
C2617 C2618 1.414 . S
C2617 C2620 1.499 . S
C2618 H2598 0.950 . S
C2618 C2617 1.414 . S
C2618 C2619 1.374 . S
C2619 H2599 0.950 . S
C2619 C2615 1.385 . S
C2619 C2618 1.374 . S
C2620 C2617 1.499 . S
C2620 C2621 1.373 . S
C2620 C2622 1.389 . S
C2621 H2600 0.950 . S
C2621 C2620 1.373 . S
C2621 C2637 1.377 . S
C2622 C2620 1.389 . S
C2622 C2623 1.524 . S
C2622 C2636 1.377 . S
C2623 C2622 1.524 . S
C2623 C2624 1.397 . S
C2623 C2628 1.363 . S
C2624 H2601 0.950 . S
C2624 C2623 1.397 . S
C2624 C2625 1.334 . S
C2625 H2602 0.950 . S
C2625 C2624 1.334 . S
C2625 C2626 1.287 . S
C2626 C2625 1.287 . S
C2626 C2627 1.524 . S
C2626 H2645 0.913 . S
C2627 H2603 0.950 . S
C2627 C2626 1.524 . S
C2627 C2628 1.415 . S
C2628 H2604 0.950 . S
C2628 C2623 1.363 . S
C2628 C2627 1.415 . S
C2629 H2605 0.951 . S
C2629 C2630 1.366 . S
C2629 C2631 1.388 . S
C2630 C2629 1.366 . S
C2630 C2634 1.385 . S
C2631 H2606 0.951 . S
C2631 C2629 1.388 . S
C2631 C2632 1.366 . S
C2632 C2631 1.366 . S
C2632 C2633 1.414 . S
C2632 C2635 1.499 . S
C2633 H2607 0.950 . S
C2633 C2632 1.414 . S
C2633 C2634 1.374 . S
C2634 H2608 0.950 . S
C2634 C2630 1.385 . S
C2634 C2633 1.374 . S
C2635 C2632 1.499 . S
C2635 C2636 1.373 . S
C2635 C2637 1.389 . S
C2636 H2609 0.950 . S
C2636 C2622 1.377 . S
C2636 C2635 1.373 . S
C2637 C2621 1.377 . S
C2637 C2635 1.389 . S
C2637 C2638 1.524 . S
C2638 C2637 1.524 . S
C2638 C2639 1.397 . S
C2638 C2643 1.363 . S
C2639 H2610 0.950 . S
C2639 C2638 1.397 . S
C2639 C2640 1.334 . S
C2640 H2611 0.950 . S
C2640 C2639 1.334 . S
C2640 C2641 1.287 . S
C2641 C2640 1.287 . S
C2641 C2642 1.524 . S
C2641 H2644 0.999 . S
C2642 H2612 0.950 . S
C2642 C2641 1.524 . S
C2642 C2643 1.415 . S
C2643 H2613 0.950 . S
C2643 C2638 1.363 . S
C2643 C2642 1.415 . S
H2644 C2641 0.999 . S
H2645 C2626 0.913 . S
H2646 C2664 0.951 . S
H2647 C2666 0.951 . S
H2648 C2668 0.950 . S
H2649 C2669 0.950 . S
H2650 C2671 0.950 . S
H2651 C2674 0.950 . S
H2652 C2675 0.950 . S
H2653 C2677 0.950 . S
H2654 C2678 0.950 . S
H2655 C2679 0.951 . S
H2656 C2681 0.951 . S
H2657 C2683 0.950 . S
H2658 C2684 0.950 . S
H2659 C2686 0.950 . S
H2660 C2689 0.950 . S
H2661 C2690 0.950 . S
H2662 C2692 0.950 . S
H2663 C2693 0.950 . S
C2664 H2646 0.951 . S
C2664 C2665 1.366 1_554 S
C2664 C2666 1.388 . S
C2665 C2664 1.366 1_556 S
C2665 C2669 1.385 . S
C2666 H2647 0.951 . S
C2666 C2664 1.388 . S
C2666 C2667 1.366 . S
C2667 C2666 1.366 . S
C2667 C2668 1.414 1_554 S
C2667 C2670 1.499 . S
C2668 H2648 0.950 . S
C2668 C2667 1.414 1_556 S
C2668 C2669 1.374 . S
C2669 H2649 0.950 . S
C2669 C2665 1.385 . S
C2669 C2668 1.374 . S
C2670 C2667 1.499 . S
C2670 C2671 1.373 . S
C2670 C2672 1.389 . S
C2671 H2650 0.950 . S
C2671 C2670 1.373 . S
C2671 C2687 1.377 . S
C2672 C2670 1.389 . S
C2672 C2673 1.524 . S
C2672 C2686 1.377 . S
C2673 C2672 1.524 . S
C2673 C2674 1.397 . S
C2673 C2678 1.363 . S
C2674 H2651 0.950 . S
C2674 C2673 1.397 . S
C2674 C2675 1.334 . S
C2675 H2652 0.950 . S
C2675 C2674 1.334 . S
C2675 C2676 1.287 . S
C2676 C2675 1.287 . S
C2676 C2677 1.524 . S
C2676 H2695 0.913 . S
C2677 H2653 0.950 . S
C2677 C2676 1.524 . S
C2677 C2678 1.415 . S
C2678 H2654 0.950 . S
C2678 C2673 1.363 . S
C2678 C2677 1.415 . S
C2679 H2655 0.951 . S
C2679 C2680 1.366 . S
C2679 C2681 1.388 . S
C2680 C2679 1.366 . S
C2680 C2684 1.385 . S
C2681 H2656 0.951 . S
C2681 C2679 1.388 . S
C2681 C2682 1.366 . S
C2682 C2681 1.366 . S
C2682 C2683 1.414 . S
C2682 C2685 1.499 . S
C2683 H2657 0.950 . S
C2683 C2682 1.414 . S
C2683 C2684 1.374 . S
C2684 H2658 0.950 . S
C2684 C2680 1.385 . S
C2684 C2683 1.374 . S
C2685 C2682 1.499 . S
C2685 C2686 1.373 . S
C2685 C2687 1.389 . S
C2686 H2659 0.950 . S
C2686 C2672 1.377 . S
C2686 C2685 1.373 . S
C2687 C2671 1.377 . S
C2687 C2685 1.389 . S
C2687 C2688 1.524 . S
C2688 C2687 1.524 . S
C2688 C2689 1.397 . S
C2688 C2693 1.363 1_554 S
C2689 H2660 0.950 . S
C2689 C2688 1.397 . S
C2689 C2690 1.334 . S
C2690 H2661 0.950 . S
C2690 C2689 1.334 . S
C2690 C2691 1.287 . S
C2691 C2690 1.287 . S
C2691 C2692 1.524 1_554 S
C2691 H2694 0.999 . S
C2692 H2662 0.950 . S
C2692 C2691 1.524 1_556 S
C2692 C2693 1.415 . S
C2693 H2663 0.950 . S
C2693 C2688 1.363 1_556 S
C2693 C2692 1.415 . S
H2694 C2691 0.999 . S
H2695 C2676 0.913 . S
H2696 C2714 0.951 . S
H2697 C2716 0.951 . S
H2698 C2718 0.950 . S
H2699 C2719 0.950 . S
H2700 C2721 0.950 . S
H2701 C2724 0.950 . S
H2702 C2725 0.950 . S
H2703 C2727 0.950 . S
H2704 C2728 0.950 . S
H2705 C2729 0.951 . S
H2706 C2731 0.951 . S
H2707 C2733 0.950 . S
H2708 C2734 0.950 . S
H2709 C2736 0.950 . S
H2710 C2739 0.950 . S
H2711 C2740 0.950 . S
H2712 C2742 0.950 . S
H2713 C2743 0.932 1_554 S
C2714 H2696 0.951 . S
C2714 C2715 1.366 . S
C2714 C2716 1.388 . S
C2715 C2714 1.366 . S
C2715 C2719 1.385 . S
C2716 H2697 0.951 . S
C2716 C2714 1.388 . S
C2716 C2717 1.366 . S
C2717 C2716 1.366 . S
C2717 C2718 1.414 . S
C2717 C2720 1.499 . S
C2718 H2698 0.950 . S
C2718 C2717 1.414 . S
C2718 C2719 1.374 . S
C2719 H2699 0.950 . S
C2719 C2715 1.385 . S
C2719 C2718 1.374 . S
C2720 C2717 1.499 . S
C2720 C2721 1.373 . S
C2720 C2722 1.389 . S
C2721 H2700 0.950 . S
C2721 C2720 1.373 . S
C2721 C2737 1.377 . S
C2722 C2720 1.389 . S
C2722 C2723 1.524 . S
C2722 C2736 1.377 . S
C2723 C2722 1.524 . S
C2723 C2724 1.397 . S
C2723 C2728 1.363 . S
C2724 H2701 0.950 . S
C2724 C2723 1.397 . S
C2724 C2725 1.334 . S
C2725 H2702 0.950 . S
C2725 C2724 1.334 . S
C2725 C2726 1.287 . S
C2726 C2725 1.287 . S
C2726 C2727 1.524 . S
C2726 H2745 0.913 . S
C2727 H2703 0.950 . S
C2727 C2726 1.524 . S
C2727 C2728 1.415 . S
C2728 H2704 0.950 . S
C2728 C2723 1.363 . S
C2728 C2727 1.415 . S
C2729 H2705 0.951 . S
C2729 C2730 1.366 . S
C2729 C2731 1.388 1_556 S
C2730 C2729 1.366 . S
C2730 C2734 1.385 . S
C2731 H2706 0.951 . S
C2731 C2729 1.388 1_554 S
C2731 C2732 1.366 . S
C2732 C2731 1.366 . S
C2732 C2733 1.414 1_554 S
C2732 C2735 1.499 . S
C2733 H2707 0.950 . S
C2733 C2732 1.414 1_556 S
C2733 C2734 1.374 . S
C2734 H2708 0.950 . S
C2734 C2730 1.385 . S
C2734 C2733 1.374 . S
C2735 C2732 1.499 . S
C2735 C2736 1.373 . S
C2735 C2737 1.389 . S
C2736 H2709 0.950 . S
C2736 C2722 1.377 . S
C2736 C2735 1.373 . S
C2737 C2721 1.377 . S
C2737 C2735 1.389 . S
C2737 C2738 1.524 1_554 S
C2738 C2737 1.524 1_556 S
C2738 C2739 1.397 . S
C2738 C2743 1.366 . S
C2739 H2710 0.950 . S
C2739 C2738 1.397 . S
C2739 C2740 1.334 . S
C2740 H2711 0.950 . S
C2740 C2739 1.334 . S
C2740 C2741 1.287 . S
C2741 C2740 1.287 . S
C2741 C2742 1.524 . S
C2741 H2744 0.999 . S
C2742 H2712 0.950 . S
C2742 C2741 1.524 . S
C2742 C2743 1.430 . S
C2743 H2713 0.932 1_556 S
C2743 C2738 1.366 . S
C2743 C2742 1.430 . S
H2744 C2741 0.999 . S
H2745 C2726 0.913 . S
H2746 C2764 0.951 . S
H2747 C2766 0.951 . S
H2748 C2768 0.950 . S
H2749 C2769 0.950 . S
H2750 C2771 0.950 . S
H2751 C2774 0.950 . S
H2752 C2775 0.950 . S
H2753 C2777 0.950 . S
H2754 C2778 0.950 . S
H2755 C2779 0.951 . S
H2756 C2781 0.951 . S
H2757 C2783 0.950 . S
H2758 C2784 0.950 . S
H2759 C2786 0.950 . S
H2760 C2789 0.950 . S
H2761 C2790 0.950 . S
H2762 C2792 0.950 . S
H2763 C2793 0.950 . S
C2764 H2746 0.951 . S
C2764 C2765 1.366 . S
C2764 C2766 1.388 . S
C2765 C2764 1.366 . S
C2765 C2769 1.385 . S
C2766 H2747 0.951 . S
C2766 C2764 1.388 . S
C2766 C2767 1.366 . S
C2767 C2766 1.366 . S
C2767 C2768 1.414 . S
C2767 C2770 1.499 . S
C2768 H2748 0.950 . S
C2768 C2767 1.414 . S
C2768 C2769 1.374 . S
C2769 H2749 0.950 . S
C2769 C2765 1.385 . S
C2769 C2768 1.374 . S
C2770 C2767 1.499 . S
C2770 C2771 1.373 . S
C2770 C2772 1.389 . S
C2771 H2750 0.950 . S
C2771 C2770 1.373 . S
C2771 C2787 1.377 . S
C2772 C2770 1.389 . S
C2772 C2773 1.524 . S
C2772 C2786 1.377 . S
C2773 C2772 1.524 . S
C2773 C2774 1.397 . S
C2773 C2778 1.363 . S
C2774 H2751 0.950 . S
C2774 C2773 1.397 . S
C2774 C2775 1.334 . S
C2775 H2752 0.950 . S
C2775 C2774 1.334 . S
C2775 C2776 1.287 . S
C2776 C2775 1.287 . S
C2776 C2777 1.524 . S
C2776 H2795 0.913 . S
C2777 H2753 0.950 . S
C2777 C2776 1.524 . S
C2777 C2778 1.415 . S
C2778 H2754 0.950 . S
C2778 C2773 1.363 . S
C2778 C2777 1.415 . S
C2779 H2755 0.951 . S
C2779 C2780 1.366 . S
C2779 C2781 1.388 . S
C2780 C2779 1.366 . S
C2780 C2784 1.385 . S
C2781 H2756 0.951 . S
C2781 C2779 1.388 . S
C2781 C2782 1.366 1_556 S
C2782 C2781 1.366 1_554 S
C2782 C2783 1.414 . S
C2782 C2785 1.499 . S
C2783 H2757 0.950 . S
C2783 C2782 1.414 . S
C2783 C2784 1.374 1_554 S
C2784 H2758 0.950 . S
C2784 C2780 1.385 . S
C2784 C2783 1.374 1_556 S
C2785 C2782 1.499 . S
C2785 C2786 1.373 . S
C2785 C2787 1.389 . S
C2786 H2759 0.950 . S
C2786 C2772 1.377 . S
C2786 C2785 1.373 . S
C2787 C2771 1.377 . S
C2787 C2785 1.389 . S
C2787 C2788 1.524 1_554 S
C2788 C2787 1.524 1_556 S
C2788 C2789 1.397 . S
C2788 C2793 1.363 . S
C2789 H2760 0.950 . S
C2789 C2788 1.397 . S
C2789 C2790 1.334 . S
C2790 H2761 0.950 . S
C2790 C2789 1.334 . S
C2790 C2791 1.287 . S
C2791 C2790 1.287 . S
C2791 C2792 1.524 . S
C2791 H2794 0.999 . S
C2792 H2762 0.950 . S
C2792 C2791 1.524 . S
C2792 C2793 1.415 . S
C2793 H2763 0.950 . S
C2793 C2788 1.363 . S
C2793 C2792 1.415 . S
H2794 C2791 0.999 . S
H2795 C2776 0.913 . S
H2796 C2814 0.951 . S
H2797 C2816 0.951 . S
H2798 C2818 0.950 . S
H2799 C2819 0.950 . S
H2800 C2821 0.950 . S
H2801 C2824 0.950 1_655 S
H2802 C2825 0.950 . S
H2803 C2827 0.950 . S
H2804 C2828 0.950 . S
H2805 C2829 0.951 . S
H2806 C2831 0.951 . S
H2807 C2833 0.950 . S
H2808 C2834 0.950 . S
H2809 C2836 0.950 . S
H2810 C2839 0.950 . S
H2811 C2840 0.950 . S
H2812 C2842 0.950 . S
H2813 C2843 0.950 . S
C2814 H2796 0.951 . S
C2814 C2815 1.366 . S
C2814 C2816 1.388 . S
C2815 C2814 1.366 . S
C2815 C2819 1.385 . S
C2816 H2797 0.951 . S
C2816 C2814 1.388 . S
C2816 C2817 1.366 . S
C2817 C2816 1.366 . S
C2817 C2818 1.414 . S
C2817 C2820 1.499 . S
C2818 H2798 0.950 . S
C2818 C2817 1.414 . S
C2818 C2819 1.374 . S
C2819 H2799 0.950 . S
C2819 C2815 1.385 . S
C2819 C2818 1.374 . S
C2820 C2817 1.499 . S
C2820 C2821 1.373 . S
C2820 C2822 1.389 1_655 S
C2821 H2800 0.950 . S
C2821 C2820 1.373 . S
C2821 C2837 1.377 1_655 S
C2822 C2820 1.389 1_455 S
C2822 C2823 1.524 . S
C2822 C2836 1.377 . S
C2823 C2822 1.524 . S
C2823 C2824 1.397 . S
C2823 C2828 1.363 . S
C2824 H2801 0.950 1_455 S
C2824 C2823 1.397 . S
C2824 C2825 1.334 . S
C2825 H2802 0.950 . S
C2825 C2824 1.334 . S
C2825 C2826 1.287 . S
C2826 C2825 1.287 . S
C2826 C2827 1.524 . S
C2826 H2845 0.913 1_554 S
C2827 H2803 0.950 . S
C2827 C2826 1.524 . S
C2827 C2828 1.415 . S
C2828 H2804 0.950 . S
C2828 C2823 1.363 . S
C2828 C2827 1.415 . S
C2829 H2805 0.951 . S
C2829 C2830 1.366 . S
C2829 C2831 1.388 . S
C2830 C2829 1.366 . S
C2830 C2834 1.385 . S
C2831 H2806 0.951 . S
C2831 C2829 1.388 . S
C2831 C2832 1.366 . S
C2832 C2831 1.366 . S
C2832 C2833 1.414 . S
C2832 C2835 1.499 . S
C2833 H2807 0.950 . S
C2833 C2832 1.414 . S
C2833 C2834 1.374 . S
C2834 H2808 0.950 . S
C2834 C2830 1.385 . S
C2834 C2833 1.374 . S
C2835 C2832 1.499 . S
C2835 C2836 1.373 . S
C2835 C2837 1.389 . S
C2836 H2809 0.950 . S
C2836 C2822 1.377 . S
C2836 C2835 1.373 . S
C2837 C2821 1.377 1_455 S
C2837 C2835 1.389 . S
C2837 C2838 1.524 . S
C2838 C2837 1.524 . S
C2838 C2839 1.397 . S
C2838 C2843 1.363 1_455 S
C2839 H2810 0.950 . S
C2839 C2838 1.397 . S
C2839 C2840 1.334 . S
C2840 H2811 0.950 . S
C2840 C2839 1.334 . S
C2840 C2841 1.287 1_455 S
C2841 C2840 1.287 1_655 S
C2841 C2842 1.524 . S
C2841 H2844 0.999 . S
C2842 H2812 0.950 . S
C2842 C2841 1.524 . S
C2842 C2843 1.415 . S
C2843 H2813 0.950 . S
C2843 C2838 1.363 1_655 S
C2843 C2842 1.415 . S
H2844 C2841 0.999 . S
H2845 C2826 0.913 1_556 S
H2846 C2864 0.951 . S
H2847 C2866 0.951 . S
H2848 C2868 0.950 . S
H2849 C2869 0.950 . S
H2850 C2871 0.950 . S
H2851 C2874 0.950 . S
H2852 C2875 0.950 . S
H2853 C2877 0.950 . S
H2854 C2878 0.950 . S
H2855 C2879 0.951 . S
H2856 C2881 0.951 . S
H2857 C2883 0.950 . S
H2858 C2884 0.950 . S
H2859 C2886 0.950 . S
H2860 C2889 0.950 . S
H2861 C2890 0.950 . S
H2862 C2892 0.950 . S
H2863 C2893 0.950 . S
C2864 H2846 0.951 . S
C2864 C2865 1.366 . S
C2864 C2866 1.388 . S
C2865 C2864 1.366 . S
C2865 C2869 1.385 . S
C2866 H2847 0.951 . S
C2866 C2864 1.388 . S
C2866 C2867 1.366 . S
C2867 C2866 1.366 . S
C2867 C2868 1.414 . S
C2867 C2870 1.499 . S
C2868 H2848 0.950 . S
C2868 C2867 1.414 . S
C2868 C2869 1.374 . S
C2869 H2849 0.950 . S
C2869 C2865 1.385 . S
C2869 C2868 1.374 . S
C2870 C2867 1.499 . S
C2870 C2871 1.373 . S
C2870 C2872 1.389 . S
C2871 H2850 0.950 . S
C2871 C2870 1.373 . S
C2871 C2887 1.377 . S
C2872 C2870 1.389 . S
C2872 C2873 1.524 . S
C2872 C2886 1.377 . S
C2873 C2872 1.524 . S
C2873 C2874 1.397 . S
C2873 C2878 1.363 . S
C2874 H2851 0.950 . S
C2874 C2873 1.397 . S
C2874 C2875 1.334 . S
C2875 H2852 0.950 . S
C2875 C2874 1.334 . S
C2875 C2876 1.287 . S
C2876 C2875 1.287 . S
C2876 C2877 1.524 . S
C2876 H2895 0.913 . S
C2877 H2853 0.950 . S
C2877 C2876 1.524 . S
C2877 C2878 1.415 . S
C2878 H2854 0.950 . S
C2878 C2873 1.363 . S
C2878 C2877 1.415 . S
C2879 H2855 0.951 . S
C2879 C2880 1.366 . S
C2879 C2881 1.388 . S
C2880 C2879 1.366 . S
C2880 C2884 1.385 . S
C2881 H2856 0.951 . S
C2881 C2879 1.388 . S
C2881 C2882 1.366 . S
C2882 C2881 1.366 . S
C2882 C2883 1.414 . S
C2882 C2885 1.499 . S
C2883 H2857 0.950 . S
C2883 C2882 1.414 . S
C2883 C2884 1.374 . S
C2884 H2858 0.950 . S
C2884 C2880 1.385 . S
C2884 C2883 1.374 . S
C2885 C2882 1.499 . S
C2885 C2886 1.373 . S
C2885 C2887 1.389 . S
C2886 H2859 0.950 . S
C2886 C2872 1.377 . S
C2886 C2885 1.373 . S
C2887 C2871 1.377 . S
C2887 C2885 1.389 . S
C2887 C2888 1.524 . S
C2888 C2887 1.524 . S
C2888 C2889 1.397 . S
C2888 C2893 1.363 . S
C2889 H2860 0.950 . S
C2889 C2888 1.397 . S
C2889 C2890 1.334 . S
C2890 H2861 0.950 . S
C2890 C2889 1.334 . S
C2890 C2891 1.287 . S
C2891 C2890 1.287 . S
C2891 C2892 1.524 . S
C2891 H2894 0.999 . S
C2892 H2862 0.950 . S
C2892 C2891 1.524 . S
C2892 C2893 1.415 . S
C2893 H2863 0.950 . S
C2893 C2888 1.363 . S
C2893 C2892 1.415 . S
H2894 C2891 0.999 . S
H2895 C2876 0.913 . S
H2896 C2914 0.951 . S
H2897 C2916 0.951 . S
H2898 C2918 0.950 . S
H2899 C2919 0.950 . S
H2900 C2921 0.974 . S
H2901 C2924 0.950 . S
H2902 C2925 0.950 . S
H2903 C2927 0.950 . S
H2904 C2928 0.950 . S
H2905 C2929 0.951 . S
H2906 C2931 0.951 . S
H2907 C2933 0.950 . S
H2908 C2934 0.950 . S
H2909 C2936 0.950 . S
H2910 C2939 0.950 . S
H2911 C2940 0.950 . S
H2912 C2942 0.950 . S
H2913 C2943 0.950 . S
C2914 H2896 0.951 . S
C2914 C2915 1.366 . S
C2914 C2916 1.388 . S
C2915 C2914 1.366 . S
C2915 C2919 1.385 . S
C2916 H2897 0.951 . S
C2916 C2914 1.388 . S
C2916 C2917 1.366 . S
C2917 C2916 1.366 . S
C2917 C2918 1.414 . S
C2917 C2920 1.499 . S
C2918 H2898 0.950 . S
C2918 C2917 1.414 . S
C2918 C2919 1.374 . S
C2919 H2899 0.950 . S
C2919 C2915 1.385 . S
C2919 C2918 1.374 . S
C2920 C2917 1.499 . S
C2920 C2921 1.373 1_565 S
C2920 C2922 1.389 . S
C2921 H2900 0.974 . S
C2921 C2920 1.373 1_545 S
C2921 C2937 1.377 . S
C2922 C2920 1.389 . S
C2922 C2923 1.524 . S
C2922 C2936 1.377 1_565 S
C2923 C2922 1.524 . S
C2923 C2924 1.397 . S
C2923 C2928 1.363 . S
C2924 H2901 0.950 . S
C2924 C2923 1.397 . S
C2924 C2925 1.334 . S
C2925 H2902 0.950 . S
C2925 C2924 1.334 . S
C2925 C2926 1.287 . S
C2926 C2925 1.287 . S
C2926 C2927 1.524 . S
C2926 H2945 0.913 . S
C2927 H2903 0.950 . S
C2927 C2926 1.524 . S
C2927 C2928 1.415 . S
C2928 H2904 0.950 . S
C2928 C2923 1.363 . S
C2928 C2927 1.415 . S
C2929 H2905 0.951 . S
C2929 C2930 1.366 . S
C2929 C2931 1.388 . S
C2930 C2929 1.366 . S
C2930 C2934 1.385 . S
C2931 H2906 0.951 . S
C2931 C2929 1.388 . S
C2931 C2932 1.366 . S
C2932 C2931 1.366 . S
C2932 C2933 1.414 . S
C2932 C2935 1.499 . S
C2933 H2907 0.950 . S
C2933 C2932 1.414 . S
C2933 C2934 1.374 . S
C2934 H2908 0.950 . S
C2934 C2930 1.385 . S
C2934 C2933 1.374 . S
C2935 C2932 1.499 . S
C2935 C2936 1.373 . S
C2935 C2937 1.389 . S
C2936 H2909 0.950 . S
C2936 C2922 1.377 1_545 S
C2936 C2935 1.373 . S
C2937 C2921 1.377 . S
C2937 C2935 1.389 . S
C2937 C2938 1.524 . S
C2938 C2937 1.524 . S
C2938 C2939 1.397 . S
C2938 C2943 1.363 . S
C2939 H2910 0.950 . S
C2939 C2938 1.397 . S
C2939 C2940 1.334 . S
C2940 H2911 0.950 . S
C2940 C2939 1.334 . S
C2940 C2941 1.287 . S
C2941 C2940 1.287 . S
C2941 C2942 1.524 . S
C2941 H2944 0.999 . S
C2942 H2912 0.950 . S
C2942 C2941 1.524 . S
C2942 C2943 1.415 . S
C2943 H2913 0.950 . S
C2943 C2938 1.363 . S
C2943 C2942 1.415 . S
H2944 C2941 0.999 . S
H2945 C2926 0.913 . S
H2946 C2964 0.951 . S
H2947 C2966 0.951 . S
H2948 C2968 0.950 . S
H2949 C2969 0.950 . S
H2950 C2971 0.950 1_565 S
H2951 C2974 0.950 . S
H2952 C2975 0.950 . S
H2953 C2977 0.950 . S
H2954 C2978 0.950 . S
H2955 C2979 0.951 . S
H2956 C2981 0.951 . S
H2957 C2983 0.950 . S
H2958 C2984 0.950 . S
H2959 C2986 0.950 . S
H2960 C2989 0.950 . S
H2961 C2990 0.950 . S
H2962 C2992 0.950 . S
H2963 C2993 0.950 . S
C2964 H2946 0.951 . S
C2964 C2965 1.366 . S
C2964 C2966 1.388 . S
C2965 C2964 1.366 . S
C2965 C2969 1.385 . S
C2966 H2947 0.951 . S
C2966 C2964 1.388 . S
C2966 C2967 1.366 . S
C2967 C2966 1.366 . S
C2967 C2968 1.414 . S
C2967 C2970 1.499 . S
C2968 H2948 0.950 . S
C2968 C2967 1.414 . S
C2968 C2969 1.374 . S
C2969 H2949 0.950 . S
C2969 C2965 1.385 . S
C2969 C2968 1.374 . S
C2970 C2967 1.499 . S
C2970 C2971 1.373 1_565 S
C2970 C2972 1.389 . S
C2971 H2950 0.950 1_545 S
C2971 C2970 1.373 1_545 S
C2971 C2987 1.377 . S
C2972 C2970 1.389 . S
C2972 C2973 1.524 . S
C2972 C2986 1.377 1_565 S
C2973 C2972 1.524 . S
C2973 C2974 1.397 . S
C2973 C2978 1.363 . S
C2974 H2951 0.950 . S
C2974 C2973 1.397 . S
C2974 C2975 1.334 . S
C2975 H2952 0.950 . S
C2975 C2974 1.334 . S
C2975 C2976 1.287 . S
C2976 C2975 1.287 . S
C2976 C2977 1.524 . S
C2976 H2995 0.913 . S
C2977 H2953 0.950 . S
C2977 C2976 1.524 . S
C2977 C2978 1.415 . S
C2978 H2954 0.950 . S
C2978 C2973 1.363 . S
C2978 C2977 1.415 . S
C2979 H2955 0.951 . S
C2979 C2980 1.366 . S
C2979 C2981 1.388 . S
C2980 C2979 1.366 . S
C2980 C2984 1.385 . S
C2981 H2956 0.951 . S
C2981 C2979 1.388 . S
C2981 C2982 1.366 . S
C2982 C2981 1.366 . S
C2982 C2983 1.414 . S
C2982 C2985 1.499 . S
C2983 H2957 0.950 . S
C2983 C2982 1.414 . S
C2983 C2984 1.374 . S
C2984 H2958 0.950 . S
C2984 C2980 1.385 . S
C2984 C2983 1.374 . S
C2985 C2982 1.499 . S
C2985 C2986 1.373 . S
C2985 C2987 1.389 . S
C2986 H2959 0.950 . S
C2986 C2972 1.377 1_545 S
C2986 C2985 1.373 . S
C2987 C2971 1.377 . S
C2987 C2985 1.389 . S
C2987 C2988 1.524 . S
C2988 C2987 1.524 . S
C2988 C2989 1.397 . S
C2988 C2993 1.363 . S
C2989 H2960 0.950 . S
C2989 C2988 1.397 . S
C2989 C2990 1.334 . S
C2990 H2961 0.950 . S
C2990 C2989 1.334 . S
C2990 C2991 1.287 . S
C2991 C2990 1.287 . S
C2991 C2992 1.524 . S
C2991 H2994 0.999 . S
C2992 H2962 0.950 . S
C2992 C2991 1.524 . S
C2992 C2993 1.415 . S
C2993 H2963 0.950 . S
C2993 C2988 1.363 . S
C2993 C2992 1.415 . S
H2994 C2991 0.999 . S
H2995 C2976 0.913 . S
H2996 C3014 0.951 . S
H2997 C3016 0.951 . S
H2998 C3018 0.950 . S
H2999 C3019 0.950 . S
H3000 C3021 0.950 . S
H3001 C3024 0.950 . S
H3002 C3025 0.950 . S
H3003 C3027 0.950 . S
H3004 C3028 0.950 . S
H3005 C3029 0.951 . S
H3006 C3031 0.951 . S
H3007 C3033 0.950 . S
H3008 C3034 0.950 . S
H3009 C3036 0.950 . S
H3010 C3039 0.913 1_655 S
H3011 C3040 0.950 1_655 S
H3012 C3042 0.950 . S
H3013 C3043 0.950 . S
C3014 H2996 0.951 . S
C3014 C3015 1.366 . S
C3014 C3016 1.388 . S
C3015 C3014 1.366 . S
C3015 C3019 1.385 . S
C3016 H2997 0.951 . S
C3016 C3014 1.388 . S
C3016 C3017 1.366 . S
C3017 C3016 1.366 . S
C3017 C3018 1.414 . S
C3017 C3020 1.499 . S
C3018 H2998 0.950 . S
C3018 C3017 1.414 . S
C3018 C3019 1.374 . S
C3019 H2999 0.950 . S
C3019 C3015 1.385 . S
C3019 C3018 1.374 . S
C3020 C3017 1.499 . S
C3020 C3021 1.373 . S
C3020 C3022 1.389 . S
C3021 H3000 0.950 . S
C3021 C3020 1.373 . S
C3021 C3037 1.377 . S
C3022 C3020 1.389 . S
C3022 C3023 1.524 . S
C3022 C3036 1.377 1_455 S
C3023 C3022 1.524 . S
C3023 C3024 1.397 . S
C3023 C3028 1.363 1_455 S
C3024 H3001 0.950 . S
C3024 C3023 1.397 . S
C3024 C3025 1.334 . S
C3025 H3002 0.950 . S
C3025 C3024 1.334 . S
C3025 C3026 1.287 1_455 S
C3026 C3025 1.287 1_655 S
C3026 C3027 1.524 . S
C3026 H3045 0.913 1_556 S
C3027 H3003 0.950 . S
C3027 C3026 1.524 . S
C3027 C3028 1.415 . S
C3028 H3004 0.950 . S
C3028 C3023 1.363 1_655 S
C3028 C3027 1.415 . S
C3029 H3005 0.951 . S
C3029 C3030 1.366 . S
C3029 C3031 1.388 . S
C3030 C3029 1.366 . S
C3030 C3034 1.385 . S
C3031 H3006 0.951 . S
C3031 C3029 1.388 . S
C3031 C3032 1.366 . S
C3032 C3031 1.366 . S
C3032 C3033 1.414 . S
C3032 C3035 1.499 . S
C3033 H3007 0.950 . S
C3033 C3032 1.414 . S
C3033 C3034 1.374 . S
C3034 H3008 0.950 . S
C3034 C3030 1.385 . S
C3034 C3033 1.374 . S
C3035 C3032 1.499 . S
C3035 C3036 1.373 . S
C3035 C3037 1.389 1_655 S
C3036 H3009 0.950 . S
C3036 C3022 1.377 1_655 S
C3036 C3035 1.373 . S
C3037 C3021 1.377 . S
C3037 C3035 1.389 1_455 S
C3037 C3038 1.524 . S
C3038 C3037 1.524 . S
C3038 C3039 1.432 . S
C3038 C3043 1.363 . S
C3039 H3010 0.913 1_455 S
C3039 C3038 1.432 . S
C3039 C3040 1.336 . S
C3040 H3011 0.950 1_455 S
C3040 C3039 1.336 . S
C3040 C3041 1.287 . S
C3041 C3040 1.287 . S
C3041 C3042 1.524 . S
C3041 H3044 0.999 . S
C3042 H3012 0.950 . S
C3042 C3041 1.524 . S
C3042 C3043 1.415 . S
C3043 H3013 0.950 . S
C3043 C3038 1.363 . S
C3043 C3042 1.415 . S
H3044 C3041 0.999 . S
H3045 C3026 0.913 1_554 S
H3046 C3064 0.951 . S
H3047 C3066 0.951 . S
H3048 C3068 0.950 . S
H3049 C3069 0.950 . S
H3050 C3071 0.950 . S
H3051 C3074 0.950 . S
H3052 C3075 0.950 . S
H3053 C3077 0.950 . S
H3054 C3078 0.950 . S
H3055 C3079 0.951 . S
H3056 C3081 0.951 . S
H3057 C3083 0.950 . S
H3058 C3084 0.950 . S
H3059 C3086 0.950 . S
H3060 C3089 0.950 . S
H3061 C3090 0.950 . S
H3062 C3092 0.950 . S
H3063 C3093 0.950 . S
C3064 H3046 0.951 . S
C3064 C3065 1.366 . S
C3064 C3066 1.388 . S
C3065 C3064 1.366 . S
C3065 C3069 1.385 . S
C3066 H3047 0.951 . S
C3066 C3064 1.388 . S
C3066 C3067 1.366 . S
C3067 C3066 1.366 . S
C3067 C3068 1.414 . S
C3067 C3070 1.499 . S
C3068 H3048 0.950 . S
C3068 C3067 1.414 . S
C3068 C3069 1.374 . S
C3069 H3049 0.950 . S
C3069 C3065 1.385 . S
C3069 C3068 1.374 . S
C3070 C3067 1.499 . S
C3070 C3071 1.373 . S
C3070 C3072 1.389 . S
C3071 H3050 0.950 . S
C3071 C3070 1.373 . S
C3071 C3087 1.377 . S
C3072 C3070 1.389 . S
C3072 C3073 1.524 . S
C3072 C3086 1.377 . S
C3073 C3072 1.524 . S
C3073 C3074 1.397 . S
C3073 C3078 1.363 . S
C3074 H3051 0.950 . S
C3074 C3073 1.397 . S
C3074 C3075 1.334 . S
C3075 H3052 0.950 . S
C3075 C3074 1.334 . S
C3075 C3076 1.287 . S
C3076 C3075 1.287 . S
C3076 C3077 1.524 . S
C3076 H3095 0.913 . S
C3077 H3053 0.950 . S
C3077 C3076 1.524 . S
C3077 C3078 1.415 . S
C3078 H3054 0.950 . S
C3078 C3073 1.363 . S
C3078 C3077 1.415 . S
C3079 H3055 0.951 . S
C3079 C3080 1.366 . S
C3079 C3081 1.388 . S
C3080 C3079 1.366 . S
C3080 C3084 1.385 . S
C3081 H3056 0.951 . S
C3081 C3079 1.388 . S
C3081 C3082 1.366 . S
C3082 C3081 1.366 . S
C3082 C3083 1.414 . S
C3082 C3085 1.499 . S
C3083 H3057 0.950 . S
C3083 C3082 1.414 . S
C3083 C3084 1.374 . S
C3084 H3058 0.950 . S
C3084 C3080 1.385 . S
C3084 C3083 1.374 . S
C3085 C3082 1.499 . S
C3085 C3086 1.373 . S
C3085 C3087 1.389 . S
C3086 H3059 0.950 . S
C3086 C3072 1.377 . S
C3086 C3085 1.373 . S
C3087 C3071 1.377 . S
C3087 C3085 1.389 . S
C3087 C3088 1.524 . S
C3088 C3087 1.524 . S
C3088 C3089 1.397 . S
C3088 C3093 1.363 . S
C3089 H3060 0.950 . S
C3089 C3088 1.397 . S
C3089 C3090 1.334 . S
C3090 H3061 0.950 . S
C3090 C3089 1.334 . S
C3090 C3091 1.287 . S
C3091 C3090 1.287 . S
C3091 C3092 1.524 . S
C3091 H3094 0.999 1_556 S
C3092 H3062 0.950 . S
C3092 C3091 1.524 . S
C3092 C3093 1.415 . S
C3093 H3063 0.950 . S
C3093 C3088 1.363 . S
C3093 C3092 1.415 . S
H3094 C3091 0.999 1_554 S
H3095 C3076 0.913 . S
C415 C4 1.252 . S
C430 C94 1.239 . S
C465 C114 1.238 . S
C480 C28 1.252 . S
C515 C48 1.252 . S
C530 C70 1.238 . S
C565 C51 1.252 . S
C580 C96 1.239 . S
C615 C117 1.239 . S
C630 C7 1.252 . S
C665 C30 1.252 . S
C680 C73 1.239 . S
C715 C31 1.238 . S
C730 C74 1.252 . S
C765 C52 1.238 . S
C780 C97 1.252 . S
C815 C118 1.252 . S
C830 C8 1.239 . S
C865 C115 1.252 . S
C880 C26 1.238 . S
C915 C49 1.238 . S
C930 C71 1.252 . S
C965 C5 1.239 . S
C980 C92 1.252 . S
C1015 C226 1.239 . S
C1030 C136 1.252 . S
C1065 C158 1.252 . S
C1080 C248 1.238 . S
C1115 C180 1.252 . S
C1130 C204 1.238 . S
C1165 C228 1.238 . S
C1180 C183 1.252 . S
C1215 C250 1.239 . S
C1230 C139 1.252 . S
C1265 C206 1.238 . S
C1280 C161 1.252 . S
C1315 C162 1.239 . S
C1330 C207 1.252 . S
C1365 C184 1.238 . S
C1380 C229 1.252 . S
C1415 C140 1.239 . S
C1430 C251 1.252 . S
C1465 C159 1.239 . S
C1480 C246 1.252 . S
C1515 C181 1.239 . S
C1530 C202 1.252 . S
C1565 C224 1.252 . S
C1580 C137 1.239 . S
C1615 C268 1.252 . S
C1630 C358 1.238 . S
C1665 C292 1.252 . S
C1680 C380 1.239 . S
C1715 C334 1.239 . S
C1730 C312 1.252 . S
C1765 C360 1.239 . S
C1780 C315 1.252 . S
C1815 C271 1.252 . S
C1830 C382 1.239 . S
C1865 C294 1.252 . S
C1880 C337 1.239 . S
C1915 C295 1.238 . S
C1930 C338 1.252 . S
C1965 C316 1.239 . S
C1980 C361 1.252 . S
C2015 C272 1.239 . S
C2030 C383 1.252 . S
C2065 C378 1.252 . S
C2080 C290 1.239 . S
C2115 C335 1.252 . S
C2130 C313 1.239 . S
C2165 C269 1.238 . S
C2180 C356 1.252 . S
C2215 C6 1.799 . S
C2230 C293 1.800 . S
C2265 C27 1.799 . S
C2280 C317 1.799 . S
C2315 C50 1.800 . S
C2330 C273 1.799 . S
C2365 C53 1.799 . S
C2380 C160 1.800 . S
C2415 C9 1.800 . S
C2430 C182 1.799 . S
C2465 C29 1.799 . S
C2480 C138 1.800 . S
C2515 C225 1.799 . S
C2530 C75 1.799 . S
C2565 C95 1.799 . S
C2580 C247 1.800 . S
C2615 C119 1.800 . S
C2630 C203 1.800 . S
C2665 C359 1.800 . S
C2680 C116 1.799 . S
C2715 C72 1.799 . S
C2730 C381 1.799 . S
C2765 C93 1.799 . S
C2780 C339 1.799 . S
C2815 C185 1.799 . S
C2830 C291 1.799 . S
C2865 C141 1.799 . S
C2880 C314 1.799 . S
C2915 C270 1.800 . S
C2930 C163 1.800 . S
C2965 C357 1.799 . S
C2980 C205 1.800 . S
C3015 C379 1.799 . S
C3030 C227 1.799 . S
C3065 C249 1.799 . S
C3080 C336 1.799 . S
