# Generated by pormake.
# Topology swa, (7)-cn, num edge types: 1
# Building blocks:
#     Node 0, Type 0, BuildingBlock: NUHQUE_clean_sbu_2, # of connection points: 7
#     Node 1, Type 0, BuildingBlock: NUHQUE_clean_sbu_2, # of connection points: 7
#     Node 2, Type 0, BuildingBlock: NUHQUE_clean_sbu_2, # of connection points: 7
#     Node 3, Type 0, BuildingBlock: NUHQUE_clean_sbu_2, # of connection points: 7
#     Node 4, Type 0, BuildingBlock: NUHQUE_clean_sbu_2, # of connection points: 7
#     Node 5, Type 0, BuildingBlock: NUHQUE_clean_sbu_2, # of connection points: 7
#     Node 6, Type 0, BuildingBlock: NUHQUE_clean_sbu_2, # of connection points: 7
#     Node 7, Type 0, BuildingBlock: NUHQUE_clean_sbu_2, # of connection points: 7
#     Node 8, Type 0, BuildingBlock: NUHQUE_clean_sbu_2, # of connection points: 7
#     Node 9, Type 0, BuildingBlock: NUHQUE_clean_sbu_2, # of connection points: 7
#     Node 10, Type 0, BuildingBlock: NUHQUE_clean_sbu_2, # of connection points: 7
#     Node 11, Type 0, BuildingBlock: NUHQUE_clean_sbu_2, # of connection points: 7
#     Node 12, Type 0, BuildingBlock: NUHQUE_clean_sbu_2, # of connection points: 7
#     Node 13, Type 0, BuildingBlock: NUHQUE_clean_sbu_2, # of connection points: 7
#     Node 14, Type 0, BuildingBlock: NUHQUE_clean_sbu_2, # of connection points: 7
#     Node 15, Type 0, BuildingBlock: NUHQUE_clean_sbu_2, # of connection points: 7
#     Node 16, Type 0, BuildingBlock: NUHQUE_clean_sbu_2, # of connection points: 7
#     Node 17, Type 0, BuildingBlock: NUHQUE_clean_sbu_2, # of connection points: 7
#     Node 18, Type 0, BuildingBlock: NUHQUE_clean_sbu_2, # of connection points: 7
#     Node 19, Type 0, BuildingBlock: NUHQUE_clean_sbu_2, # of connection points: 7
#     Node 20, Type 0, BuildingBlock: NUHQUE_clean_sbu_2, # of connection points: 7
#     Node 21, Type 0, BuildingBlock: NUHQUE_clean_sbu_2, # of connection points: 7
#     Node 22, Type 0, BuildingBlock: NUHQUE_clean_sbu_2, # of connection points: 7
#     Node 23, Type 0, BuildingBlock: NUHQUE_clean_sbu_2, # of connection points: 7
#     Node 24, Type 0, BuildingBlock: NUHQUE_clean_sbu_2, # of connection points: 7
#     Node 25, Type 0, BuildingBlock: NUHQUE_clean_sbu_2, # of connection points: 7
#     Node 26, Type 0, BuildingBlock: NUHQUE_clean_sbu_2, # of connection points: 7
#     Node 27, Type 0, BuildingBlock: NUHQUE_clean_sbu_2, # of connection points: 7
#     Node 28, Type 0, BuildingBlock: NUHQUE_clean_sbu_2, # of connection points: 7
#     Node 29, Type 0, BuildingBlock: NUHQUE_clean_sbu_2, # of connection points: 7
#     Node 30, Type 0, BuildingBlock: NUHQUE_clean_sbu_2, # of connection points: 7
#     Node 31, Type 0, BuildingBlock: NUHQUE_clean_sbu_2, # of connection points: 7
#     Node 32, Type 0, BuildingBlock: NUHQUE_clean_sbu_2, # of connection points: 7
#     Node 33, Type 0, BuildingBlock: NUHQUE_clean_sbu_2, # of connection points: 7
#     Node 34, Type 0, BuildingBlock: NUHQUE_clean_sbu_2, # of connection points: 7
#     Node 35, Type 0, BuildingBlock: NUHQUE_clean_sbu_2, # of connection points: 7
#     Node 36, Type 0, BuildingBlock: NUHQUE_clean_sbu_2, # of connection points: 7
#     Node 37, Type 0, BuildingBlock: NUHQUE_clean_sbu_2, # of connection points: 7
#     Node 38, Type 0, BuildingBlock: NUHQUE_clean_sbu_2, # of connection points: 7
#     Node 39, Type 0, BuildingBlock: NUHQUE_clean_sbu_2, # of connection points: 7
#     Node 40, Type 0, BuildingBlock: NUHQUE_clean_sbu_2, # of connection points: 7
#     Node 41, Type 0, BuildingBlock: NUHQUE_clean_sbu_2, # of connection points: 7
#     Node 42, Type 0, BuildingBlock: NUHQUE_clean_sbu_2, # of connection points: 7
#     Node 43, Type 0, BuildingBlock: NUHQUE_clean_sbu_2, # of connection points: 7
#     Node 44, Type 0, BuildingBlock: NUHQUE_clean_sbu_2, # of connection points: 7
#     Node 45, Type 0, BuildingBlock: NUHQUE_clean_sbu_2, # of connection points: 7
#     Node 46, Type 0, BuildingBlock: NUHQUE_clean_sbu_2, # of connection points: 7
#     Node 47, Type 0, BuildingBlock: NUHQUE_clean_sbu_2, # of connection points: 7
#     Edge 48, Type (0, 0), BuildingBlock: AJUNOK_clean_linker_0, # of connection points: 2
#     Edge 49, Type (0, 0), BuildingBlock: AJUNOK_clean_linker_0, # of connection points: 2
#     Edge 50, Type (0, 0), BuildingBlock: AJUNOK_clean_linker_0, # of connection points: 2
#     Edge 51, Type (0, 0), BuildingBlock: AJUNOK_clean_linker_0, # of connection points: 2
#     Edge 52, Type (0, 0), BuildingBlock: AJUNOK_clean_linker_0, # of connection points: 2
#     Edge 53, Type (0, 0), BuildingBlock: AJUNOK_clean_linker_0, # of connection points: 2
#     Edge 54, Type (0, 0), BuildingBlock: AJUNOK_clean_linker_0, # of connection points: 2
#     Edge 55, Type (0, 0), BuildingBlock: AJUNOK_clean_linker_0, # of connection points: 2
#     Edge 56, Type (0, 0), BuildingBlock: AJUNOK_clean_linker_0, # of connection points: 2
#     Edge 57, Type (0, 0), BuildingBlock: AJUNOK_clean_linker_0, # of connection points: 2
#     Edge 58, Type (0, 0), BuildingBlock: AJUNOK_clean_linker_0, # of connection points: 2
#     Edge 59, Type (0, 0), BuildingBlock: AJUNOK_clean_linker_0, # of connection points: 2
#     Edge 60, Type (0, 0), BuildingBlock: AJUNOK_clean_linker_0, # of connection points: 2
#     Edge 61, Type (0, 0), BuildingBlock: AJUNOK_clean_linker_0, # of connection points: 2
#     Edge 62, Type (0, 0), BuildingBlock: AJUNOK_clean_linker_0, # of connection points: 2
#     Edge 63, Type (0, 0), BuildingBlock: AJUNOK_clean_linker_0, # of connection points: 2
#     Edge 64, Type (0, 0), BuildingBlock: AJUNOK_clean_linker_0, # of connection points: 2
#     Edge 65, Type (0, 0), BuildingBlock: AJUNOK_clean_linker_0, # of connection points: 2
#     Edge 66, Type (0, 0), BuildingBlock: AJUNOK_clean_linker_0, # of connection points: 2
#     Edge 67, Type (0, 0), BuildingBlock: AJUNOK_clean_linker_0, # of connection points: 2
#     Edge 68, Type (0, 0), BuildingBlock: AJUNOK_clean_linker_0, # of connection points: 2
#     Edge 69, Type (0, 0), BuildingBlock: AJUNOK_clean_linker_0, # of connection points: 2
#     Edge 70, Type (0, 0), BuildingBlock: AJUNOK_clean_linker_0, # of connection points: 2
#     Edge 71, Type (0, 0), BuildingBlock: AJUNOK_clean_linker_0, # of connection points: 2
#     Edge 72, Type (0, 0), BuildingBlock: AJUNOK_clean_linker_0, # of connection points: 2
#     Edge 73, Type (0, 0), BuildingBlock: AJUNOK_clean_linker_0, # of connection points: 2
#     Edge 74, Type (0, 0), BuildingBlock: AJUNOK_clean_linker_0, # of connection points: 2
#     Edge 75, Type (0, 0), BuildingBlock: AJUNOK_clean_linker_0, # of connection points: 2
#     Edge 76, Type (0, 0), BuildingBlock: AJUNOK_clean_linker_0, # of connection points: 2
#     Edge 77, Type (0, 0), BuildingBlock: AJUNOK_clean_linker_0, # of connection points: 2
#     Edge 78, Type (0, 0), BuildingBlock: AJUNOK_clean_linker_0, # of connection points: 2
#     Edge 79, Type (0, 0), BuildingBlock: AJUNOK_clean_linker_0, # of connection points: 2
#     Edge 80, Type (0, 0), BuildingBlock: AJUNOK_clean_linker_0, # of connection points: 2
#     Edge 81, Type (0, 0), BuildingBlock: AJUNOK_clean_linker_0, # of connection points: 2
#     Edge 82, Type (0, 0), BuildingBlock: AJUNOK_clean_linker_0, # of connection points: 2
#     Edge 83, Type (0, 0), BuildingBlock: AJUNOK_clean_linker_0, # of connection points: 2
#     Edge 84, Type (0, 0), BuildingBlock: AJUNOK_clean_linker_0, # of connection points: 2
#     Edge 85, Type (0, 0), BuildingBlock: AJUNOK_clean_linker_0, # of connection points: 2
#     Edge 86, Type (0, 0), BuildingBlock: AJUNOK_clean_linker_0, # of connection points: 2
#     Edge 87, Type (0, 0), BuildingBlock: AJUNOK_clean_linker_0, # of connection points: 2
#     Edge 88, Type (0, 0), BuildingBlock: AJUNOK_clean_linker_0, # of connection points: 2
#     Edge 89, Type (0, 0), BuildingBlock: AJUNOK_clean_linker_0, # of connection points: 2
#     Edge 90, Type (0, 0), BuildingBlock: AJUNOK_clean_linker_0, # of connection points: 2
#     Edge 91, Type (0, 0), BuildingBlock: AJUNOK_clean_linker_0, # of connection points: 2
#     Edge 92, Type (0, 0), BuildingBlock: AJUNOK_clean_linker_0, # of connection points: 2
#     Edge 93, Type (0, 0), BuildingBlock: AJUNOK_clean_linker_0, # of connection points: 2
#     Edge 94, Type (0, 0), BuildingBlock: AJUNOK_clean_linker_0, # of connection points: 2
#     Edge 95, Type (0, 0), BuildingBlock: AJUNOK_clean_linker_0, # of connection points: 2
#     Edge 96, Type (0, 0), BuildingBlock: AJUNOK_clean_linker_0, # of connection points: 2
#     Edge 97, Type (0, 0), BuildingBlock: AJUNOK_clean_linker_0, # of connection points: 2
#     Edge 98, Type (0, 0), BuildingBlock: AJUNOK_clean_linker_0, # of connection points: 2
#     Edge 99, Type (0, 0), BuildingBlock: AJUNOK_clean_linker_0, # of connection points: 2
#     Edge 100, Type (0, 0), BuildingBlock: AJUNOK_clean_linker_0, # of connection points: 2
#     Edge 101, Type (0, 0), BuildingBlock: AJUNOK_clean_linker_0, # of connection points: 2
#     Edge 102, Type (0, 0), BuildingBlock: AJUNOK_clean_linker_0, # of connection points: 2
#     Edge 103, Type (0, 0), BuildingBlock: AJUNOK_clean_linker_0, # of connection points: 2
#     Edge 104, Type (0, 0), BuildingBlock: AJUNOK_clean_linker_0, # of connection points: 2
#     Edge 105, Type (0, 0), BuildingBlock: AJUNOK_clean_linker_0, # of connection points: 2
#     Edge 106, Type (0, 0), BuildingBlock: AJUNOK_clean_linker_0, # of connection points: 2
#     Edge 107, Type (0, 0), BuildingBlock: AJUNOK_clean_linker_0, # of connection points: 2
#     Edge 108, Type (0, 0), BuildingBlock: AJUNOK_clean_linker_0, # of connection points: 2
#     Edge 109, Type (0, 0), BuildingBlock: AJUNOK_clean_linker_0, # of connection points: 2
#     Edge 110, Type (0, 0), BuildingBlock: AJUNOK_clean_linker_0, # of connection points: 2
#     Edge 111, Type (0, 0), BuildingBlock: AJUNOK_clean_linker_0, # of connection points: 2
#     Edge 112, Type (0, 0), BuildingBlock: AJUNOK_clean_linker_0, # of connection points: 2
#     Edge 113, Type (0, 0), BuildingBlock: AJUNOK_clean_linker_0, # of connection points: 2
#     Edge 114, Type (0, 0), BuildingBlock: AJUNOK_clean_linker_0, # of connection points: 2
#     Edge 115, Type (0, 0), BuildingBlock: AJUNOK_clean_linker_0, # of connection points: 2
#     Edge 116, Type (0, 0), BuildingBlock: AJUNOK_clean_linker_0, # of connection points: 2
#     Edge 117, Type (0, 0), BuildingBlock: AJUNOK_clean_linker_0, # of connection points: 2
#     Edge 118, Type (0, 0), BuildingBlock: AJUNOK_clean_linker_0, # of connection points: 2
#     Edge 119, Type (0, 0), BuildingBlock: AJUNOK_clean_linker_0, # of connection points: 2
#     Edge 120, Type (0, 0), BuildingBlock: AJUNOK_clean_linker_0, # of connection points: 2
#     Edge 121, Type (0, 0), BuildingBlock: AJUNOK_clean_linker_0, # of connection points: 2
#     Edge 122, Type (0, 0), BuildingBlock: AJUNOK_clean_linker_0, # of connection points: 2
#     Edge 123, Type (0, 0), BuildingBlock: AJUNOK_clean_linker_0, # of connection points: 2
#     Edge 124, Type (0, 0), BuildingBlock: AJUNOK_clean_linker_0, # of connection points: 2
#     Edge 125, Type (0, 0), BuildingBlock: AJUNOK_clean_linker_0, # of connection points: 2
#     Edge 126, Type (0, 0), BuildingBlock: AJUNOK_clean_linker_0, # of connection points: 2
#     Edge 127, Type (0, 0), BuildingBlock: AJUNOK_clean_linker_0, # of connection points: 2
#     Edge 128, Type (0, 0), BuildingBlock: AJUNOK_clean_linker_0, # of connection points: 2
#     Edge 129, Type (0, 0), BuildingBlock: AJUNOK_clean_linker_0, # of connection points: 2
#     Edge 130, Type (0, 0), BuildingBlock: AJUNOK_clean_linker_0, # of connection points: 2
#     Edge 131, Type (0, 0), BuildingBlock: AJUNOK_clean_linker_0, # of connection points: 2
#     Edge 132, Type (0, 0), BuildingBlock: AJUNOK_clean_linker_0, # of connection points: 2
#     Edge 133, Type (0, 0), BuildingBlock: AJUNOK_clean_linker_0, # of connection points: 2
#     Edge 134, Type (0, 0), BuildingBlock: AJUNOK_clean_linker_0, # of connection points: 2
#     Edge 135, Type (0, 0), BuildingBlock: AJUNOK_clean_linker_0, # of connection points: 2
#     Edge 136, Type (0, 0), BuildingBlock: AJUNOK_clean_linker_0, # of connection points: 2
#     Edge 137, Type (0, 0), BuildingBlock: AJUNOK_clean_linker_0, # of connection points: 2
#     Edge 138, Type (0, 0), BuildingBlock: AJUNOK_clean_linker_0, # of connection points: 2
#     Edge 139, Type (0, 0), BuildingBlock: AJUNOK_clean_linker_0, # of connection points: 2
#     Edge 140, Type (0, 0), BuildingBlock: AJUNOK_clean_linker_0, # of connection points: 2
#     Edge 141, Type (0, 0), BuildingBlock: AJUNOK_clean_linker_0, # of connection points: 2
#     Edge 142, Type (0, 0), BuildingBlock: AJUNOK_clean_linker_0, # of connection points: 2
#     Edge 143, Type (0, 0), BuildingBlock: AJUNOK_clean_linker_0, # of connection points: 2
#     Edge 144, Type (0, 0), BuildingBlock: AJUNOK_clean_linker_0, # of connection points: 2
#     Edge 145, Type (0, 0), BuildingBlock: AJUNOK_clean_linker_0, # of connection points: 2
#     Edge 146, Type (0, 0), BuildingBlock: AJUNOK_clean_linker_0, # of connection points: 2
#     Edge 147, Type (0, 0), BuildingBlock: AJUNOK_clean_linker_0, # of connection points: 2
#     Edge 148, Type (0, 0), BuildingBlock: AJUNOK_clean_linker_0, # of connection points: 2
#     Edge 149, Type (0, 0), BuildingBlock: AJUNOK_clean_linker_0, # of connection points: 2
#     Edge 150, Type (0, 0), BuildingBlock: AJUNOK_clean_linker_0, # of connection points: 2
#     Edge 151, Type (0, 0), BuildingBlock: AJUNOK_clean_linker_0, # of connection points: 2
#     Edge 152, Type (0, 0), BuildingBlock: AJUNOK_clean_linker_0, # of connection points: 2
#     Edge 153, Type (0, 0), BuildingBlock: AJUNOK_clean_linker_0, # of connection points: 2
#     Edge 154, Type (0, 0), BuildingBlock: AJUNOK_clean_linker_0, # of connection points: 2
#     Edge 155, Type (0, 0), BuildingBlock: AJUNOK_clean_linker_0, # of connection points: 2
#     Edge 156, Type (0, 0), BuildingBlock: AJUNOK_clean_linker_0, # of connection points: 2
#     Edge 157, Type (0, 0), BuildingBlock: AJUNOK_clean_linker_0, # of connection points: 2
#     Edge 158, Type (0, 0), BuildingBlock: AJUNOK_clean_linker_0, # of connection points: 2
#     Edge 159, Type (0, 0), BuildingBlock: AJUNOK_clean_linker_0, # of connection points: 2
#     Edge 160, Type (0, 0), BuildingBlock: AJUNOK_clean_linker_0, # of connection points: 2
#     Edge 161, Type (0, 0), BuildingBlock: AJUNOK_clean_linker_0, # of connection points: 2
#     Edge 162, Type (0, 0), BuildingBlock: AJUNOK_clean_linker_0, # of connection points: 2
#     Edge 163, Type (0, 0), BuildingBlock: AJUNOK_clean_linker_0, # of connection points: 2
#     Edge 164, Type (0, 0), BuildingBlock: AJUNOK_clean_linker_0, # of connection points: 2
#     Edge 165, Type (0, 0), BuildingBlock: AJUNOK_clean_linker_0, # of connection points: 2
#     Edge 166, Type (0, 0), BuildingBlock: AJUNOK_clean_linker_0, # of connection points: 2
#     Edge 167, Type (0, 0), BuildingBlock: AJUNOK_clean_linker_0, # of connection points: 2
#     Edge 168, Type (0, 0), BuildingBlock: AJUNOK_clean_linker_0, # of connection points: 2
#     Edge 169, Type (0, 0), BuildingBlock: AJUNOK_clean_linker_0, # of connection points: 2
#     Edge 170, Type (0, 0), BuildingBlock: AJUNOK_clean_linker_0, # of connection points: 2
#     Edge 171, Type (0, 0), BuildingBlock: AJUNOK_clean_linker_0, # of connection points: 2
#     Edge 172, Type (0, 0), BuildingBlock: AJUNOK_clean_linker_0, # of connection points: 2
#     Edge 173, Type (0, 0), BuildingBlock: AJUNOK_clean_linker_0, # of connection points: 2
#     Edge 174, Type (0, 0), BuildingBlock: AJUNOK_clean_linker_0, # of connection points: 2
#     Edge 175, Type (0, 0), BuildingBlock: AJUNOK_clean_linker_0, # of connection points: 2
#     Edge 176, Type (0, 0), BuildingBlock: AJUNOK_clean_linker_0, # of connection points: 2
#     Edge 177, Type (0, 0), BuildingBlock: AJUNOK_clean_linker_0, # of connection points: 2
#     Edge 178, Type (0, 0), BuildingBlock: AJUNOK_clean_linker_0, # of connection points: 2
#     Edge 179, Type (0, 0), BuildingBlock: AJUNOK_clean_linker_0, # of connection points: 2
#     Edge 180, Type (0, 0), BuildingBlock: AJUNOK_clean_linker_0, # of connection points: 2
#     Edge 181, Type (0, 0), BuildingBlock: AJUNOK_clean_linker_0, # of connection points: 2
#     Edge 182, Type (0, 0), BuildingBlock: AJUNOK_clean_linker_0, # of connection points: 2
#     Edge 183, Type (0, 0), BuildingBlock: AJUNOK_clean_linker_0, # of connection points: 2
#     Edge 184, Type (0, 0), BuildingBlock: AJUNOK_clean_linker_0, # of connection points: 2
#     Edge 185, Type (0, 0), BuildingBlock: AJUNOK_clean_linker_0, # of connection points: 2
#     Edge 186, Type (0, 0), BuildingBlock: AJUNOK_clean_linker_0, # of connection points: 2
#     Edge 187, Type (0, 0), BuildingBlock: AJUNOK_clean_linker_0, # of connection points: 2
#     Edge 188, Type (0, 0), BuildingBlock: AJUNOK_clean_linker_0, # of connection points: 2
#     Edge 189, Type (0, 0), BuildingBlock: AJUNOK_clean_linker_0, # of connection points: 2
#     Edge 190, Type (0, 0), BuildingBlock: AJUNOK_clean_linker_0, # of connection points: 2
#     Edge 191, Type (0, 0), BuildingBlock: AJUNOK_clean_linker_0, # of connection points: 2
#     Edge 192, Type (0, 0), BuildingBlock: AJUNOK_clean_linker_0, # of connection points: 2
#     Edge 193, Type (0, 0), BuildingBlock: AJUNOK_clean_linker_0, # of connection points: 2
#     Edge 194, Type (0, 0), BuildingBlock: AJUNOK_clean_linker_0, # of connection points: 2
#     Edge 195, Type (0, 0), BuildingBlock: AJUNOK_clean_linker_0, # of connection points: 2
#     Edge 196, Type (0, 0), BuildingBlock: AJUNOK_clean_linker_0, # of connection points: 2
#     Edge 197, Type (0, 0), BuildingBlock: AJUNOK_clean_linker_0, # of connection points: 2
#     Edge 198, Type (0, 0), BuildingBlock: AJUNOK_clean_linker_0, # of connection points: 2
#     Edge 199, Type (0, 0), BuildingBlock: AJUNOK_clean_linker_0, # of connection points: 2
#     Edge 200, Type (0, 0), BuildingBlock: AJUNOK_clean_linker_0, # of connection points: 2
#     Edge 201, Type (0, 0), BuildingBlock: AJUNOK_clean_linker_0, # of connection points: 2
#     Edge 202, Type (0, 0), BuildingBlock: AJUNOK_clean_linker_0, # of connection points: 2
#     Edge 203, Type (0, 0), BuildingBlock: AJUNOK_clean_linker_0, # of connection points: 2
#     Edge 204, Type (0, 0), BuildingBlock: AJUNOK_clean_linker_0, # of connection points: 2
#     Edge 205, Type (0, 0), BuildingBlock: AJUNOK_clean_linker_0, # of connection points: 2
#     Edge 206, Type (0, 0), BuildingBlock: AJUNOK_clean_linker_0, # of connection points: 2
#     Edge 207, Type (0, 0), BuildingBlock: AJUNOK_clean_linker_0, # of connection points: 2
#     Edge 208, Type (0, 0), BuildingBlock: AJUNOK_clean_linker_0, # of connection points: 2
#     Edge 209, Type (0, 0), BuildingBlock: AJUNOK_clean_linker_0, # of connection points: 2
#     Edge 210, Type (0, 0), BuildingBlock: AJUNOK_clean_linker_0, # of connection points: 2
#     Edge 211, Type (0, 0), BuildingBlock: AJUNOK_clean_linker_0, # of connection points: 2
#     Edge 212, Type (0, 0), BuildingBlock: AJUNOK_clean_linker_0, # of connection points: 2
#     Edge 213, Type (0, 0), BuildingBlock: AJUNOK_clean_linker_0, # of connection points: 2
#     Edge 214, Type (0, 0), BuildingBlock: AJUNOK_clean_linker_0, # of connection points: 2
#     Edge 215, Type (0, 0), BuildingBlock: AJUNOK_clean_linker_0, # of connection points: 2
# Relax obj value: 0.262
# Max RMSD: 0.246
# Mean RMSD: 0.246
data_MOF--net-swa--node1-NUHQUE_clean_sbu_2--edge1-AJUNOK_clean_linker_0
_symmetry_space_group_name_H-M    P1
_symmetry_Int_Tables_number       1
_symmetry_cell_setting            triclinic
loop_
_symmetry_equiv_pos_as_xyz
'x, y, z'
_cell_length_a     55.756018
_cell_length_b     55.759915
_cell_length_c     55.778964
_cell_angle_alpha  90.002018
_cell_angle_beta   89.984515
_cell_angle_gamma 90.001988
loop_
_atom_site_label
_atom_site_type_symbol
_atom_site_fract_x
_atom_site_fract_y
_atom_site_fract_z
_atom_type_partial_charge
O0 O 0.12001 0.6447 0.11849 0.0
Tb1 Tb 0.08794 0.65293 0.09798 0.0
Eu2 Eu 0.07854 0.66996 0.15924 0.0
C3 C 0.13861 0.6585 0.1141 0.0
O4 O 0.13625 0.67578 0.09827 0.0
C5 C 0.09685 0.70348 0.1179 0.0
O6 O 0.04644 0.69457 0.15984 0.0
C7 C 0.09409 0.66434 0.20279 0.0
C8 C 0.03458 0.69947 0.14009 0.0
O9 O 0.04079 0.68867 0.12016 0.0
C10 C 0.04516 0.63276 0.12904 0.0
C11 C 0.08635 0.65292 0.22536 0.0
C12 C 0.10336 0.64862 0.24353 0.0
C13 C 0.09597 0.64025 0.26613 0.0
C14 C 0.07159 0.63571 0.27013 0.0
C15 C 0.05438 0.64097 0.25273 0.0
C16 C 0.06177 0.64929 0.23015 0.0
O17 O 0.08497 0.69132 0.10169 0.0
O18 O 0.10384 0.69304 0.13782 0.0
O19 O 0.09534 0.62825 0.06812 0.0
O20 O 0.09344 0.6655 0.0612 0.0
C21 C 0.09707 0.64463 0.05155 0.0
O22 O 0.05726 0.63693 0.14894 0.0
O23 O 0.05258 0.64012 0.10787 0.0
O24 O 0.08117 0.68274 0.19578 0.0
O25 O 0.10051 0.65016 0.18503 0.0
H26 H 0.12206 0.65306 0.24056 0.0
H27 H 0.06564 0.63061 0.28796 0.0
H28 H 0.04843 0.65395 0.21681 0.0
O29 O 0.86145 0.12405 0.11868 0.0
Tb30 Tb 0.85441 0.09018 0.10058 0.0
Eu31 Eu 0.83488 0.08048 0.16283 0.0
C32 C 0.84741 0.14212 0.11281 0.0
O33 O 0.82951 0.13803 0.09808 0.0
C34 C 0.80403 0.09796 0.1205 0.0
O35 O 0.8082 0.04996 0.16271 0.0
C36 C 0.8404 0.09645 0.2063 0.0
C37 C 0.8047 0.03733 0.14309 0.0
O38 O 0.81794 0.04193 0.12421 0.0
C39 C 0.87322 0.04644 0.13304 0.0
C40 C 0.84954 0.08746 0.2295 0.0
C41 C 0.85798 0.1037 0.24701 0.0
C42 C 0.86527 0.0952 0.26961 0.0
C43 C 0.86369 0.07071 0.27465 0.0
C44 C 0.85422 0.05458 0.25797 0.0
C45 C 0.84786 0.06284 0.2351 0.0
O46 O 0.81608 0.08627 0.10411 0.0
O47 O 0.81508 0.10648 0.1394 0.0
O48 O 0.87919 0.09827 0.071 0.0
O49 O 0.84254 0.09251 0.06323 0.0
C50 C 0.86326 0.09765 0.05394 0.0
O51 O 0.86591 0.05605 0.15346 0.0
O52 O 0.86892 0.05573 0.11167 0.0
O53 O 0.82067 0.08618 0.19851 0.0
O54 O 0.85619 0.10034 0.18918 0.0
H55 H 0.85846 0.12277 0.24326 0.0
H56 H 0.8689 0.06427 0.29227 0.0
H57 H 0.84056 0.05034 0.22211 0.0
O58 O 0.3804 0.86995 0.11052 0.0
Tb59 Tb 0.41432 0.85407 0.09869 0.0
Eu60 Eu 0.42293 0.83576 0.16058 0.0
C61 C 0.36818 0.86484 0.13005 0.0
O62 O 0.37826 0.85281 0.14743 0.0
C63 C 0.40399 0.80356 0.11836 0.0
O64 O 0.4588 0.81748 0.15847 0.0
C65 C 0.40946 0.8378 0.20503 0.0
C66 C 0.46107 0.79433 0.15454 0.0
O67 O 0.44189 0.78108 0.15123 0.0
C68 C 0.4548 0.87402 0.13213 0.0
C69 C 0.41834 0.84687 0.22811 0.0
C70 C 0.40171 0.85399 0.2457 0.0
C71 C 0.40967 0.86077 0.26857 0.0
C72 C 0.43427 0.86061 0.27354 0.0
C73 C 0.45083 0.85196 0.2568 0.0
C74 C 0.44296 0.84596 0.23371 0.0
O75 O 0.41809 0.81585 0.10421 0.0
O76 O 0.39787 0.81223 0.13927 0.0
O77 O 0.41812 0.8743 0.06511 0.0
O78 O 0.40623 0.83827 0.06388 0.0
C79 C 0.41101 0.85706 0.05105 0.0
O80 O 0.43994 0.87123 0.1503 0.0
O81 O 0.44941 0.8659 0.11066 0.0
O82 O 0.42128 0.81961 0.1958 0.0
O83 O 0.40303 0.8539 0.18907 0.0
H84 H 0.38264 0.85311 0.24201 0.0
H85 H 0.44039 0.86507 0.29147 0.0
H86 H 0.45573 0.83922 0.22067 0.0
O87 O 0.64371 0.38417 0.11564 0.0
Tb88 Tb 0.65132 0.41758 0.09709 0.0
Eu89 Eu 0.6686 0.4239 0.15778 0.0
C90 C 0.65674 0.36568 0.10896 0.0
O91 O 0.67321 0.36891 0.09243 0.0
C92 C 0.70141 0.40571 0.11654 0.0
O93 O 0.69359 0.45572 0.15613 0.0
C94 C 0.66491 0.40904 0.20172 0.0
C95 C 0.69636 0.46813 0.13628 0.0
O96 O 0.68317 0.4628 0.1176 0.0
C97 C 0.62948 0.45764 0.13051 0.0
C98 C 0.65307 0.41745 0.22375 0.0
C99 C 0.65076 0.40187 0.24352 0.0
C100 C 0.64168 0.41053 0.26536 0.0
C101 C 0.63383 0.4343 0.26685 0.0
C102 C 0.63722 0.45025 0.24783 0.0
C103 C 0.64666 0.44178 0.22614 0.0
O104 O 0.68983 0.41906 0.10108 0.0
O105 O 0.69064 0.39815 0.136 0.0
O106 O 0.62854 0.40696 0.06674 0.0
O107 O 0.66433 0.41774 0.06017 0.0
C108 C 0.64481 0.40993 0.05023 0.0
O109 O 0.63462 0.44448 0.14946 0.0
O110 O 0.63626 0.45159 0.10869 0.0
O111 O 0.68253 0.42264 0.19399 0.0
O112 O 0.65086 0.4013 0.1844 0.0
H113 H 0.65735 0.38362 0.24235 0.0
H114 H 0.62741 0.4411 0.28393 0.0
H115 H 0.64996 0.45425 0.2116 0.0
O116 O 0.12942 0.87267 0.38787 0.0
Tb117 Tb 0.09871 0.85343 0.40284 0.0
Eu118 Eu 0.08595 0.8332 0.34106 0.0
C119 C 0.14287 0.86572 0.36977 0.0
O120 O 0.13514 0.84903 0.35526 0.0
C121 C 0.10778 0.80167 0.38274 0.0
O122 O 0.05312 0.80963 0.34308 0.0
C123 C 0.09963 0.83768 0.2967 0.0
C124 C 0.04349 0.80467 0.36402 0.0
O125 O 0.05261 0.81462 0.38322 0.0
C126 C 0.05366 0.86981 0.37237 0.0
C127 C 0.09093 0.84849 0.27422 0.0
C128 C 0.10742 0.8554 0.25631 0.0
C129 C 0.0991 0.86476 0.23444 0.0
C130 C 0.0744 0.86695 0.23063 0.0
C131 C 0.05789 0.85944 0.24792 0.0
C132 C 0.06613 0.85045 0.26985 0.0
O133 O 0.09732 0.81472 0.39925 0.0
O134 O 0.11222 0.81022 0.36136 0.0
O135 O 0.11112 0.83896 0.437 0.0
O136 O 0.09508 0.8733 0.43682 0.0
C137 C 0.10491 0.85696 0.45031 0.0
O138 O 0.06591 0.86677 0.35234 0.0
O139 O 0.06209 0.86312 0.39341 0.0
O140 O 0.08712 0.81942 0.30478 0.0
O141 O 0.10647 0.85249 0.31373 0.0
H142 H 0.12651 0.85309 0.25919 0.0
H143 H 0.06792 0.87321 0.21338 0.0
H144 H 0.0533 0.84454 0.28321 0.0
O145 O 0.65239 0.12298 0.37745 0.0
Tb146 Tb 0.65601 0.09024 0.39833 0.0
Eu147 Eu 0.67822 0.08328 0.33937 0.0
C148 C 0.63155 0.13367 0.37471 0.0
O149 O 0.61204 0.12188 0.38065 0.0
C150 C 0.70745 0.10113 0.3834 0.0
O151 O 0.70585 0.05358 0.3403 0.0
C152 C 0.67262 0.10039 0.29646 0.0
C153 C 0.70781 0.04049 0.35984 0.0
O154 O 0.69272 0.04437 0.37745 0.0
C155 C 0.6379 0.0477 0.36484 0.0
C156 C 0.66089 0.09211 0.27426 0.0
C157 C 0.65478 0.10862 0.25608 0.0
C158 C 0.64418 0.10047 0.23469 0.0
C159 C 0.64004 0.07592 0.23163 0.0
C160 C 0.64672 0.05928 0.24914 0.0
C161 C 0.65687 0.06742 0.27063 0.0
O162 O 0.6946 0.08803 0.39804 0.0
O163 O 0.69797 0.10903 0.36339 0.0
O164 O 0.63091 0.10336 0.42575 0.0
O165 O 0.66435 0.08914 0.43666 0.0
C166 C 0.6445 0.09874 0.44416 0.0
O167 O 0.64766 0.05729 0.34552 0.0
O168 O 0.64058 0.05652 0.38661 0.0
O169 O 0.69155 0.08801 0.30316 0.0
O170 O 0.65831 0.10594 0.31443 0.0
H171 H 0.65857 0.12754 0.2584 0.0
H172 H 0.63294 0.06952 0.21467 0.0
H173 H 0.6621 0.05456 0.28424 0.0
O174 O 0.38079 0.64516 0.38444 0.0
Tb175 Tb 0.4135 0.65379 0.40381 0.0
Eu176 Eu 0.42292 0.67218 0.34157 0.0
C177 C 0.36193 0.65842 0.38948 0.0
O178 O 0.36457 0.67637 0.4045 0.0
C179 C 0.40367 0.70372 0.38325 0.0
O180 O 0.45419 0.69807 0.34173 0.0
C181 C 0.40722 0.6664 0.29795 0.0
C182 C 0.46618 0.70186 0.3617 0.0
O183 O 0.46024 0.68958 0.38084 0.0
C184 C 0.4573 0.63475 0.37206 0.0
C185 C 0.41654 0.65766 0.27472 0.0
C186 C 0.40065 0.6503 0.25637 0.0
C187 C 0.40969 0.64374 0.2337 0.0
C188 C 0.43438 0.64499 0.22955 0.0
C189 C 0.45018 0.65328 0.24716 0.0
C190 C 0.44132 0.65899 0.26996 0.0
O191 O 0.416 0.69218 0.39954 0.0
O192 O 0.39628 0.69255 0.36394 0.0
O193 O 0.40461 0.6301 0.43418 0.0
O194 O 0.41008 0.66702 0.4406 0.0
C195 C 0.40461 0.64672 0.4506 0.0
O196 O 0.44685 0.6408 0.35162 0.0
O197 O 0.44848 0.64002 0.39341 0.0
O198 O 0.41705 0.6863 0.30587 0.0
O199 O 0.40381 0.65042 0.315 0.0
H200 H 0.38147 0.65016 0.25953 0.0
H201 H 0.44127 0.64057 0.21188 0.0
H202 H 0.45348 0.66571 0.28356 0.0
O203 O 0.87008 0.38005 0.38538 0.0
Tb204 Tb 0.85338 0.41197 0.40112 0.0
Eu205 Eu 0.83644 0.42596 0.33811 0.0
C206 C 0.86008 0.36618 0.36909 0.0
O207 O 0.84212 0.37439 0.35651 0.0
C208 C 0.80106 0.40257 0.37856 0.0
O209 O 0.81679 0.46118 0.33809 0.0
C210 C 0.84287 0.41096 0.29451 0.0
C211 C 0.80779 0.46916 0.35835 0.0
O212 O 0.81237 0.45727 0.37812 0.0
C213 C 0.87117 0.45597 0.37093 0.0
C214 C 0.85623 0.41766 0.27275 0.0
C215 C 0.85997 0.40044 0.25468 0.0
C216 C 0.86924 0.40735 0.23226 0.0
C217 C 0.87493 0.43153 0.22831 0.0
C218 C 0.87014 0.44897 0.24567 0.0
C219 C 0.86147 0.4419 0.26816 0.0
O220 O 0.81478 0.40755 0.39712 0.0
O221 O 0.80749 0.40445 0.356 0.0
O222 O 0.87638 0.40699 0.43292 0.0
O223 O 0.83888 0.40816 0.43739 0.0
C224 C 0.8591 0.40542 0.44853 0.0
O225 O 0.87092 0.44122 0.35259 0.0
O226 O 0.86285 0.44893 0.39188 0.0
O227 O 0.82586 0.42597 0.30088 0.0
O228 O 0.85517 0.40249 0.31278 0.0
H229 H 0.85419 0.38208 0.25745 0.0
H230 H 0.88024 0.43727 0.21049 0.0
H231 H 0.85711 0.45543 0.28141 0.0
O232 O 0.11867 0.11957 0.64478 0.0
Tb233 Tb 0.09968 0.0868 0.65398 0.0
Eu234 Eu 0.16307 0.07935 0.66785 0.0
C235 C 0.11412 0.1383 0.65837 0.0
O236 O 0.09976 0.13551 0.67683 0.0
C237 C 0.12289 0.09625 0.70293 0.0
O238 O 0.16611 0.047 0.69213 0.0
C239 C 0.20559 0.09702 0.65989 0.0
C240 C 0.14683 0.03452 0.69751 0.0
O241 O 0.12635 0.04068 0.68776 0.0
C242 C 0.13143 0.04455 0.63244 0.0
C243 C 0.22827 0.08926 0.64864 0.0
C244 C 0.24629 0.10618 0.643 0.0
C245 C 0.26845 0.0984 0.6337 0.0
C246 C 0.27244 0.07387 0.6304 0.0
C247 C 0.25524 0.05695 0.63702 0.0
C248 C 0.23298 0.06462 0.64577 0.0
O249 O 0.10582 0.08419 0.69219 0.0
O250 O 0.14129 0.10444 0.69079 0.0
O251 O 0.06883 0.09503 0.63069 0.0
O252 O 0.06307 0.09049 0.66783 0.0
C253 C 0.05269 0.09543 0.64757 0.0
O254 O 0.1515 0.05671 0.63604 0.0
O255 O 0.11027 0.05189 0.64015 0.0
O256 O 0.19964 0.08541 0.6795 0.0
O257 O 0.1872 0.10089 0.64559 0.0
H258 H 0.24333 0.12509 0.64638 0.0
H259 H 0.28995 0.06778 0.62441 0.0
H260 H 0.21975 0.05144 0.65121 0.0
O261 O 0.3781 0.12035 0.64716 0.0
Tb262 Tb 0.41093 0.09954 0.65149 0.0
Eu263 Eu 0.4209 0.15932 0.67257 0.0
C264 C 0.36636 0.1209 0.62672 0.0
O265 O 0.37709 0.11269 0.60742 0.0
C266 C 0.40062 0.11671 0.70204 0.0
O267 O 0.45126 0.15815 0.69944 0.0
C268 C 0.40528 0.20292 0.66757 0.0
C269 C 0.46383 0.13834 0.70206 0.0
O270 O 0.45877 0.11996 0.68829 0.0
C271 C 0.4554 0.131 0.63332 0.0
C272 C 0.41404 0.22612 0.65843 0.0
C273 C 0.39753 0.24452 0.65305 0.0
C274 C 0.40578 0.2673 0.64609 0.0
C275 C 0.43048 0.27151 0.64482 0.0
C276 C 0.447 0.25405 0.65193 0.0
C277 C 0.43884 0.23102 0.65784 0.0
O278 O 0.41379 0.10153 0.68996 0.0
O279 O 0.39361 0.13663 0.69179 0.0
O280 O 0.39919 0.07012 0.62787 0.0
O281 O 0.40999 0.06224 0.66334 0.0
C282 C 0.40193 0.05303 0.64357 0.0
O283 O 0.44648 0.15117 0.64205 0.0
O284 O 0.44538 0.10976 0.63636 0.0
O285 O 0.41595 0.195 0.68703 0.0
O286 O 0.4011 0.18594 0.65169 0.0
H287 H 0.37845 0.24142 0.65517 0.0
H288 H 0.4369 0.28937 0.64047 0.0
H289 H 0.45159 0.21744 0.66343 0.0
O290 O 0.38295 0.38219 0.64456 0.0
Tb291 Tb 0.40181 0.41569 0.65151 0.0
Eu292 Eu 0.3413 0.42285 0.67051 0.0
C293 C 0.38944 0.36372 0.65776 0.0
O294 O 0.40578 0.36702 0.6744 0.0
C295 C 0.38412 0.4054 0.70242 0.0
O296 O 0.34083 0.45491 0.69515 0.0
C297 C 0.29788 0.40661 0.66637 0.0
C298 C 0.36035 0.46755 0.69892 0.0
O299 O 0.3799 0.462 0.68711 0.0
C300 C 0.36844 0.45692 0.63144 0.0
C301 C 0.27531 0.4147 0.65529 0.0
C302 C 0.25637 0.39829 0.65224 0.0
C303 C 0.23398 0.40618 0.64376 0.0
C304 C 0.23097 0.43041 0.63787 0.0
C305 C 0.24932 0.44707 0.64166 0.0
C306 C 0.27161 0.4392 0.65024 0.0
O307 O 0.39947 0.41819 0.69007 0.0
O308 O 0.36418 0.39785 0.69245 0.0
O309 O 0.43043 0.40721 0.62584 0.0
O310 O 0.43955 0.41351 0.6621 0.0
C311 C 0.44805 0.40804 0.64113 0.0
O312 O 0.34921 0.44435 0.63702 0.0
O313 O 0.39022 0.45033 0.63787 0.0
O314 O 0.30528 0.4195 0.68463 0.0
O315 O 0.31533 0.40027 0.65177 0.0
H316 H 0.25866 0.37973 0.65756 0.0
H317 H 0.21338 0.43683 0.63252 0.0
H318 H 0.28567 0.45217 0.65378 0.0
O319 O 0.11891 0.3833 0.64535 0.0
Tb320 Tb 0.08508 0.40147 0.6523 0.0
Eu321 Eu 0.07831 0.34019 0.66881 0.0
C322 C 0.137 0.39045 0.65872 0.0
O323 O 0.13302 0.4071 0.67491 0.0
C324 C 0.09612 0.38151 0.70234 0.0
O325 O 0.04596 0.33967 0.69315 0.0
C326 C 0.09462 0.2969 0.66386 0.0
C327 C 0.03374 0.35938 0.69741 0.0
O328 O 0.03983 0.37911 0.6862 0.0
C329 C 0.04462 0.36829 0.63056 0.0
C330 C 0.08711 0.27447 0.65215 0.0
C331 C 0.10411 0.25623 0.64828 0.0
C332 C 0.09685 0.23381 0.63939 0.0
C333 C 0.07256 0.22993 0.63427 0.0
C334 C 0.0553 0.24747 0.63913 0.0
C335 C 0.06266 0.26999 0.64761 0.0
O336 O 0.08353 0.39771 0.69084 0.0
O337 O 0.10359 0.36218 0.69121 0.0
O338 O 0.09494 0.43039 0.62753 0.0
O339 O 0.08561 0.43916 0.66326 0.0
C340 C 0.09261 0.44788 0.64282 0.0
O341 O 0.05782 0.34921 0.63502 0.0
O342 O 0.05069 0.38987 0.63805 0.0
O343 O 0.08125 0.30381 0.68199 0.0
O344 O 0.1012 0.31468 0.64981 0.0
H345 H 0.12267 0.25902 0.65336 0.0
H346 H 0.06666 0.21213 0.62906 0.0
H347 H 0.04932 0.28349 0.65183 0.0
O348 O 0.11991 0.38039 0.8569 0.0
Tb349 Tb 0.10044 0.41388 0.8519 0.0
Eu350 Eu 0.16137 0.42005 0.83309 0.0
C351 C 0.11844 0.3679 0.87682 0.0
O352 O 0.10916 0.37818 0.89588 0.0
C353 C 0.11877 0.4015 0.80193 0.0
O354 O 0.161 0.45209 0.80838 0.0
C355 C 0.2053 0.40498 0.83641 0.0
C356 C 0.14152 0.46493 0.80511 0.0
O357 O 0.12219 0.45961 0.81739 0.0
C358 C 0.13452 0.45454 0.8719 0.0
C359 C 0.22802 0.41392 0.84653 0.0
C360 C 0.2473 0.39794 0.84979 0.0
C361 C 0.26969 0.40651 0.85757 0.0
C362 C 0.27244 0.431 0.86239 0.0
C363 C 0.25376 0.44724 0.85835 0.0
C364 C 0.23141 0.43866 0.85058 0.0
O365 O 0.104 0.41561 0.81349 0.0
O366 O 0.13848 0.394 0.81234 0.0
O367 O 0.0695 0.40401 0.87443 0.0
O368 O 0.06372 0.41409 0.83833 0.0
C369 C 0.05329 0.40687 0.85782 0.0
O370 O 0.15339 0.44122 0.86679 0.0
O371 O 0.11251 0.44819 0.86598 0.0
O372 O 0.19703 0.41709 0.818 0.0
O373 O 0.18845 0.3987 0.85172 0.0
H374 H 0.24521 0.37914 0.84529 0.0
H375 H 0.29002 0.43784 0.86721 0.0
H376 H 0.21702 0.45122 0.84694 0.0
O377 O 0.12871 0.11829 0.8734 0.0
Tb378 Tb 0.09726 0.10291 0.85561 0.0
Eu379 Eu 0.08344 0.16364 0.83321 0.0
C380 C 0.14398 0.13321 0.86329 0.0
O381 O 0.1372 0.14563 0.84461 0.0
C382 C 0.10678 0.12087 0.80264 0.0
O383 O 0.05019 0.16058 0.81048 0.0
C384 C 0.096 0.20836 0.83724 0.0
C385 C 0.04162 0.13928 0.80513 0.0
O386 O 0.05215 0.1203 0.81408 0.0
C387 C 0.05122 0.13298 0.86967 0.0
C388 C 0.08667 0.23042 0.84856 0.0
C389 C 0.10262 0.24874 0.85573 0.0
C390 C 0.09365 0.27033 0.86528 0.0
C391 C 0.06884 0.27339 0.86742 0.0
C392 C 0.05282 0.25576 0.85967 0.0
C393 C 0.06174 0.23412 0.85052 0.0
O394 O 0.09725 0.10475 0.81686 0.0
O395 O 0.10885 0.14347 0.80896 0.0
O396 O 0.10792 0.06776 0.84213 0.0
O397 O 0.09409 0.07003 0.87734 0.0
C398 C 0.10251 0.05549 0.8611 0.0
O399 O 0.06364 0.1529 0.86704 0.0
O400 O 0.06011 0.11194 0.86371 0.0
O401 O 0.08318 0.1999 0.81936 0.0
O402 O 0.10419 0.19147 0.85157 0.0
H403 H 0.12178 0.24644 0.8534 0.0
H404 H 0.06184 0.29044 0.87371 0.0
H405 H 0.04929 0.2205 0.84437 0.0
O406 O 0.38827 0.12069 0.8621 0.0
Tb407 Tb 0.40649 0.08735 0.85294 0.0
Eu408 Eu 0.34472 0.07755 0.83567 0.0
C409 C 0.39323 0.13923 0.84836 0.0
O410 O 0.40805 0.13613 0.83032 0.0
C411 C 0.3854 0.09771 0.8032 0.0
O412 O 0.34713 0.04612 0.81012 0.0
C413 C 0.30065 0.09211 0.84011 0.0
C414 C 0.3677 0.03499 0.80691 0.0
O415 O 0.38626 0.04183 0.8195 0.0
C416 C 0.37475 0.0441 0.87269 0.0
C417 C 0.27793 0.08425 0.85117 0.0
C418 C 0.26037 0.10137 0.85735 0.0
C419 C 0.23794 0.094 0.86632 0.0
C420 C 0.23333 0.06942 0.86877 0.0
C421 C 0.25037 0.05223 0.86222 0.0
C422 C 0.2728 0.05965 0.85366 0.0
O423 O 0.40227 0.08586 0.81446 0.0
O424 O 0.36608 0.10454 0.81471 0.0
O425 O 0.43709 0.09333 0.87698 0.0
O426 O 0.44328 0.0904 0.83967 0.0
C427 C 0.45346 0.0937 0.86032 0.0
O428 O 0.3547 0.05599 0.86861 0.0
O429 O 0.39599 0.05211 0.86603 0.0
O430 O 0.30837 0.07904 0.82207 0.0
O431 O 0.31793 0.09901 0.85464 0.0
H432 H 0.2639 0.12029 0.85458 0.0
H433 H 0.21561 0.06349 0.87422 0.0
H434 H 0.28592 0.04632 0.8483 0.0
O435 O 0.38496 0.38593 0.85768 0.0
Tb436 Tb 0.41838 0.40473 0.85042 0.0
Eu437 Eu 0.42598 0.34308 0.83644 0.0
C438 C 0.36691 0.39181 0.84365 0.0
O439 O 0.37072 0.40766 0.82664 0.0
C440 C 0.40942 0.38347 0.80099 0.0
O441 O 0.4605 0.3436 0.81566 0.0
C442 C 0.41134 0.2991 0.84097 0.0
C443 C 0.461 0.34456 0.79208 0.0
O444 O 0.44085 0.34457 0.77992 0.0
C445 C 0.45961 0.37326 0.87245 0.0
C446 C 0.41983 0.2762 0.85117 0.0
C447 C 0.40306 0.25807 0.85653 0.0
C448 C 0.41091 0.23518 0.86363 0.0
C449 C 0.43554 0.23085 0.86576 0.0
C450 C 0.45248 0.24805 0.85884 0.0
C451 C 0.44459 0.27105 0.85227 0.0
O452 O 0.42251 0.39936 0.81234 0.0
O453 O 0.40152 0.36441 0.81236 0.0
O454 O 0.41098 0.43454 0.87507 0.0
O455 O 0.41419 0.4417 0.83794 0.0
C456 C 0.41002 0.45125 0.85878 0.0
O457 O 0.44591 0.35409 0.87013 0.0
O458 O 0.45341 0.39413 0.8634 0.0
O459 O 0.42338 0.30703 0.82234 0.0
O460 O 0.40519 0.31619 0.85608 0.0
H461 H 0.38407 0.26133 0.85391 0.0
H462 H 0.44164 0.21296 0.8704 0.0
H463 H 0.45751 0.28434 0.84639 0.0
O464 O 0.6502 0.12446 0.12423 0.0
Tb465 Tb 0.65269 0.10355 0.09137 0.0
Eu466 Eu 0.67563 0.16224 0.08306 0.0
C467 C 0.63078 0.12475 0.13757 0.0
O468 O 0.61069 0.11654 0.12841 0.0
C469 C 0.70385 0.11829 0.1025 0.0
O470 O 0.70357 0.16277 0.05384 0.0
C471 C 0.66838 0.20526 0.09889 0.0
C472 C 0.70649 0.14363 0.04042 0.0
O473 O 0.69272 0.12495 0.04435 0.0
C474 C 0.63594 0.13574 0.0472 0.0
C475 C 0.65771 0.22741 0.0893 0.0
C476 C 0.65314 0.24669 0.10489 0.0
C477 C 0.64432 0.26845 0.09585 0.0
C478 C 0.64006 0.2707 0.07121 0.0
C479 C 0.64554 0.25209 0.05531 0.0
C480 C 0.65415 0.23024 0.06441 0.0
O481 O 0.69119 0.10456 0.08832 0.0
O482 O 0.69503 0.13889 0.10958 0.0
O483 O 0.62914 0.07451 0.10416 0.0
O484 O 0.66368 0.06601 0.09091 0.0
C485 C 0.64426 0.05713 0.10014 0.0
O486 O 0.6471 0.15493 0.05537 0.0
O487 O 0.63671 0.11451 0.05761 0.0
O488 O 0.68847 0.19847 0.08857 0.0
O489 O 0.65353 0.18739 0.10326 0.0
H490 H 0.65733 0.24512 0.12381 0.0
H491 H 0.63461 0.28796 0.06404 0.0
H492 H 0.65877 0.21585 0.05218 0.0
O493 O 0.63181 0.38155 0.37512 0.0
Tb494 Tb 0.64928 0.39732 0.40648 0.0
Eu495 Eu 0.66888 0.33651 0.41832 0.0
C496 C 0.64234 0.3674 0.35946 0.0
O497 O 0.65942 0.35303 0.36656 0.0
C498 C 0.70203 0.37874 0.39748 0.0
O499 O 0.69116 0.33702 0.45199 0.0
C500 C 0.66381 0.29296 0.40251 0.0
C501 C 0.69756 0.3577 0.46132 0.0
O502 O 0.68957 0.37751 0.45151 0.0
C503 C 0.63207 0.36687 0.45087 0.0
C504 C 0.65166 0.27068 0.4098 0.0
C505 C 0.64631 0.25287 0.39266 0.0
C506 C 0.6363 0.23091 0.4 0.0
C507 C 0.63217 0.22683 0.4244 0.0
C508 C 0.63838 0.24394 0.44163 0.0
C509 C 0.64757 0.26611 0.43427 0.0
O510 O 0.68811 0.3955 0.40637 0.0
O511 O 0.69508 0.35643 0.39501 0.0
O512 O 0.6626 0.4329 0.39698 0.0
O513 O 0.62653 0.42963 0.40799 0.0
C514 C 0.6429 0.44462 0.40073 0.0
O515 O 0.63509 0.3471 0.43826 0.0
O516 O 0.63988 0.38776 0.44314 0.0
O517 O 0.68146 0.29986 0.41652 0.0
O518 O 0.65014 0.31082 0.39532 0.0
H519 H 0.65049 0.2558 0.37391 0.0
H520 H 0.62582 0.20935 0.43018 0.0
H521 H 0.65246 0.27936 0.44763 0.0
O522 O 0.11582 0.6422 0.38096 0.0
Tb523 Tb 0.09672 0.6505 0.41397 0.0
Eu524 Eu 0.15873 0.66638 0.42171 0.0
C525 C 0.10964 0.6552 0.36227 0.0
O526 O 0.09305 0.6717 0.36511 0.0
C527 C 0.11848 0.69989 0.4018 0.0
O528 O 0.1573 0.69127 0.45356 0.0
C529 C 0.20284 0.66206 0.40743 0.0
C530 C 0.13686 0.69581 0.46437 0.0
O531 O 0.11758 0.68436 0.45745 0.0
C532 C 0.12947 0.62937 0.45522 0.0
C533 C 0.22528 0.65057 0.41527 0.0
C534 C 0.24388 0.64721 0.39855 0.0
C535 C 0.26626 0.63837 0.40601 0.0
C536 C 0.26968 0.63262 0.43022 0.0
C537 C 0.25174 0.63686 0.44721 0.0
C538 C 0.22938 0.64562 0.43971 0.0
O539 O 0.10119 0.68913 0.41362 0.0
O540 O 0.13755 0.68787 0.39505 0.0
O541 O 0.06753 0.62634 0.40316 0.0
O542 O 0.0591 0.6618 0.4137 0.0
C543 C 0.05018 0.64171 0.40594 0.0
O544 O 0.14839 0.63251 0.44142 0.0
O545 O 0.10798 0.63702 0.44891 0.0
O546 O 0.19517 0.67977 0.42094 0.0
O547 O 0.18553 0.64791 0.39988 0.0
H548 H 0.24138 0.65264 0.38005 0.0
H549 H 0.28737 0.62729 0.43636 0.0
H550 H 0.21566 0.64953 0.45292 0.0
O551 O 0.86382 0.12227 0.37898 0.0
Tb552 Tb 0.85916 0.10252 0.41238 0.0
Eu553 Eu 0.83804 0.16286 0.41886 0.0
C554 C 0.88312 0.11963 0.36566 0.0
O555 O 0.9019 0.10905 0.37514 0.0
C556 C 0.80843 0.11904 0.40189 0.0
O557 O 0.81015 0.16448 0.44821 0.0
C558 C 0.84501 0.20536 0.40107 0.0
C559 C 0.80699 0.14563 0.46201 0.0
O560 O 0.8209 0.12692 0.45882 0.0
C561 C 0.87605 0.13574 0.45609 0.0
C562 C 0.85466 0.22847 0.40959 0.0
C563 C 0.85972 0.24699 0.39312 0.0
C564 C 0.86687 0.2698 0.40136 0.0
C565 C 0.86919 0.2736 0.42608 0.0
C566 C 0.86365 0.25559 0.44257 0.0
C567 C 0.85654 0.23294 0.43436 0.0
O568 O 0.82082 0.10508 0.41606 0.0
O569 O 0.8184 0.13854 0.39333 0.0
O570 O 0.88243 0.0716 0.40417 0.0
O571 O 0.84542 0.0659 0.41007 0.0
C572 C 0.86552 0.05545 0.40483 0.0
O573 O 0.86696 0.15537 0.44638 0.0
O574 O 0.87372 0.11407 0.44673 0.0
O575 O 0.82485 0.19859 0.41122 0.0
O576 O 0.86042 0.18765 0.39831 0.0
H577 H 0.85738 0.24388 0.37408 0.0
H578 H 0.87357 0.29136 0.43272 0.0
H579 H 0.85173 0.21914 0.44719 0.0
O580 O 0.38613 0.8632 0.3824 0.0
Tb581 Tb 0.40445 0.85402 0.41548 0.0
Eu582 Eu 0.34266 0.83659 0.42186 0.0
C583 C 0.39202 0.8501 0.36374 0.0
O584 O 0.40805 0.83307 0.36655 0.0
C585 C 0.38424 0.80407 0.40291 0.0
O586 O 0.34397 0.81195 0.4539 0.0
C587 C 0.29845 0.8401 0.40763 0.0
C588 C 0.36411 0.80793 0.46545 0.0
O589 O 0.38333 0.81993 0.45936 0.0
C590 C 0.37055 0.87456 0.45559 0.0
C591 C 0.2758 0.8511 0.41584 0.0
C592 C 0.25893 0.85896 0.39877 0.0
C593 C 0.23652 0.86787 0.40614 0.0
C594 C 0.2312 0.86879 0.43069 0.0
C595 C 0.24746 0.86048 0.44781 0.0
C596 C 0.26991 0.85184 0.44043 0.0
O597 O 0.40027 0.81548 0.41579 0.0
O598 O 0.36464 0.81501 0.39579 0.0
O599 O 0.43478 0.87826 0.40882 0.0
O600 O 0.44153 0.84126 0.41386 0.0
C601 C 0.45142 0.86188 0.40955 0.0
O602 O 0.35204 0.87089 0.44138 0.0
O603 O 0.39225 0.86701 0.45008 0.0
O604 O 0.30658 0.82229 0.42071 0.0
O605 O 0.31546 0.85462 0.40006 0.0
H606 H 0.2629 0.8574 0.3798 0.0
H607 H 0.21346 0.87429 0.43651 0.0
H608 H 0.28239 0.84509 0.45372 0.0
O609 O 0.861 0.38726 0.11807 0.0
Tb610 Tb 0.85146 0.40741 0.08608 0.0
Eu611 Eu 0.8348 0.34579 0.07634 0.0
C612 C 0.84783 0.39135 0.13722 0.0
O613 O 0.82949 0.406 0.13524 0.0
C614 C 0.80153 0.38642 0.09589 0.0
O615 O 0.80922 0.34551 0.045 0.0
C616 C 0.84102 0.30224 0.09171 0.0
C617 C 0.80418 0.36552 0.03359 0.0
O618 O 0.81531 0.38522 0.03989 0.0
C619 C 0.87017 0.37696 0.04189 0.0
C620 C 0.85222 0.27962 0.0839 0.0
C621 C 0.85541 0.26095 0.10061 0.0
C622 C 0.86397 0.23847 0.09307 0.0
C623 C 0.86931 0.23493 0.0688 0.0
C624 C 0.86516 0.25292 0.05182 0.0
C625 C 0.85694 0.27545 0.05943 0.0
O626 O 0.81307 0.40309 0.08406 0.0
O627 O 0.8126 0.36681 0.10266 0.0
O628 O 0.87506 0.43808 0.09407 0.0
O629 O 0.83768 0.44372 0.09115 0.0
C630 C 0.85807 0.45408 0.09541 0.0
O631 O 0.8668 0.35676 0.0538 0.0
O632 O 0.86356 0.39806 0.05026 0.0
O633 O 0.82233 0.30914 0.07916 0.0
O634 O 0.85539 0.32004 0.09758 0.0
H635 H 0.85024 0.26354 0.11917 0.0
H636 H 0.87445 0.21717 0.06268 0.0
H637 H 0.85325 0.2893 0.0463 0.0
O638 O 0.12534 0.85797 0.12506 0.0
Tb639 Tb 0.10499 0.8548 0.09197 0.0
Eu640 Eu 0.16462 0.83308 0.08471 0.0
C641 C 0.12526 0.87776 0.13785 0.0
O642 O 0.11692 0.89747 0.12799 0.0
C643 C 0.12079 0.80349 0.10147 0.0
O644 O 0.16542 0.80555 0.05513 0.0
C645 C 0.20762 0.83969 0.10123 0.0
C646 C 0.14638 0.80309 0.04147 0.0
O647 O 0.12807 0.81742 0.04502 0.0
C648 C 0.13756 0.87195 0.04815 0.0
C649 C 0.23032 0.84947 0.09179 0.0
C650 C 0.24912 0.85546 0.10762 0.0
C651 C 0.27139 0.86324 0.09858 0.0
C652 C 0.27446 0.86504 0.07371 0.0
C653 C 0.25615 0.85877 0.05781 0.0
C654 C 0.23399 0.85106 0.06683 0.0
O655 O 0.10689 0.81653 0.08783 0.0
O656 O 0.14065 0.81269 0.11004 0.0
O657 O 0.07475 0.87761 0.10332 0.0
O658 O 0.06801 0.84205 0.09196 0.0
C659 C 0.05813 0.86148 0.10002 0.0
O660 O 0.15709 0.86174 0.05692 0.0
O661 O 0.11618 0.87056 0.05822 0.0
O662 O 0.20045 0.8196 0.09119 0.0
O663 O 0.19003 0.85507 0.10489 0.0
H664 H 0.24657 0.8536 0.1268 0.0
H665 H 0.29185 0.87002 0.06652 0.0
H666 H 0.21987 0.84586 0.05451 0.0
O667 O 0.38194 0.64748 0.12242 0.0
Tb668 Tb 0.40132 0.65257 0.08875 0.0
Eu669 Eu 0.34117 0.67207 0.08263 0.0
C670 C 0.38585 0.62874 0.13625 0.0
O671 O 0.39713 0.6102 0.12707 0.0
C672 C 0.38428 0.70324 0.0991 0.0
O673 O 0.3392 0.69712 0.05094 0.0
C674 C 0.2984 0.6664 0.09989 0.0
C675 C 0.35836 0.701 0.03779 0.0
O676 O 0.37822 0.68963 0.04309 0.0
C677 C 0.36835 0.63593 0.04557 0.0
C678 C 0.27533 0.65696 0.09118 0.0
C679 C 0.25707 0.65164 0.10776 0.0
C680 C 0.23412 0.6452 0.09965 0.0
C681 C 0.22967 0.64404 0.07498 0.0
C682 C 0.24723 0.65053 0.05833 0.0
C683 C 0.27036 0.65627 0.06638 0.0
O684 O 0.39918 0.691 0.08576 0.0
O685 O 0.36501 0.6929 0.10772 0.0
O686 O 0.43164 0.62805 0.09439 0.0
O687 O 0.43805 0.66547 0.09253 0.0
C688 C 0.44806 0.64467 0.09538 0.0
O689 O 0.34898 0.64054 0.05834 0.0
O690 O 0.39019 0.64057 0.05331 0.0
O691 O 0.3057 0.68622 0.08943 0.0
O692 O 0.31575 0.65078 0.10351 0.0
H693 H 0.26032 0.65371 0.12681 0.0
H694 H 0.21165 0.64021 0.06867 0.0
H695 H 0.28394 0.66167 0.05355 0.0
O696 O 0.87882 0.35728 0.87653 0.0
Tb697 Tb 0.91154 0.35376 0.89756 0.0
Eu698 Eu 0.91849 0.3336 0.83809 0.0
C699 C 0.86628 0.37722 0.87581 0.0
O700 O 0.87632 0.39714 0.8834 0.0
C701 C 0.90023 0.30289 0.88129 0.0
O702 O 0.94887 0.30692 0.83731 0.0
C703 C 0.90131 0.33954 0.79525 0.0
C704 C 0.96166 0.3035 0.85679 0.0
O705 O 0.95671 0.3163 0.87589 0.0
C706 C 0.95506 0.37154 0.86511 0.0
C707 C 0.90979 0.34969 0.77238 0.0
C708 C 0.89331 0.35451 0.75384 0.0
C709 C 0.9015 0.3623 0.73127 0.0
C710 C 0.92617 0.36546 0.72769 0.0
C711 C 0.94272 0.36025 0.74576 0.0
C712 C 0.93454 0.35251 0.76821 0.0
O713 O 0.91321 0.31513 0.89655 0.0
O714 O 0.89274 0.31307 0.86148 0.0
O715 O 0.89917 0.37887 0.92531 0.0
O716 O 0.91159 0.34452 0.93565 0.0
C717 C 0.90283 0.36463 0.94345 0.0
O718 O 0.94468 0.36382 0.84528 0.0
O719 O 0.94621 0.3678 0.88671 0.0
O720 O 0.91243 0.31997 0.80225 0.0
O721 O 0.89727 0.35478 0.81286 0.0
H722 H 0.87432 0.35154 0.75676 0.0
H723 H 0.93275 0.37037 0.71004 0.0
H724 H 0.94738 0.34804 0.78211 0.0
O725 O 0.14455 0.87884 0.8828 0.0
Tb726 Tb 0.14958 0.91229 0.90227 0.0
Eu727 Eu 0.16927 0.91928 0.84169 0.0
C728 C 0.1247 0.8663 0.88493 0.0
O729 O 0.10596 0.8766 0.89481 0.0
C730 C 0.19993 0.90197 0.88442 0.0
O731 O 0.1962 0.94946 0.84132 0.0
C732 C 0.16413 0.90294 0.79841 0.0
C733 C 0.19891 0.96302 0.86039 0.0
O734 O 0.18511 0.95923 0.87904 0.0
C735 C 0.13129 0.95553 0.86957 0.0
C736 C 0.15472 0.91143 0.7752 0.0
C737 C 0.14823 0.89464 0.75746 0.0
C738 C 0.14087 0.90245 0.73464 0.0
C739 C 0.13988 0.92711 0.72991 0.0
C740 C 0.14668 0.94394 0.74715 0.0
C741 C 0.15405 0.93614 0.76988 0.0
O742 O 0.18782 0.9158 0.89894 0.0
O743 O 0.18956 0.89344 0.86516 0.0
O744 O 0.12721 0.90349 0.93366 0.0
O745 O 0.16402 0.91127 0.93858 0.0
C746 C 0.14436 0.9053 0.94946 0.0
O747 O 0.139 0.94527 0.84961 0.0
O748 O 0.13492 0.94657 0.89116 0.0
O749 O 0.18357 0.91385 0.80603 0.0
O750 O 0.14844 0.89871 0.81558 0.0
H751 H 0.14947 0.8756 0.76122 0.0
H752 H 0.13506 0.93331 0.7121 0.0
H753 H 0.15964 0.9492 0.78317 0.0
O754 O 0.62635 0.14422 0.88275 0.0
Tb755 Tb 0.59294 0.14894 0.90253 0.0
Eu756 Eu 0.58401 0.16489 0.84253 0.0
C757 C 0.63972 0.12503 0.88584 0.0
O758 O 0.63031 0.10652 0.89696 0.0
C759 C 0.60113 0.19868 0.88371 0.0
O760 O 0.54913 0.18492 0.84539 0.0
C761 C 0.59688 0.16246 0.79793 0.0
C762 C 0.5481 0.20846 0.84696 0.0
O763 O 0.56795 0.2211 0.84652 0.0
C764 C 0.55184 0.1265 0.87145 0.0
C765 C 0.58808 0.15179 0.77543 0.0
C766 C 0.60419 0.14849 0.75629 0.0
C767 C 0.59588 0.14038 0.73395 0.0
C768 C 0.5715 0.13501 0.73116 0.0
C769 C 0.55513 0.13886 0.74977 0.0
C770 C 0.56343 0.14721 0.772 0.0
O771 O 0.58677 0.18664 0.89773 0.0
O772 O 0.60891 0.18868 0.86386 0.0
O773 O 0.60004 0.12632 0.93406 0.0
O774 O 0.59707 0.16395 0.93834 0.0
C775 C 0.60082 0.14388 0.94947 0.0
O776 O 0.56488 0.13027 0.85207 0.0
O777 O 0.55829 0.1348 0.89252 0.0
O778 O 0.58376 0.17995 0.80676 0.0
O779 O 0.60509 0.14764 0.81438 0.0
H780 H 0.6229 0.15332 0.75843 0.0
H781 H 0.56479 0.12987 0.71362 0.0
H782 H 0.55072 0.15078 0.78628 0.0
O783 O 0.35797 0.62336 0.87817 0.0
Tb784 Tb 0.35175 0.59181 0.90027 0.0
Eu785 Eu 0.33229 0.58208 0.84032 0.0
C786 C 0.37724 0.63655 0.88138 0.0
O787 O 0.39506 0.62739 0.89375 0.0
C788 C 0.30117 0.59886 0.88286 0.0
O789 O 0.30588 0.55125 0.83943 0.0
C790 C 0.33829 0.59915 0.79737 0.0
C791 C 0.30265 0.53784 0.85858 0.0
O792 O 0.31582 0.54204 0.87759 0.0
C793 C 0.37054 0.54755 0.86952 0.0
C794 C 0.34874 0.59102 0.77448 0.0
C795 C 0.3537 0.60776 0.75615 0.0
C796 C 0.36188 0.59986 0.73359 0.0
C797 C 0.36512 0.57525 0.72977 0.0
C798 C 0.35985 0.55845 0.7476 0.0
C799 C 0.3518 0.56634 0.77005 0.0
O800 O 0.31367 0.58577 0.89774 0.0
O801 O 0.31147 0.60756 0.86364 0.0
O802 O 0.37505 0.59719 0.93189 0.0
O803 O 0.33767 0.60277 0.93504 0.0
C804 C 0.35789 0.60348 0.94649 0.0
O805 O 0.3635 0.55756 0.84921 0.0
O806 O 0.36571 0.55662 0.89087 0.0
O807 O 0.31897 0.58756 0.80427 0.0
O808 O 0.35329 0.60354 0.81508 0.0
H809 H 0.35064 0.6267 0.75925 0.0
H810 H 0.3703 0.5689 0.71212 0.0
H811 H 0.34735 0.55332 0.78379 0.0
O812 O 0.87827 0.13148 0.61596 0.0
Tb813 Tb 0.91143 0.14832 0.6031 0.0
Eu814 Eu 0.92398 0.16626 0.66653 0.0
C815 C 0.86255 0.14176 0.63032 0.0
O816 O 0.86908 0.16034 0.64303 0.0
C817 C 0.90067 0.20027 0.62569 0.0
O818 O 0.95812 0.18783 0.66463 0.0
C819 C 0.91025 0.16108 0.71076 0.0
C820 C 0.96566 0.19634 0.64396 0.0
O821 O 0.95442 0.19006 0.62427 0.0
C822 C 0.95412 0.12983 0.63526 0.0
C823 C 0.91778 0.14769 0.73228 0.0
C824 C 0.90081 0.14145 0.74999 0.0
C825 C 0.90838 0.1308 0.77159 0.0
C826 C 0.93287 0.12651 0.77518 0.0
C827 C 0.94989 0.13332 0.75811 0.0
C828 C 0.94231 0.14355 0.73651 0.0
O829 O 0.90696 0.18682 0.60734 0.0
O830 O 0.9007 0.19328 0.64816 0.0
O831 O 0.90897 0.1261 0.57046 0.0
O832 O 0.91013 0.1637 0.56701 0.0
C833 C 0.90848 0.14375 0.5552 0.0
O834 O 0.93936 0.1312 0.65355 0.0
O835 O 0.94777 0.13825 0.61412 0.0
O836 O 0.9252 0.17778 0.70351 0.0
O837 O 0.90085 0.14871 0.69299 0.0
H838 H 0.88201 0.14565 0.74735 0.0
H839 H 0.93895 0.11973 0.79239 0.0
H840 H 0.9556 0.14925 0.72351 0.0
O841 O 0.36705 0.87944 0.61527 0.0
Tb842 Tb 0.35001 0.91163 0.60069 0.0
Eu843 Eu 0.33435 0.9243 0.66256 0.0
C844 C 0.35749 0.86568 0.63189 0.0
O845 O 0.34029 0.87416 0.64533 0.0
C846 C 0.29816 0.90054 0.62309 0.0
O847 O 0.31456 0.95935 0.66145 0.0
C848 C 0.33961 0.91007 0.70641 0.0
C849 C 0.30437 0.96631 0.64138 0.0
O850 O 0.30792 0.95374 0.62181 0.0
C851 C 0.36964 0.95417 0.63102 0.0
C852 C 0.3535 0.91573 0.72801 0.0
C853 C 0.35625 0.89796 0.74563 0.0
C854 C 0.36535 0.90393 0.76831 0.0
C855 C 0.37271 0.92757 0.77272 0.0
C856 C 0.36958 0.94554 0.75549 0.0
C857 C 0.36026 0.93952 0.73297 0.0
O858 O 0.31183 0.90473 0.6043 0.0
O859 O 0.30473 0.90332 0.64549 0.0
O860 O 0.37368 0.90779 0.56943 0.0
O861 O 0.33631 0.91063 0.56399 0.0
C862 C 0.35681 0.90799 0.55333 0.0
O863 O 0.36931 0.93914 0.64907 0.0
O864 O 0.3591 0.9483 0.61081 0.0
O865 O 0.32409 0.92649 0.69976 0.0
O866 O 0.35103 0.89996 0.68839 0.0
H867 H 0.34958 0.87998 0.74237 0.0
H868 H 0.37824 0.93262 0.79068 0.0
H869 H 0.35689 0.95357 0.71995 0.0
O870 O 0.6179 0.35762 0.61435 0.0
Tb871 Tb 0.5854 0.34886 0.59473 0.0
Eu872 Eu 0.57963 0.33555 0.65639 0.0
C873 C 0.63664 0.3442 0.60941 0.0
O874 O 0.63406 0.32667 0.59389 0.0
C875 C 0.59496 0.29949 0.61582 0.0
O876 O 0.54462 0.31581 0.65895 0.0
C877 C 0.59656 0.3407 0.69946 0.0
C878 C 0.54312 0.2923 0.65768 0.0
O879 O 0.56257 0.27943 0.65448 0.0
C880 C 0.54472 0.37101 0.62648 0.0
C881 C 0.58848 0.3499 0.72289 0.0
C882 C 0.60546 0.35415 0.74112 0.0
C883 C 0.59784 0.36024 0.76437 0.0
C884 C 0.57327 0.36237 0.769 0.0
C885 C 0.55614 0.35629 0.75167 0.0
C886 C 0.5638 0.35082 0.72832 0.0
O887 O 0.58148 0.31076 0.60023 0.0
O888 O 0.60321 0.31091 0.63467 0.0
O889 O 0.59242 0.37314 0.56448 0.0
O890 O 0.59079 0.33578 0.55809 0.0
C891 C 0.59438 0.35655 0.54815 0.0
O892 O 0.55884 0.36886 0.6454 0.0
O893 O 0.55044 0.36168 0.60559 0.0
O894 O 0.58543 0.32133 0.69198 0.0
O895 O 0.6005 0.35642 0.68227 0.0
H896 H 0.62439 0.35147 0.7376 0.0
H897 H 0.56739 0.36632 0.78713 0.0
H898 H 0.55076 0.34557 0.71489 0.0
O899 O 0.14503 0.62059 0.62076 0.0
Tb900 Tb 0.15054 0.5878 0.60028 0.0
Eu901 Eu 0.16848 0.5793 0.66147 0.0
C902 C 0.12436 0.6319 0.62105 0.0
O903 O 0.10531 0.62075 0.61283 0.0
C904 C 0.19988 0.59936 0.6198 0.0
O905 O 0.1954 0.54894 0.66079 0.0
C906 C 0.16294 0.59526 0.70494 0.0
C907 C 0.1989 0.53668 0.64093 0.0
O908 O 0.1857 0.54172 0.62216 0.0
C909 C 0.13088 0.54451 0.63212 0.0
C910 C 0.15243 0.58746 0.72794 0.0
C911 C 0.14744 0.60453 0.74595 0.0
C912 C 0.1393 0.59708 0.76868 0.0
C913 C 0.13608 0.57255 0.77297 0.0
C914 C 0.14138 0.55541 0.75546 0.0
C915 C 0.14941 0.56288 0.73285 0.0
O916 O 0.18903 0.58623 0.60373 0.0
O917 O 0.18871 0.60628 0.63926 0.0
O918 O 0.12679 0.59853 0.57061 0.0
O919 O 0.16264 0.58875 0.56301 0.0
C920 C 0.14265 0.59608 0.55362 0.0
O921 O 0.13714 0.555 0.65244 0.0
O922 O 0.1363 0.55313 0.61078 0.0
O923 O 0.18182 0.58314 0.69774 0.0
O924 O 0.14799 0.60043 0.68741 0.0
H925 H 0.15049 0.62342 0.74249 0.0
H926 H 0.13092 0.56653 0.79074 0.0
H927 H 0.1539 0.5496 0.71937 0.0
O928 O 0.88824 0.88248 0.35903 0.0
Tb929 Tb 0.90931 0.91492 0.35345 0.0
Eu930 Eu 0.84834 0.92113 0.33871 0.0
C931 C 0.88858 0.87073 0.37947 0.0
O932 O 0.89777 0.88135 0.39837 0.0
C933 C 0.88935 0.90389 0.30401 0.0
O934 O 0.84795 0.95646 0.31949 0.0
C935 C 0.80429 0.90663 0.34248 0.0
C936 C 0.84848 0.95828 0.296 0.0
O937 O 0.85044 0.93892 0.28276 0.0
C938 C 0.87723 0.95597 0.37411 0.0
C939 C 0.78142 0.91614 0.35167 0.0
C940 C 0.76168 0.90061 0.35434 0.0
C941 C 0.73916 0.90974 0.36108 0.0
C942 C 0.73676 0.93434 0.36548 0.0
C943 C 0.75599 0.95008 0.36208 0.0
C944 C 0.77841 0.94099 0.35524 0.0
O945 O 0.905 0.91741 0.31515 0.0
O946 O 0.87012 0.8963 0.3153 0.0
O947 O 0.9385 0.90506 0.37805 0.0
O948 O 0.94661 0.91168 0.34157 0.0
C949 C 0.95562 0.90551 0.36215 0.0
O950 O 0.85898 0.941 0.37253 0.0
O951 O 0.89848 0.95022 0.36563 0.0
O952 O 0.8128 0.91769 0.32351 0.0
O953 O 0.82091 0.90119 0.35836 0.0
H954 H 0.76357 0.8817 0.35023 0.0
H955 H 0.71919 0.94164 0.36962 0.0
H956 H 0.79319 0.95321 0.35202 0.0
O957 O 0.62411 0.88655 0.35989 0.0
Tb958 Tb 0.59022 0.90445 0.35243 0.0
Eu959 Eu 0.58304 0.84316 0.33861 0.0
C960 C 0.64188 0.89168 0.3452 0.0
O961 O 0.63754 0.90598 0.327 0.0
C962 C 0.59691 0.88396 0.30286 0.0
O963 O 0.54778 0.84182 0.31933 0.0
C964 C 0.59873 0.79961 0.34296 0.0
C965 C 0.54629 0.84184 0.29581 0.0
O966 O 0.56587 0.8431 0.28279 0.0
C967 C 0.54956 0.87308 0.37572 0.0
C968 C 0.59018 0.77685 0.35325 0.0
C969 C 0.60642 0.75776 0.3563 0.0
C970 C 0.59817 0.73523 0.36396 0.0
C971 C 0.57369 0.73202 0.36854 0.0
C972 C 0.55717 0.75047 0.36453 0.0
C973 C 0.56548 0.77307 0.3572 0.0
O974 O 0.58275 0.89799 0.31515 0.0
O975 O 0.60582 0.86472 0.31306 0.0
O976 O 0.59585 0.93671 0.37436 0.0
O977 O 0.59552 0.93981 0.33653 0.0
C978 C 0.59809 0.95155 0.35645 0.0
O979 O 0.56267 0.85363 0.37232 0.0
O980 O 0.55593 0.89416 0.36727 0.0
O981 O 0.58655 0.80728 0.32433 0.0
O982 O 0.60462 0.81682 0.35804 0.0
H983 H 0.62516 0.7601 0.35169 0.0
H984 H 0.56711 0.71425 0.37303 0.0
H985 H 0.55273 0.78732 0.35366 0.0
O986 O 0.61985 0.62029 0.35869 0.0
Tb987 Tb 0.60014 0.58742 0.35155 0.0
Eu988 Eu 0.66004 0.57956 0.33039 0.0
C989 C 0.61355 0.6391 0.34591 0.0
O990 O 0.59707 0.63636 0.32931 0.0
C991 C 0.61679 0.59777 0.30016 0.0
O992 O 0.65845 0.55057 0.30218 0.0
C993 C 0.70343 0.59594 0.33519 0.0
C994 C 0.63864 0.53803 0.29957 0.0
O995 O 0.62102 0.5415 0.31474 0.0
C996 C 0.63258 0.54354 0.3687 0.0
C997 C 0.72643 0.58894 0.34637 0.0
C998 C 0.74344 0.60674 0.35227 0.0
C999 C 0.76616 0.60021 0.36121 0.0
C1000 C 0.77142 0.57588 0.36445 0.0
C1001 C 0.755 0.55808 0.35817 0.0
C1002 C 0.73243 0.56455 0.34919 0.0
O1003 O 0.60167 0.5852 0.31297 0.0
O1004 O 0.63691 0.60536 0.3097 0.0
O1005 O 0.57146 0.59741 0.37672 0.0
O1006 O 0.56251 0.5896 0.34073 0.0
C1007 C 0.55393 0.59616 0.36134 0.0
O1008 O 0.65249 0.55386 0.36096 0.0
O1009 O 0.61098 0.55257 0.36518 0.0
O1010 O 0.69639 0.58267 0.31703 0.0
O1011 O 0.68576 0.6021 0.34963 0.0
H1012 H 0.73929 0.62548 0.34923 0.0
H1013 H 0.78921 0.57057 0.37033 0.0
H1014 H 0.71989 0.55067 0.34387 0.0
O1015 O 0.8741 0.6204 0.37063 0.0
Tb1016 Tb 0.90589 0.60417 0.35426 0.0
Eu1017 Eu 0.92319 0.66694 0.33533 0.0
C1018 C 0.86074 0.63708 0.36058 0.0
O1019 O 0.86985 0.65045 0.34364 0.0
C1020 C 0.89939 0.62605 0.30186 0.0
O1021 O 0.95733 0.66559 0.31366 0.0
C1022 C 0.91013 0.7114 0.34116 0.0
C1023 C 0.96495 0.6452 0.30456 0.0
O1024 O 0.95368 0.62532 0.31019 0.0
C1025 C 0.95167 0.63294 0.3714 0.0
C1026 C 0.91853 0.73305 0.3539 0.0
C1027 C 0.90214 0.75131 0.36023 0.0
C1028 C 0.91045 0.77263 0.37088 0.0
C1029 C 0.93505 0.7756 0.3748 0.0
C1030 C 0.95153 0.7581 0.36777 0.0
C1031 C 0.94326 0.73669 0.35759 0.0
O1032 O 0.90593 0.60799 0.31554 0.0
O1033 O 0.89919 0.64856 0.30874 0.0
O1034 O 0.90524 0.57136 0.3765 0.0
O1035 O 0.89654 0.56889 0.33982 0.0
C1036 C 0.89871 0.55672 0.35951 0.0
O1037 O 0.93924 0.65294 0.36979 0.0
O1038 O 0.94302 0.61242 0.36351 0.0
O1039 O 0.92402 0.70394 0.32367 0.0
O1040 O 0.90146 0.69374 0.3542 0.0
H1041 H 0.88321 0.74921 0.35633 0.0
H1042 H 0.94161 0.79258 0.38172 0.0
H1043 H 0.95611 0.72329 0.35181 0.0
O1044 O 0.88527 0.62697 0.13383 0.0
Tb1045 Tb 0.90045 0.59458 0.15002 0.0
Eu1046 Eu 0.8395 0.58136 0.16759 0.0
C1047 C 0.86884 0.64068 0.14382 0.0
O1048 O 0.85597 0.63222 0.16146 0.0
C1049 C 0.87984 0.60485 0.20269 0.0
O1050 O 0.84231 0.54647 0.18765 0.0
C1051 C 0.79525 0.59487 0.16355 0.0
C1052 C 0.86319 0.53937 0.19602 0.0
O1053 O 0.8825 0.55168 0.19062 0.0
C1054 C 0.86982 0.5521 0.13051 0.0
C1055 C 0.77378 0.58858 0.14965 0.0
C1056 C 0.75566 0.60581 0.14644 0.0
C1057 C 0.7335 0.59919 0.13646 0.0
C1058 C 0.7298 0.57527 0.12965 0.0
C1059 C 0.74733 0.55776 0.13372 0.0
C1060 C 0.76965 0.56463 0.14294 0.0
O1061 O 0.89821 0.60043 0.18852 0.0
O1062 O 0.85725 0.60275 0.19649 0.0
O1063 O 0.93057 0.59895 0.12502 0.0
O1064 O 0.93778 0.59564 0.16203 0.0
C1065 C 0.94745 0.59858 0.14109 0.0
O1066 O 0.85155 0.56679 0.13199 0.0
O1067 O 0.89042 0.55804 0.14025 0.0
O1068 O 0.80257 0.57847 0.17881 0.0
O1069 O 0.81286 0.60557 0.15204 0.0
H1070 H 0.7582 0.6239 0.15309 0.0
H1071 H 0.71208 0.56967 0.12387 0.0
H1072 H 0.78311 0.55106 0.14649 0.0
O1073 O 0.88323 0.88443 0.14531 0.0
Tb1074 Tb 0.91684 0.90281 0.15286 0.0
Eu1075 Eu 0.92287 0.84191 0.16989 0.0
C1076 C 0.86478 0.89083 0.15859 0.0
O1077 O 0.86827 0.9066 0.17574 0.0
C1078 C 0.90658 0.8839 0.20331 0.0
O1079 O 0.95423 0.8395 0.19529 0.0
C1080 C 0.90481 0.79959 0.1629 0.0
C1081 C 0.96702 0.85882 0.19958 0.0
O1082 O 0.96171 0.87862 0.18809 0.0
C1083 C 0.95939 0.87026 0.13357 0.0
C1084 C 0.91249 0.77696 0.15164 0.0
C1085 C 0.89547 0.75898 0.14659 0.0
C1086 C 0.90295 0.73637 0.1382 0.0
C1087 C 0.92748 0.73226 0.13454 0.0
C1088 C 0.94457 0.74979 0.13991 0.0
C1089 C 0.93707 0.77225 0.14829 0.0
O1090 O 0.91916 0.89971 0.19135 0.0
O1091 O 0.8984 0.86465 0.19254 0.0
O1092 O 0.90878 0.93213 0.12785 0.0
O1093 O 0.91492 0.9402 0.16442 0.0
C1094 C 0.9097 0.9493 0.14364 0.0
O1095 O 0.94736 0.8505 0.13863 0.0
O1096 O 0.95177 0.89181 0.13959 0.0
O1097 O 0.91675 0.80565 0.18228 0.0
O1098 O 0.9005 0.81783 0.14852 0.0
H1099 H 0.87662 0.7623 0.14998 0.0
H1100 H 0.93356 0.71455 0.12924 0.0
H1101 H 0.95034 0.78569 0.15297 0.0
O1102 O 0.61868 0.88427 0.14446 0.0
Tb1103 Tb 0.59934 0.91694 0.15362 0.0
Eu1104 Eu 0.66108 0.92393 0.17124 0.0
C1105 C 0.61402 0.86518 0.15754 0.0
O1106 O 0.59915 0.86738 0.17568 0.0
C1107 C 0.6192 0.90678 0.204 0.0
O1108 O 0.66257 0.95567 0.19627 0.0
C1109 C 0.70433 0.90763 0.16539 0.0
C1110 C 0.64322 0.96817 0.20121 0.0
O1111 O 0.62313 0.96279 0.19025 0.0
C1112 C 0.63213 0.9591 0.13464 0.0
C1113 C 0.72683 0.9158 0.15419 0.0
C1114 C 0.74577 0.89941 0.1509 0.0
C1115 C 0.76807 0.90733 0.14222 0.0
C1116 C 0.77116 0.93167 0.13684 0.0
C1117 C 0.75294 0.94837 0.14113 0.0
C1118 C 0.73057 0.94036 0.14946 0.0
O1119 O 0.60322 0.91912 0.19203 0.0
O1120 O 0.63862 0.89876 0.19342 0.0
O1121 O 0.56895 0.90963 0.12949 0.0
O1122 O 0.56249 0.91344 0.16664 0.0
C1123 C 0.55248 0.9092 0.14607 0.0
O1124 O 0.65141 0.94595 0.13855 0.0
O1125 O 0.61049 0.95222 0.14128 0.0
O1126 O 0.69745 0.91994 0.18424 0.0
O1127 O 0.6865 0.902 0.15097 0.0
H1128 H 0.74353 0.8808 0.1561 0.0
H1129 H 0.7888 0.93808 0.13164 0.0
H1130 H 0.71653 0.95327 0.15325 0.0
O1131 O 0.61943 0.62102 0.14265 0.0
Tb1132 Tb 0.58664 0.60175 0.151 0.0
Eu1133 Eu 0.58127 0.66241 0.16548 0.0
C1134 C 0.63799 0.61643 0.15645 0.0
O1135 O 0.63498 0.60191 0.17475 0.0
C1136 C 0.59382 0.62102 0.20122 0.0
O1137 O 0.5467 0.66474 0.18587 0.0
C1138 C 0.59839 0.70539 0.16043 0.0
C1139 C 0.54599 0.66419 0.20943 0.0
O1140 O 0.56601 0.66314 0.22176 0.0
C1141 C 0.54591 0.63344 0.12917 0.0
C1142 C 0.59007 0.72846 0.15051 0.0
C1143 C 0.60681 0.74678 0.14566 0.0
C1144 C 0.59887 0.76966 0.13864 0.0
C1145 C 0.57423 0.77395 0.13653 0.0
C1146 C 0.55743 0.75668 0.14342 0.0
C1147 C 0.56531 0.73356 0.1494 0.0
O1148 O 0.58011 0.60677 0.18867 0.0
O1149 O 0.60331 0.64001 0.19099 0.0
O1150 O 0.59144 0.57072 0.12719 0.0
O1151 O 0.59259 0.5656 0.16481 0.0
C1152 C 0.59419 0.55492 0.14419 0.0
O1153 O 0.55919 0.65279 0.13257 0.0
O1154 O 0.55202 0.61235 0.13763 0.0
O1155 O 0.58685 0.69808 0.17962 0.0
O1156 O 0.60305 0.68797 0.14514 0.0
H1157 H 0.62578 0.74364 0.14855 0.0
H1158 H 0.56802 0.7919 0.13221 0.0
H1159 H 0.55235 0.72015 0.15492 0.0
O1160 O 0.35774 0.88013 0.88151 0.0
Tb1161 Tb 0.3513 0.89975 0.91444 0.0
Eu1162 Eu 0.3317 0.83903 0.92144 0.0
C1163 C 0.34452 0.88656 0.86312 0.0
O1164 O 0.32836 0.90341 0.8663 0.0
C1165 C 0.30006 0.88241 0.90487 0.0
O1166 O 0.30685 0.83782 0.95339 0.0
C1167 C 0.33645 0.79609 0.90398 0.0
C1168 C 0.30338 0.85721 0.96633 0.0
O1169 O 0.31551 0.87664 0.96097 0.0
C1170 C 0.3719 0.86631 0.95536 0.0
C1171 C 0.34694 0.77335 0.91249 0.0
C1172 C 0.35368 0.75528 0.89608 0.0
C1173 C 0.36299 0.73341 0.90456 0.0
C1174 C 0.36515 0.72971 0.92927 0.0
C1175 C 0.35777 0.74714 0.94567 0.0
C1176 C 0.34892 0.76908 0.9373 0.0
O1177 O 0.31281 0.89754 0.91749 0.0
O1178 O 0.30976 0.86247 0.89698 0.0
O1179 O 0.37651 0.92797 0.90347 0.0
O1180 O 0.34143 0.93777 0.91402 0.0
C1181 C 0.36185 0.94591 0.90632 0.0
O1182 O 0.36427 0.84659 0.94462 0.0
O1183 O 0.36633 0.88809 0.94817 0.0
O1184 O 0.31741 0.80335 0.91582 0.0
O1185 O 0.35154 0.8136 0.89911 0.0
H1186 H 0.35142 0.75808 0.87699 0.0
H1187 H 0.37146 0.7125 0.93585 0.0
H1188 H 0.34317 0.78257 0.95007 0.0
O1189 O 0.3669 0.61434 0.62468 0.0
Tb1190 Tb 0.35113 0.60149 0.59108 0.0
Eu1191 Eu 0.33116 0.66395 0.57911 0.0
C1192 C 0.35986 0.63291 0.63744 0.0
O1193 O 0.34573 0.64898 0.62794 0.0
C1194 C 0.29916 0.62222 0.60239 0.0
O1195 O 0.30841 0.66113 0.54571 0.0
C1196 C 0.335 0.70837 0.59273 0.0
C1197 C 0.30169 0.64005 0.53748 0.0
O1198 O 0.30981 0.62069 0.54803 0.0
C1199 C 0.36895 0.63419 0.54851 0.0
C1200 C 0.34767 0.73043 0.58571 0.0
C1201 C 0.35268 0.74807 0.60309 0.0
C1202 C 0.36253 0.77031 0.59625 0.0
C1203 C 0.36792 0.77422 0.57202 0.0
C1204 C 0.36277 0.75694 0.55462 0.0
C1205 C 0.35274 0.73499 0.56144 0.0
O1206 O 0.3124 0.60457 0.59408 0.0
O1207 O 0.30693 0.64429 0.60457 0.0
O1208 O 0.33678 0.56505 0.59307 0.0
O1209 O 0.37432 0.56959 0.59327 0.0
C1210 C 0.35711 0.55387 0.59439 0.0
O1211 O 0.36647 0.65269 0.56288 0.0
O1212 O 0.36136 0.61276 0.55496 0.0
O1213 O 0.31855 0.70066 0.57772 0.0
O1214 O 0.34807 0.69103 0.60188 0.0
H1215 H 0.34808 0.74483 0.62169 0.0
H1216 H 0.37433 0.79168 0.56628 0.0
H1217 H 0.34813 0.72191 0.54782 0.0
O1218 O 0.88539 0.36718 0.6214 0.0
Tb1219 Tb 0.90028 0.35042 0.58919 0.0
Eu1220 Eu 0.83848 0.33266 0.57658 0.0
C1221 C 0.86859 0.3576 0.63494 0.0
O1222 O 0.85518 0.34049 0.62623 0.0
C1223 C 0.87912 0.29826 0.60139 0.0
O1224 O 0.83915 0.31284 0.54148 0.0
C1225 C 0.79467 0.33782 0.59128 0.0
C1226 C 0.85904 0.30223 0.53456 0.0
O1227 O 0.87858 0.30523 0.54732 0.0
C1228 C 0.86936 0.3691 0.54633 0.0
C1229 C 0.77283 0.35072 0.58418 0.0
C1230 C 0.75471 0.35474 0.60125 0.0
C1231 C 0.73212 0.36324 0.59401 0.0
C1232 C 0.72821 0.36841 0.56972 0.0
C1233 C 0.7458 0.36365 0.55252 0.0
C1234 C 0.76833 0.35537 0.55981 0.0
O1235 O 0.89746 0.31231 0.59658 0.0
O1236 O 0.85652 0.30402 0.59825 0.0
O1237 O 0.93157 0.3739 0.59437 0.0
O1238 O 0.93702 0.33675 0.58958 0.0
C1239 C 0.94769 0.35704 0.59347 0.0
O1240 O 0.8509 0.36774 0.56085 0.0
O1241 O 0.89005 0.35967 0.55254 0.0
O1242 O 0.80161 0.3209 0.57643 0.0
O1243 O 0.81252 0.3506 0.59993 0.0
H1244 H 0.7576 0.34965 0.61979 0.0
H1245 H 0.71036 0.3734 0.56375 0.0
H1246 H 0.78172 0.35101 0.54639 0.0
O1247 O 0.13039 0.88358 0.62672 0.0
Tb1248 Tb 0.1472 0.89834 0.59455 0.0
Eu1249 Eu 0.16714 0.83468 0.58119 0.0
C1250 C 0.13922 0.86614 0.63991 0.0
O1251 O 0.15522 0.85169 0.63073 0.0
C1252 C 0.19952 0.87701 0.60419 0.0
O1253 O 0.18772 0.83488 0.54635 0.0
C1254 C 0.16134 0.79087 0.59617 0.0
C1255 C 0.19706 0.85501 0.53835 0.0
O1256 O 0.19262 0.87494 0.55004 0.0
C1257 C 0.13152 0.86669 0.55086 0.0
C1258 C 0.14901 0.76901 0.58791 0.0
C1259 C 0.14235 0.75099 0.60439 0.0
C1260 C 0.13186 0.72953 0.59615 0.0
C1261 C 0.1281 0.72649 0.57151 0.0
C1262 C 0.1353 0.74392 0.55504 0.0
C1263 C 0.1456 0.76524 0.56322 0.0
O1264 O 0.18591 0.89472 0.59658 0.0
O1265 O 0.19297 0.85441 0.60491 0.0
O1266 O 0.12421 0.9305 0.59424 0.0
O1267 O 0.1612 0.93438 0.60124 0.0
C1268 C 0.14106 0.94585 0.59928 0.0
O1269 O 0.13244 0.84821 0.56545 0.0
O1270 O 0.13872 0.88802 0.55787 0.0
O1271 O 0.17944 0.79789 0.58283 0.0
O1272 O 0.14771 0.80873 0.60334 0.0
H1273 H 0.14586 0.75338 0.62335 0.0
H1274 H 0.12115 0.70956 0.56487 0.0
H1275 H 0.15163 0.7785 0.55035 0.0
O1276 O 0.61784 0.14215 0.61906 0.0
Tb1277 Tb 0.59856 0.14949 0.586 0.0
Eu1278 Eu 0.66035 0.16726 0.57684 0.0
C1279 C 0.61214 0.15603 0.63727 0.0
O1280 O 0.59625 0.17307 0.63378 0.0
C1281 C 0.6184 0.20011 0.59508 0.0
O1282 O 0.66017 0.19146 0.54451 0.0
C1283 C 0.70429 0.16268 0.59185 0.0
C1284 C 0.64015 0.1957 0.53286 0.0
O1285 O 0.6205 0.18478 0.5397 0.0
C1286 C 0.63038 0.13071 0.54265 0.0
C1287 C 0.72728 0.15262 0.58329 0.0
C1288 C 0.74535 0.14652 0.59994 0.0
C1289 C 0.76794 0.13853 0.59193 0.0
C1290 C 0.77222 0.13697 0.56724 0.0
C1291 C 0.75471 0.14343 0.55051 0.0
C1292 C 0.73215 0.15112 0.55852 0.0
O1293 O 0.60205 0.18795 0.58338 0.0
O1294 O 0.63824 0.18963 0.60228 0.0
O1295 O 0.56142 0.16165 0.58953 0.0
O1296 O 0.56896 0.12478 0.59434 0.0
C1297 C 0.55206 0.14092 0.59453 0.0
O1298 O 0.65029 0.13453 0.55489 0.0
O1299 O 0.609 0.13689 0.55066 0.0
O1300 O 0.69637 0.18142 0.57998 0.0
O1301 O 0.68717 0.14746 0.59761 0.0
H1302 H 0.74205 0.14857 0.61898 0.0
H1303 H 0.78997 0.13213 0.56087 0.0
H1304 H 0.71867 0.15645 0.54555 0.0
O1305 O 0.13358 0.61456 0.87743 0.0
Tb1306 Tb 0.14982 0.60047 0.91034 0.0
Eu1307 Eu 0.16906 0.66286 0.92274 0.0
C1308 C 0.14167 0.63235 0.86415 0.0
O1309 O 0.15686 0.64773 0.87316 0.0
C1310 C 0.20141 0.62007 0.90328 0.0
O1311 O 0.18716 0.66298 0.95883 0.0
C1312 C 0.16481 0.70687 0.90805 0.0
C1313 C 0.20998 0.65754 0.96155 0.0
O1314 O 0.22281 0.65141 0.9428 0.0
C1315 C 0.13116 0.63204 0.9533 0.0
C1316 C 0.15425 0.72928 0.91724 0.0
C1317 C 0.14736 0.74761 0.90123 0.0
C1318 C 0.13796 0.76924 0.91013 0.0
C1319 C 0.13591 0.77248 0.93491 0.0
C1320 C 0.14343 0.75477 0.951 0.0
C1321 C 0.15232 0.73302 0.94214 0.0
O1322 O 0.18807 0.60499 0.91535 0.0
O1323 O 0.19391 0.64186 0.89871 0.0
O1324 O 0.12933 0.56681 0.91325 0.0
O1325 O 0.16483 0.56586 0.89994 0.0
C1326 C 0.14618 0.5529 0.90496 0.0
O1327 O 0.13402 0.65128 0.93984 0.0
O1328 O 0.13846 0.61078 0.94613 0.0
O1329 O 0.18345 0.69883 0.92002 0.0
O1330 O 0.14975 0.68982 0.9018 0.0
H1331 H 0.14957 0.74519 0.88207 0.0
H1332 H 0.12967 0.7896 0.94177 0.0
H1333 H 0.15817 0.71927 0.9546 0.0
O1334 O 0.88411 0.14624 0.88 0.0
Tb1335 Tb 0.90565 0.15174 0.91205 0.0
Eu1336 Eu 0.8445 0.17032 0.92036 0.0
C1337 C 0.88293 0.12546 0.86895 0.0
O1338 O 0.89064 0.10625 0.88021 0.0
C1339 C 0.88627 0.20134 0.89974 0.0
O1340 O 0.84477 0.19783 0.95005 0.0
C1341 C 0.80081 0.16393 0.90527 0.0
C1342 C 0.86448 0.20185 0.96234 0.0
O1343 O 0.88363 0.18908 0.95746 0.0
C1344 C 0.874 0.13332 0.95619 0.0
C1345 C 0.77827 0.15375 0.91476 0.0
C1346 C 0.75935 0.14768 0.89903 0.0
C1347 C 0.73761 0.13879 0.90826 0.0
C1348 C 0.73489 0.13635 0.93305 0.0
C1349 C 0.75316 0.14298 0.94888 0.0
C1350 C 0.77497 0.15151 0.93971 0.0
O1351 O 0.90247 0.19029 0.91266 0.0
O1352 O 0.86682 0.18994 0.89302 0.0
O1353 O 0.93415 0.12808 0.89838 0.0
O1354 O 0.94355 0.16227 0.91181 0.0
C1355 C 0.95191 0.14281 0.9021 0.0
O1356 O 0.85365 0.14026 0.94616 0.0
O1357 O 0.89536 0.13755 0.94688 0.0
O1358 O 0.80824 0.18361 0.91588 0.0
O1359 O 0.81832 0.14876 0.90065 0.0
H1360 H 0.76142 0.15012 0.87987 0.0
H1361 H 0.71778 0.13034 0.94018 0.0
H1362 H 0.78913 0.15678 0.95195 0.0
O1363 O 0.6225 0.3568 0.87836 0.0
Tb1364 Tb 0.6042 0.34947 0.9121 0.0
Eu1365 Eu 0.66527 0.32994 0.92028 0.0
C1366 C 0.61683 0.34294 0.86011 0.0
O1367 O 0.60166 0.32529 0.86376 0.0
C1368 C 0.62248 0.29841 0.90378 0.0
O1369 O 0.66613 0.3038 0.95133 0.0
C1370 C 0.70798 0.33629 0.9028 0.0
C1371 C 0.64676 0.30035 0.96437 0.0
O1372 O 0.62762 0.31319 0.95967 0.0
C1373 C 0.63712 0.36899 0.95452 0.0
C1374 C 0.73002 0.34855 0.91075 0.0
C1375 C 0.74787 0.35501 0.89402 0.0
C1376 C 0.76923 0.36595 0.90189 0.0
C1377 C 0.77246 0.37023 0.9264 0.0
C1378 C 0.75525 0.36322 0.94319 0.0
C1379 C 0.73393 0.35254 0.93537 0.0
O1380 O 0.60686 0.31105 0.91591 0.0
O1381 O 0.64197 0.3085 0.89536 0.0
O1382 O 0.57498 0.37492 0.90514 0.0
O1383 O 0.56667 0.3382 0.90973 0.0
C1384 C 0.55767 0.35925 0.90552 0.0
O1385 O 0.65707 0.36187 0.94394 0.0
O1386 O 0.61549 0.36369 0.94655 0.0
O1387 O 0.70177 0.31743 0.91552 0.0
O1388 O 0.68967 0.3501 0.89718 0.0
H1389 H 0.74539 0.35114 0.87514 0.0
H1390 H 0.78936 0.3776 0.93268 0.0
H1391 H 0.72069 0.34686 0.94845 0.0
C1392 C 0.11855 0.74128 0.12885 0.0
C1393 C 0.10328 0.72878 0.11308 0.0
C1394 C 0.12443 0.7654 0.12487 0.0
C1395 C 0.11505 0.77792 0.10512 0.0
H1396 H 0.12601 0.73243 0.14445 0.0
H1397 H 0.13608 0.77439 0.13756 0.0
S1398 S 0.07534 0.75321 0.0577 0.0
N1399 N 0.07963 0.73069 0.07638 0.0
N1400 N 0.09068 0.77583 0.06898 0.0
C1401 C 0.10009 0.76557 0.08901 0.0
C1402 C 0.09421 0.74105 0.09296 0.0
C1403 C 0.74315 0.12777 0.12185 0.0
C1404 C 0.72887 0.11184 0.10843 0.0
C1405 C 0.7674 0.12292 0.1262 0.0
C1406 C 0.77822 0.1021 0.11707 0.0
H1407 H 0.73572 0.14435 0.12873 0.0
H1408 H 0.77788 0.13588 0.13618 0.0
S1409 S 0.74829 0.0532 0.08334 0.0
N1410 N 0.72702 0.07327 0.08789 0.0
N1411 N 0.77264 0.06446 0.09581 0.0
C1412 C 0.76404 0.08561 0.10439 0.0
C1413 C 0.73933 0.09038 0.10016 0.0
C1414 C 0.38486 0.76429 0.12878 0.0
C1415 C 0.39795 0.77839 0.11239 0.0
C1416 C 0.38016 0.74003 0.12422 0.0
C1417 C 0.3886 0.72896 0.10324 0.0
H1418 H 0.37843 0.77189 0.14545 0.0
H1419 H 0.37031 0.72978 0.13745 0.0
S1420 S 0.4214 0.75828 0.05331 0.0
N1421 N 0.41758 0.77972 0.07334 0.0
N1422 N 0.40898 0.73413 0.06505 0.0
C1423 C 0.40106 0.74293 0.08637 0.0
C1424 C 0.40564 0.76765 0.09086 0.0
C1425 C 0.73921 0.41272 0.09412 0.0
C1426 C 0.72677 0.39974 0.11178 0.0
C1427 C 0.76332 0.4082 0.08928 0.0
C1428 C 0.77602 0.39039 0.10179 0.0
H1429 H 0.73038 0.42677 0.08401 0.0
H1430 H 0.77197 0.41875 0.07545 0.0
S1431 S 0.7517 0.35093 0.14955 0.0
N1432 N 0.72883 0.36804 0.14172 0.0
N1433 N 0.77439 0.35945 0.13253 0.0
C1434 C 0.76383 0.37704 0.11938 0.0
C1435 C 0.73916 0.38177 0.12444 0.0
C1436 C 0.09712 0.76422 0.40452 0.0
C1437 C 0.11152 0.77588 0.38741 0.0
C1438 C 0.09937 0.73963 0.40875 0.0
C1439 C 0.1163 0.72573 0.39625 0.0
H1440 H 0.08366 0.77406 0.41451 0.0
H1441 H 0.08783 0.73154 0.42212 0.0
S1442 S 0.15893 0.74787 0.3501 0.0
N1443 N 0.14354 0.77187 0.3581 0.0
N1444 N 0.14814 0.72559 0.36634 0.0
C1445 C 0.13107 0.73721 0.37929 0.0
C1446 C 0.12855 0.76229 0.37476 0.0
C1447 C 0.76983 0.12808 0.3809 0.0
C1448 C 0.7828 0.11391 0.39725 0.0
C1449 C 0.74545 0.12386 0.37654 0.0
C1450 C 0.73307 0.10547 0.38857 0.0
H1451 H 0.77854 0.14257 0.3713 0.0
H1452 H 0.73623 0.13523 0.36379 0.0
S1453 S 0.75885 0.06282 0.43276 0.0
N1454 N 0.78144 0.08037 0.42523 0.0
N1455 N 0.7357 0.07259 0.41716 0.0
C1456 C 0.74582 0.09111 0.40492 0.0
C1457 C 0.77066 0.09526 0.40922 0.0
C1458 C 0.40778 0.76657 0.40793 0.0
C1459 C 0.38869 0.77866 0.3967 0.0
C1460 C 0.41235 0.74242 0.40333 0.0
C1461 C 0.39817 0.72931 0.38717 0.0
H1462 H 0.41924 0.77569 0.42068 0.0
H1463 H 0.42727 0.73402 0.41253 0.0
S1464 S 0.34608 0.75235 0.35281 0.0
N1465 N 0.35544 0.77563 0.36855 0.0
N1466 N 0.36429 0.73005 0.35972 0.0
C1467 C 0.37916 0.7411 0.37553 0.0
C1468 C 0.37434 0.7658 0.38039 0.0
C1469 C 0.74533 0.3676 0.39458 0.0
C1470 C 0.72711 0.3849 0.39179 0.0
C1471 C 0.76947 0.37344 0.39053 0.0
C1472 C 0.77595 0.39658 0.38317 0.0
H1473 H 0.74099 0.34959 0.40042 0.0
H1474 H 0.78309 0.3598 0.39304 0.0
S1475 S 0.73539 0.44809 0.37255 0.0
N1476 N 0.71746 0.42611 0.38109 0.0
N1477 N 0.7627 0.43665 0.37268 0.0
C1478 C 0.75802 0.41387 0.37992 0.0
C1479 C 0.73358 0.40814 0.38447 0.0
C1480 C 0.12593 0.1248 0.73727 0.0
C1481 C 0.12038 0.10185 0.72855 0.0
C1482 C 0.12199 0.13071 0.7614 0.0
C1483 C 0.11275 0.11372 0.77769 0.0
H1484 H 0.13261 0.1385 0.72521 0.0
H1485 H 0.12585 0.14885 0.76717 0.0
S1486 S 0.09838 0.04999 0.76376 0.0
N1487 N 0.10705 0.06154 0.73794 0.0
N1488 N 0.10022 0.0721 0.78334 0.0
C1489 C 0.10827 0.09027 0.7692 0.0
C1490 C 0.11191 0.08449 0.7446 0.0
C1491 C 0.4092 0.09472 0.73985 0.0
C1492 C 0.39577 0.11225 0.72769 0.0
C1493 C 0.40573 0.09037 0.76425 0.0
C1494 C 0.38854 0.10321 0.77749 0.0
H1495 H 0.42277 0.08438 0.73056 0.0
H1496 H 0.41656 0.07663 0.7727 0.0
S1497 S 0.34837 0.15084 0.7541 0.0
N1498 N 0.36443 0.1425 0.73066 0.0
N1499 N 0.35772 0.13411 0.77665 0.0
C1500 C 0.37478 0.12067 0.76558 0.0
C1501 C 0.37847 0.12528 0.74066 0.0
C1502 C 0.40733 0.4125 0.73974 0.0
C1503 C 0.39007 0.39893 0.72738 0.0
C1504 C 0.41336 0.40728 0.76346 0.0
C1505 C 0.40251 0.38815 0.77581 0.0
H1506 H 0.41615 0.42754 0.73115 0.0
H1507 H 0.42673 0.41841 0.77211 0.0
S1508 S 0.35694 0.34631 0.7511 0.0
N1509 N 0.36258 0.36509 0.72892 0.0
N1510 N 0.3741 0.35503 0.77358 0.0
C1511 C 0.38543 0.37414 0.76356 0.0
C1512 C 0.37913 0.37962 0.73936 0.0
C1513 C 0.09583 0.40859 0.76441 0.0
C1514 C 0.11361 0.39554 0.77664 0.0
C1515 C 0.09051 0.40392 0.74042 0.0
C1516 C 0.10258 0.38585 0.72766 0.0
H1517 H 0.08597 0.42277 0.77331 0.0
H1518 H 0.07664 0.41454 0.73192 0.0
S1519 S 0.15047 0.34616 0.75147 0.0
N1520 N 0.14336 0.36371 0.77423 0.0
N1521 N 0.13296 0.3545 0.72911 0.0
C1522 C 0.12028 0.37243 0.73967 0.0
C1523 C 0.12593 0.37742 0.76414 0.0
C1524 C 0.90905 0.26511 0.90337 0.0
C1525 C 0.89568 0.27714 0.88571 0.0
C1526 C 0.90601 0.2406 0.90751 0.0
C1527 C 0.88928 0.2271 0.89431 0.0
H1528 H 0.92228 0.2746 0.91399 0.0
H1529 H 0.91675 0.23225 0.92136 0.0
S1530 S 0.84953 0.25001 0.8461 0.0
N1531 N 0.865 0.27369 0.85485 0.0
N1532 N 0.85901 0.22756 0.8629 0.0
C1533 C 0.87561 0.23888 0.8767 0.0
C1534 C 0.87888 0.26389 0.8723 0.0
C1535 C 0.237 0.87726 0.87968 0.0
C1536 C 0.22562 0.89773 0.88895 0.0
C1537 C 0.26117 0.87255 0.8847 0.0
C1538 C 0.27485 0.88827 0.89897 0.0
H1539 H 0.22705 0.86452 0.86889 0.0
H1540 H 0.26908 0.85633 0.87749 0.0
S1541 S 0.25375 0.94566 0.92562 0.0
N1542 N 0.23007 0.93466 0.91175 0.0
N1543 N 0.27537 0.92597 0.92114 0.0
C1544 C 0.26377 0.90923 0.90772 0.0
C1545 C 0.23918 0.9139 0.90273 0.0
C1546 C 0.62085 0.2377 0.87344 0.0
C1547 C 0.60733 0.2238 0.88962 0.0
C1548 C 0.62605 0.26181 0.87827 0.0
C1549 C 0.61768 0.27287 0.8993 0.0
H1550 H 0.62724 0.23004 0.85678 0.0
H1551 H 0.63623 0.27198 0.86521 0.0
S1552 S 0.5835 0.24404 0.94854 0.0
N1553 N 0.58708 0.22268 0.92839 0.0
N1554 N 0.59666 0.26796 0.93714 0.0
C1555 C 0.60465 0.25912 0.91586 0.0
C1556 C 0.59953 0.23457 0.91111 0.0
C1557 C 0.26507 0.62492 0.87975 0.0
C1558 C 0.2756 0.60341 0.88749 0.0
C1559 C 0.24099 0.62998 0.88467 0.0
C1560 C 0.22647 0.61357 0.89726 0.0
H1561 H 0.27565 0.63819 0.87028 0.0
H1562 H 0.23383 0.64703 0.87872 0.0
S1563 S 0.24516 0.55333 0.91893 0.0
N1564 N 0.26958 0.56481 0.90679 0.0
N1565 N 0.2242 0.57399 0.91578 0.0
C1566 C 0.23666 0.59153 0.9043 0.0
C1567 C 0.26128 0.58656 0.89952 0.0
C1568 C 0.87182 0.25459 0.59778 0.0
C1569 C 0.88414 0.27359 0.60891 0.0
C1570 C 0.87718 0.23074 0.6034 0.0
C1571 C 0.89445 0.22528 0.62082 0.0
H1572 H 0.85847 0.25818 0.58413 0.0
H1573 H 0.86778 0.2165 0.5941 0.0
S1574 S 0.93136 0.26848 0.65533 0.0
N1575 N 0.91435 0.28545 0.63798 0.0
N1576 N 0.92378 0.24048 0.64928 0.0
C1577 C 0.90653 0.24408 0.63244 0.0
C1578 C 0.90154 0.26833 0.62626 0.0
C1579 C 0.24305 0.86877 0.60015 0.0
C1580 C 0.22445 0.88256 0.61018 0.0
C1581 C 0.2671 0.87475 0.60421 0.0
C1582 C 0.27306 0.89422 0.61895 0.0
H1583 H 0.23897 0.8537 0.58858 0.0
H1584 H 0.28106 0.86404 0.59597 0.0
S1585 S 0.23097 0.93558 0.64962 0.0
N1586 N 0.21349 0.91646 0.63523 0.0
N1587 N 0.25875 0.92716 0.6437 0.0
C1588 C 0.25464 0.90785 0.62941 0.0
C1589 C 0.23024 0.90215 0.62478 0.0
C1590 C 0.59522 0.23754 0.58829 0.0
C1591 C 0.61339 0.22548 0.60095 0.0
C1592 C 0.58959 0.26142 0.59323 0.0
C1593 C 0.60175 0.27426 0.61117 0.0
H1594 H 0.58524 0.22855 0.57426 0.0
H1595 H 0.57539 0.26977 0.58293 0.0
S1596 S 0.65087 0.25096 0.64966 0.0
N1597 N 0.64377 0.22819 0.63213 0.0
N1598 N 0.63284 0.2731 0.64182 0.0
C1599 C 0.61997 0.26245 0.62409 0.0
C1600 C 0.62591 0.23809 0.61883 0.0
C1601 C 0.24294 0.58874 0.62025 0.0
C1602 C 0.22496 0.60586 0.61622 0.0
C1603 C 0.26708 0.59432 0.61618 0.0
C1604 C 0.27386 0.61722 0.60803 0.0
H1605 H 0.2383 0.57091 0.62644 0.0
H1606 H 0.28048 0.58061 0.61934 0.0
S1607 S 0.23283 0.66744 0.59295 0.0
N1608 N 0.21495 0.64587 0.60258 0.0
N1609 N 0.26035 0.65664 0.59489 0.0
C1610 C 0.25585 0.63441 0.60384 0.0
C1611 C 0.23133 0.62864 0.60793 0.0
C1612 C 0.91654 0.90381 0.24185 0.0
C1613 C 0.90153 0.88825 0.2289 0.0
C1614 C 0.91257 0.9084 0.26613 0.0
C1615 C 0.89331 0.89776 0.27848 0.0
H1616 H 0.93168 0.91242 0.23323 0.0
H1617 H 0.92469 0.9206 0.27517 0.0
S1618 S 0.84846 0.85585 0.25256 0.0
N1619 N 0.86654 0.86224 0.23001 0.0
N1620 N 0.8589 0.87094 0.27579 0.0
C1621 C 0.87809 0.88212 0.26574 0.0
C1622 C 0.88227 0.87732 0.24093 0.0
C1623 C 0.61664 0.87441 0.26364 0.0
C1624 C 0.60351 0.89052 0.27801 0.0
C1625 C 0.62223 0.87995 0.23975 0.0
C1626 C 0.6147 0.90166 0.22946 0.0
H1627 H 0.62233 0.85725 0.27073 0.0
H1628 H 0.63193 0.86689 0.22912 0.0
S1629 S 0.58243 0.95118 0.25997 0.0
N1630 N 0.58493 0.93005 0.28053 0.0
N1631 N 0.59531 0.94017 0.23573 0.0
C1632 C 0.6023 0.91823 0.24378 0.0
C1633 C 0.59673 0.91273 0.26805 0.0
C1634 C 0.61642 0.62834 0.23936 0.0
C1635 C 0.5994 0.61489 0.22645 0.0
C1636 C 0.62208 0.62267 0.26319 0.0
C1637 C 0.61076 0.60349 0.27502 0.0
H1638 H 0.62555 0.64331 0.23101 0.0
H1639 H 0.63526 0.63354 0.27245 0.0
S1640 S 0.56522 0.56232 0.24917 0.0
N1641 N 0.57145 0.58128 0.22736 0.0
N1642 N 0.5821 0.57071 0.27194 0.0
C1643 C 0.59373 0.58989 0.26233 0.0
C1644 C 0.58805 0.59556 0.2381 0.0
C1645 C 0.90337 0.63522 0.25841 0.0
C1646 C 0.89359 0.6209 0.27675 0.0
C1647 C 0.89919 0.6298 0.23424 0.0
C1648 C 0.88456 0.61036 0.22789 0.0
H1649 H 0.91479 0.65033 0.26278 0.0
H1650 H 0.90716 0.64098 0.2205 0.0
S1651 S 0.85469 0.56758 0.26913 0.0
N1652 N 0.86899 0.58641 0.28697 0.0
N1653 N 0.86031 0.57678 0.24155 0.0
C1654 C 0.87445 0.59613 0.24605 0.0
C1655 C 0.8792 0.60126 0.27054 0.0
C1656 C 0.10782 0.66048 0.01095 0.0
C1657 C 0.1039 0.64068 0.02611 0.0
C1658 C 0.11582 0.65748 0.98726 0.0
C1659 C 0.12023 0.63452 0.97765 0.0
H1660 H 0.10519 0.67855 0.01759 0.0
H1661 H 0.11916 0.6734 0.97665 0.0
S1662 S 0.11116 0.57666 0.00965 0.0
N1663 N 0.10394 0.59729 0.02961 0.0
N1664 N 0.11879 0.59145 0.98518 0.0
C1665 C 0.11564 0.61449 0.99249 0.0
C1666 C 0.10754 0.61762 0.01666 0.0
C1667 C 0.8476 0.10526 0.01265 0.0
C1668 C 0.86721 0.10432 0.02847 0.0
C1669 C 0.85017 0.11371 0.98908 0.0
C1670 C 0.87254 0.12153 0.98022 0.0
H1671 H 0.82988 0.10003 0.01869 0.0
H1672 H 0.8343 0.11462 0.97793 0.0
S1673 S 0.92991 0.12143 0.01427 0.0
N1674 N 0.90997 0.1109 0.03345 0.0
N1675 N 0.91501 0.12673 0.98926 0.0
C1676 C 0.89253 0.11981 0.99568 0.0
C1677 C 0.88982 0.11126 0.01975 0.0
C1678 C 0.38592 0.84151 0.99006 0.0
C1679 C 0.38568 0.86374 0.97807 0.0
C1680 C 0.39537 0.83934 0.01323 0.0
C1681 C 0.40503 0.85924 0.02532 0.0
H1682 H 0.37775 0.82582 0.98205 0.0
H1683 H 0.39417 0.82207 0.02207 0.0
S1684 S 0.41198 0.92065 1.00083 0.0
N1685 N 0.39846 0.90555 0.97925 0.0
N1686 N 0.41607 0.90129 0.02286 0.0
C1687 C 0.40639 0.88118 0.01307 0.0
C1688 C 0.39674 0.88347 0.98944 0.0
C1689 C 0.62072 0.39378 0.01601 0.0
C1690 C 0.64272 0.40226 0.02487 0.0
C1691 C 0.6189 0.38405 0.99287 0.0
C1692 C 0.63907 0.3822 0.97769 0.0
H1693 H 0.60488 0.39407 0.02725 0.0
H1694 H 0.60164 0.37714 0.98724 0.0
S1695 S 0.70067 0.40335 0.99202 0.0
N1696 N 0.6849 0.40942 0.01632 0.0
N1697 N 0.68162 0.39106 0.973 0.0
C1698 C 0.66105 0.39144 0.98611 0.0
C1699 C 0.66284 0.40149 0.00963 0.0
C1700 C 0.11531 0.88343 0.51228 0.0
C1701 C 0.12281 0.86345 0.52585 0.0
C1702 C 0.10875 0.88111 0.48806 0.0
C1703 C 0.10982 0.85881 0.47637 0.0
H1704 H 0.11473 0.90109 0.52035 0.0
H1705 H 0.10345 0.89703 0.47826 0.0
S1706 S 0.12768 0.80078 0.50372 0.0
N1707 N 0.13027 0.82043 0.5257 0.0
N1708 N 0.11829 0.81621 0.48028 0.0
C1709 C 0.11686 0.83862 0.48977 0.0
C1710 C 0.12325 0.8409 0.51448 0.0
C1711 C 0.65672 0.10067 0.48727 0.0
C1712 C 0.63941 0.10518 0.46947 0.0
C1713 C 0.65333 0.10824 0.51104 0.0
C1714 C 0.63236 0.12046 0.51805 0.0
H1715 H 0.67334 0.09169 0.48271 0.0
H1716 H 0.66746 0.10482 0.52391 0.0
S1717 S 0.58137 0.13648 0.47817 0.0
N1718 N 0.60042 0.12235 0.46045 0.0
N1719 N 0.59387 0.13652 0.50499 0.0
C1720 C 0.61462 0.12455 0.50047 0.0
C1721 C 0.61819 0.11695 0.47623 0.0
C1722 C 0.39068 0.62096 0.48485 0.0
C1723 C 0.39731 0.64367 0.47608 0.0
C1724 C 0.38218 0.61799 0.50842 0.0
C1725 C 0.3799 0.6376 0.52425 0.0
H1726 H 0.39168 0.60538 0.47329 0.0
H1727 H 0.37694 0.60016 0.51406 0.0
S1728 S 0.39535 0.70096 0.51003 0.0
N1729 N 0.40147 0.68611 0.48517 0.0
N1730 N 0.38553 0.68068 0.52922 0.0
C1731 C 0.38692 0.6604 0.51575 0.0
C1732 C 0.3956 0.66338 0.49177 0.0
C1733 C 0.88419 0.3925 0.48365 0.0
C1734 C 0.86158 0.39837 0.47414 0.0
C1735 C 0.88661 0.38363 0.50715 0.0
C1736 C 0.8665 0.38033 0.52216 0.0
H1737 H 0.90013 0.39422 0.47268 0.0
H1738 H 0.90439 0.37895 0.51341 0.0
S1739 S 0.80319 0.39368 0.50589 0.0
N1740 N 0.81871 0.40083 0.48172 0.0
N1741 N 0.82311 0.38427 0.52564 0.0
C1742 C 0.84381 0.38672 0.51297 0.0
C1743 C 0.84139 0.39569 0.48906 0.0
C1744 C 0.99433 0.11686 0.61899 0.0
C1745 C 0.97863 0.11937 0.63868 0.0
C1746 C 0.01802 0.10862 0.62192 0.0
C1747 C 0.02709 0.10255 0.64466 0.0
H1748 H 0.98844 0.12162 0.60111 0.0
H1749 H 0.02943 0.10738 0.60625 0.0
S1750 S 0.99367 0.10557 0.70221 0.0
N1751 N 0.97418 0.11473 0.68191 0.0
N1752 N 0.01844 0.09932 0.68726 0.0
C1753 C 0.01157 0.10459 0.66448 0.0
C1754 C 0.98745 0.11296 0.66153 0.0
C1755 C 0.37905 0.99534 0.61513 0.0
C1756 C 0.37963 0.97878 0.63424 0.0
C1757 C 0.38668 0.01919 0.61812 0.0
C1758 C 0.39525 0.02745 0.64033 0.0
H1759 H 0.37226 0.99002 0.59773 0.0
H1760 H 0.38553 0.03131 0.60299 0.0
S1761 S 0.40079 0.99156 0.69618 0.0
N1762 N 0.38987 0.9726 0.67626 0.0
N1763 N 0.40419 0.01718 0.68176 0.0
C1764 C 0.39634 0.01106 0.6595 0.0
C1765 C 0.38855 0.98681 0.6565 0.0
C1766 C 0.48974 0.39961 0.65537 0.0
C1767 C 0.47328 0.4011 0.63632 0.0
C1768 C 0.51306 0.39073 0.65189 0.0
C1769 C 0.52096 0.38312 0.62912 0.0
H1770 H 0.48438 0.40473 0.67331 0.0
H1771 H 0.52468 0.38922 0.66737 0.0
S1772 S 0.48523 0.38559 0.5728 0.0
N1773 N 0.46683 0.39574 0.59363 0.0
N1774 N 0.51057 0.37941 0.58679 0.0
C1775 C 0.5049 0.38559 0.60967 0.0
C1776 C 0.48111 0.3945 0.61333 0.0
C1777 C 0.10907 0.51271 0.65551 0.0
C1778 C 0.11854 0.52079 0.63351 0.0
C1779 C 0.09985 0.48942 0.65805 0.0
C1780 C 0.09984 0.47316 0.63878 0.0
H1781 H 0.10923 0.52427 0.67112 0.0
H1782 H 0.09334 0.48392 0.67551 0.0
S1783 S 0.12145 0.48531 0.57708 0.0
N1784 N 0.12636 0.51056 0.59172 0.0
N1785 N 0.10912 0.46691 0.59671 0.0
C1786 C 0.10847 0.48112 0.6165 0.0
C1787 C 0.11777 0.50488 0.61381 0.0
C1788 C 0.01776 0.39321 0.8818 0.0
C1789 C 0.02753 0.40031 0.8597 0.0
C1790 C 0.99398 0.38501 0.88354 0.0
C1791 C 0.97904 0.38332 0.86317 0.0
H1792 H 0.02871 0.39349 0.89784 0.0
H1793 H 0.98762 0.37912 0.90091 0.0
S1794 S 0.9958 0.40099 0.80112 0.0
N1795 N 0.02015 0.40622 0.81711 0.0
N1796 N 0.97572 0.39068 0.82026 0.0
C1797 C 0.98846 0.3911 0.84104 0.0
C1798 C 0.0126 0.39962 0.83933 0.0
C1799 C 0.12102 0.99205 0.84541 0.0
C1800 C 0.12032 0.9799 0.86757 0.0
C1801 C 0.11451 0.01624 0.84352 0.0
C1802 C 0.10685 0.02939 0.86361 0.0
H1803 H 0.12757 0.98316 0.82943 0.0
H1804 H 0.11611 0.02486 0.82618 0.0
S1805 S 0.09928 0.00588 0.92531 0.0
N1806 N 0.10945 0.98277 0.90984 0.0
N1807 N 0.09718 0.02825 0.90603 0.0
C1808 C 0.10482 0.01734 0.88563 0.0
C1809 C 0.11155 0.99263 0.88766 0.0
C1810 C 0.49394 0.10343 0.84369 0.0
C1811 C 0.47922 0.09925 0.86376 0.0
C1812 C 0.5178 0.11102 0.84632 0.0
C1813 C 0.52795 0.11469 0.86916 0.0
H1814 H 0.48676 0.1016 0.82573 0.0
H1815 H 0.52801 0.11494 0.83026 0.0
S1816 S 0.49757 0.1034 0.92749 0.0
N1817 N 0.47692 0.09737 0.90717 0.0
N1818 N 0.52172 0.11134 0.91232 0.0
C1819 C 0.51369 0.1093 0.8894 0.0
C1820 C 0.48936 0.10168 0.88665 0.0
C1821 C 0.3903 0.515 0.84538 0.0
C1822 C 0.38323 0.52398 0.86795 0.0
C1823 C 0.39973 0.49182 0.8428 0.0
C1824 C 0.40249 0.4765 0.86263 0.0
H1825 H 0.38803 0.52572 0.82935 0.0
H1826 H 0.40427 0.48564 0.82495 0.0
S1827 S 0.38832 0.49133 0.92589 0.0
N1828 N 0.38092 0.51571 0.91081 0.0
N1829 N 0.3986 0.4722 0.90578 0.0
C1830 C 0.39639 0.48539 0.88541 0.0
C1831 C 0.38681 0.50908 0.88812 0.0
C1832 C 0.61583 0.99964 0.12339 0.0
C1833 C 0.63509 0.98321 0.12338 0.0
C1834 C 0.61877 0.02337 0.11542 0.0
C1835 C 0.64102 0.03161 0.10692 0.0
H1836 H 0.59844 0.99442 0.13028 0.0
H1837 H 0.60358 0.03545 0.1163 0.0
S1838 S 0.69709 0.99593 0.1022 0.0
N1839 N 0.67721 0.97705 0.11335 0.0
N1840 N 0.68255 0.02141 0.09831 0.0
C1841 C 0.66027 0.01529 0.10614 0.0
C1842 C 0.65736 0.99119 0.11438 0.0
C1843 C 0.65973 0.4841 0.38836 0.0
C1844 C 0.63972 0.47047 0.39538 0.0
C1845 C 0.65733 0.50799 0.38095 0.0
C1846 C 0.63474 0.51934 0.38005 0.0
H1847 H 0.67743 0.47609 0.388 0.0
H1848 H 0.67335 0.51729 0.3751 0.0
S1849 S 0.57679 0.49173 0.39833 0.0
N1850 N 0.59675 0.47024 0.40237 0.0
N1851 N 0.592 0.51511 0.38836 0.0
C1852 C 0.61464 0.5061 0.38798 0.0
C1853 C 0.61718 0.4817 0.39564 0.0
C1854 C 0.00842 0.65727 0.4008 0.0
C1855 C 0.02473 0.63812 0.3989 0.0
C1856 C 0.98475 0.65519 0.39246 0.0
C1857 C 0.9763 0.63382 0.38192 0.0
H1858 H 0.01409 0.67425 0.40833 0.0
H1859 H 0.97314 0.67069 0.39397 0.0
S1860 S 0.01186 0.57802 0.37346 0.0
N1861 N 0.03073 0.59686 0.38631 0.0
N1862 N 0.98635 0.59279 0.37067 0.0
C1863 C 0.99235 0.61429 0.38048 0.0
C1864 C 0.01651 0.61648 0.38894 0.0
C1865 C 0.89095 0.01962 0.39514 0.0
C1866 C 0.86812 0.02961 0.39881 0.0
C1867 C 0.8937 0.99557 0.3881 0.0
C1868 C 0.87372 0.98048 0.38435 0.0
H1869 H 0.90686 0.03055 0.39738 0.0
H1870 H 0.91172 0.98895 0.38512 0.0
S1871 S 0.80982 0.99815 0.39155 0.0
N1872 N 0.82506 0.02259 0.39841 0.0
N1873 N 0.83013 0.97762 0.38504 0.0
C1874 C 0.85073 0.99022 0.3884 0.0
C1875 C 0.84797 0.0147 0.39563 0.0
C1876 C 0.49199 0.84537 0.39987 0.0
C1877 C 0.47714 0.8654 0.40375 0.0
C1878 C 0.51576 0.84803 0.39196 0.0
C1879 C 0.52571 0.87087 0.3877 0.0
H1880 H 0.48497 0.8274 0.40214 0.0
H1881 H 0.52605 0.83196 0.38831 0.0
S1882 S 0.49488 0.9292 0.39788 0.0
N1883 N 0.47447 0.90883 0.40458 0.0
N1884 N 0.5191 0.91406 0.39008 0.0
C1885 C 0.51131 0.89111 0.39274 0.0
C1886 C 0.48705 0.88833 0.40065 0.0
C1887 C 0.88642 0.51225 0.11725 0.0
C1888 C 0.86662 0.5278 0.11974 0.0
C1889 C 0.88364 0.48863 0.10884 0.0
C1890 C 0.86095 0.47957 0.10263 0.0
H1891 H 0.90424 0.5182 0.12217 0.0
H1892 H 0.89935 0.47727 0.10761 0.0
S1893 S 0.80323 0.51273 0.1054 0.0
N1894 N 0.82341 0.53222 0.1148 0.0
N1895 N 0.81831 0.48805 0.09913 0.0
C1896 C 0.84104 0.49497 0.1046 0.0
C1897 C 0.84384 0.51901 0.1131 0.0
C1898 C 0.02313 0.88589 0.11427 0.0
C1899 C 0.03238 0.86382 0.10639 0.0
C1900 C 0.99923 0.88799 0.12199 0.0
C1901 C 0.98361 0.86806 0.12234 0.0
H1902 H 0.03456 0.90158 0.11493 0.0
H1903 H 0.99326 0.9053 0.12846 0.0
S1904 S 0.99896 0.8063 0.1024 0.0
N1905 N 0.0239 0.82176 0.09847 0.0
N1906 N 0.9792 0.82559 0.11305 0.0
C1907 C 0.99255 0.84599 0.11383 0.0
C1908 C 0.01684 0.84391 0.10585 0.0
C1909 C 0.51208 0.6586 0.11349 0.0
C1910 C 0.52216 0.63575 0.11717 0.0
C1911 C 0.48833 0.66123 0.10562 0.0
C1912 C 0.4737 0.64115 0.10118 0.0
H1913 H 0.52221 0.67465 0.1176 0.0
H1914 H 0.48117 0.6792 0.1038 0.0
S1915 S 0.49202 0.5774 0.10521 0.0
N1916 N 0.51606 0.59256 0.1135 0.0
N1917 N 0.47142 0.59774 0.09906 0.0
C1918 C 0.48379 0.61825 0.10361 0.0
C1919 C 0.50802 0.61549 0.1115 0.0
C1920 C 0.89303 0.3548 0.01008 0.0
C1921 C 0.88058 0.37554 0.01733 0.0
C1922 C 0.90077 0.35183 0.98632 0.0
C1923 C 0.89625 0.36939 0.96877 0.0
H1924 H 0.8965 0.34049 0.02274 0.0
H1925 H 0.9099 0.33536 0.98158 0.0
S1926 S 0.86442 0.42703 0.97816 0.0
N1927 N 0.86429 0.41411 0.00479 0.0
N1928 N 0.87884 0.40839 0.96024 0.0
C1929 C 0.88429 0.39043 0.97578 0.0
C1930 C 0.87647 0.39354 1.00002 0.0
C1931 C 0.1188 0.88587 0.00962 0.0
C1932 C 0.1394 0.88357 0.02415 0.0
C1933 C 0.12043 0.89348 0.98565 0.0
C1934 C 0.14266 0.89933 0.97533 0.0
H1935 H 0.10133 0.88081 0.01644 0.0
H1936 H 0.10421 0.89424 0.975 0.0
S1937 S 0.20182 0.89831 0.00598 0.0
N1938 N 0.18263 0.88922 0.02661 0.0
N1939 N 0.1856 0.90364 0.98181 0.0
C1940 C 0.16326 0.89812 0.98988 0.0
C1941 C 0.16166 0.89021 0.0142 0.0
C1942 C 0.62027 0.11744 0.00916 0.0
C1943 C 0.62371 0.13791 0.02359 0.0
C1944 C 0.61218 0.1194 0.98539 0.0
C1945 C 0.60706 0.14188 0.9752 0.0
H1946 H 0.62484 0.09979 0.01587 0.0
H1947 H 0.61058 0.10324 0.97472 0.0
S1948 S 0.61064 0.20087 0.00594 0.0
N1949 N 0.61949 0.18132 0.02631 0.0
N1950 N 0.60433 0.18492 0.98183 0.0
C1951 C 0.60929 0.16239 0.98973 0.0
C1952 C 0.61759 0.16043 0.01386 0.0
C1953 C 0.38125 0.60616 0.98512 0.0
C1954 C 0.36049 0.61143 0.97178 0.0
C1955 C 0.38357 0.61367 0.00915 0.0
C1956 C 0.36519 0.62667 0.0207 0.0
H1957 H 0.39574 0.5961 0.97699 0.0
H1958 H 0.39989 0.60928 0.01872 0.0
S1959 S 0.30863 0.6477 0.99247 0.0
N1960 N 0.32208 0.63203 0.97129 0.0
N1961 N 0.32644 0.64619 0.01603 0.0
C1962 C 0.34458 0.63242 0.00729 0.0
C1963 C 0.34224 0.6248 0.98295 0.0
C1964 C 0.89878 0.11941 0.51857 0.0
C1965 C 0.90336 0.14186 0.5291 0.0
C1966 C 0.89116 0.11751 0.4946 0.0
C1967 C 0.88768 0.13801 0.48016 0.0
H1968 H 0.90033 0.10319 0.52914 0.0
H1969 H 0.88703 0.09983 0.48771 0.0
S1970 S 0.8995 0.20101 0.4987 0.0
N1971 N 0.90557 0.18495 0.5228 0.0
N1972 N 0.89135 0.18152 0.47798 0.0
C1973 C 0.89333 0.16053 0.49025 0.0
C1974 C 0.90112 0.16242 0.51462 0.0
C1975 C 0.38633 0.89016 0.49474 0.0
C1976 C 0.36669 0.88628 0.47929 0.0
C1977 C 0.38305 0.89812 0.51837 0.0
C1978 C 0.36001 0.90257 0.52753 0.0
H1979 H 0.40444 0.88632 0.48885 0.0
H1980 H 0.39866 0.90009 0.52975 0.0
S1981 S 0.30255 0.89688 0.49435 0.0
N1982 N 0.32326 0.88884 0.47479 0.0
N1983 N 0.31724 0.90383 0.51909 0.0
C1984 C 0.34025 0.89981 0.51209 0.0
C1985 C 0.34355 0.89167 0.48801 0.0
C1986 C 0.60483 0.34019 0.5077 0.0
C1987 C 0.60202 0.36015 0.52286 0.0
C1988 C 0.61386 0.34265 0.48431 0.0
C1989 C 0.62051 0.36521 0.47502 0.0
H1990 H 0.6005 0.32236 0.51408 0.0
H1991 H 0.61611 0.32656 0.47367 0.0
S1992 S 0.6155 0.4234 0.50729 0.0
N1993 N 0.60573 0.40336 0.52676 0.0
N1994 N 0.62264 0.40816 0.48294 0.0
C1995 C 0.61715 0.38545 0.48988 0.0
C1996 C 0.60793 0.38288 0.51373 0.0
C1997 C 0.1135 0.61773 0.49583 0.0
C1998 C 0.13275 0.61825 0.47939 0.0
C1999 C 0.1167 0.61004 0.51962 0.0
C2000 C 0.13923 0.60244 0.52798 0.0
H2001 H 0.09589 0.62398 0.49055 0.0
H2002 H 0.10147 0.61052 0.53167 0.0
S2003 S 0.19541 0.59923 0.4923 0.0
N2004 N 0.17518 0.60955 0.47333 0.0
N2005 N 0.18101 0.59511 0.51782 0.0
C2006 C 0.15849 0.60215 0.51165 0.0
C2007 C 0.1553 0.61003 0.48745 0.0
C2008 C 0.99748 0.89958 0.34704 0.0
C2009 C 0.98091 0.89801 0.36601 0.0
C2010 C 0.02106 0.89103 0.34947 0.0
C2011 C 0.02913 0.88056 0.37101 0.0
H2012 H 0.99211 0.90712 0.32997 0.0
H2013 H 0.03292 0.89237 0.33415 0.0
S2014 S 0.99253 0.87216 0.42616 0.0
N2015 N 0.97413 0.88535 0.4071 0.0
N2016 N 0.01825 0.86923 0.4118 0.0
C2017 C 0.01275 0.87925 0.39029 0.0
C2018 C 0.98872 0.88798 0.38776 0.0
C2019 C 0.61923 0.01073 0.38265 0.0
C2020 C 0.62482 0.0245 0.36216 0.0
C2021 C 0.60979 0.98747 0.38068 0.0
C2022 C 0.60544 0.97704 0.35817 0.0
H2023 H 0.62297 0.01755 0.40044 0.0
H2024 H 0.60656 0.97734 0.39693 0.0
S2025 S 0.61469 0.00595 0.2989 0.0
N2026 N 0.62355 0.02627 0.3185 0.0
N2027 N 0.60586 0.98269 0.31494 0.0
C2028 C 0.60986 0.99089 0.33755 0.0
C2029 C 0.61953 0.01456 0.3395 0.0
C2030 C 0.51249 0.60386 0.34616 0.0
C2031 C 0.52875 0.60373 0.36545 0.0
C2032 C 0.48922 0.61311 0.3487 0.0
C2033 C 0.4811 0.62251 0.37071 0.0
H2034 H 0.51796 0.59733 0.32871 0.0
H2035 H 0.47771 0.6133 0.33306 0.0
S2036 S 0.51658 0.62533 0.42713 0.0
N2037 N 0.53499 0.613 0.40751 0.0
N2038 N 0.49133 0.63029 0.4125 0.0
C2039 C 0.49701 0.62172 0.39041 0.0
C2040 C 0.52079 0.61238 0.38772 0.0
C2041 C 0.89184 0.51994 0.38488 0.0
C2042 C 0.8931 0.53072 0.3621 0.0
C2043 C 0.88511 0.49572 0.38759 0.0
C2044 C 0.87968 0.4812 0.3676 0.0
H2045 H 0.89562 0.53041 0.4008 0.0
H2046 H 0.88402 0.48839 0.40554 0.0
S2047 S 0.88049 0.50092 0.3039 0.0
N2048 N 0.88847 0.52499 0.31915 0.0
N2049 N 0.87616 0.47973 0.3241 0.0
C2050 C 0.88128 0.49176 0.34467 0.0
C2051 C 0.88788 0.51642 0.34196 0.0
C2052 C 0.01219 0.61469 0.15376 0.0
C2053 C 0.0213 0.62082 0.13099 0.0
C2054 C 0.98859 0.60653 0.15666 0.0
C2055 C 0.97308 0.60415 0.13695 0.0
H2056 H 0.02304 0.61698 0.1697 0.0
H2057 H 0.98224 0.60285 0.17464 0.0
S2058 S 0.98842 0.61528 0.07323 0.0
N2059 N 0.01315 0.62198 0.08804 0.0
N2060 N 0.96882 0.60674 0.0937 0.0
C2061 C 0.98216 0.609 0.11397 0.0
C2062 C 0.00625 0.61729 0.11094 0.0
C2063 C 0.90239 0.99061 0.15916 0.0
C2064 C 0.9031 0.97471 0.1396 0.0
C2065 C 0.89372 0.01407 0.15661 0.0
C2066 C 0.88547 0.0227 0.13435 0.0
H2067 H 0.90789 0.98468 0.17682 0.0
H2068 H 0.89293 0.02528 0.17245 0.0
S2069 S 0.8851 0.98845 0.07711 0.0
N2070 N 0.89604 0.96944 0.09697 0.0
N2071 N 0.87978 0.01349 0.09198 0.0
C2072 C 0.88708 0.00722 0.11437 0.0
C2073 C 0.89585 0.98325 0.11705 0.0
C2074 C 0.49519 0.88683 0.11664 0.0
C2075 C 0.47876 0.88546 0.13587 0.0
C2076 C 0.51873 0.89517 0.11994 0.0
C2077 C 0.52691 0.90252 0.14259 0.0
H2078 H 0.49009 0.88085 0.09889 0.0
H2079 H 0.53078 0.89529 0.1047 0.0
S2080 S 0.49093 0.90437 0.19858 0.0
N2081 N 0.47231 0.89355 0.17829 0.0
N2082 N 0.51645 0.90921 0.18437 0.0
C2083 C 0.51056 0.90207 0.16183 0.0
C2084 C 0.48655 0.89356 0.15851 0.0
C2085 C 0.60576 0.52045 0.11784 0.0
C2086 C 0.60038 0.52929 0.1408 0.0
C2087 C 0.61403 0.49689 0.11456 0.0
C2088 C 0.61722 0.48117 0.13412 0.0
H2089 H 0.60432 0.53205 0.10232 0.0
H2090 H 0.61873 0.49131 0.09656 0.0
S2091 S 0.60327 0.49516 0.19785 0.0
N2092 N 0.5971 0.52015 0.18328 0.0
N2093 N 0.61245 0.47597 0.17729 0.0
C2094 C 0.61074 0.48955 0.15712 0.0
C2095 C 0.6024 0.51357 0.16041 0.0
C2096 C 0.34847 0.98858 0.90267 0.0
C2097 C 0.36659 0.97126 0.89971 0.0
C2098 C 0.3516 0.01228 0.89471 0.0
C2099 C 0.37303 0.0197 0.88356 0.0
H2100 H 0.33147 0.98369 0.91069 0.0
H2101 H 0.33684 0.02472 0.89692 0.0
S2102 S 0.42623 0.98114 0.87196 0.0
N2103 N 0.40689 0.96316 0.88533 0.0
N2104 N 0.4129 0.00752 0.87037 0.0
C2105 C 0.39156 0.00261 0.8811 0.0
C2106 C 0.3883 0.97846 0.88916 0.0
C2107 C 0.38531 0.49526 0.61462 0.0
C2108 C 0.36531 0.4803 0.61872 0.0
C2109 C 0.38263 0.51866 0.60568 0.0
C2110 C 0.35986 0.5281 0.60044 0.0
H2111 H 0.40322 0.48923 0.61912 0.0
H2112 H 0.39848 0.52972 0.60369 0.0
S2113 S 0.30174 0.49598 0.60574 0.0
N2114 N 0.32189 0.47641 0.61506 0.0
N2115 N 0.31702 0.52024 0.59836 0.0
C2116 C 0.33979 0.51306 0.60331 0.0
C2117 C 0.34247 0.48923 0.6124 0.0
C2118 C 0.98275 0.3825 0.60524 0.0
C2119 C 0.97338 0.35975 0.59979 0.0
C2120 C 0.00618 0.38517 0.61409 0.0
C2121 C 0.0212 0.36518 0.61796 0.0
H2122 H 0.97166 0.39834 0.60334 0.0
H2123 H 0.0122 0.40306 0.61866 0.0
S2124 S 0.00545 0.30161 0.60511 0.0
N2125 N 0.98122 0.3169 0.5977 0.0
N2126 N 0.02506 0.32176 0.61435 0.0
C2127 C 0.01228 0.34235 0.61163 0.0
C2128 C 0.98844 0.33968 0.60256 0.0
C2129 C 0.1559 0.00951 0.61822 0.0
C2130 C 0.13325 0.02044 0.62084 0.0
C2131 C 0.15817 0.98569 0.61045 0.0
C2132 C 0.13794 0.97172 0.60481 0.0
H2133 H 0.17211 0.01906 0.62307 0.0
H2134 H 0.17598 0.97797 0.60951 0.0
S2135 S 0.07464 0.99207 0.60636 0.0
N2136 N 0.09013 0.01561 0.61545 0.0
N2137 N 0.09459 0.97089 0.60082 0.0
C2138 C 0.11525 0.9826 0.60625 0.0
C2139 C 0.11287 0.00691 0.61427 0.0
C2140 C 0.51135 0.1571 0.604 0.0
C2141 C 0.52675 0.13722 0.60198 0.0
C2142 C 0.48805 0.15474 0.61326 0.0
C2143 C 0.47905 0.13235 0.62078 0.0
H2144 H 0.51753 0.17483 0.59902 0.0
H2145 H 0.47723 0.17078 0.61499 0.0
S2146 S 0.512 0.0744 0.61809 0.0
N2147 N 0.53118 0.09424 0.60734 0.0
N2148 N 0.48746 0.08962 0.62465 0.0
C2149 C 0.49406 0.11213 0.61802 0.0
C2150 C 0.51787 0.11461 0.60867 0.0
C2151 C 0.11859 0.49202 0.89145 0.0
C2152 C 0.13836 0.47839 0.88346 0.0
C2153 C 0.12135 0.51579 0.89941 0.0
C2154 C 0.14395 0.52696 0.89949 0.0
H2155 H 0.10067 0.48454 0.89095 0.0
H2156 H 0.10552 0.52575 0.90468 0.0
S2157 S 0.20185 0.49901 0.88217 0.0
N2158 N 0.18172 0.47778 0.87764 0.0
N2159 N 0.18669 0.52229 0.89239 0.0
C2160 C 0.164 0.51334 0.89253 0.0
C2161 C 0.16127 0.48912 0.8846 0.0
C2162 C 0.01853 0.15442 0.89228 0.0
C2163 C 0.02615 0.13434 0.87898 0.0
C2164 C 0.99465 0.15669 0.90009 0.0
C2165 C 0.97731 0.1391 0.89478 0.0
H2166 H 0.03107 0.1686 0.89663 0.0
H2167 H 0.98968 0.17257 0.91013 0.0
S2168 S 0.98747 0.08367 0.85942 0.0
N2169 N 0.014 0.09681 0.86025 0.0
N2170 N 0.96929 0.1012 0.87487 0.0
C2171 C 0.98462 0.11895 0.88151 0.0
C2172 C 0.00896 0.11655 0.87363 0.0
C2173 C 0.49209 0.3481 0.89104 0.0
C2174 C 0.4837 0.37084 0.8839 0.0
C2175 C 0.51577 0.34477 0.89889 0.0
C2176 C 0.53214 0.36394 0.89975 0.0
H2177 H 0.48055 0.33251 0.88991 0.0
H2178 H 0.52148 0.32687 0.90374 0.0
S2179 S 0.51895 0.42752 0.88547 0.0
N2180 N 0.49351 0.41333 0.88021 0.0
N2181 N 0.53797 0.40677 0.8946 0.0
C2182 C 0.52382 0.38693 0.89377 0.0
C2183 C 0.49965 0.39044 0.88593 0.0
C2184 C 0.17203 0.62938 0.11764 0.0
C2185 C 0.16297 0.65244 0.12216 0.0
C2186 C 0.19673 0.62585 0.11427 0.0
C2187 C 0.21288 0.64525 0.11553 0.0
H2188 H 0.1599 0.61476 0.11358 0.0
H2189 H 0.20281 0.60864 0.10759 0.0
S2190 S 0.19827 0.70758 0.13316 0.0
N2191 N 0.17212 0.69369 0.13257 0.0
N2192 N 0.21851 0.68703 0.12644 0.0
C2193 C 0.2043 0.66739 0.12388 0.0
C2194 C 0.17922 0.67102 0.12706 0.0
C2195 C 0.83948 0.20872 0.11513 0.0
C2196 C 0.86238 0.2168 0.1084 0.0
C2197 C 0.83524 0.18434 0.11955 0.0
C2198 C 0.85382 0.16734 0.11775 0.0
H2199 H 0.82422 0.22072 0.11415 0.0
H2200 H 0.8169 0.17846 0.12216 0.0
S2201 S 0.91788 0.18035 0.10589 0.0
N2202 N 0.90451 0.20673 0.10407 0.0
N2203 N 0.89663 0.16089 0.11279 0.0
C2204 C 0.87733 0.17569 0.1143 0.0
C2205 C 0.8816 0.2005 0.10953 0.0
C2206 C 0.3078 0.88694 0.10942 0.0
C2207 C 0.2929 0.86703 0.11394 0.0
C2208 C 0.33187 0.88712 0.11666 0.0
C2209 C 0.34179 0.86768 0.12922 0.0
H2210 H 0.30139 0.90157 0.09834 0.0
H2211 H 0.34319 0.90186 0.11098 0.0
S2212 S 0.30947 0.8129 0.1488 0.0
N2213 N 0.28913 0.82856 0.13402 0.0
N2214 N 0.33414 0.82929 0.14846 0.0
C2215 C 0.32642 0.84889 0.1362 0.0
C2216 C 0.30197 0.8485 0.12843 0.0
C2217 C 0.66705 0.30012 0.1168 0.0
C2218 C 0.64461 0.29079 0.11015 0.0
C2219 C 0.67031 0.32487 0.11953 0.0
C2220 C 0.65115 0.34092 0.11617 0.0
H2221 H 0.68275 0.28867 0.11687 0.0
H2222 H 0.68838 0.33164 0.12191 0.0
S2223 S 0.5879 0.32484 0.1041 0.0
N2224 N 0.60223 0.29891 0.10437 0.0
N2225 N 0.60829 0.34551 0.11005 0.0
C2226 C 0.62803 0.33154 0.11298 0.0
C2227 C 0.62477 0.30635 0.10986 0.0
C2228 C 0.18546 0.85287 0.36512 0.0
C2229 C 0.16886 0.87099 0.37104 0.0
C2230 C 0.20897 0.85344 0.37408 0.0
C2231 C 0.21663 0.87226 0.38901 0.0
H2232 H 0.17963 0.83689 0.35573 0.0
H2233 H 0.22025 0.83784 0.37145 0.0
S2234 S 0.18229 0.9272 0.40385 0.0
N2235 N 0.16325 0.91053 0.38846 0.0
N2236 N 0.2076 0.91183 0.40482 0.0
C2237 C 0.20132 0.89208 0.39201 0.0
C2238 C 0.17735 0.89137 0.38317 0.0
C2239 C 0.65288 0.17306 0.37086 0.0
C2240 C 0.63107 0.16029 0.37232 0.0
C2241 C 0.65405 0.19756 0.37654 0.0
C2242 C 0.63345 0.21013 0.38373 0.0
H2243 H 0.66956 0.16369 0.36747 0.0
H2244 H 0.67151 0.20599 0.37784 0.0
S2245 S 0.57125 0.1869 0.38459 0.0
N2246 N 0.58772 0.16353 0.37684 0.0
N2247 N 0.59018 0.20944 0.3878 0.0
C2248 C 0.6112 0.19846 0.38214 0.0
C2249 C 0.60993 0.17355 0.37632 0.0
C2250 C 0.31973 0.66899 0.38078 0.0
C2251 C 0.33731 0.65106 0.38322 0.0
C2252 C 0.29541 0.66383 0.38438 0.0
C2253 C 0.28801 0.64064 0.39091 0.0
H2254 H 0.325 0.68756 0.37845 0.0
H2255 H 0.28285 0.67865 0.38505 0.0
S2256 S 0.32633 0.58647 0.39413 0.0
N2257 N 0.34522 0.60848 0.38804 0.0
N2258 N 0.29943 0.59884 0.39517 0.0
C2259 C 0.305 0.62201 0.39008 0.0
C2260 C 0.32976 0.62722 0.38617 0.0
C2261 C 0.88759 0.30751 0.3888 0.0
C2262 C 0.86859 0.29118 0.38546 0.0
C2263 C 0.88568 0.33146 0.38136 0.0
C2264 C 0.86483 0.33994 0.36998 0.0
H2265 H 0.90317 0.30227 0.39917 0.0
H2266 H 0.89994 0.34377 0.38611 0.0
S2267 S 0.81185 0.30323 0.353 0.0
N2268 N 0.82966 0.28435 0.36721 0.0
N2269 N 0.8263 0.32907 0.35247 0.0
C2270 C 0.84694 0.32307 0.36396 0.0
C2271 C 0.84879 0.29873 0.37184 0.0
C2272 C 0.11931 0.20478 0.66415 0.0
C2273 C 0.11236 0.21232 0.64114 0.0
C2274 C 0.12302 0.18043 0.66907 0.0
C2275 C 0.12026 0.16297 0.65107 0.0
H2276 H 0.11882 0.21722 0.67907 0.0
H2277 H 0.12565 0.17504 0.68756 0.0
S2278 S 0.10843 0.1744 0.58676 0.0
N2279 N 0.10753 0.20121 0.59934 0.0
N2280 N 0.11486 0.15536 0.60852 0.0
C2281 C 0.117 0.17068 0.62734 0.0
C2282 C 0.11299 0.19548 0.62238 0.0
C2283 C 0.30289 0.12068 0.65091 0.0
C2284 C 0.28949 0.11434 0.63054 0.0
C2285 C 0.32758 0.12548 0.6492 0.0
C2286 C 0.33975 0.12392 0.62705 0.0
H2287 H 0.29487 0.11936 0.66856 0.0
H2288 H 0.33748 0.12823 0.66568 0.0
S2289 S 0.3112 0.1135 0.56781 0.0
N2290 N 0.28902 0.11084 0.58725 0.0
N2291 N 0.33525 0.12014 0.58378 0.0
C2292 C 0.3258 0.12067 0.60623 0.0
C2293 C 0.3007 0.11579 0.60805 0.0
C2294 C 0.37897 0.32264 0.67086 0.0
C2295 C 0.38274 0.33883 0.65188 0.0
C2296 C 0.38234 0.29793 0.66769 0.0
C2297 C 0.39011 0.28873 0.64556 0.0
H2298 H 0.37581 0.32933 0.68884 0.0
H2299 H 0.382 0.28648 0.68339 0.0
S2300 S 0.39799 0.32306 0.58926 0.0
N2301 N 0.39063 0.34355 0.60935 0.0
N2302 N 0.39761 0.29709 0.60353 0.0
C2303 C 0.39085 0.30436 0.62578 0.0
C2304 C 0.38706 0.3295 0.62893 0.0
C2305 C 0.19577 0.39052 0.62645 0.0
C2306 C 0.21196 0.39143 0.64585 0.0
C2307 C 0.17115 0.38669 0.63025 0.0
C2308 C 0.16209 0.38394 0.65359 0.0
H2309 H 0.20177 0.39541 0.60863 0.0
H2310 H 0.15897 0.38872 0.61525 0.0
S2311 S 0.19746 0.37991 0.70965 0.0
N2312 N 0.21759 0.38518 0.68858 0.0
N2313 N 0.1714 0.37828 0.69569 0.0
C2314 C 0.17843 0.38176 0.67262 0.0
C2315 C 0.20343 0.38536 0.66875 0.0
C2316 C 0.11236 0.32744 0.89536 0.0
C2317 C 0.12037 0.34123 0.87576 0.0
C2318 C 0.10664 0.30309 0.89268 0.0
C2319 C 0.10893 0.29153 0.87038 0.0
H2320 H 0.10841 0.33591 0.91239 0.0
H2321 H 0.09824 0.29384 0.90756 0.0
S2322 S 0.13439 0.31778 0.81498 0.0
N2323 N 0.13453 0.34012 0.83442 0.0
N2324 N 0.12342 0.29443 0.82951 0.0
C2325 C 0.11975 0.30419 0.85153 0.0
C2326 C 0.12557 0.32904 0.85418 0.0
C2327 C 0.18673 0.13477 0.84962 0.0
C2328 C 0.17003 0.13003 0.86804 0.0
C2329 C 0.21005 0.12525 0.85037 0.0
C2330 C 0.21754 0.1109 0.86968 0.0
H2331 H 0.1812 0.14399 0.83345 0.0
H2332 H 0.2214 0.12728 0.83474 0.0
S2333 S 0.183 0.09858 0.92516 0.0
N2334 N 0.16425 0.11389 0.9081 0.0
N2335 N 0.20818 0.09646 0.9097 0.0
C2336 C 0.2021 0.1087 0.88953 0.0
C2337 C 0.17831 0.11814 0.88866 0.0
C2338 C 0.39217 0.17254 0.87807 0.0
C2339 C 0.38687 0.16406 0.85496 0.0
C2340 C 0.39631 0.19709 0.88206 0.0
C2341 C 0.39508 0.21378 0.86309 0.0
H2342 H 0.39603 0.15999 0.89239 0.0
H2343 H 0.40331 0.20261 0.89932 0.0
S2344 S 0.37598 0.20089 0.80079 0.0
N2345 N 0.37609 0.17445 0.81413 0.0
N2346 N 0.38369 0.22049 0.8216 0.0
C2347 C 0.38626 0.20581 0.84089 0.0
C2348 C 0.38229 0.18089 0.8368 0.0
C2349 C 0.33266 0.38838 0.87204 0.0
C2350 C 0.3419 0.38503 0.84885 0.0
C2351 C 0.30796 0.39192 0.87558 0.0
C2352 C 0.29188 0.39194 0.85607 0.0
H2353 H 0.34471 0.3911 0.88703 0.0
H2354 H 0.30178 0.3973 0.89319 0.0
S2355 S 0.3069 0.37847 0.79279 0.0
N2356 N 0.33291 0.37773 0.80691 0.0
N2357 N 0.28657 0.38416 0.81356 0.0
C2358 C 0.30062 0.38525 0.83344 0.0
C2359 C 0.3257 0.38191 0.82982 0.0
C2360 C 0.61352 0.1216 0.1789 0.0
C2361 C 0.6332 0.12724 0.16409 0.0
C2362 C 0.61673 0.11605 0.20322 0.0
C2363 C 0.63968 0.11614 0.21369 0.0
H2364 H 0.5958 0.1193 0.17129 0.0
H2365 H 0.60152 0.10936 0.2133 0.0
S2366 S 0.69622 0.13506 0.18441 0.0
N2367 N 0.67583 0.13698 0.16303 0.0
N2368 N 0.6817 0.12611 0.20863 0.0
C2369 C 0.65896 0.12471 0.19998 0.0
C2370 C 0.65575 0.13039 0.17518 0.0
C2371 C 0.63108 0.37605 0.29271 0.0
C2372 C 0.64433 0.39704 0.28808 0.0
C2373 C 0.63079 0.36581 0.31584 0.0
C2374 C 0.64367 0.37644 0.33475 0.0
H2375 H 0.62019 0.36814 0.27871 0.0
H2376 H 0.61994 0.35004 0.31912 0.0
S2377 S 0.68249 0.43022 0.33128 0.0
N2378 N 0.67188 0.42691 0.30386 0.0
N2379 N 0.67096 0.40799 0.34707 0.0
C2380 C 0.65766 0.39675 0.33 0.0
C2381 C 0.65812 0.40697 0.3067 0.0
C2382 C 0.11161 0.62238 0.30399 0.0
C2383 C 0.11145 0.64173 0.28769 0.0
C2384 C 0.11464 0.62628 0.3287 0.0
C2385 C 0.11747 0.64964 0.33767 0.0
H2386 H 0.10635 0.60466 0.29799 0.0
H2387 H 0.11175 0.61144 0.3409 0.0
S2388 S 0.12441 0.70528 0.30209 0.0
N2389 N 0.11923 0.6842 0.28195 0.0
N2390 N 0.12475 0.69148 0.32827 0.0
C2391 C 0.12089 0.66845 0.32129 0.0
C2392 C 0.11805 0.66448 0.29623 0.0
C2393 C 0.85827 0.12577 0.32864 0.0
C2394 C 0.88098 0.12176 0.33908 0.0
C2395 C 0.85392 0.12039 0.30442 0.0
C2396 C 0.87215 0.11105 0.28974 0.0
H2397 H 0.84314 0.13098 0.33966 0.0
H2398 H 0.83564 0.12113 0.29786 0.0
S2399 S 0.93581 0.10254 0.3065 0.0
N2400 N 0.92289 0.11209 0.33138 0.0
N2401 N 0.91441 0.10172 0.28605 0.0
C2402 C 0.89548 0.10981 0.29908 0.0
C2403 C 0.89998 0.11528 0.32371 0.0
C2404 C 0.39544 0.88171 0.30527 0.0
C2405 C 0.39332 0.86216 0.2894 0.0
C2406 C 0.39116 0.87883 0.32991 0.0
C2407 C 0.38485 0.85629 0.33918 0.0
H2408 H 0.40341 0.89833 0.29911 0.0
H2409 H 0.39588 0.89334 0.34193 0.0
S2410 S 0.37135 0.80133 0.30453 0.0
N2411 N 0.37987 0.82106 0.28415 0.0
N2412 N 0.37215 0.81563 0.33044 0.0
C2413 C 0.37924 0.83778 0.32311 0.0
C2414 C 0.3833 0.84076 0.2981 0.0
C2415 C 0.84358 0.38527 0.20368 0.0
C2416 C 0.86684 0.39191 0.21075 0.0
C2417 C 0.83805 0.38185 0.17943 0.0
C2418 C 0.85567 0.38461 0.16157 0.0
H2419 H 0.82893 0.38584 0.21644 0.0
H2420 H 0.8194 0.37951 0.17445 0.0
S2421 S 0.92043 0.39536 0.17163 0.0
N2422 N 0.90848 0.39617 0.19872 0.0
N2423 N 0.89813 0.38946 0.15305 0.0
C2424 C 0.87962 0.38745 0.16877 0.0
C2425 C 0.88522 0.39112 0.19348 0.0
C2426 C 0.11992 0.89563 0.17865 0.0
C2427 C 0.12721 0.87605 0.16444 0.0
C2428 C 0.1138 0.89253 0.20284 0.0
C2429 C 0.11501 0.86984 0.21377 0.0
H2430 H 0.11674 0.91301 0.1706 0.0
H2431 H 0.10584 0.90747 0.21239 0.0
S2432 S 0.13836 0.81408 0.18629 0.0
N2433 N 0.13963 0.83413 0.16453 0.0
N2434 N 0.12777 0.82845 0.20992 0.0
C2435 C 0.1252 0.85088 0.20075 0.0
C2436 C 0.13142 0.85396 0.17607 0.0
C2437 C 0.39677 0.6153 0.20191 0.0
C2438 C 0.39437 0.63796 0.21271 0.0
C2439 C 0.39148 0.61184 0.17754 0.0
C2440 C 0.38385 0.631 0.1629 0.0
H2441 H 0.40495 0.60071 0.2118 0.0
H2442 H 0.39535 0.59447 0.16976 0.0
S2443 S 0.37075 0.69291 0.18385 0.0
N2444 N 0.38084 0.67898 0.20796 0.0
N2445 N 0.37064 0.67266 0.16224 0.0
C2446 C 0.37885 0.6531 0.17421 0.0
C2447 C 0.38422 0.65654 0.19909 0.0
C2448 C 0.82559 0.39563 0.8805 0.0
C2449 C 0.83964 0.37572 0.87381 0.0
C2450 C 0.80132 0.39296 0.88657 0.0
C2451 C 0.79014 0.37034 0.886 0.0
H2452 H 0.8338 0.41302 0.88323 0.0
H2453 H 0.79188 0.40824 0.894 0.0
S2454 S 0.81713 0.31373 0.86415 0.0
N2455 N 0.83912 0.33351 0.86246 0.0
N2456 N 0.79362 0.3286 0.87431 0.0
C2457 C 0.80302 0.35099 0.87636 0.0
C2458 C 0.82777 0.35366 0.87015 0.0
C2459 C 0.14843 0.82835 0.88016 0.0
C2460 C 0.12597 0.83965 0.88322 0.0
C2461 C 0.15169 0.80404 0.88592 0.0
C2462 C 0.1326 0.79017 0.89472 0.0
H2463 H 0.16412 0.83875 0.87537 0.0
H2464 H 0.16971 0.79675 0.88578 0.0
S2465 S 0.06927 0.80929 0.90054 0.0
N2466 N 0.08347 0.83361 0.89135 0.0
N2467 N 0.08987 0.78809 0.90238 0.0
C2468 C 0.10959 0.80038 0.89502 0.0
C2469 C 0.1062 0.82508 0.88916 0.0
C2470 C 0.70163 0.15315 0.88613 0.0
C2471 C 0.71619 0.13388 0.8933 0.0
C2472 C 0.67713 0.14975 0.88115 0.0
C2473 C 0.66631 0.12697 0.88346 0.0
H2474 H 0.70862 0.17128 0.88665 0.0
H2475 H 0.66628 0.16547 0.87762 0.0
S2476 S 0.69816 0.07007 0.8969 0.0
N2477 N 0.71914 0.09089 0.89886 0.0
N2478 N 0.67329 0.08428 0.88936 0.0
C2479 C 0.68141 0.10722 0.88793 0.0
C2480 C 0.7063 0.11073 0.89293 0.0
C2481 C 0.3493 0.69832 0.88083 0.0
C2482 C 0.36836 0.7127 0.88884 0.0
C2483 C 0.35283 0.67392 0.87558 0.0
C2484 C 0.37552 0.66307 0.87845 0.0
H2485 H 0.33115 0.70527 0.88108 0.0
H2486 H 0.33719 0.66312 0.87157 0.0
S2487 S 0.43211 0.69471 0.89355 0.0
N2488 N 0.41124 0.71565 0.89533 0.0
N2489 N 0.41808 0.66994 0.88533 0.0
C2490 C 0.39519 0.6781 0.88346 0.0
C2491 C 0.39155 0.7029 0.88873 0.0
C2492 C 0.81963 0.15499 0.63223 0.0
C2493 C 0.83653 0.13692 0.62682 0.0
C2494 C 0.79618 0.15414 0.62305 0.0
C2495 C 0.78872 0.13509 0.60835 0.0
H2496 H 0.82505 0.17096 0.64186 0.0
H2497 H 0.78462 0.16953 0.62568 0.0
S2498 S 0.8239 0.08049 0.59396 0.0
N2499 N 0.84264 0.0974 0.60945 0.0
N2500 N 0.79848 0.09563 0.59264 0.0
C2501 C 0.80445 0.11556 0.60534 0.0
C2502 C 0.82838 0.11653 0.61444 0.0
C2503 C 0.38378 0.80677 0.61151 0.0
C2504 C 0.36386 0.79124 0.61279 0.0
C2505 C 0.38239 0.83047 0.61979 0.0
C2506 C 0.36121 0.83939 0.63015 0.0
H2507 H 0.39987 0.80119 0.60214 0.0
H2508 H 0.39744 0.84233 0.61658 0.0
S2509 S 0.30537 0.80484 0.64144 0.0
N2510 N 0.32331 0.78568 0.62777 0.0
N2511 N 0.32098 0.82983 0.64424 0.0
C2512 C 0.34216 0.82323 0.63409 0.0
C2513 C 0.34343 0.7992 0.62525 0.0
C2514 C 0.66903 0.37458 0.61323 0.0
C2515 C 0.66115 0.35089 0.61659 0.0
C2516 C 0.69347 0.37949 0.60962 0.0
C2517 C 0.71057 0.36086 0.6094 0.0
H2518 H 0.65615 0.38885 0.61043 0.0
H2519 H 0.69861 0.3974 0.60409 0.0
S2520 S 0.69919 0.29694 0.62375 0.0
N2521 N 0.67245 0.30963 0.62445 0.0
N2522 N 0.71829 0.31876 0.61772 0.0
C2523 C 0.70316 0.33784 0.6165 0.0
C2524 C 0.67836 0.33286 0.61999 0.0
C2525 C 0.10572 0.69593 0.60973 0.0
C2526 C 0.12762 0.70833 0.61175 0.0
C2527 C 0.10401 0.67151 0.61548 0.0
C2528 C 0.12419 0.65854 0.62337 0.0
H2529 H 0.09044 0.70457 0.60138 0.0
H2530 H 0.08733 0.66237 0.61154 0.0
S2531 S 0.18377 0.68451 0.63807 0.0
N2532 N 0.16847 0.70717 0.62669 0.0
N2533 N 0.16527 0.66137 0.63801 0.0
C2534 C 0.14521 0.6716 0.6287 0.0
C2535 C 0.14692 0.69651 0.62278 0.0
C2536 C 0.8829 0.8321 0.35703 0.0
C2537 C 0.88556 0.84414 0.37915 0.0
C2538 C 0.88767 0.80744 0.35493 0.0
C2539 C 0.89507 0.79395 0.37487 0.0
H2540 H 0.87928 0.84208 0.34077 0.0
H2541 H 0.88806 0.79952 0.33719 0.0
S2542 S 0.89894 0.81528 0.43763 0.0
N2543 N 0.89151 0.83941 0.42214 0.0
N2544 N 0.90065 0.79322 0.41795 0.0
C2545 C 0.8947 0.80502 0.39748 0.0
C2546 C 0.88988 0.83009 0.39969 0.0
C2547 C 0.70019 0.89587 0.37832 0.0
C2548 C 0.71681 0.89542 0.35928 0.0
C2549 C 0.67572 0.89134 0.37435 0.0
C2550 C 0.66717 0.88658 0.35114 0.0
H2551 H 0.70577 0.90206 0.39587 0.0
H2552 H 0.66322 0.89422 0.38895 0.0
S2553 S 0.70384 0.87889 0.29626 0.0
N2554 N 0.72343 0.88616 0.31725 0.0
N2555 N 0.67749 0.87788 0.30976 0.0
C2556 C 0.68395 0.88333 0.33262 0.0
C2557 C 0.70882 0.88766 0.3367 0.0
C2558 C 0.6227 0.68093 0.33436 0.0
C2559 C 0.62023 0.66376 0.35266 0.0
C2560 C 0.61939 0.7054 0.33903 0.0
C2561 C 0.61306 0.71334 0.36209 0.0
H2562 H 0.62482 0.67523 0.3159 0.0
H2563 H 0.61878 0.71768 0.32398 0.0
S2564 S 0.60918 0.6761 0.41694 0.0
N2565 N 0.61521 0.65674 0.39534 0.0
N2566 N 0.60846 0.70277 0.40405 0.0
C2567 C 0.61365 0.69671 0.38103 0.0
C2568 C 0.61734 0.67181 0.37632 0.0
C2569 C 0.80112 0.61584 0.38442 0.0
C2570 C 0.78625 0.61754 0.36406 0.0
C2571 C 0.82475 0.62443 0.38406 0.0
C2572 C 0.8343 0.63541 0.36346 0.0
H2573 H 0.79517 0.60577 0.39994 0.0
H2574 H 0.83614 0.62083 0.39937 0.0
S2575 S 0.8013 0.64816 0.30702 0.0
N2576 N 0.78171 0.63378 0.32394 0.0
N2577 N 0.82581 0.65068 0.32343 0.0
C2578 C 0.81868 0.63984 0.34407 0.0
C2579 C 0.79468 0.63077 0.34434 0.0
C2580 C 0.8809 0.67568 0.11861 0.0
C2581 C 0.87003 0.66696 0.13962 0.0
C2582 C 0.88883 0.69948 0.11703 0.0
C2583 C 0.88656 0.71536 0.13655 0.0
H2584 H 0.88488 0.6636 0.10392 0.0
H2585 H 0.89875 0.70489 0.10122 0.0
S2586 S 0.85582 0.70257 0.1941 0.0
N2587 N 0.85414 0.67716 0.17901 0.0
N2588 N 0.86985 0.72159 0.17629 0.0
C2589 C 0.87344 0.70763 0.15663 0.0
C2590 C 0.86502 0.68346 0.15813 0.0
C2591 C 0.79839 0.88621 0.16676 0.0
C2592 C 0.79005 0.89245 0.14382 0.0
C2593 C 0.82292 0.88263 0.17096 0.0
C2594 C 0.83979 0.88478 0.15232 0.0
H2595 H 0.78641 0.887 0.18204 0.0
H2596 H 0.82893 0.88047 0.18932 0.0
S2597 S 0.82629 0.89553 0.08822 0.0
N2598 N 0.79989 0.89664 0.10163 0.0
N2599 N 0.84602 0.88947 0.10948 0.0
C2600 C 0.8313 0.88767 0.12881 0.0
C2601 C 0.80634 0.8916 0.12457 0.0
C2602 C 0.6217 0.79881 0.16273 0.0
C2603 C 0.61447 0.79114 0.13985 0.0
C2604 C 0.62457 0.82326 0.16777 0.0
C2605 C 0.62082 0.84074 0.14997 0.0
H2606 H 0.62192 0.78626 0.17758 0.0
H2607 H 0.62737 0.82864 0.18623 0.0
S2608 S 0.60752 0.82929 0.08595 0.0
N2609 N 0.60795 0.80238 0.09833 0.0
N2610 N 0.61396 0.8484 0.10765 0.0
C2611 C 0.61723 0.83304 0.12627 0.0
C2612 C 0.61398 0.80813 0.12122 0.0
C2613 C 0.70452 0.62055 0.1623 0.0
C2614 C 0.71196 0.61453 0.139 0.0
C2615 C 0.68024 0.62433 0.16742 0.0
C2616 C 0.66273 0.62251 0.14936 0.0
H2617 H 0.71697 0.61934 0.17718 0.0
H2618 H 0.67491 0.62626 0.18601 0.0
S2619 S 0.67399 0.61351 0.08453 0.0
N2620 N 0.70079 0.61174 0.09702 0.0
N2621 N 0.65503 0.61911 0.1066 0.0
C2622 C 0.67038 0.6202 0.12549 0.0
C2623 C 0.69512 0.61616 0.1203 0.0
C2624 C 0.37997 0.88593 0.80652 0.0
C2625 C 0.36152 0.88828 0.78943 0.0
C2626 C 0.37465 0.88168 0.83074 0.0
C2627 C 0.35072 0.87985 0.8384 0.0
H2628 H 0.3983 0.8902 0.80165 0.0
H2629 H 0.38903 0.88282 0.84375 0.0
S2630 S 0.29658 0.87855 0.80004 0.0
N2631 N 0.3189 0.88367 0.78127 0.0
N2632 N 0.30902 0.87572 0.82675 0.0
C2633 C 0.33256 0.8786 0.82106 0.0
C2634 C 0.33794 0.88275 0.79646 0.0
C2635 C 0.38435 0.61309 0.69719 0.0
C2636 C 0.36441 0.61598 0.71246 0.0
C2637 C 0.38363 0.62063 0.67323 0.0
C2638 C 0.36318 0.63189 0.66378 0.0
H2639 H 0.3998 0.60293 0.70321 0.0
H2640 H 0.39856 0.61614 0.66162 0.0
S2641 S 0.30778 0.64734 0.6973 0.0
N2642 N 0.32474 0.63338 0.71714 0.0
N2643 N 0.32372 0.64843 0.67237 0.0
C2644 C 0.34423 0.63741 0.67957 0.0
C2645 C 0.3448 0.62931 0.7039 0.0
C2646 C 0.88832 0.38368 0.69418 0.0
C2647 C 0.88564 0.36408 0.7099 0.0
C2648 C 0.8807 0.38232 0.67027 0.0
C2649 C 0.86978 0.36146 0.66126 0.0
H2650 H 0.89824 0.3994 0.69985 0.0
H2651 H 0.88488 0.3971 0.65836 0.0
S2652 S 0.85521 0.3066 0.69615 0.0
N2653 N 0.8689 0.32428 0.71554 0.0
N2654 N 0.85386 0.32192 0.67086 0.0
C2655 C 0.86459 0.34278 0.67751 0.0
C2656 C 0.87266 0.34406 0.70181 0.0
C2657 C 0.1169 0.88931 0.69925 0.0
C2658 C 0.1369 0.88578 0.71424 0.0
C2659 C 0.11664 0.8806 0.67569 0.0
C2660 C 0.13627 0.86784 0.66631 0.0
H2661 H 0.10227 0.90071 0.70508 0.0
H2662 H 0.10176 0.88552 0.66419 0.0
S2663 S 0.19108 0.85011 0.69975 0.0
N2664 N 0.17537 0.866 0.71917 0.0
N2665 N 0.17472 0.84905 0.6751 0.0
C2666 C 0.15509 0.86172 0.68205 0.0
C2667 C 0.15543 0.87084 0.70602 0.0
C2668 C 0.61064 0.12297 0.69543 0.0
C2669 C 0.61058 0.14218 0.71187 0.0
C2670 C 0.61475 0.12692 0.6709 0.0
C2671 C 0.61864 0.15023 0.66219 0.0
H2672 H 0.60493 0.1053 0.70117 0.0
H2673 H 0.61201 0.1122 0.65852 0.0
S2674 S 0.62536 0.20554 0.69834 0.0
N2675 N 0.61891 0.18448 0.71814 0.0
N2676 N 0.62642 0.19187 0.67211 0.0
C2677 C 0.62174 0.1689 0.67879 0.0
C2678 C 0.61781 0.16487 0.7037 0.0
C2679 C 0.11776 0.6193 0.82866 0.0
C2680 C 0.13826 0.63075 0.8378 0.0
C2681 C 0.11698 0.61112 0.8049 0.0
C2682 C 0.13688 0.61363 0.78951 0.0
H2683 H 0.10284 0.61514 0.8404 0.0
H2684 H 0.10151 0.60084 0.79918 0.0
S2685 S 0.19357 0.64534 0.80369 0.0
N2686 N 0.17771 0.64705 0.82864 0.0
N2687 N 0.17652 0.63089 0.78427 0.0
C2688 C 0.15652 0.62715 0.79768 0.0
C2689 C 0.15717 0.63585 0.82181 0.0
C2690 C 0.88711 0.10443 0.82953 0.0
C2691 C 0.88045 0.12516 0.84235 0.0
C2692 C 0.89302 0.10563 0.80512 0.0
C2693 C 0.89235 0.12753 0.7926 0.0
H2694 H 0.89002 0.08762 0.8388 0.0
H2695 H 0.9005 0.08984 0.79661 0.0
S2696 S 0.87014 0.18555 0.81613 0.0
N2697 N 0.86869 0.16715 0.83929 0.0
N2698 N 0.88032 0.16933 0.79355 0.0
C2699 C 0.88257 0.14757 0.80428 0.0
C2700 C 0.87649 0.1464 0.82916 0.0
C2701 C 0.61361 0.37738 0.80256 0.0
C2702 C 0.61378 0.35863 0.7856 0.0
C2703 C 0.61806 0.37287 0.82697 0.0
C2704 C 0.6225 0.34942 0.83507 0.0
H2705 H 0.6073 0.39501 0.79739 0.0
H2706 H 0.61517 0.38722 0.83974 0.0
S2707 S 0.62996 0.29526 0.79735 0.0
N2708 N 0.62293 0.31671 0.77817 0.0
N2709 N 0.63099 0.30822 0.82395 0.0
C2710 C 0.62579 0.33126 0.81794 0.0
C2711 C 0.62158 0.3359 0.79314 0.0
C2712 C 0.99739 0.62219 0.28382 0.0
C2713 C 0.98614 0.64433 0.28846 0.0
C2714 C 0.01855 0.6209 0.27031 0.0
C2715 C 0.02903 0.64164 0.26055 0.0
H2716 H 0.99044 0.60577 0.29154 0.0
H2717 H 0.02747 0.60373 0.26849 0.0
S2718 S 0.00565 0.70367 0.26532 0.0
N2719 N 0.98624 0.68729 0.28057 0.0
N2720 N 0.02599 0.68472 0.25511 0.0
C2721 C 0.01728 0.66368 0.2638 0.0
C2722 C 0.99586 0.66507 0.2778 0.0
C2723 C 0.85866 0.98677 0.26271 0.0
C2724 C 0.84735 0.98227 0.28484 0.0
C2725 C 0.85987 0.01013 0.25329 0.0
C2726 C 0.84966 0.02957 0.26568 0.0
H2727 H 0.86752 0.97237 0.25313 0.0
H2728 H 0.86975 0.01315 0.23683 0.0
S2729 S 0.81446 0.02655 0.3221 0.0
N2730 N 0.82337 0.99872 0.31737 0.0
N2731 N 0.82528 0.04234 0.29952 0.0
C2732 C 0.8369 0.02496 0.28694 0.0
C2733 C 0.83586 1.00138 0.29659 0.0
C2734 C 0.51871 0.8535 0.26234 0.0
C2735 C 0.52247 0.84168 0.28434 0.0
C2736 C 0.49553 0.85594 0.25278 0.0
C2737 C 0.47554 0.84657 0.26491 0.0
H2738 H 0.53359 0.86182 0.253 0.0
H2739 H 0.49313 0.86602 0.23638 0.0
S2740 S 0.47651 0.81007 0.32058 0.0
N2741 N 0.50474 0.81788 0.31628 0.0
N2742 N 0.46141 0.822 0.2981 0.0
C2743 C 0.47938 0.83316 0.28594 0.0
C2744 C 0.5028 0.83088 0.29574 0.0
C2745 C 0.65695 0.48923 0.25595 0.0
C2746 C 0.6356 0.47607 0.25336 0.0
C2747 C 0.65755 0.51028 0.26971 0.0
C2748 C 0.63681 0.51876 0.28135 0.0
H2749 H 0.67369 0.48206 0.24916 0.0
H2750 H 0.67469 0.51896 0.27255 0.0
S2751 S 0.57551 0.49324 0.27568 0.0
N2752 N 0.59273 0.4747 0.2603 0.0
N2753 N 0.59353 0.51442 0.28586 0.0
C2754 C 0.61489 0.50705 0.27672 0.0
C2755 C 0.61436 0.48565 0.26276 0.0
C2756 C 0.02154 0.88056 0.23344 0.0
C2757 C 0.03226 0.85921 0.24132 0.0
C2758 C 0.99977 0.88023 0.22105 0.0
C2759 C 0.98799 0.85849 0.21586 0.0
H2760 H 0.03075 0.89753 0.23573 0.0
H2761 H 0.99272 0.89714 0.2146 0.0
S2762 S 0.00772 0.79781 0.23488 0.0
N2763 N 0.02886 0.81596 0.24493 0.0
N2764 N 0.98773 0.81518 0.22159 0.0
C2765 C 0.99775 0.83711 0.2251 0.0
C2766 C 0.01996 0.83752 0.23786 0.0
C2767 C 0.6236 0.02425 0.23407 0.0
C2768 C 0.64527 0.03352 0.24296 0.0
C2769 C 0.62298 0.00243 0.22171 0.0
C2770 C 0.64406 0.98914 0.21757 0.0
H2771 H 0.60724 0.03464 0.23548 0.0
H2772 H 0.60596 0.9966 0.21438 0.0
S2773 S 0.70484 0.00422 0.24025 0.0
N2774 N 0.68783 0.02678 0.24911 0.0
N2775 N 0.6868 0.98559 0.22595 0.0
C2776 C 0.66554 0.99732 0.22806 0.0
C2777 C 0.6661 0.01956 0.24077 0.0
C2778 C 0.47961 0.67154 0.21921 0.0
C2779 C 0.47531 0.6583 0.24024 0.0
C2780 C 0.5027 0.67403 0.20995 0.0
C2781 C 0.5225 0.66368 0.22153 0.0
H2782 H 0.46483 0.67948 0.20939 0.0
H2783 H 0.50498 0.68375 0.19327 0.0
S2784 S 0.52119 0.62864 0.27809 0.0
N2785 N 0.49283 0.63569 0.27312 0.0
N2786 N 0.53664 0.64075 0.25589 0.0
C2787 C 0.51874 0.65149 0.24332 0.0
C2788 C 0.49502 0.64874 0.25267 0.0
C2789 C 0.88732 0.5059 0.21338 0.0
C2790 C 0.86517 0.51785 0.21137 0.0
C2791 C 0.88933 0.48439 0.2262 0.0
C2792 C 0.86937 0.47431 0.23784 0.0
H2793 H 0.90302 0.5126 0.2041 0.0
H2794 H 0.90633 0.47498 0.22611 0.0
S2795 S 0.80803 0.49995 0.24043 0.0
N2796 N 0.82338 0.51912 0.22388 0.0
N2797 N 0.8272 0.47869 0.24801 0.0
C2798 C 0.8475 0.48685 0.23725 0.0
C2799 C 0.84537 0.5086 0.22396 0.0
C2800 C 0.28401 0.99882 0.61837 0.0
C2801 C 0.28909 0.98796 0.64058 0.0
C2802 C 0.27124 0.0204 0.61712 0.0
C2803 C 0.2627 0.0316 0.63799 0.0
H2804 H 0.29083 0.9912 0.60186 0.0
H2805 H 0.26899 0.02898 0.59984 0.0
S2806 S 0.26907 0.00951 0.7003 0.0
N2807 N 0.28295 0.98921 0.68379 0.0
N2808 N 0.25882 0.02977 0.68129 0.0
C2809 C 0.26638 0.02029 0.66015 0.0
C2810 C 0.27965 0.99847 0.6615 0.0
C2811 C 0.49126 0.25029 0.64416 0.0
C2812 C 0.47214 0.2615 0.65615 0.0
C2813 C 0.5146 0.25974 0.64553 0.0
C2814 C 0.51935 0.28074 0.65877 0.0
H2815 H 0.48797 0.23482 0.63288 0.0
H2816 H 0.52875 0.25122 0.63529 0.0
S2817 S 0.47609 0.31426 0.69656 0.0
N2818 N 0.46005 0.29269 0.68417 0.0
N2819 N 0.50362 0.31068 0.68628 0.0
C2820 C 0.50062 0.29117 0.67195 0.0
C2821 C 0.47708 0.28145 0.67079 0.0
C2822 C 0.22626 0.50731 0.66137 0.0
C2823 C 0.21607 0.5163 0.64008 0.0
C2824 C 0.23947 0.48585 0.66141 0.0
C2825 C 0.24299 0.47276 0.64016 0.0
H2826 H 0.22289 0.5161 0.67836 0.0
H2827 H 0.2454 0.47855 0.6784 0.0
S2828 S 0.22381 0.49041 0.57915 0.0
N2829 N 0.21342 0.51191 0.59666 0.0
N2830 N 0.23783 0.47147 0.59707 0.0
C2831 C 0.23464 0.48249 0.61856 0.0
C2832 C 0.22129 0.50431 0.61843 0.0
C2833 C 0.02005 0.2287 0.61906 0.0
C2834 C 0.02986 0.23988 0.63941 0.0
C2835 C 0.99878 0.21541 0.62056 0.0
C2836 C 0.98673 0.21247 0.64256 0.0
H2837 H 0.02961 0.22919 0.60215 0.0
H2838 H 0.99242 0.20644 0.60456 0.0
S2839 S 0.0037 0.2404 0.70052 0.0
N2840 N 0.02496 0.2489 0.68173 0.0
N2841 N 0.98493 0.22391 0.68462 0.0
C2842 C 0.99559 0.22478 0.66273 0.0
C2843 C 0.01713 0.23853 0.66111 0.0
C2844 C 0.26956 0.48262 0.88037 0.0
C2845 C 0.25966 0.47312 0.85927 0.0
C2846 C 0.28224 0.50428 0.88012 0.0
C2847 C 0.28574 0.51722 0.85869 0.0
H2848 H 0.26881 0.47242 0.89689 0.0
H2849 H 0.29035 0.51026 0.89672 0.0
S2850 S 0.26071 0.50126 0.7991 0.0
N2851 N 0.25206 0.47919 0.81686 0.0
N2852 N 0.27588 0.52006 0.81625 0.0
C2853 C 0.27428 0.50882 0.8378 0.0
C2854 C 0.26123 0.48673 0.83813 0.0
C2855 C 0.01591 0.27012 0.88006 0.0
C2856 C 0.02702 0.26187 0.85904 0.0
C2857 C 0.99405 0.28238 0.87918 0.0
C2858 C 0.98253 0.28702 0.85719 0.0
H2859 H 0.02491 0.26832 0.89719 0.0
H2860 H 0.98675 0.28922 0.89582 0.0
S2861 S 0.00315 0.26673 0.79723 0.0
N2862 N 0.02413 0.25724 0.81586 0.0
N2863 N 0.98285 0.28025 0.81405 0.0
C2864 C 0.9926 0.27728 0.83618 0.0
C2865 C 0.01491 0.2647 0.83714 0.0
C2866 C 0.22026 0.99544 0.88252 0.0
C2867 C 0.21605 0.98333 0.86076 0.0
C2868 C 0.23337 0.0168 0.88317 0.0
C2869 C 0.24293 0.02679 0.86214 0.0
H2870 H 0.21249 0.98898 0.89911 0.0
H2871 H 0.2349 0.0263 0.90005 0.0
S2872 S 0.23944 1.00103 0.80099 0.0
N2873 N 0.22447 0.98188 0.81793 0.0
N2874 N 0.24908 0.02224 0.81928 0.0
C2875 C 0.24043 0.01407 0.84055 0.0
C2876 C 0.22698 0.99227 0.83983 0.0
C2877 C 0.50427 0.20873 0.83937 0.0
C2878 C 0.52447 0.22031 0.84887 0.0
C2879 C 0.48137 0.21848 0.84196 0.0
C2880 C 0.47756 0.24001 0.85464 0.0
H2881 H 0.5061 0.19187 0.82987 0.0
H2882 H 0.46639 0.20881 0.83424 0.0
S2883 S 0.52468 0.27776 0.88241 0.0
N2884 N 0.53953 0.25499 0.87064 0.0
N2885 N 0.49609 0.2731 0.87611 0.0
C2886 C 0.49767 0.25224 0.86364 0.0
C2887 C 0.52121 0.2424 0.86069 0.0
C2888 C 0.62418 0.26695 0.01911 0.0
C2889 C 0.64525 0.25772 0.02934 0.0
C2890 C 0.62475 0.27951 0.99738 0.0
C2891 C 0.64648 0.28356 0.9851 0.0
H2892 H 0.60735 0.26578 0.02877 0.0
H2893 H 0.60812 0.28712 0.99083 0.0
S2894 S 0.70625 0.26038 0.00308 0.0
N2895 N 0.68806 0.25134 0.02463 0.0
N2896 N 0.68926 0.27492 0.98365 0.0
C2897 C 0.66741 0.27274 0.99421 0.0
C2898 C 0.66676 0.25982 0.01637 0.0
C2899 C 0.61808 0.21389 0.49854 0.0
C2900 C 0.63964 0.21137 0.51145 0.0
C2901 C 0.61738 0.22622 0.47674 0.0
C2902 C 0.63816 0.23666 0.46709 0.0
H2903 H 0.60171 0.20545 0.50474 0.0
H2904 H 0.60071 0.2266 0.46675 0.0
S2905 S 0.69863 0.23743 0.49473 0.0
N2906 N 0.68192 0.22219 0.51385 0.0
N2907 N 0.68052 0.24524 0.47265 0.0
C2908 C 0.6595 0.23565 0.48044 0.0
C2909 C 0.66028 0.223 0.50267 0.0
C2910 C 0.26183 0.65796 0.48514 0.0
C2911 C 0.25876 0.63623 0.47275 0.0
C2912 C 0.2751 0.65891 0.5065 0.0
C2913 C 0.2857 0.63815 0.51625 0.0
H2914 H 0.25532 0.67457 0.47744 0.0
H2915 H 0.27778 0.67622 0.51491 0.0
S2916 S 0.28029 0.57639 0.49171 0.0
N2917 N 0.26549 0.59332 0.47247 0.0
N2918 N 0.29009 0.59477 0.51276 0.0
C2919 C 0.2813 0.61605 0.50475 0.0
C2920 C 0.26793 0.61518 0.48296 0.0
C2921 C 0.88206 0.2824 0.50167 0.0
C2922 C 0.8598 0.28749 0.51249 0.0
C2923 C 0.88334 0.27025 0.47974 0.0
C2924 C 0.86248 0.26231 0.46812 0.0
H2925 H 0.8986 0.28876 0.50963 0.0
H2926 H 0.90068 0.26801 0.47125 0.0
S2927 S 0.80004 0.26877 0.48985 0.0
N2928 N 0.81651 0.28195 0.51065 0.0
N2929 N 0.81912 0.25888 0.46947 0.0
C2930 C 0.84025 0.26597 0.47932 0.0
C2931 C 0.83886 0.27865 0.5015 0.0
C2932 C 0.21898 0.87794 0.50662 0.0
C2933 C 0.21223 0.85564 0.51644 0.0
C2934 C 0.23196 0.87936 0.48516 0.0
C2935 C 0.23907 0.85856 0.47289 0.0
H2936 H 0.21351 0.89454 0.51509 0.0
H2937 H 0.23567 0.89687 0.47759 0.0
S2938 S 0.22752 0.79582 0.49144 0.0
N2939 N 0.21484 0.8122 0.51261 0.0
N2940 N 0.2394 0.81506 0.47231 0.0
C2941 C 0.23347 0.83617 0.48294 0.0
C2942 C 0.22 0.83466 0.50469 0.0
C2943 C 0.88688 0.23533 0.01706 0.0
C2944 C 0.86598 0.246 0.02622 0.0
C2945 C 0.88641 0.22219 0.99568 0.0
C2946 C 0.86494 0.21899 0.98273 0.0
H2947 H 0.90339 0.23593 0.02729 0.0
H2948 H 0.90282 0.21352 0.98996 0.0
S2949 S 0.80579 0.24556 0.99802 0.0
N2950 N 0.82371 0.25429 0.01992 0.0
N2951 N 0.82269 0.22966 0.9796 0.0
C2952 C 0.84426 0.23103 0.99085 0.0
C2953 C 0.84482 0.24453 0.01263 0.0
C2954 C 0.28244 0.8791 0.99926 0.0
C2955 C 0.28717 0.85726 0.98745 0.0
C2956 C 0.27015 0.87967 0.02112 0.0
C2957 C 0.26192 0.85849 0.03194 0.0
H2958 H 0.28921 0.89586 0.99216 0.0
H2959 H 0.26833 0.89667 0.03036 0.0
S2960 S 0.26697 0.79699 0.00734 0.0
N2961 N 0.28049 0.81408 0.98727 0.0
N2962 N 0.2574 0.81534 0.02853 0.0
C2963 C 0.26484 0.83675 0.01959 0.0
C2964 C 0.27748 0.83609 0.99728 0.0
C2965 C 0.24955 0.64067 0.01447 0.0
C2966 C 0.23981 0.65445 0.03314 0.0
C2967 C 0.24033 0.64233 0.99107 0.0
C2968 C 0.22084 0.65754 0.98576 0.0
H2969 H 0.26375 0.62795 0.01818 0.0
H2970 H 0.24793 0.63095 0.97728 0.0
S2971 S 0.19078 0.69917 0.02809 0.0
N2972 N 0.21113 0.68526 0.04449 0.0
N2973 N 0.19348 0.68801 1.0008 0.0
C2974 C 0.2116 0.67204 0.00418 0.0
C2975 C 0.22116 0.67058 0.0278 0.0
C2976 C 1.00023 0.38114 0.71758 0.0
C2977 C 0.0126 0.35946 0.71358 0.0
C2978 C 0.9785 0.3816 0.73011 0.0
C2979 C 0.96842 0.36047 0.73934 0.0
H2980 H 0.00676 0.39782 0.71008 0.0
H2981 H 0.96881 0.3984 0.73141 0.0
S2982 S 0.99464 0.29951 0.73638 0.0
N2983 N 0.01406 0.31659 0.72193 0.0
N2984 N 0.97306 0.31764 0.74548 0.0
C2985 C 0.98131 0.33897 0.73706 0.0
C2986 C 0.00344 0.33841 0.72415 0.0
C2987 C 0.12597 0.98093 0.73374 0.0
C2988 C 0.14745 0.9694 0.7399 0.0
C2989 C 0.12611 0.00251 0.72094 0.0
C2990 C 0.14776 0.0133 0.71358 0.0
H2991 H 0.1089 0.97255 0.73779 0.0
H2992 H 0.10899 0.01028 0.71604 0.0
S2993 S 0.20898 0.99056 0.72658 0.0
N2994 N 0.19092 0.97056 0.7389 0.0
N2995 N 0.19139 0.01127 0.71478 0.0
C2996 C 0.16945 0.0025 0.72074 0.0
C2997 C 0.16924 0.98049 0.7339 0.0
C2998 C 0.51579 0.15842 0.74146 0.0
C2999 C 0.52929 0.13727 0.7439 0.0
C3000 C 0.49387 0.15844 0.729 0.0
C3001 C 0.4848 0.13731 0.71851 0.0
H3002 H 0.52304 0.17534 0.74767 0.0
H3003 H 0.48473 0.17539 0.72645 0.0
S3004 S 0.51187 0.07658 0.72339 0.0
N3005 N 0.531 0.09435 0.73734 0.0
N3006 N 0.48977 0.09407 0.71431 0.0
C3007 C 0.49731 0.11571 0.72261 0.0
C3008 C 0.51958 0.11578 0.7352 0.0
C3009 C 0.38164 0.50175 0.71838 0.0
C3010 C 0.36029 0.48864 0.71515 0.0
C3011 C 0.38178 0.52344 0.73096 0.0
C3012 C 0.36065 0.5328 0.74097 0.0
H3013 H 0.39826 0.49583 0.71025 0.0
H3014 H 0.39828 0.53369 0.73171 0.0
S3015 S 0.3006 0.50434 0.74028 0.0
N3016 N 0.31784 0.48559 0.72514 0.0
N3017 N 0.31826 0.52658 0.7487 0.0
C3018 C 0.33955 0.51915 0.73946 0.0
C3019 C 0.33932 0.49701 0.72653 0.0
C3020 C 0.98749 0.15545 0.76727 0.0
C3021 C 0.97539 0.13344 0.76521 0.0
C3022 C 0.00933 0.15706 0.77957 0.0
C3023 C 0.01986 0.13668 0.79013 0.0
H3024 H 0.9793 0.17178 0.76064 0.0
H3025 H 0.01755 0.17455 0.78151 0.0
S3026 S 0.99639 0.07434 0.78695 0.0
N3027 N 0.97623 0.09062 0.77264 0.0
N3028 N 0.01741 0.09333 0.79558 0.0
C3029 C 0.00859 0.11428 0.78677 0.0
C3030 C 0.98632 0.11275 0.77435 0.0
C3031 C 0.34963 0.00622 0.77747 0.0
C3032 C 0.36975 0.01413 0.79052 0.0
C3033 C 0.3504 0.98491 0.76413 0.0
C3034 C 0.37127 0.97078 0.76343 0.0
H3035 H 0.33285 0.01596 0.77836 0.0
H3036 H 0.33407 0.97865 0.75566 0.0
S3037 S 0.42971 0.9849 0.79154 0.0
N3038 N 0.41201 0.00723 0.79959 0.0
N3039 N 0.41308 0.96713 0.7747 0.0
C3040 C 0.39192 0.97925 0.77495 0.0
C3041 C 0.39126 1.00094 0.78845 0.0
C3042 C 0.5046 0.33612 0.79093 0.0
C3043 C 0.48436 0.34593 0.7797 0.0
C3044 C 0.52741 0.33876 0.78101 0.0
C3045 C 0.5311 0.35183 0.75971 0.0
H3046 H 0.50288 0.32646 0.80771 0.0
H3047 H 0.54243 0.33081 0.79046 0.0
S3048 S 0.48371 0.37993 0.72252 0.0
N3049 N 0.46903 0.36795 0.7453 0.0
N3050 N 0.51232 0.3736 0.72694 0.0
C3051 C 0.5109 0.36093 0.74769 0.0
C3052 C 0.48744 0.35788 0.75766 0.0
C3053 C 0.12001 0.49901 0.78567 0.0
C3054 C 0.14141 0.48596 0.78882 0.0
C3055 C 0.11972 0.52059 0.7729 0.0
C3056 C 0.14074 0.52988 0.7626 0.0
H3057 H 0.10347 0.49311 0.79397 0.0
H3058 H 0.10318 0.53077 0.77215 0.0
S3059 S 0.2009 0.50167 0.76324 0.0
N3060 N 0.18382 0.483 0.77864 0.0
N3061 N 0.18311 0.52376 0.75471 0.0
C3062 C 0.1619 0.51633 0.76414 0.0
C3063 C 0.16228 0.49432 0.77726 0.0
C3064 C 0.74807 0.98875 0.3412 0.0
C3065 C 0.75079 0.97606 0.36281 0.0
C3066 C 0.73542 0.01056 0.34051 0.0
C3067 C 0.725 0.0202 0.3614 0.0
H3068 H 0.75406 0.98086 0.32449 0.0
H3069 H 0.73247 0.01901 0.32328 0.0
S3070 S 0.73121 0.99573 0.42306 0.0
N3071 N 0.74506 0.97602 0.40585 0.0
N3072 N 0.72157 0.01699 0.40485 0.0
C3073 C 0.72963 0.00867 0.38341 0.0
C3074 C 0.74246 0.98657 0.38403 0.0
C3075 C 0.50016 0.72031 0.38427 0.0
C3076 C 0.48716 0.71829 0.3627 0.0
C3077 C 0.52186 0.73287 0.38531 0.0
C3078 C 0.53136 0.74414 0.3649 0.0
H3079 H 0.49421 0.71115 0.40033 0.0
H3080 H 0.53203 0.73255 0.40186 0.0
S3081 S 0.50309 0.74714 0.30484 0.0
N3082 N 0.48428 0.73092 0.321 0.0
N3083 N 0.52525 0.75449 0.32306 0.0
C3084 C 0.51775 0.74393 0.3437 0.0
C3085 C 0.49562 0.73099 0.34256 0.0
C3086 C 0.78441 0.50112 0.3371 0.0
C3087 C 0.7919 0.4905 0.35877 0.0
C3088 C 0.7704 0.52202 0.33701 0.0
C3089 C 0.76344 0.53301 0.35856 0.0
H3090 H 0.78992 0.49365 0.32004 0.0
H3091 H 0.76616 0.5304 0.32001 0.0
S3092 S 0.77651 0.51174 0.42003 0.0
N3093 N 0.78969 0.49193 0.40241 0.0
N3094 N 0.76374 0.5314 0.40196 0.0
C3095 C 0.76982 0.5221 0.38027 0.0
C3096 C 0.78394 0.50079 0.38045 0.0
C3097 C 0.01146 0.77942 0.34514 0.0
C3098 C 0.02187 0.78929 0.36593 0.0
C3099 C 0.98951 0.76718 0.34617 0.0
C3100 C 0.97723 0.76446 0.36801 0.0
H3101 H 0.01977 0.782 0.32778 0.0
H3102 H 0.98133 0.76124 0.32958 0.0
S3103 S 0.99801 0.78392 0.42796 0.0
N3104 N 0.01921 0.79308 0.40943 0.0
N3105 N 0.97788 0.77033 0.41106 0.0
C3106 C 0.98814 0.77274 0.38908 0.0
C3107 C 0.01048 0.7851 0.38812 0.0
C3108 C 0.71449 0.50228 0.11372 0.0
C3109 C 0.71306 0.48878 0.13503 0.0
C3110 C 0.72758 0.52366 0.11271 0.0
C3111 C 0.73987 0.53229 0.1329 0.0
H3112 H 0.70456 0.49694 0.09791 0.0
H3113 H 0.72697 0.53422 0.09641 0.0
S3114 S 0.74458 0.50228 0.19209 0.0
N3115 N 0.7273 0.48436 0.17606 0.0
N3116 N 0.75167 0.52477 0.17419 0.0
C3117 C 0.74014 0.51812 0.15377 0.0
C3118 C 0.72675 0.49632 0.15484 0.0
C3119 C 1.00132 0.72033 0.11858 0.0
C3120 C 0.0137 0.71597 0.14016 0.0
C3121 C 0.97985 0.73331 0.1183 0.0
C3122 C 0.97008 0.74266 0.13952 0.0
H3123 H 0.00763 0.71279 0.10183 0.0
H3124 H 0.97012 0.73493 0.10156 0.0
S3125 S 0.99647 0.73874 0.20034 0.0
N3126 N 0.01551 0.72401 0.18307 0.0
N3127 N 0.97502 0.74842 0.18236 0.0
C3128 C 0.983 0.73996 0.16094 0.0
C3129 C 0.00485 0.72659 0.16132 0.0
C3130 C 0.78371 0.00471 0.12061 0.0
C3131 C 0.78722 0.0172 0.1423 0.0
C3132 C 0.77024 0.98353 0.11979 0.0
C3133 C 0.75959 0.97408 0.14057 0.0
H3134 H 0.79238 0.01063 0.10427 0.0
H3135 H 0.76947 0.9736 0.10311 0.0
S3136 S 0.76053 1.00129 0.20118 0.0
N3137 N 0.77664 0.01979 0.18458 0.0
N3138 N 0.75144 0.97981 0.18293 0.0
C3139 C 0.76124 0.98733 0.16193 0.0
C3140 C 0.77505 0.00893 0.16283 0.0
C3141 C 0.51282 0.75338 0.13708 0.0
C3142 C 0.53248 0.76456 0.1482 0.0
C3143 C 0.48952 0.76268 0.13974 0.0
C3144 C 0.48525 0.78349 0.15347 0.0
H3145 H 0.51559 0.7379 0.12567 0.0
H3146 H 0.4749 0.75402 0.13032 0.0
S3147 S 0.53029 0.81706 0.18914 0.0
N3148 N 0.54578 0.79569 0.17574 0.0
N3149 N 0.5023 0.81338 0.18027 0.0
C3150 C 0.50464 0.79403 0.1656 0.0
C3151 C 0.52817 0.78447 0.16311 0.0
C3152 C 0.37925 0.72199 0.00436 0.0
C3153 C 0.35765 0.71661 0.01632 0.0
C3154 C 0.37926 0.73376 0.98224 0.0
C3155 C 0.35772 0.74084 0.97136 0.0
H3156 H 0.39632 0.7162 0.0116 0.0
H3157 H 0.39616 0.73627 0.97297 0.0
S3158 S 0.29646 0.73315 0.99593 0.0
N3159 N 0.31418 0.72096 0.0163 0.0
N3160 N 0.31437 0.74323 0.97459 0.0
C3161 C 0.33611 0.73706 0.98372 0.0
C3162 C 0.33603 0.72491 0.00626 0.0
C3163 C 0.34314 0.76799 0.51629 0.0
C3164 C 0.36436 0.76413 0.52927 0.0
C3165 C 0.34335 0.7813 0.49499 0.0
C3166 C 0.36481 0.79117 0.48603 0.0
H3167 H 0.32606 0.76216 0.52351 0.0
H3168 H 0.3264 0.78485 0.48619 0.0
S3169 S 0.42569 0.78242 0.51172 0.0
N3170 N 0.40757 0.76856 0.5306 0.0
N3171 N 0.4083 0.79324 0.49034 0.0
C3172 C 0.38641 0.78567 0.49795 0.0
C3173 C 0.3861 0.77222 0.51965 0.0
C3174 C 0.72823 0.38305 0.5164 0.0
C3175 C 0.73833 0.36268 0.52715 0.0
C3176 C 0.71585 0.38132 0.49465 0.0
C3177 C 0.71276 0.35907 0.48306 0.0
H3178 H 0.72903 0.40025 0.52542 0.0
H3179 H 0.70782 0.39747 0.48744 0.0
S3180 S 0.73716 0.30057 0.50346 0.0
N3181 N 0.74563 0.31983 0.52429 0.0
N3182 N 0.72226 0.31643 0.48338 0.0
C3183 C 0.72373 0.33871 0.49317 0.0
C3184 C 0.73657 0.34056 0.51522 0.0
C3185 C 0.15674 0.73312 0.51756 0.0
C3186 C 0.13498 0.73764 0.5294 0.0
C3187 C 0.15716 0.72059 0.49579 0.0
C3188 C 0.13582 0.71218 0.48524 0.0
H3189 H 0.17361 0.73779 0.52601 0.0
H3190 H 0.17441 0.71638 0.48791 0.0
S3191 S 0.07399 0.72347 0.50746 0.0
N3192 N 0.0916 0.73562 0.52792 0.0
N3193 N 0.09209 0.71243 0.48679 0.0
C3194 C 0.11383 0.71849 0.49601 0.0
C3195 C 0.11349 0.73114 0.51818 0.0
C3196 C 0.77073 0.12277 0.51454 0.0
C3197 C 0.76174 0.14386 0.52495 0.0
C3198 C 0.78415 0.12351 0.49337 0.0
C3199 C 0.78928 0.1454 0.48186 0.0
H3200 H 0.76864 0.10574 0.52367 0.0
H3201 H 0.7915 0.10683 0.48665 0.0
S3202 S 0.76737 0.20542 0.50059 0.0
N3203 N 0.75689 0.18696 0.52126 0.0
N3204 N 0.78214 0.18849 0.48126 0.0
C3205 C 0.77881 0.16645 0.4911 0.0
C3206 C 0.76503 0.16564 0.51273 0.0
C3207 C 0.12379 0.78206 0.00929 0.0
C3208 C 0.14574 0.78605 0.02112 0.0
C3209 C 0.12287 0.7697 0.98752 0.0
C3210 C 0.14381 0.76075 0.97681 0.0
H3211 H 0.10727 0.78958 0.01622 0.0
H3212 H 0.10584 0.76846 0.97823 0.0
S3213 S 0.20527 0.76317 0.00201 0.0
N3214 N 0.18857 0.7775 0.02185 0.0
N3215 N 0.18673 0.75432 0.98068 0.0
C3216 C 0.16556 0.76269 0.98939 0.0
C3217 C 0.16655 0.77535 0.01164 0.0
C3218 C 0.73882 0.12147 0.98513 0.0
C3219 C 0.74773 0.14266 0.97484 0.0
C3220 C 0.72683 0.12184 0.00714 0.0
C3221 C 0.72313 0.14345 0.01966 0.0
H3222 H 0.7398 0.10472 0.97532 0.0
H3223 H 0.71934 0.10516 0.01372 0.0
S3224 S 0.74595 0.20339 0.00172 0.0
N3225 N 0.75436 0.18541 0.97974 0.0
N3226 N 0.73187 0.18623 0.02134 0.0
C3227 C 0.73373 0.16449 0.01051 0.0
C3228 C 0.74604 0.16405 0.98802 0.0
C3229 C 0.76653 0.34331 0.98143 0.0
C3230 C 0.7617 0.36455 0.9688 0.0
C3231 C 0.7793 0.34382 0.00309 0.0
C3232 C 0.78766 0.36561 0.01276 0.0
H3233 H 0.76192 0.32609 0.97368 0.0
H3234 H 0.7837 0.32692 0.01159 0.0
S3235 S 0.77594 0.42643 0.98812 0.0
N3236 N 0.76361 0.40797 0.96854 0.0
N3237 N 0.78724 0.40923 0.0094 0.0
C3238 C 0.78115 0.38711 1.00115 0.0
C3239 C 0.76825 0.3865 0.97912 0.0
loop_
_geom_bond_atom_site_label_1
_geom_bond_atom_site_label_2
_geom_bond_distance
_geom_bond_site_symmetry_2
_ccdc_geom_bond_type
O0 Tb1 2.292 . S
O0 C3 1.255 . S
Tb1 O0 2.292 . S
Tb1 O17 2.326 . S
Tb1 O19 2.500 . S
Tb1 O20 2.473 . S
Tb1 O23 2.324 . S
Eu2 O6 2.292 . S
Eu2 C7 2.852 . S
Eu2 O18 2.324 . S
Eu2 O22 2.326 . S
Eu2 O24 2.500 . S
Eu2 O25 2.473 . S
C3 O0 1.255 . S
C3 O4 1.247 . S
O4 C3 1.247 . S
C5 O17 1.242 . S
C5 O18 1.258 . S
O6 Eu2 2.292 . S
O6 C8 1.255 . S
C7 Eu2 2.852 . S
C7 C11 1.503 . S
C7 O24 1.273 . S
C7 O25 1.257 . S
C8 O6 1.255 . S
C8 O9 1.247 . S
O9 C8 1.247 . S
C10 O22 1.242 . S
C10 O23 1.258 . S
C11 C7 1.503 . S
C11 C12 1.379 . S
C11 C16 1.392 . S
C12 C11 1.379 . S
C12 C13 1.404 . S
C12 H26 0.929 . S
C13 C12 1.404 . S
C13 C14 1.389 . S
C14 C13 1.389 . S
C14 C15 1.399 . S
C14 H27 0.931 . S
C15 C14 1.399 . S
C15 C16 1.390 . S
C16 C11 1.392 . S
C16 C15 1.390 . S
C16 H28 0.929 . S
O17 Tb1 2.326 . S
O17 C5 1.242 . S
O18 Eu2 2.324 . S
O18 C5 1.258 . S
O19 Tb1 2.500 . S
O19 C21 1.273 . S
O20 Tb1 2.473 . S
O20 C21 1.257 . S
C21 O19 1.273 . S
C21 O20 1.257 . S
O22 Eu2 2.326 . S
O22 C10 1.242 . S
O23 Tb1 2.324 . S
O23 C10 1.258 . S
O24 Eu2 2.500 . S
O24 C7 1.273 . S
O25 Eu2 2.473 . S
O25 C7 1.257 . S
H26 C12 0.929 . S
H27 C14 0.931 . S
H28 C16 0.929 . S
O29 Tb30 2.292 . S
O29 C32 1.255 . S
Tb30 O29 2.292 . S
Tb30 O46 2.326 . S
Tb30 O48 2.500 . S
Tb30 O49 2.473 . S
Tb30 O52 2.324 . S
Eu31 O35 2.292 . S
Eu31 C36 2.852 . S
Eu31 O47 2.324 . S
Eu31 O51 2.326 . S
Eu31 O53 2.500 . S
Eu31 O54 2.473 . S
C32 O29 1.255 . S
C32 O33 1.247 . S
O33 C32 1.247 . S
C34 O46 1.242 . S
C34 O47 1.258 . S
O35 Eu31 2.292 . S
O35 C37 1.255 . S
C36 Eu31 2.852 . S
C36 C40 1.503 . S
C36 O53 1.273 . S
C36 O54 1.257 . S
C37 O35 1.255 . S
C37 O38 1.247 . S
O38 C37 1.247 . S
C39 O51 1.242 . S
C39 O52 1.258 . S
C40 C36 1.503 . S
C40 C41 1.379 . S
C40 C45 1.392 . S
C41 C40 1.379 . S
C41 C42 1.404 . S
C41 H55 0.929 . S
C42 C41 1.404 . S
C42 C43 1.389 . S
C43 C42 1.389 . S
C43 C44 1.399 . S
C43 H56 0.931 . S
C44 C43 1.399 . S
C44 C45 1.390 . S
C45 C40 1.392 . S
C45 C44 1.390 . S
C45 H57 0.929 . S
O46 Tb30 2.326 . S
O46 C34 1.242 . S
O47 Eu31 2.324 . S
O47 C34 1.258 . S
O48 Tb30 2.500 . S
O48 C50 1.273 . S
O49 Tb30 2.473 . S
O49 C50 1.257 . S
C50 O48 1.273 . S
C50 O49 1.257 . S
O51 Eu31 2.326 . S
O51 C39 1.242 . S
O52 Tb30 2.324 . S
O52 C39 1.258 . S
O53 Eu31 2.500 . S
O53 C36 1.273 . S
O54 Eu31 2.473 . S
O54 C36 1.257 . S
H55 C41 0.929 . S
H56 C43 0.931 . S
H57 C45 0.929 . S
O58 Tb59 2.292 . S
O58 C61 1.255 . S
Tb59 O58 2.292 . S
Tb59 O75 2.326 . S
Tb59 O77 2.500 . S
Tb59 O78 2.473 . S
Tb59 O81 2.324 . S
Eu60 O64 2.292 . S
Eu60 C65 2.852 . S
Eu60 O76 2.324 . S
Eu60 O80 2.326 . S
Eu60 O82 2.500 . S
Eu60 O83 2.473 . S
C61 O58 1.255 . S
C61 O62 1.247 . S
O62 C61 1.247 . S
C63 O75 1.242 . S
C63 O76 1.258 . S
O64 Eu60 2.292 . S
O64 C66 1.255 . S
C65 Eu60 2.852 . S
C65 C69 1.503 . S
C65 O82 1.273 . S
C65 O83 1.257 . S
C66 O64 1.255 . S
C66 O67 1.247 . S
O67 C66 1.247 . S
C68 O80 1.242 . S
C68 O81 1.258 . S
C69 C65 1.503 . S
C69 C70 1.379 . S
C69 C74 1.392 . S
C70 C69 1.379 . S
C70 C71 1.404 . S
C70 H84 0.929 . S
C71 C70 1.404 . S
C71 C72 1.389 . S
C72 C71 1.389 . S
C72 C73 1.399 . S
C72 H85 0.931 . S
C73 C72 1.399 . S
C73 C74 1.390 . S
C74 C69 1.392 . S
C74 C73 1.390 . S
C74 H86 0.929 . S
O75 Tb59 2.326 . S
O75 C63 1.242 . S
O76 Eu60 2.324 . S
O76 C63 1.258 . S
O77 Tb59 2.500 . S
O77 C79 1.273 . S
O78 Tb59 2.473 . S
O78 C79 1.257 . S
C79 O77 1.273 . S
C79 O78 1.257 . S
O80 Eu60 2.326 . S
O80 C68 1.242 . S
O81 Tb59 2.324 . S
O81 C68 1.258 . S
O82 Eu60 2.500 . S
O82 C65 1.273 . S
O83 Eu60 2.473 . S
O83 C65 1.257 . S
H84 C70 0.929 . S
H85 C72 0.931 . S
H86 C74 0.929 . S
O87 Tb88 2.292 . S
O87 C90 1.255 . S
Tb88 O87 2.292 . S
Tb88 O104 2.326 . S
Tb88 O106 2.500 . S
Tb88 O107 2.473 . S
Tb88 O110 2.324 . S
Eu89 O93 2.292 . S
Eu89 C94 2.852 . S
Eu89 O105 2.324 . S
Eu89 O109 2.326 . S
Eu89 O111 2.500 . S
Eu89 O112 2.473 . S
C90 O87 1.255 . S
C90 O91 1.247 . S
O91 C90 1.247 . S
C92 O104 1.242 . S
C92 O105 1.258 . S
O93 Eu89 2.292 . S
O93 C95 1.255 . S
C94 Eu89 2.852 . S
C94 C98 1.503 . S
C94 O111 1.273 . S
C94 O112 1.257 . S
C95 O93 1.255 . S
C95 O96 1.247 . S
O96 C95 1.247 . S
C97 O109 1.242 . S
C97 O110 1.258 . S
C98 C94 1.503 . S
C98 C99 1.379 . S
C98 C103 1.392 . S
C99 C98 1.379 . S
C99 C100 1.404 . S
C99 H113 0.929 . S
C100 C99 1.404 . S
C100 C101 1.389 . S
C101 C100 1.389 . S
C101 C102 1.399 . S
C101 H114 0.931 . S
C102 C101 1.399 . S
C102 C103 1.390 . S
C103 C98 1.392 . S
C103 C102 1.390 . S
C103 H115 0.929 . S
O104 Tb88 2.326 . S
O104 C92 1.242 . S
O105 Eu89 2.324 . S
O105 C92 1.258 . S
O106 Tb88 2.500 . S
O106 C108 1.273 . S
O107 Tb88 2.473 . S
O107 C108 1.257 . S
C108 O106 1.273 . S
C108 O107 1.257 . S
O109 Eu89 2.326 . S
O109 C97 1.242 . S
O110 Tb88 2.324 . S
O110 C97 1.258 . S
O111 Eu89 2.500 . S
O111 C94 1.273 . S
O112 Eu89 2.473 . S
O112 C94 1.257 . S
H113 C99 0.929 . S
H114 C101 0.931 . S
H115 C103 0.929 . S
O116 Tb117 2.292 . S
O116 C119 1.255 . S
Tb117 O116 2.292 . S
Tb117 O133 2.326 . S
Tb117 O135 2.500 . S
Tb117 O136 2.473 . S
Tb117 O139 2.324 . S
Eu118 O122 2.292 . S
Eu118 C123 2.852 . S
Eu118 O134 2.324 . S
Eu118 O138 2.326 . S
Eu118 O140 2.500 . S
Eu118 O141 2.473 . S
C119 O116 1.255 . S
C119 O120 1.247 . S
O120 C119 1.247 . S
C121 O133 1.242 . S
C121 O134 1.258 . S
O122 Eu118 2.292 . S
O122 C124 1.255 . S
C123 Eu118 2.852 . S
C123 C127 1.503 . S
C123 O140 1.273 . S
C123 O141 1.257 . S
C124 O122 1.255 . S
C124 O125 1.247 . S
O125 C124 1.247 . S
C126 O138 1.242 . S
C126 O139 1.258 . S
C127 C123 1.503 . S
C127 C128 1.379 . S
C127 C132 1.392 . S
C128 C127 1.379 . S
C128 C129 1.404 . S
C128 H142 0.929 . S
C129 C128 1.404 . S
C129 C130 1.389 . S
C130 C129 1.389 . S
C130 C131 1.399 . S
C130 H143 0.931 . S
C131 C130 1.399 . S
C131 C132 1.390 . S
C132 C127 1.392 . S
C132 C131 1.390 . S
C132 H144 0.929 . S
O133 Tb117 2.326 . S
O133 C121 1.242 . S
O134 Eu118 2.324 . S
O134 C121 1.258 . S
O135 Tb117 2.500 . S
O135 C137 1.273 . S
O136 Tb117 2.473 . S
O136 C137 1.257 . S
C137 O135 1.273 . S
C137 O136 1.257 . S
O138 Eu118 2.326 . S
O138 C126 1.242 . S
O139 Tb117 2.324 . S
O139 C126 1.258 . S
O140 Eu118 2.500 . S
O140 C123 1.273 . S
O141 Eu118 2.473 . S
O141 C123 1.257 . S
H142 C128 0.929 . S
H143 C130 0.931 . S
H144 C132 0.929 . S
O145 Tb146 2.292 . S
O145 C148 1.255 . S
Tb146 O145 2.292 . S
Tb146 O162 2.326 . S
Tb146 O164 2.500 . S
Tb146 O165 2.473 . S
Tb146 O168 2.324 . S
Eu147 O151 2.292 . S
Eu147 C152 2.852 . S
Eu147 O163 2.324 . S
Eu147 O167 2.326 . S
Eu147 O169 2.500 . S
Eu147 O170 2.473 . S
C148 O145 1.255 . S
C148 O149 1.247 . S
O149 C148 1.247 . S
C150 O162 1.242 . S
C150 O163 1.258 . S
O151 Eu147 2.292 . S
O151 C153 1.255 . S
C152 Eu147 2.852 . S
C152 C156 1.503 . S
C152 O169 1.273 . S
C152 O170 1.257 . S
C153 O151 1.255 . S
C153 O154 1.247 . S
O154 C153 1.247 . S
C155 O167 1.242 . S
C155 O168 1.258 . S
C156 C152 1.503 . S
C156 C157 1.379 . S
C156 C161 1.392 . S
C157 C156 1.379 . S
C157 C158 1.404 . S
C157 H171 0.929 . S
C158 C157 1.404 . S
C158 C159 1.389 . S
C159 C158 1.389 . S
C159 C160 1.399 . S
C159 H172 0.931 . S
C160 C159 1.399 . S
C160 C161 1.390 . S
C161 C156 1.392 . S
C161 C160 1.390 . S
C161 H173 0.929 . S
O162 Tb146 2.326 . S
O162 C150 1.242 . S
O163 Eu147 2.324 . S
O163 C150 1.258 . S
O164 Tb146 2.500 . S
O164 C166 1.273 . S
O165 Tb146 2.473 . S
O165 C166 1.257 . S
C166 O164 1.273 . S
C166 O165 1.257 . S
O167 Eu147 2.326 . S
O167 C155 1.242 . S
O168 Tb146 2.324 . S
O168 C155 1.258 . S
O169 Eu147 2.500 . S
O169 C152 1.273 . S
O170 Eu147 2.473 . S
O170 C152 1.257 . S
H171 C157 0.929 . S
H172 C159 0.931 . S
H173 C161 0.929 . S
O174 Tb175 2.292 . S
O174 C177 1.255 . S
Tb175 O174 2.292 . S
Tb175 O191 2.326 . S
Tb175 O193 2.500 . S
Tb175 O194 2.473 . S
Tb175 O197 2.324 . S
Eu176 O180 2.292 . S
Eu176 C181 2.852 . S
Eu176 O192 2.324 . S
Eu176 O196 2.326 . S
Eu176 O198 2.500 . S
Eu176 O199 2.473 . S
C177 O174 1.255 . S
C177 O178 1.247 . S
O178 C177 1.247 . S
C179 O191 1.242 . S
C179 O192 1.258 . S
O180 Eu176 2.292 . S
O180 C182 1.255 . S
C181 Eu176 2.852 . S
C181 C185 1.503 . S
C181 O198 1.273 . S
C181 O199 1.257 . S
C182 O180 1.255 . S
C182 O183 1.247 . S
O183 C182 1.247 . S
C184 O196 1.242 . S
C184 O197 1.258 . S
C185 C181 1.503 . S
C185 C186 1.379 . S
C185 C190 1.392 . S
C186 C185 1.379 . S
C186 C187 1.404 . S
C186 H200 0.929 . S
C187 C186 1.404 . S
C187 C188 1.389 . S
C188 C187 1.389 . S
C188 C189 1.399 . S
C188 H201 0.931 . S
C189 C188 1.399 . S
C189 C190 1.390 . S
C190 C185 1.392 . S
C190 C189 1.390 . S
C190 H202 0.929 . S
O191 Tb175 2.326 . S
O191 C179 1.242 . S
O192 Eu176 2.324 . S
O192 C179 1.258 . S
O193 Tb175 2.500 . S
O193 C195 1.273 . S
O194 Tb175 2.473 . S
O194 C195 1.257 . S
C195 O193 1.273 . S
C195 O194 1.257 . S
O196 Eu176 2.326 . S
O196 C184 1.242 . S
O197 Tb175 2.324 . S
O197 C184 1.258 . S
O198 Eu176 2.500 . S
O198 C181 1.273 . S
O199 Eu176 2.473 . S
O199 C181 1.257 . S
H200 C186 0.929 . S
H201 C188 0.931 . S
H202 C190 0.929 . S
O203 Tb204 2.292 . S
O203 C206 1.255 . S
Tb204 O203 2.292 . S
Tb204 O220 2.326 . S
Tb204 O222 2.500 . S
Tb204 O223 2.473 . S
Tb204 O226 2.324 . S
Eu205 O209 2.292 . S
Eu205 C210 2.852 . S
Eu205 O221 2.324 . S
Eu205 O225 2.326 . S
Eu205 O227 2.500 . S
Eu205 O228 2.473 . S
C206 O203 1.255 . S
C206 O207 1.247 . S
O207 C206 1.247 . S
C208 O220 1.242 . S
C208 O221 1.258 . S
O209 Eu205 2.292 . S
O209 C211 1.255 . S
C210 Eu205 2.852 . S
C210 C214 1.503 . S
C210 O227 1.273 . S
C210 O228 1.257 . S
C211 O209 1.255 . S
C211 O212 1.247 . S
O212 C211 1.247 . S
C213 O225 1.242 . S
C213 O226 1.258 . S
C214 C210 1.503 . S
C214 C215 1.379 . S
C214 C219 1.392 . S
C215 C214 1.379 . S
C215 C216 1.404 . S
C215 H229 0.929 . S
C216 C215 1.404 . S
C216 C217 1.389 . S
C217 C216 1.389 . S
C217 C218 1.399 . S
C217 H230 0.931 . S
C218 C217 1.399 . S
C218 C219 1.390 . S
C219 C214 1.392 . S
C219 C218 1.390 . S
C219 H231 0.929 . S
O220 Tb204 2.326 . S
O220 C208 1.242 . S
O221 Eu205 2.324 . S
O221 C208 1.258 . S
O222 Tb204 2.500 . S
O222 C224 1.273 . S
O223 Tb204 2.473 . S
O223 C224 1.257 . S
C224 O222 1.273 . S
C224 O223 1.257 . S
O225 Eu205 2.326 . S
O225 C213 1.242 . S
O226 Tb204 2.324 . S
O226 C213 1.258 . S
O227 Eu205 2.500 . S
O227 C210 1.273 . S
O228 Eu205 2.473 . S
O228 C210 1.257 . S
H229 C215 0.929 . S
H230 C217 0.931 . S
H231 C219 0.929 . S
O232 Tb233 2.292 . S
O232 C235 1.255 . S
Tb233 O232 2.292 . S
Tb233 O249 2.326 . S
Tb233 O251 2.500 . S
Tb233 O252 2.473 . S
Tb233 O255 2.324 . S
Eu234 O238 2.292 . S
Eu234 C239 2.852 . S
Eu234 O250 2.324 . S
Eu234 O254 2.326 . S
Eu234 O256 2.500 . S
Eu234 O257 2.473 . S
C235 O232 1.255 . S
C235 O236 1.247 . S
O236 C235 1.247 . S
C237 O249 1.242 . S
C237 O250 1.258 . S
O238 Eu234 2.292 . S
O238 C240 1.255 . S
C239 Eu234 2.852 . S
C239 C243 1.503 . S
C239 O256 1.273 . S
C239 O257 1.257 . S
C240 O238 1.255 . S
C240 O241 1.247 . S
O241 C240 1.247 . S
C242 O254 1.242 . S
C242 O255 1.258 . S
C243 C239 1.503 . S
C243 C244 1.379 . S
C243 C248 1.392 . S
C244 C243 1.379 . S
C244 C245 1.404 . S
C244 H258 0.929 . S
C245 C244 1.404 . S
C245 C246 1.389 . S
C246 C245 1.389 . S
C246 C247 1.399 . S
C246 H259 0.931 . S
C247 C246 1.399 . S
C247 C248 1.390 . S
C248 C243 1.392 . S
C248 C247 1.390 . S
C248 H260 0.929 . S
O249 Tb233 2.326 . S
O249 C237 1.242 . S
O250 Eu234 2.324 . S
O250 C237 1.258 . S
O251 Tb233 2.500 . S
O251 C253 1.273 . S
O252 Tb233 2.473 . S
O252 C253 1.257 . S
C253 O251 1.273 . S
C253 O252 1.257 . S
O254 Eu234 2.326 . S
O254 C242 1.242 . S
O255 Tb233 2.324 . S
O255 C242 1.258 . S
O256 Eu234 2.500 . S
O256 C239 1.273 . S
O257 Eu234 2.473 . S
O257 C239 1.257 . S
H258 C244 0.929 . S
H259 C246 0.931 . S
H260 C248 0.929 . S
O261 Tb262 2.292 . S
O261 C264 1.255 . S
Tb262 O261 2.292 . S
Tb262 O278 2.326 . S
Tb262 O280 2.500 . S
Tb262 O281 2.473 . S
Tb262 O284 2.324 . S
Eu263 O267 2.292 . S
Eu263 C268 2.852 . S
Eu263 O279 2.324 . S
Eu263 O283 2.326 . S
Eu263 O285 2.500 . S
Eu263 O286 2.473 . S
C264 O261 1.255 . S
C264 O265 1.247 . S
O265 C264 1.247 . S
C266 O278 1.242 . S
C266 O279 1.258 . S
O267 Eu263 2.292 . S
O267 C269 1.255 . S
C268 Eu263 2.852 . S
C268 C272 1.503 . S
C268 O285 1.273 . S
C268 O286 1.257 . S
C269 O267 1.255 . S
C269 O270 1.247 . S
O270 C269 1.247 . S
C271 O283 1.242 . S
C271 O284 1.258 . S
C272 C268 1.503 . S
C272 C273 1.379 . S
C272 C277 1.392 . S
C273 C272 1.379 . S
C273 C274 1.404 . S
C273 H287 0.929 . S
C274 C273 1.404 . S
C274 C275 1.389 . S
C275 C274 1.389 . S
C275 C276 1.399 . S
C275 H288 0.931 . S
C276 C275 1.399 . S
C276 C277 1.390 . S
C277 C272 1.392 . S
C277 C276 1.390 . S
C277 H289 0.929 . S
O278 Tb262 2.326 . S
O278 C266 1.242 . S
O279 Eu263 2.324 . S
O279 C266 1.258 . S
O280 Tb262 2.500 . S
O280 C282 1.273 . S
O281 Tb262 2.473 . S
O281 C282 1.257 . S
C282 O280 1.273 . S
C282 O281 1.257 . S
O283 Eu263 2.326 . S
O283 C271 1.242 . S
O284 Tb262 2.324 . S
O284 C271 1.258 . S
O285 Eu263 2.500 . S
O285 C268 1.273 . S
O286 Eu263 2.473 . S
O286 C268 1.257 . S
H287 C273 0.929 . S
H288 C275 0.931 . S
H289 C277 0.929 . S
O290 Tb291 2.292 . S
O290 C293 1.255 . S
Tb291 O290 2.292 . S
Tb291 O307 2.326 . S
Tb291 O309 2.500 . S
Tb291 O310 2.473 . S
Tb291 O313 2.324 . S
Eu292 O296 2.292 . S
Eu292 C297 2.852 . S
Eu292 O308 2.324 . S
Eu292 O312 2.326 . S
Eu292 O314 2.500 . S
Eu292 O315 2.473 . S
C293 O290 1.255 . S
C293 O294 1.247 . S
O294 C293 1.247 . S
C295 O307 1.242 . S
C295 O308 1.258 . S
O296 Eu292 2.292 . S
O296 C298 1.255 . S
C297 Eu292 2.852 . S
C297 C301 1.503 . S
C297 O314 1.273 . S
C297 O315 1.257 . S
C298 O296 1.255 . S
C298 O299 1.247 . S
O299 C298 1.247 . S
C300 O312 1.242 . S
C300 O313 1.258 . S
C301 C297 1.503 . S
C301 C302 1.379 . S
C301 C306 1.392 . S
C302 C301 1.379 . S
C302 C303 1.404 . S
C302 H316 0.929 . S
C303 C302 1.404 . S
C303 C304 1.389 . S
C304 C303 1.389 . S
C304 C305 1.399 . S
C304 H317 0.931 . S
C305 C304 1.399 . S
C305 C306 1.390 . S
C306 C301 1.392 . S
C306 C305 1.390 . S
C306 H318 0.929 . S
O307 Tb291 2.326 . S
O307 C295 1.242 . S
O308 Eu292 2.324 . S
O308 C295 1.258 . S
O309 Tb291 2.500 . S
O309 C311 1.273 . S
O310 Tb291 2.473 . S
O310 C311 1.257 . S
C311 O309 1.273 . S
C311 O310 1.257 . S
O312 Eu292 2.326 . S
O312 C300 1.242 . S
O313 Tb291 2.324 . S
O313 C300 1.258 . S
O314 Eu292 2.500 . S
O314 C297 1.273 . S
O315 Eu292 2.473 . S
O315 C297 1.257 . S
H316 C302 0.929 . S
H317 C304 0.931 . S
H318 C306 0.929 . S
O319 Tb320 2.292 . S
O319 C322 1.255 . S
Tb320 O319 2.292 . S
Tb320 O336 2.326 . S
Tb320 O338 2.500 . S
Tb320 O339 2.473 . S
Tb320 O342 2.324 . S
Eu321 O325 2.292 . S
Eu321 C326 2.852 . S
Eu321 O337 2.324 . S
Eu321 O341 2.326 . S
Eu321 O343 2.500 . S
Eu321 O344 2.473 . S
C322 O319 1.255 . S
C322 O323 1.247 . S
O323 C322 1.247 . S
C324 O336 1.242 . S
C324 O337 1.258 . S
O325 Eu321 2.292 . S
O325 C327 1.255 . S
C326 Eu321 2.852 . S
C326 C330 1.503 . S
C326 O343 1.273 . S
C326 O344 1.257 . S
C327 O325 1.255 . S
C327 O328 1.247 . S
O328 C327 1.247 . S
C329 O341 1.242 . S
C329 O342 1.258 . S
C330 C326 1.503 . S
C330 C331 1.379 . S
C330 C335 1.392 . S
C331 C330 1.379 . S
C331 C332 1.404 . S
C331 H345 0.929 . S
C332 C331 1.404 . S
C332 C333 1.389 . S
C333 C332 1.389 . S
C333 C334 1.399 . S
C333 H346 0.931 . S
C334 C333 1.399 . S
C334 C335 1.390 . S
C335 C330 1.392 . S
C335 C334 1.390 . S
C335 H347 0.929 . S
O336 Tb320 2.326 . S
O336 C324 1.242 . S
O337 Eu321 2.324 . S
O337 C324 1.258 . S
O338 Tb320 2.500 . S
O338 C340 1.273 . S
O339 Tb320 2.473 . S
O339 C340 1.257 . S
C340 O338 1.273 . S
C340 O339 1.257 . S
O341 Eu321 2.326 . S
O341 C329 1.242 . S
O342 Tb320 2.324 . S
O342 C329 1.258 . S
O343 Eu321 2.500 . S
O343 C326 1.273 . S
O344 Eu321 2.473 . S
O344 C326 1.257 . S
H345 C331 0.929 . S
H346 C333 0.931 . S
H347 C335 0.929 . S
O348 Tb349 2.292 . S
O348 C351 1.255 . S
Tb349 O348 2.292 . S
Tb349 O365 2.326 . S
Tb349 O367 2.500 . S
Tb349 O368 2.473 . S
Tb349 O371 2.324 . S
Eu350 O354 2.292 . S
Eu350 C355 2.852 . S
Eu350 O366 2.324 . S
Eu350 O370 2.326 . S
Eu350 O372 2.500 . S
Eu350 O373 2.473 . S
C351 O348 1.255 . S
C351 O352 1.247 . S
O352 C351 1.247 . S
C353 O365 1.242 . S
C353 O366 1.258 . S
O354 Eu350 2.292 . S
O354 C356 1.255 . S
C355 Eu350 2.852 . S
C355 C359 1.503 . S
C355 O372 1.273 . S
C355 O373 1.257 . S
C356 O354 1.255 . S
C356 O357 1.247 . S
O357 C356 1.247 . S
C358 O370 1.242 . S
C358 O371 1.258 . S
C359 C355 1.503 . S
C359 C360 1.379 . S
C359 C364 1.392 . S
C360 C359 1.379 . S
C360 C361 1.404 . S
C360 H374 0.929 . S
C361 C360 1.404 . S
C361 C362 1.389 . S
C362 C361 1.389 . S
C362 C363 1.399 . S
C362 H375 0.931 . S
C363 C362 1.399 . S
C363 C364 1.390 . S
C364 C359 1.392 . S
C364 C363 1.390 . S
C364 H376 0.929 . S
O365 Tb349 2.326 . S
O365 C353 1.242 . S
O366 Eu350 2.324 . S
O366 C353 1.258 . S
O367 Tb349 2.500 . S
O367 C369 1.273 . S
O368 Tb349 2.473 . S
O368 C369 1.257 . S
C369 O367 1.273 . S
C369 O368 1.257 . S
O370 Eu350 2.326 . S
O370 C358 1.242 . S
O371 Tb349 2.324 . S
O371 C358 1.258 . S
O372 Eu350 2.500 . S
O372 C355 1.273 . S
O373 Eu350 2.473 . S
O373 C355 1.257 . S
H374 C360 0.929 . S
H375 C362 0.931 . S
H376 C364 0.929 . S
O377 Tb378 2.292 . S
O377 C380 1.255 . S
Tb378 O377 2.292 . S
Tb378 O394 2.326 . S
Tb378 O396 2.500 . S
Tb378 O397 2.473 . S
Tb378 O400 2.324 . S
Eu379 O383 2.292 . S
Eu379 C384 2.852 . S
Eu379 O395 2.324 . S
Eu379 O399 2.326 . S
Eu379 O401 2.500 . S
Eu379 O402 2.473 . S
C380 O377 1.255 . S
C380 O381 1.247 . S
O381 C380 1.247 . S
C382 O394 1.242 . S
C382 O395 1.258 . S
O383 Eu379 2.292 . S
O383 C385 1.255 . S
C384 Eu379 2.852 . S
C384 C388 1.503 . S
C384 O401 1.273 . S
C384 O402 1.257 . S
C385 O383 1.255 . S
C385 O386 1.247 . S
O386 C385 1.247 . S
C387 O399 1.242 . S
C387 O400 1.258 . S
C388 C384 1.503 . S
C388 C389 1.379 . S
C388 C393 1.392 . S
C389 C388 1.379 . S
C389 C390 1.404 . S
C389 H403 0.929 . S
C390 C389 1.404 . S
C390 C391 1.389 . S
C391 C390 1.389 . S
C391 C392 1.399 . S
C391 H404 0.931 . S
C392 C391 1.399 . S
C392 C393 1.390 . S
C393 C388 1.392 . S
C393 C392 1.390 . S
C393 H405 0.929 . S
O394 Tb378 2.326 . S
O394 C382 1.242 . S
O395 Eu379 2.324 . S
O395 C382 1.258 . S
O396 Tb378 2.500 . S
O396 C398 1.273 . S
O397 Tb378 2.473 . S
O397 C398 1.257 . S
C398 O396 1.273 . S
C398 O397 1.257 . S
O399 Eu379 2.326 . S
O399 C387 1.242 . S
O400 Tb378 2.324 . S
O400 C387 1.258 . S
O401 Eu379 2.500 . S
O401 C384 1.273 . S
O402 Eu379 2.473 . S
O402 C384 1.257 . S
H403 C389 0.929 . S
H404 C391 0.931 . S
H405 C393 0.929 . S
O406 Tb407 2.292 . S
O406 C409 1.255 . S
Tb407 O406 2.292 . S
Tb407 O423 2.326 . S
Tb407 O425 2.500 . S
Tb407 O426 2.473 . S
Tb407 O429 2.324 . S
Eu408 O412 2.292 . S
Eu408 C413 2.852 . S
Eu408 O424 2.324 . S
Eu408 O428 2.326 . S
Eu408 O430 2.500 . S
Eu408 O431 2.473 . S
C409 O406 1.255 . S
C409 O410 1.247 . S
O410 C409 1.247 . S
C411 O423 1.242 . S
C411 O424 1.258 . S
O412 Eu408 2.292 . S
O412 C414 1.255 . S
C413 Eu408 2.852 . S
C413 C417 1.503 . S
C413 O430 1.273 . S
C413 O431 1.257 . S
C414 O412 1.255 . S
C414 O415 1.247 . S
O415 C414 1.247 . S
C416 O428 1.242 . S
C416 O429 1.258 . S
C417 C413 1.503 . S
C417 C418 1.379 . S
C417 C422 1.392 . S
C418 C417 1.379 . S
C418 C419 1.404 . S
C418 H432 0.929 . S
C419 C418 1.404 . S
C419 C420 1.389 . S
C420 C419 1.389 . S
C420 C421 1.399 . S
C420 H433 0.931 . S
C421 C420 1.399 . S
C421 C422 1.390 . S
C422 C417 1.392 . S
C422 C421 1.390 . S
C422 H434 0.929 . S
O423 Tb407 2.326 . S
O423 C411 1.242 . S
O424 Eu408 2.324 . S
O424 C411 1.258 . S
O425 Tb407 2.500 . S
O425 C427 1.273 . S
O426 Tb407 2.473 . S
O426 C427 1.257 . S
C427 O425 1.273 . S
C427 O426 1.257 . S
O428 Eu408 2.326 . S
O428 C416 1.242 . S
O429 Tb407 2.324 . S
O429 C416 1.258 . S
O430 Eu408 2.500 . S
O430 C413 1.273 . S
O431 Eu408 2.473 . S
O431 C413 1.257 . S
H432 C418 0.929 . S
H433 C420 0.931 . S
H434 C422 0.929 . S
O435 Tb436 2.292 . S
O435 C438 1.255 . S
Tb436 O435 2.292 . S
Tb436 O452 2.326 . S
Tb436 O454 2.500 . S
Tb436 O455 2.473 . S
Tb436 O458 2.324 . S
Eu437 O441 2.292 . S
Eu437 C442 2.852 . S
Eu437 O453 2.324 . S
Eu437 O457 2.326 . S
Eu437 O459 2.500 . S
Eu437 O460 2.473 . S
C438 O435 1.255 . S
C438 O439 1.247 . S
O439 C438 1.247 . S
C440 O452 1.242 . S
C440 O453 1.258 . S
O441 Eu437 2.292 . S
O441 C443 1.255 . S
C442 Eu437 2.852 . S
C442 C446 1.503 . S
C442 O459 1.273 . S
C442 O460 1.257 . S
C443 O441 1.255 . S
C443 O444 1.247 . S
O444 C443 1.247 . S
C445 O457 1.242 . S
C445 O458 1.258 . S
C446 C442 1.503 . S
C446 C447 1.379 . S
C446 C451 1.392 . S
C447 C446 1.379 . S
C447 C448 1.404 . S
C447 H461 0.929 . S
C448 C447 1.404 . S
C448 C449 1.389 . S
C449 C448 1.389 . S
C449 C450 1.399 . S
C449 H462 0.931 . S
C450 C449 1.399 . S
C450 C451 1.390 . S
C451 C446 1.392 . S
C451 C450 1.390 . S
C451 H463 0.929 . S
O452 Tb436 2.326 . S
O452 C440 1.242 . S
O453 Eu437 2.324 . S
O453 C440 1.258 . S
O454 Tb436 2.500 . S
O454 C456 1.273 . S
O455 Tb436 2.473 . S
O455 C456 1.257 . S
C456 O454 1.273 . S
C456 O455 1.257 . S
O457 Eu437 2.326 . S
O457 C445 1.242 . S
O458 Tb436 2.324 . S
O458 C445 1.258 . S
O459 Eu437 2.500 . S
O459 C442 1.273 . S
O460 Eu437 2.473 . S
O460 C442 1.257 . S
H461 C447 0.929 . S
H462 C449 0.931 . S
H463 C451 0.929 . S
O464 Tb465 2.292 . S
O464 C467 1.255 . S
Tb465 O464 2.292 . S
Tb465 O481 2.326 . S
Tb465 O483 2.500 . S
Tb465 O484 2.473 . S
Tb465 O487 2.324 . S
Eu466 O470 2.292 . S
Eu466 C471 2.852 . S
Eu466 O482 2.324 . S
Eu466 O486 2.326 . S
Eu466 O488 2.500 . S
Eu466 O489 2.473 . S
C467 O464 1.255 . S
C467 O468 1.247 . S
O468 C467 1.247 . S
C469 O481 1.242 . S
C469 O482 1.258 . S
O470 Eu466 2.292 . S
O470 C472 1.255 . S
C471 Eu466 2.852 . S
C471 C475 1.503 . S
C471 O488 1.273 . S
C471 O489 1.257 . S
C472 O470 1.255 . S
C472 O473 1.247 . S
O473 C472 1.247 . S
C474 O486 1.242 . S
C474 O487 1.258 . S
C475 C471 1.503 . S
C475 C476 1.379 . S
C475 C480 1.392 . S
C476 C475 1.379 . S
C476 C477 1.404 . S
C476 H490 0.929 . S
C477 C476 1.404 . S
C477 C478 1.389 . S
C478 C477 1.389 . S
C478 C479 1.399 . S
C478 H491 0.931 . S
C479 C478 1.399 . S
C479 C480 1.390 . S
C480 C475 1.392 . S
C480 C479 1.390 . S
C480 H492 0.929 . S
O481 Tb465 2.326 . S
O481 C469 1.242 . S
O482 Eu466 2.324 . S
O482 C469 1.258 . S
O483 Tb465 2.500 . S
O483 C485 1.273 . S
O484 Tb465 2.473 . S
O484 C485 1.257 . S
C485 O483 1.273 . S
C485 O484 1.257 . S
O486 Eu466 2.326 . S
O486 C474 1.242 . S
O487 Tb465 2.324 . S
O487 C474 1.258 . S
O488 Eu466 2.500 . S
O488 C471 1.273 . S
O489 Eu466 2.473 . S
O489 C471 1.257 . S
H490 C476 0.929 . S
H491 C478 0.931 . S
H492 C480 0.929 . S
O493 Tb494 2.292 . S
O493 C496 1.255 . S
Tb494 O493 2.292 . S
Tb494 O510 2.326 . S
Tb494 O512 2.500 . S
Tb494 O513 2.473 . S
Tb494 O516 2.324 . S
Eu495 O499 2.292 . S
Eu495 C500 2.852 . S
Eu495 O511 2.324 . S
Eu495 O515 2.326 . S
Eu495 O517 2.500 . S
Eu495 O518 2.473 . S
C496 O493 1.255 . S
C496 O497 1.247 . S
O497 C496 1.247 . S
C498 O510 1.242 . S
C498 O511 1.258 . S
O499 Eu495 2.292 . S
O499 C501 1.255 . S
C500 Eu495 2.852 . S
C500 C504 1.503 . S
C500 O517 1.273 . S
C500 O518 1.257 . S
C501 O499 1.255 . S
C501 O502 1.247 . S
O502 C501 1.247 . S
C503 O515 1.242 . S
C503 O516 1.258 . S
C504 C500 1.503 . S
C504 C505 1.379 . S
C504 C509 1.392 . S
C505 C504 1.379 . S
C505 C506 1.404 . S
C505 H519 0.929 . S
C506 C505 1.404 . S
C506 C507 1.389 . S
C507 C506 1.389 . S
C507 C508 1.399 . S
C507 H520 0.931 . S
C508 C507 1.399 . S
C508 C509 1.390 . S
C509 C504 1.392 . S
C509 C508 1.390 . S
C509 H521 0.929 . S
O510 Tb494 2.326 . S
O510 C498 1.242 . S
O511 Eu495 2.324 . S
O511 C498 1.258 . S
O512 Tb494 2.500 . S
O512 C514 1.273 . S
O513 Tb494 2.473 . S
O513 C514 1.257 . S
C514 O512 1.273 . S
C514 O513 1.257 . S
O515 Eu495 2.326 . S
O515 C503 1.242 . S
O516 Tb494 2.324 . S
O516 C503 1.258 . S
O517 Eu495 2.500 . S
O517 C500 1.273 . S
O518 Eu495 2.473 . S
O518 C500 1.257 . S
H519 C505 0.929 . S
H520 C507 0.931 . S
H521 C509 0.929 . S
O522 Tb523 2.292 . S
O522 C525 1.255 . S
Tb523 O522 2.292 . S
Tb523 O539 2.326 . S
Tb523 O541 2.500 . S
Tb523 O542 2.473 . S
Tb523 O545 2.324 . S
Eu524 O528 2.292 . S
Eu524 C529 2.852 . S
Eu524 O540 2.324 . S
Eu524 O544 2.326 . S
Eu524 O546 2.500 . S
Eu524 O547 2.473 . S
C525 O522 1.255 . S
C525 O526 1.247 . S
O526 C525 1.247 . S
C527 O539 1.242 . S
C527 O540 1.258 . S
O528 Eu524 2.292 . S
O528 C530 1.255 . S
C529 Eu524 2.852 . S
C529 C533 1.503 . S
C529 O546 1.273 . S
C529 O547 1.257 . S
C530 O528 1.255 . S
C530 O531 1.247 . S
O531 C530 1.247 . S
C532 O544 1.242 . S
C532 O545 1.258 . S
C533 C529 1.503 . S
C533 C534 1.379 . S
C533 C538 1.392 . S
C534 C533 1.379 . S
C534 C535 1.404 . S
C534 H548 0.929 . S
C535 C534 1.404 . S
C535 C536 1.389 . S
C536 C535 1.389 . S
C536 C537 1.399 . S
C536 H549 0.931 . S
C537 C536 1.399 . S
C537 C538 1.390 . S
C538 C533 1.392 . S
C538 C537 1.390 . S
C538 H550 0.929 . S
O539 Tb523 2.326 . S
O539 C527 1.242 . S
O540 Eu524 2.324 . S
O540 C527 1.258 . S
O541 Tb523 2.500 . S
O541 C543 1.273 . S
O542 Tb523 2.473 . S
O542 C543 1.257 . S
C543 O541 1.273 . S
C543 O542 1.257 . S
O544 Eu524 2.326 . S
O544 C532 1.242 . S
O545 Tb523 2.324 . S
O545 C532 1.258 . S
O546 Eu524 2.500 . S
O546 C529 1.273 . S
O547 Eu524 2.473 . S
O547 C529 1.257 . S
H548 C534 0.929 . S
H549 C536 0.931 . S
H550 C538 0.929 . S
O551 Tb552 2.292 . S
O551 C554 1.255 . S
Tb552 O551 2.292 . S
Tb552 O568 2.326 . S
Tb552 O570 2.500 . S
Tb552 O571 2.473 . S
Tb552 O574 2.324 . S
Eu553 O557 2.292 . S
Eu553 C558 2.852 . S
Eu553 O569 2.324 . S
Eu553 O573 2.326 . S
Eu553 O575 2.500 . S
Eu553 O576 2.473 . S
C554 O551 1.255 . S
C554 O555 1.247 . S
O555 C554 1.247 . S
C556 O568 1.242 . S
C556 O569 1.258 . S
O557 Eu553 2.292 . S
O557 C559 1.255 . S
C558 Eu553 2.852 . S
C558 C562 1.503 . S
C558 O575 1.273 . S
C558 O576 1.257 . S
C559 O557 1.255 . S
C559 O560 1.247 . S
O560 C559 1.247 . S
C561 O573 1.242 . S
C561 O574 1.258 . S
C562 C558 1.503 . S
C562 C563 1.379 . S
C562 C567 1.392 . S
C563 C562 1.379 . S
C563 C564 1.404 . S
C563 H577 0.929 . S
C564 C563 1.404 . S
C564 C565 1.389 . S
C565 C564 1.389 . S
C565 C566 1.399 . S
C565 H578 0.931 . S
C566 C565 1.399 . S
C566 C567 1.390 . S
C567 C562 1.392 . S
C567 C566 1.390 . S
C567 H579 0.929 . S
O568 Tb552 2.326 . S
O568 C556 1.242 . S
O569 Eu553 2.324 . S
O569 C556 1.258 . S
O570 Tb552 2.500 . S
O570 C572 1.273 . S
O571 Tb552 2.473 . S
O571 C572 1.257 . S
C572 O570 1.273 . S
C572 O571 1.257 . S
O573 Eu553 2.326 . S
O573 C561 1.242 . S
O574 Tb552 2.324 . S
O574 C561 1.258 . S
O575 Eu553 2.500 . S
O575 C558 1.273 . S
O576 Eu553 2.473 . S
O576 C558 1.257 . S
H577 C563 0.929 . S
H578 C565 0.931 . S
H579 C567 0.929 . S
O580 Tb581 2.292 . S
O580 C583 1.255 . S
Tb581 O580 2.292 . S
Tb581 O597 2.326 . S
Tb581 O599 2.500 . S
Tb581 O600 2.473 . S
Tb581 O603 2.324 . S
Eu582 O586 2.292 . S
Eu582 C587 2.852 . S
Eu582 O598 2.324 . S
Eu582 O602 2.326 . S
Eu582 O604 2.500 . S
Eu582 O605 2.473 . S
C583 O580 1.255 . S
C583 O584 1.247 . S
O584 C583 1.247 . S
C585 O597 1.242 . S
C585 O598 1.258 . S
O586 Eu582 2.292 . S
O586 C588 1.255 . S
C587 Eu582 2.852 . S
C587 C591 1.503 . S
C587 O604 1.273 . S
C587 O605 1.257 . S
C588 O586 1.255 . S
C588 O589 1.247 . S
O589 C588 1.247 . S
C590 O602 1.242 . S
C590 O603 1.258 . S
C591 C587 1.503 . S
C591 C592 1.379 . S
C591 C596 1.392 . S
C592 C591 1.379 . S
C592 C593 1.404 . S
C592 H606 0.929 . S
C593 C592 1.404 . S
C593 C594 1.389 . S
C594 C593 1.389 . S
C594 C595 1.399 . S
C594 H607 0.931 . S
C595 C594 1.399 . S
C595 C596 1.390 . S
C596 C591 1.392 . S
C596 C595 1.390 . S
C596 H608 0.929 . S
O597 Tb581 2.326 . S
O597 C585 1.242 . S
O598 Eu582 2.324 . S
O598 C585 1.258 . S
O599 Tb581 2.500 . S
O599 C601 1.273 . S
O600 Tb581 2.473 . S
O600 C601 1.257 . S
C601 O599 1.273 . S
C601 O600 1.257 . S
O602 Eu582 2.326 . S
O602 C590 1.242 . S
O603 Tb581 2.324 . S
O603 C590 1.258 . S
O604 Eu582 2.500 . S
O604 C587 1.273 . S
O605 Eu582 2.473 . S
O605 C587 1.257 . S
H606 C592 0.929 . S
H607 C594 0.931 . S
H608 C596 0.929 . S
O609 Tb610 2.292 . S
O609 C612 1.255 . S
Tb610 O609 2.292 . S
Tb610 O626 2.326 . S
Tb610 O628 2.500 . S
Tb610 O629 2.473 . S
Tb610 O632 2.324 . S
Eu611 O615 2.292 . S
Eu611 C616 2.852 . S
Eu611 O627 2.324 . S
Eu611 O631 2.326 . S
Eu611 O633 2.500 . S
Eu611 O634 2.473 . S
C612 O609 1.255 . S
C612 O613 1.247 . S
O613 C612 1.247 . S
C614 O626 1.242 . S
C614 O627 1.258 . S
O615 Eu611 2.292 . S
O615 C617 1.255 . S
C616 Eu611 2.852 . S
C616 C620 1.503 . S
C616 O633 1.273 . S
C616 O634 1.257 . S
C617 O615 1.255 . S
C617 O618 1.247 . S
O618 C617 1.247 . S
C619 O631 1.242 . S
C619 O632 1.258 . S
C620 C616 1.503 . S
C620 C621 1.379 . S
C620 C625 1.392 . S
C621 C620 1.379 . S
C621 C622 1.404 . S
C621 H635 0.929 . S
C622 C621 1.404 . S
C622 C623 1.389 . S
C623 C622 1.389 . S
C623 C624 1.399 . S
C623 H636 0.931 . S
C624 C623 1.399 . S
C624 C625 1.390 . S
C625 C620 1.392 . S
C625 C624 1.390 . S
C625 H637 0.929 . S
O626 Tb610 2.326 . S
O626 C614 1.242 . S
O627 Eu611 2.324 . S
O627 C614 1.258 . S
O628 Tb610 2.500 . S
O628 C630 1.273 . S
O629 Tb610 2.473 . S
O629 C630 1.257 . S
C630 O628 1.273 . S
C630 O629 1.257 . S
O631 Eu611 2.326 . S
O631 C619 1.242 . S
O632 Tb610 2.324 . S
O632 C619 1.258 . S
O633 Eu611 2.500 . S
O633 C616 1.273 . S
O634 Eu611 2.473 . S
O634 C616 1.257 . S
H635 C621 0.929 . S
H636 C623 0.931 . S
H637 C625 0.929 . S
O638 Tb639 2.292 . S
O638 C641 1.255 . S
Tb639 O638 2.292 . S
Tb639 O655 2.326 . S
Tb639 O657 2.500 . S
Tb639 O658 2.473 . S
Tb639 O661 2.324 . S
Eu640 O644 2.292 . S
Eu640 C645 2.852 . S
Eu640 O656 2.324 . S
Eu640 O660 2.326 . S
Eu640 O662 2.500 . S
Eu640 O663 2.473 . S
C641 O638 1.255 . S
C641 O642 1.247 . S
O642 C641 1.247 . S
C643 O655 1.242 . S
C643 O656 1.258 . S
O644 Eu640 2.292 . S
O644 C646 1.255 . S
C645 Eu640 2.852 . S
C645 C649 1.503 . S
C645 O662 1.273 . S
C645 O663 1.257 . S
C646 O644 1.255 . S
C646 O647 1.247 . S
O647 C646 1.247 . S
C648 O660 1.242 . S
C648 O661 1.258 . S
C649 C645 1.503 . S
C649 C650 1.379 . S
C649 C654 1.392 . S
C650 C649 1.379 . S
C650 C651 1.404 . S
C650 H664 0.929 . S
C651 C650 1.404 . S
C651 C652 1.389 . S
C652 C651 1.389 . S
C652 C653 1.399 . S
C652 H665 0.931 . S
C653 C652 1.399 . S
C653 C654 1.390 . S
C654 C649 1.392 . S
C654 C653 1.390 . S
C654 H666 0.929 . S
O655 Tb639 2.326 . S
O655 C643 1.242 . S
O656 Eu640 2.324 . S
O656 C643 1.258 . S
O657 Tb639 2.500 . S
O657 C659 1.273 . S
O658 Tb639 2.473 . S
O658 C659 1.257 . S
C659 O657 1.273 . S
C659 O658 1.257 . S
O660 Eu640 2.326 . S
O660 C648 1.242 . S
O661 Tb639 2.324 . S
O661 C648 1.258 . S
O662 Eu640 2.500 . S
O662 C645 1.273 . S
O663 Eu640 2.473 . S
O663 C645 1.257 . S
H664 C650 0.929 . S
H665 C652 0.931 . S
H666 C654 0.929 . S
O667 Tb668 2.292 . S
O667 C670 1.255 . S
Tb668 O667 2.292 . S
Tb668 O684 2.326 . S
Tb668 O686 2.500 . S
Tb668 O687 2.473 . S
Tb668 O690 2.324 . S
Eu669 O673 2.292 . S
Eu669 C674 2.852 . S
Eu669 O685 2.324 . S
Eu669 O689 2.326 . S
Eu669 O691 2.500 . S
Eu669 O692 2.473 . S
C670 O667 1.255 . S
C670 O671 1.247 . S
O671 C670 1.247 . S
C672 O684 1.242 . S
C672 O685 1.258 . S
O673 Eu669 2.292 . S
O673 C675 1.255 . S
C674 Eu669 2.852 . S
C674 C678 1.503 . S
C674 O691 1.273 . S
C674 O692 1.257 . S
C675 O673 1.255 . S
C675 O676 1.247 . S
O676 C675 1.247 . S
C677 O689 1.242 . S
C677 O690 1.258 . S
C678 C674 1.503 . S
C678 C679 1.379 . S
C678 C683 1.392 . S
C679 C678 1.379 . S
C679 C680 1.404 . S
C679 H693 0.929 . S
C680 C679 1.404 . S
C680 C681 1.389 . S
C681 C680 1.389 . S
C681 C682 1.399 . S
C681 H694 0.931 . S
C682 C681 1.399 . S
C682 C683 1.390 . S
C683 C678 1.392 . S
C683 C682 1.390 . S
C683 H695 0.929 . S
O684 Tb668 2.326 . S
O684 C672 1.242 . S
O685 Eu669 2.324 . S
O685 C672 1.258 . S
O686 Tb668 2.500 . S
O686 C688 1.273 . S
O687 Tb668 2.473 . S
O687 C688 1.257 . S
C688 O686 1.273 . S
C688 O687 1.257 . S
O689 Eu669 2.326 . S
O689 C677 1.242 . S
O690 Tb668 2.324 . S
O690 C677 1.258 . S
O691 Eu669 2.500 . S
O691 C674 1.273 . S
O692 Eu669 2.473 . S
O692 C674 1.257 . S
H693 C679 0.929 . S
H694 C681 0.931 . S
H695 C683 0.929 . S
O696 Tb697 2.292 . S
O696 C699 1.255 . S
Tb697 O696 2.292 . S
Tb697 O713 2.326 . S
Tb697 O715 2.500 . S
Tb697 O716 2.473 . S
Tb697 O719 2.324 . S
Eu698 O702 2.292 . S
Eu698 C703 2.852 . S
Eu698 O714 2.324 . S
Eu698 O718 2.326 . S
Eu698 O720 2.500 . S
Eu698 O721 2.473 . S
C699 O696 1.255 . S
C699 O700 1.247 . S
O700 C699 1.247 . S
C701 O713 1.242 . S
C701 O714 1.258 . S
O702 Eu698 2.292 . S
O702 C704 1.255 . S
C703 Eu698 2.852 . S
C703 C707 1.503 . S
C703 O720 1.273 . S
C703 O721 1.257 . S
C704 O702 1.255 . S
C704 O705 1.247 . S
O705 C704 1.247 . S
C706 O718 1.242 . S
C706 O719 1.258 . S
C707 C703 1.503 . S
C707 C708 1.379 . S
C707 C712 1.392 . S
C708 C707 1.379 . S
C708 C709 1.404 . S
C708 H722 0.929 . S
C709 C708 1.404 . S
C709 C710 1.389 . S
C710 C709 1.389 . S
C710 C711 1.399 . S
C710 H723 0.931 . S
C711 C710 1.399 . S
C711 C712 1.390 . S
C712 C707 1.392 . S
C712 C711 1.390 . S
C712 H724 0.929 . S
O713 Tb697 2.326 . S
O713 C701 1.242 . S
O714 Eu698 2.324 . S
O714 C701 1.258 . S
O715 Tb697 2.500 . S
O715 C717 1.273 . S
O716 Tb697 2.473 . S
O716 C717 1.257 . S
C717 O715 1.273 . S
C717 O716 1.257 . S
O718 Eu698 2.326 . S
O718 C706 1.242 . S
O719 Tb697 2.324 . S
O719 C706 1.258 . S
O720 Eu698 2.500 . S
O720 C703 1.273 . S
O721 Eu698 2.473 . S
O721 C703 1.257 . S
H722 C708 0.929 . S
H723 C710 0.931 . S
H724 C712 0.929 . S
O725 Tb726 2.292 . S
O725 C728 1.255 . S
Tb726 O725 2.292 . S
Tb726 O742 2.326 . S
Tb726 O744 2.500 . S
Tb726 O745 2.473 . S
Tb726 O748 2.324 . S
Eu727 O731 2.292 . S
Eu727 C732 2.852 . S
Eu727 O743 2.324 . S
Eu727 O747 2.326 . S
Eu727 O749 2.500 . S
Eu727 O750 2.473 . S
C728 O725 1.255 . S
C728 O729 1.247 . S
O729 C728 1.247 . S
C730 O742 1.242 . S
C730 O743 1.258 . S
O731 Eu727 2.292 . S
O731 C733 1.255 . S
C732 Eu727 2.852 . S
C732 C736 1.503 . S
C732 O749 1.273 . S
C732 O750 1.257 . S
C733 O731 1.255 . S
C733 O734 1.247 . S
O734 C733 1.247 . S
C735 O747 1.242 . S
C735 O748 1.258 . S
C736 C732 1.503 . S
C736 C737 1.379 . S
C736 C741 1.392 . S
C737 C736 1.379 . S
C737 C738 1.404 . S
C737 H751 0.929 . S
C738 C737 1.404 . S
C738 C739 1.389 . S
C739 C738 1.389 . S
C739 C740 1.399 . S
C739 H752 0.931 . S
C740 C739 1.399 . S
C740 C741 1.390 . S
C741 C736 1.392 . S
C741 C740 1.390 . S
C741 H753 0.929 . S
O742 Tb726 2.326 . S
O742 C730 1.242 . S
O743 Eu727 2.324 . S
O743 C730 1.258 . S
O744 Tb726 2.500 . S
O744 C746 1.273 . S
O745 Tb726 2.473 . S
O745 C746 1.257 . S
C746 O744 1.273 . S
C746 O745 1.257 . S
O747 Eu727 2.326 . S
O747 C735 1.242 . S
O748 Tb726 2.324 . S
O748 C735 1.258 . S
O749 Eu727 2.500 . S
O749 C732 1.273 . S
O750 Eu727 2.473 . S
O750 C732 1.257 . S
H751 C737 0.929 . S
H752 C739 0.931 . S
H753 C741 0.929 . S
O754 Tb755 2.292 . S
O754 C757 1.255 . S
Tb755 O754 2.292 . S
Tb755 O771 2.326 . S
Tb755 O773 2.500 . S
Tb755 O774 2.473 . S
Tb755 O777 2.324 . S
Eu756 O760 2.292 . S
Eu756 C761 2.852 . S
Eu756 O772 2.324 . S
Eu756 O776 2.326 . S
Eu756 O778 2.500 . S
Eu756 O779 2.473 . S
C757 O754 1.255 . S
C757 O758 1.247 . S
O758 C757 1.247 . S
C759 O771 1.242 . S
C759 O772 1.258 . S
O760 Eu756 2.292 . S
O760 C762 1.255 . S
C761 Eu756 2.852 . S
C761 C765 1.503 . S
C761 O778 1.273 . S
C761 O779 1.257 . S
C762 O760 1.255 . S
C762 O763 1.247 . S
O763 C762 1.247 . S
C764 O776 1.242 . S
C764 O777 1.258 . S
C765 C761 1.503 . S
C765 C766 1.379 . S
C765 C770 1.392 . S
C766 C765 1.379 . S
C766 C767 1.404 . S
C766 H780 0.929 . S
C767 C766 1.404 . S
C767 C768 1.389 . S
C768 C767 1.389 . S
C768 C769 1.399 . S
C768 H781 0.931 . S
C769 C768 1.399 . S
C769 C770 1.390 . S
C770 C765 1.392 . S
C770 C769 1.390 . S
C770 H782 0.929 . S
O771 Tb755 2.326 . S
O771 C759 1.242 . S
O772 Eu756 2.324 . S
O772 C759 1.258 . S
O773 Tb755 2.500 . S
O773 C775 1.273 . S
O774 Tb755 2.473 . S
O774 C775 1.257 . S
C775 O773 1.273 . S
C775 O774 1.257 . S
O776 Eu756 2.326 . S
O776 C764 1.242 . S
O777 Tb755 2.324 . S
O777 C764 1.258 . S
O778 Eu756 2.500 . S
O778 C761 1.273 . S
O779 Eu756 2.473 . S
O779 C761 1.257 . S
H780 C766 0.929 . S
H781 C768 0.931 . S
H782 C770 0.929 . S
O783 Tb784 2.292 . S
O783 C786 1.255 . S
Tb784 O783 2.292 . S
Tb784 O800 2.326 . S
Tb784 O802 2.500 . S
Tb784 O803 2.473 . S
Tb784 O806 2.324 . S
Eu785 O789 2.292 . S
Eu785 C790 2.852 . S
Eu785 O801 2.324 . S
Eu785 O805 2.326 . S
Eu785 O807 2.500 . S
Eu785 O808 2.473 . S
C786 O783 1.255 . S
C786 O787 1.247 . S
O787 C786 1.247 . S
C788 O800 1.242 . S
C788 O801 1.258 . S
O789 Eu785 2.292 . S
O789 C791 1.255 . S
C790 Eu785 2.852 . S
C790 C794 1.503 . S
C790 O807 1.273 . S
C790 O808 1.257 . S
C791 O789 1.255 . S
C791 O792 1.247 . S
O792 C791 1.247 . S
C793 O805 1.242 . S
C793 O806 1.258 . S
C794 C790 1.503 . S
C794 C795 1.379 . S
C794 C799 1.392 . S
C795 C794 1.379 . S
C795 C796 1.404 . S
C795 H809 0.929 . S
C796 C795 1.404 . S
C796 C797 1.389 . S
C797 C796 1.389 . S
C797 C798 1.399 . S
C797 H810 0.931 . S
C798 C797 1.399 . S
C798 C799 1.390 . S
C799 C794 1.392 . S
C799 C798 1.390 . S
C799 H811 0.929 . S
O800 Tb784 2.326 . S
O800 C788 1.242 . S
O801 Eu785 2.324 . S
O801 C788 1.258 . S
O802 Tb784 2.500 . S
O802 C804 1.273 . S
O803 Tb784 2.473 . S
O803 C804 1.257 . S
C804 O802 1.273 . S
C804 O803 1.257 . S
O805 Eu785 2.326 . S
O805 C793 1.242 . S
O806 Tb784 2.324 . S
O806 C793 1.258 . S
O807 Eu785 2.500 . S
O807 C790 1.273 . S
O808 Eu785 2.473 . S
O808 C790 1.257 . S
H809 C795 0.929 . S
H810 C797 0.931 . S
H811 C799 0.929 . S
O812 Tb813 2.292 . S
O812 C815 1.255 . S
Tb813 O812 2.292 . S
Tb813 O829 2.326 . S
Tb813 O831 2.500 . S
Tb813 O832 2.473 . S
Tb813 O835 2.324 . S
Eu814 O818 2.292 . S
Eu814 C819 2.852 . S
Eu814 O830 2.324 . S
Eu814 O834 2.326 . S
Eu814 O836 2.500 . S
Eu814 O837 2.473 . S
C815 O812 1.255 . S
C815 O816 1.247 . S
O816 C815 1.247 . S
C817 O829 1.242 . S
C817 O830 1.258 . S
O818 Eu814 2.292 . S
O818 C820 1.255 . S
C819 Eu814 2.852 . S
C819 C823 1.503 . S
C819 O836 1.273 . S
C819 O837 1.257 . S
C820 O818 1.255 . S
C820 O821 1.247 . S
O821 C820 1.247 . S
C822 O834 1.242 . S
C822 O835 1.258 . S
C823 C819 1.503 . S
C823 C824 1.379 . S
C823 C828 1.392 . S
C824 C823 1.379 . S
C824 C825 1.404 . S
C824 H838 0.929 . S
C825 C824 1.404 . S
C825 C826 1.389 . S
C826 C825 1.389 . S
C826 C827 1.399 . S
C826 H839 0.931 . S
C827 C826 1.399 . S
C827 C828 1.390 . S
C828 C823 1.392 . S
C828 C827 1.390 . S
C828 H840 0.929 . S
O829 Tb813 2.326 . S
O829 C817 1.242 . S
O830 Eu814 2.324 . S
O830 C817 1.258 . S
O831 Tb813 2.500 . S
O831 C833 1.273 . S
O832 Tb813 2.473 . S
O832 C833 1.257 . S
C833 O831 1.273 . S
C833 O832 1.257 . S
O834 Eu814 2.326 . S
O834 C822 1.242 . S
O835 Tb813 2.324 . S
O835 C822 1.258 . S
O836 Eu814 2.500 . S
O836 C819 1.273 . S
O837 Eu814 2.473 . S
O837 C819 1.257 . S
H838 C824 0.929 . S
H839 C826 0.931 . S
H840 C828 0.929 . S
O841 Tb842 2.292 . S
O841 C844 1.255 . S
Tb842 O841 2.292 . S
Tb842 O858 2.326 . S
Tb842 O860 2.500 . S
Tb842 O861 2.473 . S
Tb842 O864 2.324 . S
Eu843 O847 2.292 . S
Eu843 C848 2.852 . S
Eu843 O859 2.324 . S
Eu843 O863 2.326 . S
Eu843 O865 2.500 . S
Eu843 O866 2.473 . S
C844 O841 1.255 . S
C844 O845 1.247 . S
O845 C844 1.247 . S
C846 O858 1.242 . S
C846 O859 1.258 . S
O847 Eu843 2.292 . S
O847 C849 1.255 . S
C848 Eu843 2.852 . S
C848 C852 1.503 . S
C848 O865 1.273 . S
C848 O866 1.257 . S
C849 O847 1.255 . S
C849 O850 1.247 . S
O850 C849 1.247 . S
C851 O863 1.242 . S
C851 O864 1.258 . S
C852 C848 1.503 . S
C852 C853 1.379 . S
C852 C857 1.392 . S
C853 C852 1.379 . S
C853 C854 1.404 . S
C853 H867 0.929 . S
C854 C853 1.404 . S
C854 C855 1.389 . S
C855 C854 1.389 . S
C855 C856 1.399 . S
C855 H868 0.931 . S
C856 C855 1.399 . S
C856 C857 1.390 . S
C857 C852 1.392 . S
C857 C856 1.390 . S
C857 H869 0.929 . S
O858 Tb842 2.326 . S
O858 C846 1.242 . S
O859 Eu843 2.324 . S
O859 C846 1.258 . S
O860 Tb842 2.500 . S
O860 C862 1.273 . S
O861 Tb842 2.473 . S
O861 C862 1.257 . S
C862 O860 1.273 . S
C862 O861 1.257 . S
O863 Eu843 2.326 . S
O863 C851 1.242 . S
O864 Tb842 2.324 . S
O864 C851 1.258 . S
O865 Eu843 2.500 . S
O865 C848 1.273 . S
O866 Eu843 2.473 . S
O866 C848 1.257 . S
H867 C853 0.929 . S
H868 C855 0.931 . S
H869 C857 0.929 . S
O870 Tb871 2.292 . S
O870 C873 1.255 . S
Tb871 O870 2.292 . S
Tb871 O887 2.326 . S
Tb871 O889 2.500 . S
Tb871 O890 2.473 . S
Tb871 O893 2.324 . S
Eu872 O876 2.292 . S
Eu872 C877 2.852 . S
Eu872 O888 2.324 . S
Eu872 O892 2.326 . S
Eu872 O894 2.500 . S
Eu872 O895 2.473 . S
C873 O870 1.255 . S
C873 O874 1.247 . S
O874 C873 1.247 . S
C875 O887 1.242 . S
C875 O888 1.258 . S
O876 Eu872 2.292 . S
O876 C878 1.255 . S
C877 Eu872 2.852 . S
C877 C881 1.503 . S
C877 O894 1.273 . S
C877 O895 1.257 . S
C878 O876 1.255 . S
C878 O879 1.247 . S
O879 C878 1.247 . S
C880 O892 1.242 . S
C880 O893 1.258 . S
C881 C877 1.503 . S
C881 C882 1.379 . S
C881 C886 1.392 . S
C882 C881 1.379 . S
C882 C883 1.404 . S
C882 H896 0.929 . S
C883 C882 1.404 . S
C883 C884 1.389 . S
C884 C883 1.389 . S
C884 C885 1.399 . S
C884 H897 0.931 . S
C885 C884 1.399 . S
C885 C886 1.390 . S
C886 C881 1.392 . S
C886 C885 1.390 . S
C886 H898 0.929 . S
O887 Tb871 2.326 . S
O887 C875 1.242 . S
O888 Eu872 2.324 . S
O888 C875 1.258 . S
O889 Tb871 2.500 . S
O889 C891 1.273 . S
O890 Tb871 2.473 . S
O890 C891 1.257 . S
C891 O889 1.273 . S
C891 O890 1.257 . S
O892 Eu872 2.326 . S
O892 C880 1.242 . S
O893 Tb871 2.324 . S
O893 C880 1.258 . S
O894 Eu872 2.500 . S
O894 C877 1.273 . S
O895 Eu872 2.473 . S
O895 C877 1.257 . S
H896 C882 0.929 . S
H897 C884 0.931 . S
H898 C886 0.929 . S
O899 Tb900 2.292 . S
O899 C902 1.255 . S
Tb900 O899 2.292 . S
Tb900 O916 2.326 . S
Tb900 O918 2.500 . S
Tb900 O919 2.473 . S
Tb900 O922 2.324 . S
Eu901 O905 2.292 . S
Eu901 C906 2.852 . S
Eu901 O917 2.324 . S
Eu901 O921 2.326 . S
Eu901 O923 2.500 . S
Eu901 O924 2.473 . S
C902 O899 1.255 . S
C902 O903 1.247 . S
O903 C902 1.247 . S
C904 O916 1.242 . S
C904 O917 1.258 . S
O905 Eu901 2.292 . S
O905 C907 1.255 . S
C906 Eu901 2.852 . S
C906 C910 1.503 . S
C906 O923 1.273 . S
C906 O924 1.257 . S
C907 O905 1.255 . S
C907 O908 1.247 . S
O908 C907 1.247 . S
C909 O921 1.242 . S
C909 O922 1.258 . S
C910 C906 1.503 . S
C910 C911 1.379 . S
C910 C915 1.392 . S
C911 C910 1.379 . S
C911 C912 1.404 . S
C911 H925 0.929 . S
C912 C911 1.404 . S
C912 C913 1.389 . S
C913 C912 1.389 . S
C913 C914 1.399 . S
C913 H926 0.931 . S
C914 C913 1.399 . S
C914 C915 1.390 . S
C915 C910 1.392 . S
C915 C914 1.390 . S
C915 H927 0.929 . S
O916 Tb900 2.326 . S
O916 C904 1.242 . S
O917 Eu901 2.324 . S
O917 C904 1.258 . S
O918 Tb900 2.500 . S
O918 C920 1.273 . S
O919 Tb900 2.473 . S
O919 C920 1.257 . S
C920 O918 1.273 . S
C920 O919 1.257 . S
O921 Eu901 2.326 . S
O921 C909 1.242 . S
O922 Tb900 2.324 . S
O922 C909 1.258 . S
O923 Eu901 2.500 . S
O923 C906 1.273 . S
O924 Eu901 2.473 . S
O924 C906 1.257 . S
H925 C911 0.929 . S
H926 C913 0.931 . S
H927 C915 0.929 . S
O928 Tb929 2.292 . S
O928 C931 1.255 . S
Tb929 O928 2.292 . S
Tb929 O945 2.326 . S
Tb929 O947 2.500 . S
Tb929 O948 2.473 . S
Tb929 O951 2.324 . S
Eu930 O934 2.292 . S
Eu930 C935 2.852 . S
Eu930 O946 2.324 . S
Eu930 O950 2.326 . S
Eu930 O952 2.500 . S
Eu930 O953 2.473 . S
C931 O928 1.255 . S
C931 O932 1.247 . S
O932 C931 1.247 . S
C933 O945 1.242 . S
C933 O946 1.258 . S
O934 Eu930 2.292 . S
O934 C936 1.255 . S
C935 Eu930 2.852 . S
C935 C939 1.503 . S
C935 O952 1.273 . S
C935 O953 1.257 . S
C936 O934 1.255 . S
C936 O937 1.247 . S
O937 C936 1.247 . S
C938 O950 1.242 . S
C938 O951 1.258 . S
C939 C935 1.503 . S
C939 C940 1.379 . S
C939 C944 1.392 . S
C940 C939 1.379 . S
C940 C941 1.404 . S
C940 H954 0.929 . S
C941 C940 1.404 . S
C941 C942 1.389 . S
C942 C941 1.389 . S
C942 C943 1.399 . S
C942 H955 0.931 . S
C943 C942 1.399 . S
C943 C944 1.390 . S
C944 C939 1.392 . S
C944 C943 1.390 . S
C944 H956 0.929 . S
O945 Tb929 2.326 . S
O945 C933 1.242 . S
O946 Eu930 2.324 . S
O946 C933 1.258 . S
O947 Tb929 2.500 . S
O947 C949 1.273 . S
O948 Tb929 2.473 . S
O948 C949 1.257 . S
C949 O947 1.273 . S
C949 O948 1.257 . S
O950 Eu930 2.326 . S
O950 C938 1.242 . S
O951 Tb929 2.324 . S
O951 C938 1.258 . S
O952 Eu930 2.500 . S
O952 C935 1.273 . S
O953 Eu930 2.473 . S
O953 C935 1.257 . S
H954 C940 0.929 . S
H955 C942 0.931 . S
H956 C944 0.929 . S
O957 Tb958 2.292 . S
O957 C960 1.255 . S
Tb958 O957 2.292 . S
Tb958 O974 2.326 . S
Tb958 O976 2.500 . S
Tb958 O977 2.473 . S
Tb958 O980 2.324 . S
Eu959 O963 2.292 . S
Eu959 C964 2.852 . S
Eu959 O975 2.324 . S
Eu959 O979 2.326 . S
Eu959 O981 2.500 . S
Eu959 O982 2.473 . S
C960 O957 1.255 . S
C960 O961 1.247 . S
O961 C960 1.247 . S
C962 O974 1.242 . S
C962 O975 1.258 . S
O963 Eu959 2.292 . S
O963 C965 1.255 . S
C964 Eu959 2.852 . S
C964 C968 1.503 . S
C964 O981 1.273 . S
C964 O982 1.257 . S
C965 O963 1.255 . S
C965 O966 1.247 . S
O966 C965 1.247 . S
C967 O979 1.242 . S
C967 O980 1.258 . S
C968 C964 1.503 . S
C968 C969 1.379 . S
C968 C973 1.392 . S
C969 C968 1.379 . S
C969 C970 1.404 . S
C969 H983 0.929 . S
C970 C969 1.404 . S
C970 C971 1.389 . S
C971 C970 1.389 . S
C971 C972 1.399 . S
C971 H984 0.931 . S
C972 C971 1.399 . S
C972 C973 1.390 . S
C973 C968 1.392 . S
C973 C972 1.390 . S
C973 H985 0.929 . S
O974 Tb958 2.326 . S
O974 C962 1.242 . S
O975 Eu959 2.324 . S
O975 C962 1.258 . S
O976 Tb958 2.500 . S
O976 C978 1.273 . S
O977 Tb958 2.473 . S
O977 C978 1.257 . S
C978 O976 1.273 . S
C978 O977 1.257 . S
O979 Eu959 2.326 . S
O979 C967 1.242 . S
O980 Tb958 2.324 . S
O980 C967 1.258 . S
O981 Eu959 2.500 . S
O981 C964 1.273 . S
O982 Eu959 2.473 . S
O982 C964 1.257 . S
H983 C969 0.929 . S
H984 C971 0.931 . S
H985 C973 0.929 . S
O986 Tb987 2.292 . S
O986 C989 1.255 . S
Tb987 O986 2.292 . S
Tb987 O1003 2.326 . S
Tb987 O1005 2.500 . S
Tb987 O1006 2.473 . S
Tb987 O1009 2.324 . S
Eu988 O992 2.292 . S
Eu988 C993 2.852 . S
Eu988 O1004 2.324 . S
Eu988 O1008 2.326 . S
Eu988 O1010 2.500 . S
Eu988 O1011 2.473 . S
C989 O986 1.255 . S
C989 O990 1.247 . S
O990 C989 1.247 . S
C991 O1003 1.242 . S
C991 O1004 1.258 . S
O992 Eu988 2.292 . S
O992 C994 1.255 . S
C993 Eu988 2.852 . S
C993 C997 1.503 . S
C993 O1010 1.273 . S
C993 O1011 1.257 . S
C994 O992 1.255 . S
C994 O995 1.247 . S
O995 C994 1.247 . S
C996 O1008 1.242 . S
C996 O1009 1.258 . S
C997 C993 1.503 . S
C997 C998 1.379 . S
C997 C1002 1.392 . S
C998 C997 1.379 . S
C998 C999 1.404 . S
C998 H1012 0.929 . S
C999 C998 1.404 . S
C999 C1000 1.389 . S
C1000 C999 1.389 . S
C1000 C1001 1.399 . S
C1000 H1013 0.931 . S
C1001 C1000 1.399 . S
C1001 C1002 1.390 . S
C1002 C997 1.392 . S
C1002 C1001 1.390 . S
C1002 H1014 0.929 . S
O1003 Tb987 2.326 . S
O1003 C991 1.242 . S
O1004 Eu988 2.324 . S
O1004 C991 1.258 . S
O1005 Tb987 2.500 . S
O1005 C1007 1.273 . S
O1006 Tb987 2.473 . S
O1006 C1007 1.257 . S
C1007 O1005 1.273 . S
C1007 O1006 1.257 . S
O1008 Eu988 2.326 . S
O1008 C996 1.242 . S
O1009 Tb987 2.324 . S
O1009 C996 1.258 . S
O1010 Eu988 2.500 . S
O1010 C993 1.273 . S
O1011 Eu988 2.473 . S
O1011 C993 1.257 . S
H1012 C998 0.929 . S
H1013 C1000 0.931 . S
H1014 C1002 0.929 . S
O1015 Tb1016 2.292 . S
O1015 C1018 1.255 . S
Tb1016 O1015 2.292 . S
Tb1016 O1032 2.326 . S
Tb1016 O1034 2.500 . S
Tb1016 O1035 2.473 . S
Tb1016 O1038 2.324 . S
Eu1017 O1021 2.292 . S
Eu1017 C1022 2.852 . S
Eu1017 O1033 2.324 . S
Eu1017 O1037 2.326 . S
Eu1017 O1039 2.500 . S
Eu1017 O1040 2.473 . S
C1018 O1015 1.255 . S
C1018 O1019 1.247 . S
O1019 C1018 1.247 . S
C1020 O1032 1.242 . S
C1020 O1033 1.258 . S
O1021 Eu1017 2.292 . S
O1021 C1023 1.255 . S
C1022 Eu1017 2.852 . S
C1022 C1026 1.503 . S
C1022 O1039 1.273 . S
C1022 O1040 1.257 . S
C1023 O1021 1.255 . S
C1023 O1024 1.247 . S
O1024 C1023 1.247 . S
C1025 O1037 1.242 . S
C1025 O1038 1.258 . S
C1026 C1022 1.503 . S
C1026 C1027 1.379 . S
C1026 C1031 1.392 . S
C1027 C1026 1.379 . S
C1027 C1028 1.404 . S
C1027 H1041 0.929 . S
C1028 C1027 1.404 . S
C1028 C1029 1.389 . S
C1029 C1028 1.389 . S
C1029 C1030 1.399 . S
C1029 H1042 0.931 . S
C1030 C1029 1.399 . S
C1030 C1031 1.390 . S
C1031 C1026 1.392 . S
C1031 C1030 1.390 . S
C1031 H1043 0.929 . S
O1032 Tb1016 2.326 . S
O1032 C1020 1.242 . S
O1033 Eu1017 2.324 . S
O1033 C1020 1.258 . S
O1034 Tb1016 2.500 . S
O1034 C1036 1.273 . S
O1035 Tb1016 2.473 . S
O1035 C1036 1.257 . S
C1036 O1034 1.273 . S
C1036 O1035 1.257 . S
O1037 Eu1017 2.326 . S
O1037 C1025 1.242 . S
O1038 Tb1016 2.324 . S
O1038 C1025 1.258 . S
O1039 Eu1017 2.500 . S
O1039 C1022 1.273 . S
O1040 Eu1017 2.473 . S
O1040 C1022 1.257 . S
H1041 C1027 0.929 . S
H1042 C1029 0.931 . S
H1043 C1031 0.929 . S
O1044 Tb1045 2.292 . S
O1044 C1047 1.255 . S
Tb1045 O1044 2.292 . S
Tb1045 O1061 2.326 . S
Tb1045 O1063 2.500 . S
Tb1045 O1064 2.473 . S
Tb1045 O1067 2.324 . S
Eu1046 O1050 2.292 . S
Eu1046 C1051 2.852 . S
Eu1046 O1062 2.324 . S
Eu1046 O1066 2.326 . S
Eu1046 O1068 2.500 . S
Eu1046 O1069 2.473 . S
C1047 O1044 1.255 . S
C1047 O1048 1.247 . S
O1048 C1047 1.247 . S
C1049 O1061 1.242 . S
C1049 O1062 1.258 . S
O1050 Eu1046 2.292 . S
O1050 C1052 1.255 . S
C1051 Eu1046 2.852 . S
C1051 C1055 1.503 . S
C1051 O1068 1.273 . S
C1051 O1069 1.257 . S
C1052 O1050 1.255 . S
C1052 O1053 1.247 . S
O1053 C1052 1.247 . S
C1054 O1066 1.242 . S
C1054 O1067 1.258 . S
C1055 C1051 1.503 . S
C1055 C1056 1.379 . S
C1055 C1060 1.392 . S
C1056 C1055 1.379 . S
C1056 C1057 1.404 . S
C1056 H1070 0.929 . S
C1057 C1056 1.404 . S
C1057 C1058 1.389 . S
C1058 C1057 1.389 . S
C1058 C1059 1.399 . S
C1058 H1071 0.931 . S
C1059 C1058 1.399 . S
C1059 C1060 1.390 . S
C1060 C1055 1.392 . S
C1060 C1059 1.390 . S
C1060 H1072 0.929 . S
O1061 Tb1045 2.326 . S
O1061 C1049 1.242 . S
O1062 Eu1046 2.324 . S
O1062 C1049 1.258 . S
O1063 Tb1045 2.500 . S
O1063 C1065 1.273 . S
O1064 Tb1045 2.473 . S
O1064 C1065 1.257 . S
C1065 O1063 1.273 . S
C1065 O1064 1.257 . S
O1066 Eu1046 2.326 . S
O1066 C1054 1.242 . S
O1067 Tb1045 2.324 . S
O1067 C1054 1.258 . S
O1068 Eu1046 2.500 . S
O1068 C1051 1.273 . S
O1069 Eu1046 2.473 . S
O1069 C1051 1.257 . S
H1070 C1056 0.929 . S
H1071 C1058 0.931 . S
H1072 C1060 0.929 . S
O1073 Tb1074 2.292 . S
O1073 C1076 1.255 . S
Tb1074 O1073 2.292 . S
Tb1074 O1090 2.326 . S
Tb1074 O1092 2.500 . S
Tb1074 O1093 2.473 . S
Tb1074 O1096 2.324 . S
Eu1075 O1079 2.292 . S
Eu1075 C1080 2.852 . S
Eu1075 O1091 2.324 . S
Eu1075 O1095 2.326 . S
Eu1075 O1097 2.500 . S
Eu1075 O1098 2.473 . S
C1076 O1073 1.255 . S
C1076 O1077 1.247 . S
O1077 C1076 1.247 . S
C1078 O1090 1.242 . S
C1078 O1091 1.258 . S
O1079 Eu1075 2.292 . S
O1079 C1081 1.255 . S
C1080 Eu1075 2.852 . S
C1080 C1084 1.503 . S
C1080 O1097 1.273 . S
C1080 O1098 1.257 . S
C1081 O1079 1.255 . S
C1081 O1082 1.247 . S
O1082 C1081 1.247 . S
C1083 O1095 1.242 . S
C1083 O1096 1.258 . S
C1084 C1080 1.503 . S
C1084 C1085 1.379 . S
C1084 C1089 1.392 . S
C1085 C1084 1.379 . S
C1085 C1086 1.404 . S
C1085 H1099 0.929 . S
C1086 C1085 1.404 . S
C1086 C1087 1.389 . S
C1087 C1086 1.389 . S
C1087 C1088 1.399 . S
C1087 H1100 0.931 . S
C1088 C1087 1.399 . S
C1088 C1089 1.390 . S
C1089 C1084 1.392 . S
C1089 C1088 1.390 . S
C1089 H1101 0.929 . S
O1090 Tb1074 2.326 . S
O1090 C1078 1.242 . S
O1091 Eu1075 2.324 . S
O1091 C1078 1.258 . S
O1092 Tb1074 2.500 . S
O1092 C1094 1.273 . S
O1093 Tb1074 2.473 . S
O1093 C1094 1.257 . S
C1094 O1092 1.273 . S
C1094 O1093 1.257 . S
O1095 Eu1075 2.326 . S
O1095 C1083 1.242 . S
O1096 Tb1074 2.324 . S
O1096 C1083 1.258 . S
O1097 Eu1075 2.500 . S
O1097 C1080 1.273 . S
O1098 Eu1075 2.473 . S
O1098 C1080 1.257 . S
H1099 C1085 0.929 . S
H1100 C1087 0.931 . S
H1101 C1089 0.929 . S
O1102 Tb1103 2.292 . S
O1102 C1105 1.255 . S
Tb1103 O1102 2.292 . S
Tb1103 O1119 2.326 . S
Tb1103 O1121 2.500 . S
Tb1103 O1122 2.473 . S
Tb1103 O1125 2.324 . S
Eu1104 O1108 2.292 . S
Eu1104 C1109 2.852 . S
Eu1104 O1120 2.324 . S
Eu1104 O1124 2.326 . S
Eu1104 O1126 2.500 . S
Eu1104 O1127 2.473 . S
C1105 O1102 1.255 . S
C1105 O1106 1.247 . S
O1106 C1105 1.247 . S
C1107 O1119 1.242 . S
C1107 O1120 1.258 . S
O1108 Eu1104 2.292 . S
O1108 C1110 1.255 . S
C1109 Eu1104 2.852 . S
C1109 C1113 1.503 . S
C1109 O1126 1.273 . S
C1109 O1127 1.257 . S
C1110 O1108 1.255 . S
C1110 O1111 1.247 . S
O1111 C1110 1.247 . S
C1112 O1124 1.242 . S
C1112 O1125 1.258 . S
C1113 C1109 1.503 . S
C1113 C1114 1.379 . S
C1113 C1118 1.392 . S
C1114 C1113 1.379 . S
C1114 C1115 1.404 . S
C1114 H1128 0.929 . S
C1115 C1114 1.404 . S
C1115 C1116 1.389 . S
C1116 C1115 1.389 . S
C1116 C1117 1.399 . S
C1116 H1129 0.931 . S
C1117 C1116 1.399 . S
C1117 C1118 1.390 . S
C1118 C1113 1.392 . S
C1118 C1117 1.390 . S
C1118 H1130 0.929 . S
O1119 Tb1103 2.326 . S
O1119 C1107 1.242 . S
O1120 Eu1104 2.324 . S
O1120 C1107 1.258 . S
O1121 Tb1103 2.500 . S
O1121 C1123 1.273 . S
O1122 Tb1103 2.473 . S
O1122 C1123 1.257 . S
C1123 O1121 1.273 . S
C1123 O1122 1.257 . S
O1124 Eu1104 2.326 . S
O1124 C1112 1.242 . S
O1125 Tb1103 2.324 . S
O1125 C1112 1.258 . S
O1126 Eu1104 2.500 . S
O1126 C1109 1.273 . S
O1127 Eu1104 2.473 . S
O1127 C1109 1.257 . S
H1128 C1114 0.929 . S
H1129 C1116 0.931 . S
H1130 C1118 0.929 . S
O1131 Tb1132 2.292 . S
O1131 C1134 1.255 . S
Tb1132 O1131 2.292 . S
Tb1132 O1148 2.326 . S
Tb1132 O1150 2.500 . S
Tb1132 O1151 2.473 . S
Tb1132 O1154 2.324 . S
Eu1133 O1137 2.292 . S
Eu1133 C1138 2.852 . S
Eu1133 O1149 2.324 . S
Eu1133 O1153 2.326 . S
Eu1133 O1155 2.500 . S
Eu1133 O1156 2.473 . S
C1134 O1131 1.255 . S
C1134 O1135 1.247 . S
O1135 C1134 1.247 . S
C1136 O1148 1.242 . S
C1136 O1149 1.258 . S
O1137 Eu1133 2.292 . S
O1137 C1139 1.255 . S
C1138 Eu1133 2.852 . S
C1138 C1142 1.503 . S
C1138 O1155 1.273 . S
C1138 O1156 1.257 . S
C1139 O1137 1.255 . S
C1139 O1140 1.247 . S
O1140 C1139 1.247 . S
C1141 O1153 1.242 . S
C1141 O1154 1.258 . S
C1142 C1138 1.503 . S
C1142 C1143 1.379 . S
C1142 C1147 1.392 . S
C1143 C1142 1.379 . S
C1143 C1144 1.404 . S
C1143 H1157 0.929 . S
C1144 C1143 1.404 . S
C1144 C1145 1.389 . S
C1145 C1144 1.389 . S
C1145 C1146 1.399 . S
C1145 H1158 0.931 . S
C1146 C1145 1.399 . S
C1146 C1147 1.390 . S
C1147 C1142 1.392 . S
C1147 C1146 1.390 . S
C1147 H1159 0.929 . S
O1148 Tb1132 2.326 . S
O1148 C1136 1.242 . S
O1149 Eu1133 2.324 . S
O1149 C1136 1.258 . S
O1150 Tb1132 2.500 . S
O1150 C1152 1.273 . S
O1151 Tb1132 2.473 . S
O1151 C1152 1.257 . S
C1152 O1150 1.273 . S
C1152 O1151 1.257 . S
O1153 Eu1133 2.326 . S
O1153 C1141 1.242 . S
O1154 Tb1132 2.324 . S
O1154 C1141 1.258 . S
O1155 Eu1133 2.500 . S
O1155 C1138 1.273 . S
O1156 Eu1133 2.473 . S
O1156 C1138 1.257 . S
H1157 C1143 0.929 . S
H1158 C1145 0.931 . S
H1159 C1147 0.929 . S
O1160 Tb1161 2.292 . S
O1160 C1163 1.255 . S
Tb1161 O1160 2.292 . S
Tb1161 O1177 2.326 . S
Tb1161 O1179 2.500 . S
Tb1161 O1180 2.473 . S
Tb1161 O1183 2.324 . S
Eu1162 O1166 2.292 . S
Eu1162 C1167 2.852 . S
Eu1162 O1178 2.324 . S
Eu1162 O1182 2.326 . S
Eu1162 O1184 2.500 . S
Eu1162 O1185 2.473 . S
C1163 O1160 1.255 . S
C1163 O1164 1.247 . S
O1164 C1163 1.247 . S
C1165 O1177 1.242 . S
C1165 O1178 1.258 . S
O1166 Eu1162 2.292 . S
O1166 C1168 1.255 . S
C1167 Eu1162 2.852 . S
C1167 C1171 1.503 . S
C1167 O1184 1.273 . S
C1167 O1185 1.257 . S
C1168 O1166 1.255 . S
C1168 O1169 1.247 . S
O1169 C1168 1.247 . S
C1170 O1182 1.242 . S
C1170 O1183 1.258 . S
C1171 C1167 1.503 . S
C1171 C1172 1.379 . S
C1171 C1176 1.392 . S
C1172 C1171 1.379 . S
C1172 C1173 1.404 . S
C1172 H1186 0.929 . S
C1173 C1172 1.404 . S
C1173 C1174 1.389 . S
C1174 C1173 1.389 . S
C1174 C1175 1.399 . S
C1174 H1187 0.931 . S
C1175 C1174 1.399 . S
C1175 C1176 1.390 . S
C1176 C1171 1.392 . S
C1176 C1175 1.390 . S
C1176 H1188 0.929 . S
O1177 Tb1161 2.326 . S
O1177 C1165 1.242 . S
O1178 Eu1162 2.324 . S
O1178 C1165 1.258 . S
O1179 Tb1161 2.500 . S
O1179 C1181 1.273 . S
O1180 Tb1161 2.473 . S
O1180 C1181 1.257 . S
C1181 O1179 1.273 . S
C1181 O1180 1.257 . S
O1182 Eu1162 2.326 . S
O1182 C1170 1.242 . S
O1183 Tb1161 2.324 . S
O1183 C1170 1.258 . S
O1184 Eu1162 2.500 . S
O1184 C1167 1.273 . S
O1185 Eu1162 2.473 . S
O1185 C1167 1.257 . S
H1186 C1172 0.929 . S
H1187 C1174 0.931 . S
H1188 C1176 0.929 . S
O1189 Tb1190 2.292 . S
O1189 C1192 1.255 . S
Tb1190 O1189 2.292 . S
Tb1190 O1206 2.326 . S
Tb1190 O1208 2.500 . S
Tb1190 O1209 2.473 . S
Tb1190 O1212 2.324 . S
Eu1191 O1195 2.292 . S
Eu1191 C1196 2.852 . S
Eu1191 O1207 2.324 . S
Eu1191 O1211 2.326 . S
Eu1191 O1213 2.500 . S
Eu1191 O1214 2.473 . S
C1192 O1189 1.255 . S
C1192 O1193 1.247 . S
O1193 C1192 1.247 . S
C1194 O1206 1.242 . S
C1194 O1207 1.258 . S
O1195 Eu1191 2.292 . S
O1195 C1197 1.255 . S
C1196 Eu1191 2.852 . S
C1196 C1200 1.503 . S
C1196 O1213 1.273 . S
C1196 O1214 1.257 . S
C1197 O1195 1.255 . S
C1197 O1198 1.247 . S
O1198 C1197 1.247 . S
C1199 O1211 1.242 . S
C1199 O1212 1.258 . S
C1200 C1196 1.503 . S
C1200 C1201 1.379 . S
C1200 C1205 1.392 . S
C1201 C1200 1.379 . S
C1201 C1202 1.404 . S
C1201 H1215 0.929 . S
C1202 C1201 1.404 . S
C1202 C1203 1.389 . S
C1203 C1202 1.389 . S
C1203 C1204 1.399 . S
C1203 H1216 0.931 . S
C1204 C1203 1.399 . S
C1204 C1205 1.390 . S
C1205 C1200 1.392 . S
C1205 C1204 1.390 . S
C1205 H1217 0.929 . S
O1206 Tb1190 2.326 . S
O1206 C1194 1.242 . S
O1207 Eu1191 2.324 . S
O1207 C1194 1.258 . S
O1208 Tb1190 2.500 . S
O1208 C1210 1.273 . S
O1209 Tb1190 2.473 . S
O1209 C1210 1.257 . S
C1210 O1208 1.273 . S
C1210 O1209 1.257 . S
O1211 Eu1191 2.326 . S
O1211 C1199 1.242 . S
O1212 Tb1190 2.324 . S
O1212 C1199 1.258 . S
O1213 Eu1191 2.500 . S
O1213 C1196 1.273 . S
O1214 Eu1191 2.473 . S
O1214 C1196 1.257 . S
H1215 C1201 0.929 . S
H1216 C1203 0.931 . S
H1217 C1205 0.929 . S
O1218 Tb1219 2.292 . S
O1218 C1221 1.255 . S
Tb1219 O1218 2.292 . S
Tb1219 O1235 2.326 . S
Tb1219 O1237 2.500 . S
Tb1219 O1238 2.473 . S
Tb1219 O1241 2.324 . S
Eu1220 O1224 2.292 . S
Eu1220 C1225 2.852 . S
Eu1220 O1236 2.324 . S
Eu1220 O1240 2.326 . S
Eu1220 O1242 2.500 . S
Eu1220 O1243 2.473 . S
C1221 O1218 1.255 . S
C1221 O1222 1.247 . S
O1222 C1221 1.247 . S
C1223 O1235 1.242 . S
C1223 O1236 1.258 . S
O1224 Eu1220 2.292 . S
O1224 C1226 1.255 . S
C1225 Eu1220 2.852 . S
C1225 C1229 1.503 . S
C1225 O1242 1.273 . S
C1225 O1243 1.257 . S
C1226 O1224 1.255 . S
C1226 O1227 1.247 . S
O1227 C1226 1.247 . S
C1228 O1240 1.242 . S
C1228 O1241 1.258 . S
C1229 C1225 1.503 . S
C1229 C1230 1.379 . S
C1229 C1234 1.392 . S
C1230 C1229 1.379 . S
C1230 C1231 1.404 . S
C1230 H1244 0.929 . S
C1231 C1230 1.404 . S
C1231 C1232 1.389 . S
C1232 C1231 1.389 . S
C1232 C1233 1.399 . S
C1232 H1245 0.931 . S
C1233 C1232 1.399 . S
C1233 C1234 1.390 . S
C1234 C1229 1.392 . S
C1234 C1233 1.390 . S
C1234 H1246 0.929 . S
O1235 Tb1219 2.326 . S
O1235 C1223 1.242 . S
O1236 Eu1220 2.324 . S
O1236 C1223 1.258 . S
O1237 Tb1219 2.500 . S
O1237 C1239 1.273 . S
O1238 Tb1219 2.473 . S
O1238 C1239 1.257 . S
C1239 O1237 1.273 . S
C1239 O1238 1.257 . S
O1240 Eu1220 2.326 . S
O1240 C1228 1.242 . S
O1241 Tb1219 2.324 . S
O1241 C1228 1.258 . S
O1242 Eu1220 2.500 . S
O1242 C1225 1.273 . S
O1243 Eu1220 2.473 . S
O1243 C1225 1.257 . S
H1244 C1230 0.929 . S
H1245 C1232 0.931 . S
H1246 C1234 0.929 . S
O1247 Tb1248 2.292 . S
O1247 C1250 1.255 . S
Tb1248 O1247 2.292 . S
Tb1248 O1264 2.326 . S
Tb1248 O1266 2.500 . S
Tb1248 O1267 2.473 . S
Tb1248 O1270 2.324 . S
Eu1249 O1253 2.292 . S
Eu1249 C1254 2.852 . S
Eu1249 O1265 2.324 . S
Eu1249 O1269 2.326 . S
Eu1249 O1271 2.500 . S
Eu1249 O1272 2.473 . S
C1250 O1247 1.255 . S
C1250 O1251 1.247 . S
O1251 C1250 1.247 . S
C1252 O1264 1.242 . S
C1252 O1265 1.258 . S
O1253 Eu1249 2.292 . S
O1253 C1255 1.255 . S
C1254 Eu1249 2.852 . S
C1254 C1258 1.503 . S
C1254 O1271 1.273 . S
C1254 O1272 1.257 . S
C1255 O1253 1.255 . S
C1255 O1256 1.247 . S
O1256 C1255 1.247 . S
C1257 O1269 1.242 . S
C1257 O1270 1.258 . S
C1258 C1254 1.503 . S
C1258 C1259 1.379 . S
C1258 C1263 1.392 . S
C1259 C1258 1.379 . S
C1259 C1260 1.404 . S
C1259 H1273 0.929 . S
C1260 C1259 1.404 . S
C1260 C1261 1.389 . S
C1261 C1260 1.389 . S
C1261 C1262 1.399 . S
C1261 H1274 0.931 . S
C1262 C1261 1.399 . S
C1262 C1263 1.390 . S
C1263 C1258 1.392 . S
C1263 C1262 1.390 . S
C1263 H1275 0.929 . S
O1264 Tb1248 2.326 . S
O1264 C1252 1.242 . S
O1265 Eu1249 2.324 . S
O1265 C1252 1.258 . S
O1266 Tb1248 2.500 . S
O1266 C1268 1.273 . S
O1267 Tb1248 2.473 . S
O1267 C1268 1.257 . S
C1268 O1266 1.273 . S
C1268 O1267 1.257 . S
O1269 Eu1249 2.326 . S
O1269 C1257 1.242 . S
O1270 Tb1248 2.324 . S
O1270 C1257 1.258 . S
O1271 Eu1249 2.500 . S
O1271 C1254 1.273 . S
O1272 Eu1249 2.473 . S
O1272 C1254 1.257 . S
H1273 C1259 0.929 . S
H1274 C1261 0.931 . S
H1275 C1263 0.929 . S
O1276 Tb1277 2.292 . S
O1276 C1279 1.255 . S
Tb1277 O1276 2.292 . S
Tb1277 O1293 2.326 . S
Tb1277 O1295 2.500 . S
Tb1277 O1296 2.473 . S
Tb1277 O1299 2.324 . S
Eu1278 O1282 2.292 . S
Eu1278 C1283 2.852 . S
Eu1278 O1294 2.324 . S
Eu1278 O1298 2.326 . S
Eu1278 O1300 2.500 . S
Eu1278 O1301 2.473 . S
C1279 O1276 1.255 . S
C1279 O1280 1.247 . S
O1280 C1279 1.247 . S
C1281 O1293 1.242 . S
C1281 O1294 1.258 . S
O1282 Eu1278 2.292 . S
O1282 C1284 1.255 . S
C1283 Eu1278 2.852 . S
C1283 C1287 1.503 . S
C1283 O1300 1.273 . S
C1283 O1301 1.257 . S
C1284 O1282 1.255 . S
C1284 O1285 1.247 . S
O1285 C1284 1.247 . S
C1286 O1298 1.242 . S
C1286 O1299 1.258 . S
C1287 C1283 1.503 . S
C1287 C1288 1.379 . S
C1287 C1292 1.392 . S
C1288 C1287 1.379 . S
C1288 C1289 1.404 . S
C1288 H1302 0.929 . S
C1289 C1288 1.404 . S
C1289 C1290 1.389 . S
C1290 C1289 1.389 . S
C1290 C1291 1.399 . S
C1290 H1303 0.931 . S
C1291 C1290 1.399 . S
C1291 C1292 1.390 . S
C1292 C1287 1.392 . S
C1292 C1291 1.390 . S
C1292 H1304 0.929 . S
O1293 Tb1277 2.326 . S
O1293 C1281 1.242 . S
O1294 Eu1278 2.324 . S
O1294 C1281 1.258 . S
O1295 Tb1277 2.500 . S
O1295 C1297 1.273 . S
O1296 Tb1277 2.473 . S
O1296 C1297 1.257 . S
C1297 O1295 1.273 . S
C1297 O1296 1.257 . S
O1298 Eu1278 2.326 . S
O1298 C1286 1.242 . S
O1299 Tb1277 2.324 . S
O1299 C1286 1.258 . S
O1300 Eu1278 2.500 . S
O1300 C1283 1.273 . S
O1301 Eu1278 2.473 . S
O1301 C1283 1.257 . S
H1302 C1288 0.929 . S
H1303 C1290 0.931 . S
H1304 C1292 0.929 . S
O1305 Tb1306 2.292 . S
O1305 C1308 1.255 . S
Tb1306 O1305 2.292 . S
Tb1306 O1322 2.326 . S
Tb1306 O1324 2.500 . S
Tb1306 O1325 2.473 . S
Tb1306 O1328 2.324 . S
Eu1307 O1311 2.292 . S
Eu1307 C1312 2.852 . S
Eu1307 O1323 2.324 . S
Eu1307 O1327 2.326 . S
Eu1307 O1329 2.500 . S
Eu1307 O1330 2.473 . S
C1308 O1305 1.255 . S
C1308 O1309 1.247 . S
O1309 C1308 1.247 . S
C1310 O1322 1.242 . S
C1310 O1323 1.258 . S
O1311 Eu1307 2.292 . S
O1311 C1313 1.255 . S
C1312 Eu1307 2.852 . S
C1312 C1316 1.503 . S
C1312 O1329 1.273 . S
C1312 O1330 1.257 . S
C1313 O1311 1.255 . S
C1313 O1314 1.247 . S
O1314 C1313 1.247 . S
C1315 O1327 1.242 . S
C1315 O1328 1.258 . S
C1316 C1312 1.503 . S
C1316 C1317 1.379 . S
C1316 C1321 1.392 . S
C1317 C1316 1.379 . S
C1317 C1318 1.404 . S
C1317 H1331 0.929 . S
C1318 C1317 1.404 . S
C1318 C1319 1.389 . S
C1319 C1318 1.389 . S
C1319 C1320 1.399 . S
C1319 H1332 0.931 . S
C1320 C1319 1.399 . S
C1320 C1321 1.390 . S
C1321 C1316 1.392 . S
C1321 C1320 1.390 . S
C1321 H1333 0.929 . S
O1322 Tb1306 2.326 . S
O1322 C1310 1.242 . S
O1323 Eu1307 2.324 . S
O1323 C1310 1.258 . S
O1324 Tb1306 2.500 . S
O1324 C1326 1.273 . S
O1325 Tb1306 2.473 . S
O1325 C1326 1.257 . S
C1326 O1324 1.273 . S
C1326 O1325 1.257 . S
O1327 Eu1307 2.326 . S
O1327 C1315 1.242 . S
O1328 Tb1306 2.324 . S
O1328 C1315 1.258 . S
O1329 Eu1307 2.500 . S
O1329 C1312 1.273 . S
O1330 Eu1307 2.473 . S
O1330 C1312 1.257 . S
H1331 C1317 0.929 . S
H1332 C1319 0.931 . S
H1333 C1321 0.929 . S
O1334 Tb1335 2.292 . S
O1334 C1337 1.255 . S
Tb1335 O1334 2.292 . S
Tb1335 O1351 2.326 . S
Tb1335 O1353 2.500 . S
Tb1335 O1354 2.473 . S
Tb1335 O1357 2.324 . S
Eu1336 O1340 2.292 . S
Eu1336 C1341 2.852 . S
Eu1336 O1352 2.324 . S
Eu1336 O1356 2.326 . S
Eu1336 O1358 2.500 . S
Eu1336 O1359 2.473 . S
C1337 O1334 1.255 . S
C1337 O1338 1.247 . S
O1338 C1337 1.247 . S
C1339 O1351 1.242 . S
C1339 O1352 1.258 . S
O1340 Eu1336 2.292 . S
O1340 C1342 1.255 . S
C1341 Eu1336 2.852 . S
C1341 C1345 1.503 . S
C1341 O1358 1.273 . S
C1341 O1359 1.257 . S
C1342 O1340 1.255 . S
C1342 O1343 1.247 . S
O1343 C1342 1.247 . S
C1344 O1356 1.242 . S
C1344 O1357 1.258 . S
C1345 C1341 1.503 . S
C1345 C1346 1.379 . S
C1345 C1350 1.392 . S
C1346 C1345 1.379 . S
C1346 C1347 1.404 . S
C1346 H1360 0.929 . S
C1347 C1346 1.404 . S
C1347 C1348 1.389 . S
C1348 C1347 1.389 . S
C1348 C1349 1.399 . S
C1348 H1361 0.931 . S
C1349 C1348 1.399 . S
C1349 C1350 1.390 . S
C1350 C1345 1.392 . S
C1350 C1349 1.390 . S
C1350 H1362 0.929 . S
O1351 Tb1335 2.326 . S
O1351 C1339 1.242 . S
O1352 Eu1336 2.324 . S
O1352 C1339 1.258 . S
O1353 Tb1335 2.500 . S
O1353 C1355 1.273 . S
O1354 Tb1335 2.473 . S
O1354 C1355 1.257 . S
C1355 O1353 1.273 . S
C1355 O1354 1.257 . S
O1356 Eu1336 2.326 . S
O1356 C1344 1.242 . S
O1357 Tb1335 2.324 . S
O1357 C1344 1.258 . S
O1358 Eu1336 2.500 . S
O1358 C1341 1.273 . S
O1359 Eu1336 2.473 . S
O1359 C1341 1.257 . S
H1360 C1346 0.929 . S
H1361 C1348 0.931 . S
H1362 C1350 0.929 . S
O1363 Tb1364 2.292 . S
O1363 C1366 1.255 . S
Tb1364 O1363 2.292 . S
Tb1364 O1380 2.326 . S
Tb1364 O1382 2.500 . S
Tb1364 O1383 2.473 . S
Tb1364 O1386 2.324 . S
Eu1365 O1369 2.292 . S
Eu1365 C1370 2.852 . S
Eu1365 O1381 2.324 . S
Eu1365 O1385 2.326 . S
Eu1365 O1387 2.500 . S
Eu1365 O1388 2.473 . S
C1366 O1363 1.255 . S
C1366 O1367 1.247 . S
O1367 C1366 1.247 . S
C1368 O1380 1.242 . S
C1368 O1381 1.258 . S
O1369 Eu1365 2.292 . S
O1369 C1371 1.255 . S
C1370 Eu1365 2.852 . S
C1370 C1374 1.503 . S
C1370 O1387 1.273 . S
C1370 O1388 1.257 . S
C1371 O1369 1.255 . S
C1371 O1372 1.247 . S
O1372 C1371 1.247 . S
C1373 O1385 1.242 . S
C1373 O1386 1.258 . S
C1374 C1370 1.503 . S
C1374 C1375 1.379 . S
C1374 C1379 1.392 . S
C1375 C1374 1.379 . S
C1375 C1376 1.404 . S
C1375 H1389 0.929 . S
C1376 C1375 1.404 . S
C1376 C1377 1.389 . S
C1377 C1376 1.389 . S
C1377 C1378 1.399 . S
C1377 H1390 0.931 . S
C1378 C1377 1.399 . S
C1378 C1379 1.390 . S
C1379 C1374 1.392 . S
C1379 C1378 1.390 . S
C1379 H1391 0.929 . S
O1380 Tb1364 2.326 . S
O1380 C1368 1.242 . S
O1381 Eu1365 2.324 . S
O1381 C1368 1.258 . S
O1382 Tb1364 2.500 . S
O1382 C1384 1.273 . S
O1383 Tb1364 2.473 . S
O1383 C1384 1.257 . S
C1384 O1382 1.273 . S
C1384 O1383 1.257 . S
O1385 Eu1365 2.326 . S
O1385 C1373 1.242 . S
O1386 Tb1364 2.324 . S
O1386 C1373 1.258 . S
O1387 Eu1365 2.500 . S
O1387 C1370 1.273 . S
O1388 Eu1365 2.473 . S
O1388 C1370 1.257 . S
H1389 C1375 0.929 . S
H1390 C1377 0.931 . S
H1391 C1379 0.929 . S
C1392 C1393 1.369 . S
C1392 C1394 1.419 . S
C1392 H1396 0.930 . S
C1393 C1392 1.369 . S
C1393 C1402 1.429 . S
C1394 C1392 1.419 . S
C1394 C1395 1.363 . S
C1394 H1397 0.929 . S
C1395 C1394 1.363 . S
C1395 C1401 1.428 . S
H1396 C1392 0.930 . S
H1397 C1394 0.929 . S
S1398 N1399 1.613 . S
S1398 N1400 1.610 . S
N1399 S1398 1.613 . S
N1399 C1402 1.350 . S
N1400 S1398 1.610 . S
N1400 C1401 1.351 . S
C1401 C1395 1.428 . S
C1401 N1400 1.351 . S
C1401 C1402 1.434 . S
C1402 C1393 1.429 . S
C1402 N1399 1.350 . S
C1402 C1401 1.434 . S
C1403 C1404 1.369 . S
C1403 C1405 1.419 . S
C1403 H1407 0.930 . S
C1404 C1403 1.369 . S
C1404 C1413 1.429 . S
C1405 C1403 1.419 . S
C1405 C1406 1.363 . S
C1405 H1408 0.929 . S
C1406 C1405 1.363 . S
C1406 C1412 1.428 . S
H1407 C1403 0.930 . S
H1408 C1405 0.929 . S
S1409 N1410 1.613 . S
S1409 N1411 1.610 . S
N1410 S1409 1.613 . S
N1410 C1413 1.350 . S
N1411 S1409 1.610 . S
N1411 C1412 1.351 . S
C1412 C1406 1.428 . S
C1412 N1411 1.351 . S
C1412 C1413 1.434 . S
C1413 C1404 1.429 . S
C1413 N1410 1.350 . S
C1413 C1412 1.434 . S
C1414 C1415 1.369 . S
C1414 C1416 1.419 . S
C1414 H1418 0.930 . S
C1415 C1414 1.369 . S
C1415 C1424 1.429 . S
C1416 C1414 1.419 . S
C1416 C1417 1.363 . S
C1416 H1419 0.929 . S
C1417 C1416 1.363 . S
C1417 C1423 1.428 . S
H1418 C1414 0.930 . S
H1419 C1416 0.929 . S
S1420 N1421 1.613 . S
S1420 N1422 1.610 . S
N1421 S1420 1.613 . S
N1421 C1424 1.350 . S
N1422 S1420 1.610 . S
N1422 C1423 1.351 . S
C1423 C1417 1.428 . S
C1423 N1422 1.351 . S
C1423 C1424 1.434 . S
C1424 C1415 1.429 . S
C1424 N1421 1.350 . S
C1424 C1423 1.434 . S
C1425 C1426 1.369 . S
C1425 C1427 1.419 . S
C1425 H1429 0.930 . S
C1426 C1425 1.369 . S
C1426 C1435 1.429 . S
C1427 C1425 1.419 . S
C1427 C1428 1.363 . S
C1427 H1430 0.929 . S
C1428 C1427 1.363 . S
C1428 C1434 1.428 . S
H1429 C1425 0.930 . S
H1430 C1427 0.929 . S
S1431 N1432 1.613 . S
S1431 N1433 1.610 . S
N1432 S1431 1.613 . S
N1432 C1435 1.350 . S
N1433 S1431 1.610 . S
N1433 C1434 1.351 . S
C1434 C1428 1.428 . S
C1434 N1433 1.351 . S
C1434 C1435 1.434 . S
C1435 C1426 1.429 . S
C1435 N1432 1.350 . S
C1435 C1434 1.434 . S
C1436 C1437 1.369 . S
C1436 C1438 1.419 . S
C1436 H1440 0.930 . S
C1437 C1436 1.369 . S
C1437 C1446 1.429 . S
C1438 C1436 1.419 . S
C1438 C1439 1.363 . S
C1438 H1441 0.929 . S
C1439 C1438 1.363 . S
C1439 C1445 1.428 . S
H1440 C1436 0.930 . S
H1441 C1438 0.929 . S
S1442 N1443 1.613 . S
S1442 N1444 1.610 . S
N1443 S1442 1.613 . S
N1443 C1446 1.350 . S
N1444 S1442 1.610 . S
N1444 C1445 1.351 . S
C1445 C1439 1.428 . S
C1445 N1444 1.351 . S
C1445 C1446 1.434 . S
C1446 C1437 1.429 . S
C1446 N1443 1.350 . S
C1446 C1445 1.434 . S
C1447 C1448 1.369 . S
C1447 C1449 1.419 . S
C1447 H1451 0.930 . S
C1448 C1447 1.369 . S
C1448 C1457 1.429 . S
C1449 C1447 1.419 . S
C1449 C1450 1.363 . S
C1449 H1452 0.929 . S
C1450 C1449 1.363 . S
C1450 C1456 1.428 . S
H1451 C1447 0.930 . S
H1452 C1449 0.929 . S
S1453 N1454 1.613 . S
S1453 N1455 1.610 . S
N1454 S1453 1.613 . S
N1454 C1457 1.350 . S
N1455 S1453 1.610 . S
N1455 C1456 1.351 . S
C1456 C1450 1.428 . S
C1456 N1455 1.351 . S
C1456 C1457 1.434 . S
C1457 C1448 1.429 . S
C1457 N1454 1.350 . S
C1457 C1456 1.434 . S
C1458 C1459 1.369 . S
C1458 C1460 1.419 . S
C1458 H1462 0.930 . S
C1459 C1458 1.369 . S
C1459 C1468 1.429 . S
C1460 C1458 1.419 . S
C1460 C1461 1.363 . S
C1460 H1463 0.929 . S
C1461 C1460 1.363 . S
C1461 C1467 1.428 . S
H1462 C1458 0.930 . S
H1463 C1460 0.929 . S
S1464 N1465 1.613 . S
S1464 N1466 1.610 . S
N1465 S1464 1.613 . S
N1465 C1468 1.350 . S
N1466 S1464 1.610 . S
N1466 C1467 1.351 . S
C1467 C1461 1.428 . S
C1467 N1466 1.351 . S
C1467 C1468 1.434 . S
C1468 C1459 1.429 . S
C1468 N1465 1.350 . S
C1468 C1467 1.434 . S
C1469 C1470 1.369 . S
C1469 C1471 1.419 . S
C1469 H1473 0.930 . S
C1470 C1469 1.369 . S
C1470 C1479 1.429 . S
C1471 C1469 1.419 . S
C1471 C1472 1.363 . S
C1471 H1474 0.929 . S
C1472 C1471 1.363 . S
C1472 C1478 1.428 . S
H1473 C1469 0.930 . S
H1474 C1471 0.929 . S
S1475 N1476 1.613 . S
S1475 N1477 1.610 . S
N1476 S1475 1.613 . S
N1476 C1479 1.350 . S
N1477 S1475 1.610 . S
N1477 C1478 1.351 . S
C1478 C1472 1.428 . S
C1478 N1477 1.351 . S
C1478 C1479 1.434 . S
C1479 C1470 1.429 . S
C1479 N1476 1.350 . S
C1479 C1478 1.434 . S
C1480 C1481 1.369 . S
C1480 C1482 1.419 . S
C1480 H1484 0.930 . S
C1481 C1480 1.369 . S
C1481 C1490 1.429 . S
C1482 C1480 1.419 . S
C1482 C1483 1.363 . S
C1482 H1485 0.929 . S
C1483 C1482 1.363 . S
C1483 C1489 1.428 . S
H1484 C1480 0.930 . S
H1485 C1482 0.929 . S
S1486 N1487 1.613 . S
S1486 N1488 1.610 . S
N1487 S1486 1.613 . S
N1487 C1490 1.350 . S
N1488 S1486 1.610 . S
N1488 C1489 1.351 . S
C1489 C1483 1.428 . S
C1489 N1488 1.351 . S
C1489 C1490 1.434 . S
C1490 C1481 1.429 . S
C1490 N1487 1.350 . S
C1490 C1489 1.434 . S
C1491 C1492 1.369 . S
C1491 C1493 1.419 . S
C1491 H1495 0.930 . S
C1492 C1491 1.369 . S
C1492 C1501 1.429 . S
C1493 C1491 1.419 . S
C1493 C1494 1.363 . S
C1493 H1496 0.929 . S
C1494 C1493 1.363 . S
C1494 C1500 1.428 . S
H1495 C1491 0.930 . S
H1496 C1493 0.929 . S
S1497 N1498 1.613 . S
S1497 N1499 1.610 . S
N1498 S1497 1.613 . S
N1498 C1501 1.350 . S
N1499 S1497 1.610 . S
N1499 C1500 1.351 . S
C1500 C1494 1.428 . S
C1500 N1499 1.351 . S
C1500 C1501 1.434 . S
C1501 C1492 1.429 . S
C1501 N1498 1.350 . S
C1501 C1500 1.434 . S
C1502 C1503 1.369 . S
C1502 C1504 1.419 . S
C1502 H1506 0.930 . S
C1503 C1502 1.369 . S
C1503 C1512 1.429 . S
C1504 C1502 1.419 . S
C1504 C1505 1.363 . S
C1504 H1507 0.929 . S
C1505 C1504 1.363 . S
C1505 C1511 1.428 . S
H1506 C1502 0.930 . S
H1507 C1504 0.929 . S
S1508 N1509 1.613 . S
S1508 N1510 1.610 . S
N1509 S1508 1.613 . S
N1509 C1512 1.350 . S
N1510 S1508 1.610 . S
N1510 C1511 1.351 . S
C1511 C1505 1.428 . S
C1511 N1510 1.351 . S
C1511 C1512 1.434 . S
C1512 C1503 1.429 . S
C1512 N1509 1.350 . S
C1512 C1511 1.434 . S
C1513 C1514 1.369 . S
C1513 C1515 1.419 . S
C1513 H1517 0.930 . S
C1514 C1513 1.369 . S
C1514 C1523 1.429 . S
C1515 C1513 1.419 . S
C1515 C1516 1.363 . S
C1515 H1518 0.929 . S
C1516 C1515 1.363 . S
C1516 C1522 1.428 . S
H1517 C1513 0.930 . S
H1518 C1515 0.929 . S
S1519 N1520 1.613 . S
S1519 N1521 1.610 . S
N1520 S1519 1.613 . S
N1520 C1523 1.350 . S
N1521 S1519 1.610 . S
N1521 C1522 1.351 . S
C1522 C1516 1.428 . S
C1522 N1521 1.351 . S
C1522 C1523 1.434 . S
C1523 C1514 1.429 . S
C1523 N1520 1.350 . S
C1523 C1522 1.434 . S
C1524 C1525 1.369 . S
C1524 C1526 1.419 . S
C1524 H1528 0.930 . S
C1525 C1524 1.369 . S
C1525 C1534 1.429 . S
C1526 C1524 1.419 . S
C1526 C1527 1.363 . S
C1526 H1529 0.929 . S
C1527 C1526 1.363 . S
C1527 C1533 1.428 . S
H1528 C1524 0.930 . S
H1529 C1526 0.929 . S
S1530 N1531 1.613 . S
S1530 N1532 1.610 . S
N1531 S1530 1.613 . S
N1531 C1534 1.350 . S
N1532 S1530 1.610 . S
N1532 C1533 1.351 . S
C1533 C1527 1.428 . S
C1533 N1532 1.351 . S
C1533 C1534 1.434 . S
C1534 C1525 1.429 . S
C1534 N1531 1.350 . S
C1534 C1533 1.434 . S
C1535 C1536 1.369 . S
C1535 C1537 1.419 . S
C1535 H1539 0.930 . S
C1536 C1535 1.369 . S
C1536 C1545 1.429 . S
C1537 C1535 1.419 . S
C1537 C1538 1.363 . S
C1537 H1540 0.929 . S
C1538 C1537 1.363 . S
C1538 C1544 1.428 . S
H1539 C1535 0.930 . S
H1540 C1537 0.929 . S
S1541 N1542 1.613 . S
S1541 N1543 1.610 . S
N1542 S1541 1.613 . S
N1542 C1545 1.350 . S
N1543 S1541 1.610 . S
N1543 C1544 1.351 . S
C1544 C1538 1.428 . S
C1544 N1543 1.351 . S
C1544 C1545 1.434 . S
C1545 C1536 1.429 . S
C1545 N1542 1.350 . S
C1545 C1544 1.434 . S
C1546 C1547 1.369 . S
C1546 C1548 1.419 . S
C1546 H1550 0.930 . S
C1547 C1546 1.369 . S
C1547 C1556 1.429 . S
C1548 C1546 1.419 . S
C1548 C1549 1.363 . S
C1548 H1551 0.929 . S
C1549 C1548 1.363 . S
C1549 C1555 1.428 . S
H1550 C1546 0.930 . S
H1551 C1548 0.929 . S
S1552 N1553 1.613 . S
S1552 N1554 1.610 . S
N1553 S1552 1.613 . S
N1553 C1556 1.350 . S
N1554 S1552 1.610 . S
N1554 C1555 1.351 . S
C1555 C1549 1.428 . S
C1555 N1554 1.351 . S
C1555 C1556 1.434 . S
C1556 C1547 1.429 . S
C1556 N1553 1.350 . S
C1556 C1555 1.434 . S
C1557 C1558 1.369 . S
C1557 C1559 1.419 . S
C1557 H1561 0.930 . S
C1558 C1557 1.369 . S
C1558 C1567 1.429 . S
C1559 C1557 1.419 . S
C1559 C1560 1.363 . S
C1559 H1562 0.929 . S
C1560 C1559 1.363 . S
C1560 C1566 1.428 . S
H1561 C1557 0.930 . S
H1562 C1559 0.929 . S
S1563 N1564 1.613 . S
S1563 N1565 1.610 . S
N1564 S1563 1.613 . S
N1564 C1567 1.350 . S
N1565 S1563 1.610 . S
N1565 C1566 1.351 . S
C1566 C1560 1.428 . S
C1566 N1565 1.351 . S
C1566 C1567 1.434 . S
C1567 C1558 1.429 . S
C1567 N1564 1.350 . S
C1567 C1566 1.434 . S
C1568 C1569 1.369 . S
C1568 C1570 1.419 . S
C1568 H1572 0.930 . S
C1569 C1568 1.369 . S
C1569 C1578 1.429 . S
C1570 C1568 1.419 . S
C1570 C1571 1.363 . S
C1570 H1573 0.929 . S
C1571 C1570 1.363 . S
C1571 C1577 1.428 . S
H1572 C1568 0.930 . S
H1573 C1570 0.929 . S
S1574 N1575 1.613 . S
S1574 N1576 1.610 . S
N1575 S1574 1.613 . S
N1575 C1578 1.350 . S
N1576 S1574 1.610 . S
N1576 C1577 1.351 . S
C1577 C1571 1.428 . S
C1577 N1576 1.351 . S
C1577 C1578 1.434 . S
C1578 C1569 1.429 . S
C1578 N1575 1.350 . S
C1578 C1577 1.434 . S
C1579 C1580 1.369 . S
C1579 C1581 1.419 . S
C1579 H1583 0.930 . S
C1580 C1579 1.369 . S
C1580 C1589 1.429 . S
C1581 C1579 1.419 . S
C1581 C1582 1.363 . S
C1581 H1584 0.929 . S
C1582 C1581 1.363 . S
C1582 C1588 1.428 . S
H1583 C1579 0.930 . S
H1584 C1581 0.929 . S
S1585 N1586 1.613 . S
S1585 N1587 1.610 . S
N1586 S1585 1.613 . S
N1586 C1589 1.350 . S
N1587 S1585 1.610 . S
N1587 C1588 1.351 . S
C1588 C1582 1.428 . S
C1588 N1587 1.351 . S
C1588 C1589 1.434 . S
C1589 C1580 1.429 . S
C1589 N1586 1.350 . S
C1589 C1588 1.434 . S
C1590 C1591 1.369 . S
C1590 C1592 1.419 . S
C1590 H1594 0.930 . S
C1591 C1590 1.369 . S
C1591 C1600 1.429 . S
C1592 C1590 1.419 . S
C1592 C1593 1.363 . S
C1592 H1595 0.929 . S
C1593 C1592 1.363 . S
C1593 C1599 1.428 . S
H1594 C1590 0.930 . S
H1595 C1592 0.929 . S
S1596 N1597 1.613 . S
S1596 N1598 1.610 . S
N1597 S1596 1.613 . S
N1597 C1600 1.350 . S
N1598 S1596 1.610 . S
N1598 C1599 1.351 . S
C1599 C1593 1.428 . S
C1599 N1598 1.351 . S
C1599 C1600 1.434 . S
C1600 C1591 1.429 . S
C1600 N1597 1.350 . S
C1600 C1599 1.434 . S
C1601 C1602 1.369 . S
C1601 C1603 1.419 . S
C1601 H1605 0.930 . S
C1602 C1601 1.369 . S
C1602 C1611 1.429 . S
C1603 C1601 1.419 . S
C1603 C1604 1.363 . S
C1603 H1606 0.929 . S
C1604 C1603 1.363 . S
C1604 C1610 1.428 . S
H1605 C1601 0.930 . S
H1606 C1603 0.929 . S
S1607 N1608 1.613 . S
S1607 N1609 1.610 . S
N1608 S1607 1.613 . S
N1608 C1611 1.350 . S
N1609 S1607 1.610 . S
N1609 C1610 1.351 . S
C1610 C1604 1.428 . S
C1610 N1609 1.351 . S
C1610 C1611 1.434 . S
C1611 C1602 1.429 . S
C1611 N1608 1.350 . S
C1611 C1610 1.434 . S
C1612 C1613 1.369 . S
C1612 C1614 1.419 . S
C1612 H1616 0.930 . S
C1613 C1612 1.369 . S
C1613 C1622 1.429 . S
C1614 C1612 1.419 . S
C1614 C1615 1.363 . S
C1614 H1617 0.929 . S
C1615 C1614 1.363 . S
C1615 C1621 1.428 . S
H1616 C1612 0.930 . S
H1617 C1614 0.929 . S
S1618 N1619 1.613 . S
S1618 N1620 1.610 . S
N1619 S1618 1.613 . S
N1619 C1622 1.350 . S
N1620 S1618 1.610 . S
N1620 C1621 1.351 . S
C1621 C1615 1.428 . S
C1621 N1620 1.351 . S
C1621 C1622 1.434 . S
C1622 C1613 1.429 . S
C1622 N1619 1.350 . S
C1622 C1621 1.434 . S
C1623 C1624 1.369 . S
C1623 C1625 1.419 . S
C1623 H1627 0.930 . S
C1624 C1623 1.369 . S
C1624 C1633 1.429 . S
C1625 C1623 1.419 . S
C1625 C1626 1.363 . S
C1625 H1628 0.929 . S
C1626 C1625 1.363 . S
C1626 C1632 1.428 . S
H1627 C1623 0.930 . S
H1628 C1625 0.929 . S
S1629 N1630 1.613 . S
S1629 N1631 1.610 . S
N1630 S1629 1.613 . S
N1630 C1633 1.350 . S
N1631 S1629 1.610 . S
N1631 C1632 1.351 . S
C1632 C1626 1.428 . S
C1632 N1631 1.351 . S
C1632 C1633 1.434 . S
C1633 C1624 1.429 . S
C1633 N1630 1.350 . S
C1633 C1632 1.434 . S
C1634 C1635 1.369 . S
C1634 C1636 1.419 . S
C1634 H1638 0.930 . S
C1635 C1634 1.369 . S
C1635 C1644 1.429 . S
C1636 C1634 1.419 . S
C1636 C1637 1.363 . S
C1636 H1639 0.929 . S
C1637 C1636 1.363 . S
C1637 C1643 1.428 . S
H1638 C1634 0.930 . S
H1639 C1636 0.929 . S
S1640 N1641 1.613 . S
S1640 N1642 1.610 . S
N1641 S1640 1.613 . S
N1641 C1644 1.350 . S
N1642 S1640 1.610 . S
N1642 C1643 1.351 . S
C1643 C1637 1.428 . S
C1643 N1642 1.351 . S
C1643 C1644 1.434 . S
C1644 C1635 1.429 . S
C1644 N1641 1.350 . S
C1644 C1643 1.434 . S
C1645 C1646 1.369 . S
C1645 C1647 1.419 . S
C1645 H1649 0.930 . S
C1646 C1645 1.369 . S
C1646 C1655 1.429 . S
C1647 C1645 1.419 . S
C1647 C1648 1.363 . S
C1647 H1650 0.929 . S
C1648 C1647 1.363 . S
C1648 C1654 1.428 . S
H1649 C1645 0.930 . S
H1650 C1647 0.929 . S
S1651 N1652 1.613 . S
S1651 N1653 1.610 . S
N1652 S1651 1.613 . S
N1652 C1655 1.350 . S
N1653 S1651 1.610 . S
N1653 C1654 1.351 . S
C1654 C1648 1.428 . S
C1654 N1653 1.351 . S
C1654 C1655 1.434 . S
C1655 C1646 1.429 . S
C1655 N1652 1.350 . S
C1655 C1654 1.434 . S
C1656 C1657 1.369 . S
C1656 C1658 1.419 1_554 S
C1656 H1660 0.930 . S
C1657 C1656 1.369 . S
C1657 C1666 1.429 . S
C1658 C1656 1.419 1_556 S
C1658 C1659 1.363 . S
C1658 H1661 0.929 . S
C1659 C1658 1.363 . S
C1659 C1665 1.428 . S
H1660 C1656 0.930 . S
H1661 C1658 0.929 . S
S1662 N1663 1.613 . S
S1662 N1664 1.610 1_554 S
N1663 S1662 1.613 . S
N1663 C1666 1.350 . S
N1664 S1662 1.610 1_556 S
N1664 C1665 1.351 . S
C1665 C1659 1.428 . S
C1665 N1664 1.351 . S
C1665 C1666 1.434 1_556 S
C1666 C1657 1.429 . S
C1666 N1663 1.350 . S
C1666 C1665 1.434 1_554 S
C1667 C1668 1.369 . S
C1667 C1669 1.419 1_554 S
C1667 H1671 0.930 . S
C1668 C1667 1.369 . S
C1668 C1677 1.429 . S
C1669 C1667 1.419 1_556 S
C1669 C1670 1.363 . S
C1669 H1672 0.929 . S
C1670 C1669 1.363 . S
C1670 C1676 1.428 . S
H1671 C1667 0.930 . S
H1672 C1669 0.929 . S
S1673 N1674 1.613 . S
S1673 N1675 1.610 1_554 S
N1674 S1673 1.613 . S
N1674 C1677 1.350 . S
N1675 S1673 1.610 1_556 S
N1675 C1676 1.351 . S
C1676 C1670 1.428 . S
C1676 N1675 1.351 . S
C1676 C1677 1.434 1_556 S
C1677 C1668 1.429 . S
C1677 N1674 1.350 . S
C1677 C1676 1.434 1_554 S
C1678 C1679 1.369 . S
C1678 C1680 1.419 1_556 S
C1678 H1682 0.930 . S
C1679 C1678 1.369 . S
C1679 C1688 1.429 . S
C1680 C1678 1.419 1_554 S
C1680 C1681 1.363 . S
C1680 H1683 0.929 . S
C1681 C1680 1.363 . S
C1681 C1687 1.428 . S
H1682 C1678 0.930 . S
H1683 C1680 0.929 . S
S1684 N1685 1.613 1_554 S
S1684 N1686 1.610 . S
N1685 S1684 1.613 1_556 S
N1685 C1688 1.350 . S
N1686 S1684 1.610 . S
N1686 C1687 1.351 . S
C1687 C1681 1.428 . S
C1687 N1686 1.351 . S
C1687 C1688 1.434 1_554 S
C1688 C1679 1.429 . S
C1688 N1685 1.350 . S
C1688 C1687 1.434 1_556 S
C1689 C1690 1.369 . S
C1689 C1691 1.419 1_554 S
C1689 H1693 0.930 . S
C1690 C1689 1.369 . S
C1690 C1699 1.429 . S
C1691 C1689 1.419 1_556 S
C1691 C1692 1.363 . S
C1691 H1694 0.929 . S
C1692 C1691 1.363 . S
C1692 C1698 1.428 . S
H1693 C1689 0.930 . S
H1694 C1691 0.929 . S
S1695 N1696 1.613 . S
S1695 N1697 1.610 1_554 S
N1696 S1695 1.613 . S
N1696 C1699 1.350 . S
N1697 S1695 1.610 1_556 S
N1697 C1698 1.351 . S
C1698 C1692 1.428 . S
C1698 N1697 1.351 . S
C1698 C1699 1.434 1_556 S
C1699 C1690 1.429 . S
C1699 N1696 1.350 . S
C1699 C1698 1.434 1_554 S
C1700 C1701 1.369 . S
C1700 C1702 1.419 . S
C1700 H1704 0.930 . S
C1701 C1700 1.369 . S
C1701 C1710 1.429 . S
C1702 C1700 1.419 . S
C1702 C1703 1.363 . S
C1702 H1705 0.929 . S
C1703 C1702 1.363 . S
C1703 C1709 1.428 . S
H1704 C1700 0.930 . S
H1705 C1702 0.929 . S
S1706 N1707 1.613 . S
S1706 N1708 1.610 . S
N1707 S1706 1.613 . S
N1707 C1710 1.350 . S
N1708 S1706 1.610 . S
N1708 C1709 1.351 . S
C1709 C1703 1.428 . S
C1709 N1708 1.351 . S
C1709 C1710 1.434 . S
C1710 C1701 1.429 . S
C1710 N1707 1.350 . S
C1710 C1709 1.434 . S
C1711 C1712 1.369 . S
C1711 C1713 1.419 . S
C1711 H1715 0.930 . S
C1712 C1711 1.369 . S
C1712 C1721 1.429 . S
C1713 C1711 1.419 . S
C1713 C1714 1.363 . S
C1713 H1716 0.929 . S
C1714 C1713 1.363 . S
C1714 C1720 1.428 . S
H1715 C1711 0.930 . S
H1716 C1713 0.929 . S
S1717 N1718 1.613 . S
S1717 N1719 1.610 . S
N1718 S1717 1.613 . S
N1718 C1721 1.350 . S
N1719 S1717 1.610 . S
N1719 C1720 1.351 . S
C1720 C1714 1.428 . S
C1720 N1719 1.351 . S
C1720 C1721 1.434 . S
C1721 C1712 1.429 . S
C1721 N1718 1.350 . S
C1721 C1720 1.434 . S
C1722 C1723 1.369 . S
C1722 C1724 1.419 . S
C1722 H1726 0.930 . S
C1723 C1722 1.369 . S
C1723 C1732 1.429 . S
C1724 C1722 1.419 . S
C1724 C1725 1.363 . S
C1724 H1727 0.929 . S
C1725 C1724 1.363 . S
C1725 C1731 1.428 . S
H1726 C1722 0.930 . S
H1727 C1724 0.929 . S
S1728 N1729 1.613 . S
S1728 N1730 1.610 . S
N1729 S1728 1.613 . S
N1729 C1732 1.350 . S
N1730 S1728 1.610 . S
N1730 C1731 1.351 . S
C1731 C1725 1.428 . S
C1731 N1730 1.351 . S
C1731 C1732 1.434 . S
C1732 C1723 1.429 . S
C1732 N1729 1.350 . S
C1732 C1731 1.434 . S
C1733 C1734 1.369 . S
C1733 C1735 1.419 . S
C1733 H1737 0.930 . S
C1734 C1733 1.369 . S
C1734 C1743 1.429 . S
C1735 C1733 1.419 . S
C1735 C1736 1.363 . S
C1735 H1738 0.929 . S
C1736 C1735 1.363 . S
C1736 C1742 1.428 . S
H1737 C1733 0.930 . S
H1738 C1735 0.929 . S
S1739 N1740 1.613 . S
S1739 N1741 1.610 . S
N1740 S1739 1.613 . S
N1740 C1743 1.350 . S
N1741 S1739 1.610 . S
N1741 C1742 1.351 . S
C1742 C1736 1.428 . S
C1742 N1741 1.351 . S
C1742 C1743 1.434 . S
C1743 C1734 1.429 . S
C1743 N1740 1.350 . S
C1743 C1742 1.434 . S
C1744 C1745 1.369 . S
C1744 C1746 1.419 1_655 S
C1744 H1748 0.930 . S
C1745 C1744 1.369 . S
C1745 C1754 1.429 . S
C1746 C1744 1.419 1_455 S
C1746 C1747 1.363 . S
C1746 H1749 0.929 . S
C1747 C1746 1.363 . S
C1747 C1753 1.428 . S
H1748 C1744 0.930 . S
H1749 C1746 0.929 . S
S1750 N1751 1.613 1_455 S
S1750 N1752 1.610 . S
N1751 S1750 1.613 1_655 S
N1751 C1754 1.350 . S
N1752 S1750 1.610 . S
N1752 C1753 1.351 . S
C1753 C1747 1.428 . S
C1753 N1752 1.351 . S
C1753 C1754 1.434 1_455 S
C1754 C1745 1.429 . S
C1754 N1751 1.350 . S
C1754 C1753 1.434 1_655 S
C1755 C1756 1.401 . S
C1755 C1757 1.373 1_565 S
C1755 H1759 0.946 . S
C1756 C1755 1.401 . S
C1756 C1765 1.429 . S
C1757 C1755 1.373 1_545 S
C1757 C1758 1.363 . S
C1757 H1760 0.929 . S
C1758 C1757 1.363 . S
C1758 C1764 1.428 . S
H1759 C1755 0.946 . S
H1760 C1757 0.929 . S
S1761 N1762 1.613 . S
S1761 N1763 1.610 1_565 S
N1762 S1761 1.613 . S
N1762 C1765 1.350 . S
N1763 S1761 1.610 1_545 S
N1763 C1764 1.351 . S
C1764 C1758 1.428 . S
C1764 N1763 1.351 . S
C1764 C1765 1.434 1_545 S
C1765 C1756 1.429 . S
C1765 N1762 1.350 . S
C1765 C1764 1.434 1_565 S
C1766 C1767 1.369 . S
C1766 C1768 1.419 . S
C1766 H1770 0.930 . S
C1767 C1766 1.369 . S
C1767 C1776 1.429 . S
C1768 C1766 1.419 . S
C1768 C1769 1.363 . S
C1768 H1771 0.929 . S
C1769 C1768 1.363 . S
C1769 C1775 1.428 . S
H1770 C1766 0.930 . S
H1771 C1768 0.929 . S
S1772 N1773 1.613 . S
S1772 N1774 1.610 . S
N1773 S1772 1.613 . S
N1773 C1776 1.350 . S
N1774 S1772 1.610 . S
N1774 C1775 1.351 . S
C1775 C1769 1.428 . S
C1775 N1774 1.351 . S
C1775 C1776 1.434 . S
C1776 C1767 1.429 . S
C1776 N1773 1.350 . S
C1776 C1775 1.434 . S
C1777 C1778 1.369 . S
C1777 C1779 1.419 . S
C1777 H1781 0.930 . S
C1778 C1777 1.369 . S
C1778 C1787 1.429 . S
C1779 C1777 1.419 . S
C1779 C1780 1.363 . S
C1779 H1782 0.929 . S
C1780 C1779 1.363 . S
C1780 C1786 1.428 . S
H1781 C1777 0.930 . S
H1782 C1779 0.929 . S
S1783 N1784 1.613 . S
S1783 N1785 1.610 . S
N1784 S1783 1.613 . S
N1784 C1787 1.350 . S
N1785 S1783 1.610 . S
N1785 C1786 1.351 . S
C1786 C1780 1.428 . S
C1786 N1785 1.351 . S
C1786 C1787 1.434 . S
C1787 C1778 1.429 . S
C1787 N1784 1.350 . S
C1787 C1786 1.434 . S
C1788 C1789 1.369 . S
C1788 C1790 1.419 1_455 S
C1788 H1792 0.930 . S
C1789 C1788 1.369 . S
C1789 C1798 1.429 . S
C1790 C1788 1.419 1_655 S
C1790 C1791 1.363 . S
C1790 H1793 0.929 . S
C1791 C1790 1.363 . S
C1791 C1797 1.428 . S
H1792 C1788 0.930 . S
H1793 C1790 0.929 . S
S1794 N1795 1.613 . S
S1794 N1796 1.610 1_455 S
N1795 S1794 1.613 . S
N1795 C1798 1.350 . S
N1796 S1794 1.610 1_655 S
N1796 C1797 1.351 . S
C1797 C1791 1.428 . S
C1797 N1796 1.351 . S
C1797 C1798 1.434 1_655 S
C1798 C1789 1.429 . S
C1798 N1795 1.350 . S
C1798 C1797 1.434 1_455 S
C1799 C1800 1.369 . S
C1799 C1801 1.419 1_565 S
C1799 H1803 0.930 . S
C1800 C1799 1.369 . S
C1800 C1809 1.429 . S
C1801 C1799 1.419 1_545 S
C1801 C1802 1.363 . S
C1801 H1804 0.929 . S
C1802 C1801 1.363 . S
C1802 C1808 1.428 . S
H1803 C1799 0.930 . S
H1804 C1801 0.929 . S
S1805 N1806 1.627 . S
S1805 N1807 1.593 1_565 S
N1806 S1805 1.627 . S
N1806 C1809 1.350 . S
N1807 S1805 1.593 1_545 S
N1807 C1808 1.351 . S
C1808 C1802 1.428 . S
C1808 N1807 1.351 . S
C1808 C1809 1.434 1_545 S
C1809 C1800 1.429 . S
C1809 N1806 1.350 . S
C1809 C1808 1.434 1_565 S
C1810 C1811 1.369 . S
C1810 C1812 1.419 . S
C1810 H1814 0.930 . S
C1811 C1810 1.369 . S
C1811 C1820 1.429 . S
C1812 C1810 1.419 . S
C1812 C1813 1.363 . S
C1812 H1815 0.929 . S
C1813 C1812 1.363 . S
C1813 C1819 1.428 . S
H1814 C1810 0.930 . S
H1815 C1812 0.929 . S
S1816 N1817 1.613 . S
S1816 N1818 1.610 . S
N1817 S1816 1.613 . S
N1817 C1820 1.350 . S
N1818 S1816 1.610 . S
N1818 C1819 1.351 . S
C1819 C1813 1.428 . S
C1819 N1818 1.351 . S
C1819 C1820 1.434 . S
C1820 C1811 1.429 . S
C1820 N1817 1.350 . S
C1820 C1819 1.434 . S
C1821 C1822 1.369 . S
C1821 C1823 1.419 . S
C1821 H1825 0.930 . S
C1822 C1821 1.369 . S
C1822 C1831 1.429 . S
C1823 C1821 1.419 . S
C1823 C1824 1.363 . S
C1823 H1826 0.929 . S
C1824 C1823 1.363 . S
C1824 C1830 1.428 . S
H1825 C1821 0.930 . S
H1826 C1823 0.929 . S
S1827 N1828 1.613 . S
S1827 N1829 1.610 . S
N1828 S1827 1.613 . S
N1828 C1831 1.350 . S
N1829 S1827 1.610 . S
N1829 C1830 1.351 . S
C1830 C1824 1.428 . S
C1830 N1829 1.351 . S
C1830 C1831 1.434 . S
C1831 C1822 1.429 . S
C1831 N1828 1.350 . S
C1831 C1830 1.434 . S
C1832 C1833 1.369 . S
C1832 C1834 1.419 1_565 S
C1832 H1836 0.930 . S
C1833 C1832 1.369 . S
C1833 C1842 1.429 . S
C1834 C1832 1.419 1_545 S
C1834 C1835 1.363 . S
C1834 H1837 0.929 . S
C1835 C1834 1.363 . S
C1835 C1841 1.428 . S
H1836 C1832 0.930 . S
H1837 C1834 0.929 . S
S1838 N1839 1.613 1_545 S
S1838 N1840 1.610 . S
N1839 S1838 1.613 1_565 S
N1839 C1842 1.350 . S
N1840 S1838 1.610 . S
N1840 C1841 1.351 . S
C1841 C1835 1.428 . S
C1841 N1840 1.351 . S
C1841 C1842 1.434 1_545 S
C1842 C1833 1.429 . S
C1842 N1839 1.350 . S
C1842 C1841 1.434 1_565 S
C1843 C1844 1.369 . S
C1843 C1845 1.419 . S
C1843 H1847 0.930 . S
C1844 C1843 1.369 . S
C1844 C1853 1.429 . S
C1845 C1843 1.419 . S
C1845 C1846 1.363 . S
C1845 H1848 0.929 . S
C1846 C1845 1.363 . S
C1846 C1852 1.428 . S
H1847 C1843 0.930 . S
H1848 C1845 0.929 . S
S1849 N1850 1.613 . S
S1849 N1851 1.610 . S
N1850 S1849 1.613 . S
N1850 C1853 1.350 . S
N1851 S1849 1.610 . S
N1851 C1852 1.351 . S
C1852 C1846 1.428 . S
C1852 N1851 1.351 . S
C1852 C1853 1.434 . S
C1853 C1844 1.429 . S
C1853 N1850 1.350 . S
C1853 C1852 1.434 . S
C1854 C1855 1.369 . S
C1854 C1856 1.419 1_455 S
C1854 H1858 0.930 . S
C1855 C1854 1.369 . S
C1855 C1864 1.429 . S
C1856 C1854 1.419 1_655 S
C1856 C1857 1.363 . S
C1856 H1859 0.929 . S
C1857 C1856 1.363 . S
C1857 C1863 1.428 . S
H1858 C1854 0.930 . S
H1859 C1856 0.929 . S
S1860 N1861 1.613 . S
S1860 N1862 1.610 1_455 S
N1861 S1860 1.613 . S
N1861 C1864 1.350 . S
N1862 S1860 1.610 1_655 S
N1862 C1863 1.351 . S
C1863 C1857 1.428 . S
C1863 N1862 1.351 . S
C1863 C1864 1.434 1_655 S
C1864 C1855 1.429 . S
C1864 N1861 1.350 . S
C1864 C1863 1.434 1_455 S
C1865 C1866 1.369 . S
C1865 C1867 1.419 1_545 S
C1865 H1869 0.930 . S
C1866 C1865 1.369 . S
C1866 C1875 1.429 . S
C1867 C1865 1.419 1_565 S
C1867 C1868 1.363 . S
C1867 H1870 0.929 . S
C1868 C1867 1.363 . S
C1868 C1874 1.428 . S
H1869 C1865 0.930 . S
H1870 C1867 0.929 . S
S1871 N1872 1.613 . S
S1871 N1873 1.610 1_545 S
N1872 S1871 1.613 . S
N1872 C1875 1.350 . S
N1873 S1871 1.610 1_565 S
N1873 C1874 1.351 . S
C1874 C1868 1.428 . S
C1874 N1873 1.351 . S
C1874 C1875 1.434 1_565 S
C1875 C1866 1.429 . S
C1875 N1872 1.350 . S
C1875 C1874 1.434 1_545 S
C1876 C1877 1.369 . S
C1876 C1878 1.419 . S
C1876 H1880 0.930 . S
C1877 C1876 1.369 . S
C1877 C1886 1.429 . S
C1878 C1876 1.419 . S
C1878 C1879 1.363 . S
C1878 H1881 0.929 . S
C1879 C1878 1.363 . S
C1879 C1885 1.428 . S
H1880 C1876 0.930 . S
H1881 C1878 0.929 . S
S1882 N1883 1.613 . S
S1882 N1884 1.610 . S
N1883 S1882 1.613 . S
N1883 C1886 1.350 . S
N1884 S1882 1.610 . S
N1884 C1885 1.351 . S
C1885 C1879 1.428 . S
C1885 N1884 1.351 . S
C1885 C1886 1.434 . S
C1886 C1877 1.429 . S
C1886 N1883 1.350 . S
C1886 C1885 1.434 . S
C1887 C1888 1.369 . S
C1887 C1889 1.419 . S
C1887 H1891 0.930 . S
C1888 C1887 1.369 . S
C1888 C1897 1.429 . S
C1889 C1887 1.419 . S
C1889 C1890 1.363 . S
C1889 H1892 0.929 . S
C1890 C1889 1.363 . S
C1890 C1896 1.428 . S
H1891 C1887 0.930 . S
H1892 C1889 0.929 . S
S1893 N1894 1.613 . S
S1893 N1895 1.610 . S
N1894 S1893 1.613 . S
N1894 C1897 1.350 . S
N1895 S1893 1.610 . S
N1895 C1896 1.351 . S
C1896 C1890 1.428 . S
C1896 N1895 1.351 . S
C1896 C1897 1.434 . S
C1897 C1888 1.429 . S
C1897 N1894 1.350 . S
C1897 C1896 1.434 . S
C1898 C1899 1.369 . S
C1898 C1900 1.419 1_455 S
C1898 H1902 0.930 . S
C1899 C1898 1.369 . S
C1899 C1908 1.429 . S
C1900 C1898 1.419 1_655 S
C1900 C1901 1.363 . S
C1900 H1903 0.929 . S
C1901 C1900 1.363 . S
C1901 C1907 1.454 . S
H1902 C1898 0.930 . S
H1903 C1900 0.929 . S
S1904 N1905 1.613 . S
S1904 N1906 1.610 1_455 S
N1905 S1904 1.613 . S
N1905 C1908 1.350 . S
N1906 S1904 1.610 1_655 S
N1906 C1907 1.360 . S
C1907 C1901 1.454 . S
C1907 N1906 1.360 . S
C1907 C1908 1.396 1_655 S
C1908 C1899 1.429 . S
C1908 N1905 1.350 . S
C1908 C1907 1.396 1_455 S
C1909 C1910 1.369 . S
C1909 C1911 1.419 . S
C1909 H1913 0.930 . S
C1910 C1909 1.369 . S
C1910 C1919 1.429 . S
C1911 C1909 1.419 . S
C1911 C1912 1.363 . S
C1911 H1914 0.929 . S
C1912 C1911 1.363 . S
C1912 C1918 1.428 . S
H1913 C1909 0.930 . S
H1914 C1911 0.929 . S
S1915 N1916 1.613 . S
S1915 N1917 1.610 . S
N1916 S1915 1.613 . S
N1916 C1919 1.350 . S
N1917 S1915 1.610 . S
N1917 C1918 1.351 . S
C1918 C1912 1.428 . S
C1918 N1917 1.351 . S
C1918 C1919 1.434 . S
C1919 C1910 1.429 . S
C1919 N1916 1.350 . S
C1919 C1918 1.434 . S
C1920 C1921 1.369 . S
C1920 C1922 1.419 1_554 S
C1920 H1924 0.930 . S
C1921 C1920 1.369 . S
C1921 C1930 1.457 . S
C1922 C1920 1.419 1_556 S
C1922 C1923 1.363 . S
C1922 H1925 0.929 . S
C1923 C1922 1.363 . S
C1923 C1929 1.428 . S
H1924 C1920 0.930 . S
H1925 C1922 0.929 . S
S1926 N1927 1.613 1_556 S
S1926 N1928 1.610 . S
N1927 S1926 1.613 1_554 S
N1927 C1930 1.361 . S
N1928 S1926 1.610 . S
N1928 C1929 1.351 . S
C1929 C1923 1.428 . S
C1929 N1928 1.351 . S
C1929 C1930 1.391 1_556 S
C1930 C1921 1.457 . S
C1930 N1927 1.361 . S
C1930 C1929 1.391 1_554 S
C1931 C1932 1.369 . S
C1931 C1933 1.419 1_554 S
C1931 H1935 0.930 . S
C1932 C1931 1.369 . S
C1932 C1941 1.429 . S
C1933 C1931 1.419 1_556 S
C1933 C1934 1.363 . S
C1933 H1936 0.929 . S
C1934 C1933 1.363 . S
C1934 C1940 1.428 . S
H1935 C1931 0.930 . S
H1936 C1933 0.929 . S
S1937 N1938 1.613 1_556 S
S1937 N1939 1.610 . S
N1938 S1937 1.613 1_554 S
N1938 C1941 1.350 . S
N1939 S1937 1.610 . S
N1939 C1940 1.351 . S
C1940 C1934 1.428 . S
C1940 N1939 1.351 . S
C1940 C1941 1.434 1_556 S
C1941 C1932 1.429 . S
C1941 N1938 1.350 . S
C1941 C1940 1.434 1_554 S
C1942 C1943 1.369 . S
C1942 C1944 1.419 1_554 S
C1942 H1946 0.930 . S
C1943 C1942 1.369 . S
C1943 C1952 1.458 . S
C1944 C1942 1.419 1_556 S
C1944 C1945 1.363 . S
C1944 H1947 0.929 . S
C1945 C1944 1.363 . S
C1945 C1951 1.428 . S
H1946 C1942 0.930 . S
H1947 C1944 0.929 . S
S1948 N1949 1.613 1_556 S
S1948 N1950 1.610 . S
N1949 S1948 1.613 1_554 S
N1949 C1952 1.361 . S
N1950 S1948 1.610 . S
N1950 C1951 1.351 . S
C1951 C1945 1.428 . S
C1951 N1950 1.351 . S
C1951 C1952 1.389 1_556 S
C1952 C1943 1.458 . S
C1952 N1949 1.361 . S
C1952 C1951 1.389 1_554 S
C1953 C1954 1.369 . S
C1953 C1955 1.419 1_556 S
C1953 H1957 0.930 . S
C1954 C1953 1.369 . S
C1954 C1963 1.429 . S
C1955 C1953 1.419 1_554 S
C1955 C1956 1.363 . S
C1955 H1958 0.929 . S
C1956 C1955 1.363 . S
C1956 C1962 1.456 . S
H1957 C1953 0.930 . S
H1958 C1955 0.929 . S
S1959 N1960 1.613 . S
S1959 N1961 1.610 1_556 S
N1960 S1959 1.613 . S
N1960 C1963 1.350 . S
N1961 S1959 1.610 1_554 S
N1961 C1962 1.361 . S
C1962 C1956 1.456 . S
C1962 N1961 1.361 . S
C1962 C1963 1.393 1_554 S
C1963 C1954 1.429 . S
C1963 N1960 1.350 . S
C1963 C1962 1.393 1_556 S
C1964 C1965 1.369 . S
C1964 C1966 1.419 . S
C1964 H1968 0.930 . S
C1965 C1964 1.369 . S
C1965 C1974 1.429 . S
C1966 C1964 1.419 . S
C1966 C1967 1.363 . S
C1966 H1969 0.929 . S
C1967 C1966 1.363 . S
C1967 C1973 1.428 . S
H1968 C1964 0.930 . S
H1969 C1966 0.929 . S
S1970 N1971 1.613 . S
S1970 N1972 1.610 . S
N1971 S1970 1.613 . S
N1971 C1974 1.350 . S
N1972 S1970 1.610 . S
N1972 C1973 1.351 . S
C1973 C1967 1.428 . S
C1973 N1972 1.351 . S
C1973 C1974 1.434 . S
C1974 C1965 1.429 . S
C1974 N1971 1.350 . S
C1974 C1973 1.434 . S
C1975 C1976 1.369 . S
C1975 C1977 1.419 . S
C1975 H1979 0.930 . S
C1976 C1975 1.369 . S
C1976 C1985 1.429 . S
C1977 C1975 1.419 . S
C1977 C1978 1.363 . S
C1977 H1980 0.929 . S
C1978 C1977 1.363 . S
C1978 C1984 1.428 . S
H1979 C1975 0.930 . S
H1980 C1977 0.929 . S
S1981 N1982 1.613 . S
S1981 N1983 1.610 . S
N1982 S1981 1.613 . S
N1982 C1985 1.350 . S
N1983 S1981 1.610 . S
N1983 C1984 1.351 . S
C1984 C1978 1.428 . S
C1984 N1983 1.351 . S
C1984 C1985 1.434 . S
C1985 C1976 1.429 . S
C1985 N1982 1.350 . S
C1985 C1984 1.434 . S
C1986 C1987 1.369 . S
C1986 C1988 1.419 . S
C1986 H1990 0.930 . S
C1987 C1986 1.369 . S
C1987 C1996 1.429 . S
C1988 C1986 1.419 . S
C1988 C1989 1.363 . S
C1988 H1991 0.929 . S
C1989 C1988 1.363 . S
C1989 C1995 1.428 . S
H1990 C1986 0.930 . S
H1991 C1988 0.929 . S
S1992 N1993 1.613 . S
S1992 N1994 1.610 . S
N1993 S1992 1.613 . S
N1993 C1996 1.350 . S
N1994 S1992 1.610 . S
N1994 C1995 1.351 . S
C1995 C1989 1.428 . S
C1995 N1994 1.351 . S
C1995 C1996 1.434 . S
C1996 C1987 1.429 . S
C1996 N1993 1.350 . S
C1996 C1995 1.434 . S
C1997 C1998 1.369 . S
C1997 C1999 1.419 . S
C1997 H2001 0.930 . S
C1998 C1997 1.369 . S
C1998 C2007 1.429 . S
C1999 C1997 1.419 . S
C1999 C2000 1.363 . S
C1999 H2002 0.929 . S
C2000 C1999 1.363 . S
C2000 C2006 1.428 . S
H2001 C1997 0.930 . S
H2002 C1999 0.929 . S
S2003 N2004 1.613 . S
S2003 N2005 1.610 . S
N2004 S2003 1.613 . S
N2004 C2007 1.350 . S
N2005 S2003 1.610 . S
N2005 C2006 1.351 . S
C2006 C2000 1.428 . S
C2006 N2005 1.351 . S
C2006 C2007 1.434 . S
C2007 C1998 1.429 . S
C2007 N2004 1.350 . S
C2007 C2006 1.434 . S
C2008 C2009 1.369 . S
C2008 C2010 1.419 1_655 S
C2008 H2012 0.930 . S
C2009 C2008 1.369 . S
C2009 C2018 1.429 . S
C2010 C2008 1.419 1_455 S
C2010 C2011 1.363 . S
C2010 H2013 0.929 . S
C2011 C2010 1.363 . S
C2011 C2017 1.428 . S
H2012 C2008 0.930 . S
H2013 C2010 0.929 . S
S2014 N2015 1.598 1_455 S
S2014 N2016 1.623 . S
N2015 S2014 1.598 1_655 S
N2015 C2018 1.350 . S
N2016 S2014 1.623 . S
N2016 C2017 1.351 . S
C2017 C2011 1.428 . S
C2017 N2016 1.351 . S
C2017 C2018 1.434 1_455 S
C2018 C2009 1.429 . S
C2018 N2015 1.350 . S
C2018 C2017 1.434 1_655 S
C2019 C2020 1.369 . S
C2019 C2021 1.419 1_545 S
C2019 H2023 0.930 . S
C2020 C2019 1.369 . S
C2020 C2029 1.429 . S
C2021 C2019 1.419 1_565 S
C2021 C2022 1.363 . S
C2021 H2024 0.929 . S
C2022 C2021 1.363 . S
C2022 C2028 1.428 . S
H2023 C2019 0.930 . S
H2024 C2021 0.929 . S
S2025 N2026 1.613 1_565 S
S2025 N2027 1.610 . S
N2026 S2025 1.613 1_545 S
N2026 C2029 1.350 . S
N2027 S2025 1.610 . S
N2027 C2028 1.351 . S
C2028 C2022 1.428 . S
C2028 N2027 1.351 . S
C2028 C2029 1.434 1_565 S
C2029 C2020 1.429 . S
C2029 N2026 1.350 . S
C2029 C2028 1.434 1_545 S
C2030 C2031 1.369 . S
C2030 C2032 1.419 . S
C2030 H2034 0.930 . S
C2031 C2030 1.369 . S
C2031 C2040 1.429 . S
C2032 C2030 1.419 . S
C2032 C2033 1.363 . S
C2032 H2035 0.929 . S
C2033 C2032 1.363 . S
C2033 C2039 1.428 . S
H2034 C2030 0.930 . S
H2035 C2032 0.929 . S
S2036 N2037 1.613 . S
S2036 N2038 1.610 . S
N2037 S2036 1.613 . S
N2037 C2040 1.350 . S
N2038 S2036 1.610 . S
N2038 C2039 1.351 . S
C2039 C2033 1.428 . S
C2039 N2038 1.351 . S
C2039 C2040 1.434 . S
C2040 C2031 1.429 . S
C2040 N2037 1.350 . S
C2040 C2039 1.434 . S
C2041 C2042 1.369 . S
C2041 C2043 1.419 . S
C2041 H2045 0.930 . S
C2042 C2041 1.369 . S
C2042 C2051 1.429 . S
C2043 C2041 1.419 . S
C2043 C2044 1.363 . S
C2043 H2046 0.929 . S
C2044 C2043 1.363 . S
C2044 C2050 1.428 . S
H2045 C2041 0.930 . S
H2046 C2043 0.929 . S
S2047 N2048 1.613 . S
S2047 N2049 1.610 . S
N2048 S2047 1.613 . S
N2048 C2051 1.350 . S
N2049 S2047 1.610 . S
N2049 C2050 1.351 . S
C2050 C2044 1.428 . S
C2050 N2049 1.351 . S
C2050 C2051 1.434 . S
C2051 C2042 1.429 . S
C2051 N2048 1.350 . S
C2051 C2050 1.434 . S
C2052 C2053 1.369 . S
C2052 C2054 1.419 1_455 S
C2052 H2056 0.930 . S
C2053 C2052 1.369 . S
C2053 C2062 1.429 . S
C2054 C2052 1.419 1_655 S
C2054 C2055 1.363 . S
C2054 H2057 0.929 . S
C2055 C2054 1.363 . S
C2055 C2061 1.428 . S
H2056 C2052 0.930 . S
H2057 C2054 0.929 . S
S2058 N2059 1.613 1_655 S
S2058 N2060 1.610 . S
N2059 S2058 1.613 1_455 S
N2059 C2062 1.350 . S
N2060 S2058 1.610 . S
N2060 C2061 1.351 . S
C2061 C2055 1.428 . S
C2061 N2060 1.351 . S
C2061 C2062 1.434 1_655 S
C2062 C2053 1.429 . S
C2062 N2059 1.350 . S
C2062 C2061 1.434 1_455 S
C2063 C2064 1.369 . S
C2063 C2065 1.419 1_565 S
C2063 H2067 0.930 . S
C2064 C2063 1.369 . S
C2064 C2073 1.429 . S
C2065 C2063 1.419 1_545 S
C2065 C2066 1.363 . S
C2065 H2068 0.929 . S
C2066 C2065 1.363 . S
C2066 C2072 1.428 . S
H2067 C2063 0.930 . S
H2068 C2065 0.929 . S
S2069 N2070 1.613 . S
S2069 N2071 1.610 1_565 S
N2070 S2069 1.613 . S
N2070 C2073 1.350 . S
N2071 S2069 1.610 1_545 S
N2071 C2072 1.351 . S
C2072 C2066 1.428 . S
C2072 N2071 1.351 . S
C2072 C2073 1.434 1_545 S
C2073 C2064 1.429 . S
C2073 N2070 1.350 . S
C2073 C2072 1.434 1_565 S
C2074 C2075 1.369 . S
C2074 C2076 1.419 . S
C2074 H2078 0.930 . S
C2075 C2074 1.369 . S
C2075 C2084 1.429 . S
C2076 C2074 1.419 . S
C2076 C2077 1.363 . S
C2076 H2079 0.929 . S
C2077 C2076 1.363 . S
C2077 C2083 1.428 . S
H2078 C2074 0.930 . S
H2079 C2076 0.929 . S
S2080 N2081 1.613 . S
S2080 N2082 1.610 . S
N2081 S2080 1.613 . S
N2081 C2084 1.350 . S
N2082 S2080 1.610 . S
N2082 C2083 1.351 . S
C2083 C2077 1.428 . S
C2083 N2082 1.351 . S
C2083 C2084 1.434 . S
C2084 C2075 1.429 . S
C2084 N2081 1.350 . S
C2084 C2083 1.434 . S
C2085 C2086 1.369 . S
C2085 C2087 1.419 . S
C2085 H2089 0.930 . S
C2086 C2085 1.369 . S
C2086 C2095 1.429 . S
C2087 C2085 1.419 . S
C2087 C2088 1.363 . S
C2087 H2090 0.929 . S
C2088 C2087 1.363 . S
C2088 C2094 1.428 . S
H2089 C2085 0.930 . S
H2090 C2087 0.929 . S
S2091 N2092 1.613 . S
S2091 N2093 1.610 . S
N2092 S2091 1.613 . S
N2092 C2095 1.350 . S
N2093 S2091 1.610 . S
N2093 C2094 1.351 . S
C2094 C2088 1.428 . S
C2094 N2093 1.351 . S
C2094 C2095 1.434 . S
C2095 C2086 1.429 . S
C2095 N2092 1.350 . S
C2095 C2094 1.434 . S
C2096 C2097 1.369 . S
C2096 C2098 1.419 1_565 S
C2096 H2100 0.930 . S
C2097 C2096 1.369 . S
C2097 C2106 1.429 . S
C2098 C2096 1.419 1_545 S
C2098 C2099 1.363 . S
C2098 H2101 0.929 . S
C2099 C2098 1.363 . S
C2099 C2105 1.428 . S
H2100 C2096 0.930 . S
H2101 C2098 0.929 . S
S2102 N2103 1.613 . S
S2102 N2104 1.610 1_565 S
N2103 S2102 1.613 . S
N2103 C2106 1.350 . S
N2104 S2102 1.610 1_545 S
N2104 C2105 1.351 . S
C2105 C2099 1.428 . S
C2105 N2104 1.351 . S
C2105 C2106 1.434 1_545 S
C2106 C2097 1.429 . S
C2106 N2103 1.350 . S
C2106 C2105 1.434 1_565 S
C2107 C2108 1.369 . S
C2107 C2109 1.419 . S
C2107 H2111 0.930 . S
C2108 C2107 1.369 . S
C2108 C2117 1.429 . S
C2109 C2107 1.419 . S
C2109 C2110 1.363 . S
C2109 H2112 0.929 . S
C2110 C2109 1.363 . S
C2110 C2116 1.428 . S
H2111 C2107 0.930 . S
H2112 C2109 0.929 . S
S2113 N2114 1.613 . S
S2113 N2115 1.610 . S
N2114 S2113 1.613 . S
N2114 C2117 1.350 . S
N2115 S2113 1.610 . S
N2115 C2116 1.351 . S
C2116 C2110 1.428 . S
C2116 N2115 1.351 . S
C2116 C2117 1.434 . S
C2117 C2108 1.429 . S
C2117 N2114 1.350 . S
C2117 C2116 1.434 . S
C2118 C2119 1.369 . S
C2118 C2120 1.419 1_655 S
C2118 H2122 0.930 . S
C2119 C2118 1.369 . S
C2119 C2128 1.429 . S
C2120 C2118 1.419 1_455 S
C2120 C2121 1.363 . S
C2120 H2123 0.929 . S
C2121 C2120 1.363 . S
C2121 C2127 1.428 . S
H2122 C2118 0.930 . S
H2123 C2120 0.929 . S
S2124 N2125 1.580 1_455 S
S2124 N2126 1.637 . S
N2125 S2124 1.580 1_655 S
N2125 C2128 1.350 . S
N2126 S2124 1.637 . S
N2126 C2127 1.351 . S
C2127 C2121 1.428 . S
C2127 N2126 1.351 . S
C2127 C2128 1.434 1_455 S
C2128 C2119 1.429 . S
C2128 N2125 1.350 . S
C2128 C2127 1.434 1_655 S
C2129 C2130 1.369 . S
C2129 C2131 1.419 1_545 S
C2129 H2133 0.930 . S
C2130 C2129 1.369 . S
C2130 C2139 1.429 . S
C2131 C2129 1.419 1_565 S
C2131 C2132 1.363 . S
C2131 H2134 0.929 . S
C2132 C2131 1.363 . S
C2132 C2138 1.428 . S
H2133 C2129 0.930 . S
H2134 C2131 0.929 . S
S2135 N2136 1.613 1_565 S
S2135 N2137 1.610 . S
N2136 S2135 1.613 1_545 S
N2136 C2139 1.350 . S
N2137 S2135 1.610 . S
N2137 C2138 1.351 . S
C2138 C2132 1.428 . S
C2138 N2137 1.351 . S
C2138 C2139 1.434 1_565 S
C2139 C2130 1.429 . S
C2139 N2136 1.350 . S
C2139 C2138 1.434 1_545 S
C2140 C2141 1.369 . S
C2140 C2142 1.419 . S
C2140 H2144 0.930 . S
C2141 C2140 1.369 . S
C2141 C2150 1.429 . S
C2142 C2140 1.419 . S
C2142 C2143 1.363 . S
C2142 H2145 0.929 . S
C2143 C2142 1.363 . S
C2143 C2149 1.428 . S
H2144 C2140 0.930 . S
H2145 C2142 0.929 . S
S2146 N2147 1.613 . S
S2146 N2148 1.610 . S
N2147 S2146 1.613 . S
N2147 C2150 1.350 . S
N2148 S2146 1.610 . S
N2148 C2149 1.351 . S
C2149 C2143 1.428 . S
C2149 N2148 1.351 . S
C2149 C2150 1.434 . S
C2150 C2141 1.429 . S
C2150 N2147 1.350 . S
C2150 C2149 1.434 . S
C2151 C2152 1.369 . S
C2151 C2153 1.419 . S
C2151 H2155 0.930 . S
C2152 C2151 1.369 . S
C2152 C2161 1.429 . S
C2153 C2151 1.419 . S
C2153 C2154 1.363 . S
C2153 H2156 0.929 . S
C2154 C2153 1.363 . S
C2154 C2160 1.428 . S
H2155 C2151 0.930 . S
H2156 C2153 0.929 . S
S2157 N2158 1.613 . S
S2157 N2159 1.610 . S
N2158 S2157 1.613 . S
N2158 C2161 1.350 . S
N2159 S2157 1.610 . S
N2159 C2160 1.351 . S
C2160 C2154 1.428 . S
C2160 N2159 1.351 . S
C2160 C2161 1.434 . S
C2161 C2152 1.429 . S
C2161 N2158 1.350 . S
C2161 C2160 1.434 . S
C2162 C2163 1.369 . S
C2162 C2164 1.419 1_455 S
C2162 H2166 0.930 . S
C2163 C2162 1.369 . S
C2163 C2172 1.429 . S
C2164 C2162 1.419 1_655 S
C2164 C2165 1.363 . S
C2164 H2167 0.929 . S
C2165 C2164 1.363 . S
C2165 C2171 1.428 . S
H2166 C2162 0.930 . S
H2167 C2164 0.929 . S
S2168 N2169 1.613 1_655 S
S2168 N2170 1.610 . S
N2169 S2168 1.613 1_455 S
N2169 C2172 1.350 . S
N2170 S2168 1.610 . S
N2170 C2171 1.351 . S
C2171 C2165 1.428 . S
C2171 N2170 1.351 . S
C2171 C2172 1.434 1_655 S
C2172 C2163 1.429 . S
C2172 N2169 1.350 . S
C2172 C2171 1.434 1_455 S
C2173 C2174 1.369 . S
C2173 C2175 1.419 . S
C2173 H2177 0.930 . S
C2174 C2173 1.369 . S
C2174 C2183 1.429 . S
C2175 C2173 1.419 . S
C2175 C2176 1.363 . S
C2175 H2178 0.929 . S
C2176 C2175 1.363 . S
C2176 C2182 1.428 . S
H2177 C2173 0.930 . S
H2178 C2175 0.929 . S
S2179 N2180 1.613 . S
S2179 N2181 1.610 . S
N2180 S2179 1.613 . S
N2180 C2183 1.350 . S
N2181 S2179 1.610 . S
N2181 C2182 1.351 . S
C2182 C2176 1.428 . S
C2182 N2181 1.351 . S
C2182 C2183 1.434 . S
C2183 C2174 1.429 . S
C2183 N2180 1.350 . S
C2183 C2182 1.434 . S
C2184 C2185 1.369 . S
C2184 C2186 1.419 . S
C2184 H2188 0.930 . S
C2185 C2184 1.369 . S
C2185 C2194 1.429 . S
C2186 C2184 1.419 . S
C2186 C2187 1.363 . S
C2186 H2189 0.929 . S
C2187 C2186 1.363 . S
C2187 C2193 1.428 . S
H2188 C2184 0.930 . S
H2189 C2186 0.929 . S
S2190 N2191 1.613 . S
S2190 N2192 1.610 . S
N2191 S2190 1.613 . S
N2191 C2194 1.350 . S
N2192 S2190 1.610 . S
N2192 C2193 1.351 . S
C2193 C2187 1.428 . S
C2193 N2192 1.351 . S
C2193 C2194 1.434 . S
C2194 C2185 1.429 . S
C2194 N2191 1.350 . S
C2194 C2193 1.434 . S
C2195 C2196 1.369 . S
C2195 C2197 1.419 . S
C2195 H2199 0.930 . S
C2196 C2195 1.369 . S
C2196 C2205 1.429 . S
C2197 C2195 1.419 . S
C2197 C2198 1.363 . S
C2197 H2200 0.929 . S
C2198 C2197 1.363 . S
C2198 C2204 1.428 . S
H2199 C2195 0.930 . S
H2200 C2197 0.929 . S
S2201 N2202 1.613 . S
S2201 N2203 1.610 . S
N2202 S2201 1.613 . S
N2202 C2205 1.350 . S
N2203 S2201 1.610 . S
N2203 C2204 1.351 . S
C2204 C2198 1.428 . S
C2204 N2203 1.351 . S
C2204 C2205 1.434 . S
C2205 C2196 1.429 . S
C2205 N2202 1.350 . S
C2205 C2204 1.434 . S
C2206 C2207 1.369 . S
C2206 C2208 1.419 . S
C2206 H2210 0.930 . S
C2207 C2206 1.369 . S
C2207 C2216 1.429 . S
C2208 C2206 1.419 . S
C2208 C2209 1.363 . S
C2208 H2211 0.929 . S
C2209 C2208 1.363 . S
C2209 C2215 1.428 . S
H2210 C2206 0.930 . S
H2211 C2208 0.929 . S
S2212 N2213 1.613 . S
S2212 N2214 1.610 . S
N2213 S2212 1.613 . S
N2213 C2216 1.350 . S
N2214 S2212 1.610 . S
N2214 C2215 1.351 . S
C2215 C2209 1.428 . S
C2215 N2214 1.351 . S
C2215 C2216 1.434 . S
C2216 C2207 1.429 . S
C2216 N2213 1.350 . S
C2216 C2215 1.434 . S
C2217 C2218 1.369 . S
C2217 C2219 1.419 . S
C2217 H2221 0.930 . S
C2218 C2217 1.369 . S
C2218 C2227 1.429 . S
C2219 C2217 1.419 . S
C2219 C2220 1.363 . S
C2219 H2222 0.929 . S
C2220 C2219 1.363 . S
C2220 C2226 1.428 . S
H2221 C2217 0.930 . S
H2222 C2219 0.929 . S
S2223 N2224 1.613 . S
S2223 N2225 1.610 . S
N2224 S2223 1.613 . S
N2224 C2227 1.350 . S
N2225 S2223 1.610 . S
N2225 C2226 1.351 . S
C2226 C2220 1.428 . S
C2226 N2225 1.351 . S
C2226 C2227 1.434 . S
C2227 C2218 1.429 . S
C2227 N2224 1.350 . S
C2227 C2226 1.434 . S
C2228 C2229 1.369 . S
C2228 C2230 1.419 . S
C2228 H2232 0.930 . S
C2229 C2228 1.369 . S
C2229 C2238 1.429 . S
C2230 C2228 1.419 . S
C2230 C2231 1.363 . S
C2230 H2233 0.929 . S
C2231 C2230 1.363 . S
C2231 C2237 1.428 . S
H2232 C2228 0.930 . S
H2233 C2230 0.929 . S
S2234 N2235 1.613 . S
S2234 N2236 1.610 . S
N2235 S2234 1.613 . S
N2235 C2238 1.350 . S
N2236 S2234 1.610 . S
N2236 C2237 1.351 . S
C2237 C2231 1.428 . S
C2237 N2236 1.351 . S
C2237 C2238 1.434 . S
C2238 C2229 1.429 . S
C2238 N2235 1.350 . S
C2238 C2237 1.434 . S
C2239 C2240 1.369 . S
C2239 C2241 1.419 . S
C2239 H2243 0.930 . S
C2240 C2239 1.369 . S
C2240 C2249 1.429 . S
C2241 C2239 1.419 . S
C2241 C2242 1.363 . S
C2241 H2244 0.929 . S
C2242 C2241 1.363 . S
C2242 C2248 1.428 . S
H2243 C2239 0.930 . S
H2244 C2241 0.929 . S
S2245 N2246 1.613 . S
S2245 N2247 1.610 . S
N2246 S2245 1.613 . S
N2246 C2249 1.350 . S
N2247 S2245 1.610 . S
N2247 C2248 1.351 . S
C2248 C2242 1.428 . S
C2248 N2247 1.351 . S
C2248 C2249 1.434 . S
C2249 C2240 1.429 . S
C2249 N2246 1.350 . S
C2249 C2248 1.434 . S
C2250 C2251 1.369 . S
C2250 C2252 1.419 . S
C2250 H2254 0.930 . S
C2251 C2250 1.369 . S
C2251 C2260 1.429 . S
C2252 C2250 1.419 . S
C2252 C2253 1.363 . S
C2252 H2255 0.929 . S
C2253 C2252 1.363 . S
C2253 C2259 1.428 . S
H2254 C2250 0.930 . S
H2255 C2252 0.929 . S
S2256 N2257 1.613 . S
S2256 N2258 1.610 . S
N2257 S2256 1.613 . S
N2257 C2260 1.350 . S
N2258 S2256 1.610 . S
N2258 C2259 1.351 . S
C2259 C2253 1.428 . S
C2259 N2258 1.351 . S
C2259 C2260 1.434 . S
C2260 C2251 1.429 . S
C2260 N2257 1.350 . S
C2260 C2259 1.434 . S
C2261 C2262 1.369 . S
C2261 C2263 1.419 . S
C2261 H2265 0.930 . S
C2262 C2261 1.369 . S
C2262 C2271 1.429 . S
C2263 C2261 1.419 . S
C2263 C2264 1.363 . S
C2263 H2266 0.929 . S
C2264 C2263 1.363 . S
C2264 C2270 1.428 . S
H2265 C2261 0.930 . S
H2266 C2263 0.929 . S
S2267 N2268 1.613 . S
S2267 N2269 1.610 . S
N2268 S2267 1.613 . S
N2268 C2271 1.350 . S
N2269 S2267 1.610 . S
N2269 C2270 1.351 . S
C2270 C2264 1.428 . S
C2270 N2269 1.351 . S
C2270 C2271 1.434 . S
C2271 C2262 1.429 . S
C2271 N2268 1.350 . S
C2271 C2270 1.434 . S
C2272 C2273 1.369 . S
C2272 C2274 1.419 . S
C2272 H2276 0.930 . S
C2273 C2272 1.369 . S
C2273 C2282 1.429 . S
C2274 C2272 1.419 . S
C2274 C2275 1.363 . S
C2274 H2277 0.929 . S
C2275 C2274 1.363 . S
C2275 C2281 1.428 . S
H2276 C2272 0.930 . S
H2277 C2274 0.929 . S
S2278 N2279 1.613 . S
S2278 N2280 1.610 . S
N2279 S2278 1.613 . S
N2279 C2282 1.350 . S
N2280 S2278 1.610 . S
N2280 C2281 1.351 . S
C2281 C2275 1.428 . S
C2281 N2280 1.351 . S
C2281 C2282 1.434 . S
C2282 C2273 1.429 . S
C2282 N2279 1.350 . S
C2282 C2281 1.434 . S
C2283 C2284 1.369 . S
C2283 C2285 1.419 . S
C2283 H2287 0.930 . S
C2284 C2283 1.369 . S
C2284 C2293 1.429 . S
C2285 C2283 1.419 . S
C2285 C2286 1.363 . S
C2285 H2288 0.929 . S
C2286 C2285 1.363 . S
C2286 C2292 1.428 . S
H2287 C2283 0.930 . S
H2288 C2285 0.929 . S
S2289 N2290 1.613 . S
S2289 N2291 1.610 . S
N2290 S2289 1.613 . S
N2290 C2293 1.350 . S
N2291 S2289 1.610 . S
N2291 C2292 1.351 . S
C2292 C2286 1.428 . S
C2292 N2291 1.351 . S
C2292 C2293 1.434 . S
C2293 C2284 1.429 . S
C2293 N2290 1.350 . S
C2293 C2292 1.434 . S
C2294 C2295 1.369 . S
C2294 C2296 1.419 . S
C2294 H2298 0.930 . S
C2295 C2294 1.369 . S
C2295 C2304 1.429 . S
C2296 C2294 1.419 . S
C2296 C2297 1.363 . S
C2296 H2299 0.929 . S
C2297 C2296 1.363 . S
C2297 C2303 1.428 . S
H2298 C2294 0.930 . S
H2299 C2296 0.929 . S
S2300 N2301 1.613 . S
S2300 N2302 1.610 . S
N2301 S2300 1.613 . S
N2301 C2304 1.350 . S
N2302 S2300 1.610 . S
N2302 C2303 1.351 . S
C2303 C2297 1.428 . S
C2303 N2302 1.351 . S
C2303 C2304 1.434 . S
C2304 C2295 1.429 . S
C2304 N2301 1.350 . S
C2304 C2303 1.434 . S
C2305 C2306 1.369 . S
C2305 C2307 1.419 . S
C2305 H2309 0.930 . S
C2306 C2305 1.369 . S
C2306 C2315 1.429 . S
C2307 C2305 1.419 . S
C2307 C2308 1.363 . S
C2307 H2310 0.929 . S
C2308 C2307 1.363 . S
C2308 C2314 1.428 . S
H2309 C2305 0.930 . S
H2310 C2307 0.929 . S
S2311 N2312 1.613 . S
S2311 N2313 1.610 . S
N2312 S2311 1.613 . S
N2312 C2315 1.350 . S
N2313 S2311 1.610 . S
N2313 C2314 1.351 . S
C2314 C2308 1.428 . S
C2314 N2313 1.351 . S
C2314 C2315 1.434 . S
C2315 C2306 1.429 . S
C2315 N2312 1.350 . S
C2315 C2314 1.434 . S
C2316 C2317 1.369 . S
C2316 C2318 1.419 . S
C2316 H2320 0.930 . S
C2317 C2316 1.369 . S
C2317 C2326 1.429 . S
C2318 C2316 1.419 . S
C2318 C2319 1.363 . S
C2318 H2321 0.929 . S
C2319 C2318 1.363 . S
C2319 C2325 1.428 . S
H2320 C2316 0.930 . S
H2321 C2318 0.929 . S
S2322 N2323 1.613 . S
S2322 N2324 1.610 . S
N2323 S2322 1.613 . S
N2323 C2326 1.350 . S
N2324 S2322 1.610 . S
N2324 C2325 1.351 . S
C2325 C2319 1.428 . S
C2325 N2324 1.351 . S
C2325 C2326 1.434 . S
C2326 C2317 1.429 . S
C2326 N2323 1.350 . S
C2326 C2325 1.434 . S
C2327 C2328 1.369 . S
C2327 C2329 1.419 . S
C2327 H2331 0.930 . S
C2328 C2327 1.369 . S
C2328 C2337 1.429 . S
C2329 C2327 1.419 . S
C2329 C2330 1.363 . S
C2329 H2332 0.929 . S
C2330 C2329 1.363 . S
C2330 C2336 1.428 . S
H2331 C2327 0.930 . S
H2332 C2329 0.929 . S
S2333 N2334 1.613 . S
S2333 N2335 1.610 . S
N2334 S2333 1.613 . S
N2334 C2337 1.350 . S
N2335 S2333 1.610 . S
N2335 C2336 1.351 . S
C2336 C2330 1.428 . S
C2336 N2335 1.351 . S
C2336 C2337 1.434 . S
C2337 C2328 1.429 . S
C2337 N2334 1.350 . S
C2337 C2336 1.434 . S
C2338 C2339 1.369 . S
C2338 C2340 1.419 . S
C2338 H2342 0.930 . S
C2339 C2338 1.369 . S
C2339 C2348 1.429 . S
C2340 C2338 1.419 . S
C2340 C2341 1.363 . S
C2340 H2343 0.929 . S
C2341 C2340 1.363 . S
C2341 C2347 1.428 . S
H2342 C2338 0.930 . S
H2343 C2340 0.929 . S
S2344 N2345 1.613 . S
S2344 N2346 1.610 . S
N2345 S2344 1.613 . S
N2345 C2348 1.350 . S
N2346 S2344 1.610 . S
N2346 C2347 1.351 . S
C2347 C2341 1.428 . S
C2347 N2346 1.351 . S
C2347 C2348 1.434 . S
C2348 C2339 1.429 . S
C2348 N2345 1.350 . S
C2348 C2347 1.434 . S
C2349 C2350 1.369 . S
C2349 C2351 1.419 . S
C2349 H2353 0.930 . S
C2350 C2349 1.369 . S
C2350 C2359 1.429 . S
C2351 C2349 1.419 . S
C2351 C2352 1.363 . S
C2351 H2354 0.929 . S
C2352 C2351 1.363 . S
C2352 C2358 1.428 . S
H2353 C2349 0.930 . S
H2354 C2351 0.929 . S
S2355 N2356 1.613 . S
S2355 N2357 1.610 . S
N2356 S2355 1.613 . S
N2356 C2359 1.350 . S
N2357 S2355 1.610 . S
N2357 C2358 1.351 . S
C2358 C2352 1.428 . S
C2358 N2357 1.351 . S
C2358 C2359 1.434 . S
C2359 C2350 1.429 . S
C2359 N2356 1.350 . S
C2359 C2358 1.434 . S
C2360 C2361 1.369 . S
C2360 C2362 1.419 . S
C2360 H2364 0.930 . S
C2361 C2360 1.369 . S
C2361 C2370 1.429 . S
C2362 C2360 1.419 . S
C2362 C2363 1.363 . S
C2362 H2365 0.929 . S
C2363 C2362 1.363 . S
C2363 C2369 1.428 . S
H2364 C2360 0.930 . S
H2365 C2362 0.929 . S
S2366 N2367 1.613 . S
S2366 N2368 1.610 . S
N2367 S2366 1.613 . S
N2367 C2370 1.350 . S
N2368 S2366 1.610 . S
N2368 C2369 1.351 . S
C2369 C2363 1.428 . S
C2369 N2368 1.351 . S
C2369 C2370 1.434 . S
C2370 C2361 1.429 . S
C2370 N2367 1.350 . S
C2370 C2369 1.434 . S
C2371 C2372 1.369 . S
C2371 C2373 1.419 . S
C2371 H2375 0.930 . S
C2372 C2371 1.369 . S
C2372 C2381 1.429 . S
C2373 C2371 1.419 . S
C2373 C2374 1.363 . S
C2373 H2376 0.929 . S
C2374 C2373 1.363 . S
C2374 C2380 1.428 . S
H2375 C2371 0.930 . S
H2376 C2373 0.929 . S
S2377 N2378 1.613 . S
S2377 N2379 1.610 . S
N2378 S2377 1.613 . S
N2378 C2381 1.350 . S
N2379 S2377 1.610 . S
N2379 C2380 1.351 . S
C2380 C2374 1.428 . S
C2380 N2379 1.351 . S
C2380 C2381 1.434 . S
C2381 C2372 1.429 . S
C2381 N2378 1.350 . S
C2381 C2380 1.434 . S
C2382 C2383 1.369 . S
C2382 C2384 1.419 . S
C2382 H2386 0.930 . S
C2383 C2382 1.369 . S
C2383 C2392 1.429 . S
C2384 C2382 1.419 . S
C2384 C2385 1.363 . S
C2384 H2387 0.929 . S
C2385 C2384 1.363 . S
C2385 C2391 1.428 . S
H2386 C2382 0.930 . S
H2387 C2384 0.929 . S
S2388 N2389 1.613 . S
S2388 N2390 1.610 . S
N2389 S2388 1.613 . S
N2389 C2392 1.350 . S
N2390 S2388 1.610 . S
N2390 C2391 1.351 . S
C2391 C2385 1.428 . S
C2391 N2390 1.351 . S
C2391 C2392 1.434 . S
C2392 C2383 1.429 . S
C2392 N2389 1.350 . S
C2392 C2391 1.434 . S
C2393 C2394 1.369 . S
C2393 C2395 1.419 . S
C2393 H2397 0.930 . S
C2394 C2393 1.369 . S
C2394 C2403 1.429 . S
C2395 C2393 1.419 . S
C2395 C2396 1.363 . S
C2395 H2398 0.929 . S
C2396 C2395 1.363 . S
C2396 C2402 1.428 . S
H2397 C2393 0.930 . S
H2398 C2395 0.929 . S
S2399 N2400 1.613 . S
S2399 N2401 1.610 . S
N2400 S2399 1.613 . S
N2400 C2403 1.350 . S
N2401 S2399 1.610 . S
N2401 C2402 1.351 . S
C2402 C2396 1.428 . S
C2402 N2401 1.351 . S
C2402 C2403 1.434 . S
C2403 C2394 1.429 . S
C2403 N2400 1.350 . S
C2403 C2402 1.434 . S
C2404 C2405 1.369 . S
C2404 C2406 1.419 . S
C2404 H2408 0.930 . S
C2405 C2404 1.369 . S
C2405 C2414 1.429 . S
C2406 C2404 1.419 . S
C2406 C2407 1.363 . S
C2406 H2409 0.929 . S
C2407 C2406 1.363 . S
C2407 C2413 1.428 . S
H2408 C2404 0.930 . S
H2409 C2406 0.929 . S
S2410 N2411 1.613 . S
S2410 N2412 1.610 . S
N2411 S2410 1.613 . S
N2411 C2414 1.350 . S
N2412 S2410 1.610 . S
N2412 C2413 1.351 . S
C2413 C2407 1.428 . S
C2413 N2412 1.351 . S
C2413 C2414 1.434 . S
C2414 C2405 1.429 . S
C2414 N2411 1.350 . S
C2414 C2413 1.434 . S
C2415 C2416 1.369 . S
C2415 C2417 1.419 . S
C2415 H2419 0.930 . S
C2416 C2415 1.369 . S
C2416 C2425 1.429 . S
C2417 C2415 1.419 . S
C2417 C2418 1.363 . S
C2417 H2420 0.929 . S
C2418 C2417 1.363 . S
C2418 C2424 1.428 . S
H2419 C2415 0.930 . S
H2420 C2417 0.929 . S
S2421 N2422 1.613 . S
S2421 N2423 1.610 . S
N2422 S2421 1.613 . S
N2422 C2425 1.350 . S
N2423 S2421 1.610 . S
N2423 C2424 1.351 . S
C2424 C2418 1.428 . S
C2424 N2423 1.351 . S
C2424 C2425 1.434 . S
C2425 C2416 1.429 . S
C2425 N2422 1.350 . S
C2425 C2424 1.434 . S
C2426 C2427 1.369 . S
C2426 C2428 1.419 . S
C2426 H2430 0.930 . S
C2427 C2426 1.369 . S
C2427 C2436 1.429 . S
C2428 C2426 1.419 . S
C2428 C2429 1.363 . S
C2428 H2431 0.929 . S
C2429 C2428 1.363 . S
C2429 C2435 1.428 . S
H2430 C2426 0.930 . S
H2431 C2428 0.929 . S
S2432 N2433 1.613 . S
S2432 N2434 1.610 . S
N2433 S2432 1.613 . S
N2433 C2436 1.350 . S
N2434 S2432 1.610 . S
N2434 C2435 1.351 . S
C2435 C2429 1.428 . S
C2435 N2434 1.351 . S
C2435 C2436 1.434 . S
C2436 C2427 1.429 . S
C2436 N2433 1.350 . S
C2436 C2435 1.434 . S
C2437 C2438 1.369 . S
C2437 C2439 1.419 . S
C2437 H2441 0.930 . S
C2438 C2437 1.369 . S
C2438 C2447 1.429 . S
C2439 C2437 1.419 . S
C2439 C2440 1.363 . S
C2439 H2442 0.929 . S
C2440 C2439 1.363 . S
C2440 C2446 1.428 . S
H2441 C2437 0.930 . S
H2442 C2439 0.929 . S
S2443 N2444 1.613 . S
S2443 N2445 1.610 . S
N2444 S2443 1.613 . S
N2444 C2447 1.350 . S
N2445 S2443 1.610 . S
N2445 C2446 1.351 . S
C2446 C2440 1.428 . S
C2446 N2445 1.351 . S
C2446 C2447 1.434 . S
C2447 C2438 1.429 . S
C2447 N2444 1.350 . S
C2447 C2446 1.434 . S
C2448 C2449 1.369 . S
C2448 C2450 1.419 . S
C2448 H2452 0.930 . S
C2449 C2448 1.369 . S
C2449 C2458 1.429 . S
C2450 C2448 1.419 . S
C2450 C2451 1.363 . S
C2450 H2453 0.929 . S
C2451 C2450 1.363 . S
C2451 C2457 1.428 . S
H2452 C2448 0.930 . S
H2453 C2450 0.929 . S
S2454 N2455 1.613 . S
S2454 N2456 1.610 . S
N2455 S2454 1.613 . S
N2455 C2458 1.350 . S
N2456 S2454 1.610 . S
N2456 C2457 1.351 . S
C2457 C2451 1.428 . S
C2457 N2456 1.351 . S
C2457 C2458 1.434 . S
C2458 C2449 1.429 . S
C2458 N2455 1.350 . S
C2458 C2457 1.434 . S
C2459 C2460 1.369 . S
C2459 C2461 1.419 . S
C2459 H2463 0.930 . S
C2460 C2459 1.369 . S
C2460 C2469 1.429 . S
C2461 C2459 1.419 . S
C2461 C2462 1.363 . S
C2461 H2464 0.929 . S
C2462 C2461 1.363 . S
C2462 C2468 1.428 . S
H2463 C2459 0.930 . S
H2464 C2461 0.929 . S
S2465 N2466 1.613 . S
S2465 N2467 1.610 . S
N2466 S2465 1.613 . S
N2466 C2469 1.350 . S
N2467 S2465 1.610 . S
N2467 C2468 1.351 . S
C2468 C2462 1.428 . S
C2468 N2467 1.351 . S
C2468 C2469 1.434 . S
C2469 C2460 1.429 . S
C2469 N2466 1.350 . S
C2469 C2468 1.434 . S
C2470 C2471 1.369 . S
C2470 C2472 1.419 . S
C2470 H2474 0.930 . S
C2471 C2470 1.369 . S
C2471 C2480 1.429 . S
C2472 C2470 1.419 . S
C2472 C2473 1.363 . S
C2472 H2475 0.929 . S
C2473 C2472 1.363 . S
C2473 C2479 1.428 . S
H2474 C2470 0.930 . S
H2475 C2472 0.929 . S
S2476 N2477 1.613 . S
S2476 N2478 1.610 . S
N2477 S2476 1.613 . S
N2477 C2480 1.350 . S
N2478 S2476 1.610 . S
N2478 C2479 1.351 . S
C2479 C2473 1.428 . S
C2479 N2478 1.351 . S
C2479 C2480 1.434 . S
C2480 C2471 1.429 . S
C2480 N2477 1.350 . S
C2480 C2479 1.434 . S
C2481 C2482 1.369 . S
C2481 C2483 1.419 . S
C2481 H2485 0.930 . S
C2482 C2481 1.369 . S
C2482 C2491 1.429 . S
C2483 C2481 1.419 . S
C2483 C2484 1.363 . S
C2483 H2486 0.929 . S
C2484 C2483 1.363 . S
C2484 C2490 1.428 . S
H2485 C2481 0.930 . S
H2486 C2483 0.929 . S
S2487 N2488 1.613 . S
S2487 N2489 1.610 . S
N2488 S2487 1.613 . S
N2488 C2491 1.350 . S
N2489 S2487 1.610 . S
N2489 C2490 1.351 . S
C2490 C2484 1.428 . S
C2490 N2489 1.351 . S
C2490 C2491 1.434 . S
C2491 C2482 1.429 . S
C2491 N2488 1.350 . S
C2491 C2490 1.434 . S
C2492 C2493 1.369 . S
C2492 C2494 1.419 . S
C2492 H2496 0.930 . S
C2493 C2492 1.369 . S
C2493 C2502 1.429 . S
C2494 C2492 1.419 . S
C2494 C2495 1.363 . S
C2494 H2497 0.929 . S
C2495 C2494 1.363 . S
C2495 C2501 1.428 . S
H2496 C2492 0.930 . S
H2497 C2494 0.929 . S
S2498 N2499 1.613 . S
S2498 N2500 1.610 . S
N2499 S2498 1.613 . S
N2499 C2502 1.350 . S
N2500 S2498 1.610 . S
N2500 C2501 1.351 . S
C2501 C2495 1.428 . S
C2501 N2500 1.351 . S
C2501 C2502 1.434 . S
C2502 C2493 1.429 . S
C2502 N2499 1.350 . S
C2502 C2501 1.434 . S
C2503 C2504 1.369 . S
C2503 C2505 1.419 . S
C2503 H2507 0.930 . S
C2504 C2503 1.369 . S
C2504 C2513 1.429 . S
C2505 C2503 1.419 . S
C2505 C2506 1.363 . S
C2505 H2508 0.929 . S
C2506 C2505 1.363 . S
C2506 C2512 1.428 . S
H2507 C2503 0.930 . S
H2508 C2505 0.929 . S
S2509 N2510 1.613 . S
S2509 N2511 1.610 . S
N2510 S2509 1.613 . S
N2510 C2513 1.350 . S
N2511 S2509 1.610 . S
N2511 C2512 1.351 . S
C2512 C2506 1.428 . S
C2512 N2511 1.351 . S
C2512 C2513 1.434 . S
C2513 C2504 1.429 . S
C2513 N2510 1.350 . S
C2513 C2512 1.434 . S
C2514 C2515 1.369 . S
C2514 C2516 1.419 . S
C2514 H2518 0.930 . S
C2515 C2514 1.369 . S
C2515 C2524 1.429 . S
C2516 C2514 1.419 . S
C2516 C2517 1.363 . S
C2516 H2519 0.929 . S
C2517 C2516 1.363 . S
C2517 C2523 1.428 . S
H2518 C2514 0.930 . S
H2519 C2516 0.929 . S
S2520 N2521 1.613 . S
S2520 N2522 1.610 . S
N2521 S2520 1.613 . S
N2521 C2524 1.350 . S
N2522 S2520 1.610 . S
N2522 C2523 1.351 . S
C2523 C2517 1.428 . S
C2523 N2522 1.351 . S
C2523 C2524 1.434 . S
C2524 C2515 1.429 . S
C2524 N2521 1.350 . S
C2524 C2523 1.434 . S
C2525 C2526 1.369 . S
C2525 C2527 1.419 . S
C2525 H2529 0.930 . S
C2526 C2525 1.369 . S
C2526 C2535 1.429 . S
C2527 C2525 1.419 . S
C2527 C2528 1.363 . S
C2527 H2530 0.929 . S
C2528 C2527 1.363 . S
C2528 C2534 1.428 . S
H2529 C2525 0.930 . S
H2530 C2527 0.929 . S
S2531 N2532 1.613 . S
S2531 N2533 1.610 . S
N2532 S2531 1.613 . S
N2532 C2535 1.350 . S
N2533 S2531 1.610 . S
N2533 C2534 1.351 . S
C2534 C2528 1.428 . S
C2534 N2533 1.351 . S
C2534 C2535 1.434 . S
C2535 C2526 1.429 . S
C2535 N2532 1.350 . S
C2535 C2534 1.434 . S
C2536 C2537 1.369 . S
C2536 C2538 1.419 . S
C2536 H2540 0.930 . S
C2537 C2536 1.369 . S
C2537 C2546 1.429 . S
C2538 C2536 1.419 . S
C2538 C2539 1.363 . S
C2538 H2541 0.929 . S
C2539 C2538 1.363 . S
C2539 C2545 1.428 . S
H2540 C2536 0.930 . S
H2541 C2538 0.929 . S
S2542 N2543 1.613 . S
S2542 N2544 1.610 . S
N2543 S2542 1.613 . S
N2543 C2546 1.350 . S
N2544 S2542 1.610 . S
N2544 C2545 1.351 . S
C2545 C2539 1.428 . S
C2545 N2544 1.351 . S
C2545 C2546 1.434 . S
C2546 C2537 1.429 . S
C2546 N2543 1.350 . S
C2546 C2545 1.434 . S
C2547 C2548 1.369 . S
C2547 C2549 1.419 . S
C2547 H2551 0.930 . S
C2548 C2547 1.369 . S
C2548 C2557 1.429 . S
C2549 C2547 1.419 . S
C2549 C2550 1.363 . S
C2549 H2552 0.929 . S
C2550 C2549 1.363 . S
C2550 C2556 1.428 . S
H2551 C2547 0.930 . S
H2552 C2549 0.929 . S
S2553 N2554 1.613 . S
S2553 N2555 1.610 . S
N2554 S2553 1.613 . S
N2554 C2557 1.350 . S
N2555 S2553 1.610 . S
N2555 C2556 1.351 . S
C2556 C2550 1.428 . S
C2556 N2555 1.351 . S
C2556 C2557 1.434 . S
C2557 C2548 1.429 . S
C2557 N2554 1.350 . S
C2557 C2556 1.434 . S
C2558 C2559 1.369 . S
C2558 C2560 1.419 . S
C2558 H2562 0.930 . S
C2559 C2558 1.369 . S
C2559 C2568 1.429 . S
C2560 C2558 1.419 . S
C2560 C2561 1.363 . S
C2560 H2563 0.929 . S
C2561 C2560 1.363 . S
C2561 C2567 1.428 . S
H2562 C2558 0.930 . S
H2563 C2560 0.929 . S
S2564 N2565 1.613 . S
S2564 N2566 1.610 . S
N2565 S2564 1.613 . S
N2565 C2568 1.350 . S
N2566 S2564 1.610 . S
N2566 C2567 1.351 . S
C2567 C2561 1.428 . S
C2567 N2566 1.351 . S
C2567 C2568 1.434 . S
C2568 C2559 1.429 . S
C2568 N2565 1.350 . S
C2568 C2567 1.434 . S
C2569 C2570 1.369 . S
C2569 C2571 1.419 . S
C2569 H2573 0.930 . S
C2570 C2569 1.369 . S
C2570 C2579 1.429 . S
C2571 C2569 1.419 . S
C2571 C2572 1.363 . S
C2571 H2574 0.929 . S
C2572 C2571 1.363 . S
C2572 C2578 1.428 . S
H2573 C2569 0.930 . S
H2574 C2571 0.929 . S
S2575 N2576 1.613 . S
S2575 N2577 1.610 . S
N2576 S2575 1.613 . S
N2576 C2579 1.350 . S
N2577 S2575 1.610 . S
N2577 C2578 1.351 . S
C2578 C2572 1.428 . S
C2578 N2577 1.351 . S
C2578 C2579 1.434 . S
C2579 C2570 1.429 . S
C2579 N2576 1.350 . S
C2579 C2578 1.434 . S
C2580 C2581 1.369 . S
C2580 C2582 1.419 . S
C2580 H2584 0.930 . S
C2581 C2580 1.369 . S
C2581 C2590 1.429 . S
C2582 C2580 1.419 . S
C2582 C2583 1.363 . S
C2582 H2585 0.929 . S
C2583 C2582 1.363 . S
C2583 C2589 1.428 . S
H2584 C2580 0.930 . S
H2585 C2582 0.929 . S
S2586 N2587 1.613 . S
S2586 N2588 1.610 . S
N2587 S2586 1.613 . S
N2587 C2590 1.350 . S
N2588 S2586 1.610 . S
N2588 C2589 1.351 . S
C2589 C2583 1.428 . S
C2589 N2588 1.351 . S
C2589 C2590 1.434 . S
C2590 C2581 1.429 . S
C2590 N2587 1.350 . S
C2590 C2589 1.434 . S
C2591 C2592 1.369 . S
C2591 C2593 1.419 . S
C2591 H2595 0.930 . S
C2592 C2591 1.369 . S
C2592 C2601 1.429 . S
C2593 C2591 1.419 . S
C2593 C2594 1.363 . S
C2593 H2596 0.929 . S
C2594 C2593 1.363 . S
C2594 C2600 1.428 . S
H2595 C2591 0.930 . S
H2596 C2593 0.929 . S
S2597 N2598 1.613 . S
S2597 N2599 1.610 . S
N2598 S2597 1.613 . S
N2598 C2601 1.350 . S
N2599 S2597 1.610 . S
N2599 C2600 1.351 . S
C2600 C2594 1.428 . S
C2600 N2599 1.351 . S
C2600 C2601 1.434 . S
C2601 C2592 1.429 . S
C2601 N2598 1.350 . S
C2601 C2600 1.434 . S
C2602 C2603 1.369 . S
C2602 C2604 1.419 . S
C2602 H2606 0.930 . S
C2603 C2602 1.369 . S
C2603 C2612 1.429 . S
C2604 C2602 1.419 . S
C2604 C2605 1.363 . S
C2604 H2607 0.929 . S
C2605 C2604 1.363 . S
C2605 C2611 1.428 . S
H2606 C2602 0.930 . S
H2607 C2604 0.929 . S
S2608 N2609 1.613 . S
S2608 N2610 1.610 . S
N2609 S2608 1.613 . S
N2609 C2612 1.350 . S
N2610 S2608 1.610 . S
N2610 C2611 1.351 . S
C2611 C2605 1.428 . S
C2611 N2610 1.351 . S
C2611 C2612 1.434 . S
C2612 C2603 1.429 . S
C2612 N2609 1.350 . S
C2612 C2611 1.434 . S
C2613 C2614 1.369 . S
C2613 C2615 1.419 . S
C2613 H2617 0.930 . S
C2614 C2613 1.369 . S
C2614 C2623 1.429 . S
C2615 C2613 1.419 . S
C2615 C2616 1.363 . S
C2615 H2618 0.929 . S
C2616 C2615 1.363 . S
C2616 C2622 1.428 . S
H2617 C2613 0.930 . S
H2618 C2615 0.929 . S
S2619 N2620 1.613 . S
S2619 N2621 1.610 . S
N2620 S2619 1.613 . S
N2620 C2623 1.350 . S
N2621 S2619 1.610 . S
N2621 C2622 1.351 . S
C2622 C2616 1.428 . S
C2622 N2621 1.351 . S
C2622 C2623 1.434 . S
C2623 C2614 1.429 . S
C2623 N2620 1.350 . S
C2623 C2622 1.434 . S
C2624 C2625 1.369 . S
C2624 C2626 1.419 . S
C2624 H2628 0.930 . S
C2625 C2624 1.369 . S
C2625 C2634 1.429 . S
C2626 C2624 1.419 . S
C2626 C2627 1.363 . S
C2626 H2629 0.929 . S
C2627 C2626 1.363 . S
C2627 C2633 1.428 . S
H2628 C2624 0.930 . S
H2629 C2626 0.929 . S
S2630 N2631 1.613 . S
S2630 N2632 1.610 . S
N2631 S2630 1.613 . S
N2631 C2634 1.350 . S
N2632 S2630 1.610 . S
N2632 C2633 1.351 . S
C2633 C2627 1.428 . S
C2633 N2632 1.351 . S
C2633 C2634 1.434 . S
C2634 C2625 1.429 . S
C2634 N2631 1.350 . S
C2634 C2633 1.434 . S
C2635 C2636 1.369 . S
C2635 C2637 1.419 . S
C2635 H2639 0.930 . S
C2636 C2635 1.369 . S
C2636 C2645 1.429 . S
C2637 C2635 1.419 . S
C2637 C2638 1.363 . S
C2637 H2640 0.929 . S
C2638 C2637 1.363 . S
C2638 C2644 1.428 . S
H2639 C2635 0.930 . S
H2640 C2637 0.929 . S
S2641 N2642 1.613 . S
S2641 N2643 1.610 . S
N2642 S2641 1.613 . S
N2642 C2645 1.350 . S
N2643 S2641 1.610 . S
N2643 C2644 1.351 . S
C2644 C2638 1.428 . S
C2644 N2643 1.351 . S
C2644 C2645 1.434 . S
C2645 C2636 1.429 . S
C2645 N2642 1.350 . S
C2645 C2644 1.434 . S
C2646 C2647 1.369 . S
C2646 C2648 1.419 . S
C2646 H2650 0.930 . S
C2647 C2646 1.369 . S
C2647 C2656 1.429 . S
C2648 C2646 1.419 . S
C2648 C2649 1.363 . S
C2648 H2651 0.929 . S
C2649 C2648 1.363 . S
C2649 C2655 1.428 . S
H2650 C2646 0.930 . S
H2651 C2648 0.929 . S
S2652 N2653 1.613 . S
S2652 N2654 1.610 . S
N2653 S2652 1.613 . S
N2653 C2656 1.350 . S
N2654 S2652 1.610 . S
N2654 C2655 1.351 . S
C2655 C2649 1.428 . S
C2655 N2654 1.351 . S
C2655 C2656 1.434 . S
C2656 C2647 1.429 . S
C2656 N2653 1.350 . S
C2656 C2655 1.434 . S
C2657 C2658 1.369 . S
C2657 C2659 1.419 . S
C2657 H2661 0.930 . S
C2658 C2657 1.369 . S
C2658 C2667 1.429 . S
C2659 C2657 1.419 . S
C2659 C2660 1.363 . S
C2659 H2662 0.929 . S
C2660 C2659 1.363 . S
C2660 C2666 1.428 . S
H2661 C2657 0.930 . S
H2662 C2659 0.929 . S
S2663 N2664 1.613 . S
S2663 N2665 1.610 . S
N2664 S2663 1.613 . S
N2664 C2667 1.350 . S
N2665 S2663 1.610 . S
N2665 C2666 1.351 . S
C2666 C2660 1.428 . S
C2666 N2665 1.351 . S
C2666 C2667 1.434 . S
C2667 C2658 1.429 . S
C2667 N2664 1.350 . S
C2667 C2666 1.434 . S
C2668 C2669 1.369 . S
C2668 C2670 1.419 . S
C2668 H2672 0.930 . S
C2669 C2668 1.369 . S
C2669 C2678 1.429 . S
C2670 C2668 1.419 . S
C2670 C2671 1.363 . S
C2670 H2673 0.929 . S
C2671 C2670 1.363 . S
C2671 C2677 1.428 . S
H2672 C2668 0.930 . S
H2673 C2670 0.929 . S
S2674 N2675 1.613 . S
S2674 N2676 1.610 . S
N2675 S2674 1.613 . S
N2675 C2678 1.350 . S
N2676 S2674 1.610 . S
N2676 C2677 1.351 . S
C2677 C2671 1.428 . S
C2677 N2676 1.351 . S
C2677 C2678 1.434 . S
C2678 C2669 1.429 . S
C2678 N2675 1.350 . S
C2678 C2677 1.434 . S
C2679 C2680 1.369 . S
C2679 C2681 1.419 . S
C2679 H2683 0.930 . S
C2680 C2679 1.369 . S
C2680 C2689 1.429 . S
C2681 C2679 1.419 . S
C2681 C2682 1.363 . S
C2681 H2684 0.929 . S
C2682 C2681 1.363 . S
C2682 C2688 1.428 . S
H2683 C2679 0.930 . S
H2684 C2681 0.929 . S
S2685 N2686 1.613 . S
S2685 N2687 1.610 . S
N2686 S2685 1.613 . S
N2686 C2689 1.350 . S
N2687 S2685 1.610 . S
N2687 C2688 1.351 . S
C2688 C2682 1.428 . S
C2688 N2687 1.351 . S
C2688 C2689 1.434 . S
C2689 C2680 1.429 . S
C2689 N2686 1.350 . S
C2689 C2688 1.434 . S
C2690 C2691 1.369 . S
C2690 C2692 1.419 . S
C2690 H2694 0.930 . S
C2691 C2690 1.369 . S
C2691 C2700 1.429 . S
C2692 C2690 1.419 . S
C2692 C2693 1.363 . S
C2692 H2695 0.929 . S
C2693 C2692 1.363 . S
C2693 C2699 1.428 . S
H2694 C2690 0.930 . S
H2695 C2692 0.929 . S
S2696 N2697 1.613 . S
S2696 N2698 1.610 . S
N2697 S2696 1.613 . S
N2697 C2700 1.350 . S
N2698 S2696 1.610 . S
N2698 C2699 1.351 . S
C2699 C2693 1.428 . S
C2699 N2698 1.351 . S
C2699 C2700 1.434 . S
C2700 C2691 1.429 . S
C2700 N2697 1.350 . S
C2700 C2699 1.434 . S
C2701 C2702 1.369 . S
C2701 C2703 1.419 . S
C2701 H2705 0.930 . S
C2702 C2701 1.369 . S
C2702 C2711 1.429 . S
C2703 C2701 1.419 . S
C2703 C2704 1.363 . S
C2703 H2706 0.929 . S
C2704 C2703 1.363 . S
C2704 C2710 1.428 . S
H2705 C2701 0.930 . S
H2706 C2703 0.929 . S
S2707 N2708 1.613 . S
S2707 N2709 1.610 . S
N2708 S2707 1.613 . S
N2708 C2711 1.350 . S
N2709 S2707 1.610 . S
N2709 C2710 1.351 . S
C2710 C2704 1.428 . S
C2710 N2709 1.351 . S
C2710 C2711 1.434 . S
C2711 C2702 1.429 . S
C2711 N2708 1.350 . S
C2711 C2710 1.434 . S
C2712 C2713 1.379 . S
C2712 C2714 1.428 . S
C2712 H2716 0.910 1_455 S
C2713 C2712 1.379 . S
C2713 C2722 1.429 . S
C2714 C2712 1.428 . S
C2714 C2715 1.363 . S
C2714 H2717 0.929 . S
C2715 C2714 1.363 . S
C2715 C2721 1.428 . S
H2716 C2712 0.910 1_655 S
H2717 C2714 0.929 . S
S2718 N2719 1.613 . S
S2718 N2720 1.610 . S
N2719 S2718 1.613 . S
N2719 C2722 1.350 . S
N2720 S2718 1.610 . S
N2720 C2721 1.351 . S
C2721 C2715 1.428 . S
C2721 N2720 1.351 . S
C2721 C2722 1.434 . S
C2722 C2713 1.429 . S
C2722 N2719 1.350 . S
C2722 C2721 1.434 . S
C2723 C2724 1.369 . S
C2723 C2725 1.419 . S
C2723 H2727 0.930 1_545 S
C2724 C2723 1.369 . S
C2724 C2733 1.429 . S
C2725 C2723 1.419 . S
C2725 C2726 1.363 . S
C2725 H2728 0.929 . S
C2726 C2725 1.363 . S
C2726 C2732 1.428 . S
H2727 C2723 0.930 1_565 S
H2728 C2725 0.929 . S
S2729 N2730 1.613 . S
S2729 N2731 1.610 . S
N2730 S2729 1.613 . S
N2730 C2733 1.350 . S
N2731 S2729 1.610 . S
N2731 C2732 1.351 . S
C2732 C2726 1.428 . S
C2732 N2731 1.351 . S
C2732 C2733 1.434 . S
C2733 C2724 1.429 . S
C2733 N2730 1.350 . S
C2733 C2732 1.434 . S
C2734 C2735 1.369 . S
C2734 C2736 1.419 . S
C2734 H2738 0.930 . S
C2735 C2734 1.369 . S
C2735 C2744 1.429 . S
C2736 C2734 1.419 . S
C2736 C2737 1.363 . S
C2736 H2739 0.929 . S
C2737 C2736 1.363 . S
C2737 C2743 1.428 . S
H2738 C2734 0.930 . S
H2739 C2736 0.929 . S
S2740 N2741 1.613 . S
S2740 N2742 1.610 . S
N2741 S2740 1.613 . S
N2741 C2744 1.350 . S
N2742 S2740 1.610 . S
N2742 C2743 1.351 . S
C2743 C2737 1.428 . S
C2743 N2742 1.351 . S
C2743 C2744 1.434 . S
C2744 C2735 1.429 . S
C2744 N2741 1.350 . S
C2744 C2743 1.434 . S
C2745 C2746 1.369 . S
C2745 C2747 1.419 . S
C2745 H2749 0.930 . S
C2746 C2745 1.369 . S
C2746 C2755 1.429 . S
C2747 C2745 1.419 . S
C2747 C2748 1.363 . S
C2747 H2750 0.929 . S
C2748 C2747 1.363 . S
C2748 C2754 1.428 . S
H2749 C2745 0.930 . S
H2750 C2747 0.929 . S
S2751 N2752 1.613 . S
S2751 N2753 1.610 . S
N2752 S2751 1.613 . S
N2752 C2755 1.350 . S
N2753 S2751 1.610 . S
N2753 C2754 1.351 . S
C2754 C2748 1.428 . S
C2754 N2753 1.351 . S
C2754 C2755 1.434 . S
C2755 C2746 1.429 . S
C2755 N2752 1.350 . S
C2755 C2754 1.434 . S
C2756 C2757 1.369 . S
C2756 C2758 1.419 . S
C2756 H2760 0.930 . S
C2757 C2756 1.369 . S
C2757 C2766 1.429 . S
C2758 C2756 1.419 . S
C2758 C2759 1.363 . S
C2758 H2761 0.929 . S
C2759 C2758 1.363 . S
C2759 C2765 1.428 . S
H2760 C2756 0.930 . S
H2761 C2758 0.929 . S
S2762 N2763 1.613 . S
S2762 N2764 1.613 . S
N2763 S2762 1.613 . S
N2763 C2766 1.350 . S
N2764 S2762 1.613 . S
N2764 C2765 1.357 . S
C2765 C2759 1.428 . S
C2765 N2764 1.357 . S
C2765 C2766 1.434 . S
C2766 C2757 1.429 . S
C2766 N2763 1.350 . S
C2766 C2765 1.434 . S
C2767 C2768 1.369 . S
C2767 C2769 1.419 . S
C2767 H2771 0.930 . S
C2768 C2767 1.369 . S
C2768 C2777 1.429 . S
C2769 C2767 1.419 . S
C2769 C2770 1.363 . S
C2769 H2772 0.929 . S
C2770 C2769 1.363 . S
C2770 C2776 1.428 . S
H2771 C2767 0.930 . S
H2772 C2769 0.929 . S
S2773 N2774 1.613 . S
S2773 N2775 1.610 . S
N2774 S2773 1.613 . S
N2774 C2777 1.350 . S
N2775 S2773 1.610 . S
N2775 C2776 1.351 . S
C2776 C2770 1.428 . S
C2776 N2775 1.351 . S
C2776 C2777 1.434 . S
C2777 C2768 1.429 . S
C2777 N2774 1.350 . S
C2777 C2776 1.434 . S
C2778 C2779 1.369 . S
C2778 C2780 1.419 . S
C2778 H2782 0.930 . S
C2779 C2778 1.369 . S
C2779 C2788 1.429 . S
C2780 C2778 1.419 . S
C2780 C2781 1.363 . S
C2780 H2783 0.929 . S
C2781 C2780 1.363 . S
C2781 C2787 1.428 . S
H2782 C2778 0.930 . S
H2783 C2780 0.929 . S
S2784 N2785 1.613 . S
S2784 N2786 1.610 . S
N2785 S2784 1.613 . S
N2785 C2788 1.350 . S
N2786 S2784 1.610 . S
N2786 C2787 1.351 . S
C2787 C2781 1.428 . S
C2787 N2786 1.351 . S
C2787 C2788 1.434 . S
C2788 C2779 1.429 . S
C2788 N2785 1.350 . S
C2788 C2787 1.434 . S
C2789 C2790 1.369 . S
C2789 C2791 1.419 . S
C2789 H2793 0.930 . S
C2790 C2789 1.369 . S
C2790 C2799 1.429 . S
C2791 C2789 1.419 . S
C2791 C2792 1.363 . S
C2791 H2794 0.929 . S
C2792 C2791 1.363 . S
C2792 C2798 1.428 . S
H2793 C2789 0.930 . S
H2794 C2791 0.929 . S
S2795 N2796 1.613 . S
S2795 N2797 1.610 . S
N2796 S2795 1.613 . S
N2796 C2799 1.350 . S
N2797 S2795 1.610 . S
N2797 C2798 1.351 . S
C2798 C2792 1.428 . S
C2798 N2797 1.351 . S
C2798 C2799 1.434 . S
C2799 C2790 1.429 . S
C2799 N2796 1.350 . S
C2799 C2798 1.434 . S
C2800 C2801 1.369 . S
C2800 C2802 1.419 . S
C2800 H2804 0.930 . S
C2801 C2800 1.369 . S
C2801 C2810 1.429 . S
C2802 C2800 1.419 . S
C2802 C2803 1.363 . S
C2802 H2805 0.929 . S
C2803 C2802 1.363 . S
C2803 C2809 1.428 . S
H2804 C2800 0.930 . S
H2805 C2802 0.929 . S
S2806 N2807 1.613 . S
S2806 N2808 1.610 . S
N2807 S2806 1.613 . S
N2807 C2810 1.350 . S
N2808 S2806 1.610 . S
N2808 C2809 1.351 . S
C2809 C2803 1.428 . S
C2809 N2808 1.351 . S
C2809 C2810 1.434 . S
C2810 C2801 1.429 . S
C2810 N2807 1.350 . S
C2810 C2809 1.434 . S
C2811 C2812 1.369 . S
C2811 C2813 1.419 . S
C2811 H2815 0.930 . S
C2812 C2811 1.369 . S
C2812 C2821 1.429 . S
C2813 C2811 1.419 . S
C2813 C2814 1.363 . S
C2813 H2816 0.929 . S
C2814 C2813 1.363 . S
C2814 C2820 1.428 . S
H2815 C2811 0.930 . S
H2816 C2813 0.929 . S
S2817 N2818 1.613 . S
S2817 N2819 1.610 . S
N2818 S2817 1.613 . S
N2818 C2821 1.350 . S
N2819 S2817 1.610 . S
N2819 C2820 1.351 . S
C2820 C2814 1.428 . S
C2820 N2819 1.351 . S
C2820 C2821 1.434 . S
C2821 C2812 1.429 . S
C2821 N2818 1.350 . S
C2821 C2820 1.434 . S
C2822 C2823 1.369 . S
C2822 C2824 1.419 . S
C2822 H2826 0.930 . S
C2823 C2822 1.369 . S
C2823 C2832 1.429 . S
C2824 C2822 1.419 . S
C2824 C2825 1.363 . S
C2824 H2827 0.929 . S
C2825 C2824 1.363 . S
C2825 C2831 1.428 . S
H2826 C2822 0.930 . S
H2827 C2824 0.929 . S
S2828 N2829 1.613 . S
S2828 N2830 1.610 . S
N2829 S2828 1.613 . S
N2829 C2832 1.350 . S
N2830 S2828 1.610 . S
N2830 C2831 1.351 . S
C2831 C2825 1.428 . S
C2831 N2830 1.351 . S
C2831 C2832 1.434 . S
C2832 C2823 1.429 . S
C2832 N2829 1.350 . S
C2832 C2831 1.434 . S
C2833 C2834 1.369 . S
C2833 C2835 1.419 . S
C2833 H2837 0.930 . S
C2834 C2833 1.369 . S
C2834 C2843 1.429 . S
C2835 C2833 1.419 . S
C2835 C2836 1.363 . S
C2835 H2838 0.929 . S
C2836 C2835 1.363 . S
C2836 C2842 1.428 . S
H2837 C2833 0.930 . S
H2838 C2835 0.929 . S
S2839 N2840 1.613 1_655 S
S2839 N2841 1.610 . S
N2840 S2839 1.613 1_455 S
N2840 C2843 1.350 . S
N2841 S2839 1.610 . S
N2841 C2842 1.351 1_655 S
C2842 C2836 1.428 . S
C2842 N2841 1.351 1_455 S
C2842 C2843 1.434 . S
C2843 C2834 1.429 . S
C2843 N2840 1.350 . S
C2843 C2842 1.434 . S
C2844 C2845 1.369 . S
C2844 C2846 1.419 . S
C2844 H2848 0.930 . S
C2845 C2844 1.369 . S
C2845 C2854 1.429 . S
C2846 C2844 1.419 . S
C2846 C2847 1.363 . S
C2846 H2849 0.929 . S
C2847 C2846 1.363 . S
C2847 C2853 1.428 . S
H2848 C2844 0.930 . S
H2849 C2846 0.929 . S
S2850 N2851 1.613 . S
S2850 N2852 1.610 . S
N2851 S2850 1.613 . S
N2851 C2854 1.350 . S
N2852 S2850 1.610 . S
N2852 C2853 1.351 . S
C2853 C2847 1.428 . S
C2853 N2852 1.351 . S
C2853 C2854 1.434 . S
C2854 C2845 1.429 . S
C2854 N2851 1.350 . S
C2854 C2853 1.434 . S
C2855 C2856 1.369 . S
C2855 C2857 1.419 . S
C2855 H2859 0.930 . S
C2856 C2855 1.369 . S
C2856 C2865 1.429 . S
C2857 C2855 1.419 . S
C2857 C2858 1.363 . S
C2857 H2860 0.929 . S
C2858 C2857 1.363 . S
C2858 C2864 1.428 . S
H2859 C2855 0.930 . S
H2860 C2857 0.929 . S
S2861 N2862 1.613 . S
S2861 N2863 1.610 . S
N2862 S2861 1.613 . S
N2862 C2865 1.350 . S
N2863 S2861 1.610 . S
N2863 C2864 1.351 . S
C2864 C2858 1.428 . S
C2864 N2863 1.351 . S
C2864 C2865 1.434 . S
C2865 C2856 1.429 . S
C2865 N2862 1.350 . S
C2865 C2864 1.434 . S
C2866 C2867 1.369 . S
C2866 C2868 1.419 . S
C2866 H2870 0.930 1_545 S
C2867 C2866 1.369 . S
C2867 C2876 1.429 . S
C2868 C2866 1.419 . S
C2868 C2869 1.363 . S
C2868 H2871 0.929 . S
C2869 C2868 1.363 . S
C2869 C2875 1.428 . S
H2870 C2866 0.930 1_565 S
H2871 C2868 0.929 . S
S2872 N2873 1.613 . S
S2872 N2874 1.610 . S
N2873 S2872 1.613 . S
N2873 C2876 1.350 . S
N2874 S2872 1.610 . S
N2874 C2875 1.351 . S
C2875 C2869 1.428 . S
C2875 N2874 1.351 . S
C2875 C2876 1.434 . S
C2876 C2867 1.429 . S
C2876 N2873 1.350 . S
C2876 C2875 1.434 . S
C2877 C2878 1.369 . S
C2877 C2879 1.419 . S
C2877 H2881 0.930 . S
C2878 C2877 1.369 . S
C2878 C2887 1.429 . S
C2879 C2877 1.419 . S
C2879 C2880 1.363 . S
C2879 H2882 0.929 . S
C2880 C2879 1.363 . S
C2880 C2886 1.428 . S
H2881 C2877 0.930 . S
H2882 C2879 0.929 . S
S2883 N2884 1.613 . S
S2883 N2885 1.610 . S
N2884 S2883 1.613 . S
N2884 C2887 1.350 . S
N2885 S2883 1.610 . S
N2885 C2886 1.351 . S
C2886 C2880 1.428 . S
C2886 N2885 1.351 . S
C2886 C2887 1.434 . S
C2887 C2878 1.429 . S
C2887 N2884 1.350 . S
C2887 C2886 1.434 . S
C2888 C2889 1.369 . S
C2888 C2890 1.419 . S
C2888 H2892 0.930 . S
C2889 C2888 1.369 . S
C2889 C2898 1.429 . S
C2890 C2888 1.419 . S
C2890 C2891 1.363 . S
C2890 H2893 0.929 1_554 S
C2891 C2890 1.363 . S
C2891 C2897 1.428 . S
H2892 C2888 0.930 . S
H2893 C2890 0.929 1_556 S
S2894 N2895 1.613 . S
S2894 N2896 1.610 . S
N2895 S2894 1.613 . S
N2895 C2898 1.350 . S
N2896 S2894 1.610 . S
N2896 C2897 1.351 . S
C2897 C2891 1.428 . S
C2897 N2896 1.351 . S
C2897 C2898 1.434 . S
C2898 C2889 1.429 . S
C2898 N2895 1.350 . S
C2898 C2897 1.434 . S
C2899 C2900 1.369 . S
C2899 C2901 1.419 . S
C2899 H2903 0.930 . S
C2900 C2899 1.369 . S
C2900 C2909 1.429 . S
C2901 C2899 1.419 . S
C2901 C2902 1.363 . S
C2901 H2904 0.929 . S
C2902 C2901 1.363 . S
C2902 C2908 1.428 . S
H2903 C2899 0.930 . S
H2904 C2901 0.929 . S
S2905 N2906 1.613 . S
S2905 N2907 1.610 . S
N2906 S2905 1.613 . S
N2906 C2909 1.350 . S
N2907 S2905 1.610 . S
N2907 C2908 1.351 . S
C2908 C2902 1.428 . S
C2908 N2907 1.351 . S
C2908 C2909 1.434 . S
C2909 C2900 1.429 . S
C2909 N2906 1.350 . S
C2909 C2908 1.434 . S
C2910 C2911 1.369 . S
C2910 C2912 1.419 . S
C2910 H2914 0.930 . S
C2911 C2910 1.369 . S
C2911 C2920 1.429 . S
C2912 C2910 1.419 . S
C2912 C2913 1.363 . S
C2912 H2915 0.929 . S
C2913 C2912 1.363 . S
C2913 C2919 1.428 . S
H2914 C2910 0.930 . S
H2915 C2912 0.929 . S
S2916 N2917 1.613 . S
S2916 N2918 1.610 . S
N2917 S2916 1.613 . S
N2917 C2920 1.350 . S
N2918 S2916 1.610 . S
N2918 C2919 1.351 . S
C2919 C2913 1.428 . S
C2919 N2918 1.351 . S
C2919 C2920 1.434 . S
C2920 C2911 1.429 . S
C2920 N2917 1.350 . S
C2920 C2919 1.434 . S
C2921 C2922 1.369 . S
C2921 C2923 1.419 . S
C2921 H2925 0.930 . S
C2922 C2921 1.369 . S
C2922 C2931 1.429 . S
C2923 C2921 1.419 . S
C2923 C2924 1.363 . S
C2923 H2926 0.929 . S
C2924 C2923 1.363 . S
C2924 C2930 1.428 . S
H2925 C2921 0.930 . S
H2926 C2923 0.929 . S
S2927 N2928 1.613 . S
S2927 N2929 1.610 . S
N2928 S2927 1.613 . S
N2928 C2931 1.350 . S
N2929 S2927 1.610 . S
N2929 C2930 1.351 . S
C2930 C2924 1.428 . S
C2930 N2929 1.351 . S
C2930 C2931 1.434 . S
C2931 C2922 1.429 . S
C2931 N2928 1.350 . S
C2931 C2930 1.434 . S
C2932 C2933 1.369 . S
C2932 C2934 1.419 . S
C2932 H2936 0.930 . S
C2933 C2932 1.369 . S
C2933 C2942 1.429 . S
C2934 C2932 1.419 . S
C2934 C2935 1.363 . S
C2934 H2937 0.929 . S
C2935 C2934 1.363 . S
C2935 C2941 1.428 . S
H2936 C2932 0.930 . S
H2937 C2934 0.929 . S
S2938 N2939 1.613 . S
S2938 N2940 1.610 . S
N2939 S2938 1.613 . S
N2939 C2942 1.350 . S
N2940 S2938 1.610 . S
N2940 C2941 1.351 . S
C2941 C2935 1.428 . S
C2941 N2940 1.351 . S
C2941 C2942 1.434 . S
C2942 C2933 1.429 . S
C2942 N2939 1.350 . S
C2942 C2941 1.434 . S
C2943 C2944 1.369 . S
C2943 C2945 1.429 . S
C2943 H2947 0.930 . S
C2944 C2943 1.369 . S
C2944 C2953 1.429 . S
C2945 C2943 1.429 . S
C2945 C2946 1.374 . S
C2945 H2948 0.908 1_554 S
C2946 C2945 1.374 . S
C2946 C2952 1.428 . S
H2947 C2943 0.930 . S
H2948 C2945 0.908 1_556 S
S2949 N2950 1.613 . S
S2949 N2951 1.610 . S
N2950 S2949 1.613 . S
N2950 C2953 1.350 . S
N2951 S2949 1.610 . S
N2951 C2952 1.351 . S
C2952 C2946 1.428 . S
C2952 N2951 1.351 . S
C2952 C2953 1.434 . S
C2953 C2944 1.429 . S
C2953 N2950 1.350 . S
C2953 C2952 1.434 . S
C2954 C2955 1.369 . S
C2954 C2956 1.419 . S
C2954 H2958 0.930 . S
C2955 C2954 1.369 . S
C2955 C2964 1.429 . S
C2956 C2954 1.419 . S
C2956 C2957 1.363 . S
C2956 H2959 0.929 . S
C2957 C2956 1.363 . S
C2957 C2963 1.428 . S
H2958 C2954 0.930 . S
H2959 C2956 0.929 . S
S2960 N2961 1.613 . S
S2960 N2962 1.610 . S
N2961 S2960 1.613 . S
N2961 C2964 1.350 . S
N2962 S2960 1.610 . S
N2962 C2963 1.351 . S
C2963 C2957 1.428 . S
C2963 N2962 1.351 . S
C2963 C2964 1.434 . S
C2964 C2955 1.429 . S
C2964 N2961 1.350 . S
C2964 C2963 1.434 . S
C2965 C2966 1.369 . S
C2965 C2967 1.419 . S
C2965 H2969 0.930 . S
C2966 C2965 1.369 . S
C2966 C2975 1.429 . S
C2967 C2965 1.419 . S
C2967 C2968 1.363 . S
C2967 H2970 0.929 1_554 S
C2968 C2967 1.363 . S
C2968 C2974 1.428 . S
H2969 C2965 0.930 . S
H2970 C2967 0.929 1_556 S
S2971 N2972 1.613 . S
S2971 N2973 1.610 . S
N2972 S2971 1.613 . S
N2972 C2975 1.350 . S
N2973 S2971 1.610 . S
N2973 C2974 1.351 . S
C2974 C2968 1.428 . S
C2974 N2973 1.351 . S
C2974 C2975 1.434 . S
C2975 C2966 1.429 . S
C2975 N2972 1.350 . S
C2975 C2974 1.434 . S
C2976 C2977 1.369 . S
C2976 C2978 1.419 . S
C2976 H2980 0.930 . S
C2977 C2976 1.369 . S
C2977 C2986 1.429 . S
C2978 C2976 1.419 . S
C2978 C2979 1.363 . S
C2978 H2981 0.929 . S
C2979 C2978 1.363 . S
C2979 C2985 1.428 . S
H2980 C2976 0.930 . S
H2981 C2978 0.929 . S
S2982 N2983 1.613 . S
S2982 N2984 1.610 1_455 S
N2983 S2982 1.613 . S
N2983 C2986 1.350 1_455 S
N2984 S2982 1.610 1_655 S
N2984 C2985 1.351 . S
C2985 C2979 1.428 . S
C2985 N2984 1.351 . S
C2985 C2986 1.434 . S
C2986 C2977 1.429 . S
C2986 N2983 1.350 1_655 S
C2986 C2985 1.434 . S
C2987 C2988 1.369 . S
C2987 C2989 1.419 . S
C2987 H2991 0.930 . S
C2988 C2987 1.369 . S
C2988 C2997 1.429 . S
C2989 C2987 1.419 . S
C2989 C2990 1.363 . S
C2989 H2992 0.929 1_565 S
C2990 C2989 1.363 . S
C2990 C2996 1.428 . S
H2991 C2987 0.930 . S
H2992 C2989 0.929 1_545 S
S2993 N2994 1.613 . S
S2993 N2995 1.610 . S
N2994 S2993 1.613 . S
N2994 C2997 1.350 . S
N2995 S2993 1.610 . S
N2995 C2996 1.351 . S
C2996 C2990 1.428 . S
C2996 N2995 1.351 . S
C2996 C2997 1.434 . S
C2997 C2988 1.429 . S
C2997 N2994 1.350 . S
C2997 C2996 1.434 . S
C2998 C2999 1.369 . S
C2998 C3000 1.419 . S
C2998 H3002 0.930 . S
C2999 C2998 1.369 . S
C2999 C3008 1.429 . S
C3000 C2998 1.419 . S
C3000 C3001 1.363 . S
C3000 H3003 0.929 . S
C3001 C3000 1.363 . S
C3001 C3007 1.428 . S
H3002 C2998 0.930 . S
H3003 C3000 0.929 . S
S3004 N3005 1.613 . S
S3004 N3006 1.610 . S
N3005 S3004 1.613 . S
N3005 C3008 1.350 . S
N3006 S3004 1.610 . S
N3006 C3007 1.351 . S
C3007 C3001 1.428 . S
C3007 N3006 1.351 . S
C3007 C3008 1.434 . S
C3008 C2999 1.429 . S
C3008 N3005 1.350 . S
C3008 C3007 1.434 . S
C3009 C3010 1.369 . S
C3009 C3011 1.419 . S
C3009 H3013 0.930 . S
C3010 C3009 1.369 . S
C3010 C3019 1.429 . S
C3011 C3009 1.419 . S
C3011 C3012 1.363 . S
C3011 H3014 0.929 . S
C3012 C3011 1.363 . S
C3012 C3018 1.428 . S
H3013 C3009 0.930 . S
H3014 C3011 0.929 . S
S3015 N3016 1.613 . S
S3015 N3017 1.610 . S
N3016 S3015 1.613 . S
N3016 C3019 1.350 . S
N3017 S3015 1.610 . S
N3017 C3018 1.351 . S
C3018 C3012 1.428 . S
C3018 N3017 1.351 . S
C3018 C3019 1.434 . S
C3019 C3010 1.429 . S
C3019 N3016 1.350 . S
C3019 C3018 1.434 . S
C3020 C3021 1.369 . S
C3020 C3022 1.419 . S
C3020 H3024 0.930 . S
C3021 C3020 1.369 . S
C3021 C3030 1.429 . S
C3022 C3020 1.419 . S
C3022 C3023 1.363 . S
C3022 H3025 0.929 . S
C3023 C3022 1.363 . S
C3023 C3029 1.428 . S
H3024 C3020 0.930 . S
H3025 C3022 0.929 . S
S3026 N3027 1.613 1_455 S
S3026 N3028 1.610 . S
N3027 S3026 1.613 1_655 S
N3027 C3030 1.350 . S
N3028 S3026 1.610 . S
N3028 C3029 1.351 1_455 S
C3029 C3023 1.428 . S
C3029 N3028 1.351 1_655 S
C3029 C3030 1.434 . S
C3030 C3021 1.429 . S
C3030 N3027 1.350 . S
C3030 C3029 1.434 . S
C3031 C3032 1.369 . S
C3031 C3033 1.419 . S
C3031 H3035 0.930 . S
C3032 C3031 1.369 . S
C3032 C3041 1.429 . S
C3033 C3031 1.419 . S
C3033 C3034 1.363 . S
C3033 H3036 0.929 . S
C3034 C3033 1.363 . S
C3034 C3040 1.428 . S
H3035 C3031 0.930 . S
H3036 C3033 0.929 . S
S3037 N3038 1.613 . S
S3037 N3039 1.610 1_545 S
N3038 S3037 1.613 . S
N3038 C3041 1.350 1_545 S
N3039 S3037 1.610 1_565 S
N3039 C3040 1.351 . S
C3040 C3034 1.428 . S
C3040 N3039 1.351 . S
C3040 C3041 1.434 . S
C3041 C3032 1.429 . S
C3041 N3038 1.350 1_565 S
C3041 C3040 1.434 . S
C3042 C3043 1.369 . S
C3042 C3044 1.419 . S
C3042 H3046 0.930 . S
C3043 C3042 1.369 . S
C3043 C3052 1.429 . S
C3044 C3042 1.419 . S
C3044 C3045 1.363 . S
C3044 H3047 0.929 . S
C3045 C3044 1.363 . S
C3045 C3051 1.428 . S
H3046 C3042 0.930 . S
H3047 C3044 0.929 . S
S3048 N3049 1.613 . S
S3048 N3050 1.610 . S
N3049 S3048 1.613 . S
N3049 C3052 1.350 . S
N3050 S3048 1.610 . S
N3050 C3051 1.351 . S
C3051 C3045 1.428 . S
C3051 N3050 1.351 . S
C3051 C3052 1.434 . S
C3052 C3043 1.429 . S
C3052 N3049 1.350 . S
C3052 C3051 1.434 . S
C3053 C3054 1.369 . S
C3053 C3055 1.419 . S
C3053 H3057 0.930 . S
C3054 C3053 1.369 . S
C3054 C3063 1.429 . S
C3055 C3053 1.419 . S
C3055 C3056 1.363 . S
C3055 H3058 0.929 . S
C3056 C3055 1.363 . S
C3056 C3062 1.428 . S
H3057 C3053 0.930 . S
H3058 C3055 0.929 . S
S3059 N3060 1.613 . S
S3059 N3061 1.610 . S
N3060 S3059 1.613 . S
N3060 C3063 1.350 . S
N3061 S3059 1.610 . S
N3061 C3062 1.351 . S
C3062 C3056 1.428 . S
C3062 N3061 1.351 . S
C3062 C3063 1.434 . S
C3063 C3054 1.429 . S
C3063 N3060 1.350 . S
C3063 C3062 1.434 . S
C3064 C3065 1.369 . S
C3064 C3066 1.419 . S
C3064 H3068 0.930 . S
C3065 C3064 1.369 . S
C3065 C3074 1.429 . S
C3066 C3064 1.419 . S
C3066 C3067 1.363 . S
C3066 H3069 0.929 . S
C3067 C3066 1.363 . S
C3067 C3073 1.428 . S
H3068 C3064 0.930 . S
H3069 C3066 0.929 . S
S3070 N3071 1.613 . S
S3070 N3072 1.610 1_565 S
N3071 S3070 1.613 . S
N3071 C3074 1.350 . S
N3072 S3070 1.610 1_545 S
N3072 C3073 1.351 1_545 S
C3073 C3067 1.428 . S
C3073 N3072 1.351 1_565 S
C3073 C3074 1.434 . S
C3074 C3065 1.429 . S
C3074 N3071 1.350 . S
C3074 C3073 1.434 . S
C3075 C3076 1.369 . S
C3075 C3077 1.419 . S
C3075 H3079 0.930 . S
C3076 C3075 1.369 . S
C3076 C3085 1.429 . S
C3077 C3075 1.419 . S
C3077 C3078 1.363 . S
C3077 H3080 0.929 . S
C3078 C3077 1.363 . S
C3078 C3084 1.428 . S
H3079 C3075 0.930 . S
H3080 C3077 0.929 . S
S3081 N3082 1.613 . S
S3081 N3083 1.610 . S
N3082 S3081 1.613 . S
N3082 C3085 1.350 . S
N3083 S3081 1.610 . S
N3083 C3084 1.351 . S
C3084 C3078 1.428 . S
C3084 N3083 1.351 . S
C3084 C3085 1.434 . S
C3085 C3076 1.429 . S
C3085 N3082 1.350 . S
C3085 C3084 1.434 . S
C3086 C3087 1.369 . S
C3086 C3088 1.419 . S
C3086 H3090 0.930 . S
C3087 C3086 1.369 . S
C3087 C3096 1.429 . S
C3088 C3086 1.419 . S
C3088 C3089 1.363 . S
C3088 H3091 0.929 . S
C3089 C3088 1.363 . S
C3089 C3095 1.428 . S
H3090 C3086 0.930 . S
H3091 C3088 0.929 . S
S3092 N3093 1.613 . S
S3092 N3094 1.610 . S
N3093 S3092 1.613 . S
N3093 C3096 1.350 . S
N3094 S3092 1.610 . S
N3094 C3095 1.351 . S
C3095 C3089 1.428 . S
C3095 N3094 1.351 . S
C3095 C3096 1.434 . S
C3096 C3087 1.429 . S
C3096 N3093 1.350 . S
C3096 C3095 1.434 . S
C3097 C3098 1.369 . S
C3097 C3099 1.419 . S
C3097 H3101 0.930 . S
C3098 C3097 1.369 . S
C3098 C3107 1.429 . S
C3099 C3097 1.419 . S
C3099 C3100 1.363 . S
C3099 H3102 0.929 . S
C3100 C3099 1.363 . S
C3100 C3106 1.428 . S
H3101 C3097 0.930 . S
H3102 C3099 0.929 . S
S3103 N3104 1.613 . S
S3103 N3105 1.610 . S
N3104 S3103 1.613 . S
N3104 C3107 1.350 . S
N3105 S3103 1.610 . S
N3105 C3106 1.351 . S
C3106 C3100 1.428 . S
C3106 N3105 1.351 . S
C3106 C3107 1.434 . S
C3107 C3098 1.429 . S
C3107 N3104 1.350 . S
C3107 C3106 1.434 . S
C3108 C3109 1.369 . S
C3108 C3110 1.419 . S
C3108 H3112 0.930 . S
C3109 C3108 1.369 . S
C3109 C3118 1.429 . S
C3110 C3108 1.419 . S
C3110 C3111 1.363 . S
C3110 H3113 0.929 . S
C3111 C3110 1.363 . S
C3111 C3117 1.428 . S
H3112 C3108 0.930 . S
H3113 C3110 0.929 . S
S3114 N3115 1.613 . S
S3114 N3116 1.610 . S
N3115 S3114 1.613 . S
N3115 C3118 1.350 . S
N3116 S3114 1.610 . S
N3116 C3117 1.351 . S
C3117 C3111 1.428 . S
C3117 N3116 1.351 . S
C3117 C3118 1.434 . S
C3118 C3109 1.429 . S
C3118 N3115 1.350 . S
C3118 C3117 1.434 . S
C3119 C3120 1.369 . S
C3119 C3121 1.419 . S
C3119 H3123 0.930 . S
C3120 C3119 1.369 . S
C3120 C3129 1.429 . S
C3121 C3119 1.419 . S
C3121 C3122 1.363 . S
C3121 H3124 0.929 . S
C3122 C3121 1.363 . S
C3122 C3128 1.428 . S
H3123 C3119 0.930 . S
H3124 C3121 0.929 . S
S3125 N3126 1.613 . S
S3125 N3127 1.610 . S
N3126 S3125 1.613 . S
N3126 C3129 1.350 . S
N3127 S3125 1.610 . S
N3127 C3128 1.351 . S
C3128 C3122 1.428 . S
C3128 N3127 1.351 . S
C3128 C3129 1.434 . S
C3129 C3120 1.429 . S
C3129 N3126 1.350 . S
C3129 C3128 1.434 . S
C3130 C3131 1.369 . S
C3130 C3132 1.419 . S
C3130 H3134 0.930 . S
C3131 C3130 1.369 . S
C3131 C3140 1.429 . S
C3132 C3130 1.419 . S
C3132 C3133 1.363 . S
C3132 H3135 0.929 . S
C3133 C3132 1.363 . S
C3133 C3139 1.428 . S
H3134 C3130 0.930 . S
H3135 C3132 0.929 . S
S3136 N3137 1.613 . S
S3136 N3138 1.610 . S
N3137 S3136 1.613 . S
N3137 C3140 1.350 . S
N3138 S3136 1.610 . S
N3138 C3139 1.351 . S
C3139 C3133 1.428 . S
C3139 N3138 1.351 . S
C3139 C3140 1.434 . S
C3140 C3131 1.429 . S
C3140 N3137 1.350 . S
C3140 C3139 1.434 . S
C3141 C3142 1.369 . S
C3141 C3143 1.419 . S
C3141 H3145 0.930 . S
C3142 C3141 1.369 . S
C3142 C3151 1.429 . S
C3143 C3141 1.419 . S
C3143 C3144 1.363 . S
C3143 H3146 0.929 . S
C3144 C3143 1.363 . S
C3144 C3150 1.428 . S
H3145 C3141 0.930 . S
H3146 C3143 0.929 . S
S3147 N3148 1.613 . S
S3147 N3149 1.610 . S
N3148 S3147 1.613 . S
N3148 C3151 1.350 . S
N3149 S3147 1.610 . S
N3149 C3150 1.351 . S
C3150 C3144 1.428 . S
C3150 N3149 1.351 . S
C3150 C3151 1.434 . S
C3151 C3142 1.429 . S
C3151 N3148 1.350 . S
C3151 C3150 1.434 . S
C3152 C3153 1.369 . S
C3152 C3154 1.419 . S
C3152 H3156 0.930 . S
C3153 C3152 1.369 . S
C3153 C3162 1.429 . S
C3154 C3152 1.419 . S
C3154 C3155 1.363 . S
C3154 H3157 0.929 . S
C3155 C3154 1.363 . S
C3155 C3161 1.428 . S
H3156 C3152 0.930 . S
H3157 C3154 0.929 . S
S3158 N3159 1.613 . S
S3158 N3160 1.610 . S
N3159 S3158 1.613 . S
N3159 C3162 1.350 . S
N3160 S3158 1.610 . S
N3160 C3161 1.351 . S
C3161 C3155 1.428 . S
C3161 N3160 1.351 . S
C3161 C3162 1.434 . S
C3162 C3153 1.429 . S
C3162 N3159 1.350 . S
C3162 C3161 1.434 . S
C3163 C3164 1.369 . S
C3163 C3165 1.419 . S
C3163 H3167 0.930 . S
C3164 C3163 1.369 . S
C3164 C3173 1.429 . S
C3165 C3163 1.419 . S
C3165 C3166 1.363 . S
C3165 H3168 0.929 . S
C3166 C3165 1.363 . S
C3166 C3172 1.428 . S
H3167 C3163 0.930 . S
H3168 C3165 0.929 . S
S3169 N3170 1.613 . S
S3169 N3171 1.610 . S
N3170 S3169 1.613 . S
N3170 C3173 1.350 . S
N3171 S3169 1.610 . S
N3171 C3172 1.351 . S
C3172 C3166 1.428 . S
C3172 N3171 1.351 . S
C3172 C3173 1.434 . S
C3173 C3164 1.429 . S
C3173 N3170 1.350 . S
C3173 C3172 1.434 . S
C3174 C3175 1.369 . S
C3174 C3176 1.419 . S
C3174 H3178 0.930 . S
C3175 C3174 1.369 . S
C3175 C3184 1.429 . S
C3176 C3174 1.419 . S
C3176 C3177 1.363 . S
C3176 H3179 0.929 . S
C3177 C3176 1.363 . S
C3177 C3183 1.428 . S
H3178 C3174 0.930 . S
H3179 C3176 0.929 . S
S3180 N3181 1.613 . S
S3180 N3182 1.610 . S
N3181 S3180 1.613 . S
N3181 C3184 1.350 . S
N3182 S3180 1.610 . S
N3182 C3183 1.351 . S
C3183 C3177 1.428 . S
C3183 N3182 1.351 . S
C3183 C3184 1.434 . S
C3184 C3175 1.429 . S
C3184 N3181 1.350 . S
C3184 C3183 1.434 . S
C3185 C3186 1.369 . S
C3185 C3187 1.419 . S
C3185 H3189 0.930 . S
C3186 C3185 1.369 . S
C3186 C3195 1.429 . S
C3187 C3185 1.419 . S
C3187 C3188 1.363 . S
C3187 H3190 0.929 . S
C3188 C3187 1.363 . S
C3188 C3194 1.428 . S
H3189 C3185 0.930 . S
H3190 C3187 0.929 . S
S3191 N3192 1.613 . S
S3191 N3193 1.610 . S
N3192 S3191 1.613 . S
N3192 C3195 1.350 . S
N3193 S3191 1.610 . S
N3193 C3194 1.351 . S
C3194 C3188 1.428 . S
C3194 N3193 1.351 . S
C3194 C3195 1.434 . S
C3195 C3186 1.429 . S
C3195 N3192 1.350 . S
C3195 C3194 1.434 . S
C3196 C3197 1.369 . S
C3196 C3198 1.419 . S
C3196 H3200 0.930 . S
C3197 C3196 1.369 . S
C3197 C3206 1.429 . S
C3198 C3196 1.419 . S
C3198 C3199 1.363 . S
C3198 H3201 0.929 . S
C3199 C3198 1.363 . S
C3199 C3205 1.428 . S
H3200 C3196 0.930 . S
H3201 C3198 0.929 . S
S3202 N3203 1.613 . S
S3202 N3204 1.610 . S
N3203 S3202 1.613 . S
N3203 C3206 1.350 . S
N3204 S3202 1.610 . S
N3204 C3205 1.351 . S
C3205 C3199 1.428 . S
C3205 N3204 1.351 . S
C3205 C3206 1.434 . S
C3206 C3197 1.429 . S
C3206 N3203 1.350 . S
C3206 C3205 1.434 . S
C3207 C3208 1.384 . S
C3207 C3209 1.433 . S
C3207 H3211 0.901 1_556 S
C3208 C3207 1.384 . S
C3208 C3217 1.429 . S
C3209 C3207 1.433 . S
C3209 C3210 1.363 . S
C3209 H3212 0.929 . S
C3210 C3209 1.363 . S
C3210 C3216 1.428 . S
H3211 C3207 0.901 1_554 S
H3212 C3209 0.929 . S
S3213 N3214 1.613 . S
S3213 N3215 1.610 . S
N3214 S3213 1.613 . S
N3214 C3217 1.350 . S
N3215 S3213 1.610 . S
N3215 C3216 1.351 . S
C3216 C3210 1.428 . S
C3216 N3215 1.351 . S
C3216 C3217 1.434 . S
C3217 C3208 1.429 . S
C3217 N3214 1.350 . S
C3217 C3216 1.434 . S
C3218 C3219 1.369 . S
C3218 C3220 1.419 . S
C3218 H3222 0.930 . S
C3219 C3218 1.369 . S
C3219 C3228 1.429 . S
C3220 C3218 1.419 . S
C3220 C3221 1.363 . S
C3220 H3223 0.904 1_556 S
C3221 C3220 1.363 . S
C3221 C3227 1.428 . S
H3222 C3218 0.930 . S
H3223 C3220 0.904 1_554 S
S3224 N3225 1.613 . S
S3224 N3226 1.610 . S
N3225 S3224 1.613 . S
N3225 C3228 1.350 . S
N3226 S3224 1.610 . S
N3226 C3227 1.351 . S
C3227 C3221 1.428 . S
C3227 N3226 1.351 . S
C3227 C3228 1.434 . S
C3228 C3219 1.429 . S
C3228 N3225 1.350 . S
C3228 C3227 1.434 . S
C3229 C3230 1.369 . S
C3229 C3231 1.419 . S
C3229 H3233 0.930 . S
C3230 C3229 1.369 . S
C3230 C3239 1.429 . S
C3231 C3229 1.419 . S
C3231 C3232 1.363 . S
C3231 H3234 0.929 . S
C3232 C3231 1.363 . S
C3232 C3238 1.428 . S
H3233 C3229 0.930 . S
H3234 C3231 0.929 . S
S3235 N3236 1.613 . S
S3235 N3237 1.610 . S
N3236 S3235 1.613 . S
N3236 C3239 1.350 . S
N3237 S3235 1.610 . S
N3237 C3238 1.351 . S
C3238 C3232 1.428 . S
C3238 N3237 1.351 . S
C3238 C3239 1.434 . S
C3239 C3230 1.429 . S
C3239 N3236 1.350 . S
C3239 C3238 1.434 . S
C1393 C5 2.918 . S
C1395 C643 2.913 . S
C1404 C469 2.912 . S
C1406 C34 2.916 . S
C1415 C63 2.916 . S
C1417 C672 2.913 . S
C1426 C92 2.915 . S
C1428 C614 2.919 . S
C1437 C121 2.919 . S
C1439 C527 2.917 . S
C1448 C556 2.919 . S
C1450 C150 2.913 . S
C1459 C585 2.919 . S
C1461 C179 2.916 . S
C1470 C498 2.920 . S
C1472 C208 2.915 . S
C1481 C237 2.912 . S
C1483 C382 2.917 . S
C1492 C266 2.915 . S
C1494 C411 2.919 . S
C1503 C295 2.920 . S
C1505 C440 2.914 . S
C1514 C353 2.920 . S
C1516 C324 2.914 . S
C1525 C701 2.917 . S
C1527 C1339 2.919 . S
C1536 C730 2.913 . S
C1538 C1165 2.919 . S
C1547 C759 2.918 . S
C1549 C1368 2.913 . S
C1558 C788 2.913 . S
C1560 C1310 2.919 . S
C1569 C1223 2.917 . S
C1571 C817 2.913 . S
C1580 C1252 2.920 . S
C1582 C846 2.913 . S
C1591 C1281 2.919 . S
C1593 C875 2.913 . S
C1602 C904 2.918 . S
C1604 C1194 2.913 . S
C1613 C1078 2.918 . S
C1615 C933 2.913 . S
C1624 C962 2.916 . S
C1626 C1107 2.913 . S
C1635 C1136 2.915 . S
C1637 C991 2.913 . S
C1646 C1020 2.919 . S
C1648 C1049 2.913 . S
C1657 C21 1.806 . S
C1659 C1315 1.880 . S
C1668 C50 1.806 . S
C1670 C1344 1.880 . S
C1679 C1170 1.881 . S
C1681 C79 1.808 . S
C1690 C108 1.814 . S
C1692 C1373 1.883 . S
C1701 C1257 1.880 . S
C1703 C137 1.810 . S
C1712 C166 1.808 . S
C1714 C1286 1.880 . S
C1723 C195 1.813 . S
C1725 C1199 1.881 . S
C1734 C224 1.814 . S
C1736 C1228 1.883 . S
C1745 C822 1.881 . S
C1747 C253 1.813 . S
C1756 C851 1.883 . S
C1758 C282 1.813 . S
C1767 C311 1.806 . S
C1769 C880 1.881 . S
C1778 C909 1.881 . S
C1780 C340 1.808 . S
C1789 C369 1.814 . S
C1791 C706 1.883 . S
C1800 C735 1.883 . S
C1802 C398 1.811 . S
C1811 C427 1.809 . S
C1813 C764 1.880 . S
C1822 C793 1.879 . S
C1824 C456 1.807 . S
C1833 C1112 1.880 . S
C1835 C485 1.810 . S
C1844 C514 1.809 . S
C1846 C996 1.882 . S
C1855 C543 1.807 . S
C1857 C1025 1.881 . S
C1866 C572 1.811 . S
C1868 C938 1.881 . S
C1877 C601 1.807 . S
C1879 C967 1.881 . S
C1888 C1054 1.883 . S
C1890 C630 1.813 . S
C1899 C659 1.810 . S
C1901 C1083 1.880 . S
C1910 C1141 1.880 . S
C1912 C688 1.807 . S
C1921 C619 1.880 . S
C1923 C717 1.809 . S
C1932 C648 1.881 . S
C1934 C746 1.811 . S
C1943 C474 1.880 . S
C1945 C775 1.811 . S
C1954 C804 1.807 . S
C1956 C677 1.880 . S
C1965 C833 1.813 . S
C1967 C561 1.882 . S
C1976 C590 1.882 . S
C1978 C862 1.813 . S
C1987 C891 1.806 . S
C1989 C503 1.880 . S
C1998 C532 1.883 . S
C2000 C920 1.814 . S
C2009 C949 1.812 . S
C2011 C126 1.882 . S
C2020 C155 1.882 . S
C2022 C978 1.813 . S
C2031 C1007 1.808 . S
C2033 C184 1.881 . S
C2042 C1036 1.809 . S
C2044 C213 1.880 . S
C2053 C10 1.879 . S
C2055 C1065 1.807 . S
C2064 C1094 1.806 . S
C2066 C39 1.880 . S
C2075 C68 1.883 . S
C2077 C1123 1.812 . S
C2086 C1152 1.809 . S
C2088 C97 1.880 . S
C2097 C1181 1.810 . S
C2099 C416 1.882 . S
C2108 C300 1.882 . S
C2110 C1210 1.813 . S
C2119 C1239 1.815 . S
C2121 C329 1.883 . S
C2130 C242 1.879 . S
C2132 C1268 1.808 . S
C2141 C1297 1.812 . S
C2143 C271 1.882 . S
C2152 C358 1.880 . S
C2154 C1326 1.810 . S
C2163 C387 1.879 . S
C2165 C1355 1.808 . S
C2174 C445 1.880 . S
C2176 C1384 1.807 . S
C2185 C3 1.674 . S
C2187 C680 1.420 . S
C2196 C622 1.413 . S
C2198 C32 1.675 . S
C2207 C651 1.412 . S
C2209 C61 1.675 . S
C2218 C477 1.420 . S
C2220 C90 1.676 . S
C2229 C119 1.675 . S
C2231 C593 1.425 . S
C2240 C148 1.675 . S
C2242 C506 1.427 . S
C2251 C177 1.676 . S
C2253 C535 1.422 . S
C2262 C564 1.422 . S
C2264 C206 1.674 . S
C2273 C332 1.422 . S
C2275 C235 1.676 . S
C2284 C245 1.429 . S
C2286 C264 1.676 . S
C2295 C293 1.676 . S
C2297 C274 1.426 . S
C2306 C303 1.427 . S
C2308 C322 1.675 . S
C2317 C351 1.675 . S
C2319 C390 1.414 . S
C2328 C380 1.675 . S
C2330 C419 1.427 . S
C2339 C409 1.674 . S
C2341 C448 1.424 . S
C2350 C438 1.674 . S
C2352 C361 1.424 . S
C2361 C467 1.674 . S
C2363 C158 1.415 . S
C2372 C100 1.412 . S
C2374 C496 1.675 . S
C2383 C13 1.419 . S
C2385 C525 1.674 . S
C2394 C554 1.675 . S
C2396 C42 1.427 . S
C2405 C71 1.419 . S
C2407 C583 1.674 . S
C2416 C216 1.417 . S
C2418 C612 1.676 . S
C2427 C641 1.674 . S
C2429 C129 1.415 . S
C2438 C187 1.415 . S
C2440 C670 1.674 . S
C2449 C699 1.674 . S
C2451 C1376 1.415 . S
C2460 C728 1.676 . S
C2462 C1318 1.427 . S
C2471 C1347 1.428 . S
C2473 C757 1.675 . S
C2482 C1173 1.428 . S
C2484 C786 1.675 . S
C2493 C815 1.675 . S
C2495 C1289 1.427 . S
C2504 C1202 1.416 . S
C2506 C844 1.676 . S
C2515 C873 1.675 . S
C2517 C1231 1.425 . S
C2526 C1260 1.412 . S
C2528 C902 1.675 . S
C2537 C931 1.676 . S
C2539 C1028 1.426 . S
C2548 C941 1.424 . S
C2550 C960 1.675 . S
C2559 C989 1.676 . S
C2561 C970 1.427 . S
C2570 C999 1.419 . S
C2572 C1018 1.674 . S
C2581 C1047 1.675 . S
C2583 C1086 1.414 . S
C2592 C1115 1.422 . S
C2594 C1076 1.676 . S
C2603 C1144 1.425 . S
C2605 C1105 1.676 . S
C2614 C1057 1.426 . S
C2616 C1134 1.676 . S
C2625 C854 1.416 . S
C2627 C1163 1.674 . S
C2636 C796 1.414 . S
C2638 C1192 1.675 . S
C2647 C709 1.414 . S
C2649 C1221 1.675 . S
C2658 C738 1.413 . S
C2660 C1250 1.674 . S
C2669 C767 1.424 . S
C2671 C1279 1.675 . S
C2680 C1308 1.675 . S
C2682 C912 1.415 . S
C2691 C1337 1.674 . S
C2693 C825 1.415 . S
C2702 C883 1.424 . S
C2704 C1366 1.675 . S
C2713 C1023 1.005 1_455 S
C2715 C15 1.081 . S
C2724 C936 1.003 1_545 S
C2726 C44 1.082 . S
C2735 C965 1.005 . S
C2737 C73 1.081 . S
C2746 C102 1.090 . S
C2748 C994 0.986 . S
C2757 C131 1.083 . S
C2759 C1081 0.997 1_455 S
C2768 C160 1.080 . S
C2770 C1110 1.002 1_545 S
C2779 C189 1.087 . S
C2781 C1139 0.990 . S
C2790 C1052 0.989 . S
C2792 C218 1.087 . S
C2801 C849 0.995 1_545 S
C2803 C247 1.084 . S
C2812 C276 1.082 . S
C2814 C878 1.000 . S
C2823 C907 0.983 . S
C2825 C305 1.089 . S
C2834 C334 1.085 . S
C2836 C820 0.993 1_455 S
C2845 C363 1.081 . S
C2847 C791 1.000 . S
C2856 C392 1.081 . S
C2858 C704 1.000 1_455 S
C2867 C733 1.005 1_545 S
C2869 C421 1.081 . S
C2878 C762 0.983 . S
C2880 C450 1.089 . S
C2889 C479 1.080 . S
C2891 C1371 1.002 1_554 S
C2900 C1284 0.997 . S
C2902 C508 1.084 . S
C2911 C537 1.085 . S
C2913 C1197 0.994 . S
C2922 C1226 0.993 . S
C2924 C566 1.085 . S
C2933 C1255 0.986 . S
C2935 C595 1.088 . S
C2944 C624 1.081 . S
C2946 C1342 1.001 1_554 S
C2955 C1168 0.999 1_554 S
C2957 C653 1.083 . S
C2966 C682 1.082 . S
C2968 C1313 0.999 1_554 S
C2977 C327 0.994 1_655 S
C2979 C711 1.085 . S
C2988 C740 1.080 . S
C2990 C240 1.002 1_565 S
C2999 C769 1.085 . S
C3001 C269 0.994 . S
C3010 C298 1.005 . S
C3012 C798 1.081 . S
C3021 C827 1.089 . S
C3023 C385 0.987 1_655 S
C3032 C414 0.983 1_565 S
C3034 C856 1.089 . S
C3043 C443 0.990 . S
C3045 C885 1.087 . S
C3054 C356 1.005 . S
C3056 C914 1.081 . S
C3065 C943 1.087 . S
C3067 C153 0.990 1_565 S
C3076 C182 1.003 . S
C3078 C972 1.082 . S
C3087 C211 0.984 . S
C3089 C1001 1.089 . S
C3098 C124 0.986 1_655 S
C3100 C1030 1.088 . S
C3109 C95 0.996 . S
C3111 C1059 1.085 . S
C3120 C8 1.003 1_655 S
C3122 C1088 1.082 . S
C3131 C37 1.004 1_565 S
C3133 C1117 1.082 . S
C3142 C1146 1.079 . S
C3144 C66 1.003 . S
C3153 C675 1.005 1_556 S
C3155 C1175 1.081 . S
C3164 C1204 1.080 . S
C3166 C588 1.001 . S
C3175 C1233 1.080 . S
C3177 C501 1.002 . S
C3186 C1262 1.081 . S
C3188 C530 0.999 . S
C3197 C1291 1.085 . S
C3199 C559 0.996 . S
C3208 C646 1.003 1_556 S
C3210 C1320 1.081 . S
C3219 C1349 1.082 . S
C3221 C472 0.999 1_556 S
C3230 C1378 1.086 . S
C3232 C617 0.992 1_556 S
