# Generated by pormake.
# Topology vcn, (7)-cn, num edge types: 1
# Building blocks:
#     Node 0, Type 0, BuildingBlock: HICVOG_clean_sbu_0, # of connection points: 7
#     Node 1, Type 0, BuildingBlock: HICVOG_clean_sbu_0, # of connection points: 7
#     Node 2, Type 0, BuildingBlock: HICVOG_clean_sbu_0, # of connection points: 7
#     Node 3, Type 0, BuildingBlock: HICVOG_clean_sbu_0, # of connection points: 7
#     Node 4, Type 0, BuildingBlock: HICVOG_clean_sbu_0, # of connection points: 7
#     Node 5, Type 0, BuildingBlock: HICVOG_clean_sbu_0, # of connection points: 7
#     Node 6, Type 0, BuildingBlock: HICVOG_clean_sbu_0, # of connection points: 7
#     Node 7, Type 0, BuildingBlock: HICVOG_clean_sbu_0, # of connection points: 7
#     Edge 8, Type (0, 0), BuildingBlock: CIFDUS_clean_linker_0, # of connection points: 2
#     Edge 9, Type (0, 0), BuildingBlock: CIFDUS_clean_linker_0, # of connection points: 2
#     Edge 10, Type (0, 0), BuildingBlock: CIFDUS_clean_linker_0, # of connection points: 2
#     Edge 11, Type (0, 0), BuildingBlock: CIFDUS_clean_linker_0, # of connection points: 2
#     Edge 12, Type (0, 0), BuildingBlock: CIFDUS_clean_linker_0, # of connection points: 2
#     Edge 13, Type (0, 0), BuildingBlock: CIFDUS_clean_linker_0, # of connection points: 2
#     Edge 14, Type (0, 0), BuildingBlock: CIFDUS_clean_linker_0, # of connection points: 2
#     Edge 15, Type (0, 0), BuildingBlock: CIFDUS_clean_linker_0, # of connection points: 2
#     Edge 16, Type (0, 0), BuildingBlock: CIFDUS_clean_linker_0, # of connection points: 2
#     Edge 17, Type (0, 0), BuildingBlock: CIFDUS_clean_linker_0, # of connection points: 2
#     Edge 18, Type (0, 0), BuildingBlock: CIFDUS_clean_linker_0, # of connection points: 2
#     Edge 19, Type (0, 0), BuildingBlock: CIFDUS_clean_linker_0, # of connection points: 2
#     Edge 20, Type (0, 0), BuildingBlock: CIFDUS_clean_linker_0, # of connection points: 2
#     Edge 21, Type (0, 0), BuildingBlock: CIFDUS_clean_linker_0, # of connection points: 2
#     Edge 22, Type (0, 0), BuildingBlock: CIFDUS_clean_linker_0, # of connection points: 2
#     Edge 23, Type (0, 0), BuildingBlock: CIFDUS_clean_linker_0, # of connection points: 2
#     Edge 24, Type (0, 0), BuildingBlock: CIFDUS_clean_linker_0, # of connection points: 2
#     Edge 25, Type (0, 0), BuildingBlock: CIFDUS_clean_linker_0, # of connection points: 2
#     Edge 26, Type (0, 0), BuildingBlock: CIFDUS_clean_linker_0, # of connection points: 2
#     Edge 27, Type (0, 0), BuildingBlock: CIFDUS_clean_linker_0, # of connection points: 2
#     Edge 28, Type (0, 0), BuildingBlock: CIFDUS_clean_linker_0, # of connection points: 2
#     Edge 29, Type (0, 0), BuildingBlock: CIFDUS_clean_linker_0, # of connection points: 2
#     Edge 30, Type (0, 0), BuildingBlock: CIFDUS_clean_linker_0, # of connection points: 2
#     Edge 31, Type (0, 0), BuildingBlock: CIFDUS_clean_linker_0, # of connection points: 2
#     Edge 32, Type (0, 0), BuildingBlock: CIFDUS_clean_linker_0, # of connection points: 2
#     Edge 33, Type (0, 0), BuildingBlock: CIFDUS_clean_linker_0, # of connection points: 2
#     Edge 34, Type (0, 0), BuildingBlock: CIFDUS_clean_linker_0, # of connection points: 2
#     Edge 35, Type (0, 0), BuildingBlock: CIFDUS_clean_linker_0, # of connection points: 2
# Relax obj value: 0.241
# Max RMSD: 0.224
# Mean RMSD: 0.224
data_MOF--net-vcn--node1-HICVOG_clean_sbu_0--edge1-CIFDUS_clean_linker_0
_symmetry_space_group_name_H-M    P1
_symmetry_Int_Tables_number       1
_symmetry_cell_setting            triclinic
loop_
_symmetry_equiv_pos_as_xyz
'x, y, z'
_cell_length_a     36.558931
_cell_length_b     56.272962
_cell_length_c     12.614635
_cell_angle_alpha  89.925333
_cell_angle_beta   90.3172
_cell_angle_gamma 90.030263
loop_
_atom_site_label
_atom_site_type_symbol
_atom_site_fract_x
_atom_site_fract_y
_atom_site_fract_z
_atom_type_partial_charge
Zn0 Zn 0.11546 0.38532 0.15029 0.0
C1 C 0.09342 0.32773 0.02859 0.0
N2 N 0.1041 0.33947 0.94148 0.0
C3 C 0.09779 0.3623 0.96553 0.0
N4 N 0.08513 0.36449 0.06515 0.0
N5 N 0.08032 0.34276 0.10304 0.0
C6 C 0.05459 0.30031 0.38713 0.0
O7 O 0.03389 0.31513 0.44029 0.0
O8 O 0.11499 0.41896 0.09346 0.0
Zn9 Zn 0.04874 0.33683 0.22513 0.0
N10 N 0.16531 0.37233 0.15529 0.0
C11 C 0.20105 0.337 0.16762 0.0
C12 C 0.16732 0.34832 0.16708 0.0
C13 C 0.19648 0.38577 0.15292 0.0
N14 N 0.2319 0.35022 0.16314 0.0
C15 C 0.23079 0.37433 0.15734 0.0
O16 O 0.05571 0.36095 0.34658 0.0
C17 C 0.07721 0.37824 0.36801 0.0
O18 O 0.09908 0.38668 0.29976 0.0
H19 H 0.14301 0.33792 0.17841 0.0
H20 H 0.19461 0.40494 0.14914 0.0
C21 C 0.9665 0.33635 0.22951 0.0
C22 C 0.93186 0.33505 0.17813 0.0
C23 C 0.9619 0.33265 1.01204 0.0
C24 C 0.99561 0.33408 0.06247 0.0
N25 N 0.99775 0.33572 0.17006 0.0
N26 N 0.93109 0.33318 0.07061 0.0
H27 H 0.96869 0.33758 0.31485 0.0
C28 C 0.08478 0.42817 0.06448 0.0
O29 O 0.05497 0.41514 0.06721 0.0
O30 O 0.06337 0.30539 0.29222 0.0
H31 H 0.01991 0.33361 1.01487 0.0
H32 H 0.20276 0.31787 0.1748 0.0
H33 H 0.96017 0.33119 0.92665 0.0
Zn34 Zn 0.54206 0.61937 0.62074 0.0
C35 C 0.58795 0.67468 0.48502 0.0
N36 N 0.58009 0.6634 0.39427 0.0
C37 C 0.57184 0.64136 0.42696 0.0
N38 N 0.57347 0.63931 0.53399 0.0
N39 N 0.5847 0.66024 0.56968 0.0
C40 C 0.57113 0.705 0.76138 0.0
O41 O 0.54514 0.69155 0.72133 0.0
O42 O 0.53917 0.58608 0.56361 0.0
Zn43 Zn 0.61373 0.66487 0.69685 0.0
N44 N 0.49304 0.63272 0.61071 0.0
C45 C 0.45213 0.66028 0.52934 0.0
C46 C 0.48735 0.65163 0.54524 0.0
C47 C 0.46472 0.62266 0.66436 0.0
N48 N 0.4239 0.65007 0.58145 0.0
C49 C 0.42911 0.63156 0.64936 0.0
O50 O 0.60204 0.64168 0.81397 0.0
C51 C 0.58045 0.62503 0.84139 0.0
O52 O 0.55653 0.61648 0.77802 0.0
H53 H 0.50971 0.65988 0.5041 0.0
H54 H 0.46986 0.60775 0.71668 0.0
C55 C 0.6948 0.66891 0.70844 0.0
C56 C 0.73035 0.66472 0.66824 0.0
C57 C 0.70404 0.64458 0.52112 0.0
C58 C 0.66936 0.64821 0.56212 0.0
N59 N 0.66502 0.66061 0.65382 0.0
N60 N 0.73351 0.65279 0.57497 0.0
H61 H 0.69073 0.67857 0.78147 0.0
C62 C 0.56685 0.57306 0.54611 0.0
O63 O 0.5998 0.58194 0.5595 0.0
O64 O 0.6041 0.69775 0.75844 0.0
H65 H 0.6461 0.64103 0.52041 0.0
H66 H 0.44725 0.67509 0.47633 0.0
H67 H 0.70761 0.63497 0.44769 0.0
Zn68 Zn 0.05085 0.66218 0.84936 0.0
C69 C 0.09151 0.63847 0.1206 0.0
N70 N 0.08289 0.66043 0.15324 0.0
C71 C 0.07541 0.6718 0.06234 0.0
N72 N 0.07928 0.65749 0.97762 0.0
N73 N 0.09053 0.63655 1.01346 0.0
C74 C 0.09764 0.56828 0.96192 0.0
O75 O 0.07012 0.57582 0.9035 0.0
O76 O 0.05999 0.69519 0.78754 0.0
Zn77 Zn 0.12192 0.61627 0.92816 0.0
N78 N 0.99952 0.65747 0.89051 0.0
C79 C 0.96036 0.63948 0.01795 0.0
C80 C 0.99508 0.64361 0.97803 0.0
C81 C 0.96986 0.66683 0.83889 0.0
N82 N 0.93098 0.64873 0.96705 0.0
C83 C 0.93427 0.66218 0.87784 0.0
O84 O 0.1081 0.61353 0.77021 0.0
C85 C 0.08451 0.62228 0.70632 0.0
O86 O 0.06312 0.63904 0.73324 0.0
H87 H 0.0183 0.63569 0.0172 0.0
H88 H 0.97405 0.67769 0.76924 0.0
C89 C 0.1996 0.61976 0.88488 0.0
C90 C 0.23511 0.62886 0.9003 0.0
C91 C 0.2118 0.65682 0.02293 0.0
C92 C 0.1767 0.64805 1.00632 0.0
N93 N 0.1712 0.62935 0.93968 0.0
N94 N 0.24011 0.64705 0.96979 0.0
H95 H 0.19463 0.60515 0.83095 0.0
C96 C 0.09259 0.70317 0.78638 0.0
O97 O 0.11893 0.69037 0.82872 0.0
O98 O 0.12289 0.58284 0.98679 0.0
H99 H 0.15427 0.6561 0.04775 0.0
H100 H 0.95668 0.6287 0.08816 0.0
H101 H 0.21651 0.67143 0.07701 0.0
Zn102 Zn 0.60596 0.34603 0.28723 0.0
C103 C 0.56981 0.3659 0.56705 0.0
N104 N 0.58063 0.34407 0.59603 0.0
C105 C 0.58684 0.33345 0.50276 0.0
N106 N 0.58 0.34815 0.42038 0.0
N107 N 0.56805 0.36842 0.46078 0.0
C108 C 0.57135 0.43451 0.40782 0.0
O109 O 0.59558 0.42323 0.35026 0.0
O110 O 0.60289 0.31237 0.23043 0.0
Zn111 Zn 0.53455 0.38988 0.38766 0.0
N112 N 0.65616 0.35662 0.31742 0.0
C113 C 0.69013 0.38652 0.40803 0.0
C114 C 0.65694 0.37691 0.37563 0.0
C115 C 0.68789 0.34543 0.28967 0.0
N116 N 0.72162 0.37558 0.38027 0.0
C117 C 0.72199 0.35528 0.32162 0.0
O118 O 0.53886 0.38998 0.22806 0.0
C119 C 0.55877 0.38175 0.15439 0.0
O120 O 0.5839 0.36653 0.17145 0.0
H121 H 0.63176 0.38546 0.39777 0.0
H122 H 0.68638 0.32907 0.24506 0.0
C123 C 0.45468 0.39179 0.38072 0.0
C124 C 0.41936 0.38425 0.40977 0.0
C125 C 0.44545 0.35353 0.5143 0.0
C126 C 0.48024 0.36069 0.48397 0.0
N127 N 0.48448 0.38009 0.42059 0.0
N128 N 0.41592 0.36544 0.47673 0.0
H129 H 0.45842 0.40671 0.32766 0.0
C130 C 0.57083 0.30353 0.22724 0.0
O131 O 0.54333 0.31604 0.26386 0.0
O132 O 0.54254 0.42363 0.43639 0.0
H133 H 0.50358 0.35071 0.51121 0.0
H134 H 0.69093 0.40261 0.45481 0.0
H135 H 0.44187 0.3384 0.5662 0.0
Zn136 Zn 0.62622 0.88809 0.09662 0.0
C137 C 0.56466 0.83528 0.9825 0.0
N138 N 0.56985 0.84614 0.88905 0.0
C139 C 0.58522 0.86685 0.91705 0.0
N140 N 0.59007 0.86854 0.02302 0.0
N141 N 0.57574 0.84902 0.06457 0.0
C142 C 0.56743 0.80898 0.3174 0.0
O143 O 0.59623 0.82201 0.3403 0.0
O144 O 0.62377 0.92213 0.04582 0.0
Zn145 Zn 0.54688 0.85021 0.19412 0.0
N146 N 0.67507 0.87521 0.06787 0.0
C147 C 0.71119 0.84814 0.96801 0.0
C148 C 0.67727 0.85732 0.99577 0.0
C149 C 0.70581 0.88343 0.11801 0.0
N150 N 0.74173 0.85658 1.01613 0.0
C151 C 0.74025 0.87383 0.09148 0.0
O152 O 0.56966 0.87043 0.31023 0.0
C153 C 0.59772 0.88328 0.3283 0.0
O154 O 0.62023 0.889 0.25595 0.0
H155 H 0.65293 0.8501 0.95972 0.0
H156 H 0.70349 0.8973 0.17695 0.0
C157 C 0.4662 0.85553 0.21118 0.0
C158 C 0.43167 0.86345 0.17349 0.0
C159 C 0.4615 0.88331 0.03187 0.0
C160 C 0.49529 0.87562 0.0696 0.0
N161 N 0.49728 0.86166 0.15749 0.0
N162 N 0.43069 0.87705 0.0842 0.0
H163 H 0.46829 0.84431 0.28069 0.0
C164 C 0.59325 0.93254 0.03227 0.0
O165 O 0.56283 0.92064 0.04782 0.0
O166 O 0.54302 0.81726 0.25517 0.0
H167 H 0.51978 0.88059 0.028 0.0
H168 H 0.71322 0.83418 0.90945 0.0
H169 H 0.45973 0.89422 0.96135 0.0
Zn170 Zn 0.05105 0.1173 0.62664 0.0
C171 C 0.11088 0.16904 0.49537 0.0
N172 N 0.10238 0.15835 0.40363 0.0
C173 C 0.08671 0.13799 0.43503 0.0
N174 N 0.085 0.13632 0.54208 0.0
N175 N 0.10129 0.15565 0.57959 0.0
C176 C 0.11414 0.19562 0.83008 0.0
O177 O 0.08627 0.18201 0.85501 0.0
O178 O 0.04959 0.08346 0.57238 0.0
Zn179 Zn 0.13366 0.15511 0.70168 0.0
N180 N 1.00263 0.13184 0.61004 0.0
C181 C 0.96803 0.16335 0.53259 0.0
C182 C 1.00145 0.15266 0.55501 0.0
C183 C 0.97127 0.12184 0.6482 0.0
N184 N 0.93688 0.15319 0.56837 0.0
C185 C 0.93736 0.1328 0.62642 0.0
O186 O 0.11605 0.13371 0.81924 0.0
C187 C 0.08985 0.12027 0.848 0.0
O188 O 0.06366 0.11466 0.78552 0.0
H189 H 0.02619 0.16091 0.52695 0.0
H190 H 0.97266 0.10548 0.69331 0.0
C191 C 0.21508 0.15249 0.68606 0.0
C192 C 0.24731 0.14461 0.63532 0.0
C193 C 0.21123 0.12063 0.52067 0.0
C194 C 0.17966 0.12835 0.57072 0.0
N195 N 0.1818 0.14436 0.65117 0.0
N196 N 0.2441 0.12897 0.55362 0.0
H197 H 0.2164 0.16524 0.75014 0.0
C198 C 0.07916 0.07301 0.54754 0.0
O199 O 0.11006 0.08485 0.5525 0.0
O200 O 0.13771 0.18801 0.76432 0.0
H201 H 0.15349 0.12185 0.54422 0.0
H202 H 0.96682 0.17968 0.48737 0.0
H203 H 0.20965 0.10812 0.45574 0.0
Zn204 Zn 0.56106 0.15732 0.80492 0.0
C205 C 0.59816 0.14119 0.08469 0.0
N206 N 0.58173 0.16158 0.11151 0.0
C207 C 0.57643 0.17228 0.01756 0.0
N208 N 0.58874 0.15885 0.93653 0.0
N209 N 0.60352 0.13954 0.97913 0.0
C210 C 0.61451 0.07199 0.92706 0.0
O211 O 0.58971 0.07973 0.85969 0.0
O212 O 0.55312 0.19032 0.74434 0.0
Zn213 Zn 0.64047 0.1203 0.90924 0.0
N214 N 0.51433 0.14212 0.83963 0.0
C215 C 0.48828 0.1099 0.93569 0.0
C216 C 0.51866 0.12179 0.89655 0.0
C217 C 0.48014 0.15086 0.81794 0.0
N218 N 0.45444 0.11868 0.91583 0.0
C219 C 0.44911 0.13879 0.85767 0.0
O220 O 0.63645 0.11944 0.74841 0.0
C221 C 0.61463 0.12559 0.67425 0.0
O222 O 0.58655 0.13843 0.69065 0.0
H223 H 0.54573 0.11507 0.91304 0.0
H224 H 0.47721 0.16718 0.77318 0.0
C225 C 0.72006 0.12377 0.90846 0.0
C226 C 0.75394 0.13347 0.94042 0.0
C227 C 0.72258 0.16234 0.04232 0.0
C228 C 0.68922 0.15302 1.00901 0.0
N229 N 0.6884 0.13356 0.94515 0.0
N230 N 0.75403 0.15239 1.0075 0.0
H231 H 0.71885 0.1086 0.85593 0.0
C232 C 0.57638 0.19938 0.68106 0.0
O233 O 0.60603 0.18732 0.65793 0.0
O234 O 0.63864 0.08636 0.96158 0.0
H235 H 0.66422 0.16127 0.0348 0.0
H236 H 0.49153 0.09385 0.98206 0.0
H237 H 0.72352 0.17755 0.09464 0.0
Zn238 Zn 0.10996 0.84839 0.3492 0.0
C239 C 0.0712 0.86456 0.62695 0.0
N240 N 0.08745 0.84418 0.65557 0.0
C241 C 0.09344 0.83344 0.56238 0.0
N242 N 0.0819 0.84697 0.47999 0.0
N243 N 0.06661 0.86621 0.52094 0.0
C244 C 0.0567 0.93275 0.46903 0.0
O245 O 0.08318 0.92396 0.41097 0.0
O246 O 0.11537 0.81536 0.29021 0.0
Zn247 Zn 0.02969 0.88514 0.44762 0.0
N248 N 0.15881 0.86127 0.38318 0.0
C249 C 0.19315 0.88607 0.49992 0.0
C250 C 0.1598 0.87709 0.46446 0.0
C251 C 0.19036 0.8545 0.33361 0.0
N252 N 0.22444 0.87923 0.45162 0.0
C253 C 0.22439 0.86378 0.36864 0.0
O254 O 0.03505 0.88607 0.28792 0.0
C255 C 0.0574 0.88044 0.21515 0.0
O256 O 0.08576 0.86787 0.23296 0.0
H257 H 0.13482 0.8826 0.50239 0.0
H258 H 0.18898 0.84183 0.26928 0.0
C259 C 0.95032 0.88043 0.43069 0.0
C260 C 0.91605 0.87052 0.45697 0.0
C261 C 0.94589 0.84367 0.57412 0.0
C262 C 0.97964 0.85318 0.54648 0.0
N263 N 0.98136 0.87174 0.47751 0.0
N264 N 0.91505 0.85252 0.52905 0.0
H265 H 0.95232 0.89492 0.37452 0.0
C266 C 0.09168 0.80662 0.22696 0.0
O267 O 0.06272 0.81924 0.20133 0.0
O268 O 0.03094 0.9191 0.49838 0.0
H269 H 1.00424 0.84573 0.58018 0.0
H270 H 0.19417 0.89847 0.56533 0.0
H271 H 0.94422 0.82915 0.63018 0.0
H272 H 0.39764 0.38521 0.20422 0.0
H273 H 0.36439 0.40457 0.51934 0.0
H274 H 0.30124 0.40954 0.45848 0.0
H275 H 0.25419 0.39933 0.32621 0.0
H276 H 0.28668 0.375 0.01759 0.0
H277 H 0.35105 0.38159 0.06298 0.0
C278 C 0.37676 0.39152 0.25809 0.0
C279 C 0.38549 0.39471 0.36576 0.0
C280 C 0.34013 0.3931 0.2235 0.0
C281 C 0.35817 0.40223 0.4359 0.0
C282 C 0.32203 0.40486 0.40126 0.0
C283 C 0.27535 0.39664 0.26745 0.0
C284 C 0.26588 0.38704 0.16834 0.0
C285 C 0.31238 0.39911 0.29664 0.0
C286 C 0.29346 0.38279 0.09372 0.0
C287 C 0.33028 0.38624 0.12029 0.0
H288 H 0.30283 0.61978 0.97509 0.0
H289 H 0.23873 0.62092 0.68722 0.0
H290 H 0.29455 0.61821 0.58186 0.0
H291 H 0.3615 0.62259 0.57285 0.0
H292 H 0.42554 0.62162 0.86089 0.0
H293 H 0.36988 0.61675 0.96533 0.0
C294 C 0.30114 0.61876 0.8893 0.0
C295 C 0.26692 0.62074 0.83872 0.0
C296 C 0.33331 0.61751 0.82954 0.0
C297 C 0.26481 0.61926 0.72777 0.0
C298 C 0.29673 0.61797 0.66758 0.0
C299 C 0.36323 0.62069 0.65834 0.0
C300 C 0.39737 0.62267 0.70939 0.0
C301 C 0.33113 0.61814 0.71768 0.0
C302 C 0.39953 0.62001 0.81992 0.0
C303 C 0.36769 0.61745 0.87966 0.0
H304 H 0.7966 0.67358 0.58138 0.0
H305 H 0.74223 0.66948 0.88405 0.0
H306 H 0.80117 0.67209 0.97469 0.0
H307 H 0.86814 0.66984 0.96761 0.0
H308 H 0.92245 0.6708 0.66433 0.0
H309 H 0.86359 0.67545 0.57501 0.0
C310 C 0.79749 0.67359 0.66735 0.0
C311 C 0.76476 0.67117 0.72535 0.0
C312 C 0.83161 0.67434 0.71906 0.0
C313 C 0.76662 0.67155 0.83673 0.0
C314 C 0.80049 0.67278 0.88883 0.0
C315 C 0.86726 0.6714 0.88192 0.0
C316 C 0.89995 0.6698 0.8232 0.0
C317 C 0.83316 0.67332 0.83068 0.0
C318 C 0.8981 0.67219 0.7123 0.0
C319 C 0.86427 0.6746 0.66084 0.0
H320 H 0.8669 0.31746 0.10965 0.0
H321 H 0.91507 0.3565 0.36997 0.0
H322 H 0.85421 0.36373 0.44197 0.0
H323 H 0.78732 0.36255 0.42103 0.0
H324 H 0.73959 0.32579 0.15311 0.0
H325 H 0.80031 0.31403 0.09518 0.0
C326 C 0.8643 0.3274 0.1828 0.0
C327 C 0.8959 0.33648 0.23364 0.0
C328 C 0.82914 0.33207 0.2222 0.0
C329 C 0.89165 0.34902 0.32915 0.0
C330 C 0.85668 0.35339 0.36993 0.0
C331 C 0.78999 0.3518 0.35024 0.0
C332 C 0.7584 0.34519 0.2919 0.0
C333 C 0.82522 0.34555 0.31552 0.0
C334 C 0.76284 0.33101 0.20109 0.0
C335 C 0.79779 0.32441 0.16707 0.0
H336 H 0.75274 0.87975 0.30358 0.0
H337 H 0.80588 0.88188 0.99959 0.0
H338 H 0.86563 0.88472 0.08636 0.0
H339 H 0.90317 0.88087 0.24807 0.0
H340 H 0.8501 0.8756 0.55153 0.0
H341 H 0.79031 0.88 0.46639 0.0
C342 C 0.77733 0.88157 0.25655 0.0
C343 C 0.77488 0.8807 0.14531 0.0
C344 C 0.81181 0.88231 0.30713 0.0
C345 C 0.80709 0.88252 0.08539 0.0
C346 C 0.8413 0.88405 0.13497 0.0
C347 C 0.8786 0.8814 0.29577 0.0
C348 C 0.88112 0.87796 0.40605 0.0
C349 C 0.84411 0.88313 0.24578 0.0
C350 C 0.84888 0.87816 0.46643 0.0
C351 C 0.81464 0.88061 0.41776 0.0
H352 H 0.92 0.12329 0.83117 0.0
H353 H 0.87543 0.12442 0.51446 0.0
H354 H 0.81352 0.12022 0.58439 0.0
H355 H 0.77176 0.12322 0.73611 0.0
H356 H 0.81631 0.12624 0.0528 0.0
H357 H 0.87816 0.12148 0.98343 0.0
C358 C 0.89677 0.12175 0.77771 0.0
C359 C 0.90215 0.12397 0.66797 0.0
C360 C 0.86108 0.12047 0.81885 0.0
C361 C 0.87183 0.12259 0.5993 0.0
C362 C 0.83643 0.12037 0.63929 0.0
C363 C 0.79493 0.12203 0.78995 0.0
C364 C 0.78953 0.12502 0.89937 0.0
C365 C 0.83059 0.1203 0.74906 0.0
C366 C 0.81987 0.12399 0.96818 0.0
C367 C 0.85525 0.12138 0.92853 0.0
H368 H 0.27755 0.14567 0.83428 0.0
H369 H 0.30182 0.15869 0.5055 0.0
H370 H 0.36697 0.1618 0.54717 0.0
H371 H 0.41788 0.15482 0.67262 0.0
H372 H 0.39369 0.13897 0.99916 0.0
H373 H 0.32832 0.14326 0.96366 0.0
C374 C 0.29702 0.14995 0.77256 0.0
C375 C 0.28483 0.15203 0.66703 0.0
C376 C 0.33478 0.15084 0.79657 0.0
C377 C 0.31053 0.15704 0.58743 0.0
C378 C 0.34786 0.15869 0.6111 0.0
C379 C 0.39835 0.15302 0.73653 0.0
C380 C 0.41072 0.14657 0.83837 0.0
C381 C 0.3605 0.15476 0.71476 0.0
C382 C 0.38491 0.14385 0.9199 0.0
C383 C 0.34744 0.14623 0.89963 0.0
H384 H 0.3652 0.85614 0.082 0.0
H385 H 0.4182 0.86027 0.38785 0.0
H386 H 0.3586 0.85861 0.47484 0.0
H387 H 0.29119 0.86009 0.46324 0.0
H388 H 0.23832 0.85592 0.15714 0.0
H389 H 0.29798 0.85324 0.07146 0.0
C390 C 0.36378 0.85635 0.16785 0.0
C391 C 0.39633 0.85841 0.22806 0.0
C392 C 0.32933 0.85553 0.21736 0.0
C393 C 0.39386 0.85844 0.33925 0.0
C394 C 0.35966 0.85772 0.3891 0.0
C395 C 0.29267 0.85826 0.37779 0.0
C396 C 0.26009 0.85827 0.31697 0.0
C397 C 0.32719 0.85686 0.32886 0.0
C398 C 0.26266 0.8557 0.20639 0.0
C399 C 0.2969 0.85439 0.15714 0.0
H400 H 0.04835 0.53315 0.92193 0.0
H401 H 0.15366 0.54604 0.06737 0.0
H402 H 0.15965 0.50377 0.1083 0.0
H403 H 0.13502 0.46303 0.10254 0.0
H404 H 0.02907 0.45051 0.96065 0.0
H405 H 0.02351 0.49268 0.9179 0.0
C406 C 0.0726 0.52677 0.96288 0.0
C407 C 0.1005 0.54281 0.99139 0.0
C408 C 0.07588 0.50243 0.98627 0.0
C409 C 0.13169 0.53415 0.04458 0.0
C410 C 0.13521 0.50994 0.06777 0.0
C411 C 0.11083 0.46951 0.06163 0.0
C412 C 0.08255 0.4536 0.03458 0.0
C413 C 0.10754 0.49389 0.03864 0.0
C414 C 0.05122 0.46235 0.98256 0.0
C415 C 0.04799 0.48648 0.95814 0.0
H416 H 0.51971 0.46652 0.46686 0.0
H417 H 0.6351 0.45961 0.40405 0.0
H418 H 0.64399 0.50189 0.4401 0.0
H419 H 0.61891 0.54092 0.48888 0.0
H420 H 0.50302 0.54792 0.54511 0.0
H421 H 0.49445 0.50564 0.51132 0.0
C422 C 0.54684 0.47424 0.4617 0.0
C423 C 0.57672 0.45993 0.43337 0.0
C424 C 0.55165 0.49865 0.4806 0.0
C425 C 0.61163 0.47026 0.42568 0.0
C426 C 0.61674 0.49444 0.44621 0.0
C427 C 0.59177 0.53321 0.49346 0.0
C428 C 0.56172 0.54761 0.51976 0.0
C429 C 0.58693 0.50883 0.47339 0.0
C430 C 0.52669 0.53731 0.52482 0.0
C431 C 0.52173 0.51308 0.50589 0.0
H432 H 0.56192 0.03854 0.89414 0.0
H433 H 0.67009 0.04812 0.02619 0.0
H434 H 0.67356 0.00574 0.06691 0.0
H435 H 0.6461 0.96582 0.06383 0.0
H436 H 0.53692 0.95654 0.93912 0.0
H437 H 0.53371 0.99887 0.89613 0.0
C438 C 0.58624 0.03137 0.93197 0.0
C439 C 0.61575 0.0465 0.95664 0.0
C440 C 0.58795 0.007 0.956 0.0
C441 C 0.64693 0.03692 1.0065 0.0
C442 C 0.64901 0.01265 0.02948 0.0
C443 C 0.62169 0.97306 0.02669 0.0
C444 C 0.59187 0.95805 1.00409 0.0
C445 C 0.61977 0.9975 1.00413 0.0
C446 C 0.56023 0.96773 0.95738 0.0
C447 C 0.55838 0.99193 0.93278 0.0
H448 H 0.10779 0.96619 0.42092 0.0
H449 H 1.00281 0.95734 0.57099 0.0
H450 H 0.99967 1.00003 0.60412 0.0
H451 H 0.02682 0.03998 0.591 0.0
H452 H 0.13256 0.04852 0.44546 0.0
H453 H 0.1351 0.00593 0.40918 0.0
C454 C 0.08423 0.97356 0.46111 0.0
C455 C 0.05559 0.95852 0.4933 0.0
C456 C 0.08262 0.99814 0.48015 0.0
C457 C 0.02532 0.96844 0.54547 0.0
C458 C 0.02343 0.9929 0.56419 0.0
C459 C 0.05027 0.03253 0.5506 0.0
C460 C 0.07941 0.04741 0.52071 0.0
C461 C 0.05186 0.00793 0.53163 0.0
C462 C 0.1098 0.03745 0.4695 0.0
C463 C 0.1113 0.01309 0.44882 0.0
H464 H 0.14781 0.30143 0.95607 0.0
H465 H 0.04175 0.29542 0.10056 0.0
H466 H 0.04028 0.2529 0.05886 0.0
H467 H 0.06606 0.21878 0.95974 0.0
H468 H 0.17041 0.22672 0.80432 0.0
H469 H 0.17536 0.26723 0.87018 0.0
C470 C 0.12464 0.29068 0.98036 0.0
C471 C 0.09498 0.30152 0.03158 0.0
C472 C 0.12336 0.2667 0.95158 0.0
C473 C 0.06518 0.28749 0.06274 0.0
C474 C 0.06414 0.26322 0.03727 0.0
C475 C 0.09002 0.22931 0.94102 0.0
C476 C 0.11766 0.21975 0.87604 0.0
C477 C 0.09253 0.25285 0.9782 0.0
C478 C 0.14858 0.23363 0.85311 0.0
C479 C 0.15151 0.2568 0.89104 0.0
H480 H 0.53342 0.70226 0.42388 0.0
H481 H 0.64302 0.70488 0.54965 0.0
H482 H 0.64518 0.74804 0.51709 0.0
H483 H 0.61792 0.78374 0.43229 0.0
H484 H 0.50918 0.77925 0.29762 0.0
H485 H 0.50461 0.73799 0.35385 0.0
C486 C 0.55751 0.71244 0.44598 0.0
C487 C 0.58799 0.70072 0.48901 0.0
C488 C 0.55883 0.73675 0.42365 0.0
C489 C 0.61917 0.71378 0.51737 0.0
C490 C 0.62044 0.73832 0.49769 0.0
C491 C 0.5931 0.77379 0.41618 0.0
C492 C 0.5641 0.78452 0.3595 0.0
C493 C 0.59082 0.74983 0.44753 0.0
C494 C 0.53207 0.77141 0.33987 0.0
C495 C 0.52936 0.74781 0.37222 0.0
H496 H 0.04322 0.78082 0.1075 0.0
H497 H 0.14984 0.77721 0.25629 0.0
H498 H 0.15564 0.73583 0.20333 0.0
H499 H 0.12838 0.69981 0.13109 0.0
H500 H 0.02082 0.70163 0.99082 0.0
H501 H 0.01763 0.7448 0.02141 0.0
C502 C 0.06785 0.77104 0.12747 0.0
C503 C 0.09588 0.78206 0.18703 0.0
C504 C 0.07084 0.74701 0.09791 0.0
C505 C 0.1277 0.76915 0.21162 0.0
C506 C 0.1311 0.74548 0.1812 0.0
C507 C 0.1045 0.70981 0.10561 0.0
C508 C 0.07489 0.69786 0.05884 0.0
C509 C 0.10256 0.73415 0.12666 0.0
C510 C 0.04402 0.71069 0.026 0.0
C511 C 0.04214 0.73525 0.04453 0.0
H512 H 0.6238 0.22557 0.56096 0.0
H513 H 0.51639 0.22764 0.70184 0.0
H514 H 0.50836 0.2684 0.64079 0.0
H515 H 0.53403 0.30461 0.56494 0.0
H516 H 0.64267 0.30446 0.43528 0.0
H517 H 0.6478 0.26154 0.47119 0.0
C518 C 0.5985 0.23486 0.57748 0.0
C519 C 0.57088 0.22359 0.63716 0.0
C520 C 0.59425 0.25856 0.54341 0.0
C521 C 0.53822 0.23589 0.65724 0.0
C522 C 0.53355 0.25921 0.62208 0.0
C523 C 0.55849 0.29497 0.54225 0.0
C524 C 0.58784 0.30737 0.49695 0.0
C525 C 0.56165 0.27083 0.5674 0.0
C526 C 0.6196 0.29504 0.46877 0.0
C527 C 0.6226 0.27064 0.49058 0.0
H528 H 0.60126 0.72793 0.93183 0.0
H529 H 0.51967 0.7351 0.68564 0.0
H530 H 0.50507 0.77509 0.74727 0.0
H531 H 0.52007 0.80944 0.85847 0.0
H532 H 0.60157 0.80299 0.10454 0.0
H533 H 0.61031 0.76103 0.05997 0.0
C534 C 0.58018 0.73827 0.89236 0.0
C535 C 0.56191 0.72878 0.80337 0.0
C536 C 0.5714 0.76119 0.92966 0.0
C537 C 0.53417 0.74209 0.75397 0.0
C538 C 0.52576 0.76493 0.78931 0.0
C539 C 0.53875 0.79857 0.90485 0.0
C540 C 0.55986 0.80921 0.98529 0.0
C541 C 0.54461 0.7748 0.87582 0.0
C542 C 0.58432 0.79508 0.04408 0.0
C543 C 0.58992 0.7712 0.01684 0.0
H544 H 0.10992 0.27148 0.32308 0.0
H545 H 0.02759 0.27881 0.56457 0.0
H546 H 0.04421 0.24002 0.6376 0.0
H547 H 0.0755 0.20157 0.61485 0.0
H548 H 0.15668 0.19413 0.37096 0.0
H549 H 0.14813 0.23561 0.31924 0.0
C550 C 0.09584 0.26468 0.39229 0.0
C551 C 0.067 0.27778 0.43675 0.0
C552 C 0.10561 0.24239 0.43416 0.0
C553 C 0.04956 0.26895 0.52781 0.0
C554 C 0.0591 0.24677 0.56987 0.0
C555 C 0.0926 0.2094 0.55408 0.0
C556 C 0.11688 0.19492 0.49716 0.0
C557 C 0.08635 0.23302 0.52179 0.0
C558 C 0.13813 0.20507 0.41647 0.0
C559 C 0.13279 0.22867 0.38575 0.0
H560 H 0.60325 0.2811 0.06047 0.0
H561 H 0.52294 0.27165 0.30611 0.0
H562 H 0.51219 0.23085 0.24807 0.0
H563 H 0.53006 0.19679 0.13963 0.0
H564 H 0.61056 0.20546 0.89465 0.0
H565 H 0.61543 0.24787 0.93585 0.0
C566 C 0.58333 0.27006 0.10068 0.0
C567 C 0.56427 0.27916 0.18834 0.0
C568 C 0.57677 0.24667 0.06544 0.0
C569 C 0.53801 0.26494 0.23875 0.0
C570 C 0.53179 0.24165 0.20544 0.0
C571 C 0.5477 0.20818 0.09285 0.0
C572 C 0.56963 0.19811 1.01362 0.0
C573 C 0.5514 0.23223 0.12006 0.0
C574 C 0.59271 0.21292 0.9542 0.0
C575 C 0.5961 0.23708 0.9795 0.0
H576 H 0.06178 0.72541 0.61478 0.0
H577 H 0.14264 0.73432 0.86181 0.0
H578 H 0.15552 0.77454 0.79937 0.0
H579 H 0.13909 0.80854 0.68731 0.0
H580 H 0.05822 0.80037 0.44059 0.0
H581 H 0.0514 0.75826 0.48585 0.0
C582 C 0.08234 0.73618 0.65426 0.0
C583 C 0.10088 0.72708 0.74373 0.0
C584 C 0.09012 0.75924 0.61655 0.0
C585 C 0.12794 0.74098 0.79311 0.0
C586 C 0.13537 0.76396 0.75732 0.0
C587 C 0.12099 0.79728 0.64092 0.0
C588 C 0.0995 0.80747 0.56004 0.0
C589 C 0.11619 0.77341 0.67039 0.0
C590 C 0.07577 0.79283 0.50133 0.0
C591 C 0.07125 0.76885 0.52898 0.0
H592 H 0.14097 0.38468 0.82482 0.0
H593 H 0.0285 0.37212 0.90624 0.0
H594 H 1.00989 0.37843 0.72204 0.0
H595 H 0.02826 0.3784 0.53279 0.0
H596 H 0.14079 0.39343 0.45504 0.0
H597 H 0.15656 0.39565 0.64191 0.0
C598 C 0.11221 0.38469 0.80302 0.0
C599 C 0.08619 0.37785 0.87811 0.0
C600 C 0.10182 0.38804 0.6967 0.0
C601 C 0.04898 0.37759 0.84944 0.0
C602 C 0.0384 0.38075 0.74363 0.0
C603 C 0.05595 0.38282 0.55698 0.0
C604 C 0.08336 0.38518 0.47998 0.0
C605 C 0.06495 0.3845 0.66552 0.0
C606 C 0.11908 0.39132 0.51243 0.0
C607 C 0.12829 0.39253 0.61961 0.0
H608 H 0.621 0.61691 0.31895 0.0
H609 H 0.5052 0.62787 0.34856 0.0
H610 H 0.49654 0.61893 0.16033 0.0
H611 H 0.52425 0.61869 0.98084 0.0
H612 H 0.64147 0.61407 0.95284 0.0
H613 H 0.64751 0.60979 0.14473 0.0
C614 C 0.59364 0.61591 0.28529 0.0
C615 C 0.56379 0.62288 0.34773 0.0
C616 C 0.58947 0.61289 0.17524 0.0
C617 C 0.52856 0.62217 0.30284 0.0
C618 C 0.52377 0.61764 0.19423 0.0
C619 C 0.55093 0.61593 0.01683 0.0
C620 C 0.58243 0.61681 0.953 0.0
C621 C 0.55433 0.61464 0.12837 0.0
C622 C 0.61691 0.61359 1.0005 0.0
C623 C 0.62036 0.61117 0.11029 0.0
H624 H 0.04271 0.61402 0.23023 0.0
H625 H 0.15846 0.62494 0.19772 0.0
H626 H 0.16763 0.61608 0.38574 0.0
H627 H 0.14042 0.61593 0.56593 0.0
H628 H 0.0233 0.61109 0.59671 0.0
H629 H 0.01673 0.60678 0.40506 0.0
C630 C 0.07017 0.61303 0.2632 0.0
C631 C 0.09983 0.62 0.19994 0.0
C632 C 0.07467 0.60999 0.37315 0.0
C633 C 0.13519 0.61929 0.24398 0.0
C634 C 0.1403 0.61479 0.35253 0.0
C635 C 0.11365 0.61311 0.53059 0.0
C636 C 0.08233 0.61396 0.59507 0.0
C637 C 0.10994 0.61178 0.41916 0.0
C638 C 0.04773 0.61064 0.54847 0.0
C639 C 0.04397 0.60821 0.43883 0.0
H640 H 0.50981 0.36908 0.68896 0.0
H641 H 0.61525 0.40047 0.63273 0.0
H642 H 0.62015 0.41152 0.81965 0.0
H643 H 0.60102 0.40244 1.00373 0.0
H644 H 0.49466 0.37194 0.05793 0.0
H645 H 0.48311 0.37046 0.86685 0.0
C646 C 0.53269 0.37975 0.71606 0.0
C647 C 0.56215 0.38394 0.6476 0.0
C648 C 0.5357 0.38532 0.82419 0.0
C649 C 0.59206 0.39732 0.68409 0.0
C650 C 0.59523 0.40314 0.79155 0.0
C651 C 0.5749 0.39625 0.97329 0.0
C652 C 0.54891 0.38693 0.04361 0.0
C653 C 0.56834 0.3957 0.86333 0.0
C654 C 0.51501 0.37909 1.00449 0.0
C655 C 0.50848 0.37818 0.8954 0.0
H656 H 0.64575 0.8701 0.79553 0.0
H657 H 0.53993 0.90115 0.84901 0.0
H658 H 0.53555 0.91234 0.66248 0.0
H659 H 0.55515 0.9036 0.47904 0.0
H660 H 0.66175 0.87337 0.42651 0.0
H661 H 0.67278 0.87159 0.61777 0.0
C662 C 0.62284 0.88067 0.76802 0.0
C663 C 0.59324 0.88482 0.83603 0.0
C664 C 0.62005 0.8863 0.65968 0.0
C665 C 0.56333 0.89809 0.79846 0.0
C666 C 0.56043 0.90399 0.69105 0.0
C667 C 0.5812 0.89737 0.50982 0.0
C668 C 0.60737 0.88823 0.4397 0.0
C669 C 0.58751 0.89666 0.6199 0.0
C670 C 0.64121 0.8804 0.47955 0.0
C671 C 0.64746 0.8793 0.58883 0.0
H672 H 0.12842 0.10851 0.32544 0.0
H673 H 0.01746 0.1326 0.35606 0.0
H674 H 1.00619 0.12463 0.16824 0.0
H675 H 0.03306 0.12096 0.98842 0.0
H676 H 0.14702 0.10265 0.95925 0.0
H677 H 0.15218 0.09813 0.15117 0.0
C678 C 0.10117 0.11067 0.29206 0.0
C679 C 0.07377 0.12095 0.35474 0.0
C680 C 0.09602 0.108 0.18221 0.0
C681 C 0.03884 0.12427 0.3103 0.0
C682 C 0.0327 0.12027 0.20184 0.0
C683 C 0.05862 0.11521 0.0242 0.0
C684 C 0.08972 0.11229 0.96002 0.0
C685 C 0.06183 0.11372 0.13571 0.0
C686 C 0.12283 0.10516 1.00722 0.0
C687 C 0.1258 0.1026 0.11701 0.0
H688 H 0.6588 0.14169 0.20761 0.0
H689 H 0.55751 0.1046 0.15332 0.0
H690 H 0.55532 0.09314 0.34014 0.0
H691 H 0.57458 0.10276 0.52383 0.0
H692 H 0.67682 0.13904 0.57662 0.0
H693 H 0.68674 0.1416 0.38524 0.0
C694 C 0.63758 0.12977 0.23501 0.0
C695 C 0.60843 0.12391 0.16685 0.0
C696 C 0.63605 0.12391 0.34324 0.0
C697 C 0.58053 0.109 0.2042 0.0
C698 C 0.57887 0.1029 0.31162 0.0
C699 C 0.59958 0.11045 0.49304 0.0
C700 C 0.62474 0.12099 0.56327 0.0
C701 C 0.60522 0.11165 0.3829 0.0
C702 C 0.65715 0.13084 0.52347 0.0
C703 C 0.66272 0.1324 0.41415 0.0
H704 H 1.01063 0.86539 0.74841 0.0
H705 H 0.11318 0.90074 0.6937 0.0
H706 H 0.11671 0.912 0.88043 0.0
H707 H 0.09802 0.90245 0.06422 0.0
H708 H 0.99439 0.86809 0.11738 0.0
H709 H 0.9835 0.86587 0.92615 0.0
C710 C 0.03249 0.87689 0.77573 0.0
C711 C 0.06161 0.88223 0.70755 0.0
C712 C 0.03477 0.88264 0.88394 0.0
C713 C 0.0902 0.89671 0.74464 0.0
C714 C 0.09264 0.90267 0.85206 0.0
C715 C 0.07257 0.89522 0.03355 0.0
C716 C 0.04729 0.88508 0.10383 0.0
C717 C 0.06632 0.89427 0.92347 0.0
C718 C 0.01423 0.87592 0.06418 0.0
C719 C 1.00808 0.87457 0.95493 0.0
loop_
_geom_bond_atom_site_label_1
_geom_bond_atom_site_label_2
_geom_bond_distance
_geom_bond_site_symmetry_2
_ccdc_geom_bond_type
Zn0 N4 2.020 . S
Zn0 O8 2.019 . S
Zn0 N10 2.119 . S
Zn0 O18 1.975 . S
C1 N2 1.334 . S
C1 N5 1.336 1_556 S
N2 C1 1.334 . S
N2 C3 1.334 . S
C3 N2 1.334 . S
C3 N4 1.336 1_556 S
N4 Zn0 2.020 . S
N4 C3 1.336 1_554 S
N4 N5 1.354 . S
N5 C1 1.336 1_554 S
N5 N4 1.354 . S
N5 Zn9 2.020 . S
C6 O7 1.244 . S
C6 O30 1.257 . S
O7 C6 1.244 . S
O8 Zn0 2.019 . S
O8 C28 1.257 . S
Zn9 N5 2.020 . S
Zn9 O16 1.975 . S
Zn9 N25 2.119 . S
Zn9 O30 2.019 . S
N10 Zn0 2.119 . S
N10 C12 1.334 . S
N10 C13 1.328 . S
C11 C12 1.391 . S
C11 N14 1.329 . S
C11 H32 0.930 . S
C12 N10 1.334 . S
C12 C11 1.391 . S
C12 H19 0.930 . S
C13 N10 1.328 . S
C13 C15 1.392 . S
C13 H20 0.930 . S
N14 C11 1.329 . S
N14 C15 1.331 . S
C15 C13 1.392 . S
C15 N14 1.331 . S
O16 Zn9 1.975 . S
O16 C17 1.252 . S
C17 O16 1.252 . S
C17 O18 1.252 . S
O18 Zn0 1.975 . S
O18 C17 1.252 . S
H19 C12 0.930 . S
H20 C13 0.930 . S
C21 C22 1.392 . S
C21 N25 1.328 1_655 S
C21 H27 0.930 . S
C22 C21 1.392 . S
C22 N26 1.331 . S
C23 C24 1.391 1_655 S
C23 N26 1.329 . S
C23 H33 0.930 . S
C24 C23 1.391 1_455 S
C24 N25 1.334 . S
C24 H31 0.930 . S
N25 Zn9 2.119 . S
N25 C21 1.328 1_455 S
N25 C24 1.334 . S
N26 C22 1.331 . S
N26 C23 1.329 . S
H27 C21 0.930 . S
C28 O8 1.257 . S
C28 O29 1.244 . S
O29 C28 1.244 . S
O30 C6 1.257 . S
O30 Zn9 2.019 . S
H31 C24 0.930 . S
H32 C11 0.930 . S
H33 C23 0.930 . S
Zn34 N38 2.020 . S
Zn34 O42 2.019 . S
Zn34 N44 2.119 . S
Zn34 O52 1.975 . S
C35 N36 1.334 . S
C35 N39 1.336 . S
N36 C35 1.334 . S
N36 C37 1.334 . S
C37 N36 1.334 . S
C37 N38 1.336 . S
N38 Zn34 2.020 . S
N38 C37 1.336 . S
N38 N39 1.354 . S
N39 C35 1.336 . S
N39 N38 1.354 . S
N39 Zn43 2.020 . S
C40 O41 1.244 . S
C40 O64 1.257 . S
O41 C40 1.244 . S
O42 Zn34 2.019 . S
O42 C62 1.257 . S
Zn43 N39 2.020 . S
Zn43 O50 1.975 . S
Zn43 N59 2.119 . S
Zn43 O64 2.019 . S
N44 Zn34 2.119 . S
N44 C46 1.334 . S
N44 C47 1.328 . S
C45 C46 1.391 . S
C45 N48 1.329 . S
C45 H66 0.930 . S
C46 N44 1.334 . S
C46 C45 1.391 . S
C46 H53 0.930 . S
C47 N44 1.328 . S
C47 C49 1.392 . S
C47 H54 0.930 . S
N48 C45 1.329 . S
N48 C49 1.331 . S
C49 C47 1.392 . S
C49 N48 1.331 . S
O50 Zn43 1.975 . S
O50 C51 1.252 . S
C51 O50 1.252 . S
C51 O52 1.252 . S
O52 Zn34 1.975 . S
O52 C51 1.252 . S
H53 C46 0.930 . S
H54 C47 0.930 . S
C55 C56 1.392 . S
C55 N59 1.328 . S
C55 H61 0.930 . S
C56 C55 1.392 . S
C56 N60 1.331 . S
C57 C58 1.391 . S
C57 N60 1.329 . S
C57 H67 0.930 . S
C58 C57 1.391 . S
C58 N59 1.334 . S
C58 H65 0.930 . S
N59 Zn43 2.119 . S
N59 C55 1.328 . S
N59 C58 1.334 . S
N60 C56 1.331 . S
N60 C57 1.329 . S
H61 C55 0.930 . S
C62 O42 1.257 . S
C62 O63 1.244 . S
O63 C62 1.244 . S
O64 C40 1.257 . S
O64 Zn43 2.019 . S
H65 C58 0.930 . S
H66 C45 0.930 . S
H67 C57 0.930 . S
Zn68 N72 2.020 . S
Zn68 O76 2.019 . S
Zn68 N78 2.119 . S
Zn68 O86 1.975 . S
C69 N70 1.334 . S
C69 N73 1.336 1_554 S
N70 C69 1.334 . S
N70 C71 1.334 . S
C71 N70 1.334 . S
C71 N72 1.336 1_554 S
N72 Zn68 2.020 . S
N72 C71 1.336 1_556 S
N72 N73 1.354 . S
N73 C69 1.336 1_556 S
N73 N72 1.354 . S
N73 Zn77 2.020 . S
C74 O75 1.244 . S
C74 O98 1.257 . S
O75 C74 1.244 . S
O76 Zn68 2.019 . S
O76 C96 1.257 . S
Zn77 N73 2.020 . S
Zn77 O84 1.975 . S
Zn77 N93 2.119 . S
Zn77 O98 2.019 . S
N78 Zn68 2.119 . S
N78 C80 1.334 . S
N78 C81 1.328 1_455 S
C79 C80 1.391 1_655 S
C79 N82 1.329 . S
C79 H100 0.930 . S
C80 N78 1.334 . S
C80 C79 1.391 1_455 S
C80 H87 0.930 . S
C81 N78 1.328 1_655 S
C81 C83 1.392 . S
C81 H88 0.930 . S
N82 C79 1.329 . S
N82 C83 1.331 . S
C83 C81 1.392 . S
C83 N82 1.331 . S
O84 Zn77 1.975 . S
O84 C85 1.252 . S
C85 O84 1.252 . S
C85 O86 1.252 . S
O86 Zn68 1.975 . S
O86 C85 1.252 . S
H87 C80 0.930 . S
H88 C81 0.930 . S
C89 C90 1.392 . S
C89 N93 1.328 . S
C89 H95 0.930 . S
C90 C89 1.392 . S
C90 N94 1.331 . S
C91 C92 1.391 . S
C91 N94 1.329 . S
C91 H101 0.930 . S
C92 C91 1.391 . S
C92 N93 1.334 . S
C92 H99 0.930 . S
N93 Zn77 2.119 . S
N93 C89 1.328 . S
N93 C92 1.334 . S
N94 C90 1.331 . S
N94 C91 1.329 . S
H95 C89 0.930 . S
C96 O76 1.257 . S
C96 O97 1.244 . S
O97 C96 1.244 . S
O98 C74 1.257 . S
O98 Zn77 2.019 . S
H99 C92 0.930 . S
H100 C79 0.930 . S
H101 C91 0.930 . S
Zn102 N106 2.020 . S
Zn102 O110 2.019 . S
Zn102 N112 2.119 . S
Zn102 O120 1.975 . S
C103 N104 1.334 . S
C103 N107 1.336 . S
N104 C103 1.334 . S
N104 C105 1.334 . S
C105 N104 1.334 . S
C105 N106 1.336 . S
N106 Zn102 2.020 . S
N106 C105 1.336 . S
N106 N107 1.354 . S
N107 C103 1.336 . S
N107 N106 1.354 . S
N107 Zn111 2.020 . S
C108 O109 1.244 . S
C108 O132 1.257 . S
O109 C108 1.244 . S
O110 Zn102 2.019 . S
O110 C130 1.257 . S
Zn111 N107 2.020 . S
Zn111 O118 1.975 . S
Zn111 N127 2.119 . S
Zn111 O132 2.019 . S
N112 Zn102 2.119 . S
N112 C114 1.334 . S
N112 C115 1.328 . S
C113 C114 1.391 . S
C113 N116 1.329 . S
C113 H134 0.930 . S
C114 N112 1.334 . S
C114 C113 1.391 . S
C114 H121 0.930 . S
C115 N112 1.328 . S
C115 C117 1.392 . S
C115 H122 0.930 . S
N116 C113 1.329 . S
N116 C117 1.331 . S
C117 C115 1.392 . S
C117 N116 1.331 . S
O118 Zn111 1.975 . S
O118 C119 1.252 . S
C119 O118 1.252 . S
C119 O120 1.252 . S
O120 Zn102 1.975 . S
O120 C119 1.252 . S
H121 C114 0.930 . S
H122 C115 0.930 . S
C123 C124 1.392 . S
C123 N127 1.328 . S
C123 H129 0.930 . S
C124 C123 1.392 . S
C124 N128 1.331 . S
C125 C126 1.391 . S
C125 N128 1.329 . S
C125 H135 0.930 . S
C126 C125 1.391 . S
C126 N127 1.334 . S
C126 H133 0.930 . S
N127 Zn111 2.119 . S
N127 C123 1.328 . S
N127 C126 1.334 . S
N128 C124 1.331 . S
N128 C125 1.329 . S
H129 C123 0.930 . S
C130 O110 1.257 . S
C130 O131 1.244 . S
O131 C130 1.244 . S
O132 C108 1.257 . S
O132 Zn111 2.019 . S
H133 C126 0.930 . S
H134 C113 0.930 . S
H135 C125 0.930 . S
Zn136 N140 2.020 . S
Zn136 O144 2.019 . S
Zn136 N146 2.119 . S
Zn136 O154 1.975 . S
C137 N138 1.334 . S
C137 N141 1.336 1_556 S
N138 C137 1.334 . S
N138 C139 1.334 . S
C139 N138 1.334 . S
C139 N140 1.336 1_556 S
N140 Zn136 2.020 . S
N140 C139 1.336 1_554 S
N140 N141 1.354 . S
N141 C137 1.336 1_554 S
N141 N140 1.354 . S
N141 Zn145 2.020 . S
C142 O143 1.244 . S
C142 O166 1.257 . S
O143 C142 1.244 . S
O144 Zn136 2.019 . S
O144 C164 1.257 . S
Zn145 N141 2.020 . S
Zn145 O152 1.975 . S
Zn145 N161 2.119 . S
Zn145 O166 2.019 . S
N146 Zn136 2.119 . S
N146 C148 1.334 . S
N146 C149 1.328 . S
C147 C148 1.391 . S
C147 N150 1.329 . S
C147 H168 0.930 . S
C148 N146 1.334 . S
C148 C147 1.391 . S
C148 H155 0.930 . S
C149 N146 1.328 . S
C149 C151 1.392 . S
C149 H156 0.930 . S
N150 C147 1.329 . S
N150 C151 1.331 . S
C151 C149 1.392 . S
C151 N150 1.331 . S
O152 Zn145 1.975 . S
O152 C153 1.252 . S
C153 O152 1.252 . S
C153 O154 1.252 . S
O154 Zn136 1.975 . S
O154 C153 1.252 . S
H155 C148 0.930 . S
H156 C149 0.930 . S
C157 C158 1.392 . S
C157 N161 1.328 . S
C157 H163 0.930 . S
C158 C157 1.392 . S
C158 N162 1.331 . S
C159 C160 1.391 . S
C159 N162 1.329 . S
C159 H169 0.930 . S
C160 C159 1.391 . S
C160 N161 1.334 . S
C160 H167 0.930 . S
N161 Zn145 2.119 . S
N161 C157 1.328 . S
N161 C160 1.334 . S
N162 C158 1.331 . S
N162 C159 1.329 . S
H163 C157 0.930 . S
C164 O144 1.257 . S
C164 O165 1.244 . S
O165 C164 1.244 . S
O166 C142 1.257 . S
O166 Zn145 2.019 . S
H167 C160 0.930 . S
H168 C147 0.930 . S
H169 C159 0.930 . S
Zn170 N174 2.020 . S
Zn170 O178 2.019 1_455 S
Zn170 N180 2.119 1_455 S
Zn170 O188 1.975 . S
C171 N172 1.334 . S
C171 N175 1.336 . S
N172 C171 1.334 . S
N172 C173 1.334 . S
C173 N172 1.334 . S
C173 N174 1.336 . S
N174 Zn170 2.020 . S
N174 C173 1.336 . S
N174 N175 1.354 . S
N175 C171 1.336 . S
N175 N174 1.354 . S
N175 Zn179 2.020 . S
C176 O177 1.244 . S
C176 O200 1.257 . S
O177 C176 1.244 . S
O178 Zn170 2.019 1_655 S
O178 C198 1.257 1_655 S
Zn179 N175 2.020 . S
Zn179 O186 1.975 . S
Zn179 N195 2.119 . S
Zn179 O200 2.019 . S
N180 Zn170 2.119 1_655 S
N180 C182 1.334 . S
N180 C183 1.328 . S
C181 C182 1.391 . S
C181 N184 1.329 . S
C181 H202 0.930 . S
C182 N180 1.334 . S
C182 C181 1.391 . S
C182 H189 0.930 . S
C183 N180 1.328 . S
C183 C185 1.392 . S
C183 H190 0.930 . S
N184 C181 1.329 . S
N184 C185 1.331 . S
C185 C183 1.392 . S
C185 N184 1.331 . S
O186 Zn179 1.975 . S
O186 C187 1.252 . S
C187 O186 1.252 . S
C187 O188 1.252 . S
O188 Zn170 1.975 . S
O188 C187 1.252 . S
H189 C182 0.930 . S
H190 C183 0.930 . S
C191 C192 1.392 . S
C191 N195 1.328 . S
C191 H197 0.930 . S
C192 C191 1.392 . S
C192 N196 1.331 . S
C193 C194 1.391 . S
C193 N196 1.329 . S
C193 H203 0.930 . S
C194 C193 1.391 . S
C194 N195 1.334 . S
C194 H201 0.930 . S
N195 Zn179 2.119 . S
N195 C191 1.328 . S
N195 C194 1.334 . S
N196 C192 1.331 . S
N196 C193 1.329 . S
H197 C191 0.930 . S
C198 O178 1.257 1_455 S
C198 O199 1.244 . S
O199 C198 1.244 . S
O200 C176 1.257 . S
O200 Zn179 2.019 . S
H201 C194 0.930 . S
H202 C181 0.930 . S
H203 C193 0.930 . S
Zn204 N208 2.020 . S
Zn204 O212 2.019 . S
Zn204 N214 2.119 . S
Zn204 O222 1.975 . S
C205 N206 1.334 . S
C205 N209 1.336 1_554 S
N206 C205 1.334 . S
N206 C207 1.334 . S
C207 N206 1.334 . S
C207 N208 1.336 1_554 S
N208 Zn204 2.020 . S
N208 C207 1.336 1_556 S
N208 N209 1.354 . S
N209 C205 1.336 1_556 S
N209 N208 1.354 . S
N209 Zn213 2.020 . S
C210 O211 1.244 . S
C210 O234 1.257 . S
O211 C210 1.244 . S
O212 Zn204 2.019 . S
O212 C232 1.257 . S
Zn213 N209 2.020 . S
Zn213 O220 1.975 . S
Zn213 N229 2.119 . S
Zn213 O234 2.019 . S
N214 Zn204 2.119 . S
N214 C216 1.334 . S
N214 C217 1.328 . S
C215 C216 1.391 . S
C215 N218 1.329 . S
C215 H236 0.930 . S
C216 N214 1.334 . S
C216 C215 1.391 . S
C216 H223 0.930 . S
C217 N214 1.328 . S
C217 C219 1.392 . S
C217 H224 0.930 . S
N218 C215 1.329 . S
N218 C219 1.331 . S
C219 C217 1.392 . S
C219 N218 1.331 . S
O220 Zn213 1.975 . S
O220 C221 1.252 . S
C221 O220 1.252 . S
C221 O222 1.252 . S
O222 Zn204 1.975 . S
O222 C221 1.252 . S
H223 C216 0.930 . S
H224 C217 0.930 . S
C225 C226 1.392 . S
C225 N229 1.328 . S
C225 H231 0.930 . S
C226 C225 1.392 . S
C226 N230 1.331 . S
C227 C228 1.391 . S
C227 N230 1.329 . S
C227 H237 0.930 . S
C228 C227 1.391 . S
C228 N229 1.334 . S
C228 H235 0.930 . S
N229 Zn213 2.119 . S
N229 C225 1.328 . S
N229 C228 1.334 . S
N230 C226 1.331 . S
N230 C227 1.329 . S
H231 C225 0.930 . S
C232 O212 1.257 . S
C232 O233 1.244 . S
O233 C232 1.244 . S
O234 C210 1.257 . S
O234 Zn213 2.019 . S
H235 C228 0.930 . S
H236 C215 0.930 . S
H237 C227 0.930 . S
Zn238 N242 2.020 . S
Zn238 O246 2.019 . S
Zn238 N248 2.119 . S
Zn238 O256 1.975 . S
C239 N240 1.334 . S
C239 N243 1.336 . S
N240 C239 1.334 . S
N240 C241 1.334 . S
C241 N240 1.334 . S
C241 N242 1.336 . S
N242 Zn238 2.020 . S
N242 C241 1.336 . S
N242 N243 1.354 . S
N243 C239 1.336 . S
N243 N242 1.354 . S
N243 Zn247 2.020 . S
C244 O245 1.244 . S
C244 O268 1.257 1_455 S
O245 C244 1.244 . S
O246 Zn238 2.019 . S
O246 C266 1.257 . S
Zn247 N243 2.020 . S
Zn247 O254 1.975 . S
Zn247 N263 2.119 1_455 S
Zn247 O268 2.019 1_455 S
N248 Zn238 2.119 . S
N248 C250 1.334 . S
N248 C251 1.328 . S
C249 C250 1.391 . S
C249 N252 1.329 . S
C249 H270 0.930 . S
C250 N248 1.334 . S
C250 C249 1.391 . S
C250 H257 0.930 . S
C251 N248 1.328 . S
C251 C253 1.392 . S
C251 H258 0.930 . S
N252 C249 1.329 . S
N252 C253 1.331 . S
C253 C251 1.392 . S
C253 N252 1.331 . S
O254 Zn247 1.975 . S
O254 C255 1.252 . S
C255 O254 1.252 . S
C255 O256 1.252 . S
O256 Zn238 1.975 . S
O256 C255 1.252 . S
H257 C250 0.930 . S
H258 C251 0.930 . S
C259 C260 1.392 . S
C259 N263 1.328 . S
C259 H265 0.930 . S
C260 C259 1.392 . S
C260 N264 1.331 . S
C261 C262 1.391 . S
C261 N264 1.329 . S
C261 H271 0.930 . S
C262 C261 1.391 . S
C262 N263 1.334 . S
C262 H269 0.930 . S
N263 Zn247 2.119 1_655 S
N263 C259 1.328 . S
N263 C262 1.334 . S
N264 C260 1.331 . S
N264 C261 1.329 . S
H265 C259 0.930 . S
C266 O246 1.257 . S
C266 O267 1.244 . S
O267 C266 1.244 . S
O268 C244 1.257 1_655 S
O268 Zn247 2.019 1_655 S
H269 C262 0.930 . S
H270 C249 0.930 . S
H271 C261 0.930 . S
H272 C278 0.930 . S
H273 C281 0.930 . S
H274 C282 0.930 . S
H275 C283 0.930 . S
H276 C286 0.930 . S
H277 C287 0.930 . S
C278 H272 0.930 . S
C278 C279 1.355 . S
C278 C280 1.415 . S
C279 C278 1.355 . S
C279 C281 1.419 . S
C280 C278 1.415 . S
C280 C285 1.425 . S
C280 C287 1.409 . S
C281 H273 0.930 . S
C281 C279 1.419 . S
C281 C282 1.362 . S
C282 H274 0.930 . S
C282 C281 1.362 . S
C282 C285 1.409 . S
C283 H275 0.930 . S
C283 C284 1.355 . S
C283 C285 1.415 . S
C284 C283 1.355 . S
C284 C286 1.419 . S
C285 C280 1.425 . S
C285 C282 1.409 . S
C285 C283 1.415 . S
C286 H276 0.930 . S
C286 C284 1.419 . S
C286 C287 1.362 . S
C287 H277 0.930 . S
C287 C280 1.409 . S
C287 C286 1.362 . S
H288 C294 0.930 . S
H289 C297 0.930 . S
H290 C298 0.930 . S
H291 C299 0.930 . S
H292 C302 0.930 . S
H293 C303 0.930 . S
C294 H288 0.930 . S
C294 C295 1.355 . S
C294 C296 1.415 . S
C295 C294 1.355 . S
C295 C297 1.419 . S
C296 C294 1.415 . S
C296 C301 1.425 . S
C296 C303 1.409 . S
C297 H289 0.930 . S
C297 C295 1.419 . S
C297 C298 1.362 . S
C298 H290 0.930 . S
C298 C297 1.362 . S
C298 C301 1.409 . S
C299 H291 0.930 . S
C299 C300 1.355 . S
C299 C301 1.415 . S
C300 C299 1.355 . S
C300 C302 1.419 . S
C301 C296 1.425 . S
C301 C298 1.409 . S
C301 C299 1.415 . S
C302 H292 0.930 . S
C302 C300 1.419 . S
C302 C303 1.362 . S
C303 H293 0.930 . S
C303 C296 1.409 . S
C303 C302 1.362 . S
H304 C310 0.930 . S
H305 C313 0.930 . S
H306 C314 0.930 . S
H307 C315 0.930 . S
H308 C318 0.930 . S
H309 C319 0.930 . S
C310 H304 0.930 . S
C310 C311 1.355 . S
C310 C312 1.415 . S
C311 C310 1.355 . S
C311 C313 1.419 . S
C312 C310 1.415 . S
C312 C317 1.425 . S
C312 C319 1.409 . S
C313 H305 0.930 . S
C313 C311 1.419 . S
C313 C314 1.362 . S
C314 H306 0.930 . S
C314 C313 1.362 . S
C314 C317 1.409 . S
C315 H307 0.930 . S
C315 C316 1.355 . S
C315 C317 1.415 . S
C316 C315 1.355 . S
C316 C318 1.419 . S
C317 C312 1.425 . S
C317 C314 1.409 . S
C317 C315 1.415 . S
C318 H308 0.930 . S
C318 C316 1.419 . S
C318 C319 1.362 . S
C319 H309 0.930 . S
C319 C312 1.409 . S
C319 C318 1.362 . S
H320 C326 0.930 . S
H321 C329 0.930 . S
H322 C330 0.930 . S
H323 C331 0.930 . S
H324 C334 0.930 . S
H325 C335 0.930 . S
C326 H320 0.930 . S
C326 C327 1.355 . S
C326 C328 1.415 . S
C327 C326 1.355 . S
C327 C329 1.419 . S
C328 C326 1.415 . S
C328 C333 1.425 . S
C328 C335 1.409 . S
C329 H321 0.930 . S
C329 C327 1.419 . S
C329 C330 1.362 . S
C330 H322 0.930 . S
C330 C329 1.362 . S
C330 C333 1.409 . S
C331 H323 0.930 . S
C331 C332 1.355 . S
C331 C333 1.415 . S
C332 C331 1.355 . S
C332 C334 1.419 . S
C333 C328 1.425 . S
C333 C330 1.409 . S
C333 C331 1.415 . S
C334 H324 0.930 . S
C334 C332 1.419 . S
C334 C335 1.362 . S
C335 H325 0.930 . S
C335 C328 1.409 . S
C335 C334 1.362 . S
H336 C342 0.930 . S
H337 C345 0.930 . S
H338 C346 0.930 . S
H339 C347 0.930 . S
H340 C350 0.930 . S
H341 C351 0.930 . S
C342 H336 0.930 . S
C342 C343 1.355 . S
C342 C344 1.415 . S
C343 C342 1.355 . S
C343 C345 1.419 . S
C344 C342 1.415 . S
C344 C349 1.425 . S
C344 C351 1.409 . S
C345 H337 0.930 . S
C345 C343 1.419 . S
C345 C346 1.362 . S
C346 H338 0.930 . S
C346 C345 1.362 . S
C346 C349 1.409 . S
C347 H339 0.930 . S
C347 C348 1.355 . S
C347 C349 1.415 . S
C348 C347 1.355 . S
C348 C350 1.419 . S
C349 C344 1.425 . S
C349 C346 1.409 . S
C349 C347 1.415 . S
C350 H340 0.930 . S
C350 C348 1.419 . S
C350 C351 1.362 . S
C351 H341 0.930 . S
C351 C344 1.409 . S
C351 C350 1.362 . S
H352 C358 0.930 . S
H353 C361 0.930 . S
H354 C362 0.930 . S
H355 C363 0.930 . S
H356 C366 0.930 . S
H357 C367 0.930 . S
C358 H352 0.930 . S
C358 C359 1.355 . S
C358 C360 1.415 . S
C359 C358 1.355 . S
C359 C361 1.419 . S
C360 C358 1.415 . S
C360 C365 1.425 . S
C360 C367 1.409 . S
C361 H353 0.930 . S
C361 C359 1.419 . S
C361 C362 1.362 . S
C362 H354 0.930 . S
C362 C361 1.362 . S
C362 C365 1.409 . S
C363 H355 0.930 . S
C363 C364 1.355 . S
C363 C365 1.415 . S
C364 C363 1.355 . S
C364 C366 1.419 . S
C365 C360 1.425 . S
C365 C362 1.409 . S
C365 C363 1.415 . S
C366 H356 0.930 . S
C366 C364 1.419 . S
C366 C367 1.362 . S
C367 H357 0.930 . S
C367 C360 1.409 . S
C367 C366 1.362 . S
H368 C374 0.930 . S
H369 C377 0.930 . S
H370 C378 0.930 . S
H371 C379 0.930 . S
H372 C382 0.930 . S
H373 C383 0.930 . S
C374 H368 0.930 . S
C374 C375 1.355 . S
C374 C376 1.415 . S
C375 C374 1.355 . S
C375 C377 1.419 . S
C376 C374 1.415 . S
C376 C381 1.425 . S
C376 C383 1.409 . S
C377 H369 0.930 . S
C377 C375 1.419 . S
C377 C378 1.362 . S
C378 H370 0.930 . S
C378 C377 1.362 . S
C378 C381 1.409 . S
C379 H371 0.930 . S
C379 C380 1.355 . S
C379 C381 1.415 . S
C380 C379 1.355 . S
C380 C382 1.419 . S
C381 C376 1.425 . S
C381 C378 1.409 . S
C381 C379 1.415 . S
C382 H372 0.930 . S
C382 C380 1.419 . S
C382 C383 1.362 . S
C383 H373 0.930 . S
C383 C376 1.409 . S
C383 C382 1.362 . S
H384 C390 0.930 . S
H385 C393 0.930 . S
H386 C394 0.930 . S
H387 C395 0.930 . S
H388 C398 0.930 . S
H389 C399 0.930 . S
C390 H384 0.930 . S
C390 C391 1.355 . S
C390 C392 1.415 . S
C391 C390 1.355 . S
C391 C393 1.419 . S
C392 C390 1.415 . S
C392 C397 1.425 . S
C392 C399 1.409 . S
C393 H385 0.930 . S
C393 C391 1.419 . S
C393 C394 1.362 . S
C394 H386 0.930 . S
C394 C393 1.362 . S
C394 C397 1.409 . S
C395 H387 0.930 . S
C395 C396 1.355 . S
C395 C397 1.415 . S
C396 C395 1.355 . S
C396 C398 1.419 . S
C397 C392 1.425 . S
C397 C394 1.409 . S
C397 C395 1.415 . S
C398 H388 0.930 . S
C398 C396 1.419 . S
C398 C399 1.362 . S
C399 H389 0.930 . S
C399 C392 1.409 . S
C399 C398 1.362 . S
H400 C406 0.930 . S
H401 C409 0.930 . S
H402 C410 0.930 . S
H403 C411 0.930 . S
H404 C414 0.930 . S
H405 C415 0.930 . S
C406 H400 0.930 . S
C406 C407 1.355 1_554 S
C406 C408 1.415 . S
C407 C406 1.355 1_556 S
C407 C409 1.419 . S
C408 C406 1.415 . S
C408 C413 1.425 1_554 S
C408 C415 1.409 . S
C409 H401 0.930 . S
C409 C407 1.419 . S
C409 C410 1.362 . S
C410 H402 0.930 . S
C410 C409 1.362 . S
C410 C413 1.409 . S
C411 H403 0.930 . S
C411 C412 1.355 1_556 S
C411 C413 1.415 . S
C412 C411 1.355 1_554 S
C412 C414 1.419 . S
C413 C408 1.425 1_556 S
C413 C410 1.409 . S
C413 C411 1.415 . S
C414 H404 0.930 . S
C414 C412 1.419 . S
C414 C415 1.362 . S
C415 H405 0.930 . S
C415 C408 1.409 . S
C415 C414 1.362 . S
H416 C422 0.930 . S
H417 C425 0.930 . S
H418 C426 0.930 . S
H419 C427 0.930 . S
H420 C430 0.930 . S
H421 C431 0.930 . S
C422 H416 0.930 . S
C422 C423 1.355 . S
C422 C424 1.415 . S
C423 C422 1.355 . S
C423 C425 1.419 . S
C424 C422 1.415 . S
C424 C429 1.425 . S
C424 C431 1.409 . S
C425 H417 0.930 . S
C425 C423 1.419 . S
C425 C426 1.362 . S
C426 H418 0.930 . S
C426 C425 1.362 . S
C426 C429 1.409 . S
C427 H419 0.930 . S
C427 C428 1.355 . S
C427 C429 1.415 . S
C428 C427 1.355 . S
C428 C430 1.419 . S
C429 C424 1.425 . S
C429 C426 1.409 . S
C429 C427 1.415 . S
C430 H420 0.930 . S
C430 C428 1.419 . S
C430 C431 1.362 . S
C431 H421 0.930 . S
C431 C424 1.409 . S
C431 C430 1.362 . S
H432 C438 0.930 . S
H433 C441 0.930 . S
H434 C442 0.930 1_565 S
H435 C443 0.930 . S
H436 C446 0.930 . S
H437 C447 0.930 1_545 S
C438 H432 0.930 . S
C438 C439 1.355 1_554 S
C438 C440 1.415 . S
C439 C438 1.355 1_556 S
C439 C441 1.419 . S
C440 C438 1.415 . S
C440 C445 1.425 1_544 S
C440 C447 1.409 1_545 S
C441 H433 0.930 . S
C441 C439 1.419 . S
C441 C442 1.362 . S
C442 H434 0.930 1_545 S
C442 C441 1.362 . S
C442 C445 1.409 1_545 S
C443 H435 0.930 . S
C443 C444 1.355 1_556 S
C443 C445 1.415 . S
C444 C443 1.355 1_554 S
C444 C446 1.419 . S
C445 C440 1.425 1_566 S
C445 C442 1.409 1_565 S
C445 C443 1.415 . S
C446 H436 0.930 . S
C446 C444 1.419 . S
C446 C447 1.362 . S
C447 H437 0.930 1_565 S
C447 C440 1.409 1_565 S
C447 C446 1.362 . S
H448 C454 0.930 . S
H449 C457 0.930 . S
H450 C458 0.930 . S
H451 C459 0.930 . S
H452 C462 0.930 . S
H453 C463 0.930 . S
C454 H448 0.930 . S
C454 C455 1.355 . S
C454 C456 1.415 . S
C455 C454 1.355 . S
C455 C457 1.419 1_455 S
C456 C454 1.415 . S
C456 C461 1.425 1_565 S
C456 C463 1.409 1_565 S
C457 H449 0.930 . S
C457 C455 1.419 1_655 S
C457 C458 1.362 . S
C458 H450 0.930 . S
C458 C457 1.362 . S
C458 C461 1.409 1_665 S
C459 H451 0.930 . S
C459 C460 1.355 1_655 S
C459 C461 1.415 1_655 S
C460 C459 1.355 1_455 S
C460 C462 1.419 . S
C461 C456 1.425 1_545 S
C461 C458 1.409 1_445 S
C461 C459 1.415 1_455 S
C462 H452 0.930 . S
C462 C460 1.419 . S
C462 C463 1.362 . S
C463 H453 0.930 . S
C463 C456 1.409 1_545 S
C463 C462 1.362 . S
H464 C470 0.930 . S
H465 C473 0.930 . S
H466 C474 0.959 . S
H467 C475 0.930 . S
H468 C478 0.930 . S
H469 C479 0.930 . S
C470 H464 0.930 . S
C470 C471 1.355 . S
C470 C472 1.415 . S
C471 C470 1.355 . S
C471 C473 1.419 . S
C472 C470 1.415 . S
C472 C477 1.425 . S
C472 C479 1.409 . S
C473 H465 0.930 . S
C473 C471 1.419 . S
C473 C474 1.362 . S
C474 H466 0.959 . S
C474 C473 1.362 . S
C474 C477 1.409 . S
C475 H467 0.930 . S
C475 C476 1.355 . S
C475 C477 1.415 . S
C476 C475 1.355 . S
C476 C478 1.419 . S
C477 C472 1.425 . S
C477 C474 1.409 . S
C477 C475 1.415 . S
C478 H468 0.930 . S
C478 C476 1.419 . S
C478 C479 1.362 . S
C479 H469 0.930 . S
C479 C472 1.409 . S
C479 C478 1.362 . S
H480 C486 0.930 . S
H481 C489 0.930 . S
H482 C490 0.930 . S
H483 C491 0.930 . S
H484 C494 0.930 . S
H485 C495 0.930 . S
C486 H480 0.930 . S
C486 C487 1.355 . S
C486 C488 1.415 . S
C487 C486 1.355 . S
C487 C489 1.419 . S
C488 C486 1.415 . S
C488 C493 1.425 . S
C488 C495 1.409 . S
C489 H481 0.930 . S
C489 C487 1.419 . S
C489 C490 1.362 . S
C490 H482 0.930 . S
C490 C489 1.362 . S
C490 C493 1.409 . S
C491 H483 0.930 . S
C491 C492 1.355 . S
C491 C493 1.415 . S
C492 C491 1.355 . S
C492 C494 1.419 . S
C493 C488 1.425 . S
C493 C490 1.409 . S
C493 C491 1.415 . S
C494 H484 0.930 . S
C494 C492 1.419 . S
C494 C495 1.362 . S
C495 H485 0.930 . S
C495 C488 1.409 . S
C495 C494 1.362 . S
H496 C502 0.930 . S
H497 C505 0.930 . S
H498 C506 0.930 . S
H499 C507 0.930 . S
H500 C510 0.930 . S
H501 C511 0.930 . S
C502 H496 0.930 . S
C502 C503 1.355 . S
C502 C504 1.415 . S
C503 C502 1.355 . S
C503 C505 1.419 . S
C504 C502 1.415 . S
C504 C509 1.425 . S
C504 C511 1.409 . S
C505 H497 0.930 . S
C505 C503 1.419 . S
C505 C506 1.362 . S
C506 H498 0.930 . S
C506 C505 1.362 . S
C506 C509 1.409 . S
C507 H499 0.930 . S
C507 C508 1.355 . S
C507 C509 1.415 . S
C508 C507 1.355 . S
C508 C510 1.419 1_554 S
C509 C504 1.425 . S
C509 C506 1.409 . S
C509 C507 1.415 . S
C510 H500 0.930 . S
C510 C508 1.419 1_556 S
C510 C511 1.362 1_556 S
C511 H501 0.930 . S
C511 C504 1.409 . S
C511 C510 1.362 1_554 S
H512 C518 0.930 . S
H513 C521 0.930 . S
H514 C522 0.930 . S
H515 C523 0.930 . S
H516 C526 0.930 . S
H517 C527 0.930 . S
C518 H512 0.930 . S
C518 C519 1.355 . S
C518 C520 1.415 . S
C519 C518 1.355 . S
C519 C521 1.419 . S
C520 C518 1.415 . S
C520 C525 1.425 . S
C520 C527 1.409 . S
C521 H513 0.930 . S
C521 C519 1.419 . S
C521 C522 1.362 . S
C522 H514 0.930 . S
C522 C521 1.362 . S
C522 C525 1.409 . S
C523 H515 0.930 . S
C523 C524 1.355 . S
C523 C525 1.415 . S
C524 C523 1.355 . S
C524 C526 1.419 . S
C525 C520 1.425 . S
C525 C522 1.409 . S
C525 C523 1.415 . S
C526 H516 0.930 . S
C526 C524 1.419 . S
C526 C527 1.362 . S
C527 H517 0.930 . S
C527 C520 1.409 . S
C527 C526 1.362 . S
H528 C534 0.930 . S
H529 C537 0.930 . S
H530 C538 0.930 . S
H531 C539 0.930 . S
H532 C542 0.930 . S
H533 C543 0.930 . S
C534 H528 0.930 . S
C534 C535 1.355 . S
C534 C536 1.415 . S
C535 C534 1.355 . S
C535 C537 1.419 . S
C536 C534 1.415 . S
C536 C541 1.425 . S
C536 C543 1.409 1_556 S
C537 H529 0.930 . S
C537 C535 1.419 . S
C537 C538 1.362 . S
C538 H530 0.930 . S
C538 C537 1.362 . S
C538 C541 1.409 . S
C539 H531 0.930 . S
C539 C540 1.355 . S
C539 C541 1.415 . S
C540 C539 1.355 . S
C540 C542 1.419 1_556 S
C541 C536 1.425 . S
C541 C538 1.409 . S
C541 C539 1.415 . S
C542 H532 0.930 . S
C542 C540 1.419 1_554 S
C542 C543 1.362 . S
C543 H533 0.930 . S
C543 C536 1.409 1_554 S
C543 C542 1.362 . S
H544 C550 0.930 . S
H545 C553 0.930 . S
H546 C554 0.930 . S
H547 C555 0.930 . S
H548 C558 0.930 . S
H549 C559 0.930 . S
C550 H544 0.930 . S
C550 C551 1.355 . S
C550 C552 1.415 . S
C551 C550 1.355 . S
C551 C553 1.419 . S
C552 C550 1.415 . S
C552 C557 1.425 . S
C552 C559 1.409 . S
C553 H545 0.930 . S
C553 C551 1.419 . S
C553 C554 1.362 . S
C554 H546 0.930 . S
C554 C553 1.362 . S
C554 C557 1.409 . S
C555 H547 0.930 . S
C555 C556 1.355 . S
C555 C557 1.415 . S
C556 C555 1.355 . S
C556 C558 1.419 . S
C557 C552 1.425 . S
C557 C554 1.409 . S
C557 C555 1.415 . S
C558 H548 0.930 . S
C558 C556 1.419 . S
C558 C559 1.362 . S
C559 H549 0.930 . S
C559 C552 1.409 . S
C559 C558 1.362 . S
H560 C566 0.930 . S
H561 C569 0.930 . S
H562 C570 0.930 . S
H563 C571 0.930 . S
H564 C574 0.930 . S
H565 C575 0.930 . S
C566 H560 0.930 . S
C566 C567 1.355 . S
C566 C568 1.415 . S
C567 C566 1.355 . S
C567 C569 1.419 . S
C568 C566 1.415 . S
C568 C573 1.425 . S
C568 C575 1.409 1_554 S
C569 H561 0.930 . S
C569 C567 1.419 . S
C569 C570 1.362 . S
C570 H562 0.930 . S
C570 C569 1.362 . S
C570 C573 1.409 . S
C571 H563 0.930 . S
C571 C572 1.355 . S
C571 C573 1.415 . S
C572 C571 1.355 . S
C572 C574 1.419 1_554 S
C573 C568 1.425 . S
C573 C570 1.409 . S
C573 C571 1.415 . S
C574 H564 0.930 . S
C574 C572 1.419 1_556 S
C574 C575 1.362 . S
C575 H565 0.930 . S
C575 C568 1.409 1_556 S
C575 C574 1.362 . S
H576 C582 0.930 . S
H577 C585 0.930 . S
H578 C586 0.930 . S
H579 C587 0.930 . S
H580 C590 0.930 . S
H581 C591 0.930 . S
C582 H576 0.930 . S
C582 C583 1.355 . S
C582 C584 1.415 . S
C583 C582 1.355 . S
C583 C585 1.419 . S
C584 C582 1.415 . S
C584 C589 1.425 . S
C584 C591 1.409 . S
C585 H577 0.930 . S
C585 C583 1.419 . S
C585 C586 1.362 . S
C586 H578 0.930 . S
C586 C585 1.362 . S
C586 C589 1.409 . S
C587 H579 0.930 . S
C587 C588 1.355 . S
C587 C589 1.415 . S
C588 C587 1.355 . S
C588 C590 1.419 . S
C589 C584 1.425 . S
C589 C586 1.409 . S
C589 C587 1.415 . S
C590 H580 0.930 . S
C590 C588 1.419 . S
C590 C591 1.362 . S
C591 H581 0.930 . S
C591 C584 1.409 . S
C591 C590 1.362 . S
H592 C598 0.930 . S
H593 C601 0.930 . S
H594 C602 0.930 . S
H595 C603 0.930 . S
H596 C606 0.930 . S
H597 C607 0.930 . S
C598 H592 0.930 . S
C598 C599 1.355 . S
C598 C600 1.415 . S
C599 C598 1.355 . S
C599 C601 1.419 . S
C600 C598 1.415 . S
C600 C605 1.425 . S
C600 C607 1.409 . S
C601 H593 0.930 . S
C601 C599 1.419 . S
C601 C602 1.362 . S
C602 H594 0.930 . S
C602 C601 1.362 . S
C602 C605 1.409 . S
C603 H595 0.930 . S
C603 C604 1.355 . S
C603 C605 1.415 . S
C604 C603 1.355 . S
C604 C606 1.419 . S
C605 C600 1.425 . S
C605 C602 1.409 . S
C605 C603 1.415 . S
C606 H596 0.930 . S
C606 C604 1.419 . S
C606 C607 1.362 . S
C607 H597 0.930 . S
C607 C600 1.409 . S
C607 C606 1.362 . S
H608 C614 0.930 . S
H609 C617 0.930 . S
H610 C618 0.930 . S
H611 C619 0.930 1_556 S
H612 C622 0.930 1_556 S
H613 C623 0.930 . S
C614 H608 0.930 . S
C614 C615 1.355 . S
C614 C616 1.415 . S
C615 C614 1.355 . S
C615 C617 1.419 . S
C616 C614 1.415 . S
C616 C621 1.425 . S
C616 C623 1.409 . S
C617 H609 0.930 . S
C617 C615 1.419 . S
C617 C618 1.362 . S
C618 H610 0.930 . S
C618 C617 1.362 . S
C618 C621 1.409 . S
C619 H611 0.930 1_554 S
C619 C620 1.355 1_554 S
C619 C621 1.415 . S
C620 C619 1.355 1_556 S
C620 C622 1.419 1_556 S
C621 C616 1.425 . S
C621 C618 1.409 . S
C621 C619 1.415 . S
C622 H612 0.930 1_554 S
C622 C620 1.419 1_554 S
C622 C623 1.362 . S
C623 H613 0.930 . S
C623 C616 1.409 . S
C623 C622 1.362 . S
H624 C630 0.930 . S
H625 C633 0.930 . S
H626 C634 0.930 . S
H627 C635 0.930 . S
H628 C638 0.930 . S
H629 C639 0.930 . S
C630 H624 0.930 . S
C630 C631 1.355 . S
C630 C632 1.415 . S
C631 C630 1.355 . S
C631 C633 1.419 . S
C632 C630 1.415 . S
C632 C637 1.425 . S
C632 C639 1.409 . S
C633 H625 0.930 . S
C633 C631 1.419 . S
C633 C634 1.362 . S
C634 H626 0.930 . S
C634 C633 1.362 . S
C634 C637 1.409 . S
C635 H627 0.930 . S
C635 C636 1.355 . S
C635 C637 1.415 . S
C636 C635 1.355 . S
C636 C638 1.419 . S
C637 C632 1.425 . S
C637 C634 1.409 . S
C637 C635 1.415 . S
C638 H628 0.930 . S
C638 C636 1.419 . S
C638 C639 1.362 . S
C639 H629 0.930 . S
C639 C632 1.409 . S
C639 C638 1.362 . S
H640 C646 0.930 . S
H641 C649 0.930 . S
H642 C650 0.930 . S
H643 C651 0.930 . S
H644 C654 0.930 . S
H645 C655 0.930 . S
C646 H640 0.930 . S
C646 C647 1.355 . S
C646 C648 1.415 . S
C647 C646 1.355 . S
C647 C649 1.419 . S
C648 C646 1.415 . S
C648 C653 1.425 . S
C648 C655 1.409 . S
C649 H641 0.930 . S
C649 C647 1.419 . S
C649 C650 1.362 . S
C650 H642 0.930 . S
C650 C649 1.362 . S
C650 C653 1.409 . S
C651 H643 0.930 . S
C651 C652 1.355 1_556 S
C651 C653 1.415 . S
C652 C651 1.355 1_554 S
C652 C654 1.419 . S
C653 C648 1.425 . S
C653 C650 1.409 . S
C653 C651 1.415 . S
C654 H644 0.930 . S
C654 C652 1.419 . S
C654 C655 1.362 1_554 S
C655 H645 0.930 . S
C655 C648 1.409 . S
C655 C654 1.362 1_556 S
H656 C662 0.930 . S
H657 C665 0.930 . S
H658 C666 0.930 . S
H659 C667 0.930 . S
H660 C670 0.930 . S
H661 C671 0.930 . S
C662 H656 0.930 . S
C662 C663 1.355 . S
C662 C664 1.415 . S
C663 C662 1.355 . S
C663 C665 1.419 . S
C664 C662 1.415 . S
C664 C669 1.425 . S
C664 C671 1.409 . S
C665 H657 0.930 . S
C665 C663 1.419 . S
C665 C666 1.362 . S
C666 H658 0.930 . S
C666 C665 1.362 . S
C666 C669 1.409 . S
C667 H659 0.930 . S
C667 C668 1.355 . S
C667 C669 1.415 . S
C668 C667 1.355 . S
C668 C670 1.419 . S
C669 C664 1.425 . S
C669 C666 1.409 . S
C669 C667 1.415 . S
C670 H660 0.930 . S
C670 C668 1.419 . S
C670 C671 1.362 . S
C671 H661 0.930 . S
C671 C664 1.409 . S
C671 C670 1.362 . S
H672 C678 0.930 . S
H673 C681 0.930 . S
H674 C682 0.930 . S
H675 C683 0.930 1_556 S
H676 C686 0.930 . S
H677 C687 0.930 . S
C678 H672 0.930 . S
C678 C679 1.355 . S
C678 C680 1.415 . S
C679 C678 1.355 . S
C679 C681 1.419 1_455 S
C680 C678 1.415 . S
C680 C685 1.425 . S
C680 C687 1.409 . S
C681 H673 0.930 . S
C681 C679 1.419 1_655 S
C681 C682 1.362 . S
C682 H674 0.930 . S
C682 C681 1.362 . S
C682 C685 1.409 1_655 S
C683 H675 0.930 1_554 S
C683 C684 1.355 1_554 S
C683 C685 1.415 . S
C684 C683 1.355 1_556 S
C684 C686 1.419 . S
C685 C680 1.425 . S
C685 C682 1.409 1_455 S
C685 C683 1.415 . S
C686 H676 0.930 . S
C686 C684 1.419 . S
C686 C687 1.362 1_556 S
C687 H677 0.930 . S
C687 C680 1.409 . S
C687 C686 1.362 1_554 S
H688 C694 0.930 . S
H689 C697 0.930 . S
H690 C698 0.930 . S
H691 C699 0.930 . S
H692 C702 0.930 . S
H693 C703 0.930 . S
C694 H688 0.930 . S
C694 C695 1.355 . S
C694 C696 1.415 . S
C695 C694 1.355 . S
C695 C697 1.419 . S
C696 C694 1.415 . S
C696 C701 1.425 . S
C696 C703 1.409 . S
C697 H689 0.930 . S
C697 C695 1.419 . S
C697 C698 1.362 . S
C698 H690 0.930 . S
C698 C697 1.362 . S
C698 C701 1.409 . S
C699 H691 0.930 . S
C699 C700 1.355 . S
C699 C701 1.415 . S
C700 C699 1.355 . S
C700 C702 1.419 . S
C701 C696 1.425 . S
C701 C698 1.409 . S
C701 C699 1.415 . S
C702 H692 0.930 . S
C702 C700 1.419 . S
C702 C703 1.362 . S
C703 H693 0.930 . S
C703 C696 1.409 . S
C703 C702 1.362 . S
H704 C710 0.930 . S
H705 C713 0.930 . S
H706 C714 0.930 . S
H707 C715 0.930 . S
H708 C718 0.930 . S
H709 C719 0.930 . S
C710 H704 0.930 . S
C710 C711 1.355 . S
C710 C712 1.415 . S
C711 C710 1.355 . S
C711 C713 1.419 . S
C712 C710 1.415 . S
C712 C717 1.425 . S
C712 C719 1.409 . S
C713 H705 0.930 . S
C713 C711 1.419 . S
C713 C714 1.362 . S
C714 H706 0.930 . S
C714 C713 1.362 . S
C714 C717 1.409 . S
C715 H707 0.930 . S
C715 C716 1.355 1_556 S
C715 C717 1.415 . S
C716 C715 1.355 1_554 S
C716 C718 1.419 . S
C717 C712 1.425 . S
C717 C714 1.409 . S
C717 C715 1.415 . S
C718 H708 0.930 . S
C718 C716 1.419 . S
C718 C719 1.362 1_554 S
C719 H709 0.930 . S
C719 C712 1.409 . S
C719 C718 1.362 1_556 S
C279 C124 0.959 . S
C284 C15 0.888 . S
C295 C90 0.841 . S
C300 C49 0.792 . S
C311 C56 2.478 . S
C316 C83 2.505 . S
C327 C22 2.459 . S
C332 C117 2.505 . S
C343 C151 0.960 . S
C348 C260 0.845 . S
C359 C185 0.957 . S
C364 C226 0.898 . S
C375 C192 2.480 . S
C380 C219 2.463 . S
C391 C158 2.490 . S
C396 C253 2.497 . S
C407 C74 1.499 . S
C412 C28 1.492 . S
C423 C108 1.492 . S
C428 C62 1.499 . S
C439 C210 1.500 . S
C444 C164 1.491 . S
C455 C244 1.499 . S
C460 C198 1.489 . S
C471 C1 1.242 . S
C476 C176 1.288 . S
C487 C35 1.252 . S
C492 C142 1.286 . S
C503 C266 1.278 . S
C508 C71 1.264 . S
C519 C232 1.273 . S
C524 C105 1.256 . S
C535 C40 1.267 . S
C540 C137 1.203 . S
C551 C6 1.286 . S
C556 C171 1.185 . S
C567 C130 1.268 . S
C572 C207 1.185 . S
C583 C96 1.281 . S
C588 C241 1.165 . S
C599 C3 1.470 . S
C604 C17 1.694 . S
C615 C37 1.472 . S
C620 C51 1.699 . S
C631 C69 1.526 . S
C636 C85 1.701 . S
C647 C103 1.474 . S
C652 C119 1.684 . S
C663 C139 1.474 . S
C668 C153 1.684 . S
C679 C173 1.576 . S
C684 C187 1.674 . S
C695 C205 1.527 . S
C700 C221 1.655 . S
C711 C239 1.562 . S
C716 C255 1.651 . S
