# Generated by pormake.
# Topology wmc, (6)-cn, num edge types: 1
# Building blocks:
#     Node 0, Type 0, BuildingBlock: UKALOJ_clean_sbu_0, # of connection points: 6
#     Node 1, Type 0, BuildingBlock: UKALOJ_clean_sbu_0, # of connection points: 6
#     Node 2, Type 0, BuildingBlock: UKALOJ_clean_sbu_0, # of connection points: 6
#     Node 3, Type 0, BuildingBlock: UKALOJ_clean_sbu_0, # of connection points: 6
#     Node 4, Type 0, BuildingBlock: UKALOJ_clean_sbu_0, # of connection points: 6
#     Node 5, Type 0, BuildingBlock: UKALOJ_clean_sbu_0, # of connection points: 6
#     Node 6, Type 0, BuildingBlock: UKALOJ_clean_sbu_0, # of connection points: 6
#     Node 7, Type 0, BuildingBlock: UKALOJ_clean_sbu_0, # of connection points: 6
#     Node 8, Type 0, BuildingBlock: UKALOJ_clean_sbu_0, # of connection points: 6
#     Node 9, Type 0, BuildingBlock: UKALOJ_clean_sbu_0, # of connection points: 6
#     Node 10, Type 0, BuildingBlock: UKALOJ_clean_sbu_0, # of connection points: 6
#     Node 11, Type 0, BuildingBlock: UKALOJ_clean_sbu_0, # of connection points: 6
#     Node 12, Type 0, BuildingBlock: UKALOJ_clean_sbu_0, # of connection points: 6
#     Node 13, Type 0, BuildingBlock: UKALOJ_clean_sbu_0, # of connection points: 6
#     Node 14, Type 0, BuildingBlock: UKALOJ_clean_sbu_0, # of connection points: 6
#     Node 15, Type 0, BuildingBlock: UKALOJ_clean_sbu_0, # of connection points: 6
#     Node 16, Type 0, BuildingBlock: UKALOJ_clean_sbu_0, # of connection points: 6
#     Node 17, Type 0, BuildingBlock: UKALOJ_clean_sbu_0, # of connection points: 6
#     Edge 18, Type (0, 0), BuildingBlock: XIVTED_clean_linker_0, # of connection points: 2
#     Edge 19, Type (0, 0), BuildingBlock: XIVTED_clean_linker_0, # of connection points: 2
#     Edge 20, Type (0, 0), BuildingBlock: XIVTED_clean_linker_0, # of connection points: 2
#     Edge 21, Type (0, 0), BuildingBlock: XIVTED_clean_linker_0, # of connection points: 2
#     Edge 22, Type (0, 0), BuildingBlock: XIVTED_clean_linker_0, # of connection points: 2
#     Edge 23, Type (0, 0), BuildingBlock: XIVTED_clean_linker_0, # of connection points: 2
#     Edge 24, Type (0, 0), BuildingBlock: XIVTED_clean_linker_0, # of connection points: 2
#     Edge 25, Type (0, 0), BuildingBlock: XIVTED_clean_linker_0, # of connection points: 2
#     Edge 26, Type (0, 0), BuildingBlock: XIVTED_clean_linker_0, # of connection points: 2
#     Edge 27, Type (0, 0), BuildingBlock: XIVTED_clean_linker_0, # of connection points: 2
#     Edge 28, Type (0, 0), BuildingBlock: XIVTED_clean_linker_0, # of connection points: 2
#     Edge 29, Type (0, 0), BuildingBlock: XIVTED_clean_linker_0, # of connection points: 2
#     Edge 30, Type (0, 0), BuildingBlock: XIVTED_clean_linker_0, # of connection points: 2
#     Edge 31, Type (0, 0), BuildingBlock: XIVTED_clean_linker_0, # of connection points: 2
#     Edge 32, Type (0, 0), BuildingBlock: XIVTED_clean_linker_0, # of connection points: 2
#     Edge 33, Type (0, 0), BuildingBlock: XIVTED_clean_linker_0, # of connection points: 2
#     Edge 34, Type (0, 0), BuildingBlock: XIVTED_clean_linker_0, # of connection points: 2
#     Edge 35, Type (0, 0), BuildingBlock: XIVTED_clean_linker_0, # of connection points: 2
#     Edge 36, Type (0, 0), BuildingBlock: XIVTED_clean_linker_0, # of connection points: 2
#     Edge 37, Type (0, 0), BuildingBlock: XIVTED_clean_linker_0, # of connection points: 2
#     Edge 38, Type (0, 0), BuildingBlock: XIVTED_clean_linker_0, # of connection points: 2
#     Edge 39, Type (0, 0), BuildingBlock: XIVTED_clean_linker_0, # of connection points: 2
#     Edge 40, Type (0, 0), BuildingBlock: XIVTED_clean_linker_0, # of connection points: 2
#     Edge 41, Type (0, 0), BuildingBlock: XIVTED_clean_linker_0, # of connection points: 2
#     Edge 42, Type (0, 0), BuildingBlock: XIVTED_clean_linker_0, # of connection points: 2
#     Edge 43, Type (0, 0), BuildingBlock: XIVTED_clean_linker_0, # of connection points: 2
#     Edge 44, Type (0, 0), BuildingBlock: XIVTED_clean_linker_0, # of connection points: 2
#     Edge 45, Type (0, 0), BuildingBlock: XIVTED_clean_linker_0, # of connection points: 2
#     Edge 46, Type (0, 0), BuildingBlock: XIVTED_clean_linker_0, # of connection points: 2
#     Edge 47, Type (0, 0), BuildingBlock: XIVTED_clean_linker_0, # of connection points: 2
#     Edge 48, Type (0, 0), BuildingBlock: XIVTED_clean_linker_0, # of connection points: 2
#     Edge 49, Type (0, 0), BuildingBlock: XIVTED_clean_linker_0, # of connection points: 2
#     Edge 50, Type (0, 0), BuildingBlock: XIVTED_clean_linker_0, # of connection points: 2
#     Edge 51, Type (0, 0), BuildingBlock: XIVTED_clean_linker_0, # of connection points: 2
#     Edge 52, Type (0, 0), BuildingBlock: XIVTED_clean_linker_0, # of connection points: 2
#     Edge 53, Type (0, 0), BuildingBlock: XIVTED_clean_linker_0, # of connection points: 2
#     Edge 54, Type (0, 0), BuildingBlock: XIVTED_clean_linker_0, # of connection points: 2
#     Edge 55, Type (0, 0), BuildingBlock: XIVTED_clean_linker_0, # of connection points: 2
#     Edge 56, Type (0, 0), BuildingBlock: XIVTED_clean_linker_0, # of connection points: 2
#     Edge 57, Type (0, 0), BuildingBlock: XIVTED_clean_linker_0, # of connection points: 2
#     Edge 58, Type (0, 0), BuildingBlock: XIVTED_clean_linker_0, # of connection points: 2
#     Edge 59, Type (0, 0), BuildingBlock: XIVTED_clean_linker_0, # of connection points: 2
#     Edge 60, Type (0, 0), BuildingBlock: XIVTED_clean_linker_0, # of connection points: 2
#     Edge 61, Type (0, 0), BuildingBlock: XIVTED_clean_linker_0, # of connection points: 2
#     Edge 62, Type (0, 0), BuildingBlock: XIVTED_clean_linker_0, # of connection points: 2
#     Edge 63, Type (0, 0), BuildingBlock: XIVTED_clean_linker_0, # of connection points: 2
#     Edge 64, Type (0, 0), BuildingBlock: XIVTED_clean_linker_0, # of connection points: 2
#     Edge 65, Type (0, 0), BuildingBlock: XIVTED_clean_linker_0, # of connection points: 2
#     Edge 66, Type (0, 0), BuildingBlock: XIVTED_clean_linker_0, # of connection points: 2
#     Edge 67, Type (0, 0), BuildingBlock: XIVTED_clean_linker_0, # of connection points: 2
#     Edge 68, Type (0, 0), BuildingBlock: XIVTED_clean_linker_0, # of connection points: 2
#     Edge 69, Type (0, 0), BuildingBlock: XIVTED_clean_linker_0, # of connection points: 2
#     Edge 70, Type (0, 0), BuildingBlock: XIVTED_clean_linker_0, # of connection points: 2
#     Edge 71, Type (0, 0), BuildingBlock: XIVTED_clean_linker_0, # of connection points: 2
# Relax obj value: 0.394
# Max RMSD: 0.230
# Mean RMSD: 0.230
data_MOF--net-wmc--node1-UKALOJ_clean_sbu_0--edge1-XIVTED_clean_linker_0
_symmetry_space_group_name_H-M    P1
_symmetry_Int_Tables_number       1
_symmetry_cell_setting            triclinic
loop_
_symmetry_equiv_pos_as_xyz
'x, y, z'
_cell_length_a     52.208011
_cell_length_b     52.183094
_cell_length_c     29.057462
_cell_angle_alpha  90.067277
_cell_angle_beta   89.970535
_cell_angle_gamma 120.0527
loop_
_atom_site_label
_atom_site_type_symbol
_atom_site_fract_x
_atom_site_fract_y
_atom_site_fract_z
_atom_type_partial_charge
Zn0 Zn 0.58769 0.09984 0.0216 0.0
O1 O 0.55876 0.11835 0.01521 0.0
C2 C 0.61233 0.12821 0.93095 0.0
Zn3 Zn 0.62346 0.14721 0.02744 0.0
C4 C 0.56805 0.14585 0.02017 0.0
O5 O 0.59533 0.16378 0.02614 0.0
C6 C 0.64604 0.10434 0.03269 0.0
O7 O 0.61697 0.14225 0.09967 0.0
O8 O 0.57972 0.09675 0.09213 0.0
N9 N 0.65895 0.18881 0.03651 0.0
C10 C 0.68446 0.20394 0.01272 0.0
C11 C 0.68762 0.22997 0.07132 0.0
N12 N 0.66099 0.20503 0.07292 0.0
N13 N 0.70276 0.22981 0.03386 0.0
C14 C 0.52679 0.04948 0.98414 0.0
C15 C 0.52221 0.0103 0.01444 0.0
N16 N 0.55124 0.05773 0.01025 0.0
N17 N 0.54826 0.03324 0.02897 0.0
N18 N 0.50817 0.01998 0.98666 0.0
H19 H 0.50938 0.07838 0.97348 0.0
H20 H 0.50821 0.0577 0.92338 0.0
H21 H 0.54281 0.08868 0.94172 0.0
C22 C 0.52171 0.06978 0.95381 0.0
C23 C 0.69222 0.19266 0.97051 0.0
H24 H 0.7165 0.20205 0.96783 0.0
H25 H 0.68455 0.1994 0.93964 0.0
H26 H 0.68137 0.16825 0.97066 0.0
O27 O 0.65209 0.13098 0.03017 0.0
O28 O 0.619 0.08358 0.03113 0.0
C29 C 0.59568 0.11903 0.11743 0.0
O30 O 0.59577 0.10375 0.9509 0.0
O31 O 0.62729 0.15141 0.95492 0.0
Zn32 Zn 0.90912 0.48687 0.01068 0.0
O33 O 0.89164 0.44073 0.99065 0.0
C34 C 0.88818 0.49624 0.92107 0.0
Zn35 Zn 0.86164 0.47469 0.01291 0.0
C36 C 0.86413 0.42326 0.98386 0.0
O37 O 0.84612 0.43243 0.99004 0.0
C38 C 0.90301 0.53717 0.04377 0.0
O39 O 0.85975 0.46012 0.0824 0.0
O40 O 0.90695 0.474 0.07831 0.0
N41 N 0.81929 0.46657 0.01765 0.0
C42 C 0.80725 0.4834 0.00672 0.0
C43 C 0.77277 0.4427 0.03394 0.0
N44 N 0.79785 0.44132 0.03454 0.0
N45 N 0.77812 0.46886 0.01669 0.0
C46 C 0.96255 0.4801 0.97788 0.0
C47 C 0.9955 0.5047 0.02811 0.0
N48 N 0.9515 0.49295 0.00604 0.0
N49 N 0.97211 0.50825 0.03714 0.0
N50 N 0.99008 0.48682 0.99138 0.0
H51 H 0.93048 0.46763 0.92284 0.0
H52 H 0.93486 0.4382 0.94552 0.0
H53 H 0.9629 0.46556 0.90848 0.0
C54 C 0.94684 0.46201 0.93621 0.0
C55 C 0.82462 0.5151 0.99147 0.0
H56 H 0.83348 0.52941 0.02239 0.0
H57 H 0.81072 0.52209 0.97266 0.0
H58 H 0.84352 0.5189 0.96955 0.0
O59 O 0.87665 0.51684 0.03683 0.0
O60 O 0.92431 0.5326 0.03405 0.0
C61 C 0.88298 0.46257 0.10094 0.0
O62 O 0.91085 0.49947 0.94223 0.0
O63 O 0.86417 0.48754 0.9431 0.0
Zn64 Zn 0.52175 0.42341 0.99278 0.0
O65 O 0.56876 0.45321 0.9847 0.0
C66 C 0.52274 0.39999 0.8996 0.0
Zn67 Zn 0.5333 0.38755 -0.0058 0.0
C68 C 0.58698 0.44386 0.98278 0.0
O69 O 0.57781 0.41648 0.98613 0.0
C70 C 0.46825 0.36442 0.00664 0.0
O71 O 0.53893 0.39396 0.06713 0.0
O72 O 0.52781 0.42945 0.06321 0.0
N73 N 0.54165 0.35344 -0.00498 0.0
C74 C 0.52804 0.32652 0.01509 0.0
C75 C 0.55989 0.32751 0.96798 0.0
N76 N 0.56153 0.35403 0.96606 0.0
N77 N 0.53899 0.30983 -0.0017 0.0
C78 C 0.53117 0.48474 0.96161 0.0
C79 C 0.49803 0.48909 -0.00239 0.0
N80 N 0.51545 0.45966 0.98655 0.0
N81 N 0.49481 0.46246 0.00881 0.0
N82 N 0.52092 0.50355 0.9684 0.0
H83 H 0.57724 0.50289 0.94729 0.0
H84 H 0.55632 0.50486 0.89995 0.0
H85 H 0.55347 0.47005 0.91448 0.0
C86 C 0.5558 0.49072 0.92885 0.0
C87 C 0.50221 0.31579 0.04722 0.0
H88 H 0.50336 0.33452 0.06699 0.0
H89 H 0.50134 0.29905 0.07151 0.0
H90 H 0.48144 0.30519 0.02683 0.0
O91 O 0.48849 0.35804 0.00172 0.0
O92 O 0.47468 0.39149 0.00453 0.0
C93 C 0.53594 0.41423 0.08668 0.0
O94 O 0.51646 0.41726 0.92126 0.0
O95 O 0.52951 0.3834 0.92206 0.0
Zn96 Zn 0.91256 0.4272 0.51519 0.0
O97 O 0.8981 0.45908 0.50624 0.0
C98 C 0.88557 0.40293 0.4242 0.0
Zn99 Zn 0.86428 0.39364 0.52029 0.0
C100 C 0.87103 0.45175 0.50914 0.0
O101 O 0.85162 0.42499 0.51537 0.0
C102 C 0.90313 0.36658 0.52904 0.0
O103 O 0.86676 0.39987 0.59245 0.0
O104 O 0.91356 0.4348 0.58605 0.0
N105 N 0.82055 0.3617 0.52238 0.0
C106 C 0.8057 0.33324 0.53653 0.0
C107 C 0.7758 0.34075 0.49676 0.0
N108 N 0.80174 0.36632 0.49819 0.0
N109 N 0.77767 0.31964 0.52052 0.0
C110 C 0.96608 0.48673 0.48048 0.0
C111 C 1.00322 0.49039 0.51655 0.0
N112 N 0.95604 0.46204 0.50672 0.0
N113 N 0.97928 0.46444 0.52902 0.0
N114 N 0.99539 0.50494 0.48652 0.0
H115 H 0.93978 0.50639 0.4641 0.0
H116 H 0.96149 0.50549 0.41703 0.0
H117 H 0.92867 0.47212 0.43419 0.0
C118 C 0.94784 0.49275 0.44695 0.0
C119 C 0.81923 0.31821 0.56255 0.0
H120 H 0.8375 0.33432 0.5848 0.0
H121 H 0.80251 0.30009 0.58422 0.0
H122 H 0.82797 0.30836 0.53769 0.0
O123 O 0.87706 0.36217 0.52525 0.0
O124 O 0.92505 0.39309 0.52729 0.0
C125 C 0.89045 0.42038 0.6106 0.0
O126 O 0.91019 0.41916 0.44403 0.0
O127 O 0.86226 0.38927 0.44823 0.0
Zn128 Zn 0.59082 0.49025 0.49462 0.0
O129 O 0.56113 0.44286 0.48535 0.0
C130 C 0.61261 0.49105 0.40015 0.0
Zn131 Zn 0.62684 0.47902 0.49346 0.0
C132 C 0.57087 0.42496 0.48182 0.0
O133 O 0.59835 0.43454 0.48424 0.0
C134 C 0.64943 0.54399 0.50834 0.0
O135 O 0.62206 0.47231 0.56671 0.0
O136 O 0.58655 0.4834 0.56466 0.0
N137 N 0.66144 0.47149 0.49057 0.0
C138 C 0.68878 0.48543 0.50921 0.0
C139 C 0.68766 0.4548 0.45943 0.0
N140 N 0.66077 0.45234 0.45997 0.0
N141 N 0.70565 0.47546 0.48987 0.0
C142 C 0.53091 0.48458 0.46358 0.0
C143 C 0.51909 0.50229 0.52047 0.0
N144 N 0.55383 0.49541 0.49363 0.0
N145 N 0.54635 0.50641 0.5289 0.0
N146 N 0.50892 0.48871 0.47959 0.0
H147 H 0.50578 0.44999 0.41416 0.0
H148 H 0.53565 0.48348 0.39067 0.0
H149 H 0.54328 0.45817 0.42083 0.0
C150 C 0.52887 0.46797 0.42017 0.0
C151 C 0.69965 0.51068 0.54259 0.0
H152 H 0.68111 0.50893 0.5636 0.0
H153 H 0.71679 0.51133 0.56576 0.0
H154 H 0.7098 0.53181 0.52314 0.0
O155 O 0.65595 0.52394 0.50193 0.0
O156 O 0.62228 0.53732 0.50742 0.0
C157 C 0.60214 0.47538 0.58723 0.0
O158 O 0.59552 0.49689 0.4232 0.0
O159 O 0.6294 0.48389 0.42116 0.0
Zn160 Zn 0.53352 0.14706 0.52318 0.0
O161 O 0.54037 0.14564 0.59535 0.0
C162 C 0.46914 0.10271 0.53756 0.0
Zn163 Zn 0.52353 0.09998 0.52045 0.0
C164 C 0.5386 0.12277 0.61419 0.0
O165 O 0.53088 0.09962 0.59036 0.0
C166 C 0.52124 0.12436 0.42864 0.0
O167 O 0.57081 0.11917 0.51043 0.0
O168 O 0.57814 0.16442 0.51308 0.0
N169 N 0.51952 0.05837 0.5125 0.0
C170 C 0.53033 0.04827 0.47901 0.0
C171 C 0.51376 0.01582 0.53208 0.0
N172 N 0.50924 0.03807 0.54537 0.0
N173 N 0.52689 0.02161 0.49043 0.0
C174 C 0.5246 0.20153 0.51383 0.0
C175 C 0.5616 0.23462 0.55118 0.0
N176 N 0.54009 0.18897 0.52954 0.0
N177 N 0.56302 0.20957 0.55276 0.0
N178 N 0.5377 0.23016 0.52703 0.0
H179 H 0.47781 0.17307 0.51691 0.0
H180 H 0.48925 0.19965 0.47162 0.0
H181 H 0.49456 0.16812 0.46634 0.0
C182 C 0.49508 0.18483 0.49037 0.0
C183 C 0.54624 0.06528 0.43662 0.0
H184 H 0.5639 0.06042 0.42671 0.0
H185 H 0.53019 0.05842 0.40782 0.0
H186 H 0.55634 0.08939 0.44129 0.0
O187 O 0.51643 0.1012 0.45002 0.0
O188 O 0.52853 0.14796 0.45103 0.0
C189 C 0.58823 0.14701 0.50893 0.0
O190 O 0.48869 0.12974 0.53375 0.0
O191 O 0.4764 0.08274 0.53371 0.0
Zn192 Zn 0.25378 0.43399 0.34694 0.0
O193 O 0.22357 0.45053 0.33683 0.0
C194 C 0.27857 0.45878 0.25575 0.0
Zn195 Zn 0.28916 0.48154 0.35154 0.0
C196 C 0.23241 0.478 0.33946 0.0
O197 O 0.2595 0.49634 0.34584 0.0
C198 C 0.31254 0.43983 0.36179 0.0
O199 O 0.28332 0.48046 0.42413 0.0
O200 O 0.24678 0.43444 0.41732 0.0
N201 N 0.32277 0.52454 0.35214 0.0
C202 C 0.35082 0.53844 0.36813 0.0
C203 C 0.34611 0.56906 0.32547 0.0
N204 N 0.31991 0.54374 0.32602 0.0
N205 N 0.36589 0.56631 0.35152 0.0
C206 C 0.1959 0.38037 0.30841 0.0
C207 C 0.18159 0.34897 0.36294 0.0
N208 N 0.21739 0.39154 0.34096 0.0
N209 N 0.20837 0.37188 0.37475 0.0
N210 N 0.1733 0.3537 0.32134 0.0
H211 H 0.17282 0.39105 0.25697 0.0
H212 H 0.20418 0.38897 0.23645 0.0
H213 H 0.20957 0.42058 0.26862 0.0
C214 C 0.19567 0.39636 0.26553 0.0
C215 C 0.364 0.52392 0.39636 0.0
H216 H 0.34691 0.50669 0.41889 0.0
H217 H 0.38254 0.54033 0.41779 0.0
H218 H 0.37284 0.51336 0.37298 0.0
O219 O 0.3189 0.46652 0.3574 0.0
O220 O 0.2855 0.4191 0.3601 0.0
C221 C 0.26207 0.45721 0.44208 0.0
O222 O 0.26153 0.43466 0.27616 0.0
O223 O 0.2931 0.48227 0.2792 0.0
Zn224 Zn 0.57841 0.82446 0.34145 0.0
O225 O 0.56095 0.77706 0.33851 0.0
C226 C 0.55555 0.81899 0.24698 0.0
Zn227 Zn 0.53119 0.81346 0.34056 0.0
C228 C 0.53333 0.75896 0.34111 0.0
O229 O 0.51542 0.76854 0.34281 0.0
C230 C 0.57345 0.87875 0.34557 0.0
O231 O 0.53146 0.81354 0.41376 0.0
O232 O 0.57709 0.82132 0.41219 0.0
N233 N 0.48858 0.80488 0.33722 0.0
C234 C 0.47491 0.81986 0.35029 0.0
C235 C 0.4446 0.78366 0.30851 0.0
N236 N 0.46957 0.78229 0.31165 0.0
N237 N 0.44738 0.80704 0.33238 0.0
C238 C 0.63064 0.814 0.31609 0.0
C239 C 0.66811 0.84919 0.34928 0.0
N240 N 0.62103 0.83041 0.33856 0.0
N241 N 0.64446 0.85229 0.35911 0.0
N242 N 0.65987 0.82508 0.32277 0.0
H243 H 0.60292 0.76739 0.3057 0.0
H244 H 0.62573 0.78658 0.25721 0.0
H245 H 0.59365 0.7896 0.26956 0.0
C246 C 0.6121 0.78808 0.28524 0.0
C247 C 0.48938 0.84828 0.37687 0.0
H248 H 0.50689 0.84932 0.39971 0.0
H249 H 0.47295 0.85066 0.39782 0.0
H250 H 0.4995 0.86708 0.35236 0.0
O251 O 0.54683 0.85869 0.33908 0.0
O252 O 0.5936 0.8717 0.34838 0.0
C253 C 0.5542 0.81638 0.43477 0.0
O254 O 0.57902 0.82738 0.27003 0.0
O255 O 0.53153 0.81182 0.26786 0.0
Zn256 Zn 0.1897 0.75769 0.33347 0.0
O257 O 0.2366 0.78917 0.32483 0.0
C258 C 0.19128 0.73571 0.23988 0.0
Zn259 Zn 0.20372 0.72364 0.33386 0.0
C260 C 0.25591 0.78115 0.32428 0.0
O261 O 0.24799 0.75405 0.32764 0.0
C262 C 0.13794 0.69754 0.3461 0.0
O263 O 0.20859 0.72831 0.40641 0.0
O264 O 0.19654 0.76316 0.40404 0.0
N265 N 0.21371 0.69064 0.33259 0.0
C266 C 0.20072 0.66327 0.35108 0.0
C267 C 0.23289 0.66627 0.30278 0.0
N268 N 0.23387 0.69251 0.30299 0.0
N269 N 0.21224 0.64753 0.33254 0.0
C270 C 0.19317 0.81592 0.29791 0.0
C271 C 0.17483 0.82861 0.35278 0.0
N272 N 0.18279 0.79379 0.32946 0.0
N273 N 0.17142 0.80185 0.36349 0.0
N274 N 0.18833 0.83789 0.31165 0.0
H275 H 0.22782 0.84064 0.24847 0.0
H276 H 0.19491 0.80981 0.2255 0.0
H277 H 0.22066 0.80368 0.25748 0.0
C278 C 0.21024 0.81749 0.25528 0.0
C279 C 0.17496 0.65118 0.38353 0.0
H280 H 0.17425 0.6693 0.40235 0.0
H281 H 0.17613 0.63598 0.40884 0.0
H282 H 0.15421 0.63835 0.36362 0.0
O283 O 0.15927 0.69288 0.3399 0.0
O284 O 0.1429 0.7242 0.34589 0.0
C285 C 0.20516 0.74804 0.42673 0.0
O286 O 0.18336 0.75157 0.26196 0.0
O287 O 0.2004 0.72084 0.26184 0.0
Zn288 Zn 0.53118 0.72203 0.8428 0.0
O289 O 0.53405 0.72188 0.91539 0.0
C290 C 0.57208 0.69751 0.84038 0.0
Zn291 Zn 0.57858 0.7573 0.83967 0.0
C292 C 0.55727 0.74202 0.93507 0.0
O293 O 0.57951 0.7598 0.91105 0.0
C294 C 0.55184 0.73946 0.74739 0.0
O295 O 0.56224 0.78836 0.83936 0.0
O296 O 0.51686 0.7519 0.84943 0.0
N297 N 0.6212 0.79381 0.83455 0.0
C298 C 0.63185 0.81682 0.80462 0.0
C299 C 0.66509 0.82766 0.85544 0.0
N300 N 0.64199 0.80071 0.86609 0.0
N301 N 0.65933 0.83819 0.81683 0.0
C302 C 0.4745 0.65963 0.85291 0.0
C303 C 0.44314 0.66753 0.8182 0.0
N304 N 0.48814 0.68876 0.84267 0.0
N305 N 0.46846 0.69359 0.82161 0.0
N306 N 0.44634 0.64588 0.83754 0.0
H307 H 0.5078 0.6598 0.89686 0.0
H308 H 0.47341 0.62494 0.89467 0.0
H309 H 0.49815 0.63628 0.84655 0.0
C310 C 0.48935 0.64436 0.87425 0.0
C311 C 0.61475 0.81972 0.76532 0.0
H312 H 0.62053 0.84313 0.76089 0.0
H313 H 0.62075 0.8125 0.73317 0.0
H314 H 0.59063 0.8062 0.77003 0.0
O315 O 0.57644 0.75394 0.76798 0.0
O316 O 0.52853 0.72394 0.77066 0.0
C317 C 0.53498 0.77931 0.84613 0.0
O318 O 0.54562 0.69197 0.83672 0.0
O319 O 0.59304 0.72442 0.84354 0.0
Zn320 Zn 0.25749 0.82531 0.83168 0.0
O321 O 0.22679 0.77805 0.82399 0.0
C322 C 0.28156 0.82249 0.74007 0.0
Zn323 Zn 0.29246 0.81253 0.83548 0.0
C324 C 0.23557 0.75933 0.82531 0.0
O325 O 0.26271 0.76808 0.83052 0.0
C326 C 0.31721 0.87817 0.84414 0.0
O327 O 0.28599 0.80932 0.90813 0.0
O328 O 0.25035 0.82006 0.90188 0.0
N329 N 0.3256 0.80265 0.84043 0.0
C330 C 0.35328 0.8172 0.85783 0.0
C331 C 0.34718 0.77723 0.82774 0.0
N332 N 0.3219 0.77781 0.82189 0.0
N333 N 0.36716 0.80174 0.85007 0.0
C334 C 0.19695 0.81688 0.7974 0.0
C335 C 0.19292 0.8507 0.83183 0.0
N336 N 0.22186 0.83252 0.8228 0.0
N337 N 0.21925 0.85358 0.84406 0.0
N338 N 0.17841 0.8276 0.80291 0.0
H339 H 0.21174 0.7939 0.75193 0.0
H340 H 0.17834 0.77062 0.7838 0.0
H341 H 0.17739 0.79155 0.73565 0.0
C342 C 0.19101 0.79196 0.76524 0.0
C343 C 0.36636 0.84572 0.88404 0.0
H344 H 0.34904 0.84698 0.90441 0.0
H345 H 0.38412 0.84789 0.90748 0.0
H346 H 0.37627 0.86441 0.85937 0.0
O347 O 0.32261 0.85719 0.83997 0.0
O348 O 0.29035 0.8725 0.84272 0.0
C349 C 0.26559 0.81254 0.92652 0.0
O350 O 0.26497 0.83002 0.76082 0.0
O351 O 0.29677 0.81423 0.76322 0.0
Zn352 Zn 0.20487 0.48299 0.84715 0.0
O353 O 0.21664 0.48261 0.91726 0.0
C354 C 0.14085 0.4414 0.87155 0.0
Zn355 Zn 0.19155 0.43507 0.84372 0.0
C356 C 0.21285 0.45888 0.9359 0.0
O357 O 0.20131 0.43501 0.91282 0.0
C358 C 0.18666 0.45934 0.75352 0.0
O359 O 0.23811 0.45205 0.82941 0.0
O360 O 0.24801 0.49819 0.82832 0.0
N361 N 0.18535 0.39267 0.83614 0.0
C362 C 0.19566 0.38168 0.80326 0.0
C363 C 0.1794 0.35045 0.85808 0.0
N364 N 0.17518 0.37309 0.87003 0.0
N365 N 0.19218 0.35523 0.81624 0.0
C366 C 0.19759 0.53849 0.84236 0.0
C367 C 0.23784 0.57186 0.87249 0.0
N368 N 0.21365 0.52567 0.85379 0.0
N369 N 0.23862 0.54644 0.87247 0.0
N370 N 0.21235 0.56746 0.85376 0.0
H371 H 0.15123 0.51195 0.85496 0.0
H372 H 0.1598 0.53652 0.80734 0.0
H373 H 0.16298 0.5038 0.80161 0.0
C374 C 0.16628 0.5219 0.82511 0.0
C375 C 0.21124 0.39765 0.75999 0.0
H376 H 0.23005 0.39407 0.75246 0.0
H377 H 0.19545 0.38861 0.73082 0.0
H378 H 0.21962 0.42164 0.76179 0.0
O379 O 0.1823 0.43601 0.77394 0.0
O380 O 0.19483 0.48285 0.77667 0.0
C381 C 0.25645 0.47945 0.82398 0.0
O382 O 0.16179 0.46782 0.86721 0.0
O383 O 0.14527 0.42001 0.8618 0.0
Zn384 Zn 0.92264 0.76884 0.67171 0.0
O385 O 0.89072 0.78397 0.668 0.0
C386 C 0.94455 0.79868 0.58165 0.0
Zn387 Zn 0.95668 0.8167 0.67856 0.0
C388 C 0.89851 0.81093 0.67516 0.0
O389 O 0.92547 0.82972 0.68154 0.0
C390 C 0.9831 0.77718 0.67811 0.0
O391 O 0.95306 0.81136 0.75073 0.0
O392 O 0.91652 0.7655 0.74261 0.0
N393 N 0.98902 0.86018 0.6851 0.0
C394 C 0.01784 0.87382 0.69723 0.0
C395 C 0.00813 0.90747 0.67812 0.0
N396 N 0.98308 0.88121 0.67346 0.0
N397 N 0.03021 0.90337 0.6929 0.0
C398 C 0.86498 0.71541 0.63082 0.0
C399 C 0.85281 0.68179 0.6814 0.0
N400 N 0.88713 0.72588 0.66235 0.0
N401 N 0.87941 0.70482 0.69365 0.0
N402 N 0.84325 0.68781 0.64197 0.0
H403 H 0.84007 0.72707 0.58454 0.0
H404 H 0.87166 0.72727 0.55967 0.0
H405 H 0.87664 0.75694 0.59651 0.0
C406 C 0.86329 0.73285 0.59099 0.0
C407 C 0.03359 0.85861 0.71544 0.0
H408 H 0.01854 0.83959 0.73742 0.0
H409 H 0.05329 0.87412 0.73589 0.0
H410 H 0.04119 0.85052 0.6861 0.0
O411 O 0.9878 0.80342 0.6757 0.0
O412 O 0.95642 0.75554 0.67849 0.0
C413 C 0.93265 0.78747 0.76836 0.0
O414 O 0.92955 0.77355 0.60066 0.0
O415 O 0.95856 0.82164 0.60646 0.0
Zn416 Zn 0.24634 0.15945 0.67145 0.0
O417 O 0.22802 0.11193 0.66768 0.0
C418 C 0.22461 0.15637 0.57652 0.0
Zn419 Zn 0.19933 0.14918 0.66984 0.0
C420 C 0.20026 0.09419 0.66789 0.0
O421 O 0.18268 0.1042 0.66857 0.0
C422 C 0.24267 0.21419 0.67752 0.0
O423 O 0.19823 0.14679 0.74319 0.0
O424 O 0.24404 0.1553 0.74223 0.0
N425 N 0.15729 0.14207 0.66575 0.0
C426 C 0.14398 0.15662 0.6824 0.0
C427 C 0.11397 0.12393 0.63536 0.0
N428 N 0.13853 0.1217 0.63678 0.0
N429 N 0.11688 0.14575 0.66345 0.0
C430 C 0.29944 0.15131 0.64206 0.0
C431 C 0.33026 0.1713 0.69687 0.0
N432 N 0.28825 0.16377 0.67077 0.0
N433 N 0.30754 0.17619 0.70476 0.0
N434 N 0.3258 0.15581 0.6576 0.0
H435 H 0.28824 0.11422 0.59698 0.0
H436 H 0.29218 0.14678 0.56939 0.0
H437 H 0.25964 0.12351 0.60205 0.0
C438 C 0.28377 0.13278 0.60062 0.0
C439 C 0.15865 0.18319 0.71324 0.0
H440 H 0.14231 0.18474 0.73564 0.0
H441 H 0.16945 0.20344 0.6917 0.0
H442 H 0.17572 0.18241 0.73488 0.0
O443 O 0.2159 0.19443 0.67158 0.0
O444 O 0.26264 0.20685 0.67934 0.0
C445 C 0.22074 0.1493 0.76446 0.0
O446 O 0.24776 0.16331 0.59967 0.0
O447 O 0.20075 0.14981 0.59737 0.0
Zn448 Zn 0.85561 0.09066 0.67707 0.0
O449 O 0.90314 0.12054 0.67307 0.0
C450 C 0.8613 0.07163 0.58433 0.0
Zn451 Zn 0.86612 0.05422 0.67946 0.0
C452 C 0.92086 0.11081 0.67918 0.0
O453 O 0.91079 0.0833 0.68345 0.0
C454 C 0.80116 0.03136 0.68205 0.0
O455 O 0.865 0.05507 0.75248 0.0
O456 O 0.85895 0.09392 0.74789 0.0
N457 N 0.87453 0.02003 0.67822 0.0
C458 C 0.85936 0.99162 0.69247 0.0
C459 C 0.89544 0.99646 0.6515 0.0
N460 N 0.89703 0.02297 0.65311 0.0
N461 N 0.87199 0.97641 0.67582 0.0
C462 C 0.86567 0.15302 0.64921 0.0
C463 C 0.83039 0.15526 0.68201 0.0
N464 N 0.84954 0.12722 0.67236 0.0
N465 N 0.82762 0.12876 0.69268 0.0
N466 N 0.85433 0.17105 0.65518 0.0
H467 H 0.88986 0.1399 0.60333 0.0
H468 H 0.91221 0.1719 0.63853 0.0
H469 H 0.89275 0.17485 0.5898 0.0
C470 C 0.89144 0.16011 0.6183 0.0
C471 C 0.83091 0.97831 0.71888 0.0
H472 H 0.82838 0.95984 0.74087 0.0
H473 H 0.81216 0.96925 0.69425 0.0
H474 H 0.82996 0.99528 0.74063 0.0
O475 O 0.82113 0.02466 0.67642 0.0
O476 O 0.8083 0.05862 0.68458 0.0
C477 C 0.86294 0.07589 0.77195 0.0
O478 O 0.85246 0.08686 0.60592 0.0
O479 O 0.86882 0.05556 0.60669 0.0
Zn480 Zn 0.19715 0.05563 0.1714 0.0
O481 O 0.19907 0.05794 0.24435 0.0
C482 C 0.23822 0.03125 0.17647 0.0
Zn483 Zn 0.24467 0.09094 0.16793 0.0
C484 C 0.22226 0.07869 0.26328 0.0
O485 O 0.24461 0.09561 0.23879 0.0
C486 C 0.21921 0.07042 0.07561 0.0
O487 O 0.22833 0.12169 0.16208 0.0
O488 O 0.1827 0.08579 0.17257 0.0
N489 N 0.2874 0.1275 0.16283 0.0
C490 C 0.29852 0.14995 0.13181 0.0
C491 C 0.33051 0.16222 0.18513 0.0
N492 N 0.30744 0.13529 0.19587 0.0
N493 N 0.32555 0.17191 0.14494 0.0
C494 C 0.14018 0.99356 0.18439 0.0
C495 C 0.10931 1.00001 0.14532 0.0
N496 N 0.15403 0.02221 0.17116 0.0
N497 N 0.13467 0.02614 0.14732 0.0
N498 N 0.11218 0.9792 0.16827 0.0
H499 H 0.17258 0.99548 0.23222 0.0
H500 H 0.13849 0.96026 0.23035 0.0
H501 H 0.1645 0.97067 0.18401 0.0
C502 C 0.15477 0.97922 0.20947 0.0
C503 C 0.28222 0.15169 0.0904 0.0
H504 H 0.28766 0.17485 0.08421 0.0
H505 H 0.28921 0.14405 0.05975 0.0
H506 H 0.25803 0.13784 0.09378 0.0
O507 O 0.2436 0.08549 0.09656 0.0
O508 O 0.19568 0.0554 0.09868 0.0
C509 C 0.20102 0.113 0.16722 0.0
O510 O 0.21172 0.02527 0.17091 0.0
O511 O 0.25901 0.05833 0.17757 0.0
Zn512 Zn 0.92217 0.15775 0.1777 0.0
O513 O 0.89228 0.11061 0.17334 0.0
C514 C 0.94084 0.15313 0.08365 0.0
Zn515 Zn 0.95814 0.14644 0.17755 0.0
C516 C 0.9015 0.09229 0.17534 0.0
O517 O 0.92892 0.10154 0.17778 0.0
C518 C 0.98126 0.21172 0.18363 0.0
O519 O 0.9568 0.14537 0.2506 0.0
O520 O 0.91941 0.15379 0.24854 0.0
N521 N 0.99223 0.13801 0.1749 0.0
C522 C 0.02046 0.15266 0.19001 0.0
C523 C 0.01591 0.11773 0.14634 0.0
N524 N 0.98946 0.11622 0.1481 0.0
N525 N 0.03575 0.14043 0.1722 0.0
C526 C 0.8597 0.14732 0.15142 0.0
C527 C 0.85671 0.18166 0.18612 0.0
N528 N 0.88554 0.16364 0.17436 0.0
N529 N 0.88356 0.185 0.19585 0.0
N530 N 0.84122 0.15791 0.15876 0.0
H531 H 0.84104 0.1009 0.13931 0.0
H532 H 0.83784 0.12078 0.0915 0.0
H533 H 0.87289 0.12375 0.10415 0.0
C534 C 0.85273 0.1219 0.11966 0.0
C535 C 0.03355 0.18043 0.21824 0.0
H536 H 0.01638 0.18086 0.24017 0.0
H537 H 0.05177 0.18246 0.24029 0.0
H538 H 0.04286 0.1998 0.19481 0.0
O539 O 0.98771 0.19156 0.17771 0.0
O540 O 0.9541 0.20488 0.18566 0.0
C541 C 0.93677 0.14811 0.27132 0.0
O542 O 0.92536 0.16127 0.10621 0.0
O543 O 0.95744 0.14591 0.10509 0.0
Zn544 Zn 0.86844 0.8158 0.17189 0.0
O545 O 0.87416 0.81837 0.24462 0.0
C546 C 0.80301 0.77536 0.18627 0.0
Zn547 Zn 0.85519 0.76796 0.17397 0.0
C548 C 0.87108 0.79563 0.26582 0.0
O549 O 0.86297 0.77168 0.24395 0.0
C550 C 0.85504 0.7881 0.07949 0.0
O551 O 0.90207 0.78411 0.16356 0.0
O552 O 0.91278 0.83045 0.16491 0.0
N553 N 0.84904 0.72524 0.17399 0.0
C554 C 0.8635 0.71415 0.14962 0.0
C555 C 0.83567 0.68106 0.19752 0.0
N556 N 0.83177 0.70454 0.2037 0.0
N557 N 0.8558 0.68655 0.16414 0.0
C558 C 0.86468 0.87305 0.18547 0.0
C559 C 0.89555 0.9011 0.13475 0.0
N560 N 0.87745 0.8584 0.16724 0.0
N561 N 0.89676 0.87597 0.13604 0.0
N562 N 0.87556 0.89978 0.16532 0.0
H563 H 0.83987 0.8422 0.2396 0.0
H564 H 0.84079 0.87718 0.24304 0.0
H565 H 0.81842 0.85071 0.20022 0.0
C566 C 0.83963 0.86003 0.21927 0.0
C567 C 0.88438 0.72986 0.11049 0.0
H568 H 0.88049 0.74675 0.09464 0.0
H569 H 0.90745 0.74121 0.12348 0.0
H570 H 0.88216 0.71384 0.08345 0.0
O571 O 0.84751 0.76501 0.10315 0.0
O572 O 0.8642 0.81271 0.09979 0.0
C573 C 0.92106 0.81155 0.16185 0.0
O574 O 0.82392 0.80141 0.17862 0.0
O575 O 0.80847 0.75403 0.18746 0.0
H576 H 0.53414 0.14843 0.95088 0.0
H577 H 0.53683 0.28381 0.07962 0.0
H578 H 0.55832 0.17157 0.09288 0.0
H579 H 0.52203 0.26732 0.9342 0.0
H580 H 0.52971 0.23408 0.08986 0.0
H581 H 0.51431 0.18236 0.94912 0.0
C582 C 0.53415 0.15981 0.98209 0.0
C583 C 0.54787 0.15758 0.02198 0.0
C584 C 0.52728 0.24099 0.0558 0.0
C585 C 0.52622 0.19665 0.02016 0.0
C586 C 0.53108 0.26924 0.05014 0.0
C587 C 0.52978 0.27932 0.00612 0.0
C588 C 0.52277 0.22308 0.01695 0.0
C589 C 0.52324 0.26012 0.96864 0.0
C590 C 0.52314 0.17934 0.98108 0.0
C591 C 0.54792 0.17297 0.06147 0.0
N592 N 0.52035 0.23301 0.97476 0.0
N593 N 0.53769 0.19223 0.05941 0.0
H594 H 0.75041 0.25817 0.08885 0.0
H595 H 0.87714 0.38523 0.02868 0.0
H596 H 0.72066 0.2545 0.94959 0.0
H597 H 0.82123 0.38912 0.92319 0.0
H598 H 0.84292 0.33181 0.03581 0.0
H599 H 0.79801 0.30117 0.06866 0.0
C600 C 0.75431 0.26613 0.05371 0.0
C601 C 0.73183 0.25279 0.02074 0.0
C602 C 0.83835 0.34423 0.01059 0.0
C603 C 0.78626 0.30173 -0.00314 0.0
C604 C 0.85825 0.37458 0.00581 0.0
C605 C 0.85162 0.39144 0.97578 0.0
C606 C 0.81179 0.33107 0.98524 0.0
C607 C 0.82682 0.37677 0.94712 0.0
C608 C 0.78162 0.29042 0.04192 0.0
C609 C 0.73767 0.2639 0.97574 0.0
N610 N 0.80751 0.34749 0.95308 0.0
N611 N 0.76415 0.28804 0.9653 0.0
H612 H 0.62154 0.45136 0.90935 0.0
H613 H 0.76575 0.48644 0.93649 0.0
H614 H 0.62409 0.4784 0.05004 0.0
H615 H 0.74028 0.46927 0.07897 0.0
H616 H 0.72418 0.49463 0.92203 0.0
H617 H 0.67432 0.46864 0.91286 0.0
C618 C 0.63373 0.4624 0.94025 0.0
C619 C 0.61885 0.46391 0.97926 0.0
C620 C 0.72769 0.48924 0.95654 0.0
C621 C 0.67901 0.48297 0.98439 0.0
C622 C 0.75166 0.48506 0.96486 0.0
C623 C 0.75634 0.47743 0.00901 0.0
C624 C 0.70795 0.48505 0.99252 0.0
C625 C 0.73718 0.47509 0.04451 0.0
C626 C 0.66392 0.47225 0.94242 0.0
C627 C 0.63512 0.47739 0.01909 0.0
N628 N 0.71366 0.47869 0.03545 0.0
N629 N 0.66429 0.48575 0.02105 0.0
H630 H 0.74615 0.49521 0.42244 0.0
H631 H 0.85721 0.47441 0.58183 0.0
H632 H 0.73487 0.47785 0.56796 0.0
H633 H 0.86014 0.4754 0.43376 0.0
H634 H 0.82311 0.4937 0.57939 0.0
H635 H 0.79696 0.50455 0.42831 0.0
C636 C 0.75478 0.4941 0.4558 0.0
C637 C 0.73663 0.48593 0.49482 0.0
C638 C 0.83193 0.49067 0.54741 0.0
C639 C 0.79422 0.49607 0.50189 0.0
C640 C 0.85164 0.48003 0.54886 0.0
C641 C 0.86136 0.47355 0.50792 0.0
C642 C 0.82151 0.49414 0.50465 0.0
C643 C 0.85316 0.48044 0.46597 0.0
C644 C 0.78368 0.49945 0.45921 0.0
C645 C 0.74847 0.48461 0.53733 0.0
N646 N 0.83315 0.48984 0.46533 0.0
N647 N 0.77646 0.48923 0.53966 0.0
H648 H 0.52795 0.24487 0.44228 0.0
H649 H 0.56898 0.3904 0.41157 0.0
H650 H 0.5331 0.26755 0.58576 0.0
H651 H 0.53128 0.38737 0.54461 0.0
H652 H 0.55073 0.33749 0.41616 0.0
H653 H 0.52295 0.28776 0.42286 0.0
C654 C 0.52729 0.25858 0.46972 0.0
C655 C 0.53058 0.25264 0.51568 0.0
C656 C 0.5451 0.34782 0.44358 0.0
C657 C 0.52686 0.30279 0.4938 0.0
C658 C 0.55555 0.37812 0.44082 0.0
C659 C 0.55122 0.39294 0.47749 0.0
C660 C 0.53081 0.33241 0.48393 0.0
C661 C 0.53454 0.37645 0.51534 0.0
C662 C 0.52501 0.28338 0.45865 0.0
C663 C 0.53057 0.27153 0.54995 0.0
N664 N 0.52555 0.3471 0.51814 0.0
N665 N 0.52899 0.29591 0.53832 0.0
H666 H 0.62528 0.1537 0.57869 0.0
H667 H 0.75718 0.28729 0.44368 0.0
H668 H 0.62327 0.17244 0.43492 0.0
H669 H 0.74951 0.28215 0.59126 0.0
H670 H 0.71557 0.23654 0.43798 0.0
H671 H 0.67808 0.19113 0.5811 0.0
C672 C 0.6364 0.16478 0.54717 0.0
C673 C 0.62031 0.16 0.50642 0.0
C674 C 0.72329 0.24623 0.4717 0.0
C675 C 0.67995 0.20322 0.50914 0.0
C676 C 0.74692 0.27509 0.47487 0.0
C677 C 0.75648 0.28864 0.51794 0.0
C678 C 0.70887 0.23096 0.51195 0.0
C679 C 0.74277 0.27219 0.55753 0.0
C680 C 0.66635 0.18636 0.54867 0.0
C681 C 0.63522 0.1754 0.46677 0.0
N682 N 0.71931 0.24423 0.5536 0.0
N683 N 0.66419 0.19665 0.46922 0.0
H684 H 0.20824 0.61708 0.41007 0.0
H685 H 0.20853 0.48983 0.26513 0.0
H686 H 0.1957 0.60838 0.26329 0.0
H687 H 0.21294 0.49443 0.41306 0.0
H688 H 0.19122 0.52567 0.26491 0.0
H689 H 0.19844 0.56609 0.41376 0.0
C690 C 0.20247 0.60401 0.37886 0.0
C691 C 0.2025 0.61661 0.33639 0.0
C692 C 0.195 0.51815 0.29757 0.0
C693 C 0.19242 0.55886 0.33977 0.0
C694 C 0.20452 0.49745 0.2976 0.0
C695 C 0.21191 0.48932 0.33916 0.0
C696 C 0.19367 0.53111 0.33938 0.0
C697 C 0.20719 0.50021 0.38039 0.0
C698 C 0.19711 0.575 0.38079 0.0
C699 C 0.19596 0.59925 0.2966 0.0
N700 N 0.19891 0.52104 0.37947 0.0
N701 N 0.19155 0.57136 0.29913 0.0
H702 H 0.5236 0.7191 0.27331 0.0
H703 H 0.39824 0.59297 0.42751 0.0
H704 H 0.51357 0.727 0.41883 0.0
H705 H 0.40309 0.58901 0.28008 0.0
H706 H 0.44853 0.63602 0.42829 0.0
H707 H 0.48855 0.66572 0.27849 0.0
C708 C 0.51489 0.70926 0.30663 0.0
C709 C 0.52136 0.72708 0.34576 0.0
C710 C 0.43891 0.62534 0.39581 0.0
C711 C 0.48066 0.66672 0.35186 0.0
C712 C 0.41037 0.60072 0.39552 0.0
C713 C 0.39684 0.58767 0.3537 0.0
C714 C 0.4537 0.63704 0.35387 0.0
C715 C 0.41298 0.59875 0.31291 0.0
C716 C 0.49467 0.67893 0.30959 0.0
C717 C 0.5091 0.7137 0.38803 0.0
N718 N 0.44045 0.62301 0.31391 0.0
N719 N 0.48894 0.68435 0.38989 0.0
H720 H 0.42695 0.82054 0.25717 0.0
H721 H 0.29112 0.80946 0.39686 0.0
H722 H 0.41965 0.81529 0.40476 0.0
H723 H 0.29221 0.79783 0.25034 0.0
H724 H 0.34461 0.82841 0.39929 0.0
H725 H 0.38453 0.82842 0.25362 0.0
C726 C 0.41669 0.82177 0.28886 0.0
C727 C 0.42655 0.8173 0.33126 0.0
C728 C 0.33337 0.8227 0.36637 0.0
C729 C 0.37783 0.82564 0.32771 0.0
C730 C 0.30299 0.81228 0.36493 0.0
C731 C 0.28761 0.80247 0.32326 0.0
C732 C 0.34816 0.82285 0.32586 0.0
C733 C 0.30356 0.80559 0.28297 0.0
C734 C 0.39254 0.82623 0.28692 0.0
C735 C 0.41272 0.81896 0.37152 0.0
N736 N 0.33296 0.81512 0.28533 0.0
N737 N 0.38869 0.82255 0.36875 0.0
H738 H 0.52964 0.81578 0.78427 0.0
H739 H 0.41604 0.84775 0.81353 0.0
H740 H 0.51212 0.78573 0.92479 0.0
H741 H 0.38596 0.77329 0.90478 0.0
H742 H 0.4667 0.85562 0.81824 0.0
H743 H 0.49364 0.83276 0.79154 0.0
C744 C 0.51932 0.81423 0.81731 0.0
C745 C 0.52367 0.79952 0.85406 0.0
C746 C 0.44908 0.83785 0.83769 0.0
C747 C 0.48229 0.818 0.86247 0.0
C748 C 0.42043 0.83356 0.83533 0.0
C749 C 0.39722 0.80979 0.8587 0.0
C750 C 0.4542 0.81828 0.86401 0.0
C751 C 0.40349 0.79173 0.88626 0.0
C752 C 0.4987 0.82379 0.82149 0.0
C753 C 0.50925 0.79711 0.89581 0.0
N754 N 0.43142 0.7963 0.8881 0.0
N755 N 0.48863 0.80556 0.89856 0.0
H756 H 0.19581 0.58172 0.77403 0.0
H757 H 0.22346 0.72457 0.75041 0.0
H758 H 0.21246 0.60495 0.91741 0.0
H759 H 0.20563 0.72233 0.89536 0.0
H760 H 0.20795 0.67217 0.75273 0.0
H761 H 0.18763 0.62341 0.76159 0.0
C762 C 0.19714 0.59538 0.80303 0.0
C763 C 0.20443 0.58986 0.84689 0.0
C764 C 0.20593 0.68245 0.78377 0.0
C765 C 0.19701 0.63872 0.83269 0.0
C766 C 0.21465 0.71246 0.78222 0.0
C767 C 0.21526 0.72741 0.82256 0.0
C768 C 0.19833 0.66756 0.82632 0.0
C769 C 0.20486 0.71126 0.8634 0.0
C770 C 0.19302 0.61954 0.79585 0.0
C771 C 0.20683 0.60861 0.88314 0.0
N772 N 0.19741 0.6823 0.86447 0.0
N773 N 0.2033 0.63231 0.8752 0.0
H774 H 0.2946 0.47895 0.88651 0.0
H775 H 0.4255 0.6168 0.75809 0.0
H776 H 0.28967 0.50771 0.74963 0.0
H777 H 0.42001 0.60519 0.90504 0.0
H778 H 0.38377 0.56636 0.74898 0.0
H779 H 0.34815 0.51392 0.88704 0.0
C780 C 0.30513 0.49163 0.85576 0.0
C781 C 0.28807 0.49061 0.81788 0.0
C782 C 0.39208 0.57454 0.78321 0.0
C783 C 0.34858 0.5308 0.81859 0.0
C784 C 0.41577 0.60321 0.78833 0.0
C785 C 0.42584 0.61489 0.8323 0.0
C786 C 0.3781 0.55764 0.82248 0.0
C787 C 0.41281 0.59669 0.87062 0.0
C788 C 0.33552 0.51178 0.85628 0.0
C789 C 0.30232 0.5079 0.7793 0.0
N790 N 0.3892 0.569 0.8649 0.0
N791 N 0.33177 0.52762 0.78084 0.0
H792 H 0.85782 0.93999 0.60334 0.0
H793 H 0.87953 0.82576 0.75138 0.0
H794 H 0.86476 0.94299 0.75097 0.0
H795 H 0.87238 0.8225 0.60367 0.0
H796 H 0.86027 0.85989 0.75357 0.0
H797 H 0.85017 0.88969 0.60405 0.0
C798 C 0.857 0.92959 0.63597 0.0
C799 C 0.86186 0.94534 0.67714 0.0
C800 C 0.86197 0.85105 0.7207 0.0
C801 C 0.85388 0.88831 0.67846 0.0
C802 C 0.87263 0.83133 0.71955 0.0
C803 C 0.87723 0.82133 0.67732 0.0
C804 C 0.85669 0.86138 0.67917 0.0
C805 C 0.86875 0.82959 0.63688 0.0
C806 C 0.85265 0.90097 0.63646 0.0
C807 C 0.86078 0.93128 0.71864 0.0
N808 N 0.85943 0.84967 0.6387 0.0
N809 N 0.85738 0.90367 0.71824 0.0
H810 H 0.18719 0.05142 0.60323 0.0
H811 H 0.07633 0.90608 0.64664 0.0
H812 H 0.18217 0.0656 0.74817 0.0
H813 H 0.05261 0.95216 0.74541 0.0
H814 H 0.12686 0.94915 0.64347 0.0
H815 H 0.15053 0.9988 0.6137 0.0
C816 C 0.1794 0.04304 0.63756 0.0
C817 C 0.18773 0.06243 0.67505 0.0
C818 C 0.11068 0.94961 0.66627 0.0
C819 C 0.14549 1.00307 0.68716 0.0
C820 C 0.08212 0.92509 0.66838 0.0
C821 C 0.06065 0.92596 0.69627 0.0
C822 C 0.11756 0.97482 0.69265 0.0
C823 C 0.06874 0.95095 0.72348 0.0
C824 C 0.15845 0.0131 0.64359 0.0
C825 C 0.1764 0.05102 0.71865 0.0
N826 N 0.0966 0.97447 0.72098 0.0
N827 N 0.15526 0.02218 0.72336 0.0
H828 H 0.95855 0.15508 0.62063 0.0
H829 H 0.09285 0.16193 0.59603 0.0
H830 H 0.95571 0.11004 0.74636 0.0
H831 H 0.09069 0.14809 0.74219 0.0
H832 H 0.04864 0.16644 0.60236 0.0
H833 H 0.01266 0.17708 0.61908 0.0
C834 C 0.96949 0.1505 0.64843 0.0
C835 C 0.95294 0.13044 0.68321 0.0
C836 C 0.05836 0.16372 0.63349 0.0
C837 C 0.0141 0.15433 0.68105 0.0
C838 C 0.08349 0.16093 0.62971 0.0
C839 C 0.09536 0.15493 0.6687 0.0
C840 C 0.04473 0.1599 0.67665 0.0
C841 C 0.08243 0.15329 0.71155 0.0
C842 C 1.00026 0.16262 0.64724 0.0
C843 C 0.96787 0.1251 0.71856 0.0
N844 N 0.05745 0.15521 0.71427 0.0
N845 N 0.99755 0.13667 0.7163 0.0
H846 H 0.19192 0.14206 0.09711 0.0
H847 H 0.06821 0.14725 0.24844 0.0
H848 H 0.18265 0.1281 0.2436 0.0
H849 H 0.07283 0.15382 0.10073 0.0
H850 H 0.11846 0.1547 0.24984 0.0
H851 H 0.15774 0.16146 0.10028 0.0
C852 C 0.18361 0.14431 0.13015 0.0
C853 C 0.18994 0.13369 0.17017 0.0
C854 C 0.10882 0.15526 0.21713 0.0
C855 C 0.15025 0.15458 0.17406 0.0
C856 C 0.08029 0.15126 0.21648 0.0
C857 C 0.0667 0.15011 0.17445 0.0
C858 C 0.12351 0.15762 0.17534 0.0
C859 C 0.08276 0.15452 0.13373 0.0
C860 C 0.16388 0.15504 0.13199 0.0
C861 C 0.17823 0.1363 0.2121 0.0
N862 N 0.11021 0.15772 0.1351 0.0
N863 N 0.15853 0.14604 0.2129 0.0
H864 H 0.8562 0.92069 0.09768 0.0
H865 H 0.88481 0.05808 0.25106 0.0
H866 H 0.87584 0.92881 0.24255 0.0
H867 H 0.87515 0.05475 0.1037 0.0
H868 H 0.86623 1.00473 0.25196 0.0
H869 H 0.8489 0.9635 0.10248 0.0
C870 C 0.85829 0.93123 0.13069 0.0
C871 C 0.86645 0.92138 0.16982 0.0
C872 C 0.86729 0.01541 0.21951 0.0
C873 C 0.85872 0.97042 0.17566 0.0
C874 C 0.87757 0.04573 0.21911 0.0
C875 C 0.88122 0.06042 0.17728 0.0
C876 C 0.86135 1.0 0.17761 0.0
C877 C 0.87229 0.0439 0.1366 0.0
C878 C 0.85412 0.95555 0.1335 0.0
C879 C 0.86906 0.93557 0.21186 0.0
N880 N 0.86323 0.01454 0.13764 0.0
N881 N 0.8656 0.95969 0.21359 0.0
H882 H 0.09087 0.94577 0.0926 0.0
H883 H 0.95726 0.81836 0.23297 0.0
H884 H 0.08511 0.94267 0.24038 0.0
H885 H 0.95654 0.83246 0.08717 0.0
H886 H 0.01061 0.85378 0.23448 0.0
H887 H 0.04863 0.89528 0.08885 0.0
C888 C 0.08095 0.93402 0.12426 0.0
C889 C 0.0912 0.94811 0.1668 0.0
C890 C 0.99901 0.84838 0.20187 0.0
C891 C 0.04271 0.89079 0.16306 0.0
C892 C 0.96872 0.8279 0.20093 0.0
C893 C 0.95285 0.82247 0.15979 0.0
C894 C 0.01322 0.8636 0.1614 0.0
C895 C 0.96826 0.83594 0.11939 0.0
C896 C 0.05692 0.90531 0.1222 0.0
C897 C 0.07783 0.93228 0.20702 0.0
N898 N 0.99758 0.85625 0.12129 0.0
N899 N 0.05391 0.90453 0.20419 0.0
H900 H 0.49635 0.07762 0.36963 0.0
H901 H 0.61671 0.16664 0.1756 0.0
H902 H 0.55583 0.17206 0.37427 0.0
H903 H 0.55184 0.07355 0.1664 0.0
H904 H 0.59458 0.16925 0.24824 0.0
H905 H 0.51415 0.0764 0.29256 0.0
C906 C 0.51261 0.09823 0.35385 0.0
C907 C 0.52484 0.12493 0.37841 0.0
C908 C 0.58528 0.14824 0.23039 0.0
C909 C 0.54595 0.12362 0.29087 0.0
C910 C 0.59814 0.14663 0.18922 0.0
C911 C 0.58614 0.1198 0.16493 0.0
C912 C 0.56032 0.12282 0.24742 0.0
C913 C 0.56185 0.09468 0.18398 0.0
C914 C 0.523 0.09749 0.31004 0.0
C915 C 0.5458 0.151 0.35644 0.0
N916 N 0.5497 0.09684 0.22403 0.0
N917 N 0.5561 0.14963 0.3141 0.0
H918 H 0.83569 0.38253 0.37127 0.0
H919 H 0.92953 0.46619 0.14828 0.0
H920 H 0.931 0.4266 0.3625 0.0
H921 H 0.83541 0.43224 0.15911 0.0
H922 H 0.92905 0.4461 0.22363 0.0
H923 H 0.83382 0.39374 0.29003 0.0
C924 C 0.85618 0.394 0.35204 0.0
C925 C 0.88359 0.40393 0.37374 0.0
C926 C 0.90845 0.44297 0.20966 0.0
C927 C 0.88156 0.41709 0.28129 0.0
C928 C 0.90869 0.45456 0.16659 0.0
C929 C 0.88246 0.4511 0.14747 0.0
C930 C 0.88181 0.42781 0.23414 0.0
C931 C 0.85616 0.43562 0.17278 0.0
C932 C 0.85508 0.40059 0.30581 0.0
C933 C 0.90941 0.41874 0.34726 0.0
N934 N 0.8565 0.42458 0.21502 0.0
N935 N 0.90776 0.4251 0.30253 0.0
H936 H 0.58369 0.50967 0.34311 0.0
H937 H 0.56856 0.39834 0.1415 0.0
H938 H 0.62927 0.45981 0.34409 0.0
H939 H 0.52677 0.45182 0.14002 0.0
H940 H 0.59116 0.42036 0.21572 0.0
H941 H 0.56492 0.49055 0.26643 0.0
C942 C 0.59024 0.49517 0.32677 0.0
C943 C 0.60785 0.48613 0.35016 0.0
C944 C 0.57693 0.42715 0.19917 0.0
C945 C 0.5859 0.46358 0.26278 0.0
C946 C 0.56375 0.41433 0.1571 0.0
C947 C 0.54577 0.42327 0.13454 0.0
C948 C 0.572 0.44896 0.2187 0.0
C949 C 0.54055 0.44431 0.15609 0.0
C950 C 0.57932 0.48404 0.28312 0.0
C951 C 0.61576 0.46738 0.32727 0.0
N952 N 0.55368 0.45649 0.19682 0.0
N953 N 0.60439 0.45639 0.28503 0.0
H954 H 0.93576 0.51969 0.86338 0.0
H955 H 0.84237 0.40371 0.66647 0.0
H956 H 0.84039 0.46724 0.8641 0.0
H957 H 0.93695 0.4625 0.66032 0.0
H958 H 0.84097 0.4276 0.73801 0.0
H959 H 0.93615 0.50239 0.78559 0.0
C960 C 0.91483 0.50523 0.8466 0.0
C961 C 0.88803 0.49461 0.87044 0.0
C962 C 0.86203 0.43522 0.72104 0.0
C963 C 0.88835 0.47392 0.78203 0.0
C964 C 0.86291 0.42131 0.68051 0.0
C965 C 0.88985 0.43102 0.65745 0.0
C966 C 0.88828 0.45892 0.7387 0.0
C967 C 0.91569 0.4542 0.67697 0.0
C968 C 0.91508 0.49507 0.80237 0.0
C969 C 0.86158 0.47593 0.84705 0.0
N970 N 0.91425 0.46737 0.71642 0.0
N971 N 0.86243 0.46568 0.8044 0.0
H972 H 0.57271 0.49268 0.64446 0.0
H973 H 0.55172 0.37952 0.84539 0.0
H974 H 0.61162 0.4367 0.63883 0.0
H975 H 0.50905 0.43215 0.84109 0.0
H976 H 0.57259 0.39817 0.76909 0.0
H977 H 0.55046 0.47098 0.71805 0.0
C978 C 0.57691 0.47605 0.65912 0.0
C979 C 0.59397 0.4664 0.63548 0.0
C980 C 0.55833 0.40528 0.78464 0.0
C981 C 0.56795 0.4409 0.71962 0.0
C982 C 0.54609 0.39437 0.82794 0.0
C983 C 0.52875 0.40445 0.84979 0.0
C984 C 0.55317 0.42638 0.76326 0.0
C985 C 0.52241 0.42388 0.82571 0.0
C986 C 0.56396 0.46345 0.70102 0.0
C987 C 0.59876 0.44487 0.65615 0.0
N988 N 0.53488 0.43444 0.78402 0.0
N989 N 0.58559 0.43262 0.69705 0.0
H990 H 0.62632 0.17723 0.8787 0.0
H991 H 0.53375 0.07691 0.66529 0.0
H992 H 0.59044 0.08274 0.86974 0.0
H993 H 0.56814 0.17131 0.67045 0.0
H994 H 0.55656 0.07962 0.73928 0.0
H995 H 0.6095 0.17691 0.79986 0.0
C996 C 0.61561 0.15657 0.85975 0.0
C997 C 0.60949 0.12992 0.88084 0.0
C998 C 0.55911 0.09979 0.72442 0.0
C999 C 0.5897 0.1293 0.7915 0.0
C1000 C 0.54587 0.09821 0.68225 0.0
C1001 C 0.54898 0.12392 0.6617 0.0
C1002 C 0.57565 0.12728 0.74643 0.0
C1003 C 0.56503 0.15092 0.68526 0.0
C1004 C 0.60571 0.15635 0.815 0.0
C1005 C 0.59537 0.10376 0.85492 0.0
N1006 N 0.57786 0.15192 0.72644 0.0
N1007 N 0.58568 0.10407 0.81182 0.0
H1008 H 0.22234 0.41012 0.49265 0.0
H1009 H 0.21714 0.50839 0.69932 0.0
H1010 H 0.27725 0.5053 0.49775 0.0
H1011 H 0.16477 0.41304 0.69342 0.0
H1012 H 0.23515 0.50857 0.62157 0.0
H1013 H 0.19912 0.41143 0.56445 0.0
C1014 C 0.22981 0.43131 0.50923 0.0
C1015 C 0.25185 0.45765 0.48923 0.0
C1016 C 0.21933 0.48766 0.63702 0.0
C1017 C 0.22484 0.45936 0.57125 0.0
C1018 C 0.20867 0.48756 0.68114 0.0
C1019 C 0.1897 0.4606 0.70305 0.0
C1020 C 0.21084 0.46064 0.61485 0.0
C1021 C 0.17963 0.4343 0.67799 0.0
C1022 C 0.21632 0.43207 0.55007 0.0
C1023 C 0.26053 0.48445 0.5122 0.0
N1024 N 0.19066 0.43495 0.63549 0.0
N1025 N 0.24689 0.48464 0.55199 0.0
H1026 H 0.60065 0.83173 0.49205 0.0
H1027 H 0.50255 0.72789 0.69795 0.0
H1028 H 0.50514 0.78386 0.48834 0.0
H1029 H 0.59713 0.76556 0.68605 0.0
H1030 H 0.50209 0.74842 0.62247 0.0
H1031 H 0.59905 0.81067 0.56725 0.0
C1032 C 0.57929 0.81714 0.5075 0.0
C1033 C 0.55298 0.80933 0.4839 0.0
C1034 C 0.52286 0.75191 0.63627 0.0
C1035 C 0.55097 0.78455 0.56953 0.0
C1036 C 0.52311 0.73993 0.67905 0.0
C1037 C 0.55 0.74536 0.69843 0.0
C1038 C 0.54969 0.76943 0.61307 0.0
C1039 C 0.57598 0.76121 0.67264 0.0
C1040 C 0.57839 0.80487 0.55024 0.0
C1041 C 0.52593 0.79049 0.50555 0.0
N1042 N 0.57521 0.77295 0.6315 0.0
N1043 N 0.52559 0.77842 0.54714 0.0
H1044 H 0.25875 0.84558 0.67973 0.0
H1045 H 0.23657 0.73032 0.48079 0.0
H1046 H 0.29471 0.78707 0.68739 0.0
H1047 H 0.19798 0.78672 0.48049 0.0
H1048 H 0.25999 0.7518 0.55479 0.0
H1049 H 0.2408 0.82739 0.60256 0.0
C1050 C 0.26345 0.82936 0.6647 0.0
C1051 C 0.27803 0.81764 0.69006 0.0
C1052 C 0.24628 0.75932 0.53853 0.0
C1053 C 0.25679 0.79605 0.60221 0.0
C1054 C 0.23264 0.74685 0.4966 0.0
C1055 C 0.21532 0.75676 0.47445 0.0
C1056 C 0.24252 0.78182 0.55823 0.0
C1057 C 0.2112 0.77843 0.49624 0.0
C1058 C 0.25292 0.81874 0.62079 0.0
C1059 C 0.28357 0.7967 0.66893 0.0
N1060 N 0.22481 0.7903 0.53677 0.0
N1061 N 0.27254 0.78621 0.62633 0.0
H1062 H 0.50908 0.72231 0.99161 0.0
H1063 H 0.6033 0.83633 0.19115 0.0
H1064 H 0.60416 0.77818 0.98931 0.0
H1065 H 0.50785 0.7845 0.19209 0.0
H1066 H 0.6037 0.81551 0.11638 0.0
H1067 H 0.50804 0.74285 0.06681 0.0
C1068 C 0.52979 0.73838 0.00739 0.0
C1069 C 0.55675 0.74868 0.98415 0.0
C1070 C 0.58262 0.80888 0.13265 0.0
C1071 C 0.55562 0.77273 0.06933 0.0
C1072 C 0.58237 0.82099 0.17516 0.0
C1073 C 0.55551 0.81205 0.1979 0.0
C1074 C 0.55582 0.78752 0.11281 0.0
C1075 C 0.52906 0.79207 0.17565 0.0
C1076 C 0.52913 0.75038 0.04999 0.0
C1077 C 0.58287 0.76974 0.00593 0.0
N1078 N 0.52989 0.7802 0.13443 0.0
N1079 N 0.58162 0.78123 0.04715 0.0
H1080 H 0.2268 0.82122 0.97758 0.0
H1081 H 0.22345 0.71952 0.18529 0.0
H1082 H 0.28213 0.78155 0.98348 0.0
H1083 H 0.1711 0.76247 0.18106 0.0
H1084 H 0.2418 0.73817 0.1082 0.0
H1085 H 0.20502 0.79846 0.05114 0.0
C1086 C 0.23467 0.80802 -0.00532 0.0
C1087 C 0.25631 0.80325 0.97437 0.0
C1088 C 0.22605 0.74325 0.12394 0.0
C1089 C 0.23101 0.77662 0.05823 0.0
C1090 C 0.21526 0.73229 0.16774 0.0
C1091 C 0.19606 0.73986 0.18987 0.0
C1092 C 0.21752 0.76182 0.10225 0.0
C1093 C 0.18625 0.75651 0.16553 0.0
C1094 C 0.22203 0.79482 0.03652 0.0
C1095 C 0.26562 0.78593 -0.00196 0.0
N1096 N 0.19738 0.76725 0.1232 0.0
N1097 N 0.25276 0.77307 0.03868 0.0
H1098 H 0.20684 0.41173 0.98488 0.0
H1099 H 0.29807 0.50806 0.20185 0.0
H1100 H 0.24514 0.50665 0.99245 0.0
H1101 H 0.25484 0.4127 0.1951 0.0
H1102 H 0.28475 0.5089 0.12147 0.0
H1103 H 0.22842 0.4125 0.05927 0.0
C1104 C 0.21966 0.43277 0.00234 0.0
C1105 C 0.22403 0.45917 0.98255 0.0
C1106 C 0.27853 0.48784 0.13744 0.0
C1107 C 0.24914 0.46022 0.06776 0.0
C1108 C 0.28637 0.48735 0.18317 0.0
C1109 C 0.27714 0.46021 0.20531 0.0
C1110 C 0.26142 0.46102 0.1139 0.0
C1111 C 0.26202 0.43407 0.17953 0.0
C1112 C 0.23214 0.4332 0.04476 0.0
C1113 C 0.24101 0.48576 0.00667 0.0
N1114 N 0.25433 0.43511 0.13533 0.0
N1115 N 0.25296 0.48561 0.04814 0.0
H1116 H 0.95187 0.83421 0.82769 0.0
H1117 H 0.83708 0.73943 0.02482 0.0
H1118 H 0.8924 0.73982 0.818 0.0
H1119 H 0.88513 0.83504 0.02152 0.0
H1120 H 0.85662 0.7388 0.94886 0.0
H1121 H 0.92953 0.83441 0.90135 0.0
C1122 C 0.93451 0.81343 0.84146 0.0
C1123 C 0.92391 0.78696 0.81664 0.0
C1124 C 0.86255 0.75991 0.96448 0.0
C1125 C 0.89783 0.78717 0.90025 0.0
C1126 C 0.85117 0.76029 0.00765 0.0
C1127 C 0.85972 0.78733 0.02969 0.0
C1128 C 0.88277 0.78676 0.94347 0.0
C1129 C 0.87803 0.81367 0.00586 0.0
C1130 C 0.92148 0.81364 0.88319 0.0
C1131 C 0.90119 0.76075 0.83596 0.0
N1132 N 0.88932 0.81273 0.96426 0.0
N1133 N 0.8888 0.76153 0.87657 0.0
H1134 H 0.17097 0.11635 0.81675 0.0
H1135 H 0.26491 0.09483 0.01465 0.0
H1136 H 0.2664 0.16114 0.82173 0.0
H1137 H 0.17054 0.05919 0.02472 0.0
H1138 H 0.26442 0.11489 0.93932 0.0
H1139 H 0.16915 0.09341 0.89124 0.0
C1140 C 0.1915 0.12188 0.83397 0.0
C1141 C 0.21888 0.14058 0.81304 0.0
C1142 C 0.24374 0.10247 0.95775 0.0
C1143 C 0.21695 0.11388 0.89709 0.0
C1144 C 0.24398 0.09076 0.00059 0.0
C1145 C 0.2178 0.07563 0.02615 0.0
C1146 C 0.21712 0.09906 0.9403 0.0
C1147 C 0.19125 0.07077 0.00611 0.0
C1148 C 0.19045 0.1085 0.87613 0.0
C1149 C 0.2448 0.1467 0.83651 0.0
N1150 N 0.19162 0.08279 0.96447 0.0
N1151 N 0.24318 0.13321 0.87704 0.0
H1152 H 0.848 0.10837 0.82701 0.0
H1153 H 0.95793 0.12168 0.02869 0.0
H1154 H 0.8953 0.0602 0.82714 0.0
H1155 H 0.90802 0.16727 0.02749 0.0
H1156 H 0.93713 0.10043 0.95349 0.0
H1157 H 0.86927 0.12922 0.90171 0.0
C1158 C 0.86247 0.10176 0.84326 0.0
C1159 C 0.87002 0.08265 0.82092 0.0
C1160 C 0.93099 0.11532 0.96954 0.0
C1161 C 0.89508 0.10701 0.90586 0.0
C1162 C 0.94314 0.12777 0.01216 0.0
C1163 C 0.93454 0.14614 0.03446 0.0
C1164 C 0.91018 0.12136 0.94926 0.0
C1165 C 0.91516 0.15311 0.01164 0.0
C1166 C 0.87484 0.11388 0.88572 0.0
C1167 C 0.88881 0.07476 0.84343 0.0
N1168 N 0.90344 0.14049 0.97047 0.0
N1169 N 0.90102 0.08727 0.8846 0.0
H1170 H 0.17443 0.06116 0.3201 0.0
H1171 H 0.27198 0.17339 0.51967 0.0
H1172 H 0.26967 0.11525 0.31614 0.0
H1173 H 0.17646 0.12394 0.52157 0.0
H1174 H 0.27128 0.15308 0.44386 0.0
H1175 H 0.1745 0.08254 0.39517 0.0
C1176 C 0.19537 0.07707 0.33543 0.0
C1177 C 0.22208 0.08653 0.31188 0.0
C1178 C 0.25043 0.14688 0.4606 0.0
C1179 C 0.22227 0.1115 0.39687 0.0
C1180 C 0.25084 0.15866 0.50374 0.0
C1181 C 0.22426 0.15014 0.52707 0.0
C1182 C 0.22326 0.1263 0.44076 0.0
C1183 C 0.19748 0.13111 0.50475 0.0
C1184 C 0.19538 0.08954 0.37795 0.0
C1185 C 0.24856 0.10743 0.33304 0.0
N1186 N 0.19766 0.11952 0.46297 0.0
N1187 N 0.24796 0.11933 0.3742 0.0
H1188 H 0.95458 0.1167 0.32505 0.0
H1189 H 0.84199 0.09883 0.52561 0.0
H1190 H 0.90255 0.16004 0.32768 0.0
H1191 H 0.89702 0.05884 0.53169 0.0
H1192 H 0.86208 0.11854 0.45005 0.0
H1193 H 0.93421 0.09491 0.40036 0.0
C1194 C 0.93939 0.12213 0.3419 0.0
C1195 C 0.9301 0.14007 0.32009 0.0
C1196 C 0.86963 0.10524 0.46762 0.0
C1197 C 0.90627 0.11473 0.40519 0.0
C1198 C 0.85792 0.09372 0.51061 0.0
C1199 C 0.868 0.07733 0.53502 0.0
C1200 C 0.8917 0.10049 0.44892 0.0
C1201 C 0.88863 0.07134 0.51392 0.0
C1202 C 0.9275 0.10941 0.38455 0.0
C1203 C 0.91016 0.14616 0.34314 0.0
N1204 N 0.9001 0.08323 0.47214 0.0
N1205 N 0.89876 0.13334 0.38425 0.0
H1206 H 0.85915 0.74969 0.32233 0.0
H1207 H 0.9563 0.84828 0.5327 0.0
H1208 H 0.90466 0.84524 0.31851 0.0
H1209 H 0.92345 0.75454 0.51811 0.0
H1210 H 0.9386 0.84897 0.45486 0.0
H1211 H 0.88097 0.752 0.39691 0.0
C1212 C 0.87353 0.77123 0.33747 0.0
C1213 C 0.88024 0.79733 0.3141 0.0
C1214 C 0.93568 0.82838 0.46857 0.0
C1215 C 0.90579 0.80016 0.39947 0.0
C1216 C 0.94603 0.82802 0.51273 0.0
C1217 C 0.94098 0.80121 0.53198 0.0
C1218 C 0.92018 0.80175 0.44394 0.0
C1219 C 0.92745 0.7756 0.50481 0.0
C1220 C 0.88622 0.77254 0.37996 0.0
C1221 C 0.89887 0.82459 0.33553 0.0
N1222 N 0.91721 0.77645 0.4624 0.0
N1223 N 0.91119 0.82533 0.37711 0.0
H1224 H 0.32257 0.91815 0.9114 0.0
H1225 H 0.49317 0.97326 0.93099 0.0
H1226 H 0.37121 0.90339 0.80492 0.0
H1227 H 0.45957 0.02619 0.99025 0.0
H1228 H 0.44593 0.94366 0.89051 0.0
H1229 H 0.36998 0.95641 0.94486 0.0
C1230 C 0.34308 0.92379 0.89401 0.0
C1231 C 0.34294 0.90763 0.85521 0.0
C1232 C 0.44888 0.96185 0.91218 0.0
C1233 C 0.39697 0.95004 0.89438 0.0
C1234 C 0.47571 0.97851 0.93546 0.0
C1235 C 0.4802 1.00219 0.9636 0.0
C1236 C 0.42599 0.9684 0.91793 0.0
C1237 C 0.45691 0.00821 0.96841 0.0
C1238 C 0.37012 0.94527 0.91348 0.0
C1239 C 0.37028 0.9153 0.83484 0.0
N1240 N 0.43065 0.99126 0.94614 0.0
N1241 N 0.39607 0.9354 0.8551 0.0
H1242 H 0.04966 0.51803 0.99203 0.0
H1243 H 0.08231 0.41159 0.84165 0.0
H1244 H 0.97635 0.43308 0.95275 0.0
H1245 H 0.13917 0.46552 0.95163 0.0
H1246 H 0.04273 0.41996 0.87212 0.0
H1247 H 0.08371 0.50177 0.96586 0.0
C1248 C 0.04067 0.4961 0.9774 0.0
C1249 C 0.00997 0.47737 0.97349 0.0
C1250 C 0.06371 0.42931 0.89001 0.0
C1251 C 0.04899 0.45847 0.94323 0.0
C1252 C 0.08608 0.42424 0.87299 0.0
C1253 C 0.1139 0.4377 0.89445 0.0
C1254 C 0.06974 0.44845 0.92782 0.0
C1255 C 0.11798 0.45465 0.9342 0.0
C1256 C 0.06012 0.48677 0.96257 0.0
C1257 C 0.99969 0.44894 0.95454 0.0
N1258 N 0.09644 0.45993 0.94907 0.0
N1259 N 0.01914 0.44044 0.93972 0.0
H1260 H 0.54505 0.64584 0.79386 0.0
H1261 H 0.57512 0.55163 0.98021 0.0
H1262 H 0.60507 0.68925 0.90657 0.0
H1263 H 0.4918 0.52099 0.9115 0.0
H1264 H 0.5942 0.60053 0.9434 0.0
H1265 H 0.53497 0.59797 0.82376 0.0
C1266 C 0.55706 0.64535 0.82395 0.0
C1267 C 0.57597 0.6716 0.84771 0.0
C1268 C 0.57177 0.58309 0.93643 0.0
C1269 C 0.5639 0.61667 0.88286 0.0
C1270 C 0.56092 0.55536 0.95739 0.0
C1271 C 0.53184 0.53256 0.94892 0.0
C1272 C 0.55359 0.58766 0.90592 0.0
C1273 C 0.51421 0.53818 0.91908 0.0
C1274 C 0.5509 0.61797 0.8414 0.0
C1275 C 0.59063 0.6696 0.88688 0.0
N1276 N 0.52542 0.56508 0.89836 0.0
N1277 N 0.584 0.6425 0.90368 0.0
H1278 H 0.04412 0.52079 0.43525 0.0
H1279 H 0.0972 0.69147 0.41274 0.0
H1280 H 0.98951 0.5537 0.49009 0.0
H1281 H 0.11467 0.64291 0.30934 0.0
H1282 H 0.05962 0.64391 0.44675 0.0
H1283 H 0.07464 0.56845 0.39623 0.0
C1284 C 0.03877 0.53822 0.43921 0.0
C1285 C 0.01431 0.5334 0.46556 0.0
C1286 C 0.07128 0.64381 0.41598 0.0
C1287 C 0.04904 0.58801 0.42145 0.0
C1288 C 0.09238 0.67092 0.39619 0.0
C1289 C 0.10907 0.67118 0.35807 0.0
C1290 C 0.06743 0.61703 0.39792 0.0
C1291 C 0.10239 0.64379 0.33877 0.0
C1292 C 0.05594 0.56528 0.41673 0.0
C1293 C 0.00812 0.55663 0.46966 0.0
N1294 N 0.08263 0.61799 0.35933 0.0
N1295 N 0.02549 0.58305 0.44812 0.0
H1296 H 0.49538 0.49499 0.39183 0.0
H1297 H 0.32039 0.41389 0.43822 0.0
H1298 H 0.45628 0.45938 0.5238 0.0
H1299 H 0.36234 0.4583 0.31206 0.0
H1300 H 0.36858 0.42273 0.46662 0.0
H1301 H 0.44588 0.47573 0.35923 0.0
C1302 C 0.47628 0.48283 0.4138 0.0
C1303 C 0.47986 0.47841 0.46039 0.0
C1304 C 0.36709 0.42986 0.43225 0.0
C1305 C 0.42294 0.45651 0.42357 0.0
C1306 C 0.33949 0.4243 0.41574 0.0
C1307 C 0.33737 0.43492 0.37244 0.0
C1308 C 0.39262 0.44622 0.40518 0.0
C1309 C 0.363 0.44933 0.34535 0.0
C1310 C 0.44799 0.4719 0.39528 0.0
C1311 C 0.45438 0.46323 0.4877 0.0
N1312 N 0.38952 0.45478 0.36226 0.0
N1313 N 0.42699 0.45277 0.46892 0.0
H1314 H 0.60366 0.9131 0.41966 0.0
H1315 H 0.51942 0.00609 0.40017 0.0
H1316 H 0.55106 0.90952 0.30307 0.0
H1317 H 0.55746 0.997 0.5262 0.0
H1318 H 0.53791 0.97725 0.35997 0.0
H1319 H 0.59559 0.95158 0.45405 0.0
C1320 C 0.59154 0.92135 0.40038 0.0
C1321 C 0.5783 0.90836 0.35819 0.0
C1322 C 0.54244 0.9817 0.39636 0.0
C1323 C 0.56805 0.95152 0.39795 0.0
C1324 C 0.53195 0.99824 0.41923 0.0
C1325 C 0.53719 1.00417 0.46645 0.0
C1326 C 0.55832 0.97089 0.42082 0.0
C1327 C 0.55294 0.99285 0.48978 0.0
C1328 C 0.58643 0.94289 0.42041 0.0
C1329 C 0.56193 0.91918 0.33542 0.0
N1330 N 0.563 0.97682 0.46677 0.0
N1331 N 0.55704 0.93985 0.35571 0.0
H1332 H 0.16356 0.33621 0.23212 0.0
H1333 H 0.98669 0.24569 0.25883 0.0
H1334 H 0.11884 0.33011 0.35963 0.0
H1335 H 0.03337 0.24265 0.13861 0.0
H1336 H 0.03398 0.28374 0.2919 0.0
H1337 H 0.11552 0.30765 0.19392 0.0
C1338 C 0.14354 0.32898 0.25194 0.0
C1339 C 0.14511 0.33573 0.29894 0.0
C1340 C 0.03378 0.2753 0.25776 0.0
C1341 C 0.08988 0.30282 0.25565 0.0
C1342 C 1.0067 0.25402 0.23851 0.0
C1343 C 1.00611 0.24132 0.19566 0.0
C1344 C 0.06033 0.28386 0.23387 0.0
C1345 C 0.03285 0.25216 0.1715 0.0
C1346 C 0.1161 0.31264 0.23022 0.0
C1347 C 0.1185 0.32527 0.32334 0.0
N1348 N 0.05883 0.27251 0.19107 0.0
N1349 N 0.09197 0.30939 0.30144 0.0
H1350 H 0.65497 0.77129 0.33446 0.0
H1351 H 0.7778 0.80329 0.14465 0.0
H1352 H 0.70679 0.85518 0.26677 0.0
H1353 H 0.76391 0.7434 0.25631 0.0
H1354 H 0.74074 0.81325 0.1777 0.0
H1355 H 0.68565 0.75325 0.29748 0.0
C1356 C 0.6729 0.78585 0.31188 0.0
C1357 C 0.67859 0.81477 0.30363 0.0
C1358 C 0.7453 0.79747 0.19458 0.0
C1359 C 0.71297 0.79418 0.26051 0.0
C1360 C 0.76615 0.7914 0.17539 0.0
C1361 C 0.77397 0.77243 0.19769 0.0
C1362 C 0.73178 0.78434 0.23643 0.0
C1363 C 0.75831 0.75789 0.2377 0.0
C1364 C 0.69029 0.77559 0.29087 0.0
C1365 C 0.70194 0.83287 0.27417 0.0
N1366 N 0.7381 0.76438 0.25616 0.0
N1367 N 0.71807 0.82221 0.25334 0.0
H1368 H 0.18045 0.84825 0.22287 0.0
H1369 H 0.26602 0.02523 0.25215 0.0
H1370 H 0.2182 0.89218 0.35129 0.0
H1371 H 0.21633 0.97892 0.13166 0.0
H1372 H 0.25633 0.97773 0.28497 0.0
H1373 H 0.19931 0.89654 0.18582 0.0
C1374 C 0.1929 0.86815 0.24316 0.0
C1375 C 0.19803 0.86625 0.29007 0.0
C1376 C 0.24817 0.97805 0.25085 0.0
C1377 C 0.21968 0.92184 0.24803 0.0
C1378 C 0.25424 1.00525 0.23174 0.0
C1379 C 0.24238 0.00606 0.18878 0.0
C1380 C 0.23017 0.95155 0.22673 0.0
C1381 C 0.22626 0.97932 0.16457 0.0
C1382 C 0.20365 0.89575 0.22208 0.0
C1383 C 0.21374 0.89274 0.31506 0.0
N1384 N 0.22043 0.95324 0.18396 0.0
N1385 N 0.22409 0.91944 0.29375 0.0
H1386 H 0.7683 0.98102 0.63338 0.0
H1387 H 0.68635 0.89125 0.86027 0.0
H1388 H 0.76927 0.02411 0.7603 0.0
H1389 H 0.67382 0.85082 0.72678 0.0
H1390 H 0.7155 0.94029 0.82439 0.0
H1391 H 0.73055 0.93372 0.66534 0.0
C1392 C 0.75955 0.98067 0.66735 0.0
C1393 C 0.77146 0.00663 0.69385 0.0
C1394 C 0.70619 0.92072 0.80286 0.0
C1395 C 0.72938 0.95214 0.73194 0.0
C1396 C 0.68982 0.89278 0.8234 0.0
C1397 C 0.67747 0.86703 0.79636 0.0
C1398 C 0.71061 0.92293 0.75492 0.0
C1399 C 0.68253 0.87015 0.74872 0.0
C1400 C 0.73834 0.95356 0.68595 0.0
C1401 C 0.76012 1.00475 0.73831 0.0
N1402 N 0.69874 0.8975 0.72959 0.0
N1403 N 0.74011 0.9779 0.75629 0.0
H1404 H 0.03502 0.80635 0.63287 0.0
H1405 H 0.13049 0.77285 0.8121 0.0
H1406 H 0.99224 0.74371 0.74267 0.0
H1407 H 0.16059 0.85766 0.74866 0.0
H1408 H 0.08141 0.75449 0.77635 0.0
H1409 H 0.08308 0.81638 0.66172 0.0
C1410 C 0.03571 0.79384 0.66214 0.0
C1411 C 0.00954 0.7741 0.68532 0.0
C1412 C 0.09879 0.77707 0.77023 0.0
C1413 C 0.06476 0.78604 0.71927 0.0
C1414 C 0.12667 0.7875 0.7905 0.0
C1415 C 0.14942 0.81678 0.7832 0.0
C1416 C 0.09395 0.79589 0.74159 0.0
C1417 C 0.14352 0.83503 0.75521 0.0
C1418 C 0.06319 0.79994 0.67898 0.0
C1419 C 0.01181 0.75879 0.72341 0.0
N1420 N 0.11647 0.82424 0.73512 0.0
N1421 N 0.03903 0.76533 0.7396 0.0
H1422 H 0.2249 0.24693 0.62965 0.0
H1423 H 0.2229 0.33229 0.85666 0.0
H1424 H 0.26866 0.24665 0.75502 0.0
H1425 H 0.18675 0.33822 0.7266 0.0
H1426 H 0.24287 0.30373 0.81932 0.0
H1427 H 0.21605 0.28501 0.66201 0.0
C1428 C 0.23378 0.25588 0.66335 0.0
C1429 C 0.24801 0.24401 0.68936 0.0
C1430 C 0.23082 0.3115 0.7988 0.0
C1431 C 0.23649 0.28656 0.7279 0.0
C1432 C 0.21923 0.32757 0.8202 0.0
C1433 C 0.20343 0.3379 0.79458 0.0
C1434 C 0.22629 0.30536 0.75142 0.0
C1435 C 0.1993 0.33123 0.74742 0.0
C1436 C 0.22828 0.27729 0.68218 0.0
C1437 C 0.25822 0.2557 0.73343 0.0
N1438 N 0.21056 0.31535 0.72745 0.0
N1439 N 0.25179 0.27595 0.75166 0.0
H1440 H 0.65567 0.57505 0.58763 0.0
H1441 H 0.83166 0.67436 0.55129 0.0
H1442 H 0.70063 0.57727 0.46217 0.0
H1443 H 0.78965 0.65997 0.68372 0.0
H1444 H 0.78289 0.64488 0.51544 0.0
H1445 H 0.70316 0.61331 0.62011 0.0
C1446 C 0.67528 0.58457 0.56621 0.0
C1447 C 0.67413 0.57343 0.52181 0.0
C1448 C 0.78423 0.64827 0.55233 0.0
C1449 C 0.72868 0.61625 0.55921 0.0
C1450 C 0.8121 0.66519 0.57273 0.0
C1451 C 0.81467 0.66985 0.62046 0.0
C1452 C 0.75857 0.63582 0.57978 0.0
C1453 C 0.78859 0.65684 0.6468 0.0
C1454 C 0.7025 0.60597 0.58504 0.0
C1455 C 0.70047 0.58566 0.49622 0.0
N1456 N 0.76166 0.64051 0.62617 0.0
N1457 N 0.7266 0.60617 0.51532 0.0
H1458 H 0.35034 0.12909 0.70564 0.0
H1459 H 0.43255 0.11258 0.48461 0.0
H1460 H 0.34295 0.15662 0.56904 0.0
H1461 H 0.44047 0.08357 0.61971 0.0
H1462 H 0.39411 0.12213 0.51329 0.0
H1463 H 0.37975 0.10815 0.67453 0.0
C1464 C 0.3549 0.13066 0.66908 0.0
C1465 C 0.34384 0.14422 0.63978 0.0
C1466 C 0.40357 0.1129 0.53656 0.0
C1467 C 0.3773 0.1202 0.60375 0.0
C1468 C 0.42513 0.1069 0.5199 0.0
C1469 C 0.43914 0.09654 0.54954 0.0
C1470 C 0.39633 0.10915 0.58361 0.0
C1471 C 0.42961 0.09076 0.59546 0.0
C1472 C 0.37147 0.11852 0.65126 0.0
C1473 C 0.3504 0.14573 0.59267 0.0
N1474 N 0.40912 0.09756 0.61129 0.0
N1475 N 0.36667 0.13392 0.57619 0.0
H1476 H 0.93809 0.35909 0.59331 0.0
H1477 H 0.82179 0.18751 0.60462 0.0
H1478 H 0.872 0.31303 0.48894 0.0
H1479 H 0.90892 0.22003 0.66086 0.0
H1480 H 0.83873 0.23596 0.56873 0.0
H1481 H 0.92872 0.31078 0.62312 0.0
C1482 C 0.92245 0.33895 0.57567 0.0
C1483 C 0.9058 0.34007 0.53857 0.0
C1484 C 0.85425 0.23253 0.58877 0.0
C1485 C 0.89406 0.28504 0.57356 0.0
C1486 C 0.84447 0.20499 0.60946 0.0
C1487 C 0.86404 0.19983 0.63533 0.0
C1488 C 0.8837 0.25543 0.59481 0.0
C1489 C 0.89331 0.22319 0.64069 0.0
C1490 C 0.91681 0.3114 0.59304 0.0
C1491 C 0.88526 0.31321 0.51772 0.0
N1492 N 0.90225 0.2501 0.6209 0.0
N1493 N 0.8796 0.28693 0.53594 0.0
H1494 H 0.35177 0.2253 0.18748 0.0
H1495 H 0.43458 0.31377 0.95941 0.0
H1496 H 0.34141 0.18412 0.05508 0.0
H1497 H 0.43787 0.35757 0.0867 0.0
H1498 H 0.39689 0.26677 0.99227 0.0
H1499 H 0.3815 0.27414 0.15125 0.0
C1500 C 0.35579 0.2266 0.15077 0.0
C1501 C 0.34382 0.20067 0.12415 0.0
C1502 C 0.40519 0.28669 0.01282 0.0
C1503 C 0.3777 0.25641 0.08228 0.0
C1504 C 0.42638 0.31364 0.99373 0.0
C1505 C 0.43883 0.33974 0.01995 0.0
C1506 C 0.39677 0.28552 0.05906 0.0
C1507 C 0.42824 0.33811 0.06489 0.0
C1508 C 0.37253 0.25445 0.13002 0.0
C1509 C 0.34968 0.20355 0.07671 0.0
N1510 N 0.40816 0.3114 0.08329 0.0
N1511 N 0.36619 0.23081 0.05739 0.0
H1512 H 0.82376 0.18788 0.10398 0.0
H1513 H 0.65304 0.07169 0.10109 0.0
H1514 H 0.79283 0.10367 0.16999 0.0
H1515 H 0.6979 0.13005 0.98732 0.0
H1516 H 0.70149 0.08207 0.13147 0.0
H1517 H 0.77501 0.16853 0.0676 0.0
C1518 C 0.8065 0.16539 0.11102 0.0
C1519 C 0.8121 0.14731 0.13983 0.0
C1520 C 0.70055 0.09189 0.09916 0.0
C1521 C 0.75637 0.12491 0.09867 0.0
C1522 C 0.67289 0.08556 0.08143 0.0
C1523 C 0.67146 0.09988 0.04146 0.0
C1524 C 0.72668 0.11309 0.07713 0.0
C1525 C 0.69801 0.11847 0.01817 0.0
C1526 C 0.77884 0.15422 0.09001 0.0
C1527 C 0.78916 0.11817 0.14779 0.0
N1528 N 0.72445 0.12502 0.03679 0.0
N1529 N 0.76214 0.10787 0.12763 0.0
H1530 H 0.93531 0.59692 0.02042 0.0
H1531 H 0.82381 0.62688 0.16103 0.0
H1532 H 0.87587 0.53619 0.12213 0.0
H1533 H 0.91159 0.70002 0.13568 0.0
H1534 H 0.84051 0.59281 0.13619 0.0
H1535 H 0.92661 0.63587 0.05286 0.0
C1536 C 0.92136 0.59211 0.05047 0.0
C1537 C 0.90646 0.56341 0.06891 0.0
C1538 C 0.85605 0.6164 0.13569 0.0
C1539 C 0.89536 0.60696 0.10437 0.0
C1540 C 0.84649 0.63585 0.14982 0.0
C1541 C 0.86588 0.66655 0.14898 0.0
C1542 C 0.88523 0.62758 0.12014 0.0
C1543 C 0.89526 0.67679 0.1346 0.0
C1544 C 0.9161 0.61414 0.06858 0.0
C1545 C 0.88787 0.55808 0.10702 0.0
N1546 N 0.90395 0.65741 0.12019 0.0
N1547 N 0.88246 0.57936 0.12286 0.0
loop_
_geom_bond_atom_site_label_1
_geom_bond_atom_site_label_2
_geom_bond_distance
_geom_bond_site_symmetry_2
_ccdc_geom_bond_type
Zn0 O1 2.055 . S
Zn0 O8 2.046 . S
Zn0 N16 2.036 . S
Zn0 O28 2.053 . S
Zn0 O30 2.066 1_554 S
O1 Zn0 2.055 . S
O1 C4 1.259 . S
C2 O30 1.256 . S
C2 O31 1.244 . S
Zn3 O5 2.046 . S
Zn3 O7 2.055 . S
Zn3 N9 2.036 . S
Zn3 O27 2.066 . S
Zn3 O31 2.053 1_554 S
C4 O1 1.259 . S
C4 O5 1.254 . S
O5 Zn3 2.046 . S
O5 C4 1.254 . S
C6 O27 1.256 . S
C6 O28 1.244 . S
O7 Zn3 2.055 . S
O7 C29 1.259 . S
O8 Zn0 2.046 . S
O8 C29 1.254 . S
N9 Zn3 2.036 . S
N9 C10 1.298 . S
N9 N12 1.398 1_554 S
C10 N9 1.298 . S
C10 N13 1.367 . S
C10 C23 1.481 . S
C11 N12 1.299 . S
C11 N13 1.379 1_556 S
N12 N9 1.398 1_556 S
N12 C11 1.299 . S
N13 C10 1.367 . S
N13 C11 1.379 1_554 S
C14 N16 1.298 1_556 S
C14 N18 1.367 . S
C14 C22 1.481 . S
C15 N17 1.299 . S
C15 N18 1.379 1_554 S
N16 Zn0 2.036 . S
N16 C14 1.298 1_554 S
N16 N17 1.398 . S
N17 C15 1.299 . S
N17 N16 1.398 . S
N18 C14 1.367 . S
N18 C15 1.379 1_556 S
H19 C22 0.980 . S
H20 C22 0.981 . S
H21 C22 0.981 . S
C22 C14 1.481 . S
C22 H19 0.980 . S
C22 H20 0.981 . S
C22 H21 0.981 . S
C23 C10 1.481 . S
C23 H24 0.980 . S
C23 H25 0.981 . S
C23 H26 0.981 . S
H24 C23 0.980 . S
H25 C23 0.981 . S
H26 C23 0.981 . S
O27 Zn3 2.066 . S
O27 C6 1.256 . S
O28 Zn0 2.053 . S
O28 C6 1.244 . S
C29 O7 1.259 . S
C29 O8 1.254 . S
O30 Zn0 2.066 1_556 S
O30 C2 1.256 . S
O31 C2 1.244 . S
O31 Zn3 2.053 1_556 S
Zn32 O33 2.055 . S
Zn32 O40 2.046 . S
Zn32 N48 2.036 . S
Zn32 O60 2.053 . S
Zn32 O62 2.066 1_554 S
O33 Zn32 2.055 . S
O33 C36 1.259 . S
C34 O62 1.256 . S
C34 O63 1.244 . S
Zn35 O37 2.046 . S
Zn35 O39 2.055 . S
Zn35 N41 2.036 . S
Zn35 O59 2.066 . S
Zn35 O63 2.053 1_554 S
C36 O33 1.259 . S
C36 O37 1.254 . S
O37 Zn35 2.046 . S
O37 C36 1.254 . S
C38 O59 1.256 . S
C38 O60 1.244 . S
O39 Zn35 2.055 . S
O39 C61 1.259 . S
O40 Zn32 2.046 . S
O40 C61 1.254 . S
N41 Zn35 2.036 . S
N41 C42 1.298 . S
N41 N44 1.398 1_554 S
C42 N41 1.298 . S
C42 N45 1.367 . S
C42 C55 1.481 . S
C43 N44 1.299 . S
C43 N45 1.379 1_556 S
N44 N41 1.398 1_556 S
N44 C43 1.299 . S
N45 C42 1.367 . S
N45 C43 1.379 1_554 S
C46 N48 1.298 1_556 S
C46 N50 1.367 . S
C46 C54 1.481 . S
C47 N49 1.299 . S
C47 N50 1.379 1_554 S
N48 Zn32 2.036 . S
N48 C46 1.298 1_554 S
N48 N49 1.398 . S
N49 C47 1.299 . S
N49 N48 1.398 . S
N50 C46 1.367 . S
N50 C47 1.379 1_556 S
H51 C54 0.980 . S
H52 C54 0.981 . S
H53 C54 0.981 . S
C54 C46 1.481 . S
C54 H51 0.980 . S
C54 H52 0.981 . S
C54 H53 0.981 . S
C55 C42 1.481 . S
C55 H56 0.980 . S
C55 H57 0.981 . S
C55 H58 0.981 . S
H56 C55 0.980 . S
H57 C55 0.981 . S
H58 C55 0.981 . S
O59 Zn35 2.066 . S
O59 C38 1.256 . S
O60 Zn32 2.053 . S
O60 C38 1.244 . S
C61 O39 1.259 . S
C61 O40 1.254 . S
O62 Zn32 2.066 1_556 S
O62 C34 1.256 . S
O63 C34 1.244 . S
O63 Zn35 2.053 1_556 S
Zn64 O65 2.055 . S
Zn64 O72 2.046 . S
Zn64 N80 2.036 . S
Zn64 O92 2.053 . S
Zn64 O94 2.066 1_554 S
O65 Zn64 2.055 . S
O65 C68 1.259 . S
C66 O94 1.256 . S
C66 O95 1.244 . S
Zn67 O69 2.046 . S
Zn67 O71 2.055 . S
Zn67 N73 2.036 . S
Zn67 O91 2.066 . S
Zn67 O95 2.053 1_554 S
C68 O65 1.259 . S
C68 O69 1.254 . S
O69 Zn67 2.046 . S
O69 C68 1.254 . S
C70 O91 1.256 . S
C70 O92 1.244 . S
O71 Zn67 2.055 . S
O71 C93 1.259 . S
O72 Zn64 2.046 . S
O72 C93 1.254 . S
N73 Zn67 2.036 . S
N73 C74 1.298 . S
N73 N76 1.398 1_554 S
C74 N73 1.298 . S
C74 N77 1.367 . S
C74 C87 1.481 . S
C75 N76 1.299 . S
C75 N77 1.379 1_556 S
N76 N73 1.398 1_556 S
N76 C75 1.299 . S
N77 C74 1.367 . S
N77 C75 1.379 1_554 S
C78 N80 1.298 1_556 S
C78 N82 1.367 . S
C78 C86 1.481 . S
C79 N81 1.299 . S
C79 N82 1.379 1_554 S
N80 Zn64 2.036 . S
N80 C78 1.298 1_554 S
N80 N81 1.398 . S
N81 C79 1.299 . S
N81 N80 1.398 . S
N82 C78 1.367 . S
N82 C79 1.379 1_556 S
H83 C86 0.980 . S
H84 C86 0.981 . S
H85 C86 0.981 . S
C86 C78 1.481 . S
C86 H83 0.980 . S
C86 H84 0.981 . S
C86 H85 0.981 . S
C87 C74 1.481 . S
C87 H88 0.980 . S
C87 H89 0.981 . S
C87 H90 0.981 . S
H88 C87 0.980 . S
H89 C87 0.981 . S
H90 C87 0.981 . S
O91 Zn67 2.066 . S
O91 C70 1.256 . S
O92 Zn64 2.053 . S
O92 C70 1.244 . S
C93 O71 1.259 . S
C93 O72 1.254 . S
O94 Zn64 2.066 1_556 S
O94 C66 1.256 . S
O95 C66 1.244 . S
O95 Zn67 2.053 1_556 S
Zn96 O97 2.055 . S
Zn96 O104 2.046 . S
Zn96 N112 2.036 . S
Zn96 O124 2.053 . S
Zn96 O126 2.066 . S
O97 Zn96 2.055 . S
O97 C100 1.259 . S
C98 O126 1.256 . S
C98 O127 1.244 . S
Zn99 O101 2.046 . S
Zn99 O103 2.055 . S
Zn99 N105 2.036 . S
Zn99 O123 2.066 . S
Zn99 O127 2.053 . S
C100 O97 1.259 . S
C100 O101 1.254 . S
O101 Zn99 2.046 . S
O101 C100 1.254 . S
C102 O123 1.256 . S
C102 O124 1.244 . S
O103 Zn99 2.055 . S
O103 C125 1.259 . S
O104 Zn96 2.046 . S
O104 C125 1.254 . S
N105 Zn99 2.036 . S
N105 C106 1.298 . S
N105 N108 1.398 . S
C106 N105 1.298 . S
C106 N109 1.367 . S
C106 C119 1.481 . S
C107 N108 1.299 . S
C107 N109 1.379 . S
N108 N105 1.398 . S
N108 C107 1.299 . S
N109 C106 1.367 . S
N109 C107 1.379 . S
C110 N112 1.298 . S
C110 N114 1.367 . S
C110 C118 1.481 . S
C111 N113 1.299 . S
C111 N114 1.379 . S
N112 Zn96 2.036 . S
N112 C110 1.298 . S
N112 N113 1.398 . S
N113 C111 1.299 . S
N113 N112 1.398 . S
N114 C110 1.367 . S
N114 C111 1.379 . S
H115 C118 0.980 . S
H116 C118 0.981 . S
H117 C118 0.981 . S
C118 C110 1.481 . S
C118 H115 0.980 . S
C118 H116 0.981 . S
C118 H117 0.981 . S
C119 C106 1.481 . S
C119 H120 0.980 . S
C119 H121 0.981 . S
C119 H122 0.981 . S
H120 C119 0.980 . S
H121 C119 0.981 . S
H122 C119 0.981 . S
O123 Zn99 2.066 . S
O123 C102 1.256 . S
O124 Zn96 2.053 . S
O124 C102 1.244 . S
C125 O103 1.259 . S
C125 O104 1.254 . S
O126 Zn96 2.066 . S
O126 C98 1.256 . S
O127 C98 1.244 . S
O127 Zn99 2.053 . S
Zn128 O129 2.055 . S
Zn128 O136 2.046 . S
Zn128 N144 2.036 . S
Zn128 O156 2.053 . S
Zn128 O158 2.066 . S
O129 Zn128 2.055 . S
O129 C132 1.259 . S
C130 O158 1.256 . S
C130 O159 1.244 . S
Zn131 O133 2.046 . S
Zn131 O135 2.055 . S
Zn131 N137 2.036 . S
Zn131 O155 2.066 . S
Zn131 O159 2.053 . S
C132 O129 1.259 . S
C132 O133 1.254 . S
O133 Zn131 2.046 . S
O133 C132 1.254 . S
C134 O155 1.256 . S
C134 O156 1.244 . S
O135 Zn131 2.055 . S
O135 C157 1.259 . S
O136 Zn128 2.046 . S
O136 C157 1.254 . S
N137 Zn131 2.036 . S
N137 C138 1.298 . S
N137 N140 1.398 . S
C138 N137 1.298 . S
C138 N141 1.367 . S
C138 C151 1.481 . S
C139 N140 1.299 . S
C139 N141 1.379 . S
N140 N137 1.398 . S
N140 C139 1.299 . S
N141 C138 1.367 . S
N141 C139 1.379 . S
C142 N144 1.298 . S
C142 N146 1.367 . S
C142 C150 1.481 . S
C143 N145 1.299 . S
C143 N146 1.379 . S
N144 Zn128 2.036 . S
N144 C142 1.298 . S
N144 N145 1.398 . S
N145 C143 1.299 . S
N145 N144 1.398 . S
N146 C142 1.367 . S
N146 C143 1.379 . S
H147 C150 0.980 . S
H148 C150 0.981 . S
H149 C150 0.981 . S
C150 C142 1.481 . S
C150 H147 0.980 . S
C150 H148 0.981 . S
C150 H149 0.981 . S
C151 C138 1.481 . S
C151 H152 0.980 . S
C151 H153 0.981 . S
C151 H154 0.981 . S
H152 C151 0.980 . S
H153 C151 0.981 . S
H154 C151 0.981 . S
O155 Zn131 2.066 . S
O155 C134 1.256 . S
O156 Zn128 2.053 . S
O156 C134 1.244 . S
C157 O135 1.259 . S
C157 O136 1.254 . S
O158 Zn128 2.066 . S
O158 C130 1.256 . S
O159 C130 1.244 . S
O159 Zn131 2.053 . S
Zn160 O161 2.055 . S
Zn160 O168 2.046 . S
Zn160 N176 2.036 . S
Zn160 O188 2.053 . S
Zn160 O190 2.066 . S
O161 Zn160 2.055 . S
O161 C164 1.259 . S
C162 O190 1.256 . S
C162 O191 1.244 . S
Zn163 O165 2.046 . S
Zn163 O167 2.055 . S
Zn163 N169 2.036 . S
Zn163 O187 2.066 . S
Zn163 O191 2.053 . S
C164 O161 1.259 . S
C164 O165 1.254 . S
O165 Zn163 2.046 . S
O165 C164 1.254 . S
C166 O187 1.256 . S
C166 O188 1.244 . S
O167 Zn163 2.055 . S
O167 C189 1.259 . S
O168 Zn160 2.046 . S
O168 C189 1.254 . S
N169 Zn163 2.036 . S
N169 C170 1.298 . S
N169 N172 1.398 . S
C170 N169 1.298 . S
C170 N173 1.367 . S
C170 C183 1.481 . S
C171 N172 1.299 . S
C171 N173 1.379 . S
N172 N169 1.398 . S
N172 C171 1.299 . S
N173 C170 1.367 . S
N173 C171 1.379 . S
C174 N176 1.298 . S
C174 N178 1.367 . S
C174 C182 1.481 . S
C175 N177 1.299 . S
C175 N178 1.379 . S
N176 Zn160 2.036 . S
N176 C174 1.298 . S
N176 N177 1.398 . S
N177 C175 1.299 . S
N177 N176 1.398 . S
N178 C174 1.367 . S
N178 C175 1.379 . S
H179 C182 0.980 . S
H180 C182 0.981 . S
H181 C182 0.981 . S
C182 C174 1.481 . S
C182 H179 0.980 . S
C182 H180 0.981 . S
C182 H181 0.981 . S
C183 C170 1.481 . S
C183 H184 0.980 . S
C183 H185 0.981 . S
C183 H186 0.981 . S
H184 C183 0.980 . S
H185 C183 0.981 . S
H186 C183 0.981 . S
O187 Zn163 2.066 . S
O187 C166 1.256 . S
O188 Zn160 2.053 . S
O188 C166 1.244 . S
C189 O167 1.259 . S
C189 O168 1.254 . S
O190 Zn160 2.066 . S
O190 C162 1.256 . S
O191 C162 1.244 . S
O191 Zn163 2.053 . S
Zn192 O193 2.055 . S
Zn192 O200 2.046 . S
Zn192 N208 2.036 . S
Zn192 O220 2.053 . S
Zn192 O222 2.066 . S
O193 Zn192 2.055 . S
O193 C196 1.259 . S
C194 O222 1.256 . S
C194 O223 1.244 . S
Zn195 O197 2.046 . S
Zn195 O199 2.055 . S
Zn195 N201 2.036 . S
Zn195 O219 2.066 . S
Zn195 O223 2.053 . S
C196 O193 1.259 . S
C196 O197 1.254 . S
O197 Zn195 2.046 . S
O197 C196 1.254 . S
C198 O219 1.256 . S
C198 O220 1.244 . S
O199 Zn195 2.055 . S
O199 C221 1.259 . S
O200 Zn192 2.046 . S
O200 C221 1.254 . S
N201 Zn195 2.036 . S
N201 C202 1.298 . S
N201 N204 1.398 . S
C202 N201 1.298 . S
C202 N205 1.367 . S
C202 C215 1.481 . S
C203 N204 1.299 . S
C203 N205 1.379 . S
N204 N201 1.398 . S
N204 C203 1.299 . S
N205 C202 1.367 . S
N205 C203 1.379 . S
C206 N208 1.298 . S
C206 N210 1.367 . S
C206 C214 1.481 . S
C207 N209 1.299 . S
C207 N210 1.379 . S
N208 Zn192 2.036 . S
N208 C206 1.298 . S
N208 N209 1.398 . S
N209 C207 1.299 . S
N209 N208 1.398 . S
N210 C206 1.367 . S
N210 C207 1.379 . S
H211 C214 0.980 . S
H212 C214 0.981 . S
H213 C214 0.981 . S
C214 C206 1.481 . S
C214 H211 0.980 . S
C214 H212 0.981 . S
C214 H213 0.981 . S
C215 C202 1.481 . S
C215 H216 0.980 . S
C215 H217 0.981 . S
C215 H218 0.981 . S
H216 C215 0.980 . S
H217 C215 0.981 . S
H218 C215 0.981 . S
O219 Zn195 2.066 . S
O219 C198 1.256 . S
O220 Zn192 2.053 . S
O220 C198 1.244 . S
C221 O199 1.259 . S
C221 O200 1.254 . S
O222 Zn192 2.066 . S
O222 C194 1.256 . S
O223 C194 1.244 . S
O223 Zn195 2.053 . S
Zn224 O225 2.055 . S
Zn224 O232 2.046 . S
Zn224 N240 2.036 . S
Zn224 O252 2.053 . S
Zn224 O254 2.066 . S
O225 Zn224 2.055 . S
O225 C228 1.259 . S
C226 O254 1.256 . S
C226 O255 1.244 . S
Zn227 O229 2.046 . S
Zn227 O231 2.055 . S
Zn227 N233 2.036 . S
Zn227 O251 2.066 . S
Zn227 O255 2.053 . S
C228 O225 1.259 . S
C228 O229 1.254 . S
O229 Zn227 2.046 . S
O229 C228 1.254 . S
C230 O251 1.256 . S
C230 O252 1.244 . S
O231 Zn227 2.055 . S
O231 C253 1.259 . S
O232 Zn224 2.046 . S
O232 C253 1.254 . S
N233 Zn227 2.036 . S
N233 C234 1.298 . S
N233 N236 1.398 . S
C234 N233 1.298 . S
C234 N237 1.367 . S
C234 C247 1.481 . S
C235 N236 1.299 . S
C235 N237 1.379 . S
N236 N233 1.398 . S
N236 C235 1.299 . S
N237 C234 1.367 . S
N237 C235 1.379 . S
C238 N240 1.298 . S
C238 N242 1.367 . S
C238 C246 1.481 . S
C239 N241 1.299 . S
C239 N242 1.379 . S
N240 Zn224 2.036 . S
N240 C238 1.298 . S
N240 N241 1.398 . S
N241 C239 1.299 . S
N241 N240 1.398 . S
N242 C238 1.367 . S
N242 C239 1.379 . S
H243 C246 0.980 . S
H244 C246 0.981 . S
H245 C246 0.981 . S
C246 C238 1.481 . S
C246 H243 0.980 . S
C246 H244 0.981 . S
C246 H245 0.981 . S
C247 C234 1.481 . S
C247 H248 0.980 . S
C247 H249 0.981 . S
C247 H250 0.981 . S
H248 C247 0.980 . S
H249 C247 0.981 . S
H250 C247 0.981 . S
O251 Zn227 2.066 . S
O251 C230 1.256 . S
O252 Zn224 2.053 . S
O252 C230 1.244 . S
C253 O231 1.259 . S
C253 O232 1.254 . S
O254 Zn224 2.066 . S
O254 C226 1.256 . S
O255 C226 1.244 . S
O255 Zn227 2.053 . S
Zn256 O257 2.055 . S
Zn256 O264 2.046 . S
Zn256 N272 2.036 . S
Zn256 O284 2.053 . S
Zn256 O286 2.066 . S
O257 Zn256 2.055 . S
O257 C260 1.259 . S
C258 O286 1.256 . S
C258 O287 1.244 . S
Zn259 O261 2.046 . S
Zn259 O263 2.055 . S
Zn259 N265 2.036 . S
Zn259 O283 2.066 . S
Zn259 O287 2.053 . S
C260 O257 1.259 . S
C260 O261 1.254 . S
O261 Zn259 2.046 . S
O261 C260 1.254 . S
C262 O283 1.256 . S
C262 O284 1.244 . S
O263 Zn259 2.055 . S
O263 C285 1.259 . S
O264 Zn256 2.046 . S
O264 C285 1.254 . S
N265 Zn259 2.036 . S
N265 C266 1.298 . S
N265 N268 1.398 . S
C266 N265 1.298 . S
C266 N269 1.367 . S
C266 C279 1.481 . S
C267 N268 1.299 . S
C267 N269 1.379 . S
N268 N265 1.398 . S
N268 C267 1.299 . S
N269 C266 1.367 . S
N269 C267 1.379 . S
C270 N272 1.298 . S
C270 N274 1.367 . S
C270 C278 1.481 . S
C271 N273 1.299 . S
C271 N274 1.379 . S
N272 Zn256 2.036 . S
N272 C270 1.298 . S
N272 N273 1.398 . S
N273 C271 1.299 . S
N273 N272 1.398 . S
N274 C270 1.367 . S
N274 C271 1.379 . S
H275 C278 0.980 . S
H276 C278 0.981 . S
H277 C278 0.981 . S
C278 C270 1.481 . S
C278 H275 0.980 . S
C278 H276 0.981 . S
C278 H277 0.981 . S
C279 C266 1.481 . S
C279 H280 0.980 . S
C279 H281 0.981 . S
C279 H282 0.981 . S
H280 C279 0.980 . S
H281 C279 0.981 . S
H282 C279 0.981 . S
O283 Zn259 2.066 . S
O283 C262 1.256 . S
O284 Zn256 2.053 . S
O284 C262 1.244 . S
C285 O263 1.259 . S
C285 O264 1.254 . S
O286 Zn256 2.066 . S
O286 C258 1.256 . S
O287 C258 1.244 . S
O287 Zn259 2.053 . S
Zn288 O289 2.055 . S
Zn288 O296 2.046 . S
Zn288 N304 2.036 . S
Zn288 O316 2.053 . S
Zn288 O318 2.066 . S
O289 Zn288 2.055 . S
O289 C292 1.259 . S
C290 O318 1.256 . S
C290 O319 1.244 . S
Zn291 O293 2.046 . S
Zn291 O295 2.055 . S
Zn291 N297 2.036 . S
Zn291 O315 2.066 . S
Zn291 O319 2.053 . S
C292 O289 1.259 . S
C292 O293 1.254 . S
O293 Zn291 2.046 . S
O293 C292 1.254 . S
C294 O315 1.256 . S
C294 O316 1.244 . S
O295 Zn291 2.055 . S
O295 C317 1.259 . S
O296 Zn288 2.046 . S
O296 C317 1.254 . S
N297 Zn291 2.036 . S
N297 C298 1.298 . S
N297 N300 1.398 . S
C298 N297 1.298 . S
C298 N301 1.367 . S
C298 C311 1.481 . S
C299 N300 1.299 . S
C299 N301 1.379 . S
N300 N297 1.398 . S
N300 C299 1.299 . S
N301 C298 1.367 . S
N301 C299 1.379 . S
C302 N304 1.298 . S
C302 N306 1.367 . S
C302 C310 1.481 . S
C303 N305 1.299 . S
C303 N306 1.379 . S
N304 Zn288 2.036 . S
N304 C302 1.298 . S
N304 N305 1.398 . S
N305 C303 1.299 . S
N305 N304 1.398 . S
N306 C302 1.367 . S
N306 C303 1.379 . S
H307 C310 0.980 . S
H308 C310 0.981 . S
H309 C310 0.981 . S
C310 C302 1.481 . S
C310 H307 0.980 . S
C310 H308 0.981 . S
C310 H309 0.981 . S
C311 C298 1.481 . S
C311 H312 0.980 . S
C311 H313 0.981 . S
C311 H314 0.981 . S
H312 C311 0.980 . S
H313 C311 0.981 . S
H314 C311 0.981 . S
O315 Zn291 2.066 . S
O315 C294 1.256 . S
O316 Zn288 2.053 . S
O316 C294 1.244 . S
C317 O295 1.259 . S
C317 O296 1.254 . S
O318 Zn288 2.066 . S
O318 C290 1.256 . S
O319 C290 1.244 . S
O319 Zn291 2.053 . S
Zn320 O321 2.055 . S
Zn320 O328 2.046 . S
Zn320 N336 2.036 . S
Zn320 O348 2.053 . S
Zn320 O350 2.066 . S
O321 Zn320 2.055 . S
O321 C324 1.259 . S
C322 O350 1.256 . S
C322 O351 1.244 . S
Zn323 O325 2.046 . S
Zn323 O327 2.055 . S
Zn323 N329 2.036 . S
Zn323 O347 2.066 . S
Zn323 O351 2.053 . S
C324 O321 1.259 . S
C324 O325 1.254 . S
O325 Zn323 2.046 . S
O325 C324 1.254 . S
C326 O347 1.256 . S
C326 O348 1.244 . S
O327 Zn323 2.055 . S
O327 C349 1.259 . S
O328 Zn320 2.046 . S
O328 C349 1.254 . S
N329 Zn323 2.036 . S
N329 C330 1.298 . S
N329 N332 1.398 . S
C330 N329 1.298 . S
C330 N333 1.367 . S
C330 C343 1.481 . S
C331 N332 1.299 . S
C331 N333 1.379 . S
N332 N329 1.398 . S
N332 C331 1.299 . S
N333 C330 1.367 . S
N333 C331 1.379 . S
C334 N336 1.298 . S
C334 N338 1.367 . S
C334 C342 1.481 . S
C335 N337 1.299 . S
C335 N338 1.379 . S
N336 Zn320 2.036 . S
N336 C334 1.298 . S
N336 N337 1.398 . S
N337 C335 1.299 . S
N337 N336 1.398 . S
N338 C334 1.367 . S
N338 C335 1.379 . S
H339 C342 0.980 . S
H340 C342 0.981 . S
H341 C342 0.981 . S
C342 C334 1.481 . S
C342 H339 0.980 . S
C342 H340 0.981 . S
C342 H341 0.981 . S
C343 C330 1.481 . S
C343 H344 0.980 . S
C343 H345 0.981 . S
C343 H346 0.981 . S
H344 C343 0.980 . S
H345 C343 0.981 . S
H346 C343 0.981 . S
O347 Zn323 2.066 . S
O347 C326 1.256 . S
O348 Zn320 2.053 . S
O348 C326 1.244 . S
C349 O327 1.259 . S
C349 O328 1.254 . S
O350 Zn320 2.066 . S
O350 C322 1.256 . S
O351 C322 1.244 . S
O351 Zn323 2.053 . S
Zn352 O353 2.055 . S
Zn352 O360 2.046 . S
Zn352 N368 2.036 . S
Zn352 O380 2.053 . S
Zn352 O382 2.066 . S
O353 Zn352 2.055 . S
O353 C356 1.259 . S
C354 O382 1.256 . S
C354 O383 1.244 . S
Zn355 O357 2.046 . S
Zn355 O359 2.055 . S
Zn355 N361 2.036 . S
Zn355 O379 2.066 . S
Zn355 O383 2.053 . S
C356 O353 1.259 . S
C356 O357 1.254 . S
O357 Zn355 2.046 . S
O357 C356 1.254 . S
C358 O379 1.256 . S
C358 O380 1.244 . S
O359 Zn355 2.055 . S
O359 C381 1.259 . S
O360 Zn352 2.046 . S
O360 C381 1.254 . S
N361 Zn355 2.036 . S
N361 C362 1.298 . S
N361 N364 1.398 . S
C362 N361 1.298 . S
C362 N365 1.367 . S
C362 C375 1.481 . S
C363 N364 1.299 . S
C363 N365 1.379 . S
N364 N361 1.398 . S
N364 C363 1.299 . S
N365 C362 1.367 . S
N365 C363 1.379 . S
C366 N368 1.298 . S
C366 N370 1.367 . S
C366 C374 1.481 . S
C367 N369 1.299 . S
C367 N370 1.379 . S
N368 Zn352 2.036 . S
N368 C366 1.298 . S
N368 N369 1.398 . S
N369 C367 1.299 . S
N369 N368 1.398 . S
N370 C366 1.367 . S
N370 C367 1.379 . S
H371 C374 0.980 . S
H372 C374 0.981 . S
H373 C374 0.981 . S
C374 C366 1.481 . S
C374 H371 0.980 . S
C374 H372 0.981 . S
C374 H373 0.981 . S
C375 C362 1.481 . S
C375 H376 0.980 . S
C375 H377 0.981 . S
C375 H378 0.981 . S
H376 C375 0.980 . S
H377 C375 0.981 . S
H378 C375 0.981 . S
O379 Zn355 2.066 . S
O379 C358 1.256 . S
O380 Zn352 2.053 . S
O380 C358 1.244 . S
C381 O359 1.259 . S
C381 O360 1.254 . S
O382 Zn352 2.066 . S
O382 C354 1.256 . S
O383 C354 1.244 . S
O383 Zn355 2.053 . S
Zn384 O385 2.055 . S
Zn384 O392 2.046 . S
Zn384 N400 2.036 . S
Zn384 O412 2.053 . S
Zn384 O414 2.066 . S
O385 Zn384 2.055 . S
O385 C388 1.259 . S
C386 O414 1.256 . S
C386 O415 1.244 . S
Zn387 O389 2.046 . S
Zn387 O391 2.055 . S
Zn387 N393 2.036 . S
Zn387 O411 2.066 . S
Zn387 O415 2.053 . S
C388 O385 1.259 . S
C388 O389 1.254 . S
O389 Zn387 2.046 . S
O389 C388 1.254 . S
C390 O411 1.256 . S
C390 O412 1.244 . S
O391 Zn387 2.055 . S
O391 C413 1.259 . S
O392 Zn384 2.046 . S
O392 C413 1.254 . S
N393 Zn387 2.036 . S
N393 C394 1.298 1_655 S
N393 N396 1.398 . S
C394 N393 1.298 1_455 S
C394 N397 1.367 . S
C394 C407 1.481 . S
C395 N396 1.294 1_455 S
C395 N397 1.379 . S
N396 N393 1.398 . S
N396 C395 1.294 1_655 S
N397 C394 1.367 . S
N397 C395 1.379 . S
C398 N400 1.298 . S
C398 N402 1.367 . S
C398 C406 1.481 . S
C399 N401 1.299 . S
C399 N402 1.379 . S
N400 Zn384 2.036 . S
N400 C398 1.298 . S
N400 N401 1.398 . S
N401 C399 1.299 . S
N401 N400 1.398 . S
N402 C398 1.367 . S
N402 C399 1.379 . S
H403 C406 0.980 . S
H404 C406 0.981 . S
H405 C406 0.981 . S
C406 C398 1.481 . S
C406 H403 0.980 . S
C406 H404 0.981 . S
C406 H405 0.981 . S
C407 C394 1.481 . S
C407 H408 0.980 1_455 S
C407 H409 0.981 . S
C407 H410 0.981 . S
H408 C407 0.980 1_655 S
H409 C407 0.981 . S
H410 C407 0.981 . S
O411 Zn387 2.066 . S
O411 C390 1.256 . S
O412 Zn384 2.053 . S
O412 C390 1.244 . S
C413 O391 1.259 . S
C413 O392 1.254 . S
O414 Zn384 2.066 . S
O414 C386 1.256 . S
O415 C386 1.244 . S
O415 Zn387 2.053 . S
Zn416 O417 2.055 . S
Zn416 O424 2.046 . S
Zn416 N432 2.036 . S
Zn416 O444 2.053 . S
Zn416 O446 2.066 . S
O417 Zn416 2.055 . S
O417 C420 1.259 . S
C418 O446 1.256 . S
C418 O447 1.244 . S
Zn419 O421 2.046 . S
Zn419 O423 2.055 . S
Zn419 N425 2.036 . S
Zn419 O443 2.066 . S
Zn419 O447 2.053 . S
C420 O417 1.259 . S
C420 O421 1.254 . S
O421 Zn419 2.046 . S
O421 C420 1.254 . S
C422 O443 1.256 . S
C422 O444 1.244 . S
O423 Zn419 2.055 . S
O423 C445 1.259 . S
O424 Zn416 2.046 . S
O424 C445 1.254 . S
N425 Zn419 2.036 . S
N425 C426 1.298 . S
N425 N428 1.398 . S
C426 N425 1.298 . S
C426 N429 1.367 . S
C426 C439 1.481 . S
C427 N428 1.299 . S
C427 N429 1.379 . S
N428 N425 1.398 . S
N428 C427 1.299 . S
N429 C426 1.367 . S
N429 C427 1.379 . S
C430 N432 1.298 . S
C430 N434 1.367 . S
C430 C438 1.481 . S
C431 N433 1.299 . S
C431 N434 1.379 . S
N432 Zn416 2.036 . S
N432 C430 1.298 . S
N432 N433 1.398 . S
N433 C431 1.299 . S
N433 N432 1.398 . S
N434 C430 1.367 . S
N434 C431 1.379 . S
H435 C438 0.980 . S
H436 C438 0.981 . S
H437 C438 0.981 . S
C438 C430 1.481 . S
C438 H435 0.980 . S
C438 H436 0.981 . S
C438 H437 0.981 . S
C439 C426 1.481 . S
C439 H440 0.980 . S
C439 H441 0.981 . S
C439 H442 0.981 . S
H440 C439 0.980 . S
H441 C439 0.981 . S
H442 C439 0.981 . S
O443 Zn419 2.066 . S
O443 C422 1.256 . S
O444 Zn416 2.053 . S
O444 C422 1.244 . S
C445 O423 1.259 . S
C445 O424 1.254 . S
O446 Zn416 2.066 . S
O446 C418 1.256 . S
O447 C418 1.244 . S
O447 Zn419 2.053 . S
Zn448 O449 2.055 . S
Zn448 O456 2.046 . S
Zn448 N464 2.036 . S
Zn448 O476 2.053 . S
Zn448 O478 2.066 . S
O449 Zn448 2.055 . S
O449 C452 1.259 . S
C450 O478 1.256 . S
C450 O479 1.244 . S
Zn451 O453 2.046 . S
Zn451 O455 2.055 . S
Zn451 N457 2.036 . S
Zn451 O475 2.066 . S
Zn451 O479 2.053 . S
C452 O449 1.259 . S
C452 O453 1.254 . S
O453 Zn451 2.046 . S
O453 C452 1.254 . S
C454 O475 1.256 . S
C454 O476 1.244 . S
O455 Zn451 2.055 . S
O455 C477 1.259 . S
O456 Zn448 2.046 . S
O456 C477 1.254 . S
N457 Zn451 2.036 . S
N457 C458 1.298 1_545 S
N457 N460 1.402 . S
C458 N457 1.298 1_565 S
C458 N461 1.367 . S
C458 C471 1.481 . S
C459 N460 1.291 1_565 S
C459 N461 1.379 . S
N460 N457 1.402 . S
N460 C459 1.291 1_545 S
N461 C458 1.367 . S
N461 C459 1.379 . S
C462 N464 1.298 . S
C462 N466 1.367 . S
C462 C470 1.481 . S
C463 N465 1.299 . S
C463 N466 1.379 . S
N464 Zn448 2.036 . S
N464 C462 1.298 . S
N464 N465 1.398 . S
N465 C463 1.299 . S
N465 N464 1.398 . S
N466 C462 1.367 . S
N466 C463 1.379 . S
H467 C470 0.980 . S
H468 C470 0.981 . S
H469 C470 0.981 . S
C470 C462 1.481 . S
C470 H467 0.980 . S
C470 H468 0.981 . S
C470 H469 0.981 . S
C471 C458 1.481 . S
C471 H472 0.980 1_565 S
C471 H473 0.981 . S
C471 H474 0.981 . S
H472 C471 0.980 1_545 S
H473 C471 0.981 . S
H474 C471 0.981 . S
O475 Zn451 2.066 . S
O475 C454 1.256 . S
O476 Zn448 2.053 . S
O476 C454 1.244 . S
C477 O455 1.259 . S
C477 O456 1.254 . S
O478 Zn448 2.066 . S
O478 C450 1.256 . S
O479 C450 1.244 . S
O479 Zn451 2.053 . S
Zn480 O481 2.055 . S
Zn480 O488 2.046 . S
Zn480 N496 2.036 . S
Zn480 O508 2.053 . S
Zn480 O510 2.066 . S
O481 Zn480 2.055 . S
O481 C484 1.259 . S
C482 O510 1.256 . S
C482 O511 1.244 . S
Zn483 O485 2.046 . S
Zn483 O487 2.055 . S
Zn483 N489 2.036 . S
Zn483 O507 2.066 . S
Zn483 O511 2.053 . S
C484 O481 1.259 . S
C484 O485 1.254 . S
O485 Zn483 2.046 . S
O485 C484 1.254 . S
C486 O507 1.256 . S
C486 O508 1.244 . S
O487 Zn483 2.055 . S
O487 C509 1.259 . S
O488 Zn480 2.046 . S
O488 C509 1.254 . S
N489 Zn483 2.036 . S
N489 C490 1.298 . S
N489 N492 1.398 . S
C490 N489 1.298 . S
C490 N493 1.367 . S
C490 C503 1.481 . S
C491 N492 1.299 . S
C491 N493 1.379 . S
N492 N489 1.398 . S
N492 C491 1.299 . S
N493 C490 1.367 . S
N493 C491 1.379 . S
C494 N496 1.298 1_565 S
C494 N498 1.367 . S
C494 C502 1.481 . S
C495 N497 1.294 1_565 S
C495 N498 1.379 . S
N496 Zn480 2.036 . S
N496 C494 1.298 1_545 S
N496 N497 1.398 . S
N497 C495 1.294 1_545 S
N497 N496 1.398 . S
N498 C494 1.367 . S
N498 C495 1.379 . S
H499 C502 0.980 1_545 S
H500 C502 0.981 . S
H501 C502 0.981 . S
C502 C494 1.481 . S
C502 H499 0.980 1_565 S
C502 H500 0.981 . S
C502 H501 0.981 . S
C503 C490 1.481 . S
C503 H504 0.980 . S
C503 H505 0.981 . S
C503 H506 0.981 . S
H504 C503 0.980 . S
H505 C503 0.981 . S
H506 C503 0.981 . S
O507 Zn483 2.066 . S
O507 C486 1.256 . S
O508 Zn480 2.053 . S
O508 C486 1.244 . S
C509 O487 1.259 . S
C509 O488 1.254 . S
O510 Zn480 2.066 . S
O510 C482 1.256 . S
O511 C482 1.244 . S
O511 Zn483 2.053 . S
Zn512 O513 2.055 . S
Zn512 O520 2.046 . S
Zn512 N528 2.036 . S
Zn512 O540 2.053 . S
Zn512 O542 2.066 . S
O513 Zn512 2.055 . S
O513 C516 1.259 . S
C514 O542 1.256 . S
C514 O543 1.244 . S
Zn515 O517 2.046 . S
Zn515 O519 2.055 . S
Zn515 N521 2.036 . S
Zn515 O539 2.066 . S
Zn515 O543 2.053 . S
C516 O513 1.259 . S
C516 O517 1.254 . S
O517 Zn515 2.046 . S
O517 C516 1.254 . S
C518 O539 1.256 . S
C518 O540 1.244 . S
O519 Zn515 2.055 . S
O519 C541 1.259 . S
O520 Zn512 2.046 . S
O520 C541 1.254 . S
N521 Zn515 2.036 . S
N521 C522 1.298 1_655 S
N521 N524 1.402 . S
C522 N521 1.298 1_455 S
C522 N525 1.367 . S
C522 C535 1.481 . S
C523 N524 1.291 1_455 S
C523 N525 1.379 . S
N524 N521 1.402 . S
N524 C523 1.291 1_655 S
N525 C522 1.367 . S
N525 C523 1.379 . S
C526 N528 1.298 . S
C526 N530 1.367 . S
C526 C534 1.481 . S
C527 N529 1.299 . S
C527 N530 1.379 . S
N528 Zn512 2.036 . S
N528 C526 1.298 . S
N528 N529 1.398 . S
N529 C527 1.299 . S
N529 N528 1.398 . S
N530 C526 1.367 . S
N530 C527 1.379 . S
H531 C534 0.980 . S
H532 C534 0.981 . S
H533 C534 0.981 . S
C534 C526 1.481 . S
C534 H531 0.980 . S
C534 H532 0.981 . S
C534 H533 0.981 . S
C535 C522 1.481 . S
C535 H536 0.980 1_455 S
C535 H537 0.981 . S
C535 H538 0.981 . S
H536 C535 0.980 1_655 S
H537 C535 0.981 . S
H538 C535 0.981 . S
O539 Zn515 2.066 . S
O539 C518 1.256 . S
O540 Zn512 2.053 . S
O540 C518 1.244 . S
C541 O519 1.259 . S
C541 O520 1.254 . S
O542 Zn512 2.066 . S
O542 C514 1.256 . S
O543 C514 1.244 . S
O543 Zn515 2.053 . S
Zn544 O545 2.055 . S
Zn544 O552 2.046 . S
Zn544 N560 2.036 . S
Zn544 O572 2.053 . S
Zn544 O574 2.066 . S
O545 Zn544 2.055 . S
O545 C548 1.259 . S
C546 O574 1.256 . S
C546 O575 1.244 . S
Zn547 O549 2.046 . S
Zn547 O551 2.055 . S
Zn547 N553 2.036 . S
Zn547 O571 2.066 . S
Zn547 O575 2.053 . S
C548 O545 1.259 . S
C548 O549 1.254 . S
O549 Zn547 2.046 . S
O549 C548 1.254 . S
C550 O571 1.256 . S
C550 O572 1.244 . S
O551 Zn547 2.055 . S
O551 C573 1.259 . S
O552 Zn544 2.046 . S
O552 C573 1.254 . S
N553 Zn547 2.036 . S
N553 C554 1.298 . S
N553 N556 1.398 . S
C554 N553 1.298 . S
C554 N557 1.367 . S
C554 C567 1.481 . S
C555 N556 1.299 . S
C555 N557 1.379 . S
N556 N553 1.398 . S
N556 C555 1.299 . S
N557 C554 1.367 . S
N557 C555 1.379 . S
C558 N560 1.298 . S
C558 N562 1.367 . S
C558 C566 1.481 . S
C559 N561 1.299 . S
C559 N562 1.379 . S
N560 Zn544 2.036 . S
N560 C558 1.298 . S
N560 N561 1.398 . S
N561 C559 1.299 . S
N561 N560 1.398 . S
N562 C558 1.367 . S
N562 C559 1.379 . S
H563 C566 0.980 . S
H564 C566 0.981 . S
H565 C566 0.981 . S
C566 C558 1.481 . S
C566 H563 0.980 . S
C566 H564 0.981 . S
C566 H565 0.981 . S
C567 C554 1.481 . S
C567 H568 0.980 . S
C567 H569 0.981 . S
C567 H570 0.981 . S
H568 C567 0.980 . S
H569 C567 0.981 . S
H570 C567 0.981 . S
O571 Zn547 2.066 . S
O571 C550 1.256 . S
O572 Zn544 2.053 . S
O572 C550 1.244 . S
C573 O551 1.259 . S
C573 O552 1.254 . S
O574 Zn544 2.066 . S
O574 C546 1.256 . S
O575 C546 1.244 . S
O575 Zn547 2.053 . S
H576 C582 0.930 . S
H577 C586 0.930 . S
H578 C591 0.929 . S
H579 C589 0.929 . S
H580 C584 0.929 . S
H581 C590 0.929 . S
C582 H576 0.930 . S
C582 C583 1.367 . S
C582 C590 1.378 . S
C583 C582 1.367 . S
C583 C591 1.433 1_556 S
C584 H580 0.929 . S
C584 C586 1.378 . S
C584 C588 1.350 . S
C585 C588 1.463 . S
C585 C590 1.350 1_554 S
C585 N593 1.427 . S
C586 H577 0.930 . S
C586 C584 1.378 . S
C586 C587 1.367 . S
C587 C586 1.367 . S
C587 C589 1.433 1_554 S
C588 C584 1.350 . S
C588 C585 1.463 . S
C588 N592 1.427 1_554 S
C589 H579 0.929 . S
C589 C587 1.433 1_556 S
C589 N592 1.384 . S
C590 H581 0.929 . S
C590 C582 1.378 . S
C590 C585 1.350 1_556 S
C591 H578 0.929 . S
C591 C583 1.433 1_554 S
C591 N593 1.384 . S
N592 C588 1.427 1_556 S
N592 C589 1.384 . S
N593 C585 1.427 . S
N593 C591 1.384 . S
H594 C600 0.930 . S
H595 C604 0.930 . S
H596 C609 0.929 . S
H597 C607 0.929 . S
H598 C602 0.929 . S
H599 C608 0.929 . S
C600 H594 0.930 . S
C600 C601 1.367 1_556 S
C600 C608 1.378 . S
C601 C600 1.367 1_554 S
C601 C609 1.433 . S
C602 H598 0.929 . S
C602 C604 1.378 . S
C602 C606 1.350 . S
C603 C606 1.463 . S
C603 C608 1.350 1_554 S
C603 N611 1.427 . S
C604 H595 0.930 . S
C604 C602 1.378 . S
C604 C605 1.367 1_554 S
C605 C604 1.367 1_556 S
C605 C607 1.433 . S
C606 C602 1.350 . S
C606 C603 1.463 . S
C606 N610 1.427 1_554 S
C607 H597 0.929 . S
C607 C605 1.433 . S
C607 N610 1.384 . S
C608 H599 0.929 . S
C608 C600 1.378 . S
C608 C603 1.350 1_556 S
C609 H596 0.929 . S
C609 C601 1.433 . S
C609 N611 1.384 . S
N610 C606 1.427 1_556 S
N610 C607 1.384 . S
N611 C603 1.427 . S
N611 C609 1.384 . S
H612 C618 0.930 . S
H613 C622 0.930 . S
H614 C627 0.929 . S
H615 C625 0.929 . S
H616 C620 0.929 . S
H617 C626 0.929 . S
C618 H612 0.930 . S
C618 C619 1.367 . S
C618 C626 1.378 . S
C619 C618 1.367 . S
C619 C627 1.433 . S
C620 H616 0.929 . S
C620 C622 1.378 . S
C620 C624 1.350 . S
C621 C624 1.463 . S
C621 C626 1.350 1_554 S
C621 N629 1.427 . S
C622 H613 0.930 . S
C622 C620 1.378 . S
C622 C623 1.367 . S
C623 C622 1.367 . S
C623 C625 1.433 . S
C624 C620 1.350 . S
C624 C621 1.463 . S
C624 N628 1.427 . S
C625 H615 0.929 . S
C625 C623 1.433 . S
C625 N628 1.384 . S
C626 H617 0.929 . S
C626 C618 1.378 . S
C626 C621 1.350 1_556 S
C627 H614 0.929 . S
C627 C619 1.433 . S
C627 N629 1.384 1_556 S
N628 C624 1.427 . S
N628 C625 1.384 . S
N629 C621 1.427 . S
N629 C627 1.384 1_554 S
H630 C636 0.930 . S
H631 C640 0.930 . S
H632 C645 0.929 . S
H633 C643 0.929 . S
H634 C638 0.929 . S
H635 C644 0.929 . S
C636 H630 0.930 . S
C636 C637 1.367 . S
C636 C644 1.378 . S
C637 C636 1.367 . S
C637 C645 1.433 . S
C638 H634 0.929 . S
C638 C640 1.378 . S
C638 C642 1.350 . S
C639 C642 1.463 . S
C639 C644 1.350 . S
C639 N647 1.427 . S
C640 H631 0.930 . S
C640 C638 1.378 . S
C640 C641 1.367 . S
C641 C640 1.367 . S
C641 C643 1.433 . S
C642 C638 1.350 . S
C642 C639 1.463 . S
C642 N646 1.427 . S
C643 H633 0.929 . S
C643 C641 1.433 . S
C643 N646 1.384 . S
C644 H635 0.929 . S
C644 C636 1.378 . S
C644 C639 1.350 . S
C645 H632 0.929 . S
C645 C637 1.433 . S
C645 N647 1.384 . S
N646 C642 1.427 . S
N646 C643 1.384 . S
N647 C639 1.427 . S
N647 C645 1.384 . S
H648 C654 0.930 . S
H649 C658 0.930 . S
H650 C663 0.929 . S
H651 C661 0.929 . S
H652 C656 0.929 . S
H653 C662 0.929 . S
C654 H648 0.930 . S
C654 C655 1.367 . S
C654 C662 1.378 . S
C655 C654 1.367 . S
C655 C663 1.433 . S
C656 H652 0.929 . S
C656 C658 1.378 . S
C656 C660 1.350 . S
C657 C660 1.463 . S
C657 C662 1.350 . S
C657 N665 1.427 . S
C658 H649 0.930 . S
C658 C656 1.378 . S
C658 C659 1.367 . S
C659 C658 1.367 . S
C659 C661 1.433 . S
C660 C656 1.350 . S
C660 C657 1.463 . S
C660 N664 1.427 . S
C661 H651 0.929 . S
C661 C659 1.433 . S
C661 N664 1.384 . S
C662 H653 0.929 . S
C662 C654 1.378 . S
C662 C657 1.350 . S
C663 H650 0.929 . S
C663 C655 1.433 . S
C663 N665 1.384 . S
N664 C660 1.427 . S
N664 C661 1.384 . S
N665 C657 1.427 . S
N665 C663 1.384 . S
H666 C672 0.930 . S
H667 C676 0.930 . S
H668 C681 0.929 . S
H669 C679 0.929 . S
H670 C674 0.929 . S
H671 C680 0.929 . S
C672 H666 0.930 . S
C672 C673 1.367 . S
C672 C680 1.378 . S
C673 C672 1.367 . S
C673 C681 1.433 . S
C674 H670 0.929 . S
C674 C676 1.378 . S
C674 C678 1.350 . S
C675 C678 1.463 . S
C675 C680 1.350 . S
C675 N683 1.427 . S
C676 H667 0.930 . S
C676 C674 1.378 . S
C676 C677 1.367 . S
C677 C676 1.367 . S
C677 C679 1.433 . S
C678 C674 1.350 . S
C678 C675 1.463 . S
C678 N682 1.427 . S
C679 H669 0.929 . S
C679 C677 1.433 . S
C679 N682 1.384 . S
C680 H671 0.929 . S
C680 C672 1.378 . S
C680 C675 1.350 . S
C681 H668 0.929 . S
C681 C673 1.433 . S
C681 N683 1.384 . S
N682 C678 1.427 . S
N682 C679 1.384 . S
N683 C675 1.427 . S
N683 C681 1.384 . S
H684 C690 0.930 . S
H685 C694 0.930 . S
H686 C699 0.929 . S
H687 C697 0.929 . S
H688 C692 0.929 . S
H689 C698 0.929 . S
C690 H684 0.930 . S
C690 C691 1.367 . S
C690 C698 1.378 . S
C691 C690 1.367 . S
C691 C699 1.433 . S
C692 H688 0.929 . S
C692 C694 1.378 . S
C692 C696 1.350 . S
C693 C696 1.463 . S
C693 C698 1.350 . S
C693 N701 1.427 . S
C694 H685 0.930 . S
C694 C692 1.378 . S
C694 C695 1.367 . S
C695 C694 1.367 . S
C695 C697 1.433 . S
C696 C692 1.350 . S
C696 C693 1.463 . S
C696 N700 1.427 . S
C697 H687 0.929 . S
C697 C695 1.433 . S
C697 N700 1.384 . S
C698 H689 0.929 . S
C698 C690 1.378 . S
C698 C693 1.350 . S
C699 H686 0.929 . S
C699 C691 1.433 . S
C699 N701 1.384 . S
N700 C696 1.427 . S
N700 C697 1.384 . S
N701 C693 1.427 . S
N701 C699 1.384 . S
H702 C708 0.930 . S
H703 C712 0.930 . S
H704 C717 0.929 . S
H705 C715 0.929 . S
H706 C710 0.929 . S
H707 C716 0.929 . S
C708 H702 0.930 . S
C708 C709 1.367 . S
C708 C716 1.378 . S
C709 C708 1.367 . S
C709 C717 1.433 . S
C710 H706 0.929 . S
C710 C712 1.378 . S
C710 C714 1.350 . S
C711 C714 1.463 . S
C711 C716 1.350 . S
C711 N719 1.427 . S
C712 H703 0.930 . S
C712 C710 1.378 . S
C712 C713 1.367 . S
C713 C712 1.367 . S
C713 C715 1.433 . S
C714 C710 1.350 . S
C714 C711 1.463 . S
C714 N718 1.427 . S
C715 H705 0.929 . S
C715 C713 1.433 . S
C715 N718 1.384 . S
C716 H707 0.929 . S
C716 C708 1.378 . S
C716 C711 1.350 . S
C717 H704 0.929 . S
C717 C709 1.433 . S
C717 N719 1.384 . S
N718 C714 1.427 . S
N718 C715 1.384 . S
N719 C711 1.427 . S
N719 C717 1.384 . S
H720 C726 0.930 . S
H721 C730 0.930 . S
H722 C735 0.929 . S
H723 C733 0.929 . S
H724 C728 0.929 . S
H725 C734 0.929 . S
C726 H720 0.930 . S
C726 C727 1.367 . S
C726 C734 1.378 . S
C727 C726 1.367 . S
C727 C735 1.433 . S
C728 H724 0.929 . S
C728 C730 1.378 . S
C728 C732 1.350 . S
C729 C732 1.463 . S
C729 C734 1.350 . S
C729 N737 1.427 . S
C730 H721 0.930 . S
C730 C728 1.378 . S
C730 C731 1.367 . S
C731 C730 1.367 . S
C731 C733 1.433 . S
C732 C728 1.350 . S
C732 C729 1.463 . S
C732 N736 1.427 . S
C733 H723 0.929 . S
C733 C731 1.433 . S
C733 N736 1.384 . S
C734 H725 0.929 . S
C734 C726 1.378 . S
C734 C729 1.350 . S
C735 H722 0.929 . S
C735 C727 1.433 . S
C735 N737 1.384 . S
N736 C732 1.427 . S
N736 C733 1.384 . S
N737 C729 1.427 . S
N737 C735 1.384 . S
H738 C744 0.930 . S
H739 C748 0.930 . S
H740 C753 0.929 . S
H741 C751 0.929 . S
H742 C746 0.929 . S
H743 C752 0.929 . S
C744 H738 0.930 . S
C744 C745 1.367 . S
C744 C752 1.378 . S
C745 C744 1.367 . S
C745 C753 1.433 . S
C746 H742 0.929 . S
C746 C748 1.378 . S
C746 C750 1.350 . S
C747 C750 1.463 . S
C747 C752 1.350 . S
C747 N755 1.427 . S
C748 H739 0.930 . S
C748 C746 1.378 . S
C748 C749 1.367 . S
C749 C748 1.367 . S
C749 C751 1.433 . S
C750 C746 1.350 . S
C750 C747 1.463 . S
C750 N754 1.427 . S
C751 H741 0.929 . S
C751 C749 1.433 . S
C751 N754 1.384 . S
C752 H743 0.929 . S
C752 C744 1.378 . S
C752 C747 1.350 . S
C753 H740 0.929 . S
C753 C745 1.433 . S
C753 N755 1.384 . S
N754 C750 1.427 . S
N754 C751 1.384 . S
N755 C747 1.427 . S
N755 C753 1.384 . S
H756 C762 0.930 . S
H757 C766 0.930 . S
H758 C771 0.929 . S
H759 C769 0.929 . S
H760 C764 0.929 . S
H761 C770 0.929 . S
C762 H756 0.930 . S
C762 C763 1.367 . S
C762 C770 1.378 . S
C763 C762 1.367 . S
C763 C771 1.433 . S
C764 H760 0.929 . S
C764 C766 1.378 . S
C764 C768 1.350 . S
C765 C768 1.463 . S
C765 C770 1.350 . S
C765 N773 1.427 . S
C766 H757 0.930 . S
C766 C764 1.378 . S
C766 C767 1.367 . S
C767 C766 1.367 . S
C767 C769 1.433 . S
C768 C764 1.350 . S
C768 C765 1.463 . S
C768 N772 1.427 . S
C769 H759 0.929 . S
C769 C767 1.433 . S
C769 N772 1.384 . S
C770 H761 0.929 . S
C770 C762 1.378 . S
C770 C765 1.350 . S
C771 H758 0.929 . S
C771 C763 1.433 . S
C771 N773 1.384 . S
N772 C768 1.427 . S
N772 C769 1.384 . S
N773 C765 1.427 . S
N773 C771 1.384 . S
H774 C780 0.930 . S
H775 C784 0.930 . S
H776 C789 0.929 . S
H777 C787 0.929 . S
H778 C782 0.929 . S
H779 C788 0.929 . S
C780 H774 0.930 . S
C780 C781 1.367 . S
C780 C788 1.378 . S
C781 C780 1.367 . S
C781 C789 1.433 . S
C782 H778 0.929 . S
C782 C784 1.378 . S
C782 C786 1.350 . S
C783 C786 1.463 . S
C783 C788 1.350 . S
C783 N791 1.427 . S
C784 H775 0.930 . S
C784 C782 1.378 . S
C784 C785 1.367 . S
C785 C784 1.367 . S
C785 C787 1.433 . S
C786 C782 1.350 . S
C786 C783 1.463 . S
C786 N790 1.427 . S
C787 H777 0.929 . S
C787 C785 1.433 . S
C787 N790 1.384 . S
C788 H779 0.929 . S
C788 C780 1.378 . S
C788 C783 1.350 . S
C789 H776 0.929 . S
C789 C781 1.433 . S
C789 N791 1.384 . S
N790 C786 1.427 . S
N790 C787 1.384 . S
N791 C783 1.427 . S
N791 C789 1.384 . S
H792 C798 0.930 . S
H793 C802 0.930 . S
H794 C807 0.929 . S
H795 C805 0.929 . S
H796 C800 0.929 . S
H797 C806 0.929 . S
C798 H792 0.930 . S
C798 C799 1.367 . S
C798 C806 1.378 . S
C799 C798 1.367 . S
C799 C807 1.433 . S
C800 H796 0.929 . S
C800 C802 1.378 . S
C800 C804 1.350 . S
C801 C804 1.463 . S
C801 C806 1.350 . S
C801 N809 1.427 . S
C802 H793 0.930 . S
C802 C800 1.378 . S
C802 C803 1.367 . S
C803 C802 1.367 . S
C803 C805 1.433 . S
C804 C800 1.350 . S
C804 C801 1.463 . S
C804 N808 1.427 . S
C805 H795 0.929 . S
C805 C803 1.433 . S
C805 N808 1.384 . S
C806 H797 0.929 . S
C806 C798 1.378 . S
C806 C801 1.350 . S
C807 H794 0.929 . S
C807 C799 1.433 . S
C807 N809 1.384 . S
N808 C804 1.427 . S
N808 C805 1.384 . S
N809 C801 1.427 . S
N809 C807 1.384 . S
H810 C816 0.930 . S
H811 C820 0.930 . S
H812 C825 0.929 . S
H813 C823 0.929 . S
H814 C818 0.929 . S
H815 C824 0.929 . S
C816 H810 0.930 . S
C816 C817 1.367 . S
C816 C824 1.378 . S
C817 C816 1.367 . S
C817 C825 1.433 . S
C818 H814 0.929 . S
C818 C820 1.378 . S
C818 C822 1.350 . S
C819 C822 1.463 1_545 S
C819 C824 1.350 . S
C819 N827 1.427 . S
C820 H811 0.930 . S
C820 C818 1.378 . S
C820 C821 1.367 . S
C821 C820 1.367 . S
C821 C823 1.433 . S
C822 C818 1.350 . S
C822 C819 1.463 1_565 S
C822 N826 1.427 . S
C823 H813 0.929 . S
C823 C821 1.433 . S
C823 N826 1.384 . S
C824 H815 0.929 . S
C824 C816 1.378 . S
C824 C819 1.350 . S
C825 H812 0.929 . S
C825 C817 1.433 . S
C825 N827 1.384 . S
N826 C822 1.427 . S
N826 C823 1.384 . S
N827 C819 1.427 . S
N827 C825 1.384 . S
H828 C834 0.930 . S
H829 C838 0.930 . S
H830 C843 0.929 . S
H831 C841 0.929 . S
H832 C836 0.929 . S
H833 C842 0.929 . S
C834 H828 0.930 . S
C834 C835 1.367 . S
C834 C842 1.378 . S
C835 C834 1.367 . S
C835 C843 1.433 . S
C836 H832 0.929 . S
C836 C838 1.378 . S
C836 C840 1.350 . S
C837 C840 1.463 1_655 S
C837 C842 1.350 . S
C837 N845 1.427 . S
C838 H829 0.930 . S
C838 C836 1.378 . S
C838 C839 1.367 . S
C839 C838 1.367 . S
C839 C841 1.433 . S
C840 C836 1.350 . S
C840 C837 1.463 1_455 S
C840 N844 1.427 . S
C841 H831 0.929 . S
C841 C839 1.433 . S
C841 N844 1.384 . S
C842 H833 0.929 . S
C842 C834 1.378 . S
C842 C837 1.350 . S
C843 H830 0.929 . S
C843 C835 1.433 . S
C843 N845 1.384 . S
N844 C840 1.427 . S
N844 C841 1.384 . S
N845 C837 1.427 . S
N845 C843 1.384 . S
H846 C852 0.930 . S
H847 C856 0.930 . S
H848 C861 0.929 . S
H849 C859 0.929 . S
H850 C854 0.929 . S
H851 C860 0.929 . S
C852 H846 0.930 . S
C852 C853 1.367 . S
C852 C860 1.378 . S
C853 C852 1.367 . S
C853 C861 1.433 . S
C854 H850 0.929 . S
C854 C856 1.378 . S
C854 C858 1.350 . S
C855 C858 1.463 . S
C855 C860 1.350 . S
C855 N863 1.427 . S
C856 H847 0.930 . S
C856 C854 1.378 . S
C856 C857 1.367 . S
C857 C856 1.367 . S
C857 C859 1.433 . S
C858 C854 1.350 . S
C858 C855 1.463 . S
C858 N862 1.427 . S
C859 H849 0.929 . S
C859 C857 1.433 . S
C859 N862 1.384 . S
C860 H851 0.929 . S
C860 C852 1.378 . S
C860 C855 1.350 . S
C861 H848 0.929 . S
C861 C853 1.433 . S
C861 N863 1.384 . S
N862 C858 1.427 . S
N862 C859 1.384 . S
N863 C855 1.427 . S
N863 C861 1.384 . S
H864 C870 0.930 . S
H865 C874 0.930 . S
H866 C879 0.929 . S
H867 C877 0.929 . S
H868 C872 0.929 . S
H869 C878 0.929 . S
C870 H864 0.930 . S
C870 C871 1.367 . S
C870 C878 1.378 . S
C871 C870 1.367 . S
C871 C879 1.433 . S
C872 H868 0.929 . S
C872 C874 1.378 . S
C872 C876 1.350 . S
C873 C876 1.463 1_565 S
C873 C878 1.350 . S
C873 N881 1.427 . S
C874 H865 0.930 . S
C874 C872 1.378 . S
C874 C875 1.367 . S
C875 C874 1.367 . S
C875 C877 1.433 . S
C876 C872 1.350 . S
C876 C873 1.463 1_545 S
C876 N880 1.427 . S
C877 H867 0.929 . S
C877 C875 1.433 . S
C877 N880 1.384 . S
C878 H869 0.929 . S
C878 C870 1.378 . S
C878 C873 1.350 . S
C879 H866 0.929 . S
C879 C871 1.433 . S
C879 N881 1.384 . S
N880 C876 1.427 . S
N880 C877 1.384 . S
N881 C873 1.427 . S
N881 C879 1.384 . S
H882 C888 0.930 . S
H883 C892 0.930 . S
H884 C897 0.929 . S
H885 C895 0.929 . S
H886 C890 0.929 . S
H887 C896 0.929 . S
C888 H882 0.930 . S
C888 C889 1.367 . S
C888 C896 1.378 . S
C889 C888 1.367 . S
C889 C897 1.433 . S
C890 H886 0.929 . S
C890 C892 1.378 . S
C890 C894 1.350 . S
C891 C894 1.463 1_455 S
C891 C896 1.350 . S
C891 N899 1.427 . S
C892 H883 0.930 . S
C892 C890 1.378 . S
C892 C893 1.367 . S
C893 C892 1.367 . S
C893 C895 1.433 . S
C894 C890 1.350 . S
C894 C891 1.463 1_655 S
C894 N898 1.427 . S
C895 H885 0.929 . S
C895 C893 1.433 . S
C895 N898 1.384 . S
C896 H887 0.929 . S
C896 C888 1.378 . S
C896 C891 1.350 . S
C897 H884 0.929 . S
C897 C889 1.433 . S
C897 N899 1.384 . S
N898 C894 1.427 . S
N898 C895 1.384 . S
N899 C891 1.427 . S
N899 C897 1.384 . S
H900 C906 0.930 . S
H901 C910 0.930 . S
H902 C915 0.929 . S
H903 C913 0.929 . S
H904 C908 0.929 . S
H905 C914 0.929 . S
C906 H900 0.930 . S
C906 C907 1.367 . S
C906 C914 1.378 . S
C907 C906 1.367 . S
C907 C915 1.433 . S
C908 H904 0.929 . S
C908 C910 1.378 . S
C908 C912 1.350 . S
C909 C912 1.463 . S
C909 C914 1.350 . S
C909 N917 1.427 . S
C910 H901 0.930 . S
C910 C908 1.378 . S
C910 C911 1.367 . S
C911 C910 1.367 . S
C911 C913 1.433 . S
C912 C908 1.350 . S
C912 C909 1.463 . S
C912 N916 1.427 . S
C913 H903 0.929 . S
C913 C911 1.433 . S
C913 N916 1.384 . S
C914 H905 0.929 . S
C914 C906 1.378 . S
C914 C909 1.350 . S
C915 H902 0.929 . S
C915 C907 1.433 . S
C915 N917 1.384 . S
N916 C912 1.427 . S
N916 C913 1.384 . S
N917 C909 1.427 . S
N917 C915 1.384 . S
H918 C924 0.930 . S
H919 C928 0.930 . S
H920 C933 0.929 . S
H921 C931 0.929 . S
H922 C926 0.929 . S
H923 C932 0.929 . S
C924 H918 0.930 . S
C924 C925 1.367 . S
C924 C932 1.378 . S
C925 C924 1.367 . S
C925 C933 1.433 . S
C926 H922 0.929 . S
C926 C928 1.378 . S
C926 C930 1.350 . S
C927 C930 1.463 . S
C927 C932 1.350 . S
C927 N935 1.427 . S
C928 H919 0.930 . S
C928 C926 1.378 . S
C928 C929 1.367 . S
C929 C928 1.367 . S
C929 C931 1.433 . S
C930 C926 1.350 . S
C930 C927 1.463 . S
C930 N934 1.427 . S
C931 H921 0.929 . S
C931 C929 1.433 . S
C931 N934 1.384 . S
C932 H923 0.929 . S
C932 C924 1.378 . S
C932 C927 1.350 . S
C933 H920 0.929 . S
C933 C925 1.433 . S
C933 N935 1.384 . S
N934 C930 1.427 . S
N934 C931 1.384 . S
N935 C927 1.427 . S
N935 C933 1.384 . S
H936 C942 0.930 . S
H937 C946 0.930 . S
H938 C951 0.929 . S
H939 C949 0.929 . S
H940 C944 0.929 . S
H941 C950 0.929 . S
C942 H936 0.930 . S
C942 C943 1.367 . S
C942 C950 1.378 . S
C943 C942 1.367 . S
C943 C951 1.433 . S
C944 H940 0.929 . S
C944 C946 1.378 . S
C944 C948 1.350 . S
C945 C948 1.463 . S
C945 C950 1.350 . S
C945 N953 1.427 . S
C946 H937 0.930 . S
C946 C944 1.378 . S
C946 C947 1.367 . S
C947 C946 1.367 . S
C947 C949 1.433 . S
C948 C944 1.350 . S
C948 C945 1.463 . S
C948 N952 1.427 . S
C949 H939 0.929 . S
C949 C947 1.433 . S
C949 N952 1.384 . S
C950 H941 0.929 . S
C950 C942 1.378 . S
C950 C945 1.350 . S
C951 H938 0.929 . S
C951 C943 1.433 . S
C951 N953 1.384 . S
N952 C948 1.427 . S
N952 C949 1.384 . S
N953 C945 1.427 . S
N953 C951 1.384 . S
H954 C960 0.930 . S
H955 C964 0.930 . S
H956 C969 0.929 . S
H957 C967 0.929 . S
H958 C962 0.929 . S
H959 C968 0.929 . S
C960 H954 0.930 . S
C960 C961 1.367 . S
C960 C968 1.378 . S
C961 C960 1.367 . S
C961 C969 1.433 . S
C962 H958 0.929 . S
C962 C964 1.378 . S
C962 C966 1.350 . S
C963 C966 1.463 . S
C963 C968 1.350 . S
C963 N971 1.427 . S
C964 H955 0.930 . S
C964 C962 1.378 . S
C964 C965 1.367 . S
C965 C964 1.367 . S
C965 C967 1.433 . S
C966 C962 1.350 . S
C966 C963 1.463 . S
C966 N970 1.427 . S
C967 H957 0.929 . S
C967 C965 1.433 . S
C967 N970 1.384 . S
C968 H959 0.929 . S
C968 C960 1.378 . S
C968 C963 1.350 . S
C969 H956 0.929 . S
C969 C961 1.433 . S
C969 N971 1.384 . S
N970 C966 1.427 . S
N970 C967 1.384 . S
N971 C963 1.427 . S
N971 C969 1.384 . S
H972 C978 0.930 . S
H973 C982 0.930 . S
H974 C987 0.929 . S
H975 C985 0.929 . S
H976 C980 0.929 . S
H977 C986 0.929 . S
C978 H972 0.930 . S
C978 C979 1.367 . S
C978 C986 1.378 . S
C979 C978 1.367 . S
C979 C987 1.433 . S
C980 H976 0.929 . S
C980 C982 1.378 . S
C980 C984 1.350 . S
C981 C984 1.463 . S
C981 C986 1.350 . S
C981 N989 1.427 . S
C982 H973 0.930 . S
C982 C980 1.378 . S
C982 C983 1.367 . S
C983 C982 1.367 . S
C983 C985 1.433 . S
C984 C980 1.350 . S
C984 C981 1.463 . S
C984 N988 1.427 . S
C985 H975 0.929 . S
C985 C983 1.433 . S
C985 N988 1.384 . S
C986 H977 0.929 . S
C986 C978 1.378 . S
C986 C981 1.350 . S
C987 H974 0.929 . S
C987 C979 1.433 . S
C987 N989 1.384 . S
N988 C984 1.427 . S
N988 C985 1.384 . S
N989 C981 1.427 . S
N989 C987 1.384 . S
H990 C996 0.930 . S
H991 C1000 0.930 . S
H992 C1005 0.929 . S
H993 C1003 0.929 . S
H994 C998 0.929 . S
H995 C1004 0.929 . S
C996 H990 0.930 . S
C996 C997 1.367 . S
C996 C1004 1.378 . S
C997 C996 1.367 . S
C997 C1005 1.433 . S
C998 H994 0.929 . S
C998 C1000 1.378 . S
C998 C1002 1.350 . S
C999 C1002 1.463 . S
C999 C1004 1.350 . S
C999 N1007 1.427 . S
C1000 H991 0.930 . S
C1000 C998 1.378 . S
C1000 C1001 1.367 . S
C1001 C1000 1.367 . S
C1001 C1003 1.433 . S
C1002 C998 1.350 . S
C1002 C999 1.463 . S
C1002 N1006 1.427 . S
C1003 H993 0.929 . S
C1003 C1001 1.433 . S
C1003 N1006 1.384 . S
C1004 H995 0.929 . S
C1004 C996 1.378 . S
C1004 C999 1.350 . S
C1005 H992 0.929 . S
C1005 C997 1.433 . S
C1005 N1007 1.384 . S
N1006 C1002 1.427 . S
N1006 C1003 1.384 . S
N1007 C999 1.427 . S
N1007 C1005 1.384 . S
H1008 C1014 0.930 . S
H1009 C1018 0.930 . S
H1010 C1023 0.929 . S
H1011 C1021 0.929 . S
H1012 C1016 0.929 . S
H1013 C1022 0.929 . S
C1014 H1008 0.930 . S
C1014 C1015 1.367 . S
C1014 C1022 1.378 . S
C1015 C1014 1.367 . S
C1015 C1023 1.433 . S
C1016 H1012 0.929 . S
C1016 C1018 1.378 . S
C1016 C1020 1.350 . S
C1017 C1020 1.463 . S
C1017 C1022 1.350 . S
C1017 N1025 1.427 . S
C1018 H1009 0.930 . S
C1018 C1016 1.378 . S
C1018 C1019 1.367 . S
C1019 C1018 1.367 . S
C1019 C1021 1.433 . S
C1020 C1016 1.350 . S
C1020 C1017 1.463 . S
C1020 N1024 1.427 . S
C1021 H1011 0.929 . S
C1021 C1019 1.433 . S
C1021 N1024 1.384 . S
C1022 H1013 0.929 . S
C1022 C1014 1.378 . S
C1022 C1017 1.350 . S
C1023 H1010 0.929 . S
C1023 C1015 1.433 . S
C1023 N1025 1.384 . S
N1024 C1020 1.427 . S
N1024 C1021 1.384 . S
N1025 C1017 1.427 . S
N1025 C1023 1.384 . S
H1026 C1032 0.930 . S
H1027 C1036 0.930 . S
H1028 C1041 0.929 . S
H1029 C1039 0.929 . S
H1030 C1034 0.929 . S
H1031 C1040 0.929 . S
C1032 H1026 0.930 . S
C1032 C1033 1.367 . S
C1032 C1040 1.378 . S
C1033 C1032 1.367 . S
C1033 C1041 1.433 . S
C1034 H1030 0.929 . S
C1034 C1036 1.378 . S
C1034 C1038 1.350 . S
C1035 C1038 1.463 . S
C1035 C1040 1.350 . S
C1035 N1043 1.427 . S
C1036 H1027 0.930 . S
C1036 C1034 1.378 . S
C1036 C1037 1.367 . S
C1037 C1036 1.367 . S
C1037 C1039 1.433 . S
C1038 C1034 1.350 . S
C1038 C1035 1.463 . S
C1038 N1042 1.427 . S
C1039 H1029 0.929 . S
C1039 C1037 1.433 . S
C1039 N1042 1.384 . S
C1040 H1031 0.929 . S
C1040 C1032 1.378 . S
C1040 C1035 1.350 . S
C1041 H1028 0.929 . S
C1041 C1033 1.433 . S
C1041 N1043 1.384 . S
N1042 C1038 1.427 . S
N1042 C1039 1.384 . S
N1043 C1035 1.427 . S
N1043 C1041 1.384 . S
H1044 C1050 0.930 . S
H1045 C1054 0.930 . S
H1046 C1059 0.929 . S
H1047 C1057 0.929 . S
H1048 C1052 0.929 . S
H1049 C1058 0.929 . S
C1050 H1044 0.930 . S
C1050 C1051 1.367 . S
C1050 C1058 1.378 . S
C1051 C1050 1.367 . S
C1051 C1059 1.433 . S
C1052 H1048 0.929 . S
C1052 C1054 1.378 . S
C1052 C1056 1.350 . S
C1053 C1056 1.463 . S
C1053 C1058 1.350 . S
C1053 N1061 1.427 . S
C1054 H1045 0.930 . S
C1054 C1052 1.378 . S
C1054 C1055 1.367 . S
C1055 C1054 1.367 . S
C1055 C1057 1.433 . S
C1056 C1052 1.350 . S
C1056 C1053 1.463 . S
C1056 N1060 1.427 . S
C1057 H1047 0.929 . S
C1057 C1055 1.433 . S
C1057 N1060 1.384 . S
C1058 H1049 0.929 . S
C1058 C1050 1.378 . S
C1058 C1053 1.350 . S
C1059 H1046 0.929 . S
C1059 C1051 1.433 . S
C1059 N1061 1.384 . S
N1060 C1056 1.427 . S
N1060 C1057 1.384 . S
N1061 C1053 1.427 . S
N1061 C1059 1.384 . S
H1062 C1068 0.930 . S
H1063 C1072 0.930 . S
H1064 C1077 0.929 . S
H1065 C1075 0.929 . S
H1066 C1070 0.929 . S
H1067 C1076 0.929 . S
C1068 H1062 0.930 . S
C1068 C1069 1.367 1_554 S
C1068 C1076 1.378 . S
C1069 C1068 1.367 1_556 S
C1069 C1077 1.433 . S
C1070 H1066 0.929 . S
C1070 C1072 1.378 . S
C1070 C1074 1.350 . S
C1071 C1074 1.463 . S
C1071 C1076 1.350 . S
C1071 N1079 1.427 . S
C1072 H1063 0.930 . S
C1072 C1070 1.378 . S
C1072 C1073 1.367 . S
C1073 C1072 1.367 . S
C1073 C1075 1.433 . S
C1074 C1070 1.350 . S
C1074 C1071 1.463 . S
C1074 N1078 1.427 . S
C1075 H1065 0.929 . S
C1075 C1073 1.433 . S
C1075 N1078 1.384 . S
C1076 H1067 0.929 . S
C1076 C1068 1.378 . S
C1076 C1071 1.350 . S
C1077 H1064 0.929 . S
C1077 C1069 1.433 . S
C1077 N1079 1.384 1_556 S
N1078 C1074 1.427 . S
N1078 C1075 1.384 . S
N1079 C1071 1.427 . S
N1079 C1077 1.384 1_554 S
H1080 C1086 0.930 1_556 S
H1081 C1090 0.930 . S
H1082 C1095 0.929 1_556 S
H1083 C1093 0.929 . S
H1084 C1088 0.929 . S
H1085 C1094 0.929 . S
C1086 H1080 0.930 1_554 S
C1086 C1087 1.367 1_554 S
C1086 C1094 1.378 . S
C1087 C1086 1.367 1_556 S
C1087 C1095 1.433 1_556 S
C1088 H1084 0.929 . S
C1088 C1090 1.378 . S
C1088 C1092 1.350 . S
C1089 C1092 1.463 . S
C1089 C1094 1.350 . S
C1089 N1097 1.427 . S
C1090 H1081 0.930 . S
C1090 C1088 1.378 . S
C1090 C1091 1.367 . S
C1091 C1090 1.367 . S
C1091 C1093 1.433 . S
C1092 C1088 1.350 . S
C1092 C1089 1.463 . S
C1092 N1096 1.427 . S
C1093 H1083 0.929 . S
C1093 C1091 1.433 . S
C1093 N1096 1.384 . S
C1094 H1085 0.929 . S
C1094 C1086 1.378 . S
C1094 C1089 1.350 . S
C1095 H1082 0.929 1_554 S
C1095 C1087 1.433 1_554 S
C1095 N1097 1.384 . S
N1096 C1092 1.427 . S
N1096 C1093 1.384 . S
N1097 C1089 1.427 . S
N1097 C1095 1.384 . S
H1098 C1104 0.930 1_556 S
H1099 C1108 0.930 . S
H1100 C1113 0.929 1_556 S
H1101 C1111 0.929 . S
H1102 C1106 0.929 . S
H1103 C1112 0.929 . S
C1104 H1098 0.930 1_554 S
C1104 C1105 1.367 1_554 S
C1104 C1112 1.378 . S
C1105 C1104 1.367 1_556 S
C1105 C1113 1.433 1_556 S
C1106 H1102 0.929 . S
C1106 C1108 1.378 . S
C1106 C1110 1.350 . S
C1107 C1110 1.463 . S
C1107 C1112 1.350 . S
C1107 N1115 1.427 . S
C1108 H1099 0.930 . S
C1108 C1106 1.378 . S
C1108 C1109 1.367 . S
C1109 C1108 1.367 . S
C1109 C1111 1.433 . S
C1110 C1106 1.350 . S
C1110 C1107 1.463 . S
C1110 N1114 1.427 . S
C1111 H1101 0.929 . S
C1111 C1109 1.433 . S
C1111 N1114 1.384 . S
C1112 H1103 0.929 . S
C1112 C1104 1.378 . S
C1112 C1107 1.350 . S
C1113 H1100 0.929 1_554 S
C1113 C1105 1.433 1_554 S
C1113 N1115 1.384 . S
N1114 C1110 1.427 . S
N1114 C1111 1.384 . S
N1115 C1107 1.427 . S
N1115 C1113 1.384 . S
H1116 C1122 0.930 . S
H1117 C1126 0.930 . S
H1118 C1131 0.929 . S
H1119 C1129 0.929 . S
H1120 C1124 0.929 . S
H1121 C1130 0.929 . S
C1122 H1116 0.930 . S
C1122 C1123 1.367 . S
C1122 C1130 1.378 . S
C1123 C1122 1.367 . S
C1123 C1131 1.433 . S
C1124 H1120 0.929 . S
C1124 C1126 1.378 1_556 S
C1124 C1128 1.350 . S
C1125 C1128 1.463 . S
C1125 C1130 1.350 . S
C1125 N1133 1.427 . S
C1126 H1117 0.930 . S
C1126 C1124 1.378 1_554 S
C1126 C1127 1.367 . S
C1127 C1126 1.367 . S
C1127 C1129 1.433 . S
C1128 C1124 1.350 . S
C1128 C1125 1.463 . S
C1128 N1132 1.427 . S
C1129 H1119 0.929 . S
C1129 C1127 1.433 . S
C1129 N1132 1.384 1_554 S
C1130 H1121 0.929 . S
C1130 C1122 1.378 . S
C1130 C1125 1.350 . S
C1131 H1118 0.929 . S
C1131 C1123 1.433 . S
C1131 N1133 1.384 . S
N1132 C1128 1.427 . S
N1132 C1129 1.384 1_556 S
N1133 C1125 1.427 . S
N1133 C1131 1.384 . S
H1134 C1140 0.930 . S
H1135 C1144 0.930 . S
H1136 C1149 0.929 . S
H1137 C1147 0.929 . S
H1138 C1142 0.929 . S
H1139 C1148 0.929 . S
C1140 H1134 0.930 . S
C1140 C1141 1.367 . S
C1140 C1148 1.378 . S
C1141 C1140 1.367 . S
C1141 C1149 1.433 . S
C1142 H1138 0.929 . S
C1142 C1144 1.378 1_556 S
C1142 C1146 1.350 . S
C1143 C1146 1.463 . S
C1143 C1148 1.350 . S
C1143 N1151 1.427 . S
C1144 H1135 0.930 . S
C1144 C1142 1.378 1_554 S
C1144 C1145 1.367 . S
C1145 C1144 1.367 . S
C1145 C1147 1.433 . S
C1146 C1142 1.350 . S
C1146 C1143 1.463 . S
C1146 N1150 1.427 . S
C1147 H1137 0.929 . S
C1147 C1145 1.433 . S
C1147 N1150 1.384 1_554 S
C1148 H1139 0.929 . S
C1148 C1140 1.378 . S
C1148 C1143 1.350 . S
C1149 H1136 0.929 . S
C1149 C1141 1.433 . S
C1149 N1151 1.384 . S
N1150 C1146 1.427 . S
N1150 C1147 1.384 1_556 S
N1151 C1143 1.427 . S
N1151 C1149 1.384 . S
H1152 C1158 0.930 . S
H1153 C1162 0.930 . S
H1154 C1167 0.929 . S
H1155 C1165 0.929 . S
H1156 C1160 0.929 . S
H1157 C1166 0.929 . S
C1158 H1152 0.930 . S
C1158 C1159 1.367 . S
C1158 C1166 1.378 . S
C1159 C1158 1.367 . S
C1159 C1167 1.433 . S
C1160 H1156 0.929 . S
C1160 C1162 1.378 1_556 S
C1160 C1164 1.350 . S
C1161 C1164 1.463 . S
C1161 C1166 1.350 . S
C1161 N1169 1.427 . S
C1162 H1153 0.930 . S
C1162 C1160 1.378 1_554 S
C1162 C1163 1.367 . S
C1163 C1162 1.367 . S
C1163 C1165 1.433 . S
C1164 C1160 1.350 . S
C1164 C1161 1.463 . S
C1164 N1168 1.427 . S
C1165 H1155 0.929 . S
C1165 C1163 1.433 . S
C1165 N1168 1.384 1_554 S
C1166 H1157 0.929 . S
C1166 C1158 1.378 . S
C1166 C1161 1.350 . S
C1167 H1154 0.929 . S
C1167 C1159 1.433 . S
C1167 N1169 1.384 . S
N1168 C1164 1.427 . S
N1168 C1165 1.384 1_556 S
N1169 C1161 1.427 . S
N1169 C1167 1.384 . S
H1170 C1176 0.930 . S
H1171 C1180 0.930 . S
H1172 C1185 0.929 . S
H1173 C1183 0.929 . S
H1174 C1178 0.929 . S
H1175 C1184 0.929 . S
C1176 H1170 0.930 . S
C1176 C1177 1.367 . S
C1176 C1184 1.378 . S
C1177 C1176 1.367 . S
C1177 C1185 1.433 . S
C1178 H1174 0.929 . S
C1178 C1180 1.378 . S
C1178 C1182 1.350 . S
C1179 C1182 1.463 . S
C1179 C1184 1.350 . S
C1179 N1187 1.427 . S
C1180 H1171 0.930 . S
C1180 C1178 1.378 . S
C1180 C1181 1.367 . S
C1181 C1180 1.367 . S
C1181 C1183 1.433 . S
C1182 C1178 1.350 . S
C1182 C1179 1.463 . S
C1182 N1186 1.427 . S
C1183 H1173 0.929 . S
C1183 C1181 1.433 . S
C1183 N1186 1.384 . S
C1184 H1175 0.929 . S
C1184 C1176 1.378 . S
C1184 C1179 1.350 . S
C1185 H1172 0.929 . S
C1185 C1177 1.433 . S
C1185 N1187 1.384 . S
N1186 C1182 1.427 . S
N1186 C1183 1.384 . S
N1187 C1179 1.427 . S
N1187 C1185 1.384 . S
H1188 C1194 0.930 . S
H1189 C1198 0.930 . S
H1190 C1203 0.929 . S
H1191 C1201 0.929 . S
H1192 C1196 0.929 . S
H1193 C1202 0.929 . S
C1194 H1188 0.930 . S
C1194 C1195 1.367 . S
C1194 C1202 1.378 . S
C1195 C1194 1.367 . S
C1195 C1203 1.433 . S
C1196 H1192 0.929 . S
C1196 C1198 1.378 . S
C1196 C1200 1.350 . S
C1197 C1200 1.463 . S
C1197 C1202 1.350 . S
C1197 N1205 1.427 . S
C1198 H1189 0.930 . S
C1198 C1196 1.378 . S
C1198 C1199 1.367 . S
C1199 C1198 1.367 . S
C1199 C1201 1.433 . S
C1200 C1196 1.350 . S
C1200 C1197 1.463 . S
C1200 N1204 1.427 . S
C1201 H1191 0.929 . S
C1201 C1199 1.433 . S
C1201 N1204 1.384 . S
C1202 H1193 0.929 . S
C1202 C1194 1.378 . S
C1202 C1197 1.350 . S
C1203 H1190 0.929 . S
C1203 C1195 1.433 . S
C1203 N1205 1.384 . S
N1204 C1200 1.427 . S
N1204 C1201 1.384 . S
N1205 C1197 1.427 . S
N1205 C1203 1.384 . S
H1206 C1212 0.930 . S
H1207 C1216 0.930 . S
H1208 C1221 0.929 . S
H1209 C1219 0.929 . S
H1210 C1214 0.929 . S
H1211 C1220 0.929 . S
C1212 H1206 0.930 . S
C1212 C1213 1.367 . S
C1212 C1220 1.378 . S
C1213 C1212 1.367 . S
C1213 C1221 1.433 . S
C1214 H1210 0.929 . S
C1214 C1216 1.378 . S
C1214 C1218 1.350 . S
C1215 C1218 1.463 . S
C1215 C1220 1.350 . S
C1215 N1223 1.427 . S
C1216 H1207 0.930 . S
C1216 C1214 1.378 . S
C1216 C1217 1.367 . S
C1217 C1216 1.367 . S
C1217 C1219 1.433 . S
C1218 C1214 1.350 . S
C1218 C1215 1.463 . S
C1218 N1222 1.427 . S
C1219 H1209 0.929 . S
C1219 C1217 1.433 . S
C1219 N1222 1.384 . S
C1220 H1211 0.929 . S
C1220 C1212 1.378 . S
C1220 C1215 1.350 . S
C1221 H1208 0.929 . S
C1221 C1213 1.433 . S
C1221 N1223 1.384 . S
N1222 C1218 1.427 . S
N1222 C1219 1.384 . S
N1223 C1215 1.427 . S
N1223 C1221 1.384 . S
H1224 C1230 0.930 . S
H1225 C1234 0.930 . S
H1226 C1239 0.929 . S
H1227 C1237 0.929 1_545 S
H1228 C1232 0.929 . S
H1229 C1238 0.929 . S
C1230 H1224 0.930 . S
C1230 C1231 1.367 . S
C1230 C1238 1.378 . S
C1231 C1230 1.367 . S
C1231 C1239 1.433 . S
C1232 H1228 0.929 . S
C1232 C1234 1.378 . S
C1232 C1236 1.350 . S
C1233 C1236 1.463 . S
C1233 C1238 1.350 . S
C1233 N1241 1.427 . S
C1234 H1225 0.930 . S
C1234 C1232 1.378 . S
C1234 C1235 1.367 . S
C1235 C1234 1.367 . S
C1235 C1237 1.433 . S
C1236 C1232 1.350 . S
C1236 C1233 1.463 . S
C1236 N1240 1.427 . S
C1237 H1227 0.929 1_565 S
C1237 C1235 1.433 . S
C1237 N1240 1.384 . S
C1238 H1229 0.929 . S
C1238 C1230 1.378 . S
C1238 C1233 1.350 . S
C1239 H1226 0.929 . S
C1239 C1231 1.433 . S
C1239 N1241 1.384 . S
N1240 C1236 1.427 . S
N1240 C1237 1.384 . S
N1241 C1233 1.427 . S
N1241 C1239 1.384 . S
H1242 C1248 0.930 . S
H1243 C1252 0.930 . S
H1244 C1257 0.941 . S
H1245 C1255 0.929 . S
H1246 C1250 0.929 . S
H1247 C1256 0.929 . S
C1248 H1242 0.930 . S
C1248 C1249 1.367 . S
C1248 C1256 1.378 . S
C1249 C1248 1.367 . S
C1249 C1257 1.438 1_455 S
C1250 H1246 0.929 . S
C1250 C1252 1.378 . S
C1250 C1254 1.350 . S
C1251 C1254 1.463 . S
C1251 C1256 1.350 . S
C1251 N1259 1.427 . S
C1252 H1243 0.930 . S
C1252 C1250 1.378 . S
C1252 C1253 1.367 . S
C1253 C1252 1.367 . S
C1253 C1255 1.433 . S
C1254 C1250 1.350 . S
C1254 C1251 1.463 . S
C1254 N1258 1.427 . S
C1255 H1245 0.929 . S
C1255 C1253 1.433 . S
C1255 N1258 1.384 . S
C1256 H1247 0.929 . S
C1256 C1248 1.378 . S
C1256 C1251 1.350 . S
C1257 H1244 0.941 . S
C1257 C1249 1.438 1_655 S
C1257 N1259 1.367 1_655 S
N1258 C1254 1.427 . S
N1258 C1255 1.384 . S
N1259 C1251 1.427 . S
N1259 C1257 1.367 1_455 S
H1260 C1266 0.930 . S
H1261 C1270 0.930 . S
H1262 C1275 0.929 . S
H1263 C1273 0.929 . S
H1264 C1268 0.929 . S
H1265 C1274 0.929 . S
C1266 H1260 0.930 . S
C1266 C1267 1.367 . S
C1266 C1274 1.378 . S
C1267 C1266 1.367 . S
C1267 C1275 1.433 . S
C1268 H1264 0.929 . S
C1268 C1270 1.378 . S
C1268 C1272 1.350 . S
C1269 C1272 1.463 . S
C1269 C1274 1.350 . S
C1269 N1277 1.427 . S
C1270 H1261 0.930 . S
C1270 C1268 1.378 . S
C1270 C1271 1.367 . S
C1271 C1270 1.367 . S
C1271 C1273 1.433 . S
C1272 C1268 1.350 . S
C1272 C1269 1.463 . S
C1272 N1276 1.427 . S
C1273 H1263 0.929 . S
C1273 C1271 1.433 . S
C1273 N1276 1.384 . S
C1274 H1265 0.929 . S
C1274 C1266 1.378 . S
C1274 C1269 1.350 . S
C1275 H1262 0.929 . S
C1275 C1267 1.433 . S
C1275 N1277 1.384 . S
N1276 C1272 1.427 . S
N1276 C1273 1.384 . S
N1277 C1269 1.427 . S
N1277 C1275 1.384 . S
H1278 C1284 0.930 . S
H1279 C1288 0.930 . S
H1280 C1293 0.929 1_655 S
H1281 C1291 0.929 . S
H1282 C1286 0.929 . S
H1283 C1292 0.929 . S
C1284 H1278 0.930 . S
C1284 C1285 1.367 . S
C1284 C1292 1.378 . S
C1285 C1284 1.367 . S
C1285 C1293 1.433 . S
C1286 H1282 0.929 . S
C1286 C1288 1.378 . S
C1286 C1290 1.350 . S
C1287 C1290 1.463 . S
C1287 C1292 1.350 . S
C1287 N1295 1.427 . S
C1288 H1279 0.930 . S
C1288 C1286 1.378 . S
C1288 C1289 1.367 . S
C1289 C1288 1.367 . S
C1289 C1291 1.433 . S
C1290 C1286 1.350 . S
C1290 C1287 1.463 . S
C1290 N1294 1.427 . S
C1291 H1281 0.929 . S
C1291 C1289 1.433 . S
C1291 N1294 1.384 . S
C1292 H1283 0.929 . S
C1292 C1284 1.378 . S
C1292 C1287 1.350 . S
C1293 H1280 0.929 1_455 S
C1293 C1285 1.433 . S
C1293 N1295 1.384 . S
N1294 C1290 1.427 . S
N1294 C1291 1.384 . S
N1295 C1287 1.427 . S
N1295 C1293 1.384 . S
H1296 C1302 0.930 . S
H1297 C1306 0.930 . S
H1298 C1311 0.929 . S
H1299 C1309 0.929 . S
H1300 C1304 0.929 . S
H1301 C1310 0.929 . S
C1302 H1296 0.930 . S
C1302 C1303 1.367 . S
C1302 C1310 1.378 . S
C1303 C1302 1.367 . S
C1303 C1311 1.433 . S
C1304 H1300 0.929 . S
C1304 C1306 1.378 . S
C1304 C1308 1.350 . S
C1305 C1308 1.463 . S
C1305 C1310 1.350 . S
C1305 N1313 1.427 . S
C1306 H1297 0.930 . S
C1306 C1304 1.378 . S
C1306 C1307 1.367 . S
C1307 C1306 1.367 . S
C1307 C1309 1.433 . S
C1308 C1304 1.350 . S
C1308 C1305 1.463 . S
C1308 N1312 1.427 . S
C1309 H1299 0.929 . S
C1309 C1307 1.433 . S
C1309 N1312 1.384 . S
C1310 H1301 0.929 . S
C1310 C1302 1.378 . S
C1310 C1305 1.350 . S
C1311 H1298 0.929 . S
C1311 C1303 1.433 . S
C1311 N1313 1.384 . S
N1312 C1308 1.427 . S
N1312 C1309 1.384 . S
N1313 C1305 1.427 . S
N1313 C1311 1.384 . S
H1314 C1320 0.930 . S
H1315 C1324 0.930 1_545 S
H1316 C1329 0.929 . S
H1317 C1327 0.929 . S
H1318 C1322 0.929 . S
H1319 C1328 0.929 . S
C1320 H1314 0.930 . S
C1320 C1321 1.367 . S
C1320 C1328 1.378 . S
C1321 C1320 1.367 . S
C1321 C1329 1.433 . S
C1322 H1318 0.929 . S
C1322 C1324 1.378 . S
C1322 C1326 1.350 . S
C1323 C1326 1.463 . S
C1323 C1328 1.350 . S
C1323 N1331 1.427 . S
C1324 H1315 0.930 1_565 S
C1324 C1322 1.378 . S
C1324 C1325 1.367 . S
C1325 C1324 1.367 . S
C1325 C1327 1.433 . S
C1326 C1322 1.350 . S
C1326 C1323 1.463 . S
C1326 N1330 1.427 . S
C1327 H1317 0.929 . S
C1327 C1325 1.433 . S
C1327 N1330 1.384 . S
C1328 H1319 0.929 . S
C1328 C1320 1.378 . S
C1328 C1323 1.350 . S
C1329 H1316 0.929 . S
C1329 C1321 1.433 . S
C1329 N1331 1.384 . S
N1330 C1326 1.427 . S
N1330 C1327 1.384 . S
N1331 C1323 1.427 . S
N1331 C1329 1.384 . S
H1332 C1338 0.930 . S
H1333 C1342 0.930 . S
H1334 C1347 0.929 . S
H1335 C1345 0.929 . S
H1336 C1340 0.929 . S
H1337 C1346 0.929 . S
C1338 H1332 0.930 . S
C1338 C1339 1.367 . S
C1338 C1346 1.378 . S
C1339 C1338 1.367 . S
C1339 C1347 1.433 . S
C1340 H1336 0.929 . S
C1340 C1342 1.378 1_455 S
C1340 C1344 1.350 . S
C1341 C1344 1.463 . S
C1341 C1346 1.350 . S
C1341 N1349 1.427 . S
C1342 H1333 0.930 . S
C1342 C1340 1.378 1_655 S
C1342 C1343 1.367 . S
C1343 C1342 1.367 . S
C1343 C1345 1.433 1_655 S
C1344 C1340 1.350 . S
C1344 C1341 1.463 . S
C1344 N1348 1.427 . S
C1345 H1335 0.929 . S
C1345 C1343 1.433 1_455 S
C1345 N1348 1.384 . S
C1346 H1337 0.929 . S
C1346 C1338 1.378 . S
C1346 C1341 1.350 . S
C1347 H1334 0.929 . S
C1347 C1339 1.433 . S
C1347 N1349 1.384 . S
N1348 C1344 1.427 . S
N1348 C1345 1.384 . S
N1349 C1341 1.427 . S
N1349 C1347 1.384 . S
H1350 C1356 0.930 . S
H1351 C1360 0.930 . S
H1352 C1365 0.929 . S
H1353 C1363 0.929 . S
H1354 C1358 0.929 . S
H1355 C1364 0.929 . S
C1356 H1350 0.930 . S
C1356 C1357 1.367 . S
C1356 C1364 1.378 . S
C1357 C1356 1.367 . S
C1357 C1365 1.433 . S
C1358 H1354 0.929 . S
C1358 C1360 1.378 . S
C1358 C1362 1.350 . S
C1359 C1362 1.463 . S
C1359 C1364 1.350 . S
C1359 N1367 1.427 . S
C1360 H1351 0.930 . S
C1360 C1358 1.378 . S
C1360 C1361 1.367 . S
C1361 C1360 1.367 . S
C1361 C1363 1.433 . S
C1362 C1358 1.350 . S
C1362 C1359 1.463 . S
C1362 N1366 1.427 . S
C1363 H1353 0.929 . S
C1363 C1361 1.433 . S
C1363 N1366 1.384 . S
C1364 H1355 0.929 . S
C1364 C1356 1.378 . S
C1364 C1359 1.350 . S
C1365 H1352 0.929 . S
C1365 C1357 1.433 . S
C1365 N1367 1.384 . S
N1366 C1362 1.427 . S
N1366 C1363 1.384 . S
N1367 C1359 1.427 . S
N1367 C1365 1.384 . S
H1368 C1374 0.930 . S
H1369 C1378 0.930 . S
H1370 C1383 0.929 . S
H1371 C1381 0.929 1_545 S
H1372 C1376 0.929 . S
H1373 C1382 0.929 . S
C1374 H1368 0.930 . S
C1374 C1375 1.367 . S
C1374 C1382 1.378 . S
C1375 C1374 1.367 . S
C1375 C1383 1.433 . S
C1376 H1372 0.929 . S
C1376 C1378 1.378 . S
C1376 C1380 1.350 . S
C1377 C1380 1.463 . S
C1377 C1382 1.350 . S
C1377 N1385 1.427 . S
C1378 H1369 0.930 . S
C1378 C1376 1.378 . S
C1378 C1379 1.367 1_565 S
C1379 C1378 1.367 1_545 S
C1379 C1381 1.433 1_545 S
C1380 C1376 1.350 . S
C1380 C1377 1.463 . S
C1380 N1384 1.427 . S
C1381 H1371 0.929 1_565 S
C1381 C1379 1.433 1_565 S
C1381 N1384 1.384 . S
C1382 H1373 0.929 . S
C1382 C1374 1.378 . S
C1382 C1377 1.350 . S
C1383 H1370 0.929 . S
C1383 C1375 1.433 . S
C1383 N1385 1.384 . S
N1384 C1380 1.427 . S
N1384 C1381 1.384 . S
N1385 C1377 1.427 . S
N1385 C1383 1.384 . S
H1386 C1392 0.930 . S
H1387 C1396 0.930 . S
H1388 C1401 0.929 1_545 S
H1389 C1399 0.929 . S
H1390 C1394 0.929 . S
H1391 C1400 0.929 . S
C1392 H1386 0.930 . S
C1392 C1393 1.367 1_565 S
C1392 C1400 1.378 . S
C1393 C1392 1.367 1_545 S
C1393 C1401 1.433 1_545 S
C1394 H1390 0.929 . S
C1394 C1396 1.378 . S
C1394 C1398 1.350 . S
C1395 C1398 1.463 . S
C1395 C1400 1.350 . S
C1395 N1403 1.427 . S
C1396 H1387 0.930 . S
C1396 C1394 1.378 . S
C1396 C1397 1.367 . S
C1397 C1396 1.367 . S
C1397 C1399 1.433 . S
C1398 C1394 1.350 . S
C1398 C1395 1.463 . S
C1398 N1402 1.427 . S
C1399 H1389 0.929 . S
C1399 C1397 1.433 . S
C1399 N1402 1.384 . S
C1400 H1391 0.929 . S
C1400 C1392 1.378 . S
C1400 C1395 1.350 . S
C1401 H1388 0.929 1_565 S
C1401 C1393 1.433 1_565 S
C1401 N1403 1.384 . S
N1402 C1398 1.427 . S
N1402 C1399 1.384 . S
N1403 C1395 1.427 . S
N1403 C1401 1.384 . S
H1404 C1410 0.930 . S
H1405 C1414 0.930 . S
H1406 C1419 0.929 1_655 S
H1407 C1417 0.929 . S
H1408 C1412 0.929 . S
H1409 C1418 0.929 . S
C1410 H1404 0.930 . S
C1410 C1411 1.367 1_455 S
C1410 C1418 1.378 . S
C1411 C1410 1.367 1_655 S
C1411 C1419 1.433 1_655 S
C1412 H1408 0.929 . S
C1412 C1414 1.378 . S
C1412 C1416 1.350 . S
C1413 C1416 1.463 . S
C1413 C1418 1.350 . S
C1413 N1421 1.427 . S
C1414 H1405 0.930 . S
C1414 C1412 1.378 . S
C1414 C1415 1.367 . S
C1415 C1414 1.367 . S
C1415 C1417 1.433 . S
C1416 C1412 1.350 . S
C1416 C1413 1.463 . S
C1416 N1420 1.427 . S
C1417 H1407 0.929 . S
C1417 C1415 1.433 . S
C1417 N1420 1.384 . S
C1418 H1409 0.929 . S
C1418 C1410 1.378 . S
C1418 C1413 1.350 . S
C1419 H1406 0.929 1_455 S
C1419 C1411 1.433 1_455 S
C1419 N1421 1.384 . S
N1420 C1416 1.427 . S
N1420 C1417 1.384 . S
N1421 C1413 1.427 . S
N1421 C1419 1.384 . S
H1422 C1428 0.930 . S
H1423 C1432 0.930 . S
H1424 C1437 0.929 . S
H1425 C1435 0.929 . S
H1426 C1430 0.929 . S
H1427 C1436 0.929 . S
C1428 H1422 0.930 . S
C1428 C1429 1.367 . S
C1428 C1436 1.378 . S
C1429 C1428 1.367 . S
C1429 C1437 1.433 . S
C1430 H1426 0.929 . S
C1430 C1432 1.378 . S
C1430 C1434 1.350 . S
C1431 C1434 1.463 . S
C1431 C1436 1.350 . S
C1431 N1439 1.427 . S
C1432 H1423 0.930 . S
C1432 C1430 1.378 . S
C1432 C1433 1.367 . S
C1433 C1432 1.367 . S
C1433 C1435 1.433 . S
C1434 C1430 1.350 . S
C1434 C1431 1.463 . S
C1434 N1438 1.427 . S
C1435 H1425 0.929 . S
C1435 C1433 1.433 . S
C1435 N1438 1.384 . S
C1436 H1427 0.929 . S
C1436 C1428 1.378 . S
C1436 C1431 1.350 . S
C1437 H1424 0.929 . S
C1437 C1429 1.433 . S
C1437 N1439 1.384 . S
N1438 C1434 1.427 . S
N1438 C1435 1.384 . S
N1439 C1431 1.427 . S
N1439 C1437 1.384 . S
H1440 C1446 0.930 . S
H1441 C1450 0.930 . S
H1442 C1455 0.929 . S
H1443 C1453 0.929 . S
H1444 C1448 0.929 . S
H1445 C1454 0.929 . S
C1446 H1440 0.930 . S
C1446 C1447 1.367 . S
C1446 C1454 1.378 . S
C1447 C1446 1.367 . S
C1447 C1455 1.433 . S
C1448 H1444 0.929 . S
C1448 C1450 1.378 . S
C1448 C1452 1.350 . S
C1449 C1452 1.463 . S
C1449 C1454 1.350 . S
C1449 N1457 1.427 . S
C1450 H1441 0.930 . S
C1450 C1448 1.378 . S
C1450 C1451 1.367 . S
C1451 C1450 1.367 . S
C1451 C1453 1.433 . S
C1452 C1448 1.350 . S
C1452 C1449 1.463 . S
C1452 N1456 1.427 . S
C1453 H1443 0.929 . S
C1453 C1451 1.433 . S
C1453 N1456 1.384 . S
C1454 H1445 0.929 . S
C1454 C1446 1.378 . S
C1454 C1449 1.350 . S
C1455 H1442 0.929 . S
C1455 C1447 1.433 . S
C1455 N1457 1.384 . S
N1456 C1452 1.427 . S
N1456 C1453 1.384 . S
N1457 C1449 1.427 . S
N1457 C1455 1.384 . S
H1458 C1464 0.930 . S
H1459 C1468 0.930 . S
H1460 C1473 0.929 . S
H1461 C1471 0.929 . S
H1462 C1466 0.929 . S
H1463 C1472 0.929 . S
C1464 H1458 0.930 . S
C1464 C1465 1.367 . S
C1464 C1472 1.378 . S
C1465 C1464 1.367 . S
C1465 C1473 1.433 . S
C1466 H1462 0.929 . S
C1466 C1468 1.378 . S
C1466 C1470 1.350 . S
C1467 C1470 1.463 . S
C1467 C1472 1.350 . S
C1467 N1475 1.427 . S
C1468 H1459 0.930 . S
C1468 C1466 1.378 . S
C1468 C1469 1.367 . S
C1469 C1468 1.367 . S
C1469 C1471 1.433 . S
C1470 C1466 1.350 . S
C1470 C1467 1.463 . S
C1470 N1474 1.427 . S
C1471 H1461 0.929 . S
C1471 C1469 1.433 . S
C1471 N1474 1.384 . S
C1472 H1463 0.929 . S
C1472 C1464 1.378 . S
C1472 C1467 1.350 . S
C1473 H1460 0.929 . S
C1473 C1465 1.433 . S
C1473 N1475 1.384 . S
N1474 C1470 1.427 . S
N1474 C1471 1.384 . S
N1475 C1467 1.427 . S
N1475 C1473 1.384 . S
H1476 C1482 0.930 . S
H1477 C1486 0.930 . S
H1478 C1491 0.929 . S
H1479 C1489 0.929 . S
H1480 C1484 0.929 . S
H1481 C1490 0.929 . S
C1482 H1476 0.930 . S
C1482 C1483 1.367 . S
C1482 C1490 1.378 . S
C1483 C1482 1.367 . S
C1483 C1491 1.433 . S
C1484 H1480 0.929 . S
C1484 C1486 1.378 . S
C1484 C1488 1.350 . S
C1485 C1488 1.463 . S
C1485 C1490 1.350 . S
C1485 N1493 1.427 . S
C1486 H1477 0.930 . S
C1486 C1484 1.378 . S
C1486 C1487 1.367 . S
C1487 C1486 1.367 . S
C1487 C1489 1.433 . S
C1488 C1484 1.350 . S
C1488 C1485 1.463 . S
C1488 N1492 1.427 . S
C1489 H1479 0.929 . S
C1489 C1487 1.433 . S
C1489 N1492 1.384 . S
C1490 H1481 0.929 . S
C1490 C1482 1.378 . S
C1490 C1485 1.350 . S
C1491 H1478 0.929 . S
C1491 C1483 1.433 . S
C1491 N1493 1.384 . S
N1492 C1488 1.427 . S
N1492 C1489 1.384 . S
N1493 C1485 1.427 . S
N1493 C1491 1.384 . S
H1494 C1500 0.930 . S
H1495 C1504 0.930 1_556 S
H1496 C1509 0.929 . S
H1497 C1507 0.929 . S
H1498 C1502 0.929 . S
H1499 C1508 0.929 . S
C1500 H1494 0.930 . S
C1500 C1501 1.367 . S
C1500 C1508 1.378 . S
C1501 C1500 1.367 . S
C1501 C1509 1.433 . S
C1502 H1498 0.929 . S
C1502 C1504 1.378 . S
C1502 C1506 1.350 . S
C1503 C1506 1.463 . S
C1503 C1508 1.350 . S
C1503 N1511 1.427 . S
C1504 H1495 0.930 1_554 S
C1504 C1502 1.378 . S
C1504 C1505 1.367 . S
C1505 C1504 1.367 . S
C1505 C1507 1.433 . S
C1506 C1502 1.350 . S
C1506 C1503 1.463 . S
C1506 N1510 1.427 . S
C1507 H1497 0.929 . S
C1507 C1505 1.433 . S
C1507 N1510 1.384 . S
C1508 H1499 0.929 . S
C1508 C1500 1.378 . S
C1508 C1503 1.350 . S
C1509 H1496 0.929 . S
C1509 C1501 1.433 . S
C1509 N1511 1.384 . S
N1510 C1506 1.427 . S
N1510 C1507 1.384 . S
N1511 C1503 1.427 . S
N1511 C1509 1.384 . S
H1512 C1518 0.930 . S
H1513 C1522 0.930 . S
H1514 C1527 0.929 . S
H1515 C1525 0.929 . S
H1516 C1520 0.929 . S
H1517 C1526 0.929 . S
C1518 H1512 0.930 . S
C1518 C1519 1.367 . S
C1518 C1526 1.378 . S
C1519 C1518 1.367 . S
C1519 C1527 1.433 . S
C1520 H1516 0.929 . S
C1520 C1522 1.378 . S
C1520 C1524 1.350 . S
C1521 C1524 1.463 . S
C1521 C1526 1.350 . S
C1521 N1529 1.427 . S
C1522 H1513 0.930 . S
C1522 C1520 1.378 . S
C1522 C1523 1.367 . S
C1523 C1522 1.367 . S
C1523 C1525 1.433 . S
C1524 C1520 1.350 . S
C1524 C1521 1.463 . S
C1524 N1528 1.427 . S
C1525 H1515 0.929 . S
C1525 C1523 1.433 . S
C1525 N1528 1.384 . S
C1526 H1517 0.929 . S
C1526 C1518 1.378 . S
C1526 C1521 1.350 . S
C1527 H1514 0.929 . S
C1527 C1519 1.433 . S
C1527 N1529 1.384 . S
N1528 C1524 1.427 . S
N1528 C1525 1.384 . S
N1529 C1521 1.427 . S
N1529 C1527 1.384 . S
H1530 C1536 0.930 . S
H1531 C1540 0.930 . S
H1532 C1545 0.929 . S
H1533 C1543 0.929 . S
H1534 C1538 0.929 . S
H1535 C1544 0.929 . S
C1536 H1530 0.930 . S
C1536 C1537 1.367 . S
C1536 C1544 1.378 . S
C1537 C1536 1.367 . S
C1537 C1545 1.433 . S
C1538 H1534 0.929 . S
C1538 C1540 1.378 . S
C1538 C1542 1.350 . S
C1539 C1542 1.463 . S
C1539 C1544 1.350 . S
C1539 N1547 1.427 . S
C1540 H1531 0.930 . S
C1540 C1538 1.378 . S
C1540 C1541 1.367 . S
C1541 C1540 1.367 . S
C1541 C1543 1.433 . S
C1542 C1538 1.350 . S
C1542 C1539 1.463 . S
C1542 N1546 1.427 . S
C1543 H1533 0.929 . S
C1543 C1541 1.433 . S
C1543 N1546 1.384 . S
C1544 H1535 0.929 . S
C1544 C1536 1.378 . S
C1544 C1539 1.350 . S
C1545 H1532 0.929 . S
C1545 C1537 1.433 . S
C1545 N1547 1.384 . S
N1546 C1542 1.427 . S
N1546 C1543 1.384 . S
N1547 C1539 1.427 . S
N1547 C1545 1.384 . S
C583 C4 0.702 1_556 S
C587 N77 0.701 . S
C601 N13 0.670 . S
C605 C36 0.687 1_556 S
C619 C68 0.674 1_556 S
C623 N45 0.705 . S
C637 N141 0.686 . S
C641 C100 0.668 . S
C655 N178 0.706 . S
C659 C132 0.675 . S
C673 C189 0.676 . S
C677 N109 0.674 . S
C691 N269 0.707 . S
C695 C196 0.696 . S
C709 C228 0.702 . S
C713 N205 0.701 . S
C727 N237 0.686 . S
C731 C260 0.668 . S
C745 C317 0.675 . S
C749 N333 0.706 . S
C763 N370 0.709 . S
C767 C324 0.680 . S
C781 C381 0.681 . S
C785 N306 0.671 . S
C799 N461 0.688 . S
C803 C388 0.668 . S
C817 C420 0.687 . S
C821 N397 0.710 . S
C835 C452 0.670 . S
C839 N429 0.700 . S
C853 C509 0.701 . S
C857 N525 0.703 . S
C871 N562 0.692 . S
C875 C516 0.668 . S
C889 N498 0.684 . S
C893 C573 0.669 . S
C907 C166 1.422 . S
C911 C29 1.395 . S
C925 C98 1.424 . S
C929 C61 1.397 . S
C943 C130 1.417 . S
C947 C93 1.386 . S
C961 C34 1.424 . S
C965 C125 1.398 . S
C979 C157 1.390 . S
C983 C66 1.419 . S
C997 C2 1.424 . S
C1001 C164 1.398 . S
C1015 C221 1.389 . S
C1019 C358 1.418 . S
C1033 C253 1.386 . S
C1037 C294 1.417 . S
C1051 C322 1.426 . S
C1055 C285 1.401 . S
C1069 C292 1.401 . S
C1073 C226 1.426 . S
C1087 C349 1.395 . S
C1091 C258 1.422 . S
C1105 C356 1.396 . S
C1109 C194 1.423 . S
C1123 C413 1.390 . S
C1127 C550 1.419 . S
C1141 C445 1.398 . S
C1145 C486 1.424 . S
C1159 C477 1.398 . S
C1163 C514 1.424 . S
C1177 C484 1.389 . S
C1181 C418 1.418 . S
C1195 C541 1.387 . S
C1199 C450 1.417 . S
C1213 C548 1.390 . S
C1217 C386 1.419 . S
C1231 C326 1.878 . S
C1235 N18 1.940 1_565 S
C1249 N50 1.938 1_455 S
C1253 C354 1.878 . S
C1267 C290 1.868 . S
C1271 N82 1.939 . S
C1285 N114 1.940 1_455 S
C1289 C262 1.877 . S
C1303 N146 1.941 . S
C1307 C198 1.869 . S
C1321 C230 1.869 . S
C1325 N173 1.942 1_565 S
C1339 N210 1.941 . S
C1343 C518 1.873 . S
C1357 N242 1.940 . S
C1361 C546 1.867 . S
C1375 N274 1.941 . S
C1379 C482 1.867 . S
C1393 C454 1.876 . S
C1397 N301 1.938 . S
C1411 C390 1.866 . S
C1415 N338 1.941 . S
C1429 C422 1.870 . S
C1433 N365 1.938 . S
C1447 C134 1.872 . S
C1451 N402 1.941 . S
C1465 N434 1.938 . S
C1469 C162 1.871 . S
C1483 C102 1.878 . S
C1487 N466 1.939 . S
C1501 N493 1.938 . S
C1505 C70 1.878 . S
C1519 N530 1.940 . S
C1523 C6 1.877 . S
C1537 C38 1.878 . S
C1541 N557 1.938 . S
