# Generated by pormake.
# Topology ume, (4)-cn, num edge types: 1
# Building blocks:
#     Node 0, Type 0, BuildingBlock: QUQFOY_clean_sbu_1, # of connection points: 4
#     Node 1, Type 0, BuildingBlock: QUQFOY_clean_sbu_1, # of connection points: 4
#     Node 2, Type 0, BuildingBlock: QUQFOY_clean_sbu_1, # of connection points: 4
#     Node 3, Type 0, BuildingBlock: QUQFOY_clean_sbu_1, # of connection points: 4
#     Node 4, Type 0, BuildingBlock: QUQFOY_clean_sbu_1, # of connection points: 4
#     Node 5, Type 0, BuildingBlock: QUQFOY_clean_sbu_1, # of connection points: 4
#     Node 6, Type 0, BuildingBlock: QUQFOY_clean_sbu_1, # of connection points: 4
#     Node 7, Type 0, BuildingBlock: QUQFOY_clean_sbu_1, # of connection points: 4
#     Node 8, Type 0, BuildingBlock: QUQFOY_clean_sbu_1, # of connection points: 4
#     Node 9, Type 0, BuildingBlock: QUQFOY_clean_sbu_1, # of connection points: 4
#     Node 10, Type 0, BuildingBlock: QUQFOY_clean_sbu_1, # of connection points: 4
#     Node 11, Type 0, BuildingBlock: QUQFOY_clean_sbu_1, # of connection points: 4
#     Node 12, Type 0, BuildingBlock: QUQFOY_clean_sbu_1, # of connection points: 4
#     Node 13, Type 0, BuildingBlock: QUQFOY_clean_sbu_1, # of connection points: 4
#     Node 14, Type 0, BuildingBlock: QUQFOY_clean_sbu_1, # of connection points: 4
#     Node 15, Type 0, BuildingBlock: QUQFOY_clean_sbu_1, # of connection points: 4
#     Edge 16, Type (0, 0), BuildingBlock: MIFKUJ_clean_linker_0, # of connection points: 2
#     Edge 17, Type (0, 0), BuildingBlock: MIFKUJ_clean_linker_0, # of connection points: 2
#     Edge 18, Type (0, 0), BuildingBlock: MIFKUJ_clean_linker_0, # of connection points: 2
#     Edge 19, Type (0, 0), BuildingBlock: MIFKUJ_clean_linker_0, # of connection points: 2
#     Edge 20, Type (0, 0), BuildingBlock: MIFKUJ_clean_linker_0, # of connection points: 2
#     Edge 21, Type (0, 0), BuildingBlock: MIFKUJ_clean_linker_0, # of connection points: 2
#     Edge 22, Type (0, 0), BuildingBlock: MIFKUJ_clean_linker_0, # of connection points: 2
#     Edge 23, Type (0, 0), BuildingBlock: MIFKUJ_clean_linker_0, # of connection points: 2
#     Edge 24, Type (0, 0), BuildingBlock: MIFKUJ_clean_linker_0, # of connection points: 2
#     Edge 25, Type (0, 0), BuildingBlock: MIFKUJ_clean_linker_0, # of connection points: 2
#     Edge 26, Type (0, 0), BuildingBlock: MIFKUJ_clean_linker_0, # of connection points: 2
#     Edge 27, Type (0, 0), BuildingBlock: MIFKUJ_clean_linker_0, # of connection points: 2
#     Edge 28, Type (0, 0), BuildingBlock: MIFKUJ_clean_linker_0, # of connection points: 2
#     Edge 29, Type (0, 0), BuildingBlock: MIFKUJ_clean_linker_0, # of connection points: 2
#     Edge 30, Type (0, 0), BuildingBlock: MIFKUJ_clean_linker_0, # of connection points: 2
#     Edge 31, Type (0, 0), BuildingBlock: MIFKUJ_clean_linker_0, # of connection points: 2
#     Edge 32, Type (0, 0), BuildingBlock: MIFKUJ_clean_linker_0, # of connection points: 2
#     Edge 33, Type (0, 0), BuildingBlock: MIFKUJ_clean_linker_0, # of connection points: 2
#     Edge 34, Type (0, 0), BuildingBlock: MIFKUJ_clean_linker_0, # of connection points: 2
#     Edge 35, Type (0, 0), BuildingBlock: MIFKUJ_clean_linker_0, # of connection points: 2
#     Edge 36, Type (0, 0), BuildingBlock: MIFKUJ_clean_linker_0, # of connection points: 2
#     Edge 37, Type (0, 0), BuildingBlock: MIFKUJ_clean_linker_0, # of connection points: 2
#     Edge 38, Type (0, 0), BuildingBlock: MIFKUJ_clean_linker_0, # of connection points: 2
#     Edge 39, Type (0, 0), BuildingBlock: MIFKUJ_clean_linker_0, # of connection points: 2
#     Edge 40, Type (0, 0), BuildingBlock: MIFKUJ_clean_linker_0, # of connection points: 2
#     Edge 41, Type (0, 0), BuildingBlock: MIFKUJ_clean_linker_0, # of connection points: 2
#     Edge 42, Type (0, 0), BuildingBlock: MIFKUJ_clean_linker_0, # of connection points: 2
#     Edge 43, Type (0, 0), BuildingBlock: MIFKUJ_clean_linker_0, # of connection points: 2
#     Edge 44, Type (0, 0), BuildingBlock: MIFKUJ_clean_linker_0, # of connection points: 2
#     Edge 45, Type (0, 0), BuildingBlock: MIFKUJ_clean_linker_0, # of connection points: 2
#     Edge 46, Type (0, 0), BuildingBlock: MIFKUJ_clean_linker_0, # of connection points: 2
#     Edge 47, Type (0, 0), BuildingBlock: MIFKUJ_clean_linker_0, # of connection points: 2
# Relax obj value: 0.049
# Max RMSD: 0.120
# Mean RMSD: 0.120
data_MOF--net-ume--node1-QUQFOY_clean_sbu_1--edge1-MIFKUJ_clean_linker_0
_symmetry_space_group_name_H-M    P1
_symmetry_Int_Tables_number       1
_symmetry_cell_setting            triclinic
loop_
_symmetry_equiv_pos_as_xyz
'x, y, z'
_cell_length_a     37.215117
_cell_length_b     37.246822
_cell_length_c     148.72706
_cell_angle_alpha  89.867034
_cell_angle_beta   89.943608
_cell_angle_gamma 90.025241
loop_
_atom_site_label
_atom_site_type_symbol
_atom_site_fract_x
_atom_site_fract_y
_atom_site_fract_z
_atom_type_partial_charge
O0 O 0.25145 0.08619 0.33076 0.0
Cd1 Cd 0.25111 0.06781 0.31769 0.0
Cd2 Cd 0.27662 0.13364 0.31514 0.0
O3 O 0.25868 0.14402 0.32814 0.0
O4 O 0.21594 0.02699 0.31766 0.0
O5 O 0.20701 0.07765 0.31024 0.0
C6 C 0.19509 0.04667 0.31278 0.0
C7 C 0.26248 0.16514 0.30204 0.0
C8 C 0.25289 0.11832 0.33362 0.0
C9 C 0.32775 0.07202 0.3125 0.0
O10 O 0.32396 0.10535 0.31407 0.0
O11 O 0.30052 0.05128 0.31265 0.0
O12 O 0.28403 0.17855 0.30795 0.0
O13 O 0.24667 0.13518 0.30396 0.0
O14 O 0.922 0.75193 0.58082 0.0
Cd15 Cd 0.94065 0.75111 0.56776 0.0
Cd16 Cd 0.87487 0.7762 0.56498 0.0
O17 O 0.86428 0.75918 0.57806 0.0
O18 O 0.98114 0.71565 0.56781 0.0
O19 O 0.93048 0.70691 0.56038 0.0
C20 C 0.96134 0.69482 0.56297 0.0
C21 C 0.84094 0.76252 0.55224 0.0
C22 C 0.88972 0.75354 0.5836 0.0
C23 C 0.93683 0.82729 0.5622 0.0
O24 O 0.90335 0.82344 0.56363 0.0
O25 O 0.95767 0.80021 0.56261 0.0
O26 O 0.82917 0.78456 0.55825 0.0
O27 O 0.87085 0.74609 0.55384 0.0
O28 O 0.26171 0.42248 0.83116 0.0
Cd29 Cd 0.26311 0.43944 0.81794 0.0
Cd30 Cd 0.23678 0.37413 0.81563 0.0
O31 O 0.25428 0.3646 0.82869 0.0
O32 O 0.2988 0.47975 0.81733 0.0
O33 O 0.30766 0.42699 0.81092 0.0
C34 C 0.31971 0.45852 0.81291 0.0
C35 C 0.24917 0.33979 0.80291 0.0
C36 C 0.25998 0.39041 0.8341 0.0
C37 C 0.18673 0.43588 0.81245 0.0
O38 O 0.18978 0.40273 0.81433 0.0
O39 O 0.21437 0.45606 0.8125 0.0
O40 O 0.22755 0.3283 0.80908 0.0
O41 O 0.26617 0.36948 0.80437 0.0
O42 O 0.58983 0.75964 0.08075 0.0
Cd43 Cd 0.57288 0.75919 0.06753 0.0
Cd44 Cd 0.63856 0.73324 0.06538 0.0
O45 O 0.6478 0.75213 0.07832 0.0
O46 O 0.53204 0.79426 0.06668 0.0
O47 O 0.58492 0.8033 0.06027 0.0
C48 C 0.5532 0.81511 0.06218 0.0
C49 C 0.67165 0.74601 0.05241 0.0
C50 C 0.62191 0.75845 0.0837 0.0
C51 C 0.57745 0.68209 0.06263 0.0
O52 O 0.61058 0.68574 0.06447 0.0
O53 O 0.557 0.70952 0.06245 0.0
O54 O 0.68424 0.72503 0.05857 0.0
O55 O 0.64152 0.76205 0.05398 0.0
O56 O 0.24292 0.41798 0.93302 0.0
Cd57 Cd 0.24252 0.43637 0.9461 0.0
Cd58 Cd 0.27042 0.37126 0.94877 0.0
O59 O 0.25439 0.36082 0.93568 0.0
O60 O 0.20631 0.47627 0.94656 0.0
O61 O 0.1988 0.42422 0.95349 0.0
C62 C 0.1861 0.45529 0.95129 0.0
C63 C 0.2569 0.33764 0.96159 0.0
C64 C 0.24667 0.38597 0.93019 0.0
C65 C 0.31945 0.43442 0.95147 0.0
O66 O 0.31671 0.40086 0.95012 0.0
O67 O 0.29167 0.45435 0.95106 0.0
O68 O 0.27954 0.32605 0.95569 0.0
O69 O 0.23977 0.36698 0.95982 0.0
O70 O 0.58841 0.74908 0.18262 0.0
Cd71 Cd 0.57024 0.74797 0.19572 0.0
Cd72 Cd 0.63548 0.77506 0.19855 0.0
O73 O 0.6457 0.75963 0.18535 0.0
O74 O 0.5302 0.71191 0.19624 0.0
O75 O 0.58256 0.70392 0.20297 0.0
C76 C 0.55128 0.69148 0.20086 0.0
C77 C 0.67024 0.7616 0.21118 0.0
C78 C 0.62054 0.75265 0.17982 0.0
C79 C 0.57263 0.82444 0.20139 0.0
O80 O 0.60627 0.82153 0.20013 0.0
O81 O 0.55244 0.79692 0.20078 0.0
O82 O 0.68128 0.78416 0.20518 0.0
O83 O 0.64073 0.74442 0.20961 0.0
O84 O 0.25807 0.08798 0.43259 0.0
Cd85 Cd 0.25792 0.0693 0.44568 0.0
Cd86 Cd 0.23101 0.13475 0.44827 0.0
O87 O 0.24807 0.14538 0.43523 0.0
O88 O 0.29378 0.02903 0.44621 0.0
O89 O 0.30167 0.08101 0.45307 0.0
C90 C 0.31414 0.04984 0.45091 0.0
C91 C 0.24421 0.16742 0.46123 0.0
C92 C 0.2553 0.12013 0.42975 0.0
C93 C 0.18085 0.07232 0.45086 0.0
O94 O 0.18422 0.10578 0.44939 0.0
O95 O 0.20838 0.05199 0.45065 0.0
O96 O 0.22215 0.17972 0.45527 0.0
O97 O 0.26101 0.13793 0.45944 0.0
O98 O 0.91717 0.76278 0.68229 0.0
Cd99 Cd 0.93789 0.76236 0.69516 0.0
Cd100 Cd 0.87278 0.7344 0.69825 0.0
O101 O 0.86052 0.74969 0.68516 0.0
O102 O 0.9783 0.79791 0.69471 0.0
O103 O 0.92966 0.80578 0.703 0.0
C104 C 0.95985 0.81816 0.70002 0.0
C105 C 0.84039 0.74852 0.71121 0.0
C106 C 0.88506 0.75831 0.67959 0.0
C107 C 0.93669 0.68541 0.70052 0.0
O108 O 0.90286 0.68837 0.6996 0.0
O109 O 0.95679 0.71297 0.69974 0.0
O110 O 0.82838 0.72542 0.70549 0.0
O111 O 0.86948 0.76573 0.70918 0.0
O112 O 0.75029 0.5886 0.8308 0.0
Cd113 Cd 0.75026 0.5703 0.81771 0.0
Cd114 Cd 0.77678 0.63588 0.81492 0.0
O115 O 0.7601 0.64597 0.82801 0.0
O116 O 0.71415 0.53036 0.81717 0.0
O117 O 0.70656 0.58275 0.8104 0.0
C118 C 0.69388 0.55157 0.81253 0.0
C119 C 0.76338 0.6704 0.80223 0.0
C120 C 0.75291 0.62083 0.83355 0.0
C121 C 0.82678 0.57352 0.81205 0.0
O122 O 0.82355 0.60701 0.81345 0.0
O123 O 0.79938 0.5531 0.81257 0.0
O124 O 0.78563 0.68172 0.80825 0.0
O125 O 0.74654 0.64068 0.8038 0.0
O126 O 0.42068 0.24384 0.08104 0.0
Cd127 Cd 0.44094 0.24457 0.0681 0.0
Cd128 Cd 0.37582 0.27204 0.06473 0.0
O129 O 0.36425 0.25689 0.07785 0.0
O130 O 0.48037 0.20787 0.06762 0.0
O131 O 0.42874 0.20187 0.06042 0.0
C132 C 0.45945 0.18848 0.06269 0.0
C133 C 0.34091 0.25904 0.0521 0.0
C134 C 0.38827 0.24823 0.08355 0.0
C135 C 0.43925 0.32136 0.06238 0.0
O136 O 0.40542 0.31823 0.06323 0.0
O137 O 0.45945 0.29399 0.06333 0.0
O138 O 0.33028 0.28185 0.05806 0.0
O139 O 0.3702 0.24153 0.05369 0.0
O140 O 0.76372 0.91468 0.33096 0.0
Cd141 Cd 0.76421 0.93407 0.31795 0.0
Cd142 Cd 0.73642 0.86916 0.31521 0.0
O143 O 0.7531 0.85751 0.32823 0.0
O144 O 0.79925 0.97494 0.31813 0.0
O145 O 0.80859 0.92504 0.31048 0.0
C146 C 0.82026 0.95588 0.31315 0.0
C147 C 0.7502 0.83728 0.30217 0.0
C148 C 0.76048 0.88253 0.33376 0.0
C149 C 0.68738 0.93244 0.31265 0.0
O150 O 0.69001 0.89886 0.31404 0.0
O151 O 0.71524 0.95227 0.313 0.0
O152 O 0.72769 0.82475 0.30801 0.0
O153 O 0.76708 0.86658 0.30413 0.0
O154 O 0.09397 0.26284 0.58187 0.0
Cd155 Cd 0.0734 0.26388 0.56896 0.0
Cd156 Cd 0.13798 0.23685 0.56565 0.0
O157 O 0.15092 0.25318 0.57859 0.0
O158 O 0.03286 0.29925 0.5693 0.0
O159 O 0.08252 0.30817 0.56145 0.0
C160 C 0.05186 0.32007 0.56423 0.0
C161 C 0.1703 0.24908 0.55255 0.0
C162 C 0.12654 0.25986 0.58436 0.0
C163 C 0.07483 0.1874 0.56348 0.0
O164 O 0.10851 0.19028 0.56467 0.0
O165 O 0.05484 0.21507 0.56399 0.0
O166 O 0.18239 0.22704 0.55854 0.0
O167 O 0.14118 0.26652 0.55438 0.0
O168 O 0.74541 0.91536 0.43232 0.0
Cd169 Cd 0.74411 0.93441 0.44536 0.0
Cd170 Cd 0.77174 0.86953 0.44834 0.0
O171 O 0.75597 0.85823 0.43524 0.0
O172 O 0.70815 0.97458 0.44559 0.0
O173 O 0.69982 0.92289 0.45262 0.0
C174 C 0.68754 0.95402 0.45032 0.0
C175 C 0.75821 0.83663 0.46128 0.0
C176 C 0.74897 0.88315 0.42963 0.0
C177 C 0.82076 0.93276 0.45094 0.0
O178 O 0.81808 0.89916 0.44965 0.0
O179 O 0.79297 0.95263 0.45045 0.0
O180 O 0.78089 0.82475 0.45542 0.0
O181 O 0.74097 0.8658 0.45939 0.0
O182 O 0.09684 0.24684 0.68256 0.0
Cd183 Cd 0.07543 0.24828 0.69537 0.0
Cd184 Cd 0.14047 0.27559 0.69837 0.0
O185 O 0.15376 0.25774 0.68558 0.0
O186 O 0.03434 0.21359 0.69476 0.0
O187 O 0.08192 0.2048 0.70336 0.0
C188 C 0.05184 0.19301 0.7002 0.0
C189 C 0.17059 0.26247 0.71172 0.0
C190 C 0.1293 0.24966 0.67996 0.0
C191 C 0.07747 0.32573 0.70003 0.0
O192 O 0.11118 0.32238 0.69894 0.0
O193 O 0.05721 0.29815 0.69977 0.0
O194 O 0.18406 0.28439 0.70588 0.0
O195 O 0.14125 0.24587 0.70963 0.0
O196 O 0.7547 0.58764 0.93227 0.0
Cd197 Cd 0.75616 0.5695 0.9454 0.0
Cd198 Cd 0.73102 0.63525 0.94812 0.0
O199 O 0.74782 0.64543 0.93501 0.0
O200 O 0.79172 0.52896 0.9459 0.0
O201 O 0.80064 0.58139 0.95248 0.0
C202 C 0.81259 0.5499 0.95042 0.0
C203 C 0.74546 0.66754 0.96108 0.0
C204 C 0.75297 0.61991 0.92946 0.0
C205 C 0.6798 0.57383 0.95092 0.0
O206 O 0.68363 0.60717 0.94935 0.0
O207 O 0.707 0.55309 0.95071 0.0
O208 O 0.72342 0.68037 0.95519 0.0
O209 O 0.76152 0.63772 0.95922 0.0
O210 O 0.41745 0.26538 0.18174 0.0
Cd211 Cd 0.43782 0.26287 0.19467 0.0
Cd212 Cd 0.37279 0.23556 0.19764 0.0
O213 O 0.36059 0.25381 0.18485 0.0
O214 O 0.47797 0.29879 0.19526 0.0
O215 O 0.42666 0.30518 0.2026 0.0
C216 C 0.45754 0.3182 0.20032 0.0
C217 C 0.33996 0.24606 0.21076 0.0
C218 C 0.3849 0.26245 0.17921 0.0
C219 C 0.43527 0.18513 0.19927 0.0
O220 O 0.40165 0.18871 0.19813 0.0
O221 O 0.45565 0.21264 0.19912 0.0
O222 O 0.32811 0.22477 0.2046 0.0
O223 O 0.3692 0.26364 0.20913 0.0
H224 H 0.85239 0.01854 0.31829 0.0
H225 H 0.9154 0.03561 0.31659 0.0
H226 H 0.93619 0.93724 0.30226 0.0
H227 H 0.87296 0.92012 0.30385 0.0
H228 H 0.97239 1.00326 0.32335 0.0
H229 H 0.00717 0.95064 0.28774 0.0
H230 H 0.97772 0.94239 0.27303 0.0
H231 H 0.90301 0.02661 0.27923 0.0
H232 H 0.93229 0.03569 0.29392 0.0
H233 H 0.15997 0.98724 0.31908 0.0
H234 H 0.09619 0.97282 0.31759 0.0
H235 H 0.08101 0.06621 0.30085 0.0
H236 H 0.14494 0.08096 0.30231 0.0
H237 H 0.04161 0.00674 0.29483 0.0
H238 H 0.06008 0.07311 0.32197 0.0
H239 H 0.08828 0.08699 0.33656 0.0
H240 H 0.05365 0.9852 0.34705 0.0
H241 H 0.02568 0.97046 0.33247 0.0
C242 C 0.87019 1.00072 0.31466 0.0
C243 C 0.85756 0.96792 0.31122 0.0
C244 C 0.90631 0.01047 0.31372 0.0
C245 C 0.93065 0.98778 0.30929 0.0
C246 C 0.91792 0.95543 0.30562 0.0
C247 C 0.88173 0.94564 0.30655 0.0
C248 C 0.96959 0.9971 0.30897 0.0
C249 C 0.98743 1.00396 0.3171 0.0
C250 C 0.98932 0.99856 0.30082 0.0
C251 C 0.97172 0.99356 0.29197 0.0
C252 C 0.98454 0.96747 0.28595 0.0
C253 C 0.96786 0.96264 0.27762 0.0
C254 C 0.93844 0.98388 0.27521 0.0
C255 C 0.9257 0.01007 0.28112 0.0
C256 C 0.9423 0.01503 0.28945 0.0
C257 C 0.14325 0.00446 0.31496 0.0
C258 C 0.15758 0.03541 0.31086 0.0
C259 C 0.10673 0.99622 0.31414 0.0
C260 C 0.08373 0.01865 0.30919 0.0
C261 C 0.09825 0.04854 0.3047 0.0
C262 C 0.1348 0.05697 0.30557 0.0
C263 C 0.04427 0.01217 0.30922 0.0
C264 C 0.02644 0.00586 0.30106 0.0
C265 C 0.02432 0.01182 0.31733 0.0
C266 C 0.0411 0.02055 0.3261 0.0
C267 C 0.05875 0.05355 0.32736 0.0
C268 C 0.07464 0.0616 0.33563 0.0
C269 C 0.07281 0.03696 0.34271 0.0
C270 C 0.05507 0.00423 0.34155 0.0
C271 C 0.03917 0.99603 0.33329 0.0
H272 H 0.08503 0.0433 0.34911 0.0
H273 H 0.92556 0.98008 0.26876 0.0
H274 H 0.92685 0.64442 0.55264 0.0
H275 H 0.94134 0.5804 0.55134 0.0
H276 H 0.03457 0.59581 0.56808 0.0
H277 H 0.02044 0.65963 0.56939 0.0
H278 H 1.00121 0.5407 0.54544 0.0
H279 H 0.03607 0.52599 0.58317 0.0
H280 H 0.02072 0.55435 0.59766 0.0
H281 H 0.91924 0.58848 0.58692 0.0
H282 H 0.93374 0.55989 0.57243 0.0
H283 H 0.0878 0.37262 0.55487 0.0
H284 H 0.07063 0.43573 0.55315 0.0
H285 H 0.97202 0.41516 0.56752 0.0
H286 H 0.98915 0.35229 0.56936 0.0
H287 H 1.00375 0.47244 0.57413 0.0
H288 H 0.9726 0.43132 0.54473 0.0
H289 H 0.98238 0.40166 0.53012 0.0
H290 H 0.06667 0.47648 0.5239 0.0
H291 H 0.05772 0.50631 0.53853 0.0
C292 C 0.95075 0.6343 0.55593 0.0
C293 C 0.97237 0.65717 0.56116 0.0
C294 C 0.95903 0.5977 0.55516 0.0
C295 C 0.98881 0.58324 0.5597 0.0
C296 C 0.01126 0.60631 0.56459 0.0
C297 C 1.00318 0.64286 0.56531 0.0
C298 C 0.9952 0.54379 0.55981 0.0
C299 C 1.00187 0.52574 0.55171 0.0
C300 C 0.99528 0.5241 0.56797 0.0
C301 C 0.98619 0.54112 0.57669 0.0
C302 C 0.01044 0.53945 0.58392 0.0
C303 C 1.00189 0.55557 0.59213 0.0
C304 C 0.96907 0.57328 0.5932 0.0
C305 C 0.9447 0.57486 0.58607 0.0
C306 C 0.9531 0.55875 0.57786 0.0
C307 C 0.06222 0.38142 0.55755 0.0
C308 C 0.03989 0.35735 0.56227 0.0
C309 C 0.05239 0.41754 0.55655 0.0
C310 C 0.01994 0.43031 0.56019 0.0
C311 C 0.99723 0.40606 0.56468 0.0
C312 C 0.00702 0.37002 0.56569 0.0
C313 C 0.0105 0.4692 0.55976 0.0
C314 C 1.00325 0.48726 0.56784 0.0
C315 C 0.00929 0.48866 0.55156 0.0
C316 C 0.01471 0.47083 0.54276 0.0
C317 C 0.99341 0.44128 0.54027 0.0
C318 C 0.99877 0.42447 0.53199 0.0
C319 C 0.02519 0.43712 0.5261 0.0
C320 C 0.04624 0.46668 0.52847 0.0
C321 C 0.04102 0.48357 0.53676 0.0
H322 H 0.02929 0.42408 0.51968 0.0
H323 H 0.96246 0.58567 0.59956 0.0
H324 H 0.63869 0.59615 0.80781 0.0
H325 H 0.57494 0.58074 0.80637 0.0
H326 H 0.59982 0.46933 0.81118 0.0
H327 H 0.66358 0.4846 0.81283 0.0
H328 H 0.54737 0.48442 0.79656 0.0
H329 H 0.57149 0.50988 0.82789 0.0
H330 H 0.59424 0.54689 0.84039 0.0
H331 H 0.52225 0.63197 0.83296 0.0
H332 H 0.49944 0.59563 0.82033 0.0
H333 H 0.376 0.41479 0.80853 0.0
H334 H 0.43921 0.43132 0.80698 0.0
H335 H 0.41172 0.54275 0.81094 0.0
H336 H 0.34866 0.52602 0.81293 0.0
H337 H 0.46629 0.52935 0.82052 0.0
H338 H 0.4394 0.50512 0.78973 0.0
H339 H 0.41673 0.47042 0.77682 0.0
H340 H 0.49295 0.38676 0.78237 0.0
H341 H 0.51578 0.42074 0.79538 0.0
C342 C 0.63071 0.56828 0.80842 0.0
C343 C 0.6562 0.54159 0.81046 0.0
C344 C 0.59425 0.55956 0.80763 0.0
C345 C 0.58267 0.52393 0.80871 0.0
C346 C 0.60823 0.49697 0.8103 0.0
C347 C 0.64462 0.50576 0.81126 0.0
C348 C 0.54373 0.51517 0.80874 0.0
C349 C 0.52958 0.49391 0.80183 0.0
C350 C 0.52049 0.52839 0.81549 0.0
C351 C 0.53407 0.5502 0.82311 0.0
C352 C 0.56076 0.53662 0.82887 0.0
C353 C 0.57362 0.55744 0.83599 0.0
C354 C 0.55979 0.5918 0.83745 0.0
C355 C 0.53299 0.60537 0.83181 0.0
C356 C 0.52007 0.58466 0.82468 0.0
C357 C 0.38335 0.44288 0.80894 0.0
C358 C 0.35727 0.4691 0.81083 0.0
C359 C 0.41959 0.45238 0.80801 0.0
C360 C 0.43049 0.48844 0.80873 0.0
C361 C 0.40422 0.51475 0.81038 0.0
C362 C 0.36808 0.50518 0.81147 0.0
C363 C 0.46937 0.49848 0.80828 0.0
C364 C 0.48371 0.51997 0.81517 0.0
C365 C 0.49266 0.48582 0.80143 0.0
C366 C 0.47908 0.46535 0.79358 0.0
C367 C 0.45116 0.47921 0.78824 0.0
C368 C 0.43831 0.45968 0.78089 0.0
C369 C 0.45333 0.42637 0.77879 0.0
C370 C 0.48131 0.41255 0.78401 0.0
C371 C 0.49425 0.43195 0.79137 0.0
H372 H 0.44333 0.41129 0.7731 0.0
H373 H 0.56977 0.60788 0.84297 0.0
H374 H 0.52598 0.15721 0.06324 0.0
H375 H 0.54066 0.09362 0.06114 0.0
H376 H 0.42951 0.07086 0.05535 0.0
H377 H 0.41472 0.13453 0.05724 0.0
H378 H 0.46276 0.0274 0.06946 0.0
H379 H 0.48293 0.0654 0.03885 0.0
H380 H 0.50986 0.10329 0.02702 0.0
H381 H 0.61543 0.07049 0.03526 0.0
H382 H 0.58914 0.03278 0.04724 0.0
H383 H 0.48526 0.84291 0.06134 0.0
H384 H 0.46809 0.90584 0.05946 0.0
H385 H 0.57986 0.9352 0.05691 0.0
H386 H 0.59692 0.87205 0.0583 0.0
H387 H 0.54451 0.97606 0.04647 0.0
H388 H 0.52933 0.9433 0.07734 0.0
H389 H 0.50694 0.9079 0.09021 0.0
H390 H 0.39824 0.93362 0.083 0.0
H391 H 0.41999 0.96881 0.07001 0.0
C392 C 0.50476 0.13878 0.06137 0.0
C393 C 0.46918 0.15094 0.0604 0.0
C394 C 0.51321 0.10246 0.06017 0.0
C395 C 0.48617 0.07753 0.0581 0.0
C396 C 0.45077 0.08968 0.05694 0.0
C397 C 0.44241 0.1261 0.05798 0.0
C398 C 0.49449 0.03852 0.05768 0.0
C399 C 0.48012 0.01598 0.06434 0.0
C400 C 0.51823 0.02399 0.05122 0.0
C401 C 0.53407 0.04653 0.044 0.0
C402 C 0.5119 0.06651 0.03819 0.0
C403 C 0.52704 0.0879 0.03145 0.0
C404 C 0.56433 0.08936 0.0304 0.0
C405 C 0.58655 0.06936 0.03608 0.0
C406 C 0.57154 0.04794 0.04285 0.0
C407 C 0.50612 0.86274 0.06025 0.0
C408 C 0.54246 0.85251 0.06002 0.0
C409 C 0.49631 0.89882 0.05925 0.0
C410 C 0.52268 0.92566 0.05829 0.0
C411 C 0.55891 0.91522 0.05768 0.0
C412 C 0.56867 0.87903 0.05848 0.0
C413 C 0.51271 0.96456 0.05827 0.0
C414 C 0.52689 0.98723 0.05156 0.0
C415 C 0.48946 0.97948 0.06484 0.0
C416 C 0.47628 0.95835 0.07265 0.0
C417 C 0.50065 0.94119 0.07846 0.0
C418 C 0.48807 0.9212 0.08578 0.0
C419 C 0.45118 0.91843 0.08741 0.0
C420 C 0.4268 0.93573 0.08173 0.0
C421 C 0.43923 0.95572 0.07438 0.0
H422 H 0.4415 0.90294 0.09308 0.0
H423 H 0.57601 0.10594 0.02517 0.0
H424 H 0.13117 0.41117 0.95653 0.0
H425 H 0.06747 0.42662 0.95808 0.0
H426 H 0.09197 0.53747 0.95239 0.0
H427 H 0.15567 0.52215 0.95064 0.0
H428 H 0.03976 0.5244 0.96714 0.0
H429 H 0.06357 0.49368 0.93601 0.0
H430 H 0.08621 0.45424 0.92398 0.0
H431 H 0.01407 0.37078 0.93249 0.0
H432 H 0.9914 0.40958 0.94467 0.0
H433 H 0.8692 0.59342 0.95462 0.0
H434 H 0.93214 0.57646 0.95639 0.0
H435 H 0.90363 0.46493 0.95304 0.0
H436 H 0.84084 0.48211 0.95078 0.0
H437 H 0.95856 0.47615 0.94364 0.0
H438 H 0.93143 0.50508 0.97412 0.0
H439 H 0.90888 0.54158 0.98673 0.0
H440 H 0.9859 0.6239 0.98056 0.0
H441 H 0.00862 0.58811 0.96784 0.0
C442 C 0.12312 0.43894 0.95575 0.0
C443 C 0.14848 0.46542 0.95343 0.0
C444 C 0.08669 0.4477 0.95662 0.0
C445 C 0.07499 0.48316 0.95531 0.0
C446 C 0.10046 0.50996 0.95344 0.0
C447 C 0.13682 0.50114 0.95242 0.0
C448 C 0.03601 0.49182 0.95526 0.0
C449 C 0.02193 0.51417 0.96197 0.0
C450 C 0.01268 0.47759 0.94867 0.0
C451 C 0.0261 0.45437 0.94131 0.0
C452 C 0.05278 0.4668 0.93537 0.0
C453 C 0.06557 0.44459 0.92851 0.0
C454 C 0.05166 0.40999 0.92748 0.0
C455 C 0.02486 0.39757 0.9333 0.0
C456 C 0.01202 0.41966 0.94018 0.0
C457 C 0.87627 0.56523 0.95439 0.0
C458 C 0.84999 0.5391 0.95258 0.0
C459 C 0.91236 0.55548 0.95545 0.0
C460 C 0.92292 0.51926 0.95498 0.0
C461 C 0.89642 0.49306 0.95342 0.0
C462 C 0.86044 0.50288 0.95217 0.0
C463 C 0.9617 0.50891 0.95557 0.0
C464 C 0.97597 0.48626 0.94891 0.0
C465 C 0.98503 0.52244 0.96231 0.0
C466 C 0.97152 0.54403 0.96997 0.0
C467 C 0.9434 0.53108 0.97542 0.0
C468 C 0.93061 0.55162 0.98259 0.0
C469 C 0.94589 0.58507 0.98444 0.0
C470 C 0.97407 0.598 0.97912 0.0
C471 C 0.98694 0.57758 0.97193 0.0
H472 H 0.93595 0.60094 0.98999 0.0
H473 H 0.06159 0.39283 0.92217 0.0
H474 H 0.41397 0.37233 0.20623 0.0
H475 H 0.4296 0.43578 0.20811 0.0
H476 H 0.53996 0.41213 0.20163 0.0
H477 H 0.52444 0.3487 0.19954 0.0
H478 H 0.52801 0.46294 0.21679 0.0
H479 H 0.49495 0.44191 0.18567 0.0
H480 H 0.45455 0.42026 0.17372 0.0
H481 H 0.37155 0.49119 0.18299 0.0
H482 H 0.41131 0.51286 0.1951 0.0
H483 H 0.59545 0.63507 0.20483 0.0
H484 H 0.57898 0.57193 0.20644 0.0
H485 H 0.46699 0.59984 0.20355 0.0
H486 H 0.48367 0.6628 0.20143 0.0
H487 H 0.47782 0.546 0.19391 0.0
H488 H 0.50882 0.57038 0.2244 0.0
H489 H 0.54615 0.59189 0.23697 0.0
H490 H 0.62838 0.51595 0.23007 0.0
H491 H 0.59175 0.49429 0.21738 0.0
C492 C 0.44169 0.38048 0.20535 0.0
C493 C 0.46795 0.35546 0.20271 0.0
C494 C 0.45054 0.41678 0.20641 0.0
C495 C 0.4859 0.42867 0.20497 0.0
C496 C 0.51254 0.40349 0.20278 0.0
C497 C 0.50359 0.36728 0.20158 0.0
C498 C 0.49452 0.46765 0.20508 0.0
C499 C 0.51735 0.48118 0.21176 0.0
C500 C 0.47975 0.4915 0.19866 0.0
C501 C 0.45595 0.47869 0.19135 0.0
C502 C 0.46797 0.45265 0.18521 0.0
C503 C 0.44522 0.44042 0.1784 0.0
C504 C 0.41047 0.45426 0.17761 0.0
C505 C 0.39845 0.48044 0.18362 0.0
C506 C 0.42109 0.49272 0.19045 0.0
C507 C 0.56727 0.62781 0.20468 0.0
C508 C 0.54086 0.65397 0.20302 0.0
C509 C 0.5578 0.5916 0.20564 0.0
C510 C 0.52158 0.5808 0.20525 0.0
C511 C 0.49512 0.60721 0.20387 0.0
C512 C 0.50465 0.6433 0.2027 0.0
C513 C 0.51147 0.54193 0.20568 0.0
C514 C 0.48837 0.52817 0.19904 0.0
C515 C 0.52556 0.51805 0.21224 0.0
C516 C 0.54765 0.53093 0.21988 0.0
C517 C 0.53497 0.55844 0.22552 0.0
C518 C 0.55599 0.57063 0.23268 0.0
C519 C 0.58965 0.55536 0.23431 0.0
C520 C 0.60232 0.52778 0.2288 0.0
C521 C 0.58142 0.5155 0.22163 0.0
H522 H 0.60588 0.56484 0.23985 0.0
H523 H 0.39289 0.44476 0.17234 0.0
H524 H 0.36952 0.09369 0.4559 0.0
H525 H 0.4331 0.07776 0.45744 0.0
H526 H 0.40758 0.96686 0.45225 0.0
H527 H 0.34399 0.98267 0.4505 0.0
H528 H 0.46033 0.98116 0.46705 0.0
H529 H 0.43608 0.00816 0.43568 0.0
H530 H 0.41334 0.04629 0.42337 0.0
H531 H 0.48586 0.13045 0.43107 0.0
H532 H 0.50864 0.09298 0.44353 0.0
H533 H 0.63116 0.91076 0.455 0.0
H534 H 0.56813 0.92768 0.45668 0.0
H535 H 0.59616 0.03883 0.45228 0.0
H536 H 0.65898 0.02165 0.45013 0.0
H537 H 0.54129 0.02623 0.44302 0.0
H538 H 0.56865 1.00139 0.47372 0.0
H539 H 0.59131 0.96666 0.48666 0.0
H540 H 0.51436 0.88346 0.48135 0.0
H541 H 0.49153 0.91747 0.4683 0.0
C542 C 0.37731 0.06581 0.45523 0.0
C543 C 0.35169 0.03945 0.45305 0.0
C544 C 0.41367 0.05679 0.45609 0.0
C545 C 0.42505 0.02116 0.45492 0.0
C546 C 0.39934 0.99449 0.45319 0.0
C547 C 0.36304 1.00359 0.45217 0.0
C548 C 0.46397 0.0122 0.45488 0.0
C549 C 0.4781 0.99067 0.46177 0.0
C550 C 0.48723 0.02553 0.44813 0.0
C551 C 0.47376 0.04794 0.4406 0.0
C552 C 0.44694 0.03492 0.4348 0.0
C553 C 0.43409 0.05639 0.42779 0.0
C554 C 0.44806 0.09082 0.42645 0.0
C555 C 0.47501 0.10381 0.43212 0.0
C556 C 0.48791 0.08246 0.43916 0.0
C557 C 0.62396 0.93887 0.45452 0.0
C558 C 0.6501 0.96486 0.45244 0.0
C559 C 0.58781 0.9486 0.45552 0.0
C560 C 0.57709 0.9847 0.45473 0.0
C561 C 0.60348 0.01079 0.45291 0.0
C562 C 0.63949 1.00097 0.45172 0.0
C563 C 0.53827 0.99501 0.45524 0.0
C564 C 0.52393 0.01679 0.44839 0.0
C565 C 0.515 0.98238 0.46213 0.0
C566 C 0.5286 0.96185 0.46998 0.0
C567 C 0.55673 0.97557 0.47527 0.0
C568 C 0.56958 0.95603 0.48263 0.0
C569 C 0.55435 0.92284 0.48481 0.0
C570 C 0.52616 0.90915 0.47965 0.0
C571 C 0.51323 0.92857 0.47227 0.0
H572 H 0.56433 0.90775 0.49051 0.0
H573 H 0.43808 0.10739 0.42102 0.0
H574 H 0.07353 0.14715 0.71363 0.0
H575 H 0.0566 0.08405 0.71565 0.0
H576 H 0.98708 0.09125 0.69249 0.0
H577 H 1.00235 0.1545 0.69079 0.0
H578 H 0.95623 0.05083 0.7035 0.0
H579 H 0.07715 0.05452 0.69217 0.0
H580 H 0.14127 0.07138 0.69211 0.0
H581 H 0.15615 0.01794 0.71745 0.0
H582 H 0.09199 1.00112 0.7177 0.0
H583 H 0.01414 0.85566 0.69199 0.0
H584 H 0.02891 0.919 0.69376 0.0
H585 H 0.94778 0.92867 0.71436 0.0
H586 H 0.93181 0.8654 0.71233 0.0
H587 H 0.0537 0.96051 0.70575 0.0
H588 H 0.91046 0.01152 0.71396 0.0
H589 H 0.8473 0.99457 0.7112 0.0
H590 H 0.8787 0.93826 0.68729 0.0
H591 H 0.94192 0.95525 0.68985 0.0
C592 C 0.05425 0.13534 0.70906 0.0
C593 C 0.03937 0.15584 0.70204 0.0
C594 C 0.04478 0.09914 0.71017 0.0
C595 C 0.02109 0.08237 0.70411 0.0
C596 C 0.00538 0.10328 0.69728 0.0
C597 C 0.0142 0.13957 0.6963 0.0
C598 C 0.01344 0.04296 0.7046 0.0
C599 C 0.97762 0.03116 0.70404 0.0
C600 C 0.04117 0.01693 0.70515 0.0
C601 C 0.07972 0.02693 0.705 0.0
C602 C 0.09406 0.04658 0.69775 0.0
C603 C 0.13041 0.0561 0.69768 0.0
C604 C 0.15274 0.04583 0.70478 0.0
C605 C 0.1388 0.02593 0.71196 0.0
C606 C 0.10246 0.01639 0.71207 0.0
C607 C 0.9996 0.87113 0.69696 0.0
C608 C 0.97158 0.85547 0.70197 0.0
C609 C 0.00816 0.90746 0.69798 0.0
C610 C 0.98914 0.92903 0.70409 0.0
C611 C 0.96235 0.91296 0.70945 0.0
C612 C 0.95339 0.87667 0.70833 0.0
C613 C 0.99656 0.96844 0.70454 0.0
C614 C 0.03231 0.98022 0.70531 0.0
C615 C 0.9689 0.99444 0.7038 0.0
C616 C 0.93094 0.98428 0.70217 0.0
C617 C 0.90384 0.99558 0.70811 0.0
C618 C 0.86804 0.98597 0.70658 0.0
C619 C 0.85901 0.96523 0.69909 0.0
C620 C 0.88574 0.95419 0.6931 0.0
C621 C 0.92156 0.96377 0.6946 0.0
H622 H 0.8313 0.95779 0.69792 0.0
H623 H 0.18087 0.05322 0.70471 0.0
H624 H 0.62386 0.89672 0.31063 0.0
H625 H 0.56384 0.922 0.30913 0.0
H626 H 0.60838 0.02891 0.30954 0.0
H627 H 0.6689 1.00373 0.31117 0.0
H628 H 0.55243 0.02297 0.32086 0.0
H629 H 0.57448 0.99313 0.29011 0.0
H630 H 0.59206 0.95439 0.27743 0.0
H631 H 0.5059 0.88181 0.28371 0.0
H632 H 0.48809 0.91986 0.29651 0.0
H633 H 0.3899 0.11012 0.31054 0.0
H634 H 0.45092 0.08713 0.3092 0.0
H635 H 0.41051 0.97861 0.3097 0.0
H636 H 0.3489 1.00148 0.31094 0.0
H637 H 0.46493 0.98702 0.29738 0.0
H638 H 0.44496 0.01504 0.32848 0.0
H639 H 0.42742 0.05332 0.34126 0.0
H640 H 0.51013 0.12889 0.33432 0.0
H641 H 0.52784 0.09129 0.32141 0.0
C642 C 0.62107 0.92564 0.31032 0.0
C643 C 0.6513 0.94819 0.31104 0.0
C644 C 0.58664 0.94005 0.30941 0.0
C645 C 0.58156 0.97736 0.30913 0.0
C646 C 0.61168 1.00002 0.30971 0.0
C647 C 0.64626 0.98559 0.31062 0.0
C648 C 0.54463 0.99249 0.30872 0.0
C649 C 0.53353 0.01563 0.31562 0.0
C650 C 0.5196 0.98211 0.30204 0.0
C651 C 0.53014 0.95921 0.29432 0.0
C652 C 0.55945 0.96876 0.28884 0.0
C653 C 0.56942 0.94695 0.28161 0.0
C654 C 0.55016 0.91562 0.27978 0.0
C655 C 0.52082 0.90607 0.28514 0.0
C656 C 0.51074 0.92778 0.29238 0.0
C657 C 0.39381 0.08133 0.3103 0.0
C658 C 0.36442 0.05763 0.31094 0.0
C659 C 0.42882 0.06824 0.30956 0.0
C660 C 0.43536 0.03116 0.3095 0.0
C661 C 0.40607 0.00735 0.30977 0.0
C662 C 0.37089 0.02046 0.31049 0.0
C663 C 0.47286 0.01744 0.3095 0.0
C664 C 0.48397 0.99452 0.30256 0.0
C665 C 0.49796 0.02795 0.31615 0.0
C666 C 0.48748 0.05053 0.32393 0.0
C667 C 0.45922 0.03996 0.32964 0.0
C668 C 0.44928 0.06151 0.33691 0.0
C669 C 0.46759 0.09356 0.33859 0.0
C670 C 0.49594 0.10408 0.333 0.0
C671 C 0.50596 0.08265 0.32571 0.0
H672 H 0.45986 0.11021 0.34422 0.0
H673 H 0.55793 0.89877 0.27418 0.0
H674 H 0.0075 0.84884 0.56112 0.0
H675 H 0.03021 0.91053 0.55992 0.0
H676 H 0.92153 0.9501 0.5583 0.0
H677 H 0.89868 0.88899 0.55958 0.0
H678 H 0.02335 0.96541 0.54747 0.0
H679 H 0.91494 0.02634 0.57069 0.0
H680 H 0.87543 0.00783 0.58321 0.0
H681 H 0.95064 0.92567 0.59069 0.0
H682 H 0.9908 0.94401 0.57831 0.0
H683 H 1.00364 0.16852 0.56174 0.0
H684 H 0.97889 0.10797 0.55984 0.0
H685 H 0.08614 0.0641 0.55989 0.0
H686 H 0.11098 0.12412 0.5616 0.0
H687 H 0.98338 0.05147 0.57086 0.0
H688 H 0.09053 0.98909 0.54721 0.0
H689 H 0.13059 0.00811 0.53485 0.0
H690 H 0.05856 0.09424 0.52828 0.0
H691 H 0.0178 0.07544 0.5405 0.0
C692 C 0.98846 0.87065 0.56042 0.0
C693 C 0.95125 0.86393 0.56055 0.0
C694 C 1.00149 0.90588 0.55971 0.0
C695 C 0.97755 0.93498 0.55917 0.0
C696 C 0.9405 0.92815 0.55888 0.0
C697 C 0.92749 0.8931 0.55959 0.0
C698 C 0.99102 0.97257 0.55934 0.0
C699 C 0.01495 0.98416 0.55263 0.0
C700 C 0.97938 0.99728 0.56596 0.0
C701 C 0.95566 0.98631 0.57351 0.0
C702 C 0.92308 0.00441 0.57503 0.0
C703 C 0.90058 0.99394 0.5821 0.0
C704 C 0.91046 0.96551 0.58772 0.0
C705 C 0.94295 0.94758 0.58631 0.0
C706 C 0.96557 0.95798 0.57926 0.0
C707 C 0.02194 0.14601 0.56124 0.0
C708 C 0.0593 0.15127 0.56182 0.0
C709 C 0.00776 0.11141 0.56018 0.0
C710 C 0.03065 0.08147 0.55963 0.0
C711 C 0.06792 0.08675 0.56012 0.0
C712 C 0.08208 0.1212 0.56117 0.0
C713 C 0.01575 0.04448 0.55898 0.0
C714 C 0.99161 0.03291 0.56564 0.0
C715 C 0.02724 0.01987 0.55232 0.0
C716 C 0.05125 0.03099 0.54483 0.0
C717 C 0.08313 0.01196 0.54309 0.0
C718 C 0.10598 0.02273 0.53612 0.0
C719 C 0.09714 0.05239 0.5308 0.0
C720 C 0.06541 0.07132 0.53243 0.0
C721 C 0.04244 0.06064 0.53938 0.0
H722 H 0.11484 0.06067 0.5254 0.0
H723 H 0.89298 0.95742 0.59318 0.0
H724 H 0.12368 0.39895 0.81089 0.0
H725 H 0.06331 0.42313 0.80914 0.0
H726 H 0.10651 0.53054 0.80809 0.0
H727 H 0.16735 0.50649 0.81 0.0
H728 H 0.0514 0.52642 0.81958 0.0
H729 H 0.07227 0.48977 0.78928 0.0
H730 H 0.08961 0.44828 0.77714 0.0
H731 H 1.00396 0.37691 0.7846 0.0
H732 H 0.98642 0.4177 0.79689 0.0
H733 H 0.88852 0.61086 0.80879 0.0
H734 H 0.94929 0.58741 0.80724 0.0
H735 H 0.90894 0.47931 0.80977 0.0
H736 H 0.84754 0.50263 0.81124 0.0
H737 H 0.96286 0.4848 0.79695 0.0
H738 H 0.94455 0.51954 0.8277 0.0
H739 H 0.92746 0.56053 0.83998 0.0
H740 H 0.0091 0.63504 0.83165 0.0
H741 H 0.02635 0.59469 0.81924 0.0
C742 C 0.12051 0.42773 0.81021 0.0
C743 C 0.15046 0.4508 0.81061 0.0
C744 C 0.08588 0.4415 0.80915 0.0
C745 C 0.08032 0.47864 0.8084 0.0
C746 C 0.11017 0.50176 0.80864 0.0
C747 C 0.14494 0.48798 0.8097 0.0
C748 C 0.04318 0.49327 0.80792 0.0
C749 C 0.03228 0.51782 0.81452 0.0
C750 C 0.01785 0.48124 0.80148 0.0
C751 C 0.02819 0.45671 0.79406 0.0
C752 C 0.05728 0.46511 0.78838 0.0
C753 C 0.06712 0.44173 0.78146 0.0
C754 C 0.0479 0.40999 0.7801 0.0
C755 C 0.01881 0.40154 0.78566 0.0
C756 C 0.00888 0.42479 0.7926 0.0
C757 C 0.89237 0.58204 0.80895 0.0
C758 C 0.8631 0.55864 0.81025 0.0
C759 C 0.92723 0.56869 0.80808 0.0
C760 C 0.93376 0.53165 0.80855 0.0
C761 C 0.90451 0.50802 0.80942 0.0
C762 C 0.86945 0.52139 0.81028 0.0
C763 C 0.97129 0.51797 0.80859 0.0
C764 C 0.98215 0.49354 0.80195 0.0
C765 C 0.99668 0.53004 0.815 0.0
C766 C 0.98649 0.55426 0.82249 0.0
C767 C 0.95867 0.54479 0.82845 0.0
C768 C 0.94899 0.56789 0.83544 0.0
C769 C 0.96712 0.60041 0.83658 0.0
C770 C 0.99504 0.60986 0.83075 0.0
C771 C 0.0048 0.58688 0.82374 0.0
H772 H 0.95959 0.61825 0.842 0.0
H773 H 0.05552 0.39198 0.77472 0.0
H774 H 0.50778 0.66215 0.05889 0.0
H775 H 0.48412 0.60104 0.0574 0.0
H776 H 0.59035 0.55808 0.06172 0.0
H777 H 0.61425 0.61872 0.063 0.0
H778 H 0.55775 0.52098 0.04904 0.0
H779 H 0.52699 0.56165 0.07877 0.0
H780 H 0.50007 0.60243 0.08994 0.0
H781 H 0.39587 0.58582 0.07829 0.0
H782 H 0.42226 0.54529 0.06697 0.0
H783 H 0.51016 0.3425 0.06299 0.0
H784 H 0.53372 0.40378 0.06165 0.0
H785 H 0.4266 0.44335 0.05673 0.0
H786 H 0.4029 0.38266 0.05816 0.0
H787 H 0.45872 0.48247 0.06922 0.0
H788 H 0.49 0.43882 0.03987 0.0
H789 H 0.51773 0.39738 0.02898 0.0
H790 H 0.6218 0.41861 0.04023 0.0
H791 H 0.59463 0.45984 0.05127 0.0
C792 C 0.52614 0.6397 0.05945 0.0
C793 C 0.56288 0.64543 0.06113 0.0
C794 C 0.51255 0.60475 0.05864 0.0
C795 C 0.53536 0.57486 0.05958 0.0
C796 C 0.57218 0.58062 0.06097 0.0
C797 C 0.58578 0.61543 0.06174 0.0
C798 C 0.52095 0.53755 0.05943 0.0
C799 C 0.5363 0.51248 0.05351 0.0
C800 C 0.49259 0.52647 0.06515 0.0
C801 C 0.47666 0.55076 0.07196 0.0
C802 C 0.49838 0.56692 0.07855 0.0
C803 C 0.48321 0.58994 0.08492 0.0
C804 C 0.4463 0.59679 0.08481 0.0
C805 C 0.42446 0.58054 0.07836 0.0
C806 C 0.43951 0.55753 0.07196 0.0
C807 C 0.49171 0.3642 0.06151 0.0
C808 C 0.45462 0.35761 0.06073 0.0
C809 C 0.50521 0.39923 0.06073 0.0
C810 C 0.48193 0.42824 0.05907 0.0
C811 C 0.44508 0.42151 0.05805 0.0
C812 C 0.43159 0.38667 0.05886 0.0
C813 C 0.49545 0.46587 0.05882 0.0
C814 C 0.48 0.49099 0.0647 0.0
C815 C 0.52382 0.47687 0.0531 0.0
C816 C 0.54022 0.45216 0.04645 0.0
C817 C 0.51877 0.43444 0.04007 0.0
C818 C 0.53439 0.41102 0.03386 0.0
C819 C 0.57149 0.40529 0.03393 0.0
C820 C 0.59306 0.42304 0.04019 0.0
C821 C 0.57757 0.44646 0.04642 0.0
H822 H 0.58354 0.38716 0.02911 0.0
H823 H 0.4346 0.61462 0.08975 0.0
H824 H 0.33886 0.50567 0.95219 0.0
H825 H 0.39978 0.53026 0.95338 0.0
H826 H 0.4428 0.42299 0.9552 0.0
H827 H 0.38232 0.3983 0.95414 0.0
H828 H 0.47697 0.46668 0.96663 0.0
H829 H 0.44439 0.46802 0.93546 0.0
H830 H 0.40665 0.48254 0.92233 0.0
H831 H 0.4201 0.59514 0.92748 0.0
H832 H 0.45753 0.58126 0.94073 0.0
H833 H 0.65887 0.50346 0.95326 0.0
H834 H 0.59735 0.48043 0.95461 0.0
H835 H 0.55623 0.58856 0.95334 0.0
H836 H 0.6172 0.6117 0.95194 0.0
H837 H 0.52087 0.54506 0.94194 0.0
H838 H 0.55656 0.54188 0.97304 0.0
H839 H 0.59527 0.52519 0.98583 0.0
H840 H 0.57736 0.41348 0.98035 0.0
H841 H 0.53891 0.4295 0.96744 0.0
C842 C 0.36125 0.48735 0.95295 0.0
C843 C 0.35566 0.45 0.953 0.0
C844 C 0.39608 0.50143 0.95359 0.0
C845 C 0.42593 0.47843 0.95426 0.0
C846 C 0.42025 0.44126 0.95468 0.0
C847 C 0.38556 0.42719 0.95403 0.0
C848 C 0.46322 0.49281 0.95416 0.0
C849 C 0.48666 0.48359 0.9612 0.0
C850 C 0.47583 0.51514 0.94712 0.0
C851 C 0.45342 0.5236 0.93914 0.0
C852 C 0.43905 0.49588 0.93384 0.0
C853 C 0.41776 0.50399 0.92636 0.0
C854 C 0.41089 0.53974 0.92408 0.0
C855 C 0.42539 0.56746 0.92926 0.0
C856 C 0.44666 0.55949 0.93675 0.0
C857 C 0.63675 0.52234 0.95336 0.0
C858 C 0.64306 0.55943 0.95247 0.0
C859 C 0.60159 0.50915 0.95415 0.0
C860 C 0.57214 0.5328 0.9541 0.0
C861 C 0.57847 0.5698 0.95337 0.0
C862 C 0.61346 0.58297 0.95259 0.0
C863 C 0.5346 0.51915 0.95444 0.0
C864 C 0.51113 0.52838 0.94742 0.0
C865 C 0.52213 0.49657 0.96145 0.0
C866 C 0.54514 0.4869 0.96922 0.0
C867 C 0.5611 0.51375 0.97452 0.0
C868 C 0.58295 0.50442 0.9818 0.0
C869 C 0.58884 0.4683 0.98389 0.0
C870 C 0.57281 0.44144 0.97871 0.0
C871 C 0.55096 0.45064 0.97142 0.0
H872 H 0.60577 0.46113 0.98953 0.0
H873 H 0.39441 0.54597 0.91829 0.0
H874 H 0.5023 0.84573 0.19978 0.0
H875 H 0.47889 0.90716 0.20052 0.0
H876 H 0.58465 0.94643 0.20709 0.0
H877 H 0.60823 0.8853 0.20637 0.0
H878 H 0.53121 0.98051 0.21693 0.0
H879 H 0.55765 0.9519 0.18616 0.0
H880 H 0.55457 0.91579 0.17231 0.0
H881 H 0.44026 0.93088 0.17128 0.0
H882 H 0.4426 0.96664 0.18522 0.0
H883 H 0.50434 0.16501 0.20376 0.0
H884 H 0.52786 0.10361 0.20517 0.0
H885 H 0.42333 0.06106 0.19867 0.0
H886 H 0.39968 0.12174 0.1973 0.0
H887 H 0.47727 0.029 0.18892 0.0
H888 H 0.45085 0.05804 0.21965 0.0
H889 H 0.45403 0.09432 0.23347 0.0
H890 H 0.56832 0.07892 0.23451 0.0
H891 H 0.56587 0.04297 0.22061 0.0
C892 C 0.52045 0.86736 0.20152 0.0
C893 C 0.55719 0.86063 0.20293 0.0
C894 C 0.50708 0.90247 0.2019 0.0
C895 C 0.53014 0.93142 0.20375 0.0
C896 C 0.5664 0.92453 0.20563 0.0
C897 C 0.57984 0.88955 0.20518 0.0
C898 C 0.51704 0.96904 0.2032 0.0
C899 C 0.51976 0.99125 0.21078 0.0
C900 C 0.50175 0.98294 0.1952 0.0
C901 C 0.50026 0.96162 0.18679 0.0
C902 C 0.53182 0.94727 0.18303 0.0
C903 C 0.53021 0.92691 0.17515 0.0
C904 C 0.49722 0.92096 0.17093 0.0
C905 C 0.46579 0.93546 0.17457 0.0
C906 C 0.46724 0.95579 0.18245 0.0
C907 C 0.48638 0.14256 0.20267 0.0
C908 C 0.45012 0.14839 0.20042 0.0
C909 C 0.49982 0.10752 0.2035 0.0
C910 C 0.47729 0.07777 0.20204 0.0
C911 C 0.4412 0.08358 0.1998 0.0
C912 C 0.42772 0.1184 0.19906 0.0
C913 C 0.49115 0.04044 0.20268 0.0
C914 C 0.48869 0.01829 0.19508 0.0
C915 C 0.50668 0.02668 0.21066 0.0
C916 C 0.50823 0.04816 0.21903 0.0
C917 C 0.47671 0.06266 0.22278 0.0
C918 C 0.47837 0.08311 0.23064 0.0
C919 C 0.51138 0.08901 0.23485 0.0
C920 C 0.54278 0.07438 0.23123 0.0
C921 C 0.54127 0.05395 0.22336 0.0
H922 H 0.51261 0.10484 0.24094 0.0
H923 H 0.49603 0.90519 0.16484 0.0
H924 H 0.88348 0.8968 0.45397 0.0
H925 H 0.94379 0.92157 0.45532 0.0
H926 H 0.90099 0.02875 0.4529 0.0
H927 H 0.84017 0.00404 0.45144 0.0
H928 H 0.95755 0.01875 0.44184 0.0
H929 H 0.93316 0.99787 0.47297 0.0
H930 H 0.91431 0.96297 0.48627 0.0
H931 H 0.9999 0.8879 0.48171 0.0
H932 H 0.01897 0.92207 0.4683 0.0
H933 H 0.11791 0.10949 0.45202 0.0
H934 H 0.05718 0.08573 0.45323 0.0
H935 H 0.09914 0.97791 0.45419 0.0
H936 H 0.16059 1.00158 0.45301 0.0
H937 H 0.04299 0.98882 0.46633 0.0
H938 H 0.06599 0.00841 0.43499 0.0
H939 H 0.08485 0.04294 0.42163 0.0
H940 H 1.00146 0.12008 0.42657 0.0
H941 H 0.98243 0.08626 0.44005 0.0
C942 C 0.8867 0.9257 0.45381 0.0
C943 C 0.85688 0.94843 0.45257 0.0
C944 C 0.9213 0.93983 0.45463 0.0
C945 C 0.92697 0.97704 0.45428 0.0
C946 C 0.89724 0.99992 0.4532 0.0
C947 C 0.86248 0.98578 0.4524 0.0
C948 C 0.96415 0.99172 0.45454 0.0
C949 C 0.976 0.01273 0.44728 0.0
C950 C 0.98863 0.98296 0.4615 0.0
C951 C 0.97729 0.96237 0.46958 0.0
C952 C 0.94779 0.97375 0.47476 0.0
C953 C 0.9371 0.95413 0.48233 0.0
C954 C 0.95584 0.92319 0.48482 0.0
C955 C 0.98538 0.91185 0.47977 0.0
C956 C 0.99617 0.93136 0.47219 0.0
C957 C 0.11445 0.08069 0.45254 0.0
C958 C 0.14426 0.05742 0.45234 0.0
C959 C 0.07958 0.06716 0.45321 0.0
C960 C 0.07356 0.03004 0.45366 0.0
C961 C 0.1032 0.00668 0.45382 0.0
C962 C 0.13829 0.02024 0.45313 0.0
C963 C 0.03621 0.0159 0.45365 0.0
C964 C 0.02441 0.99494 0.46093 0.0
C965 C 0.01172 0.02464 0.4467 0.0
C966 C 0.02302 0.04499 0.43858 0.0
C967 C 0.05187 0.03289 0.43327 0.0
C968 C 0.06255 0.05231 0.42567 0.0
C969 C 0.04443 0.08374 0.42327 0.0
C970 C 0.01551 0.09576 0.42845 0.0
C971 C 0.00475 0.07646 0.43607 0.0
H972 H 0.05273 0.09873 0.41738 0.0
H973 H 0.94753 0.90803 0.49068 0.0
H974 H 0.11347 0.38953 0.69964 0.0
H975 H 0.08898 0.44981 0.70094 0.0
H976 H 0.98272 0.40582 0.70463 0.0
H977 H 0.00705 0.34494 0.70311 0.0
H978 H 0.98122 0.45963 0.69296 0.0
H979 H 0.03099 0.4434 0.72234 0.0
H980 H 0.07779 0.42816 0.73344 0.0
H981 H 0.14494 0.51259 0.72315 0.0
H982 H 0.09874 0.52804 0.71191 0.0
H983 H 0.90072 0.62376 0.70466 0.0
H984 H 0.92471 0.56308 0.70577 0.0
H985 H 0.03149 0.60344 0.70073 0.0
H986 H 0.00766 0.66475 0.69973 0.0
H987 H 0.03161 0.55117 0.71361 0.0
H988 H 0.98304 0.56557 0.68389 0.0
H989 H 0.9365 0.58076 0.67272 0.0
H990 H 0.86729 0.49936 0.68367 0.0
H991 H 0.91325 0.484 0.69499 0.0
C992 C 0.08489 0.39249 0.70079 0.0
C993 C 0.06224 0.36224 0.70129 0.0
C994 C 0.07094 0.42712 0.70159 0.0
C995 C 0.03407 0.43247 0.70302 0.0
C996 C 0.01131 0.40238 0.70356 0.0
C997 C 0.02525 0.36758 0.70271 0.0
C998 C 0.01928 0.46954 0.70357 0.0
C999 C 0.99181 0.47942 0.6976 0.0
C1000 C 0.03374 0.49576 0.70944 0.0
C1001 C 0.06149 0.48669 0.71623 0.0
C1002 C 0.05584 0.45856 0.7224 0.0
C1003 C 0.08224 0.44991 0.72873 0.0
C1004 C 0.11435 0.46934 0.72899 0.0
C1005 C 0.12007 0.49754 0.72294 0.0
C1006 C 0.09376 0.50629 0.7166 0.0
C1007 C 0.92938 0.61991 0.70385 0.0
C1008 C 0.95223 0.64917 0.70201 0.0
C1009 C 0.94303 0.58509 0.70446 0.0
C1010 C 0.97979 0.57858 0.70316 0.0
C1011 C 1.00299 0.60783 0.70171 0.0
C1012 C 0.98933 0.64284 0.70113 0.0
C1013 C 0.99361 0.54111 0.70301 0.0
C1014 C 0.02092 0.53124 0.70903 0.0
C1015 C 0.97903 0.51484 0.69718 0.0
C1016 C 0.95145 0.52388 0.69034 0.0
C1017 C 0.95779 0.55109 0.68396 0.0
C1018 C 0.93153 0.5597 0.6776 0.0
C1019 C 0.89892 0.5411 0.6775 0.0
C1020 C 0.89254 0.51377 0.68376 0.0
C1021 C 0.9187 0.50508 0.69014 0.0
H1022 H 0.87863 0.54781 0.67257 0.0
H1023 H 0.13476 0.46259 0.73388 0.0
H1024 H 0.25598 0.06845 0.34695 0.0
H1025 H 0.25356 0.07765 0.36306 0.0
H1026 H 0.24031 0.19158 0.35896 0.0
H1027 H 0.24414 0.18262 0.3426 0.0
H1028 H 0.28552 0.18006 0.37239 0.0
H1029 H 0.16849 0.13657 0.36553 0.0
H1030 H 0.12293 0.09678 0.35879 0.0
H1031 H 0.16419 0.00758 0.37391 0.0
H1032 H 0.21035 0.04664 0.38063 0.0
H1033 H 0.24448 0.18377 0.42059 0.0
H1034 H 0.2419 0.19228 0.40421 0.0
H1035 H 0.26812 0.08062 0.40037 0.0
H1036 H 0.27086 0.07189 0.41657 0.0
H1037 H 0.20757 0.10156 0.39105 0.0
H1038 H 0.3292 0.14457 0.3962 0.0
H1039 H 0.37429 0.18474 0.40299 0.0
H1040 H 0.32184 0.27619 0.39126 0.0
H1041 H 0.27613 0.23656 0.38449 0.0
C1042 C 0.25227 0.09554 0.34941 0.0
C1043 C 0.24988 0.12478 0.34344 0.0
C1044 C 0.25072 0.10074 0.35868 0.0
C1045 C 0.24585 0.13521 0.36227 0.0
C1046 C 0.24378 0.16467 0.35635 0.0
C1047 C 0.24584 0.15951 0.34701 0.0
C1048 C 0.2438 0.13987 0.37221 0.0
C1049 C 0.26789 0.16345 0.37646 0.0
C1050 C 0.22094 0.11814 0.37757 0.0
C1051 C 0.19301 0.09457 0.37356 0.0
C1052 C 0.16799 0.10843 0.36738 0.0
C1053 C 0.14204 0.08599 0.36356 0.0
C1054 C 0.14068 0.04968 0.36592 0.0
C1055 C 0.16526 0.03572 0.3721 0.0
C1056 C 0.19129 0.05801 0.37592 0.0
C1057 C 0.2502 0.16118 0.41625 0.0
C1058 C 0.25766 0.12708 0.41992 0.0
C1059 C 0.2487 0.1661 0.40689 0.0
C1060 C 0.25461 0.13702 0.40108 0.0
C1061 C 0.2632 0.10337 0.40473 0.0
C1062 C 0.26485 0.09848 0.41402 0.0
C1063 C 0.25024 0.14053 0.39118 0.0
C1064 C 0.22471 0.1186 0.38695 0.0
C1065 C 0.27152 0.16392 0.38588 0.0
C1066 C 0.29901 0.18766 0.38994 0.0
C1067 C 0.32709 0.17328 0.39514 0.0
C1068 C 0.3528 0.19593 0.39897 0.0
C1069 C 0.35086 0.233 0.39758 0.0
C1070 C 0.32326 0.24748 0.39234 0.0
C1071 C 0.29746 0.22493 0.38851 0.0
H1072 H 0.37079 0.2505 0.40055 0.0
H1073 H 0.12057 0.03234 0.36298 0.0
H1074 H 0.9388 0.75716 0.59708 0.0
H1075 H 0.92857 0.75475 0.61318 0.0
H1076 H 0.81489 0.74079 0.60872 0.0
H1077 H 0.82488 0.74461 0.5924 0.0
H1078 H 0.82509 0.78583 0.62218 0.0
H1079 H 0.86978 0.66939 0.61553 0.0
H1080 H 0.91012 0.624 0.60893 0.0
H1081 H 0.99844 0.66577 0.62423 0.0
H1082 H 0.95883 0.71177 0.63082 0.0
H1083 H 0.82151 0.74475 0.6706 0.0
H1084 H 0.81276 0.74139 0.65423 0.0
H1085 H 0.92329 0.77196 0.6501 0.0
H1086 H 0.93222 0.77566 0.66626 0.0
H1087 H 0.90349 0.70903 0.6411 0.0
H1088 H 0.85878 0.8304 0.64593 0.0
H1089 H 0.81763 0.87489 0.6526 0.0
H1090 H 0.72733 0.8205 0.64091 0.0
H1091 H 0.76797 0.77538 0.63427 0.0
C1092 C 0.91156 0.75331 0.59947 0.0
C1093 C 0.88268 0.75071 0.59341 0.0
C1094 C 0.90576 0.75177 0.60872 0.0
C1095 C 0.87106 0.74668 0.61221 0.0
C1096 C 0.84197 0.74443 0.6062 0.0
C1097 C 0.84771 0.74649 0.59688 0.0
C1098 C 0.86576 0.7446 0.62213 0.0
C1099 C 0.84168 0.76843 0.6263 0.0
C1100 C 0.88737 0.72197 0.62757 0.0
C1101 C 0.91129 0.69415 0.62365 0.0
C1102 C 0.89784 0.66904 0.61745 0.0
C1103 C 0.92059 0.64318 0.61371 0.0
C1104 C 0.95682 0.64202 0.61616 0.0
C1105 C 0.97037 0.66669 0.62235 0.0
C1106 C 0.94777 0.69262 0.6261 0.0
C1107 C 0.84377 0.75128 0.6662 0.0
C1108 C 0.87763 0.76025 0.66977 0.0
C1109 C 0.83872 0.74931 0.65685 0.0
C1110 C 0.86748 0.75618 0.65096 0.0
C1111 C 0.90082 0.76629 0.65452 0.0
C1112 C 0.90581 0.76848 0.66379 0.0
C1113 C 0.86409 0.75125 0.64109 0.0
C1114 C 0.88644 0.72588 0.63695 0.0
C1115 C 0.84068 0.77214 0.63572 0.0
C1116 C 0.81635 0.79927 0.6397 0.0
C1117 C 0.83012 0.82773 0.64486 0.0
C1118 C 0.8069 0.8531 0.64861 0.0
C1119 C 0.76988 0.85045 0.6472 0.0
C1120 C 0.75601 0.82247 0.64201 0.0
C1121 C 0.77912 0.79701 0.63825 0.0
H1122 H 0.75194 0.87013 0.65012 0.0
H1123 H 0.97441 0.62199 0.61328 0.0
H1124 H 0.26547 0.32593 0.84317 0.0
H1125 H 0.26672 0.31664 0.85951 0.0
H1126 H 0.25935 0.43113 0.86353 0.0
H1127 H 0.25947 0.44058 0.84737 0.0
H1128 H 0.30496 0.40595 0.87473 0.0
H1129 H 0.18519 0.37017 0.86548 0.0
H1130 H 0.1412 0.33407 0.857 0.0
H1131 H 0.18254 0.23767 0.86904 0.0
H1132 H 0.22706 0.27321 0.87751 0.0
H1133 H 0.23032 0.43397 0.91695 0.0
H1134 H 0.23514 0.42574 0.90077 0.0
H1135 H 0.26453 0.31491 0.90474 0.0
H1136 H 0.25989 0.32287 0.9211 0.0
H1137 H 0.21492 0.3283 0.88989 0.0
H1138 H 0.32944 0.36831 0.90083 0.0
H1139 H 0.36976 0.40727 0.90963 0.0
H1140 H 0.33488 0.49904 0.89446 0.0
H1141 H 0.29392 0.46072 0.88566 0.0
C1142 C 0.26438 0.34909 0.84756 0.0
C1143 C 0.26237 0.38399 0.84395 0.0
C1144 C 0.26487 0.34374 0.8569 0.0
C1145 C 0.26269 0.37316 0.8628 0.0
C1146 C 0.2612 0.40794 0.85916 0.0
C1147 C 0.2612 0.41331 0.84988 0.0
C1148 C 0.26158 0.36843 0.87275 0.0
C1149 C 0.28514 0.38903 0.87802 0.0
C1150 C 0.23646 0.3456 0.87711 0.0
C1151 C 0.20971 0.32428 0.87203 0.0
C1152 C 0.18506 0.34125 0.86626 0.0
C1153 C 0.16001 0.3209 0.86147 0.0
C1154 C 0.15916 0.28359 0.86246 0.0
C1155 C 0.18328 0.26656 0.86826 0.0
C1156 C 0.20842 0.28679 0.87306 0.0
C1157 C 0.23743 0.40765 0.91443 0.0
C1158 C 0.24508 0.37916 0.92036 0.0
C1159 C 0.24022 0.40304 0.90516 0.0
C1160 C 0.25072 0.36989 0.90157 0.0
C1161 C 0.25653 0.34076 0.90739 0.0
C1162 C 0.25388 0.34538 0.91673 0.0
C1163 C 0.25737 0.36679 0.89176 0.0
C1164 C 0.23506 0.3447 0.88656 0.0
C1165 C 0.28333 0.38859 0.88744 0.0
C1166 C 0.30844 0.41163 0.89261 0.0
C1167 C 0.33021 0.39683 0.8994 0.0
C1168 C 0.3532 0.4188 0.90439 0.0
C1169 C 0.35485 0.45562 0.90261 0.0
C1170 C 0.33358 0.47052 0.89583 0.0
C1171 C 0.31051 0.44867 0.89083 0.0
H1172 H 0.37264 0.47259 0.90648 0.0
H1173 H 0.13974 0.26788 0.85874 0.0
H1174 H 0.68633 0.75785 0.09288 0.0
H1175 H 0.69515 0.76057 0.10921 0.0
H1176 H 0.58051 0.76909 0.113 0.0
H1177 H 0.57162 0.76746 0.09683 0.0
H1178 H 0.61221 0.81272 0.12396 0.0
H1179 H 0.62899 0.68814 0.11564 0.0
H1180 H 0.65775 0.63808 0.10754 0.0
H1181 H 0.75945 0.66496 0.11937 0.0
H1182 H 0.73133 0.71548 0.12746 0.0
H1183 H 0.57143 0.74452 0.16639 0.0
H1184 H 0.58118 0.74867 0.15024 0.0
H1185 H 0.69485 0.76247 0.15456 0.0
H1186 H 0.68536 0.75866 0.1709 0.0
H1187 H 0.67472 0.71357 0.13987 0.0
H1188 H 0.65283 0.83358 0.15002 0.0
H1189 H 0.62063 0.88057 0.15845 0.0
H1190 H 0.52489 0.85955 0.14326 0.0
H1191 H 0.55634 0.81202 0.13483 0.0
C1192 C 0.66306 0.76063 0.0972 0.0
C1193 C 0.62826 0.76231 0.09352 0.0
C1194 C 0.66812 0.76197 0.10655 0.0
C1195 C 0.63846 0.76459 0.11238 0.0
C1196 C 0.60387 0.76713 0.10868 0.0
C1197 C 0.59883 0.76608 0.09939 0.0
C1198 C 0.6427 0.76397 0.12235 0.0
C1199 C 0.62584 0.79096 0.12741 0.0
C1200 C 0.66128 0.73614 0.12692 0.0
C1201 C 0.67817 0.70583 0.12206 0.0
C1202 C 0.65754 0.68354 0.11645 0.0
C1203 C 0.67371 0.65506 0.11187 0.0
C1204 C 0.71043 0.64842 0.11291 0.0
C1205 C 0.73103 0.67019 0.11855 0.0
C1206 C 0.715 0.69873 0.12314 0.0
C1207 C 0.59864 0.74811 0.16396 0.0
C1208 C 0.6276 0.75149 0.16998 0.0
C1209 C 0.60411 0.75057 0.1547 0.0
C1210 C 0.63865 0.75631 0.15121 0.0
C1211 C 0.66796 0.75816 0.15713 0.0
C1212 C 0.66246 0.75601 0.16646 0.0
C1213 C 0.64328 0.76165 0.14138 0.0
C1214 C 0.66177 0.73566 0.13638 0.0
C1215 C 0.62583 0.79015 0.13685 0.0
C1216 C 0.60692 0.81907 0.14183 0.0
C1217 C 0.62484 0.8388 0.14852 0.0
C1218 C 0.60673 0.86556 0.15329 0.0
C1219 C 0.57073 0.873 0.1514 0.0
C1220 C 0.55278 0.85375 0.14472 0.0
C1221 C 0.57076 0.82693 0.13993 0.0
H1222 H 0.55676 0.89375 0.1551 0.0
H1223 H 0.7229 0.62635 0.10936 0.0
H1224 H 0.73579 0.57318 0.84681 0.0
H1225 H 0.733 0.58353 0.86292 0.0
H1226 H 0.7585 0.69533 0.85877 0.0
H1227 H 0.76204 0.68499 0.84249 0.0
H1228 H 0.79739 0.66766 0.87243 0.0
H1229 H 0.67396 0.671 0.86488 0.0
H1230 H 0.61796 0.65127 0.85755 0.0
H1231 H 0.6205 0.55278 0.87259 0.0
H1232 H 0.67685 0.57162 0.87991 0.0
H1233 H 0.75843 0.68478 0.92053 0.0
H1234 H 0.7563 0.69489 0.90418 0.0
H1235 H 0.74656 0.58088 0.8999 0.0
H1236 H 0.74923 0.57048 0.91605 0.0
H1237 H 0.69458 0.62314 0.89057 0.0
H1238 H 0.82345 0.61782 0.89605 0.0
H1239 H 0.87987 0.63805 0.9031 0.0
H1240 H 0.86512 0.74334 0.89188 0.0
H1241 H 0.8083 0.72382 0.88486 0.0
C1242 C 0.74058 0.6001 0.84927 0.0
C1243 C 0.74905 0.62828 0.84332 0.0
C1244 C 0.73879 0.60602 0.85851 0.0
C1245 C 0.74503 0.64033 0.86207 0.0
C1246 C 0.75342 0.66866 0.85618 0.0
C1247 C 0.75527 0.66274 0.84687 0.0
C1248 C 0.74382 0.6457 0.87199 0.0
C1249 C 0.77454 0.65876 0.87639 0.0
C1250 C 0.7141 0.63395 0.87718 0.0
C1251 C 0.6798 0.62268 0.87292 0.0
C1252 C 0.6627 0.64504 0.8666 0.0
C1253 C 0.63087 0.63402 0.86244 0.0
C1254 C 0.61571 0.60077 0.86459 0.0
C1255 C 0.63228 0.57853 0.87093 0.0
C1256 C 0.66415 0.5894 0.87509 0.0
C1257 C 0.75614 0.66189 0.91609 0.0
C1258 C 0.75406 0.62682 0.91962 0.0
C1259 C 0.75488 0.66771 0.90677 0.0
C1260 C 0.75108 0.63862 0.90084 0.0
C1261 C 0.7493 0.60372 0.90435 0.0
C1262 C 0.75105 0.59784 0.91361 0.0
C1263 C 0.74853 0.6439 0.89097 0.0
C1264 C 0.71703 0.63285 0.88659 0.0
C1265 C 0.77733 0.65781 0.88582 0.0
C1266 C 0.81141 0.66952 0.89004 0.0
C1267 C 0.83205 0.64539 0.89517 0.0
C1268 C 0.86414 0.65669 0.89913 0.0
C1269 C 0.87601 0.692 0.89796 0.0
C1270 C 0.85585 0.71603 0.8928 0.0
C1271 C 0.82371 0.70486 0.88882 0.0
H1272 H 0.90087 0.7007 0.90104 0.0
H1273 H 0.59111 0.59226 0.86136 0.0
H1274 H 0.32575 0.23718 0.17022 0.0
H1275 H 0.31648 0.23581 0.1539 0.0
H1276 H 0.41548 0.29399 0.14999 0.0
H1277 H 0.42507 0.29526 0.16623 0.0
H1278 H 0.36105 0.31679 0.13838 0.0
H1279 H 0.41709 0.20636 0.14853 0.0
H1280 H 0.42064 0.15118 0.15769 0.0
H1281 H 0.32125 0.1141 0.14637 0.0
H1282 H 0.31688 0.16936 0.13723 0.0
H1283 H 0.42898 0.21851 0.09687 0.0
H1284 H 0.41841 0.22077 0.11305 0.0
H1285 H 0.31769 0.27508 0.10855 0.0
H1286 H 0.32805 0.2729 0.09227 0.0
H1287 H 0.36535 0.19603 0.12437 0.0
H1288 H 0.31187 0.34034 0.12537 0.0
H1289 H 0.31322 0.39581 0.11626 0.0
H1290 H 0.41537 0.36524 0.10522 0.0
H1291 H 0.41482 0.30989 0.11436 0.0
C1292 C 0.34519 0.25027 0.16589 0.0
C1293 C 0.37629 0.26611 0.16952 0.0
C1294 C 0.33991 0.24935 0.15657 0.0
C1295 C 0.36545 0.26454 0.15073 0.0
C1296 C 0.39543 0.28212 0.15437 0.0
C1297 C 0.40094 0.28269 0.16366 0.0
C1298 C 0.36275 0.25983 0.14084 0.0
C1299 C 0.36148 0.29039 0.13532 0.0
C1300 C 0.36374 0.2254 0.13684 0.0
C1301 C 0.36643 0.19215 0.14229 0.0
C1302 C 0.39584 0.18657 0.14805 0.0
C1303 C 0.39803 0.15527 0.15323 0.0
C1304 C 0.37113 0.12921 0.15263 0.0
C1305 C 0.34203 0.13435 0.14684 0.0
C1306 C 0.33969 0.16565 0.14166 0.0
C1307 C 0.40433 0.23055 0.09929 0.0
C1308 C 0.37947 0.24575 0.09327 0.0
C1309 C 0.39827 0.23168 0.10856 0.0
C1310 C 0.36744 0.24837 0.11202 0.0
C1311 C 0.34181 0.26231 0.10602 0.0
C1312 C 0.34771 0.26091 0.09672 0.0
C1313 C 0.36365 0.25301 0.12189 0.0
C1314 C 0.3639 0.22242 0.12743 0.0
C1315 C 0.36215 0.28743 0.1259 0.0
C1316 C 0.36304 0.32081 0.12046 0.0
C1317 C 0.33463 0.34553 0.12101 0.0
C1318 C 0.33527 0.37694 0.11585 0.0
C1319 C 0.36429 0.38397 0.11014 0.0
C1320 C 0.39283 0.35969 0.10962 0.0
C1321 C 0.39235 0.32828 0.11478 0.0
H1322 H 0.36472 0.40828 0.10614 0.0
H1323 H 0.37288 0.10498 0.15664 0.0
H1324 H 0.76727 0.93172 0.34714 0.0
H1325 H 0.76827 0.92163 0.36324 0.0
H1326 H 0.7612 0.8073 0.35901 0.0
H1327 H 0.75896 0.81736 0.34267 0.0
H1328 H 0.71788 0.82629 0.37232 0.0
H1329 H 0.84088 0.84686 0.36608 0.0
H1330 H 0.89386 0.87665 0.35946 0.0
H1331 H 0.86971 0.97286 0.37411 0.0
H1332 H 0.81628 0.94385 0.38072 0.0
H1333 H 0.75421 0.81798 0.42089 0.0
H1334 H 0.75828 0.80793 0.40458 0.0
H1335 H 0.74661 0.9216 0.39994 0.0
H1336 H 0.74211 0.93188 0.41605 0.0
H1337 H 0.80689 0.88999 0.3913 0.0
H1338 H 0.67864 0.86899 0.39572 0.0
H1339 H 0.62682 0.83718 0.40234 0.0
H1340 H 0.66464 0.73771 0.39129 0.0
H1341 H 0.71697 0.7689 0.38469 0.0
C1342 C 0.76623 0.9043 0.34957 0.0
C1343 C 0.76328 0.87532 0.34357 0.0
C1344 C 0.76698 0.89856 0.35883 0.0
C1345 C 0.76557 0.86364 0.36238 0.0
C1346 C 0.76257 0.83449 0.35644 0.0
C1347 C 0.76145 0.84026 0.3471 0.0
C1348 C 0.76612 0.8584 0.37232 0.0
C1349 C 0.73785 0.83953 0.37647 0.0
C1350 C 0.79212 0.87561 0.37778 0.0
C1351 C 0.82444 0.89318 0.37387 0.0
C1352 C 0.84674 0.87443 0.36785 0.0
C1353 C 0.87687 0.89118 0.3641 0.0
C1354 C 0.88513 0.92663 0.36635 0.0
C1355 C 0.8633 0.94539 0.37237 0.0
C1356 C 0.83311 0.92878 0.37614 0.0
C1357 C 0.75206 0.84076 0.41639 0.0
C1358 C 0.74796 0.87576 0.41981 0.0
C1359 C 0.75441 0.83495 0.40708 0.0
C1360 C 0.75296 0.86407 0.40107 0.0
C1361 C 0.74801 0.89879 0.40446 0.0
C1362 C 0.7453 0.90456 0.4137 0.0
C1363 C 0.75795 0.85924 0.39124 0.0
C1364 C 0.78741 0.87615 0.38714 0.0
C1365 C 0.73341 0.83982 0.38587 0.0
C1366 C 0.70194 0.82118 0.38982 0.0
C1367 C 0.67609 0.84028 0.39478 0.0
C1368 C 0.64658 0.82238 0.39851 0.0
C1369 C 0.6425 0.78542 0.39726 0.0
C1370 C 0.66787 0.76632 0.39226 0.0
C1371 C 0.69744 0.78409 0.38852 0.0
H1372 H 0.61964 0.77162 0.40015 0.0
H1373 H 0.90846 0.93956 0.36344 0.0
H1374 H 0.19457 0.25678 0.67126 0.0
H1375 H 0.20557 0.25511 0.65498 0.0
H1376 H 0.09306 0.23391 0.65043 0.0
H1377 H 0.08216 0.23446 0.66651 0.0
H1378 H 0.13045 0.19451 0.63964 0.0
H1379 H 0.13276 0.32011 0.64839 0.0
H1380 H 0.1557 0.37246 0.65674 0.0
H1381 H 0.26027 0.35708 0.64514 0.0
H1382 H 0.23801 0.30435 0.6368 0.0
H1383 H 0.07916 0.26496 0.59827 0.0
H1384 H 0.09153 0.26051 0.6143 0.0
H1385 H 0.20502 0.25304 0.60885 0.0
H1386 H 0.1929 0.25698 0.59262 0.0
H1387 H 0.18111 0.30147 0.62423 0.0
H1388 H 0.1726 0.18035 0.61347 0.0
H1389 H 0.14536 0.13102 0.6048 0.0
H1390 H 0.04808 0.14065 0.62015 0.0
H1391 H 0.07454 0.19045 0.62882 0.0
C1392 C 0.1723 0.25134 0.66678 0.0
C1393 C 0.13745 0.24591 0.67021 0.0
C1394 C 0.17858 0.25063 0.65747 0.0
C1395 C 0.15006 0.24483 0.65144 0.0
C1396 C 0.11557 0.23838 0.6549 0.0
C1397 C 0.10936 0.23883 0.66415 0.0
C1398 C 0.15514 0.24632 0.6415 0.0
C1399 C 0.1416 0.21793 0.6363 0.0
C1400 C 0.17051 0.27641 0.63707 0.0
C1401 C 0.18386 0.30805 0.64207 0.0
C1402 C 0.16072 0.32774 0.64768 0.0
C1403 C 0.17358 0.3575 0.6524 0.0
C1404 C 0.20945 0.36802 0.6515 0.0
C1405 C 0.23251 0.34885 0.64585 0.0
C1406 C 0.21979 0.31904 0.64113 0.0
C1407 C 0.10687 0.26276 0.60043 0.0
C1408 C 0.13504 0.26112 0.59412 0.0
C1409 C 0.11384 0.26016 0.60961 0.0
C1410 C 0.14912 0.25614 0.61274 0.0
C1411 C 0.17759 0.25608 0.60655 0.0
C1412 C 0.17059 0.25829 0.59728 0.0
C1413 C 0.15532 0.25026 0.62249 0.0
C1414 C 0.17087 0.27774 0.62761 0.0
C1415 C 0.14138 0.21955 0.62688 0.0
C1416 C 0.12551 0.18929 0.62176 0.0
C1417 C 0.14531 0.17213 0.61495 0.0
C1418 C 0.13002 0.14405 0.61004 0.0
C1419 C 0.09499 0.13274 0.61191 0.0
C1420 C 0.07521 0.14944 0.61871 0.0
C1421 C 0.09036 0.17756 0.62363 0.0
H1422 H 0.0832 0.11101 0.6081 0.0
H1423 H 0.21936 0.39107 0.65516 0.0
H1424 H 0.29369 0.22699 0.29581 0.0
H1425 H 0.29827 0.24697 0.28019 0.0
H1426 H 0.23073 0.15896 0.2719 0.0
H1427 H 0.22619 0.13866 0.2875 0.0
H1428 H 0.29257 0.1609 0.26248 0.0
H1429 H 0.20118 0.24546 0.27055 0.0
H1430 H 0.17301 0.29313 0.27961 0.0
H1431 H 0.26156 0.36351 0.27386 0.0
H1432 H 0.29054 0.31606 0.26487 0.0
H1433 H 0.28362 0.20549 0.21673 0.0
H1434 H 0.26305 0.19828 0.23222 0.0
H1435 H 0.33764 0.27977 0.24086 0.0
H1436 H 0.35863 0.28711 0.22533 0.0
H1437 H 0.27014 0.28246 0.24996 0.0
H1438 H 0.36337 0.19826 0.243 0.0
H1439 H 0.39368 0.15116 0.23417 0.0
H1440 H 0.30375 0.08067 0.23822 0.0
H1441 H 0.27267 0.12759 0.24697 0.0
C1442 C 0.27912 0.21233 0.2907 0.0
C1443 C 0.25968 0.18112 0.29292 0.0
C1444 C 0.28172 0.22385 0.28175 0.0
C1445 C 0.26486 0.20447 0.27485 0.0
C1446 C 0.24404 0.1743 0.2771 0.0
C1447 C 0.24132 0.16283 0.28604 0.0
C1448 C 0.27163 0.21367 0.26525 0.0
C1449 C 0.28696 0.18729 0.25971 0.0
C1450 C 0.26555 0.24847 0.2617 0.0
C1451 C 0.24819 0.27707 0.2671 0.0
C1452 C 0.21481 0.27099 0.27128 0.0
C1453 C 0.19866 0.298 0.27639 0.0
C1454 C 0.21553 0.3313 0.27733 0.0
C1455 C 0.24855 0.33769 0.27314 0.0
C1456 C 0.26482 0.31076 0.26802 0.0
C1457 C 0.29519 0.22247 0.22188 0.0
C1458 C 0.32302 0.24669 0.21979 0.0
C1459 C 0.28344 0.2182 0.23074 0.0
C1460 C 0.29915 0.23814 0.23771 0.0
C1461 C 0.3252 0.26408 0.23558 0.0
C1462 C 0.33719 0.2682 0.2267 0.0
C1463 C 0.2906 0.22955 0.24723 0.0
C1464 C 0.27529 0.25601 0.25274 0.0
C1465 C 0.29694 0.19489 0.25081 0.0
C1466 C 0.31551 0.1666 0.24554 0.0
C1467 C 0.3499 0.17285 0.24193 0.0
C1468 C 0.36726 0.14616 0.23696 0.0
C1469 C 0.3506 0.11299 0.23561 0.0
C1470 C 0.31659 0.10641 0.23926 0.0
C1471 C 0.2991 0.13303 0.24422 0.0
H1472 H 0.3641 0.09235 0.23177 0.0
H1473 H 0.20298 0.35218 0.28129 0.0
H1474 H 0.79623 0.77941 0.4678 0.0
H1475 H 0.80058 0.75955 0.4834 0.0
H1476 H 0.7195 0.83649 0.491 0.0
H1477 H 0.71555 0.85705 0.4754 0.0
H1478 H 0.77638 0.84325 0.50131 0.0
H1479 H 0.70445 0.74388 0.49188 0.0
H1480 H 0.68722 0.69264 0.48234 0.0
H1481 H 0.78622 0.6394 0.4888 0.0
H1482 H 0.80429 0.69054 0.49829 0.0
H1483 H 0.77851 0.7947 0.54687 0.0
H1484 H 0.75525 0.79953 0.53156 0.0
H1485 H 0.84004 0.73041 0.52206 0.0
H1486 H 0.8633 0.72508 0.5374 0.0
H1487 H 0.77645 0.71838 0.513 0.0
H1488 H 0.85071 0.81909 0.52102 0.0
H1489 H 0.86965 0.87025 0.53039 0.0
H1490 H 0.76738 0.92095 0.52622 0.0
H1491 H 0.74764 0.86978 0.51693 0.0
C1492 C 0.7787 0.79158 0.47274 0.0
C1493 C 0.75564 0.81995 0.47034 0.0
C1494 C 0.78114 0.78008 0.48168 0.0
C1495 C 0.76029 0.7964 0.48841 0.0
C1496 C 0.73592 0.8235 0.48594 0.0
C1497 C 0.73356 0.83513 0.477 0.0
C1498 C 0.76654 0.78775 0.49807 0.0
C1499 C 0.77555 0.81599 0.50389 0.0
C1500 C 0.76668 0.75208 0.50142 0.0
C1501 C 0.75584 0.7212 0.49574 0.0
C1502 C 0.72268 0.72137 0.49121 0.0
C1503 C 0.71273 0.69231 0.48583 0.0
C1504 C 0.73564 0.66281 0.48495 0.0
C1505 C 0.76851 0.66227 0.48948 0.0
C1506 C 0.7786 0.69127 0.49488 0.0
C1507 C 0.7918 0.77987 0.54157 0.0
C1508 C 0.82302 0.7598 0.54335 0.0
C1509 C 0.77852 0.78277 0.5328 0.0
C1510 C 0.7963 0.76589 0.52563 0.0
C1511 C 0.82595 0.74378 0.52748 0.0
C1512 C 0.83925 0.7408 0.53626 0.0
C1513 C 0.786 0.77391 0.51617 0.0
C1514 C 0.77661 0.74563 0.51041 0.0
C1515 C 0.78566 0.80954 0.51283 0.0
C1516 C 0.79755 0.84043 0.51837 0.0
C1517 C 0.83216 0.84102 0.52216 0.0
C1518 C 0.84306 0.87003 0.52745 0.0
C1519 C 0.8197 0.89878 0.52892 0.0
C1520 C 0.78542 0.89862 0.52509 0.0
C1521 C 0.77437 0.86963 0.51981 0.0
H1522 H 0.82818 0.92122 0.53301 0.0
H1523 H 0.7279 0.64035 0.48078 0.0
H1524 H 0.22954 0.29724 0.71837 0.0
H1525 H 0.2487 0.30092 0.73402 0.0
H1526 H 0.1655 0.22608 0.74163 0.0
H1527 H 0.14573 0.22274 0.72596 0.0
H1528 H 0.16314 0.28364 0.75196 0.0
H1529 H 0.25589 0.20342 0.74258 0.0
H1530 H 0.30547 0.18151 0.73306 0.0
H1531 H 0.36741 0.27543 0.73934 0.0
H1532 H 0.31798 0.29817 0.74881 0.0
H1533 H 0.21278 0.27985 0.7975 0.0
H1534 H 0.20575 0.25784 0.78215 0.0
H1535 H 0.28027 0.33811 0.77265 0.0
H1536 H 0.28766 0.36025 0.78803 0.0
H1537 H 0.28765 0.27311 0.76358 0.0
H1538 H 0.19308 0.3555 0.77168 0.0
H1539 H 0.1437 0.37805 0.7812 0.0
H1540 H 0.08537 0.27994 0.77716 0.0
H1541 H 0.1346 0.25665 0.76769 0.0
C1542 C 0.21574 0.28097 0.72333 0.0
C1543 C 0.18601 0.25976 0.7209 0.0
C1544 C 0.22683 0.28302 0.7323 0.0
C1545 C 0.20867 0.26367 0.73903 0.0
C1546 C 0.17993 0.2413 0.73656 0.0
C1547 C 0.16876 0.23928 0.72759 0.0
C1548 C 0.21769 0.26922 0.74869 0.0
C1549 C 0.19026 0.28056 0.75452 0.0
C1550 C 0.25325 0.26626 0.75202 0.0
C1551 C 0.28308 0.25264 0.74635 0.0
C1552 C 0.27996 0.21955 0.74188 0.0
C1553 C 0.30807 0.20695 0.7365 0.0
C1554 C 0.33954 0.2271 0.73558 0.0
C1555 C 0.343 0.25986 0.74006 0.0
C1556 C 0.31497 0.2726 0.74544 0.0
C1557 C 0.22833 0.29237 0.79219 0.0
C1558 C 0.25054 0.32207 0.79399 0.0
C1559 C 0.22414 0.27982 0.7834 0.0
C1560 C 0.24198 0.29675 0.77623 0.0
C1561 C 0.26613 0.32473 0.77808 0.0
C1562 C 0.27031 0.33737 0.78688 0.0
C1563 C 0.23309 0.28735 0.76678 0.0
C1564 C 0.26051 0.27562 0.761 0.0
C1565 C 0.19752 0.29002 0.76347 0.0
C1566 C 0.1677 0.30417 0.76907 0.0
C1567 C 0.16983 0.33864 0.77288 0.0
C1568 C 0.14186 0.35157 0.77825 0.0
C1569 C 0.11151 0.33036 0.77982 0.0
C1570 C 0.10895 0.29629 0.77596 0.0
C1571 C 0.13685 0.28322 0.77058 0.0
H1572 H 0.08995 0.34033 0.78401 0.0
H1573 H 0.36127 0.2173 0.73141 0.0
H1574 H 0.70901 0.7256 0.96767 0.0
H1575 H 0.70603 0.74568 0.98326 0.0
H1576 H 0.78551 0.66673 0.99067 0.0
H1577 H 0.78807 0.64597 0.9751 0.0
H1578 H 0.72952 0.66176 1.00133 0.0
H1579 H 0.8031 0.759 0.9912 0.0
H1580 H 0.82089 0.80953 0.98142 0.0
H1581 H 0.72384 0.8655 0.98827 0.0
H1582 H 0.70521 0.81507 0.998 0.0
H1583 H 0.73287 0.71214 0.04678 0.0
H1584 H 0.75454 0.70602 0.03135 0.0
H1585 H 0.67045 0.77658 0.0221 0.0
H1586 H 0.64875 0.78313 0.03754 0.0
H1587 H 0.73361 0.78692 0.01264 0.0
H1588 H 0.65775 0.68821 0.02145 0.0
H1589 H 0.63857 0.63777 0.0311 0.0
H1590 H 0.7392 0.5846 0.02642 0.0
H1591 H 0.7592 0.63503 0.01685 0.0
C1592 C 0.72647 0.71301 0.97257 0.0
C1593 C 0.74869 0.68407 0.97013 0.0
C1594 C 0.72482 0.72463 0.98151 0.0
C1595 C 0.74564 0.70785 0.98818 0.0
C1596 C 0.76912 0.68008 0.98567 0.0
C1597 C 0.77068 0.66834 0.97674 0.0
C1598 C 0.74039 0.71692 0.99786 0.0
C1599 C 0.73124 0.68907 1.00382 0.0
C1600 C 0.74147 0.75267 1.0011 0.0
C1601 C 0.75263 0.7831 0.99527 0.0
C1602 C 0.78542 0.78195 0.99057 0.0
C1603 C 0.79568 0.81061 0.98505 0.0
C1604 C 0.77348 0.84067 0.98421 0.0
C1605 C 0.741 0.84218 0.98892 0.0
C1606 C 0.7306 0.81359 0.99445 0.0
C1607 C 0.71942 0.72701 0.0415 0.0
C1608 C 0.68883 0.74786 0.0434 0.0
C1609 C 0.73178 0.72336 0.03267 0.0
C1610 C 0.71372 0.74031 0.02554 0.0
C1611 C 0.68473 0.76314 0.02748 0.0
C1612 C 0.67233 0.76682 0.03633 0.0
C1613 C 0.723 0.73173 0.01604 0.0
C1614 C 0.73253 0.75961 0.01013 0.0
C1615 C 0.72217 0.69601 0.01281 0.0
C1616 C 0.71013 0.66558 0.01852 0.0
C1617 C 0.6759 0.6659 0.02254 0.0
C1618 C 0.66486 0.63729 0.02799 0.0
C1619 C 0.68769 0.60805 0.02939 0.0
C1620 C 0.72158 0.60731 0.02534 0.0
C1621 C 0.73277 0.63589 0.0199 0.0
H1622 H 0.6791 0.58592 0.03361 0.0
H1623 H 0.78147 0.86283 0.97993 0.0
H1624 H 0.36159 0.22066 0.03727 0.0
H1625 H 0.33799 0.22655 0.02197 0.0
H1626 H 0.25557 0.29818 0.03161 0.0
H1627 H 0.27917 0.29279 0.04687 0.0
H1628 H 0.27371 0.21669 0.01297 0.0
H1629 H 0.25055 0.3691 0.01714 0.0
H1630 H 0.27265 0.41931 0.02643 0.0
H1631 H 0.37304 0.36463 0.03028 0.0
H1632 H 0.35175 0.31441 0.02091 0.0
H1633 H 0.21504 0.35801 0.97584 0.0
H1634 H 0.21914 0.33657 0.99136 0.0
H1635 H 0.29828 0.25834 0.98333 0.0
H1636 H 0.29389 0.27918 0.9678 0.0
H1637 H 0.2774 0.34175 1.00143 0.0
H1638 H 0.30022 0.1884 0.99812 0.0
H1639 H 0.28021 0.1381 0.9886 0.0
H1640 H 0.18263 0.19451 0.98248 0.0
H1641 H 0.2018 0.24492 0.99206 0.0
C1642 C 0.33795 0.23704 0.03617 0.0
C1643 C 0.32254 0.25661 0.04328 0.0
C1644 C 0.32446 0.24034 0.02742 0.0
C1645 C 0.29543 0.26332 0.02562 0.0
C1646 C 0.27836 0.28074 0.03281 0.0
C1647 C 0.29184 0.27753 0.04155 0.0
C1648 C 0.28523 0.27181 0.01618 0.0
C1649 C 0.27469 0.24397 0.01041 0.0
C1650 C 0.28606 0.3075 0.01288 0.0
C1651 C 0.29935 0.33782 0.01842 0.0
C1652 C 0.27737 0.36787 0.01995 0.0
C1653 C 0.28976 0.39632 0.02523 0.0
C1654 C 0.32417 0.39509 0.02897 0.0
C1655 C 0.34634 0.36549 0.02741 0.0
C1656 C 0.33411 0.33701 0.02212 0.0
C1657 C 0.23265 0.33563 0.97733 0.0
C1658 C 0.25424 0.32042 0.97057 0.0
C1659 C 0.23508 0.3235 0.98623 0.0
C1660 C 0.259 0.2958 0.98854 0.0
C1661 C 0.27924 0.27937 0.98172 0.0
C1662 C 0.27677 0.29143 0.97283 0.0
C1663 C 0.2655 0.28668 0.99816 0.0
C1664 C 0.27576 0.31448 1.00398 0.0
C1665 C 0.26464 0.25095 1.00145 0.0
C1666 C 0.25263 0.22058 0.99575 0.0
C1667 C 0.27442 0.19 0.99477 0.0
C1668 C 0.26324 0.16148 0.98936 0.0
C1669 C 0.23022 0.16315 0.98491 0.0
C1670 C 0.20826 0.19331 0.9859 0.0
C1671 C 0.2193 0.22189 0.99131 0.0
H1672 H 0.22162 0.14105 0.98072 0.0
H1673 H 0.33369 0.41712 0.03306 0.0
H1674 H 0.71412 0.77886 0.29567 0.0
H1675 H 0.71032 0.75915 0.28006 0.0
H1676 H 0.78811 0.83949 0.27239 0.0
H1677 H 0.79158 0.85982 0.28799 0.0
H1678 H 0.73048 0.8439 0.26212 0.0
H1679 H 0.80728 0.74808 0.27154 0.0
H1680 H 0.82704 0.69763 0.28109 0.0
H1681 H 0.7307 0.63965 0.27468 0.0
H1682 H 0.7101 0.68997 0.26519 0.0
H1683 H 0.73134 0.7961 0.21659 0.0
H1684 H 0.75417 0.80159 0.23191 0.0
H1685 H 0.67236 0.72858 0.24133 0.0
H1686 H 0.64948 0.72264 0.22597 0.0
H1687 H 0.73659 0.71936 0.25045 0.0
H1688 H 0.65745 0.8162 0.24239 0.0
H1689 H 0.63593 0.86644 0.23301 0.0
H1690 H 0.73538 0.92241 0.23722 0.0
H1691 H 0.75772 0.87219 0.24651 0.0
C1692 C 0.73105 0.79186 0.29071 0.0
C1693 C 0.75307 0.82104 0.29309 0.0
C1694 C 0.72893 0.78044 0.28176 0.0
C1695 C 0.74901 0.79772 0.27502 0.0
C1696 C 0.77231 0.82575 0.27746 0.0
C1697 C 0.77439 0.83724 0.2864 0.0
C1698 C 0.74307 0.78891 0.26536 0.0
C1699 C 0.73264 0.81675 0.25954 0.0
C1700 C 0.74467 0.75332 0.26203 0.0
C1701 C 0.75702 0.72295 0.26771 0.0
C1702 C 0.79017 0.72469 0.27222 0.0
C1703 C 0.80155 0.69609 0.27762 0.0
C1704 C 0.7801 0.66549 0.27851 0.0
C1705 C 0.74727 0.66339 0.27399 0.0
C1706 C 0.73576 0.69192 0.26859 0.0
C1707 C 0.71865 0.78055 0.22187 0.0
C1708 C 0.68831 0.75921 0.22006 0.0
C1709 C 0.73168 0.78384 0.23065 0.0
C1710 C 0.71456 0.76604 0.2378 0.0
C1711 C 0.68592 0.74268 0.23592 0.0
C1712 C 0.67285 0.73934 0.22713 0.0
C1713 C 0.72432 0.77439 0.24726 0.0
C1714 C 0.73507 0.74652 0.25303 0.0
C1715 C 0.72285 0.80994 0.2506 0.0
C1716 C 0.70941 0.84026 0.24506 0.0
C1717 C 0.67484 0.83909 0.24125 0.0
C1718 C 0.66248 0.86758 0.23596 0.0
C1719 C 0.68432 0.89755 0.2345 0.0
C1720 C 0.71853 0.89914 0.23834 0.0
C1721 C 0.73105 0.87067 0.24363 0.0
H1722 H 0.6747 0.91959 0.2304 0.0
H1723 H 0.78896 0.64338 0.28269 0.0
H1724 H 0.20692 0.22538 0.46757 0.0
H1725 H 0.20276 0.24582 0.48311 0.0
H1726 H 0.28211 0.16748 0.49099 0.0
H1727 H 0.28591 0.14638 0.47546 0.0
H1728 H 0.22494 0.16275 0.50143 0.0
H1729 H 0.29958 0.25949 0.49127 0.0
H1730 H 0.31772 0.30964 0.48141 0.0
H1731 H 0.22045 0.36589 0.48791 0.0
H1732 H 0.20148 0.31585 0.49772 0.0
H1733 H 0.23057 0.21432 0.5467 0.0
H1734 H 0.25092 0.20743 0.53119 0.0
H1735 H 0.16708 0.27881 0.5222 0.0
H1736 H 0.14666 0.28615 0.53775 0.0
H1737 H 0.22987 0.28819 0.51252 0.0
H1738 H 0.15303 0.19055 0.52149 0.0
H1739 H 0.13321 0.14053 0.53121 0.0
H1740 H 0.23328 0.08617 0.52665 0.0
H1741 H 0.25386 0.13607 0.51699 0.0
C1742 C 0.22409 0.21298 0.47256 0.0
C1743 C 0.24668 0.18414 0.47026 0.0
C1744 C 0.22174 0.2248 0.48147 0.0
C1745 C 0.2422 0.20831 0.48825 0.0
C1746 C 0.266 0.1806 0.48589 0.0
C1747 C 0.26827 0.16868 0.47699 0.0
C1748 C 0.23639 0.21772 0.49788 0.0
C1749 C 0.22679 0.19012 0.50387 0.0
C1750 C 0.23759 0.25356 0.50105 0.0
C1751 C 0.24898 0.28376 0.49518 0.0
C1752 C 0.28193 0.28243 0.49055 0.0
C1753 C 0.29238 0.31086 0.48498 0.0
C1754 C 0.27022 0.34089 0.48402 0.0
C1755 C 0.23758 0.34259 0.48865 0.0
C1756 C 0.22699 0.31422 0.49423 0.0
C1757 C 0.21687 0.22919 0.54146 0.0
C1758 C 0.18675 0.25054 0.54347 0.0
C1759 C 0.22847 0.22508 0.53258 0.0
C1760 C 0.2101 0.24204 0.52551 0.0
C1761 C 0.18157 0.26534 0.52754 0.0
C1762 C 0.16993 0.2695 0.53644 0.0
C1763 C 0.21878 0.23319 0.51601 0.0
C1764 C 0.22856 0.26083 0.51006 0.0
C1765 C 0.21757 0.19739 0.51284 0.0
C1766 C 0.20515 0.16723 0.5186 0.0
C1767 C 0.17092 0.16805 0.52262 0.0
C1768 C 0.15952 0.13971 0.5281 0.0
C1769 C 0.18204 0.11027 0.52958 0.0
C1770 C 0.21591 0.10903 0.52552 0.0
C1771 C 0.22744 0.13732 0.52003 0.0
H1772 H 0.17322 0.08839 0.53384 0.0
H1773 H 0.27836 0.36287 0.4797 0.0
H1774 H 0.78221 0.71215 0.71783 0.0
H1775 H 0.76209 0.70905 0.73342 0.0
H1776 H 0.84119 0.78834 0.74081 0.0
H1777 H 0.86197 0.79111 0.72521 0.0
H1778 H 0.84618 0.73144 0.75133 0.0
H1779 H 0.74938 0.80621 0.74154 0.0
H1780 H 0.69886 0.82476 0.73188 0.0
H1781 H 0.6421 0.72794 0.73859 0.0
H1782 H 0.69251 0.70855 0.7482 0.0
H1783 H 0.7971 0.73201 0.79682 0.0
H1784 H 0.80259 0.75497 0.78148 0.0
H1785 H 0.73105 0.6721 0.77207 0.0
H1786 H 0.72508 0.64913 0.78743 0.0
H1787 H 0.72111 0.73593 0.76286 0.0
H1788 H 0.81913 0.65857 0.77118 0.0
H1789 H 0.86944 0.63816 0.78068 0.0
H1790 H 0.92381 0.73845 0.77635 0.0
H1791 H 0.8735 0.75968 0.76694 0.0
C1792 C 0.79484 0.72955 0.72272 0.0
C1793 C 0.82383 0.75178 0.72026 0.0
C1794 C 0.78318 0.72783 0.73166 0.0
C1795 C 0.8 0.74854 0.73832 0.0
C1796 C 0.8278 0.77206 0.7358 0.0
C1797 C 0.83955 0.77374 0.72686 0.0
C1798 C 0.79103 0.743 0.74799 0.0
C1799 C 0.8189 0.73327 0.75387 0.0
C1800 C 0.7553 0.74418 0.75129 0.0
C1801 C 0.72487 0.7558 0.74554 0.0
C1802 C 0.72625 0.78874 0.74091 0.0
C1803 C 0.6976 0.79943 0.73545 0.0
C1804 C 0.66732 0.77751 0.73461 0.0
C1805 C 0.66558 0.74488 0.73925 0.0
C1806 C 0.69417 0.73405 0.74471 0.0
C1807 C 0.78186 0.71911 0.79153 0.0
C1808 C 0.76095 0.68846 0.79335 0.0
C1809 C 0.78514 0.73222 0.78275 0.0
C1810 C 0.76778 0.71484 0.7756 0.0
C1811 C 0.7448 0.68586 0.77748 0.0
C1812 C 0.74146 0.67273 0.78627 0.0
C1813 C 0.77628 0.72464 0.76613 0.0
C1814 C 0.74839 0.73479 0.7603 0.0
C1815 C 0.81198 0.72366 0.76283 0.0
C1816 C 0.84237 0.71087 0.76844 0.0
C1817 C 0.84168 0.67638 0.77231 0.0
C1818 C 0.87021 0.66465 0.77767 0.0
C1819 C 0.89975 0.68704 0.77914 0.0
C1820 C 0.90087 0.72117 0.77523 0.0
C1821 C 0.87236 0.73306 0.76988 0.0
H1822 H 0.92182 0.6779 0.78329 0.0
H1823 H 0.64517 0.78583 0.73038 0.0
loop_
_geom_bond_atom_site_label_1
_geom_bond_atom_site_label_2
_geom_bond_distance
_geom_bond_site_symmetry_2
_ccdc_geom_bond_type
O0 Cd1 2.223 . S
O0 C8 1.315 . S
Cd1 O0 2.223 . S
Cd1 O4 2.297 . S
Cd1 O5 2.439 . S
Cd1 O11 2.240 . S
Cd2 O3 2.240 . S
Cd2 O10 2.223 . S
Cd2 O12 2.297 . S
Cd2 O13 2.439 . S
O3 Cd2 2.240 . S
O3 C8 1.279 . S
O4 Cd1 2.297 . S
O4 C6 1.247 . S
O5 Cd1 2.439 . S
O5 C6 1.208 . S
C6 O4 1.247 . S
C6 O5 1.208 . S
C7 O12 1.247 . S
C7 O13 1.208 . S
C8 O0 1.315 . S
C8 O3 1.279 . S
C9 O10 1.315 . S
C9 O11 1.279 . S
O10 Cd2 2.223 . S
O10 C9 1.315 . S
O11 Cd1 2.240 . S
O11 C9 1.279 . S
O12 Cd2 2.297 . S
O12 C7 1.247 . S
O13 Cd2 2.439 . S
O13 C7 1.208 . S
O14 Cd15 2.223 . S
O14 C22 1.315 . S
Cd15 O14 2.223 . S
Cd15 O18 2.297 . S
Cd15 O19 2.439 . S
Cd15 O25 2.240 . S
Cd16 O17 2.240 . S
Cd16 O24 2.223 . S
Cd16 O26 2.297 . S
Cd16 O27 2.439 . S
O17 Cd16 2.240 . S
O17 C22 1.279 . S
O18 Cd15 2.297 . S
O18 C20 1.247 . S
O19 Cd15 2.439 . S
O19 C20 1.208 . S
C20 O18 1.247 . S
C20 O19 1.208 . S
C21 O26 1.247 . S
C21 O27 1.208 . S
C22 O14 1.315 . S
C22 O17 1.279 . S
C23 O24 1.315 . S
C23 O25 1.279 . S
O24 Cd16 2.223 . S
O24 C23 1.315 . S
O25 Cd15 2.240 . S
O25 C23 1.279 . S
O26 Cd16 2.297 . S
O26 C21 1.247 . S
O27 Cd16 2.439 . S
O27 C21 1.208 . S
O28 Cd29 2.223 . S
O28 C36 1.315 . S
Cd29 O28 2.223 . S
Cd29 O32 2.297 . S
Cd29 O33 2.439 . S
Cd29 O39 2.240 . S
Cd30 O31 2.240 . S
Cd30 O38 2.223 . S
Cd30 O40 2.297 . S
Cd30 O41 2.439 . S
O31 Cd30 2.240 . S
O31 C36 1.279 . S
O32 Cd29 2.297 . S
O32 C34 1.247 . S
O33 Cd29 2.439 . S
O33 C34 1.208 . S
C34 O32 1.247 . S
C34 O33 1.208 . S
C35 O40 1.247 . S
C35 O41 1.208 . S
C36 O28 1.315 . S
C36 O31 1.279 . S
C37 O38 1.315 . S
C37 O39 1.279 . S
O38 Cd30 2.223 . S
O38 C37 1.315 . S
O39 Cd29 2.240 . S
O39 C37 1.279 . S
O40 Cd30 2.297 . S
O40 C35 1.247 . S
O41 Cd30 2.439 . S
O41 C35 1.208 . S
O42 Cd43 2.223 . S
O42 C50 1.315 . S
Cd43 O42 2.223 . S
Cd43 O46 2.297 . S
Cd43 O47 2.439 . S
Cd43 O53 2.240 . S
Cd44 O45 2.240 . S
Cd44 O52 2.223 . S
Cd44 O54 2.297 . S
Cd44 O55 2.439 . S
O45 Cd44 2.240 . S
O45 C50 1.279 . S
O46 Cd43 2.297 . S
O46 C48 1.247 . S
O47 Cd43 2.439 . S
O47 C48 1.208 . S
C48 O46 1.247 . S
C48 O47 1.208 . S
C49 O54 1.247 . S
C49 O55 1.208 . S
C50 O42 1.315 . S
C50 O45 1.279 . S
C51 O52 1.315 . S
C51 O53 1.279 . S
O52 Cd44 2.223 . S
O52 C51 1.315 . S
O53 Cd43 2.240 . S
O53 C51 1.279 . S
O54 Cd44 2.297 . S
O54 C49 1.247 . S
O55 Cd44 2.439 . S
O55 C49 1.208 . S
O56 Cd57 2.223 . S
O56 C64 1.315 . S
Cd57 O56 2.223 . S
Cd57 O60 2.297 . S
Cd57 O61 2.439 . S
Cd57 O67 2.240 . S
Cd58 O59 2.240 . S
Cd58 O66 2.223 . S
Cd58 O68 2.297 . S
Cd58 O69 2.439 . S
O59 Cd58 2.240 . S
O59 C64 1.279 . S
O60 Cd57 2.297 . S
O60 C62 1.247 . S
O61 Cd57 2.439 . S
O61 C62 1.208 . S
C62 O60 1.247 . S
C62 O61 1.208 . S
C63 O68 1.247 . S
C63 O69 1.208 . S
C64 O56 1.315 . S
C64 O59 1.279 . S
C65 O66 1.315 . S
C65 O67 1.279 . S
O66 Cd58 2.223 . S
O66 C65 1.315 . S
O67 Cd57 2.240 . S
O67 C65 1.279 . S
O68 Cd58 2.297 . S
O68 C63 1.247 . S
O69 Cd58 2.439 . S
O69 C63 1.208 . S
O70 Cd71 2.223 . S
O70 C78 1.315 . S
Cd71 O70 2.223 . S
Cd71 O74 2.297 . S
Cd71 O75 2.439 . S
Cd71 O81 2.240 . S
Cd72 O73 2.240 . S
Cd72 O80 2.223 . S
Cd72 O82 2.297 . S
Cd72 O83 2.439 . S
O73 Cd72 2.240 . S
O73 C78 1.279 . S
O74 Cd71 2.297 . S
O74 C76 1.247 . S
O75 Cd71 2.439 . S
O75 C76 1.208 . S
C76 O74 1.247 . S
C76 O75 1.208 . S
C77 O82 1.247 . S
C77 O83 1.208 . S
C78 O70 1.315 . S
C78 O73 1.279 . S
C79 O80 1.315 . S
C79 O81 1.279 . S
O80 Cd72 2.223 . S
O80 C79 1.315 . S
O81 Cd71 2.240 . S
O81 C79 1.279 . S
O82 Cd72 2.297 . S
O82 C77 1.247 . S
O83 Cd72 2.439 . S
O83 C77 1.208 . S
O84 Cd85 2.223 . S
O84 C92 1.315 . S
Cd85 O84 2.223 . S
Cd85 O88 2.297 . S
Cd85 O89 2.439 . S
Cd85 O95 2.240 . S
Cd86 O87 2.240 . S
Cd86 O94 2.223 . S
Cd86 O96 2.297 . S
Cd86 O97 2.439 . S
O87 Cd86 2.240 . S
O87 C92 1.279 . S
O88 Cd85 2.297 . S
O88 C90 1.247 . S
O89 Cd85 2.439 . S
O89 C90 1.208 . S
C90 O88 1.247 . S
C90 O89 1.208 . S
C91 O96 1.247 . S
C91 O97 1.208 . S
C92 O84 1.315 . S
C92 O87 1.279 . S
C93 O94 1.315 . S
C93 O95 1.279 . S
O94 Cd86 2.223 . S
O94 C93 1.315 . S
O95 Cd85 2.240 . S
O95 C93 1.279 . S
O96 Cd86 2.297 . S
O96 C91 1.247 . S
O97 Cd86 2.439 . S
O97 C91 1.208 . S
O98 Cd99 2.223 . S
O98 C106 1.315 . S
Cd99 O98 2.223 . S
Cd99 O102 2.297 . S
Cd99 O103 2.439 . S
Cd99 O109 2.240 . S
Cd100 O101 2.240 . S
Cd100 O108 2.223 . S
Cd100 O110 2.297 . S
Cd100 O111 2.439 . S
O101 Cd100 2.240 . S
O101 C106 1.279 . S
O102 Cd99 2.297 . S
O102 C104 1.247 . S
O103 Cd99 2.439 . S
O103 C104 1.208 . S
C104 O102 1.247 . S
C104 O103 1.208 . S
C105 O110 1.247 . S
C105 O111 1.208 . S
C106 O98 1.315 . S
C106 O101 1.279 . S
C107 O108 1.315 . S
C107 O109 1.279 . S
O108 Cd100 2.223 . S
O108 C107 1.315 . S
O109 Cd99 2.240 . S
O109 C107 1.279 . S
O110 Cd100 2.297 . S
O110 C105 1.247 . S
O111 Cd100 2.439 . S
O111 C105 1.208 . S
O112 Cd113 2.223 . S
O112 C120 1.315 . S
Cd113 O112 2.223 . S
Cd113 O116 2.297 . S
Cd113 O117 2.439 . S
Cd113 O123 2.240 . S
Cd114 O115 2.240 . S
Cd114 O122 2.223 . S
Cd114 O124 2.297 . S
Cd114 O125 2.439 . S
O115 Cd114 2.240 . S
O115 C120 1.279 . S
O116 Cd113 2.297 . S
O116 C118 1.247 . S
O117 Cd113 2.439 . S
O117 C118 1.208 . S
C118 O116 1.247 . S
C118 O117 1.208 . S
C119 O124 1.247 . S
C119 O125 1.208 . S
C120 O112 1.315 . S
C120 O115 1.279 . S
C121 O122 1.315 . S
C121 O123 1.279 . S
O122 Cd114 2.223 . S
O122 C121 1.315 . S
O123 Cd113 2.240 . S
O123 C121 1.279 . S
O124 Cd114 2.297 . S
O124 C119 1.247 . S
O125 Cd114 2.439 . S
O125 C119 1.208 . S
O126 Cd127 2.223 . S
O126 C134 1.315 . S
Cd127 O126 2.223 . S
Cd127 O130 2.297 . S
Cd127 O131 2.439 . S
Cd127 O137 2.240 . S
Cd128 O129 2.240 . S
Cd128 O136 2.223 . S
Cd128 O138 2.297 . S
Cd128 O139 2.439 . S
O129 Cd128 2.240 . S
O129 C134 1.279 . S
O130 Cd127 2.297 . S
O130 C132 1.247 . S
O131 Cd127 2.439 . S
O131 C132 1.208 . S
C132 O130 1.247 . S
C132 O131 1.208 . S
C133 O138 1.247 . S
C133 O139 1.208 . S
C134 O126 1.315 . S
C134 O129 1.279 . S
C135 O136 1.315 . S
C135 O137 1.279 . S
O136 Cd128 2.223 . S
O136 C135 1.315 . S
O137 Cd127 2.240 . S
O137 C135 1.279 . S
O138 Cd128 2.297 . S
O138 C133 1.247 . S
O139 Cd128 2.439 . S
O139 C133 1.208 . S
O140 Cd141 2.223 . S
O140 C148 1.315 . S
Cd141 O140 2.223 . S
Cd141 O144 2.297 . S
Cd141 O145 2.439 . S
Cd141 O151 2.240 . S
Cd142 O143 2.240 . S
Cd142 O150 2.223 . S
Cd142 O152 2.297 . S
Cd142 O153 2.439 . S
O143 Cd142 2.240 . S
O143 C148 1.279 . S
O144 Cd141 2.297 . S
O144 C146 1.247 . S
O145 Cd141 2.439 . S
O145 C146 1.208 . S
C146 O144 1.247 . S
C146 O145 1.208 . S
C147 O152 1.247 . S
C147 O153 1.208 . S
C148 O140 1.315 . S
C148 O143 1.279 . S
C149 O150 1.315 . S
C149 O151 1.279 . S
O150 Cd142 2.223 . S
O150 C149 1.315 . S
O151 Cd141 2.240 . S
O151 C149 1.279 . S
O152 Cd142 2.297 . S
O152 C147 1.247 . S
O153 Cd142 2.439 . S
O153 C147 1.208 . S
O154 Cd155 2.223 . S
O154 C162 1.315 . S
Cd155 O154 2.223 . S
Cd155 O158 2.297 . S
Cd155 O159 2.439 . S
Cd155 O165 2.240 . S
Cd156 O157 2.240 . S
Cd156 O164 2.223 . S
Cd156 O166 2.297 . S
Cd156 O167 2.439 . S
O157 Cd156 2.240 . S
O157 C162 1.279 . S
O158 Cd155 2.297 . S
O158 C160 1.247 . S
O159 Cd155 2.439 . S
O159 C160 1.208 . S
C160 O158 1.247 . S
C160 O159 1.208 . S
C161 O166 1.247 . S
C161 O167 1.208 . S
C162 O154 1.315 . S
C162 O157 1.279 . S
C163 O164 1.315 . S
C163 O165 1.279 . S
O164 Cd156 2.223 . S
O164 C163 1.315 . S
O165 Cd155 2.240 . S
O165 C163 1.279 . S
O166 Cd156 2.297 . S
O166 C161 1.247 . S
O167 Cd156 2.439 . S
O167 C161 1.208 . S
O168 Cd169 2.223 . S
O168 C176 1.315 . S
Cd169 O168 2.223 . S
Cd169 O172 2.297 . S
Cd169 O173 2.439 . S
Cd169 O179 2.240 . S
Cd170 O171 2.240 . S
Cd170 O178 2.223 . S
Cd170 O180 2.297 . S
Cd170 O181 2.439 . S
O171 Cd170 2.240 . S
O171 C176 1.279 . S
O172 Cd169 2.297 . S
O172 C174 1.247 . S
O173 Cd169 2.439 . S
O173 C174 1.208 . S
C174 O172 1.247 . S
C174 O173 1.208 . S
C175 O180 1.247 . S
C175 O181 1.208 . S
C176 O168 1.315 . S
C176 O171 1.279 . S
C177 O178 1.315 . S
C177 O179 1.279 . S
O178 Cd170 2.223 . S
O178 C177 1.315 . S
O179 Cd169 2.240 . S
O179 C177 1.279 . S
O180 Cd170 2.297 . S
O180 C175 1.247 . S
O181 Cd170 2.439 . S
O181 C175 1.208 . S
O182 Cd183 2.223 . S
O182 C190 1.315 . S
Cd183 O182 2.223 . S
Cd183 O186 2.297 . S
Cd183 O187 2.439 . S
Cd183 O193 2.240 . S
Cd184 O185 2.240 . S
Cd184 O192 2.223 . S
Cd184 O194 2.297 . S
Cd184 O195 2.439 . S
O185 Cd184 2.240 . S
O185 C190 1.279 . S
O186 Cd183 2.297 . S
O186 C188 1.247 . S
O187 Cd183 2.439 . S
O187 C188 1.208 . S
C188 O186 1.247 . S
C188 O187 1.208 . S
C189 O194 1.247 . S
C189 O195 1.208 . S
C190 O182 1.315 . S
C190 O185 1.279 . S
C191 O192 1.315 . S
C191 O193 1.279 . S
O192 Cd184 2.223 . S
O192 C191 1.315 . S
O193 Cd183 2.240 . S
O193 C191 1.279 . S
O194 Cd184 2.297 . S
O194 C189 1.247 . S
O195 Cd184 2.439 . S
O195 C189 1.208 . S
O196 Cd197 2.223 . S
O196 C204 1.315 . S
Cd197 O196 2.223 . S
Cd197 O200 2.297 . S
Cd197 O201 2.439 . S
Cd197 O207 2.240 . S
Cd198 O199 2.240 . S
Cd198 O206 2.223 . S
Cd198 O208 2.297 . S
Cd198 O209 2.439 . S
O199 Cd198 2.240 . S
O199 C204 1.279 . S
O200 Cd197 2.297 . S
O200 C202 1.247 . S
O201 Cd197 2.439 . S
O201 C202 1.208 . S
C202 O200 1.247 . S
C202 O201 1.208 . S
C203 O208 1.247 . S
C203 O209 1.208 . S
C204 O196 1.315 . S
C204 O199 1.279 . S
C205 O206 1.315 . S
C205 O207 1.279 . S
O206 Cd198 2.223 . S
O206 C205 1.315 . S
O207 Cd197 2.240 . S
O207 C205 1.279 . S
O208 Cd198 2.297 . S
O208 C203 1.247 . S
O209 Cd198 2.439 . S
O209 C203 1.208 . S
O210 Cd211 2.223 . S
O210 C218 1.315 . S
Cd211 O210 2.223 . S
Cd211 O214 2.297 . S
Cd211 O215 2.439 . S
Cd211 O221 2.240 . S
Cd212 O213 2.240 . S
Cd212 O220 2.223 . S
Cd212 O222 2.297 . S
Cd212 O223 2.439 . S
O213 Cd212 2.240 . S
O213 C218 1.279 . S
O214 Cd211 2.297 . S
O214 C216 1.247 . S
O215 Cd211 2.439 . S
O215 C216 1.208 . S
C216 O214 1.247 . S
C216 O215 1.208 . S
C217 O222 1.247 . S
C217 O223 1.208 . S
C218 O210 1.315 . S
C218 O213 1.279 . S
C219 O220 1.315 . S
C219 O221 1.279 . S
O220 Cd212 2.223 . S
O220 C219 1.315 . S
O221 Cd211 2.240 . S
O221 C219 1.279 . S
O222 Cd212 2.297 . S
O222 C217 1.247 . S
O223 Cd212 2.439 . S
O223 C217 1.208 . S
H224 C242 0.951 . S
H225 C244 0.951 1_545 S
H226 C246 0.950 . S
H227 C247 0.950 . S
H228 C249 0.950 . S
H229 C252 0.950 . S
H230 C253 0.950 . S
H231 C255 0.950 . S
H232 C256 0.950 . S
H233 C257 0.951 . S
H234 C259 0.951 1_565 S
H235 C261 0.950 . S
H236 C262 0.950 . S
H237 C264 0.950 . S
H238 C267 0.950 . S
H239 C268 0.950 . S
H240 C270 0.950 . S
H241 C271 0.950 . S
C242 H224 0.951 . S
C242 C243 1.366 . S
C242 C244 1.388 . S
C243 C242 1.366 . S
C243 C247 1.385 . S
C244 H225 0.951 1_565 S
C244 C242 1.388 . S
C244 C245 1.366 . S
C245 C244 1.366 . S
C245 C246 1.414 . S
C245 C248 1.499 . S
C246 H226 0.950 . S
C246 C245 1.414 . S
C246 C247 1.374 . S
C247 H227 0.950 . S
C247 C243 1.385 . S
C247 C246 1.374 . S
C248 C245 1.499 . S
C248 C249 1.373 . S
C248 C250 1.389 . S
C249 H228 0.950 . S
C249 C248 1.373 . S
C249 C265 1.374 1_665 S
C250 C248 1.389 . S
C250 C251 1.524 . S
C250 C264 1.377 1_665 S
C251 C250 1.524 . S
C251 C252 1.397 . S
C251 C256 1.363 1_565 S
C252 H229 0.950 . S
C252 C251 1.397 . S
C252 C253 1.334 . S
C253 H230 0.950 . S
C253 C252 1.334 . S
C253 C254 1.287 . S
C254 C253 1.287 . S
C254 C255 1.524 1_565 S
C254 H273 0.913 . S
C255 H231 0.950 . S
C255 C254 1.524 1_545 S
C255 C256 1.415 . S
C256 H232 0.950 . S
C256 C251 1.363 1_545 S
C256 C255 1.415 . S
C257 H233 0.951 . S
C257 C258 1.366 . S
C257 C259 1.388 . S
C258 C257 1.366 . S
C258 C262 1.385 . S
C259 H234 0.951 1_545 S
C259 C257 1.388 . S
C259 C260 1.366 . S
C260 C259 1.366 . S
C260 C261 1.414 . S
C260 C263 1.499 . S
C261 H235 0.950 . S
C261 C260 1.414 . S
C261 C262 1.374 . S
C262 H236 0.950 . S
C262 C258 1.385 . S
C262 C261 1.374 . S
C263 C260 1.499 . S
C263 C264 1.373 . S
C263 C265 1.392 . S
C264 H237 0.950 . S
C264 C250 1.377 1_445 S
C264 C263 1.373 . S
C265 C249 1.374 1_445 S
C265 C263 1.392 . S
C265 C266 1.525 . S
C266 C265 1.525 . S
C266 C267 1.397 . S
C266 C271 1.363 1_545 S
C267 H238 0.950 . S
C267 C266 1.397 . S
C267 C268 1.334 . S
C268 H239 0.950 . S
C268 C267 1.334 . S
C268 C269 1.287 . S
C269 C268 1.287 . S
C269 C270 1.524 1_545 S
C269 H272 0.999 . S
C270 H240 0.950 . S
C270 C269 1.524 1_565 S
C270 C271 1.415 . S
C271 H241 0.950 . S
C271 C266 1.363 1_565 S
C271 C270 1.415 . S
H272 C269 0.999 . S
H273 C254 0.913 . S
H274 C292 0.951 . S
H275 C294 0.951 . S
H276 C296 0.950 1_455 S
H277 C297 0.950 . S
H278 C299 0.950 . S
H279 C302 0.950 . S
H280 C303 0.950 . S
H281 C305 0.950 . S
H282 C306 0.950 . S
H283 C307 0.951 . S
H284 C309 0.951 . S
H285 C311 0.950 1_655 S
H286 C312 0.950 . S
H287 C314 0.950 . S
H288 C317 0.950 . S
H289 C318 0.950 . S
H290 C320 0.950 . S
H291 C321 0.950 . S
C292 H274 0.951 . S
C292 C293 1.366 . S
C292 C294 1.388 . S
C293 C292 1.366 . S
C293 C297 1.385 . S
C294 H275 0.951 . S
C294 C292 1.388 . S
C294 C295 1.366 . S
C295 C294 1.366 . S
C295 C296 1.414 . S
C295 C298 1.499 . S
C296 H276 0.950 1_655 S
C296 C295 1.414 . S
C296 C297 1.374 . S
C297 H277 0.950 . S
C297 C293 1.385 . S
C297 C296 1.374 . S
C298 C295 1.499 . S
C298 C299 1.373 . S
C298 C300 1.389 . S
C299 H278 0.950 . S
C299 C298 1.373 . S
C299 C315 1.377 1_655 S
C300 C298 1.389 . S
C300 C301 1.524 . S
C300 C314 1.377 1_655 S
C301 C300 1.524 . S
C301 C302 1.397 1_655 S
C301 C306 1.363 . S
C302 H279 0.950 . S
C302 C301 1.397 1_455 S
C302 C303 1.334 . S
C303 H280 0.950 . S
C303 C302 1.334 . S
C303 C304 1.287 1_455 S
C304 C303 1.287 1_655 S
C304 C305 1.524 . S
C304 H323 0.913 . S
C305 H281 0.950 . S
C305 C304 1.524 . S
C305 C306 1.415 . S
C306 H282 0.950 . S
C306 C301 1.363 . S
C306 C305 1.415 . S
C307 H283 0.951 . S
C307 C308 1.366 . S
C307 C309 1.388 . S
C308 C307 1.366 . S
C308 C312 1.385 . S
C309 H284 0.951 . S
C309 C307 1.388 . S
C309 C310 1.366 . S
C310 C309 1.366 . S
C310 C311 1.414 . S
C310 C313 1.499 . S
C311 H285 0.950 1_455 S
C311 C310 1.414 . S
C311 C312 1.374 . S
C312 H286 0.950 . S
C312 C308 1.385 . S
C312 C311 1.374 . S
C313 C310 1.499 . S
C313 C314 1.373 . S
C313 C315 1.389 . S
C314 H287 0.950 . S
C314 C300 1.377 1_455 S
C314 C313 1.373 . S
C315 C299 1.377 1_455 S
C315 C313 1.389 . S
C315 C316 1.524 . S
C316 C315 1.524 . S
C316 C317 1.397 1_455 S
C316 C321 1.363 . S
C317 H288 0.950 . S
C317 C316 1.397 1_655 S
C317 C318 1.334 . S
C318 H289 0.950 . S
C318 C317 1.334 . S
C318 C319 1.287 1_655 S
C319 C318 1.287 1_455 S
C319 C320 1.524 . S
C319 H322 0.999 . S
C320 H290 0.950 . S
C320 C319 1.524 . S
C320 C321 1.415 . S
C321 H291 0.950 . S
C321 C316 1.363 . S
C321 C320 1.415 . S
H322 C319 0.999 . S
H323 C304 0.913 . S
H324 C342 0.951 . S
H325 C344 0.951 . S
H326 C346 0.950 . S
H327 C347 0.950 . S
H328 C349 0.950 . S
H329 C352 0.950 . S
H330 C353 0.950 . S
H331 C355 0.950 . S
H332 C356 0.950 . S
H333 C357 0.951 . S
H334 C359 0.951 . S
H335 C361 0.950 . S
H336 C362 0.950 . S
H337 C364 0.950 . S
H338 C367 0.950 . S
H339 C368 0.950 . S
H340 C370 0.950 . S
H341 C371 0.950 . S
C342 H324 0.951 . S
C342 C343 1.366 . S
C342 C344 1.388 . S
C343 C342 1.366 . S
C343 C347 1.385 . S
C344 H325 0.951 . S
C344 C342 1.388 . S
C344 C345 1.366 . S
C345 C344 1.366 . S
C345 C346 1.414 . S
C345 C348 1.499 . S
C346 H326 0.950 . S
C346 C345 1.414 . S
C346 C347 1.374 . S
C347 H327 0.950 . S
C347 C343 1.385 . S
C347 C346 1.374 . S
C348 C345 1.499 . S
C348 C349 1.373 . S
C348 C350 1.389 . S
C349 H328 0.950 . S
C349 C348 1.373 . S
C349 C365 1.377 . S
C350 C348 1.389 . S
C350 C351 1.524 . S
C350 C364 1.377 . S
C351 C350 1.524 . S
C351 C352 1.397 . S
C351 C356 1.363 . S
C352 H329 0.950 . S
C352 C351 1.397 . S
C352 C353 1.334 . S
C353 H330 0.950 . S
C353 C352 1.334 . S
C353 C354 1.287 . S
C354 C353 1.287 . S
C354 C355 1.524 . S
C354 H373 0.913 . S
C355 H331 0.950 . S
C355 C354 1.524 . S
C355 C356 1.415 . S
C356 H332 0.950 . S
C356 C351 1.363 . S
C356 C355 1.415 . S
C357 H333 0.951 . S
C357 C358 1.366 . S
C357 C359 1.388 . S
C358 C357 1.366 . S
C358 C362 1.385 . S
C359 H334 0.951 . S
C359 C357 1.388 . S
C359 C360 1.366 . S
C360 C359 1.366 . S
C360 C361 1.414 . S
C360 C363 1.499 . S
C361 H335 0.950 . S
C361 C360 1.414 . S
C361 C362 1.374 . S
C362 H336 0.950 . S
C362 C358 1.385 . S
C362 C361 1.374 . S
C363 C360 1.499 . S
C363 C364 1.373 . S
C363 C365 1.389 . S
C364 H337 0.950 . S
C364 C350 1.377 . S
C364 C363 1.373 . S
C365 C349 1.377 . S
C365 C363 1.389 . S
C365 C366 1.524 . S
C366 C365 1.524 . S
C366 C367 1.397 . S
C366 C371 1.363 . S
C367 H338 0.950 . S
C367 C366 1.397 . S
C367 C368 1.334 . S
C368 H339 0.950 . S
C368 C367 1.334 . S
C368 C369 1.287 . S
C369 C368 1.287 . S
C369 C370 1.524 . S
C369 H372 0.999 . S
C370 H340 0.950 . S
C370 C369 1.524 . S
C370 C371 1.415 . S
C371 H341 0.950 . S
C371 C366 1.363 . S
C371 C370 1.415 . S
H372 C369 0.999 . S
H373 C354 0.913 . S
H374 C392 0.951 . S
H375 C394 0.951 . S
H376 C396 0.950 . S
H377 C397 0.950 . S
H378 C399 0.950 . S
H379 C402 0.950 . S
H380 C403 0.950 . S
H381 C405 0.950 . S
H382 C406 0.950 . S
H383 C407 0.951 . S
H384 C409 0.951 . S
H385 C411 0.950 . S
H386 C412 0.950 . S
H387 C414 0.950 . S
H388 C417 0.950 . S
H389 C418 0.950 . S
H390 C420 0.950 . S
H391 C421 0.950 . S
C392 H374 0.951 . S
C392 C393 1.366 . S
C392 C394 1.388 . S
C393 C392 1.366 . S
C393 C397 1.385 . S
C394 H375 0.951 . S
C394 C392 1.388 . S
C394 C395 1.366 . S
C395 C394 1.366 . S
C395 C396 1.414 . S
C395 C398 1.499 . S
C396 H376 0.950 . S
C396 C395 1.414 . S
C396 C397 1.374 . S
C397 H377 0.950 . S
C397 C393 1.385 . S
C397 C396 1.374 . S
C398 C395 1.499 . S
C398 C399 1.373 . S
C398 C400 1.389 . S
C399 H378 0.950 . S
C399 C398 1.373 . S
C399 C415 1.377 1_545 S
C400 C398 1.389 . S
C400 C401 1.524 . S
C400 C414 1.377 1_545 S
C401 C400 1.524 . S
C401 C402 1.397 . S
C401 C406 1.363 . S
C402 H379 0.950 . S
C402 C401 1.397 . S
C402 C403 1.334 . S
C403 H380 0.950 . S
C403 C402 1.334 . S
C403 C404 1.287 . S
C404 C403 1.287 . S
C404 C405 1.524 . S
C404 H423 0.913 . S
C405 H381 0.950 . S
C405 C404 1.524 . S
C405 C406 1.415 . S
C406 H382 0.950 . S
C406 C401 1.363 . S
C406 C405 1.415 . S
C407 H383 0.951 . S
C407 C408 1.366 . S
C407 C409 1.388 . S
C408 C407 1.366 . S
C408 C412 1.385 . S
C409 H384 0.951 . S
C409 C407 1.388 . S
C409 C410 1.366 . S
C410 C409 1.366 . S
C410 C411 1.414 . S
C410 C413 1.499 . S
C411 H385 0.950 . S
C411 C410 1.414 . S
C411 C412 1.374 . S
C412 H386 0.950 . S
C412 C408 1.385 . S
C412 C411 1.374 . S
C413 C410 1.499 . S
C413 C414 1.373 . S
C413 C415 1.389 . S
C414 H387 0.950 . S
C414 C400 1.377 1_565 S
C414 C413 1.373 . S
C415 C399 1.377 1_565 S
C415 C413 1.389 . S
C415 C416 1.524 . S
C416 C415 1.524 . S
C416 C417 1.397 . S
C416 C421 1.363 . S
C417 H388 0.950 . S
C417 C416 1.397 . S
C417 C418 1.334 . S
C418 H389 0.950 . S
C418 C417 1.334 . S
C418 C419 1.287 . S
C419 C418 1.287 . S
C419 C420 1.524 . S
C419 H422 0.999 . S
C420 H390 0.950 . S
C420 C419 1.524 . S
C420 C421 1.415 . S
C421 H391 0.950 . S
C421 C416 1.363 . S
C421 C420 1.415 . S
H422 C419 0.999 . S
H423 C404 0.913 . S
H424 C442 0.951 . S
H425 C444 0.951 . S
H426 C446 0.950 . S
H427 C447 0.950 . S
H428 C449 0.950 . S
H429 C452 0.950 . S
H430 C453 0.950 . S
H431 C455 0.950 . S
H432 C456 0.950 . S
H433 C457 0.951 . S
H434 C459 0.951 . S
H435 C461 0.950 . S
H436 C462 0.950 . S
H437 C464 0.950 . S
H438 C467 0.950 . S
H439 C468 0.950 . S
H440 C470 0.950 . S
H441 C471 0.950 . S
C442 H424 0.951 . S
C442 C443 1.366 . S
C442 C444 1.388 . S
C443 C442 1.366 . S
C443 C447 1.385 . S
C444 H425 0.951 . S
C444 C442 1.388 . S
C444 C445 1.366 . S
C445 C444 1.366 . S
C445 C446 1.414 . S
C445 C448 1.499 . S
C446 H426 0.950 . S
C446 C445 1.414 . S
C446 C447 1.374 . S
C447 H427 0.950 . S
C447 C443 1.385 . S
C447 C446 1.374 . S
C448 C445 1.499 . S
C448 C449 1.373 . S
C448 C450 1.389 . S
C449 H428 0.950 . S
C449 C448 1.373 . S
C449 C465 1.377 1_455 S
C450 C448 1.389 . S
C450 C451 1.524 . S
C450 C464 1.377 1_455 S
C451 C450 1.524 . S
C451 C452 1.397 . S
C451 C456 1.363 1_455 S
C452 H429 0.950 . S
C452 C451 1.397 . S
C452 C453 1.334 . S
C453 H430 0.950 . S
C453 C452 1.334 . S
C453 C454 1.287 . S
C454 C453 1.287 . S
C454 C455 1.524 1_455 S
C454 H473 0.913 . S
C455 H431 0.950 . S
C455 C454 1.524 1_655 S
C455 C456 1.415 . S
C456 H432 0.950 . S
C456 C451 1.363 1_655 S
C456 C455 1.415 . S
C457 H433 0.951 . S
C457 C458 1.366 . S
C457 C459 1.388 . S
C458 C457 1.366 . S
C458 C462 1.385 . S
C459 H434 0.951 . S
C459 C457 1.388 . S
C459 C460 1.366 . S
C460 C459 1.366 . S
C460 C461 1.414 . S
C460 C463 1.499 . S
C461 H435 0.950 . S
C461 C460 1.414 . S
C461 C462 1.374 . S
C462 H436 0.950 . S
C462 C458 1.385 . S
C462 C461 1.374 . S
C463 C460 1.499 . S
C463 C464 1.373 . S
C463 C465 1.389 . S
C464 H437 0.950 . S
C464 C450 1.377 1_655 S
C464 C463 1.373 . S
C465 C449 1.377 1_655 S
C465 C463 1.389 . S
C465 C466 1.524 . S
C466 C465 1.524 . S
C466 C467 1.397 . S
C466 C471 1.363 1_655 S
C467 H438 0.950 . S
C467 C466 1.397 . S
C467 C468 1.334 . S
C468 H439 0.950 . S
C468 C467 1.334 . S
C468 C469 1.287 . S
C469 C468 1.287 . S
C469 C470 1.524 1_655 S
C469 H472 0.999 . S
C470 H440 0.950 . S
C470 C469 1.524 1_455 S
C470 C471 1.415 . S
C471 H441 0.950 . S
C471 C466 1.363 1_455 S
C471 C470 1.415 . S
H472 C469 0.999 . S
H473 C454 0.913 . S
H474 C492 0.951 . S
H475 C494 0.951 . S
H476 C496 0.950 . S
H477 C497 0.950 . S
H478 C499 0.950 . S
H479 C502 0.950 . S
H480 C503 0.950 . S
H481 C505 0.950 . S
H482 C506 0.950 . S
H483 C507 0.951 . S
H484 C509 0.951 . S
H485 C511 0.950 . S
H486 C512 0.950 . S
H487 C514 0.950 . S
H488 C517 0.950 . S
H489 C518 0.950 . S
H490 C520 0.950 . S
H491 C521 0.950 . S
C492 H474 0.951 . S
C492 C493 1.366 . S
C492 C494 1.388 . S
C493 C492 1.366 . S
C493 C497 1.385 . S
C494 H475 0.951 . S
C494 C492 1.388 . S
C494 C495 1.366 . S
C495 C494 1.366 . S
C495 C496 1.414 . S
C495 C498 1.499 . S
C496 H476 0.950 . S
C496 C495 1.414 . S
C496 C497 1.374 . S
C497 H477 0.950 . S
C497 C493 1.385 . S
C497 C496 1.374 . S
C498 C495 1.499 . S
C498 C499 1.373 . S
C498 C500 1.389 . S
C499 H478 0.950 . S
C499 C498 1.373 . S
C499 C515 1.377 . S
C500 C498 1.389 . S
C500 C501 1.524 . S
C500 C514 1.377 . S
C501 C500 1.524 . S
C501 C502 1.397 . S
C501 C506 1.363 . S
C502 H479 0.950 . S
C502 C501 1.397 . S
C502 C503 1.334 . S
C503 H480 0.950 . S
C503 C502 1.334 . S
C503 C504 1.287 . S
C504 C503 1.287 . S
C504 C505 1.524 . S
C504 H523 0.913 . S
C505 H481 0.950 . S
C505 C504 1.524 . S
C505 C506 1.415 . S
C506 H482 0.950 . S
C506 C501 1.363 . S
C506 C505 1.415 . S
C507 H483 0.951 . S
C507 C508 1.366 . S
C507 C509 1.388 . S
C508 C507 1.366 . S
C508 C512 1.385 . S
C509 H484 0.951 . S
C509 C507 1.388 . S
C509 C510 1.366 . S
C510 C509 1.366 . S
C510 C511 1.414 . S
C510 C513 1.499 . S
C511 H485 0.950 . S
C511 C510 1.414 . S
C511 C512 1.374 . S
C512 H486 0.950 . S
C512 C508 1.385 . S
C512 C511 1.374 . S
C513 C510 1.499 . S
C513 C514 1.373 . S
C513 C515 1.389 . S
C514 H487 0.950 . S
C514 C500 1.377 . S
C514 C513 1.373 . S
C515 C499 1.377 . S
C515 C513 1.389 . S
C515 C516 1.524 . S
C516 C515 1.524 . S
C516 C517 1.397 . S
C516 C521 1.363 . S
C517 H488 0.950 . S
C517 C516 1.397 . S
C517 C518 1.334 . S
C518 H489 0.950 . S
C518 C517 1.334 . S
C518 C519 1.287 . S
C519 C518 1.287 . S
C519 C520 1.524 . S
C519 H522 0.999 . S
C520 H490 0.950 . S
C520 C519 1.524 . S
C520 C521 1.415 . S
C521 H491 0.950 . S
C521 C516 1.363 . S
C521 C520 1.415 . S
H522 C519 0.999 . S
H523 C504 0.913 . S
H524 C542 0.951 . S
H525 C544 0.951 . S
H526 C546 0.950 1_565 S
H527 C547 0.950 . S
H528 C549 0.950 . S
H529 C552 0.950 . S
H530 C553 0.950 . S
H531 C555 0.950 . S
H532 C556 0.950 . S
H533 C557 0.951 . S
H534 C559 0.951 . S
H535 C561 0.950 1_545 S
H536 C562 0.950 . S
H537 C564 0.950 . S
H538 C567 0.950 . S
H539 C568 0.950 . S
H540 C570 0.950 . S
H541 C571 0.950 . S
C542 H524 0.951 . S
C542 C543 1.366 . S
C542 C544 1.388 . S
C543 C542 1.366 . S
C543 C547 1.385 . S
C544 H525 0.951 . S
C544 C542 1.388 . S
C544 C545 1.366 . S
C545 C544 1.366 . S
C545 C546 1.414 . S
C545 C548 1.499 . S
C546 H526 0.950 1_545 S
C546 C545 1.414 . S
C546 C547 1.374 . S
C547 H527 0.950 . S
C547 C543 1.385 . S
C547 C546 1.374 . S
C548 C545 1.499 . S
C548 C549 1.373 1_545 S
C548 C550 1.389 . S
C549 H528 0.950 . S
C549 C548 1.373 1_565 S
C549 C565 1.377 . S
C550 C548 1.389 . S
C550 C551 1.524 . S
C550 C564 1.377 . S
C551 C550 1.524 . S
C551 C552 1.397 . S
C551 C556 1.363 . S
C552 H529 0.950 . S
C552 C551 1.397 . S
C552 C553 1.334 . S
C553 H530 0.950 . S
C553 C552 1.334 . S
C553 C554 1.287 . S
C554 C553 1.287 . S
C554 C555 1.524 . S
C554 H573 0.913 . S
C555 H531 0.950 . S
C555 C554 1.524 . S
C555 C556 1.415 . S
C556 H532 0.950 . S
C556 C551 1.363 . S
C556 C555 1.415 . S
C557 H533 0.951 . S
C557 C558 1.366 . S
C557 C559 1.388 . S
C558 C557 1.366 . S
C558 C562 1.385 . S
C559 H534 0.951 . S
C559 C557 1.388 . S
C559 C560 1.366 . S
C560 C559 1.366 . S
C560 C561 1.414 . S
C560 C563 1.499 . S
C561 H535 0.950 1_565 S
C561 C560 1.414 . S
C561 C562 1.374 . S
C562 H536 0.950 . S
C562 C558 1.385 . S
C562 C561 1.374 . S
C563 C560 1.499 . S
C563 C564 1.373 1_565 S
C563 C565 1.389 . S
C564 H537 0.950 . S
C564 C550 1.377 . S
C564 C563 1.373 1_545 S
C565 C549 1.377 . S
C565 C563 1.389 . S
C565 C566 1.524 . S
C566 C565 1.524 . S
C566 C567 1.397 . S
C566 C571 1.363 . S
C567 H538 0.950 . S
C567 C566 1.397 . S
C567 C568 1.334 . S
C568 H539 0.950 . S
C568 C567 1.334 . S
C568 C569 1.287 . S
C569 C568 1.287 . S
C569 C570 1.524 . S
C569 H572 0.999 . S
C570 H540 0.950 . S
C570 C569 1.524 . S
C570 C571 1.415 . S
C571 H541 0.950 . S
C571 C566 1.363 . S
C571 C570 1.415 . S
H572 C569 0.999 . S
H573 C554 0.913 . S
H574 C592 0.951 . S
H575 C594 0.951 . S
H576 C596 0.950 . S
H577 C597 0.950 . S
H578 C599 0.950 . S
H579 C602 0.950 . S
H580 C603 0.950 . S
H581 C605 0.950 . S
H582 C606 0.950 . S
H583 C607 0.951 . S
H584 C609 0.951 . S
H585 C611 0.950 . S
H586 C612 0.950 . S
H587 C614 0.950 . S
H588 C617 0.950 . S
H589 C618 0.950 . S
H590 C620 0.950 . S
H591 C621 0.950 . S
C592 H574 0.951 . S
C592 C593 1.366 . S
C592 C594 1.388 . S
C593 C592 1.366 . S
C593 C597 1.385 . S
C594 H575 0.951 . S
C594 C592 1.388 . S
C594 C595 1.366 . S
C595 C594 1.366 . S
C595 C596 1.414 . S
C595 C598 1.499 . S
C596 H576 0.950 . S
C596 C595 1.414 . S
C596 C597 1.374 . S
C597 H577 0.950 . S
C597 C593 1.385 . S
C597 C596 1.374 . S
C598 C595 1.499 . S
C598 C599 1.373 1_455 S
C598 C600 1.389 . S
C599 H578 0.950 . S
C599 C598 1.373 1_655 S
C599 C615 1.377 1_545 S
C600 C598 1.389 . S
C600 C601 1.524 . S
C600 C614 1.377 1_545 S
C601 C600 1.524 . S
C601 C602 1.397 . S
C601 C606 1.363 . S
C602 H579 0.950 . S
C602 C601 1.397 . S
C602 C603 1.334 . S
C603 H580 0.950 . S
C603 C602 1.334 . S
C603 C604 1.287 . S
C604 C603 1.287 . S
C604 C605 1.524 . S
C604 H623 0.913 . S
C605 H581 0.950 . S
C605 C604 1.524 . S
C605 C606 1.415 . S
C606 H582 0.950 . S
C606 C601 1.363 . S
C606 C605 1.415 . S
C607 H583 0.951 . S
C607 C608 1.366 . S
C607 C609 1.388 . S
C608 C607 1.366 . S
C608 C612 1.385 . S
C609 H584 0.951 . S
C609 C607 1.388 . S
C609 C610 1.366 . S
C610 C609 1.366 . S
C610 C611 1.414 . S
C610 C613 1.499 . S
C611 H585 0.950 . S
C611 C610 1.414 . S
C611 C612 1.374 . S
C612 H586 0.950 . S
C612 C608 1.385 . S
C612 C611 1.374 . S
C613 C610 1.499 . S
C613 C614 1.373 1_655 S
C613 C615 1.389 . S
C614 H587 0.950 . S
C614 C600 1.377 1_565 S
C614 C613 1.373 1_455 S
C615 C599 1.377 1_565 S
C615 C613 1.389 . S
C615 C616 1.524 . S
C616 C615 1.524 . S
C616 C617 1.397 . S
C616 C621 1.363 . S
C617 H588 0.950 . S
C617 C616 1.397 . S
C617 C618 1.334 . S
C618 H589 0.950 . S
C618 C617 1.334 . S
C618 C619 1.287 . S
C619 C618 1.287 . S
C619 C620 1.524 . S
C619 H622 0.999 . S
C620 H590 0.950 . S
C620 C619 1.524 . S
C620 C621 1.415 . S
C621 H591 0.950 . S
C621 C616 1.363 . S
C621 C620 1.415 . S
H622 C619 0.999 . S
H623 C604 0.913 . S
H624 C642 0.951 . S
H625 C644 0.951 . S
H626 C646 0.950 1_545 S
H627 C647 0.950 . S
H628 C649 0.950 . S
H629 C652 0.950 . S
H630 C653 0.950 . S
H631 C655 0.950 . S
H632 C656 0.950 . S
H633 C657 0.951 . S
H634 C659 0.951 . S
H635 C661 0.950 1_565 S
H636 C662 0.950 . S
H637 C664 0.950 . S
H638 C667 0.950 . S
H639 C668 0.950 . S
H640 C670 0.950 . S
H641 C671 0.950 . S
C642 H624 0.951 . S
C642 C643 1.366 . S
C642 C644 1.388 . S
C643 C642 1.366 . S
C643 C647 1.385 . S
C644 H625 0.951 . S
C644 C642 1.388 . S
C644 C645 1.366 . S
C645 C644 1.366 . S
C645 C646 1.414 . S
C645 C648 1.499 . S
C646 H626 0.950 1_565 S
C646 C645 1.414 . S
C646 C647 1.374 . S
C647 H627 0.950 . S
C647 C643 1.385 . S
C647 C646 1.374 . S
C648 C645 1.499 . S
C648 C649 1.373 1_565 S
C648 C650 1.389 . S
C649 H628 0.950 . S
C649 C648 1.373 1_545 S
C649 C665 1.377 . S
C650 C648 1.389 . S
C650 C651 1.524 . S
C650 C664 1.377 . S
C651 C650 1.524 . S
C651 C652 1.397 . S
C651 C656 1.363 . S
C652 H629 0.950 . S
C652 C651 1.397 . S
C652 C653 1.334 . S
C653 H630 0.950 . S
C653 C652 1.334 . S
C653 C654 1.287 . S
C654 C653 1.287 . S
C654 C655 1.524 . S
C654 H673 0.913 . S
C655 H631 0.950 . S
C655 C654 1.524 . S
C655 C656 1.415 . S
C656 H632 0.950 . S
C656 C651 1.363 . S
C656 C655 1.415 . S
C657 H633 0.951 . S
C657 C658 1.366 . S
C657 C659 1.388 . S
C658 C657 1.366 . S
C658 C662 1.385 . S
C659 H634 0.951 . S
C659 C657 1.388 . S
C659 C660 1.366 . S
C660 C659 1.366 . S
C660 C661 1.414 . S
C660 C663 1.499 . S
C661 H635 0.950 1_545 S
C661 C660 1.414 . S
C661 C662 1.374 . S
C662 H636 0.950 . S
C662 C658 1.385 . S
C662 C661 1.374 . S
C663 C660 1.499 . S
C663 C664 1.373 1_545 S
C663 C665 1.389 . S
C664 H637 0.950 . S
C664 C650 1.377 . S
C664 C663 1.373 1_565 S
C665 C649 1.377 . S
C665 C663 1.389 . S
C665 C666 1.524 . S
C666 C665 1.524 . S
C666 C667 1.397 . S
C666 C671 1.363 . S
C667 H638 0.950 . S
C667 C666 1.397 . S
C667 C668 1.334 . S
C668 H639 0.950 . S
C668 C667 1.334 . S
C668 C669 1.287 . S
C669 C668 1.287 . S
C669 C670 1.524 . S
C669 H672 0.999 . S
C670 H640 0.950 . S
C670 C669 1.524 . S
C670 C671 1.415 . S
C671 H641 0.950 . S
C671 C666 1.363 . S
C671 C670 1.415 . S
H672 C669 0.999 . S
H673 C654 0.913 . S
H674 C692 0.951 . S
H675 C694 0.951 . S
H676 C696 0.950 . S
H677 C697 0.950 . S
H678 C699 0.950 . S
H679 C702 0.950 . S
H680 C703 0.950 . S
H681 C705 0.953 . S
H682 C706 0.950 . S
H683 C707 0.951 . S
H684 C709 0.951 . S
H685 C711 0.950 . S
H686 C712 0.950 . S
H687 C714 0.950 . S
H688 C717 0.950 . S
H689 C718 0.950 . S
H690 C720 0.953 . S
H691 C721 0.950 . S
C692 H674 0.951 . S
C692 C693 1.366 . S
C692 C694 1.388 . S
C693 C692 1.366 . S
C693 C697 1.385 . S
C694 H675 0.951 . S
C694 C692 1.388 . S
C694 C695 1.366 . S
C695 C694 1.366 . S
C695 C696 1.414 . S
C695 C698 1.499 . S
C696 H676 0.950 . S
C696 C695 1.414 . S
C696 C697 1.374 . S
C697 H677 0.950 . S
C697 C693 1.385 . S
C697 C696 1.374 . S
C698 C695 1.499 . S
C698 C699 1.373 1_655 S
C698 C700 1.389 . S
C699 H678 0.950 . S
C699 C698 1.373 1_455 S
C699 C715 1.377 1_565 S
C700 C698 1.389 . S
C700 C701 1.524 . S
C700 C714 1.377 1_565 S
C701 C700 1.524 . S
C701 C702 1.397 . S
C701 C706 1.363 1_565 S
C702 H679 0.950 . S
C702 C701 1.397 . S
C702 C703 1.334 . S
C703 H680 0.950 . S
C703 C702 1.334 . S
C703 C704 1.287 . S
C704 C703 1.287 . S
C704 C705 1.520 1_565 S
C704 H723 0.913 . S
C705 H681 0.953 . S
C705 C704 1.520 1_545 S
C705 C706 1.415 . S
C706 H682 0.950 . S
C706 C701 1.363 1_545 S
C706 C705 1.415 . S
C707 H683 0.951 . S
C707 C708 1.366 . S
C707 C709 1.388 . S
C708 C707 1.366 . S
C708 C712 1.385 . S
C709 H684 0.951 . S
C709 C707 1.388 . S
C709 C710 1.366 . S
C710 C709 1.366 . S
C710 C711 1.414 . S
C710 C713 1.499 . S
C711 H685 0.950 . S
C711 C710 1.414 . S
C711 C712 1.374 . S
C712 H686 0.950 . S
C712 C708 1.385 . S
C712 C711 1.374 . S
C713 C710 1.499 . S
C713 C714 1.373 1_455 S
C713 C715 1.389 . S
C714 H687 0.950 . S
C714 C700 1.377 1_545 S
C714 C713 1.373 1_655 S
C715 C699 1.377 1_545 S
C715 C713 1.389 . S
C715 C716 1.524 . S
C716 C715 1.524 . S
C716 C717 1.397 . S
C716 C721 1.363 1_545 S
C717 H688 0.950 . S
C717 C716 1.397 . S
C717 C718 1.334 . S
C718 H689 0.950 . S
C718 C717 1.334 . S
C718 C719 1.287 . S
C719 C718 1.287 . S
C719 C720 1.520 1_545 S
C719 H722 0.999 . S
C720 H690 0.953 . S
C720 C719 1.520 1_565 S
C720 C721 1.415 . S
C721 H691 0.950 . S
C721 C716 1.363 1_565 S
C721 C720 1.415 . S
H722 C719 0.999 . S
H723 C704 0.913 . S
H724 C742 0.951 . S
H725 C744 0.951 . S
H726 C746 0.950 . S
H727 C747 0.950 . S
H728 C749 0.950 . S
H729 C752 0.950 . S
H730 C753 0.950 . S
H731 C755 0.950 . S
H732 C756 0.950 . S
H733 C757 0.951 . S
H734 C759 0.951 . S
H735 C761 0.950 . S
H736 C762 0.950 . S
H737 C764 0.950 . S
H738 C767 0.950 . S
H739 C768 0.950 . S
H740 C770 0.950 . S
H741 C771 0.950 . S
C742 H724 0.951 . S
C742 C743 1.366 . S
C742 C744 1.388 . S
C743 C742 1.366 . S
C743 C747 1.385 . S
C744 H725 0.951 . S
C744 C742 1.388 . S
C744 C745 1.366 . S
C745 C744 1.366 . S
C745 C746 1.414 . S
C745 C748 1.499 . S
C746 H726 0.950 . S
C746 C745 1.414 . S
C746 C747 1.374 . S
C747 H727 0.950 . S
C747 C743 1.385 . S
C747 C746 1.374 . S
C748 C745 1.499 . S
C748 C749 1.373 . S
C748 C750 1.389 . S
C749 H728 0.950 . S
C749 C748 1.373 . S
C749 C765 1.377 1_455 S
C750 C748 1.389 . S
C750 C751 1.524 . S
C750 C764 1.377 1_455 S
C751 C750 1.524 . S
C751 C752 1.397 . S
C751 C756 1.363 1_455 S
C752 H729 0.950 . S
C752 C751 1.397 . S
C752 C753 1.334 . S
C753 H730 0.950 . S
C753 C752 1.334 . S
C753 C754 1.287 . S
C754 C753 1.287 . S
C754 C755 1.524 1_455 S
C754 H773 0.913 . S
C755 H731 0.950 . S
C755 C754 1.524 1_655 S
C755 C756 1.415 . S
C756 H732 0.950 . S
C756 C751 1.363 1_655 S
C756 C755 1.415 . S
C757 H733 0.951 . S
C757 C758 1.366 . S
C757 C759 1.388 . S
C758 C757 1.366 . S
C758 C762 1.385 . S
C759 H734 0.951 . S
C759 C757 1.388 . S
C759 C760 1.366 . S
C760 C759 1.366 . S
C760 C761 1.414 . S
C760 C763 1.499 . S
C761 H735 0.950 . S
C761 C760 1.414 . S
C761 C762 1.374 . S
C762 H736 0.950 . S
C762 C758 1.385 . S
C762 C761 1.374 . S
C763 C760 1.499 . S
C763 C764 1.373 . S
C763 C765 1.389 . S
C764 H737 0.950 . S
C764 C750 1.377 1_655 S
C764 C763 1.373 . S
C765 C749 1.377 1_655 S
C765 C763 1.389 . S
C765 C766 1.524 . S
C766 C765 1.524 . S
C766 C767 1.397 . S
C766 C771 1.363 1_655 S
C767 H738 0.950 . S
C767 C766 1.397 . S
C767 C768 1.334 . S
C768 H739 0.950 . S
C768 C767 1.334 . S
C768 C769 1.287 . S
C769 C768 1.287 . S
C769 C770 1.524 1_655 S
C769 H772 0.999 . S
C770 H740 0.950 . S
C770 C769 1.524 1_455 S
C770 C771 1.415 . S
C771 H741 0.950 . S
C771 C766 1.363 1_455 S
C771 C770 1.415 . S
H772 C769 0.999 . S
H773 C754 0.913 . S
H774 C792 0.951 . S
H775 C794 0.951 . S
H776 C796 0.950 . S
H777 C797 0.950 . S
H778 C799 0.950 . S
H779 C802 0.950 . S
H780 C803 0.950 . S
H781 C805 0.950 . S
H782 C806 0.950 . S
H783 C807 0.951 . S
H784 C809 0.951 . S
H785 C811 0.950 . S
H786 C812 0.950 . S
H787 C814 0.950 . S
H788 C817 0.950 . S
H789 C818 0.950 . S
H790 C820 0.950 . S
H791 C821 0.950 . S
C792 H774 0.951 . S
C792 C793 1.366 . S
C792 C794 1.388 . S
C793 C792 1.366 . S
C793 C797 1.385 . S
C794 H775 0.951 . S
C794 C792 1.388 . S
C794 C795 1.366 . S
C795 C794 1.366 . S
C795 C796 1.414 . S
C795 C798 1.499 . S
C796 H776 0.950 . S
C796 C795 1.414 . S
C796 C797 1.374 . S
C797 H777 0.950 . S
C797 C793 1.385 . S
C797 C796 1.374 . S
C798 C795 1.499 . S
C798 C799 1.373 . S
C798 C800 1.389 . S
C799 H778 0.950 . S
C799 C798 1.373 . S
C799 C815 1.377 . S
C800 C798 1.389 . S
C800 C801 1.524 . S
C800 C814 1.377 . S
C801 C800 1.524 . S
C801 C802 1.397 . S
C801 C806 1.363 . S
C802 H779 0.950 . S
C802 C801 1.397 . S
C802 C803 1.334 . S
C803 H780 0.950 . S
C803 C802 1.334 . S
C803 C804 1.287 . S
C804 C803 1.287 . S
C804 C805 1.524 . S
C804 H823 0.913 . S
C805 H781 0.950 . S
C805 C804 1.524 . S
C805 C806 1.415 . S
C806 H782 0.950 . S
C806 C801 1.363 . S
C806 C805 1.415 . S
C807 H783 0.951 . S
C807 C808 1.366 . S
C807 C809 1.388 . S
C808 C807 1.366 . S
C808 C812 1.385 . S
C809 H784 0.951 . S
C809 C807 1.388 . S
C809 C810 1.366 . S
C810 C809 1.366 . S
C810 C811 1.414 . S
C810 C813 1.499 . S
C811 H785 0.950 . S
C811 C810 1.414 . S
C811 C812 1.374 . S
C812 H786 0.950 . S
C812 C808 1.385 . S
C812 C811 1.374 . S
C813 C810 1.499 . S
C813 C814 1.373 . S
C813 C815 1.389 . S
C814 H787 0.950 . S
C814 C800 1.377 . S
C814 C813 1.373 . S
C815 C799 1.377 . S
C815 C813 1.389 . S
C815 C816 1.524 . S
C816 C815 1.524 . S
C816 C817 1.397 . S
C816 C821 1.363 . S
C817 H788 0.950 . S
C817 C816 1.397 . S
C817 C818 1.334 . S
C818 H789 0.950 . S
C818 C817 1.334 . S
C818 C819 1.287 . S
C819 C818 1.287 . S
C819 C820 1.524 . S
C819 H822 0.999 . S
C820 H790 0.950 . S
C820 C819 1.524 . S
C820 C821 1.415 . S
C821 H791 0.950 . S
C821 C816 1.363 . S
C821 C820 1.415 . S
H822 C819 0.999 . S
H823 C804 0.913 . S
H824 C842 0.951 . S
H825 C844 0.951 . S
H826 C846 0.950 . S
H827 C847 0.950 . S
H828 C849 0.950 . S
H829 C852 0.950 . S
H830 C853 0.950 . S
H831 C855 0.950 . S
H832 C856 0.950 . S
H833 C857 0.951 . S
H834 C859 0.951 . S
H835 C861 0.950 . S
H836 C862 0.950 . S
H837 C864 0.950 . S
H838 C867 0.950 . S
H839 C868 0.950 . S
H840 C870 0.950 . S
H841 C871 0.950 . S
C842 H824 0.951 . S
C842 C843 1.366 . S
C842 C844 1.388 . S
C843 C842 1.366 . S
C843 C847 1.385 . S
C844 H825 0.951 . S
C844 C842 1.388 . S
C844 C845 1.366 . S
C845 C844 1.366 . S
C845 C846 1.414 . S
C845 C848 1.499 . S
C846 H826 0.950 . S
C846 C845 1.414 . S
C846 C847 1.374 . S
C847 H827 0.950 . S
C847 C843 1.385 . S
C847 C846 1.374 . S
C848 C845 1.499 . S
C848 C849 1.373 . S
C848 C850 1.389 . S
C849 H828 0.950 . S
C849 C848 1.373 . S
C849 C865 1.377 . S
C850 C848 1.389 . S
C850 C851 1.524 . S
C850 C864 1.377 . S
C851 C850 1.524 . S
C851 C852 1.397 . S
C851 C856 1.363 . S
C852 H829 0.950 . S
C852 C851 1.397 . S
C852 C853 1.334 . S
C853 H830 0.950 . S
C853 C852 1.334 . S
C853 C854 1.287 . S
C854 C853 1.287 . S
C854 C855 1.524 . S
C854 H873 0.913 . S
C855 H831 0.950 . S
C855 C854 1.524 . S
C855 C856 1.415 . S
C856 H832 0.950 . S
C856 C851 1.363 . S
C856 C855 1.415 . S
C857 H833 0.951 . S
C857 C858 1.366 . S
C857 C859 1.388 . S
C858 C857 1.366 . S
C858 C862 1.385 . S
C859 H834 0.951 . S
C859 C857 1.388 . S
C859 C860 1.366 . S
C860 C859 1.366 . S
C860 C861 1.414 . S
C860 C863 1.499 . S
C861 H835 0.950 . S
C861 C860 1.414 . S
C861 C862 1.374 . S
C862 H836 0.950 . S
C862 C858 1.385 . S
C862 C861 1.374 . S
C863 C860 1.499 . S
C863 C864 1.373 . S
C863 C865 1.389 . S
C864 H837 0.950 . S
C864 C850 1.377 . S
C864 C863 1.373 . S
C865 C849 1.377 . S
C865 C863 1.389 . S
C865 C866 1.524 . S
C866 C865 1.524 . S
C866 C867 1.397 . S
C866 C871 1.363 . S
C867 H838 0.950 . S
C867 C866 1.397 . S
C867 C868 1.334 . S
C868 H839 0.950 . S
C868 C867 1.334 . S
C868 C869 1.287 . S
C869 C868 1.287 . S
C869 C870 1.524 . S
C869 H872 0.999 . S
C870 H840 0.950 . S
C870 C869 1.524 . S
C870 C871 1.415 . S
C871 H841 0.950 . S
C871 C866 1.363 . S
C871 C870 1.415 . S
H872 C869 0.999 . S
H873 C854 0.913 . S
H874 C892 0.951 . S
H875 C894 0.951 . S
H876 C896 0.950 . S
H877 C897 0.950 . S
H878 C899 0.950 . S
H879 C902 0.950 . S
H880 C903 0.950 . S
H881 C905 0.950 . S
H882 C906 0.950 . S
H883 C907 0.951 . S
H884 C909 0.951 . S
H885 C911 0.950 . S
H886 C912 0.950 . S
H887 C914 0.950 . S
H888 C917 0.950 . S
H889 C918 0.950 . S
H890 C920 0.950 . S
H891 C921 0.950 . S
C892 H874 0.951 . S
C892 C893 1.366 . S
C892 C894 1.388 . S
C893 C892 1.366 . S
C893 C897 1.385 . S
C894 H875 0.951 . S
C894 C892 1.388 . S
C894 C895 1.366 . S
C895 C894 1.366 . S
C895 C896 1.414 . S
C895 C898 1.499 . S
C896 H876 0.950 . S
C896 C895 1.414 . S
C896 C897 1.374 . S
C897 H877 0.950 . S
C897 C893 1.385 . S
C897 C896 1.374 . S
C898 C895 1.499 . S
C898 C899 1.373 . S
C898 C900 1.389 . S
C899 H878 0.950 . S
C899 C898 1.373 . S
C899 C915 1.377 1_565 S
C900 C898 1.389 . S
C900 C901 1.524 . S
C900 C914 1.377 1_565 S
C901 C900 1.524 . S
C901 C902 1.397 . S
C901 C906 1.363 . S
C902 H879 0.950 . S
C902 C901 1.397 . S
C902 C903 1.334 . S
C903 H880 0.950 . S
C903 C902 1.334 . S
C903 C904 1.287 . S
C904 C903 1.287 . S
C904 C905 1.524 . S
C904 H923 0.913 . S
C905 H881 0.950 . S
C905 C904 1.524 . S
C905 C906 1.415 . S
C906 H882 0.950 . S
C906 C901 1.363 . S
C906 C905 1.415 . S
C907 H883 0.951 . S
C907 C908 1.366 . S
C907 C909 1.388 . S
C908 C907 1.366 . S
C908 C912 1.385 . S
C909 H884 0.951 . S
C909 C907 1.388 . S
C909 C910 1.366 . S
C910 C909 1.366 . S
C910 C911 1.414 . S
C910 C913 1.499 . S
C911 H885 0.950 . S
C911 C910 1.414 . S
C911 C912 1.374 . S
C912 H886 0.950 . S
C912 C908 1.385 . S
C912 C911 1.374 . S
C913 C910 1.499 . S
C913 C914 1.373 . S
C913 C915 1.389 . S
C914 H887 0.950 . S
C914 C900 1.377 1_545 S
C914 C913 1.373 . S
C915 C899 1.377 1_545 S
C915 C913 1.389 . S
C915 C916 1.524 . S
C916 C915 1.524 . S
C916 C917 1.397 . S
C916 C921 1.363 . S
C917 H888 0.950 . S
C917 C916 1.397 . S
C917 C918 1.334 . S
C918 H889 0.950 . S
C918 C917 1.334 . S
C918 C919 1.287 . S
C919 C918 1.287 . S
C919 C920 1.524 . S
C919 H922 0.999 . S
C920 H890 0.950 . S
C920 C919 1.524 . S
C920 C921 1.415 . S
C921 H891 0.950 . S
C921 C916 1.363 . S
C921 C920 1.415 . S
H922 C919 0.999 . S
H923 C904 0.913 . S
H924 C942 0.951 . S
H925 C944 0.951 . S
H926 C946 0.950 1_545 S
H927 C947 0.950 . S
H928 C949 0.950 . S
H929 C952 0.950 . S
H930 C953 0.945 1_545 S
H931 C955 0.950 . S
H932 C956 0.950 1_455 S
H933 C957 0.951 . S
H934 C959 0.951 . S
H935 C961 0.950 1_565 S
H936 C962 0.950 . S
H937 C964 0.950 . S
H938 C967 0.950 . S
H939 C968 0.946 1_565 S
H940 C970 0.950 . S
H941 C971 0.950 1_655 S
C942 H924 0.951 . S
C942 C943 1.366 . S
C942 C944 1.388 . S
C943 C942 1.366 . S
C943 C947 1.385 . S
C944 H925 0.951 . S
C944 C942 1.388 . S
C944 C945 1.366 . S
C945 C944 1.366 . S
C945 C946 1.414 . S
C945 C948 1.499 . S
C946 H926 0.950 1_565 S
C946 C945 1.414 . S
C946 C947 1.374 . S
C947 H927 0.950 . S
C947 C943 1.385 . S
C947 C946 1.374 . S
C948 C945 1.499 . S
C948 C949 1.373 . S
C948 C950 1.389 . S
C949 H928 0.950 . S
C949 C948 1.373 . S
C949 C965 1.377 1_665 S
C950 C948 1.389 . S
C950 C951 1.524 . S
C950 C964 1.377 1_665 S
C951 C950 1.524 . S
C951 C952 1.397 1_565 S
C951 C956 1.363 . S
C952 H929 0.950 . S
C952 C951 1.397 1_545 S
C952 C953 1.333 1_545 S
C953 H930 0.945 1_565 S
C953 C952 1.333 1_565 S
C953 C954 1.294 . S
C954 C953 1.294 . S
C954 C955 1.524 . S
C954 H973 0.913 . S
C955 H931 0.950 . S
C955 C954 1.524 . S
C955 C956 1.415 . S
C956 H932 0.950 1_655 S
C956 C951 1.363 . S
C956 C955 1.415 . S
C957 H933 0.951 . S
C957 C958 1.366 . S
C957 C959 1.388 . S
C958 C957 1.366 . S
C958 C962 1.385 . S
C959 H934 0.951 . S
C959 C957 1.388 . S
C959 C960 1.366 . S
C960 C959 1.366 . S
C960 C961 1.414 . S
C960 C963 1.499 . S
C961 H935 0.950 1_545 S
C961 C960 1.414 . S
C961 C962 1.374 . S
C962 H936 0.950 . S
C962 C958 1.385 . S
C962 C961 1.374 . S
C963 C960 1.499 . S
C963 C964 1.373 . S
C963 C965 1.389 . S
C964 H937 0.950 . S
C964 C950 1.377 1_445 S
C964 C963 1.373 . S
C965 C949 1.377 1_445 S
C965 C963 1.389 . S
C965 C966 1.524 . S
C966 C965 1.524 . S
C966 C967 1.397 1_545 S
C966 C971 1.363 . S
C967 H938 0.950 . S
C967 C966 1.397 1_565 S
C967 C968 1.333 1_565 S
C968 H939 0.946 1_545 S
C968 C967 1.333 1_545 S
C968 C969 1.292 . S
C969 C968 1.292 . S
C969 C970 1.524 . S
C969 H972 0.999 . S
C970 H940 0.950 . S
C970 C969 1.524 . S
C970 C971 1.415 . S
C971 H941 0.950 1_455 S
C971 C966 1.363 . S
C971 C970 1.415 . S
H972 C969 0.999 . S
H973 C954 0.913 . S
H974 C992 0.951 . S
H975 C994 0.951 . S
H976 C996 0.950 . S
H977 C997 0.950 . S
H978 C999 0.950 . S
H979 C1002 0.950 . S
H980 C1003 0.950 . S
H981 C1005 0.950 . S
H982 C1006 0.950 . S
H983 C1007 0.951 . S
H984 C1009 0.951 . S
H985 C1011 0.950 . S
H986 C1012 0.950 . S
H987 C1014 0.950 . S
H988 C1017 0.950 . S
H989 C1018 0.950 . S
H990 C1020 0.950 . S
H991 C1021 0.950 . S
C992 H974 0.951 . S
C992 C993 1.366 . S
C992 C994 1.388 . S
C993 C992 1.366 . S
C993 C997 1.385 . S
C994 H975 0.951 . S
C994 C992 1.388 . S
C994 C995 1.366 . S
C995 C994 1.366 . S
C995 C996 1.414 . S
C995 C998 1.499 . S
C996 H976 0.950 . S
C996 C995 1.414 . S
C996 C997 1.374 . S
C997 H977 0.950 . S
C997 C993 1.385 . S
C997 C996 1.374 . S
C998 C995 1.499 . S
C998 C999 1.373 1_455 S
C998 C1000 1.389 . S
C999 H978 0.950 . S
C999 C998 1.373 1_655 S
C999 C1015 1.377 . S
C1000 C998 1.389 . S
C1000 C1001 1.524 . S
C1000 C1014 1.377 . S
C1001 C1000 1.524 . S
C1001 C1002 1.397 . S
C1001 C1006 1.363 . S
C1002 H979 0.950 . S
C1002 C1001 1.397 . S
C1002 C1003 1.334 . S
C1003 H980 0.950 . S
C1003 C1002 1.334 . S
C1003 C1004 1.287 . S
C1004 C1003 1.287 . S
C1004 C1005 1.524 . S
C1004 H1023 0.913 . S
C1005 H981 0.950 . S
C1005 C1004 1.524 . S
C1005 C1006 1.415 . S
C1006 H982 0.950 . S
C1006 C1001 1.363 . S
C1006 C1005 1.415 . S
C1007 H983 0.951 . S
C1007 C1008 1.366 . S
C1007 C1009 1.388 . S
C1008 C1007 1.366 . S
C1008 C1012 1.385 . S
C1009 H984 0.951 . S
C1009 C1007 1.388 . S
C1009 C1010 1.366 . S
C1010 C1009 1.366 . S
C1010 C1011 1.414 . S
C1010 C1013 1.499 . S
C1011 H985 0.950 . S
C1011 C1010 1.414 . S
C1011 C1012 1.374 . S
C1012 H986 0.950 . S
C1012 C1008 1.385 . S
C1012 C1011 1.374 . S
C1013 C1010 1.499 . S
C1013 C1014 1.373 1_655 S
C1013 C1015 1.389 . S
C1014 H987 0.950 . S
C1014 C1000 1.377 . S
C1014 C1013 1.373 1_455 S
C1015 C999 1.377 . S
C1015 C1013 1.389 . S
C1015 C1016 1.524 . S
C1016 C1015 1.524 . S
C1016 C1017 1.397 . S
C1016 C1021 1.363 . S
C1017 H988 0.950 . S
C1017 C1016 1.397 . S
C1017 C1018 1.334 . S
C1018 H989 0.950 . S
C1018 C1017 1.334 . S
C1018 C1019 1.287 . S
C1019 C1018 1.287 . S
C1019 C1020 1.524 . S
C1019 H1022 0.999 . S
C1020 H990 0.950 . S
C1020 C1019 1.524 . S
C1020 C1021 1.415 . S
C1021 H991 0.950 . S
C1021 C1016 1.363 . S
C1021 C1020 1.415 . S
H1022 C1019 0.999 . S
H1023 C1004 0.913 . S
H1024 C1042 0.951 . S
H1025 C1044 0.951 . S
H1026 C1046 0.950 . S
H1027 C1047 0.950 . S
H1028 C1049 0.950 . S
H1029 C1052 0.950 . S
H1030 C1053 0.950 . S
H1031 C1055 0.937 1_565 S
H1032 C1056 0.950 . S
H1033 C1057 0.951 . S
H1034 C1059 0.951 . S
H1035 C1061 0.950 . S
H1036 C1062 0.950 . S
H1037 C1064 0.950 . S
H1038 C1067 0.950 . S
H1039 C1068 0.950 . S
H1040 C1070 0.950 . S
H1041 C1071 0.950 . S
C1042 H1024 0.951 . S
C1042 C1043 1.366 . S
C1042 C1044 1.388 . S
C1043 C1042 1.366 . S
C1043 C1047 1.385 . S
C1044 H1025 0.951 . S
C1044 C1042 1.388 . S
C1044 C1045 1.366 . S
C1045 C1044 1.366 . S
C1045 C1046 1.414 . S
C1045 C1048 1.499 . S
C1046 H1026 0.950 . S
C1046 C1045 1.414 . S
C1046 C1047 1.374 . S
C1047 H1027 0.950 . S
C1047 C1043 1.385 . S
C1047 C1046 1.374 . S
C1048 C1045 1.499 . S
C1048 C1049 1.373 . S
C1048 C1050 1.389 . S
C1049 H1028 0.950 . S
C1049 C1048 1.373 . S
C1049 C1065 1.377 . S
C1050 C1048 1.389 . S
C1050 C1051 1.524 . S
C1050 C1064 1.377 . S
C1051 C1050 1.524 . S
C1051 C1052 1.397 . S
C1051 C1056 1.363 . S
C1052 H1029 0.950 . S
C1052 C1051 1.397 . S
C1052 C1053 1.334 . S
C1053 H1030 0.950 . S
C1053 C1052 1.334 . S
C1053 C1054 1.287 1_545 S
C1054 C1053 1.287 1_565 S
C1054 C1055 1.519 1_565 S
C1054 H1073 0.913 . S
C1055 H1031 0.937 1_545 S
C1055 C1054 1.519 1_545 S
C1055 C1056 1.434 . S
C1056 H1032 0.950 . S
C1056 C1051 1.363 . S
C1056 C1055 1.434 . S
C1057 H1033 0.951 . S
C1057 C1058 1.366 . S
C1057 C1059 1.388 . S
C1058 C1057 1.366 . S
C1058 C1062 1.385 . S
C1059 H1034 0.951 . S
C1059 C1057 1.388 . S
C1059 C1060 1.366 . S
C1060 C1059 1.366 . S
C1060 C1061 1.414 . S
C1060 C1063 1.499 . S
C1061 H1035 0.950 . S
C1061 C1060 1.414 . S
C1061 C1062 1.374 . S
C1062 H1036 0.950 . S
C1062 C1058 1.385 . S
C1062 C1061 1.374 . S
C1063 C1060 1.499 . S
C1063 C1064 1.373 . S
C1063 C1065 1.389 . S
C1064 H1037 0.950 . S
C1064 C1050 1.377 . S
C1064 C1063 1.373 . S
C1065 C1049 1.377 . S
C1065 C1063 1.389 . S
C1065 C1066 1.524 . S
C1066 C1065 1.524 . S
C1066 C1067 1.397 . S
C1066 C1071 1.363 . S
C1067 H1038 0.950 . S
C1067 C1066 1.397 . S
C1067 C1068 1.334 . S
C1068 H1039 0.950 . S
C1068 C1067 1.334 . S
C1068 C1069 1.287 . S
C1069 C1068 1.287 . S
C1069 C1070 1.524 . S
C1069 H1072 0.999 . S
C1070 H1040 0.950 . S
C1070 C1069 1.524 . S
C1070 C1071 1.415 . S
C1071 H1041 0.950 . S
C1071 C1066 1.363 . S
C1071 C1070 1.415 . S
H1072 C1069 0.999 . S
H1073 C1054 0.913 . S
H1074 C1092 0.951 . S
H1075 C1094 0.951 . S
H1076 C1096 0.950 . S
H1077 C1097 0.950 . S
H1078 C1099 0.950 . S
H1079 C1102 0.950 . S
H1080 C1103 0.950 . S
H1081 C1105 0.950 . S
H1082 C1106 0.950 . S
H1083 C1107 0.951 . S
H1084 C1109 0.951 . S
H1085 C1111 0.950 . S
H1086 C1112 0.950 . S
H1087 C1114 0.950 . S
H1088 C1117 0.950 . S
H1089 C1118 0.950 . S
H1090 C1120 0.950 . S
H1091 C1121 0.950 . S
C1092 H1074 0.951 . S
C1092 C1093 1.366 . S
C1092 C1094 1.388 . S
C1093 C1092 1.366 . S
C1093 C1097 1.385 . S
C1094 H1075 0.951 . S
C1094 C1092 1.388 . S
C1094 C1095 1.366 . S
C1095 C1094 1.366 . S
C1095 C1096 1.414 . S
C1095 C1098 1.499 . S
C1096 H1076 0.950 . S
C1096 C1095 1.414 . S
C1096 C1097 1.374 . S
C1097 H1077 0.950 . S
C1097 C1093 1.385 . S
C1097 C1096 1.374 . S
C1098 C1095 1.499 . S
C1098 C1099 1.373 . S
C1098 C1100 1.389 . S
C1099 H1078 0.950 . S
C1099 C1098 1.373 . S
C1099 C1115 1.377 . S
C1100 C1098 1.389 . S
C1100 C1101 1.524 . S
C1100 C1114 1.377 . S
C1101 C1100 1.524 . S
C1101 C1102 1.397 . S
C1101 C1106 1.363 . S
C1102 H1079 0.950 . S
C1102 C1101 1.397 . S
C1102 C1103 1.334 . S
C1103 H1080 0.950 . S
C1103 C1102 1.334 . S
C1103 C1104 1.287 1_655 S
C1104 C1103 1.287 1_455 S
C1104 C1105 1.524 . S
C1104 H1123 0.913 . S
C1105 H1081 0.950 . S
C1105 C1104 1.524 . S
C1105 C1106 1.415 1_455 S
C1106 H1082 0.950 . S
C1106 C1101 1.363 . S
C1106 C1105 1.415 1_655 S
C1107 H1083 0.951 . S
C1107 C1108 1.366 . S
C1107 C1109 1.388 . S
C1108 C1107 1.366 . S
C1108 C1112 1.385 . S
C1109 H1084 0.951 . S
C1109 C1107 1.388 . S
C1109 C1110 1.366 . S
C1110 C1109 1.366 . S
C1110 C1111 1.414 . S
C1110 C1113 1.499 . S
C1111 H1085 0.950 . S
C1111 C1110 1.414 . S
C1111 C1112 1.374 . S
C1112 H1086 0.950 . S
C1112 C1108 1.385 . S
C1112 C1111 1.374 . S
C1113 C1110 1.499 . S
C1113 C1114 1.373 . S
C1113 C1115 1.389 . S
C1114 H1087 0.950 . S
C1114 C1100 1.377 . S
C1114 C1113 1.373 . S
C1115 C1099 1.377 . S
C1115 C1113 1.389 . S
C1115 C1116 1.524 . S
C1116 C1115 1.524 . S
C1116 C1117 1.397 . S
C1116 C1121 1.363 . S
C1117 H1088 0.950 . S
C1117 C1116 1.397 . S
C1117 C1118 1.334 . S
C1118 H1089 0.950 . S
C1118 C1117 1.334 . S
C1118 C1119 1.287 . S
C1119 C1118 1.287 . S
C1119 C1120 1.524 . S
C1119 H1122 0.999 . S
C1120 H1090 0.950 . S
C1120 C1119 1.524 . S
C1120 C1121 1.415 . S
C1121 H1091 0.950 . S
C1121 C1116 1.363 . S
C1121 C1120 1.415 . S
H1122 C1119 0.999 . S
H1123 C1104 0.913 . S
H1124 C1142 0.951 . S
H1125 C1144 0.951 . S
H1126 C1146 0.950 . S
H1127 C1147 0.950 . S
H1128 C1149 0.950 . S
H1129 C1152 0.950 . S
H1130 C1153 0.950 . S
H1131 C1155 0.950 . S
H1132 C1156 0.950 . S
H1133 C1157 0.951 . S
H1134 C1159 0.951 . S
H1135 C1161 0.950 . S
H1136 C1162 0.950 . S
H1137 C1164 0.950 . S
H1138 C1167 0.950 . S
H1139 C1168 0.950 . S
H1140 C1170 0.950 . S
H1141 C1171 0.950 . S
C1142 H1124 0.951 . S
C1142 C1143 1.366 . S
C1142 C1144 1.388 . S
C1143 C1142 1.366 . S
C1143 C1147 1.385 . S
C1144 H1125 0.951 . S
C1144 C1142 1.388 . S
C1144 C1145 1.366 . S
C1145 C1144 1.366 . S
C1145 C1146 1.414 . S
C1145 C1148 1.499 . S
C1146 H1126 0.950 . S
C1146 C1145 1.414 . S
C1146 C1147 1.374 . S
C1147 H1127 0.950 . S
C1147 C1143 1.385 . S
C1147 C1146 1.374 . S
C1148 C1145 1.499 . S
C1148 C1149 1.373 . S
C1148 C1150 1.389 . S
C1149 H1128 0.950 . S
C1149 C1148 1.373 . S
C1149 C1165 1.377 . S
C1150 C1148 1.389 . S
C1150 C1151 1.524 . S
C1150 C1164 1.377 . S
C1151 C1150 1.524 . S
C1151 C1152 1.397 . S
C1151 C1156 1.363 . S
C1152 H1129 0.950 . S
C1152 C1151 1.397 . S
C1152 C1153 1.334 . S
C1153 H1130 0.950 . S
C1153 C1152 1.334 . S
C1153 C1154 1.287 . S
C1154 C1153 1.287 . S
C1154 C1155 1.524 . S
C1154 H1173 0.913 . S
C1155 H1131 0.950 . S
C1155 C1154 1.524 . S
C1155 C1156 1.415 . S
C1156 H1132 0.950 . S
C1156 C1151 1.363 . S
C1156 C1155 1.415 . S
C1157 H1133 0.951 . S
C1157 C1158 1.366 . S
C1157 C1159 1.388 . S
C1158 C1157 1.366 . S
C1158 C1162 1.385 . S
C1159 H1134 0.951 . S
C1159 C1157 1.388 . S
C1159 C1160 1.366 . S
C1160 C1159 1.366 . S
C1160 C1161 1.414 . S
C1160 C1163 1.499 . S
C1161 H1135 0.950 . S
C1161 C1160 1.414 . S
C1161 C1162 1.374 . S
C1162 H1136 0.950 . S
C1162 C1158 1.385 . S
C1162 C1161 1.374 . S
C1163 C1160 1.499 . S
C1163 C1164 1.373 . S
C1163 C1165 1.389 . S
C1164 H1137 0.950 . S
C1164 C1150 1.377 . S
C1164 C1163 1.373 . S
C1165 C1149 1.377 . S
C1165 C1163 1.389 . S
C1165 C1166 1.524 . S
C1166 C1165 1.524 . S
C1166 C1167 1.397 . S
C1166 C1171 1.363 . S
C1167 H1138 0.950 . S
C1167 C1166 1.397 . S
C1167 C1168 1.334 . S
C1168 H1139 0.950 . S
C1168 C1167 1.334 . S
C1168 C1169 1.287 . S
C1169 C1168 1.287 . S
C1169 C1170 1.524 . S
C1169 H1172 0.999 . S
C1170 H1140 0.950 . S
C1170 C1169 1.524 . S
C1170 C1171 1.415 . S
C1171 H1141 0.950 . S
C1171 C1166 1.363 . S
C1171 C1170 1.415 . S
H1172 C1169 0.999 . S
H1173 C1154 0.913 . S
H1174 C1192 0.951 . S
H1175 C1194 0.951 . S
H1176 C1196 0.950 . S
H1177 C1197 0.950 . S
H1178 C1199 0.950 . S
H1179 C1202 0.950 . S
H1180 C1203 0.950 . S
H1181 C1205 0.950 . S
H1182 C1206 0.950 . S
H1183 C1207 0.951 . S
H1184 C1209 0.951 . S
H1185 C1211 0.950 . S
H1186 C1212 0.950 . S
H1187 C1214 0.950 . S
H1188 C1217 0.950 . S
H1189 C1218 0.950 . S
H1190 C1220 0.950 . S
H1191 C1221 0.950 . S
C1192 H1174 0.951 . S
C1192 C1193 1.366 . S
C1192 C1194 1.388 . S
C1193 C1192 1.366 . S
C1193 C1197 1.385 . S
C1194 H1175 0.951 . S
C1194 C1192 1.388 . S
C1194 C1195 1.366 . S
C1195 C1194 1.366 . S
C1195 C1196 1.414 . S
C1195 C1198 1.499 . S
C1196 H1176 0.950 . S
C1196 C1195 1.414 . S
C1196 C1197 1.374 . S
C1197 H1177 0.950 . S
C1197 C1193 1.385 . S
C1197 C1196 1.374 . S
C1198 C1195 1.499 . S
C1198 C1199 1.373 . S
C1198 C1200 1.389 . S
C1199 H1178 0.950 . S
C1199 C1198 1.373 . S
C1199 C1215 1.377 . S
C1200 C1198 1.389 . S
C1200 C1201 1.524 . S
C1200 C1214 1.377 . S
C1201 C1200 1.524 . S
C1201 C1202 1.397 . S
C1201 C1206 1.363 . S
C1202 H1179 0.950 . S
C1202 C1201 1.397 . S
C1202 C1203 1.334 . S
C1203 H1180 0.950 . S
C1203 C1202 1.334 . S
C1203 C1204 1.287 . S
C1204 C1203 1.287 . S
C1204 C1205 1.524 . S
C1204 H1223 0.913 . S
C1205 H1181 0.950 . S
C1205 C1204 1.524 . S
C1205 C1206 1.415 . S
C1206 H1182 0.950 . S
C1206 C1201 1.363 . S
C1206 C1205 1.415 . S
C1207 H1183 0.951 . S
C1207 C1208 1.366 . S
C1207 C1209 1.388 . S
C1208 C1207 1.366 . S
C1208 C1212 1.385 . S
C1209 H1184 0.951 . S
C1209 C1207 1.388 . S
C1209 C1210 1.366 . S
C1210 C1209 1.366 . S
C1210 C1211 1.414 . S
C1210 C1213 1.499 . S
C1211 H1185 0.950 . S
C1211 C1210 1.414 . S
C1211 C1212 1.374 . S
C1212 H1186 0.950 . S
C1212 C1208 1.385 . S
C1212 C1211 1.374 . S
C1213 C1210 1.499 . S
C1213 C1214 1.373 . S
C1213 C1215 1.389 . S
C1214 H1187 0.950 . S
C1214 C1200 1.377 . S
C1214 C1213 1.373 . S
C1215 C1199 1.377 . S
C1215 C1213 1.389 . S
C1215 C1216 1.524 . S
C1216 C1215 1.524 . S
C1216 C1217 1.397 . S
C1216 C1221 1.363 . S
C1217 H1188 0.950 . S
C1217 C1216 1.397 . S
C1217 C1218 1.334 . S
C1218 H1189 0.950 . S
C1218 C1217 1.334 . S
C1218 C1219 1.287 . S
C1219 C1218 1.287 . S
C1219 C1220 1.524 . S
C1219 H1222 0.999 . S
C1220 H1190 0.950 . S
C1220 C1219 1.524 . S
C1220 C1221 1.415 . S
C1221 H1191 0.950 . S
C1221 C1216 1.363 . S
C1221 C1220 1.415 . S
H1222 C1219 0.999 . S
H1223 C1204 0.913 . S
H1224 C1242 0.951 . S
H1225 C1244 0.951 . S
H1226 C1246 0.950 . S
H1227 C1247 0.950 . S
H1228 C1249 0.950 . S
H1229 C1252 0.950 . S
H1230 C1253 0.950 . S
H1231 C1255 0.950 . S
H1232 C1256 0.950 . S
H1233 C1257 0.951 . S
H1234 C1259 0.951 . S
H1235 C1261 0.950 . S
H1236 C1262 0.950 . S
H1237 C1264 0.950 . S
H1238 C1267 0.950 . S
H1239 C1268 0.950 . S
H1240 C1270 0.950 . S
H1241 C1271 0.950 . S
C1242 H1224 0.951 . S
C1242 C1243 1.366 . S
C1242 C1244 1.388 . S
C1243 C1242 1.366 . S
C1243 C1247 1.385 . S
C1244 H1225 0.951 . S
C1244 C1242 1.388 . S
C1244 C1245 1.366 . S
C1245 C1244 1.366 . S
C1245 C1246 1.414 . S
C1245 C1248 1.499 . S
C1246 H1226 0.950 . S
C1246 C1245 1.414 . S
C1246 C1247 1.374 . S
C1247 H1227 0.950 . S
C1247 C1243 1.385 . S
C1247 C1246 1.374 . S
C1248 C1245 1.499 . S
C1248 C1249 1.373 . S
C1248 C1250 1.389 . S
C1249 H1228 0.950 . S
C1249 C1248 1.373 . S
C1249 C1265 1.377 . S
C1250 C1248 1.389 . S
C1250 C1251 1.524 . S
C1250 C1264 1.377 . S
C1251 C1250 1.524 . S
C1251 C1252 1.397 . S
C1251 C1256 1.363 . S
C1252 H1229 0.950 . S
C1252 C1251 1.397 . S
C1252 C1253 1.334 . S
C1253 H1230 0.950 . S
C1253 C1252 1.334 . S
C1253 C1254 1.287 . S
C1254 C1253 1.287 . S
C1254 C1255 1.524 . S
C1254 H1273 0.913 . S
C1255 H1231 0.950 . S
C1255 C1254 1.524 . S
C1255 C1256 1.415 . S
C1256 H1232 0.950 . S
C1256 C1251 1.363 . S
C1256 C1255 1.415 . S
C1257 H1233 0.951 . S
C1257 C1258 1.366 . S
C1257 C1259 1.388 . S
C1258 C1257 1.366 . S
C1258 C1262 1.385 . S
C1259 H1234 0.951 . S
C1259 C1257 1.388 . S
C1259 C1260 1.366 . S
C1260 C1259 1.366 . S
C1260 C1261 1.414 . S
C1260 C1263 1.499 . S
C1261 H1235 0.950 . S
C1261 C1260 1.414 . S
C1261 C1262 1.374 . S
C1262 H1236 0.950 . S
C1262 C1258 1.385 . S
C1262 C1261 1.374 . S
C1263 C1260 1.499 . S
C1263 C1264 1.373 . S
C1263 C1265 1.389 . S
C1264 H1237 0.950 . S
C1264 C1250 1.377 . S
C1264 C1263 1.373 . S
C1265 C1249 1.377 . S
C1265 C1263 1.389 . S
C1265 C1266 1.524 . S
C1266 C1265 1.524 . S
C1266 C1267 1.397 . S
C1266 C1271 1.363 . S
C1267 H1238 0.950 . S
C1267 C1266 1.397 . S
C1267 C1268 1.334 . S
C1268 H1239 0.950 . S
C1268 C1267 1.334 . S
C1268 C1269 1.287 . S
C1269 C1268 1.287 . S
C1269 C1270 1.524 . S
C1269 H1272 0.999 . S
C1270 H1240 0.950 . S
C1270 C1269 1.524 . S
C1270 C1271 1.415 . S
C1271 H1241 0.950 . S
C1271 C1266 1.363 . S
C1271 C1270 1.415 . S
H1272 C1269 0.999 . S
H1273 C1254 0.913 . S
H1274 C1292 0.951 . S
H1275 C1294 0.951 . S
H1276 C1296 0.950 . S
H1277 C1297 0.950 . S
H1278 C1299 0.950 . S
H1279 C1302 0.950 . S
H1280 C1303 0.950 . S
H1281 C1305 0.950 . S
H1282 C1306 0.950 . S
H1283 C1307 0.951 . S
H1284 C1309 0.951 . S
H1285 C1311 0.950 . S
H1286 C1312 0.950 . S
H1287 C1314 0.950 . S
H1288 C1317 0.950 . S
H1289 C1318 0.950 . S
H1290 C1320 0.950 . S
H1291 C1321 0.950 . S
C1292 H1274 0.951 . S
C1292 C1293 1.366 . S
C1292 C1294 1.388 . S
C1293 C1292 1.366 . S
C1293 C1297 1.385 . S
C1294 H1275 0.951 . S
C1294 C1292 1.388 . S
C1294 C1295 1.366 . S
C1295 C1294 1.366 . S
C1295 C1296 1.414 . S
C1295 C1298 1.499 . S
C1296 H1276 0.950 . S
C1296 C1295 1.414 . S
C1296 C1297 1.374 . S
C1297 H1277 0.950 . S
C1297 C1293 1.385 . S
C1297 C1296 1.374 . S
C1298 C1295 1.499 . S
C1298 C1299 1.373 . S
C1298 C1300 1.389 . S
C1299 H1278 0.950 . S
C1299 C1298 1.373 . S
C1299 C1315 1.377 . S
C1300 C1298 1.389 . S
C1300 C1301 1.524 . S
C1300 C1314 1.377 . S
C1301 C1300 1.524 . S
C1301 C1302 1.397 . S
C1301 C1306 1.363 . S
C1302 H1279 0.950 . S
C1302 C1301 1.397 . S
C1302 C1303 1.334 . S
C1303 H1280 0.950 . S
C1303 C1302 1.334 . S
C1303 C1304 1.287 . S
C1304 C1303 1.287 . S
C1304 C1305 1.524 . S
C1304 H1323 0.913 . S
C1305 H1281 0.950 . S
C1305 C1304 1.524 . S
C1305 C1306 1.415 . S
C1306 H1282 0.950 . S
C1306 C1301 1.363 . S
C1306 C1305 1.415 . S
C1307 H1283 0.951 . S
C1307 C1308 1.366 . S
C1307 C1309 1.388 . S
C1308 C1307 1.366 . S
C1308 C1312 1.385 . S
C1309 H1284 0.951 . S
C1309 C1307 1.388 . S
C1309 C1310 1.366 . S
C1310 C1309 1.366 . S
C1310 C1311 1.414 . S
C1310 C1313 1.499 . S
C1311 H1285 0.950 . S
C1311 C1310 1.414 . S
C1311 C1312 1.374 . S
C1312 H1286 0.950 . S
C1312 C1308 1.385 . S
C1312 C1311 1.374 . S
C1313 C1310 1.499 . S
C1313 C1314 1.373 . S
C1313 C1315 1.389 . S
C1314 H1287 0.950 . S
C1314 C1300 1.377 . S
C1314 C1313 1.373 . S
C1315 C1299 1.377 . S
C1315 C1313 1.389 . S
C1315 C1316 1.524 . S
C1316 C1315 1.524 . S
C1316 C1317 1.397 . S
C1316 C1321 1.363 . S
C1317 H1288 0.950 . S
C1317 C1316 1.397 . S
C1317 C1318 1.334 . S
C1318 H1289 0.950 . S
C1318 C1317 1.334 . S
C1318 C1319 1.287 . S
C1319 C1318 1.287 . S
C1319 C1320 1.524 . S
C1319 H1322 0.999 . S
C1320 H1290 0.950 . S
C1320 C1319 1.524 . S
C1320 C1321 1.415 . S
C1321 H1291 0.950 . S
C1321 C1316 1.363 . S
C1321 C1320 1.415 . S
H1322 C1319 0.999 . S
H1323 C1304 0.913 . S
H1324 C1342 0.951 . S
H1325 C1344 0.951 . S
H1326 C1346 0.950 . S
H1327 C1347 0.950 . S
H1328 C1349 0.950 . S
H1329 C1352 0.950 . S
H1330 C1353 0.950 . S
H1331 C1355 0.950 . S
H1332 C1356 0.950 . S
H1333 C1357 0.951 . S
H1334 C1359 0.951 . S
H1335 C1361 0.950 . S
H1336 C1362 0.950 . S
H1337 C1364 0.950 . S
H1338 C1367 0.950 . S
H1339 C1368 0.950 . S
H1340 C1370 0.950 . S
H1341 C1371 0.950 . S
C1342 H1324 0.951 . S
C1342 C1343 1.366 . S
C1342 C1344 1.388 . S
C1343 C1342 1.366 . S
C1343 C1347 1.385 . S
C1344 H1325 0.951 . S
C1344 C1342 1.388 . S
C1344 C1345 1.366 . S
C1345 C1344 1.366 . S
C1345 C1346 1.414 . S
C1345 C1348 1.499 . S
C1346 H1326 0.950 . S
C1346 C1345 1.414 . S
C1346 C1347 1.374 . S
C1347 H1327 0.950 . S
C1347 C1343 1.385 . S
C1347 C1346 1.374 . S
C1348 C1345 1.499 . S
C1348 C1349 1.373 . S
C1348 C1350 1.389 . S
C1349 H1328 0.950 . S
C1349 C1348 1.373 . S
C1349 C1365 1.377 . S
C1350 C1348 1.389 . S
C1350 C1351 1.524 . S
C1350 C1364 1.377 . S
C1351 C1350 1.524 . S
C1351 C1352 1.397 . S
C1351 C1356 1.363 . S
C1352 H1329 0.950 . S
C1352 C1351 1.397 . S
C1352 C1353 1.334 . S
C1353 H1330 0.950 . S
C1353 C1352 1.334 . S
C1353 C1354 1.287 . S
C1354 C1353 1.287 . S
C1354 C1355 1.524 1_565 S
C1354 H1373 0.913 1_565 S
C1355 H1331 0.950 . S
C1355 C1354 1.524 1_545 S
C1355 C1356 1.415 1_545 S
C1356 H1332 0.950 . S
C1356 C1351 1.363 . S
C1356 C1355 1.415 1_565 S
C1357 H1333 0.951 . S
C1357 C1358 1.366 . S
C1357 C1359 1.388 . S
C1358 C1357 1.366 . S
C1358 C1362 1.385 . S
C1359 H1334 0.951 . S
C1359 C1357 1.388 . S
C1359 C1360 1.366 . S
C1360 C1359 1.366 . S
C1360 C1361 1.414 . S
C1360 C1363 1.499 . S
C1361 H1335 0.950 . S
C1361 C1360 1.414 . S
C1361 C1362 1.374 . S
C1362 H1336 0.950 . S
C1362 C1358 1.385 . S
C1362 C1361 1.374 . S
C1363 C1360 1.499 . S
C1363 C1364 1.373 . S
C1363 C1365 1.389 . S
C1364 H1337 0.950 . S
C1364 C1350 1.377 . S
C1364 C1363 1.373 . S
C1365 C1349 1.377 . S
C1365 C1363 1.389 . S
C1365 C1366 1.524 . S
C1366 C1365 1.524 . S
C1366 C1367 1.397 . S
C1366 C1371 1.363 . S
C1367 H1338 0.950 . S
C1367 C1366 1.397 . S
C1367 C1368 1.334 . S
C1368 H1339 0.950 . S
C1368 C1367 1.334 . S
C1368 C1369 1.287 . S
C1369 C1368 1.287 . S
C1369 C1370 1.524 . S
C1369 H1372 0.999 . S
C1370 H1340 0.950 . S
C1370 C1369 1.524 . S
C1370 C1371 1.415 . S
C1371 H1341 0.950 . S
C1371 C1366 1.363 . S
C1371 C1370 1.415 . S
H1372 C1369 0.999 . S
H1373 C1354 0.913 1_545 S
H1374 C1392 0.951 . S
H1375 C1394 0.951 . S
H1376 C1396 0.950 . S
H1377 C1397 0.950 . S
H1378 C1399 0.950 . S
H1379 C1402 0.950 . S
H1380 C1403 0.950 . S
H1381 C1405 0.950 . S
H1382 C1406 0.950 . S
H1383 C1407 0.951 . S
H1384 C1409 0.951 . S
H1385 C1411 0.950 . S
H1386 C1412 0.950 . S
H1387 C1414 0.950 . S
H1388 C1417 0.950 . S
H1389 C1418 0.950 . S
H1390 C1420 0.950 1_655 S
H1391 C1421 0.950 . S
C1392 H1374 0.951 . S
C1392 C1393 1.366 . S
C1392 C1394 1.388 . S
C1393 C1392 1.366 . S
C1393 C1397 1.385 . S
C1394 H1375 0.951 . S
C1394 C1392 1.388 . S
C1394 C1395 1.366 . S
C1395 C1394 1.366 . S
C1395 C1396 1.414 . S
C1395 C1398 1.499 . S
C1396 H1376 0.950 . S
C1396 C1395 1.414 . S
C1396 C1397 1.374 . S
C1397 H1377 0.950 . S
C1397 C1393 1.385 . S
C1397 C1396 1.374 . S
C1398 C1395 1.499 . S
C1398 C1399 1.373 . S
C1398 C1400 1.389 . S
C1399 H1378 0.950 . S
C1399 C1398 1.373 . S
C1399 C1415 1.377 . S
C1400 C1398 1.389 . S
C1400 C1401 1.524 . S
C1400 C1414 1.377 . S
C1401 C1400 1.524 . S
C1401 C1402 1.397 . S
C1401 C1406 1.363 . S
C1402 H1379 0.950 . S
C1402 C1401 1.397 . S
C1402 C1403 1.334 . S
C1403 H1380 0.950 . S
C1403 C1402 1.334 . S
C1403 C1404 1.287 . S
C1404 C1403 1.287 . S
C1404 C1405 1.524 . S
C1404 H1423 0.913 . S
C1405 H1381 0.950 . S
C1405 C1404 1.524 . S
C1405 C1406 1.415 . S
C1406 H1382 0.950 . S
C1406 C1401 1.363 . S
C1406 C1405 1.415 . S
C1407 H1383 0.951 . S
C1407 C1408 1.366 . S
C1407 C1409 1.388 . S
C1408 C1407 1.366 . S
C1408 C1412 1.385 . S
C1409 H1384 0.951 . S
C1409 C1407 1.388 . S
C1409 C1410 1.366 . S
C1410 C1409 1.366 . S
C1410 C1411 1.414 . S
C1410 C1413 1.499 . S
C1411 H1385 0.950 . S
C1411 C1410 1.414 . S
C1411 C1412 1.374 . S
C1412 H1386 0.950 . S
C1412 C1408 1.385 . S
C1412 C1411 1.374 . S
C1413 C1410 1.499 . S
C1413 C1414 1.373 . S
C1413 C1415 1.389 . S
C1414 H1387 0.950 . S
C1414 C1400 1.377 . S
C1414 C1413 1.373 . S
C1415 C1399 1.377 . S
C1415 C1413 1.389 . S
C1415 C1416 1.524 . S
C1416 C1415 1.524 . S
C1416 C1417 1.397 . S
C1416 C1421 1.363 . S
C1417 H1388 0.950 . S
C1417 C1416 1.397 . S
C1417 C1418 1.334 . S
C1418 H1389 0.950 . S
C1418 C1417 1.334 . S
C1418 C1419 1.287 . S
C1419 C1418 1.287 . S
C1419 C1420 1.524 . S
C1419 H1422 0.999 1_455 S
C1420 H1390 0.950 1_455 S
C1420 C1419 1.524 . S
C1420 C1421 1.415 . S
C1421 H1391 0.950 . S
C1421 C1416 1.363 . S
C1421 C1420 1.415 . S
H1422 C1419 0.999 1_655 S
H1423 C1404 0.913 . S
H1424 C1442 0.951 . S
H1425 C1444 0.951 . S
H1426 C1446 0.950 . S
H1427 C1447 0.950 . S
H1428 C1449 0.950 . S
H1429 C1452 0.950 . S
H1430 C1453 0.950 . S
H1431 C1455 0.950 . S
H1432 C1456 0.950 . S
H1433 C1457 0.951 . S
H1434 C1459 0.951 . S
H1435 C1461 0.950 . S
H1436 C1462 0.950 . S
H1437 C1464 0.950 . S
H1438 C1467 0.950 . S
H1439 C1468 0.950 . S
H1440 C1470 0.950 . S
H1441 C1471 0.950 . S
C1442 H1424 0.951 . S
C1442 C1443 1.366 . S
C1442 C1444 1.388 . S
C1443 C1442 1.366 . S
C1443 C1447 1.385 . S
C1444 H1425 0.951 . S
C1444 C1442 1.388 . S
C1444 C1445 1.366 . S
C1445 C1444 1.366 . S
C1445 C1446 1.414 . S
C1445 C1448 1.499 . S
C1446 H1426 0.950 . S
C1446 C1445 1.414 . S
C1446 C1447 1.374 . S
C1447 H1427 0.950 . S
C1447 C1443 1.385 . S
C1447 C1446 1.374 . S
C1448 C1445 1.499 . S
C1448 C1449 1.373 . S
C1448 C1450 1.389 . S
C1449 H1428 0.950 . S
C1449 C1448 1.373 . S
C1449 C1465 1.377 . S
C1450 C1448 1.389 . S
C1450 C1451 1.524 . S
C1450 C1464 1.377 . S
C1451 C1450 1.524 . S
C1451 C1452 1.397 . S
C1451 C1456 1.363 . S
C1452 H1429 0.950 . S
C1452 C1451 1.397 . S
C1452 C1453 1.334 . S
C1453 H1430 0.950 . S
C1453 C1452 1.334 . S
C1453 C1454 1.287 . S
C1454 C1453 1.287 . S
C1454 C1455 1.524 . S
C1454 H1473 0.913 . S
C1455 H1431 0.950 . S
C1455 C1454 1.524 . S
C1455 C1456 1.415 . S
C1456 H1432 0.950 . S
C1456 C1451 1.363 . S
C1456 C1455 1.415 . S
C1457 H1433 0.951 . S
C1457 C1458 1.366 . S
C1457 C1459 1.388 . S
C1458 C1457 1.366 . S
C1458 C1462 1.385 . S
C1459 H1434 0.951 . S
C1459 C1457 1.388 . S
C1459 C1460 1.366 . S
C1460 C1459 1.366 . S
C1460 C1461 1.414 . S
C1460 C1463 1.499 . S
C1461 H1435 0.950 . S
C1461 C1460 1.414 . S
C1461 C1462 1.374 . S
C1462 H1436 0.950 . S
C1462 C1458 1.385 . S
C1462 C1461 1.374 . S
C1463 C1460 1.499 . S
C1463 C1464 1.373 . S
C1463 C1465 1.389 . S
C1464 H1437 0.950 . S
C1464 C1450 1.377 . S
C1464 C1463 1.373 . S
C1465 C1449 1.377 . S
C1465 C1463 1.389 . S
C1465 C1466 1.524 . S
C1466 C1465 1.524 . S
C1466 C1467 1.397 . S
C1466 C1471 1.363 . S
C1467 H1438 0.950 . S
C1467 C1466 1.397 . S
C1467 C1468 1.334 . S
C1468 H1439 0.950 . S
C1468 C1467 1.334 . S
C1468 C1469 1.287 . S
C1469 C1468 1.287 . S
C1469 C1470 1.524 . S
C1469 H1472 0.999 . S
C1470 H1440 0.950 . S
C1470 C1469 1.524 . S
C1470 C1471 1.415 . S
C1471 H1441 0.950 . S
C1471 C1466 1.363 . S
C1471 C1470 1.415 . S
H1472 C1469 0.999 . S
H1473 C1454 0.913 . S
H1474 C1492 0.951 . S
H1475 C1494 0.951 . S
H1476 C1496 0.950 . S
H1477 C1497 0.950 . S
H1478 C1499 0.950 . S
H1479 C1502 0.950 . S
H1480 C1503 0.950 . S
H1481 C1505 0.950 . S
H1482 C1506 0.950 . S
H1483 C1507 0.951 . S
H1484 C1509 0.951 . S
H1485 C1511 0.950 . S
H1486 C1512 0.950 . S
H1487 C1514 0.950 . S
H1488 C1517 0.950 . S
H1489 C1518 0.950 . S
H1490 C1520 0.950 . S
H1491 C1521 0.950 . S
C1492 H1474 0.951 . S
C1492 C1493 1.366 . S
C1492 C1494 1.388 . S
C1493 C1492 1.366 . S
C1493 C1497 1.385 . S
C1494 H1475 0.951 . S
C1494 C1492 1.388 . S
C1494 C1495 1.366 . S
C1495 C1494 1.366 . S
C1495 C1496 1.414 . S
C1495 C1498 1.499 . S
C1496 H1476 0.950 . S
C1496 C1495 1.414 . S
C1496 C1497 1.374 . S
C1497 H1477 0.950 . S
C1497 C1493 1.385 . S
C1497 C1496 1.374 . S
C1498 C1495 1.499 . S
C1498 C1499 1.373 . S
C1498 C1500 1.389 . S
C1499 H1478 0.950 . S
C1499 C1498 1.373 . S
C1499 C1515 1.377 . S
C1500 C1498 1.389 . S
C1500 C1501 1.524 . S
C1500 C1514 1.377 . S
C1501 C1500 1.524 . S
C1501 C1502 1.397 . S
C1501 C1506 1.363 . S
C1502 H1479 0.950 . S
C1502 C1501 1.397 . S
C1502 C1503 1.334 . S
C1503 H1480 0.950 . S
C1503 C1502 1.334 . S
C1503 C1504 1.287 . S
C1504 C1503 1.287 . S
C1504 C1505 1.524 . S
C1504 H1523 0.913 . S
C1505 H1481 0.950 . S
C1505 C1504 1.524 . S
C1505 C1506 1.415 . S
C1506 H1482 0.950 . S
C1506 C1501 1.363 . S
C1506 C1505 1.415 . S
C1507 H1483 0.951 . S
C1507 C1508 1.366 . S
C1507 C1509 1.388 . S
C1508 C1507 1.366 . S
C1508 C1512 1.385 . S
C1509 H1484 0.951 . S
C1509 C1507 1.388 . S
C1509 C1510 1.366 . S
C1510 C1509 1.366 . S
C1510 C1511 1.414 . S
C1510 C1513 1.499 . S
C1511 H1485 0.950 . S
C1511 C1510 1.414 . S
C1511 C1512 1.374 . S
C1512 H1486 0.950 . S
C1512 C1508 1.385 . S
C1512 C1511 1.374 . S
C1513 C1510 1.499 . S
C1513 C1514 1.373 . S
C1513 C1515 1.389 . S
C1514 H1487 0.950 . S
C1514 C1500 1.377 . S
C1514 C1513 1.373 . S
C1515 C1499 1.377 . S
C1515 C1513 1.389 . S
C1515 C1516 1.524 . S
C1516 C1515 1.524 . S
C1516 C1517 1.397 . S
C1516 C1521 1.363 . S
C1517 H1488 0.950 . S
C1517 C1516 1.397 . S
C1517 C1518 1.334 . S
C1518 H1489 0.950 . S
C1518 C1517 1.334 . S
C1518 C1519 1.287 . S
C1519 C1518 1.287 . S
C1519 C1520 1.524 . S
C1519 H1522 0.999 . S
C1520 H1490 0.950 . S
C1520 C1519 1.524 . S
C1520 C1521 1.415 . S
C1521 H1491 0.950 . S
C1521 C1516 1.363 . S
C1521 C1520 1.415 . S
H1522 C1519 0.999 . S
H1523 C1504 0.913 . S
H1524 C1542 0.951 . S
H1525 C1544 0.951 . S
H1526 C1546 0.950 . S
H1527 C1547 0.950 . S
H1528 C1549 0.950 . S
H1529 C1552 0.950 . S
H1530 C1553 0.950 . S
H1531 C1555 0.950 . S
H1532 C1556 0.950 . S
H1533 C1557 0.951 . S
H1534 C1559 0.951 . S
H1535 C1561 0.950 . S
H1536 C1562 0.950 . S
H1537 C1564 0.950 . S
H1538 C1567 0.950 . S
H1539 C1568 0.950 . S
H1540 C1570 0.950 . S
H1541 C1571 0.950 . S
C1542 H1524 0.951 . S
C1542 C1543 1.366 . S
C1542 C1544 1.388 . S
C1543 C1542 1.366 . S
C1543 C1547 1.385 . S
C1544 H1525 0.951 . S
C1544 C1542 1.388 . S
C1544 C1545 1.366 . S
C1545 C1544 1.366 . S
C1545 C1546 1.414 . S
C1545 C1548 1.499 . S
C1546 H1526 0.950 . S
C1546 C1545 1.414 . S
C1546 C1547 1.374 . S
C1547 H1527 0.950 . S
C1547 C1543 1.385 . S
C1547 C1546 1.374 . S
C1548 C1545 1.499 . S
C1548 C1549 1.373 . S
C1548 C1550 1.389 . S
C1549 H1528 0.950 . S
C1549 C1548 1.373 . S
C1549 C1565 1.377 . S
C1550 C1548 1.389 . S
C1550 C1551 1.524 . S
C1550 C1564 1.377 . S
C1551 C1550 1.524 . S
C1551 C1552 1.397 . S
C1551 C1556 1.363 . S
C1552 H1529 0.950 . S
C1552 C1551 1.397 . S
C1552 C1553 1.334 . S
C1553 H1530 0.950 . S
C1553 C1552 1.334 . S
C1553 C1554 1.287 . S
C1554 C1553 1.287 . S
C1554 C1555 1.524 . S
C1554 H1573 0.913 . S
C1555 H1531 0.950 . S
C1555 C1554 1.524 . S
C1555 C1556 1.415 . S
C1556 H1532 0.950 . S
C1556 C1551 1.363 . S
C1556 C1555 1.415 . S
C1557 H1533 0.951 . S
C1557 C1558 1.366 . S
C1557 C1559 1.388 . S
C1558 C1557 1.366 . S
C1558 C1562 1.385 . S
C1559 H1534 0.951 . S
C1559 C1557 1.388 . S
C1559 C1560 1.366 . S
C1560 C1559 1.366 . S
C1560 C1561 1.414 . S
C1560 C1563 1.499 . S
C1561 H1535 0.950 . S
C1561 C1560 1.414 . S
C1561 C1562 1.374 . S
C1562 H1536 0.950 . S
C1562 C1558 1.385 . S
C1562 C1561 1.374 . S
C1563 C1560 1.499 . S
C1563 C1564 1.373 . S
C1563 C1565 1.389 . S
C1564 H1537 0.950 . S
C1564 C1550 1.377 . S
C1564 C1563 1.373 . S
C1565 C1549 1.377 . S
C1565 C1563 1.389 . S
C1565 C1566 1.524 . S
C1566 C1565 1.524 . S
C1566 C1567 1.397 . S
C1566 C1571 1.363 . S
C1567 H1538 0.950 . S
C1567 C1566 1.397 . S
C1567 C1568 1.334 . S
C1568 H1539 0.950 . S
C1568 C1567 1.334 . S
C1568 C1569 1.287 . S
C1569 C1568 1.287 . S
C1569 C1570 1.524 . S
C1569 H1572 0.999 . S
C1570 H1540 0.950 . S
C1570 C1569 1.524 . S
C1570 C1571 1.415 . S
C1571 H1541 0.950 . S
C1571 C1566 1.363 . S
C1571 C1570 1.415 . S
H1572 C1569 0.999 . S
H1573 C1554 0.913 . S
H1574 C1592 0.951 . S
H1575 C1594 0.951 . S
H1576 C1596 0.950 . S
H1577 C1597 0.950 . S
H1578 C1599 0.950 . S
H1579 C1602 0.950 . S
H1580 C1603 0.950 . S
H1581 C1605 0.950 . S
H1582 C1606 0.950 . S
H1583 C1607 0.951 . S
H1584 C1609 0.951 . S
H1585 C1611 0.950 . S
H1586 C1612 0.950 . S
H1587 C1614 0.950 . S
H1588 C1617 0.950 . S
H1589 C1618 0.950 . S
H1590 C1620 0.950 . S
H1591 C1621 0.950 . S
C1592 H1574 0.951 . S
C1592 C1593 1.366 . S
C1592 C1594 1.388 . S
C1593 C1592 1.366 . S
C1593 C1597 1.385 . S
C1594 H1575 0.951 . S
C1594 C1592 1.388 . S
C1594 C1595 1.366 . S
C1595 C1594 1.366 . S
C1595 C1596 1.414 . S
C1595 C1598 1.499 . S
C1596 H1576 0.950 . S
C1596 C1595 1.414 . S
C1596 C1597 1.374 . S
C1597 H1577 0.950 . S
C1597 C1593 1.385 . S
C1597 C1596 1.374 . S
C1598 C1595 1.499 . S
C1598 C1599 1.373 . S
C1598 C1600 1.389 . S
C1599 H1578 0.950 . S
C1599 C1598 1.373 . S
C1599 C1615 1.377 1_556 S
C1600 C1598 1.389 . S
C1600 C1601 1.524 . S
C1600 C1614 1.377 1_556 S
C1601 C1600 1.524 . S
C1601 C1602 1.397 . S
C1601 C1606 1.363 . S
C1602 H1579 0.950 . S
C1602 C1601 1.397 . S
C1602 C1603 1.334 . S
C1603 H1580 0.950 . S
C1603 C1602 1.334 . S
C1603 C1604 1.287 . S
C1604 C1603 1.287 . S
C1604 C1605 1.524 . S
C1604 H1623 0.913 . S
C1605 H1581 0.950 . S
C1605 C1604 1.524 . S
C1605 C1606 1.415 . S
C1606 H1582 0.950 . S
C1606 C1601 1.363 . S
C1606 C1605 1.415 . S
C1607 H1583 0.951 . S
C1607 C1608 1.366 . S
C1607 C1609 1.388 . S
C1608 C1607 1.366 . S
C1608 C1612 1.385 . S
C1609 H1584 0.951 . S
C1609 C1607 1.388 . S
C1609 C1610 1.366 . S
C1610 C1609 1.366 . S
C1610 C1611 1.414 . S
C1610 C1613 1.499 . S
C1611 H1585 0.950 . S
C1611 C1610 1.414 . S
C1611 C1612 1.374 . S
C1612 H1586 0.950 . S
C1612 C1608 1.385 . S
C1612 C1611 1.374 . S
C1613 C1610 1.499 . S
C1613 C1614 1.373 . S
C1613 C1615 1.389 . S
C1614 H1587 0.950 . S
C1614 C1600 1.377 1_554 S
C1614 C1613 1.373 . S
C1615 C1599 1.377 1_554 S
C1615 C1613 1.389 . S
C1615 C1616 1.524 . S
C1616 C1615 1.524 . S
C1616 C1617 1.397 . S
C1616 C1621 1.363 . S
C1617 H1588 0.950 . S
C1617 C1616 1.397 . S
C1617 C1618 1.334 . S
C1618 H1589 0.950 . S
C1618 C1617 1.334 . S
C1618 C1619 1.287 . S
C1619 C1618 1.287 . S
C1619 C1620 1.524 . S
C1619 H1622 0.999 . S
C1620 H1590 0.950 . S
C1620 C1619 1.524 . S
C1620 C1621 1.415 . S
C1621 H1591 0.950 . S
C1621 C1616 1.363 . S
C1621 C1620 1.415 . S
H1622 C1619 0.999 . S
H1623 C1604 0.913 . S
H1624 C1642 0.951 . S
H1625 C1644 0.951 . S
H1626 C1646 0.950 . S
H1627 C1647 0.950 . S
H1628 C1649 0.950 . S
H1629 C1652 0.950 . S
H1630 C1653 0.950 . S
H1631 C1655 0.950 . S
H1632 C1656 0.950 . S
H1633 C1657 0.951 . S
H1634 C1659 0.951 . S
H1635 C1661 0.950 . S
H1636 C1662 0.950 . S
H1637 C1664 0.950 . S
H1638 C1667 0.950 . S
H1639 C1668 0.950 . S
H1640 C1670 0.950 . S
H1641 C1671 0.950 . S
C1642 H1624 0.951 . S
C1642 C1643 1.366 . S
C1642 C1644 1.388 . S
C1643 C1642 1.366 . S
C1643 C1647 1.385 . S
C1644 H1625 0.951 . S
C1644 C1642 1.388 . S
C1644 C1645 1.366 . S
C1645 C1644 1.366 . S
C1645 C1646 1.414 . S
C1645 C1648 1.499 . S
C1646 H1626 0.950 . S
C1646 C1645 1.414 . S
C1646 C1647 1.374 . S
C1647 H1627 0.950 . S
C1647 C1643 1.385 . S
C1647 C1646 1.374 . S
C1648 C1645 1.499 . S
C1648 C1649 1.373 . S
C1648 C1650 1.389 . S
C1649 H1628 0.950 . S
C1649 C1648 1.373 . S
C1649 C1665 1.377 1_554 S
C1650 C1648 1.389 . S
C1650 C1651 1.524 . S
C1650 C1664 1.377 1_554 S
C1651 C1650 1.524 . S
C1651 C1652 1.397 . S
C1651 C1656 1.363 . S
C1652 H1629 0.950 . S
C1652 C1651 1.397 . S
C1652 C1653 1.334 . S
C1653 H1630 0.950 . S
C1653 C1652 1.334 . S
C1653 C1654 1.287 . S
C1654 C1653 1.287 . S
C1654 C1655 1.524 . S
C1654 H1673 0.913 . S
C1655 H1631 0.950 . S
C1655 C1654 1.524 . S
C1655 C1656 1.415 . S
C1656 H1632 0.950 . S
C1656 C1651 1.363 . S
C1656 C1655 1.415 . S
C1657 H1633 0.951 . S
C1657 C1658 1.366 . S
C1657 C1659 1.388 . S
C1658 C1657 1.366 . S
C1658 C1662 1.385 . S
C1659 H1634 0.951 . S
C1659 C1657 1.388 . S
C1659 C1660 1.366 . S
C1660 C1659 1.366 . S
C1660 C1661 1.414 . S
C1660 C1663 1.499 . S
C1661 H1635 0.950 . S
C1661 C1660 1.414 . S
C1661 C1662 1.374 . S
C1662 H1636 0.950 . S
C1662 C1658 1.385 . S
C1662 C1661 1.374 . S
C1663 C1660 1.499 . S
C1663 C1664 1.373 . S
C1663 C1665 1.389 . S
C1664 H1637 0.950 . S
C1664 C1650 1.377 1_556 S
C1664 C1663 1.373 . S
C1665 C1649 1.377 1_556 S
C1665 C1663 1.389 . S
C1665 C1666 1.524 . S
C1666 C1665 1.524 . S
C1666 C1667 1.397 . S
C1666 C1671 1.363 . S
C1667 H1638 0.950 . S
C1667 C1666 1.397 . S
C1667 C1668 1.334 . S
C1668 H1639 0.950 . S
C1668 C1667 1.334 . S
C1668 C1669 1.287 . S
C1669 C1668 1.287 . S
C1669 C1670 1.524 . S
C1669 H1672 0.999 . S
C1670 H1640 0.950 . S
C1670 C1669 1.524 . S
C1670 C1671 1.415 . S
C1671 H1641 0.950 . S
C1671 C1666 1.363 . S
C1671 C1670 1.415 . S
H1672 C1669 0.999 . S
H1673 C1654 0.913 . S
H1674 C1692 0.951 . S
H1675 C1694 0.951 . S
H1676 C1696 0.950 . S
H1677 C1697 0.950 . S
H1678 C1699 0.950 . S
H1679 C1702 0.950 . S
H1680 C1703 0.950 . S
H1681 C1705 0.950 . S
H1682 C1706 0.950 . S
H1683 C1707 0.951 . S
H1684 C1709 0.951 . S
H1685 C1711 0.950 . S
H1686 C1712 0.950 . S
H1687 C1714 0.950 . S
H1688 C1717 0.950 . S
H1689 C1718 0.950 . S
H1690 C1720 0.950 . S
H1691 C1721 0.950 . S
C1692 H1674 0.951 . S
C1692 C1693 1.366 . S
C1692 C1694 1.388 . S
C1693 C1692 1.366 . S
C1693 C1697 1.385 . S
C1694 H1675 0.951 . S
C1694 C1692 1.388 . S
C1694 C1695 1.366 . S
C1695 C1694 1.366 . S
C1695 C1696 1.414 . S
C1695 C1698 1.499 . S
C1696 H1676 0.950 . S
C1696 C1695 1.414 . S
C1696 C1697 1.374 . S
C1697 H1677 0.950 . S
C1697 C1693 1.385 . S
C1697 C1696 1.374 . S
C1698 C1695 1.499 . S
C1698 C1699 1.373 . S
C1698 C1700 1.389 . S
C1699 H1678 0.950 . S
C1699 C1698 1.373 . S
C1699 C1715 1.377 . S
C1700 C1698 1.389 . S
C1700 C1701 1.524 . S
C1700 C1714 1.377 . S
C1701 C1700 1.524 . S
C1701 C1702 1.397 . S
C1701 C1706 1.363 . S
C1702 H1679 0.950 . S
C1702 C1701 1.397 . S
C1702 C1703 1.334 . S
C1703 H1680 0.950 . S
C1703 C1702 1.334 . S
C1703 C1704 1.287 . S
C1704 C1703 1.287 . S
C1704 C1705 1.524 . S
C1704 H1723 0.913 . S
C1705 H1681 0.950 . S
C1705 C1704 1.524 . S
C1705 C1706 1.415 . S
C1706 H1682 0.950 . S
C1706 C1701 1.363 . S
C1706 C1705 1.415 . S
C1707 H1683 0.951 . S
C1707 C1708 1.366 . S
C1707 C1709 1.388 . S
C1708 C1707 1.366 . S
C1708 C1712 1.385 . S
C1709 H1684 0.951 . S
C1709 C1707 1.388 . S
C1709 C1710 1.366 . S
C1710 C1709 1.366 . S
C1710 C1711 1.414 . S
C1710 C1713 1.499 . S
C1711 H1685 0.950 . S
C1711 C1710 1.414 . S
C1711 C1712 1.374 . S
C1712 H1686 0.950 . S
C1712 C1708 1.385 . S
C1712 C1711 1.374 . S
C1713 C1710 1.499 . S
C1713 C1714 1.373 . S
C1713 C1715 1.389 . S
C1714 H1687 0.950 . S
C1714 C1700 1.377 . S
C1714 C1713 1.373 . S
C1715 C1699 1.377 . S
C1715 C1713 1.389 . S
C1715 C1716 1.524 . S
C1716 C1715 1.524 . S
C1716 C1717 1.397 . S
C1716 C1721 1.363 . S
C1717 H1688 0.950 . S
C1717 C1716 1.397 . S
C1717 C1718 1.334 . S
C1718 H1689 0.950 . S
C1718 C1717 1.334 . S
C1718 C1719 1.287 . S
C1719 C1718 1.287 . S
C1719 C1720 1.524 . S
C1719 H1722 0.999 . S
C1720 H1690 0.950 . S
C1720 C1719 1.524 . S
C1720 C1721 1.415 . S
C1721 H1691 0.950 . S
C1721 C1716 1.363 . S
C1721 C1720 1.415 . S
H1722 C1719 0.999 . S
H1723 C1704 0.913 . S
H1724 C1742 0.951 . S
H1725 C1744 0.951 . S
H1726 C1746 0.950 . S
H1727 C1747 0.950 . S
H1728 C1749 0.950 . S
H1729 C1752 0.950 . S
H1730 C1753 0.950 . S
H1731 C1755 0.950 . S
H1732 C1756 0.950 . S
H1733 C1757 0.951 . S
H1734 C1759 0.951 . S
H1735 C1761 0.950 . S
H1736 C1762 0.950 . S
H1737 C1764 0.950 . S
H1738 C1767 0.950 . S
H1739 C1768 0.950 . S
H1740 C1770 0.950 . S
H1741 C1771 0.950 . S
C1742 H1724 0.951 . S
C1742 C1743 1.366 . S
C1742 C1744 1.388 . S
C1743 C1742 1.366 . S
C1743 C1747 1.385 . S
C1744 H1725 0.951 . S
C1744 C1742 1.388 . S
C1744 C1745 1.366 . S
C1745 C1744 1.366 . S
C1745 C1746 1.414 . S
C1745 C1748 1.499 . S
C1746 H1726 0.950 . S
C1746 C1745 1.414 . S
C1746 C1747 1.374 . S
C1747 H1727 0.950 . S
C1747 C1743 1.385 . S
C1747 C1746 1.374 . S
C1748 C1745 1.499 . S
C1748 C1749 1.373 . S
C1748 C1750 1.389 . S
C1749 H1728 0.950 . S
C1749 C1748 1.373 . S
C1749 C1765 1.377 . S
C1750 C1748 1.389 . S
C1750 C1751 1.524 . S
C1750 C1764 1.377 . S
C1751 C1750 1.524 . S
C1751 C1752 1.397 . S
C1751 C1756 1.363 . S
C1752 H1729 0.950 . S
C1752 C1751 1.397 . S
C1752 C1753 1.334 . S
C1753 H1730 0.950 . S
C1753 C1752 1.334 . S
C1753 C1754 1.287 . S
C1754 C1753 1.287 . S
C1754 C1755 1.524 . S
C1754 H1773 0.913 . S
C1755 H1731 0.950 . S
C1755 C1754 1.524 . S
C1755 C1756 1.415 . S
C1756 H1732 0.950 . S
C1756 C1751 1.363 . S
C1756 C1755 1.415 . S
C1757 H1733 0.951 . S
C1757 C1758 1.366 . S
C1757 C1759 1.388 . S
C1758 C1757 1.366 . S
C1758 C1762 1.385 . S
C1759 H1734 0.951 . S
C1759 C1757 1.388 . S
C1759 C1760 1.366 . S
C1760 C1759 1.366 . S
C1760 C1761 1.414 . S
C1760 C1763 1.499 . S
C1761 H1735 0.950 . S
C1761 C1760 1.414 . S
C1761 C1762 1.374 . S
C1762 H1736 0.950 . S
C1762 C1758 1.385 . S
C1762 C1761 1.374 . S
C1763 C1760 1.499 . S
C1763 C1764 1.373 . S
C1763 C1765 1.389 . S
C1764 H1737 0.950 . S
C1764 C1750 1.377 . S
C1764 C1763 1.373 . S
C1765 C1749 1.377 . S
C1765 C1763 1.389 . S
C1765 C1766 1.524 . S
C1766 C1765 1.524 . S
C1766 C1767 1.397 . S
C1766 C1771 1.363 . S
C1767 H1738 0.950 . S
C1767 C1766 1.397 . S
C1767 C1768 1.334 . S
C1768 H1739 0.950 . S
C1768 C1767 1.334 . S
C1768 C1769 1.287 . S
C1769 C1768 1.287 . S
C1769 C1770 1.524 . S
C1769 H1772 0.999 . S
C1770 H1740 0.950 . S
C1770 C1769 1.524 . S
C1770 C1771 1.415 . S
C1771 H1741 0.950 . S
C1771 C1766 1.363 . S
C1771 C1770 1.415 . S
H1772 C1769 0.999 . S
H1773 C1754 0.913 . S
H1774 C1792 0.951 . S
H1775 C1794 0.951 . S
H1776 C1796 0.950 . S
H1777 C1797 0.950 . S
H1778 C1799 0.950 . S
H1779 C1802 0.950 . S
H1780 C1803 0.950 . S
H1781 C1805 0.950 . S
H1782 C1806 0.950 . S
H1783 C1807 0.951 . S
H1784 C1809 0.951 . S
H1785 C1811 0.950 . S
H1786 C1812 0.950 . S
H1787 C1814 0.950 . S
H1788 C1817 0.950 . S
H1789 C1818 0.950 . S
H1790 C1820 0.950 . S
H1791 C1821 0.950 . S
C1792 H1774 0.951 . S
C1792 C1793 1.366 . S
C1792 C1794 1.388 . S
C1793 C1792 1.366 . S
C1793 C1797 1.385 . S
C1794 H1775 0.951 . S
C1794 C1792 1.388 . S
C1794 C1795 1.366 . S
C1795 C1794 1.366 . S
C1795 C1796 1.414 . S
C1795 C1798 1.499 . S
C1796 H1776 0.950 . S
C1796 C1795 1.414 . S
C1796 C1797 1.374 . S
C1797 H1777 0.950 . S
C1797 C1793 1.385 . S
C1797 C1796 1.374 . S
C1798 C1795 1.499 . S
C1798 C1799 1.373 . S
C1798 C1800 1.389 . S
C1799 H1778 0.950 . S
C1799 C1798 1.373 . S
C1799 C1815 1.377 . S
C1800 C1798 1.389 . S
C1800 C1801 1.524 . S
C1800 C1814 1.377 . S
C1801 C1800 1.524 . S
C1801 C1802 1.397 . S
C1801 C1806 1.363 . S
C1802 H1779 0.950 . S
C1802 C1801 1.397 . S
C1802 C1803 1.334 . S
C1803 H1780 0.950 . S
C1803 C1802 1.334 . S
C1803 C1804 1.287 . S
C1804 C1803 1.287 . S
C1804 C1805 1.524 . S
C1804 H1823 0.913 . S
C1805 H1781 0.950 . S
C1805 C1804 1.524 . S
C1805 C1806 1.415 . S
C1806 H1782 0.950 . S
C1806 C1801 1.363 . S
C1806 C1805 1.415 . S
C1807 H1783 0.951 . S
C1807 C1808 1.366 . S
C1807 C1809 1.388 . S
C1808 C1807 1.366 . S
C1808 C1812 1.385 . S
C1809 H1784 0.951 . S
C1809 C1807 1.388 . S
C1809 C1810 1.366 . S
C1810 C1809 1.366 . S
C1810 C1811 1.414 . S
C1810 C1813 1.499 . S
C1811 H1785 0.950 . S
C1811 C1810 1.414 . S
C1811 C1812 1.374 . S
C1812 H1786 0.950 . S
C1812 C1808 1.385 . S
C1812 C1811 1.374 . S
C1813 C1810 1.499 . S
C1813 C1814 1.373 . S
C1813 C1815 1.389 . S
C1814 H1787 0.950 . S
C1814 C1800 1.377 . S
C1814 C1813 1.373 . S
C1815 C1799 1.377 . S
C1815 C1813 1.389 . S
C1815 C1816 1.524 . S
C1816 C1815 1.524 . S
C1816 C1817 1.397 . S
C1816 C1821 1.363 . S
C1817 H1788 0.950 . S
C1817 C1816 1.397 . S
C1817 C1818 1.334 . S
C1818 H1789 0.950 . S
C1818 C1817 1.334 . S
C1818 C1819 1.287 . S
C1819 C1818 1.287 . S
C1819 C1820 1.524 . S
C1819 H1822 0.999 . S
C1820 H1790 0.950 . S
C1820 C1819 1.524 . S
C1820 C1821 1.415 . S
C1821 H1791 0.950 . S
C1821 C1816 1.363 . S
C1821 C1820 1.415 . S
H1822 C1819 0.999 . S
H1823 C1804 0.913 . S
C243 C146 1.314 . S
C258 C6 1.314 . S
C293 C20 1.314 . S
C308 C160 1.314 . S
C343 C118 1.314 . S
C358 C34 1.314 . S
C393 C132 1.314 . S
C408 C48 1.314 . S
C443 C62 1.314 . S
C458 C202 1.314 . S
C493 C216 1.314 . S
C508 C76 1.314 . S
C543 C90 1.314 . S
C558 C174 1.314 . S
C593 C188 1.314 . S
C608 C104 1.314 . S
C643 C149 1.797 . S
C658 C9 1.797 . S
C693 C23 1.797 . S
C708 C163 1.797 . S
C743 C37 1.797 . S
C758 C121 1.797 . S
C793 C51 1.796 . S
C808 C135 1.797 . S
C843 C65 1.796 . S
C858 C205 1.797 . S
C893 C79 1.797 . S
C908 C219 1.797 . S
C943 C177 1.797 . S
C958 C93 1.797 . S
C993 C191 1.797 . S
C1008 C107 1.797 . S
C1043 C8 1.129 . S
C1058 C92 1.128 . S
C1093 C22 1.129 . S
C1108 C106 1.128 . S
C1143 C36 1.128 . S
C1158 C64 1.129 . S
C1193 C50 1.128 . S
C1208 C78 1.128 . S
C1243 C120 1.128 . S
C1258 C204 1.129 . S
C1293 C218 1.129 . S
C1308 C134 1.127 . S
C1343 C148 1.129 . S
C1358 C176 1.128 . S
C1393 C190 1.128 . S
C1408 C162 1.128 . S
C1443 C7 1.303 . S
C1458 C217 1.304 . S
C1493 C175 1.304 . S
C1508 C21 1.304 . S
C1543 C189 1.304 . S
C1558 C35 1.304 . S
C1593 C203 1.304 . S
C1608 C49 1.304 . S
C1643 C133 1.304 . S
C1658 C63 1.304 . S
C1693 C147 1.304 . S
C1708 C77 1.304 . S
C1743 C91 1.304 . S
C1758 C161 1.304 . S
C1793 C105 1.304 . S
C1808 C119 1.304 . S
