# Generated by pormake.
# Topology ecs, (8)-cn, num edge types: 1
# Building blocks:
#     Node 0, Type 0, BuildingBlock: TAGTUT_clean_sbu_3, # of connection points: 8
#     Node 1, Type 0, BuildingBlock: TAGTUT_clean_sbu_3, # of connection points: 8
#     Node 2, Type 0, BuildingBlock: TAGTUT_clean_sbu_3, # of connection points: 8
#     Node 3, Type 0, BuildingBlock: TAGTUT_clean_sbu_3, # of connection points: 8
#     Node 4, Type 0, BuildingBlock: TAGTUT_clean_sbu_3, # of connection points: 8
#     Node 5, Type 0, BuildingBlock: TAGTUT_clean_sbu_3, # of connection points: 8
#     Node 6, Type 0, BuildingBlock: TAGTUT_clean_sbu_3, # of connection points: 8
#     Node 7, Type 0, BuildingBlock: TAGTUT_clean_sbu_3, # of connection points: 8
#     Node 8, Type 0, BuildingBlock: TAGTUT_clean_sbu_3, # of connection points: 8
#     Node 9, Type 0, BuildingBlock: TAGTUT_clean_sbu_3, # of connection points: 8
#     Node 10, Type 0, BuildingBlock: TAGTUT_clean_sbu_3, # of connection points: 8
#     Node 11, Type 0, BuildingBlock: TAGTUT_clean_sbu_3, # of connection points: 8
#     Edge 12, Type (0, 0), BuildingBlock: XIVTED_clean_linker_0, # of connection points: 2
#     Edge 13, Type (0, 0), BuildingBlock: XIVTED_clean_linker_0, # of connection points: 2
#     Edge 14, Type (0, 0), BuildingBlock: XIVTED_clean_linker_0, # of connection points: 2
#     Edge 15, Type (0, 0), BuildingBlock: XIVTED_clean_linker_0, # of connection points: 2
#     Edge 16, Type (0, 0), BuildingBlock: XIVTED_clean_linker_0, # of connection points: 2
#     Edge 17, Type (0, 0), BuildingBlock: XIVTED_clean_linker_0, # of connection points: 2
#     Edge 18, Type (0, 0), BuildingBlock: XIVTED_clean_linker_0, # of connection points: 2
#     Edge 19, Type (0, 0), BuildingBlock: XIVTED_clean_linker_0, # of connection points: 2
#     Edge 20, Type (0, 0), BuildingBlock: XIVTED_clean_linker_0, # of connection points: 2
#     Edge 21, Type (0, 0), BuildingBlock: XIVTED_clean_linker_0, # of connection points: 2
#     Edge 22, Type (0, 0), BuildingBlock: XIVTED_clean_linker_0, # of connection points: 2
#     Edge 23, Type (0, 0), BuildingBlock: XIVTED_clean_linker_0, # of connection points: 2
#     Edge 24, Type (0, 0), BuildingBlock: XIVTED_clean_linker_0, # of connection points: 2
#     Edge 25, Type (0, 0), BuildingBlock: XIVTED_clean_linker_0, # of connection points: 2
#     Edge 26, Type (0, 0), BuildingBlock: XIVTED_clean_linker_0, # of connection points: 2
#     Edge 27, Type (0, 0), BuildingBlock: XIVTED_clean_linker_0, # of connection points: 2
#     Edge 28, Type (0, 0), BuildingBlock: XIVTED_clean_linker_0, # of connection points: 2
#     Edge 29, Type (0, 0), BuildingBlock: XIVTED_clean_linker_0, # of connection points: 2
#     Edge 30, Type (0, 0), BuildingBlock: XIVTED_clean_linker_0, # of connection points: 2
#     Edge 31, Type (0, 0), BuildingBlock: XIVTED_clean_linker_0, # of connection points: 2
#     Edge 32, Type (0, 0), BuildingBlock: XIVTED_clean_linker_0, # of connection points: 2
#     Edge 33, Type (0, 0), BuildingBlock: XIVTED_clean_linker_0, # of connection points: 2
#     Edge 34, Type (0, 0), BuildingBlock: XIVTED_clean_linker_0, # of connection points: 2
#     Edge 35, Type (0, 0), BuildingBlock: XIVTED_clean_linker_0, # of connection points: 2
#     Edge 36, Type (0, 0), BuildingBlock: XIVTED_clean_linker_0, # of connection points: 2
#     Edge 37, Type (0, 0), BuildingBlock: XIVTED_clean_linker_0, # of connection points: 2
#     Edge 38, Type (0, 0), BuildingBlock: XIVTED_clean_linker_0, # of connection points: 2
#     Edge 39, Type (0, 0), BuildingBlock: XIVTED_clean_linker_0, # of connection points: 2
#     Edge 40, Type (0, 0), BuildingBlock: XIVTED_clean_linker_0, # of connection points: 2
#     Edge 41, Type (0, 0), BuildingBlock: XIVTED_clean_linker_0, # of connection points: 2
#     Edge 42, Type (0, 0), BuildingBlock: XIVTED_clean_linker_0, # of connection points: 2
#     Edge 43, Type (0, 0), BuildingBlock: XIVTED_clean_linker_0, # of connection points: 2
#     Edge 44, Type (0, 0), BuildingBlock: XIVTED_clean_linker_0, # of connection points: 2
#     Edge 45, Type (0, 0), BuildingBlock: XIVTED_clean_linker_0, # of connection points: 2
#     Edge 46, Type (0, 0), BuildingBlock: XIVTED_clean_linker_0, # of connection points: 2
#     Edge 47, Type (0, 0), BuildingBlock: XIVTED_clean_linker_0, # of connection points: 2
#     Edge 48, Type (0, 0), BuildingBlock: XIVTED_clean_linker_0, # of connection points: 2
#     Edge 49, Type (0, 0), BuildingBlock: XIVTED_clean_linker_0, # of connection points: 2
#     Edge 50, Type (0, 0), BuildingBlock: XIVTED_clean_linker_0, # of connection points: 2
#     Edge 51, Type (0, 0), BuildingBlock: XIVTED_clean_linker_0, # of connection points: 2
#     Edge 52, Type (0, 0), BuildingBlock: XIVTED_clean_linker_0, # of connection points: 2
#     Edge 53, Type (0, 0), BuildingBlock: XIVTED_clean_linker_0, # of connection points: 2
#     Edge 54, Type (0, 0), BuildingBlock: XIVTED_clean_linker_0, # of connection points: 2
#     Edge 55, Type (0, 0), BuildingBlock: XIVTED_clean_linker_0, # of connection points: 2
#     Edge 56, Type (0, 0), BuildingBlock: XIVTED_clean_linker_0, # of connection points: 2
#     Edge 57, Type (0, 0), BuildingBlock: XIVTED_clean_linker_0, # of connection points: 2
#     Edge 58, Type (0, 0), BuildingBlock: XIVTED_clean_linker_0, # of connection points: 2
#     Edge 59, Type (0, 0), BuildingBlock: XIVTED_clean_linker_0, # of connection points: 2
# Relax obj value: 0.345
# Max RMSD: 0.276
# Mean RMSD: 0.276
data_MOF--net-ecs--node1-TAGTUT_clean_sbu_3--edge1-XIVTED_clean_linker_0
_symmetry_space_group_name_H-M    P1
_symmetry_Int_Tables_number       1
_symmetry_cell_setting            triclinic
loop_
_symmetry_equiv_pos_as_xyz
'x, y, z'
_cell_length_a     51.995164
_cell_length_b     51.98006
_cell_length_c     27.417086
_cell_angle_alpha  89.981469
_cell_angle_beta   89.972406
_cell_angle_gamma 120.00508
loop_
_atom_site_label
_atom_site_type_symbol
_atom_site_fract_x
_atom_site_fract_y
_atom_site_fract_z
_atom_type_partial_charge
C0 C 0.43193 0.28438 0.08178 0.0
C1 C 0.46159 0.38718 0.9885 0.0
C2 C 0.4603 0.41649 0.12456 0.0
Mg3 Mg 0.44566 0.27688 0.19395 0.0
Mg4 Mg 0.5053 0.32758 0.25148 0.0
O5 O 0.47118 0.31921 0.2161 0.0
Mg6 Mg 0.47392 0.33952 0.15278 0.0
O7 O 0.47294 0.35672 0.08748 0.0
Mg8 Mg 0.42944 0.34581 0.08656 0.0
Mg9 Mg 0.49868 0.3975 0.08448 0.0
C10 C 0.51816 0.39295 0.22835 0.0
O11 O 0.52232 0.35141 0.13521 0.0
O12 O 0.44322 0.26405 0.27561 0.0
O13 O 0.53863 0.39571 0.0981 0.0
O14 O 0.48577 0.27 0.18198 0.0
O15 O 0.48256 0.301 0.31423 0.0
O16 O 0.52676 0.30727 0.21447 0.0
O17 O 0.42718 0.33074 0.1666 0.0
O18 O 0.40728 0.28651 0.20348 0.0
C19 C 0.40528 0.30867 0.18767 0.0
C20 C 0.45822 0.27602 0.31461 0.0
O21 O 0.49758 0.38391 0.19585 0.0
O22 O 0.43893 0.364 0.00647 0.0
O23 O 0.52555 0.37564 0.24991 0.0
O24 O 0.43849 0.39274 0.10748 0.0
O25 O 0.48546 0.40324 0.01279 0.0
O26 O 0.48336 0.41606 0.13821 0.0
O27 O 0.4516 0.29475 0.11542 0.0
O28 O 0.42114 0.29982 0.06423 0.0
C29 C 0.51374 0.28332 0.18989 0.0
C30 C 0.54317 0.37546 0.11588 0.0
C31 C 0.69851 0.14358 0.08246 0.0
C32 C 0.59691 0.07188 0.98607 0.0
C33 C 0.56568 0.0404 0.12116 0.0
Mg34 Mg 0.70479 0.16425 0.19476 0.0
Mg35 Mg 0.65368 0.17362 0.24966 0.0
O36 O 0.66229 0.14738 0.21613 0.0
Mg37 Mg 0.64273 0.13032 0.15219 0.0
O38 O 0.62628 0.11276 0.08632 0.0
Mg39 Mg 0.63687 0.07995 0.08543 0.0
Mg40 Mg 0.58569 0.09831 0.08162 0.0
C41 C 0.58852 0.12107 0.22594 0.0
O42 O 0.63148 0.16719 0.13495 0.0
O43 O 0.7168 0.17464 0.27658 0.0
O44 O 0.58789 0.14027 0.09529 0.0
O45 O 0.71194 0.21133 0.18237 0.0
O46 O 0.67997 0.17822 0.31331 0.0
O47 O 0.67382 0.21496 0.21119 0.0
O48 O 0.65114 0.09215 0.16587 0.0
O49 O 0.69491 0.11604 0.20417 0.0
C50 C 0.67292 0.09205 0.18746 0.0
C51 C 0.7047 0.17836 0.31484 0.0
O52 O 0.59781 0.10945 0.19395 0.0
O53 O 0.61965 0.0719 0.00484 0.0
O54 O 0.60568 0.1458 0.24749 0.0
O55 O 0.58962 0.04233 0.10504 0.0
O56 O 0.58079 0.07988 0.00976 0.0
O57 O 0.56586 0.06387 0.13432 0.0
O58 O 0.68782 0.15271 0.11589 0.0
O59 O 0.68317 0.11748 0.0644 0.0
C60 C 0.69838 0.22593 0.18831 0.0
C61 C 0.60802 0.16463 0.11444 0.0
C62 C 0.88974 0.57844 0.18583 0.0
C63 C 0.80375 0.52492 0.31222 0.0
C64 C 0.75673 0.46845 0.18782 0.0
Mg65 Mg 0.90358 0.55466 0.08528 0.0
Mg66 Mg 0.8877 0.48591 0.08476 0.0
O67 O 0.87163 0.51079 0.08657 0.0
Mg68 Mg 0.85295 0.50957 0.15155 0.0
O69 O 0.83492 0.51215 0.21452 0.0
Mg70 Mg 0.81762 0.53709 0.19156 0.0
Mg71 Mg 0.80943 0.47809 0.25038 0.0
C72 C 0.82129 0.44024 0.11583 0.0
O73 O 0.87411 0.48658 0.19556 0.0
O74 O 0.91248 0.54507 0.00548 0.0
O75 O 0.8378 0.4585 0.24958 0.0
O76 O 0.94237 0.54712 0.10671 0.0
O77 O 0.90641 0.49904 0.01279 0.0
O78 O 0.92125 0.50276 0.13908 0.0
O79 O 0.82991 0.53111 0.11336 0.0
O80 O 0.86538 0.56185 0.06225 0.0
C81 C 0.83905 0.55066 0.0795 0.0
C82 C 0.91347 0.52257 0.98791 0.0
O83 O 0.81721 0.46078 0.13415 0.0
O84 O 0.80682 0.53967 0.27288 0.0
O85 O 0.84649 0.44545 0.0989 0.0
O86 O 0.77101 0.49641 0.17955 0.0
O87 O 0.80478 0.50077 0.31254 0.0
O88 O 0.76786 0.45586 0.21304 0.0
O89 O 0.89027 0.55666 0.16512 0.0
O90 O 0.86537 0.5761 0.20129 0.0
C91 C 0.94455 0.52551 0.12405 0.0
C92 C 0.86261 0.46607 0.22827 0.0
C93 C 0.27975 0.43425 0.41632 0.0
C94 C 0.38217 0.4644 0.51053 0.0
C95 C 0.41202 0.4629 0.37506 0.0
Mg96 Mg 0.2725 0.44774 0.30393 0.0
Mg97 Mg 0.32316 0.50734 0.24621 0.0
O98 O 0.31486 0.47329 0.28182 0.0
Mg99 Mg 0.33503 0.47627 0.34536 0.0
O100 O 0.35206 0.47546 0.4109 0.0
Mg101 Mg 0.34124 0.43195 0.41231 0.0
Mg102 Mg 0.3928 0.50128 0.41409 0.0
C103 C 0.38857 0.5206 0.26989 0.0
O104 O 0.34679 0.52473 0.36232 0.0
O105 O 0.25977 0.44517 0.22216 0.0
O106 O 0.391 0.54117 0.39968 0.0
O107 O 0.2655 0.48778 0.31558 0.0
O108 O 0.29668 0.48456 0.18346 0.0
O109 O 0.30282 0.52877 0.28307 0.0
O110 O 0.32644 0.42952 0.33207 0.0
O111 O 0.28233 0.40945 0.29488 0.0
C112 C 0.30448 0.40755 0.31096 0.0
C113 C 0.27173 0.46017 0.18312 0.0
O114 O 0.37957 0.50004 0.3025 0.0
O115 O 0.35913 0.44163 0.49252 0.0
O116 O 0.37119 0.52778 0.24806 0.0
O117 O 0.38825 0.44102 0.392 0.0
O118 O 0.39827 0.48824 0.48611 0.0
O119 O 0.41146 0.4858 0.36082 0.0
O120 O 0.29017 0.45387 0.38255 0.0
O121 O 0.29519 0.42354 0.43416 0.0
C122 C 0.27886 0.51576 0.30764 0.0
C123 C 0.37081 0.54566 0.38154 0.0
C124 C 0.57346 0.89274 0.31138 0.0
C125 C 0.51961 0.80733 0.18362 0.0
C126 C 0.4638 0.75952 0.30836 0.0
Mg127 Mg 0.54962 0.90578 0.41234 0.0
Mg128 Mg 0.4808 0.88958 0.41397 0.0
O129 O 0.50585 0.87373 0.41116 0.0
Mg130 Mg 0.50461 0.85552 0.34577 0.0
O131 O 0.50716 0.83796 0.2823 0.0
Mg132 Mg 0.5323 0.82067 0.3043 0.0
Mg133 Mg 0.47293 0.81248 0.24689 0.0
C134 C 0.43532 0.82334 0.38216 0.0
O135 O 0.48152 0.87695 0.30282 0.0
O136 O 0.54022 0.91445 0.49241 0.0
O137 O 0.45327 0.84081 0.24875 0.0
O138 O 0.54169 0.94433 0.39157 0.0
O139 O 0.49406 0.90811 0.48591 0.0
O140 O 0.49694 0.92374 0.36057 0.0
O141 O 0.52635 0.83235 0.38302 0.0
O142 O 0.55707 0.8676 0.43442 0.0
C143 C 0.54597 0.84138 0.41674 0.0
C144 C 0.51775 0.91533 0.51037 0.0
O145 O 0.45589 0.81959 0.36306 0.0
O146 O 0.53464 0.81039 0.22259 0.0
O147 O 0.44038 0.84831 0.39991 0.0
O148 O 0.4918 0.77385 0.31608 0.0
O149 O 0.49535 0.80812 0.18404 0.0
O150 O 0.45098 0.77075 0.28402 0.0
O151 O 0.55158 0.89292 0.33238 0.0
O152 O 0.57126 0.86861 0.29503 0.0
C153 C 0.52024 0.94689 0.37451 0.0
C154 C 0.46088 0.86555 0.27036 0.0
C155 C 0.0883 0.67697 0.31191 0.0
C156 C 0.17364 0.70914 0.18402 0.0
C157 C 0.22175 0.70116 0.30806 0.0
Mg158 Mg 0.07532 0.63987 0.41301 0.0
Mg159 Mg 0.09218 0.58765 0.41474 0.0
O160 O 0.10761 0.62848 0.41159 0.0
Mg161 Mg 0.12573 0.64558 0.34615 0.0
O162 O 0.14323 0.66589 0.28277 0.0
Mg163 Mg 0.16049 0.70828 0.30492 0.0
Mg164 Mg 0.16866 0.65733 0.24692 0.0
C165 C 0.15847 0.60901 0.3824 0.0
O166 O 0.10458 0.60105 0.30292 0.0
O167 O 0.06704 0.62192 0.49328 0.0
O168 O 0.14059 0.6094 0.2483 0.0
O169 O 0.03689 0.59309 0.39268 0.0
O170 O 0.07383 0.58236 0.48689 0.0
O171 O 0.05817 0.56972 0.36128 0.0
O172 O 0.14874 0.69047 0.38353 0.0
O173 O 0.11331 0.68565 0.43486 0.0
C174 C 0.13955 0.70092 0.41725 0.0
C175 C 0.0665 0.59875 0.51137 0.0
O176 O 0.16194 0.63322 0.36328 0.0
O177 O 0.17078 0.72117 0.22311 0.0
O178 O 0.13361 0.58896 0.40032 0.0
O179 O 0.20742 0.71478 0.31634 0.0
O180 O 0.17269 0.68401 0.1843 0.0
O181 O 0.21047 0.67721 0.28346 0.0
O182 O 0.088 0.6548 0.33281 0.0
O183 O 0.11253 0.69902 0.296 0.0
C184 C 0.03483 0.56921 0.37595 0.0
C185 C 0.11596 0.59204 0.27001 0.0
C186 C 0.54552 0.70105 0.91604 0.0
C187 C 0.51741 0.59918 0.01109 0.0
C188 C 0.52054 0.56984 0.87598 0.0
Mg189 Mg 0.53226 0.70769 0.80316 0.0
Mg190 Mg 0.4734 0.65608 0.74534 0.0
O191 O 0.50746 0.66518 0.78148 0.0
Mg192 Mg 0.50474 0.64527 0.84527 0.0
O193 O 0.50578 0.62853 0.91103 0.0
Mg194 Mg 0.54958 0.64044 0.91296 0.0
Mg195 Mg 0.48086 0.58761 0.91409 0.0
C196 C 0.46154 0.59119 0.76982 0.0
O197 O 0.45595 0.63241 0.86193 0.0
O198 O 0.53485 0.72013 0.7212 0.0
O199 O 0.44045 0.58827 0.89913 0.0
O200 O 0.49153 0.71373 0.81389 0.0
O201 O 0.49603 0.68264 0.68249 0.0
O202 O 0.45109 0.67584 0.78121 0.0
O203 O 0.55188 0.65498 0.83263 0.0
O204 O 0.57135 0.69891 0.79488 0.0
C205 C 0.57369 0.67712 0.81157 0.0
C206 C 0.52009 0.70789 0.68212 0.0
O207 O 0.48199 0.60063 0.80263 0.0
O208 O 0.53988 0.62259 0.99323 0.0
O209 O 0.45392 0.60815 0.74766 0.0
O210 O 0.54193 0.59389 0.89306 0.0
O211 O 0.49386 0.58257 0.98641 0.0
O212 O 0.49744 0.56977 0.86119 0.0
O213 O 0.5261 0.69022 0.88206 0.0
O214 O 0.55667 0.6861 0.93429 0.0
C215 C 0.46359 0.69991 0.80554 0.0
C216 C 0.43536 0.60809 0.88103 0.0
C217 C 0.30469 0.89271 0.81156 0.0
C218 C 0.27218 0.8071 0.68391 0.0
C219 C 0.28012 0.7591 0.80835 0.0
Mg220 Mg 0.34235 0.90571 0.91188 0.0
Mg221 Mg 0.39436 0.88861 0.91203 0.0
O222 O 0.3535 0.87328 0.91028 0.0
Mg223 Mg 0.33597 0.85507 0.8452 0.0
O224 O 0.31549 0.83757 0.78207 0.0
Mg225 Mg 0.27323 0.82054 0.80468 0.0
Mg226 Mg 0.32404 0.81196 0.74662 0.0
C227 C 0.37261 0.8222 0.88034 0.0
O228 O 0.38016 0.87623 0.80157 0.0
O229 O 0.36127 0.91457 0.9916 0.0
O230 O 0.37207 0.84007 0.74747 0.0
O231 O 0.38882 0.94383 0.89005 0.0
O232 O 0.40048 0.90738 0.9838 0.0
O233 O 0.41248 0.9228 0.85868 0.0
O234 O 0.29128 0.83231 0.88323 0.0
O235 O 0.29669 0.86786 0.93481 0.0
C236 C 0.28115 0.84164 0.91727 0.0
C237 C 0.38462 0.91512 0.00885 0.0
O238 O 0.34832 0.81879 0.86178 0.0
O239 O 0.26024 0.81016 0.72297 0.0
O240 O 0.39289 0.84706 0.89782 0.0
O241 O 0.26661 0.77357 0.81636 0.0
O242 O 0.2972 0.80783 0.68418 0.0
O243 O 0.3041 0.77022 0.78377 0.0
O244 O 0.32676 0.89273 0.83223 0.0
O245 O 0.28257 0.86862 0.79548 0.0
C246 C 0.41267 0.94609 0.87281 0.0
C247 C 0.38927 0.86486 0.76886 0.0
C248 C 0.13884 0.43364 0.91723 0.0
C249 C 0.06661 0.46404 0.01092 0.0
C250 C 0.03526 0.46217 0.87522 0.0
Mg251 Mg 0.15966 0.44682 0.80505 0.0
Mg252 Mg 0.16862 0.50623 0.74659 0.0
O253 O 0.14283 0.47225 0.78237 0.0
Mg254 Mg 0.12557 0.47543 0.84575 0.0
O255 O 0.10773 0.47482 0.91123 0.0
Mg256 Mg 0.07504 0.4313 0.91302 0.0
Mg257 Mg 0.09281 0.50063 0.91414 0.0
C258 C 0.11623 0.51932 0.76943 0.0
O259 O 0.16224 0.52403 0.86229 0.0
O260 O 0.16986 0.44391 0.72342 0.0
O261 O 0.13443 0.5405 0.89948 0.0
O262 O 0.20667 0.48693 0.81639 0.0
O263 O 0.17259 0.48326 0.68424 0.0
O264 O 0.21034 0.52787 0.78363 0.0
O265 O 0.0874 0.42858 0.8328 0.0
O266 O 0.1116 0.40843 0.79637 0.0
C267 C 0.08747 0.40654 0.81206 0.0
C268 C 0.17307 0.45883 0.68422 0.0
O269 O 0.10476 0.49896 0.80237 0.0
O270 O 0.06686 0.4412 0.99317 0.0
O271 O 0.14083 0.5265 0.74769 0.0
O272 O 0.03709 0.44033 0.89254 0.0
O273 O 0.07432 0.48779 0.98626 0.0
O274 O 0.05875 0.48494 0.86076 0.0
O275 O 0.14807 0.45324 0.88343 0.0
O276 O 0.11268 0.42292 0.93503 0.0
C277 C 0.22129 0.5149 0.8083 0.0
C278 C 0.15911 0.545 0.88131 0.0
C279 C 0.67385 0.57895 0.6854 0.0
C280 C 0.70663 0.52607 0.81283 0.0
C281 C 0.69797 0.46962 0.68905 0.0
Mg282 Mg 0.63634 0.55444 0.58493 0.0
Mg283 Mg 0.58389 0.48546 0.58458 0.0
O284 O 0.62478 0.5107 0.58678 0.0
Mg285 Mg 0.6422 0.50991 0.65194 0.0
O286 O 0.6628 0.5129 0.71506 0.0
Mg287 Mg 0.70504 0.538 0.69208 0.0
Mg288 Mg 0.65439 0.47889 0.75091 0.0
C289 C 0.60506 0.44035 0.61691 0.0
O290 O 0.59801 0.48689 0.69574 0.0
O291 O 0.61794 0.5445 0.5051 0.0
O292 O 0.60639 0.45901 0.74992 0.0
O293 O 0.58982 0.54642 0.60603 0.0
O294 O 0.57829 0.49827 0.51242 0.0
O295 O 0.56631 0.50192 0.63811 0.0
O296 O 0.68682 0.53153 0.61382 0.0
O297 O 0.68189 0.56191 0.5622 0.0
C298 C 0.69715 0.55093 0.57971 0.0
C299 C 0.59461 0.52185 0.48754 0.0
O300 O 0.62949 0.46111 0.63534 0.0
O301 O 0.71832 0.54088 0.77353 0.0
O302 O 0.58499 0.44524 0.59935 0.0
O303 O 0.71143 0.49757 0.68078 0.0
O304 O 0.68158 0.50178 0.81306 0.0
O305 O 0.6741 0.45684 0.71391 0.0
O306 O 0.65162 0.55696 0.66489 0.0
O307 O 0.69599 0.57684 0.70095 0.0
C308 C 0.56597 0.52485 0.62337 0.0
C309 C 0.58906 0.46642 0.72849 0.0
C310 C 0.40446 0.09194 0.68606 0.0
C311 C 0.45651 0.17766 0.8141 0.0
C312 C 0.51251 0.22601 0.68988 0.0
Mg313 Mg 0.42968 0.07967 0.58567 0.0
Mg314 Mg 0.49907 0.09757 0.58547 0.0
O315 O 0.47315 0.11243 0.58766 0.0
Mg316 Mg 0.47344 0.13028 0.65295 0.0
O317 O 0.47004 0.14744 0.71623 0.0
Mg318 Mg 0.44452 0.16412 0.69343 0.0
Mg319 Mg 0.50406 0.1734 0.75169 0.0
C320 C 0.54307 0.16398 0.61808 0.0
O321 O 0.49681 0.10946 0.69645 0.0
O322 O 0.44007 0.07137 0.50582 0.0
O323 O 0.5244 0.14565 0.75081 0.0
O324 O 0.43852 0.04179 0.60703 0.0
O325 O 0.48669 0.07912 0.51344 0.0
O326 O 0.48317 0.06326 0.63855 0.0
O327 O 0.45123 0.15271 0.61502 0.0
O328 O 0.4214 0.11726 0.5631 0.0
C329 C 0.43185 0.14338 0.58093 0.0
C330 C 0.46306 0.07124 0.48841 0.0
O331 O 0.52199 0.16701 0.6368 0.0
O332 O 0.4415 0.17428 0.77497 0.0
O333 O 0.5388 0.13932 0.60017 0.0
O334 O 0.48453 0.2113 0.68207 0.0
O335 O 0.48105 0.1774 0.81401 0.0
O336 O 0.52561 0.21508 0.71425 0.0
O337 O 0.42669 0.09219 0.6655 0.0
O338 O 0.40612 0.11588 0.70221 0.0
C339 C 0.46034 0.03985 0.624 0.0
C340 C 0.51719 0.12098 0.72927 0.0
C341 C 0.88897 0.30776 0.68647 0.0
C342 C 0.80474 0.27596 0.81592 0.0
C343 C 0.75618 0.28517 0.69356 0.0
Mg344 Mg 0.90188 0.3453 0.58622 0.0
Mg345 Mg 0.88584 0.39803 0.58624 0.0
O346 O 0.86991 0.3571 0.58839 0.0
Mg347 Mg 0.85193 0.33984 0.65385 0.0
O348 O 0.83464 0.31949 0.7173 0.0
Mg349 Mg 0.81698 0.27716 0.6947 0.0
Mg350 Mg 0.80982 0.32834 0.75441 0.0
C351 C 0.81969 0.37712 0.6189 0.0
O352 O 0.87373 0.38415 0.69733 0.0
O353 O 0.91045 0.36385 0.50638 0.0
O354 O 0.83833 0.37631 0.75295 0.0
O355 O 0.9406 0.3917 0.60721 0.0
O356 O 0.90428 0.40373 0.51408 0.0
O357 O 0.9201 0.41565 0.6394 0.0
O358 O 0.8284 0.29515 0.61612 0.0
O359 O 0.86344 0.2998 0.564 0.0
C360 C 0.83726 0.28468 0.58193 0.0
C361 C 0.91142 0.38739 0.48905 0.0
O362 O 0.81601 0.35275 0.63766 0.0
O363 O 0.80717 0.26408 0.77634 0.0
O364 O 0.84463 0.39711 0.6011 0.0
O365 O 0.77022 0.27136 0.6844 0.0
O366 O 0.80593 0.3012 0.81647 0.0
O367 O 0.76778 0.30897 0.71861 0.0
O368 O 0.88924 0.33004 0.6661 0.0
O369 O 0.86482 0.28578 0.70275 0.0
C370 C 0.94321 0.41562 0.62486 0.0
C371 C 0.86283 0.39339 0.73066 0.0
H372 H 0.49593 0.23795 0.1245 0.0
H373 H 0.57999 0.17898 0.04543 0.0
H374 H 0.57129 0.29875 0.21148 0.0
H375 H 0.62166 0.20602 0.18648 0.0
H376 H 0.56094 0.21311 0.05451 0.0
H377 H 0.52351 0.21436 0.09714 0.0
C378 C 0.51846 0.24665 0.13733 0.0
C379 C 0.53124 0.27031 0.1705 0.0
C380 C 0.57429 0.21166 0.08348 0.0
C381 C 0.56336 0.24362 0.1385 0.0
C382 C 0.58544 0.19245 0.07809 0.0
C383 C 0.60215 0.18953 0.11554 0.0
C384 C 0.57939 0.2276 0.12711 0.0
C385 C 0.60901 0.20779 0.15671 0.0
C386 C 0.53441 0.23335 0.12117 0.0
C387 C 0.56055 0.28052 0.18595 0.0
N388 N 0.59721 0.22583 0.16178 0.0
N389 N 0.57549 0.26678 0.17039 0.0
H390 H 0.76913 0.41457 0.16868 0.0
H391 H 0.74494 0.25331 0.12496 0.0
H392 H 0.81859 0.39409 0.06473 0.0
H393 H 0.68299 0.26837 0.20773 0.0
H394 H 0.76972 0.3047 0.09829 0.0
H395 H 0.73443 0.36136 0.17881 0.0
C396 C 0.77242 0.39901 0.14742 0.0
C397 C 0.79715 0.40887 0.11664 0.0
C398 C 0.75053 0.29679 0.12192 0.0
C399 C 0.75786 0.34804 0.12824 0.0
C400 C 0.73638 0.26736 0.1373 0.0
C401 C 0.71202 0.25654 0.16907 0.0
C402 C 0.74064 0.31583 0.13902 0.0
C403 C 0.70185 0.27585 0.18351 0.0
C404 C 0.75266 0.3686 0.15328 0.0
C405 C 0.80023 0.38759 0.08973 0.0
N406 N 0.71649 0.30474 0.16891 0.0
N407 N 0.78109 0.35825 0.09663 0.0
H408 H 0.72954 0.48453 0.11888 0.0
H409 H 0.5686 0.35187 0.17578 0.0
H410 H 0.71452 0.41148 0.21255 0.0
H411 H 0.58873 0.41419 0.05813 0.0
H412 H 0.62167 0.36983 0.18536 0.0
H413 H 0.67821 0.45655 0.09218 0.0
C414 C 0.71551 0.4625 0.13363 0.0
C415 C 0.72628 0.45052 0.16851 0.0
C416 C 0.61439 0.37917 0.15686 0.0
C417 C 0.66713 0.41833 0.1384 0.0
C418 C 0.58404 0.36875 0.15123 0.0
C419 C 0.57419 0.38176 0.11663 0.0
C420 C 0.63491 0.40293 0.1279 0.0
C421 C 0.59533 0.40387 0.08598 0.0
C422 C 0.68614 0.44643 0.1182 0.0
C423 C 0.70705 0.42169 0.18592 0.0
N424 N 0.62466 0.41402 0.0928 0.0
N425 N 0.67822 0.40671 0.17123 0.0
H426 H 0.20825 0.63336 0.324 0.0
H427 H 0.23412 0.49835 0.37424 0.0
H428 H 0.16398 0.56862 0.43781 0.0
H429 H 0.294 0.57313 0.28512 0.0
H430 H 0.2105 0.52599 0.40147 0.0
H431 H 0.24287 0.61486 0.31335 0.0
C432 C 0.2062 0.61577 0.34744 0.0
C433 C 0.1829 0.60227 0.38121 0.0
C434 C 0.229 0.53655 0.37632 0.0
C435 C 0.22194 0.58057 0.36878 0.0
C436 C 0.24245 0.52068 0.36059 0.0
C437 C 0.26585 0.53328 0.32688 0.0
C438 C 0.23862 0.5651 0.35764 0.0
C439 C 0.27583 0.56245 0.31082 0.0
C440 C 0.22587 0.60507 0.34121 0.0
C441 C 0.18123 0.57935 0.41056 0.0
N442 N 0.26186 0.57726 0.32583 0.0
N443 N 0.20018 0.56897 0.40319 0.0
H444 H 0.3477 0.57101 0.3204 0.0
H445 H 0.48044 0.73204 0.37587 0.0
H446 H 0.40931 0.59138 0.43908 0.0
H447 H 0.40678 0.71726 0.28416 0.0
H448 H 0.45264 0.6806 0.40238 0.0
H449 H 0.36588 0.62412 0.31 0.0
C450 C 0.36445 0.58652 0.34501 0.0
C451 C 0.37718 0.57671 0.38019 0.0
C452 C 0.44235 0.68861 0.37684 0.0
C453 C 0.39863 0.63745 0.36794 0.0
C454 C 0.45832 0.71803 0.36153 0.0
C455 C 0.44608 0.72893 0.32732 0.0
C456 C 0.41409 0.66966 0.3572 0.0
C457 C 0.41716 0.70971 0.31032 0.0
C458 C 0.375 0.61688 0.3389 0.0
C459 C 0.39919 0.59793 0.41083 0.0
N460 N 0.40228 0.68083 0.3249 0.0
N461 N 0.40948 0.62727 0.40354 0.0
H462 H 0.26309 0.68494 0.28507 0.0
H463 H 0.39025 0.8174 0.4402 0.0
H464 H 0.25034 0.7465 0.37333 0.0
H465 H 0.40895 0.77443 0.32205 0.0
H466 H 0.33744 0.78277 0.4298 0.0
H467 H 0.31508 0.70949 0.31125 0.0
C468 C 0.27111 0.70341 0.31026 0.0
C469 C 0.25243 0.71398 0.32648 0.0
C470 C 0.3531 0.78065 0.40649 0.0
C471 C 0.31161 0.74179 0.3568 0.0
C472 C 0.38329 0.80039 0.41242 0.0
C473 C 0.40408 0.79905 0.38141 0.0
C474 C 0.3435 0.75942 0.36915 0.0
C475 C 0.39375 0.77623 0.34667 0.0
C476 C 0.30075 0.71737 0.32512 0.0
C477 C 0.26396 0.73782 0.35938 0.0
N478 N 0.36408 0.75749 0.34097 0.0
N479 N 0.29282 0.75098 0.37324 0.0
H480 H 0.4062 0.68384 0.78146 0.0
H481 H 0.40999 0.81453 0.93991 0.0
H482 H 0.47979 0.74479 0.87148 0.0
H483 H 0.35082 0.77444 0.81792 0.0
H484 H 0.42779 0.77957 0.92921 0.0
H485 H 0.37852 0.7082 0.80767 0.0
C486 C 0.41644 0.70212 0.80705 0.0
C487 C 0.44555 0.71258 0.82379 0.0
C488 C 0.41059 0.77812 0.90516 0.0
C489 C 0.4139 0.7401 0.85419 0.0
C490 C 0.40037 0.79804 0.91126 0.0
C491 C 0.37906 0.79759 0.87933 0.0
C492 C 0.39958 0.75765 0.86668 0.0
C493 C 0.36711 0.77546 0.84338 0.0
C494 C 0.40062 0.71596 0.82193 0.0
C495 C 0.45759 0.73617 0.85717 0.0
N496 N 0.37783 0.75655 0.83754 0.0
N497 N 0.44176 0.74919 0.87108 0.0
H498 H 0.20742 0.57039 0.81973 0.0
H499 H 0.23612 0.73165 0.87618 0.0
H500 H 0.16633 0.59076 0.93877 0.0
H501 H 0.29451 0.71667 0.78341 0.0
H502 H 0.21229 0.68009 0.90232 0.0
H503 H 0.24223 0.62352 0.80916 0.0
C504 C 0.20618 0.5859 0.84438 0.0
C505 C 0.18374 0.57608 0.87975 0.0
C506 C 0.23052 0.68809 0.87661 0.0
C507 C 0.22289 0.63685 0.86728 0.0
C508 C 0.24408 0.71757 0.86151 0.0
C509 C 0.26713 0.72845 0.82712 0.0
C510 C 0.23967 0.66908 0.85661 0.0
C511 C 0.27665 0.70915 0.80973 0.0
C512 C 0.22592 0.61628 0.83815 0.0
C513 C 0.18294 0.59731 0.91039 0.0
N514 N 0.26258 0.68024 0.82414 0.0
N515 N 0.20193 0.62666 0.90301 0.0
H516 H 0.24865 0.49748 0.8747 0.0
H517 H 0.40969 0.63294 0.82426 0.0
H518 H 0.26361 0.5722 0.7854 0.0
H519 H 0.38942 0.56657 0.93509 0.0
H520 H 0.35652 0.61434 0.81399 0.0
H521 H 0.30003 0.52491 0.90125 0.0
C522 C 0.26269 0.51975 0.86086 0.0
C523 C 0.25186 0.53239 0.82729 0.0
C524 C 0.36379 0.60418 0.84107 0.0
C525 C 0.31108 0.56398 0.85725 0.0
C526 C 0.39418 0.61491 0.84705 0.0
C527 C 0.40407 0.60102 0.87986 0.0
C528 C 0.34328 0.57929 0.868 0.0
C529 C 0.38286 0.57762 0.90854 0.0
C530 C 0.29209 0.5355 0.87619 0.0
C531 C 0.27112 0.56149 0.81101 0.0
N532 N 0.35352 0.56728 0.90148 0.0
N533 N 0.29997 0.57619 0.82563 0.0
H534 H 0.74217 0.48643 0.62167 0.0
H535 H 0.76935 0.35239 0.67613 0.0
H536 H 0.68334 0.4126 0.71336 0.0
H537 H 0.81475 0.41794 0.56383 0.0
H538 H 0.73438 0.3706 0.68564 0.0
H539 H 0.76621 0.45898 0.59575 0.0
C540 C 0.73414 0.46433 0.63614 0.0
C541 C 0.71093 0.45198 0.67022 0.0
C542 C 0.75174 0.38065 0.6584 0.0
C543 C 0.73871 0.42037 0.64103 0.0
C544 C 0.77162 0.37015 0.65286 0.0
C545 C 0.79531 0.38394 0.61983 0.0
C546 C 0.7558 0.4052 0.63081 0.0
C547 C 0.79721 0.40699 0.59055 0.0
C548 C 0.74786 0.44857 0.62119 0.0
C549 C 0.70135 0.42309 0.68734 0.0
N550 N 0.778 0.41711 0.59719 0.0
N551 N 0.71559 0.40839 0.67309 0.0
H552 H 0.62942 0.41482 0.67508 0.0
H553 H 0.49493 0.25338 0.62368 0.0
H554 H 0.56414 0.39433 0.5624 0.0
H555 H 0.56961 0.2686 0.71309 0.0
H556 H 0.52213 0.30491 0.59747 0.0
H557 H 0.61092 0.36165 0.68568 0.0
C558 C 0.6117 0.39927 0.65189 0.0
C559 C 0.59811 0.40909 0.61837 0.0
C560 C 0.53276 0.29699 0.62247 0.0
C561 C 0.57641 0.34829 0.63075 0.0
C562 C 0.51715 0.2675 0.6376 0.0
C563 C 0.52985 0.25669 0.67107 0.0
C564 C 0.56116 0.31606 0.64149 0.0
C565 C 0.55887 0.27607 0.68751 0.0
C566 C 0.601 0.36887 0.6581 0.0
C567 C 0.57498 0.38781 0.5894 0.0
N568 N 0.57342 0.30498 0.67307 0.0
N569 N 0.56464 0.35847 0.59671 0.0
H570 H 0.58802 0.17316 0.55704 0.0
H571 H 0.71485 0.30081 0.71991 0.0
H572 H 0.56886 0.21049 0.68289 0.0
H573 H 0.72753 0.24146 0.62571 0.0
H574 H 0.66283 0.27694 0.69384 0.0
H575 H 0.64078 0.20803 0.56822 0.0
C576 C 0.59488 0.18907 0.58663 0.0
C577 C 0.57402 0.18876 0.61945 0.0
C578 C 0.67717 0.26942 0.67865 0.0
C579 C 0.63445 0.22855 0.63266 0.0
C580 C 0.70682 0.28299 0.69344 0.0
C581 C 0.72547 0.27282 0.67547 0.0
C582 C 0.66632 0.24586 0.64523 0.0
C583 C 0.71393 0.24981 0.641 0.0
C584 C 0.62501 0.20891 0.593 0.0
C585 C 0.58414 0.21012 0.65666 0.0
N586 N 0.68509 0.23706 0.62718 0.0
N587 N 0.61377 0.22896 0.66273 0.0
H588 H 0.55884 0.56211 0.93531 0.0
H589 H 0.42205 0.42543 0.06717 0.0
H590 H 0.47007 0.51493 0.87578 0.0
H591 H 0.51113 0.47115 0.12561 0.0
H592 H 0.43855 0.4609 0.00023 0.0
H593 H 0.54246 0.52706 0.0029 0.0
C594 C 0.53612 0.54389 0.93552 0.0
C595 C 0.51548 0.54238 0.90085 0.0
C596 C 0.45441 0.46336 0.02803 0.0
C597 C 0.49646 0.50275 0.97897 0.0
C598 C 0.44488 0.44343 0.0669 0.0
C599 C 0.46555 0.44435 0.10093 0.0
C600 C 0.48469 0.48447 0.02354 0.0
C601 C 0.49459 0.46882 0.09927 0.0
C602 C 0.52665 0.5242 0.97473 0.0
C603 C 0.48658 0.51769 0.90253 0.0
N604 N 0.50353 0.48743 0.06033 0.0
N605 N 0.4777 0.49932 0.94176 0.0
H606 H 0.51013 0.03426 0.12583 0.0
H607 H 0.46805 0.95175 0.86853 0.0
H608 H 0.55815 -0.00462 0.0595 0.0
H609 H 0.42043 0.99113 0.93464 0.0
H610 H 0.50334 0.97053 0.93572 0.0
H611 H 0.47483 0.01535 0.05866 0.0
C612 C 0.51282 0.02099 0.09799 0.0
C613 C 0.53805 0.01768 0.09723 0.0
C614 C 0.48531 0.97528 0.93525 0.0
C615 C 0.49813 -0.00331 0.01967 0.0
C616 C 0.46544 0.96509 0.89632 0.0
C617 C 0.44033 0.9686 0.89699 0.0
C618 C 0.48026 0.98948 0.97457 0.0
C619 C 0.43881 0.98691 0.93331 0.0
C620 C 0.49296 0.01074 0.05907 0.0
C621 C 0.53968 -0.00055 0.0609 0.0
N622 N 0.45803 -0.004 0.97136 0.0
N623 N 0.52044 0.99028 0.02285 0.0
H624 H 0.94893 0.47507 0.12812 0.0
H625 H 0.03099 0.51264 0.87035 0.0
H626 H -0.01095 0.56167 0.0603 0.0
H627 H -0.01011 0.4258 0.93744 0.0
H628 H 0.01296 0.53015 0.93721 0.0
H629 H 0.96672 0.45755 0.06092 0.0
C630 C 0.96221 0.49071 0.0999 0.0
C631 C 0.96626 0.51956 0.09885 0.0
C632 C 0.00763 0.50717 0.93701 0.0
C633 C 0.98618 0.49939 0.02136 0.0
C634 C 0.01741 0.49694 0.89829 0.0
C635 C 0.01321 0.46804 0.89935 0.0
C636 C -0.00698 0.48819 0.97645 0.0
C637 C -0.00539 0.44857 0.93581 0.0
C638 C 0.97186 0.48047 0.06099 0.0
C639 C 0.98447 0.53895 0.06199 0.0
N640 N 0.98579 0.45919 0.97357 0.0
N641 N -0.00682 0.52832 0.02408 0.0
H642 H 0.46703 0.51305 0.37028 0.0
H643 H 0.51081 0.47489 0.6281 0.0
H644 H 0.42041 0.42635 0.43775 0.0
H645 H 0.55794 0.56143 0.5602 0.0
H646 H 0.47534 0.45772 0.56117 0.0
H647 H 0.50252 0.5303 0.43719 0.0
C648 C 0.46469 0.49732 0.39833 0.0
C649 C 0.43979 0.46855 0.39942 0.0
C650 C 0.4933 0.48056 0.56118 0.0
C651 C 0.48002 0.48843 0.47664 0.0
C652 C 0.51328 0.4906 0.59994 0.0
C653 C 0.53829 0.5193 0.59876 0.0
C654 C 0.49808 0.49951 0.52151 0.0
C655 C 0.53963 0.5388 0.56198 0.0
C656 C 0.48467 0.50741 0.43708 0.0
C657 C 0.43862 0.44903 0.43605 0.0
N658 N 0.52024 0.52834 0.52416 0.0
N659 N 0.45801 0.45954 0.47386 0.0
H660 H 0.47125 0.9537 0.36933 0.0
H661 H 0.51078 0.03541 0.62732 0.0
H662 H 0.55772 0.99153 0.43679 0.0
H663 H 0.42373 -0.00496 0.56132 0.0
H664 H 0.52779 0.01734 0.55975 0.0
H665 H 0.45482 0.97269 0.43637 0.0
C666 C 0.48712 0.96675 0.3974 0.0
C667 C 0.51551 0.96972 0.39851 0.0
C668 C 0.50489 0.01222 0.56033 0.0
C669 C 0.49654 0.99082 0.47592 0.0
C670 C 0.49494 0.02201 0.59945 0.0
C671 C 0.4661 0.01795 0.59902 0.0
C672 C 0.48572 -0.00211 0.52101 0.0
C673 C 0.44645 -0.00036 0.56254 0.0
C674 C 0.47748 0.97706 0.43624 0.0
C675 C 0.53527 0.98771 0.43513 0.0
N676 N 0.45684 0.99092 0.52432 0.0
N677 N 0.52518 -0.00308 0.4731 0.0
H678 H -0.01053 0.42371 0.56572 0.0
H679 H 0.98888 0.56075 0.43622 0.0
H680 H 0.94821 0.47077 0.62712 0.0
H681 H 0.0316 0.51483 0.37585 0.0
H682 H 0.97086 0.52564 0.50372 0.0
H683 H 0.00831 0.45926 0.49887 0.0
C684 C 0.98509 0.44201 0.5661 0.0
C685 C 0.96594 0.44331 0.60098 0.0
C686 C 0.98394 0.52308 0.47542 0.0
C687 C 0.98679 0.48356 0.52374 0.0
C688 C -0.0062 0.54281 0.43625 0.0
C689 C 0.01299 0.54166 0.4013 0.0
C690 C -0.00689 0.50195 0.47935 0.0
C691 C 0.01776 0.5173 0.4028 0.0
C692 C -0.00457 0.46201 0.5273 0.0
C693 C 0.96194 0.46815 0.60013 0.0
N694 N 0.00858 0.49888 0.44196 0.0
N695 N 0.97152 0.48681 0.56127 0.0
H696 H 0.47671 0.44094 0.95083 0.0
H697 H 0.55293 0.40743 0.74293 0.0
H698 H 0.45075 0.35141 0.9093 0.0
H699 H 0.55521 0.49126 0.75298 0.0
H700 H 0.50743 0.38423 0.79128 0.0
H701 H 0.49592 0.45794 0.86891 0.0
C702 C 0.47398 0.42472 0.92366 0.0
C703 C 0.46239 0.39488 0.93671 0.0
C704 C 0.51728 0.40751 0.7819 0.0
C705 C 0.48563 0.41416 0.84353 0.0
C706 C 0.54329 0.42074 0.75436 0.0
C707 C 0.55797 0.45133 0.74496 0.0
C708 C 0.50649 0.42525 0.80157 0.0
C709 C 0.54458 0.46762 0.75998 0.0
C710 C 0.48511 0.43439 0.87687 0.0
C711 C 0.45957 0.37464 0.90051 0.0
N712 N 0.51999 0.45455 0.78886 0.0
N713 N 0.47198 0.38479 0.85585 0.0
H714 H 0.63393 0.0971 0.90838 0.0
H715 H 0.49267 0.06157 0.74835 0.0
H716 H 0.5435 0.03398 0.94642 0.0
H717 H 0.5758 0.14429 0.74865 0.0
H718 H 0.51602 0.03887 0.79655 0.0
H719 H 0.61732 0.10069 0.82612 0.0
C720 C 0.61082 0.0829 0.89862 0.0
C721 C 0.5899 0.06544 0.93403 0.0
C722 C 0.52935 0.06172 0.78467 0.0
C723 C 0.57077 0.06974 0.84103 0.0
C724 C 0.51608 0.07461 0.75713 0.0
C725 C 0.53226 0.10494 0.74572 0.0
C726 C 0.55896 0.07931 0.80012 0.0
C727 C 0.56248 0.12095 0.75781 0.0
C728 C 0.6013 0.08515 0.85192 0.0
C729 C 0.56015 0.0478 0.91998 0.0
N730 N 0.57478 0.10807 0.78499 0.0
N731 N 0.55132 0.05077 0.87478 0.0
H732 H 0.92225 0.42725 0.75024 0.0
H733 H 0.8891 0.53506 0.90961 0.0
H734 H 0.84064 0.42975 0.74905 0.0
H735 H 0.94989 0.50506 0.9487 0.0
H736 H 0.88536 0.51474 0.82736 0.0
H737 H 0.94548 0.47319 0.79873 0.0
C738 C 0.9096 0.43807 0.75872 0.0
C739 C 0.8794 0.42454 0.74681 0.0
C740 C 0.90045 0.51369 0.85342 0.0
C741 C 0.9056 0.47672 0.80158 0.0
C742 C 0.90277 0.52549 0.90014 0.0
C743 C 0.91963 0.52136 0.93584 0.0
C744 C 0.91525 0.49792 0.84276 0.0
C745 C 0.93661 0.50847 0.92206 0.0
C746 C 0.92278 0.46416 0.78643 0.0
C747 C 0.86386 0.43931 0.75856 0.0
N748 N 0.93363 0.49672 0.87685 0.0
N749 N 0.877 0.46439 0.78594 0.0
H750 H 0.48725 0.55774 0.74819 0.0
H751 H 0.34559 0.45134 0.58945 0.0
H752 H 0.40283 0.55447 0.75356 0.0
H753 H 0.43625 0.48163 0.54875 0.0
H754 H 0.36245 0.47074 0.67208 0.0
H755 H 0.46439 0.51221 0.6987 0.0
C756 C 0.46368 0.54679 0.74047 0.0
C757 C 0.44694 0.56002 0.75381 0.0
C758 C 0.37851 0.47207 0.64553 0.0
C759 C 0.42081 0.50835 0.69777 0.0
C760 C 0.36886 0.4608 0.59859 0.0
C761 C 0.38972 0.46527 0.56242 0.0
C762 C 0.40911 0.48767 0.65593 0.0
C763 C 0.41964 0.47799 0.57577 0.0
C764 C 0.45068 0.52094 0.71215 0.0
C765 C 0.41652 0.54513 0.74297 0.0
N766 N 0.42856 0.48923 0.62124 0.0
N767 N 0.4045 0.52031 0.7149 0.0
H768 H 0.42327 0.92429 0.74923 0.0
H769 H 0.53034 0.89087 0.58834 0.0
H770 H 0.42531 0.8424 0.74934 0.0
H771 H 0.50074 0.95215 0.54989 0.0
H772 H 0.5102 0.88711 0.67074 0.0
H773 H 0.46907 0.94746 0.70033 0.0
C774 C 0.43395 0.91155 0.7404 0.0
C775 C 0.42033 0.88129 0.75215 0.0
C776 C 0.50918 0.9023 0.64478 0.0
C777 C 0.47237 0.90746 0.69693 0.0
C778 C 0.5209 0.90463 0.59799 0.0
C779 C 0.51679 0.92159 0.56243 0.0
C780 C 0.49353 0.91717 0.65567 0.0
C781 C 0.50407 0.93871 0.57642 0.0
C782 C 0.45997 0.9247 0.71246 0.0
C783 C 0.43493 0.86566 0.73995 0.0
N784 N 0.49239 0.93569 0.62173 0.0
N785 N 0.45995 0.87879 0.71237 0.0
H786 H 0.05685 0.49471 0.75016 0.0
H787 H 0.09209 0.63577 0.58897 0.0
H788 H 0.13946 0.57793 0.74987 0.0
H789 H 0.02924 0.5452 0.55152 0.0
H790 H 0.09603 0.61926 0.67117 0.0
H791 H 0.03426 0.51793 0.70134 0.0
C792 C 0.06988 0.51812 0.74126 0.0
C793 C 0.10015 0.53436 0.75289 0.0
C794 C 0.08049 0.60317 0.64549 0.0
C795 C 0.07466 0.56091 0.69771 0.0
C796 C 0.07804 0.61263 0.59881 0.0
C797 C 0.06052 0.59166 0.56355 0.0
C798 C 0.06516 0.57265 0.65657 0.0
C799 C 0.04308 0.5619 0.57778 0.0
C800 C 0.05706 0.53131 0.71335 0.0
C801 C 0.11616 0.56458 0.7406 0.0
N802 N 0.0462 0.55314 0.62295 0.0
N803 N 0.10335 0.5768 0.71304 0.0
H804 H 0.42416 0.57958 0.25437 0.0
H805 H 0.50267 0.54587 0.05036 0.0
H806 H 0.42321 0.4963 0.24743 0.0
H807 H 0.52723 0.63543 0.08926 0.0
H808 H 0.48304 0.52935 0.13221 0.0
H809 H 0.46988 0.60291 0.20659 0.0
C810 C 0.43413 0.56643 0.24375 0.0
C811 C 0.41975 0.53593 0.25385 0.0
C812 C 0.49363 0.55282 0.12371 0.0
C813 C 0.47151 0.56215 0.1979 0.0
C814 C 0.50499 0.56222 0.07697 0.0
C815 C 0.51632 0.59191 0.06315 0.0
C816 C 0.49259 0.57315 0.15623 0.0
C817 C 0.51862 0.61231 0.09864 0.0
C818 C 0.46027 0.57974 0.21654 0.0
C819 C 0.43358 0.51986 0.23988 0.0
N820 N 0.50599 0.6024 0.14324 0.0
N821 N 0.4583 0.53298 0.2113 0.0
H822 H 0.34784 0.89822 0.0887 0.0
H823 H 0.40203 0.8429 0.25536 0.0
H824 H 0.43997 0.94622 0.04648 0.0
H825 H 0.48594 0.92442 0.2468 0.0
H826 H 0.37928 0.8653 0.20667 0.0
H827 H 0.36302 0.89514 0.17231 0.0
C828 C 0.37127 0.90902 0.09746 0.0
C829 C 0.39274 0.92192 0.06065 0.0
C830 C 0.40234 0.87891 0.21695 0.0
C831 C 0.41019 0.91762 0.15507 0.0
C832 C 0.41539 0.86596 0.2445 0.0
C833 C 0.44592 0.88176 0.25429 0.0
C834 C 0.4202 0.90765 0.19797 0.0
C835 C 0.46233 0.91152 0.23965 0.0
C836 C 0.37994 0.9069 0.14495 0.0
C837 C 0.42279 0.93567 0.07381 0.0
N838 N 0.44945 0.92324 0.21079 0.0
N839 N 0.43064 0.9327 0.11972 0.0
H840 H 0.02813 0.47939 0.04765 0.0
H841 H 0.05576 0.55537 0.25862 0.0
H842 H 0.09157 0.45368 0.09074 0.0
H843 H 0.13961 0.55814 0.24279 0.0
H844 H 0.03197 0.50946 0.21035 0.0
H845 H 0.02998 0.49884 0.12886 0.0
C846 C 0.04136 0.47658 0.0752 0.0
C847 C 0.05967 0.46502 0.06266 0.0
C848 C 0.0555 0.5199 0.21798 0.0
C849 C 0.06289 0.48806 0.1558 0.0
C850 C 0.06898 0.54589 0.24601 0.0
C851 C 0.0998 0.56092 0.25326 0.0
C852 C 0.07315 0.50921 0.19717 0.0
C853 C 0.1159 0.54761 0.23667 0.0
C854 C 0.04249 0.48771 0.12184 0.0
C855 C 0.077 0.46236 0.09919 0.0
N856 N 0.10249 0.52279 0.20873 0.0
N857 N 0.07893 0.47472 0.14379 0.0
H858 H 0.57692 0.42885 0.24548 0.0
H859 H 0.54088 0.50541 0.44862 0.0
H860 H 0.49325 0.42715 0.24994 0.0
H861 H 0.63108 0.53295 0.40915 0.0
H862 H 0.52473 0.48576 0.3667 0.0
H863 H 0.59948 0.47451 0.29337 0.0
C864 C 0.56352 0.43863 0.25559 0.0
C865 C 0.53313 0.42407 0.24475 0.0
C866 C 0.54823 0.49702 0.37509 0.0
C867 C 0.55846 0.47576 0.30075 0.0
C868 C 0.55741 0.50839 0.42186 0.0
C869 C 0.58721 0.52057 0.43552 0.0
C870 C 0.56894 0.49681 0.34242 0.0
C871 C 0.60786 0.52367 0.39989 0.0
C872 C 0.57639 0.46475 0.28283 0.0
C873 C 0.51674 0.43767 0.25807 0.0
N874 N 0.59822 0.51098 0.35528 0.0
N875 N 0.52941 0.46235 0.28671 0.0
H876 H 0.4431 0.0883 0.40891 0.0
H877 H 0.55258 0.14401 0.24168 0.0
H878 H 0.48771 0.04065 0.45022 0.0
H879 H 0.55439 0.06213 0.24874 0.0
H880 H 0.50755 0.12167 0.29075 0.0
H881 H 0.46126 0.0916 0.32511 0.0
C882 C 0.4558 0.07761 0.39992 0.0
C883 C 0.46451 0.06471 0.4365 0.0
C884 C 0.51685 0.10798 0.28004 0.0
C885 C 0.48607 0.0692 0.34186 0.0
C886 C 0.54278 0.12089 0.25227 0.0
C887 C 0.55733 0.10497 0.24197 0.0
C888 C 0.50586 0.07916 0.29871 0.0
C889 C 0.54383 0.07513 0.25627 0.0
C890 C 0.46653 0.07985 0.35232 0.0
C891 C 0.48094 0.05114 0.42306 0.0
N892 N 0.51933 0.06346 0.28537 0.0
N893 N 0.49163 0.05417 0.37703 0.0
H894 H 0.84009 0.40714 0.24276 0.0
H895 H 0.94946 0.44138 0.45143 0.0
H896 H 0.92127 0.49126 0.25312 0.0
H897 H 0.88662 0.35166 0.40968 0.0
H898 H 0.94719 0.45831 0.36954 0.0
H899 H 0.8625 0.38421 0.29148 0.0
C900 C 0.86299 0.42057 0.25433 0.0
C901 C 0.87875 0.45116 0.24489 0.0
C902 C 0.93462 0.43475 0.37745 0.0
C903 C 0.90427 0.42539 0.30193 0.0
C904 C 0.93609 0.42511 0.42424 0.0
C905 C 0.91807 0.39522 0.43722 0.0
C906 C 0.91405 0.41442 0.34402 0.0
C907 C 0.90083 0.37494 0.40097 0.0
C908 C 0.87583 0.4075 0.28208 0.0
C909 C 0.90837 0.46762 0.26012 0.0
N910 N 0.89853 0.38504 0.35629 0.0
N911 N 0.91995 0.4547 0.28919 0.0
H912 H 0.28496 0.37534 0.2273 0.0
H913 H 0.37299 0.28875 0.27127 0.0
H914 H 0.33233 0.38286 0.3606 0.0
H915 H 0.38034 0.33635 0.13822 0.0
H916 H 0.33852 0.30388 0.30343 0.0
H917 H 0.30067 0.34131 0.19515 0.0
C918 C 0.29781 0.36904 0.25041 0.0
C919 C 0.30769 0.38208 0.29645 0.0
C920 C 0.34709 0.31022 0.2667 0.0
C921 C 0.32514 0.34314 0.26025 0.0
C922 C 0.36658 0.30154 0.24822 0.0
C923 C 0.37967 0.31164 0.20225 0.0
C924 C 0.34022 0.32842 0.23844 0.0
C925 C 0.3709 0.3284 0.17403 0.0
C926 C 0.30682 0.34982 0.23193 0.0
C927 C 0.32455 0.37346 0.32474 0.0
N928 N 0.35178 0.33647 0.19274 0.0
N929 N 0.33295 0.3546 0.30602 0.0
H930 H 0.59856 0.9445 0.363 0.0
H931 H 0.64532 0.04015 0.1362 0.0
H932 H 0.60598 0.90621 0.22786 0.0
H933 H 0.69242 0.07841 0.27031 0.0
H934 H 0.631 0.99066 0.16762 0.0
H935 H 0.63353 -0.00603 0.33126 0.0
C936 C 0.60814 0.94651 0.32713 0.0
C937 C 0.59931 0.9214 0.2978 0.0
C938 C 0.64515 0.00997 0.18957 0.0
C939 C 0.63843 0.97762 0.26099 0.0
C940 C 0.6532 0.03813 0.17177 0.0
C941 C 0.66983 0.06325 0.20092 0.0
C942 C 0.65299 0.007 0.23735 0.0
C943 C 0.67955 0.05953 0.24674 0.0
C944 C 0.62813 0.97466 0.30913 0.0
C945 C 0.61231 0.92509 0.25158 0.0
N946 N 0.67028 0.03178 0.2642 0.0
N947 N 0.63064 0.95283 0.23395 0.0
H948 H 0.07635 0.6979 0.22908 0.0
H949 H 0.90146 0.60988 0.27018 0.0
H950 H 0.0354 0.64876 0.36067 0.0
H951 H 0.94255 0.60429 0.13688 0.0
H952 H 0.95085 0.64396 0.30344 0.0
H953 H 0.02694 0.68307 0.19653 0.0
C954 C 0.05704 0.68483 0.25176 0.0
C955 C 0.05979 0.6742 0.29738 0.0
C956 C 0.94885 0.63589 0.26642 0.0
C957 C 0.00374 0.65774 0.26074 0.0
C958 C 0.9208 0.61664 0.24731 0.0
C959 C 0.91811 0.60411 0.20094 0.0
C960 C 0.9741 0.6431 0.23839 0.0
C961 C 0.94382 0.6133 0.17297 0.0
C962 C 0.02897 0.67632 0.23306 0.0
C963 C 0.0341 0.65711 0.32513 0.0
N964 N 0.97088 0.63216 0.1923 0.0
N965 N 0.00701 0.64919 0.30619 0.0
H966 H 0.59924 0.6512 0.86397 0.0
H967 H 0.69851 0.61478 0.76459 0.0
H968 H 0.60597 0.69578 0.72782 0.0
H969 H 0.64213 0.60106 0.64032 0.0
H970 H 0.68378 0.64907 0.79879 0.0
H971 H 0.63468 0.63718 0.833 0.0
C972 C 0.60885 0.65873 0.82811 0.0
C973 C 0.59972 0.67456 0.7983 0.0
C974 C 0.6752 0.63897 0.76358 0.0
C975 C 0.63966 0.65829 0.7625 0.0
C976 C 0.68371 0.61962 0.74383 0.0
C977 C 0.67103 0.60469 0.69999 0.0
C978 C 0.65428 0.64362 0.73884 0.0
C979 C 0.65197 0.61175 0.67463 0.0
C980 C 0.62918 0.65091 0.81059 0.0
C981 C 0.61263 0.68367 0.75197 0.0
N982 N 0.64394 0.63059 0.69467 0.0
N983 N 0.63131 0.6746 0.73483 0.0
H984 H 0.332 0.94472 0.8625 0.0
H985 H 0.38076 0.03987 0.63534 0.0
H986 H 0.28555 0.90605 0.72808 0.0
H987 H 0.37102 0.07835 0.76856 0.0
H988 H 0.34582 0.99037 0.66715 0.0
H989 H 0.34665 -0.00586 0.83027 0.0
C990 C 0.3243 0.94664 0.8267 0.0
C991 C 0.30774 0.92143 0.79772 0.0
C992 C 0.35074 0.00973 0.68879 0.0
C993 C 0.32501 0.97757 0.76036 0.0
C994 C 0.3707 0.03789 0.67077 0.0
C995 C 0.37884 0.06307 0.69956 0.0
C996 C 0.33975 0.00686 0.73645 0.0
C997 C 0.36524 0.05941 0.74525 0.0
C998 C 0.33255 0.97475 0.80843 0.0
C999 C 0.29831 0.92501 0.75155 0.0
N1000 N 0.34694 0.03169 0.76295 0.0
N1001 N 0.3078 0.9527 0.73364 0.0
H1002 H 0.94037 0.33365 0.6339 0.0
H1003 H 0.07614 0.37031 0.73334 0.0
H1004 H 0.90266 0.28931 0.77028 0.0
H1005 H 0.03359 0.38497 0.85692 0.0
H1006 H 0.02711 0.33593 0.69942 0.0
H1007 H -0.01011 0.34793 0.66486 0.0
C1008 C 0.94251 0.32622 0.6698 0.0
C1009 C 0.91756 0.31037 0.69968 0.0
C1010 C 0.02866 0.34626 0.73443 0.0
C1011 C 0.97382 0.32697 0.73548 0.0
C1012 C 0.05652 0.36567 0.75402 0.0
C1013 C 0.05882 0.38088 0.79758 0.0
C1014 C 0.00312 0.34181 0.75906 0.0
C1015 C 0.03271 0.37406 0.82283 0.0
C1016 C 0.97068 0.3342 0.68733 0.0
C1017 C 0.92142 0.30141 0.74609 0.0
N1018 N 0.00584 0.35514 0.80296 0.0
N1019 N 0.9492 0.31065 0.76323 0.0
H1020 H 0.40618 0.18104 0.82988 0.0
H1021 H 0.4611 0.25302 0.0915 0.0
H1022 H 0.48226 0.18726 0.90452 0.0
H1023 H 0.39043 0.25431 0.01107 0.0
H1024 H 0.4605 0.21726 0.03329 0.0
H1025 H 0.39239 0.19673 0.90445 0.0
C1026 C 0.41985 0.18539 0.86204 0.0
C1027 C 0.44583 0.18349 0.86053 0.0
C1028 C 0.44471 0.22491 0.02891 0.0
C1029 C 0.43011 0.20148 0.94607 0.0
C1030 C 0.44492 0.24521 0.06238 0.0
C1031 C 0.42632 0.25726 0.05546 0.0
C1032 C 0.42583 0.21673 0.98822 0.0
C1033 C 0.40564 0.24613 0.01721 0.0
C1034 C 0.41189 0.19429 0.90469 0.0
C1035 C 0.46234 0.18895 0.90365 0.0
N1036 N 0.40634 0.22691 0.98447 0.0
N1037 N 0.45443 0.1981 0.94445 0.0
H1038 H 0.72969 0.20404 0.09292 0.0
H1039 H 0.80119 0.2221 0.83072 0.0
H1040 H 0.72904 0.13256 0.01195 0.0
H1041 H 0.79562 0.2919 0.9069 0.0
H1042 H 0.7858 0.19238 0.90507 0.0
H1043 H 0.76545 0.23952 0.03498 0.0
C1044 C 0.73767 0.19585 0.06376 0.0
C1045 C 0.72577 0.16525 0.05658 0.0
C1046 C 0.78832 0.21436 0.9057 0.0
C1047 C 0.76626 0.20563 0.9896 0.0
C1048 C 0.79703 0.23134 0.86317 0.0
C1049 C 0.79904 0.25929 0.86217 0.0
C1050 C 0.78138 0.22531 0.94749 0.0
C1051 C 0.79386 0.27026 0.90565 0.0
C1052 C 0.75796 0.21612 0.03043 0.0
C1053 C 0.7371 0.15592 0.01828 0.0
N1054 N 0.78485 0.25306 0.94634 0.0
N1055 N 0.75628 0.176 0.98565 0.0
H1056 H 0.77854 0.52107 0.0892 0.0
H1057 H 0.76058 0.57617 0.82806 0.0
H1058 H 0.85019 0.59188 0.00832 0.0
H1059 H 0.69077 0.50024 0.90331 0.0
H1060 H 0.79042 0.58972 0.90216 0.0
H1061 H 0.74318 0.52147 0.03118 0.0
C1062 C 0.78679 0.53722 0.05999 0.0
C1063 C 0.8174 0.55594 0.05294 0.0
C1064 C 0.76842 0.5703 0.90264 0.0
C1065 C 0.77717 0.55625 0.98595 0.0
C1066 C 0.75136 0.56249 0.86026 0.0
C1067 C 0.72336 0.53662 0.85905 0.0
C1068 C 0.75749 0.55206 0.94407 0.0
C1069 C 0.71244 0.52008 0.90222 0.0
C1070 C 0.7666 0.53732 0.02664 0.0
C1071 C 0.82682 0.57658 0.01458 0.0
N1072 N 0.7297 0.52785 0.94276 0.0
N1073 N 0.80681 0.57581 0.98199 0.0
H1074 H 0.24868 0.46371 0.40679 0.0
H1075 H 0.1765 0.40853 0.6684 0.0
H1076 H 0.24939 0.39255 0.48674 0.0
H1077 H 0.18267 0.48464 0.59379 0.0
H1078 H 0.19219 0.39478 0.59377 0.0
H1079 H 0.21295 0.46317 0.46507 0.0
C1080 C 0.24073 0.44743 0.43581 0.0
C1081 C 0.25261 0.42868 0.44258 0.0
C1082 C 0.18974 0.41428 0.59355 0.0
C1083 C 0.21215 0.42825 0.50992 0.0
C1084 C 0.18085 0.42221 0.63624 0.0
C1085 C 0.17892 0.44819 0.63777 0.0
C1086 C 0.19691 0.43252 0.55215 0.0
C1087 C 0.18437 0.46472 0.59464 0.0
C1088 C 0.22046 0.44726 0.46933 0.0
C1089 C 0.24133 0.40789 0.48072 0.0
N1090 N 0.19352 0.45684 0.5538 0.0
N1091 N 0.22215 0.40862 0.51351 0.0
H1092 H 0.49519 0.68993 0.59142 0.0
H1093 H 0.58937 0.85259 0.4836 0.0
H1094 H 0.56861 0.76289 0.66596 0.0
H1095 H 0.51436 0.78074 0.41054 0.0
H1096 H 0.58962 0.81701 0.54127 0.0
H1097 H 0.50883 0.71971 0.51714 0.0
C1098 C 0.51438 0.71209 0.59211 0.0
C1099 C 0.53036 0.72416 0.6354 0.0
C1100 C 0.57345 0.80891 0.51206 0.0
C1101 C 0.54607 0.75838 0.55035 0.0
C1102 C 0.57335 0.82922 0.479 0.0
C1103 C 0.55134 0.81968 0.44288 0.0
C1104 C 0.55119 0.77891 0.50927 0.0
C1105 C 0.53148 0.7891 0.43816 0.0
C1106 C 0.5222 0.72906 0.54957 0.0
C1107 C 0.55529 0.75282 0.63375 0.0
N1108 N 0.53146 0.76985 0.47166 0.0
N1109 N 0.56211 0.7691 0.59213 0.0
H1110 H 0.2903 0.80073 0.593 0.0
H1111 H 0.12799 0.73261 0.48464 0.0
H1112 H 0.21703 0.80032 0.6681 0.0
H1113 H 0.20024 0.7304 0.41102 0.0
H1114 H 0.1633 0.76809 0.54289 0.0
H1115 H 0.26074 0.78509 0.51859 0.0
C1116 C 0.2681 0.79764 0.59381 0.0
C1117 C 0.2559 0.8012 0.63726 0.0
C1118 C 0.17154 0.76031 0.51344 0.0
C1119 C 0.22193 0.78326 0.55201 0.0
C1120 C 0.15138 0.74009 0.48004 0.0
C1121 C 0.1611 0.72796 0.44361 0.0
C1122 C 0.20156 0.76818 0.51066 0.0
C1123 C 0.19172 0.73886 0.4389 0.0
C1124 C 0.25126 0.7888 0.55117 0.0
C1125 C 0.2272 0.79736 0.63574 0.0
N1126 N 0.21081 0.75788 0.47274 0.0
N1127 N 0.21105 0.78819 0.594 0.0
H1128 H 0.5141 0.7302 0.90718 0.0
H1129 H 0.57041 0.80507 0.16665 0.0
H1130 H 0.58745 0.73284 0.98518 0.0
H1131 H 0.49269 0.79624 0.09398 0.0
H1132 H 0.584 0.78934 0.09194 0.0
H1133 H 0.51386 0.76564 0.96523 0.0
C1134 C 0.53069 0.73884 0.93569 0.0
C1135 C 0.55035 0.72799 0.94201 0.0
C1136 C 0.56416 0.7912 0.09215 0.0
C1137 C 0.54987 0.76812 0.00909 0.0
C1138 C 0.55632 0.8001 0.13489 0.0
C1139 C 0.52998 0.80134 0.13701 0.0
C1140 C 0.54546 0.78328 0.05127 0.0
C1141 C 0.51292 0.79513 0.09436 0.0
C1142 C 0.53041 0.75893 0.96908 0.0
C1143 C 0.57145 0.7401 0.97954 0.0
N1144 N 0.52074 0.78596 0.05345 0.0
N1145 N 0.5703 0.7591 0.01221 0.0
H1146 H 0.24993 0.85363 0.98498 0.0
H1147 H 0.17986 0.69092 0.09311 0.0
H1148 H 0.25122 0.78095 0.91126 0.0
H1149 H 0.18099 0.76454 0.16819 0.0
H1150 H 0.19599 0.72061 0.01877 0.0
H1151 H 0.2142 0.81848 0.04324 0.0
C1152 C 0.2422 0.83018 0.98038 0.0
C1153 C 0.25411 0.82026 0.94388 0.0
C1154 C 0.19233 0.73014 0.05134 0.0
C1155 C 0.2136 0.77998 0.01094 0.0
C1156 C 0.18319 0.71322 0.09392 0.0
C1157 C 0.1797 0.72547 0.13735 0.0
C1158 C 0.19822 0.7596 0.05221 0.0
C1159 C 0.18388 0.75431 0.13584 0.0
C1160 C 0.22184 0.81011 0.01378 0.0
C1161 C 0.24291 0.7896 0.93918 0.0
N1162 N 0.19333 0.77054 0.09416 0.0
N1163 N 0.22373 0.77058 0.973 0.0
H1164 H 0.12725 0.39045 0.98488 0.0
H1165 H 0.28971 0.48477 0.09218 0.0
H1166 H 0.19946 0.46452 0.91041 0.0
H1167 H 0.21682 0.41148 0.1673 0.0
H1168 H 0.26007 0.4707 0.01783 0.0
H1169 H 0.16268 0.3902 0.04281 0.0
C1170 C 0.15065 0.40625 0.98002 0.0
C1171 C 0.16036 0.42803 0.94344 0.0
C1172 C 0.2507 0.45745 0.05041 0.0
C1173 C 0.20095 0.42819 0.01011 0.0
C1174 C 0.26759 0.46553 0.093 0.0
C1175 C 0.2555 0.4497 0.13644 0.0
C1176 C 0.22143 0.4335 0.0513 0.0
C1177 C 0.2269 0.42467 0.13494 0.0
C1178 C 0.17088 0.40615 0.01322 0.0
C1179 C 0.19097 0.44759 0.93839 0.0
N1180 N 0.21069 0.41763 0.09327 0.0
N1181 N 0.21014 0.44764 0.97205 0.0
H1182 H 0.80006 0.57511 0.32731 0.0
H1183 H 0.72781 0.52107 0.58929 0.0
H1184 H 0.79362 0.4991 0.40274 0.0
H1185 H 0.72725 0.59198 0.5083 0.0
H1186 H 0.7632 0.52102 0.53091 0.0
H1187 H 0.78412 0.58899 0.4015 0.0
C1188 C 0.79558 0.56147 0.35956 0.0
C1189 C 0.79755 0.53551 0.3584 0.0
C1190 C 0.75578 0.537 0.52643 0.0
C1191 C 0.77927 0.55133 0.44353 0.0
C1192 C 0.73571 0.53716 0.56 0.0
C1193 C 0.72399 0.55604 0.55303 0.0
C1194 C 0.76408 0.5558 0.48558 0.0
C1195 C 0.73519 0.57657 0.51451 0.0
C1196 C 0.78655 0.56947 0.40199 0.0
C1197 C 0.79192 0.51902 0.40162 0.0
N1198 N 0.7542 0.57553 0.48171 0.0
N1199 N 0.78264 0.52699 0.44223 0.0
H1200 H 0.48266 0.29407 0.40554 0.0
H1201 H 0.38883 0.13151 0.51293 0.0
H1202 H 0.40963 0.22103 0.33045 0.0
H1203 H 0.46228 0.20401 0.58782 0.0
H1204 H 0.38845 0.16684 0.45488 0.0
H1205 H 0.46853 0.26444 0.47999 0.0
C1206 C 0.46347 0.27191 0.40475 0.0
C1207 C 0.44774 0.25978 0.3613 0.0
C1208 C 0.40428 0.17513 0.48458 0.0
C1209 C 0.43146 0.22573 0.44652 0.0
C1210 C 0.40446 0.15496 0.51785 0.0
C1211 C 0.42612 0.16478 0.55457 0.0
C1212 C 0.42614 0.20526 0.48777 0.0
C1213 C 0.44546 0.19543 0.55971 0.0
C1214 C 0.45535 0.25503 0.44739 0.0
C1215 C 0.42276 0.23114 0.36281 0.0
N1216 N 0.44545 0.21456 0.52598 0.0
N1217 N 0.41567 0.21494 0.40454 0.0
H1218 H 0.68687 0.18733 0.40435 0.0
H1219 H 0.8481 0.25212 0.51527 0.0
H1220 H 0.75865 0.18289 0.33302 0.0
H1221 H 0.77662 0.25646 0.5876 0.0
H1222 H 0.81248 0.21672 0.45728 0.0
H1223 H 0.71612 0.20319 0.47914 0.0
C1224 C 0.70865 0.18938 0.40448 0.0
C1225 C 0.72057 0.18441 0.36193 0.0
C1226 C 0.80445 0.22495 0.48639 0.0
C1227 C 0.75418 0.20258 0.44755 0.0
C1228 C 0.82479 0.24512 0.51963 0.0
C1229 C 0.81539 0.25779 0.55564 0.0
C1230 C 0.77459 0.2177 0.48884 0.0
C1231 C 0.78489 0.24753 0.56006 0.0
C1232 C 0.72531 0.19836 0.44731 0.0
C1233 C 0.74873 0.18697 0.36462 0.0
N1234 N 0.76563 0.22855 0.52634 0.0
N1235 N 0.76473 0.19629 0.40648 0.0
loop_
_geom_bond_atom_site_label_1
_geom_bond_atom_site_label_2
_geom_bond_distance
_geom_bond_site_symmetry_2
_ccdc_geom_bond_type
C0 O27 1.312 . S
C0 O28 1.208 . S
C1 O22 1.331 . S
C1 O25 1.244 . S
C2 O24 1.264 . S
C2 O26 1.273 . S
Mg3 O5 1.936 . S
Mg3 O12 2.081 . S
Mg3 O14 2.023 . S
Mg3 O18 2.031 . S
Mg3 O27 2.291 . S
Mg4 O5 1.963 . S
Mg4 O15 1.942 . S
Mg4 O16 1.955 . S
Mg4 O23 1.986 . S
O5 Mg3 1.936 . S
O5 Mg4 1.963 . S
O5 Mg6 1.915 . S
Mg6 O5 1.915 . S
Mg6 O7 1.915 . S
Mg6 O11 2.013 . S
Mg6 O17 2.114 . S
Mg6 O21 2.013 . S
Mg6 O27 2.114 . S
O7 Mg6 1.915 . S
O7 Mg8 1.936 . S
O7 Mg9 1.963 . S
Mg8 O7 1.936 . S
Mg8 O17 2.291 . S
Mg8 O22 2.081 1_554 S
Mg8 O24 2.023 . S
Mg8 O28 2.031 . S
Mg9 O7 1.963 . S
Mg9 O13 1.986 . S
Mg9 O25 1.942 1_554 S
Mg9 O26 1.955 . S
C10 O21 1.191 . S
C10 O23 1.307 . S
O11 Mg6 2.013 . S
O11 C30 1.191 . S
O12 Mg3 2.081 . S
O12 C20 1.331 . S
O13 Mg9 1.986 . S
O13 C30 1.307 . S
O14 Mg3 2.023 . S
O14 C29 1.264 . S
O15 Mg4 1.942 . S
O15 C20 1.244 . S
O16 Mg4 1.955 . S
O16 C29 1.273 . S
O17 Mg6 2.114 . S
O17 Mg8 2.291 . S
O17 C19 1.312 . S
O18 Mg3 2.031 . S
O18 C19 1.208 . S
C19 O17 1.312 . S
C19 O18 1.208 . S
C20 O12 1.331 . S
C20 O15 1.244 . S
O21 Mg6 2.013 . S
O21 C10 1.191 . S
O22 C1 1.331 . S
O22 Mg8 2.081 1_556 S
O23 Mg4 1.986 . S
O23 C10 1.307 . S
O24 C2 1.264 . S
O24 Mg8 2.023 . S
O25 C1 1.244 . S
O25 Mg9 1.942 1_556 S
O26 C2 1.273 . S
O26 Mg9 1.955 . S
O27 C0 1.312 . S
O27 Mg3 2.291 . S
O27 Mg6 2.114 . S
O28 C0 1.208 . S
O28 Mg8 2.031 . S
C29 O14 1.264 . S
C29 O16 1.273 . S
C30 O11 1.191 . S
C30 O13 1.307 . S
C31 O58 1.312 . S
C31 O59 1.208 . S
C32 O53 1.331 . S
C32 O56 1.244 . S
C33 O55 1.264 . S
C33 O57 1.273 . S
Mg34 O36 1.936 . S
Mg34 O43 2.081 . S
Mg34 O45 2.023 . S
Mg34 O49 2.031 . S
Mg34 O58 2.291 . S
Mg35 O36 1.963 . S
Mg35 O46 1.942 . S
Mg35 O47 1.955 . S
Mg35 O54 1.986 . S
O36 Mg34 1.936 . S
O36 Mg35 1.963 . S
O36 Mg37 1.915 . S
Mg37 O36 1.915 . S
Mg37 O38 1.915 . S
Mg37 O42 2.013 . S
Mg37 O48 2.114 . S
Mg37 O52 2.013 . S
Mg37 O58 2.114 . S
O38 Mg37 1.915 . S
O38 Mg39 1.936 . S
O38 Mg40 1.963 . S
Mg39 O38 1.936 . S
Mg39 O48 2.291 . S
Mg39 O53 2.081 1_554 S
Mg39 O55 2.023 . S
Mg39 O59 2.031 . S
Mg40 O38 1.963 . S
Mg40 O44 1.986 . S
Mg40 O56 1.942 1_554 S
Mg40 O57 1.955 . S
C41 O52 1.191 . S
C41 O54 1.307 . S
O42 Mg37 2.013 . S
O42 C61 1.191 . S
O43 Mg34 2.081 . S
O43 C51 1.331 . S
O44 Mg40 1.986 . S
O44 C61 1.307 . S
O45 Mg34 2.023 . S
O45 C60 1.264 . S
O46 Mg35 1.942 . S
O46 C51 1.244 . S
O47 Mg35 1.955 . S
O47 C60 1.273 . S
O48 Mg37 2.114 . S
O48 Mg39 2.291 . S
O48 C50 1.312 . S
O49 Mg34 2.031 . S
O49 C50 1.208 . S
C50 O48 1.312 . S
C50 O49 1.208 . S
C51 O43 1.331 . S
C51 O46 1.244 . S
O52 Mg37 2.013 . S
O52 C41 1.191 . S
O53 C32 1.331 . S
O53 Mg39 2.081 1_556 S
O54 Mg35 1.986 . S
O54 C41 1.307 . S
O55 C33 1.264 . S
O55 Mg39 2.023 . S
O56 C32 1.244 . S
O56 Mg40 1.942 1_556 S
O57 C33 1.273 . S
O57 Mg40 1.955 . S
O58 C31 1.312 . S
O58 Mg34 2.291 . S
O58 Mg37 2.114 . S
O59 C31 1.208 . S
O59 Mg39 2.031 . S
C60 O45 1.264 . S
C60 O47 1.273 . S
C61 O42 1.191 . S
C61 O44 1.307 . S
C62 O89 1.312 . S
C62 O90 1.208 . S
C63 O84 1.331 . S
C63 O87 1.244 . S
C64 O86 1.264 . S
C64 O88 1.273 . S
Mg65 O67 1.936 . S
Mg65 O74 2.081 1_554 S
Mg65 O76 2.023 . S
Mg65 O80 2.031 . S
Mg65 O89 2.291 . S
Mg66 O67 1.963 . S
Mg66 O77 1.942 1_554 S
Mg66 O78 1.955 . S
Mg66 O85 1.986 . S
O67 Mg65 1.936 . S
O67 Mg66 1.963 . S
O67 Mg68 1.915 . S
Mg68 O67 1.915 . S
Mg68 O69 1.915 . S
Mg68 O73 2.013 . S
Mg68 O79 2.114 . S
Mg68 O83 2.013 . S
Mg68 O89 2.114 . S
O69 Mg68 1.915 . S
O69 Mg70 1.936 . S
O69 Mg71 1.963 . S
Mg70 O69 1.936 . S
Mg70 O79 2.291 . S
Mg70 O84 2.081 . S
Mg70 O86 2.023 . S
Mg70 O90 2.031 . S
Mg71 O69 1.963 . S
Mg71 O75 1.986 . S
Mg71 O87 1.942 . S
Mg71 O88 1.955 . S
C72 O83 1.191 . S
C72 O85 1.307 . S
O73 Mg68 2.013 . S
O73 C92 1.191 . S
O74 Mg65 2.081 1_556 S
O74 C82 1.331 . S
O75 Mg71 1.986 . S
O75 C92 1.307 . S
O76 Mg65 2.023 . S
O76 C91 1.264 . S
O77 Mg66 1.942 1_556 S
O77 C82 1.244 . S
O78 Mg66 1.955 . S
O78 C91 1.273 . S
O79 Mg68 2.114 . S
O79 Mg70 2.291 . S
O79 C81 1.312 . S
O80 Mg65 2.031 . S
O80 C81 1.208 . S
C81 O79 1.312 . S
C81 O80 1.208 . S
C82 O74 1.331 . S
C82 O77 1.244 . S
O83 Mg68 2.013 . S
O83 C72 1.191 . S
O84 C63 1.331 . S
O84 Mg70 2.081 . S
O85 Mg66 1.986 . S
O85 C72 1.307 . S
O86 C64 1.264 . S
O86 Mg70 2.023 . S
O87 C63 1.244 . S
O87 Mg71 1.942 . S
O88 C64 1.273 . S
O88 Mg71 1.955 . S
O89 C62 1.312 . S
O89 Mg65 2.291 . S
O89 Mg68 2.114 . S
O90 C62 1.208 . S
O90 Mg70 2.031 . S
C91 O76 1.264 . S
C91 O78 1.273 . S
C92 O73 1.191 . S
C92 O75 1.307 . S
C93 O120 1.312 . S
C93 O121 1.208 . S
C94 O115 1.331 . S
C94 O118 1.244 . S
C95 O117 1.264 . S
C95 O119 1.273 . S
Mg96 O98 1.936 . S
Mg96 O105 2.081 . S
Mg96 O107 2.023 . S
Mg96 O111 2.031 . S
Mg96 O120 2.291 . S
Mg97 O98 1.963 . S
Mg97 O108 1.942 . S
Mg97 O109 1.955 . S
Mg97 O116 1.986 . S
O98 Mg96 1.936 . S
O98 Mg97 1.963 . S
O98 Mg99 1.915 . S
Mg99 O98 1.915 . S
Mg99 O100 1.915 . S
Mg99 O104 2.013 . S
Mg99 O110 2.114 . S
Mg99 O114 2.013 . S
Mg99 O120 2.114 . S
O100 Mg99 1.915 . S
O100 Mg101 1.936 . S
O100 Mg102 1.963 . S
Mg101 O100 1.936 . S
Mg101 O110 2.291 . S
Mg101 O115 2.081 . S
Mg101 O117 2.023 . S
Mg101 O121 2.031 . S
Mg102 O100 1.963 . S
Mg102 O106 1.986 . S
Mg102 O118 1.942 . S
Mg102 O119 1.955 . S
C103 O114 1.191 . S
C103 O116 1.307 . S
O104 Mg99 2.013 . S
O104 C123 1.191 . S
O105 Mg96 2.081 . S
O105 C113 1.331 . S
O106 Mg102 1.986 . S
O106 C123 1.307 . S
O107 Mg96 2.023 . S
O107 C122 1.264 . S
O108 Mg97 1.942 . S
O108 C113 1.244 . S
O109 Mg97 1.955 . S
O109 C122 1.273 . S
O110 Mg99 2.114 . S
O110 Mg101 2.291 . S
O110 C112 1.312 . S
O111 Mg96 2.031 . S
O111 C112 1.208 . S
C112 O110 1.312 . S
C112 O111 1.208 . S
C113 O105 1.331 . S
C113 O108 1.244 . S
O114 Mg99 2.013 . S
O114 C103 1.191 . S
O115 C94 1.331 . S
O115 Mg101 2.081 . S
O116 Mg97 1.986 . S
O116 C103 1.307 . S
O117 C95 1.264 . S
O117 Mg101 2.023 . S
O118 C94 1.244 . S
O118 Mg102 1.942 . S
O119 C95 1.273 . S
O119 Mg102 1.955 . S
O120 C93 1.312 . S
O120 Mg96 2.291 . S
O120 Mg99 2.114 . S
O121 C93 1.208 . S
O121 Mg101 2.031 . S
C122 O107 1.264 . S
C122 O109 1.273 . S
C123 O104 1.191 . S
C123 O106 1.307 . S
C124 O151 1.312 . S
C124 O152 1.208 . S
C125 O146 1.331 . S
C125 O149 1.244 . S
C126 O148 1.264 . S
C126 O150 1.273 . S
Mg127 O129 1.936 . S
Mg127 O136 2.081 . S
Mg127 O138 2.023 . S
Mg127 O142 2.031 . S
Mg127 O151 2.291 . S
Mg128 O129 1.963 . S
Mg128 O139 1.942 . S
Mg128 O140 1.955 . S
Mg128 O147 1.986 . S
O129 Mg127 1.936 . S
O129 Mg128 1.963 . S
O129 Mg130 1.915 . S
Mg130 O129 1.915 . S
Mg130 O131 1.915 . S
Mg130 O135 2.013 . S
Mg130 O141 2.114 . S
Mg130 O145 2.013 . S
Mg130 O151 2.114 . S
O131 Mg130 1.915 . S
O131 Mg132 1.936 . S
O131 Mg133 1.963 . S
Mg132 O131 1.936 . S
Mg132 O141 2.291 . S
Mg132 O146 2.081 . S
Mg132 O148 2.023 . S
Mg132 O152 2.031 . S
Mg133 O131 1.963 . S
Mg133 O137 1.986 . S
Mg133 O149 1.942 . S
Mg133 O150 1.955 . S
C134 O145 1.191 . S
C134 O147 1.307 . S
O135 Mg130 2.013 . S
O135 C154 1.191 . S
O136 Mg127 2.081 . S
O136 C144 1.331 . S
O137 Mg133 1.986 . S
O137 C154 1.307 . S
O138 Mg127 2.023 . S
O138 C153 1.264 . S
O139 Mg128 1.942 . S
O139 C144 1.244 . S
O140 Mg128 1.955 . S
O140 C153 1.273 . S
O141 Mg130 2.114 . S
O141 Mg132 2.291 . S
O141 C143 1.312 . S
O142 Mg127 2.031 . S
O142 C143 1.208 . S
C143 O141 1.312 . S
C143 O142 1.208 . S
C144 O136 1.331 . S
C144 O139 1.244 . S
O145 Mg130 2.013 . S
O145 C134 1.191 . S
O146 C125 1.331 . S
O146 Mg132 2.081 . S
O147 Mg128 1.986 . S
O147 C134 1.307 . S
O148 C126 1.264 . S
O148 Mg132 2.023 . S
O149 C125 1.244 . S
O149 Mg133 1.942 . S
O150 C126 1.273 . S
O150 Mg133 1.955 . S
O151 C124 1.312 . S
O151 Mg127 2.291 . S
O151 Mg130 2.114 . S
O152 C124 1.208 . S
O152 Mg132 2.031 . S
C153 O138 1.264 . S
C153 O140 1.273 . S
C154 O135 1.191 . S
C154 O137 1.307 . S
C155 O182 1.312 . S
C155 O183 1.208 . S
C156 O177 1.331 . S
C156 O180 1.244 . S
C157 O179 1.264 . S
C157 O181 1.273 . S
Mg158 O160 1.936 . S
Mg158 O167 2.081 . S
Mg158 O169 2.023 . S
Mg158 O173 2.031 . S
Mg158 O182 2.291 . S
Mg159 O160 1.963 . S
Mg159 O170 1.942 . S
Mg159 O171 1.955 . S
Mg159 O178 1.986 . S
O160 Mg158 1.936 . S
O160 Mg159 1.963 . S
O160 Mg161 1.915 . S
Mg161 O160 1.915 . S
Mg161 O162 1.915 . S
Mg161 O166 2.013 . S
Mg161 O172 2.114 . S
Mg161 O176 2.013 . S
Mg161 O182 2.114 . S
O162 Mg161 1.915 . S
O162 Mg163 1.936 . S
O162 Mg164 1.963 . S
Mg163 O162 1.936 . S
Mg163 O172 2.291 . S
Mg163 O177 2.081 . S
Mg163 O179 2.023 . S
Mg163 O183 2.031 . S
Mg164 O162 1.963 . S
Mg164 O168 1.986 . S
Mg164 O180 1.942 . S
Mg164 O181 1.955 . S
C165 O176 1.191 . S
C165 O178 1.307 . S
O166 Mg161 2.013 . S
O166 C185 1.191 . S
O167 Mg158 2.081 . S
O167 C175 1.331 . S
O168 Mg164 1.986 . S
O168 C185 1.307 . S
O169 Mg158 2.023 . S
O169 C184 1.264 . S
O170 Mg159 1.942 . S
O170 C175 1.244 . S
O171 Mg159 1.955 . S
O171 C184 1.273 . S
O172 Mg161 2.114 . S
O172 Mg163 2.291 . S
O172 C174 1.312 . S
O173 Mg158 2.031 . S
O173 C174 1.208 . S
C174 O172 1.312 . S
C174 O173 1.208 . S
C175 O167 1.331 . S
C175 O170 1.244 . S
O176 Mg161 2.013 . S
O176 C165 1.191 . S
O177 C156 1.331 . S
O177 Mg163 2.081 . S
O178 Mg159 1.986 . S
O178 C165 1.307 . S
O179 C157 1.264 . S
O179 Mg163 2.023 . S
O180 C156 1.244 . S
O180 Mg164 1.942 . S
O181 C157 1.273 . S
O181 Mg164 1.955 . S
O182 C155 1.312 . S
O182 Mg158 2.291 . S
O182 Mg161 2.114 . S
O183 C155 1.208 . S
O183 Mg163 2.031 . S
C184 O169 1.264 . S
C184 O171 1.273 . S
C185 O166 1.191 . S
C185 O168 1.307 . S
C186 O213 1.312 . S
C186 O214 1.208 . S
C187 O208 1.331 . S
C187 O211 1.244 . S
C188 O210 1.264 . S
C188 O212 1.273 . S
Mg189 O191 1.936 . S
Mg189 O198 2.081 . S
Mg189 O200 2.023 . S
Mg189 O204 2.031 . S
Mg189 O213 2.291 . S
Mg190 O191 1.963 . S
Mg190 O201 1.942 . S
Mg190 O202 1.955 . S
Mg190 O209 1.986 . S
O191 Mg189 1.936 . S
O191 Mg190 1.963 . S
O191 Mg192 1.915 . S
Mg192 O191 1.915 . S
Mg192 O193 1.915 . S
Mg192 O197 2.013 . S
Mg192 O203 2.114 . S
Mg192 O207 2.013 . S
Mg192 O213 2.114 . S
O193 Mg192 1.915 . S
O193 Mg194 1.936 . S
O193 Mg195 1.963 . S
Mg194 O193 1.936 . S
Mg194 O203 2.291 . S
Mg194 O208 2.081 1_556 S
Mg194 O210 2.023 . S
Mg194 O214 2.031 . S
Mg195 O193 1.963 . S
Mg195 O199 1.986 . S
Mg195 O211 1.942 1_556 S
Mg195 O212 1.955 . S
C196 O207 1.191 . S
C196 O209 1.307 . S
O197 Mg192 2.013 . S
O197 C216 1.191 . S
O198 Mg189 2.081 . S
O198 C206 1.331 . S
O199 Mg195 1.986 . S
O199 C216 1.307 . S
O200 Mg189 2.023 . S
O200 C215 1.264 . S
O201 Mg190 1.942 . S
O201 C206 1.244 . S
O202 Mg190 1.955 . S
O202 C215 1.273 . S
O203 Mg192 2.114 . S
O203 Mg194 2.291 . S
O203 C205 1.312 . S
O204 Mg189 2.031 . S
O204 C205 1.208 . S
C205 O203 1.312 . S
C205 O204 1.208 . S
C206 O198 1.331 . S
C206 O201 1.244 . S
O207 Mg192 2.013 . S
O207 C196 1.191 . S
O208 C187 1.331 . S
O208 Mg194 2.081 1_554 S
O209 Mg190 1.986 . S
O209 C196 1.307 . S
O210 C188 1.264 . S
O210 Mg194 2.023 . S
O211 C187 1.244 . S
O211 Mg195 1.942 1_554 S
O212 C188 1.273 . S
O212 Mg195 1.955 . S
O213 C186 1.312 . S
O213 Mg189 2.291 . S
O213 Mg192 2.114 . S
O214 C186 1.208 . S
O214 Mg194 2.031 . S
C215 O200 1.264 . S
C215 O202 1.273 . S
C216 O197 1.191 . S
C216 O199 1.307 . S
C217 O244 1.312 . S
C217 O245 1.208 . S
C218 O239 1.331 . S
C218 O242 1.244 . S
C219 O241 1.264 . S
C219 O243 1.273 . S
Mg220 O222 1.936 . S
Mg220 O229 2.081 1_556 S
Mg220 O231 2.023 . S
Mg220 O235 2.031 . S
Mg220 O244 2.291 . S
Mg221 O222 1.963 . S
Mg221 O232 1.942 1_556 S
Mg221 O233 1.955 . S
Mg221 O240 1.986 . S
O222 Mg220 1.936 . S
O222 Mg221 1.963 . S
O222 Mg223 1.915 . S
Mg223 O222 1.915 . S
Mg223 O224 1.915 . S
Mg223 O228 2.013 . S
Mg223 O234 2.114 . S
Mg223 O238 2.013 . S
Mg223 O244 2.114 . S
O224 Mg223 1.915 . S
O224 Mg225 1.936 . S
O224 Mg226 1.963 . S
Mg225 O224 1.936 . S
Mg225 O234 2.291 . S
Mg225 O239 2.081 . S
Mg225 O241 2.023 . S
Mg225 O245 2.031 . S
Mg226 O224 1.963 . S
Mg226 O230 1.986 . S
Mg226 O242 1.942 . S
Mg226 O243 1.955 . S
C227 O238 1.191 . S
C227 O240 1.307 . S
O228 Mg223 2.013 . S
O228 C247 1.191 . S
O229 Mg220 2.081 1_554 S
O229 C237 1.331 . S
O230 Mg226 1.986 . S
O230 C247 1.307 . S
O231 Mg220 2.023 . S
O231 C246 1.264 . S
O232 Mg221 1.942 1_554 S
O232 C237 1.244 . S
O233 Mg221 1.955 . S
O233 C246 1.273 . S
O234 Mg223 2.114 . S
O234 Mg225 2.291 . S
O234 C236 1.312 . S
O235 Mg220 2.031 . S
O235 C236 1.208 . S
C236 O234 1.312 . S
C236 O235 1.208 . S
C237 O229 1.331 . S
C237 O232 1.244 . S
O238 Mg223 2.013 . S
O238 C227 1.191 . S
O239 C218 1.331 . S
O239 Mg225 2.081 . S
O240 Mg221 1.986 . S
O240 C227 1.307 . S
O241 C219 1.264 . S
O241 Mg225 2.023 . S
O242 C218 1.244 . S
O242 Mg226 1.942 . S
O243 C219 1.273 . S
O243 Mg226 1.955 . S
O244 C217 1.312 . S
O244 Mg220 2.291 . S
O244 Mg223 2.114 . S
O245 C217 1.208 . S
O245 Mg225 2.031 . S
C246 O231 1.264 . S
C246 O233 1.273 . S
C247 O228 1.191 . S
C247 O230 1.307 . S
C248 O275 1.312 . S
C248 O276 1.208 . S
C249 O270 1.331 . S
C249 O273 1.244 . S
C250 O272 1.264 . S
C250 O274 1.273 . S
Mg251 O253 1.936 . S
Mg251 O260 2.081 . S
Mg251 O262 2.023 . S
Mg251 O266 2.031 . S
Mg251 O275 2.291 . S
Mg252 O253 1.963 . S
Mg252 O263 1.942 . S
Mg252 O264 1.955 . S
Mg252 O271 1.986 . S
O253 Mg251 1.936 . S
O253 Mg252 1.963 . S
O253 Mg254 1.915 . S
Mg254 O253 1.915 . S
Mg254 O255 1.915 . S
Mg254 O259 2.013 . S
Mg254 O265 2.114 . S
Mg254 O269 2.013 . S
Mg254 O275 2.114 . S
O255 Mg254 1.915 . S
O255 Mg256 1.936 . S
O255 Mg257 1.963 . S
Mg256 O255 1.936 . S
Mg256 O265 2.291 . S
Mg256 O270 2.081 1_556 S
Mg256 O272 2.023 . S
Mg256 O276 2.031 . S
Mg257 O255 1.963 . S
Mg257 O261 1.986 . S
Mg257 O273 1.942 1_556 S
Mg257 O274 1.955 . S
C258 O269 1.191 . S
C258 O271 1.307 . S
O259 Mg254 2.013 . S
O259 C278 1.191 . S
O260 Mg251 2.081 . S
O260 C268 1.331 . S
O261 Mg257 1.986 . S
O261 C278 1.307 . S
O262 Mg251 2.023 . S
O262 C277 1.264 . S
O263 Mg252 1.942 . S
O263 C268 1.244 . S
O264 Mg252 1.955 . S
O264 C277 1.273 . S
O265 Mg254 2.114 . S
O265 Mg256 2.291 . S
O265 C267 1.312 . S
O266 Mg251 2.031 . S
O266 C267 1.208 . S
C267 O265 1.312 . S
C267 O266 1.208 . S
C268 O260 1.331 . S
C268 O263 1.244 . S
O269 Mg254 2.013 . S
O269 C258 1.191 . S
O270 C249 1.331 . S
O270 Mg256 2.081 1_554 S
O271 Mg252 1.986 . S
O271 C258 1.307 . S
O272 C250 1.264 . S
O272 Mg256 2.023 . S
O273 C249 1.244 . S
O273 Mg257 1.942 1_554 S
O274 C250 1.273 . S
O274 Mg257 1.955 . S
O275 C248 1.312 . S
O275 Mg251 2.291 . S
O275 Mg254 2.114 . S
O276 C248 1.208 . S
O276 Mg256 2.031 . S
C277 O262 1.264 . S
C277 O264 1.273 . S
C278 O259 1.191 . S
C278 O261 1.307 . S
C279 O306 1.312 . S
C279 O307 1.208 . S
C280 O301 1.331 . S
C280 O304 1.244 . S
C281 O303 1.264 . S
C281 O305 1.273 . S
Mg282 O284 1.936 . S
Mg282 O291 2.081 . S
Mg282 O293 2.023 . S
Mg282 O297 2.031 . S
Mg282 O306 2.291 . S
Mg283 O284 1.963 . S
Mg283 O294 1.942 . S
Mg283 O295 1.955 . S
Mg283 O302 1.986 . S
O284 Mg282 1.936 . S
O284 Mg283 1.963 . S
O284 Mg285 1.915 . S
Mg285 O284 1.915 . S
Mg285 O286 1.915 . S
Mg285 O290 2.013 . S
Mg285 O296 2.114 . S
Mg285 O300 2.013 . S
Mg285 O306 2.114 . S
O286 Mg285 1.915 . S
O286 Mg287 1.936 . S
O286 Mg288 1.963 . S
Mg287 O286 1.936 . S
Mg287 O296 2.291 . S
Mg287 O301 2.081 . S
Mg287 O303 2.023 . S
Mg287 O307 2.031 . S
Mg288 O286 1.963 . S
Mg288 O292 1.986 . S
Mg288 O304 1.942 . S
Mg288 O305 1.955 . S
C289 O300 1.191 . S
C289 O302 1.307 . S
O290 Mg285 2.013 . S
O290 C309 1.191 . S
O291 Mg282 2.081 . S
O291 C299 1.331 . S
O292 Mg288 1.986 . S
O292 C309 1.307 . S
O293 Mg282 2.023 . S
O293 C308 1.264 . S
O294 Mg283 1.942 . S
O294 C299 1.244 . S
O295 Mg283 1.955 . S
O295 C308 1.273 . S
O296 Mg285 2.114 . S
O296 Mg287 2.291 . S
O296 C298 1.312 . S
O297 Mg282 2.031 . S
O297 C298 1.208 . S
C298 O296 1.312 . S
C298 O297 1.208 . S
C299 O291 1.331 . S
C299 O294 1.244 . S
O300 Mg285 2.013 . S
O300 C289 1.191 . S
O301 C280 1.331 . S
O301 Mg287 2.081 . S
O302 Mg283 1.986 . S
O302 C289 1.307 . S
O303 C281 1.264 . S
O303 Mg287 2.023 . S
O304 C280 1.244 . S
O304 Mg288 1.942 . S
O305 C281 1.273 . S
O305 Mg288 1.955 . S
O306 C279 1.312 . S
O306 Mg282 2.291 . S
O306 Mg285 2.114 . S
O307 C279 1.208 . S
O307 Mg287 2.031 . S
C308 O293 1.264 . S
C308 O295 1.273 . S
C309 O290 1.191 . S
C309 O292 1.307 . S
C310 O337 1.312 . S
C310 O338 1.208 . S
C311 O332 1.331 . S
C311 O335 1.244 . S
C312 O334 1.264 . S
C312 O336 1.273 . S
Mg313 O315 1.936 . S
Mg313 O322 2.081 . S
Mg313 O324 2.023 . S
Mg313 O328 2.031 . S
Mg313 O337 2.291 . S
Mg314 O315 1.963 . S
Mg314 O325 1.942 . S
Mg314 O326 1.955 . S
Mg314 O333 1.986 . S
O315 Mg313 1.936 . S
O315 Mg314 1.963 . S
O315 Mg316 1.915 . S
Mg316 O315 1.915 . S
Mg316 O317 1.915 . S
Mg316 O321 2.013 . S
Mg316 O327 2.114 . S
Mg316 O331 2.013 . S
Mg316 O337 2.114 . S
O317 Mg316 1.915 . S
O317 Mg318 1.936 . S
O317 Mg319 1.963 . S
Mg318 O317 1.936 . S
Mg318 O327 2.291 . S
Mg318 O332 2.081 . S
Mg318 O334 2.023 . S
Mg318 O338 2.031 . S
Mg319 O317 1.963 . S
Mg319 O323 1.986 . S
Mg319 O335 1.942 . S
Mg319 O336 1.955 . S
C320 O331 1.191 . S
C320 O333 1.307 . S
O321 Mg316 2.013 . S
O321 C340 1.191 . S
O322 Mg313 2.081 . S
O322 C330 1.331 . S
O323 Mg319 1.986 . S
O323 C340 1.307 . S
O324 Mg313 2.023 . S
O324 C339 1.264 . S
O325 Mg314 1.942 . S
O325 C330 1.244 . S
O326 Mg314 1.955 . S
O326 C339 1.273 . S
O327 Mg316 2.114 . S
O327 Mg318 2.291 . S
O327 C329 1.312 . S
O328 Mg313 2.031 . S
O328 C329 1.208 . S
C329 O327 1.312 . S
C329 O328 1.208 . S
C330 O322 1.331 . S
C330 O325 1.244 . S
O331 Mg316 2.013 . S
O331 C320 1.191 . S
O332 C311 1.331 . S
O332 Mg318 2.081 . S
O333 Mg314 1.986 . S
O333 C320 1.307 . S
O334 C312 1.264 . S
O334 Mg318 2.023 . S
O335 C311 1.244 . S
O335 Mg319 1.942 . S
O336 C312 1.273 . S
O336 Mg319 1.955 . S
O337 C310 1.312 . S
O337 Mg313 2.291 . S
O337 Mg316 2.114 . S
O338 C310 1.208 . S
O338 Mg318 2.031 . S
C339 O324 1.264 . S
C339 O326 1.273 . S
C340 O321 1.191 . S
C340 O323 1.307 . S
C341 O368 1.312 . S
C341 O369 1.208 . S
C342 O363 1.331 . S
C342 O366 1.244 . S
C343 O365 1.264 . S
C343 O367 1.273 . S
Mg344 O346 1.936 . S
Mg344 O353 2.081 . S
Mg344 O355 2.023 . S
Mg344 O359 2.031 . S
Mg344 O368 2.291 . S
Mg345 O346 1.963 . S
Mg345 O356 1.942 . S
Mg345 O357 1.955 . S
Mg345 O364 1.986 . S
O346 Mg344 1.936 . S
O346 Mg345 1.963 . S
O346 Mg347 1.915 . S
Mg347 O346 1.915 . S
Mg347 O348 1.915 . S
Mg347 O352 2.013 . S
Mg347 O358 2.114 . S
Mg347 O362 2.013 . S
Mg347 O368 2.114 . S
O348 Mg347 1.915 . S
O348 Mg349 1.936 . S
O348 Mg350 1.963 . S
Mg349 O348 1.936 . S
Mg349 O358 2.291 . S
Mg349 O363 2.081 . S
Mg349 O365 2.023 . S
Mg349 O369 2.031 . S
Mg350 O348 1.963 . S
Mg350 O354 1.986 . S
Mg350 O366 1.942 . S
Mg350 O367 1.955 . S
C351 O362 1.191 . S
C351 O364 1.307 . S
O352 Mg347 2.013 . S
O352 C371 1.191 . S
O353 Mg344 2.081 . S
O353 C361 1.331 . S
O354 Mg350 1.986 . S
O354 C371 1.307 . S
O355 Mg344 2.023 . S
O355 C370 1.264 . S
O356 Mg345 1.942 . S
O356 C361 1.244 . S
O357 Mg345 1.955 . S
O357 C370 1.273 . S
O358 Mg347 2.114 . S
O358 Mg349 2.291 . S
O358 C360 1.312 . S
O359 Mg344 2.031 . S
O359 C360 1.208 . S
C360 O358 1.312 . S
C360 O359 1.208 . S
C361 O353 1.331 . S
C361 O356 1.244 . S
O362 Mg347 2.013 . S
O362 C351 1.191 . S
O363 C342 1.331 . S
O363 Mg349 2.081 . S
O364 Mg345 1.986 . S
O364 C351 1.307 . S
O365 C343 1.264 . S
O365 Mg349 2.023 . S
O366 C342 1.244 . S
O366 Mg350 1.942 . S
O367 C343 1.273 . S
O367 Mg350 1.955 . S
O368 C341 1.312 . S
O368 Mg344 2.291 . S
O368 Mg347 2.114 . S
O369 C341 1.208 . S
O369 Mg349 2.031 . S
C370 O355 1.264 . S
C370 O357 1.273 . S
C371 O352 1.191 . S
C371 O354 1.307 . S
H372 C378 0.930 . S
H373 C382 0.930 . S
H374 C387 0.929 . S
H375 C385 0.929 . S
H376 C380 0.929 . S
H377 C386 0.929 . S
C378 H372 0.930 . S
C378 C379 1.367 . S
C378 C386 1.378 . S
C379 C378 1.367 . S
C379 C387 1.433 . S
C380 H376 0.929 . S
C380 C382 1.378 . S
C380 C384 1.350 . S
C381 C384 1.463 . S
C381 C386 1.350 . S
C381 N389 1.427 . S
C382 H373 0.930 . S
C382 C380 1.378 . S
C382 C383 1.367 . S
C383 C382 1.367 . S
C383 C385 1.433 . S
C384 C380 1.350 . S
C384 C381 1.463 . S
C384 N388 1.427 . S
C385 H375 0.929 . S
C385 C383 1.433 . S
C385 N388 1.384 . S
C386 H377 0.929 . S
C386 C378 1.378 . S
C386 C381 1.350 . S
C387 H374 0.929 . S
C387 C379 1.433 . S
C387 N389 1.384 . S
N388 C384 1.427 . S
N388 C385 1.384 . S
N389 C381 1.427 . S
N389 C387 1.384 . S
H390 C396 0.930 . S
H391 C400 0.930 . S
H392 C405 0.929 . S
H393 C403 0.929 . S
H394 C398 0.929 . S
H395 C404 0.929 . S
C396 H390 0.930 . S
C396 C397 1.367 . S
C396 C404 1.378 . S
C397 C396 1.367 . S
C397 C405 1.433 . S
C398 H394 0.929 . S
C398 C400 1.378 . S
C398 C402 1.350 . S
C399 C402 1.463 . S
C399 C404 1.350 . S
C399 N407 1.427 . S
C400 H391 0.930 . S
C400 C398 1.378 . S
C400 C401 1.367 . S
C401 C400 1.367 . S
C401 C403 1.433 . S
C402 C398 1.350 . S
C402 C399 1.463 . S
C402 N406 1.427 . S
C403 H393 0.929 . S
C403 C401 1.433 . S
C403 N406 1.384 . S
C404 H395 0.929 . S
C404 C396 1.378 . S
C404 C399 1.350 . S
C405 H392 0.929 . S
C405 C397 1.433 . S
C405 N407 1.384 . S
N406 C402 1.427 . S
N406 C403 1.384 . S
N407 C399 1.427 . S
N407 C405 1.384 . S
H408 C414 0.930 . S
H409 C418 0.930 . S
H410 C423 0.929 . S
H411 C421 0.929 . S
H412 C416 0.929 . S
H413 C422 0.929 . S
C414 H408 0.930 . S
C414 C415 1.367 . S
C414 C422 1.378 . S
C415 C414 1.367 . S
C415 C423 1.433 . S
C416 H412 0.929 . S
C416 C418 1.378 . S
C416 C420 1.350 . S
C417 C420 1.463 . S
C417 C422 1.350 . S
C417 N425 1.427 . S
C418 H409 0.930 . S
C418 C416 1.378 . S
C418 C419 1.367 . S
C419 C418 1.367 . S
C419 C421 1.433 . S
C420 C416 1.350 . S
C420 C417 1.463 . S
C420 N424 1.427 . S
C421 H411 0.929 . S
C421 C419 1.433 . S
C421 N424 1.384 . S
C422 H413 0.929 . S
C422 C414 1.378 . S
C422 C417 1.350 . S
C423 H410 0.929 . S
C423 C415 1.433 . S
C423 N425 1.384 . S
N424 C420 1.427 . S
N424 C421 1.384 . S
N425 C417 1.427 . S
N425 C423 1.384 . S
H426 C432 0.930 . S
H427 C436 0.930 . S
H428 C441 0.929 . S
H429 C439 0.929 . S
H430 C434 0.929 . S
H431 C440 0.929 . S
C432 H426 0.930 . S
C432 C433 1.367 . S
C432 C440 1.378 . S
C433 C432 1.367 . S
C433 C441 1.433 . S
C434 H430 0.929 . S
C434 C436 1.378 . S
C434 C438 1.350 . S
C435 C438 1.463 . S
C435 C440 1.350 . S
C435 N443 1.427 . S
C436 H427 0.930 . S
C436 C434 1.378 . S
C436 C437 1.367 . S
C437 C436 1.367 . S
C437 C439 1.433 . S
C438 C434 1.350 . S
C438 C435 1.463 . S
C438 N442 1.427 . S
C439 H429 0.929 . S
C439 C437 1.433 . S
C439 N442 1.384 . S
C440 H431 0.929 . S
C440 C432 1.378 . S
C440 C435 1.350 . S
C441 H428 0.929 . S
C441 C433 1.433 . S
C441 N443 1.384 . S
N442 C438 1.427 . S
N442 C439 1.384 . S
N443 C435 1.427 . S
N443 C441 1.384 . S
H444 C450 0.930 . S
H445 C454 0.930 . S
H446 C459 0.929 . S
H447 C457 0.929 . S
H448 C452 0.929 . S
H449 C458 0.929 . S
C450 H444 0.930 . S
C450 C451 1.367 . S
C450 C458 1.378 . S
C451 C450 1.367 . S
C451 C459 1.433 . S
C452 H448 0.929 . S
C452 C454 1.378 . S
C452 C456 1.350 . S
C453 C456 1.463 . S
C453 C458 1.350 . S
C453 N461 1.427 . S
C454 H445 0.930 . S
C454 C452 1.378 . S
C454 C455 1.367 . S
C455 C454 1.367 . S
C455 C457 1.433 . S
C456 C452 1.350 . S
C456 C453 1.463 . S
C456 N460 1.427 . S
C457 H447 0.929 . S
C457 C455 1.433 . S
C457 N460 1.384 . S
C458 H449 0.929 . S
C458 C450 1.378 . S
C458 C453 1.350 . S
C459 H446 0.929 . S
C459 C451 1.433 . S
C459 N461 1.384 . S
N460 C456 1.427 . S
N460 C457 1.384 . S
N461 C453 1.427 . S
N461 C459 1.384 . S
H462 C468 0.930 . S
H463 C472 0.930 . S
H464 C477 0.929 . S
H465 C475 0.929 . S
H466 C470 0.929 . S
H467 C476 0.929 . S
C468 H462 0.930 . S
C468 C469 1.367 . S
C468 C476 1.378 . S
C469 C468 1.367 . S
C469 C477 1.433 . S
C470 H466 0.929 . S
C470 C472 1.378 . S
C470 C474 1.350 . S
C471 C474 1.463 . S
C471 C476 1.350 . S
C471 N479 1.427 . S
C472 H463 0.930 . S
C472 C470 1.378 . S
C472 C473 1.367 . S
C473 C472 1.367 . S
C473 C475 1.433 . S
C474 C470 1.350 . S
C474 C471 1.463 . S
C474 N478 1.427 . S
C475 H465 0.929 . S
C475 C473 1.433 . S
C475 N478 1.384 . S
C476 H467 0.929 . S
C476 C468 1.378 . S
C476 C471 1.350 . S
C477 H464 0.929 . S
C477 C469 1.433 . S
C477 N479 1.384 . S
N478 C474 1.427 . S
N478 C475 1.384 . S
N479 C471 1.427 . S
N479 C477 1.384 . S
H480 C486 0.930 . S
H481 C490 0.930 . S
H482 C495 0.929 . S
H483 C493 0.929 . S
H484 C488 0.929 . S
H485 C494 0.929 . S
C486 H480 0.930 . S
C486 C487 1.367 . S
C486 C494 1.378 . S
C487 C486 1.367 . S
C487 C495 1.433 . S
C488 H484 0.929 . S
C488 C490 1.378 . S
C488 C492 1.350 . S
C489 C492 1.463 . S
C489 C494 1.350 . S
C489 N497 1.427 . S
C490 H481 0.930 . S
C490 C488 1.378 . S
C490 C491 1.367 . S
C491 C490 1.367 . S
C491 C493 1.433 . S
C492 C488 1.350 . S
C492 C489 1.463 . S
C492 N496 1.427 . S
C493 H483 0.929 . S
C493 C491 1.433 . S
C493 N496 1.384 . S
C494 H485 0.929 . S
C494 C486 1.378 . S
C494 C489 1.350 . S
C495 H482 0.929 . S
C495 C487 1.433 . S
C495 N497 1.384 . S
N496 C492 1.427 . S
N496 C493 1.384 . S
N497 C489 1.427 . S
N497 C495 1.384 . S
H498 C504 0.930 . S
H499 C508 0.930 . S
H500 C513 0.929 . S
H501 C511 0.929 . S
H502 C506 0.929 . S
H503 C512 0.929 . S
C504 H498 0.930 . S
C504 C505 1.367 . S
C504 C512 1.378 . S
C505 C504 1.367 . S
C505 C513 1.433 . S
C506 H502 0.929 . S
C506 C508 1.378 . S
C506 C510 1.350 . S
C507 C510 1.463 . S
C507 C512 1.350 . S
C507 N515 1.427 . S
C508 H499 0.930 . S
C508 C506 1.378 . S
C508 C509 1.367 . S
C509 C508 1.367 . S
C509 C511 1.433 . S
C510 C506 1.350 . S
C510 C507 1.463 . S
C510 N514 1.427 . S
C511 H501 0.929 . S
C511 C509 1.433 . S
C511 N514 1.384 . S
C512 H503 0.929 . S
C512 C504 1.378 . S
C512 C507 1.350 . S
C513 H500 0.929 . S
C513 C505 1.433 . S
C513 N515 1.384 . S
N514 C510 1.427 . S
N514 C511 1.384 . S
N515 C507 1.427 . S
N515 C513 1.384 . S
H516 C522 0.930 . S
H517 C526 0.930 . S
H518 C531 0.929 . S
H519 C529 0.929 . S
H520 C524 0.929 . S
H521 C530 0.929 . S
C522 H516 0.930 . S
C522 C523 1.367 . S
C522 C530 1.378 . S
C523 C522 1.367 . S
C523 C531 1.433 . S
C524 H520 0.929 . S
C524 C526 1.378 . S
C524 C528 1.350 . S
C525 C528 1.463 . S
C525 C530 1.350 . S
C525 N533 1.427 . S
C526 H517 0.930 . S
C526 C524 1.378 . S
C526 C527 1.367 . S
C527 C526 1.367 . S
C527 C529 1.433 . S
C528 C524 1.350 . S
C528 C525 1.463 . S
C528 N532 1.427 . S
C529 H519 0.929 . S
C529 C527 1.433 . S
C529 N532 1.384 . S
C530 H521 0.929 . S
C530 C522 1.378 . S
C530 C525 1.350 . S
C531 H518 0.929 . S
C531 C523 1.433 . S
C531 N533 1.384 . S
N532 C528 1.427 . S
N532 C529 1.384 . S
N533 C525 1.427 . S
N533 C531 1.384 . S
H534 C540 0.930 . S
H535 C544 0.930 . S
H536 C549 0.929 . S
H537 C547 0.929 . S
H538 C542 0.929 . S
H539 C548 0.929 . S
C540 H534 0.930 . S
C540 C541 1.367 . S
C540 C548 1.378 . S
C541 C540 1.367 . S
C541 C549 1.433 . S
C542 H538 0.929 . S
C542 C544 1.378 . S
C542 C546 1.350 . S
C543 C546 1.463 . S
C543 C548 1.350 . S
C543 N551 1.427 . S
C544 H535 0.930 . S
C544 C542 1.378 . S
C544 C545 1.367 . S
C545 C544 1.367 . S
C545 C547 1.433 . S
C546 C542 1.350 . S
C546 C543 1.463 . S
C546 N550 1.427 . S
C547 H537 0.929 . S
C547 C545 1.433 . S
C547 N550 1.384 . S
C548 H539 0.929 . S
C548 C540 1.378 . S
C548 C543 1.350 . S
C549 H536 0.929 . S
C549 C541 1.433 . S
C549 N551 1.384 . S
N550 C546 1.427 . S
N550 C547 1.384 . S
N551 C543 1.427 . S
N551 C549 1.384 . S
H552 C558 0.930 . S
H553 C562 0.930 . S
H554 C567 0.929 . S
H555 C565 0.929 . S
H556 C560 0.929 . S
H557 C566 0.929 . S
C558 H552 0.930 . S
C558 C559 1.367 . S
C558 C566 1.378 . S
C559 C558 1.367 . S
C559 C567 1.433 . S
C560 H556 0.929 . S
C560 C562 1.378 . S
C560 C564 1.350 . S
C561 C564 1.463 . S
C561 C566 1.350 . S
C561 N569 1.427 . S
C562 H553 0.930 . S
C562 C560 1.378 . S
C562 C563 1.367 . S
C563 C562 1.367 . S
C563 C565 1.433 . S
C564 C560 1.350 . S
C564 C561 1.463 . S
C564 N568 1.427 . S
C565 H555 0.929 . S
C565 C563 1.433 . S
C565 N568 1.384 . S
C566 H557 0.929 . S
C566 C558 1.378 . S
C566 C561 1.350 . S
C567 H554 0.929 . S
C567 C559 1.433 . S
C567 N569 1.384 . S
N568 C564 1.427 . S
N568 C565 1.384 . S
N569 C561 1.427 . S
N569 C567 1.384 . S
H570 C576 0.930 . S
H571 C580 0.930 . S
H572 C585 0.929 . S
H573 C583 0.929 . S
H574 C578 0.929 . S
H575 C584 0.929 . S
C576 H570 0.930 . S
C576 C577 1.367 . S
C576 C584 1.378 . S
C577 C576 1.367 . S
C577 C585 1.433 . S
C578 H574 0.929 . S
C578 C580 1.378 . S
C578 C582 1.350 . S
C579 C582 1.463 . S
C579 C584 1.350 . S
C579 N587 1.427 . S
C580 H571 0.930 . S
C580 C578 1.378 . S
C580 C581 1.367 . S
C581 C580 1.367 . S
C581 C583 1.433 . S
C582 C578 1.350 . S
C582 C579 1.463 . S
C582 N586 1.427 . S
C583 H573 0.929 . S
C583 C581 1.433 . S
C583 N586 1.384 . S
C584 H575 0.929 . S
C584 C576 1.378 . S
C584 C579 1.350 . S
C585 H572 0.929 . S
C585 C577 1.433 . S
C585 N587 1.384 . S
N586 C582 1.427 . S
N586 C583 1.384 . S
N587 C579 1.427 . S
N587 C585 1.384 . S
H588 C594 0.930 . S
H589 C598 0.930 . S
H590 C603 0.929 . S
H591 C601 0.929 . S
H592 C596 0.929 1_556 S
H593 C602 0.929 1_554 S
C594 H588 0.930 . S
C594 C595 1.367 . S
C594 C602 1.378 . S
C595 C594 1.367 . S
C595 C603 1.433 . S
C596 H592 0.929 1_554 S
C596 C598 1.378 . S
C596 C600 1.350 . S
C597 C600 1.463 1_556 S
C597 C602 1.350 . S
C597 N605 1.427 . S
C598 H589 0.930 . S
C598 C596 1.378 . S
C598 C599 1.367 . S
C599 C598 1.367 . S
C599 C601 1.433 . S
C600 C596 1.350 . S
C600 C597 1.463 1_554 S
C600 N604 1.427 . S
C601 H591 0.929 . S
C601 C599 1.433 . S
C601 N604 1.384 . S
C602 H593 0.929 1_556 S
C602 C594 1.378 . S
C602 C597 1.350 . S
C603 H590 0.929 . S
C603 C595 1.433 . S
C603 N605 1.384 . S
N604 C600 1.427 . S
N604 C601 1.384 . S
N605 C597 1.427 . S
N605 C603 1.384 . S
H606 C612 0.930 . S
H607 C616 0.930 . S
H608 C621 0.952 . S
H609 C619 0.952 . S
H610 C614 0.929 1_554 S
H611 C620 0.929 1_556 S
C612 H606 0.930 . S
C612 C613 1.367 . S
C612 C620 1.378 . S
C613 C612 1.367 . S
C613 C621 1.433 . S
C614 H610 0.929 1_556 S
C614 C616 1.378 . S
C614 C618 1.350 . S
C615 C618 1.463 1_544 S
C615 C620 1.350 . S
C615 N623 1.427 1_545 S
C616 H607 0.930 . S
C616 C614 1.378 . S
C616 C617 1.367 . S
C617 C616 1.367 . S
C617 C619 1.433 . S
C618 C614 1.350 . S
C618 C615 1.463 1_566 S
C618 N622 1.427 1_565 S
C619 H609 0.952 . S
C619 C617 1.433 . S
C619 N622 1.384 1_565 S
C620 H611 0.929 1_554 S
C620 C612 1.378 . S
C620 C615 1.350 . S
C621 H608 0.952 . S
C621 C613 1.433 . S
C621 N623 1.384 1_545 S
N622 C618 1.427 1_545 S
N622 C619 1.384 1_545 S
N623 C615 1.427 1_565 S
N623 C621 1.384 1_565 S
H624 C630 0.930 . S
H625 C634 0.930 . S
H626 C639 0.929 . S
H627 C637 0.929 . S
H628 C632 0.929 . S
H629 C638 0.929 . S
C630 H624 0.930 . S
C630 C631 1.367 . S
C630 C638 1.378 . S
C631 C630 1.367 . S
C631 C639 1.433 . S
C632 H628 0.929 . S
C632 C634 1.378 . S
C632 C636 1.350 . S
C633 C636 1.463 1_654 S
C633 C638 1.350 . S
C633 N641 1.428 1_655 S
C634 H625 0.930 . S
C634 C632 1.378 . S
C634 C635 1.367 . S
C635 C634 1.367 . S
C635 C637 1.433 . S
C636 C632 1.350 . S
C636 C633 1.463 1_456 S
C636 N640 1.428 1_455 S
C637 H627 0.929 . S
C637 C635 1.433 . S
C637 N640 1.381 1_455 S
C638 H629 0.929 . S
C638 C630 1.378 . S
C638 C633 1.350 . S
C639 H626 0.929 . S
C639 C631 1.433 . S
C639 N641 1.381 1_655 S
N640 C636 1.428 1_655 S
N640 C637 1.381 1_655 S
N641 C633 1.428 1_455 S
N641 C639 1.381 1_455 S
H642 C648 0.930 . S
H643 C652 0.930 . S
H644 C657 0.929 . S
H645 C655 0.929 . S
H646 C650 0.929 . S
H647 C656 0.929 . S
C648 H642 0.930 . S
C648 C649 1.367 . S
C648 C656 1.378 . S
C649 C648 1.367 . S
C649 C657 1.433 . S
C650 H646 0.929 . S
C650 C652 1.378 . S
C650 C654 1.350 . S
C651 C654 1.463 . S
C651 C656 1.350 . S
C651 N659 1.427 . S
C652 H643 0.930 . S
C652 C650 1.378 . S
C652 C653 1.367 . S
C653 C652 1.367 . S
C653 C655 1.433 . S
C654 C650 1.350 . S
C654 C651 1.463 . S
C654 N658 1.427 . S
C655 H645 0.929 . S
C655 C653 1.433 . S
C655 N658 1.384 . S
C656 H647 0.929 . S
C656 C648 1.378 . S
C656 C651 1.350 . S
C657 H644 0.929 . S
C657 C649 1.433 . S
C657 N659 1.384 . S
N658 C654 1.427 . S
N658 C655 1.384 . S
N659 C651 1.427 . S
N659 C657 1.384 . S
H660 C666 0.930 . S
H661 C670 0.930 . S
H662 C675 0.929 1_545 S
H663 C673 0.929 1_565 S
H664 C668 0.929 . S
H665 C674 0.929 . S
C666 H660 0.930 . S
C666 C667 1.367 . S
C666 C674 1.378 . S
C667 C666 1.367 . S
C667 C675 1.433 . S
C668 H664 0.929 . S
C668 C670 1.378 . S
C668 C672 1.350 . S
C669 C672 1.463 1_565 S
C669 C674 1.350 . S
C669 N677 1.427 1_565 S
C670 H661 0.930 . S
C670 C668 1.378 . S
C670 C671 1.367 . S
C671 C670 1.367 . S
C671 C673 1.433 . S
C672 C668 1.350 . S
C672 C669 1.463 1_545 S
C672 N676 1.427 1_545 S
C673 H663 0.929 1_545 S
C673 C671 1.433 . S
C673 N676 1.384 1_545 S
C674 H665 0.929 . S
C674 C666 1.378 . S
C674 C669 1.350 . S
C675 H662 0.929 1_565 S
C675 C667 1.433 . S
C675 N677 1.384 1_565 S
N676 C672 1.427 1_565 S
N676 C673 1.384 1_565 S
N677 C669 1.427 1_545 S
N677 C675 1.384 1_545 S
H678 C684 0.930 1_455 S
H679 C688 0.930 1_655 S
H680 C693 0.929 . S
H681 C691 0.929 . S
H682 C686 0.929 . S
H683 C692 0.929 . S
C684 H678 0.930 1_655 S
C684 C685 1.367 . S
C684 C692 1.378 1_655 S
C685 C684 1.367 . S
C685 C693 1.433 . S
C686 H682 0.929 . S
C686 C688 1.378 1_655 S
C686 C690 1.350 1_655 S
C687 C690 1.463 1_655 S
C687 C692 1.350 1_655 S
C687 N695 1.427 . S
C688 H679 0.930 1_455 S
C688 C686 1.378 1_455 S
C688 C689 1.367 . S
C689 C688 1.367 . S
C689 C691 1.433 . S
C690 C686 1.350 1_455 S
C690 C687 1.463 1_455 S
C690 N694 1.427 . S
C691 H681 0.929 . S
C691 C689 1.433 . S
C691 N694 1.384 . S
C692 H683 0.929 . S
C692 C684 1.378 1_455 S
C692 C687 1.350 1_455 S
C693 H680 0.929 . S
C693 C685 1.433 . S
C693 N695 1.384 . S
N694 C690 1.427 . S
N694 C691 1.384 . S
N695 C687 1.427 . S
N695 C693 1.384 . S
H696 C702 0.930 . S
H697 C706 0.930 . S
H698 C711 0.929 . S
H699 C709 0.929 . S
H700 C704 0.929 . S
H701 C710 0.929 . S
C702 H696 0.930 . S
C702 C703 1.367 . S
C702 C710 1.378 . S
C703 C702 1.367 . S
C703 C711 1.433 . S
C704 H700 0.929 . S
C704 C706 1.378 . S
C704 C708 1.350 . S
C705 C708 1.463 . S
C705 C710 1.350 . S
C705 N713 1.427 . S
C706 H697 0.930 . S
C706 C704 1.378 . S
C706 C707 1.367 . S
C707 C706 1.367 . S
C707 C709 1.433 . S
C708 C704 1.350 . S
C708 C705 1.463 . S
C708 N712 1.427 . S
C709 H699 0.929 . S
C709 C707 1.433 . S
C709 N712 1.384 . S
C710 H701 0.929 . S
C710 C702 1.378 . S
C710 C705 1.350 . S
C711 H698 0.929 . S
C711 C703 1.433 . S
C711 N713 1.384 . S
N712 C708 1.427 . S
N712 C709 1.384 . S
N713 C705 1.427 . S
N713 C711 1.384 . S
H714 C720 0.930 . S
H715 C724 0.930 . S
H716 C729 0.929 . S
H717 C727 0.929 . S
H718 C722 0.929 . S
H719 C728 0.929 . S
C720 H714 0.930 . S
C720 C721 1.367 . S
C720 C728 1.378 . S
C721 C720 1.367 . S
C721 C729 1.433 . S
C722 H718 0.929 . S
C722 C724 1.378 . S
C722 C726 1.350 . S
C723 C726 1.463 . S
C723 C728 1.350 . S
C723 N731 1.427 . S
C724 H715 0.930 . S
C724 C722 1.378 . S
C724 C725 1.367 . S
C725 C724 1.367 . S
C725 C727 1.433 . S
C726 C722 1.350 . S
C726 C723 1.463 . S
C726 N730 1.427 . S
C727 H717 0.929 . S
C727 C725 1.433 . S
C727 N730 1.384 . S
C728 H719 0.929 . S
C728 C720 1.378 . S
C728 C723 1.350 . S
C729 H716 0.929 . S
C729 C721 1.433 . S
C729 N731 1.384 . S
N730 C726 1.427 . S
N730 C727 1.384 . S
N731 C723 1.427 . S
N731 C729 1.384 . S
H732 C738 0.930 . S
H733 C742 0.930 . S
H734 C747 0.929 . S
H735 C745 0.929 . S
H736 C740 0.929 . S
H737 C746 0.929 . S
C738 H732 0.930 . S
C738 C739 1.367 . S
C738 C746 1.378 . S
C739 C738 1.367 . S
C739 C747 1.433 . S
C740 H736 0.929 . S
C740 C742 1.378 . S
C740 C744 1.350 . S
C741 C744 1.463 . S
C741 C746 1.350 . S
C741 N749 1.427 . S
C742 H733 0.930 . S
C742 C740 1.378 . S
C742 C743 1.367 . S
C743 C742 1.367 . S
C743 C745 1.433 . S
C744 C740 1.350 . S
C744 C741 1.463 . S
C744 N748 1.427 . S
C745 H735 0.929 . S
C745 C743 1.433 . S
C745 N748 1.384 . S
C746 H737 0.929 . S
C746 C738 1.378 . S
C746 C741 1.350 . S
C747 H734 0.929 . S
C747 C739 1.433 . S
C747 N749 1.384 . S
N748 C744 1.427 . S
N748 C745 1.384 . S
N749 C741 1.427 . S
N749 C747 1.384 . S
H750 C756 0.930 . S
H751 C760 0.930 . S
H752 C765 0.929 . S
H753 C763 0.929 . S
H754 C758 0.929 . S
H755 C764 0.929 . S
C756 H750 0.930 . S
C756 C757 1.367 . S
C756 C764 1.378 . S
C757 C756 1.367 . S
C757 C765 1.433 . S
C758 H754 0.929 . S
C758 C760 1.378 . S
C758 C762 1.350 . S
C759 C762 1.463 . S
C759 C764 1.350 . S
C759 N767 1.427 . S
C760 H751 0.930 . S
C760 C758 1.378 . S
C760 C761 1.367 . S
C761 C760 1.367 . S
C761 C763 1.433 . S
C762 C758 1.350 . S
C762 C759 1.463 . S
C762 N766 1.427 . S
C763 H753 0.929 . S
C763 C761 1.433 . S
C763 N766 1.384 . S
C764 H755 0.929 . S
C764 C756 1.378 . S
C764 C759 1.350 . S
C765 H752 0.929 . S
C765 C757 1.433 . S
C765 N767 1.384 . S
N766 C762 1.427 . S
N766 C763 1.384 . S
N767 C759 1.427 . S
N767 C765 1.384 . S
H768 C774 0.930 . S
H769 C778 0.930 . S
H770 C783 0.929 . S
H771 C781 0.929 . S
H772 C776 0.929 . S
H773 C782 0.929 . S
C774 H768 0.930 . S
C774 C775 1.367 . S
C774 C782 1.378 . S
C775 C774 1.367 . S
C775 C783 1.433 . S
C776 H772 0.929 . S
C776 C778 1.378 . S
C776 C780 1.350 . S
C777 C780 1.463 . S
C777 C782 1.350 . S
C777 N785 1.427 . S
C778 H769 0.930 . S
C778 C776 1.378 . S
C778 C779 1.367 . S
C779 C778 1.367 . S
C779 C781 1.433 . S
C780 C776 1.350 . S
C780 C777 1.463 . S
C780 N784 1.427 . S
C781 H771 0.929 . S
C781 C779 1.433 . S
C781 N784 1.384 . S
C782 H773 0.929 . S
C782 C774 1.378 . S
C782 C777 1.350 . S
C783 H770 0.929 . S
C783 C775 1.433 . S
C783 N785 1.384 . S
N784 C780 1.427 . S
N784 C781 1.384 . S
N785 C777 1.427 . S
N785 C783 1.384 . S
H786 C792 0.930 . S
H787 C796 0.930 . S
H788 C801 0.929 . S
H789 C799 0.929 . S
H790 C794 0.929 . S
H791 C800 0.929 . S
C792 H786 0.930 . S
C792 C793 1.367 . S
C792 C800 1.378 . S
C793 C792 1.367 . S
C793 C801 1.433 . S
C794 H790 0.929 . S
C794 C796 1.378 . S
C794 C798 1.350 . S
C795 C798 1.463 . S
C795 C800 1.350 . S
C795 N803 1.427 . S
C796 H787 0.930 . S
C796 C794 1.378 . S
C796 C797 1.367 . S
C797 C796 1.367 . S
C797 C799 1.433 . S
C798 C794 1.350 . S
C798 C795 1.463 . S
C798 N802 1.427 . S
C799 H789 0.929 . S
C799 C797 1.433 . S
C799 N802 1.384 . S
C800 H791 0.929 . S
C800 C792 1.378 . S
C800 C795 1.350 . S
C801 H788 0.929 . S
C801 C793 1.433 . S
C801 N803 1.384 . S
N802 C798 1.427 . S
N802 C799 1.384 . S
N803 C795 1.427 . S
N803 C801 1.384 . S
H804 C810 0.930 . S
H805 C814 0.930 . S
H806 C819 0.929 . S
H807 C817 0.929 . S
H808 C812 0.929 . S
H809 C818 0.929 . S
C810 H804 0.930 . S
C810 C811 1.367 . S
C810 C818 1.378 . S
C811 C810 1.367 . S
C811 C819 1.433 . S
C812 H808 0.929 . S
C812 C814 1.378 . S
C812 C816 1.350 . S
C813 C816 1.463 . S
C813 C818 1.350 . S
C813 N821 1.427 . S
C814 H805 0.930 . S
C814 C812 1.378 . S
C814 C815 1.367 . S
C815 C814 1.367 . S
C815 C817 1.433 . S
C816 C812 1.350 . S
C816 C813 1.463 . S
C816 N820 1.427 . S
C817 H807 0.929 . S
C817 C815 1.433 . S
C817 N820 1.384 . S
C818 H809 0.929 . S
C818 C810 1.378 . S
C818 C813 1.350 . S
C819 H806 0.929 . S
C819 C811 1.433 . S
C819 N821 1.384 . S
N820 C816 1.427 . S
N820 C817 1.384 . S
N821 C813 1.427 . S
N821 C819 1.384 . S
H822 C828 0.930 . S
H823 C832 0.930 . S
H824 C837 0.929 . S
H825 C835 0.929 . S
H826 C830 0.929 . S
H827 C836 0.929 . S
C828 H822 0.930 . S
C828 C829 1.367 . S
C828 C836 1.378 . S
C829 C828 1.367 . S
C829 C837 1.433 . S
C830 H826 0.929 . S
C830 C832 1.378 . S
C830 C834 1.350 . S
C831 C834 1.463 . S
C831 C836 1.350 . S
C831 N839 1.427 . S
C832 H823 0.930 . S
C832 C830 1.378 . S
C832 C833 1.367 . S
C833 C832 1.367 . S
C833 C835 1.433 . S
C834 C830 1.350 . S
C834 C831 1.463 . S
C834 N838 1.427 . S
C835 H825 0.929 . S
C835 C833 1.433 . S
C835 N838 1.384 . S
C836 H827 0.929 . S
C836 C828 1.378 . S
C836 C831 1.350 . S
C837 H824 0.929 . S
C837 C829 1.433 . S
C837 N839 1.384 . S
N838 C834 1.427 . S
N838 C835 1.384 . S
N839 C831 1.427 . S
N839 C837 1.384 . S
H840 C846 0.930 . S
H841 C850 0.930 . S
H842 C855 0.929 . S
H843 C853 0.929 . S
H844 C848 0.929 . S
H845 C854 0.929 . S
C846 H840 0.930 . S
C846 C847 1.367 . S
C846 C854 1.378 . S
C847 C846 1.367 . S
C847 C855 1.433 . S
C848 H844 0.929 . S
C848 C850 1.378 . S
C848 C852 1.350 . S
C849 C852 1.463 . S
C849 C854 1.350 . S
C849 N857 1.427 . S
C850 H841 0.930 . S
C850 C848 1.378 . S
C850 C851 1.367 . S
C851 C850 1.367 . S
C851 C853 1.433 . S
C852 C848 1.350 . S
C852 C849 1.463 . S
C852 N856 1.427 . S
C853 H843 0.929 . S
C853 C851 1.433 . S
C853 N856 1.384 . S
C854 H845 0.929 . S
C854 C846 1.378 . S
C854 C849 1.350 . S
C855 H842 0.929 . S
C855 C847 1.433 . S
C855 N857 1.384 . S
N856 C852 1.427 . S
N856 C853 1.384 . S
N857 C849 1.427 . S
N857 C855 1.384 . S
H858 C864 0.930 . S
H859 C868 0.930 . S
H860 C873 0.929 . S
H861 C871 0.929 . S
H862 C866 0.929 . S
H863 C872 0.929 . S
C864 H858 0.930 . S
C864 C865 1.367 . S
C864 C872 1.378 . S
C865 C864 1.367 . S
C865 C873 1.433 . S
C866 H862 0.929 . S
C866 C868 1.378 . S
C866 C870 1.350 . S
C867 C870 1.463 . S
C867 C872 1.350 . S
C867 N875 1.427 . S
C868 H859 0.930 . S
C868 C866 1.378 . S
C868 C869 1.367 . S
C869 C868 1.367 . S
C869 C871 1.433 . S
C870 C866 1.350 . S
C870 C867 1.463 . S
C870 N874 1.427 . S
C871 H861 0.929 . S
C871 C869 1.433 . S
C871 N874 1.384 . S
C872 H863 0.929 . S
C872 C864 1.378 . S
C872 C867 1.350 . S
C873 H860 0.929 . S
C873 C865 1.433 . S
C873 N875 1.384 . S
N874 C870 1.427 . S
N874 C871 1.384 . S
N875 C867 1.427 . S
N875 C873 1.384 . S
H876 C882 0.930 . S
H877 C886 0.930 . S
H878 C891 0.929 . S
H879 C889 0.929 . S
H880 C884 0.929 . S
H881 C890 0.929 . S
C882 H876 0.930 . S
C882 C883 1.367 . S
C882 C890 1.378 . S
C883 C882 1.367 . S
C883 C891 1.433 . S
C884 H880 0.929 . S
C884 C886 1.378 . S
C884 C888 1.350 . S
C885 C888 1.463 . S
C885 C890 1.350 . S
C885 N893 1.427 . S
C886 H877 0.930 . S
C886 C884 1.378 . S
C886 C887 1.367 . S
C887 C886 1.367 . S
C887 C889 1.433 . S
C888 C884 1.350 . S
C888 C885 1.463 . S
C888 N892 1.427 . S
C889 H879 0.929 . S
C889 C887 1.433 . S
C889 N892 1.384 . S
C890 H881 0.929 . S
C890 C882 1.378 . S
C890 C885 1.350 . S
C891 H878 0.929 . S
C891 C883 1.433 . S
C891 N893 1.384 . S
N892 C888 1.427 . S
N892 C889 1.384 . S
N893 C885 1.427 . S
N893 C891 1.384 . S
H894 C900 0.930 . S
H895 C904 0.930 . S
H896 C909 0.929 . S
H897 C907 0.929 . S
H898 C902 0.929 . S
H899 C908 0.929 . S
C900 H894 0.930 . S
C900 C901 1.367 . S
C900 C908 1.378 . S
C901 C900 1.367 . S
C901 C909 1.433 . S
C902 H898 0.929 . S
C902 C904 1.378 . S
C902 C906 1.350 . S
C903 C906 1.463 . S
C903 C908 1.350 . S
C903 N911 1.427 . S
C904 H895 0.930 . S
C904 C902 1.378 . S
C904 C905 1.367 . S
C905 C904 1.367 . S
C905 C907 1.433 . S
C906 C902 1.350 . S
C906 C903 1.463 . S
C906 N910 1.427 . S
C907 H897 0.929 . S
C907 C905 1.433 . S
C907 N910 1.384 . S
C908 H899 0.929 . S
C908 C900 1.378 . S
C908 C903 1.350 . S
C909 H896 0.929 . S
C909 C901 1.433 . S
C909 N911 1.384 . S
N910 C906 1.427 . S
N910 C907 1.384 . S
N911 C903 1.427 . S
N911 C909 1.384 . S
H912 C918 0.930 . S
H913 C922 0.930 . S
H914 C927 0.929 . S
H915 C925 0.929 . S
H916 C920 0.929 . S
H917 C926 0.929 . S
C918 H912 0.930 . S
C918 C919 1.367 . S
C918 C926 1.378 . S
C919 C918 1.367 . S
C919 C927 1.433 . S
C920 H916 0.929 . S
C920 C922 1.378 . S
C920 C924 1.350 . S
C921 C924 1.463 . S
C921 C926 1.350 . S
C921 N929 1.427 . S
C922 H913 0.930 . S
C922 C920 1.378 . S
C922 C923 1.367 . S
C923 C922 1.367 . S
C923 C925 1.433 . S
C924 C920 1.350 . S
C924 C921 1.463 . S
C924 N928 1.427 . S
C925 H915 0.929 . S
C925 C923 1.433 . S
C925 N928 1.384 . S
C926 H917 0.929 . S
C926 C918 1.378 . S
C926 C921 1.350 . S
C927 H914 0.929 . S
C927 C919 1.433 . S
C927 N929 1.384 . S
N928 C924 1.427 . S
N928 C925 1.384 . S
N929 C921 1.427 . S
N929 C927 1.384 . S
H930 C936 0.930 . S
H931 C940 0.930 . S
H932 C945 0.929 . S
H933 C943 0.929 . S
H934 C938 0.929 1_565 S
H935 C944 0.929 1_545 S
C936 H930 0.930 . S
C936 C937 1.367 . S
C936 C944 1.378 . S
C937 C936 1.367 . S
C937 C945 1.433 . S
C938 H934 0.929 1_545 S
C938 C940 1.378 . S
C938 C942 1.350 . S
C939 C942 1.463 1_565 S
C939 C944 1.350 . S
C939 N947 1.427 . S
C940 H931 0.930 . S
C940 C938 1.378 . S
C940 C941 1.367 . S
C941 C940 1.367 . S
C941 C943 1.433 . S
C942 C938 1.350 . S
C942 C939 1.463 1_545 S
C942 N946 1.427 . S
C943 H933 0.929 . S
C943 C941 1.433 . S
C943 N946 1.384 . S
C944 H935 0.929 1_565 S
C944 C936 1.378 . S
C944 C939 1.350 . S
C945 H932 0.929 . S
C945 C937 1.433 . S
C945 N947 1.384 . S
N946 C942 1.427 . S
N946 C943 1.384 . S
N947 C939 1.427 . S
N947 C945 1.384 . S
H948 C954 0.930 . S
H949 C958 0.930 . S
H950 C963 0.929 . S
H951 C961 0.929 . S
H952 C956 0.929 . S
H953 C962 0.929 . S
C954 H948 0.930 . S
C954 C955 1.367 . S
C954 C962 1.378 . S
C955 C954 1.367 . S
C955 C963 1.433 . S
C956 H952 0.929 . S
C956 C958 1.378 . S
C956 C960 1.350 . S
C957 C960 1.463 1_455 S
C957 C962 1.350 . S
C957 N965 1.427 . S
C958 H949 0.930 . S
C958 C956 1.378 . S
C958 C959 1.367 . S
C959 C958 1.367 . S
C959 C961 1.433 . S
C960 C956 1.350 . S
C960 C957 1.463 1_655 S
C960 N964 1.427 . S
C961 H951 0.929 . S
C961 C959 1.433 . S
C961 N964 1.384 . S
C962 H953 0.929 . S
C962 C954 1.378 . S
C962 C957 1.350 . S
C963 H950 0.929 . S
C963 C955 1.433 . S
C963 N965 1.384 . S
N964 C960 1.427 . S
N964 C961 1.384 . S
N965 C957 1.427 . S
N965 C963 1.384 . S
H966 C972 0.930 . S
H967 C976 0.930 . S
H968 C981 0.929 . S
H969 C979 0.929 . S
H970 C974 0.929 . S
H971 C980 0.929 . S
C972 H966 0.930 . S
C972 C973 1.367 . S
C972 C980 1.378 . S
C973 C972 1.367 . S
C973 C981 1.433 . S
C974 H970 0.929 . S
C974 C976 1.378 . S
C974 C978 1.350 . S
C975 C978 1.463 . S
C975 C980 1.350 . S
C975 N983 1.427 . S
C976 H967 0.930 . S
C976 C974 1.378 . S
C976 C977 1.367 . S
C977 C976 1.367 . S
C977 C979 1.433 . S
C978 C974 1.350 . S
C978 C975 1.463 . S
C978 N982 1.427 . S
C979 H969 0.929 . S
C979 C977 1.433 . S
C979 N982 1.384 . S
C980 H971 0.929 . S
C980 C972 1.378 . S
C980 C975 1.350 . S
C981 H968 0.929 . S
C981 C973 1.433 . S
C981 N983 1.384 . S
N982 C978 1.427 . S
N982 C979 1.384 . S
N983 C975 1.427 . S
N983 C981 1.384 . S
H984 C990 0.930 . S
H985 C994 0.930 . S
H986 C999 0.929 . S
H987 C997 0.929 . S
H988 C992 0.921 1_565 S
H989 C998 0.921 1_545 S
C990 H984 0.930 . S
C990 C991 1.367 . S
C990 C998 1.378 . S
C991 C990 1.367 . S
C991 C999 1.433 . S
C992 H988 0.921 1_545 S
C992 C994 1.378 . S
C992 C996 1.350 . S
C993 C996 1.463 1_565 S
C993 C998 1.350 . S
C993 N1001 1.427 . S
C994 H985 0.930 . S
C994 C992 1.378 . S
C994 C995 1.367 . S
C995 C994 1.367 . S
C995 C997 1.433 . S
C996 C992 1.350 . S
C996 C993 1.463 1_545 S
C996 N1000 1.427 . S
C997 H987 0.929 . S
C997 C995 1.433 . S
C997 N1000 1.384 . S
C998 H989 0.921 1_565 S
C998 C990 1.378 . S
C998 C993 1.350 . S
C999 H986 0.929 . S
C999 C991 1.433 . S
C999 N1001 1.384 . S
N1000 C996 1.427 . S
N1000 C997 1.384 . S
N1001 C993 1.427 . S
N1001 C999 1.384 . S
H1002 C1008 0.930 . S
H1003 C1012 0.930 . S
H1004 C1017 0.929 . S
H1005 C1015 0.929 . S
H1006 C1010 0.929 . S
H1007 C1016 0.929 . S
C1008 H1002 0.930 . S
C1008 C1009 1.367 . S
C1008 C1016 1.378 . S
C1009 C1008 1.367 . S
C1009 C1017 1.433 . S
C1010 H1006 0.929 . S
C1010 C1012 1.378 . S
C1010 C1014 1.350 . S
C1011 C1014 1.463 1_655 S
C1011 C1016 1.350 . S
C1011 N1019 1.427 . S
C1012 H1003 0.930 . S
C1012 C1010 1.378 . S
C1012 C1013 1.367 . S
C1013 C1012 1.367 . S
C1013 C1015 1.433 . S
C1014 C1010 1.350 . S
C1014 C1011 1.463 1_455 S
C1014 N1018 1.427 . S
C1015 H1005 0.929 . S
C1015 C1013 1.433 . S
C1015 N1018 1.384 . S
C1016 H1007 0.929 . S
C1016 C1008 1.378 . S
C1016 C1011 1.350 . S
C1017 H1004 0.929 . S
C1017 C1009 1.433 . S
C1017 N1019 1.384 . S
N1018 C1014 1.427 . S
N1018 C1015 1.384 . S
N1019 C1011 1.427 . S
N1019 C1017 1.384 . S
H1020 C1026 0.930 . S
H1021 C1030 0.930 1_554 S
H1022 C1035 0.929 . S
H1023 C1033 0.929 . S
H1024 C1028 0.929 . S
H1025 C1034 0.929 . S
C1026 H1020 0.930 . S
C1026 C1027 1.367 . S
C1026 C1034 1.378 . S
C1027 C1026 1.367 . S
C1027 C1035 1.433 . S
C1028 H1024 0.929 . S
C1028 C1030 1.378 . S
C1028 C1032 1.350 . S
C1029 C1032 1.463 . S
C1029 C1034 1.350 . S
C1029 N1037 1.427 . S
C1030 H1021 0.930 1_556 S
C1030 C1028 1.378 . S
C1030 C1031 1.367 . S
C1031 C1030 1.367 . S
C1031 C1033 1.433 . S
C1032 C1028 1.350 . S
C1032 C1029 1.463 . S
C1032 N1036 1.427 . S
C1033 H1023 0.929 . S
C1033 C1031 1.433 . S
C1033 N1036 1.384 . S
C1034 H1025 0.929 . S
C1034 C1026 1.378 . S
C1034 C1029 1.350 . S
C1035 H1022 0.929 . S
C1035 C1027 1.433 . S
C1035 N1037 1.384 . S
N1036 C1032 1.427 . S
N1036 C1033 1.384 . S
N1037 C1029 1.427 . S
N1037 C1035 1.384 . S
H1038 C1044 0.930 1_554 S
H1039 C1048 0.930 . S
H1040 C1053 0.929 . S
H1041 C1051 0.929 . S
H1042 C1046 0.929 . S
H1043 C1052 0.929 . S
C1044 H1038 0.930 1_556 S
C1044 C1045 1.367 . S
C1044 C1052 1.378 . S
C1045 C1044 1.367 . S
C1045 C1053 1.433 . S
C1046 H1042 0.929 . S
C1046 C1048 1.378 . S
C1046 C1050 1.350 . S
C1047 C1050 1.463 . S
C1047 C1052 1.350 . S
C1047 N1055 1.427 . S
C1048 H1039 0.930 . S
C1048 C1046 1.378 . S
C1048 C1049 1.367 . S
C1049 C1048 1.367 . S
C1049 C1051 1.433 . S
C1050 C1046 1.350 . S
C1050 C1047 1.463 . S
C1050 N1054 1.427 . S
C1051 H1041 0.929 . S
C1051 C1049 1.433 . S
C1051 N1054 1.384 . S
C1052 H1043 0.929 . S
C1052 C1044 1.378 . S
C1052 C1047 1.350 . S
C1053 H1040 0.929 . S
C1053 C1045 1.433 . S
C1053 N1055 1.384 . S
N1054 C1050 1.427 . S
N1054 C1051 1.384 . S
N1055 C1047 1.427 . S
N1055 C1053 1.384 . S
H1056 C1062 0.930 . S
H1057 C1066 0.930 . S
H1058 C1071 0.929 . S
H1059 C1069 0.929 . S
H1060 C1064 0.929 . S
H1061 C1070 0.929 . S
C1062 H1056 0.930 . S
C1062 C1063 1.367 . S
C1062 C1070 1.378 . S
C1063 C1062 1.367 . S
C1063 C1071 1.433 . S
C1064 H1060 0.929 . S
C1064 C1066 1.378 . S
C1064 C1068 1.350 . S
C1065 C1068 1.463 . S
C1065 C1070 1.350 . S
C1065 N1073 1.427 . S
C1066 H1057 0.930 . S
C1066 C1064 1.378 . S
C1066 C1067 1.367 . S
C1067 C1066 1.367 . S
C1067 C1069 1.433 . S
C1068 C1064 1.350 . S
C1068 C1065 1.463 . S
C1068 N1072 1.427 . S
C1069 H1059 0.929 . S
C1069 C1067 1.433 . S
C1069 N1072 1.384 . S
C1070 H1061 0.929 . S
C1070 C1062 1.378 . S
C1070 C1065 1.350 . S
C1071 H1058 0.929 . S
C1071 C1063 1.433 . S
C1071 N1073 1.384 . S
N1072 C1068 1.427 . S
N1072 C1069 1.384 . S
N1073 C1065 1.427 . S
N1073 C1071 1.384 . S
H1074 C1080 0.930 . S
H1075 C1084 0.930 . S
H1076 C1089 0.929 . S
H1077 C1087 0.929 . S
H1078 C1082 0.929 . S
H1079 C1088 0.929 . S
C1080 H1074 0.930 . S
C1080 C1081 1.367 . S
C1080 C1088 1.378 . S
C1081 C1080 1.367 . S
C1081 C1089 1.433 . S
C1082 H1078 0.929 . S
C1082 C1084 1.378 . S
C1082 C1086 1.350 . S
C1083 C1086 1.463 . S
C1083 C1088 1.350 . S
C1083 N1091 1.427 . S
C1084 H1075 0.930 . S
C1084 C1082 1.378 . S
C1084 C1085 1.367 . S
C1085 C1084 1.367 . S
C1085 C1087 1.433 . S
C1086 C1082 1.350 . S
C1086 C1083 1.463 . S
C1086 N1090 1.427 . S
C1087 H1077 0.929 . S
C1087 C1085 1.433 . S
C1087 N1090 1.384 . S
C1088 H1079 0.929 . S
C1088 C1080 1.378 . S
C1088 C1083 1.350 . S
C1089 H1076 0.929 . S
C1089 C1081 1.433 . S
C1089 N1091 1.384 . S
N1090 C1086 1.427 . S
N1090 C1087 1.384 . S
N1091 C1083 1.427 . S
N1091 C1089 1.384 . S
H1092 C1098 0.930 . S
H1093 C1102 0.930 . S
H1094 C1107 0.929 . S
H1095 C1105 0.929 . S
H1096 C1100 0.929 . S
H1097 C1106 0.929 . S
C1098 H1092 0.930 . S
C1098 C1099 1.367 . S
C1098 C1106 1.378 . S
C1099 C1098 1.367 . S
C1099 C1107 1.433 . S
C1100 H1096 0.929 . S
C1100 C1102 1.378 . S
C1100 C1104 1.350 . S
C1101 C1104 1.463 . S
C1101 C1106 1.350 . S
C1101 N1109 1.427 . S
C1102 H1093 0.930 . S
C1102 C1100 1.378 . S
C1102 C1103 1.367 . S
C1103 C1102 1.367 . S
C1103 C1105 1.433 . S
C1104 C1100 1.350 . S
C1104 C1101 1.463 . S
C1104 N1108 1.427 . S
C1105 H1095 0.929 . S
C1105 C1103 1.433 . S
C1105 N1108 1.384 . S
C1106 H1097 0.929 . S
C1106 C1098 1.378 . S
C1106 C1101 1.350 . S
C1107 H1094 0.929 . S
C1107 C1099 1.433 . S
C1107 N1109 1.384 . S
N1108 C1104 1.427 . S
N1108 C1105 1.384 . S
N1109 C1101 1.427 . S
N1109 C1107 1.384 . S
H1110 C1116 0.930 . S
H1111 C1120 0.930 . S
H1112 C1125 0.929 . S
H1113 C1123 0.929 . S
H1114 C1118 0.929 . S
H1115 C1124 0.929 . S
C1116 H1110 0.930 . S
C1116 C1117 1.367 . S
C1116 C1124 1.378 . S
C1117 C1116 1.367 . S
C1117 C1125 1.433 . S
C1118 H1114 0.929 . S
C1118 C1120 1.378 . S
C1118 C1122 1.350 . S
C1119 C1122 1.463 . S
C1119 C1124 1.350 . S
C1119 N1127 1.427 . S
C1120 H1111 0.930 . S
C1120 C1118 1.378 . S
C1120 C1121 1.367 . S
C1121 C1120 1.367 . S
C1121 C1123 1.433 . S
C1122 C1118 1.350 . S
C1122 C1119 1.463 . S
C1122 N1126 1.427 . S
C1123 H1113 0.929 . S
C1123 C1121 1.433 . S
C1123 N1126 1.384 . S
C1124 H1115 0.929 . S
C1124 C1116 1.378 . S
C1124 C1119 1.350 . S
C1125 H1112 0.929 . S
C1125 C1117 1.433 . S
C1125 N1127 1.384 . S
N1126 C1122 1.427 . S
N1126 C1123 1.384 . S
N1127 C1119 1.427 . S
N1127 C1125 1.384 . S
H1128 C1134 0.930 1_556 S
H1129 C1138 0.930 . S
H1130 C1143 0.929 . S
H1131 C1141 0.929 . S
H1132 C1136 0.929 . S
H1133 C1142 0.929 . S
C1134 H1128 0.930 1_554 S
C1134 C1135 1.367 . S
C1134 C1142 1.378 . S
C1135 C1134 1.367 . S
C1135 C1143 1.433 . S
C1136 H1132 0.929 . S
C1136 C1138 1.378 . S
C1136 C1140 1.350 . S
C1137 C1140 1.463 . S
C1137 C1142 1.350 . S
C1137 N1145 1.427 . S
C1138 H1129 0.930 . S
C1138 C1136 1.378 . S
C1138 C1139 1.367 . S
C1139 C1138 1.367 . S
C1139 C1141 1.433 . S
C1140 C1136 1.350 . S
C1140 C1137 1.463 . S
C1140 N1144 1.427 . S
C1141 H1131 0.929 . S
C1141 C1139 1.433 . S
C1141 N1144 1.384 . S
C1142 H1133 0.929 . S
C1142 C1134 1.378 . S
C1142 C1137 1.350 . S
C1143 H1130 0.929 . S
C1143 C1135 1.433 . S
C1143 N1145 1.384 . S
N1144 C1140 1.427 . S
N1144 C1141 1.384 . S
N1145 C1137 1.427 . S
N1145 C1143 1.384 . S
H1146 C1152 0.930 1_556 S
H1147 C1156 0.930 . S
H1148 C1161 0.929 . S
H1149 C1159 0.929 . S
H1150 C1154 0.929 . S
H1151 C1160 0.929 . S
C1152 H1146 0.930 1_554 S
C1152 C1153 1.367 . S
C1152 C1160 1.378 . S
C1153 C1152 1.367 . S
C1153 C1161 1.433 . S
C1154 H1150 0.929 . S
C1154 C1156 1.378 . S
C1154 C1158 1.350 . S
C1155 C1158 1.463 . S
C1155 C1160 1.350 . S
C1155 N1163 1.427 . S
C1156 H1147 0.930 . S
C1156 C1154 1.378 . S
C1156 C1157 1.367 . S
C1157 C1156 1.367 . S
C1157 C1159 1.433 . S
C1158 C1154 1.350 . S
C1158 C1155 1.463 . S
C1158 N1162 1.427 . S
C1159 H1149 0.929 . S
C1159 C1157 1.433 . S
C1159 N1162 1.384 . S
C1160 H1151 0.929 . S
C1160 C1152 1.378 . S
C1160 C1155 1.350 . S
C1161 H1148 0.929 . S
C1161 C1153 1.433 . S
C1161 N1163 1.384 . S
N1162 C1158 1.427 . S
N1162 C1159 1.384 . S
N1163 C1155 1.427 . S
N1163 C1161 1.384 . S
H1164 C1170 0.930 . S
H1165 C1174 0.930 . S
H1166 C1179 0.929 1_556 S
H1167 C1177 0.929 . S
H1168 C1172 0.929 . S
H1169 C1178 0.929 . S
C1170 H1164 0.930 . S
C1170 C1171 1.367 . S
C1170 C1178 1.378 . S
C1171 C1170 1.367 . S
C1171 C1179 1.433 . S
C1172 H1168 0.929 . S
C1172 C1174 1.378 . S
C1172 C1176 1.350 . S
C1173 C1176 1.463 . S
C1173 C1178 1.350 . S
C1173 N1181 1.427 . S
C1174 H1165 0.930 . S
C1174 C1172 1.378 . S
C1174 C1175 1.367 . S
C1175 C1174 1.367 . S
C1175 C1177 1.433 . S
C1176 C1172 1.350 . S
C1176 C1173 1.463 . S
C1176 N1180 1.427 . S
C1177 H1167 0.929 . S
C1177 C1175 1.433 . S
C1177 N1180 1.384 . S
C1178 H1169 0.929 . S
C1178 C1170 1.378 . S
C1178 C1173 1.350 . S
C1179 H1166 0.929 1_554 S
C1179 C1171 1.433 . S
C1179 N1181 1.384 . S
N1180 C1176 1.427 . S
N1180 C1177 1.384 . S
N1181 C1173 1.427 . S
N1181 C1179 1.384 . S
H1182 C1188 0.930 . S
H1183 C1192 0.930 . S
H1184 C1197 0.929 . S
H1185 C1195 0.929 . S
H1186 C1190 0.929 . S
H1187 C1196 0.929 . S
C1188 H1182 0.930 . S
C1188 C1189 1.367 . S
C1188 C1196 1.378 . S
C1189 C1188 1.367 . S
C1189 C1197 1.433 . S
C1190 H1186 0.929 . S
C1190 C1192 1.378 . S
C1190 C1194 1.350 . S
C1191 C1194 1.463 . S
C1191 C1196 1.350 . S
C1191 N1199 1.427 . S
C1192 H1183 0.930 . S
C1192 C1190 1.378 . S
C1192 C1193 1.367 . S
C1193 C1192 1.367 . S
C1193 C1195 1.433 . S
C1194 C1190 1.350 . S
C1194 C1191 1.463 . S
C1194 N1198 1.427 . S
C1195 H1185 0.929 . S
C1195 C1193 1.433 . S
C1195 N1198 1.384 . S
C1196 H1187 0.929 . S
C1196 C1188 1.378 . S
C1196 C1191 1.350 . S
C1197 H1184 0.929 . S
C1197 C1189 1.433 . S
C1197 N1199 1.384 . S
N1198 C1194 1.427 . S
N1198 C1195 1.384 . S
N1199 C1191 1.427 . S
N1199 C1197 1.384 . S
H1200 C1206 0.930 . S
H1201 C1210 0.930 . S
H1202 C1215 0.929 . S
H1203 C1213 0.929 . S
H1204 C1208 0.929 . S
H1205 C1214 0.929 . S
C1206 H1200 0.930 . S
C1206 C1207 1.367 . S
C1206 C1214 1.378 . S
C1207 C1206 1.367 . S
C1207 C1215 1.433 . S
C1208 H1204 0.929 . S
C1208 C1210 1.378 . S
C1208 C1212 1.350 . S
C1209 C1212 1.463 . S
C1209 C1214 1.350 . S
C1209 N1217 1.427 . S
C1210 H1201 0.930 . S
C1210 C1208 1.378 . S
C1210 C1211 1.367 . S
C1211 C1210 1.367 . S
C1211 C1213 1.433 . S
C1212 C1208 1.350 . S
C1212 C1209 1.463 . S
C1212 N1216 1.427 . S
C1213 H1203 0.929 . S
C1213 C1211 1.433 . S
C1213 N1216 1.384 . S
C1214 H1205 0.929 . S
C1214 C1206 1.378 . S
C1214 C1209 1.350 . S
C1215 H1202 0.929 . S
C1215 C1207 1.433 . S
C1215 N1217 1.384 . S
N1216 C1212 1.427 . S
N1216 C1213 1.384 . S
N1217 C1209 1.427 . S
N1217 C1215 1.384 . S
H1218 C1224 0.930 . S
H1219 C1228 0.930 . S
H1220 C1233 0.929 . S
H1221 C1231 0.929 . S
H1222 C1226 0.929 . S
H1223 C1232 0.929 . S
C1224 H1218 0.930 . S
C1224 C1225 1.367 . S
C1224 C1232 1.378 . S
C1225 C1224 1.367 . S
C1225 C1233 1.433 . S
C1226 H1222 0.929 . S
C1226 C1228 1.378 . S
C1226 C1230 1.350 . S
C1227 C1230 1.463 . S
C1227 C1232 1.350 . S
C1227 N1235 1.427 . S
C1228 H1219 0.930 . S
C1228 C1226 1.378 . S
C1228 C1229 1.367 . S
C1229 C1228 1.367 . S
C1229 C1231 1.433 . S
C1230 C1226 1.350 . S
C1230 C1227 1.463 . S
C1230 N1234 1.427 . S
C1231 H1221 0.929 . S
C1231 C1229 1.433 . S
C1231 N1234 1.384 . S
C1232 H1223 0.929 . S
C1232 C1224 1.378 . S
C1232 C1227 1.350 . S
C1233 H1220 0.929 . S
C1233 C1225 1.433 . S
C1233 N1235 1.384 . S
N1234 C1230 1.427 . S
N1234 C1231 1.384 . S
N1235 C1227 1.427 . S
N1235 C1233 1.384 . S
C379 C29 1.547 . S
C383 C61 1.400 . S
C397 C72 1.393 . S
C401 C60 1.549 . S
C415 C64 1.545 . S
C419 C30 1.380 . S
C433 C165 1.395 . S
C437 C122 1.550 . S
C451 C123 1.378 . S
C455 C126 1.544 . S
C469 C157 1.540 . S
C473 C134 1.378 . S
C487 C215 1.541 . S
C491 C227 1.385 . S
C505 C278 1.401 . S
C509 C219 1.548 . S
C523 C277 1.550 . S
C527 C216 1.395 . S
C541 C281 1.544 . S
C545 C351 1.377 . S
C559 C289 1.400 . S
C563 C312 1.550 . S
C577 C320 1.395 . S
C581 C343 1.544 . S
C595 C188 1.059 . S
C599 C2 1.059 . S
C613 C33 1.045 . S
C617 C246 1.045 . S
C631 C91 1.059 . S
C635 C250 1.059 . S
C649 C95 1.049 . S
C653 C308 1.049 . S
C667 C153 1.049 . S
C671 C339 1.049 . S
C685 C370 1.079 . S
C689 C184 1.079 . S
C703 C1 1.003 . S
C707 C309 0.995 . S
C721 C32 1.019 . S
C725 C340 0.999 . S
C739 C371 0.992 . S
C743 C82 1.019 . S
C757 C196 1.004 . S
C761 C94 1.016 . S
C775 C247 0.989 . S
C779 C144 1.018 . S
C793 C258 1.004 . S
C797 C175 1.016 . S
C811 C103 0.983 . S
C815 C187 1.004 . S
C829 C237 1.006 . S
C833 C154 1.001 . S
C847 C249 1.017 . S
C851 C185 0.987 . S
C865 C10 0.981 . S
C869 C299 1.009 . S
C883 C330 1.005 . S
C887 C41 1.000 . S
C901 C92 0.987 . S
C905 C361 1.002 . S
C919 C112 2.267 . S
C923 C19 2.270 . S
C937 C124 2.274 . S
C941 C50 2.272 . S
C955 C155 2.270 . S
C959 C62 2.267 . S
C973 C205 2.269 . S
C977 C279 2.273 . S
C991 C217 2.270 . S
C995 C310 2.274 . S
C1009 C341 2.269 . S
C1013 C267 2.274 . S
C1027 C311 1.390 . S
C1031 C0 1.569 1_556 S
C1045 C31 1.569 1_556 S
C1049 C342 1.390 . S
C1063 C81 1.570 1_556 S
C1067 C280 1.409 . S
C1081 C93 1.571 . S
C1085 C268 1.404 . S
C1099 C206 1.402 . S
C1103 C143 1.565 . S
C1117 C218 1.410 . S
C1121 C174 1.565 . S
C1135 C186 1.571 1_554 S
C1139 C125 1.392 . S
C1153 C236 1.568 1_554 S
C1157 C156 1.391 . S
C1171 C248 1.568 1_554 S
C1175 C113 1.414 . S
C1189 C63 1.406 . S
C1193 C298 1.571 . S
C1207 C20 1.396 . S
C1211 C329 1.566 . S
C1225 C51 1.411 . S
C1229 C360 1.566 . S
