# Generated by pormake.
# Topology smm, (6)-cn, num edge types: 1
# Building blocks:
#     Node 0, Type 0, BuildingBlock: JUFBIX_clean_sbu_0, # of connection points: 6
#     Node 1, Type 0, BuildingBlock: JUFBIX_clean_sbu_0, # of connection points: 6
#     Node 2, Type 0, BuildingBlock: JUFBIX_clean_sbu_0, # of connection points: 6
#     Node 3, Type 0, BuildingBlock: JUFBIX_clean_sbu_0, # of connection points: 6
#     Node 4, Type 0, BuildingBlock: JUFBIX_clean_sbu_0, # of connection points: 6
#     Node 5, Type 0, BuildingBlock: JUFBIX_clean_sbu_0, # of connection points: 6
#     Node 6, Type 0, BuildingBlock: JUFBIX_clean_sbu_0, # of connection points: 6
#     Node 7, Type 0, BuildingBlock: JUFBIX_clean_sbu_0, # of connection points: 6
#     Node 8, Type 0, BuildingBlock: JUFBIX_clean_sbu_0, # of connection points: 6
#     Edge 9, Type (0, 0), BuildingBlock: KIFKEQ_clean_linker_1, # of connection points: 2
#     Edge 10, Type (0, 0), BuildingBlock: KIFKEQ_clean_linker_1, # of connection points: 2
#     Edge 11, Type (0, 0), BuildingBlock: KIFKEQ_clean_linker_1, # of connection points: 2
#     Edge 12, Type (0, 0), BuildingBlock: KIFKEQ_clean_linker_1, # of connection points: 2
#     Edge 13, Type (0, 0), BuildingBlock: KIFKEQ_clean_linker_1, # of connection points: 2
#     Edge 14, Type (0, 0), BuildingBlock: KIFKEQ_clean_linker_1, # of connection points: 2
#     Edge 15, Type (0, 0), BuildingBlock: KIFKEQ_clean_linker_1, # of connection points: 2
#     Edge 16, Type (0, 0), BuildingBlock: KIFKEQ_clean_linker_1, # of connection points: 2
#     Edge 17, Type (0, 0), BuildingBlock: KIFKEQ_clean_linker_1, # of connection points: 2
#     Edge 18, Type (0, 0), BuildingBlock: KIFKEQ_clean_linker_1, # of connection points: 2
#     Edge 19, Type (0, 0), BuildingBlock: KIFKEQ_clean_linker_1, # of connection points: 2
#     Edge 20, Type (0, 0), BuildingBlock: KIFKEQ_clean_linker_1, # of connection points: 2
#     Edge 21, Type (0, 0), BuildingBlock: KIFKEQ_clean_linker_1, # of connection points: 2
#     Edge 22, Type (0, 0), BuildingBlock: KIFKEQ_clean_linker_1, # of connection points: 2
#     Edge 23, Type (0, 0), BuildingBlock: KIFKEQ_clean_linker_1, # of connection points: 2
#     Edge 24, Type (0, 0), BuildingBlock: KIFKEQ_clean_linker_1, # of connection points: 2
#     Edge 25, Type (0, 0), BuildingBlock: KIFKEQ_clean_linker_1, # of connection points: 2
#     Edge 26, Type (0, 0), BuildingBlock: KIFKEQ_clean_linker_1, # of connection points: 2
#     Edge 27, Type (0, 0), BuildingBlock: KIFKEQ_clean_linker_1, # of connection points: 2
#     Edge 28, Type (0, 0), BuildingBlock: KIFKEQ_clean_linker_1, # of connection points: 2
#     Edge 29, Type (0, 0), BuildingBlock: KIFKEQ_clean_linker_1, # of connection points: 2
#     Edge 30, Type (0, 0), BuildingBlock: KIFKEQ_clean_linker_1, # of connection points: 2
#     Edge 31, Type (0, 0), BuildingBlock: KIFKEQ_clean_linker_1, # of connection points: 2
#     Edge 32, Type (0, 0), BuildingBlock: KIFKEQ_clean_linker_1, # of connection points: 2
#     Edge 33, Type (0, 0), BuildingBlock: KIFKEQ_clean_linker_1, # of connection points: 2
#     Edge 34, Type (0, 0), BuildingBlock: KIFKEQ_clean_linker_1, # of connection points: 2
#     Edge 35, Type (0, 0), BuildingBlock: KIFKEQ_clean_linker_1, # of connection points: 2
# Relax obj value: 0.251
# Max RMSD: 0.205
# Mean RMSD: 0.205
data_MOF--net-smm--node1-JUFBIX_clean_sbu_0--edge1-KIFKEQ_clean_linker_1
_symmetry_space_group_name_H-M    P1
_symmetry_Int_Tables_number       1
_symmetry_cell_setting            triclinic
loop_
_symmetry_equiv_pos_as_xyz
'x, y, z'
_cell_length_a     58.660021
_cell_length_b     58.708147
_cell_length_c     15.130599
_cell_angle_alpha  89.975684
_cell_angle_beta   89.940837
_cell_angle_gamma 119.96351
loop_
_atom_site_label
_atom_site_type_symbol
_atom_site_fract_x
_atom_site_fract_y
_atom_site_fract_z
_atom_type_partial_charge
Co0 Co 1.00091 0.16861 0.00059 0.0
C1 C 0.02186 0.18901 0.1664 0.0
Co2 Co 0.03553 0.2087 -0.00186 0.0
C3 C 0.96673 0.11222 0.97483 0.0
C4 C 0.95052 0.12912 0.06218 0.0
N5 N 0.97135 0.13538 0.0094 0.0
N6 N 0.94384 0.09172 0.00446 0.0
C7 C 0.93366 0.10249 0.05927 0.0
H8 H 0.98026 0.11045 0.93059 0.0
H9 H 0.94827 0.14291 0.10346 0.0
C10 C 0.01439 0.1882 0.83247 0.0
N11 N 0.06492 0.24195 -0.00984 0.0
C12 C 0.06736 0.26257 0.94285 0.0
C13 C 0.08916 0.25005 0.02287 0.0
N14 N 0.0922 0.28306 0.94377 0.0
C15 C 0.10602 0.27528 -0.006 0.0
C16 C 0.04768 0.16845 -0.015 0.0
O17 O 0.9982 0.16787 0.87563 0.0
O18 O 0.0317 0.20822 0.87383 0.0
O19 O 0.05723 0.19324 -0.01506 0.0
O20 O 0.02296 0.15353 -0.00713 0.0
O21 O 0.03905 0.20883 0.12346 0.0
H22 H 0.0944 0.23811 0.06308 0.0
H23 H 0.05145 0.26217 0.90534 0.0
O24 O 1.00389 0.16961 0.12465 0.0
O25 O 0.97918 0.18414 0.00943 0.0
O26 O 0.0136 0.22379 0.01168 0.0
C27 C 0.98881 0.20885 0.01628 0.0
H28 H 0.91594 0.09184 0.09834 0.0
H29 H 0.12684 0.28693 0.00822 0.0
Co30 Co 0.8721 0.84963 0.0059 0.0
C31 C 0.85155 0.8502 0.17182 0.0
Co32 Co 0.83186 0.84391 0.0038 0.0
C33 C 0.92846 0.87175 -0.02176 0.0
C34 C 0.91186 0.83923 0.06804 0.0
N35 N 0.90541 0.85345 0.01437 0.0
N36 N 0.94907 0.86954 0.0077 0.0
C37 C 0.9385 0.84897 0.06405 0.0
H38 H 0.93007 0.88674 0.93291 0.0
H39 H 0.89821 0.82345 0.11049 0.0
C40 C 0.85235 0.84352 0.83787 0.0
N41 N 0.79854 0.83995 -0.0038 0.0
C42 C 0.77805 0.82195 0.94811 0.0
C43 C 0.79023 0.8558 0.03009 0.0
N44 N 0.75745 0.82614 0.9497 0.0
C45 C 0.765 0.84744 0.00115 0.0
C46 C 0.87198 0.89635 -0.00958 0.0
O47 O 0.87243 0.84669 0.88053 0.0
O48 O 0.8327 0.84157 0.87985 0.0
O49 O 0.84719 0.8811 -0.00661 0.0
O50 O 0.88703 0.88663 -0.00474 0.0
O51 O 0.83132 0.84632 0.12874 0.0
H52 H 0.80201 0.87277 0.07119 0.0
H53 H 0.77864 0.80671 0.90962 0.0
O54 O 0.87147 0.85262 0.13038 0.0
O55 O 0.8567 0.81251 0.01766 0.0
O56 O 0.81687 0.80687 0.01451 0.0
C57 C 0.83196 0.79725 0.0218 0.0
H58 H 0.94932 0.84215 0.10334 0.0
H59 H 0.7532 0.8564 0.0162 0.0
Co60 Co 0.1913 0.03937 -0.00199 0.0
C61 C 0.19112 0.0188 0.16408 0.0
Co62 Co 0.19696 1.00484 -0.00412 0.0
C63 C 0.1687 0.07328 0.9716 0.0
C64 C 0.202 0.0898 0.05796 0.0
N65 N 0.18739 0.06882 0.00605 0.0
N66 N 0.17106 0.0962 0.00041 0.0
C67 C 0.19211 0.10657 0.05461 0.0
H68 H 0.15335 0.05962 0.92798 0.0
H69 H 0.21816 0.09222 0.09892 0.0
C70 C 0.19722 0.02563 0.82997 0.0
N71 N 0.20105 0.97558 -0.01092 0.0
C72 C 0.21834 0.97256 0.9385 0.0
C73 C 0.18651 0.95222 0.02957 0.0
N74 N 0.21515 0.94816 0.94523 0.0
C75 C 0.19508 0.93535 0.00283 0.0
C76 C 0.14452 0.99245 -0.0159 0.0
O77 O 0.19313 0.04187 0.87299 0.0
O78 O 0.19999 0.00836 0.87146 0.0
O79 O 0.15983 0.98296 -0.01589 0.0
O80 O 0.15422 0.01716 -0.00892 0.0
O81 O 0.19388 1.00168 0.12131 0.0
H82 H 0.17037 0.9476 0.0743 0.0
H83 H 0.23293 0.98808 0.89735 0.0
O84 O 0.18947 0.03664 0.12217 0.0
O85 O 0.22853 0.06122 0.00606 0.0
O86 O 0.23398 0.02692 0.00801 0.0
C87 C 0.24371 0.05167 0.01237 0.0
H88 H 0.1992 0.12439 0.09293 0.0
H89 H 0.18664 0.91502 0.02278 0.0
Co90 Co 0.66683 0.50132 0.33109 0.0
C91 C 0.68701 0.52115 0.497 0.0
Co92 Co 0.70142 0.54157 0.32894 0.0
C93 C 0.63508 0.44457 0.30937 0.0
C94 C 0.61339 0.46098 0.36867 0.0
N95 N 0.63731 0.46765 0.33532 0.0
N96 N 0.61081 0.424 0.32478 0.0
C97 C 0.59707 0.43426 0.36169 0.0
H98 H 0.65092 0.44275 0.27997 0.0
H99 H 0.60816 0.47448 0.39831 0.0
C100 C 0.68133 0.52172 0.16297 0.0
N101 N 0.73068 0.57495 0.32398 0.0
C102 C 0.73326 0.59572 0.2773 0.0
C103 C 0.75467 0.58313 0.35911 0.0
N104 N 0.75795 0.6164 0.28099 0.0
C105 C 0.77153 0.60858 0.3323 0.0
C106 C 0.71408 0.50176 0.31695 0.0
O107 O 0.66445 0.50166 0.20571 0.0
O108 O 0.69895 0.54138 0.20482 0.0
O109 O 0.72352 0.52651 0.31915 0.0
O110 O 0.68933 0.48674 0.32172 0.0
O111 O 0.70354 0.54133 0.45393 0.0
H112 H 0.75973 0.57113 0.39969 0.0
H113 H 0.71759 0.59534 0.23838 0.0
O114 O 0.66948 0.50126 0.45561 0.0
O115 O 0.64496 0.5167 0.34181 0.0
O116 O 0.6792 0.55643 0.33909 0.0
C117 C 0.65448 0.54145 0.34595 0.0
H118 H 0.57695 0.4231 0.38496 0.0
H119 H 0.79219 0.62038 0.34874 0.0
Co120 Co 0.53864 0.18164 0.32746 0.0
C121 C 0.5181 0.1816 0.49436 0.0
Co122 Co 0.49856 0.17635 0.32706 0.0
C123 C 0.59513 0.20422 0.30204 0.0
C124 C 0.5782 0.1705 0.38672 0.0
N125 N 0.57193 0.18536 0.33554 0.0
N126 N 0.61568 0.20179 0.33088 0.0
C127 C 0.60489 0.18046 0.38397 0.0
H128 H 0.5969 0.21977 0.25918 0.0
H129 H 0.56437 0.15413 0.42684 0.0
C130 C 0.51918 0.17633 0.16025 0.0
N131 N 0.46527 0.17246 0.31979 0.0
C132 C 0.44468 0.15432 0.27242 0.0
C133 C 0.45702 0.18838 0.35348 0.0
N134 N 0.42406 0.15849 0.27428 0.0
C135 C 0.43172 0.17992 0.32512 0.0
C136 C 0.53874 0.22865 0.31627 0.0
O137 O 0.53941 0.17995 0.20281 0.0
O138 O 0.49929 0.17386 0.20221 0.0
O139 O 0.51394 0.21347 0.31759 0.0
O140 O 0.55369 0.2188 0.32037 0.0
O141 O 0.49817 0.17888 0.45207 0.0
H142 H 0.46887 0.20543 0.39416 0.0
H143 H 0.44517 0.13896 0.23433 0.0
O144 O 0.53761 0.18334 0.45201 0.0
O145 O 0.52309 0.14436 0.33509 0.0
O146 O 0.48351 0.13935 0.33767 0.0
C147 C 0.49833 0.12935 0.34128 0.0
H148 H 0.61555 0.17322 0.42205 0.0
H149 H 0.41991 0.18888 0.34023 0.0
Co150 Co 0.85795 0.37303 0.33545 0.0
C151 C 0.85723 0.35188 0.50149 0.0
Co152 Co 0.8635 0.33842 0.33354 0.0
C153 C 0.8356 0.40712 0.30898 0.0
C154 C 0.86858 0.42333 0.39671 0.0
N155 N 0.85413 0.40253 0.34392 0.0
N156 N 0.83785 0.42995 0.3384 0.0
C157 C 0.85871 0.44013 0.39344 0.0
H158 H 0.82041 0.39362 0.26459 0.0
H159 H 0.88459 0.42561 0.43816 0.0
C160 C 0.86405 0.35935 0.16751 0.0
N161 N 0.86747 0.30908 0.32596 0.0
C162 C 0.8858 0.30675 0.27902 0.0
C163 C 0.85141 0.28484 0.35884 0.0
N164 N 0.88162 0.28198 0.28038 0.0
C165 C 0.85997 0.26809 0.33044 0.0
C166 C 0.8111 0.3262 0.32014 0.0
O167 O 0.86077 0.37619 0.21011 0.0
O168 O 0.86608 0.34171 0.20953 0.0
O169 O 0.82636 0.31667 0.32264 0.0
O170 O 0.82084 0.35095 0.32549 0.0
O171 O 0.86086 0.33537 0.45838 0.0
H172 H 0.83419 0.27954 0.39893 0.0
H173 H 0.90131 0.32268 0.24153 0.0
O174 O 0.85508 0.36952 0.46006 0.0
O175 O 0.8952 0.39474 0.34635 0.0
O176 O 0.9005 0.36037 0.34485 0.0
C177 C 0.91033 0.3851 0.35123 0.0
H178 H 0.86567 0.45782 0.43237 0.0
H179 H 0.85093 0.24729 0.34493 0.0
Co180 Co 0.33275 0.83443 0.65621 0.0
C181 C 0.35333 0.85458 0.82232 0.0
Co182 Co 0.36746 0.87444 0.65425 0.0
C183 C 0.29893 0.77797 0.63089 0.0
C184 C 0.28194 0.79488 0.71473 0.0
N185 N 0.30318 0.80115 0.66403 0.0
N186 N 0.27591 0.75744 0.65946 0.0
C187 C 0.26523 0.76821 0.71203 0.0
H188 H 0.31283 0.7762 0.58849 0.0
H189 H 0.27929 0.80869 0.75456 0.0
C190 C 0.34666 0.85416 0.48827 0.0
N191 N 0.39685 0.90768 0.64778 0.0
C192 C 0.39997 0.92817 0.59813 0.0
C193 C 0.4202 0.91626 0.688 0.0
N194 N 0.42443 0.94926 0.60524 0.0
C195 C 0.43717 0.94174 0.66205 0.0
C196 C 0.37967 0.83434 0.6418 0.0
O197 O 0.33043 0.83382 0.53128 0.0
O198 O 0.36393 0.87418 0.52979 0.0
O199 O 0.3892 0.85912 0.64149 0.0
O200 O 0.35494 0.8194 0.64947 0.0
O201 O 0.37065 0.87432 0.77951 0.0
H202 H 0.42473 0.90455 0.73209 0.0
H203 H 0.38448 0.92747 0.55746 0.0
O204 O 0.3353 0.83526 0.78045 0.0
O205 O 0.31098 0.85002 0.66392 0.0
O206 O 0.34557 0.88952 0.6675 0.0
C207 C 0.32075 0.87474 0.67121 0.0
H208 H 0.24725 0.75756 0.7498 0.0
H209 H 0.45751 0.95349 0.68205 0.0
Co210 Co 0.20598 0.51546 0.66263 0.0
C211 C 0.18626 0.51555 0.82884 0.0
Co212 Co 0.16568 0.50967 0.66089 0.0
C213 C 0.26279 0.54051 0.63993 0.0
C214 C 0.24641 0.5026 0.70048 0.0
N215 N 0.2397 0.51971 0.66637 0.0
N216 N 0.2834 0.53688 0.65576 0.0
C217 C 0.27315 0.51301 0.69347 0.0
H218 H 0.26456 0.55808 0.61011 0.0
H219 H 0.23291 0.484 0.73088 0.0
C220 C 0.18561 0.50953 0.49474 0.0
N221 N 0.13221 0.50539 0.65694 0.0
C222 C 0.11167 0.48801 0.60763 0.0
C223 C 0.12343 0.51975 0.69897 0.0
N224 N 0.09036 0.49098 0.61664 0.0
C225 C 0.09778 0.51098 0.6744 0.0
C226 C 0.20529 0.56212 0.64883 0.0
O227 O 0.206 0.51376 0.53759 0.0
O228 O 0.16549 0.50654 0.53641 0.0
O229 O 0.18053 0.54669 0.64865 0.0
O230 O 0.22042 0.55255 0.65614 0.0
O231 O 0.16636 0.51287 0.78628 0.0
H232 H 0.13511 0.53588 0.74334 0.0
H233 H 0.11251 0.47351 0.56579 0.0
O234 O 0.20575 0.51713 0.78682 0.0
O235 O 0.19074 0.47818 0.67038 0.0
O236 O 0.15098 0.47273 0.67345 0.0
C237 C 0.16603 0.463 0.67732 0.0
H238 H 0.28433 0.50416 0.71744 0.0
H239 H 0.08584 0.51923 0.69594 0.0
Co240 Co 0.52539 0.70765 0.66568 0.0
C241 C 0.5253 0.687 0.83223 0.0
Co242 Co 0.53144 0.67336 0.66474 0.0
C243 C 0.50255 0.7412 0.63757 0.0
C244 C 0.53517 0.75771 0.72681 0.0
N245 N 0.52114 0.73689 0.67364 0.0
N246 N 0.50438 0.76388 0.6666 0.0
C247 C 0.52501 0.77425 0.72259 0.0
H248 H 0.48763 0.72762 0.59258 0.0
H249 H 0.55109 0.76016 0.76913 0.0
C250 C 0.5314 0.69383 0.49818 0.0
N251 N 0.53569 0.64416 0.65761 0.0
C252 C 0.55355 0.64157 0.60875 0.0
C253 C 0.52014 0.62017 0.69316 0.0
N254 N 0.54954 0.61686 0.61147 0.0
C255 C 0.52852 0.6033 0.66445 0.0
C256 C 0.47881 0.66057 0.65283 0.0
O257 O 0.52859 0.71097 0.54069 0.0
O258 O 0.53307 0.67601 0.54032 0.0
O259 O 0.4942 0.65121 0.65778 0.0
O260 O 0.48844 0.68534 0.65411 0.0
O261 O 0.52975 0.67098 0.78952 0.0
H262 H 0.50336 0.61511 0.73534 0.0
H263 H 0.56856 0.65724 0.56902 0.0
O264 O 0.52217 0.704 0.79038 0.0
O265 O 0.56249 0.72962 0.67804 0.0
O266 O 0.56854 0.69571 0.67271 0.0
C267 C 0.57796 0.72034 0.68088 0.0
H268 H 0.53159 0.7919 0.76148 0.0
H269 H 0.51976 0.58265 0.68076 0.0
H270 H 0.06799 0.31149 0.92211 0.0
H271 H 0.1388 0.30982 0.85942 0.0
H272 H 0.0856 0.354 0.84869 0.0
H273 H 0.15606 0.35152 0.78134 0.0
H274 H 0.19247 0.43998 0.74624 0.0
H275 H 0.17419 0.3959 0.80509 0.0
H276 H 0.0967 0.37791 0.71821 0.0
H277 H 0.11505 0.42284 0.66398 0.0
C278 C 0.0872 0.32013 0.89125 0.0
C279 C 0.10217 0.30758 0.89711 0.0
C280 C 0.09729 0.34442 0.84845 0.0
C281 C 0.12241 0.35649 0.80883 0.0
C282 C 0.13697 0.34335 0.81271 0.0
C283 C 0.12709 0.31936 0.85715 0.0
C284 C 0.17158 0.42653 0.73858 0.0
C285 C 0.15521 0.43496 0.7006 0.0
C286 C 0.16102 0.40106 0.77214 0.0
C287 C 0.13381 0.38309 0.76717 0.0
C288 C 0.11762 0.39125 0.72537 0.0
C289 C 0.12816 0.41695 0.69328 0.0
H290 H 0.72944 0.77366 0.92489 0.0
H291 H 0.73046 0.84606 0.86751 0.0
H292 H 0.68708 0.74889 0.85062 0.0
H293 H 0.6889 0.82176 0.78869 0.0
H294 H 0.60045 0.76924 0.75329 0.0
H295 H 0.64448 0.79502 0.81251 0.0
H296 H 0.66342 0.73674 0.71941 0.0
H297 H 0.61856 0.71015 0.66468 0.0
C298 C 0.72069 0.78425 0.89502 0.0
C299 C 0.733 0.81169 0.90261 0.0
C300 C 0.69649 0.77012 0.85175 0.0
C301 C 0.68428 0.7832 0.81343 0.0
C302 C 0.69719 0.81083 0.81902 0.0
C303 C 0.72109 0.82485 0.86391 0.0
C304 C 0.6141 0.76207 0.74439 0.0
C305 C 0.60597 0.7376 0.7045 0.0
C306 C 0.63954 0.77697 0.77813 0.0
C307 C 0.65775 0.76806 0.77149 0.0
C308 C 0.64988 0.74405 0.72782 0.0
C309 C 0.62422 0.72889 0.69546 0.0
H310 H 0.21886 0.90525 -0.01 0.0
H311 H 0.24454 0.96719 0.79506 0.0
H312 H 0.24287 0.88754 0.9126 0.0
H313 H 0.26903 0.94962 0.71884 0.0
H314 H 0.33481 0.92661 0.68704 0.0
H315 H 0.30828 0.94444 0.74696 0.0
H316 H 0.2418 0.86584 0.77015 0.0
H317 H 0.26825 0.84795 0.71074 0.0
C318 C 0.22937 0.91503 0.93035 0.0
C319 C 0.2296 0.93774 0.89921 0.0
C320 C 0.24317 0.90481 0.88587 0.0
C321 C 0.25775 0.9171 0.80934 0.0
C322 C 0.25814 0.93983 0.77807 0.0
C323 C 0.24414 0.94996 0.82219 0.0
C324 C 0.31441 0.91315 0.70358 0.0
C325 C 0.30371 0.88584 0.69458 0.0
C326 C 0.2992 0.92339 0.73773 0.0
C327 C 0.27304 0.90652 0.76422 0.0
C328 C 0.26203 0.87931 0.75163 0.0
C329 C 0.27715 0.86908 0.71689 0.0
H330 H 0.39587 0.10589 0.25308 0.0
H331 H 0.39693 0.17804 0.19095 0.0
H332 H 0.35323 0.08077 0.18083 0.0
H333 H 0.3551 0.15338 0.11388 0.0
H334 H 0.2666 0.10103 0.08119 0.0
H335 H 0.31079 0.12699 0.13896 0.0
H336 H 0.32904 0.06775 0.05118 0.0
H337 H 0.28401 0.04099 -0.00183 0.0
C338 C 0.38706 0.11633 0.22257 0.0
C339 C 0.39947 0.14382 0.22825 0.0
C340 C 0.36269 0.10201 0.18043 0.0
C341 C 0.35042 0.11491 0.14129 0.0
C342 C 0.36343 0.14258 0.14494 0.0
C343 C 0.38749 0.15681 0.18877 0.0
C344 C 0.28014 0.09368 0.07318 0.0
C345 C 0.27177 0.06891 0.0353 0.0
C346 C 0.30566 0.10868 0.10608 0.0
C347 C 0.32374 0.09957 0.10045 0.0
C348 C 0.31562 0.07523 0.05881 0.0
C349 C 0.28986 0.05997 0.02743 0.0
H350 H 0.93433 0.3063 0.26062 0.0
H351 H 0.86223 0.23559 0.1956 0.0
H352 H 0.95962 0.28893 0.18821 0.0
H353 H 0.88707 0.21859 0.11841 0.0
H354 H 0.9393 0.18235 0.08455 0.0
H355 H 0.91332 0.2005 0.14317 0.0
H356 H 0.97299 0.27814 0.05828 0.0
H357 H 0.99976 0.25992 0.00437 0.0
C358 C 0.92394 0.28716 0.22946 0.0
C359 C 0.89641 0.27215 0.23435 0.0
C360 C 0.93836 0.27721 0.18724 0.0
C361 C 0.92553 0.2522 0.14723 0.0
C362 C 0.89782 0.2376 0.15013 0.0
C363 C 0.88349 0.24733 0.19404 0.0
C364 C 0.94675 0.20326 0.07738 0.0
C365 C 0.97163 0.2197 0.03998 0.0
C366 C 0.93173 0.21374 0.11076 0.0
C367 C 0.94094 0.24093 0.10613 0.0
C368 C 0.96542 0.25722 0.06511 0.0
C369 C 0.98069 0.24676 0.03321 0.0
H370 H 0.78113 0.75688 0.0054 0.0
H371 H 0.8582 0.77451 0.09389 0.0
H372 H 0.76281 0.71182 0.05832 0.0
H373 H 0.83989 0.73028 0.15145 0.0
H374 H 0.8051 0.64405 0.20077 0.0
H375 H 0.82245 0.68612 0.12496 0.0
H376 H 0.75105 0.6873 0.18773 0.0
H377 H 0.73338 0.64445 0.25878 0.0
C378 C 0.79416 0.75108 0.03587 0.0
C379 C 0.82111 0.76923 0.04524 0.0
C380 C 0.78363 0.7253 0.06718 0.0
C381 C 0.79973 0.71722 0.11015 0.0
C382 C 0.82683 0.73538 0.11747 0.0
C383 C 0.83739 0.76093 0.08471 0.0
C384 C 0.79321 0.6534 0.19798 0.0
C385 C 0.76801 0.64116 0.23591 0.0
C386 C 0.80314 0.67758 0.15487 0.0
C387 C 0.78833 0.69046 0.15041 0.0
C388 C 0.76294 0.67794 0.18803 0.0
C389 C 0.75282 0.65346 0.22946 0.0
H390 H 0.04376 0.48654 0.66649 0.0
H391 H 0.07946 0.46198 0.46568 0.0
H392 H 1.00162 0.46232 0.59196 0.0
H393 H 0.037 0.4373 0.39231 0.0
H394 H 0.94844 0.37127 0.36332 0.0
H395 H 0.99294 0.39775 0.4218 0.0
H396 H 0.98018 0.46368 0.45183 0.0
H397 H 0.93571 0.43728 0.39392 0.0
C398 C 0.0428 0.47622 0.60617 0.0
C399 C 0.06524 0.47637 0.57247 0.0
C400 C 0.01855 0.4623 0.56336 0.0
C401 C 0.016 0.448 0.48599 0.0
C402 C 0.03831 0.44797 0.45225 0.0
C403 C 0.06266 0.46208 0.49471 0.0
C404 C 0.95526 0.39154 0.38113 0.0
C405 C 0.93845 0.4021 0.37439 0.0
C406 C 0.98078 0.40672 0.41445 0.0
C407 C 0.98995 0.43271 0.44232 0.0
C408 C 0.97351 0.44358 0.43219 0.0
C409 C 0.9481 0.42849 0.39832 0.0
H410 H 0.60201 0.64119 0.58496 0.0
H411 H 0.5294 0.56977 0.53097 0.0
H412 H 0.62664 0.6232 0.51168 0.0
H413 H 0.55352 0.55211 0.45296 0.0
H414 H 0.60556 0.51562 0.41925 0.0
H415 H 0.58005 0.53433 0.47749 0.0
H416 H 0.63879 0.61103 0.382 0.0
H417 H 0.66512 0.59229 0.32832 0.0
C418 C 0.59135 0.62176 0.55598 0.0
C419 C 0.5639 0.60673 0.56433 0.0
C420 C 0.60539 0.61145 0.51328 0.0
C421 C 0.59221 0.58602 0.47625 0.0
C422 C 0.56455 0.57143 0.48238 0.0
C423 C 0.55063 0.58155 0.52676 0.0
C424 C 0.61288 0.53641 0.40958 0.0
C425 C 0.6374 0.55246 0.36927 0.0
C426 C 0.59814 0.54722 0.44278 0.0
C427 C 0.60725 0.57434 0.43513 0.0
C428 C 0.63132 0.5902 0.39118 0.0
C429 C 0.64633 0.57942 0.35941 0.0
H430 H 0.52509 0.10351 0.37888 0.0
H431 H 0.44639 0.09147 0.3552 0.0
H432 H 0.50708 0.0589 0.43552 0.0
H433 H 0.42844 0.04684 0.41244 0.0
H434 H 0.40569 0.96024 0.45584 0.0
H435 H 0.4234 1.00262 0.38178 0.0
H436 H 0.48506 0.03764 0.57694 0.0
H437 H 0.46722 0.9956 0.65215 0.0
C438 C 0.50393 0.09124 0.38447 0.0
C439 C 0.48719 0.10114 0.36302 0.0
C440 C 0.49364 0.06574 0.4176 0.0
C441 C 0.46637 0.04947 0.42944 0.0
C442 C 0.44953 0.05887 0.40375 0.0
C443 C 0.45983 0.08447 0.37116 0.0
C444 C 0.42286 0.97695 0.4837 0.0
C445 C 0.43494 0.9743 0.56045 0.0
C446 C 0.43307 1.00125 0.44084 0.0
C447 C 0.45571 0.02343 0.47315 0.0
C448 C 0.46785 0.0208 0.54942 0.0
C449 C 0.45757 0.99661 0.59263 0.0
H450 H 0.18209 0.14659 0.0216 0.0
H451 H 0.12007 0.06946 0.94392 0.0
H452 H 0.15186 0.16316 0.01226 0.0
H453 H 0.0901 0.08659 0.92838 0.0
H454 H 0.03624 0.11817 0.02131 0.0
H455 H 0.06599 0.1005 0.0159 0.0
H456 H 0.12814 0.17536 0.91964 0.0
H457 H 0.09874 0.19327 0.92947 0.0
C458 C 0.16205 0.13313 0.00182 0.0
C459 C 0.15358 0.10651 -0.01508 0.0
C460 C 0.1447 0.1428 -0.00496 0.0
C461 C 0.11838 0.12627 0.96972 0.0
C462 C 0.11008 0.09984 0.94955 0.0
C463 C 0.12744 0.09006 0.9573 0.0
C464 C 0.05626 0.1308 -0.00117 0.0
C465 C 0.06523 0.1572 0.97679 0.0
C466 C 0.0733 0.12061 -0.00501 0.0
C467 C 0.09963 0.13649 0.96783 0.0
C468 C 0.10824 0.16266 0.9429 0.0
C469 C 0.09133 0.17294 0.94805 0.0
H470 H 0.92245 0.93529 0.02307 0.0
H471 H 0.84659 0.92233 0.93843 0.0
H472 H 0.93995 0.98264 0.01748 0.0
H473 H 0.8643 0.96957 0.92831 0.0
H474 H 0.89357 0.05237 0.02919 0.0
H475 H 0.87704 1.00562 0.02032 0.0
H476 H 0.95318 0.02042 0.92988 0.0
H477 H 0.97033 0.06747 0.94503 0.0
C478 C 0.90961 0.94259 0.00211 0.0
C479 C 0.88307 0.92509 -0.01785 0.0
C480 C 0.91969 0.96978 -0.00184 0.0
C481 C 0.90356 0.98011 0.97291 0.0
C482 C 0.87721 0.96246 0.95008 0.0
C483 C 0.86705 0.93532 0.9554 0.0
C484 C 0.90695 0.04581 0.00809 0.0
C485 C 0.93347 0.06394 -0.01074 0.0
C486 C 0.89729 0.01881 0.00158 0.0
C487 C 0.91372 0.00903 0.97456 0.0
C488 C 0.94002 0.02715 0.95243 0.0
C489 C 0.9498 0.05425 0.95995 0.0
H490 H 0.97317 0.92003 0.94662 0.0
H491 H 0.98841 0.85849 0.03036 0.0
H492 H 0.02023 0.94978 0.92893 0.0
H493 H 0.0352 0.88856 0.01875 0.0
H494 H 0.11827 0.94112 0.93214 0.0
H495 H 0.07094 0.91168 0.92419 0.0
H496 H 0.05829 0.97429 0.01567 0.0
H497 H 0.1057 1.00404 0.0193 0.0
C498 C 0.98643 0.91272 0.96084 0.0
C499 C 0.9768 0.8868 -0.00917 0.0
C500 C 0.01353 0.92995 0.95185 0.0
C501 C 0.03169 0.92175 0.97309 0.0
C502 C 0.02196 0.89562 0.00069 0.0
C503 C 0.99496 0.87839 0.00876 0.0
C504 C 0.10536 0.94862 0.95007 0.0
C505 C 0.11572 0.97485 -0.02304 0.0
C506 C 0.07817 0.93169 0.94598 0.0
C507 C 0.06063 0.94044 0.97009 0.0
C508 C 0.07108 0.96688 -0.00459 0.0
C509 C 0.09831 0.98392 -0.00176 0.0
H510 H 0.76563 0.52711 0.26666 0.0
H511 H 0.70253 0.45133 0.35075 0.0
H512 H 0.79525 0.50941 0.25874 0.0
H513 H 0.73245 0.43384 0.34732 0.0
H514 H 0.78726 0.40349 0.27794 0.0
H515 H 0.75733 0.42061 0.26127 0.0
H516 H 0.81829 0.49666 0.35234 0.0
H517 H 0.84855 0.48015 0.36279 0.0
C518 C 0.75813 0.50668 0.28395 0.0
C519 C 0.73179 0.49067 0.30989 0.0
C520 C 0.77516 0.49652 0.27992 0.0
C521 C 0.76643 0.4702 0.30322 0.0
C522 C 0.73988 0.45408 0.32767 0.0
C523 C 0.72273 0.46416 0.33037 0.0
C524 C 0.79448 0.42399 0.29271 0.0
C525 C 0.82041 0.4403 0.32259 0.0
C526 C 0.77714 0.43376 0.2843 0.0
C527 C 0.78521 0.46003 0.30609 0.0
C528 C 0.81132 0.47643 0.33381 0.0
C529 C 0.82868 0.46678 0.34123 0.0
H530 H 0.63825 0.39893 0.35241 0.0
H531 H 0.56285 0.38705 0.26911 0.0
H532 H 0.62132 0.3516 0.34609 0.0
H533 H 0.54606 0.33991 0.25798 0.0
H534 H 0.51393 0.25628 0.3524 0.0
H535 H 0.53219 0.30357 0.34886 0.0
H536 H 0.60688 0.31355 0.26121 0.0
H537 H 0.58879 0.26608 0.26958 0.0
C538 C 0.61819 0.38614 0.33085 0.0
C539 C 0.60175 0.39651 0.3119 0.0
C540 C 0.60845 0.359 0.3269 0.0
C541 C 0.58214 0.34169 0.30242 0.0
C542 C 0.56615 0.3524 0.27961 0.0
C543 C 0.57577 0.37943 0.28525 0.0
C544 C 0.53424 0.26858 0.33222 0.0
C545 C 0.54992 0.25746 0.31136 0.0
C546 C 0.54472 0.29577 0.32942 0.0
C547 C 0.57106 0.3126 0.30408 0.0
C548 C 0.58666 0.30137 0.28231 0.0
C549 C 0.57626 0.27412 0.28658 0.0
H550 H 0.63974 0.25284 0.27484 0.0
H551 H 0.65532 0.19118 0.35422 0.0
H552 H 0.68679 0.28308 0.26082 0.0
H553 H 0.70205 0.22169 0.3465 0.0
H554 H 0.78534 0.27518 0.26549 0.0
H555 H 0.73812 0.24558 0.2549 0.0
H556 H 0.72456 0.30741 0.34864 0.0
H557 H 0.77194 0.3374 0.35467 0.0
C558 C 0.65306 0.2456 0.28897 0.0
C559 C 0.64349 0.21947 0.31655 0.0
C560 C 0.68017 0.26312 0.2821 0.0
C561 C 0.69841 0.25501 0.30316 0.0
C562 C 0.68877 0.22872 0.32858 0.0
C563 C 0.66177 0.2112 0.33444 0.0
C564 C 0.77225 0.28248 0.28339 0.0
C565 C 0.78235 0.30856 0.31157 0.0
C566 C 0.74512 0.26545 0.27781 0.0
C567 C 0.72734 0.2739 0.30183 0.0
C568 C 0.73753 0.30021 0.32845 0.0
C569 C 0.76473 0.31739 0.33264 0.0
H570 H 0.45372 0.73665 0.60733 0.0
H571 H 0.51469 0.81402 0.6874 0.0
H572 H 0.42337 0.75325 0.5893 0.0
H573 H 0.48406 0.83008 0.67532 0.0
H574 H 0.43079 0.85935 0.58719 0.0
H575 H 0.46052 0.84181 0.57957 0.0
H576 H 0.39852 0.7668 0.67536 0.0
H577 H 0.36843 0.78412 0.67872 0.0
C578 C 0.46077 0.7572 0.62066 0.0
C579 C 0.48672 0.77388 0.64966 0.0
C580 C 0.4432 0.76667 0.61146 0.0
C581 C 0.45109 0.79301 0.63143 0.0
C582 C 0.47723 0.80977 0.65819 0.0
C583 C 0.4948 0.80041 0.66652 0.0
C584 C 0.42347 0.83906 0.60613 0.0
C585 C 0.39732 0.82319 0.63428 0.0
C586 C 0.44057 0.829 0.60224 0.0
C587 C 0.43211 0.80292 0.62782 0.0
C588 C 0.40572 0.78687 0.6541 0.0
C589 C 0.38848 0.79685 0.65673 0.0
H590 H 0.18003 0.58791 0.59336 0.0
H591 H 0.25537 0.60128 0.68576 0.0
H592 H 0.19754 0.63511 0.58312 0.0
H593 H 0.27263 0.6486 0.67998 0.0
H594 H 0.30308 0.73336 0.60519 0.0
H595 H 0.28632 0.68634 0.59164 0.0
H596 H 0.20941 0.67116 0.6744 0.0
H597 H 0.22559 0.71787 0.68168 0.0
C598 C 0.20032 0.60097 0.61206 0.0
C599 C 0.21626 0.59086 0.64096 0.0
C600 C 0.21037 0.6281 0.60667 0.0
C601 C 0.23649 0.64585 0.63153 0.0
C602 C 0.25255 0.63565 0.65908 0.0
C603 C 0.2426 0.60847 0.66314 0.0
C604 C 0.28248 0.72006 0.61878 0.0
C605 C 0.26582 0.72965 0.6454 0.0
C606 C 0.27291 0.69297 0.61219 0.0
C607 C 0.2465 0.67476 0.63259 0.0
C608 C 0.22977 0.68442 0.65704 0.0
C609 C 0.23922 0.7114 0.66263 0.0
H610 H 0.44141 0.67269 0.60153 0.0
H611 H 0.45121 0.60823 0.69076 0.0
H612 H 0.39399 0.64317 0.59159 0.0
H613 H 0.4039 0.57903 0.68547 0.0
H614 H 0.32066 0.52585 0.60295 0.0
H615 H 0.36787 0.5562 0.59316 0.0
H616 H 0.35567 0.61985 0.67604 0.0
H617 H 0.3083 0.58944 0.68124 0.0
C618 C 0.43339 0.65223 0.61958 0.0
C619 C 0.45004 0.64276 0.64674 0.0
C620 C 0.40616 0.6353 0.61441 0.0
C621 C 0.39492 0.60858 0.63754 0.0
C622 C 0.41172 0.59927 0.66506 0.0
C623 C 0.43892 0.61608 0.66885 0.0
C624 C 0.32817 0.5464 0.61821 0.0
C625 C 0.31093 0.55532 0.64312 0.0
C626 C 0.35524 0.56382 0.61333 0.0
C627 C 0.36582 0.59054 0.63508 0.0
C628 C 0.34836 0.59955 0.65771 0.0
C629 C 0.32119 0.58215 0.66098 0.0
H630 H 0.99135 0.14592 0.72191 0.0
H631 H 0.03784 0.23072 0.72312 0.0
H632 H 0.99429 0.14599 0.56141 0.0
H633 H 0.03981 0.23096 0.56239 0.0
H634 H 0.06094 0.22162 0.2805 0.0
H635 H 0.05913 0.2211 0.44186 0.0
H636 H 0.97913 0.15615 0.43247 0.0
H637 H 0.98144 0.15594 0.27262 0.0
C638 C 1.00182 0.1646 0.68768 0.0
C639 C 0.01432 0.1883 0.73497 0.0
C640 C 1.00348 0.16468 0.59558 0.0
C641 C 0.01734 0.1885 0.54863 0.0
C642 C 0.02943 0.21223 0.59622 0.0
C643 C 0.02808 0.21211 0.68836 0.0
C644 C 0.04308 0.20716 0.31324 0.0
C645 C 0.02142 0.18875 0.26396 0.0
C646 C 0.04193 0.20696 0.40565 0.0
C647 C 0.01895 0.18857 0.45047 0.0
C648 C 0.99733 0.17025 0.40065 0.0
C649 C 0.99861 0.17022 0.30871 0.0
H650 H 0.88558 0.83802 0.7234 0.0
H651 H 0.81854 0.84978 0.73203 0.0
H652 H 0.88501 0.83927 0.56211 0.0
H653 H 0.81874 0.85238 0.57225 0.0
H654 H 0.80917 0.83057 0.28248 0.0
H655 H 0.80919 0.82764 0.44294 0.0
H656 H 0.89429 0.86802 0.44163 0.0
H657 H 0.89407 0.86969 0.28093 0.0
C658 C 0.87082 0.84097 0.69083 0.0
C659 C 0.85205 0.84366 0.74032 0.0
C660 C 0.87059 0.84192 0.59844 0.0
C661 C 0.85182 0.84597 0.5538 0.0
C662 C 0.83314 0.84869 0.60385 0.0
C663 C 0.83312 0.84735 0.69579 0.0
C664 C 0.82785 0.83896 0.31666 0.0
C665 C 0.8516 0.85038 0.26929 0.0
C666 C 0.82792 0.83736 0.40875 0.0
C667 C 0.85176 0.84755 0.45563 0.0
C668 C 0.87553 0.85945 0.40792 0.0
C669 C 0.87543 0.86066 0.31578 0.0
H670 H 0.21635 1.0022 0.72075 0.0
H671 H 0.17797 0.0487 0.71938 0.0
H672 H 0.21482 1.00043 0.56002 0.0
H673 H 0.17529 0.04596 0.55887 0.0
H674 H 0.19846 0.05916 0.27025 0.0
H675 H 0.20083 0.06129 0.43018 0.0
H676 H 0.18576 0.9813 0.43937 0.0
H677 H 0.18462 0.97966 0.27804 0.0
C678 C 0.20751 0.01199 0.68597 0.0
C679 C 0.19739 0.02571 0.7325 0.0
C680 C 0.2064 0.01077 0.59383 0.0
C681 C 0.19481 0.02293 0.54619 0.0
C682 C 0.18476 0.03672 0.59309 0.0
C683 C 0.18621 0.03826 0.68519 0.0
C684 C 0.19554 0.04195 0.30634 0.0
C685 C 0.19129 0.01919 0.2616 0.0
C686 C 0.19676 0.04314 0.39829 0.0
C687 C 0.1934 0.02146 0.44805 0.0
C688 C 0.18887 0.99854 0.4032 0.0
C689 C 0.188 0.99748 0.31082 0.0
H690 H 0.66366 0.47883 0.60735 0.0
H691 H 0.71028 0.56361 0.60636 0.0
H692 H 0.66235 0.47896 0.76818 0.0
H693 H 0.70791 0.56394 0.76682 0.0
H694 H 0.72143 0.55494 0.05568 0.0
H695 H 0.72337 0.55434 0.89565 0.0
H696 H 0.64356 0.48895 0.88903 0.0
H697 H 0.64219 0.48877 0.05023 0.0
C698 C 0.67355 0.49751 0.64165 0.0
C699 C 0.68717 0.52121 0.59444 0.0
C700 C 0.67259 0.49761 0.73384 0.0
C701 C 0.6849 0.52146 0.78082 0.0
C702 C 0.69858 0.54516 0.73319 0.0
C703 C 0.69989 0.54502 0.64109 0.0
C704 C 0.70424 0.54048 0.02007 0.0
C705 C 0.68162 0.5219 0.06548 0.0
C706 C 0.7053 0.54022 0.92808 0.0
C707 C 0.68362 0.52165 0.879 0.0
C708 C 0.66082 0.50326 0.92459 0.0
C709 C 0.65992 0.50326 0.01694 0.0
H710 H 0.48593 0.1888 0.60821 0.0
H711 H 0.55082 0.17367 0.60043 0.0
H712 H 0.48652 0.18788 0.76946 0.0
H713 H 0.55067 0.17151 0.76054 0.0
H714 H 0.56139 0.19491 0.04917 0.0
H715 H 0.56127 0.19729 0.88858 0.0
H716 H 0.47629 0.15902 0.8908 0.0
H717 H 0.4766 0.15781 0.05158 0.0
C718 C 0.50021 0.18515 0.641 0.0
C719 C 0.5184 0.18145 0.59182 0.0
C720 C 0.50045 0.18442 0.73336 0.0
C721 C 0.51864 0.17959 0.77827 0.0
C722 C 0.53673 0.1758 0.72856 0.0
C723 C 0.53673 0.1769 0.63656 0.0
C724 C 0.5427 0.1869 0.01519 0.0
C725 C 0.51902 0.17617 0.0628 0.0
C726 C 0.54259 0.18817 0.92306 0.0
C727 C 0.51875 0.17836 0.87643 0.0
C728 C 0.49504 0.16724 0.92438 0.0
C729 C 0.49519 0.16632 0.01655 0.0
H730 H 0.83799 0.37514 0.6109 0.0
H731 H 0.87663 0.3289 0.61182 0.0
H732 H 0.83968 0.377 0.7716 0.0
H733 H 0.87959 0.33183 0.77223 0.0
H734 H 0.85762 0.31924 0.06166 0.0
H735 H 0.85496 0.31683 0.90188 0.0
H736 H 0.86843 0.39626 0.89182 0.0
H737 H 0.86973 0.3981 0.05308 0.0
C738 C 0.84692 0.36543 0.64562 0.0
C739 C 0.85706 0.35176 0.59896 0.0
C740 C 0.84814 0.36672 0.73775 0.0
C741 C 0.85992 0.35471 0.78529 0.0
C742 C 0.86997 0.34094 0.73822 0.0
C743 C 0.86835 0.3393 0.64614 0.0
C744 C 0.86012 0.33626 0.02542 0.0
C745 C 0.86392 0.3589 0.06995 0.0
C746 C 0.85874 0.33493 0.93348 0.0
C747 C 0.86154 0.35636 0.88346 0.0
C748 C 0.86572 0.37919 0.92812 0.0
C749 C 0.86669 0.38037 0.02049 0.0
H750 H 0.37039 0.89665 0.37876 0.0
H751 H 0.32329 0.81188 0.37793 0.0
H752 H 0.37208 0.89681 0.21797 0.0
H753 H 0.32595 0.81186 0.21742 0.0
H754 H 0.3128 0.82187 0.92893 0.0
H755 H 0.3107 0.82222 0.08891 0.0
H756 H 0.39103 0.88656 0.09716 0.0
H757 H 0.39264 0.88694 0.93584 0.0
C758 C 0.36045 0.87803 0.34409 0.0
C759 C 0.3466 0.85425 0.3908 0.0
C760 C 0.36163 0.8781 0.25192 0.0
C761 C 0.34927 0.85435 0.20445 0.0
C762 C 0.33534 0.83057 0.25152 0.0
C763 C 0.33386 0.83054 0.34362 0.0
C764 C 0.33008 0.83604 0.96483 0.0
C765 C 0.35293 0.85436 0.91984 0.0
C766 C 0.32892 0.83615 0.0568 0.0
C767 C 0.35071 0.85435 0.1063 0.0
C768 C 0.37371 0.87254 0.06119 0.0
C769 C 0.37475 0.87265 0.96881 0.0
H770 H 0.15372 0.5225 0.94165 0.0
H771 H 0.21895 0.50787 0.93604 0.0
H772 H 0.15381 0.52132 0.10291 0.0
H773 H 0.21832 0.50547 0.09615 0.0
H774 H 0.22809 0.52856 0.38489 0.0
H775 H 0.22838 0.53113 0.2244 0.0
H776 H 0.14336 0.4922 0.22392 0.0
H777 H 0.14323 0.49077 0.38479 0.0
C778 C 0.16798 0.51893 0.97492 0.0
C779 C 0.1864 0.51542 0.92633 0.0
C780 C 0.16793 0.51804 0.06727 0.0
C781 C 0.18607 0.51326 0.11278 0.0
C782 C 0.20441 0.5097 0.06369 0.0
C783 C 0.20469 0.51095 0.97168 0.0
C784 C 0.20947 0.52043 0.35038 0.0
C785 C 0.18565 0.50945 0.39729 0.0
C786 C 0.2096 0.52182 0.25828 0.0
C787 C 0.18588 0.51188 0.21092 0.0
C788 C 0.16202 0.50051 0.25812 0.0
C789 C 0.16192 0.49946 0.35032 0.0
H790 H 0.53715 0.73267 0.38422 0.0
H791 H 0.52503 0.6538 0.39189 0.0
H792 H 0.53604 0.73106 0.22298 0.0
H793 H 0.52262 0.65164 0.23197 0.0
H794 H 0.54513 0.66448 0.94267 0.0
H795 H 0.54784 0.66722 0.1031 0.0
H796 H 0.50722 0.7117 0.10236 0.0
H797 H 0.50572 0.71 0.94159 0.0
C798 C 0.53415 0.71498 0.35145 0.0
C799 C 0.53131 0.69344 0.40065 0.0
C800 C 0.53329 0.71394 0.25908 0.0
C801 C 0.5292 0.69118 0.21417 0.0
C802 C 0.52632 0.66967 0.26388 0.0
C803 C 0.52756 0.67086 0.35585 0.0
C804 C 0.53666 0.6747 0.97692 0.0
C805 C 0.52519 0.68699 0.92969 0.0
C806 C 0.53813 0.67623 0.069 0.0
C807 C 0.52777 0.68972 0.11602 0.0
C808 C 0.51589 0.70161 0.06848 0.0
C809 C 0.51478 0.70042 0.97632 0.0
loop_
_geom_bond_atom_site_label_1
_geom_bond_atom_site_label_2
_geom_bond_distance
_geom_bond_site_symmetry_2
_ccdc_geom_bond_type
Co0 N5 2.057 . S
Co0 O17 2.021 1_554 S
Co0 O20 2.062 1_654 S
Co0 O24 2.117 1_655 S
Co0 O25 2.020 . S
C1 O21 1.259 . S
C1 O24 1.258 . S
Co2 N11 2.057 1_554 S
Co2 O18 2.117 1_554 S
Co2 O19 2.020 1_554 S
Co2 O21 2.021 . S
Co2 O26 2.062 . S
C3 N5 1.316 1_556 S
C3 N6 1.347 1_556 S
C3 H8 0.931 . S
C4 N5 1.375 . S
C4 C7 1.350 . S
C4 H9 0.930 . S
N5 Co0 2.057 . S
N5 C3 1.316 1_554 S
N5 C4 1.375 . S
N6 C3 1.347 1_554 S
N6 C7 1.373 . S
C7 C4 1.350 . S
C7 N6 1.373 . S
C7 H28 0.931 . S
H8 C3 0.931 . S
H9 C4 0.930 . S
C10 O17 1.259 1_455 S
C10 O18 1.258 . S
N11 Co2 2.057 1_556 S
N11 C12 1.316 1_556 S
N11 C13 1.375 . S
C12 N11 1.316 1_554 S
C12 N14 1.347 1_554 S
C12 H23 0.931 . S
C13 N11 1.375 . S
C13 C15 1.350 . S
C13 H22 0.930 . S
N14 C12 1.347 1_556 S
N14 C15 1.373 . S
C15 C13 1.350 . S
C15 N14 1.373 . S
C15 H29 0.931 . S
C16 O19 1.256 . S
C16 O20 1.255 . S
O17 Co0 2.021 1_556 S
O17 C10 1.259 1_655 S
O18 Co2 2.117 1_556 S
O18 C10 1.258 . S
O19 Co2 2.020 1_556 S
O19 C16 1.256 . S
O20 Co0 2.062 1_456 S
O20 C16 1.255 . S
O21 C1 1.259 . S
O21 Co2 2.021 . S
H22 C13 0.930 . S
H23 C12 0.931 . S
O24 Co0 2.117 1_455 S
O24 C1 1.258 . S
O25 Co0 2.020 . S
O25 C27 1.256 . S
O26 Co2 2.062 . S
O26 C27 1.255 1_455 S
C27 O25 1.256 . S
C27 O26 1.255 1_655 S
H28 C7 0.931 . S
H29 C15 0.931 . S
Co30 N35 2.057 . S
Co30 O47 2.021 1_554 S
Co30 O50 2.062 1_554 S
Co30 O54 2.117 . S
Co30 O55 2.020 . S
C31 O51 1.259 . S
C31 O54 1.258 . S
Co32 N41 2.057 1_554 S
Co32 O48 2.117 1_554 S
Co32 O49 2.020 1_554 S
Co32 O51 2.021 . S
Co32 O56 2.062 . S
C33 N35 1.316 1_556 S
C33 N36 1.347 1_556 S
C33 H38 0.931 . S
C34 N35 1.375 . S
C34 C37 1.350 . S
C34 H39 0.930 . S
N35 Co30 2.057 . S
N35 C33 1.316 1_554 S
N35 C34 1.375 . S
N36 C33 1.347 1_554 S
N36 C37 1.373 . S
C37 C34 1.350 . S
C37 N36 1.373 . S
C37 H58 0.931 . S
H38 C33 0.931 . S
H39 C34 0.930 . S
C40 O47 1.259 . S
C40 O48 1.258 . S
N41 Co32 2.057 1_556 S
N41 C42 1.316 1_556 S
N41 C43 1.375 . S
C42 N41 1.316 1_554 S
C42 N44 1.347 1_554 S
C42 H53 0.931 . S
C43 N41 1.375 . S
C43 C45 1.350 . S
C43 H52 0.930 . S
N44 C42 1.347 1_556 S
N44 C45 1.373 . S
C45 C43 1.350 . S
C45 N44 1.373 . S
C45 H59 0.931 . S
C46 O49 1.256 . S
C46 O50 1.255 . S
O47 Co30 2.021 1_556 S
O47 C40 1.259 . S
O48 Co32 2.117 1_556 S
O48 C40 1.258 . S
O49 Co32 2.020 1_556 S
O49 C46 1.256 . S
O50 Co30 2.062 1_556 S
O50 C46 1.255 . S
O51 C31 1.259 . S
O51 Co32 2.021 . S
H52 C43 0.930 . S
H53 C42 0.931 . S
O54 Co30 2.117 . S
O54 C31 1.258 . S
O55 Co30 2.020 . S
O55 C57 1.256 . S
O56 Co32 2.062 . S
O56 C57 1.255 . S
C57 O55 1.256 . S
C57 O56 1.255 . S
H58 C37 0.931 . S
H59 C45 0.931 . S
Co60 N65 2.057 . S
Co60 O77 2.021 1_554 S
Co60 O80 2.062 1_554 S
Co60 O84 2.117 . S
Co60 O85 2.020 . S
C61 O81 1.259 1_545 S
C61 O84 1.258 . S
Co62 N71 2.057 1_554 S
Co62 O78 2.117 1_564 S
Co62 O79 2.020 1_554 S
Co62 O81 2.021 . S
Co62 O86 2.062 1_565 S
C63 N65 1.316 1_556 S
C63 N66 1.347 1_556 S
C63 H68 0.931 . S
C64 N65 1.375 . S
C64 C67 1.350 . S
C64 H69 0.930 . S
N65 Co60 2.057 . S
N65 C63 1.316 1_554 S
N65 C64 1.375 . S
N66 C63 1.347 1_554 S
N66 C67 1.373 . S
C67 C64 1.350 . S
C67 N66 1.373 . S
C67 H88 0.931 . S
H68 C63 0.931 . S
H69 C64 0.930 . S
C70 O77 1.259 . S
C70 O78 1.258 . S
N71 Co62 2.057 1_556 S
N71 C72 1.316 1_556 S
N71 C73 1.375 . S
C72 N71 1.316 1_554 S
C72 N74 1.347 1_554 S
C72 H83 0.931 . S
C73 N71 1.375 . S
C73 C75 1.350 . S
C73 H82 0.930 . S
N74 C72 1.347 1_556 S
N74 C75 1.373 . S
C75 C73 1.350 . S
C75 N74 1.373 . S
C75 H89 0.931 . S
C76 O79 1.256 . S
C76 O80 1.255 1_565 S
O77 Co60 2.021 1_556 S
O77 C70 1.259 . S
O78 Co62 2.117 1_546 S
O78 C70 1.258 . S
O79 Co62 2.020 1_556 S
O79 C76 1.256 . S
O80 Co60 2.062 1_556 S
O80 C76 1.255 1_545 S
O81 C61 1.259 1_565 S
O81 Co62 2.021 . S
H82 C73 0.930 . S
H83 C72 0.931 . S
O84 Co60 2.117 . S
O84 C61 1.258 . S
O85 Co60 2.020 . S
O85 C87 1.256 . S
O86 Co62 2.062 1_545 S
O86 C87 1.255 . S
C87 O85 1.256 . S
C87 O86 1.255 . S
H88 C67 0.931 . S
H89 C75 0.931 . S
Co90 N95 2.057 . S
Co90 O107 2.021 . S
Co90 O110 2.062 . S
Co90 O114 2.117 . S
Co90 O115 2.020 . S
C91 O111 1.259 . S
C91 O114 1.258 . S
Co92 N101 2.057 . S
Co92 O108 2.117 . S
Co92 O109 2.020 . S
Co92 O111 2.021 . S
Co92 O116 2.062 . S
C93 N95 1.316 . S
C93 N96 1.347 . S
C93 H98 0.931 . S
C94 N95 1.375 . S
C94 C97 1.350 . S
C94 H99 0.930 . S
N95 Co90 2.057 . S
N95 C93 1.316 . S
N95 C94 1.375 . S
N96 C93 1.347 . S
N96 C97 1.373 . S
C97 C94 1.350 . S
C97 N96 1.373 . S
C97 H118 0.931 . S
H98 C93 0.931 . S
H99 C94 0.930 . S
C100 O107 1.259 . S
C100 O108 1.258 . S
N101 Co92 2.057 . S
N101 C102 1.316 . S
N101 C103 1.375 . S
C102 N101 1.316 . S
C102 N104 1.347 . S
C102 H113 0.931 . S
C103 N101 1.375 . S
C103 C105 1.350 . S
C103 H112 0.930 . S
N104 C102 1.347 . S
N104 C105 1.373 . S
C105 C103 1.350 . S
C105 N104 1.373 . S
C105 H119 0.931 . S
C106 O109 1.256 . S
C106 O110 1.255 . S
O107 Co90 2.021 . S
O107 C100 1.259 . S
O108 Co92 2.117 . S
O108 C100 1.258 . S
O109 Co92 2.020 . S
O109 C106 1.256 . S
O110 Co90 2.062 . S
O110 C106 1.255 . S
O111 C91 1.259 . S
O111 Co92 2.021 . S
H112 C103 0.930 . S
H113 C102 0.931 . S
O114 Co90 2.117 . S
O114 C91 1.258 . S
O115 Co90 2.020 . S
O115 C117 1.256 . S
O116 Co92 2.062 . S
O116 C117 1.255 . S
C117 O115 1.256 . S
C117 O116 1.255 . S
H118 C97 0.931 . S
H119 C105 0.931 . S
Co120 N125 2.057 . S
Co120 O137 2.021 . S
Co120 O140 2.062 . S
Co120 O144 2.117 . S
Co120 O145 2.020 . S
C121 O141 1.259 . S
C121 O144 1.258 . S
Co122 N131 2.057 . S
Co122 O138 2.117 . S
Co122 O139 2.020 . S
Co122 O141 2.021 . S
Co122 O146 2.062 . S
C123 N125 1.316 . S
C123 N126 1.347 . S
C123 H128 0.931 . S
C124 N125 1.375 . S
C124 C127 1.350 . S
C124 H129 0.930 . S
N125 Co120 2.057 . S
N125 C123 1.316 . S
N125 C124 1.375 . S
N126 C123 1.347 . S
N126 C127 1.373 . S
C127 C124 1.350 . S
C127 N126 1.373 . S
C127 H148 0.931 . S
H128 C123 0.931 . S
H129 C124 0.930 . S
C130 O137 1.259 . S
C130 O138 1.258 . S
N131 Co122 2.057 . S
N131 C132 1.316 . S
N131 C133 1.375 . S
C132 N131 1.316 . S
C132 N134 1.347 . S
C132 H143 0.931 . S
C133 N131 1.375 . S
C133 C135 1.350 . S
C133 H142 0.930 . S
N134 C132 1.347 . S
N134 C135 1.373 . S
C135 C133 1.350 . S
C135 N134 1.373 . S
C135 H149 0.931 . S
C136 O139 1.256 . S
C136 O140 1.255 . S
O137 Co120 2.021 . S
O137 C130 1.259 . S
O138 Co122 2.117 . S
O138 C130 1.258 . S
O139 Co122 2.020 . S
O139 C136 1.256 . S
O140 Co120 2.062 . S
O140 C136 1.255 . S
O141 C121 1.259 . S
O141 Co122 2.021 . S
H142 C133 0.930 . S
H143 C132 0.931 . S
O144 Co120 2.117 . S
O144 C121 1.258 . S
O145 Co120 2.020 . S
O145 C147 1.256 . S
O146 Co122 2.062 . S
O146 C147 1.255 . S
C147 O145 1.256 . S
C147 O146 1.255 . S
H148 C127 0.931 . S
H149 C135 0.931 . S
Co150 N155 2.057 . S
Co150 O167 2.021 . S
Co150 O170 2.062 . S
Co150 O174 2.117 . S
Co150 O175 2.020 . S
C151 O171 1.259 . S
C151 O174 1.258 . S
Co152 N161 2.057 . S
Co152 O168 2.117 . S
Co152 O169 2.020 . S
Co152 O171 2.021 . S
Co152 O176 2.062 . S
C153 N155 1.316 . S
C153 N156 1.347 . S
C153 H158 0.931 . S
C154 N155 1.375 . S
C154 C157 1.350 . S
C154 H159 0.930 . S
N155 Co150 2.057 . S
N155 C153 1.316 . S
N155 C154 1.375 . S
N156 C153 1.347 . S
N156 C157 1.373 . S
C157 C154 1.350 . S
C157 N156 1.373 . S
C157 H178 0.931 . S
H158 C153 0.931 . S
H159 C154 0.930 . S
C160 O167 1.259 . S
C160 O168 1.258 . S
N161 Co152 2.057 . S
N161 C162 1.316 . S
N161 C163 1.375 . S
C162 N161 1.316 . S
C162 N164 1.347 . S
C162 H173 0.931 . S
C163 N161 1.375 . S
C163 C165 1.350 . S
C163 H172 0.930 . S
N164 C162 1.347 . S
N164 C165 1.373 . S
C165 C163 1.350 . S
C165 N164 1.373 . S
C165 H179 0.931 . S
C166 O169 1.256 . S
C166 O170 1.255 . S
O167 Co150 2.021 . S
O167 C160 1.259 . S
O168 Co152 2.117 . S
O168 C160 1.258 . S
O169 Co152 2.020 . S
O169 C166 1.256 . S
O170 Co150 2.062 . S
O170 C166 1.255 . S
O171 C151 1.259 . S
O171 Co152 2.021 . S
H172 C163 0.930 . S
H173 C162 0.931 . S
O174 Co150 2.117 . S
O174 C151 1.258 . S
O175 Co150 2.020 . S
O175 C177 1.256 . S
O176 Co152 2.062 . S
O176 C177 1.255 . S
C177 O175 1.256 . S
C177 O176 1.255 . S
H178 C157 0.931 . S
H179 C165 0.931 . S
Co180 N185 2.057 . S
Co180 O197 2.021 . S
Co180 O200 2.062 . S
Co180 O204 2.117 . S
Co180 O205 2.020 . S
C181 O201 1.259 . S
C181 O204 1.258 . S
Co182 N191 2.057 . S
Co182 O198 2.117 . S
Co182 O199 2.020 . S
Co182 O201 2.021 . S
Co182 O206 2.062 . S
C183 N185 1.316 . S
C183 N186 1.347 . S
C183 H188 0.931 . S
C184 N185 1.375 . S
C184 C187 1.350 . S
C184 H189 0.930 . S
N185 Co180 2.057 . S
N185 C183 1.316 . S
N185 C184 1.375 . S
N186 C183 1.347 . S
N186 C187 1.373 . S
C187 C184 1.350 . S
C187 N186 1.373 . S
C187 H208 0.931 . S
H188 C183 0.931 . S
H189 C184 0.930 . S
C190 O197 1.259 . S
C190 O198 1.258 . S
N191 Co182 2.057 . S
N191 C192 1.316 . S
N191 C193 1.375 . S
C192 N191 1.316 . S
C192 N194 1.347 . S
C192 H203 0.931 . S
C193 N191 1.375 . S
C193 C195 1.350 . S
C193 H202 0.930 . S
N194 C192 1.347 . S
N194 C195 1.373 . S
C195 C193 1.350 . S
C195 N194 1.373 . S
C195 H209 0.931 . S
C196 O199 1.256 . S
C196 O200 1.255 . S
O197 Co180 2.021 . S
O197 C190 1.259 . S
O198 Co182 2.117 . S
O198 C190 1.258 . S
O199 Co182 2.020 . S
O199 C196 1.256 . S
O200 Co180 2.062 . S
O200 C196 1.255 . S
O201 C181 1.259 . S
O201 Co182 2.021 . S
H202 C193 0.930 . S
H203 C192 0.931 . S
O204 Co180 2.117 . S
O204 C181 1.258 . S
O205 Co180 2.020 . S
O205 C207 1.256 . S
O206 Co182 2.062 . S
O206 C207 1.255 . S
C207 O205 1.256 . S
C207 O206 1.255 . S
H208 C187 0.931 . S
H209 C195 0.931 . S
Co210 N215 2.057 . S
Co210 O227 2.021 . S
Co210 O230 2.062 . S
Co210 O234 2.117 . S
Co210 O235 2.020 . S
C211 O231 1.259 . S
C211 O234 1.258 . S
Co212 N221 2.057 . S
Co212 O228 2.117 . S
Co212 O229 2.020 . S
Co212 O231 2.021 . S
Co212 O236 2.062 . S
C213 N215 1.316 . S
C213 N216 1.347 . S
C213 H218 0.931 . S
C214 N215 1.375 . S
C214 C217 1.350 . S
C214 H219 0.930 . S
N215 Co210 2.057 . S
N215 C213 1.316 . S
N215 C214 1.375 . S
N216 C213 1.347 . S
N216 C217 1.373 . S
C217 C214 1.350 . S
C217 N216 1.373 . S
C217 H238 0.931 . S
H218 C213 0.931 . S
H219 C214 0.930 . S
C220 O227 1.259 . S
C220 O228 1.258 . S
N221 Co212 2.057 . S
N221 C222 1.316 . S
N221 C223 1.375 . S
C222 N221 1.316 . S
C222 N224 1.347 . S
C222 H233 0.931 . S
C223 N221 1.375 . S
C223 C225 1.350 . S
C223 H232 0.930 . S
N224 C222 1.347 . S
N224 C225 1.373 . S
C225 C223 1.350 . S
C225 N224 1.373 . S
C225 H239 0.931 . S
C226 O229 1.256 . S
C226 O230 1.255 . S
O227 Co210 2.021 . S
O227 C220 1.259 . S
O228 Co212 2.117 . S
O228 C220 1.258 . S
O229 Co212 2.020 . S
O229 C226 1.256 . S
O230 Co210 2.062 . S
O230 C226 1.255 . S
O231 C211 1.259 . S
O231 Co212 2.021 . S
H232 C223 0.930 . S
H233 C222 0.931 . S
O234 Co210 2.117 . S
O234 C211 1.258 . S
O235 Co210 2.020 . S
O235 C237 1.256 . S
O236 Co212 2.062 . S
O236 C237 1.255 . S
C237 O235 1.256 . S
C237 O236 1.255 . S
H238 C217 0.931 . S
H239 C225 0.931 . S
Co240 N245 2.057 . S
Co240 O257 2.021 . S
Co240 O260 2.062 . S
Co240 O264 2.117 . S
Co240 O265 2.020 . S
C241 O261 1.259 . S
C241 O264 1.258 . S
Co242 N251 2.057 . S
Co242 O258 2.117 . S
Co242 O259 2.020 . S
Co242 O261 2.021 . S
Co242 O266 2.062 . S
C243 N245 1.316 . S
C243 N246 1.347 . S
C243 H248 0.931 . S
C244 N245 1.375 . S
C244 C247 1.350 . S
C244 H249 0.930 . S
N245 Co240 2.057 . S
N245 C243 1.316 . S
N245 C244 1.375 . S
N246 C243 1.347 . S
N246 C247 1.373 . S
C247 C244 1.350 . S
C247 N246 1.373 . S
C247 H268 0.931 . S
H248 C243 0.931 . S
H249 C244 0.930 . S
C250 O257 1.259 . S
C250 O258 1.258 . S
N251 Co242 2.057 . S
N251 C252 1.316 . S
N251 C253 1.375 . S
C252 N251 1.316 . S
C252 N254 1.347 . S
C252 H263 0.931 . S
C253 N251 1.375 . S
C253 C255 1.350 . S
C253 H262 0.930 . S
N254 C252 1.347 . S
N254 C255 1.373 . S
C255 C253 1.350 . S
C255 N254 1.373 . S
C255 H269 0.931 . S
C256 O259 1.256 . S
C256 O260 1.255 . S
O257 Co240 2.021 . S
O257 C250 1.259 . S
O258 Co242 2.117 . S
O258 C250 1.258 . S
O259 Co242 2.020 . S
O259 C256 1.256 . S
O260 Co240 2.062 . S
O260 C256 1.255 . S
O261 C241 1.259 . S
O261 Co242 2.021 . S
H262 C253 0.930 . S
H263 C252 0.931 . S
O264 Co240 2.117 . S
O264 C241 1.258 . S
O265 Co240 2.020 . S
O265 C267 1.256 . S
O266 Co242 2.062 . S
O266 C267 1.255 . S
C267 O265 1.256 . S
C267 O266 1.255 . S
H268 C247 0.931 . S
H269 C255 0.931 . S
H270 C278 0.950 . S
H271 C283 0.950 . S
H272 C280 0.950 . S
H273 C282 0.950 . S
H274 C284 0.950 . S
H275 C286 0.950 . S
H276 C288 0.950 . S
H277 C289 0.950 . S
C278 H270 0.950 . S
C278 C279 1.386 . S
C278 C280 1.391 . S
C279 C278 1.386 . S
C279 C283 1.393 . S
C280 H272 0.950 . S
C280 C278 1.391 . S
C280 C281 1.400 . S
C281 C280 1.400 . S
C281 C282 1.398 . S
C281 C287 1.491 . S
C282 H273 0.950 . S
C282 C281 1.398 . S
C282 C283 1.391 . S
C283 H271 0.950 . S
C283 C279 1.393 . S
C283 C282 1.391 . S
C284 H274 0.950 . S
C284 C285 1.386 . S
C284 C286 1.391 . S
C285 C284 1.386 . S
C285 C289 1.393 . S
C286 H275 0.950 . S
C286 C284 1.391 . S
C286 C287 1.400 . S
C287 C281 1.491 . S
C287 C286 1.400 . S
C287 C288 1.398 . S
C288 H276 0.950 . S
C288 C287 1.398 . S
C288 C289 1.391 . S
C289 H277 0.950 . S
C289 C285 1.393 . S
C289 C288 1.391 . S
H290 C298 0.950 . S
H291 C303 0.950 . S
H292 C300 0.950 . S
H293 C302 0.950 . S
H294 C304 0.950 . S
H295 C306 0.950 . S
H296 C308 0.950 . S
H297 C309 0.950 . S
C298 H290 0.950 . S
C298 C299 1.386 . S
C298 C300 1.391 . S
C299 C298 1.386 . S
C299 C303 1.393 1_556 S
C300 H292 0.950 . S
C300 C298 1.391 . S
C300 C301 1.400 . S
C301 C300 1.400 . S
C301 C302 1.398 . S
C301 C307 1.491 . S
C302 H293 0.950 . S
C302 C301 1.398 . S
C302 C303 1.391 1_556 S
C303 H291 0.950 . S
C303 C299 1.393 1_554 S
C303 C302 1.391 1_554 S
C304 H294 0.950 . S
C304 C305 1.386 . S
C304 C306 1.391 . S
C305 C304 1.386 . S
C305 C309 1.393 . S
C306 H295 0.950 . S
C306 C304 1.391 . S
C306 C307 1.400 . S
C307 C301 1.491 . S
C307 C306 1.400 . S
C307 C308 1.398 . S
C308 H296 0.950 . S
C308 C307 1.398 . S
C308 C309 1.391 . S
C309 H297 0.950 . S
C309 C305 1.393 . S
C309 C308 1.391 . S
H310 C318 0.950 . S
H311 C323 0.950 1_554 S
H312 C320 0.950 . S
H313 C322 0.950 . S
H314 C324 0.950 . S
H315 C326 0.950 . S
H316 C328 0.950 . S
H317 C329 0.950 . S
C318 H310 0.950 . S
C318 C319 1.386 . S
C318 C320 1.391 . S
C319 C318 1.386 . S
C319 C323 1.393 . S
C320 H312 0.950 . S
C320 C318 1.391 . S
C320 C321 1.400 . S
C321 C320 1.400 . S
C321 C322 1.398 . S
C321 C327 1.491 . S
C322 H313 0.950 . S
C322 C321 1.398 . S
C322 C323 1.391 . S
C323 H311 0.950 1_556 S
C323 C319 1.393 . S
C323 C322 1.391 . S
C324 H314 0.950 . S
C324 C325 1.386 . S
C324 C326 1.391 . S
C325 C324 1.386 . S
C325 C329 1.393 . S
C326 H315 0.950 . S
C326 C324 1.391 . S
C326 C327 1.400 . S
C327 C321 1.491 . S
C327 C326 1.400 . S
C327 C328 1.398 . S
C328 H316 0.950 . S
C328 C327 1.398 . S
C328 C329 1.391 . S
C329 H317 0.950 . S
C329 C325 1.393 . S
C329 C328 1.391 . S
H330 C338 0.950 . S
H331 C343 0.950 . S
H332 C340 0.950 . S
H333 C342 0.950 . S
H334 C344 0.950 . S
H335 C346 0.950 . S
H336 C348 0.950 . S
H337 C349 0.950 . S
C338 H330 0.950 . S
C338 C339 1.386 . S
C338 C340 1.391 . S
C339 C338 1.386 . S
C339 C343 1.393 . S
C340 H332 0.950 . S
C340 C338 1.391 . S
C340 C341 1.400 . S
C341 C340 1.400 . S
C341 C342 1.398 . S
C341 C347 1.491 . S
C342 H333 0.950 . S
C342 C341 1.398 . S
C342 C343 1.391 . S
C343 H331 0.950 . S
C343 C339 1.393 . S
C343 C342 1.391 . S
C344 H334 0.950 . S
C344 C345 1.386 . S
C344 C346 1.391 . S
C345 C344 1.386 . S
C345 C349 1.393 . S
C346 H335 0.950 . S
C346 C344 1.391 . S
C346 C347 1.400 . S
C347 C341 1.491 . S
C347 C346 1.400 . S
C347 C348 1.398 . S
C348 H336 0.950 . S
C348 C347 1.398 . S
C348 C349 1.391 . S
C349 H337 0.950 . S
C349 C345 1.393 . S
C349 C348 1.391 . S
H350 C358 0.950 . S
H351 C363 0.950 . S
H352 C360 0.950 . S
H353 C362 0.950 . S
H354 C364 0.950 . S
H355 C366 0.950 . S
H356 C368 0.950 . S
H357 C369 0.950 1_556 S
C358 H350 0.950 . S
C358 C359 1.386 . S
C358 C360 1.391 . S
C359 C358 1.386 . S
C359 C363 1.393 . S
C360 H352 0.950 . S
C360 C358 1.391 . S
C360 C361 1.400 . S
C361 C360 1.400 . S
C361 C362 1.398 . S
C361 C367 1.491 . S
C362 H353 0.950 . S
C362 C361 1.398 . S
C362 C363 1.391 . S
C363 H351 0.950 . S
C363 C359 1.393 . S
C363 C362 1.391 . S
C364 H354 0.950 . S
C364 C365 1.386 . S
C364 C366 1.391 . S
C365 C364 1.386 . S
C365 C369 1.393 . S
C366 H355 0.950 . S
C366 C364 1.391 . S
C366 C367 1.400 . S
C367 C361 1.491 . S
C367 C366 1.400 . S
C367 C368 1.398 . S
C368 H356 0.950 . S
C368 C367 1.398 . S
C368 C369 1.391 . S
C369 H357 0.950 1_554 S
C369 C365 1.393 . S
C369 C368 1.391 . S
H370 C378 0.950 . S
H371 C383 0.950 . S
H372 C380 0.950 . S
H373 C382 0.950 . S
H374 C384 0.950 . S
H375 C386 0.950 . S
H376 C388 0.950 . S
H377 C389 0.950 . S
C378 H370 0.950 . S
C378 C379 1.386 . S
C378 C380 1.391 . S
C379 C378 1.386 . S
C379 C383 1.393 . S
C380 H372 0.950 . S
C380 C378 1.391 . S
C380 C381 1.400 . S
C381 C380 1.400 . S
C381 C382 1.398 . S
C381 C387 1.491 . S
C382 H373 0.950 . S
C382 C381 1.398 . S
C382 C383 1.391 . S
C383 H371 0.950 . S
C383 C379 1.393 . S
C383 C382 1.391 . S
C384 H374 0.950 . S
C384 C385 1.386 . S
C384 C386 1.391 . S
C385 C384 1.386 . S
C385 C389 1.393 . S
C386 H375 0.950 . S
C386 C384 1.391 . S
C386 C387 1.400 . S
C387 C381 1.491 . S
C387 C386 1.400 . S
C387 C388 1.398 . S
C388 H376 0.950 . S
C388 C387 1.398 . S
C388 C389 1.391 . S
C389 H377 0.950 . S
C389 C385 1.393 . S
C389 C388 1.391 . S
H390 C398 0.950 . S
H391 C403 0.950 . S
H392 C400 0.950 . S
H393 C402 0.950 1_655 S
H394 C404 0.950 . S
H395 C406 0.950 . S
H396 C408 0.950 . S
H397 C409 0.950 . S
C398 H390 0.950 . S
C398 C399 1.386 . S
C398 C400 1.391 . S
C399 C398 1.386 . S
C399 C403 1.393 . S
C400 H392 0.950 . S
C400 C398 1.391 . S
C400 C401 1.400 1_455 S
C401 C400 1.400 1_655 S
C401 C402 1.398 1_655 S
C401 C407 1.491 . S
C402 H393 0.950 1_455 S
C402 C401 1.398 1_455 S
C402 C403 1.391 . S
C403 H391 0.950 . S
C403 C399 1.393 . S
C403 C402 1.391 . S
C404 H394 0.950 . S
C404 C405 1.386 . S
C404 C406 1.391 . S
C405 C404 1.386 . S
C405 C409 1.393 . S
C406 H395 0.950 . S
C406 C404 1.391 . S
C406 C407 1.400 . S
C407 C401 1.491 . S
C407 C406 1.400 . S
C407 C408 1.398 . S
C408 H396 0.950 . S
C408 C407 1.398 . S
C408 C409 1.391 . S
C409 H397 0.950 . S
C409 C405 1.393 . S
C409 C408 1.391 . S
H410 C418 0.950 . S
H411 C423 0.950 . S
H412 C420 0.950 . S
H413 C422 0.950 . S
H414 C424 0.950 . S
H415 C426 0.950 . S
H416 C428 0.950 . S
H417 C429 0.950 . S
C418 H410 0.950 . S
C418 C419 1.386 . S
C418 C420 1.391 . S
C419 C418 1.386 . S
C419 C423 1.393 . S
C420 H412 0.950 . S
C420 C418 1.391 . S
C420 C421 1.400 . S
C421 C420 1.400 . S
C421 C422 1.398 . S
C421 C427 1.491 . S
C422 H413 0.950 . S
C422 C421 1.398 . S
C422 C423 1.391 . S
C423 H411 0.950 . S
C423 C419 1.393 . S
C423 C422 1.391 . S
C424 H414 0.950 . S
C424 C425 1.386 . S
C424 C426 1.391 . S
C425 C424 1.386 . S
C425 C429 1.393 . S
C426 H415 0.950 . S
C426 C424 1.391 . S
C426 C427 1.400 . S
C427 C421 1.491 . S
C427 C426 1.400 . S
C427 C428 1.398 . S
C428 H416 0.950 . S
C428 C427 1.398 . S
C428 C429 1.391 . S
C429 H417 0.950 . S
C429 C425 1.393 . S
C429 C428 1.391 . S
H430 C438 0.950 . S
H431 C443 0.950 . S
H432 C440 0.950 . S
H433 C442 0.950 . S
H434 C444 0.950 . S
H435 C446 0.950 . S
H436 C448 0.950 . S
H437 C449 0.950 . S
C438 H430 0.950 . S
C438 C439 1.386 . S
C438 C440 1.391 . S
C439 C438 1.386 . S
C439 C443 1.393 . S
C440 H432 0.950 . S
C440 C438 1.391 . S
C440 C441 1.400 . S
C441 C440 1.400 . S
C441 C442 1.398 . S
C441 C447 1.491 . S
C442 H433 0.950 . S
C442 C441 1.398 . S
C442 C443 1.391 . S
C443 H431 0.950 . S
C443 C439 1.393 . S
C443 C442 1.391 . S
C444 H434 0.950 . S
C444 C445 1.386 . S
C444 C446 1.391 1_565 S
C445 C444 1.386 . S
C445 C449 1.393 . S
C446 H435 0.950 . S
C446 C444 1.391 1_545 S
C446 C447 1.400 . S
C447 C441 1.491 . S
C447 C446 1.400 . S
C447 C448 1.398 . S
C448 H436 0.950 . S
C448 C447 1.398 . S
C448 C449 1.391 1_545 S
C449 H437 0.950 . S
C449 C445 1.393 . S
C449 C448 1.391 1_565 S
H450 C458 0.950 . S
H451 C463 0.950 . S
H452 C460 0.950 . S
H453 C462 0.950 . S
H454 C464 0.950 . S
H455 C466 0.950 . S
H456 C468 0.950 . S
H457 C469 0.950 . S
C458 H450 0.950 . S
C458 C459 1.386 1_556 S
C458 C460 1.391 . S
C459 C458 1.386 1_554 S
C459 C463 1.393 . S
C460 H452 0.950 . S
C460 C458 1.391 . S
C460 C461 1.400 1_556 S
C461 C460 1.400 1_554 S
C461 C462 1.398 . S
C461 C467 1.491 . S
C462 H453 0.950 . S
C462 C461 1.398 . S
C462 C463 1.391 . S
C463 H451 0.950 . S
C463 C459 1.393 . S
C463 C462 1.391 . S
C464 H454 0.950 . S
C464 C465 1.386 1_554 S
C464 C466 1.391 . S
C465 C464 1.386 1_556 S
C465 C469 1.393 . S
C466 H455 0.950 . S
C466 C464 1.391 . S
C466 C467 1.400 . S
C467 C461 1.491 . S
C467 C466 1.400 . S
C467 C468 1.398 1_554 S
C468 H456 0.950 . S
C468 C467 1.398 1_556 S
C468 C469 1.391 . S
C469 H457 0.950 . S
C469 C465 1.393 . S
C469 C468 1.391 . S
H470 C478 0.950 . S
H471 C483 0.950 . S
H472 C480 0.950 . S
H473 C482 0.950 . S
H474 C484 0.950 . S
H475 C486 0.950 . S
H476 C488 0.950 . S
H477 C489 0.950 . S
C478 H470 0.950 . S
C478 C479 1.386 . S
C478 C480 1.391 . S
C479 C478 1.386 . S
C479 C483 1.393 1_556 S
C480 H472 0.950 . S
C480 C478 1.391 . S
C480 C481 1.400 1_556 S
C481 C480 1.400 1_554 S
C481 C482 1.398 . S
C481 C487 1.491 . S
C482 H473 0.950 . S
C482 C481 1.398 . S
C482 C483 1.391 . S
C483 H471 0.950 . S
C483 C479 1.393 1_554 S
C483 C482 1.391 . S
C484 H474 0.950 . S
C484 C485 1.386 . S
C484 C486 1.391 . S
C485 C484 1.386 . S
C485 C489 1.393 1_554 S
C486 H475 0.950 . S
C486 C484 1.391 . S
C486 C487 1.400 1_545 S
C487 C481 1.491 . S
C487 C486 1.400 1_565 S
C487 C488 1.398 1_564 S
C488 H476 0.950 . S
C488 C487 1.398 1_546 S
C488 C489 1.391 . S
C489 H477 0.950 . S
C489 C485 1.393 1_556 S
C489 C488 1.391 . S
H490 C498 0.950 . S
H491 C503 0.950 . S
H492 C500 0.950 . S
H493 C502 0.950 . S
H494 C504 0.950 . S
H495 C506 0.950 . S
H496 C508 0.950 . S
H497 C509 0.950 1_554 S
C498 H490 0.950 . S
C498 C499 1.386 . S
C498 C500 1.391 1_655 S
C499 C498 1.386 . S
C499 C503 1.393 . S
C500 H492 0.950 . S
C500 C498 1.391 1_455 S
C500 C501 1.400 . S
C501 C500 1.400 . S
C501 C502 1.398 . S
C501 C507 1.491 . S
C502 H493 0.950 . S
C502 C501 1.398 . S
C502 C503 1.391 1_455 S
C503 H491 0.950 . S
C503 C499 1.393 . S
C503 C502 1.391 1_655 S
C504 H494 0.950 . S
C504 C505 1.386 . S
C504 C506 1.391 . S
C505 C504 1.386 . S
C505 C509 1.393 . S
C506 H495 0.950 . S
C506 C504 1.391 . S
C506 C507 1.400 1_556 S
C507 C501 1.491 . S
C507 C506 1.400 1_554 S
C507 C508 1.398 . S
C508 H496 0.950 . S
C508 C507 1.398 . S
C508 C509 1.391 1_554 S
C509 H497 0.950 1_556 S
C509 C505 1.393 . S
C509 C508 1.391 1_556 S
H510 C518 0.950 . S
H511 C523 0.950 . S
H512 C520 0.950 . S
H513 C522 0.950 . S
H514 C524 0.950 . S
H515 C526 0.950 . S
H516 C528 0.950 . S
H517 C529 0.950 . S
C518 H510 0.950 . S
C518 C519 1.386 . S
C518 C520 1.391 . S
C519 C518 1.386 . S
C519 C523 1.393 . S
C520 H512 0.950 . S
C520 C518 1.391 . S
C520 C521 1.400 . S
C521 C520 1.400 . S
C521 C522 1.398 . S
C521 C527 1.491 . S
C522 H513 0.950 . S
C522 C521 1.398 . S
C522 C523 1.391 . S
C523 H511 0.950 . S
C523 C519 1.393 . S
C523 C522 1.391 . S
C524 H514 0.950 . S
C524 C525 1.386 . S
C524 C526 1.391 . S
C525 C524 1.386 . S
C525 C529 1.393 . S
C526 H515 0.950 . S
C526 C524 1.391 . S
C526 C527 1.400 . S
C527 C521 1.491 . S
C527 C526 1.400 . S
C527 C528 1.398 . S
C528 H516 0.950 . S
C528 C527 1.398 . S
C528 C529 1.391 . S
C529 H517 0.950 . S
C529 C525 1.393 . S
C529 C528 1.391 . S
H530 C538 0.950 . S
H531 C543 0.950 . S
H532 C540 0.950 . S
H533 C542 0.950 . S
H534 C544 0.950 . S
H535 C546 0.950 . S
H536 C548 0.950 . S
H537 C549 0.950 . S
C538 H530 0.950 . S
C538 C539 1.386 . S
C538 C540 1.391 . S
C539 C538 1.386 . S
C539 C543 1.393 . S
C540 H532 0.950 . S
C540 C538 1.391 . S
C540 C541 1.400 . S
C541 C540 1.400 . S
C541 C542 1.398 . S
C541 C547 1.491 . S
C542 H533 0.950 . S
C542 C541 1.398 . S
C542 C543 1.391 . S
C543 H531 0.950 . S
C543 C539 1.393 . S
C543 C542 1.391 . S
C544 H534 0.950 . S
C544 C545 1.386 . S
C544 C546 1.391 . S
C545 C544 1.386 . S
C545 C549 1.393 . S
C546 H535 0.950 . S
C546 C544 1.391 . S
C546 C547 1.400 . S
C547 C541 1.491 . S
C547 C546 1.400 . S
C547 C548 1.398 . S
C548 H536 0.950 . S
C548 C547 1.398 . S
C548 C549 1.391 . S
C549 H537 0.950 . S
C549 C545 1.393 . S
C549 C548 1.391 . S
H550 C558 0.950 . S
H551 C563 0.950 . S
H552 C560 0.950 . S
H553 C562 0.950 . S
H554 C564 0.950 . S
H555 C566 0.950 . S
H556 C568 0.950 . S
H557 C569 0.950 . S
C558 H550 0.950 . S
C558 C559 1.386 . S
C558 C560 1.391 . S
C559 C558 1.386 . S
C559 C563 1.393 . S
C560 H552 0.950 . S
C560 C558 1.391 . S
C560 C561 1.400 . S
C561 C560 1.400 . S
C561 C562 1.398 . S
C561 C567 1.491 . S
C562 H553 0.950 . S
C562 C561 1.398 . S
C562 C563 1.391 . S
C563 H551 0.950 . S
C563 C559 1.393 . S
C563 C562 1.391 . S
C564 H554 0.950 . S
C564 C565 1.386 . S
C564 C566 1.391 . S
C565 C564 1.386 . S
C565 C569 1.393 . S
C566 H555 0.950 . S
C566 C564 1.391 . S
C566 C567 1.400 . S
C567 C561 1.491 . S
C567 C566 1.400 . S
C567 C568 1.398 . S
C568 H556 0.950 . S
C568 C567 1.398 . S
C568 C569 1.391 . S
C569 H557 0.950 . S
C569 C565 1.393 . S
C569 C568 1.391 . S
H570 C578 0.950 . S
H571 C583 0.950 . S
H572 C580 0.950 . S
H573 C582 0.950 . S
H574 C584 0.950 . S
H575 C586 0.950 . S
H576 C588 0.950 . S
H577 C589 0.950 . S
C578 H570 0.950 . S
C578 C579 1.386 . S
C578 C580 1.391 . S
C579 C578 1.386 . S
C579 C583 1.393 . S
C580 H572 0.950 . S
C580 C578 1.391 . S
C580 C581 1.400 . S
C581 C580 1.400 . S
C581 C582 1.398 . S
C581 C587 1.491 . S
C582 H573 0.950 . S
C582 C581 1.398 . S
C582 C583 1.391 . S
C583 H571 0.950 . S
C583 C579 1.393 . S
C583 C582 1.391 . S
C584 H574 0.950 . S
C584 C585 1.386 . S
C584 C586 1.391 . S
C585 C584 1.386 . S
C585 C589 1.393 . S
C586 H575 0.950 . S
C586 C584 1.391 . S
C586 C587 1.400 . S
C587 C581 1.491 . S
C587 C586 1.400 . S
C587 C588 1.398 . S
C588 H576 0.950 . S
C588 C587 1.398 . S
C588 C589 1.391 . S
C589 H577 0.950 . S
C589 C585 1.393 . S
C589 C588 1.391 . S
H590 C598 0.950 . S
H591 C603 0.950 . S
H592 C600 0.950 . S
H593 C602 0.950 . S
H594 C604 0.950 . S
H595 C606 0.950 . S
H596 C608 0.950 . S
H597 C609 0.950 . S
C598 H590 0.950 . S
C598 C599 1.386 . S
C598 C600 1.391 . S
C599 C598 1.386 . S
C599 C603 1.393 . S
C600 H592 0.950 . S
C600 C598 1.391 . S
C600 C601 1.400 . S
C601 C600 1.400 . S
C601 C602 1.398 . S
C601 C607 1.491 . S
C602 H593 0.950 . S
C602 C601 1.398 . S
C602 C603 1.391 . S
C603 H591 0.950 . S
C603 C599 1.393 . S
C603 C602 1.391 . S
C604 H594 0.950 . S
C604 C605 1.386 . S
C604 C606 1.391 . S
C605 C604 1.386 . S
C605 C609 1.393 . S
C606 H595 0.950 . S
C606 C604 1.391 . S
C606 C607 1.400 . S
C607 C601 1.491 . S
C607 C606 1.400 . S
C607 C608 1.398 . S
C608 H596 0.950 . S
C608 C607 1.398 . S
C608 C609 1.391 . S
C609 H597 0.950 . S
C609 C605 1.393 . S
C609 C608 1.391 . S
H610 C618 0.950 . S
H611 C623 0.950 . S
H612 C620 0.950 . S
H613 C622 0.950 . S
H614 C624 0.950 . S
H615 C626 0.950 . S
H616 C628 0.950 . S
H617 C629 0.950 . S
C618 H610 0.950 . S
C618 C619 1.386 . S
C618 C620 1.391 . S
C619 C618 1.386 . S
C619 C623 1.393 . S
C620 H612 0.950 . S
C620 C618 1.391 . S
C620 C621 1.400 . S
C621 C620 1.400 . S
C621 C622 1.398 . S
C621 C627 1.491 . S
C622 H613 0.950 . S
C622 C621 1.398 . S
C622 C623 1.391 . S
C623 H611 0.950 . S
C623 C619 1.393 . S
C623 C622 1.391 . S
C624 H614 0.950 . S
C624 C625 1.386 . S
C624 C626 1.391 . S
C625 C624 1.386 . S
C625 C629 1.393 . S
C626 H615 0.950 . S
C626 C624 1.391 . S
C626 C627 1.400 . S
C627 C621 1.491 . S
C627 C626 1.400 . S
C627 C628 1.398 . S
C628 H616 0.950 . S
C628 C627 1.398 . S
C628 C629 1.391 . S
C629 H617 0.950 . S
C629 C625 1.393 . S
C629 C628 1.391 . S
H630 C638 0.950 . S
H631 C643 0.950 . S
H632 C640 0.950 . S
H633 C642 0.946 1_655 S
H634 C644 0.950 . S
H635 C646 0.950 . S
H636 C648 0.950 . S
H637 C649 0.950 . S
C638 H630 0.950 . S
C638 C639 1.386 . S
C638 C640 1.391 . S
C639 C638 1.386 . S
C639 C643 1.393 1_455 S
C640 H632 0.950 . S
C640 C638 1.391 . S
C640 C641 1.400 . S
C641 C640 1.400 . S
C641 C642 1.403 . S
C641 C647 1.491 . S
C642 H633 0.946 1_455 S
C642 C641 1.403 . S
C642 C643 1.390 1_455 S
C643 H631 0.950 . S
C643 C639 1.393 1_655 S
C643 C642 1.390 1_655 S
C644 H634 0.950 . S
C644 C645 1.386 . S
C644 C646 1.391 . S
C645 C644 1.386 . S
C645 C649 1.393 . S
C646 H635 0.950 . S
C646 C644 1.391 . S
C646 C647 1.400 . S
C647 C641 1.491 . S
C647 C646 1.400 . S
C647 C648 1.398 . S
C648 H636 0.950 . S
C648 C647 1.398 . S
C648 C649 1.391 . S
C649 H637 0.950 . S
C649 C645 1.393 . S
C649 C648 1.391 . S
H650 C658 0.950 . S
H651 C663 0.950 . S
H652 C660 0.950 . S
H653 C662 0.950 . S
H654 C664 0.950 . S
H655 C666 0.950 . S
H656 C668 0.950 . S
H657 C669 0.950 . S
C658 H650 0.950 . S
C658 C659 1.386 . S
C658 C660 1.391 . S
C659 C658 1.386 . S
C659 C663 1.393 . S
C660 H652 0.950 . S
C660 C658 1.391 . S
C660 C661 1.400 . S
C661 C660 1.400 . S
C661 C662 1.398 . S
C661 C667 1.491 . S
C662 H653 0.950 . S
C662 C661 1.398 . S
C662 C663 1.391 . S
C663 H651 0.950 . S
C663 C659 1.393 . S
C663 C662 1.391 . S
C664 H654 0.950 . S
C664 C665 1.386 . S
C664 C666 1.391 . S
C665 C664 1.386 . S
C665 C669 1.393 . S
C666 H655 0.950 . S
C666 C664 1.391 . S
C666 C667 1.400 . S
C667 C661 1.491 . S
C667 C666 1.400 . S
C667 C668 1.398 . S
C668 H656 0.950 . S
C668 C667 1.398 . S
C668 C669 1.391 . S
C669 H657 0.950 . S
C669 C665 1.393 . S
C669 C668 1.391 . S
H670 C678 0.918 1_565 S
H671 C683 0.950 . S
H672 C680 0.950 . S
H673 C682 0.950 . S
H674 C684 0.950 . S
H675 C686 0.950 . S
H676 C688 0.950 . S
H677 C689 0.950 . S
C678 H670 0.918 1_545 S
C678 C679 1.421 . S
C678 C680 1.388 1_545 S
C679 C678 1.421 . S
C679 C683 1.393 . S
C680 H672 0.950 . S
C680 C678 1.388 1_565 S
C680 C681 1.400 1_565 S
C681 C680 1.400 1_545 S
C681 C682 1.398 . S
C681 C687 1.491 . S
C682 H673 0.950 . S
C682 C681 1.398 . S
C682 C683 1.391 . S
C683 H671 0.950 . S
C683 C679 1.393 . S
C683 C682 1.391 . S
C684 H674 0.950 . S
C684 C685 1.386 . S
C684 C686 1.391 . S
C685 C684 1.386 . S
C685 C689 1.393 1_545 S
C686 H675 0.950 . S
C686 C684 1.391 . S
C686 C687 1.400 . S
C687 C681 1.491 . S
C687 C686 1.400 . S
C687 C688 1.398 1_545 S
C688 H676 0.950 . S
C688 C687 1.398 1_565 S
C688 C689 1.391 . S
C689 H677 0.950 . S
C689 C685 1.393 1_565 S
C689 C688 1.391 . S
H690 C698 0.950 . S
H691 C703 0.950 . S
H692 C700 0.950 . S
H693 C702 0.950 . S
H694 C704 0.950 . S
H695 C706 0.950 . S
H696 C708 0.950 . S
H697 C709 0.950 . S
C698 H690 0.950 . S
C698 C699 1.386 . S
C698 C700 1.391 . S
C699 C698 1.386 . S
C699 C703 1.393 . S
C700 H692 0.950 . S
C700 C698 1.391 . S
C700 C701 1.400 . S
C701 C700 1.400 . S
C701 C702 1.398 . S
C701 C707 1.491 . S
C702 H693 0.950 . S
C702 C701 1.398 . S
C702 C703 1.391 . S
C703 H691 0.950 . S
C703 C699 1.393 . S
C703 C702 1.391 . S
C704 H694 0.950 . S
C704 C705 1.386 . S
C704 C706 1.391 1_554 S
C705 C704 1.386 . S
C705 C709 1.393 . S
C706 H695 0.950 . S
C706 C704 1.391 1_556 S
C706 C707 1.400 . S
C707 C701 1.491 . S
C707 C706 1.400 . S
C707 C708 1.398 . S
C708 H696 0.950 . S
C708 C707 1.398 . S
C708 C709 1.391 1_556 S
C709 H697 0.950 . S
C709 C705 1.393 . S
C709 C708 1.391 1_554 S
H710 C718 0.950 . S
H711 C723 0.950 . S
H712 C720 0.950 . S
H713 C722 0.950 . S
H714 C724 0.950 . S
H715 C726 0.950 . S
H716 C728 0.950 . S
H717 C729 0.950 . S
C718 H710 0.950 . S
C718 C719 1.386 . S
C718 C720 1.391 . S
C719 C718 1.386 . S
C719 C723 1.393 . S
C720 H712 0.950 . S
C720 C718 1.391 . S
C720 C721 1.400 . S
C721 C720 1.400 . S
C721 C722 1.398 . S
C721 C727 1.491 . S
C722 H713 0.950 . S
C722 C721 1.398 . S
C722 C723 1.391 . S
C723 H711 0.950 . S
C723 C719 1.393 . S
C723 C722 1.391 . S
C724 H714 0.950 . S
C724 C725 1.386 . S
C724 C726 1.391 1_554 S
C725 C724 1.386 . S
C725 C729 1.393 . S
C726 H715 0.950 . S
C726 C724 1.391 1_556 S
C726 C727 1.400 . S
C727 C721 1.491 . S
C727 C726 1.400 . S
C727 C728 1.398 . S
C728 H716 0.950 . S
C728 C727 1.398 . S
C728 C729 1.391 1_556 S
C729 H717 0.950 . S
C729 C725 1.393 . S
C729 C728 1.391 1_554 S
H730 C738 0.950 . S
H731 C743 0.950 . S
H732 C740 0.950 . S
H733 C742 0.950 . S
H734 C744 0.950 . S
H735 C746 0.950 . S
H736 C748 0.950 . S
H737 C749 0.950 . S
C738 H730 0.950 . S
C738 C739 1.386 . S
C738 C740 1.391 . S
C739 C738 1.386 . S
C739 C743 1.393 . S
C740 H732 0.950 . S
C740 C738 1.391 . S
C740 C741 1.400 . S
C741 C740 1.400 . S
C741 C742 1.398 . S
C741 C747 1.491 . S
C742 H733 0.950 . S
C742 C741 1.398 . S
C742 C743 1.391 . S
C743 H731 0.950 . S
C743 C739 1.393 . S
C743 C742 1.391 . S
C744 H734 0.950 . S
C744 C745 1.386 . S
C744 C746 1.391 1_554 S
C745 C744 1.386 . S
C745 C749 1.393 . S
C746 H735 0.950 . S
C746 C744 1.391 1_556 S
C746 C747 1.400 . S
C747 C741 1.491 . S
C747 C746 1.400 . S
C747 C748 1.398 . S
C748 H736 0.950 . S
C748 C747 1.398 . S
C748 C749 1.391 1_556 S
C749 H737 0.950 . S
C749 C745 1.393 . S
C749 C748 1.391 1_554 S
H750 C758 0.950 . S
H751 C763 0.950 . S
H752 C760 0.950 . S
H753 C762 0.950 . S
H754 C764 0.950 . S
H755 C766 0.950 . S
H756 C768 0.950 . S
H757 C769 0.950 . S
C758 H750 0.950 . S
C758 C759 1.386 . S
C758 C760 1.391 . S
C759 C758 1.386 . S
C759 C763 1.393 . S
C760 H752 0.950 . S
C760 C758 1.391 . S
C760 C761 1.400 . S
C761 C760 1.400 . S
C761 C762 1.398 . S
C761 C767 1.491 . S
C762 H753 0.950 . S
C762 C761 1.398 . S
C762 C763 1.391 . S
C763 H751 0.950 . S
C763 C759 1.393 . S
C763 C762 1.391 . S
C764 H754 0.950 . S
C764 C765 1.386 . S
C764 C766 1.391 1_556 S
C765 C764 1.386 . S
C765 C769 1.393 . S
C766 H755 0.950 . S
C766 C764 1.391 1_554 S
C766 C767 1.400 . S
C767 C761 1.491 . S
C767 C766 1.400 . S
C767 C768 1.398 . S
C768 H756 0.950 . S
C768 C767 1.398 . S
C768 C769 1.391 1_554 S
C769 H757 0.950 . S
C769 C765 1.393 . S
C769 C768 1.391 1_556 S
H770 C778 0.950 . S
H771 C783 0.950 . S
H772 C780 0.950 . S
H773 C782 0.950 . S
H774 C784 0.950 . S
H775 C786 0.950 . S
H776 C788 0.950 . S
H777 C789 0.950 . S
C778 H770 0.950 . S
C778 C779 1.386 . S
C778 C780 1.391 1_556 S
C779 C778 1.386 . S
C779 C783 1.393 . S
C780 H772 0.950 . S
C780 C778 1.391 1_554 S
C780 C781 1.400 . S
C781 C780 1.400 . S
C781 C782 1.398 . S
C781 C787 1.491 . S
C782 H773 0.950 . S
C782 C781 1.398 . S
C782 C783 1.391 1_554 S
C783 H771 0.950 . S
C783 C779 1.393 . S
C783 C782 1.391 1_556 S
C784 H774 0.950 . S
C784 C785 1.386 . S
C784 C786 1.391 . S
C785 C784 1.386 . S
C785 C789 1.393 . S
C786 H775 0.950 . S
C786 C784 1.391 . S
C786 C787 1.400 . S
C787 C781 1.491 . S
C787 C786 1.400 . S
C787 C788 1.398 . S
C788 H776 0.950 . S
C788 C787 1.398 . S
C788 C789 1.391 . S
C789 H777 0.950 . S
C789 C785 1.393 . S
C789 C788 1.391 . S
H790 C798 0.950 . S
H791 C803 0.950 . S
H792 C800 0.950 . S
H793 C802 0.950 . S
H794 C804 0.950 . S
H795 C806 0.950 . S
H796 C808 0.950 . S
H797 C809 0.950 . S
C798 H790 0.950 . S
C798 C799 1.386 . S
C798 C800 1.391 . S
C799 C798 1.386 . S
C799 C803 1.393 . S
C800 H792 0.950 . S
C800 C798 1.391 . S
C800 C801 1.400 . S
C801 C800 1.400 . S
C801 C802 1.398 . S
C801 C807 1.491 . S
C802 H793 0.950 . S
C802 C801 1.398 . S
C802 C803 1.391 . S
C803 H791 0.950 . S
C803 C799 1.393 . S
C803 C802 1.391 . S
C804 H794 0.950 . S
C804 C805 1.386 . S
C804 C806 1.391 1_556 S
C805 C804 1.386 . S
C805 C809 1.393 . S
C806 H795 0.950 . S
C806 C804 1.391 1_554 S
C806 C807 1.400 . S
C807 C801 1.491 . S
C807 C806 1.400 . S
C807 C808 1.398 . S
C808 H796 0.950 . S
C808 C807 1.398 . S
C808 C809 1.391 1_554 S
C809 H797 0.950 . S
C809 C805 1.393 . S
C809 C808 1.391 1_556 S
C279 N14 1.381 . S
C285 C237 1.466 . S
C299 N44 1.367 . S
C305 C267 1.461 . S
C319 N74 1.345 . S
C325 C207 1.449 . S
C339 N134 1.381 . S
C345 C87 1.466 . S
C359 N164 1.363 . S
C365 C27 1.459 . S
C379 C57 1.465 . S
C385 N104 1.378 . S
C399 N224 1.343 . S
C405 C177 1.447 . S
C419 N254 1.363 . S
C425 C117 1.459 . S
C439 C147 1.445 . S
C445 N194 1.341 . S
C459 N66 1.184 . S
C465 C16 1.180 . S
C479 C46 1.184 . S
C485 N6 1.180 . S
C499 N36 1.170 . S
C505 C76 1.186 . S
C519 C106 1.177 . S
C525 N156 1.185 . S
C539 N96 1.172 . S
C545 C136 1.188 . S
C559 N126 1.170 . S
C565 C166 1.188 . S
C579 N246 1.171 . S
C585 C196 1.188 . S
C599 C226 1.183 . S
C605 N186 1.181 . S
C619 C256 1.187 . S
C625 N216 1.170 . S
C639 C10 1.096 . S
C645 C1 1.096 . S
C659 C40 1.095 . S
C665 C31 1.095 . S
C679 C70 1.093 . S
C685 C61 1.093 . S
C699 C91 1.095 . S
C705 C100 1.095 . S
C719 C121 1.094 . S
C725 C130 1.094 . S
C739 C151 1.096 . S
C745 C160 1.096 . S
C759 C190 1.093 . S
C765 C181 1.093 . S
C779 C211 1.093 . S
C785 C220 1.093 . S
C799 C250 1.095 . S
C805 C241 1.095 . S
