# Generated by pormake.
# Topology pcl, (4)-cn, num edge types: 1
# Building blocks:
#     Node 0, Type 0, BuildingBlock: ICAMEG_clean_sbu_1, # of connection points: 4
#     Node 1, Type 0, BuildingBlock: ICAMEG_clean_sbu_1, # of connection points: 4
#     Node 2, Type 0, BuildingBlock: ICAMEG_clean_sbu_1, # of connection points: 4
#     Node 3, Type 0, BuildingBlock: ICAMEG_clean_sbu_1, # of connection points: 4
#     Node 4, Type 0, BuildingBlock: ICAMEG_clean_sbu_1, # of connection points: 4
#     Node 5, Type 0, BuildingBlock: ICAMEG_clean_sbu_1, # of connection points: 4
#     Node 6, Type 0, BuildingBlock: ICAMEG_clean_sbu_1, # of connection points: 4
#     Node 7, Type 0, BuildingBlock: ICAMEG_clean_sbu_1, # of connection points: 4
#     Node 8, Type 0, BuildingBlock: ICAMEG_clean_sbu_1, # of connection points: 4
#     Node 9, Type 0, BuildingBlock: ICAMEG_clean_sbu_1, # of connection points: 4
#     Node 10, Type 0, BuildingBlock: ICAMEG_clean_sbu_1, # of connection points: 4
#     Node 11, Type 0, BuildingBlock: ICAMEG_clean_sbu_1, # of connection points: 4
#     Node 12, Type 0, BuildingBlock: ICAMEG_clean_sbu_1, # of connection points: 4
#     Node 13, Type 0, BuildingBlock: ICAMEG_clean_sbu_1, # of connection points: 4
#     Node 14, Type 0, BuildingBlock: ICAMEG_clean_sbu_1, # of connection points: 4
#     Node 15, Type 0, BuildingBlock: ICAMEG_clean_sbu_1, # of connection points: 4
#     Edge 16, Type (0, 0), BuildingBlock: AJUNOK_clean_linker_0, # of connection points: 2
#     Edge 17, Type (0, 0), BuildingBlock: AJUNOK_clean_linker_0, # of connection points: 2
#     Edge 18, Type (0, 0), BuildingBlock: AJUNOK_clean_linker_0, # of connection points: 2
#     Edge 19, Type (0, 0), BuildingBlock: AJUNOK_clean_linker_0, # of connection points: 2
#     Edge 20, Type (0, 0), BuildingBlock: AJUNOK_clean_linker_0, # of connection points: 2
#     Edge 21, Type (0, 0), BuildingBlock: AJUNOK_clean_linker_0, # of connection points: 2
#     Edge 22, Type (0, 0), BuildingBlock: AJUNOK_clean_linker_0, # of connection points: 2
#     Edge 23, Type (0, 0), BuildingBlock: AJUNOK_clean_linker_0, # of connection points: 2
#     Edge 24, Type (0, 0), BuildingBlock: AJUNOK_clean_linker_0, # of connection points: 2
#     Edge 25, Type (0, 0), BuildingBlock: AJUNOK_clean_linker_0, # of connection points: 2
#     Edge 26, Type (0, 0), BuildingBlock: AJUNOK_clean_linker_0, # of connection points: 2
#     Edge 27, Type (0, 0), BuildingBlock: AJUNOK_clean_linker_0, # of connection points: 2
#     Edge 28, Type (0, 0), BuildingBlock: AJUNOK_clean_linker_0, # of connection points: 2
#     Edge 29, Type (0, 0), BuildingBlock: AJUNOK_clean_linker_0, # of connection points: 2
#     Edge 30, Type (0, 0), BuildingBlock: AJUNOK_clean_linker_0, # of connection points: 2
#     Edge 31, Type (0, 0), BuildingBlock: AJUNOK_clean_linker_0, # of connection points: 2
#     Edge 32, Type (0, 0), BuildingBlock: AJUNOK_clean_linker_0, # of connection points: 2
#     Edge 33, Type (0, 0), BuildingBlock: AJUNOK_clean_linker_0, # of connection points: 2
#     Edge 34, Type (0, 0), BuildingBlock: AJUNOK_clean_linker_0, # of connection points: 2
#     Edge 35, Type (0, 0), BuildingBlock: AJUNOK_clean_linker_0, # of connection points: 2
#     Edge 36, Type (0, 0), BuildingBlock: AJUNOK_clean_linker_0, # of connection points: 2
#     Edge 37, Type (0, 0), BuildingBlock: AJUNOK_clean_linker_0, # of connection points: 2
#     Edge 38, Type (0, 0), BuildingBlock: AJUNOK_clean_linker_0, # of connection points: 2
#     Edge 39, Type (0, 0), BuildingBlock: AJUNOK_clean_linker_0, # of connection points: 2
#     Edge 40, Type (0, 0), BuildingBlock: AJUNOK_clean_linker_0, # of connection points: 2
#     Edge 41, Type (0, 0), BuildingBlock: AJUNOK_clean_linker_0, # of connection points: 2
#     Edge 42, Type (0, 0), BuildingBlock: AJUNOK_clean_linker_0, # of connection points: 2
#     Edge 43, Type (0, 0), BuildingBlock: AJUNOK_clean_linker_0, # of connection points: 2
#     Edge 44, Type (0, 0), BuildingBlock: AJUNOK_clean_linker_0, # of connection points: 2
#     Edge 45, Type (0, 0), BuildingBlock: AJUNOK_clean_linker_0, # of connection points: 2
#     Edge 46, Type (0, 0), BuildingBlock: AJUNOK_clean_linker_0, # of connection points: 2
#     Edge 47, Type (0, 0), BuildingBlock: AJUNOK_clean_linker_0, # of connection points: 2
# Relax obj value: 0.093
# Max RMSD: 0.121
# Mean RMSD: 0.116
data_MOF--net-pcl--node1-ICAMEG_clean_sbu_1--edge1-AJUNOK_clean_linker_0
_symmetry_space_group_name_H-M    P1
_symmetry_Int_Tables_number       1
_symmetry_cell_setting            triclinic
loop_
_symmetry_equiv_pos_as_xyz
'x, y, z'
_cell_length_a     40.913412
_cell_length_b     32.496355
_cell_length_c     34.955358
_cell_angle_alpha  90.115202
_cell_angle_beta   90.071857
_cell_angle_gamma 90.063199
loop_
_atom_site_label
_atom_site_type_symbol
_atom_site_fract_x
_atom_site_fract_y
_atom_site_fract_z
_atom_type_partial_charge
Co0 Co 0.14644 0.38953 0.12552 0.0
Co1 Co 0.13787 0.29084 0.09221 0.0
O2 O 0.15875 0.34521 0.09015 0.0
C3 C 0.14121 0.43101 0.05078 0.0
O4 O 0.12493 0.39873 0.03853 0.0
C5 C 0.2096 0.27017 0.08528 0.0
O6 O 0.21621 0.29828 0.11121 0.0
O7 O 0.15062 0.28535 0.14747 0.0
O8 O 0.13946 0.34944 0.16783 0.0
H9 H 0.06793 0.18121 0.1517 0.0
H10 H 0.20883 0.39569 0.08306 0.0
O11 O 0.15292 0.43149 0.08448 0.0
H12 H 0.23954 0.39807 0.21955 0.0
H13 H 0.15324 0.53265 0.18014 0.0
H14 H 0.09447 0.40017 0.18388 0.0
H15 H 0.18165 0.3939 0.20028 0.0
H16 H 0.17171 0.47412 0.14075 0.0
O17 O 0.17997 0.26354 0.07562 0.0
H18 H 0.09395 0.24956 0.14739 0.0
H19 H 0.13771 0.21652 0.04171 0.0
H20 H 0.07539 0.45779 0.22404 0.0
H21 H 0.26708 0.40037 0.10107 0.0
H22 H 0.10427 0.525 0.22134 0.0
H23 H 0.28273 0.40141 0.16975 0.0
O24 O 0.09982 0.38416 0.11039 0.0
H25 H 0.15873 0.32752 0.95485 0.0
H26 H 0.07657 0.27768 0.04679 0.0
H27 H 0.0608 0.28818 0.97946 0.0
H28 H 0.10208 0.31323 0.93291 0.0
H29 H 0.17328 0.31717 0.02263 0.0
H30 H 0.11264 0.14761 0.04508 0.0
H31 H 0.07729 0.12964 0.10033 0.0
O32 O 0.09436 0.31573 0.10715 0.0
C33 C 0.14567 0.31163 0.17408 0.0
C34 C 0.08334 0.18863 0.12753 0.0
C35 C 0.10847 0.16974 0.06773 0.0
N36 N 0.11758 0.2369 0.09448 0.0
C37 C 0.09813 0.22728 0.12493 0.0
C38 C 0.12283 0.2087 0.0661 0.0
C39 C 0.08861 0.1597 0.09871 0.0
C40 C 0.21548 0.39655 0.11299 0.0
N41 N 0.1919 0.39464 0.14055 0.0
C42 C 0.24848 0.39904 0.12302 0.0
C43 C 0.25725 0.39957 0.16157 0.0
C44 C 0.23304 0.39767 0.18952 0.0
C45 C 0.20029 0.39521 0.17843 0.0
C46 C 0.14029 0.50363 0.18125 0.0
C47 C 0.10766 0.429 0.18329 0.0
C48 C 0.15063 0.47037 0.15903 0.0
N49 N 0.13412 0.43379 0.15991 0.0
C50 C 0.09662 0.46159 0.20593 0.0
C51 C 0.11288 0.49925 0.2045 0.0
C52 C 0.08214 0.35196 0.10841 0.0
C53 C 0.14054 0.31655 0.97485 0.0
C54 C 0.09456 0.28894 0.02685 0.0
C55 C 0.08555 0.29461 0.98868 0.0
C56 C 0.10873 0.3086 0.96257 0.0
N57 N 0.12577 0.29694 0.03874 0.0
C58 C 0.14866 0.31048 0.01324 0.0
Co59 Co 0.8903 0.62148 0.63242 0.0
Co60 Co 0.8915 0.71887 0.59494 0.0
O61 O 0.87451 0.66236 0.59565 0.0
C62 C 0.89577 0.57857 0.55858 0.0
O63 O 0.90956 0.61224 0.54567 0.0
C64 C 0.82802 0.76589 0.58944 0.0
O65 O 0.83456 0.78353 0.6224 0.0
O66 O 0.87858 0.72555 0.65 0.0
O67 O 0.89512 0.6644 0.67304 0.0
H68 H 0.95245 0.84014 0.64876 0.0
H69 H 0.82742 0.60773 0.59232 0.0
O70 O 0.88577 0.57706 0.59299 0.0
H71 H 0.80086 0.60438 0.7299 0.0
H72 H 0.89402 0.48229 0.69548 0.0
H73 H 0.94393 0.6203 0.68943 0.0
H74 H 0.85756 0.61532 0.70844 0.0
H75 H 0.87196 0.53498 0.65179 0.0
O76 O 0.84704 0.73806 0.57636 0.0
H77 H 0.93219 0.76864 0.6476 0.0
H78 H 0.88487 0.79022 0.5414 0.0
H79 H 0.96652 0.56869 0.73376 0.0
H80 H 0.77031 0.59638 0.61253 0.0
H81 H 0.94188 0.49892 0.73651 0.0
H82 H 0.75675 0.5947 0.68177 0.0
O83 O 0.93574 0.63129 0.61531 0.0
H84 H 0.87463 0.67342 0.45875 0.0
H85 H 0.9519 0.73691 0.54981 0.0
H86 H 0.96864 0.72633 0.48281 0.0
H87 H 0.92988 0.69438 0.43674 0.0
H88 H 0.859 0.68414 0.52612 0.0
H89 H 0.90438 0.862 0.54146 0.0
H90 H 0.93851 0.8874 0.59541 0.0
O91 O 0.93686 0.70028 0.61109 0.0
C92 C 0.88588 0.70152 0.67764 0.0
C93 C 0.93758 0.82946 0.6251 0.0
C94 C 0.91059 0.84174 0.5649 0.0
N95 N 0.90729 0.77526 0.59454 0.0
C96 C 0.92605 0.789 0.62429 0.0
C97 C 0.89951 0.80108 0.56508 0.0
C98 C 0.92975 0.85596 0.59517 0.0
C99 C 0.82167 0.60684 0.62249 0.0
N100 N 0.84576 0.61205 0.64914 0.0
C101 C 0.78931 0.60049 0.63377 0.0
C102 C 0.78172 0.59958 0.67263 0.0
C103 C 0.80644 0.60501 0.69965 0.0
C104 C 0.8385 0.6113 0.68731 0.0
C105 C 0.90507 0.51253 0.69438 0.0
C106 C 0.93274 0.59019 0.69086 0.0
C107 C 0.89271 0.54247 0.66968 0.0
N108 N 0.90657 0.58072 0.66816 0.0
C109 C 0.94574 0.56105 0.71591 0.0
C110 C 0.93188 0.52191 0.71745 0.0
C111 C 0.95104 0.66517 0.61202 0.0
C112 C 0.89171 0.68749 0.47852 0.0
C113 C 0.93487 0.72296 0.52998 0.0
C114 C 0.94447 0.71715 0.49203 0.0
C115 C 0.92272 0.69922 0.4662 0.0
N116 N 0.9044 0.71139 0.54189 0.0
C117 C 0.88294 0.6938 0.51669 0.0
Co118 Co 0.14416 0.62823 0.88979 0.0
Co119 Co 0.13723 0.72585 0.92512 0.0
O120 O 0.15737 0.67081 0.92666 0.0
C121 C 0.14133 0.58278 0.96291 0.0
O122 O 0.12761 0.61533 0.97828 0.0
C123 C 0.20899 0.74254 0.93663 0.0
O124 O 0.2152 0.71417 0.91088 0.0
O125 O 0.15165 0.73251 0.87063 0.0
O126 O 0.13627 0.67034 0.84929 0.0
H127 H 0.06946 0.83833 0.86687 0.0
H128 H 0.20746 0.61902 0.92973 0.0
O129 O 0.1513 0.5838 0.92848 0.0
H130 H 0.23481 0.6236 0.79242 0.0
H131 H 0.15029 0.49032 0.82405 0.0
H132 H 0.08937 0.62064 0.83472 0.0
H133 H 0.17748 0.62763 0.81365 0.0
H134 H 0.16933 0.54527 0.86753 0.0
O135 O 0.17938 0.75159 0.94434 0.0
H136 H 0.09421 0.76925 0.87022 0.0
H137 H 0.13931 0.79968 0.97609 0.0
H138 H 0.0697 0.56677 0.7906 0.0
H139 H 0.2652 0.61444 0.90973 0.0
H140 H 0.09977 0.50066 0.7858 0.0
H141 H 0.27916 0.61689 0.84063 0.0
O142 O 0.09838 0.63347 0.90746 0.0
H143 H 0.15231 0.68607 0.06286 0.0
H144 H 0.0743 0.73834 0.96698 0.0
H145 H 0.05574 0.72661 0.0331 0.0
H146 H 0.09489 0.70038 0.08162 0.0
H147 H 0.16971 0.69756 0.9962 0.0
H148 H 0.11528 0.86919 0.97372 0.0
H149 H 0.07996 0.88885 0.91889 0.0
O150 O 0.09362 0.70221 0.90754 0.0
C151 C 0.14468 0.70756 0.84355 0.0
C152 C 0.08475 0.8301 0.89095 0.0
C153 C 0.11051 0.84744 0.95089 0.0
N154 N 0.11805 0.78037 0.92339 0.0
C155 C 0.09878 0.79101 0.89304 0.0
C156 C 0.12413 0.80807 0.95202 0.0
C157 C 0.09067 0.85844 0.92013 0.0
C158 C 0.21338 0.61968 0.89961 0.0
N159 N 0.18916 0.62353 0.87294 0.0
C160 C 0.24609 0.61724 0.88845 0.0
C161 C 0.25391 0.61869 0.84968 0.0
C162 C 0.22905 0.6225 0.82262 0.0
C163 C 0.19662 0.62491 0.83483 0.0
C164 C 0.13684 0.5189 0.82613 0.0
C165 C 0.10294 0.59226 0.83229 0.0
C166 C 0.1475 0.55011 0.85069 0.0
N167 N 0.13045 0.58611 0.85373 0.0
C168 C 0.09161 0.5618 0.80735 0.0
C169 C 0.10856 0.52476 0.80456 0.0
C170 C 0.08123 0.66604 0.90871 0.0
C171 C 0.13505 0.69764 0.04201 0.0
C172 C 0.09149 0.7268 0.98785 0.0
C173 C 0.08085 0.72034 0.0253 0.0
C174 C 0.10282 0.70562 0.0525 0.0
N175 N 0.12312 0.71874 0.97772 0.0
C176 C 0.14482 0.70442 1.00426 0.0
Co177 Co 0.89287 0.38691 0.3913 0.0
Co178 Co 0.89861 0.28848 0.42442 0.0
O179 O 0.87888 0.34356 0.42662 0.0
C180 C 0.89478 0.42978 0.46583 0.0
O181 O 0.90847 0.3967 0.48017 0.0
C182 C 0.8267 0.27227 0.43081 0.0
O183 O 0.82205 0.29971 0.40385 0.0
O184 O 0.88573 0.28337 0.36918 0.0
O185 O 0.90149 0.34597 0.34981 0.0
H186 H 0.96707 0.17659 0.36611 0.0
H187 H 0.82886 0.39517 0.42976 0.0
O188 O 0.88515 0.43007 0.43121 0.0
H189 H 0.80393 0.39369 0.29167 0.0
H190 H 0.88735 0.52616 0.3285 0.0
H191 H 0.94858 0.39596 0.33787 0.0
H192 H 0.86089 0.38959 0.31433 0.0
H193 H 0.86805 0.4704 0.37065 0.0
O194 O 0.85575 0.26328 0.441 0.0
H195 H 0.94299 0.24602 0.3704 0.0
H196 H 0.8941 0.21322 0.47304 0.0
H197 H 0.9686 0.45075 0.29516 0.0
H198 H 0.77146 0.39982 0.40833 0.0
H199 H 0.93822 0.51666 0.29079 0.0
H200 H 0.75871 0.39889 0.33884 0.0
O201 O 0.93831 0.38098 0.40999 0.0
H202 H 0.87949 0.32422 0.56254 0.0
H203 H 0.95994 0.27339 0.46881 0.0
H204 H 0.97631 0.28205 0.53622 0.0
H205 H 0.93594 0.3076 0.58364 0.0
H206 H 0.86423 0.31555 0.49471 0.0
H207 H 0.91742 0.14336 0.4697 0.0
H208 H 0.9543 0.12471 0.41602 0.0
O209 O 0.9428 0.31211 0.40962 0.0
C210 C 0.89304 0.30896 0.34286 0.0
C211 C 0.95109 0.18437 0.38969 0.0
C212 C 0.92319 0.1657 0.4478 0.0
N213 N 0.91731 0.23372 0.42202 0.0
C214 C 0.93745 0.22366 0.39231 0.0
C215 C 0.90998 0.20528 0.44947 0.0
C216 C 0.9439 0.15527 0.41768 0.0
C217 C 0.82348 0.39523 0.39948 0.0
N218 N 0.84817 0.39218 0.37338 0.0
C219 C 0.79095 0.39769 0.38751 0.0
C220 C 0.78381 0.39709 0.34851 0.0
C221 C 0.80915 0.39413 0.32204 0.0
C222 C 0.84137 0.39168 0.33506 0.0
C223 C 0.90091 0.49765 0.33034 0.0
C224 C 0.93501 0.42438 0.3358 0.0
C225 C 0.89012 0.46599 0.35418 0.0
N226 N 0.90722 0.43 0.35681 0.0
C227 C 0.9465 0.45532 0.31162 0.0
C228 C 0.9294 0.49227 0.30912 0.0
C229 C 0.95521 0.34823 0.41184 0.0
C230 C 0.89727 0.31295 0.54217 0.0
C231 C 0.94222 0.28459 0.48922 0.0
C232 C 0.95162 0.28933 0.5274 0.0
C233 C 0.92896 0.30366 0.55398 0.0
N234 N 0.9111 0.29386 0.47781 0.0
C235 C 0.88873 0.30781 0.50375 0.0
Co236 Co 0.87402 0.63189 0.89576 0.0
Co237 Co 0.88691 0.68044 0.98176 0.0
O238 O 0.8652 0.67699 0.93176 0.0
C239 C 0.88614 0.70068 0.84044 0.0
O240 O 0.90909 0.71518 0.86305 0.0
C241 C 0.81653 0.69125 1.00483 0.0
O242 O 0.80943 0.65796 0.98511 0.0
O243 O 0.8722 0.62353 0.99443 0.0
O244 O 0.87914 0.59098 0.93857 0.0
H245 H 0.95554 0.62645 0.08979 0.0
H246 H 0.8146 0.6827 0.88642 0.0
O247 O 0.86858 0.67037 0.85109 0.0
H248 H 0.7746 0.54056 0.90236 0.0
H249 H 0.85631 0.55033 0.77472 0.0
H250 H 0.92159 0.56316 0.89289 0.0
H251 H 0.8337 0.55546 0.90248 0.0
H252 H 0.8457 0.60661 0.82045 0.0
O253 O 0.84598 0.70424 1.00567 0.0
H254 H 0.9288 0.62396 0.02659 0.0
H255 H 0.89017 0.74373 0.04378 0.0
H256 H 0.93253 0.50587 0.84832 0.0
H257 H 0.75524 0.66913 0.88581 0.0
H258 H 0.89935 0.49878 0.78916 0.0
H259 H 0.73491 0.59762 0.89392 0.0
O260 O 0.92181 0.64435 0.89761 0.0
H261 H 0.87196 0.82407 0.93198 0.0
H262 H 0.95085 0.72497 0.98546 0.0
H263 H 0.96962 0.79437 0.96744 0.0
H264 H 0.93002 0.84454 0.94061 0.0
H265 H 0.8543 0.7541 0.94995 0.0
H266 H 0.91613 0.74741 0.1074 0.0
H267 H 0.94924 0.68851 0.13073 0.0
O268 O 0.92892 0.6582 0.95999 0.0
C269 C 0.87438 0.59056 0.97466 0.0
C270 C 0.94123 0.65235 0.07994 0.0
C271 C 0.91906 0.7202 0.08984 0.0
N272 N 0.90799 0.68371 0.03145 0.0
C273 C 0.92609 0.65116 0.04412 0.0
C274 C 0.90428 0.71788 0.05386 0.0
C275 C 0.93765 0.68716 0.1029 0.0
C276 C 0.80592 0.65148 0.88969 0.0
N277 N 0.82758 0.61992 0.89438 0.0
C278 C 0.77229 0.64399 0.88944 0.0
C279 C 0.7609 0.60387 0.89404 0.0
C280 C 0.78316 0.57184 0.8988 0.0
C281 C 0.8166 0.58049 0.89895 0.0
C282 C 0.87068 0.55284 0.80065 0.0
C283 C 0.90709 0.56031 0.86715 0.0
C284 C 0.86489 0.58476 0.82659 0.0
N285 N 0.88277 0.5879 0.85956 0.0
C286 C 0.91346 0.52789 0.84197 0.0
C287 C 0.89494 0.52405 0.80866 0.0
C288 C 0.94013 0.65091 0.92655 0.0
C289 C 0.88942 0.80253 0.94373 0.0
C290 C 0.93348 0.74653 0.97363 0.0
C291 C 0.94425 0.78584 0.96358 0.0
C292 C 0.92201 0.81397 0.94855 0.0
N293 N 0.90144 0.73557 0.96892 0.0
C294 C 0.87954 0.76293 0.95408 0.0
Co295 Co 0.15853 0.39156 0.38867 0.0
Co296 Co 0.15488 0.34215 0.47601 0.0
O297 O 0.172 0.34729 0.42344 0.0
C298 C 0.16209 0.31606 0.3355 0.0
O299 O 0.17214 0.29014 0.3617 0.0
C300 C 0.21678 0.3347 0.52179 0.0
O301 O 0.20803 0.36788 0.54066 0.0
O302 O 0.16684 0.40081 0.48773 0.0
O303 O 0.15794 0.43222 0.43183 0.0
H304 H 0.09228 0.38867 0.59179 0.0
H305 H 0.21829 0.34207 0.37343 0.0
O306 O 0.15737 0.35395 0.34307 0.0
H307 H 0.25557 0.48623 0.37525 0.0
H308 H 0.16067 0.47531 0.26745 0.0
H309 H 0.10867 0.45721 0.39349 0.0
H310 H 0.19763 0.46928 0.38561 0.0
H311 H 0.17767 0.41885 0.31006 0.0
O312 O 0.19945 0.32213 0.49357 0.0
H313 H 0.11365 0.39414 0.52608 0.0
H314 H 0.16092 0.27853 0.53747 0.0
H315 H 0.09105 0.51424 0.35189 0.0
H316 H 0.27636 0.35753 0.36224 0.0
H317 H 0.11748 0.52403 0.28877 0.0
H318 H 0.29544 0.43011 0.36316 0.0
O319 O 0.11198 0.37722 0.3973 0.0
H320 H 0.17438 0.1997 0.42465 0.0
H321 H 0.09441 0.29163 0.48649 0.0
H322 H 0.07862 0.22034 0.47092 0.0
H323 H 0.1188 0.17373 0.43996 0.0
H324 H 0.189 0.27145 0.44014 0.0
H325 H 0.14025 0.2719 0.6034 0.0
H326 H 0.10558 0.32721 0.63095 0.0
O327 O 0.10983 0.36007 0.45942 0.0
C328 C 0.16336 0.4334 0.46772 0.0
C329 C 0.10734 0.36435 0.58011 0.0
C330 C 0.13427 0.29883 0.58662 0.0
N331 N 0.13846 0.33667 0.52789 0.0
C332 C 0.11949 0.36725 0.54289 0.0
C333 C 0.14595 0.30278 0.54929 0.0
C334 C 0.11482 0.32987 0.60206 0.0
C335 C 0.22617 0.3737 0.37344 0.0
N336 N 0.20431 0.40471 0.37977 0.0
C337 C 0.25921 0.38229 0.36729 0.0
C338 C 0.26991 0.42299 0.36788 0.0
C339 C 0.24757 0.45447 0.37469 0.0
C340 C 0.21474 0.44468 0.38072 0.0
C341 C 0.14914 0.4716 0.29508 0.0
C342 C 0.12021 0.46117 0.36594 0.0
C343 C 0.15863 0.43965 0.31931 0.0
N344 N 0.1446 0.43524 0.35456 0.0
C345 C 0.11008 0.49345 0.34248 0.0
C346 C 0.12485 0.49882 0.30696 0.0
C347 C 0.09609 0.3679 0.42737 0.0
C348 C 0.15668 0.21967 0.43822 0.0
C349 C 0.11199 0.27169 0.47274 0.0
C350 C 0.10293 0.23127 0.46413 0.0
C351 C 0.12548 0.20513 0.44679 0.0
N352 N 0.1427 0.28569 0.4644 0.0
C353 C 0.16486 0.26029 0.4472 0.0
Co354 Co 0.87452 0.38641 0.12824 0.0
Co355 Co 0.8844 0.33623 0.04075 0.0
O356 O 0.86484 0.34104 0.09225 0.0
C357 C 0.87653 0.31018 0.18083 0.0
O358 O 0.86837 0.28305 0.15464 0.0
C359 C 0.81193 0.33161 0.02364 0.0
O360 O 0.80654 0.36039 0.04927 0.0
O361 O 0.8755 0.39592 0.02897 0.0
O362 O 0.87187 0.42721 0.0859 0.0
H363 H 0.95772 0.38084 0.93341 0.0
H364 H 0.81929 0.32816 0.14137 0.0
O365 O 0.87872 0.34838 0.17319 0.0
H366 H 0.76935 0.46594 0.14059 0.0
H367 H 0.8647 0.4651 0.25218 0.0
H368 H 0.91706 0.46021 0.12527 0.0
H369 H 0.82869 0.45775 0.13213 0.0
H370 H 0.85276 0.40828 0.20741 0.0
O371 O 0.8411 0.31978 0.01717 0.0
H372 H 0.93256 0.3855 0.99737 0.0
H373 H 0.87807 0.27654 0.97585 0.0
H374 H 0.92936 0.51788 0.16894 0.0
H375 H 0.75998 0.33485 0.15048 0.0
H376 H 0.90269 0.52092 0.23262 0.0
H377 H 0.73449 0.40416 0.14998 0.0
O378 O 0.92264 0.37999 0.12013 0.0
H379 H 0.85556 0.19462 0.08731 0.0
H380 H 0.94236 0.28125 0.03186 0.0
H381 H 0.95392 0.20853 0.04663 0.0
H382 H 0.91029 0.16464 0.07446 0.0
H383 H 0.8452 0.26766 0.07255 0.0
H384 H 0.90241 0.27091 0.91156 0.0
H385 H 0.94265 0.32323 0.89002 0.0
O386 O 0.92841 0.35021 0.06238 0.0
C387 C 0.87234 0.42831 0.04953 0.0
C388 C 0.94027 0.35781 0.9425 0.0
C389 C 0.90918 0.29616 0.93021 0.0
N390 N 0.90395 0.33128 0.99039 0.0
C391 C 0.92599 0.36024 0.9787 0.0
C392 C 0.89538 0.29959 0.96661 0.0
C393 C 0.93177 0.3255 0.91815 0.0
C394 C 0.80867 0.35844 0.14175 0.0
N395 N 0.82775 0.39253 0.13666 0.0
C396 C 0.77492 0.36204 0.14665 0.0
C397 C 0.76062 0.40091 0.14628 0.0
C398 C 0.78015 0.43556 0.14097 0.0
C399 C 0.8138 0.43073 0.13607 0.0
C400 C 0.87624 0.46432 0.22434 0.0
C401 C 0.90547 0.46123 0.15301 0.0
C402 C 0.86967 0.43216 0.19889 0.0
N403 N 0.88393 0.43117 0.16352 0.0
C404 C 0.91255 0.49393 0.17763 0.0
C405 C 0.89766 0.49553 0.21343 0.0
C406 C 0.94015 0.36556 0.09308 0.0
C407 C 0.87476 0.21341 0.07518 0.0
C408 C 0.92334 0.26245 0.04429 0.0
C409 C 0.92998 0.22124 0.05242 0.0
C410 C 0.90549 0.19663 0.068 0.0
N411 N 0.89317 0.27873 0.05149 0.0
C412 C 0.86902 0.25476 0.06668 0.0
Co413 Co 0.1572 0.63143 0.62729 0.0
Co414 Co 0.14803 0.68511 0.54244 0.0
O415 O 0.16764 0.6782 0.59365 0.0
C416 C 0.15919 0.70533 0.68204 0.0
O417 O 0.16538 0.73248 0.65532 0.0
C418 C 0.2196 0.69129 0.52458 0.0
O419 O 0.22426 0.65814 0.54529 0.0
O420 O 0.16003 0.62758 0.52764 0.0
O421 O 0.15655 0.59266 0.58258 0.0
H422 H 0.07931 0.64252 0.42992 0.0
H423 H 0.2154 0.68401 0.64245 0.0
O424 O 0.15659 0.6671 0.67441 0.0
H425 H 0.25841 0.54328 0.62811 0.0
H426 H 0.16781 0.54352 0.74525 0.0
H427 H 0.11107 0.56137 0.62184 0.0
H428 H 0.19929 0.55656 0.62324 0.0
H429 H 0.18035 0.60289 0.70394 0.0
O430 O 0.19086 0.70598 0.5212 0.0
H431 H 0.10395 0.63486 0.49392 0.0
H432 H 0.15179 0.75016 0.48231 0.0
H433 H 0.09814 0.50119 0.66201 0.0
H434 H 0.27463 0.6721 0.64787 0.0
H435 H 0.12699 0.49163 0.72384 0.0
H436 H 0.29657 0.6013 0.64057 0.0
O437 O 0.10955 0.64269 0.62179 0.0
H438 H 0.16959 0.82624 0.59577 0.0
H439 H 0.08664 0.73472 0.53844 0.0
H440 H 0.07124 0.80515 0.55742 0.0
H441 H 0.1129 0.85152 0.5862 0.0
H442 H 0.18384 0.75531 0.57688 0.0
H443 H 0.12798 0.75891 0.41798 0.0
H444 H 0.09132 0.70492 0.39145 0.0
O445 O 0.10431 0.66571 0.56157 0.0
C446 C 0.1597 0.59386 0.54634 0.0
C447 C 0.09511 0.66636 0.44122 0.0
C448 C 0.12248 0.73164 0.43451 0.0
N449 N 0.12897 0.69221 0.49203 0.0
C450 C 0.10901 0.66228 0.47752 0.0
C451 C 0.13594 0.72648 0.47092 0.0
C452 C 0.1019 0.70135 0.41964 0.0
C453 C 0.22459 0.65306 0.63982 0.0
N454 N 0.20372 0.62101 0.63305 0.0
C455 C 0.25824 0.64652 0.64268 0.0
C456 C 0.27054 0.60681 0.6385 0.0
C457 C 0.24915 0.57426 0.63148 0.0
C458 C 0.21566 0.58199 0.62872 0.0
C459 C 0.15527 0.54716 0.71819 0.0
C460 C 0.12368 0.55744 0.64878 0.0
C461 C 0.16218 0.58079 0.69473 0.0
N462 N 0.14673 0.5853 0.66027 0.0
C463 C 0.1162 0.52339 0.67144 0.0
C464 C 0.1323 0.51814 0.70624 0.0
C465 C 0.09218 0.65386 0.59335 0.0
C466 C 0.15123 0.80635 0.58321 0.0
C467 C 0.10486 0.75455 0.55124 0.0
C468 C 0.09602 0.79449 0.56178 0.0
C469 C 0.11941 0.8205 0.57788 0.0
N470 N 0.13614 0.74089 0.55658 0.0
C471 C 0.15919 0.76622 0.57233 0.0
Co472 Co 0.64519 0.89087 0.12938 0.0
Co473 Co 0.63949 0.79133 0.09884 0.0
O474 O 0.65881 0.84652 0.09483 0.0
C475 C 0.64083 0.93161 0.05397 0.0
O476 O 0.62538 0.89882 0.04141 0.0
C477 C 0.71141 0.77509 0.08957 0.0
O478 O 0.71717 0.80397 0.11502 0.0
O479 O 0.65373 0.78804 0.15374 0.0
O480 O 0.63812 0.85115 0.17223 0.0
H481 H 0.57357 0.68026 0.16216 0.0
H482 H 0.70824 0.89835 0.08858 0.0
O483 O 0.65171 0.93262 0.08805 0.0
H484 H 0.73624 0.90367 0.22579 0.0
H485 H 0.649 0.03406 0.18449 0.0
H486 H 0.5915 0.90063 0.18559 0.0
H487 H 0.67882 0.89758 0.20507 0.0
H488 H 0.66864 0.9763 0.14486 0.0
O489 O 0.68196 0.7658 0.0812 0.0
H490 H 0.5977 0.74951 0.15595 0.0
H491 H 0.64232 0.71512 0.05104 0.0
H492 H 0.57126 0.95743 0.22599 0.0
H493 H 0.76605 0.90487 0.10805 0.0
H494 H 0.59959 0.02503 0.22478 0.0
H495 H 0.78033 0.90738 0.1771 0.0
O496 O 0.5992 0.88347 0.11267 0.0
H497 H 0.65473 0.82436 0.95964 0.0
H498 H 0.57702 0.77479 0.05697 0.0
H499 H 0.55878 0.78216 0.99011 0.0
H500 H 0.59777 0.80707 0.94088 0.0
H501 H 0.67189 0.81692 0.02693 0.0
H502 H 0.61903 0.64533 0.05634 0.0
H503 H 0.58421 0.6276 0.1121 0.0
O504 O 0.5956 0.81477 0.11485 0.0
C505 C 0.64676 0.81434 0.17969 0.0
C506 C 0.58862 0.68764 0.13767 0.0
C507 C 0.61416 0.66803 0.07829 0.0
N508 N 0.6211 0.73648 0.103 0.0
C509 C 0.60226 0.72684 0.13394 0.0
C510 C 0.62735 0.70757 0.07551 0.0
C511 C 0.59462 0.6581 0.10958 0.0
C512 C 0.71429 0.89988 0.11867 0.0
N513 N 0.69022 0.89766 0.14562 0.0
C514 C 0.74705 0.90341 0.12953 0.0
C515 C 0.75505 0.90474 0.16828 0.0
C516 C 0.73033 0.90262 0.19561 0.0
C517 C 0.69786 0.89907 0.18369 0.0
C518 C 0.63631 1.00482 0.18501 0.0
C519 C 0.60436 0.9297 0.18552 0.0
C520 C 0.6473 0.97201 0.16263 0.0
N521 N 0.63124 0.93511 0.16293 0.0
C522 C 0.5927 0.9618 0.20833 0.0
C523 C 0.60866 0.99969 0.20774 0.0
C524 C 0.58242 0.85044 0.11273 0.0
C525 C 0.63755 0.81333 0.9808 0.0
C526 C 0.59414 0.78572 0.03577 0.0
C527 C 0.58368 0.78975 0.99791 0.0
C528 C 0.60557 0.8037 0.97031 0.0
N529 N 0.62556 0.79526 0.04585 0.0
C530 C 0.64717 0.80888 0.01892 0.0
Co531 Co 0.39276 0.12833 0.64237 0.0
Co532 Co 0.39559 0.22634 0.60285 0.0
O533 O 0.37791 0.16972 0.60483 0.0
C534 C 0.3994 0.08372 0.56848 0.0
O535 O 0.41131 0.11747 0.55331 0.0
C536 C 0.32245 0.23525 0.5877 0.0
O537 O 0.31751 0.19669 0.597 0.0
O538 O 0.38667 0.23411 0.6588 0.0
O539 O 0.39606 0.17107 0.68288 0.0
H540 H 0.46532 0.34302 0.65042 0.0
H541 H 0.33182 0.11091 0.59925 0.0
O542 O 0.38988 0.08349 0.60309 0.0
H543 H 0.29956 0.11297 0.73515 0.0
H544 H 0.39555 0.98817 0.70359 0.0
H545 H 0.44298 0.12758 0.70344 0.0
H546 H 0.35688 0.12456 0.71655 0.0
H547 H 0.37358 0.0418 0.66088 0.0
O548 O 0.35106 0.2508 0.59025 0.0
H549 H 0.4427 0.27263 0.65074 0.0
H550 H 0.38578 0.29947 0.5522 0.0
H551 H 0.46558 0.07511 0.74684 0.0
H552 H 0.27416 0.09869 0.61662 0.0
H553 H 0.44237 1.00448 0.74636 0.0
H554 H 0.25771 0.09985 0.685 0.0
O555 O 0.43918 0.13777 0.62811 0.0
H556 H 0.36924 0.18049 0.46857 0.0
H557 H 0.45232 0.24425 0.55206 0.0
H558 H 0.46446 0.23369 0.48374 0.0
H559 H 0.42271 0.20174 0.44141 0.0
H560 H 0.35829 0.19107 0.53705 0.0
H561 H 0.40754 0.37025 0.55105 0.0
H562 H 0.44772 0.39238 0.60031 0.0
O563 O 0.44102 0.20518 0.61383 0.0
C564 C 0.39086 0.20941 0.68672 0.0
C565 C 0.44789 0.33371 0.62874 0.0
C566 C 0.41542 0.34901 0.57301 0.0
N567 N 0.4131 0.28186 0.60142 0.0
C568 C 0.43507 0.29387 0.62872 0.0
C569 C 0.4031 0.30892 0.57389 0.0
C570 C 0.43798 0.3614 0.60064 0.0
C571 C 0.32484 0.11121 0.62906 0.0
N572 N 0.34763 0.11871 0.65678 0.0
C573 C 0.29216 0.10439 0.63873 0.0
C574 C 0.28294 0.1051 0.6771 0.0
C575 C 0.30638 0.11252 0.70524 0.0
C576 C 0.3388 0.11928 0.6945 0.0
C577 C 0.40618 0.01868 0.70366 0.0
C578 C 0.43259 0.09707 0.70333 0.0
C579 C 0.39388 0.04915 0.6795 0.0
N580 N 0.4075 0.08757 0.67905 0.0
C581 C 0.44548 0.06745 0.72795 0.0
C582 C 0.43243 0.02786 0.72767 0.0
C583 C 0.45479 0.1706 0.62029 0.0
C584 C 0.38754 0.19474 0.48665 0.0
C585 C 0.43395 0.23039 0.53388 0.0
C586 C 0.44099 0.2245 0.49517 0.0
C587 C 0.41756 0.20658 0.47145 0.0
N588 N 0.40436 0.21892 0.5486 0.0
C589 C 0.38136 0.20113 0.5255 0.0
Co590 Co 0.64518 0.1281 0.89158 0.0
Co591 Co 0.63513 0.22529 0.92754 0.0
O592 O 0.65672 0.17107 0.92895 0.0
C593 C 0.6412 0.08278 0.96487 0.0
O594 O 0.62702 0.11525 0.97978 0.0
C595 C 0.7062 0.24759 0.93921 0.0
O596 O 0.71392 0.22223 0.91135 0.0
O597 O 0.65022 0.23312 0.87359 0.0
O598 O 0.63825 0.17025 0.85059 0.0
H599 H 0.56657 0.3362 0.86791 0.0
H600 H 0.7074 0.12256 0.93422 0.0
O601 O 0.65175 0.08379 0.93067 0.0
H602 H 0.7385 0.12017 0.79796 0.0
H603 H 0.65407 0.98972 0.82708 0.0
H604 H 0.59262 0.11997 0.83377 0.0
H605 H 0.68061 0.12541 0.81684 0.0
H606 H 0.67144 0.04508 0.87105 0.0
O607 O 0.67621 0.25242 0.94815 0.0
H608 H 0.59291 0.26808 0.87137 0.0
H609 H 0.633 0.2979 0.98004 0.0
H610 H 0.57463 0.06562 0.78911 0.0
H611 H 0.76571 0.11779 0.91661 0.0
H612 H 0.60498 0.99959 0.78624 0.0
H613 H 0.78154 0.11653 0.84802 0.0
O614 O 0.59882 0.13204 0.90749 0.0
H615 H 0.64914 0.18557 0.06544 0.0
H616 H 0.57106 0.23413 0.96796 0.0
H617 H 0.55182 0.22111 0.03359 0.0
H618 H 0.591 0.19677 0.08292 0.0
H619 H 0.66724 0.19815 0.99921 0.0
H620 H 0.60743 0.3665 0.97761 0.0
H621 H 0.5738 0.38598 0.92128 0.0
O622 O 0.59254 0.20048 0.90854 0.0
C623 C 0.64544 0.20809 0.84592 0.0
C624 C 0.58117 0.32808 0.89261 0.0
C625 C 0.60414 0.34511 0.95414 0.0
N626 N 0.61454 0.27903 0.92585 0.0
C627 C 0.59612 0.28953 0.89475 0.0
C628 C 0.61871 0.30629 0.95528 0.0
C629 C 0.58525 0.35601 0.92255 0.0
C630 C 0.71417 0.12203 0.90434 0.0
N631 N 0.69069 0.12418 0.87663 0.0
C632 C 0.74719 0.11935 0.89453 0.0
C633 C 0.75605 0.11869 0.85604 0.0
C634 C 0.73193 0.12078 0.82794 0.0
C635 C 0.69919 0.12377 0.83881 0.0
C636 C 0.6405 0.01826 0.8283 0.0
C637 C 0.60629 0.09157 0.83223 0.0
C638 C 0.65019 0.04969 0.85316 0.0
N639 N 0.633 0.08567 0.85507 0.0
C640 C 0.59591 0.06086 0.80698 0.0
C641 C 0.613 0.02385 0.80532 0.0
C642 C 0.58095 0.16395 0.90893 0.0
C643 C 0.63186 0.19627 0.04423 0.0
C644 C 0.58826 0.22331 0.98916 0.0
C645 C 0.57723 0.21615 0.02634 0.0
C646 C 0.59922 0.20251 0.054 0.0
N647 N 0.62029 0.21693 0.97972 0.0
C648 C 0.642 0.20366 1.00672 0.0
Co649 Co 0.38708 0.89412 0.40154 0.0
Co650 Co 0.39753 0.79473 0.43102 0.0
O651 O 0.37643 0.84879 0.4363 0.0
C652 C 0.39379 0.93384 0.47704 0.0
O653 O 0.40943 0.90069 0.48804 0.0
C654 C 0.32649 0.77399 0.44222 0.0
O655 O 0.31922 0.8019 0.41646 0.0
O656 O 0.38193 0.7906 0.37668 0.0
O657 O 0.39347 0.85498 0.358 0.0
H658 H 0.46481 0.68746 0.36391 0.0
H659 H 0.32592 0.89842 0.44635 0.0
O660 O 0.38139 0.93539 0.44368 0.0
H661 H 0.2913 0.90224 0.3112 0.0
H662 H 0.37424 0.03585 0.34549 0.0
H663 H 0.43762 0.90692 0.34196 0.0
H664 H 0.34974 0.89881 0.32813 0.0
H665 H 0.36019 0.97823 0.38828 0.0
O666 O 0.35641 0.76688 0.45012 0.0
H667 H 0.43906 0.75552 0.37194 0.0
H668 H 0.39958 0.71872 0.47879 0.0
H669 H 0.45219 0.96356 0.29827 0.0
H670 H 0.26714 0.90233 0.43071 0.0
H671 H 0.42057 0.02873 0.30017 0.0
H672 H 0.24953 0.90411 0.3627 0.0
O673 O 0.43391 0.88921 0.41551 0.0
H674 H 0.38509 0.8264 0.57103 0.0
H675 H 0.4618 0.7824 0.47028 0.0
H676 H 0.48179 0.79146 0.53629 0.0
H677 H 0.44332 0.8136 0.58723 0.0
H678 H 0.36622 0.81759 0.50449 0.0
H679 H 0.42456 0.65011 0.47179 0.0
H680 H 0.45759 0.63417 0.41406 0.0
O681 O 0.44006 0.82062 0.41339 0.0
C682 C 0.38673 0.81747 0.35066 0.0
C683 C 0.45047 0.69402 0.38919 0.0
C684 C 0.42784 0.67304 0.44971 0.0
N685 N 0.41774 0.74105 0.42576 0.0
C686 C 0.43586 0.73252 0.39391 0.0
C687 C 0.41359 0.71187 0.45343 0.0
C688 C 0.44639 0.66413 0.41732 0.0
C689 C 0.3184 0.89962 0.41672 0.0
N690 N 0.34119 0.89853 0.38823 0.0
C691 C 0.28511 0.90165 0.40803 0.0
C692 C 0.27524 0.90258 0.36986 0.0
C693 C 0.29866 0.90151 0.34095 0.0
C694 C 0.33172 0.89945 0.35072 0.0
C695 C 0.38823 1.00762 0.34446 0.0
C696 C 0.42353 0.93502 0.34265 0.0
C697 C 0.38044 0.97493 0.36868 0.0
N698 N 0.39796 0.93915 0.36746 0.0
C699 C 0.43197 0.96704 0.31794 0.0
C700 C 0.4142 1.00358 0.31898 0.0
C701 C 0.4517 0.85713 0.41522 0.0
C702 C 0.40207 0.81661 0.54911 0.0
C703 C 0.44489 0.79211 0.49223 0.0
C704 C 0.45635 0.79707 0.52961 0.0
C705 C 0.43475 0.80948 0.55817 0.0
N706 N 0.41282 0.79939 0.48349 0.0
C707 C 0.39148 0.81136 0.51141 0.0
Co708 Co 0.37324 0.13297 0.89894 0.0
Co709 Co 0.38793 0.17634 0.98722 0.0
O710 O 0.36617 0.17596 0.93728 0.0
C711 C 0.38794 0.2048 0.84832 0.0
O712 O 0.41077 0.21682 0.87229 0.0
C713 C 0.31751 0.1841 1.00774 0.0
O714 O 0.31237 0.15229 0.98532 0.0
O715 O 0.37427 0.11821 0.99732 0.0
O716 O 0.37687 0.08926 0.93927 0.0
H717 H 0.45915 0.11885 0.0913 0.0
H718 H 0.31618 0.18834 0.89246 0.0
O719 O 0.36948 0.17449 0.85662 0.0
H720 H 0.26974 0.04868 0.90217 0.0
H721 H 0.34931 0.05772 0.77594 0.0
H722 H 0.41887 0.06263 0.89121 0.0
H723 H 0.32939 0.0592 0.90175 0.0
H724 H 0.34303 0.11364 0.82316 0.0
O725 O 0.34659 0.19755 0.01206 0.0
H726 H 0.4317 0.11895 0.02843 0.0
H727 H 0.38883 0.23491 0.05308 0.0
H728 H 0.42556 1.00573 0.84504 0.0
H729 H 0.2563 0.17924 0.89244 0.0
H730 H 0.38972 1.00221 0.78778 0.0
H731 H 0.23272 0.10901 0.89753 0.0
O732 O 0.42149 0.14225 0.90137 0.0
H733 H 0.37112 0.32252 0.94504 0.0
H734 H 0.45122 0.22176 0.99308 0.0
H735 H 0.46919 0.29247 0.97866 0.0
H736 H 0.42897 0.34346 0.95455 0.0
H737 H 0.35425 0.2513 0.95944 0.0
H738 H 0.4155 0.23592 0.11642 0.0
H739 H 0.45111 0.17768 0.13579 0.0
O740 O 0.42994 0.15637 0.96368 0.0
C741 C 0.37444 0.08657 0.97554 0.0
C742 C 0.44383 0.1445 0.08312 0.0
C743 C 0.41929 0.21018 0.09723 0.0
N744 N 0.40907 0.17714 0.0369 0.0
C745 C 0.42834 0.14481 0.0475 0.0
C746 C 0.4042 0.20942 0.06137 0.0
C747 C 0.43927 0.1775 0.10809 0.0
C748 C 0.30609 0.15765 0.89431 0.0
N749 N 0.3263 0.12434 0.89713 0.0
C750 C 0.27218 0.1527 0.89441 0.0
C751 C 0.25896 0.1133 0.89733 0.0
C752 C 0.27971 0.07945 0.89999 0.0
C753 C 0.3135 0.08559 0.89989 0.0
C754 C 0.36462 0.05852 0.80121 0.0
C755 C 0.40353 0.06161 0.86602 0.0
C756 C 0.3613 0.0902 0.82797 0.0
N757 N 0.3801 0.09088 0.86034 0.0
C758 C 0.40745 0.02936 0.83998 0.0
C759 C 0.38748 0.02755 0.8077 0.0
C760 C 0.44036 0.14846 0.92996 0.0
C761 C 0.38884 0.30062 0.95564 0.0
C762 C 0.43358 0.24371 0.98249 0.0
C763 C 0.44389 0.28375 0.97445 0.0
C764 C 0.42132 0.31234 0.96094 0.0
N765 N 0.40166 0.23248 0.97731 0.0
C766 C 0.37941 0.2603 0.96397 0.0
Co767 Co 0.65695 0.89446 0.39459 0.0
Co768 Co 0.64964 0.84823 0.48359 0.0
O769 O 0.66861 0.85078 0.4314 0.0
C770 C 0.66033 0.81769 0.34225 0.0
O771 O 0.6694 0.79136 0.36862 0.0
C772 C 0.72217 0.83573 0.49673 0.0
O773 O 0.72871 0.85751 0.46614 0.0
O774 O 0.66165 0.90694 0.49389 0.0
O775 O 0.65613 0.93656 0.43656 0.0
H776 H 0.58198 0.90061 0.59314 0.0
H777 H 0.71571 0.84258 0.38067 0.0
O778 O 0.65607 0.85564 0.34986 0.0
H779 H 0.75658 0.98514 0.38418 0.0
H780 H 0.66443 0.9739 0.27109 0.0
H781 H 0.6084 0.96188 0.39541 0.0
H782 H 0.69802 0.97052 0.39291 0.0
H783 H 0.67912 0.91856 0.31614 0.0
O784 O 0.69261 0.82978 0.50682 0.0
H785 H 0.60628 0.90276 0.52865 0.0
H786 H 0.65369 0.78856 0.54844 0.0
H787 H 0.59328 0.01801 0.35146 0.0
H788 H 0.77432 0.85574 0.37101 0.0
H789 H 0.62182 0.02477 0.28924 0.0
H790 H 0.79523 0.9275 0.37288 0.0
O791 O 0.60972 0.88225 0.40161 0.0
H792 H 0.67089 0.70367 0.439 0.0
H793 H 0.58873 0.79833 0.49282 0.0
H794 H 0.5734 0.72643 0.47907 0.0
H795 H 0.61467 0.67849 0.45209 0.0
H796 H 0.68508 0.776 0.45277 0.0
H797 H 0.63021 0.78538 0.61331 0.0
H798 H 0.59392 0.84158 0.63597 0.0
O799 O 0.60553 0.86541 0.46359 0.0
C800 C 0.66002 0.93882 0.47268 0.0
C801 C 0.59763 0.87583 0.58354 0.0
C802 C 0.62473 0.81119 0.59486 0.0
N803 N 0.631 0.84556 0.53456 0.0
C804 C 0.61135 0.87679 0.54699 0.0
C805 C 0.63799 0.81319 0.55811 0.0
C806 C 0.60437 0.84273 0.60756 0.0
C807 C 0.72436 0.87388 0.38086 0.0
N808 N 0.70321 0.90571 0.387 0.0
C809 C 0.75771 0.88116 0.37567 0.0
C810 C 0.76944 0.9214 0.37683 0.0
C811 C 0.74778 0.95373 0.38323 0.0
C812 C 0.71461 0.94525 0.38836 0.0
C813 C 0.6521 0.97157 0.29839 0.0
C814 C 0.62086 0.96453 0.36827 0.0
C815 C 0.66026 0.94027 0.32399 0.0
N816 N 0.64507 0.93749 0.35872 0.0
C817 C 0.61214 0.99631 0.34348 0.0
C818 C 0.62808 0.99997 0.30846 0.0
C819 C 0.59285 0.87378 0.43113 0.0
C820 C 0.65272 0.72423 0.45087 0.0
C821 C 0.6068 0.77775 0.4809 0.0
C822 C 0.59799 0.73702 0.47328 0.0
C823 C 0.62116 0.71013 0.45817 0.0
N824 N 0.63786 0.79131 0.47378 0.0
C825 C 0.66066 0.76517 0.45887 0.0
Co826 Co 0.37612 0.88698 0.13038 0.0
Co827 Co 0.3856 0.83306 0.04552 0.0
O828 O 0.36547 0.84005 0.09661 0.0
C829 C 0.37239 0.81468 0.18754 0.0
O830 O 0.36424 0.78616 0.16266 0.0
C831 C 0.31421 0.82545 0.02291 0.0
O832 O 0.30814 0.86065 0.04001 0.0
O833 O 0.37321 0.89049 0.03048 0.0
O834 O 0.37758 0.92507 0.08566 0.0
H835 H 0.45409 0.87722 0.93367 0.0
H836 H 0.31718 0.83559 0.14469 0.0
O837 O 0.37622 0.85207 0.17765 0.0
H838 H 0.27613 0.97726 0.13085 0.0
H839 H 0.36751 0.9745 0.24921 0.0
H840 H 0.4232 0.9561 0.1253 0.0
H841 H 0.33504 0.96263 0.12582 0.0
H842 H 0.35287 0.91665 0.20672 0.0
O843 O 0.34315 0.81078 0.02364 0.0
H844 H 0.42945 0.88411 0.9977 0.0
H845 H 0.38446 0.76702 0.98586 0.0
H846 H 0.43816 0.0148 0.16661 0.0
H847 H 0.25816 0.84885 0.15038 0.0
H848 H 0.41022 0.02432 0.22898 0.0
H849 H 0.23722 0.92016 0.1434 0.0
O850 O 0.42356 0.87498 0.12563 0.0
H851 H 0.36533 0.69275 0.1007 0.0
H852 H 0.44734 0.78394 0.04174 0.0
H853 H 0.46334 0.71412 0.06168 0.0
H854 H 0.42216 0.66792 0.09132 0.0
H855 H 0.35046 0.76308 0.08076 0.0
H856 H 0.40833 0.75894 0.92158 0.0
H857 H 0.44353 0.8143 0.89509 0.0
O858 O 0.42912 0.85308 0.06502 0.0
C859 C 0.37424 0.92412 0.04946 0.0
C860 C 0.43878 0.8529 0.94486 0.0
C861 C 0.41304 0.78657 0.93804 0.0
N862 N 0.40529 0.82612 0.99541 0.0
C863 C 0.42476 0.8566 0.98112 0.0
C864 C 0.39939 0.79139 0.97438 0.0
C865 C 0.43281 0.81761 0.92322 0.0
C866 C 0.30842 0.86672 0.14215 0.0
N867 N 0.32971 0.89831 0.13554 0.0
C868 C 0.27488 0.87404 0.14516 0.0
C869 C 0.26314 0.91404 0.14117 0.0
C870 C 0.28496 0.94608 0.13412 0.0
C871 C 0.31832 0.93758 0.13126 0.0
C872 C 0.37976 0.97079 0.22199 0.0
C873 C 0.41072 0.96023 0.15227 0.0
C874 C 0.37163 0.93803 0.19784 0.0
N875 N 0.38695 0.93322 0.16336 0.0
C876 C 0.41939 0.99342 0.17562 0.0
C877 C 0.40374 0.9987 0.21067 0.0
C878 C 0.44095 0.86443 0.09713 0.0
C879 C 0.38347 0.71255 0.08776 0.0
C880 C 0.4293 0.76415 0.05478 0.0
C881 C 0.43848 0.72455 0.06589 0.0
C882 C 0.41537 0.69866 0.08251 0.0
N883 N 0.39795 0.77759 0.06006 0.0
C884 C 0.37517 0.75236 0.07631 0.0
Co885 Co 0.66365 0.14185 0.62676 0.0
Co886 Co 0.6483 0.19242 0.54169 0.0
O887 O 0.67115 0.18734 0.59088 0.0
C888 C 0.64804 0.20891 0.68306 0.0
O889 O 0.62357 0.22074 0.66141 0.0
C890 C 0.71845 0.19753 0.51702 0.0
O891 O 0.72428 0.16485 0.53799 0.0
O892 O 0.65931 0.13437 0.5277 0.0
O893 O 0.6602 0.10117 0.58379 0.0
H894 H 0.57256 0.14517 0.43722 0.0
H895 H 0.72093 0.19645 0.63725 0.0
O896 O 0.66735 0.18064 0.67167 0.0
H897 H 0.76661 0.0573 0.6199 0.0
H898 H 0.68445 0.06105 0.74721 0.0
H899 H 0.6189 0.07005 0.629 0.0
H900 H 0.707 0.06832 0.61936 0.0
H901 H 0.69267 0.11836 0.70208 0.0
O902 O 0.68963 0.21248 0.51602 0.0
H903 H 0.60102 0.14036 0.49928 0.0
H904 H 0.6468 0.25572 0.4799 0.0
H905 H 0.61039 0.01175 0.67297 0.0
H906 H 0.78073 0.18677 0.63836 0.0
H907 H 0.64384 1.00653 0.73204 0.0
H908 H 0.80393 0.11679 0.62953 0.0
O909 O 0.61536 0.15066 0.62487 0.0
H910 H 0.67305 0.33446 0.59075 0.0
H911 H 0.58696 0.24233 0.54118 0.0
H912 H 0.5728 0.31325 0.55999 0.0
H913 H 0.61605 0.35991 0.58485 0.0
H914 H 0.68607 0.26309 0.57202 0.0
H915 H 0.61914 0.26166 0.41743 0.0
H916 H 0.58161 0.20613 0.39577 0.0
O917 O 0.60625 0.17383 0.56543 0.0
C918 C 0.66062 0.10129 0.54732 0.0
C919 C 0.58886 0.16956 0.44631 0.0
C920 C 0.61506 0.23489 0.43517 0.0
N921 N 0.62573 0.19761 0.49308 0.0
C922 C 0.60503 0.16703 0.48144 0.0
C923 C 0.63082 0.23127 0.47047 0.0
C924 C 0.59398 0.20375 0.42306 0.0
C925 C 0.73086 0.16588 0.63367 0.0
N926 N 0.71051 0.133 0.62835 0.0
C927 C 0.76473 0.1606 0.6342 0.0
C928 C 0.77772 0.12133 0.6292 0.0
C929 C 0.7568 0.08794 0.62377 0.0
C930 C 0.72306 0.0944 0.62338 0.0
C931 C 0.67002 0.06274 0.72127 0.0
C932 C 0.63346 0.06807 0.65476 0.0
C933 C 0.67445 0.09521 0.69568 0.0
N934 N 0.65655 0.09728 0.66267 0.0
C935 C 0.62846 0.03506 0.6796 0.0
C936 C 0.6471 0.03229 0.71288 0.0
C937 C 0.59609 0.16151 0.59797 0.0
C938 C 0.65401 0.31445 0.57987 0.0
C939 C 0.60589 0.26234 0.55217 0.0
C940 C 0.59774 0.30253 0.56266 0.0
C941 C 0.62201 0.3287 0.57659 0.0
N942 N 0.63736 0.24864 0.55535 0.0
C943 C 0.66126 0.27407 0.5691 0.0
C944 C 0.02612 0.32211 0.09745 0.0
C945 C 0.04575 0.35648 0.10652 0.0
C946 C 0.99216 0.32561 0.09306 0.0
C947 C 0.97607 0.36333 0.09851 0.0
H948 H 0.03697 0.29208 0.09333 0.0
H949 H 0.97832 0.29826 0.08588 0.0
S950 S 1.01493 0.46234 0.12521 0.0
N951 N 0.04573 0.42969 0.12215 0.0
N952 N 0.98173 0.43544 0.11517 0.0
C953 C 0.99491 0.39768 0.10894 0.0
C954 C 0.02973 0.39447 0.11261 0.0
C955 C 1.00806 0.67063 0.63772 0.0
C956 C 0.98679 0.66313 0.60693 0.0
C957 C 0.04211 0.66647 0.63335 0.0
C958 C 0.05603 0.65537 0.59789 0.0
H959 H 0.99832 0.67933 0.66538 0.0
H960 H 0.05766 0.67276 0.65772 0.0
S961 S 1.01015 0.63087 0.50901 0.0
N962 N 0.98155 0.64238 0.54054 0.0
N963 N 0.0453 0.63595 0.53183 0.0
C964 C 0.03475 0.64772 0.56702 0.0
C965 C 1.00018 0.65119 0.5717 0.0
C966 C 0.9899 0.66935 0.88788 0.0
C967 C 0.97622 0.65221 0.9213 0.0
C968 C 0.02395 0.67439 0.884 0.0
C969 C 0.04546 0.6615 0.91297 0.0
H970 H 0.97416 0.68 0.86503 0.0
H971 H 0.03352 0.68816 0.85812 0.0
S972 S 0.02259 0.61372 1.00528 0.0
N973 N 0.98733 0.62204 0.98359 0.0
N974 N 0.05104 0.6303 0.97559 0.0
C975 C 0.03225 0.64359 0.94601 0.0
C976 C 0.99771 0.63928 0.95037 0.0
C977 C 0.04576 0.35169 0.38906 0.0
C978 C 0.05995 0.36374 0.42419 0.0
C979 C 1.01186 0.34584 0.38537 0.0
C980 C 0.99088 0.35257 0.41646 0.0
H981 H 0.06103 0.34607 0.36429 0.0
H982 H 1.00194 0.33649 0.35793 0.0
S983 S 1.01487 0.38523 0.51414 0.0
N984 N 0.04979 0.38218 0.49062 0.0
N985 N 0.98608 0.37254 0.4831 0.0
C986 C 1.00446 0.36503 0.45151 0.0
C987 C 0.039 0.3702 0.45555 0.0
C988 C 0.49752 0.89302 0.0905 0.0
C989 C 0.47664 0.8613 0.10248 0.0
C990 C 0.53163 0.88949 0.09455 0.0
C991 C 0.5461 0.8538 0.11018 0.0
H992 H 0.48743 0.92063 0.07782 0.0
H993 H 0.54678 0.91466 0.08467 0.0
S994 S 0.50118 0.7624 0.14636 0.0
N995 N 0.47219 0.79375 0.13126 0.0
N996 N 0.53607 0.78643 0.13824 0.0
C997 C 0.52514 0.82195 0.12232 0.0
C998 C 0.49048 0.8259 0.11864 0.0
C999 C 0.53851 0.17009 0.57406 0.0
C1000 C 0.56001 0.16198 0.60479 0.0
C1001 C 0.50463 0.17307 0.57952 0.0
C1002 C 0.49068 0.16791 0.61583 0.0
H1003 H 0.54784 0.17437 0.54536 0.0
H1004 H 0.48919 0.17898 0.55496 0.0
S1005 S 0.5352 0.14746 0.7062 0.0
N1006 N 0.56418 0.14953 0.6734 0.0
N1007 N 0.50047 0.15516 0.68319 0.0
C1008 C 0.51151 0.15968 0.64683 0.0
C1009 C 0.54614 0.15671 0.64143 0.0
C1010 C 0.52331 0.17199 0.88544 0.0
C1011 C 0.54533 0.15832 0.91354 0.0
C1012 C 0.48935 0.16699 0.89015 0.0
C1013 C 0.47629 0.14928 0.92364 0.0
H1014 H 0.53239 0.18651 0.85967 0.0
H1015 H 0.4732 0.17827 0.86797 0.0
S1016 S 0.52413 0.10861 1.00553 0.0
N1017 N 0.55205 0.12564 0.97536 0.0
N1018 N 0.48848 0.11761 0.98497 0.0
C1019 C 0.49828 0.13547 0.9518 0.0
C1020 C 0.53273 0.13964 0.94655 0.0
C1021 C 0.50854 0.85191 0.38904 0.0
C1022 C 0.4874 0.86237 0.41914 0.0
C1023 C 0.54258 0.85687 0.39278 0.0
C1024 C 0.55667 0.87141 0.42713 0.0
H1025 H 0.49869 0.84008 0.36242 0.0
H1026 H 0.55802 0.84828 0.36891 0.0
S1027 S 0.51134 0.90253 0.51443 0.0
N1028 N 0.48255 0.88824 0.48401 0.0
N1029 N 0.54634 0.89626 0.49166 0.0
C1030 C 0.53557 0.8817 0.45743 0.0
C1031 C 0.50098 0.87754 0.45326 0.0
C1032 C 0.12196 0.3144 0.23894 0.0
C1033 C 0.14682 0.29967 0.21481 0.0
C1034 C 0.1262 0.31601 0.27861 0.0
C1035 C 0.15539 0.30275 0.29581 0.0
H1036 H 0.09996 0.32762 0.22681 0.0
H1037 H 0.10726 0.33024 0.29579 0.0
S1038 S 0.22704 0.2587 0.24571 0.0
N1039 N 0.20083 0.26908 0.21101 0.0
N1040 N 0.20872 0.27174 0.28609 0.0
C1041 C 0.17949 0.28498 0.27242 0.0
C1042 C 0.17521 0.28348 0.23171 0.0
C1043 C 0.85521 0.7082 0.73842 0.0
C1044 C 0.88398 0.71562 0.71766 0.0
C1045 C 0.85555 0.70675 0.77859 0.0
C1046 C 0.88467 0.71288 0.79947 0.0
H1047 H 0.83288 0.70012 0.72347 0.0
H1048 H 0.83325 0.69823 0.79329 0.0
S1049 S 0.96621 0.73567 0.75804 0.0
N1050 N 0.94192 0.73087 0.72052 0.0
N1051 N 0.94265 0.72933 0.79592 0.0
C1052 C 0.91312 0.72329 0.77896 0.0
C1053 C 0.91276 0.72422 0.73805 0.0
C1054 C 0.17479 0.73313 0.78582 0.0
C1055 C 0.14536 0.72056 0.80307 0.0
C1056 C 0.17852 0.73197 0.74567 0.0
C1057 C 0.15293 0.71808 0.72194 0.0
H1058 H 0.19582 0.74042 0.80343 0.0
H1059 H 0.20223 0.73876 0.73346 0.0
S1060 S 0.06998 0.68694 0.75296 0.0
N1061 N 0.08933 0.69825 0.79312 0.0
N1062 N 0.09653 0.69543 0.7183 0.0
C1063 C 0.1228 0.70851 0.73882 0.0
C1064 C 0.11894 0.71 0.77926 0.0
C1065 C 0.91212 0.31385 0.2379 0.0
C1066 C 0.88371 0.29801 0.2207 0.0
C1067 C 0.91625 0.31332 0.27761 0.0
C1068 C 0.89202 0.29722 0.3019 0.0
H1069 H 0.93045 0.32915 0.22062 0.0
H1070 H 0.93769 0.32819 0.28958 0.0
S1071 S 0.81398 0.2496 0.27103 0.0
N1072 N 0.83184 0.26328 0.2306 0.0
N1073 N 0.83949 0.2626 0.30574 0.0
C1074 C 0.86449 0.2786 0.28502 0.0
C1075 C 0.86033 0.27899 0.24425 0.0
C1076 C 0.62582 0.81932 0.28421 0.0
C1077 C 0.65434 0.80496 0.30218 0.0
C1078 C 0.62246 0.81841 0.2444 0.0
C1079 C 0.64756 0.80329 0.22078 0.0
H1080 H 0.60672 0.83378 0.30097 0.0
H1081 H 0.60083 0.83213 0.23184 0.0
S1082 S 0.72628 0.75955 0.25369 0.0
N1083 N 0.70733 0.77266 0.29364 0.0
N1084 N 0.70107 0.77114 0.21832 0.0
C1085 C 0.67528 0.78611 0.23838 0.0
C1086 C 0.67868 0.78695 0.27926 0.0
C1087 C 0.35881 0.21613 0.78641 0.0
C1088 C 0.38778 0.21934 0.80807 0.0
C1089 C 0.35934 0.21845 0.74633 0.0
C1090 C 0.38883 0.22399 0.72649 0.0
H1091 H 0.33589 0.20883 0.80035 0.0
H1092 H 0.33699 0.2122 0.73067 0.0
S1093 S 0.47103 0.23689 0.76925 0.0
N1094 N 0.44648 0.2315 0.80639 0.0
N1095 N 0.4473 0.2349 0.73103 0.0
C1096 C 0.41754 0.23016 0.7477 0.0
C1097 C 0.41705 0.22822 0.78856 0.0
C1098 C 0.61861 0.22577 0.78446 0.0
C1099 C 0.64753 0.2221 0.80593 0.0
C1100 C 0.61926 0.22555 0.74426 0.0
C1101 C 0.64883 0.22041 0.7242 0.0
H1102 H 0.59514 0.22593 0.79882 0.0
H1103 H 0.5962 0.22588 0.729 0.0
S1104 S 0.73152 0.21396 0.76741 0.0
N1105 N 0.70664 0.21742 0.80448 0.0
N1106 N 0.70798 0.21556 0.729 0.0
C1107 C 0.67806 0.2194 0.74544 0.0
C1108 C 0.67738 0.22054 0.78632 0.0
C1109 C 0.40605 0.82354 0.24574 0.0
C1110 C 0.37885 0.80494 0.22822 0.0
C1111 C 0.40962 0.82408 0.28549 0.0
C1112 C 0.38607 0.8062 0.30957 0.0
H1113 H 0.42393 0.83983 0.2286 0.0
H1114 H 0.43017 0.84073 0.29759 0.0
S1115 S 0.31154 0.75076 0.27806 0.0
N1116 N 0.32903 0.76555 0.23772 0.0
N1117 N 0.33568 0.76678 0.31302 0.0
C1118 C 0.35987 0.78492 0.2925 0.0
C1119 C 0.35625 0.78426 0.25164 0.0
C1120 C 0.29545 0.23708 0.05402 0.0
C1121 C 0.28961 0.20495 0.02765 0.0
C1122 C 0.26964 0.25753 0.07274 0.0
C1123 C 0.2367 0.247 0.06589 0.0
H1124 H 0.32024 0.24671 0.06032 0.0
H1125 H 0.27566 0.28211 0.09251 0.0
S1126 S 0.20793 0.16486 0.99951 0.0
N1127 N 0.2481 0.16353 0.99587 0.0
N1128 N 0.19996 0.20165 0.0307 0.0
C1129 C 0.23056 0.21477 0.03966 0.0
C1130 C 0.25683 0.19388 0.0207 0.0
C1131 C 0.77246 0.7987 0.58222 0.0
C1132 C 0.80062 0.78174 0.5652 0.0
C1133 C 0.747 0.81539 0.5599 0.0
C1134 C 0.74914 0.81717 0.51969 0.0
H1135 H 0.76997 0.79888 0.61306 0.0
H1136 H 0.72575 0.82781 0.57433 0.0
S1137 S 0.81737 0.77694 0.46078 0.0
N1138 N 0.82848 0.76704 0.50524 0.0
N1139 N 0.78148 0.79993 0.46377 0.0
C1140 C 0.77712 0.80049 0.50231 0.0
C1141 C 0.80258 0.78239 0.5249 0.0
C1142 C 0.25592 0.82007 0.9988 0.0
C1143 C 0.28763 0.80323 1.00132 0.0
C1144 C 0.23082 0.80039 0.97794 0.0
C1145 C 0.23624 0.76312 0.95817 0.0
H1146 H 0.25034 0.84887 0.01298 0.0
H1147 H 0.20697 0.81481 0.97706 0.0
S1148 S 0.31414 0.70455 0.95693 0.0
N1149 N 0.32229 0.74551 0.98325 0.0
N1150 N 0.27562 0.7094 0.9437 0.0
C1151 C 0.26769 0.74573 0.96064 0.0
C1152 C 0.29315 0.76547 0.98225 0.0
C1153 C 0.77776 0.20256 0.49779 0.0
C1154 C 0.74542 0.21697 0.49425 0.0
C1155 C 0.8036 0.22026 0.47696 0.0
C1156 C 0.7984 0.2531 0.45132 0.0
H1157 H 0.78334 0.17746 0.51705 0.0
H1158 H 0.82796 0.20802 0.48116 0.0
S1159 S 0.71841 0.3026 0.43119 0.0
N1160 N 0.70984 0.26651 0.46277 0.0
N1161 N 0.75813 0.29933 0.42367 0.0
C1162 C 0.76617 0.26769 0.44725 0.0
C1163 C 0.73985 0.24983 0.46866 0.0
C1164 C 0.73268 0.71908 0.04611 0.0
C1165 C 0.7389 0.75405 0.06901 0.0
C1166 C 0.75775 0.6992 0.02564 0.0
C1167 C 0.79032 0.71341 0.02678 0.0
H1168 H 0.70815 0.70674 0.04395 0.0
H1169 H 0.75141 0.67242 1.00869 0.0
S1170 S 0.81973 0.80457 0.08153 0.0
N1171 N 0.78028 0.80235 0.09109 0.0
N1172 N 0.8271 0.76553 0.05255 0.0
C1173 C 0.79686 0.74855 0.0494 0.0
C1174 C 0.77132 0.76864 0.07049 0.0
C1175 C 0.29507 0.30323 0.57408 0.0
C1176 C 0.29539 0.26002 0.57052 0.0
C1177 C 0.26983 0.32712 0.55797 0.0
C1178 C 0.24433 0.30899 0.53661 0.0
H1179 H 0.31422 0.31873 0.58999 0.0
H1180 H 0.27037 0.36014 0.56222 0.0
S1181 S 0.23452 0.19717 0.51729 0.0
N1182 N 0.26813 0.20021 0.54333 0.0
N1183 N 0.22151 0.24492 0.51232 0.0
C1184 C 0.2448 0.26587 0.53212 0.0
C1185 C 0.27005 0.24149 0.54926 0.0
C1186 C 0.79074 0.28611 0.97044 0.0
C1187 C 0.78426 0.31156 1.00232 0.0
C1188 C 0.76552 0.26598 0.95027 0.0
C1189 C 0.73248 0.2701 0.96098 0.0
H1190 H 0.81562 0.28159 0.96078 0.0
H1191 H 0.77213 0.24688 0.92607 0.0
S1192 S 0.70211 0.3322 0.04315 0.0
N1193 N 0.74206 0.33921 0.04392 0.0
N1194 N 0.6949 0.30138 1.00651 0.0
C1195 C 0.72563 0.29541 0.99292 0.0
C1196 C 0.75136 0.31609 0.01337 0.0
C1197 C 0.24124 0.74146 0.47577 0.0
C1198 C 0.24744 0.71161 0.50413 0.0
C1199 C 0.26678 0.76099 0.45583 0.0
C1200 C 0.29983 0.75184 0.46335 0.0
H1201 H 0.21635 0.74981 0.46864 0.0
H1202 H 0.26041 0.78365 0.43441 0.0
S1203 S 0.32956 0.67677 0.53571 0.0
N1204 N 0.28938 0.67434 0.53906 0.0
N1205 N 0.33717 0.71098 0.50205 0.0
C1206 C 0.3064 0.72215 0.49183 0.0
C1207 C 0.28034 0.7021 0.51202 0.0
C1208 C 0.14586 0.54418 0.02448 0.0
C1209 C 0.14288 0.54366 0.98446 0.0
C1210 C 0.14628 0.50748 0.04552 0.0
C1211 C 0.14299 0.46889 0.02739 0.0
H1212 H 0.14791 0.57316 0.03969 0.0
H1213 H 0.14833 0.50953 0.07636 0.0
S1214 S 0.13402 0.45075 0.92315 0.0
N1215 N 0.13656 0.50125 0.92744 0.0
N1216 N 0.13686 0.43245 0.96705 0.0
C1217 C 0.14004 0.46793 0.98739 0.0
C1218 C 0.14014 0.50526 0.96591 0.0
C1219 C 0.89135 0.50212 0.55116 0.0
C1220 C 0.89381 0.54132 0.53421 0.0
C1221 C 0.89141 0.46617 0.52886 0.0
C1222 C 0.89324 0.4681 0.48876 0.0
H1223 H 0.89016 0.49905 0.58198 0.0
H1224 H 0.89005 0.43666 0.54315 0.0
S1225 S 0.89947 0.56317 0.4303 0.0
N1226 N 0.89777 0.57986 0.47487 0.0
N1227 N 0.8975 0.51253 0.43301 0.0
C1228 C 0.8951 0.50714 0.47143 0.0
C1229 C 0.89552 0.54367 0.49414 0.0
C1230 C 0.87435 0.47385 0.99082 0.0
C1231 C 0.87077 0.46988 0.03073 0.0
C1232 C 0.87509 0.51271 0.97303 0.0
C1233 C 0.87226 0.54961 0.99424 0.0
H1234 H 0.87716 0.44673 0.97305 0.0
H1235 H 0.8783 0.51366 0.9423 0.0
S1236 S 0.86152 0.55693 0.09957 0.0
N1237 N 0.86367 0.50716 0.0908 0.0
N1238 N 0.86498 0.57935 0.05753 0.0
C1239 C 0.86813 0.54615 0.03407 0.0
C1240 C 0.86741 0.50665 0.0522 0.0
C1241 C 0.16609 0.47797 0.52709 0.0
C1242 C 0.16416 0.47484 0.48694 0.0
C1243 C 0.16502 0.51634 0.5458 0.0
C1244 C 0.1623 0.55367 0.52535 0.0
H1245 H 0.16786 0.45048 0.54444 0.0
H1246 H 0.16602 0.51652 0.57675 0.0
S1247 S 0.15671 0.56324 0.41966 0.0
N1248 N 0.15927 0.51332 0.42737 0.0
N1249 N 0.1582 0.58477 0.46236 0.0
C1250 C 0.16091 0.55112 0.48518 0.0
C1251 C 0.16158 0.51203 0.46611 0.0
C1252 C 0.64493 0.04469 0.02685 0.0
C1253 C 0.64273 0.04381 0.98675 0.0
C1254 C 0.64527 1.00817 0.04819 0.0
C1255 C 0.64268 0.96936 0.0303 0.0
H1256 H 0.64642 0.07382 0.04189 0.0
H1257 H 0.64672 0.01052 0.07906 0.0
S1258 S 0.6359 0.95025 0.92597 0.0
N1259 N 0.63791 1.00082 0.92993 0.0
N1260 N 0.63805 0.93235 0.97007 0.0
C1261 C 0.64051 0.96804 0.99022 0.0
C1262 C 0.6407 1.0052 0.96845 0.0
C1263 C 0.38948 0.01037 0.4845 0.0
C1264 C 0.39382 0.97134 0.50134 0.0
C1265 C 0.39164 0.04662 0.50627 0.0
C1266 C 0.39756 0.0452 0.54583 0.0
H1267 H 0.38507 0.0131 0.45405 0.0
H1268 H 0.38836 0.07594 0.49206 0.0
S1269 S 0.41076 0.95103 0.60387 0.0
N1270 N 0.40447 0.93367 0.56006 0.0
N1271 N 0.40812 1.00161 0.60096 0.0
C1272 C 0.40164 1.00642 0.56311 0.0
C1273 C 0.39989 0.96956 0.54088 0.0
C1274 C 0.37228 1.00156 0.05081 0.0
C1275 C 0.37251 0.96472 0.02927 0.0
C1276 C 0.37235 0.04038 0.03327 0.0
C1277 C 0.37281 0.04456 0.99321 0.0
H1278 H 0.37244 1.00071 0.08177 0.0
H1279 H 0.37251 0.06736 0.05152 0.0
S1280 S 0.37314 0.95792 0.92321 0.0
N1281 N 0.37263 0.93515 0.96534 0.0
N1282 N 0.37315 1.00774 0.93234 0.0
C1283 C 0.3727 1.00795 0.97118 0.0
C1284 C 0.37244 0.96828 0.98915 0.0
C1285 C 0.66428 0.02376 0.54854 0.0
C1286 C 0.6619 0.06054 0.52723 0.0
C1287 C 0.66418 0.9849 0.53076 0.0
C1288 C 0.66159 0.98074 0.49075 0.0
H1289 H 0.66593 0.02476 0.57945 0.0
H1290 H 0.66575 0.95789 0.54876 0.0
S1291 S 0.65496 0.06736 0.42143 0.0
N1292 N 0.65735 0.09004 0.46357 0.0
N1293 N 0.65672 0.0176 0.4303 0.0
C1294 C 0.65946 0.01736 0.46903 0.0
C1295 C 0.65974 0.05695 0.48715 0.0
loop_
_geom_bond_atom_site_label_1
_geom_bond_atom_site_label_2
_geom_bond_distance
_geom_bond_site_symmetry_2
_ccdc_geom_bond_type
Co0 O2 2.143 . S
Co0 O8 2.074 . S
Co0 O11 2.093 . S
Co0 O24 2.097 . S
Co0 N41 2.151 . S
Co0 N49 2.214 . S
Co1 O2 2.160 . S
Co1 O7 2.058 . S
Co1 O17 2.057 . S
Co1 O32 2.037 . S
Co1 N36 2.145 . S
Co1 N57 2.257 . S
O2 Co0 2.143 . S
O2 Co1 2.160 . S
C3 O4 1.278 . S
C3 O11 1.224 . S
O4 C3 1.278 . S
C5 O6 1.245 . S
C5 O17 1.232 . S
O6 C5 1.245 . S
O7 Co1 2.058 . S
O7 C33 1.269 . S
O8 Co0 2.074 . S
O8 C33 1.257 . S
H9 C34 0.930 . S
H10 C40 0.930 . S
O11 Co0 2.093 . S
O11 C3 1.224 . S
H12 C44 0.929 . S
H13 C46 0.930 . S
H14 C47 0.930 . S
H15 C45 0.929 . S
H16 C48 0.928 . S
O17 Co1 2.057 . S
O17 C5 1.232 . S
H18 C37 0.929 . S
H19 C38 0.929 . S
H20 C50 0.931 . S
H21 C42 0.929 . S
H22 C51 0.930 . S
H23 C43 0.931 . S
O24 Co0 2.097 . S
O24 C52 1.214 . S
H25 C53 0.929 . S
H26 C54 0.929 . S
H27 C55 0.930 . S
H28 C56 0.929 . S
H29 C58 0.930 . S
H30 C35 0.930 . S
H31 C39 0.930 . S
O32 Co1 2.037 . S
O32 C52 1.234 . S
C33 O7 1.269 . S
C33 O8 1.257 . S
C34 H9 0.930 . S
C34 C37 1.388 . S
C34 C39 1.418 . S
C35 H30 0.930 . S
C35 C38 1.404 . S
C35 C39 1.353 . S
N36 Co1 2.145 . S
N36 C37 1.397 . S
N36 C38 1.334 . S
C37 H18 0.929 . S
C37 C34 1.388 . S
C37 N36 1.397 . S
C38 H19 0.929 . S
C38 C35 1.404 . S
C38 N36 1.334 . S
C39 H31 0.930 . S
C39 C34 1.418 . S
C39 C35 1.353 . S
C40 H10 0.930 . S
C40 N41 1.330 . S
C40 C42 1.446 . S
N41 Co0 2.151 . S
N41 C40 1.330 . S
N41 C45 1.418 . S
C42 H21 0.929 . S
C42 C40 1.446 . S
C42 C43 1.332 . S
C43 H23 0.931 . S
C43 C42 1.332 . S
C43 C44 1.267 . S
C44 H12 0.929 . S
C44 C43 1.267 . S
C44 C45 1.251 . S
C45 H15 0.929 . S
C45 N41 1.418 . S
C45 C44 1.251 . S
C46 H13 0.930 . S
C46 C48 1.406 . S
C46 C51 1.261 . S
C47 H14 0.930 . S
C47 N49 1.325 . S
C47 C50 1.357 . S
C48 H16 0.928 . S
C48 C46 1.406 . S
C48 N49 1.261 . S
N49 Co0 2.214 . S
N49 C47 1.325 . S
N49 C48 1.261 . S
C50 H20 0.931 . S
C50 C47 1.357 . S
C50 C51 1.312 . S
C51 H22 0.930 . S
C51 C46 1.261 . S
C51 C50 1.312 . S
C52 O24 1.214 . S
C52 O32 1.234 . S
C53 H25 0.929 . S
C53 C56 1.391 . S
C53 C58 1.391 . S
C54 H26 0.929 . S
C54 C55 1.390 1_554 S
C54 N57 1.391 . S
C55 H27 0.930 . S
C55 C54 1.390 1_556 S
C55 C56 1.392 . S
C56 H28 0.929 . S
C56 C53 1.391 . S
C56 C55 1.392 . S
N57 Co1 2.257 . S
N57 C54 1.391 . S
N57 C58 1.388 1_554 S
C58 H29 0.930 . S
C58 C53 1.391 . S
C58 N57 1.388 1_556 S
Co59 O61 2.143 . S
Co59 O67 2.074 . S
Co59 O70 2.093 . S
Co59 O83 2.097 . S
Co59 N100 2.151 . S
Co59 N108 2.214 . S
Co60 O61 2.160 . S
Co60 O66 2.058 . S
Co60 O76 2.057 . S
Co60 O91 2.037 . S
Co60 N95 2.145 . S
Co60 N116 2.257 . S
O61 Co59 2.143 . S
O61 Co60 2.160 . S
C62 O63 1.278 . S
C62 O70 1.224 . S
O63 C62 1.278 . S
C64 O65 1.245 . S
C64 O76 1.232 . S
O65 C64 1.245 . S
O66 Co60 2.058 . S
O66 C92 1.269 . S
O67 Co59 2.074 . S
O67 C92 1.257 . S
H68 C93 0.930 . S
H69 C99 0.930 . S
O70 Co59 2.093 . S
O70 C62 1.224 . S
H71 C103 0.929 . S
H72 C105 0.930 . S
H73 C106 0.930 . S
H74 C104 0.929 . S
H75 C107 0.928 . S
O76 Co60 2.057 . S
O76 C64 1.232 . S
H77 C96 0.929 . S
H78 C97 0.929 . S
H79 C109 0.931 . S
H80 C101 0.929 . S
H81 C110 0.930 . S
H82 C102 0.931 . S
O83 Co59 2.097 . S
O83 C111 1.214 . S
H84 C112 0.929 . S
H85 C113 0.929 . S
H86 C114 0.930 . S
H87 C115 0.929 . S
H88 C117 0.930 . S
H89 C94 0.930 . S
H90 C98 0.930 . S
O91 Co60 2.037 . S
O91 C111 1.234 . S
C92 O66 1.269 . S
C92 O67 1.257 . S
C93 H68 0.930 . S
C93 C96 1.388 . S
C93 C98 1.418 . S
C94 H89 0.930 . S
C94 C97 1.404 . S
C94 C98 1.353 . S
N95 Co60 2.145 . S
N95 C96 1.397 . S
N95 C97 1.334 . S
C96 H77 0.929 . S
C96 C93 1.388 . S
C96 N95 1.397 . S
C97 H78 0.929 . S
C97 C94 1.404 . S
C97 N95 1.334 . S
C98 H90 0.930 . S
C98 C93 1.418 . S
C98 C94 1.353 . S
C99 H69 0.930 . S
C99 N100 1.330 . S
C99 C101 1.446 . S
N100 Co59 2.151 . S
N100 C99 1.330 . S
N100 C104 1.418 . S
C101 H80 0.929 . S
C101 C99 1.446 . S
C101 C102 1.332 . S
C102 H82 0.931 . S
C102 C101 1.332 . S
C102 C103 1.267 . S
C103 H71 0.929 . S
C103 C102 1.267 . S
C103 C104 1.251 . S
C104 H74 0.929 . S
C104 N100 1.418 . S
C104 C103 1.251 . S
C105 H72 0.930 . S
C105 C107 1.406 . S
C105 C110 1.261 . S
C106 H73 0.930 . S
C106 N108 1.325 . S
C106 C109 1.357 . S
C107 H75 0.928 . S
C107 C105 1.406 . S
C107 N108 1.261 . S
N108 Co59 2.214 . S
N108 C106 1.325 . S
N108 C107 1.261 . S
C109 H79 0.931 . S
C109 C106 1.357 . S
C109 C110 1.312 . S
C110 H81 0.930 . S
C110 C105 1.261 . S
C110 C109 1.312 . S
C111 O83 1.214 . S
C111 O91 1.234 . S
C112 H84 0.929 . S
C112 C115 1.391 . S
C112 C117 1.391 . S
C113 H85 0.929 . S
C113 C114 1.390 . S
C113 N116 1.391 . S
C114 H86 0.930 . S
C114 C113 1.390 . S
C114 C115 1.392 . S
C115 H87 0.929 . S
C115 C112 1.391 . S
C115 C114 1.392 . S
N116 Co60 2.257 . S
N116 C113 1.391 . S
N116 C117 1.388 . S
C117 H88 0.930 . S
C117 C112 1.391 . S
C117 N116 1.388 . S
Co118 O120 2.143 . S
Co118 O126 2.074 . S
Co118 O129 2.093 . S
Co118 O142 2.097 . S
Co118 N159 2.151 . S
Co118 N167 2.214 . S
Co119 O120 2.160 . S
Co119 O125 2.058 . S
Co119 O135 2.057 . S
Co119 O150 2.037 . S
Co119 N154 2.145 . S
Co119 N175 2.257 . S
O120 Co118 2.143 . S
O120 Co119 2.160 . S
C121 O122 1.278 . S
C121 O129 1.224 . S
O122 C121 1.278 . S
C123 O124 1.245 . S
C123 O135 1.232 . S
O124 C123 1.245 . S
O125 Co119 2.058 . S
O125 C151 1.269 . S
O126 Co118 2.074 . S
O126 C151 1.257 . S
H127 C152 0.930 . S
H128 C158 0.930 . S
O129 Co118 2.093 . S
O129 C121 1.224 . S
H130 C162 0.929 . S
H131 C164 0.930 . S
H132 C165 0.930 . S
H133 C163 0.929 . S
H134 C166 0.928 . S
O135 Co119 2.057 . S
O135 C123 1.232 . S
H136 C155 0.929 . S
H137 C156 0.929 . S
H138 C168 0.931 . S
H139 C160 0.929 . S
H140 C169 0.930 . S
H141 C161 0.931 . S
O142 Co118 2.097 . S
O142 C170 1.214 . S
H143 C171 0.929 . S
H144 C172 0.929 . S
H145 C173 0.930 . S
H146 C174 0.929 . S
H147 C176 0.930 . S
H148 C153 0.930 . S
H149 C157 0.930 . S
O150 Co119 2.037 . S
O150 C170 1.234 . S
C151 O125 1.269 . S
C151 O126 1.257 . S
C152 H127 0.930 . S
C152 C155 1.388 . S
C152 C157 1.418 . S
C153 H148 0.930 . S
C153 C156 1.404 . S
C153 C157 1.353 . S
N154 Co119 2.145 . S
N154 C155 1.397 . S
N154 C156 1.334 . S
C155 H136 0.929 . S
C155 C152 1.388 . S
C155 N154 1.397 . S
C156 H137 0.929 . S
C156 C153 1.404 . S
C156 N154 1.334 . S
C157 H149 0.930 . S
C157 C152 1.418 . S
C157 C153 1.353 . S
C158 H128 0.930 . S
C158 N159 1.330 . S
C158 C160 1.446 . S
N159 Co118 2.151 . S
N159 C158 1.330 . S
N159 C163 1.418 . S
C160 H139 0.929 . S
C160 C158 1.446 . S
C160 C161 1.332 . S
C161 H141 0.931 . S
C161 C160 1.332 . S
C161 C162 1.267 . S
C162 H130 0.929 . S
C162 C161 1.267 . S
C162 C163 1.251 . S
C163 H133 0.929 . S
C163 N159 1.418 . S
C163 C162 1.251 . S
C164 H131 0.930 . S
C164 C166 1.406 . S
C164 C169 1.261 . S
C165 H132 0.930 . S
C165 N167 1.325 . S
C165 C168 1.357 . S
C166 H134 0.928 . S
C166 C164 1.406 . S
C166 N167 1.261 . S
N167 Co118 2.214 . S
N167 C165 1.325 . S
N167 C166 1.261 . S
C168 H138 0.931 . S
C168 C165 1.357 . S
C168 C169 1.312 . S
C169 H140 0.930 . S
C169 C164 1.261 . S
C169 C168 1.312 . S
C170 O142 1.214 . S
C170 O150 1.234 . S
C171 H143 0.929 . S
C171 C174 1.391 . S
C171 C176 1.391 . S
C172 H144 0.929 . S
C172 C173 1.390 1_556 S
C172 N175 1.391 . S
C173 H145 0.930 . S
C173 C172 1.390 1_554 S
C173 C174 1.392 . S
C174 H146 0.929 . S
C174 C171 1.391 . S
C174 C173 1.392 . S
N175 Co119 2.257 . S
N175 C172 1.391 . S
N175 C176 1.388 1_556 S
C176 H147 0.930 . S
C176 C171 1.391 . S
C176 N175 1.388 1_554 S
Co177 O179 2.143 . S
Co177 O185 2.074 . S
Co177 O188 2.093 . S
Co177 O201 2.097 . S
Co177 N218 2.151 . S
Co177 N226 2.214 . S
Co178 O179 2.160 . S
Co178 O184 2.058 . S
Co178 O194 2.057 . S
Co178 O209 2.037 . S
Co178 N213 2.145 . S
Co178 N234 2.257 . S
O179 Co177 2.143 . S
O179 Co178 2.160 . S
C180 O181 1.278 . S
C180 O188 1.224 . S
O181 C180 1.278 . S
C182 O183 1.245 . S
C182 O194 1.232 . S
O183 C182 1.245 . S
O184 Co178 2.058 . S
O184 C210 1.269 . S
O185 Co177 2.074 . S
O185 C210 1.257 . S
H186 C211 0.930 . S
H187 C217 0.930 . S
O188 Co177 2.093 . S
O188 C180 1.224 . S
H189 C221 0.929 . S
H190 C223 0.930 . S
H191 C224 0.930 . S
H192 C222 0.929 . S
H193 C225 0.928 . S
O194 Co178 2.057 . S
O194 C182 1.232 . S
H195 C214 0.929 . S
H196 C215 0.929 . S
H197 C227 0.931 . S
H198 C219 0.929 . S
H199 C228 0.930 . S
H200 C220 0.931 . S
O201 Co177 2.097 . S
O201 C229 1.214 . S
H202 C230 0.929 . S
H203 C231 0.929 . S
H204 C232 0.930 . S
H205 C233 0.929 . S
H206 C235 0.930 . S
H207 C212 0.930 . S
H208 C216 0.930 . S
O209 Co178 2.037 . S
O209 C229 1.234 . S
C210 O184 1.269 . S
C210 O185 1.257 . S
C211 H186 0.930 . S
C211 C214 1.388 . S
C211 C216 1.418 . S
C212 H207 0.930 . S
C212 C215 1.404 . S
C212 C216 1.353 . S
N213 Co178 2.145 . S
N213 C214 1.397 . S
N213 C215 1.334 . S
C214 H195 0.929 . S
C214 C211 1.388 . S
C214 N213 1.397 . S
C215 H196 0.929 . S
C215 C212 1.404 . S
C215 N213 1.334 . S
C216 H208 0.930 . S
C216 C211 1.418 . S
C216 C212 1.353 . S
C217 H187 0.930 . S
C217 N218 1.330 . S
C217 C219 1.446 . S
N218 Co177 2.151 . S
N218 C217 1.330 . S
N218 C222 1.418 . S
C219 H198 0.929 . S
C219 C217 1.446 . S
C219 C220 1.332 . S
C220 H200 0.931 . S
C220 C219 1.332 . S
C220 C221 1.267 . S
C221 H189 0.929 . S
C221 C220 1.267 . S
C221 C222 1.251 . S
C222 H192 0.929 . S
C222 N218 1.418 . S
C222 C221 1.251 . S
C223 H190 0.930 . S
C223 C225 1.406 . S
C223 C228 1.261 . S
C224 H191 0.930 . S
C224 N226 1.325 . S
C224 C227 1.357 . S
C225 H193 0.928 . S
C225 C223 1.406 . S
C225 N226 1.261 . S
N226 Co177 2.214 . S
N226 C224 1.325 . S
N226 C225 1.261 . S
C227 H197 0.931 . S
C227 C224 1.357 . S
C227 C228 1.312 . S
C228 H199 0.930 . S
C228 C223 1.261 . S
C228 C227 1.312 . S
C229 O201 1.214 . S
C229 O209 1.234 . S
C230 H202 0.929 . S
C230 C233 1.391 . S
C230 C235 1.391 . S
C231 H203 0.929 . S
C231 C232 1.390 . S
C231 N234 1.391 . S
C232 H204 0.930 . S
C232 C231 1.390 . S
C232 C233 1.392 . S
C233 H205 0.929 . S
C233 C230 1.391 . S
C233 C232 1.392 . S
N234 Co178 2.257 . S
N234 C231 1.391 . S
N234 C235 1.388 . S
C235 H206 0.930 . S
C235 C230 1.391 . S
C235 N234 1.388 . S
Co236 O238 2.143 . S
Co236 O244 2.074 . S
Co236 O247 2.093 . S
Co236 O260 2.097 . S
Co236 N277 2.151 . S
Co236 N285 2.214 . S
Co237 O238 2.160 . S
Co237 O243 2.058 . S
Co237 O253 2.057 . S
Co237 O268 2.037 . S
Co237 N272 2.145 1_556 S
Co237 N293 2.257 . S
O238 Co236 2.143 . S
O238 Co237 2.160 . S
C239 O240 1.278 . S
C239 O247 1.224 . S
O240 C239 1.278 . S
C241 O242 1.245 . S
C241 O253 1.232 . S
O242 C241 1.245 . S
O243 Co237 2.058 . S
O243 C269 1.269 . S
O244 Co236 2.074 . S
O244 C269 1.257 . S
H245 C270 0.930 . S
H246 C276 0.930 . S
O247 Co236 2.093 . S
O247 C239 1.224 . S
H248 C280 0.929 . S
H249 C282 0.930 . S
H250 C283 0.930 . S
H251 C281 0.929 . S
H252 C284 0.928 . S
O253 Co237 2.057 . S
O253 C241 1.232 . S
H254 C273 0.929 . S
H255 C274 0.929 . S
H256 C286 0.931 . S
H257 C278 0.929 . S
H258 C287 0.930 . S
H259 C279 0.931 . S
O260 Co236 2.097 . S
O260 C288 1.214 . S
H261 C289 0.929 . S
H262 C290 0.929 . S
H263 C291 0.930 . S
H264 C292 0.929 . S
H265 C294 0.930 . S
H266 C271 0.930 . S
H267 C275 0.930 . S
O268 Co237 2.037 . S
O268 C288 1.234 . S
C269 O243 1.269 . S
C269 O244 1.257 . S
C270 H245 0.930 . S
C270 C273 1.388 . S
C270 C275 1.418 . S
C271 H266 0.930 . S
C271 C274 1.404 . S
C271 C275 1.353 . S
N272 Co237 2.145 1_554 S
N272 C273 1.397 . S
N272 C274 1.334 . S
C273 H254 0.929 . S
C273 C270 1.388 . S
C273 N272 1.397 . S
C274 H255 0.929 . S
C274 C271 1.404 . S
C274 N272 1.334 . S
C275 H267 0.930 . S
C275 C270 1.418 . S
C275 C271 1.353 . S
C276 H246 0.930 . S
C276 N277 1.330 . S
C276 C278 1.446 . S
N277 Co236 2.151 . S
N277 C276 1.330 . S
N277 C281 1.418 . S
C278 H257 0.929 . S
C278 C276 1.446 . S
C278 C279 1.332 . S
C279 H259 0.931 . S
C279 C278 1.332 . S
C279 C280 1.267 . S
C280 H248 0.929 . S
C280 C279 1.267 . S
C280 C281 1.251 . S
C281 H251 0.929 . S
C281 N277 1.418 . S
C281 C280 1.251 . S
C282 H249 0.930 . S
C282 C284 1.406 . S
C282 C287 1.261 . S
C283 H250 0.930 . S
C283 N285 1.325 . S
C283 C286 1.357 . S
C284 H252 0.928 . S
C284 C282 1.406 . S
C284 N285 1.261 . S
N285 Co236 2.214 . S
N285 C283 1.325 . S
N285 C284 1.261 . S
C286 H256 0.931 . S
C286 C283 1.357 . S
C286 C287 1.312 . S
C287 H258 0.930 . S
C287 C282 1.261 . S
C287 C286 1.312 . S
C288 O260 1.214 . S
C288 O268 1.234 . S
C289 H261 0.929 . S
C289 C292 1.391 . S
C289 C294 1.391 . S
C290 H262 0.929 . S
C290 C291 1.390 . S
C290 N293 1.391 . S
C291 H263 0.930 . S
C291 C290 1.390 . S
C291 C292 1.392 . S
C292 H264 0.929 . S
C292 C289 1.391 . S
C292 C291 1.392 . S
N293 Co237 2.257 . S
N293 C290 1.391 . S
N293 C294 1.388 . S
C294 H265 0.930 . S
C294 C289 1.391 . S
C294 N293 1.388 . S
Co295 O297 2.143 . S
Co295 O303 2.074 . S
Co295 O306 2.093 . S
Co295 O319 2.097 . S
Co295 N336 2.151 . S
Co295 N344 2.214 . S
Co296 O297 2.160 . S
Co296 O302 2.058 . S
Co296 O312 2.057 . S
Co296 O327 2.037 . S
Co296 N331 2.145 . S
Co296 N352 2.257 . S
O297 Co295 2.143 . S
O297 Co296 2.160 . S
C298 O299 1.278 . S
C298 O306 1.224 . S
O299 C298 1.278 . S
C300 O301 1.245 . S
C300 O312 1.232 . S
O301 C300 1.245 . S
O302 Co296 2.058 . S
O302 C328 1.269 . S
O303 Co295 2.074 . S
O303 C328 1.257 . S
H304 C329 0.930 . S
H305 C335 0.930 . S
O306 Co295 2.093 . S
O306 C298 1.224 . S
H307 C339 0.929 . S
H308 C341 0.930 . S
H309 C342 0.930 . S
H310 C340 0.929 . S
H311 C343 0.928 . S
O312 Co296 2.057 . S
O312 C300 1.232 . S
H313 C332 0.929 . S
H314 C333 0.929 . S
H315 C345 0.931 . S
H316 C337 0.929 . S
H317 C346 0.930 . S
H318 C338 0.931 . S
O319 Co295 2.097 . S
O319 C347 1.214 . S
H320 C348 0.929 . S
H321 C349 0.929 . S
H322 C350 0.930 . S
H323 C351 0.929 . S
H324 C353 0.930 . S
H325 C330 0.930 . S
H326 C334 0.930 . S
O327 Co296 2.037 . S
O327 C347 1.234 . S
C328 O302 1.269 . S
C328 O303 1.257 . S
C329 H304 0.930 . S
C329 C332 1.388 . S
C329 C334 1.418 . S
C330 H325 0.930 . S
C330 C333 1.404 . S
C330 C334 1.353 . S
N331 Co296 2.145 . S
N331 C332 1.397 . S
N331 C333 1.334 . S
C332 H313 0.929 . S
C332 C329 1.388 . S
C332 N331 1.397 . S
C333 H314 0.929 . S
C333 C330 1.404 . S
C333 N331 1.334 . S
C334 H326 0.930 . S
C334 C329 1.418 . S
C334 C330 1.353 . S
C335 H305 0.930 . S
C335 N336 1.330 . S
C335 C337 1.446 . S
N336 Co295 2.151 . S
N336 C335 1.330 . S
N336 C340 1.418 . S
C337 H316 0.929 . S
C337 C335 1.446 . S
C337 C338 1.332 . S
C338 H318 0.931 . S
C338 C337 1.332 . S
C338 C339 1.267 . S
C339 H307 0.929 . S
C339 C338 1.267 . S
C339 C340 1.251 . S
C340 H310 0.929 . S
C340 N336 1.418 . S
C340 C339 1.251 . S
C341 H308 0.930 . S
C341 C343 1.406 . S
C341 C346 1.261 . S
C342 H309 0.930 . S
C342 N344 1.325 . S
C342 C345 1.357 . S
C343 H311 0.928 . S
C343 C341 1.406 . S
C343 N344 1.261 . S
N344 Co295 2.214 . S
N344 C342 1.325 . S
N344 C343 1.261 . S
C345 H315 0.931 . S
C345 C342 1.357 . S
C345 C346 1.312 . S
C346 H317 0.930 . S
C346 C341 1.261 . S
C346 C345 1.312 . S
C347 O319 1.214 . S
C347 O327 1.234 . S
C348 H320 0.929 . S
C348 C351 1.391 . S
C348 C353 1.391 . S
C349 H321 0.929 . S
C349 C350 1.390 . S
C349 N352 1.391 . S
C350 H322 0.930 . S
C350 C349 1.390 . S
C350 C351 1.392 . S
C351 H323 0.929 . S
C351 C348 1.391 . S
C351 C350 1.392 . S
N352 Co296 2.257 . S
N352 C349 1.391 . S
N352 C353 1.388 . S
C353 H324 0.930 . S
C353 C348 1.391 . S
C353 N352 1.388 . S
Co354 O356 2.143 . S
Co354 O362 2.074 . S
Co354 O365 2.093 . S
Co354 O378 2.097 . S
Co354 N395 2.151 . S
Co354 N403 2.214 . S
Co355 O356 2.160 . S
Co355 O361 2.058 . S
Co355 O371 2.057 . S
Co355 O386 2.037 . S
Co355 N390 2.145 1_554 S
Co355 N411 2.257 . S
O356 Co354 2.143 . S
O356 Co355 2.160 . S
C357 O358 1.278 . S
C357 O365 1.224 . S
O358 C357 1.278 . S
C359 O360 1.245 . S
C359 O371 1.232 . S
O360 C359 1.245 . S
O361 Co355 2.058 . S
O361 C387 1.269 . S
O362 Co354 2.074 . S
O362 C387 1.257 . S
H363 C388 0.930 . S
H364 C394 0.930 . S
O365 Co354 2.093 . S
O365 C357 1.224 . S
H366 C398 0.929 . S
H367 C400 0.930 . S
H368 C401 0.930 . S
H369 C399 0.929 . S
H370 C402 0.928 . S
O371 Co355 2.057 . S
O371 C359 1.232 . S
H372 C391 0.929 . S
H373 C392 0.929 . S
H374 C404 0.931 . S
H375 C396 0.929 . S
H376 C405 0.930 . S
H377 C397 0.931 . S
O378 Co354 2.097 . S
O378 C406 1.214 . S
H379 C407 0.929 . S
H380 C408 0.929 . S
H381 C409 0.930 . S
H382 C410 0.929 . S
H383 C412 0.930 . S
H384 C389 0.930 . S
H385 C393 0.930 . S
O386 Co355 2.037 . S
O386 C406 1.234 . S
C387 O361 1.269 . S
C387 O362 1.257 . S
C388 H363 0.930 . S
C388 C391 1.388 . S
C388 C393 1.418 . S
C389 H384 0.930 . S
C389 C392 1.404 . S
C389 C393 1.353 . S
N390 Co355 2.145 1_556 S
N390 C391 1.397 . S
N390 C392 1.334 . S
C391 H372 0.929 . S
C391 C388 1.388 . S
C391 N390 1.397 . S
C392 H373 0.929 . S
C392 C389 1.404 . S
C392 N390 1.334 . S
C393 H385 0.930 . S
C393 C388 1.418 . S
C393 C389 1.353 . S
C394 H364 0.930 . S
C394 N395 1.330 . S
C394 C396 1.446 . S
N395 Co354 2.151 . S
N395 C394 1.330 . S
N395 C399 1.418 . S
C396 H375 0.929 . S
C396 C394 1.446 . S
C396 C397 1.332 . S
C397 H377 0.931 . S
C397 C396 1.332 . S
C397 C398 1.267 . S
C398 H366 0.929 . S
C398 C397 1.267 . S
C398 C399 1.251 . S
C399 H369 0.929 . S
C399 N395 1.418 . S
C399 C398 1.251 . S
C400 H367 0.930 . S
C400 C402 1.406 . S
C400 C405 1.261 . S
C401 H368 0.930 . S
C401 N403 1.325 . S
C401 C404 1.357 . S
C402 H370 0.928 . S
C402 C400 1.406 . S
C402 N403 1.261 . S
N403 Co354 2.214 . S
N403 C401 1.325 . S
N403 C402 1.261 . S
C404 H374 0.931 . S
C404 C401 1.357 . S
C404 C405 1.312 . S
C405 H376 0.930 . S
C405 C400 1.261 . S
C405 C404 1.312 . S
C406 O378 1.214 . S
C406 O386 1.234 . S
C407 H379 0.929 . S
C407 C410 1.391 . S
C407 C412 1.391 . S
C408 H380 0.929 . S
C408 C409 1.390 . S
C408 N411 1.391 . S
C409 H381 0.930 . S
C409 C408 1.390 . S
C409 C410 1.392 . S
C410 H382 0.929 . S
C410 C407 1.391 . S
C410 C409 1.392 . S
N411 Co355 2.257 . S
N411 C408 1.391 . S
N411 C412 1.388 . S
C412 H383 0.930 . S
C412 C407 1.391 . S
C412 N411 1.388 . S
Co413 O415 2.143 . S
Co413 O421 2.074 . S
Co413 O424 2.093 . S
Co413 O437 2.097 . S
Co413 N454 2.151 . S
Co413 N462 2.214 . S
Co414 O415 2.160 . S
Co414 O420 2.058 . S
Co414 O430 2.057 . S
Co414 O445 2.037 . S
Co414 N449 2.145 . S
Co414 N470 2.257 . S
O415 Co413 2.143 . S
O415 Co414 2.160 . S
C416 O417 1.278 . S
C416 O424 1.224 . S
O417 C416 1.278 . S
C418 O419 1.245 . S
C418 O430 1.232 . S
O419 C418 1.245 . S
O420 Co414 2.058 . S
O420 C446 1.269 . S
O421 Co413 2.074 . S
O421 C446 1.257 . S
H422 C447 0.930 . S
H423 C453 0.930 . S
O424 Co413 2.093 . S
O424 C416 1.224 . S
H425 C457 0.929 . S
H426 C459 0.930 . S
H427 C460 0.930 . S
H428 C458 0.929 . S
H429 C461 0.928 . S
O430 Co414 2.057 . S
O430 C418 1.232 . S
H431 C450 0.929 . S
H432 C451 0.929 . S
H433 C463 0.931 . S
H434 C455 0.929 . S
H435 C464 0.930 . S
H436 C456 0.931 . S
O437 Co413 2.097 . S
O437 C465 1.214 . S
H438 C466 0.929 . S
H439 C467 0.929 . S
H440 C468 0.930 . S
H441 C469 0.929 . S
H442 C471 0.930 . S
H443 C448 0.930 . S
H444 C452 0.930 . S
O445 Co414 2.037 . S
O445 C465 1.234 . S
C446 O420 1.269 . S
C446 O421 1.257 . S
C447 H422 0.930 . S
C447 C450 1.388 . S
C447 C452 1.418 . S
C448 H443 0.930 . S
C448 C451 1.404 . S
C448 C452 1.353 . S
N449 Co414 2.145 . S
N449 C450 1.397 . S
N449 C451 1.334 . S
C450 H431 0.929 . S
C450 C447 1.388 . S
C450 N449 1.397 . S
C451 H432 0.929 . S
C451 C448 1.404 . S
C451 N449 1.334 . S
C452 H444 0.930 . S
C452 C447 1.418 . S
C452 C448 1.353 . S
C453 H423 0.930 . S
C453 N454 1.330 . S
C453 C455 1.446 . S
N454 Co413 2.151 . S
N454 C453 1.330 . S
N454 C458 1.418 . S
C455 H434 0.929 . S
C455 C453 1.446 . S
C455 C456 1.332 . S
C456 H436 0.931 . S
C456 C455 1.332 . S
C456 C457 1.267 . S
C457 H425 0.929 . S
C457 C456 1.267 . S
C457 C458 1.251 . S
C458 H428 0.929 . S
C458 N454 1.418 . S
C458 C457 1.251 . S
C459 H426 0.930 . S
C459 C461 1.406 . S
C459 C464 1.261 . S
C460 H427 0.930 . S
C460 N462 1.325 . S
C460 C463 1.357 . S
C461 H429 0.928 . S
C461 C459 1.406 . S
C461 N462 1.261 . S
N462 Co413 2.214 . S
N462 C460 1.325 . S
N462 C461 1.261 . S
C463 H433 0.931 . S
C463 C460 1.357 . S
C463 C464 1.312 . S
C464 H435 0.930 . S
C464 C459 1.261 . S
C464 C463 1.312 . S
C465 O437 1.214 . S
C465 O445 1.234 . S
C466 H438 0.929 . S
C466 C469 1.391 . S
C466 C471 1.391 . S
C467 H439 0.929 . S
C467 C468 1.390 . S
C467 N470 1.391 . S
C468 H440 0.930 . S
C468 C467 1.390 . S
C468 C469 1.392 . S
C469 H441 0.929 . S
C469 C466 1.391 . S
C469 C468 1.392 . S
N470 Co414 2.257 . S
N470 C467 1.391 . S
N470 C471 1.388 . S
C471 H442 0.930 . S
C471 C466 1.391 . S
C471 N470 1.388 . S
Co472 O474 2.143 . S
Co472 O480 2.074 . S
Co472 O483 2.093 . S
Co472 O496 2.097 . S
Co472 N513 2.151 . S
Co472 N521 2.214 . S
Co473 O474 2.160 . S
Co473 O479 2.058 . S
Co473 O489 2.057 . S
Co473 O504 2.037 . S
Co473 N508 2.145 . S
Co473 N529 2.257 . S
O474 Co472 2.143 . S
O474 Co473 2.160 . S
C475 O476 1.278 . S
C475 O483 1.224 . S
O476 C475 1.278 . S
C477 O478 1.245 . S
C477 O489 1.232 . S
O478 C477 1.245 . S
O479 Co473 2.058 . S
O479 C505 1.269 . S
O480 Co472 2.074 . S
O480 C505 1.257 . S
H481 C506 0.930 . S
H482 C512 0.930 . S
O483 Co472 2.093 . S
O483 C475 1.224 . S
H484 C516 0.929 . S
H485 C518 0.930 1_545 S
H486 C519 0.930 . S
H487 C517 0.929 . S
H488 C520 0.928 . S
O489 Co473 2.057 . S
O489 C477 1.232 . S
H490 C509 0.929 . S
H491 C510 0.929 . S
H492 C522 0.931 . S
H493 C514 0.929 . S
H494 C523 0.930 . S
H495 C515 0.931 . S
O496 Co472 2.097 . S
O496 C524 1.214 . S
H497 C525 0.929 . S
H498 C526 0.929 . S
H499 C527 0.930 . S
H500 C528 0.929 . S
H501 C530 0.930 . S
H502 C507 0.930 . S
H503 C511 0.930 . S
O504 Co473 2.037 . S
O504 C524 1.234 . S
C505 O479 1.269 . S
C505 O480 1.257 . S
C506 H481 0.930 . S
C506 C509 1.388 . S
C506 C511 1.418 . S
C507 H502 0.930 . S
C507 C510 1.404 . S
C507 C511 1.353 . S
N508 Co473 2.145 . S
N508 C509 1.397 . S
N508 C510 1.334 . S
C509 H490 0.929 . S
C509 C506 1.388 . S
C509 N508 1.397 . S
C510 H491 0.929 . S
C510 C507 1.404 . S
C510 N508 1.334 . S
C511 H503 0.930 . S
C511 C506 1.418 . S
C511 C507 1.353 . S
C512 H482 0.930 . S
C512 N513 1.330 . S
C512 C514 1.446 . S
N513 Co472 2.151 . S
N513 C512 1.330 . S
N513 C517 1.418 . S
C514 H493 0.929 . S
C514 C512 1.446 . S
C514 C515 1.332 . S
C515 H495 0.931 . S
C515 C514 1.332 . S
C515 C516 1.267 . S
C516 H484 0.929 . S
C516 C515 1.267 . S
C516 C517 1.251 . S
C517 H487 0.929 . S
C517 N513 1.418 . S
C517 C516 1.251 . S
C518 H485 0.930 1_565 S
C518 C520 1.406 . S
C518 C523 1.261 . S
C519 H486 0.930 . S
C519 N521 1.325 . S
C519 C522 1.357 . S
C520 H488 0.928 . S
C520 C518 1.406 . S
C520 N521 1.261 . S
N521 Co472 2.214 . S
N521 C519 1.325 . S
N521 C520 1.261 . S
C522 H492 0.931 . S
C522 C519 1.357 . S
C522 C523 1.312 . S
C523 H494 0.930 . S
C523 C518 1.261 . S
C523 C522 1.312 . S
C524 O496 1.214 . S
C524 O504 1.234 . S
C525 H497 0.929 . S
C525 C528 1.391 . S
C525 C530 1.391 . S
C526 H498 0.929 . S
C526 C527 1.390 1_554 S
C526 N529 1.391 . S
C527 H499 0.930 . S
C527 C526 1.390 1_556 S
C527 C528 1.392 . S
C528 H500 0.929 . S
C528 C525 1.391 . S
C528 C527 1.392 . S
N529 Co473 2.257 . S
N529 C526 1.391 . S
N529 C530 1.388 1_554 S
C530 H501 0.930 . S
C530 C525 1.391 . S
C530 N529 1.388 1_556 S
Co531 O533 2.143 . S
Co531 O539 2.074 . S
Co531 O542 2.093 . S
Co531 O555 2.097 . S
Co531 N572 2.151 . S
Co531 N580 2.214 . S
Co532 O533 2.160 . S
Co532 O538 2.058 . S
Co532 O548 2.057 . S
Co532 O563 2.037 . S
Co532 N567 2.145 . S
Co532 N588 2.257 . S
O533 Co531 2.143 . S
O533 Co532 2.160 . S
C534 O535 1.278 . S
C534 O542 1.224 . S
O535 C534 1.278 . S
C536 O537 1.245 . S
C536 O548 1.232 . S
O537 C536 1.245 . S
O538 Co532 2.058 . S
O538 C564 1.269 . S
O539 Co531 2.074 . S
O539 C564 1.257 . S
H540 C565 0.930 . S
H541 C571 0.930 . S
O542 Co531 2.093 . S
O542 C534 1.224 . S
H543 C575 0.929 . S
H544 C577 0.930 1_565 S
H545 C578 0.930 . S
H546 C576 0.929 . S
H547 C579 0.928 . S
O548 Co532 2.057 . S
O548 C536 1.232 . S
H549 C568 0.929 . S
H550 C569 0.929 . S
H551 C581 0.931 . S
H552 C573 0.929 . S
H553 C582 0.930 . S
H554 C574 0.931 . S
O555 Co531 2.097 . S
O555 C583 1.214 . S
H556 C584 0.929 . S
H557 C585 0.929 . S
H558 C586 0.930 . S
H559 C587 0.929 . S
H560 C589 0.930 . S
H561 C566 0.930 . S
H562 C570 0.930 . S
O563 Co532 2.037 . S
O563 C583 1.234 . S
C564 O538 1.269 . S
C564 O539 1.257 . S
C565 H540 0.930 . S
C565 C568 1.388 . S
C565 C570 1.418 . S
C566 H561 0.930 . S
C566 C569 1.404 . S
C566 C570 1.353 . S
N567 Co532 2.145 . S
N567 C568 1.397 . S
N567 C569 1.334 . S
C568 H549 0.929 . S
C568 C565 1.388 . S
C568 N567 1.397 . S
C569 H550 0.929 . S
C569 C566 1.404 . S
C569 N567 1.334 . S
C570 H562 0.930 . S
C570 C565 1.418 . S
C570 C566 1.353 . S
C571 H541 0.930 . S
C571 N572 1.330 . S
C571 C573 1.446 . S
N572 Co531 2.151 . S
N572 C571 1.330 . S
N572 C576 1.418 . S
C573 H552 0.929 . S
C573 C571 1.446 . S
C573 C574 1.332 . S
C574 H554 0.931 . S
C574 C573 1.332 . S
C574 C575 1.267 . S
C575 H543 0.929 . S
C575 C574 1.267 . S
C575 C576 1.251 . S
C576 H546 0.929 . S
C576 N572 1.418 . S
C576 C575 1.251 . S
C577 H544 0.930 1_545 S
C577 C579 1.406 . S
C577 C582 1.261 . S
C578 H545 0.930 . S
C578 N580 1.325 . S
C578 C581 1.357 . S
C579 H547 0.928 . S
C579 C577 1.406 . S
C579 N580 1.261 . S
N580 Co531 2.214 . S
N580 C578 1.325 . S
N580 C579 1.261 . S
C581 H551 0.931 . S
C581 C578 1.357 . S
C581 C582 1.312 . S
C582 H553 0.930 . S
C582 C577 1.261 . S
C582 C581 1.312 . S
C583 O555 1.214 . S
C583 O563 1.234 . S
C584 H556 0.929 . S
C584 C587 1.391 . S
C584 C589 1.391 . S
C585 H557 0.929 . S
C585 C586 1.390 . S
C585 N588 1.391 . S
C586 H558 0.930 . S
C586 C585 1.390 . S
C586 C587 1.392 . S
C587 H559 0.929 . S
C587 C584 1.391 . S
C587 C586 1.392 . S
N588 Co532 2.257 . S
N588 C585 1.391 . S
N588 C589 1.388 . S
C589 H560 0.930 . S
C589 C584 1.391 . S
C589 N588 1.388 . S
Co590 O592 2.143 . S
Co590 O598 2.074 . S
Co590 O601 2.093 . S
Co590 O614 2.097 . S
Co590 N631 2.151 . S
Co590 N639 2.214 . S
Co591 O592 2.160 . S
Co591 O597 2.058 . S
Co591 O607 2.057 . S
Co591 O622 2.037 . S
Co591 N626 2.145 . S
Co591 N647 2.257 . S
O592 Co590 2.143 . S
O592 Co591 2.160 . S
C593 O594 1.278 . S
C593 O601 1.224 . S
O594 C593 1.278 . S
C595 O596 1.245 . S
C595 O607 1.232 . S
O596 C595 1.245 . S
O597 Co591 2.058 . S
O597 C623 1.269 . S
O598 Co590 2.074 . S
O598 C623 1.257 . S
H599 C624 0.930 . S
H600 C630 0.930 . S
O601 Co590 2.093 . S
O601 C593 1.224 . S
H602 C634 0.929 . S
H603 C636 0.930 1_565 S
H604 C637 0.930 . S
H605 C635 0.929 . S
H606 C638 0.928 . S
O607 Co591 2.057 . S
O607 C595 1.232 . S
H608 C627 0.929 . S
H609 C628 0.929 . S
H610 C640 0.931 . S
H611 C632 0.929 . S
H612 C641 0.930 . S
H613 C633 0.931 . S
O614 Co590 2.097 . S
O614 C642 1.214 . S
H615 C643 0.929 . S
H616 C644 0.929 . S
H617 C645 0.930 . S
H618 C646 0.929 . S
H619 C648 0.930 . S
H620 C625 0.930 . S
H621 C629 0.930 . S
O622 Co591 2.037 . S
O622 C642 1.234 . S
C623 O597 1.269 . S
C623 O598 1.257 . S
C624 H599 0.930 . S
C624 C627 1.388 . S
C624 C629 1.418 . S
C625 H620 0.930 . S
C625 C628 1.404 . S
C625 C629 1.353 . S
N626 Co591 2.145 . S
N626 C627 1.397 . S
N626 C628 1.334 . S
C627 H608 0.929 . S
C627 C624 1.388 . S
C627 N626 1.397 . S
C628 H609 0.929 . S
C628 C625 1.404 . S
C628 N626 1.334 . S
C629 H621 0.930 . S
C629 C624 1.418 . S
C629 C625 1.353 . S
C630 H600 0.930 . S
C630 N631 1.330 . S
C630 C632 1.446 . S
N631 Co590 2.151 . S
N631 C630 1.330 . S
N631 C635 1.418 . S
C632 H611 0.929 . S
C632 C630 1.446 . S
C632 C633 1.332 . S
C633 H613 0.931 . S
C633 C632 1.332 . S
C633 C634 1.267 . S
C634 H602 0.929 . S
C634 C633 1.267 . S
C634 C635 1.251 . S
C635 H605 0.929 . S
C635 N631 1.418 . S
C635 C634 1.251 . S
C636 H603 0.930 1_545 S
C636 C638 1.406 . S
C636 C641 1.261 . S
C637 H604 0.930 . S
C637 N639 1.325 . S
C637 C640 1.357 . S
C638 H606 0.928 . S
C638 C636 1.406 . S
C638 N639 1.261 . S
N639 Co590 2.214 . S
N639 C637 1.325 . S
N639 C638 1.261 . S
C640 H610 0.931 . S
C640 C637 1.357 . S
C640 C641 1.312 . S
C641 H612 0.930 . S
C641 C636 1.261 . S
C641 C640 1.312 . S
C642 O614 1.214 . S
C642 O622 1.234 . S
C643 H615 0.929 . S
C643 C646 1.391 . S
C643 C648 1.391 . S
C644 H616 0.929 . S
C644 C645 1.390 1_556 S
C644 N647 1.391 . S
C645 H617 0.930 . S
C645 C644 1.390 1_554 S
C645 C646 1.392 . S
C646 H618 0.929 . S
C646 C643 1.391 . S
C646 C645 1.392 . S
N647 Co591 2.257 . S
N647 C644 1.391 . S
N647 C648 1.388 1_556 S
C648 H619 0.930 . S
C648 C643 1.391 . S
C648 N647 1.388 1_554 S
Co649 O651 2.143 . S
Co649 O657 2.074 . S
Co649 O660 2.093 . S
Co649 O673 2.097 . S
Co649 N690 2.151 . S
Co649 N698 2.214 . S
Co650 O651 2.160 . S
Co650 O656 2.058 . S
Co650 O666 2.057 . S
Co650 O681 2.037 . S
Co650 N685 2.145 . S
Co650 N706 2.257 . S
O651 Co649 2.143 . S
O651 Co650 2.160 . S
C652 O653 1.278 . S
C652 O660 1.224 . S
O653 C652 1.278 . S
C654 O655 1.245 . S
C654 O666 1.232 . S
O655 C654 1.245 . S
O656 Co650 2.058 . S
O656 C682 1.269 . S
O657 Co649 2.074 . S
O657 C682 1.257 . S
H658 C683 0.930 . S
H659 C689 0.930 . S
O660 Co649 2.093 . S
O660 C652 1.224 . S
H661 C693 0.929 . S
H662 C695 0.930 1_545 S
H663 C696 0.930 . S
H664 C694 0.929 . S
H665 C697 0.928 . S
O666 Co650 2.057 . S
O666 C654 1.232 . S
H667 C686 0.929 . S
H668 C687 0.929 . S
H669 C699 0.931 . S
H670 C691 0.929 . S
H671 C700 0.930 . S
H672 C692 0.931 . S
O673 Co649 2.097 . S
O673 C701 1.214 . S
H674 C702 0.929 . S
H675 C703 0.929 . S
H676 C704 0.930 . S
H677 C705 0.929 . S
H678 C707 0.930 . S
H679 C684 0.930 . S
H680 C688 0.930 . S
O681 Co650 2.037 . S
O681 C701 1.234 . S
C682 O656 1.269 . S
C682 O657 1.257 . S
C683 H658 0.930 . S
C683 C686 1.388 . S
C683 C688 1.418 . S
C684 H679 0.930 . S
C684 C687 1.404 . S
C684 C688 1.353 . S
N685 Co650 2.145 . S
N685 C686 1.397 . S
N685 C687 1.334 . S
C686 H667 0.929 . S
C686 C683 1.388 . S
C686 N685 1.397 . S
C687 H668 0.929 . S
C687 C684 1.404 . S
C687 N685 1.334 . S
C688 H680 0.930 . S
C688 C683 1.418 . S
C688 C684 1.353 . S
C689 H659 0.930 . S
C689 N690 1.330 . S
C689 C691 1.446 . S
N690 Co649 2.151 . S
N690 C689 1.330 . S
N690 C694 1.418 . S
C691 H670 0.929 . S
C691 C689 1.446 . S
C691 C692 1.332 . S
C692 H672 0.931 . S
C692 C691 1.332 . S
C692 C693 1.267 . S
C693 H661 0.929 . S
C693 C692 1.267 . S
C693 C694 1.251 . S
C694 H664 0.929 . S
C694 N690 1.418 . S
C694 C693 1.251 . S
C695 H662 0.930 1_565 S
C695 C697 1.406 . S
C695 C700 1.261 . S
C696 H663 0.930 . S
C696 N698 1.325 . S
C696 C699 1.357 . S
C697 H665 0.928 . S
C697 C695 1.406 . S
C697 N698 1.261 . S
N698 Co649 2.214 . S
N698 C696 1.325 . S
N698 C697 1.261 . S
C699 H669 0.931 . S
C699 C696 1.357 . S
C699 C700 1.312 . S
C700 H671 0.930 . S
C700 C695 1.261 . S
C700 C699 1.312 . S
C701 O673 1.214 . S
C701 O681 1.234 . S
C702 H674 0.929 . S
C702 C705 1.391 . S
C702 C707 1.391 . S
C703 H675 0.929 . S
C703 C704 1.390 . S
C703 N706 1.391 . S
C704 H676 0.930 . S
C704 C703 1.390 . S
C704 C705 1.392 . S
C705 H677 0.929 . S
C705 C702 1.391 . S
C705 C704 1.392 . S
N706 Co650 2.257 . S
N706 C703 1.391 . S
N706 C707 1.388 . S
C707 H678 0.930 . S
C707 C702 1.391 . S
C707 N706 1.388 . S
Co708 O710 2.143 . S
Co708 O716 2.074 . S
Co708 O719 2.093 . S
Co708 O732 2.097 . S
Co708 N749 2.151 . S
Co708 N757 2.214 . S
Co709 O710 2.160 . S
Co709 O715 2.058 . S
Co709 O725 2.057 . S
Co709 O740 2.037 . S
Co709 N744 2.145 1_556 S
Co709 N765 2.257 . S
O710 Co708 2.143 . S
O710 Co709 2.160 . S
C711 O712 1.278 . S
C711 O719 1.224 . S
O712 C711 1.278 . S
C713 O714 1.245 . S
C713 O725 1.232 . S
O714 C713 1.245 . S
O715 Co709 2.058 . S
O715 C741 1.269 . S
O716 Co708 2.074 . S
O716 C741 1.257 . S
H717 C742 0.930 . S
H718 C748 0.930 . S
O719 Co708 2.093 . S
O719 C711 1.224 . S
H720 C752 0.929 1_565 S
H721 C754 0.937 . S
H722 C755 0.930 . S
H723 C753 0.929 . S
H724 C756 0.928 . S
O725 Co709 2.057 . S
O725 C713 1.232 . S
H726 C745 0.929 . S
H727 C746 0.929 . S
H728 C758 0.931 . S
H729 C750 0.929 . S
H730 C759 0.930 1_565 S
H731 C751 0.931 . S
O732 Co708 2.097 . S
O732 C760 1.214 . S
H733 C761 0.929 . S
H734 C762 0.929 . S
H735 C763 0.930 . S
H736 C764 0.929 . S
H737 C766 0.930 . S
H738 C743 0.930 . S
H739 C747 0.930 . S
O740 Co709 2.037 . S
O740 C760 1.234 . S
C741 O715 1.269 . S
C741 O716 1.257 . S
C742 H717 0.930 . S
C742 C745 1.388 . S
C742 C747 1.418 . S
C743 H738 0.930 . S
C743 C746 1.404 . S
C743 C747 1.353 . S
N744 Co709 2.145 1_554 S
N744 C745 1.397 . S
N744 C746 1.334 . S
C745 H726 0.929 . S
C745 C742 1.388 . S
C745 N744 1.397 . S
C746 H727 0.929 . S
C746 C743 1.404 . S
C746 N744 1.334 . S
C747 H739 0.930 . S
C747 C742 1.418 . S
C747 C743 1.353 . S
C748 H718 0.930 . S
C748 N749 1.330 . S
C748 C750 1.446 . S
N749 Co708 2.151 . S
N749 C748 1.330 . S
N749 C753 1.418 . S
C750 H729 0.929 . S
C750 C748 1.446 . S
C750 C751 1.332 . S
C751 H731 0.931 . S
C751 C750 1.332 . S
C751 C752 1.267 . S
C752 H720 0.929 1_545 S
C752 C751 1.267 . S
C752 C753 1.251 . S
C753 H723 0.929 . S
C753 N749 1.418 . S
C753 C752 1.251 . S
C754 H721 0.937 . S
C754 C756 1.406 . S
C754 C759 1.261 . S
C755 H722 0.930 . S
C755 N757 1.325 . S
C755 C758 1.357 . S
C756 H724 0.928 . S
C756 C754 1.406 . S
C756 N757 1.261 . S
N757 Co708 2.214 . S
N757 C755 1.325 . S
N757 C756 1.261 . S
C758 H728 0.931 . S
C758 C755 1.357 . S
C758 C759 1.312 . S
C759 H730 0.930 1_545 S
C759 C754 1.261 . S
C759 C758 1.312 . S
C760 O732 1.214 . S
C760 O740 1.234 . S
C761 H733 0.929 . S
C761 C764 1.391 . S
C761 C766 1.391 . S
C762 H734 0.929 . S
C762 C763 1.390 . S
C762 N765 1.391 . S
C763 H735 0.930 . S
C763 C762 1.390 . S
C763 C764 1.392 . S
C764 H736 0.929 . S
C764 C761 1.391 . S
C764 C763 1.392 . S
N765 Co709 2.257 . S
N765 C762 1.391 . S
N765 C766 1.388 . S
C766 H737 0.930 . S
C766 C761 1.391 . S
C766 N765 1.388 . S
Co767 O769 2.143 . S
Co767 O775 2.074 . S
Co767 O778 2.093 . S
Co767 O791 2.097 . S
Co767 N808 2.151 . S
Co767 N816 2.214 . S
Co768 O769 2.160 . S
Co768 O774 2.058 . S
Co768 O784 2.057 . S
Co768 O799 2.037 . S
Co768 N803 2.145 . S
Co768 N824 2.257 . S
O769 Co767 2.143 . S
O769 Co768 2.160 . S
C770 O771 1.278 . S
C770 O778 1.224 . S
O771 C770 1.278 . S
C772 O773 1.245 . S
C772 O784 1.232 . S
O773 C772 1.245 . S
O774 Co768 2.058 . S
O774 C800 1.269 . S
O775 Co767 2.074 . S
O775 C800 1.257 . S
H776 C801 0.930 . S
H777 C807 0.930 . S
O778 Co767 2.093 . S
O778 C770 1.224 . S
H779 C811 0.929 1_545 S
H780 C813 0.937 . S
H781 C814 0.930 . S
H782 C812 0.929 . S
H783 C815 0.928 . S
O784 Co768 2.057 . S
O784 C772 1.232 . S
H785 C804 0.929 . S
H786 C805 0.929 . S
H787 C817 0.931 . S
H788 C809 0.929 . S
H789 C818 0.930 1_545 S
H790 C810 0.931 . S
O791 Co767 2.097 . S
O791 C819 1.214 . S
H792 C820 0.929 . S
H793 C821 0.929 . S
H794 C822 0.930 . S
H795 C823 0.929 . S
H796 C825 0.930 . S
H797 C802 0.930 . S
H798 C806 0.930 . S
O799 Co768 2.037 . S
O799 C819 1.234 . S
C800 O774 1.269 . S
C800 O775 1.257 . S
C801 H776 0.930 . S
C801 C804 1.388 . S
C801 C806 1.418 . S
C802 H797 0.930 . S
C802 C805 1.404 . S
C802 C806 1.353 . S
N803 Co768 2.145 . S
N803 C804 1.397 . S
N803 C805 1.334 . S
C804 H785 0.929 . S
C804 C801 1.388 . S
C804 N803 1.397 . S
C805 H786 0.929 . S
C805 C802 1.404 . S
C805 N803 1.334 . S
C806 H798 0.930 . S
C806 C801 1.418 . S
C806 C802 1.353 . S
C807 H777 0.930 . S
C807 N808 1.330 . S
C807 C809 1.446 . S
N808 Co767 2.151 . S
N808 C807 1.330 . S
N808 C812 1.418 . S
C809 H788 0.929 . S
C809 C807 1.446 . S
C809 C810 1.332 . S
C810 H790 0.931 . S
C810 C809 1.332 . S
C810 C811 1.267 . S
C811 H779 0.929 1_565 S
C811 C810 1.267 . S
C811 C812 1.251 . S
C812 H782 0.929 . S
C812 N808 1.418 . S
C812 C811 1.251 . S
C813 H780 0.937 . S
C813 C815 1.406 . S
C813 C818 1.261 . S
C814 H781 0.930 . S
C814 N816 1.325 . S
C814 C817 1.357 . S
C815 H783 0.928 . S
C815 C813 1.406 . S
C815 N816 1.261 . S
N816 Co767 2.214 . S
N816 C814 1.325 . S
N816 C815 1.261 . S
C817 H787 0.931 . S
C817 C814 1.357 . S
C817 C818 1.312 . S
C818 H789 0.930 1_565 S
C818 C813 1.261 . S
C818 C817 1.312 . S
C819 O791 1.214 . S
C819 O799 1.234 . S
C820 H792 0.929 . S
C820 C823 1.391 . S
C820 C825 1.391 . S
C821 H793 0.929 . S
C821 C822 1.390 . S
C821 N824 1.391 . S
C822 H794 0.930 . S
C822 C821 1.390 . S
C822 C823 1.392 . S
C823 H795 0.929 . S
C823 C820 1.391 . S
C823 C822 1.392 . S
N824 Co768 2.257 . S
N824 C821 1.391 . S
N824 C825 1.388 . S
C825 H796 0.930 . S
C825 C820 1.391 . S
C825 N824 1.388 . S
Co826 O828 2.143 . S
Co826 O834 2.074 . S
Co826 O837 2.093 . S
Co826 O850 2.097 . S
Co826 N867 2.151 . S
Co826 N875 2.214 . S
Co827 O828 2.160 . S
Co827 O833 2.058 . S
Co827 O843 2.057 . S
Co827 O858 2.037 . S
Co827 N862 2.145 1_554 S
Co827 N883 2.257 . S
O828 Co826 2.143 . S
O828 Co827 2.160 . S
C829 O830 1.278 . S
C829 O837 1.224 . S
O830 C829 1.278 . S
C831 O832 1.245 . S
C831 O843 1.232 . S
O832 C831 1.245 . S
O833 Co827 2.058 . S
O833 C859 1.269 . S
O834 Co826 2.074 . S
O834 C859 1.257 . S
H835 C860 0.930 . S
H836 C866 0.930 . S
O837 Co826 2.093 . S
O837 C829 1.224 . S
H838 C870 0.929 1_545 S
H839 C872 0.937 . S
H840 C873 0.930 . S
H841 C871 0.929 . S
H842 C874 0.928 . S
O843 Co827 2.057 . S
O843 C831 1.232 . S
H844 C863 0.929 . S
H845 C864 0.929 . S
H846 C876 0.931 . S
H847 C868 0.929 . S
H848 C877 0.930 1_545 S
H849 C869 0.931 . S
O850 Co826 2.097 . S
O850 C878 1.214 . S
H851 C879 0.929 . S
H852 C880 0.929 . S
H853 C881 0.930 . S
H854 C882 0.929 . S
H855 C884 0.930 . S
H856 C861 0.930 . S
H857 C865 0.930 . S
O858 Co827 2.037 . S
O858 C878 1.234 . S
C859 O833 1.269 . S
C859 O834 1.257 . S
C860 H835 0.930 . S
C860 C863 1.388 . S
C860 C865 1.418 . S
C861 H856 0.930 . S
C861 C864 1.404 . S
C861 C865 1.353 . S
N862 Co827 2.145 1_556 S
N862 C863 1.397 . S
N862 C864 1.334 . S
C863 H844 0.929 . S
C863 C860 1.388 . S
C863 N862 1.397 . S
C864 H845 0.929 . S
C864 C861 1.404 . S
C864 N862 1.334 . S
C865 H857 0.930 . S
C865 C860 1.418 . S
C865 C861 1.353 . S
C866 H836 0.930 . S
C866 N867 1.330 . S
C866 C868 1.446 . S
N867 Co826 2.151 . S
N867 C866 1.330 . S
N867 C871 1.418 . S
C868 H847 0.929 . S
C868 C866 1.446 . S
C868 C869 1.332 . S
C869 H849 0.931 . S
C869 C868 1.332 . S
C869 C870 1.267 . S
C870 H838 0.929 1_565 S
C870 C869 1.267 . S
C870 C871 1.251 . S
C871 H841 0.929 . S
C871 N867 1.418 . S
C871 C870 1.251 . S
C872 H839 0.937 . S
C872 C874 1.406 . S
C872 C877 1.261 . S
C873 H840 0.930 . S
C873 N875 1.325 . S
C873 C876 1.357 . S
C874 H842 0.928 . S
C874 C872 1.406 . S
C874 N875 1.261 . S
N875 Co826 2.214 . S
N875 C873 1.325 . S
N875 C874 1.261 . S
C876 H846 0.931 . S
C876 C873 1.357 . S
C876 C877 1.312 . S
C877 H848 0.930 1_565 S
C877 C872 1.261 . S
C877 C876 1.312 . S
C878 O850 1.214 . S
C878 O858 1.234 . S
C879 H851 0.929 . S
C879 C882 1.391 . S
C879 C884 1.391 . S
C880 H852 0.929 . S
C880 C881 1.390 . S
C880 N883 1.391 . S
C881 H853 0.930 . S
C881 C880 1.390 . S
C881 C882 1.392 . S
C882 H854 0.929 . S
C882 C879 1.391 . S
C882 C881 1.392 . S
N883 Co827 2.257 . S
N883 C880 1.391 . S
N883 C884 1.388 . S
C884 H855 0.930 . S
C884 C879 1.391 . S
C884 N883 1.388 . S
Co885 O887 2.143 . S
Co885 O893 2.074 . S
Co885 O896 2.093 . S
Co885 O909 2.097 . S
Co885 N926 2.151 . S
Co885 N934 2.214 . S
Co886 O887 2.160 . S
Co886 O892 2.058 . S
Co886 O902 2.057 . S
Co886 O917 2.037 . S
Co886 N921 2.145 . S
Co886 N942 2.257 . S
O887 Co885 2.143 . S
O887 Co886 2.160 . S
C888 O889 1.278 . S
C888 O896 1.224 . S
O889 C888 1.278 . S
C890 O891 1.245 . S
C890 O902 1.232 . S
O891 C890 1.245 . S
O892 Co886 2.058 . S
O892 C918 1.269 . S
O893 Co885 2.074 . S
O893 C918 1.257 . S
H894 C919 0.930 . S
H895 C925 0.930 . S
O896 Co885 2.093 . S
O896 C888 1.224 . S
H897 C929 0.929 1_565 S
H898 C931 0.937 . S
H899 C932 0.930 . S
H900 C930 0.929 . S
H901 C933 0.928 . S
O902 Co886 2.057 . S
O902 C890 1.232 . S
H903 C922 0.929 . S
H904 C923 0.929 . S
H905 C935 0.931 . S
H906 C927 0.929 . S
H907 C936 0.930 1_565 S
H908 C928 0.931 . S
O909 Co885 2.097 . S
O909 C937 1.214 . S
H910 C938 0.929 . S
H911 C939 0.929 . S
H912 C940 0.930 . S
H913 C941 0.929 . S
H914 C943 0.930 . S
H915 C920 0.930 . S
H916 C924 0.930 . S
O917 Co886 2.037 . S
O917 C937 1.234 . S
C918 O892 1.269 . S
C918 O893 1.257 . S
C919 H894 0.930 . S
C919 C922 1.388 . S
C919 C924 1.418 . S
C920 H915 0.930 . S
C920 C923 1.404 . S
C920 C924 1.353 . S
N921 Co886 2.145 . S
N921 C922 1.397 . S
N921 C923 1.334 . S
C922 H903 0.929 . S
C922 C919 1.388 . S
C922 N921 1.397 . S
C923 H904 0.929 . S
C923 C920 1.404 . S
C923 N921 1.334 . S
C924 H916 0.930 . S
C924 C919 1.418 . S
C924 C920 1.353 . S
C925 H895 0.930 . S
C925 N926 1.330 . S
C925 C927 1.446 . S
N926 Co885 2.151 . S
N926 C925 1.330 . S
N926 C930 1.418 . S
C927 H906 0.929 . S
C927 C925 1.446 . S
C927 C928 1.332 . S
C928 H908 0.931 . S
C928 C927 1.332 . S
C928 C929 1.267 . S
C929 H897 0.929 1_545 S
C929 C928 1.267 . S
C929 C930 1.251 . S
C930 H900 0.929 . S
C930 N926 1.418 . S
C930 C929 1.251 . S
C931 H898 0.937 . S
C931 C933 1.406 . S
C931 C936 1.261 . S
C932 H899 0.930 . S
C932 N934 1.325 . S
C932 C935 1.357 . S
C933 H901 0.928 . S
C933 C931 1.406 . S
C933 N934 1.261 . S
N934 Co885 2.214 . S
N934 C932 1.325 . S
N934 C933 1.261 . S
C935 H905 0.931 . S
C935 C932 1.357 . S
C935 C936 1.312 . S
C936 H907 0.930 1_545 S
C936 C931 1.261 . S
C936 C935 1.312 . S
C937 O909 1.214 . S
C937 O917 1.234 . S
C938 H910 0.929 . S
C938 C941 1.391 . S
C938 C943 1.391 . S
C939 H911 0.929 . S
C939 C940 1.390 . S
C939 N942 1.391 . S
C940 H912 0.930 . S
C940 C939 1.390 . S
C940 C941 1.392 . S
C941 H913 0.929 . S
C941 C938 1.391 . S
C941 C940 1.392 . S
N942 Co886 2.257 . S
N942 C939 1.391 . S
N942 C943 1.388 . S
C943 H914 0.930 . S
C943 C938 1.391 . S
C943 N942 1.388 . S
C944 C945 1.369 . S
C944 C946 1.419 1_455 S
C944 H948 0.930 . S
C945 C944 1.369 . S
C945 C954 1.429 . S
C946 C944 1.419 1_655 S
C946 C947 1.363 . S
C946 H949 0.929 . S
C947 C946 1.363 . S
C947 C953 1.428 . S
H948 C944 0.930 . S
H949 C946 0.929 . S
S950 N951 1.613 . S
S950 N952 1.610 1_455 S
N951 S950 1.613 . S
N951 C954 1.350 . S
N952 S950 1.610 1_655 S
N952 C953 1.351 . S
C953 C947 1.428 . S
C953 N952 1.351 . S
C953 C954 1.434 1_655 S
C954 C945 1.429 . S
C954 N951 1.350 . S
C954 C953 1.434 1_455 S
C955 C956 1.369 . S
C955 C957 1.419 1_655 S
C955 H959 0.930 . S
C956 C955 1.369 . S
C956 C965 1.429 . S
C957 C955 1.419 1_455 S
C957 C958 1.363 . S
C957 H960 0.929 . S
C958 C957 1.363 . S
C958 C964 1.428 . S
H959 C955 0.930 . S
H960 C957 0.929 . S
S961 N962 1.613 . S
S961 N963 1.610 1_655 S
N962 S961 1.613 . S
N962 C965 1.350 . S
N963 S961 1.610 1_455 S
N963 C964 1.351 . S
C964 C958 1.428 . S
C964 N963 1.351 . S
C964 C965 1.434 1_455 S
C965 C956 1.429 . S
C965 N962 1.350 . S
C965 C964 1.434 1_655 S
C966 C967 1.369 . S
C966 C968 1.419 1_655 S
C966 H970 0.930 . S
C967 C966 1.369 . S
C967 C976 1.429 . S
C968 C966 1.419 1_455 S
C968 C969 1.363 . S
C968 H971 0.929 . S
C969 C968 1.363 . S
C969 C975 1.428 . S
H970 C966 0.930 . S
H971 C968 0.929 . S
S972 N973 1.613 1_455 S
S972 N974 1.610 . S
N973 S972 1.613 1_655 S
N973 C976 1.350 . S
N974 S972 1.610 . S
N974 C975 1.351 . S
C975 C969 1.428 . S
C975 N974 1.351 . S
C975 C976 1.434 1_455 S
C976 C967 1.429 . S
C976 N973 1.350 . S
C976 C975 1.434 1_655 S
C977 C978 1.369 . S
C977 C979 1.419 1_455 S
C977 H981 0.930 . S
C978 C977 1.369 . S
C978 C987 1.429 . S
C979 C977 1.419 1_655 S
C979 C980 1.363 . S
C979 H982 0.929 . S
C980 C979 1.363 . S
C980 C986 1.428 . S
H981 C977 0.930 . S
H982 C979 0.929 . S
S983 N984 1.613 1_655 S
S983 N985 1.610 . S
N984 S983 1.613 1_455 S
N984 C987 1.350 . S
N985 S983 1.610 . S
N985 C986 1.351 . S
C986 C980 1.428 . S
C986 N985 1.351 . S
C986 C987 1.434 1_655 S
C987 C978 1.429 . S
C987 N984 1.350 . S
C987 C986 1.434 1_455 S
C988 C989 1.369 . S
C988 C990 1.419 . S
C988 H992 0.930 . S
C989 C988 1.369 . S
C989 C998 1.429 . S
C990 C988 1.419 . S
C990 C991 1.363 . S
C990 H993 0.929 . S
C991 C990 1.363 . S
C991 C997 1.428 . S
H992 C988 0.930 . S
H993 C990 0.929 . S
S994 N995 1.613 . S
S994 N996 1.610 . S
N995 S994 1.613 . S
N995 C998 1.350 . S
N996 S994 1.610 . S
N996 C997 1.351 . S
C997 C991 1.428 . S
C997 N996 1.351 . S
C997 C998 1.434 . S
C998 C989 1.429 . S
C998 N995 1.350 . S
C998 C997 1.434 . S
C999 C1000 1.369 . S
C999 C1001 1.419 . S
C999 H1003 0.930 . S
C1000 C999 1.369 . S
C1000 C1009 1.429 . S
C1001 C999 1.419 . S
C1001 C1002 1.363 . S
C1001 H1004 0.929 . S
C1002 C1001 1.363 . S
C1002 C1008 1.428 . S
H1003 C999 0.930 . S
H1004 C1001 0.929 . S
S1005 N1006 1.613 . S
S1005 N1007 1.610 . S
N1006 S1005 1.613 . S
N1006 C1009 1.350 . S
N1007 S1005 1.610 . S
N1007 C1008 1.351 . S
C1008 C1002 1.428 . S
C1008 N1007 1.351 . S
C1008 C1009 1.434 . S
C1009 C1000 1.429 . S
C1009 N1006 1.350 . S
C1009 C1008 1.434 . S
C1010 C1011 1.369 . S
C1010 C1012 1.419 . S
C1010 H1014 0.930 . S
C1011 C1010 1.369 . S
C1011 C1020 1.429 . S
C1012 C1010 1.419 . S
C1012 C1013 1.363 . S
C1012 H1015 0.929 . S
C1013 C1012 1.363 . S
C1013 C1019 1.428 . S
H1014 C1010 0.930 . S
H1015 C1012 0.929 . S
S1016 N1017 1.613 . S
S1016 N1018 1.610 . S
N1017 S1016 1.613 . S
N1017 C1020 1.350 . S
N1018 S1016 1.610 . S
N1018 C1019 1.351 . S
C1019 C1013 1.428 . S
C1019 N1018 1.351 . S
C1019 C1020 1.434 . S
C1020 C1011 1.429 . S
C1020 N1017 1.350 . S
C1020 C1019 1.434 . S
C1021 C1022 1.369 . S
C1021 C1023 1.419 . S
C1021 H1025 0.930 . S
C1022 C1021 1.369 . S
C1022 C1031 1.429 . S
C1023 C1021 1.419 . S
C1023 C1024 1.363 . S
C1023 H1026 0.929 . S
C1024 C1023 1.363 . S
C1024 C1030 1.428 . S
H1025 C1021 0.930 . S
H1026 C1023 0.929 . S
S1027 N1028 1.613 . S
S1027 N1029 1.610 . S
N1028 S1027 1.613 . S
N1028 C1031 1.350 . S
N1029 S1027 1.610 . S
N1029 C1030 1.351 . S
C1030 C1024 1.428 . S
C1030 N1029 1.351 . S
C1030 C1031 1.434 . S
C1031 C1022 1.429 . S
C1031 N1028 1.350 . S
C1031 C1030 1.434 . S
C1032 C1033 1.369 . S
C1032 C1034 1.419 . S
C1032 H1036 0.930 . S
C1033 C1032 1.369 . S
C1033 C1042 1.429 . S
C1034 C1032 1.419 . S
C1034 C1035 1.363 . S
C1034 H1037 0.929 . S
C1035 C1034 1.363 . S
C1035 C1041 1.428 . S
H1036 C1032 0.930 . S
H1037 C1034 0.929 . S
S1038 N1039 1.613 . S
S1038 N1040 1.610 . S
N1039 S1038 1.613 . S
N1039 C1042 1.350 . S
N1040 S1038 1.610 . S
N1040 C1041 1.351 . S
C1041 C1035 1.428 . S
C1041 N1040 1.351 . S
C1041 C1042 1.434 . S
C1042 C1033 1.429 . S
C1042 N1039 1.350 . S
C1042 C1041 1.434 . S
C1043 C1044 1.369 . S
C1043 C1045 1.419 . S
C1043 H1047 0.930 . S
C1044 C1043 1.369 . S
C1044 C1053 1.429 . S
C1045 C1043 1.419 . S
C1045 C1046 1.363 . S
C1045 H1048 0.929 . S
C1046 C1045 1.363 . S
C1046 C1052 1.428 . S
H1047 C1043 0.930 . S
H1048 C1045 0.929 . S
S1049 N1050 1.613 . S
S1049 N1051 1.610 . S
N1050 S1049 1.613 . S
N1050 C1053 1.350 . S
N1051 S1049 1.610 . S
N1051 C1052 1.351 . S
C1052 C1046 1.428 . S
C1052 N1051 1.351 . S
C1052 C1053 1.434 . S
C1053 C1044 1.429 . S
C1053 N1050 1.350 . S
C1053 C1052 1.434 . S
C1054 C1055 1.369 . S
C1054 C1056 1.419 . S
C1054 H1058 0.930 . S
C1055 C1054 1.369 . S
C1055 C1064 1.429 . S
C1056 C1054 1.419 . S
C1056 C1057 1.363 . S
C1056 H1059 0.929 . S
C1057 C1056 1.363 . S
C1057 C1063 1.428 . S
H1058 C1054 0.930 . S
H1059 C1056 0.929 . S
S1060 N1061 1.613 . S
S1060 N1062 1.610 . S
N1061 S1060 1.613 . S
N1061 C1064 1.350 . S
N1062 S1060 1.610 . S
N1062 C1063 1.351 . S
C1063 C1057 1.428 . S
C1063 N1062 1.351 . S
C1063 C1064 1.434 . S
C1064 C1055 1.429 . S
C1064 N1061 1.350 . S
C1064 C1063 1.434 . S
C1065 C1066 1.369 . S
C1065 C1067 1.419 . S
C1065 H1069 0.930 . S
C1066 C1065 1.369 . S
C1066 C1075 1.429 . S
C1067 C1065 1.419 . S
C1067 C1068 1.363 . S
C1067 H1070 0.929 . S
C1068 C1067 1.363 . S
C1068 C1074 1.428 . S
H1069 C1065 0.930 . S
H1070 C1067 0.929 . S
S1071 N1072 1.613 . S
S1071 N1073 1.610 . S
N1072 S1071 1.613 . S
N1072 C1075 1.350 . S
N1073 S1071 1.610 . S
N1073 C1074 1.351 . S
C1074 C1068 1.428 . S
C1074 N1073 1.351 . S
C1074 C1075 1.434 . S
C1075 C1066 1.429 . S
C1075 N1072 1.350 . S
C1075 C1074 1.434 . S
C1076 C1077 1.369 . S
C1076 C1078 1.419 . S
C1076 H1080 0.930 . S
C1077 C1076 1.369 . S
C1077 C1086 1.429 . S
C1078 C1076 1.419 . S
C1078 C1079 1.363 . S
C1078 H1081 0.929 . S
C1079 C1078 1.363 . S
C1079 C1085 1.428 . S
H1080 C1076 0.930 . S
H1081 C1078 0.929 . S
S1082 N1083 1.613 . S
S1082 N1084 1.610 . S
N1083 S1082 1.613 . S
N1083 C1086 1.350 . S
N1084 S1082 1.610 . S
N1084 C1085 1.351 . S
C1085 C1079 1.428 . S
C1085 N1084 1.351 . S
C1085 C1086 1.434 . S
C1086 C1077 1.429 . S
C1086 N1083 1.350 . S
C1086 C1085 1.434 . S
C1087 C1088 1.369 . S
C1087 C1089 1.419 . S
C1087 H1091 0.930 . S
C1088 C1087 1.369 . S
C1088 C1097 1.429 . S
C1089 C1087 1.419 . S
C1089 C1090 1.363 . S
C1089 H1092 0.929 . S
C1090 C1089 1.363 . S
C1090 C1096 1.428 . S
H1091 C1087 0.930 . S
H1092 C1089 0.929 . S
S1093 N1094 1.613 . S
S1093 N1095 1.610 . S
N1094 S1093 1.613 . S
N1094 C1097 1.350 . S
N1095 S1093 1.610 . S
N1095 C1096 1.351 . S
C1096 C1090 1.428 . S
C1096 N1095 1.351 . S
C1096 C1097 1.434 . S
C1097 C1088 1.429 . S
C1097 N1094 1.350 . S
C1097 C1096 1.434 . S
C1098 C1099 1.369 . S
C1098 C1100 1.419 . S
C1098 H1102 0.930 . S
C1099 C1098 1.369 . S
C1099 C1108 1.429 . S
C1100 C1098 1.419 . S
C1100 C1101 1.363 . S
C1100 H1103 0.929 . S
C1101 C1100 1.363 . S
C1101 C1107 1.428 . S
H1102 C1098 0.930 . S
H1103 C1100 0.929 . S
S1104 N1105 1.613 . S
S1104 N1106 1.610 . S
N1105 S1104 1.613 . S
N1105 C1108 1.350 . S
N1106 S1104 1.610 . S
N1106 C1107 1.351 . S
C1107 C1101 1.428 . S
C1107 N1106 1.351 . S
C1107 C1108 1.434 . S
C1108 C1099 1.429 . S
C1108 N1105 1.350 . S
C1108 C1107 1.434 . S
C1109 C1110 1.369 . S
C1109 C1111 1.419 . S
C1109 H1113 0.930 . S
C1110 C1109 1.369 . S
C1110 C1119 1.429 . S
C1111 C1109 1.419 . S
C1111 C1112 1.363 . S
C1111 H1114 0.929 . S
C1112 C1111 1.363 . S
C1112 C1118 1.428 . S
H1113 C1109 0.930 . S
H1114 C1111 0.929 . S
S1115 N1116 1.613 . S
S1115 N1117 1.610 . S
N1116 S1115 1.613 . S
N1116 C1119 1.350 . S
N1117 S1115 1.610 . S
N1117 C1118 1.351 . S
C1118 C1112 1.428 . S
C1118 N1117 1.351 . S
C1118 C1119 1.434 . S
C1119 C1110 1.429 . S
C1119 N1116 1.350 . S
C1119 C1118 1.434 . S
C1120 C1121 1.369 1_554 S
C1120 C1122 1.419 . S
C1120 H1124 0.929 1_554 S
C1121 C1120 1.369 1_556 S
C1121 C1130 1.429 . S
C1122 C1120 1.419 . S
C1122 C1123 1.363 . S
C1122 H1125 0.929 . S
C1123 C1122 1.363 . S
C1123 C1129 1.428 . S
H1124 C1120 0.929 1_556 S
H1125 C1122 0.929 . S
S1126 N1127 1.613 . S
S1126 N1128 1.610 1_556 S
N1127 S1126 1.613 . S
N1127 C1130 1.350 . S
N1128 S1126 1.610 1_554 S
N1128 C1129 1.351 . S
C1129 C1123 1.428 . S
C1129 N1128 1.351 . S
C1129 C1130 1.434 1_554 S
C1130 C1121 1.429 . S
C1130 N1127 1.350 . S
C1130 C1129 1.434 1_556 S
C1131 C1132 1.369 . S
C1131 C1133 1.419 . S
C1131 H1135 0.930 . S
C1132 C1131 1.369 . S
C1132 C1141 1.429 . S
C1133 C1131 1.419 . S
C1133 C1134 1.363 . S
C1133 H1136 0.929 . S
C1134 C1133 1.363 . S
C1134 C1140 1.428 . S
H1135 C1131 0.930 . S
H1136 C1133 0.929 . S
S1137 N1138 1.613 . S
S1137 N1139 1.610 . S
N1138 S1137 1.613 . S
N1138 C1141 1.350 . S
N1139 S1137 1.610 . S
N1139 C1140 1.351 . S
C1140 C1134 1.428 . S
C1140 N1139 1.351 . S
C1140 C1141 1.434 . S
C1141 C1132 1.429 . S
C1141 N1138 1.350 . S
C1141 C1140 1.434 . S
C1142 C1143 1.369 . S
C1142 C1144 1.419 . S
C1142 H1146 0.930 . S
C1143 C1142 1.369 . S
C1143 C1152 1.429 1_554 S
C1144 C1142 1.419 . S
C1144 C1145 1.363 1_554 S
C1144 H1147 0.929 . S
C1145 C1144 1.363 1_556 S
C1145 C1151 1.428 . S
H1146 C1142 0.930 . S
H1147 C1144 0.929 . S
S1148 N1149 1.613 . S
S1148 N1150 1.610 . S
N1149 S1148 1.613 . S
N1149 C1152 1.350 . S
N1150 S1148 1.610 . S
N1150 C1151 1.351 . S
C1151 C1145 1.428 . S
C1151 N1150 1.351 . S
C1151 C1152 1.434 . S
C1152 C1143 1.429 1_556 S
C1152 N1149 1.350 . S
C1152 C1151 1.434 . S
C1153 C1154 1.369 . S
C1153 C1155 1.419 . S
C1153 H1157 0.930 . S
C1154 C1153 1.369 . S
C1154 C1163 1.429 . S
C1155 C1153 1.419 . S
C1155 C1156 1.363 . S
C1155 H1158 0.929 . S
C1156 C1155 1.363 . S
C1156 C1162 1.428 . S
H1157 C1153 0.930 . S
H1158 C1155 0.929 . S
S1159 N1160 1.613 . S
S1159 N1161 1.610 . S
N1160 S1159 1.613 . S
N1160 C1163 1.350 . S
N1161 S1159 1.610 . S
N1161 C1162 1.351 . S
C1162 C1156 1.428 . S
C1162 N1161 1.351 . S
C1162 C1163 1.434 . S
C1163 C1154 1.429 . S
C1163 N1160 1.350 . S
C1163 C1162 1.434 . S
C1164 C1165 1.369 1_556 S
C1164 C1166 1.419 . S
C1164 H1168 0.930 . S
C1165 C1164 1.369 1_554 S
C1165 C1174 1.429 . S
C1166 C1164 1.419 . S
C1166 C1167 1.363 . S
C1166 H1169 0.929 . S
C1167 C1166 1.363 . S
C1167 C1173 1.428 1_556 S
H1168 C1164 0.930 . S
H1169 C1166 0.929 . S
S1170 N1171 1.613 . S
S1170 N1172 1.610 . S
N1171 S1170 1.613 . S
N1171 C1174 1.350 . S
N1172 S1170 1.610 . S
N1172 C1173 1.351 . S
C1173 C1167 1.428 1_554 S
C1173 N1172 1.351 . S
C1173 C1174 1.434 . S
C1174 C1165 1.429 . S
C1174 N1171 1.350 . S
C1174 C1173 1.434 . S
C1175 C1176 1.369 . S
C1175 C1177 1.419 . S
C1175 H1179 0.930 . S
C1176 C1175 1.369 . S
C1176 C1185 1.429 . S
C1177 C1175 1.419 . S
C1177 C1178 1.363 . S
C1177 H1180 0.929 . S
C1178 C1177 1.363 . S
C1178 C1184 1.428 . S
H1179 C1175 0.930 . S
H1180 C1177 0.929 . S
S1181 N1182 1.613 . S
S1181 N1183 1.610 . S
N1182 S1181 1.613 . S
N1182 C1185 1.350 . S
N1183 S1181 1.610 . S
N1183 C1184 1.351 . S
C1184 C1178 1.428 . S
C1184 N1183 1.351 . S
C1184 C1185 1.434 . S
C1185 C1176 1.429 . S
C1185 N1182 1.350 . S
C1185 C1184 1.434 . S
C1186 C1187 1.369 1_556 S
C1186 C1188 1.419 . S
C1186 H1190 0.930 . S
C1187 C1186 1.369 1_554 S
C1187 C1196 1.429 . S
C1188 C1186 1.419 . S
C1188 C1189 1.363 . S
C1188 H1191 0.929 . S
C1189 C1188 1.363 . S
C1189 C1195 1.428 1_556 S
H1190 C1186 0.930 . S
H1191 C1188 0.929 . S
S1192 N1193 1.613 . S
S1192 N1194 1.610 . S
N1193 S1192 1.613 . S
N1193 C1196 1.350 . S
N1194 S1192 1.610 . S
N1194 C1195 1.351 . S
C1195 C1189 1.428 1_554 S
C1195 N1194 1.351 . S
C1195 C1196 1.434 . S
C1196 C1187 1.429 . S
C1196 N1193 1.350 . S
C1196 C1195 1.434 . S
C1197 C1198 1.369 . S
C1197 C1199 1.419 . S
C1197 H1201 0.930 . S
C1198 C1197 1.369 . S
C1198 C1207 1.429 . S
C1199 C1197 1.419 . S
C1199 C1200 1.363 . S
C1199 H1202 0.929 . S
C1200 C1199 1.363 . S
C1200 C1206 1.428 . S
H1201 C1197 0.930 . S
H1202 C1199 0.929 . S
S1203 N1204 1.613 . S
S1203 N1205 1.610 . S
N1204 S1203 1.613 . S
N1204 C1207 1.350 . S
N1205 S1203 1.610 . S
N1205 C1206 1.351 . S
C1206 C1200 1.428 . S
C1206 N1205 1.351 . S
C1206 C1207 1.434 . S
C1207 C1198 1.429 . S
C1207 N1204 1.350 . S
C1207 C1206 1.434 . S
C1208 C1209 1.369 1_554 S
C1208 C1210 1.419 . S
C1208 H1212 0.930 . S
C1209 C1208 1.369 1_556 S
C1209 C1218 1.429 . S
C1210 C1208 1.419 . S
C1210 C1211 1.363 . S
C1210 H1213 0.929 . S
C1211 C1210 1.363 . S
C1211 C1217 1.428 1_554 S
H1212 C1208 0.930 . S
H1213 C1210 0.929 . S
S1214 N1215 1.613 . S
S1214 N1216 1.610 . S
N1215 S1214 1.613 . S
N1215 C1218 1.350 . S
N1216 S1214 1.610 . S
N1216 C1217 1.351 . S
C1217 C1211 1.428 1_556 S
C1217 N1216 1.351 . S
C1217 C1218 1.434 . S
C1218 C1209 1.429 . S
C1218 N1215 1.350 . S
C1218 C1217 1.434 . S
C1219 C1220 1.369 . S
C1219 C1221 1.419 . S
C1219 H1223 0.930 . S
C1220 C1219 1.369 . S
C1220 C1229 1.429 . S
C1221 C1219 1.419 . S
C1221 C1222 1.363 . S
C1221 H1224 0.929 . S
C1222 C1221 1.363 . S
C1222 C1228 1.428 . S
H1223 C1219 0.930 . S
H1224 C1221 0.929 . S
S1225 N1226 1.613 . S
S1225 N1227 1.610 . S
N1226 S1225 1.613 . S
N1226 C1229 1.350 . S
N1227 S1225 1.610 . S
N1227 C1228 1.351 . S
C1228 C1222 1.428 . S
C1228 N1227 1.351 . S
C1228 C1229 1.434 . S
C1229 C1220 1.429 . S
C1229 N1226 1.350 . S
C1229 C1228 1.434 . S
C1230 C1231 1.369 1_556 S
C1230 C1232 1.419 . S
C1230 H1234 0.930 . S
C1231 C1230 1.369 1_554 S
C1231 C1240 1.429 . S
C1232 C1230 1.419 . S
C1232 C1233 1.363 . S
C1232 H1235 0.929 . S
C1233 C1232 1.363 . S
C1233 C1239 1.428 1_556 S
H1234 C1230 0.930 . S
H1235 C1232 0.929 . S
S1236 N1237 1.613 . S
S1236 N1238 1.610 . S
N1237 S1236 1.613 . S
N1237 C1240 1.350 . S
N1238 S1236 1.610 . S
N1238 C1239 1.351 . S
C1239 C1233 1.428 1_554 S
C1239 N1238 1.351 . S
C1239 C1240 1.434 . S
C1240 C1231 1.429 . S
C1240 N1237 1.350 . S
C1240 C1239 1.434 . S
C1241 C1242 1.369 . S
C1241 C1243 1.419 . S
C1241 H1245 0.930 . S
C1242 C1241 1.369 . S
C1242 C1251 1.429 . S
C1243 C1241 1.419 . S
C1243 C1244 1.363 . S
C1243 H1246 0.929 . S
C1244 C1243 1.363 . S
C1244 C1250 1.428 . S
H1245 C1241 0.930 . S
H1246 C1243 0.929 . S
S1247 N1248 1.613 . S
S1247 N1249 1.610 . S
N1248 S1247 1.613 . S
N1248 C1251 1.350 . S
N1249 S1247 1.610 . S
N1249 C1250 1.351 . S
C1250 C1244 1.428 . S
C1250 N1249 1.351 . S
C1250 C1251 1.434 . S
C1251 C1242 1.429 . S
C1251 N1248 1.350 . S
C1251 C1250 1.434 . S
C1252 C1253 1.369 1_554 S
C1252 C1254 1.419 1_545 S
C1252 H1256 0.930 . S
C1253 C1252 1.369 1_556 S
C1253 C1262 1.429 . S
C1254 C1252 1.419 1_565 S
C1254 C1255 1.363 . S
C1254 H1257 0.929 . S
C1255 C1254 1.363 . S
C1255 C1261 1.428 1_554 S
H1256 C1252 0.930 . S
H1257 C1254 0.929 . S
S1258 N1259 1.613 1_565 S
S1258 N1260 1.610 . S
N1259 S1258 1.613 1_545 S
N1259 C1262 1.350 . S
N1260 S1258 1.610 . S
N1260 C1261 1.351 . S
C1261 C1255 1.428 1_556 S
C1261 N1260 1.351 . S
C1261 C1262 1.434 1_565 S
C1262 C1253 1.429 . S
C1262 N1259 1.350 . S
C1262 C1261 1.434 1_545 S
C1263 C1264 1.369 . S
C1263 C1265 1.419 1_565 S
C1263 H1267 0.930 . S
C1264 C1263 1.369 . S
C1264 C1273 1.429 . S
C1265 C1263 1.419 1_545 S
C1265 C1266 1.363 . S
C1265 H1268 0.929 . S
C1266 C1265 1.363 . S
C1266 C1272 1.428 . S
H1267 C1263 0.930 . S
H1268 C1265 0.929 . S
S1269 N1270 1.613 . S
S1269 N1271 1.610 1_565 S
N1270 S1269 1.613 . S
N1270 C1273 1.350 . S
N1271 S1269 1.610 1_545 S
N1271 C1272 1.351 . S
C1272 C1266 1.428 . S
C1272 N1271 1.351 . S
C1272 C1273 1.434 1_545 S
C1273 C1264 1.429 . S
C1273 N1270 1.350 . S
C1273 C1272 1.434 1_565 S
C1274 C1275 1.369 . S
C1274 C1276 1.419 1_565 S
C1274 H1278 0.930 . S
C1275 C1274 1.369 . S
C1275 C1284 1.429 1_554 S
C1276 C1274 1.419 1_545 S
C1276 C1277 1.363 1_554 S
C1276 H1279 0.929 . S
C1277 C1276 1.363 1_556 S
C1277 C1283 1.428 . S
H1278 C1274 0.930 . S
H1279 C1276 0.929 . S
S1280 N1281 1.613 . S
S1280 N1282 1.610 1_565 S
N1281 S1280 1.613 . S
N1281 C1284 1.350 . S
N1282 S1280 1.610 1_545 S
N1282 C1283 1.351 . S
C1283 C1277 1.428 . S
C1283 N1282 1.351 . S
C1283 C1284 1.434 1_545 S
C1284 C1275 1.429 1_556 S
C1284 N1281 1.350 . S
C1284 C1283 1.434 1_565 S
C1285 C1286 1.369 . S
C1285 C1287 1.419 1_545 S
C1285 H1289 0.930 . S
C1286 C1285 1.369 . S
C1286 C1295 1.429 . S
C1287 C1285 1.419 1_565 S
C1287 C1288 1.363 . S
C1287 H1290 0.929 . S
C1288 C1287 1.363 . S
C1288 C1294 1.428 . S
H1289 C1285 0.930 . S
H1290 C1287 0.929 . S
S1291 N1292 1.613 . S
S1291 N1293 1.610 1_545 S
N1292 S1291 1.613 . S
N1292 C1295 1.350 . S
N1293 S1291 1.610 1_565 S
N1293 C1294 1.351 . S
C1294 C1288 1.428 . S
C1294 N1293 1.351 . S
C1294 C1295 1.434 1_565 S
C1295 C1286 1.429 . S
C1295 N1292 1.350 . S
C1295 C1294 1.434 1_545 S
C945 C52 1.530 . S
C947 C406 1.539 . S
C956 C111 1.529 . S
C958 C465 1.540 . S
C967 C288 1.540 . S
C969 C170 1.529 . S
C978 C347 1.539 . S
C980 C229 1.530 . S
C989 C878 1.536 . S
C991 C524 1.533 . S
C1000 C937 1.537 . S
C1002 C583 1.532 . S
C1011 C642 1.529 . S
C1013 C760 1.539 . S
C1022 C701 1.529 . S
C1024 C819 1.539 . S
C1033 C33 1.595 . S
C1035 C298 1.582 . S
C1044 C92 1.593 . S
C1046 C239 1.578 . S
C1055 C151 1.592 . S
C1057 C416 1.577 . S
C1066 C357 1.580 . S
C1068 C210 1.593 . S
C1077 C770 1.581 . S
C1079 C505 1.593 . S
C1088 C711 1.578 . S
C1090 C564 1.593 . S
C1099 C623 1.592 . S
C1101 C888 1.579 . S
C1110 C829 1.581 . S
C1112 C682 1.593 . S
C1121 C713 1.568 . S
C1123 C5 1.571 . S
C1132 C64 1.569 . S
C1134 C772 1.569 . S
C1143 C831 1.564 . S
C1145 C123 1.573 . S
C1154 C890 1.564 . S
C1156 C182 1.573 . S
C1165 C477 1.573 . S
C1167 C241 1.565 . S
C1176 C536 1.572 . S
C1178 C300 1.566 . S
C1187 C359 1.569 . S
C1189 C595 1.570 . S
C1198 C418 1.569 . S
C1200 C654 1.570 . S
C1209 C121 1.281 . S
C1211 C3 1.288 . S
C1220 C62 1.290 . S
C1222 C180 1.283 . S
C1231 C387 1.898 . S
C1233 C269 1.902 . S
C1242 C328 1.898 . S
C1244 C446 1.902 . S
C1253 C593 1.281 . S
C1255 C475 1.289 . S
C1264 C652 1.291 . S
C1266 C534 1.286 . S
C1275 C859 1.902 . S
C1277 C741 1.898 . S
C1286 C918 1.902 . S
C1288 C800 1.898 . S
