# Generated by pormake.
# Topology zfy, (5)-cn, num edge types: 1
# Building blocks:
#     Node 0, Type 0, BuildingBlock: XOMCOT_clean_sbu_1, # of connection points: 5
#     Node 1, Type 0, BuildingBlock: XOMCOT_clean_sbu_1, # of connection points: 5
#     Node 2, Type 0, BuildingBlock: XOMCOT_clean_sbu_1, # of connection points: 5
#     Node 3, Type 0, BuildingBlock: XOMCOT_clean_sbu_1, # of connection points: 5
#     Node 4, Type 0, BuildingBlock: XOMCOT_clean_sbu_1, # of connection points: 5
#     Node 5, Type 0, BuildingBlock: XOMCOT_clean_sbu_1, # of connection points: 5
#     Node 6, Type 0, BuildingBlock: XOMCOT_clean_sbu_1, # of connection points: 5
#     Node 7, Type 0, BuildingBlock: XOMCOT_clean_sbu_1, # of connection points: 5
#     Node 8, Type 0, BuildingBlock: XOMCOT_clean_sbu_1, # of connection points: 5
#     Node 9, Type 0, BuildingBlock: XOMCOT_clean_sbu_1, # of connection points: 5
#     Node 10, Type 0, BuildingBlock: XOMCOT_clean_sbu_1, # of connection points: 5
#     Node 11, Type 0, BuildingBlock: XOMCOT_clean_sbu_1, # of connection points: 5
#     Node 12, Type 0, BuildingBlock: XOMCOT_clean_sbu_1, # of connection points: 5
#     Node 13, Type 0, BuildingBlock: XOMCOT_clean_sbu_1, # of connection points: 5
#     Node 14, Type 0, BuildingBlock: XOMCOT_clean_sbu_1, # of connection points: 5
#     Node 15, Type 0, BuildingBlock: XOMCOT_clean_sbu_1, # of connection points: 5
#     Edge 16, Type (0, 0), BuildingBlock: OJICUG_clean_linker_0, # of connection points: 2
#     Edge 17, Type (0, 0), BuildingBlock: OJICUG_clean_linker_0, # of connection points: 2
#     Edge 18, Type (0, 0), BuildingBlock: OJICUG_clean_linker_0, # of connection points: 2
#     Edge 19, Type (0, 0), BuildingBlock: OJICUG_clean_linker_0, # of connection points: 2
#     Edge 20, Type (0, 0), BuildingBlock: OJICUG_clean_linker_0, # of connection points: 2
#     Edge 21, Type (0, 0), BuildingBlock: OJICUG_clean_linker_0, # of connection points: 2
#     Edge 22, Type (0, 0), BuildingBlock: OJICUG_clean_linker_0, # of connection points: 2
#     Edge 23, Type (0, 0), BuildingBlock: OJICUG_clean_linker_0, # of connection points: 2
#     Edge 24, Type (0, 0), BuildingBlock: OJICUG_clean_linker_0, # of connection points: 2
#     Edge 25, Type (0, 0), BuildingBlock: OJICUG_clean_linker_0, # of connection points: 2
#     Edge 26, Type (0, 0), BuildingBlock: OJICUG_clean_linker_0, # of connection points: 2
#     Edge 27, Type (0, 0), BuildingBlock: OJICUG_clean_linker_0, # of connection points: 2
#     Edge 28, Type (0, 0), BuildingBlock: OJICUG_clean_linker_0, # of connection points: 2
#     Edge 29, Type (0, 0), BuildingBlock: OJICUG_clean_linker_0, # of connection points: 2
#     Edge 30, Type (0, 0), BuildingBlock: OJICUG_clean_linker_0, # of connection points: 2
#     Edge 31, Type (0, 0), BuildingBlock: OJICUG_clean_linker_0, # of connection points: 2
#     Edge 32, Type (0, 0), BuildingBlock: OJICUG_clean_linker_0, # of connection points: 2
#     Edge 33, Type (0, 0), BuildingBlock: OJICUG_clean_linker_0, # of connection points: 2
#     Edge 34, Type (0, 0), BuildingBlock: OJICUG_clean_linker_0, # of connection points: 2
#     Edge 35, Type (0, 0), BuildingBlock: OJICUG_clean_linker_0, # of connection points: 2
#     Edge 36, Type (0, 0), BuildingBlock: OJICUG_clean_linker_0, # of connection points: 2
#     Edge 37, Type (0, 0), BuildingBlock: OJICUG_clean_linker_0, # of connection points: 2
#     Edge 38, Type (0, 0), BuildingBlock: OJICUG_clean_linker_0, # of connection points: 2
#     Edge 39, Type (0, 0), BuildingBlock: OJICUG_clean_linker_0, # of connection points: 2
#     Edge 40, Type (0, 0), BuildingBlock: OJICUG_clean_linker_0, # of connection points: 2
#     Edge 41, Type (0, 0), BuildingBlock: OJICUG_clean_linker_0, # of connection points: 2
#     Edge 42, Type (0, 0), BuildingBlock: OJICUG_clean_linker_0, # of connection points: 2
#     Edge 43, Type (0, 0), BuildingBlock: OJICUG_clean_linker_0, # of connection points: 2
#     Edge 44, Type (0, 0), BuildingBlock: OJICUG_clean_linker_0, # of connection points: 2
#     Edge 45, Type (0, 0), BuildingBlock: OJICUG_clean_linker_0, # of connection points: 2
#     Edge 46, Type (0, 0), BuildingBlock: OJICUG_clean_linker_0, # of connection points: 2
#     Edge 47, Type (0, 0), BuildingBlock: OJICUG_clean_linker_0, # of connection points: 2
#     Edge 48, Type (0, 0), BuildingBlock: OJICUG_clean_linker_0, # of connection points: 2
#     Edge 49, Type (0, 0), BuildingBlock: OJICUG_clean_linker_0, # of connection points: 2
#     Edge 50, Type (0, 0), BuildingBlock: OJICUG_clean_linker_0, # of connection points: 2
#     Edge 51, Type (0, 0), BuildingBlock: OJICUG_clean_linker_0, # of connection points: 2
#     Edge 52, Type (0, 0), BuildingBlock: OJICUG_clean_linker_0, # of connection points: 2
#     Edge 53, Type (0, 0), BuildingBlock: OJICUG_clean_linker_0, # of connection points: 2
#     Edge 54, Type (0, 0), BuildingBlock: OJICUG_clean_linker_0, # of connection points: 2
#     Edge 55, Type (0, 0), BuildingBlock: OJICUG_clean_linker_0, # of connection points: 2
# Relax obj value: 0.137
# Max RMSD: 0.190
# Mean RMSD: 0.190
data_MOF--net-zfy--node1-XOMCOT_clean_sbu_1--edge1-OJICUG_clean_linker_0
_symmetry_space_group_name_H-M    P1
_symmetry_Int_Tables_number       1
_symmetry_cell_setting            triclinic
loop_
_symmetry_equiv_pos_as_xyz
'x, y, z'
_cell_length_a     38.205973
_cell_length_b     38.052545
_cell_length_c     23.566932
_cell_angle_alpha  90.152682
_cell_angle_beta   90.107994
_cell_angle_gamma 89.828636
loop_
_atom_site_label
_atom_site_type_symbol
_atom_site_fract_x
_atom_site_fract_y
_atom_site_fract_z
_atom_type_partial_charge
C0 C 0.26841 0.27966 0.07699 0.0
C1 C 0.25733 0.28809 0.13096 0.0
N2 N 0.27618 0.26924 0.16869 0.0
N3 N 0.29418 0.25554 0.08005 0.0
C4 C 0.29844 0.24978 0.13648 0.0
H5 H 0.25824 0.29038 1.03781 0.0
Co6 Co 0.3165 0.23594 1.01617 0.0
C7 C 0.344 0.16779 0.05918 0.0
O8 O 0.33149 0.15212 1.01374 0.0
N9 N 0.33995 0.21689 0.95111 0.0
C10 C 0.35672 0.20203 0.86344 0.0
C11 C 0.33024 0.21627 0.89586 0.0
C12 C 0.37316 0.20415 0.95025 0.0
N13 N 0.38372 0.19415 0.89782 0.0
O14 O 0.3545 0.26888 1.02401 0.0
H15 H 0.30589 0.22605 0.87898 0.0
H16 H 0.38957 0.20255 0.9876 0.0
O17 O 0.34021 0.20104 0.06546 0.0
C18 C 0.34769 0.29324 0.98834 0.0
O19 O 0.31778 0.29175 0.96081 0.0
N20 N 0.27663 0.20721 1.00387 0.0
C21 C 0.21672 0.17074 0.9683 0.0
C22 C 0.23446 0.1613 1.01854 0.0
C23 C 0.26388 0.18049 1.03642 0.0
C24 C 0.25717 0.21929 0.9595 0.0
C25 C 0.22792 0.20103 0.93995 0.0
H26 H 0.2763 0.17367 0.07609 0.0
H27 H 0.26467 0.24331 0.93853 0.0
H28 H 0.31715 0.23126 0.15366 0.0
H29 H 0.23717 0.30705 0.14137 0.0
H30 H 0.3558 0.19721 0.81818 0.0
H31 H 0.22569 0.13937 0.04395 0.0
H32 H 0.2149 0.21026 0.90196 0.0
C33 C 0.51229 0.52023 0.32193 0.0
C34 C 0.5047 0.50867 0.37582 0.0
N35 N 0.52561 0.52558 0.41308 0.0
N36 N 0.5379 0.5444 0.32463 0.0
C37 C 0.54546 0.54718 0.38075 0.0
H38 H 0.49992 0.51155 0.28306 0.0
Co39 Co 0.55676 0.5667 0.26069 0.0
C40 C 0.62422 0.59639 0.30204 0.0
O41 O 0.63966 0.5855 0.25538 0.0
N42 N 0.57506 0.58992 0.19552 0.0
C43 C 0.5921 0.60528 0.10848 0.0
C44 C 0.57818 0.57879 0.1412 0.0
C45 C 0.58594 0.62377 0.19377 0.0
N46 N 0.5973 0.63353 0.14184 0.0
O47 O 0.52366 0.60472 0.26879 0.0
H48 H 0.57088 0.55319 0.12554 0.0
H49 H 0.58593 0.64096 0.23042 0.0
O50 O 0.5915 0.59079 0.30949 0.0
C51 C 0.49942 0.59812 0.23286 0.0
O52 O 0.5012 0.5684 0.20445 0.0
N53 N 0.58559 0.52686 0.24825 0.0
C54 C 0.62193 0.46822 0.20795 0.0
C55 C 0.63463 0.48734 0.25464 0.0
C56 C 0.61518 0.51585 0.27581 0.0
C57 C 0.57117 0.50606 0.20731 0.0
C58 C 0.589 0.47686 0.18605 0.0
H59 H 0.6244 0.52916 0.31339 0.0
H60 H 0.54608 0.51309 0.18928 0.0
H61 H 0.56546 0.56436 0.39759 0.0
H62 H 0.48485 0.48961 0.38658 0.0
H63 H 0.59899 0.60341 0.06405 0.0
H64 H 0.65944 0.48051 0.27408 0.0
H65 H 0.57793 0.46231 0.15079 0.0
C66 C 0.26815 0.77009 0.57312 0.0
C67 C 0.28003 0.76186 0.62659 0.0
N68 N 0.26266 0.78179 0.66475 0.0
N69 N 0.24336 0.79518 0.57694 0.0
C70 C 0.24043 0.80174 0.63333 0.0
H71 H 0.27687 0.75835 0.53375 0.0
Co72 Co 0.22017 0.81348 0.51347 0.0
C73 C 0.19216 0.88294 0.55021 0.0
O74 O 0.20184 0.89567 0.50087 0.0
N75 N 0.19604 0.83087 0.44843 0.0
C76 C 0.17894 0.84746 0.36191 0.0
C77 C 0.20627 0.83431 0.39382 0.0
C78 C 0.16195 0.84077 0.44771 0.0
N79 N 0.15112 0.85185 0.39613 0.0
O80 O 0.18187 0.7814 0.52526 0.0
H81 H 0.23182 0.82788 0.37743 0.0
H82 H 0.14548 0.8405 0.48501 0.0
O83 O 0.19788 0.85043 0.56145 0.0
C84 C 0.18701 0.75649 0.48971 0.0
O85 O 0.21588 0.75707 0.45947 0.0
N86 N 0.26006 0.84118 0.4977 0.0
C87 C 0.3187 0.8755 0.45474 0.0
C88 C 0.30039 0.88951 0.50119 0.0
C89 C 0.27184 0.87109 0.52368 0.0
C90 C 0.27995 0.82559 0.45673 0.0
C91 C 0.30915 0.84239 0.43418 0.0
H92 H 0.25916 0.88132 0.56108 0.0
H93 H 0.27218 0.80036 0.43973 0.0
H94 H 0.22252 0.82091 0.65097 0.0
H95 H 0.29951 0.74209 0.63644 0.0
H96 H 0.17994 0.85451 0.31748 0.0
H97 H 0.30789 0.91453 0.51948 0.0
H98 H 0.32304 0.83039 0.39905 0.0
C99 C 0.03056 0.51751 0.83072 0.0
C100 C 0.04162 0.52833 0.88356 0.0
N101 N 0.02268 0.51142 0.923 0.0
N102 N 1.00377 0.49467 0.83584 0.0
C103 C 1.00071 0.49051 0.89295 0.0
H104 H 0.04233 0.52508 0.79093 0.0
Co105 Co 0.98255 0.47076 0.77292 0.0
C106 C 0.92651 0.45932 0.85897 0.0
O107 O 0.92468 0.49347 0.86705 0.0
N108 N 0.96336 0.44641 0.71064 0.0
C109 C 0.94956 0.43063 0.62238 0.0
C110 C 0.96566 0.45578 0.65562 0.0
C111 C 0.94602 0.41547 0.70982 0.0
N112 N 0.9371 0.40532 0.65665 0.0
O113 O 1.01684 0.43368 0.78058 0.0
H114 H 0.97812 0.4795 0.64072 0.0
H115 H 0.94027 0.40042 0.74753 0.0
O116 O 0.94913 0.44675 0.82417 0.0
C117 C 0.04039 0.43973 0.7434 0.0
O118 O 0.03801 0.46897 0.71404 0.0
N119 N 0.95075 0.50873 0.75858 0.0
C120 C 0.9102 0.56173 0.70729 0.0
C121 C 0.89539 0.52923 0.72175 0.0
C122 C 0.91611 0.50303 0.74672 0.0
C123 C 0.96522 0.54052 0.7457 0.0
C124 C 0.94537 0.56747 0.72118 0.0
H125 H 0.90475 0.47738 0.75306 0.0
H126 H 0.99292 0.54448 0.74966 0.0
H127 H 0.98353 0.47179 0.91264 0.0
H128 H 0.06286 0.54635 0.89211 0.0
H129 H 0.94646 0.43142 0.57674 0.0
H130 H 0.86839 0.52344 0.71138 0.0
H131 H 0.9583 0.59161 0.70912 0.0
C132 C 0.7674 0.76353 0.99935 0.0
C133 C 0.77864 0.75408 0.94602 0.0
N134 N 0.76001 0.77231 0.90728 0.0
N135 N 0.74181 0.78776 0.99491 0.0
C136 C 0.73779 0.79261 0.93826 0.0
H137 H 0.77725 0.7533 0.03908 0.0
Co138 Co 0.7188 0.80669 0.05831 0.0
C139 C 0.68867 0.87506 1.02107 0.0
O140 O 0.69864 0.8884 0.07 0.0
N141 N 0.69495 0.82457 0.12352 0.0
C142 C 0.67931 0.84254 0.2101 0.0
C143 C 0.70605 0.82879 0.17763 0.0
C144 C 0.66085 0.83447 0.12525 0.0
N145 N 0.65093 0.84651 0.17684 0.0
O146 O 0.68069 0.7741 0.04777 0.0
H147 H 0.73189 0.82267 0.19322 0.0
H148 H 0.64379 0.83383 0.08855 0.0
O149 O 0.69565 0.8428 1.00955 0.0
C150 C 0.68594 0.74968 0.08397 0.0
O151 O 0.71493 0.75063 0.11407 0.0
N152 N 0.75853 0.83505 0.07315 0.0
C153 C 0.8164 0.87063 0.11709 0.0
C154 C 0.7974 0.88462 0.07132 0.0
C155 C 0.76925 0.86562 0.04832 0.0
C156 C 0.77912 0.8196 0.11335 0.0
C157 C 0.80797 0.83699 0.13629 0.0
H158 H 0.75592 0.87602 1.01164 0.0
H159 H 0.77201 0.7941 0.1298 0.0
H160 H 0.71854 0.81017 0.92005 0.0
H161 H 0.79932 0.73546 0.93674 0.0
H162 H 0.68115 0.85047 0.25414 0.0
H163 H 0.80398 0.91011 0.05409 0.0
H164 H 0.82234 0.82502 0.17092 0.0
C165 C 0.53168 0.51754 0.7481 0.0
C166 C 0.54224 0.5278 0.69484 0.0
N167 N 0.52276 0.51065 0.65608 0.0
N168 N 0.50466 0.49485 0.74393 0.0
C169 C 0.50103 0.49015 0.68696 0.0
H170 H 0.54388 0.52544 0.78751 0.0
Co171 Co 0.48345 0.4718 0.80744 0.0
C172 C 0.42682 0.46056 0.72192 0.0
O173 O 0.42542 0.49466 0.71332 0.0
N174 N 0.46418 0.44823 0.87005 0.0
C175 C 0.4505 0.43294 0.95837 0.0
C176 C 0.4666 0.45789 0.92502 0.0
C177 C 0.44678 0.41733 0.87101 0.0
N178 N 0.43794 0.40748 0.9242 0.0
O179 O 0.51708 0.43419 0.79994 0.0
H180 H 0.47921 0.48162 0.93983 0.0
H181 H 0.44103 0.40205 0.83339 0.0
O182 O 0.44943 0.44796 0.75675 0.0
C183 C 0.54089 0.44027 0.83687 0.0
O184 O 0.539 0.46976 0.86589 0.0
N185 N 0.45236 0.51033 0.82147 0.0
C186 C 0.41192 0.56626 0.86463 0.0
C187 C 0.39682 0.53334 0.85326 0.0
C188 C 0.41752 0.50567 0.83261 0.0
C189 C 0.46743 0.54201 0.83329 0.0
C190 C 0.44773 0.57034 0.85372 0.0
H191 H 0.40575 0.48004 0.82788 0.0
H192 H 0.49528 0.54521 0.83031 0.0
H193 H 0.48356 0.47134 0.66792 0.0
H194 H 0.56344 0.54565 0.68555 0.0
H195 H 0.44753 0.43393 1.00401 0.0
H196 H 0.36955 0.5284 0.8627 0.0
H197 H 0.46079 0.59502 0.86219 0.0
C198 C 0.76672 0.27821 0.50229 0.0
C199 C 0.75617 0.28692 0.44819 0.0
N200 N 0.77509 0.26796 0.41067 0.0
N201 N 0.79224 0.2538 0.49953 0.0
C202 C 0.79681 0.24807 0.44313 0.0
H203 H 0.75631 0.28889 0.54136 0.0
Co204 Co 0.81431 0.23435 0.56367 0.0
C205 C 0.84307 0.1662 0.52186 0.0
O206 O 0.83216 0.15078 0.5684 0.0
N207 N 0.83736 0.2155 0.62894 0.0
C208 C 0.85267 0.19898 0.71644 0.0
C209 C 0.82646 0.21329 0.68338 0.0
C210 C 0.87086 0.20364 0.63093 0.0
N211 N 0.88055 0.1926 0.68318 0.0
O212 O 0.85254 0.26707 0.55613 0.0
H213 H 0.80125 0.22166 0.69896 0.0
H214 H 0.8879 0.20291 0.59432 0.0
O215 O 0.83789 0.19917 0.51468 0.0
C216 C 0.84605 0.2915 0.59201 0.0
O217 O 0.8162 0.29029 0.61957 0.0
N218 N 0.7743 0.20588 0.57585 0.0
C219 C 0.71609 0.16963 0.61645 0.0
C220 C 0.7348 0.15692 0.56942 0.0
C221 C 0.76308 0.17635 0.54811 0.0
C222 C 0.75386 0.22035 0.61716 0.0
C223 C 0.72488 0.20257 0.63855 0.0
H224 H 0.77609 0.1671 0.51034 0.0
H225 H 0.76097 0.24545 0.63534 0.0
H226 H 0.816 0.22997 0.42609 0.0
H227 H 0.73564 0.30542 0.43757 0.0
H228 H 0.8509 0.19277 0.76114 0.0
H229 H 0.72786 0.13212 0.54983 0.0
H230 H 0.71061 0.21368 0.67404 0.0
C231 C 1.01734 0.5222 0.25715 0.0
C232 C 1.00938 0.51025 0.20353 0.0
N233 N 0.0295 0.52742 0.16572 0.0
N234 N 0.04243 0.54685 0.25379 0.0
C235 C 0.04927 0.54962 0.19751 0.0
H236 H 1.00548 0.51355 0.29632 0.0
Co237 Co 0.06073 0.56986 0.31768 0.0
C238 C 0.12965 0.59772 0.28113 0.0
O239 O 0.14252 0.58766 0.33028 0.0
N240 N 0.07823 0.59387 0.38304 0.0
C241 C 0.09508 0.61069 0.4697 0.0
C242 C 0.08176 0.58346 0.43759 0.0
C243 C 0.08823 0.62801 0.38403 0.0
N244 N 0.09949 0.63866 0.4357 0.0
O245 O 0.02849 0.60836 0.30653 0.0
H246 H 0.07531 0.55783 0.45381 0.0
H247 H 0.08793 0.64464 0.34686 0.0
O248 O 0.09721 0.59235 0.26996 0.0
C249 C 1.00392 0.60298 0.3422 0.0
O250 O 1.00493 0.57388 0.3721 0.0
N251 N 0.0886 0.52972 0.33278 0.0
C252 C 0.12348 0.47059 0.37426 0.0
C253 C 0.13674 0.48903 0.32754 0.0
C254 C 0.11803 0.51782 0.30583 0.0
C255 C 0.07364 0.50968 0.37396 0.0
C256 C 0.09076 0.48025 0.39581 0.0
H257 H 0.12766 0.53059 0.2682 0.0
H258 H 0.04867 0.51745 0.39156 0.0
H259 H 0.06857 0.56731 0.1802 0.0
H260 H 0.98973 0.49081 0.19334 0.0
H261 H 0.10225 0.60949 0.51411 0.0
H262 H 0.16139 0.48143 0.30841 0.0
H263 H 0.07929 0.46624 0.43112 0.0
C264 C 0.76784 0.77261 0.57253 0.0
C265 C 0.75659 0.78212 0.62583 0.0
N266 N 0.7753 0.76402 0.66463 0.0
N267 N 0.79353 0.74847 0.57706 0.0
C268 C 0.79757 0.74374 0.63373 0.0
H269 H 0.75793 0.78271 0.53275 0.0
Co270 Co 0.81668 0.72936 0.51394 0.0
C271 C 0.84407 0.65996 0.55177 0.0
O272 O 0.83425 0.64703 0.50248 0.0
N273 N 0.84078 0.71122 0.44922 0.0
C274 C 0.85775 0.6946 0.36258 0.0
C275 C 0.83056 0.708 0.39447 0.0
C276 C 0.87476 0.70087 0.44862 0.0
N277 N 0.88551 0.68981 0.39692 0.0
O278 O 0.85512 0.76133 0.5254 0.0
H279 H 0.80515 0.7149 0.37791 0.0
H280 H 0.89125 0.70099 0.486 0.0
O281 O 0.83868 0.69262 0.5627 0.0
C282 C 0.8497 0.7859 0.48949 0.0
O283 O 0.82063 0.78501 0.45961 0.0
N284 N 0.77658 0.70179 0.49821 0.0
C285 C 0.71782 0.66757 0.45484 0.0
C286 C 0.7359 0.65377 0.5017 0.0
C287 C 0.76451 0.67217 0.52438 0.0
C288 C 0.75691 0.7172 0.45681 0.0
C289 C 0.72765 0.70045 0.43408 0.0
H290 H 0.77704 0.66213 0.56205 0.0
H291 H 0.76487 0.74225 0.43965 0.0
H292 H 0.81689 0.72625 0.652 0.0
H293 H 0.73585 0.80068 0.63506 0.0
H294 H 0.85672 0.68777 0.31799 0.0
H295 H 0.72819 0.62893 0.52012 0.0
H296 H 0.71394 0.71228 0.39863 0.0
C297 C 1.00639 0.02635 0.83027 0.0
C298 C 0.99539 1.01546 0.88291 0.0
N299 N 1.01485 0.03179 0.9226 0.0
N300 N 0.03361 0.04868 0.83575 0.0
C301 C 0.03705 0.05246 0.89289 0.0
H302 H 0.99437 1.01916 0.79035 0.0
Co303 Co 0.05469 0.07243 0.77316 0.0
C304 C 0.11137 0.08329 0.85887 0.0
O305 O 0.11291 0.0491 0.8664 0.0
N306 N 0.07367 0.09656 0.711 0.0
C307 C 0.08702 0.11206 0.62269 0.0
C308 C 0.07095 0.08711 0.65597 0.0
C309 C 0.09123 0.12734 0.71018 0.0
N310 N 0.09989 0.13731 0.65697 0.0
O311 O 0.02069 0.10978 0.78141 0.0
H312 H 0.05823 0.06345 0.6411 0.0
H313 H 0.09737 0.14238 0.7479 0.0
O314 O 0.08862 0.09618 0.82452 0.0
C315 C 0.99702 0.10411 0.74407 0.0
O316 O 0.99905 0.07499 0.7141 0.0
N317 N 0.08618 0.03427 0.7583 0.0
C318 C 0.12633 0.98122 0.70628 0.0
C319 C 0.14126 1.01372 0.72067 0.0
C320 C 0.12074 0.03994 0.74603 0.0
C321 C 0.07161 1.00245 0.7456 0.0
C322 C 0.09128 0.97547 0.72069 0.0
H323 H 0.13217 0.06559 0.75235 0.0
H324 H 0.04395 0.99846 0.7501 0.0
H325 H 0.05469 0.07074 0.91287 0.0
H326 H 0.97388 0.99777 0.89117 0.0
H327 H 0.08987 0.11118 0.57702 0.0
H328 H 0.16818 1.01949 0.70994 0.0
H329 H 0.0783 0.95127 0.70875 0.0
C330 C 0.77018 0.26138 0.07522 0.0
C331 C 0.7808 0.2524 0.12921 0.0
N332 N 0.76193 0.2712 0.16701 0.0
N333 N 0.74468 0.28579 0.0784 0.0
C334 C 0.74016 0.29122 0.13487 0.0
H335 H 0.78061 0.25102 1.03594 0.0
Co336 Co 0.72268 0.3061 1.01491 0.0
C337 C 0.69739 0.37478 0.0596 0.0
O338 O 0.71038 0.39048 1.01476 0.0
N339 N 0.69947 0.32591 0.9502 0.0
C340 C 0.68235 0.34021 0.86243 0.0
C341 C 0.70842 0.32501 0.89465 0.0
C342 C 0.66702 0.34053 0.94976 0.0
N343 N 0.65637 0.35023 0.8973 0.0
O344 O 0.68387 0.27425 1.02256 0.0
H345 H 0.73182 0.31331 0.87745 0.0
H346 H 0.65105 0.34351 0.98731 0.0
O347 O 0.70007 0.34137 0.06476 0.0
C348 C 0.68917 0.24998 0.98595 0.0
O349 O 0.71857 0.25059 0.9571 0.0
N350 N 0.76315 0.33393 1.00301 0.0
C351 C 0.82297 0.37037 0.96793 0.0
C352 C 0.80604 0.37903 1.01919 0.0
C353 C 0.77668 0.35981 1.0368 0.0
C354 C 0.78198 0.32235 0.95762 0.0
C355 C 0.81119 0.34065 0.9383 0.0
H356 H 0.76479 0.36606 0.07713 0.0
H357 H 0.77409 0.29869 0.93578 0.0
H358 H 0.72105 0.30928 0.15219 0.0
H359 H 0.80138 0.2339 0.13956 0.0
H360 H 0.68279 0.34405 0.81694 0.0
H361 H 0.81533 0.40043 0.04551 0.0
H362 H 0.82368 0.33195 0.89953 0.0
C363 C 0.52809 1.01814 0.3219 0.0
C364 C 0.53696 0.02929 0.37568 0.0
N365 N 0.51571 1.01347 0.41341 0.0
N366 N 0.50129 0.99536 0.32512 0.0
C367 C 0.49433 0.99295 0.38143 0.0
H368 H 0.5405 0.02602 0.28276 0.0
Co369 Co 0.48102 0.97354 0.26151 0.0
C370 C 0.41272 0.94658 0.30359 0.0
O371 O 0.39736 0.95783 0.25707 0.0
N372 N 0.46134 0.95074 0.19668 0.0
C373 C 0.44378 0.93534 0.10968 0.0
C374 C 0.45844 0.96163 0.14228 0.0
C375 C 0.44945 0.91722 0.19516 0.0
N376 N 0.43785 0.90746 0.14323 0.0
O377 O 0.51245 0.9341 0.26977 0.0
H378 H 0.46658 0.98686 0.12642 0.0
H379 H 0.44913 0.9002 0.23187 0.0
O380 O 0.44564 0.95114 0.31076 0.0
C381 C 0.53629 0.93806 0.23238 0.0
O382 O 0.53574 0.96681 0.2016 0.0
N383 N 0.45372 1.01453 0.24898 0.0
C384 C 0.41878 0.07376 0.20771 0.0
C385 C 0.40579 0.05547 0.25483 0.0
C386 C 0.42456 0.02665 0.27644 0.0
C387 C 0.46856 0.03454 0.20765 0.0
C388 C 0.45142 0.06402 0.18591 0.0
H389 H 0.41506 1.01391 0.31418 0.0
H390 H 0.49334 0.02656 0.18956 0.0
H391 H 0.47377 0.97673 0.39868 0.0
H392 H 0.55795 0.04724 0.38602 0.0
H393 H 0.43707 0.93704 0.06513 0.0
H394 H 0.38124 0.06314 0.27421 0.0
H395 H 0.46273 0.07789 0.15032 0.0
C396 C 0.27112 0.26297 0.50416 0.0
C397 C 0.28212 0.25441 0.45021 0.0
N398 N 0.26319 0.27311 0.41242 0.0
N399 N 0.2453 0.28704 0.50103 0.0
C400 C 0.24093 0.29262 0.44457 0.0
H401 H 0.2814 0.25241 0.54339 0.0
Co402 Co 0.22309 0.30692 0.56483 0.0
C403 C 0.1973 0.37549 0.52164 0.0
O404 O 0.21029 0.3909 0.56697 0.0
N405 N 0.19967 0.32628 0.62982 0.0
C406 C 0.18248 0.34032 0.7177 0.0
C407 C 0.20862 0.32532 0.68542 0.0
C408 C 0.16712 0.34066 0.63031 0.0
N409 N 0.15642 0.35024 0.68283 0.0
O410 O 0.18474 0.27462 0.55672 0.0
H411 H 0.23212 0.31377 0.7026 0.0
H412 H 0.15111 0.34361 0.59271 0.0
O413 O 0.20009 0.34213 0.51553 0.0
C414 C 0.19146 0.25011 0.59212 0.0
O415 O 0.22155 0.25115 0.61921 0.0
N416 N 0.26323 0.3351 0.57725 0.0
C417 C 0.323 0.37168 0.61259 0.0
C418 C 0.30597 0.38028 0.56138 0.0
C419 C 0.27663 0.36098 0.54362 0.0
C420 C 0.28216 0.32361 0.62261 0.0
C421 C 0.31135 0.34199 0.64206 0.0
H422 H 0.26466 0.36714 0.5033 0.0
H423 H 0.27443 0.29992 0.64422 0.0
H424 H 0.22217 0.31107 0.42735 0.0
H425 H 0.30232 0.23548 0.43986 0.0
H426 H 0.18292 0.34411 0.76323 0.0
H427 H 0.31518 0.40168 0.53521 0.0
H428 H 0.32394 0.33335 0.68078 0.0
C429 C 0.02211 1.01749 0.25614 0.0
C430 C 0.03047 0.02957 0.20288 0.0
N431 N 1.00923 1.01396 0.16467 0.0
N432 N 0.99566 0.99433 0.25204 0.0
C433 C 0.98838 0.99262 0.19576 0.0
H434 H 0.03458 0.02505 0.29553 0.0
Co435 Co 0.97599 0.9717 0.31477 0.0
C436 C 0.90843 0.94278 0.27174 0.0
O437 O 0.89281 0.95302 0.31863 0.0
N438 N 0.95697 0.94823 0.37898 0.0
C439 C 0.9397 0.93245 0.46564 0.0
C440 C 0.95325 0.95926 0.43323 0.0
C441 C 0.94663 0.91421 0.38034 0.0
N442 N 0.93528 0.90413 0.43212 0.0
O443 O 1.00839 0.9332 0.30578 0.0
H444 H 0.96005 0.98495 0.44909 0.0
H445 H 0.94724 0.89711 0.3436 0.0
O446 O 0.94115 0.94861 0.26476 0.0
C447 C 0.03227 0.93828 0.34291 0.0
O448 O 0.03068 0.96706 0.37376 0.0
N449 N 0.94787 1.01189 0.328 0.0
C450 C 0.91344 0.07132 0.36964 0.0
C451 C 0.89953 0.05237 0.32369 0.0
C452 C 0.918 0.0234 0.30182 0.0
C453 C 0.96332 0.03235 0.36842 0.0
C454 C 0.94648 0.06197 0.39025 0.0
H455 H 0.90786 1.01024 0.26477 0.0
H456 H 0.98842 0.02466 0.3857 0.0
H457 H 0.96795 0.97638 0.17789 0.0
H458 H 0.0511 0.04801 0.19315 0.0
H459 H 0.93264 0.93409 0.51003 0.0
H460 H 0.87454 0.05968 0.30536 0.0
H461 H 0.95839 0.07628 0.42505 0.0
C462 C 0.27159 0.78142 0.99953 0.0
C463 C 0.26096 0.79271 0.94681 0.0
N464 N 0.27774 0.77352 0.90725 0.0
N465 N 0.29413 0.7542 0.99419 0.0
C466 C 0.29838 0.75116 0.9371 0.0
H467 H 0.26424 0.79344 0.03938 0.0
Co468 Co 0.31793 0.73297 0.05692 0.0
C469 C 0.32796 0.6759 0.97124 0.0
O470 O 0.29397 0.67558 0.96242 0.0
N471 N 0.3422 0.71386 0.11911 0.0
C472 C 0.3582 0.69958 0.20696 0.0
C473 C 0.33275 0.71552 0.17418 0.0
C474 C 0.37347 0.69717 0.11946 0.0
N475 N 0.38375 0.68792 0.17232 0.0
O476 O 0.35522 0.76654 0.04802 0.0
H477 H 0.3088 0.72744 0.1894 0.0
H478 H 0.3887 0.69222 0.08165 0.0
O479 O 0.34106 0.69825 1.00614 0.0
C480 C 0.34978 0.79042 0.08525 0.0
O481 O 0.32102 0.78856 0.11562 0.0
N482 N 0.27986 0.70191 0.0722 0.0
C483 C 0.22703 0.66227 0.12434 0.0
C484 C 0.25911 0.64679 0.10932 0.0
C485 C 0.28524 0.66707 0.08388 0.0
C486 C 0.24847 0.71703 0.08567 0.0
C487 C 0.22158 0.69763 0.11062 0.0
H488 H 0.31064 0.65522 0.07724 0.0
H489 H 0.24482 0.7449 0.08186 0.0
H490 H 0.31702 0.73373 0.91731 0.0
H491 H 0.24326 0.81434 0.93841 0.0
H492 H 0.35747 0.69602 0.25249 0.0
H493 H 0.26465 0.61962 0.11967 0.0
H494 H 0.19775 0.71103 0.12316 0.0
C495 C 0.50701 0.02467 0.74819 0.0
C496 C 0.49805 1.01354 0.69444 0.0
N497 N 0.51914 0.02949 0.65661 0.0
N498 N 0.53371 0.04758 0.74487 0.0
C499 C 0.54049 0.05008 0.68851 0.0
H500 H 0.49472 1.01669 0.78737 0.0
Co501 Co 0.55416 0.0696 0.80826 0.0
C502 C 0.62308 0.09474 0.76486 0.0
O503 O 0.63856 0.08332 0.81114 0.0
N504 N 0.57405 0.0926 0.87276 0.0
C505 C 0.59042 0.1085 0.96013 0.0
C506 C 0.57531 0.08242 0.92769 0.0
C507 C 0.58739 0.12557 0.87373 0.0
N508 N 0.59828 0.13558 0.92595 0.0
O509 O 0.52308 0.10942 0.79945 0.0
H510 H 0.56556 0.05791 0.94409 0.0
H511 H 0.58904 0.1421 0.83656 0.0
O512 O 0.58997 0.09105 0.75861 0.0
C513 C 0.49909 0.10468 0.83644 0.0
O514 O 0.49961 0.0753 0.86559 0.0
N515 N 0.58064 0.02825 0.82224 0.0
C516 C 0.61309 0.96999 0.8717 0.0
C517 C 0.6274 0.98563 0.82298 0.0
C518 C 0.61013 1.01447 0.79779 0.0
C519 C 0.56411 1.00992 0.86379 0.0
C520 C 0.58003 0.98124 0.88977 0.0
H521 H 0.62113 0.02606 0.76012 0.0
H522 H 0.53906 1.01896 0.87931 0.0
H523 H 0.56091 0.06643 0.67114 0.0
H524 H 0.47713 0.9955 0.6842 0.0
H525 H 0.59599 0.10721 1.00513 0.0
H526 H 0.6523 0.97682 0.80623 0.0
H527 H 0.56721 0.96893 0.92552 0.0
C528 C 0.45765 0.15457 0.81205 0.0
C529 C 0.47255 0.13157 0.85189 0.0
H530 H 0.41733 0.19275 0.79548 0.0
C531 C 0.45964 0.13187 0.90776 0.0
H532 H 0.46703 0.15486 0.76871 0.0
C533 C 0.43161 0.1534 0.92313 0.0
C534 C 0.4153 0.17515 0.88294 0.0
H535 H 0.47074 0.11467 0.9397 0.0
H536 H 0.42172 0.15171 0.96604 0.0
C537 C 0.42905 0.17599 0.82735 0.0
C538 C 0.61632 0.67853 0.0717 0.0
C539 C 0.61623 0.66514 0.1275 0.0
H540 H 0.63793 0.71656 1.01385 0.0
C541 C 0.63704 0.68177 0.16866 0.0
H542 H 0.60037 0.66641 0.03913 0.0
C543 C 0.65849 0.7099 0.15413 0.0
C544 C 0.65956 0.72262 0.09819 0.0
H545 H 0.63802 0.67205 0.21176 0.0
H546 H 0.67493 0.7213 0.18683 0.0
C547 C 0.63757 0.70731 0.05727 0.0
C548 C 0.10237 0.89046 0.42493 0.0
C549 C 0.1189 0.87012 0.38301 0.0
H550 H 0.06218 0.92746 0.44481 0.0
C551 C 0.10474 0.87004 0.32767 0.0
H552 H 0.11267 0.89159 0.4677 0.0
C553 C 0.07527 0.89075 0.3144 0.0
C554 C 0.06002 0.9123 0.35607 0.0
H555 H 0.11679 0.85443 0.29454 0.0
H556 H 0.06544 0.89106 0.27127 0.0
C557 C 0.07351 0.91133 0.41158 0.0
C558 C 0.91978 0.35897 0.58713 0.0
C559 C 0.91602 0.37538 0.64057 0.0
H560 H 0.90108 0.31893 0.52971 0.0
C561 C 0.89035 0.36279 0.67773 0.0
H562 H 0.93954 0.36791 0.55771 0.0
C563 C 0.86841 0.33529 0.66162 0.0
C564 C 0.87162 0.31915 0.60805 0.0
H565 H 0.88644 0.37491 0.71884 0.0
H566 H 0.8486 0.32681 0.6914 0.0
C567 C 0.89797 0.33083 0.5712 0.0
C568 C 0.60616 0.867 0.24629 0.0
C569 C 0.6194 0.86585 0.19046 0.0
H570 H 0.5687 0.89027 0.30366 0.0
C571 C 0.60292 0.8863 0.14867 0.0
H572 H 0.61819 0.85137 0.27935 0.0
C573 C 0.57517 0.90855 0.16264 0.0
C574 C 0.5627 0.91075 0.21863 0.0
H575 H 0.61253 0.88647 0.1055 0.0
H576 H 0.56395 0.92477 0.12951 0.0
C577 C 0.57776 0.88903 0.26018 0.0
C578 C 0.39939 0.33296 1.00938 0.0
C579 C 0.37297 0.32112 0.97252 0.0
H580 H 0.44084 0.37025 1.02298 0.0
C581 C 0.36944 0.33725 0.91913 0.0
H582 H 0.40274 0.32105 0.05073 0.0
C583 C 0.39117 0.36486 0.90316 0.0
C584 C 0.41694 0.37757 0.94029 0.0
H585 H 0.34956 0.32867 0.88936 0.0
H586 H 0.38704 0.37696 0.86216 0.0
C587 C 0.42099 0.36121 0.9936 0.0
C588 C 0.95439 0.15293 0.76906 0.0
C589 C 0.96941 0.13002 0.72906 0.0
H590 H 0.91382 0.19091 0.7858 0.0
C591 C 0.95625 0.13004 0.67326 0.0
H592 H 0.96396 0.15344 0.81234 0.0
C593 C 0.92813 0.1515 0.65799 0.0
C594 C 0.91192 0.17334 0.69824 0.0
H595 H 0.9674 0.11291 0.6412 0.0
H596 H 0.91816 0.14982 0.61505 0.0
C597 C 0.92561 0.17416 0.75391 0.0
C598 C 0.11827 0.68481 0.50453 0.0
C599 C 0.11799 0.67074 0.44905 0.0
H600 H 0.13983 0.72378 0.56124 0.0
C601 C 0.13824 0.68718 0.40724 0.0
H602 H 0.10275 0.67285 0.5376 0.0
C603 C 0.15938 0.71578 0.42081 0.0
C604 C 0.1607 0.72914 0.47644 0.0
H605 H 0.1391 0.67695 0.36437 0.0
H606 H 0.17543 0.72699 0.38765 0.0
C607 C 0.13924 0.71405 0.51803 0.0
C608 C 0.93429 0.65101 0.42507 0.0
C609 C 0.91768 0.67149 0.38349 0.0
H610 H 0.97441 0.61379 0.44429 0.0
C611 C 0.93171 0.67166 0.32813 0.0
H612 H 0.92411 0.64983 0.46784 0.0
C613 C 0.96108 0.65088 0.31447 0.0
C614 C 0.97637 0.62915 0.35577 0.0
H615 H 0.91963 0.6874 0.29525 0.0
H616 H 0.97079 0.65063 0.27132 0.0
C617 C 0.96304 0.63005 0.41133 0.0
C618 C 0.1474 0.1791 0.67764 0.0
C619 C 0.12117 0.16697 0.64085 0.0
H620 H 0.18973 0.2145 0.69092 0.0
C621 C 0.11704 0.18352 0.58774 0.0
H622 H 0.15159 0.16681 0.71847 0.0
C623 C 0.13901 0.2114 0.57176 0.0
C624 C 0.16589 0.22263 0.60822 0.0
H625 H 0.09684 0.1749 0.55865 0.0
H626 H 0.13559 0.22347 0.53054 0.0
C627 C 0.1695 0.20634 0.66146 0.0
C628 C 0.58387 0.41653 0.90639 0.0
C629 C 0.56866 0.41457 0.85203 0.0
H630 H 0.62324 0.39774 0.96326 0.0
C631 C 0.58144 0.38944 0.81349 0.0
H632 H 0.57449 0.43537 0.93741 0.0
C633 C 0.60989 0.36776 0.82848 0.0
C634 C 0.62554 0.37041 0.88262 0.0
H635 H 0.57023 0.38731 0.77137 0.0
H636 H 0.61981 0.3491 0.79767 0.0
C637 C 0.61171 0.39467 0.92156 0.0
C638 C 0.39728 0.86 0.16964 0.0
C639 C 0.41861 0.876 0.12883 0.0
H640 H 0.35921 0.8207 0.18758 0.0
C641 C 0.41903 0.86196 0.07335 0.0
H642 H 0.39594 0.87025 0.21247 0.0
C643 C 0.39791 0.83301 0.05892 0.0
C644 C 0.37553 0.81817 0.09951 0.0
H645 H 0.43538 0.8736 0.04105 0.0
H646 H 0.39809 0.82315 1.01577 0.0
C647 C 0.37594 0.8317 0.15511 0.0
C648 C 0.11146 0.39443 0.65874 0.0
C649 C 0.1255 0.3703 0.69758 0.0
H650 H 0.07398 0.43487 0.64296 0.0
C651 C 0.10997 0.36769 0.75171 0.0
H652 H 0.12289 0.39749 0.61706 0.0
C653 C 0.08142 0.38924 0.76675 0.0
C654 C 0.0684 0.41422 0.72828 0.0
H655 H 0.12004 0.34915 0.78247 0.0
H656 H 0.07029 0.38711 0.80884 0.0
C657 C 0.08352 0.41615 0.67396 0.0
C658 C 0.8978 0.85421 0.40485 0.0
C659 C 0.91745 0.87188 0.44636 0.0
H660 H 0.86148 0.81327 0.38631 0.0
C661 C 0.91725 0.85881 0.50237 0.0
H662 H 0.89696 0.86359 0.36156 0.0
C663 C 0.89681 0.82943 0.5167 0.0
C664 C 0.87583 0.81316 0.4754 0.0
H665 H 0.93237 0.87168 0.53522 0.0
H666 H 0.89616 0.82054 0.56031 0.0
C667 C 0.87719 0.82544 0.41924 0.0
C668 C 0.45909 0.64924 0.25582 0.0
C669 C 0.47125 0.62341 0.21794 0.0
H670 H 0.42116 0.69011 0.27106 0.0
C671 C 0.45509 0.62037 0.16446 0.0
H672 H 0.47101 0.65218 0.29729 0.0
C673 C 0.42709 0.64199 0.14938 0.0
C674 C 0.41406 0.66715 0.18753 0.0
H675 H 0.46392 0.60094 0.13395 0.0
H676 H 0.41497 0.6382 0.10828 0.0
C677 C 0.43046 0.67073 0.24092 0.0
C678 C 0.64097 0.18135 0.90053 0.0
C679 C 0.61825 0.16654 0.94053 0.0
H680 H 0.6808 0.21907 0.88381 0.0
C681 C 0.61713 0.18119 0.99558 0.0
H682 H 0.64284 0.17061 0.85807 0.0
C683 C 0.63896 0.2095 1.01047 0.0
C684 C 0.66272 0.22307 0.97084 0.0
H685 H 0.59968 0.17049 1.02722 0.0
H686 H 0.63821 0.2198 0.05334 0.0
C687 C 0.663 0.20902 0.91557 0.0
C688 C 0.24189 0.28205 0.25632 0.0
C689 C 0.27288 0.26997 0.23018 0.0
H690 H 0.2143 0.29222 0.33376 0.0
C691 C 0.30058 0.25903 0.26545 0.0
H692 H 0.21968 0.29022 0.23101 0.0
C693 C 0.29744 0.26021 0.32478 0.0
C694 C 0.26646 0.2723 0.35093 0.0
H695 H 0.32503 0.25005 0.24734 0.0
H696 H 0.31965 0.25205 0.35008 0.0
C697 C 0.23875 0.28323 0.31566 0.0
C698 C 0.5122 0.48697 0.55895 0.0
C699 C 0.52462 0.51387 0.59473 0.0
H700 H 0.50341 0.46917 0.474 0.0
C701 C 0.53824 0.5444 0.56932 0.0
H702 H 0.50209 0.46281 0.57646 0.0
C703 C 0.53898 0.5481 0.51007 0.0
C704 C 0.52608 0.5214 0.47435 0.0
H705 H 0.54763 0.56593 0.59518 0.0
H706 H 0.54893 0.57231 0.49244 0.0
C707 C 0.51295 0.49067 0.49977 0.0
C708 C 0.23995 0.79257 0.76227 0.0
C709 C 0.26684 0.78097 0.72599 0.0
H710 H 0.22206 0.79886 0.84776 0.0
C711 C 0.29776 0.76767 0.75078 0.0
H712 H 0.21563 0.80259 0.74511 0.0
C713 C 0.30144 0.76545 0.80984 0.0
C714 C 0.27439 0.77659 0.84611 0.0
H715 H 0.3194 0.75911 0.72461 0.0
H716 H 0.32572 0.75528 0.82694 0.0
C717 C 0.24368 0.79041 0.82142 0.0
C718 C 0.03907 0.54585 1.00901 0.0
C719 C 0.02549 0.51498 0.98422 0.0
H720 H 0.05071 0.57423 0.08542 0.0
C721 C 1.01422 0.48801 1.02051 0.0
H722 H 0.04762 0.56742 0.98271 0.0
C723 C 1.01605 0.49194 0.07961 0.0
C724 C 0.02909 0.52301 0.10447 0.0
H725 H 1.00423 0.46362 1.00342 0.0
H726 H 1.00738 0.47035 0.10576 0.0
C727 C 0.04086 0.54979 0.06821 0.0
C728 C 0.75688 0.79612 0.75189 0.0
C729 C 0.77177 0.76618 0.7259 0.0
H730 H 0.74171 0.82173 0.8292 0.0
C731 C 0.7825 0.73829 0.76093 0.0
H732 H 0.74875 0.81843 0.72672 0.0
C733 C 0.77839 0.74022 0.82 0.0
C734 C 0.76351 0.77016 0.84601 0.0
H735 H 0.79356 0.71461 0.74271 0.0
H736 H 0.78651 0.7179 0.84515 0.0
C737 C 0.75277 0.79806 0.81098 0.0
C738 C 0.77976 0.24098 0.2563 0.0
C739 C 0.76507 0.27032 0.2285 0.0
H740 H 0.79417 0.21697 0.33519 0.0
C741 C 0.75401 0.29891 0.26203 0.0
H742 H 0.78817 0.2182 0.23236 0.0
C743 C 0.75752 0.29819 0.32132 0.0
C744 C 0.77215 0.26883 0.34915 0.0
H745 H 0.74312 0.32221 0.24251 0.0
H746 H 0.74912 0.32099 0.34523 0.0
C747 C 0.78327 0.24026 0.31563 0.0
C748 C 0.99652 0.99285 0.06677 0.0
C749 C 1.00946 1.01891 0.10363 0.0
H750 H 0.98854 0.97617 0.98094 0.0
C751 C 0.02341 0.0497 0.07964 0.0
H752 H 0.98598 0.96862 0.08338 0.0
C753 C 0.02488 0.05409 1.02066 0.0
C754 C 1.0124 0.02784 0.98372 0.0
H755 H 0.03304 0.0707 0.10641 0.0
H756 H 0.03557 0.07829 1.0042 0.0
C757 C 0.998 0.99724 1.00773 0.0
C758 C 0.50222 0.99168 0.51052 0.0
C759 C 0.51628 1.01759 0.47476 0.0
H760 H 0.49268 0.97465 0.59551 0.0
C761 C 0.5314 0.0475 0.50025 0.0
H762 H 0.49082 0.96805 0.4929 0.0
C763 C 0.53251 0.05133 0.55948 0.0
C764 C 0.51847 0.02542 0.59525 0.0
H765 H 0.54205 0.06835 0.47448 0.0
H766 H 0.5439 0.07496 0.57708 0.0
C767 C 0.50332 0.99551 0.56975 0.0
C768 C 0.16381 0.09098 0.92181 0.0
C769 C 0.13665 0.10617 0.88963 0.0
H770 H 0.21021 0.09902 0.97089 0.0
C771 C 0.13473 0.14298 0.88631 0.0
H772 H 0.16623 0.06271 0.92534 0.0
C773 C 0.15983 0.164 0.91352 0.0
C774 C 0.18773 0.14875 0.94427 0.0
H775 H 0.11403 0.15559 0.8623 0.0
H776 H 0.1574 0.19226 0.91004 0.0
C777 C 0.18901 0.11192 0.94853 0.0
C778 C 0.67548 0.45243 0.15333 0.0
C779 C 0.64385 0.44186 0.17805 0.0
H780 H 0.71689 0.43946 0.09572 0.0
C781 C 0.63134 0.40775 0.16726 0.0
H782 H 0.6854 0.47873 0.16038 0.0
C783 C 0.64976 0.38494 0.13111 0.0
C784 C 0.68031 0.39638 0.10383 0.0
H785 H 0.60682 0.39916 0.18551 0.0
H786 H 0.63917 0.35913 0.12216 0.0
C787 C 0.69328 0.43008 0.11602 0.0
C788 C 0.37906 0.88305 0.41421 0.0
C789 C 0.34516 0.89631 0.42371 0.0
H790 H 0.42772 0.88935 0.36956 0.0
C791 C 0.33493 0.92761 0.39701 0.0
H792 H 0.38736 0.85875 0.434 0.0
C793 C 0.35744 0.94436 0.35912 0.0
C794 C 0.39096 0.93067 0.34834 0.0
H795 H 0.30879 0.93808 0.40309 0.0
H796 H 0.34835 0.96771 0.3373 0.0
C797 C 0.40205 0.90047 0.37747 0.0
C798 C 0.8775 0.64788 0.64256 0.0
C799 C 0.85929 0.63563 0.59455 0.0
H800 H 0.9079 0.63415 0.71619 0.0
C801 C 0.85629 0.59912 0.58627 0.0
H802 H 0.88023 0.67581 0.65022 0.0
C803 C 0.87166 0.57544 0.62406 0.0
C804 C 0.8908 0.58747 0.67115 0.0
H805 H 0.8423 0.58864 0.55 0.0
H806 H 0.8696 0.54759 0.61507 0.0
C807 C 0.89337 0.62402 0.68024 0.0
C808 C 0.87663 0.87976 0.15796 0.0
C809 C 0.84224 0.89193 0.14908 0.0
H810 H 0.92519 0.8871 0.20289 0.0
C811 C 0.831 0.92241 0.17739 0.0
H812 H 0.88573 0.85609 0.13697 0.0
C813 C 0.85303 0.93935 0.21613 0.0
C814 C 0.88707 0.92673 0.22623 0.0
H815 H 0.80449 0.93202 0.17186 0.0
H816 H 0.84318 0.96201 0.23909 0.0
C817 C 0.89911 0.89741 0.19557 0.0
C818 C 0.35586 0.6009 0.87453 0.0
C819 C 0.39096 0.5955 0.89038 0.0
H820 H 0.30879 0.63044 0.887 0.0
C821 C 0.40559 0.61784 0.9319 0.0
H822 H 0.34379 0.58467 0.84219 0.0
C823 C 0.38555 0.64449 0.9573 0.0
C824 C 0.35029 0.64936 0.94211 0.0
H825 H 0.43236 0.61424 0.94596 0.0
H826 H 0.39752 0.66076 0.98967 0.0
C827 C 0.33582 0.62738 0.90008 0.0
C828 C 0.65569 0.16002 0.65585 0.0
C829 C 0.68996 0.14772 0.64639 0.0
H830 H 0.60702 0.15215 0.69979 0.0
C831 C 0.70081 0.11641 0.67245 0.0
H832 H 0.64688 0.18433 0.63663 0.0
C833 C 0.67853 0.09873 0.70969 0.0
C834 C 0.64462 0.11147 0.72046 0.0
H835 H 0.72722 0.10667 0.66646 0.0
H836 H 0.68811 0.07543 0.73107 0.0
C837 C 0.63296 0.14169 0.69189 0.0
C838 C 0.13132 0.41005 0.41514 0.0
C839 C 0.14469 0.44379 0.40434 0.0
H840 H 0.1382 0.36129 0.45989 0.0
C841 C 0.17675 0.45354 0.42872 0.0
H842 H 0.10646 0.4021 0.3971 0.0
C843 C 0.19422 0.43077 0.46566 0.0
C844 C 0.18045 0.39744 0.47778 0.0
H845 H 0.18736 0.47953 0.42161 0.0
H846 H 0.21823 0.43951 0.48571 0.0
C847 C 0.14939 0.38679 0.45092 0.0
C848 C 0.63464 0.64255 0.37642 0.0
C849 C 0.64584 0.61238 0.34714 0.0
H850 H 0.64916 0.68426 0.43355 0.0
C851 C 0.67933 0.59869 0.35825 0.0
H852 H 0.60898 0.65365 0.36827 0.0
C853 C 0.70172 0.61542 0.39663 0.0
C854 C 0.6914 0.6467 0.4235 0.0
H855 H 0.68849 0.57535 0.33634 0.0
H856 H 0.72785 0.60497 0.40294 0.0
C857 C 0.65752 0.65996 0.41366 0.0
C858 C 0.16402 0.96752 0.62223 0.0
C859 C 0.14547 0.9555 0.66973 0.0
H860 H 0.1929 0.95428 0.54776 0.0
C861 C 0.14332 0.91899 0.67898 0.0
H862 H 0.16573 0.99535 0.61313 0.0
C863 C 0.15912 0.89513 0.64116 0.0
C864 C 0.17683 0.90734 0.59285 0.0
H865 H 0.12921 0.90889 0.71524 0.0
H866 H 0.15679 0.8672 0.64903 0.0
C867 C 0.17932 0.94383 0.58429 0.0
C868 C 0.87911 0.37787 0.91198 0.0
C869 C 0.85162 0.39268 0.94412 0.0
H870 H 0.92417 0.38702 0.85979 0.0
C871 C 0.8503 0.42945 0.94993 0.0
H872 H 0.88152 0.34966 0.90725 0.0
C873 C 0.87505 0.45078 0.92329 0.0
C874 C 0.90178 0.43604 0.88971 0.0
H875 H 0.82937 0.442 0.97344 0.0
H876 H 0.87261 0.479 0.92801 0.0
C877 C 0.90378 0.39928 0.88491 0.0
C878 C 0.36531 0.09025 0.15309 0.0
C879 C 0.39732 0.10033 0.17734 0.0
H880 H 0.32368 0.10371 0.09598 0.0
C881 C 0.41043 0.13412 0.16601 0.0
H882 H 0.35489 0.06422 0.16053 0.0
C883 C 0.39212 0.1571 0.12998 0.0
C884 C 0.3611 0.14613 0.10331 0.0
H885 H 0.43524 0.14234 0.18386 0.0
H886 H 0.40312 0.18265 0.12068 0.0
C887 C 0.34763 0.11273 0.11588 0.0
C888 C 0.35025 0.43076 0.63114 0.0
C889 C 0.35168 0.394 0.6365 0.0
H890 H 0.37257 0.48031 0.65358 0.0
C891 C 0.37931 0.37917 0.66834 0.0
H892 H 0.32921 0.4433 0.60786 0.0
C893 C 0.40401 0.40058 0.69559 0.0
C894 C 0.40193 0.43733 0.69121 0.0
H895 H 0.38178 0.35096 0.67269 0.0
H896 H 0.42453 0.38832 0.72045 0.0
C897 C 0.37506 0.45209 0.65793 0.0
C898 C 0.88858 0.15534 0.44707 0.0
C899 C 0.85872 0.14432 0.47667 0.0
H900 H 0.92987 0.14036 0.38985 0.0
C901 C 0.84507 0.11072 0.46584 0.0
H902 H 0.89965 0.18107 0.45496 0.0
C903 C 0.86157 0.08803 0.42755 0.0
C904 C 0.8926 0.09813 0.40046 0.0
H905 H 0.82195 0.1017 0.48797 0.0
H906 H 0.85119 0.0618 0.42157 0.0
C907 C 0.90576 0.13216 0.40991 0.0
C908 C 0.14149 0.63068 0.19018 0.0
C909 C 0.15382 0.61277 0.23839 0.0
H910 H 0.15499 0.66043 0.11595 0.0
C911 C 0.19018 0.60969 0.2466 0.0
H912 H 0.11365 0.63344 0.18259 0.0
C913 C 0.21366 0.62462 0.2084 0.0
C914 C 0.20153 0.64339 0.16102 0.0
H915 H 0.20069 0.59592 0.28304 0.0
H916 H 0.24143 0.62249 0.21719 0.0
C917 C 0.16514 0.64612 0.15211 0.0
C918 C 0.63507 0.9514 0.96648 0.0
C919 C 0.6332 0.94496 0.90785 0.0
H920 H 0.65357 0.93456 0.04731 0.0
C921 C 0.64989 0.91484 0.88582 0.0
H922 H 0.62287 0.97453 0.98477 0.0
C923 C 0.66751 0.89136 0.92228 0.0
C924 C 0.66928 0.89813 0.98102 0.0
H925 H 0.64882 0.90922 0.84078 0.0
H926 H 0.6801 0.8683 0.90451 0.0
C927 C 0.65288 0.92847 1.00239 0.0
loop_
_geom_bond_atom_site_label_1
_geom_bond_atom_site_label_2
_geom_bond_distance
_geom_bond_site_symmetry_2
_ccdc_geom_bond_type
C0 C1 1.351 . S
C0 N3 1.368 . S
C0 H5 0.931 . S
C1 C0 1.351 . S
C1 N2 1.373 . S
C1 H29 0.930 . S
N2 C1 1.373 . S
N2 C4 1.340 . S
N3 C0 1.368 . S
N3 C4 1.321 . S
N3 Co6 2.135 . S
C4 N2 1.340 . S
C4 N3 1.321 . S
C4 H28 0.930 . S
H5 C0 0.931 . S
Co6 N3 2.135 . S
Co6 N9 2.121 1_554 S
Co6 O14 2.055 . S
Co6 O17 2.039 . S
Co6 N20 2.140 1_554 S
C7 O8 1.227 . S
C7 O17 1.265 . S
O8 C7 1.227 . S
N9 Co6 2.121 1_556 S
N9 C11 1.375 . S
N9 C12 1.313 . S
C10 C11 1.338 . S
C10 N13 1.377 . S
C10 H30 0.930 . S
C11 N9 1.375 . S
C11 C10 1.338 . S
C11 H15 0.931 . S
C12 N9 1.313 . S
C12 N13 1.344 . S
C12 H16 0.930 . S
N13 C10 1.377 . S
N13 C12 1.344 . S
O14 Co6 2.055 . S
O14 C18 1.253 1_554 S
H15 C11 0.931 . S
H16 C12 0.930 . S
O17 Co6 2.039 . S
O17 C7 1.265 . S
C18 O14 1.253 1_556 S
C18 O19 1.227 . S
O19 C18 1.227 . S
N20 Co6 2.140 1_556 S
N20 C23 1.346 1_556 S
N20 C24 1.345 . S
C21 C22 1.387 . S
C21 C25 1.391 . S
C22 C21 1.387 . S
C22 C23 1.369 1_556 S
C22 H31 0.929 1_556 S
C23 N20 1.346 1_554 S
C23 C22 1.369 1_554 S
C23 H26 0.928 . S
C24 N20 1.345 . S
C24 C25 1.371 . S
C24 H27 0.931 . S
C25 C21 1.391 . S
C25 C24 1.371 . S
C25 H32 0.930 . S
H26 C23 0.928 . S
H27 C24 0.931 . S
H28 C4 0.930 . S
H29 C1 0.930 . S
H30 C10 0.930 . S
H31 C22 0.929 1_554 S
H32 C25 0.930 . S
C33 C34 1.351 . S
C33 N36 1.368 . S
C33 H38 0.931 . S
C34 C33 1.351 . S
C34 N35 1.373 . S
C34 H62 0.930 . S
N35 C34 1.373 . S
N35 C37 1.340 . S
N36 C33 1.368 . S
N36 C37 1.321 . S
N36 Co39 2.135 . S
C37 N35 1.340 . S
C37 N36 1.321 . S
C37 H61 0.930 . S
H38 C33 0.931 . S
Co39 N36 2.135 . S
Co39 N42 2.121 . S
Co39 O47 2.055 . S
Co39 O50 2.039 . S
Co39 N53 2.140 . S
C40 O41 1.227 . S
C40 O50 1.265 . S
O41 C40 1.227 . S
N42 Co39 2.121 . S
N42 C44 1.375 . S
N42 C45 1.313 . S
C43 C44 1.338 . S
C43 N46 1.377 . S
C43 H63 0.930 . S
C44 N42 1.375 . S
C44 C43 1.338 . S
C44 H48 0.931 . S
C45 N42 1.313 . S
C45 N46 1.344 . S
C45 H49 0.930 . S
N46 C43 1.377 . S
N46 C45 1.344 . S
O47 Co39 2.055 . S
O47 C51 1.253 . S
H48 C44 0.931 . S
H49 C45 0.930 . S
O50 Co39 2.039 . S
O50 C40 1.265 . S
C51 O47 1.253 . S
C51 O52 1.227 . S
O52 C51 1.227 . S
N53 Co39 2.140 . S
N53 C56 1.346 . S
N53 C57 1.345 . S
C54 C55 1.387 . S
C54 C58 1.391 . S
C55 C54 1.387 . S
C55 C56 1.369 . S
C55 H64 0.929 . S
C56 N53 1.346 . S
C56 C55 1.369 . S
C56 H59 0.928 . S
C57 N53 1.345 . S
C57 C58 1.371 . S
C57 H60 0.931 . S
C58 C54 1.391 . S
C58 C57 1.371 . S
C58 H65 0.930 . S
H59 C56 0.928 . S
H60 C57 0.931 . S
H61 C37 0.930 . S
H62 C34 0.930 . S
H63 C43 0.930 . S
H64 C55 0.929 . S
H65 C58 0.930 . S
C66 C67 1.351 . S
C66 N69 1.368 . S
C66 H71 0.931 . S
C67 C66 1.351 . S
C67 N68 1.373 . S
C67 H95 0.930 . S
N68 C67 1.373 . S
N68 C70 1.340 . S
N69 C66 1.368 . S
N69 C70 1.321 . S
N69 Co72 2.135 . S
C70 N68 1.340 . S
C70 N69 1.321 . S
C70 H94 0.930 . S
H71 C66 0.931 . S
Co72 N69 2.135 . S
Co72 N75 2.121 . S
Co72 O80 2.055 . S
Co72 O83 2.039 . S
Co72 N86 2.140 . S
C73 O74 1.227 . S
C73 O83 1.265 . S
O74 C73 1.227 . S
N75 Co72 2.121 . S
N75 C77 1.375 . S
N75 C78 1.313 . S
C76 C77 1.338 . S
C76 N79 1.377 . S
C76 H96 0.930 . S
C77 N75 1.375 . S
C77 C76 1.338 . S
C77 H81 0.931 . S
C78 N75 1.313 . S
C78 N79 1.344 . S
C78 H82 0.930 . S
N79 C76 1.377 . S
N79 C78 1.344 . S
O80 Co72 2.055 . S
O80 C84 1.253 . S
H81 C77 0.931 . S
H82 C78 0.930 . S
O83 Co72 2.039 . S
O83 C73 1.265 . S
C84 O80 1.253 . S
C84 O85 1.227 . S
O85 C84 1.227 . S
N86 Co72 2.140 . S
N86 C89 1.346 . S
N86 C90 1.345 . S
C87 C88 1.387 . S
C87 C91 1.391 . S
C88 C87 1.387 . S
C88 C89 1.369 . S
C88 H97 0.929 . S
C89 N86 1.346 . S
C89 C88 1.369 . S
C89 H92 0.928 . S
C90 N86 1.345 . S
C90 C91 1.371 . S
C90 H93 0.931 . S
C91 C87 1.391 . S
C91 C90 1.371 . S
C91 H98 0.930 . S
H92 C89 0.928 . S
H93 C90 0.931 . S
H94 C70 0.930 . S
H95 C67 0.930 . S
H96 C76 0.930 . S
H97 C88 0.929 . S
H98 C91 0.930 . S
C99 C100 1.351 1_655 S
C99 N102 1.368 . S
C99 H104 0.931 1_655 S
C100 C99 1.351 1_455 S
C100 N101 1.373 1_455 S
C100 H128 0.930 . S
N101 C100 1.373 1_655 S
N101 C103 1.340 . S
N102 C99 1.368 . S
N102 C103 1.321 . S
N102 Co105 2.135 . S
C103 N101 1.340 . S
C103 N102 1.321 . S
C103 H127 0.930 . S
H104 C99 0.931 1_455 S
Co105 N102 2.135 . S
Co105 N108 2.121 . S
Co105 O113 2.055 . S
Co105 O116 2.039 . S
Co105 N119 2.140 . S
C106 O107 1.227 . S
C106 O116 1.265 . S
O107 C106 1.227 . S
N108 Co105 2.121 . S
N108 C110 1.375 . S
N108 C111 1.313 . S
C109 C110 1.338 . S
C109 N112 1.377 . S
C109 H129 0.930 . S
C110 N108 1.375 . S
C110 C109 1.338 . S
C110 H114 0.931 . S
C111 N108 1.313 . S
C111 N112 1.344 . S
C111 H115 0.930 . S
N112 C109 1.377 . S
N112 C111 1.344 . S
O113 Co105 2.055 . S
O113 C117 1.253 . S
H114 C110 0.931 . S
H115 C111 0.930 . S
O116 Co105 2.039 . S
O116 C106 1.265 . S
C117 O113 1.253 . S
C117 O118 1.227 . S
O118 C117 1.227 . S
N119 Co105 2.140 . S
N119 C122 1.346 . S
N119 C123 1.345 . S
C120 C121 1.387 . S
C120 C124 1.391 . S
C121 C120 1.387 . S
C121 C122 1.369 . S
C121 H130 0.929 . S
C122 N119 1.346 . S
C122 C121 1.369 . S
C122 H125 0.928 . S
C123 N119 1.345 . S
C123 C124 1.371 . S
C123 H126 0.931 . S
C124 C120 1.391 . S
C124 C123 1.371 . S
C124 H131 0.930 . S
H125 C122 0.928 . S
H126 C123 0.931 . S
H127 C103 0.930 . S
H128 C100 0.930 . S
H129 C109 0.930 . S
H130 C121 0.929 . S
H131 C124 0.930 . S
C132 C133 1.351 . S
C132 N135 1.368 . S
C132 H137 0.931 . S
C133 C132 1.351 . S
C133 N134 1.373 . S
C133 H161 0.930 . S
N134 C133 1.373 . S
N134 C136 1.340 . S
N135 C132 1.368 . S
N135 C136 1.321 . S
N135 Co138 2.135 . S
C136 N134 1.340 . S
C136 N135 1.321 . S
C136 H160 0.930 . S
H137 C132 0.931 . S
Co138 N135 2.135 . S
Co138 N141 2.121 1_556 S
Co138 O146 2.055 . S
Co138 O149 2.039 . S
Co138 N152 2.140 1_556 S
C139 O140 1.227 . S
C139 O149 1.265 . S
O140 C139 1.227 . S
N141 Co138 2.121 1_554 S
N141 C143 1.375 . S
N141 C144 1.313 . S
C142 C143 1.338 . S
C142 N145 1.377 . S
C142 H162 0.930 . S
C143 N141 1.375 . S
C143 C142 1.338 . S
C143 H147 0.931 . S
C144 N141 1.313 . S
C144 N145 1.344 . S
C144 H148 0.930 . S
N145 C142 1.377 . S
N145 C144 1.344 . S
O146 Co138 2.055 . S
O146 C150 1.253 1_556 S
H147 C143 0.931 . S
H148 C144 0.930 . S
O149 Co138 2.039 . S
O149 C139 1.265 . S
C150 O146 1.253 1_554 S
C150 O151 1.227 . S
O151 C150 1.227 . S
N152 Co138 2.140 1_554 S
N152 C155 1.346 1_554 S
N152 C156 1.345 . S
C153 C154 1.387 . S
C153 C157 1.391 . S
C154 C153 1.387 . S
C154 C155 1.369 1_554 S
C154 H163 0.929 1_554 S
C155 N152 1.346 1_556 S
C155 C154 1.369 1_556 S
C155 H158 0.928 . S
C156 N152 1.345 . S
C156 C157 1.371 . S
C156 H159 0.931 . S
C157 C153 1.391 . S
C157 C156 1.371 . S
C157 H164 0.930 . S
H158 C155 0.928 . S
H159 C156 0.931 . S
H160 C136 0.930 . S
H161 C133 0.930 . S
H162 C142 0.930 . S
H163 C154 0.929 1_556 S
H164 C157 0.930 . S
C165 C166 1.351 . S
C165 N168 1.368 . S
C165 H170 0.931 . S
C166 C165 1.351 . S
C166 N167 1.373 . S
C166 H194 0.930 . S
N167 C166 1.373 . S
N167 C169 1.340 . S
N168 C165 1.368 . S
N168 C169 1.321 . S
N168 Co171 2.135 . S
C169 N167 1.340 . S
C169 N168 1.321 . S
C169 H193 0.930 . S
H170 C165 0.931 . S
Co171 N168 2.135 . S
Co171 N174 2.121 . S
Co171 O179 2.055 . S
Co171 O182 2.039 . S
Co171 N185 2.140 . S
C172 O173 1.227 . S
C172 O182 1.265 . S
O173 C172 1.227 . S
N174 Co171 2.121 . S
N174 C176 1.375 . S
N174 C177 1.313 . S
C175 C176 1.338 . S
C175 N178 1.377 . S
C175 H195 0.930 . S
C176 N174 1.375 . S
C176 C175 1.338 . S
C176 H180 0.931 . S
C177 N174 1.313 . S
C177 N178 1.344 . S
C177 H181 0.930 . S
N178 C175 1.377 . S
N178 C177 1.344 . S
O179 Co171 2.055 . S
O179 C183 1.253 . S
H180 C176 0.931 . S
H181 C177 0.930 . S
O182 Co171 2.039 . S
O182 C172 1.265 . S
C183 O179 1.253 . S
C183 O184 1.227 . S
O184 C183 1.227 . S
N185 Co171 2.140 . S
N185 C188 1.346 . S
N185 C189 1.345 . S
C186 C187 1.387 . S
C186 C190 1.391 . S
C187 C186 1.387 . S
C187 C188 1.369 . S
C187 H196 0.929 . S
C188 N185 1.346 . S
C188 C187 1.369 . S
C188 H191 0.928 . S
C189 N185 1.345 . S
C189 C190 1.371 . S
C189 H192 0.931 . S
C190 C186 1.391 . S
C190 C189 1.371 . S
C190 H197 0.930 . S
H191 C188 0.928 . S
H192 C189 0.931 . S
H193 C169 0.930 . S
H194 C166 0.930 . S
H195 C175 0.930 . S
H196 C187 0.929 . S
H197 C190 0.930 . S
C198 C199 1.351 . S
C198 N201 1.368 . S
C198 H203 0.931 . S
C199 C198 1.351 . S
C199 N200 1.373 . S
C199 H227 0.930 . S
N200 C199 1.373 . S
N200 C202 1.340 . S
N201 C198 1.368 . S
N201 C202 1.321 . S
N201 Co204 2.135 . S
C202 N200 1.340 . S
C202 N201 1.321 . S
C202 H226 0.930 . S
H203 C198 0.931 . S
Co204 N201 2.135 . S
Co204 N207 2.121 . S
Co204 O212 2.055 . S
Co204 O215 2.039 . S
Co204 N218 2.140 . S
C205 O206 1.227 . S
C205 O215 1.265 . S
O206 C205 1.227 . S
N207 Co204 2.121 . S
N207 C209 1.375 . S
N207 C210 1.313 . S
C208 C209 1.338 . S
C208 N211 1.377 . S
C208 H228 0.930 . S
C209 N207 1.375 . S
C209 C208 1.338 . S
C209 H213 0.931 . S
C210 N207 1.313 . S
C210 N211 1.344 . S
C210 H214 0.930 . S
N211 C208 1.377 . S
N211 C210 1.344 . S
O212 Co204 2.055 . S
O212 C216 1.253 . S
H213 C209 0.931 . S
H214 C210 0.930 . S
O215 Co204 2.039 . S
O215 C205 1.265 . S
C216 O212 1.253 . S
C216 O217 1.227 . S
O217 C216 1.227 . S
N218 Co204 2.140 . S
N218 C221 1.346 . S
N218 C222 1.345 . S
C219 C220 1.387 . S
C219 C223 1.391 . S
C220 C219 1.387 . S
C220 C221 1.369 . S
C220 H229 0.929 . S
C221 N218 1.346 . S
C221 C220 1.369 . S
C221 H224 0.928 . S
C222 N218 1.345 . S
C222 C223 1.371 . S
C222 H225 0.931 . S
C223 C219 1.391 . S
C223 C222 1.371 . S
C223 H230 0.930 . S
H224 C221 0.928 . S
H225 C222 0.931 . S
H226 C202 0.930 . S
H227 C199 0.930 . S
H228 C208 0.930 . S
H229 C220 0.929 . S
H230 C223 0.930 . S
C231 C232 1.351 1_455 S
C231 N234 1.368 . S
C231 H236 0.931 1_455 S
C232 C231 1.351 1_655 S
C232 N233 1.373 1_655 S
C232 H260 0.930 . S
N233 C232 1.373 1_455 S
N233 C235 1.340 . S
N234 C231 1.368 . S
N234 C235 1.321 . S
N234 Co237 2.135 . S
C235 N233 1.340 . S
C235 N234 1.321 . S
C235 H259 0.930 . S
H236 C231 0.931 1_655 S
Co237 N234 2.135 . S
Co237 N240 2.121 . S
Co237 O245 2.055 . S
Co237 O248 2.039 . S
Co237 N251 2.140 . S
C238 O239 1.227 . S
C238 O248 1.265 . S
O239 C238 1.227 . S
N240 Co237 2.121 . S
N240 C242 1.375 . S
N240 C243 1.313 . S
C241 C242 1.338 . S
C241 N244 1.377 . S
C241 H261 0.930 . S
C242 N240 1.375 . S
C242 C241 1.338 . S
C242 H246 0.931 . S
C243 N240 1.313 . S
C243 N244 1.344 . S
C243 H247 0.930 . S
N244 C241 1.377 . S
N244 C243 1.344 . S
O245 Co237 2.055 . S
O245 C249 1.253 . S
H246 C242 0.931 . S
H247 C243 0.930 . S
O248 Co237 2.039 . S
O248 C238 1.265 . S
C249 O245 1.253 . S
C249 O250 1.227 . S
O250 C249 1.227 . S
N251 Co237 2.140 . S
N251 C254 1.346 . S
N251 C255 1.345 . S
C252 C253 1.387 . S
C252 C256 1.391 . S
C253 C252 1.387 . S
C253 C254 1.369 . S
C253 H262 0.929 . S
C254 N251 1.346 . S
C254 C253 1.369 . S
C254 H257 0.928 . S
C255 N251 1.345 . S
C255 C256 1.371 . S
C255 H258 0.931 . S
C256 C252 1.391 . S
C256 C255 1.371 . S
C256 H263 0.930 . S
H257 C254 0.928 . S
H258 C255 0.931 . S
H259 C235 0.930 . S
H260 C232 0.930 . S
H261 C241 0.930 . S
H262 C253 0.929 . S
H263 C256 0.930 . S
C264 C265 1.351 . S
C264 N267 1.368 . S
C264 H269 0.931 . S
C265 C264 1.351 . S
C265 N266 1.373 . S
C265 H293 0.930 . S
N266 C265 1.373 . S
N266 C268 1.340 . S
N267 C264 1.368 . S
N267 C268 1.321 . S
N267 Co270 2.135 . S
C268 N266 1.340 . S
C268 N267 1.321 . S
C268 H292 0.930 . S
H269 C264 0.931 . S
Co270 N267 2.135 . S
Co270 N273 2.121 . S
Co270 O278 2.055 . S
Co270 O281 2.039 . S
Co270 N284 2.140 . S
C271 O272 1.227 . S
C271 O281 1.265 . S
O272 C271 1.227 . S
N273 Co270 2.121 . S
N273 C275 1.375 . S
N273 C276 1.313 . S
C274 C275 1.338 . S
C274 N277 1.377 . S
C274 H294 0.930 . S
C275 N273 1.375 . S
C275 C274 1.338 . S
C275 H279 0.931 . S
C276 N273 1.313 . S
C276 N277 1.344 . S
C276 H280 0.930 . S
N277 C274 1.377 . S
N277 C276 1.344 . S
O278 Co270 2.055 . S
O278 C282 1.253 . S
H279 C275 0.931 . S
H280 C276 0.930 . S
O281 Co270 2.039 . S
O281 C271 1.265 . S
C282 O278 1.253 . S
C282 O283 1.227 . S
O283 C282 1.227 . S
N284 Co270 2.140 . S
N284 C287 1.346 . S
N284 C288 1.345 . S
C285 C286 1.387 . S
C285 C289 1.391 . S
C286 C285 1.387 . S
C286 C287 1.369 . S
C286 H295 0.929 . S
C287 N284 1.346 . S
C287 C286 1.369 . S
C287 H290 0.928 . S
C288 N284 1.345 . S
C288 C289 1.371 . S
C288 H291 0.931 . S
C289 C285 1.391 . S
C289 C288 1.371 . S
C289 H296 0.930 . S
H290 C287 0.928 . S
H291 C288 0.931 . S
H292 C268 0.930 . S
H293 C265 0.930 . S
H294 C274 0.930 . S
H295 C286 0.929 . S
H296 C289 0.930 . S
C297 C298 1.351 1_455 S
C297 N300 1.368 . S
C297 H302 0.931 1_455 S
C298 C297 1.351 1_655 S
C298 N299 1.373 1_655 S
C298 H326 0.930 . S
N299 C298 1.373 1_455 S
N299 C301 1.340 . S
N300 C297 1.368 . S
N300 C301 1.321 . S
N300 Co303 2.135 . S
C301 N299 1.340 . S
C301 N300 1.321 . S
C301 H325 0.930 . S
H302 C297 0.931 1_655 S
Co303 N300 2.135 . S
Co303 N306 2.121 . S
Co303 O311 2.055 . S
Co303 O314 2.039 . S
Co303 N317 2.140 . S
C304 O305 1.227 . S
C304 O314 1.265 . S
O305 C304 1.227 . S
N306 Co303 2.121 . S
N306 C308 1.375 . S
N306 C309 1.313 . S
C307 C308 1.338 . S
C307 N310 1.377 . S
C307 H327 0.930 . S
C308 N306 1.375 . S
C308 C307 1.338 . S
C308 H312 0.931 . S
C309 N306 1.313 . S
C309 N310 1.344 . S
C309 H313 0.930 . S
N310 C307 1.377 . S
N310 C309 1.344 . S
O311 Co303 2.055 . S
O311 C315 1.253 . S
H312 C308 0.931 . S
H313 C309 0.930 . S
O314 Co303 2.039 . S
O314 C304 1.265 . S
C315 O311 1.253 . S
C315 O316 1.227 . S
O316 C315 1.227 . S
N317 Co303 2.140 . S
N317 C320 1.346 . S
N317 C321 1.345 . S
C318 C319 1.387 . S
C318 C322 1.391 1_565 S
C319 C318 1.387 . S
C319 C320 1.369 1_565 S
C319 H328 0.929 . S
C320 N317 1.346 . S
C320 C319 1.369 1_545 S
C320 H323 0.928 . S
C321 N317 1.345 . S
C321 C322 1.371 . S
C321 H324 0.931 . S
C322 C318 1.391 1_545 S
C322 C321 1.371 . S
C322 H329 0.930 . S
H323 C320 0.928 . S
H324 C321 0.931 . S
H325 C301 0.930 . S
H326 C298 0.930 . S
H327 C307 0.930 . S
H328 C319 0.929 . S
H329 C322 0.930 . S
C330 C331 1.351 . S
C330 N333 1.368 . S
C330 H335 0.931 . S
C331 C330 1.351 . S
C331 N332 1.373 . S
C331 H359 0.930 . S
N332 C331 1.373 . S
N332 C334 1.340 . S
N333 C330 1.368 . S
N333 C334 1.321 . S
N333 Co336 2.135 . S
C334 N332 1.340 . S
C334 N333 1.321 . S
C334 H358 0.930 . S
H335 C330 0.931 . S
Co336 N333 2.135 . S
Co336 N339 2.121 1_554 S
Co336 O344 2.055 . S
Co336 O347 2.039 . S
Co336 N350 2.140 1_554 S
C337 O338 1.227 . S
C337 O347 1.265 . S
O338 C337 1.227 . S
N339 Co336 2.121 1_556 S
N339 C341 1.375 . S
N339 C342 1.313 . S
C340 C341 1.338 . S
C340 N343 1.377 . S
C340 H360 0.930 . S
C341 N339 1.375 . S
C341 C340 1.338 . S
C341 H345 0.931 . S
C342 N339 1.313 . S
C342 N343 1.344 . S
C342 H346 0.930 . S
N343 C340 1.377 . S
N343 C342 1.344 . S
O344 Co336 2.055 . S
O344 C348 1.253 1_554 S
H345 C341 0.931 . S
H346 C342 0.930 . S
O347 Co336 2.039 . S
O347 C337 1.265 . S
C348 O344 1.253 1_556 S
C348 O349 1.227 . S
O349 C348 1.227 . S
N350 Co336 2.140 1_556 S
N350 C353 1.346 1_556 S
N350 C354 1.345 . S
C351 C352 1.387 . S
C351 C355 1.391 . S
C352 C351 1.387 . S
C352 C353 1.369 1_556 S
C352 H361 0.929 1_556 S
C353 N350 1.346 1_554 S
C353 C352 1.369 1_554 S
C353 H356 0.928 . S
C354 N350 1.345 . S
C354 C355 1.371 . S
C354 H357 0.931 . S
C355 C351 1.391 . S
C355 C354 1.371 . S
C355 H362 0.930 . S
H356 C353 0.928 . S
H357 C354 0.931 . S
H358 C334 0.930 . S
H359 C331 0.930 . S
H360 C340 0.930 . S
H361 C352 0.929 1_554 S
H362 C355 0.930 . S
C363 C364 1.351 . S
C363 N366 1.368 . S
C363 H368 0.931 . S
C364 C363 1.351 . S
C364 N365 1.373 . S
C364 H392 0.930 . S
N365 C364 1.373 . S
N365 C367 1.340 . S
N366 C363 1.368 . S
N366 C367 1.321 . S
N366 Co369 2.135 . S
C367 N365 1.340 . S
C367 N366 1.321 . S
C367 H391 0.930 . S
H368 C363 0.931 . S
Co369 N366 2.135 . S
Co369 N372 2.121 . S
Co369 O377 2.055 . S
Co369 O380 2.039 . S
Co369 N383 2.140 . S
C370 O371 1.227 . S
C370 O380 1.265 . S
O371 C370 1.227 . S
N372 Co369 2.121 . S
N372 C374 1.375 . S
N372 C375 1.313 . S
C373 C374 1.338 . S
C373 N376 1.377 . S
C373 H393 0.930 . S
C374 N372 1.375 . S
C374 C373 1.338 . S
C374 H378 0.931 . S
C375 N372 1.313 . S
C375 N376 1.344 . S
C375 H379 0.930 . S
N376 C373 1.377 . S
N376 C375 1.344 . S
O377 Co369 2.055 . S
O377 C381 1.253 . S
H378 C374 0.931 . S
H379 C375 0.930 . S
O380 Co369 2.039 . S
O380 C370 1.265 . S
C381 O377 1.253 . S
C381 O382 1.227 . S
O382 C381 1.227 . S
N383 Co369 2.140 . S
N383 C386 1.346 . S
N383 C387 1.345 . S
C384 C385 1.387 . S
C384 C388 1.391 1_545 S
C385 C384 1.387 . S
C385 C386 1.369 1_545 S
C385 H394 0.929 . S
C386 N383 1.346 . S
C386 C385 1.369 1_565 S
C386 H389 0.928 . S
C387 N383 1.345 . S
C387 C388 1.371 . S
C387 H390 0.931 . S
C388 C384 1.391 1_565 S
C388 C387 1.371 . S
C388 H395 0.930 . S
H389 C386 0.928 . S
H390 C387 0.931 . S
H391 C367 0.930 . S
H392 C364 0.930 . S
H393 C373 0.930 . S
H394 C385 0.929 . S
H395 C388 0.930 . S
C396 C397 1.351 . S
C396 N399 1.368 . S
C396 H401 0.931 . S
C397 C396 1.351 . S
C397 N398 1.373 . S
C397 H425 0.930 . S
N398 C397 1.373 . S
N398 C400 1.340 . S
N399 C396 1.368 . S
N399 C400 1.321 . S
N399 Co402 2.135 . S
C400 N398 1.340 . S
C400 N399 1.321 . S
C400 H424 0.930 . S
H401 C396 0.931 . S
Co402 N399 2.135 . S
Co402 N405 2.121 . S
Co402 O410 2.055 . S
Co402 O413 2.039 . S
Co402 N416 2.140 . S
C403 O404 1.227 . S
C403 O413 1.265 . S
O404 C403 1.227 . S
N405 Co402 2.121 . S
N405 C407 1.375 . S
N405 C408 1.313 . S
C406 C407 1.338 . S
C406 N409 1.377 . S
C406 H426 0.930 . S
C407 N405 1.375 . S
C407 C406 1.338 . S
C407 H411 0.931 . S
C408 N405 1.313 . S
C408 N409 1.344 . S
C408 H412 0.930 . S
N409 C406 1.377 . S
N409 C408 1.344 . S
O410 Co402 2.055 . S
O410 C414 1.253 . S
H411 C407 0.931 . S
H412 C408 0.930 . S
O413 Co402 2.039 . S
O413 C403 1.265 . S
C414 O410 1.253 . S
C414 O415 1.227 . S
O415 C414 1.227 . S
N416 Co402 2.140 . S
N416 C419 1.346 . S
N416 C420 1.345 . S
C417 C418 1.387 . S
C417 C421 1.391 . S
C418 C417 1.387 . S
C418 C419 1.369 . S
C418 H427 0.929 . S
C419 N416 1.346 . S
C419 C418 1.369 . S
C419 H422 0.928 . S
C420 N416 1.345 . S
C420 C421 1.371 . S
C420 H423 0.931 . S
C421 C417 1.391 . S
C421 C420 1.371 . S
C421 H428 0.930 . S
H422 C419 0.928 . S
H423 C420 0.931 . S
H424 C400 0.930 . S
H425 C397 0.930 . S
H426 C406 0.930 . S
H427 C418 0.929 . S
H428 C421 0.930 . S
C429 C430 1.351 1_655 S
C429 N432 1.368 . S
C429 H434 0.931 1_655 S
C430 C429 1.351 1_455 S
C430 N431 1.373 1_455 S
C430 H458 0.930 . S
N431 C430 1.373 1_655 S
N431 C433 1.340 . S
N432 C429 1.368 . S
N432 C433 1.321 . S
N432 Co435 2.135 . S
C433 N431 1.340 . S
C433 N432 1.321 . S
C433 H457 0.930 . S
H434 C429 0.931 1_455 S
Co435 N432 2.135 . S
Co435 N438 2.121 . S
Co435 O443 2.055 . S
Co435 O446 2.039 . S
Co435 N449 2.140 . S
C436 O437 1.227 . S
C436 O446 1.265 . S
O437 C436 1.227 . S
N438 Co435 2.121 . S
N438 C440 1.375 . S
N438 C441 1.313 . S
C439 C440 1.338 . S
C439 N442 1.377 . S
C439 H459 0.930 . S
C440 N438 1.375 . S
C440 C439 1.338 . S
C440 H444 0.931 . S
C441 N438 1.313 . S
C441 N442 1.344 . S
C441 H445 0.930 . S
N442 C439 1.377 . S
N442 C441 1.344 . S
O443 Co435 2.055 . S
O443 C447 1.253 . S
H444 C440 0.931 . S
H445 C441 0.930 . S
O446 Co435 2.039 . S
O446 C436 1.265 . S
C447 O443 1.253 . S
C447 O448 1.227 . S
O448 C447 1.227 . S
N449 Co435 2.140 . S
N449 C452 1.346 . S
N449 C453 1.345 . S
C450 C451 1.387 . S
C450 C454 1.391 1_545 S
C451 C450 1.387 . S
C451 C452 1.369 1_545 S
C451 H460 0.929 . S
C452 N449 1.346 . S
C452 C451 1.369 1_565 S
C452 H455 0.928 . S
C453 N449 1.345 . S
C453 C454 1.371 . S
C453 H456 0.931 . S
C454 C450 1.391 1_565 S
C454 C453 1.371 . S
C454 H461 0.930 . S
H455 C452 0.928 . S
H456 C453 0.931 . S
H457 C433 0.930 . S
H458 C430 0.930 . S
H459 C439 0.930 . S
H460 C451 0.929 . S
H461 C454 0.930 . S
C462 C463 1.351 . S
C462 N465 1.368 . S
C462 H467 0.931 . S
C463 C462 1.351 . S
C463 N464 1.373 . S
C463 H491 0.930 . S
N464 C463 1.373 . S
N464 C466 1.340 . S
N465 C462 1.368 . S
N465 C466 1.321 . S
N465 Co468 2.135 . S
C466 N464 1.340 . S
C466 N465 1.321 . S
C466 H490 0.930 . S
H467 C462 0.931 . S
Co468 N465 2.135 . S
Co468 N471 2.121 1_556 S
Co468 O476 2.055 . S
Co468 O479 2.039 . S
Co468 N482 2.140 1_556 S
C469 O470 1.227 . S
C469 O479 1.265 . S
O470 C469 1.227 . S
N471 Co468 2.121 1_554 S
N471 C473 1.375 . S
N471 C474 1.313 . S
C472 C473 1.338 . S
C472 N475 1.377 . S
C472 H492 0.930 . S
C473 N471 1.375 . S
C473 C472 1.338 . S
C473 H477 0.931 . S
C474 N471 1.313 . S
C474 N475 1.344 . S
C474 H478 0.930 . S
N475 C472 1.377 . S
N475 C474 1.344 . S
O476 Co468 2.055 . S
O476 C480 1.253 1_556 S
H477 C473 0.931 . S
H478 C474 0.930 . S
O479 Co468 2.039 . S
O479 C469 1.265 . S
C480 O476 1.253 1_554 S
C480 O481 1.227 . S
O481 C480 1.227 . S
N482 Co468 2.140 1_554 S
N482 C485 1.346 1_554 S
N482 C486 1.345 . S
C483 C484 1.387 . S
C483 C487 1.391 . S
C484 C483 1.387 . S
C484 C485 1.369 1_554 S
C484 H493 0.929 1_554 S
C485 N482 1.346 1_556 S
C485 C484 1.369 1_556 S
C485 H488 0.928 . S
C486 N482 1.345 . S
C486 C487 1.371 . S
C486 H489 0.931 . S
C487 C483 1.391 . S
C487 C486 1.371 . S
C487 H494 0.930 . S
H488 C485 0.928 . S
H489 C486 0.931 . S
H490 C466 0.930 . S
H491 C463 0.930 . S
H492 C472 0.930 . S
H493 C484 0.929 1_556 S
H494 C487 0.930 . S
C495 C496 1.351 . S
C495 N498 1.368 . S
C495 H500 0.931 . S
C496 C495 1.351 . S
C496 N497 1.373 . S
C496 H524 0.930 . S
N497 C496 1.373 . S
N497 C499 1.340 . S
N498 C495 1.368 . S
N498 C499 1.321 . S
N498 Co501 2.135 . S
C499 N497 1.340 . S
C499 N498 1.321 . S
C499 H523 0.930 . S
H500 C495 0.931 . S
Co501 N498 2.135 . S
Co501 N504 2.121 . S
Co501 O509 2.055 . S
Co501 O512 2.039 . S
Co501 N515 2.140 . S
C502 O503 1.227 . S
C502 O512 1.265 . S
O503 C502 1.227 . S
N504 Co501 2.121 . S
N504 C506 1.375 . S
N504 C507 1.313 . S
C505 C506 1.338 . S
C505 N508 1.377 . S
C505 H525 0.930 . S
C506 N504 1.375 . S
C506 C505 1.338 . S
C506 H510 0.931 . S
C507 N504 1.313 . S
C507 N508 1.344 . S
C507 H511 0.930 . S
N508 C505 1.377 . S
N508 C507 1.344 . S
O509 Co501 2.055 . S
O509 C513 1.253 . S
H510 C506 0.931 . S
H511 C507 0.930 . S
O512 Co501 2.039 . S
O512 C502 1.265 . S
C513 O509 1.253 . S
C513 O514 1.227 . S
O514 C513 1.227 . S
N515 Co501 2.140 . S
N515 C518 1.346 . S
N515 C519 1.345 . S
C516 C517 1.387 . S
C516 C520 1.391 1_565 S
C517 C516 1.387 . S
C517 C518 1.369 1_565 S
C517 H526 0.929 . S
C518 N515 1.346 . S
C518 C517 1.369 1_545 S
C518 H521 0.928 . S
C519 N515 1.345 . S
C519 C520 1.371 . S
C519 H522 0.931 . S
C520 C516 1.391 1_545 S
C520 C519 1.371 . S
C520 H527 0.930 . S
H521 C518 0.928 . S
H522 C519 0.931 . S
H523 C499 0.930 . S
H524 C496 0.930 . S
H525 C505 0.930 . S
H526 C517 0.929 . S
H527 C520 0.930 . S
C528 C529 1.387 . S
C528 H532 0.950 . S
C528 C537 1.390 . S
C529 C528 1.387 . S
C529 C531 1.387 . S
H530 C537 0.950 . S
C531 C529 1.387 . S
C531 C533 1.390 . S
C531 H535 0.950 . S
H532 C528 0.950 . S
C533 C531 1.390 . S
C533 C534 1.387 . S
C533 H536 0.950 . S
C534 C533 1.387 . S
C534 C537 1.387 . S
H535 C531 0.950 . S
H536 C533 0.950 . S
C537 C528 1.390 . S
C537 H530 0.950 . S
C537 C534 1.387 . S
C538 C539 1.387 . S
C538 H542 0.950 . S
C538 C547 1.390 . S
C539 C538 1.387 . S
C539 C541 1.387 . S
H540 C547 0.950 1_556 S
C541 C539 1.387 . S
C541 C543 1.390 . S
C541 H545 0.950 . S
H542 C538 0.950 . S
C543 C541 1.390 . S
C543 C544 1.387 . S
C543 H546 0.950 . S
C544 C543 1.387 . S
C544 C547 1.387 . S
H545 C541 0.950 . S
H546 C543 0.950 . S
C547 C538 1.390 . S
C547 H540 0.950 1_554 S
C547 C544 1.387 . S
C548 C549 1.387 . S
C548 H552 0.950 . S
C548 C557 1.390 . S
C549 C548 1.387 . S
C549 C551 1.387 . S
H550 C557 0.950 . S
C551 C549 1.387 . S
C551 C553 1.390 . S
C551 H555 0.950 . S
H552 C548 0.950 . S
C553 C551 1.390 . S
C553 C554 1.387 . S
C553 H556 0.950 . S
C554 C553 1.387 . S
C554 C557 1.387 . S
H555 C551 0.950 . S
H556 C553 0.950 . S
C557 C548 1.390 . S
C557 H550 0.950 . S
C557 C554 1.387 . S
C558 C559 1.387 . S
C558 H562 0.950 . S
C558 C567 1.390 . S
C559 C558 1.387 . S
C559 C561 1.387 . S
H560 C567 0.950 . S
C561 C559 1.387 . S
C561 C563 1.390 . S
C561 H565 0.950 . S
H562 C558 0.950 . S
C563 C561 1.390 . S
C563 C564 1.387 . S
C563 H566 0.950 . S
C564 C563 1.387 . S
C564 C567 1.387 . S
H565 C561 0.950 . S
H566 C563 0.950 . S
C567 C558 1.390 . S
C567 H560 0.950 . S
C567 C564 1.387 . S
C568 C569 1.387 . S
C568 H572 0.950 . S
C568 C577 1.390 . S
C569 C568 1.387 . S
C569 C571 1.387 . S
H570 C577 0.950 . S
C571 C569 1.387 . S
C571 C573 1.390 . S
C571 H575 0.950 . S
H572 C568 0.950 . S
C573 C571 1.390 . S
C573 C574 1.387 . S
C573 H576 0.950 . S
C574 C573 1.387 . S
C574 C577 1.387 . S
H575 C571 0.950 . S
H576 C573 0.950 . S
C577 C568 1.390 . S
C577 H570 0.950 . S
C577 C574 1.387 . S
C578 C579 1.387 . S
C578 H582 0.950 . S
C578 C587 1.390 . S
C579 C578 1.387 . S
C579 C581 1.387 . S
H580 C587 0.950 . S
C581 C579 1.387 . S
C581 C583 1.390 . S
C581 H585 0.950 . S
H582 C578 0.950 . S
C583 C581 1.390 . S
C583 C584 1.387 . S
C583 H586 0.950 . S
C584 C583 1.387 . S
C584 C587 1.387 . S
H585 C581 0.950 . S
H586 C583 0.950 . S
C587 C578 1.390 . S
C587 H580 0.950 . S
C587 C584 1.387 . S
C588 C589 1.387 . S
C588 H592 0.950 . S
C588 C597 1.390 . S
C589 C588 1.387 . S
C589 C591 1.387 . S
H590 C597 0.950 . S
C591 C589 1.387 . S
C591 C593 1.390 . S
C591 H595 0.950 . S
H592 C588 0.950 . S
C593 C591 1.390 . S
C593 C594 1.387 . S
C593 H596 0.950 . S
C594 C593 1.387 . S
C594 C597 1.387 . S
H595 C591 0.950 . S
H596 C593 0.950 . S
C597 C588 1.390 . S
C597 H590 0.950 . S
C597 C594 1.387 . S
C598 C599 1.387 . S
C598 H602 0.950 . S
C598 C607 1.390 . S
C599 C598 1.387 . S
C599 C601 1.387 . S
H600 C607 0.950 . S
C601 C599 1.387 . S
C601 C603 1.390 . S
C601 H605 0.950 . S
H602 C598 0.950 . S
C603 C601 1.390 . S
C603 C604 1.387 . S
C603 H606 0.950 . S
C604 C603 1.387 . S
C604 C607 1.387 . S
H605 C601 0.950 . S
H606 C603 0.950 . S
C607 C598 1.390 . S
C607 H600 0.950 . S
C607 C604 1.387 . S
C608 C609 1.387 . S
C608 H612 0.950 . S
C608 C617 1.390 . S
C609 C608 1.387 . S
C609 C611 1.387 . S
H610 C617 0.950 . S
C611 C609 1.387 . S
C611 C613 1.390 . S
C611 H615 0.950 . S
H612 C608 0.950 . S
C613 C611 1.390 . S
C613 C614 1.387 . S
C613 H616 0.950 . S
C614 C613 1.387 . S
C614 C617 1.387 . S
H615 C611 0.950 . S
H616 C613 0.950 . S
C617 C608 1.390 . S
C617 H610 0.950 . S
C617 C614 1.387 . S
C618 C619 1.387 . S
C618 H622 0.950 . S
C618 C627 1.390 . S
C619 C618 1.387 . S
C619 C621 1.387 . S
H620 C627 0.950 . S
C621 C619 1.387 . S
C621 C623 1.390 . S
C621 H625 0.950 . S
H622 C618 0.950 . S
C623 C621 1.390 . S
C623 C624 1.387 . S
C623 H626 0.950 . S
C624 C623 1.387 . S
C624 C627 1.387 . S
H625 C621 0.950 . S
H626 C623 0.950 . S
C627 C618 1.390 . S
C627 H620 0.950 . S
C627 C624 1.387 . S
C628 C629 1.387 . S
C628 H632 0.950 . S
C628 C637 1.390 . S
C629 C628 1.387 . S
C629 C631 1.387 . S
H630 C637 0.950 . S
C631 C629 1.387 . S
C631 C633 1.390 . S
C631 H635 0.950 . S
H632 C628 0.950 . S
C633 C631 1.390 . S
C633 C634 1.387 . S
C633 H636 0.950 . S
C634 C633 1.387 . S
C634 C637 1.387 . S
H635 C631 0.950 . S
H636 C633 0.950 . S
C637 C628 1.390 . S
C637 H630 0.950 . S
C637 C634 1.387 . S
C638 C639 1.387 . S
C638 H642 0.950 . S
C638 C647 1.390 . S
C639 C638 1.387 . S
C639 C641 1.387 . S
H640 C647 0.950 . S
C641 C639 1.387 . S
C641 C643 1.390 . S
C641 H645 0.950 . S
H642 C638 0.950 . S
C643 C641 1.390 . S
C643 C644 1.387 . S
C643 H646 0.949 1_554 S
C644 C643 1.387 . S
C644 C647 1.387 . S
H645 C641 0.950 . S
H646 C643 0.949 1_556 S
C647 C638 1.390 . S
C647 H640 0.950 . S
C647 C644 1.387 . S
C648 C649 1.387 . S
C648 H652 0.950 . S
C648 C657 1.390 . S
C649 C648 1.387 . S
C649 C651 1.387 . S
H650 C657 0.950 . S
C651 C649 1.387 . S
C651 C653 1.390 . S
C651 H655 0.950 . S
H652 C648 0.950 . S
C653 C651 1.390 . S
C653 C654 1.387 . S
C653 H656 0.950 . S
C654 C653 1.387 . S
C654 C657 1.387 . S
H655 C651 0.950 . S
H656 C653 0.950 . S
C657 C648 1.390 . S
C657 H650 0.950 . S
C657 C654 1.387 . S
C658 C659 1.387 . S
C658 H662 0.950 . S
C658 C667 1.390 . S
C659 C658 1.387 . S
C659 C661 1.387 . S
H660 C667 0.950 . S
C661 C659 1.387 . S
C661 C663 1.390 . S
C661 H665 0.950 . S
H662 C658 0.950 . S
C663 C661 1.390 . S
C663 C664 1.387 . S
C663 H666 0.950 . S
C664 C663 1.387 . S
C664 C667 1.387 . S
H665 C661 0.950 . S
H666 C663 0.950 . S
C667 C658 1.390 . S
C667 H660 0.950 . S
C667 C664 1.387 . S
C668 C669 1.387 . S
C668 H672 0.950 . S
C668 C677 1.390 . S
C669 C668 1.387 . S
C669 C671 1.387 . S
H670 C677 0.950 . S
C671 C669 1.387 . S
C671 C673 1.390 . S
C671 H675 0.950 . S
H672 C668 0.950 . S
C673 C671 1.390 . S
C673 C674 1.387 . S
C673 H676 0.950 . S
C674 C673 1.387 . S
C674 C677 1.387 . S
H675 C671 0.950 . S
H676 C673 0.950 . S
C677 C668 1.390 . S
C677 H670 0.950 . S
C677 C674 1.387 . S
C678 C679 1.387 . S
C678 H682 0.950 . S
C678 C687 1.390 . S
C679 C678 1.387 . S
C679 C681 1.387 . S
H680 C687 0.950 . S
C681 C679 1.387 . S
C681 C683 1.390 . S
C681 H685 0.950 . S
H682 C678 0.950 . S
C683 C681 1.390 . S
C683 C684 1.387 . S
C683 H686 0.950 1_556 S
C684 C683 1.387 . S
C684 C687 1.387 . S
H685 C681 0.950 . S
H686 C683 0.950 1_554 S
C687 C678 1.390 . S
C687 H680 0.950 . S
C687 C684 1.387 . S
C688 C689 1.387 . S
C688 H692 0.950 . S
C688 C697 1.390 . S
C689 C688 1.387 . S
C689 C691 1.387 . S
H690 C697 0.950 . S
C691 C689 1.387 . S
C691 C693 1.390 . S
C691 H695 0.950 . S
H692 C688 0.950 . S
C693 C691 1.390 . S
C693 C694 1.387 . S
C693 H696 0.950 . S
C694 C693 1.387 . S
C694 C697 1.387 . S
H695 C691 0.950 . S
H696 C693 0.950 . S
C697 C688 1.390 . S
C697 H690 0.950 . S
C697 C694 1.387 . S
C698 C699 1.387 . S
C698 H702 0.950 . S
C698 C707 1.390 . S
C699 C698 1.387 . S
C699 C701 1.387 . S
H700 C707 0.950 . S
C701 C699 1.387 . S
C701 C703 1.390 . S
C701 H705 0.950 . S
H702 C698 0.950 . S
C703 C701 1.390 . S
C703 C704 1.387 . S
C703 H706 0.950 . S
C704 C703 1.387 . S
C704 C707 1.387 . S
H705 C701 0.950 . S
H706 C703 0.950 . S
C707 C698 1.390 . S
C707 H700 0.950 . S
C707 C704 1.387 . S
C708 C709 1.387 . S
C708 H712 0.950 . S
C708 C717 1.390 . S
C709 C708 1.387 . S
C709 C711 1.387 . S
H710 C717 0.950 . S
C711 C709 1.387 . S
C711 C713 1.390 . S
C711 H715 0.950 . S
H712 C708 0.950 . S
C713 C711 1.390 . S
C713 C714 1.387 . S
C713 H716 0.950 . S
C714 C713 1.387 . S
C714 C717 1.387 . S
H715 C711 0.950 . S
H716 C713 0.950 . S
C717 C708 1.390 . S
C717 H710 0.950 . S
C717 C714 1.387 . S
C718 C719 1.387 . S
C718 H722 0.950 . S
C718 C727 1.390 1_556 S
C719 C718 1.387 . S
C719 C721 1.387 1_655 S
H720 C727 0.950 . S
C721 C719 1.387 1_455 S
C721 C723 1.390 1_556 S
C721 H725 0.950 . S
H722 C718 0.950 . S
C723 C721 1.390 1_554 S
C723 C724 1.387 . S
C723 H726 0.950 . S
C724 C723 1.387 . S
C724 C727 1.387 1_455 S
H725 C721 0.950 . S
H726 C723 0.950 . S
C727 C718 1.390 1_554 S
C727 H720 0.950 . S
C727 C724 1.387 1_655 S
C728 C729 1.387 . S
C728 H732 0.950 . S
C728 C737 1.390 . S
C729 C728 1.387 . S
C729 C731 1.387 . S
H730 C737 0.950 . S
C731 C729 1.387 . S
C731 C733 1.390 . S
C731 H735 0.950 . S
H732 C728 0.950 . S
C733 C731 1.390 . S
C733 C734 1.387 . S
C733 H736 0.950 . S
C734 C733 1.387 . S
C734 C737 1.387 . S
H735 C731 0.950 . S
H736 C733 0.950 . S
C737 C728 1.390 . S
C737 H730 0.950 . S
C737 C734 1.387 . S
C738 C739 1.387 . S
C738 H742 0.950 . S
C738 C747 1.390 . S
C739 C738 1.387 . S
C739 C741 1.387 . S
H740 C747 0.950 . S
C741 C739 1.387 . S
C741 C743 1.390 . S
C741 H745 0.950 . S
H742 C738 0.950 . S
C743 C741 1.390 . S
C743 C744 1.387 . S
C743 H746 0.950 . S
C744 C743 1.387 . S
C744 C747 1.387 . S
H745 C741 0.950 . S
H746 C743 0.950 . S
C747 C738 1.390 . S
C747 H740 0.950 . S
C747 C744 1.387 . S
C748 C749 1.387 1_455 S
C748 H752 0.950 . S
C748 C757 1.390 1_554 S
C749 C748 1.387 1_655 S
C749 C751 1.387 1_565 S
H750 C757 0.950 . S
C751 C749 1.387 1_545 S
C751 C753 1.390 1_554 S
C751 H755 0.950 . S
H752 C748 0.950 . S
C753 C751 1.390 1_556 S
C753 C754 1.387 1_655 S
C753 H756 0.950 . S
C754 C753 1.387 1_455 S
C754 C757 1.387 1_545 S
H755 C751 0.950 . S
H756 C753 0.950 . S
C757 C748 1.390 1_556 S
C757 H750 0.950 . S
C757 C754 1.387 1_565 S
C758 C759 1.387 . S
C758 H762 0.950 . S
C758 C767 1.390 . S
C759 C758 1.387 . S
C759 C761 1.387 1_565 S
H760 C767 0.950 . S
C761 C759 1.387 1_545 S
C761 C763 1.390 . S
C761 H765 0.950 . S
H762 C758 0.950 . S
C763 C761 1.390 . S
C763 C764 1.387 . S
C763 H766 0.950 . S
C764 C763 1.387 . S
C764 C767 1.387 1_545 S
H765 C761 0.950 . S
H766 C763 0.950 . S
C767 C758 1.390 . S
C767 H760 0.950 . S
C767 C764 1.387 1_565 S
C768 C769 1.387 . S
C768 H772 0.950 . S
C768 C777 1.390 . S
C769 C768 1.387 . S
C769 C771 1.387 . S
H770 C777 0.950 . S
C771 C769 1.387 . S
C771 C773 1.390 . S
C771 H775 0.950 . S
H772 C768 0.950 . S
C773 C771 1.390 . S
C773 C774 1.387 . S
C773 H776 0.950 . S
C774 C773 1.387 . S
C774 C777 1.387 . S
H775 C771 0.950 . S
H776 C773 0.950 . S
C777 C768 1.390 . S
C777 H770 0.950 . S
C777 C774 1.387 . S
C778 C779 1.387 . S
C778 H782 0.950 . S
C778 C787 1.390 . S
C779 C778 1.387 . S
C779 C781 1.387 . S
H780 C787 0.950 . S
C781 C779 1.387 . S
C781 C783 1.390 . S
C781 H785 0.950 . S
H782 C778 0.950 . S
C783 C781 1.390 . S
C783 C784 1.387 . S
C783 H786 0.950 . S
C784 C783 1.387 . S
C784 C787 1.387 . S
H785 C781 0.950 . S
H786 C783 0.950 . S
C787 C778 1.390 . S
C787 H780 0.950 . S
C787 C784 1.387 . S
C788 C789 1.387 . S
C788 H792 0.950 . S
C788 C797 1.390 . S
C789 C788 1.387 . S
C789 C791 1.387 . S
H790 C797 0.950 . S
C791 C789 1.387 . S
C791 C793 1.390 . S
C791 H795 0.950 . S
H792 C788 0.950 . S
C793 C791 1.390 . S
C793 C794 1.387 . S
C793 H796 0.950 . S
C794 C793 1.387 . S
C794 C797 1.387 . S
H795 C791 0.950 . S
H796 C793 0.950 . S
C797 C788 1.390 . S
C797 H790 0.950 . S
C797 C794 1.387 . S
C798 C799 1.387 . S
C798 H802 0.950 . S
C798 C807 1.390 . S
C799 C798 1.387 . S
C799 C801 1.387 . S
H800 C807 0.950 . S
C801 C799 1.387 . S
C801 C803 1.390 . S
C801 H805 0.950 . S
H802 C798 0.950 . S
C803 C801 1.390 . S
C803 C804 1.387 . S
C803 H806 0.950 . S
C804 C803 1.387 . S
C804 C807 1.387 . S
H805 C801 0.950 . S
H806 C803 0.950 . S
C807 C798 1.390 . S
C807 H800 0.950 . S
C807 C804 1.387 . S
C808 C809 1.387 . S
C808 H812 0.950 . S
C808 C817 1.390 . S
C809 C808 1.387 . S
C809 C811 1.387 . S
H810 C817 0.950 . S
C811 C809 1.387 . S
C811 C813 1.390 . S
C811 H815 0.950 . S
H812 C808 0.950 . S
C813 C811 1.390 . S
C813 C814 1.387 . S
C813 H816 0.950 . S
C814 C813 1.387 . S
C814 C817 1.387 . S
H815 C811 0.950 . S
H816 C813 0.950 . S
C817 C808 1.390 . S
C817 H810 0.950 . S
C817 C814 1.387 . S
C818 C819 1.387 . S
C818 H822 0.950 . S
C818 C827 1.390 . S
C819 C818 1.387 . S
C819 C821 1.387 . S
H820 C827 0.950 . S
C821 C819 1.387 . S
C821 C823 1.390 . S
C821 H825 0.950 . S
H822 C818 0.950 . S
C823 C821 1.390 . S
C823 C824 1.387 . S
C823 H826 0.950 . S
C824 C823 1.387 . S
C824 C827 1.387 . S
H825 C821 0.950 . S
H826 C823 0.950 . S
C827 C818 1.390 . S
C827 H820 0.950 . S
C827 C824 1.387 . S
C828 C829 1.387 . S
C828 H832 0.950 . S
C828 C837 1.390 . S
C829 C828 1.387 . S
C829 C831 1.387 . S
H830 C837 0.950 . S
C831 C829 1.387 . S
C831 C833 1.390 . S
C831 H835 0.950 . S
H832 C828 0.950 . S
C833 C831 1.390 . S
C833 C834 1.387 . S
C833 H836 0.950 . S
C834 C833 1.387 . S
C834 C837 1.387 . S
H835 C831 0.950 . S
H836 C833 0.950 . S
C837 C828 1.390 . S
C837 H830 0.950 . S
C837 C834 1.387 . S
C838 C839 1.387 . S
C838 H842 0.950 . S
C838 C847 1.390 . S
C839 C838 1.387 . S
C839 C841 1.387 . S
H840 C847 0.950 . S
C841 C839 1.387 . S
C841 C843 1.390 . S
C841 H845 0.950 . S
H842 C838 0.950 . S
C843 C841 1.390 . S
C843 C844 1.387 . S
C843 H846 0.950 . S
C844 C843 1.387 . S
C844 C847 1.387 . S
H845 C841 0.950 . S
H846 C843 0.950 . S
C847 C838 1.390 . S
C847 H840 0.950 . S
C847 C844 1.387 . S
C848 C849 1.387 . S
C848 H852 0.950 . S
C848 C857 1.390 . S
C849 C848 1.387 . S
C849 C851 1.387 . S
H850 C857 0.950 . S
C851 C849 1.387 . S
C851 C853 1.390 . S
C851 H855 0.950 . S
H852 C848 0.950 . S
C853 C851 1.390 . S
C853 C854 1.387 . S
C853 H856 0.950 . S
C854 C853 1.387 . S
C854 C857 1.387 . S
H855 C851 0.950 . S
H856 C853 0.950 . S
C857 C848 1.390 . S
C857 H850 0.950 . S
C857 C854 1.387 . S
C858 C859 1.387 . S
C858 H862 0.950 . S
C858 C867 1.390 . S
C859 C858 1.387 . S
C859 C861 1.387 . S
H860 C867 0.950 . S
C861 C859 1.387 . S
C861 C863 1.390 . S
C861 H865 0.950 . S
H862 C858 0.950 . S
C863 C861 1.390 . S
C863 C864 1.387 . S
C863 H866 0.950 . S
C864 C863 1.387 . S
C864 C867 1.387 . S
H865 C861 0.950 . S
H866 C863 0.950 . S
C867 C858 1.390 . S
C867 H860 0.950 . S
C867 C864 1.387 . S
C868 C869 1.387 . S
C868 H872 0.950 . S
C868 C877 1.390 . S
C869 C868 1.387 . S
C869 C871 1.387 . S
H870 C877 0.950 . S
C871 C869 1.387 . S
C871 C873 1.390 . S
C871 H875 0.950 . S
H872 C868 0.950 . S
C873 C871 1.390 . S
C873 C874 1.387 . S
C873 H876 0.950 . S
C874 C873 1.387 . S
C874 C877 1.387 . S
H875 C871 0.950 . S
H876 C873 0.950 . S
C877 C868 1.390 . S
C877 H870 0.950 . S
C877 C874 1.387 . S
C878 C879 1.387 . S
C878 H882 0.950 . S
C878 C887 1.390 . S
C879 C878 1.387 . S
C879 C881 1.387 . S
H880 C887 0.950 . S
C881 C879 1.387 . S
C881 C883 1.390 . S
C881 H885 0.950 . S
H882 C878 0.950 . S
C883 C881 1.390 . S
C883 C884 1.387 . S
C883 H886 0.950 . S
C884 C883 1.387 . S
C884 C887 1.387 . S
H885 C881 0.950 . S
H886 C883 0.950 . S
C887 C878 1.390 . S
C887 H880 0.950 . S
C887 C884 1.387 . S
C888 C889 1.387 . S
C888 H892 0.950 . S
C888 C897 1.390 . S
C889 C888 1.387 . S
C889 C891 1.387 . S
H890 C897 0.950 . S
C891 C889 1.387 . S
C891 C893 1.390 . S
C891 H895 0.950 . S
H892 C888 0.950 . S
C893 C891 1.390 . S
C893 C894 1.387 . S
C893 H896 0.950 . S
C894 C893 1.387 . S
C894 C897 1.387 . S
H895 C891 0.950 . S
H896 C893 0.950 . S
C897 C888 1.390 . S
C897 H890 0.950 . S
C897 C894 1.387 . S
C898 C899 1.387 . S
C898 H902 0.950 . S
C898 C907 1.390 . S
C899 C898 1.387 . S
C899 C901 1.387 . S
H900 C907 0.950 . S
C901 C899 1.387 . S
C901 C903 1.390 . S
C901 H905 0.950 . S
H902 C898 0.950 . S
C903 C901 1.390 . S
C903 C904 1.387 . S
C903 H906 0.950 . S
C904 C903 1.387 . S
C904 C907 1.387 . S
H905 C901 0.950 . S
H906 C903 0.950 . S
C907 C898 1.390 . S
C907 H900 0.950 . S
C907 C904 1.387 . S
C908 C909 1.387 . S
C908 H912 0.950 . S
C908 C917 1.390 . S
C909 C908 1.387 . S
C909 C911 1.387 . S
H910 C917 0.950 . S
C911 C909 1.387 . S
C911 C913 1.390 . S
C911 H915 0.950 . S
H912 C908 0.950 . S
C913 C911 1.390 . S
C913 C914 1.387 . S
C913 H916 0.950 . S
C914 C913 1.387 . S
C914 C917 1.387 . S
H915 C911 0.950 . S
H916 C913 0.950 . S
C917 C908 1.390 . S
C917 H910 0.950 . S
C917 C914 1.387 . S
C918 C919 1.387 . S
C918 H922 0.950 . S
C918 C927 1.390 . S
C919 C918 1.387 . S
C919 C921 1.387 . S
H920 C927 0.950 . S
C921 C919 1.387 . S
C921 C923 1.390 . S
C921 H925 0.950 . S
H922 C918 0.950 . S
C923 C921 1.390 . S
C923 C924 1.387 . S
C923 H926 0.950 . S
C924 C923 1.387 . S
C924 C927 1.387 . S
H925 C921 0.950 . S
H926 C923 0.950 . S
C927 C918 1.390 . S
C927 H920 0.950 . S
C927 C924 1.387 . S
C529 C513 1.486 . S
C534 N13 1.459 . S
C539 N46 1.458 . S
C544 C150 1.486 . S
C549 N79 1.459 . S
C554 C447 1.486 1_455 S
C559 N112 1.458 . S
C564 C216 1.486 . S
C569 N145 1.460 . S
C574 C381 1.485 . S
C579 C18 1.485 . S
C584 N178 1.461 . S
C589 C315 1.486 1_655 S
C594 N211 1.459 . S
C599 N244 1.460 . S
C604 C84 1.485 . S
C609 N277 1.459 . S
C614 C249 1.486 1_655 S
C619 N310 1.461 . S
C624 C414 1.485 . S
C629 C183 1.485 . S
C634 N343 1.460 . S
C639 N376 1.459 . S
C644 C480 1.486 . S
C649 N409 1.458 . S
C654 C117 1.487 1_455 S
C659 N442 1.459 . S
C664 C282 1.486 . S
C669 C51 1.485 . S
C674 N475 1.460 . S
C679 N508 1.458 . S
C684 C348 1.486 . S
C689 N2 1.586 . S
C694 N398 1.586 . S
C699 N167 1.585 . S
C704 N35 1.585 . S
C709 N68 1.587 . S
C714 N464 1.587 . S
C719 N101 1.585 . S
C724 N233 1.585 . S
C729 N266 1.585 . S
C734 N134 1.585 . S
C739 N332 1.585 . S
C744 N200 1.585 . S
C749 N431 1.585 . S
C754 N299 1.585 . S
C759 N365 1.587 . S
C764 N497 1.587 . S
C769 C304 1.392 . S
C774 C21 1.419 . S
C779 C54 1.419 . S
C784 C337 1.391 . S
C789 C87 1.419 . S
C794 C370 1.391 . S
C799 C271 1.391 . S
C804 C120 1.419 . S
C809 C153 1.419 . S
C814 C436 1.392 . S
C819 C186 1.419 . S
C824 C469 1.391 . S
C829 C219 1.419 . S
C834 C502 1.392 . S
C839 C252 1.419 . S
C844 C403 1.392 . S
C849 C40 1.390 . S
C854 C285 1.419 . S
C859 C318 1.419 . S
C864 C73 1.391 . S
C869 C351 1.419 . S
C874 C106 1.390 . S
C879 C384 1.419 . S
C884 C7 1.392 . S
C889 C417 1.419 . S
C894 C172 1.390 . S
C899 C205 1.392 . S
C904 C450 1.419 . S
C909 C238 1.392 . S
C914 C483 1.419 . S
C919 C516 1.419 . S
C924 C139 1.392 . S
