# Generated by pormake.
# Topology nbo, (4)-cn, num edge types: 1
# Building blocks:
#     Node 0, Type 0, BuildingBlock: KOZSID_clean_sbu_0, # of connection points: 4
#     Node 1, Type 0, BuildingBlock: KOZSID_clean_sbu_0, # of connection points: 4
#     Node 2, Type 0, BuildingBlock: KOZSID_clean_sbu_0, # of connection points: 4
#     Node 3, Type 0, BuildingBlock: KOZSID_clean_sbu_0, # of connection points: 4
#     Node 4, Type 0, BuildingBlock: KOZSID_clean_sbu_0, # of connection points: 4
#     Node 5, Type 0, BuildingBlock: KOZSID_clean_sbu_0, # of connection points: 4
#     Edge 6, Type (0, 0), BuildingBlock: TEMPAE_clean_linker_10, # of connection points: 2
#     Edge 7, Type (0, 0), BuildingBlock: TEMPAE_clean_linker_10, # of connection points: 2
#     Edge 8, Type (0, 0), BuildingBlock: TEMPAE_clean_linker_10, # of connection points: 2
#     Edge 9, Type (0, 0), BuildingBlock: TEMPAE_clean_linker_10, # of connection points: 2
#     Edge 10, Type (0, 0), BuildingBlock: TEMPAE_clean_linker_10, # of connection points: 2
#     Edge 11, Type (0, 0), BuildingBlock: TEMPAE_clean_linker_10, # of connection points: 2
#     Edge 12, Type (0, 0), BuildingBlock: TEMPAE_clean_linker_10, # of connection points: 2
#     Edge 13, Type (0, 0), BuildingBlock: TEMPAE_clean_linker_10, # of connection points: 2
#     Edge 14, Type (0, 0), BuildingBlock: TEMPAE_clean_linker_10, # of connection points: 2
#     Edge 15, Type (0, 0), BuildingBlock: TEMPAE_clean_linker_10, # of connection points: 2
#     Edge 16, Type (0, 0), BuildingBlock: TEMPAE_clean_linker_10, # of connection points: 2
#     Edge 17, Type (0, 0), BuildingBlock: TEMPAE_clean_linker_10, # of connection points: 2
# Relax obj value: 0.000
# Max RMSD: 0.000
# Mean RMSD: 0.000
data_MOF--net-nbo--node1-KOZSID_clean_sbu_0--edge1-TEMPAE_clean_linker_10
_symmetry_space_group_name_H-M    P1
_symmetry_Int_Tables_number       1
_symmetry_cell_setting            triclinic
loop_
_symmetry_equiv_pos_as_xyz
'x, y, z'
_cell_length_a     33.581535
_cell_length_b     39.509843
_cell_length_c     36.665549
_cell_angle_alpha  106.57692
_cell_angle_beta   107.34211
_cell_angle_gamma 106.98987
loop_
_atom_site_label
_atom_site_type_symbol
_atom_site_fract_x
_atom_site_fract_y
_atom_site_fract_z
_atom_type_partial_charge
C0 C 0.90333 0.97314 0.48437 0.0
C1 C 0.86344 0.95505 0.44766 0.0
C2 C 0.87648 0.95507 0.41571 0.0
C3 C 0.92335 0.97312 0.43449 0.0
N4 N 0.94086 0.98396 0.47623 0.0
Co5 Co 0.00704 0.01257 0.51491 0.0
N6 N 0.02632 1.00035 0.46816 0.0
C7 C 0.99898 0.98609 0.42711 0.0
C8 C 0.01932 0.97372 0.40186 0.0
C9 C 0.06216 0.98096 0.42855 0.0
C10 C 0.06654 0.99895 0.46901 0.0
N11 N 0.07301 0.04141 0.5534 0.0
C12 C 0.11054 0.04157 0.54652 0.0
C13 C 0.15025 0.0702 0.58058 0.0
C14 C 0.13703 0.08749 0.61004 0.0
C15 C 0.0902 0.06916 0.59223 0.0
N16 N 0.98828 0.02492 0.56198 0.0
C17 C 0.01529 0.05253 0.60096 0.0
C18 C 0.99336 0.05479 0.62711 0.0
C19 C 0.94949 0.02736 0.60293 0.0
C20 C 0.94699 0.01013 0.56308 0.0
N21 N 0.00815 0.96489 0.52059 0.0
C22 C 0.01012 0.89611 0.52747 0.0
C23 C 0.02974 0.93109 0.56314 0.0
C24 C 0.02858 0.96507 0.559 0.0
C25 C 0.98964 0.8967 0.48839 0.0
C26 C 0.98866 0.93101 0.48569 0.0
N27 N 0.00577 0.06028 0.50911 0.0
C28 C 0.96903 0.1043 0.50783 0.0
C29 C 0.00564 0.13056 0.50538 0.0
C30 C 0.04183 0.12007 0.5037 0.0
C31 C 0.04095 0.08477 0.50508 0.0
C32 C 0.97 0.06984 0.51011 0.0
H33 H 0.0692 0.07761 0.50355 0.0
H34 H 0.9417 0.05114 0.51298 0.0
H35 H 0.0442 0.9915 0.58691 0.0
H36 H 0.97231 0.93002 0.45511 0.0
C37 C 0.95194 0.97561 0.4136 0.0
C38 C 0.90359 0.98432 0.52629 0.0
C39 C 0.10964 0.01671 0.5074 0.0
C40 C 0.06183 0.07336 0.61273 0.0
H41 H 0.82845 0.94397 0.44432 0.0
H42 H 0.85441 0.94281 0.38267 0.0
H43 H 1.00362 0.95828 0.36814 0.0
H44 H 0.08639 0.97258 0.41873 0.0
H45 H 0.1852 0.07826 0.58386 0.0
H46 H 0.15904 0.11012 0.64106 0.0
H47 H 0.0076 0.07391 0.65989 0.0
H48 H 0.92196 0.02172 0.61302 0.0
H49 H 0.04551 0.9323 0.59416 0.0
H50 H 0.97486 0.87093 0.4597 0.0
H51 H 0.93949 0.11007 0.50798 0.0
H52 H 0.07126 0.1392 0.5022 0.0
C53 C 0.54676 0.04915 0.08306 0.0
C54 C 0.58954 0.06783 0.11648 0.0
C55 C 0.62097 0.07566 0.10012 0.0
C56 C 0.59571 0.06142 0.05783 0.0
N57 N 0.54996 0.04532 0.04616 0.0
Co58 Co 0.50078 0.01994 0.9876 0.0
N59 N 0.54719 0.0281 0.96314 0.0
C60 C 0.59333 0.04525 0.98443 0.0
C61 C 0.61632 0.0473 0.95936 0.0
C62 C 0.58295 0.0307 0.91963 0.0
C63 C 0.54132 0.01936 0.92277 0.0
N64 N 0.45155 0.99464 0.92908 0.0
C65 C 0.45471 0.98941 0.89197 0.0
C66 C 0.41185 0.97091 0.85863 0.0
C67 C 0.38045 0.96462 0.87523 0.0
C68 C 0.40578 0.97947 0.91756 0.0
N69 N 0.45437 0.01151 0.01205 0.0
C70 C 0.40825 0.99478 0.99087 0.0
C71 C 0.38529 0.99185 0.01587 0.0
C72 C 0.4187 1.00719 0.05542 0.0
C73 C 0.46027 0.01865 0.0522 0.0
N74 N 0.50003 0.07116 0.9913 0.0
C75 C 0.49868 0.14262 0.99206 0.0
C76 C 0.4583 0.1108 0.98029 0.0
C77 C 0.4597 0.07561 0.97986 0.0
C78 C 0.5398 0.13831 0.00426 0.0
C79 C 0.53975 0.10284 0.00409 0.0
N80 N 0.5016 0.96886 0.98387 0.0
C81 C 0.46195 0.90105 0.96842 0.0
C82 C 0.50334 0.89708 0.98172 0.0
C83 C 0.54375 0.92975 0.99553 0.0
C84 C 0.54213 0.96496 0.99655 0.0
C85 C 0.46185 0.93673 0.96947 0.0
H86 H 0.57421 0.98868 0.00794 0.0
H87 H 0.4292 0.93771 0.95885 0.0
H88 H 0.42761 0.05233 0.96966 0.0
H89 H 0.57232 0.10178 0.01419 0.0
C90 C 0.61398 0.06038 0.02813 0.0
C91 C 0.50427 0.03468 0.08792 0.0
C92 C 0.49726 1.00176 0.88666 0.0
C93 C 0.38758 0.98036 0.94726 0.0
H94 H 0.5972 0.07447 0.14921 0.0
H95 H 0.65789 0.08918 0.11693 0.0
H96 H 0.65298 0.05997 0.9689 0.0
H97 H 0.58864 0.02782 0.89156 0.0
H98 H 0.40412 0.96306 0.82573 0.0
H99 H 0.34353 0.95118 0.85848 0.0
H100 H 0.34863 0.9792 0.00635 0.0
H101 H 0.41312 1.00902 0.08338 0.0
H102 H 0.42555 0.11274 0.97044 0.0
H103 H 0.57206 0.16237 0.01424 0.0
H104 H 0.42958 0.87695 0.95788 0.0
H105 H 0.57676 0.92831 0.00539 0.0
C106 C 0.10203 0.52903 0.03575 0.0
C107 C 0.14116 0.56324 0.0604 0.0
C108 C 0.12757 0.58994 0.08002 0.0
C109 C 0.08109 0.57068 0.06614 0.0
N110 N 0.06465 0.53361 0.039 0.0
Co111 Co 0.99953 0.49575 0.00995 0.0
N112 N 0.97781 0.53762 0.02175 0.0
C113 C 1.00354 0.57446 0.05034 0.0
C114 C 0.97927 0.59696 0.05214 0.0
C115 C 0.93538 0.57267 0.02343 0.0
C116 C 0.93525 0.53645 0.00583 0.0
N117 N 0.93444 0.45759 0.98048 0.0
C118 C 0.8955 0.46312 0.96763 0.0
C119 C 0.8571 0.42821 0.94931 0.0
C120 C 0.87262 0.40012 0.95154 0.0
C121 C 0.91943 0.41926 0.97096 0.0
N122 N 0.0215 0.45408 0.99888 0.0
C123 C 0.99754 0.41638 0.98872 0.0
C124 C 0.0221 0.39452 0.98296 0.0
C125 C 0.0641 0.42014 0.98995 0.0
C126 C 0.06264 0.45624 0.99951 0.0
N127 N 1.00136 0.49244 0.0627 0.0
C128 C 0.00507 0.49118 0.14001 0.0
C129 C 0.9653 0.48831 0.10994 0.0
C130 C 0.96457 0.48992 0.07228 0.0
C131 C 0.04264 0.4938 0.12963 0.0
C132 C 0.0397 0.49351 0.09067 0.0
N133 N 0.99795 0.49924 0.95748 0.0
C134 C 0.98087 0.46833 0.8845 0.0
C135 C 1.00082 0.50444 0.88365 0.0
C136 C 0.01848 0.53788 0.92037 0.0
C137 C 0.01655 0.53466 0.95679 0.0
C138 C 0.97986 0.46637 0.92169 0.0
H139 H 0.03071 0.56091 0.98456 0.0
H140 H 0.96507 0.4382 0.92165 0.0
H141 H 0.93404 0.48927 0.05107 0.0
H142 H 0.06888 0.4948 0.08353 0.0
C143 C 0.05109 0.58797 0.07106 0.0
C144 C 0.1014 0.49224 0.01113 0.0
C145 C 0.89322 0.50107 0.97816 0.0
C146 C 0.95024 0.40182 0.97688 0.0
H147 H 0.17577 0.56852 0.06367 0.0
H148 H 0.14872 0.62027 0.10022 0.0
H149 H 0.99207 0.62753 0.07146 0.0
H150 H 0.90649 0.58047 0.01698 0.0
H151 H 0.82152 0.4237 0.937 0.0
H152 H 0.85219 0.36939 0.94011 0.0
H153 H 0.01022 0.36343 0.97286 0.0
H154 H 0.09245 0.41309 0.98808 0.0
H155 H 0.9345 0.48482 0.115 0.0
H156 H 0.07463 0.49674 0.15143 0.0
H157 H 0.96707 0.44172 0.85689 0.0
H158 H 0.03357 0.56641 0.92098 0.0
C159 C 0.56174 0.51032 0.94031 0.0
C160 C 0.56339 0.50303 0.90158 0.0
C161 C 0.52155 0.49754 0.87431 0.0
C162 C 0.4969 0.50186 0.89789 0.0
N163 N 0.52063 0.50971 0.93821 0.0
Co164 Co 0.49839 0.51811 0.98304 0.0
N165 N 0.43342 0.49227 0.94152 0.0
C166 C 0.4187 0.48506 0.9005 0.0
C167 C 0.3719 0.46788 0.87952 0.0
C168 C 0.35606 0.46463 0.90926 0.0
C169 C 0.39428 0.48015 0.94694 0.0
N170 N 0.47645 0.5271 0.02813 0.0
C171 C 0.43376 0.51211 0.02632 0.0
C172 C 0.43379 0.52681 0.06558 0.0
C173 C 0.47776 0.55264 0.09256 0.0
C174 C 0.50215 0.55216 0.06849 0.0
N175 N 0.5634 0.54372 0.02423 0.0
C176 C 0.57976 0.56742 0.06481 0.0
C177 C 0.62619 0.57975 0.08565 0.0
C178 C 0.63985 0.56279 0.05629 0.0
C179 C 0.60082 0.54116 0.01901 0.0
N180 N 0.50089 0.56817 0.98218 0.0
C181 C 0.50444 0.6403 0.98241 0.0
C182 C 0.54092 0.62979 0.98221 0.0
C183 C 0.53836 0.59365 0.98187 0.0
C184 C 0.46605 0.61353 0.98206 0.0
C185 C 0.46512 0.57804 0.98226 0.0
N186 N 0.49598 0.46818 0.984 0.0
C187 C 0.51179 0.43006 0.02277 0.0
C188 C 0.49527 0.39716 0.98559 0.0
C189 C 0.47872 0.40082 0.94756 0.0
C190 C 0.47901 0.4363 0.94745 0.0
C191 C 0.51218 0.46514 0.02129 0.0
H192 H 0.46595 0.43801 0.91771 0.0
H193 H 0.52582 0.48988 0.05048 0.0
H194 H 0.56691 0.58644 0.98162 0.0
H195 H 0.43522 0.55864 0.98248 0.0
C196 C 0.44968 0.49139 0.88215 0.0
C197 C 0.60038 0.51985 0.97884 0.0
C198 C 0.39173 0.48824 0.98764 0.0
C199 C 0.54973 0.57105 0.08356 0.0
H200 H 0.59177 0.50172 0.89388 0.0
H201 H 0.50984 0.48951 0.84093 0.0
H202 H 0.35167 0.4586 0.84651 0.0
H203 H 0.32042 0.45341 0.90407 0.0
H204 H 0.40476 0.52035 0.07364 0.0
H205 H 0.49051 0.56929 0.12585 0.0
H206 H 0.64725 0.59731 0.11869 0.0
H207 H 0.67445 0.56579 0.06187 0.0
H208 H 0.57161 0.64949 0.98294 0.0
H209 H 0.43648 0.61963 0.98127 0.0
H210 H 0.52415 0.42887 0.05302 0.0
H211 H 0.46622 0.37667 0.91789 0.0
C212 C 0.05642 0.54203 0.61564 0.0
C213 C 0.09865 0.56085 0.6498 0.0
C214 C 0.13091 0.56975 0.63454 0.0
C215 C 0.10664 0.55612 0.59217 0.0
N216 N 0.06077 0.53936 0.57945 0.0
Co217 Co 0.01276 0.51589 0.52066 0.0
N218 N 0.06033 0.52369 0.49756 0.0
C219 C 0.10626 0.5386 0.51953 0.0
C220 C 0.13015 0.53798 0.4951 0.0
C221 C 0.09762 0.52201 0.45508 0.0
C222 C 0.05556 0.51437 0.45746 0.0
N223 N 0.96475 0.49342 0.46195 0.0
C224 C 0.96911 0.49018 0.42558 0.0
C225 C 0.9268 0.4768 0.39255 0.0
C226 C 0.89472 0.47062 0.40834 0.0
C227 C 0.919 0.48108 0.45003 0.0
N228 N 0.96518 0.5067 0.54371 0.0
C229 C 0.91919 0.49051 0.52175 0.0
C230 C 0.89515 0.48546 0.54551 0.0
C231 C 0.92768 0.49866 0.58503 0.0
C232 C 0.96988 0.51132 0.58308 0.0
N233 N 0.01443 0.56829 0.52664 0.0
C234 C 0.01609 0.64163 0.53178 0.0
C235 C 0.97578 0.61123 0.52305 0.0
C236 C 0.97563 0.57511 0.52035 0.0
C237 C 0.05569 0.63489 0.53847 0.0
C238 C 0.05424 0.59854 0.53622 0.0
N239 N 0.01116 0.46377 0.51472 0.0
C240 C 0.9688 0.39517 0.49393 0.0
C241 C 0.00931 0.39033 0.50965 0.0
C242 C 0.05071 0.42309 0.52726 0.0
C243 C 0.05083 0.45911 0.52986 0.0
C244 C 0.97052 0.43166 0.49636 0.0
H245 H 0.08353 0.48288 0.54451 0.0
H246 H 0.93851 0.43335 0.48358 0.0
H247 H 0.94349 0.55315 0.51273 0.0
H248 H 0.08584 0.5957 0.54219 0.0
C249 C 0.12596 0.5543 0.56322 0.0
C250 C 0.01335 0.52609 0.61905 0.0
C251 C 0.01242 0.50003 0.42102 0.0
C252 C 0.89972 0.47981 0.47869 0.0
H253 H 0.10542 0.56668 0.68224 0.0
H254 H 0.16773 0.58317 0.65204 0.0
H255 H 0.16686 0.54828 0.50521 0.0
H256 H 0.10429 0.51711 0.42735 0.0
H257 H 0.91955 0.47239 0.36038 0.0
H258 H 0.85807 0.46029 0.39153 0.0
H259 H 0.85835 0.47295 0.53516 0.0
H260 H 0.92094 0.49829 0.61202 0.0
H261 H 0.94412 0.61498 0.51734 0.0
H262 H 0.0879 0.65774 0.54583 0.0
H263 H 0.93564 0.37114 0.48039 0.0
H264 H 0.08326 0.4212 0.53902 0.0
C265 C 0.60823 0.03254 0.52574 0.0
C266 C 0.6502 0.06441 0.54468 0.0
C267 C 0.64095 0.09629 0.54682 0.0
C268 C 0.5941 0.08229 0.52905 0.0
N269 N 0.57326 0.04366 0.51639 0.0
Co270 Co 0.50614 0.01215 0.48712 0.0
N271 N 0.49261 0.05828 0.50544 0.0
C272 C 0.52255 0.09551 0.52132 0.0
C273 C 0.50609 0.12091 0.53846 0.0
C274 C 0.46321 0.09831 0.53278 0.0
C275 C 0.45486 0.06003 0.51094 0.0
N276 N 0.43933 0.98092 0.45719 0.0
C277 C 0.40471 0.99012 0.46133 0.0
C278 C 0.36272 0.96161 0.43032 0.0
C279 C 0.37168 0.9332 0.40708 0.0
C280 C 0.41844 0.94617 0.42456 0.0
N281 N 0.51892 0.96563 0.46895 0.0
C282 C 0.48904 0.93119 0.43722 0.0
C283 C 0.50724 0.90422 0.43165 0.0
C284 C 0.55158 0.92305 0.46127 0.0
C285 C 0.55812 0.96076 0.48307 0.0
N286 N 0.50568 1.00497 0.53774 0.0
C287 C 0.50308 0.99688 0.61081 0.0
C288 C 0.47864 0.9651 0.57172 0.0
C289 C 0.48053 0.96973 0.53563 0.0
C290 C 0.52894 0.03262 0.61227 0.0
C291 C 0.52984 0.036 0.57567 0.0
N292 N 0.50682 0.01961 0.43651 0.0
C293 C 0.53998 0.0188 0.38647 0.0
C294 C 0.50664 0.02777 0.36273 0.0
C295 C 0.47361 0.03298 0.3771 0.0
C296 C 0.4744 0.02894 0.41404 0.0
C297 C 0.53949 0.0149 0.42304 0.0
H298 H 0.44857 0.03313 0.42428 0.0
H299 H 0.56549 1.00768 0.44014 0.0
H300 H 0.46141 0.9449 0.50596 0.0
H301 H 0.5497 0.06406 0.57814 0.0
C302 C 0.56879 0.10479 0.52978 0.0
C303 C 0.6032 0.99214 0.51273 0.0
C304 C 0.41072 0.02587 0.49356 0.0
C305 C 0.44322 0.92425 0.41626 0.0
H306 H 0.68402 0.06459 0.55511 0.0
H307 H 0.66549 0.12618 0.56064 0.0
H308 H 0.52458 0.15193 0.5564 0.0
H309 H 0.44215 0.10936 0.54533 0.0
H310 H 0.3291 0.9612 0.42509 0.0
H311 H 0.34693 0.9058 0.38153 0.0
H312 H 0.49023 0.87433 0.40911 0.0
H313 H 0.57664 0.91077 0.46542 0.0
H314 H 0.45848 0.93681 0.56903 0.0
H315 H 0.54774 0.0582 0.64146 0.0
H316 H 0.56588 0.01401 0.37649 0.0
H317 H 0.44748 0.04041 0.36012 0.0
C318 C 0.98556 0.18781 0.52702 0.0
C319 C 0.00609 0.16862 0.50515 0.0
C320 C 0.98498 0.22316 0.5267 0.0
C321 C 0.00668 0.2407 0.50507 0.0
C322 C 0.02805 0.22198 0.48344 0.0
C323 C 0.027 0.18605 0.48328 0.0
C324 C 0.96113 0.24177 0.54963 0.0
C325 C 0.05237 0.24006 0.46068 0.0
C326 C 0.97423 0.31697 0.47514 0.0
C327 C 0.0086 0.35178 0.50817 0.0
C328 C 0.97302 0.28072 0.47385 0.0
C329 C 0.00761 0.27897 0.50575 0.0
C330 C 0.04273 0.31383 0.53882 0.0
C331 C 0.04243 0.34962 0.53995 0.0
C332 C 0.93443 0.24423 0.43846 0.0
C333 C 0.08068 0.31337 0.57318 0.0
H334 H 0.97023 0.1755 0.54496 0.0
H335 H 0.04234 0.17153 0.46564 0.0
H336 H 0.98628 0.27015 0.5754 0.0
H337 H 0.93527 0.24737 0.52806 0.0
H338 H 0.94378 0.22344 0.56306 0.0
H339 H 0.06831 0.22234 0.44623 0.0
H340 H 0.02791 0.24377 0.43576 0.0
H341 H 0.07947 0.26933 0.48272 0.0
H342 H 0.94829 0.31791 0.44994 0.0
H343 H 0.06863 0.37596 0.56623 0.0
H344 H 0.91584 0.22601 0.45124 0.0
H345 H 0.94837 0.22694 0.42058 0.0
H346 H 0.9096 0.25045 0.41655 0.0
H347 H 0.06624 0.29875 0.59091 0.0
H348 H 0.1068 0.343 0.59546 0.0
H349 H 0.09787 0.29661 0.55946 0.0
C350 C 0.85241 0.01701 0.5378 0.0
C351 C 0.86013 0.9832 0.52961 0.0
C352 C 0.81045 0.01645 0.53769 0.0
C353 C 0.77506 0.98104 0.5286 0.0
C354 C 0.78305 0.9469 0.52114 0.0
C355 C 0.82566 0.94841 0.52176 0.0
C356 C 0.80349 0.05352 0.54587 0.0
C357 C 0.7461 0.90861 0.51105 0.0
C358 C 0.67589 0.98984 0.55469 0.0
C359 C 0.64504 0.98501 0.51623 0.0
C360 C 0.71778 0.98716 0.55896 0.0
C361 C 0.72885 0.97957 0.52389 0.0
C362 C 0.69701 0.97362 0.48471 0.0
C363 C 0.65567 0.97672 0.48146 0.0
C364 C 0.75094 0.99397 0.60127 0.0
C365 C 0.70737 0.96551 0.44655 0.0
H366 H 0.87904 0.04381 0.5434 0.0
H367 H 0.83172 0.92228 0.51509 0.0
H368 H 0.77701 0.05083 0.51719 0.0
H369 H 0.79097 0.05893 0.57084 0.0
H370 H 0.83545 0.07904 0.55536 0.0
H371 H 0.75876 0.88541 0.50904 0.0
H372 H 0.73228 0.91158 0.5352 0.0
H373 H 0.71729 0.89951 0.48068 0.0
H374 H 0.6677 0.99673 0.5816 0.0
H375 H 0.63199 0.97365 0.45191 0.0
H376 H 0.78187 0.02113 0.61324 0.0
H377 H 0.76231 0.97003 0.59865 0.0
H378 H 0.73574 0.99637 0.62447 0.0
H379 H 0.73647 0.99122 0.45142 0.0
H380 H 0.67755 0.95854 0.41778 0.0
H381 H 0.71774 0.94094 0.44152 0.0
C382 C 0.03687 0.69775 0.51146 0.0
C383 C 0.01661 0.67987 0.53328 0.0
C384 C 0.03637 0.73324 0.51146 0.0
C385 C 0.01584 0.75174 0.53446 0.0
C386 C 0.99608 0.73412 0.55718 0.0
C387 C 0.99631 0.69826 0.55598 0.0
C388 C 0.05701 0.75055 0.48614 0.0
C389 C 0.97458 0.75312 0.58269 0.0
C390 C 0.04876 0.85963 0.5608 0.0
C391 C 0.01105 0.85926 0.53055 0.0
C392 C 0.05043 0.82501 0.56295 0.0
C393 C 0.01392 0.78892 0.53374 0.0
C394 C 0.97568 0.78828 0.50332 0.0
C395 C 0.97448 0.82331 0.50242 0.0
C396 C 0.09154 0.82704 0.59627 0.0
C397 C 0.93618 0.75049 0.4713 0.0
H398 H 0.05218 0.68347 0.49351 0.0
H399 H 0.981 0.68473 0.57322 0.0
H400 H 0.03039 0.75334 0.46209 0.0
H401 H 0.08422 0.78011 0.50665 0.0
H402 H 0.07195 0.73273 0.47022 0.0
H403 H 0.96238 0.73651 0.59995 0.0
H404 H 0.99969 0.78285 0.60555 0.0
H405 H 0.94512 0.75586 0.56193 0.0
H406 H 0.07754 0.88696 0.5824 0.0
H407 H 0.94459 0.82241 0.47951 0.0
H408 H 0.10978 0.81243 0.58143 0.0
H409 H 0.08037 0.81148 0.61474 0.0
H410 H 0.11598 0.85736 0.61797 0.0
H411 H 0.94877 0.7321 0.45291 0.0
H412 H 0.90924 0.75488 0.44933 0.0
H413 H 0.92047 0.73425 0.48721 0.0
C414 C 0.34239 0.99547 0.50662 0.0
C415 C 0.37009 0.02716 0.50241 0.0
C416 C 0.29951 0.99182 0.50671 0.0
C417 C 0.28649 0.02324 0.50873 0.0
C418 C 0.31685 0.05711 0.50895 0.0
C419 C 0.35579 0.05708 0.50205 0.0
C420 C 0.26837 0.95347 0.50304 0.0
C421 C 0.30884 0.09365 0.51565 0.0
C422 C 0.16762 0.02351 0.47569 0.0
C423 C 0.15396 0.01624 0.50629 0.0
C424 C 0.20818 0.02185 0.47389 0.0
C425 C 0.24046 0.01998 0.50779 0.0
C426 C 0.22848 0.01592 0.54086 0.0
C427 C 0.18439 0.01142 0.53809 0.0
C428 C 0.21528 0.02205 0.43513 0.0
C429 C 0.26164 0.0171 0.57999 0.0
H430 H 0.35274 0.97193 0.50675 0.0
H431 H 0.37397 0.08029 0.4953 0.0
H432 H 0.27947 0.95204 0.53404 0.0
H433 H 0.23184 0.94867 0.49163 0.0
H434 H 0.27133 0.92916 0.48126 0.0
H435 H 0.34134 0.11925 0.53801 0.0
H436 H 0.29863 0.0972 0.48576 0.0
H437 H 0.28262 0.09414 0.52813 0.0
H438 H 0.14666 0.03037 0.45264 0.0
H439 H 0.17471 1.00629 0.56238 0.0
H440 H 0.24191 0.01195 0.43134 0.0
H441 H 0.22452 0.05171 0.43604 0.0
H442 H 0.18274 1.00303 0.40682 0.0
H443 H 0.2522 0.98735 0.57887 0.0
H444 H 0.2589 0.03482 0.60797 0.0
H445 H 0.29779 0.0293 0.58438 0.0
C446 C 0.5473 0.04913 0.32031 0.0
C447 C 0.50618 0.03099 0.323 0.0
C448 C 0.54766 0.05088 0.28263 0.0
C449 C 0.5059 0.03409 0.24657 0.0
C450 C 0.4642 0.01624 0.24918 0.0
C451 C 0.46484 0.01494 0.2873 0.0
C452 C 0.59285 0.07039 0.28131 0.0
C453 C 0.41894 0.99789 0.21146 0.0
C454 C 0.50201 0.06545 0.1568 0.0
C455 C 0.50566 0.03508 0.12899 0.0
C456 C 0.50216 0.0656 0.19526 0.0
C457 C 0.50593 0.03454 0.20594 0.0
C458 C 0.50979 1.00385 0.17776 0.0
C459 C 0.50965 1.00454 0.13959 0.0
C460 C 0.49811 0.09889 0.22437 0.0
C461 C 0.51383 0.9702 0.18783 0.0
H462 H 0.57937 0.06213 0.34782 0.0
H463 H 0.43294 1.00047 0.28886 0.0
H464 H 0.59846 0.04922 0.2583 0.0
H465 H 0.59233 0.09402 0.27081 0.0
H466 H 0.62222 0.08275 0.31226 0.0
H467 H 0.38946 0.98613 0.21889 0.0
H468 H 0.41425 0.01949 0.19877 0.0
H469 H 0.41861 0.97396 0.1864 0.0
H470 H 0.49884 0.08897 0.14829 0.0
H471 H 0.51235 0.98107 0.1178 0.0
H472 H 0.52816 0.11317 0.25506 0.0
H473 H 0.46721 0.0879 0.23016 0.0
H474 H 0.49582 0.12093 0.21159 0.0
H475 H 0.54446 0.98088 0.21737 0.0
H476 H 0.51657 0.94868 0.1626 0.0
H477 H 0.48353 0.95535 0.1927 0.0
C478 C 0.03708 0.4795 0.20493 0.0
C479 C 0.00728 0.49192 0.18176 0.0
C480 C 0.04017 0.48114 0.24452 0.0
C481 C 0.01099 0.49345 0.26056 0.0
C482 C 0.98005 0.50505 0.23716 0.0
C483 C 0.97957 0.50528 0.19885 0.0
C484 C 0.07501 0.47007 0.26936 0.0
C485 C 0.9472 0.51713 0.25248 0.0
C486 C 0.98877 0.46272 0.34442 0.0
C487 C 0.01306 0.49788 0.37992 0.0
C488 C 0.98729 0.46091 0.30521 0.0
C489 C 0.01297 0.49459 0.30201 0.0
C490 C 0.0393 0.52977 0.33823 0.0
C491 C 0.038 0.53122 0.37652 0.0
C492 C 0.95715 0.4233 0.26706 0.0
C493 C 0.06881 0.56588 0.33659 0.0
H494 H 0.0581 0.46826 0.19232 0.0
H495 H 0.95743 0.51632 0.18264 0.0
H496 H 0.09655 0.49365 0.30112 0.0
H497 H 0.05741 0.44378 0.27333 0.0
H498 H 0.09771 0.46422 0.25403 0.0
H499 H 0.92224 0.52162 0.22868 0.0
H500 H 0.92796 0.49477 0.26086 0.0
H501 H 0.96646 0.54451 0.28111 0.0
H502 H 0.96991 0.43686 0.3472 0.0
H503 H 0.05683 0.55841 0.40402 0.0
H504 H 0.97803 0.41303 0.25206 0.0
H505 H 0.93198 0.42799 0.24371 0.0
H506 H 0.9382 0.40015 0.27474 0.0
H507 H 0.09093 0.55928 0.32091 0.0
H508 H 0.09093 0.58954 0.36825 0.0
H509 H 0.0469 0.5765 0.31794 0.0
C510 C 0.46004 0.97211 0.65022 0.0
C511 C 0.5014 0.99349 0.64994 0.0
C512 C 0.45767 0.97111 0.68763 0.0
C513 C 0.49758 0.99204 0.72574 0.0
C514 C 0.53961 0.01291 0.72548 0.0
C515 C 0.54103 0.01326 0.68768 0.0
C516 C 0.41224 0.94838 0.68654 0.0
C517 C 0.58299 0.03557 0.76533 0.0
C518 C 0.48655 0.02493 0.82917 0.0
C519 C 0.49575 0.99828 0.84471 0.0
C520 C 0.4863 0.02285 0.79018 0.0
C521 C 0.49533 0.99327 0.76618 0.0
C522 C 0.50392 0.96588 0.78165 0.0
C523 C 0.50411 0.96878 0.82084 0.0
C524 C 0.4772 0.05272 0.77503 0.0
C525 C 0.51353 0.93388 0.75706 0.0
H526 H 0.42914 0.95705 0.62139 0.0
H527 H 0.57334 0.02929 0.68773 0.0
H528 H 0.41556 0.9276 0.70094 0.0
H529 H 0.40144 0.96838 0.70522 0.0
H530 H 0.38492 0.93207 0.65418 0.0
H531 H 0.61314 0.04948 0.75968 0.0
H532 H 0.57868 0.05848 0.78757 0.0
H533 H 0.59014 0.01622 0.78066 0.0
H534 H 0.48009 0.04769 0.84786 0.0
H535 H 0.51112 0.94819 0.83308 0.0
H536 H 0.44794 0.0382 0.7438 0.0
H537 H 0.50751 0.06966 0.7715 0.0
H538 H 0.46945 0.07311 0.79683 0.0
H539 H 0.48522 0.91672 0.72533 0.0
H540 H 0.51771 0.91402 0.77265 0.0
H541 H 0.54525 0.94653 0.75303 0.0
C542 C 1.00065 0.54845 0.68396 0.0
C543 C 0.01373 0.52395 0.6589 0.0
C544 C 0.99909 0.54558 0.72083 0.0
C545 C 0.01127 0.51771 0.7329 0.0
C546 C 0.02533 0.49338 0.7079 0.0
C547 C 0.02635 0.4968 0.67108 0.0
C548 C 0.9839 0.57202 0.7466 0.0
C549 C 0.0388 0.46348 0.7198 0.0
C550 C 0.04413 0.53273 0.84673 0.0
C551 C 1.00363 0.50734 0.84487 0.0
C552 C 0.04723 0.53616 0.8105 0.0
C553 C 0.00883 0.51379 0.77147 0.0
C554 C 0.96792 0.48797 0.76934 0.0
C555 C 0.96586 0.48497 0.80605 0.0
C556 C 0.09156 0.56378 0.81399 0.0
C557 C 0.92618 0.46378 0.72832 0.0
H558 H 0.99111 0.56951 0.67432 0.0
H559 H 0.03652 0.47798 0.65146 0.0
H560 H 0.95292 0.55451 0.74886 0.0
H561 H 0.01103 0.58916 0.77891 0.0
H562 H 0.97599 0.59233 0.73307 0.0
H563 H 0.0499 0.44746 0.69747 0.0
H564 H 0.06712 0.47766 0.75157 0.0
H565 H 0.00944 0.44232 0.72083 0.0
H566 H 0.07365 0.54967 0.87655 0.0
H567 H 0.93434 0.46559 0.8045 0.0
H568 H 0.08559 0.58602 0.80301 0.0
H569 H 0.10452 0.54785 0.79357 0.0
H570 H 0.11844 0.57869 0.84657 0.0
H571 H 0.91494 0.48295 0.71482 0.0
H572 H 0.89714 0.44485 0.73192 0.0
H573 H 0.9347 0.44531 0.70551 0.0
C574 C 0.14452 0.48094 0.96739 0.0
C575 C 0.14324 0.4904 0.00667 0.0
C576 C 0.18365 0.47845 0.9625 0.0
C577 C 0.2221 0.48547 0.9978 0.0
C578 C 0.22041 0.4943 0.03743 0.0
C579 C 0.1808 0.49643 0.04132 0.0
C580 C 0.18408 0.46884 0.91975 0.0
C581 C 0.26067 0.50205 0.07581 0.0
C582 C 0.31405 0.45217 0.98315 0.0
C583 C 0.34764 0.48669 0.98939 0.0
C584 C 0.27258 0.45111 0.98525 0.0
C585 C 0.26493 0.48544 0.99382 0.0
C586 C 0.29881 0.52024 0.99963 0.0
C587 C 0.3397 0.52038 0.99718 0.0
C588 C 0.23715 0.41346 0.97867 0.0
C589 C 0.29212 0.55745 0.00893 0.0
H590 H 0.11497 0.47575 0.94061 0.0
H591 H 0.17913 0.50299 0.07149 0.0
H592 H 0.21125 0.4934 0.92041 0.0
H593 H 0.19221 0.44323 0.91088 0.0
H594 H 0.15078 0.46269 0.89526 0.0
H595 H 0.25336 0.50751 0.10405 0.0
H596 H 0.27018 0.47701 0.07046 0.0
H597 H 0.2908 0.52765 0.08205 0.0
H598 H 0.3204 0.42618 0.97687 0.0
H599 H 0.36581 0.54695 0.00167 0.0
H600 H 0.20415 0.40577 0.95282 0.0
H601 H 0.2309 0.41676 0.00728 0.0
H602 H 0.24781 0.38916 0.97114 0.0
H603 H 0.26068 0.55331 0.98363 0.0
H604 H 0.32159 0.58185 0.01203 0.0
H605 H 0.28745 0.56559 0.03844 0.0
C606 C 0.46067 0.32391 0.95541 0.0
C607 C 0.49553 0.35952 0.98653 0.0
C608 C 0.46083 0.28842 0.95572 0.0
C609 C 0.49617 0.28827 0.98841 0.0
C610 C 0.53119 0.32396 0.02016 0.0
C611 C 0.53074 0.35902 0.01859 0.0
C612 C 0.42316 0.25102 0.92094 0.0
C613 C 0.56925 0.32516 0.05585 0.0
C614 C 0.47352 0.19686 0.0095 0.0
C615 C 0.49794 0.17988 0.99117 0.0
C616 C 0.47297 0.23225 0.00916 0.0
C617 C 0.49667 0.25077 0.98929 0.0
C618 C 0.52097 0.23349 0.97033 0.0
C619 C 0.52166 0.19848 0.97184 0.0
C620 C 0.44739 0.25002 0.03044 0.0
C621 C 0.54598 0.25183 0.94815 0.0
H622 H 0.43279 0.32363 0.93085 0.0
H623 H 0.55844 0.38608 0.04241 0.0
H624 H 0.43816 0.23323 0.90516 0.0
H625 H 0.40372 0.23387 0.93404 0.0
H626 H 0.39887 0.25603 0.89716 0.0
H627 H 0.59299 0.35524 0.0789 0.0
H628 H 0.55463 0.3089 0.07231 0.0
H629 H 0.58923 0.31084 0.04356 0.0
H630 H 0.45547 0.18275 0.02478 0.0
H631 H 0.54017 0.18525 0.95724 0.0
H632 H 0.4203 0.25336 0.0075 0.0
H633 H 0.47115 0.27941 0.05508 0.0
H634 H 0.43124 0.23227 0.04499 0.0
H635 H 0.52175 0.25532 0.92283 0.0
H636 H 0.56251 0.23436 0.9343 0.0
H637 H 0.5727 0.28118 0.97033 0.0
C638 C 0.83968 0.50828 0.01133 0.0
C639 C 0.84886 0.50256 0.97575 0.0
C640 C 0.79842 0.51023 0.01042 0.0
C641 C 0.76539 0.50599 0.97285 0.0
C642 C 0.77429 0.49958 0.93657 0.0
C643 C 0.81613 0.49796 0.93848 0.0
C644 C 0.7904 0.51722 0.0498 0.0
C645 C 0.73979 0.49471 0.89593 0.0
C646 C 0.64391 0.47983 0.96511 0.0
C647 C 0.64237 0.51618 0.97658 0.0
C648 C 0.68343 0.47587 0.96279 0.0
C649 C 0.72205 0.50913 0.97209 0.0
C650 C 0.72004 0.54581 0.98276 0.0
C651 C 0.68003 0.54884 0.98463 0.0
C652 C 0.68417 0.43627 0.95112 0.0
C653 C 0.76044 0.58195 0.99297 0.0
H654 H 0.86512 0.51149 0.04 0.0
H655 H 0.82341 0.49326 0.91101 0.0
H656 H 0.78531 0.54438 0.05918 0.0
H657 H 0.75879 0.49326 0.04396 0.0
H658 H 0.81942 0.51952 0.07628 0.0
H659 H 0.75145 0.48899 0.87035 0.0
H660 H 0.70667 0.47038 0.88619 0.0
H661 H 0.73334 0.52127 0.90028 0.0
H662 H 0.6143 0.45461 0.95835 0.0
H663 H 0.67819 0.5768 0.99274 0.0
H664 H 0.71065 0.43604 0.97765 0.0
H665 H 0.69349 0.42936 0.92415 0.0
H666 H 0.65062 0.41313 0.94288 0.0
H667 H 0.79005 0.58717 0.02088 0.0
H668 H 0.75278 0.60801 0.99935 0.0
H669 H 0.77099 0.57813 0.96666 0.0
C670 C 0.52704 0.69592 0.96104 0.0
C671 C 0.50607 0.67874 0.98299 0.0
C672 C 0.52791 0.73168 0.96079 0.0
C673 C 0.50672 0.7506 0.98249 0.0
C674 C 0.48562 0.73355 0.00478 0.0
C675 C 0.48595 0.69816 0.0051 0.0
C676 C 0.55129 0.74913 0.93709 0.0
C677 C 0.46235 0.75258 0.02809 0.0
C678 C 0.53994 0.85885 0.01326 0.0
C679 C 0.50447 0.85943 0.98155 0.0
C680 C 0.5415 0.82375 0.01355 0.0
C681 C 0.50636 0.78814 0.98178 0.0
C682 C 0.47037 0.7884 0.94979 0.0
C683 C 0.47004 0.82394 0.94987 0.0
C684 C 0.58069 0.82479 0.04806 0.0
C685 C 0.43196 0.75108 0.91557 0.0
H686 H 0.54218 0.68113 0.94337 0.0
H687 H 0.47052 0.6858 0.02298 0.0
H688 H 0.52609 0.75181 0.91175 0.0
H689 H 0.57798 0.77877 0.95834 0.0
H690 H 0.56753 0.73149 0.92301 0.0
H691 H 0.44687 0.73529 0.04336 0.0
H692 H 0.48736 0.78173 0.05245 0.0
H693 H 0.43502 0.75664 0.00622 0.0
H694 H 0.56631 0.88589 0.03838 0.0
H695 H 0.44287 0.82383 0.92479 0.0
H696 H 0.59816 0.80827 0.03445 0.0
H697 H 0.56745 0.81067 0.06671 0.0
H698 H 0.60633 0.85483 0.06946 0.0
H699 H 0.44597 0.73353 0.89808 0.0
H700 H 0.40632 0.75619 0.89311 0.0
H701 H 0.41428 0.73362 0.9295 0.0
loop_
_geom_bond_atom_site_label_1
_geom_bond_atom_site_label_2
_geom_bond_distance
_geom_bond_site_symmetry_2
_ccdc_geom_bond_type
C0 C1 1.443 . S
C0 N4 1.376 . S
C0 C38 1.389 1_565 S
C1 C0 1.443 . S
C1 C2 1.340 . S
C1 H41 0.951 . S
C2 C1 1.340 . S
C2 C3 1.439 . S
C2 H42 0.950 . S
C3 C2 1.439 . S
C3 N4 1.374 . S
C3 C37 1.395 . S
N4 C0 1.376 . S
N4 C3 1.374 . S
N4 Co5 1.993 1_665 S
Co5 N4 1.993 1_445 S
Co5 N6 2.010 1_545 S
Co5 N11 2.024 . S
Co5 N16 1.979 1_455 S
Co5 N21 2.287 1_445 S
Co5 N27 2.278 . S
N6 Co5 2.010 1_565 S
N6 C7 1.377 . S
N6 C10 1.383 . S
C7 N6 1.377 . S
C7 C8 1.454 . S
C7 C37 1.383 1_455 S
C8 C7 1.454 . S
C8 C9 1.339 . S
C8 H43 0.949 . S
C9 C8 1.339 . S
C9 C10 1.439 . S
C9 H44 0.950 . S
C10 N6 1.383 . S
C10 C9 1.439 . S
C10 C39 1.392 1_565 S
N11 Co5 2.024 . S
N11 C12 1.376 . S
N11 C15 1.374 . S
C12 N11 1.376 . S
C12 C13 1.443 . S
C12 C39 1.389 . S
C13 C12 1.443 . S
C13 C14 1.340 . S
C13 H45 0.951 . S
C14 C13 1.340 . S
C14 C15 1.439 . S
C14 H46 0.950 . S
C15 N11 1.374 . S
C15 C14 1.439 . S
C15 C40 1.395 . S
N16 Co5 1.979 1_655 S
N16 C17 1.376 1_655 S
N16 C20 1.383 . S
C17 N16 1.376 1_455 S
C17 C18 1.446 1_455 S
C17 C40 1.391 . S
C18 C17 1.446 1_655 S
C18 C19 1.339 . S
C18 H47 0.949 . S
C19 C18 1.339 . S
C19 C20 1.439 . S
C19 H48 0.950 . S
C20 N16 1.383 . S
C20 C19 1.439 . S
C20 C38 1.392 . S
N21 Co5 2.287 1_665 S
N21 C24 1.332 1_655 S
N21 C26 1.332 . S
C22 C23 1.390 1_655 S
C22 C25 1.388 . S
C23 C22 1.390 1_455 S
C23 C24 1.384 . S
C23 H49 0.950 . S
C24 N21 1.332 1_455 S
C24 C23 1.384 . S
C24 H35 0.949 . S
C25 C22 1.388 . S
C25 C26 1.382 . S
C25 H50 0.950 . S
C26 N21 1.332 . S
C26 C25 1.382 . S
C26 H36 0.948 . S
N27 Co5 2.278 . S
N27 C31 1.332 . S
N27 C32 1.332 . S
C28 C29 1.388 . S
C28 C32 1.382 . S
C28 H51 0.950 . S
C29 C28 1.388 . S
C29 C30 1.386 1_455 S
C30 C29 1.386 1_655 S
C30 C31 1.382 1_655 S
C30 H52 0.950 . S
C31 N27 1.332 . S
C31 C30 1.382 1_455 S
C31 H33 0.952 1_455 S
C32 N27 1.332 . S
C32 C28 1.382 . S
C32 H34 0.948 . S
H33 C31 0.952 1_655 S
H34 C32 0.948 . S
H35 C24 0.949 . S
H36 C26 0.948 . S
C37 C3 1.395 . S
C37 C7 1.383 1_655 S
C38 C0 1.389 1_545 S
C38 C20 1.392 . S
C39 C10 1.392 1_545 S
C39 C12 1.389 . S
C40 C15 1.395 . S
C40 C17 1.391 . S
H41 C1 0.951 . S
H42 C2 0.950 . S
H43 C8 0.949 . S
H44 C9 0.950 . S
H45 C13 0.951 . S
H46 C14 0.950 . S
H47 C18 0.949 . S
H48 C19 0.950 . S
H49 C23 0.950 . S
H50 C25 0.950 . S
H51 C28 0.950 . S
H52 C30 0.950 . S
C53 C54 1.443 . S
C53 N57 1.376 . S
C53 C91 1.389 . S
C54 C53 1.443 . S
C54 C55 1.340 . S
C54 H94 0.951 . S
C55 C54 1.340 . S
C55 C56 1.439 . S
C55 H95 0.950 . S
C56 C55 1.439 . S
C56 N57 1.374 . S
C56 C90 1.395 . S
N57 C53 1.376 . S
N57 C56 1.374 . S
N57 Co58 2.028 . S
Co58 N57 2.028 . S
Co58 N59 1.975 1_554 S
Co58 N64 1.988 1_544 S
Co58 N69 2.015 1_545 S
Co58 N74 2.277 . S
Co58 N80 2.288 1_544 S
N59 Co58 1.975 1_556 S
N59 C60 1.376 1_556 S
N59 C63 1.383 . S
C60 N59 1.376 1_554 S
C60 C61 1.446 1_554 S
C60 C90 1.391 . S
C61 C60 1.446 1_556 S
C61 C62 1.339 . S
C61 H96 0.949 . S
C62 C61 1.339 . S
C62 C63 1.439 . S
C62 H97 0.950 . S
C63 N59 1.383 . S
C63 C62 1.439 . S
C63 C92 1.392 . S
N64 Co58 1.988 1_566 S
N64 C65 1.376 . S
N64 C68 1.374 . S
C65 N64 1.376 . S
C65 C66 1.443 . S
C65 C92 1.389 1_565 S
C66 C65 1.443 . S
C66 C67 1.340 . S
C66 H98 0.951 . S
C67 C66 1.340 . S
C67 C68 1.439 . S
C67 H99 0.950 . S
C68 N64 1.374 . S
C68 C67 1.439 . S
C68 C93 1.395 . S
N69 Co58 2.015 1_565 S
N69 C70 1.378 . S
N69 C73 1.383 . S
C70 N69 1.378 . S
C70 C71 1.460 . S
C70 C93 1.377 1_554 S
C71 C70 1.460 . S
C71 C72 1.339 . S
C71 H100 0.949 . S
C72 C71 1.339 . S
C72 C73 1.439 . S
C72 H101 0.950 . S
C73 N69 1.383 . S
C73 C72 1.439 . S
C73 C91 1.392 1_565 S
N74 Co58 2.277 . S
N74 C77 1.332 . S
N74 C79 1.332 . S
C75 C76 1.386 1_554 S
C75 C78 1.388 . S
C76 C75 1.386 1_556 S
C76 C77 1.382 1_556 S
C76 H102 0.950 . S
C77 N74 1.332 . S
C77 C76 1.382 1_554 S
C77 H88 0.952 1_554 S
C78 C75 1.388 . S
C78 C79 1.382 . S
C78 H103 0.950 . S
C79 N74 1.332 . S
C79 C78 1.382 . S
C79 H89 0.948 . S
N80 Co58 2.288 1_566 S
N80 C84 1.332 1_556 S
N80 C85 1.332 . S
C81 C82 1.388 . S
C81 C85 1.382 . S
C81 H104 0.950 . S
C82 C81 1.388 . S
C82 C83 1.387 1_556 S
C83 C82 1.387 1_554 S
C83 C84 1.386 . S
C83 H105 0.950 . S
C84 N80 1.332 1_554 S
C84 C83 1.386 . S
C84 H86 0.947 . S
C85 N80 1.332 . S
C85 C81 1.382 . S
C85 H87 0.948 . S
H86 C84 0.947 . S
H87 C85 0.948 . S
H88 C77 0.952 1_556 S
H89 C79 0.948 . S
C90 C56 1.395 . S
C90 C60 1.391 . S
C91 C53 1.389 . S
C91 C73 1.392 1_545 S
C92 C63 1.392 . S
C92 C65 1.389 1_545 S
C93 C68 1.395 . S
C93 C70 1.377 1_556 S
H94 C54 0.951 . S
H95 C55 0.950 . S
H96 C61 0.949 . S
H97 C62 0.950 . S
H98 C66 0.951 . S
H99 C67 0.950 . S
H100 C71 0.949 . S
H101 C72 0.950 . S
H102 C76 0.950 . S
H103 C78 0.950 . S
H104 C81 0.950 . S
H105 C83 0.950 . S
C106 C107 1.443 . S
C106 N110 1.376 . S
C106 C144 1.389 . S
C107 C106 1.443 . S
C107 C108 1.340 . S
C107 H147 0.951 . S
C108 C107 1.340 . S
C108 C109 1.439 . S
C108 H148 0.950 . S
C109 C108 1.439 . S
C109 N110 1.374 . S
C109 C143 1.395 . S
N110 C106 1.376 . S
N110 C109 1.374 . S
N110 Co111 2.017 . S
Co111 N110 2.017 . S
Co111 N112 1.982 1_455 S
Co111 N117 1.999 1_454 S
Co111 N122 2.007 1_554 S
Co111 N127 2.308 . S
Co111 N133 2.257 1_454 S
N112 Co111 1.982 1_655 S
N112 C113 1.376 1_655 S
N112 C116 1.383 . S
C113 N112 1.376 1_455 S
C113 C114 1.446 1_455 S
C113 C143 1.391 . S
C114 C113 1.446 1_655 S
C114 C115 1.339 . S
C114 H149 0.949 . S
C115 C114 1.339 . S
C115 C116 1.439 . S
C115 H150 0.950 . S
C116 N112 1.383 . S
C116 C115 1.439 . S
C116 C145 1.396 1_554 S
N117 Co111 1.999 1_656 S
N117 C118 1.376 . S
N117 C121 1.374 . S
C118 N117 1.376 . S
C118 C119 1.443 . S
C118 C145 1.390 . S
C119 C118 1.443 . S
C119 C120 1.340 . S
C119 H151 0.951 . S
C120 C119 1.340 . S
C120 C121 1.439 . S
C120 H152 0.950 . S
C121 N117 1.374 . S
C121 C120 1.439 . S
C121 C146 1.395 . S
N122 Co111 2.007 1_556 S
N122 C123 1.377 . S
N122 C126 1.383 . S
C123 N122 1.377 . S
C123 C124 1.454 . S
C123 C146 1.384 1_455 S
C124 C123 1.454 . S
C124 C125 1.339 . S
C124 H153 0.949 . S
C125 C124 1.339 . S
C125 C126 1.439 . S
C125 H154 0.950 . S
C126 N122 1.383 . S
C126 C125 1.439 . S
C126 C144 1.392 1_556 S
N127 Co111 2.308 . S
N127 C130 1.332 . S
N127 C132 1.332 . S
C128 C129 1.386 1_455 S
C128 C131 1.388 . S
C129 C128 1.386 1_655 S
C129 C130 1.382 1_655 S
C129 H155 0.950 . S
C130 N127 1.332 . S
C130 C129 1.382 1_455 S
C130 H141 0.952 1_455 S
C131 C128 1.388 . S
C131 C132 1.382 . S
C131 H156 0.950 . S
C132 N127 1.332 . S
C132 C131 1.382 . S
C132 H142 0.948 . S
N133 Co111 2.257 1_656 S
N133 C137 1.332 1_655 S
N133 C138 1.332 . S
C134 C135 1.388 . S
C134 C138 1.382 . S
C134 H157 0.950 . S
C135 C134 1.388 . S
C135 C136 1.390 1_655 S
C136 C135 1.390 1_455 S
C136 C137 1.383 . S
C136 H158 0.950 . S
C137 N133 1.332 1_455 S
C137 C136 1.383 . S
C137 H139 0.949 . S
C138 N133 1.332 . S
C138 C134 1.382 . S
C138 H140 0.948 . S
H139 C137 0.949 . S
H140 C138 0.948 . S
H141 C130 0.952 1_655 S
H142 C132 0.948 . S
C143 C109 1.395 . S
C143 C113 1.391 . S
C144 C106 1.389 . S
C144 C126 1.392 1_554 S
C145 C116 1.396 1_556 S
C145 C118 1.390 . S
C146 C121 1.395 . S
C146 C123 1.384 1_655 S
H147 C107 0.951 . S
H148 C108 0.950 . S
H149 C114 0.949 . S
H150 C115 0.950 . S
H151 C119 0.951 . S
H152 C120 0.950 . S
H153 C124 0.949 . S
H154 C125 0.950 . S
H155 C129 0.950 . S
H156 C131 0.950 . S
H157 C134 0.950 . S
H158 C136 0.950 . S
C159 C160 1.443 . S
C159 N163 1.376 . S
C159 C197 1.383 1_556 S
C160 C159 1.443 . S
C160 C161 1.340 . S
C160 H200 0.951 . S
C161 C160 1.340 . S
C161 C162 1.439 . S
C161 H201 0.950 . S
C162 C161 1.439 . S
C162 N163 1.374 . S
C162 C196 1.395 . S
N163 C159 1.376 . S
N163 C162 1.374 . S
N163 Co164 1.984 1_556 S
Co164 N163 1.984 1_554 S
Co164 N165 1.984 1_554 S
Co164 N170 2.032 . S
Co164 N175 2.005 . S
Co164 N180 2.272 1_554 S
Co164 N186 2.293 . S
N165 Co164 1.984 1_556 S
N165 C166 1.376 . S
N165 C169 1.383 . S
C166 N165 1.376 . S
C166 C167 1.446 . S
C166 C196 1.391 . S
C167 C166 1.446 . S
C167 C168 1.339 . S
C167 H202 0.949 . S
C168 C167 1.339 . S
C168 C169 1.439 . S
C168 H203 0.950 . S
C169 N165 1.383 . S
C169 C168 1.439 . S
C169 C198 1.392 1_556 S
N170 Co164 2.032 . S
N170 C171 1.376 . S
N170 C174 1.374 . S
C171 N170 1.376 . S
C171 C172 1.443 . S
C171 C198 1.389 . S
C172 C171 1.443 . S
C172 C173 1.340 . S
C172 H204 0.951 . S
C173 C172 1.340 . S
C173 C174 1.439 . S
C173 H205 0.950 . S
C174 N170 1.374 . S
C174 C173 1.439 . S
C174 C199 1.395 . S
N175 Co164 2.005 . S
N175 C176 1.376 . S
N175 C179 1.383 . S
C176 N175 1.376 . S
C176 C177 1.446 . S
C176 C199 1.391 . S
C177 C176 1.446 . S
C177 C178 1.339 . S
C177 H206 0.949 . S
C178 C177 1.339 . S
C178 C179 1.439 . S
C178 H207 0.950 . S
C179 N175 1.383 . S
C179 C178 1.439 . S
C179 C197 1.400 . S
N180 Co164 2.272 1_556 S
N180 C183 1.332 1_556 S
N180 C185 1.332 . S
C181 C182 1.396 . S
C181 C184 1.382 1_554 S
C182 C181 1.396 . S
C182 C183 1.382 . S
C182 H208 0.950 . S
C183 N180 1.332 1_554 S
C183 C182 1.382 . S
C183 H194 0.952 . S
C184 C181 1.382 1_556 S
C184 C185 1.382 . S
C184 H209 0.950 . S
C185 N180 1.332 . S
C185 C184 1.382 . S
C185 H195 0.948 . S
N186 Co164 2.293 . S
N186 C190 1.332 1_554 S
N186 C191 1.332 . S
C187 C188 1.388 . S
C187 C191 1.382 . S
C187 H210 0.950 . S
C188 C187 1.388 . S
C188 C189 1.386 1_554 S
C189 C188 1.386 1_556 S
C189 C190 1.382 . S
C189 H211 0.950 . S
C190 N186 1.332 1_556 S
C190 C189 1.382 . S
C190 H192 0.952 . S
C191 N186 1.332 . S
C191 C187 1.382 . S
C191 H193 0.948 . S
H192 C190 0.952 . S
H193 C191 0.948 . S
H194 C183 0.952 . S
H195 C185 0.948 . S
C196 C162 1.395 . S
C196 C166 1.391 . S
C197 C159 1.383 1_554 S
C197 C179 1.400 . S
C198 C169 1.392 1_554 S
C198 C171 1.389 . S
C199 C174 1.395 . S
C199 C176 1.391 . S
H200 C160 0.951 . S
H201 C161 0.950 . S
H202 C167 0.949 . S
H203 C168 0.950 . S
H204 C172 0.951 . S
H205 C173 0.950 . S
H206 C177 0.949 . S
H207 C178 0.950 . S
H208 C182 0.950 . S
H209 C184 0.950 . S
H210 C187 0.950 . S
H211 C189 0.950 . S
C212 C213 1.443 . S
C212 N216 1.376 . S
C212 C250 1.389 . S
C213 C212 1.443 . S
C213 C214 1.340 . S
C213 H253 0.951 . S
C214 C213 1.340 . S
C214 C215 1.439 . S
C214 H254 0.950 . S
C215 C214 1.439 . S
C215 N216 1.374 . S
C215 C249 1.395 . S
N216 C212 1.376 . S
N216 C215 1.374 . S
N216 Co217 2.017 . S
Co217 N216 2.017 . S
Co217 N218 2.014 . S
Co217 N223 1.999 1_455 S
Co217 N228 1.976 1_455 S
Co217 N233 2.276 . S
Co217 N239 2.289 1_455 S
N218 Co217 2.014 . S
N218 C219 1.376 . S
N218 C222 1.383 . S
C219 N218 1.376 . S
C219 C220 1.446 . S
C219 C249 1.391 . S
C220 C219 1.446 . S
C220 C221 1.339 . S
C220 H255 0.949 . S
C221 C220 1.339 . S
C221 C222 1.439 . S
C221 H256 0.950 . S
C222 N218 1.383 . S
C222 C221 1.439 . S
C222 C251 1.394 . S
N223 Co217 1.999 1_655 S
N223 C224 1.376 . S
N223 C227 1.374 . S
C224 N223 1.376 . S
C224 C225 1.443 . S
C224 C251 1.386 1_655 S
C225 C224 1.443 . S
C225 C226 1.340 . S
C225 H257 0.951 . S
C226 C225 1.340 . S
C226 C227 1.439 . S
C226 H258 0.950 . S
C227 N223 1.374 . S
C227 C226 1.439 . S
C227 C252 1.395 . S
N228 Co217 1.976 1_655 S
N228 C229 1.376 . S
N228 C232 1.383 . S
C229 N228 1.376 . S
C229 C230 1.446 . S
C229 C252 1.391 . S
C230 C229 1.446 . S
C230 C231 1.339 . S
C230 H259 0.949 . S
C231 C230 1.339 . S
C231 C232 1.439 . S
C231 H260 0.950 . S
C232 N228 1.383 . S
C232 C231 1.439 . S
C232 C250 1.392 1_655 S
N233 Co217 2.276 . S
N233 C236 1.332 1_455 S
N233 C238 1.332 . S
C234 C235 1.386 1_455 S
C234 C237 1.388 . S
C235 C234 1.386 1_655 S
C235 C236 1.382 . S
C235 H261 0.950 . S
C236 N233 1.332 1_655 S
C236 C235 1.382 . S
C236 H247 0.952 . S
C237 C234 1.388 . S
C237 C238 1.382 . S
C237 H262 0.950 . S
C238 N233 1.332 . S
C238 C237 1.382 . S
C238 H248 0.948 . S
N239 Co217 2.289 1_655 S
N239 C243 1.332 1_655 S
N239 C244 1.332 . S
C240 C241 1.382 1_655 S
C240 C244 1.382 . S
C240 H263 0.950 . S
C241 C240 1.382 1_455 S
C241 C242 1.390 . S
C242 C241 1.390 . S
C242 C243 1.382 . S
C242 H264 0.950 . S
C243 N239 1.332 1_455 S
C243 C242 1.382 . S
C243 H245 0.952 . S
C244 N239 1.332 . S
C244 C240 1.382 . S
C244 H246 0.948 . S
H245 C243 0.952 . S
H246 C244 0.948 . S
H247 C236 0.952 . S
H248 C238 0.948 . S
C249 C215 1.395 . S
C249 C219 1.391 . S
C250 C212 1.389 . S
C250 C232 1.392 1_455 S
C251 C222 1.394 . S
C251 C224 1.386 1_455 S
C252 C227 1.395 . S
C252 C229 1.391 . S
H253 C213 0.951 . S
H254 C214 0.950 . S
H255 C220 0.949 . S
H256 C221 0.950 . S
H257 C225 0.951 . S
H258 C226 0.950 . S
H259 C230 0.949 . S
H260 C231 0.950 . S
H261 C235 0.950 . S
H262 C237 0.950 . S
H263 C240 0.950 . S
H264 C242 0.950 . S
C265 C266 1.443 . S
C265 N269 1.376 . S
C265 C303 1.389 . S
C266 C265 1.443 . S
C266 C267 1.340 . S
C266 H306 0.951 . S
C267 C266 1.340 . S
C267 C268 1.439 . S
C267 H307 0.950 . S
C268 C267 1.439 . S
C268 N269 1.374 . S
C268 C302 1.395 . S
N269 C265 1.376 . S
N269 C268 1.374 . S
N269 Co270 2.008 . S
Co270 N269 2.008 . S
Co270 N271 1.995 . S
Co270 N276 2.008 1_545 S
Co270 N281 1.995 1_545 S
Co270 N286 2.282 . S
Co270 N292 2.282 1_545 S
N271 Co270 1.995 . S
N271 C272 1.376 . S
N271 C275 1.383 . S
C272 N271 1.376 . S
C272 C273 1.446 . S
C272 C302 1.391 . S
C273 C272 1.446 . S
C273 C274 1.339 . S
C273 H308 0.949 . S
C274 C273 1.339 . S
C274 C275 1.439 . S
C274 H309 0.950 . S
C275 N271 1.383 . S
C275 C274 1.439 . S
C275 C304 1.414 . S
N276 Co270 2.008 1_565 S
N276 C277 1.376 . S
N276 C280 1.374 . S
C277 N276 1.376 . S
C277 C278 1.443 . S
C277 C304 1.358 1_565 S
C278 C277 1.443 . S
C278 C279 1.340 . S
C278 H310 0.951 . S
C279 C278 1.340 . S
C279 C280 1.439 . S
C279 H311 0.950 . S
C280 N276 1.374 . S
C280 C279 1.439 . S
C280 C305 1.395 . S
N281 Co270 1.995 1_565 S
N281 C282 1.376 . S
N281 C285 1.383 . S
C282 N281 1.376 . S
C282 C283 1.446 . S
C282 C305 1.391 . S
C283 C282 1.446 . S
C283 C284 1.339 . S
C283 H312 0.949 . S
C284 C283 1.339 . S
C284 C285 1.439 . S
C284 H313 0.950 . S
C285 N281 1.383 . S
C285 C284 1.439 . S
C285 C303 1.392 1_565 S
N286 Co270 2.282 . S
N286 C289 1.332 1_545 S
N286 C291 1.332 . S
C287 C288 1.386 1_545 S
C287 C290 1.388 . S
C288 C287 1.386 1_565 S
C288 C289 1.382 . S
C288 H314 0.950 . S
C289 N286 1.332 1_565 S
C289 C288 1.382 . S
C289 H300 0.952 . S
C290 C287 1.388 . S
C290 C291 1.382 . S
C290 H315 0.950 . S
C291 N286 1.332 . S
C291 C290 1.382 . S
C291 H301 0.948 . S
N292 Co270 2.282 1_565 S
N292 C296 1.332 1_565 S
N292 C297 1.332 . S
C293 C294 1.388 1_565 S
C293 C297 1.382 . S
C293 H316 0.950 . S
C294 C293 1.388 1_545 S
C294 C295 1.386 . S
C295 C294 1.386 . S
C295 C296 1.382 . S
C295 H317 0.950 . S
C296 N292 1.332 1_545 S
C296 C295 1.382 . S
C296 H298 0.952 . S
C297 N292 1.332 . S
C297 C293 1.382 . S
C297 H299 0.948 . S
H298 C296 0.952 . S
H299 C297 0.948 . S
H300 C289 0.952 . S
H301 C291 0.948 . S
C302 C268 1.395 . S
C302 C272 1.391 . S
C303 C265 1.389 . S
C303 C285 1.392 1_545 S
C304 C275 1.414 . S
C304 C277 1.358 1_545 S
C305 C280 1.395 . S
C305 C282 1.391 . S
H306 C266 0.951 . S
H307 C267 0.950 . S
H308 C273 0.949 . S
H309 C274 0.950 . S
H310 C278 0.951 . S
H311 C279 0.950 . S
H312 C283 0.949 . S
H313 C284 0.950 . S
H314 C288 0.950 . S
H315 C290 0.950 . S
H316 C293 0.950 . S
H317 C295 0.950 . S
C318 C319 1.391 . S
C318 C320 1.394 . S
C318 H334 0.931 . S
C319 C318 1.391 . S
C319 C323 1.376 . S
C320 C318 1.394 . S
C320 C321 1.369 . S
C320 C324 1.531 . S
C321 C320 1.369 . S
C321 C322 1.410 . S
C321 C329 1.503 . S
C322 C321 1.410 . S
C322 C323 1.392 . S
C322 C325 1.511 . S
C323 C319 1.376 . S
C323 C322 1.392 . S
C323 H335 0.929 . S
C324 C320 1.531 . S
C324 H336 0.960 . S
C324 H337 0.962 1_455 S
C324 H338 0.960 . S
C325 C322 1.511 . S
C325 H339 0.961 1_455 S
C325 H340 0.961 1_455 S
C325 H341 0.961 . S
C326 C327 1.370 1_655 S
C326 C328 1.363 . S
C326 H342 0.931 . S
C327 C326 1.370 1_455 S
C327 C331 1.408 . S
C328 C326 1.363 . S
C328 C329 1.370 1_655 S
C328 C332 1.524 . S
C329 C321 1.503 . S
C329 C328 1.370 1_455 S
C329 C330 1.403 . S
C330 C329 1.403 . S
C330 C331 1.404 . S
C330 C333 1.539 . S
C331 C327 1.408 . S
C331 C330 1.404 . S
C331 H343 0.930 . S
C332 C328 1.524 . S
C332 H344 0.956 . S
C332 H345 0.961 . S
C332 H346 0.961 . S
C333 C330 1.539 . S
C333 H347 0.958 . S
C333 H348 0.961 . S
C333 H349 0.960 . S
H334 C318 0.931 . S
H335 C323 0.929 . S
H336 C324 0.960 . S
H337 C324 0.962 1_655 S
H338 C324 0.960 . S
H339 C325 0.961 1_655 S
H340 C325 0.961 1_655 S
H341 C325 0.961 . S
H342 C326 0.931 . S
H343 C331 0.930 . S
H344 C332 0.956 . S
H345 C332 0.961 . S
H346 C332 0.961 . S
H347 C333 0.958 . S
H348 C333 0.961 . S
H349 C333 0.960 . S
C350 C351 1.391 1_545 S
C350 C352 1.394 . S
C350 H366 0.931 . S
C351 C350 1.391 1_565 S
C351 C355 1.376 . S
C352 C350 1.394 . S
C352 C353 1.369 1_545 S
C352 C356 1.531 . S
C353 C352 1.369 1_565 S
C353 C354 1.410 . S
C353 C361 1.503 . S
C354 C353 1.410 . S
C354 C355 1.392 . S
C354 C357 1.511 . S
C355 C351 1.376 . S
C355 C354 1.392 . S
C355 H367 0.929 . S
C356 C352 1.531 . S
C356 H368 0.960 . S
C356 H369 0.962 . S
C356 H370 0.960 . S
C357 C354 1.511 . S
C357 H371 0.961 . S
C357 H372 0.961 . S
C357 H373 0.961 . S
C358 C359 1.369 . S
C358 C360 1.363 . S
C358 H374 0.931 . S
C359 C358 1.369 . S
C359 C363 1.411 1_545 S
C360 C358 1.363 . S
C360 C361 1.370 1_545 S
C360 C364 1.524 . S
C361 C353 1.503 . S
C361 C360 1.370 1_565 S
C361 C362 1.403 . S
C362 C361 1.403 . S
C362 C363 1.404 . S
C362 C365 1.539 . S
C363 C359 1.411 1_565 S
C363 C362 1.404 . S
C363 H375 0.930 . S
C364 C360 1.524 . S
C364 H376 0.956 . S
C364 H377 0.961 . S
C364 H378 0.961 . S
C365 C362 1.539 . S
C365 H379 0.958 . S
C365 H380 0.961 . S
C365 H381 0.960 . S
H366 C350 0.931 . S
H367 C355 0.929 . S
H368 C356 0.960 . S
H369 C356 0.962 . S
H370 C356 0.960 . S
H371 C357 0.961 . S
H372 C357 0.961 . S
H373 C357 0.961 . S
H374 C358 0.931 . S
H375 C363 0.930 . S
H376 C364 0.956 . S
H377 C364 0.961 . S
H378 C364 0.961 . S
H379 C365 0.958 . S
H380 C365 0.961 . S
H381 C365 0.960 . S
C382 C383 1.390 . S
C382 C384 1.393 . S
C382 H398 0.933 1_655 S
C383 C382 1.390 . S
C383 C387 1.376 . S
C384 C382 1.393 . S
C384 C385 1.369 . S
C384 C388 1.531 1_655 S
C385 C384 1.369 . S
C385 C386 1.410 . S
C385 C393 1.503 . S
C386 C385 1.410 . S
C386 C387 1.392 . S
C386 C389 1.511 . S
C387 C383 1.376 . S
C387 C386 1.392 . S
C387 H399 0.929 . S
C388 C384 1.531 1_455 S
C388 H400 0.960 1_455 S
C388 H401 0.962 . S
C388 H402 0.960 1_455 S
C389 C386 1.511 . S
C389 H403 0.961 . S
C389 H404 0.961 . S
C389 H405 0.961 . S
C390 C391 1.347 1_455 S
C390 C392 1.363 . S
C390 H406 0.931 . S
C391 C390 1.347 1_655 S
C391 C395 1.425 . S
C392 C390 1.363 . S
C392 C393 1.370 1_455 S
C392 C396 1.524 . S
C393 C385 1.503 . S
C393 C392 1.370 1_655 S
C393 C394 1.403 . S
C394 C393 1.403 . S
C394 C395 1.404 . S
C394 C397 1.539 . S
C395 C391 1.425 . S
C395 C394 1.404 . S
C395 H407 0.930 . S
C396 C392 1.524 . S
C396 H408 0.956 . S
C396 H409 0.961 . S
C396 H410 0.961 . S
C397 C394 1.539 . S
C397 H411 0.958 . S
C397 H412 0.961 . S
C397 H413 0.960 . S
H398 C382 0.933 1_455 S
H399 C387 0.929 . S
H400 C388 0.960 1_655 S
H401 C388 0.962 . S
H402 C388 0.960 1_655 S
H403 C389 0.961 . S
H404 C389 0.961 . S
H405 C389 0.961 . S
H406 C390 0.931 . S
H407 C395 0.930 . S
H408 C396 0.956 . S
H409 C396 0.961 . S
H410 C396 0.961 . S
H411 C397 0.958 . S
H412 C397 0.961 . S
H413 C397 0.960 . S
C414 C415 1.391 1_565 S
C414 C416 1.394 . S
C414 H430 0.931 . S
C415 C414 1.391 1_545 S
C415 C419 1.376 . S
C416 C414 1.394 . S
C416 C417 1.369 1_565 S
C416 C420 1.531 . S
C417 C416 1.369 1_545 S
C417 C418 1.410 . S
C417 C425 1.503 . S
C418 C417 1.410 . S
C418 C419 1.392 . S
C418 C421 1.511 . S
C419 C415 1.376 . S
C419 C418 1.392 . S
C419 H431 0.929 . S
C420 C416 1.531 . S
C420 H432 0.960 . S
C420 H433 0.962 . S
C420 H434 0.960 . S
C421 C418 1.511 . S
C421 H435 0.961 . S
C421 H436 0.961 . S
C421 H437 0.961 . S
C422 C423 1.370 1_565 S
C422 C424 1.363 . S
C422 H438 0.931 . S
C423 C422 1.370 1_545 S
C423 C427 1.408 . S
C424 C422 1.363 . S
C424 C425 1.370 1_565 S
C424 C428 1.524 . S
C425 C417 1.503 . S
C425 C424 1.370 1_545 S
C425 C426 1.403 . S
C426 C425 1.403 . S
C426 C427 1.404 . S
C426 C429 1.539 . S
C427 C423 1.408 . S
C427 C426 1.404 . S
C427 H439 0.930 . S
C428 C424 1.524 . S
C428 H440 0.956 . S
C428 H441 0.961 1_565 S
C428 H442 0.961 . S
C429 C426 1.539 . S
C429 H443 0.958 . S
C429 H444 0.961 . S
C429 H445 0.960 . S
H430 C414 0.931 . S
H431 C419 0.929 . S
H432 C420 0.960 . S
H433 C420 0.962 . S
H434 C420 0.960 . S
H435 C421 0.961 . S
H436 C421 0.961 . S
H437 C421 0.961 . S
H438 C422 0.931 . S
H439 C427 0.930 . S
H440 C428 0.956 . S
H441 C428 0.961 1_545 S
H442 C428 0.961 . S
H443 C429 0.958 . S
H444 C429 0.961 . S
H445 C429 0.960 . S
C446 C447 1.391 . S
C446 C448 1.394 . S
C446 H462 0.931 . S
C447 C446 1.391 . S
C447 C451 1.376 1_565 S
C448 C446 1.394 . S
C448 C449 1.369 . S
C448 C452 1.531 . S
C449 C448 1.369 . S
C449 C450 1.410 1_565 S
C449 C457 1.503 . S
C450 C449 1.410 1_545 S
C450 C451 1.392 . S
C450 C453 1.511 . S
C451 C447 1.376 1_545 S
C451 C450 1.392 . S
C451 H463 0.929 . S
C452 C448 1.531 . S
C452 H464 0.960 . S
C452 H465 0.962 . S
C452 H466 0.960 . S
C453 C450 1.511 . S
C453 H467 0.961 . S
C453 H468 0.961 . S
C453 H469 0.961 . S
C454 C455 1.372 . S
C454 C456 1.363 . S
C454 H470 0.931 . S
C455 C454 1.372 . S
C455 C459 1.401 1_545 S
C456 C454 1.363 . S
C456 C457 1.370 1_545 S
C456 C460 1.524 . S
C457 C449 1.503 . S
C457 C456 1.370 1_565 S
C457 C458 1.403 . S
C458 C457 1.403 . S
C458 C459 1.404 . S
C458 C461 1.539 . S
C459 C455 1.401 1_565 S
C459 C458 1.404 . S
C459 H471 0.930 . S
C460 C456 1.524 . S
C460 H472 0.956 . S
C460 H473 0.961 . S
C460 H474 0.961 . S
C461 C458 1.539 . S
C461 H475 0.958 . S
C461 H476 0.961 . S
C461 H477 0.960 . S
H462 C446 0.931 . S
H463 C451 0.929 . S
H464 C452 0.960 . S
H465 C452 0.962 . S
H466 C452 0.960 . S
H467 C453 0.961 . S
H468 C453 0.961 . S
H469 C453 0.961 . S
H470 C454 0.931 . S
H471 C459 0.930 . S
H472 C460 0.956 . S
H473 C460 0.961 . S
H474 C460 0.961 . S
H475 C461 0.958 . S
H476 C461 0.961 . S
H477 C461 0.960 . S
C478 C479 1.391 . S
C478 C480 1.394 . S
C478 H494 0.931 . S
C479 C478 1.391 . S
C479 C483 1.376 1_455 S
C480 C478 1.394 . S
C480 C481 1.369 . S
C480 C484 1.531 . S
C481 C480 1.369 . S
C481 C482 1.410 1_455 S
C481 C489 1.503 . S
C482 C481 1.410 1_655 S
C482 C483 1.392 . S
C482 C485 1.511 . S
C483 C479 1.376 1_655 S
C483 C482 1.392 . S
C483 H495 0.929 . S
C484 C480 1.531 . S
C484 H496 0.960 . S
C484 H497 0.962 . S
C484 H498 0.960 . S
C485 C482 1.511 . S
C485 H499 0.961 . S
C485 H500 0.961 . S
C485 H501 0.961 . S
C486 C487 1.370 1_655 S
C486 C488 1.363 . S
C486 H502 0.931 . S
C487 C486 1.370 1_455 S
C487 C491 1.408 . S
C488 C486 1.363 . S
C488 C489 1.370 1_655 S
C488 C492 1.524 . S
C489 C481 1.503 . S
C489 C488 1.370 1_455 S
C489 C490 1.403 . S
C490 C489 1.403 . S
C490 C491 1.404 . S
C490 C493 1.539 . S
C491 C487 1.408 . S
C491 C490 1.404 . S
C491 H503 0.930 . S
C492 C488 1.524 . S
C492 H504 0.956 . S
C492 H505 0.961 . S
C492 H506 0.961 . S
C493 C490 1.539 . S
C493 H507 0.958 . S
C493 H508 0.961 . S
C493 H509 0.960 . S
H494 C478 0.931 . S
H495 C483 0.929 . S
H496 C484 0.960 . S
H497 C484 0.962 . S
H498 C484 0.960 . S
H499 C485 0.961 . S
H500 C485 0.961 . S
H501 C485 0.961 . S
H502 C486 0.931 . S
H503 C491 0.930 . S
H504 C492 0.956 . S
H505 C492 0.961 . S
H506 C492 0.961 . S
H507 C493 0.958 . S
H508 C493 0.961 . S
H509 C493 0.960 . S
C510 C511 1.401 . S
C510 C512 1.394 . S
C510 H526 0.931 . S
C511 C510 1.401 . S
C511 C515 1.372 1_565 S
C512 C510 1.394 . S
C512 C513 1.369 . S
C512 C516 1.531 . S
C513 C512 1.369 . S
C513 C514 1.410 1_565 S
C513 C521 1.503 . S
C514 C513 1.410 1_545 S
C514 C515 1.392 . S
C514 C517 1.511 . S
C515 C511 1.372 1_545 S
C515 C514 1.392 . S
C515 H527 0.929 . S
C516 C512 1.531 . S
C516 H528 0.960 . S
C516 H529 0.962 . S
C516 H530 0.960 . S
C517 C514 1.511 . S
C517 H531 0.961 . S
C517 H532 0.961 . S
C517 H533 0.961 . S
C518 C519 1.394 . S
C518 C520 1.363 . S
C518 H534 0.931 . S
C519 C518 1.394 . S
C519 C523 1.391 1_545 S
C520 C518 1.363 . S
C520 C521 1.370 1_545 S
C520 C524 1.524 . S
C521 C513 1.503 . S
C521 C520 1.370 1_565 S
C521 C522 1.403 . S
C522 C521 1.403 . S
C522 C523 1.404 . S
C522 C525 1.539 . S
C523 C519 1.391 1_565 S
C523 C522 1.404 . S
C523 H535 0.930 . S
C524 C520 1.524 . S
C524 H536 0.956 . S
C524 H537 0.961 . S
C524 H538 0.961 . S
C525 C522 1.539 . S
C525 H539 0.958 . S
C525 H540 0.961 . S
C525 H541 0.960 . S
H526 C510 0.931 . S
H527 C515 0.929 . S
H528 C516 0.960 . S
H529 C516 0.962 . S
H530 C516 0.960 . S
H531 C517 0.961 . S
H532 C517 0.961 . S
H533 C517 0.961 . S
H534 C518 0.931 . S
H535 C523 0.930 . S
H536 C524 0.956 . S
H537 C524 0.961 . S
H538 C524 0.961 . S
H539 C525 0.958 . S
H540 C525 0.961 . S
H541 C525 0.960 . S
C542 C543 1.391 1_455 S
C542 C544 1.394 . S
C542 H558 0.931 . S
C543 C542 1.391 1_655 S
C543 C547 1.376 . S
C544 C542 1.394 . S
C544 C545 1.369 1_455 S
C544 C548 1.531 . S
C545 C544 1.369 1_655 S
C545 C546 1.410 . S
C545 C553 1.503 . S
C546 C545 1.410 . S
C546 C547 1.392 . S
C546 C549 1.511 . S
C547 C543 1.376 . S
C547 C546 1.392 . S
C547 H559 0.929 . S
C548 C544 1.531 . S
C548 H560 0.960 1_455 S
C548 H561 0.962 . S
C548 H562 0.960 . S
C549 C546 1.511 . S
C549 H563 0.961 . S
C549 H564 0.961 . S
C549 H565 0.961 . S
C550 C551 1.344 1_455 S
C550 C552 1.363 . S
C550 H566 0.931 . S
C551 C550 1.344 1_655 S
C551 C555 1.429 . S
C552 C550 1.363 . S
C552 C553 1.370 1_455 S
C552 C556 1.524 . S
C553 C545 1.503 . S
C553 C552 1.370 1_655 S
C553 C554 1.403 . S
C554 C553 1.403 . S
C554 C555 1.404 . S
C554 C557 1.539 . S
C555 C551 1.429 . S
C555 C554 1.404 . S
C555 H567 0.930 . S
C556 C552 1.524 . S
C556 H568 0.956 . S
C556 H569 0.961 . S
C556 H570 0.961 . S
C557 C554 1.539 . S
C557 H571 0.958 . S
C557 H572 0.961 . S
C557 H573 0.960 . S
H558 C542 0.931 . S
H559 C547 0.929 . S
H560 C548 0.960 1_655 S
H561 C548 0.962 . S
H562 C548 0.960 . S
H563 C549 0.961 . S
H564 C549 0.961 . S
H565 C549 0.961 . S
H566 C550 0.931 . S
H567 C555 0.930 . S
H568 C556 0.956 . S
H569 C556 0.961 . S
H570 C556 0.961 . S
H571 C557 0.958 . S
H572 C557 0.961 . S
H573 C557 0.960 . S
C574 C575 1.391 . S
C574 C576 1.394 . S
C574 H590 0.931 . S
C575 C574 1.391 . S
C575 C579 1.376 1_556 S
C576 C574 1.394 . S
C576 C577 1.369 . S
C576 C580 1.531 . S
C577 C576 1.369 . S
C577 C578 1.410 1_556 S
C577 C585 1.503 . S
C578 C577 1.410 1_554 S
C578 C579 1.392 . S
C578 C581 1.511 . S
C579 C575 1.376 1_554 S
C579 C578 1.392 . S
C579 H591 0.929 . S
C580 C576 1.531 . S
C580 H592 0.960 . S
C580 H593 0.962 . S
C580 H594 0.960 . S
C581 C578 1.511 . S
C581 H595 0.961 . S
C581 H596 0.961 . S
C581 H597 0.961 1_554 S
C582 C583 1.358 1_554 S
C582 C584 1.363 . S
C582 H598 0.931 . S
C583 C582 1.358 1_556 S
C583 C587 1.418 . S
C584 C582 1.363 . S
C584 C585 1.370 1_554 S
C584 C588 1.524 . S
C585 C577 1.503 . S
C585 C584 1.370 1_556 S
C585 C586 1.403 . S
C586 C585 1.403 . S
C586 C587 1.404 . S
C586 C589 1.539 . S
C587 C583 1.418 . S
C587 C586 1.404 . S
C587 H599 0.930 . S
C588 C584 1.524 . S
C588 H600 0.956 . S
C588 H601 0.961 . S
C588 H602 0.961 . S
C589 C586 1.539 . S
C589 H603 0.958 . S
C589 H604 0.961 . S
C589 H605 0.960 . S
H590 C574 0.931 . S
H591 C579 0.929 . S
H592 C580 0.960 . S
H593 C580 0.962 . S
H594 C580 0.960 . S
H595 C581 0.961 . S
H596 C581 0.961 . S
H597 C581 0.961 1_556 S
H598 C582 0.931 . S
H599 C587 0.930 . S
H600 C588 0.956 . S
H601 C588 0.961 . S
H602 C588 0.961 . S
H603 C589 0.958 . S
H604 C589 0.961 . S
H605 C589 0.960 . S
C606 C607 1.391 . S
C606 C608 1.394 . S
C606 H622 0.931 . S
C607 C606 1.391 . S
C607 C611 1.376 1_556 S
C608 C606 1.394 . S
C608 C609 1.369 . S
C608 C612 1.531 . S
C609 C608 1.369 . S
C609 C610 1.410 1_556 S
C609 C617 1.503 . S
C610 C609 1.410 1_554 S
C610 C611 1.392 . S
C610 C613 1.511 . S
C611 C607 1.376 1_554 S
C611 C610 1.392 . S
C611 H623 0.929 . S
C612 C608 1.531 . S
C612 H624 0.960 . S
C612 H625 0.962 . S
C612 H626 0.960 . S
C613 C610 1.511 . S
C613 H627 0.961 . S
C613 H628 0.961 . S
C613 H629 0.961 . S
C614 C615 1.368 1_554 S
C614 C616 1.363 . S
C614 H630 0.931 . S
C615 C614 1.368 1_556 S
C615 C619 1.411 . S
C616 C614 1.363 . S
C616 C617 1.370 1_554 S
C616 C620 1.524 . S
C617 C609 1.503 . S
C617 C616 1.370 1_556 S
C617 C618 1.403 . S
C618 C617 1.403 . S
C618 C619 1.404 . S
C618 C621 1.539 . S
C619 C615 1.411 . S
C619 C618 1.404 . S
C619 H631 0.930 . S
C620 C616 1.524 . S
C620 H632 0.956 . S
C620 H633 0.961 . S
C620 H634 0.961 . S
C621 C618 1.539 . S
C621 H635 0.958 . S
C621 H636 0.961 . S
C621 H637 0.960 . S
H622 C606 0.931 . S
H623 C611 0.929 . S
H624 C612 0.960 . S
H625 C612 0.962 . S
H626 C612 0.960 . S
H627 C613 0.961 . S
H628 C613 0.961 . S
H629 C613 0.961 . S
H630 C614 0.931 . S
H631 C619 0.930 . S
H632 C620 0.956 . S
H633 C620 0.961 . S
H634 C620 0.961 . S
H635 C621 0.958 . S
H636 C621 0.961 . S
H637 C621 0.960 . S
C638 C639 1.391 . S
C638 C640 1.394 . S
C638 H654 0.931 . S
C639 C638 1.391 . S
C639 C643 1.376 1_554 S
C640 C638 1.394 . S
C640 C641 1.369 . S
C640 C644 1.531 . S
C641 C640 1.369 . S
C641 C642 1.410 1_554 S
C641 C649 1.503 . S
C642 C641 1.410 1_556 S
C642 C643 1.392 . S
C642 C645 1.511 . S
C643 C639 1.376 1_556 S
C643 C642 1.392 . S
C643 H655 0.929 . S
C644 C640 1.531 . S
C644 H656 0.960 . S
C644 H657 0.962 . S
C644 H658 0.960 . S
C645 C642 1.511 . S
C645 H659 0.961 . S
C645 H660 0.961 . S
C645 H661 0.961 . S
C646 C647 1.370 1_556 S
C646 C648 1.363 . S
C646 H662 0.931 . S
C647 C646 1.370 1_554 S
C647 C651 1.408 . S
C648 C646 1.363 . S
C648 C649 1.370 1_556 S
C648 C652 1.524 . S
C649 C641 1.503 . S
C649 C648 1.370 1_554 S
C649 C650 1.403 . S
C650 C649 1.403 . S
C650 C651 1.404 . S
C650 C653 1.539 . S
C651 C647 1.408 . S
C651 C650 1.404 . S
C651 H663 0.930 . S
C652 C648 1.524 . S
C652 H664 0.956 . S
C652 H665 0.961 . S
C652 H666 0.961 . S
C653 C650 1.539 . S
C653 H667 0.958 . S
C653 H668 0.961 . S
C653 H669 0.960 . S
H654 C638 0.931 . S
H655 C643 0.929 . S
H656 C644 0.960 . S
H657 C644 0.962 . S
H658 C644 0.960 . S
H659 C645 0.961 . S
H660 C645 0.961 . S
H661 C645 0.961 . S
H662 C646 0.931 . S
H663 C651 0.930 . S
H664 C652 0.956 . S
H665 C652 0.961 . S
H666 C652 0.961 . S
H667 C653 0.958 . S
H668 C653 0.961 . S
H669 C653 0.960 . S
C670 C671 1.377 . S
C670 C672 1.405 . S
C670 H686 0.934 1_556 S
C671 C670 1.377 . S
C671 C675 1.376 . S
C672 C670 1.405 . S
C672 C673 1.369 . S
C672 C676 1.531 . S
C673 C672 1.369 . S
C673 C674 1.410 . S
C673 C681 1.503 . S
C674 C673 1.410 . S
C674 C675 1.392 . S
C674 C677 1.511 . S
C675 C671 1.376 . S
C675 C674 1.392 . S
C675 H687 0.929 . S
C676 C672 1.531 . S
C676 H688 0.960 . S
C676 H689 0.962 1_556 S
C676 H690 0.960 . S
C677 C674 1.511 . S
C677 H691 0.961 . S
C677 H692 0.961 . S
C677 H693 0.961 . S
C678 C679 1.351 1_554 S
C678 C680 1.363 . S
C678 H694 0.931 . S
C679 C678 1.351 1_556 S
C679 C683 1.423 . S
C680 C678 1.363 . S
C680 C681 1.370 1_554 S
C680 C684 1.524 . S
C681 C673 1.503 . S
C681 C680 1.370 1_556 S
C681 C682 1.403 . S
C682 C681 1.403 . S
C682 C683 1.404 . S
C682 C685 1.539 . S
C683 C679 1.423 . S
C683 C682 1.404 . S
C683 H695 0.930 . S
C684 C680 1.524 . S
C684 H696 0.956 . S
C684 H697 0.961 . S
C684 H698 0.961 . S
C685 C682 1.539 . S
C685 H699 0.958 . S
C685 H700 0.961 . S
C685 H701 0.960 . S
H686 C670 0.934 1_554 S
H687 C675 0.929 . S
H688 C676 0.960 . S
H689 C676 0.962 1_554 S
H690 C676 0.960 . S
H691 C677 0.961 . S
H692 C677 0.961 . S
H693 C677 0.961 . S
H694 C678 0.931 . S
H695 C683 0.930 . S
H696 C684 0.956 . S
H697 C684 0.961 . S
H698 C684 0.961 . S
H699 C685 0.958 . S
H700 C685 0.961 . S
H701 C685 0.960 . S
C319 C29 1.492 . S
C327 C241 1.501 . S
C351 C38 1.492 1_565 S
C359 C303 1.498 . S
C383 C234 1.496 1_655 S
C391 C22 1.503 . S
C415 C304 1.508 . S
C423 C39 1.498 . S
C447 C294 1.493 1_565 S
C455 C91 1.504 . S
C479 C128 1.494 . S
C487 C251 1.501 . S
C511 C287 1.488 1_565 S
C519 C92 1.490 . S
C543 C250 1.495 1_655 S
C551 C135 1.503 . S
C575 C144 1.498 1_556 S
C583 C198 1.503 1_556 S
C607 C188 1.497 1_556 S
C615 C75 1.498 1_556 S
C639 C145 1.492 1_554 S
C647 C197 1.495 . S
C671 C181 1.489 1_556 S
C679 C82 1.503 . S
