# Generated by pormake.
# Topology sml, (6)-cn, num edge types: 1
# Building blocks:
#     Node 0, Type 0, BuildingBlock: BETDIP_clean_sbu_0, # of connection points: 6
#     Node 1, Type 0, BuildingBlock: BETDIP_clean_sbu_0, # of connection points: 6
#     Node 2, Type 0, BuildingBlock: BETDIP_clean_sbu_0, # of connection points: 6
#     Node 3, Type 0, BuildingBlock: BETDIP_clean_sbu_0, # of connection points: 6
#     Node 4, Type 0, BuildingBlock: BETDIP_clean_sbu_0, # of connection points: 6
#     Node 5, Type 0, BuildingBlock: BETDIP_clean_sbu_0, # of connection points: 6
#     Edge 6, Type (0, 0), BuildingBlock: CIFDUS_clean_linker_0, # of connection points: 2
#     Edge 7, Type (0, 0), BuildingBlock: CIFDUS_clean_linker_0, # of connection points: 2
#     Edge 8, Type (0, 0), BuildingBlock: CIFDUS_clean_linker_0, # of connection points: 2
#     Edge 9, Type (0, 0), BuildingBlock: CIFDUS_clean_linker_0, # of connection points: 2
#     Edge 10, Type (0, 0), BuildingBlock: CIFDUS_clean_linker_0, # of connection points: 2
#     Edge 11, Type (0, 0), BuildingBlock: CIFDUS_clean_linker_0, # of connection points: 2
#     Edge 12, Type (0, 0), BuildingBlock: CIFDUS_clean_linker_0, # of connection points: 2
#     Edge 13, Type (0, 0), BuildingBlock: CIFDUS_clean_linker_0, # of connection points: 2
#     Edge 14, Type (0, 0), BuildingBlock: CIFDUS_clean_linker_0, # of connection points: 2
#     Edge 15, Type (0, 0), BuildingBlock: CIFDUS_clean_linker_0, # of connection points: 2
#     Edge 16, Type (0, 0), BuildingBlock: CIFDUS_clean_linker_0, # of connection points: 2
#     Edge 17, Type (0, 0), BuildingBlock: CIFDUS_clean_linker_0, # of connection points: 2
#     Edge 18, Type (0, 0), BuildingBlock: CIFDUS_clean_linker_0, # of connection points: 2
#     Edge 19, Type (0, 0), BuildingBlock: CIFDUS_clean_linker_0, # of connection points: 2
#     Edge 20, Type (0, 0), BuildingBlock: CIFDUS_clean_linker_0, # of connection points: 2
#     Edge 21, Type (0, 0), BuildingBlock: CIFDUS_clean_linker_0, # of connection points: 2
#     Edge 22, Type (0, 0), BuildingBlock: CIFDUS_clean_linker_0, # of connection points: 2
#     Edge 23, Type (0, 0), BuildingBlock: CIFDUS_clean_linker_0, # of connection points: 2
# Relax obj value: 0.278
# Max RMSD: 0.269
# Mean RMSD: 0.269
data_MOF--net-sml--node1-BETDIP_clean_sbu_0--edge1-CIFDUS_clean_linker_0
_symmetry_space_group_name_H-M    P1
_symmetry_Int_Tables_number       1
_symmetry_cell_setting            triclinic
loop_
_symmetry_equiv_pos_as_xyz
'x, y, z'
_cell_length_a     27.361129
_cell_length_b     27.409801
_cell_length_c     22.83721
_cell_angle_alpha  90.2208
_cell_angle_beta   89.558554
_cell_angle_gamma 120.24343
loop_
_atom_site_label
_atom_site_type_symbol
_atom_site_fract_x
_atom_site_fract_y
_atom_site_fract_z
_atom_type_partial_charge
Tb0 Tb 0.18003 0.4485 0.9729 0.0
Tb1 Tb 0.23025 0.41653 0.07774 0.0
C2 C 0.17035 0.49204 0.88024 0.0
C3 C 0.16616 0.47626 0.81749 0.0
C4 C 0.19394 0.4485 0.79566 0.0
C5 C 0.19362 0.43749 0.73571 0.0
C6 C 0.16533 0.45374 0.69598 0.0
C7 C 0.13625 0.48016 0.71817 0.0
C8 C 0.13685 0.49146 0.77828 0.0
C9 C 0.10777 0.35966 0.0361 0.0
C10 C 0.21022 0.35235 0.95895 0.0
C11 C 0.25117 0.39088 0.17641 0.0
C12 C 0.2401 0.39598 0.23895 0.0
C13 C 0.20597 0.41814 0.25694 0.0
C14 C 0.19958 0.4262 0.31671 0.0
C15 C 0.22743 0.41238 0.35959 0.0
C16 C 0.26024 0.3887 0.34106 0.0
C17 C 0.26656 0.38076 0.28152 0.0
C18 C 0.30167 0.48354 0.9973 0.0
C19 C 0.19325 0.51072 0.09243 0.0
O20 O 0.21892 0.50637 0.90479 0.0
O21 O 0.12714 0.45963 0.91429 0.0
O22 O 0.15041 0.40388 0.05334 0.0
O23 O 0.10131 0.36597 0.98084 0.0
O24 O 0.20734 0.39419 0.93393 0.0
O25 O 0.21168 0.34747 1.01666 0.0
O26 O 0.20773 0.35602 0.1443 0.0
O27 O 0.2849 0.43838 0.14919 0.0
O28 O 0.25866 0.48326 1.0166 0.0
O29 O 0.30892 0.44702 0.02604 0.0
O30 O 0.21034 0.47792 0.11687 0.0
O31 O 0.18035 0.50807 0.03623 0.0
H32 H 0.21685 0.43615 0.82478 0.0
H33 H 0.21565 0.41624 0.72046 0.0
H34 H 0.11432 0.49355 0.68886 0.0
H35 H 0.11529 0.51305 0.79399 0.0
H36 H 0.18504 0.43 0.2248 0.0
H37 H 0.17422 0.44477 0.32914 0.0
H38 H 0.28142 0.37646 0.37265 0.0
H39 H 0.29294 0.36342 0.26865 0.0
Tb40 Tb 0.75342 0.18506 0.31501 0.0
Tb41 Tb 0.83458 0.24353 0.41627 0.0
C42 C 0.70484 0.15236 0.21775 0.0
C43 C 0.71964 0.16117 0.15487 0.0
C44 C 0.76053 0.21386 0.13238 0.0
C45 C 0.77211 0.22095 0.07217 0.0
C46 C 0.74406 0.17508 0.03329 0.0
C47 C 0.70469 0.12189 0.05668 0.0
C48 C 0.69234 0.11523 0.1166 0.0
C49 C 0.75453 0.11808 0.39592 0.0
C50 C 0.88615 0.23627 0.2971 0.0
C51 C 0.88382 0.26478 0.51375 0.0
C52 C 0.87003 0.25757 0.57722 0.0
C53 C 0.84642 0.20442 0.60443 0.0
C54 C 0.83507 0.19877 0.66463 0.0
C55 C 0.84871 0.24638 0.69922 0.0
C56 C 0.87334 0.29967 0.67238 0.0
C57 C 0.88364 0.30515 0.61196 0.0
C58 C 0.83379 0.31313 0.3383 0.0
C59 C 0.70192 0.20163 0.42942 0.0
O60 O 0.7074 0.19467 0.24736 0.0
O61 O 0.72514 0.12563 0.247 0.0
O62 O 0.79688 0.16253 0.37716 0.0
O63 O 0.71039 0.10723 0.36592 0.0
O64 O 0.8366 0.22157 0.27365 0.0
O65 O 0.89422 0.24117 0.35441 0.0
O66 O 0.8704 0.21934 0.48289 0.0
O67 O 0.87386 0.30034 0.48555 0.0
O68 O 0.79133 0.26702 0.35451 0.0
O69 O 0.87708 0.32384 0.37022 0.0
O70 O 0.75136 0.21838 0.45482 0.0
O71 O 0.69345 0.19089 0.37273 0.0
H72 H 0.78342 0.24964 0.16106 0.0
H73 H 0.80239 0.26269 0.05623 0.0
H74 H 0.6834 0.08505 0.02884 0.0
H75 H 0.66137 0.07392 0.13315 0.0
H76 H 0.83749 0.16724 0.57955 0.0
H77 H 0.8169 0.15731 0.68442 0.0
H78 H 0.88427 0.33705 0.6981 0.0
H79 H 0.90284 0.34681 0.59246 0.0
Tb80 Tb 0.56838 0.72633 0.62576 0.0
Tb81 Tb 0.60167 0.81156 0.7263 0.0
C82 C 0.53715 0.67864 0.52783 0.0
C83 C 0.54925 0.69686 0.46595 0.0
C84 C 0.50469 0.6777 0.42588 0.0
C85 C 0.51563 0.69267 0.36663 0.0
C86 C 0.5715 0.72717 0.34625 0.0
C87 C 0.61592 0.74731 0.38688 0.0
C88 C 0.60495 0.73226 0.44599 0.0
C89 C 0.6419 0.72805 0.69919 0.0
C90 C 0.65865 0.85852 0.60576 0.0
C91 C 0.63271 0.85877 0.82447 0.0
C92 C 0.62019 0.83947 0.88602 0.0
C93 C 0.66433 0.85852 0.92657 0.0
C94 C 0.65288 0.84244 0.9855 0.0
C95 C 0.59691 0.80696 1.00508 0.0
C96 C 0.55291 0.78691 0.96396 0.0
C97 C 0.56441 0.80301 0.90516 0.0
C98 C 0.52657 0.80809 0.65338 0.0
C99 C 0.50887 0.67989 0.7453 0.0
O100 O 0.50837 0.69653 0.55811 0.0
O101 O 0.57895 0.68102 0.55778 0.0
O102 O 0.6396 0.77059 0.68214 0.0
O103 O 0.60653 0.68364 0.67001 0.0
O104 O 0.62326 0.80803 0.58374 0.0
O105 O 0.66228 0.86925 0.66261 0.0
O106 O 0.6619 0.84162 0.7938 0.0
O107 O 0.59099 0.85654 0.79456 0.0
O108 O 0.53024 0.76654 0.67088 0.0
O109 O 0.56152 0.85288 0.68241 0.0
O110 O 0.5448 0.72995 0.76798 0.0
O111 O 0.50615 0.66929 0.68849 0.0
H112 H 0.46139 0.65042 0.44027 0.0
H113 H 0.48042 0.67602 0.33658 0.0
H114 H 0.65933 0.77478 0.37303 0.0
H115 H 0.64018 0.74789 0.47593 0.0
H116 H 0.70768 0.88657 0.91281 0.0
H117 H 0.68774 0.85903 1.016 0.0
H118 H 0.50944 0.75877 0.97723 0.0
H119 H 0.52952 0.78746 0.87483 0.0
Tb120 Tb 0.82095 0.56659 0.97871 0.0
Tb121 Tb 0.77613 0.60427 0.08111 0.0
C122 C 0.83233 0.53132 0.88052 0.0
C123 C 0.8286 0.54489 0.81893 0.0
C124 C 0.80804 0.50192 0.7767 0.0
C125 C 0.80275 0.51378 0.7183 0.0
C126 C 0.81752 0.56881 0.7013 0.0
C127 C 0.83848 0.61186 0.74371 0.0
C128 C 0.84416 0.60004 0.80195 0.0
C129 C 0.89838 0.63935 0.04953 0.0
C130 C 0.78186 0.65903 0.96159 0.0
C131 C 0.76295 0.63572 0.18042 0.0
C132 C 0.77562 0.62595 0.24046 0.0
C133 C 0.79347 0.66896 0.28238 0.0
C134 C 0.80473 0.65989 0.33975 0.0
C135 C 0.79833 0.60752 0.35626 0.0
C136 C 0.78138 0.56484 0.31371 0.0
C137 C 0.77015 0.57395 0.25646 0.0
C138 C 0.70022 0.52735 1.01143 0.0
C139 C 0.80815 0.50767 0.09726 0.0
O140 O 0.78474 0.50801 0.91017 0.0
O141 O 0.87458 0.57026 0.91074 0.0
O142 O 0.85415 0.63953 0.03438 0.0
O143 O 0.90322 0.60144 0.02015 0.0
O144 O 0.79438 0.62214 0.93839 0.0
O145 O 0.7786 0.66462 1.01877 0.0
O146 O 0.80677 0.66661 0.14667 0.0
O147 O 0.72327 0.5915 0.15312 0.0
O148 O 0.74534 0.53104 0.02839 0.0
O149 O 0.69359 0.56614 0.03663 0.0
O150 O 0.80461 0.54992 0.1212 0.0
O151 O 0.80742 0.50066 0.03991 0.0
H152 H 0.79567 0.45905 0.78899 0.0
H153 H 0.78609 0.4797 0.68665 0.0
H154 H 0.85101 0.6548 0.7317 0.0
H155 H 0.86066 0.63397 0.83372 0.0
H156 H 0.79844 0.70953 0.2708 0.0
H157 H 0.81862 0.69399 0.37112 0.0
H158 H 0.77543 0.52383 0.32491 0.0
H159 H 0.75642 0.53997 0.225 0.0
Tb160 Tb 0.25436 0.81934 0.31431 0.0
Tb161 Tb 0.17292 0.77199 0.41913 0.0
C162 C 0.30551 0.84295 0.21719 0.0
C163 C 0.29246 0.83254 0.15444 0.0
C164 C 0.2365 0.80237 0.13464 0.0
C165 C 0.22513 0.79406 0.07464 0.0
C166 C 0.26964 0.81585 0.03335 0.0
C167 C 0.32571 0.8457 0.05364 0.0
C168 C 0.33693 0.85394 0.11361 0.0
C169 C 0.26704 0.89278 0.39613 0.0
C170 C 0.12314 0.78206 0.30102 0.0
C171 C 0.12652 0.76042 0.51763 0.0
C172 C 0.14194 0.77001 0.57984 0.0
C173 C 0.19853 0.80157 0.5977 0.0
C174 C 0.21172 0.80962 0.65744 0.0
C175 C 0.16842 0.78648 0.7001 0.0
C176 C 0.11187 0.75481 0.68164 0.0
C177 C 0.09885 0.74665 0.62213 0.0
C178 C 0.16258 0.69668 0.34116 0.0
C179 C 0.29867 0.79171 0.42715 0.0
O180 O 0.29556 0.79914 0.24892 0.0
O181 O 0.2894 0.87514 0.2435 0.0
O182 O 0.22084 0.85227 0.37822 0.0
O183 O 0.30808 0.89472 0.36583 0.0
O184 O 0.17127 0.79221 0.27594 0.0
O185 O 0.11621 0.77945 0.35858 0.0
O186 O 0.1445 0.8055 0.48485 0.0
O187 O 0.13181 0.72061 0.49175 0.0
O188 O 0.20756 0.74005 0.35634 0.0
O189 O 0.12175 0.69002 0.37565 0.0
O190 O 0.2539 0.78746 0.45508 0.0
O191 O 0.30457 0.79746 0.36957 0.0
H192 H 0.20169 0.78508 0.1655 0.0
H193 H 0.1815 0.77011 0.06065 0.0
H194 H 0.36097 0.86367 0.02312 0.0
H195 H 0.38045 0.8775 0.12811 0.0
H196 H 0.23233 0.82004 0.56556 0.0
H197 H 0.25564 0.8346 0.6702 0.0
H198 H 0.07761 0.73572 0.71329 0.0
H199 H 0.05495 0.72194 0.60908 0.0
Tb200 Tb 0.42883 0.2617 0.65505 0.0
Tb201 Tb 0.4139 0.17925 0.75328 0.0
C202 C 0.45079 0.30817 0.55616 0.0
C203 C 0.44174 0.28882 0.49426 0.0
C204 C 0.48568 0.28877 0.46188 0.0
C205 C 0.47771 0.27124 0.40333 0.0
C206 C 0.42566 0.25348 0.37564 0.0
C207 C 0.38184 0.25382 0.40794 0.0
C208 C 0.38981 0.27142 0.46643 0.0
C209 C 0.35807 0.25154 0.73794 0.0
C210 C 0.34936 0.12681 0.63809 0.0
C211 C 0.39581 0.13322 0.8521 0.0
C212 C 0.40565 0.15365 0.91365 0.0
C213 C 0.36167 0.15264 0.94687 0.0
C214 C 0.37052 0.17143 1.00497 0.0
C215 C 0.42347 0.19128 0.03155 0.0
C216 C 0.46745 0.19223 0.99829 0.0
C217 C 0.45865 0.17358 0.94015 0.0
C218 C 0.487 0.19362 0.67073 0.0
C219 C 0.49367 0.31423 0.7702 0.0
O220 O 0.48684 0.30013 0.58614 0.0
O221 O 0.40582 0.29725 0.58715 0.0
O222 O 0.36502 0.21232 0.7183 0.0
O223 O 0.38611 0.29662 0.70614 0.0
O224 O 0.37708 0.17813 0.61495 0.0
O225 O 0.35335 0.11656 0.69386 0.0
O226 O 0.3575 0.13836 0.82293 0.0
O227 O 0.44067 0.14603 0.82005 0.0
O228 O 0.4785 0.23079 0.69275 0.0
O229 O 0.45682 0.14615 0.69833 0.0
O230 O 0.46534 0.26286 0.79324 0.0
O231 O 0.49015 0.32427 0.71422 0.0
H232 H 0.52633 0.30224 0.48184 0.0
H233 H 0.51217 0.27097 0.37996 0.0
H234 H 0.3415 0.24123 0.38774 0.0
H235 H 0.35522 0.27152 0.4897 0.0
H236 H 0.32029 0.13743 0.92791 0.0
H237 H 0.3359 0.17084 0.02891 0.0
H238 H 0.50854 0.20649 1.01749 0.0
H239 H 0.49341 0.17454 0.91614 0.0
H240 H 0.26398 0.25797 0.73554 0.0
H241 H 0.37738 0.24281 0.8536 0.0
H242 H 0.33416 0.26359 0.93699 0.0
H243 H 0.27483 0.30263 0.97324 0.0
H244 H 0.16296 0.31856 0.85274 0.0
H245 H 0.19358 0.27993 0.77401 0.0
C246 C 0.2778 0.25741 0.77983 0.0
C247 C 0.32329 0.24855 0.78868 0.0
C248 C 0.2533 0.27026 0.82719 0.0
C249 C 0.34172 0.24862 0.8459 0.0
C250 C 0.31734 0.26112 0.89357 0.0
C251 C 0.25578 0.29564 0.93029 0.0
C252 C 0.21727 0.31407 0.9186 0.0
C253 C 0.27454 0.27427 0.88446 0.0
C254 C 0.19318 0.30525 0.8626 0.0
C255 C 0.21082 0.28339 0.8174 0.0
H256 H 0.11356 0.35656 0.15364 0.0
H257 H 0.99824 0.28091 1.00962 0.0
H258 H 0.91936 0.2316 0.07885 0.0
H259 H 0.88277 0.21772 0.17975 0.0
H260 H 0.99899 0.29436 0.32341 0.0
H261 H 0.0785 0.3346 0.25463 0.0
C262 C 0.07148 0.3281 0.13735 0.0
C263 C 0.06172 0.32231 0.07663 0.0
C264 C 0.02661 0.30043 0.17731 0.0
C265 C 0.00678 0.28592 0.05616 0.0
C266 C 0.96172 0.25797 0.09573 0.0
C267 C 0.92554 0.24264 0.19621 0.0
C268 C 0.9348 0.2535 0.25674 0.0
C269 C 0.97102 0.26609 0.15635 0.0
C270 C 0.99056 0.28536 0.27718 0.0
C271 C 0.03607 0.30864 0.23781 0.0
H272 H 0.74652 0.01692 0.38583 0.0
H273 H 0.75485 0.13741 0.51243 0.0
H274 H 0.73331 0.06932 0.59156 0.0
H275 H 0.70033 0.97131 0.62241 0.0
H276 H 0.68756 0.84978 0.49378 0.0
H277 H 0.72329 0.92216 0.41807 0.0
C278 C 0.74521 0.02854 0.43106 0.0
C279 C 0.75356 0.08221 0.4439 0.0
C280 C 0.73136 0.98863 0.47582 0.0
C281 C 0.75019 0.09674 0.50207 0.0
C282 C 0.73724 0.05757 0.54715 0.0
C283 C 0.70675 0.96107 0.57814 0.0
C284 C 0.69075 0.90505 0.56367 0.0
C285 C 0.72625 0.00282 0.53433 0.0
C286 C 0.69886 0.89236 0.50595 0.0
C287 C 0.71928 0.93376 0.46253 0.0
H288 H 0.64451 0.74323 0.81667 0.0
H289 H 0.72665 0.70823 0.67449 0.0
H290 H 0.7842 0.69164 0.74429 0.0
H291 H 0.80201 0.6756 0.84492 0.0
H292 H 0.71865 0.70839 0.98794 0.0
H293 H 0.67207 0.73937 0.91867 0.0
C294 C 0.6767 0.73433 0.80107 0.0
C295 C 0.68266 0.72835 0.74075 0.0
C296 C 0.70874 0.7237 0.84151 0.0
C297 C 0.72221 0.71377 0.72087 0.0
C298 C 0.75473 0.70393 0.76066 0.0
C299 C 0.77443 0.69036 0.8611 0.0
C300 C 0.76335 0.6889 0.92147 0.0
C301 C 0.74707 0.70706 0.82104 0.0
C302 C 0.72798 0.70898 0.94169 0.0
C303 C 0.70092 0.72628 0.90204 0.0
H304 H 0.12302 0.79574 0.18329 0.0
H305 H 0.0107 0.72778 0.33227 0.0
H306 H 0.92931 0.68278 0.26686 0.0
H307 H 0.89176 0.65186 0.1669 0.0
H308 H 0.00558 0.71488 1.01905 0.0
H309 H 0.08498 0.77182 0.08423 0.0
C310 C 0.08081 0.77143 0.20161 0.0
C311 C 0.07332 0.76445 0.26266 0.0
C312 C 0.03447 0.74425 0.16373 0.0
C313 C 0.01795 0.7339 0.2855 0.0
C314 C 0.97131 0.70771 0.24805 0.0
C315 C 0.93355 0.67975 0.14901 0.0
C316 C 0.94288 0.68048 0.08832 0.0
C317 C 0.97924 0.71115 0.18704 0.0
C318 C 0.99761 0.71455 0.06564 0.0
C319 C 0.04293 0.74683 0.10289 0.0
H320 H 0.35961 0.0347 0.62673 0.0
H321 H 0.27178 0.1148 0.55699 0.0
H322 H 0.23034 0.04268 0.48015 0.0
H323 H 0.22782 0.96275 0.42642 0.0
H324 H 0.33011 0.89503 0.48749 0.0
H325 H 0.35612 0.95468 0.57436 0.0
C326 C 0.33022 0.03531 0.59551 0.0
C327 C 0.31779 0.07907 0.59781 0.0
C328 C 0.30934 0.99575 0.54968 0.0
C329 C 0.28128 0.08091 0.55615 0.0
C330 C 0.25786 0.03989 0.51216 0.0
C331 C 0.25474 0.96042 0.4596 0.0
C332 C 0.27586 0.9236 0.45161 0.0
C333 C 0.27273 0.9979 0.50754 0.0
C334 C 0.31227 0.92206 0.49356 0.0
C335 C 0.32759 0.95658 0.543 0.0
H336 H 0.25628 0.47041 0.63061 0.0
H337 H 0.07891 0.4158 0.61637 0.0
H338 H 0.08229 0.39935 0.51137 0.0
H339 H 0.13543 0.3983 0.42352 0.0
H340 H 0.31319 0.45427 0.43913 0.0
H341 H 0.30944 0.4713 0.54333 0.0
C342 C 0.21818 0.45446 0.6047 0.0
C343 C 0.16735 0.44413 0.63168 0.0
C344 C 0.2204 0.44501 0.54435 0.0
C345 C 0.11874 0.42456 0.5969 0.0
C346 C 0.12059 0.41488 0.53679 0.0
C347 C 0.17346 0.41466 0.44959 0.0
C348 C 0.22438 0.42426 0.42318 0.0
C349 C 0.17119 0.42482 0.50997 0.0
C350 C 0.27307 0.4452 0.45811 0.0
C351 C 0.27112 0.45537 0.51784 0.0
H352 H 0.84373 0.24606 0.97585 0.0
H353 H 0.66874 0.12116 0.94421 0.0
H354 H 0.68631 0.13053 0.83924 0.0
H355 H 0.75077 0.17481 0.75555 0.0
H356 H 0.92324 0.30512 0.78628 0.0
H357 H 0.90676 0.29416 0.89222 0.0
C358 C 0.80906 0.22142 0.94624 0.0
C359 C 0.75504 0.18244 0.96871 0.0
C360 C 0.8189 0.22821 0.88544 0.0
C361 C 0.71117 0.15043 0.9289 0.0
C362 C 0.72097 0.15612 0.86854 0.0
C363 C 0.78468 0.20066 0.78558 0.0
C364 C 0.83816 0.24049 0.76333 0.0
C365 C 0.77463 0.19476 0.8463 0.0
C366 C 0.88164 0.27433 0.80251 0.0
C367 C 0.87227 0.26794 0.86302 0.0
H368 H 0.51317 0.75436 0.26882 0.0
H369 H 0.6572 0.73057 0.28053 0.0
H370 H 0.67788 0.75325 0.17683 0.0
H371 H 0.65468 0.7789 0.08221 0.0
H372 H 0.51049 0.80238 0.07042 0.0
H373 H 0.48959 0.77937 0.17406 0.0
C374 C 0.54881 0.75366 0.24862 0.0
C375 C 0.58365 0.74098 0.28276 0.0
C376 C 0.56031 0.76635 0.18868 0.0
C377 C 0.63013 0.74106 0.25577 0.0
C378 C 0.64182 0.75367 0.19626 0.0
C379 C 0.61892 0.7794 0.10239 0.0
C380 C 0.58421 0.79228 0.06832 0.0
C381 C 0.60728 0.76647 0.16227 0.0
C382 C 0.53752 0.79185 0.0952 0.0
C383 C 0.52571 0.77906 0.15466 0.0
H384 H 0.8497 0.53693 0.60193 0.0
H385 H 0.76881 0.62823 0.66266 0.0
H386 H 0.75695 0.6494 0.56175 0.0
H387 H 0.7677 0.64023 0.4562 0.0
H388 H 0.84994 0.55014 0.39499 0.0
H389 H 0.86215 0.52935 0.49592 0.0
C390 C 0.82927 0.56124 0.59294 0.0
C391 C 0.81041 0.58125 0.63971 0.0
C392 C 0.82259 0.57323 0.53471 0.0
C393 C 0.78448 0.61314 0.62749 0.0
C394 C 0.77739 0.62496 0.56977 0.0
C395 C 0.78903 0.61673 0.46486 0.0
C396 C 0.8078 0.5968 0.41789 0.0
C397 C 0.79631 0.60526 0.52303 0.0
C398 C 0.83438 0.56544 0.43014 0.0
C399 C 0.84165 0.55373 0.48791 0.0
H400 H 0.25148 0.7796 0.75844 0.0
H401 H 0.11461 0.81288 0.78473 0.0
H402 H 0.1331 0.82385 0.8897 0.0
H403 H 0.18829 0.82453 0.97413 0.0
H404 H 0.32472 0.79045 0.94856 0.0
H405 H 0.30689 0.78028 0.84333 0.0
C406 C 0.22609 0.7898 0.7871 0.0
C407 C 0.18161 0.79522 0.76369 0.0
C408 C 0.23691 0.79602 0.84761 0.0
C409 C 0.14864 0.80776 0.80161 0.0
C410 C 0.15931 0.81426 0.86166 0.0
C411 C 0.21378 0.81429 0.94567 0.0
C412 C 0.25781 0.80832 0.96938 0.0
C413 C 0.20315 0.80824 0.8852 0.0
C414 C 0.29099 0.79597 0.93153 0.0
C415 C 0.28066 0.78989 0.87131 0.0
H416 H 0.49881 0.30095 0.28343 0.0
H417 H 0.33261 0.1632 0.32779 0.0
H418 H 0.31713 0.1324 0.22578 0.0
H419 H 0.35105 0.14367 0.12414 0.0
H420 H 0.51686 0.28193 0.07928 0.0
H421 H 0.53265 0.31247 0.1814 0.0
C422 C 0.45939 0.2639 0.27089 0.0
C423 C 0.41692 0.23456 0.31337 0.0
C424 C 0.45076 0.24627 0.21203 0.0
C425 C 0.36577 0.18707 0.29602 0.0
C426 C 0.35697 0.16921 0.23768 0.0
C427 C 0.39042 0.18087 0.13649 0.0
C428 C 0.43265 0.21034 0.09383 0.0
C429 C 0.3991 0.19854 0.19529 0.0
C430 C 0.48383 0.2579 0.11112 0.0
C431 C 0.4928 0.27564 0.16954 0.0
H432 H 0.14994 0.49228 0.20202 0.0
H433 H 0.22284 0.61886 0.06674 0.0
H434 H 0.21924 0.68802 0.1321 0.0
H435 H 0.19786 0.71281 0.22913 0.0
H436 H 0.1202 0.58521 0.36235 0.0
H437 H 0.1225 0.5154 0.29651 0.0
C438 C 0.16513 0.53509 0.18711 0.0
C439 C 0.18743 0.55101 0.13026 0.0
C440 C 0.16189 0.57409 0.22449 0.0
C441 C 0.20557 0.60596 0.1105 0.0
C442 C 0.20365 0.64545 0.14785 0.0
C443 C 0.18184 0.66983 0.24349 0.0
C444 C 0.15998 0.65405 0.30034 0.0
C445 C 0.18244 0.6301 0.2051 0.0
C446 C 0.13738 0.59792 0.31853 0.0
C447 C 0.13887 0.55825 0.28107 0.0
H448 H 0.70224 0.27374 0.51024 0.0
H449 H 0.59559 0.11077 0.43196 0.0
H450 H 0.51888 0.09298 0.50056 0.0
H451 H 0.48392 0.12283 0.5859 0.0
H452 H 0.58759 0.28991 0.65688 0.0
H453 H 0.66375 0.30754 0.58803 0.0
C454 C 0.66196 0.23459 0.50811 0.0
C455 C 0.65431 0.19337 0.46677 0.0
C456 C 0.61781 0.22547 0.54648 0.0
C457 C 0.60201 0.14305 0.46353 0.0
C458 C 0.55839 0.13282 0.50284 0.0
C459 C 0.52324 0.16303 0.58595 0.0
C460 C 0.53089 0.20474 0.6267 0.0
C461 C 0.56606 0.17348 0.54499 0.0
C462 C 0.58121 0.25718 0.62592 0.0
C463 C 0.62469 0.26722 0.5867 0.0
H464 H 0.35133 0.46668 0.90188 0.0
H465 H 0.33974 0.59488 1.00056 0.0
H466 H 0.40406 0.66729 0.93171 0.0
H467 H 0.46171 0.69374 0.84278 0.0
H468 H 0.46821 0.5661 0.73797 0.0
H469 H 0.40686 0.49337 0.80897 0.0
C470 C 0.36354 0.51062 0.90821 0.0
C471 C 0.34199 0.52605 0.95631 0.0
C472 C 0.39883 0.55171 0.86708 0.0
C473 C 0.35647 0.58255 0.96382 0.0
C474 C 0.393 0.6238 0.9245 0.0
C475 C 0.44999 0.65006 0.83572 0.0
C476 C 0.46979 0.63523 0.78581 0.0
C477 C 0.41418 0.60882 0.87591 0.0
C478 C 0.45322 0.57833 0.7762 0.0
C479 C 0.41846 0.5369 0.81687 0.0
H480 H 0.77414 0.29624 0.23928 0.0
H481 H 0.89043 0.42652 0.35491 0.0
H482 H 0.8911 0.49886 0.29179 0.0
H483 H 0.86051 0.52484 0.20164 0.0
H484 H 0.75387 0.3945 0.07959 0.0
H485 H 0.74796 0.32202 0.14624 0.0
C486 C 0.79946 0.34028 0.25029 0.0
C487 C 0.83186 0.35599 0.30131 0.0
C488 C 0.80186 0.38151 0.21221 0.0
C489 C 0.86508 0.4135 0.31556 0.0
C490 C 0.86559 0.45481 0.27949 0.0
C491 C 0.83627 0.48052 0.18973 0.0
C492 C 0.80775 0.46476 0.13603 0.0
C493 C 0.83458 0.43931 0.22736 0.0
C494 C 0.77666 0.40743 0.12058 0.0
C495 C 0.77301 0.36604 0.15875 0.0
H496 H 0.31309 0.80203 0.54519 0.0
H497 H 0.38639 0.77991 0.38633 0.0
H498 H 0.46249 0.7811 0.44265 0.0
H499 H 0.5102 0.79175 0.53699 0.0
H500 H 0.43857 0.81667 0.69493 0.0
H501 H 0.36002 0.81182 0.63907 0.0
C502 C 0.34548 0.79718 0.52283 0.0
C503 C 0.34393 0.7909 0.46158 0.0
C504 C 0.38957 0.79873 0.55535 0.0
C505 C 0.3866 0.78505 0.43339 0.0
C506 C 0.43018 0.78571 0.46555 0.0
C507 C 0.47673 0.79507 0.559 0.0
C508 C 0.47904 0.80347 0.61973 0.0
C509 C 0.43228 0.79286 0.52649 0.0
C510 C 0.4369 0.80973 0.64806 0.0
C511 C 0.39219 0.80697 0.6162 0.0
H512 H 0.64457 0.53625 0.91764 0.0
H513 H 0.66718 0.41726 0.0198 0.0
H514 H 0.60344 0.34034 0.95522 0.0
H515 H 0.54375 0.30745 0.86856 0.0
H516 H 0.5271 0.42643 0.75968 0.0
H517 H 0.58656 0.5031 0.82734 0.0
C518 C 0.6348 0.49327 0.92578 0.0
C519 C 0.65939 0.4818 0.97362 0.0
C520 C 0.59994 0.44963 0.88692 0.0
C521 C 0.64807 0.42657 0.98332 0.0
C522 C 0.61189 0.38274 0.94638 0.0
C523 C 0.553 0.35015 0.85963 0.0
C524 C 0.53095 0.36129 0.80938 0.0
C525 C 0.58798 0.39386 0.89785 0.0
C526 C 0.5439 0.41691 0.798 0.0
C527 C 0.57764 0.46066 0.83678 0.0
loop_
_geom_bond_atom_site_label_1
_geom_bond_atom_site_label_2
_geom_bond_distance
_geom_bond_site_symmetry_2
_ccdc_geom_bond_type
Tb0 C2 2.809 . S
Tb0 O20 2.484 . S
Tb0 O21 2.440 . S
Tb0 O22 2.658 1_556 S
Tb0 O23 2.409 . S
Tb0 O24 2.378 . S
Tb0 O28 2.325 . S
Tb0 O31 2.341 1_556 S
Tb1 C11 2.809 . S
Tb1 O22 2.325 . S
Tb1 O25 2.341 1_554 S
Tb1 O26 2.484 . S
Tb1 O27 2.440 . S
Tb1 O28 2.658 1_554 S
Tb1 O29 2.409 . S
Tb1 O30 2.378 . S
C2 Tb0 2.809 . S
C2 C3 1.514 . S
C2 O20 1.248 . S
C2 O21 1.266 . S
C3 C2 1.514 . S
C3 C4 1.359 . S
C3 C8 1.348 . S
C4 C3 1.359 . S
C4 C5 1.380 . S
C4 H32 0.929 . S
C5 C4 1.380 . S
C5 C6 1.347 . S
C5 H33 0.931 . S
C6 C5 1.347 . S
C6 C7 1.369 . S
C7 C6 1.369 . S
C7 C8 1.408 . S
C7 H34 0.930 . S
C8 C3 1.348 . S
C8 C7 1.408 . S
C8 H35 0.930 . S
C9 O22 1.281 . S
C9 O23 1.254 1_554 S
C10 O24 1.236 . S
C10 O25 1.266 . S
C11 Tb1 2.809 . S
C11 C12 1.514 . S
C11 O26 1.248 . S
C11 O27 1.266 . S
C12 C11 1.514 . S
C12 C13 1.359 . S
C12 C17 1.348 . S
C13 C12 1.359 . S
C13 C14 1.380 . S
C13 H36 0.929 . S
C14 C13 1.380 . S
C14 C15 1.347 . S
C14 H37 0.931 . S
C15 C14 1.347 . S
C15 C16 1.369 . S
C16 C15 1.369 . S
C16 C17 1.408 . S
C16 H38 0.930 . S
C17 C12 1.348 . S
C17 C16 1.408 . S
C17 H39 0.930 . S
C18 O28 1.281 . S
C18 O29 1.254 1_556 S
C19 O30 1.236 . S
C19 O31 1.266 . S
O20 Tb0 2.484 . S
O20 C2 1.248 . S
O21 Tb0 2.440 . S
O21 C2 1.266 . S
O22 Tb0 2.658 1_554 S
O22 Tb1 2.325 . S
O22 C9 1.281 . S
O23 Tb0 2.409 . S
O23 C9 1.254 1_556 S
O24 Tb0 2.378 . S
O24 C10 1.236 . S
O25 Tb1 2.341 1_556 S
O25 C10 1.266 . S
O26 Tb1 2.484 . S
O26 C11 1.248 . S
O27 Tb1 2.440 . S
O27 C11 1.266 . S
O28 Tb0 2.325 . S
O28 Tb1 2.658 1_556 S
O28 C18 1.281 . S
O29 Tb1 2.409 . S
O29 C18 1.254 1_554 S
O30 Tb1 2.378 . S
O30 C19 1.236 . S
O31 Tb0 2.341 1_554 S
O31 C19 1.266 . S
H32 C4 0.929 . S
H33 C5 0.931 . S
H34 C7 0.930 . S
H35 C8 0.930 . S
H36 C13 0.929 . S
H37 C14 0.931 . S
H38 C16 0.930 . S
H39 C17 0.930 . S
Tb40 C42 2.809 . S
Tb40 O60 2.484 . S
Tb40 O61 2.440 . S
Tb40 O62 2.658 . S
Tb40 O63 2.409 . S
Tb40 O64 2.378 . S
Tb40 O68 2.325 . S
Tb40 O71 2.341 . S
Tb41 C51 2.809 . S
Tb41 O62 2.325 . S
Tb41 O65 2.341 . S
Tb41 O66 2.484 . S
Tb41 O67 2.440 . S
Tb41 O68 2.658 . S
Tb41 O69 2.409 . S
Tb41 O70 2.378 . S
C42 Tb40 2.809 . S
C42 C43 1.514 . S
C42 O60 1.248 . S
C42 O61 1.266 . S
C43 C42 1.514 . S
C43 C44 1.359 . S
C43 C48 1.348 . S
C44 C43 1.359 . S
C44 C45 1.380 . S
C44 H72 0.929 . S
C45 C44 1.380 . S
C45 C46 1.347 1_554 S
C45 H73 0.931 1_554 S
C46 C45 1.347 1_556 S
C46 C47 1.369 1_556 S
C47 C46 1.369 1_554 S
C47 C48 1.408 . S
C47 H74 0.930 . S
C48 C43 1.348 . S
C48 C47 1.408 . S
C48 H75 0.930 . S
C49 O62 1.281 . S
C49 O63 1.254 . S
C50 O64 1.236 . S
C50 O65 1.266 . S
C51 Tb41 2.809 . S
C51 C52 1.514 . S
C51 O66 1.248 . S
C51 O67 1.266 . S
C52 C51 1.514 . S
C52 C53 1.359 . S
C52 C57 1.348 . S
C53 C52 1.359 . S
C53 C54 1.380 . S
C53 H76 0.929 . S
C54 C53 1.380 . S
C54 C55 1.347 . S
C54 H77 0.931 . S
C55 C54 1.347 . S
C55 C56 1.369 . S
C56 C55 1.369 . S
C56 C57 1.408 . S
C56 H78 0.930 . S
C57 C52 1.348 . S
C57 C56 1.408 . S
C57 H79 0.930 . S
C58 O68 1.281 . S
C58 O69 1.254 . S
C59 O70 1.236 . S
C59 O71 1.266 . S
O60 Tb40 2.484 . S
O60 C42 1.248 . S
O61 Tb40 2.440 . S
O61 C42 1.266 . S
O62 Tb40 2.658 . S
O62 Tb41 2.325 . S
O62 C49 1.281 . S
O63 Tb40 2.409 . S
O63 C49 1.254 . S
O64 Tb40 2.378 . S
O64 C50 1.236 . S
O65 Tb41 2.341 . S
O65 C50 1.266 . S
O66 Tb41 2.484 . S
O66 C51 1.248 . S
O67 Tb41 2.440 . S
O67 C51 1.266 . S
O68 Tb40 2.325 . S
O68 Tb41 2.658 . S
O68 C58 1.281 . S
O69 Tb41 2.409 . S
O69 C58 1.254 . S
O70 Tb41 2.378 . S
O70 C59 1.236 . S
O71 Tb40 2.341 . S
O71 C59 1.266 . S
H72 C44 0.929 . S
H73 C45 0.931 1_556 S
H74 C47 0.930 . S
H75 C48 0.930 . S
H76 C53 0.929 . S
H77 C54 0.931 . S
H78 C56 0.930 . S
H79 C57 0.930 . S
Tb80 C82 2.809 . S
Tb80 O100 2.484 . S
Tb80 O101 2.440 . S
Tb80 O102 2.658 . S
Tb80 O103 2.409 . S
Tb80 O104 2.378 . S
Tb80 O108 2.325 . S
Tb80 O111 2.341 . S
Tb81 C91 2.809 . S
Tb81 O102 2.325 . S
Tb81 O105 2.341 . S
Tb81 O106 2.484 . S
Tb81 O107 2.440 . S
Tb81 O108 2.658 . S
Tb81 O109 2.409 . S
Tb81 O110 2.378 . S
C82 Tb80 2.809 . S
C82 C83 1.514 . S
C82 O100 1.248 . S
C82 O101 1.266 . S
C83 C82 1.514 . S
C83 C84 1.359 . S
C83 C88 1.348 . S
C84 C83 1.359 . S
C84 C85 1.380 . S
C84 H112 0.929 . S
C85 C84 1.380 . S
C85 C86 1.347 . S
C85 H113 0.931 . S
C86 C85 1.347 . S
C86 C87 1.369 . S
C87 C86 1.369 . S
C87 C88 1.408 . S
C87 H114 0.930 . S
C88 C83 1.348 . S
C88 C87 1.408 . S
C88 H115 0.930 . S
C89 O102 1.281 . S
C89 O103 1.254 . S
C90 O104 1.236 . S
C90 O105 1.266 . S
C91 Tb81 2.809 . S
C91 C92 1.514 . S
C91 O106 1.248 . S
C91 O107 1.266 . S
C92 C91 1.514 . S
C92 C93 1.359 . S
C92 C97 1.348 . S
C93 C92 1.359 . S
C93 C94 1.380 1_556 S
C93 H116 0.929 . S
C94 C93 1.380 1_554 S
C94 C95 1.347 . S
C94 H117 0.931 . S
C95 C94 1.347 . S
C95 C96 1.369 1_554 S
C96 C95 1.369 1_556 S
C96 C97 1.408 . S
C96 H118 0.930 1_556 S
C97 C92 1.348 . S
C97 C96 1.408 . S
C97 H119 0.930 . S
C98 O108 1.281 . S
C98 O109 1.254 . S
C99 O110 1.236 . S
C99 O111 1.266 . S
O100 Tb80 2.484 . S
O100 C82 1.248 . S
O101 Tb80 2.440 . S
O101 C82 1.266 . S
O102 Tb80 2.658 . S
O102 Tb81 2.325 . S
O102 C89 1.281 . S
O103 Tb80 2.409 . S
O103 C89 1.254 . S
O104 Tb80 2.378 . S
O104 C90 1.236 . S
O105 Tb81 2.341 . S
O105 C90 1.266 . S
O106 Tb81 2.484 . S
O106 C91 1.248 . S
O107 Tb81 2.440 . S
O107 C91 1.266 . S
O108 Tb80 2.325 . S
O108 Tb81 2.658 . S
O108 C98 1.281 . S
O109 Tb81 2.409 . S
O109 C98 1.254 . S
O110 Tb81 2.378 . S
O110 C99 1.236 . S
O111 Tb80 2.341 . S
O111 C99 1.266 . S
H112 C84 0.929 . S
H113 C85 0.931 . S
H114 C87 0.930 . S
H115 C88 0.930 . S
H116 C93 0.929 . S
H117 C94 0.931 . S
H118 C96 0.930 1_554 S
H119 C97 0.930 . S
Tb120 C122 2.809 . S
Tb120 O140 2.484 . S
Tb120 O141 2.440 . S
Tb120 O142 2.658 1_556 S
Tb120 O143 2.409 . S
Tb120 O144 2.378 . S
Tb120 O148 2.325 . S
Tb120 O151 2.341 1_556 S
Tb121 C131 2.809 . S
Tb121 O142 2.325 . S
Tb121 O145 2.341 1_554 S
Tb121 O146 2.484 . S
Tb121 O147 2.440 . S
Tb121 O148 2.658 1_554 S
Tb121 O149 2.409 . S
Tb121 O150 2.378 . S
C122 Tb120 2.809 . S
C122 C123 1.514 . S
C122 O140 1.248 . S
C122 O141 1.266 . S
C123 C122 1.514 . S
C123 C124 1.359 . S
C123 C128 1.348 . S
C124 C123 1.359 . S
C124 C125 1.380 . S
C124 H152 0.929 . S
C125 C124 1.380 . S
C125 C126 1.347 . S
C125 H153 0.931 . S
C126 C125 1.347 . S
C126 C127 1.369 . S
C127 C126 1.369 . S
C127 C128 1.408 . S
C127 H154 0.930 . S
C128 C123 1.348 . S
C128 C127 1.408 . S
C128 H155 0.930 . S
C129 O142 1.281 . S
C129 O143 1.254 1_554 S
C130 O144 1.236 . S
C130 O145 1.266 . S
C131 Tb121 2.809 . S
C131 C132 1.514 . S
C131 O146 1.248 . S
C131 O147 1.266 . S
C132 C131 1.514 . S
C132 C133 1.359 . S
C132 C137 1.348 . S
C133 C132 1.359 . S
C133 C134 1.380 . S
C133 H156 0.929 . S
C134 C133 1.380 . S
C134 C135 1.347 . S
C134 H157 0.931 . S
C135 C134 1.347 . S
C135 C136 1.369 . S
C136 C135 1.369 . S
C136 C137 1.408 . S
C136 H158 0.930 . S
C137 C132 1.348 . S
C137 C136 1.408 . S
C137 H159 0.930 . S
C138 O148 1.281 . S
C138 O149 1.254 1_556 S
C139 O150 1.236 . S
C139 O151 1.266 . S
O140 Tb120 2.484 . S
O140 C122 1.248 . S
O141 Tb120 2.440 . S
O141 C122 1.266 . S
O142 Tb120 2.658 1_554 S
O142 Tb121 2.325 . S
O142 C129 1.281 . S
O143 Tb120 2.409 . S
O143 C129 1.254 1_556 S
O144 Tb120 2.378 . S
O144 C130 1.236 . S
O145 Tb121 2.341 1_556 S
O145 C130 1.266 . S
O146 Tb121 2.484 . S
O146 C131 1.248 . S
O147 Tb121 2.440 . S
O147 C131 1.266 . S
O148 Tb120 2.325 . S
O148 Tb121 2.658 1_556 S
O148 C138 1.281 . S
O149 Tb121 2.409 . S
O149 C138 1.254 1_554 S
O150 Tb121 2.378 . S
O150 C139 1.236 . S
O151 Tb120 2.341 1_554 S
O151 C139 1.266 . S
H152 C124 0.929 . S
H153 C125 0.931 . S
H154 C127 0.930 . S
H155 C128 0.930 . S
H156 C133 0.929 . S
H157 C134 0.931 . S
H158 C136 0.930 . S
H159 C137 0.930 . S
Tb160 C162 2.809 . S
Tb160 O180 2.484 . S
Tb160 O181 2.440 . S
Tb160 O182 2.658 . S
Tb160 O183 2.409 . S
Tb160 O184 2.378 . S
Tb160 O188 2.325 . S
Tb160 O191 2.341 . S
Tb161 C171 2.809 . S
Tb161 O182 2.325 . S
Tb161 O185 2.341 . S
Tb161 O186 2.484 . S
Tb161 O187 2.440 . S
Tb161 O188 2.658 . S
Tb161 O189 2.409 . S
Tb161 O190 2.378 . S
C162 Tb160 2.809 . S
C162 C163 1.514 . S
C162 O180 1.248 . S
C162 O181 1.266 . S
C163 C162 1.514 . S
C163 C164 1.359 . S
C163 C168 1.348 . S
C164 C163 1.359 . S
C164 C165 1.380 . S
C164 H192 0.929 . S
C165 C164 1.380 . S
C165 C166 1.347 1_554 S
C165 H193 0.931 1_554 S
C166 C165 1.347 1_556 S
C166 C167 1.369 1_556 S
C167 C166 1.369 1_554 S
C167 C168 1.408 . S
C167 H194 0.930 . S
C168 C163 1.348 . S
C168 C167 1.408 . S
C168 H195 0.930 . S
C169 O182 1.281 . S
C169 O183 1.254 . S
C170 O184 1.236 . S
C170 O185 1.266 . S
C171 Tb161 2.809 . S
C171 C172 1.514 . S
C171 O186 1.248 . S
C171 O187 1.266 . S
C172 C171 1.514 . S
C172 C173 1.359 . S
C172 C177 1.348 . S
C173 C172 1.359 . S
C173 C174 1.380 . S
C173 H196 0.929 . S
C174 C173 1.380 . S
C174 C175 1.347 . S
C174 H197 0.931 . S
C175 C174 1.347 . S
C175 C176 1.369 . S
C176 C175 1.369 . S
C176 C177 1.408 . S
C176 H198 0.930 . S
C177 C172 1.348 . S
C177 C176 1.408 . S
C177 H199 0.930 . S
C178 O188 1.281 . S
C178 O189 1.254 . S
C179 O190 1.236 . S
C179 O191 1.266 . S
O180 Tb160 2.484 . S
O180 C162 1.248 . S
O181 Tb160 2.440 . S
O181 C162 1.266 . S
O182 Tb160 2.658 . S
O182 Tb161 2.325 . S
O182 C169 1.281 . S
O183 Tb160 2.409 . S
O183 C169 1.254 . S
O184 Tb160 2.378 . S
O184 C170 1.236 . S
O185 Tb161 2.341 . S
O185 C170 1.266 . S
O186 Tb161 2.484 . S
O186 C171 1.248 . S
O187 Tb161 2.440 . S
O187 C171 1.266 . S
O188 Tb160 2.325 . S
O188 Tb161 2.658 . S
O188 C178 1.281 . S
O189 Tb161 2.409 . S
O189 C178 1.254 . S
O190 Tb161 2.378 . S
O190 C179 1.236 . S
O191 Tb160 2.341 . S
O191 C179 1.266 . S
H192 C164 0.929 . S
H193 C165 0.931 1_556 S
H194 C167 0.930 . S
H195 C168 0.930 . S
H196 C173 0.929 . S
H197 C174 0.931 . S
H198 C176 0.930 . S
H199 C177 0.930 . S
Tb200 C202 2.809 . S
Tb200 O220 2.484 . S
Tb200 O221 2.440 . S
Tb200 O222 2.658 . S
Tb200 O223 2.409 . S
Tb200 O224 2.378 . S
Tb200 O228 2.325 . S
Tb200 O231 2.341 . S
Tb201 C211 2.809 . S
Tb201 O222 2.325 . S
Tb201 O225 2.341 . S
Tb201 O226 2.484 . S
Tb201 O227 2.440 . S
Tb201 O228 2.658 . S
Tb201 O229 2.409 . S
Tb201 O230 2.378 . S
C202 Tb200 2.809 . S
C202 C203 1.514 . S
C202 O220 1.248 . S
C202 O221 1.266 . S
C203 C202 1.514 . S
C203 C204 1.359 . S
C203 C208 1.348 . S
C204 C203 1.359 . S
C204 C205 1.380 . S
C204 H232 0.929 . S
C205 C204 1.380 . S
C205 C206 1.347 . S
C205 H233 0.931 . S
C206 C205 1.347 . S
C206 C207 1.369 . S
C207 C206 1.369 . S
C207 C208 1.408 . S
C207 H234 0.930 . S
C208 C203 1.348 . S
C208 C207 1.408 . S
C208 H235 0.930 . S
C209 O222 1.281 . S
C209 O223 1.254 . S
C210 O224 1.236 . S
C210 O225 1.266 . S
C211 Tb201 2.809 . S
C211 C212 1.514 . S
C211 O226 1.248 . S
C211 O227 1.266 . S
C212 C211 1.514 . S
C212 C213 1.359 . S
C212 C217 1.348 . S
C213 C212 1.359 . S
C213 C214 1.380 1_556 S
C213 H236 0.929 . S
C214 C213 1.380 1_554 S
C214 C215 1.347 . S
C214 H237 0.931 . S
C215 C214 1.347 . S
C215 C216 1.369 1_554 S
C216 C215 1.369 1_556 S
C216 C217 1.408 . S
C216 H238 0.930 1_556 S
C217 C212 1.348 . S
C217 C216 1.408 . S
C217 H239 0.930 . S
C218 O228 1.281 . S
C218 O229 1.254 . S
C219 O230 1.236 . S
C219 O231 1.266 . S
O220 Tb200 2.484 . S
O220 C202 1.248 . S
O221 Tb200 2.440 . S
O221 C202 1.266 . S
O222 Tb200 2.658 . S
O222 Tb201 2.325 . S
O222 C209 1.281 . S
O223 Tb200 2.409 . S
O223 C209 1.254 . S
O224 Tb200 2.378 . S
O224 C210 1.236 . S
O225 Tb201 2.341 . S
O225 C210 1.266 . S
O226 Tb201 2.484 . S
O226 C211 1.248 . S
O227 Tb201 2.440 . S
O227 C211 1.266 . S
O228 Tb200 2.325 . S
O228 Tb201 2.658 . S
O228 C218 1.281 . S
O229 Tb201 2.409 . S
O229 C218 1.254 . S
O230 Tb201 2.378 . S
O230 C219 1.236 . S
O231 Tb200 2.341 . S
O231 C219 1.266 . S
H232 C204 0.929 . S
H233 C205 0.931 . S
H234 C207 0.930 . S
H235 C208 0.930 . S
H236 C213 0.929 . S
H237 C214 0.931 . S
H238 C216 0.930 1_554 S
H239 C217 0.930 . S
H240 C246 0.930 . S
H241 C249 0.930 . S
H242 C250 0.930 . S
H243 C251 0.930 . S
H244 C254 0.930 . S
H245 C255 0.930 . S
C246 H240 0.930 . S
C246 C247 1.355 . S
C246 C248 1.415 . S
C247 C246 1.355 . S
C247 C249 1.419 . S
C248 C246 1.415 . S
C248 C253 1.425 . S
C248 C255 1.409 . S
C249 H241 0.930 . S
C249 C247 1.419 . S
C249 C250 1.362 . S
C250 H242 0.930 . S
C250 C249 1.362 . S
C250 C253 1.409 . S
C251 H243 0.930 . S
C251 C252 1.355 . S
C251 C253 1.415 . S
C252 C251 1.355 . S
C252 C254 1.419 . S
C253 C248 1.425 . S
C253 C250 1.409 . S
C253 C251 1.415 . S
C254 H244 0.930 . S
C254 C252 1.419 . S
C254 C255 1.362 . S
C255 H245 0.930 . S
C255 C248 1.409 . S
C255 C254 1.362 . S
H256 C262 0.930 . S
H257 C265 0.930 . S
H258 C266 0.930 . S
H259 C267 0.930 . S
H260 C270 0.930 . S
H261 C271 0.930 . S
C262 H256 0.930 . S
C262 C263 1.355 . S
C262 C264 1.415 . S
C263 C262 1.355 . S
C263 C265 1.419 . S
C264 C262 1.415 . S
C264 C269 1.425 1_455 S
C264 C271 1.409 . S
C265 H257 0.930 . S
C265 C263 1.419 . S
C265 C266 1.362 1_455 S
C266 H258 0.930 . S
C266 C265 1.362 1_655 S
C266 C269 1.409 . S
C267 H259 0.930 . S
C267 C268 1.355 . S
C267 C269 1.415 . S
C268 C267 1.355 . S
C268 C270 1.419 . S
C269 C264 1.425 1_655 S
C269 C266 1.409 . S
C269 C267 1.415 . S
C270 H260 0.930 . S
C270 C268 1.419 . S
C270 C271 1.362 1_655 S
C271 H261 0.930 . S
C271 C264 1.409 . S
C271 C270 1.362 1_455 S
H272 C278 0.930 1_565 S
H273 C281 0.930 . S
H274 C282 0.930 . S
H275 C283 0.930 . S
H276 C286 0.930 . S
H277 C287 0.930 . S
C278 H272 0.930 1_545 S
C278 C279 1.355 . S
C278 C280 1.415 1_545 S
C279 C278 1.355 . S
C279 C281 1.419 . S
C280 C278 1.415 1_565 S
C280 C285 1.425 1_565 S
C280 C287 1.409 . S
C281 H273 0.930 . S
C281 C279 1.419 . S
C281 C282 1.362 . S
C282 H274 0.930 . S
C282 C281 1.362 . S
C282 C285 1.409 . S
C283 H275 0.930 . S
C283 C284 1.355 . S
C283 C285 1.415 1_565 S
C284 C283 1.355 . S
C284 C286 1.419 . S
C285 C280 1.425 1_545 S
C285 C282 1.409 . S
C285 C283 1.415 1_545 S
C286 H276 0.930 . S
C286 C284 1.419 . S
C286 C287 1.362 . S
C287 H277 0.930 . S
C287 C280 1.409 . S
C287 C286 1.362 . S
H288 C294 0.930 . S
H289 C297 0.930 . S
H290 C298 0.930 . S
H291 C299 0.930 . S
H292 C302 0.930 . S
H293 C303 0.930 . S
C294 H288 0.930 . S
C294 C295 1.355 . S
C294 C296 1.415 . S
C295 C294 1.355 . S
C295 C297 1.419 . S
C296 C294 1.415 . S
C296 C301 1.425 . S
C296 C303 1.409 . S
C297 H289 0.930 . S
C297 C295 1.419 . S
C297 C298 1.362 . S
C298 H290 0.930 . S
C298 C297 1.362 . S
C298 C301 1.409 . S
C299 H291 0.930 . S
C299 C300 1.355 . S
C299 C301 1.415 . S
C300 C299 1.355 . S
C300 C302 1.419 . S
C301 C296 1.425 . S
C301 C298 1.409 . S
C301 C299 1.415 . S
C302 H292 0.930 . S
C302 C300 1.419 . S
C302 C303 1.362 . S
C303 H293 0.930 . S
C303 C296 1.409 . S
C303 C302 1.362 . S
H304 C310 0.930 . S
H305 C313 0.930 . S
H306 C314 0.930 . S
H307 C315 0.930 . S
H308 C318 0.930 . S
H309 C319 0.930 . S
C310 H304 0.930 . S
C310 C311 1.355 . S
C310 C312 1.415 . S
C311 C310 1.355 . S
C311 C313 1.419 . S
C312 C310 1.415 . S
C312 C317 1.425 1_455 S
C312 C319 1.409 . S
C313 H305 0.930 . S
C313 C311 1.419 . S
C313 C314 1.362 1_455 S
C314 H306 0.930 . S
C314 C313 1.362 1_655 S
C314 C317 1.409 . S
C315 H307 0.930 . S
C315 C316 1.355 . S
C315 C317 1.415 . S
C316 C315 1.355 . S
C316 C318 1.419 . S
C317 C312 1.425 1_655 S
C317 C314 1.409 . S
C317 C315 1.415 . S
C318 H308 0.930 . S
C318 C316 1.419 . S
C318 C319 1.362 1_655 S
C319 H309 0.930 . S
C319 C312 1.409 . S
C319 C318 1.362 1_455 S
H320 C326 0.930 . S
H321 C329 0.930 . S
H322 C330 0.930 . S
H323 C331 0.930 . S
H324 C334 0.930 . S
H325 C335 0.930 . S
C326 H320 0.930 . S
C326 C327 1.355 . S
C326 C328 1.415 . S
C327 C326 1.355 . S
C327 C329 1.419 . S
C328 C326 1.415 . S
C328 C333 1.428 1_545 S
C328 C335 1.409 1_545 S
C329 H321 0.930 . S
C329 C327 1.419 . S
C329 C330 1.362 . S
C330 H322 0.930 . S
C330 C329 1.362 . S
C330 C333 1.403 1_545 S
C331 H323 0.930 . S
C331 C332 1.355 . S
C331 C333 1.418 . S
C332 C331 1.355 . S
C332 C334 1.419 . S
C333 C328 1.428 1_565 S
C333 C330 1.403 1_565 S
C333 C331 1.418 . S
C334 H324 0.930 . S
C334 C332 1.419 . S
C334 C335 1.362 . S
C335 H325 0.930 . S
C335 C328 1.409 1_565 S
C335 C334 1.362 . S
H336 C342 0.930 . S
H337 C345 0.930 . S
H338 C346 0.930 . S
H339 C347 0.930 . S
H340 C350 0.930 . S
H341 C351 0.930 . S
C342 H336 0.930 . S
C342 C343 1.355 . S
C342 C344 1.415 . S
C343 C342 1.355 . S
C343 C345 1.419 . S
C344 C342 1.415 . S
C344 C349 1.425 . S
C344 C351 1.409 . S
C345 H337 0.930 . S
C345 C343 1.419 . S
C345 C346 1.362 . S
C346 H338 0.930 . S
C346 C345 1.362 . S
C346 C349 1.409 . S
C347 H339 0.930 . S
C347 C348 1.355 . S
C347 C349 1.415 . S
C348 C347 1.355 . S
C348 C350 1.419 . S
C349 C344 1.425 . S
C349 C346 1.409 . S
C349 C347 1.415 . S
C350 H340 0.930 . S
C350 C348 1.419 . S
C350 C351 1.362 . S
C351 H341 0.930 . S
C351 C344 1.409 . S
C351 C350 1.362 . S
H352 C358 0.930 . S
H353 C361 0.930 . S
H354 C362 0.930 . S
H355 C363 0.930 . S
H356 C366 0.930 . S
H357 C367 0.930 . S
C358 H352 0.930 . S
C358 C359 1.355 . S
C358 C360 1.415 . S
C359 C358 1.355 . S
C359 C361 1.419 . S
C360 C358 1.415 . S
C360 C365 1.425 . S
C360 C367 1.409 . S
C361 H353 0.930 . S
C361 C359 1.419 . S
C361 C362 1.362 . S
C362 H354 0.930 . S
C362 C361 1.362 . S
C362 C365 1.409 . S
C363 H355 0.930 . S
C363 C364 1.355 . S
C363 C365 1.415 . S
C364 C363 1.355 . S
C364 C366 1.419 . S
C365 C360 1.425 . S
C365 C362 1.409 . S
C365 C363 1.415 . S
C366 H356 0.930 . S
C366 C364 1.419 . S
C366 C367 1.362 . S
C367 H357 0.930 . S
C367 C360 1.409 . S
C367 C366 1.362 . S
H368 C374 0.930 . S
H369 C377 0.930 . S
H370 C378 0.930 . S
H371 C379 0.930 . S
H372 C382 0.930 . S
H373 C383 0.930 . S
C374 H368 0.930 . S
C374 C375 1.355 . S
C374 C376 1.415 . S
C375 C374 1.355 . S
C375 C377 1.419 . S
C376 C374 1.415 . S
C376 C381 1.425 . S
C376 C383 1.409 . S
C377 H369 0.930 . S
C377 C375 1.419 . S
C377 C378 1.362 . S
C378 H370 0.930 . S
C378 C377 1.362 . S
C378 C381 1.409 . S
C379 H371 0.930 . S
C379 C380 1.355 . S
C379 C381 1.415 . S
C380 C379 1.355 . S
C380 C382 1.419 . S
C381 C376 1.425 . S
C381 C378 1.409 . S
C381 C379 1.415 . S
C382 H372 0.930 . S
C382 C380 1.419 . S
C382 C383 1.362 . S
C383 H373 0.930 . S
C383 C376 1.409 . S
C383 C382 1.362 . S
H384 C390 0.930 . S
H385 C393 0.930 . S
H386 C394 0.930 . S
H387 C395 0.930 . S
H388 C398 0.930 . S
H389 C399 0.930 . S
C390 H384 0.930 . S
C390 C391 1.355 . S
C390 C392 1.415 . S
C391 C390 1.355 . S
C391 C393 1.419 . S
C392 C390 1.415 . S
C392 C397 1.425 . S
C392 C399 1.409 . S
C393 H385 0.930 . S
C393 C391 1.419 . S
C393 C394 1.362 . S
C394 H386 0.930 . S
C394 C393 1.362 . S
C394 C397 1.409 . S
C395 H387 0.930 . S
C395 C396 1.355 . S
C395 C397 1.415 . S
C396 C395 1.355 . S
C396 C398 1.419 . S
C397 C392 1.425 . S
C397 C394 1.409 . S
C397 C395 1.415 . S
C398 H388 0.930 . S
C398 C396 1.419 . S
C398 C399 1.362 . S
C399 H389 0.930 . S
C399 C392 1.409 . S
C399 C398 1.362 . S
H400 C406 0.930 . S
H401 C409 0.930 . S
H402 C410 0.930 . S
H403 C411 0.930 . S
H404 C414 0.930 . S
H405 C415 0.930 . S
C406 H400 0.930 . S
C406 C407 1.355 . S
C406 C408 1.415 . S
C407 C406 1.355 . S
C407 C409 1.419 . S
C408 C406 1.415 . S
C408 C413 1.425 . S
C408 C415 1.409 . S
C409 H401 0.930 . S
C409 C407 1.419 . S
C409 C410 1.362 . S
C410 H402 0.930 . S
C410 C409 1.362 . S
C410 C413 1.409 . S
C411 H403 0.930 . S
C411 C412 1.355 . S
C411 C413 1.415 . S
C412 C411 1.355 . S
C412 C414 1.419 . S
C413 C408 1.425 . S
C413 C410 1.409 . S
C413 C411 1.415 . S
C414 H404 0.930 . S
C414 C412 1.419 . S
C414 C415 1.362 . S
C415 H405 0.930 . S
C415 C408 1.409 . S
C415 C414 1.362 . S
H416 C422 0.930 . S
H417 C425 0.930 . S
H418 C426 0.930 . S
H419 C427 0.930 . S
H420 C430 0.930 . S
H421 C431 0.930 . S
C422 H416 0.930 . S
C422 C423 1.355 . S
C422 C424 1.415 . S
C423 C422 1.355 . S
C423 C425 1.419 . S
C424 C422 1.415 . S
C424 C429 1.425 . S
C424 C431 1.409 . S
C425 H417 0.930 . S
C425 C423 1.419 . S
C425 C426 1.362 . S
C426 H418 0.930 . S
C426 C425 1.362 . S
C426 C429 1.409 . S
C427 H419 0.930 . S
C427 C428 1.355 . S
C427 C429 1.415 . S
C428 C427 1.355 . S
C428 C430 1.419 . S
C429 C424 1.425 . S
C429 C426 1.409 . S
C429 C427 1.415 . S
C430 H420 0.930 . S
C430 C428 1.419 . S
C430 C431 1.362 . S
C431 H421 0.930 . S
C431 C424 1.409 . S
C431 C430 1.362 . S
H432 C438 0.930 . S
H433 C441 0.930 . S
H434 C442 0.930 . S
H435 C443 0.930 . S
H436 C446 0.930 . S
H437 C447 0.930 . S
C438 H432 0.930 . S
C438 C439 1.355 . S
C438 C440 1.415 . S
C439 C438 1.355 . S
C439 C441 1.419 . S
C440 C438 1.415 . S
C440 C445 1.425 . S
C440 C447 1.409 . S
C441 H433 0.930 . S
C441 C439 1.419 . S
C441 C442 1.362 . S
C442 H434 0.930 . S
C442 C441 1.362 . S
C442 C445 1.409 . S
C443 H435 0.930 . S
C443 C444 1.355 . S
C443 C445 1.415 . S
C444 C443 1.355 . S
C444 C446 1.419 . S
C445 C440 1.425 . S
C445 C442 1.409 . S
C445 C443 1.415 . S
C446 H436 0.930 . S
C446 C444 1.419 . S
C446 C447 1.362 . S
C447 H437 0.930 . S
C447 C440 1.409 . S
C447 C446 1.362 . S
H448 C454 0.930 . S
H449 C457 0.930 . S
H450 C458 0.930 . S
H451 C459 0.930 . S
H452 C462 0.930 . S
H453 C463 0.930 . S
C454 H448 0.930 . S
C454 C455 1.355 . S
C454 C456 1.415 . S
C455 C454 1.355 . S
C455 C457 1.419 . S
C456 C454 1.415 . S
C456 C461 1.425 . S
C456 C463 1.409 . S
C457 H449 0.930 . S
C457 C455 1.419 . S
C457 C458 1.362 . S
C458 H450 0.930 . S
C458 C457 1.362 . S
C458 C461 1.409 . S
C459 H451 0.930 . S
C459 C460 1.355 . S
C459 C461 1.415 . S
C460 C459 1.355 . S
C460 C462 1.419 . S
C461 C456 1.425 . S
C461 C458 1.409 . S
C461 C459 1.415 . S
C462 H452 0.930 . S
C462 C460 1.419 . S
C462 C463 1.362 . S
C463 H453 0.930 . S
C463 C456 1.409 . S
C463 C462 1.362 . S
H464 C470 0.930 . S
H465 C473 0.930 . S
H466 C474 0.930 . S
H467 C475 0.930 . S
H468 C478 0.930 . S
H469 C479 0.930 . S
C470 H464 0.930 . S
C470 C471 1.355 . S
C470 C472 1.415 . S
C471 C470 1.355 . S
C471 C473 1.419 . S
C472 C470 1.415 . S
C472 C477 1.425 . S
C472 C479 1.409 . S
C473 H465 0.930 . S
C473 C471 1.419 . S
C473 C474 1.362 . S
C474 H466 0.930 . S
C474 C473 1.362 . S
C474 C477 1.409 . S
C475 H467 0.930 . S
C475 C476 1.355 . S
C475 C477 1.415 . S
C476 C475 1.355 . S
C476 C478 1.419 . S
C477 C472 1.425 . S
C477 C474 1.409 . S
C477 C475 1.415 . S
C478 H468 0.930 . S
C478 C476 1.419 . S
C478 C479 1.362 . S
C479 H469 0.930 . S
C479 C472 1.409 . S
C479 C478 1.362 . S
H480 C486 0.930 . S
H481 C489 0.930 . S
H482 C490 0.930 . S
H483 C491 0.930 . S
H484 C494 0.930 . S
H485 C495 0.930 . S
C486 H480 0.930 . S
C486 C487 1.355 . S
C486 C488 1.415 . S
C487 C486 1.355 . S
C487 C489 1.419 . S
C488 C486 1.415 . S
C488 C493 1.425 . S
C488 C495 1.409 . S
C489 H481 0.930 . S
C489 C487 1.419 . S
C489 C490 1.362 . S
C490 H482 0.930 . S
C490 C489 1.362 . S
C490 C493 1.409 . S
C491 H483 0.930 . S
C491 C492 1.355 . S
C491 C493 1.415 . S
C492 C491 1.355 . S
C492 C494 1.419 . S
C493 C488 1.425 . S
C493 C490 1.409 . S
C493 C491 1.415 . S
C494 H484 0.930 . S
C494 C492 1.419 . S
C494 C495 1.362 . S
C495 H485 0.930 . S
C495 C488 1.409 . S
C495 C494 1.362 . S
H496 C502 0.930 . S
H497 C505 0.930 . S
H498 C506 0.930 . S
H499 C507 0.930 . S
H500 C510 0.930 . S
H501 C511 0.930 . S
C502 H496 0.930 . S
C502 C503 1.355 . S
C502 C504 1.415 . S
C503 C502 1.355 . S
C503 C505 1.419 . S
C504 C502 1.415 . S
C504 C509 1.425 . S
C504 C511 1.409 . S
C505 H497 0.930 . S
C505 C503 1.419 . S
C505 C506 1.362 . S
C506 H498 0.930 . S
C506 C505 1.362 . S
C506 C509 1.409 . S
C507 H499 0.930 . S
C507 C508 1.355 . S
C507 C509 1.415 . S
C508 C507 1.355 . S
C508 C510 1.419 . S
C509 C504 1.425 . S
C509 C506 1.409 . S
C509 C507 1.415 . S
C510 H500 0.930 . S
C510 C508 1.419 . S
C510 C511 1.362 . S
C511 H501 0.930 . S
C511 C504 1.409 . S
C511 C510 1.362 . S
H512 C518 0.930 . S
H513 C521 0.930 . S
H514 C522 0.930 . S
H515 C523 0.930 . S
H516 C526 0.930 . S
H517 C527 0.930 . S
C518 H512 0.930 . S
C518 C519 1.355 . S
C518 C520 1.415 . S
C519 C518 1.355 . S
C519 C521 1.419 . S
C520 C518 1.415 . S
C520 C525 1.425 . S
C520 C527 1.409 . S
C521 H513 0.930 . S
C521 C519 1.419 . S
C521 C522 1.362 . S
C522 H514 0.930 . S
C522 C521 1.362 . S
C522 C525 1.409 . S
C523 H515 0.930 . S
C523 C524 1.355 . S
C523 C525 1.415 . S
C524 C523 1.355 . S
C524 C526 1.419 . S
C525 C520 1.425 . S
C525 C522 1.409 . S
C525 C523 1.415 . S
C526 H516 0.930 . S
C526 C524 1.419 . S
C526 C527 1.362 . S
C527 H517 0.930 . S
C527 C520 1.409 . S
C527 C526 1.362 . S
C247 C209 1.346 . S
C252 C10 1.455 . S
C263 C9 1.365 . S
C268 C50 1.459 . S
C279 C49 1.361 . S
C284 C90 1.450 . S
C295 C89 1.417 . S
C300 C130 1.447 . S
C311 C170 1.459 . S
C316 C129 1.343 . S
C327 C210 1.454 . S
C332 C169 1.348 . S
C343 C6 1.737 . S
C348 C15 1.737 . S
C359 C46 1.723 . S
C364 C55 1.723 . S
C375 C86 1.716 . S
C380 C95 1.716 . S
C391 C126 1.715 . S
C396 C135 1.715 . S
C407 C175 1.705 . S
C412 C166 1.705 . S
C423 C206 1.713 . S
C428 C215 1.713 . S
C439 C19 1.734 . S
C444 C178 1.740 . S
C455 C59 1.754 . S
C460 C218 1.757 . S
C471 C18 1.758 . S
C476 C99 1.757 . S
C487 C58 1.737 . S
C492 C139 1.731 . S
C503 C179 1.743 . S
C508 C98 1.748 . S
C519 C138 1.756 . S
C524 C219 1.753 . S
