# Generated by pormake.
# Topology uom, (4)-cn, num edge types: 1
# Building blocks:
#     Node 0, Type 0, BuildingBlock: KOZSID_clean_sbu_0, # of connection points: 4
#     Node 1, Type 0, BuildingBlock: KOZSID_clean_sbu_0, # of connection points: 4
#     Node 2, Type 0, BuildingBlock: KOZSID_clean_sbu_0, # of connection points: 4
#     Node 3, Type 0, BuildingBlock: KOZSID_clean_sbu_0, # of connection points: 4
#     Node 4, Type 0, BuildingBlock: KOZSID_clean_sbu_0, # of connection points: 4
#     Node 5, Type 0, BuildingBlock: KOZSID_clean_sbu_0, # of connection points: 4
#     Edge 6, Type (0, 0), BuildingBlock: TEMPAE_clean_linker_10, # of connection points: 2
#     Edge 7, Type (0, 0), BuildingBlock: TEMPAE_clean_linker_10, # of connection points: 2
#     Edge 8, Type (0, 0), BuildingBlock: TEMPAE_clean_linker_10, # of connection points: 2
#     Edge 9, Type (0, 0), BuildingBlock: TEMPAE_clean_linker_10, # of connection points: 2
#     Edge 10, Type (0, 0), BuildingBlock: TEMPAE_clean_linker_10, # of connection points: 2
#     Edge 11, Type (0, 0), BuildingBlock: TEMPAE_clean_linker_10, # of connection points: 2
#     Edge 12, Type (0, 0), BuildingBlock: TEMPAE_clean_linker_10, # of connection points: 2
#     Edge 13, Type (0, 0), BuildingBlock: TEMPAE_clean_linker_10, # of connection points: 2
#     Edge 14, Type (0, 0), BuildingBlock: TEMPAE_clean_linker_10, # of connection points: 2
#     Edge 15, Type (0, 0), BuildingBlock: TEMPAE_clean_linker_10, # of connection points: 2
#     Edge 16, Type (0, 0), BuildingBlock: TEMPAE_clean_linker_10, # of connection points: 2
#     Edge 17, Type (0, 0), BuildingBlock: TEMPAE_clean_linker_10, # of connection points: 2
# Relax obj value: 0.150
# Max RMSD: 0.172
# Mean RMSD: 0.172
data_MOF--net-uom--node1-KOZSID_clean_sbu_0--edge1-TEMPAE_clean_linker_10
_symmetry_space_group_name_H-M    P1
_symmetry_Int_Tables_number       1
_symmetry_cell_setting            triclinic
loop_
_symmetry_equiv_pos_as_xyz
'x, y, z'
_cell_length_a     38.44005
_cell_length_b     38.39191
_cell_length_c     42.42033
_cell_angle_alpha  90.006685
_cell_angle_beta   89.987076
_cell_angle_gamma 119.88156
loop_
_atom_site_label
_atom_site_type_symbol
_atom_site_fract_x
_atom_site_fract_y
_atom_site_fract_z
_atom_type_partial_charge
C0 C 0.35576 0.12971 0.10544 0.0
C1 C 0.35314 0.10729 0.13195 0.0
C2 C 0.3534 0.07356 0.12143 0.0
C3 C 0.35567 0.07683 0.08917 0.0
N4 N 0.35657 0.1104 0.07882 0.0
Co5 Co 0.35776 0.12559 0.03396 0.0
N6 N 0.33878 0.06995 0.01914 0.0
C7 C 0.34095 0.04113 0.03557 0.0
C8 C 0.3256 0.00559 0.0192 0.0
C9 C 0.31322 0.01271 0.99072 0.0
C10 C 0.32157 0.05228 0.99135 0.0
N11 N 0.35856 0.14074 0.98915 0.0
C12 C 0.3394 0.11731 0.96384 0.0
C13 C 0.34741 0.14061 0.93688 0.0
C14 C 0.37298 0.17969 0.9457 0.0
C15 C 0.37897 0.17825 0.97748 0.0
N16 N 0.3773 0.18133 0.04864 0.0
C17 C 0.39665 0.21457 0.03077 0.0
C18 C 0.40742 0.24916 0.04742 0.0
C19 C 0.39412 0.23682 0.07762 0.0
C20 C 0.3757 0.19519 0.0777 0.0
N21 N 0.413 0.1369 0.03044 0.0
C22 C 0.48835 0.14267 0.02919 0.0
C23 C 0.46148 0.12521 1.00405 0.0
C24 C 0.42421 0.12293 1.00502 0.0
C25 C 0.47751 0.15931 0.05412 0.0
C26 C 0.4397 0.15607 0.05431 0.0
N27 N 0.30273 0.11376 0.0375 0.0
C28 C 0.25236 0.13215 0.02932 0.0
C29 C 0.22231 0.09369 0.03879 0.0
C30 C 0.23395 0.06606 0.04841 0.0
C31 C 0.27424 0.0771 0.04846 0.0
C32 C 0.29217 0.14119 0.02811 0.0
H33 H 0.28216 0.05545 0.05669 0.0
H34 H 0.31436 0.17025 0.01937 0.0
H35 H 0.40377 0.1082 0.98577 0.0
H36 H 0.43158 0.16786 0.07431 0.0
C37 C 0.34988 0.0463 0.06792 0.0
C38 C 0.35988 0.17011 0.10613 0.0
C39 C 0.31565 0.07304 0.96447 0.0
C40 C 0.39735 0.2114 0.99785 0.0
H41 H 0.3511 0.11427 0.15633 0.0
H42 H 0.35039 0.04876 0.1356 0.0
H43 H 0.32213 0.97736 0.02745 0.0
H44 H 0.29971 0.99132 0.97169 0.0
H45 H 0.33605 0.13062 0.91333 0.0
H46 H 0.38436 0.20612 0.93092 0.0
H47 H 0.42179 0.2796 0.03847 0.0
H48 H 0.39781 0.25626 0.09734 0.0
H49 H 0.46826 0.1116 0.98438 0.0
H50 H 0.49764 0.17387 0.07373 0.0
H51 H 0.24554 0.15529 0.02269 0.0
H52 H 0.21235 0.03574 0.05539 0.0
C53 C 0.3367 0.35825 0.4439 0.0
C54 C 0.34631 0.34581 0.47165 0.0
C55 C 0.37376 0.33419 0.46385 0.0
C56 C 0.37928 0.33998 0.43186 0.0
N57 N 0.3569 0.35439 0.41921 0.0
Co58 Co 0.35484 0.36591 0.37394 0.0
N59 N 0.37576 0.33023 0.36096 0.0
C60 C 0.39619 0.31827 0.37956 0.0
C61 C 0.40765 0.29424 0.36397 0.0
C62 C 0.39371 0.29118 0.33369 0.0
C63 C 0.37428 0.31345 0.33249 0.0
N64 N 0.35318 0.37773 0.32865 0.0
C65 C 0.35319 0.35693 0.30274 0.0
C66 C 0.34995 0.37526 0.27554 0.0
C67 C 0.34895 0.40902 0.2849 0.0
C68 C 0.35117 0.4094 0.31722 0.0
N69 N 0.3335 0.40115 0.38711 0.0
C70 C 0.33385 0.43058 0.36973 0.0
C71 C 0.31594 0.44916 0.38501 0.0
C72 C 0.30372 0.43012 0.41372 0.0
C73 C 0.31478 0.40083 0.4143 0.0
N74 N 0.40943 0.41104 0.37662 0.0
C75 C 0.48676 0.47699 0.37943 0.0
C76 C 0.47579 0.44906 0.35497 0.0
C77 C 0.43686 0.41646 0.35384 0.0
C78 C 0.45858 0.4711 0.40269 0.0
C79 C 0.42017 0.43771 0.40103 0.0
N80 N 0.30061 0.32141 0.37133 0.0
C81 C 0.23244 0.295 0.35481 0.0
C82 C 0.22214 0.25887 0.36988 0.0
C83 C 0.25163 0.25427 0.38545 0.0
C84 C 0.29088 0.28589 0.38565 0.0
C85 C 0.27195 0.32613 0.35603 0.0
H86 H 0.31336 0.28173 0.39748 0.0
H87 H 0.27924 0.35407 0.34475 0.0
H88 H 0.42885 0.39589 0.33432 0.0
H89 H 0.39903 0.43365 0.41936 0.0
C90 C 0.39801 0.32469 0.41228 0.0
C91 C 0.30974 0.37507 0.44162 0.0
C92 C 0.35827 0.32119 0.3034 0.0
C93 C 0.34346 0.43379 0.3375 0.0
H94 H 0.33456 0.34484 0.495 0.0
H95 H 0.38642 0.32105 0.47939 0.0
H96 H 0.42313 0.27961 0.37365 0.0
H97 H 0.39786 0.27488 0.31461 0.0
H98 H 0.34814 0.36532 0.25144 0.0
H99 H 0.34495 0.42961 0.26996 0.0
H100 H 0.31057 0.47237 0.37584 0.0
H101 H 0.28842 0.43692 0.43206 0.0
H102 H 0.49683 0.45295 0.33643 0.0
H103 H 0.46623 0.49209 0.42205 0.0
H104 H 0.21013 0.29917 0.34242 0.0
H105 H 0.2445 0.22621 0.39682 0.0
C106 C 0.07662 0.31214 0.77128 0.0
C107 C 0.09757 0.32088 0.79954 0.0
C108 C 0.13551 0.35212 0.7936 0.0
C109 C 0.13582 0.36063 0.76212 0.0
N110 N 0.10052 0.3364 0.7479 0.0
Co111 Co 0.0884 0.33888 0.70278 0.0
N112 N 0.14606 0.36912 0.69148 0.0
C113 C 0.1766 0.39012 0.71152 0.0
C114 C 0.21332 0.40748 0.69678 0.0
C115 C 0.20518 0.39668 0.66559 0.0
C116 C 0.16381 0.37315 0.66306 0.0
N117 N 0.07653 0.34184 0.65769 0.0
C118 C 0.09997 0.34828 0.63196 0.0
C119 C 0.07924 0.34631 0.60461 0.0
C120 C 0.04185 0.33887 0.6138 0.0
C121 C 0.04162 0.33647 0.64613 0.0
N122 N 0.03068 0.30831 0.71401 0.0
C123 C 0.00051 0.30634 0.69658 0.0
C124 C 0.96365 0.28331 0.71047 0.0
C125 C 0.97126 0.2703 0.73844 0.0
C126 C 0.01248 0.28609 0.74006 0.0
N127 N 0.08908 0.38928 0.71064 0.0
C128 C 0.09122 0.46191 0.72176 0.0
C129 C 0.11134 0.45761 0.69592 0.0
C130 C 0.10958 0.42098 0.69061 0.0
C131 C 0.06982 0.42919 0.7419 0.0
C132 C 0.06945 0.39322 0.73611 0.0
N133 N 0.08801 0.28909 0.69465 0.0
C134 C 0.06162 0.22716 0.66607 0.0
C135 C 0.09366 0.22258 0.67642 0.0
C136 C 0.12189 0.25113 0.69705 0.0
C137 C 0.11851 0.28413 0.70587 0.0
C138 C 0.05923 0.26059 0.67564 0.0
H139 H 0.14113 0.30616 0.72118 0.0
H140 H 0.03473 0.26395 0.66696 0.0
H141 H 0.12486 0.41833 0.67023 0.0
H142 H 0.05332 0.36862 0.75226 0.0
C143 C 0.16995 0.38599 0.74419 0.0
C144 C 0.03359 0.28268 0.76785 0.0
C145 C 0.14209 0.3576 0.63318 0.0
C146 C 0.00748 0.32101 0.66552 0.0
H147 H 0.08665 0.3064 0.82211 0.0
H148 H 0.16029 0.36588 0.81003 0.0
H149 H 0.24261 0.42438 0.70759 0.0
H150 H 0.22708 0.40518 0.64687 0.0
H151 H 0.08968 0.34937 0.58055 0.0
H152 H 0.01709 0.33357 0.59857 0.0
H153 H 0.93459 0.2758 0.70101 0.0
H154 H 0.9491 0.25179 0.75584 0.0
H155 H 0.12775 0.4822 0.67962 0.0
H156 H 0.05395 0.43158 0.76215 0.0
H157 H 0.03903 0.20556 0.65028 0.0
H158 H 0.14641 0.248 0.7064 0.0
C159 C 0.83252 0.05968 0.0992 0.0
C160 C 0.84111 0.08205 0.12671 0.0
C161 C 0.8505 0.12023 0.11791 0.0
C162 C 0.84735 0.11918 0.08561 0.0
N163 N 0.83669 0.08276 0.07368 0.0
Co164 Co 0.83 0.06841 0.02834 0.0
N165 N 0.86254 0.12545 0.01527 0.0
C166 C 0.87006 0.1574 0.03318 0.0
C167 C 0.89269 0.19324 0.01772 0.0
C168 C 0.89949 0.18307 0.98822 0.0
C169 C 0.88068 0.14143 0.98733 0.0
N170 N 0.82343 0.05396 0.983 0.0
C171 C 0.84486 0.07572 0.95766 0.0
C172 C 0.83017 0.05353 0.93015 0.0
C173 C 0.79808 0.01712 0.93865 0.0
C174 C 0.79502 0.01884 0.9708 0.0
N175 N 0.79727 0.01153 0.04156 0.0
C176 C 0.77103 0.98106 0.02335 0.0
C177 C 0.75334 0.94485 0.03896 0.0
C178 C 0.76952 0.95328 0.06878 0.0
C179 C 0.79636 0.99426 0.06966 0.0
N180 N 0.7819 0.07328 0.02697 0.0
C181 C 0.71751 0.08729 0.02809 0.0
C182 C 0.74521 0.10211 1.00343 0.0
C183 C 0.7769 0.09429 1.00307 0.0
C184 C 0.72158 0.06409 0.0516 0.0
C185 C 0.75423 0.05766 0.05074 0.0
N186 N 0.87786 0.06379 0.02992 0.0
C187 C 0.91049 0.02493 0.02308 0.0
C188 C 0.94596 0.05618 0.03598 0.0
C189 C 0.94654 0.0916 0.04508 0.0
C190 C 0.91207 0.09438 0.04255 0.0
C191 C 0.87709 0.02973 0.01962 0.0
H192 H 0.91313 0.12133 0.051 0.0
H193 H 0.85043 0.00559 0.00913 0.0
H194 H 0.79795 0.1062 0.98383 0.0
H195 H 0.75765 0.04091 0.06972 0.0
C196 C 0.86137 0.15267 0.0656 0.0
C197 C 0.81866 0.01635 0.09788 0.0
C198 C 0.87732 0.11805 0.95883 0.0
C199 C 0.77057 0.9864 0.99064 0.0
H200 H 0.84085 0.07203 0.15058 0.0
H201 H 0.86037 0.14607 0.13315 0.0
H202 H 0.90406 0.22321 0.02705 0.0
H203 H 0.91595 0.20388 0.96941 0.0
H204 H 0.84129 0.0626 0.90641 0.0
H205 H 0.78014 0.99189 0.92331 0.0
H206 H 0.73273 0.91552 0.02939 0.0
H207 H 0.76252 0.93181 0.08765 0.0
H208 H 0.74252 0.11984 0.98472 0.0
H209 H 0.70045 0.05218 0.07097 0.0
H210 H 0.90815 0.99679 0.01594 0.0
H211 H 0.9734 0.11735 0.05404 0.0
C212 C 0.88318 0.85456 0.43711 0.0
C213 C 0.87682 0.87032 0.46458 0.0
C214 C 0.85986 0.89275 0.45583 0.0
C215 C 0.8569 0.88964 0.42366 0.0
N216 N 0.87038 0.86618 0.41132 0.0
Co217 Co 0.87324 0.85625 0.3652 0.0
N218 N 0.83912 0.88026 0.35342 0.0
C219 C 0.8282 0.90092 0.37286 0.0
C220 C 0.80526 0.91454 0.35858 0.0
C221 C 0.80199 0.90252 0.32789 0.0
C222 C 0.82347 0.8824 0.32515 0.0
N223 N 0.87659 0.84691 0.319 0.0
C224 C 0.85807 0.85243 0.29364 0.0
C225 C 0.87084 0.84362 0.26567 0.0
C226 C 0.89864 0.83286 0.27356 0.0
C227 C 0.90141 0.83573 0.30576 0.0
N228 N 0.90719 0.83212 0.37703 0.0
C229 C 0.92789 0.82215 0.35685 0.0
C230 C 0.94839 0.80586 0.3713 0.0
C231 C 0.94076 0.80601 0.40274 0.0
C232 C 0.91619 0.82277 0.40575 0.0
N233 N 0.82513 0.80354 0.36894 0.0
C234 C 0.75562 0.72868 0.37357 0.0
C235 C 0.78831 0.73324 0.3559 0.0
C236 C 0.82294 0.77083 0.35417 0.0
C237 C 0.75838 0.76204 0.3891 0.0
C238 C 0.79321 0.79921 0.38626 0.0
N239 N 0.92116 0.90896 0.36158 0.0
C240 C 0.98297 0.96087 0.38341 0.0
C241 C 0.9851 0.98716 0.35978 0.0
C242 C 0.95591 0.97336 0.33631 0.0
C243 C 0.92447 0.93407 0.33749 0.0
C244 C 0.95066 0.92187 0.38391 0.0
H245 H 0.90255 0.92464 0.31919 0.0
H246 H 0.94926 0.90274 0.40288 0.0
H247 H 0.84772 0.77327 0.34072 0.0
H248 H 0.79398 0.82439 0.39793 0.0
C249 C 0.83835 0.90522 0.40469 0.0
C250 C 0.90577 0.83294 0.43646 0.0
C251 C 0.83286 0.87126 0.29447 0.0
C252 C 0.92476 0.82544 0.3244 0.0
H253 H 0.88461 0.86698 0.48845 0.0
H254 H 0.85056 0.90917 0.47115 0.0
H255 H 0.79262 0.93143 0.36915 0.0
H256 H 0.78691 0.9092 0.30931 0.0
H257 H 0.86199 0.84599 0.24191 0.0
H258 H 0.91495 0.82405 0.25768 0.0
H259 H 0.96641 0.79481 0.36027 0.0
H260 H 0.95268 0.79578 0.42142 0.0
H261 H 0.78718 0.70791 0.3437 0.0
H262 H 0.73343 0.75961 0.40273 0.0
H263 H 0.00534 0.97077 0.40191 0.0
H264 H 0.9572 0.99289 0.31735 0.0
C265 C 0.11982 0.87855 0.77613 0.0
C266 C 0.09887 0.86963 0.80437 0.0
C267 C 0.06025 0.84007 0.7979 0.0
C268 C 0.0597 0.83256 0.76617 0.0
N269 N 0.09554 0.85575 0.75238 0.0
Co270 Co 0.10784 0.85422 0.70718 0.0
N271 N 0.05042 0.82805 0.69526 0.0
C272 C 0.01919 0.8079 0.71492 0.0
C273 C 0.98285 0.79288 0.6999 0.0
C274 C 0.99193 0.8042 0.66889 0.0
C275 C 0.03347 0.8257 0.66672 0.0
N276 N 0.11999 0.85222 0.66199 0.0
C277 C 0.09741 0.84781 0.63608 0.0
C278 C 0.11827 0.84958 0.60883 0.0
C279 C 0.15464 0.85446 0.61823 0.0
C280 C 0.15428 0.85576 0.65058 0.0
N281 N 0.16529 0.88077 0.71917 0.0
C282 C 0.19482 0.88127 0.70183 0.0
C283 C 0.23166 0.90209 0.71622 0.0
C284 C 0.22469 0.91525 0.7444 0.0
C285 C 0.18384 0.90169 0.74563 0.0
N286 N 0.10303 0.80166 0.71346 0.0
C287 C 0.09815 0.72692 0.72074 0.0
C288 C 0.07862 0.73398 0.69574 0.0
C289 C 0.08173 0.7715 0.69237 0.0
C290 C 0.11951 0.75799 0.74242 0.0
C291 C 0.12132 0.79496 0.73849 0.0
N292 N 0.11257 0.90629 0.70072 0.0
C293 C 0.1449 0.97068 0.6754 0.0
C294 C 0.116 0.97867 0.68783 0.0
C295 C 0.08586 0.95036 0.70729 0.0
C296 C 0.08451 0.91415 0.71328 0.0
C297 C 0.14293 0.93437 0.68249 0.0
H298 H 0.06039 0.89222 0.72762 0.0
H299 H 0.16558 0.92874 0.67283 0.0
H300 H 0.06706 0.77615 0.67249 0.0
H301 H 0.13799 0.81831 0.7555 0.0
C302 C 0.02531 0.80993 0.74768 0.0
C303 C 0.16312 0.90664 0.773 0.0
C304 C 0.0558 0.84022 0.63691 0.0
C305 C 0.18774 0.86816 0.67035 0.0
H306 H 0.11034 0.88295 0.82723 0.0
H307 H 0.03523 0.82687 0.81416 0.0
H308 H 0.95327 0.7769 0.71038 0.0
H309 H 0.9705 0.79712 0.65001 0.0
H310 H 0.10859 0.84792 0.58468 0.0
H311 H 0.17918 0.85869 0.60317 0.0
H312 H 0.26041 0.90835 0.70686 0.0
H313 H 0.24701 0.93265 0.76204 0.0
H314 H 0.06099 0.71073 0.67875 0.0
H315 H 0.13547 0.7542 0.76193 0.0
H316 H 0.1688 0.99235 0.6605 0.0
H317 H 0.06302 0.95584 0.71716 0.0
C318 C 0.32989 0.20373 0.13833 0.0
C319 C 0.35669 0.18902 0.13623 0.0
C320 C 0.32863 0.2246 0.1653 0.0
C321 C 0.35464 0.23079 0.19106 0.0
C322 C 0.38152 0.21561 0.18912 0.0
C323 C 0.38265 0.19555 0.16161 0.0
C324 C 0.30005 0.24082 0.16593 0.0
C325 C 0.40959 0.22109 0.21595 0.0
C326 C 0.38211 0.31771 0.24851 0.0
C327 C 0.35606 0.2985 0.27389 0.0
C328 C 0.38132 0.29628 0.22126 0.0
C329 C 0.3547 0.25421 0.21957 0.0
C330 C 0.32879 0.23458 0.24542 0.0
C331 C 0.32971 0.25693 0.27215 0.0
C332 C 0.40928 0.31869 0.19433 0.0
C333 C 0.30048 0.18979 0.24505 0.0
H334 H 0.31033 0.19945 0.11852 0.0
H335 H 0.40441 0.18551 0.15974 0.0
H336 H 0.27993 0.22882 0.18669 0.0
H337 H 0.3172 0.27401 0.16833 0.0
H338 H 0.28137 0.233 0.14429 0.0
H339 H 0.42674 0.20529 0.21168 0.0
H340 H 0.43118 0.25352 0.21937 0.0
H341 H 0.39242 0.20967 0.23821 0.0
H342 H 0.40349 0.34957 0.25012 0.0
H343 H 0.31006 0.24185 0.29195 0.0
H344 H 0.39196 0.31304 0.17216 0.0
H345 H 0.43072 0.30765 0.19075 0.0
H346 H 0.4266 0.35161 0.19856 0.0
H347 H 0.28001 0.18145 0.22451 0.0
H348 H 0.28215 0.179 0.26688 0.0
H349 H 0.31778 0.17389 0.24244 0.0
C350 C 0.30185 0.39559 0.49638 0.0
C351 C 0.28431 0.37308 0.46905 0.0
C352 C 0.27835 0.39295 0.52275 0.0
C353 C 0.2361 0.36739 0.52178 0.0
C354 C 0.21824 0.34511 0.4939 0.0
C355 C 0.24256 0.34829 0.46788 0.0
C356 C 0.2988 0.41731 0.55179 0.0
C357 C 0.17345 0.31766 0.49164 0.0
C358 C 0.17991 0.33293 0.6004 0.0
C359 C 0.16469 0.35914 0.60394 0.0
C360 C 0.20269 0.33491 0.57368 0.0
C361 C 0.21076 0.36403 0.54993 0.0
C362 C 0.1954 0.39061 0.55353 0.0
C363 C 0.17284 0.38802 0.58055 0.0
C364 C 0.21851 0.30609 0.57105 0.0
C365 C 0.20319 0.42215 0.529 0.0
H366 H 0.33414 0.41506 0.49715 0.0
H367 H 0.22899 0.33103 0.44668 0.0
H368 H 0.28675 0.43749 0.55752 0.0
H369 H 0.29246 0.39704 0.57227 0.0
H370 H 0.33183 0.43582 0.5488 0.0
H371 H 0.16415 0.30264 0.46832 0.0
H372 H 0.16327 0.29427 0.51023 0.0
H373 H 0.15786 0.33501 0.49575 0.0
H374 H 0.17404 0.31092 0.61867 0.0
H375 H 0.16186 0.40891 0.58359 0.0
H376 H 0.25178 0.32308 0.57025 0.0
H377 H 0.20795 0.28876 0.54877 0.0
H378 H 0.20888 0.28465 0.5911 0.0
H379 H 0.23592 0.44324 0.52696 0.0
H380 H 0.18811 0.43965 0.53474 0.0
H381 H 0.19254 0.40782 0.50561 0.0
C382 C 0.87966 0.14642 0.90471 0.0
C383 C 0.89959 0.13967 0.9296 0.0
C384 C 0.90065 0.16853 0.87783 0.0
C385 C 0.9428 0.18482 0.87584 0.0
C386 C 0.96302 0.17808 0.90105 0.0
C387 C 0.94122 0.15575 0.92762 0.0
C388 C 0.87776 0.17496 0.85174 0.0
C389 C 0.00783 0.19492 0.90015 0.0
C390 C 0.9942 0.21576 0.79505 0.0
C391 C 0.01003 0.25746 0.79538 0.0
C392 C 0.97229 0.19176 0.82097 0.0
C393 C 0.96584 0.20984 0.84787 0.0
C394 C 0.98144 0.25202 0.848 0.0
C395 C 0.00314 0.27521 0.82176 0.0
C396 C 0.95616 0.14702 0.81963 0.0
C397 C 0.9753 0.27271 0.87593 0.0
H398 H 0.8476 0.13476 0.90649 0.0
H399 H 0.95674 0.15104 0.94705 0.0
H400 H 0.8886 0.20752 0.84902 0.0
H401 H 0.88315 0.16413 0.82901 0.0
H402 H 0.84494 0.15919 0.85631 0.0
H403 H 0.01897 0.18622 0.92119 0.0
H404 H 0.01621 0.18422 0.87871 0.0
H405 H 0.02334 0.22819 0.89884 0.0
H406 H -0.00076 0.20199 0.77455 0.0
H407 H 0.01495 0.30742 0.82185 0.0
H408 H 0.92309 0.13081 0.82261 0.0
H409 H 0.96878 0.13775 0.83931 0.0
H410 H 0.96349 0.13749 0.79704 0.0
H411 H 0.94276 0.26014 0.88034 0.0
H412 H 0.98931 0.30567 0.87241 0.0
H413 H 0.9883 0.26717 0.89741 0.0
C414 C 0.79456 0.98791 0.15224 0.0
C415 C 0.81975 0.99396 0.12643 0.0
C416 C 0.79542 0.96692 0.17924 0.0
C417 C 0.82198 0.95129 0.18049 0.0
C418 C 0.84698 0.9568 0.15412 0.0
C419 C 0.84543 0.9779 0.12741 0.0
C420 C 0.76814 0.96177 0.20658 0.0
C421 C 0.87575 0.94081 0.15427 0.0
C422 C 0.85362 0.93308 0.26154 0.0
C423 C 0.82932 0.89139 0.26521 0.0
C424 C 0.85158 0.95278 0.23419 0.0
C425 C 0.82448 0.93038 0.20971 0.0
C426 C 0.79978 0.88817 0.21336 0.0
C427 C 0.80253 0.8692 0.24103 0.0
C428 C 0.87855 0.99769 0.23151 0.0
C429 C 0.77046 0.86305 0.18799 0.0
H430 H 0.77421 -0.00023 0.15128 0.0
H431 H 0.86462 0.98224 0.10731 0.0
H432 H 0.74888 0.9294 0.21212 0.0
H433 H 0.78632 0.97646 0.22789 0.0
H434 H 0.74859 0.97482 0.2017 0.0
H435 H 0.89245 0.94671 0.13171 0.0
H436 H 0.89769 0.95489 0.17373 0.0
H437 H 0.8592 0.90795 0.15862 0.0
H438 H 0.87444 0.95034 0.28015 0.0
H439 H 0.78378 0.83698 0.2438 0.0
H440 H 0.86018 0.0124 0.22858 0.0
H441 H 0.89784 0.00493 0.2103 0.0
H442 H 0.89811 0.01074 0.2525 0.0
H443 H 0.74887 0.87375 0.18366 0.0
H444 H 0.7534 0.83069 0.19433 0.0
H445 H 0.78666 0.86637 0.16556 0.0
C446 C 0.02638 0.81 0.58385 0.0
C447 C 0.03385 0.83874 0.60723 0.0
C448 C 0.00544 0.80816 0.55604 0.0
C449 C 0.99075 0.83518 0.55165 0.0
C450 C -0.00249 0.86371 0.5756 0.0
C451 C 0.01892 0.86511 0.60305 0.0
C452 C -0.0008 0.77738 0.53125 0.0
C453 C 0.98215 0.89283 0.57223 0.0
C454 C 0.96925 0.85697 0.468 0.0
C455 C 0.9275 0.83214 0.46569 0.0
C456 C 0.99014 0.85793 0.49559 0.0
C457 C 0.96881 0.83392 0.52188 0.0
C458 C 0.92655 0.80883 0.51964 0.0
C459 C 0.90648 0.80812 0.49157 0.0
C460 C 0.0351 0.88486 0.49665 0.0
C461 C 0.90246 0.78303 0.54705 0.0
H462 H 0.03696 0.78887 0.58737 0.0
H463 H 0.02413 0.88695 0.62131 0.0
H464 H 0.96666 0.75724 0.52708 0.0
H465 H 0.01264 0.79262 0.5086 0.0
H466 H 0.01273 0.75878 0.53805 0.0
H467 H 0.98917 0.91262 0.59316 0.0
H468 H 0.99563 0.91192 0.5511 0.0
H469 H 0.94916 0.87612 0.56872 0.0
H470 H 0.98555 0.87593 0.44817 0.0
H471 H 0.87419 0.78913 0.48992 0.0
H472 H 0.04968 0.86687 0.50213 0.0
H473 H 0.04332 0.9074 0.51573 0.0
H474 H 0.0474 0.90095 0.47404 0.0
H475 H 0.91323 0.76204 0.55362 0.0
H476 H 0.86989 0.76527 0.54166 0.0
H477 H 0.90673 0.8022 0.56791 0.0
C478 C 0.25158 0.02498 0.93667 0.0
C479 C 0.29339 0.04953 0.93587 0.0
C480 C 0.23017 0.00192 0.91023 0.0
C481 C 0.25107 0.00322 0.88225 0.0
C482 C 0.29345 0.02783 0.88152 0.0
C483 C 0.31406 0.05039 0.90835 0.0
C484 C 0.18515 0.97601 0.9123 0.0
C485 C 0.3171 0.03022 0.8524 0.0
C486 C 0.20106 0.91606 0.82355 0.0
C487 C 0.18647 0.93174 0.80057 0.0
C488 C 0.22205 0.9389 0.85016 0.0
C489 C 0.22874 0.97852 0.85394 0.0
C490 C 0.21408 0.99443 0.83057 0.0
C491 C 0.19305 0.97082 0.80425 0.0
C492 C 0.2369 0.92053 0.87435 0.0
C493 C 0.22054 0.03643 0.83343 0.0
H494 H 0.23562 0.02388 0.95807 0.0
H495 H 0.34648 0.06869 0.9079 0.0
H496 H 0.17074 0.98479 0.89367 0.0
H497 H 0.17627 0.94411 0.90813 0.0
H498 H 0.17331 0.97843 0.93559 0.0
H499 H 0.34976 0.05127 0.85536 0.0
H500 H 0.31247 3e-05 0.84659 0.0
H501 H 0.30625 0.04024 0.83199 0.0
H502 H 0.19575 0.88572 0.82074 0.0
H503 H 0.1816 0.98284 0.78651 0.0
H504 H 0.22361 0.9199 0.89771 0.0
H505 H 0.26994 0.93917 0.87682 0.0
H506 H 0.22929 0.88944 0.86802 0.0
H507 H 0.20663 0.03921 0.85551 0.0
H508 H 0.20763 0.04455 0.81321 0.0
H509 H 0.25312 0.05843 0.83484 0.0
C510 C 0.16545 0.10077 0.01707 0.0
C511 C 0.17924 0.08236 0.03839 0.0
C512 C 0.12565 0.09229 0.01766 0.0
C513 C 0.09827 0.06264 0.03859 0.0
C514 C 0.11106 0.04195 0.05871 0.0
C515 C 0.15166 0.05307 0.0592 0.0
C516 C 0.1133 0.11603 0.9966 0.0
C517 C 0.08214 0.00863 0.08016 0.0
C518 C 0.01048 0.07411 0.06318 0.0
C519 C 0.98263 0.05283 0.03925 0.0
C520 C 0.04812 0.077 0.06358 0.0
C521 C 0.05703 0.05566 0.04088 0.0
C522 C 0.02771 0.03072 0.01872 0.0
C523 C 0.99122 0.0305 0.01755 0.0
C524 C 0.07915 0.10493 0.08702 0.0
C525 C 0.03546 0.00562 0.99541 0.0
H526 H 0.18569 0.12223 0.99998 0.0
H527 H 0.16156 0.03897 0.07632 0.0
H528 H 0.08993 0.0957 0.97976 0.0
H529 H 0.10016 0.13075 0.01101 0.0
H530 H 0.13891 0.13956 0.98294 0.0
H531 H 0.09483 0.98999 0.08884 0.0
H532 H 0.07512 0.02163 0.10088 0.0
H533 H 0.0535 0.98884 0.06776 0.0
H534 H 0.00356 0.08986 0.08107 0.0
H535 H 0.97025 0.01392 0.99887 0.0
H536 H 0.1057 0.12848 0.07425 0.0
H537 H 0.08959 0.08819 0.10185 0.0
H538 H 0.06744 0.11988 0.10274 0.0
H539 H 0.05536 0.02509 0.97633 0.0
H540 H 0.00723 0.98198 0.9845 0.0
H541 H 0.05081 0.99107 0.00705 0.0
C542 C 0.0071 0.05976 0.35889 0.0
C543 C 0.01696 0.02925 0.36013 0.0
C544 C 0.03711 0.10011 0.3601 0.0
C545 C 0.07758 0.10964 0.36216 0.0
C546 C 0.08765 0.07884 0.36295 0.0
C547 C 0.057 0.0388 0.36217 0.0
C548 C 0.02559 0.13239 0.35969 0.0
C549 C 0.13071 0.08815 0.36476 0.0
C550 C 0.16462 0.20936 0.33843 0.0
C551 C 0.18129 0.22491 0.36794 0.0
C552 C 0.12897 0.17264 0.33611 0.0
C553 C 0.10983 0.15176 0.36404 0.0
C554 C 0.12491 0.16911 0.39391 0.0
C555 C 0.16092 0.20555 0.39551 0.0
C556 C 0.11377 0.15471 0.30391 0.0
C557 C 0.1047 0.14787 0.42413 0.0
H558 H 0.97587 0.05196 0.35761 0.0
H559 H 0.06427 0.0149 0.36289 0.0
H560 H 0.03574 0.15017 0.38179 0.0
H561 H 0.04076 0.15347 0.33989 0.0
H562 H 0.99268 0.11978 0.35733 0.0
H563 H 0.13329 0.0606 0.36412 0.0
H564 H 0.14819 0.10783 0.34483 0.0
H565 H 0.14469 0.10466 0.38687 0.0
H566 H 0.18082 0.22461 0.31722 0.0
H567 H 0.17403 0.21818 0.41825 0.0
H568 H 0.08095 0.14264 0.3021 0.0
H569 H 0.1193 0.12926 0.30015 0.0
H570 H 0.12892 0.17698 0.28475 0.0
H571 H 0.07186 0.13597 0.4228 0.0
H572 H 0.11676 0.168 0.44494 0.0
H573 H 0.10947 0.12193 0.42778 0.0
C574 C 0.06321 0.14889 0.66801 0.0
C575 C 0.09703 0.18738 0.66715 0.0
C576 C 0.0672 0.1148 0.66495 0.0
C577 C 0.10595 0.1196 0.6614 0.0
C578 C 0.13969 0.15832 0.65764 0.0
C579 C 0.13476 0.19189 0.66039 0.0
C580 C 0.03044 0.07379 0.66847 0.0
C581 C 0.18144 0.16453 0.65367 0.0
C582 C 0.11873 0.04138 0.70507 0.0
C583 C 0.11686 0.01633 0.6805 0.0
C584 C 0.11662 0.07597 0.69889 0.0
C585 C 0.11182 0.08505 0.66738 0.0
C586 C 0.11083 0.06025 0.64235 0.0
C587 C 0.11366 0.02607 0.64924 0.0
C588 C 0.11845 0.10217 0.72616 0.0
C589 C 0.10522 0.0689 0.60859 0.0
H590 H 0.03397 0.1453 0.67316 0.0
H591 H 0.16078 0.22174 0.65883 0.0
H592 H 0.03069 0.05252 0.6509 0.0
H593 H 0.03038 0.06171 0.69225 0.0
H594 H 0.00227 0.0749 0.66567 0.0
H595 H 0.20306 0.19546 0.64561 0.0
H596 H 0.19203 0.15941 0.67662 0.0
H597 H 0.18157 0.14275 0.63656 0.0
H598 H 0.12147 0.0336 0.72917 0.0
H599 H 0.11194 0.00618 0.6304 0.0
H600 H 0.08952 0.10187 0.7282 0.0
H601 H 0.14224 0.13373 0.722 0.0
H602 H 0.12459 0.09201 0.74895 0.0
H603 H 0.07458 0.06439 0.60556 0.0
H604 H 0.10923 0.04905 0.59171 0.0
H605 H 0.12671 0.10064 0.60254 0.0
C606 C 0.64522 0.06704 0.02661 0.0
C607 C 0.68526 0.09724 0.0297 0.0
C608 C 0.61438 0.07649 0.02698 0.0
C609 C 0.62405 0.11694 0.03132 0.0
C610 C 0.66454 0.14739 0.03516 0.0
C611 C 0.6948 0.13719 0.03391 0.0
C612 C 0.57159 0.04334 0.02224 0.0
C613 C 0.67584 0.19064 0.04059 0.0
C614 C 0.54763 0.14464 1.00269 0.0
C615 C 0.52588 0.14057 0.03034 0.0
C616 C 0.58019 0.13779 1.00279 0.0
C617 C 0.59171 0.12733 0.03134 0.0
C618 C 0.57116 0.12505 0.05961 0.0
C619 C 0.53828 0.13138 0.05873 0.0
C620 C 0.60132 0.14031 0.97213 0.0
C621 C 0.58303 0.11456 0.09059 0.0
H622 H 0.6382 0.03621 0.02324 0.0
H623 H 0.72597 0.16033 0.03648 0.0
H624 H 0.55306 0.04162 0.04287 0.0
H625 H 0.55861 0.04999 1.00128 0.0
H626 H 0.56925 0.01355 0.0189 0.0
H627 H 0.70861 0.21039 0.04429 0.0
H628 H 0.66658 0.20203 0.02009 0.0
H629 H 0.65975 0.19288 0.06153 0.0
H630 H 0.53871 0.15245 0.98077 0.0
H631 H 0.52137 0.1276 0.08015 0.0
H632 H 0.59768 0.11047 0.96637 0.0
H633 H 0.63395 0.16165 0.97442 0.0
H634 H 0.58951 0.15009 0.95218 0.0
H635 H 0.57706 0.08317 0.0898 0.0
H636 H 0.56633 0.11751 0.11083 0.0
H637 H 0.61565 0.13426 0.09478 0.0
C638 C 0.69869 0.67014 0.34722 0.0
C639 C 0.71818 0.68964 0.37506 0.0
C640 C 0.66154 0.63455 0.3482 0.0
C641 C 0.6441 0.61785 0.37776 0.0
C642 C 0.66439 0.6368 0.40596 0.0
C643 C 0.70109 0.67283 0.40426 0.0
C644 C 0.64039 0.61556 0.31766 0.0
C645 C 0.64703 0.61939 0.43787 0.0
C646 C 0.53122 0.55112 0.38165 0.0
C647 C 0.52709 0.51283 0.38005 0.0
C648 C 0.56922 0.58562 0.3809 0.0
C649 C 0.60379 0.58151 0.37914 0.0
C650 C 0.59976 0.54281 0.37817 0.0
C651 C 0.5613 0.50883 0.37828 0.0
C652 C 0.57236 0.62643 0.38138 0.0
C653 C 0.63601 0.53735 0.37694 0.0
H654 H 0.7119 0.68351 0.32467 0.0
H655 H 0.71648 0.68796 0.42575 0.0
H656 H 0.63356 0.58391 0.31644 0.0
H657 H 0.61136 0.6152 0.31661 0.0
H658 H 0.6585 0.63185 0.29667 0.0
H659 H 0.6679 0.63636 0.45742 0.0
H660 H 0.61862 0.61973 0.44148 0.0
H661 H 0.63978 0.5876 0.43914 0.0
H662 H 0.50459 0.55404 0.38271 0.0
H663 H 0.5579 0.47906 0.37724 0.0
H664 H 0.58806 0.64347 0.35987 0.0
H665 H 0.5904 0.64397 0.40194 0.0
H666 H 0.5425 0.62435 0.38259 0.0
H667 H 0.65333 0.55105 0.35509 0.0
H668 H 0.6277 0.50519 0.37755 0.0
H669 H 0.65615 0.55301 0.39714 0.0
C670 C 0.09795 0.66735 0.69644 0.0
C671 C 0.0969 0.68769 0.7236 0.0
C672 C 0.09629 0.63016 0.69848 0.0
C673 C 0.09449 0.61321 0.72846 0.0
C674 C 0.09398 0.63368 0.75603 0.0
C675 C 0.09482 0.67054 0.75327 0.0
C676 C 0.09656 0.60904 0.66849 0.0
C677 C 0.09269 0.61672 0.7884 0.0
C678 C 0.05608 0.50112 0.72895 0.0
C679 C 0.092 0.50028 0.727 0.0
C680 C 0.05641 0.53778 0.73048 0.0
C681 C 0.09358 0.57419 0.73065 0.0
C682 C 0.12995 0.5733 0.73029 0.0
C683 C 0.12871 0.53628 0.7281 0.0
C684 C 0.01704 0.53759 0.73029 0.0
C685 C 0.17016 0.61147 0.73107 0.0
H686 H 0.10052 0.68069 0.67343 0.0
H687 H 0.09348 0.6857 0.77439 0.0
H688 H 0.12355 0.60562 0.66785 0.0
H689 H 0.06993 0.57843 0.66777 0.0
H690 H 0.09646 0.62557 0.64702 0.0
H691 H 0.09332 0.63681 0.80751 0.0
H692 H 0.0651 0.58706 0.79097 0.0
H693 H 0.11863 0.61186 0.79147 0.0
H694 H 0.02774 0.47317 0.72787 0.0
H695 H 0.15645 0.53541 0.72686 0.0
H696 H 0.01422 0.55111 0.708 0.0
H697 H 0.01601 0.55613 0.74993 0.0
H698 H 0.99086 0.50677 0.73237 0.0
H699 H 0.17469 0.62844 0.70885 0.0
H700 H 0.1954 0.60542 0.73389 0.0
H701 H 0.17116 0.63103 0.75072 0.0
loop_
_geom_bond_atom_site_label_1
_geom_bond_atom_site_label_2
_geom_bond_distance
_geom_bond_site_symmetry_2
_ccdc_geom_bond_type
C0 C1 1.443 . S
C0 N4 1.376 . S
C0 C38 1.389 . S
C1 C0 1.443 . S
C1 C2 1.340 . S
C1 H41 0.951 . S
C2 C1 1.340 . S
C2 C3 1.439 . S
C2 H42 0.950 . S
C3 C2 1.439 . S
C3 N4 1.374 . S
C3 C37 1.395 . S
N4 C0 1.376 . S
N4 C3 1.374 . S
N4 Co5 2.008 . S
Co5 N4 2.008 . S
Co5 N6 1.995 . S
Co5 N11 2.008 1_554 S
Co5 N16 1.995 . S
Co5 N21 2.282 . S
Co5 N27 2.282 . S
N6 Co5 1.995 . S
N6 C7 1.376 . S
N6 C10 1.383 1_554 S
C7 N6 1.376 . S
C7 C8 1.446 . S
C7 C37 1.391 . S
C8 C7 1.446 . S
C8 C9 1.339 1_554 S
C8 H43 0.949 . S
C9 C8 1.339 1_556 S
C9 C10 1.439 . S
C9 H44 0.950 . S
C10 N6 1.383 1_556 S
C10 C9 1.439 . S
C10 C39 1.392 . S
N11 Co5 2.008 1_556 S
N11 C12 1.376 . S
N11 C15 1.374 . S
C12 N11 1.376 . S
C12 C13 1.443 . S
C12 C39 1.389 . S
C13 C12 1.443 . S
C13 C14 1.340 . S
C13 H45 0.951 . S
C14 C13 1.340 . S
C14 C15 1.439 . S
C14 H46 0.950 . S
C15 N11 1.374 . S
C15 C14 1.439 . S
C15 C40 1.395 . S
N16 Co5 1.995 . S
N16 C17 1.376 . S
N16 C20 1.383 . S
C17 N16 1.376 . S
C17 C18 1.446 . S
C17 C40 1.391 1_554 S
C18 C17 1.446 . S
C18 C19 1.339 . S
C18 H47 0.949 . S
C19 C18 1.339 . S
C19 C20 1.439 . S
C19 H48 0.950 . S
C20 N16 1.383 . S
C20 C19 1.439 . S
C20 C38 1.392 . S
N21 Co5 2.282 . S
N21 C24 1.332 . S
N21 C26 1.332 . S
C22 C23 1.386 . S
C22 C25 1.388 . S
C23 C22 1.386 . S
C23 C24 1.382 . S
C23 H49 0.950 . S
C24 N21 1.332 . S
C24 C23 1.382 . S
C24 H35 0.952 . S
C25 C22 1.388 . S
C25 C26 1.382 . S
C25 H50 0.950 . S
C26 N21 1.332 . S
C26 C25 1.382 . S
C26 H36 0.948 . S
N27 Co5 2.282 . S
N27 C31 1.332 . S
N27 C32 1.332 . S
C28 C29 1.388 . S
C28 C32 1.382 . S
C28 H51 0.950 . S
C29 C28 1.388 . S
C29 C30 1.386 . S
C30 C29 1.386 . S
C30 C31 1.382 . S
C30 H52 0.950 . S
C31 N27 1.332 . S
C31 C30 1.382 . S
C31 H33 0.952 . S
C32 N27 1.332 . S
C32 C28 1.382 . S
C32 H34 0.948 . S
H33 C31 0.952 . S
H34 C32 0.948 . S
H35 C24 0.952 . S
H36 C26 0.948 . S
C37 C3 1.395 . S
C37 C7 1.391 . S
C38 C0 1.389 . S
C38 C20 1.392 . S
C39 C10 1.392 . S
C39 C12 1.389 . S
C40 C15 1.395 . S
C40 C17 1.391 1_556 S
H41 C1 0.951 . S
H42 C2 0.950 . S
H43 C8 0.949 . S
H44 C9 0.950 . S
H45 C13 0.951 . S
H46 C14 0.950 . S
H47 C18 0.949 . S
H48 C19 0.950 . S
H49 C23 0.950 . S
H50 C25 0.950 . S
H51 C28 0.950 . S
H52 C30 0.950 . S
C53 C54 1.443 . S
C53 N57 1.376 . S
C53 C91 1.389 . S
C54 C53 1.443 . S
C54 C55 1.340 . S
C54 H94 0.951 . S
C55 C54 1.340 . S
C55 C56 1.439 . S
C55 H95 0.950 . S
C56 C55 1.439 . S
C56 N57 1.374 . S
C56 C90 1.395 . S
N57 C53 1.376 . S
N57 C56 1.374 . S
N57 Co58 2.008 . S
Co58 N57 2.008 . S
Co58 N59 1.995 . S
Co58 N64 2.008 . S
Co58 N69 1.995 . S
Co58 N74 2.282 . S
Co58 N80 2.282 . S
N59 Co58 1.995 . S
N59 C60 1.376 . S
N59 C63 1.383 . S
C60 N59 1.376 . S
C60 C61 1.446 . S
C60 C90 1.391 . S
C61 C60 1.446 . S
C61 C62 1.339 . S
C61 H96 0.949 . S
C62 C61 1.339 . S
C62 C63 1.439 . S
C62 H97 0.950 . S
C63 N59 1.383 . S
C63 C62 1.439 . S
C63 C92 1.392 . S
N64 Co58 2.008 . S
N64 C65 1.376 . S
N64 C68 1.374 . S
C65 N64 1.376 . S
C65 C66 1.443 . S
C65 C92 1.389 . S
C66 C65 1.443 . S
C66 C67 1.340 . S
C66 H98 0.951 . S
C67 C66 1.340 . S
C67 C68 1.439 . S
C67 H99 0.950 . S
C68 N64 1.374 . S
C68 C67 1.439 . S
C68 C93 1.395 . S
N69 Co58 1.995 . S
N69 C70 1.376 . S
N69 C73 1.383 . S
C70 N69 1.376 . S
C70 C71 1.446 . S
C70 C93 1.391 . S
C71 C70 1.446 . S
C71 C72 1.339 . S
C71 H100 0.949 . S
C72 C71 1.339 . S
C72 C73 1.439 . S
C72 H101 0.950 . S
C73 N69 1.383 . S
C73 C72 1.439 . S
C73 C91 1.392 . S
N74 Co58 2.282 . S
N74 C77 1.332 . S
N74 C79 1.332 . S
C75 C76 1.386 . S
C75 C78 1.388 . S
C76 C75 1.386 . S
C76 C77 1.382 . S
C76 H102 0.950 . S
C77 N74 1.332 . S
C77 C76 1.382 . S
C77 H88 0.952 . S
C78 C75 1.388 . S
C78 C79 1.382 . S
C78 H103 0.950 . S
C79 N74 1.332 . S
C79 C78 1.382 . S
C79 H89 0.948 . S
N80 Co58 2.282 . S
N80 C84 1.332 . S
N80 C85 1.332 . S
C81 C82 1.388 . S
C81 C85 1.382 . S
C81 H104 0.950 . S
C82 C81 1.388 . S
C82 C83 1.386 . S
C83 C82 1.386 . S
C83 C84 1.382 . S
C83 H105 0.950 . S
C84 N80 1.332 . S
C84 C83 1.382 . S
C84 H86 0.952 . S
C85 N80 1.332 . S
C85 C81 1.382 . S
C85 H87 0.948 . S
H86 C84 0.952 . S
H87 C85 0.948 . S
H88 C77 0.952 . S
H89 C79 0.948 . S
C90 C56 1.395 . S
C90 C60 1.391 . S
C91 C53 1.389 . S
C91 C73 1.392 . S
C92 C63 1.392 . S
C92 C65 1.389 . S
C93 C68 1.395 . S
C93 C70 1.391 . S
H94 C54 0.951 . S
H95 C55 0.950 . S
H96 C61 0.949 . S
H97 C62 0.950 . S
H98 C66 0.951 . S
H99 C67 0.950 . S
H100 C71 0.949 . S
H101 C72 0.950 . S
H102 C76 0.950 . S
H103 C78 0.950 . S
H104 C81 0.950 . S
H105 C83 0.950 . S
C106 C107 1.443 . S
C106 N110 1.376 . S
C106 C144 1.389 1_455 S
C107 C106 1.443 . S
C107 C108 1.340 . S
C107 H147 0.951 . S
C108 C107 1.340 . S
C108 C109 1.439 . S
C108 H148 0.950 . S
C109 C108 1.439 . S
C109 N110 1.374 . S
C109 C143 1.395 . S
N110 C106 1.376 . S
N110 C109 1.374 . S
N110 Co111 2.008 . S
Co111 N110 2.008 . S
Co111 N112 1.995 . S
Co111 N117 2.008 . S
Co111 N122 1.995 1_455 S
Co111 N127 2.282 . S
Co111 N133 2.282 . S
N112 Co111 1.995 . S
N112 C113 1.376 . S
N112 C116 1.383 . S
C113 N112 1.376 . S
C113 C114 1.446 . S
C113 C143 1.391 . S
C114 C113 1.446 . S
C114 C115 1.339 . S
C114 H149 0.949 . S
C115 C114 1.339 . S
C115 C116 1.439 . S
C115 H150 0.950 . S
C116 N112 1.383 . S
C116 C115 1.439 . S
C116 C145 1.392 . S
N117 Co111 2.008 . S
N117 C118 1.376 . S
N117 C121 1.374 1_455 S
C118 N117 1.376 . S
C118 C119 1.443 . S
C118 C145 1.389 . S
C119 C118 1.443 . S
C119 C120 1.340 1_455 S
C119 H151 0.951 . S
C120 C119 1.340 1_655 S
C120 C121 1.439 . S
C120 H152 0.950 . S
C121 N117 1.374 1_655 S
C121 C120 1.439 . S
C121 C146 1.395 . S
N122 Co111 1.995 1_655 S
N122 C123 1.376 . S
N122 C126 1.383 . S
C123 N122 1.376 . S
C123 C124 1.446 . S
C123 C146 1.391 . S
C124 C123 1.446 . S
C124 C125 1.339 . S
C124 H153 0.949 . S
C125 C124 1.339 . S
C125 C126 1.439 . S
C125 H154 0.950 . S
C126 N122 1.383 . S
C126 C125 1.439 . S
C126 C144 1.392 . S
N127 Co111 2.282 . S
N127 C130 1.332 1_455 S
N127 C132 1.332 . S
C128 C129 1.386 1_455 S
C128 C131 1.388 . S
C129 C128 1.386 1_655 S
C129 C130 1.382 . S
C129 H155 0.950 . S
C130 N127 1.332 1_655 S
C130 C129 1.382 . S
C130 H141 0.952 . S
C131 C128 1.388 . S
C131 C132 1.382 . S
C131 H156 0.950 . S
C132 N127 1.332 . S
C132 C131 1.382 . S
C132 H142 0.948 . S
N133 Co111 2.282 . S
N133 C137 1.332 . S
N133 C138 1.332 1_455 S
C134 C135 1.388 1_655 S
C134 C138 1.382 . S
C134 H157 0.950 . S
C135 C134 1.388 1_455 S
C135 C136 1.386 . S
C136 C135 1.386 . S
C136 C137 1.382 . S
C136 H158 0.950 . S
C137 N133 1.332 . S
C137 C136 1.382 . S
C137 H139 0.952 . S
C138 N133 1.332 1_655 S
C138 C134 1.382 . S
C138 H140 0.948 . S
H139 C137 0.952 . S
H140 C138 0.948 . S
H141 C130 0.952 . S
H142 C132 0.948 . S
C143 C109 1.395 . S
C143 C113 1.391 . S
C144 C106 1.389 1_655 S
C144 C126 1.392 . S
C145 C116 1.392 . S
C145 C118 1.389 . S
C146 C121 1.395 . S
C146 C123 1.391 . S
H147 C107 0.951 . S
H148 C108 0.950 . S
H149 C114 0.949 . S
H150 C115 0.950 . S
H151 C119 0.951 . S
H152 C120 0.950 . S
H153 C124 0.949 . S
H154 C125 0.950 . S
H155 C129 0.950 . S
H156 C131 0.950 . S
H157 C134 0.950 . S
H158 C136 0.950 . S
C159 C160 1.443 . S
C159 N163 1.376 . S
C159 C197 1.389 1_545 S
C160 C159 1.443 . S
C160 C161 1.340 . S
C160 H200 0.951 . S
C161 C160 1.340 . S
C161 C162 1.439 . S
C161 H201 0.950 . S
C162 C161 1.439 . S
C162 N163 1.374 . S
C162 C196 1.395 . S
N163 C159 1.376 . S
N163 C162 1.374 . S
N163 Co164 2.008 . S
Co164 N163 2.008 . S
Co164 N165 1.995 . S
Co164 N170 2.008 1_554 S
Co164 N175 1.995 1_545 S
Co164 N180 2.282 . S
Co164 N186 2.282 . S
N165 Co164 1.995 . S
N165 C166 1.376 . S
N165 C169 1.383 1_554 S
C166 N165 1.376 . S
C166 C167 1.446 . S
C166 C196 1.391 . S
C167 C166 1.446 . S
C167 C168 1.339 1_554 S
C167 H202 0.949 . S
C168 C167 1.339 1_556 S
C168 C169 1.439 . S
C168 H203 0.950 . S
C169 N165 1.383 1_556 S
C169 C168 1.439 . S
C169 C198 1.392 . S
N170 Co164 2.008 1_556 S
N170 C171 1.376 . S
N170 C174 1.374 1_545 S
C171 N170 1.376 . S
C171 C172 1.443 . S
C171 C198 1.389 . S
C172 C171 1.443 . S
C172 C173 1.340 1_545 S
C172 H204 0.951 . S
C173 C172 1.340 1_565 S
C173 C174 1.439 . S
C173 H205 0.950 . S
C174 N170 1.374 1_565 S
C174 C173 1.439 . S
C174 C199 1.395 . S
N175 Co164 1.995 1_565 S
N175 C176 1.376 . S
N175 C179 1.383 . S
C176 N175 1.376 . S
C176 C177 1.446 . S
C176 C199 1.391 1_554 S
C177 C176 1.446 . S
C177 C178 1.339 . S
C177 H206 0.949 . S
C178 C177 1.339 . S
C178 C179 1.439 . S
C178 H207 0.950 . S
C179 N175 1.383 . S
C179 C178 1.439 . S
C179 C197 1.392 . S
N180 Co164 2.282 . S
N180 C183 1.332 1_545 S
N180 C185 1.332 . S
C181 C182 1.386 1_545 S
C181 C184 1.388 . S
C182 C181 1.386 1_565 S
C182 C183 1.382 . S
C182 H208 0.950 . S
C183 N180 1.332 1_565 S
C183 C182 1.382 . S
C183 H194 0.952 . S
C184 C181 1.388 . S
C184 C185 1.382 . S
C184 H209 0.950 . S
C185 N180 1.332 . S
C185 C184 1.382 . S
C185 H195 0.948 . S
N186 Co164 2.282 . S
N186 C190 1.332 . S
N186 C191 1.332 1_545 S
C187 C188 1.388 1_565 S
C187 C191 1.382 . S
C187 H210 0.950 . S
C188 C187 1.388 1_545 S
C188 C189 1.386 . S
C189 C188 1.386 . S
C189 C190 1.382 . S
C189 H211 0.950 . S
C190 N186 1.332 . S
C190 C189 1.382 . S
C190 H192 0.952 . S
C191 N186 1.332 1_565 S
C191 C187 1.382 . S
C191 H193 0.948 . S
H192 C190 0.952 . S
H193 C191 0.948 . S
H194 C183 0.952 . S
H195 C185 0.948 . S
C196 C162 1.395 . S
C196 C166 1.391 . S
C197 C159 1.389 1_565 S
C197 C179 1.392 . S
C198 C169 1.392 . S
C198 C171 1.389 . S
C199 C174 1.395 . S
C199 C176 1.391 1_556 S
H200 C160 0.951 . S
H201 C161 0.950 . S
H202 C167 0.949 . S
H203 C168 0.950 . S
H204 C172 0.951 . S
H205 C173 0.950 . S
H206 C177 0.949 . S
H207 C178 0.950 . S
H208 C182 0.950 . S
H209 C184 0.950 . S
H210 C187 0.950 . S
H211 C189 0.950 . S
C212 C213 1.443 . S
C212 N216 1.376 . S
C212 C250 1.389 . S
C213 C212 1.443 . S
C213 C214 1.340 . S
C213 H253 0.951 . S
C214 C213 1.340 . S
C214 C215 1.439 . S
C214 H254 0.950 . S
C215 C214 1.439 . S
C215 N216 1.374 . S
C215 C249 1.395 . S
N216 C212 1.376 . S
N216 C215 1.374 . S
N216 Co217 2.008 . S
Co217 N216 2.008 . S
Co217 N218 1.995 . S
Co217 N223 2.008 . S
Co217 N228 1.995 . S
Co217 N233 2.282 . S
Co217 N239 2.282 . S
N218 Co217 1.995 . S
N218 C219 1.376 . S
N218 C222 1.383 . S
C219 N218 1.376 . S
C219 C220 1.446 . S
C219 C249 1.391 . S
C220 C219 1.446 . S
C220 C221 1.339 . S
C220 H255 0.949 . S
C221 C220 1.339 . S
C221 C222 1.439 . S
C221 H256 0.950 . S
C222 N218 1.383 . S
C222 C221 1.439 . S
C222 C251 1.392 . S
N223 Co217 2.008 . S
N223 C224 1.376 . S
N223 C227 1.374 . S
C224 N223 1.376 . S
C224 C225 1.443 . S
C224 C251 1.389 . S
C225 C224 1.443 . S
C225 C226 1.340 . S
C225 H257 0.951 . S
C226 C225 1.340 . S
C226 C227 1.439 . S
C226 H258 0.950 . S
C227 N223 1.374 . S
C227 C226 1.439 . S
C227 C252 1.395 . S
N228 Co217 1.995 . S
N228 C229 1.376 . S
N228 C232 1.383 . S
C229 N228 1.376 . S
C229 C230 1.446 . S
C229 C252 1.391 . S
C230 C229 1.446 . S
C230 C231 1.339 . S
C230 H259 0.949 . S
C231 C230 1.339 . S
C231 C232 1.439 . S
C231 H260 0.950 . S
C232 N228 1.383 . S
C232 C231 1.439 . S
C232 C250 1.392 . S
N233 Co217 2.282 . S
N233 C236 1.332 . S
N233 C238 1.332 . S
C234 C235 1.386 . S
C234 C237 1.388 . S
C235 C234 1.386 . S
C235 C236 1.382 . S
C235 H261 0.950 . S
C236 N233 1.332 . S
C236 C235 1.382 . S
C236 H247 0.952 . S
C237 C234 1.388 . S
C237 C238 1.382 . S
C237 H262 0.950 . S
C238 N233 1.332 . S
C238 C237 1.382 . S
C238 H248 0.948 . S
N239 Co217 2.282 . S
N239 C243 1.332 . S
N239 C244 1.332 . S
C240 C241 1.388 . S
C240 C244 1.382 1_455 S
C240 H263 0.950 . S
C241 C240 1.388 . S
C241 C242 1.386 1_455 S
C242 C241 1.386 1_655 S
C242 C243 1.382 . S
C242 H264 0.950 . S
C243 N239 1.332 . S
C243 C242 1.382 . S
C243 H245 0.952 . S
C244 N239 1.332 . S
C244 C240 1.382 1_655 S
C244 H246 0.948 . S
H245 C243 0.952 . S
H246 C244 0.948 . S
H247 C236 0.952 . S
H248 C238 0.948 . S
C249 C215 1.395 . S
C249 C219 1.391 . S
C250 C212 1.389 . S
C250 C232 1.392 . S
C251 C222 1.392 . S
C251 C224 1.389 . S
C252 C227 1.395 . S
C252 C229 1.391 . S
H253 C213 0.951 . S
H254 C214 0.950 . S
H255 C220 0.949 . S
H256 C221 0.950 . S
H257 C225 0.951 . S
H258 C226 0.950 . S
H259 C230 0.949 . S
H260 C231 0.950 . S
H261 C235 0.950 . S
H262 C237 0.950 . S
H263 C240 0.950 . S
H264 C242 0.950 . S
C265 C266 1.443 . S
C265 N269 1.376 . S
C265 C303 1.389 . S
C266 C265 1.443 . S
C266 C267 1.340 . S
C266 H306 0.951 . S
C267 C266 1.340 . S
C267 C268 1.439 . S
C267 H307 0.950 . S
C268 C267 1.439 . S
C268 N269 1.374 . S
C268 C302 1.395 . S
N269 C265 1.376 . S
N269 C268 1.374 . S
N269 Co270 2.008 . S
Co270 N269 2.008 . S
Co270 N271 1.995 . S
Co270 N276 2.008 . S
Co270 N281 1.995 . S
Co270 N286 2.282 . S
Co270 N292 2.282 . S
N271 Co270 1.995 . S
N271 C272 1.376 . S
N271 C275 1.383 . S
C272 N271 1.376 . S
C272 C273 1.446 . S
C272 C302 1.391 . S
C273 C272 1.446 . S
C273 C274 1.339 . S
C273 H308 0.949 . S
C274 C273 1.339 . S
C274 C275 1.439 . S
C274 H309 0.950 . S
C275 N271 1.383 . S
C275 C274 1.439 . S
C275 C304 1.392 . S
N276 Co270 2.008 . S
N276 C277 1.376 . S
N276 C280 1.374 . S
C277 N276 1.376 . S
C277 C278 1.443 . S
C277 C304 1.389 . S
C278 C277 1.443 . S
C278 C279 1.340 . S
C278 H310 0.951 . S
C279 C278 1.340 . S
C279 C280 1.439 . S
C279 H311 0.950 . S
C280 N276 1.374 . S
C280 C279 1.439 . S
C280 C305 1.395 . S
N281 Co270 1.995 . S
N281 C282 1.376 . S
N281 C285 1.383 . S
C282 N281 1.376 . S
C282 C283 1.446 . S
C282 C305 1.391 . S
C283 C282 1.446 . S
C283 C284 1.339 . S
C283 H312 0.949 . S
C284 C283 1.339 . S
C284 C285 1.439 . S
C284 H313 0.950 . S
C285 N281 1.383 . S
C285 C284 1.439 . S
C285 C303 1.392 . S
N286 Co270 2.282 . S
N286 C289 1.332 . S
N286 C291 1.332 . S
C287 C288 1.386 . S
C287 C290 1.388 . S
C288 C287 1.386 . S
C288 C289 1.382 . S
C288 H314 0.950 . S
C289 N286 1.332 . S
C289 C288 1.382 . S
C289 H300 0.952 . S
C290 C287 1.388 . S
C290 C291 1.382 . S
C290 H315 0.950 . S
C291 N286 1.332 . S
C291 C290 1.382 . S
C291 H301 0.948 . S
N292 Co270 2.282 . S
N292 C296 1.332 . S
N292 C297 1.332 . S
C293 C294 1.388 . S
C293 C297 1.382 1_545 S
C293 H316 0.950 . S
C294 C293 1.388 . S
C294 C295 1.386 1_545 S
C295 C294 1.386 1_565 S
C295 C296 1.382 . S
C295 H317 0.950 . S
C296 N292 1.332 . S
C296 C295 1.382 . S
C296 H298 0.952 . S
C297 N292 1.332 . S
C297 C293 1.382 1_565 S
C297 H299 0.948 . S
H298 C296 0.952 . S
H299 C297 0.948 . S
H300 C289 0.952 . S
H301 C291 0.948 . S
C302 C268 1.395 . S
C302 C272 1.391 . S
C303 C265 1.389 . S
C303 C285 1.392 . S
C304 C275 1.392 . S
C304 C277 1.389 . S
C305 C280 1.395 . S
C305 C282 1.391 . S
H306 C266 0.951 . S
H307 C267 0.950 . S
H308 C273 0.949 . S
H309 C274 0.950 . S
H310 C278 0.951 . S
H311 C279 0.950 . S
H312 C283 0.949 . S
H313 C284 0.950 . S
H314 C288 0.950 . S
H315 C290 0.950 . S
H316 C293 0.950 . S
H317 C295 0.950 . S
C318 C319 1.391 . S
C318 C320 1.394 . S
C318 H334 0.931 . S
C319 C318 1.391 . S
C319 C323 1.376 . S
C320 C318 1.394 . S
C320 C321 1.369 . S
C320 C324 1.531 . S
C321 C320 1.369 . S
C321 C322 1.410 . S
C321 C329 1.503 . S
C322 C321 1.410 . S
C322 C323 1.392 . S
C322 C325 1.511 . S
C323 C319 1.376 . S
C323 C322 1.392 . S
C323 H335 0.929 . S
C324 C320 1.531 . S
C324 H336 0.960 . S
C324 H337 0.962 . S
C324 H338 0.960 . S
C325 C322 1.511 . S
C325 H339 0.961 . S
C325 H340 0.961 . S
C325 H341 0.961 . S
C326 C327 1.370 . S
C326 C328 1.363 . S
C326 H342 0.931 . S
C327 C326 1.370 . S
C327 C331 1.408 . S
C328 C326 1.363 . S
C328 C329 1.370 . S
C328 C332 1.524 . S
C329 C321 1.503 . S
C329 C328 1.370 . S
C329 C330 1.403 . S
C330 C329 1.403 . S
C330 C331 1.404 . S
C330 C333 1.539 . S
C331 C327 1.408 . S
C331 C330 1.404 . S
C331 H343 0.930 . S
C332 C328 1.524 . S
C332 H344 0.956 . S
C332 H345 0.961 . S
C332 H346 0.961 . S
C333 C330 1.539 . S
C333 H347 0.958 . S
C333 H348 0.961 . S
C333 H349 0.960 . S
H334 C318 0.931 . S
H335 C323 0.929 . S
H336 C324 0.960 . S
H337 C324 0.962 . S
H338 C324 0.960 . S
H339 C325 0.961 . S
H340 C325 0.961 . S
H341 C325 0.961 . S
H342 C326 0.931 . S
H343 C331 0.930 . S
H344 C332 0.956 . S
H345 C332 0.961 . S
H346 C332 0.961 . S
H347 C333 0.958 . S
H348 C333 0.961 . S
H349 C333 0.960 . S
C350 C351 1.391 . S
C350 C352 1.394 . S
C350 H366 0.931 . S
C351 C350 1.391 . S
C351 C355 1.376 . S
C352 C350 1.394 . S
C352 C353 1.369 . S
C352 C356 1.531 . S
C353 C352 1.369 . S
C353 C354 1.410 . S
C353 C361 1.503 . S
C354 C353 1.410 . S
C354 C355 1.392 . S
C354 C357 1.511 . S
C355 C351 1.376 . S
C355 C354 1.392 . S
C355 H367 0.929 . S
C356 C352 1.531 . S
C356 H368 0.960 . S
C356 H369 0.962 . S
C356 H370 0.960 . S
C357 C354 1.511 . S
C357 H371 0.961 . S
C357 H372 0.961 . S
C357 H373 0.961 . S
C358 C359 1.370 . S
C358 C360 1.363 . S
C358 H374 0.931 . S
C359 C358 1.370 . S
C359 C363 1.408 . S
C360 C358 1.363 . S
C360 C361 1.370 . S
C360 C364 1.524 . S
C361 C353 1.503 . S
C361 C360 1.370 . S
C361 C362 1.403 . S
C362 C361 1.403 . S
C362 C363 1.404 . S
C362 C365 1.539 . S
C363 C359 1.408 . S
C363 C362 1.404 . S
C363 H375 0.930 . S
C364 C360 1.524 . S
C364 H376 0.956 . S
C364 H377 0.961 . S
C364 H378 0.961 . S
C365 C362 1.539 . S
C365 H379 0.958 . S
C365 H380 0.961 . S
C365 H381 0.960 . S
H366 C350 0.931 . S
H367 C355 0.929 . S
H368 C356 0.960 . S
H369 C356 0.962 . S
H370 C356 0.960 . S
H371 C357 0.961 . S
H372 C357 0.961 . S
H373 C357 0.961 . S
H374 C358 0.931 . S
H375 C363 0.930 . S
H376 C364 0.956 . S
H377 C364 0.961 . S
H378 C364 0.961 . S
H379 C365 0.958 . S
H380 C365 0.961 . S
H381 C365 0.960 . S
C382 C383 1.391 . S
C382 C384 1.394 . S
C382 H398 0.931 . S
C383 C382 1.391 . S
C383 C387 1.376 . S
C384 C382 1.394 . S
C384 C385 1.369 . S
C384 C388 1.531 . S
C385 C384 1.369 . S
C385 C386 1.410 . S
C385 C393 1.503 . S
C386 C385 1.410 . S
C386 C387 1.392 . S
C386 C389 1.511 . S
C387 C383 1.376 . S
C387 C386 1.392 . S
C387 H399 0.929 . S
C388 C384 1.531 . S
C388 H400 0.960 . S
C388 H401 0.962 . S
C388 H402 0.960 . S
C389 C386 1.511 . S
C389 H403 0.961 . S
C389 H404 0.961 . S
C389 H405 0.961 . S
C390 C391 1.370 . S
C390 C392 1.363 . S
C390 H406 0.931 . S
C391 C390 1.370 . S
C391 C395 1.408 . S
C392 C390 1.363 . S
C392 C393 1.370 . S
C392 C396 1.524 . S
C393 C385 1.503 . S
C393 C392 1.370 . S
C393 C394 1.403 . S
C394 C393 1.403 . S
C394 C395 1.404 . S
C394 C397 1.539 . S
C395 C391 1.408 . S
C395 C394 1.404 . S
C395 H407 0.930 . S
C396 C392 1.524 . S
C396 H408 0.956 . S
C396 H409 0.961 . S
C396 H410 0.961 . S
C397 C394 1.539 . S
C397 H411 0.958 . S
C397 H412 0.961 . S
C397 H413 0.960 . S
H398 C382 0.931 . S
H399 C387 0.929 . S
H400 C388 0.960 . S
H401 C388 0.962 . S
H402 C388 0.960 . S
H403 C389 0.961 . S
H404 C389 0.961 . S
H405 C389 0.961 . S
H406 C390 0.931 . S
H407 C395 0.930 . S
H408 C396 0.956 . S
H409 C396 0.961 . S
H410 C396 0.961 . S
H411 C397 0.958 . S
H412 C397 0.961 . S
H413 C397 0.960 . S
C414 C415 1.391 . S
C414 C416 1.394 . S
C414 H430 0.931 . S
C415 C414 1.391 . S
C415 C419 1.376 . S
C416 C414 1.394 . S
C416 C417 1.369 . S
C416 C420 1.531 . S
C417 C416 1.369 . S
C417 C418 1.410 . S
C417 C425 1.503 . S
C418 C417 1.410 . S
C418 C419 1.392 . S
C418 C421 1.511 . S
C419 C415 1.376 . S
C419 C418 1.392 . S
C419 H431 0.929 . S
C420 C416 1.531 . S
C420 H432 0.960 . S
C420 H433 0.962 . S
C420 H434 0.960 . S
C421 C418 1.511 . S
C421 H435 0.961 . S
C421 H436 0.961 . S
C421 H437 0.961 . S
C422 C423 1.370 . S
C422 C424 1.363 . S
C422 H438 0.931 . S
C423 C422 1.370 . S
C423 C427 1.408 . S
C424 C422 1.363 . S
C424 C425 1.370 . S
C424 C428 1.524 . S
C425 C417 1.503 . S
C425 C424 1.370 . S
C425 C426 1.403 . S
C426 C425 1.403 . S
C426 C427 1.404 . S
C426 C429 1.539 . S
C427 C423 1.408 . S
C427 C426 1.404 . S
C427 H439 0.930 . S
C428 C424 1.524 . S
C428 H440 0.956 . S
C428 H441 0.961 . S
C428 H442 0.961 . S
C429 C426 1.539 . S
C429 H443 0.958 . S
C429 H444 0.961 . S
C429 H445 0.960 . S
H430 C414 0.931 . S
H431 C419 0.929 . S
H432 C420 0.960 . S
H433 C420 0.962 . S
H434 C420 0.960 . S
H435 C421 0.961 . S
H436 C421 0.961 . S
H437 C421 0.961 . S
H438 C422 0.931 . S
H439 C427 0.930 . S
H440 C428 0.956 . S
H441 C428 0.961 . S
H442 C428 0.961 . S
H443 C429 0.958 . S
H444 C429 0.961 . S
H445 C429 0.960 . S
C446 C447 1.391 . S
C446 C448 1.394 . S
C446 H462 0.931 . S
C447 C446 1.391 . S
C447 C451 1.376 . S
C448 C446 1.394 . S
C448 C449 1.369 . S
C448 C452 1.531 . S
C449 C448 1.369 . S
C449 C450 1.410 . S
C449 C457 1.503 . S
C450 C449 1.410 . S
C450 C451 1.392 . S
C450 C453 1.511 . S
C451 C447 1.376 . S
C451 C450 1.392 . S
C451 H463 0.929 . S
C452 C448 1.531 . S
C452 H464 0.960 . S
C452 H465 0.962 . S
C452 H466 0.960 . S
C453 C450 1.511 . S
C453 H467 0.961 . S
C453 H468 0.961 . S
C453 H469 0.961 . S
C454 C455 1.370 1_455 S
C454 C456 1.363 . S
C454 H470 0.931 . S
C455 C454 1.370 1_655 S
C455 C459 1.408 . S
C456 C454 1.363 . S
C456 C457 1.370 . S
C456 C460 1.524 . S
C457 C449 1.503 . S
C457 C456 1.370 . S
C457 C458 1.403 1_455 S
C458 C457 1.403 1_655 S
C458 C459 1.404 . S
C458 C461 1.539 . S
C459 C455 1.408 . S
C459 C458 1.404 . S
C459 H471 0.930 . S
C460 C456 1.524 . S
C460 H472 0.956 . S
C460 H473 0.961 . S
C460 H474 0.961 . S
C461 C458 1.539 . S
C461 H475 0.958 . S
C461 H476 0.961 . S
C461 H477 0.960 . S
H462 C446 0.931 . S
H463 C451 0.929 . S
H464 C452 0.960 . S
H465 C452 0.962 . S
H466 C452 0.960 . S
H467 C453 0.961 . S
H468 C453 0.961 . S
H469 C453 0.961 . S
H470 C454 0.931 . S
H471 C459 0.930 . S
H472 C460 0.956 . S
H473 C460 0.961 . S
H474 C460 0.961 . S
H475 C461 0.958 . S
H476 C461 0.961 . S
H477 C461 0.960 . S
C478 C479 1.391 . S
C478 C480 1.394 . S
C478 H494 0.931 . S
C479 C478 1.391 . S
C479 C483 1.376 . S
C480 C478 1.394 . S
C480 C481 1.369 . S
C480 C484 1.531 . S
C481 C480 1.369 . S
C481 C482 1.410 . S
C481 C489 1.503 . S
C482 C481 1.410 . S
C482 C483 1.392 . S
C482 C485 1.511 . S
C483 C479 1.376 . S
C483 C482 1.392 . S
C483 H495 0.929 . S
C484 C480 1.531 . S
C484 H496 0.960 1_545 S
C484 H497 0.962 1_545 S
C484 H498 0.960 . S
C485 C482 1.511 . S
C485 H499 0.961 . S
C485 H500 0.961 . S
C485 H501 0.961 . S
C486 C487 1.370 . S
C486 C488 1.363 . S
C486 H502 0.931 . S
C487 C486 1.370 . S
C487 C491 1.401 1_565 S
C488 C486 1.363 . S
C488 C489 1.370 1_565 S
C488 C492 1.524 . S
C489 C481 1.503 . S
C489 C488 1.370 1_545 S
C489 C490 1.403 . S
C490 C489 1.403 . S
C490 C491 1.407 . S
C490 C493 1.539 . S
C491 C487 1.401 1_545 S
C491 C490 1.407 . S
C491 H503 0.924 . S
C492 C488 1.524 . S
C492 H504 0.956 . S
C492 H505 0.961 1_565 S
C492 H506 0.961 . S
C493 C490 1.539 . S
C493 H507 0.958 . S
C493 H508 0.961 . S
C493 H509 0.960 . S
H494 C478 0.931 . S
H495 C483 0.929 . S
H496 C484 0.960 1_565 S
H497 C484 0.962 1_565 S
H498 C484 0.960 . S
H499 C485 0.961 . S
H500 C485 0.961 . S
H501 C485 0.961 . S
H502 C486 0.931 . S
H503 C491 0.924 . S
H504 C492 0.956 . S
H505 C492 0.961 1_545 S
H506 C492 0.961 . S
H507 C493 0.958 . S
H508 C493 0.961 . S
H509 C493 0.960 . S
C510 C511 1.391 . S
C510 C512 1.394 . S
C510 H526 0.931 . S
C511 C510 1.391 . S
C511 C515 1.376 . S
C512 C510 1.394 . S
C512 C513 1.369 . S
C512 C516 1.531 . S
C513 C512 1.369 . S
C513 C514 1.410 . S
C513 C521 1.503 . S
C514 C513 1.410 . S
C514 C515 1.392 . S
C514 C517 1.511 . S
C515 C511 1.376 . S
C515 C514 1.392 . S
C515 H527 0.929 . S
C516 C512 1.531 . S
C516 H528 0.960 1_554 S
C516 H529 0.962 . S
C516 H530 0.960 1_554 S
C517 C514 1.511 . S
C517 H531 0.961 . S
C517 H532 0.961 . S
C517 H533 0.961 . S
C518 C519 1.370 1_455 S
C518 C520 1.363 . S
C518 H534 0.931 . S
C519 C518 1.370 1_655 S
C519 C523 1.408 1_655 S
C520 C518 1.363 . S
C520 C521 1.370 . S
C520 C524 1.524 . S
C521 C513 1.503 . S
C521 C520 1.370 . S
C521 C522 1.403 . S
C522 C521 1.403 . S
C522 C523 1.404 . S
C522 C525 1.539 1_554 S
C523 C519 1.408 1_455 S
C523 C522 1.404 . S
C523 H535 0.930 1_554 S
C524 C520 1.524 . S
C524 H536 0.956 . S
C524 H537 0.961 . S
C524 H538 0.961 . S
C525 C522 1.539 1_556 S
C525 H539 0.958 . S
C525 H540 0.961 . S
C525 H541 0.960 . S
H526 C510 0.931 . S
H527 C515 0.929 . S
H528 C516 0.960 1_556 S
H529 C516 0.962 . S
H530 C516 0.960 1_556 S
H531 C517 0.961 . S
H532 C517 0.961 . S
H533 C517 0.961 . S
H534 C518 0.931 . S
H535 C523 0.930 1_556 S
H536 C524 0.956 . S
H537 C524 0.961 . S
H538 C524 0.961 . S
H539 C525 0.958 . S
H540 C525 0.961 . S
H541 C525 0.960 . S
C542 C543 1.391 1_545 S
C542 C544 1.394 . S
C542 H558 0.931 1_545 S
C543 C542 1.391 1_565 S
C543 C547 1.376 1_565 S
C544 C542 1.394 . S
C544 C545 1.369 . S
C544 C548 1.531 . S
C545 C544 1.369 . S
C545 C546 1.410 . S
C545 C553 1.503 . S
C546 C545 1.410 . S
C546 C547 1.392 . S
C546 C549 1.511 . S
C547 C543 1.376 1_545 S
C547 C546 1.392 . S
C547 H559 0.929 . S
C548 C544 1.531 . S
C548 H560 0.960 . S
C548 H561 0.962 . S
C548 H562 0.960 . S
C549 C546 1.511 . S
C549 H563 0.961 . S
C549 H564 0.961 . S
C549 H565 0.961 . S
C550 C551 1.370 . S
C550 C552 1.363 . S
C550 H566 0.931 . S
C551 C550 1.370 . S
C551 C555 1.408 . S
C552 C550 1.363 . S
C552 C553 1.370 . S
C552 C556 1.524 . S
C553 C545 1.503 . S
C553 C552 1.370 . S
C553 C554 1.403 . S
C554 C553 1.403 . S
C554 C555 1.404 . S
C554 C557 1.539 . S
C555 C551 1.408 . S
C555 C554 1.404 . S
C555 H567 0.930 . S
C556 C552 1.524 . S
C556 H568 0.956 . S
C556 H569 0.961 . S
C556 H570 0.961 . S
C557 C554 1.539 . S
C557 H571 0.958 . S
C557 H572 0.961 . S
C557 H573 0.960 . S
H558 C542 0.931 1_565 S
H559 C547 0.929 . S
H560 C548 0.960 . S
H561 C548 0.962 . S
H562 C548 0.960 . S
H563 C549 0.961 . S
H564 C549 0.961 . S
H565 C549 0.961 . S
H566 C550 0.931 . S
H567 C555 0.930 . S
H568 C556 0.956 . S
H569 C556 0.961 . S
H570 C556 0.961 . S
H571 C557 0.958 . S
H572 C557 0.961 . S
H573 C557 0.960 . S
C574 C575 1.391 . S
C574 C576 1.394 . S
C574 H590 0.931 1_455 S
C575 C574 1.391 . S
C575 C579 1.376 . S
C576 C574 1.394 . S
C576 C577 1.369 . S
C576 C580 1.531 . S
C577 C576 1.369 . S
C577 C578 1.410 . S
C577 C585 1.503 . S
C578 C577 1.410 . S
C578 C579 1.392 . S
C578 C581 1.511 . S
C579 C575 1.376 . S
C579 C578 1.392 . S
C579 H591 0.929 . S
C580 C576 1.531 . S
C580 H592 0.960 . S
C580 H593 0.962 . S
C580 H594 0.960 . S
C581 C578 1.511 . S
C581 H595 0.961 . S
C581 H596 0.961 . S
C581 H597 0.961 . S
C582 C583 1.370 . S
C582 C584 1.363 . S
C582 H598 0.931 . S
C583 C582 1.370 . S
C583 C587 1.408 . S
C584 C582 1.363 . S
C584 C585 1.370 . S
C584 C588 1.524 . S
C585 C577 1.503 . S
C585 C584 1.370 . S
C585 C586 1.403 . S
C586 C585 1.403 . S
C586 C587 1.404 . S
C586 C589 1.539 . S
C587 C583 1.408 . S
C587 C586 1.404 . S
C587 H599 0.930 . S
C588 C584 1.524 . S
C588 H600 0.956 . S
C588 H601 0.961 . S
C588 H602 0.961 . S
C589 C586 1.539 . S
C589 H603 0.958 . S
C589 H604 0.961 . S
C589 H605 0.960 . S
H590 C574 0.931 1_655 S
H591 C579 0.929 . S
H592 C580 0.960 . S
H593 C580 0.962 . S
H594 C580 0.960 . S
H595 C581 0.961 . S
H596 C581 0.961 . S
H597 C581 0.961 . S
H598 C582 0.931 . S
H599 C587 0.930 . S
H600 C588 0.956 . S
H601 C588 0.961 . S
H602 C588 0.961 . S
H603 C589 0.958 . S
H604 C589 0.961 . S
H605 C589 0.960 . S
C606 C607 1.407 . S
C606 C608 1.395 . S
C606 H622 0.914 1_554 S
C607 C606 1.407 . S
C607 C611 1.376 . S
C608 C606 1.395 . S
C608 C609 1.369 . S
C608 C612 1.531 1_554 S
C609 C608 1.369 . S
C609 C610 1.410 . S
C609 C617 1.503 . S
C610 C609 1.410 . S
C610 C611 1.392 . S
C610 C613 1.511 . S
C611 C607 1.376 . S
C611 C610 1.392 . S
C611 H623 0.929 . S
C612 C608 1.531 1_556 S
C612 H624 0.960 . S
C612 H625 0.962 . S
C612 H626 0.960 . S
C613 C610 1.511 . S
C613 H627 0.961 . S
C613 H628 0.961 . S
C613 H629 0.961 . S
C614 C615 1.370 1_556 S
C614 C616 1.363 1_556 S
C614 H630 0.931 . S
C615 C614 1.370 1_554 S
C615 C619 1.408 . S
C616 C614 1.363 1_554 S
C616 C617 1.376 . S
C616 C620 1.519 1_554 S
C617 C609 1.503 . S
C617 C616 1.376 . S
C617 C618 1.403 . S
C618 C617 1.403 . S
C618 C619 1.404 . S
C618 C621 1.539 . S
C619 C615 1.408 . S
C619 C618 1.404 . S
C619 H631 0.930 . S
C620 C616 1.519 1_556 S
C620 H632 0.956 . S
C620 H633 0.961 . S
C620 H634 0.961 . S
C621 C618 1.539 . S
C621 H635 0.958 . S
C621 H636 0.961 . S
C621 H637 0.960 . S
H622 C606 0.914 1_556 S
H623 C611 0.929 . S
H624 C612 0.960 . S
H625 C612 0.962 . S
H626 C612 0.960 . S
H627 C613 0.961 . S
H628 C613 0.961 . S
H629 C613 0.961 . S
H630 C614 0.931 . S
H631 C619 0.930 . S
H632 C620 0.956 . S
H633 C620 0.961 . S
H634 C620 0.961 . S
H635 C621 0.958 . S
H636 C621 0.961 . S
H637 C621 0.960 . S
C638 C639 1.391 . S
C638 C640 1.394 . S
C638 H654 0.931 . S
C639 C638 1.391 . S
C639 C643 1.376 . S
C640 C638 1.394 . S
C640 C641 1.369 . S
C640 C644 1.531 . S
C641 C640 1.369 . S
C641 C642 1.410 . S
C641 C649 1.503 . S
C642 C641 1.410 . S
C642 C643 1.392 . S
C642 C645 1.511 . S
C643 C639 1.376 . S
C643 C642 1.392 . S
C643 H655 0.929 . S
C644 C640 1.531 . S
C644 H656 0.960 . S
C644 H657 0.962 . S
C644 H658 0.960 . S
C645 C642 1.511 . S
C645 H659 0.961 . S
C645 H660 0.961 . S
C645 H661 0.961 . S
C646 C647 1.370 . S
C646 C648 1.363 . S
C646 H662 0.931 . S
C647 C646 1.370 . S
C647 C651 1.408 . S
C648 C646 1.363 . S
C648 C649 1.370 . S
C648 C652 1.524 . S
C649 C641 1.503 . S
C649 C648 1.370 . S
C649 C650 1.403 . S
C650 C649 1.403 . S
C650 C651 1.404 . S
C650 C653 1.539 . S
C651 C647 1.408 . S
C651 C650 1.404 . S
C651 H663 0.930 . S
C652 C648 1.524 . S
C652 H664 0.956 . S
C652 H665 0.961 . S
C652 H666 0.961 . S
C653 C650 1.539 . S
C653 H667 0.958 . S
C653 H668 0.961 . S
C653 H669 0.960 . S
H654 C638 0.931 . S
H655 C643 0.929 . S
H656 C644 0.960 . S
H657 C644 0.962 . S
H658 C644 0.960 . S
H659 C645 0.961 . S
H660 C645 0.961 . S
H661 C645 0.961 . S
H662 C646 0.931 . S
H663 C651 0.930 . S
H664 C652 0.956 . S
H665 C652 0.961 . S
H666 C652 0.961 . S
H667 C653 0.958 . S
H668 C653 0.961 . S
H669 C653 0.960 . S
C670 C671 1.391 . S
C670 C672 1.394 . S
C670 H686 0.931 . S
C671 C670 1.391 . S
C671 C675 1.376 . S
C672 C670 1.394 . S
C672 C673 1.369 . S
C672 C676 1.531 . S
C673 C672 1.369 . S
C673 C674 1.410 . S
C673 C681 1.503 . S
C674 C673 1.410 . S
C674 C675 1.392 . S
C674 C677 1.511 . S
C675 C671 1.376 . S
C675 C674 1.392 . S
C675 H687 0.929 . S
C676 C672 1.531 . S
C676 H688 0.960 . S
C676 H689 0.962 . S
C676 H690 0.960 . S
C677 C674 1.511 . S
C677 H691 0.961 . S
C677 H692 0.961 . S
C677 H693 0.961 . S
C678 C679 1.370 . S
C678 C680 1.363 . S
C678 H694 0.931 . S
C679 C678 1.370 . S
C679 C683 1.408 . S
C680 C678 1.363 . S
C680 C681 1.370 . S
C680 C684 1.524 . S
C681 C673 1.503 . S
C681 C680 1.370 . S
C681 C682 1.403 . S
C682 C681 1.403 . S
C682 C683 1.404 . S
C682 C685 1.539 . S
C683 C679 1.408 . S
C683 C682 1.404 . S
C683 H695 0.930 . S
C684 C680 1.524 . S
C684 H696 0.956 . S
C684 H697 0.961 . S
C684 H698 0.961 . S
C685 C682 1.539 . S
C685 H699 0.958 . S
C685 H700 0.961 . S
C685 H701 0.960 . S
H686 C670 0.931 . S
H687 C675 0.929 . S
H688 C676 0.960 . S
H689 C676 0.962 . S
H690 C676 0.960 . S
H691 C677 0.961 . S
H692 C677 0.961 . S
H693 C677 0.961 . S
H694 C678 0.931 . S
H695 C683 0.930 . S
H696 C684 0.956 . S
H697 C684 0.961 . S
H698 C684 0.961 . S
H699 C685 0.958 . S
H700 C685 0.961 . S
H701 C685 0.960 . S
C319 C38 1.922 . S
C327 C92 1.864 . S
C351 C91 1.925 . S
C359 C145 1.883 . S
C383 C198 1.855 . S
C391 C144 1.930 . S
C415 C197 1.929 . S
C423 C251 1.881 . S
C447 C304 1.872 . S
C455 C250 1.931 . S
C479 C39 1.851 . S
C487 C303 1.925 . S
C511 C29 1.534 . S
C519 C188 1.567 . S
C543 C241 1.584 . S
C551 C82 1.551 . S
C575 C135 1.555 . S
C583 C294 1.558 . S
C607 C181 1.935 . S
C615 C22 1.922 . S
C639 C234 1.942 . S
C647 C75 1.924 . S
C671 C287 1.947 . S
C679 C128 1.920 . S
