# Generated by pormake.
# Topology ukg, (4)-cn, num edge types: 1
# Building blocks:
#     Node 0, Type 0, BuildingBlock: ICAMEG_clean_sbu_1, # of connection points: 4
#     Node 1, Type 0, BuildingBlock: ICAMEG_clean_sbu_1, # of connection points: 4
#     Node 2, Type 0, BuildingBlock: ICAMEG_clean_sbu_1, # of connection points: 4
#     Node 3, Type 0, BuildingBlock: ICAMEG_clean_sbu_1, # of connection points: 4
#     Node 4, Type 0, BuildingBlock: ICAMEG_clean_sbu_1, # of connection points: 4
#     Node 5, Type 0, BuildingBlock: ICAMEG_clean_sbu_1, # of connection points: 4
#     Node 6, Type 0, BuildingBlock: ICAMEG_clean_sbu_1, # of connection points: 4
#     Node 7, Type 0, BuildingBlock: ICAMEG_clean_sbu_1, # of connection points: 4
#     Edge 8, Type (0, 0), BuildingBlock: OJICUG_clean_linker_0, # of connection points: 2
#     Edge 9, Type (0, 0), BuildingBlock: OJICUG_clean_linker_0, # of connection points: 2
#     Edge 10, Type (0, 0), BuildingBlock: OJICUG_clean_linker_0, # of connection points: 2
#     Edge 11, Type (0, 0), BuildingBlock: OJICUG_clean_linker_0, # of connection points: 2
#     Edge 12, Type (0, 0), BuildingBlock: OJICUG_clean_linker_0, # of connection points: 2
#     Edge 13, Type (0, 0), BuildingBlock: OJICUG_clean_linker_0, # of connection points: 2
#     Edge 14, Type (0, 0), BuildingBlock: OJICUG_clean_linker_0, # of connection points: 2
#     Edge 15, Type (0, 0), BuildingBlock: OJICUG_clean_linker_0, # of connection points: 2
#     Edge 16, Type (0, 0), BuildingBlock: OJICUG_clean_linker_0, # of connection points: 2
#     Edge 17, Type (0, 0), BuildingBlock: OJICUG_clean_linker_0, # of connection points: 2
#     Edge 18, Type (0, 0), BuildingBlock: OJICUG_clean_linker_0, # of connection points: 2
#     Edge 19, Type (0, 0), BuildingBlock: OJICUG_clean_linker_0, # of connection points: 2
#     Edge 20, Type (0, 0), BuildingBlock: OJICUG_clean_linker_0, # of connection points: 2
#     Edge 21, Type (0, 0), BuildingBlock: OJICUG_clean_linker_0, # of connection points: 2
#     Edge 22, Type (0, 0), BuildingBlock: OJICUG_clean_linker_0, # of connection points: 2
#     Edge 23, Type (0, 0), BuildingBlock: OJICUG_clean_linker_0, # of connection points: 2
# Relax obj value: 0.015
# Max RMSD: 0.100
# Mean RMSD: 0.100
data_MOF--net-ukg--node1-ICAMEG_clean_sbu_1--edge1-OJICUG_clean_linker_0
_symmetry_space_group_name_H-M    P1
_symmetry_Int_Tables_number       1
_symmetry_cell_setting            triclinic
loop_
_symmetry_equiv_pos_as_xyz
'x, y, z'
_cell_length_a     24.598703
_cell_length_b     24.599755
_cell_length_c     29.995397
_cell_angle_alpha  89.9965
_cell_angle_beta   90.002091
_cell_angle_gamma 90.001126
loop_
_atom_site_label
_atom_site_type_symbol
_atom_site_fract_x
_atom_site_fract_y
_atom_site_fract_z
_atom_type_partial_charge
Co0 Co 0.05007 0.64493 0.21632 0.0
Co1 Co 0.96527 0.66911 0.12705 0.0
O2 O 0.03569 0.6488 0.15214 0.0
C3 C 0.1385 0.71247 0.17943 0.0
O4 O 0.10228 0.73557 0.15355 0.0
C5 C 0.98948 0.56429 0.08218 0.0
O6 O 0.0002 0.54345 0.12152 0.0
O7 O 0.92795 0.61424 0.16491 0.0
O8 O 0.97556 0.61586 0.2287 0.0
H9 H 0.7639 0.69797 0.13355 0.0
H10 H 0.127 0.59351 0.15311 0.0
O11 O 0.12479 0.67495 0.20641 0.0
H12 H 0.06186 0.4446 0.24935 0.0
H13 H 0.16639 0.60723 0.35093 0.0
H14 H 0.98837 0.67312 0.29816 0.0
H15 H 0.02996 0.53856 0.26119 0.0
H16 H 0.14572 0.61067 0.2705 0.0
O17 O 0.97489 0.61371 0.0788 0.0
H18 H 0.85628 0.69089 0.16494 0.0
H19 H 0.92334 0.68447 0.03456 0.0
H20 H 0.00711 0.66997 0.37887 0.0
H21 H 0.1603 0.5002 0.14029 0.0
H22 H 0.09672 0.63683 0.40574 0.0
H23 H 0.12755 0.42496 0.18855 0.0
O24 O 0.02214 0.71976 0.22469 0.0
H25 H 0.10977 0.73451 0.02144 0.0
H26 H 0.94478 0.78545 0.10484 0.0
H27 H 0.99097 0.85416 0.05844 0.0
H28 H 0.07404 0.82874 0.0162 0.0
H29 H 0.06268 0.66739 0.06882 0.0
H30 H 0.83177 0.69239 1.00177 0.0
H31 H 0.75117 0.69674 0.05138 0.0
O32 O 0.95446 0.72626 0.17439 0.0
C33 C 0.93369 0.60283 0.20606 0.0
C34 C 0.79873 0.69575 0.11158 0.0
C35 C 0.83682 0.69245 0.03762 0.0
N36 N 0.89512 0.68717 0.10163 0.0
C37 C 0.85115 0.69204 0.12916 0.0
C38 C 0.88858 0.68829 0.05638 0.0
C39 C 0.79161 0.69516 0.06549 0.0
C40 C 0.113 0.56105 0.17451 0.0
N41 N 0.07684 0.57149 0.208 0.0
C42 C 0.13181 0.50828 0.16699 0.0
C43 C 0.11336 0.46606 0.19403 0.0
C44 C 0.07647 0.47705 0.22813 0.0
C45 C 0.05846 0.53031 0.23462 0.0
C46 C 0.12714 0.6216 0.33965 0.0
C47 C 0.02725 0.65822 0.30959 0.0
C48 C 0.11523 0.62371 0.29415 0.0
N49 N 0.06565 0.64156 0.27967 0.0
C50 C 0.03773 0.65672 0.35534 0.0
C51 C 0.08803 0.6382 0.37039 0.0
C52 C 0.98099 0.74399 0.20816 0.0
C53 C 0.07362 0.74609 0.03969 0.0
C54 C 0.98125 0.77434 0.08703 0.0
C55 C 0.00705 0.81329 0.06057 0.0
C56 C 0.0536 0.79897 0.03682 0.0
N57 N 0.00124 0.72264 0.08982 0.0
C58 C 0.04668 0.70821 0.06644 0.0
Co59 Co 0.35423 0.55026 0.71684 0.0
Co60 Co 0.32972 0.46595 0.62729 0.0
O61 O 0.35025 0.53616 0.65263 0.0
C62 C 0.28642 0.63865 0.68033 0.0
O63 O 0.26326 0.60241 0.6545 0.0
C64 C 0.43465 0.49005 0.5825 0.0
O65 O 0.45553 0.50062 0.62185 0.0
O66 O 0.38444 0.42824 0.66506 0.0
O67 O 0.38339 0.47572 0.72893 0.0
H68 H 0.30011 0.26466 0.63305 0.0
H69 H 0.40543 0.62753 0.65378 0.0
O70 O 0.3241 0.62499 0.70718 0.0
H71 H 0.55464 0.56207 0.74956 0.0
H72 H 0.39221 0.66601 0.85172 0.0
H73 H 0.32627 0.48819 0.79855 0.0
H74 H 0.46073 0.53003 0.76147 0.0
H75 H 0.38855 0.6457 0.77124 0.0
O76 O 0.38519 0.47561 0.5791 0.0
H77 H 0.30759 0.35682 0.66479 0.0
H78 H 0.31421 0.42459 0.53466 0.0
H79 H 0.32966 0.50657 0.87932 0.0
H80 H 0.49868 0.66097 0.64091 0.0
H81 H 0.36282 0.59607 0.90638 0.0
H82 H 0.57407 0.62807 0.68894 0.0
O83 O 0.27943 0.52224 0.72529 0.0
H84 H 0.2649 0.61132 0.52226 0.0
H85 H 0.21332 0.44599 0.60494 0.0
H86 H 0.1448 0.49273 0.55872 0.0
H87 H 0.17053 0.57598 0.51685 0.0
H88 H 0.33183 0.56369 0.56944 0.0
H89 H 0.30589 0.33325 0.50153 0.0
H90 H 0.30125 0.25239 0.55083 0.0
O91 O 0.27252 0.45509 0.67456 0.0
C92 C 0.39613 0.43386 0.70617 0.0
C93 C 0.30244 0.2996 0.61121 0.0
C94 C 0.30586 0.3381 0.53739 0.0
N95 N 0.31143 0.396 0.60162 0.0
C96 C 0.30639 0.3519 0.62899 0.0
C97 C 0.31025 0.38973 0.55635 0.0
C98 C 0.30297 0.29275 0.5651 0.0
C99 C 0.43795 0.61346 0.67508 0.0
N100 N 0.42763 0.57713 0.70847 0.0
C101 C 0.4907 0.63235 0.66752 0.0
C102 C 0.53299 0.61381 0.69444 0.0
C103 C 0.52212 0.57675 0.72844 0.0
C104 C 0.46889 0.55867 0.73497 0.0
C105 C 0.37783 0.6268 0.84035 0.0
C106 C 0.34119 0.52703 0.81007 0.0
C107 C 0.3756 0.61509 0.79482 0.0
N108 N 0.35775 0.56557 0.78023 0.0
C109 C 0.34281 0.5373 0.85585 0.0
C110 C 0.36135 0.58754 0.87101 0.0
C111 C 0.255 0.48134 0.70853 0.0
C112 C 0.25318 0.5751 0.54035 0.0
C113 C 0.22457 0.48253 0.58729 0.0
C114 C 0.18573 0.50865 0.56093 0.0
C115 C 0.20022 0.5553 0.53738 0.0
N116 N 0.27635 0.50231 0.59017 0.0
C117 C 0.29095 0.54785 0.56699 0.0
Co118 Co 0.44876 0.85372 0.21611 0.0
Co119 Co 0.53355 0.82945 0.12685 0.0
O120 O 0.46314 0.8498 0.15194 0.0
C121 C 0.3603 0.78616 0.17929 0.0
O122 O 0.39649 0.76305 0.15339 0.0
C123 C 0.50939 0.93428 0.08196 0.0
O124 O 0.49868 0.95512 0.12131 0.0
O125 O 0.57091 0.88432 0.1647 0.0
O126 O 0.52327 0.88279 0.22847 0.0
H127 H 0.7349 0.80045 0.13333 0.0
H128 H 0.37183 0.90509 0.15287 0.0
O129 O 0.37403 0.8237 0.20624 0.0
H130 H 0.43701 0.05409 0.24899 0.0
H131 H 0.33247 0.89157 0.35071 0.0
H132 H 0.51046 0.82557 0.29797 0.0
H133 H 0.4689 0.96014 0.26091 0.0
H134 H 0.35313 0.88806 0.27028 0.0
O135 O 0.52395 0.88485 0.07859 0.0
H136 H 0.64254 0.80763 0.16474 0.0
H137 H 0.57544 0.81403 0.03437 0.0
H138 H 0.49173 0.8288 0.37868 0.0
H139 H 0.33855 0.9984 0.13998 0.0
H140 H 0.40214 0.862 0.40553 0.0
H141 H 0.37132 0.07368 0.18818 0.0
O142 O 0.47668 0.7789 0.22454 0.0
H143 H 0.38901 0.7641 0.02126 0.0
H144 H 0.55395 0.71308 0.10471 0.0
H145 H 0.50773 0.64439 0.05833 0.0
H146 H 0.42468 0.66984 0.01606 0.0
H147 H 0.43614 0.8312 0.06862 0.0
H148 H 0.66699 0.80601 1.00156 0.0
H149 H 0.7476 0.80161 0.05116 0.0
O150 O 0.54433 0.77232 0.17422 0.0
C151 C 0.56517 0.89577 0.20584 0.0
C152 C 0.70007 0.80269 0.11137 0.0
C153 C 0.66195 0.80597 0.03741 0.0
N154 N 0.60368 0.81134 0.10144 0.0
C155 C 0.64766 0.80646 0.12896 0.0
C156 C 0.6102 0.81019 0.05619 0.0
C157 C 0.70716 0.80324 0.06528 0.0
C158 C 0.38583 0.93757 0.17425 0.0
N159 N 0.422 0.92716 0.20774 0.0
C160 C 0.36703 0.99034 0.16668 0.0
C161 C 0.3855 0.03258 0.19369 0.0
C162 C 0.42239 0.02162 0.2278 0.0
C163 C 0.44039 0.96836 0.23433 0.0
C164 C 0.37171 0.87718 0.33943 0.0
C165 C 0.47159 0.8405 0.3094 0.0
C166 C 0.38362 0.87503 0.29393 0.0
N167 N 0.43319 0.85716 0.27946 0.0
C168 C 0.46112 0.84204 0.35514 0.0
C169 C 0.41082 0.86059 0.37018 0.0
C170 C 0.51782 0.75464 0.20801 0.0
C171 C 0.42515 0.7525 0.03952 0.0
C172 C 0.51749 0.72421 0.08689 0.0
C173 C 0.49167 0.68527 0.06044 0.0
C174 C 0.44514 0.6996 0.03667 0.0
N175 N 0.49754 0.77593 0.08965 0.0
C176 C 0.45211 0.79037 0.06626 0.0
Co177 Co 0.14459 0.94872 0.71672 0.0
Co178 Co 0.16901 0.03303 0.62716 0.0
O179 O 0.14853 0.96281 0.6525 0.0
C180 C 0.21236 0.86029 0.68021 0.0
O181 O 0.23548 0.89651 0.65433 0.0
C182 C 0.06407 0.00888 0.5824 0.0
O183 O 0.04323 0.99831 0.62177 0.0
O184 O 0.1143 0.07073 0.66494 0.0
O185 O 0.11544 0.02325 0.72881 0.0
H186 H 0.19855 0.23434 0.63288 0.0
H187 H 0.09334 0.87144 0.6537 0.0
O188 O 0.17471 0.87398 0.70707 0.0
H189 H 0.9442 0.93692 0.74953 0.0
H190 H 0.1067 0.833 0.85165 0.0
H191 H 0.17264 0.01079 0.7984 0.0
H192 H 0.03812 0.96896 0.76139 0.0
H193 H 0.11029 0.85329 0.77116 0.0
O194 O 0.11352 0.02335 0.57898 0.0
H195 H 0.19112 0.14218 0.66464 0.0
H196 H 0.18446 0.07439 0.53452 0.0
H197 H 0.16933 0.99242 0.87917 0.0
H198 H 8e-05 0.838 0.64087 0.0
H199 H 0.13616 0.90293 0.90628 0.0
H200 H 0.92472 0.87092 0.68893 0.0
O201 O 0.21939 0.97673 0.72512 0.0
H202 H 0.23384 0.88772 0.5221 0.0
H203 H 0.2854 0.05303 0.6048 0.0
H204 H 0.35392 0.00633 0.55855 0.0
H205 H 0.32819 0.92309 0.51667 0.0
H206 H 0.16691 0.93531 0.56931 0.0
H207 H 0.19274 0.16573 0.50137 0.0
H208 H 0.19738 0.24659 0.55065 0.0
O209 O 0.22624 0.04392 0.67442 0.0
C210 C 0.10266 0.06511 0.70606 0.0
C211 C 0.19622 0.19939 0.61105 0.0
C212 C 0.19279 0.16089 0.53723 0.0
N213 N 0.18727 0.10299 0.60148 0.0
C214 C 0.1923 0.1471 0.62883 0.0
C215 C 0.18842 0.10925 0.5562 0.0
C216 C 0.19568 0.20624 0.56493 0.0
C217 C 0.06083 0.88551 0.67501 0.0
N218 N 0.07119 0.92184 0.70839 0.0
C219 C 0.00808 0.86662 0.66748 0.0
C220 C 0.96581 0.88517 0.69441 0.0
C221 C 0.9767 0.92224 0.7284 0.0
C222 C 0.02994 0.94031 0.7349 0.0
C223 C 0.12107 0.8722 0.84026 0.0
C224 C 0.15772 0.97196 0.80994 0.0
C225 C 0.12327 0.8839 0.79473 0.0
N226 N 0.14112 0.93342 0.78012 0.0
C227 C 0.15614 0.96169 0.85572 0.0
C228 C 0.1376 0.91146 0.8709 0.0
C229 C 0.2438 0.01765 0.70837 0.0
C230 C 0.24555 0.92394 0.54019 0.0
C231 C 0.27415 0.01649 0.58714 0.0
C232 C 0.31299 0.9904 0.56077 0.0
C233 C 0.2985 0.94376 0.53721 0.0
N234 N 0.22238 0.99669 0.59003 0.0
C235 C 0.20779 0.95116 0.56684 0.0
Co236 Co 0.94866 0.35426 0.78726 0.0
Co237 Co 0.03298 0.32971 0.8768 0.0
O238 O 0.96276 0.35024 0.85147 0.0
C239 C 0.86027 0.28642 0.82372 0.0
O240 O 0.8965 0.26326 0.84956 0.0
C241 C 0.00886 0.43462 0.9216 0.0
O242 O 0.99829 0.45549 0.88224 0.0
O243 O 0.0707 0.38445 0.83905 0.0
O244 O 0.02319 0.38345 0.77519 0.0
H245 H 0.23428 0.30012 0.87106 0.0
H246 H 0.87138 0.4054 0.85034 0.0
O247 O 0.87394 0.32411 0.7969 0.0
H248 H 0.93682 0.55469 0.75465 0.0
H249 H 0.83292 0.39234 0.65238 0.0
H250 H 0.01073 0.32635 0.70554 0.0
H251 H 0.96888 0.46081 0.74269 0.0
H252 H 0.85322 0.38862 0.73287 0.0
O253 O 0.02331 0.38516 0.925 0.0
H254 H 0.14212 0.3076 0.83931 0.0
H255 H 0.07433 0.31417 0.96944 0.0
H256 H 0.99235 0.3298 0.62478 0.0
H257 H 0.83792 0.49863 0.86326 0.0
H258 H 0.90285 0.36299 0.59771 0.0
H259 H 0.87082 0.57406 0.81527 0.0
O260 O 0.9767 0.27949 0.77878 0.0
H261 H 0.88761 0.26485 0.98182 0.0
H262 H 0.05293 0.21331 0.89912 0.0
H263 H 0.0062 0.14477 0.94532 0.0
H264 H 0.92295 0.17049 0.9872 0.0
H265 H 0.93524 0.3318 0.93465 0.0
H266 H 0.16567 0.30585 0.00258 0.0
H267 H 0.24654 0.30122 0.95329 0.0
O268 O 0.04384 0.27253 0.82952 0.0
C269 C 0.06507 0.39617 0.79795 0.0
C270 C 0.19934 0.30244 0.8929 0.0
C271 C 0.16083 0.30583 0.96672 0.0
N272 N 0.10293 0.31141 0.90248 0.0
C273 C 0.14704 0.30639 0.87511 0.0
C274 C 0.10919 0.31023 0.94775 0.0
C275 C 0.20618 0.30295 0.93902 0.0
C276 C 0.88544 0.43794 0.82905 0.0
N277 N 0.92177 0.42765 0.79566 0.0
C278 C 0.86654 0.49067 0.83664 0.0
C279 C 0.88508 0.53299 0.80975 0.0
C280 C 0.92215 0.52216 0.77574 0.0
C281 C 0.94023 0.46894 0.76919 0.0
C282 C 0.87212 0.37796 0.66375 0.0
C283 C 0.97189 0.34128 0.69402 0.0
C284 C 0.88383 0.37569 0.70928 0.0
N285 N 0.93335 0.35783 0.72387 0.0
C286 C 0.96163 0.34294 0.64825 0.0
C287 C 0.91138 0.3615 0.63309 0.0
C288 C 0.01759 0.25504 0.79554 0.0
C289 C 0.92383 0.25314 0.96373 0.0
C290 C 0.0164 0.22455 0.91678 0.0
C291 C 0.99028 0.1857 0.94313 0.0
C292 C 0.94363 0.20018 0.96668 0.0
N293 N 0.99662 0.27633 0.91391 0.0
C294 C 0.95108 0.29092 0.93709 0.0
Co295 Co 0.64497 0.44868 0.28774 0.0
Co296 Co 0.66917 0.53345 0.37702 0.0
O297 O 0.64883 0.46304 0.35192 0.0
C298 C 0.71246 0.36019 0.32461 0.0
O299 O 0.73556 0.39638 0.35052 0.0
C300 C 0.56432 0.50929 0.4219 0.0
O301 O 0.54346 0.49858 0.38256 0.0
O302 O 0.61431 0.5708 0.33915 0.0
O303 O 0.61594 0.5232 0.27536 0.0
H304 H 0.69812 0.7348 0.37054 0.0
H305 H 0.59349 0.37176 0.35093 0.0
O306 O 0.67495 0.37394 0.29764 0.0
H307 H 0.44463 0.43699 0.25468 0.0
H308 H 0.60724 0.33242 0.1531 0.0
H309 H 0.67324 0.51038 0.20591 0.0
H310 H 0.53861 0.46885 0.24285 0.0
H311 H 0.61066 0.35306 0.23353 0.0
O312 O 0.61375 0.52385 0.42526 0.0
H313 H 0.69099 0.64244 0.33913 0.0
H314 H 0.68455 0.57534 0.46951 0.0
H315 H 0.6701 0.49166 0.1252 0.0
H316 H 0.50015 0.3385 0.36373 0.0
H317 H 0.6369 0.40209 0.09831 0.0
H318 H 0.42494 0.37129 0.31546 0.0
O319 O 0.71982 0.47656 0.27938 0.0
H320 H 0.73448 0.38892 0.48263 0.0
H321 H 0.78553 0.55387 0.39922 0.0
H322 H 0.8542 0.50765 0.44563 0.0
H323 H 0.82874 0.42459 0.48787 0.0
H324 H 0.66739 0.43603 0.43524 0.0
H325 H 0.69252 0.66689 0.50231 0.0
H326 H 0.69691 0.7475 0.45271 0.0
O327 O 0.72632 0.54424 0.32968 0.0
C328 C 0.60292 0.56507 0.298 0.0
C329 C 0.69589 0.69997 0.3925 0.0
C330 C 0.69258 0.66186 0.46646 0.0
N331 N 0.68726 0.60358 0.40244 0.0
C332 C 0.69215 0.64756 0.37491 0.0
C333 C 0.68839 0.6101 0.44769 0.0
C334 C 0.69531 0.70707 0.43859 0.0
C335 C 0.56104 0.38577 0.32952 0.0
N336 N 0.57151 0.42194 0.29604 0.0
C337 C 0.50825 0.36699 0.33704 0.0
C338 C 0.46605 0.38547 0.30999 0.0
C339 C 0.47707 0.42236 0.2759 0.0
C340 C 0.53034 0.44034 0.26942 0.0
C341 C 0.62163 0.37166 0.16439 0.0
C342 C 0.65831 0.47151 0.19447 0.0
C343 C 0.62372 0.38355 0.20989 0.0
N344 N 0.6416 0.43311 0.22438 0.0
C345 C 0.65682 0.46105 0.14872 0.0
C346 C 0.63827 0.41077 0.13366 0.0
C347 C 0.74405 0.51771 0.29592 0.0
C348 C 0.74608 0.42506 0.46438 0.0
C349 C 0.77439 0.51741 0.41703 0.0
C350 C 0.81332 0.49158 0.44349 0.0
C351 C 0.79898 0.44505 0.46725 0.0
N352 N 0.72268 0.49745 0.41424 0.0
C353 C 0.70822 0.45201 0.43762 0.0
Co354 Co 0.55018 0.14465 0.78711 0.0
Co355 Co 0.46591 0.16903 0.8767 0.0
O356 O 0.53612 0.14854 0.85133 0.0
C357 C 0.63862 0.21237 0.82365 0.0
O358 O 0.60239 0.23549 0.84951 0.0
C359 C 0.49004 0.06405 0.92142 0.0
O360 O 0.50059 0.04322 0.88205 0.0
O361 O 0.42818 0.11435 0.8389 0.0
O362 O 0.47563 0.11553 0.77501 0.0
H363 H 0.2646 0.19859 0.87103 0.0
H364 H 0.62747 0.09332 0.85009 0.0
O365 O 0.62493 0.17474 0.79677 0.0
H366 H 0.56192 0.9443 0.75417 0.0
H367 H 0.66586 0.10687 0.65214 0.0
H368 H 0.48808 0.17275 0.70545 0.0
H369 H 0.5299 0.03823 0.74237 0.0
H370 H 0.64559 0.11039 0.73264 0.0
O371 O 0.4756 0.11351 0.92485 0.0
H372 H 0.35675 0.19117 0.83925 0.0
H373 H 0.4246 0.18444 0.96935 0.0
H374 H 0.50642 0.16951 0.62467 0.0
H375 H 0.66089 4e-05 0.86285 0.0
H376 H 0.5959 0.13637 0.59754 0.0
H377 H 0.62794 0.92475 0.81475 0.0
O378 O 0.52219 0.21946 0.77874 0.0
H379 H 0.61131 0.23374 0.98174 0.0
H380 H 0.44597 0.2854 0.89911 0.0
H381 H 0.49272 0.35388 0.94536 0.0
H382 H 0.57598 0.3281 0.98721 0.0
H383 H 0.56366 0.16686 0.93453 0.0
H384 H 0.33327 0.19271 0.00253 0.0
H385 H 0.25238 0.19738 0.95326 0.0
O386 O 0.45502 0.22628 0.82947 0.0
C387 C 0.43378 0.10273 0.79778 0.0
C388 C 0.29956 0.19625 0.89286 0.0
C389 C 0.3381 0.19278 0.96666 0.0
N390 N 0.39597 0.18729 0.9024 0.0
C391 C 0.35185 0.19234 0.87505 0.0
C392 C 0.38973 0.18841 0.94768 0.0
C393 C 0.29273 0.19569 0.93898 0.0
C394 C 0.61338 0.06084 0.82876 0.0
N395 N 0.57704 0.07123 0.79539 0.0
C396 C 0.63226 0.00808 0.83625 0.0
C397 C 0.61369 0.96584 0.8093 0.0
C398 C 0.57662 0.97677 0.77532 0.0
C399 C 0.55855 0.03002 0.76886 0.0
C400 C 0.62666 0.12123 0.66354 0.0
C401 C 0.52691 0.15785 0.6939 0.0
C402 C 0.61498 0.12339 0.70908 0.0
N403 N 0.56546 0.14123 0.72371 0.0
C404 C 0.53716 0.1563 0.64812 0.0
C405 C 0.58739 0.13778 0.63292 0.0
C406 C 0.48128 0.24386 0.79552 0.0
C407 C 0.57508 0.24547 0.96367 0.0
C408 C 0.48251 0.27413 0.91675 0.0
C409 C 0.50863 0.31295 0.94313 0.0
C410 C 0.55529 0.29843 0.96666 0.0
N411 N 0.50229 0.22236 0.91384 0.0
C412 C 0.54783 0.20773 0.93701 0.0
Co413 Co 0.85379 0.05001 0.28768 0.0
Co414 Co 0.82952 0.96525 0.37696 0.0
O415 O 0.84987 0.03565 0.35186 0.0
C416 C 0.78619 0.13842 0.3245 0.0
O417 O 0.76307 0.10219 0.35036 0.0
C418 C 0.93435 0.98944 0.42185 0.0
O419 O 0.95519 0.00014 0.3825 0.0
O420 O 0.88439 0.92788 0.33912 0.0
O421 O 0.88289 0.9755 0.27534 0.0
H422 H 0.80055 0.7639 0.37053 0.0
H423 H 0.90514 0.12697 0.35091 0.0
O424 O 0.82375 0.12473 0.29755 0.0
H425 H 0.05417 0.06182 0.25481 0.0
H426 H 0.89163 0.1663 0.15307 0.0
H427 H 0.82569 0.98829 0.20583 0.0
H428 H 0.96022 0.0299 0.24289 0.0
H429 H 0.8881 0.14565 0.2335 0.0
O430 O 0.88492 0.97487 0.42522 0.0
H431 H 0.80771 0.85625 0.3391 0.0
H432 H 0.8141 0.92339 0.46946 0.0
H433 H 0.82894 0.00701 0.12511 0.0
H434 H 0.99844 0.16028 0.36379 0.0
H435 H 0.8621 0.09661 0.09825 0.0
H436 H 0.07374 0.12753 0.31561 0.0
O437 O 0.77898 0.02207 0.27925 0.0
H438 H 0.76415 0.10982 0.48249 0.0
H439 H 0.71315 0.94484 0.39912 0.0
H440 H 0.64444 0.99108 0.44547 0.0
H441 H 0.66988 0.07415 0.4877 0.0
H442 H 0.83127 0.06268 0.43516 0.0
H443 H 0.8061 0.83184 0.50228 0.0
H444 H 0.80172 0.75122 0.45271 0.0
O445 O 0.77239 0.95445 0.3296 0.0
C446 C 0.89586 0.93362 0.29799 0.0
C447 C 0.80278 0.79874 0.39249 0.0
C448 C 0.80606 0.83687 0.46644 0.0
N449 N 0.81142 0.89512 0.4024 0.0
C450 C 0.80653 0.85114 0.37488 0.0
C451 C 0.81026 0.88862 0.44765 0.0
C452 C 0.80333 0.79165 0.43858 0.0
C453 C 0.93763 0.11297 0.32954 0.0
N454 N 0.92723 0.0768 0.29605 0.0
C455 C 0.9904 0.13179 0.3371 0.0
C456 C 0.03264 0.11333 0.3101 0.0
C457 C 0.0217 0.07643 0.276 0.0
C458 C 0.96844 0.05842 0.26947 0.0
C459 C 0.87725 0.12705 0.16435 0.0
C460 C 0.8406 0.02717 0.1944 0.0
C461 C 0.8751 0.11515 0.20985 0.0
N462 N 0.85724 0.06558 0.22433 0.0
C463 C 0.84215 0.03763 0.14865 0.0
C464 C 0.86069 0.08793 0.13361 0.0
C465 C 0.75472 0.98094 0.29579 0.0
C466 C 0.75256 0.07367 0.46425 0.0
C467 C 0.72427 0.9813 0.41692 0.0
C468 C 0.68533 0.00714 0.44336 0.0
C469 C 0.69965 0.05369 0.4671 0.0
N470 N 0.77599 0.00126 0.41415 0.0
C471 C 0.79043 0.0467 0.43752 0.0
C472 C 0.0163 0.44548 0.00455 0.0
C473 C 0.00389 0.46798 0.96258 0.0
H474 H 0.02161 0.45802 0.0751 0.0
C475 C 0.98668 0.52232 0.96038 0.0
H476 H 0.02969 0.40369 0.00753 0.0
C477 C 0.98203 0.55344 0.99921 0.0
C478 C 0.99444 0.53094 0.04119 0.0
H479 H 0.97672 0.54089 0.92867 0.0
H480 H 0.96864 0.59523 0.99624 0.0
C481 C 0.01165 0.4766 0.04339 0.0
C482 C 0.52237 0.51215 0.5437 0.0
C483 C 0.46801 0.49499 0.54151 0.0
H484 H 0.5953 0.53012 0.50782 0.0
C485 C 0.44549 0.48259 0.49954 0.0
H486 H 0.54096 0.5221 0.57541 0.0
C487 C 0.47661 0.48721 0.4607 0.0
C488 C 0.53097 0.50437 0.46289 0.0
H489 H 0.40369 0.46924 0.49657 0.0
H490 H 0.45802 0.47725 0.42899 0.0
C491 C 0.55349 0.51677 0.50486 0.0
C492 C 0.48726 0.022 0.0432 0.0
C493 C 0.50444 0.96765 0.04098 0.0
H494 H 0.46926 0.09494 0.00736 0.0
C495 C 0.51683 0.94516 0.999 0.0
H496 H 0.47731 0.04056 0.07491 0.0
C497 C 0.51218 0.97631 0.96017 0.0
C498 C 0.495 0.03066 0.96239 0.0
H499 H 0.53019 0.90336 0.99602 0.0
H500 H 0.52212 0.95775 0.92845 0.0
C501 C 0.48262 0.05314 0.00437 0.0
C502 C 0.02205 0.01162 0.46062 0.0
C503 C 0.9677 0.99441 0.46283 0.0
H504 H 0.09497 0.02968 0.49646 0.0
C505 C 0.94521 0.98202 0.50481 0.0
H506 H 0.04062 0.02158 0.4289 0.0
C507 C 0.97635 0.98669 0.54364 0.0
C508 C 0.03069 0.0039 0.54143 0.0
H509 H 0.90342 0.96863 0.50779 0.0
H510 H 0.95778 0.97674 0.57536 0.0
C511 C 0.05318 0.01629 0.49945 0.0
C512 C 0.22216 0.74093 0.13843 0.0
C513 C 0.19513 0.73144 0.1789 0.0
H514 H 0.29711 0.76422 0.10689 0.0
C515 C 0.22267 0.73992 0.21927 0.0
H516 H 0.20155 0.73441 0.10695 0.0
C517 C 0.27622 0.75868 0.21923 0.0
C518 C 0.30368 0.76718 0.17883 0.0
H519 H 0.20243 0.73294 0.25084 0.0
H520 H 0.29653 0.76566 0.25078 0.0
C521 C 0.27656 0.75768 0.13839 0.0
C522 C 0.2589 0.72277 0.7202 0.0
C523 C 0.26739 0.69525 0.67983 0.0
H524 H 0.23305 0.79659 0.75172 0.0
C525 C 0.25777 0.72225 0.63936 0.0
H526 H 0.26597 0.70254 0.75177 0.0
C527 C 0.24092 0.77661 0.63933 0.0
C528 C 0.23142 0.80371 0.67977 0.0
H529 H 0.26429 0.70165 0.60788 0.0
H530 H 0.2343 0.79713 0.60783 0.0
C531 C 0.24002 0.77628 0.72017 0.0
C532 C 0.7227 0.23997 0.78376 0.0
C533 C 0.69521 0.2314 0.82414 0.0
H534 H 0.79649 0.26589 0.75222 0.0
C535 C 0.72226 0.24092 0.8646 0.0
H536 H 0.70244 0.23298 0.75219 0.0
C537 C 0.77662 0.25777 0.86462 0.0
C538 C 0.80368 0.26736 0.82417 0.0
H539 H 0.70169 0.23433 0.89609 0.0
H540 H 0.79718 0.26431 0.89612 0.0
C541 C 0.77621 0.25885 0.78378 0.0
C542 C 0.73999 0.27613 0.28467 0.0
C543 C 0.73144 0.30358 0.32507 0.0
H544 H 0.7658 0.20236 0.25307 0.0
C545 C 0.74089 0.27645 0.36551 0.0
H546 H 0.73305 0.29645 0.25312 0.0
C547 C 0.75766 0.22206 0.36548 0.0
C548 C 0.76721 0.19504 0.32501 0.0
H549 H 0.73432 0.29699 0.39702 0.0
H550 H 0.76414 0.20144 0.39696 0.0
C551 C 0.75877 0.22259 0.28465 0.0
C552 C 0.80498 0.52305 0.22894 0.0
C553 C 0.79435 0.53682 0.27367 0.0
H554 H 0.85707 0.53369 0.17224 0.0
C555 C 0.83147 0.57027 0.29634 0.0
H556 H 0.77725 0.49741 0.21041 0.0
C557 C 0.8779 0.58973 0.27479 0.0
C558 C 0.88754 0.57741 0.22971 0.0
H559 H 0.82458 0.58182 0.33067 0.0
H560 H 0.90523 0.61608 0.29305 0.0
C561 C 0.85069 0.54377 0.20701 0.0
C562 C 0.40976 0.37807 0.77484 0.0
C563 C 0.42158 0.38758 0.72966 0.0
H564 H 0.41805 0.32478 0.83071 0.0
C565 C 0.45473 0.35052 0.70672 0.0
H566 H 0.3838 0.40557 0.7933 0.0
C567 C 0.47545 0.30471 0.72851 0.0
C568 C 0.46217 0.29422 0.77336 0.0
H569 H 0.46443 0.3568 0.67186 0.0
H570 H 0.50071 0.27681 0.7098 0.0
C571 C 0.42921 0.33155 0.79628 0.0
C572 C 0.64823 0.95474 0.20678 0.0
C573 C 0.61132 0.92119 0.2295 0.0
H574 H 0.7217 0.00106 0.2102 0.0
C575 C 0.62086 0.90896 0.27461 0.0
H576 H 0.64192 0.96474 0.17199 0.0
C577 C 0.66727 0.92844 0.29619 0.0
C578 C 0.70445 0.96181 0.27351 0.0
H579 H 0.59348 0.88269 0.29288 0.0
H580 H 0.67409 0.91697 0.33054 0.0
C581 C 0.69392 0.97548 0.22874 0.0
C582 C 0.06958 0.1673 0.79623 0.0
C583 C 0.03668 0.2047 0.77334 0.0
H584 H 0.11493 0.09326 0.79323 0.0
C585 C 0.02344 0.1943 0.72847 0.0
H586 H 0.08071 0.17401 0.83068 0.0
C587 C 0.04414 0.14852 0.70664 0.0
C588 C 0.07723 0.11138 0.72957 0.0
H589 H 0.99823 0.22226 0.70977 0.0
H590 H 0.03447 0.1423 0.67177 0.0
C591 C 0.08902 0.12081 0.77477 0.0
C592 C 0.14846 0.45471 0.79741 0.0
C593 C 0.11133 0.42163 0.77445 0.0
H594 H 0.2222 0.50064 0.7943 0.0
C595 C 0.12077 0.40989 0.72925 0.0
H596 H 0.14224 0.46434 0.83228 0.0
C597 C 0.16727 0.42935 0.7078 0.0
C598 C 0.20466 0.46224 0.73071 0.0
H599 H 0.09323 0.38399 0.71078 0.0
H600 H 0.17398 0.41825 0.67335 0.0
C601 C 0.19425 0.47544 0.77559 0.0
C602 C 0.54393 0.64812 0.29701 0.0
C603 C 0.57752 0.61123 0.27432 0.0
H604 H 0.49759 0.72157 0.29357 0.0
C605 C 0.58981 0.6208 0.22923 0.0
H606 H 0.53388 0.64179 0.33179 0.0
C607 C 0.57035 0.66721 0.20764 0.0
C608 C 0.53693 0.70437 0.2303 0.0
H609 H 0.61612 0.59344 0.21097 0.0
H610 H 0.58186 0.67405 0.1733 0.0
C611 C 0.52321 0.69381 0.27505 0.0
C612 C 0.35043 0.04414 0.7972 0.0
C613 C 0.3875 0.07732 0.77427 0.0
H614 H 0.27673 0.99816 0.79408 0.0
C615 C 0.37799 0.08918 0.7291 0.0
H616 H 0.3567 0.03442 0.83205 0.0
C617 C 0.33148 0.06974 0.70765 0.0
C618 C 0.29415 0.03675 0.73054 0.0
H619 H 0.40548 0.11516 0.71065 0.0
H620 H 0.3247 0.08093 0.67322 0.0
C621 C 0.30463 0.02343 0.77539 0.0
C622 C 0.92846 0.83141 0.20772 0.0
C623 C 0.96187 0.79428 0.23041 0.0
H624 H 0.88268 0.90519 0.21099 0.0
C625 C 0.97559 0.80488 0.27515 0.0
H626 H 0.91694 0.82454 0.17338 0.0
C627 C 0.95487 0.85059 0.29707 0.0
C628 C 0.92128 0.88746 0.27435 0.0
H629 H 0.00121 0.77714 0.29369 0.0
H630 H 0.96492 0.85695 0.33185 0.0
C631 C 0.909 0.87785 0.22926 0.0
loop_
_geom_bond_atom_site_label_1
_geom_bond_atom_site_label_2
_geom_bond_distance
_geom_bond_site_symmetry_2
_ccdc_geom_bond_type
Co0 O2 2.143 . S
Co0 O8 2.074 1_455 S
Co0 O11 2.093 . S
Co0 O24 2.097 . S
Co0 N41 2.151 . S
Co0 N49 2.214 . S
Co1 O2 2.160 1_655 S
Co1 O7 2.058 . S
Co1 O17 2.057 . S
Co1 O32 2.037 . S
Co1 N36 2.145 . S
Co1 N57 2.257 . S
O2 Co0 2.143 . S
O2 Co1 2.160 1_455 S
C3 O4 1.278 . S
C3 O11 1.224 . S
O4 C3 1.278 . S
C5 O6 1.245 . S
C5 O17 1.232 1_455 S
O6 C5 1.245 . S
O7 Co1 2.058 . S
O7 C33 1.269 . S
O8 Co0 2.074 1_655 S
O8 C33 1.257 . S
H9 C34 0.930 . S
H10 C40 0.930 . S
O11 Co0 2.093 . S
O11 C3 1.224 . S
H12 C44 0.929 . S
H13 C46 0.930 . S
H14 C47 0.930 1_655 S
H15 C45 0.929 . S
H16 C48 0.928 . S
O17 Co1 2.057 . S
O17 C5 1.232 1_655 S
H18 C37 0.929 . S
H19 C38 0.929 . S
H20 C50 0.931 1_655 S
H21 C42 0.929 . S
H22 C51 0.930 . S
H23 C43 0.931 . S
O24 Co0 2.097 . S
O24 C52 1.214 1_455 S
H25 C53 0.929 . S
H26 C54 0.929 . S
H27 C55 0.930 . S
H28 C56 0.929 . S
H29 C58 0.930 . S
H30 C35 0.930 . S
H31 C39 0.930 . S
O32 Co1 2.037 . S
O32 C52 1.234 . S
C33 O7 1.269 . S
C33 O8 1.257 . S
C34 H9 0.930 . S
C34 C37 1.388 . S
C34 C39 1.418 . S
C35 H30 0.930 . S
C35 C38 1.404 . S
C35 C39 1.353 . S
N36 Co1 2.145 . S
N36 C37 1.397 . S
N36 C38 1.334 . S
C37 H18 0.929 . S
C37 C34 1.388 . S
C37 N36 1.397 . S
C38 H19 0.929 . S
C38 C35 1.404 . S
C38 N36 1.334 . S
C39 H31 0.930 . S
C39 C34 1.418 . S
C39 C35 1.353 . S
C40 H10 0.930 . S
C40 N41 1.330 . S
C40 C42 1.446 . S
N41 Co0 2.151 . S
N41 C40 1.330 . S
N41 C45 1.418 . S
C42 H21 0.929 . S
C42 C40 1.446 . S
C42 C43 1.332 . S
C43 H23 0.931 . S
C43 C42 1.332 . S
C43 C44 1.267 . S
C44 H12 0.929 . S
C44 C43 1.267 . S
C44 C45 1.251 . S
C45 H15 0.929 . S
C45 N41 1.418 . S
C45 C44 1.251 . S
C46 H13 0.930 . S
C46 C48 1.406 . S
C46 C51 1.261 . S
C47 H14 0.930 1_455 S
C47 N49 1.325 . S
C47 C50 1.357 . S
C48 H16 0.928 . S
C48 C46 1.406 . S
C48 N49 1.261 . S
N49 Co0 2.214 . S
N49 C47 1.325 . S
N49 C48 1.261 . S
C50 H20 0.931 1_455 S
C50 C47 1.357 . S
C50 C51 1.312 . S
C51 H22 0.930 . S
C51 C46 1.261 . S
C51 C50 1.312 . S
C52 O24 1.214 1_655 S
C52 O32 1.234 . S
C53 H25 0.929 . S
C53 C56 1.391 . S
C53 C58 1.391 . S
C54 H26 0.929 . S
C54 C55 1.390 . S
C54 N57 1.391 . S
C55 H27 0.930 . S
C55 C54 1.390 . S
C55 C56 1.392 1_655 S
C56 H28 0.929 . S
C56 C53 1.391 . S
C56 C55 1.392 1_455 S
N57 Co1 2.257 . S
N57 C54 1.391 . S
N57 C58 1.388 1_655 S
C58 H29 0.930 . S
C58 C53 1.391 . S
C58 N57 1.388 1_455 S
Co59 O61 2.143 . S
Co59 O67 2.074 . S
Co59 O70 2.093 . S
Co59 O83 2.097 . S
Co59 N100 2.151 . S
Co59 N108 2.214 . S
Co60 O61 2.160 . S
Co60 O66 2.058 . S
Co60 O76 2.057 . S
Co60 O91 2.037 . S
Co60 N95 2.145 . S
Co60 N116 2.257 . S
O61 Co59 2.143 . S
O61 Co60 2.160 . S
C62 O63 1.278 . S
C62 O70 1.224 . S
O63 C62 1.278 . S
C64 O65 1.245 . S
C64 O76 1.232 . S
O65 C64 1.245 . S
O66 Co60 2.058 . S
O66 C92 1.269 . S
O67 Co59 2.074 . S
O67 C92 1.257 . S
H68 C93 0.930 . S
H69 C99 0.930 . S
O70 Co59 2.093 . S
O70 C62 1.224 . S
H71 C103 0.929 . S
H72 C105 0.930 . S
H73 C106 0.930 . S
H74 C104 0.929 . S
H75 C107 0.928 . S
O76 Co60 2.057 . S
O76 C64 1.232 . S
H77 C96 0.929 . S
H78 C97 0.929 . S
H79 C109 0.931 . S
H80 C101 0.929 . S
H81 C110 0.930 . S
H82 C102 0.931 . S
O83 Co59 2.097 . S
O83 C111 1.214 . S
H84 C112 0.929 . S
H85 C113 0.929 . S
H86 C114 0.930 . S
H87 C115 0.929 . S
H88 C117 0.930 . S
H89 C94 0.930 . S
H90 C98 0.930 . S
O91 Co60 2.037 . S
O91 C111 1.234 . S
C92 O66 1.269 . S
C92 O67 1.257 . S
C93 H68 0.930 . S
C93 C96 1.388 . S
C93 C98 1.418 . S
C94 H89 0.930 . S
C94 C97 1.404 . S
C94 C98 1.353 . S
N95 Co60 2.145 . S
N95 C96 1.397 . S
N95 C97 1.334 . S
C96 H77 0.929 . S
C96 C93 1.388 . S
C96 N95 1.397 . S
C97 H78 0.929 . S
C97 C94 1.404 . S
C97 N95 1.334 . S
C98 H90 0.930 . S
C98 C93 1.418 . S
C98 C94 1.353 . S
C99 H69 0.930 . S
C99 N100 1.330 . S
C99 C101 1.446 . S
N100 Co59 2.151 . S
N100 C99 1.330 . S
N100 C104 1.418 . S
C101 H80 0.929 . S
C101 C99 1.446 . S
C101 C102 1.332 . S
C102 H82 0.931 . S
C102 C101 1.332 . S
C102 C103 1.267 . S
C103 H71 0.929 . S
C103 C102 1.267 . S
C103 C104 1.251 . S
C104 H74 0.929 . S
C104 N100 1.418 . S
C104 C103 1.251 . S
C105 H72 0.930 . S
C105 C107 1.406 . S
C105 C110 1.261 . S
C106 H73 0.930 . S
C106 N108 1.325 . S
C106 C109 1.357 . S
C107 H75 0.928 . S
C107 C105 1.406 . S
C107 N108 1.261 . S
N108 Co59 2.214 . S
N108 C106 1.325 . S
N108 C107 1.261 . S
C109 H79 0.931 . S
C109 C106 1.357 . S
C109 C110 1.312 . S
C110 H81 0.930 . S
C110 C105 1.261 . S
C110 C109 1.312 . S
C111 O83 1.214 . S
C111 O91 1.234 . S
C112 H84 0.929 . S
C112 C115 1.391 . S
C112 C117 1.391 . S
C113 H85 0.929 . S
C113 C114 1.390 . S
C113 N116 1.391 . S
C114 H86 0.930 . S
C114 C113 1.390 . S
C114 C115 1.392 . S
C115 H87 0.929 . S
C115 C112 1.391 . S
C115 C114 1.392 . S
N116 Co60 2.257 . S
N116 C113 1.391 . S
N116 C117 1.388 . S
C117 H88 0.930 . S
C117 C112 1.391 . S
C117 N116 1.388 . S
Co118 O120 2.143 . S
Co118 O126 2.074 . S
Co118 O129 2.093 . S
Co118 O142 2.097 . S
Co118 N159 2.151 . S
Co118 N167 2.214 . S
Co119 O120 2.160 . S
Co119 O125 2.058 . S
Co119 O135 2.057 . S
Co119 O150 2.037 . S
Co119 N154 2.145 . S
Co119 N175 2.257 . S
O120 Co118 2.143 . S
O120 Co119 2.160 . S
C121 O122 1.278 . S
C121 O129 1.224 . S
O122 C121 1.278 . S
C123 O124 1.245 . S
C123 O135 1.232 . S
O124 C123 1.245 . S
O125 Co119 2.058 . S
O125 C151 1.269 . S
O126 Co118 2.074 . S
O126 C151 1.257 . S
H127 C152 0.930 . S
H128 C158 0.930 . S
O129 Co118 2.093 . S
O129 C121 1.224 . S
H130 C162 0.929 1_545 S
H131 C164 0.930 . S
H132 C165 0.930 . S
H133 C163 0.929 . S
H134 C166 0.928 . S
O135 Co119 2.057 . S
O135 C123 1.232 . S
H136 C155 0.929 . S
H137 C156 0.929 . S
H138 C168 0.931 . S
H139 C160 0.929 . S
H140 C169 0.930 . S
H141 C161 0.931 . S
O142 Co118 2.097 . S
O142 C170 1.214 . S
H143 C171 0.929 . S
H144 C172 0.929 . S
H145 C173 0.930 . S
H146 C174 0.929 . S
H147 C176 0.930 . S
H148 C153 0.930 . S
H149 C157 0.930 . S
O150 Co119 2.037 . S
O150 C170 1.234 . S
C151 O125 1.269 . S
C151 O126 1.257 . S
C152 H127 0.930 . S
C152 C155 1.388 . S
C152 C157 1.418 . S
C153 H148 0.930 . S
C153 C156 1.404 . S
C153 C157 1.353 . S
N154 Co119 2.145 . S
N154 C155 1.397 . S
N154 C156 1.334 . S
C155 H136 0.929 . S
C155 C152 1.388 . S
C155 N154 1.397 . S
C156 H137 0.929 . S
C156 C153 1.404 . S
C156 N154 1.334 . S
C157 H149 0.930 . S
C157 C152 1.418 . S
C157 C153 1.353 . S
C158 H128 0.930 . S
C158 N159 1.330 . S
C158 C160 1.446 . S
N159 Co118 2.151 . S
N159 C158 1.330 . S
N159 C163 1.418 . S
C160 H139 0.929 . S
C160 C158 1.446 . S
C160 C161 1.332 1_565 S
C161 H141 0.931 . S
C161 C160 1.332 1_545 S
C161 C162 1.267 1_545 S
C162 H130 0.929 1_565 S
C162 C161 1.267 1_565 S
C162 C163 1.251 . S
C163 H133 0.929 . S
C163 N159 1.418 . S
C163 C162 1.251 . S
C164 H131 0.930 . S
C164 C166 1.406 . S
C164 C169 1.261 . S
C165 H132 0.930 . S
C165 N167 1.325 . S
C165 C168 1.357 . S
C166 H134 0.928 . S
C166 C164 1.406 . S
C166 N167 1.261 . S
N167 Co118 2.214 . S
N167 C165 1.325 . S
N167 C166 1.261 . S
C168 H138 0.931 . S
C168 C165 1.357 . S
C168 C169 1.312 . S
C169 H140 0.930 . S
C169 C164 1.261 . S
C169 C168 1.312 . S
C170 O142 1.214 . S
C170 O150 1.234 . S
C171 H143 0.929 . S
C171 C174 1.391 . S
C171 C176 1.391 . S
C172 H144 0.929 . S
C172 C173 1.390 . S
C172 N175 1.391 . S
C173 H145 0.930 . S
C173 C172 1.390 . S
C173 C174 1.392 . S
C174 H146 0.929 . S
C174 C171 1.391 . S
C174 C173 1.392 . S
N175 Co119 2.257 . S
N175 C172 1.391 . S
N175 C176 1.388 . S
C176 H147 0.930 . S
C176 C171 1.391 . S
C176 N175 1.388 . S
Co177 O179 2.143 . S
Co177 O185 2.074 1_565 S
Co177 O188 2.093 . S
Co177 O201 2.097 . S
Co177 N218 2.151 . S
Co177 N226 2.214 . S
Co178 O179 2.160 1_545 S
Co178 O184 2.058 . S
Co178 O194 2.057 . S
Co178 O209 2.037 . S
Co178 N213 2.145 . S
Co178 N234 2.257 . S
O179 Co177 2.143 . S
O179 Co178 2.160 1_565 S
C180 O181 1.278 . S
C180 O188 1.224 . S
O181 C180 1.278 . S
C182 O183 1.245 . S
C182 O194 1.232 1_565 S
O183 C182 1.245 . S
O184 Co178 2.058 . S
O184 C210 1.269 . S
O185 Co177 2.074 1_545 S
O185 C210 1.257 . S
H186 C211 0.930 . S
H187 C217 0.930 . S
O188 Co177 2.093 . S
O188 C180 1.224 . S
H189 C221 0.929 1_655 S
H190 C223 0.930 . S
H191 C224 0.930 1_545 S
H192 C222 0.929 . S
H193 C225 0.928 . S
O194 Co178 2.057 . S
O194 C182 1.232 1_545 S
H195 C214 0.929 . S
H196 C215 0.929 . S
H197 C227 0.931 1_545 S
H198 C219 0.929 . S
H199 C228 0.930 . S
H200 C220 0.931 . S
O201 Co177 2.097 . S
O201 C229 1.214 1_565 S
H202 C230 0.929 . S
H203 C231 0.929 . S
H204 C232 0.930 . S
H205 C233 0.929 . S
H206 C235 0.930 . S
H207 C212 0.930 . S
H208 C216 0.930 . S
O209 Co178 2.037 . S
O209 C229 1.234 . S
C210 O184 1.269 . S
C210 O185 1.257 . S
C211 H186 0.930 . S
C211 C214 1.388 . S
C211 C216 1.418 . S
C212 H207 0.930 . S
C212 C215 1.404 . S
C212 C216 1.353 . S
N213 Co178 2.145 . S
N213 C214 1.397 . S
N213 C215 1.334 . S
C214 H195 0.929 . S
C214 C211 1.388 . S
C214 N213 1.397 . S
C215 H196 0.929 . S
C215 C212 1.404 . S
C215 N213 1.334 . S
C216 H208 0.930 . S
C216 C211 1.418 . S
C216 C212 1.353 . S
C217 H187 0.930 . S
C217 N218 1.330 . S
C217 C219 1.446 . S
N218 Co177 2.151 . S
N218 C217 1.330 . S
N218 C222 1.418 . S
C219 H198 0.929 . S
C219 C217 1.446 . S
C219 C220 1.332 1_455 S
C220 H200 0.931 . S
C220 C219 1.332 1_655 S
C220 C221 1.267 1_655 S
C221 H189 0.929 1_455 S
C221 C220 1.267 1_455 S
C221 C222 1.251 . S
C222 H192 0.929 . S
C222 N218 1.418 . S
C222 C221 1.251 . S
C223 H190 0.930 . S
C223 C225 1.406 . S
C223 C228 1.261 . S
C224 H191 0.930 1_565 S
C224 N226 1.325 . S
C224 C227 1.357 . S
C225 H193 0.928 . S
C225 C223 1.406 . S
C225 N226 1.261 . S
N226 Co177 2.214 . S
N226 C224 1.325 . S
N226 C225 1.261 . S
C227 H197 0.931 1_565 S
C227 C224 1.357 . S
C227 C228 1.312 . S
C228 H199 0.930 . S
C228 C223 1.261 . S
C228 C227 1.312 . S
C229 O201 1.214 1_545 S
C229 O209 1.234 . S
C230 H202 0.929 . S
C230 C233 1.391 . S
C230 C235 1.391 . S
C231 H203 0.929 . S
C231 C232 1.390 . S
C231 N234 1.391 . S
C232 H204 0.930 . S
C232 C231 1.390 . S
C232 C233 1.392 1_545 S
C233 H205 0.929 . S
C233 C230 1.391 . S
C233 C232 1.392 1_565 S
N234 Co178 2.257 . S
N234 C231 1.391 . S
N234 C235 1.388 1_545 S
C235 H206 0.930 . S
C235 C230 1.391 . S
C235 N234 1.388 1_565 S
Co236 O238 2.143 . S
Co236 O244 2.074 1_655 S
Co236 O247 2.093 . S
Co236 O260 2.097 . S
Co236 N277 2.151 . S
Co236 N285 2.214 . S
Co237 O238 2.160 1_455 S
Co237 O243 2.058 . S
Co237 O253 2.057 . S
Co237 O268 2.037 . S
Co237 N272 2.145 . S
Co237 N293 2.257 . S
O238 Co236 2.143 . S
O238 Co237 2.160 1_655 S
C239 O240 1.278 . S
C239 O247 1.224 . S
O240 C239 1.278 . S
C241 O242 1.245 . S
C241 O253 1.232 1_655 S
O242 C241 1.245 . S
O243 Co237 2.058 . S
O243 C269 1.269 . S
O244 Co236 2.074 1_455 S
O244 C269 1.257 . S
H245 C270 0.930 . S
H246 C276 0.930 . S
O247 Co236 2.093 . S
O247 C239 1.224 . S
H248 C280 0.929 . S
H249 C282 0.930 . S
H250 C283 0.930 1_455 S
H251 C281 0.929 . S
H252 C284 0.928 . S
O253 Co237 2.057 . S
O253 C241 1.232 1_455 S
H254 C273 0.929 . S
H255 C274 0.929 . S
H256 C286 0.931 1_455 S
H257 C278 0.929 . S
H258 C287 0.930 . S
H259 C279 0.931 . S
O260 Co236 2.097 . S
O260 C288 1.214 1_655 S
H261 C289 0.929 . S
H262 C290 0.929 . S
H263 C291 0.930 . S
H264 C292 0.929 . S
H265 C294 0.930 . S
H266 C271 0.930 . S
H267 C275 0.930 . S
O268 Co237 2.037 . S
O268 C288 1.234 . S
C269 O243 1.269 . S
C269 O244 1.257 . S
C270 H245 0.930 . S
C270 C273 1.388 . S
C270 C275 1.418 . S
C271 H266 0.930 . S
C271 C274 1.404 . S
C271 C275 1.353 . S
N272 Co237 2.145 . S
N272 C273 1.397 . S
N272 C274 1.334 . S
C273 H254 0.929 . S
C273 C270 1.388 . S
C273 N272 1.397 . S
C274 H255 0.929 . S
C274 C271 1.404 . S
C274 N272 1.334 . S
C275 H267 0.930 . S
C275 C270 1.418 . S
C275 C271 1.353 . S
C276 H246 0.930 . S
C276 N277 1.330 . S
C276 C278 1.446 . S
N277 Co236 2.151 . S
N277 C276 1.330 . S
N277 C281 1.418 . S
C278 H257 0.929 . S
C278 C276 1.446 . S
C278 C279 1.332 . S
C279 H259 0.931 . S
C279 C278 1.332 . S
C279 C280 1.267 . S
C280 H248 0.929 . S
C280 C279 1.267 . S
C280 C281 1.251 . S
C281 H251 0.929 . S
C281 N277 1.418 . S
C281 C280 1.251 . S
C282 H249 0.930 . S
C282 C284 1.406 . S
C282 C287 1.261 . S
C283 H250 0.930 1_655 S
C283 N285 1.325 . S
C283 C286 1.357 . S
C284 H252 0.928 . S
C284 C282 1.406 . S
C284 N285 1.261 . S
N285 Co236 2.214 . S
N285 C283 1.325 . S
N285 C284 1.261 . S
C286 H256 0.931 1_655 S
C286 C283 1.357 . S
C286 C287 1.312 . S
C287 H258 0.930 . S
C287 C282 1.261 . S
C287 C286 1.312 . S
C288 O260 1.214 1_455 S
C288 O268 1.234 . S
C289 H261 0.929 . S
C289 C292 1.391 . S
C289 C294 1.391 . S
C290 H262 0.929 . S
C290 C291 1.390 . S
C290 N293 1.391 . S
C291 H263 0.930 . S
C291 C290 1.390 . S
C291 C292 1.392 1_455 S
C292 H264 0.929 . S
C292 C289 1.391 . S
C292 C291 1.392 1_655 S
N293 Co237 2.257 . S
N293 C290 1.391 . S
N293 C294 1.388 1_455 S
C294 H265 0.930 . S
C294 C289 1.391 . S
C294 N293 1.388 1_655 S
Co295 O297 2.143 . S
Co295 O303 2.074 . S
Co295 O306 2.093 . S
Co295 O319 2.097 . S
Co295 N336 2.151 . S
Co295 N344 2.214 . S
Co296 O297 2.160 . S
Co296 O302 2.058 . S
Co296 O312 2.057 . S
Co296 O327 2.037 . S
Co296 N331 2.145 . S
Co296 N352 2.257 . S
O297 Co295 2.143 . S
O297 Co296 2.160 . S
C298 O299 1.278 . S
C298 O306 1.224 . S
O299 C298 1.278 . S
C300 O301 1.245 . S
C300 O312 1.232 . S
O301 C300 1.245 . S
O302 Co296 2.058 . S
O302 C328 1.269 . S
O303 Co295 2.074 . S
O303 C328 1.257 . S
H304 C329 0.930 . S
H305 C335 0.930 . S
O306 Co295 2.093 . S
O306 C298 1.224 . S
H307 C339 0.929 . S
H308 C341 0.930 . S
H309 C342 0.930 . S
H310 C340 0.929 . S
H311 C343 0.928 . S
O312 Co296 2.057 . S
O312 C300 1.232 . S
H313 C332 0.929 . S
H314 C333 0.929 . S
H315 C345 0.931 . S
H316 C337 0.929 . S
H317 C346 0.930 . S
H318 C338 0.931 . S
O319 Co295 2.097 . S
O319 C347 1.214 . S
H320 C348 0.929 . S
H321 C349 0.929 . S
H322 C350 0.930 . S
H323 C351 0.929 . S
H324 C353 0.930 . S
H325 C330 0.930 . S
H326 C334 0.930 . S
O327 Co296 2.037 . S
O327 C347 1.234 . S
C328 O302 1.269 . S
C328 O303 1.257 . S
C329 H304 0.930 . S
C329 C332 1.388 . S
C329 C334 1.418 . S
C330 H325 0.930 . S
C330 C333 1.404 . S
C330 C334 1.353 . S
N331 Co296 2.145 . S
N331 C332 1.397 . S
N331 C333 1.334 . S
C332 H313 0.929 . S
C332 C329 1.388 . S
C332 N331 1.397 . S
C333 H314 0.929 . S
C333 C330 1.404 . S
C333 N331 1.334 . S
C334 H326 0.930 . S
C334 C329 1.418 . S
C334 C330 1.353 . S
C335 H305 0.930 . S
C335 N336 1.330 . S
C335 C337 1.446 . S
N336 Co295 2.151 . S
N336 C335 1.330 . S
N336 C340 1.418 . S
C337 H316 0.929 . S
C337 C335 1.446 . S
C337 C338 1.332 . S
C338 H318 0.931 . S
C338 C337 1.332 . S
C338 C339 1.267 . S
C339 H307 0.929 . S
C339 C338 1.267 . S
C339 C340 1.251 . S
C340 H310 0.929 . S
C340 N336 1.418 . S
C340 C339 1.251 . S
C341 H308 0.930 . S
C341 C343 1.406 . S
C341 C346 1.261 . S
C342 H309 0.930 . S
C342 N344 1.325 . S
C342 C345 1.357 . S
C343 H311 0.928 . S
C343 C341 1.406 . S
C343 N344 1.261 . S
N344 Co295 2.214 . S
N344 C342 1.325 . S
N344 C343 1.261 . S
C345 H315 0.931 . S
C345 C342 1.357 . S
C345 C346 1.312 . S
C346 H317 0.930 . S
C346 C341 1.261 . S
C346 C345 1.312 . S
C347 O319 1.214 . S
C347 O327 1.234 . S
C348 H320 0.929 . S
C348 C351 1.391 . S
C348 C353 1.391 . S
C349 H321 0.929 . S
C349 C350 1.390 . S
C349 N352 1.391 . S
C350 H322 0.930 . S
C350 C349 1.390 . S
C350 C351 1.392 . S
C351 H323 0.929 . S
C351 C348 1.391 . S
C351 C350 1.392 . S
N352 Co296 2.257 . S
N352 C349 1.391 . S
N352 C353 1.388 . S
C353 H324 0.930 . S
C353 C348 1.391 . S
C353 N352 1.388 . S
Co354 O356 2.143 . S
Co354 O362 2.074 . S
Co354 O365 2.093 . S
Co354 O378 2.097 . S
Co354 N395 2.151 . S
Co354 N403 2.214 . S
Co355 O356 2.160 . S
Co355 O361 2.058 . S
Co355 O371 2.057 . S
Co355 O386 2.037 . S
Co355 N390 2.145 . S
Co355 N411 2.257 . S
O356 Co354 2.143 . S
O356 Co355 2.160 . S
C357 O358 1.278 . S
C357 O365 1.224 . S
O358 C357 1.278 . S
C359 O360 1.245 . S
C359 O371 1.232 . S
O360 C359 1.245 . S
O361 Co355 2.058 . S
O361 C387 1.269 . S
O362 Co354 2.074 . S
O362 C387 1.257 . S
H363 C388 0.930 . S
H364 C394 0.930 . S
O365 Co354 2.093 . S
O365 C357 1.224 . S
H366 C398 0.929 1_565 S
H367 C400 0.930 . S
H368 C401 0.930 . S
H369 C399 0.929 . S
H370 C402 0.928 . S
O371 Co355 2.057 . S
O371 C359 1.232 . S
H372 C391 0.929 . S
H373 C392 0.929 . S
H374 C404 0.931 . S
H375 C396 0.929 . S
H376 C405 0.930 . S
H377 C397 0.931 . S
O378 Co354 2.097 . S
O378 C406 1.214 . S
H379 C407 0.929 . S
H380 C408 0.929 . S
H381 C409 0.930 . S
H382 C410 0.929 . S
H383 C412 0.930 . S
H384 C389 0.930 . S
H385 C393 0.930 . S
O386 Co355 2.037 . S
O386 C406 1.234 . S
C387 O361 1.269 . S
C387 O362 1.257 . S
C388 H363 0.930 . S
C388 C391 1.388 . S
C388 C393 1.418 . S
C389 H384 0.930 . S
C389 C392 1.404 . S
C389 C393 1.353 . S
N390 Co355 2.145 . S
N390 C391 1.397 . S
N390 C392 1.334 . S
C391 H372 0.929 . S
C391 C388 1.388 . S
C391 N390 1.397 . S
C392 H373 0.929 . S
C392 C389 1.404 . S
C392 N390 1.334 . S
C393 H385 0.930 . S
C393 C388 1.418 . S
C393 C389 1.353 . S
C394 H364 0.930 . S
C394 N395 1.330 . S
C394 C396 1.446 . S
N395 Co354 2.151 . S
N395 C394 1.330 . S
N395 C399 1.418 . S
C396 H375 0.929 . S
C396 C394 1.446 . S
C396 C397 1.332 1_545 S
C397 H377 0.931 . S
C397 C396 1.332 1_565 S
C397 C398 1.267 1_565 S
C398 H366 0.929 1_545 S
C398 C397 1.267 1_545 S
C398 C399 1.251 . S
C399 H369 0.929 . S
C399 N395 1.418 . S
C399 C398 1.251 . S
C400 H367 0.930 . S
C400 C402 1.406 . S
C400 C405 1.261 . S
C401 H368 0.930 . S
C401 N403 1.325 . S
C401 C404 1.357 . S
C402 H370 0.928 . S
C402 C400 1.406 . S
C402 N403 1.261 . S
N403 Co354 2.214 . S
N403 C401 1.325 . S
N403 C402 1.261 . S
C404 H374 0.931 . S
C404 C401 1.357 . S
C404 C405 1.312 . S
C405 H376 0.930 . S
C405 C400 1.261 . S
C405 C404 1.312 . S
C406 O378 1.214 . S
C406 O386 1.234 . S
C407 H379 0.929 . S
C407 C410 1.391 . S
C407 C412 1.391 . S
C408 H380 0.929 . S
C408 C409 1.390 . S
C408 N411 1.391 . S
C409 H381 0.930 . S
C409 C408 1.390 . S
C409 C410 1.392 . S
C410 H382 0.929 . S
C410 C407 1.391 . S
C410 C409 1.392 . S
N411 Co355 2.257 . S
N411 C408 1.391 . S
N411 C412 1.388 . S
C412 H383 0.930 . S
C412 C407 1.391 . S
C412 N411 1.388 . S
Co413 O415 2.143 . S
Co413 O421 2.074 1_545 S
Co413 O424 2.093 . S
Co413 O437 2.097 . S
Co413 N454 2.151 . S
Co413 N462 2.214 . S
Co414 O415 2.160 1_565 S
Co414 O420 2.058 . S
Co414 O430 2.057 . S
Co414 O445 2.037 . S
Co414 N449 2.145 . S
Co414 N470 2.257 . S
O415 Co413 2.143 . S
O415 Co414 2.160 1_545 S
C416 O417 1.278 . S
C416 O424 1.224 . S
O417 C416 1.278 . S
C418 O419 1.245 . S
C418 O430 1.232 1_545 S
O419 C418 1.245 . S
O420 Co414 2.058 . S
O420 C446 1.269 . S
O421 Co413 2.074 1_565 S
O421 C446 1.257 . S
H422 C447 0.930 . S
H423 C453 0.930 . S
O424 Co413 2.093 . S
O424 C416 1.224 . S
H425 C457 0.929 1_455 S
H426 C459 0.930 . S
H427 C460 0.930 1_565 S
H428 C458 0.929 . S
H429 C461 0.928 . S
O430 Co414 2.057 . S
O430 C418 1.232 1_565 S
H431 C450 0.929 . S
H432 C451 0.929 . S
H433 C463 0.931 1_565 S
H434 C455 0.929 . S
H435 C464 0.930 . S
H436 C456 0.931 . S
O437 Co413 2.097 . S
O437 C465 1.214 1_545 S
H438 C466 0.929 . S
H439 C467 0.929 . S
H440 C468 0.930 . S
H441 C469 0.929 . S
H442 C471 0.930 . S
H443 C448 0.930 . S
H444 C452 0.930 . S
O445 Co414 2.037 . S
O445 C465 1.234 . S
C446 O420 1.269 . S
C446 O421 1.257 . S
C447 H422 0.930 . S
C447 C450 1.388 . S
C447 C452 1.418 . S
C448 H443 0.930 . S
C448 C451 1.404 . S
C448 C452 1.353 . S
N449 Co414 2.145 . S
N449 C450 1.397 . S
N449 C451 1.334 . S
C450 H431 0.929 . S
C450 C447 1.388 . S
C450 N449 1.397 . S
C451 H432 0.929 . S
C451 C448 1.404 . S
C451 N449 1.334 . S
C452 H444 0.930 . S
C452 C447 1.418 . S
C452 C448 1.353 . S
C453 H423 0.930 . S
C453 N454 1.330 . S
C453 C455 1.446 . S
N454 Co413 2.151 . S
N454 C453 1.330 . S
N454 C458 1.418 . S
C455 H434 0.929 . S
C455 C453 1.446 . S
C455 C456 1.332 1_655 S
C456 H436 0.931 . S
C456 C455 1.332 1_455 S
C456 C457 1.267 1_455 S
C457 H425 0.929 1_655 S
C457 C456 1.267 1_655 S
C457 C458 1.251 . S
C458 H428 0.929 . S
C458 N454 1.418 . S
C458 C457 1.251 . S
C459 H426 0.930 . S
C459 C461 1.406 . S
C459 C464 1.261 . S
C460 H427 0.930 1_545 S
C460 N462 1.325 . S
C460 C463 1.357 . S
C461 H429 0.928 . S
C461 C459 1.406 . S
C461 N462 1.261 . S
N462 Co413 2.214 . S
N462 C460 1.325 . S
N462 C461 1.261 . S
C463 H433 0.931 1_545 S
C463 C460 1.357 . S
C463 C464 1.312 . S
C464 H435 0.930 . S
C464 C459 1.261 . S
C464 C463 1.312 . S
C465 O437 1.214 1_565 S
C465 O445 1.234 . S
C466 H438 0.929 . S
C466 C469 1.391 . S
C466 C471 1.391 . S
C467 H439 0.929 . S
C467 C468 1.390 . S
C467 N470 1.391 . S
C468 H440 0.930 . S
C468 C467 1.390 . S
C468 C469 1.392 1_565 S
C469 H441 0.929 . S
C469 C466 1.391 . S
C469 C468 1.392 1_545 S
N470 Co414 2.257 . S
N470 C467 1.391 . S
N470 C471 1.388 1_565 S
C471 H442 0.930 . S
C471 C466 1.391 . S
C471 N470 1.388 1_545 S
C472 C473 1.387 1_455 S
C472 H476 0.950 . S
C472 C481 1.390 1_556 S
C473 C472 1.387 1_655 S
C473 C475 1.387 . S
H474 C481 0.950 . S
C475 C473 1.387 . S
C475 C477 1.390 1_556 S
C475 H479 0.950 . S
H476 C472 0.950 . S
C477 C475 1.390 1_554 S
C477 C478 1.387 1_655 S
C477 H480 0.950 . S
C478 C477 1.387 1_455 S
C478 C481 1.387 . S
H479 C475 0.950 . S
H480 C477 0.950 . S
C481 C472 1.390 1_554 S
C481 H474 0.950 . S
C481 C478 1.387 . S
C482 C483 1.387 . S
C482 H486 0.950 . S
C482 C491 1.390 . S
C483 C482 1.387 . S
C483 C485 1.387 . S
H484 C491 0.950 . S
C485 C483 1.387 . S
C485 C487 1.390 . S
C485 H489 0.950 . S
H486 C482 0.950 . S
C487 C485 1.390 . S
C487 C488 1.387 . S
C487 H490 0.950 . S
C488 C487 1.387 . S
C488 C491 1.387 . S
H489 C485 0.950 . S
H490 C487 0.950 . S
C491 C482 1.390 . S
C491 H484 0.950 . S
C491 C488 1.387 . S
C492 C493 1.387 . S
C492 H496 0.950 . S
C492 C501 1.390 1_564 S
C493 C492 1.387 . S
C493 C495 1.387 . S
H494 C501 0.950 . S
C495 C493 1.387 . S
C495 C497 1.390 1_564 S
C495 H499 0.950 . S
H496 C492 0.950 . S
C497 C495 1.390 1_546 S
C497 C498 1.387 . S
C497 H500 0.950 . S
C498 C497 1.387 . S
C498 C501 1.387 . S
H499 C495 0.950 . S
H500 C497 0.950 . S
C501 C492 1.390 1_546 S
C501 H494 0.950 . S
C501 C498 1.387 . S
C502 C503 1.387 . S
C502 H506 0.950 . S
C502 C511 1.390 1_655 S
C503 C502 1.387 . S
C503 C505 1.387 1_545 S
H504 C511 0.950 . S
C505 C503 1.387 1_565 S
C505 C507 1.390 1_655 S
C505 H509 0.950 . S
H506 C502 0.950 . S
C507 C505 1.390 1_455 S
C507 C508 1.387 . S
C507 H510 0.950 . S
C508 C507 1.387 . S
C508 C511 1.387 1_565 S
H509 C505 0.950 . S
H510 C507 0.950 . S
C511 C502 1.390 1_455 S
C511 H504 0.950 . S
C511 C508 1.387 1_545 S
C512 C513 1.387 . S
C512 H516 0.950 . S
C512 C521 1.390 . S
C513 C512 1.387 . S
C513 C515 1.387 . S
H514 C521 0.950 . S
C515 C513 1.387 . S
C515 C517 1.390 . S
C515 H519 0.950 . S
H516 C512 0.950 . S
C517 C515 1.390 . S
C517 C518 1.387 . S
C517 H520 0.950 . S
C518 C517 1.387 . S
C518 C521 1.387 . S
H519 C515 0.950 . S
H520 C517 0.950 . S
C521 C512 1.390 . S
C521 H514 0.950 . S
C521 C518 1.387 . S
C522 C523 1.387 . S
C522 H526 0.950 . S
C522 C531 1.390 . S
C523 C522 1.387 . S
C523 C525 1.387 . S
H524 C531 0.950 . S
C525 C523 1.387 . S
C525 C527 1.390 . S
C525 H529 0.950 . S
H526 C522 0.950 . S
C527 C525 1.390 . S
C527 C528 1.387 . S
C527 H530 0.950 . S
C528 C527 1.387 . S
C528 C531 1.387 . S
H529 C525 0.950 . S
H530 C527 0.950 . S
C531 C522 1.390 . S
C531 H524 0.950 . S
C531 C528 1.387 . S
C532 C533 1.387 . S
C532 H536 0.950 . S
C532 C541 1.390 . S
C533 C532 1.387 . S
C533 C535 1.387 . S
H534 C541 0.950 . S
C535 C533 1.387 . S
C535 C537 1.390 . S
C535 H539 0.950 . S
H536 C532 0.950 . S
C537 C535 1.390 . S
C537 C538 1.387 . S
C537 H540 0.950 . S
C538 C537 1.387 . S
C538 C541 1.387 . S
H539 C535 0.950 . S
H540 C537 0.950 . S
C541 C532 1.390 . S
C541 H534 0.950 . S
C541 C538 1.387 . S
C542 C543 1.387 . S
C542 H546 0.950 . S
C542 C551 1.390 . S
C543 C542 1.387 . S
C543 C545 1.387 . S
H544 C551 0.950 . S
C545 C543 1.387 . S
C545 C547 1.390 . S
C545 H549 0.950 . S
H546 C542 0.950 . S
C547 C545 1.390 . S
C547 C548 1.387 . S
C547 H550 0.950 . S
C548 C547 1.387 . S
C548 C551 1.387 . S
H549 C545 0.950 . S
H550 C547 0.950 . S
C551 C542 1.390 . S
C551 H544 0.950 . S
C551 C548 1.387 . S
C552 C553 1.387 . S
C552 H556 0.950 . S
C552 C561 1.390 . S
C553 C552 1.387 . S
C553 C555 1.387 . S
H554 C561 0.950 . S
C555 C553 1.387 . S
C555 C557 1.390 . S
C555 H559 0.950 . S
H556 C552 0.950 . S
C557 C555 1.390 . S
C557 C558 1.387 . S
C557 H560 0.950 . S
C558 C557 1.387 . S
C558 C561 1.387 . S
H559 C555 0.950 . S
H560 C557 0.950 . S
C561 C552 1.390 . S
C561 H554 0.950 . S
C561 C558 1.387 . S
C562 C563 1.387 . S
C562 H566 0.950 . S
C562 C571 1.390 . S
C563 C562 1.387 . S
C563 C565 1.387 . S
H564 C571 0.950 . S
C565 C563 1.387 . S
C565 C567 1.390 . S
C565 H569 0.950 . S
H566 C562 0.950 . S
C567 C565 1.390 . S
C567 C568 1.387 . S
C567 H570 0.950 . S
C568 C567 1.387 . S
C568 C571 1.387 . S
H569 C565 0.950 . S
H570 C567 0.950 . S
C571 C562 1.390 . S
C571 H564 0.950 . S
C571 C568 1.387 . S
C572 C573 1.387 . S
C572 H576 0.950 . S
C572 C581 1.390 . S
C573 C572 1.387 . S
C573 C575 1.387 . S
H574 C581 0.950 1_545 S
C575 C573 1.387 . S
C575 C577 1.390 . S
C575 H579 0.950 . S
H576 C572 0.950 . S
C577 C575 1.390 . S
C577 C578 1.387 . S
C577 H580 0.950 . S
C578 C577 1.387 . S
C578 C581 1.387 . S
H579 C575 0.950 . S
H580 C577 0.950 . S
C581 C572 1.390 . S
C581 H574 0.950 1_565 S
C581 C578 1.387 . S
C582 C583 1.387 . S
C582 H586 0.950 . S
C582 C591 1.390 . S
C583 C582 1.387 . S
C583 C585 1.387 . S
H584 C591 0.950 . S
C585 C583 1.387 . S
C585 C587 1.390 . S
C585 H589 0.950 . S
H586 C582 0.950 . S
C587 C585 1.390 . S
C587 C588 1.387 . S
C587 H590 0.950 . S
C588 C587 1.387 . S
C588 C591 1.387 . S
H589 C585 0.950 . S
H590 C587 0.950 . S
C591 C582 1.390 . S
C591 H584 0.950 . S
C591 C588 1.387 . S
C592 C593 1.387 . S
C592 H596 0.950 . S
C592 C601 1.390 . S
C593 C592 1.387 . S
C593 C595 1.387 . S
H594 C601 0.950 . S
C595 C593 1.387 . S
C595 C597 1.390 . S
C595 H599 0.950 . S
H596 C592 0.950 . S
C597 C595 1.390 . S
C597 C598 1.387 . S
C597 H600 0.950 . S
C598 C597 1.387 . S
C598 C601 1.387 . S
H599 C595 0.950 . S
H600 C597 0.950 . S
C601 C592 1.390 . S
C601 H594 0.950 . S
C601 C598 1.387 . S
C602 C603 1.387 . S
C602 H606 0.950 . S
C602 C611 1.390 . S
C603 C602 1.387 . S
C603 C605 1.387 . S
H604 C611 0.950 . S
C605 C603 1.387 . S
C605 C607 1.390 . S
C605 H609 0.950 . S
H606 C602 0.950 . S
C607 C605 1.390 . S
C607 C608 1.387 . S
C607 H610 0.950 . S
C608 C607 1.387 . S
C608 C611 1.387 . S
H609 C605 0.950 . S
H610 C607 0.950 . S
C611 C602 1.390 . S
C611 H604 0.950 . S
C611 C608 1.387 . S
C612 C613 1.387 . S
C612 H616 0.950 . S
C612 C621 1.390 . S
C613 C612 1.387 . S
C613 C615 1.387 . S
H614 C621 0.950 1_565 S
C615 C613 1.387 . S
C615 C617 1.390 . S
C615 H619 0.950 . S
H616 C612 0.950 . S
C617 C615 1.390 . S
C617 C618 1.387 . S
C617 H620 0.950 . S
C618 C617 1.387 . S
C618 C621 1.387 . S
H619 C615 0.950 . S
H620 C617 0.950 . S
C621 C612 1.390 . S
C621 H614 0.950 1_545 S
C621 C618 1.387 . S
C622 C623 1.387 . S
C622 H626 0.950 . S
C622 C631 1.390 . S
C623 C622 1.387 . S
C623 C625 1.387 . S
H624 C631 0.950 . S
C625 C623 1.387 . S
C625 C627 1.390 . S
C625 H629 0.950 1_655 S
H626 C622 0.950 . S
C627 C625 1.390 . S
C627 C628 1.387 . S
C627 H630 0.950 . S
C628 C627 1.387 . S
C628 C631 1.387 . S
H629 C625 0.950 1_455 S
H630 C627 0.950 . S
C631 C622 1.390 . S
C631 H624 0.950 . S
C631 C628 1.387 . S
C473 C241 1.523 . S
C478 C5 1.523 . S
C483 C64 1.523 . S
C488 C300 1.523 . S
C493 C123 1.523 . S
C498 C359 1.523 . S
C503 C418 1.521 . S
C508 C182 1.521 . S
C513 C3 1.446 . S
C518 C121 1.446 . S
C523 C62 1.443 . S
C528 C180 1.443 . S
C533 C357 1.446 . S
C538 C239 1.446 . S
C543 C298 1.446 . S
C548 C416 1.446 . S
C553 C347 1.347 . S
C558 C33 1.339 . S
C563 C92 1.340 . S
C568 C406 1.346 . S
C573 C151 1.339 . S
C578 C465 1.346 . S
C583 C288 1.347 . S
C588 C210 1.340 . S
C593 C269 1.340 . S
C598 C111 1.346 . S
C603 C328 1.339 . S
C608 C170 1.346 . S
C613 C387 1.339 . S
C618 C229 1.346 . S
C623 C52 1.347 . S
C628 C446 1.340 . S
