# Generated by pormake.
# Topology zfn, (5)-cn, num edge types: 1
# Building blocks:
#     Node 0, Type 0, BuildingBlock: BEQFEK_clean_sbu_0, # of connection points: 5
#     Node 1, Type 0, BuildingBlock: BEQFEK_clean_sbu_0, # of connection points: 5
#     Node 2, Type 0, BuildingBlock: BEQFEK_clean_sbu_0, # of connection points: 5
#     Node 3, Type 0, BuildingBlock: BEQFEK_clean_sbu_0, # of connection points: 5
#     Node 4, Type 0, BuildingBlock: BEQFEK_clean_sbu_0, # of connection points: 5
#     Node 5, Type 0, BuildingBlock: BEQFEK_clean_sbu_0, # of connection points: 5
#     Node 6, Type 0, BuildingBlock: BEQFEK_clean_sbu_0, # of connection points: 5
#     Node 7, Type 0, BuildingBlock: BEQFEK_clean_sbu_0, # of connection points: 5
#     Node 8, Type 0, BuildingBlock: BEQFEK_clean_sbu_0, # of connection points: 5
#     Node 9, Type 0, BuildingBlock: BEQFEK_clean_sbu_0, # of connection points: 5
#     Node 10, Type 0, BuildingBlock: BEQFEK_clean_sbu_0, # of connection points: 5
#     Node 11, Type 0, BuildingBlock: BEQFEK_clean_sbu_0, # of connection points: 5
#     Node 12, Type 0, BuildingBlock: BEQFEK_clean_sbu_0, # of connection points: 5
#     Node 13, Type 0, BuildingBlock: BEQFEK_clean_sbu_0, # of connection points: 5
#     Node 14, Type 0, BuildingBlock: BEQFEK_clean_sbu_0, # of connection points: 5
#     Node 15, Type 0, BuildingBlock: BEQFEK_clean_sbu_0, # of connection points: 5
#     Edge 16, Type (0, 0), BuildingBlock: XIVTED_clean_linker_0, # of connection points: 2
#     Edge 17, Type (0, 0), BuildingBlock: XIVTED_clean_linker_0, # of connection points: 2
#     Edge 18, Type (0, 0), BuildingBlock: XIVTED_clean_linker_0, # of connection points: 2
#     Edge 19, Type (0, 0), BuildingBlock: XIVTED_clean_linker_0, # of connection points: 2
#     Edge 20, Type (0, 0), BuildingBlock: XIVTED_clean_linker_0, # of connection points: 2
#     Edge 21, Type (0, 0), BuildingBlock: XIVTED_clean_linker_0, # of connection points: 2
#     Edge 22, Type (0, 0), BuildingBlock: XIVTED_clean_linker_0, # of connection points: 2
#     Edge 23, Type (0, 0), BuildingBlock: XIVTED_clean_linker_0, # of connection points: 2
#     Edge 24, Type (0, 0), BuildingBlock: XIVTED_clean_linker_0, # of connection points: 2
#     Edge 25, Type (0, 0), BuildingBlock: XIVTED_clean_linker_0, # of connection points: 2
#     Edge 26, Type (0, 0), BuildingBlock: XIVTED_clean_linker_0, # of connection points: 2
#     Edge 27, Type (0, 0), BuildingBlock: XIVTED_clean_linker_0, # of connection points: 2
#     Edge 28, Type (0, 0), BuildingBlock: XIVTED_clean_linker_0, # of connection points: 2
#     Edge 29, Type (0, 0), BuildingBlock: XIVTED_clean_linker_0, # of connection points: 2
#     Edge 30, Type (0, 0), BuildingBlock: XIVTED_clean_linker_0, # of connection points: 2
#     Edge 31, Type (0, 0), BuildingBlock: XIVTED_clean_linker_0, # of connection points: 2
#     Edge 32, Type (0, 0), BuildingBlock: XIVTED_clean_linker_0, # of connection points: 2
#     Edge 33, Type (0, 0), BuildingBlock: XIVTED_clean_linker_0, # of connection points: 2
#     Edge 34, Type (0, 0), BuildingBlock: XIVTED_clean_linker_0, # of connection points: 2
#     Edge 35, Type (0, 0), BuildingBlock: XIVTED_clean_linker_0, # of connection points: 2
#     Edge 36, Type (0, 0), BuildingBlock: XIVTED_clean_linker_0, # of connection points: 2
#     Edge 37, Type (0, 0), BuildingBlock: XIVTED_clean_linker_0, # of connection points: 2
#     Edge 38, Type (0, 0), BuildingBlock: XIVTED_clean_linker_0, # of connection points: 2
#     Edge 39, Type (0, 0), BuildingBlock: XIVTED_clean_linker_0, # of connection points: 2
#     Edge 40, Type (0, 0), BuildingBlock: XIVTED_clean_linker_0, # of connection points: 2
#     Edge 41, Type (0, 0), BuildingBlock: XIVTED_clean_linker_0, # of connection points: 2
#     Edge 42, Type (0, 0), BuildingBlock: XIVTED_clean_linker_0, # of connection points: 2
#     Edge 43, Type (0, 0), BuildingBlock: XIVTED_clean_linker_0, # of connection points: 2
#     Edge 44, Type (0, 0), BuildingBlock: XIVTED_clean_linker_0, # of connection points: 2
#     Edge 45, Type (0, 0), BuildingBlock: XIVTED_clean_linker_0, # of connection points: 2
#     Edge 46, Type (0, 0), BuildingBlock: XIVTED_clean_linker_0, # of connection points: 2
#     Edge 47, Type (0, 0), BuildingBlock: XIVTED_clean_linker_0, # of connection points: 2
#     Edge 48, Type (0, 0), BuildingBlock: XIVTED_clean_linker_0, # of connection points: 2
#     Edge 49, Type (0, 0), BuildingBlock: XIVTED_clean_linker_0, # of connection points: 2
#     Edge 50, Type (0, 0), BuildingBlock: XIVTED_clean_linker_0, # of connection points: 2
#     Edge 51, Type (0, 0), BuildingBlock: XIVTED_clean_linker_0, # of connection points: 2
#     Edge 52, Type (0, 0), BuildingBlock: XIVTED_clean_linker_0, # of connection points: 2
#     Edge 53, Type (0, 0), BuildingBlock: XIVTED_clean_linker_0, # of connection points: 2
#     Edge 54, Type (0, 0), BuildingBlock: XIVTED_clean_linker_0, # of connection points: 2
#     Edge 55, Type (0, 0), BuildingBlock: XIVTED_clean_linker_0, # of connection points: 2
# Relax obj value: 0.138
# Max RMSD: 0.173
# Mean RMSD: 0.173
data_MOF--net-zfn--node1-BEQFEK_clean_sbu_0--edge1-XIVTED_clean_linker_0
_symmetry_space_group_name_H-M    P1
_symmetry_Int_Tables_number       1
_symmetry_cell_setting            triclinic
loop_
_symmetry_equiv_pos_as_xyz
'x, y, z'
_cell_length_a     74.800883
_cell_length_b     74.730653
_cell_length_c     19.196071
_cell_angle_alpha  89.997977
_cell_angle_beta   89.979619
_cell_angle_gamma 89.969171
loop_
_atom_site_label
_atom_site_type_symbol
_atom_site_fract_x
_atom_site_fract_y
_atom_site_fract_z
_atom_type_partial_charge
Co0 Co 0.99322 0.35661 0.07756 0.0
Co1 Co 0.00539 0.36603 0.22881 0.0
C2 C 0.9693 0.37669 0.17268 0.0
O3 O 0.972 0.3689 0.11476 0.0
O4 O 0.98119 0.37683 0.22009 0.0
C5 C 0.98312 0.36251 0.94475 0.0
O6 O 0.98032 0.37782 0.97666 0.0
C7 C 0.00168 0.36336 0.37896 0.0
C8 C 0.0268 0.37536 0.41741 0.0
C9 C 0.01086 0.36774 0.43902 0.0
N10 N 0.0118 0.36794 0.32406 0.0
N11 N 0.02684 0.37505 0.34725 0.0
C12 C 0.98298 0.35638 0.37339 0.0
H13 H 0.9802 0.35165 0.31968 0.0
H14 H 0.98081 0.34527 0.4107 0.0
H15 H 0.97348 0.36726 0.38672 0.0
C16 C -0.00013 0.31983 0.12825 0.0
N17 N -6e-05 0.3377 0.13663 0.0
N18 N 0.0054 0.34161 0.20005 0.0
C19 C 0.00924 0.32627 0.23371 0.0
C20 C 0.00569 0.31203 0.18968 0.0
C21 C 0.99323 0.31059 0.06418 0.0
H22 H 0.00335 0.31204 0.02226 0.0
H23 H 0.98074 0.31709 0.04598 0.0
H24 H 0.99079 0.29615 0.07372 0.0
O25 O 0.01316 0.37368 0.0673 0.0
O26 O 0.0227 0.38017 0.17355 0.0
H27 H 0.02618 0.33617 0.31542 0.0
H28 H 0.02368 0.31215 0.31413 0.0
C29 C 0.01667 0.32508 0.30595 0.0
H30 H 0.00558 0.32595 0.34409 0.0
H31 H 0.03698 0.37998 0.3152 0.0
O32 O 0.98823 0.34917 0.98074 0.0
C33 C 0.0238 0.38191 0.10775 0.0
Co34 Co 0.13607 0.99465 0.56052 0.0
Co35 Co 0.1268 0.00446 0.71377 0.0
C36 C 0.11459 0.96997 0.64664 0.0
O37 O 0.12266 0.97315 0.58954 0.0
O38 O 0.11502 0.98107 0.69698 0.0
C39 C 0.14366 0.97896 0.42448 0.0
O40 O 0.13824 0.96345 0.44876 0.0
C41 C 0.1257 -0.00064 0.86506 0.0
C42 C 0.1263 0.02736 0.90219 0.0
C43 C 0.12673 0.00975 0.92478 0.0
N44 N 0.12528 0.01036 0.80971 0.0
N45 N 0.12534 0.02706 0.83226 0.0
C46 C 0.12466 0.97939 0.85994 0.0
H47 H 0.1373 0.97411 0.83769 0.0
H48 H 0.12199 0.97306 0.91108 0.0
H49 H 0.11365 0.97567 0.82448 0.0
C50 C 0.17284 -0.00052 0.61258 0.0
N51 N 0.15501 -0.0004 0.62164 0.0
N52 N 0.1513 0.00361 0.68674 0.0
C53 C 0.16676 0.006 0.72166 0.0
C54 C 0.18091 0.00352 0.67572 0.0
C55 C 0.18175 0.99608 0.54401 0.0
H56 H 0.17558 0.00468 0.50354 0.0
H57 H 0.17956 0.98193 0.5287 0.0
H58 H 0.1963 -0.0011 0.54599 0.0
O59 O 0.11975 0.0152 0.55414 0.0
O60 O 0.11368 0.02336 0.66236 0.0
H61 H 0.16162 0.02205 0.81174 0.0
H62 H 0.18188 0.00898 0.81786 0.0
C63 C 0.16793 0.00905 0.79863 0.0
H64 H 0.16059 -0.0017 0.82602 0.0
H65 H 0.12532 0.03826 0.79975 0.0
O66 O 0.14461 0.99235 0.46487 0.0
C67 C 0.11199 0.02556 0.59699 0.0
Co68 Co 0.49846 0.13852 0.04258 0.0
Co69 Co 0.48713 0.12977 0.19533 0.0
C70 C 0.52156 0.11623 0.13437 0.0
O71 O 0.51892 0.12436 0.07707 0.0
O72 O 0.5102 0.11699 0.18367 0.0
C73 C 0.51278 0.13677 0.90734 0.0
O74 O 0.52052 0.12251 0.93361 0.0
C75 C 0.49164 0.12927 0.34568 0.0
C76 C 0.46372 0.12889 0.38351 0.0
C77 C 0.48134 0.12967 0.40568 0.0
N78 N 0.48061 0.12841 0.29065 0.0
N79 N 0.46395 0.12792 0.31348 0.0
C80 C 0.51143 0.13189 0.33975 0.0
H81 H 0.51483 0.13825 0.28924 0.0
H82 H 0.51653 0.14035 0.38289 0.0
H83 H 0.51814 0.11866 0.34223 0.0
C84 C 0.49376 0.17558 0.09334 0.0
N85 N 0.49349 0.15775 0.10282 0.0
N86 N 0.48889 0.15419 0.1675 0.0
C87 C 0.48614 0.16973 0.20155 0.0
C88 C 0.4891 0.1838 0.1556 0.0
C89 C 0.49781 0.18437 0.02509 0.0
H90 H 0.48994 0.17785 0.98325 0.0
H91 H 0.51218 0.18251 0.01273 0.0
H92 H 0.49462 0.19887 0.02599 0.0
O93 O 0.47726 0.12306 0.0331 0.0
O94 O 0.46843 0.11725 0.14099 0.0
H95 H 0.46921 0.16417 0.2888 0.0
H96 H 0.48124 0.18504 0.29633 0.0
C97 C 0.48203 0.17104 0.27777 0.0
H98 H 0.49275 0.16433 0.30762 0.0
H99 H 0.45274 0.12755 0.28118 0.0
O100 O 0.50343 0.14669 0.9469 0.0
C101 C 0.46647 0.11567 0.07542 0.0
Co102 Co 0.35385 0.49676 0.56228 0.0
Co103 Co 0.36354 0.48744 0.71601 0.0
C104 C 0.37488 0.52209 0.64969 0.0
O105 O 0.36698 0.51831 0.59279 0.0
O106 O 0.3748 0.51126 0.70105 0.0
C107 C 0.34872 0.51232 0.42597 0.0
O108 O 0.35777 0.52616 0.44909 0.0
C109 C 0.3668 0.49105 0.86758 0.0
C110 C 0.35927 0.46388 0.9021 0.0
C111 C 0.36289 0.48096 0.92637 0.0
N112 N 0.36479 0.48058 0.81124 0.0
N113 N 0.36075 0.46425 0.8323 0.0
C114 C 0.37294 0.51007 0.86418 0.0
H115 H 0.38428 0.51101 0.82737 0.0
H116 H 0.36191 0.51863 0.84448 0.0
H117 H 0.37756 0.515 0.91558 0.0
C118 C 0.31731 0.49119 0.61481 0.0
N119 N 0.33513 0.4914 0.62368 0.0
N120 N 0.33895 0.48827 0.6894 0.0
C121 C 0.32351 0.48652 0.72514 0.0
C122 C 0.30931 0.48812 0.67892 0.0
C123 C 0.30832 0.49344 0.5457 0.0
H124 H 0.31525 0.48515 0.5061 0.0
H125 H 0.30932 0.50764 0.52928 0.0
H126 H 0.29405 0.48944 0.54768 0.0
O127 O 0.37032 0.47651 0.55438 0.0
O128 O 0.37695 0.46892 0.66275 0.0
H129 H 0.32523 0.47156 0.81977 0.0
H130 H 0.30877 0.48917 0.8219 0.0
C131 C 0.32226 0.48543 0.80287 0.0
H132 H 0.33208 0.49465 0.82678 0.0
H133 H 0.35805 0.4536 0.79875 0.0
O134 O 0.34487 0.49965 0.46727 0.0
C135 C 0.37845 0.4665 0.59739 0.0
Co136 Co 0.99348 0.13724 0.43009 0.0
Co137 Co 0.00534 0.12914 0.27776 0.0
C138 C 0.96999 0.11674 0.33406 0.0
O139 O 0.97269 0.12434 0.39234 0.0
O140 O 0.98165 0.1173 0.28581 0.0
C141 C 0.98365 0.13027 0.56236 0.0
O142 O 0.98184 0.11489 0.52994 0.0
C143 C 0.00143 0.1307 0.1275 0.0
C144 C 0.02831 0.12302 0.09004 0.0
C145 C 0.01137 0.12784 0.06789 0.0
N146 N 0.01206 0.12794 0.18277 0.0
N147 N 0.02812 0.12337 0.1602 0.0
C148 C 0.98185 0.13465 0.13238 0.0
H149 H 0.97864 0.14094 0.18324 0.0
H150 H 0.97749 0.14356 0.08943 0.0
H151 H 0.97431 0.12192 0.12804 0.0
C152 C -0.00041 0.17451 0.3838 0.0
N153 N -0.00048 0.15675 0.37282 0.0
N154 N 0.00452 0.15343 0.30835 0.0
C155 C 0.008 0.16907 0.27609 0.0
C156 C 0.00496 0.18296 0.32287 0.0
C157 C 0.9949 0.18304 0.45191 0.0
H158 H 0.00136 0.17559 0.49506 0.0
H159 H 0.98022 0.18227 0.45964 0.0
H160 H -0.00082 0.19725 0.45378 0.0
O161 O 0.01405 0.12093 0.43915 0.0
O162 O 0.02327 0.11538 0.33166 0.0
H163 H 0.02427 0.16182 0.18861 0.0
H164 H 0.01597 0.18448 0.18469 0.0
C165 C 0.01274 0.17063 0.20047 0.0
H166 H 0.0012 0.16621 0.16877 0.0
H167 H 0.03888 0.12028 0.19267 0.0
O168 O 0.98798 0.14398 0.52696 0.0
C169 C 0.02478 0.11333 0.39719 0.0
Co170 Co 0.35476 0.99597 0.92406 0.0
Co171 Co 0.36419 0.00645 0.77063 0.0
C172 C 0.37732 0.97226 0.83617 0.0
O173 O 0.36922 0.97537 0.89321 0.0
O174 O 0.37656 0.98323 0.78545 0.0
C175 C 0.35199 0.97985 0.05904 0.0
O176 O 0.36312 0.96801 0.03309 0.0
C177 C 0.36289 0.00088 0.62108 0.0
C178 C 0.36741 0.0281 0.57966 0.0
C179 C 0.36365 0.01066 0.55977 0.0
N180 N 0.36594 0.01204 0.67454 0.0
N181 N 0.36889 0.02825 0.64954 0.0
C182 C 0.35749 0.98173 0.63006 0.0
H183 H 0.35191 0.97951 0.68292 0.0
H184 H 0.34747 0.97782 0.59027 0.0
H185 H 0.36946 0.97308 0.62388 0.0
C186 C 0.31805 -0.00056 0.86943 0.0
N187 N 0.3359 0.00029 0.86157 0.0
N188 N 0.33971 0.00506 0.79725 0.0
C189 C 0.32429 0.0076 0.76227 0.0
C190 C 0.31013 0.00399 0.80664 0.0
C191 C 0.30896 0.99354 0.93494 0.0
H192 H 0.31029 0.00422 0.97475 0.0
H193 H 0.31565 0.98138 0.95546 0.0
H194 H 0.29458 0.99069 0.92618 0.0
O195 O 0.37017 0.0173 0.93182 0.0
O196 O 0.37668 0.02539 0.82363 0.0
H197 H 0.33305 0.02484 0.67966 0.0
H198 H 0.30949 0.01984 0.67799 0.0
C199 C 0.32296 0.01427 0.68891 0.0
H200 H 0.32542 0.00304 0.65245 0.0
H201 H 0.37129 0.03951 0.68032 0.0
O202 O 0.34588 0.99211 0.01981 0.0
C203 C 0.37789 0.02777 0.88911 0.0
Co204 Co 0.49699 0.3546 0.43225 0.0
Co205 Co 0.48807 0.36614 0.28008 0.0
C206 C 0.52221 0.37712 0.35419 0.0
O207 O 0.5187 0.36832 0.4093 0.0
O208 O 0.51139 0.37744 0.30298 0.0
C209 C 0.51159 0.34564 0.56758 0.0
O210 O 0.527 0.35156 0.54425 0.0
C211 C 0.49468 0.3656 0.12959 0.0
C212 C 0.46767 0.37121 0.08846 0.0
C213 C 0.48486 0.36655 0.06817 0.0
N214 N 0.48361 0.36895 0.18326 0.0
N215 N 0.46757 0.3726 0.15826 0.0
C216 C 0.51424 0.36181 0.1378 0.0
H217 H 0.5195 0.36807 0.18565 0.0
H218 H 0.51639 0.34717 0.14213 0.0
H219 H 0.52187 0.36699 0.09252 0.0
C220 C 0.49302 0.31864 0.37042 0.0
N221 N 0.49264 0.3366 0.366 0.0
N222 N 0.48829 0.34134 0.30222 0.0
C223 C 0.48546 0.32644 0.26419 0.0
C224 C 0.48855 0.31164 0.30591 0.0
C225 C 0.49843 0.30857 0.43437 0.0
H226 H 0.48746 0.30932 0.47319 0.0
H227 H 0.51043 0.3149 0.45773 0.0
H228 H 0.50131 0.29432 0.42264 0.0
O229 O 0.47643 0.37108 0.43905 0.0
O230 O 0.46892 0.37871 0.33152 0.0
H231 H 0.46873 0.33679 0.18284 0.0
H232 H 0.47273 0.31306 0.17757 0.0
C233 C 0.47884 0.32616 0.19061 0.0
H234 H 0.49019 0.32846 0.15462 0.0
H235 H 0.4564 0.37535 0.18903 0.0
O236 O 0.49834 0.34465 0.52652 0.0
C237 C 0.46639 0.37953 0.39697 0.0
Co238 Co 0.13545 0.4985 0.92112 0.0
Co239 Co 0.12583 0.48663 0.76952 0.0
C240 C 0.11517 0.52263 0.82788 0.0
O241 O 0.12303 0.51987 0.88567 0.0
O242 O 0.11502 0.5108 0.78012 0.0
C243 C 0.13532 0.51283 0.05722 0.0
O244 O 0.12196 0.52217 0.03172 0.0
C245 C 0.12739 0.49139 0.61986 0.0
C246 C 0.12181 0.46427 0.57961 0.0
C247 C 0.12607 0.48153 0.55896 0.0
N248 N 0.12411 0.48048 0.67388 0.0
N249 N 0.12059 0.46431 0.64962 0.0
C250 C 0.13344 0.51038 0.62776 0.0
H251 H 0.13982 0.51238 0.67935 0.0
H252 H 0.14301 0.51405 0.58595 0.0
H253 H 0.12165 0.51936 0.62432 0.0
C254 C 0.17202 0.4923 0.86913 0.0
N255 N 0.15417 0.49205 0.86095 0.0
N256 N 0.15026 0.48672 0.79742 0.0
C257 C 0.16561 0.48317 0.76332 0.0
C258 C 0.17985 0.48671 0.80741 0.0
C259 C 0.18121 0.49905 0.93317 0.0
H260 H 0.17997 0.48887 0.97501 0.0
H261 H 0.17455 0.51145 0.95153 0.0
H262 H 0.19557 0.50178 0.92352 0.0
O263 O 0.11836 0.47858 0.93108 0.0
O264 O 0.11188 0.46912 0.8246 0.0
H265 H 0.15632 0.46575 0.68227 0.0
H266 H 0.18004 0.46998 0.68024 0.0
C267 C 0.16675 0.47604 0.69059 0.0
H268 H 0.16463 0.48712 0.65313 0.0
H269 H 0.11784 0.45323 0.68091 0.0
O270 O 0.14408 0.50258 0.01694 0.0
C271 C 0.11016 0.46795 0.89043 0.0
Co272 Co -0.00214 0.63595 0.91844 0.0
Co273 Co 0.98559 0.62653 0.76739 0.0
C274 C 0.02171 0.61585 0.82313 0.0
O275 O 0.01904 0.62363 0.8811 0.0
O276 O 0.0098 0.61572 0.7758 0.0
C277 C 0.00786 0.63023 0.0516 0.0
O278 O 0.01061 0.61483 0.02032 0.0
C279 C 0.98903 0.6289 0.61695 0.0
C280 C 0.96377 0.6169 0.57984 0.0
C281 C 0.97971 0.62435 0.55737 0.0
N282 N 0.97898 0.62455 0.67236 0.0
N283 N 0.96385 0.61746 0.64997 0.0
C284 C 0.00779 0.63575 0.62165 0.0
H285 H 0.01076 0.64048 0.67519 0.0
H286 H 0.00991 0.64684 0.58422 0.0
H287 H 0.01718 0.62481 0.60788 0.0
C288 C 0.99118 0.6727 0.86792 0.0
N289 N 0.99111 0.65484 0.85942 0.0
N290 N 0.98562 0.65095 0.79603 0.0
C291 C 0.98176 0.6663 0.76247 0.0
C292 C 0.98531 0.68053 0.8066 0.0
C293 C -0.00212 0.68192 0.93196 0.0
H294 H 0.98769 0.68067 0.97371 0.0
H295 H 0.01026 0.67526 0.95047 0.0
H296 H 0.00055 0.6963 0.92223 0.0
O297 O 0.97792 0.61891 0.92913 0.0
O298 O 0.96833 0.61242 0.82298 0.0
H299 H 0.96741 0.68045 0.68186 0.0
H300 H 0.98539 0.66645 0.65208 0.0
C301 C 0.97432 0.66748 0.69024 0.0
H302 H 0.96473 0.65644 0.68099 0.0
H303 H 0.95376 0.61267 0.68256 0.0
O304 O 0.00289 0.64351 0.01501 0.0
C305 C 0.96726 0.61069 0.88878 0.0
Co306 Co 0.85545 -0.00136 0.4279 0.0
Co307 Co 0.86483 0.98732 0.27582 0.0
C308 C 0.87696 0.02241 0.3369 0.0
O309 O 0.86891 0.01958 0.39422 0.0
O310 O 0.8767 0.01091 0.28796 0.0
C311 C 0.85576 0.01293 0.56375 0.0
O312 O 0.86957 0.02167 0.53872 0.0
C313 C 0.86381 0.99264 0.12675 0.0
C314 C 0.86823 0.96542 0.08514 0.0
C315 C 0.86478 0.98293 0.06541 0.0
N316 N 0.86652 0.9814 0.18018 0.0
N317 N 0.86935 0.96517 0.15516 0.0
C318 C 0.85858 0.01185 0.13557 0.0
H319 H 0.85221 0.01395 0.18716 0.0
H320 H 0.84923 0.01609 0.09383 0.0
H321 H 0.87074 0.02031 0.13279 0.0
C322 C 0.81871 0.99432 0.37469 0.0
N323 N 0.83656 0.99342 0.36683 0.0
N324 N 0.84036 0.98838 0.30284 0.0
C325 C 0.82495 0.9857 0.26805 0.0
C326 C 0.81078 0.98951 0.31221 0.0
C327 C 0.80966 0.00081 0.43944 0.0
H328 H 0.81095 0.99047 0.4806 0.0
H329 H 0.81641 0.01311 0.45838 0.0
H330 H 0.79529 0.00367 0.43042 0.0
O331 O 0.87158 0.97784 0.43738 0.0
O332 O 0.87782 0.96895 0.32993 0.0
H333 H 0.83364 0.96832 0.18582 0.0
H334 H 0.81014 0.9736 0.18353 0.0
C335 C 0.82365 0.97901 0.19472 0.0
H336 H 0.82631 0.99018 0.15822 0.0
H337 H 0.87154 0.95387 0.18592 0.0
O338 O 0.84674 0.00297 0.52331 0.0
C339 C 0.87937 0.96717 0.39558 0.0
Co340 Co 0.49574 0.85455 0.91915 0.0
Co341 Co 0.50602 0.86621 0.76769 0.0
C342 C 0.47205 0.87854 0.83986 0.0
O343 O 0.47482 0.86931 0.89456 0.0
O344 O 0.48318 0.87861 0.78959 0.0
C345 C 0.4806 0.84723 0.05509 0.0
O346 O 0.4658 0.85449 0.0315 0.0
C347 C 0.50005 0.86657 0.61632 0.0
C348 C 0.52752 0.87065 0.57717 0.0
C349 C 0.51018 0.86715 0.5555 0.0
N350 N 0.51106 0.86902 0.67094 0.0
N351 N 0.5274 0.87176 0.64708 0.0
C352 C 0.48026 0.86402 0.62303 0.0
H353 H 0.47516 0.87058 0.67058 0.0
H354 H 0.47719 0.84954 0.62695 0.0
H355 H 0.47318 0.8697 0.5773 0.0
C356 C 0.49852 0.81867 0.85583 0.0
N357 N 0.49966 0.83661 0.85231 0.0
N358 N 0.50445 0.84136 0.78896 0.0
C359 C 0.50674 0.82647 0.75032 0.0
C360 C 0.50289 0.81169 0.79117 0.0
C361 C 0.49264 0.80862 0.91917 0.0
H362 H 0.50359 0.80878 0.95814 0.0
H363 H 0.48089 0.81537 0.94275 0.0
H364 H 0.48921 0.79453 0.9066 0.0
O365 O 0.51693 0.87001 0.92761 0.0
O366 O 0.52553 0.87769 0.82136 0.0
H367 H 0.52432 0.83612 0.67043 0.0
H368 H 0.51885 0.81273 0.66306 0.0
C369 C 0.51353 0.82612 0.67697 0.0
H370 H 0.50246 0.82934 0.6408 0.0
H371 H 0.53858 0.8737 0.67867 0.0
O372 O 0.49362 0.84469 0.0138 0.0
C373 C 0.52764 0.87812 0.88712 0.0
Co374 Co 0.6375 0.49641 0.44261 0.0
Co375 Co 0.62822 0.50449 0.2877 0.0
C376 C 0.61662 0.47043 0.35696 0.0
O377 O 0.62416 0.47475 0.41404 0.0
O378 O 0.61709 0.48072 0.304 0.0
C379 C 0.64442 0.48053 0.5778 0.0
O380 O 0.63719 0.46576 0.55369 0.0
C381 C 0.62532 0.50059 0.13609 0.0
C382 C 0.63264 0.52782 0.10151 0.0
C383 C 0.62921 0.51069 0.07733 0.0
N384 N 0.62714 0.51111 0.19234 0.0
N385 N 0.63106 0.52747 0.17125 0.0
C386 C 0.61934 0.48152 0.13958 0.0
H387 H 0.60796 0.48053 0.17622 0.0
H388 H 0.63042 0.47308 0.15962 0.0
H389 H 0.61484 0.47652 0.08813 0.0
C390 C 0.67421 0.50169 0.39059 0.0
N391 N 0.65639 0.5013 0.38127 0.0
N392 N 0.65269 0.50397 0.31516 0.0
C393 C 0.66817 0.50559 0.27967 0.0
C394 C 0.6823 0.50442 0.3264 0.0
C395 C 0.6831 0.49996 0.46011 0.0
H396 H 0.67604 0.50846 0.49871 0.0
H397 H 0.68217 0.48586 0.4779 0.0
H398 H 0.69734 0.50405 0.45803 0.0
O399 O 0.62108 0.51679 0.44844 0.0
O400 O 0.6145 0.5231 0.33881 0.0
H401 H 0.66657 0.51987 0.18343 0.0
H402 H 0.68308 0.50231 0.18359 0.0
C403 C 0.66954 0.50614 0.20188 0.0
H404 H 0.6598 0.49673 0.17871 0.0
H405 H 0.63359 0.53817 0.20477 0.0
O406 O 0.64637 0.49387 0.53773 0.0
C407 C 0.6129 0.52623 0.40364 0.0
Co408 Co -0.0031 0.85482 0.56318 0.0
Co409 Co 0.98613 0.86388 0.71617 0.0
C410 C 0.02105 0.8759 0.65496 0.0
O411 O 0.01794 0.86798 0.59763 0.0
O412 O 0.00975 0.87564 0.70454 0.0
C413 C 0.01129 0.85613 0.42813 0.0
O414 O 0.01949 0.87011 0.45453 0.0
C415 C 0.99067 0.86418 0.86652 0.0
C416 C 0.96277 0.86542 0.90429 0.0
C417 C 0.98036 0.86409 0.92648 0.0
N418 N 0.97968 0.86539 0.81147 0.0
N419 N 0.96304 0.86639 0.83427 0.0
C420 C 0.01039 0.86097 0.86067 0.0
H421 H 0.01361 0.85447 0.81027 0.0
H422 H 0.01524 0.85241 0.90394 0.0
H423 H 0.01746 0.874 0.863 0.0
C424 C 0.99101 0.81797 0.61338 0.0
N425 N 0.9912 0.83579 0.6231 0.0
N426 N 0.98688 0.83942 0.68801 0.0
C427 C 0.98388 0.82391 0.72203 0.0
C428 C 0.98639 0.80981 0.67578 0.0
C429 C 0.99473 0.80915 0.5449 0.0
H430 H 0.98715 0.81606 0.50317 0.0
H431 H 0.00918 0.81043 0.53273 0.0
H432 H 0.99096 0.7948 0.54538 0.0
O433 O 0.97641 0.87119 0.55413 0.0
O434 O 0.96793 0.87731 0.66217 0.0
H435 H 0.96759 0.82991 0.81069 0.0
H436 H 0.97899 0.80865 0.81689 0.0
C437 C 0.98013 0.82264 0.79853 0.0
H438 H 0.99119 0.82897 0.82766 0.0
H439 H 0.95185 0.86712 0.80194 0.0
O440 O 0.00156 0.84656 0.46751 0.0
C441 C 0.96599 0.87904 0.59664 0.0
Co442 Co 0.6372 -0.00352 0.06301 0.0
Co443 Co 0.62693 0.98616 0.2157 0.0
C444 C 0.61392 0.02021 0.14833 0.0
O445 O 0.62253 0.01716 0.0923 0.0
O446 O 0.61432 0.00925 0.19922 0.0
C447 C 0.64142 0.01182 0.92615 0.0
O448 O 0.63129 0.02496 0.94872 0.0
C449 C 0.62352 0.98995 0.36741 0.0
C450 C 0.63025 0.96261 0.40249 0.0
C451 C 0.62707 0.97982 0.42648 0.0
N452 N 0.62533 0.97938 0.31121 0.0
N453 N 0.6289 0.96296 0.33263 0.0
C454 C 0.61811 0.00919 0.3636 0.0
H455 H 0.6069 0.01056 0.32651 0.0
H456 H 0.62949 0.0173 0.34409 0.0
H457 H 0.61356 0.01434 0.41478 0.0
C458 C 0.67362 0.99265 0.11935 0.0
N459 N 0.65574 0.99211 0.12646 0.0
N460 N 0.65163 0.98839 0.19148 0.0
C461 C 0.6669 0.98691 0.22846 0.0
C462 C 0.68132 0.98938 0.18385 0.0
C463 C 0.68294 0.99552 0.05124 0.0
H464 H 0.6767 0.987 0.01071 0.0
H465 H 0.68131 0.00969 0.03519 0.0
H466 H 0.69738 0.99223 0.05445 0.0
O467 O 0.62204 0.97532 0.05368 0.0
O468 O 0.61502 0.96692 0.1608 0.0
H469 H 0.66419 0.97102 0.32043 0.0
H470 H 0.68117 0.98806 0.32681 0.0
C471 C 0.66771 0.98494 0.30601 0.0
H472 H 0.65805 0.99422 0.33051 0.0
H473 H 0.63136 0.9522 0.29932 0.0
O474 O 0.64643 -0.00027 0.96823 0.0
C475 C 0.61422 0.96466 0.09514 0.0
Co476 Co 0.49042 0.63766 0.54122 0.0
Co477 Co 0.50203 0.62996 0.69396 0.0
C478 C 0.46674 0.61749 0.63773 0.0
O479 O 0.46954 0.62482 0.57897 0.0
O480 O 0.47832 0.61826 0.68616 0.0
C481 C 0.48055 0.63063 0.40908 0.0
O482 O 0.47874 0.61525 0.44145 0.0
C483 C 0.49819 0.63176 0.84414 0.0
C484 C 0.52498 0.62373 0.88143 0.0
C485 C 0.50811 0.62876 0.90366 0.0
N486 N 0.50877 0.62888 0.78883 0.0
N487 N 0.52478 0.62411 0.81128 0.0
C488 C 0.47865 0.63593 0.83941 0.0
H489 H 0.47543 0.64197 0.78812 0.0
H490 H 0.47449 0.64514 0.88168 0.0
H491 H 0.47095 0.62333 0.84516 0.0
C492 C 0.49677 0.67507 0.58629 0.0
N493 N 0.49644 0.65732 0.59794 0.0
N494 N 0.5014 0.65412 0.66253 0.0
C495 C 0.50513 0.66977 0.69414 0.0
C496 C 0.50231 0.68357 0.64685 0.0
C497 C 0.49224 0.6835 0.51785 0.0
H498 H 0.4989 0.67604 0.47515 0.0
H499 H 0.47759 0.68261 0.50939 0.0
H500 H 0.49642 0.69774 0.51596 0.0
O501 O 0.51105 0.62127 0.53263 0.0
O502 O 0.5199 0.61608 0.64082 0.0
H503 H 0.52153 0.66257 0.78128 0.0
H504 H 0.51335 0.68529 0.78489 0.0
C505 C 0.51002 0.67143 0.76957 0.0
H506 H 0.49853 0.66712 0.80175 0.0
H507 H 0.53548 0.62087 0.77874 0.0
O508 O 0.48495 0.64432 0.44442 0.0
C509 C 0.52163 0.61381 0.57551 0.0
Co510 Co 0.85549 0.49428 0.07637 0.0
Co511 Co 0.86544 0.50603 0.22788 0.0
C512 C 0.87594 0.47007 0.16878 0.0
O513 O 0.86799 0.47289 0.11122 0.0
O514 O 0.87619 0.48186 0.21669 0.0
C515 C 0.85534 0.47993 0.94024 0.0
O516 O 0.86856 0.47039 0.96571 0.0
C517 C 0.86403 0.50123 0.3776 0.0
C518 C 0.86981 0.52832 0.41782 0.0
C519 C 0.86543 0.51109 0.4385 0.0
N520 N 0.86736 0.51212 0.32356 0.0
N521 N 0.87102 0.52826 0.34779 0.0
C522 C 0.85783 0.48229 0.36972 0.0
H523 H 0.85149 0.48032 0.31802 0.0
H524 H 0.84817 0.47872 0.41137 0.0
H525 H 0.86953 0.47321 0.37346 0.0
C526 C 0.81902 0.50036 0.1299 0.0
N527 N 0.8369 0.50067 0.1373 0.0
N528 N 0.84097 0.506 0.20068 0.0
C529 C 0.8257 0.50953 0.23541 0.0
C530 C 0.81135 0.50592 0.19198 0.0
C531 C 0.80967 0.49359 0.06627 0.0
H532 H 0.81057 0.50386 0.02467 0.0
H533 H 0.81643 0.48132 0.04712 0.0
H534 H 0.79539 0.49063 0.07679 0.0
O535 O 0.87258 0.51421 0.0662 0.0
O536 O 0.87931 0.52356 0.1726 0.0
H537 H 0.83527 0.52695 0.31597 0.0
H538 H 0.81152 0.52293 0.3186 0.0
C539 C 0.82474 0.51674 0.30806 0.0
H540 H 0.82681 0.50568 0.34565 0.0
H541 H 0.87382 0.53931 0.31653 0.0
O542 O 0.84672 0.4903 0.98057 0.0
C543 C 0.88088 0.52479 0.10675 0.0
H544 H 0.95937 0.39706 0.28527 0.0
H545 H 0.87818 0.44159 0.07949 0.0
H546 H 0.94117 0.3799 0.08245 0.0
H547 H 0.8971 0.46032 0.27917 0.0
H548 H 0.89807 0.41587 0.08889 0.0
H549 H 0.93366 0.41715 0.29288 0.0
C550 C 0.94987 0.39734 0.24269 0.0
C551 C 0.95261 0.387 0.18258 0.0
C552 C 0.89775 0.42551 0.13101 0.0
C553 C 0.92322 0.41 0.19092 0.0
C554 C 0.88639 0.44022 0.12568 0.0
C555 C 0.88619 0.45332 0.17806 0.0
C556 C 0.90911 0.42391 0.18892 0.0
C557 C 0.89697 0.45068 0.23708 0.0
C558 C 0.9352 0.40883 0.24708 0.0
C559 C 0.93975 0.38779 0.12941 0.0
N560 N 0.90816 0.43638 0.2405 0.0
N561 N 0.92574 0.39925 0.13452 0.0
H562 H 0.1116 0.94203 0.55453 0.0
H563 H 0.03161 0.89647 0.76587 0.0
H564 H 0.09233 0.96065 0.75392 0.0
H565 H 0.04794 0.88017 0.5595 0.0
H566 H 0.05686 0.9171 0.76987 0.0
H567 H 0.09126 0.91654 0.56264 0.0
C568 C 0.10325 0.94069 0.60034 0.0
C569 C 0.10364 0.95359 0.65347 0.0
C570 C 0.05501 0.90889 0.72395 0.0
C571 C 0.08031 0.92447 0.66295 0.0
C572 C 0.0406 0.89707 0.72168 0.0
C573 C 0.03748 0.88675 0.66183 0.0
C574 C 0.06636 0.91043 0.66594 0.0
C575 C 0.04968 0.88801 0.60641 0.0
C576 C 0.09164 0.92612 0.60494 0.0
C577 C 0.09257 0.95106 0.71175 0.0
N578 N 0.06348 0.89978 0.60954 0.0
N579 N 0.08127 0.93689 0.71464 0.0
H580 H 0.59105 0.02988 0.25363 0.0
H581 H 0.54881 0.11122 0.04086 0.0
H582 H 0.61049 0.04733 0.05298 0.0
H583 H 0.53067 0.09481 0.24477 0.0
H584 H 0.57327 0.08974 0.04914 0.0
H585 H 0.57071 0.0553 0.25598 0.0
C586 C 0.59123 0.03914 0.2104 0.0
C587 C 0.6025 0.03636 0.15292 0.0
C588 C 0.56403 0.09094 0.09233 0.0
C589 C 0.57898 0.06548 0.15489 0.0
C590 C 0.55004 0.10322 0.08768 0.0
C591 C 0.53752 0.10469 0.14189 0.0
C592 C 0.56549 0.07998 0.15146 0.0
C593 C 0.53991 0.09405 0.20145 0.0
C594 C 0.57954 0.05367 0.2117 0.0
C595 C 0.60198 0.04884 0.09823 0.0
N596 N 0.55351 0.08203 0.20434 0.0
N597 N 0.59032 0.06277 0.10034 0.0
H598 H 0.37716 0.54908 0.55342 0.0
H599 H 0.45665 0.59843 0.75337 0.0
H600 H 0.39648 0.53345 0.75647 0.0
H601 H 0.43958 0.61178 0.54476 0.0
H602 H 0.43159 0.57766 0.76284 0.0
H603 H 0.39687 0.57505 0.55682 0.0
C604 C 0.3854 0.55116 0.59906 0.0
C605 C 0.38528 0.53889 0.65445 0.0
C606 C 0.43323 0.58527 0.71526 0.0
C607 C 0.40795 0.56862 0.6585 0.0
C608 C 0.44753 0.59716 0.70983 0.0
C609 C 0.45039 0.60668 0.64776 0.0
C610 C 0.42173 0.58285 0.65821 0.0
C611 C 0.43803 0.60458 0.59334 0.0
C612 C 0.39666 0.56602 0.60095 0.0
C613 C 0.39615 0.54244 0.71243 0.0
N614 N 0.42435 0.59276 0.59959 0.0
N615 N 0.40717 0.55687 0.71263 0.0
H616 H 0.8797 0.0505 0.42766 0.0
H617 H 0.96065 0.09581 0.22223 0.0
H618 H 0.89868 0.03195 0.22775 0.0
H619 H 0.94208 0.11282 0.42481 0.0
H620 H 0.93544 0.07507 0.21527 0.0
H621 H 0.89981 0.07603 0.41932 0.0
C622 C 0.88799 0.05185 0.3817 0.0
C623 C 0.88768 0.0389 0.3288 0.0
C624 C 0.93679 0.08349 0.26088 0.0
C625 C 0.91086 0.06812 0.31911 0.0
C626 C 0.95117 0.09535 0.26488 0.0
C627 C 0.95365 0.10589 0.32467 0.0
C628 C 0.92484 0.08215 0.31709 0.0
C629 C 0.94086 0.10481 0.37805 0.0
C630 C 0.89949 0.06646 0.37696 0.0
C631 C 0.89861 0.0415 0.27014 0.0
N632 N 0.92712 0.09303 0.37326 0.0
N633 N 0.9099 0.05572 0.26722 0.0
H634 H 0.44587 0.88338 0.93825 0.0
H635 H 0.39754 0.96144 0.72462 0.0
H636 H 0.46153 0.89991 0.73139 0.0
H637 H 0.38336 0.94647 0.93487 0.0
H638 H 0.41874 0.93662 0.72107 0.0
H639 H 0.42071 0.90414 0.9329 0.0
C640 C 0.44397 0.89126 0.8915 0.0
C641 C 0.45597 0.89001 0.83547 0.0
C642 C 0.41089 0.93869 0.7678 0.0
C643 C 0.42718 0.91385 0.82911 0.0
C644 C 0.39876 0.95286 0.76986 0.0
C645 C 0.3888 0.95621 0.83048 0.0
C646 C 0.41312 0.9278 0.82679 0.0
C647 C 0.39086 0.94453 0.88724 0.0
C648 C 0.42959 0.90313 0.8885 0.0
C649 C 0.45273 0.90051 0.7761 0.0
N650 N 0.40289 0.93094 0.8842 0.0
N651 N 0.43873 0.91207 0.7747 0.0
H652 H 0.60959 0.44666 0.46251 0.0
H653 H 0.5356 0.39506 0.2415 0.0
H654 H 0.59925 0.45609 0.24429 0.0
H655 H 0.54647 0.38391 0.45819 0.0
H656 H 0.56122 0.4151 0.23881 0.0
H657 H 0.58903 0.4213 0.45914 0.0
C658 C 0.60317 0.44332 0.41366 0.0
C659 C 0.60597 0.45376 0.35377 0.0
C660 C 0.55812 0.40817 0.28685 0.0
C661 C 0.58235 0.42478 0.34976 0.0
C662 C 0.54345 0.39671 0.28846 0.0
C663 C 0.53873 0.38793 0.35043 0.0
C664 C 0.5681 0.41103 0.34777 0.0
C665 C 0.54953 0.39049 0.4094 0.0
C666 C 0.59141 0.42883 0.41184 0.0
C667 C 0.59735 0.44866 0.29196 0.0
N668 N 0.56361 0.40197 0.40682 0.0
N669 N 0.58581 0.43466 0.29175 0.0
H670 H 0.03149 0.59528 0.71086 0.0
H671 H 0.11305 0.55131 0.91619 0.0
H672 H 0.05 0.61289 0.91267 0.0
H673 H 0.09391 0.53214 0.71746 0.0
H674 H 0.09314 0.577 0.90629 0.0
H675 H 0.05724 0.57523 0.70317 0.0
C676 C 0.04107 0.5951 0.75319 0.0
C677 C 0.0384 0.60556 0.81308 0.0
C678 C 0.09341 0.56727 0.86448 0.0
C679 C 0.06784 0.58261 0.80463 0.0
C680 C 0.10479 0.55258 0.8701 0.0
C681 C 0.10493 0.53937 0.81815 0.0
C682 C 0.08198 0.56874 0.80674 0.0
C683 C 0.09408 0.54187 0.75922 0.0
C684 C 0.05576 0.58364 0.74875 0.0
C685 C 0.05136 0.6049 0.86592 0.0
N686 N 0.08288 0.55615 0.75554 0.0
N687 N 0.06539 0.59347 0.86077 0.0
H688 H 0.04833 0.40303 0.17535 0.0
H689 H 0.08859 0.44384 0.82252 0.0
H690 H 0.03031 0.38808 0.96962 0.0
H691 H 0.10442 0.46095 0.02844 0.0
H692 H 0.06823 0.42216 0.87543 0.0
H693 H 0.07009 0.42326 0.12228 0.0
C694 C 0.04897 0.40395 0.11909 0.0
C695 C 0.03743 0.39387 0.07696 0.0
C696 C 0.0762 0.43064 0.90898 0.0
C697 C 0.06229 0.41699 0.01588 0.0
C698 C 0.08785 0.44301 0.87878 0.0
C699 C 0.0982 0.45429 0.92102 0.0
C700 C 0.07492 0.42953 0.98191 0.0
C701 C 0.09667 0.45259 -0.00631 0.0
C702 C 0.06139 0.41551 0.0888 0.0
C703 C 0.03889 0.39561 0.00428 0.0
N704 N 0.08523 0.44048 0.02176 0.0
N705 N 0.05106 0.40697 0.97611 0.0
H706 H 0.09086 0.04913 0.67 0.0
H707 H 0.0498 0.09367 0.32566 0.0
H708 H 0.10669 0.03481 0.46083 0.0
H709 H 0.03202 0.10625 0.53415 0.0
H710 H 0.0722 0.07349 0.3748 0.0
H711 H 0.07067 0.07168 0.62166 0.0
C712 C 0.09018 0.05078 0.61401 0.0
C713 C 0.10041 0.03997 0.56946 0.0
C714 C 0.06343 0.08072 0.40978 0.0
C715 C 0.07732 0.06571 0.5138 0.0
C716 C 0.05064 0.09226 0.38172 0.0
C717 C 0.03893 0.10161 0.42575 0.0
C718 C 0.06453 0.07852 0.48238 0.0
C719 C 0.04069 0.09927 0.49808 0.0
C720 C 0.07863 0.06364 0.58642 0.0
C721 C 0.09899 0.04274 0.49727 0.0
N722 N 0.05319 0.08792 0.52407 0.0
N723 N 0.08762 0.05528 0.47175 0.0
H724 H 0.45776 0.11004 0.93871 0.0
H725 H 0.38264 0.03746 0.02532 0.0
H726 H 0.44171 0.09592 0.1478 0.0
H727 H 0.39865 0.05159 0.8162 0.0
H728 H 0.40265 0.06036 0.07077 0.0
H729 H 0.4347 0.09028 0.89288 0.0
C730 C 0.44934 0.10286 0.97509 0.0
C731 C 0.45179 0.10456 0.04733 0.0
C732 C 0.40172 0.05853 0.01493 0.0
C733 C 0.42534 0.08182 -0.00507 0.0
C734 C 0.39029 0.04543 0.98884 0.0
C735 C 0.38905 0.04247 0.91674 0.0
C736 C 0.41208 0.06874 0.96871 0.0
C737 C 0.39923 0.05333 0.87214 0.0
C738 C 0.43615 0.09156 0.94878 0.0
C739 C 0.44038 0.09497 0.09177 0.0
N740 N 0.4104 0.0659 0.8989 0.0
N741 N 0.42772 0.08393 0.06483 0.0
H742 H 0.39971 0.443 0.67035 0.0
H743 H 0.44232 0.4003 0.32537 0.0
H744 H 0.38397 0.45744 0.46124 0.0
H745 H 0.45768 0.3849 0.53388 0.0
H746 H 0.41978 0.42028 0.37466 0.0
H747 H 0.42003 0.42056 0.62177 0.0
C748 C 0.40044 0.44141 0.61434 0.0
C749 C 0.39018 0.45221 0.56988 0.0
C750 C 0.42803 0.41246 0.40962 0.0
C751 C 0.41341 0.42661 0.51397 0.0
C752 C 0.44091 0.40104 0.38146 0.0
C753 C 0.45199 0.39097 0.42548 0.0
C754 C 0.42625 0.41387 0.48232 0.0
C755 C 0.4495 0.39246 0.49784 0.0
C756 C 0.41205 0.4286 0.58662 0.0
C757 C 0.39167 0.44951 0.49765 0.0
N758 N 0.43696 0.40376 0.52395 0.0
N759 N 0.40311 0.43705 0.47204 0.0
H760 H 0.90258 0.54881 0.17443 0.0
H761 H 0.94262 0.58966 0.82133 0.0
H762 H 0.88645 0.53187 0.96867 0.0
H763 H 0.96083 0.60449 0.02694 0.0
H764 H 0.92084 0.56948 0.87453 0.0
H765 H 0.92293 0.57047 0.12136 0.0
C766 C 0.90325 0.54967 0.11817 0.0
C767 C 0.89282 0.53844 0.07602 0.0
C768 C 0.92958 0.57719 0.90796 0.0
C769 C 0.9161 0.56318 0.01493 0.0
C770 C 0.94202 0.58872 0.8776 0.0
C771 C 0.95362 0.59876 0.91965 0.0
C772 C 0.92873 0.57569 0.98088 0.0
C773 C 0.9522 0.597 0.99234 0.0
C774 C 0.91489 0.56203 0.08787 0.0
C775 C 0.89426 0.54019 0.00334 0.0
N776 N 0.94002 0.58567 0.02058 0.0
N777 N 0.9057 0.55228 0.97516 0.0
H778 H 0.94214 0.89993 0.66912 0.0
H779 H 0.89928 0.94235 0.32423 0.0
H780 H 0.95742 0.8849 0.46008 0.0
H781 H 0.88555 0.95925 0.53273 0.0
H782 H 0.91916 0.91972 0.3735 0.0
H783 H 0.9198 0.92029 0.62043 0.0
C784 C 0.94075 0.90083 0.61306 0.0
C785 C 0.95176 0.89076 0.56867 0.0
C786 C 0.91174 0.92834 0.40846 0.0
C787 C 0.92625 0.91404 0.51265 0.0
C788 C 0.90037 0.94127 0.38034 0.0
C789 C 0.8908 0.9528 0.42434 0.0
C790 C 0.91357 0.92694 0.48112 0.0
C791 C 0.89273 0.95072 0.49671 0.0
C792 C 0.928 0.91247 0.58529 0.0
C793 C 0.94931 0.89245 0.49641 0.0
N794 N 0.90394 0.93809 0.52279 0.0
N795 N 0.93688 0.90391 0.47072 0.0
H796 H 0.61147 0.95514 0.95824 0.0
H797 H 0.53603 0.88158 0.02514 0.0
H798 H 0.59249 0.94059 0.16313 0.0
H799 H 0.55259 0.89901 0.82046 0.0
H800 H 0.55871 0.90085 0.07665 0.0
H801 H 0.59215 0.93243 0.90771 0.0
C802 C 0.6033 0.94711 0.9928 0.0
C803 C 0.6035 0.94992 0.06518 0.0
C804 C 0.55746 0.90039 0.02048 0.0
C805 C 0.58124 0.92382 0.00716 0.0
C806 C 0.5445 0.88938 0.99086 0.0
C807 C 0.54227 0.88878 0.91819 0.0
C808 C 0.5683 0.91093 0.97727 0.0
C809 C 0.55374 0.89911 0.87667 0.0
C810 C 0.59226 0.93412 0.96374 0.0
C811 C 0.59272 0.93896 0.10711 0.0
N812 N 0.5662 0.90984 0.90685 0.0
N813 N 0.58193 0.92646 0.0774 0.0
H814 H 0.60773 0.53756 0.53748 0.0
H815 H 0.52908 0.60546 0.43957 0.0
H816 H 0.59044 0.54753 0.3263 0.0
H817 H 0.54694 0.5954 0.64997 0.0
H818 H 0.55229 0.58537 0.39645 0.0
H819 H 0.58648 0.55985 0.57864 0.0
C820 C 0.59952 0.54449 0.49961 0.0
C821 C 0.60082 0.54057 0.42824 0.0
C822 C 0.55117 0.5876 0.45202 0.0
C823 C 0.57634 0.56614 0.47535 0.0
C824 C 0.53791 0.59908 0.47677 0.0
C825 C 0.53599 0.60209 0.54863 0.0
C826 C 0.56261 0.57903 0.4994 0.0
C827 C 0.54786 0.59345 0.5942 0.0
C828 C 0.58737 0.55724 0.52326 0.0
C829 C 0.58987 0.55007 0.38177 0.0
N830 N 0.56062 0.58228 0.5688 0.0
N831 N 0.57802 0.56236 0.40619 0.0
H832 H 0.02469 0.28506 0.12895 0.0
H833 H 0.97881 0.20751 0.34701 0.0
H834 H 0.98692 0.29609 0.29296 0.0
H835 H 0.0324 0.20228 0.26671 0.0
H836 H 0.97918 0.23932 0.31589 0.0
H837 H 0.02518 0.25343 0.16481 0.0
C838 C 0.01647 0.28072 0.17224 0.0
C839 C 0.00578 0.29296 0.20835 0.0
C840 C 0.99087 0.2312 0.30532 0.0
C841 C 0.00613 0.25723 0.24902 0.0
C842 C 0.99069 0.21314 0.32329 0.0
C843 C 0.00553 0.20234 0.30861 0.0
C844 C 0.00589 0.23838 0.27156 0.0
C845 C 0.02056 0.21016 0.27743 0.0
C846 C 0.01682 0.26282 0.19291 0.0
C847 C 0.99537 0.28692 0.26424 0.0
N848 N 0.0203 0.22771 0.2591 0.0
N849 N -0.0043 0.2694 0.2827 0.0
H850 H 0.28334 0.02288 0.86875 0.0
H851 H 0.20572 0.97796 0.64577 0.0
H852 H 0.29387 0.98513 0.70408 0.0
H853 H 0.19968 0.02966 0.74267 0.0
H854 H 0.23747 0.97814 0.67703 0.0
H855 H 0.25162 0.02318 0.83521 0.0
C856 C 0.27887 0.01461 0.82579 0.0
C857 C 0.29102 0.00397 0.78891 0.0
C858 C 0.22921 0.98947 0.6912 0.0
C859 C 0.25513 0.00416 0.75062 0.0
C860 C 0.21116 0.9894 0.67316 0.0
C861 C 0.20019 0.00381 0.69186 0.0
C862 C 0.23619 0.00394 0.72903 0.0
C863 C 0.20774 0.01821 0.72813 0.0
C864 C 0.2609 0.01486 0.80644 0.0
C865 C 0.28479 0.99354 0.73342 0.0
N866 N 0.2253 0.01787 0.74609 0.0
N867 N 0.26721 0.99381 0.71607 0.0
H868 H 0.46908 0.28423 0.36079 0.0
H869 H 0.51481 0.20876 0.13006 0.0
H870 H 0.50766 0.29661 0.20117 0.0
H871 H 0.46202 0.2025 0.21686 0.0
H872 H 0.51445 0.24034 0.16474 0.0
H873 H 0.46853 0.25303 0.32011 0.0
C874 C 0.47747 0.28028 0.31742 0.0
C875 C 0.48842 0.29279 0.28404 0.0
C876 C 0.50291 0.23206 0.17583 0.0
C877 C 0.48795 0.2575 0.23766 0.0
C878 C 0.50309 0.21413 0.15581 0.0
C879 C 0.48848 0.20311 0.17124 0.0
C880 C 0.48812 0.23886 0.21233 0.0
C881 C 0.47365 0.21058 0.20517 0.0
C882 C 0.47707 0.26261 0.29397 0.0
C883 C 0.49901 0.28723 0.22787 0.0
N884 N 0.47392 0.22799 0.22537 0.0
N885 N 0.4986 0.26992 0.20658 0.0
H886 H 0.28361 0.51188 0.63872 0.0
H887 H 0.20685 0.46911 0.87384 0.0
H888 H 0.29148 0.46359 0.75778 0.0
H889 H 0.19596 0.5041 0.70052 0.0
H890 H 0.23866 0.46908 0.84169 0.0
H891 H 0.25184 0.51131 0.66929 0.0
C892 C 0.27857 0.50107 0.67075 0.0
C893 C 0.29005 0.4877 0.69553 0.0
C894 C 0.22929 0.47672 0.81062 0.0
C895 C 0.25399 0.48718 0.73202 0.0
C896 C 0.21124 0.47679 0.82912 0.0
C897 C 0.19896 0.48658 0.78946 0.0
C898 C 0.23498 0.48672 0.75274 0.0
C899 C 0.20512 0.4963 0.73191 0.0
C900 C 0.26051 0.50079 0.68846 0.0
C901 C 0.28301 0.4742 0.73811 0.0
N902 N 0.22275 0.4962 0.71537 0.0
N903 N 0.2654 0.47431 0.75538 0.0
H904 H 0.01185 0.78486 0.64711 0.0
H905 H 0.96694 0.7075 0.87027 0.0
H906 H 0.95969 0.79106 0.73968 0.0
H907 H 0.00335 0.69657 0.70153 0.0
H908 H 0.9666 0.73925 0.83615 0.0
H909 H 0.01134 0.75305 0.67799 0.0
C910 C 0.00024 0.77945 0.67347 0.0
C911 C 0.98582 0.79049 0.69125 0.0
C912 C 0.97461 0.72986 0.8066 0.0
C913 C 0.98532 0.75444 0.72804 0.0
C914 C 0.97487 0.71188 0.82623 0.0
C915 C 0.98515 0.69963 0.78833 0.0
C916 C 0.98497 0.73551 0.74963 0.0
C917 C 0.9952 0.70573 0.73159 0.0
C918 C -1e-05 0.76138 0.6913 0.0
C919 C 0.97117 0.78296 0.7261 0.0
N920 N 0.99496 0.72331 0.71411 0.0
N921 N 0.97135 0.76538 0.74404 0.0
H922 H 0.7951 0.00817 0.20766 0.0
H923 H 0.69908 0.96411 0.25923 0.0
H924 H 0.78344 0.97167 0.37538 0.0
H925 H 0.70693 0.01389 0.14989 0.0
H926 H 0.73071 0.96428 0.29252 0.0
H927 H 0.7634 0.00814 0.17537 0.0
C928 C 0.78577 0.00017 0.23757 0.0
C929 C 0.79169 0.98991 0.29407 0.0
C930 C 0.72549 0.97516 0.26126 0.0
C931 C 0.75567 0.98968 0.25753 0.0
C932 C 0.70751 0.97507 0.24234 0.0
C933 C 0.70049 0.98902 0.20194 0.0
C934 C 0.73654 0.98918 0.23872 0.0
C935 C 0.71193 0.00279 0.18046 0.0
C936 C 0.76775 0.00019 0.21939 0.0
C937 C 0.77924 0.9798 0.33164 0.0
N938 N 0.72945 0.00251 0.19896 0.0
N939 N 0.76176 0.97983 0.31241 0.0
H940 H 0.48312 0.79738 0.68695 0.0
H941 H 0.53053 0.70215 0.70009 0.0
H942 H 0.52214 0.78379 0.84331 0.0
H943 H 0.47673 0.70885 0.62394 0.0
H944 H 0.53087 0.73374 0.73481 0.0
H945 H 0.48351 0.76626 0.64602 0.0
C946 C 0.49172 0.78775 0.71259 0.0
C947 C 0.50255 0.79292 0.76855 0.0
C948 C 0.51903 0.72828 0.71031 0.0
C949 C 0.50333 0.7577 0.72167 0.0
C950 C 0.51883 0.71034 0.69055 0.0
C951 C 0.50347 0.70295 0.66041 0.0
C952 C 0.50388 0.73891 0.69832 0.0
C953 C 0.48881 0.71412 0.64727 0.0
C954 C 0.49194 0.77009 0.68937 0.0
C955 C 0.51353 0.78014 0.80028 0.0
N956 N 0.48935 0.73161 0.66647 0.0
N957 N 0.51374 0.76306 0.77605 0.0
H958 H 0.78402 0.52325 0.12643 0.0
H959 H 0.70832 0.48126 0.36903 0.0
H960 H 0.7957 0.48869 0.3003 0.0
H961 H 0.69982 0.52874 0.24572 0.0
H962 H 0.74001 0.48187 0.33723 0.0
H963 H 0.75237 0.52334 0.16069 0.0
C964 C 0.77984 0.51567 0.17169 0.0
C965 C 0.79229 0.506 0.21091 0.0
C966 C 0.73123 0.49221 0.31743 0.0
C967 C 0.75645 0.50595 0.25014 0.0
C968 C 0.71321 0.49192 0.33587 0.0
C969 C 0.70156 0.50501 0.31009 0.0
C970 C 0.73753 0.50557 0.2722 0.0
C971 C 0.70842 0.51833 0.26615 0.0
C972 C 0.76188 0.51579 0.19143 0.0
C973 C 0.7864 0.49641 0.26923 0.0
N974 N 0.72598 0.51822 0.24819 0.0
N975 N 0.76885 0.49656 0.28701 0.0
H976 H 0.97602 0.38998 0.85596 0.0
H977 H 0.00044 0.33742 0.50719 0.0
H978 H 0.9909 0.33412 0.85826 0.0
H979 H 0.00782 0.39417 0.53466 0.0
H980 H 0.9908 0.3351 0.62945 0.0
H981 H 0.98077 0.39061 0.73057 0.0
C982 C 0.98007 0.37776 0.83004 0.0
C983 C 0.98331 0.36201 0.86786 0.0
C984 C 0.99442 0.34805 0.60841 0.0
C985 C 0.98879 0.36274 0.7241 0.0
C986 C -0.00021 0.34939 0.53891 0.0
C987 C 0.00473 0.36604 0.51137 0.0
C988 C 0.99379 0.36352 0.64975 0.0
C989 C 0.00408 0.38112 0.55439 0.0
C990 C 0.98286 0.37819 0.75845 0.0
C991 C 0.9884 0.34658 0.83115 0.0
N992 N -0.00139 0.37953 0.62149 0.0
N993 N 0.9911 0.34734 0.76109 0.0
H994 H 0.11368 0.02564 0.04095 0.0
H995 H 0.14415 0.95443 0.31714 0.0
H996 H 0.14723 0.98186 0.9741 0.0
H997 H 0.14472 0.01124 0.35956 0.0
H998 H 0.14092 0.96123 0.19214 0.0
H999 H 0.11967 0.01746 0.16209 0.0
C1000 C 0.1221 0.01417 0.05178 0.0
C1001 C 0.1295 0.00408 -0.00249 0.0
C1002 C 0.14197 0.97209 0.22927 0.0
C1003 C 0.13639 0.99472 0.13525 0.0
C1004 C 0.14383 0.96826 0.30024 0.0
C1005 C 0.14457 0.98227 0.34884 0.0
C1006 C 0.1404 0.98997 0.20781 0.0
C1007 C 0.14413 -3e-05 0.3242 0.0
C1008 C 0.12554 0.00956 0.12064 0.0
C1009 C 0.14054 0.98947 0.01431 0.0
N1010 N 0.14176 0.0033 0.25556 0.0
N1011 N 0.14355 0.98509 0.082 0.0
H1012 H 0.53111 0.11824 0.80747 0.0
H1013 H 0.46593 0.15059 0.50468 0.0
H1014 H 0.49179 0.16005 0.83352 0.0
H1015 H 0.51017 0.11456 0.47114 0.0
H1016 H 0.47593 0.15504 0.62467 0.0
H1017 H 0.5251 0.11817 0.68254 0.0
C1018 C 0.52141 0.1276 0.78678 0.0
C1019 C 0.51176 0.13899 0.83109 0.0
C1020 C 0.48357 0.14629 0.59091 0.0
C1021 C 0.50462 0.13879 0.6884 0.0
C1022 C 0.47779 0.14366 0.52268 0.0
C1023 C 0.48736 0.13234 0.478 0.0
C1024 C 0.49888 0.13732 0.61485 0.0
C1025 C 0.50263 0.12368 0.5036 0.0
C1026 C 0.51794 0.12752 0.71544 0.0
C1027 C 0.49945 0.15093 0.80136 0.0
N1028 N 0.50788 0.12628 0.57053 0.0
N1029 N 0.49605 0.15034 0.73194 0.0
H1030 H 0.35012 0.51349 0.97303 0.0
H1031 H 0.3381 0.48162 0.36169 0.0
H1032 H 0.36745 0.46151 0.04449 0.0
H1033 H 0.35517 0.53572 0.31829 0.0
H1034 H 0.34038 0.47468 0.23808 0.0
H1035 H 0.3449 0.52237 0.09383 0.0
C1036 C 0.35337 0.50411 0.01399 0.0
C1037 C 0.3601 0.48698 -0.00118 0.0
C1038 C 0.34343 0.48811 0.25573 0.0
C1039 C 0.35274 0.49666 0.13608 0.0
C1040 C 0.34202 0.49216 0.32613 0.0
C1041 C 0.34673 0.50924 0.35051 0.0
C1042 C 0.34925 0.50128 0.2092 0.0
C1043 C 0.3516 0.52235 0.30171 0.0
C1044 C 0.35004 0.50912 0.08272 0.0
C1045 C 0.36261 0.47495 0.05397 0.0
N1046 N 0.35283 0.51807 0.23301 0.0
N1047 N 0.35888 0.48 0.12026 0.0
H1048 H 0.97957 0.10207 0.65057 0.0
H1049 H -0.00238 0.15673 -7e-05 0.0
H1050 H 0.98833 0.1592 0.64912 0.0
H1051 H 0.01171 0.10127 0.97212 0.0
H1052 H 0.98793 0.158 0.87752 0.0
H1053 H 0.98434 0.10183 0.77602 0.0
C1054 C 0.98226 0.11463 0.6767 0.0
C1055 C 0.98379 0.13066 0.63916 0.0
C1056 C 0.99305 0.14556 0.89849 0.0
C1057 C 0.98928 0.1304 0.78279 0.0
C1058 C -0.00153 0.14481 0.96799 0.0
C1059 C 0.00529 0.12884 -0.00458 0.0
C1060 C 0.99428 0.13013 0.85708 0.0
C1061 C 0.00649 0.1138 0.95237 0.0
C1062 C 0.98507 0.11443 0.74827 0.0
C1063 C 0.98718 0.14652 0.67605 0.0
N1064 N 0.00093 0.11478 0.88523 0.0
N1065 N 0.98993 0.14599 0.74606 0.0
H1066 H 0.36566 0.95799 0.16053 0.0
H1067 H 0.34548 0.02895 0.46017 0.0
H1068 H 0.33323 0.00523 0.13132 0.0
H1069 H 0.37295 0.97905 0.49638 0.0
H1070 H 0.33934 0.01949 0.34081 0.0
H1071 H 0.36622 0.96394 0.28563 0.0
C1072 C 0.35841 0.96945 0.18049 0.0
C1073 C 0.34962 0.98129 0.13523 0.0
C1074 C 0.34654 0.0105 0.37501 0.0
C1075 C 0.35042 0.9883 0.27814 0.0
C1076 C 0.35014 0.01595 0.44297 0.0
C1077 C 0.35959 0.00469 0.48826 0.0
C1078 C 0.35267 0.99376 0.35179 0.0
C1079 C 0.3653 0.98798 0.46356 0.0
C1080 C 0.3588 0.97287 0.25194 0.0
C1081 C 0.34036 0.99585 0.16412 0.0
N1082 N 0.36185 0.98305 0.39676 0.0
N1083 N 0.34121 -0.00093 0.23361 0.0
H1084 H 0.47928 0.34372 0.63251 0.0
H1085 H 0.51136 0.34328 0.02132 0.0
H1086 H 0.536 0.34527 0.67485 0.0
H1087 H 0.46947 0.37853 0.94896 0.0
H1088 H 0.51886 0.3364 0.90067 0.0
H1089 H 0.47338 0.34752 0.75638 0.0
C1090 C 0.49053 0.34449 0.66788 0.0
C1091 C 0.50821 0.34441 0.64315 0.0
C1092 C 0.50818 0.34578 0.91174 0.0
C1093 C 0.5014 0.34864 0.78477 0.0
C1094 C 0.50405 0.35004 0.98066 0.0
C1095 C 0.4902 0.36218 -0.0042 0.0
C1096 C 0.49791 0.35311 0.858 0.0
C1097 C 0.48039 0.3693 0.93999 0.0
C1098 C 0.4871 0.3468 0.73841 0.0
C1099 C 0.52219 0.34543 0.69175 0.0
N1100 N 0.48436 0.36457 0.87357 0.0
N1101 N 0.51849 0.34757 0.76067 0.0
H1102 H 0.11944 0.53304 0.15875 0.0
H1103 H 0.1434 0.46318 0.457 0.0
H1104 H 0.15603 0.48897 0.12931 0.0
H1105 H 0.11621 0.51305 0.49686 0.0
H1106 H 0.14862 0.47274 0.33684 0.0
H1107 H 0.11919 0.52686 0.28369 0.0
C1108 C 0.12764 0.52223 0.17867 0.0
C1109 C 0.1376 0.51136 0.13341 0.0
C1110 C 0.1417 0.48169 0.37206 0.0
C1111 C 0.13715 0.50406 0.27611 0.0
C1112 C 0.13862 0.47619 0.44041 0.0
C1113 C 0.12955 0.48743 0.48691 0.0
C1114 C 0.13536 0.49844 0.34977 0.0
C1115 C 0.1236 0.50414 0.46302 0.0
C1116 C 0.12746 0.51869 0.25001 0.0
C1117 C 0.14806 0.49762 0.16218 0.0
N1118 N 0.12651 0.5091 0.39589 0.0
N1119 N 0.14735 0.4942 0.2316 0.0
H1120 H 0.98191 0.59744 0.46355 0.0
H1121 H 0.00077 0.65908 0.13651 0.0
H1122 H 0.99069 0.65411 0.48674 0.0
H1123 H 0.0136 0.60274 0.14175 0.0
H1124 H -0.00421 0.65824 0.26292 0.0
H1125 H 0.99149 0.59952 0.34188 0.0
C1126 C 0.98595 0.6103 0.44279 0.0
C1127 C 0.98577 0.62558 0.48477 0.0
C1128 C -7e-05 0.64615 0.23624 0.0
C1129 C -0.0035 0.62817 0.34618 0.0
C1130 C 0.00278 0.64662 0.16427 0.0
C1131 C 0.00742 0.63092 0.12844 0.0
C1132 C 0.00148 0.62982 0.27198 0.0
C1133 C 0.00989 0.61515 0.16699 0.0
C1134 C 0.9915 0.61149 0.37371 0.0
C1135 C 0.99102 0.64199 0.4559 0.0
N1136 N 0.00665 0.61495 0.23645 0.0
N1137 N -0.00394 0.64291 0.38792 0.0
H1138 H 0.87613 0.01414 0.00516 0.0
H1139 H 0.83308 0.99078 0.63513 0.0
H1140 H 0.84648 0.96587 0.96277 0.0
H1141 H 0.87272 0.03204 0.66564 0.0
H1142 H 0.83312 0.98512 0.7604 0.0
H1143 H 0.87074 0.02404 0.88558 0.0
C1144 C 0.86826 0.00575 0.97092 0.0
C1145 C 0.86157 0.98926 -0.00618 0.0
C1146 C 0.84166 0.99554 0.7397 0.0
C1147 C 0.85555 0.00036 0.85708 0.0
C1148 C 0.84158 -0.00114 0.66826 0.0
C1149 C 0.85313 0.01172 0.63979 0.0
C1150 C 0.85332 0.00519 0.78292 0.0
C1151 C 0.86376 0.02184 0.68529 0.0
C1152 C 0.86528 0.01136 0.90263 0.0
C1153 C 0.8519 0.97867 0.94688 0.0
N1154 N 0.86373 0.01824 0.75461 0.0
N1155 N 0.84915 0.98441 0.88065 0.0
H1156 H 0.52656 0.87901 0.43801 0.0
H1157 H 0.45618 0.84767 0.16227 0.0
H1158 H 0.48265 0.84569 0.50537 0.0
H1159 H 0.51288 0.84556 0.12021 0.0
H1160 H 0.46293 0.85125 0.28702 0.0
H1161 H 0.51914 0.87184 0.31728 0.0
C1162 C 0.51521 0.87042 0.42768 0.0
C1163 C 0.50488 0.86348 0.48241 0.0
C1164 C 0.4738 0.84975 0.25016 0.0
C1165 C 0.49632 0.85534 0.34438 0.0
C1166 C 0.46999 0.84769 0.17928 0.0
C1167 C 0.48398 0.84637 0.1308 0.0
C1168 C 0.49167 0.851 0.27182 0.0
C1169 C 0.50165 0.84651 0.1556 0.0
C1170 C 0.51105 0.8663 0.35884 0.0
C1171 C 0.49045 0.8522 0.46552 0.0
N1172 N 0.50499 0.84913 0.22422 0.0
N1173 N 0.48646 0.84863 0.39785 0.0
H1174 H 0.64236 0.47828 0.03089 0.0
H1175 H 0.65457 0.51119 0.64334 0.0
H1176 H 0.62459 0.53011 0.95935 0.0
H1177 H 0.63883 0.45656 0.68451 0.0
H1178 H 0.65218 0.51772 0.76716 0.0
H1179 H 0.64812 0.46961 0.91016 0.0
C1180 C 0.63913 0.48766 0.9899 0.0
C1181 C 0.63217 0.5047 0.00499 0.0
C1182 C 0.64944 0.50427 0.74899 0.0
C1183 C 0.6401 0.49528 0.86799 0.0
C1184 C 0.6509 0.50046 0.67845 0.0
C1185 C 0.64654 0.48335 0.65334 0.0
C1186 C 0.6439 0.49084 0.79495 0.0
C1187 C 0.64209 0.46997 0.70163 0.0
C1188 C 0.64277 0.48278 0.92124 0.0
C1189 C 0.62964 0.51674 0.94992 0.0
N1190 N 0.64076 0.47403 0.7705 0.0
N1191 N 0.63366 0.51182 0.88378 0.0
H1192 H 0.03018 0.87418 0.32853 0.0
H1193 H 0.96439 0.84357 0.02529 0.0
H1194 H 0.98985 0.83337 0.35409 0.0
H1195 H 0.00955 0.8784 0.99201 0.0
H1196 H 0.97425 0.83882 0.14529 0.0
H1197 H 0.02428 0.87439 0.20352 0.0
C1198 C 0.02027 0.86506 0.30772 0.0
C1199 C 0.01031 0.85393 0.3519 0.0
C1200 C 0.98211 0.84737 0.11158 0.0
C1201 C 0.00331 0.8543 0.20916 0.0
C1202 C 0.97642 0.85017 0.04336 0.0
C1203 C 0.98629 0.86124 -0.00123 0.0
C1204 C -0.00235 0.85592 0.1356 0.0
C1205 C 0.00177 0.86948 0.02443 0.0
C1206 C 0.01688 0.86522 0.23634 0.0
C1207 C -0.00226 0.84229 0.32204 0.0
N1208 N 0.00694 0.86672 0.09137 0.0
N1209 N 0.99442 0.84296 0.25258 0.0
H1210 H 0.65137 0.98072 0.86294 0.0
H1211 H 0.64071 0.01199 0.47315 0.0
H1212 H 0.63503 0.03496 0.81769 0.0
H1213 H 0.62172 0.96065 0.54494 0.0
H1214 H 0.64576 0.02092 0.59398 0.0
H1215 H 0.64891 0.97351 0.73949 0.0
C1216 C 0.6476 0.99124 0.82696 0.0
C1217 C 0.6432 0.00846 0.85075 0.0
C1218 C 0.64029 0.0078 0.58294 0.0
C1219 C 0.64047 0.00019 0.70968 0.0
C1220 C 0.63705 0.00278 0.51415 0.0
C1221 C 0.62989 0.98583 0.49901 0.0
C1222 C 0.63707 0.99552 0.63649 0.0
C1223 C 0.62689 0.97396 0.55435 0.0
C1224 C 0.64607 0.98703 0.7567 0.0
C1225 C 0.6384 0.02149 0.80153 0.0
N1226 N 0.63055 0.979 0.62074 0.0
N1227 N 0.63711 0.01708 0.73298 0.0
H1228 H 0.4945 0.65761 0.97229 0.0
H1229 H 0.47637 0.60249 0.32064 0.0
H1230 H 0.50824 0.60201 -0.00136 0.0
H1231 H 0.48509 0.65963 0.32267 0.0
H1232 H 0.48101 0.60237 0.19508 0.0
H1233 H 0.48474 0.65871 0.09462 0.0
C1234 C 0.49526 0.64563 0.0039 0.0
C1235 C 0.502 0.62966 0.9761 0.0
C1236 C 0.48176 0.61495 0.22299 0.0
C1237 C 0.49091 0.63077 0.11435 0.0
C1238 C 0.47902 0.61507 0.29461 0.0
C1239 C 0.48059 0.63108 0.33232 0.0
C1240 C 0.48593 0.63096 0.18864 0.0
C1241 C 0.48393 0.64698 0.2956 0.0
C1242 C 0.48979 0.64627 0.07335 0.0
C1243 C 0.50308 0.61454 0.01872 0.0
N1244 N 0.48661 0.64651 0.22556 0.0
N1245 N 0.49749 0.61543 0.08584 0.0
H1246 H 0.84825 0.52968 0.54019 0.0
H1247 H 0.87083 0.45941 0.83878 0.0
H1248 H 0.87484 0.47946 0.50091 0.0
H1249 H 0.83514 0.50423 0.86803 0.0
H1250 H 0.87127 0.46559 0.71386 0.0
H1251 H 0.84279 0.52022 0.6603 0.0
C1252 C 0.85285 0.51662 0.55689 0.0
C1253 C 0.86183 0.50524 0.51055 0.0
C1254 C 0.86316 0.47393 0.74749 0.0
C1255 C 0.85573 0.49434 0.64767 0.0
C1256 C 0.86286 0.47038 0.81882 0.0
C1257 C 0.85311 0.48145 0.86403 0.0
C1258 C 0.85379 0.48877 0.72133 0.0
C1259 C 0.84295 0.49541 0.8352 0.0
C1260 C 0.84964 0.51117 0.62522 0.0
C1261 C 0.86753 0.48847 0.53461 0.0
N1262 N 0.84376 0.49883 0.76579 0.0
N1263 N 0.86448 0.48356 0.60171 0.0
loop_
_geom_bond_atom_site_label_1
_geom_bond_atom_site_label_2
_geom_bond_distance
_geom_bond_site_symmetry_2
_ccdc_geom_bond_type
Co0 O3 1.970 1_455 S
Co0 N17 1.989 . S
Co0 O25 1.967 . S
Co0 O32 1.920 1_554 S
Co1 O4 1.966 1_455 S
Co1 N10 2.022 . S
Co1 N18 1.993 . S
Co1 O26 1.941 . S
C2 O3 1.258 . S
C2 O4 1.263 . S
O3 Co0 1.970 1_655 S
O3 C2 1.258 . S
O4 Co1 1.966 1_655 S
O4 C2 1.263 . S
C5 O6 1.235 . S
C5 O32 1.289 1_655 S
O6 C5 1.235 . S
C7 C9 1.400 . S
C7 N10 1.351 . S
C7 C12 1.501 1_455 S
C8 C9 1.387 . S
C8 N11 1.341 . S
C9 C7 1.400 . S
C9 C8 1.387 . S
N10 Co1 2.022 . S
N10 C7 1.351 . S
N10 N11 1.365 . S
N11 C8 1.341 . S
N11 N10 1.365 . S
N11 H31 0.862 . S
C12 C7 1.501 1_655 S
C12 H13 0.961 . S
C12 H14 0.961 . S
C12 H15 0.960 . S
H13 C12 0.961 . S
H14 C12 0.961 . S
H15 C12 0.960 . S
C16 N17 1.342 . S
C16 C20 1.401 . S
C16 C21 1.499 . S
N17 Co0 1.989 . S
N17 C16 1.342 . S
N17 N18 1.388 . S
N18 Co1 1.993 . S
N18 N17 1.388 . S
N18 C19 1.346 . S
C19 N18 1.346 . S
C19 C20 1.396 . S
C19 C29 1.510 . S
C20 C16 1.401 . S
C20 C19 1.396 . S
C21 C16 1.499 . S
C21 H22 0.959 . S
C21 H23 0.960 . S
C21 H24 0.961 . S
H22 C21 0.959 . S
H23 C21 0.960 . S
H24 C21 0.961 . S
O25 Co0 1.967 . S
O25 C33 1.258 . S
O26 Co1 1.941 . S
O26 C33 1.266 . S
H27 C29 0.959 . S
H28 C29 0.961 . S
C29 C19 1.510 . S
C29 H27 0.959 . S
C29 H28 0.961 . S
C29 H30 0.960 . S
H30 C29 0.960 . S
H31 N11 0.862 . S
O32 Co0 1.920 1_556 S
O32 C5 1.289 1_455 S
C33 O25 1.258 . S
C33 O26 1.266 . S
Co34 O37 1.970 1_545 S
Co34 N51 1.989 . S
Co34 O59 1.967 . S
Co34 O66 1.920 . S
Co35 O38 1.966 1_545 S
Co35 N44 2.022 . S
Co35 N52 1.993 . S
Co35 O60 1.941 . S
C36 O37 1.258 . S
C36 O38 1.263 . S
O37 Co34 1.970 1_565 S
O37 C36 1.258 . S
O38 Co35 1.966 1_565 S
O38 C36 1.263 . S
C39 O40 1.235 . S
C39 O66 1.289 1_565 S
O40 C39 1.235 . S
C41 C43 1.400 . S
C41 N44 1.351 . S
C41 C46 1.501 1_545 S
C42 C43 1.387 . S
C42 N45 1.341 . S
C43 C41 1.400 . S
C43 C42 1.387 . S
N44 Co35 2.022 . S
N44 C41 1.351 . S
N44 N45 1.365 . S
N45 C42 1.341 . S
N45 N44 1.365 . S
N45 H65 0.862 . S
C46 C41 1.501 1_565 S
C46 H47 0.961 . S
C46 H48 0.961 . S
C46 H49 0.960 . S
H47 C46 0.961 . S
H48 C46 0.961 . S
H49 C46 0.960 . S
C50 N51 1.342 . S
C50 C54 1.401 . S
C50 C55 1.499 . S
N51 Co34 1.989 . S
N51 C50 1.342 . S
N51 N52 1.388 . S
N52 Co35 1.993 . S
N52 N51 1.388 . S
N52 C53 1.346 . S
C53 N52 1.346 . S
C53 C54 1.396 . S
C53 C63 1.510 . S
C54 C50 1.401 . S
C54 C53 1.396 . S
C55 C50 1.499 . S
C55 H56 0.959 . S
C55 H57 0.960 . S
C55 H58 0.961 . S
H56 C55 0.959 . S
H57 C55 0.960 . S
H58 C55 0.961 . S
O59 Co34 1.967 . S
O59 C67 1.258 . S
O60 Co35 1.941 . S
O60 C67 1.266 . S
H61 C63 0.959 . S
H62 C63 0.961 . S
C63 C53 1.510 . S
C63 H61 0.959 . S
C63 H62 0.961 . S
C63 H64 0.960 . S
H64 C63 0.960 . S
H65 N45 0.862 . S
O66 Co34 1.920 . S
O66 C39 1.289 1_545 S
C67 O59 1.258 . S
C67 O60 1.266 . S
Co68 O71 1.970 . S
Co68 N85 1.989 . S
Co68 O93 1.967 . S
Co68 O100 1.920 1_554 S
Co69 O72 1.966 . S
Co69 N78 2.022 . S
Co69 N86 1.993 . S
Co69 O94 1.941 . S
C70 O71 1.258 . S
C70 O72 1.263 . S
O71 Co68 1.970 . S
O71 C70 1.258 . S
O72 Co69 1.966 . S
O72 C70 1.263 . S
C73 O74 1.235 . S
C73 O100 1.289 . S
O74 C73 1.235 . S
C75 C77 1.400 . S
C75 N78 1.351 . S
C75 C80 1.501 . S
C76 C77 1.387 . S
C76 N79 1.341 . S
C77 C75 1.400 . S
C77 C76 1.387 . S
N78 Co69 2.022 . S
N78 C75 1.351 . S
N78 N79 1.365 . S
N79 C76 1.341 . S
N79 N78 1.365 . S
N79 H99 0.862 . S
C80 C75 1.501 . S
C80 H81 0.961 . S
C80 H82 0.961 . S
C80 H83 0.960 . S
H81 C80 0.961 . S
H82 C80 0.961 . S
H83 C80 0.960 . S
C84 N85 1.342 . S
C84 C88 1.401 . S
C84 C89 1.499 . S
N85 Co68 1.989 . S
N85 C84 1.342 . S
N85 N86 1.388 . S
N86 Co69 1.993 . S
N86 N85 1.388 . S
N86 C87 1.346 . S
C87 N86 1.346 . S
C87 C88 1.396 . S
C87 C97 1.510 . S
C88 C84 1.401 . S
C88 C87 1.396 . S
C89 C84 1.499 . S
C89 H90 0.959 . S
C89 H91 0.960 . S
C89 H92 0.961 . S
H90 C89 0.959 . S
H91 C89 0.960 . S
H92 C89 0.961 . S
O93 Co68 1.967 . S
O93 C101 1.258 . S
O94 Co69 1.941 . S
O94 C101 1.266 . S
H95 C97 0.959 . S
H96 C97 0.961 . S
C97 C87 1.510 . S
C97 H95 0.959 . S
C97 H96 0.961 . S
C97 H98 0.960 . S
H98 C97 0.960 . S
H99 N79 0.862 . S
O100 Co68 1.920 1_556 S
O100 C73 1.289 . S
C101 O93 1.258 . S
C101 O94 1.266 . S
Co102 O105 1.970 . S
Co102 N119 1.989 . S
Co102 O127 1.967 . S
Co102 O134 1.920 . S
Co103 O106 1.966 . S
Co103 N112 2.022 . S
Co103 N120 1.993 . S
Co103 O128 1.941 . S
C104 O105 1.258 . S
C104 O106 1.263 . S
O105 Co102 1.970 . S
O105 C104 1.258 . S
O106 Co103 1.966 . S
O106 C104 1.263 . S
C107 O108 1.235 . S
C107 O134 1.289 . S
O108 C107 1.235 . S
C109 C111 1.400 . S
C109 N112 1.351 . S
C109 C114 1.501 . S
C110 C111 1.387 . S
C110 N113 1.341 . S
C111 C109 1.400 . S
C111 C110 1.387 . S
N112 Co103 2.022 . S
N112 C109 1.351 . S
N112 N113 1.365 . S
N113 C110 1.341 . S
N113 N112 1.365 . S
N113 H133 0.862 . S
C114 C109 1.501 . S
C114 H115 0.961 . S
C114 H116 0.961 . S
C114 H117 0.960 . S
H115 C114 0.961 . S
H116 C114 0.961 . S
H117 C114 0.960 . S
C118 N119 1.342 . S
C118 C122 1.401 . S
C118 C123 1.499 . S
N119 Co102 1.989 . S
N119 C118 1.342 . S
N119 N120 1.388 . S
N120 Co103 1.993 . S
N120 N119 1.388 . S
N120 C121 1.346 . S
C121 N120 1.346 . S
C121 C122 1.396 . S
C121 C131 1.510 . S
C122 C118 1.401 . S
C122 C121 1.396 . S
C123 C118 1.499 . S
C123 H124 0.959 . S
C123 H125 0.960 . S
C123 H126 0.961 . S
H124 C123 0.959 . S
H125 C123 0.960 . S
H126 C123 0.961 . S
O127 Co102 1.967 . S
O127 C135 1.258 . S
O128 Co103 1.941 . S
O128 C135 1.266 . S
H129 C131 0.959 . S
H130 C131 0.961 . S
C131 C121 1.510 . S
C131 H129 0.959 . S
C131 H130 0.961 . S
C131 H132 0.960 . S
H132 C131 0.960 . S
H133 N113 0.862 . S
O134 Co102 1.920 . S
O134 C107 1.289 . S
C135 O127 1.258 . S
C135 O128 1.266 . S
Co136 O139 1.970 1_455 S
Co136 N153 1.989 . S
Co136 O161 1.967 . S
Co136 O168 1.920 . S
Co137 O140 1.966 1_455 S
Co137 N146 2.022 . S
Co137 N154 1.993 . S
Co137 O162 1.941 . S
C138 O139 1.258 . S
C138 O140 1.263 . S
O139 Co136 1.970 1_655 S
O139 C138 1.258 . S
O140 Co137 1.966 1_655 S
O140 C138 1.263 . S
C141 O142 1.235 . S
C141 O168 1.289 1_655 S
O142 C141 1.235 . S
C143 C145 1.400 . S
C143 N146 1.351 . S
C143 C148 1.501 1_455 S
C144 C145 1.387 . S
C144 N147 1.341 . S
C145 C143 1.400 . S
C145 C144 1.387 . S
N146 Co137 2.022 . S
N146 C143 1.351 . S
N146 N147 1.365 . S
N147 C144 1.341 . S
N147 N146 1.365 . S
N147 H167 0.862 . S
C148 C143 1.501 1_655 S
C148 H149 0.961 . S
C148 H150 0.961 . S
C148 H151 0.960 . S
H149 C148 0.961 . S
H150 C148 0.961 . S
H151 C148 0.960 . S
C152 N153 1.342 . S
C152 C156 1.401 . S
C152 C157 1.499 . S
N153 Co136 1.989 . S
N153 C152 1.342 . S
N153 N154 1.388 . S
N154 Co137 1.993 . S
N154 N153 1.388 . S
N154 C155 1.346 . S
C155 N154 1.346 . S
C155 C156 1.396 . S
C155 C165 1.510 . S
C156 C152 1.401 . S
C156 C155 1.396 . S
C157 C152 1.499 . S
C157 H158 0.959 . S
C157 H159 0.960 . S
C157 H160 0.961 . S
H158 C157 0.959 . S
H159 C157 0.960 . S
H160 C157 0.961 . S
O161 Co136 1.967 . S
O161 C169 1.258 . S
O162 Co137 1.941 . S
O162 C169 1.266 . S
H163 C165 0.959 . S
H164 C165 0.961 . S
C165 C155 1.510 . S
C165 H163 0.959 . S
C165 H164 0.961 . S
C165 H166 0.960 . S
H166 C165 0.960 . S
H167 N147 0.862 . S
O168 Co136 1.920 . S
O168 C141 1.289 1_455 S
C169 O161 1.258 . S
C169 O162 1.266 . S
Co170 O173 1.970 1_545 S
Co170 N187 1.989 . S
Co170 O195 1.967 . S
Co170 O202 1.920 1_556 S
Co171 O174 1.966 1_545 S
Co171 N180 2.022 . S
Co171 N188 1.993 . S
Co171 O196 1.941 . S
C172 O173 1.258 . S
C172 O174 1.263 . S
O173 Co170 1.970 1_565 S
O173 C172 1.258 . S
O174 Co171 1.966 1_565 S
O174 C172 1.263 . S
C175 O176 1.235 . S
C175 O202 1.289 1_565 S
O176 C175 1.235 . S
C177 C179 1.400 . S
C177 N180 1.351 . S
C177 C182 1.501 1_545 S
C178 C179 1.387 . S
C178 N181 1.341 . S
C179 C177 1.400 . S
C179 C178 1.387 . S
N180 Co171 2.022 . S
N180 C177 1.351 . S
N180 N181 1.365 . S
N181 C178 1.341 . S
N181 N180 1.365 . S
N181 H201 0.862 . S
C182 C177 1.501 1_565 S
C182 H183 0.961 . S
C182 H184 0.961 . S
C182 H185 0.960 . S
H183 C182 0.961 . S
H184 C182 0.961 . S
H185 C182 0.960 . S
C186 N187 1.342 . S
C186 C190 1.401 . S
C186 C191 1.499 . S
N187 Co170 1.989 . S
N187 C186 1.342 . S
N187 N188 1.388 . S
N188 Co171 1.993 . S
N188 N187 1.388 . S
N188 C189 1.346 . S
C189 N188 1.346 . S
C189 C190 1.396 . S
C189 C199 1.510 . S
C190 C186 1.401 . S
C190 C189 1.396 . S
C191 C186 1.499 . S
C191 H192 0.959 . S
C191 H193 0.960 . S
C191 H194 0.961 . S
H192 C191 0.959 . S
H193 C191 0.960 . S
H194 C191 0.961 . S
O195 Co170 1.967 . S
O195 C203 1.258 . S
O196 Co171 1.941 . S
O196 C203 1.266 . S
H197 C199 0.959 . S
H198 C199 0.961 . S
C199 C189 1.510 . S
C199 H197 0.959 . S
C199 H198 0.961 . S
C199 H200 0.960 . S
H200 C199 0.960 . S
H201 N181 0.862 . S
O202 Co170 1.920 1_554 S
O202 C175 1.289 1_545 S
C203 O195 1.258 . S
C203 O196 1.266 . S
Co204 O207 1.970 . S
Co204 N221 1.989 . S
Co204 O229 1.967 . S
Co204 O236 1.920 . S
Co205 O208 1.966 . S
Co205 N214 2.022 . S
Co205 N222 1.993 . S
Co205 O230 1.941 . S
C206 O207 1.258 . S
C206 O208 1.263 . S
O207 Co204 1.970 . S
O207 C206 1.258 . S
O208 Co205 1.966 . S
O208 C206 1.263 . S
C209 O210 1.235 . S
C209 O236 1.289 . S
O210 C209 1.235 . S
C211 C213 1.400 . S
C211 N214 1.351 . S
C211 C216 1.501 . S
C212 C213 1.387 . S
C212 N215 1.341 . S
C213 C211 1.400 . S
C213 C212 1.387 . S
N214 Co205 2.022 . S
N214 C211 1.351 . S
N214 N215 1.365 . S
N215 C212 1.341 . S
N215 N214 1.365 . S
N215 H235 0.862 . S
C216 C211 1.501 . S
C216 H217 0.961 . S
C216 H218 0.961 . S
C216 H219 0.960 . S
H217 C216 0.961 . S
H218 C216 0.961 . S
H219 C216 0.960 . S
C220 N221 1.342 . S
C220 C224 1.401 . S
C220 C225 1.499 . S
N221 Co204 1.989 . S
N221 C220 1.342 . S
N221 N222 1.388 . S
N222 Co205 1.993 . S
N222 N221 1.388 . S
N222 C223 1.346 . S
C223 N222 1.346 . S
C223 C224 1.396 . S
C223 C233 1.510 . S
C224 C220 1.401 . S
C224 C223 1.396 . S
C225 C220 1.499 . S
C225 H226 0.959 . S
C225 H227 0.960 . S
C225 H228 0.961 . S
H226 C225 0.959 . S
H227 C225 0.960 . S
H228 C225 0.961 . S
O229 Co204 1.967 . S
O229 C237 1.258 . S
O230 Co205 1.941 . S
O230 C237 1.266 . S
H231 C233 0.959 . S
H232 C233 0.961 . S
C233 C223 1.510 . S
C233 H231 0.959 . S
C233 H232 0.961 . S
C233 H234 0.960 . S
H234 C233 0.960 . S
H235 N215 0.862 . S
O236 Co204 1.920 . S
O236 C209 1.289 . S
C237 O229 1.258 . S
C237 O230 1.266 . S
Co238 O241 1.970 . S
Co238 N255 1.989 . S
Co238 O263 1.967 . S
Co238 O270 1.920 1_556 S
Co239 O242 1.966 . S
Co239 N248 2.022 . S
Co239 N256 1.993 . S
Co239 O264 1.941 . S
C240 O241 1.258 . S
C240 O242 1.263 . S
O241 Co238 1.970 . S
O241 C240 1.258 . S
O242 Co239 1.966 . S
O242 C240 1.263 . S
C243 O244 1.235 . S
C243 O270 1.289 . S
O244 C243 1.235 . S
C245 C247 1.400 . S
C245 N248 1.351 . S
C245 C250 1.501 . S
C246 C247 1.387 . S
C246 N249 1.341 . S
C247 C245 1.400 . S
C247 C246 1.387 . S
N248 Co239 2.022 . S
N248 C245 1.351 . S
N248 N249 1.365 . S
N249 C246 1.341 . S
N249 N248 1.365 . S
N249 H269 0.862 . S
C250 C245 1.501 . S
C250 H251 0.961 . S
C250 H252 0.961 . S
C250 H253 0.960 . S
H251 C250 0.961 . S
H252 C250 0.961 . S
H253 C250 0.960 . S
C254 N255 1.342 . S
C254 C258 1.401 . S
C254 C259 1.499 . S
N255 Co238 1.989 . S
N255 C254 1.342 . S
N255 N256 1.388 . S
N256 Co239 1.993 . S
N256 N255 1.388 . S
N256 C257 1.346 . S
C257 N256 1.346 . S
C257 C258 1.396 . S
C257 C267 1.510 . S
C258 C254 1.401 . S
C258 C257 1.396 . S
C259 C254 1.499 . S
C259 H260 0.959 . S
C259 H261 0.960 . S
C259 H262 0.961 . S
H260 C259 0.959 . S
H261 C259 0.960 . S
H262 C259 0.961 . S
O263 Co238 1.967 . S
O263 C271 1.258 . S
O264 Co239 1.941 . S
O264 C271 1.266 . S
H265 C267 0.959 . S
H266 C267 0.961 . S
C267 C257 1.510 . S
C267 H265 0.959 . S
C267 H266 0.961 . S
C267 H268 0.960 . S
H268 C267 0.960 . S
H269 N249 0.862 . S
O270 Co238 1.920 1_554 S
O270 C243 1.289 . S
C271 O263 1.258 . S
C271 O264 1.266 . S
Co272 O275 1.970 1_655 S
Co272 N289 1.989 . S
Co272 O297 1.967 . S
Co272 O304 1.920 1_556 S
Co273 O276 1.966 1_655 S
Co273 N282 2.022 . S
Co273 N290 1.993 . S
Co273 O298 1.941 . S
C274 O275 1.258 . S
C274 O276 1.263 . S
O275 Co272 1.970 1_455 S
O275 C274 1.258 . S
O276 Co273 1.966 1_455 S
O276 C274 1.263 . S
C277 O278 1.235 . S
C277 O304 1.289 1_455 S
O278 C277 1.235 . S
C279 C281 1.400 . S
C279 N282 1.351 . S
C279 C284 1.501 1_655 S
C280 C281 1.387 . S
C280 N283 1.341 . S
C281 C279 1.400 . S
C281 C280 1.387 . S
N282 Co273 2.022 . S
N282 C279 1.351 . S
N282 N283 1.365 . S
N283 C280 1.341 . S
N283 N282 1.365 . S
N283 H303 0.862 . S
C284 C279 1.501 1_455 S
C284 H285 0.961 . S
C284 H286 0.961 . S
C284 H287 0.960 . S
H285 C284 0.961 . S
H286 C284 0.961 . S
H287 C284 0.960 . S
C288 N289 1.342 . S
C288 C292 1.401 . S
C288 C293 1.499 . S
N289 Co272 1.989 . S
N289 C288 1.342 . S
N289 N290 1.388 . S
N290 Co273 1.993 . S
N290 N289 1.388 . S
N290 C291 1.346 . S
C291 N290 1.346 . S
C291 C292 1.396 . S
C291 C301 1.510 . S
C292 C288 1.401 . S
C292 C291 1.396 . S
C293 C288 1.499 . S
C293 H294 0.959 . S
C293 H295 0.960 . S
C293 H296 0.961 . S
H294 C293 0.959 . S
H295 C293 0.960 . S
H296 C293 0.961 . S
O297 Co272 1.967 . S
O297 C305 1.258 . S
O298 Co273 1.941 . S
O298 C305 1.266 . S
H299 C301 0.959 . S
H300 C301 0.961 . S
C301 C291 1.510 . S
C301 H299 0.959 . S
C301 H300 0.961 . S
C301 H302 0.960 . S
H302 C301 0.960 . S
H303 N283 0.862 . S
O304 Co272 1.920 1_554 S
O304 C277 1.289 1_655 S
C305 O297 1.258 . S
C305 O298 1.266 . S
Co306 O309 1.970 1_565 S
Co306 N323 1.989 . S
Co306 O331 1.967 . S
Co306 O338 1.920 . S
Co307 O310 1.966 1_565 S
Co307 N316 2.022 . S
Co307 N324 1.993 . S
Co307 O332 1.941 . S
C308 O309 1.258 . S
C308 O310 1.263 . S
O309 Co306 1.970 1_545 S
O309 C308 1.258 . S
O310 Co307 1.966 1_545 S
O310 C308 1.263 . S
C311 O312 1.235 . S
C311 O338 1.289 1_545 S
O312 C311 1.235 . S
C313 C315 1.400 . S
C313 N316 1.351 . S
C313 C318 1.501 1_565 S
C314 C315 1.387 . S
C314 N317 1.341 . S
C315 C313 1.400 . S
C315 C314 1.387 . S
N316 Co307 2.022 . S
N316 C313 1.351 . S
N316 N317 1.365 . S
N317 C314 1.341 . S
N317 N316 1.365 . S
N317 H337 0.862 . S
C318 C313 1.501 1_545 S
C318 H319 0.961 . S
C318 H320 0.961 . S
C318 H321 0.960 . S
H319 C318 0.961 . S
H320 C318 0.961 . S
H321 C318 0.960 . S
C322 N323 1.342 . S
C322 C326 1.401 . S
C322 C327 1.499 . S
N323 Co306 1.989 . S
N323 C322 1.342 . S
N323 N324 1.388 . S
N324 Co307 1.993 . S
N324 N323 1.388 . S
N324 C325 1.346 . S
C325 N324 1.346 . S
C325 C326 1.396 . S
C325 C335 1.510 . S
C326 C322 1.401 . S
C326 C325 1.396 . S
C327 C322 1.499 . S
C327 H328 0.959 . S
C327 H329 0.960 . S
C327 H330 0.961 . S
H328 C327 0.959 . S
H329 C327 0.960 . S
H330 C327 0.961 . S
O331 Co306 1.967 . S
O331 C339 1.258 . S
O332 Co307 1.941 . S
O332 C339 1.266 . S
H333 C335 0.959 . S
H334 C335 0.961 . S
C335 C325 1.510 . S
C335 H333 0.959 . S
C335 H334 0.961 . S
C335 H336 0.960 . S
H336 C335 0.960 . S
H337 N317 0.862 . S
O338 Co306 1.920 . S
O338 C311 1.289 1_565 S
C339 O331 1.258 . S
C339 O332 1.266 . S
Co340 O343 1.970 . S
Co340 N357 1.989 . S
Co340 O365 1.967 . S
Co340 O372 1.920 1_556 S
Co341 O344 1.966 . S
Co341 N350 2.022 . S
Co341 N358 1.993 . S
Co341 O366 1.941 . S
C342 O343 1.258 . S
C342 O344 1.263 . S
O343 Co340 1.970 . S
O343 C342 1.258 . S
O344 Co341 1.966 . S
O344 C342 1.263 . S
C345 O346 1.235 . S
C345 O372 1.289 . S
O346 C345 1.235 . S
C347 C349 1.400 . S
C347 N350 1.351 . S
C347 C352 1.501 . S
C348 C349 1.387 . S
C348 N351 1.341 . S
C349 C347 1.400 . S
C349 C348 1.387 . S
N350 Co341 2.022 . S
N350 C347 1.351 . S
N350 N351 1.365 . S
N351 C348 1.341 . S
N351 N350 1.365 . S
N351 H371 0.862 . S
C352 C347 1.501 . S
C352 H353 0.961 . S
C352 H354 0.961 . S
C352 H355 0.960 . S
H353 C352 0.961 . S
H354 C352 0.961 . S
H355 C352 0.960 . S
C356 N357 1.342 . S
C356 C360 1.401 . S
C356 C361 1.499 . S
N357 Co340 1.989 . S
N357 C356 1.342 . S
N357 N358 1.388 . S
N358 Co341 1.993 . S
N358 N357 1.388 . S
N358 C359 1.346 . S
C359 N358 1.346 . S
C359 C360 1.396 . S
C359 C369 1.510 . S
C360 C356 1.401 . S
C360 C359 1.396 . S
C361 C356 1.499 . S
C361 H362 0.959 . S
C361 H363 0.960 . S
C361 H364 0.961 . S
H362 C361 0.959 . S
H363 C361 0.960 . S
H364 C361 0.961 . S
O365 Co340 1.967 . S
O365 C373 1.258 . S
O366 Co341 1.941 . S
O366 C373 1.266 . S
H367 C369 0.959 . S
H368 C369 0.961 . S
C369 C359 1.510 . S
C369 H367 0.959 . S
C369 H368 0.961 . S
C369 H370 0.960 . S
H370 C369 0.960 . S
H371 N351 0.862 . S
O372 Co340 1.920 1_554 S
O372 C345 1.289 . S
C373 O365 1.258 . S
C373 O366 1.266 . S
Co374 O377 1.970 . S
Co374 N391 1.989 . S
Co374 O399 1.967 . S
Co374 O406 1.920 . S
Co375 O378 1.966 . S
Co375 N384 2.022 . S
Co375 N392 1.993 . S
Co375 O400 1.941 . S
C376 O377 1.258 . S
C376 O378 1.263 . S
O377 Co374 1.970 . S
O377 C376 1.258 . S
O378 Co375 1.966 . S
O378 C376 1.263 . S
C379 O380 1.235 . S
C379 O406 1.289 . S
O380 C379 1.235 . S
C381 C383 1.400 . S
C381 N384 1.351 . S
C381 C386 1.501 . S
C382 C383 1.387 . S
C382 N385 1.341 . S
C383 C381 1.400 . S
C383 C382 1.387 . S
N384 Co375 2.022 . S
N384 C381 1.351 . S
N384 N385 1.365 . S
N385 C382 1.341 . S
N385 N384 1.365 . S
N385 H405 0.862 . S
C386 C381 1.501 . S
C386 H387 0.961 . S
C386 H388 0.961 . S
C386 H389 0.960 . S
H387 C386 0.961 . S
H388 C386 0.961 . S
H389 C386 0.960 . S
C390 N391 1.342 . S
C390 C394 1.401 . S
C390 C395 1.499 . S
N391 Co374 1.989 . S
N391 C390 1.342 . S
N391 N392 1.388 . S
N392 Co375 1.993 . S
N392 N391 1.388 . S
N392 C393 1.346 . S
C393 N392 1.346 . S
C393 C394 1.396 . S
C393 C403 1.510 . S
C394 C390 1.401 . S
C394 C393 1.396 . S
C395 C390 1.499 . S
C395 H396 0.959 . S
C395 H397 0.960 . S
C395 H398 0.961 . S
H396 C395 0.959 . S
H397 C395 0.960 . S
H398 C395 0.961 . S
O399 Co374 1.967 . S
O399 C407 1.258 . S
O400 Co375 1.941 . S
O400 C407 1.266 . S
H401 C403 0.959 . S
H402 C403 0.961 . S
C403 C393 1.510 . S
C403 H401 0.959 . S
C403 H402 0.961 . S
C403 H404 0.960 . S
H404 C403 0.960 . S
H405 N385 0.862 . S
O406 Co374 1.920 . S
O406 C379 1.289 . S
C407 O399 1.258 . S
C407 O400 1.266 . S
Co408 O411 1.970 1_655 S
Co408 N425 1.989 . S
Co408 O433 1.967 . S
Co408 O440 1.920 . S
Co409 O412 1.966 1_655 S
Co409 N418 2.022 . S
Co409 N426 1.993 . S
Co409 O434 1.941 . S
C410 O411 1.258 . S
C410 O412 1.263 . S
O411 Co408 1.970 1_455 S
O411 C410 1.258 . S
O412 Co409 1.966 1_455 S
O412 C410 1.263 . S
C413 O414 1.235 . S
C413 O440 1.289 1_455 S
O414 C413 1.235 . S
C415 C417 1.400 . S
C415 N418 1.351 . S
C415 C420 1.501 1_655 S
C416 C417 1.387 . S
C416 N419 1.341 . S
C417 C415 1.400 . S
C417 C416 1.387 . S
N418 Co409 2.022 . S
N418 C415 1.351 . S
N418 N419 1.365 . S
N419 C416 1.341 . S
N419 N418 1.365 . S
N419 H439 0.862 . S
C420 C415 1.501 1_455 S
C420 H421 0.961 . S
C420 H422 0.961 . S
C420 H423 0.960 . S
H421 C420 0.961 . S
H422 C420 0.961 . S
H423 C420 0.960 . S
C424 N425 1.342 . S
C424 C428 1.401 . S
C424 C429 1.499 . S
N425 Co408 1.989 . S
N425 C424 1.342 . S
N425 N426 1.388 . S
N426 Co409 1.993 . S
N426 N425 1.388 . S
N426 C427 1.346 . S
C427 N426 1.346 . S
C427 C428 1.396 . S
C427 C437 1.510 . S
C428 C424 1.401 . S
C428 C427 1.396 . S
C429 C424 1.499 . S
C429 H430 0.959 . S
C429 H431 0.960 . S
C429 H432 0.961 . S
H430 C429 0.959 . S
H431 C429 0.960 . S
H432 C429 0.961 . S
O433 Co408 1.967 . S
O433 C441 1.258 . S
O434 Co409 1.941 . S
O434 C441 1.266 . S
H435 C437 0.959 . S
H436 C437 0.961 . S
C437 C427 1.510 . S
C437 H435 0.959 . S
C437 H436 0.961 . S
C437 H438 0.960 . S
H438 C437 0.960 . S
H439 N419 0.862 . S
O440 Co408 1.920 . S
O440 C413 1.289 1_655 S
C441 O433 1.258 . S
C441 O434 1.266 . S
Co442 O445 1.970 1_565 S
Co442 N459 1.989 . S
Co442 O467 1.967 . S
Co442 O474 1.920 1_554 S
Co443 O446 1.966 1_565 S
Co443 N452 2.022 . S
Co443 N460 1.993 . S
Co443 O468 1.941 . S
C444 O445 1.258 . S
C444 O446 1.263 . S
O445 Co442 1.970 1_545 S
O445 C444 1.258 . S
O446 Co443 1.966 1_545 S
O446 C444 1.263 . S
C447 O448 1.235 . S
C447 O474 1.289 1_545 S
O448 C447 1.235 . S
C449 C451 1.400 . S
C449 N452 1.351 . S
C449 C454 1.501 1_565 S
C450 C451 1.387 . S
C450 N453 1.341 . S
C451 C449 1.400 . S
C451 C450 1.387 . S
N452 Co443 2.022 . S
N452 C449 1.351 . S
N452 N453 1.365 . S
N453 C450 1.341 . S
N453 N452 1.365 . S
N453 H473 0.862 . S
C454 C449 1.501 1_545 S
C454 H455 0.961 . S
C454 H456 0.961 . S
C454 H457 0.960 . S
H455 C454 0.961 . S
H456 C454 0.961 . S
H457 C454 0.960 . S
C458 N459 1.342 . S
C458 C462 1.401 . S
C458 C463 1.499 . S
N459 Co442 1.989 . S
N459 C458 1.342 . S
N459 N460 1.388 . S
N460 Co443 1.993 . S
N460 N459 1.388 . S
N460 C461 1.346 . S
C461 N460 1.346 . S
C461 C462 1.396 . S
C461 C471 1.510 . S
C462 C458 1.401 . S
C462 C461 1.396 . S
C463 C458 1.499 . S
C463 H464 0.959 . S
C463 H465 0.960 . S
C463 H466 0.961 . S
H464 C463 0.959 . S
H465 C463 0.960 . S
H466 C463 0.961 . S
O467 Co442 1.967 . S
O467 C475 1.258 . S
O468 Co443 1.941 . S
O468 C475 1.266 . S
H469 C471 0.959 . S
H470 C471 0.961 . S
C471 C461 1.510 . S
C471 H469 0.959 . S
C471 H470 0.961 . S
C471 H472 0.960 . S
H472 C471 0.960 . S
H473 N453 0.862 . S
O474 Co442 1.920 1_556 S
O474 C447 1.289 1_565 S
C475 O467 1.258 . S
C475 O468 1.266 . S
Co476 O479 1.970 . S
Co476 N493 1.989 . S
Co476 O501 1.967 . S
Co476 O508 1.920 . S
Co477 O480 1.966 . S
Co477 N486 2.022 . S
Co477 N494 1.993 . S
Co477 O502 1.941 . S
C478 O479 1.258 . S
C478 O480 1.263 . S
O479 Co476 1.970 . S
O479 C478 1.258 . S
O480 Co477 1.966 . S
O480 C478 1.263 . S
C481 O482 1.235 . S
C481 O508 1.289 . S
O482 C481 1.235 . S
C483 C485 1.400 . S
C483 N486 1.351 . S
C483 C488 1.501 . S
C484 C485 1.387 . S
C484 N487 1.341 . S
C485 C483 1.400 . S
C485 C484 1.387 . S
N486 Co477 2.022 . S
N486 C483 1.351 . S
N486 N487 1.365 . S
N487 C484 1.341 . S
N487 N486 1.365 . S
N487 H507 0.862 . S
C488 C483 1.501 . S
C488 H489 0.961 . S
C488 H490 0.961 . S
C488 H491 0.960 . S
H489 C488 0.961 . S
H490 C488 0.961 . S
H491 C488 0.960 . S
C492 N493 1.342 . S
C492 C496 1.401 . S
C492 C497 1.499 . S
N493 Co476 1.989 . S
N493 C492 1.342 . S
N493 N494 1.388 . S
N494 Co477 1.993 . S
N494 N493 1.388 . S
N494 C495 1.346 . S
C495 N494 1.346 . S
C495 C496 1.396 . S
C495 C505 1.510 . S
C496 C492 1.401 . S
C496 C495 1.396 . S
C497 C492 1.499 . S
C497 H498 0.959 . S
C497 H499 0.960 . S
C497 H500 0.961 . S
H498 C497 0.959 . S
H499 C497 0.960 . S
H500 C497 0.961 . S
O501 Co476 1.967 . S
O501 C509 1.258 . S
O502 Co477 1.941 . S
O502 C509 1.266 . S
H503 C505 0.959 . S
H504 C505 0.961 . S
C505 C495 1.510 . S
C505 H503 0.959 . S
C505 H504 0.961 . S
C505 H506 0.960 . S
H506 C505 0.960 . S
H507 N487 0.862 . S
O508 Co476 1.920 . S
O508 C481 1.289 . S
C509 O501 1.258 . S
C509 O502 1.266 . S
Co510 O513 1.970 . S
Co510 N527 1.989 . S
Co510 O535 1.967 . S
Co510 O542 1.920 1_554 S
Co511 O514 1.966 . S
Co511 N520 2.022 . S
Co511 N528 1.993 . S
Co511 O536 1.941 . S
C512 O513 1.258 . S
C512 O514 1.263 . S
O513 Co510 1.970 . S
O513 C512 1.258 . S
O514 Co511 1.966 . S
O514 C512 1.263 . S
C515 O516 1.235 . S
C515 O542 1.289 . S
O516 C515 1.235 . S
C517 C519 1.400 . S
C517 N520 1.351 . S
C517 C522 1.501 . S
C518 C519 1.387 . S
C518 N521 1.341 . S
C519 C517 1.400 . S
C519 C518 1.387 . S
N520 Co511 2.022 . S
N520 C517 1.351 . S
N520 N521 1.365 . S
N521 C518 1.341 . S
N521 N520 1.365 . S
N521 H541 0.862 . S
C522 C517 1.501 . S
C522 H523 0.961 . S
C522 H524 0.961 . S
C522 H525 0.960 . S
H523 C522 0.961 . S
H524 C522 0.961 . S
H525 C522 0.960 . S
C526 N527 1.342 . S
C526 C530 1.401 . S
C526 C531 1.499 . S
N527 Co510 1.989 . S
N527 C526 1.342 . S
N527 N528 1.388 . S
N528 Co511 1.993 . S
N528 N527 1.388 . S
N528 C529 1.346 . S
C529 N528 1.346 . S
C529 C530 1.396 . S
C529 C539 1.510 . S
C530 C526 1.401 . S
C530 C529 1.396 . S
C531 C526 1.499 . S
C531 H532 0.959 . S
C531 H533 0.960 . S
C531 H534 0.961 . S
H532 C531 0.959 . S
H533 C531 0.960 . S
H534 C531 0.961 . S
O535 Co510 1.967 . S
O535 C543 1.258 . S
O536 Co511 1.941 . S
O536 C543 1.266 . S
H537 C539 0.959 . S
H538 C539 0.961 . S
C539 C529 1.510 . S
C539 H537 0.959 . S
C539 H538 0.961 . S
C539 H540 0.960 . S
H540 C539 0.960 . S
H541 N521 0.862 . S
O542 Co510 1.920 1_556 S
O542 C515 1.289 . S
C543 O535 1.258 . S
C543 O536 1.266 . S
H544 C550 0.930 . S
H545 C554 0.930 . S
H546 C559 0.929 . S
H547 C557 0.929 . S
H548 C552 0.929 . S
H549 C558 0.929 . S
C550 H544 0.930 . S
C550 C551 1.367 . S
C550 C558 1.378 . S
C551 C550 1.367 . S
C551 C559 1.433 . S
C552 H548 0.929 . S
C552 C554 1.378 . S
C552 C556 1.350 . S
C553 C556 1.463 . S
C553 C558 1.350 . S
C553 N561 1.427 . S
C554 H545 0.930 . S
C554 C552 1.378 . S
C554 C555 1.367 . S
C555 C554 1.367 . S
C555 C557 1.433 . S
C556 C552 1.350 . S
C556 C553 1.463 . S
C556 N560 1.427 . S
C557 H547 0.929 . S
C557 C555 1.433 . S
C557 N560 1.384 . S
C558 H549 0.929 . S
C558 C550 1.378 . S
C558 C553 1.350 . S
C559 H546 0.929 . S
C559 C551 1.433 . S
C559 N561 1.384 . S
N560 C556 1.427 . S
N560 C557 1.384 . S
N561 C553 1.427 . S
N561 C559 1.384 . S
H562 C568 0.930 . S
H563 C572 0.930 . S
H564 C577 0.929 . S
H565 C575 0.929 . S
H566 C570 0.929 . S
H567 C576 0.929 . S
C568 H562 0.930 . S
C568 C569 1.367 . S
C568 C576 1.378 . S
C569 C568 1.367 . S
C569 C577 1.433 . S
C570 H566 0.929 . S
C570 C572 1.378 . S
C570 C574 1.350 . S
C571 C574 1.463 . S
C571 C576 1.350 . S
C571 N579 1.427 . S
C572 H563 0.930 . S
C572 C570 1.378 . S
C572 C573 1.367 . S
C573 C572 1.367 . S
C573 C575 1.433 . S
C574 C570 1.350 . S
C574 C571 1.463 . S
C574 N578 1.427 . S
C575 H565 0.929 . S
C575 C573 1.433 . S
C575 N578 1.384 . S
C576 H567 0.929 . S
C576 C568 1.378 . S
C576 C571 1.350 . S
C577 H564 0.929 . S
C577 C569 1.433 . S
C577 N579 1.384 . S
N578 C574 1.427 . S
N578 C575 1.384 . S
N579 C571 1.427 . S
N579 C577 1.384 . S
H580 C586 0.930 . S
H581 C590 0.930 . S
H582 C595 0.929 . S
H583 C593 0.929 . S
H584 C588 0.929 . S
H585 C594 0.929 . S
C586 H580 0.930 . S
C586 C587 1.367 . S
C586 C594 1.378 . S
C587 C586 1.367 . S
C587 C595 1.433 . S
C588 H584 0.929 . S
C588 C590 1.378 . S
C588 C592 1.350 . S
C589 C592 1.463 . S
C589 C594 1.350 . S
C589 N597 1.427 . S
C590 H581 0.930 . S
C590 C588 1.378 . S
C590 C591 1.367 . S
C591 C590 1.367 . S
C591 C593 1.433 . S
C592 C588 1.350 . S
C592 C589 1.463 . S
C592 N596 1.427 . S
C593 H583 0.929 . S
C593 C591 1.433 . S
C593 N596 1.384 . S
C594 H585 0.929 . S
C594 C586 1.378 . S
C594 C589 1.350 . S
C595 H582 0.929 . S
C595 C587 1.433 . S
C595 N597 1.384 . S
N596 C592 1.427 . S
N596 C593 1.384 . S
N597 C589 1.427 . S
N597 C595 1.384 . S
H598 C604 0.930 . S
H599 C608 0.930 . S
H600 C613 0.929 . S
H601 C611 0.929 . S
H602 C606 0.929 . S
H603 C612 0.929 . S
C604 H598 0.930 . S
C604 C605 1.367 . S
C604 C612 1.378 . S
C605 C604 1.367 . S
C605 C613 1.433 . S
C606 H602 0.929 . S
C606 C608 1.378 . S
C606 C610 1.350 . S
C607 C610 1.463 . S
C607 C612 1.350 . S
C607 N615 1.427 . S
C608 H599 0.930 . S
C608 C606 1.378 . S
C608 C609 1.367 . S
C609 C608 1.367 . S
C609 C611 1.433 . S
C610 C606 1.350 . S
C610 C607 1.463 . S
C610 N614 1.427 . S
C611 H601 0.929 . S
C611 C609 1.433 . S
C611 N614 1.384 . S
C612 H603 0.929 . S
C612 C604 1.378 . S
C612 C607 1.350 . S
C613 H600 0.929 . S
C613 C605 1.433 . S
C613 N615 1.384 . S
N614 C610 1.427 . S
N614 C611 1.384 . S
N615 C607 1.427 . S
N615 C613 1.384 . S
H616 C622 0.930 . S
H617 C626 0.930 . S
H618 C631 0.929 . S
H619 C629 0.929 . S
H620 C624 0.929 . S
H621 C630 0.929 . S
C622 H616 0.930 . S
C622 C623 1.367 . S
C622 C630 1.378 . S
C623 C622 1.367 . S
C623 C631 1.433 . S
C624 H620 0.929 . S
C624 C626 1.378 . S
C624 C628 1.350 . S
C625 C628 1.463 . S
C625 C630 1.350 . S
C625 N633 1.427 . S
C626 H617 0.930 . S
C626 C624 1.378 . S
C626 C627 1.367 . S
C627 C626 1.367 . S
C627 C629 1.433 . S
C628 C624 1.350 . S
C628 C625 1.463 . S
C628 N632 1.427 . S
C629 H619 0.929 . S
C629 C627 1.433 . S
C629 N632 1.384 . S
C630 H621 0.929 . S
C630 C622 1.378 . S
C630 C625 1.350 . S
C631 H618 0.929 . S
C631 C623 1.433 . S
C631 N633 1.384 . S
N632 C628 1.427 . S
N632 C629 1.384 . S
N633 C625 1.427 . S
N633 C631 1.384 . S
H634 C640 0.930 . S
H635 C644 0.930 . S
H636 C649 0.929 . S
H637 C647 0.929 . S
H638 C642 0.929 . S
H639 C648 0.929 . S
C640 H634 0.930 . S
C640 C641 1.367 . S
C640 C648 1.378 . S
C641 C640 1.367 . S
C641 C649 1.433 . S
C642 H638 0.929 . S
C642 C644 1.378 . S
C642 C646 1.350 . S
C643 C646 1.463 . S
C643 C648 1.350 . S
C643 N651 1.427 . S
C644 H635 0.930 . S
C644 C642 1.378 . S
C644 C645 1.367 . S
C645 C644 1.367 . S
C645 C647 1.433 . S
C646 C642 1.350 . S
C646 C643 1.463 . S
C646 N650 1.427 . S
C647 H637 0.929 . S
C647 C645 1.433 . S
C647 N650 1.384 . S
C648 H639 0.929 . S
C648 C640 1.378 . S
C648 C643 1.350 . S
C649 H636 0.929 . S
C649 C641 1.433 . S
C649 N651 1.384 . S
N650 C646 1.427 . S
N650 C647 1.384 . S
N651 C643 1.427 . S
N651 C649 1.384 . S
H652 C658 0.930 . S
H653 C662 0.930 . S
H654 C667 0.929 . S
H655 C665 0.929 . S
H656 C660 0.929 . S
H657 C666 0.929 . S
C658 H652 0.930 . S
C658 C659 1.367 . S
C658 C666 1.378 . S
C659 C658 1.367 . S
C659 C667 1.433 . S
C660 H656 0.929 . S
C660 C662 1.378 . S
C660 C664 1.350 . S
C661 C664 1.463 . S
C661 C666 1.350 . S
C661 N669 1.427 . S
C662 H653 0.930 . S
C662 C660 1.378 . S
C662 C663 1.367 . S
C663 C662 1.367 . S
C663 C665 1.433 . S
C664 C660 1.350 . S
C664 C661 1.463 . S
C664 N668 1.427 . S
C665 H655 0.929 . S
C665 C663 1.433 . S
C665 N668 1.384 . S
C666 H657 0.929 . S
C666 C658 1.378 . S
C666 C661 1.350 . S
C667 H654 0.929 . S
C667 C659 1.433 . S
C667 N669 1.384 . S
N668 C664 1.427 . S
N668 C665 1.384 . S
N669 C661 1.427 . S
N669 C667 1.384 . S
H670 C676 0.930 . S
H671 C680 0.930 . S
H672 C685 0.929 . S
H673 C683 0.929 . S
H674 C678 0.929 . S
H675 C684 0.929 . S
C676 H670 0.930 . S
C676 C677 1.367 . S
C676 C684 1.378 . S
C677 C676 1.367 . S
C677 C685 1.433 . S
C678 H674 0.929 . S
C678 C680 1.378 . S
C678 C682 1.350 . S
C679 C682 1.463 . S
C679 C684 1.350 . S
C679 N687 1.427 . S
C680 H671 0.930 . S
C680 C678 1.378 . S
C680 C681 1.367 . S
C681 C680 1.367 . S
C681 C683 1.433 . S
C682 C678 1.350 . S
C682 C679 1.463 . S
C682 N686 1.427 . S
C683 H673 0.929 . S
C683 C681 1.433 . S
C683 N686 1.384 . S
C684 H675 0.929 . S
C684 C676 1.378 . S
C684 C679 1.350 . S
C685 H672 0.929 . S
C685 C677 1.433 . S
C685 N687 1.384 . S
N686 C682 1.427 . S
N686 C683 1.384 . S
N687 C679 1.427 . S
N687 C685 1.384 . S
H688 C694 0.930 . S
H689 C698 0.930 . S
H690 C703 0.929 . S
H691 C701 0.929 . S
H692 C696 0.929 . S
H693 C702 0.929 . S
C694 H688 0.930 . S
C694 C695 1.367 . S
C694 C702 1.378 . S
C695 C694 1.367 . S
C695 C703 1.433 . S
C696 H692 0.929 . S
C696 C698 1.378 . S
C696 C700 1.350 . S
C697 C700 1.463 1_554 S
C697 C702 1.350 . S
C697 N705 1.427 1_554 S
C698 H689 0.930 . S
C698 C696 1.378 . S
C698 C699 1.367 . S
C699 C698 1.367 . S
C699 C701 1.433 . S
C700 C696 1.350 . S
C700 C697 1.463 1_556 S
C700 N704 1.427 1_556 S
C701 H691 0.929 . S
C701 C699 1.433 . S
C701 N704 1.384 1_556 S
C702 H693 0.929 . S
C702 C694 1.378 . S
C702 C697 1.350 . S
C703 H690 0.929 . S
C703 C695 1.433 . S
C703 N705 1.384 1_554 S
N704 C700 1.427 1_554 S
N704 C701 1.384 1_554 S
N705 C697 1.427 1_556 S
N705 C703 1.384 1_556 S
H706 C712 0.930 . S
H707 C716 0.930 . S
H708 C721 0.929 . S
H709 C719 0.929 . S
H710 C714 0.929 . S
H711 C720 0.929 . S
C712 H706 0.930 . S
C712 C713 1.367 . S
C712 C720 1.378 . S
C713 C712 1.367 . S
C713 C721 1.433 . S
C714 H710 0.929 . S
C714 C716 1.378 . S
C714 C718 1.350 . S
C715 C718 1.463 . S
C715 C720 1.350 . S
C715 N723 1.427 . S
C716 H707 0.930 . S
C716 C714 1.378 . S
C716 C717 1.367 . S
C717 C716 1.367 . S
C717 C719 1.433 . S
C718 C714 1.350 . S
C718 C715 1.463 . S
C718 N722 1.427 . S
C719 H709 0.929 . S
C719 C717 1.433 . S
C719 N722 1.384 . S
C720 H711 0.929 . S
C720 C712 1.378 . S
C720 C715 1.350 . S
C721 H708 0.929 . S
C721 C713 1.433 . S
C721 N723 1.384 . S
N722 C718 1.427 . S
N722 C719 1.384 . S
N723 C715 1.427 . S
N723 C721 1.384 . S
H724 C730 0.930 . S
H725 C734 0.930 . S
H726 C739 0.929 . S
H727 C737 0.929 . S
H728 C732 0.929 1_554 S
H729 C738 0.929 1_556 S
C730 H724 0.930 . S
C730 C731 1.367 . S
C730 C738 1.378 . S
C731 C730 1.367 . S
C731 C739 1.433 . S
C732 H728 0.929 1_556 S
C732 C734 1.378 . S
C732 C736 1.350 . S
C733 C736 1.463 1_554 S
C733 C738 1.350 . S
C733 N741 1.427 . S
C734 H725 0.930 . S
C734 C732 1.378 . S
C734 C735 1.367 . S
C735 C734 1.367 . S
C735 C737 1.433 . S
C736 C732 1.350 . S
C736 C733 1.463 1_556 S
C736 N740 1.427 . S
C737 H727 0.929 . S
C737 C735 1.433 . S
C737 N740 1.384 . S
C738 H729 0.929 1_554 S
C738 C730 1.378 . S
C738 C733 1.350 . S
C739 H726 0.929 . S
C739 C731 1.433 . S
C739 N741 1.384 . S
N740 C736 1.427 . S
N740 C737 1.384 . S
N741 C733 1.427 . S
N741 C739 1.384 . S
H742 C748 0.930 . S
H743 C752 0.930 . S
H744 C757 0.929 . S
H745 C755 0.929 . S
H746 C750 0.929 . S
H747 C756 0.929 . S
C748 H742 0.930 . S
C748 C749 1.367 . S
C748 C756 1.378 . S
C749 C748 1.367 . S
C749 C757 1.433 . S
C750 H746 0.929 . S
C750 C752 1.378 . S
C750 C754 1.350 . S
C751 C754 1.463 . S
C751 C756 1.350 . S
C751 N759 1.427 . S
C752 H743 0.930 . S
C752 C750 1.378 . S
C752 C753 1.367 . S
C753 C752 1.367 . S
C753 C755 1.433 . S
C754 C750 1.350 . S
C754 C751 1.463 . S
C754 N758 1.427 . S
C755 H745 0.929 . S
C755 C753 1.433 . S
C755 N758 1.384 . S
C756 H747 0.929 . S
C756 C748 1.378 . S
C756 C751 1.350 . S
C757 H744 0.929 . S
C757 C749 1.433 . S
C757 N759 1.384 . S
N758 C754 1.427 . S
N758 C755 1.384 . S
N759 C751 1.427 . S
N759 C757 1.384 . S
H760 C766 0.930 . S
H761 C770 0.930 . S
H762 C775 0.929 . S
H763 C773 0.929 . S
H764 C768 0.929 . S
H765 C774 0.929 . S
C766 H760 0.930 . S
C766 C767 1.367 . S
C766 C774 1.378 . S
C767 C766 1.367 . S
C767 C775 1.433 . S
C768 H764 0.929 . S
C768 C770 1.378 . S
C768 C772 1.350 . S
C769 C772 1.463 1_554 S
C769 C774 1.350 . S
C769 N777 1.427 . S
C770 H761 0.930 . S
C770 C768 1.378 . S
C770 C771 1.367 . S
C771 C770 1.367 . S
C771 C773 1.433 . S
C772 C768 1.350 . S
C772 C769 1.463 1_556 S
C772 N776 1.427 . S
C773 H763 0.929 . S
C773 C771 1.433 . S
C773 N776 1.384 . S
C774 H765 0.929 . S
C774 C766 1.378 . S
C774 C769 1.350 . S
C775 H762 0.929 . S
C775 C767 1.433 . S
C775 N777 1.384 . S
N776 C772 1.427 . S
N776 C773 1.384 . S
N777 C769 1.427 . S
N777 C775 1.384 . S
H778 C784 0.930 . S
H779 C788 0.930 . S
H780 C793 0.929 . S
H781 C791 0.929 . S
H782 C786 0.929 . S
H783 C792 0.929 . S
C784 H778 0.930 . S
C784 C785 1.367 . S
C784 C792 1.378 . S
C785 C784 1.367 . S
C785 C793 1.433 . S
C786 H782 0.929 . S
C786 C788 1.378 . S
C786 C790 1.350 . S
C787 C790 1.463 . S
C787 C792 1.350 . S
C787 N795 1.427 . S
C788 H779 0.930 . S
C788 C786 1.378 . S
C788 C789 1.367 . S
C789 C788 1.367 . S
C789 C791 1.433 . S
C790 C786 1.350 . S
C790 C787 1.463 . S
C790 N794 1.427 . S
C791 H781 0.929 . S
C791 C789 1.433 . S
C791 N794 1.384 . S
C792 H783 0.929 . S
C792 C784 1.378 . S
C792 C787 1.350 . S
C793 H780 0.929 . S
C793 C785 1.433 . S
C793 N795 1.384 . S
N794 C790 1.427 . S
N794 C791 1.384 . S
N795 C787 1.427 . S
N795 C793 1.384 . S
H796 C802 0.930 . S
H797 C806 0.930 . S
H798 C811 0.929 . S
H799 C809 0.929 . S
H800 C804 0.929 . S
H801 C810 0.929 . S
C802 H796 0.930 . S
C802 C803 1.367 . S
C802 C810 1.378 1_554 S
C803 C802 1.367 . S
C803 C811 1.433 . S
C804 H800 0.929 . S
C804 C806 1.378 1_554 S
C804 C808 1.350 1_554 S
C805 C808 1.463 1_554 S
C805 C810 1.350 1_554 S
C805 N813 1.427 . S
C806 H797 0.930 . S
C806 C804 1.378 1_556 S
C806 C807 1.367 . S
C807 C806 1.367 . S
C807 C809 1.433 . S
C808 C804 1.350 1_556 S
C808 C805 1.463 1_556 S
C808 N812 1.427 . S
C809 H799 0.929 . S
C809 C807 1.433 . S
C809 N812 1.384 . S
C810 H801 0.929 . S
C810 C802 1.378 1_556 S
C810 C805 1.350 1_556 S
C811 H798 0.929 . S
C811 C803 1.433 . S
C811 N813 1.384 . S
N812 C808 1.427 . S
N812 C809 1.384 . S
N813 C805 1.427 . S
N813 C811 1.384 . S
H814 C820 0.930 . S
H815 C824 0.930 . S
H816 C829 0.929 . S
H817 C827 0.929 . S
H818 C822 0.929 . S
H819 C828 0.929 . S
C820 H814 0.930 . S
C820 C821 1.367 . S
C820 C828 1.378 . S
C821 C820 1.367 . S
C821 C829 1.433 . S
C822 H818 0.929 . S
C822 C824 1.378 . S
C822 C826 1.350 . S
C823 C826 1.463 . S
C823 C828 1.350 . S
C823 N831 1.427 . S
C824 H815 0.930 . S
C824 C822 1.378 . S
C824 C825 1.367 . S
C825 C824 1.367 . S
C825 C827 1.433 . S
C826 C822 1.350 . S
C826 C823 1.463 . S
C826 N830 1.427 . S
C827 H817 0.929 . S
C827 C825 1.433 . S
C827 N830 1.384 . S
C828 H819 0.929 . S
C828 C820 1.378 . S
C828 C823 1.350 . S
C829 H816 0.929 . S
C829 C821 1.433 . S
C829 N831 1.384 . S
N830 C826 1.427 . S
N830 C827 1.384 . S
N831 C823 1.427 . S
N831 C829 1.384 . S
H832 C838 0.930 . S
H833 C842 0.957 . S
H834 C847 0.949 . S
H835 C845 0.929 . S
H836 C840 0.955 . S
H837 C846 0.929 . S
C838 H832 0.930 . S
C838 C839 1.367 . S
C838 C846 1.378 . S
C839 C838 1.367 . S
C839 C847 1.433 . S
C840 H836 0.955 . S
C840 C842 1.378 . S
C840 C844 1.350 . S
C841 C844 1.463 . S
C841 C846 1.350 . S
C841 N849 1.427 . S
C842 H833 0.957 . S
C842 C840 1.378 . S
C842 C843 1.367 . S
C843 C842 1.367 . S
C843 C845 1.433 . S
C844 C840 1.350 . S
C844 C841 1.463 . S
C844 N848 1.427 . S
C845 H835 0.929 . S
C845 C843 1.433 . S
C845 N848 1.384 . S
C846 H837 0.929 . S
C846 C838 1.378 . S
C846 C841 1.350 . S
C847 H834 0.949 . S
C847 C839 1.433 . S
C847 N849 1.384 . S
N848 C844 1.427 . S
N848 C845 1.384 . S
N849 C841 1.427 . S
N849 C847 1.384 . S
H850 C856 0.930 . S
H851 C860 0.930 1_565 S
H852 C865 0.929 1_565 S
H853 C863 0.929 . S
H854 C858 0.929 1_565 S
H855 C864 0.929 . S
C856 H850 0.930 . S
C856 C857 1.367 . S
C856 C864 1.378 . S
C857 C856 1.367 . S
C857 C865 1.433 . S
C858 H854 0.929 1_545 S
C858 C860 1.378 . S
C858 C862 1.350 . S
C859 C862 1.463 . S
C859 C864 1.350 . S
C859 N867 1.427 . S
C860 H851 0.930 1_545 S
C860 C858 1.378 . S
C860 C861 1.367 . S
C861 C860 1.367 . S
C861 C863 1.433 . S
C862 C858 1.350 . S
C862 C859 1.463 . S
C862 N866 1.427 . S
C863 H853 0.929 . S
C863 C861 1.433 . S
C863 N866 1.384 . S
C864 H855 0.929 . S
C864 C856 1.378 . S
C864 C859 1.350 . S
C865 H852 0.929 1_545 S
C865 C857 1.433 . S
C865 N867 1.384 . S
N866 C862 1.427 . S
N866 C863 1.384 . S
N867 C859 1.427 . S
N867 C865 1.384 . S
H868 C874 0.930 . S
H869 C878 0.930 . S
H870 C883 0.929 . S
H871 C881 0.929 . S
H872 C876 0.929 . S
H873 C882 0.929 . S
C874 H868 0.930 . S
C874 C875 1.367 . S
C874 C882 1.378 . S
C875 C874 1.367 . S
C875 C883 1.433 . S
C876 H872 0.929 . S
C876 C878 1.378 . S
C876 C880 1.350 . S
C877 C880 1.463 . S
C877 C882 1.350 . S
C877 N885 1.427 . S
C878 H869 0.930 . S
C878 C876 1.378 . S
C878 C879 1.367 . S
C879 C878 1.367 . S
C879 C881 1.433 . S
C880 C876 1.350 . S
C880 C877 1.463 . S
C880 N884 1.427 . S
C881 H871 0.929 . S
C881 C879 1.433 . S
C881 N884 1.384 . S
C882 H873 0.929 . S
C882 C874 1.378 . S
C882 C877 1.350 . S
C883 H870 0.929 . S
C883 C875 1.433 . S
C883 N885 1.384 . S
N884 C880 1.427 . S
N884 C881 1.384 . S
N885 C877 1.427 . S
N885 C883 1.384 . S
H886 C892 0.930 . S
H887 C896 0.930 . S
H888 C901 0.929 . S
H889 C899 0.929 . S
H890 C894 0.929 . S
H891 C900 0.929 . S
C892 H886 0.930 . S
C892 C893 1.367 . S
C892 C900 1.378 . S
C893 C892 1.367 . S
C893 C901 1.433 . S
C894 H890 0.929 . S
C894 C896 1.378 . S
C894 C898 1.350 . S
C895 C898 1.463 . S
C895 C900 1.350 . S
C895 N903 1.427 . S
C896 H887 0.930 . S
C896 C894 1.378 . S
C896 C897 1.367 . S
C897 C896 1.367 . S
C897 C899 1.433 . S
C898 C894 1.350 . S
C898 C895 1.463 . S
C898 N902 1.427 . S
C899 H889 0.929 . S
C899 C897 1.433 . S
C899 N902 1.384 . S
C900 H891 0.929 . S
C900 C892 1.378 . S
C900 C895 1.350 . S
C901 H888 0.929 . S
C901 C893 1.433 . S
C901 N903 1.384 . S
N902 C898 1.427 . S
N902 C899 1.384 . S
N903 C895 1.427 . S
N903 C901 1.384 . S
H904 C910 0.930 . S
H905 C914 0.930 . S
H906 C919 0.929 . S
H907 C917 0.929 . S
H908 C912 0.929 . S
H909 C918 0.929 . S
C910 H904 0.930 . S
C910 C911 1.367 . S
C910 C918 1.378 . S
C911 C910 1.367 . S
C911 C919 1.433 . S
C912 H908 0.929 . S
C912 C914 1.378 . S
C912 C916 1.350 . S
C913 C916 1.463 . S
C913 C918 1.350 . S
C913 N921 1.427 . S
C914 H905 0.930 . S
C914 C912 1.378 . S
C914 C915 1.367 . S
C915 C914 1.367 . S
C915 C917 1.433 . S
C916 C912 1.350 . S
C916 C913 1.463 . S
C916 N920 1.427 . S
C917 H907 0.929 . S
C917 C915 1.433 . S
C917 N920 1.384 . S
C918 H909 0.929 . S
C918 C910 1.378 . S
C918 C913 1.350 . S
C919 H906 0.929 . S
C919 C911 1.433 . S
C919 N921 1.384 . S
N920 C916 1.427 . S
N920 C917 1.384 . S
N921 C913 1.427 . S
N921 C919 1.384 . S
H922 C928 0.930 1_545 S
H923 C932 0.930 . S
H924 C937 0.929 . S
H925 C935 0.929 1_545 S
H926 C930 0.929 . S
H927 C936 0.929 1_545 S
C928 H922 0.930 1_565 S
C928 C929 1.367 . S
C928 C936 1.378 . S
C929 C928 1.367 . S
C929 C937 1.433 . S
C930 H926 0.929 . S
C930 C932 1.378 . S
C930 C934 1.350 . S
C931 C934 1.463 . S
C931 C936 1.350 . S
C931 N939 1.427 . S
C932 H923 0.930 . S
C932 C930 1.378 . S
C932 C933 1.367 . S
C933 C932 1.367 . S
C933 C935 1.433 . S
C934 C930 1.350 . S
C934 C931 1.463 . S
C934 N938 1.427 . S
C935 H925 0.929 1_565 S
C935 C933 1.433 . S
C935 N938 1.384 . S
C936 H927 0.929 1_565 S
C936 C928 1.378 . S
C936 C931 1.350 . S
C937 H924 0.929 . S
C937 C929 1.433 . S
C937 N939 1.384 . S
N938 C934 1.427 . S
N938 C935 1.384 . S
N939 C931 1.427 . S
N939 C937 1.384 . S
H940 C946 0.930 . S
H941 C950 0.930 . S
H942 C955 0.929 . S
H943 C953 0.929 . S
H944 C948 0.929 . S
H945 C954 0.929 . S
C946 H940 0.930 . S
C946 C947 1.367 . S
C946 C954 1.378 . S
C947 C946 1.367 . S
C947 C955 1.433 . S
C948 H944 0.929 . S
C948 C950 1.378 . S
C948 C952 1.350 . S
C949 C952 1.463 . S
C949 C954 1.350 . S
C949 N957 1.427 . S
C950 H941 0.930 . S
C950 C948 1.378 . S
C950 C951 1.367 . S
C951 C950 1.367 . S
C951 C953 1.433 . S
C952 C948 1.350 . S
C952 C949 1.463 . S
C952 N956 1.427 . S
C953 H943 0.929 . S
C953 C951 1.433 . S
C953 N956 1.384 . S
C954 H945 0.929 . S
C954 C946 1.378 . S
C954 C949 1.350 . S
C955 H942 0.929 . S
C955 C947 1.433 . S
C955 N957 1.384 . S
N956 C952 1.427 . S
N956 C953 1.384 . S
N957 C949 1.427 . S
N957 C955 1.384 . S
H958 C964 0.930 . S
H959 C968 0.930 . S
H960 C973 0.929 . S
H961 C971 0.929 . S
H962 C966 0.929 . S
H963 C972 0.929 . S
C964 H958 0.930 . S
C964 C965 1.367 . S
C964 C972 1.378 . S
C965 C964 1.367 . S
C965 C973 1.433 . S
C966 H962 0.929 . S
C966 C968 1.378 . S
C966 C970 1.350 . S
C967 C970 1.463 . S
C967 C972 1.350 . S
C967 N975 1.427 . S
C968 H959 0.930 . S
C968 C966 1.378 . S
C968 C969 1.367 . S
C969 C968 1.367 . S
C969 C971 1.433 . S
C970 C966 1.350 . S
C970 C967 1.463 . S
C970 N974 1.427 . S
C971 H961 0.929 . S
C971 C969 1.433 . S
C971 N974 1.384 . S
C972 H963 0.929 . S
C972 C964 1.378 . S
C972 C967 1.350 . S
C973 H960 0.929 . S
C973 C965 1.433 . S
C973 N975 1.384 . S
N974 C970 1.427 . S
N974 C971 1.384 . S
N975 C967 1.427 . S
N975 C973 1.384 . S
H976 C982 0.933 . S
H977 C986 0.933 . S
H978 C991 0.929 . S
H979 C989 0.929 . S
H980 C984 0.929 . S
H981 C990 0.929 . S
C982 H976 0.933 . S
C982 C983 1.363 1_455 S
C982 C990 1.379 . S
C983 C982 1.363 1_655 S
C983 C991 1.433 . S
C984 H980 0.929 . S
C984 C986 1.379 . S
C984 C988 1.341 1_655 S
C985 C988 1.457 1_655 S
C985 C990 1.341 1_655 S
C985 N993 1.444 . S
C986 H977 0.933 . S
C986 C984 1.379 . S
C986 C987 1.363 1_655 S
C987 C986 1.363 1_455 S
C987 C989 1.433 . S
C988 C984 1.341 1_455 S
C988 C985 1.457 1_455 S
C988 N992 1.444 . S
C989 H979 0.929 . S
C989 C987 1.433 . S
C989 N992 1.384 . S
C990 H981 0.929 . S
C990 C982 1.379 . S
C990 C985 1.341 1_455 S
C991 H978 0.929 . S
C991 C983 1.433 . S
C991 N993 1.384 . S
N992 C988 1.444 . S
N992 C989 1.384 . S
N993 C985 1.444 . S
N993 C991 1.384 . S
H994 C1000 0.930 . S
H995 C1004 0.930 . S
H996 C1009 0.923 1_565 S
H997 C1007 0.923 1_545 S
H998 C1002 0.929 . S
H999 C1008 0.929 . S
C1000 H994 0.930 . S
C1000 C1001 1.367 . S
C1000 C1008 1.378 . S
C1001 C1000 1.367 . S
C1001 C1009 1.442 . S
C1002 H998 0.929 . S
C1002 C1004 1.378 . S
C1002 C1006 1.350 . S
C1003 C1006 1.463 1_545 S
C1003 C1008 1.350 . S
C1003 N1011 1.427 1_545 S
C1004 H995 0.930 . S
C1004 C1002 1.378 . S
C1004 C1005 1.367 . S
C1005 C1004 1.367 . S
C1005 C1007 1.442 . S
C1006 C1002 1.350 . S
C1006 C1003 1.463 1_565 S
C1006 N1010 1.427 1_565 S
C1007 H997 0.923 1_565 S
C1007 C1005 1.442 . S
C1007 N1010 1.380 1_565 S
C1008 H999 0.929 . S
C1008 C1000 1.378 . S
C1008 C1003 1.350 . S
C1009 H996 0.923 1_545 S
C1009 C1001 1.442 . S
C1009 N1011 1.380 1_545 S
N1010 C1006 1.427 1_545 S
N1010 C1007 1.380 1_545 S
N1011 C1003 1.427 1_565 S
N1011 C1009 1.380 1_565 S
H1012 C1018 0.930 . S
H1013 C1022 0.930 . S
H1014 C1027 0.929 . S
H1015 C1025 0.929 . S
H1016 C1020 0.929 . S
H1017 C1026 0.929 . S
C1018 H1012 0.930 . S
C1018 C1019 1.367 . S
C1018 C1026 1.378 . S
C1019 C1018 1.367 . S
C1019 C1027 1.433 . S
C1020 H1016 0.929 . S
C1020 C1022 1.378 . S
C1020 C1024 1.350 . S
C1021 C1024 1.463 . S
C1021 C1026 1.350 . S
C1021 N1029 1.427 . S
C1022 H1013 0.930 . S
C1022 C1020 1.378 . S
C1022 C1023 1.367 . S
C1023 C1022 1.367 . S
C1023 C1025 1.433 . S
C1024 C1020 1.350 . S
C1024 C1021 1.463 . S
C1024 N1028 1.427 . S
C1025 H1015 0.929 . S
C1025 C1023 1.433 . S
C1025 N1028 1.384 . S
C1026 H1017 0.929 . S
C1026 C1018 1.378 . S
C1026 C1021 1.350 . S
C1027 H1014 0.929 . S
C1027 C1019 1.433 . S
C1027 N1029 1.384 . S
N1028 C1024 1.427 . S
N1028 C1025 1.384 . S
N1029 C1021 1.427 . S
N1029 C1027 1.384 . S
H1030 C1036 0.930 . S
H1031 C1040 0.930 . S
H1032 C1045 0.929 . S
H1033 C1043 0.929 . S
H1034 C1038 0.929 . S
H1035 C1044 0.929 . S
C1036 H1030 0.930 . S
C1036 C1037 1.367 . S
C1036 C1044 1.378 . S
C1037 C1036 1.367 . S
C1037 C1045 1.433 . S
C1038 H1034 0.929 . S
C1038 C1040 1.378 . S
C1038 C1042 1.350 . S
C1039 C1042 1.463 . S
C1039 C1044 1.350 . S
C1039 N1047 1.427 . S
C1040 H1031 0.930 . S
C1040 C1038 1.378 . S
C1040 C1041 1.367 . S
C1041 C1040 1.367 . S
C1041 C1043 1.433 . S
C1042 C1038 1.350 . S
C1042 C1039 1.463 . S
C1042 N1046 1.427 . S
C1043 H1033 0.929 . S
C1043 C1041 1.433 . S
C1043 N1046 1.384 . S
C1044 H1035 0.929 . S
C1044 C1036 1.378 . S
C1044 C1039 1.350 . S
C1045 H1032 0.929 . S
C1045 C1037 1.433 . S
C1045 N1047 1.384 . S
N1046 C1042 1.427 . S
N1046 C1043 1.384 . S
N1047 C1039 1.427 . S
N1047 C1045 1.384 . S
H1048 C1054 0.930 . S
H1049 C1058 0.930 . S
H1050 C1063 0.929 . S
H1051 C1061 0.929 . S
H1052 C1056 0.929 . S
H1053 C1062 0.929 . S
C1054 H1048 0.930 . S
C1054 C1055 1.367 1_455 S
C1054 C1062 1.378 . S
C1055 C1054 1.367 1_655 S
C1055 C1063 1.433 . S
C1056 H1052 0.929 . S
C1056 C1058 1.378 . S
C1056 C1060 1.333 1_655 S
C1057 C1060 1.458 1_655 S
C1057 C1062 1.333 1_655 S
C1057 N1065 1.451 . S
C1058 H1049 0.930 . S
C1058 C1056 1.378 . S
C1058 C1059 1.367 1_655 S
C1059 C1058 1.367 1_455 S
C1059 C1061 1.433 . S
C1060 C1056 1.333 1_455 S
C1060 C1057 1.458 1_455 S
C1060 N1064 1.451 . S
C1061 H1051 0.929 . S
C1061 C1059 1.433 . S
C1061 N1064 1.384 . S
C1062 H1053 0.929 . S
C1062 C1054 1.378 . S
C1062 C1057 1.333 1_455 S
C1063 H1050 0.929 . S
C1063 C1055 1.433 . S
C1063 N1065 1.384 . S
N1064 C1060 1.451 . S
N1064 C1061 1.384 . S
N1065 C1057 1.451 . S
N1065 C1063 1.384 . S
H1066 C1072 0.930 . S
H1067 C1076 0.930 . S
H1068 C1081 0.929 . S
H1069 C1079 0.929 . S
H1070 C1074 0.929 . S
H1071 C1080 0.929 . S
C1072 H1066 0.930 . S
C1072 C1073 1.367 . S
C1072 C1080 1.378 . S
C1073 C1072 1.367 . S
C1073 C1081 1.433 1_565 S
C1074 H1070 0.929 . S
C1074 C1076 1.378 . S
C1074 C1078 1.350 . S
C1075 C1078 1.463 1_565 S
C1075 C1080 1.350 . S
C1075 N1083 1.427 1_565 S
C1076 H1067 0.930 . S
C1076 C1074 1.378 . S
C1076 C1077 1.367 . S
C1077 C1076 1.367 . S
C1077 C1079 1.433 1_545 S
C1078 C1074 1.350 . S
C1078 C1075 1.463 1_545 S
C1078 N1082 1.427 1_545 S
C1079 H1069 0.929 . S
C1079 C1077 1.433 1_565 S
C1079 N1082 1.384 . S
C1080 H1071 0.929 . S
C1080 C1072 1.378 . S
C1080 C1075 1.350 . S
C1081 H1068 0.929 . S
C1081 C1073 1.433 1_545 S
C1081 N1083 1.384 . S
N1082 C1078 1.427 1_565 S
N1082 C1079 1.384 . S
N1083 C1075 1.427 1_545 S
N1083 C1081 1.384 . S
H1084 C1090 0.930 . S
H1085 C1094 0.930 . S
H1086 C1099 0.929 . S
H1087 C1097 0.929 . S
H1088 C1092 0.929 . S
H1089 C1098 0.929 . S
C1090 H1084 0.930 . S
C1090 C1091 1.367 . S
C1090 C1098 1.378 . S
C1091 C1090 1.367 . S
C1091 C1099 1.433 . S
C1092 H1088 0.929 . S
C1092 C1094 1.378 . S
C1092 C1096 1.350 . S
C1093 C1096 1.463 . S
C1093 C1098 1.350 . S
C1093 N1101 1.427 . S
C1094 H1085 0.930 . S
C1094 C1092 1.378 . S
C1094 C1095 1.367 . S
C1095 C1094 1.367 . S
C1095 C1097 1.433 . S
C1096 C1092 1.350 . S
C1096 C1093 1.463 . S
C1096 N1100 1.427 . S
C1097 H1087 0.929 . S
C1097 C1095 1.433 . S
C1097 N1100 1.384 . S
C1098 H1089 0.929 . S
C1098 C1090 1.378 . S
C1098 C1093 1.350 . S
C1099 H1086 0.929 . S
C1099 C1091 1.433 . S
C1099 N1101 1.384 . S
N1100 C1096 1.427 . S
N1100 C1097 1.384 . S
N1101 C1093 1.427 . S
N1101 C1099 1.384 . S
H1102 C1108 0.930 . S
H1103 C1112 0.930 . S
H1104 C1117 0.929 . S
H1105 C1115 0.929 . S
H1106 C1110 0.929 . S
H1107 C1116 0.929 . S
C1108 H1102 0.930 . S
C1108 C1109 1.367 . S
C1108 C1116 1.378 . S
C1109 C1108 1.367 . S
C1109 C1117 1.433 . S
C1110 H1106 0.929 . S
C1110 C1112 1.378 . S
C1110 C1114 1.350 . S
C1111 C1114 1.463 . S
C1111 C1116 1.350 . S
C1111 N1119 1.427 . S
C1112 H1103 0.930 . S
C1112 C1110 1.378 . S
C1112 C1113 1.367 . S
C1113 C1112 1.367 . S
C1113 C1115 1.433 . S
C1114 C1110 1.350 . S
C1114 C1111 1.463 . S
C1114 N1118 1.427 . S
C1115 H1105 0.929 . S
C1115 C1113 1.433 . S
C1115 N1118 1.384 . S
C1116 H1107 0.929 . S
C1116 C1108 1.378 . S
C1116 C1111 1.350 . S
C1117 H1104 0.929 . S
C1117 C1109 1.433 . S
C1117 N1119 1.384 . S
N1118 C1114 1.427 . S
N1118 C1115 1.384 . S
N1119 C1111 1.427 . S
N1119 C1117 1.384 . S
H1120 C1126 0.930 . S
H1121 C1130 0.930 . S
H1122 C1135 0.932 . S
H1123 C1133 0.932 . S
H1124 C1128 0.929 . S
H1125 C1134 0.929 . S
C1126 H1120 0.930 . S
C1126 C1127 1.367 . S
C1126 C1134 1.378 . S
C1127 C1126 1.367 . S
C1127 C1135 1.429 1_655 S
C1128 H1124 0.929 . S
C1128 C1130 1.378 . S
C1128 C1132 1.350 . S
C1129 C1132 1.463 1_655 S
C1129 C1134 1.350 . S
C1129 N1137 1.427 1_655 S
C1130 H1121 0.930 . S
C1130 C1128 1.378 . S
C1130 C1131 1.367 . S
C1131 C1130 1.367 . S
C1131 C1133 1.429 1_455 S
C1132 C1128 1.350 . S
C1132 C1129 1.463 1_455 S
C1132 N1136 1.427 1_455 S
C1133 H1123 0.932 . S
C1133 C1131 1.429 1_655 S
C1133 N1136 1.385 . S
C1134 H1125 0.929 . S
C1134 C1126 1.378 . S
C1134 C1129 1.350 . S
C1135 H1122 0.932 . S
C1135 C1127 1.429 1_455 S
C1135 N1137 1.385 . S
N1136 C1132 1.427 1_655 S
N1136 C1133 1.385 . S
N1137 C1129 1.427 1_455 S
N1137 C1135 1.385 . S
H1138 C1144 0.930 . S
H1139 C1148 0.930 . S
H1140 C1153 0.929 . S
H1141 C1151 0.929 . S
H1142 C1146 0.929 . S
H1143 C1152 0.929 . S
C1144 H1138 0.930 . S
C1144 C1145 1.367 . S
C1144 C1152 1.378 . S
C1145 C1144 1.367 . S
C1145 C1153 1.433 . S
C1146 H1142 0.929 . S
C1146 C1148 1.378 . S
C1146 C1150 1.350 . S
C1147 C1150 1.463 1_565 S
C1147 C1152 1.350 . S
C1147 N1155 1.429 . S
C1148 H1139 0.930 . S
C1148 C1146 1.378 . S
C1148 C1149 1.367 . S
C1149 C1148 1.367 . S
C1149 C1151 1.433 . S
C1150 C1146 1.350 . S
C1150 C1147 1.463 1_545 S
C1150 N1154 1.429 . S
C1151 H1141 0.929 . S
C1151 C1149 1.433 . S
C1151 N1154 1.391 . S
C1152 H1143 0.929 . S
C1152 C1144 1.378 . S
C1152 C1147 1.350 . S
C1153 H1140 0.929 . S
C1153 C1145 1.433 . S
C1153 N1155 1.391 . S
N1154 C1150 1.429 . S
N1154 C1151 1.391 . S
N1155 C1147 1.429 . S
N1155 C1153 1.391 . S
H1156 C1162 0.930 . S
H1157 C1166 0.930 . S
H1158 C1171 0.929 . S
H1159 C1169 0.929 . S
H1160 C1164 0.929 . S
H1161 C1170 0.929 . S
C1162 H1156 0.930 . S
C1162 C1163 1.367 . S
C1162 C1170 1.378 . S
C1163 C1162 1.367 . S
C1163 C1171 1.433 . S
C1164 H1160 0.929 . S
C1164 C1166 1.378 . S
C1164 C1168 1.350 . S
C1165 C1168 1.463 . S
C1165 C1170 1.350 . S
C1165 N1173 1.427 . S
C1166 H1157 0.930 . S
C1166 C1164 1.378 . S
C1166 C1167 1.367 . S
C1167 C1166 1.367 . S
C1167 C1169 1.433 . S
C1168 C1164 1.350 . S
C1168 C1165 1.463 . S
C1168 N1172 1.427 . S
C1169 H1159 0.929 . S
C1169 C1167 1.433 . S
C1169 N1172 1.384 . S
C1170 H1161 0.929 . S
C1170 C1162 1.378 . S
C1170 C1165 1.350 . S
C1171 H1158 0.929 . S
C1171 C1163 1.433 . S
C1171 N1173 1.384 . S
N1172 C1168 1.427 . S
N1172 C1169 1.384 . S
N1173 C1165 1.427 . S
N1173 C1171 1.384 . S
H1174 C1180 0.930 . S
H1175 C1184 0.930 . S
H1176 C1189 0.929 . S
H1177 C1187 0.929 . S
H1178 C1182 0.929 . S
H1179 C1188 0.929 . S
C1180 H1174 0.930 . S
C1180 C1181 1.367 . S
C1180 C1188 1.378 . S
C1181 C1180 1.367 . S
C1181 C1189 1.433 . S
C1182 H1178 0.929 . S
C1182 C1184 1.378 . S
C1182 C1186 1.350 . S
C1183 C1186 1.463 . S
C1183 C1188 1.350 . S
C1183 N1191 1.427 . S
C1184 H1175 0.930 . S
C1184 C1182 1.378 . S
C1184 C1185 1.367 . S
C1185 C1184 1.367 . S
C1185 C1187 1.433 . S
C1186 C1182 1.350 . S
C1186 C1183 1.463 . S
C1186 N1190 1.427 . S
C1187 H1177 0.929 . S
C1187 C1185 1.433 . S
C1187 N1190 1.384 . S
C1188 H1179 0.929 . S
C1188 C1180 1.378 . S
C1188 C1183 1.350 . S
C1189 H1176 0.929 . S
C1189 C1181 1.433 . S
C1189 N1191 1.384 . S
N1190 C1186 1.427 . S
N1190 C1187 1.384 . S
N1191 C1183 1.427 . S
N1191 C1189 1.384 . S
H1192 C1198 0.930 . S
H1193 C1202 0.930 . S
H1194 C1207 0.929 . S
H1195 C1205 0.929 . S
H1196 C1200 0.929 . S
H1197 C1206 0.929 . S
C1198 H1192 0.930 . S
C1198 C1199 1.367 . S
C1198 C1206 1.378 . S
C1199 C1198 1.367 . S
C1199 C1207 1.433 1_455 S
C1200 H1196 0.929 . S
C1200 C1202 1.378 . S
C1200 C1204 1.350 . S
C1201 C1204 1.463 1_455 S
C1201 C1206 1.350 . S
C1201 N1209 1.427 1_455 S
C1202 H1193 0.930 . S
C1202 C1200 1.378 . S
C1202 C1203 1.367 . S
C1203 C1202 1.367 . S
C1203 C1205 1.433 1_655 S
C1204 C1200 1.350 . S
C1204 C1201 1.463 1_655 S
C1204 N1208 1.427 1_655 S
C1205 H1195 0.929 . S
C1205 C1203 1.433 1_455 S
C1205 N1208 1.384 . S
C1206 H1197 0.929 . S
C1206 C1198 1.378 . S
C1206 C1201 1.350 . S
C1207 H1194 0.929 . S
C1207 C1199 1.433 1_655 S
C1207 N1209 1.384 . S
N1208 C1204 1.427 1_455 S
N1208 C1205 1.384 . S
N1209 C1201 1.427 1_655 S
N1209 C1207 1.384 . S
H1210 C1216 0.930 . S
H1211 C1220 0.930 . S
H1212 C1225 0.929 . S
H1213 C1223 0.929 . S
H1214 C1218 0.929 . S
H1215 C1224 0.929 . S
C1216 H1210 0.930 . S
C1216 C1217 1.367 1_565 S
C1216 C1224 1.378 . S
C1217 C1216 1.367 1_545 S
C1217 C1225 1.433 . S
C1218 H1214 0.929 . S
C1218 C1220 1.378 . S
C1218 C1222 1.328 1_545 S
C1219 C1222 1.460 1_545 S
C1219 C1224 1.327 1_545 S
C1219 N1227 1.455 . S
C1220 H1211 0.930 . S
C1220 C1218 1.378 . S
C1220 C1221 1.367 1_545 S
C1221 C1220 1.367 1_565 S
C1221 C1223 1.433 . S
C1222 C1218 1.328 1_565 S
C1222 C1219 1.460 1_565 S
C1222 N1226 1.454 . S
C1223 H1213 0.929 . S
C1223 C1221 1.433 . S
C1223 N1226 1.384 . S
C1224 H1215 0.929 . S
C1224 C1216 1.378 . S
C1224 C1219 1.327 1_565 S
C1225 H1212 0.929 . S
C1225 C1217 1.433 . S
C1225 N1227 1.384 . S
N1226 C1222 1.454 . S
N1226 C1223 1.384 . S
N1227 C1219 1.455 . S
N1227 C1225 1.384 . S
H1228 C1234 0.930 . S
H1229 C1238 0.930 . S
H1230 C1243 0.929 . S
H1231 C1241 0.929 . S
H1232 C1236 0.929 . S
H1233 C1242 0.929 . S
C1234 H1228 0.930 . S
C1234 C1235 1.367 . S
C1234 C1242 1.378 . S
C1235 C1234 1.367 . S
C1235 C1243 1.433 . S
C1236 H1232 0.929 . S
C1236 C1238 1.378 . S
C1236 C1240 1.350 . S
C1237 C1240 1.463 . S
C1237 C1242 1.350 . S
C1237 N1245 1.427 . S
C1238 H1229 0.930 . S
C1238 C1236 1.378 . S
C1238 C1239 1.367 . S
C1239 C1238 1.367 . S
C1239 C1241 1.433 . S
C1240 C1236 1.350 . S
C1240 C1237 1.463 . S
C1240 N1244 1.427 . S
C1241 H1231 0.929 . S
C1241 C1239 1.433 . S
C1241 N1244 1.384 . S
C1242 H1233 0.929 . S
C1242 C1234 1.378 . S
C1242 C1237 1.350 . S
C1243 H1230 0.929 . S
C1243 C1235 1.433 . S
C1243 N1245 1.384 . S
N1244 C1240 1.427 . S
N1244 C1241 1.384 . S
N1245 C1237 1.427 . S
N1245 C1243 1.384 . S
H1246 C1252 0.930 . S
H1247 C1256 0.930 . S
H1248 C1261 0.929 . S
H1249 C1259 0.929 . S
H1250 C1254 0.929 . S
H1251 C1260 0.929 . S
C1252 H1246 0.930 . S
C1252 C1253 1.367 . S
C1252 C1260 1.378 . S
C1253 C1252 1.367 . S
C1253 C1261 1.433 . S
C1254 H1250 0.929 . S
C1254 C1256 1.378 . S
C1254 C1258 1.350 . S
C1255 C1258 1.463 . S
C1255 C1260 1.350 . S
C1255 N1263 1.427 . S
C1256 H1247 0.930 . S
C1256 C1254 1.378 . S
C1256 C1257 1.367 . S
C1257 C1256 1.367 . S
C1257 C1259 1.433 . S
C1258 C1254 1.350 . S
C1258 C1255 1.463 . S
C1258 N1262 1.427 . S
C1259 H1249 0.929 . S
C1259 C1257 1.433 . S
C1259 N1262 1.384 . S
C1260 H1251 0.929 . S
C1260 C1252 1.378 . S
C1260 C1255 1.350 . S
C1261 H1248 0.929 . S
C1261 C1253 1.433 . S
C1261 N1263 1.384 . S
N1262 C1258 1.427 . S
N1262 C1259 1.384 . S
N1263 C1255 1.427 . S
N1263 C1261 1.384 . S
C551 C2 1.721 . S
C555 C512 1.721 . S
C569 C36 1.721 . S
C573 C410 1.722 . S
C587 C444 1.722 . S
C591 C70 1.721 . S
C605 C104 1.721 . S
C609 C478 1.721 . S
C623 C308 1.721 . S
C627 C138 1.722 . S
C641 C342 1.721 . S
C645 C172 1.721 . S
C659 C376 1.721 . S
C663 C206 1.721 . S
C677 C274 1.722 . S
C681 C240 1.721 . S
C695 C33 1.259 . S
C699 C271 1.261 . S
C713 C67 1.260 . S
C717 C169 1.260 . S
C731 C101 1.250 . S
C735 C203 1.255 . S
C749 C135 1.259 . S
C753 C237 1.253 . S
C767 C543 1.260 . S
C771 C305 1.254 . S
C785 C441 1.261 . S
C789 C339 1.259 . S
C803 C475 1.251 . S
C807 C373 1.250 . S
C821 C407 1.257 . S
C825 C509 1.251 . S
C839 C20 1.564 . S
C843 C156 1.560 . S
C857 C190 1.564 . S
C861 C54 1.558 . S
C875 C224 1.564 . S
C879 C88 1.560 . S
C893 C122 1.559 . S
C897 C258 1.564 . S
C911 C428 1.560 . S
C915 C292 1.564 . S
C929 C326 1.556 . S
C933 C462 1.562 . S
C947 C360 1.556 . S
C951 C496 1.562 . S
C965 C530 1.564 . S
C969 C394 1.559 . S
C983 C5 1.252 . S
C987 C9 1.228 . S
C1001 C43 1.225 1_554 S
C1005 C39 1.258 . S
C1019 C73 1.252 . S
C1023 C77 1.226 . S
C1037 C111 1.233 1_554 S
C1041 C107 1.253 . S
C1055 C141 1.252 . S
C1059 C145 1.230 1_556 S
C1073 C175 1.253 . S
C1077 C179 1.221 . S
C1091 C209 1.254 . S
C1095 C213 1.234 1_556 S
C1109 C243 1.255 . S
C1113 C247 1.218 . S
C1127 C281 1.225 . S
C1131 C277 1.258 . S
C1145 C315 1.226 1_556 S
C1149 C311 1.258 . S
C1163 C349 1.222 . S
C1167 C345 1.258 . S
C1181 C383 1.234 1_556 S
C1185 C379 1.255 . S
C1199 C413 1.254 . S
C1203 C417 1.219 1_554 S
C1217 C447 1.253 . S
C1221 C451 1.232 . S
C1235 C485 1.230 1_554 S
C1239 C481 1.252 . S
C1253 C519 1.220 . S
C1257 C515 1.254 . S
