# Generated by pormake.
# Topology uoj, (4)-cn, num edge types: 1
# Building blocks:
#     Node 0, Type 0, BuildingBlock: QUQFOY_clean_sbu_1, # of connection points: 4
#     Node 1, Type 0, BuildingBlock: QUQFOY_clean_sbu_1, # of connection points: 4
#     Node 2, Type 0, BuildingBlock: QUQFOY_clean_sbu_1, # of connection points: 4
#     Node 3, Type 0, BuildingBlock: QUQFOY_clean_sbu_1, # of connection points: 4
#     Node 4, Type 0, BuildingBlock: QUQFOY_clean_sbu_1, # of connection points: 4
#     Node 5, Type 0, BuildingBlock: QUQFOY_clean_sbu_1, # of connection points: 4
#     Node 6, Type 0, BuildingBlock: QUQFOY_clean_sbu_1, # of connection points: 4
#     Node 7, Type 0, BuildingBlock: QUQFOY_clean_sbu_1, # of connection points: 4
#     Edge 8, Type (0, 0), BuildingBlock: MIFKUJ_clean_linker_0, # of connection points: 2
#     Edge 9, Type (0, 0), BuildingBlock: MIFKUJ_clean_linker_0, # of connection points: 2
#     Edge 10, Type (0, 0), BuildingBlock: MIFKUJ_clean_linker_0, # of connection points: 2
#     Edge 11, Type (0, 0), BuildingBlock: MIFKUJ_clean_linker_0, # of connection points: 2
#     Edge 12, Type (0, 0), BuildingBlock: MIFKUJ_clean_linker_0, # of connection points: 2
#     Edge 13, Type (0, 0), BuildingBlock: MIFKUJ_clean_linker_0, # of connection points: 2
#     Edge 14, Type (0, 0), BuildingBlock: MIFKUJ_clean_linker_0, # of connection points: 2
#     Edge 15, Type (0, 0), BuildingBlock: MIFKUJ_clean_linker_0, # of connection points: 2
#     Edge 16, Type (0, 0), BuildingBlock: MIFKUJ_clean_linker_0, # of connection points: 2
#     Edge 17, Type (0, 0), BuildingBlock: MIFKUJ_clean_linker_0, # of connection points: 2
#     Edge 18, Type (0, 0), BuildingBlock: MIFKUJ_clean_linker_0, # of connection points: 2
#     Edge 19, Type (0, 0), BuildingBlock: MIFKUJ_clean_linker_0, # of connection points: 2
#     Edge 20, Type (0, 0), BuildingBlock: MIFKUJ_clean_linker_0, # of connection points: 2
#     Edge 21, Type (0, 0), BuildingBlock: MIFKUJ_clean_linker_0, # of connection points: 2
#     Edge 22, Type (0, 0), BuildingBlock: MIFKUJ_clean_linker_0, # of connection points: 2
#     Edge 23, Type (0, 0), BuildingBlock: MIFKUJ_clean_linker_0, # of connection points: 2
# Relax obj value: 0.060
# Max RMSD: 0.098
# Mean RMSD: 0.098
data_MOF--net-uoj--node1-QUQFOY_clean_sbu_1--edge1-MIFKUJ_clean_linker_0
_symmetry_space_group_name_H-M    P1
_symmetry_Int_Tables_number       1
_symmetry_cell_setting            triclinic
loop_
_symmetry_equiv_pos_as_xyz
'x, y, z'
_cell_length_a     41.323358
_cell_length_b     41.330766
_cell_length_c     55.854466
_cell_angle_alpha  89.990836
_cell_angle_beta   89.966598
_cell_angle_gamma 90.01828
loop_
_atom_site_label
_atom_site_type_symbol
_atom_site_fract_x
_atom_site_fract_y
_atom_site_fract_z
_atom_type_partial_charge
O0 O 0.04943 0.26678 0.45261 0.0
Cd1 Cd 0.09448 0.28629 0.44739 0.0
Cd2 Cd 0.07462 0.28378 0.40174 0.0
O3 O 0.03703 0.25576 0.41511 0.0
O4 O 0.1181 0.27581 0.47737 0.0
O5 O 0.1314 0.25567 0.44197 0.0
C6 C 0.13582 0.25645 0.46488 0.0
C7 C 0.10152 0.27283 0.36578 0.0
C8 C 0.03024 0.25459 0.43732 0.0
C9 C 0.08154 0.34932 0.42569 0.0
O10 O 0.07083 0.33257 0.40834 0.0
O11 O 0.09529 0.33569 0.44334 0.0
O12 O 0.07162 0.28168 0.36618 0.0
O13 O 0.11573 0.26794 0.38606 0.0
O14 O 0.26614 0.9487 0.55596 0.0
Cd15 Cd 0.28451 0.90305 0.56025 0.0
Cd16 Cd 0.28814 0.92434 0.60611 0.0
O17 O 0.26017 0.96262 0.5938 0.0
O18 O 0.27194 0.8812 0.52996 0.0
O19 O 0.25283 0.86676 0.56539 0.0
C20 C 0.25255 0.86346 0.54238 0.0
C21 C 0.27996 0.89903 0.6431 0.0
C22 C 0.25653 0.96876 0.57163 0.0
C23 C 0.35035 0.91368 0.57839 0.0
O24 O 0.33622 0.92563 0.59656 0.0
O25 O 0.33411 0.90034 0.56181 0.0
O26 O 0.28979 0.92856 0.64163 0.0
O27 O 0.27259 0.88432 0.62343 0.0
O28 O 0.94682 0.73514 0.44283 0.0
Cd29 Cd 0.90277 0.71408 0.4366 0.0
Cd30 Cd 0.92625 0.71512 0.39169 0.0
O31 O 0.96169 0.74525 0.40569 0.0
O32 O 0.87971 0.72262 0.46713 0.0
O33 O 0.86463 0.74374 0.43251 0.0
C34 C 0.86114 0.74206 0.45547 0.0
C35 C 0.8997 0.72432 0.35539 0.0
C36 C 0.96666 0.74755 0.42811 0.0
C37 C 0.91954 0.65058 0.41664 0.0
O38 O 0.93164 0.66675 0.39947 0.0
O39 O 0.90359 0.66465 0.43305 0.0
O40 O 0.93005 0.71719 0.35616 0.0
O41 O 0.88467 0.72833 0.37548 0.0
O42 O 0.73919 0.04624 0.55639 0.0
Cd43 Cd 0.71643 0.08962 0.56194 0.0
Cd44 Cd 0.71857 0.06772 0.60682 0.0
O45 O 0.74992 0.03281 0.59372 0.0
O46 O 0.72534 0.11343 0.53174 0.0
O47 O 0.74437 0.12881 0.56696 0.0
C48 C 0.74348 0.13263 0.544 0.0
C49 C 0.72659 0.09625 0.64244 0.0
C50 C 0.75224 0.02721 0.57139 0.0
C51 C 0.65375 0.0703 0.58172 0.0
O52 O 0.67057 0.05977 0.59909 0.0
O53 O 0.66696 0.08657 0.56506 0.0
O54 O 0.72014 0.06573 0.64242 0.0
O55 O 0.73065 0.11033 0.62198 0.0
O56 O 0.4484 0.76325 0.9511 0.0
Cd57 Cd 0.40298 0.7831 0.95019 0.0
Cd58 Cd 0.42331 0.79059 0.90224 0.0
O59 O 0.46241 0.76261 0.91298 0.0
O60 O 0.38732 0.77111 0.98269 0.0
O61 O 0.36465 0.75282 0.94958 0.0
C62 C 0.36636 0.75251 0.97267 0.0
C63 C 0.39982 0.785 0.86422 0.0
C64 C 0.46844 0.7559 0.93475 0.0
C65 C 0.41265 0.85035 0.93345 0.0
O66 O 0.42313 0.83771 0.91421 0.0
O67 O 0.40109 0.83281 0.95006 0.0
O68 O 0.42857 0.79643 0.867 0.0
O69 O 0.38479 0.77486 0.88308 0.0
O70 O 0.75919 0.55372 0.0518 0.0
Cd71 Cd 0.78394 0.59587 0.05772 0.0
Cd72 Cd 0.78015 0.57468 0.10263 0.0
O73 O 0.74683 0.54182 0.08917 0.0
O74 O 0.77576 0.62122 0.02814 0.0
O75 O 0.75705 0.63531 0.06381 0.0
C76 C 0.75782 0.64 0.04093 0.0
C77 C 0.77329 0.60382 0.13812 0.0
C78 C 0.7445 0.53599 0.06686 0.0
C79 C 0.84538 0.57414 0.07812 0.0
O80 O 0.82786 0.56427 0.09534 0.0
O81 O 0.83315 0.59087 0.06132 0.0
O82 O 0.77759 0.57291 0.13822 0.0
O83 O 0.77067 0.61806 0.11761 0.0
O84 O 0.53833 0.23915 0.93801 0.0
Cd85 Cd 0.58253 0.21664 0.9398 0.0
Cd86 Cd 0.56675 0.20349 0.89286 0.0
O87 O 0.52597 0.23088 0.9 0.0
O88 O 0.5999 0.23278 0.97076 0.0
O89 O 0.6221 0.24453 0.93579 0.0
C90 C 0.62135 0.2485 0.95873 0.0
C91 C 0.59527 0.20846 0.8568 0.0
C92 C 0.51917 0.24252 0.92045 0.0
C93 C 0.57228 0.1474 0.92753 0.0
O94 O 0.56559 0.15752 0.90663 0.0
O95 O 0.58138 0.16701 0.9437 0.0
O96 O 0.56667 0.19608 0.85763 0.0
O97 O 0.60739 0.21948 0.8765 0.0
O98 O 0.23996 0.44725 0.06463 0.0
Cd99 Cd 0.2157 0.40384 0.06341 0.0
Cd100 Cd 0.20903 0.42061 0.11228 0.0
O101 O 0.23812 0.45952 0.10309 0.0
O102 O 0.2262 0.38987 0.03023 0.0
O103 O 0.24191 0.36264 0.06218 0.0
C104 C 0.24237 0.3662 0.03921 0.0
C105 C 0.21553 0.39303 0.14862 0.0
C106 C 0.24706 0.46601 0.08184 0.0
C107 C 0.14869 0.41559 0.08129 0.0
O108 O 0.1617 0.42302 0.10115 0.0
O109 O 0.16583 0.40572 0.06387 0.0
O110 O 0.20485 0.42228 0.1478 0.0
O111 O 0.22424 0.37972 0.1287 0.0
H112 H 0.19819 0.4156 0.19257 0.0
H113 H 0.19029 0.3848 0.22917 0.0
H114 H 0.22353 0.29829 0.19361 0.0
H115 H 0.23079 0.32909 0.15642 0.0
H116 H 0.17029 0.28561 0.21684 0.0
H117 H 0.26911 0.33431 0.23869 0.0
H118 H 0.30941 0.37782 0.2435 0.0
H119 H 0.24575 0.42776 0.29173 0.0
H120 H 0.20485 0.38479 0.28697 0.0
H121 H 0.16666 0.26344 0.35864 0.0
H122 H 0.19682 0.2715 0.32129 0.0
H123 H 0.10734 0.29061 0.28411 0.0
H124 H 0.07724 0.28185 0.32095 0.0
H125 H 0.20256 0.32474 0.29732 0.0
H126 H 0.11099 0.27498 0.22639 0.0
H127 H 0.07436 0.22833 0.22166 0.0
H128 H 0.13122 0.17364 0.27165 0.0
H129 H 0.16848 0.21977 0.27644 0.0
C130 C 0.20434 0.39013 0.19254 0.0
C131 C 0.21511 0.37482 0.17151 0.0
C132 C 0.19998 0.37252 0.21361 0.0
C133 C 0.20665 0.33922 0.21433 0.0
C134 C 0.2183 0.32397 0.19354 0.0
C135 C 0.22258 0.34163 0.17232 0.0
C136 C 0.19889 0.32033 0.23631 0.0
C137 C 0.17764 0.29392 0.23443 0.0
C138 C 0.20926 0.33043 0.2593 0.0
C139 C 0.23385 0.35632 0.26239 0.0
C140 C 0.26362 0.35465 0.25023 0.0
C141 C 0.28658 0.37922 0.25296 0.0
C142 C 0.28013 0.40554 0.2679 0.0
C143 C 0.25072 0.40733 0.28018 0.0
C144 C 0.22766 0.38284 0.2775 0.0
C145 C 0.15339 0.26851 0.34235 0.0
C146 C 0.11953 0.27206 0.3428 0.0
C147 C 0.17068 0.27328 0.32103 0.0
C148 C 0.15442 0.28149 0.29977 0.0
C149 C 0.12051 0.28366 0.30007 0.0
C150 C 0.10327 0.27882 0.32127 0.0
C151 C 0.17262 0.29114 0.27786 0.0
C152 C 0.19579 0.31588 0.27974 0.0
C153 C 0.16459 0.27899 0.2549 0.0
C154 C 0.14247 0.25095 0.25185 0.0
C155 C 0.11583 0.25294 0.23626 0.0
C156 C 0.09491 0.22659 0.23359 0.0
C157 C 0.10042 0.19806 0.24637 0.0
C158 C 0.12692 0.19579 0.26181 0.0
C159 C 0.14792 0.22205 0.26453 0.0
H160 H 0.08418 0.1777 0.2443 0.0
H161 H 0.29794 0.42455 0.26998 0.0
H162 H 0.28811 0.92551 0.68735 0.0
H163 H 0.30008 0.89727 0.72461 0.0
H164 H 0.28664 0.80552 0.6892 0.0
H165 H 0.27491 0.83376 0.65157 0.0
H166 H 0.27171 0.8551 0.75433 0.0
H167 H 0.34679 0.75448 0.70993 0.0
H168 H 0.37638 0.74396 0.67231 0.0
H169 H 0.39307 0.84582 0.66342 0.0
H170 H 0.36398 0.85686 0.70112 0.0
H171 H 0.3381 0.76607 0.85199 0.0
H172 H 0.31038 0.77559 0.8138 0.0
H173 H 0.39743 0.81831 0.78508 0.0
H174 H 0.42533 0.80804 0.82263 0.0
H175 H 0.36951 0.7856 0.75146 0.0
H176 H 0.33411 0.86423 0.81041 0.0
H177 H 0.30929 0.8815 0.84851 0.0
H178 H 0.22052 0.83431 0.82904 0.0
H179 H 0.24499 0.81644 0.79093 0.0
C180 C 0.28706 0.89932 0.68753 0.0
C181 C 0.28086 0.88189 0.66641 0.0
C182 C 0.29381 0.88319 0.70893 0.0
C183 C 0.29472 0.84926 0.70966 0.0
C184 C 0.28646 0.83172 0.68898 0.0
C185 C 0.27958 0.8479 0.66752 0.0
C186 C 0.30725 0.8328 0.73147 0.0
C187 C 0.2928 0.8395 0.75367 0.0
C188 C 0.33508 0.81284 0.73072 0.0
C189 C 0.35282 0.80648 0.70813 0.0
C190 C 0.35682 0.77459 0.69994 0.0
C191 C 0.37351 0.76855 0.67862 0.0
C192 C 0.38647 0.79422 0.66543 0.0
C193 C 0.38289 0.82597 0.67359 0.0
C194 C 0.36628 0.83213 0.69491 0.0
C195 C 0.35146 0.77695 0.83737 0.0
C196 C 0.38387 0.7865 0.84044 0.0
C197 C 0.33553 0.78256 0.81558 0.0
C198 C 0.35161 0.79819 0.79662 0.0
C199 C 0.38441 0.80623 0.79936 0.0
C200 C 0.40035 0.80042 0.82096 0.0
C201 C 0.33426 0.80826 0.77444 0.0
C202 C 0.34784 0.8004 0.75212 0.0
C203 C 0.30618 0.82793 0.77515 0.0
C204 C 0.29148 0.83868 0.798 0.0
C205 C 0.30937 0.85736 0.81435 0.0
C206 C 0.29537 0.86728 0.83592 0.0
C207 C 0.26338 0.85892 0.84123 0.0
C208 C 0.24532 0.8407 0.82493 0.0
C209 C 0.25923 0.83068 0.80335 0.0
H210 H 0.25258 0.86662 0.85793 0.0
H211 H 0.39936 0.78949 0.64892 0.0
H212 H 0.92583 0.7282 0.31071 0.0
H213 H 0.89895 0.71738 0.27266 0.0
H214 H 0.80774 0.70673 0.30949 0.0
H215 H 0.83446 0.71851 0.34762 0.0
H216 H 0.87369 0.66277 0.26125 0.0
H217 H 0.74472 0.71738 0.27014 0.0
H218 H 0.7182 0.76531 0.28768 0.0
H219 H 0.80718 0.81856 0.28264 0.0
H220 H 0.83411 0.77113 0.26477 0.0
H221 H 0.77299 0.57999 0.18363 0.0
H222 H 0.78791 0.6086 0.2202 0.0
H223 H 0.79472 0.69799 0.18072 0.0
H224 H 0.77938 0.66951 0.14391 0.0
H225 H 0.77161 0.70702 0.22788 0.0
H226 H 0.86076 0.65659 0.18735 0.0
H227 H 0.88936 0.61146 0.16768 0.0
H228 H 0.88535 0.55641 0.23282 0.0
H229 H 0.85624 0.60104 0.25277 0.0
C230 C 0.8999 0.72435 0.31066 0.0
C231 C 0.88231 0.72404 0.3322 0.0
C232 C 0.88455 0.71805 0.28888 0.0
C233 C 0.8513 0.71105 0.28812 0.0
C234 C 0.83332 0.71244 0.30948 0.0
C235 C 0.84865 0.71914 0.33131 0.0
C236 C 0.83648 0.6989 0.26552 0.0
C237 C 0.85143 0.67266 0.254 0.0
C238 C 0.80754 0.71178 0.2558 0.0
C239 C 0.7915 0.74056 0.26633 0.0
C240 C 0.75859 0.73936 0.27269 0.0
C241 C 0.7435 0.76643 0.28271 0.0
C242 C 0.76102 0.79493 0.28634 0.0
C243 C 0.79367 0.79644 0.2799 0.0
C244 C 0.80887 0.76944 0.26987 0.0
C245 C 0.77689 0.60588 0.18276 0.0
C246 C 0.77542 0.62239 0.16078 0.0
C247 C 0.78544 0.6222 0.20371 0.0
C248 C 0.79301 0.6553 0.20309 0.0
C249 C 0.78906 0.67243 0.18158 0.0
C250 C 0.78033 0.65609 0.16055 0.0
C251 C 0.80867 0.6708 0.22411 0.0
C252 C 0.7939 0.69742 0.23526 0.0
C253 C 0.8382 0.65877 0.23333 0.0
C254 C 0.85608 0.63204 0.22149 0.0
C255 C 0.86579 0.63477 0.19743 0.0
C256 C 0.8821 0.6093 0.18623 0.0
C257 C 0.8891 0.58106 0.19898 0.0
C258 C 0.87987 0.57828 0.22296 0.0
C259 C 0.86348 0.60367 0.23423 0.0
H260 H 0.90173 0.56136 0.19028 0.0
H261 H 0.74929 0.81586 0.29411 0.0
H262 H 0.65821 0.22764 0.84917 0.0
H263 H 0.69017 0.22093 0.81244 0.0
H264 H 0.60708 0.17941 0.77719 0.0
H265 H 0.5751 0.18666 0.81332 0.0
H266 H 0.70725 0.16777 0.79026 0.0
H267 H 0.60646 0.19269 0.7192 0.0
H268 H 0.56055 0.23001 0.71363 0.0
H269 H 0.60508 0.29864 0.761 0.0
H270 H 0.65149 0.26196 0.76659 0.0
H271 H 0.71888 0.0725 0.68758 0.0
H272 H 0.70765 0.10281 0.72394 0.0
H273 H 0.72049 0.19247 0.68551 0.0
H274 H 0.73106 0.16205 0.64865 0.0
H275 H 0.66667 0.19475 0.70911 0.0
H276 H 0.77367 0.16939 0.73095 0.0
H277 H 0.82249 0.13598 0.73654 0.0
H278 H 0.77183 0.07649 0.78724 0.0
H279 H 0.72254 0.10924 0.78172 0.0
C280 C 0.64665 0.21764 0.83343 0.0
C281 C 0.61408 0.20775 0.83418 0.0
C282 C 0.66497 0.21369 0.81249 0.0
C283 C 0.65099 0.19999 0.79191 0.0
C284 C 0.61832 0.1907 0.79258 0.0
C285 C 0.60005 0.1947 0.81338 0.0
C286 C 0.67069 0.19307 0.77017 0.0
C287 C 0.6986 0.17397 0.77251 0.0
C288 C 0.66008 0.20202 0.74699 0.0
C289 C 0.63243 0.22446 0.74339 0.0
C290 C 0.60659 0.21584 0.7283 0.0
C291 C 0.58044 0.23686 0.72517 0.0
C292 C 0.57987 0.26665 0.73698 0.0
C293 C 0.6055 0.27552 0.75191 0.0
C294 C 0.63173 0.2546 0.75508 0.0
C295 C 0.72 0.09866 0.68689 0.0
C296 C 0.72574 0.11483 0.66514 0.0
C297 C 0.71375 0.11603 0.70782 0.0
C298 C 0.71343 0.15001 0.70762 0.0
C299 C 0.72062 0.16628 0.68615 0.0
C300 C 0.72682 0.14885 0.66511 0.0
C301 C 0.70223 0.16801 0.72919 0.0
C302 C 0.67583 0.18915 0.72683 0.0
C303 C 0.71471 0.16155 0.75232 0.0
C304 C 0.74433 0.14175 0.75583 0.0
C305 C 0.77286 0.14907 0.74319 0.0
C306 C 0.80063 0.13025 0.74636 0.0
C307 C 0.80025 0.10411 0.76222 0.0
C308 C 0.7721 0.09677 0.77497 0.0
C309 C 0.74424 0.11549 0.77186 0.0
H310 H 0.82178 0.08957 0.76464 0.0
H311 H 0.55958 0.28288 0.73456 0.0
H312 H 0.24217 0.0227 0.59861 0.0
H313 H 0.22618 0.07623 0.58369 0.0
H314 H 0.22602 0.0395 0.51142 0.0
H315 H 0.24197 0.98641 0.52597 0.0
H316 H 0.25951 0.09589 0.51487 0.0
H317 H 0.15598 0.05315 0.54092 0.0
H318 H 0.1178 0.03035 0.5704 0.0
H319 H 0.12929 0.11444 0.61474 0.0
H320 H 0.16788 0.13755 0.58564 0.0
H321 H 0.16656 0.20422 0.44528 0.0
H322 H 0.19305 0.16019 0.46679 0.0
H323 H 0.18018 0.21147 0.53341 0.0
H324 H 0.153 0.2553 0.51206 0.0
H325 H 0.15823 0.1524 0.5376 0.0
H326 H 0.25641 0.1985 0.50914 0.0
H327 H 0.29448 0.22161 0.47975 0.0
H328 H 0.29413 0.13234 0.44045 0.0
H329 H 0.25569 0.10882 0.46941 0.0
C330 C 0.23832 0.02596 0.57958 0.0
C331 C 0.24346 0.00027 0.5635 0.0
C332 C 0.22927 0.05656 0.57109 0.0
C333 C 0.2251 0.06184 0.54642 0.0
C334 C 0.22942 0.03604 0.53048 0.0
C335 C 0.23839 0.00561 0.5389 0.0
C336 C 0.21669 0.09421 0.53683 0.0
C337 C 0.23728 0.10823 0.51972 0.0
C338 C 0.18828 0.11077 0.5438 0.0
C339 C 0.1651 0.09688 0.56126 0.0
C340 C 0.15058 0.06664 0.55706 0.0
C341 C 0.12882 0.05369 0.57368 0.0
C342 C 0.12121 0.07088 0.59447 0.0
C343 C 0.13526 0.10111 0.59865 0.0
C344 C 0.15706 0.11416 0.5821 0.0
C345 C 0.17007 0.20651 0.46442 0.0
C346 C 0.15751 0.23316 0.47697 0.0
C347 C 0.1853 0.18131 0.47672 0.0
C348 C 0.18868 0.18251 0.50175 0.0
C349 C 0.17774 0.20995 0.51413 0.0
C350 C 0.16233 0.23505 0.50186 0.0
C351 C 0.20067 0.15384 0.51512 0.0
C352 C 0.18077 0.14047 0.53298 0.0
C353 C 0.22979 0.13794 0.50888 0.0
C354 C 0.25296 0.15197 0.49139 0.0
C355 C 0.26425 0.18387 0.49414 0.0
C356 C 0.28594 0.19703 0.47757 0.0
C357 C 0.29667 0.17847 0.45822 0.0
C358 C 0.28579 0.14669 0.45544 0.0
C359 C 0.26408 0.13341 0.47195 0.0
H360 H 0.31346 0.18871 0.44541 0.0
H361 H 0.10435 0.06082 0.60731 0.0
H362 H 0.19867 0.83533 0.56179 0.0
H363 H 0.15341 0.81121 0.54005 0.0
H364 H 0.20576 0.82184 0.47363 0.0
H365 H 0.25075 0.84668 0.49519 0.0
H366 H 0.14788 0.84651 0.46922 0.0
H367 H 0.18939 0.74634 0.49838 0.0
H368 H 0.20989 0.70752 0.52826 0.0
H369 H 0.11946 0.71185 0.566 0.0
H370 H 0.09854 0.75106 0.53654 0.0
H371 H 0.02211 0.76371 0.40357 0.0
H372 H 0.07399 0.78062 0.42089 0.0
H373 H 0.03116 0.78037 0.49135 0.0
H374 H 0.97965 0.76344 0.47436 0.0
H375 H 0.08743 0.74691 0.49049 0.0
H376 H 0.04827 0.85065 0.46303 0.0
H377 H 0.0279 0.88939 0.43303 0.0
H378 H 0.11469 0.87739 0.39166 0.0
H379 H 0.13541 0.83824 0.42129 0.0
C380 C 0.20087 0.8318 0.54264 0.0
C381 C 0.22821 0.84306 0.5302 0.0
C382 C 0.17497 0.81796 0.53021 0.0
C383 C 0.17616 0.81467 0.50517 0.0
C384 C 0.20421 0.82428 0.49291 0.0
C385 C 0.22998 0.83834 0.50529 0.0
C386 C 0.14714 0.80398 0.49162 0.0
C387 C 0.13504 0.82436 0.47357 0.0
C388 C 0.12999 0.77545 0.49756 0.0
C389 C 0.14249 0.75186 0.51534 0.0
C390 C 0.17395 0.73922 0.51316 0.0
C391 C 0.18564 0.7171 0.53 0.0
C392 C 0.16602 0.70728 0.54904 0.0
C393 C 0.13464 0.7195 0.55125 0.0
C394 C 0.12284 0.74165 0.53447 0.0
C395 C 0.02365 0.76779 0.42269 0.0
C396 C 0.9968 0.76205 0.43759 0.0
C397 C 0.0533 0.77736 0.43257 0.0
C398 C 0.05645 0.78155 0.45744 0.0
C399 C 0.02936 0.77695 0.47216 0.0
C400 C -0.00013 0.7674 0.46236 0.0
C401 C 0.08805 0.78969 0.46846 0.0
C402 C 0.10057 0.76882 0.486 0.0
C403 C 0.10564 0.8177 0.46202 0.0
C404 C 0.09321 0.84124 0.44423 0.0
C405 C 0.06289 0.85606 0.44743 0.0
C406 C 0.05131 0.87813 0.43052 0.0
C407 C 0.06995 0.88577 0.41041 0.0
C408 C 0.10025 0.87141 0.40722 0.0
C409 C 0.11193 0.84929 0.42407 0.0
H410 H 0.06094 0.90287 0.39734 0.0
H411 H 0.17511 0.69014 0.56206 0.0
H412 H 0.76485 0.01148 0.52505 0.0
H413 H 0.78008 0.95885 0.50918 0.0
H414 H 0.78756 0.92092 0.58087 0.0
H415 H 0.77201 0.97392 0.59716 0.0
H416 H 0.83786 0.90035 0.54857 0.0
H417 H 0.72237 0.90392 0.55278 0.0
H418 H 0.66842 0.92802 0.54677 0.0
H419 H 0.68319 0.92769 0.47067 0.0
H420 H 0.73749 0.90406 0.47624 0.0
H421 H 0.84753 0.74228 0.50325 0.0
H422 H 0.8242 0.78675 0.52625 0.0
H423 H 0.80527 0.83884 0.46082 0.0
H424 H 0.82832 0.79426 0.4376 0.0
H425 H 0.75765 0.84864 0.49453 0.0
H426 H 0.87428 0.85165 0.49015 0.0
H427 H 0.92918 0.82924 0.4951 0.0
H428 H 0.91295 0.81871 0.57064 0.0
H429 H 0.85771 0.84059 0.56607 0.0
C430 C 0.77009 0.99216 0.53757 0.0
C431 C 0.76683 0.99683 0.56241 0.0
C432 C 0.77869 0.96204 0.52841 0.0
C433 C 0.78425 0.93591 0.54384 0.0
C434 C 0.78307 0.94082 0.5687 0.0
C435 C 0.77429 0.9711 0.57795 0.0
C436 C 0.78997 0.90338 0.53364 0.0
C437 C 0.8201 0.88865 0.53719 0.0
C438 C 0.76693 0.88855 0.51841 0.0
C439 C 0.73412 0.90242 0.51495 0.0
C440 C 0.71422 0.9092 0.53477 0.0
C441 C 0.68356 0.92275 0.53144 0.0
C442 C 0.67241 0.92943 0.50836 0.0
C443 C 0.69187 0.92251 0.48855 0.0
C444 C 0.72258 0.909 0.49178 0.0
C445 C 0.83766 0.76282 0.49368 0.0
C446 C 0.84019 0.76497 0.46861 0.0
C447 C 0.82445 0.78827 0.50688 0.0
C448 C 0.81373 0.81636 0.49526 0.0
C449 C 0.81362 0.81742 0.47013 0.0
C450 C 0.82678 0.7919 0.45688 0.0
C451 C 0.8057 0.84577 0.50922 0.0
C452 C 0.77518 0.86 0.50628 0.0
C453 C 0.82845 0.86024 0.52491 0.0
C454 C 0.86175 0.84738 0.52773 0.0
C455 C 0.88233 0.84432 0.50779 0.0
C456 C 0.91352 0.83175 0.51052 0.0
C457 C 0.92451 0.82247 0.53316 0.0
C458 C 0.90437 0.82584 0.55311 0.0
C459 C 0.87313 0.83833 0.55046 0.0
H460 H 0.94866 0.81275 0.53524 0.0
H461 H 0.64866 0.93993 0.50582 0.0
H462 H 0.79292 0.16795 0.56344 0.0
H463 H 0.83652 0.19499 0.54172 0.0
H464 H 0.78868 0.17453 0.47477 0.0
H465 H 0.74525 0.14702 0.49634 0.0
H466 H 0.849 0.15365 0.47367 0.0
H467 H 0.79776 0.25262 0.4947 0.0
H468 H 0.77176 0.29284 0.52101 0.0
H469 H 0.85895 0.30062 0.56238 0.0
H470 H 0.88537 0.26009 0.53653 0.0
H471 H 0.97799 0.23492 0.41043 0.0
H472 H 0.92445 0.21886 0.42529 0.0
H473 H 0.95802 0.2293 0.49799 0.0
H474 H 0.01113 0.2454 0.48346 0.0
H475 H 0.90043 0.25939 0.49131 0.0
H476 H 0.94846 0.15534 0.47321 0.0
H477 H 0.97431 0.11478 0.44708 0.0
H478 H 0.89223 0.11709 0.4 0.0
H479 H 0.86606 0.15801 0.42572 0.0
C480 C 0.79122 0.16996 0.54415 0.0
C481 C 0.76576 0.15511 0.53161 0.0
C482 C 0.81616 0.18549 0.53172 0.0
C483 C 0.81591 0.18674 0.50658 0.0
C484 C 0.78946 0.17371 0.49415 0.0
C485 C 0.76458 0.15811 0.50654 0.0
C486 C 0.84478 0.1984 0.4933 0.0
C487 C 0.85983 0.17711 0.47714 0.0
C488 C 0.85926 0.22871 0.49812 0.0
C489 C 0.84347 0.2531 0.51376 0.0
C490 C 0.81132 0.2627 0.50952 0.0
C491 C 0.79652 0.2856 0.52433 0.0
C492 C 0.81367 0.29923 0.54338 0.0
C493 C 0.84569 0.29003 0.54762 0.0
C494 C 0.86061 0.26712 0.53288 0.0
C495 C 0.97405 0.2334 0.42956 0.0
C496 C -0.00115 0.2415 0.44573 0.0
C497 C 0.94344 0.22432 0.43802 0.0
C498 C 0.93725 0.22305 0.46275 0.0
C499 C 0.96218 0.23042 0.47884 0.0
C500 C 0.99263 0.23944 0.47046 0.0
C501 C 0.90484 0.21436 0.47218 0.0
C502 C 0.8892 0.2362 0.48759 0.0
C503 C 0.88978 0.18457 0.46667 0.0
C504 C 0.90549 0.16001 0.45122 0.0
C505 C 0.93606 0.14741 0.45717 0.0
C506 C 0.95074 0.12431 0.44246 0.0
C507 C 0.93497 0.11345 0.42185 0.0
C508 C 0.90445 0.12559 0.41594 0.0
C509 C 0.88967 0.14871 0.43058 0.0
H510 H 0.94638 0.09556 0.41049 0.0
H511 H 0.80217 0.31696 0.55482 0.0
H512 H 0.24259 0.52382 0.10566 0.0
H513 H 0.26261 0.57659 0.09177 0.0
H514 H 0.30802 0.53033 0.03125 0.0
H515 H 0.28786 0.47789 0.04478 0.0
H516 H 0.34629 0.57898 0.05169 0.0
H517 H 0.23641 0.56073 0.02456 0.0
H518 H 0.17821 0.55035 0.02988 0.0
H519 H 0.16884 0.63769 0.07095 0.0
H520 H 0.22732 0.64817 0.06636 0.0
H521 H 0.32145 0.70813 0.95745 0.0
H522 H 0.2991 0.66306 0.98074 0.0
H523 H 0.34826 0.6978 0.04375 0.0
H524 H 0.3704 0.74294 0.02084 0.0
H525 H 0.26257 0.65714 0.02486 0.0
H526 H 0.38566 0.62938 0.06747 0.0
H527 H 0.44369 0.63942 0.05998 0.0
H528 H 0.42587 0.6426 0.98428 0.0
H529 H 0.36789 0.63207 0.99131 0.0
C530 C 0.25746 0.52489 0.08971 0.0
C531 C 0.26356 0.49682 0.07622 0.0
C532 C 0.2687 0.55501 0.08173 0.0
C533 C 0.28653 0.55733 0.06037 0.0
C534 C 0.29429 0.52906 0.04776 0.0
C535 C 0.28269 0.49913 0.05548 0.0
C536 C 0.29523 0.58915 0.04999 0.0
C537 C 0.328 0.59623 0.04611 0.0
C538 C 0.27134 0.61148 0.04242 0.0
C539 C 0.23629 0.605 0.04538 0.0
C540 C 0.22202 0.57752 0.03497 0.0
C541 C 0.18894 0.57167 0.03781 0.0
C542 C 0.16978 0.59336 0.05075 0.0
C543 C 0.18371 0.62089 0.06096 0.0
C544 C 0.21683 0.62677 0.05828 0.0
C545 C 0.32687 0.70661 0.97639 0.0
C546 C 0.34794 0.72893 0.98723 0.0
C547 C 0.31405 0.68089 0.98966 0.0
C548 C 0.32241 0.67697 0.01385 0.0
C549 C 0.34177 0.70032 0.02505 0.0
C550 C 0.35434 0.72612 0.01189 0.0
C551 C 0.31356 0.64694 0.02671 0.0
C552 C 0.28084 0.64017 0.03094 0.0
C553 C 0.33747 0.62478 0.03447 0.0
C554 C 0.37241 0.63033 0.02996 0.0
C555 C 0.39418 0.6321 0.04923 0.0
C556 C 0.42705 0.63788 0.04506 0.0
C557 C 0.43844 0.64177 0.02167 0.0
C558 C 0.41701 0.63971 0.00239 0.0
C559 C 0.38414 0.63387 0.00646 0.0
H560 H 0.46388 0.64631 0.01849 0.0
H561 H 0.14412 0.58895 0.05281 0.0
H562 H 0.70488 0.66906 0.06066 0.0
H563 H 0.65929 0.69238 0.03881 0.0
H564 H 0.71212 0.68344 0.97257 0.0
H565 H 0.75782 0.65976 0.99424 0.0
H566 H 0.66998 0.7414 0.97713 0.0
H567 H 0.6685 0.62511 0.98307 0.0
H568 H 0.67279 0.57341 0.0049 0.0
H569 H 0.59181 0.6 0.04889 0.0
H570 H 0.58746 0.65217 0.02763 0.0
H571 H 0.52396 0.74879 0.90787 0.0
H572 H 0.57713 0.73055 0.92213 0.0
H573 H 0.53686 0.71363 0.99232 0.0
H574 H 0.48405 0.73094 0.97824 0.0
H575 H 0.57624 0.66641 0.98107 0.0
H576 H 0.58092 0.78381 0.97917 0.0
H577 H 0.57796 0.83758 0.96018 0.0
H578 H 0.65179 0.81007 0.91007 0.0
H579 H 0.65527 0.75609 0.92885 0.0
C580 C 0.70729 0.67303 0.04157 0.0
C581 C 0.73477 0.66218 0.02912 0.0
C582 C 0.68115 0.68624 0.0291 0.0
C583 C 0.68225 0.68907 0.00408 0.0
C584 C 0.71085 0.6813 0.99188 0.0
C585 C 0.73689 0.66775 0.0043 0.0
C586 C 0.65227 0.69593 0.99057 0.0
C587 C 0.6496 0.72487 0.97764 0.0
C588 C 0.62574 0.67433 0.99141 0.0
C589 C 0.62786 0.64268 0.0039 0.0
C590 C 0.65177 0.62005 0.99752 0.0
C591 C 0.6542 0.59065 0.00978 0.0
C592 C 0.63263 0.58346 0.0283 0.0
C593 C 0.60853 0.60562 0.03456 0.0
C594 C 0.60606 0.6351 0.0224 0.0
C595 C 0.52641 0.7407 0.92623 0.0
C596 C 0.49981 0.74153 0.94194 0.0
C597 C 0.55684 0.73057 0.93441 0.0
C598 C 0.56109 0.7212 0.95841 0.0
C599 C 0.53424 0.72081 0.97376 0.0
C600 C 0.50401 0.73084 0.96565 0.0
C601 C 0.59339 0.71245 0.96808 0.0
C602 C 0.59664 0.68291 0.98025 0.0
C603 C 0.62032 0.73361 0.96663 0.0
C604 C 0.61807 0.76585 0.9552 0.0
C605 C 0.59634 0.78917 0.96398 0.0
C606 C 0.5946 0.81969 0.95329 0.0
C607 C 0.6145 0.82719 0.93383 0.0
C608 C 0.63632 0.80421 0.9251 0.0
C609 C 0.63825 0.77368 0.9358 0.0
H610 H 0.61308 0.85084 0.92557 0.0
H611 H 0.63456 0.56069 0.03778 0.0
H612 H 0.72389 0.48305 0.09247 0.0
H613 H 0.70261 0.43221 0.07618 0.0
H614 H 0.7061 0.47242 0.00493 0.0
H615 H 0.7266 0.52316 0.021 0.0
H616 H 0.65324 0.43754 0.01017 0.0
H617 H 0.76686 0.42287 0.02541 0.0
H618 H 0.81649 0.42282 0.04983 0.0
H619 H 0.77421 0.353 0.09746 0.0
H620 H 0.72418 0.35277 0.0733 0.0
H621 H 0.65441 0.29854 0.93811 0.0
H622 H 0.67709 0.3457 0.95865 0.0
H623 H 0.65534 0.30219 0.02696 0.0
H624 H 0.63242 0.25507 0.0066 0.0
H625 H 0.71589 0.33712 0.02529 0.0
H626 H 0.60255 0.35062 0.00664 0.0
H627 H 0.55533 0.35044 0.97966 0.0
H628 H 0.59985 0.42365 0.93614 0.0
H629 H 0.64761 0.42386 0.96265 0.0
C630 C 0.71954 0.48121 0.0734 0.0
C631 C 0.72724 0.50701 0.05801 0.0
C632 C 0.70766 0.45208 0.06409 0.0
C633 C 0.70337 0.44832 0.03928 0.0
C634 C 0.70938 0.47467 0.02411 0.0
C635 C 0.7212 0.50367 0.03335 0.0
C636 C 0.69389 0.41673 0.02878 0.0
C637 C 0.6671 0.41567 0.01338 0.0
C638 C 0.71171 0.38805 0.03315 0.0
C639 C 0.74168 0.38808 0.04772 0.0
C640 C 0.76807 0.40769 0.04119 0.0
C641 C 0.79629 0.40768 0.05497 0.0
C642 C 0.79846 0.38804 0.07528 0.0
C643 C 0.77246 0.36826 0.08177 0.0
C644 C 0.74419 0.36814 0.06801 0.0
C645 C 0.65524 0.29861 0.95749 0.0
C646 C 0.64136 0.27326 0.97075 0.0
C647 C 0.66805 0.32562 0.96919 0.0
C648 C 0.6674 0.32754 0.99429 0.0
C649 C 0.65594 0.30116 0.00758 0.0
C650 C 0.64281 0.27431 0.99591 0.0
C651 C 0.67561 0.3582 0.00653 0.0
C652 C 0.702 0.35901 0.02227 0.0
C653 C 0.65767 0.38678 0.00226 0.0
C654 C 0.62878 0.38702 0.9865 0.0
C655 C 0.60238 0.3665 0.99121 0.0
C656 C 0.5755 0.36641 0.97602 0.0
C657 C 0.57462 0.38696 0.95617 0.0
C658 C 0.60058 0.40771 0.95151 0.0
C659 C 0.62755 0.40784 0.96662 0.0
H660 H 0.5538 0.38686 0.94443 0.0
H661 H 0.82033 0.38807 0.08594 0.0
H662 H 0.46038 0.21552 0.91257 0.0
H663 H 0.40874 0.23366 0.92933 0.0
H664 H 0.45513 0.32033 0.95569 0.0
H665 H 0.50708 0.30086 0.94046 0.0
H666 H 0.42372 0.29741 0.98932 0.0
H667 H 0.39571 0.31742 0.9074 0.0
H668 H 0.3886 0.30446 0.86462 0.0
H669 H 0.32065 0.22976 0.88281 0.0
H670 H 0.32766 0.24202 0.92573 0.0
H671 H 0.25576 0.37588 0.99205 0.0
H672 H 0.29839 0.35069 0.96852 0.0
H673 H 0.31948 0.28601 0.02714 0.0
H674 H 0.27758 0.31228 0.05132 0.0
H675 H 0.31572 0.29607 0.9507 0.0
H676 H 0.39969 0.27535 0.03198 0.0
H677 H 0.40818 0.29666 0.07279 0.0
H678 H 0.36711 0.38779 0.05183 0.0
H679 H 0.35877 0.36715 0.01085 0.0
C680 C 0.45918 0.23886 0.92136 0.0
C681 C 0.4874 0.25706 0.92509 0.0
C682 C 0.42968 0.24926 0.93095 0.0
C683 C 0.42781 0.27852 0.94376 0.0
C684 C 0.45586 0.29756 0.9461 0.0
C685 C 0.48546 0.28667 0.93719 0.0
C686 C 0.39766 0.28802 0.95658 0.0
C687 C 0.40018 0.29715 0.98074 0.0
C688 C 0.36677 0.28781 0.94558 0.0
C689 C 0.36245 0.28044 0.91979 0.0
C690 C 0.37943 0.29808 0.90228 0.0
C691 C 0.37538 0.29089 0.87801 0.0
C692 C 0.35425 0.26625 0.87101 0.0
C693 C 0.33704 0.24881 0.88826 0.0
C694 C 0.34101 0.2559 0.91256 0.0
C695 C 0.26908 0.35595 0.99987 0.0
C696 C 0.26367 0.34644 0.02372 0.0
C697 C 0.29343 0.34144 0.9863 0.0
C698 C 0.31269 0.31692 0.9962 0.0
C699 C 0.30546 0.30545 0.01931 0.0
C700 C 0.2814 0.32035 0.03308 0.0
C701 C 0.34206 0.30586 0.98318 0.0
C702 C 0.33935 0.2962 0.95914 0.0
C703 C 0.37305 0.30681 0.99395 0.0
C704 C 0.37826 0.31955 0.01847 0.0
C705 C 0.39255 0.29995 0.03609 0.0
C706 C 0.39733 0.31191 0.05924 0.0
C707 C 0.38807 0.34352 0.06492 0.0
C708 C 0.37415 0.36328 0.04743 0.0
C709 C 0.36938 0.35146 0.02425 0.0
H710 H 0.39176 0.35271 0.08285 0.0
H711 H 0.35116 0.26071 0.85221 0.0
H712 H 0.92233 0.61478 0.45766 0.0
H713 H 0.94831 0.5619 0.4625 0.0
H714 H 0.96323 0.55631 0.38619 0.0
H715 H 0.93773 0.60923 0.38121 0.0
H716 H 0.9446 0.49648 0.40855 0.0
H717 H 0.02123 0.58529 0.41756 0.0
H718 H 0.04065 0.63574 0.43625 0.0
H719 H 0.04375 0.58872 0.50478 0.0
H720 H 0.02383 0.5381 0.48651 0.0
H721 H 0.06841 0.38896 0.38815 0.0
H722 H 0.0409 0.44112 0.38994 0.0
H723 H 0.04604 0.43939 0.46707 0.0
H724 H 0.07435 0.38735 0.4654 0.0
H725 H 0.0513 0.50111 0.44934 0.0
H726 H 0.97998 0.41133 0.44106 0.0
H727 H 0.95979 0.36037 0.42365 0.0
H728 H 0.94448 0.40791 0.35624 0.0
H729 H 0.9651 0.45906 0.37314 0.0
C730 C 0.93035 0.60187 0.44186 0.0
C731 C 0.92827 0.61617 0.41906 0.0
C732 C 0.94533 0.57182 0.44468 0.0
C733 C 0.958 0.55558 0.42472 0.0
C734 C 0.95366 0.56862 0.40179 0.0
C735 C 0.93914 0.59882 0.39898 0.0
C736 C 0.97831 0.52651 0.42771 0.0
C737 C 0.96797 0.49745 0.41737 0.0
C738 C 0.00836 0.52776 0.43982 0.0
C739 C 0.02067 0.55805 0.45073 0.0
C740 C 0.02579 0.5858 0.43664 0.0
C741 C 0.03693 0.6144 0.44715 0.0
C742 C 0.04334 0.61546 0.4717 0.0
C743 C 0.03871 0.58788 0.48578 0.0
C744 C 0.0275 0.55923 0.47535 0.0
C745 C 0.0645 0.40011 0.40547 0.0
C746 C 0.07307 0.38392 0.42665 0.0
C747 C 0.04865 0.4298 0.40647 0.0
C748 C 0.0406 0.44353 0.42866 0.0
C749 C 0.05178 0.42897 0.44979 0.0
C750 C 0.06804 0.39932 0.44879 0.0
C751 C 0.01795 0.4712 0.42963 0.0
C752 C 0.02778 0.49996 0.44077 0.0
C753 C 0.98718 0.46959 0.4185 0.0
C754 C 0.97433 0.43898 0.40832 0.0
C755 C 0.97251 0.41087 0.42248 0.0
C756 C 0.96097 0.38195 0.4127 0.0
C757 C 0.95092 0.38089 0.38884 0.0
C758 C 0.9523 0.40877 0.37472 0.0
C759 C 0.96389 0.43774 0.38439 0.0
H760 H 0.942 0.35847 0.3813 0.0
H761 H 0.05196 0.63763 0.47981 0.0
H762 H 0.61685 0.06731 0.5411 0.0
H763 H 0.56586 0.03793 0.5362 0.0
H764 H 0.56373 0.01826 0.61206 0.0
H765 H 0.61489 0.04689 0.617 0.0
H766 H 0.55663 0.96408 0.58715 0.0
H767 H 0.51063 0.0715 0.58506 0.0
H768 H 0.50435 0.12732 0.57017 0.0
H769 H 0.48082 0.09118 0.50024 0.0
H770 H 0.48738 0.03512 0.51466 0.0
H771 H 0.39502 0.92256 0.61343 0.0
H772 H 0.44959 0.94425 0.60864 0.0
H773 H 0.43866 0.9419 0.53186 0.0
H774 H 0.38394 0.91973 0.53652 0.0
H775 H 0.45467 0.0031 0.55036 0.0
H776 H 0.49367 0.89519 0.55466 0.0
H777 H 0.49854 0.83974 0.57049 0.0
H778 H 0.53421 0.87704 0.63719 0.0
H779 H 0.52912 0.93278 0.62189 0.0
C780 C 0.60507 0.05743 0.55681 0.0
C781 C 0.61995 0.05921 0.57942 0.0
C782 C 0.57599 0.04056 0.55397 0.0
C783 C 0.56115 0.0257 0.57375 0.0
C784 C 0.57498 0.02923 0.59652 0.0
C785 C 0.6041 0.04578 0.59934 0.0
C786 C 0.53245 0.00462 0.57071 0.0
C787 C 0.53423 0.97271 0.57929 0.0
C788 C 0.50372 0.01546 0.55955 0.0
C789 C 0.49989 0.04914 0.55086 0.0
C790 C 0.50442 0.07547 0.56645 0.0
C791 C 0.50074 0.10715 0.55811 0.0
C792 C 0.4923 0.1128 0.53426 0.0
C793 C 0.48743 0.08677 0.5187 0.0
C794 C 0.4911 0.05504 0.52695 0.0
C795 C 0.40457 0.92582 0.59552 0.0
C796 C 0.38526 0.91961 0.57535 0.0
C797 C 0.43574 0.93815 0.5928 0.0
C798 C 0.44803 0.94473 0.5699 0.0
C799 C 0.42951 0.93692 0.54967 0.0
C800 C 0.39842 0.92407 0.55236 0.0
C801 C 0.47858 0.96302 0.56753 0.0
C802 C 0.47724 0.99434 0.55788 0.0
C803 C 0.50766 0.95173 0.57783 0.0
C804 C 0.5108 0.91822 0.58715 0.0
C805 C 0.5023 0.89161 0.57277 0.0
C806 C 0.50515 0.8601 0.58164 0.0
C807 C 0.51662 0.85487 0.60484 0.0
C808 C 0.52532 0.88113 0.61921 0.0
C809 C 0.52251 0.91269 0.61044 0.0
H810 H 0.51882 0.83046 0.61168 0.0
H811 H 0.48945 0.13734 0.52784 0.0
H812 H 0.56132 0.09765 0.89675 0.0
H813 H 0.53236 0.04775 0.9057 0.0
H814 H 0.53373 0.07087 0.98094 0.0
H815 H 0.56277 0.12128 0.97217 0.0
H816 H 0.5405 -0.00012 0.9666 0.0
H817 H 0.47153 0.09283 0.95821 0.0
H818 H 0.454 0.14341 0.93873 0.0
H819 H 0.43391 0.09141 0.87387 0.0
H820 H 0.45193 0.04059 0.89283 0.0
H821 H 0.41656 0.88224 0.97632 0.0
H822 H 0.43942 0.93623 0.98284 0.0
H823 H 0.44581 0.95044 0.90647 0.0
H824 H 0.42302 0.89679 0.89982 0.0
H825 H 0.43096 0.00685 0.93034 0.0
H826 H 0.50686 0.91743 0.93564 0.0
H827 H 0.52617 0.86604 0.95278 0.0
H828 H 0.53502 0.91084 0.02185 0.0
H829 H 0.51478 0.96235 0.00519 0.0
C830 C 0.55634 0.09177 0.91529 0.0
C831 C 0.56379 0.1137 0.93371 0.0
C832 C 0.53978 0.06324 0.92035 0.0
C833 C 0.53042 0.05614 0.94389 0.0
C834 C 0.54068 0.07617 0.96265 0.0
C835 C 0.55732 0.10489 0.95759 0.0
C836 C 0.50648 0.03023 0.94803 0.0
C837 C 0.51625 0.00159 0.95928 0.0
C838 C 0.47501 0.03258 0.9382 0.0
C839 C 0.46327 0.06293 0.92691 0.0
C840 C 0.46356 0.09221 0.93975 0.0
C841 C 0.45353 0.12092 0.9288 0.0
C842 C 0.44288 0.12063 0.90507 0.0
C843 C 0.44216 0.0916 0.89226 0.0
C844 C 0.45225 0.06282 0.90311 0.0
C845 C 0.42187 0.89729 0.96094 0.0
C846 C 0.41847 0.88515 0.93755 0.0
C847 C 0.43505 0.92805 0.9647 0.0
C848 C 0.44479 0.94701 0.94513 0.0
C849 C 0.43855 0.93611 0.92181 0.0
C850 C 0.42565 0.90538 0.91804 0.0
C851 C 0.46513 0.97611 0.94847 0.0
C852 C 0.45476 0.00541 0.93845 0.0
C853 C 0.49607 0.97428 0.95935 0.0
C854 C 0.5089 0.94358 0.96926 0.0
C855 C 0.51268 0.91625 0.95452 0.0
C856 C 0.5238 0.88711 0.96415 0.0
C857 C 0.53182 0.88514 0.98841 0.0
C858 C 0.52874 0.91237 0.00308 0.0
C859 C 0.51737 0.94153 0.99356 0.0
H860 H 0.54047 0.86255 0.99583 0.0
H861 H 0.43516 0.1429 0.89662 0.0
H862 H 0.11469 0.41882 0.03916 0.0
H863 H 0.05984 0.44016 0.0338 0.0
H864 H 0.04961 0.44928 0.11037 0.0
H865 H 0.10392 0.42774 0.1159 0.0
H866 H 0.99288 0.43086 0.08885 0.0
H867 H 0.07922 0.51008 0.07617 0.0
H868 H 0.12743 0.5303 0.05497 0.0
H869 H 0.07403 0.53318 0.98906 0.0
H870 H 0.02574 0.51187 0.00977 0.0
H871 H 0.88428 0.55353 0.1143 0.0
H872 H 0.93481 0.52341 0.11048 0.0
H873 H 0.93152 0.53507 0.03374 0.0
H874 H 0.88143 0.56628 0.03753 0.0
H875 H 0.99177 0.53796 0.0486 0.0
H876 H 0.90386 0.46604 0.06055 0.0
H877 H 0.85482 0.44468 0.08005 0.0
H878 H 0.90877 0.42601 0.14423 0.0
H879 H 0.95801 0.44812 0.12536 0.0
C880 C 0.10043 0.4246 0.05487 0.0
C881 C 0.11382 0.42211 0.07795 0.0
C882 C 0.06917 0.43689 0.05176 0.0
C883 C 0.05098 0.44685 0.07168 0.0
C884 C 0.06332 0.44189 0.09476 0.0
C885 C 0.09446 0.42971 0.09787 0.0
C886 C 0.02071 0.46558 0.06883 0.0
C887 C 0.99257 0.45428 0.08009 0.0
C888 C 0.02013 0.49569 0.05672 0.0
C889 C 0.04902 0.50901 0.04445 0.0
C890 C 0.07784 0.51478 0.05712 0.0
C891 C 0.10518 0.52644 0.04518 0.0
C892 C 0.1038 0.53308 0.02067 0.0
C893 C 0.07507 0.52799 0.00804 0.0
C894 C 0.04775 0.51602 0.01985 0.0
C895 C 0.89468 0.55025 0.09666 0.0
C896 C 0.8788 0.56195 0.07619 0.0
C897 C 0.92339 0.53281 0.09447 0.0
C898 C 0.93631 0.52608 0.07176 0.0
C899 C 0.92174 0.53968 0.05141 0.0
C900 C 0.89322 0.55761 0.05362 0.0
C901 C 0.96416 0.50374 0.06934 0.0
C902 C 0.99179 0.51431 0.05704 0.0
C903 C 0.96411 0.47274 0.08021 0.0
C904 C 0.93463 0.45896 0.09156 0.0
C905 C 0.90525 0.45758 0.07887 0.0
C906 C 0.87741 0.44532 0.08981 0.0
C907 C 0.87867 0.43394 0.11334 0.0
C908 C 0.90782 0.43482 0.12599 0.0
C909 C 0.93572 0.44724 0.11519 0.0
H910 H 0.85707 0.42442 0.12176 0.0
H911 H 0.12492 0.54221 0.01143 0.0
loop_
_geom_bond_atom_site_label_1
_geom_bond_atom_site_label_2
_geom_bond_distance
_geom_bond_site_symmetry_2
_ccdc_geom_bond_type
O0 Cd1 2.223 . S
O0 C8 1.315 . S
Cd1 O0 2.223 . S
Cd1 O4 2.297 . S
Cd1 O5 2.439 . S
Cd1 O11 2.240 . S
Cd2 O3 2.240 . S
Cd2 O10 2.223 . S
Cd2 O12 2.297 . S
Cd2 O13 2.439 . S
O3 Cd2 2.240 . S
O3 C8 1.279 . S
O4 Cd1 2.297 . S
O4 C6 1.247 . S
O5 Cd1 2.439 . S
O5 C6 1.208 . S
C6 O4 1.247 . S
C6 O5 1.208 . S
C7 O12 1.247 . S
C7 O13 1.208 . S
C8 O0 1.315 . S
C8 O3 1.279 . S
C9 O10 1.315 . S
C9 O11 1.279 . S
O10 Cd2 2.223 . S
O10 C9 1.315 . S
O11 Cd1 2.240 . S
O11 C9 1.279 . S
O12 Cd2 2.297 . S
O12 C7 1.247 . S
O13 Cd2 2.439 . S
O13 C7 1.208 . S
O14 Cd15 2.223 . S
O14 C22 1.315 . S
Cd15 O14 2.223 . S
Cd15 O18 2.297 . S
Cd15 O19 2.439 . S
Cd15 O25 2.240 . S
Cd16 O17 2.240 . S
Cd16 O24 2.223 . S
Cd16 O26 2.297 . S
Cd16 O27 2.439 . S
O17 Cd16 2.240 . S
O17 C22 1.279 . S
O18 Cd15 2.297 . S
O18 C20 1.247 . S
O19 Cd15 2.439 . S
O19 C20 1.208 . S
C20 O18 1.247 . S
C20 O19 1.208 . S
C21 O26 1.247 . S
C21 O27 1.208 . S
C22 O14 1.315 . S
C22 O17 1.279 . S
C23 O24 1.315 . S
C23 O25 1.279 . S
O24 Cd16 2.223 . S
O24 C23 1.315 . S
O25 Cd15 2.240 . S
O25 C23 1.279 . S
O26 Cd16 2.297 . S
O26 C21 1.247 . S
O27 Cd16 2.439 . S
O27 C21 1.208 . S
O28 Cd29 2.223 . S
O28 C36 1.315 . S
Cd29 O28 2.223 . S
Cd29 O32 2.297 . S
Cd29 O33 2.439 . S
Cd29 O39 2.240 . S
Cd30 O31 2.240 . S
Cd30 O38 2.223 . S
Cd30 O40 2.297 . S
Cd30 O41 2.439 . S
O31 Cd30 2.240 . S
O31 C36 1.279 . S
O32 Cd29 2.297 . S
O32 C34 1.247 . S
O33 Cd29 2.439 . S
O33 C34 1.208 . S
C34 O32 1.247 . S
C34 O33 1.208 . S
C35 O40 1.247 . S
C35 O41 1.208 . S
C36 O28 1.315 . S
C36 O31 1.279 . S
C37 O38 1.315 . S
C37 O39 1.279 . S
O38 Cd30 2.223 . S
O38 C37 1.315 . S
O39 Cd29 2.240 . S
O39 C37 1.279 . S
O40 Cd30 2.297 . S
O40 C35 1.247 . S
O41 Cd30 2.439 . S
O41 C35 1.208 . S
O42 Cd43 2.223 . S
O42 C50 1.315 . S
Cd43 O42 2.223 . S
Cd43 O46 2.297 . S
Cd43 O47 2.439 . S
Cd43 O53 2.240 . S
Cd44 O45 2.240 . S
Cd44 O52 2.223 . S
Cd44 O54 2.297 . S
Cd44 O55 2.439 . S
O45 Cd44 2.240 . S
O45 C50 1.279 . S
O46 Cd43 2.297 . S
O46 C48 1.247 . S
O47 Cd43 2.439 . S
O47 C48 1.208 . S
C48 O46 1.247 . S
C48 O47 1.208 . S
C49 O54 1.247 . S
C49 O55 1.208 . S
C50 O42 1.315 . S
C50 O45 1.279 . S
C51 O52 1.315 . S
C51 O53 1.279 . S
O52 Cd44 2.223 . S
O52 C51 1.315 . S
O53 Cd43 2.240 . S
O53 C51 1.279 . S
O54 Cd44 2.297 . S
O54 C49 1.247 . S
O55 Cd44 2.439 . S
O55 C49 1.208 . S
O56 Cd57 2.223 . S
O56 C64 1.315 . S
Cd57 O56 2.223 . S
Cd57 O60 2.297 . S
Cd57 O61 2.439 . S
Cd57 O67 2.240 . S
Cd58 O59 2.240 . S
Cd58 O66 2.223 . S
Cd58 O68 2.297 . S
Cd58 O69 2.439 . S
O59 Cd58 2.240 . S
O59 C64 1.279 . S
O60 Cd57 2.297 . S
O60 C62 1.247 . S
O61 Cd57 2.439 . S
O61 C62 1.208 . S
C62 O60 1.247 . S
C62 O61 1.208 . S
C63 O68 1.247 . S
C63 O69 1.208 . S
C64 O56 1.315 . S
C64 O59 1.279 . S
C65 O66 1.315 . S
C65 O67 1.279 . S
O66 Cd58 2.223 . S
O66 C65 1.315 . S
O67 Cd57 2.240 . S
O67 C65 1.279 . S
O68 Cd58 2.297 . S
O68 C63 1.247 . S
O69 Cd58 2.439 . S
O69 C63 1.208 . S
O70 Cd71 2.223 . S
O70 C78 1.315 . S
Cd71 O70 2.223 . S
Cd71 O74 2.297 . S
Cd71 O75 2.439 . S
Cd71 O81 2.240 . S
Cd72 O73 2.240 . S
Cd72 O80 2.223 . S
Cd72 O82 2.297 . S
Cd72 O83 2.439 . S
O73 Cd72 2.240 . S
O73 C78 1.279 . S
O74 Cd71 2.297 . S
O74 C76 1.247 . S
O75 Cd71 2.439 . S
O75 C76 1.208 . S
C76 O74 1.247 . S
C76 O75 1.208 . S
C77 O82 1.247 . S
C77 O83 1.208 . S
C78 O70 1.315 . S
C78 O73 1.279 . S
C79 O80 1.315 . S
C79 O81 1.279 . S
O80 Cd72 2.223 . S
O80 C79 1.315 . S
O81 Cd71 2.240 . S
O81 C79 1.279 . S
O82 Cd72 2.297 . S
O82 C77 1.247 . S
O83 Cd72 2.439 . S
O83 C77 1.208 . S
O84 Cd85 2.223 . S
O84 C92 1.315 . S
Cd85 O84 2.223 . S
Cd85 O88 2.297 . S
Cd85 O89 2.439 . S
Cd85 O95 2.240 . S
Cd86 O87 2.240 . S
Cd86 O94 2.223 . S
Cd86 O96 2.297 . S
Cd86 O97 2.439 . S
O87 Cd86 2.240 . S
O87 C92 1.279 . S
O88 Cd85 2.297 . S
O88 C90 1.247 . S
O89 Cd85 2.439 . S
O89 C90 1.208 . S
C90 O88 1.247 . S
C90 O89 1.208 . S
C91 O96 1.247 . S
C91 O97 1.208 . S
C92 O84 1.315 . S
C92 O87 1.279 . S
C93 O94 1.315 . S
C93 O95 1.279 . S
O94 Cd86 2.223 . S
O94 C93 1.315 . S
O95 Cd85 2.240 . S
O95 C93 1.279 . S
O96 Cd86 2.297 . S
O96 C91 1.247 . S
O97 Cd86 2.439 . S
O97 C91 1.208 . S
O98 Cd99 2.223 . S
O98 C106 1.315 . S
Cd99 O98 2.223 . S
Cd99 O102 2.297 . S
Cd99 O103 2.439 . S
Cd99 O109 2.240 . S
Cd100 O101 2.240 . S
Cd100 O108 2.223 . S
Cd100 O110 2.297 . S
Cd100 O111 2.439 . S
O101 Cd100 2.240 . S
O101 C106 1.279 . S
O102 Cd99 2.297 . S
O102 C104 1.247 . S
O103 Cd99 2.439 . S
O103 C104 1.208 . S
C104 O102 1.247 . S
C104 O103 1.208 . S
C105 O110 1.247 . S
C105 O111 1.208 . S
C106 O98 1.315 . S
C106 O101 1.279 . S
C107 O108 1.315 . S
C107 O109 1.279 . S
O108 Cd100 2.223 . S
O108 C107 1.315 . S
O109 Cd99 2.240 . S
O109 C107 1.279 . S
O110 Cd100 2.297 . S
O110 C105 1.247 . S
O111 Cd100 2.439 . S
O111 C105 1.208 . S
H112 C130 0.951 . S
H113 C132 0.951 . S
H114 C134 0.950 . S
H115 C135 0.950 . S
H116 C137 0.950 . S
H117 C140 0.950 . S
H118 C141 0.950 . S
H119 C143 0.950 . S
H120 C144 0.950 . S
H121 C145 0.951 . S
H122 C147 0.951 . S
H123 C149 0.950 . S
H124 C150 0.950 . S
H125 C152 0.950 . S
H126 C155 0.950 . S
H127 C156 0.950 . S
H128 C158 0.950 . S
H129 C159 0.950 . S
C130 H112 0.951 . S
C130 C131 1.366 . S
C130 C132 1.388 . S
C131 C130 1.366 . S
C131 C135 1.385 . S
C132 H113 0.951 . S
C132 C130 1.388 . S
C132 C133 1.366 . S
C133 C132 1.366 . S
C133 C134 1.414 . S
C133 C136 1.499 . S
C134 H114 0.950 . S
C134 C133 1.414 . S
C134 C135 1.374 . S
C135 H115 0.950 . S
C135 C131 1.385 . S
C135 C134 1.374 . S
C136 C133 1.499 . S
C136 C137 1.373 . S
C136 C138 1.389 . S
C137 H116 0.950 . S
C137 C136 1.373 . S
C137 C153 1.377 . S
C138 C136 1.389 . S
C138 C139 1.524 . S
C138 C152 1.377 . S
C139 C138 1.524 . S
C139 C140 1.397 . S
C139 C144 1.363 . S
C140 H117 0.950 . S
C140 C139 1.397 . S
C140 C141 1.334 . S
C141 H118 0.950 . S
C141 C140 1.334 . S
C141 C142 1.287 . S
C142 C141 1.287 . S
C142 C143 1.524 . S
C142 H161 0.913 . S
C143 H119 0.950 . S
C143 C142 1.524 . S
C143 C144 1.415 . S
C144 H120 0.950 . S
C144 C139 1.363 . S
C144 C143 1.415 . S
C145 H121 0.951 . S
C145 C146 1.366 . S
C145 C147 1.388 . S
C146 C145 1.366 . S
C146 C150 1.385 . S
C147 H122 0.951 . S
C147 C145 1.388 . S
C147 C148 1.366 . S
C148 C147 1.366 . S
C148 C149 1.414 . S
C148 C151 1.499 . S
C149 H123 0.950 . S
C149 C148 1.414 . S
C149 C150 1.374 . S
C150 H124 0.950 . S
C150 C146 1.385 . S
C150 C149 1.374 . S
C151 C148 1.499 . S
C151 C152 1.373 . S
C151 C153 1.389 . S
C152 H125 0.950 . S
C152 C138 1.377 . S
C152 C151 1.373 . S
C153 C137 1.377 . S
C153 C151 1.389 . S
C153 C154 1.524 . S
C154 C153 1.524 . S
C154 C155 1.397 . S
C154 C159 1.363 . S
C155 H126 0.950 . S
C155 C154 1.397 . S
C155 C156 1.334 . S
C156 H127 0.950 . S
C156 C155 1.334 . S
C156 C157 1.287 . S
C157 C156 1.287 . S
C157 C158 1.524 . S
C157 H160 0.999 . S
C158 H128 0.950 . S
C158 C157 1.524 . S
C158 C159 1.415 . S
C159 H129 0.950 . S
C159 C154 1.363 . S
C159 C158 1.415 . S
H160 C157 0.999 . S
H161 C142 0.913 . S
H162 C180 0.951 . S
H163 C182 0.951 . S
H164 C184 0.950 . S
H165 C185 0.950 . S
H166 C187 0.950 . S
H167 C190 0.950 . S
H168 C191 0.950 . S
H169 C193 0.950 . S
H170 C194 0.950 . S
H171 C195 0.951 . S
H172 C197 0.951 . S
H173 C199 0.950 . S
H174 C200 0.950 . S
H175 C202 0.950 . S
H176 C205 0.950 . S
H177 C206 0.950 . S
H178 C208 0.950 . S
H179 C209 0.950 . S
C180 H162 0.951 . S
C180 C181 1.366 . S
C180 C182 1.388 . S
C181 C180 1.366 . S
C181 C185 1.385 . S
C182 H163 0.951 . S
C182 C180 1.388 . S
C182 C183 1.366 . S
C183 C182 1.366 . S
C183 C184 1.414 . S
C183 C186 1.499 . S
C184 H164 0.950 . S
C184 C183 1.414 . S
C184 C185 1.374 . S
C185 H165 0.950 . S
C185 C181 1.385 . S
C185 C184 1.374 . S
C186 C183 1.499 . S
C186 C187 1.373 . S
C186 C188 1.389 . S
C187 H166 0.950 . S
C187 C186 1.373 . S
C187 C203 1.377 . S
C188 C186 1.389 . S
C188 C189 1.524 . S
C188 C202 1.377 . S
C189 C188 1.524 . S
C189 C190 1.397 . S
C189 C194 1.363 . S
C190 H167 0.950 . S
C190 C189 1.397 . S
C190 C191 1.334 . S
C191 H168 0.950 . S
C191 C190 1.334 . S
C191 C192 1.287 . S
C192 C191 1.287 . S
C192 C193 1.524 . S
C192 H211 0.913 . S
C193 H169 0.950 . S
C193 C192 1.524 . S
C193 C194 1.415 . S
C194 H170 0.950 . S
C194 C189 1.363 . S
C194 C193 1.415 . S
C195 H171 0.951 . S
C195 C196 1.366 . S
C195 C197 1.388 . S
C196 C195 1.366 . S
C196 C200 1.385 . S
C197 H172 0.951 . S
C197 C195 1.388 . S
C197 C198 1.366 . S
C198 C197 1.366 . S
C198 C199 1.414 . S
C198 C201 1.499 . S
C199 H173 0.950 . S
C199 C198 1.414 . S
C199 C200 1.374 . S
C200 H174 0.950 . S
C200 C196 1.385 . S
C200 C199 1.374 . S
C201 C198 1.499 . S
C201 C202 1.373 . S
C201 C203 1.389 . S
C202 H175 0.950 . S
C202 C188 1.377 . S
C202 C201 1.373 . S
C203 C187 1.377 . S
C203 C201 1.389 . S
C203 C204 1.524 . S
C204 C203 1.524 . S
C204 C205 1.397 . S
C204 C209 1.363 . S
C205 H176 0.950 . S
C205 C204 1.397 . S
C205 C206 1.334 . S
C206 H177 0.950 . S
C206 C205 1.334 . S
C206 C207 1.287 . S
C207 C206 1.287 . S
C207 C208 1.524 . S
C207 H210 0.999 . S
C208 H178 0.950 . S
C208 C207 1.524 . S
C208 C209 1.415 . S
C209 H179 0.950 . S
C209 C204 1.363 . S
C209 C208 1.415 . S
H210 C207 0.999 . S
H211 C192 0.913 . S
H212 C230 0.951 . S
H213 C232 0.951 . S
H214 C234 0.950 . S
H215 C235 0.950 . S
H216 C237 0.950 . S
H217 C240 0.950 . S
H218 C241 0.950 . S
H219 C243 0.950 . S
H220 C244 0.950 . S
H221 C245 0.951 . S
H222 C247 0.951 . S
H223 C249 0.950 . S
H224 C250 0.950 . S
H225 C252 0.950 . S
H226 C255 0.950 . S
H227 C256 0.950 . S
H228 C258 0.950 . S
H229 C259 0.950 . S
C230 H212 0.951 . S
C230 C231 1.366 . S
C230 C232 1.388 . S
C231 C230 1.366 . S
C231 C235 1.385 . S
C232 H213 0.951 . S
C232 C230 1.388 . S
C232 C233 1.366 . S
C233 C232 1.366 . S
C233 C234 1.414 . S
C233 C236 1.499 . S
C234 H214 0.950 . S
C234 C233 1.414 . S
C234 C235 1.374 . S
C235 H215 0.950 . S
C235 C231 1.385 . S
C235 C234 1.374 . S
C236 C233 1.499 . S
C236 C237 1.373 . S
C236 C238 1.389 . S
C237 H216 0.950 . S
C237 C236 1.373 . S
C237 C253 1.377 . S
C238 C236 1.389 . S
C238 C239 1.524 . S
C238 C252 1.377 . S
C239 C238 1.524 . S
C239 C240 1.397 . S
C239 C244 1.363 . S
C240 H217 0.950 . S
C240 C239 1.397 . S
C240 C241 1.334 . S
C241 H218 0.950 . S
C241 C240 1.334 . S
C241 C242 1.287 . S
C242 C241 1.287 . S
C242 C243 1.524 . S
C242 H261 0.913 . S
C243 H219 0.950 . S
C243 C242 1.524 . S
C243 C244 1.415 . S
C244 H220 0.950 . S
C244 C239 1.363 . S
C244 C243 1.415 . S
C245 H221 0.951 . S
C245 C246 1.366 . S
C245 C247 1.388 . S
C246 C245 1.366 . S
C246 C250 1.385 . S
C247 H222 0.951 . S
C247 C245 1.388 . S
C247 C248 1.366 . S
C248 C247 1.366 . S
C248 C249 1.414 . S
C248 C251 1.499 . S
C249 H223 0.950 . S
C249 C248 1.414 . S
C249 C250 1.374 . S
C250 H224 0.950 . S
C250 C246 1.385 . S
C250 C249 1.374 . S
C251 C248 1.499 . S
C251 C252 1.373 . S
C251 C253 1.389 . S
C252 H225 0.950 . S
C252 C238 1.377 . S
C252 C251 1.373 . S
C253 C237 1.377 . S
C253 C251 1.389 . S
C253 C254 1.524 . S
C254 C253 1.524 . S
C254 C255 1.397 . S
C254 C259 1.363 . S
C255 H226 0.950 . S
C255 C254 1.397 . S
C255 C256 1.334 . S
C256 H227 0.950 . S
C256 C255 1.334 . S
C256 C257 1.287 . S
C257 C256 1.287 . S
C257 C258 1.524 . S
C257 H260 0.999 . S
C258 H228 0.950 . S
C258 C257 1.524 . S
C258 C259 1.415 . S
C259 H229 0.950 . S
C259 C254 1.363 . S
C259 C258 1.415 . S
H260 C257 0.999 . S
H261 C242 0.913 . S
H262 C280 0.951 . S
H263 C282 0.951 . S
H264 C284 0.950 . S
H265 C285 0.950 . S
H266 C287 0.950 . S
H267 C290 0.950 . S
H268 C291 0.950 . S
H269 C293 0.950 . S
H270 C294 0.950 . S
H271 C295 0.951 . S
H272 C297 0.951 . S
H273 C299 0.950 . S
H274 C300 0.950 . S
H275 C302 0.950 . S
H276 C305 0.950 . S
H277 C306 0.950 . S
H278 C308 0.950 . S
H279 C309 0.950 . S
C280 H262 0.951 . S
C280 C281 1.366 . S
C280 C282 1.388 . S
C281 C280 1.366 . S
C281 C285 1.385 . S
C282 H263 0.951 . S
C282 C280 1.388 . S
C282 C283 1.366 . S
C283 C282 1.366 . S
C283 C284 1.414 . S
C283 C286 1.499 . S
C284 H264 0.950 . S
C284 C283 1.414 . S
C284 C285 1.374 . S
C285 H265 0.950 . S
C285 C281 1.385 . S
C285 C284 1.374 . S
C286 C283 1.499 . S
C286 C287 1.373 . S
C286 C288 1.389 . S
C287 H266 0.950 . S
C287 C286 1.373 . S
C287 C303 1.377 . S
C288 C286 1.389 . S
C288 C289 1.524 . S
C288 C302 1.377 . S
C289 C288 1.524 . S
C289 C290 1.397 . S
C289 C294 1.363 . S
C290 H267 0.950 . S
C290 C289 1.397 . S
C290 C291 1.334 . S
C291 H268 0.950 . S
C291 C290 1.334 . S
C291 C292 1.287 . S
C292 C291 1.287 . S
C292 C293 1.524 . S
C292 H311 0.913 . S
C293 H269 0.950 . S
C293 C292 1.524 . S
C293 C294 1.415 . S
C294 H270 0.950 . S
C294 C289 1.363 . S
C294 C293 1.415 . S
C295 H271 0.951 . S
C295 C296 1.366 . S
C295 C297 1.388 . S
C296 C295 1.366 . S
C296 C300 1.385 . S
C297 H272 0.951 . S
C297 C295 1.388 . S
C297 C298 1.366 . S
C298 C297 1.366 . S
C298 C299 1.414 . S
C298 C301 1.499 . S
C299 H273 0.950 . S
C299 C298 1.414 . S
C299 C300 1.374 . S
C300 H274 0.950 . S
C300 C296 1.385 . S
C300 C299 1.374 . S
C301 C298 1.499 . S
C301 C302 1.373 . S
C301 C303 1.389 . S
C302 H275 0.950 . S
C302 C288 1.377 . S
C302 C301 1.373 . S
C303 C287 1.377 . S
C303 C301 1.389 . S
C303 C304 1.524 . S
C304 C303 1.524 . S
C304 C305 1.397 . S
C304 C309 1.363 . S
C305 H276 0.950 . S
C305 C304 1.397 . S
C305 C306 1.334 . S
C306 H277 0.950 . S
C306 C305 1.334 . S
C306 C307 1.287 . S
C307 C306 1.287 . S
C307 C308 1.524 . S
C307 H310 0.999 . S
C308 H278 0.950 . S
C308 C307 1.524 . S
C308 C309 1.415 . S
C309 H279 0.950 . S
C309 C304 1.363 . S
C309 C308 1.415 . S
H310 C307 0.999 . S
H311 C292 0.913 . S
H312 C330 0.952 . S
H313 C332 0.951 . S
H314 C334 0.950 . S
H315 C335 0.950 . S
H316 C337 0.950 . S
H317 C340 0.950 . S
H318 C341 0.950 . S
H319 C343 0.950 . S
H320 C344 0.950 . S
H321 C345 0.951 . S
H322 C347 0.951 . S
H323 C349 0.950 . S
H324 C350 0.950 . S
H325 C352 0.950 . S
H326 C355 0.950 . S
H327 C356 0.950 . S
H328 C358 0.950 . S
H329 C359 0.950 . S
C330 H312 0.952 . S
C330 C331 1.366 1_545 S
C330 C332 1.388 . S
C331 C330 1.366 1_565 S
C331 C335 1.385 . S
C332 H313 0.951 . S
C332 C330 1.388 . S
C332 C333 1.366 . S
C333 C332 1.366 . S
C333 C334 1.414 . S
C333 C336 1.499 . S
C334 H314 0.950 . S
C334 C333 1.414 . S
C334 C335 1.374 1_545 S
C335 H315 0.950 . S
C335 C331 1.385 . S
C335 C334 1.374 1_565 S
C336 C333 1.499 . S
C336 C337 1.373 . S
C336 C338 1.389 . S
C337 H316 0.950 . S
C337 C336 1.373 . S
C337 C353 1.377 . S
C338 C336 1.389 . S
C338 C339 1.524 . S
C338 C352 1.377 . S
C339 C338 1.524 . S
C339 C340 1.397 . S
C339 C344 1.363 . S
C340 H317 0.950 . S
C340 C339 1.397 . S
C340 C341 1.334 . S
C341 H318 0.950 . S
C341 C340 1.334 . S
C341 C342 1.287 . S
C342 C341 1.287 . S
C342 C343 1.524 . S
C342 H361 0.913 . S
C343 H319 0.950 . S
C343 C342 1.524 . S
C343 C344 1.415 . S
C344 H320 0.950 . S
C344 C339 1.363 . S
C344 C343 1.415 . S
C345 H321 0.951 . S
C345 C346 1.366 . S
C345 C347 1.388 . S
C346 C345 1.366 . S
C346 C350 1.385 . S
C347 H322 0.951 . S
C347 C345 1.388 . S
C347 C348 1.366 . S
C348 C347 1.366 . S
C348 C349 1.414 . S
C348 C351 1.499 . S
C349 H323 0.950 . S
C349 C348 1.414 . S
C349 C350 1.374 . S
C350 H324 0.950 . S
C350 C346 1.385 . S
C350 C349 1.374 . S
C351 C348 1.499 . S
C351 C352 1.373 . S
C351 C353 1.389 . S
C352 H325 0.950 . S
C352 C338 1.377 . S
C352 C351 1.373 . S
C353 C337 1.377 . S
C353 C351 1.389 . S
C353 C354 1.524 . S
C354 C353 1.524 . S
C354 C355 1.397 . S
C354 C359 1.363 . S
C355 H326 0.950 . S
C355 C354 1.397 . S
C355 C356 1.334 . S
C356 H327 0.950 . S
C356 C355 1.334 . S
C356 C357 1.287 . S
C357 C356 1.287 . S
C357 C358 1.524 . S
C357 H360 0.999 . S
C358 H328 0.950 . S
C358 C357 1.524 . S
C358 C359 1.415 . S
C359 H329 0.950 . S
C359 C354 1.363 . S
C359 C358 1.415 . S
H360 C357 0.999 . S
H361 C342 0.913 . S
H362 C380 0.951 . S
H363 C382 0.951 . S
H364 C384 0.950 . S
H365 C385 0.950 . S
H366 C387 0.950 . S
H367 C390 0.950 . S
H368 C391 0.950 . S
H369 C393 0.950 . S
H370 C394 0.950 . S
H371 C395 0.951 . S
H372 C397 0.951 . S
H373 C399 0.950 . S
H374 C400 0.950 . S
H375 C402 0.950 . S
H376 C405 0.950 . S
H377 C406 0.950 . S
H378 C408 0.950 . S
H379 C409 0.950 . S
C380 H362 0.951 . S
C380 C381 1.366 . S
C380 C382 1.388 . S
C381 C380 1.366 . S
C381 C385 1.385 . S
C382 H363 0.951 . S
C382 C380 1.388 . S
C382 C383 1.366 . S
C383 C382 1.366 . S
C383 C384 1.414 . S
C383 C386 1.499 . S
C384 H364 0.950 . S
C384 C383 1.414 . S
C384 C385 1.374 . S
C385 H365 0.950 . S
C385 C381 1.385 . S
C385 C384 1.374 . S
C386 C383 1.499 . S
C386 C387 1.373 . S
C386 C388 1.389 . S
C387 H366 0.950 . S
C387 C386 1.373 . S
C387 C403 1.377 . S
C388 C386 1.389 . S
C388 C389 1.524 . S
C388 C402 1.377 . S
C389 C388 1.524 . S
C389 C390 1.397 . S
C389 C394 1.363 . S
C390 H367 0.950 . S
C390 C389 1.397 . S
C390 C391 1.334 . S
C391 H368 0.950 . S
C391 C390 1.334 . S
C391 C392 1.287 . S
C392 C391 1.287 . S
C392 C393 1.524 . S
C392 H411 0.913 . S
C393 H369 0.950 . S
C393 C392 1.524 . S
C393 C394 1.415 . S
C394 H370 0.950 . S
C394 C389 1.363 . S
C394 C393 1.415 . S
C395 H371 0.951 . S
C395 C396 1.366 1_455 S
C395 C397 1.388 . S
C396 C395 1.366 1_655 S
C396 C400 1.385 . S
C397 H372 0.951 . S
C397 C395 1.388 . S
C397 C398 1.366 . S
C398 C397 1.366 . S
C398 C399 1.414 . S
C398 C401 1.499 . S
C399 H373 0.950 . S
C399 C398 1.414 . S
C399 C400 1.374 1_455 S
C400 H374 0.950 . S
C400 C396 1.385 . S
C400 C399 1.374 1_655 S
C401 C398 1.499 . S
C401 C402 1.373 . S
C401 C403 1.389 . S
C402 H375 0.950 . S
C402 C388 1.377 . S
C402 C401 1.373 . S
C403 C387 1.377 . S
C403 C401 1.389 . S
C403 C404 1.524 . S
C404 C403 1.524 . S
C404 C405 1.397 . S
C404 C409 1.363 . S
C405 H376 0.950 . S
C405 C404 1.397 . S
C405 C406 1.334 . S
C406 H377 0.950 . S
C406 C405 1.334 . S
C406 C407 1.287 . S
C407 C406 1.287 . S
C407 C408 1.524 . S
C407 H410 0.999 . S
C408 H378 0.950 . S
C408 C407 1.524 . S
C408 C409 1.415 . S
C409 H379 0.950 . S
C409 C404 1.363 . S
C409 C408 1.415 . S
H410 C407 0.999 . S
H411 C392 0.913 . S
H412 C430 0.951 . S
H413 C432 0.951 . S
H414 C434 0.950 . S
H415 C435 0.950 . S
H416 C437 0.950 . S
H417 C440 0.950 . S
H418 C441 0.950 . S
H419 C443 0.950 . S
H420 C444 0.950 . S
H421 C445 0.951 . S
H422 C447 0.951 . S
H423 C449 0.950 . S
H424 C450 0.950 . S
H425 C452 0.950 . S
H426 C455 0.950 . S
H427 C456 0.950 . S
H428 C458 0.950 . S
H429 C459 0.950 . S
C430 H412 0.951 . S
C430 C431 1.366 . S
C430 C432 1.388 1_545 S
C431 C430 1.366 . S
C431 C435 1.385 . S
C432 H413 0.951 . S
C432 C430 1.388 1_565 S
C432 C433 1.366 . S
C433 C432 1.366 . S
C433 C434 1.414 . S
C433 C436 1.499 . S
C434 H414 0.950 . S
C434 C433 1.414 . S
C434 C435 1.374 1_565 S
C435 H415 0.950 . S
C435 C431 1.385 . S
C435 C434 1.374 1_545 S
C436 C433 1.499 . S
C436 C437 1.373 . S
C436 C438 1.389 . S
C437 H416 0.950 . S
C437 C436 1.373 . S
C437 C453 1.377 . S
C438 C436 1.389 . S
C438 C439 1.524 . S
C438 C452 1.377 . S
C439 C438 1.524 . S
C439 C440 1.397 . S
C439 C444 1.363 . S
C440 H417 0.950 . S
C440 C439 1.397 . S
C440 C441 1.334 . S
C441 H418 0.950 . S
C441 C440 1.334 . S
C441 C442 1.287 . S
C442 C441 1.287 . S
C442 C443 1.524 . S
C442 H461 0.913 . S
C443 H419 0.950 . S
C443 C442 1.524 . S
C443 C444 1.415 . S
C444 H420 0.950 . S
C444 C439 1.363 . S
C444 C443 1.415 . S
C445 H421 0.951 . S
C445 C446 1.366 . S
C445 C447 1.388 . S
C446 C445 1.366 . S
C446 C450 1.385 . S
C447 H422 0.951 . S
C447 C445 1.388 . S
C447 C448 1.366 . S
C448 C447 1.366 . S
C448 C449 1.414 . S
C448 C451 1.499 . S
C449 H423 0.950 . S
C449 C448 1.414 . S
C449 C450 1.374 . S
C450 H424 0.950 . S
C450 C446 1.385 . S
C450 C449 1.374 . S
C451 C448 1.499 . S
C451 C452 1.373 . S
C451 C453 1.389 . S
C452 H425 0.950 . S
C452 C438 1.377 . S
C452 C451 1.373 . S
C453 C437 1.377 . S
C453 C451 1.389 . S
C453 C454 1.524 . S
C454 C453 1.524 . S
C454 C455 1.397 . S
C454 C459 1.363 . S
C455 H426 0.950 . S
C455 C454 1.397 . S
C455 C456 1.334 . S
C456 H427 0.950 . S
C456 C455 1.334 . S
C456 C457 1.287 . S
C457 C456 1.287 . S
C457 C458 1.524 . S
C457 H460 0.999 . S
C458 H428 0.950 . S
C458 C457 1.524 . S
C458 C459 1.415 . S
C459 H429 0.950 . S
C459 C454 1.363 . S
C459 C458 1.415 . S
H460 C457 0.999 . S
H461 C442 0.913 . S
H462 C480 0.951 . S
H463 C482 0.951 . S
H464 C484 0.950 . S
H465 C485 0.950 . S
H466 C487 0.950 . S
H467 C490 0.950 . S
H468 C491 0.950 . S
H469 C493 0.950 . S
H470 C494 0.950 . S
H471 C495 0.951 . S
H472 C497 0.951 . S
H473 C499 0.950 . S
H474 C500 0.950 . S
H475 C502 0.950 . S
H476 C505 0.950 . S
H477 C506 0.950 . S
H478 C508 0.950 . S
H479 C509 0.950 . S
C480 H462 0.951 . S
C480 C481 1.366 . S
C480 C482 1.388 . S
C481 C480 1.366 . S
C481 C485 1.385 . S
C482 H463 0.951 . S
C482 C480 1.388 . S
C482 C483 1.366 . S
C483 C482 1.366 . S
C483 C484 1.414 . S
C483 C486 1.499 . S
C484 H464 0.950 . S
C484 C483 1.414 . S
C484 C485 1.374 . S
C485 H465 0.950 . S
C485 C481 1.385 . S
C485 C484 1.374 . S
C486 C483 1.499 . S
C486 C487 1.373 . S
C486 C488 1.389 . S
C487 H466 0.950 . S
C487 C486 1.373 . S
C487 C503 1.377 . S
C488 C486 1.389 . S
C488 C489 1.524 . S
C488 C502 1.377 . S
C489 C488 1.524 . S
C489 C490 1.397 . S
C489 C494 1.363 . S
C490 H467 0.950 . S
C490 C489 1.397 . S
C490 C491 1.334 . S
C491 H468 0.950 . S
C491 C490 1.334 . S
C491 C492 1.287 . S
C492 C491 1.287 . S
C492 C493 1.524 . S
C492 H511 0.913 . S
C493 H469 0.950 . S
C493 C492 1.524 . S
C493 C494 1.415 . S
C494 H470 0.950 . S
C494 C489 1.363 . S
C494 C493 1.415 . S
C495 H471 0.951 . S
C495 C496 1.366 . S
C495 C497 1.388 1_455 S
C496 C495 1.366 . S
C496 C500 1.385 . S
C497 H472 0.951 . S
C497 C495 1.388 1_655 S
C497 C498 1.366 . S
C498 C497 1.366 . S
C498 C499 1.414 . S
C498 C501 1.499 . S
C499 H473 0.950 . S
C499 C498 1.414 . S
C499 C500 1.374 1_655 S
C500 H474 0.950 . S
C500 C496 1.385 . S
C500 C499 1.374 1_455 S
C501 C498 1.499 . S
C501 C502 1.373 . S
C501 C503 1.389 . S
C502 H475 0.950 . S
C502 C488 1.377 . S
C502 C501 1.373 . S
C503 C487 1.377 . S
C503 C501 1.389 . S
C503 C504 1.524 . S
C504 C503 1.524 . S
C504 C505 1.397 . S
C504 C509 1.363 . S
C505 H476 0.950 . S
C505 C504 1.397 . S
C505 C506 1.334 1_655 S
C506 H477 0.950 . S
C506 C505 1.334 1_455 S
C506 C507 1.287 . S
C507 C506 1.287 . S
C507 C508 1.524 1_455 S
C507 H510 0.999 . S
C508 H478 0.950 . S
C508 C507 1.524 1_655 S
C508 C509 1.415 . S
C509 H479 0.950 . S
C509 C504 1.363 . S
C509 C508 1.415 . S
H510 C507 0.999 . S
H511 C492 0.913 . S
H512 C530 0.951 . S
H513 C532 0.951 . S
H514 C534 0.950 . S
H515 C535 0.950 . S
H516 C537 0.950 . S
H517 C540 0.950 . S
H518 C541 0.950 . S
H519 C543 0.950 . S
H520 C544 0.950 . S
H521 C545 0.951 . S
H522 C547 0.951 . S
H523 C549 0.950 . S
H524 C550 0.950 . S
H525 C552 0.950 . S
H526 C555 0.950 . S
H527 C556 0.950 . S
H528 C558 0.950 . S
H529 C559 0.950 . S
C530 H512 0.951 . S
C530 C531 1.366 . S
C530 C532 1.388 . S
C531 C530 1.366 . S
C531 C535 1.385 . S
C532 H513 0.951 . S
C532 C530 1.388 . S
C532 C533 1.366 . S
C533 C532 1.366 . S
C533 C534 1.414 . S
C533 C536 1.499 . S
C534 H514 0.950 . S
C534 C533 1.414 . S
C534 C535 1.374 . S
C535 H515 0.950 . S
C535 C531 1.385 . S
C535 C534 1.374 . S
C536 C533 1.499 . S
C536 C537 1.373 . S
C536 C538 1.389 1_554 S
C537 H516 0.950 . S
C537 C536 1.373 . S
C537 C553 1.377 . S
C538 C536 1.389 1_556 S
C538 C539 1.524 . S
C538 C552 1.377 . S
C539 C538 1.524 . S
C539 C540 1.397 . S
C539 C544 1.363 . S
C540 H517 0.950 . S
C540 C539 1.397 . S
C540 C541 1.334 . S
C541 H518 0.950 . S
C541 C540 1.334 . S
C541 C542 1.287 . S
C542 C541 1.287 . S
C542 C543 1.524 . S
C542 H561 0.913 . S
C543 H519 0.950 . S
C543 C542 1.524 . S
C543 C544 1.415 . S
C544 H520 0.950 . S
C544 C539 1.363 . S
C544 C543 1.415 . S
C545 H521 0.951 . S
C545 C546 1.366 . S
C545 C547 1.388 . S
C546 C545 1.366 . S
C546 C550 1.385 . S
C547 H522 0.951 . S
C547 C545 1.388 . S
C547 C548 1.366 . S
C548 C547 1.366 . S
C548 C549 1.414 . S
C548 C551 1.499 . S
C549 H523 0.950 . S
C549 C548 1.414 . S
C549 C550 1.374 . S
C550 H524 0.950 . S
C550 C546 1.385 . S
C550 C549 1.374 . S
C551 C548 1.499 . S
C551 C552 1.373 . S
C551 C553 1.389 1_556 S
C552 H525 0.950 . S
C552 C538 1.377 . S
C552 C551 1.373 . S
C553 C537 1.377 . S
C553 C551 1.389 1_554 S
C553 C554 1.524 . S
C554 C553 1.524 . S
C554 C555 1.397 . S
C554 C559 1.363 . S
C555 H526 0.950 . S
C555 C554 1.397 . S
C555 C556 1.334 . S
C556 H527 0.950 . S
C556 C555 1.334 . S
C556 C557 1.287 . S
C557 C556 1.287 . S
C557 C558 1.524 . S
C557 H560 0.999 . S
C558 H528 0.950 . S
C558 C557 1.524 . S
C558 C559 1.415 . S
C559 H529 0.950 . S
C559 C554 1.363 . S
C559 C558 1.415 . S
H560 C557 0.999 . S
H561 C542 0.913 . S
H562 C580 0.951 . S
H563 C582 0.951 . S
H564 C584 0.950 . S
H565 C585 0.950 1_556 S
H566 C587 0.950 . S
H567 C590 0.950 . S
H568 C591 0.950 1_556 S
H569 C593 0.950 . S
H570 C594 0.950 . S
H571 C595 0.951 . S
H572 C597 0.951 . S
H573 C599 0.950 1_554 S
H574 C600 0.950 . S
H575 C602 0.955 . S
H576 C605 0.950 1_554 S
H577 C606 0.950 . S
H578 C608 0.950 . S
H579 C609 0.950 . S
C580 H562 0.951 . S
C580 C581 1.366 . S
C580 C582 1.388 . S
C581 C580 1.366 . S
C581 C585 1.385 . S
C582 H563 0.951 . S
C582 C580 1.388 . S
C582 C583 1.366 . S
C583 C582 1.366 . S
C583 C584 1.414 1_554 S
C583 C586 1.499 . S
C584 H564 0.950 . S
C584 C583 1.414 1_556 S
C584 C585 1.374 1_556 S
C585 H565 0.950 1_554 S
C585 C581 1.385 . S
C585 C584 1.374 1_554 S
C586 C583 1.499 . S
C586 C587 1.373 1_554 S
C586 C588 1.389 . S
C587 H566 0.950 . S
C587 C586 1.373 1_556 S
C587 C603 1.377 . S
C588 C586 1.389 . S
C588 C589 1.524 . S
C588 C602 1.377 1_554 S
C589 C588 1.524 . S
C589 C590 1.397 1_554 S
C589 C594 1.363 . S
C590 H567 0.950 . S
C590 C589 1.397 1_556 S
C590 C591 1.334 1_556 S
C591 H568 0.950 1_554 S
C591 C590 1.334 1_554 S
C591 C592 1.287 . S
C592 C591 1.287 . S
C592 C593 1.524 . S
C592 H611 0.913 . S
C593 H569 0.950 . S
C593 C592 1.524 . S
C593 C594 1.415 . S
C594 H570 0.950 . S
C594 C589 1.363 . S
C594 C593 1.415 . S
C595 H571 0.951 . S
C595 C596 1.366 . S
C595 C597 1.388 . S
C596 C595 1.366 . S
C596 C600 1.385 . S
C597 H572 0.951 . S
C597 C595 1.388 . S
C597 C598 1.366 . S
C598 C597 1.366 . S
C598 C599 1.414 . S
C598 C601 1.499 . S
C599 H573 0.950 1_556 S
C599 C598 1.414 . S
C599 C600 1.374 . S
C600 H574 0.950 . S
C600 C596 1.385 . S
C600 C599 1.374 . S
C601 C598 1.499 . S
C601 C602 1.373 . S
C601 C603 1.389 . S
C602 H575 0.955 . S
C602 C588 1.377 1_556 S
C602 C601 1.373 . S
C603 C587 1.377 . S
C603 C601 1.389 . S
C603 C604 1.524 . S
C604 C603 1.524 . S
C604 C605 1.397 . S
C604 C609 1.363 . S
C605 H576 0.950 1_556 S
C605 C604 1.397 . S
C605 C606 1.334 . S
C606 H577 0.950 . S
C606 C605 1.334 . S
C606 C607 1.287 . S
C607 C606 1.287 . S
C607 C608 1.524 . S
C607 H610 0.999 . S
C608 H578 0.950 . S
C608 C607 1.524 . S
C608 C609 1.415 . S
C609 H579 0.950 . S
C609 C604 1.363 . S
C609 C608 1.415 . S
H610 C607 0.999 . S
H611 C592 0.913 . S
H612 C630 0.951 . S
H613 C632 0.951 . S
H614 C634 0.950 1_556 S
H615 C635 0.950 . S
H616 C637 0.950 . S
H617 C640 0.950 . S
H618 C641 0.950 . S
H619 C643 0.950 . S
H620 C644 0.950 . S
H621 C645 0.951 . S
H622 C647 0.951 . S
H623 C649 0.950 1_554 S
H624 C650 0.950 . S
H625 C652 0.950 . S
H626 C655 0.950 . S
H627 C656 0.950 . S
H628 C658 0.950 . S
H629 C659 0.950 . S
C630 H612 0.951 . S
C630 C631 1.366 . S
C630 C632 1.388 . S
C631 C630 1.366 . S
C631 C635 1.385 . S
C632 H613 0.951 . S
C632 C630 1.388 . S
C632 C633 1.366 . S
C633 C632 1.366 . S
C633 C634 1.414 . S
C633 C636 1.499 . S
C634 H614 0.950 1_554 S
C634 C633 1.414 . S
C634 C635 1.374 . S
C635 H615 0.950 . S
C635 C631 1.385 . S
C635 C634 1.374 . S
C636 C633 1.499 . S
C636 C637 1.373 1_554 S
C636 C638 1.389 . S
C637 H616 0.950 . S
C637 C636 1.373 1_556 S
C637 C653 1.377 . S
C638 C636 1.389 . S
C638 C639 1.524 . S
C638 C652 1.377 . S
C639 C638 1.524 . S
C639 C640 1.397 . S
C639 C644 1.363 . S
C640 H617 0.950 . S
C640 C639 1.397 . S
C640 C641 1.334 . S
C641 H618 0.950 . S
C641 C640 1.334 . S
C641 C642 1.287 . S
C642 C641 1.287 . S
C642 C643 1.524 . S
C642 H661 0.913 . S
C643 H619 0.950 . S
C643 C642 1.524 . S
C643 C644 1.415 . S
C644 H620 0.950 . S
C644 C639 1.363 . S
C644 C643 1.415 . S
C645 H621 0.951 . S
C645 C646 1.366 . S
C645 C647 1.388 . S
C646 C645 1.366 . S
C646 C650 1.385 . S
C647 H622 0.951 . S
C647 C645 1.388 . S
C647 C648 1.366 . S
C648 C647 1.366 . S
C648 C649 1.414 . S
C648 C651 1.499 . S
C649 H623 0.950 1_556 S
C649 C648 1.414 . S
C649 C650 1.374 . S
C650 H624 0.950 . S
C650 C646 1.385 . S
C650 C649 1.374 . S
C651 C648 1.499 . S
C651 C652 1.373 1_556 S
C651 C653 1.389 . S
C652 H625 0.950 . S
C652 C638 1.377 . S
C652 C651 1.373 1_554 S
C653 C637 1.377 . S
C653 C651 1.389 . S
C653 C654 1.524 . S
C654 C653 1.524 . S
C654 C655 1.397 . S
C654 C659 1.363 . S
C655 H626 0.950 . S
C655 C654 1.397 . S
C655 C656 1.334 . S
C656 H627 0.950 . S
C656 C655 1.334 . S
C656 C657 1.287 . S
C657 C656 1.287 . S
C657 C658 1.524 . S
C657 H660 0.999 . S
C658 H628 0.950 . S
C658 C657 1.524 . S
C658 C659 1.415 . S
C659 H629 0.950 . S
C659 C654 1.363 . S
C659 C658 1.415 . S
H660 C657 0.999 . S
H661 C642 0.913 . S
H662 C680 0.951 . S
H663 C682 0.951 . S
H664 C684 0.950 . S
H665 C685 0.950 . S
H666 C687 0.950 . S
H667 C690 0.950 . S
H668 C691 0.950 . S
H669 C693 0.950 . S
H670 C694 0.950 . S
H671 C695 0.951 . S
H672 C697 0.951 . S
H673 C699 0.950 . S
H674 C700 0.950 . S
H675 C702 0.950 . S
H676 C705 0.950 . S
H677 C706 0.950 . S
H678 C708 0.950 . S
H679 C709 0.950 . S
C680 H662 0.951 . S
C680 C681 1.366 . S
C680 C682 1.388 . S
C681 C680 1.366 . S
C681 C685 1.385 . S
C682 H663 0.951 . S
C682 C680 1.388 . S
C682 C683 1.366 . S
C683 C682 1.366 . S
C683 C684 1.414 . S
C683 C686 1.499 . S
C684 H664 0.950 . S
C684 C683 1.414 . S
C684 C685 1.374 . S
C685 H665 0.950 . S
C685 C681 1.385 . S
C685 C684 1.374 . S
C686 C683 1.499 . S
C686 C687 1.373 1_556 S
C686 C688 1.389 . S
C687 H666 0.950 . S
C687 C686 1.373 1_554 S
C687 C703 1.377 . S
C688 C686 1.389 . S
C688 C689 1.524 . S
C688 C702 1.377 . S
C689 C688 1.524 . S
C689 C690 1.397 . S
C689 C694 1.363 . S
C690 H667 0.950 . S
C690 C689 1.397 . S
C690 C691 1.334 . S
C691 H668 0.950 . S
C691 C690 1.334 . S
C691 C692 1.287 . S
C692 C691 1.287 . S
C692 C693 1.524 . S
C692 H711 0.913 . S
C693 H669 0.950 . S
C693 C692 1.524 . S
C693 C694 1.415 . S
C694 H670 0.950 . S
C694 C689 1.363 . S
C694 C693 1.415 . S
C695 H671 0.951 . S
C695 C696 1.366 . S
C695 C697 1.388 . S
C696 C695 1.366 . S
C696 C700 1.385 . S
C697 H672 0.951 . S
C697 C695 1.388 . S
C697 C698 1.366 . S
C698 C697 1.366 . S
C698 C699 1.414 . S
C698 C701 1.499 . S
C699 H673 0.950 . S
C699 C698 1.414 . S
C699 C700 1.374 . S
C700 H674 0.950 . S
C700 C696 1.385 . S
C700 C699 1.374 . S
C701 C698 1.499 . S
C701 C702 1.373 1_554 S
C701 C703 1.389 . S
C702 H675 0.950 . S
C702 C688 1.377 . S
C702 C701 1.373 1_556 S
C703 C687 1.377 . S
C703 C701 1.389 . S
C703 C704 1.524 . S
C704 C703 1.524 . S
C704 C705 1.397 . S
C704 C709 1.363 . S
C705 H676 0.950 . S
C705 C704 1.397 . S
C705 C706 1.334 . S
C706 H677 0.950 . S
C706 C705 1.334 . S
C706 C707 1.287 . S
C707 C706 1.287 . S
C707 C708 1.524 . S
C707 H710 0.999 . S
C708 H678 0.950 . S
C708 C707 1.524 . S
C708 C709 1.415 . S
C709 H679 0.950 . S
C709 C704 1.363 . S
C709 C708 1.415 . S
H710 C707 0.999 . S
H711 C692 0.913 . S
H712 C730 0.951 . S
H713 C732 0.951 . S
H714 C734 0.950 . S
H715 C735 0.950 . S
H716 C737 0.950 . S
H717 C740 0.950 . S
H718 C741 0.950 . S
H719 C743 0.950 . S
H720 C744 0.950 . S
H721 C745 0.951 . S
H722 C747 0.951 . S
H723 C749 0.950 . S
H724 C750 0.950 . S
H725 C752 0.950 . S
H726 C755 0.950 . S
H727 C756 0.950 . S
H728 C758 0.950 . S
H729 C759 0.950 . S
C730 H712 0.951 . S
C730 C731 1.366 . S
C730 C732 1.388 . S
C731 C730 1.366 . S
C731 C735 1.385 . S
C732 H713 0.951 . S
C732 C730 1.388 . S
C732 C733 1.366 . S
C733 C732 1.366 . S
C733 C734 1.414 . S
C733 C736 1.499 . S
C734 H714 0.950 . S
C734 C733 1.414 . S
C734 C735 1.374 . S
C735 H715 0.950 . S
C735 C731 1.385 . S
C735 C734 1.374 . S
C736 C733 1.499 . S
C736 C737 1.373 . S
C736 C738 1.389 . S
C737 H716 0.950 . S
C737 C736 1.373 . S
C737 C753 1.377 1_655 S
C738 C736 1.389 . S
C738 C739 1.524 . S
C738 C752 1.377 1_655 S
C739 C738 1.524 . S
C739 C740 1.397 1_655 S
C739 C744 1.363 . S
C740 H717 0.950 . S
C740 C739 1.397 1_455 S
C740 C741 1.334 . S
C741 H718 0.950 . S
C741 C740 1.334 . S
C741 C742 1.279 1_455 S
C742 C741 1.279 1_655 S
C742 C743 1.535 . S
C742 H761 0.914 . S
C743 H719 0.950 . S
C743 C742 1.535 . S
C743 C744 1.415 . S
C744 H720 0.950 . S
C744 C739 1.363 . S
C744 C743 1.415 . S
C745 H721 0.951 . S
C745 C746 1.366 . S
C745 C747 1.388 . S
C746 C745 1.366 . S
C746 C750 1.385 . S
C747 H722 0.951 . S
C747 C745 1.388 . S
C747 C748 1.366 . S
C748 C747 1.366 . S
C748 C749 1.414 . S
C748 C751 1.499 . S
C749 H723 0.950 . S
C749 C748 1.414 . S
C749 C750 1.374 . S
C750 H724 0.950 . S
C750 C746 1.385 . S
C750 C749 1.374 . S
C751 C748 1.499 . S
C751 C752 1.373 . S
C751 C753 1.389 . S
C752 H725 0.950 . S
C752 C738 1.377 1_455 S
C752 C751 1.373 . S
C753 C737 1.377 1_455 S
C753 C751 1.389 . S
C753 C754 1.524 . S
C754 C753 1.524 . S
C754 C755 1.397 1_455 S
C754 C759 1.363 . S
C755 H726 0.950 . S
C755 C754 1.397 1_655 S
C755 C756 1.334 . S
C756 H727 0.950 . S
C756 C755 1.334 . S
C756 C757 1.279 1_655 S
C757 C756 1.279 1_455 S
C757 C758 1.535 . S
C757 H760 1.000 . S
C758 H728 0.950 . S
C758 C757 1.535 . S
C758 C759 1.415 . S
C759 H729 0.950 . S
C759 C754 1.363 . S
C759 C758 1.415 . S
H760 C757 1.000 . S
H761 C742 0.914 . S
H762 C780 0.951 . S
H763 C782 0.951 . S
H764 C784 0.950 . S
H765 C785 0.950 . S
H766 C787 0.950 . S
H767 C790 0.950 . S
H768 C791 0.950 . S
H769 C793 0.950 . S
H770 C794 0.950 . S
H771 C795 0.951 . S
H772 C797 0.951 . S
H773 C799 0.950 . S
H774 C800 0.950 . S
H775 C802 0.950 . S
H776 C805 0.950 . S
H777 C806 0.950 . S
H778 C808 0.950 . S
H779 C809 0.950 . S
C780 H762 0.951 . S
C780 C781 1.366 . S
C780 C782 1.388 . S
C781 C780 1.366 . S
C781 C785 1.385 . S
C782 H763 0.951 . S
C782 C780 1.388 . S
C782 C783 1.366 . S
C783 C782 1.366 . S
C783 C784 1.414 . S
C783 C786 1.499 . S
C784 H764 0.950 . S
C784 C783 1.414 . S
C784 C785 1.374 . S
C785 H765 0.950 . S
C785 C781 1.385 . S
C785 C784 1.374 . S
C786 C783 1.499 . S
C786 C787 1.373 1_545 S
C786 C788 1.389 . S
C787 H766 0.950 . S
C787 C786 1.373 1_565 S
C787 C803 1.377 . S
C788 C786 1.389 . S
C788 C789 1.524 . S
C788 C802 1.377 . S
C789 C788 1.524 . S
C789 C790 1.397 . S
C789 C794 1.363 . S
C790 H767 0.950 . S
C790 C789 1.397 . S
C790 C791 1.334 . S
C791 H768 0.950 . S
C791 C790 1.334 . S
C791 C792 1.287 . S
C792 C791 1.287 . S
C792 C793 1.524 . S
C792 H811 0.913 . S
C793 H769 0.950 . S
C793 C792 1.524 . S
C793 C794 1.415 . S
C794 H770 0.950 . S
C794 C789 1.363 . S
C794 C793 1.415 . S
C795 H771 0.951 . S
C795 C796 1.366 . S
C795 C797 1.388 . S
C796 C795 1.366 . S
C796 C800 1.385 . S
C797 H772 0.951 . S
C797 C795 1.388 . S
C797 C798 1.366 . S
C798 C797 1.366 . S
C798 C799 1.414 . S
C798 C801 1.499 . S
C799 H773 0.950 . S
C799 C798 1.414 . S
C799 C800 1.374 . S
C800 H774 0.950 . S
C800 C796 1.385 . S
C800 C799 1.374 . S
C801 C798 1.499 . S
C801 C802 1.373 1_565 S
C801 C803 1.389 . S
C802 H775 0.950 . S
C802 C788 1.377 . S
C802 C801 1.373 1_545 S
C803 C787 1.377 . S
C803 C801 1.389 . S
C803 C804 1.524 . S
C804 C803 1.524 . S
C804 C805 1.397 . S
C804 C809 1.363 . S
C805 H776 0.950 . S
C805 C804 1.397 . S
C805 C806 1.334 . S
C806 H777 0.950 . S
C806 C805 1.334 . S
C806 C807 1.287 . S
C807 C806 1.287 . S
C807 C808 1.524 . S
C807 H810 0.999 . S
C808 H778 0.950 . S
C808 C807 1.524 . S
C808 C809 1.415 . S
C809 H779 0.950 . S
C809 C804 1.363 . S
C809 C808 1.415 . S
H810 C807 0.999 . S
H811 C792 0.913 . S
H812 C830 0.951 . S
H813 C832 0.951 . S
H814 C834 0.950 . S
H815 C835 0.950 . S
H816 C837 0.950 . S
H817 C840 0.950 . S
H818 C841 0.950 . S
H819 C843 0.950 . S
H820 C844 0.950 . S
H821 C845 0.951 . S
H822 C847 0.951 . S
H823 C849 0.950 . S
H824 C850 0.950 . S
H825 C852 0.950 . S
H826 C855 0.946 1_556 S
H827 C856 0.950 . S
H828 C858 0.950 . S
H829 C859 0.950 . S
C830 H812 0.951 . S
C830 C831 1.366 . S
C830 C832 1.388 . S
C831 C830 1.366 . S
C831 C835 1.385 . S
C832 H813 0.951 . S
C832 C830 1.388 . S
C832 C833 1.366 . S
C833 C832 1.366 . S
C833 C834 1.414 . S
C833 C836 1.499 . S
C834 H814 0.950 . S
C834 C833 1.414 . S
C834 C835 1.374 . S
C835 H815 0.950 . S
C835 C831 1.385 . S
C835 C834 1.374 . S
C836 C833 1.499 . S
C836 C837 1.373 . S
C836 C838 1.389 . S
C837 H816 0.950 . S
C837 C836 1.373 . S
C837 C853 1.377 1_545 S
C838 C836 1.389 . S
C838 C839 1.524 . S
C838 C852 1.377 1_545 S
C839 C838 1.524 . S
C839 C840 1.397 . S
C839 C844 1.363 1_545 S
C840 H817 0.950 . S
C840 C839 1.397 . S
C840 C841 1.334 . S
C841 H818 0.950 . S
C841 C840 1.334 . S
C841 C842 1.287 . S
C842 C841 1.287 . S
C842 C843 1.524 1_545 S
C842 H861 0.913 . S
C843 H819 0.950 . S
C843 C842 1.524 1_565 S
C843 C844 1.415 . S
C844 H820 0.950 . S
C844 C839 1.363 1_565 S
C844 C843 1.415 . S
C845 H821 0.951 . S
C845 C846 1.366 . S
C845 C847 1.388 . S
C846 C845 1.366 . S
C846 C850 1.385 . S
C847 H822 0.951 . S
C847 C845 1.388 . S
C847 C848 1.366 . S
C848 C847 1.366 . S
C848 C849 1.414 . S
C848 C851 1.499 . S
C849 H823 0.950 . S
C849 C848 1.414 . S
C849 C850 1.374 . S
C850 H824 0.950 . S
C850 C846 1.385 . S
C850 C849 1.374 . S
C851 C848 1.499 . S
C851 C852 1.373 . S
C851 C853 1.389 . S
C852 H825 0.950 . S
C852 C838 1.377 1_565 S
C852 C851 1.373 . S
C853 C837 1.377 1_565 S
C853 C851 1.389 . S
C853 C854 1.524 . S
C854 C853 1.524 . S
C854 C855 1.392 1_556 S
C854 C859 1.363 1_565 S
C855 H826 0.946 1_554 S
C855 C854 1.392 1_554 S
C855 C856 1.342 . S
C856 H827 0.950 . S
C856 C855 1.342 . S
C856 C857 1.287 . S
C857 C856 1.287 . S
C857 C858 1.524 1_565 S
C857 H860 0.999 . S
C858 H828 0.950 . S
C858 C857 1.524 1_545 S
C858 C859 1.415 1_554 S
C859 H829 0.950 . S
C859 C854 1.363 1_545 S
C859 C858 1.415 1_556 S
H860 C857 0.999 . S
H861 C842 0.913 . S
H862 C880 0.951 . S
H863 C882 0.951 . S
H864 C884 0.950 . S
H865 C885 0.950 . S
H866 C887 0.950 . S
H867 C890 0.950 . S
H868 C891 0.950 . S
H869 C893 0.950 . S
H870 C894 0.950 . S
H871 C895 0.951 . S
H872 C897 0.951 . S
H873 C899 0.950 . S
H874 C900 0.950 . S
H875 C902 0.950 . S
H876 C905 0.950 . S
H877 C906 0.950 . S
H878 C908 0.950 . S
H879 C909 0.950 . S
C880 H862 0.951 . S
C880 C881 1.366 . S
C880 C882 1.388 . S
C881 C880 1.366 . S
C881 C885 1.385 . S
C882 H863 0.951 . S
C882 C880 1.388 . S
C882 C883 1.366 . S
C883 C882 1.366 . S
C883 C884 1.414 . S
C883 C886 1.499 . S
C884 H864 0.950 . S
C884 C883 1.414 . S
C884 C885 1.374 . S
C885 H865 0.950 . S
C885 C881 1.385 . S
C885 C884 1.374 . S
C886 C883 1.499 . S
C886 C887 1.373 . S
C886 C888 1.389 . S
C887 H866 0.950 . S
C887 C886 1.373 . S
C887 C903 1.377 1_455 S
C888 C886 1.389 . S
C888 C889 1.524 . S
C888 C902 1.377 1_455 S
C889 C888 1.524 . S
C889 C890 1.397 . S
C889 C894 1.363 1_554 S
C890 H867 0.950 . S
C890 C889 1.397 . S
C890 C891 1.334 . S
C891 H868 0.950 . S
C891 C890 1.334 . S
C891 C892 1.287 1_554 S
C892 C891 1.287 1_556 S
C892 C893 1.524 . S
C892 H911 0.913 . S
C893 H869 0.950 . S
C893 C892 1.524 . S
C893 C894 1.415 . S
C894 H870 0.950 . S
C894 C889 1.363 1_556 S
C894 C893 1.415 . S
C895 H871 0.951 . S
C895 C896 1.366 . S
C895 C897 1.388 . S
C896 C895 1.366 . S
C896 C900 1.385 . S
C897 H872 0.951 . S
C897 C895 1.388 . S
C897 C898 1.366 . S
C898 C897 1.366 . S
C898 C899 1.414 . S
C898 C901 1.499 . S
C899 H873 0.950 . S
C899 C898 1.414 . S
C899 C900 1.374 . S
C900 H874 0.950 . S
C900 C896 1.385 . S
C900 C899 1.374 . S
C901 C898 1.499 . S
C901 C902 1.373 . S
C901 C903 1.389 . S
C902 H875 0.950 . S
C902 C888 1.377 1_655 S
C902 C901 1.373 . S
C903 C887 1.377 1_655 S
C903 C901 1.389 . S
C903 C904 1.524 . S
C904 C903 1.524 . S
C904 C905 1.397 . S
C904 C909 1.363 . S
C905 H876 0.950 . S
C905 C904 1.397 . S
C905 C906 1.334 . S
C906 H877 0.950 . S
C906 C905 1.334 . S
C906 C907 1.287 . S
C907 C906 1.287 . S
C907 C908 1.524 . S
C907 H910 0.999 . S
C908 H878 0.950 . S
C908 C907 1.524 . S
C908 C909 1.415 . S
C909 H879 0.950 . S
C909 C904 1.363 . S
C909 C908 1.415 . S
H910 C907 0.999 . S
H911 C892 0.913 . S
C131 C105 1.580 . S
C146 C7 1.580 . S
C181 C21 1.579 . S
C196 C63 1.579 . S
C231 C35 1.579 . S
C246 C77 1.580 . S
C281 C91 1.580 . S
C296 C49 1.579 . S
C331 C22 1.456 . S
C346 C6 1.448 . S
C381 C20 1.448 . S
C396 C36 1.456 . S
C431 C50 1.456 . S
C446 C34 1.448 . S
C481 C48 1.448 . S
C496 C8 1.456 . S
C531 C106 1.456 . S
C546 C62 1.448 . S
C581 C76 1.448 . S
C596 C64 1.456 . S
C631 C78 1.456 . S
C646 C90 1.448 . S
C681 C92 1.456 . S
C696 C104 1.448 . S
C731 C37 1.193 . S
C746 C9 1.194 . S
C781 C51 1.194 . S
C796 C23 1.193 . S
C831 C93 1.194 . S
C846 C65 1.193 . S
C881 C107 1.194 . S
C896 C79 1.194 . S
