# Generated by pormake.
# Topology lcy-e, (6)-cn, num edge types: 1
# Building blocks:
#     Node 0, Type 0, BuildingBlock: CUWYAW_clean_sbu_0, # of connection points: 6
#     Node 1, Type 0, BuildingBlock: CUWYAW_clean_sbu_0, # of connection points: 6
#     Node 2, Type 0, BuildingBlock: CUWYAW_clean_sbu_0, # of connection points: 6
#     Node 3, Type 0, BuildingBlock: CUWYAW_clean_sbu_0, # of connection points: 6
#     Node 4, Type 0, BuildingBlock: CUWYAW_clean_sbu_0, # of connection points: 6
#     Node 5, Type 0, BuildingBlock: CUWYAW_clean_sbu_0, # of connection points: 6
#     Node 6, Type 0, BuildingBlock: CUWYAW_clean_sbu_0, # of connection points: 6
#     Node 7, Type 0, BuildingBlock: CUWYAW_clean_sbu_0, # of connection points: 6
#     Node 8, Type 0, BuildingBlock: CUWYAW_clean_sbu_0, # of connection points: 6
#     Node 9, Type 0, BuildingBlock: CUWYAW_clean_sbu_0, # of connection points: 6
#     Node 10, Type 0, BuildingBlock: CUWYAW_clean_sbu_0, # of connection points: 6
#     Node 11, Type 0, BuildingBlock: CUWYAW_clean_sbu_0, # of connection points: 6
#     Edge 12, Type (0, 0), None
#     Edge 13, Type (0, 0), None
#     Edge 14, Type (0, 0), None
#     Edge 15, Type (0, 0), None
#     Edge 16, Type (0, 0), None
#     Edge 17, Type (0, 0), None
#     Edge 18, Type (0, 0), None
#     Edge 19, Type (0, 0), None
#     Edge 20, Type (0, 0), None
#     Edge 21, Type (0, 0), None
#     Edge 22, Type (0, 0), None
#     Edge 23, Type (0, 0), None
#     Edge 24, Type (0, 0), None
#     Edge 25, Type (0, 0), None
#     Edge 26, Type (0, 0), None
#     Edge 27, Type (0, 0), None
#     Edge 28, Type (0, 0), None
#     Edge 29, Type (0, 0), None
#     Edge 30, Type (0, 0), None
#     Edge 31, Type (0, 0), None
#     Edge 32, Type (0, 0), None
#     Edge 33, Type (0, 0), None
#     Edge 34, Type (0, 0), None
#     Edge 35, Type (0, 0), None
#     Edge 36, Type (0, 0), None
#     Edge 37, Type (0, 0), None
#     Edge 38, Type (0, 0), None
#     Edge 39, Type (0, 0), None
#     Edge 40, Type (0, 0), None
#     Edge 41, Type (0, 0), None
#     Edge 42, Type (0, 0), None
#     Edge 43, Type (0, 0), None
#     Edge 44, Type (0, 0), None
#     Edge 45, Type (0, 0), None
#     Edge 46, Type (0, 0), None
#     Edge 47, Type (0, 0), None
# Relax obj value: 0.203
# Max RMSD: 0.318
# Mean RMSD: 0.299
data_MOF--net-lcy-e--node1-CUWYAW_clean_sbu_0--edge1-none
_symmetry_space_group_name_H-M    P1
_symmetry_Int_Tables_number       1
_symmetry_cell_setting            triclinic
loop_
_symmetry_equiv_pos_as_xyz
'x, y, z'
_cell_length_a     23.427893
_cell_length_b     24.683337
_cell_length_c     24.573388
_cell_angle_alpha  91.382271
_cell_angle_beta   90.84238
_cell_angle_gamma 87.877907
loop_
_atom_site_label
_atom_site_type_symbol
_atom_site_fract_x
_atom_site_fract_y
_atom_site_fract_z
_atom_type_partial_charge
C0 C 0.10498 0.42239 0.45918 0.0
Eu1 Eu 0.11548 0.36346 0.54542 0.0
C2 C 0.14653 0.43871 0.41717 0.0
C3 C 0.1674 0.49127 0.41868 0.0
C4 C 0.20339 0.50831 0.37791 0.0
C5 C 0.21963 0.47359 0.33385 0.0
C6 C 0.20116 0.42007 0.33345 0.0
C7 C 0.16495 0.40285 0.37458 0.0
C8 C 0.07868 0.37159 0.65569 0.0
C9 C 0.2106 0.3963 0.61237 0.0
C10 C 0.13931 0.20944 0.70119 0.0
Eu11 Eu 0.14945 0.27525 0.62035 0.0
C12 C 0.11754 0.15384 0.70694 0.0
C13 C 0.15326 0.11283 0.72866 0.0
C14 C 0.13196 0.06198 0.73946 0.0
C15 C 0.07405 0.05067 0.72933 0.0
C16 C 0.03874 0.09088 0.70527 0.0
C17 C 0.06024 0.14187 0.69413 0.0
C18 C 0.21913 0.25477 0.53565 0.0
C19 C 0.03971 0.25904 0.53397 0.0
O20 O 0.09265 0.37108 0.45956 0.0
O21 O 0.11008 0.44352 0.50854 0.0
O22 O 0.09172 0.41222 0.62597 0.0
O23 O 0.07965 0.33241 0.62223 0.0
O24 O 0.20451 0.38429 0.5612 0.0
O25 O 0.19265 0.35888 0.64684 0.0
O26 O 0.10144 0.24712 0.68849 0.0
O27 O 0.18762 0.21488 0.6761 0.0
O28 O 0.219 0.2275 0.57977 0.0
O29 O 0.18235 0.29477 0.53706 0.0
O30 O 0.07895 0.23454 0.56601 0.0
O31 O 0.04279 0.31082 0.52386 0.0
H32 H 0.15469 0.51993 0.45073 0.0
H33 H 0.21677 0.54988 0.37986 0.0
H34 H 0.21209 0.39247 0.29997 0.0
H35 H 0.15014 0.36181 0.37206 0.0
H36 H 0.1974 0.12059 0.73889 0.0
H37 H 0.16074 1.03208 0.75782 0.0
H38 H 0.99402 0.08383 0.69717 0.0
H39 H 0.03135 0.17242 0.67699 0.0
C40 C 0.13209 0.94689 0.91614 0.0
Eu41 Eu 0.04391 0.92837 0.85303 0.0
C42 C 0.18037 0.91283 0.93809 0.0
C43 C 0.21461 0.93447 0.97955 0.0
C44 C 0.26307 0.90562 0.99835 0.0
C45 C 0.279 0.85383 0.97652 0.0
C46 C 0.24351 0.83096 0.93614 0.0
C47 C 0.19467 0.86042 0.91682 0.0
C48 C 0.93185 0.97704 0.85989 0.0
C49 C 0.98101 0.84366 0.89424 0.0
C50 C 0.88401 0.89028 0.69839 0.0
Eu51 Eu 0.96624 0.90318 0.77081 0.0
C52 C 0.86227 0.92448 0.65207 0.0
C53 C 0.87218 0.90844 0.59727 0.0
C54 C 0.84889 0.93897 0.55375 0.0
C55 C 0.81498 0.9862 0.56408 0.0
C56 C 0.80734 1.00331 0.6187 0.0
C57 C 0.83066 0.97322 0.66191 0.0
C58 C 0.06656 0.84803 0.75229 0.0
C59 C 0.05076 0.99999 0.75075 0.0
O60 O 0.13151 0.9539 0.86364 0.0
O61 O 0.08117 0.93903 0.93482 0.0
O62 O 0.96142 0.95668 0.89997 0.0
O63 O 0.96505 0.97478 0.82057 0.0
O64 O 0.03466 0.84936 0.88668 0.0
O65 O 0.94392 0.86083 0.8549 0.0
O66 O 0.87528 0.90853 0.74804 0.0
O67 O 0.93487 0.86775 0.69364 0.0
O68 O 0.04159 0.88099 0.71875 0.0
O69 O 0.04195 0.85239 0.7981 0.0
O70 O 0.99733 0.98558 0.74269 0.0
O71 O 0.08243 0.97314 0.78571 0.0
H72 H 0.20456 0.97446 0.99677 0.0
H73 H 0.28861 0.92465 1.03 0.0
H74 H 0.2544 0.79137 0.91846 0.0
H75 H 0.16872 0.8428 0.88463 0.0
H76 H 0.89646 0.87125 0.58805 0.0
H77 H 0.85438 0.92377 0.51238 0.0
H78 H 0.78065 0.039 0.62819 0.0
H79 H 0.82227 0.98749 0.70315 0.0
C80 C 0.4375 0.68833 0.92587 0.0
Eu81 Eu 0.42067 0.72923 1.02353 0.0
C82 C 0.40242 0.66812 0.87905 0.0
C83 C 0.42174 0.67568 0.82613 0.0
C84 C 0.39036 0.65767 0.78068 0.0
C85 C 0.33849 0.63151 0.78657 0.0
C86 C 0.31771 0.62572 0.8396 0.0
C87 C 0.34935 0.64401 0.88546 0.0
C88 C 0.45951 0.72386 0.13253 0.0
C89 C 0.33532 0.67981 0.08747 0.0
C90 C 0.36748 0.88125 0.16971 0.0
Eu91 Eu 0.38622 0.81065 0.09132 0.0
C92 C 0.39794 0.9319 0.18196 0.0
C93 C 0.36664 0.97999 0.19349 0.0
C94 C 0.39469 1.02751 0.20715 0.0
C95 C 0.4549 1.02823 0.21004 0.0
C96 C 0.4865 0.98082 0.19551 0.0
C97 C 0.45824 0.93306 0.18143 0.0
C98 C 0.33413 0.82756 0.99558 0.0
C99 C 0.50269 0.82643 1.02249 0.0
O100 O 0.43161 0.74041 0.93679 0.0
O101 O 0.44207 0.65926 0.96996 0.0
O102 O 0.44695 0.68165 0.10241 0.0
O103 O 0.46128 0.76296 0.10131 0.0
O104 O 0.36211 0.66883 0.04317 0.0
O105 O 0.33752 0.72969 0.11208 0.0
O106 O 0.39701 0.83607 0.1763 0.0
O107 O 0.3363 0.88014 0.12529 0.0
O108 O 0.37047 0.85984 1.01765 0.0
O109 O 0.33751 0.78211 1.01957 0.0
O110 O 0.46339 0.8511 0.05349 0.0
O111 O 0.49933 0.7747 1.01118 0.0
H112 H 0.46187 0.69494 0.81988 0.0
H113 H 0.40788 0.66258 0.7406 0.0
H114 H 0.27839 0.60511 0.84577 0.0
H115 H 0.33285 0.63854 0.92582 0.0
H116 H 0.32036 0.98054 0.19321 0.0
H117 H 0.3689 0.06344 0.21785 0.0
H118 H 0.53273 0.9798 0.19787 0.0
H119 H 0.48365 0.8967 0.17155 0.0
C120 C 0.38563 0.14448 0.39667 0.0
Eu121 Eu 0.48317 0.14744 0.34553 0.0
C122 C 0.34577 0.18203 0.42856 0.0
C123 C 0.36053 0.2015 0.48095 0.0
C124 C 0.32021 0.23039 0.51321 0.0
C125 C 0.26391 0.24131 0.49427 0.0
C126 C 0.24991 0.22493 0.44072 0.0
C127 C 0.29036 0.19559 0.4083 0.0
C128 C 0.59125 0.09389 0.36112 0.0
C129 C 0.56154 0.22315 0.39465 0.0
C130 C 0.66205 0.17 0.2027 0.0
Eu131 Eu 0.57408 0.16657 0.26723 0.0
C132 C 0.68198 0.13548 0.15479 0.0
C133 C 0.66405 0.14672 0.10089 0.0
C134 C 0.6859 0.1159 0.05611 0.0
C135 C 0.72645 0.07323 0.06411 0.0
C136 C 0.74244 0.06078 0.11803 0.0
C137 C 0.72071 0.09129 0.16251 0.0
C138 C 0.47743 0.22715 0.24697 0.0
C139 C 0.48165 0.07511 0.23808 0.0
O140 O 0.3896 0.15282 0.34454 0.0
O141 O 0.43504 0.12965 0.41855 0.0
O142 O 0.55523 0.10857 0.39909 0.0
O143 O 0.56368 0.09973 0.31741 0.0
O144 O 0.50701 0.22057 0.38788 0.0
O145 O 0.59715 0.20719 0.35389 0.0
O146 O 0.66437 0.14801 0.25051 0.0
O147 O 0.61567 0.20032 0.19665 0.0
O148 O 0.50398 0.1964 0.21154 0.0
O149 O 0.4999 0.22019 0.29386 0.0
O150 O 0.53582 0.08775 0.23221 0.0
O151 O 0.45024 0.10018 0.27486 0.0
H152 H 0.40251 0.19237 0.49817 0.0
H153 H 0.33222 0.24156 0.55463 0.0
H154 H 0.20666 0.2312 0.42535 0.0
H155 H 0.27737 0.18122 0.36818 0.0
H156 H 0.63429 0.18034 0.0931 0.0
H157 H 0.67336 0.12732 1.01525 0.0
H158 H 0.77395 1.02853 0.12581 0.0
H159 H 0.73562 0.08101 0.20304 0.0
C160 C 0.6833 0.40384 0.4509 0.0
Eu161 Eu 0.66523 0.3133 0.50006 0.0
C162 C 0.64779 0.44863 0.42617 0.0
C163 C 0.67375 0.48401 0.39137 0.0
C164 C 0.64278 0.52798 0.36915 0.0
C165 C 0.58436 0.53831 0.3807 0.0
C166 C 0.5581 0.50295 0.41604 0.0
C167 C 0.58956 0.45859 0.43865 0.0
C168 C 0.70654 0.2043 0.49811 0.0
C169 C 0.58046 0.24325 0.44901 0.0
C170 C 0.61776 0.17767 0.66192 0.0
Eu171 Eu 0.62375 0.24225 0.57976 0.0
C172 C 0.65668 0.16322 0.70852 0.0
C173 C 0.63803 0.17183 0.76235 0.0
C174 C 0.67205 0.15463 0.80673 0.0
C175 C 0.72574 0.12876 0.79842 0.0
C176 C 0.74557 0.12243 0.74478 0.0
C177 C 0.71173 0.13982 0.70037 0.0
C178 C 0.54628 0.32272 0.56425 0.0
C179 C 0.73703 0.3173 0.60451 0.0
O180 O 0.68033 0.39983 0.50373 0.0
O181 O 0.68511 0.35631 0.42576 0.0
O182 O 0.69534 0.23241 0.45457 0.0
O183 O 0.70137 0.2364 0.53763 0.0
O184 O 0.58939 0.29445 0.45289 0.0
O185 O 0.59122 0.2115 0.49235 0.0
O186 O 0.63242 0.16077 0.61287 0.0
O187 O 0.59611 0.22723 0.66244 0.0
O188 O 0.53478 0.27169 0.56262 0.0
O189 O 0.60024 0.3285 0.56786 0.0
O190 O 0.69165 0.29479 0.62557 0.0
O191 O 0.74133 0.32114 0.55195 0.0
H192 H 0.71846 0.47781 0.38141 0.0
H193 H 0.6651 0.5538 0.34222 0.0
H194 H 0.51334 0.50911 0.42569 0.0
H195 H 0.56845 0.4321 0.46584 0.0
H196 H 0.59596 0.18983 0.77003 0.0
H197 H 0.6546 0.15804 0.84731 0.0
H198 H 0.78575 0.10067 0.73694 0.0
H199 H 0.72781 0.13287 0.6596 0.0
C200 C 0.17058 0.38176 0.90838 0.0
Eu201 Eu 0.09638 0.3995 0.82963 0.0
C202 C 0.18153 0.41229 0.96127 0.0
C203 C 0.17143 0.38746 1.01097 0.0
C204 C 0.18123 0.41454 0.06108 0.0
C205 C 0.20172 0.46759 0.06368 0.0
C206 C 0.21029 0.49335 1.01397 0.0
C207 C 0.20024 0.46614 0.96349 0.0
C208 C 0.09374 0.36551 0.71696 0.0
C209 C 0.11969 0.49674 0.77825 0.0
C210 C 0.91556 0.4447 0.70127 0.0
Eu211 Eu 0.999 0.42547 0.77049 0.0
C212 C 0.87013 0.4087 0.68001 0.0
C213 C 0.81552 0.40917 0.70373 0.0
C214 C 0.77265 0.37577 0.6826 0.0
C215 C 0.78364 0.34156 0.63723 0.0
C216 C 0.83887 0.33948 0.61526 0.0
C217 C 0.8814 0.37253 0.63618 0.0
C218 C 0.98842 0.47019 0.87144 0.0
C219 C 0.99556 0.31959 0.84286 0.0
O220 O 0.12196 0.35759 0.90417 0.0
O221 O 0.18392 0.40399 0.86263 0.0
O222 O 0.13695 0.38618 0.7429 0.0
O223 O 0.05758 0.35927 0.75315 0.0
O224 O 0.11885 0.48359 0.82847 0.0
O225 O 0.07778 0.47833 0.74527 0.0
O226 O 0.96791 0.43278 0.68651 0.0
O227 O 0.91313 0.459 0.75253 0.0
O228 O 0.95333 0.43655 0.84972 0.0
O229 O 0.03278 0.47068 0.84247 0.0
O230 O 0.97671 0.33931 0.796 0.0
O231 O 0.03602 0.34479 0.86912 0.0
H232 H 0.15655 0.34642 1.01116 0.0
H233 H 0.17443 0.39299 0.09819 0.0
H234 H 0.22678 0.53376 1.014 0.0
H235 H 0.20796 0.4871 0.92625 0.0
H236 H 0.80549 0.43633 0.73781 0.0
H237 H 0.73024 0.37906 0.69962 0.0
H238 H 0.84861 0.31374 0.57998 0.0
H239 H 0.92281 0.37044 0.61704 0.0
C240 C 0.85943 0.66449 0.9367 0.0
Eu241 Eu 0.87376 0.75803 0.9853 0.0
C242 C 0.89626 0.61578 0.92344 0.0
C243 C 0.95075 0.6192 0.90055 0.0
C244 C 0.98356 0.57184 0.88749 0.0
C245 C 0.96252 0.52026 0.8973 0.0
C246 C 0.90943 0.51741 0.92292 0.0
C247 C 0.87676 0.56448 0.93568 0.0
C248 C 0.83566 0.86517 0.97507 0.0
C249 C 0.96452 0.82671 0.94989 0.0
C250 C 0.87962 0.92247 0.13994 0.0
Eu251 Eu 0.9032 0.84031 0.07369 0.0
C252 C 0.85509 0.93004 0.19578 0.0
C253 C 0.89059 0.94246 0.24044 0.0
C254 C 0.86735 0.9556 0.29155 0.0
C255 C 0.80777 0.95716 0.29979 0.0
C256 C 0.77218 0.94198 0.25597 0.0
C257 C 0.79553 0.9287 0.20456 0.0
C258 C 0.97275 0.75518 0.09626 0.0
C259 C 0.79673 0.75881 0.08864 0.0
O260 O 0.85073 0.67363 0.98862 0.0
O261 O 0.86687 0.70915 0.91008 0.0
O262 O 0.8482 0.83379 0.93304 0.0
O263 O 0.83607 0.83595 1.01568 0.0
O264 O 0.95746 0.77526 0.95486 0.0
O265 O 0.94857 0.86187 0.99066 0.0
O266 O 0.84494 0.90533 0.10186 0.0
O267 O 0.9314 0.90093 0.1347 0.0
O268 O 0.97238 0.80124 0.12241 0.0
O269 O 0.93724 0.75515 0.05592 0.0
O270 O 0.83789 0.78572 0.11417 0.0
O271 O 0.79695 0.75177 1.0357 0.0
H272 H 0.96742 0.65831 0.89161 0.0
H273 H 0.02393 0.57556 0.86724 0.0
H274 H 0.89179 0.47843 0.93077 0.0
H275 H 0.83541 0.56071 0.95413 0.0
H276 H 0.93636 0.94405 0.23548 0.0
H277 H 0.89623 0.96729 0.32425 0.0
H278 H 0.72622 0.94364 0.26041 0.0
H279 H 0.76653 0.91948 0.17118 0.0
C280 C 0.62375 0.62841 0.18359 0.0
Eu281 Eu 0.53454 0.64743 0.24419 0.0
C282 C 0.66707 0.66488 0.16169 0.0
C283 C 0.65982 0.68555 0.10927 0.0
C284 C 0.70046 0.7187 0.08766 0.0
C285 C 0.75012 0.73212 0.11745 0.0
C286 C 0.75677 0.71317 0.17069 0.0
C287 C 0.71572 0.67976 0.19254 0.0
C288 C 0.42695 0.59478 0.23548 0.0
C289 C 0.46783 0.7277 0.19428 0.0
C290 C 0.3699 0.68894 0.38671 0.0
Eu291 Eu 0.4562 0.67512 0.32034 0.0
C292 C 0.35714 0.66111 0.43832 0.0
C293 C 0.33088 0.69056 0.48106 0.0
C294 C 0.31787 0.66531 0.52963 0.0
C295 C 0.33066 0.60956 0.53731 0.0
C296 C 0.35831 0.5801 0.49493 0.0
C297 C 0.37145 0.60562 0.446 0.0
C298 C 0.5495 0.73564 0.34149 0.0
C299 C 0.5527 0.58365 0.35179 0.0
O300 O 0.62433 0.62181 0.23619 0.0
O301 O 0.57167 0.63309 0.16371 0.0
O302 O 0.45539 0.61381 0.19575 0.0
O303 O 0.46005 0.60015 0.27573 0.0
O304 O 0.5204 0.72742 0.2101 0.0
O305 O 0.43122 0.70859 0.2307 0.0
O306 O 0.36791 0.65991 0.34192 0.0
O307 O 0.41355 0.72014 0.38761 0.0
O308 O 0.5267 0.70416 0.37569 0.0
O309 O 0.52693 0.72747 0.2944 0.0
O310 O 0.49846 0.59849 0.35974 0.0
O311 O 0.57971 0.60704 0.31339 0.0
H312 H 0.623 0.67545 0.08436 0.0
H313 H 0.69354 0.73269 0.04654 0.0
H314 H 0.79466 0.72218 0.19449 0.0
H315 H 0.72269 0.6648 0.23326 0.0
H316 H 0.3198 0.73326 0.47671 0.0
H317 H 0.2967 0.68973 0.56107 0.0
H318 H 0.36851 0.53723 0.499 0.0
H319 H 0.39224 0.58176 0.41393 0.0
C320 C 0.14477 0.63356 0.21363 0.0
Eu321 Eu 0.24712 0.59044 0.20068 0.0
C322 C 0.09853 0.65789 0.17876 0.0
C323 C 0.04383 0.66683 0.20033 0.0
C324 C 1.00021 0.69268 0.16981 0.0
C325 C 1.00985 0.70989 0.11666 0.0
C326 C 0.06382 0.69838 0.09384 0.0
C327 C 0.1077 0.67223 0.12449 0.0
C328 C 0.3613 0.59948 0.23943 0.0
C329 C 0.31109 0.63334 0.11383 0.0
C330 C 0.40438 0.43509 0.15874 0.0
Eu331 Eu 0.31996 0.50609 0.1734 0.0
C332 C 0.41859 0.38152 0.18362 0.0
C333 C 0.41787 0.33396 0.15123 0.0
C334 C 0.43333 0.28357 0.17322 0.0
C335 C 0.45039 0.2792 0.22822 0.0
C336 C 0.44901 0.3264 0.2614 0.0
C337 C 0.43326 0.37701 0.23937 0.0
C338 C 0.22249 0.49046 0.11758 0.0
C339 C 0.24619 0.49769 0.28542 0.0
O340 O 0.1553 0.58137 0.20606 0.0
O341 O 0.1915 0.66091 0.22131 0.0
O342 O 0.32876 0.63958 0.22169 0.0
O343 O 0.32947 0.55963 0.24162 0.0
O344 O 0.26374 0.6445 0.13768 0.0
O345 O 0.34028 0.58524 0.12182 0.0
O346 O 0.40785 0.47805 0.19029 0.0
O347 O 0.35967 0.43816 0.12654 0.0
O348 O 0.24461 0.45626 0.15181 0.0
O349 O 0.24717 0.53562 0.12324 0.0
O350 O 0.27764 0.46985 0.24905 0.0
O351 O 0.23439 0.54901 0.27818 0.0
H352 H 0.0354 0.65578 0.24178 0.0
H353 H 0.95985 0.70272 0.18929 0.0
H354 H 0.07333 0.71303 0.05389 0.0
H355 H 0.14935 0.66521 0.10658 0.0
H356 H 0.40645 0.33583 0.10841 0.0
H357 H 0.43396 0.24806 0.14641 0.0
H358 H 0.46234 0.32462 0.30374 0.0
H359 H 0.43382 0.4127 0.26584 0.0
C360 C 0.66308 0.93203 0.88532 0.0
Eu361 Eu 0.75622 0.98472 0.90107 0.0
C362 C 0.62397 0.90639 0.9239 0.0
C363 C 0.63008 0.85074 0.9341 0.0
C364 C 0.59287 0.82598 0.96906 0.0
C365 C 0.54803 0.85593 0.99478 0.0
C366 C 0.54299 0.91201 0.98633 0.0
C367 C 0.58045 0.93694 0.95121 0.0
C368 C 0.86694 0.97546 0.85356 0.0
C369 C 0.82689 0.92627 0.97792 0.0
C370 C 0.91803 0.12789 0.95118 0.0
Eu371 Eu 0.83999 0.05468 0.94108 0.0
C372 C 0.93851 0.17396 0.91941 0.0
C373 C 0.9866 0.20089 0.93846 0.0
C374 C 1.00451 0.2473 0.91294 0.0
C375 C 0.97498 0.26864 0.8672 0.0
C376 C 0.92732 0.24088 0.84706 0.0
C377 C 0.90913 0.19408 0.87307 0.0
C378 C 0.76091 0.04826 1.01852 0.0
C379 C 0.74995 0.0924 0.84062 0.0
O380 O 0.66405 0.98503 0.88711 0.0
O381 O 0.7142 0.90937 0.87942 0.0
O382 O 0.83605 0.93492 0.86636 0.0
O383 O 0.83553 1.01623 0.8632 0.0
O384 O 0.77412 0.94259 0.97681 0.0
O385 O 0.86528 0.96247 0.96322 0.0
O386 O 0.92897 0.07843 0.93276 0.0
O387 O 0.86662 0.1339 0.97068 0.0
O388 O 0.81549 0.04174 1.02676 0.0
O389 O 0.7495 0.05238 0.96748 0.0
O390 O 0.78681 0.10789 0.87932 0.0
O391 O 0.73382 0.04256 0.83713 0.0
H392 H 0.66311 0.82592 0.91426 0.0
H393 H 0.59828 0.78266 0.9745 0.0
H394 H 0.50866 0.93618 1.0049 0.0
H395 H 0.57452 0.98002 0.94466 0.0
H396 H 1.00996 0.18658 0.97402 0.0
H397 H 0.04175 0.26672 0.92976 0.0
H398 H 0.90363 0.25573 0.81196 0.0
H399 H 0.87169 0.17418 0.85747 0.0
C400 C 0.85255 0.15937 0.40835 0.0
Eu401 Eu 0.77127 0.08866 0.41623 0.0
C402 C 0.89875 0.18226 0.44499 0.0
C403 C 0.89869 0.23829 0.45622 0.0
C404 C 0.94322 0.26176 0.4865 0.0
C405 C 0.99012 0.23034 0.50709 0.0
C406 C 0.98944 0.17378 0.49768 0.0
C407 C 0.94455 0.15011 0.46689 0.0
C408 C 0.65598 0.09721 0.37117 0.0
C409 C 0.71143 0.14289 0.50289 0.0
C410 C 0.61054 0.94658 0.44003 0.0
Eu411 Eu 0.69159 1.01846 0.44821 0.0
C412 C 0.60158 0.89178 0.41222 0.0
C413 C 0.60493 0.84374 0.44202 0.0
C414 C 0.59113 0.79335 0.41781 0.0
C415 C 0.57309 0.78863 0.36277 0.0
C416 C 0.57145 0.83629 0.33221 0.0
C417 C 0.58532 0.88694 0.35652 0.0
C418 C 0.77572 1.01039 0.52202 0.0
C419 C 0.78477 0.9852 0.34992 0.0
O420 O 0.85782 0.10871 0.39232 0.0
O421 O 0.79941 0.1731 0.41866 0.0
O422 O 0.70217 0.09178 0.34186 0.0
O423 O 0.67419 0.09649 0.41805 0.0
O424 O 0.76287 0.1227 0.49955 0.0
O425 O 0.67132 0.11002 0.48153 0.0
O426 O 0.61399 0.98827 0.40895 0.0
O427 O 0.64572 0.95012 0.48178 0.0
O428 O 0.72169 1.01353 0.53331 0.0
O429 O 0.78439 1.01339 0.47038 0.0
O430 O 0.73244 0.97985 0.36867 0.0
O431 O 0.81543 1.02306 0.37071 0.0
H432 H 0.8645 0.26449 0.44047 0.0
H433 H 0.94111 0.30534 0.49299 0.0
H434 H 0.02439 0.148 0.51254 0.0
H435 H 0.94633 0.10668 0.45942 0.0
H436 H 0.61673 0.84524 0.48479 0.0
H437 H 0.59281 0.75795 0.44309 0.0
H438 H 0.55723 0.83491 0.29008 0.0
H439 H 0.58168 0.92268 0.33183 0.0
C440 C 0.13342 0.64503 0.64154 0.0
Eu441 Eu 0.20794 0.56729 0.66359 0.0
C442 C 0.11882 0.69659 0.6723 0.0
C443 C 0.12545 0.74647 0.64738 0.0
C444 C 0.11227 0.79547 0.67522 0.0
C445 C 0.09176 0.79624 0.72889 0.0
C446 C 0.08707 0.74642 0.7548 0.0
C447 C 0.10055 0.69714 0.72687 0.0
C448 C 0.20672 0.45728 0.62565 0.0
C449 C 0.1751 0.51574 0.75815 0.0
C450 C 0.378 0.42996 0.70295 0.0
Eu451 Eu 0.29855 0.50532 0.68785 0.0
C452 C 0.42106 0.40591 0.66442 0.0
C453 C 0.47932 0.41717 0.67097 0.0
C454 C 0.52028 0.39427 0.63516 0.0
C455 C 0.5038 0.3593 0.59223 0.0
C456 C 0.44533 0.35005 0.58428 0.0
C457 C 0.40448 0.37309 0.61975 0.0
C458 C 0.31364 0.60269 0.73804 0.0
C459 C 0.30971 0.5835 0.58754 0.0
O460 O 0.18417 0.6414 0.62018 0.0
O461 O 0.11955 0.59951 0.66302 0.0
O462 O 0.16454 0.48459 0.64761 0.0
O463 O 0.24466 0.49076 0.6187 0.0
O464 O 0.17671 0.56592 0.74583 0.0
O465 O 0.21774 0.48211 0.74007 0.0
O466 O 0.32446 0.41945 0.69381 0.0
O467 O 0.38409 0.48056 0.71701 0.0
O468 O 0.34885 0.57955 0.70409 0.0
O469 O 0.26745 0.57709 0.73774 0.0
O470 O 0.32273 0.5332 0.60196 0.0
O471 O 0.27235 0.61084 0.61687 0.0
H472 H 0.14016 0.7476 0.60583 0.0
H473 H 0.11621 0.833 0.65384 0.0
H474 H 0.0708 0.74537 0.79578 0.0
H475 H 0.09575 0.65951 0.74779 0.0
H476 H 0.4934 0.44277 0.7046 0.0
H477 H 0.56502 0.40137 0.64307 0.0
H478 H 0.43138 0.32273 0.55196 0.0
H479 H 0.36003 0.36407 0.61274 0.0
loop_
_geom_bond_atom_site_label_1
_geom_bond_atom_site_label_2
_geom_bond_distance
_geom_bond_site_symmetry_2
_ccdc_geom_bond_type
C0 Eu1 2.835 . S
C0 C2 1.500 . S
C0 O20 1.257 . S
C0 O21 1.260 . S
Eu1 C0 2.835 . S
Eu1 O20 2.473 . S
Eu1 O21 2.480 . S
Eu1 O22 2.430 . S
Eu1 O23 2.670 . S
Eu1 O24 2.394 . S
Eu1 O29 2.355 . S
Eu1 O31 2.374 . S
C2 C0 1.500 . S
C2 C3 1.377 . S
C2 C7 1.377 . S
C3 C2 1.377 . S
C3 C4 1.395 . S
C3 H32 0.931 . S
C4 C3 1.395 . S
C4 C5 1.383 . S
C4 H33 0.931 . S
C5 C4 1.383 . S
C5 C6 1.394 . S
C6 C5 1.394 . S
C6 C7 1.378 . S
C6 H34 0.931 . S
C7 C2 1.377 . S
C7 C6 1.378 . S
C7 H35 0.931 . S
C8 O22 1.259 . S
C8 O23 1.270 . S
C9 O24 1.251 . S
C9 O25 1.251 . S
C10 Eu11 2.835 . S
C10 C12 1.500 . S
C10 O26 1.257 . S
C10 O27 1.260 . S
Eu11 C10 2.835 . S
Eu11 O23 2.355 . S
Eu11 O25 2.374 . S
Eu11 O26 2.473 . S
Eu11 O27 2.480 . S
Eu11 O28 2.430 . S
Eu11 O29 2.670 . S
Eu11 O30 2.394 . S
C12 C10 1.500 . S
C12 C13 1.377 . S
C12 C17 1.377 . S
C13 C12 1.377 . S
C13 C14 1.395 . S
C13 H36 0.931 . S
C14 C13 1.395 . S
C14 C15 1.383 . S
C14 H37 0.931 1_545 S
C15 C14 1.383 . S
C15 C16 1.394 . S
C16 C15 1.394 . S
C16 C17 1.378 . S
C16 H38 0.931 1_455 S
C17 C12 1.377 . S
C17 C16 1.378 . S
C17 H39 0.931 . S
C18 O28 1.259 . S
C18 O29 1.270 . S
C19 O30 1.251 . S
C19 O31 1.251 . S
O20 C0 1.257 . S
O20 Eu1 2.473 . S
O21 C0 1.260 . S
O21 Eu1 2.480 . S
O22 Eu1 2.430 . S
O22 C8 1.259 . S
O23 Eu1 2.670 . S
O23 C8 1.270 . S
O23 Eu11 2.355 . S
O24 Eu1 2.394 . S
O24 C9 1.251 . S
O25 C9 1.251 . S
O25 Eu11 2.374 . S
O26 C10 1.257 . S
O26 Eu11 2.473 . S
O27 C10 1.260 . S
O27 Eu11 2.480 . S
O28 Eu11 2.430 . S
O28 C18 1.259 . S
O29 Eu1 2.355 . S
O29 Eu11 2.670 . S
O29 C18 1.270 . S
O30 Eu11 2.394 . S
O30 C19 1.251 . S
O31 Eu1 2.374 . S
O31 C19 1.251 . S
H32 C3 0.931 . S
H33 C4 0.931 . S
H34 C6 0.931 . S
H35 C7 0.931 . S
H36 C13 0.931 . S
H37 C14 0.931 1_565 S
H38 C16 0.931 1_655 S
H39 C17 0.931 . S
C40 Eu41 2.835 . S
C40 C42 1.500 . S
C40 O60 1.257 . S
C40 O61 1.260 . S
Eu41 C40 2.835 . S
Eu41 O60 2.473 . S
Eu41 O61 2.480 . S
Eu41 O62 2.430 1_455 S
Eu41 O63 2.670 1_455 S
Eu41 O64 2.394 1_455 S
Eu41 O69 2.355 . S
Eu41 O71 2.374 . S
C42 C40 1.500 . S
C42 C43 1.386 . S
C42 C47 1.377 . S
C43 C42 1.386 . S
C43 C44 1.387 1_556 S
C43 H72 0.929 1_556 S
C44 C43 1.387 1_554 S
C44 C45 1.383 . S
C44 H73 0.931 . S
C45 C44 1.383 . S
C45 C46 1.394 1_554 S
C46 C45 1.394 1_556 S
C46 C47 1.378 . S
C46 H74 0.931 . S
C47 C42 1.377 . S
C47 C46 1.378 . S
C47 H75 0.931 . S
C48 O62 1.259 . S
C48 O63 1.270 . S
C49 O64 1.251 . S
C49 O65 1.251 . S
C50 Eu51 2.835 . S
C50 C52 1.500 . S
C50 O66 1.257 . S
C50 O67 1.260 . S
Eu51 C50 2.835 . S
Eu51 O63 2.355 . S
Eu51 O65 2.374 . S
Eu51 O66 2.473 . S
Eu51 O67 2.480 . S
Eu51 O68 2.430 1_655 S
Eu51 O69 2.670 1_655 S
Eu51 O70 2.394 1_655 S
C52 C50 1.500 . S
C52 C53 1.377 . S
C52 C57 1.377 . S
C53 C52 1.377 . S
C53 C54 1.395 . S
C53 H76 0.931 . S
C54 C53 1.395 . S
C54 C55 1.383 . S
C54 H77 0.931 . S
C55 C54 1.383 . S
C55 C56 1.394 . S
C56 C55 1.394 . S
C56 C57 1.378 . S
C56 H78 0.931 1_565 S
C57 C52 1.377 . S
C57 C56 1.378 . S
C57 H79 0.931 . S
C58 O68 1.259 . S
C58 O69 1.270 . S
C59 O70 1.251 . S
C59 O71 1.251 . S
O60 C40 1.257 . S
O60 Eu41 2.473 . S
O61 C40 1.260 . S
O61 Eu41 2.480 . S
O62 Eu41 2.430 1_655 S
O62 C48 1.259 . S
O63 Eu41 2.670 1_655 S
O63 C48 1.270 . S
O63 Eu51 2.355 . S
O64 Eu41 2.394 1_655 S
O64 C49 1.251 . S
O65 C49 1.251 . S
O65 Eu51 2.374 . S
O66 C50 1.257 . S
O66 Eu51 2.473 . S
O67 C50 1.260 . S
O67 Eu51 2.480 . S
O68 Eu51 2.430 1_455 S
O68 C58 1.259 . S
O69 Eu41 2.355 . S
O69 Eu51 2.670 1_455 S
O69 C58 1.270 . S
O70 Eu51 2.394 1_455 S
O70 C59 1.251 . S
O71 Eu41 2.374 . S
O71 C59 1.251 . S
H72 C43 0.929 1_554 S
H73 C44 0.931 . S
H74 C46 0.931 . S
H75 C47 0.931 . S
H76 C53 0.931 . S
H77 C54 0.931 . S
H78 C56 0.931 1_545 S
H79 C57 0.931 . S
C80 Eu81 2.835 . S
C80 C82 1.500 . S
C80 O100 1.257 . S
C80 O101 1.260 . S
Eu81 C80 2.835 . S
Eu81 O100 2.473 . S
Eu81 O101 2.480 . S
Eu81 O102 2.430 1_556 S
Eu81 O103 2.670 1_556 S
Eu81 O104 2.394 1_556 S
Eu81 O109 2.355 . S
Eu81 O111 2.374 . S
C82 C80 1.500 . S
C82 C83 1.377 . S
C82 C87 1.377 . S
C83 C82 1.377 . S
C83 C84 1.395 . S
C83 H112 0.931 . S
C84 C83 1.395 . S
C84 C85 1.383 . S
C84 H113 0.931 . S
C85 C84 1.383 . S
C85 C86 1.394 . S
C86 C85 1.394 . S
C86 C87 1.378 . S
C86 H114 0.931 . S
C87 C82 1.377 . S
C87 C86 1.378 . S
C87 H115 0.931 . S
C88 O102 1.259 . S
C88 O103 1.270 . S
C89 O104 1.251 . S
C89 O105 1.251 . S
C90 Eu91 2.835 . S
C90 C92 1.500 . S
C90 O106 1.257 . S
C90 O107 1.260 . S
Eu91 C90 2.835 . S
Eu91 O103 2.355 . S
Eu91 O105 2.374 . S
Eu91 O106 2.473 . S
Eu91 O107 2.480 . S
Eu91 O108 2.430 1_554 S
Eu91 O109 2.670 1_554 S
Eu91 O110 2.394 1_554 S
C92 C90 1.500 . S
C92 C93 1.377 . S
C92 C97 1.377 . S
C93 C92 1.377 . S
C93 C94 1.395 . S
C93 H116 0.931 . S
C94 C93 1.395 . S
C94 C95 1.383 . S
C94 H117 0.931 1_565 S
C95 C94 1.383 . S
C95 C96 1.394 . S
C96 C95 1.394 . S
C96 C97 1.378 . S
C96 H118 0.931 . S
C97 C92 1.377 . S
C97 C96 1.378 . S
C97 H119 0.931 . S
C98 O108 1.259 . S
C98 O109 1.270 . S
C99 O110 1.251 . S
C99 O111 1.251 . S
O100 C80 1.257 . S
O100 Eu81 2.473 . S
O101 C80 1.260 . S
O101 Eu81 2.480 . S
O102 Eu81 2.430 1_554 S
O102 C88 1.259 . S
O103 Eu81 2.670 1_554 S
O103 C88 1.270 . S
O103 Eu91 2.355 . S
O104 Eu81 2.394 1_554 S
O104 C89 1.251 . S
O105 C89 1.251 . S
O105 Eu91 2.374 . S
O106 C90 1.257 . S
O106 Eu91 2.473 . S
O107 C90 1.260 . S
O107 Eu91 2.480 . S
O108 Eu91 2.430 1_556 S
O108 C98 1.259 . S
O109 Eu81 2.355 . S
O109 Eu91 2.670 1_556 S
O109 C98 1.270 . S
O110 Eu91 2.394 1_556 S
O110 C99 1.251 . S
O111 Eu81 2.374 . S
O111 C99 1.251 . S
H112 C83 0.931 . S
H113 C84 0.931 . S
H114 C86 0.931 . S
H115 C87 0.931 . S
H116 C93 0.931 . S
H117 C94 0.931 1_545 S
H118 C96 0.931 . S
H119 C97 0.931 . S
C120 Eu121 2.835 . S
C120 C122 1.500 . S
C120 O140 1.257 . S
C120 O141 1.260 . S
Eu121 C120 2.835 . S
Eu121 O140 2.473 . S
Eu121 O141 2.480 . S
Eu121 O142 2.430 . S
Eu121 O143 2.670 . S
Eu121 O144 2.394 . S
Eu121 O149 2.355 . S
Eu121 O151 2.374 . S
C122 C120 1.500 . S
C122 C123 1.377 . S
C122 C127 1.377 . S
C123 C122 1.377 . S
C123 C124 1.395 . S
C123 H152 0.931 . S
C124 C123 1.395 . S
C124 C125 1.383 . S
C124 H153 0.931 . S
C125 C124 1.383 . S
C125 C126 1.394 . S
C126 C125 1.394 . S
C126 C127 1.378 . S
C126 H154 0.931 . S
C127 C122 1.377 . S
C127 C126 1.378 . S
C127 H155 0.931 . S
C128 O142 1.259 . S
C128 O143 1.270 . S
C129 O144 1.251 . S
C129 O145 1.251 . S
C130 Eu131 2.835 . S
C130 C132 1.500 . S
C130 O146 1.257 . S
C130 O147 1.260 . S
Eu131 C130 2.835 . S
Eu131 O143 2.355 . S
Eu131 O145 2.374 . S
Eu131 O146 2.473 . S
Eu131 O147 2.480 . S
Eu131 O148 2.430 . S
Eu131 O149 2.670 . S
Eu131 O150 2.394 . S
C132 C130 1.500 . S
C132 C133 1.377 . S
C132 C137 1.377 . S
C133 C132 1.377 . S
C133 C134 1.395 . S
C133 H156 0.931 . S
C134 C133 1.395 . S
C134 C135 1.383 . S
C134 H157 0.931 . S
C135 C134 1.383 . S
C135 C136 1.394 . S
C136 C135 1.394 . S
C136 C137 1.378 . S
C136 H158 0.931 1_545 S
C137 C132 1.377 . S
C137 C136 1.378 . S
C137 H159 0.931 . S
C138 O148 1.259 . S
C138 O149 1.270 . S
C139 O150 1.251 . S
C139 O151 1.251 . S
O140 C120 1.257 . S
O140 Eu121 2.473 . S
O141 C120 1.260 . S
O141 Eu121 2.480 . S
O142 Eu121 2.430 . S
O142 C128 1.259 . S
O143 Eu121 2.670 . S
O143 C128 1.270 . S
O143 Eu131 2.355 . S
O144 Eu121 2.394 . S
O144 C129 1.251 . S
O145 C129 1.251 . S
O145 Eu131 2.374 . S
O146 C130 1.257 . S
O146 Eu131 2.473 . S
O147 C130 1.260 . S
O147 Eu131 2.480 . S
O148 Eu131 2.430 . S
O148 C138 1.259 . S
O149 Eu121 2.355 . S
O149 Eu131 2.670 . S
O149 C138 1.270 . S
O150 Eu131 2.394 . S
O150 C139 1.251 . S
O151 Eu121 2.374 . S
O151 C139 1.251 . S
H152 C123 0.931 . S
H153 C124 0.931 . S
H154 C126 0.931 . S
H155 C127 0.931 . S
H156 C133 0.931 . S
H157 C134 0.931 . S
H158 C136 0.931 1_565 S
H159 C137 0.931 . S
C160 Eu161 2.835 . S
C160 C162 1.500 . S
C160 O180 1.257 . S
C160 O181 1.260 . S
Eu161 C160 2.835 . S
Eu161 O180 2.473 . S
Eu161 O181 2.480 . S
Eu161 O182 2.430 . S
Eu161 O183 2.670 . S
Eu161 O184 2.394 . S
Eu161 O189 2.355 . S
Eu161 O191 2.374 . S
C162 C160 1.500 . S
C162 C163 1.377 . S
C162 C167 1.377 . S
C163 C162 1.377 . S
C163 C164 1.395 . S
C163 H192 0.931 . S
C164 C163 1.395 . S
C164 C165 1.383 . S
C164 H193 0.931 . S
C165 C164 1.383 . S
C165 C166 1.394 . S
C166 C165 1.394 . S
C166 C167 1.378 . S
C166 H194 0.931 . S
C167 C162 1.377 . S
C167 C166 1.378 . S
C167 H195 0.931 . S
C168 O182 1.259 . S
C168 O183 1.270 . S
C169 O184 1.251 . S
C169 O185 1.251 . S
C170 Eu171 2.835 . S
C170 C172 1.500 . S
C170 O186 1.257 . S
C170 O187 1.260 . S
Eu171 C170 2.835 . S
Eu171 O183 2.355 . S
Eu171 O185 2.374 . S
Eu171 O186 2.473 . S
Eu171 O187 2.480 . S
Eu171 O188 2.430 . S
Eu171 O189 2.670 . S
Eu171 O190 2.394 . S
C172 C170 1.500 . S
C172 C173 1.377 . S
C172 C177 1.377 . S
C173 C172 1.377 . S
C173 C174 1.395 . S
C173 H196 0.931 . S
C174 C173 1.395 . S
C174 C175 1.383 . S
C174 H197 0.931 . S
C175 C174 1.383 . S
C175 C176 1.394 . S
C176 C175 1.394 . S
C176 C177 1.378 . S
C176 H198 0.931 . S
C177 C172 1.377 . S
C177 C176 1.378 . S
C177 H199 0.931 . S
C178 O188 1.259 . S
C178 O189 1.270 . S
C179 O190 1.251 . S
C179 O191 1.251 . S
O180 C160 1.257 . S
O180 Eu161 2.473 . S
O181 C160 1.260 . S
O181 Eu161 2.480 . S
O182 Eu161 2.430 . S
O182 C168 1.259 . S
O183 Eu161 2.670 . S
O183 C168 1.270 . S
O183 Eu171 2.355 . S
O184 Eu161 2.394 . S
O184 C169 1.251 . S
O185 C169 1.251 . S
O185 Eu171 2.374 . S
O186 C170 1.257 . S
O186 Eu171 2.473 . S
O187 C170 1.260 . S
O187 Eu171 2.480 . S
O188 Eu171 2.430 . S
O188 C178 1.259 . S
O189 Eu161 2.355 . S
O189 Eu171 2.670 . S
O189 C178 1.270 . S
O190 Eu171 2.394 . S
O190 C179 1.251 . S
O191 Eu161 2.374 . S
O191 C179 1.251 . S
H192 C163 0.931 . S
H193 C164 0.931 . S
H194 C166 0.931 . S
H195 C167 0.931 . S
H196 C173 0.931 . S
H197 C174 0.931 . S
H198 C176 0.931 . S
H199 C177 0.931 . S
C200 Eu201 2.835 . S
C200 C202 1.500 . S
C200 O220 1.257 . S
C200 O221 1.260 . S
Eu201 C200 2.835 . S
Eu201 O220 2.473 . S
Eu201 O221 2.480 . S
Eu201 O222 2.430 . S
Eu201 O223 2.670 . S
Eu201 O224 2.394 . S
Eu201 O229 2.355 1_455 S
Eu201 O231 2.374 1_455 S
C202 C200 1.500 . S
C202 C203 1.377 . S
C202 C207 1.377 . S
C203 C202 1.377 . S
C203 C204 1.395 . S
C203 H232 0.931 . S
C204 C203 1.395 . S
C204 C205 1.383 . S
C204 H233 0.931 . S
C205 C204 1.383 . S
C205 C206 1.394 . S
C206 C205 1.394 . S
C206 C207 1.378 . S
C206 H234 0.931 . S
C207 C202 1.377 . S
C207 C206 1.378 . S
C207 H235 0.931 . S
C208 O222 1.259 . S
C208 O223 1.270 . S
C209 O224 1.251 . S
C209 O225 1.251 . S
C210 Eu211 2.835 . S
C210 C212 1.500 . S
C210 O226 1.257 . S
C210 O227 1.260 . S
Eu211 C210 2.835 . S
Eu211 O223 2.355 1_655 S
Eu211 O225 2.374 1_655 S
Eu211 O226 2.473 . S
Eu211 O227 2.480 . S
Eu211 O228 2.430 . S
Eu211 O229 2.670 . S
Eu211 O230 2.394 . S
C212 C210 1.500 . S
C212 C213 1.377 . S
C212 C217 1.377 . S
C213 C212 1.377 . S
C213 C214 1.395 . S
C213 H236 0.931 . S
C214 C213 1.395 . S
C214 C215 1.383 . S
C214 H237 0.931 . S
C215 C214 1.383 . S
C215 C216 1.394 . S
C216 C215 1.394 . S
C216 C217 1.378 . S
C216 H238 0.931 . S
C217 C212 1.377 . S
C217 C216 1.378 . S
C217 H239 0.931 . S
C218 O228 1.259 . S
C218 O229 1.270 . S
C219 O230 1.251 . S
C219 O231 1.251 . S
O220 C200 1.257 . S
O220 Eu201 2.473 . S
O221 C200 1.260 . S
O221 Eu201 2.480 . S
O222 Eu201 2.430 . S
O222 C208 1.259 . S
O223 Eu201 2.670 . S
O223 C208 1.270 . S
O223 Eu211 2.355 1_455 S
O224 Eu201 2.394 . S
O224 C209 1.251 . S
O225 C209 1.251 . S
O225 Eu211 2.374 1_455 S
O226 C210 1.257 . S
O226 Eu211 2.473 . S
O227 C210 1.260 . S
O227 Eu211 2.480 . S
O228 Eu211 2.430 . S
O228 C218 1.259 . S
O229 Eu201 2.355 1_655 S
O229 Eu211 2.670 . S
O229 C218 1.270 . S
O230 Eu211 2.394 . S
O230 C219 1.251 . S
O231 Eu201 2.374 1_655 S
O231 C219 1.251 . S
H232 C203 0.931 . S
H233 C204 0.931 . S
H234 C206 0.931 . S
H235 C207 0.931 . S
H236 C213 0.931 . S
H237 C214 0.931 . S
H238 C216 0.931 . S
H239 C217 0.931 . S
C240 Eu241 2.835 . S
C240 C242 1.500 . S
C240 O260 1.257 . S
C240 O261 1.260 . S
Eu241 C240 2.835 . S
Eu241 O260 2.473 . S
Eu241 O261 2.480 . S
Eu241 O262 2.430 . S
Eu241 O263 2.670 . S
Eu241 O264 2.394 . S
Eu241 O269 2.355 1_556 S
Eu241 O271 2.374 1_556 S
C242 C240 1.500 . S
C242 C243 1.377 . S
C242 C247 1.377 . S
C243 C242 1.377 . S
C243 C244 1.395 . S
C243 H272 0.931 . S
C244 C243 1.395 . S
C244 C245 1.383 . S
C244 H273 0.931 . S
C245 C244 1.383 . S
C245 C246 1.394 . S
C246 C245 1.394 . S
C246 C247 1.378 . S
C246 H274 0.931 1_655 S
C247 C242 1.377 . S
C247 C246 1.378 . S
C247 H275 0.931 . S
C248 O262 1.259 . S
C248 O263 1.270 . S
C249 O264 1.251 . S
C249 O265 1.251 . S
C250 Eu251 2.835 . S
C250 C252 1.500 . S
C250 O266 1.257 . S
C250 O267 1.260 . S
Eu251 C250 2.835 . S
Eu251 O263 2.355 1_554 S
Eu251 O265 2.374 1_554 S
Eu251 O266 2.473 . S
Eu251 O267 2.480 . S
Eu251 O268 2.430 . S
Eu251 O269 2.670 . S
Eu251 O270 2.394 . S
C252 C250 1.500 . S
C252 C253 1.377 . S
C252 C257 1.377 . S
C253 C252 1.377 . S
C253 C254 1.395 . S
C253 H276 0.931 . S
C254 C253 1.395 . S
C254 C255 1.383 . S
C254 H277 0.931 . S
C255 C254 1.383 . S
C255 C256 1.394 . S
C256 C255 1.394 . S
C256 C257 1.378 . S
C256 H278 0.931 . S
C257 C252 1.377 . S
C257 C256 1.378 . S
C257 H279 0.931 . S
C258 O268 1.259 . S
C258 O269 1.270 . S
C259 O270 1.251 . S
C259 O271 1.251 . S
O260 C240 1.257 . S
O260 Eu241 2.473 . S
O261 C240 1.260 . S
O261 Eu241 2.480 . S
O262 Eu241 2.430 . S
O262 C248 1.259 . S
O263 Eu241 2.670 . S
O263 C248 1.270 . S
O263 Eu251 2.355 1_556 S
O264 Eu241 2.394 . S
O264 C249 1.251 . S
O265 C249 1.251 . S
O265 Eu251 2.374 1_556 S
O266 C250 1.257 . S
O266 Eu251 2.473 . S
O267 C250 1.260 . S
O267 Eu251 2.480 . S
O268 Eu251 2.430 . S
O268 C258 1.259 . S
O269 Eu241 2.355 1_554 S
O269 Eu251 2.670 . S
O269 C258 1.270 . S
O270 Eu251 2.394 . S
O270 C259 1.251 . S
O271 Eu241 2.374 1_554 S
O271 C259 1.251 . S
H272 C243 0.931 . S
H273 C244 0.931 . S
H274 C246 0.931 1_455 S
H275 C247 0.931 . S
H276 C253 0.931 . S
H277 C254 0.931 . S
H278 C256 0.931 . S
H279 C257 0.931 . S
C280 Eu281 2.835 . S
C280 C282 1.500 . S
C280 O300 1.257 . S
C280 O301 1.260 . S
Eu281 C280 2.835 . S
Eu281 O300 2.473 . S
Eu281 O301 2.480 . S
Eu281 O302 2.430 . S
Eu281 O303 2.670 . S
Eu281 O304 2.394 . S
Eu281 O309 2.355 . S
Eu281 O311 2.374 . S
C282 C280 1.500 . S
C282 C283 1.377 . S
C282 C287 1.377 . S
C283 C282 1.377 . S
C283 C284 1.395 1_554 S
C283 H312 0.931 . S
C284 C283 1.395 1_556 S
C284 C285 1.383 . S
C284 H313 0.931 . S
C285 C284 1.383 . S
C285 C286 1.394 1_556 S
C286 C285 1.394 1_554 S
C286 C287 1.378 . S
C286 H314 0.931 . S
C287 C282 1.377 . S
C287 C286 1.378 . S
C287 H315 0.931 . S
C288 O302 1.259 . S
C288 O303 1.270 . S
C289 O304 1.251 . S
C289 O305 1.251 . S
C290 Eu291 2.835 . S
C290 C292 1.500 . S
C290 O306 1.257 . S
C290 O307 1.260 . S
Eu291 C290 2.835 . S
Eu291 O303 2.355 . S
Eu291 O305 2.374 . S
Eu291 O306 2.473 . S
Eu291 O307 2.480 . S
Eu291 O308 2.430 . S
Eu291 O309 2.670 . S
Eu291 O310 2.394 . S
C292 C290 1.500 . S
C292 C293 1.377 . S
C292 C297 1.377 . S
C293 C292 1.377 . S
C293 C294 1.395 . S
C293 H316 0.931 . S
C294 C293 1.395 . S
C294 C295 1.383 . S
C294 H317 0.931 . S
C295 C294 1.383 . S
C295 C296 1.394 . S
C296 C295 1.394 . S
C296 C297 1.378 . S
C296 H318 0.931 . S
C297 C292 1.377 . S
C297 C296 1.378 . S
C297 H319 0.931 . S
C298 O308 1.259 . S
C298 O309 1.270 . S
C299 O310 1.251 . S
C299 O311 1.251 . S
O300 C280 1.257 . S
O300 Eu281 2.473 . S
O301 C280 1.260 . S
O301 Eu281 2.480 . S
O302 Eu281 2.430 . S
O302 C288 1.259 . S
O303 Eu281 2.670 . S
O303 C288 1.270 . S
O303 Eu291 2.355 . S
O304 Eu281 2.394 . S
O304 C289 1.251 . S
O305 C289 1.251 . S
O305 Eu291 2.374 . S
O306 C290 1.257 . S
O306 Eu291 2.473 . S
O307 C290 1.260 . S
O307 Eu291 2.480 . S
O308 Eu291 2.430 . S
O308 C298 1.259 . S
O309 Eu281 2.355 . S
O309 Eu291 2.670 . S
O309 C298 1.270 . S
O310 Eu291 2.394 . S
O310 C299 1.251 . S
O311 Eu281 2.374 . S
O311 C299 1.251 . S
H312 C283 0.931 . S
H313 C284 0.931 . S
H314 C286 0.931 . S
H315 C287 0.931 . S
H316 C293 0.931 . S
H317 C294 0.931 . S
H318 C296 0.931 . S
H319 C297 0.931 . S
C320 Eu321 2.835 . S
C320 C322 1.500 . S
C320 O340 1.257 . S
C320 O341 1.260 . S
Eu321 C320 2.835 . S
Eu321 O340 2.473 . S
Eu321 O341 2.480 . S
Eu321 O342 2.430 . S
Eu321 O343 2.670 . S
Eu321 O344 2.394 . S
Eu321 O349 2.355 . S
Eu321 O351 2.374 . S
C322 C320 1.500 . S
C322 C323 1.377 . S
C322 C327 1.377 . S
C323 C322 1.377 . S
C323 C324 1.395 . S
C323 H352 0.931 . S
C324 C323 1.395 . S
C324 C325 1.383 . S
C324 H353 0.931 . S
C325 C324 1.383 . S
C325 C326 1.394 . S
C326 C325 1.394 . S
C326 C327 1.378 . S
C326 H354 0.931 1_554 S
C327 C322 1.377 . S
C327 C326 1.378 . S
C327 H355 0.931 . S
C328 O342 1.259 . S
C328 O343 1.270 . S
C329 O344 1.251 . S
C329 O345 1.251 . S
C330 Eu331 2.835 . S
C330 C332 1.500 . S
C330 O346 1.257 . S
C330 O347 1.260 . S
Eu331 C330 2.835 . S
Eu331 O343 2.355 . S
Eu331 O345 2.374 . S
Eu331 O346 2.473 . S
Eu331 O347 2.480 . S
Eu331 O348 2.430 . S
Eu331 O349 2.670 . S
Eu331 O350 2.394 . S
C332 C330 1.500 . S
C332 C333 1.377 . S
C332 C337 1.377 . S
C333 C332 1.377 . S
C333 C334 1.395 . S
C333 H356 0.931 . S
C334 C333 1.395 . S
C334 C335 1.383 . S
C334 H357 0.931 . S
C335 C334 1.383 . S
C335 C336 1.394 . S
C336 C335 1.394 . S
C336 C337 1.378 . S
C336 H358 0.931 . S
C337 C332 1.377 . S
C337 C336 1.378 . S
C337 H359 0.931 . S
C338 O348 1.259 . S
C338 O349 1.270 . S
C339 O350 1.251 . S
C339 O351 1.251 . S
O340 C320 1.257 . S
O340 Eu321 2.473 . S
O341 C320 1.260 . S
O341 Eu321 2.480 . S
O342 Eu321 2.430 . S
O342 C328 1.259 . S
O343 Eu321 2.670 . S
O343 C328 1.270 . S
O343 Eu331 2.355 . S
O344 Eu321 2.394 . S
O344 C329 1.251 . S
O345 C329 1.251 . S
O345 Eu331 2.374 . S
O346 C330 1.257 . S
O346 Eu331 2.473 . S
O347 C330 1.260 . S
O347 Eu331 2.480 . S
O348 Eu331 2.430 . S
O348 C338 1.259 . S
O349 Eu321 2.355 . S
O349 Eu331 2.670 . S
O349 C338 1.270 . S
O350 Eu331 2.394 . S
O350 C339 1.251 . S
O351 Eu321 2.374 . S
O351 C339 1.251 . S
H352 C323 0.931 . S
H353 C324 0.931 . S
H354 C326 0.931 1_556 S
H355 C327 0.931 . S
H356 C333 0.931 . S
H357 C334 0.931 . S
H358 C336 0.931 . S
H359 C337 0.931 . S
C360 Eu361 2.835 . S
C360 C362 1.500 . S
C360 O380 1.257 . S
C360 O381 1.260 . S
Eu361 C360 2.835 . S
Eu361 O380 2.473 . S
Eu361 O381 2.480 . S
Eu361 O382 2.430 . S
Eu361 O383 2.670 . S
Eu361 O384 2.394 . S
Eu361 O389 2.355 1_565 S
Eu361 O391 2.374 1_565 S
C362 C360 1.500 . S
C362 C363 1.377 . S
C362 C367 1.377 . S
C363 C362 1.377 . S
C363 C364 1.395 . S
C363 H392 0.931 . S
C364 C363 1.395 . S
C364 C365 1.383 . S
C364 H393 0.931 . S
C365 C364 1.383 . S
C365 C366 1.394 . S
C366 C365 1.394 . S
C366 C367 1.378 . S
C366 H394 0.931 1_556 S
C367 C362 1.377 . S
C367 C366 1.378 . S
C367 H395 0.931 . S
C368 O382 1.259 . S
C368 O383 1.270 . S
C369 O384 1.251 . S
C369 O385 1.251 . S
C370 Eu371 2.835 . S
C370 C372 1.500 . S
C370 O386 1.257 . S
C370 O387 1.260 . S
Eu371 C370 2.835 . S
Eu371 O383 2.355 1_545 S
Eu371 O385 2.374 1_545 S
Eu371 O386 2.473 . S
Eu371 O387 2.480 . S
Eu371 O388 2.430 . S
Eu371 O389 2.670 . S
Eu371 O390 2.394 . S
C372 C370 1.500 . S
C372 C373 1.377 . S
C372 C377 1.377 . S
C373 C372 1.377 . S
C373 C374 1.395 . S
C373 H396 0.931 . S
C374 C373 1.395 . S
C374 C375 1.383 . S
C374 H397 0.931 . S
C375 C374 1.383 . S
C375 C376 1.394 . S
C376 C375 1.394 . S
C376 C377 1.378 . S
C376 H398 0.931 . S
C377 C372 1.377 . S
C377 C376 1.378 . S
C377 H399 0.931 . S
C378 O388 1.259 . S
C378 O389 1.270 . S
C379 O390 1.251 . S
C379 O391 1.251 . S
O380 C360 1.257 . S
O380 Eu361 2.473 . S
O381 C360 1.260 . S
O381 Eu361 2.480 . S
O382 Eu361 2.430 . S
O382 C368 1.259 . S
O383 Eu361 2.670 . S
O383 C368 1.270 . S
O383 Eu371 2.355 1_565 S
O384 Eu361 2.394 . S
O384 C369 1.251 . S
O385 C369 1.251 . S
O385 Eu371 2.374 1_565 S
O386 C370 1.257 . S
O386 Eu371 2.473 . S
O387 C370 1.260 . S
O387 Eu371 2.480 . S
O388 Eu371 2.430 . S
O388 C378 1.259 . S
O389 Eu361 2.355 1_545 S
O389 Eu371 2.670 . S
O389 C378 1.270 . S
O390 Eu371 2.394 . S
O390 C379 1.251 . S
O391 Eu361 2.374 1_545 S
O391 C379 1.251 . S
H392 C363 0.931 . S
H393 C364 0.931 . S
H394 C366 0.931 1_554 S
H395 C367 0.931 . S
H396 C373 0.931 . S
H397 C374 0.931 . S
H398 C376 0.931 . S
H399 C377 0.931 . S
C400 Eu401 2.835 . S
C400 C402 1.500 . S
C400 O420 1.257 . S
C400 O421 1.260 . S
Eu401 C400 2.835 . S
Eu401 O420 2.473 . S
Eu401 O421 2.480 . S
Eu401 O422 2.430 . S
Eu401 O423 2.670 . S
Eu401 O424 2.394 . S
Eu401 O429 2.355 1_545 S
Eu401 O431 2.374 1_545 S
C402 C400 1.500 . S
C402 C403 1.377 . S
C402 C407 1.377 . S
C403 C402 1.377 . S
C403 C404 1.395 . S
C403 H432 0.931 . S
C404 C403 1.395 . S
C404 C405 1.383 . S
C404 H433 0.931 . S
C405 C404 1.383 . S
C405 C406 1.394 . S
C406 C405 1.394 . S
C406 C407 1.378 . S
C406 H434 0.931 . S
C407 C402 1.377 . S
C407 C406 1.378 . S
C407 H435 0.931 . S
C408 O422 1.259 . S
C408 O423 1.270 . S
C409 O424 1.251 . S
C409 O425 1.251 . S
C410 Eu411 2.835 . S
C410 C412 1.500 . S
C410 O426 1.257 . S
C410 O427 1.260 . S
Eu411 C410 2.835 . S
Eu411 O423 2.355 1_565 S
Eu411 O425 2.374 1_565 S
Eu411 O426 2.473 . S
Eu411 O427 2.480 . S
Eu411 O428 2.430 . S
Eu411 O429 2.670 . S
Eu411 O430 2.394 . S
C412 C410 1.500 . S
C412 C413 1.377 . S
C412 C417 1.377 . S
C413 C412 1.377 . S
C413 C414 1.395 . S
C413 H436 0.931 . S
C414 C413 1.395 . S
C414 C415 1.383 . S
C414 H437 0.931 . S
C415 C414 1.383 . S
C415 C416 1.394 . S
C416 C415 1.394 . S
C416 C417 1.378 . S
C416 H438 0.931 . S
C417 C412 1.377 . S
C417 C416 1.378 . S
C417 H439 0.931 . S
C418 O428 1.259 . S
C418 O429 1.270 . S
C419 O430 1.251 . S
C419 O431 1.251 . S
O420 C400 1.257 . S
O420 Eu401 2.473 . S
O421 C400 1.260 . S
O421 Eu401 2.480 . S
O422 Eu401 2.430 . S
O422 C408 1.259 . S
O423 Eu401 2.670 . S
O423 C408 1.270 . S
O423 Eu411 2.355 1_545 S
O424 Eu401 2.394 . S
O424 C409 1.251 . S
O425 C409 1.251 . S
O425 Eu411 2.374 1_545 S
O426 C410 1.257 . S
O426 Eu411 2.473 . S
O427 C410 1.260 . S
O427 Eu411 2.480 . S
O428 Eu411 2.430 . S
O428 C418 1.259 . S
O429 Eu401 2.355 1_565 S
O429 Eu411 2.670 . S
O429 C418 1.270 . S
O430 Eu411 2.394 . S
O430 C419 1.251 . S
O431 Eu401 2.374 1_565 S
O431 C419 1.251 . S
H432 C403 0.931 . S
H433 C404 0.931 . S
H434 C406 0.931 . S
H435 C407 0.931 . S
H436 C413 0.931 . S
H437 C414 0.931 . S
H438 C416 0.931 . S
H439 C417 0.931 . S
C440 Eu441 2.835 . S
C440 C442 1.500 . S
C440 O460 1.257 . S
C440 O461 1.260 . S
Eu441 C440 2.835 . S
Eu441 O460 2.473 . S
Eu441 O461 2.480 . S
Eu441 O462 2.430 . S
Eu441 O463 2.670 . S
Eu441 O464 2.394 . S
Eu441 O469 2.355 . S
Eu441 O471 2.374 . S
C442 C440 1.500 . S
C442 C443 1.377 1_455 S
C442 C447 1.377 . S
C443 C442 1.377 1_655 S
C443 C444 1.395 . S
C443 H472 0.931 . S
C444 C443 1.395 . S
C444 C445 1.383 . S
C444 H473 0.931 . S
C445 C444 1.383 . S
C445 C446 1.394 1_655 S
C446 C445 1.394 1_455 S
C446 C447 1.378 . S
C446 H474 0.931 . S
C447 C442 1.377 . S
C447 C446 1.378 . S
C447 H475 0.931 . S
C448 O462 1.259 . S
C448 O463 1.270 . S
C449 O464 1.251 . S
C449 O465 1.251 . S
C450 Eu451 2.835 . S
C450 C452 1.500 . S
C450 O466 1.257 . S
C450 O467 1.260 . S
Eu451 C450 2.835 . S
Eu451 O463 2.355 . S
Eu451 O465 2.374 . S
Eu451 O466 2.473 . S
Eu451 O467 2.480 . S
Eu451 O468 2.430 . S
Eu451 O469 2.670 . S
Eu451 O470 2.394 . S
C452 C450 1.500 . S
C452 C453 1.377 . S
C452 C457 1.377 . S
C453 C452 1.377 . S
C453 C454 1.395 . S
C453 H476 0.931 . S
C454 C453 1.395 . S
C454 C455 1.383 . S
C454 H477 0.931 . S
C455 C454 1.383 . S
C455 C456 1.394 . S
C456 C455 1.394 . S
C456 C457 1.378 . S
C456 H478 0.931 . S
C457 C452 1.377 . S
C457 C456 1.378 . S
C457 H479 0.931 . S
C458 O468 1.259 . S
C458 O469 1.270 . S
C459 O470 1.251 . S
C459 O471 1.251 . S
O460 C440 1.257 . S
O460 Eu441 2.473 . S
O461 C440 1.260 . S
O461 Eu441 2.480 . S
O462 Eu441 2.430 . S
O462 C448 1.259 . S
O463 Eu441 2.670 . S
O463 C448 1.270 . S
O463 Eu451 2.355 . S
O464 Eu441 2.394 . S
O464 C449 1.251 . S
O465 C449 1.251 . S
O465 Eu451 2.374 . S
O466 C450 1.257 . S
O466 Eu451 2.473 . S
O467 C450 1.260 . S
O467 Eu451 2.480 . S
O468 Eu451 2.430 . S
O468 C458 1.259 . S
O469 Eu441 2.355 . S
O469 Eu451 2.670 . S
O469 C458 1.270 . S
O470 Eu451 2.394 . S
O470 C459 1.251 . S
O471 Eu441 2.374 . S
O471 C459 1.251 . S
H472 C443 0.931 . S
H473 C444 0.931 . S
H474 C446 0.931 . S
H475 C447 0.931 . S
H476 C453 0.931 . S
H477 C454 0.931 . S
H478 C456 0.931 . S
H479 C457 0.931 . S
C9 C448 2.370 . S
C368 C48 3.269 . S
C89 C329 1.782 . S
C128 C408 2.767 . S
C168 C409 3.248 . S
C209 C449 1.922 . S
C369 C248 3.052 . S
C288 C328 2.934 . S
C129 C169 2.051 . S
C8 C208 3.450 . S
C49 C249 2.134 . S
C289 C88 3.056 . S
C5 C339 4.706 . S
C55 C418 1.421 . S
C458 C85 3.535 . S
C135 C378 1.747 1_554 S
C175 C379 1.811 . S
C338 C205 3.645 1_554 S
C419 C255 2.247 . S
C459 C295 2.485 . S
C18 C125 2.780 . S
C15 C59 2.536 1_545 S
C45 C98 3.533 1_554 S
C139 C95 2.386 1_545 S
C215 C179 1.159 . S
C218 C245 3.889 . S
C259 C285 3.552 1_554 S
C165 C299 3.855 . S
C335 C138 1.547 . S
C219 C375 2.109 . S
C325 C258 4.108 1_455 S
C415 C298 1.881 . S
C178 C455 0.990 . S
C445 C58 3.718 1_655 S
C99 C365 2.907 . S
C405 C19 3.600 1_655 S
