# Generated by pormake.
# Topology lon, (4)-cn, num edge types: 1
# Building blocks:
#     Node 0, Type 0, BuildingBlock: UXUYUI_clean_sbu_0, # of connection points: 4
#     Node 1, Type 0, BuildingBlock: UXUYUI_clean_sbu_0, # of connection points: 4
#     Node 2, Type 0, BuildingBlock: UXUYUI_clean_sbu_0, # of connection points: 4
#     Node 3, Type 0, BuildingBlock: UXUYUI_clean_sbu_0, # of connection points: 4
#     Edge 4, Type (0, 0), BuildingBlock: AJUNOK_clean_linker_0, # of connection points: 2
#     Edge 5, Type (0, 0), BuildingBlock: AJUNOK_clean_linker_0, # of connection points: 2
#     Edge 6, Type (0, 0), BuildingBlock: AJUNOK_clean_linker_0, # of connection points: 2
#     Edge 7, Type (0, 0), BuildingBlock: AJUNOK_clean_linker_0, # of connection points: 2
#     Edge 8, Type (0, 0), BuildingBlock: AJUNOK_clean_linker_0, # of connection points: 2
#     Edge 9, Type (0, 0), BuildingBlock: AJUNOK_clean_linker_0, # of connection points: 2
#     Edge 10, Type (0, 0), BuildingBlock: AJUNOK_clean_linker_0, # of connection points: 2
#     Edge 11, Type (0, 0), BuildingBlock: AJUNOK_clean_linker_0, # of connection points: 2
# Relax obj value: 0.000
# Max RMSD: 0.004
# Mean RMSD: 0.003
data_MOF--net-lon--node1-UXUYUI_clean_sbu_0--edge1-AJUNOK_clean_linker_0
_symmetry_space_group_name_H-M    P1
_symmetry_Int_Tables_number       1
_symmetry_cell_setting            triclinic
loop_
_symmetry_equiv_pos_as_xyz
'x, y, z'
_cell_length_a     29.731102
_cell_length_b     29.7157
_cell_length_c     48.540991
_cell_angle_alpha  90.069945
_cell_angle_beta   89.900515
_cell_angle_gamma 120.1247
loop_
_atom_site_label
_atom_site_type_symbol
_atom_site_fract_x
_atom_site_fract_y
_atom_site_fract_z
_atom_type_partial_charge
Li0 Li 0.35926 0.68101 0.11006 0.0
Li1 Li 0.38448 0.65282 0.06812 0.0
Li2 Li 0.38487 0.73771 0.06876 0.0
Li3 Li 0.30353 0.65332 0.0672 0.0
C4 C 0.4687 0.747 0.10734 0.0
N5 N 0.55191 0.80966 0.14101 0.0
C6 C 0.50576 0.73282 0.11372 0.0
C7 C 0.47451 0.7935 0.11772 0.0
C8 C 0.54739 0.76487 0.13089 0.0
C9 C 0.51669 0.82454 0.13479 0.0
C10 C 0.32114 0.56537 0.0944 0.0
C11 C 0.30399 0.48318 0.07546 0.0
N12 N 0.32151 0.47291 0.09916 0.0
C13 C 0.33856 0.55384 0.11865 0.0
C14 C 0.30329 0.52961 0.0727 0.0
C15 C 0.33857 0.50694 0.12063 0.0
C16 C 0.31667 0.67778 0.16242 0.0
N17 N 0.35807 0.67957 0.14939 0.0
C18 C 0.39595 0.67829 0.19258 0.0
C19 C 0.39708 0.67927 0.16382 0.0
C20 C 0.35391 0.67686 0.20658 0.0
C21 C 0.31389 0.67664 0.19116 0.0
H22 H 0.28584 0.6774 0.15044 0.0
H23 H 0.42875 0.67905 0.15305 0.0
C24 C 0.42339 0.61326 0.02727 0.0
N25 N 0.42046 0.619 0.05488 0.0
C26 C 0.44961 0.58886 0.01695 0.0
C27 C 0.46961 0.57695 0.06368 0.0
C28 C 0.44297 0.60157 0.07309 0.0
C29 C 0.47345 0.57066 0.03525 0.0
H30 H 0.40552 0.62777 1.01321 0.0
H31 H 0.44032 0.60687 0.09494 0.0
C32 C 0.31222 0.75131 0.10091 0.0
N33 N 0.29243 0.82815 0.11866 0.0
C34 C 0.27337 0.75743 0.08833 0.0
C35 C 0.34026 0.78363 0.12291 0.0
C36 C 0.26417 0.79669 0.09748 0.0
C37 C 0.32988 0.8224 0.13148 0.0
C38 C 0.33548 0.67456 1.01473 0.0
C39 C 0.3367 0.7156 1.00005 0.0
C40 C 0.30796 0.62404 1.00413 0.0
C41 C 0.30963 0.70525 0.97519 0.0
C42 C 0.28128 0.61527 0.97924 0.0
N43 N 0.28263 0.65571 0.96542 0.0
C44 C 0.47305 0.83156 0.05241 0.0
C45 C 0.39432 0.83317 0.04971 0.0
C46 C 0.5012 0.88274 0.04286 0.0
N47 N 0.42067 0.80806 0.0559 0.0
C48 C 0.42089 0.88433 0.04002 0.0
C49 C 0.47504 0.90969 0.0364 0.0
H50 H 0.49303 0.81051 0.05704 0.0
H51 H 0.35257 0.81325 0.05176 0.0
C52 C 0.20087 0.56843 0.06248 0.0
N53 N 0.23351 0.61808 0.05403 0.0
C54 C 0.14986 0.54097 0.05266 0.0
C55 C 0.16684 0.61636 0.0258 0.0
C56 C 0.2173 0.64252 0.03636 0.0
C57 C 0.13261 0.56481 0.03382 0.0
H58 H 0.21449 0.55007 0.07679 0.0
H59 H 0.24366 0.68227 0.03029 0.0
O60 O 0.42755 0.71585 0.09065 0.0
O61 O 0.3216 0.61145 0.09192 0.0
O62 O 0.32159 0.71291 0.09222 0.0
O63 O 0.36122 0.68387 0.03929 0.0
H64 H 0.50233 0.69734 0.10562 0.0
H65 H 0.44721 0.80592 0.11234 0.0
H66 H 0.57613 0.75417 0.13614 0.0
H67 H 0.52155 0.86058 0.14299 0.0
H68 H 0.29061 0.4553 0.05876 0.0
H69 H 0.35227 0.58093 0.13569 0.0
H70 H 0.28928 0.53772 0.05389 0.0
H71 H 0.35223 0.49764 0.13922 0.0
H72 H 0.42725 0.6779 0.20376 0.0
H73 H 0.28111 0.67618 0.20122 0.0
H74 H 0.45085 0.58391 0.99491 0.0
H75 H 0.4876 0.56357 0.07845 0.0
H76 H 0.25079 0.73241 0.07154 0.0
H77 H 0.36924 0.77847 0.13353 0.0
H78 H 0.23452 0.80212 0.08775 0.0
H79 H 0.35142 0.84775 0.14843 0.0
H80 H 0.35811 0.75497 1.00781 0.0
H81 H 0.30681 0.59188 1.01513 0.0
H82 H 0.31001 0.73661 0.9637 0.0
H83 H 0.25946 0.5763 0.97093 0.0
H84 H 0.54302 0.90111 0.04073 0.0
H85 H 0.39921 0.90356 0.03495 0.0
H86 H 0.1244 0.50129 0.05936 0.0
H87 H 0.15456 0.63631 1.01169 0.0
Li88 Li 0.66437 0.38095 0.56729 0.0
Li89 Li 0.74462 0.37703 0.56874 0.0
Li90 Li 0.65858 0.29443 0.5686 0.0
Li91 Li 0.69134 0.35072 0.60976 0.0
C92 C 0.66636 0.33905 0.51456 0.0
N93 N 0.61789 0.31765 0.46384 0.0
C94 C 0.69548 0.36135 0.4907 0.0
C95 C 0.61271 0.30555 0.51262 0.0
C96 C 0.67023 0.35016 0.46525 0.0
C97 C 0.58889 0.29528 0.4868 0.0
C98 C 0.77009 0.4674 0.59086 0.0
C99 C 0.85827 0.525 0.60558 0.0
N100 N 0.86183 0.56146 0.5874 0.0
C101 C 0.77444 0.50553 0.57247 0.0
C102 C 0.81213 0.47726 0.60771 0.0
C103 C 0.82121 0.55283 0.57099 0.0
C104 C 0.60213 0.42689 0.57295 0.0
N105 N 0.6322 0.41884 0.55474 0.0
C106 C 0.6147 0.46413 0.51952 0.0
C107 C 0.63943 0.4374 0.52854 0.0
C108 C 0.58288 0.47243 0.53776 0.0
C109 C 0.57677 0.45353 0.56482 0.0
H110 H 0.59738 0.41201 0.59372 0.0
H111 H 0.66453 0.43171 0.51465 0.0
C112 C 0.84828 0.39643 0.56454 0.0
N113 N 0.814 0.41009 0.55472 0.0
C114 C 0.8993 0.42095 0.55465 0.0
C115 C 0.87878 0.47294 0.52461 0.0
C116 C 0.82806 0.44721 0.53496 0.0
C117 C 0.91502 0.45967 0.53439 0.0
H118 H 0.83608 0.36653 0.58005 0.0
H119 H 0.79986 0.45697 0.52734 0.0
C120 C 0.56982 0.29253 0.59708 0.0
N121 N 0.46416 0.23502 0.60738 0.0
C122 C 0.55135 0.26225 0.62091 0.0
C123 C 0.53445 0.2938 0.57858 0.0
C124 C 0.49782 0.23337 0.62572 0.0
C125 C 0.48122 0.2644 0.58413 0.0
C126 C 0.73492 0.28971 0.61083 0.0
C127 C 0.70658 0.23569 0.6141 0.0
C128 C 0.77626 0.31987 0.62861 0.0
C129 C 0.71983 0.21276 0.63532 0.0
C130 C 0.78818 0.29547 0.64961 0.0
N131 N 0.75995 0.24288 0.65251 0.0
C132 C 0.65015 0.20921 0.53935 0.0
C133 C 0.57206 0.19032 0.56212 0.0
C134 C 0.62733 0.15814 0.52957 0.0
N135 N 0.62248 0.22419 0.55545 0.0
C136 C 0.5477 0.13903 0.55273 0.0
C137 C 0.57559 0.12218 0.53653 0.0
H138 H 0.69021 0.23695 0.53435 0.0
H139 H 0.5505 0.20273 0.57473 0.0
C140 C 0.70825 0.39682 0.66262 0.0
N141 N 0.69085 0.35082 0.64918 0.0
C142 C 0.70924 0.39845 0.69141 0.0
C143 C 0.67448 0.30544 0.69199 0.0
C144 C 0.67336 0.30547 0.66327 0.0
C145 C 0.6928 0.35238 0.70634 0.0
H146 H 0.72146 0.43226 0.65096 0.0
H147 H 0.65866 0.26923 0.65221 0.0
O148 O 0.69057 0.34985 0.53962 0.0
O149 O 0.72505 0.42046 0.59217 0.0
O150 O 0.62218 0.32114 0.59209 0.0
O151 O 0.72228 0.31284 0.59028 0.0
H152 H 0.73712 0.3872 0.49185 0.0
H153 H 0.58977 0.28739 0.53079 0.0
H154 H 0.69224 0.36731 0.44662 0.0
H155 H 0.54736 0.26943 0.485 0.0
H156 H 0.89126 0.53305 0.61835 0.0
H157 H 0.74222 0.49848 0.55929 0.0
H158 H 0.80925 0.4482 0.62213 0.0
H159 H 0.82527 0.58259 0.55673 0.0
H160 H 0.62068 0.47852 0.49857 0.0
H161 H 0.55196 0.4585 0.57938 0.0
H162 H 0.92634 0.41016 0.563 0.0
H163 H 0.88944 0.5025 0.50892 0.0
H164 H 0.57794 0.26069 0.63546 0.0
H165 H 0.54777 0.31725 0.56013 0.0
H166 H 0.48305 0.20962 0.64403 0.0
H167 H 0.45348 0.265 0.56996 0.0
H168 H 0.67448 0.21173 0.60054 0.0
H169 H 0.79846 0.36171 0.62643 0.0
H170 H 0.69811 0.17103 0.63816 0.0
H171 H 0.8198 0.31837 0.66366 0.0
H172 H 0.65012 0.14666 0.51708 0.0
H173 H 0.50732 0.1129 0.55798 0.0
H174 H 0.72345 0.43533 0.70191 0.0
H175 H 0.6608 0.26907 0.70291 0.0
Li176 Li 0.38327 0.73744 0.46292 0.0
Li177 Li 0.35621 0.68157 0.42314 0.0
Li178 Li 0.30178 0.65627 0.46401 0.0
Li179 Li 0.38244 0.65538 0.46424 0.0
C180 C 0.29449 0.74129 0.44784 0.0
N181 N 0.24088 0.79027 0.46453 0.0
C182 C 0.26752 0.75369 0.42859 0.0
C183 C 0.29426 0.75387 0.47558 0.0
C184 C 0.24063 0.77844 0.43743 0.0
C185 C 0.26692 0.7786 0.48361 0.0
C186 C 0.46114 0.75827 0.42545 0.0
C187 C 0.54873 0.81434 0.40928 0.0
N188 N 0.53219 0.84239 0.39472 0.0
C189 C 0.44499 0.78763 0.41031 0.0
C190 C 0.51339 0.77166 0.42494 0.0
C191 C 0.48151 0.83001 0.39491 0.0
C192 C 0.45047 0.81861 0.4981 0.0
N193 N 0.42018 0.80788 0.47536 0.0
C194 C 0.44246 0.89694 0.47171 0.0
C195 C 0.41616 0.84586 0.46193 0.0
C196 C 0.47324 0.90904 0.4955 0.0
C197 C 0.47765 0.86923 0.50854 0.0
H198 H 0.45341 0.78771 0.50816 0.0
H199 H 0.39216 0.83646 0.44373 0.0
C200 C 0.31341 0.67584 0.37063 0.0
N201 N 0.35528 0.67925 0.38384 0.0
C202 C 0.31119 0.67459 0.34187 0.0
C203 C 0.39509 0.68007 0.34088 0.0
C204 C 0.39574 0.68134 0.36962 0.0
C205 C 0.35235 0.67653 0.32663 0.0
H206 H 0.28186 0.67437 0.38249 0.0
H207 H 0.42867 0.68412 0.38058 0.0
C208 C 0.34201 0.65378 0.51568 0.0
N209 N 0.31267 0.59105 0.56187 0.0
C210 C 0.30981 0.59994 0.51311 0.0
C211 C 0.35926 0.67572 0.54173 0.0
C212 C 0.29542 0.5689 0.5367 0.0
C213 C 0.344 0.64335 0.56484 0.0
C214 C 0.32592 0.57735 0.42541 0.0
C215 C 0.28267 0.52952 0.41849 0.0
C216 C 0.37523 0.5894 0.41608 0.0
C217 C 0.28947 0.49451 0.40227 0.0
C218 C 0.38043 0.55336 0.39991 0.0
N219 N 0.3378 0.50706 0.39339 0.0
C220 C 0.19446 0.58506 0.46016 0.0
C221 C 0.21903 0.63385 0.50162 0.0
C222 C 0.14253 0.55789 0.46864 0.0
N223 N 0.23144 0.62194 0.47672 0.0
C224 C 0.16757 0.6078 0.51085 0.0
C225 C 0.12868 0.56893 0.49439 0.0
H226 H 0.20541 0.57672 0.44037 0.0
H227 H 0.24911 0.66331 0.51444 0.0
C228 C 0.46864 0.65193 0.48549 0.0
N229 N 0.41769 0.62168 0.47865 0.0
C230 C 0.49655 0.62932 0.49581 0.0
C231 C 0.41897 0.54487 0.49189 0.0
C232 C 0.39251 0.5691 0.48176 0.0
C233 C 0.47163 0.57509 0.49911 0.0
H234 H 0.48762 0.69364 0.48278 0.0
H235 H 0.35192 0.54588 0.47628 0.0
O236 O 0.32084 0.71694 0.43937 0.0
O237 O 0.42627 0.71657 0.44076 0.0
O238 O 0.35688 0.68517 0.49292 0.0
O239 O 0.31961 0.61196 0.44123 0.0
H240 H 0.26739 0.7443 0.40703 0.0
H241 H 0.31507 0.74485 0.49079 0.0
H242 H 0.21958 0.78825 0.42275 0.0
H243 H 0.26643 0.78855 0.50501 0.0
H244 H 0.58931 0.82515 0.40869 0.0
H245 H 0.40472 0.7778 0.41034 0.0
H246 H 0.52648 0.74927 0.43652 0.0
H247 H 0.46954 0.85305 0.3831 0.0
H248 H 0.43805 0.92652 0.46107 0.0
H249 H 0.502 0.87716 0.52652 0.0
H250 H 0.278 0.67289 0.33167 0.0
H251 H 0.42751 0.68148 0.32989 0.0
H252 H 0.29593 0.58222 0.49315 0.0
H253 H 0.38418 0.71735 0.54405 0.0
H254 H 0.27051 0.52718 0.53501 0.0
H255 H 0.35708 0.6598 0.58514 0.0
H256 H 0.24423 0.51955 0.42559 0.0
H257 H 0.40922 0.62609 0.42129 0.0
H258 H 0.25633 0.45735 0.39674 0.0
H259 H 0.41837 0.56221 0.39255 0.0
H260 H 0.11347 0.52884 0.45514 0.0
H261 H 0.15837 0.61734 0.53085 0.0
H262 H 0.53736 0.65385 0.50072 0.0
H263 H 0.39841 0.50296 0.49423 0.0
Li264 Li 0.66543 0.29366 0.96219 0.0
Li265 Li 0.66335 0.37572 0.96299 0.0
Li266 Li 0.69152 0.34893 0.92289 0.0
Li267 Li 0.74689 0.37615 0.96211 0.0
C268 C 0.59121 0.2877 0.91803 0.0
N269 N 0.53366 0.23904 0.8715 0.0
C270 C 0.56982 0.31162 0.90225 0.0
C271 C 0.58327 0.23897 0.91013 0.0
C272 C 0.54092 0.28644 0.87878 0.0
C273 C 0.55402 0.21499 0.88657 0.0
C274 C 0.66767 0.32244 1.01453 0.0
C275 C 0.66801 0.28648 0.05899 0.0
N276 N 0.61576 0.26662 0.06095 0.0
C277 C 0.61398 0.30173 0.017 0.0
C278 C 0.69495 0.31479 0.03568 0.0
C279 C 0.58844 0.27361 0.04061 0.0
C280 C 0.6615 0.20257 0.98244 0.0
N281 N 0.63211 0.22423 0.97584 0.0
C282 C 0.55442 0.14671 0.98906 0.0
C283 C 0.57957 0.19758 0.979 0.0
C284 C 0.58363 0.12302 0.99574 0.0
C285 C 0.63791 0.15166 0.99249 0.0
H286 H 0.70328 0.22493 0.97994 0.0
H287 H 0.5572 0.21588 0.97365 0.0
C288 C 0.60731 0.42867 0.958 0.0
N289 N 0.62955 0.41155 0.97655 0.0
C290 C 0.58256 0.45552 0.96687 0.0
C291 C 0.60515 0.44778 1.01374 0.0
C292 C 0.62964 0.42128 1.00395 0.0
C293 C 0.58123 0.46525 0.99508 0.0
H294 H 0.60919 0.42184 0.93629 0.0
H295 H 0.64918 0.40898 0.01823 0.0
C296 C 0.76913 0.32261 0.92338 0.0
N297 N 0.85387 0.33994 0.89189 0.0
C298 C 0.79896 0.37019 0.90989 0.0
C299 C 0.78238 0.28385 0.92081 0.0
C300 C 0.84166 0.3782 0.89409 0.0
C301 C 0.82537 0.29336 0.90481 0.0
C302 C 0.74883 0.46906 0.9493 0.0
C303 C 0.76509 0.51056 0.93092 0.0
C304 C 0.75636 0.479 0.97759 0.0
C305 C 0.78866 0.56134 0.94113 0.0
C306 C 0.78005 0.53032 0.98698 0.0
N307 N 0.79557 0.57009 0.96872 0.0
C308 C 0.6969 0.39197 0.87009 0.0
C309 C 0.68619 0.30738 0.8696 0.0
C310 C 0.69821 0.39369 0.84132 0.0
N311 N 0.69127 0.34937 0.88355 0.0
C312 C 0.68651 0.30712 0.84085 0.0
C313 C 0.69335 0.351 0.8263 0.0
H314 H 0.70066 0.42471 0.88174 0.0
H315 H 0.68173 0.27398 0.88085 0.0
C316 C 0.83125 0.38594 0.99356 0.0
N317 N 0.81771 0.41022 0.97434 0.0
C318 C 0.88252 0.40905 1.00298 0.0
C319 C 0.9052 0.48124 0.97223 0.0
C320 C 0.85367 0.45663 0.96331 0.0
C321 C 0.92026 0.45737 0.99227 0.0
H322 H 0.80229 0.34833 1.00135 0.0
H323 H 0.84261 0.47463 0.94746 0.0
O324 O 0.62067 0.31227 0.94074 0.0
O325 O 0.69313 0.34927 0.99131 0.0
O326 O 0.72702 0.31356 0.93899 0.0
O327 O 0.72524 0.41914 0.93944 0.0
H328 H 0.57579 0.34941 0.90787 0.0
H329 H 0.60036 0.22026 0.92171 0.0
H330 H 0.52434 0.30463 0.86632 0.0
H331 H 0.54783 0.17742 0.88016 0.0
H332 H 0.68865 0.2803 0.07553 0.0
H333 H 0.59217 0.30685 1.00069 0.0
H334 H 0.73649 0.33066 0.0342 0.0
H335 H 0.54687 0.25719 0.04273 0.0
H336 H 0.51249 0.12585 0.99124 0.0
H337 H 0.66185 0.13504 0.9979 0.0
H338 H 0.56427 0.46812 0.95186 0.0
H339 H 0.60551 0.4552 0.03561 0.0
H340 H 0.78931 0.40064 0.91152 0.0
H341 H 0.75962 0.24679 0.9311 0.0
H342 H 0.86506 0.41483 0.88356 0.0
H343 H 0.83607 0.2637 0.90265 0.0
H344 H 0.75962 0.50364 0.90896 0.0
H345 H 0.74432 0.44765 0.99221 0.0
H346 H 0.80144 0.59381 0.92712 0.0
H347 H 0.78611 0.53853 1.00881 0.0
H348 H 0.7036 0.42832 0.83096 0.0
H349 H 0.68104 0.27272 0.83017 0.0
H350 H 0.89267 0.38909 0.01824 0.0
H351 H 0.93282 0.51884 0.96372 0.0
C352 C 0.39582 0.71235 0.25226 0.0
C353 C 0.35224 0.67603 0.23716 0.0
C354 C 0.39541 0.7123 0.28114 0.0
C355 C 0.35145 0.67584 0.29602 0.0
H356 H 0.43035 0.74141 0.24166 0.0
H357 H 0.42964 0.74139 0.2919 0.0
S358 S 0.22888 0.57003 0.2662 0.0
N359 N 0.26487 0.60114 0.23916 0.0
N360 N 0.26417 0.60082 0.29346 0.0
C361 C 0.30781 0.63895 0.28116 0.0
C362 C 0.30819 0.63909 0.25174 0.0
C363 C 0.6671 0.37178 0.75198 0.0
C364 C 0.6946 0.35306 0.7368 0.0
C365 C 0.66699 0.37107 0.78088 0.0
C366 C 0.69484 0.35212 0.79564 0.0
H367 H 0.64471 0.3861 0.74141 0.0
H368 H 0.64421 0.38469 0.79172 0.0
S369 S 0.77737 0.30379 0.76514 0.0
N370 N 0.75253 0.31775 0.7383 0.0
N371 N 0.75384 0.31784 0.79258 0.0
C372 C 0.72366 0.33463 0.78055 0.0
C373 C 0.72319 0.33479 0.75116 0.0
C374 C 0.49221 0.49736 0.0363 0.0
C375 C 0.50187 0.54486 0.02482 0.0
C376 C 0.5182 0.47201 0.02664 0.0
C377 C 0.55472 0.49318 1.00511 0.0
H378 H 0.46379 0.47925 0.05263 0.0
H379 H 0.50909 0.43518 0.03584 0.0
S380 S 0.59743 0.61883 0.96974 0.0
N381 N 0.55286 0.61362 0.99191 0.0
N382 N 0.60146 0.56578 0.97369 0.0
C383 C 0.56535 0.54101 0.99374 0.0
C384 C 0.53899 0.56688 1.0036 0.0
C385 C 0.04992 0.5676 0.51388 0.0
C386 C 0.07394 0.54018 0.50413 0.0
C387 C 0.99834 0.54128 0.52333 0.0
C388 C 0.96913 0.48658 0.5237 0.0
H389 H 0.07106 0.60975 0.51402 0.0
H390 H 0.98141 0.56391 0.53077 0.0
S391 S 1.01405 0.3967 0.50045 0.0
N392 N 0.06472 0.45534 0.49555 0.0
N393 N 0.9677 0.4059 0.51314 0.0
C394 C 0.99268 0.45872 0.514 0.0
C395 C 0.04504 0.4855 0.50421 0.0
C396 C 0.52085 0.0535 0.02763 0.0
C397 C 0.5573 0.06866 1.00607 0.0
C398 C 0.49466 1.00215 0.03737 0.0
C399 C 0.50386 0.96398 0.0259 0.0
H400 H 0.51278 0.08168 0.03718 0.0
H401 H 0.46726 0.99234 0.05418 0.0
S402 S 0.59272 0.98287 0.96768 0.0
N403 N 0.59957 0.04095 0.97273 0.0
N404 N 0.55019 0.94438 0.99093 0.0
C405 C 0.53992 0.97855 1.00418 0.0
C406 C 0.56666 0.03087 0.9943 0.0
C407 C 0.52575 0.4836 0.50396 0.0
C408 C 0.5553 0.49965 0.52832 0.0
C409 C 0.49863 0.50803 0.49477 0.0
C410 C 0.50053 0.54982 0.50944 0.0
H411 H 0.52306 0.45145 0.49207 0.0
H412 H 0.47638 0.49442 0.47589 0.0
S413 S 0.57271 0.60703 0.5743 0.0
N414 N 0.58534 0.56026 0.56678 0.0
N415 N 0.53406 0.60598 0.5496 0.0
C416 C 0.53012 0.56643 0.53375 0.0
C417 C 0.55747 0.54132 0.54321 0.0
C418 C 0.03623 0.51262 0.04081 0.0
C419 C 0.07895 0.5362 0.02275 0.0
C420 C 0.9851 0.48672 0.03078 0.0
C421 C 0.97485 0.48322 1.0023 0.0
H422 H 0.04238 0.51514 0.06288 0.0
H423 H 0.95335 0.47024 0.04546 0.0
S424 S 0.07357 0.53361 0.94644 0.0
N425 N 0.108 0.55151 0.97513 0.0
N426 N 1.01201 0.50215 0.95618 0.0
C427 C 1.01739 0.50539 0.98403 0.0
C428 C 0.06938 0.53202 0.99427 0.0
C429 C 0.55379 0.05674 0.49879 0.0
C430 C 0.5506 0.06746 0.52674 0.0
C431 C 0.5289 1.00546 0.48889 0.0
C432 C 0.50026 0.96294 0.50662 0.0
H433 H 0.57491 0.08829 0.48435 0.0
H434 H 0.53224 0.99904 0.4672 0.0
S435 S 0.48109 0.97003 0.58172 0.0
N436 N 0.51787 0.03127 0.57216 0.0
N437 N 0.47019 0.93504 0.55348 0.0
C438 C 0.49726 0.97311 0.53466 0.0
C439 C 0.52255 0.0253 0.54473 0.0
loop_
_geom_bond_atom_site_label_1
_geom_bond_atom_site_label_2
_geom_bond_distance
_geom_bond_site_symmetry_2
_ccdc_geom_bond_type
Li0 N17 1.990 . S
Li0 O60 1.956 . S
Li0 O61 1.970 . S
Li0 O62 1.961 . S
Li1 N25 1.990 . S
Li1 O60 1.970 . S
Li1 O61 1.956 . S
Li1 O63 1.961 . S
Li2 N47 1.990 . S
Li2 O60 1.961 . S
Li2 O62 1.956 . S
Li2 O63 1.970 . S
Li3 N53 1.990 . S
Li3 O61 1.961 . S
Li3 O62 1.970 . S
Li3 O63 1.956 . S
C4 C6 1.348 . S
C4 C7 1.356 . S
C4 O60 1.325 . S
N5 C8 1.314 . S
N5 C9 1.279 . S
C6 C4 1.348 . S
C6 C8 1.353 . S
C6 H64 0.929 . S
C7 C4 1.356 . S
C7 C9 1.358 . S
C7 H65 0.930 . S
C8 N5 1.314 . S
C8 C6 1.353 . S
C8 H66 0.930 . S
C9 N5 1.279 . S
C9 C7 1.358 . S
C9 H67 0.930 . S
C10 C13 1.348 . S
C10 C14 1.356 . S
C10 O61 1.325 . S
C11 N12 1.279 . S
C11 C14 1.358 . S
C11 H68 0.930 . S
N12 C11 1.279 . S
N12 C15 1.314 . S
C13 C10 1.348 . S
C13 C15 1.353 . S
C13 H69 0.929 . S
C14 C10 1.356 . S
C14 C11 1.358 . S
C14 H70 0.930 . S
C15 N12 1.314 . S
C15 C13 1.353 . S
C15 H71 0.930 . S
C16 N17 1.314 . S
C16 C21 1.353 . S
C16 H22 0.930 . S
N17 Li0 1.990 . S
N17 C16 1.314 . S
N17 C19 1.279 . S
C18 C19 1.358 . S
C18 C20 1.356 . S
C18 H72 0.930 . S
C19 N17 1.279 . S
C19 C18 1.358 . S
C19 H23 0.930 . S
C20 C18 1.356 . S
C20 C21 1.348 . S
C21 C16 1.353 . S
C21 C20 1.348 . S
C21 H73 0.929 . S
H22 C16 0.930 . S
H23 C19 0.930 . S
C24 N25 1.314 . S
C24 C26 1.353 . S
C24 H30 0.930 . S
N25 Li1 1.990 . S
N25 C24 1.314 . S
N25 C28 1.279 . S
C26 C24 1.353 . S
C26 C29 1.348 . S
C26 H74 0.929 1_554 S
C27 C28 1.358 . S
C27 C29 1.356 . S
C27 H75 0.930 . S
C28 N25 1.279 . S
C28 C27 1.358 . S
C28 H31 0.930 . S
C29 C26 1.348 . S
C29 C27 1.356 . S
H30 C24 0.930 . S
H31 C28 0.930 . S
C32 C34 1.348 . S
C32 C35 1.356 . S
C32 O62 1.325 . S
N33 C36 1.314 . S
N33 C37 1.279 . S
C34 C32 1.348 . S
C34 C36 1.353 . S
C34 H76 0.929 . S
C35 C32 1.356 . S
C35 C37 1.358 . S
C35 H77 0.930 . S
C36 N33 1.314 . S
C36 C34 1.353 . S
C36 H78 0.930 . S
C37 N33 1.279 . S
C37 C35 1.358 . S
C37 H79 0.930 . S
C38 C39 1.324 1_554 S
C38 C40 1.334 1_554 S
C38 O63 1.368 . S
C39 C38 1.324 1_556 S
C39 C41 1.353 . S
C39 H80 0.929 . S
C40 C38 1.334 1_556 S
C40 C42 1.358 . S
C40 H81 0.930 . S
C41 C39 1.353 . S
C41 N43 1.314 . S
C41 H82 0.930 . S
C42 C40 1.358 . S
C42 N43 1.279 . S
C42 H83 0.930 . S
N43 C41 1.314 . S
N43 C42 1.279 . S
C44 C46 1.353 . S
C44 N47 1.314 . S
C44 H50 0.930 . S
C45 N47 1.279 . S
C45 C48 1.358 . S
C45 H51 0.930 . S
C46 C44 1.353 . S
C46 C49 1.348 . S
C46 H84 0.929 . S
N47 Li2 1.990 . S
N47 C44 1.314 . S
N47 C45 1.279 . S
C48 C45 1.358 . S
C48 C49 1.356 . S
C48 H85 0.930 . S
C49 C46 1.348 . S
C49 C48 1.356 . S
H50 C44 0.930 . S
H51 C45 0.930 . S
C52 N53 1.314 . S
C52 C54 1.353 . S
C52 H58 0.930 . S
N53 Li3 1.990 . S
N53 C52 1.314 . S
N53 C56 1.279 . S
C54 C52 1.353 . S
C54 C57 1.348 . S
C54 H86 0.929 . S
C55 C56 1.358 . S
C55 C57 1.356 . S
C55 H87 0.930 1_554 S
C56 N53 1.279 . S
C56 C55 1.358 . S
C56 H59 0.936 . S
C57 C54 1.348 . S
C57 C55 1.356 . S
H58 C52 0.930 . S
H59 C56 0.936 . S
O60 Li0 1.956 . S
O60 Li1 1.970 . S
O60 Li2 1.961 . S
O60 C4 1.325 . S
O61 Li0 1.970 . S
O61 Li1 1.956 . S
O61 Li3 1.961 . S
O61 C10 1.325 . S
O62 Li0 1.961 . S
O62 Li2 1.956 . S
O62 Li3 1.970 . S
O62 C32 1.325 . S
O63 Li1 1.961 . S
O63 Li2 1.970 . S
O63 Li3 1.956 . S
O63 C38 1.368 . S
H64 C6 0.929 . S
H65 C7 0.930 . S
H66 C8 0.930 . S
H67 C9 0.930 . S
H68 C11 0.930 . S
H69 C13 0.929 . S
H70 C14 0.930 . S
H71 C15 0.930 . S
H72 C18 0.930 . S
H73 C21 0.929 . S
H74 C26 0.929 1_556 S
H75 C27 0.930 . S
H76 C34 0.929 . S
H77 C35 0.930 . S
H78 C36 0.930 . S
H79 C37 0.930 . S
H80 C39 0.929 . S
H81 C40 0.930 . S
H82 C41 0.930 . S
H83 C42 0.930 . S
H84 C46 0.929 . S
H85 C48 0.930 . S
H86 C54 0.929 . S
H87 C55 0.930 1_556 S
Li88 N105 1.990 . S
Li88 O148 1.956 . S
Li88 O149 1.970 . S
Li88 O150 1.961 . S
Li89 N113 1.990 . S
Li89 O148 1.970 . S
Li89 O149 1.956 . S
Li89 O151 1.961 . S
Li90 N135 1.990 . S
Li90 O148 1.961 . S
Li90 O150 1.956 . S
Li90 O151 1.970 . S
Li91 N141 1.990 . S
Li91 O149 1.961 . S
Li91 O150 1.970 . S
Li91 O151 1.956 . S
C92 C94 1.348 . S
C92 C95 1.356 . S
C92 O148 1.325 . S
N93 C96 1.314 . S
N93 C97 1.279 . S
C94 C92 1.348 . S
C94 C96 1.353 . S
C94 H152 0.929 . S
C95 C92 1.356 . S
C95 C97 1.358 . S
C95 H153 0.930 . S
C96 N93 1.314 . S
C96 C94 1.353 . S
C96 H154 0.930 . S
C97 N93 1.279 . S
C97 C95 1.358 . S
C97 H155 0.930 . S
C98 C101 1.348 . S
C98 C102 1.356 . S
C98 O149 1.325 . S
C99 N100 1.279 . S
C99 C102 1.358 . S
C99 H156 0.930 . S
N100 C99 1.279 . S
N100 C103 1.314 . S
C101 C98 1.348 . S
C101 C103 1.353 . S
C101 H157 0.929 . S
C102 C98 1.356 . S
C102 C99 1.358 . S
C102 H158 0.930 . S
C103 N100 1.314 . S
C103 C101 1.353 . S
C103 H159 0.930 . S
C104 N105 1.314 . S
C104 C109 1.353 . S
C104 H110 0.930 . S
N105 Li88 1.990 . S
N105 C104 1.314 . S
N105 C107 1.279 . S
C106 C107 1.358 . S
C106 C108 1.356 . S
C106 H160 0.930 . S
C107 N105 1.279 . S
C107 C106 1.358 . S
C107 H111 0.930 . S
C108 C106 1.356 . S
C108 C109 1.348 . S
C109 C104 1.353 . S
C109 C108 1.348 . S
C109 H161 0.929 . S
H110 C104 0.930 . S
H111 C107 0.930 . S
C112 N113 1.314 . S
C112 C114 1.353 . S
C112 H118 0.930 . S
N113 Li89 1.990 . S
N113 C112 1.314 . S
N113 C116 1.279 . S
C114 C112 1.353 . S
C114 C117 1.348 . S
C114 H162 0.929 . S
C115 C116 1.358 . S
C115 C117 1.356 . S
C115 H163 0.930 . S
C116 N113 1.279 . S
C116 C115 1.358 . S
C116 H119 0.930 . S
C117 C114 1.348 . S
C117 C115 1.356 . S
H118 C112 0.930 . S
H119 C116 0.930 . S
C120 C122 1.348 . S
C120 C123 1.356 . S
C120 O150 1.325 . S
N121 C124 1.314 . S
N121 C125 1.279 . S
C122 C120 1.348 . S
C122 C124 1.353 . S
C122 H164 0.929 . S
C123 C120 1.356 . S
C123 C125 1.358 . S
C123 H165 0.930 . S
C124 N121 1.314 . S
C124 C122 1.353 . S
C124 H166 0.930 . S
C125 N121 1.279 . S
C125 C123 1.358 . S
C125 H167 0.930 . S
C126 C127 1.348 . S
C126 C128 1.356 . S
C126 O151 1.325 . S
C127 C126 1.348 . S
C127 C129 1.353 . S
C127 H168 0.929 . S
C128 C126 1.356 . S
C128 C130 1.358 . S
C128 H169 0.930 . S
C129 C127 1.353 . S
C129 N131 1.314 . S
C129 H170 0.930 . S
C130 C128 1.358 . S
C130 N131 1.279 . S
C130 H171 0.930 . S
N131 C129 1.314 . S
N131 C130 1.279 . S
C132 C134 1.353 . S
C132 N135 1.314 . S
C132 H138 0.930 . S
C133 N135 1.279 . S
C133 C136 1.358 . S
C133 H139 0.930 . S
C134 C132 1.353 . S
C134 C137 1.348 . S
C134 H172 0.929 . S
N135 Li90 1.990 . S
N135 C132 1.314 . S
N135 C133 1.279 . S
C136 C133 1.358 . S
C136 C137 1.356 . S
C136 H173 0.930 . S
C137 C134 1.348 . S
C137 C136 1.356 . S
H138 C132 0.930 . S
H139 C133 0.930 . S
C140 N141 1.314 . S
C140 C142 1.353 . S
C140 H146 0.930 . S
N141 Li91 1.990 . S
N141 C140 1.314 . S
N141 C144 1.279 . S
C142 C140 1.353 . S
C142 C145 1.348 . S
C142 H174 0.929 . S
C143 C144 1.358 . S
C143 C145 1.356 . S
C143 H175 0.930 . S
C144 N141 1.279 . S
C144 C143 1.358 . S
C144 H147 0.930 . S
C145 C142 1.348 . S
C145 C143 1.356 . S
H146 C140 0.930 . S
H147 C144 0.930 . S
O148 Li88 1.956 . S
O148 Li89 1.970 . S
O148 Li90 1.961 . S
O148 C92 1.325 . S
O149 Li88 1.970 . S
O149 Li89 1.956 . S
O149 Li91 1.961 . S
O149 C98 1.325 . S
O150 Li88 1.961 . S
O150 Li90 1.956 . S
O150 Li91 1.970 . S
O150 C120 1.325 . S
O151 Li89 1.961 . S
O151 Li90 1.970 . S
O151 Li91 1.956 . S
O151 C126 1.325 . S
H152 C94 0.929 . S
H153 C95 0.930 . S
H154 C96 0.930 . S
H155 C97 0.930 . S
H156 C99 0.930 . S
H157 C101 0.929 . S
H158 C102 0.930 . S
H159 C103 0.930 . S
H160 C106 0.930 . S
H161 C109 0.929 . S
H162 C114 0.929 . S
H163 C115 0.930 . S
H164 C122 0.929 . S
H165 C123 0.930 . S
H166 C124 0.930 . S
H167 C125 0.930 . S
H168 C127 0.929 . S
H169 C128 0.930 . S
H170 C129 0.930 . S
H171 C130 0.930 . S
H172 C134 0.929 . S
H173 C136 0.930 . S
H174 C142 0.929 . S
H175 C143 0.930 . S
Li176 N193 1.990 . S
Li176 O236 1.956 . S
Li176 O237 1.970 . S
Li176 O238 1.961 . S
Li177 N201 1.990 . S
Li177 O236 1.970 . S
Li177 O237 1.956 . S
Li177 O239 1.961 . S
Li178 N223 1.990 . S
Li178 O236 1.961 . S
Li178 O238 1.956 . S
Li178 O239 1.970 . S
Li179 N229 1.990 . S
Li179 O237 1.961 . S
Li179 O238 1.970 . S
Li179 O239 1.956 . S
C180 C182 1.348 . S
C180 C183 1.356 . S
C180 O236 1.325 . S
N181 C184 1.314 . S
N181 C185 1.279 . S
C182 C180 1.348 . S
C182 C184 1.353 . S
C182 H240 0.929 . S
C183 C180 1.356 . S
C183 C185 1.358 . S
C183 H241 0.930 . S
C184 N181 1.314 . S
C184 C182 1.353 . S
C184 H242 0.930 . S
C185 N181 1.279 . S
C185 C183 1.358 . S
C185 H243 0.930 . S
C186 C189 1.348 . S
C186 C190 1.356 . S
C186 O237 1.325 . S
C187 N188 1.279 . S
C187 C190 1.358 . S
C187 H244 0.930 . S
N188 C187 1.279 . S
N188 C191 1.314 . S
C189 C186 1.348 . S
C189 C191 1.353 . S
C189 H245 0.929 . S
C190 C186 1.356 . S
C190 C187 1.358 . S
C190 H246 0.930 . S
C191 N188 1.314 . S
C191 C189 1.353 . S
C191 H247 0.930 . S
C192 N193 1.314 . S
C192 C197 1.353 . S
C192 H198 0.930 . S
N193 Li176 1.990 . S
N193 C192 1.314 . S
N193 C195 1.279 . S
C194 C195 1.358 . S
C194 C196 1.356 . S
C194 H248 0.930 . S
C195 N193 1.279 . S
C195 C194 1.358 . S
C195 H199 0.930 . S
C196 C194 1.356 . S
C196 C197 1.348 . S
C197 C192 1.353 . S
C197 C196 1.348 . S
C197 H249 0.929 . S
H198 C192 0.930 . S
H199 C195 0.930 . S
C200 N201 1.314 . S
C200 C202 1.353 . S
C200 H206 0.930 . S
N201 Li177 1.990 . S
N201 C200 1.314 . S
N201 C204 1.279 . S
C202 C200 1.353 . S
C202 C205 1.348 . S
C202 H250 0.929 . S
C203 C204 1.358 . S
C203 C205 1.356 . S
C203 H251 0.930 . S
C204 N201 1.279 . S
C204 C203 1.358 . S
C204 H207 0.930 . S
C205 C202 1.348 . S
C205 C203 1.356 . S
H206 C200 0.930 . S
H207 C204 0.930 . S
C208 C210 1.348 . S
C208 C211 1.356 . S
C208 O238 1.325 . S
N209 C212 1.314 . S
N209 C213 1.279 . S
C210 C208 1.348 . S
C210 C212 1.353 . S
C210 H252 0.929 . S
C211 C208 1.356 . S
C211 C213 1.358 . S
C211 H253 0.930 . S
C212 N209 1.314 . S
C212 C210 1.353 . S
C212 H254 0.930 . S
C213 N209 1.279 . S
C213 C211 1.358 . S
C213 H255 0.930 . S
C214 C215 1.348 . S
C214 C216 1.356 . S
C214 O239 1.325 . S
C215 C214 1.348 . S
C215 C217 1.353 . S
C215 H256 0.929 . S
C216 C214 1.356 . S
C216 C218 1.358 . S
C216 H257 0.930 . S
C217 C215 1.353 . S
C217 N219 1.314 . S
C217 H258 0.930 . S
C218 C216 1.358 . S
C218 N219 1.279 . S
C218 H259 0.930 . S
N219 C217 1.314 . S
N219 C218 1.279 . S
C220 C222 1.353 . S
C220 N223 1.314 . S
C220 H226 0.930 . S
C221 N223 1.279 . S
C221 C224 1.358 . S
C221 H227 0.930 . S
C222 C220 1.353 . S
C222 C225 1.348 . S
C222 H260 0.929 . S
N223 Li178 1.990 . S
N223 C220 1.314 . S
N223 C221 1.279 . S
C224 C221 1.358 . S
C224 C225 1.356 . S
C224 H261 0.930 . S
C225 C222 1.348 . S
C225 C224 1.356 . S
H226 C220 0.930 . S
H227 C221 0.930 . S
C228 N229 1.314 . S
C228 C230 1.353 . S
C228 H234 0.930 . S
N229 Li179 1.990 . S
N229 C228 1.314 . S
N229 C232 1.279 . S
C230 C228 1.353 . S
C230 C233 1.348 . S
C230 H262 0.929 . S
C231 C232 1.358 . S
C231 C233 1.356 . S
C231 H263 0.930 . S
C232 N229 1.279 . S
C232 C231 1.358 . S
C232 H235 0.930 . S
C233 C230 1.348 . S
C233 C231 1.356 . S
H234 C228 0.930 . S
H235 C232 0.930 . S
O236 Li176 1.956 . S
O236 Li177 1.970 . S
O236 Li178 1.961 . S
O236 C180 1.325 . S
O237 Li176 1.970 . S
O237 Li177 1.956 . S
O237 Li179 1.961 . S
O237 C186 1.325 . S
O238 Li176 1.961 . S
O238 Li178 1.956 . S
O238 Li179 1.970 . S
O238 C208 1.325 . S
O239 Li177 1.961 . S
O239 Li178 1.970 . S
O239 Li179 1.956 . S
O239 C214 1.325 . S
H240 C182 0.929 . S
H241 C183 0.930 . S
H242 C184 0.930 . S
H243 C185 0.930 . S
H244 C187 0.930 . S
H245 C189 0.929 . S
H246 C190 0.930 . S
H247 C191 0.930 . S
H248 C194 0.930 . S
H249 C197 0.929 . S
H250 C202 0.929 . S
H251 C203 0.930 . S
H252 C210 0.929 . S
H253 C211 0.930 . S
H254 C212 0.930 . S
H255 C213 0.930 . S
H256 C215 0.929 . S
H257 C216 0.930 . S
H258 C217 0.930 . S
H259 C218 0.930 . S
H260 C222 0.929 . S
H261 C224 0.930 . S
H262 C230 0.929 . S
H263 C231 0.930 . S
Li264 N281 1.990 . S
Li264 O324 1.956 . S
Li264 O325 1.970 . S
Li264 O326 1.961 . S
Li265 N289 1.990 . S
Li265 O324 1.970 . S
Li265 O325 1.956 . S
Li265 O327 1.961 . S
Li266 N311 1.990 . S
Li266 O324 1.961 . S
Li266 O326 1.956 . S
Li266 O327 1.970 . S
Li267 N317 1.990 . S
Li267 O325 1.961 . S
Li267 O326 1.970 . S
Li267 O327 1.956 . S
C268 C270 1.348 . S
C268 C271 1.356 . S
C268 O324 1.325 . S
N269 C272 1.314 . S
N269 C273 1.279 . S
C270 C268 1.348 . S
C270 C272 1.353 . S
C270 H328 0.929 . S
C271 C268 1.356 . S
C271 C273 1.358 . S
C271 H329 0.930 . S
C272 N269 1.314 . S
C272 C270 1.353 . S
C272 H330 0.930 . S
C273 N269 1.279 . S
C273 C271 1.358 . S
C273 H331 0.930 . S
C274 C277 1.324 1_556 S
C274 C278 1.334 1_556 S
C274 O325 1.368 . S
C275 N276 1.279 . S
C275 C278 1.358 . S
C275 H332 0.930 . S
N276 C275 1.279 . S
N276 C279 1.314 . S
C277 C274 1.324 1_554 S
C277 C279 1.353 . S
C277 H333 0.929 . S
C278 C274 1.334 1_554 S
C278 C275 1.358 . S
C278 H334 0.930 . S
C279 N276 1.314 . S
C279 C277 1.353 . S
C279 H335 0.930 . S
C280 N281 1.314 . S
C280 C285 1.353 . S
C280 H286 0.930 . S
N281 Li264 1.990 . S
N281 C280 1.314 . S
N281 C283 1.279 . S
C282 C283 1.358 . S
C282 C284 1.356 . S
C282 H336 0.930 . S
C283 N281 1.279 . S
C283 C282 1.358 . S
C283 H287 0.930 . S
C284 C282 1.356 . S
C284 C285 1.348 . S
C285 C280 1.353 . S
C285 C284 1.348 . S
C285 H337 0.929 . S
H286 C280 0.930 . S
H287 C283 0.930 . S
C288 N289 1.314 . S
C288 C290 1.353 . S
C288 H294 0.930 . S
N289 Li265 1.990 . S
N289 C288 1.314 . S
N289 C292 1.279 . S
C290 C288 1.353 . S
C290 C293 1.348 . S
C290 H338 0.929 . S
C291 C292 1.358 . S
C291 C293 1.356 . S
C291 H339 0.930 1_556 S
C292 N289 1.279 . S
C292 C291 1.358 . S
C292 H295 0.936 . S
C293 C290 1.348 . S
C293 C291 1.356 . S
H294 C288 0.930 . S
H295 C292 0.936 . S
C296 C298 1.348 . S
C296 C299 1.356 . S
C296 O326 1.325 . S
N297 C300 1.314 . S
N297 C301 1.279 . S
C298 C296 1.348 . S
C298 C300 1.353 . S
C298 H340 0.929 . S
C299 C296 1.356 . S
C299 C301 1.358 . S
C299 H341 0.930 . S
C300 N297 1.314 . S
C300 C298 1.353 . S
C300 H342 0.930 . S
C301 N297 1.279 . S
C301 C299 1.358 . S
C301 H343 0.930 . S
C302 C303 1.348 . S
C302 C304 1.356 . S
C302 O327 1.325 . S
C303 C302 1.348 . S
C303 C305 1.353 . S
C303 H344 0.929 . S
C304 C302 1.356 . S
C304 C306 1.358 . S
C304 H345 0.930 . S
C305 C303 1.353 . S
C305 N307 1.314 . S
C305 H346 0.930 . S
C306 C304 1.358 . S
C306 N307 1.279 . S
C306 H347 0.930 . S
N307 C305 1.314 . S
N307 C306 1.279 . S
C308 C310 1.353 . S
C308 N311 1.314 . S
C308 H314 0.930 . S
C309 N311 1.279 . S
C309 C312 1.358 . S
C309 H315 0.930 . S
C310 C308 1.353 . S
C310 C313 1.348 . S
C310 H348 0.929 . S
N311 Li266 1.990 . S
N311 C308 1.314 . S
N311 C309 1.279 . S
C312 C309 1.358 . S
C312 C313 1.356 . S
C312 H349 0.930 . S
C313 C310 1.348 . S
C313 C312 1.356 . S
H314 C308 0.930 . S
H315 C309 0.930 . S
C316 N317 1.314 . S
C316 C318 1.353 . S
C316 H322 0.930 . S
N317 Li267 1.990 . S
N317 C316 1.314 . S
N317 C320 1.279 . S
C318 C316 1.353 . S
C318 C321 1.348 . S
C318 H350 0.929 1_556 S
C319 C320 1.358 . S
C319 C321 1.356 . S
C319 H351 0.930 . S
C320 N317 1.279 . S
C320 C319 1.358 . S
C320 H323 0.930 . S
C321 C318 1.348 . S
C321 C319 1.356 . S
H322 C316 0.930 . S
H323 C320 0.930 . S
O324 Li264 1.956 . S
O324 Li265 1.970 . S
O324 Li266 1.961 . S
O324 C268 1.325 . S
O325 Li264 1.970 . S
O325 Li265 1.956 . S
O325 Li267 1.961 . S
O325 C274 1.368 . S
O326 Li264 1.961 . S
O326 Li266 1.956 . S
O326 Li267 1.970 . S
O326 C296 1.325 . S
O327 Li265 1.961 . S
O327 Li266 1.970 . S
O327 Li267 1.956 . S
O327 C302 1.325 . S
H328 C270 0.929 . S
H329 C271 0.930 . S
H330 C272 0.930 . S
H331 C273 0.930 . S
H332 C275 0.930 . S
H333 C277 0.929 . S
H334 C278 0.930 . S
H335 C279 0.930 . S
H336 C282 0.930 . S
H337 C285 0.929 . S
H338 C290 0.929 . S
H339 C291 0.930 1_554 S
H340 C298 0.929 . S
H341 C299 0.930 . S
H342 C300 0.930 . S
H343 C301 0.930 . S
H344 C303 0.929 . S
H345 C304 0.930 . S
H346 C305 0.930 . S
H347 C306 0.930 . S
H348 C310 0.929 . S
H349 C312 0.930 . S
H350 C318 0.929 1_554 S
H351 C319 0.930 . S
C352 C353 1.369 . S
C352 C354 1.419 . S
C352 H356 0.930 . S
C353 C352 1.369 . S
C353 C362 1.429 . S
C354 C352 1.419 . S
C354 C355 1.363 . S
C354 H357 0.929 . S
C355 C354 1.363 . S
C355 C361 1.428 . S
H356 C352 0.930 . S
H357 C354 0.929 . S
S358 N359 1.613 . S
S358 N360 1.610 . S
N359 S358 1.613 . S
N359 C362 1.350 . S
N360 S358 1.610 . S
N360 C361 1.351 . S
C361 C355 1.428 . S
C361 N360 1.351 . S
C361 C362 1.434 . S
C362 C353 1.429 . S
C362 N359 1.350 . S
C362 C361 1.434 . S
C363 C364 1.369 . S
C363 C365 1.419 . S
C363 H367 0.930 . S
C364 C363 1.369 . S
C364 C373 1.429 . S
C365 C363 1.419 . S
C365 C366 1.363 . S
C365 H368 0.929 . S
C366 C365 1.363 . S
C366 C372 1.428 . S
H367 C363 0.930 . S
H368 C365 0.929 . S
S369 N370 1.613 . S
S369 N371 1.610 . S
N370 S369 1.613 . S
N370 C373 1.350 . S
N371 S369 1.610 . S
N371 C372 1.351 . S
C372 C366 1.428 . S
C372 N371 1.351 . S
C372 C373 1.434 . S
C373 C364 1.429 . S
C373 N370 1.350 . S
C373 C372 1.434 . S
C374 C375 1.369 . S
C374 C376 1.419 . S
C374 H378 0.930 . S
C375 C374 1.369 . S
C375 C384 1.429 1_554 S
C376 C374 1.419 . S
C376 C377 1.363 1_554 S
C376 H379 0.929 . S
C377 C376 1.363 1_556 S
C377 C383 1.428 . S
H378 C374 0.930 . S
H379 C376 0.929 . S
S380 N381 1.613 . S
S380 N382 1.610 . S
N381 S380 1.613 . S
N381 C384 1.350 . S
N382 S380 1.610 . S
N382 C383 1.351 . S
C383 C377 1.428 . S
C383 N382 1.351 . S
C383 C384 1.434 . S
C384 C375 1.429 1_556 S
C384 N381 1.350 . S
C384 C383 1.434 . S
C385 C386 1.369 . S
C385 C387 1.419 1_455 S
C385 H389 0.930 . S
C386 C385 1.369 . S
C386 C395 1.429 . S
C387 C385 1.419 1_655 S
C387 C388 1.363 . S
C387 H390 0.929 . S
C388 C387 1.363 . S
C388 C394 1.428 . S
H389 C385 0.930 . S
H390 C387 0.929 . S
S391 N392 1.613 1_655 S
S391 N393 1.610 . S
N392 S391 1.613 1_455 S
N392 C395 1.350 . S
N393 S391 1.610 . S
N393 C394 1.351 . S
C394 C388 1.428 . S
C394 N393 1.351 . S
C394 C395 1.434 1_655 S
C395 C386 1.429 . S
C395 N392 1.350 . S
C395 C394 1.434 1_455 S
C396 C397 1.369 1_554 S
C396 C398 1.419 1_545 S
C396 H400 0.930 . S
C397 C396 1.369 1_556 S
C397 C406 1.429 . S
C398 C396 1.419 1_565 S
C398 C399 1.363 . S
C398 H401 0.929 . S
C399 C398 1.363 . S
C399 C405 1.428 1_554 S
H400 C396 0.930 . S
H401 C398 0.929 . S
S402 N403 1.613 1_565 S
S402 N404 1.610 . S
N403 S402 1.613 1_545 S
N403 C406 1.350 . S
N404 S402 1.610 . S
N404 C405 1.351 . S
C405 C399 1.428 1_556 S
C405 N404 1.351 . S
C405 C406 1.434 1_565 S
C406 C397 1.429 . S
C406 N403 1.350 . S
C406 C405 1.434 1_545 S
C407 C408 1.369 . S
C407 C409 1.419 . S
C407 H411 0.930 . S
C408 C407 1.369 . S
C408 C417 1.429 . S
C409 C407 1.419 . S
C409 C410 1.363 . S
C409 H412 0.929 . S
C410 C409 1.363 . S
C410 C416 1.428 . S
H411 C407 0.930 . S
H412 C409 0.929 . S
S413 N414 1.613 . S
S413 N415 1.610 . S
N414 S413 1.613 . S
N414 C417 1.350 . S
N415 S413 1.610 . S
N415 C416 1.351 . S
C416 C410 1.428 . S
C416 N415 1.351 . S
C416 C417 1.434 . S
C417 C408 1.429 . S
C417 N414 1.350 . S
C417 C416 1.434 . S
C418 C419 1.369 . S
C418 C420 1.419 1_455 S
C418 H422 0.930 . S
C419 C418 1.369 . S
C419 C428 1.429 1_554 S
C420 C418 1.419 1_655 S
C420 C421 1.363 1_554 S
C420 H423 0.929 . S
C421 C420 1.363 1_556 S
C421 C427 1.428 . S
H422 C418 0.930 . S
H423 C420 0.929 . S
S424 N425 1.613 . S
S424 N426 1.610 1_455 S
N425 S424 1.613 . S
N425 C428 1.350 . S
N426 S424 1.610 1_655 S
N426 C427 1.351 . S
C427 C421 1.428 . S
C427 N426 1.351 . S
C427 C428 1.434 1_655 S
C428 C419 1.429 1_556 S
C428 N425 1.350 . S
C428 C427 1.434 1_455 S
C429 C430 1.369 . S
C429 C431 1.419 1_545 S
C429 H433 0.930 . S
C430 C429 1.369 . S
C430 C439 1.429 . S
C431 C429 1.419 1_565 S
C431 C432 1.363 . S
C431 H434 0.929 . S
C432 C431 1.363 . S
C432 C438 1.428 . S
H433 C429 0.930 . S
H434 C431 0.929 . S
S435 N436 1.613 1_565 S
S435 N437 1.610 . S
N436 S435 1.613 1_545 S
N436 C439 1.350 . S
N437 S435 1.610 . S
N437 C438 1.351 . S
C438 C432 1.428 . S
C438 N437 1.351 . S
C438 C439 1.434 1_565 S
C439 C430 1.429 . S
C439 N436 1.350 . S
C439 C438 1.434 1_545 S
C353 C20 1.500 . S
C355 C205 1.500 . S
C364 C145 1.499 . S
C366 C313 1.500 . S
C375 C29 1.495 . S
C377 C293 1.495 . S
C386 C225 1.505 . S
C388 C117 1.505 . S
C397 C284 1.509 . S
C399 C49 1.510 . S
C408 C108 1.505 . S
C410 C233 1.505 . S
C419 C57 1.494 . S
C421 C321 1.495 . S
C430 C137 1.490 . S
C432 C196 1.490 . S
