# Generated by pormake.
# Topology vcu, (8)-cn, num edge types: 1
# Building blocks:
#     Node 0, Type 0, BuildingBlock: TAGTUT_clean_sbu_3, # of connection points: 8
#     Node 1, Type 0, BuildingBlock: TAGTUT_clean_sbu_3, # of connection points: 8
#     Node 2, Type 0, BuildingBlock: TAGTUT_clean_sbu_3, # of connection points: 8
#     Node 3, Type 0, BuildingBlock: TAGTUT_clean_sbu_3, # of connection points: 8
#     Node 4, Type 0, BuildingBlock: TAGTUT_clean_sbu_3, # of connection points: 8
#     Node 5, Type 0, BuildingBlock: TAGTUT_clean_sbu_3, # of connection points: 8
#     Node 6, Type 0, BuildingBlock: TAGTUT_clean_sbu_3, # of connection points: 8
#     Node 7, Type 0, BuildingBlock: TAGTUT_clean_sbu_3, # of connection points: 8
#     Edge 8, Type (0, 0), BuildingBlock: TEMPAE_clean_linker_10, # of connection points: 2
#     Edge 9, Type (0, 0), BuildingBlock: TEMPAE_clean_linker_10, # of connection points: 2
#     Edge 10, Type (0, 0), BuildingBlock: TEMPAE_clean_linker_10, # of connection points: 2
#     Edge 11, Type (0, 0), BuildingBlock: TEMPAE_clean_linker_10, # of connection points: 2
#     Edge 12, Type (0, 0), BuildingBlock: TEMPAE_clean_linker_10, # of connection points: 2
#     Edge 13, Type (0, 0), BuildingBlock: TEMPAE_clean_linker_10, # of connection points: 2
#     Edge 14, Type (0, 0), BuildingBlock: TEMPAE_clean_linker_10, # of connection points: 2
#     Edge 15, Type (0, 0), BuildingBlock: TEMPAE_clean_linker_10, # of connection points: 2
#     Edge 16, Type (0, 0), BuildingBlock: TEMPAE_clean_linker_10, # of connection points: 2
#     Edge 17, Type (0, 0), BuildingBlock: TEMPAE_clean_linker_10, # of connection points: 2
#     Edge 18, Type (0, 0), BuildingBlock: TEMPAE_clean_linker_10, # of connection points: 2
#     Edge 19, Type (0, 0), BuildingBlock: TEMPAE_clean_linker_10, # of connection points: 2
#     Edge 20, Type (0, 0), BuildingBlock: TEMPAE_clean_linker_10, # of connection points: 2
#     Edge 21, Type (0, 0), BuildingBlock: TEMPAE_clean_linker_10, # of connection points: 2
#     Edge 22, Type (0, 0), BuildingBlock: TEMPAE_clean_linker_10, # of connection points: 2
#     Edge 23, Type (0, 0), BuildingBlock: TEMPAE_clean_linker_10, # of connection points: 2
#     Edge 24, Type (0, 0), BuildingBlock: TEMPAE_clean_linker_10, # of connection points: 2
#     Edge 25, Type (0, 0), BuildingBlock: TEMPAE_clean_linker_10, # of connection points: 2
#     Edge 26, Type (0, 0), BuildingBlock: TEMPAE_clean_linker_10, # of connection points: 2
#     Edge 27, Type (0, 0), BuildingBlock: TEMPAE_clean_linker_10, # of connection points: 2
#     Edge 28, Type (0, 0), BuildingBlock: TEMPAE_clean_linker_10, # of connection points: 2
#     Edge 29, Type (0, 0), BuildingBlock: TEMPAE_clean_linker_10, # of connection points: 2
#     Edge 30, Type (0, 0), BuildingBlock: TEMPAE_clean_linker_10, # of connection points: 2
#     Edge 31, Type (0, 0), BuildingBlock: TEMPAE_clean_linker_10, # of connection points: 2
#     Edge 32, Type (0, 0), BuildingBlock: TEMPAE_clean_linker_10, # of connection points: 2
#     Edge 33, Type (0, 0), BuildingBlock: TEMPAE_clean_linker_10, # of connection points: 2
#     Edge 34, Type (0, 0), BuildingBlock: TEMPAE_clean_linker_10, # of connection points: 2
#     Edge 35, Type (0, 0), BuildingBlock: TEMPAE_clean_linker_10, # of connection points: 2
#     Edge 36, Type (0, 0), BuildingBlock: TEMPAE_clean_linker_10, # of connection points: 2
#     Edge 37, Type (0, 0), BuildingBlock: TEMPAE_clean_linker_10, # of connection points: 2
#     Edge 38, Type (0, 0), BuildingBlock: TEMPAE_clean_linker_10, # of connection points: 2
#     Edge 39, Type (0, 0), BuildingBlock: TEMPAE_clean_linker_10, # of connection points: 2
# Relax obj value: 0.235
# Max RMSD: 0.292
# Mean RMSD: 0.290
data_MOF--net-vcu--node1-TAGTUT_clean_sbu_3--edge1-TEMPAE_clean_linker_10
_symmetry_space_group_name_H-M    P1
_symmetry_Int_Tables_number       1
_symmetry_cell_setting            triclinic
loop_
_symmetry_equiv_pos_as_xyz
'x, y, z'
_cell_length_a     18.806538
_cell_length_b     33.162169
_cell_length_c     50.362054
_cell_angle_alpha  90.036066
_cell_angle_beta   90.088569
_cell_angle_gamma 90.01728
loop_
_atom_site_label
_atom_site_type_symbol
_atom_site_fract_x
_atom_site_fract_y
_atom_site_fract_z
_atom_type_partial_charge
C0 C 0.39638 0.38638 0.33295 0.0
C1 C 0.59196 0.35063 0.39485 0.0
C2 C 0.43418 0.29778 0.44551 0.0
Mg3 Mg 0.24279 0.41194 0.33799 0.0
Mg4 Mg 0.18032 0.4565 0.39053 0.0
O5 O 0.22309 0.40983 0.37747 0.0
Mg6 Mg 0.3207 0.39594 0.39051 0.0
O7 O 0.42049 0.37869 0.39883 0.0
Mg8 Mg 0.42507 0.32458 0.38078 0.0
Mg9 Mg 0.47118 0.38403 0.43029 0.0
C10 C 0.22013 0.4089 0.44328 0.0
O11 O 0.34705 0.45945 0.40773 0.0
O12 O 0.12169 0.41655 0.33277 0.0
O13 O 0.42985 0.44313 0.43887 0.0
O14 O 0.25802 0.48269 0.33635 0.0
O15 O 0.08223 0.44886 0.36925 0.0
O16 O 0.23502 0.50806 0.37638 0.0
O17 O 0.30311 0.33109 0.37718 0.0
O18 O 0.2385 0.3405 0.34035 0.0
C19 C 0.26938 0.31705 0.35719 0.0
C20 C 0.07137 0.43132 0.34692 0.0
O21 O 0.26838 0.38705 0.43197 0.0
O22 O 0.54614 0.32861 0.38284 0.0
O23 O 0.1892 0.43849 0.43151 0.0
O24 O 0.42411 0.29169 0.42073 0.0
O25 O 0.57529 0.3753 0.41343 0.0
O26 O 0.44687 0.33295 0.45461 0.0
O27 O 0.35833 0.40742 0.34842 0.0
O28 O 0.42948 0.35539 0.34117 0.0
C29 C 0.25735 0.5123 0.35272 0.0
C30 C 0.38652 0.46804 0.42793 0.0
C31 C 0.14739 0.03942 0.93087 0.0
C32 C 0.30262 0.96544 0.86886 0.0
C33 C 0.43949 0.07614 0.86801 0.0
Mg34 Mg 0.0927 0.12707 0.93278 0.0
Mg35 Mg 0.09022 0.18807 0.88263 0.0
O36 O 0.14692 0.15547 0.90408 0.0
Mg37 Mg 0.20148 0.10889 0.88915 0.0
O38 O 0.25373 0.05975 0.87801 0.0
Mg39 Mg 0.30909 0.04506 0.91056 0.0
Mg40 Mg 0.29576 0.05154 0.84492 0.0
C41 C 0.23326 0.18741 0.84986 0.0
O42 O 0.12932 0.09899 0.85324 0.0
O43 O 0.05901 0.19048 0.94687 0.0
O44 O 0.20451 0.07252 0.82268 0.0
O45 O 0.98754 0.12078 0.90841 0.0
O46 O 0.06582 0.23266 0.91206 0.0
O47 O 0.99476 0.15815 0.87179 0.0
O48 O 0.27955 0.11183 0.92403 0.0
O49 O 0.19992 0.1312 0.95461 0.0
C50 C 0.26406 0.12285 0.94774 0.0
C51 C 0.05436 0.22593 0.93672 0.0
O52 O 0.26131 0.15739 0.86259 0.0
O53 O 0.31589 0.9796 0.89219 0.0
O54 O 0.16876 0.19885 0.85311 0.0
O55 O 0.41252 0.06598 0.89031 0.0
O56 O 0.29579 0.98789 0.84842 0.0
O57 O 0.403 0.07528 0.84659 0.0
O58 O 0.13343 0.06879 0.91556 0.0
O59 O 0.20949 0.02445 0.93192 0.0
C60 C 0.96151 0.1333 0.88642 0.0
C61 C 0.14298 0.0854 0.82991 0.0
C62 C 0.79613 0.1936 0.64172 0.0
C63 C 0.59871 0.07999 0.64246 0.0
C64 C 0.78177 0.99763 0.63444 0.0
Mg65 Mg 0.9511 0.19141 0.61669 0.0
Mg66 Mg 0.99142 0.14443 0.56157 0.0
O67 O 0.94678 0.14118 0.59439 0.0
Mg68 Mg 0.84861 0.1207 0.60283 0.0
O69 O 0.753 0.1033 0.61545 0.0
Mg70 Mg 0.77092 0.09647 0.65459 0.0
Mg71 Mg 0.71052 0.0591 0.59908 0.0
C72 C 0.91259 0.05861 0.55787 0.0
O73 O 0.78985 0.13737 0.56356 0.0
O74 O 0.07214 0.19032 0.61202 0.0
O75 O 0.72001 0.08213 0.55928 0.0
O76 O 0.94086 0.23273 0.5808 0.0
O77 O 0.09833 0.15106 0.57695 0.0
O78 O 0.95876 0.19957 0.54299 0.0
O79 O 0.88942 0.10179 0.64414 0.0
O80 O 0.96437 0.15194 0.65215 0.0
C81 C 0.93442 0.11929 0.65918 0.0
C82 C 0.11699 0.17156 0.59741 0.0
O83 O 0.87699 0.06144 0.57973 0.0
O84 O 0.64821 0.09216 0.65818 0.0
O85 O 0.95157 0.08696 0.54838 0.0
O86 O 0.78343 0.02534 0.65222 0.0
O87 O 0.6112 0.06509 0.61946 0.0
O88 O 0.76157 0.00505 0.61082 0.0
O89 O 0.83048 0.18211 0.62131 0.0
O90 O 0.76468 0.16797 0.65682 0.0
C91 C 0.94549 0.2321 0.55555 0.0
C92 C 0.74247 0.11646 0.55098 0.0
C93 C 0.73488 0.37586 0.04777 0.0
C94 C 0.56663 0.26361 0.07613 0.0
C95 C 0.43756 0.35445 0.11155 0.0
Mg96 Mg 0.78385 0.44925 0.08722 0.0
Mg97 Mg 0.77601 0.43672 0.15261 0.0
O98 O 0.73051 0.43343 0.11974 0.0
Mg99 Mg 0.67897 0.38499 0.10804 0.0
O100 O 0.62306 0.3379 0.09414 0.0
Mg101 Mg 0.56651 0.36848 0.06557 0.0
Mg102 Mg 0.57765 0.30589 0.12171 0.0
C103 C 0.62705 0.40063 0.16877 0.0
O104 O 0.7453 0.33632 0.13146 0.0
O105 O 0.7948 0.51223 0.10785 0.0
O106 O 0.6516 0.3138 0.1539 0.0
O107 O 0.88811 0.42575 0.10535 0.0
O108 O 0.77805 0.50056 0.15155 0.0
O109 O 0.88042 0.41094 0.14838 0.0
O110 O 0.60734 0.42579 0.08388 0.0
O111 O 0.68209 0.47137 0.06805 0.0
C112 C 0.62034 0.45575 0.06896 0.0
C113 C 0.78405 0.5245 0.13179 0.0
O114 O 0.61058 0.39188 0.14475 0.0
O115 O 0.56668 0.30145 0.07246 0.0
O116 O 0.68952 0.4122 0.1758 0.0
O117 O 0.46412 0.37069 0.09077 0.0
O118 O 0.57424 0.25038 0.09968 0.0
O119 O 0.47155 0.32932 0.12594 0.0
O120 O 0.75209 0.38455 0.07173 0.0
O121 O 0.67074 0.36649 0.04161 0.0
C122 C 0.91573 0.41234 0.12678 0.0
C123 C 0.718 0.3126 0.14897 0.0
C124 C 0.75003 0.6465 0.54856 0.0
C125 C 0.60639 0.76238 0.58324 0.0
C126 C 0.45418 0.68362 0.61208 0.0
Mg127 Mg 0.7933 0.57468 0.58853 0.0
Mg128 Mg 0.7962 0.58559 0.65358 0.0
O129 O 0.74421 0.59131 0.62196 0.0
Mg130 Mg 0.69714 0.64304 0.61049 0.0
O131 O 0.64419 0.69236 0.59647 0.0
Mg132 Mg 0.58361 0.66676 0.56432 0.0
Mg133 Mg 0.60165 0.72165 0.62746 0.0
C134 C 0.65555 0.63038 0.67321 0.0
O135 O 0.77208 0.68768 0.63323 0.0
O136 O 0.80996 0.51133 0.60828 0.0
O137 O 0.68581 0.71736 0.65688 0.0
O138 O 0.9045 0.59641 0.60404 0.0
O139 O 0.8055 0.52006 0.65249 0.0
O140 O 0.89808 0.6141 0.64679 0.0
O141 O 0.61791 0.60826 0.58668 0.0
O142 O 0.68227 0.55569 0.57319 0.0
C143 C 0.62329 0.5751 0.57381 0.0
C144 C 0.81036 0.49704 0.63206 0.0
O145 O 0.63534 0.63958 0.64955 0.0
O146 O 0.62675 0.72515 0.58355 0.0
O147 O 0.71584 0.61393 0.67861 0.0
O148 O 0.48068 0.67404 0.58952 0.0
O149 O 0.59973 0.77871 0.606 0.0
O150 O 0.49232 0.69835 0.63091 0.0
O151 O 0.76514 0.63925 0.57291 0.0
O152 O 0.68825 0.65899 0.54157 0.0
C153 C 0.93255 0.61138 0.62505 0.0
C154 C 0.75177 0.71293 0.65118 0.0
C155 C 0.70295 0.88275 0.05244 0.0
C156 C 0.90772 0.77501 0.0554 0.0
C157 C 0.0038 0.85418 0.1136 0.0
Mg158 Mg 0.65763 0.95111 0.09749 0.0
Mg159 Mg 0.67045 0.93139 0.16226 0.0
O160 O 0.71272 0.93011 0.12857 0.0
Mg161 Mg 0.76351 0.88366 0.11247 0.0
O162 O 0.81698 0.83997 0.09352 0.0
Mg163 Mg 0.87372 0.8731 0.06787 0.0
Mg164 Mg 0.87063 0.80234 0.11251 0.0
C165 C 0.81557 0.88519 0.17498 0.0
O166 O 0.69884 0.83257 0.13286 0.0
O167 O 0.64501 0.01077 0.12198 0.0
O168 O 0.78788 0.78785 0.14025 0.0
O169 O 0.5534 0.92489 0.1146 0.0
O170 O 0.67295 0.996 0.16446 0.0
O171 O 0.5621 0.90947 0.15761 0.0
O172 O 0.83474 0.9284 0.09063 0.0
O173 O 0.75964 0.97732 0.08024 0.0
C174 C 0.82171 0.96198 0.07927 0.0
C175 C 0.65983 0.02143 0.14596 0.0
O176 O 0.8319 0.88145 0.15027 0.0
O177 O 0.90583 0.81219 0.04808 0.0
O178 O 0.75521 0.89892 0.18293 0.0
O179 O 0.97806 0.87151 0.09306 0.0
O180 O 0.89367 0.76399 0.07922 0.0
O181 O 0.96911 0.82728 0.1261 0.0
O182 O 0.68779 0.88902 0.07696 0.0
O183 O 0.76718 0.87556 0.0451 0.0
C184 C 0.52615 0.9113 0.13607 0.0
C185 C 0.72361 0.80004 0.14343 0.0
C186 C 0.28845 0.86085 0.43816 0.0
C187 C 0.08675 0.75364 0.42643 0.0
C188 C 0.99657 0.83734 0.36981 0.0
Mg189 Mg 0.33891 0.93528 0.39947 0.0
Mg190 Mg 0.33291 0.92987 0.33343 0.0
O191 O 0.28827 0.91939 0.36591 0.0
Mg192 Mg 0.23686 0.86916 0.37728 0.0
O193 O 0.1814 0.82237 0.39211 0.0
Mg194 Mg 0.12123 0.85208 0.41844 0.0
Mg195 Mg 0.13011 0.78545 0.37115 0.0
C196 C 0.18956 0.88544 0.31515 0.0
O197 O 0.30448 0.81987 0.35443 0.0
O198 O 0.35465 0.99984 0.38109 0.0
O199 O 0.21798 0.77415 0.34479 0.0
O200 O 0.44618 0.91288 0.38151 0.0
O201 O 0.33801 0.99487 0.33705 0.0
O202 O 0.43826 0.90392 0.33762 0.0
O203 O 0.16104 0.91028 0.40054 0.0
O204 O 0.23294 0.95693 0.41705 0.0
C205 C 0.1712 0.94107 0.41529 0.0
C206 C 0.34792 0.01612 0.35801 0.0
O207 O 0.174 0.87291 0.33857 0.0
O208 O 0.08914 0.7904 0.43423 0.0
O209 O 0.24718 0.90441 0.3093 0.0
O210 O 0.02005 0.85256 0.39143 0.0
O211 O 0.10232 0.7434 0.40257 0.0
O212 O 0.03249 0.8116 0.35669 0.0
O213 O 0.30771 0.86991 0.41445 0.0
O214 O 0.22344 0.85231 0.44354 0.0
C215 C 0.4738 0.90234 0.35929 0.0
C216 C 0.28184 0.7876 0.34256 0.0
C217 C 0.3162 0.5229 0.91319 0.0
C218 C 0.16132 0.46446 0.8442 0.0
C219 C 0.02068 0.57207 0.85593 0.0
Mg220 Mg 0.36691 0.61174 0.92623 0.0
Mg221 Mg 0.36879 0.67892 0.88037 0.0
O222 O 0.31013 0.64581 0.90109 0.0
Mg223 Mg 0.25706 0.60255 0.88141 0.0
O224 O 0.20745 0.55646 0.86401 0.0
Mg225 Mg 0.15301 0.53227 0.89416 0.0
Mg226 Mg 0.16651 0.55622 0.83008 0.0
C227 C 0.22104 0.68765 0.85137 0.0
O228 O 0.32652 0.6067 0.84475 0.0
O229 O 0.40122 0.67181 0.94594 0.0
O230 O 0.25185 0.59025 0.81098 0.0
O231 O 0.47378 0.61394 0.90241 0.0
O232 O 0.40095 0.71758 0.91285 0.0
O233 O 0.46068 0.6485 0.86498 0.0
O234 O 0.1798 0.59449 0.91608 0.0
O235 O 0.25884 0.60866 0.94812 0.0
C236 C 0.19481 0.60074 0.94063 0.0
C237 C 0.41068 0.7079 0.93726 0.0
O238 O 0.1939 0.65565 0.86195 0.0
O239 O 0.14569 0.47343 0.8684 0.0
O240 O 0.28721 0.69676 0.85315 0.0
O241 O 0.04747 0.55635 0.87685 0.0
O242 O 0.17171 0.49142 0.82638 0.0
O243 O 0.05785 0.57794 0.83504 0.0
O244 O 0.32821 0.55718 0.90266 0.0
O245 O 0.25492 0.50687 0.91145 0.0
C246 C 0.49786 0.6263 0.88014 0.0
C247 C 0.31099 0.60416 0.82 0.0
C248 C 0.98369 0.37861 0.33643 0.0
C249 C 0.99812 0.41948 0.34098 0.0
C250 C 0.91546 0.3631 0.34074 0.0
C251 C 0.86068 0.38953 0.34886 0.0
C252 C 0.87317 0.43161 0.34992 0.0
C253 C 0.94244 0.44608 0.3465 0.0
C254 C 0.90436 0.31804 0.33964 0.0
C255 C 0.81498 0.4609 0.35724 0.0
C256 C 0.66998 0.35526 0.35554 0.0
C257 C 0.6632 0.35335 0.38326 0.0
C258 C 0.73478 0.36569 0.34378 0.0
C259 C 0.79427 0.37316 0.36023 0.0
C260 C 0.78883 0.36829 0.38816 0.0
C261 C 0.7227 0.35923 0.39941 0.0
C262 C 0.73775 0.37167 0.31405 0.0
C263 C 0.85201 0.37453 0.40628 0.0
H264 H 0.02717 0.35801 0.33241 0.0
H265 H 0.95395 0.47771 0.34993 0.0
H266 H 0.9026 0.30599 0.36019 0.0
H267 H 0.85304 0.31048 0.32998 0.0
H268 H 0.94796 0.30259 0.3288 0.0
H269 H 0.83004 0.49253 0.35265 0.0
H270 H 0.76507 0.45349 0.34651 0.0
H271 H 0.80399 0.4587 0.37883 0.0
H272 H 0.62339 0.35132 0.34308 0.0
H273 H 0.71707 0.35763 0.42081 0.0
H274 H 0.78816 0.36001 0.30563 0.0
H275 H 0.73526 0.40441 0.30961 0.0
H276 H 0.69249 0.35668 0.30382 0.0
H277 H 0.89878 0.35763 0.39878 0.0
H278 H 0.84094 0.36466 0.42695 0.0
H279 H 0.86647 0.40696 0.40669 0.0
C280 C 0.54953 0.09984 0.89082 0.0
C281 C 0.51607 0.08671 0.86744 0.0
C282 C 0.62312 0.10628 0.89183 0.0
C283 C 0.66471 0.09921 0.86888 0.0
C284 C 0.63137 0.08622 0.8451 0.0
C285 C 0.55719 0.08051 0.84458 0.0
C286 C 0.65569 0.12118 0.9175 0.0
C287 C 0.67434 0.07715 0.82049 0.0
C288 C 0.84389 0.15154 0.86742 0.0
C289 C 0.88801 0.12243 0.87909 0.0
C290 C 0.77137 0.144 0.86326 0.0
C291 C 0.74294 0.10585 0.86997 0.0
C292 C 0.78834 0.07548 0.88028 0.0
C293 C 0.86018 0.08442 0.88525 0.0
C294 C 0.72446 0.17771 0.85328 0.0
C295 C 0.76019 0.03424 0.88732 0.0
H296 H 0.51805 0.10481 0.90852 0.0
H297 H 0.53178 0.06979 0.82658 0.0
H298 H 0.70821 0.10726 0.92142 0.0
H299 H 0.66357 0.15429 0.91618 0.0
H300 H 0.62092 0.11474 0.93476 0.0
H301 H 0.64046 0.06735 0.80359 0.0
H302 H 0.70495 0.10417 0.81436 0.0
H303 H 0.71347 0.053 0.82487 0.0
H304 H 0.86526 0.18111 0.86288 0.0
H305 H 0.89443 0.06187 0.89417 0.0
H306 H 0.68669 0.18661 0.86916 0.0
H307 H 0.69244 0.16751 0.83604 0.0
H308 H 0.75555 0.20472 0.84733 0.0
H309 H 0.72522 0.03658 0.90498 0.0
H310 H 0.80363 0.01261 0.89187 0.0
H311 H 0.72765 0.02202 0.87076 0.0
C312 C 0.19887 0.16113 0.63535 0.0
C313 C 0.18953 0.16648 0.6079 0.0
C314 C 0.26424 0.14854 0.64578 0.0
C315 C 0.32211 0.1424 0.62837 0.0
C316 C 0.31425 0.15039 0.60083 0.0
C317 C 0.24742 0.16157 0.59083 0.0
C318 C 0.26972 0.13913 0.67508 0.0
C319 C 0.3756 0.14554 0.58175 0.0
C320 C 0.51183 0.13329 0.65269 0.0
C321 C 0.52518 0.09248 0.64751 0.0
C322 C 0.44455 0.1499 0.64781 0.0
C323 C 0.38929 0.12466 0.63843 0.0
C324 C 0.40069 0.08259 0.63611 0.0
C325 C 0.46912 0.06707 0.64018 0.0
C326 C 0.43488 0.19496 0.65011 0.0
C327 C 0.34215 0.05444 0.62725 0.0
H328 H 0.1537 0.16419 0.64856 0.0
H329 H 0.24004 0.16569 0.56964 0.0
H330 H 0.27325 0.10599 0.67781 0.0
H331 H 0.31855 0.1525 0.68377 0.0
H332 H 0.22297 0.15033 0.68634 0.0
H333 H 0.3629 0.15749 0.56169 0.0
H334 H 0.42342 0.16138 0.58941 0.0
H335 H 0.38932 0.11314 0.57981 0.0
H336 H 0.55568 0.15306 0.65787 0.0
H337 H 0.47982 0.03555 0.63603 0.0
H338 H 0.38432 0.20234 0.66031 0.0
H339 H 0.43217 0.20822 0.6299 0.0
H340 H 0.47945 0.20946 0.66103 0.0
H341 H 0.29225 0.06092 0.63818 0.0
H342 H 0.35656 0.0223 0.63036 0.0
H343 H 0.33135 0.05908 0.60581 0.0
C344 C 0.02911 0.40031 0.10231 0.0
C345 C 0.99168 0.40044 0.12642 0.0
C346 C 0.10219 0.3924 0.10154 0.0
C347 C 0.13883 0.38394 0.12545 0.0
C348 C 0.10143 0.3833 0.14984 0.0
C349 C 0.02811 0.39146 0.15003 0.0
C350 C 0.13983 0.39288 0.07501 0.0
C351 C 0.13913 0.37476 0.17574 0.0
C352 C 0.31482 0.32952 0.11816 0.0
C353 C 0.36251 0.36192 0.11754 0.0
C354 C 0.24168 0.33616 0.12125 0.0
C355 C 0.21647 0.37601 0.12473 0.0
C356 C 0.26516 0.40863 0.12527 0.0
C357 C 0.33769 0.40124 0.12103 0.0
C358 C 0.1912 0.30082 0.11956 0.0
C359 C 0.24032 0.45144 0.12935 0.0
H360 H 0.00148 0.40693 0.08393 0.0
H361 H 0.99971 0.3916 0.16874 0.0
H362 H 0.19173 0.40864 0.07633 0.0
H363 H 0.15038 0.36141 0.06865 0.0
H364 H 0.10768 0.40792 0.05941 0.0
H365 H 0.10254 0.37586 0.19302 0.0
H366 H 0.1643 0.34454 0.17503 0.0
H367 H 0.18232 0.39709 0.17888 0.0
H368 H 0.33449 0.29915 0.11504 0.0
H369 H 0.37508 0.42613 0.12049 0.0
H370 H 0.15693 0.30408 0.10173 0.0
H371 H 0.15568 0.30025 0.13711 0.0
H372 H 0.21963 0.27153 0.11828 0.0
H373 H 0.20864 0.46124 0.1119 0.0
H374 H 0.28544 0.4727 0.13202 0.0
H375 H 0.20531 0.45331 0.14702 0.0
C376 C 0.33102 0.6787 0.59357 0.0
C377 C 0.37638 0.67739 0.61575 0.0
C378 C 0.25781 0.67107 0.59591 0.0
C379 C 0.22901 0.66043 0.62093 0.0
C380 C 0.27422 0.65999 0.64358 0.0
C381 C 0.34717 0.66899 0.64074 0.0
C382 C 0.21145 0.67405 0.57144 0.0
C383 C 0.24733 0.64815 0.67071 0.0
C384 C 0.02756 0.66352 0.6313 0.0
C385 C 0.00789 0.62418 0.62431 0.0
C386 C 0.09919 0.67593 0.63011 0.0
C387 C 0.15263 0.64782 0.62284 0.0
C388 C 0.13279 0.60768 0.61655 0.0
C389 C 0.06056 0.59663 0.61676 0.0
C390 C 0.11769 0.71914 0.63644 0.0
C391 C 0.18801 0.57624 0.6099 0.0
H392 H 0.35285 0.68588 0.57422 0.0
H393 H 0.38175 0.66811 0.65795 0.0
H394 H 0.19202 0.64367 0.56575 0.0
H395 H 0.16409 0.693 0.57559 0.0
H396 H 0.24038 0.68709 0.55424 0.0
H397 H 0.27646 0.66471 0.68652 0.0
H398 H 0.18966 0.65381 0.67322 0.0
H399 H 0.25695 0.61543 0.6737 0.0
H400 H 0.98667 0.68483 0.63708 0.0
H401 H 0.04529 0.56608 0.6116 0.0
H402 H 0.14713 0.73274 0.61958 0.0
H403 H 0.15314 0.72025 0.65405 0.0
H404 H 0.06977 0.73772 0.64052 0.0
H405 H 0.21557 0.5844 0.59121 0.0
H406 H 0.16446 0.54572 0.60749 0.0
H407 H 0.22883 0.57506 0.62583 0.0
C408 C 0.41621 0.8911 0.11152 0.0
C409 C 0.44972 0.89981 0.13577 0.0
C410 C 0.34291 0.8835 0.11013 0.0
C411 C 0.30145 0.88505 0.13357 0.0
C412 C 0.33482 0.89357 0.15821 0.0
C413 C 0.40877 0.90043 0.15906 0.0
C414 C 0.31017 0.87355 0.08347 0.0
C415 C 0.29205 0.89679 0.18349 0.0
C416 C 0.10528 0.9022 0.11913 0.0
C417 C 0.07776 0.86315 0.12162 0.0
C418 C 0.17714 0.91026 0.12473 0.0
C419 C 0.22312 0.87818 0.13193 0.0
C420 C 0.19506 0.83883 0.13501 0.0
C421 C 0.12245 0.83192 0.13023 0.0
C422 C 0.20454 0.9528 0.12178 0.0
C423 C 0.24241 0.8036 0.14189 0.0
H424 H 0.4474 0.89051 0.09346 0.0
H425 H 0.43404 0.90768 0.17783 0.0
H426 H 0.29664 0.84099 0.08288 0.0
H427 H 0.2603 0.89067 0.08021 0.0
H428 H 0.34675 0.8803 0.06678 0.0
H429 H 0.32603 0.90286 0.20111 0.0
H430 H 0.25256 0.9215 0.18158 0.0
H431 H 0.26179 0.86859 0.18698 0.0
H432 H 0.07065 0.92641 0.11261 0.0
H433 H 0.10132 0.80162 0.13198 0.0
H434 H 0.23955 0.95468 0.10411 0.0
H435 H 0.23686 0.96137 0.13936 0.0
H436 H 0.16073 0.97497 0.11938 0.0
H437 H 0.28051 0.79832 0.12544 0.0
H438 H 0.21168 0.77546 0.14527 0.0
H439 H 0.27407 0.81027 0.15996 0.0
C440 C 0.87138 0.81436 0.36689 0.0
C441 C 0.92169 0.84478 0.36259 0.0
C442 C 0.79822 0.82216 0.36441 0.0
C443 C 0.77491 0.86115 0.35688 0.0
C444 C 0.82604 0.89134 0.35105 0.0
C445 C 0.89894 0.883 0.35446 0.0
C446 C 0.74579 0.7892 0.37104 0.0
C447 C 0.80366 0.93289 0.34221 0.0
C448 C 0.58152 0.87529 0.33535 0.0
C449 C 0.55013 0.89011 0.35871 0.0
C450 C 0.65436 0.86547 0.33443 0.0
C451 C 0.69731 0.8711 0.3573 0.0
C452 C 0.66584 0.88577 0.38096 0.0
C453 C 0.59287 0.89489 0.3814 0.0
C454 C 0.68548 0.84999 0.30876 0.0
C455 C 0.70939 0.89215 0.40587 0.0
H456 H 0.88924 0.78493 0.37349 0.0
H457 H 0.93808 0.9065 0.35123 0.0
H458 H 0.71464 0.79791 0.38884 0.0
H459 H 0.70757 0.78507 0.35446 0.0
H460 H 0.77239 0.75993 0.37509 0.0
H461 H 0.84972 0.95167 0.33607 0.0
H462 H 0.76592 0.93071 0.32532 0.0
H463 H 0.77566 0.94839 0.35869 0.0
H464 H 0.54924 0.87152 0.31768 0.0
H465 H 0.56958 0.90644 0.39955 0.0
H466 H 0.72062 0.82368 0.31238 0.0
H467 H 0.71835 0.87403 0.29964 0.0
H468 H 0.64363 0.8411 0.2943 0.0
H469 H 0.7346 0.86338 0.412 0.0
H470 H 0.67692 0.90364 0.42266 0.0
H471 H 0.7528 0.91401 0.40192 0.0
C472 C 0.89739 0.55428 0.86934 0.0
C473 C 0.94328 0.58054 0.85584 0.0
C474 C 0.824 0.56152 0.87047 0.0
C475 C 0.79567 0.5967 0.85858 0.0
C476 C 0.84159 0.62318 0.84459 0.0
C477 C 0.91487 0.61441 0.84301 0.0
C478 C 0.77693 0.53174 0.88483 0.0
C479 C 0.81388 0.66159 0.83231 0.0
C480 C 0.59412 0.60215 0.84956 0.0
C481 C 0.57343 0.61936 0.87375 0.0
C482 C 0.66646 0.59476 0.84412 0.0
C483 C 0.71909 0.60687 0.86274 0.0
C484 C 0.69804 0.62602 0.88664 0.0
C485 C 0.62546 0.63118 0.89208 0.0
C486 C 0.68631 0.57292 0.81889 0.0
C487 C 0.75215 0.64063 0.90668 0.0
H488 H 0.91899 0.52771 0.87896 0.0
H489 H 0.95028 0.63479 0.83262 0.0
H490 H 0.75557 0.5457 0.90317 0.0
H491 H 0.73086 0.52336 0.87217 0.0
H492 H 0.80593 0.50382 0.89043 0.0
H493 H 0.85578 0.67818 0.82127 0.0
H494 H 0.76937 0.6549 0.81853 0.0
H495 H 0.79264 0.68154 0.84812 0.0
H496 H 0.55364 0.5933 0.83534 0.0
H497 H 0.60925 0.64516 0.91059 0.0
H498 H 0.72004 0.54638 0.82355 0.0
H499 H 0.71783 0.5931 0.8059 0.0
H500 H 0.63884 0.56248 0.80768 0.0
H501 H 0.77934 0.61449 0.91593 0.0
H502 H 0.7275 0.65893 0.9227 0.0
H503 H 0.79349 0.6591 0.89673 0.0
C504 C 0.49913 0.40107 0.18202 0.0
C505 C 0.57133 0.39931 0.18908 0.0
C506 C 0.44626 0.40287 0.20157 0.0
C507 C 0.46669 0.40234 0.22862 0.0
C508 C 0.53971 0.40047 0.23571 0.0
C509 C 0.59089 0.39901 0.21583 0.0
C510 C 0.36954 0.40504 0.1928 0.0
C511 C 0.56443 0.39938 0.26436 0.0
C512 C 0.38998 0.43046 0.29306 0.0
C513 C 0.38956 0.39189 0.30428 0.0
C514 C 0.40171 0.43498 0.26574 0.0
C515 C 0.41398 0.40016 0.25018 0.0
C516 C 0.39866 0.36164 0.26058 0.0
C517 C 0.38764 0.35784 0.28783 0.0
C518 C 0.41184 0.47662 0.25443 0.0
C519 C 0.40573 0.32407 0.24389 0.0
H520 H 0.48381 0.40188 0.16127 0.0
H521 H 0.64662 0.39753 0.22129 0.0
H522 H 0.33215 0.41128 0.2093 0.0
H523 H 0.36323 0.42895 0.17754 0.0
H524 H 0.35438 0.37606 0.18329 0.0
H525 H 0.62327 0.39812 0.26617 0.0
H526 H 0.54573 0.42661 0.27506 0.0
H527 H 0.54213 0.37257 0.27455 0.0
H528 H 0.38805 0.45682 0.30578 0.0
H529 H 0.38283 0.32802 0.2965 0.0
H530 H 0.39384 0.47777 0.23342 0.0
H531 H 0.46921 0.48448 0.25496 0.0
H532 H 0.38239 0.49955 0.26616 0.0
H533 H 0.38274 0.32896 0.22385 0.0
H534 H 0.37894 0.29785 0.25328 0.0
H535 H 0.46294 0.31668 0.24145 0.0
C536 C 0.0852 0.04707 0.79388 0.0
C537 C 0.08455 0.08044 0.81095 0.0
C538 C 0.03829 0.04487 0.77245 0.0
C539 C 0.99139 0.07735 0.76785 0.0
C540 C 0.9824 0.10743 0.78755 0.0
C541 C 0.02994 0.10887 0.809 0.0
C542 C 0.0466 0.01105 0.75264 0.0
C543 C 0.92946 0.14111 0.78407 0.0
C544 C 0.01137 0.11775 0.69866 0.0
C545 C 0.94852 0.10507 0.68633 0.0
C546 C 0.02472 0.10927 0.72523 0.0
C547 C 0.9739 0.08716 0.74001 0.0
C548 C 0.91066 0.07343 0.72766 0.0
C549 C 0.89896 0.08227 0.7007 0.0
C550 C 0.09362 0.1242 0.73737 0.0
C551 C 0.85564 0.04931 0.74259 0.0
H552 H 0.12524 0.02382 0.79633 0.0
H553 H 0.02801 0.13392 0.82279 0.0
H554 H 0.99417 0.00169 0.74464 0.0
H555 H 0.07955 0.02165 0.73576 0.0
H556 H 0.07313 0.98441 0.76163 0.0
H557 H 0.91532 0.15497 0.80346 0.0
H558 H 0.95313 0.16484 0.7713 0.0
H559 H 0.8803 0.13007 0.77424 0.0
H560 H 0.05037 0.13485 0.68749 0.0
H561 H 0.85038 0.07229 0.69121 0.0
H562 H 0.12581 0.0983 0.74443 0.0
H563 H 0.08238 0.14382 0.75471 0.0
H564 H 0.12631 0.1417 0.72309 0.0
H565 H 0.86813 0.01675 0.74063 0.0
H566 H 0.80166 0.05421 0.73419 0.0
H567 H 0.85476 0.05693 0.76404 0.0
C568 C 0.63128 0.64745 0.72044 0.0
C569 C 0.60588 0.63697 0.69518 0.0
C570 C 0.58519 0.64887 0.74225 0.0
C571 C 0.51296 0.63833 0.73861 0.0
C572 C 0.48671 0.62923 0.71292 0.0
C573 C 0.53341 0.62949 0.69136 0.0
C574 C 0.61419 0.65963 0.76934 0.0
C575 C 0.41045 0.61654 0.70852 0.0
C576 C 0.41432 0.58492 0.79327 0.0
C577 C 0.36598 0.61454 0.80099 0.0
C578 C 0.46485 0.59298 0.7737 0.0
C579 C 0.46668 0.6317 0.76185 0.0
C580 C 0.41986 0.66234 0.77061 0.0
C581 C 0.3693 0.65324 0.79013 0.0
C582 C 0.51339 0.55938 0.76467 0.0
C583 C 0.42149 0.70409 0.75873 0.0
H584 H 0.68738 0.65378 0.72319 0.0
H585 H 0.51405 0.62133 0.67177 0.0
H586 H 0.58296 0.68478 0.77799 0.0
H587 H 0.60871 0.63357 0.78298 0.0
H588 H 0.67109 0.66857 0.76862 0.0
H589 H 0.39883 0.60986 0.68735 0.0
H590 H 0.39865 0.5891 0.72033 0.0
H591 H 0.37404 0.64059 0.71546 0.0
H592 H 0.41115 0.5551 0.80205 0.0
H593 H 0.33165 0.67599 0.79656 0.0
H594 H 0.56938 0.5698 0.76402 0.0
H595 H 0.49842 0.55007 0.74425 0.0
H596 H 0.51023 0.53258 0.77784 0.0
H597 H 0.47685 0.71562 0.758 0.0
H598 H 0.38826 0.72571 0.77013 0.0
H599 H 0.40143 0.70294 0.73802 0.0
C600 C 0.94212 0.87467 0.18827 0.0
C601 C 0.87002 0.87584 0.19525 0.0
C602 C 0.99504 0.87105 0.20771 0.0
C603 C 0.97518 0.86834 0.23474 0.0
C604 C 0.90245 0.86713 0.24185 0.0
C605 C 0.85065 0.87103 0.22198 0.0
C606 C 0.07227 0.87202 0.19947 0.0
C607 C 0.8791 0.86459 0.27052 0.0
C608 C 0.11386 0.84198 0.28667 0.0
C609 C 0.13621 0.88047 0.29437 0.0
C610 C 0.0618 0.83733 0.26693 0.0
C611 C 0.03023 0.87206 0.25562 0.0
C612 C 0.05183 0.91098 0.26395 0.0
C613 C 0.1057 0.91468 0.28294 0.0
C614 C 0.04073 0.7955 0.25814 0.0
C615 C 0.01794 0.94868 0.25283 0.0
H616 H 0.95751 0.87865 0.16773 0.0
H617 H 0.79497 0.87154 0.22751 0.0
H618 H 0.10067 0.89688 0.20974 0.0
H619 H 0.09853 0.8434 0.20529 0.0
H620 H 0.07869 0.8763 0.17778 0.0
H621 H 0.82305 0.85441 0.27223 0.0
H622 H 0.91322 0.84371 0.28208 0.0
H623 H 0.88352 0.89487 0.2798 0.0
H624 H 0.13789 0.81568 0.29581 0.0
H625 H 0.12292 0.94435 0.28937 0.0
H626 H 0.04966 0.79221 0.23647 0.0
H627 H 0.9832 0.79063 0.26175 0.0
H628 H 0.07123 0.77167 0.26867 0.0
H629 H 0.02728 0.95039 0.23112 0.0
H630 H 0.03915 0.97655 0.26219 0.0
H631 H 0.95955 0.94772 0.25595 0.0
C632 C 0.62648 0.12285 0.52787 0.0
C633 C 0.69719 0.13626 0.53075 0.0
C634 C 0.57586 0.14566 0.51424 0.0
C635 C 0.59691 0.1819 0.50195 0.0
C636 C 0.66912 0.19433 0.50302 0.0
C637 C 0.71833 0.17172 0.51791 0.0
C638 C 0.49901 0.13217 0.51442 0.0
C639 C 0.69371 0.23227 0.48927 0.0
C640 C 0.47961 0.22786 0.449 0.0
C641 C 0.45503 0.26275 0.46191 0.0
C642 C 0.5246 0.20065 0.46196 0.0
C643 C 0.54273 0.20752 0.48882 0.0
C644 C 0.51087 0.23977 0.50292 0.0
C645 C 0.468 0.26743 0.48917 0.0
C646 C 0.5577 0.16682 0.44612 0.0
C647 C 0.52564 0.24649 0.53209 0.0
H648 H 0.60883 0.09574 0.5379 0.0
H649 H 0.77257 0.1823 0.52009 0.0
H650 H 0.46589 0.15522 0.52452 0.0
H651 H 0.47863 0.12921 0.49385 0.0
H652 H 0.49156 0.1029 0.52477 0.0
H653 H 0.75248 0.23563 0.48982 0.0
H654 H 0.67591 0.23219 0.46824 0.0
H655 H 0.66953 0.25896 0.49899 0.0
H656 H 0.46975 0.22373 0.42796 0.0
H657 H 0.44849 0.29402 0.49935 0.0
H658 H 0.55513 0.13793 0.45712 0.0
H659 H 0.61473 0.17372 0.44272 0.0
H660 H 0.53146 0.1627 0.42651 0.0
H661 H 0.51881 0.21797 0.54334 0.0
H662 H 0.49015 0.26977 0.54079 0.0
H663 H 0.58155 0.25637 0.5348 0.0
C664 C 0.8616 0.38197 0.03318 0.0
C665 C 0.79112 0.37106 0.02755 0.0
C666 C 0.91728 0.3696 0.01658 0.0
C667 C 0.90189 0.34501 0.99437 0.0
C668 C 0.8303 0.33798 0.98693 0.0
C669 C 0.77565 0.35149 0.00352 0.0
C670 C 0.99249 0.38001 0.02434 0.0
C671 C 0.81147 0.3123 0.96311 0.0
C672 C 0.02387 0.29871 0.94352 0.0
C673 C 0.02965 0.25942 0.95368 0.0
C674 C 0.98876 0.32891 0.95792 0.0
C675 C 0.95772 0.31912 0.98264 0.0
C676 C 0.97007 0.2808 0.99416 0.0
C677 C 0.00628 0.25146 0.97956 0.0
C678 C 0.98092 0.37027 0.94582 0.0
C679 C 0.9397 0.26952 0.02094 0.0
H680 H 0.87389 0.3983 0.05127 0.0
H681 H 0.72114 0.34386 -0.0014 0.0
H682 H 0.01079 0.35878 0.03994 0.0
H683 H 0.02964 0.37819 0.00729 0.0
H684 H 0.99477 0.41094 0.03277 0.0
H685 H 0.75363 0.31296 0.95862 0.0
H686 H 0.84082 0.32264 0.9453 0.0
H687 H 0.8272 0.28056 0.96694 0.0
H688 H 0.04388 0.3055 0.92384 0.0
H689 H 0.01227 0.22152 0.98788 0.0
H690 H 0.98151 0.39405 0.96134 0.0
H691 H 0.9294 0.37216 0.93515 0.0
H692 H 0.02399 0.37649 0.9313 0.0
H693 H 0.95563 0.29202 0.03612 0.0
H694 H 0.95763 0.23928 0.02767 0.0
H695 H 0.88073 0.26945 0.01991 0.0
C696 C 0.98848 0.30257 0.55677 0.0
C697 C 0.95903 0.27072 0.54196 0.0
C698 C 0.02958 0.33232 0.54447 0.0
C699 C 0.03831 0.33113 0.51662 0.0
C700 C 0.99955 0.30278 0.50127 0.0
C701 C 0.9611 0.27237 0.51419 0.0
C702 C 0.06992 0.36181 0.56169 0.0
C703 C 0.0039 0.30233 0.47131 0.0
C704 C 0.12391 0.41428 0.47698 0.0
C705 C 0.18648 0.39506 0.46827 0.0
C706 C 0.07638 0.39481 0.49402 0.0
C707 C 0.09353 0.35609 0.50363 0.0
C708 C 0.16107 0.33908 0.49802 0.0
C709 C 0.2066 0.35857 0.48007 0.0
C710 C 0.00476 0.41388 0.49921 0.0
C711 C 0.18269 0.29868 0.50922 0.0
H712 H 0.98658 0.30186 0.57829 0.0
H713 H 0.93733 0.24824 0.50265 0.0
H714 H 0.12488 0.35046 0.56463 0.0
H715 H 0.07371 0.39192 0.55226 0.0
H716 H 0.04482 0.36521 0.58153 0.0
H717 H 0.96241 0.28275 0.46231 0.0
H718 H 0.99802 0.33329 0.46324 0.0
H719 H 0.05679 0.29089 0.46512 0.0
H720 H 0.10831 0.44302 0.46856 0.0
H721 H 0.25536 0.34385 0.47394 0.0
H722 H 0.98708 0.4088 0.51993 0.0
H723 H 0.96468 0.39984 0.48589 0.0
H724 H 0.00542 0.44683 0.49527 0.0
H725 H 0.16992 0.29701 0.5307 0.0
H726 H 0.24039 0.29277 0.50653 0.0
H727 H 0.15248 0.27443 0.49902 0.0
C728 C 0.55068 0.19622 0.05493 0.0
C729 C 0.54352 0.23811 0.05417 0.0
C730 C 0.51697 0.17236 0.03571 0.0
C731 C 0.47373 0.19115 0.01628 0.0
C732 C 0.47025 0.2336 0.01459 0.0
C733 C 0.50656 0.25653 0.03325 0.0
C734 C 0.52398 0.12713 0.03712 0.0
C735 C 0.42338 0.25498 0.99462 0.0
C736 C 0.39105 0.13959 0.95708 0.0
C737 C 0.32168 0.13312 0.96639 0.0
C738 C 0.44272 0.15696 0.97357 0.0
C739 C 0.42461 0.1671 -5e-05 0.0
C740 C 0.35587 0.15874 0.00987 0.0
C741 C 0.3053 0.14157 0.99297 0.0
C742 C 0.51545 0.16625 0.96246 0.0
C743 C 0.33405 0.17069 0.0377 0.0
H744 H 0.58047 0.18218 0.07086 0.0
H745 H 0.50128 0.28908 0.03248 0.0
H746 H 0.47333 0.1139 0.04427 0.0
H747 H 0.53451 0.11456 0.01708 0.0
H748 H 0.56733 0.11769 0.05078 0.0
H749 H 0.43179 0.28817 0.99465 0.0
H750 H 0.43331 0.24352 0.97429 0.0
H751 H 0.36672 0.24902 -0.00065 0.0
H752 H 0.40396 0.13319 0.93654 0.0
H753 H 0.25185 0.13645 0.00028 0.0
H754 H 0.55568 0.14733 0.97268 0.0
H755 H 0.5301 0.19817 0.96613 0.0
H756 H 0.51834 0.16065 0.94076 0.0
H757 H 0.37203 0.15836 0.05247 0.0
H758 H 0.27977 0.15998 0.04278 0.0
H759 H 0.33513 0.20404 0.03962 0.0
C760 C 0.32152 0.83904 0.48396 0.0
C761 C 0.34266 0.85421 0.45916 0.0
C762 C 0.37159 0.82716 0.503 0.0
C763 C 0.44495 0.83118 0.49739 0.0
C764 C 0.46693 0.84829 0.47296 0.0
C765 C 0.41544 0.85943 0.45403 0.0
C766 C 0.34582 0.80875 0.52873 0.0
C767 C 0.54468 0.85365 0.46646 0.0
C768 C 0.55617 0.82226 0.55982 0.0
C769 C 0.5737 0.78117 0.55956 0.0
C770 C 0.51891 0.83984 0.53863 0.0
C771 C 0.49759 0.81556 0.51691 0.0
C772 C 0.5186 0.77457 0.51587 0.0
C773 C 0.55724 0.758 0.53709 0.0
C774 C 0.49891 0.88385 0.54022 0.0
C775 C 0.4962 0.74749 0.49322 0.0
H776 H 0.26552 0.83499 0.48826 0.0
H777 H 0.43232 0.87124 0.43499 0.0
H778 H 0.36525 0.77724 0.5304 0.0
H779 H 0.36749 0.82572 0.54592 0.0
H780 H 0.28689 0.80847 0.53023 0.0
H781 H 0.55276 0.87123 0.44793 0.0
H782 H 0.5725 0.86916 0.48301 0.0
H783 H 0.57003 0.82369 0.46397 0.0
H784 H 0.57012 0.84054 0.57691 0.0
H785 H 0.57178 0.72646 0.53648 0.0
H786 H 0.44122 0.88658 0.54444 0.0
H787 H 0.50911 0.89909 0.52099 0.0
H788 H 0.5287 0.89988 0.55611 0.0
H789 H 0.43783 0.74269 0.49402 0.0
H790 H 0.52277 0.7176 0.494 0.0
H791 H 0.50832 0.76184 0.47386 0.0
C792 C 0.9168 0.70299 0.04104 0.0
C793 C 0.93097 0.7439 0.03623 0.0
C794 C 0.94616 0.67278 0.02492 0.0
C795 C 0.99188 0.68379 0.00385 0.0
C796 C 0.00287 0.72511 -0.00208 0.0
C797 C 0.97174 0.75468 0.01407 0.0
C798 C 0.93126 0.62915 0.03135 0.0
C799 C 0.0515 0.73816 0.97564 0.0
C800 C 0.1531 0.62254 0.98536 0.0
C801 C 0.13652 0.61109 0.95924 0.0
C802 C 0.10412 0.64375 0.00093 0.0
C803 C 0.03627 0.65295 0.99033 0.0
C804 C 0.01616 0.63727 0.96526 0.0
C805 C 0.06674 0.61659 0.94991 0.0
C806 C 0.12773 0.65974 0.02766 0.0
C807 C 0.94344 0.64515 0.95365 0.0
H808 H 0.88416 0.69447 0.05786 0.0
H809 H 0.98261 0.78622 0.01015 0.0
H810 H 0.92104 0.61166 0.01295 0.0
H811 H 0.97838 0.6157 0.04122 0.0
H812 H 0.88493 0.62582 0.04485 0.0
H813 H 0.05049 0.7713 0.97246 0.0
H814 H 0.10694 0.72903 0.98027 0.0
H815 H 0.0362 0.72308 0.95682 0.0
H816 H 0.20634 0.61769 0.993 0.0
H817 H 0.05288 0.60731 0.92992 0.0
H818 H 0.08732 0.65318 0.04306 0.0
H819 H 0.13368 0.69301 0.02655 0.0
H820 H 0.17933 0.64667 0.03411 0.0
H821 H 0.90169 0.64319 0.96913 0.0
H822 H 0.93055 0.62355 0.93745 0.0
H823 H 0.94189 0.67606 0.94525 0.0
C824 C 0.03969 0.73613 0.47099 0.0
C825 C 0.05911 0.72345 0.44542 0.0
C826 C 0.99913 0.71152 0.48754 0.0
C827 C 0.97918 0.67264 0.47863 0.0
C828 C 0.00653 0.6576 0.45438 0.0
C829 C 0.04548 0.68349 0.43775 0.0
C830 C 0.97181 0.72889 0.5134 0.0
C831 C 0.9908 0.6153 0.4451 0.0
C832 C 0.87368 0.62801 0.53442 0.0
C833 C 0.80591 0.64286 0.52806 0.0
C834 C 0.93046 0.63213 0.51659 0.0
C835 C 0.91914 0.65247 0.49226 0.0
C836 C 0.84914 0.66298 0.48446 0.0
C837 C 0.79326 0.65773 0.50242 0.0
C838 C 0.00343 0.61813 0.52499 0.0
C839 C 0.8343 0.68443 0.45855 0.0
H840 H 0.05193 0.7665 0.47752 0.0
H841 H 0.06211 0.67299 0.41834 0.0
H842 H 0.91299 0.73152 0.51262 0.0
H843 H 0.98533 0.70869 0.53018 0.0
H844 H 0.99421 0.7592 0.5177 0.0
H845 H 0.03387 0.60389 0.43202 0.0
H846 H 0.9843 0.59435 0.46211 0.0
H847 H 0.94075 0.61518 0.43344 0.0
H848 H 0.88345 0.61511 0.55382 0.0
H849 H 0.74063 0.66823 0.497 0.0
H850 H 0.03012 0.64235 0.53648 0.0
H851 H 0.03713 0.61069 0.50759 0.0
H852 H 0.99972 0.59123 0.53807 0.0
H853 H 0.85693 0.71534 0.45933 0.0
H854 H 0.77645 0.68688 0.45434 0.0
H855 H 0.85989 0.66842 0.44178 0.0
C856 C 0.42406 0.77976 0.95144 0.0
C857 C 0.43885 0.7388 0.95557 0.0
C858 C 0.45628 0.8096 0.96718 0.0
C859 C 0.50584 0.79811 0.98695 0.0
C860 C 0.5192 0.75667 0.99171 0.0
C861 C 0.48479 0.72751 0.97617 0.0
C862 C 0.43864 0.85335 0.96224 0.0
C863 C 0.57213 0.74313 0.01251 0.0
C864 C 0.66188 0.86288 0.00714 0.0
C865 C 0.64521 0.87167 0.03369 0.0
C866 C 0.61444 0.8414 0.99096 0.0
C867 C 0.54827 0.82888 0.00148 0.0
C868 C 0.52823 0.84107 0.02736 0.0
C869 C 0.57681 0.86266 0.04313 0.0
C870 C 0.63831 0.82865 0.96356 0.0
C871 C 0.45732 0.82912 0.03897 0.0
H872 H 0.38771 0.78847 0.93574 0.0
H873 H 0.4965 0.69586 0.97934 0.0
H874 H 0.4223 0.868 0.98108 0.0
H875 H 0.48645 0.86949 0.95497 0.0
H876 H 0.39535 0.85704 0.94739 0.0
H877 H 0.57561 0.70976 0.01397 0.0
H878 H 0.62569 0.75511 0.00767 0.0
H879 H 0.55715 0.75529 0.03225 0.0
H880 H 0.71416 0.87026 -0.00049 0.0
H881 H 0.56298 0.86981 0.06349 0.0
H882 H 0.59612 0.83457 0.94867 0.0
H883 H 0.64875 0.7957 0.96348 0.0
H884 H 0.68757 0.84445 0.95727 0.0
H885 H 0.41421 0.84492 0.02809 0.0
H886 H 0.45341 0.83667 0.06038 0.0
H887 H 0.44799 0.79628 0.03667 0.0
C888 C 0.34925 0.08555 0.37844 0.0
C889 C 0.34338 0.06097 0.35581 0.0
C890 C 0.33728 0.12741 0.37703 0.0
C891 C 0.31856 0.1453 0.35241 0.0
C892 C 0.31435 0.1209 0.32938 0.0
C893 C 0.32689 0.07919 0.33134 0.0
C894 C 0.34344 0.15237 0.40204 0.0
C895 C 0.29532 0.13876 0.3027 0.0
C896 C 0.222 0.24661 0.35522 0.0
C897 C 0.27821 0.27365 0.35147 0.0
C898 C 0.23394 0.20464 0.35492 0.0
C899 C 0.30373 0.18956 0.35078 0.0
C900 C 0.35994 0.21696 0.34589 0.0
C901 C 0.34643 0.25858 0.34635 0.0
C902 C 0.1725 0.17649 0.36013 0.0
C903 C 0.435 0.20244 0.34125 0.0
H904 H 0.36187 0.072 0.39744 0.0
H905 H 0.32203 0.0607 0.31368 0.0
H906 H 0.38221 0.17718 0.39909 0.0
H907 H 0.29137 0.16643 0.40665 0.0
H908 H 0.36063 0.13418 0.41942 0.0
H909 H 0.29587 0.11591 0.28656 0.0
H910 H 0.24155 0.15245 0.30361 0.0
H911 H 0.33316 0.16318 0.29754 0.0
H912 H 0.16946 0.2583 0.35958 0.0
H913 H 0.38991 0.27945 0.34337 0.0
H914 H 0.18162 0.16009 0.37903 0.0
H915 H 0.16871 0.15359 0.34412 0.0
H916 H 0.12099 0.19275 0.36148 0.0
H917 H 0.45545 0.18767 0.35949 0.0
H918 H 0.47159 0.22745 0.33589 0.0
H919 H 0.43599 0.17962 0.32514 0.0
C920 C 0.31572 0.2438 0.85219 0.0
C921 C 0.27639 0.21774 0.8359 0.0
C922 C 0.3103 0.28585 0.84899 0.0
C923 C 0.26548 0.30157 0.82883 0.0
C924 C 0.23819 0.27516 0.8092 0.0
C925 C 0.2463 0.23335 0.81253 0.0
C926 C 0.34441 0.31304 0.86938 0.0
C927 C 0.19088 0.29026 0.78709 0.0
C928 C 0.15086 0.38983 0.85148 0.0
C929 C 0.18167 0.42228 0.83796 0.0
C930 C 0.1765 0.35033 0.84801 0.0
C931 C 0.23616 0.34328 0.83133 0.0
C932 C 0.26721 0.37595 0.81752 0.0
C933 C 0.23898 0.41491 0.82072 0.0
C934 C 0.14036 0.31624 0.86262 0.0
C935 C 0.33247 0.37029 0.80048 0.0
H936 H 0.34044 0.23193 0.87003 0.0
H937 H 0.21691 0.21313 0.79959 0.0
H938 H 0.36409 0.34121 0.86007 0.0
H939 H 0.30437 0.32148 0.88456 0.0
H940 H 0.38935 0.29779 0.87962 0.0
H941 H 0.18568 0.2677 0.77088 0.0
H942 H 0.13707 0.29636 0.79519 0.0
H943 H 0.2113 0.31884 0.77861 0.0
H944 H 0.10705 0.39541 0.86496 0.0
H945 H 0.26435 0.44002 0.81072 0.0
H946 H 0.1774 0.30314 0.87745 0.0
H947 H 0.12571 0.29187 0.84852 0.0
H948 H 0.09158 0.3263 0.87314 0.0
H949 H 0.37911 0.36474 0.81349 0.0
H950 H 0.34374 0.39724 0.78808 0.0
H951 H 0.32679 0.34369 0.78731 0.0
C952 C 0.81003 0.43558 0.6616 0.0
C953 C 0.81139 0.45234 0.63595 0.0
C954 C 0.80649 0.39356 0.66551 0.0
C955 C 0.80396 0.36743 0.64326 0.0
C956 C 0.80613 0.38406 0.61733 0.0
C957 C 0.80988 0.42615 0.61401 0.0
C958 C 0.80541 0.37712 0.69347 0.0
C959 C 0.8042 0.35738 0.593 0.0
C960 C 0.86212 0.25783 0.64807 0.0
C961 C 0.79697 0.23726 0.64786 0.0
C962 C 0.86513 0.30012 0.64762 0.0
C963 C 0.80122 0.32264 0.64694 0.0
C964 C 0.73508 0.30203 0.64823 0.0
C965 C 0.73374 0.25949 0.64873 0.0
C966 C 0.93685 0.32056 0.64652 0.0
C967 C 0.6657 0.32482 0.64753 0.0
H968 H 0.81114 0.45532 0.67875 0.0
H969 H 0.81075 0.43853 0.5941 0.0
H970 H 0.75643 0.35912 0.69666 0.0
H971 H 0.85128 0.3566 0.69656 0.0
H972 H 0.80762 0.40137 0.70868 0.0
H973 H 0.80477 0.375 0.57425 0.0
H974 H 0.85067 0.33678 0.59303 0.0
H975 H 0.75568 0.33834 0.59329 0.0
H976 H 0.9111 0.24074 0.64782 0.0
H977 H 0.68331 0.24365 0.64819 0.0
H978 H 0.94049 0.34438 0.66193 0.0
H979 H 0.94365 0.3354 0.62694 0.0
H980 H 0.98135 0.29897 0.64941 0.0
H981 H 0.66555 0.34893 0.6628 0.0
H982 H 0.61923 0.30477 0.6509 0.0
H983 H 0.65947 0.33961 0.6279 0.0
C984 C 0.74148 0.07401 0.16332 0.0
C985 C 0.67665 0.06414 0.15107 0.0
C986 C 0.7642 0.11422 0.16534 0.0
C987 C 0.71982 0.14536 0.1557 0.0
C988 C 0.65296 0.1355 0.14424 0.0
C989 C 0.63292 0.0949 0.14149 0.0
C990 C 0.83676 0.12322 0.17677 0.0
C991 C 0.6033 0.16778 0.13422 0.0
C992 C 0.7302 0.25383 0.17851 0.0
C993 C 0.75078 0.27318 0.15495 0.0
C994 C 0.72501 0.21168 0.17986 0.0
C995 C 0.74276 0.18835 0.15728 0.0
C996 C 0.77341 0.20746 0.13485 0.0
C997 C 0.77698 0.24982 0.13392 0.0
C998 C 0.69189 0.1928 0.20418 0.0
C999 C 0.79532 0.18362 0.11066 0.0
H1000 H 0.77611 0.05003 0.1702 0.0
H1001 H 0.58318 0.08716 0.13183 0.0
H1002 H 0.87073 0.13702 0.16123 0.0
H1003 H 0.83259 0.14537 0.1932 0.0
H1004 H 0.86364 0.0957 0.18434 0.0
H1005 H 0.55065 0.15548 0.12829 0.0
H1006 H 0.59523 0.19126 0.14964 0.0
H1007 H 0.62763 0.18255 0.11675 0.0
H1008 H 0.70956 0.27185 0.19476 0.0
H1009 H 0.79231 0.26447 0.11555 0.0
H1010 H 0.72031 0.16488 0.20998 0.0
H1011 H 0.63605 0.18437 0.19962 0.0
H1012 H 0.6917 0.21383 0.22136 0.0
H1013 H 0.82245 0.15525 0.11647 0.0
H1014 H 0.83123 0.20129 0.09758 0.0
H1015 H 0.74732 0.17538 0.09902 0.0
C1016 C 0.77616 0.77159 0.68042 0.0
C1017 C 0.79856 0.74686 0.65937 0.0
C1018 C 0.79239 0.8129 0.68078 0.0
C1019 C 0.83404 0.82943 0.66009 0.0
C1020 C 0.86862 0.803 0.64212 0.0
C1021 C 0.84986 0.76186 0.64173 0.0
C1022 C 0.75644 0.83951 0.70103 0.0
C1023 C 0.91855 0.81895 0.62122 0.0
C1024 C 0.75921 0.9244 0.6288 0.0
C1025 C 0.79786 0.95511 0.64134 0.0
C1026 C 0.77115 0.88373 0.63474 0.0
C1027 C 0.82521 0.87298 0.65311 0.0
C1028 C 0.8661 0.90386 0.66536 0.0
C1029 C 0.85079 0.94469 0.65977 0.0
C1030 C 0.72428 0.85232 0.62169 0.0
C1031 C 0.92551 0.8944 0.68453 0.0
H1032 H 0.73827 0.75985 0.69468 0.0
H1033 H 0.8691 0.74287 0.62575 0.0
H1034 H 0.79493 0.86128 0.70955 0.0
H1035 H 0.71357 0.85707 0.69121 0.0
H1036 H 0.73259 0.82177 0.71748 0.0
H1037 H 0.95457 0.79491 0.6138 0.0
H1038 H 0.88728 0.83056 0.60416 0.0
H1039 H 0.95098 0.8442 0.62919 0.0
H1040 H 0.71784 0.9323 0.61471 0.0
H1041 H 0.88118 0.96834 0.66941 0.0
H1042 H 0.69839 0.83334 0.63703 0.0
H1043 H 0.75685 0.83218 0.60902 0.0
H1044 H 0.68209 0.86595 0.6091 0.0
H1045 H 0.90551 0.89742 0.70515 0.0
H1046 H 0.9698 0.91629 0.68218 0.0
H1047 H 0.94677 0.86345 0.68186 0.0
C1048 C 0.69566 0.5712 0.15078 0.0
C1049 C 0.75835 0.56584 0.13604 0.0
C1050 C 0.66648 0.6095 0.15471 0.0
C1051 C 0.70227 0.64342 0.14443 0.0
C1052 C 0.7651 0.63818 0.12908 0.0
C1053 C 0.79169 0.59916 0.12463 0.0
C1054 C 0.59776 0.6136 0.16998 0.0
C1055 C 0.80506 0.6738 0.11784 0.0
C1056 C 0.63535 0.74894 0.13396 0.0
C1057 C 0.67587 0.76867 0.15338 0.0
C1058 C 0.63644 0.7067 0.13225 0.0
C1059 C 0.67713 0.68464 0.15093 0.0
C1060 C 0.70435 0.70434 0.17374 0.0
C1061 C 0.70114 0.74649 0.17509 0.0
C1062 C 0.60291 0.68658 0.10844 0.0
C1063 C 0.74717 0.68202 0.19444 0.0
H1064 H 0.66844 0.54512 0.15887 0.0
H1065 H 0.83928 0.59476 0.11285 0.0
H1066 H 0.60819 0.62795 0.18949 0.0
H1067 H 0.56001 0.63333 0.15911 0.0
H1068 H 0.57187 0.58396 0.17351 0.0
H1069 H 0.85354 0.66454 0.10683 0.0
H1070 H 0.77019 0.69102 0.10416 0.0
H1071 H 0.82098 0.69449 0.13414 0.0
H1072 H 0.61403 0.76618 0.11746 0.0
H1073 H 0.73103 0.76202 0.19045 0.0
H1074 H 0.58178 0.65635 0.11359 0.0
H1075 H 0.64368 0.68259 0.09275 0.0
H1076 H 0.55917 0.70521 0.10009 0.0
H1077 H 0.72177 0.65297 0.19972 0.0
H1078 H 0.75411 0.70017 0.21282 0.0
H1079 H 0.80063 0.67517 0.18628 0.0
C1080 C 0.33778 0.559 0.32691 0.0
C1081 C 0.28052 0.55309 0.34434 0.0
C1082 C 0.36203 0.59823 0.3208 0.0
C1083 C 0.32707 0.63214 0.33199 0.0
C1084 C 0.26802 0.62599 0.34905 0.0
C1085 C 0.2463 0.58673 0.3552 0.0
C1086 C 0.42658 0.60305 0.30334 0.0
C1087 C 0.22734 0.66092 0.36099 0.0
C1088 C 0.37843 0.73835 0.34759 0.0
C1089 C 0.33114 0.75825 0.33053 0.0
C1090 C 0.38827 0.69636 0.34553 0.0
C1091 C 0.34952 0.67446 0.32612 0.0
C1092 C 0.31453 0.69586 0.30559 0.0
C1093 C 0.30685 0.73785 0.30782 0.0
C1094 C 0.43055 0.67493 0.3667 0.0
C1095 C 0.27427 0.67415 0.28393 0.0
H1096 H 0.36504 0.533 0.31876 0.0
H1097 H 0.20174 0.5823 0.36853 0.0
H1098 H 0.42238 0.62998 0.29039 0.0
H1099 H 0.47415 0.60707 0.31613 0.0
H1100 H 0.43523 0.576 0.29072 0.0
H1101 H 0.18058 0.65086 0.37272 0.0
H1102 H 0.26266 0.67858 0.37428 0.0
H1103 H 0.20838 0.68141 0.34508 0.0
H1104 H 0.39847 0.75404 0.36497 0.0
H1105 H 0.27121 0.75338 0.2943 0.0
H1106 H 0.45787 0.6481 0.35837 0.0
H1107 H 0.39407 0.66446 0.38257 0.0
H1108 H 0.47069 0.69526 0.37584 0.0
H1109 H 0.30393 0.64732 0.2769 0.0
H1110 H 0.26354 0.69427 0.26675 0.0
H1111 H 0.22248 0.66365 0.29192 0.0
C1112 C 0.14294 0.74143 0.86581 0.0
C1113 C 0.17659 0.7224 0.84438 0.0
C1114 C 0.14938 0.78331 0.8694 0.0
C1115 C 0.18835 0.80612 0.85061 0.0
C1116 C 0.20934 0.78791 0.82641 0.0
C1117 C 0.20106 0.74614 0.82325 0.0
C1118 C 0.12262 0.80188 0.89486 0.0
C1119 C 0.24998 0.81107 0.80554 0.0
C1120 C 0.20792 0.91964 0.85335 0.0
C1121 C 0.27399 0.92424 0.86608 0.0
C1122 C 0.17773 0.88156 0.84931 0.0
C1123 C 0.21543 0.84699 0.85754 0.0
C1124 C 0.28153 0.85141 0.87106 0.0
C1125 C 0.30959 0.89023 0.87559 0.0
C1126 C 0.10618 0.87839 0.83578 0.0
C1127 C 0.3235 0.8151 0.88007 0.0
H1128 H 0.12269 0.7232 0.88201 0.0
H1129 H 0.22605 0.73137 0.80645 0.0
H1130 H 0.1673 0.80447 0.90917 0.0
H1131 H 0.10135 0.83262 0.89136 0.0
H1132 H 0.08048 0.78308 0.90412 0.0
H1133 H 0.25339 0.79417 0.78652 0.0
H1134 H 0.22498 0.84075 0.80166 0.0
H1135 H 0.30484 0.81677 0.81279 0.0
H1136 H 0.17942 0.94616 0.84657 0.0
H1137 H 0.36016 0.8939 0.88567 0.0
H1138 H 0.07031 0.85838 0.84725 0.0
H1139 H 0.11264 0.8648 0.8158 0.0
H1140 H 0.08018 0.90827 0.83344 0.0
H1141 H 0.29154 0.79703 0.89423 0.0
H1142 H 0.37434 0.82364 0.88984 0.0
H1143 H 0.33555 0.79545 0.8628 0.0
C1144 C 0.50638 0.58867 0.5513 0.0
C1145 C 0.56663 0.56416 0.55444 0.0
C1146 C 0.45957 0.58374 0.52983 0.0
C1147 C 0.47067 0.55157 0.51189 0.0
C1148 C 0.5274 0.52415 0.51647 0.0
C1149 C 0.5754 0.53123 0.53732 0.0
C1150 C 0.39989 0.61382 0.52661 0.0
C1151 C 0.53872 0.48772 0.49891 0.0
C1152 C 0.33915 0.50213 0.46658 0.0
C1153 C 0.37666 0.50557 0.44267 0.0
C1154 C 0.36373 0.52155 0.48958 0.0
C1155 C 0.42519 0.54597 0.48796 0.0
C1156 C 0.45267 0.55642 0.4627 0.0
C1157 C 0.42891 0.53532 0.4402 0.0
C1158 C 0.33076 0.51104 0.51598 0.0
C1159 C 0.5137 0.58558 0.45994 0.0
H1160 H 0.49671 0.6127 0.56514 0.0
H1161 H 0.62064 0.51135 0.53982 0.0
H1162 H 0.42058 0.64495 0.5293 0.0
H1163 H 0.37292 0.61195 0.50706 0.0
H1164 H 0.35991 0.60875 0.54247 0.0
H1165 H 0.57908 0.46674 0.5072 0.0
H1166 H 0.4881 0.47097 0.49624 0.0
H1167 H 0.55692 0.49757 0.47901 0.0
H1168 H 0.29826 0.47922 0.46836 0.0
H1169 H 0.45755 0.53827 0.42162 0.0
H1170 H 0.32191 0.53871 0.52789 0.0
H1171 H 0.3676 0.49132 0.52731 0.0
H1172 H 0.27921 0.49504 0.5136 0.0
H1173 H 0.51695 0.59788 0.43946 0.0
H1174 H 0.56437 0.56981 0.46439 0.0
H1175 H 0.50807 0.61093 0.47421 0.0
C1176 C 0.93776 0.95884 0.05525 0.0
C1177 C 0.8741 0.97924 0.06049 0.0
C1178 C 0.9825 0.97084 0.03454 0.0
C1179 C 0.96454 0.00517 0.01932 0.0
C1180 C 0.90329 0.02789 0.02576 0.0
C1181 C 0.85826 0.0144 0.04611 0.0
C1182 C 0.04721 0.9456 0.02822 0.0
C1183 C 0.88425 0.06573 0.01066 0.0
C1184 C 0.11585 0.04666 0.97817 0.0
C1185 C 0.09924 0.03144 0.95299 0.0
C1186 C 0.07054 0.04003 -0.00024 0.0
C1187 C 0.00884 0.01625 0.99612 0.0
C1188 C 0.99179 1.00098 0.97056 0.0
C1189 C 0.0369 0.00939 0.9491 0.0
C1190 C 0.08911 0.05803 0.02646 0.0
C1191 C 0.92721 0.97479 0.96607 0.0
H1192 H 0.9516 0.93254 0.06667 0.0
H1193 H 0.80983 0.03091 0.05029 0.0
H1194 H 0.04265 0.93342 0.00776 0.0
H1195 H 0.09591 0.96441 0.02894 0.0
H1196 H 0.05392 0.91996 0.0422 0.0
H1197 H 0.8394 0.08227 0.01999 0.0
H1198 H 0.93089 0.08616 0.0095 0.0
H1199 H 0.86899 0.05784 0.99002 0.0
H1200 H 0.16425 0.06392 0.98093 0.0
H1201 H 0.02451 0.99793 0.92945 0.0
H1202 H 0.10287 0.0337 0.04066 0.0
H1203 H 0.04267 0.07438 0.03473 0.0
H1204 H 0.13477 0.07921 0.02523 0.0
H1205 H 0.93127 0.94716 0.97841 0.0
H1206 H 0.92119 0.96571 0.94494 0.0
H1207 H 0.87844 0.99098 0.9723 0.0
C1208 C 0.8818 0.02781 0.5155 0.0
C1209 C 0.90915 0.0225 0.54117 0.0
C1210 C 0.91156 0.0074 0.49382 0.0
C1211 C 0.96851 0.98038 0.49825 0.0
C1212 C 0.98679 0.96955 0.52463 0.0
C1213 C 0.95754 0.99133 0.54594 0.0
C1214 C 0.88893 0.01902 0.46609 0.0
C1215 C 0.04325 0.93841 0.53019 0.0
C1216 C 0.05302 0.93058 0.43782 0.0
C1217 C 0.11557 0.95327 0.43476 0.0
C1218 C 0.0053 0.93803 0.45868 0.0
C1219 C 0.01807 0.97073 0.47607 0.0
C1220 C 0.07866 0.99552 0.47203 0.0
C1221 C 0.12712 0.98609 0.45178 0.0
C1222 C 0.94191 0.91047 0.46178 0.0
C1223 C 0.09281 0.03197 0.48929 0.0
H1224 H 0.84429 0.05208 0.51192 0.0
H1225 H 0.9788 0.98724 0.56579 0.0
H1226 H 0.93194 0.03674 0.45652 0.0
H1227 H 0.87984 0.99172 0.45384 0.0
H1228 H 0.83959 0.03744 0.46607 0.0
H1229 H 0.04026 0.92722 0.55095 0.0
H1230 H 0.03791 0.9125 0.51635 0.0
H1231 H 0.09655 0.95198 0.52711 0.0
H1232 H 0.04165 0.90625 0.42434 0.0
H1233 H 0.17448 0.00438 0.44944 0.0
H1234 H 0.89917 0.92036 0.44804 0.0
H1235 H 0.92053 0.91041 0.4823 0.0
H1236 H 0.95608 0.87904 0.45626 0.0
H1237 H 0.13895 0.04989 0.48221 0.0
H1238 H 0.10365 0.02223 0.50997 0.0
H1239 H 0.04532 0.05183 0.48972 0.0
C1240 C 0.59973 0.44972 0.02092 0.0
C1241 C 0.57446 0.46148 0.04587 0.0
C1242 C 0.55677 0.45274 -0.00162 0.0
C1243 C 0.48874 0.47042 0.00073 0.0
C1244 C 0.46258 0.48198 0.02604 0.0
C1245 C 0.50541 0.47629 0.04857 0.0
C1246 C 0.58499 0.43793 0.97203 0.0
C1247 C 0.39109 0.5021 0.02913 0.0
C1248 C 0.42597 0.5285 0.94079 0.0
C1249 C 0.36713 0.50587 0.93258 0.0
C1250 C 0.46545 0.51746 0.96313 0.0
C1251 C 0.4489 0.48114 0.97642 0.0
C1252 C 0.3945 0.45574 0.96658 0.0
C1253 C 0.35311 0.46883 0.94504 0.0
C1254 C 0.52261 0.54574 0.97317 0.0
C1255 C 0.37885 0.41539 0.97915 0.0
H1256 H 0.65314 0.43783 0.01905 0.0
H1257 H 0.48611 0.48474 0.06808 0.0
H1258 H 0.54326 0.42119 0.96098 0.0
H1259 H 0.60111 0.46399 0.95964 0.0
H1260 H 0.63195 0.41796 0.97457 0.0
H1261 H 0.37791 0.50822 0.05025 0.0
H1262 H 0.39093 0.5311 0.01812 0.0
H1263 H 0.34864 0.48298 0.02046 0.0
H1264 H 0.4396 0.55587 0.93058 0.0
H1265 H 0.30887 0.45044 0.93838 0.0
H1266 H 0.57523 0.53075 0.97241 0.0
H1267 H 0.51218 0.55373 0.99421 0.0
H1268 H 0.52561 0.57402 0.96139 0.0
H1269 H 0.42884 0.39828 0.98237 0.0
H1270 H 0.34236 0.39687 0.96677 0.0
H1271 H 0.35386 0.41995 -0.00115 0.0
loop_
_geom_bond_atom_site_label_1
_geom_bond_atom_site_label_2
_geom_bond_distance
_geom_bond_site_symmetry_2
_ccdc_geom_bond_type
C0 O27 1.312 . S
C0 O28 1.208 . S
C1 O22 1.331 . S
C1 O25 1.244 . S
C2 O24 1.264 . S
C2 O26 1.273 . S
Mg3 O5 1.936 . S
Mg3 O12 2.081 . S
Mg3 O14 2.023 . S
Mg3 O18 2.031 . S
Mg3 O27 2.291 . S
Mg4 O5 1.963 . S
Mg4 O15 1.942 . S
Mg4 O16 1.955 . S
Mg4 O23 1.986 . S
O5 Mg3 1.936 . S
O5 Mg4 1.963 . S
O5 Mg6 1.915 . S
Mg6 O5 1.915 . S
Mg6 O7 1.915 . S
Mg6 O11 2.013 . S
Mg6 O17 2.114 . S
Mg6 O21 2.013 . S
Mg6 O27 2.114 . S
O7 Mg6 1.915 . S
O7 Mg8 1.936 . S
O7 Mg9 1.963 . S
Mg8 O7 1.936 . S
Mg8 O17 2.291 . S
Mg8 O22 2.081 . S
Mg8 O24 2.023 . S
Mg8 O28 2.031 . S
Mg9 O7 1.963 . S
Mg9 O13 1.986 . S
Mg9 O25 1.942 . S
Mg9 O26 1.955 . S
C10 O21 1.191 . S
C10 O23 1.307 . S
O11 Mg6 2.013 . S
O11 C30 1.191 . S
O12 Mg3 2.081 . S
O12 C20 1.331 . S
O13 Mg9 1.986 . S
O13 C30 1.307 . S
O14 Mg3 2.023 . S
O14 C29 1.264 . S
O15 Mg4 1.942 . S
O15 C20 1.244 . S
O16 Mg4 1.955 . S
O16 C29 1.273 . S
O17 Mg6 2.114 . S
O17 Mg8 2.291 . S
O17 C19 1.312 . S
O18 Mg3 2.031 . S
O18 C19 1.208 . S
C19 O17 1.312 . S
C19 O18 1.208 . S
C20 O12 1.331 . S
C20 O15 1.244 . S
O21 Mg6 2.013 . S
O21 C10 1.191 . S
O22 C1 1.331 . S
O22 Mg8 2.081 . S
O23 Mg4 1.986 . S
O23 C10 1.307 . S
O24 C2 1.264 . S
O24 Mg8 2.023 . S
O25 C1 1.244 . S
O25 Mg9 1.942 . S
O26 C2 1.273 . S
O26 Mg9 1.955 . S
O27 C0 1.312 . S
O27 Mg3 2.291 . S
O27 Mg6 2.114 . S
O28 C0 1.208 . S
O28 Mg8 2.031 . S
C29 O14 1.264 . S
C29 O16 1.273 . S
C30 O11 1.191 . S
C30 O13 1.307 . S
C31 O58 1.312 . S
C31 O59 1.208 . S
C32 O53 1.331 . S
C32 O56 1.244 . S
C33 O55 1.264 . S
C33 O57 1.273 . S
Mg34 O36 1.936 1_655 S
Mg34 O43 2.081 . S
Mg34 O45 2.023 . S
Mg34 O49 2.031 1_655 S
Mg34 O58 2.291 1_655 S
Mg35 O36 1.963 1_655 S
Mg35 O46 1.942 . S
Mg35 O47 1.955 . S
Mg35 O54 1.986 1_655 S
O36 Mg34 1.936 1_455 S
O36 Mg35 1.963 1_455 S
O36 Mg37 1.915 . S
Mg37 O36 1.915 . S
Mg37 O38 1.915 . S
Mg37 O42 2.013 . S
Mg37 O48 2.114 . S
Mg37 O52 2.013 . S
Mg37 O58 2.114 . S
O38 Mg37 1.915 . S
O38 Mg39 1.936 . S
O38 Mg40 1.963 . S
Mg39 O38 1.936 . S
Mg39 O48 2.291 . S
Mg39 O53 2.081 . S
Mg39 O55 2.023 . S
Mg39 O59 2.031 . S
Mg40 O38 1.963 . S
Mg40 O44 1.986 . S
Mg40 O56 1.942 . S
Mg40 O57 1.955 . S
C41 O52 1.191 . S
C41 O54 1.307 . S
O42 Mg37 2.013 . S
O42 C61 1.191 . S
O43 Mg34 2.081 . S
O43 C51 1.331 . S
O44 Mg40 1.986 . S
O44 C61 1.307 . S
O45 Mg34 2.023 . S
O45 C60 1.264 . S
O46 Mg35 1.942 . S
O46 C51 1.244 . S
O47 Mg35 1.955 . S
O47 C60 1.273 . S
O48 Mg37 2.114 . S
O48 Mg39 2.291 . S
O48 C50 1.312 . S
O49 Mg34 2.031 1_455 S
O49 C50 1.208 . S
C50 O48 1.312 . S
C50 O49 1.208 . S
C51 O43 1.331 . S
C51 O46 1.244 . S
O52 Mg37 2.013 . S
O52 C41 1.191 . S
O53 C32 1.331 . S
O53 Mg39 2.081 . S
O54 Mg35 1.986 1_455 S
O54 C41 1.307 . S
O55 C33 1.264 . S
O55 Mg39 2.023 . S
O56 C32 1.244 . S
O56 Mg40 1.942 . S
O57 C33 1.273 . S
O57 Mg40 1.955 . S
O58 C31 1.312 . S
O58 Mg34 2.291 1_455 S
O58 Mg37 2.114 . S
O59 C31 1.208 . S
O59 Mg39 2.031 . S
C60 O45 1.264 . S
C60 O47 1.273 . S
C61 O42 1.191 . S
C61 O44 1.307 . S
C62 O89 1.312 . S
C62 O90 1.208 . S
C63 O84 1.331 . S
C63 O87 1.244 . S
C64 O86 1.264 . S
C64 O88 1.273 . S
Mg65 O67 1.936 1_455 S
Mg65 O74 2.081 . S
Mg65 O76 2.023 . S
Mg65 O80 2.029 1_455 S
Mg65 O89 2.291 1_455 S
Mg66 O67 1.963 1_455 S
Mg66 O77 1.942 . S
Mg66 O78 1.955 . S
Mg66 O85 1.986 . S
O67 Mg65 1.936 1_655 S
O67 Mg66 1.963 1_655 S
O67 Mg68 1.915 . S
Mg68 O67 1.915 . S
Mg68 O69 1.915 . S
Mg68 O73 2.013 . S
Mg68 O79 2.114 . S
Mg68 O83 2.013 . S
Mg68 O89 2.114 . S
O69 Mg68 1.915 . S
O69 Mg70 1.936 . S
O69 Mg71 1.963 . S
Mg70 O69 1.936 . S
Mg70 O79 2.291 . S
Mg70 O84 2.081 . S
Mg70 O86 2.023 . S
Mg70 O90 2.031 . S
Mg71 O69 1.963 . S
Mg71 O75 1.986 . S
Mg71 O87 1.942 . S
Mg71 O88 1.955 . S
C72 O83 1.191 . S
C72 O85 1.307 1_655 S
O73 Mg68 2.013 . S
O73 C92 1.191 . S
O74 Mg65 2.081 . S
O74 C82 1.331 . S
O75 Mg71 1.986 . S
O75 C92 1.307 . S
O76 Mg65 2.023 . S
O76 C91 1.264 . S
O77 Mg66 1.942 . S
O77 C82 1.244 . S
O78 Mg66 1.955 . S
O78 C91 1.273 . S
O79 Mg68 2.114 . S
O79 Mg70 2.291 . S
O79 C81 1.312 . S
O80 Mg65 2.029 1_655 S
O80 C81 1.215 . S
C81 O79 1.312 . S
C81 O80 1.215 . S
C82 O74 1.331 . S
C82 O77 1.244 . S
O83 Mg68 2.013 . S
O83 C72 1.191 . S
O84 C63 1.331 . S
O84 Mg70 2.081 . S
O85 Mg66 1.986 . S
O85 C72 1.307 1_455 S
O86 C64 1.264 . S
O86 Mg70 2.023 . S
O87 C63 1.244 . S
O87 Mg71 1.942 . S
O88 C64 1.273 . S
O88 Mg71 1.955 . S
O89 C62 1.312 . S
O89 Mg65 2.291 1_655 S
O89 Mg68 2.114 . S
O90 C62 1.208 . S
O90 Mg70 2.031 . S
C91 O76 1.264 . S
C91 O78 1.273 . S
C92 O73 1.191 . S
C92 O75 1.307 . S
C93 O120 1.312 . S
C93 O121 1.208 . S
C94 O115 1.331 . S
C94 O118 1.244 . S
C95 O117 1.264 . S
C95 O119 1.273 . S
Mg96 O98 1.936 . S
Mg96 O105 2.081 . S
Mg96 O107 2.023 . S
Mg96 O111 2.031 . S
Mg96 O120 2.291 . S
Mg97 O98 1.963 . S
Mg97 O108 1.942 . S
Mg97 O109 1.955 . S
Mg97 O116 1.986 . S
O98 Mg96 1.936 . S
O98 Mg97 1.963 . S
O98 Mg99 1.915 . S
Mg99 O98 1.915 . S
Mg99 O100 1.915 . S
Mg99 O104 2.013 . S
Mg99 O110 2.114 . S
Mg99 O114 2.013 . S
Mg99 O120 2.114 . S
O100 Mg99 1.915 . S
O100 Mg101 1.936 . S
O100 Mg102 1.963 . S
Mg101 O100 1.936 . S
Mg101 O110 2.291 . S
Mg101 O115 2.081 . S
Mg101 O117 2.023 . S
Mg101 O121 2.031 . S
Mg102 O100 1.963 . S
Mg102 O106 1.986 . S
Mg102 O118 1.942 . S
Mg102 O119 1.955 . S
C103 O114 1.191 . S
C103 O116 1.307 . S
O104 Mg99 2.013 . S
O104 C123 1.191 . S
O105 Mg96 2.081 . S
O105 C113 1.331 . S
O106 Mg102 1.986 . S
O106 C123 1.307 . S
O107 Mg96 2.023 . S
O107 C122 1.264 . S
O108 Mg97 1.942 . S
O108 C113 1.244 . S
O109 Mg97 1.955 . S
O109 C122 1.273 . S
O110 Mg99 2.114 . S
O110 Mg101 2.291 . S
O110 C112 1.312 . S
O111 Mg96 2.031 . S
O111 C112 1.208 . S
C112 O110 1.312 . S
C112 O111 1.208 . S
C113 O105 1.331 . S
C113 O108 1.244 . S
O114 Mg99 2.013 . S
O114 C103 1.191 . S
O115 C94 1.331 . S
O115 Mg101 2.081 . S
O116 Mg97 1.986 . S
O116 C103 1.307 . S
O117 C95 1.264 . S
O117 Mg101 2.023 . S
O118 C94 1.244 . S
O118 Mg102 1.942 . S
O119 C95 1.273 . S
O119 Mg102 1.955 . S
O120 C93 1.312 . S
O120 Mg96 2.291 . S
O120 Mg99 2.114 . S
O121 C93 1.208 . S
O121 Mg101 2.031 . S
C122 O107 1.264 . S
C122 O109 1.273 . S
C123 O104 1.191 . S
C123 O106 1.307 . S
C124 O151 1.312 . S
C124 O152 1.208 . S
C125 O146 1.331 . S
C125 O149 1.244 . S
C126 O148 1.264 . S
C126 O150 1.273 . S
Mg127 O129 1.936 . S
Mg127 O136 2.081 . S
Mg127 O138 2.023 . S
Mg127 O142 2.031 . S
Mg127 O151 2.291 . S
Mg128 O129 1.963 . S
Mg128 O139 1.942 . S
Mg128 O140 1.955 . S
Mg128 O147 1.986 . S
O129 Mg127 1.936 . S
O129 Mg128 1.963 . S
O129 Mg130 1.915 . S
Mg130 O129 1.915 . S
Mg130 O131 1.915 . S
Mg130 O135 2.013 . S
Mg130 O141 2.114 . S
Mg130 O145 2.013 . S
Mg130 O151 2.114 . S
O131 Mg130 1.915 . S
O131 Mg132 1.936 . S
O131 Mg133 1.963 . S
Mg132 O131 1.936 . S
Mg132 O141 2.291 . S
Mg132 O146 2.081 . S
Mg132 O148 2.023 . S
Mg132 O152 2.031 . S
Mg133 O131 1.963 . S
Mg133 O137 1.986 . S
Mg133 O149 1.942 . S
Mg133 O150 1.955 . S
C134 O145 1.191 . S
C134 O147 1.307 . S
O135 Mg130 2.013 . S
O135 C154 1.191 . S
O136 Mg127 2.081 . S
O136 C144 1.331 . S
O137 Mg133 1.986 . S
O137 C154 1.307 . S
O138 Mg127 2.023 . S
O138 C153 1.264 . S
O139 Mg128 1.942 . S
O139 C144 1.244 . S
O140 Mg128 1.955 . S
O140 C153 1.273 . S
O141 Mg130 2.114 . S
O141 Mg132 2.291 . S
O141 C143 1.312 . S
O142 Mg127 2.031 . S
O142 C143 1.208 . S
C143 O141 1.312 . S
C143 O142 1.208 . S
C144 O136 1.331 . S
C144 O139 1.244 . S
O145 Mg130 2.013 . S
O145 C134 1.191 . S
O146 C125 1.331 . S
O146 Mg132 2.081 . S
O147 Mg128 1.986 . S
O147 C134 1.307 . S
O148 C126 1.264 . S
O148 Mg132 2.023 . S
O149 C125 1.244 . S
O149 Mg133 1.942 . S
O150 C126 1.273 . S
O150 Mg133 1.955 . S
O151 C124 1.312 . S
O151 Mg127 2.291 . S
O151 Mg130 2.114 . S
O152 C124 1.208 . S
O152 Mg132 2.031 . S
C153 O138 1.264 . S
C153 O140 1.273 . S
C154 O135 1.191 . S
C154 O137 1.307 . S
C155 O182 1.312 . S
C155 O183 1.208 . S
C156 O177 1.331 . S
C156 O180 1.244 . S
C157 O179 1.264 . S
C157 O181 1.273 . S
Mg158 O160 1.936 . S
Mg158 O167 2.081 . S
Mg158 O169 2.023 . S
Mg158 O173 2.031 . S
Mg158 O182 2.291 . S
Mg159 O160 1.963 . S
Mg159 O170 1.942 . S
Mg159 O171 1.955 . S
Mg159 O178 1.986 . S
O160 Mg158 1.936 . S
O160 Mg159 1.963 . S
O160 Mg161 1.915 . S
Mg161 O160 1.915 . S
Mg161 O162 1.915 . S
Mg161 O166 2.013 . S
Mg161 O172 2.114 . S
Mg161 O176 2.013 . S
Mg161 O182 2.114 . S
O162 Mg161 1.915 . S
O162 Mg163 1.936 1_655 S
O162 Mg164 1.963 1_655 S
Mg163 O162 1.936 1_455 S
Mg163 O172 2.291 1_455 S
Mg163 O177 2.081 . S
Mg163 O179 2.023 . S
Mg163 O183 2.031 1_455 S
Mg164 O162 1.963 1_455 S
Mg164 O168 1.986 1_455 S
Mg164 O180 1.942 . S
Mg164 O181 1.955 . S
C165 O176 1.191 . S
C165 O178 1.307 . S
O166 Mg161 2.013 . S
O166 C185 1.191 . S
O167 Mg158 2.081 . S
O167 C175 1.331 . S
O168 Mg164 1.986 1_655 S
O168 C185 1.307 . S
O169 Mg158 2.023 . S
O169 C184 1.264 . S
O170 Mg159 1.942 . S
O170 C175 1.244 . S
O171 Mg159 1.955 . S
O171 C184 1.273 . S
O172 Mg161 2.114 . S
O172 Mg163 2.291 1_655 S
O172 C174 1.312 . S
O173 Mg158 2.031 . S
O173 C174 1.208 . S
C174 O172 1.312 . S
C174 O173 1.208 . S
C175 O167 1.331 . S
C175 O170 1.244 . S
O176 Mg161 2.013 . S
O176 C165 1.191 . S
O177 C156 1.331 . S
O177 Mg163 2.081 . S
O178 Mg159 1.986 . S
O178 C165 1.307 . S
O179 C157 1.264 . S
O179 Mg163 2.023 . S
O180 C156 1.244 . S
O180 Mg164 1.942 . S
O181 C157 1.273 . S
O181 Mg164 1.955 . S
O182 C155 1.312 . S
O182 Mg158 2.291 . S
O182 Mg161 2.114 . S
O183 C155 1.208 . S
O183 Mg163 2.031 1_655 S
C184 O169 1.264 . S
C184 O171 1.273 . S
C185 O166 1.191 . S
C185 O168 1.307 . S
C186 O213 1.312 . S
C186 O214 1.208 . S
C187 O208 1.331 . S
C187 O211 1.244 . S
C188 O210 1.264 . S
C188 O212 1.273 . S
Mg189 O191 1.936 . S
Mg189 O198 2.081 . S
Mg189 O200 2.023 . S
Mg189 O204 2.031 . S
Mg189 O213 2.291 . S
Mg190 O191 1.963 . S
Mg190 O201 1.942 . S
Mg190 O202 1.955 . S
Mg190 O209 1.986 . S
O191 Mg189 1.936 . S
O191 Mg190 1.963 . S
O191 Mg192 1.915 . S
Mg192 O191 1.915 . S
Mg192 O193 1.915 . S
Mg192 O197 2.013 . S
Mg192 O203 2.114 . S
Mg192 O207 2.013 . S
Mg192 O213 2.114 . S
O193 Mg192 1.915 . S
O193 Mg194 1.936 1_455 S
O193 Mg195 1.963 1_455 S
Mg194 O193 1.936 1_655 S
Mg194 O203 2.291 1_655 S
Mg194 O208 2.081 . S
Mg194 O210 2.023 . S
Mg194 O214 2.031 1_655 S
Mg195 O193 1.963 1_655 S
Mg195 O199 1.986 1_655 S
Mg195 O211 1.942 . S
Mg195 O212 1.955 . S
C196 O207 1.191 . S
C196 O209 1.307 . S
O197 Mg192 2.013 . S
O197 C216 1.191 . S
O198 Mg189 2.081 . S
O198 C206 1.331 . S
O199 Mg195 1.986 1_455 S
O199 C216 1.307 . S
O200 Mg189 2.023 . S
O200 C215 1.264 . S
O201 Mg190 1.942 . S
O201 C206 1.244 . S
O202 Mg190 1.955 . S
O202 C215 1.273 . S
O203 Mg192 2.114 . S
O203 Mg194 2.291 1_455 S
O203 C205 1.312 . S
O204 Mg189 2.031 . S
O204 C205 1.208 . S
C205 O203 1.312 . S
C205 O204 1.208 . S
C206 O198 1.331 . S
C206 O201 1.244 . S
O207 Mg192 2.013 . S
O207 C196 1.191 . S
O208 C187 1.331 . S
O208 Mg194 2.081 . S
O209 Mg190 1.986 . S
O209 C196 1.307 . S
O210 C188 1.264 . S
O210 Mg194 2.023 . S
O211 C187 1.244 . S
O211 Mg195 1.942 . S
O212 C188 1.273 . S
O212 Mg195 1.955 . S
O213 C186 1.312 . S
O213 Mg189 2.291 . S
O213 Mg192 2.114 . S
O214 C186 1.208 . S
O214 Mg194 2.031 1_455 S
C215 O200 1.264 . S
C215 O202 1.273 . S
C216 O197 1.191 . S
C216 O199 1.307 . S
C217 O244 1.312 . S
C217 O245 1.208 . S
C218 O239 1.331 . S
C218 O242 1.244 . S
C219 O241 1.264 . S
C219 O243 1.273 . S
Mg220 O222 1.936 . S
Mg220 O229 2.081 . S
Mg220 O231 2.023 . S
Mg220 O235 2.031 . S
Mg220 O244 2.291 . S
Mg221 O222 1.963 . S
Mg221 O232 1.942 . S
Mg221 O233 1.955 . S
Mg221 O240 1.986 . S
O222 Mg220 1.936 . S
O222 Mg221 1.963 . S
O222 Mg223 1.915 . S
Mg223 O222 1.915 . S
Mg223 O224 1.915 . S
Mg223 O228 2.013 . S
Mg223 O234 2.114 . S
Mg223 O238 2.013 . S
Mg223 O244 2.114 . S
O224 Mg223 1.915 . S
O224 Mg225 1.936 . S
O224 Mg226 1.963 . S
Mg225 O224 1.936 . S
Mg225 O234 2.291 . S
Mg225 O239 2.081 . S
Mg225 O241 2.023 . S
Mg225 O245 2.031 . S
Mg226 O224 1.963 . S
Mg226 O230 1.986 . S
Mg226 O242 1.942 . S
Mg226 O243 1.955 . S
C227 O238 1.191 . S
C227 O240 1.307 . S
O228 Mg223 2.013 . S
O228 C247 1.191 . S
O229 Mg220 2.081 . S
O229 C237 1.331 . S
O230 Mg226 1.986 . S
O230 C247 1.307 . S
O231 Mg220 2.023 . S
O231 C246 1.264 . S
O232 Mg221 1.942 . S
O232 C237 1.244 . S
O233 Mg221 1.955 . S
O233 C246 1.273 . S
O234 Mg223 2.114 . S
O234 Mg225 2.291 . S
O234 C236 1.312 . S
O235 Mg220 2.031 . S
O235 C236 1.208 . S
C236 O234 1.312 . S
C236 O235 1.208 . S
C237 O229 1.331 . S
C237 O232 1.244 . S
O238 Mg223 2.013 . S
O238 C227 1.191 . S
O239 C218 1.331 . S
O239 Mg225 2.081 . S
O240 Mg221 1.986 . S
O240 C227 1.307 . S
O241 C219 1.264 . S
O241 Mg225 2.023 . S
O242 C218 1.244 . S
O242 Mg226 1.942 . S
O243 C219 1.273 . S
O243 Mg226 1.955 . S
O244 C217 1.312 . S
O244 Mg220 2.291 . S
O244 Mg223 2.114 . S
O245 C217 1.208 . S
O245 Mg225 2.031 . S
C246 O231 1.264 . S
C246 O233 1.273 . S
C247 O228 1.191 . S
C247 O230 1.307 . S
C248 C249 1.391 . S
C248 C250 1.394 1_455 S
C248 H264 0.931 . S
C249 C248 1.391 . S
C249 C253 1.376 . S
C250 C248 1.394 1_655 S
C250 C251 1.369 . S
C250 C254 1.531 . S
C251 C250 1.369 . S
C251 C252 1.410 . S
C251 C259 1.503 . S
C252 C251 1.410 . S
C252 C253 1.392 1_655 S
C252 C255 1.511 . S
C253 C249 1.376 . S
C253 C252 1.392 1_455 S
C253 H265 0.929 . S
C254 C250 1.531 . S
C254 H266 0.960 . S
C254 H267 0.962 . S
C254 H268 0.960 . S
C255 C252 1.511 . S
C255 H269 0.961 . S
C255 H270 0.961 . S
C255 H271 0.961 . S
C256 C257 1.370 . S
C256 C258 1.363 . S
C256 H272 0.931 . S
C257 C256 1.370 . S
C257 C261 1.408 . S
C258 C256 1.363 . S
C258 C259 1.370 . S
C258 C262 1.524 . S
C259 C251 1.503 . S
C259 C258 1.370 . S
C259 C260 1.403 . S
C260 C259 1.403 . S
C260 C261 1.404 . S
C260 C263 1.539 . S
C261 C257 1.408 . S
C261 C260 1.404 . S
C261 H273 0.930 . S
C262 C258 1.524 . S
C262 H274 0.956 . S
C262 H275 0.961 . S
C262 H276 0.961 . S
C263 C260 1.539 . S
C263 H277 0.958 . S
C263 H278 0.961 . S
C263 H279 0.960 . S
H264 C248 0.931 . S
H265 C253 0.929 . S
H266 C254 0.960 . S
H267 C254 0.962 . S
H268 C254 0.960 . S
H269 C255 0.961 . S
H270 C255 0.961 . S
H271 C255 0.961 . S
H272 C256 0.931 . S
H273 C261 0.930 . S
H274 C262 0.956 . S
H275 C262 0.961 . S
H276 C262 0.961 . S
H277 C263 0.958 . S
H278 C263 0.961 . S
H279 C263 0.960 . S
C280 C281 1.391 . S
C280 C282 1.394 . S
C280 H296 0.931 . S
C281 C280 1.391 . S
C281 C285 1.376 . S
C282 C280 1.394 . S
C282 C283 1.369 . S
C282 C286 1.531 . S
C283 C282 1.369 . S
C283 C284 1.410 . S
C283 C291 1.503 . S
C284 C283 1.410 . S
C284 C285 1.392 . S
C284 C287 1.511 . S
C285 C281 1.376 . S
C285 C284 1.392 . S
C285 H297 0.929 . S
C286 C282 1.531 . S
C286 H298 0.960 . S
C286 H299 0.962 . S
C286 H300 0.960 . S
C287 C284 1.511 . S
C287 H301 0.961 . S
C287 H302 0.961 . S
C287 H303 0.961 . S
C288 C289 1.370 . S
C288 C290 1.363 . S
C288 H304 0.931 . S
C289 C288 1.370 . S
C289 C293 1.408 . S
C290 C288 1.363 . S
C290 C291 1.370 . S
C290 C294 1.524 . S
C291 C283 1.503 . S
C291 C290 1.370 . S
C291 C292 1.403 . S
C292 C291 1.403 . S
C292 C293 1.404 . S
C292 C295 1.539 . S
C293 C289 1.408 . S
C293 C292 1.404 . S
C293 H305 0.930 . S
C294 C290 1.524 . S
C294 H306 0.956 . S
C294 H307 0.961 . S
C294 H308 0.961 . S
C295 C292 1.539 . S
C295 H309 0.958 . S
C295 H310 0.961 . S
C295 H311 0.960 . S
H296 C280 0.931 . S
H297 C285 0.929 . S
H298 C286 0.960 . S
H299 C286 0.962 . S
H300 C286 0.960 . S
H301 C287 0.961 . S
H302 C287 0.961 . S
H303 C287 0.961 . S
H304 C288 0.931 . S
H305 C293 0.930 . S
H306 C294 0.956 . S
H307 C294 0.961 . S
H308 C294 0.961 . S
H309 C295 0.958 . S
H310 C295 0.961 . S
H311 C295 0.960 . S
C312 C313 1.391 . S
C312 C314 1.394 . S
C312 H328 0.931 . S
C313 C312 1.391 . S
C313 C317 1.376 . S
C314 C312 1.394 . S
C314 C315 1.369 . S
C314 C318 1.531 . S
C315 C314 1.369 . S
C315 C316 1.410 . S
C315 C323 1.503 . S
C316 C315 1.410 . S
C316 C317 1.392 . S
C316 C319 1.511 . S
C317 C313 1.376 . S
C317 C316 1.392 . S
C317 H329 0.929 . S
C318 C314 1.531 . S
C318 H330 0.960 . S
C318 H331 0.962 . S
C318 H332 0.960 . S
C319 C316 1.511 . S
C319 H333 0.961 . S
C319 H334 0.961 . S
C319 H335 0.961 . S
C320 C321 1.370 . S
C320 C322 1.363 . S
C320 H336 0.931 . S
C321 C320 1.370 . S
C321 C325 1.408 . S
C322 C320 1.363 . S
C322 C323 1.370 . S
C322 C326 1.524 . S
C323 C315 1.503 . S
C323 C322 1.370 . S
C323 C324 1.403 . S
C324 C323 1.403 . S
C324 C325 1.404 . S
C324 C327 1.539 . S
C325 C321 1.408 . S
C325 C324 1.404 . S
C325 H337 0.930 . S
C326 C322 1.524 . S
C326 H338 0.956 . S
C326 H339 0.961 . S
C326 H340 0.961 . S
C327 C324 1.539 . S
C327 H341 0.958 . S
C327 H342 0.961 . S
C327 H343 0.960 . S
H328 C312 0.931 . S
H329 C317 0.929 . S
H330 C318 0.960 . S
H331 C318 0.962 . S
H332 C318 0.960 . S
H333 C319 0.961 . S
H334 C319 0.961 . S
H335 C319 0.961 . S
H336 C320 0.931 . S
H337 C325 0.930 . S
H338 C326 0.956 . S
H339 C326 0.961 . S
H340 C326 0.961 . S
H341 C327 0.958 . S
H342 C327 0.961 . S
H343 C327 0.960 . S
C344 C345 1.391 . S
C344 C346 1.394 1_655 S
C344 H360 0.931 . S
C345 C344 1.391 . S
C345 C349 1.376 . S
C346 C344 1.394 1_455 S
C346 C347 1.369 . S
C346 C350 1.531 . S
C347 C346 1.369 . S
C347 C348 1.410 . S
C347 C355 1.503 . S
C348 C347 1.410 . S
C348 C349 1.392 1_455 S
C348 C351 1.511 . S
C349 C345 1.376 . S
C349 C348 1.392 1_655 S
C349 H361 0.929 . S
C350 C346 1.531 . S
C350 H362 0.960 . S
C350 H363 0.962 . S
C350 H364 0.960 . S
C351 C348 1.511 . S
C351 H365 0.961 . S
C351 H366 0.961 . S
C351 H367 0.961 . S
C352 C353 1.370 . S
C352 C354 1.363 . S
C352 H368 0.931 . S
C353 C352 1.370 . S
C353 C357 1.408 . S
C354 C352 1.363 . S
C354 C355 1.370 . S
C354 C358 1.524 . S
C355 C347 1.503 . S
C355 C354 1.370 . S
C355 C356 1.403 . S
C356 C355 1.403 . S
C356 C357 1.404 . S
C356 C359 1.539 . S
C357 C353 1.408 . S
C357 C356 1.404 . S
C357 H369 0.930 . S
C358 C354 1.524 . S
C358 H370 0.956 . S
C358 H371 0.961 . S
C358 H372 0.961 . S
C359 C356 1.539 . S
C359 H373 0.958 . S
C359 H374 0.961 . S
C359 H375 0.960 . S
H360 C344 0.931 . S
H361 C349 0.929 . S
H362 C350 0.960 . S
H363 C350 0.962 . S
H364 C350 0.960 . S
H365 C351 0.961 . S
H366 C351 0.961 . S
H367 C351 0.961 . S
H368 C352 0.931 . S
H369 C357 0.930 . S
H370 C358 0.956 . S
H371 C358 0.961 . S
H372 C358 0.961 . S
H373 C359 0.958 . S
H374 C359 0.961 . S
H375 C359 0.960 . S
C376 C377 1.391 . S
C376 C378 1.394 . S
C376 H392 0.931 . S
C377 C376 1.391 . S
C377 C381 1.376 . S
C378 C376 1.394 . S
C378 C379 1.369 . S
C378 C382 1.531 . S
C379 C378 1.369 . S
C379 C380 1.410 . S
C379 C387 1.503 . S
C380 C379 1.410 . S
C380 C381 1.392 . S
C380 C383 1.511 . S
C381 C377 1.376 . S
C381 C380 1.392 . S
C381 H393 0.929 . S
C382 C378 1.531 . S
C382 H394 0.960 . S
C382 H395 0.962 . S
C382 H396 0.960 . S
C383 C380 1.511 . S
C383 H397 0.961 . S
C383 H398 0.961 . S
C383 H399 0.961 . S
C384 C385 1.370 . S
C384 C386 1.363 1_655 S
C384 H400 0.931 . S
C385 C384 1.370 . S
C385 C389 1.408 . S
C386 C384 1.363 1_455 S
C386 C387 1.370 . S
C386 C390 1.524 . S
C387 C379 1.503 . S
C387 C386 1.370 . S
C387 C388 1.403 . S
C388 C387 1.403 . S
C388 C389 1.404 1_455 S
C388 C391 1.539 . S
C389 C385 1.408 . S
C389 C388 1.404 1_655 S
C389 H401 0.930 . S
C390 C386 1.524 . S
C390 H402 0.956 . S
C390 H403 0.961 . S
C390 H404 0.961 . S
C391 C388 1.539 . S
C391 H405 0.958 . S
C391 H406 0.961 . S
C391 H407 0.960 . S
H392 C376 0.931 . S
H393 C381 0.929 . S
H394 C382 0.960 . S
H395 C382 0.962 . S
H396 C382 0.960 . S
H397 C383 0.961 . S
H398 C383 0.961 . S
H399 C383 0.961 . S
H400 C384 0.931 . S
H401 C389 0.930 . S
H402 C390 0.956 . S
H403 C390 0.961 . S
H404 C390 0.961 . S
H405 C391 0.958 . S
H406 C391 0.961 . S
H407 C391 0.960 . S
C408 C409 1.391 . S
C408 C410 1.394 . S
C408 H424 0.931 . S
C409 C408 1.391 . S
C409 C413 1.376 . S
C410 C408 1.394 . S
C410 C411 1.369 . S
C410 C414 1.531 . S
C411 C410 1.369 . S
C411 C412 1.410 . S
C411 C419 1.503 . S
C412 C411 1.410 . S
C412 C413 1.392 . S
C412 C415 1.511 . S
C413 C409 1.376 . S
C413 C412 1.392 . S
C413 H425 0.929 . S
C414 C410 1.531 . S
C414 H426 0.960 . S
C414 H427 0.962 . S
C414 H428 0.960 . S
C415 C412 1.511 . S
C415 H429 0.961 . S
C415 H430 0.961 . S
C415 H431 0.961 . S
C416 C417 1.370 . S
C416 C418 1.363 . S
C416 H432 0.931 . S
C417 C416 1.370 . S
C417 C421 1.408 . S
C418 C416 1.363 . S
C418 C419 1.370 . S
C418 C422 1.524 . S
C419 C411 1.503 . S
C419 C418 1.370 . S
C419 C420 1.403 . S
C420 C419 1.403 . S
C420 C421 1.404 . S
C420 C423 1.539 . S
C421 C417 1.408 . S
C421 C420 1.404 . S
C421 H433 0.930 . S
C422 C418 1.524 . S
C422 H434 0.956 . S
C422 H435 0.961 . S
C422 H436 0.961 . S
C423 C420 1.539 . S
C423 H437 0.958 . S
C423 H438 0.961 . S
C423 H439 0.960 . S
H424 C408 0.931 . S
H425 C413 0.929 . S
H426 C414 0.960 . S
H427 C414 0.962 . S
H428 C414 0.960 . S
H429 C415 0.961 . S
H430 C415 0.961 . S
H431 C415 0.961 . S
H432 C416 0.931 . S
H433 C421 0.930 . S
H434 C422 0.956 . S
H435 C422 0.961 . S
H436 C422 0.961 . S
H437 C423 0.958 . S
H438 C423 0.961 . S
H439 C423 0.960 . S
C440 C441 1.391 . S
C440 C442 1.394 . S
C440 H456 0.931 . S
C441 C440 1.391 . S
C441 C445 1.376 . S
C442 C440 1.394 . S
C442 C443 1.369 . S
C442 C446 1.531 . S
C443 C442 1.369 . S
C443 C444 1.410 . S
C443 C451 1.503 . S
C444 C443 1.410 . S
C444 C445 1.392 . S
C444 C447 1.511 . S
C445 C441 1.376 . S
C445 C444 1.392 . S
C445 H457 0.929 . S
C446 C442 1.531 . S
C446 H458 0.960 . S
C446 H459 0.962 . S
C446 H460 0.960 . S
C447 C444 1.511 . S
C447 H461 0.961 . S
C447 H462 0.961 . S
C447 H463 0.961 . S
C448 C449 1.370 . S
C448 C450 1.363 . S
C448 H464 0.931 . S
C449 C448 1.370 . S
C449 C453 1.408 . S
C450 C448 1.363 . S
C450 C451 1.370 . S
C450 C454 1.524 . S
C451 C443 1.503 . S
C451 C450 1.370 . S
C451 C452 1.403 . S
C452 C451 1.403 . S
C452 C453 1.404 . S
C452 C455 1.539 . S
C453 C449 1.408 . S
C453 C452 1.404 . S
C453 H465 0.930 . S
C454 C450 1.524 . S
C454 H466 0.956 . S
C454 H467 0.961 . S
C454 H468 0.961 . S
C455 C452 1.539 . S
C455 H469 0.958 . S
C455 H470 0.961 . S
C455 H471 0.960 . S
H456 C440 0.931 . S
H457 C445 0.929 . S
H458 C446 0.960 . S
H459 C446 0.962 . S
H460 C446 0.960 . S
H461 C447 0.961 . S
H462 C447 0.961 . S
H463 C447 0.961 . S
H464 C448 0.931 . S
H465 C453 0.930 . S
H466 C454 0.956 . S
H467 C454 0.961 . S
H468 C454 0.961 . S
H469 C455 0.958 . S
H470 C455 0.961 . S
H471 C455 0.960 . S
C472 C473 1.391 . S
C472 C474 1.394 1_455 S
C472 H488 0.931 . S
C473 C472 1.391 . S
C473 C477 1.376 . S
C474 C472 1.394 1_655 S
C474 C475 1.369 . S
C474 C478 1.531 . S
C475 C474 1.369 . S
C475 C476 1.410 . S
C475 C483 1.503 . S
C476 C475 1.410 . S
C476 C477 1.392 1_655 S
C476 C479 1.511 . S
C477 C473 1.376 . S
C477 C476 1.392 1_455 S
C477 H489 0.929 . S
C478 C474 1.531 . S
C478 H490 0.960 . S
C478 H491 0.962 . S
C478 H492 0.960 . S
C479 C476 1.511 . S
C479 H493 0.961 . S
C479 H494 0.961 . S
C479 H495 0.961 . S
C480 C481 1.370 . S
C480 C482 1.363 . S
C480 H496 0.931 . S
C481 C480 1.370 . S
C481 C485 1.408 . S
C482 C480 1.363 . S
C482 C483 1.370 . S
C482 C486 1.524 . S
C483 C475 1.503 . S
C483 C482 1.370 . S
C483 C484 1.403 . S
C484 C483 1.403 . S
C484 C485 1.404 . S
C484 C487 1.539 . S
C485 C481 1.408 . S
C485 C484 1.404 . S
C485 H497 0.930 . S
C486 C482 1.524 . S
C486 H498 0.956 . S
C486 H499 0.961 . S
C486 H500 0.961 . S
C487 C484 1.539 . S
C487 H501 0.958 . S
C487 H502 0.961 . S
C487 H503 0.960 . S
H488 C472 0.931 . S
H489 C477 0.929 . S
H490 C478 0.960 . S
H491 C478 0.962 . S
H492 C478 0.960 . S
H493 C479 0.961 . S
H494 C479 0.961 . S
H495 C479 0.961 . S
H496 C480 0.931 . S
H497 C485 0.930 . S
H498 C486 0.956 . S
H499 C486 0.961 . S
H500 C486 0.961 . S
H501 C487 0.958 . S
H502 C487 0.961 . S
H503 C487 0.960 . S
C504 C505 1.391 . S
C504 C506 1.394 . S
C504 H520 0.931 . S
C505 C504 1.391 . S
C505 C509 1.376 . S
C506 C504 1.394 . S
C506 C507 1.369 . S
C506 C510 1.531 . S
C507 C506 1.369 . S
C507 C508 1.410 . S
C507 C515 1.503 . S
C508 C507 1.410 . S
C508 C509 1.392 . S
C508 C511 1.511 . S
C509 C505 1.376 . S
C509 C508 1.392 . S
C509 H521 0.929 . S
C510 C506 1.531 . S
C510 H522 0.960 . S
C510 H523 0.962 . S
C510 H524 0.960 . S
C511 C508 1.511 . S
C511 H525 0.961 . S
C511 H526 0.961 . S
C511 H527 0.961 . S
C512 C513 1.370 . S
C512 C514 1.363 . S
C512 H528 0.931 . S
C513 C512 1.370 . S
C513 C517 1.408 . S
C514 C512 1.363 . S
C514 C515 1.370 . S
C514 C518 1.524 . S
C515 C507 1.503 . S
C515 C514 1.370 . S
C515 C516 1.403 . S
C516 C515 1.403 . S
C516 C517 1.404 . S
C516 C519 1.539 . S
C517 C513 1.408 . S
C517 C516 1.404 . S
C517 H529 0.930 . S
C518 C514 1.524 . S
C518 H530 0.956 . S
C518 H531 0.961 . S
C518 H532 0.961 . S
C519 C516 1.539 . S
C519 H533 0.958 . S
C519 H534 0.961 . S
C519 H535 0.960 . S
H520 C504 0.931 . S
H521 C509 0.929 . S
H522 C510 0.960 . S
H523 C510 0.962 . S
H524 C510 0.960 . S
H525 C511 0.961 . S
H526 C511 0.961 . S
H527 C511 0.961 . S
H528 C512 0.931 . S
H529 C517 0.930 . S
H530 C518 0.956 . S
H531 C518 0.961 . S
H532 C518 0.961 . S
H533 C519 0.958 . S
H534 C519 0.961 . S
H535 C519 0.960 . S
C536 C537 1.391 . S
C536 C538 1.394 . S
C536 H552 0.931 . S
C537 C536 1.391 . S
C537 C541 1.376 1_455 S
C538 C536 1.394 . S
C538 C539 1.369 1_455 S
C538 C542 1.531 . S
C539 C538 1.369 1_655 S
C539 C540 1.410 . S
C539 C547 1.503 . S
C540 C539 1.410 . S
C540 C541 1.392 . S
C540 C543 1.511 . S
C541 C537 1.376 1_655 S
C541 C540 1.392 . S
C541 H553 0.929 . S
C542 C538 1.531 . S
C542 H554 0.960 . S
C542 H555 0.962 . S
C542 H556 0.960 . S
C543 C540 1.511 . S
C543 H557 0.961 . S
C543 H558 0.961 . S
C543 H559 0.961 . S
C544 C545 1.370 1_455 S
C544 C546 1.363 . S
C544 H560 0.931 . S
C545 C544 1.370 1_655 S
C545 C549 1.408 . S
C546 C544 1.363 . S
C546 C547 1.370 1_455 S
C546 C550 1.524 . S
C547 C539 1.503 . S
C547 C546 1.370 1_655 S
C547 C548 1.403 . S
C548 C547 1.403 . S
C548 C549 1.404 . S
C548 C551 1.539 . S
C549 C545 1.408 . S
C549 C548 1.404 . S
C549 H561 0.930 . S
C550 C546 1.524 . S
C550 H562 0.956 . S
C550 H563 0.961 . S
C550 H564 0.961 . S
C551 C548 1.539 . S
C551 H565 0.958 . S
C551 H566 0.961 . S
C551 H567 0.960 . S
H552 C536 0.931 . S
H553 C541 0.929 . S
H554 C542 0.960 . S
H555 C542 0.962 . S
H556 C542 0.960 . S
H557 C543 0.961 . S
H558 C543 0.961 . S
H559 C543 0.961 . S
H560 C544 0.931 . S
H561 C549 0.930 . S
H562 C550 0.956 . S
H563 C550 0.961 . S
H564 C550 0.961 . S
H565 C551 0.958 . S
H566 C551 0.961 . S
H567 C551 0.960 . S
C568 C569 1.391 . S
C568 C570 1.394 . S
C568 H584 0.931 . S
C569 C568 1.391 . S
C569 C573 1.376 . S
C570 C568 1.394 . S
C570 C571 1.369 . S
C570 C574 1.531 . S
C571 C570 1.369 . S
C571 C572 1.410 . S
C571 C579 1.503 . S
C572 C571 1.410 . S
C572 C573 1.392 . S
C572 C575 1.511 . S
C573 C569 1.376 . S
C573 C572 1.392 . S
C573 H585 0.929 . S
C574 C570 1.531 . S
C574 H586 0.960 . S
C574 H587 0.962 . S
C574 H588 0.960 . S
C575 C572 1.511 . S
C575 H589 0.961 . S
C575 H590 0.961 . S
C575 H591 0.961 . S
C576 C577 1.370 . S
C576 C578 1.363 . S
C576 H592 0.931 . S
C577 C576 1.370 . S
C577 C581 1.408 . S
C578 C576 1.363 . S
C578 C579 1.370 . S
C578 C582 1.524 . S
C579 C571 1.503 . S
C579 C578 1.370 . S
C579 C580 1.403 . S
C580 C579 1.403 . S
C580 C581 1.404 . S
C580 C583 1.539 . S
C581 C577 1.408 . S
C581 C580 1.404 . S
C581 H593 0.930 . S
C582 C578 1.524 . S
C582 H594 0.956 . S
C582 H595 0.961 . S
C582 H596 0.961 . S
C583 C580 1.539 . S
C583 H597 0.958 . S
C583 H598 0.961 . S
C583 H599 0.960 . S
H584 C568 0.931 . S
H585 C573 0.929 . S
H586 C574 0.960 . S
H587 C574 0.962 . S
H588 C574 0.960 . S
H589 C575 0.961 . S
H590 C575 0.961 . S
H591 C575 0.961 . S
H592 C576 0.931 . S
H593 C581 0.930 . S
H594 C582 0.956 . S
H595 C582 0.961 . S
H596 C582 0.961 . S
H597 C583 0.958 . S
H598 C583 0.961 . S
H599 C583 0.960 . S
C600 C601 1.391 1_455 S
C600 C602 1.394 . S
C600 H616 0.931 . S
C601 C600 1.391 1_655 S
C601 C605 1.376 . S
C602 C600 1.394 . S
C602 C603 1.369 1_455 S
C602 C606 1.531 . S
C603 C602 1.369 1_655 S
C603 C604 1.410 . S
C603 C611 1.503 . S
C604 C603 1.410 . S
C604 C605 1.392 . S
C604 C607 1.511 . S
C605 C601 1.376 . S
C605 C604 1.392 . S
C605 H617 0.929 . S
C606 C602 1.531 . S
C606 H618 0.960 . S
C606 H619 0.962 . S
C606 H620 0.960 . S
C607 C604 1.511 . S
C607 H621 0.961 . S
C607 H622 0.961 . S
C607 H623 0.961 . S
C608 C609 1.370 . S
C608 C610 1.363 . S
C608 H624 0.931 . S
C609 C608 1.370 . S
C609 C613 1.408 1_455 S
C610 C608 1.363 . S
C610 C611 1.370 1_455 S
C610 C614 1.524 . S
C611 C603 1.503 . S
C611 C610 1.370 1_655 S
C611 C612 1.403 . S
C612 C611 1.403 . S
C612 C613 1.404 . S
C612 C615 1.539 . S
C613 C609 1.408 1_655 S
C613 C612 1.404 . S
C613 H625 0.930 . S
C614 C610 1.524 . S
C614 H626 0.956 . S
C614 H627 0.961 . S
C614 H628 0.961 . S
C615 C612 1.539 . S
C615 H629 0.958 . S
C615 H630 0.961 . S
C615 H631 0.960 . S
H616 C600 0.931 . S
H617 C605 0.929 . S
H618 C606 0.960 . S
H619 C606 0.962 . S
H620 C606 0.960 . S
H621 C607 0.961 . S
H622 C607 0.961 . S
H623 C607 0.961 . S
H624 C608 0.931 . S
H625 C613 0.930 . S
H626 C614 0.956 . S
H627 C614 0.961 . S
H628 C614 0.961 . S
H629 C615 0.958 . S
H630 C615 0.961 . S
H631 C615 0.960 . S
C632 C633 1.391 . S
C632 C634 1.394 . S
C632 H648 0.931 . S
C633 C632 1.391 . S
C633 C637 1.376 . S
C634 C632 1.394 . S
C634 C635 1.369 . S
C634 C638 1.531 . S
C635 C634 1.369 . S
C635 C636 1.410 . S
C635 C643 1.503 . S
C636 C635 1.410 . S
C636 C637 1.392 . S
C636 C639 1.511 . S
C637 C633 1.376 . S
C637 C636 1.392 . S
C637 H649 0.929 . S
C638 C634 1.531 . S
C638 H650 0.960 . S
C638 H651 0.962 . S
C638 H652 0.960 . S
C639 C636 1.511 . S
C639 H653 0.961 . S
C639 H654 0.961 . S
C639 H655 0.961 . S
C640 C641 1.370 . S
C640 C642 1.363 . S
C640 H656 0.931 . S
C641 C640 1.370 . S
C641 C645 1.408 . S
C642 C640 1.363 . S
C642 C643 1.370 . S
C642 C646 1.524 . S
C643 C635 1.503 . S
C643 C642 1.370 . S
C643 C644 1.403 . S
C644 C643 1.403 . S
C644 C645 1.404 . S
C644 C647 1.539 . S
C645 C641 1.408 . S
C645 C644 1.404 . S
C645 H657 0.930 . S
C646 C642 1.524 . S
C646 H658 0.956 . S
C646 H659 0.961 . S
C646 H660 0.961 . S
C647 C644 1.539 . S
C647 H661 0.958 . S
C647 H662 0.961 . S
C647 H663 0.960 . S
H648 C632 0.931 . S
H649 C637 0.929 . S
H650 C638 0.960 . S
H651 C638 0.962 . S
H652 C638 0.960 . S
H653 C639 0.961 . S
H654 C639 0.961 . S
H655 C639 0.961 . S
H656 C640 0.931 . S
H657 C645 0.930 . S
H658 C646 0.956 . S
H659 C646 0.961 . S
H660 C646 0.961 . S
H661 C647 0.958 . S
H662 C647 0.961 . S
H663 C647 0.960 . S
C664 C665 1.391 . S
C664 C666 1.394 . S
C664 H680 0.931 . S
C665 C664 1.391 . S
C665 C669 1.376 . S
C666 C664 1.394 . S
C666 C667 1.369 . S
C666 C670 1.531 . S
C667 C666 1.369 . S
C667 C668 1.410 . S
C667 C675 1.503 1_554 S
C668 C667 1.410 . S
C668 C669 1.392 . S
C668 C671 1.511 1_554 S
C669 C665 1.376 . S
C669 C668 1.392 . S
C669 H681 0.929 . S
C670 C666 1.531 . S
C670 H682 0.960 . S
C670 H683 0.962 . S
C670 H684 0.960 . S
C671 C668 1.511 1_556 S
C671 H685 0.961 . S
C671 H686 0.961 . S
C671 H687 0.961 . S
C672 C673 1.370 . S
C672 C674 1.363 . S
C672 H688 0.931 . S
C673 C672 1.370 . S
C673 C677 1.408 . S
C674 C672 1.363 . S
C674 C675 1.370 . S
C674 C678 1.524 . S
C675 C667 1.503 1_556 S
C675 C674 1.370 . S
C675 C676 1.403 . S
C676 C675 1.403 . S
C676 C677 1.404 . S
C676 C679 1.539 1_556 S
C677 C673 1.408 . S
C677 C676 1.404 . S
C677 H689 0.930 . S
C678 C674 1.524 . S
C678 H690 0.956 . S
C678 H691 0.961 . S
C678 H692 0.961 . S
C679 C676 1.539 1_554 S
C679 H693 0.958 . S
C679 H694 0.961 . S
C679 H695 0.960 . S
H680 C664 0.931 . S
H681 C669 0.929 . S
H682 C670 0.960 . S
H683 C670 0.962 . S
H684 C670 0.960 . S
H685 C671 0.961 . S
H686 C671 0.961 . S
H687 C671 0.961 . S
H688 C672 0.931 . S
H689 C677 0.930 . S
H690 C678 0.956 . S
H691 C678 0.961 . S
H692 C678 0.961 . S
H693 C679 0.958 . S
H694 C679 0.961 . S
H695 C679 0.960 . S
C696 C697 1.391 . S
C696 C698 1.394 . S
C696 H712 0.931 . S
C697 C696 1.391 . S
C697 C701 1.376 . S
C698 C696 1.394 . S
C698 C699 1.369 . S
C698 C702 1.531 . S
C699 C698 1.369 . S
C699 C700 1.410 . S
C699 C707 1.503 . S
C700 C699 1.410 . S
C700 C701 1.392 . S
C700 C703 1.511 . S
C701 C697 1.376 . S
C701 C700 1.392 . S
C701 H713 0.929 . S
C702 C698 1.531 . S
C702 H714 0.960 . S
C702 H715 0.962 . S
C702 H716 0.960 . S
C703 C700 1.511 . S
C703 H717 0.961 . S
C703 H718 0.961 . S
C703 H719 0.961 . S
C704 C705 1.370 . S
C704 C706 1.363 . S
C704 H720 0.931 . S
C705 C704 1.370 . S
C705 C709 1.408 . S
C706 C704 1.363 . S
C706 C707 1.370 . S
C706 C710 1.524 . S
C707 C699 1.503 . S
C707 C706 1.370 . S
C707 C708 1.403 . S
C708 C707 1.403 . S
C708 C709 1.404 . S
C708 C711 1.539 . S
C709 C705 1.408 . S
C709 C708 1.404 . S
C709 H721 0.930 . S
C710 C706 1.524 . S
C710 H722 0.956 . S
C710 H723 0.961 . S
C710 H724 0.961 . S
C711 C708 1.539 . S
C711 H725 0.958 . S
C711 H726 0.961 . S
C711 H727 0.960 . S
H712 C696 0.931 . S
H713 C701 0.929 . S
H714 C702 0.960 . S
H715 C702 0.962 . S
H716 C702 0.960 . S
H717 C703 0.961 . S
H718 C703 0.961 . S
H719 C703 0.961 . S
H720 C704 0.931 . S
H721 C709 0.930 . S
H722 C710 0.956 . S
H723 C710 0.961 . S
H724 C710 0.961 . S
H725 C711 0.958 . S
H726 C711 0.961 . S
H727 C711 0.960 . S
C728 C729 1.391 . S
C728 C730 1.394 . S
C728 H744 0.931 . S
C729 C728 1.391 . S
C729 C733 1.376 . S
C730 C728 1.394 . S
C730 C731 1.369 . S
C730 C734 1.531 . S
C731 C730 1.369 . S
C731 C732 1.410 . S
C731 C739 1.513 . S
C732 C731 1.410 . S
C732 C733 1.392 . S
C732 C735 1.511 . S
C733 C729 1.376 . S
C733 C732 1.392 . S
C733 H745 0.929 . S
C734 C730 1.531 . S
C734 H746 0.960 . S
C734 H747 0.962 . S
C734 H748 0.960 . S
C735 C732 1.511 . S
C735 H749 0.961 . S
C735 H750 0.961 1_554 S
C735 H751 0.961 . S
C736 C737 1.370 . S
C736 C738 1.363 . S
C736 H752 0.931 . S
C737 C736 1.370 . S
C737 C741 1.408 . S
C738 C736 1.363 . S
C738 C739 1.357 1_556 S
C738 C742 1.524 . S
C739 C731 1.513 . S
C739 C738 1.357 1_554 S
C739 C740 1.407 . S
C740 C739 1.407 . S
C740 C741 1.404 1_554 S
C740 C743 1.539 . S
C741 C737 1.408 . S
C741 C740 1.404 1_556 S
C741 H753 0.930 . S
C742 C738 1.524 . S
C742 H754 0.956 . S
C742 H755 0.961 . S
C742 H756 0.961 . S
C743 C740 1.539 . S
C743 H757 0.958 . S
C743 H758 0.961 . S
C743 H759 0.960 . S
H744 C728 0.931 . S
H745 C733 0.929 . S
H746 C734 0.960 . S
H747 C734 0.962 . S
H748 C734 0.960 . S
H749 C735 0.961 . S
H750 C735 0.961 1_556 S
H751 C735 0.961 . S
H752 C736 0.931 . S
H753 C741 0.930 . S
H754 C742 0.956 . S
H755 C742 0.961 . S
H756 C742 0.961 . S
H757 C743 0.958 . S
H758 C743 0.961 . S
H759 C743 0.960 . S
C760 C761 1.391 . S
C760 C762 1.394 . S
C760 H776 0.931 . S
C761 C760 1.391 . S
C761 C765 1.376 . S
C762 C760 1.394 . S
C762 C763 1.369 . S
C762 C766 1.531 . S
C763 C762 1.369 . S
C763 C764 1.410 . S
C763 C771 1.503 . S
C764 C763 1.410 . S
C764 C765 1.392 . S
C764 C767 1.511 . S
C765 C761 1.376 . S
C765 C764 1.392 . S
C765 H777 0.929 . S
C766 C762 1.531 . S
C766 H778 0.960 . S
C766 H779 0.962 . S
C766 H780 0.960 . S
C767 C764 1.511 . S
C767 H781 0.961 . S
C767 H782 0.961 . S
C767 H783 0.961 . S
C768 C769 1.370 . S
C768 C770 1.363 . S
C768 H784 0.931 . S
C769 C768 1.370 . S
C769 C773 1.408 . S
C770 C768 1.363 . S
C770 C771 1.370 . S
C770 C774 1.524 . S
C771 C763 1.503 . S
C771 C770 1.370 . S
C771 C772 1.403 . S
C772 C771 1.403 . S
C772 C773 1.404 . S
C772 C775 1.539 . S
C773 C769 1.408 . S
C773 C772 1.404 . S
C773 H785 0.930 . S
C774 C770 1.524 . S
C774 H786 0.956 . S
C774 H787 0.961 . S
C774 H788 0.961 . S
C775 C772 1.539 . S
C775 H789 0.958 . S
C775 H790 0.961 . S
C775 H791 0.960 . S
H776 C760 0.931 . S
H777 C765 0.929 . S
H778 C766 0.960 . S
H779 C766 0.962 . S
H780 C766 0.960 . S
H781 C767 0.961 . S
H782 C767 0.961 . S
H783 C767 0.961 . S
H784 C768 0.931 . S
H785 C773 0.930 . S
H786 C774 0.956 . S
H787 C774 0.961 . S
H788 C774 0.961 . S
H789 C775 0.958 . S
H790 C775 0.961 . S
H791 C775 0.960 . S
C792 C793 1.391 . S
C792 C794 1.394 . S
C792 H808 0.931 . S
C793 C792 1.391 . S
C793 C797 1.376 . S
C794 C792 1.394 . S
C794 C795 1.369 . S
C794 C798 1.531 . S
C795 C794 1.369 . S
C795 C796 1.410 . S
C795 C803 1.503 1_554 S
C796 C795 1.410 . S
C796 C797 1.392 . S
C796 C799 1.511 1_554 S
C797 C793 1.376 . S
C797 C796 1.392 . S
C797 H809 0.929 1_455 S
C798 C794 1.531 . S
C798 H810 0.960 . S
C798 H811 0.962 . S
C798 H812 0.960 . S
C799 C796 1.511 1_556 S
C799 H813 0.961 . S
C799 H814 0.961 . S
C799 H815 0.961 . S
C800 C801 1.370 . S
C800 C802 1.363 . S
C800 H816 0.931 . S
C801 C800 1.370 . S
C801 C805 1.408 . S
C802 C800 1.363 . S
C802 C803 1.370 . S
C802 C806 1.524 . S
C803 C795 1.503 1_556 S
C803 C802 1.370 . S
C803 C804 1.403 . S
C804 C803 1.403 . S
C804 C805 1.404 . S
C804 C807 1.539 . S
C805 C801 1.408 . S
C805 C804 1.404 . S
C805 H817 0.930 . S
C806 C802 1.524 . S
C806 H818 0.956 1_556 S
C806 H819 0.961 . S
C806 H820 0.961 . S
C807 C804 1.539 . S
C807 H821 0.958 1_556 S
C807 H822 0.961 . S
C807 H823 0.960 1_556 S
H808 C792 0.931 . S
H809 C797 0.929 1_655 S
H810 C798 0.960 . S
H811 C798 0.962 . S
H812 C798 0.960 . S
H813 C799 0.961 . S
H814 C799 0.961 . S
H815 C799 0.961 . S
H816 C800 0.931 . S
H817 C805 0.930 . S
H818 C806 0.956 1_554 S
H819 C806 0.961 . S
H820 C806 0.961 . S
H821 C807 0.958 1_554 S
H822 C807 0.961 . S
H823 C807 0.960 1_554 S
C824 C825 1.391 . S
C824 C826 1.394 . S
C824 H840 0.931 . S
C825 C824 1.391 . S
C825 C829 1.376 . S
C826 C824 1.394 . S
C826 C827 1.369 . S
C826 C830 1.531 . S
C827 C826 1.369 . S
C827 C828 1.410 . S
C827 C835 1.503 . S
C828 C827 1.410 . S
C828 C829 1.392 . S
C828 C831 1.511 . S
C829 C825 1.376 . S
C829 C828 1.392 . S
C829 H841 0.929 . S
C830 C826 1.531 . S
C830 H842 0.960 . S
C830 H843 0.962 . S
C830 H844 0.960 . S
C831 C828 1.511 . S
C831 H845 0.961 . S
C831 H846 0.961 . S
C831 H847 0.961 . S
C832 C833 1.370 . S
C832 C834 1.363 . S
C832 H848 0.931 . S
C833 C832 1.370 . S
C833 C837 1.408 . S
C834 C832 1.363 . S
C834 C835 1.370 . S
C834 C838 1.524 . S
C835 C827 1.503 . S
C835 C834 1.370 . S
C835 C836 1.403 . S
C836 C835 1.403 . S
C836 C837 1.404 . S
C836 C839 1.539 . S
C837 C833 1.408 . S
C837 C836 1.404 . S
C837 H849 0.930 . S
C838 C834 1.524 . S
C838 H850 0.956 . S
C838 H851 0.961 . S
C838 H852 0.961 . S
C839 C836 1.539 . S
C839 H853 0.958 . S
C839 H854 0.961 . S
C839 H855 0.960 . S
H840 C824 0.931 . S
H841 C829 0.929 . S
H842 C830 0.960 . S
H843 C830 0.962 . S
H844 C830 0.960 . S
H845 C831 0.961 . S
H846 C831 0.961 . S
H847 C831 0.961 . S
H848 C832 0.931 . S
H849 C837 0.930 . S
H850 C838 0.956 . S
H851 C838 0.961 . S
H852 C838 0.961 . S
H853 C839 0.958 . S
H854 C839 0.961 . S
H855 C839 0.960 . S
C856 C857 1.391 . S
C856 C858 1.394 . S
C856 H872 0.931 . S
C857 C856 1.391 . S
C857 C861 1.376 . S
C858 C856 1.394 . S
C858 C859 1.369 . S
C858 C862 1.531 1_556 S
C859 C858 1.369 . S
C859 C860 1.410 . S
C859 C867 1.503 1_556 S
C860 C859 1.410 . S
C860 C861 1.392 . S
C860 C863 1.511 . S
C861 C857 1.376 . S
C861 C860 1.392 . S
C861 H873 0.929 . S
C862 C858 1.531 1_554 S
C862 H874 0.960 . S
C862 H875 0.962 . S
C862 H876 0.960 . S
C863 C860 1.511 . S
C863 H877 0.961 . S
C863 H878 0.961 . S
C863 H879 0.961 . S
C864 C865 1.370 . S
C864 C866 1.363 1_554 S
C864 H880 0.931 . S
C865 C864 1.370 . S
C865 C869 1.408 . S
C866 C864 1.363 1_556 S
C866 C867 1.370 1_556 S
C866 C870 1.524 . S
C867 C859 1.503 1_554 S
C867 C866 1.370 1_554 S
C867 C868 1.403 . S
C868 C867 1.403 . S
C868 C869 1.404 . S
C868 C871 1.539 . S
C869 C865 1.408 . S
C869 C868 1.404 . S
C869 H881 0.930 . S
C870 C866 1.524 . S
C870 H882 0.956 . S
C870 H883 0.961 . S
C870 H884 0.961 . S
C871 C868 1.539 . S
C871 H885 0.958 . S
C871 H886 0.961 . S
C871 H887 0.960 . S
H872 C856 0.931 . S
H873 C861 0.929 . S
H874 C862 0.960 . S
H875 C862 0.962 . S
H876 C862 0.960 . S
H877 C863 0.961 . S
H878 C863 0.961 . S
H879 C863 0.961 . S
H880 C864 0.931 . S
H881 C869 0.930 . S
H882 C870 0.956 . S
H883 C870 0.961 . S
H884 C870 0.961 . S
H885 C871 0.958 . S
H886 C871 0.961 . S
H887 C871 0.960 . S
C888 C889 1.391 . S
C888 C890 1.394 . S
C888 H904 0.931 . S
C889 C888 1.391 . S
C889 C893 1.376 . S
C890 C888 1.394 . S
C890 C891 1.369 . S
C890 C894 1.531 . S
C891 C890 1.369 . S
C891 C892 1.410 . S
C891 C899 1.503 . S
C892 C891 1.410 . S
C892 C893 1.392 . S
C892 C895 1.511 . S
C893 C889 1.376 . S
C893 C892 1.392 . S
C893 H905 0.929 . S
C894 C890 1.531 . S
C894 H906 0.960 . S
C894 H907 0.962 . S
C894 H908 0.960 . S
C895 C892 1.511 . S
C895 H909 0.961 . S
C895 H910 0.961 . S
C895 H911 0.961 . S
C896 C897 1.370 . S
C896 C898 1.363 . S
C896 H912 0.931 . S
C897 C896 1.370 . S
C897 C901 1.408 . S
C898 C896 1.363 . S
C898 C899 1.370 . S
C898 C902 1.524 . S
C899 C891 1.503 . S
C899 C898 1.370 . S
C899 C900 1.403 . S
C900 C899 1.403 . S
C900 C901 1.404 . S
C900 C903 1.539 . S
C901 C897 1.408 . S
C901 C900 1.404 . S
C901 H913 0.930 . S
C902 C898 1.524 . S
C902 H914 0.956 . S
C902 H915 0.961 . S
C902 H916 0.961 . S
C903 C900 1.539 . S
C903 H917 0.958 . S
C903 H918 0.961 . S
C903 H919 0.960 . S
H904 C888 0.931 . S
H905 C893 0.929 . S
H906 C894 0.960 . S
H907 C894 0.962 . S
H908 C894 0.960 . S
H909 C895 0.961 . S
H910 C895 0.961 . S
H911 C895 0.961 . S
H912 C896 0.931 . S
H913 C901 0.930 . S
H914 C902 0.956 . S
H915 C902 0.961 . S
H916 C902 0.961 . S
H917 C903 0.958 . S
H918 C903 0.961 . S
H919 C903 0.960 . S
C920 C921 1.391 . S
C920 C922 1.394 . S
C920 H936 0.931 . S
C921 C920 1.391 . S
C921 C925 1.376 . S
C922 C920 1.394 . S
C922 C923 1.369 . S
C922 C926 1.531 . S
C923 C922 1.369 . S
C923 C924 1.410 . S
C923 C931 1.503 . S
C924 C923 1.410 . S
C924 C925 1.392 . S
C924 C927 1.511 . S
C925 C921 1.376 . S
C925 C924 1.392 . S
C925 H937 0.929 . S
C926 C922 1.531 . S
C926 H938 0.960 . S
C926 H939 0.962 . S
C926 H940 0.960 . S
C927 C924 1.511 . S
C927 H941 0.961 . S
C927 H942 0.961 . S
C927 H943 0.961 . S
C928 C929 1.370 . S
C928 C930 1.363 . S
C928 H944 0.931 . S
C929 C928 1.370 . S
C929 C933 1.408 . S
C930 C928 1.363 . S
C930 C931 1.370 . S
C930 C934 1.524 . S
C931 C923 1.503 . S
C931 C930 1.370 . S
C931 C932 1.403 . S
C932 C931 1.403 . S
C932 C933 1.404 . S
C932 C935 1.539 . S
C933 C929 1.408 . S
C933 C932 1.404 . S
C933 H945 0.930 . S
C934 C930 1.524 . S
C934 H946 0.956 . S
C934 H947 0.961 . S
C934 H948 0.961 . S
C935 C932 1.539 . S
C935 H949 0.958 . S
C935 H950 0.961 . S
C935 H951 0.960 . S
H936 C920 0.931 . S
H937 C925 0.929 . S
H938 C926 0.960 . S
H939 C926 0.962 . S
H940 C926 0.960 . S
H941 C927 0.961 . S
H942 C927 0.961 . S
H943 C927 0.961 . S
H944 C928 0.931 . S
H945 C933 0.930 . S
H946 C934 0.956 . S
H947 C934 0.961 . S
H948 C934 0.961 . S
H949 C935 0.958 . S
H950 C935 0.961 . S
H951 C935 0.960 . S
C952 C953 1.391 . S
C952 C954 1.394 . S
C952 H968 0.931 . S
C953 C952 1.391 . S
C953 C957 1.376 . S
C954 C952 1.394 . S
C954 C955 1.369 . S
C954 C958 1.531 . S
C955 C954 1.369 . S
C955 C956 1.410 . S
C955 C963 1.503 . S
C956 C955 1.410 . S
C956 C957 1.392 . S
C956 C959 1.511 . S
C957 C953 1.376 . S
C957 C956 1.392 . S
C957 H969 0.929 . S
C958 C954 1.531 . S
C958 H970 0.960 . S
C958 H971 0.962 . S
C958 H972 0.960 . S
C959 C956 1.511 . S
C959 H973 0.961 . S
C959 H974 0.961 . S
C959 H975 0.961 . S
C960 C961 1.370 . S
C960 C962 1.363 . S
C960 H976 0.931 . S
C961 C960 1.370 . S
C961 C965 1.408 . S
C962 C960 1.363 . S
C962 C963 1.370 . S
C962 C966 1.524 . S
C963 C955 1.503 . S
C963 C962 1.370 . S
C963 C964 1.403 . S
C964 C963 1.403 . S
C964 C965 1.404 . S
C964 C967 1.539 . S
C965 C961 1.408 . S
C965 C964 1.404 . S
C965 H977 0.930 . S
C966 C962 1.524 . S
C966 H978 0.956 . S
C966 H979 0.961 . S
C966 H980 0.961 . S
C967 C964 1.539 . S
C967 H981 0.958 . S
C967 H982 0.961 . S
C967 H983 0.960 . S
H968 C952 0.931 . S
H969 C957 0.929 . S
H970 C958 0.960 . S
H971 C958 0.962 . S
H972 C958 0.960 . S
H973 C959 0.961 . S
H974 C959 0.961 . S
H975 C959 0.961 . S
H976 C960 0.931 . S
H977 C965 0.930 . S
H978 C966 0.956 . S
H979 C966 0.961 . S
H980 C966 0.961 . S
H981 C967 0.958 . S
H982 C967 0.961 . S
H983 C967 0.960 . S
C984 C985 1.391 . S
C984 C986 1.394 . S
C984 H1000 0.931 . S
C985 C984 1.391 . S
C985 C989 1.376 . S
C986 C984 1.394 . S
C986 C987 1.369 . S
C986 C990 1.531 . S
C987 C986 1.369 . S
C987 C988 1.410 . S
C987 C995 1.503 . S
C988 C987 1.410 . S
C988 C989 1.392 . S
C988 C991 1.511 . S
C989 C985 1.376 . S
C989 C988 1.392 . S
C989 H1001 0.929 . S
C990 C986 1.531 . S
C990 H1002 0.960 . S
C990 H1003 0.962 . S
C990 H1004 0.960 . S
C991 C988 1.511 . S
C991 H1005 0.961 . S
C991 H1006 0.961 . S
C991 H1007 0.961 . S
C992 C993 1.370 . S
C992 C994 1.363 . S
C992 H1008 0.931 . S
C993 C992 1.370 . S
C993 C997 1.408 . S
C994 C992 1.363 . S
C994 C995 1.370 . S
C994 C998 1.524 . S
C995 C987 1.503 . S
C995 C994 1.370 . S
C995 C996 1.403 . S
C996 C995 1.403 . S
C996 C997 1.404 . S
C996 C999 1.539 . S
C997 C993 1.408 . S
C997 C996 1.404 . S
C997 H1009 0.930 . S
C998 C994 1.524 . S
C998 H1010 0.956 . S
C998 H1011 0.961 . S
C998 H1012 0.961 . S
C999 C996 1.539 . S
C999 H1013 0.958 . S
C999 H1014 0.961 . S
C999 H1015 0.960 . S
H1000 C984 0.931 . S
H1001 C989 0.929 . S
H1002 C990 0.960 . S
H1003 C990 0.962 . S
H1004 C990 0.960 . S
H1005 C991 0.961 . S
H1006 C991 0.961 . S
H1007 C991 0.961 . S
H1008 C992 0.931 . S
H1009 C997 0.930 . S
H1010 C998 0.956 . S
H1011 C998 0.961 . S
H1012 C998 0.961 . S
H1013 C999 0.958 . S
H1014 C999 0.961 . S
H1015 C999 0.960 . S
C1016 C1017 1.391 . S
C1016 C1018 1.394 . S
C1016 H1032 0.931 . S
C1017 C1016 1.391 . S
C1017 C1021 1.376 . S
C1018 C1016 1.394 . S
C1018 C1019 1.369 . S
C1018 C1022 1.531 . S
C1019 C1018 1.369 . S
C1019 C1020 1.410 . S
C1019 C1027 1.503 . S
C1020 C1019 1.410 . S
C1020 C1021 1.392 . S
C1020 C1023 1.511 . S
C1021 C1017 1.376 . S
C1021 C1020 1.392 . S
C1021 H1033 0.929 . S
C1022 C1018 1.531 . S
C1022 H1034 0.960 . S
C1022 H1035 0.962 . S
C1022 H1036 0.960 . S
C1023 C1020 1.511 . S
C1023 H1037 0.961 . S
C1023 H1038 0.961 . S
C1023 H1039 0.961 . S
C1024 C1025 1.370 . S
C1024 C1026 1.363 . S
C1024 H1040 0.931 . S
C1025 C1024 1.370 . S
C1025 C1029 1.408 . S
C1026 C1024 1.363 . S
C1026 C1027 1.370 . S
C1026 C1030 1.524 . S
C1027 C1019 1.503 . S
C1027 C1026 1.370 . S
C1027 C1028 1.403 . S
C1028 C1027 1.403 . S
C1028 C1029 1.404 . S
C1028 C1031 1.539 . S
C1029 C1025 1.408 . S
C1029 C1028 1.404 . S
C1029 H1041 0.930 . S
C1030 C1026 1.524 . S
C1030 H1042 0.956 . S
C1030 H1043 0.961 . S
C1030 H1044 0.961 . S
C1031 C1028 1.539 . S
C1031 H1045 0.958 . S
C1031 H1046 0.961 . S
C1031 H1047 0.960 . S
H1032 C1016 0.931 . S
H1033 C1021 0.929 . S
H1034 C1022 0.960 . S
H1035 C1022 0.962 . S
H1036 C1022 0.960 . S
H1037 C1023 0.961 . S
H1038 C1023 0.961 . S
H1039 C1023 0.961 . S
H1040 C1024 0.931 . S
H1041 C1029 0.930 . S
H1042 C1030 0.956 . S
H1043 C1030 0.961 . S
H1044 C1030 0.961 . S
H1045 C1031 0.958 . S
H1046 C1031 0.961 . S
H1047 C1031 0.960 . S
C1048 C1049 1.391 . S
C1048 C1050 1.394 . S
C1048 H1064 0.931 . S
C1049 C1048 1.391 . S
C1049 C1053 1.376 . S
C1050 C1048 1.394 . S
C1050 C1051 1.369 . S
C1050 C1054 1.531 . S
C1051 C1050 1.369 . S
C1051 C1052 1.410 . S
C1051 C1059 1.503 . S
C1052 C1051 1.410 . S
C1052 C1053 1.392 . S
C1052 C1055 1.511 . S
C1053 C1049 1.376 . S
C1053 C1052 1.392 . S
C1053 H1065 0.929 . S
C1054 C1050 1.531 . S
C1054 H1066 0.960 . S
C1054 H1067 0.962 . S
C1054 H1068 0.960 . S
C1055 C1052 1.511 . S
C1055 H1069 0.961 . S
C1055 H1070 0.961 . S
C1055 H1071 0.961 . S
C1056 C1057 1.370 . S
C1056 C1058 1.363 . S
C1056 H1072 0.931 . S
C1057 C1056 1.370 . S
C1057 C1061 1.408 . S
C1058 C1056 1.363 . S
C1058 C1059 1.370 . S
C1058 C1062 1.524 . S
C1059 C1051 1.503 . S
C1059 C1058 1.370 . S
C1059 C1060 1.403 . S
C1060 C1059 1.403 . S
C1060 C1061 1.404 . S
C1060 C1063 1.539 . S
C1061 C1057 1.408 . S
C1061 C1060 1.404 . S
C1061 H1073 0.930 . S
C1062 C1058 1.524 . S
C1062 H1074 0.956 . S
C1062 H1075 0.961 . S
C1062 H1076 0.961 . S
C1063 C1060 1.539 . S
C1063 H1077 0.958 . S
C1063 H1078 0.961 . S
C1063 H1079 0.960 . S
H1064 C1048 0.931 . S
H1065 C1053 0.929 . S
H1066 C1054 0.960 . S
H1067 C1054 0.962 . S
H1068 C1054 0.960 . S
H1069 C1055 0.961 . S
H1070 C1055 0.961 . S
H1071 C1055 0.961 . S
H1072 C1056 0.931 . S
H1073 C1061 0.930 . S
H1074 C1062 0.956 . S
H1075 C1062 0.961 . S
H1076 C1062 0.961 . S
H1077 C1063 0.958 . S
H1078 C1063 0.961 . S
H1079 C1063 0.960 . S
C1080 C1081 1.391 . S
C1080 C1082 1.394 . S
C1080 H1096 0.931 . S
C1081 C1080 1.391 . S
C1081 C1085 1.376 . S
C1082 C1080 1.394 . S
C1082 C1083 1.369 . S
C1082 C1086 1.531 . S
C1083 C1082 1.369 . S
C1083 C1084 1.410 . S
C1083 C1091 1.503 . S
C1084 C1083 1.410 . S
C1084 C1085 1.392 . S
C1084 C1087 1.511 . S
C1085 C1081 1.376 . S
C1085 C1084 1.392 . S
C1085 H1097 0.929 . S
C1086 C1082 1.531 . S
C1086 H1098 0.960 . S
C1086 H1099 0.962 . S
C1086 H1100 0.960 . S
C1087 C1084 1.511 . S
C1087 H1101 0.961 . S
C1087 H1102 0.961 . S
C1087 H1103 0.961 . S
C1088 C1089 1.370 . S
C1088 C1090 1.363 . S
C1088 H1104 0.931 . S
C1089 C1088 1.370 . S
C1089 C1093 1.408 . S
C1090 C1088 1.363 . S
C1090 C1091 1.370 . S
C1090 C1094 1.524 . S
C1091 C1083 1.503 . S
C1091 C1090 1.370 . S
C1091 C1092 1.403 . S
C1092 C1091 1.403 . S
C1092 C1093 1.404 . S
C1092 C1095 1.539 . S
C1093 C1089 1.408 . S
C1093 C1092 1.404 . S
C1093 H1105 0.930 . S
C1094 C1090 1.524 . S
C1094 H1106 0.956 . S
C1094 H1107 0.961 . S
C1094 H1108 0.961 . S
C1095 C1092 1.539 . S
C1095 H1109 0.958 . S
C1095 H1110 0.961 . S
C1095 H1111 0.960 . S
H1096 C1080 0.931 . S
H1097 C1085 0.929 . S
H1098 C1086 0.960 . S
H1099 C1086 0.962 . S
H1100 C1086 0.960 . S
H1101 C1087 0.961 . S
H1102 C1087 0.961 . S
H1103 C1087 0.961 . S
H1104 C1088 0.931 . S
H1105 C1093 0.930 . S
H1106 C1094 0.956 . S
H1107 C1094 0.961 . S
H1108 C1094 0.961 . S
H1109 C1095 0.958 . S
H1110 C1095 0.961 . S
H1111 C1095 0.960 . S
C1112 C1113 1.391 . S
C1112 C1114 1.394 . S
C1112 H1128 0.931 . S
C1113 C1112 1.391 . S
C1113 C1117 1.376 . S
C1114 C1112 1.394 . S
C1114 C1115 1.369 . S
C1114 C1118 1.531 . S
C1115 C1114 1.369 . S
C1115 C1116 1.410 . S
C1115 C1123 1.503 . S
C1116 C1115 1.410 . S
C1116 C1117 1.392 . S
C1116 C1119 1.511 . S
C1117 C1113 1.376 . S
C1117 C1116 1.392 . S
C1117 H1129 0.929 . S
C1118 C1114 1.531 . S
C1118 H1130 0.960 . S
C1118 H1131 0.962 . S
C1118 H1132 0.960 . S
C1119 C1116 1.511 . S
C1119 H1133 0.961 . S
C1119 H1134 0.961 . S
C1119 H1135 0.961 . S
C1120 C1121 1.370 . S
C1120 C1122 1.363 . S
C1120 H1136 0.931 . S
C1121 C1120 1.370 . S
C1121 C1125 1.408 . S
C1122 C1120 1.363 . S
C1122 C1123 1.370 . S
C1122 C1126 1.524 . S
C1123 C1115 1.503 . S
C1123 C1122 1.370 . S
C1123 C1124 1.403 . S
C1124 C1123 1.403 . S
C1124 C1125 1.404 . S
C1124 C1127 1.539 . S
C1125 C1121 1.408 . S
C1125 C1124 1.404 . S
C1125 H1137 0.930 . S
C1126 C1122 1.524 . S
C1126 H1138 0.956 . S
C1126 H1139 0.961 . S
C1126 H1140 0.961 . S
C1127 C1124 1.539 . S
C1127 H1141 0.958 . S
C1127 H1142 0.961 . S
C1127 H1143 0.960 . S
H1128 C1112 0.931 . S
H1129 C1117 0.929 . S
H1130 C1118 0.960 . S
H1131 C1118 0.962 . S
H1132 C1118 0.960 . S
H1133 C1119 0.961 . S
H1134 C1119 0.961 . S
H1135 C1119 0.961 . S
H1136 C1120 0.931 . S
H1137 C1125 0.930 . S
H1138 C1126 0.956 . S
H1139 C1126 0.961 . S
H1140 C1126 0.961 . S
H1141 C1127 0.958 . S
H1142 C1127 0.961 . S
H1143 C1127 0.960 . S
C1144 C1145 1.391 . S
C1144 C1146 1.394 . S
C1144 H1160 0.931 . S
C1145 C1144 1.391 . S
C1145 C1149 1.376 . S
C1146 C1144 1.394 . S
C1146 C1147 1.369 . S
C1146 C1150 1.531 . S
C1147 C1146 1.369 . S
C1147 C1148 1.410 . S
C1147 C1155 1.503 . S
C1148 C1147 1.410 . S
C1148 C1149 1.392 . S
C1148 C1151 1.511 . S
C1149 C1145 1.376 . S
C1149 C1148 1.392 . S
C1149 H1161 0.929 . S
C1150 C1146 1.531 . S
C1150 H1162 0.960 . S
C1150 H1163 0.962 . S
C1150 H1164 0.960 . S
C1151 C1148 1.511 . S
C1151 H1165 0.961 . S
C1151 H1166 0.961 . S
C1151 H1167 0.961 . S
C1152 C1153 1.370 . S
C1152 C1154 1.363 . S
C1152 H1168 0.931 . S
C1153 C1152 1.370 . S
C1153 C1157 1.408 . S
C1154 C1152 1.363 . S
C1154 C1155 1.370 . S
C1154 C1158 1.524 . S
C1155 C1147 1.503 . S
C1155 C1154 1.370 . S
C1155 C1156 1.403 . S
C1156 C1155 1.403 . S
C1156 C1157 1.404 . S
C1156 C1159 1.539 . S
C1157 C1153 1.408 . S
C1157 C1156 1.404 . S
C1157 H1169 0.930 . S
C1158 C1154 1.524 . S
C1158 H1170 0.956 . S
C1158 H1171 0.961 . S
C1158 H1172 0.961 . S
C1159 C1156 1.539 . S
C1159 H1173 0.958 . S
C1159 H1174 0.961 . S
C1159 H1175 0.960 . S
H1160 C1144 0.931 . S
H1161 C1149 0.929 . S
H1162 C1150 0.960 . S
H1163 C1150 0.962 . S
H1164 C1150 0.960 . S
H1165 C1151 0.961 . S
H1166 C1151 0.961 . S
H1167 C1151 0.961 . S
H1168 C1152 0.931 . S
H1169 C1157 0.930 . S
H1170 C1158 0.956 . S
H1171 C1158 0.961 . S
H1172 C1158 0.961 . S
H1173 C1159 0.958 . S
H1174 C1159 0.961 . S
H1175 C1159 0.960 . S
C1176 C1177 1.391 1_455 S
C1176 C1178 1.394 . S
C1176 H1192 0.931 . S
C1177 C1176 1.391 1_655 S
C1177 C1181 1.376 . S
C1178 C1176 1.394 . S
C1178 C1179 1.369 1_455 S
C1178 C1182 1.531 . S
C1179 C1178 1.369 1_655 S
C1179 C1180 1.410 . S
C1179 C1187 1.503 1_664 S
C1180 C1179 1.410 . S
C1180 C1181 1.392 . S
C1180 C1183 1.511 1_565 S
C1181 C1177 1.376 . S
C1181 C1180 1.392 . S
C1181 H1193 0.929 . S
C1182 C1178 1.531 . S
C1182 H1194 0.960 1_554 S
C1182 H1195 0.962 . S
C1182 H1196 0.960 . S
C1183 C1180 1.511 1_545 S
C1183 H1197 0.961 . S
C1183 H1198 0.961 1_554 S
C1183 H1199 0.973 . S
C1184 C1185 1.370 . S
C1184 C1186 1.363 . S
C1184 H1200 0.931 . S
C1185 C1184 1.370 . S
C1185 C1189 1.407 1_445 S
C1186 C1184 1.363 . S
C1186 C1187 1.370 . S
C1186 C1190 1.524 1_556 S
C1187 C1179 1.503 1_446 S
C1187 C1186 1.370 . S
C1187 C1188 1.403 1_445 S
C1188 C1187 1.403 1_665 S
C1188 C1189 1.404 . S
C1188 C1191 1.539 . S
C1189 C1185 1.407 1_665 S
C1189 C1188 1.404 . S
C1189 H1201 0.931 . S
C1190 C1186 1.524 1_554 S
C1190 H1202 0.956 . S
C1190 H1203 0.961 . S
C1190 H1204 0.961 . S
C1191 C1188 1.539 . S
C1191 H1205 0.958 . S
C1191 H1206 0.961 . S
C1191 H1207 0.960 . S
H1192 C1176 0.931 . S
H1193 C1181 0.929 . S
H1194 C1182 0.960 1_556 S
H1195 C1182 0.962 . S
H1196 C1182 0.960 . S
H1197 C1183 0.961 . S
H1198 C1183 0.961 1_556 S
H1199 C1183 0.973 . S
H1200 C1184 0.931 . S
H1201 C1189 0.931 . S
H1202 C1190 0.956 . S
H1203 C1190 0.961 . S
H1204 C1190 0.961 . S
H1205 C1191 0.958 . S
H1206 C1191 0.961 . S
H1207 C1191 0.960 . S
C1208 C1209 1.391 . S
C1208 C1210 1.394 . S
C1208 H1224 0.931 . S
C1209 C1208 1.391 . S
C1209 C1213 1.376 1_655 S
C1210 C1208 1.394 . S
C1210 C1211 1.368 1_655 S
C1210 C1214 1.531 . S
C1211 C1210 1.368 1_455 S
C1211 C1212 1.410 . S
C1211 C1219 1.503 1_545 S
C1212 C1211 1.410 . S
C1212 C1213 1.392 . S
C1212 C1215 1.511 1_545 S
C1213 C1209 1.376 1_455 S
C1213 C1212 1.392 . S
C1213 H1225 0.929 . S
C1214 C1210 1.531 . S
C1214 H1226 0.960 . S
C1214 H1227 0.962 . S
C1214 H1228 0.960 . S
C1215 C1212 1.511 1_565 S
C1215 H1229 0.961 . S
C1215 H1230 0.961 . S
C1215 H1231 0.953 1_565 S
C1216 C1217 1.370 1_655 S
C1216 C1218 1.363 . S
C1216 H1232 0.931 . S
C1217 C1216 1.370 1_455 S
C1217 C1221 1.408 . S
C1218 C1216 1.363 . S
C1218 C1219 1.370 1_655 S
C1218 C1222 1.524 . S
C1219 C1211 1.503 1_565 S
C1219 C1218 1.370 1_455 S
C1219 C1220 1.403 1_565 S
C1220 C1219 1.403 1_545 S
C1220 C1221 1.404 1_545 S
C1220 C1223 1.539 . S
C1221 C1217 1.408 . S
C1221 C1220 1.404 1_565 S
C1221 H1233 0.930 1_565 S
C1222 C1218 1.524 . S
C1222 H1234 0.956 . S
C1222 H1235 0.961 . S
C1222 H1236 0.961 . S
C1223 C1220 1.539 . S
C1223 H1237 0.958 . S
C1223 H1238 0.961 . S
C1223 H1239 0.960 . S
H1224 C1208 0.931 . S
H1225 C1213 0.929 . S
H1226 C1214 0.960 . S
H1227 C1214 0.962 . S
H1228 C1214 0.960 . S
H1229 C1215 0.961 . S
H1230 C1215 0.961 . S
H1231 C1215 0.953 1_545 S
H1232 C1216 0.931 . S
H1233 C1221 0.930 1_545 S
H1234 C1222 0.956 . S
H1235 C1222 0.961 . S
H1236 C1222 0.961 . S
H1237 C1223 0.958 . S
H1238 C1223 0.961 . S
H1239 C1223 0.960 . S
C1240 C1241 1.391 . S
C1240 C1242 1.394 . S
C1240 H1256 0.931 . S
C1241 C1240 1.391 . S
C1241 C1245 1.376 . S
C1242 C1240 1.394 . S
C1242 C1243 1.369 . S
C1242 C1246 1.531 1_554 S
C1243 C1242 1.369 . S
C1243 C1244 1.410 . S
C1243 C1251 1.503 1_554 S
C1244 C1243 1.410 . S
C1244 C1245 1.392 . S
C1244 C1247 1.511 . S
C1245 C1241 1.376 . S
C1245 C1244 1.392 . S
C1245 H1257 0.929 . S
C1246 C1242 1.531 1_556 S
C1246 H1258 0.960 . S
C1246 H1259 0.962 . S
C1246 H1260 0.960 . S
C1247 C1244 1.511 . S
C1247 H1261 0.961 . S
C1247 H1262 0.961 . S
C1247 H1263 0.961 . S
C1248 C1249 1.370 . S
C1248 C1250 1.363 . S
C1248 H1264 0.931 . S
C1249 C1248 1.370 . S
C1249 C1253 1.408 . S
C1250 C1248 1.363 . S
C1250 C1251 1.370 . S
C1250 C1254 1.518 1_556 S
C1251 C1243 1.503 1_556 S
C1251 C1250 1.370 . S
C1251 C1252 1.403 . S
C1252 C1251 1.403 . S
C1252 C1253 1.404 . S
C1252 C1255 1.539 . S
C1253 C1249 1.408 . S
C1253 C1252 1.404 . S
C1253 H1265 0.930 . S
C1254 C1250 1.518 1_554 S
C1254 H1266 0.958 . S
C1254 H1267 0.969 . S
C1254 H1268 0.957 1_554 S
C1255 C1252 1.539 . S
C1255 H1269 0.958 . S
C1255 H1270 0.961 . S
C1255 H1271 0.960 . S
H1256 C1240 0.931 . S
H1257 C1245 0.929 . S
H1258 C1246 0.960 . S
H1259 C1246 0.962 . S
H1260 C1246 0.960 . S
H1261 C1247 0.961 . S
H1262 C1247 0.961 . S
H1263 C1247 0.961 . S
H1264 C1248 0.931 . S
H1265 C1253 0.930 . S
H1266 C1254 0.958 . S
H1267 C1254 0.969 . S
H1268 C1254 0.957 1_556 S
H1269 C1255 0.958 . S
H1270 C1255 0.961 . S
H1271 C1255 0.960 . S
C249 C20 1.103 . S
C257 C1 1.118 . S
C281 C33 1.620 . S
C289 C60 1.657 . S
C313 C82 1.110 . S
C321 C63 1.110 . S
C345 C122 1.623 . S
C353 C95 1.656 . S
C377 C126 1.667 . S
C385 C153 1.632 . S
C409 C184 1.654 . S
C417 C157 1.640 . S
C441 C188 1.661 . S
C449 C215 1.633 . S
C473 C219 1.650 . S
C481 C246 1.641 . S
C505 C103 1.357 . S
C513 C0 1.368 . S
C537 C61 1.423 . S
C545 C81 1.395 . S
C569 C134 1.273 . S
C577 C247 1.270 . S
C601 C165 1.266 . S
C609 C196 1.305 . S
C633 C92 1.098 . S
C641 C2 1.028 . S
C665 C93 1.058 . S
C673 C51 0.956 . S
C697 C91 0.999 . S
C705 C10 1.122 . S
C729 C94 0.937 . S
C737 C50 1.048 . S
C761 C186 1.011 . S
C769 C125 0.910 . S
C793 C156 1.021 . S
C801 C236 1.030 . S
C825 C187 0.926 . S
C833 C124 1.002 . S
C857 C237 0.928 . S
C865 C155 1.034 . S
C889 C206 1.875 1_545 S
C897 C19 1.905 . S
C921 C41 1.744 . S
C929 C218 1.792 . S
C953 C144 1.887 . S
C961 C62 1.905 . S
C985 C175 1.772 1_545 S
C993 C123 1.725 . S
C1017 C154 1.962 . S
C1025 C64 2.003 1_565 S
C1049 C113 1.807 . S
C1057 C185 1.745 . S
C1081 C29 2.006 . S
C1089 C216 1.949 . S
C1113 C227 1.713 . S
C1121 C32 1.788 1_565 S
C1145 C143 1.008 . S
C1153 C30 1.087 . S
C1177 C174 1.050 . S
C1185 C31 1.147 . S
C1209 C72 1.010 . S
C1217 C205 1.082 . S
C1241 C112 1.104 . S
C1249 C217 1.120 . S
