# Generated by pormake.
# Topology dmp, (4)-cn, num edge types: 1
# Building blocks:
#     Node 0, Type 0, BuildingBlock: KUFVIS_clean_sbu_0, # of connection points: 4
#     Node 1, Type 0, BuildingBlock: KUFVIS_clean_sbu_0, # of connection points: 4
#     Node 2, Type 0, BuildingBlock: KUFVIS_clean_sbu_0, # of connection points: 4
#     Node 3, Type 0, BuildingBlock: KUFVIS_clean_sbu_0, # of connection points: 4
#     Edge 4, Type (0, 0), BuildingBlock: ZUJKAS_clean_linker_0, # of connection points: 2
#     Edge 5, Type (0, 0), BuildingBlock: ZUJKAS_clean_linker_0, # of connection points: 2
#     Edge 6, Type (0, 0), BuildingBlock: ZUJKAS_clean_linker_0, # of connection points: 2
#     Edge 7, Type (0, 0), BuildingBlock: ZUJKAS_clean_linker_0, # of connection points: 2
#     Edge 8, Type (0, 0), BuildingBlock: ZUJKAS_clean_linker_0, # of connection points: 2
#     Edge 9, Type (0, 0), BuildingBlock: ZUJKAS_clean_linker_0, # of connection points: 2
#     Edge 10, Type (0, 0), BuildingBlock: ZUJKAS_clean_linker_0, # of connection points: 2
#     Edge 11, Type (0, 0), BuildingBlock: ZUJKAS_clean_linker_0, # of connection points: 2
# Relax obj value: 0.124
# Max RMSD: 0.220
# Mean RMSD: 0.220
data_MOF--net-dmp--node1-KUFVIS_clean_sbu_0--edge1-ZUJKAS_clean_linker_0
_symmetry_space_group_name_H-M    P1
_symmetry_Int_Tables_number       1
_symmetry_cell_setting            triclinic
loop_
_symmetry_equiv_pos_as_xyz
'x, y, z'
_cell_length_a     50.615656
_cell_length_b     23.934493
_cell_length_c     20.15767
_cell_angle_alpha  90.036523
_cell_angle_beta   89.987578
_cell_angle_gamma 94.114066
loop_
_atom_site_label
_atom_site_type_symbol
_atom_site_fract_x
_atom_site_fract_y
_atom_site_fract_z
_atom_type_partial_charge
Mn0 Mn 0.1081 0.2252 0.32835 0.0
Mn1 Mn 0.14955 0.18248 0.21025 0.0
C2 C 0.14834 0.27419 0.30998 0.0
C3 C 0.07356 0.27958 0.35964 0.0
C4 C 0.14344 0.12794 0.34566 0.0
O5 O 0.0841 0.17062 0.27321 0.0
O6 O 0.11312 0.15067 0.19331 0.0
C7 C 0.12815 0.2416 0.09538 0.0
N8 N 0.14894 0.23096 0.13513 0.0
C9 C 0.17892 0.29102 0.06986 0.0
C10 C 0.15785 0.30245 0.02799 0.0
C11 C 0.13234 0.27778 0.04097 0.0
C12 C 0.17351 0.25487 0.12348 0.0
H13 H 0.10853 0.2226 0.10516 0.0
C14 C 0.08999 0.14635 0.2192 0.0
O15 O 0.07956 0.23674 0.39475 0.0
O16 O 0.08652 0.28845 0.30479 0.0
N17 N 0.1857 0.21027 0.22014 0.0
C18 C 0.20368 0.19609 0.2664 0.0
C19 C 0.2302 0.21698 0.2605 0.0
C20 C 0.238 0.25168 0.20682 0.0
C21 C 0.21913 0.2659 0.15996 0.0
C22 C 0.19304 0.24336 0.16807 0.0
H23 H 0.1979 0.16877 0.30726 0.0
O24 O 0.13587 0.27959 0.36552 0.0
O25 O 0.13662 0.24143 0.26603 0.0
O26 O 0.12699 0.16042 0.37012 0.0
O27 O 0.152 0.1315 0.28611 0.0
C28 C 0.22516 0.30146 0.1055 0.0
C29 C 0.20503 0.31436 0.06079 0.0
H30 H 0.16101 0.33027 0.98592 0.0
H31 H 0.11596 0.28654 0.00901 0.0
H32 H 0.24464 0.20592 0.29691 0.0
H33 H 0.25856 0.26693 0.20201 0.0
H34 H 0.24517 0.31947 0.09778 0.0
H35 H 0.20984 0.3423 0.0196 0.0
Mn36 Mn 0.38823 0.76522 0.3334 0.0
Mn37 Mn 0.34757 0.80673 0.21288 0.0
C38 C 0.34802 0.71629 0.31466 0.0
C39 C 0.42245 0.71095 0.36692 0.0
C40 C 0.35277 0.86266 0.34778 0.0
O41 O 0.41267 0.81886 0.27838 0.0
O42 O 0.38414 0.83842 0.19737 0.0
C43 C 0.36998 0.74665 0.09994 0.0
N44 N 0.34882 0.75775 0.13826 0.0
C45 C 0.3194 0.69747 0.07171 0.0
C46 C 0.34085 0.68559 0.03129 0.0
C47 C 0.36626 0.71016 0.04562 0.0
C48 C 0.32433 0.73404 0.12522 0.0
H49 H 0.38953 0.76551 0.11079 0.0
C50 C 0.40715 0.84268 0.22387 0.0
O51 O 0.41635 0.75431 0.40106 0.0
O52 O 0.40979 0.7015 0.31176 0.0
N53 N 0.31132 0.77904 0.22095 0.0
C54 C 0.29293 0.79338 0.26611 0.0
C55 C 0.26644 0.77271 0.25863 0.0
C56 C 0.25911 0.73794 0.2046 0.0
C57 C 0.2784 0.72332 0.15912 0.0
C58 C 0.30441 0.74589 0.16854 0.0
H59 H 0.29837 0.82075 0.30723 0.0
O60 O 0.36022 0.71168 0.37069 0.0
O61 O 0.36001 0.74826 0.27029 0.0
O62 O 0.36922 0.83072 0.37323 0.0
O63 O 0.34445 0.85826 0.28806 0.0
C64 C 0.27286 0.68717 0.10491 0.0
C65 C 0.29338 0.67398 0.06147 0.0
H66 H 0.33807 0.65744 0.98938 0.0
H67 H 0.38293 0.70104 0.01481 0.0
H68 H 0.25166 0.78396 0.29409 0.0
H69 H 0.23858 0.72274 0.19847 0.0
H70 H 0.25294 0.66886 0.09656 0.0
H71 H 0.28895 0.64561 0.02043 0.0
Mn72 Mn 0.89406 0.7679 0.66757 0.0
Mn73 Mn 0.84899 0.79396 0.78539 0.0
C74 C 0.85549 0.71149 0.6761 0.0
C75 C 0.93116 0.72147 0.63566 0.0
C76 C 0.85549 0.85998 0.65729 0.0
O77 O 0.91496 0.82147 0.73052 0.0
O78 O 0.88408 0.82955 0.80994 0.0
C79 C 0.87038 0.72922 0.89563 0.0
N80 N 0.8499 0.73994 0.85489 0.0
C81 C 0.8209 0.67021 0.90927 0.0
C82 C 0.84165 0.65863 0.9521 0.0
C83 C 0.8665 0.68817 0.94512 0.0
C84 C 0.82593 0.71162 0.86097 0.0
H85 H 0.88951 0.75181 0.89033 0.0
C86 C 0.90741 0.83989 0.78647 0.0
O87 O 0.92437 0.76543 0.60373 0.0
O88 O 0.91747 0.70719 0.68799 0.0
N89 N 0.8139 0.76197 0.76837 0.0
C90 C 0.79628 0.77679 0.72156 0.0
C91 C 0.77054 0.75065 0.7211 0.0
C92 C 0.76311 0.71003 0.76913 0.0
C93 C 0.7815 0.69587 0.8172 0.0
C94 C 0.80678 0.72372 0.81558 0.0
H95 H 0.80179 0.80825 0.68477 0.0
O96 O 0.86916 0.71254 0.62174 0.0
O97 O 0.86505 0.74243 0.72463 0.0
O98 O 0.87333 0.83217 0.63045 0.0
O99 O 0.84619 0.85023 0.71535 0.0
C100 C 0.77585 0.65469 0.86609 0.0
C101 C 0.79556 0.64174 0.91195 0.0
H102 H 0.83876 0.62689 0.99021 0.0
H103 H 0.88264 0.67929 0.97781 0.0
H104 H 0.75645 0.76186 0.68387 0.0
H105 H 0.74324 0.68995 0.7686 0.0
H106 H 0.75651 0.63222 0.86832 0.0
H107 H 0.79109 0.6095 0.94878 0.0
Mn108 Mn 0.60378 0.23226 0.68644 0.0
Mn109 Mn 0.64932 0.21223 0.80517 0.0
C110 C 0.64156 0.2912 0.69282 0.0
C111 C 0.56597 0.27538 0.653 0.0
C112 C 0.64419 0.14341 0.6787 0.0
O113 O 0.58364 0.17885 0.75068 0.0
O114 O 0.61478 0.17388 0.82987 0.0
C115 C 0.62602 0.27663 0.91315 0.0
N116 N 0.64697 0.26711 0.87336 0.0
C117 C 0.67431 0.34018 0.92691 0.0
C118 C 0.65307 0.35055 0.96877 0.0
C119 C 0.6288 0.31874 0.96172 0.0
C120 C 0.67036 0.29765 0.87948 0.0
H121 H 0.60733 0.25229 0.90779 0.0
C122 C 0.59152 0.16167 0.80682 0.0
O123 O 0.57338 0.2312 0.62249 0.0
O124 O 0.57945 0.29166 0.70493 0.0
N125 N 0.68393 0.24697 0.78859 0.0
C126 C 0.70218 0.23286 0.74293 0.0
C127 C 0.72745 0.26119 0.74275 0.0
C128 C 0.73381 0.30318 0.78999 0.0
C129 C 0.71483 0.31648 0.83699 0.0
C130 C 0.69005 0.28651 0.8351 0.0
H131 H 0.69748 0.20034 0.70678 0.0
O132 O 0.62778 0.28784 0.63868 0.0
O133 O 0.6325 0.26113 0.74264 0.0
O134 O 0.62553 0.16865 0.65159 0.0
O135 O 0.65353 0.15541 0.73626 0.0
C136 C 0.7194 0.35886 0.88504 0.0
C137 C 0.69912 0.37084 0.92981 0.0
H138 H 0.65512 0.38308 0.00619 0.0
H139 H 0.61229 0.32666 0.99364 0.0
H140 H 0.74201 0.25065 0.70635 0.0
H141 H 0.75331 0.32499 0.78967 0.0
H142 H 0.73832 0.38297 0.88744 0.0
H143 H 0.70276 0.40398 0.96599 0.0
H144 H 0.33529 0.96275 0.31266 0.0
H145 H 0.30081 0.01077 0.36798 0.0
H146 H 0.30306 0.897 0.53352 0.0
H147 H 0.33767 0.84796 0.47726 0.0
H148 H 0.25485 0.89456 0.48178 0.0
H149 H 0.28789 0.11592 0.5164 0.0
H150 H 0.29664 0.09603 0.4341 0.0
H151 H 0.31113 0.06287 0.5044 0.0
C152 C 0.32927 0.9494 0.3621 0.0
C153 C 0.33913 0.9016 0.39059 0.0
C154 C 0.3096 0.97716 0.39405 0.0
C155 C 0.29939 0.95792 0.45535 0.0
C156 C 0.31077 0.9129 0.48653 0.0
H157 H 0.15856 0.14462 0.47481 0.0
H158 H 0.19311 0.09617 0.53201 0.0
C159 C 0.33069 0.88518 0.45458 0.0
C160 C 0.27393 0.97813 0.47884 0.0
H161 H 0.24112 0.09753 0.47978 0.0
C162 C 0.25195 0.939 0.48382 0.0
C163 C 0.26995 0.03588 0.48345 0.0
C164 C 0.2928 0.07989 0.48506 0.0
C165 C 0.22602 0.95627 0.48459 0.0
C166 C 0.22203 0.01395 0.47884 0.0
C167 C 0.24402 0.05314 0.48271 0.0
C168 C 0.1965 0.03379 0.45526 0.0
C169 C 0.20318 0.91229 0.48745 0.0
C170 C 0.18614 0.01351 0.39453 0.0
C171 C 0.1665 0.04093 0.36207 0.0
C172 C 0.15683 0.08941 0.38945 0.0
C173 C 0.16539 0.10686 0.453 0.0
C174 C 0.18528 0.07947 0.48548 0.0
H175 H 0.20816 0.87683 0.51957 0.0
H176 H 0.18489 0.92963 0.50657 0.0
H177 H 0.19924 0.89523 0.43692 0.0
H178 H 0.19481 0.97935 0.36918 0.0
H179 H 0.16038 0.02679 0.31297 0.0
H180 H 0.15403 0.34377 0.20471 0.0
H181 H 0.18954 0.41738 0.18638 0.0
H182 H 0.2276 0.3691 0.36692 0.0
H183 H 0.19246 0.2945 0.38419 0.0
H184 H 0.1993 0.50354 0.2822 0.0
H185 H 0.29051 0.39144 0.23816 0.0
H186 H 0.25854 0.36669 0.2062 0.0
H187 H 0.26567 0.35946 0.29284 0.0
C188 C 0.17055 0.34774 0.23896 0.0
C189 C 0.17121 0.31274 0.2946 0.0
C190 C 0.19065 0.38982 0.22875 0.0
C191 C 0.21141 0.39775 0.27458 0.0
C192 C 0.21215 0.36245 0.33 0.0
H193 H 0.30482 0.69375 0.39154 0.0
H194 H 0.26978 0.61915 0.37475 0.0
C195 C 0.19207 0.32031 0.34011 0.0
C196 C 0.23029 0.44734 0.26955 0.0
H197 H 0.29603 0.48772 0.25941 0.0
C198 C 0.22045 0.5003 0.27638 0.0
C199 C 0.25773 0.44276 0.26155 0.0
C200 C 0.26894 0.38713 0.24906 0.0
C201 C 0.2375 0.549 0.27746 0.0
C202 C 0.26515 0.54431 0.27262 0.0
C203 C 0.27485 0.49132 0.26359 0.0
C204 C 0.28459 0.59311 0.27953 0.0
C205 C 0.22559 0.60465 0.2839 0.0
C206 C 0.3049 0.60235 0.23251 0.0
C207 C 0.32524 0.64377 0.24314 0.0
C208 C 0.32508 0.67775 0.29972 0.0
C209 C 0.30475 0.66897 0.34653 0.0
C210 C 0.28466 0.62681 0.33661 0.0
H211 H 0.20544 0.60319 0.26181 0.0
H212 H 0.22374 0.61517 0.33724 0.0
H213 H 0.23809 0.63837 0.25948 0.0
H214 H 0.30547 0.57634 0.18859 0.0
H215 H 0.34149 0.64821 0.20812 0.0
H216 H 0.66648 0.05229 0.72639 0.0
H217 H 0.70094 0.00228 0.67334 0.0
H218 H 0.69007 0.09289 0.49158 0.0
H219 H 0.65555 0.14431 0.54548 0.0
H220 H 0.70739 0.93718 0.56194 0.0
H221 H 0.76618 0.14284 0.54453 0.0
H222 H 0.73556 0.13501 0.5904 0.0
H223 H 0.73506 0.13493 0.50133 0.0
C224 C 0.67085 0.06046 0.67452 0.0
C225 C 0.65852 0.10255 0.64027 0.0
C226 C 0.69058 0.03181 0.64416 0.0
C227 C 0.69852 0.04471 0.57894 0.0
C228 C 0.68457 0.08302 0.54237 0.0
H229 H 0.8383 0.84992 0.52889 0.0
H230 H 0.80204 0.89984 0.481 0.0
C231 C 0.66462 0.11182 0.5729 0.0
C232 C 0.72338 0.02256 0.55419 0.0
H233 H 0.78923 0.06221 0.53715 0.0
C234 C 0.72523 0.96433 0.55433 0.0
C235 C 0.74662 0.05827 0.54466 0.0
C236 C 0.74601 0.12126 0.54543 0.0
C237 C 0.74989 0.94097 0.55166 0.0
C238 C 0.77331 0.97693 0.54693 0.0
C239 C 0.77124 0.03484 0.54039 0.0
C240 C 0.79954 0.95672 0.56395 0.0
C241 C 0.75077 0.87847 0.56063 0.0
C242 C 0.81152 0.97516 0.62358 0.0
C243 C 0.83227 0.94731 0.6504 0.0
C244 C 0.84156 0.90066 0.61793 0.0
C245 C 0.83166 0.88612 0.5546 0.0
C246 C 0.8107 0.91408 0.52769 0.0
H247 H 0.73091 0.85747 0.57093 0.0
H248 H 0.75858 0.85989 0.51484 0.0
H249 H 0.76418 0.8693 0.60223 0.0
H250 H 0.80336 0.0081 0.65235 0.0
H251 H 0.83954 0.95927 0.69932 0.0
H252 H 0.84906 0.63321 0.7724 0.0
H253 H 0.81217 0.56178 0.78448 0.0
H254 H 0.77718 0.62076 0.60454 0.0
H255 H 0.81348 0.69383 0.59444 0.0
H256 H 0.74092 0.60338 0.70047 0.0
H257 H 0.80126 0.41946 0.67974 0.0
H258 H 0.81128 0.46584 0.74648 0.0
H259 H 0.81455 0.48979 0.66207 0.0
C260 C 0.83318 0.63122 0.73627 0.0
C261 C 0.83328 0.66975 0.68396 0.0
C262 C 0.81243 0.59 0.7425 0.0
C263 C 0.7921 0.58579 0.69509 0.0
C264 C 0.79264 0.62361 0.64183 0.0
H265 H 0.6827 0.3064 0.60844 0.0
H266 H 0.71875 0.38027 0.61272 0.0
C267 C 0.81326 0.66507 0.63597 0.0
C268 C 0.77011 0.54223 0.70073 0.0
H269 H 0.75588 0.40101 0.70473 0.0
C270 C 0.74415 0.55911 0.70186 0.0
C271 C 0.77448 0.48455 0.7015 0.0
C272 C 0.80188 0.46371 0.69674 0.0
C273 C 0.7223 0.51981 0.70288 0.0
C274 C 0.72668 0.46215 0.70455 0.0
C275 C 0.75265 0.4453 0.7043 0.0
C276 C 0.70467 0.41835 0.70237 0.0
C277 C 0.69484 0.54049 0.69946 0.0
C278 C 0.68484 0.41562 0.75117 0.0
C279 C 0.66419 0.37386 0.74823 0.0
C280 C 0.66373 0.33339 0.69792 0.0
C281 C 0.68322 0.33663 0.64855 0.0
C282 C 0.70372 0.37859 0.65107 0.0
H283 H 0.69519 0.58412 0.68049 0.0
H284 H 0.68171 0.51323 0.66701 0.0
H285 H 0.68614 0.54005 0.74999 0.0
H286 H 0.68543 0.44538 0.7917 0.0
H287 H 0.64867 0.37299 0.7853 0.0
H288 H 0.09792 0.07133 0.12133 0.0
H289 H 0.06503 0.02054 0.05242 0.0
H290 H 0.00249 0.09093 0.16313 0.0
H291 H 0.03563 0.14336 0.23268 0.0
H292 H 0.02382 0.94221 0.0861 0.0
H293 H 0.98736 0.13244 0.96845 0.0
H294 H 0.0177 0.13431 0.01572 0.0
H295 H 0.9863 0.13031 0.05759 0.0
C296 C 0.0772 0.07622 0.13145 0.0
C297 C 0.06942 0.11202 0.18222 0.0
C298 C 0.05842 0.04687 0.09198 0.0
C299 C 0.0314 0.05264 0.10202 0.0
C300 C 0.02334 0.08674 0.15398 0.0
H301 H 0.89549 0.90724 0.88933 0.0
H302 H 0.92593 0.95916 0.96425 0.0
C303 C 0.04224 0.11627 0.19394 0.0
C304 C 0.01207 0.02328 0.05669 0.0
H305 H 0.96733 0.04506 0.93435 0.0
C306 C 0.01139 0.96462 0.05304 0.0
C307 C 0.99611 0.05282 0.01332 0.0
C308 C 0.99693 0.11597 0.01327 0.0
C309 C 0.99505 0.9346 0.00727 0.0
C310 C 0.97928 0.96416 0.96357 0.0
C311 C 0.97968 0.02273 0.96771 0.0
C312 C 0.96129 0.9347 0.91527 0.0
C313 C 0.99448 0.87149 0.0065 0.0
C314 C 0.97119 0.90468 0.86193 0.0
C315 C 0.95378 0.87486 0.81848 0.0
C316 C 0.92626 0.8745 0.82818 0.0
C317 C 0.91657 0.90604 0.88073 0.0
C318 C 0.93391 0.93596 0.92359 0.0
H319 H 0.00388 0.85477 0.05142 0.0
H320 H 0.97379 0.85286 0.00308 0.0
H321 H 0.0054 0.85778 0.96232 0.0
H322 H 0.99235 0.9039 0.85438 0.0
H323 H 0.96185 0.85107 0.7785 0.0
H324 H 0.60376 0.10456 0.91837 0.0
H325 H 0.57407 0.04734 0.98975 0.0
H326 H 0.50808 0.08074 0.86412 0.0
H327 H 0.53786 0.13772 0.79104 0.0
H328 H 0.53174 0.07925 0.06048 0.0
H329 H 0.50027 0.91091 0.88193 0.0
H330 H 0.52816 0.96054 0.86665 0.0
H331 H 0.49495 0.98007 0.85278 0.0
C332 C 0.58296 0.09969 0.90539 0.0
C333 C 0.57321 0.12578 0.8487 0.0
C334 C 0.56602 0.06687 0.94644 0.0
C335 C 0.53897 0.05926 0.93187 0.0
C336 C 0.52904 0.08517 0.87547 0.0
H337 H 0.40055 0.90946 0.11685 0.0
H338 H 0.43431 0.96052 0.0509 0.0
C339 C 0.54605 0.11791 0.83394 0.0
C340 C 0.52115 0.0257 0.97726 0.0
H341 H 0.47662 0.91193 0.98394 0.0
C342 C 0.51983 0.04238 0.04396 0.0
C343 C 0.50585 0.97741 0.9556 0.0
C344 C 0.50751 0.95575 0.8855 0.0
C345 C 0.50287 0.0131 0.0891 0.0
C346 C 0.48711 0.96569 0.06696 0.0
C347 C 0.48881 0.94836 1.00065 0.0
C348 C 0.46712 0.93596 0.11014 0.0
C349 C 0.50124 0.03412 0.15946 0.0
C350 C 0.47443 0.90545 0.16591 0.0
C351 C 0.45502 0.87588 0.20435 0.0
C352 C 0.4281 0.87628 0.18712 0.0
C353 C 0.42105 0.90775 0.13165 0.0
C354 C 0.44033 0.93708 0.09364 0.0
H355 H 0.51144 0.07648 0.16564 0.0
H356 H 0.48025 0.03563 0.17495 0.0
H357 H 0.51072 0.0049 0.19321 0.0
H358 H 0.49511 0.90366 0.17892 0.0
H359 H 0.46112 0.85189 0.24649 0.0
H360 H 0.95116 0.63315 0.69842 0.0
H361 H 0.97675 0.561 0.64971 0.0
H362 H 0.98059 0.65081 0.4642 0.0
H363 H 0.95453 0.7233 0.51262 0.0
H364 H 0.96235 0.53867 0.45107 0.0
H365 H 0.05445 0.55635 0.60046 0.0
H366 H 0.02495 0.55074 0.6501 0.0
H367 H 0.0317 0.61106 0.59796 0.0
C368 C 0.95793 0.63834 0.64766 0.0
C369 C 0.95083 0.68409 0.60942 0.0
C370 C 0.97267 0.59703 0.61993 0.0
C371 C 0.9808 0.60063 0.55345 0.0
C372 C 0.97461 0.64731 0.51572 0.0
H373 H 0.05685 0.37014 0.29389 0.0
H374 H 0.03287 0.44634 0.33949 0.0
C375 C 0.95988 0.68889 0.54357 0.0
C376 C 0.99379 0.55335 0.52231 0.0
H377 H 0.04647 0.4726 0.53704 0.0
C378 C 0.98089 0.52455 0.4694 0.0
C379 C 0.01784 0.53463 0.54664 0.0
C380 C 0.03319 0.5651 0.6015 0.0
C381 C 0.99107 0.47683 0.44119 0.0
C382 C 0.01501 0.45786 0.4659 0.0
C383 C 0.028 0.48688 0.51849 0.0
C384 C 0.0274 0.40903 0.43669 0.0
C385 C 0.97576 0.44631 0.38629 0.0
C386 C 0.03228 0.36245 0.47607 0.0
C387 C 0.04604 0.31861 0.45007 0.0
C388 C 0.05541 0.3209 0.38438 0.0
C389 C 0.04978 0.36684 0.34456 0.0
C390 C 0.03599 0.41047 0.3705 0.0
H391 H 0.95471 0.45665 0.38552 0.0
H392 H 0.98474 0.45886 0.33784 0.0
H393 H 0.97645 0.40025 0.39151 0.0
H394 H 0.0259 0.36057 0.52738 0.0
H395 H 0.05021 0.28407 0.48219 0.0
H396 H 0.43935 0.61944 0.3033 0.0
H397 H 0.46275 0.54331 0.35128 0.0
H398 H 0.46897 0.63162 0.53773 0.0
H399 H 0.44527 0.70798 0.49022 0.0
H400 H 0.51266 0.54016 0.41235 0.0
H401 H 0.43075 0.47945 0.58709 0.0
H402 H 0.42683 0.52614 0.51804 0.0
H403 H 0.44325 0.55148 0.59234 0.0
C404 C 0.44598 0.62311 0.3543 0.0
C405 C 0.44028 0.66967 0.39309 0.0
C406 C 0.45932 0.57944 0.38166 0.0
C407 C 0.46709 0.5812 0.44845 0.0
C408 C 0.46264 0.62887 0.48644 0.0
H409 H 0.54484 0.36393 0.71265 0.0
H410 H 0.51917 0.43442 0.66067 0.0
C411 C 0.44932 0.67274 0.45904 0.0
C412 C 0.47923 0.53247 0.47845 0.0
H413 H 0.47004 0.4321 0.59844 0.0
C414 C 0.50331 0.51633 0.45283 0.0
C415 C 0.46688 0.50124 0.53098 0.0
C416 C 0.44038 0.51498 0.55848 0.0
C417 C 0.51579 0.47081 0.47959 0.0
C418 C 0.50355 0.43984 0.53252 0.0
C419 C 0.47933 0.45568 0.55769 0.0
C420 C 0.51644 0.3932 0.56515 0.0
C421 C 0.5424 0.45743 0.4524 0.0
C422 C 0.52246 0.34519 0.52958 0.0
C423 C 0.53716 0.30449 0.55934 0.0
C424 C 0.546 0.3112 0.62519 0.0
C425 C 0.53845 0.35755 0.66175 0.0
C426 C 0.52379 0.39802 0.63208 0.0
H427 H 0.55171 0.49249 0.42244 0.0
H428 H 0.55613 0.44795 0.49317 0.0
H429 H 0.53981 0.41998 0.41996 0.0
H430 H 0.51646 0.34001 0.47825 0.0
H431 H 0.54265 0.2693 0.52985 0.0
loop_
_geom_bond_atom_site_label_1
_geom_bond_atom_site_label_2
_geom_bond_distance
_geom_bond_site_symmetry_2
_ccdc_geom_bond_type
Mn0 O5 2.095 . S
Mn0 O15 2.162 . S
Mn0 O16 2.297 . S
Mn0 O24 2.385 . S
Mn0 O25 2.209 . S
Mn0 O26 2.094 . S
Mn1 O6 2.121 . S
Mn1 N8 2.257 . S
Mn1 N17 2.282 . S
Mn1 O25 2.215 . S
Mn1 O27 2.117 . S
C2 O24 1.234 . S
C2 O25 1.283 . S
C3 O15 1.281 . S
C3 O16 1.236 . S
C4 O26 1.240 . S
C4 O27 1.264 . S
O5 Mn0 2.095 . S
O5 C14 1.250 . S
O6 Mn1 2.121 . S
O6 C14 1.258 . S
C7 N8 1.326 . S
C7 C11 1.460 1_554 S
C7 H13 0.929 . S
N8 Mn1 2.257 . S
N8 C7 1.326 . S
N8 C12 1.362 . S
C9 C10 1.258 1_554 S
C9 C12 1.431 . S
C9 C29 1.449 . S
C10 C9 1.258 1_556 S
C10 C11 1.477 . S
C10 H30 0.931 . S
C11 C7 1.460 1_556 S
C11 C10 1.477 . S
C11 H31 0.930 . S
C12 N8 1.362 . S
C12 C9 1.431 . S
C12 C22 1.476 . S
H13 C7 0.929 . S
C14 O5 1.250 . S
C14 O6 1.258 . S
O15 Mn0 2.162 . S
O15 C3 1.281 . S
O16 Mn0 2.297 . S
O16 C3 1.236 . S
N17 Mn1 2.282 . S
N17 C18 1.328 . S
N17 C22 1.318 . S
C18 N17 1.328 . S
C18 C19 1.457 . S
C18 H23 0.929 . S
C19 C18 1.457 . S
C19 C20 1.291 . S
C19 H32 0.931 . S
C20 C19 1.291 . S
C20 C21 1.373 . S
C20 H33 0.929 . S
C21 C20 1.373 . S
C21 C22 1.396 . S
C21 C28 1.403 . S
C22 C12 1.476 . S
C22 N17 1.318 . S
C22 C21 1.396 . S
H23 C18 0.929 . S
O24 Mn0 2.385 . S
O24 C2 1.234 . S
O25 Mn0 2.209 . S
O25 Mn1 2.215 . S
O25 C2 1.283 . S
O26 Mn0 2.094 . S
O26 C4 1.240 . S
O27 Mn1 2.117 . S
O27 C4 1.264 . S
C28 C21 1.403 . S
C28 C29 1.399 . S
C28 H34 0.929 . S
C29 C9 1.449 . S
C29 C28 1.399 . S
C29 H35 0.930 1_554 S
H30 C10 0.931 . S
H31 C11 0.930 . S
H32 C19 0.931 . S
H33 C20 0.929 . S
H34 C28 0.929 . S
H35 C29 0.930 1_556 S
Mn36 O41 2.095 . S
Mn36 O51 2.162 . S
Mn36 O52 2.297 . S
Mn36 O60 2.385 . S
Mn36 O61 2.209 . S
Mn36 O62 2.094 . S
Mn37 O42 2.121 . S
Mn37 N44 2.257 . S
Mn37 N53 2.282 . S
Mn37 O61 2.215 . S
Mn37 O63 2.117 . S
C38 O60 1.234 . S
C38 O61 1.283 . S
C39 O51 1.281 . S
C39 O52 1.236 . S
C40 O62 1.240 . S
C40 O63 1.264 . S
O41 Mn36 2.095 . S
O41 C50 1.250 . S
O42 Mn37 2.121 . S
O42 C50 1.258 . S
C43 N44 1.326 . S
C43 C47 1.460 1_554 S
C43 H49 0.929 . S
N44 Mn37 2.257 . S
N44 C43 1.326 . S
N44 C48 1.362 . S
C45 C46 1.258 1_554 S
C45 C48 1.431 . S
C45 C65 1.449 . S
C46 C45 1.258 1_556 S
C46 C47 1.477 . S
C46 H66 0.931 . S
C47 C43 1.460 1_556 S
C47 C46 1.477 . S
C47 H67 0.930 . S
C48 N44 1.362 . S
C48 C45 1.431 . S
C48 C58 1.476 . S
H49 C43 0.929 . S
C50 O41 1.250 . S
C50 O42 1.258 . S
O51 Mn36 2.162 . S
O51 C39 1.281 . S
O52 Mn36 2.297 . S
O52 C39 1.236 . S
N53 Mn37 2.282 . S
N53 C54 1.328 . S
N53 C58 1.318 . S
C54 N53 1.328 . S
C54 C55 1.457 . S
C54 H59 0.929 . S
C55 C54 1.457 . S
C55 C56 1.291 . S
C55 H68 0.931 . S
C56 C55 1.291 . S
C56 C57 1.373 . S
C56 H69 0.929 . S
C57 C56 1.373 . S
C57 C58 1.396 . S
C57 C64 1.403 . S
C58 C48 1.476 . S
C58 N53 1.318 . S
C58 C57 1.396 . S
H59 C54 0.929 . S
O60 Mn36 2.385 . S
O60 C38 1.234 . S
O61 Mn36 2.209 . S
O61 Mn37 2.215 . S
O61 C38 1.283 . S
O62 Mn36 2.094 . S
O62 C40 1.240 . S
O63 Mn37 2.117 . S
O63 C40 1.264 . S
C64 C57 1.403 . S
C64 C65 1.399 . S
C64 H70 0.929 . S
C65 C45 1.449 . S
C65 C64 1.399 . S
C65 H71 0.930 1_554 S
H66 C46 0.931 . S
H67 C47 0.930 . S
H68 C55 0.931 . S
H69 C56 0.929 . S
H70 C64 0.929 . S
H71 C65 0.930 1_556 S
Mn72 O77 2.095 . S
Mn72 O87 2.162 . S
Mn72 O88 2.297 . S
Mn72 O96 2.385 . S
Mn72 O97 2.209 . S
Mn72 O98 2.094 . S
Mn73 O78 2.121 . S
Mn73 N80 2.257 . S
Mn73 N89 2.282 . S
Mn73 O97 2.215 . S
Mn73 O99 2.117 . S
C74 O96 1.234 . S
C74 O97 1.283 . S
C75 O87 1.281 . S
C75 O88 1.236 . S
C76 O98 1.240 . S
C76 O99 1.264 . S
O77 Mn72 2.095 . S
O77 C86 1.250 . S
O78 Mn73 2.121 . S
O78 C86 1.258 . S
C79 N80 1.326 . S
C79 C83 1.460 1_556 S
C79 H85 0.929 . S
N80 Mn73 2.257 . S
N80 C79 1.326 . S
N80 C84 1.362 . S
C81 C82 1.258 1_556 S
C81 C84 1.431 . S
C81 C101 1.449 . S
C82 C81 1.258 1_554 S
C82 C83 1.477 . S
C82 H102 0.931 . S
C83 C79 1.460 1_554 S
C83 C82 1.477 . S
C83 H103 0.930 . S
C84 N80 1.362 . S
C84 C81 1.431 . S
C84 C94 1.476 . S
H85 C79 0.929 . S
C86 O77 1.250 . S
C86 O78 1.258 . S
O87 Mn72 2.162 . S
O87 C75 1.281 . S
O88 Mn72 2.297 . S
O88 C75 1.236 . S
N89 Mn73 2.282 . S
N89 C90 1.328 . S
N89 C94 1.318 . S
C90 N89 1.328 . S
C90 C91 1.457 . S
C90 H95 0.929 . S
C91 C90 1.457 . S
C91 C92 1.291 . S
C91 H104 0.931 . S
C92 C91 1.291 . S
C92 C93 1.373 . S
C92 H105 0.929 . S
C93 C92 1.373 . S
C93 C94 1.396 . S
C93 C100 1.403 . S
C94 C84 1.476 . S
C94 N89 1.318 . S
C94 C93 1.396 . S
H95 C90 0.929 . S
O96 Mn72 2.385 . S
O96 C74 1.234 . S
O97 Mn72 2.209 . S
O97 Mn73 2.215 . S
O97 C74 1.283 . S
O98 Mn72 2.094 . S
O98 C76 1.240 . S
O99 Mn73 2.117 . S
O99 C76 1.264 . S
C100 C93 1.403 . S
C100 C101 1.399 . S
C100 H106 0.929 . S
C101 C81 1.449 . S
C101 C100 1.399 . S
C101 H107 0.930 1_556 S
H102 C82 0.931 . S
H103 C83 0.930 . S
H104 C91 0.931 . S
H105 C92 0.929 . S
H106 C100 0.929 . S
H107 C101 0.930 1_554 S
Mn108 O113 2.095 . S
Mn108 O123 2.162 . S
Mn108 O124 2.297 . S
Mn108 O132 2.385 . S
Mn108 O133 2.209 . S
Mn108 O134 2.094 . S
Mn109 O114 2.121 . S
Mn109 N116 2.257 . S
Mn109 N125 2.282 . S
Mn109 O133 2.215 . S
Mn109 O135 2.117 . S
C110 O132 1.234 . S
C110 O133 1.283 . S
C111 O123 1.281 . S
C111 O124 1.236 . S
C112 O134 1.240 . S
C112 O135 1.264 . S
O113 Mn108 2.095 . S
O113 C122 1.250 . S
O114 Mn109 2.121 . S
O114 C122 1.258 . S
C115 N116 1.326 . S
C115 C119 1.460 1_556 S
C115 H121 0.929 . S
N116 Mn109 2.257 . S
N116 C115 1.326 . S
N116 C120 1.362 . S
C117 C118 1.258 1_556 S
C117 C120 1.431 . S
C117 C137 1.449 . S
C118 C117 1.258 1_554 S
C118 C119 1.477 . S
C118 H138 0.931 . S
C119 C115 1.460 1_554 S
C119 C118 1.477 . S
C119 H139 0.930 . S
C120 N116 1.362 . S
C120 C117 1.431 . S
C120 C130 1.476 . S
H121 C115 0.929 . S
C122 O113 1.250 . S
C122 O114 1.258 . S
O123 Mn108 2.162 . S
O123 C111 1.281 . S
O124 Mn108 2.297 . S
O124 C111 1.236 . S
N125 Mn109 2.282 . S
N125 C126 1.328 . S
N125 C130 1.318 . S
C126 N125 1.328 . S
C126 C127 1.457 . S
C126 H131 0.929 . S
C127 C126 1.457 . S
C127 C128 1.291 . S
C127 H140 0.931 . S
C128 C127 1.291 . S
C128 C129 1.373 . S
C128 H141 0.929 . S
C129 C128 1.373 . S
C129 C130 1.396 . S
C129 C136 1.403 . S
C130 C120 1.476 . S
C130 N125 1.318 . S
C130 C129 1.396 . S
H131 C126 0.929 . S
O132 Mn108 2.385 . S
O132 C110 1.234 . S
O133 Mn108 2.209 . S
O133 Mn109 2.215 . S
O133 C110 1.283 . S
O134 Mn108 2.094 . S
O134 C112 1.240 . S
O135 Mn109 2.117 . S
O135 C112 1.264 . S
C136 C129 1.403 . S
C136 C137 1.399 . S
C136 H142 0.929 . S
C137 C117 1.449 . S
C137 C136 1.399 . S
C137 H143 0.930 1_556 S
H138 C118 0.931 . S
H139 C119 0.930 . S
H140 C127 0.931 . S
H141 C128 0.929 . S
H142 C136 0.929 . S
H143 C137 0.930 1_554 S
H144 C152 0.929 . S
H145 C154 0.930 . S
H146 C156 0.930 . S
H147 C159 0.929 . S
H148 C162 0.930 . S
H149 C164 0.960 . S
H150 C164 0.960 . S
H151 C164 0.960 . S
C152 H144 0.929 . S
C152 C153 1.377 . S
C152 C154 1.384 . S
C153 C152 1.377 . S
C153 C159 1.390 . S
C154 H145 0.930 . S
C154 C152 1.384 . S
C154 C155 1.372 . S
C155 C154 1.372 . S
C155 C156 1.400 . S
C155 C160 1.490 . S
C156 H146 0.930 . S
C156 C155 1.400 . S
C156 C159 1.386 . S
H157 C173 0.930 . S
H158 C174 0.931 . S
C159 H147 0.929 . S
C159 C153 1.390 . S
C159 C156 1.386 . S
C160 C155 1.490 . S
C160 C162 1.395 . S
C160 C163 1.403 1_565 S
H161 C167 0.930 . S
C162 H148 0.930 . S
C162 C160 1.395 . S
C162 C165 1.403 . S
C163 C160 1.403 1_545 S
C163 C164 1.524 . S
C163 C167 1.400 . S
C164 H149 0.960 . S
C164 H150 0.960 . S
C164 H151 0.960 . S
C164 C163 1.524 . S
C165 C162 1.403 . S
C165 C166 1.392 1_565 S
C165 C169 1.495 . S
C166 C165 1.392 1_545 S
C166 C167 1.385 . S
C166 C168 1.478 . S
C167 H161 0.930 . S
C167 C163 1.400 . S
C167 C166 1.385 . S
C168 C166 1.478 . S
C168 C170 1.381 . S
C168 C174 1.383 . S
C169 C165 1.495 . S
C169 H175 0.959 . S
C169 H176 0.961 . S
C169 H177 0.960 . S
C170 C168 1.381 . S
C170 C171 1.394 . S
C170 H178 0.930 . S
C171 C170 1.394 . S
C171 C172 1.383 . S
C171 H179 0.929 . S
C172 C171 1.383 . S
C172 C173 1.377 . S
C173 H157 0.930 . S
C173 C172 1.377 . S
C173 C174 1.379 . S
C174 H158 0.931 . S
C174 C168 1.383 . S
C174 C173 1.379 . S
H175 C169 0.959 . S
H176 C169 0.961 . S
H177 C169 0.960 . S
H178 C170 0.930 . S
H179 C171 0.929 . S
H180 C188 0.929 . S
H181 C190 0.930 . S
H182 C192 0.930 . S
H183 C195 0.929 . S
H184 C198 0.930 . S
H185 C200 0.960 . S
H186 C200 0.960 . S
H187 C200 0.960 . S
C188 H180 0.929 . S
C188 C189 1.377 . S
C188 C190 1.384 . S
C189 C188 1.377 . S
C189 C195 1.390 . S
C190 H181 0.930 . S
C190 C188 1.384 . S
C190 C191 1.372 . S
C191 C190 1.372 . S
C191 C192 1.400 . S
C191 C196 1.490 . S
C192 H182 0.930 . S
C192 C191 1.400 . S
C192 C195 1.386 . S
H193 C209 0.930 . S
H194 C210 0.931 . S
C195 H183 0.929 . S
C195 C189 1.390 . S
C195 C192 1.386 . S
C196 C191 1.490 . S
C196 C198 1.395 . S
C196 C199 1.403 . S
H197 C203 0.930 . S
C198 H184 0.930 . S
C198 C196 1.395 . S
C198 C201 1.403 . S
C199 C196 1.403 . S
C199 C200 1.524 . S
C199 C203 1.400 . S
C200 H185 0.960 . S
C200 H186 0.960 . S
C200 H187 0.960 . S
C200 C199 1.524 . S
C201 C198 1.403 . S
C201 C202 1.392 . S
C201 C205 1.495 . S
C202 C201 1.392 . S
C202 C203 1.385 . S
C202 C204 1.478 . S
C203 H197 0.930 . S
C203 C199 1.400 . S
C203 C202 1.385 . S
C204 C202 1.478 . S
C204 C206 1.381 . S
C204 C210 1.383 . S
C205 C201 1.495 . S
C205 H211 0.959 . S
C205 H212 0.961 . S
C205 H213 0.960 . S
C206 C204 1.381 . S
C206 C207 1.394 . S
C206 H214 0.930 . S
C207 C206 1.394 . S
C207 C208 1.383 . S
C207 H215 0.929 . S
C208 C207 1.383 . S
C208 C209 1.377 . S
C209 H193 0.930 . S
C209 C208 1.377 . S
C209 C210 1.379 . S
C210 H194 0.931 . S
C210 C204 1.383 . S
C210 C209 1.379 . S
H211 C205 0.959 . S
H212 C205 0.961 . S
H213 C205 0.960 . S
H214 C206 0.930 . S
H215 C207 0.929 . S
H216 C224 0.929 . S
H217 C226 0.930 . S
H218 C228 0.930 . S
H219 C231 0.929 . S
H220 C234 0.929 1_545 S
H221 C236 0.960 . S
H222 C236 0.960 . S
H223 C236 0.960 . S
C224 H216 0.929 . S
C224 C225 1.377 . S
C224 C226 1.384 . S
C225 C224 1.377 . S
C225 C231 1.390 . S
C226 H217 0.930 . S
C226 C224 1.384 . S
C226 C227 1.372 . S
C227 C226 1.372 . S
C227 C228 1.400 . S
C227 C232 1.490 . S
C228 H218 0.930 . S
C228 C227 1.400 . S
C228 C231 1.386 . S
H229 C245 0.930 . S
H230 C246 0.931 . S
C231 H219 0.929 . S
C231 C225 1.390 . S
C231 C228 1.386 . S
C232 C227 1.490 . S
C232 C234 1.393 1_545 S
C232 C235 1.403 . S
H233 C239 0.930 . S
C234 H220 0.929 1_565 S
C234 C232 1.393 1_565 S
C234 C237 1.405 . S
C235 C232 1.403 . S
C235 C236 1.524 . S
C235 C239 1.400 1_545 S
C236 H221 0.960 . S
C236 H222 0.960 . S
C236 H223 0.960 . S
C236 C235 1.524 . S
C237 C234 1.405 . S
C237 C238 1.392 . S
C237 C241 1.495 . S
C238 C237 1.392 . S
C238 C239 1.385 . S
C238 C240 1.478 . S
C239 H233 0.930 . S
C239 C235 1.400 1_565 S
C239 C238 1.385 . S
C240 C238 1.478 . S
C240 C242 1.381 . S
C240 C246 1.383 . S
C241 C237 1.495 . S
C241 H247 0.959 . S
C241 H248 0.961 . S
C241 H249 0.960 . S
C242 C240 1.381 . S
C242 C243 1.394 . S
C242 H250 0.930 . S
C243 C242 1.394 . S
C243 C244 1.383 . S
C243 H251 0.929 . S
C244 C243 1.383 . S
C244 C245 1.377 . S
C245 H229 0.930 . S
C245 C244 1.377 . S
C245 C246 1.379 . S
C246 H230 0.931 . S
C246 C240 1.383 . S
C246 C245 1.379 . S
H247 C241 0.959 . S
H248 C241 0.961 . S
H249 C241 0.960 . S
H250 C242 0.930 . S
H251 C243 0.929 . S
H252 C260 0.929 . S
H253 C262 0.930 . S
H254 C264 0.930 . S
H255 C267 0.929 . S
H256 C270 0.930 . S
H257 C272 0.960 . S
H258 C272 0.960 . S
H259 C272 0.960 . S
C260 H252 0.929 . S
C260 C261 1.377 . S
C260 C262 1.384 . S
C261 C260 1.377 . S
C261 C267 1.390 . S
C262 H253 0.930 . S
C262 C260 1.384 . S
C262 C263 1.372 . S
C263 C262 1.372 . S
C263 C264 1.400 . S
C263 C268 1.490 . S
C264 H254 0.930 . S
C264 C263 1.400 . S
C264 C267 1.386 . S
H265 C281 0.930 . S
H266 C282 0.931 . S
C267 H255 0.929 . S
C267 C261 1.390 . S
C267 C264 1.386 . S
C268 C263 1.490 . S
C268 C270 1.395 . S
C268 C271 1.403 . S
H269 C275 0.930 . S
C270 H256 0.930 . S
C270 C268 1.395 . S
C270 C273 1.403 . S
C271 C268 1.403 . S
C271 C272 1.524 . S
C271 C275 1.400 . S
C272 H257 0.960 . S
C272 H258 0.960 . S
C272 H259 0.960 . S
C272 C271 1.524 . S
C273 C270 1.403 . S
C273 C274 1.392 . S
C273 C277 1.495 . S
C274 C273 1.392 . S
C274 C275 1.385 . S
C274 C276 1.478 . S
C275 H269 0.930 . S
C275 C271 1.400 . S
C275 C274 1.385 . S
C276 C274 1.478 . S
C276 C278 1.381 . S
C276 C282 1.383 . S
C277 C273 1.495 . S
C277 H283 0.959 . S
C277 H284 0.961 . S
C277 H285 0.960 . S
C278 C276 1.381 . S
C278 C279 1.394 . S
C278 H286 0.930 . S
C279 C278 1.394 . S
C279 C280 1.383 . S
C279 H287 0.929 . S
C280 C279 1.383 . S
C280 C281 1.377 . S
C281 H265 0.930 . S
C281 C280 1.377 . S
C281 C282 1.379 . S
C282 H266 0.931 . S
C282 C276 1.383 . S
C282 C281 1.379 . S
H283 C277 0.959 . S
H284 C277 0.961 . S
H285 C277 0.960 . S
H286 C278 0.930 . S
H287 C279 0.929 . S
H288 C296 0.929 . S
H289 C298 0.930 . S
H290 C300 0.930 . S
H291 C303 0.929 . S
H292 C306 0.930 . S
H293 C308 0.960 . S
H294 C308 0.960 . S
H295 C308 0.960 . S
C296 H288 0.929 . S
C296 C297 1.377 . S
C296 C298 1.384 . S
C297 C296 1.377 . S
C297 C303 1.390 . S
C298 H289 0.930 . S
C298 C296 1.384 . S
C298 C299 1.372 . S
C299 C298 1.372 . S
C299 C300 1.400 . S
C299 C304 1.490 . S
C300 H290 0.930 . S
C300 C299 1.400 . S
C300 C303 1.386 . S
H301 C317 0.930 . S
H302 C318 0.931 . S
C303 H291 0.929 . S
C303 C297 1.390 . S
C303 C300 1.386 . S
C304 C299 1.490 . S
C304 C306 1.395 1_545 S
C304 C307 1.403 1_554 S
H305 C311 0.930 . S
C306 H292 0.930 . S
C306 C304 1.395 1_565 S
C306 C309 1.403 1_455 S
C307 C304 1.403 1_556 S
C307 C308 1.524 . S
C307 C311 1.400 1_455 S
C308 H293 0.960 . S
C308 H294 0.960 . S
C308 H295 0.960 . S
C308 C307 1.524 . S
C309 C306 1.403 1_655 S
C309 C310 1.392 1_554 S
C309 C313 1.495 . S
C310 C309 1.392 1_556 S
C310 C311 1.385 1_565 S
C310 C312 1.478 . S
C311 H305 0.930 . S
C311 C307 1.400 1_655 S
C311 C310 1.385 1_545 S
C312 C310 1.478 . S
C312 C314 1.381 . S
C312 C318 1.383 . S
C313 C309 1.495 . S
C313 H319 0.959 . S
C313 H320 0.961 . S
C313 H321 0.960 . S
C314 C312 1.381 . S
C314 C315 1.394 . S
C314 H322 0.930 . S
C315 C314 1.394 . S
C315 C316 1.383 . S
C315 H323 0.929 . S
C316 C315 1.383 . S
C316 C317 1.377 . S
C317 H301 0.930 . S
C317 C316 1.377 . S
C317 C318 1.379 . S
C318 H302 0.931 . S
C318 C312 1.383 . S
C318 C317 1.379 . S
H319 C313 0.959 . S
H320 C313 0.961 . S
H321 C313 0.960 . S
H322 C314 0.930 . S
H323 C315 0.929 . S
H324 C332 0.929 . S
H325 C334 0.930 . S
H326 C336 0.930 . S
H327 C339 0.929 . S
H328 C342 0.930 . S
H329 C344 0.960 . S
H330 C344 0.960 . S
H331 C344 0.960 1_545 S
C332 H324 0.929 . S
C332 C333 1.377 . S
C332 C334 1.384 . S
C333 C332 1.377 . S
C333 C339 1.390 . S
C334 H325 0.930 . S
C334 C332 1.384 . S
C334 C335 1.372 . S
C335 C334 1.372 . S
C335 C336 1.400 . S
C335 C340 1.490 . S
C336 H326 0.930 . S
C336 C335 1.400 . S
C336 C339 1.386 . S
H337 C353 0.930 . S
H338 C354 0.931 . S
C339 H327 0.929 . S
C339 C333 1.390 . S
C339 C336 1.386 . S
C340 C335 1.490 . S
C340 C342 1.395 1_556 S
C340 C343 1.403 1_545 S
H341 C347 0.930 . S
C342 H328 0.930 . S
C342 C340 1.395 1_554 S
C342 C345 1.403 . S
C343 C340 1.403 1_565 S
C343 C344 1.524 . S
C343 C347 1.400 . S
C344 H329 0.960 . S
C344 H330 0.960 . S
C344 H331 0.960 1_565 S
C344 C343 1.524 . S
C345 C342 1.403 . S
C345 C346 1.392 1_545 S
C345 C349 1.495 . S
C346 C345 1.392 1_565 S
C346 C347 1.385 1_554 S
C346 C348 1.478 . S
C347 H341 0.930 . S
C347 C343 1.400 . S
C347 C346 1.385 1_556 S
C348 C346 1.478 . S
C348 C350 1.381 . S
C348 C354 1.383 . S
C349 C345 1.495 . S
C349 H355 0.959 . S
C349 H356 0.961 . S
C349 H357 0.960 1_545 S
C350 C348 1.381 . S
C350 C351 1.394 . S
C350 H358 0.930 . S
C351 C350 1.394 . S
C351 C352 1.383 . S
C351 H359 0.929 . S
C352 C351 1.383 . S
C352 C353 1.377 . S
C353 H337 0.930 . S
C353 C352 1.377 . S
C353 C354 1.379 . S
C354 H338 0.931 . S
C354 C348 1.383 . S
C354 C353 1.379 . S
H355 C349 0.959 . S
H356 C349 0.961 . S
H357 C349 0.960 1_565 S
H358 C350 0.930 . S
H359 C351 0.929 . S
H360 C368 0.929 . S
H361 C370 0.930 . S
H362 C372 0.930 . S
H363 C375 0.929 . S
H364 C378 0.930 . S
H365 C380 0.960 . S
H366 C380 0.960 . S
H367 C380 0.960 . S
C368 H360 0.929 . S
C368 C369 1.377 . S
C368 C370 1.384 . S
C369 C368 1.377 . S
C369 C375 1.390 . S
C370 H361 0.930 . S
C370 C368 1.384 . S
C370 C371 1.372 . S
C371 C370 1.372 . S
C371 C372 1.400 . S
C371 C376 1.490 . S
C372 H362 0.930 . S
C372 C371 1.400 . S
C372 C375 1.386 . S
H373 C389 0.930 . S
H374 C390 0.931 . S
C375 H363 0.929 . S
C375 C369 1.390 . S
C375 C372 1.386 . S
C376 C371 1.490 . S
C376 C378 1.395 . S
C376 C379 1.403 1_655 S
H377 C383 0.930 . S
C378 H364 0.930 . S
C378 C376 1.395 . S
C378 C381 1.403 . S
C379 C376 1.403 1_455 S
C379 C380 1.524 . S
C379 C383 1.400 . S
C380 H365 0.960 . S
C380 H366 0.960 . S
C380 H367 0.960 . S
C380 C379 1.524 . S
C381 C378 1.403 . S
C381 C382 1.392 1_655 S
C381 C385 1.495 . S
C382 C381 1.392 1_455 S
C382 C383 1.385 . S
C382 C384 1.478 . S
C383 H377 0.930 . S
C383 C379 1.400 . S
C383 C382 1.385 . S
C384 C382 1.478 . S
C384 C386 1.381 . S
C384 C390 1.383 . S
C385 C381 1.495 . S
C385 H391 0.959 . S
C385 H392 0.961 . S
C385 H393 0.960 . S
C386 C384 1.381 . S
C386 C387 1.394 . S
C386 H394 0.930 . S
C387 C386 1.394 . S
C387 C388 1.383 . S
C387 H395 0.929 . S
C388 C387 1.383 . S
C388 C389 1.377 . S
C389 H373 0.930 . S
C389 C388 1.377 . S
C389 C390 1.379 . S
C390 H374 0.931 . S
C390 C384 1.383 . S
C390 C389 1.379 . S
H391 C385 0.959 . S
H392 C385 0.961 . S
H393 C385 0.960 . S
H394 C386 0.930 . S
H395 C387 0.929 . S
H396 C404 0.929 . S
H397 C406 0.930 . S
H398 C408 0.930 . S
H399 C411 0.929 . S
H400 C414 0.930 . S
H401 C416 0.960 . S
H402 C416 0.960 . S
H403 C416 0.960 . S
C404 H396 0.929 . S
C404 C405 1.377 . S
C404 C406 1.384 . S
C405 C404 1.377 . S
C405 C411 1.390 . S
C406 H397 0.930 . S
C406 C404 1.384 . S
C406 C407 1.372 . S
C407 C406 1.372 . S
C407 C408 1.400 . S
C407 C412 1.490 . S
C408 H398 0.930 . S
C408 C407 1.400 . S
C408 C411 1.386 . S
H409 C425 0.930 . S
H410 C426 0.931 . S
C411 H399 0.929 . S
C411 C405 1.390 . S
C411 C408 1.386 . S
C412 C407 1.490 . S
C412 C414 1.395 . S
C412 C415 1.403 . S
H413 C419 0.930 . S
C414 H400 0.930 . S
C414 C412 1.395 . S
C414 C417 1.403 . S
C415 C412 1.403 . S
C415 C416 1.524 . S
C415 C419 1.400 . S
C416 H401 0.960 . S
C416 H402 0.960 . S
C416 H403 0.960 . S
C416 C415 1.524 . S
C417 C414 1.403 . S
C417 C418 1.392 . S
C417 C421 1.495 . S
C418 C417 1.392 . S
C418 C419 1.385 . S
C418 C420 1.478 . S
C419 H413 0.930 . S
C419 C415 1.400 . S
C419 C418 1.385 . S
C420 C418 1.478 . S
C420 C422 1.381 . S
C420 C426 1.383 . S
C421 C417 1.495 . S
C421 H427 0.959 . S
C421 H428 0.961 . S
C421 H429 0.960 . S
C422 C420 1.381 . S
C422 C423 1.394 . S
C422 H430 0.930 . S
C423 C422 1.394 . S
C423 C424 1.383 . S
C423 H431 0.929 . S
C424 C423 1.383 . S
C424 C425 1.377 . S
C425 H409 0.930 . S
C425 C424 1.377 . S
C425 C426 1.379 . S
C426 H410 0.931 . S
C426 C420 1.383 . S
C426 C425 1.379 . S
H427 C421 0.959 . S
H428 C421 0.961 . S
H429 C421 0.960 . S
H430 C422 0.930 . S
H431 C423 0.929 . S
C153 C40 0.821 . S
C172 C4 0.833 . S
C189 C2 0.723 . S
C208 C38 0.673 . S
C225 C112 0.813 . S
C244 C76 0.773 . S
C261 C74 0.719 . S
C280 C110 0.763 . S
C297 C14 1.468 . S
C316 C86 1.478 . S
C333 C122 1.467 . S
C352 C50 1.467 . S
C369 C75 1.544 . S
C388 C3 1.542 . S
C405 C39 1.546 . S
C424 C111 1.554 . S
