# Generated by pormake.
# Topology whz, (6)-cn, num edge types: 1
# Building blocks:
#     Node 0, Type 0, BuildingBlock: UKALOJ_clean_sbu_0, # of connection points: 6
#     Node 1, Type 0, BuildingBlock: UKALOJ_clean_sbu_0, # of connection points: 6
#     Node 2, Type 0, BuildingBlock: UKALOJ_clean_sbu_0, # of connection points: 6
#     Node 3, Type 0, BuildingBlock: UKALOJ_clean_sbu_0, # of connection points: 6
#     Node 4, Type 0, BuildingBlock: UKALOJ_clean_sbu_0, # of connection points: 6
#     Node 5, Type 0, BuildingBlock: UKALOJ_clean_sbu_0, # of connection points: 6
#     Node 6, Type 0, BuildingBlock: UKALOJ_clean_sbu_0, # of connection points: 6
#     Node 7, Type 0, BuildingBlock: UKALOJ_clean_sbu_0, # of connection points: 6
#     Node 8, Type 0, BuildingBlock: UKALOJ_clean_sbu_0, # of connection points: 6
#     Node 9, Type 0, BuildingBlock: UKALOJ_clean_sbu_0, # of connection points: 6
#     Node 10, Type 0, BuildingBlock: UKALOJ_clean_sbu_0, # of connection points: 6
#     Node 11, Type 0, BuildingBlock: UKALOJ_clean_sbu_0, # of connection points: 6
#     Node 12, Type 0, BuildingBlock: UKALOJ_clean_sbu_0, # of connection points: 6
#     Node 13, Type 0, BuildingBlock: UKALOJ_clean_sbu_0, # of connection points: 6
#     Node 14, Type 0, BuildingBlock: UKALOJ_clean_sbu_0, # of connection points: 6
#     Node 15, Type 0, BuildingBlock: UKALOJ_clean_sbu_0, # of connection points: 6
#     Edge 16, Type (0, 0), BuildingBlock: XUDNAN_clean_linker_2, # of connection points: 2
#     Edge 17, Type (0, 0), BuildingBlock: XUDNAN_clean_linker_2, # of connection points: 2
#     Edge 18, Type (0, 0), BuildingBlock: XUDNAN_clean_linker_2, # of connection points: 2
#     Edge 19, Type (0, 0), BuildingBlock: XUDNAN_clean_linker_2, # of connection points: 2
#     Edge 20, Type (0, 0), BuildingBlock: XUDNAN_clean_linker_2, # of connection points: 2
#     Edge 21, Type (0, 0), BuildingBlock: XUDNAN_clean_linker_2, # of connection points: 2
#     Edge 22, Type (0, 0), BuildingBlock: XUDNAN_clean_linker_2, # of connection points: 2
#     Edge 23, Type (0, 0), BuildingBlock: XUDNAN_clean_linker_2, # of connection points: 2
#     Edge 24, Type (0, 0), BuildingBlock: XUDNAN_clean_linker_2, # of connection points: 2
#     Edge 25, Type (0, 0), BuildingBlock: XUDNAN_clean_linker_2, # of connection points: 2
#     Edge 26, Type (0, 0), BuildingBlock: XUDNAN_clean_linker_2, # of connection points: 2
#     Edge 27, Type (0, 0), BuildingBlock: XUDNAN_clean_linker_2, # of connection points: 2
#     Edge 28, Type (0, 0), BuildingBlock: XUDNAN_clean_linker_2, # of connection points: 2
#     Edge 29, Type (0, 0), BuildingBlock: XUDNAN_clean_linker_2, # of connection points: 2
#     Edge 30, Type (0, 0), BuildingBlock: XUDNAN_clean_linker_2, # of connection points: 2
#     Edge 31, Type (0, 0), BuildingBlock: XUDNAN_clean_linker_2, # of connection points: 2
#     Edge 32, Type (0, 0), BuildingBlock: XUDNAN_clean_linker_2, # of connection points: 2
#     Edge 33, Type (0, 0), BuildingBlock: XUDNAN_clean_linker_2, # of connection points: 2
#     Edge 34, Type (0, 0), BuildingBlock: XUDNAN_clean_linker_2, # of connection points: 2
#     Edge 35, Type (0, 0), BuildingBlock: XUDNAN_clean_linker_2, # of connection points: 2
#     Edge 36, Type (0, 0), BuildingBlock: XUDNAN_clean_linker_2, # of connection points: 2
#     Edge 37, Type (0, 0), BuildingBlock: XUDNAN_clean_linker_2, # of connection points: 2
#     Edge 38, Type (0, 0), BuildingBlock: XUDNAN_clean_linker_2, # of connection points: 2
#     Edge 39, Type (0, 0), BuildingBlock: XUDNAN_clean_linker_2, # of connection points: 2
#     Edge 40, Type (0, 0), BuildingBlock: XUDNAN_clean_linker_2, # of connection points: 2
#     Edge 41, Type (0, 0), BuildingBlock: XUDNAN_clean_linker_2, # of connection points: 2
#     Edge 42, Type (0, 0), BuildingBlock: XUDNAN_clean_linker_2, # of connection points: 2
#     Edge 43, Type (0, 0), BuildingBlock: XUDNAN_clean_linker_2, # of connection points: 2
#     Edge 44, Type (0, 0), BuildingBlock: XUDNAN_clean_linker_2, # of connection points: 2
#     Edge 45, Type (0, 0), BuildingBlock: XUDNAN_clean_linker_2, # of connection points: 2
#     Edge 46, Type (0, 0), BuildingBlock: XUDNAN_clean_linker_2, # of connection points: 2
#     Edge 47, Type (0, 0), BuildingBlock: XUDNAN_clean_linker_2, # of connection points: 2
#     Edge 48, Type (0, 0), BuildingBlock: XUDNAN_clean_linker_2, # of connection points: 2
#     Edge 49, Type (0, 0), BuildingBlock: XUDNAN_clean_linker_2, # of connection points: 2
#     Edge 50, Type (0, 0), BuildingBlock: XUDNAN_clean_linker_2, # of connection points: 2
#     Edge 51, Type (0, 0), BuildingBlock: XUDNAN_clean_linker_2, # of connection points: 2
#     Edge 52, Type (0, 0), BuildingBlock: XUDNAN_clean_linker_2, # of connection points: 2
#     Edge 53, Type (0, 0), BuildingBlock: XUDNAN_clean_linker_2, # of connection points: 2
#     Edge 54, Type (0, 0), BuildingBlock: XUDNAN_clean_linker_2, # of connection points: 2
#     Edge 55, Type (0, 0), BuildingBlock: XUDNAN_clean_linker_2, # of connection points: 2
#     Edge 56, Type (0, 0), BuildingBlock: XUDNAN_clean_linker_2, # of connection points: 2
#     Edge 57, Type (0, 0), BuildingBlock: XUDNAN_clean_linker_2, # of connection points: 2
#     Edge 58, Type (0, 0), BuildingBlock: XUDNAN_clean_linker_2, # of connection points: 2
#     Edge 59, Type (0, 0), BuildingBlock: XUDNAN_clean_linker_2, # of connection points: 2
#     Edge 60, Type (0, 0), BuildingBlock: XUDNAN_clean_linker_2, # of connection points: 2
#     Edge 61, Type (0, 0), BuildingBlock: XUDNAN_clean_linker_2, # of connection points: 2
#     Edge 62, Type (0, 0), BuildingBlock: XUDNAN_clean_linker_2, # of connection points: 2
#     Edge 63, Type (0, 0), BuildingBlock: XUDNAN_clean_linker_2, # of connection points: 2
# Relax obj value: 0.341
# Max RMSD: 0.234
# Mean RMSD: 0.234
data_MOF--net-whz--node1-UKALOJ_clean_sbu_0--edge1-XUDNAN_clean_linker_2
_symmetry_space_group_name_H-M    P1
_symmetry_Int_Tables_number       1
_symmetry_cell_setting            triclinic
loop_
_symmetry_equiv_pos_as_xyz
'x, y, z'
_cell_length_a     41.213375
_cell_length_b     41.246006
_cell_length_c     46.952246
_cell_angle_alpha  89.936129
_cell_angle_beta   90.039805
_cell_angle_gamma 90.178813
loop_
_atom_site_label
_atom_site_type_symbol
_atom_site_fract_x
_atom_site_fract_y
_atom_site_fract_z
_atom_type_partial_charge
Zn0 Zn 0.31011 0.16138 0.1242 0.0
O1 O 0.31391 0.19174 0.16111 0.0
C2 C 0.30894 0.10157 0.16025 0.0
Zn3 Zn 0.25981 0.14781 0.13756 0.0
C4 C 0.2904 0.19293 0.17866 0.0
O5 O 0.26578 0.17502 0.17464 0.0
C6 C 0.27583 0.1206 0.08079 0.0
O7 O 0.24158 0.18907 0.11738 0.0
O8 O 0.2904 0.20166 0.10211 0.0
N9 N 0.21413 0.13604 0.15113 0.0
C10 C 0.1965 0.1085 0.14944 0.0
C11 C 0.16826 0.14306 0.17227 0.0
N12 N 0.19656 0.15741 0.16536 0.0
N13 N 0.16766 0.11229 0.16272 0.0
C14 C 0.3833 0.18542 0.12326 0.0
C15 C 0.39363 0.18222 0.0789 0.0
N16 N 0.35605 0.17447 0.11029 0.0
N17 N 0.36267 0.17264 0.08274 0.0
N18 N 0.40709 0.19063 0.10395 0.0
H19 H 0.37336 0.17007 0.16611 0.0
H20 H 0.3771 0.21322 0.16113 0.0
H21 H 0.41299 0.18844 0.16108 0.0
C22 C 0.38705 0.18934 0.15477 0.0
C23 C 0.20633 0.07954 0.13221 0.0
H24 H 0.20241 0.08504 0.10933 0.0
H25 H 0.19193 0.05768 0.13744 0.0
H26 H 0.23246 0.07438 0.13529 0.0
O27 O 0.25341 0.12231 0.09927 0.0
O28 O 0.30359 0.13266 0.08643 0.0
C29 C 0.26024 0.20795 0.10362 0.0
O30 O 0.3289 0.12022 0.1474 0.0
O31 O 0.27871 0.1072 0.15858 0.0
Zn32 Zn 0.5923 0.55297 0.36977 0.0
O33 O 0.56594 0.54789 0.40957 0.0
C34 C 0.65429 0.56019 0.40247 0.0
Zn35 Zn 0.61776 0.50575 0.37637 0.0
C36 C 0.57063 0.52114 0.42255 0.0
O37 O 0.59137 0.50155 0.41291 0.0
C38 C 0.63716 0.5329 0.32172 0.0
O39 O 0.58004 0.48135 0.35517 0.0
O40 O 0.55393 0.52733 0.34966 0.0
N41 N 0.63865 0.46242 0.38655 0.0
C42 C 0.65057 0.43759 0.37117 0.0
C43 C 0.65316 0.42389 0.41494 0.0
N44 N 0.64034 0.4538 0.4137 0.0
N45 N 0.6597 0.41315 0.38855 0.0
C46 C 0.56776 0.62545 0.37402 0.0
C47 C 0.53609 0.62795 0.33821 0.0
N48 N 0.56887 0.59628 0.36092 0.0
N49 N 0.54915 0.59804 0.33869 0.0
N50 N 0.54741 0.64574 0.36012 0.0
H51 H 0.5859 0.61142 0.41516 0.0
H52 H 0.57254 0.65314 0.41282 0.0
H53 H 0.6101 0.64093 0.39646 0.0
C54 C 0.58489 0.63321 0.40132 0.0
C55 C 0.65154 0.43666 0.33928 0.0
H56 H 0.62986 0.44879 0.33027 0.0
H57 H 0.65267 0.41136 0.33136 0.0
H58 H 0.67342 0.4499 0.33182 0.0
O59 O 0.64373 0.51001 0.33884 0.0
O60 O 0.61714 0.55489 0.32916 0.0
C61 C 0.55523 0.49675 0.34667 0.0
O62 O 0.63199 0.57737 0.39128 0.0
O63 O 0.65413 0.52972 0.3989 0.0
Zn64 Zn 0.19767 0.85019 0.62611 0.0
O65 O 0.20515 0.83011 0.66765 0.0
C66 C 0.19852 0.91786 0.65198 0.0
Zn67 Zn 0.24642 0.87412 0.62783 0.0
C68 C 0.23176 0.83662 0.68028 0.0
O69 O 0.2523 0.85513 0.66838 0.0
C70 C 0.21644 0.8854 0.57214 0.0
O71 O 0.26404 0.83029 0.61067 0.0
O72 O 0.21603 0.80698 0.60854 0.0
N73 N 0.29278 0.8916 0.62839 0.0
C74 C 0.3093 0.91093 0.64652 0.0
C75 C 0.34196 0.89707 0.61354 0.0
N76 N 0.31313 0.88308 0.60795 0.0
N77 N 0.34024 0.91477 0.63759 0.0
C78 C 0.13654 0.80353 0.62714 0.0
C79 C 0.09829 0.83749 0.62113 0.0
N80 N 0.15035 0.8332 0.62477 0.0
N81 N 0.12644 0.85415 0.62109 0.0
N82 N 0.10379 0.80558 0.62484 0.0
H83 H 0.16307 0.76214 0.61303 0.0
H84 H 0.13971 0.75538 0.64498 0.0
H85 H 0.17697 0.77866 0.64624 0.0
C86 C 0.15508 0.77315 0.63339 0.0
C87 C 0.29556 0.92459 0.6735 0.0
H88 H 0.31474 0.9272 0.68994 0.0
H89 H 0.27586 0.90903 0.68192 0.0
H90 H 0.28525 0.94889 0.66901 0.0
O91 O 0.24122 0.89167 0.58712 0.0
O92 O 0.19275 0.86977 0.58306 0.0
C93 C 0.24652 0.80584 0.60471 0.0
O94 O 0.18055 0.89377 0.64563 0.0
O95 O 0.22833 0.91746 0.64526 0.0
Zn96 Zn 0.89409 0.49782 0.88111 0.0
O97 O 0.93757 0.51241 0.86148 0.0
C98 C 0.87068 0.47734 0.82386 0.0
Zn99 Zn 0.90882 0.44688 0.87107 0.0
C100 C 0.95803 0.49302 0.8507 0.0
O101 O 0.95192 0.46279 0.85057 0.0
C102 C 0.84602 0.45256 0.9044 0.0
O103 O 0.93414 0.44493 0.9099 0.0
O104 O 0.91943 0.49457 0.92022 0.0
N105 N 0.92018 0.39874 0.86367 0.0
C106 C 0.94881 0.3828 0.8635 0.0
C107 C 0.91158 0.34749 0.85755 0.0
N108 N 0.89714 0.37667 0.86 0.0
N109 N 0.94404 0.35064 0.8596 0.0
C110 C 0.85652 0.5626 0.89156 0.0
C111 C 0.8954 0.59459 0.90217 0.0
N112 N 0.88426 0.54538 0.89005 0.0
N113 N 0.90832 0.56534 0.89667 0.0
N114 N 0.86287 0.59358 0.89931 0.0
H115 H 0.82574 0.52899 0.86883 0.0
H116 H 0.80825 0.56857 0.87457 0.0
H117 H 0.81178 0.54018 0.90362 0.0
C118 C 0.82371 0.54938 0.88402 0.0
C119 C 0.98118 0.39834 0.86891 0.0
H120 H 0.97885 0.42035 0.88214 0.0
H121 H 0.9921 0.40544 0.84824 0.0
H122 H 0.99782 0.38114 0.87968 0.0
O123 O 0.86552 0.43218 0.8934 0.0
O124 O 0.85133 0.48269 0.90143 0.0
C125 C 0.93527 0.46917 0.9265 0.0
O126 O 0.87025 0.50079 0.84142 0.0
O127 O 0.8841 0.45069 0.83095 0.0
Zn128 Zn 0.75177 0.86621 0.87483 0.0
O129 O 0.76981 0.82296 0.89288 0.0
C130 C 0.73279 0.88883 0.93312 0.0
Zn131 Zn 0.70166 0.85019 0.88712 0.0
C132 C 0.75117 0.80166 0.90379 0.0
O133 O 0.72086 0.80719 0.90543 0.0
C134 C 0.7025 0.913 0.85442 0.0
O135 O 0.6997 0.8253 0.84734 0.0
O136 O 0.74881 0.84171 0.83607 0.0
N137 N 0.65472 0.83613 0.89773 0.0
C138 C 0.6358 0.81106 0.8894 0.0
C139 C 0.60753 0.8397 0.9177 0.0
N140 N 0.63704 0.85376 0.91545 0.0
N141 N 0.60619 0.81278 0.90156 0.0
C142 C 0.82436 0.88737 0.87986 0.0
C143 C 0.83318 0.90625 0.83833 0.0
N144 N 0.79726 0.8824 0.8643 0.0
N145 N 0.80288 0.89403 0.8385 0.0
N146 N 0.84734 0.90277 0.86406 0.0
H147 H 0.81168 0.85557 0.9148 0.0
H148 H 0.8535 0.86796 0.91405 0.0
H149 H 0.82204 0.89597 0.92479 0.0
C150 C 0.82823 0.87594 0.91002 0.0
C151 C 0.64671 0.78402 0.8706 0.0
H152 H 0.67227 0.77785 0.87551 0.0
H153 H 0.63131 0.76215 0.87358 0.0
H154 H 0.64483 0.79185 0.84805 0.0
O155 O 0.68305 0.8937 0.86708 0.0
O156 O 0.73276 0.90758 0.85533 0.0
C157 C 0.72382 0.82492 0.83038 0.0
O158 O 0.75498 0.89029 0.9144 0.0
O159 O 0.70647 0.87395 0.92743 0.0
Zn160 Zn 0.37489 0.49901 0.6165 0.0
O161 O 0.41625 0.52296 0.63009 0.0
C162 C 0.35804 0.48607 0.67652 0.0
Zn163 Zn 0.39521 0.45124 0.63031 0.0
C164 C 0.44027 0.50795 0.64062 0.0
O165 O 0.43859 0.47723 0.64396 0.0
C166 C 0.33009 0.44435 0.60252 0.0
O167 O 0.4167 0.44459 0.58974 0.0
O168 O 0.39731 0.49172 0.5769 0.0
N169 N 0.4136 0.40696 0.64439 0.0
C170 C 0.44001 0.38969 0.63666 0.0
C171 C 0.41323 0.36039 0.6657 0.0
N172 N 0.39717 0.38867 0.66263 0.0
N173 N 0.44021 0.36032 0.64953 0.0
C174 C 0.34992 0.5705 0.61044 0.0
C175 C 0.33905 0.57126 0.56598 0.0
N176 N 0.35622 0.5407 0.60012 0.0
N177 N 0.34927 0.54127 0.57256 0.0
N178 N 0.3391 0.58998 0.58939 0.0
H179 H 0.35947 0.60733 0.64204 0.0
H180 H 0.33399 0.57427 0.65351 0.0
H181 H 0.37686 0.56791 0.64966 0.0
C182 C 0.35562 0.58074 0.64062 0.0
C183 C 0.46644 0.40208 0.61766 0.0
H184 H 0.46789 0.4289 0.61839 0.0
H185 H 0.49015 0.39166 0.62406 0.0
H186 H 0.46137 0.39438 0.59554 0.0
O187 O 0.35166 0.42701 0.61465 0.0
O188 O 0.33375 0.47487 0.60194 0.0
C189 C 0.41402 0.46687 0.57118 0.0
O190 O 0.35389 0.50671 0.65671 0.0
O191 O 0.37331 0.45987 0.67137 0.0
Zn192 Zn 0.80459 0.14631 0.38135 0.0
O193 O 0.80202 0.1635 0.33792 0.0
C194 C 0.80638 0.07976 0.36037 0.0
Zn195 Zn 0.75419 0.12798 0.37577 0.0
C196 C 0.77712 0.15706 0.32276 0.0
O197 O 0.75418 0.14039 0.33327 0.0
C198 C 0.77787 0.11895 0.43538 0.0
O199 O 0.73297 0.1736 0.38532 0.0
O200 O 0.78294 0.19021 0.3931 0.0
N201 N 0.71034 0.10546 0.37245 0.0
C202 C 0.6812 0.11231 0.36082 0.0
C203 C 0.67797 0.06513 0.37921 0.0
N204 N 0.70815 0.0762 0.38384 0.0
N205 N 0.66035 0.08719 0.36479 0.0
C206 C 0.87501 0.17411 0.37054 0.0
C207 C 0.88473 0.19562 0.41086 0.0
N208 N 0.84919 0.16796 0.38747 0.0
N209 N 0.85542 0.18135 0.41247 0.0
N210 N 0.89775 0.19172 0.38474 0.0
H211 H 0.86915 0.18007 0.32562 0.0
H212 H 0.90382 0.15596 0.33576 0.0
H213 H 0.86326 0.13931 0.33789 0.0
C214 C 0.87812 0.16148 0.34077 0.0
C215 C 0.67399 0.14295 0.34487 0.0
H216 H 0.69647 0.1546 0.33704 0.0
H217 H 0.65759 0.13798 0.32662 0.0
H218 H 0.66199 0.16033 0.35945 0.0
O219 O 0.75374 0.11607 0.4189 0.0
O220 O 0.80463 0.12972 0.42555 0.0
C221 C 0.75283 0.19633 0.39114 0.0
O222 O 0.82586 0.10233 0.36738 0.0
O223 O 0.7761 0.08361 0.36404 0.0
Zn224 Zn 0.12766 0.5071 0.13173 0.0
O225 O 0.08967 0.47711 0.14681 0.0
C226 C 0.13491 0.53592 0.18858 0.0
Zn227 Zn 0.09758 0.55169 0.13501 0.0
C228 C 0.06255 0.49034 0.15222 0.0
O229 O 0.05971 0.52094 0.15001 0.0
C230 C 0.1622 0.56679 0.11095 0.0
O231 O 0.07898 0.5448 0.0934 0.0
O232 O 0.10984 0.50166 0.09015 0.0
N233 N 0.06784 0.59111 0.14117 0.0
C234 C 0.06755 0.62171 0.13091 0.0
C235 C 0.02851 0.61774 0.16047 0.0
N236 N 0.04344 0.58877 0.15943 0.0
N237 N 0.04321 0.63886 0.1428 0.0
C238 C 0.15508 0.43923 0.11487 0.0
C239 C 0.20537 0.44705 0.12342 0.0
N240 N 0.1581 0.46903 0.12636 0.0
N241 N 0.18931 0.47368 0.13179 0.0
N242 N 0.18447 0.42514 0.11266 0.0
H243 H 0.10471 0.44316 0.10204 0.0
H244 H 0.12783 0.41212 0.08386 0.0
H245 H 0.11539 0.4064 0.12014 0.0
C246 C 0.12389 0.42468 0.10446 0.0
C247 C 0.08963 0.6341 0.10801 0.0
H248 H 0.07926 0.65581 0.09746 0.0
H249 H 0.11334 0.64083 0.11755 0.0
H250 H 0.09363 0.61498 0.0918 0.0
O251 O 0.13592 0.58088 0.11773 0.0
O252 O 0.16528 0.53679 0.11599 0.0
C253 C 0.08854 0.52022 0.07941 0.0
O254 O 0.14435 0.5124 0.17339 0.0
O255 O 0.11581 0.55699 0.17806 0.0
Zn256 Zn 0.80344 0.65548 0.62387 0.0
O257 O 0.80631 0.67737 0.66532 0.0
C258 C 0.80688 0.59029 0.65072 0.0
Zn259 Zn 0.75387 0.63565 0.63334 0.0
C260 C 0.78232 0.6723 0.68184 0.0
O261 O 0.75846 0.65546 0.67333 0.0
C262 C 0.77168 0.6199 0.57457 0.0
O263 O 0.73207 0.67975 0.61926 0.0
O264 O 0.78087 0.69816 0.60895 0.0
N265 N 0.71042 0.6156 0.64561 0.0
C266 C 0.67979 0.61652 0.6355 0.0
C267 C 0.68004 0.58379 0.6707 0.0
N268 N 0.71038 0.5953 0.6675 0.0
N269 N 0.6603 0.59669 0.6509 0.0
C270 C 0.8761 0.68072 0.6259 0.0
C271 C 0.8852 0.68835 0.58172 0.0
N272 N 0.84835 0.67352 0.61181 0.0
N273 N 0.85419 0.67843 0.5844 0.0
N274 N 0.89951 0.69013 0.60745 0.0
H275 H 0.87119 0.69866 0.66825 0.0
H276 H 0.90671 0.67408 0.6628 0.0
H277 H 0.86689 0.65542 0.66513 0.0
C278 C 0.88066 0.6768 0.65734 0.0
C279 C 0.66961 0.63537 0.60974 0.0
H280 H 0.69017 0.63829 0.59475 0.0
H281 H 0.66168 0.65987 0.61651 0.0
H282 H 0.64906 0.62322 0.59876 0.0
O283 O 0.7493 0.61569 0.59275 0.0
O284 O 0.79761 0.63467 0.58184 0.0
C285 C 0.75034 0.70252 0.61018 0.0
O286 O 0.82554 0.61206 0.64054 0.0
O287 O 0.77641 0.59368 0.64869 0.0
Zn288 Zn 0.10572 0.05748 0.87808 0.0
O289 O 0.08308 0.06215 0.91878 0.0
C290 C 0.1728 0.0707 0.89988 0.0
Zn291 Zn 0.132 0.01359 0.89065 0.0
C292 C 0.09511 0.04434 0.93823 0.0
O293 O 0.11778 0.02489 0.932 0.0
C294 C 0.14153 0.02354 0.8302 0.0
O295 O 0.08838 0.98756 0.88629 0.0
O296 O 0.06506 0.02894 0.86509 0.0
N297 N 0.1557 0.97449 0.90698 0.0
C298 C 0.15818 0.94278 0.90032 0.0
C299 C 0.18598 0.95078 0.93798 0.0
N300 N 0.17308 0.97931 0.9303 0.0
N301 N 0.17713 0.92726 0.91962 0.0
C302 C 0.07471 0.12733 0.87392 0.0
C303 C 0.06498 0.12986 0.82939 0.0
N304 N 0.08367 0.09865 0.86249 0.0
N305 N 0.0774 0.10036 0.83485 0.0
N306 N 0.06284 0.14723 0.85355 0.0
H307 H 0.101 0.12447 0.91347 0.0
H308 H 0.05768 0.12755 0.91679 0.0
H309 H 0.08096 0.16292 0.90718 0.0
C310 C 0.07906 0.13624 0.90459 0.0
C311 C 0.14109 0.92733 0.8756 0.0
H312 H 0.1209 0.94255 0.86786 0.0
H313 H 0.13168 0.90303 0.88159 0.0
H314 H 0.15846 0.9246 0.85772 0.0
O315 O 0.14536 1.00193 0.84915 0.0
O316 O 0.12836 0.05042 0.83683 0.0
C317 C 0.06387 0.9998 0.87398 0.0
O318 O 0.14636 0.08499 0.89369 0.0
O319 O 0.17481 0.04031 0.89645 0.0
Zn320 Zn 0.75306 0.3631 0.13848 0.0
O321 O 0.77342 0.32247 0.11938 0.0
C322 C 0.73844 0.39089 0.08149 0.0
Zn323 Zn 0.70345 0.34864 0.12335 0.0
C324 C 0.75576 0.30264 0.10561 0.0
O325 O 0.72559 0.30833 0.10277 0.0
C326 C 0.70141 0.40838 0.15864 0.0
O327 O 0.69866 0.31866 0.16012 0.0
O328 O 0.74604 0.33538 0.17536 0.0
N329 N 0.65869 0.33317 0.10806 0.0
C330 C 0.63213 0.32011 0.12063 0.0
C331 C 0.62612 0.31454 0.07591 0.0
N332 N 0.65457 0.32995 0.08024 0.0
N333 N 0.61133 0.30827 0.1009 0.0
C334 C 0.82653 0.38367 0.14314 0.0
C335 C 0.83208 0.38551 0.18829 0.0
N336 N 0.79735 0.37665 0.15468 0.0
N337 N 0.80094 0.37793 0.18271 0.0
N338 N 0.84861 0.3893 0.16383 0.0
H339 H 0.82008 0.36336 0.1014 0.0
H340 H 0.86002 0.38035 0.10785 0.0
H341 H 0.82568 0.40657 0.10237 0.0
C342 C 0.83367 0.38328 0.11189 0.0
C343 C 0.62748 0.31699 0.15212 0.0
H344 H 0.63958 0.33734 0.16337 0.0
H345 H 0.63812 0.29375 0.1594 0.0
H346 H 0.60129 0.31674 0.15753 0.0
O347 O 0.68237 0.38935 0.14517 0.0
O348 O 0.73178 0.40314 0.15836 0.0
C349 C 0.72131 0.31742 0.17848 0.0
O350 O 0.76026 0.3894 0.10061 0.0
O351 O 0.71094 0.37754 0.08579 0.0
Zn352 Zn 0.3743 0.99855 0.38553 0.0
O353 O 0.41652 0.0199 0.36902 0.0
C354 C 0.36107 0.97626 0.32804 0.0
Zn355 Zn 0.39885 0.95083 0.37941 0.0
C356 C 0.44167 0.00422 0.36173 0.0
O357 O 0.4417 0.9734 0.36361 0.0
C358 C 0.33081 0.94694 0.40488 0.0
O359 O 0.41954 0.95147 0.42153 0.0
O360 O 0.39548 0.9985 0.4257 0.0
N361 N 0.41656 0.90469 0.37129 0.0
C362 C 0.44474 0.88881 0.37628 0.0
C363 C 0.41215 0.85517 0.35713 0.0
N364 N 0.39656 0.88364 0.35927 0.0
N365 N 0.44257 0.85735 0.36764 0.0
C366 C 0.34768 0.06891 0.37864 0.0
C367 C 0.33964 0.08189 0.42202 0.0
N368 N 0.35618 0.04325 0.39475 0.0
N369 N 0.35127 0.05145 0.42168 0.0
N370 N 0.33725 0.09339 0.39529 0.0
H371 H 0.35259 0.09613 0.3395 0.0
H372 H 0.33001 0.05879 0.33676 0.0
H373 H 0.37351 0.05766 0.3401 0.0
C374 C 0.35129 0.0706 0.34691 0.0
C375 C 0.47364 0.90421 0.39021 0.0
H376 H 0.46741 0.92762 0.40015 0.0
H377 H 0.49233 0.90929 0.37381 0.0
H378 H 0.48402 0.88771 0.40651 0.0
O379 O 0.3546 0.92948 0.3968 0.0
O380 O 0.33252 0.97746 0.40209 0.0
C381 C 0.41372 0.97682 0.43605 0.0
O382 O 0.35362 0.99848 0.34544 0.0
O383 O 0.37895 0.95288 0.33638 0.0
Zn384 Zn 0.24252 0.37897 0.37604 0.0
O385 O 0.25985 0.3314 0.38619 0.0
C386 C 0.21438 0.38403 0.43398 0.0
Zn387 Zn 0.19199 0.35916 0.37696 0.0
C388 C 0.23977 0.30799 0.38846 0.0
O389 O 0.2095 0.31343 0.38709 0.0
C390 C 0.1945 0.42918 0.35972 0.0
O391 O 0.19687 0.34596 0.33284 0.0
O392 O 0.24584 0.36725 0.33313 0.0
N393 N 0.14472 0.34243 0.37932 0.0
C394 C 0.12752 0.319 0.36593 0.0
C395 C 0.09696 0.33885 0.39804 0.0
N396 N 0.12552 0.35472 0.39915 0.0
N397 N 0.09749 0.31632 0.37733 0.0
C398 C 0.3155 0.39286 0.3608 0.0
C399 C 0.3272 0.42824 0.39229 0.0
N400 N 0.28864 0.39747 0.37668 0.0
N401 N 0.29609 0.41942 0.39623 0.0
N402 N 0.33991 0.41194 0.37018 0.0
H403 H 0.30366 0.3467 0.34213 0.0
H404 H 0.30926 0.37958 0.31725 0.0
H405 H 0.34403 0.36145 0.33402 0.0
C406 C 0.31836 0.36858 0.33727 0.0
C407 C 0.14076 0.2976 0.34303 0.0
H408 H 0.16692 0.29326 0.34657 0.0
H409 H 0.12769 0.27406 0.34234 0.0
H410 H 0.13783 0.30989 0.32215 0.0
O411 O 0.17496 0.40585 0.36454 0.0
O412 O 0.22462 0.42521 0.36445 0.0
C413 C 0.22353 0.35205 0.3201 0.0
O414 O 0.23918 0.39042 0.41914 0.0
O415 O 0.18976 0.37101 0.42218 0.0
Zn416 Zn 0.91357 0.95025 0.13669 0.0
O417 O 0.93988 0.94978 0.09773 0.0
C418 C 0.85134 0.95556 0.10259 0.0
Zn419 Zn 0.89829 1.00098 0.12751 0.0
C420 C 0.94132 0.97536 0.08263 0.0
O421 O 0.9249 0.99991 0.08979 0.0
C422 C 0.87361 0.97884 0.18366 0.0
O423 O 0.94076 0.0157 0.14899 0.0
O424 O 0.95671 0.96588 0.15721 0.0
N425 N 0.88866 0.04825 0.11894 0.0
C426 C 0.86105 0.06533 0.11594 0.0
C427 C 0.90052 0.09734 0.10712 0.0
N428 N 0.9131 0.06818 0.11342 0.0
N429 N 0.86788 0.09623 0.10832 0.0
C430 C 0.95061 0.88379 0.13887 0.0
C431 C 0.91721 0.85426 0.16197 0.0
N432 N 0.9247 0.90244 0.14517 0.0
N433 N 0.90407 0.884 0.15956 0.0
N434 N 0.94652 0.85343 0.1493 0.0
H435 H 0.9865 0.91902 0.12694 0.0
H436 H 0.99862 0.87776 0.11985 0.0
H437 H 0.96895 0.89648 0.09791 0.0
C438 C 0.97797 0.89472 0.1201 0.0
C439 C 0.82786 0.052 0.12184 0.0
H440 H 0.82906 0.03144 0.13698 0.0
H441 H 0.81185 0.07108 0.13066 0.0
H442 H 0.81714 0.043 0.10165 0.0
O443 O 0.8723 1.00261 0.16642 0.0
O444 O 0.88863 0.95323 0.17643 0.0
C445 C 0.96197 0.99623 0.15856 0.0
O446 O 0.86995 0.93516 0.11477 0.0
O447 O 0.85724 0.98567 0.10481 0.0
Zn448 Zn 0.30555 0.6567 0.88775 0.0
O449 O 0.30968 0.68426 0.84972 0.0
C450 C 0.30451 0.59409 0.85507 0.0
Zn451 Zn 0.25623 0.64248 0.87328 0.0
C452 C 0.28823 0.68274 0.83031 0.0
O453 O 0.26392 0.66423 0.83367 0.0
C454 C 0.27038 0.62055 0.93281 0.0
O455 O 0.23895 0.68713 0.88833 0.0
O456 O 0.28606 0.69826 0.90799 0.0
N457 N 0.21043 0.63111 0.8603 0.0
C458 C 0.1935 0.60312 0.85934 0.0
C459 C 0.16327 0.64018 0.84218 0.0
N460 N 0.19163 0.65405 0.84956 0.0
N461 N 0.16383 0.60817 0.84787 0.0
C462 C 0.3782 0.67966 0.88487 0.0
C463 C 0.38667 0.69455 0.92762 0.0
N464 N 0.35138 0.67196 0.90005 0.0
N465 N 0.35686 0.68113 0.92662 0.0
N466 N 0.40072 0.6944 0.90166 0.0
H467 H 0.36739 0.65013 0.84811 0.0
H468 H 0.37455 0.69204 0.84068 0.0
H469 H 0.4082 0.66575 0.8493 0.0
C470 C 0.38243 0.6713 0.85402 0.0
C471 C 0.20554 0.57145 0.87085 0.0
H472 H 0.18528 0.55722 0.88021 0.0
H473 H 0.21632 0.55723 0.85321 0.0
H474 H 0.2245 0.57527 0.88721 0.0
O475 O 0.24823 0.62244 0.91401 0.0
O476 O 0.29898 0.63031 0.92683 0.0
C477 C 0.25675 0.7058 0.90306 0.0
O478 O 0.32393 0.61474 0.86598 0.0
O479 O 0.27412 0.59838 0.85711 0.0
Zn480 Zn 0.61275 0.01034 0.62829 0.0
O481 O 0.56871 0.99697 0.64829 0.0
C482 C 0.63652 0.03111 0.68517 0.0
Zn483 Zn 0.59838 0.06181 0.63774 0.0
C484 C 0.54838 0.01701 0.65842 0.0
O485 O 0.55494 0.04713 0.65792 0.0
C486 C 0.66188 0.05497 0.60499 0.0
O487 O 0.57265 0.06289 0.59838 0.0
O488 O 0.58746 0.01287 0.58932 0.0
N489 N 0.58792 0.11041 0.64609 0.0
C490 C 0.56309 0.12984 0.63822 0.0
C491 C 0.59504 0.15855 0.66344 0.0
N492 N 0.60762 0.1284 0.66189 0.0
N493 N 0.56707 0.16014 0.64868 0.0
C494 C 0.64895 0.94422 0.61941 0.0
C495 C 0.60919 0.91256 0.61074 0.0
N496 N 0.62167 0.96219 0.62043 0.0
N497 N 0.59705 0.94241 0.61504 0.0
N498 N 0.64175 0.91294 0.61322 0.0
H499 H 0.68085 0.9782 0.64045 0.0
H500 H 0.69741 0.93799 0.63591 0.0
H501 H 0.69389 0.96508 0.60591 0.0
C502 C 0.68217 0.95706 0.626 0.0
C503 C 0.53411 0.11878 0.62166 0.0
H504 H 0.52848 0.09307 0.62647 0.0
H505 H 0.51262 0.13387 0.62667 0.0
H506 H 0.53946 0.12129 0.59862 0.0
O507 O 0.6424 0.07563 0.61572 0.0
O508 O 0.65596 0.02487 0.60778 0.0
C509 C 0.57129 0.03785 0.58254 0.0
O510 O 0.63671 0.00761 0.66772 0.0
O511 O 0.62302 0.05772 0.67811 0.0
H512 H 0.24729 0.1972 0.22274 0.0
H513 H 0.32732 0.2482 0.18238 0.0
H514 H 0.31558 0.29649 0.21172 0.0
H515 H 0.19334 0.2628 0.22578 0.0
H516 H 0.17673 0.25278 0.26021 0.0
H517 H 0.19251 0.22123 0.23768 0.0
H518 H 0.23206 0.20279 0.27758 0.0
H519 H 0.21536 0.23348 0.30046 0.0
H520 H 0.25844 0.23227 0.29404 0.0
H521 H 0.29282 0.34024 0.24317 0.0
H522 H 0.26671 0.37337 0.2804 0.0
H523 H 0.20157 0.29369 0.30008 0.0
C524 C 0.26284 0.21827 0.22048 0.0
C525 C 0.28832 0.21889 0.20029 0.0
C526 C 0.30794 0.24701 0.19791 0.0
C527 C 0.30119 0.27468 0.21424 0.0
C528 C 0.27492 0.2737 0.23295 0.0
C529 C 0.25654 0.24598 0.23664 0.0
C530 C 0.22978 0.25115 0.25828 0.0
C531 C 0.1961 0.24673 0.24466 0.0
C532 C 0.2342 0.22859 0.28412 0.0
C533 C 0.23585 0.28623 0.26612 0.0
C534 C 0.26182 0.29886 0.25107 0.0
C535 C 0.27254 0.33056 0.25514 0.0
C536 C 0.25743 0.34926 0.27618 0.0
C537 C 0.23201 0.33617 0.29298 0.0
C538 C 0.22039 0.30463 0.28714 0.0
H539 H 0.42195 0.51588 0.53218 0.0
H540 H 0.45203 0.41748 0.5516 0.0
H541 H 0.49467 0.42145 0.51511 0.0
H542 H 0.43878 0.51008 0.45351 0.0
H543 H 0.45221 0.55166 0.4518 0.0
H544 H 0.42147 0.53982 0.47709 0.0
H545 H 0.45644 0.56369 0.51787 0.0
H546 H 0.48768 0.57495 0.49294 0.0
H547 H 0.49734 0.54935 0.52289 0.0
H548 H 0.53861 0.4387 0.4835 0.0
H549 H 0.57662 0.46392 0.45036 0.0
H550 H 0.51693 0.5507 0.44749 0.0
C551 C 0.43687 0.4948 0.5282 0.0
C552 C 0.43409 0.46649 0.54516 0.0
C553 C 0.45413 0.43955 0.53932 0.0
C554 C 0.47835 0.44157 0.51856 0.0
C555 C 0.48166 0.47044 0.50344 0.0
C556 C 0.46096 0.49627 0.50727 0.0
C557 C 0.47068 0.52483 0.48863 0.0
C558 C 0.44421 0.53201 0.46643 0.0
C559 C 0.4785 0.55498 0.50667 0.0
C560 C 0.50094 0.5114 0.47469 0.0
C561 C 0.50665 0.48001 0.48375 0.0
C562 C 0.53401 0.46293 0.47564 0.0
C563 C 0.55563 0.47777 0.45692 0.0
C564 C 0.54969 0.50935 0.44597 0.0
C565 C 0.52211 0.52658 0.45535 0.0
H566 H 0.20734 0.77972 0.70211 0.0
H567 H 0.27934 0.85491 0.71706 0.0
H568 H 0.30337 0.82216 0.7555 0.0
H569 H 0.19757 0.75597 0.77733 0.0
H570 H 0.19286 0.71367 0.7686 0.0
H571 H 0.18008 0.74428 0.74365 0.0
H572 H 0.21676 0.71824 0.70509 0.0
H573 H 0.23027 0.68808 0.73016 0.0
H574 H 0.25949 0.71333 0.71208 0.0
H575 H 0.32217 0.77996 0.78967 0.0
H576 H 0.32955 0.73408 0.82273 0.0
H577 H 0.24545 0.68624 0.78576 0.0
C578 C 0.22758 0.78965 0.71401 0.0
C579 C 0.24144 0.81985 0.70666 0.0
C580 C 0.26833 0.83179 0.72236 0.0
C581 C 0.28228 0.81332 0.74412 0.0
C582 C 0.269 0.78302 0.74998 0.0
C583 C 0.24191 0.77147 0.73582 0.0
C584 C 0.23276 0.73789 0.74615 0.0
C585 C 0.19881 0.73797 0.75975 0.0
C586 C 0.23495 0.71292 0.72192 0.0
C587 C 0.25902 0.73243 0.7682 0.0
C588 C 0.27983 0.75864 0.76988 0.0
C589 C 0.30595 0.75931 0.78871 0.0
C590 C 0.31013 0.73299 0.80722 0.0
C591 C 0.28812 0.70655 0.80683 0.0
C592 C 0.26279 0.706 0.7865 0.0
H593 H 0.94276 0.51589 0.9677 0.0
H594 H 0.98137 0.42379 0.93859 0.0
H595 H 0.02618 0.42856 0.97304 0.0
H596 H 0.01731 0.55604 0.97765 0.0
H597 H 0.00572 0.57689 0.00978 0.0
H598 H 0.97532 0.56587 0.98393 0.0
H599 H 0.94314 0.5342 0.02247 0.0
H600 H 0.97303 0.54574 0.04859 0.0
H601 H 0.96345 0.50353 0.04318 0.0
H602 H 0.0688 0.44497 0.00775 0.0
H603 H 0.10242 0.46785 0.04615 0.0
H604 H 0.03564 0.54869 0.05396 0.0
C605 C 0.96031 0.49645 0.96892 0.0
C606 C 0.9586 0.46952 0.95037 0.0
C607 C 0.98209 0.44462 0.95261 0.0
C608 C 0.00779 0.44719 0.97198 0.0
C609 C 0.00943 0.4746 0.98918 0.0
C610 C 0.98598 0.49844 0.98835 0.0
C611 C 0.99337 0.52522 0.00948 0.0
C612 C 0.99822 0.55793 0.99429 0.0
C613 C 0.96667 0.52728 0.03228 0.0
C614 C 0.02491 0.5129 0.02194 0.0
C615 C 0.0338 0.48378 0.00976 0.0
C616 C 0.062 0.46764 0.01764 0.0
C617 C 0.08104 0.48098 0.03937 0.0
C618 C 0.07167 0.51008 0.05311 0.0
C619 C 0.04359 0.52656 0.04377 0.0
H620 H 0.75989 0.82641 0.78114 0.0
H621 H 0.69534 0.76554 0.83105 0.0
H622 H 0.70902 0.7188 0.80122 0.0
H623 H 0.73986 0.78777 0.71249 0.0
H624 H 0.78062 0.79213 0.69912 0.0
H625 H 0.76496 0.82102 0.72429 0.0
H626 H 0.81413 0.80942 0.75724 0.0
H627 H 0.82929 0.77964 0.73259 0.0
H628 H 0.82158 0.76853 0.76912 0.0
H629 H 0.73227 0.67802 0.76917 0.0
H630 H 0.7535 0.64726 0.7284 0.0
H631 H 0.80145 0.73389 0.69674 0.0
C632 C 0.7481 0.80338 0.7853 0.0
C633 C 0.72628 0.79969 0.80832 0.0
C634 C 0.7115 0.76919 0.81327 0.0
C635 C 0.71959 0.7423 0.79671 0.0
C636 C 0.74216 0.74641 0.77501 0.0
C637 C 0.75542 0.7763 0.76854 0.0
C638 C 0.77782 0.77407 0.74298 0.0
C639 C 0.76504 0.79498 0.71826 0.0
C640 C 0.81278 0.78348 0.75098 0.0
C641 C 0.77515 0.73818 0.73633 0.0
C642 C 0.75493 0.72273 0.75556 0.0
C643 C 0.74797 0.6898 0.75383 0.0
C644 C 0.76034 0.67251 0.73076 0.0
C645 C 0.7791 0.68827 0.7096 0.0
C646 C 0.78773 0.7212 0.71298 0.0
H647 H 0.76113 0.31318 0.22506 0.0
H648 H 0.68521 0.26171 0.17939 0.0
H649 H 0.69507 0.21326 0.20898 0.0
H650 H 0.81546 0.24797 0.23172 0.0
H651 H 0.82873 0.25775 0.26729 0.0
H652 H 0.81476 0.28941 0.24388 0.0
H653 H 0.7715 0.30702 0.2809 0.0
H654 H 0.78628 0.2762 0.30474 0.0
H655 H 0.74394 0.27712 0.29519 0.0
H656 H 0.71538 0.16955 0.24119 0.0
H657 H 0.73791 0.13619 0.28002 0.0
H658 H 0.80054 0.21598 0.30509 0.0
C659 C 0.74609 0.29194 0.22168 0.0
C660 C 0.72228 0.29127 0.19997 0.0
C661 C 0.70325 0.26297 0.19612 0.0
C662 C 0.70897 0.23518 0.21258 0.0
C663 C 0.73359 0.23623 0.23292 0.0
C664 C 0.7513 0.26409 0.23805 0.0
C665 C 0.77603 0.25891 0.26153 0.0
C666 C 0.8108 0.2638 0.25043 0.0
C667 C 0.769 0.28112 0.2871 0.0
C668 C 0.76958 0.22367 0.26869 0.0
C669 C 0.74524 0.211 0.25168 0.0
C670 C 0.73439 0.17921 0.25468 0.0
C671 C 0.74752 0.16038 0.27663 0.0
C672 C 0.77113 0.17345 0.29537 0.0
C673 C 0.78309 0.20512 0.29068 0.0
H674 H 0.9405 0.01463 0.03552 0.0
H675 H 1.00108 0.94784 0.08306 0.0
H676 H 0.04854 0.96486 0.0549 0.0
H677 H 0.97927 1.00007 0.96768 0.0
H678 H 0.97563 0.04136 0.95552 0.0
H679 H 0.94624 0.02485 0.97996 0.0
H680 H 0.95783 0.07135 0.01536 0.0
H681 H 0.98756 0.08827 0.99139 0.0
H682 H 0.99876 0.07841 0.02749 0.0
H683 H 0.08986 0.99189 0.02481 0.0
H684 H 0.12068 0.0155 0.98505 0.0
H685 H 0.03316 0.06195 0.95379 0.0
C686 C 0.96366 0.00314 0.03953 0.0
C687 C 0.96713 0.97973 0.06132 0.0
C688 C 0.99775 0.96531 0.06613 0.0
C689 C 0.02497 0.9753 0.05062 0.0
C690 C 0.02102 0.9994 0.03014 0.0
C691 C 0.99103 0.01239 0.02384 0.0
C692 C 0.99326 0.03632 0.99937 0.0
C693 C 0.97237 0.02499 0.97411 0.0
C694 C 0.98379 0.07062 0.00899 0.0
C695 C 0.0292 0.03439 0.99271 0.0
C696 C 0.0448 0.01374 0.01142 0.0
C697 C 0.07791 0.00781 0.00979 0.0
C698 C 0.09523 0.02153 0.98721 0.0
C699 C 0.07922 0.04025 0.96614 0.0
C700 C 0.04609 0.048 0.96969 0.0
H701 H 0.4726 0.95324 0.45534 0.0
H702 H 0.39406 0.01886 0.47659 0.0
H703 H 0.42708 0.04246 0.51491 0.0
H704 H 0.50036 0.94107 0.5306 0.0
H705 H 0.54246 0.9395 0.52034 0.0
H706 H 0.51151 0.92563 0.49607 0.0
H707 H 0.53367 0.96518 0.45777 0.0
H708 H 0.56408 0.97985 0.48218 0.0
H709 H 0.53631 0.00786 0.46569 0.0
H710 H 0.46985 0.06384 0.54627 0.0
H711 H 0.51686 0.0745 0.57693 0.0
H712 H 0.56805 0.99393 0.53832 0.0
C713 C 0.46202 0.97176 0.46873 0.0
C714 C 0.43077 0.98426 0.46294 0.0
C715 C 0.41796 0.00897 0.48058 0.0
C716 C 0.43658 0.02269 0.50232 0.0
C717 C 0.46787 0.01119 0.50648 0.0
C718 C 0.4803 0.98569 0.49087 0.0
C719 C 0.51494 0.97844 0.49987 0.0
C720 C 0.51746 0.94412 0.51248 0.0
C721 C 0.53864 0.98312 0.47488 0.0
C722 C 0.51998 0.00421 0.52255 0.0
C723 C 0.49257 0.02302 0.52562 0.0
C724 C 0.49138 0.04904 0.54439 0.0
C725 C 0.51848 0.05522 0.56149 0.0
C726 C 0.54629 0.03525 0.56003 0.0
C727 C 0.54719 0.00972 0.53987 0.0
H728 H 0.15795 0.1029 0.9478 0.0
H729 H 0.23922 0.06755 0.8986 0.0
H730 H 0.27598 0.07838 0.93941 0.0
H731 H 0.20096 0.16432 0.99191 0.0
H732 H 0.17762 0.15349 0.02297 0.0
H733 H 0.15998 0.14955 0.98802 0.0
H734 H 0.14716 0.08922 0.99882 0.0
H735 H 0.16566 0.0926 0.03341 0.0
H736 H 0.17968 0.06233 0.00869 0.0
H737 H 0.30291 0.08967 0.9877 0.0
H738 H 0.3171 0.09998 0.0383 0.0
H739 H 0.21603 0.12059 0.05632 0.0
C740 C 0.18378 0.09913 0.94511 0.0
C741 C 0.1961 0.08578 0.91969 0.0
C742 C 0.22965 0.07895 0.91758 0.0
C743 C 0.25056 0.08472 0.94075 0.0
C744 C 0.23732 0.0965 0.96606 0.0
C745 C 0.20463 0.10361 0.96829 0.0
C746 C 0.19542 0.11194 0.99859 0.0
C747 C 0.18276 0.14691 1.00048 0.0
C748 C 0.17052 0.08757 0.01056 0.0
C749 C 0.22798 0.10847 0.01315 0.0
C750 C 0.25201 0.10001 0.99408 0.0
C751 C 0.2842 0.0962 1.00279 0.0
C752 C 0.29203 0.10187 0.03157 0.0
C753 C 0.26763 0.11048 0.05137 0.0
C754 C 0.23519 0.11333 0.04191 0.0
H755 H 0.69321 0.50632 0.30254 0.0
H756 H 0.60244 0.54783 0.27395 0.0
H757 H 0.61139 0.52475 0.22599 0.0
H758 H 0.73797 0.515 0.2321 0.0
H759 H 0.75859 0.47711 0.23805 0.0
H760 H 0.74785 0.50242 0.26784 0.0
H761 H 0.71738 0.45391 0.29047 0.0
H762 H 0.72686 0.42863 0.26052 0.0
H763 H 0.68517 0.43436 0.27089 0.0
H764 H 0.62442 0.48636 0.18505 0.0
H765 H 0.64515 0.44387 0.15233 0.0
H766 H 0.72884 0.43097 0.2071 0.0
C767 C 0.67604 0.51189 0.28577 0.0
C768 C 0.64738 0.52916 0.29178 0.0
C769 C 0.62494 0.53529 0.26958 0.0
C770 C 0.62968 0.52197 0.24234 0.0
C771 C 0.65736 0.50333 0.23756 0.0
C772 C 0.68068 0.49923 0.25847 0.0
C773 C 0.70695 0.47615 0.24893 0.0
C774 C 0.73978 0.49373 0.24658 0.0
C775 C 0.70918 0.44653 0.26888 0.0
C776 C 0.69412 0.46676 0.21991 0.0
C777 C 0.66546 0.48252 0.21361 0.0
C778 C 0.64739 0.47469 0.18934 0.0
C779 C 0.65916 0.45042 0.17099 0.0
C780 C 0.68887 0.43468 0.17691 0.0
C781 C 0.70652 0.44328 0.20157 0.0
H782 H 0.2624 0.85899 0.53975 0.0
H783 H 0.18003 0.92363 0.5359 0.0
H784 H 0.19565 0.93932 0.48658 0.0
H785 H 0.31642 0.90936 0.5098 0.0
H786 H 0.33901 0.87928 0.49036 0.0
H787 H 0.31719 0.86785 0.52189 0.0
H788 H 0.28569 0.82411 0.4935 0.0
H789 H 0.30766 0.83523 0.46173 0.0
H790 H 0.26392 0.8354 0.4617 0.0
H791 H 0.22684 0.9557 0.44251 0.0
H792 H 0.26922 0.97064 0.40769 0.0
H793 H 0.33083 0.89406 0.44003 0.0
C794 C 0.24692 0.87546 0.52799 0.0
C795 C 0.21977 0.88981 0.54117 0.0
C796 C 0.20047 0.91192 0.52576 0.0
C797 C 0.20929 0.92095 0.49784 0.0
C798 C 0.23711 0.9072 0.48577 0.0
C799 C 0.25533 0.88449 0.5003 0.0
C800 C 0.28623 0.87618 0.48448 0.0
C801 C 0.31646 0.88364 0.50272 0.0
C802 C 0.28583 0.84062 0.47477 0.0
C803 C 0.28361 0.899 0.45934 0.0
C804 C 0.25488 0.91634 0.4602 0.0
C805 C 0.24891 0.94162 0.44121 0.0
C806 C 0.27315 0.94996 0.4215 0.0
C807 C 0.30305 0.93309 0.42084 0.0
C808 C 0.3078 0.90661 0.4394 0.0
H809 H 0.78478 0.58116 0.70377 0.0
H810 H 0.85756 0.5468 0.64466 0.0
H811 H 0.87751 0.50813 0.68151 0.0
H812 H 0.83703 0.58268 0.76289 0.0
H813 H 0.80598 0.57184 0.78821 0.0
H814 H 0.79525 0.59289 0.756 0.0
H815 H 0.75436 0.54719 0.74351 0.0
H816 H 0.76517 0.52582 0.77563 0.0
H817 H 0.76817 0.50582 0.74162 0.0
H818 H 0.88935 0.47373 0.72608 0.0
H819 H 0.89853 0.45403 0.77528 0.0
H820 H 0.82121 0.51601 0.80556 0.0
C821 C 0.80448 0.56494 0.69837 0.0
C822 C 0.81916 0.56614 0.67123 0.0
C823 C 0.84575 0.54572 0.66524 0.0
C824 C 0.85704 0.52368 0.68598 0.0
C825 C 0.84185 0.52306 0.71265 0.0
C826 C 0.81652 0.54371 0.71894 0.0
C827 C 0.80668 0.54142 0.74992 0.0
C828 C 0.81155 0.57414 0.76514 0.0
C829 C 0.7715 0.52933 0.75283 0.0
C830 C 0.8305 0.51628 0.76038 0.0
C831 C 0.85007 0.5053 0.73848 0.0
C832 C 0.87411 0.48218 0.74328 0.0
C833 C 0.87896 0.4709 0.77126 0.0
C834 C 0.8604 0.48335 0.79413 0.0
C835 C 0.83552 0.50586 0.78842 0.0
H836 H 0.84313 0.97622 0.0485 0.0
H837 H 0.80446 0.90894 0.11079 0.0
H838 H 0.76422 0.88942 0.0752 0.0
H839 H 0.76833 0.9947 0.00981 0.0
H840 H 0.7882 0.99435 0.97563 0.0
H841 H 0.8105 0.00601 0.00704 0.0
H842 H 0.8535 0.96185 0.99646 0.0
H843 H 0.83148 0.95029 0.96497 0.0
H844 H 0.8406 0.92039 0.99178 0.0
H845 H 0.72928 0.87649 0.03178 0.0
H846 H 0.70873 0.86498 0.98326 0.0
H847 H 0.77455 0.93719 0.94877 0.0
C848 C 0.82564 0.9579 0.05479 0.0
C849 C 0.82615 0.94455 0.08247 0.0
C850 C 0.80396 0.9197 0.08974 0.0
C851 C 0.78102 0.90864 0.06972 0.0
C852 C 0.78121 0.92225 0.04244 0.0
C853 C 0.80341 0.94594 0.03486 0.0
C854 C 0.80144 0.95383 0.0034 0.0
C855 C 0.79152 0.98933 0.99871 0.0
C856 C 0.83366 0.94612 0.98827 0.0
C857 C 0.77474 0.9308 0.9943 0.0
C858 C 0.7628 0.91333 0.01719 0.0
C859 C 0.73841 0.89012 0.01376 0.0
C860 C 0.7267 0.88391 0.98616 0.0
C861 C 0.73995 0.90031 0.96231 0.0
C862 C 0.7638 0.92447 0.96663 0.0
H863 H 0.3402 0.606 0.80815 0.0
H864 H 0.2917 0.52888 0.85413 0.0
H865 H 0.30318 0.49092 0.81437 0.0
H866 H 0.30504 0.58663 0.74291 0.0
H867 H 0.33962 0.59779 0.72153 0.0
H868 H 0.33316 0.61701 0.75543 0.0
H869 H 0.39045 0.59961 0.7722 0.0
H870 H 0.39734 0.5808 0.73813 0.0
H871 H 0.40185 0.5575 0.77038 0.0
H872 H 0.31888 0.46203 0.76794 0.0
H873 H 0.33295 0.44644 0.71833 0.0
H874 H 0.36405 0.54504 0.70141 0.0
C875 C 0.33322 0.58076 0.81027 0.0
C876 C 0.31633 0.56983 0.83458 0.0
C877 C 0.30566 0.53724 0.83601 0.0
C878 C 0.31195 0.51566 0.81348 0.0
C879 C 0.32807 0.52739 0.7894 0.0
C880 C 0.33826 0.55933 0.78762 0.0
C881 C 0.35137 0.56717 0.75829 0.0
C882 C 0.33108 0.59371 0.74369 0.0
C883 C 0.38739 0.57683 0.75985 0.0
C884 C 0.34693 0.53474 0.74375 0.0
C885 C 0.33411 0.51184 0.7621 0.0
C886 C 0.32872 0.47988 0.75338 0.0
C887 C 0.33669 0.47122 0.72522 0.0
C888 C 0.34892 0.49469 0.706 0.0
C889 C 0.35402 0.52677 0.7155 0.0
H890 H 0.73045 0.14304 0.46845 0.0
H891 H 0.81217 0.07742 0.47005 0.0
H892 H 0.79494 0.05777 0.51783 0.0
H893 H 0.73027 0.16191 0.54682 0.0
H894 H 0.68658 0.1637 0.54745 0.0
H895 H 0.70836 0.17541 0.51577 0.0
H896 H 0.67475 0.13407 0.48643 0.0
H897 H 0.65313 0.12201 0.51794 0.0
H898 H 0.67423 0.09207 0.4971 0.0
H899 H 0.76219 0.03857 0.56094 0.0
H900 H 0.72063 0.02536 0.5973 0.0
H901 H 0.66286 0.10682 0.56898 0.0
C902 C 0.74533 0.12532 0.47936 0.0
C903 C 0.7728 0.11191 0.46589 0.0
C904 C 0.79142 0.08836 0.48036 0.0
C905 C 0.78166 0.07702 0.5074 0.0
C906 C 0.75371 0.09007 0.51976 0.0
C907 C 0.73629 0.11431 0.5064 0.0
C908 C 0.70605 0.12301 0.52302 0.0
C909 C 0.70794 0.15809 0.53392 0.0
C910 C 0.67524 0.11744 0.50505 0.0
C911 C 0.70827 0.09899 0.54732 0.0
C912 C 0.7359 0.08015 0.54515 0.0
C913 C 0.74106 0.05383 0.5633 0.0
C914 C 0.71731 0.04646 0.58386 0.0
C915 C 0.68896 0.06557 0.58639 0.0
C916 C 0.68485 0.09252 0.56822 0.0
H917 H 0.13851 0.43529 0.32919 0.0
H918 H 0.22725 0.48637 0.35077 0.0
H919 H 0.21553 0.52703 0.31353 0.0
H920 H 0.1487 0.43933 0.2587 0.0
H921 H 0.10666 0.44419 0.24902 0.0
H922 H 0.11707 0.42448 0.28185 0.0
H923 H 0.08211 0.46553 0.31 0.0
H924 H 0.07125 0.4853 0.27708 0.0
H925 H 0.0892 0.50841 0.30563 0.0
H926 H 0.20012 0.55531 0.2678 0.0
H927 H 0.18214 0.56809 0.21854 0.0
H928 H 0.10447 0.49792 0.22647 0.0
C929 C 0.15469 0.45588 0.32706 0.0
C930 C 0.18357 0.45786 0.34321 0.0
C931 C 0.20475 0.48455 0.33893 0.0
C932 C 0.19827 0.5078 0.31779 0.0
C933 C 0.17044 0.50415 0.30114 0.0
C934 C 0.14878 0.47897 0.3058 0.0
C935 C 0.12337 0.47741 0.28253 0.0
C936 C 0.12403 0.44442 0.26713 0.0
C937 C 0.08947 0.4846 0.29453 0.0
C938 C 0.13495 0.50456 0.26332 0.0
C939 C 0.16172 0.52025 0.27464 0.0
C940 C 0.17861 0.54387 0.25915 0.0
C941 C 0.16827 0.55108 0.23127 0.0
C942 C 0.14148 0.53458 0.21931 0.0
C943 C 0.12435 0.51159 0.23571 0.0
H944 H 0.73731 0.56843 0.55437 0.0
H945 H 0.78854 0.65504 0.52743 0.0
H946 H 0.76586 0.64876 0.47881 0.0
H947 H 0.74718 0.52352 0.48605 0.0
H948 H 0.70764 0.50512 0.48943 0.0
H949 H 0.73067 0.51517 0.52085 0.0
H950 H 0.68227 0.54912 0.53938 0.0
H951 H 0.65934 0.53975 0.50783 0.0
H952 H 0.66638 0.58143 0.51761 0.0
H953 H 0.72941 0.63745 0.43532 0.0
H954 H 0.69067 0.61653 0.39889 0.0
H955 H 0.66827 0.53506 0.45382 0.0
C956 C 0.74458 0.58545 0.53797 0.0
C957 C 0.76484 0.61203 0.54448 0.0
C958 C 0.77349 0.63415 0.52266 0.0
C959 C 0.76047 0.63094 0.49509 0.0
C960 C 0.73951 0.60504 0.4896 0.0
C961 C 0.73246 0.58215 0.51029 0.0
C962 C 0.70882 0.55695 0.49943 0.0
C963 C 0.72453 0.52319 0.4989 0.0
C964 C 0.67735 0.55683 0.51711 0.0
C965 C 0.70294 0.5696 0.46966 0.0
C966 C 0.72043 0.59759 0.46432 0.0
C967 C 0.71631 0.61506 0.43901 0.0
C968 C 0.6942 0.60321 0.41854 0.0
C969 C 0.67719 0.57392 0.42342 0.0
C970 C 0.68172 0.55709 0.44928 0.0
H971 H 0.13239 0.96624 0.80343 0.0
H972 H 0.16853 0.06379 0.78983 0.0
H973 H 0.18382 0.04908 0.74028 0.0
H974 H 0.19126 0.92402 0.76433 0.0
H975 H 0.16316 0.89472 0.74999 0.0
H976 H 0.1549 0.91367 0.78368 0.0
H977 H 0.09914 0.93302 0.76458 0.0
H978 H 0.10738 0.91429 0.7307 0.0
H979 H 0.09743 0.95677 0.73236 0.0
H980 H 0.20114 0.02051 0.69413 0.0
H981 H 0.21397 0.9827 0.65459 0.0
H982 H 0.15972 0.90679 0.69723 0.0
C983 C 0.14344 0.98454 0.78996 0.0
C984 C 0.14975 0.01599 0.80037 0.0
C985 C 0.16369 0.03951 0.78212 0.0
C986 C 0.17238 0.03135 0.75403 0.0
C987 C 0.16601 0.99991 0.74444 0.0
C988 C 0.15128 0.97712 0.7618 0.0
C989 C 0.14673 0.94511 0.74664 0.0
C990 C 0.16512 0.91779 0.76207 0.0
C991 C 0.11052 0.93683 0.74337 0.0
C992 C 0.162 0.95302 0.71819 0.0
C993 C 0.17331 0.98461 0.71729 0.0
C994 C 0.19152 0.99607 0.69428 0.0
C995 C 0.19862 0.97454 0.6719 0.0
C996 C 0.18684 0.94228 0.67246 0.0
C997 C 0.16782 0.93175 0.69567 0.0
H998 H 0.79504 0.38115 0.0539 0.0
H999 H 0.70109 0.42671 0.04433 0.0
H1000 H 0.71676 0.44529 0.9958 0.0
H1001 H 0.84281 0.43953 0.01701 0.0
H1002 H 0.8687 0.40966 1.00076 0.0
H1003 H 0.84976 0.40124 0.03451 0.0
H1004 H 0.82442 0.34891 0.01339 0.0
H1005 H 0.84293 0.35742 0.97944 0.0
H1006 H 0.79966 0.35148 0.98181 0.0
H1007 H 0.74582 0.46276 0.94978 0.0
H1008 H 0.7834 0.4738 0.90957 0.0
H1009 H 0.85479 0.41039 0.94776 0.0
C1010 C 0.77788 0.39537 0.04172 0.0
C1011 C 0.74716 0.40322 0.05297 0.0
C1012 C 0.72491 0.42088 0.0361 0.0
C1013 C 0.7336 0.43139 0.00857 0.0
C1014 C 0.76421 0.42314 0.99807 0.0
C1015 C 0.78576 0.40509 0.01408 0.0
C1016 C 0.81676 0.39844 0.99791 0.0
C1017 C 0.84624 0.4131 0.01347 0.0
C1018 C 0.82118 0.36189 0.99284 0.0
C1019 C 0.80974 0.41613 0.97038 0.0
C1020 C 0.77947 0.43056 0.97088 0.0
C1021 C 0.76915 0.45085 0.94887 0.0
C1022 C 0.79051 0.45688 0.92608 0.0
C1023 C 0.82137 0.44196 0.92517 0.0
C1024 C 0.83075 0.42093 0.94737 0.0
H1025 H 0.27875 0.08029 0.20797 0.0
H1026 H 0.36512 0.0654 0.15709 0.0
H1027 H 0.38381 0.02368 0.19159 0.0
H1028 H 0.31926 0.07823 0.27336 0.0
H1029 H 0.28612 0.05948 0.29228 0.0
H1030 H 0.27809 0.08399 0.26142 0.0
H1031 H 0.24711 0.03568 0.23849 0.0
H1032 H 0.25566 0.01091 0.26923 0.0
H1033 H 0.26734 0.9973 0.23425 0.0
H1034 H 0.39408 0.98559 0.23378 0.0
H1035 H 0.39925 0.96198 0.28211 0.0
H1036 H 0.3077 0.00548 0.30595 0.0
C1037 C 0.30125 0.0677 0.20367 0.0
C1038 C 0.32021 0.07552 0.17956 0.0
C1039 C 0.35009 0.05944 0.17528 0.0
C1040 C 0.36074 0.03561 0.19467 0.0
C1041 C 0.34141 0.02857 0.21836 0.0
C1042 C 0.31251 0.04461 0.22306 0.0
C1043 C 0.29808 0.03597 0.25171 0.0
C1044 C 0.29525 0.0662 0.27081 0.0
C1045 C 0.26509 0.01895 0.24819 0.0
C1046 C 0.32353 0.01281 0.26274 0.0
C1047 C 0.34799 0.00814 0.24301 0.0
C1048 C 0.37489 0.98887 0.24922 0.0
C1049 C 0.37749 0.97525 0.27663 0.0
C1050 C 0.35366 0.9816 0.2976 0.0
C1051 C 0.32597 0.99978 0.29016 0.0
H1052 H 0.29615 0.47456 0.56089 0.0
H1053 H 0.30623 0.38125 0.60256 0.0
H1054 H 0.26745 0.35742 0.56778 0.0
H1055 H 0.21063 0.46746 0.53701 0.0
H1056 H 0.21983 0.48686 0.50354 0.0
H1057 H 0.2424 0.49754 0.53508 0.0
H1058 H 0.29623 0.4839 0.50924 0.0
H1059 H 0.27393 0.47341 0.4777 0.0
H1060 H 0.30121 0.4444 0.49346 0.0
H1061 H 0.23177 0.34301 0.52461 0.0
H1062 H 0.20999 0.33799 0.47552 0.0
H1063 H 0.22822 0.44004 0.46126 0.0
C1064 C 0.28944 0.44932 0.56349 0.0
C1065 C 0.30374 0.42992 0.58493 0.0
C1066 C 0.29518 0.39671 0.58664 0.0
C1067 C 0.27309 0.38304 0.567 0.0
C1068 C 0.26005 0.40286 0.54567 0.0
C1069 C 0.26827 0.43529 0.5438 0.0
C1070 C 0.25543 0.45056 0.51674 0.0
C1071 C 0.23059 0.47718 0.52351 0.0
C1072 C 0.28335 0.46381 0.4982 0.0
C1073 C 0.23927 0.42154 0.5031 0.0
C1074 C 0.24126 0.39438 0.52038 0.0
C1075 C 0.22967 0.36427 0.51122 0.0
C1076 C 0.21703 0.36166 0.48342 0.0
C1077 C 0.21677 0.38884 0.46501 0.0
C1078 C 0.22727 0.41918 0.47529 0.0
H1079 H 0.82429 0.01757 0.20255 0.0
H1080 H 0.89847 0.95098 0.23165 0.0
H1081 H 0.88671 0.96593 0.28158 0.0
H1082 H 0.839 0.07914 0.25037 0.0
H1083 H 0.79717 0.08987 0.25617 0.0
H1084 H 0.80911 0.07146 0.22312 0.0
H1085 H 0.76677 0.02563 0.23063 0.0
H1086 H 0.7545 0.04413 0.26366 0.0
H1087 H 0.76732 1.00239 0.26317 0.0
H1088 H 0.8735 0.99615 0.3276 0.0
H1089 H 0.85375 0.03279 0.36596 0.0
H1090 H 0.78439 0.07424 0.30709 0.0
C1091 C 0.8374 0.00548 0.2195 0.0
C1092 C 0.86218 0.98305 0.21329 0.0
C1093 C 0.87907 0.96793 0.23598 0.0
C1094 C 0.87269 0.97641 0.2644 0.0
C1095 C 0.84875 0.9994 0.2698 0.0
C1096 C 0.83075 0.01303 0.24798 0.0
C1097 C 0.80697 0.03773 0.25927 0.0
C1098 C 0.81347 0.07153 0.24648 0.0
C1099 C 0.7718 0.0268 0.25387 0.0
C1100 C 0.81517 0.03672 0.29068 0.0
C1101 C 0.83953 0.01474 0.29646 0.0
C1102 C 0.85364 0.01261 0.32353 0.0
C1103 C 0.84241 0.03343 0.34515 0.0
C1104 C 0.81688 0.0553 0.33958 0.0
C1105 C 0.80305 0.05666 0.31212 0.0
H1106 H 0.14849 0.60105 0.06326 0.0
H1107 H 0.22828 0.56286 0.11288 0.0
H1108 H 0.26619 0.57549 0.07341 0.0
H1109 H 0.1716 0.56443 1.00098 0.0
H1110 H 0.15881 0.59644 0.97738 0.0
H1111 H 0.13922 0.59125 0.01131 0.0
H1112 H 0.15268 0.65062 0.02503 0.0
H1113 H 0.1716 0.65632 0.99079 0.0
H1114 H 0.19402 0.66483 0.02291 0.0
H1115 H 0.29448 0.58809 0.02631 0.0
H1116 H 0.31018 0.59917 0.97619 0.0
H1117 H 0.21024 0.62331 0.95663 0.0
C1118 C 0.1742 0.59691 0.06632 0.0
C1119 C 0.18576 0.58213 0.09146 0.0
C1120 C 0.21924 0.57513 0.09408 0.0
C1121 C 0.24085 0.58201 0.0717 0.0
C1122 C 0.22845 0.5953 0.04663 0.0
C1123 C 0.19586 0.60273 0.04389 0.0
C1124 C 0.1878 0.61304 0.01374 0.0
C1125 C 0.1629 0.58991 1.00007 0.0
C1126 C 0.17583 0.6483 0.01309 0.0
C1127 C 0.22078 0.60987 0.99985 0.0
C1128 C 0.24409 0.60014 0.01917 0.0
C1129 C 0.27639 0.59575 0.01103 0.0
C1130 C 0.28508 0.60191 0.98252 0.0
C1131 C 0.2614 0.61159 0.96239 0.0
C1132 C 0.22886 0.61537 0.97133 0.0
H1133 H 0.68786 0.99454 0.7024 0.0
H1134 H 0.60804 0.05212 0.73426 0.0
H1135 H 0.61811 0.03114 0.78294 0.0
H1136 H 0.6745 0.92634 0.74212 0.0
H1137 H 0.71647 0.91702 0.74904 0.0
H1138 H 0.70558 0.93955 0.71768 0.0
H1139 H 0.74441 0.98614 0.73243 0.0
H1140 H 0.75586 0.9635 0.7637 0.0
H1141 H 0.74053 0.00417 0.76722 0.0
H1142 H 0.6308 0.99526 0.82617 0.0
H1143 H 0.65109 0.95509 0.86149 0.0
H1144 H 0.72582 0.92602 0.80201 0.0
C1145 C 0.67328 0.00359 0.71983 0.0
C1146 C 0.64739 0.02513 0.71471 0.0
C1147 C 0.62839 0.03607 0.73788 0.0
C1148 C 0.63377 0.02406 0.76555 0.0
C1149 C 0.6588 1.00183 0.76974 0.0
C1150 C 0.67887 0.99253 0.7476 0.0
C1151 C 0.70341 0.96765 0.75732 0.0
C1152 C 0.69975 0.93577 0.74054 0.0
C1153 C 0.73811 0.98118 0.75504 0.0
C1154 C 0.69332 0.96345 0.78808 0.0
C1155 C 0.66736 0.98308 0.79493 0.0
C1156 C 0.65177 0.98055 0.82131 0.0
C1157 C 0.66328 0.95765 0.84118 0.0
C1158 C 0.69046 0.93818 0.83469 0.0
C1159 C 0.70565 0.94141 0.80788 0.0
H1160 H 0.42882 0.24846 0.12437 0.0
H1161 H 0.45975 0.15626 0.09019 0.0
H1162 H 0.51679 0.17522 0.09029 0.0
H1163 H 0.48056 0.29605 0.08229 0.0
H1164 H 0.48947 0.32615 0.10901 0.0
H1165 H 0.45178 0.30405 0.1103 0.0
H1166 H 0.46463 0.28535 0.16173 0.0
H1167 H 0.50236 0.30758 0.16066 0.0
H1168 H 0.50235 0.26492 0.16901 0.0
H1169 H 0.56902 0.20535 0.08955 0.0
H1170 H 0.61389 0.24531 0.08766 0.0
H1171 H 0.55039 0.31928 0.12134 0.0
C1172 C 0.44789 0.23212 0.11779 0.0
C1173 C 0.44027 0.20066 0.10782 0.0
C1174 C 0.46543 0.18019 0.09828 0.0
C1175 C 0.49778 0.19078 0.09829 0.0
C1176 C 0.50459 0.22211 0.10771 0.0
C1177 C 0.48044 0.24257 0.11735 0.0
C1178 C 0.49418 0.27602 0.1239 0.0
C1179 C 0.47804 0.3021 0.10526 0.0
C1180 C 0.49067 0.28393 0.15572 0.0
C1181 C 0.52958 0.27134 0.11582 0.0
C1182 C 0.53499 0.23988 0.10685 0.0
C1183 C 0.56519 0.2299 0.09689 0.0
C1184 C 0.59047 0.25267 0.09582 0.0
C1185 C 0.58555 0.28503 0.10464 0.0
C1186 C 0.55479 0.29445 0.11501 0.0
H1187 H 0.48688 0.66994 0.36397 0.0
H1188 H 0.58838 0.69646 0.36812 0.0
H1189 H 0.57314 0.7545 0.37256 0.0
H1190 H 0.45996 0.73565 0.32277 0.0
H1191 H 0.42199 0.74057 0.34128 0.0
H1192 H 0.44109 0.70142 0.3401 0.0
H1193 H 0.44047 0.6985 0.39523 0.0
H1194 H 0.42113 0.73758 0.39658 0.0
H1195 H 0.45852 0.73089 0.41561 0.0
H1196 H 0.54583 0.81037 0.37078 0.0
H1197 H 0.50992 0.85769 0.36787 0.0
H1198 H 0.42604 0.79384 0.36979 0.0
C1199 C 0.50578 0.68803 0.3663 0.0
C1200 C 0.53876 0.6789 0.36598 0.0
C1201 C 0.563 0.70307 0.36881 0.0
C1202 C 0.55452 0.73602 0.37116 0.0
C1203 C 0.52166 0.74429 0.37107 0.0
C1204 C 0.4977 0.72084 0.36922 0.0
C1205 C 0.46422 0.73588 0.36936 0.0
C1206 C 0.44574 0.72791 0.34173 0.0
C1207 C 0.44496 0.72507 0.39577 0.0
C1208 C 0.47298 0.77153 0.3709 0.0
C1209 C 0.50617 0.77602 0.37173 0.0
C1210 C 0.51978 0.80705 0.3711 0.0
C1211 C 0.49896 0.83407 0.36986 0.0
C1212 C 0.46472 0.83008 0.36988 0.0
C1213 C 0.45196 0.79811 0.37032 0.0
H1214 H 0.92281 0.74003 0.63916 0.0
H1215 H 0.95127 0.66039 0.58492 0.0
H1216 H 0.00866 0.67818 0.58778 0.0
H1217 H 0.9737 0.79747 0.60728 0.0
H1218 H 0.98357 0.81911 0.63949 0.0
H1219 H 0.94574 0.79743 0.6368 0.0
H1220 H 0.95984 0.76486 0.68233 0.0
H1221 H 0.99773 0.78657 0.68523 0.0
H1222 H 0.99754 0.74289 0.68409 0.0
H1223 H 0.06193 0.70753 0.59278 0.0
H1224 H 0.10661 0.74715 0.59815 0.0
H1225 H 0.04392 0.80885 0.64833 0.0
C1226 C 0.94142 0.72592 0.6287 0.0
C1227 C 0.933 0.69845 0.61233 0.0
C1228 C 0.95757 0.68117 0.59789 0.0
C1229 C 0.99013 0.6911 0.59944 0.0
C1230 C 0.99772 0.71863 0.61534 0.0
C1231 C 0.97407 0.73586 0.62971 0.0
C1232 C 0.98825 0.76633 0.64295 0.0
C1233 C 0.97184 0.79688 0.6309 0.0
C1234 C 0.98569 0.76507 0.67559 0.0
C1235 C 0.0233 0.76388 0.63328 0.0
C1236 C 0.02838 0.73593 0.61775 0.0
C1237 C 0.0584 0.72917 0.6054 0.0
C1238 C 0.0838 0.75167 0.60878 0.0
C1239 C 0.07908 0.78067 0.62433 0.0
C1240 C 0.04838 0.78661 0.63678 0.0
H1241 H 0.94072 0.29178 0.88528 0.0
H1242 H 0.99931 0.35042 0.82845 0.0
H1243 H 0.03868 0.30563 0.824 0.0
H1244 H 0.0083 0.25093 0.92145 0.0
H1245 H 0.98728 0.21263 0.92374 0.0
H1246 H 0.96465 0.24995 0.92387 0.0
H1247 H 0.9309 0.22996 0.88073 0.0
H1248 H 0.95331 0.19257 0.88055 0.0
H1249 H 0.9515 0.21714 0.84882 0.0
H1250 H 0.06932 0.25339 0.82281 0.0
H1251 H 0.08957 0.19699 0.82525 0.0
H1252 H 0.01254 0.17189 0.88388 0.0
C1253 C 0.96205 0.29516 0.87216 0.0
C1254 C 0.96743 0.3248 0.8577 0.0
C1255 C 0.99531 0.32832 0.84038 0.0
C1256 C 0.01766 0.30292 0.83761 0.0
C1257 C 0.01183 0.27412 0.85234 0.0
C1258 C 0.98477 0.27007 0.86935 0.0
C1259 C 0.98372 0.2362 0.88207 0.0
C1260 C 0.98614 0.23752 0.91472 0.0
C1261 C 0.95304 0.21789 0.87246 0.0
C1262 C 0.01408 0.22164 0.86911 0.0
C1263 C 0.02993 0.24402 0.85207 0.0
C1264 C 0.05742 0.23584 0.83642 0.0
C1265 C 0.06877 0.20387 0.83792 0.0
C1266 C 0.05294 0.18056 0.85514 0.0
C1267 C 0.02548 0.18964 0.8712 0.0
H1268 H 0.57029 0.77798 0.93913 0.0
H1269 H 0.57749 0.80587 0.85051 0.0
H1270 H 0.52614 0.77667 0.84008 0.0
H1271 H 0.53776 0.6962 0.92524 0.0
H1272 H 0.51172 0.69663 0.95606 0.0
H1273 H 0.54923 0.71921 0.9563 0.0
H1274 H 0.51773 0.77155 0.96882 0.0
H1275 H 0.48016 0.74916 0.96855 0.0
H1276 H 0.48482 0.78443 0.9462 0.0
H1277 H 0.47108 0.75003 0.84088 0.0
H1278 H 0.41955 0.7228 0.85106 0.0
H1279 H 0.4509 0.70527 0.93796 0.0
C1280 C 0.56103 0.77753 0.91755 0.0
C1281 C 0.5776 0.79395 0.8955 0.0
C1282 C 0.56507 0.7931 0.86748 0.0
C1283 C 0.53597 0.77671 0.86146 0.0
C1284 C 0.52003 0.7608 0.88366 0.0
C1285 C 0.53237 0.76058 0.91106 0.0
C1286 C 0.51056 0.74135 0.93093 0.0
C1287 C 0.52838 0.71157 0.94283 0.0
C1288 C 0.49755 0.76292 0.95504 0.0
C1289 C 0.48369 0.73143 0.91057 0.0
C1290 C 0.48952 0.74314 0.88349 0.0
C1291 C 0.46686 0.73957 0.86171 0.0
C1292 C 0.43763 0.72333 0.86762 0.0
C1293 C 0.43152 0.70976 0.8949 0.0
C1294 C 0.45506 0.71428 0.91661 0.0
H1295 H 0.46883 0.32079 0.68846 0.0
H1296 H 0.45569 0.33592 0.59793 0.0
H1297 H 0.48716 0.28631 0.58789 0.0
H1298 H 0.55184 0.28995 0.68382 0.0
H1299 H 0.54622 0.26076 0.712 0.0
H1300 H 0.52323 0.29784 0.71199 0.0
H1301 H 0.46985 0.26467 0.7144 0.0
H1302 H 0.49266 0.22749 0.71424 0.0
H1303 H 0.46178 0.23429 0.68771 0.0
H1304 H 0.51759 0.23347 0.58774 0.0
H1305 H 0.54839 0.18318 0.59742 0.0
H1306 H 0.54398 0.2026 0.68792 0.0
C1307 C 0.47298 0.31371 0.66657 0.0
C1308 C 0.46044 0.33253 0.64391 0.0
C1309 C 0.46592 0.32242 0.61552 0.0
C1310 C 0.48348 0.29408 0.60966 0.0
C1311 C 0.49557 0.27606 0.63244 0.0
C1312 C 0.49088 0.28562 0.66034 0.0
C1313 C 0.50667 0.26189 0.68085 0.0
C1314 C 0.53359 0.27861 0.69818 0.0
C1315 C 0.48122 0.24616 0.70046 0.0
C1316 C 0.52066 0.23737 0.66014 0.0
C1317 C 0.51371 0.2459 0.63232 0.0
C1318 C 0.52326 0.22663 0.60943 0.0
C1319 C 0.5405 0.19801 0.61509 0.0
C1320 C 0.54822 0.18895 0.64336 0.0
C1321 C 0.53834 0.20906 0.66612 0.0
H1322 H 0.06549 0.2788 0.4149 0.0
H1323 H 0.06994 0.30513 0.3258 0.0
H1324 H 0.02063 0.27194 0.31638 0.0
H1325 H 0.0364 0.1946 0.40375 0.0
H1326 H 0.01113 0.19575 0.43506 0.0
H1327 H 0.04803 0.21926 0.43377 0.0
H1328 H 0.01543 0.27128 0.44522 0.0
H1329 H 0.97848 0.248 0.4464 0.0
H1330 H 0.98169 0.28235 0.4228 0.0
H1331 H 0.96632 0.24169 0.31879 0.0
H1332 H 0.91519 0.21425 0.33164 0.0
H1333 H 0.94937 0.20374 0.4185 0.0
C1334 C 0.05635 0.27695 0.39333 0.0
C1335 C 0.07147 0.29413 0.37097 0.0
C1336 C 0.05886 0.29162 0.34303 0.0
C1337 C 0.03085 0.27297 0.33759 0.0
C1338 C 0.01616 0.25663 0.36029 0.0
C1339 C 0.02888 0.25806 0.38753 0.0
C1340 C 0.00816 0.23926 0.40845 0.0
C1341 C 0.02706 0.21051 0.42099 0.0
C1342 C 0.99518 0.26156 0.4321 0.0
C1343 C 0.98118 0.22781 0.389 0.0
C1344 C 0.9861 0.23799 0.36129 0.0
C1345 C 0.96281 0.23263 0.34021 0.0
C1346 C 0.93385 0.21652 0.34766 0.0
C1347 C 0.92856 0.2054 0.37589 0.0
C1348 C 0.95287 0.21116 0.39659 0.0
H1349 H 0.98454 0.6656 0.13326 0.0
H1350 H 0.08544 0.68843 0.14939 0.0
H1351 H 0.07203 0.74694 0.15145 0.0
H1352 H 0.96808 0.73687 0.08809 0.0
H1353 H 0.92748 0.74158 0.10169 0.0
H1354 H 0.94557 0.70191 0.10014 0.0
H1355 H 0.93473 0.69424 0.15409 0.0
H1356 H 0.91688 0.73396 0.15587 0.0
H1357 H 0.95027 0.72372 0.17898 0.0
H1358 H 0.0462 0.80199 0.15732 0.0
H1359 H 0.01106 0.85037 0.1608 0.0
H1360 H 0.92781 0.79238 0.13652 0.0
C1361 C 0.00376 0.68311 0.13672 0.0
C1362 C 0.03604 0.67284 0.1408 0.0
C1363 C 0.06071 0.69611 0.14564 0.0
C1364 C 0.05325 0.72925 0.14704 0.0
C1365 C 0.02106 0.73864 0.14321 0.0
C1366 C 0.99679 0.71629 0.13766 0.0
C1367 C 0.96413 0.73266 0.13454 0.0
C1368 C 0.95052 0.72798 0.10432 0.0
C1369 C 0.9401 0.72041 0.15723 0.0
C1370 C 0.97367 0.76763 0.13979 0.0
C1371 C 0.00657 0.77056 0.14494 0.0
C1372 C 0.02062 0.80017 0.15233 0.0
C1373 C 1.0006 0.82758 0.15394 0.0
C1374 C 0.96713 0.82539 0.14739 0.0
C1375 C 0.95353 0.79486 0.14074 0.0
H1376 H 0.20355 0.23698 0.1183 0.0
H1377 H 0.28956 0.24981 0.06622 0.0
H1378 H 0.2729 0.30601 0.05569 0.0
H1379 H 0.14789 0.2932 0.0773 0.0
H1380 H 0.12999 0.30765 0.1099 0.0
H1381 H 0.14419 0.26642 0.10751 0.0
H1382 H 0.18038 0.27569 0.15194 0.0
H1383 H 0.16664 0.31684 0.15436 0.0
H1384 H 0.20944 0.30845 0.15184 0.0
H1385 H 0.25319 0.36256 0.0585 0.0
H1386 H 0.23159 0.41545 0.07426 0.0
H1387 H 0.15918 0.3664 0.12532 0.0
C1388 C 0.21819 0.25116 0.10371 0.0
C1389 C 0.24766 0.23901 0.0928 0.0
C1390 C 0.26675 0.25863 0.07459 0.0
C1391 C 0.2574 0.29051 0.06841 0.0
C1392 C 0.22888 0.30224 0.08055 0.0
C1393 C 0.20941 0.28308 0.09767 0.0
C1394 C 0.18279 0.30268 0.1116 0.0
C1395 C 0.14922 0.29184 0.10093 0.0
C1396 C 0.18498 0.3008 0.14435 0.0
C1397 C 0.19126 0.33617 0.10075 0.0
C1398 C 0.21751 0.33529 0.08239 0.0
C1399 C 0.23208 0.36349 0.07217 0.0
C1400 C 0.21984 0.39333 0.08129 0.0
C1401 C 0.19338 0.39468 0.1004 0.0
C1402 C 0.17856 0.36581 0.1098 0.0
H1403 H 0.39611 0.41045 0.39901 0.0
H1404 H 0.35441 0.42768 0.31584 0.0
H1405 H 0.40801 0.44623 0.29799 0.0
H1406 H 0.4453 0.47792 0.40163 0.0
H1407 H 0.47901 0.45877 0.41932 0.0
H1408 H 0.43865 0.44316 0.42423 0.0
H1409 H 0.45738 0.38645 0.4071 0.0
H1410 H 0.49795 0.40196 0.40232 0.0
H1411 H 0.47726 0.38252 0.37309 0.0
H1412 H 0.46338 0.47238 0.2925 0.0
H1413 H 0.5178 0.49781 0.29828 0.0
H1414 H 0.5243 0.45822 0.38349 0.0
C1415 C 0.39871 0.41721 0.37684 0.0
C1416 C 0.37161 0.4173 0.35857 0.0
C1417 C 0.37529 0.42686 0.32983 0.0
C1418 C 0.40551 0.43755 0.31964 0.0
C1419 C 0.43176 0.43788 0.33842 0.0
C1420 C 0.42876 0.42729 0.36629 0.0
C1421 C 0.46009 0.4316 0.38265 0.0
C1422 C 0.45547 0.4542 0.40845 0.0
C1423 C 0.47399 0.39866 0.39182 0.0
C1424 C 0.48086 0.4473 0.35996 0.0
C1425 C 0.46416 0.45096 0.3346 0.0
C1426 C 0.47713 0.46863 0.31186 0.0
C1427 C 0.50789 0.48298 0.31525 0.0
C1428 C 0.5253 0.47879 0.34088 0.0
C1429 C 0.51183 0.46043 0.36325 0.0
H1430 H 0.23119 0.74454 0.62182 0.0
H1431 H 0.29865 0.79965 0.56988 0.0
H1432 H 0.32996 0.74974 0.5604 0.0
H1433 H 0.29096 0.69621 0.65507 0.0
H1434 H 0.26666 0.65983 0.65644 0.0
H1435 H 0.24736 0.69894 0.65675 0.0
H1436 H 0.21301 0.68336 0.61268 0.0
H1437 H 0.23168 0.64393 0.61244 0.0
H1438 H 0.233 0.669 0.58099 0.0
H1439 H 0.35414 0.69452 0.55719 0.0
H1440 H 0.37013 0.63676 0.56074 0.0
H1441 H 0.28981 0.6183 0.61782 0.0
C1442 C 0.25207 0.74581 0.60786 0.0
C1443 C 0.26234 0.7756 0.59608 0.0
C1444 C 0.29037 0.77682 0.57876 0.0
C1445 C 0.30827 0.7487 0.57335 0.0
C1446 C 0.29804 0.71979 0.58587 0.0
C1447 C 0.27065 0.71809 0.60279 0.0
C1448 C 0.26609 0.68438 0.61504 0.0
C1449 C 0.2679 0.68488 0.64776 0.0
C1450 C 0.23404 0.66928 0.60466 0.0
C1451 C 0.29516 0.66738 0.60227 0.0
C1452 C 0.3131 0.68824 0.58535 0.0
C1453 C 0.34045 0.678 0.57052 0.0
C1454 C 0.34942 0.64539 0.57269 0.0
C1455 C 0.33143 0.62373 0.58988 0.0
C1456 C 0.30419 0.63484 0.60507 0.0
H1457 H 0.98029 0.55488 0.85603 0.0
H1458 H 0.00907 0.45918 0.82737 0.0
H1459 H 0.06527 0.47911 0.82064 0.0
H1460 H 0.0343 0.60243 0.80954 0.0
H1461 H 0.04202 0.63188 0.83709 0.0
H1462 H 0.00365 0.61087 0.83587 0.0
H1463 H 0.01218 0.59178 0.88796 0.0
H1464 H 0.05074 0.61225 0.88925 0.0
H1465 H 0.04831 0.56953 0.89709 0.0
H1466 H 0.11948 0.509 0.82102 0.0
H1467 H 0.16613 0.54631 0.82746 0.0
H1468 H 0.10101 0.62084 0.85789 0.0
C1469 C 0.99812 0.53821 0.84761 0.0
C1470 C 0.99023 0.50548 0.84208 0.0
C1471 C 0.01453 0.4844 0.83161 0.0
C1472 C 0.0465 0.49551 0.82775 0.0
C1473 C 0.05363 0.52771 0.8344 0.0
C1474 C 0.02998 0.54877 0.84391 0.0
C1475 C 0.04403 0.58147 0.85165 0.0
C1476 C 0.03018 0.60824 0.83238 0.0
C1477 C 0.03848 0.58918 0.88336 0.0
C1478 C 0.07944 0.57548 0.84546 0.0
C1479 C 0.0846 0.54447 0.83535 0.0
C1480 C 0.11567 0.53332 0.82894 0.0
C1481 C 0.14205 0.55448 0.83302 0.0
C1482 C 0.13714 0.58615 0.84378 0.0
C1483 C 0.10538 0.59672 0.8497 0.0
H1484 H 0.81098 0.77789 0.89046 0.0
H1485 H 0.72002 0.75128 0.93088 0.0
H1486 H 0.73939 0.69479 0.9357 0.0
H1487 H 0.81745 0.70788 0.84896 0.0
H1488 H 0.86098 0.705 0.85163 0.0
H1489 H 0.84157 0.7439 0.85431 0.0
H1490 H 0.86885 0.75375 0.90331 0.0
H1491 H 0.88878 0.71506 0.90064 0.0
H1492 H 0.86405 0.72411 0.93125 0.0
H1493 H 0.7681 0.6403 0.93365 0.0
H1494 H 0.80385 0.59311 0.92559 0.0
H1495 H 0.87417 0.6556 0.88421 0.0
C1496 C 0.79537 0.76044 0.90099 0.0
C1497 C 0.76411 0.76912 0.91061 0.0
C1498 C 0.74419 0.74526 0.92361 0.0
C1499 C 0.75496 0.71311 0.92637 0.0
C1500 C 0.7856 0.70522 0.91589 0.0
C1501 C 0.80553 0.7283 0.90357 0.0
C1502 C 0.8365 0.7134 0.89237 0.0
C1503 C 0.83926 0.71781 0.8599 0.0
C1504 C 0.8663 0.72741 0.90783 0.0
C1505 C 0.83089 0.67826 0.9002 0.0
C1506 C 0.80149 0.67396 0.91383 0.0
C1507 C 0.79107 0.64341 0.92283 0.0
C1508 C 0.81131 0.61666 0.91781 0.0
C1509 C 0.84137 0.6206 0.90359 0.0
C1510 C 0.85121 0.6519 0.89494 0.0
H1511 H 0.63198 0.5376 0.65182 0.0
H1512 H 0.61182 0.64031 0.64522 0.0
H1513 H 0.55283 0.62851 0.64459 0.0
H1514 H 0.56729 0.51115 0.60473 0.0
H1515 H 0.5586 0.47504 0.62502 0.0
H1516 H 0.59899 0.49183 0.62499 0.0
H1517 H 0.59766 0.49466 0.68012 0.0
H1518 H 0.55708 0.47829 0.68028 0.0
H1519 H 0.56542 0.51645 0.69751 0.0
H1520 H 0.49662 0.60567 0.64593 0.0
H1521 H 0.44636 0.57349 0.64403 0.0
H1522 H 0.50257 0.48472 0.64872 0.0
C1523 C 0.61501 0.55748 0.65007 0.0
C1524 C 0.62622 0.58984 0.64821 0.0
C1525 C 0.60358 0.61538 0.64602 0.0
C1526 C 0.57013 0.60889 0.64598 0.0
C1527 C 0.55985 0.5767 0.64805 0.0
C1528 C 0.58158 0.55136 0.64968 0.0
C1529 C 0.56413 0.51892 0.65086 0.0
C1530 C 0.57277 0.49801 0.62485 0.0
C1531 C 0.57152 0.50103 0.67886 0.0
C1532 C 0.52911 0.52997 0.64977 0.0
C1533 C 0.5273 0.56343 0.64841 0.0
C1534 C 0.49774 0.57948 0.6469 0.0
C1535 C 0.4693 0.5609 0.64589 0.0
C1536 C 0.47046 0.52651 0.64622 0.0
C1537 C 0.50083 0.51092 0.64875 0.0
H1538 H 0.69608 0.22546 0.40938 0.0
H1539 H 0.78712 0.24381 0.36573 0.0
H1540 H 0.77067 0.30016 0.35667 0.0
H1541 H 0.64519 0.27702 0.36552 0.0
H1542 H 0.62157 0.29204 0.39495 0.0
H1543 H 0.63927 0.25218 0.39672 0.0
H1544 H 0.66853 0.26742 0.44374 0.0
H1545 H 0.65061 0.30714 0.44228 0.0
H1546 H 0.69405 0.30299 0.44477 0.0
H1547 H 0.74467 0.35404 0.35149 0.0
H1548 H 0.71359 0.40499 0.35698 0.0
H1549 H 0.64135 0.3539 0.40683 0.0
C1550 C 0.71247 0.24149 0.39805 0.0
C1551 C 0.74292 0.23046 0.38847 0.0
C1552 C 0.76388 0.25199 0.3737 0.0
C1553 C 0.75463 0.28393 0.36812 0.0
C1554 C 0.72449 0.29416 0.37776 0.0
C1555 C 0.70395 0.2739 0.3929 0.0
C1556 C 0.67396 0.29196 0.40258 0.0
C1557 C 0.64317 0.27743 0.38913 0.0
C1558 C 0.67167 0.29241 0.43528 0.0
C1559 C 0.68113 0.32544 0.39071 0.0
C1560 C 0.71006 0.32593 0.37589 0.0
C1561 C 0.72194 0.35404 0.36301 0.0
C1562 C 0.70413 0.38272 0.36601 0.0
C1563 C 0.67514 0.38299 0.38203 0.0
C1564 C 0.66339 0.35399 0.3943 0.0
H1565 H 0.8751 0.44288 0.14017 0.0
H1566 H 0.89774 0.35381 0.18448 0.0
H1567 H 0.95596 0.36927 0.18574 0.0
H1568 H 0.9502 0.44907 0.09799 0.0
H1569 H 0.95267 0.49246 0.10199 0.0
H1570 H 0.91369 0.47257 0.10204 0.0
H1571 H 0.90075 0.49873 0.15091 0.0
H1572 H 0.93985 0.5183 0.15116 0.0
H1573 H 0.92806 0.49249 0.18041 0.0
H1574 H 0.0115 0.39505 0.18259 0.0
H1575 H 0.06 0.43014 0.17686 0.0
H1576 H 1.00002 0.50443 0.13824 0.0
C1577 C 0.89261 0.42647 0.14948 0.0
C1578 C 0.88248 0.39694 0.16174 0.0
C1579 C 0.90551 0.37631 0.17468 0.0
C1580 C 0.93845 0.38492 0.17549 0.0
C1581 C 0.94775 0.41452 0.16364 0.0
C1582 C 0.9255 0.43505 0.15093 0.0
C1583 C 0.94145 0.46639 0.14149 0.0
C1584 C 0.93939 0.47034 0.10895 0.0
C1585 C 0.92664 0.4957 0.15692 0.0
C1586 C 0.97602 0.46039 0.15108 0.0
C1587 C 0.97928 0.43016 0.16343 0.0
C1588 C 0.0092 0.41886 0.17313 0.0
C1589 C 0.03656 0.43893 0.16988 0.0
C1590 C 0.03359 0.47013 0.15761 0.0
C1591 C 1.00286 0.48096 0.14831 0.0
H1592 H 0.69155 0.72748 0.62667 0.0
H1593 H 0.77983 0.75168 0.58087 0.0
H1594 H 0.76114 0.80819 0.57585 0.0
H1595 H 0.63687 0.78091 0.58674 0.0
H1596 H 0.61395 0.79165 0.618 0.0
H1597 H 0.63313 0.75253 0.61579 0.0
H1598 H 0.66317 0.76399 0.66324 0.0
H1599 H 0.64449 0.8033 0.66543 0.0
H1600 H 0.68807 0.79982 0.66642 0.0
H1601 H 0.73402 0.86279 0.57774 0.0
H1602 H 0.69957 0.91097 0.58531 0.0
H1603 H 0.6301 0.85184 0.63138 0.0
C1604 C 0.7066 0.74448 0.615 0.0
C1605 C 0.73703 0.73508 0.60393 0.0
C1606 C 0.75634 0.75828 0.5894 0.0
C1607 C 0.74597 0.79046 0.58647 0.0
C1608 C 0.71625 0.79915 0.59828 0.0
C1609 C 0.69675 0.77682 0.61212 0.0
C1610 C 0.66663 0.79278 0.62407 0.0
C1611 C 0.63582 0.77863 0.61032 0.0
C1612 C 0.66555 0.78979 0.65673 0.0
C1613 C 0.67231 0.82756 0.61486 0.0
C1614 C 0.70105 0.83074 0.59999 0.0
C1615 C 0.71155 0.86063 0.5895 0.0
C1616 C 0.69206 0.88796 0.59423 0.0
C1617 C 0.66261 0.88528 0.60956 0.0
C1618 C 0.65265 0.85458 0.61979 0.0
H1619 H 0.89694 0.91537 0.82768 0.0
H1620 H 0.86932 0.92306 0.91665 0.0
H1621 H 0.92338 0.94331 0.92835 0.0
H1622 H 0.98241 0.89692 0.83631 0.0
H1623 H 0.99522 0.92357 0.80799 0.0
H1624 H 0.95568 0.90484 0.80671 0.0
H1625 H 0.92906 0.96139 0.80177 0.0
H1626 H 0.96848 0.98028 0.80303 0.0
H1627 H 0.93754 0.99213 0.82803 0.0
H1628 H 0.98073 0.96127 0.9309 0.0
H1629 H 0.03449 0.98657 0.92339 0.0
H1630 H 0.02288 0.97655 0.83201 0.0
C1631 C 0.90239 0.92078 0.84972 0.0
C1632 C 0.87918 0.91507 0.87147 0.0
C1633 C 0.88699 0.92413 0.89981 0.0
C1634 C 0.91771 0.93642 0.90666 0.0
C1635 C 0.94005 0.94091 0.88482 0.0
C1636 C 0.93255 0.93425 0.8568 0.0
C1637 C 0.95974 0.94495 0.83706 0.0
C1638 C 0.97411 0.91583 0.82107 0.0
C1639 C 0.948 0.97125 0.81625 0.0
C1640 C 0.98369 0.95862 0.85847 0.0
C1641 C 0.972 0.95526 0.88593 0.0
C1642 C 0.98995 0.96477 0.90957 0.0
C1643 C 0.02042 0.97881 0.90509 0.0
C1644 C 0.0324 0.98355 0.87718 0.0
C1645 C 0.01392 0.97335 0.85351 0.0
H1646 H 0.87885 0.15791 0.12375 0.0
H1647 H 0.81017 0.096 0.07972 0.0
H1648 H 0.77496 0.14341 0.07059 0.0
H1649 H 0.82167 0.20879 0.15757 0.0
H1650 H 0.84586 0.24497 0.15357 0.0
H1651 H 0.86527 0.20606 0.15582 0.0
H1652 H 0.89442 0.21736 0.1078 0.0
H1653 H 0.87469 0.25618 0.10527 0.0
H1654 H 0.87069 0.22725 0.07673 0.0
H1655 H 0.74613 0.19787 0.06875 0.0
H1656 H 0.72589 0.25381 0.07535 0.0
H1657 H 0.81587 0.27952 0.11796 0.0
C1658 C 0.85642 0.1544 0.11211 0.0
C1659 C 0.84677 0.12326 0.10309 0.0
C1660 C 0.8174 0.11948 0.08775 0.0
C1661 C 0.79753 0.14635 0.0821 0.0
C1662 C 0.80774 0.17677 0.09153 0.0
C1663 C 0.83658 0.18085 0.10615 0.0
C1664 C 0.84187 0.21574 0.11471 0.0
C1665 C 0.84376 0.21907 0.14734 0.0
C1666 C 0.87222 0.22996 0.10026 0.0
C1667 C 0.81125 0.2307 0.10299 0.0
C1668 C 0.79184 0.20798 0.08959 0.0
C1669 C 0.76133 0.21595 0.07885 0.0
C1670 C 0.75008 0.24778 0.08262 0.0
C1671 C 0.7694 0.27111 0.09695 0.0
C1672 C 0.80068 0.26248 0.1065 0.0
H1673 H 0.50287 0.98018 0.35256 0.0
H1674 H 0.44756 0.0696 0.35412 0.0
H1675 H 0.49801 0.10106 0.3487 0.0
H1676 H 0.56554 0.00664 0.39411 0.0
H1677 H 0.5975 0.986 0.37532 0.0
H1678 H 0.55687 0.9701 0.37446 0.0
H1679 H 0.55725 0.9717 0.31928 0.0
H1680 H 0.59812 0.98739 0.3199 0.0
H1681 H 0.56677 0.0091 0.30117 0.0
H1682 H 0.55438 0.12284 0.35234 0.0
H1683 H 0.61231 0.13298 0.36114 0.0
H1684 H 0.63151 0.03007 0.35318 0.0
C1685 C 0.50128 0.00632 0.35084 0.0
C1686 C 0.47128 0.02238 0.35375 0.0
C1687 C 0.47027 0.05669 0.35193 0.0
C1688 C 0.4988 0.07484 0.34877 0.0
C1689 C 0.52813 0.05834 0.34701 0.0
C1690 C 0.52955 0.02483 0.34752 0.0
C1691 C 0.56432 0.01317 0.34769 0.0
C1692 C 0.57146 0.9928 0.37448 0.0
C1693 C 0.57207 0.99423 0.32038 0.0
C1694 C 0.5821 0.04534 0.34838 0.0
C1695 C 0.56085 0.07112 0.34779 0.0
C1696 C 0.57144 0.10296 0.35162 0.0
C1697 C 0.60463 0.10858 0.35628 0.0
C1698 C 0.62691 0.08252 0.35665 0.0
C1699 C 0.61526 0.05061 0.35228 0.0
H1700 H 0.29358 0.27982 0.41339 0.0
H1701 H 0.21152 0.26042 0.35795 0.0
H1702 H 0.23054 0.20469 0.35064 0.0
H1703 H 0.35257 0.23016 0.37608 0.0
H1704 H 0.3713 0.21507 0.40814 0.0
H1705 H 0.35264 0.25453 0.40793 0.0
H1706 H 0.31616 0.23786 0.45047 0.0
H1707 H 0.33495 0.19851 0.45099 0.0
H1708 H 0.29149 0.20181 0.44782 0.0
H1709 H 0.2579 0.1516 0.34869 0.0
H1710 H 0.28859 0.10118 0.35769 0.0
H1711 H 0.35114 0.15257 0.41658 0.0
C1712 C 0.27972 0.26371 0.3998 0.0
C1713 C 0.25097 0.27426 0.38641 0.0
C1714 C 0.2333 0.25262 0.36881 0.0
C1715 C 0.2441 0.22103 0.36422 0.0
C1716 C 0.27247 0.21126 0.37764 0.0
C1717 C 0.2898 0.23163 0.39548 0.0
C1718 C 0.31821 0.21398 0.40883 0.0
C1719 C 0.3506 0.22936 0.39969 0.0
C1720 C 0.31499 0.21298 0.44146 0.0
C1721 C 0.31382 0.1806 0.39584 0.0
C1722 C 0.28769 0.17986 0.37743 0.0
C1723 C 0.27853 0.1518 0.36297 0.0
C1724 C 0.29616 0.12343 0.36797 0.0
C1725 C 0.32232 0.12339 0.38744 0.0
C1726 C 0.33137 0.15233 0.40139 0.0
H1727 H 0.98426 0.05798 0.15202 0.0
H1728 H 0.01307 0.96286 0.18234 0.0
H1729 H 0.06919 0.98308 0.18913 0.0
H1730 H 0.05307 0.07164 0.11106 0.0
H1731 H 0.05529 0.11457 0.11798 0.0
H1732 H 0.01675 0.09401 0.11923 0.0
H1733 H 0.00736 0.11442 0.17075 0.0
H1734 H 0.04569 0.13551 0.16958 0.0
H1735 H 0.03762 0.10676 0.19765 0.0
H1736 H 0.12315 0.01337 0.18957 0.0
H1737 H 0.16978 0.05103 0.18369 0.0
H1738 H 0.10521 0.12447 0.15046 0.0
C1739 C 1.00207 0.04153 0.16084 0.0
C1740 C 0.99416 0.00892 0.16701 0.0
C1741 C 0.0185 0.98805 0.17779 0.0
C1742 C 0.05044 0.9993 0.18164 0.0
C1743 C 0.05756 0.03139 0.17448 0.0
C1744 C 0.03396 0.05219 0.16441 0.0
C1745 C 0.04807 0.08475 0.15615 0.0
C1746 C 0.04299 0.09162 0.12422 0.0
C1747 C 0.03384 0.11196 0.17464 0.0
C1748 C 0.08343 0.07906 0.16291 0.0
C1749 C 0.0885 0.04824 0.17364 0.0
C1750 C 0.11943 0.03747 0.18105 0.0
C1751 C 0.14576 0.05876 0.17733 0.0
C1752 C 0.14098 0.09012 0.16585 0.0
C1753 C 0.10939 0.10042 0.15896 0.0
H1754 H 0.18773 0.88242 0.87718 0.0
H1755 H 0.18916 0.89601 0.96885 0.0
H1756 H 0.20929 0.84026 0.97495 0.0
H1757 H 0.15807 0.79814 0.8801 0.0
H1758 H 0.18174 0.7863 0.84958 0.0
H1759 H 0.16714 0.82729 0.85257 0.0
H1760 H 0.22599 0.84865 0.84693 0.0
H1761 H 0.24078 0.80775 0.84432 0.0
H1762 H 0.25703 0.83464 0.87103 0.0
H1763 H 0.23386 0.78489 0.97081 0.0
H1764 H 0.25531 0.73105 0.95667 0.0
H1765 H 0.23121 0.75155 0.86865 0.0
C1766 C 0.19091 0.87353 0.8986 0.0
C1767 C 0.18612 0.89365 0.92257 0.0
C1768 C 0.19257 0.88108 0.95014 0.0
C1769 C 0.20394 0.84943 0.95386 0.0
C1770 C 0.20835 0.83034 0.92981 0.0
C1771 C 0.20149 0.84167 0.90275 0.0
C1772 C 0.20824 0.81608 0.88047 0.0
C1773 C 0.17693 0.80638 0.86476 0.0
C1774 C 0.23458 0.82747 0.85946 0.0
C1775 C 0.22039 0.78885 0.89924 0.0
C1776 C 0.22069 0.79769 0.92762 0.0
C1777 C 0.23315 0.77739 0.94874 0.0
C1778 C 0.24535 0.74706 0.9406 0.0
C1779 C 0.24423 0.73738 0.9118 0.0
C1780 C 0.23155 0.7584 0.89093 0.0
H1781 H 0.40235 0.8957 0.64085 0.0
H1782 H 0.33817 0.97575 0.65958 0.0
H1783 H 0.38516 0.00871 0.6752 0.0
H1784 H 0.46293 0.91095 0.69854 0.0
H1785 H 0.49627 0.89999 0.6757 0.0
H1786 H 0.45712 0.88114 0.67093 0.0
H1787 H 0.45668 0.8993 0.618 0.0
H1788 H 0.49572 0.91804 0.62262 0.0
H1789 H 0.46211 0.94162 0.60952 0.0
H1790 H 0.43993 0.03523 0.68189 0.0
H1791 H 0.49707 0.05312 0.67803 0.0
H1792 H 0.52508 0.95522 0.65511 0.0
C1793 C 0.39821 0.91988 0.649 0.0
C1794 C 0.36665 0.93292 0.64978 0.0
C1795 C 0.36203 0.96491 0.65983 0.0
C1796 C 0.38861 0.98384 0.66858 0.0
C1797 C 0.41957 0.97032 0.66721 0.0
C1798 C 0.4244 0.93895 0.65777 0.0
C1799 C 0.4601 0.93112 0.65536 0.0
C1800 C 0.46966 0.90421 0.67639 0.0
C1801 C 0.46916 0.92201 0.62455 0.0
C1802 C 0.4747 0.96334 0.66388 0.0
C1803 C 0.45104 0.98557 0.67102 0.0
C1804 C 0.4587 0.01784 0.67694 0.0
C1805 C 0.49124 0.02778 0.67473 0.0
C1806 C 0.51561 0.00552 0.66651 0.0
C1807 C 0.50718 0.97273 0.66194 0.0
loop_
_geom_bond_atom_site_label_1
_geom_bond_atom_site_label_2
_geom_bond_distance
_geom_bond_site_symmetry_2
_ccdc_geom_bond_type
Zn0 O1 2.055 . S
Zn0 O8 2.046 . S
Zn0 N16 2.036 . S
Zn0 O28 2.053 . S
Zn0 O30 2.066 . S
O1 Zn0 2.055 . S
O1 C4 1.259 . S
C2 O30 1.256 . S
C2 O31 1.244 . S
Zn3 O5 2.046 . S
Zn3 O7 2.055 . S
Zn3 N9 2.036 . S
Zn3 O27 2.066 . S
Zn3 O31 2.053 . S
C4 O1 1.259 . S
C4 O5 1.254 . S
O5 Zn3 2.046 . S
O5 C4 1.254 . S
C6 O27 1.256 . S
C6 O28 1.244 . S
O7 Zn3 2.055 . S
O7 C29 1.259 . S
O8 Zn0 2.046 . S
O8 C29 1.254 . S
N9 Zn3 2.036 . S
N9 C10 1.298 . S
N9 N12 1.398 . S
C10 N9 1.298 . S
C10 N13 1.367 . S
C10 C23 1.481 . S
C11 N12 1.299 . S
C11 N13 1.379 . S
N12 N9 1.398 . S
N12 C11 1.299 . S
N13 C10 1.367 . S
N13 C11 1.379 . S
C14 N16 1.298 . S
C14 N18 1.367 . S
C14 C22 1.481 . S
C15 N17 1.299 . S
C15 N18 1.379 . S
N16 Zn0 2.036 . S
N16 C14 1.298 . S
N16 N17 1.398 . S
N17 C15 1.299 . S
N17 N16 1.398 . S
N18 C14 1.367 . S
N18 C15 1.379 . S
H19 C22 0.980 . S
H20 C22 0.981 . S
H21 C22 0.981 . S
C22 C14 1.481 . S
C22 H19 0.980 . S
C22 H20 0.981 . S
C22 H21 0.981 . S
C23 C10 1.481 . S
C23 H24 0.980 . S
C23 H25 0.981 . S
C23 H26 0.981 . S
H24 C23 0.980 . S
H25 C23 0.981 . S
H26 C23 0.981 . S
O27 Zn3 2.066 . S
O27 C6 1.256 . S
O28 Zn0 2.053 . S
O28 C6 1.244 . S
C29 O7 1.259 . S
C29 O8 1.254 . S
O30 Zn0 2.066 . S
O30 C2 1.256 . S
O31 C2 1.244 . S
O31 Zn3 2.053 . S
Zn32 O33 2.055 . S
Zn32 O40 2.046 . S
Zn32 N48 2.036 . S
Zn32 O60 2.053 . S
Zn32 O62 2.066 . S
O33 Zn32 2.055 . S
O33 C36 1.259 . S
C34 O62 1.256 . S
C34 O63 1.244 . S
Zn35 O37 2.046 . S
Zn35 O39 2.055 . S
Zn35 N41 2.036 . S
Zn35 O59 2.066 . S
Zn35 O63 2.053 . S
C36 O33 1.259 . S
C36 O37 1.254 . S
O37 Zn35 2.046 . S
O37 C36 1.254 . S
C38 O59 1.256 . S
C38 O60 1.244 . S
O39 Zn35 2.055 . S
O39 C61 1.259 . S
O40 Zn32 2.046 . S
O40 C61 1.254 . S
N41 Zn35 2.036 . S
N41 C42 1.298 . S
N41 N44 1.398 . S
C42 N41 1.298 . S
C42 N45 1.367 . S
C42 C55 1.481 . S
C43 N44 1.299 . S
C43 N45 1.379 . S
N44 N41 1.398 . S
N44 C43 1.299 . S
N45 C42 1.367 . S
N45 C43 1.379 . S
C46 N48 1.298 . S
C46 N50 1.367 . S
C46 C54 1.481 . S
C47 N49 1.299 . S
C47 N50 1.379 . S
N48 Zn32 2.036 . S
N48 C46 1.298 . S
N48 N49 1.398 . S
N49 C47 1.299 . S
N49 N48 1.398 . S
N50 C46 1.367 . S
N50 C47 1.379 . S
H51 C54 0.980 . S
H52 C54 0.981 . S
H53 C54 0.981 . S
C54 C46 1.481 . S
C54 H51 0.980 . S
C54 H52 0.981 . S
C54 H53 0.981 . S
C55 C42 1.481 . S
C55 H56 0.980 . S
C55 H57 0.981 . S
C55 H58 0.981 . S
H56 C55 0.980 . S
H57 C55 0.981 . S
H58 C55 0.981 . S
O59 Zn35 2.066 . S
O59 C38 1.256 . S
O60 Zn32 2.053 . S
O60 C38 1.244 . S
C61 O39 1.259 . S
C61 O40 1.254 . S
O62 Zn32 2.066 . S
O62 C34 1.256 . S
O63 C34 1.244 . S
O63 Zn35 2.053 . S
Zn64 O65 2.055 . S
Zn64 O72 2.046 . S
Zn64 N80 2.036 . S
Zn64 O92 2.053 . S
Zn64 O94 2.066 . S
O65 Zn64 2.055 . S
O65 C68 1.259 . S
C66 O94 1.256 . S
C66 O95 1.244 . S
Zn67 O69 2.046 . S
Zn67 O71 2.055 . S
Zn67 N73 2.036 . S
Zn67 O91 2.066 . S
Zn67 O95 2.053 . S
C68 O65 1.259 . S
C68 O69 1.254 . S
O69 Zn67 2.046 . S
O69 C68 1.254 . S
C70 O91 1.256 . S
C70 O92 1.244 . S
O71 Zn67 2.055 . S
O71 C93 1.259 . S
O72 Zn64 2.046 . S
O72 C93 1.254 . S
N73 Zn67 2.036 . S
N73 C74 1.298 . S
N73 N76 1.398 . S
C74 N73 1.298 . S
C74 N77 1.367 . S
C74 C87 1.481 . S
C75 N76 1.299 . S
C75 N77 1.379 . S
N76 N73 1.398 . S
N76 C75 1.299 . S
N77 C74 1.367 . S
N77 C75 1.379 . S
C78 N80 1.298 . S
C78 N82 1.367 . S
C78 C86 1.481 . S
C79 N81 1.299 . S
C79 N82 1.379 . S
N80 Zn64 2.036 . S
N80 C78 1.298 . S
N80 N81 1.398 . S
N81 C79 1.299 . S
N81 N80 1.398 . S
N82 C78 1.367 . S
N82 C79 1.379 . S
H83 C86 0.980 . S
H84 C86 0.981 . S
H85 C86 0.981 . S
C86 C78 1.481 . S
C86 H83 0.980 . S
C86 H84 0.981 . S
C86 H85 0.981 . S
C87 C74 1.481 . S
C87 H88 0.980 . S
C87 H89 0.981 . S
C87 H90 0.981 . S
H88 C87 0.980 . S
H89 C87 0.981 . S
H90 C87 0.981 . S
O91 Zn67 2.066 . S
O91 C70 1.256 . S
O92 Zn64 2.053 . S
O92 C70 1.244 . S
C93 O71 1.259 . S
C93 O72 1.254 . S
O94 Zn64 2.066 . S
O94 C66 1.256 . S
O95 C66 1.244 . S
O95 Zn67 2.053 . S
Zn96 O97 2.055 . S
Zn96 O104 2.046 . S
Zn96 N112 2.036 . S
Zn96 O124 2.053 . S
Zn96 O126 2.066 . S
O97 Zn96 2.055 . S
O97 C100 1.259 . S
C98 O126 1.256 . S
C98 O127 1.244 . S
Zn99 O101 2.046 . S
Zn99 O103 2.055 . S
Zn99 N105 2.036 . S
Zn99 O123 2.066 . S
Zn99 O127 2.053 . S
C100 O97 1.259 . S
C100 O101 1.254 . S
O101 Zn99 2.046 . S
O101 C100 1.254 . S
C102 O123 1.256 . S
C102 O124 1.244 . S
O103 Zn99 2.055 . S
O103 C125 1.259 . S
O104 Zn96 2.046 . S
O104 C125 1.254 . S
N105 Zn99 2.036 . S
N105 C106 1.298 . S
N105 N108 1.398 . S
C106 N105 1.298 . S
C106 N109 1.367 . S
C106 C119 1.481 . S
C107 N108 1.299 . S
C107 N109 1.379 . S
N108 N105 1.398 . S
N108 C107 1.299 . S
N109 C106 1.367 . S
N109 C107 1.379 . S
C110 N112 1.298 . S
C110 N114 1.367 . S
C110 C118 1.481 . S
C111 N113 1.299 . S
C111 N114 1.379 . S
N112 Zn96 2.036 . S
N112 C110 1.298 . S
N112 N113 1.398 . S
N113 C111 1.299 . S
N113 N112 1.398 . S
N114 C110 1.367 . S
N114 C111 1.379 . S
H115 C118 0.980 . S
H116 C118 0.981 . S
H117 C118 0.981 . S
C118 C110 1.481 . S
C118 H115 0.980 . S
C118 H116 0.981 . S
C118 H117 0.981 . S
C119 C106 1.481 . S
C119 H120 0.980 . S
C119 H121 0.981 . S
C119 H122 0.981 . S
H120 C119 0.980 . S
H121 C119 0.981 . S
H122 C119 0.981 . S
O123 Zn99 2.066 . S
O123 C102 1.256 . S
O124 Zn96 2.053 . S
O124 C102 1.244 . S
C125 O103 1.259 . S
C125 O104 1.254 . S
O126 Zn96 2.066 . S
O126 C98 1.256 . S
O127 C98 1.244 . S
O127 Zn99 2.053 . S
Zn128 O129 2.055 . S
Zn128 O136 2.046 . S
Zn128 N144 2.036 . S
Zn128 O156 2.053 . S
Zn128 O158 2.066 . S
O129 Zn128 2.055 . S
O129 C132 1.259 . S
C130 O158 1.256 . S
C130 O159 1.244 . S
Zn131 O133 2.046 . S
Zn131 O135 2.055 . S
Zn131 N137 2.036 . S
Zn131 O155 2.066 . S
Zn131 O159 2.053 . S
C132 O129 1.259 . S
C132 O133 1.254 . S
O133 Zn131 2.046 . S
O133 C132 1.254 . S
C134 O155 1.256 . S
C134 O156 1.244 . S
O135 Zn131 2.055 . S
O135 C157 1.259 . S
O136 Zn128 2.046 . S
O136 C157 1.254 . S
N137 Zn131 2.036 . S
N137 C138 1.298 . S
N137 N140 1.398 . S
C138 N137 1.298 . S
C138 N141 1.367 . S
C138 C151 1.481 . S
C139 N140 1.299 . S
C139 N141 1.379 . S
N140 N137 1.398 . S
N140 C139 1.299 . S
N141 C138 1.367 . S
N141 C139 1.379 . S
C142 N144 1.298 . S
C142 N146 1.367 . S
C142 C150 1.481 . S
C143 N145 1.299 . S
C143 N146 1.379 . S
N144 Zn128 2.036 . S
N144 C142 1.298 . S
N144 N145 1.398 . S
N145 C143 1.299 . S
N145 N144 1.398 . S
N146 C142 1.367 . S
N146 C143 1.379 . S
H147 C150 0.980 . S
H148 C150 0.981 . S
H149 C150 0.981 . S
C150 C142 1.481 . S
C150 H147 0.980 . S
C150 H148 0.981 . S
C150 H149 0.981 . S
C151 C138 1.481 . S
C151 H152 0.980 . S
C151 H153 0.981 . S
C151 H154 0.981 . S
H152 C151 0.980 . S
H153 C151 0.981 . S
H154 C151 0.981 . S
O155 Zn131 2.066 . S
O155 C134 1.256 . S
O156 Zn128 2.053 . S
O156 C134 1.244 . S
C157 O135 1.259 . S
C157 O136 1.254 . S
O158 Zn128 2.066 . S
O158 C130 1.256 . S
O159 C130 1.244 . S
O159 Zn131 2.053 . S
Zn160 O161 2.055 . S
Zn160 O168 2.046 . S
Zn160 N176 2.036 . S
Zn160 O188 2.053 . S
Zn160 O190 2.066 . S
O161 Zn160 2.055 . S
O161 C164 1.259 . S
C162 O190 1.256 . S
C162 O191 1.244 . S
Zn163 O165 2.046 . S
Zn163 O167 2.055 . S
Zn163 N169 2.036 . S
Zn163 O187 2.066 . S
Zn163 O191 2.053 . S
C164 O161 1.259 . S
C164 O165 1.254 . S
O165 Zn163 2.046 . S
O165 C164 1.254 . S
C166 O187 1.256 . S
C166 O188 1.244 . S
O167 Zn163 2.055 . S
O167 C189 1.259 . S
O168 Zn160 2.046 . S
O168 C189 1.254 . S
N169 Zn163 2.036 . S
N169 C170 1.298 . S
N169 N172 1.398 . S
C170 N169 1.298 . S
C170 N173 1.367 . S
C170 C183 1.481 . S
C171 N172 1.299 . S
C171 N173 1.379 . S
N172 N169 1.398 . S
N172 C171 1.299 . S
N173 C170 1.367 . S
N173 C171 1.379 . S
C174 N176 1.298 . S
C174 N178 1.367 . S
C174 C182 1.481 . S
C175 N177 1.299 . S
C175 N178 1.379 . S
N176 Zn160 2.036 . S
N176 C174 1.298 . S
N176 N177 1.398 . S
N177 C175 1.299 . S
N177 N176 1.398 . S
N178 C174 1.367 . S
N178 C175 1.379 . S
H179 C182 0.980 . S
H180 C182 0.981 . S
H181 C182 0.981 . S
C182 C174 1.481 . S
C182 H179 0.980 . S
C182 H180 0.981 . S
C182 H181 0.981 . S
C183 C170 1.481 . S
C183 H184 0.980 . S
C183 H185 0.981 . S
C183 H186 0.981 . S
H184 C183 0.980 . S
H185 C183 0.981 . S
H186 C183 0.981 . S
O187 Zn163 2.066 . S
O187 C166 1.256 . S
O188 Zn160 2.053 . S
O188 C166 1.244 . S
C189 O167 1.259 . S
C189 O168 1.254 . S
O190 Zn160 2.066 . S
O190 C162 1.256 . S
O191 C162 1.244 . S
O191 Zn163 2.053 . S
Zn192 O193 2.055 . S
Zn192 O200 2.046 . S
Zn192 N208 2.036 . S
Zn192 O220 2.053 . S
Zn192 O222 2.066 . S
O193 Zn192 2.055 . S
O193 C196 1.259 . S
C194 O222 1.256 . S
C194 O223 1.244 . S
Zn195 O197 2.046 . S
Zn195 O199 2.055 . S
Zn195 N201 2.036 . S
Zn195 O219 2.066 . S
Zn195 O223 2.053 . S
C196 O193 1.259 . S
C196 O197 1.254 . S
O197 Zn195 2.046 . S
O197 C196 1.254 . S
C198 O219 1.256 . S
C198 O220 1.244 . S
O199 Zn195 2.055 . S
O199 C221 1.259 . S
O200 Zn192 2.046 . S
O200 C221 1.254 . S
N201 Zn195 2.036 . S
N201 C202 1.298 . S
N201 N204 1.398 . S
C202 N201 1.298 . S
C202 N205 1.367 . S
C202 C215 1.481 . S
C203 N204 1.299 . S
C203 N205 1.379 . S
N204 N201 1.398 . S
N204 C203 1.299 . S
N205 C202 1.367 . S
N205 C203 1.379 . S
C206 N208 1.298 . S
C206 N210 1.367 . S
C206 C214 1.481 . S
C207 N209 1.299 . S
C207 N210 1.379 . S
N208 Zn192 2.036 . S
N208 C206 1.298 . S
N208 N209 1.398 . S
N209 C207 1.299 . S
N209 N208 1.398 . S
N210 C206 1.367 . S
N210 C207 1.379 . S
H211 C214 0.980 . S
H212 C214 0.981 . S
H213 C214 0.981 . S
C214 C206 1.481 . S
C214 H211 0.980 . S
C214 H212 0.981 . S
C214 H213 0.981 . S
C215 C202 1.481 . S
C215 H216 0.980 . S
C215 H217 0.981 . S
C215 H218 0.981 . S
H216 C215 0.980 . S
H217 C215 0.981 . S
H218 C215 0.981 . S
O219 Zn195 2.066 . S
O219 C198 1.256 . S
O220 Zn192 2.053 . S
O220 C198 1.244 . S
C221 O199 1.259 . S
C221 O200 1.254 . S
O222 Zn192 2.066 . S
O222 C194 1.256 . S
O223 C194 1.244 . S
O223 Zn195 2.053 . S
Zn224 O225 2.055 . S
Zn224 O232 2.046 . S
Zn224 N240 2.036 . S
Zn224 O252 2.053 . S
Zn224 O254 2.066 . S
O225 Zn224 2.055 . S
O225 C228 1.259 . S
C226 O254 1.256 . S
C226 O255 1.244 . S
Zn227 O229 2.046 . S
Zn227 O231 2.055 . S
Zn227 N233 2.036 . S
Zn227 O251 2.066 . S
Zn227 O255 2.053 . S
C228 O225 1.259 . S
C228 O229 1.254 . S
O229 Zn227 2.046 . S
O229 C228 1.254 . S
C230 O251 1.256 . S
C230 O252 1.244 . S
O231 Zn227 2.055 . S
O231 C253 1.259 . S
O232 Zn224 2.046 . S
O232 C253 1.254 . S
N233 Zn227 2.036 . S
N233 C234 1.298 . S
N233 N236 1.398 . S
C234 N233 1.298 . S
C234 N237 1.367 . S
C234 C247 1.481 . S
C235 N236 1.299 . S
C235 N237 1.379 . S
N236 N233 1.398 . S
N236 C235 1.299 . S
N237 C234 1.367 . S
N237 C235 1.379 . S
C238 N240 1.298 . S
C238 N242 1.367 . S
C238 C246 1.481 . S
C239 N241 1.299 . S
C239 N242 1.379 . S
N240 Zn224 2.036 . S
N240 C238 1.298 . S
N240 N241 1.398 . S
N241 C239 1.299 . S
N241 N240 1.398 . S
N242 C238 1.367 . S
N242 C239 1.379 . S
H243 C246 0.980 . S
H244 C246 0.981 . S
H245 C246 0.981 . S
C246 C238 1.481 . S
C246 H243 0.980 . S
C246 H244 0.981 . S
C246 H245 0.981 . S
C247 C234 1.481 . S
C247 H248 0.980 . S
C247 H249 0.981 . S
C247 H250 0.981 . S
H248 C247 0.980 . S
H249 C247 0.981 . S
H250 C247 0.981 . S
O251 Zn227 2.066 . S
O251 C230 1.256 . S
O252 Zn224 2.053 . S
O252 C230 1.244 . S
C253 O231 1.259 . S
C253 O232 1.254 . S
O254 Zn224 2.066 . S
O254 C226 1.256 . S
O255 C226 1.244 . S
O255 Zn227 2.053 . S
Zn256 O257 2.055 . S
Zn256 O264 2.046 . S
Zn256 N272 2.036 . S
Zn256 O284 2.053 . S
Zn256 O286 2.066 . S
O257 Zn256 2.055 . S
O257 C260 1.259 . S
C258 O286 1.256 . S
C258 O287 1.244 . S
Zn259 O261 2.046 . S
Zn259 O263 2.055 . S
Zn259 N265 2.036 . S
Zn259 O283 2.066 . S
Zn259 O287 2.053 . S
C260 O257 1.259 . S
C260 O261 1.254 . S
O261 Zn259 2.046 . S
O261 C260 1.254 . S
C262 O283 1.256 . S
C262 O284 1.244 . S
O263 Zn259 2.055 . S
O263 C285 1.259 . S
O264 Zn256 2.046 . S
O264 C285 1.254 . S
N265 Zn259 2.036 . S
N265 C266 1.298 . S
N265 N268 1.398 . S
C266 N265 1.298 . S
C266 N269 1.367 . S
C266 C279 1.481 . S
C267 N268 1.299 . S
C267 N269 1.379 . S
N268 N265 1.398 . S
N268 C267 1.299 . S
N269 C266 1.367 . S
N269 C267 1.379 . S
C270 N272 1.298 . S
C270 N274 1.367 . S
C270 C278 1.481 . S
C271 N273 1.299 . S
C271 N274 1.379 . S
N272 Zn256 2.036 . S
N272 C270 1.298 . S
N272 N273 1.398 . S
N273 C271 1.299 . S
N273 N272 1.398 . S
N274 C270 1.367 . S
N274 C271 1.379 . S
H275 C278 0.980 . S
H276 C278 0.981 . S
H277 C278 0.981 . S
C278 C270 1.481 . S
C278 H275 0.980 . S
C278 H276 0.981 . S
C278 H277 0.981 . S
C279 C266 1.481 . S
C279 H280 0.980 . S
C279 H281 0.981 . S
C279 H282 0.981 . S
H280 C279 0.980 . S
H281 C279 0.981 . S
H282 C279 0.981 . S
O283 Zn259 2.066 . S
O283 C262 1.256 . S
O284 Zn256 2.053 . S
O284 C262 1.244 . S
C285 O263 1.259 . S
C285 O264 1.254 . S
O286 Zn256 2.066 . S
O286 C258 1.256 . S
O287 C258 1.244 . S
O287 Zn259 2.053 . S
Zn288 O289 2.055 . S
Zn288 O296 2.046 . S
Zn288 N304 2.036 . S
Zn288 O316 2.053 . S
Zn288 O318 2.066 . S
O289 Zn288 2.055 . S
O289 C292 1.259 . S
C290 O318 1.256 . S
C290 O319 1.244 . S
Zn291 O293 2.046 . S
Zn291 O295 2.055 . S
Zn291 N297 2.036 . S
Zn291 O315 2.066 . S
Zn291 O319 2.053 1_565 S
C292 O289 1.259 . S
C292 O293 1.254 1_545 S
O293 Zn291 2.046 . S
O293 C292 1.254 1_565 S
C294 O315 1.256 1_545 S
C294 O316 1.244 . S
O295 Zn291 2.055 . S
O295 C317 1.259 . S
O296 Zn288 2.046 . S
O296 C317 1.254 1_545 S
N297 Zn291 2.036 . S
N297 C298 1.298 . S
N297 N300 1.398 . S
C298 N297 1.298 . S
C298 N301 1.367 . S
C298 C311 1.481 . S
C299 N300 1.299 . S
C299 N301 1.379 . S
N300 N297 1.398 . S
N300 C299 1.299 . S
N301 C298 1.367 . S
N301 C299 1.379 . S
C302 N304 1.298 . S
C302 N306 1.367 . S
C302 C310 1.481 . S
C303 N305 1.299 . S
C303 N306 1.379 . S
N304 Zn288 2.036 . S
N304 C302 1.298 . S
N304 N305 1.398 . S
N305 C303 1.299 . S
N305 N304 1.398 . S
N306 C302 1.367 . S
N306 C303 1.379 . S
H307 C310 0.980 . S
H308 C310 0.981 . S
H309 C310 0.981 . S
C310 C302 1.481 . S
C310 H307 0.980 . S
C310 H308 0.981 . S
C310 H309 0.981 . S
C311 C298 1.481 . S
C311 H312 0.980 . S
C311 H313 0.981 . S
C311 H314 0.981 . S
H312 C311 0.980 . S
H313 C311 0.981 . S
H314 C311 0.981 . S
O315 Zn291 2.066 . S
O315 C294 1.256 1_565 S
O316 Zn288 2.053 . S
O316 C294 1.244 . S
C317 O295 1.259 . S
C317 O296 1.254 1_565 S
O318 Zn288 2.066 . S
O318 C290 1.256 . S
O319 C290 1.244 . S
O319 Zn291 2.053 1_545 S
Zn320 O321 2.055 . S
Zn320 O328 2.046 . S
Zn320 N336 2.036 . S
Zn320 O348 2.053 . S
Zn320 O350 2.066 . S
O321 Zn320 2.055 . S
O321 C324 1.259 . S
C322 O350 1.256 . S
C322 O351 1.244 . S
Zn323 O325 2.046 . S
Zn323 O327 2.055 . S
Zn323 N329 2.036 . S
Zn323 O347 2.066 . S
Zn323 O351 2.053 . S
C324 O321 1.259 . S
C324 O325 1.254 . S
O325 Zn323 2.046 . S
O325 C324 1.254 . S
C326 O347 1.256 . S
C326 O348 1.244 . S
O327 Zn323 2.055 . S
O327 C349 1.259 . S
O328 Zn320 2.046 . S
O328 C349 1.254 . S
N329 Zn323 2.036 . S
N329 C330 1.298 . S
N329 N332 1.398 . S
C330 N329 1.298 . S
C330 N333 1.367 . S
C330 C343 1.481 . S
C331 N332 1.299 . S
C331 N333 1.379 . S
N332 N329 1.398 . S
N332 C331 1.299 . S
N333 C330 1.367 . S
N333 C331 1.379 . S
C334 N336 1.298 . S
C334 N338 1.367 . S
C334 C342 1.481 . S
C335 N337 1.299 . S
C335 N338 1.379 . S
N336 Zn320 2.036 . S
N336 C334 1.298 . S
N336 N337 1.398 . S
N337 C335 1.299 . S
N337 N336 1.398 . S
N338 C334 1.367 . S
N338 C335 1.379 . S
H339 C342 0.980 . S
H340 C342 0.981 . S
H341 C342 0.981 . S
C342 C334 1.481 . S
C342 H339 0.980 . S
C342 H340 0.981 . S
C342 H341 0.981 . S
C343 C330 1.481 . S
C343 H344 0.980 . S
C343 H345 0.981 . S
C343 H346 0.981 . S
H344 C343 0.980 . S
H345 C343 0.981 . S
H346 C343 0.981 . S
O347 Zn323 2.066 . S
O347 C326 1.256 . S
O348 Zn320 2.053 . S
O348 C326 1.244 . S
C349 O327 1.259 . S
C349 O328 1.254 . S
O350 Zn320 2.066 . S
O350 C322 1.256 . S
O351 C322 1.244 . S
O351 Zn323 2.053 . S
Zn352 O353 2.055 . S
Zn352 O360 2.046 . S
Zn352 N368 2.036 . S
Zn352 O380 2.053 1_545 S
Zn352 O382 2.066 . S
O353 Zn352 2.055 . S
O353 C356 1.259 . S
C354 O382 1.256 1_565 S
C354 O383 1.244 . S
Zn355 O357 2.046 . S
Zn355 O359 2.055 . S
Zn355 N361 2.036 . S
Zn355 O379 2.066 . S
Zn355 O383 2.053 . S
C356 O353 1.259 . S
C356 O357 1.254 1_545 S
O357 Zn355 2.046 . S
O357 C356 1.254 1_565 S
C358 O379 1.256 . S
C358 O380 1.244 . S
O359 Zn355 2.055 . S
O359 C381 1.259 . S
O360 Zn352 2.046 . S
O360 C381 1.254 1_545 S
N361 Zn355 2.036 . S
N361 C362 1.298 . S
N361 N364 1.398 . S
C362 N361 1.298 . S
C362 N365 1.367 . S
C362 C375 1.481 . S
C363 N364 1.299 . S
C363 N365 1.379 . S
N364 N361 1.398 . S
N364 C363 1.299 . S
N365 C362 1.367 . S
N365 C363 1.379 . S
C366 N368 1.298 . S
C366 N370 1.367 . S
C366 C374 1.481 . S
C367 N369 1.299 . S
C367 N370 1.379 . S
N368 Zn352 2.036 . S
N368 C366 1.298 . S
N368 N369 1.398 . S
N369 C367 1.299 . S
N369 N368 1.398 . S
N370 C366 1.367 . S
N370 C367 1.379 . S
H371 C374 0.980 . S
H372 C374 0.981 . S
H373 C374 0.981 . S
C374 C366 1.481 . S
C374 H371 0.980 . S
C374 H372 0.981 . S
C374 H373 0.981 . S
C375 C362 1.481 . S
C375 H376 0.980 . S
C375 H377 0.981 . S
C375 H378 0.981 . S
H376 C375 0.980 . S
H377 C375 0.981 . S
H378 C375 0.981 . S
O379 Zn355 2.066 . S
O379 C358 1.256 . S
O380 Zn352 2.053 1_565 S
O380 C358 1.244 . S
C381 O359 1.259 . S
C381 O360 1.254 1_565 S
O382 Zn352 2.066 . S
O382 C354 1.256 1_545 S
O383 C354 1.244 . S
O383 Zn355 2.053 . S
Zn384 O385 2.055 . S
Zn384 O392 2.046 . S
Zn384 N400 2.036 . S
Zn384 O412 2.053 . S
Zn384 O414 2.066 . S
O385 Zn384 2.055 . S
O385 C388 1.259 . S
C386 O414 1.256 . S
C386 O415 1.244 . S
Zn387 O389 2.046 . S
Zn387 O391 2.055 . S
Zn387 N393 2.036 . S
Zn387 O411 2.066 . S
Zn387 O415 2.053 . S
C388 O385 1.259 . S
C388 O389 1.254 . S
O389 Zn387 2.046 . S
O389 C388 1.254 . S
C390 O411 1.256 . S
C390 O412 1.244 . S
O391 Zn387 2.055 . S
O391 C413 1.259 . S
O392 Zn384 2.046 . S
O392 C413 1.254 . S
N393 Zn387 2.036 . S
N393 C394 1.298 . S
N393 N396 1.398 . S
C394 N393 1.298 . S
C394 N397 1.367 . S
C394 C407 1.481 . S
C395 N396 1.299 . S
C395 N397 1.379 . S
N396 N393 1.398 . S
N396 C395 1.299 . S
N397 C394 1.367 . S
N397 C395 1.379 . S
C398 N400 1.298 . S
C398 N402 1.367 . S
C398 C406 1.481 . S
C399 N401 1.299 . S
C399 N402 1.379 . S
N400 Zn384 2.036 . S
N400 C398 1.298 . S
N400 N401 1.398 . S
N401 C399 1.299 . S
N401 N400 1.398 . S
N402 C398 1.367 . S
N402 C399 1.379 . S
H403 C406 0.980 . S
H404 C406 0.981 . S
H405 C406 0.981 . S
C406 C398 1.481 . S
C406 H403 0.980 . S
C406 H404 0.981 . S
C406 H405 0.981 . S
C407 C394 1.481 . S
C407 H408 0.980 . S
C407 H409 0.981 . S
C407 H410 0.981 . S
H408 C407 0.980 . S
H409 C407 0.981 . S
H410 C407 0.981 . S
O411 Zn387 2.066 . S
O411 C390 1.256 . S
O412 Zn384 2.053 . S
O412 C390 1.244 . S
C413 O391 1.259 . S
C413 O392 1.254 . S
O414 Zn384 2.066 . S
O414 C386 1.256 . S
O415 C386 1.244 . S
O415 Zn387 2.053 . S
Zn416 O417 2.055 . S
Zn416 O424 2.046 . S
Zn416 N432 2.036 . S
Zn416 O444 2.053 . S
Zn416 O446 2.066 . S
O417 Zn416 2.055 . S
O417 C420 1.259 . S
C418 O446 1.256 . S
C418 O447 1.244 . S
Zn419 O421 2.046 . S
Zn419 O423 2.055 . S
Zn419 N425 2.036 . S
Zn419 O443 2.066 . S
Zn419 O447 2.053 1_545 S
C420 O417 1.259 . S
C420 O421 1.254 1_565 S
O421 Zn419 2.046 . S
O421 C420 1.254 1_545 S
C422 O443 1.256 1_565 S
C422 O444 1.244 . S
O423 Zn419 2.055 . S
O423 C445 1.259 . S
O424 Zn416 2.046 . S
O424 C445 1.254 1_565 S
N425 Zn419 2.036 . S
N425 C426 1.298 . S
N425 N428 1.398 . S
C426 N425 1.298 . S
C426 N429 1.367 . S
C426 C439 1.481 . S
C427 N428 1.299 . S
C427 N429 1.379 . S
N428 N425 1.398 . S
N428 C427 1.299 . S
N429 C426 1.367 . S
N429 C427 1.379 . S
C430 N432 1.298 . S
C430 N434 1.367 . S
C430 C438 1.481 . S
C431 N433 1.299 . S
C431 N434 1.379 . S
N432 Zn416 2.036 . S
N432 C430 1.298 . S
N432 N433 1.398 . S
N433 C431 1.299 . S
N433 N432 1.398 . S
N434 C430 1.367 . S
N434 C431 1.379 . S
H435 C438 0.980 . S
H436 C438 0.981 . S
H437 C438 0.981 . S
C438 C430 1.481 . S
C438 H435 0.980 . S
C438 H436 0.981 . S
C438 H437 0.981 . S
C439 C426 1.481 . S
C439 H440 0.980 . S
C439 H441 0.981 . S
C439 H442 0.981 . S
H440 C439 0.980 . S
H441 C439 0.981 . S
H442 C439 0.981 . S
O443 Zn419 2.066 . S
O443 C422 1.256 1_545 S
O444 Zn416 2.053 . S
O444 C422 1.244 . S
C445 O423 1.259 . S
C445 O424 1.254 1_545 S
O446 Zn416 2.066 . S
O446 C418 1.256 . S
O447 C418 1.244 . S
O447 Zn419 2.053 1_565 S
Zn448 O449 2.055 . S
Zn448 O456 2.046 . S
Zn448 N464 2.036 . S
Zn448 O476 2.053 . S
Zn448 O478 2.066 . S
O449 Zn448 2.055 . S
O449 C452 1.259 . S
C450 O478 1.256 . S
C450 O479 1.244 . S
Zn451 O453 2.046 . S
Zn451 O455 2.055 . S
Zn451 N457 2.036 . S
Zn451 O475 2.066 . S
Zn451 O479 2.053 . S
C452 O449 1.259 . S
C452 O453 1.254 . S
O453 Zn451 2.046 . S
O453 C452 1.254 . S
C454 O475 1.256 . S
C454 O476 1.244 . S
O455 Zn451 2.055 . S
O455 C477 1.259 . S
O456 Zn448 2.046 . S
O456 C477 1.254 . S
N457 Zn451 2.036 . S
N457 C458 1.298 . S
N457 N460 1.398 . S
C458 N457 1.298 . S
C458 N461 1.367 . S
C458 C471 1.481 . S
C459 N460 1.299 . S
C459 N461 1.379 . S
N460 N457 1.398 . S
N460 C459 1.299 . S
N461 C458 1.367 . S
N461 C459 1.379 . S
C462 N464 1.298 . S
C462 N466 1.367 . S
C462 C470 1.481 . S
C463 N465 1.299 . S
C463 N466 1.379 . S
N464 Zn448 2.036 . S
N464 C462 1.298 . S
N464 N465 1.398 . S
N465 C463 1.299 . S
N465 N464 1.398 . S
N466 C462 1.367 . S
N466 C463 1.379 . S
H467 C470 0.980 . S
H468 C470 0.981 . S
H469 C470 0.981 . S
C470 C462 1.481 . S
C470 H467 0.980 . S
C470 H468 0.981 . S
C470 H469 0.981 . S
C471 C458 1.481 . S
C471 H472 0.980 . S
C471 H473 0.981 . S
C471 H474 0.981 . S
H472 C471 0.980 . S
H473 C471 0.981 . S
H474 C471 0.981 . S
O475 Zn451 2.066 . S
O475 C454 1.256 . S
O476 Zn448 2.053 . S
O476 C454 1.244 . S
C477 O455 1.259 . S
C477 O456 1.254 . S
O478 Zn448 2.066 . S
O478 C450 1.256 . S
O479 C450 1.244 . S
O479 Zn451 2.053 . S
Zn480 O481 2.055 . S
Zn480 O488 2.046 . S
Zn480 N496 2.036 . S
Zn480 O508 2.053 1_565 S
Zn480 O510 2.066 . S
O481 Zn480 2.055 . S
O481 C484 1.259 . S
C482 O510 1.256 1_545 S
C482 O511 1.244 . S
Zn483 O485 2.046 . S
Zn483 O487 2.055 . S
Zn483 N489 2.036 . S
Zn483 O507 2.066 . S
Zn483 O511 2.053 . S
C484 O481 1.259 . S
C484 O485 1.254 1_565 S
O485 Zn483 2.046 . S
O485 C484 1.254 1_545 S
C486 O507 1.256 . S
C486 O508 1.244 . S
O487 Zn483 2.055 . S
O487 C509 1.259 . S
O488 Zn480 2.046 . S
O488 C509 1.254 1_565 S
N489 Zn483 2.036 . S
N489 C490 1.298 . S
N489 N492 1.398 . S
C490 N489 1.298 . S
C490 N493 1.367 . S
C490 C503 1.481 . S
C491 N492 1.299 . S
C491 N493 1.379 . S
N492 N489 1.398 . S
N492 C491 1.299 . S
N493 C490 1.367 . S
N493 C491 1.379 . S
C494 N496 1.298 . S
C494 N498 1.367 . S
C494 C502 1.481 . S
C495 N497 1.299 . S
C495 N498 1.379 . S
N496 Zn480 2.036 . S
N496 C494 1.298 . S
N496 N497 1.398 . S
N497 C495 1.299 . S
N497 N496 1.398 . S
N498 C494 1.367 . S
N498 C495 1.379 . S
H499 C502 0.980 . S
H500 C502 0.981 . S
H501 C502 0.981 . S
C502 C494 1.481 . S
C502 H499 0.980 . S
C502 H500 0.981 . S
C502 H501 0.981 . S
C503 C490 1.481 . S
C503 H504 0.980 . S
C503 H505 0.981 . S
C503 H506 0.981 . S
H504 C503 0.980 . S
H505 C503 0.981 . S
H506 C503 0.981 . S
O507 Zn483 2.066 . S
O507 C486 1.256 . S
O508 Zn480 2.053 1_545 S
O508 C486 1.244 . S
C509 O487 1.259 . S
C509 O488 1.254 1_545 S
O510 Zn480 2.066 . S
O510 C482 1.256 1_565 S
O511 C482 1.244 . S
O511 Zn483 2.053 . S
H512 C524 0.930 . S
H513 C526 0.930 . S
H514 C527 0.930 . S
H515 C531 0.959 . S
H516 C531 0.959 . S
H517 C531 0.961 . S
H518 C532 0.960 . S
H519 C532 0.961 . S
H520 C532 0.959 . S
H521 C535 0.929 . S
H522 C536 0.931 . S
H523 C538 0.930 . S
C524 H512 0.930 . S
C524 C525 1.399 . S
C524 C529 1.399 . S
C525 C524 1.399 . S
C525 C526 1.376 . S
C526 H513 0.930 . S
C526 C525 1.376 . S
C526 C527 1.388 . S
C527 H514 0.930 . S
C527 C526 1.388 . S
C527 C528 1.390 . S
C528 C527 1.390 . S
C528 C529 1.394 . S
C528 C534 1.465 . S
C529 C524 1.399 . S
C529 C528 1.394 . S
C529 C530 1.516 . S
C530 C529 1.516 . S
C530 C531 1.502 . S
C530 C532 1.561 . S
C530 C533 1.526 . S
C531 H515 0.959 . S
C531 H516 0.959 . S
C531 H517 0.961 . S
C531 C530 1.502 . S
C532 H518 0.960 . S
C532 H519 0.961 . S
C532 H520 0.959 . S
C532 C530 1.561 . S
C533 C530 1.526 . S
C533 C534 1.396 . S
C533 C538 1.390 . S
C534 C528 1.465 . S
C534 C533 1.396 . S
C534 C535 1.399 . S
C535 H521 0.929 . S
C535 C534 1.399 . S
C535 C536 1.385 . S
C536 H522 0.931 . S
C536 C535 1.385 . S
C536 C537 1.389 . S
C537 C536 1.389 . S
C537 C538 1.387 . S
C538 H523 0.930 . S
C538 C533 1.390 . S
C538 C537 1.387 . S
H539 C551 0.930 . S
H540 C553 0.930 . S
H541 C554 0.930 . S
H542 C558 0.959 . S
H543 C558 0.959 . S
H544 C558 0.961 . S
H545 C559 0.960 . S
H546 C559 0.961 . S
H547 C559 0.959 . S
H548 C562 0.929 . S
H549 C563 0.931 . S
H550 C565 0.930 . S
C551 H539 0.930 . S
C551 C552 1.399 . S
C551 C556 1.399 . S
C552 C551 1.399 . S
C552 C553 1.376 . S
C553 H540 0.930 . S
C553 C552 1.376 . S
C553 C554 1.388 . S
C554 H541 0.930 . S
C554 C553 1.388 . S
C554 C555 1.390 . S
C555 C554 1.390 . S
C555 C556 1.394 . S
C555 C561 1.465 . S
C556 C551 1.399 . S
C556 C555 1.394 . S
C556 C557 1.516 . S
C557 C556 1.516 . S
C557 C558 1.502 . S
C557 C559 1.561 . S
C557 C560 1.526 . S
C558 H542 0.959 . S
C558 H543 0.959 . S
C558 H544 0.961 . S
C558 C557 1.502 . S
C559 H545 0.960 . S
C559 H546 0.961 . S
C559 H547 0.959 . S
C559 C557 1.561 . S
C560 C557 1.526 . S
C560 C561 1.396 . S
C560 C565 1.390 . S
C561 C555 1.465 . S
C561 C560 1.396 . S
C561 C562 1.399 . S
C562 H548 0.929 . S
C562 C561 1.399 . S
C562 C563 1.385 . S
C563 H549 0.931 . S
C563 C562 1.385 . S
C563 C564 1.389 . S
C564 C563 1.389 . S
C564 C565 1.387 . S
C565 H550 0.930 . S
C565 C560 1.390 . S
C565 C564 1.387 . S
H566 C578 0.930 . S
H567 C580 0.930 . S
H568 C581 0.930 . S
H569 C585 0.959 . S
H570 C585 0.959 . S
H571 C585 0.961 . S
H572 C586 0.960 . S
H573 C586 0.961 . S
H574 C586 0.959 . S
H575 C589 0.929 . S
H576 C590 0.931 . S
H577 C592 0.930 . S
C578 H566 0.930 . S
C578 C579 1.399 . S
C578 C583 1.399 . S
C579 C578 1.399 . S
C579 C580 1.376 . S
C580 H567 0.930 . S
C580 C579 1.376 . S
C580 C581 1.388 . S
C581 H568 0.930 . S
C581 C580 1.388 . S
C581 C582 1.390 . S
C582 C581 1.390 . S
C582 C583 1.394 . S
C582 C588 1.465 . S
C583 C578 1.399 . S
C583 C582 1.394 . S
C583 C584 1.516 . S
C584 C583 1.516 . S
C584 C585 1.502 . S
C584 C586 1.561 . S
C584 C587 1.526 . S
C585 H569 0.959 . S
C585 H570 0.959 . S
C585 H571 0.961 . S
C585 C584 1.502 . S
C586 H572 0.960 . S
C586 H573 0.961 . S
C586 H574 0.959 . S
C586 C584 1.561 . S
C587 C584 1.526 . S
C587 C588 1.396 . S
C587 C592 1.390 . S
C588 C582 1.465 . S
C588 C587 1.396 . S
C588 C589 1.399 . S
C589 H575 0.929 . S
C589 C588 1.399 . S
C589 C590 1.385 . S
C590 H576 0.931 . S
C590 C589 1.385 . S
C590 C591 1.389 . S
C591 C590 1.389 . S
C591 C592 1.387 . S
C592 H577 0.930 . S
C592 C587 1.390 . S
C592 C591 1.387 . S
H593 C605 0.930 . S
H594 C607 0.930 . S
H595 C608 0.930 . S
H596 C612 0.959 1_455 S
H597 C612 0.952 1_455 S
H598 C612 0.961 . S
H599 C613 0.960 . S
H600 C613 0.961 . S
H601 C613 0.959 . S
H602 C616 0.929 . S
H603 C617 0.931 . S
H604 C619 0.930 . S
C605 H593 0.930 . S
C605 C606 1.399 . S
C605 C610 1.399 . S
C606 C605 1.399 . S
C606 C607 1.376 . S
C607 H594 0.930 . S
C607 C606 1.376 . S
C607 C608 1.388 . S
C608 H595 0.930 . S
C608 C607 1.388 . S
C608 C609 1.390 . S
C609 C608 1.390 . S
C609 C610 1.394 . S
C609 C615 1.465 1_656 S
C610 C605 1.399 . S
C610 C609 1.394 . S
C610 C611 1.516 1_556 S
C611 C610 1.516 1_554 S
C611 C612 1.502 1_554 S
C611 C613 1.561 . S
C611 C614 1.526 1_655 S
C612 H596 0.959 1_655 S
C612 H597 0.952 1_655 S
C612 H598 0.961 . S
C612 C611 1.502 1_556 S
C613 H599 0.960 . S
C613 H600 0.961 . S
C613 H601 0.959 . S
C613 C611 1.561 . S
C614 C611 1.526 1_455 S
C614 C615 1.396 . S
C614 C619 1.390 . S
C615 C609 1.465 1_454 S
C615 C614 1.396 . S
C615 C616 1.399 . S
C616 H602 0.929 . S
C616 C615 1.399 . S
C616 C617 1.385 . S
C617 H603 0.931 . S
C617 C616 1.385 . S
C617 C618 1.389 . S
C618 C617 1.389 . S
C618 C619 1.387 . S
C619 H604 0.930 . S
C619 C614 1.390 . S
C619 C618 1.387 . S
H620 C632 0.930 . S
H621 C634 0.930 . S
H622 C635 0.930 . S
H623 C639 0.959 . S
H624 C639 0.959 . S
H625 C639 0.961 . S
H626 C640 0.960 . S
H627 C640 0.961 . S
H628 C640 0.959 . S
H629 C643 0.929 . S
H630 C644 0.931 . S
H631 C646 0.930 . S
C632 H620 0.930 . S
C632 C633 1.399 . S
C632 C637 1.399 . S
C633 C632 1.399 . S
C633 C634 1.376 . S
C634 H621 0.930 . S
C634 C633 1.376 . S
C634 C635 1.388 . S
C635 H622 0.930 . S
C635 C634 1.388 . S
C635 C636 1.390 . S
C636 C635 1.390 . S
C636 C637 1.394 . S
C636 C642 1.465 . S
C637 C632 1.399 . S
C637 C636 1.394 . S
C637 C638 1.516 . S
C638 C637 1.516 . S
C638 C639 1.502 . S
C638 C640 1.561 . S
C638 C641 1.526 . S
C639 H623 0.959 . S
C639 H624 0.959 . S
C639 H625 0.961 . S
C639 C638 1.502 . S
C640 H626 0.960 . S
C640 H627 0.961 . S
C640 H628 0.959 . S
C640 C638 1.561 . S
C641 C638 1.526 . S
C641 C642 1.396 . S
C641 C646 1.390 . S
C642 C636 1.465 . S
C642 C641 1.396 . S
C642 C643 1.399 . S
C643 H629 0.929 . S
C643 C642 1.399 . S
C643 C644 1.385 . S
C644 H630 0.931 . S
C644 C643 1.385 . S
C644 C645 1.389 . S
C645 C644 1.389 . S
C645 C646 1.387 . S
C646 H631 0.930 . S
C646 C641 1.390 . S
C646 C645 1.387 . S
H647 C659 0.930 . S
H648 C661 0.930 . S
H649 C662 0.930 . S
H650 C666 0.959 . S
H651 C666 0.959 . S
H652 C666 0.961 . S
H653 C667 0.960 . S
H654 C667 0.961 . S
H655 C667 0.959 . S
H656 C670 0.929 . S
H657 C671 0.931 . S
H658 C673 0.930 . S
C659 H647 0.930 . S
C659 C660 1.399 . S
C659 C664 1.399 . S
C660 C659 1.399 . S
C660 C661 1.376 . S
C661 H648 0.930 . S
C661 C660 1.376 . S
C661 C662 1.388 . S
C662 H649 0.930 . S
C662 C661 1.388 . S
C662 C663 1.390 . S
C663 C662 1.390 . S
C663 C664 1.394 . S
C663 C669 1.465 . S
C664 C659 1.399 . S
C664 C663 1.394 . S
C664 C665 1.516 . S
C665 C664 1.516 . S
C665 C666 1.502 . S
C665 C667 1.561 . S
C665 C668 1.526 . S
C666 H650 0.959 . S
C666 H651 0.959 . S
C666 H652 0.961 . S
C666 C665 1.502 . S
C667 H653 0.960 . S
C667 H654 0.961 . S
C667 H655 0.959 . S
C667 C665 1.561 . S
C668 C665 1.526 . S
C668 C669 1.396 . S
C668 C673 1.390 . S
C669 C663 1.465 . S
C669 C668 1.396 . S
C669 C670 1.399 . S
C670 H656 0.929 . S
C670 C669 1.399 . S
C670 C671 1.385 . S
C671 H657 0.931 . S
C671 C670 1.385 . S
C671 C672 1.389 . S
C672 C671 1.389 . S
C672 C673 1.387 . S
C673 H658 0.930 . S
C673 C668 1.390 . S
C673 C672 1.387 . S
H674 C686 0.930 1_545 S
H675 C688 0.930 . S
H676 C689 0.906 1_455 S
H677 C693 0.959 1_565 S
H678 C693 0.959 . S
H679 C693 0.961 . S
H680 C694 0.960 1_554 S
H681 C694 0.961 . S
H682 C694 0.959 1_554 S
H683 C697 0.929 1_554 S
H684 C698 0.924 1_565 S
H685 C700 0.930 . S
C686 H674 0.930 1_565 S
C686 C687 1.399 . S
C686 C691 1.399 1_565 S
C687 C686 1.399 . S
C687 C688 1.376 . S
C688 H675 0.930 . S
C688 C687 1.376 . S
C688 C689 1.412 . S
C689 H676 0.906 1_655 S
C689 C688 1.412 . S
C689 C690 1.391 . S
C690 C689 1.391 . S
C690 C691 1.394 1_565 S
C690 C696 1.444 1_654 S
C691 C686 1.399 1_545 S
C691 C690 1.394 1_545 S
C691 C692 1.516 1_554 S
C692 C691 1.516 1_556 S
C692 C693 1.502 . S
C692 C694 1.561 . S
C692 C695 1.526 1_655 S
C693 H677 0.959 1_545 S
C693 H678 0.959 . S
C693 H679 0.961 . S
C693 C692 1.502 . S
C694 H680 0.960 1_556 S
C694 H681 0.961 . S
C694 H682 0.959 1_556 S
C694 C692 1.561 . S
C695 C692 1.526 1_455 S
C695 C696 1.419 1_545 S
C695 C700 1.390 . S
C696 C690 1.444 1_456 S
C696 C695 1.419 1_565 S
C696 C697 1.400 . S
C697 H683 0.929 1_556 S
C697 C696 1.400 . S
C697 C698 1.376 1_565 S
C698 H684 0.924 1_545 S
C698 C697 1.376 1_545 S
C698 C699 1.405 . S
C699 C698 1.405 . S
C699 C700 1.387 . S
C700 H685 0.930 . S
C700 C695 1.390 . S
C700 C699 1.387 . S
H701 C713 0.930 . S
H702 C715 0.930 . S
H703 C716 0.930 . S
H704 C720 0.959 . S
H705 C720 0.948 1_545 S
H706 C720 0.961 . S
H707 C721 0.960 . S
H708 C721 0.961 . S
H709 C721 0.959 . S
H710 C724 0.929 . S
H711 C725 0.931 . S
H712 C727 0.930 . S
C713 H701 0.930 . S
C713 C714 1.399 . S
C713 C718 1.399 . S
C714 C713 1.399 . S
C714 C715 1.376 . S
C715 H702 0.930 . S
C715 C714 1.376 . S
C715 C716 1.388 . S
C716 H703 0.930 . S
C716 C715 1.388 . S
C716 C717 1.390 . S
C717 C716 1.390 . S
C717 C718 1.394 . S
C717 C723 1.465 1_565 S
C718 C713 1.399 . S
C718 C717 1.394 . S
C718 C719 1.516 1_565 S
C719 C718 1.516 1_545 S
C719 C720 1.502 1_545 S
C719 C721 1.561 . S
C719 C722 1.526 . S
C720 H704 0.959 . S
C720 H705 0.948 1_565 S
C720 H706 0.961 . S
C720 C719 1.502 1_565 S
C721 H707 0.960 . S
C721 H708 0.961 . S
C721 H709 0.959 . S
C721 C719 1.561 . S
C722 C719 1.526 . S
C722 C723 1.396 . S
C722 C727 1.390 . S
C723 C717 1.465 1_545 S
C723 C722 1.396 . S
C723 C724 1.399 . S
C724 H710 0.929 . S
C724 C723 1.399 . S
C724 C725 1.385 . S
C725 H711 0.931 . S
C725 C724 1.385 . S
C725 C726 1.389 . S
C726 C725 1.389 . S
C726 C727 1.387 . S
C727 H712 0.930 . S
C727 C722 1.390 . S
C727 C726 1.387 . S
H728 C740 0.930 . S
H729 C742 0.930 . S
H730 C743 0.930 . S
H731 C747 0.959 . S
H732 C747 0.959 . S
H733 C747 0.961 . S
H734 C748 0.960 . S
H735 C748 0.961 . S
H736 C748 0.959 . S
H737 C751 0.953 . S
H738 C752 0.931 . S
H739 C754 0.930 . S
C740 H728 0.930 . S
C740 C741 1.399 . S
C740 C745 1.399 . S
C741 C740 1.399 . S
C741 C742 1.376 . S
C742 H729 0.930 . S
C742 C741 1.376 . S
C742 C743 1.388 . S
C743 H730 0.930 . S
C743 C742 1.388 . S
C743 C744 1.390 . S
C744 C743 1.390 . S
C744 C745 1.394 . S
C744 C750 1.465 1_556 S
C745 C740 1.399 . S
C745 C744 1.394 . S
C745 C746 1.516 1_556 S
C746 C745 1.516 1_554 S
C746 C747 1.502 . S
C746 C748 1.561 . S
C746 C749 1.526 . S
C747 H731 0.959 . S
C747 H732 0.959 . S
C747 H733 0.961 . S
C747 C746 1.502 . S
C748 H734 0.960 . S
C748 H735 0.961 . S
C748 H736 0.959 . S
C748 C746 1.561 . S
C749 C746 1.526 . S
C749 C750 1.396 . S
C749 C754 1.390 . S
C750 C744 1.465 1_554 S
C750 C749 1.396 . S
C750 C751 1.399 . S
C751 H737 0.953 . S
C751 C750 1.399 . S
C751 C752 1.385 . S
C752 H738 0.931 . S
C752 C751 1.385 . S
C752 C753 1.389 . S
C753 C752 1.389 . S
C753 C754 1.387 . S
C754 H739 0.930 . S
C754 C749 1.390 . S
C754 C753 1.387 . S
H755 C767 0.930 . S
H756 C769 0.930 . S
H757 C770 0.930 . S
H758 C774 0.959 . S
H759 C774 0.959 . S
H760 C774 0.961 . S
H761 C775 0.960 . S
H762 C775 0.961 . S
H763 C775 0.959 . S
H764 C778 0.929 . S
H765 C779 0.931 . S
H766 C781 0.930 . S
C767 H755 0.930 . S
C767 C768 1.399 . S
C767 C772 1.399 . S
C768 C767 1.399 . S
C768 C769 1.376 . S
C769 H756 0.930 . S
C769 C768 1.376 . S
C769 C770 1.388 . S
C770 H757 0.930 . S
C770 C769 1.388 . S
C770 C771 1.390 . S
C771 C770 1.390 . S
C771 C772 1.394 . S
C771 C777 1.465 . S
C772 C767 1.399 . S
C772 C771 1.394 . S
C772 C773 1.516 . S
C773 C772 1.516 . S
C773 C774 1.502 . S
C773 C775 1.561 . S
C773 C776 1.526 . S
C774 H758 0.959 . S
C774 H759 0.959 . S
C774 H760 0.961 . S
C774 C773 1.502 . S
C775 H761 0.960 . S
C775 H762 0.961 . S
C775 H763 0.959 . S
C775 C773 1.561 . S
C776 C773 1.526 . S
C776 C777 1.396 . S
C776 C781 1.390 . S
C777 C771 1.465 . S
C777 C776 1.396 . S
C777 C778 1.399 . S
C778 H764 0.929 . S
C778 C777 1.399 . S
C778 C779 1.385 . S
C779 H765 0.931 . S
C779 C778 1.385 . S
C779 C780 1.389 . S
C780 C779 1.389 . S
C780 C781 1.387 . S
C781 H766 0.930 . S
C781 C776 1.390 . S
C781 C780 1.387 . S
H782 C794 0.930 . S
H783 C796 0.930 . S
H784 C797 0.930 . S
H785 C801 0.959 . S
H786 C801 0.959 . S
H787 C801 0.961 . S
H788 C802 0.960 . S
H789 C802 0.961 . S
H790 C802 0.959 . S
H791 C805 0.929 . S
H792 C806 0.931 . S
H793 C808 0.930 . S
C794 H782 0.930 . S
C794 C795 1.399 . S
C794 C799 1.399 . S
C795 C794 1.399 . S
C795 C796 1.376 . S
C796 H783 0.930 . S
C796 C795 1.376 . S
C796 C797 1.388 . S
C797 H784 0.930 . S
C797 C796 1.388 . S
C797 C798 1.390 . S
C798 C797 1.390 . S
C798 C799 1.394 . S
C798 C804 1.465 . S
C799 C794 1.399 . S
C799 C798 1.394 . S
C799 C800 1.516 . S
C800 C799 1.516 . S
C800 C801 1.502 . S
C800 C802 1.561 . S
C800 C803 1.526 . S
C801 H785 0.959 . S
C801 H786 0.959 . S
C801 H787 0.961 . S
C801 C800 1.502 . S
C802 H788 0.960 . S
C802 H789 0.961 . S
C802 H790 0.959 . S
C802 C800 1.561 . S
C803 C800 1.526 . S
C803 C804 1.396 . S
C803 C808 1.390 . S
C804 C798 1.465 . S
C804 C803 1.396 . S
C804 C805 1.399 . S
C805 H791 0.929 . S
C805 C804 1.399 . S
C805 C806 1.385 . S
C806 H792 0.931 . S
C806 C805 1.385 . S
C806 C807 1.389 . S
C807 C806 1.389 . S
C807 C808 1.387 . S
C808 H793 0.930 . S
C808 C803 1.390 . S
C808 C807 1.387 . S
H809 C821 0.930 . S
H810 C823 0.930 . S
H811 C824 0.930 . S
H812 C828 0.959 . S
H813 C828 0.959 . S
H814 C828 0.961 . S
H815 C829 0.960 . S
H816 C829 0.961 . S
H817 C829 0.959 . S
H818 C832 0.929 . S
H819 C833 0.931 . S
H820 C835 0.930 . S
C821 H809 0.930 . S
C821 C822 1.399 . S
C821 C826 1.399 . S
C822 C821 1.399 . S
C822 C823 1.376 . S
C823 H810 0.930 . S
C823 C822 1.376 . S
C823 C824 1.388 . S
C824 H811 0.930 . S
C824 C823 1.388 . S
C824 C825 1.390 . S
C825 C824 1.390 . S
C825 C826 1.394 . S
C825 C831 1.465 . S
C826 C821 1.399 . S
C826 C825 1.394 . S
C826 C827 1.516 . S
C827 C826 1.516 . S
C827 C828 1.502 . S
C827 C829 1.561 . S
C827 C830 1.526 . S
C828 H812 0.959 . S
C828 H813 0.959 . S
C828 H814 0.961 . S
C828 C827 1.502 . S
C829 H815 0.960 . S
C829 H816 0.961 . S
C829 H817 0.959 . S
C829 C827 1.561 . S
C830 C827 1.526 . S
C830 C831 1.396 . S
C830 C835 1.390 . S
C831 C825 1.465 . S
C831 C830 1.396 . S
C831 C832 1.399 . S
C832 H818 0.929 . S
C832 C831 1.399 . S
C832 C833 1.385 . S
C833 H819 0.931 . S
C833 C832 1.385 . S
C833 C834 1.389 . S
C834 C833 1.389 . S
C834 C835 1.387 . S
C835 H820 0.930 . S
C835 C830 1.390 . S
C835 C834 1.387 . S
H836 C848 0.930 . S
H837 C850 0.930 . S
H838 C851 0.930 . S
H839 C855 0.959 . S
H840 C855 0.959 . S
H841 C855 0.961 . S
H842 C856 0.960 . S
H843 C856 0.961 . S
H844 C856 0.959 . S
H845 C859 0.929 . S
H846 C860 0.931 . S
H847 C862 0.930 . S
C848 H836 0.930 . S
C848 C849 1.399 . S
C848 C853 1.399 . S
C849 C848 1.399 . S
C849 C850 1.376 . S
C850 H837 0.930 . S
C850 C849 1.376 . S
C850 C851 1.388 . S
C851 H838 0.930 . S
C851 C850 1.388 . S
C851 C852 1.390 . S
C852 C851 1.390 . S
C852 C853 1.394 . S
C852 C858 1.465 1_554 S
C853 C848 1.399 . S
C853 C852 1.394 . S
C853 C854 1.516 1_554 S
C854 C853 1.516 1_556 S
C854 C855 1.502 . S
C854 C856 1.561 . S
C854 C857 1.526 . S
C855 H839 0.959 . S
C855 H840 0.959 . S
C855 H841 0.961 . S
C855 C854 1.502 . S
C856 H842 0.960 . S
C856 H843 0.961 . S
C856 H844 0.959 . S
C856 C854 1.561 . S
C857 C854 1.526 . S
C857 C858 1.396 . S
C857 C862 1.390 . S
C858 C852 1.465 1_556 S
C858 C857 1.396 . S
C858 C859 1.399 . S
C859 H845 0.929 . S
C859 C858 1.399 . S
C859 C860 1.385 . S
C860 H846 0.931 . S
C860 C859 1.385 . S
C860 C861 1.389 . S
C861 C860 1.389 . S
C861 C862 1.387 . S
C862 H847 0.930 . S
C862 C857 1.390 . S
C862 C861 1.387 . S
H863 C875 0.930 . S
H864 C877 0.930 . S
H865 C878 0.930 . S
H866 C882 0.959 . S
H867 C882 0.959 . S
H868 C882 0.961 . S
H869 C883 0.960 . S
H870 C883 0.961 . S
H871 C883 0.959 . S
H872 C886 0.929 . S
H873 C887 0.931 . S
H874 C889 0.930 . S
C875 H863 0.930 . S
C875 C876 1.399 . S
C875 C880 1.399 . S
C876 C875 1.399 . S
C876 C877 1.376 . S
C877 H864 0.930 . S
C877 C876 1.376 . S
C877 C878 1.388 . S
C878 H865 0.930 . S
C878 C877 1.388 . S
C878 C879 1.390 . S
C879 C878 1.390 . S
C879 C880 1.394 . S
C879 C885 1.465 . S
C880 C875 1.399 . S
C880 C879 1.394 . S
C880 C881 1.516 . S
C881 C880 1.516 . S
C881 C882 1.502 . S
C881 C883 1.561 . S
C881 C884 1.526 . S
C882 H866 0.959 . S
C882 H867 0.959 . S
C882 H868 0.961 . S
C882 C881 1.502 . S
C883 H869 0.960 . S
C883 H870 0.961 . S
C883 H871 0.959 . S
C883 C881 1.561 . S
C884 C881 1.526 . S
C884 C885 1.396 . S
C884 C889 1.390 . S
C885 C879 1.465 . S
C885 C884 1.396 . S
C885 C886 1.399 . S
C886 H872 0.929 . S
C886 C885 1.399 . S
C886 C887 1.385 . S
C887 H873 0.931 . S
C887 C886 1.385 . S
C887 C888 1.389 . S
C888 C887 1.389 . S
C888 C889 1.387 . S
C889 H874 0.930 . S
C889 C884 1.390 . S
C889 C888 1.387 . S
H890 C902 0.930 . S
H891 C904 0.930 . S
H892 C905 0.930 . S
H893 C909 0.959 . S
H894 C909 0.959 . S
H895 C909 0.961 . S
H896 C910 0.960 . S
H897 C910 0.961 . S
H898 C910 0.959 . S
H899 C913 0.929 . S
H900 C914 0.931 . S
H901 C916 0.930 . S
C902 H890 0.930 . S
C902 C903 1.399 . S
C902 C907 1.399 . S
C903 C902 1.399 . S
C903 C904 1.376 . S
C904 H891 0.930 . S
C904 C903 1.376 . S
C904 C905 1.388 . S
C905 H892 0.930 . S
C905 C904 1.388 . S
C905 C906 1.390 . S
C906 C905 1.390 . S
C906 C907 1.394 . S
C906 C912 1.465 . S
C907 C902 1.399 . S
C907 C906 1.394 . S
C907 C908 1.516 . S
C908 C907 1.516 . S
C908 C909 1.502 . S
C908 C910 1.561 . S
C908 C911 1.526 . S
C909 H893 0.959 . S
C909 H894 0.959 . S
C909 H895 0.961 . S
C909 C908 1.502 . S
C910 H896 0.960 . S
C910 H897 0.961 . S
C910 H898 0.959 . S
C910 C908 1.561 . S
C911 C908 1.526 . S
C911 C912 1.396 . S
C911 C916 1.390 . S
C912 C906 1.465 . S
C912 C911 1.396 . S
C912 C913 1.399 . S
C913 H899 0.929 . S
C913 C912 1.399 . S
C913 C914 1.385 . S
C914 H900 0.931 . S
C914 C913 1.385 . S
C914 C915 1.389 . S
C915 C914 1.389 . S
C915 C916 1.387 . S
C916 H901 0.930 . S
C916 C911 1.390 . S
C916 C915 1.387 . S
H917 C929 0.930 . S
H918 C931 0.930 . S
H919 C932 0.930 . S
H920 C936 0.959 . S
H921 C936 0.959 . S
H922 C936 0.961 . S
H923 C937 0.960 . S
H924 C937 0.961 . S
H925 C937 0.959 . S
H926 C940 0.929 . S
H927 C941 0.931 . S
H928 C943 0.930 . S
C929 H917 0.930 . S
C929 C930 1.399 . S
C929 C934 1.399 . S
C930 C929 1.399 . S
C930 C931 1.376 . S
C931 H918 0.930 . S
C931 C930 1.376 . S
C931 C932 1.388 . S
C932 H919 0.930 . S
C932 C931 1.388 . S
C932 C933 1.390 . S
C933 C932 1.390 . S
C933 C934 1.394 . S
C933 C939 1.465 . S
C934 C929 1.399 . S
C934 C933 1.394 . S
C934 C935 1.516 . S
C935 C934 1.516 . S
C935 C936 1.502 . S
C935 C937 1.561 . S
C935 C938 1.526 . S
C936 H920 0.959 . S
C936 H921 0.959 . S
C936 H922 0.961 . S
C936 C935 1.502 . S
C937 H923 0.960 . S
C937 H924 0.961 . S
C937 H925 0.959 . S
C937 C935 1.561 . S
C938 C935 1.526 . S
C938 C939 1.396 . S
C938 C943 1.390 . S
C939 C933 1.465 . S
C939 C938 1.396 . S
C939 C940 1.399 . S
C940 H926 0.929 . S
C940 C939 1.399 . S
C940 C941 1.385 . S
C941 H927 0.931 . S
C941 C940 1.385 . S
C941 C942 1.389 . S
C942 C941 1.389 . S
C942 C943 1.387 . S
C943 H928 0.930 . S
C943 C938 1.390 . S
C943 C942 1.387 . S
H944 C956 0.930 . S
H945 C958 0.930 . S
H946 C959 0.930 . S
H947 C963 0.959 . S
H948 C963 0.959 . S
H949 C963 0.961 . S
H950 C964 0.960 . S
H951 C964 0.961 . S
H952 C964 0.959 . S
H953 C967 0.929 . S
H954 C968 0.931 . S
H955 C970 0.930 . S
C956 H944 0.930 . S
C956 C957 1.399 . S
C956 C961 1.399 . S
C957 C956 1.399 . S
C957 C958 1.376 . S
C958 H945 0.930 . S
C958 C957 1.376 . S
C958 C959 1.388 . S
C959 H946 0.930 . S
C959 C958 1.388 . S
C959 C960 1.390 . S
C960 C959 1.390 . S
C960 C961 1.394 . S
C960 C966 1.465 . S
C961 C956 1.399 . S
C961 C960 1.394 . S
C961 C962 1.516 . S
C962 C961 1.516 . S
C962 C963 1.502 . S
C962 C964 1.561 . S
C962 C965 1.526 . S
C963 H947 0.959 . S
C963 H948 0.959 . S
C963 H949 0.961 . S
C963 C962 1.502 . S
C964 H950 0.960 . S
C964 H951 0.961 . S
C964 H952 0.959 . S
C964 C962 1.561 . S
C965 C962 1.526 . S
C965 C966 1.396 . S
C965 C970 1.390 . S
C966 C960 1.465 . S
C966 C965 1.396 . S
C966 C967 1.399 . S
C967 H953 0.929 . S
C967 C966 1.399 . S
C967 C968 1.385 . S
C968 H954 0.931 . S
C968 C967 1.385 . S
C968 C969 1.389 . S
C969 C968 1.389 . S
C969 C970 1.387 . S
C970 H955 0.930 . S
C970 C965 1.390 . S
C970 C969 1.387 . S
H971 C983 0.930 . S
H972 C985 0.930 . S
H973 C986 0.930 . S
H974 C990 0.959 . S
H975 C990 0.959 . S
H976 C990 0.961 1_545 S
H977 C991 0.960 . S
H978 C991 0.961 . S
H979 C991 0.959 . S
H980 C994 0.929 . S
H981 C995 0.931 . S
H982 C997 0.930 . S
C983 H971 0.930 . S
C983 C984 1.399 1_545 S
C983 C988 1.399 1_545 S
C984 C983 1.399 1_565 S
C984 C985 1.376 . S
C985 H972 0.930 . S
C985 C984 1.376 . S
C985 C986 1.388 . S
C986 H973 0.930 . S
C986 C985 1.388 . S
C986 C987 1.390 . S
C987 C986 1.390 . S
C987 C988 1.394 . S
C987 C993 1.465 . S
C988 C983 1.399 1_565 S
C988 C987 1.394 . S
C988 C989 1.516 . S
C989 C988 1.516 . S
C989 C990 1.502 . S
C989 C991 1.561 1_565 S
C989 C992 1.526 . S
C990 H974 0.959 . S
C990 H975 0.959 . S
C990 H976 0.961 1_565 S
C990 C989 1.502 . S
C991 H977 0.960 . S
C991 H978 0.961 . S
C991 H979 0.959 . S
C991 C989 1.561 1_545 S
C992 C989 1.526 . S
C992 C993 1.396 . S
C992 C997 1.390 . S
C993 C987 1.465 . S
C993 C992 1.396 . S
C993 C994 1.399 . S
C994 H980 0.929 . S
C994 C993 1.399 . S
C994 C995 1.385 . S
C995 H981 0.931 . S
C995 C994 1.385 . S
C995 C996 1.389 . S
C996 C995 1.389 . S
C996 C997 1.387 . S
C997 H982 0.930 . S
C997 C992 1.390 . S
C997 C996 1.387 . S
H998 C1010 0.930 . S
H999 C1012 0.930 . S
H1000 C1013 0.930 . S
H1001 C1017 0.959 . S
H1002 C1017 0.959 . S
H1003 C1017 0.961 . S
H1004 C1018 0.960 . S
H1005 C1018 0.961 . S
H1006 C1018 0.959 . S
H1007 C1021 0.929 1_554 S
H1008 C1022 0.931 . S
H1009 C1024 0.930 . S
C1010 H998 0.930 . S
C1010 C1011 1.399 . S
C1010 C1015 1.399 . S
C1011 C1010 1.399 . S
C1011 C1012 1.376 . S
C1012 H999 0.930 . S
C1012 C1011 1.376 . S
C1012 C1013 1.388 . S
C1013 H1000 0.930 . S
C1013 C1012 1.388 . S
C1013 C1014 1.390 . S
C1014 C1013 1.390 . S
C1014 C1015 1.394 . S
C1014 C1020 1.465 1_554 S
C1015 C1010 1.399 . S
C1015 C1014 1.394 . S
C1015 C1016 1.516 1_554 S
C1016 C1015 1.516 1_556 S
C1016 C1017 1.502 . S
C1016 C1018 1.561 . S
C1016 C1019 1.526 . S
C1017 H1001 0.959 . S
C1017 H1002 0.959 . S
C1017 H1003 0.961 . S
C1017 C1016 1.502 . S
C1018 H1004 0.960 . S
C1018 H1005 0.961 . S
C1018 H1006 0.959 . S
C1018 C1016 1.561 . S
C1019 C1016 1.526 . S
C1019 C1020 1.396 . S
C1019 C1024 1.390 . S
C1020 C1014 1.465 1_556 S
C1020 C1019 1.396 . S
C1020 C1021 1.399 . S
C1021 H1007 0.929 1_556 S
C1021 C1020 1.399 . S
C1021 C1022 1.385 . S
C1022 H1008 0.931 . S
C1022 C1021 1.385 . S
C1022 C1023 1.389 . S
C1023 C1022 1.389 . S
C1023 C1024 1.387 . S
C1024 H1009 0.930 . S
C1024 C1019 1.390 . S
C1024 C1023 1.387 . S
H1025 C1037 0.930 . S
H1026 C1039 0.930 . S
H1027 C1040 0.930 . S
H1028 C1044 0.959 . S
H1029 C1044 0.959 . S
H1030 C1044 0.961 . S
H1031 C1045 0.960 . S
H1032 C1045 0.961 . S
H1033 C1045 0.959 . S
H1034 C1048 0.929 . S
H1035 C1049 0.931 . S
H1036 C1051 0.930 . S
C1037 H1025 0.930 . S
C1037 C1038 1.399 . S
C1037 C1042 1.399 . S
C1038 C1037 1.399 . S
C1038 C1039 1.376 . S
C1039 H1026 0.930 . S
C1039 C1038 1.376 . S
C1039 C1040 1.388 . S
C1040 H1027 0.930 . S
C1040 C1039 1.388 . S
C1040 C1041 1.390 . S
C1041 C1040 1.390 . S
C1041 C1042 1.394 . S
C1041 C1047 1.465 . S
C1042 C1037 1.399 . S
C1042 C1041 1.394 . S
C1042 C1043 1.516 . S
C1043 C1042 1.516 . S
C1043 C1044 1.502 . S
C1043 C1045 1.561 . S
C1043 C1046 1.526 . S
C1044 H1028 0.959 . S
C1044 H1029 0.959 . S
C1044 H1030 0.961 . S
C1044 C1043 1.502 . S
C1045 H1031 0.960 . S
C1045 H1032 0.961 . S
C1045 H1033 0.959 . S
C1045 C1043 1.561 . S
C1046 C1043 1.526 . S
C1046 C1047 1.396 . S
C1046 C1051 1.390 . S
C1047 C1041 1.465 . S
C1047 C1046 1.396 . S
C1047 C1048 1.399 1_545 S
C1048 H1034 0.929 . S
C1048 C1047 1.399 1_565 S
C1048 C1049 1.385 . S
C1049 H1035 0.931 . S
C1049 C1048 1.385 . S
C1049 C1050 1.389 . S
C1050 C1049 1.389 . S
C1050 C1051 1.387 1_565 S
C1051 H1036 0.930 . S
C1051 C1046 1.390 . S
C1051 C1050 1.387 1_545 S
H1052 C1064 0.930 . S
H1053 C1066 0.930 . S
H1054 C1067 0.930 . S
H1055 C1071 0.959 . S
H1056 C1071 0.959 . S
H1057 C1071 0.961 . S
H1058 C1072 0.960 . S
H1059 C1072 0.961 . S
H1060 C1072 0.959 . S
H1061 C1075 0.929 . S
H1062 C1076 0.931 . S
H1063 C1078 0.930 . S
C1064 H1052 0.930 . S
C1064 C1065 1.399 . S
C1064 C1069 1.399 . S
C1065 C1064 1.399 . S
C1065 C1066 1.376 . S
C1066 H1053 0.930 . S
C1066 C1065 1.376 . S
C1066 C1067 1.388 . S
C1067 H1054 0.930 . S
C1067 C1066 1.388 . S
C1067 C1068 1.390 . S
C1068 C1067 1.390 . S
C1068 C1069 1.394 . S
C1068 C1074 1.465 . S
C1069 C1064 1.399 . S
C1069 C1068 1.394 . S
C1069 C1070 1.516 . S
C1070 C1069 1.516 . S
C1070 C1071 1.502 . S
C1070 C1072 1.561 . S
C1070 C1073 1.526 . S
C1071 H1055 0.959 . S
C1071 H1056 0.959 . S
C1071 H1057 0.961 . S
C1071 C1070 1.502 . S
C1072 H1058 0.960 . S
C1072 H1059 0.961 . S
C1072 H1060 0.959 . S
C1072 C1070 1.561 . S
C1073 C1070 1.526 . S
C1073 C1074 1.396 . S
C1073 C1078 1.390 . S
C1074 C1068 1.465 . S
C1074 C1073 1.396 . S
C1074 C1075 1.399 . S
C1075 H1061 0.929 . S
C1075 C1074 1.399 . S
C1075 C1076 1.385 . S
C1076 H1062 0.931 . S
C1076 C1075 1.385 . S
C1076 C1077 1.389 . S
C1077 C1076 1.389 . S
C1077 C1078 1.387 . S
C1078 H1063 0.930 . S
C1078 C1073 1.390 . S
C1078 C1077 1.387 . S
H1079 C1091 0.930 . S
H1080 C1093 0.930 . S
H1081 C1094 0.930 . S
H1082 C1098 0.959 . S
H1083 C1098 0.959 . S
H1084 C1098 0.961 1_565 S
H1085 C1099 0.960 . S
H1086 C1099 0.961 . S
H1087 C1099 0.959 . S
H1088 C1102 0.929 . S
H1089 C1103 0.931 . S
H1090 C1105 0.930 . S
C1091 H1079 0.930 . S
C1091 C1092 1.399 1_565 S
C1091 C1096 1.399 1_565 S
C1092 C1091 1.399 1_545 S
C1092 C1093 1.376 . S
C1093 H1080 0.930 . S
C1093 C1092 1.376 . S
C1093 C1094 1.388 . S
C1094 H1081 0.930 . S
C1094 C1093 1.388 . S
C1094 C1095 1.390 . S
C1095 C1094 1.390 . S
C1095 C1096 1.394 . S
C1095 C1101 1.465 . S
C1096 C1091 1.399 1_545 S
C1096 C1095 1.394 . S
C1096 C1097 1.516 . S
C1097 C1096 1.516 . S
C1097 C1098 1.502 . S
C1097 C1099 1.561 1_545 S
C1097 C1100 1.526 . S
C1098 H1082 0.959 . S
C1098 H1083 0.959 . S
C1098 H1084 0.961 1_545 S
C1098 C1097 1.502 . S
C1099 H1085 0.960 . S
C1099 H1086 0.961 . S
C1099 H1087 0.959 . S
C1099 C1097 1.561 1_565 S
C1100 C1097 1.526 . S
C1100 C1101 1.396 . S
C1100 C1105 1.390 . S
C1101 C1095 1.465 . S
C1101 C1100 1.396 . S
C1101 C1102 1.399 . S
C1102 H1088 0.929 . S
C1102 C1101 1.399 . S
C1102 C1103 1.385 . S
C1103 H1089 0.931 . S
C1103 C1102 1.385 . S
C1103 C1104 1.389 . S
C1104 C1103 1.389 . S
C1104 C1105 1.387 . S
C1105 H1090 0.930 . S
C1105 C1100 1.390 . S
C1105 C1104 1.387 . S
H1106 C1118 0.930 . S
H1107 C1120 0.930 . S
H1108 C1121 0.930 . S
H1109 C1125 0.959 . S
H1110 C1125 0.959 1_556 S
H1111 C1125 0.961 . S
H1112 C1126 0.960 . S
H1113 C1126 0.961 . S
H1114 C1126 0.959 . S
H1115 C1129 0.929 . S
H1116 C1130 0.931 . S
H1117 C1132 0.930 . S
C1118 H1106 0.930 . S
C1118 C1119 1.399 . S
C1118 C1123 1.399 . S
C1119 C1118 1.399 . S
C1119 C1120 1.376 . S
C1120 H1107 0.930 . S
C1120 C1119 1.376 . S
C1120 C1121 1.388 . S
C1121 H1108 0.930 . S
C1121 C1120 1.388 . S
C1121 C1122 1.390 . S
C1122 C1121 1.390 . S
C1122 C1123 1.394 . S
C1122 C1128 1.465 1_554 S
C1123 C1118 1.399 . S
C1123 C1122 1.394 . S
C1123 C1124 1.516 1_554 S
C1124 C1123 1.516 1_556 S
C1124 C1125 1.502 1_556 S
C1124 C1126 1.561 . S
C1124 C1127 1.526 . S
C1125 H1109 0.959 . S
C1125 H1110 0.959 1_554 S
C1125 H1111 0.961 . S
C1125 C1124 1.502 1_554 S
C1126 H1112 0.960 . S
C1126 H1113 0.961 . S
C1126 H1114 0.959 . S
C1126 C1124 1.561 . S
C1127 C1124 1.526 . S
C1127 C1128 1.396 . S
C1127 C1132 1.390 . S
C1128 C1122 1.465 1_556 S
C1128 C1127 1.396 . S
C1128 C1129 1.399 . S
C1129 H1115 0.929 . S
C1129 C1128 1.399 . S
C1129 C1130 1.385 . S
C1130 H1116 0.931 . S
C1130 C1129 1.385 . S
C1130 C1131 1.389 . S
C1131 C1130 1.389 . S
C1131 C1132 1.387 . S
C1132 H1117 0.930 . S
C1132 C1127 1.390 . S
C1132 C1131 1.387 . S
H1133 C1145 0.930 . S
H1134 C1147 0.930 . S
H1135 C1148 0.930 . S
H1136 C1152 0.959 1_565 S
H1137 C1152 0.959 . S
H1138 C1152 0.961 . S
H1139 C1153 0.960 . S
H1140 C1153 0.961 . S
H1141 C1153 0.959 1_565 S
H1142 C1156 0.929 . S
H1143 C1157 0.931 . S
H1144 C1159 0.930 . S
C1145 H1133 0.930 . S
C1145 C1146 1.399 1_545 S
C1145 C1150 1.399 1_545 S
C1146 C1145 1.399 1_565 S
C1146 C1147 1.376 . S
C1147 H1134 0.930 . S
C1147 C1146 1.376 . S
C1147 C1148 1.388 . S
C1148 H1135 0.930 . S
C1148 C1147 1.388 . S
C1148 C1149 1.390 . S
C1149 C1148 1.390 . S
C1149 C1150 1.394 . S
C1149 C1155 1.465 . S
C1150 C1145 1.399 1_565 S
C1150 C1149 1.394 . S
C1150 C1151 1.516 . S
C1151 C1150 1.516 . S
C1151 C1152 1.502 1_565 S
C1151 C1153 1.561 1_565 S
C1151 C1154 1.526 . S
C1152 H1136 0.959 1_545 S
C1152 H1137 0.959 . S
C1152 H1138 0.961 . S
C1152 C1151 1.502 1_545 S
C1153 H1139 0.960 . S
C1153 H1140 0.961 . S
C1153 H1141 0.959 1_545 S
C1153 C1151 1.561 1_545 S
C1154 C1151 1.526 . S
C1154 C1155 1.396 . S
C1154 C1159 1.390 . S
C1155 C1149 1.465 . S
C1155 C1154 1.396 . S
C1155 C1156 1.399 . S
C1156 H1142 0.929 . S
C1156 C1155 1.399 . S
C1156 C1157 1.385 . S
C1157 H1143 0.931 . S
C1157 C1156 1.385 . S
C1157 C1158 1.389 . S
C1158 C1157 1.389 . S
C1158 C1159 1.387 . S
C1159 H1144 0.930 . S
C1159 C1154 1.390 . S
C1159 C1158 1.387 . S
H1160 C1172 0.930 . S
H1161 C1174 0.930 . S
H1162 C1175 0.930 . S
H1163 C1179 0.959 . S
H1164 C1179 0.959 . S
H1165 C1179 0.961 . S
H1166 C1180 0.960 . S
H1167 C1180 0.961 . S
H1168 C1180 0.959 . S
H1169 C1183 0.929 . S
H1170 C1184 0.931 . S
H1171 C1186 0.930 . S
C1172 H1160 0.930 . S
C1172 C1173 1.399 . S
C1172 C1177 1.399 . S
C1173 C1172 1.399 . S
C1173 C1174 1.376 . S
C1174 H1161 0.930 . S
C1174 C1173 1.376 . S
C1174 C1175 1.388 . S
C1175 H1162 0.930 . S
C1175 C1174 1.388 . S
C1175 C1176 1.390 . S
C1176 C1175 1.390 . S
C1176 C1177 1.394 . S
C1176 C1182 1.465 . S
C1177 C1172 1.399 . S
C1177 C1176 1.394 . S
C1177 C1178 1.516 . S
C1178 C1177 1.516 . S
C1178 C1179 1.502 . S
C1178 C1180 1.561 . S
C1178 C1181 1.526 . S
C1179 H1163 0.959 . S
C1179 H1164 0.959 . S
C1179 H1165 0.961 . S
C1179 C1178 1.502 . S
C1180 H1166 0.960 . S
C1180 H1167 0.961 . S
C1180 H1168 0.959 . S
C1180 C1178 1.561 . S
C1181 C1178 1.526 . S
C1181 C1182 1.396 . S
C1181 C1186 1.390 . S
C1182 C1176 1.465 . S
C1182 C1181 1.396 . S
C1182 C1183 1.399 . S
C1183 H1169 0.929 . S
C1183 C1182 1.399 . S
C1183 C1184 1.385 . S
C1184 H1170 0.931 . S
C1184 C1183 1.385 . S
C1184 C1185 1.389 . S
C1185 C1184 1.389 . S
C1185 C1186 1.387 . S
C1186 H1171 0.930 . S
C1186 C1181 1.390 . S
C1186 C1185 1.387 . S
H1187 C1199 0.930 . S
H1188 C1201 0.930 . S
H1189 C1202 0.930 . S
H1190 C1206 0.959 . S
H1191 C1206 0.959 . S
H1192 C1206 0.961 . S
H1193 C1207 0.960 . S
H1194 C1207 0.961 . S
H1195 C1207 0.959 . S
H1196 C1210 0.929 . S
H1197 C1211 0.931 . S
H1198 C1213 0.930 . S
C1199 H1187 0.930 . S
C1199 C1200 1.399 . S
C1199 C1204 1.399 . S
C1200 C1199 1.399 . S
C1200 C1201 1.376 . S
C1201 H1188 0.930 . S
C1201 C1200 1.376 . S
C1201 C1202 1.388 . S
C1202 H1189 0.930 . S
C1202 C1201 1.388 . S
C1202 C1203 1.390 . S
C1203 C1202 1.390 . S
C1203 C1204 1.394 . S
C1203 C1209 1.465 . S
C1204 C1199 1.399 . S
C1204 C1203 1.394 . S
C1204 C1205 1.516 . S
C1205 C1204 1.516 . S
C1205 C1206 1.502 . S
C1205 C1207 1.561 . S
C1205 C1208 1.526 . S
C1206 H1190 0.959 . S
C1206 H1191 0.959 . S
C1206 H1192 0.961 . S
C1206 C1205 1.502 . S
C1207 H1193 0.960 . S
C1207 H1194 0.961 . S
C1207 H1195 0.959 . S
C1207 C1205 1.561 . S
C1208 C1205 1.526 . S
C1208 C1209 1.396 . S
C1208 C1213 1.390 . S
C1209 C1203 1.465 . S
C1209 C1208 1.396 . S
C1209 C1210 1.399 . S
C1210 H1196 0.929 . S
C1210 C1209 1.399 . S
C1210 C1211 1.385 . S
C1211 H1197 0.931 . S
C1211 C1210 1.385 . S
C1211 C1212 1.389 . S
C1212 C1211 1.389 . S
C1212 C1213 1.387 . S
C1213 H1198 0.930 . S
C1213 C1208 1.390 . S
C1213 C1212 1.387 . S
H1214 C1226 0.930 . S
H1215 C1228 0.930 . S
H1216 C1229 0.930 . S
H1217 C1233 0.959 . S
H1218 C1233 0.959 . S
H1219 C1233 0.961 . S
H1220 C1234 0.960 1_655 S
H1221 C1234 0.961 . S
H1222 C1234 0.959 . S
H1223 C1237 0.929 . S
H1224 C1238 0.931 . S
H1225 C1240 0.930 . S
C1226 H1214 0.930 . S
C1226 C1227 1.399 . S
C1226 C1231 1.399 . S
C1227 C1226 1.399 . S
C1227 C1228 1.376 . S
C1228 H1215 0.930 . S
C1228 C1227 1.376 . S
C1228 C1229 1.388 . S
C1229 H1216 0.930 . S
C1229 C1228 1.388 . S
C1229 C1230 1.390 . S
C1230 C1229 1.390 . S
C1230 C1231 1.394 . S
C1230 C1236 1.465 1_655 S
C1231 C1226 1.399 . S
C1231 C1230 1.394 . S
C1231 C1232 1.516 . S
C1232 C1231 1.516 . S
C1232 C1233 1.502 . S
C1232 C1234 1.561 1_655 S
C1232 C1235 1.526 1_655 S
C1233 H1217 0.959 . S
C1233 H1218 0.959 . S
C1233 H1219 0.961 . S
C1233 C1232 1.502 . S
C1234 H1220 0.960 1_455 S
C1234 H1221 0.961 . S
C1234 H1222 0.959 . S
C1234 C1232 1.561 1_455 S
C1235 C1232 1.526 1_455 S
C1235 C1236 1.396 . S
C1235 C1240 1.390 . S
C1236 C1230 1.465 1_455 S
C1236 C1235 1.396 . S
C1236 C1237 1.399 . S
C1237 H1223 0.929 . S
C1237 C1236 1.399 . S
C1237 C1238 1.385 . S
C1238 H1224 0.931 . S
C1238 C1237 1.385 . S
C1238 C1239 1.389 . S
C1239 C1238 1.389 . S
C1239 C1240 1.387 . S
C1240 H1225 0.930 . S
C1240 C1235 1.390 . S
C1240 C1239 1.387 . S
H1241 C1253 0.930 . S
H1242 C1255 0.930 . S
H1243 C1256 0.930 . S
H1244 C1260 0.959 . S
H1245 C1260 0.959 . S
H1246 C1260 0.961 1_655 S
H1247 C1261 0.960 . S
H1248 C1261 0.961 . S
H1249 C1261 0.959 . S
H1250 C1264 0.929 . S
H1251 C1265 0.931 . S
H1252 C1267 0.930 . S
C1253 H1241 0.930 . S
C1253 C1254 1.399 . S
C1253 C1258 1.399 . S
C1254 C1253 1.399 . S
C1254 C1255 1.376 . S
C1255 H1242 0.930 . S
C1255 C1254 1.376 . S
C1255 C1256 1.388 . S
C1256 H1243 0.930 . S
C1256 C1255 1.388 . S
C1256 C1257 1.390 . S
C1257 C1256 1.390 . S
C1257 C1258 1.394 . S
C1257 C1263 1.465 1_655 S
C1258 C1253 1.399 . S
C1258 C1257 1.394 . S
C1258 C1259 1.516 . S
C1259 C1258 1.516 . S
C1259 C1260 1.502 1_655 S
C1259 C1261 1.561 . S
C1259 C1262 1.526 1_655 S
C1260 H1244 0.959 . S
C1260 H1245 0.959 . S
C1260 H1246 0.961 1_455 S
C1260 C1259 1.502 1_455 S
C1261 H1247 0.960 . S
C1261 H1248 0.961 . S
C1261 H1249 0.959 . S
C1261 C1259 1.561 . S
C1262 C1259 1.526 1_455 S
C1262 C1263 1.396 . S
C1262 C1267 1.390 . S
C1263 C1257 1.465 1_455 S
C1263 C1262 1.396 . S
C1263 C1264 1.399 . S
C1264 H1250 0.929 . S
C1264 C1263 1.399 . S
C1264 C1265 1.385 . S
C1265 H1251 0.931 . S
C1265 C1264 1.385 . S
C1265 C1266 1.389 . S
C1266 C1265 1.389 . S
C1266 C1267 1.387 . S
C1267 H1252 0.930 . S
C1267 C1262 1.390 . S
C1267 C1266 1.387 . S
H1268 C1280 0.930 . S
H1269 C1282 0.930 . S
H1270 C1283 0.930 . S
H1271 C1287 0.959 . S
H1272 C1287 0.959 . S
H1273 C1287 0.961 . S
H1274 C1288 0.960 . S
H1275 C1288 0.961 . S
H1276 C1288 0.959 . S
H1277 C1291 0.929 . S
H1278 C1292 0.931 . S
H1279 C1294 0.930 . S
C1280 H1268 0.930 . S
C1280 C1281 1.399 . S
C1280 C1285 1.399 . S
C1281 C1280 1.399 . S
C1281 C1282 1.376 . S
C1282 H1269 0.930 . S
C1282 C1281 1.376 . S
C1282 C1283 1.388 . S
C1283 H1270 0.930 . S
C1283 C1282 1.388 . S
C1283 C1284 1.390 . S
C1284 C1283 1.390 . S
C1284 C1285 1.394 . S
C1284 C1290 1.465 . S
C1285 C1280 1.399 . S
C1285 C1284 1.394 . S
C1285 C1286 1.516 . S
C1286 C1285 1.516 . S
C1286 C1287 1.502 . S
C1286 C1288 1.561 . S
C1286 C1289 1.526 . S
C1287 H1271 0.959 . S
C1287 H1272 0.959 . S
C1287 H1273 0.961 . S
C1287 C1286 1.502 . S
C1288 H1274 0.960 . S
C1288 H1275 0.961 . S
C1288 H1276 0.959 . S
C1288 C1286 1.561 . S
C1289 C1286 1.526 . S
C1289 C1290 1.396 . S
C1289 C1294 1.390 . S
C1290 C1284 1.465 . S
C1290 C1289 1.396 . S
C1290 C1291 1.399 . S
C1291 H1277 0.929 . S
C1291 C1290 1.399 . S
C1291 C1292 1.385 . S
C1292 H1278 0.931 . S
C1292 C1291 1.385 . S
C1292 C1293 1.389 . S
C1293 C1292 1.389 . S
C1293 C1294 1.387 . S
C1294 H1279 0.930 . S
C1294 C1289 1.390 . S
C1294 C1293 1.387 . S
H1295 C1307 0.930 . S
H1296 C1309 0.930 . S
H1297 C1310 0.930 . S
H1298 C1314 0.959 . S
H1299 C1314 0.959 . S
H1300 C1314 0.961 . S
H1301 C1315 0.960 . S
H1302 C1315 0.961 . S
H1303 C1315 0.959 . S
H1304 C1318 0.929 . S
H1305 C1319 0.931 . S
H1306 C1321 0.930 . S
C1307 H1295 0.930 . S
C1307 C1308 1.399 . S
C1307 C1312 1.399 . S
C1308 C1307 1.399 . S
C1308 C1309 1.376 . S
C1309 H1296 0.930 . S
C1309 C1308 1.376 . S
C1309 C1310 1.388 . S
C1310 H1297 0.930 . S
C1310 C1309 1.388 . S
C1310 C1311 1.390 . S
C1311 C1310 1.390 . S
C1311 C1312 1.394 . S
C1311 C1317 1.465 . S
C1312 C1307 1.399 . S
C1312 C1311 1.394 . S
C1312 C1313 1.516 . S
C1313 C1312 1.516 . S
C1313 C1314 1.502 . S
C1313 C1315 1.561 . S
C1313 C1316 1.526 . S
C1314 H1298 0.959 . S
C1314 H1299 0.959 . S
C1314 H1300 0.961 . S
C1314 C1313 1.502 . S
C1315 H1301 0.960 . S
C1315 H1302 0.961 . S
C1315 H1303 0.959 . S
C1315 C1313 1.561 . S
C1316 C1313 1.526 . S
C1316 C1317 1.396 . S
C1316 C1321 1.390 . S
C1317 C1311 1.465 . S
C1317 C1316 1.396 . S
C1317 C1318 1.399 . S
C1318 H1304 0.929 . S
C1318 C1317 1.399 . S
C1318 C1319 1.385 . S
C1319 H1305 0.931 . S
C1319 C1318 1.385 . S
C1319 C1320 1.389 . S
C1320 C1319 1.389 . S
C1320 C1321 1.387 . S
C1321 H1306 0.930 . S
C1321 C1316 1.390 . S
C1321 C1320 1.387 . S
H1322 C1334 0.930 . S
H1323 C1336 0.930 . S
H1324 C1337 0.930 1_655 S
H1325 C1341 0.959 . S
H1326 C1341 0.959 . S
H1327 C1341 0.961 . S
H1328 C1342 0.960 . S
H1329 C1342 0.961 . S
H1330 C1342 0.959 . S
H1331 C1345 0.929 . S
H1332 C1346 0.931 . S
H1333 C1348 0.930 . S
C1334 H1322 0.930 . S
C1334 C1335 1.399 . S
C1334 C1339 1.399 . S
C1335 C1334 1.399 . S
C1335 C1336 1.376 . S
C1336 H1323 0.930 . S
C1336 C1335 1.376 . S
C1336 C1337 1.388 . S
C1337 H1324 0.930 1_455 S
C1337 C1336 1.388 . S
C1337 C1338 1.390 . S
C1338 C1337 1.390 . S
C1338 C1339 1.394 . S
C1338 C1344 1.465 1_455 S
C1339 C1334 1.399 . S
C1339 C1338 1.394 . S
C1339 C1340 1.516 . S
C1340 C1339 1.516 . S
C1340 C1341 1.502 . S
C1340 C1342 1.561 . S
C1340 C1343 1.526 1_455 S
C1341 H1325 0.959 . S
C1341 H1326 0.959 . S
C1341 H1327 0.961 . S
C1341 C1340 1.502 . S
C1342 H1328 0.960 . S
C1342 H1329 0.961 . S
C1342 H1330 0.959 . S
C1342 C1340 1.561 . S
C1343 C1340 1.526 1_655 S
C1343 C1344 1.396 . S
C1343 C1348 1.390 . S
C1344 C1338 1.465 1_655 S
C1344 C1343 1.396 . S
C1344 C1345 1.399 . S
C1345 H1331 0.929 . S
C1345 C1344 1.399 . S
C1345 C1346 1.385 . S
C1346 H1332 0.931 . S
C1346 C1345 1.385 . S
C1346 C1347 1.389 . S
C1347 C1346 1.389 . S
C1347 C1348 1.387 . S
C1348 H1333 0.930 . S
C1348 C1343 1.390 . S
C1348 C1347 1.387 . S
H1349 C1361 0.930 . S
H1350 C1363 0.930 . S
H1351 C1364 0.930 . S
H1352 C1368 0.959 . S
H1353 C1368 0.959 . S
H1354 C1368 0.961 . S
H1355 C1369 0.960 . S
H1356 C1369 0.961 . S
H1357 C1369 0.959 . S
H1358 C1372 0.929 . S
H1359 C1373 0.931 . S
H1360 C1375 0.930 . S
C1361 H1349 0.930 . S
C1361 C1362 1.399 . S
C1361 C1366 1.399 . S
C1362 C1361 1.399 . S
C1362 C1363 1.376 . S
C1363 H1350 0.930 . S
C1363 C1362 1.376 . S
C1363 C1364 1.388 . S
C1364 H1351 0.930 . S
C1364 C1363 1.388 . S
C1364 C1365 1.390 . S
C1365 C1364 1.390 . S
C1365 C1366 1.394 . S
C1365 C1371 1.465 . S
C1366 C1361 1.399 . S
C1366 C1365 1.394 . S
C1366 C1367 1.516 1_455 S
C1367 C1366 1.516 1_655 S
C1367 C1368 1.502 . S
C1367 C1369 1.561 . S
C1367 C1370 1.526 . S
C1368 H1352 0.959 . S
C1368 H1353 0.959 . S
C1368 H1354 0.961 . S
C1368 C1367 1.502 . S
C1369 H1355 0.960 . S
C1369 H1356 0.961 . S
C1369 H1357 0.959 . S
C1369 C1367 1.561 . S
C1370 C1367 1.526 . S
C1370 C1371 1.396 1_655 S
C1370 C1375 1.390 . S
C1371 C1365 1.465 . S
C1371 C1370 1.396 1_455 S
C1371 C1372 1.399 . S
C1372 H1358 0.929 . S
C1372 C1371 1.399 . S
C1372 C1373 1.385 1_455 S
C1373 H1359 0.931 . S
C1373 C1372 1.385 1_655 S
C1373 C1374 1.389 . S
C1374 C1373 1.389 . S
C1374 C1375 1.387 . S
C1375 H1360 0.930 . S
C1375 C1370 1.390 . S
C1375 C1374 1.387 . S
H1376 C1388 0.930 . S
H1377 C1390 0.930 . S
H1378 C1391 0.930 . S
H1379 C1395 0.959 . S
H1380 C1395 0.959 . S
H1381 C1395 0.961 . S
H1382 C1396 0.960 . S
H1383 C1396 0.961 . S
H1384 C1396 0.959 . S
H1385 C1399 0.929 . S
H1386 C1400 0.931 . S
H1387 C1402 0.930 . S
C1388 H1376 0.930 . S
C1388 C1389 1.399 . S
C1388 C1393 1.399 . S
C1389 C1388 1.399 . S
C1389 C1390 1.376 . S
C1390 H1377 0.930 . S
C1390 C1389 1.376 . S
C1390 C1391 1.388 . S
C1391 H1378 0.930 . S
C1391 C1390 1.388 . S
C1391 C1392 1.390 . S
C1392 C1391 1.390 . S
C1392 C1393 1.394 . S
C1392 C1398 1.465 . S
C1393 C1388 1.399 . S
C1393 C1392 1.394 . S
C1393 C1394 1.516 . S
C1394 C1393 1.516 . S
C1394 C1395 1.502 . S
C1394 C1396 1.561 . S
C1394 C1397 1.526 . S
C1395 H1379 0.959 . S
C1395 H1380 0.959 . S
C1395 H1381 0.961 . S
C1395 C1394 1.502 . S
C1396 H1382 0.960 . S
C1396 H1383 0.961 . S
C1396 H1384 0.959 . S
C1396 C1394 1.561 . S
C1397 C1394 1.526 . S
C1397 C1398 1.396 . S
C1397 C1402 1.390 . S
C1398 C1392 1.465 . S
C1398 C1397 1.396 . S
C1398 C1399 1.399 . S
C1399 H1385 0.929 . S
C1399 C1398 1.399 . S
C1399 C1400 1.385 . S
C1400 H1386 0.931 . S
C1400 C1399 1.385 . S
C1400 C1401 1.389 . S
C1401 C1400 1.389 . S
C1401 C1402 1.387 . S
C1402 H1387 0.930 . S
C1402 C1397 1.390 . S
C1402 C1401 1.387 . S
H1403 C1415 0.930 . S
H1404 C1417 0.930 . S
H1405 C1418 0.930 . S
H1406 C1422 0.959 . S
H1407 C1422 0.959 . S
H1408 C1422 0.961 . S
H1409 C1423 0.960 . S
H1410 C1423 0.961 . S
H1411 C1423 0.959 . S
H1412 C1426 0.929 . S
H1413 C1427 0.931 . S
H1414 C1429 0.930 . S
C1415 H1403 0.930 . S
C1415 C1416 1.399 . S
C1415 C1420 1.399 . S
C1416 C1415 1.399 . S
C1416 C1417 1.376 . S
C1417 H1404 0.930 . S
C1417 C1416 1.376 . S
C1417 C1418 1.388 . S
C1418 H1405 0.930 . S
C1418 C1417 1.388 . S
C1418 C1419 1.390 . S
C1419 C1418 1.390 . S
C1419 C1420 1.394 . S
C1419 C1425 1.465 . S
C1420 C1415 1.399 . S
C1420 C1419 1.394 . S
C1420 C1421 1.516 . S
C1421 C1420 1.516 . S
C1421 C1422 1.502 . S
C1421 C1423 1.561 . S
C1421 C1424 1.526 . S
C1422 H1406 0.959 . S
C1422 H1407 0.959 . S
C1422 H1408 0.961 . S
C1422 C1421 1.502 . S
C1423 H1409 0.960 . S
C1423 H1410 0.961 . S
C1423 H1411 0.959 . S
C1423 C1421 1.561 . S
C1424 C1421 1.526 . S
C1424 C1425 1.396 . S
C1424 C1429 1.390 . S
C1425 C1419 1.465 . S
C1425 C1424 1.396 . S
C1425 C1426 1.399 . S
C1426 H1412 0.929 . S
C1426 C1425 1.399 . S
C1426 C1427 1.385 . S
C1427 H1413 0.931 . S
C1427 C1426 1.385 . S
C1427 C1428 1.389 . S
C1428 C1427 1.389 . S
C1428 C1429 1.387 . S
C1429 H1414 0.930 . S
C1429 C1424 1.390 . S
C1429 C1428 1.387 . S
H1430 C1442 0.930 . S
H1431 C1444 0.930 . S
H1432 C1445 0.930 . S
H1433 C1449 0.959 . S
H1434 C1449 0.959 . S
H1435 C1449 0.961 . S
H1436 C1450 0.960 . S
H1437 C1450 0.961 . S
H1438 C1450 0.959 . S
H1439 C1453 0.929 . S
H1440 C1454 0.931 . S
H1441 C1456 0.930 . S
C1442 H1430 0.930 . S
C1442 C1443 1.399 . S
C1442 C1447 1.399 . S
C1443 C1442 1.399 . S
C1443 C1444 1.376 . S
C1444 H1431 0.930 . S
C1444 C1443 1.376 . S
C1444 C1445 1.388 . S
C1445 H1432 0.930 . S
C1445 C1444 1.388 . S
C1445 C1446 1.390 . S
C1446 C1445 1.390 . S
C1446 C1447 1.394 . S
C1446 C1452 1.465 . S
C1447 C1442 1.399 . S
C1447 C1446 1.394 . S
C1447 C1448 1.516 . S
C1448 C1447 1.516 . S
C1448 C1449 1.502 . S
C1448 C1450 1.561 . S
C1448 C1451 1.526 . S
C1449 H1433 0.959 . S
C1449 H1434 0.959 . S
C1449 H1435 0.961 . S
C1449 C1448 1.502 . S
C1450 H1436 0.960 . S
C1450 H1437 0.961 . S
C1450 H1438 0.959 . S
C1450 C1448 1.561 . S
C1451 C1448 1.526 . S
C1451 C1452 1.396 . S
C1451 C1456 1.390 . S
C1452 C1446 1.465 . S
C1452 C1451 1.396 . S
C1452 C1453 1.399 . S
C1453 H1439 0.929 . S
C1453 C1452 1.399 . S
C1453 C1454 1.385 . S
C1454 H1440 0.931 . S
C1454 C1453 1.385 . S
C1454 C1455 1.389 . S
C1455 C1454 1.389 . S
C1455 C1456 1.387 . S
C1456 H1441 0.930 . S
C1456 C1451 1.390 . S
C1456 C1455 1.387 . S
H1457 C1469 0.930 . S
H1458 C1471 0.930 . S
H1459 C1472 0.930 . S
H1460 C1476 0.959 . S
H1461 C1476 0.959 . S
H1462 C1476 0.961 . S
H1463 C1477 0.960 . S
H1464 C1477 0.961 . S
H1465 C1477 0.959 . S
H1466 C1480 0.929 . S
H1467 C1481 0.931 . S
H1468 C1483 0.930 . S
C1469 H1457 0.930 . S
C1469 C1470 1.399 . S
C1469 C1474 1.399 1_655 S
C1470 C1469 1.399 . S
C1470 C1471 1.376 . S
C1471 H1458 0.930 . S
C1471 C1470 1.376 . S
C1471 C1472 1.388 1_655 S
C1472 H1459 0.930 . S
C1472 C1471 1.388 1_455 S
C1472 C1473 1.390 . S
C1473 C1472 1.390 . S
C1473 C1474 1.394 . S
C1473 C1479 1.465 . S
C1474 C1469 1.399 1_455 S
C1474 C1473 1.394 . S
C1474 C1475 1.516 . S
C1475 C1474 1.516 . S
C1475 C1476 1.502 . S
C1475 C1477 1.561 . S
C1475 C1478 1.526 . S
C1476 H1460 0.959 . S
C1476 H1461 0.959 . S
C1476 H1462 0.961 . S
C1476 C1475 1.502 . S
C1477 H1463 0.960 . S
C1477 H1464 0.961 . S
C1477 H1465 0.959 . S
C1477 C1475 1.561 . S
C1478 C1475 1.526 . S
C1478 C1479 1.396 . S
C1478 C1483 1.390 . S
C1479 C1473 1.465 . S
C1479 C1478 1.396 . S
C1479 C1480 1.399 . S
C1480 H1466 0.929 . S
C1480 C1479 1.399 . S
C1480 C1481 1.385 . S
C1481 H1467 0.931 . S
C1481 C1480 1.385 . S
C1481 C1482 1.389 . S
C1482 C1481 1.389 . S
C1482 C1483 1.387 . S
C1483 H1468 0.930 . S
C1483 C1478 1.390 . S
C1483 C1482 1.387 . S
H1484 C1496 0.930 . S
H1485 C1498 0.930 . S
H1486 C1499 0.930 . S
H1487 C1503 0.959 . S
H1488 C1503 0.959 . S
H1489 C1503 0.961 . S
H1490 C1504 0.960 . S
H1491 C1504 0.961 . S
H1492 C1504 0.959 . S
H1493 C1507 0.929 . S
H1494 C1508 0.931 . S
H1495 C1510 0.930 . S
C1496 H1484 0.930 . S
C1496 C1497 1.399 . S
C1496 C1501 1.399 . S
C1497 C1496 1.399 . S
C1497 C1498 1.376 . S
C1498 H1485 0.930 . S
C1498 C1497 1.376 . S
C1498 C1499 1.388 . S
C1499 H1486 0.930 . S
C1499 C1498 1.388 . S
C1499 C1500 1.390 . S
C1500 C1499 1.390 . S
C1500 C1501 1.394 . S
C1500 C1506 1.465 . S
C1501 C1496 1.399 . S
C1501 C1500 1.394 . S
C1501 C1502 1.516 . S
C1502 C1501 1.516 . S
C1502 C1503 1.502 . S
C1502 C1504 1.561 . S
C1502 C1505 1.526 . S
C1503 H1487 0.959 . S
C1503 H1488 0.959 . S
C1503 H1489 0.961 . S
C1503 C1502 1.502 . S
C1504 H1490 0.960 . S
C1504 H1491 0.961 . S
C1504 H1492 0.959 . S
C1504 C1502 1.561 . S
C1505 C1502 1.526 . S
C1505 C1506 1.396 . S
C1505 C1510 1.390 . S
C1506 C1500 1.465 . S
C1506 C1505 1.396 . S
C1506 C1507 1.399 . S
C1507 H1493 0.929 . S
C1507 C1506 1.399 . S
C1507 C1508 1.385 . S
C1508 H1494 0.931 . S
C1508 C1507 1.385 . S
C1508 C1509 1.389 . S
C1509 C1508 1.389 . S
C1509 C1510 1.387 . S
C1510 H1495 0.930 . S
C1510 C1505 1.390 . S
C1510 C1509 1.387 . S
H1511 C1523 0.930 . S
H1512 C1525 0.930 . S
H1513 C1526 0.930 . S
H1514 C1530 0.959 . S
H1515 C1530 0.959 . S
H1516 C1530 0.961 . S
H1517 C1531 0.960 . S
H1518 C1531 0.961 . S
H1519 C1531 0.959 . S
H1520 C1534 0.929 . S
H1521 C1535 0.931 . S
H1522 C1537 0.930 . S
C1523 H1511 0.930 . S
C1523 C1524 1.399 . S
C1523 C1528 1.399 . S
C1524 C1523 1.399 . S
C1524 C1525 1.376 . S
C1525 H1512 0.930 . S
C1525 C1524 1.376 . S
C1525 C1526 1.388 . S
C1526 H1513 0.930 . S
C1526 C1525 1.388 . S
C1526 C1527 1.390 . S
C1527 C1526 1.390 . S
C1527 C1528 1.394 . S
C1527 C1533 1.465 . S
C1528 C1523 1.399 . S
C1528 C1527 1.394 . S
C1528 C1529 1.516 . S
C1529 C1528 1.516 . S
C1529 C1530 1.502 . S
C1529 C1531 1.561 . S
C1529 C1532 1.526 . S
C1530 H1514 0.959 . S
C1530 H1515 0.959 . S
C1530 H1516 0.961 . S
C1530 C1529 1.502 . S
C1531 H1517 0.960 . S
C1531 H1518 0.961 . S
C1531 H1519 0.959 . S
C1531 C1529 1.561 . S
C1532 C1529 1.526 . S
C1532 C1533 1.396 . S
C1532 C1537 1.390 . S
C1533 C1527 1.465 . S
C1533 C1532 1.396 . S
C1533 C1534 1.399 . S
C1534 H1520 0.929 . S
C1534 C1533 1.399 . S
C1534 C1535 1.385 . S
C1535 H1521 0.931 . S
C1535 C1534 1.385 . S
C1535 C1536 1.389 . S
C1536 C1535 1.389 . S
C1536 C1537 1.387 . S
C1537 H1522 0.930 . S
C1537 C1532 1.390 . S
C1537 C1536 1.387 . S
H1538 C1550 0.930 . S
H1539 C1552 0.930 . S
H1540 C1553 0.930 . S
H1541 C1557 0.959 . S
H1542 C1557 0.959 . S
H1543 C1557 0.961 . S
H1544 C1558 0.960 . S
H1545 C1558 0.961 . S
H1546 C1558 0.959 . S
H1547 C1561 0.929 . S
H1548 C1562 0.931 . S
H1549 C1564 0.930 . S
C1550 H1538 0.930 . S
C1550 C1551 1.399 . S
C1550 C1555 1.399 . S
C1551 C1550 1.399 . S
C1551 C1552 1.376 . S
C1552 H1539 0.930 . S
C1552 C1551 1.376 . S
C1552 C1553 1.388 . S
C1553 H1540 0.930 . S
C1553 C1552 1.388 . S
C1553 C1554 1.390 . S
C1554 C1553 1.390 . S
C1554 C1555 1.394 . S
C1554 C1560 1.465 . S
C1555 C1550 1.399 . S
C1555 C1554 1.394 . S
C1555 C1556 1.516 . S
C1556 C1555 1.516 . S
C1556 C1557 1.502 . S
C1556 C1558 1.561 . S
C1556 C1559 1.526 . S
C1557 H1541 0.959 . S
C1557 H1542 0.959 . S
C1557 H1543 0.961 . S
C1557 C1556 1.502 . S
C1558 H1544 0.960 . S
C1558 H1545 0.961 . S
C1558 H1546 0.959 . S
C1558 C1556 1.561 . S
C1559 C1556 1.526 . S
C1559 C1560 1.396 . S
C1559 C1564 1.390 . S
C1560 C1554 1.465 . S
C1560 C1559 1.396 . S
C1560 C1561 1.399 . S
C1561 H1547 0.929 . S
C1561 C1560 1.399 . S
C1561 C1562 1.385 . S
C1562 H1548 0.931 . S
C1562 C1561 1.385 . S
C1562 C1563 1.389 . S
C1563 C1562 1.389 . S
C1563 C1564 1.387 . S
C1564 H1549 0.930 . S
C1564 C1559 1.390 . S
C1564 C1563 1.387 . S
H1565 C1577 0.930 . S
H1566 C1579 0.930 . S
H1567 C1580 0.930 . S
H1568 C1584 0.959 . S
H1569 C1584 0.959 . S
H1570 C1584 0.961 . S
H1571 C1585 0.960 . S
H1572 C1585 0.961 . S
H1573 C1585 0.959 . S
H1574 C1588 0.929 . S
H1575 C1589 0.931 . S
H1576 C1591 0.930 . S
C1577 H1565 0.930 . S
C1577 C1578 1.399 . S
C1577 C1582 1.399 . S
C1578 C1577 1.399 . S
C1578 C1579 1.376 . S
C1579 H1566 0.930 . S
C1579 C1578 1.376 . S
C1579 C1580 1.388 . S
C1580 H1567 0.930 . S
C1580 C1579 1.388 . S
C1580 C1581 1.390 . S
C1581 C1580 1.390 . S
C1581 C1582 1.394 . S
C1581 C1587 1.465 . S
C1582 C1577 1.399 . S
C1582 C1581 1.394 . S
C1582 C1583 1.516 . S
C1583 C1582 1.516 . S
C1583 C1584 1.502 . S
C1583 C1585 1.561 . S
C1583 C1586 1.526 . S
C1584 H1568 0.959 . S
C1584 H1569 0.959 . S
C1584 H1570 0.961 . S
C1584 C1583 1.502 . S
C1585 H1571 0.960 . S
C1585 H1572 0.961 . S
C1585 H1573 0.959 . S
C1585 C1583 1.561 . S
C1586 C1583 1.526 . S
C1586 C1587 1.396 . S
C1586 C1591 1.390 1_655 S
C1587 C1581 1.465 . S
C1587 C1586 1.396 . S
C1587 C1588 1.399 . S
C1588 H1574 0.929 . S
C1588 C1587 1.399 . S
C1588 C1589 1.385 1_655 S
C1589 H1575 0.931 . S
C1589 C1588 1.385 1_455 S
C1589 C1590 1.389 . S
C1590 C1589 1.389 . S
C1590 C1591 1.387 . S
C1591 H1576 0.930 . S
C1591 C1586 1.390 1_455 S
C1591 C1590 1.387 . S
H1592 C1604 0.930 . S
H1593 C1606 0.930 . S
H1594 C1607 0.930 . S
H1595 C1611 0.959 . S
H1596 C1611 0.959 . S
H1597 C1611 0.961 . S
H1598 C1612 0.960 . S
H1599 C1612 0.961 . S
H1600 C1612 0.959 . S
H1601 C1615 0.929 . S
H1602 C1616 0.931 . S
H1603 C1618 0.930 . S
C1604 H1592 0.930 . S
C1604 C1605 1.399 . S
C1604 C1609 1.399 . S
C1605 C1604 1.399 . S
C1605 C1606 1.376 . S
C1606 H1593 0.930 . S
C1606 C1605 1.376 . S
C1606 C1607 1.388 . S
C1607 H1594 0.930 . S
C1607 C1606 1.388 . S
C1607 C1608 1.390 . S
C1608 C1607 1.390 . S
C1608 C1609 1.394 . S
C1608 C1614 1.465 . S
C1609 C1604 1.399 . S
C1609 C1608 1.394 . S
C1609 C1610 1.516 . S
C1610 C1609 1.516 . S
C1610 C1611 1.502 . S
C1610 C1612 1.561 . S
C1610 C1613 1.526 . S
C1611 H1595 0.959 . S
C1611 H1596 0.959 . S
C1611 H1597 0.961 . S
C1611 C1610 1.502 . S
C1612 H1598 0.960 . S
C1612 H1599 0.961 . S
C1612 H1600 0.959 . S
C1612 C1610 1.561 . S
C1613 C1610 1.526 . S
C1613 C1614 1.396 . S
C1613 C1618 1.390 . S
C1614 C1608 1.465 . S
C1614 C1613 1.396 . S
C1614 C1615 1.399 . S
C1615 H1601 0.929 . S
C1615 C1614 1.399 . S
C1615 C1616 1.385 . S
C1616 H1602 0.931 . S
C1616 C1615 1.385 . S
C1616 C1617 1.389 . S
C1617 C1616 1.389 . S
C1617 C1618 1.387 . S
C1618 H1603 0.930 . S
C1618 C1613 1.390 . S
C1618 C1617 1.387 . S
H1619 C1631 0.930 . S
H1620 C1633 0.930 . S
H1621 C1634 0.930 . S
H1622 C1638 0.959 . S
H1623 C1638 0.959 . S
H1624 C1638 0.961 . S
H1625 C1639 0.960 . S
H1626 C1639 0.961 . S
H1627 C1639 0.959 . S
H1628 C1642 0.929 . S
H1629 C1643 0.931 . S
H1630 C1645 0.930 . S
C1631 H1619 0.930 . S
C1631 C1632 1.399 . S
C1631 C1636 1.399 . S
C1632 C1631 1.399 . S
C1632 C1633 1.376 . S
C1633 H1620 0.930 . S
C1633 C1632 1.376 . S
C1633 C1634 1.388 . S
C1634 H1621 0.930 . S
C1634 C1633 1.388 . S
C1634 C1635 1.390 . S
C1635 C1634 1.390 . S
C1635 C1636 1.394 . S
C1635 C1641 1.465 . S
C1636 C1631 1.399 . S
C1636 C1635 1.394 . S
C1636 C1637 1.516 . S
C1637 C1636 1.516 . S
C1637 C1638 1.502 . S
C1637 C1639 1.561 . S
C1637 C1640 1.526 . S
C1638 H1622 0.959 . S
C1638 H1623 0.959 . S
C1638 H1624 0.961 . S
C1638 C1637 1.502 . S
C1639 H1625 0.960 . S
C1639 H1626 0.961 . S
C1639 H1627 0.959 . S
C1639 C1637 1.561 . S
C1640 C1637 1.526 . S
C1640 C1641 1.396 . S
C1640 C1645 1.390 1_655 S
C1641 C1635 1.465 . S
C1641 C1640 1.396 . S
C1641 C1642 1.399 . S
C1642 H1628 0.929 . S
C1642 C1641 1.399 . S
C1642 C1643 1.385 1_655 S
C1643 H1629 0.931 . S
C1643 C1642 1.385 1_455 S
C1643 C1644 1.389 . S
C1644 C1643 1.389 . S
C1644 C1645 1.387 . S
C1645 H1630 0.930 . S
C1645 C1640 1.390 1_455 S
C1645 C1644 1.387 . S
H1646 C1658 0.930 . S
H1647 C1660 0.930 . S
H1648 C1661 0.930 . S
H1649 C1665 0.959 . S
H1650 C1665 0.959 . S
H1651 C1665 0.961 . S
H1652 C1666 0.960 . S
H1653 C1666 0.961 . S
H1654 C1666 0.959 . S
H1655 C1669 0.929 . S
H1656 C1670 0.931 . S
H1657 C1672 0.930 . S
C1658 H1646 0.930 . S
C1658 C1659 1.399 . S
C1658 C1663 1.399 . S
C1659 C1658 1.399 . S
C1659 C1660 1.376 . S
C1660 H1647 0.930 . S
C1660 C1659 1.376 . S
C1660 C1661 1.388 . S
C1661 H1648 0.930 . S
C1661 C1660 1.388 . S
C1661 C1662 1.390 . S
C1662 C1661 1.390 . S
C1662 C1663 1.394 . S
C1662 C1668 1.465 . S
C1663 C1658 1.399 . S
C1663 C1662 1.394 . S
C1663 C1664 1.516 . S
C1664 C1663 1.516 . S
C1664 C1665 1.502 . S
C1664 C1666 1.561 . S
C1664 C1667 1.526 . S
C1665 H1649 0.959 . S
C1665 H1650 0.959 . S
C1665 H1651 0.961 . S
C1665 C1664 1.502 . S
C1666 H1652 0.960 . S
C1666 H1653 0.961 . S
C1666 H1654 0.959 . S
C1666 C1664 1.561 . S
C1667 C1664 1.526 . S
C1667 C1668 1.396 . S
C1667 C1672 1.390 . S
C1668 C1662 1.465 . S
C1668 C1667 1.396 . S
C1668 C1669 1.399 . S
C1669 H1655 0.929 . S
C1669 C1668 1.399 . S
C1669 C1670 1.385 . S
C1670 H1656 0.931 . S
C1670 C1669 1.385 . S
C1670 C1671 1.389 . S
C1671 C1670 1.389 . S
C1671 C1672 1.387 . S
C1672 H1657 0.930 . S
C1672 C1667 1.390 . S
C1672 C1671 1.387 . S
H1673 C1685 0.930 . S
H1674 C1687 0.930 . S
H1675 C1688 0.930 . S
H1676 C1692 0.959 . S
H1677 C1692 0.959 . S
H1678 C1692 0.961 . S
H1679 C1693 0.960 . S
H1680 C1693 0.961 . S
H1681 C1693 0.959 . S
H1682 C1696 0.929 . S
H1683 C1697 0.931 . S
H1684 C1699 0.930 . S
C1685 H1673 0.930 . S
C1685 C1686 1.399 . S
C1685 C1690 1.399 . S
C1686 C1685 1.399 . S
C1686 C1687 1.376 . S
C1687 H1674 0.930 . S
C1687 C1686 1.376 . S
C1687 C1688 1.388 . S
C1688 H1675 0.930 . S
C1688 C1687 1.388 . S
C1688 C1689 1.390 . S
C1689 C1688 1.390 . S
C1689 C1690 1.394 . S
C1689 C1695 1.465 . S
C1690 C1685 1.399 . S
C1690 C1689 1.394 . S
C1690 C1691 1.516 . S
C1691 C1690 1.516 . S
C1691 C1692 1.502 . S
C1691 C1693 1.561 . S
C1691 C1694 1.526 . S
C1692 H1676 0.959 . S
C1692 H1677 0.959 . S
C1692 H1678 0.961 . S
C1692 C1691 1.502 . S
C1693 H1679 0.960 . S
C1693 H1680 0.961 . S
C1693 H1681 0.959 . S
C1693 C1691 1.561 . S
C1694 C1691 1.526 . S
C1694 C1695 1.396 . S
C1694 C1699 1.390 . S
C1695 C1689 1.465 . S
C1695 C1694 1.396 . S
C1695 C1696 1.399 . S
C1696 H1682 0.929 . S
C1696 C1695 1.399 . S
C1696 C1697 1.385 . S
C1697 H1683 0.931 . S
C1697 C1696 1.385 . S
C1697 C1698 1.389 . S
C1698 C1697 1.389 . S
C1698 C1699 1.387 . S
C1699 H1684 0.930 . S
C1699 C1694 1.390 . S
C1699 C1698 1.387 . S
H1700 C1712 0.930 . S
H1701 C1714 0.930 . S
H1702 C1715 0.930 . S
H1703 C1719 0.959 . S
H1704 C1719 0.959 . S
H1705 C1719 0.961 . S
H1706 C1720 0.960 . S
H1707 C1720 0.961 . S
H1708 C1720 0.959 . S
H1709 C1723 0.929 . S
H1710 C1724 0.931 . S
H1711 C1726 0.930 . S
C1712 H1700 0.930 . S
C1712 C1713 1.399 . S
C1712 C1717 1.399 . S
C1713 C1712 1.399 . S
C1713 C1714 1.376 . S
C1714 H1701 0.930 . S
C1714 C1713 1.376 . S
C1714 C1715 1.388 . S
C1715 H1702 0.930 . S
C1715 C1714 1.388 . S
C1715 C1716 1.390 . S
C1716 C1715 1.390 . S
C1716 C1717 1.394 . S
C1716 C1722 1.465 . S
C1717 C1712 1.399 . S
C1717 C1716 1.394 . S
C1717 C1718 1.516 . S
C1718 C1717 1.516 . S
C1718 C1719 1.502 . S
C1718 C1720 1.561 . S
C1718 C1721 1.526 . S
C1719 H1703 0.959 . S
C1719 H1704 0.959 . S
C1719 H1705 0.961 . S
C1719 C1718 1.502 . S
C1720 H1706 0.960 . S
C1720 H1707 0.961 . S
C1720 H1708 0.959 . S
C1720 C1718 1.561 . S
C1721 C1718 1.526 . S
C1721 C1722 1.396 . S
C1721 C1726 1.390 . S
C1722 C1716 1.465 . S
C1722 C1721 1.396 . S
C1722 C1723 1.399 . S
C1723 H1709 0.929 . S
C1723 C1722 1.399 . S
C1723 C1724 1.385 . S
C1724 H1710 0.931 . S
C1724 C1723 1.385 . S
C1724 C1725 1.389 . S
C1725 C1724 1.389 . S
C1725 C1726 1.387 . S
C1726 H1711 0.930 . S
C1726 C1721 1.390 . S
C1726 C1725 1.387 . S
H1727 C1739 0.930 . S
H1728 C1741 0.941 . S
H1729 C1742 0.930 1_565 S
H1730 C1746 0.959 . S
H1731 C1746 0.959 . S
H1732 C1746 0.961 . S
H1733 C1747 0.960 . S
H1734 C1747 0.961 . S
H1735 C1747 0.959 . S
H1736 C1750 0.929 . S
H1737 C1751 0.931 . S
H1738 C1753 0.930 . S
C1739 H1727 0.930 . S
C1739 C1740 1.399 . S
C1739 C1744 1.399 1_655 S
C1740 C1739 1.399 . S
C1740 C1741 1.398 1_545 S
C1741 H1728 0.941 . S
C1741 C1740 1.398 1_565 S
C1741 C1742 1.357 1_665 S
C1742 H1729 0.930 1_545 S
C1742 C1741 1.357 1_445 S
C1742 C1743 1.390 . S
C1743 C1742 1.390 . S
C1743 C1744 1.394 . S
C1743 C1749 1.465 . S
C1744 C1739 1.399 1_455 S
C1744 C1743 1.394 . S
C1744 C1745 1.516 . S
C1745 C1744 1.516 . S
C1745 C1746 1.502 . S
C1745 C1747 1.561 . S
C1745 C1748 1.526 . S
C1746 H1730 0.959 . S
C1746 H1731 0.959 . S
C1746 H1732 0.961 . S
C1746 C1745 1.502 . S
C1747 H1733 0.960 . S
C1747 H1734 0.961 . S
C1747 H1735 0.959 . S
C1747 C1745 1.561 . S
C1748 C1745 1.526 . S
C1748 C1749 1.396 . S
C1748 C1753 1.390 . S
C1749 C1743 1.465 . S
C1749 C1748 1.396 . S
C1749 C1750 1.399 . S
C1750 H1736 0.929 . S
C1750 C1749 1.399 . S
C1750 C1751 1.385 . S
C1751 H1737 0.931 . S
C1751 C1750 1.385 . S
C1751 C1752 1.389 . S
C1752 C1751 1.389 . S
C1752 C1753 1.387 . S
C1753 H1738 0.930 . S
C1753 C1748 1.390 . S
C1753 C1752 1.387 . S
H1754 C1766 0.930 . S
H1755 C1768 0.930 . S
H1756 C1769 0.930 . S
H1757 C1773 0.959 . S
H1758 C1773 0.959 . S
H1759 C1773 0.961 . S
H1760 C1774 0.960 . S
H1761 C1774 0.961 . S
H1762 C1774 0.959 . S
H1763 C1777 0.929 . S
H1764 C1778 0.931 . S
H1765 C1780 0.930 . S
C1766 H1754 0.930 . S
C1766 C1767 1.399 . S
C1766 C1771 1.399 . S
C1767 C1766 1.399 . S
C1767 C1768 1.376 . S
C1768 H1755 0.930 . S
C1768 C1767 1.376 . S
C1768 C1769 1.388 . S
C1769 H1756 0.930 . S
C1769 C1768 1.388 . S
C1769 C1770 1.390 . S
C1770 C1769 1.390 . S
C1770 C1771 1.394 . S
C1770 C1776 1.465 . S
C1771 C1766 1.399 . S
C1771 C1770 1.394 . S
C1771 C1772 1.516 . S
C1772 C1771 1.516 . S
C1772 C1773 1.502 . S
C1772 C1774 1.561 . S
C1772 C1775 1.526 . S
C1773 H1757 0.959 . S
C1773 H1758 0.959 . S
C1773 H1759 0.961 . S
C1773 C1772 1.502 . S
C1774 H1760 0.960 . S
C1774 H1761 0.961 . S
C1774 H1762 0.959 . S
C1774 C1772 1.561 . S
C1775 C1772 1.526 . S
C1775 C1776 1.396 . S
C1775 C1780 1.390 . S
C1776 C1770 1.465 . S
C1776 C1775 1.396 . S
C1776 C1777 1.399 . S
C1777 H1763 0.929 . S
C1777 C1776 1.399 . S
C1777 C1778 1.385 . S
C1778 H1764 0.931 . S
C1778 C1777 1.385 . S
C1778 C1779 1.389 . S
C1779 C1778 1.389 . S
C1779 C1780 1.387 . S
C1780 H1765 0.930 . S
C1780 C1775 1.390 . S
C1780 C1779 1.387 . S
H1781 C1793 0.930 . S
H1782 C1795 0.930 . S
H1783 C1796 0.930 . S
H1784 C1800 0.959 . S
H1785 C1800 0.959 . S
H1786 C1800 0.961 . S
H1787 C1801 0.960 . S
H1788 C1801 0.961 . S
H1789 C1801 0.959 . S
H1790 C1804 0.929 . S
H1791 C1805 0.931 . S
H1792 C1807 0.930 . S
C1793 H1781 0.930 . S
C1793 C1794 1.399 . S
C1793 C1798 1.399 . S
C1794 C1793 1.399 . S
C1794 C1795 1.376 . S
C1795 H1782 0.930 . S
C1795 C1794 1.376 . S
C1795 C1796 1.388 . S
C1796 H1783 0.930 . S
C1796 C1795 1.388 . S
C1796 C1797 1.390 . S
C1797 C1796 1.390 . S
C1797 C1798 1.394 . S
C1797 C1803 1.465 . S
C1798 C1793 1.399 . S
C1798 C1797 1.394 . S
C1798 C1799 1.516 . S
C1799 C1798 1.516 . S
C1799 C1800 1.502 . S
C1799 C1801 1.561 . S
C1799 C1802 1.526 . S
C1800 H1784 0.959 . S
C1800 H1785 0.959 . S
C1800 H1786 0.961 . S
C1800 C1799 1.502 . S
C1801 H1787 0.960 . S
C1801 H1788 0.961 . S
C1801 H1789 0.959 . S
C1801 C1799 1.561 . S
C1802 C1799 1.526 . S
C1802 C1803 1.396 . S
C1802 C1807 1.390 . S
C1803 C1797 1.465 . S
C1803 C1802 1.396 . S
C1803 C1804 1.399 . S
C1804 H1790 0.929 . S
C1804 C1803 1.399 . S
C1804 C1805 1.385 . S
C1805 H1791 0.931 . S
C1805 C1804 1.385 . S
C1805 C1806 1.389 . S
C1806 C1805 1.389 . S
C1806 C1807 1.387 . S
C1807 H1792 0.930 . S
C1807 C1802 1.390 . S
C1807 C1806 1.387 . S
C525 C4 0.774 . S
C537 C413 0.576 . S
C552 C189 0.715 . S
C564 C36 0.617 . S
C579 C68 0.573 . S
C591 C452 0.764 . S
C606 C125 0.751 . S
C618 C253 0.630 . S
C633 C157 0.572 . S
C645 C260 0.770 . S
C660 C349 0.724 . S
C672 C196 0.666 . S
C687 C420 0.603 . S
C699 C292 0.727 . S
C714 C381 0.746 . S
C726 C509 0.589 . S
C741 C290 1.877 . S
C753 C6 1.867 . S
C768 C38 1.861 . S
C780 C326 1.889 . S
C795 C70 1.860 . S
C807 C358 1.867 . S
C822 C258 1.885 . S
C834 C98 1.867 . S
C849 C418 1.875 . S
C861 C130 1.837 . S
C876 C450 1.851 . S
C888 C162 1.818 . S
C903 C198 1.824 . S
C915 C486 1.855 . S
C930 C390 1.852 . S
C942 C226 1.820 . S
C957 C262 1.822 . S
C969 C34 1.877 . S
C984 C294 1.828 1_565 S
C996 C66 1.851 . S
C1011 C322 1.843 . S
C1023 C102 1.855 . S
C1038 C2 1.883 . S
C1050 C354 1.868 . S
C1065 C166 1.888 . S
C1077 C386 1.858 . S
C1092 C422 1.821 1_545 S
C1104 C194 1.864 . S
C1119 C230 1.863 . S
C1131 C454 1.821 . S
C1146 C482 1.814 1_565 S
C1158 C134 1.858 . S
C1173 N18 1.323 . S
C1185 N333 1.290 . S
C1200 N50 1.335 . S
C1212 N365 1.285 . S
C1227 N274 1.334 . S
C1239 N82 1.285 . S
C1254 N109 1.306 . S
C1266 N306 1.301 . S
C1281 N141 1.364 . S
C1293 N466 1.331 . S
C1308 N173 1.359 . S
C1320 N493 1.346 . S
C1335 N397 1.355 . S
C1347 N210 1.302 . S
C1362 N237 1.317 . S
C1374 N434 1.284 . S
C1389 C29 1.045 . S
C1401 N242 1.002 . S
C1416 N402 1.002 . S
C1428 C61 1.067 . S
C1443 C93 1.055 . S
C1455 N178 1.001 . S
C1470 C100 1.032 . S
C1482 N461 1.005 . S
C1497 C132 0.955 . S
C1509 N114 1.066 . S
C1524 N269 1.002 . S
C1536 C164 1.067 . S
C1551 C221 0.963 . S
C1563 N45 1.062 . S
C1578 N338 1.008 . S
C1590 C228 1.054 . S
C1605 C285 0.996 . S
C1617 N498 1.018 . S
C1632 N146 1.064 . S
C1644 C317 0.942 . S
C1659 N429 1.056 . S
C1671 C324 0.946 . S
C1686 C356 0.962 . S
C1698 N205 1.080 . S
C1713 C388 0.946 . S
C1725 N370 1.072 . S
C1740 C445 0.990 . S
C1752 N13 1.045 . S
C1767 N301 1.007 . S
C1779 C477 1.057 . S
C1794 N77 1.001 . S
C1806 C484 1.069 . S
