# Generated by pormake.
# Topology unx, (4)-cn, num edge types: 1
# Building blocks:
#     Node 0, Type 0, BuildingBlock: GALJAG_clean_sbu_0, # of connection points: 4
#     Node 1, Type 0, BuildingBlock: GALJAG_clean_sbu_0, # of connection points: 4
#     Node 2, Type 0, BuildingBlock: GALJAG_clean_sbu_0, # of connection points: 4
#     Node 3, Type 0, BuildingBlock: GALJAG_clean_sbu_0, # of connection points: 4
#     Node 4, Type 0, BuildingBlock: GALJAG_clean_sbu_0, # of connection points: 4
#     Node 5, Type 0, BuildingBlock: GALJAG_clean_sbu_0, # of connection points: 4
#     Node 6, Type 0, BuildingBlock: GALJAG_clean_sbu_0, # of connection points: 4
#     Node 7, Type 0, BuildingBlock: GALJAG_clean_sbu_0, # of connection points: 4
#     Node 8, Type 0, BuildingBlock: GALJAG_clean_sbu_0, # of connection points: 4
#     Node 9, Type 0, BuildingBlock: GALJAG_clean_sbu_0, # of connection points: 4
#     Node 10, Type 0, BuildingBlock: GALJAG_clean_sbu_0, # of connection points: 4
#     Node 11, Type 0, BuildingBlock: GALJAG_clean_sbu_0, # of connection points: 4
#     Node 12, Type 0, BuildingBlock: GALJAG_clean_sbu_0, # of connection points: 4
#     Node 13, Type 0, BuildingBlock: GALJAG_clean_sbu_0, # of connection points: 4
#     Node 14, Type 0, BuildingBlock: GALJAG_clean_sbu_0, # of connection points: 4
#     Node 15, Type 0, BuildingBlock: GALJAG_clean_sbu_0, # of connection points: 4
#     Node 16, Type 0, BuildingBlock: GALJAG_clean_sbu_0, # of connection points: 4
#     Node 17, Type 0, BuildingBlock: GALJAG_clean_sbu_0, # of connection points: 4
#     Node 18, Type 0, BuildingBlock: GALJAG_clean_sbu_0, # of connection points: 4
#     Node 19, Type 0, BuildingBlock: GALJAG_clean_sbu_0, # of connection points: 4
#     Node 20, Type 0, BuildingBlock: GALJAG_clean_sbu_0, # of connection points: 4
#     Node 21, Type 0, BuildingBlock: GALJAG_clean_sbu_0, # of connection points: 4
#     Node 22, Type 0, BuildingBlock: GALJAG_clean_sbu_0, # of connection points: 4
#     Node 23, Type 0, BuildingBlock: GALJAG_clean_sbu_0, # of connection points: 4
#     Node 24, Type 0, BuildingBlock: GALJAG_clean_sbu_0, # of connection points: 4
#     Node 25, Type 0, BuildingBlock: GALJAG_clean_sbu_0, # of connection points: 4
#     Node 26, Type 0, BuildingBlock: GALJAG_clean_sbu_0, # of connection points: 4
#     Node 27, Type 0, BuildingBlock: GALJAG_clean_sbu_0, # of connection points: 4
#     Node 28, Type 0, BuildingBlock: GALJAG_clean_sbu_0, # of connection points: 4
#     Node 29, Type 0, BuildingBlock: GALJAG_clean_sbu_0, # of connection points: 4
#     Node 30, Type 0, BuildingBlock: GALJAG_clean_sbu_0, # of connection points: 4
#     Node 31, Type 0, BuildingBlock: GALJAG_clean_sbu_0, # of connection points: 4
#     Node 32, Type 0, BuildingBlock: GALJAG_clean_sbu_0, # of connection points: 4
#     Node 33, Type 0, BuildingBlock: GALJAG_clean_sbu_0, # of connection points: 4
#     Node 34, Type 0, BuildingBlock: GALJAG_clean_sbu_0, # of connection points: 4
#     Node 35, Type 0, BuildingBlock: GALJAG_clean_sbu_0, # of connection points: 4
#     Node 36, Type 0, BuildingBlock: GALJAG_clean_sbu_0, # of connection points: 4
#     Node 37, Type 0, BuildingBlock: GALJAG_clean_sbu_0, # of connection points: 4
#     Node 38, Type 0, BuildingBlock: GALJAG_clean_sbu_0, # of connection points: 4
#     Node 39, Type 0, BuildingBlock: GALJAG_clean_sbu_0, # of connection points: 4
#     Node 40, Type 0, BuildingBlock: GALJAG_clean_sbu_0, # of connection points: 4
#     Node 41, Type 0, BuildingBlock: GALJAG_clean_sbu_0, # of connection points: 4
#     Node 42, Type 0, BuildingBlock: GALJAG_clean_sbu_0, # of connection points: 4
#     Node 43, Type 0, BuildingBlock: GALJAG_clean_sbu_0, # of connection points: 4
#     Node 44, Type 0, BuildingBlock: GALJAG_clean_sbu_0, # of connection points: 4
#     Node 45, Type 0, BuildingBlock: GALJAG_clean_sbu_0, # of connection points: 4
#     Node 46, Type 0, BuildingBlock: GALJAG_clean_sbu_0, # of connection points: 4
#     Node 47, Type 0, BuildingBlock: GALJAG_clean_sbu_0, # of connection points: 4
#     Edge 48, Type (0, 0), BuildingBlock: OJICUG_clean_linker_0, # of connection points: 2
#     Edge 49, Type (0, 0), BuildingBlock: OJICUG_clean_linker_0, # of connection points: 2
#     Edge 50, Type (0, 0), BuildingBlock: OJICUG_clean_linker_0, # of connection points: 2
#     Edge 51, Type (0, 0), BuildingBlock: OJICUG_clean_linker_0, # of connection points: 2
#     Edge 52, Type (0, 0), BuildingBlock: OJICUG_clean_linker_0, # of connection points: 2
#     Edge 53, Type (0, 0), BuildingBlock: OJICUG_clean_linker_0, # of connection points: 2
#     Edge 54, Type (0, 0), BuildingBlock: OJICUG_clean_linker_0, # of connection points: 2
#     Edge 55, Type (0, 0), BuildingBlock: OJICUG_clean_linker_0, # of connection points: 2
#     Edge 56, Type (0, 0), BuildingBlock: OJICUG_clean_linker_0, # of connection points: 2
#     Edge 57, Type (0, 0), BuildingBlock: OJICUG_clean_linker_0, # of connection points: 2
#     Edge 58, Type (0, 0), BuildingBlock: OJICUG_clean_linker_0, # of connection points: 2
#     Edge 59, Type (0, 0), BuildingBlock: OJICUG_clean_linker_0, # of connection points: 2
#     Edge 60, Type (0, 0), BuildingBlock: OJICUG_clean_linker_0, # of connection points: 2
#     Edge 61, Type (0, 0), BuildingBlock: OJICUG_clean_linker_0, # of connection points: 2
#     Edge 62, Type (0, 0), BuildingBlock: OJICUG_clean_linker_0, # of connection points: 2
#     Edge 63, Type (0, 0), BuildingBlock: OJICUG_clean_linker_0, # of connection points: 2
#     Edge 64, Type (0, 0), BuildingBlock: OJICUG_clean_linker_0, # of connection points: 2
#     Edge 65, Type (0, 0), BuildingBlock: OJICUG_clean_linker_0, # of connection points: 2
#     Edge 66, Type (0, 0), BuildingBlock: OJICUG_clean_linker_0, # of connection points: 2
#     Edge 67, Type (0, 0), BuildingBlock: OJICUG_clean_linker_0, # of connection points: 2
#     Edge 68, Type (0, 0), BuildingBlock: OJICUG_clean_linker_0, # of connection points: 2
#     Edge 69, Type (0, 0), BuildingBlock: OJICUG_clean_linker_0, # of connection points: 2
#     Edge 70, Type (0, 0), BuildingBlock: OJICUG_clean_linker_0, # of connection points: 2
#     Edge 71, Type (0, 0), BuildingBlock: OJICUG_clean_linker_0, # of connection points: 2
#     Edge 72, Type (0, 0), BuildingBlock: OJICUG_clean_linker_0, # of connection points: 2
#     Edge 73, Type (0, 0), BuildingBlock: OJICUG_clean_linker_0, # of connection points: 2
#     Edge 74, Type (0, 0), BuildingBlock: OJICUG_clean_linker_0, # of connection points: 2
#     Edge 75, Type (0, 0), BuildingBlock: OJICUG_clean_linker_0, # of connection points: 2
#     Edge 76, Type (0, 0), BuildingBlock: OJICUG_clean_linker_0, # of connection points: 2
#     Edge 77, Type (0, 0), BuildingBlock: OJICUG_clean_linker_0, # of connection points: 2
#     Edge 78, Type (0, 0), BuildingBlock: OJICUG_clean_linker_0, # of connection points: 2
#     Edge 79, Type (0, 0), BuildingBlock: OJICUG_clean_linker_0, # of connection points: 2
#     Edge 80, Type (0, 0), BuildingBlock: OJICUG_clean_linker_0, # of connection points: 2
#     Edge 81, Type (0, 0), BuildingBlock: OJICUG_clean_linker_0, # of connection points: 2
#     Edge 82, Type (0, 0), BuildingBlock: OJICUG_clean_linker_0, # of connection points: 2
#     Edge 83, Type (0, 0), BuildingBlock: OJICUG_clean_linker_0, # of connection points: 2
#     Edge 84, Type (0, 0), BuildingBlock: OJICUG_clean_linker_0, # of connection points: 2
#     Edge 85, Type (0, 0), BuildingBlock: OJICUG_clean_linker_0, # of connection points: 2
#     Edge 86, Type (0, 0), BuildingBlock: OJICUG_clean_linker_0, # of connection points: 2
#     Edge 87, Type (0, 0), BuildingBlock: OJICUG_clean_linker_0, # of connection points: 2
#     Edge 88, Type (0, 0), BuildingBlock: OJICUG_clean_linker_0, # of connection points: 2
#     Edge 89, Type (0, 0), BuildingBlock: OJICUG_clean_linker_0, # of connection points: 2
#     Edge 90, Type (0, 0), BuildingBlock: OJICUG_clean_linker_0, # of connection points: 2
#     Edge 91, Type (0, 0), BuildingBlock: OJICUG_clean_linker_0, # of connection points: 2
#     Edge 92, Type (0, 0), BuildingBlock: OJICUG_clean_linker_0, # of connection points: 2
#     Edge 93, Type (0, 0), BuildingBlock: OJICUG_clean_linker_0, # of connection points: 2
#     Edge 94, Type (0, 0), BuildingBlock: OJICUG_clean_linker_0, # of connection points: 2
#     Edge 95, Type (0, 0), BuildingBlock: OJICUG_clean_linker_0, # of connection points: 2
#     Edge 96, Type (0, 0), BuildingBlock: OJICUG_clean_linker_0, # of connection points: 2
#     Edge 97, Type (0, 0), BuildingBlock: OJICUG_clean_linker_0, # of connection points: 2
#     Edge 98, Type (0, 0), BuildingBlock: OJICUG_clean_linker_0, # of connection points: 2
#     Edge 99, Type (0, 0), BuildingBlock: OJICUG_clean_linker_0, # of connection points: 2
#     Edge 100, Type (0, 0), BuildingBlock: OJICUG_clean_linker_0, # of connection points: 2
#     Edge 101, Type (0, 0), BuildingBlock: OJICUG_clean_linker_0, # of connection points: 2
#     Edge 102, Type (0, 0), BuildingBlock: OJICUG_clean_linker_0, # of connection points: 2
#     Edge 103, Type (0, 0), BuildingBlock: OJICUG_clean_linker_0, # of connection points: 2
#     Edge 104, Type (0, 0), BuildingBlock: OJICUG_clean_linker_0, # of connection points: 2
#     Edge 105, Type (0, 0), BuildingBlock: OJICUG_clean_linker_0, # of connection points: 2
#     Edge 106, Type (0, 0), BuildingBlock: OJICUG_clean_linker_0, # of connection points: 2
#     Edge 107, Type (0, 0), BuildingBlock: OJICUG_clean_linker_0, # of connection points: 2
#     Edge 108, Type (0, 0), BuildingBlock: OJICUG_clean_linker_0, # of connection points: 2
#     Edge 109, Type (0, 0), BuildingBlock: OJICUG_clean_linker_0, # of connection points: 2
#     Edge 110, Type (0, 0), BuildingBlock: OJICUG_clean_linker_0, # of connection points: 2
#     Edge 111, Type (0, 0), BuildingBlock: OJICUG_clean_linker_0, # of connection points: 2
#     Edge 112, Type (0, 0), BuildingBlock: OJICUG_clean_linker_0, # of connection points: 2
#     Edge 113, Type (0, 0), BuildingBlock: OJICUG_clean_linker_0, # of connection points: 2
#     Edge 114, Type (0, 0), BuildingBlock: OJICUG_clean_linker_0, # of connection points: 2
#     Edge 115, Type (0, 0), BuildingBlock: OJICUG_clean_linker_0, # of connection points: 2
#     Edge 116, Type (0, 0), BuildingBlock: OJICUG_clean_linker_0, # of connection points: 2
#     Edge 117, Type (0, 0), BuildingBlock: OJICUG_clean_linker_0, # of connection points: 2
#     Edge 118, Type (0, 0), BuildingBlock: OJICUG_clean_linker_0, # of connection points: 2
#     Edge 119, Type (0, 0), BuildingBlock: OJICUG_clean_linker_0, # of connection points: 2
#     Edge 120, Type (0, 0), BuildingBlock: OJICUG_clean_linker_0, # of connection points: 2
#     Edge 121, Type (0, 0), BuildingBlock: OJICUG_clean_linker_0, # of connection points: 2
#     Edge 122, Type (0, 0), BuildingBlock: OJICUG_clean_linker_0, # of connection points: 2
#     Edge 123, Type (0, 0), BuildingBlock: OJICUG_clean_linker_0, # of connection points: 2
#     Edge 124, Type (0, 0), BuildingBlock: OJICUG_clean_linker_0, # of connection points: 2
#     Edge 125, Type (0, 0), BuildingBlock: OJICUG_clean_linker_0, # of connection points: 2
#     Edge 126, Type (0, 0), BuildingBlock: OJICUG_clean_linker_0, # of connection points: 2
#     Edge 127, Type (0, 0), BuildingBlock: OJICUG_clean_linker_0, # of connection points: 2
#     Edge 128, Type (0, 0), BuildingBlock: OJICUG_clean_linker_0, # of connection points: 2
#     Edge 129, Type (0, 0), BuildingBlock: OJICUG_clean_linker_0, # of connection points: 2
#     Edge 130, Type (0, 0), BuildingBlock: OJICUG_clean_linker_0, # of connection points: 2
#     Edge 131, Type (0, 0), BuildingBlock: OJICUG_clean_linker_0, # of connection points: 2
#     Edge 132, Type (0, 0), BuildingBlock: OJICUG_clean_linker_0, # of connection points: 2
#     Edge 133, Type (0, 0), BuildingBlock: OJICUG_clean_linker_0, # of connection points: 2
#     Edge 134, Type (0, 0), BuildingBlock: OJICUG_clean_linker_0, # of connection points: 2
#     Edge 135, Type (0, 0), BuildingBlock: OJICUG_clean_linker_0, # of connection points: 2
#     Edge 136, Type (0, 0), BuildingBlock: OJICUG_clean_linker_0, # of connection points: 2
#     Edge 137, Type (0, 0), BuildingBlock: OJICUG_clean_linker_0, # of connection points: 2
#     Edge 138, Type (0, 0), BuildingBlock: OJICUG_clean_linker_0, # of connection points: 2
#     Edge 139, Type (0, 0), BuildingBlock: OJICUG_clean_linker_0, # of connection points: 2
#     Edge 140, Type (0, 0), BuildingBlock: OJICUG_clean_linker_0, # of connection points: 2
#     Edge 141, Type (0, 0), BuildingBlock: OJICUG_clean_linker_0, # of connection points: 2
#     Edge 142, Type (0, 0), BuildingBlock: OJICUG_clean_linker_0, # of connection points: 2
#     Edge 143, Type (0, 0), BuildingBlock: OJICUG_clean_linker_0, # of connection points: 2
# Relax obj value: 0.526
# Max RMSD: 0.260
# Mean RMSD: 0.214
data_MOF--net-unx--node1-GALJAG_clean_sbu_0--edge1-OJICUG_clean_linker_0
_symmetry_space_group_name_H-M    P1
_symmetry_Int_Tables_number       1
_symmetry_cell_setting            triclinic
loop_
_symmetry_equiv_pos_as_xyz
'x, y, z'
_cell_length_a     39.534416
_cell_length_b     39.725335
_cell_length_c     39.051832
_cell_angle_alpha  89.92305
_cell_angle_beta   90.080476
_cell_angle_gamma 90.365165
loop_
_atom_site_label
_atom_site_type_symbol
_atom_site_fract_x
_atom_site_fract_y
_atom_site_fract_z
_atom_type_partial_charge
In0 In 0.22467 0.5682 0.2474 0.0
O1 O 0.26771 0.60163 0.26711 0.0
O2 O 0.26597 0.54978 0.28272 0.0
C3 C 0.18361 0.58519 0.19574 0.0
C4 C 0.26279 0.54056 0.19997 0.0
C5 C 0.17652 0.56805 0.29565 0.0
O6 O 0.20214 0.60696 0.21095 0.0
O7 O 0.18509 0.55555 0.20772 0.0
O8 O 0.18973 0.54092 0.28481 0.0
O9 O 0.18894 0.59496 0.28327 0.0
C10 C 0.28233 0.5774 0.28248 0.0
O11 O 0.2421 0.52236 0.21713 0.0
O12 O 0.2635 0.57166 0.20707 0.0
In13 In 0.61317 0.29808 0.47708 0.0
O14 O 0.57002 0.29689 0.43809 0.0
O15 O 0.61942 0.28279 0.42173 0.0
C16 C 0.58789 0.35454 0.50702 0.0
C17 C 0.60987 0.23545 0.50618 0.0
C18 C 0.6733 0.32933 0.46679 0.0
O19 O 0.58331 0.34788 0.47579 0.0
O20 O 0.60142 0.33092 0.52374 0.0
O21 O 0.65973 0.32718 0.4959 0.0
O22 O 0.65842 0.31257 0.44382 0.0
C23 C 0.58881 0.28735 0.41372 0.0
O24 O 0.63695 0.25223 0.50385 0.0
O25 O 0.5841 0.25085 0.49563 0.0
In26 In 0.96138 0.89665 0.62979 0.0
O27 O 0.93809 0.89215 0.68279 0.0
O28 O 0.92804 0.93645 0.65307 0.0
C29 C 0.98832 0.84331 0.60038 0.0
C30 C 0.90361 0.87787 0.60088 0.0
C31 C 0.02126 0.92864 0.63054 0.0
O32 O 0.98231 0.84389 0.63243 0.0
O33 O 0.98152 0.87001 0.584 0.0
O34 O 0.99793 0.93702 0.60973 0.0
O35 O 0.01272 0.90698 0.6529 0.0
C36 C 0.92038 0.91855 0.67895 0.0
O37 O 0.91982 0.90347 0.58941 0.0
O38 O 0.91759 0.86207 0.62518 0.0
In39 In 0.41061 0.05031 0.92867 0.0
O40 O 0.45212 0.08818 0.91333 0.0
O41 O 0.40379 0.0886 0.8878 0.0
C42 C 0.41699 0.99419 0.96633 0.0
C43 C 0.37363 0.09521 0.96231 0.0
C44 C 0.41765 0.01395 0.87264 0.0
O45 O 0.4404 0.01642 0.96585 0.0
O46 O 0.3899 1.00237 0.95107 0.0
O47 O 0.38863 0.02403 0.88226 0.0
O48 O 0.44239 0.02193 0.89176 0.0
C49 C 0.43298 0.10156 0.89071 0.0
O50 O 0.36068 0.07487 0.94076 0.0
O51 O 0.40424 0.08948 0.97026 0.0
In52 In 0.05664 0.40538 0.88588 0.0
O53 O 0.03438 0.3531 0.88099 0.0
O54 O 0.03574 0.3771 0.9305 0.0
C55 C 0.09807 0.42863 0.83745 0.0
C56 C 0.99709 0.43732 0.88656 0.0
C57 C 0.11379 0.38388 0.91373 0.0
O58 O 0.07928 0.40292 0.83261 0.0
O59 O 0.09134 0.44554 0.86417 0.0
O60 O 0.0986 0.40936 0.92633 0.0
O61 O 0.09917 0.36957 0.8888 0.0
C62 C 0.0282 0.35126 0.91298 0.0
O63 O 0.02057 0.44501 0.9076 0.0
O64 O 0.00546 0.4167 0.8633 0.0
In65 In 0.90958 0.46164 0.08489 0.0
O66 O 0.88702 0.48729 0.1312 0.0
O67 O 0.94082 0.4905 0.12231 0.0
C68 C 0.87279 0.41634 0.05082 0.0
C69 C 0.91633 0.5178 0.04724 0.0
C70 C 0.93209 0.41046 0.12253 0.0
O71 O 0.85972 0.4364 0.07237 0.0
O72 O 0.9034 0.42256 0.04309 0.0
O73 O 0.95123 0.42433 0.10013 0.0
O74 O 0.90287 0.42295 0.12544 0.0
C75 C 0.91588 0.4979 0.1412 0.0
O76 O 0.93973 0.49588 0.04807 0.0
O77 O 0.8891 0.50931 0.06219 0.0
In78 In 0.79098 0.06373 0.26102 0.0
O79 O 0.8144 0.10333 0.29615 0.0
O80 O 0.83046 0.05194 0.30103 0.0
C81 C 0.73358 0.07253 0.22554 0.0
C82 C 0.83904 0.06214 0.21271 0.0
C83 C 0.75229 0.03769 0.30929 0.0
O84 O 0.74862 0.09695 0.24043 0.0
O85 O 0.74938 0.04479 0.22602 0.0
O86 O 0.77258 0.01887 0.29268 0.0
O87 O 0.75223 0.06858 0.30124 0.0
C88 C 0.83258 0.08191 0.31201 0.0
O89 O 0.8254 0.03534 0.22437 0.0
O90 O 0.82709 0.0894 0.22434 0.0
In91 In 0.11257 0.20645 0.53343 0.0
O92 O 0.15943 0.17805 0.51533 0.0
O93 O 0.15769 0.19319 0.56723 0.0
C94 C 0.10927 0.26854 0.50333 0.0
C95 C 0.0876 0.1491 0.50426 0.0
C96 C 0.08804 0.21825 0.5964 0.0
O97 O 0.13634 0.25215 0.506 0.0
O98 O 0.08348 0.25295 0.51398 0.0
O99 O 0.06932 0.20784 0.57219 0.0
O100 O 0.11867 0.22303 0.58843 0.0
C101 C 0.17284 0.17651 0.54458 0.0
O102 O 0.08319 0.156 0.53544 0.0
O103 O 0.10079 0.17283 0.4872 0.0
In104 In 0.10519 0.95397 0.42272 0.0
O105 O 0.15483 0.92899 0.4354 0.0
O106 O 0.11097 0.91494 0.46465 0.0
C107 C 0.09903 0.99018 0.36635 0.0
C108 C 0.08225 0.90274 0.38511 0.0
C109 C 0.09913 0.01014 0.46023 0.0
O110 O 0.12783 0.97967 0.37626 0.0
O111 O 0.07409 0.98272 0.38536 0.0
O112 O 0.07549 0.98816 0.4595 0.0
O113 O 0.12622 1.00171 0.44522 0.0
C114 C 0.14158 0.90891 0.45703 0.0
O115 O 0.06323 0.91652 0.40749 0.0
O116 O 0.11161 0.9153 0.38225 0.0
In117 In 0.29277 0.44302 0.7498 0.0
O118 O 0.27377 0.48643 0.71695 0.0
O119 O 0.25429 0.43585 0.70951 0.0
C120 C 0.34075 0.44371 0.79826 0.0
C121 C 0.23531 0.43566 0.78534 0.0
C122 C 0.33459 0.42593 0.69906 0.0
O123 O 0.32786 0.47078 0.78668 0.0
O124 O 0.3281 0.41665 0.78646 0.0
O125 O 0.31652 0.40409 0.71475 0.0
O126 O 0.3323 0.45586 0.71012 0.0
C127 C 0.25387 0.46658 0.70069 0.0
O128 O 0.24982 0.41074 0.77114 0.0
O129 O 0.25165 0.46329 0.78418 0.0
In130 In 0.90304 0.71375 0.97458 0.0
O131 O 0.94541 0.71528 0.93486 0.0
O132 O 0.89549 0.72832 0.91908 0.0
C133 C 0.92897 0.65692 1.0035 0.0
C134 C 0.90656 0.77626 1.00383 0.0
C135 C 0.8426 0.68261 0.96636 0.0
O136 O 0.93242 0.66373 0.97216 0.0
O137 O 0.91633 0.68059 0.02077 0.0
O138 O 0.85713 0.68486 0.99502 0.0
O139 O 0.85669 0.69931 0.94282 0.0
C140 C 0.92601 0.72407 0.91062 0.0
O141 O 0.87955 0.75936 1.00179 0.0
O142 O 0.93223 0.76112 0.99274 0.0
In143 In 0.55505 0.10474 0.1251 0.0
O144 O 0.5781 0.10697 0.17832 0.0
O145 O 0.58927 0.06444 0.14653 0.0
C146 C 0.52723 0.1588 0.09784 0.0
C147 C 0.61241 0.12633 0.09742 0.0
C148 C 0.49525 0.07256 0.12459 0.0
O149 O 0.53339 0.157 0.12985 0.0
O150 O 0.53443 0.13292 0.08039 0.0
O151 O 0.51853 0.06502 0.10345 0.0
O152 O 0.50389 0.09324 0.14782 0.0
C153 C 0.59642 0.0812 0.17331 0.0
O154 O 0.59686 0.1009 0.08469 0.0
O155 O 0.59801 0.14056 0.12239 0.0
In156 In 0.54492 0.33436 0.98439 0.0
O157 O 0.60174 0.34418 0.97901 0.0
O158 O 0.58336 0.29503 0.96766 0.0
C159 C 0.53155 0.37835 0.03597 0.0
C160 C 0.52127 0.34725 0.92027 0.0
C161 C 0.52731 0.28002 0.02138 0.0
O162 O 0.56014 0.376 0.02183 0.0
O163 O 0.50839 0.36247 0.02047 0.0
O164 O 0.5155 0.28485 0.99168 0.0
O165 O 0.54837 0.30176 0.03138 0.0
C166 C 0.6086 0.31453 0.96967 0.0
O167 O 0.50383 0.33231 0.94275 0.0
O168 O 0.54892 0.35896 0.93129 0.0
In169 In 0.02252 0.7598 0.2373 0.0
O170 O 0.98719 0.7251 0.26764 0.0
O171 O 0.0409 0.71823 0.27183 0.0
C172 C 0.00751 0.81608 0.20398 0.0
C173 C 0.0428 0.79989 0.28812 0.0
C174 C 0.03343 0.72784 0.17801 0.0
O175 O 0.98448 0.79937 0.21957 0.0
O176 O 0.03692 0.80365 0.20489 0.0
O177 O 0.0575 0.73947 0.19627 0.0
O178 O 1.0041 0.73027 0.19102 0.0
C179 C 0.01162 0.70981 0.28215 0.0
O180 O 0.06397 0.78487 0.26888 0.0
O181 O 0.01187 0.79405 0.28167 0.0
In182 In 0.42349 0.37627 0.5092 0.0
O183 O 0.37212 0.36087 0.48863 0.0
O184 O 0.38553 0.41347 0.48997 0.0
C185 C 0.45713 0.3317 0.54715 0.0
C186 C 0.45583 0.38368 0.44867 0.0
C187 C 0.39953 0.39646 0.56976 0.0
O188 O 0.43163 0.32333 0.52907 0.0
O189 O 0.46845 0.36123 0.54176 0.0
O190 O 0.42115 0.4146 0.55362 0.0
O191 O 0.39008 0.36994 0.55453 0.0
C192 C 0.36332 0.39122 0.48336 0.0
O193 O 0.45923 0.40523 0.47263 0.0
O194 O 0.43845 0.35787 0.45656 0.0
In195 In 0.97117 0.62229 0.74906 0.0
O196 O 0.94676 0.57003 0.7524 0.0
O197 O 0.915 0.61324 0.75247 0.0
C198 C 0.00995 0.6081 0.80511 0.0
C199 C 0.98363 0.62105 0.6801 0.0
C200 C 0.95864 0.68257 0.77763 0.0
O201 O 0.98195 0.59374 0.79931 0.0
O202 O 0.02036 0.6263 0.7806 0.0
O203 O 0.98793 0.67415 0.76823 0.0
O204 O 0.93554 0.66244 0.76856 0.0
C205 C 0.91697 0.58157 0.75385 0.0
O206 O 0.96178 0.63921 0.69419 0.0
O207 O 1.00155 0.60444 0.7009 0.0
In208 In 0.09356 0.63056 1.00493 0.0
O209 O 0.09711 0.59328 0.05006 0.0
O210 O 0.12734 0.6386 0.04978 0.0
C211 C 0.06105 0.6236 0.94444 0.0
C212 C 0.05874 0.67378 0.04302 0.0
C213 C 0.15349 0.61449 0.9796 0.0
O214 O 0.05781 0.60186 0.9683 0.0
O215 O 0.07854 0.64936 0.95236 0.0
O216 O 0.14505 0.64505 0.98422 0.0
O217 O 0.13097 0.59259 0.98642 0.0
C218 C 0.11856 0.61214 0.06563 0.0
O219 O 0.08394 0.68308 0.02497 0.0
O220 O 0.0483 0.64395 0.03754 0.0
In221 In 0.47162 0.88405 0.26234 0.0
O222 O 0.44732 0.93608 0.25866 0.0
O223 O 0.41547 0.89254 0.2587 0.0
C224 C 0.51035 0.89809 0.20615 0.0
C225 C 0.48435 0.88555 0.33131 0.0
C226 C 0.45891 0.82358 0.23396 0.0
O227 O 0.48246 0.91232 0.21185 0.0
O228 O 0.52072 0.88018 0.23083 0.0
O229 O 0.4882 0.83228 0.24348 0.0
O230 O 0.43586 0.84346 0.243 0.0
C231 C 0.41751 0.92422 0.25714 0.0
O232 O 0.46223 0.86734 0.3173 0.0
O233 O 0.50233 0.90219 0.31044 0.0
In234 In 0.49115 0.24374 0.74136 0.0
O235 O 0.52924 0.20414 0.72415 0.0
O236 O 0.4768 0.19962 0.70935 0.0
C237 C 0.5009 0.29415 0.78584 0.0
C238 C 0.48097 0.27563 0.68179 0.0
C239 C 0.47137 0.20389 0.79257 0.0
O240 O 0.52569 0.27907 0.77182 0.0
O241 O 0.47182 0.28526 0.77524 0.0
O242 O 0.45001 0.21844 0.77304 0.0
O243 O 0.50224 0.21007 0.78618 0.0
C244 C 0.50625 0.18725 0.70867 0.0
O245 O 0.45666 0.26395 0.69969 0.0
O246 O 0.51014 0.27315 0.69525 0.0
In247 In 0.54153 0.38621 0.2517 0.0
O248 O 0.53244 0.41435 0.30246 0.0
O249 O 0.49286 0.38304 0.28404 0.0
C250 C 0.59609 0.42662 0.25479 0.0
C251 C 0.554 0.32593 0.28035 0.0
C252 C 0.52745 0.38702 0.18305 0.0
O253 O 0.56635 0.43835 0.25385 0.0
O254 O 0.59782 0.39493 0.2538 0.0
O255 O 0.5493 0.3686 0.19689 0.0
O256 O 0.51038 0.40422 0.204 0.0
C257 C 0.50422 0.4006 0.30859 0.0
O258 O 0.52464 0.33459 0.27134 0.0
O259 O 0.57713 0.34577 0.27071 0.0
In260 In 0.22279 0.99648 0.63022 0.0
O261 O 0.21955 0.02824 0.58157 0.0
O262 O 0.23323 0.05268 0.62818 0.0
C263 C 0.16243 0.96689 0.61394 0.0
C264 C 0.2849 0.96678 0.62457 0.0
C265 C 0.20126 0.01382 0.69321 0.0
O266 O 0.17037 0.99627 0.60471 0.0
O267 O 0.18633 0.95097 0.62797 0.0
O268 O 0.19625 0.98501 0.68068 0.0
O269 O 0.22008 0.03268 0.67535 0.0
C270 C 0.22688 0.05557 0.59659 0.0
O271 O 0.26973 0.97044 0.65261 0.0
O272 O 0.26811 0.97632 0.59894 0.0
In273 In 0.8469 0.97144 1.00427 0.0
O274 O 0.88919 0.93422 0.99094 0.0
O275 O 0.86921 0.93215 0.04107 0.0
C276 C 0.82604 0.98375 0.93977 0.0
C277 C 0.7881 0.94365 0.02509 0.0
C278 C 0.86742 0.03468 0.02151 0.0
O279 O 0.85356 0.96913 0.94641 0.0
O280 O 0.80893 0.99182 0.96565 0.0
O281 O 0.85064 0.01617 0.04167 0.0
O282 O 0.87727 0.01979 0.99493 0.0
C283 C 0.88794 0.91854 0.019 0.0
O284 O 0.79893 0.97119 0.03725 0.0
O285 O 0.80667 0.93072 1.00249 0.0
In286 In 0.9819 0.5291 0.34028 0.0
O287 O 0.94451 0.5265 0.38554 0.0
O288 O 0.94171 0.56855 0.35249 0.0
C289 C 0.99829 0.46316 0.33713 0.0
C290 C 0.95435 0.53091 0.27729 0.0
C291 C 0.04357 0.55745 0.35186 0.0
O292 O 0.98148 0.47526 0.36171 0.0
O293 O 0.00668 0.48424 0.31448 0.0
O294 O 0.02145 0.57105 0.33323 0.0
O295 O 0.03302 0.53199 0.36803 0.0
C296 C 0.92829 0.55241 0.37678 0.0
O297 O 0.98079 0.54726 0.28488 0.0
O298 O 0.94203 0.51366 0.30138 0.0
In299 In 0.22906 0.71854 0.49013 0.0
O300 O 0.21167 0.76046 0.45488 0.0
O301 O 0.19055 0.75835 0.50529 0.0
C302 C 0.27919 0.68321 0.46191 0.0
C303 C 0.27473 0.75302 0.52674 0.0
C304 C 0.18465 0.66682 0.48996 0.0
O305 O 0.26169 0.70387 0.44456 0.0
O306 O 0.27078 0.6802 0.49296 0.0
O307 O 0.19524 0.6799 0.51774 0.0
O308 O 0.19463 0.6815 0.46302 0.0
C309 C 0.19325 0.77437 0.4773 0.0
O310 O 0.25818 0.7289 0.54039 0.0
O311 O 0.26746 0.75934 0.49597 0.0
In312 In 0.03277 0.02141 0.1673 0.0
O313 O 0.9939 0.06346 0.17438 0.0
O314 O 0.98155 0.02443 0.13976 0.0
C315 C 0.06034 0.02291 0.23028 0.0
C316 C 0.01523 0.95556 0.17023 0.0
C317 C 0.08685 0.04492 0.13111 0.0
O318 O 0.03408 0.03925 0.22274 0.0
O319 O 0.07244 0.00576 0.20616 0.0
O320 O 0.07061 0.01881 0.12242 0.0
O321 O 0.07325 0.0611 0.1551 0.0
C322 C 0.97148 0.04993 0.15589 0.0
O323 O 0.03187 0.9678 0.14546 0.0
O324 O 0.00763 0.97646 0.19319 0.0
In325 In 0.72882 0.78629 0.52036 0.0
O326 O 0.69511 0.82462 0.49261 0.0
O327 O 0.69458 0.82311 0.54731 0.0
C328 C 0.77407 0.75218 0.48346 0.0
C329 C 0.77917 0.82162 0.54914 0.0
C330 C 0.69297 0.73013 0.53351 0.0
O331 O 0.75777 0.77639 0.47001 0.0
O332 O 0.76678 0.74562 0.51416 0.0
O333 O 0.71155 0.74433 0.5558 0.0
O334 O 0.69009 0.74601 0.50547 0.0
C335 C 0.6846 0.83765 0.52034 0.0
O336 O 0.76134 0.80087 0.56623 0.0
O337 O 0.77098 0.82474 0.51803 0.0
In338 In 0.79421 0.49836 0.88892 0.0
O339 O 0.8195 0.48517 0.83839 0.0
O340 O 0.79531 0.53252 0.84204 0.0
C341 C 0.73232 0.46767 0.89636 0.0
C342 C 0.85557 0.47158 0.90549 0.0
C343 C 0.78962 0.55859 0.92 0.0
O344 O 0.74751 0.47015 0.86817 0.0
O345 O 0.7491 0.47876 0.92142 0.0
O346 O 0.79703 0.53199 0.93621 0.0
O347 O 0.7835 0.55439 0.88852 0.0
C348 C 0.81371 0.51321 0.82454 0.0
O349 O 0.84728 0.50119 0.91303 0.0
O350 O 0.83162 0.45415 0.89314 0.0
In351 In 0.34762 0.53946 0.00678 0.0
O352 O 0.35393 0.54336 0.06463 0.0
O353 O 0.30999 0.51857 0.04559 0.0
C354 C 0.38885 0.59249 0.99134 0.0
C355 C 0.36817 0.47635 0.99022 0.0
C356 C 0.28864 0.56614 0.98576 0.0
O357 O 0.39039 0.57693 0.01946 0.0
O358 O 0.36967 0.5787 0.96957 0.0
O359 O 0.29944 0.53859 0.97396 0.0
O360 O 0.30738 0.5797 0.00802 0.0
C361 C 0.32672 0.52792 0.0714 0.0
O362 O 0.35163 0.49456 0.96971 0.0
O363 O 0.37775 0.49149 0.01686 0.0
In364 In 0.28555 0.2859 0.99116 0.0
O365 O 0.25548 0.27496 0.04055 0.0
O366 O 0.24622 0.24584 0.9952 0.0
C367 C 0.33042 0.33711 0.99084 0.0
C368 C 0.3213 0.2298 0.97992 0.0
C369 C 0.23618 0.32264 0.96334 0.0
O370 O 0.31955 0.32433 0.01868 0.0
O371 O 0.3205 0.32231 0.96393 0.0
O372 O 0.25315 0.3018 0.94572 0.0
O373 O 0.24476 0.32507 0.99443 0.0
C374 C 0.23862 0.25156 0.026 0.0
O375 O 0.30347 0.2436 0.95682 0.0
O376 O 0.32341 0.24603 0.00781 0.0
In377 In 0.29277 0.00791 0.12363 0.0
O378 O 0.24602 0.03486 0.1451 0.0
O379 O 0.24735 0.02724 0.0917 0.0
C380 C 0.31352 0.9921 0.18741 0.0
C381 C 0.28828 0.94811 0.0916 0.0
C382 C 0.35361 0.0363 0.10683 0.0
O383 O 0.31897 0.0205 0.17405 0.0
O384 O 0.29482 0.97287 0.16983 0.0
O385 O 0.34534 0.00676 0.09853 0.0
O386 O 0.32982 0.0529 0.12013 0.0
C387 C 0.23066 0.03756 0.117 0.0
O388 O 0.29563 0.97506 0.07584 0.0
O389 O 0.28214 0.95173 0.12313 0.0
In390 In 0.66792 0.03979 0.50294 0.0
O391 O 0.6256 0.07743 0.49067 0.0
O392 O 0.64662 0.07872 0.54047 0.0
C393 C 0.68831 0.02762 0.43836 0.0
C394 C 0.72714 0.06719 0.52296 0.0
C395 C 0.64727 0.97662 0.52022 0.0
O396 O 0.6613 0.04313 0.44505 0.0
O397 O 0.70505 0.01856 0.46422 0.0
O398 O 0.66435 0.99498 0.54027 0.0
O399 O 0.63717 0.99163 0.49373 0.0
C400 C 0.62757 0.09276 0.51888 0.0
O401 O 0.71627 0.03978 0.53543 0.0
O402 O 0.70838 0.0802 0.5005 0.0
In403 In 0.53506 0.48221 0.84502 0.0
O404 O 0.53667 0.46368 0.78984 0.0
O405 O 0.57479 0.49807 0.80619 0.0
C406 C 0.47325 0.454 0.85612 0.0
C407 C 0.58863 0.45898 0.8819 0.0
C408 C 0.51818 0.54799 0.84153 0.0
O409 O 0.49543 0.44038 0.83767 0.0
O410 O 0.48382 0.47933 0.87243 0.0
O411 O 0.53488 0.53602 0.86634 0.0
O412 O 0.51022 0.52687 0.8188 0.0
C413 C 0.56284 0.48043 0.78221 0.0
O414 O 0.57262 0.48511 0.89024 0.0
O415 O 0.57503 0.44264 0.85786 0.0
In416 In 0.52459 0.74394 0.77393 0.0
O417 O 0.55925 0.76503 0.81518 0.0
O418 O 0.50574 0.77309 0.82007 0.0
C419 C 0.54441 0.70393 0.72317 0.0
C420 C 0.51028 0.68738 0.8073 0.0
C421 C 0.51377 0.79375 0.72896 0.0
O422 O 0.56576 0.71925 0.74225 0.0
O423 O 0.51353 0.70948 0.7297 0.0
O424 O 0.48933 0.77819 0.74344 0.0
O425 O 0.54306 0.78566 0.73935 0.0
C426 C 0.535 0.77616 0.83328 0.0
O427 O 0.48701 0.70363 0.79182 0.0
O428 O 0.5396 0.70041 0.80628 0.0
In429 In 0.04358 0.17593 0.02666 0.0
O430 O 1.00245 0.17825 0.06814 0.0
O431 O 0.04734 0.15201 0.0801 0.0
C432 C 0.02663 0.23011 0.98944 0.0
C433 C 0.10756 0.19575 0.04134 0.0
C434 C 0.02974 0.13165 0.97524 0.0
O435 O 0.01471 0.22534 0.0191 0.0
O436 O 0.04749 0.2084 0.9796 0.0
O437 O 0.0583 0.13403 0.98956 0.0
O438 O 0.00676 0.14764 0.99052 0.0
C439 C 0.01978 0.16372 0.09088 0.0
O440 O 0.10025 0.16604 0.03224 0.0
O441 O 0.08262 0.21532 0.04311 0.0
In442 In 0.92251 0.13267 0.50169 0.0
O443 O 0.91991 0.09452 0.45713 0.0
O444 O 0.8889 0.13883 0.45643 0.0
C445 C 0.95486 0.12539 0.56229 0.0
C446 C 0.95615 0.17772 0.46389 0.0
C447 C 0.86245 0.11665 0.52734 0.0
O448 O 0.95833 0.10405 0.5382 0.0
O449 O 0.93742 0.15099 0.55451 0.0
O450 O 0.87112 0.14717 0.52222 0.0
O451 O 0.88474 0.09478 0.5207 0.0
C452 C 0.89822 0.11244 0.4411 0.0
O453 O 0.93073 0.18577 0.48202 0.0
O454 O 0.96741 0.14829 0.46916 0.0
In455 In 0.04029 0.12288 0.75958 0.0
O456 O 0.02356 0.17422 0.73959 0.0
O457 O 0.07603 0.1636 0.74058 0.0
C458 C 0.02593 0.12225 0.82815 0.0
C459 C 1.00302 0.10815 0.70251 0.0
C460 C 0.0948 0.08303 0.757 0.0
O461 O 0.04778 0.14096 0.81436 0.0
O462 O 0.00905 0.10462 0.80718 0.0
O463 O 0.06503 0.07098 0.75777 0.0
O464 O 0.09658 0.11474 0.75789 0.0
C465 C 0.05295 0.18308 0.73059 0.0
O466 O 0.03126 0.09477 0.70869 0.0
O467 O 0.99161 0.12542 0.7271 0.0
In468 In 0.46768 0.83303 0.53011 0.0
O469 O 0.49769 0.78431 0.52226 0.0
O470 O 0.46474 0.80115 0.48271 0.0
C471 C 0.49146 0.84588 0.59427 0.0
C472 C 0.48032 0.87763 0.47863 0.0
C473 C 0.40423 0.81145 0.54459 0.0
O474 O 0.50894 0.83151 0.57162 0.0
O475 O 0.46364 0.85702 0.58344 0.0
O476 O 0.4108 0.84143 0.53581 0.0
O477 O 0.42967 0.79248 0.54623 0.0
C478 C 0.48608 0.7798 0.49241 0.0
O479 O 0.45181 0.87447 0.49284 0.0
O480 O 0.50375 0.86241 0.49414 0.0
In481 In 0.59378 0.87473 0.00668 0.0
O482 O 0.55783 0.9031 0.04291 0.0
O483 O 0.57874 0.85609 0.05937 0.0
C484 C 0.61913 0.89314 0.94612 0.0
C485 C 0.65355 0.89219 0.03212 0.0
C486 C 0.55927 0.83087 0.96844 0.0
O487 O 0.5975 0.91173 0.96135 0.0
O488 O 0.6279 0.8669 0.96221 0.0
O489 O 0.58435 0.82198 0.98679 0.0
O490 O 0.54874 0.86056 0.97372 0.0
C491 C 0.56114 0.88163 0.06698 0.0
O492 O 0.64533 0.86142 0.02773 0.0
O493 O 0.63086 0.91359 0.02506 0.0
In494 In 0.72261 0.51193 0.38478 0.0
O495 O 0.69656 0.52422 0.33429 0.0
O496 O 0.72046 0.47678 0.33875 0.0
C497 C 0.7847 0.54245 0.3912 0.0
C498 C 0.66189 0.53996 0.40117 0.0
C499 C 0.72676 0.45222 0.4172 0.0
O500 O 0.7694 0.53928 0.3631 0.0
O501 O 0.76802 0.53201 0.41659 0.0
O502 O 0.71959 0.47918 0.4328 0.0
O503 O 0.73295 0.45581 0.38565 0.0
C504 C 0.70182 0.49582 0.3211 0.0
O505 O 0.66989 0.51045 0.40953 0.0
O506 O 0.68588 0.55674 0.38802 0.0
In507 In 0.16832 0.46436 0.50675 0.0
O508 O 0.16438 0.50926 0.46962 0.0
O509 O 0.13782 0.51216 0.51646 0.0
C510 C 0.22763 0.43802 0.48668 0.0
C511 C 0.1889 0.47581 0.57152 0.0
C512 C 0.12771 0.41121 0.49031 0.0
O513 O 0.21678 0.46545 0.47455 0.0
O514 O 0.20877 0.4244 0.50877 0.0
O515 O 0.1255 0.4266 0.51845 0.0
O516 O 0.14718 0.42526 0.469 0.0
C517 C 0.14757 0.52736 0.4899 0.0
O518 O 0.16215 0.45961 0.5646 0.0
O519 O 0.20524 0.48602 0.5458 0.0
In520 In 0.4831 0.98141 0.67365 0.0
O521 O 0.48311 0.03495 0.65148 0.0
O522 O 0.50851 0.02667 0.69874 0.0
C523 C 0.42865 0.95772 0.63816 0.0
C524 C 0.54398 0.95243 0.66158 0.0
C525 C 0.45634 0.98028 0.73692 0.0
O526 O 0.44509 0.98349 0.62881 0.0
O527 O 0.44222 0.94189 0.6625 0.0
O528 O 0.48293 0.96447 0.72947 0.0
O529 O 0.44353 0.9967 0.71256 0.0
C530 C 0.50014 0.04744 0.67586 0.0
O531 O 0.52174 0.93908 0.68041 0.0
O532 O 0.5339 0.97805 0.64556 0.0
In533 In 0.78531 0.22451 0.02067 0.0
O534 O 0.75273 0.20846 0.06595 0.0
O535 O 0.74412 0.18523 0.01718 0.0
C536 C 0.82112 0.28093 0.03247 0.0
C537 C 0.82989 0.17358 0.02113 0.0
C538 C 0.73883 0.25865 0.98544 0.0
O539 O 0.80318 0.26681 0.05536 0.0
O540 O 0.82337 0.26484 1.00453 0.0
O541 O 0.75556 0.23532 0.97102 0.0
O542 O 0.7463 0.26437 0.0163 0.0
C543 C 0.73555 0.18761 0.04824 0.0
O544 O 0.81921 0.18638 0.99326 0.0
O545 O 0.81993 0.18822 0.04801 0.0
In546 In 0.98983 0.26708 0.27017 0.0
O547 O 0.02772 0.30718 0.28788 0.0
O548 O 0.97522 0.31073 0.30242 0.0
C549 C 0.99949 0.21718 0.22524 0.0
C550 C 0.97978 0.23465 0.32951 0.0
C551 C 0.97024 0.30719 0.2193 0.0
O552 O 0.02431 0.23239 0.23949 0.0
O553 O 0.97042 0.22568 0.23582 0.0
O554 O 0.94881 0.29218 0.23854 0.0
O555 O 1.0011 0.30131 0.22577 0.0
C556 C 1.00462 0.32359 0.30333 0.0
O557 O 0.95544 0.24605 0.31162 0.0
O558 O 0.00895 0.23766 0.31613 0.0
In559 In 0.96583 0.67223 0.48116 0.0
O560 O 0.99646 0.72091 0.48956 0.0
O561 O 0.96275 0.70403 0.52855 0.0
C562 C 0.98947 0.65889 0.41723 0.0
C563 C 0.97834 0.6279 0.53276 0.0
C564 C 0.90277 0.69381 0.46606 0.0
O565 O 0.00687 0.67404 0.43961 0.0
O566 O 0.96176 0.64734 0.42823 0.0
O567 O 0.90886 0.66388 0.47514 0.0
O568 O 0.92849 0.71271 0.46442 0.0
C569 C 0.98455 0.72535 0.51926 0.0
O570 O 0.94973 0.63097 0.51871 0.0
O571 O 1.00183 0.64303 0.51703 0.0
In572 In 0.7255 0.9389 0.7647 0.0
O573 O 0.69119 0.96657 0.72718 0.0
O574 O 0.68891 0.91261 0.72882 0.0
C575 C 0.76318 0.96958 0.81112 0.0
C576 C 0.68481 0.92092 0.81652 0.0
C577 C 0.78308 0.92815 0.73013 0.0
O578 O 0.74197 0.9864 0.79345 0.0
O579 O 0.76463 0.93836 0.80501 0.0
O580 O 0.76802 0.90453 0.74626 0.0
O581 O 0.7672 0.9558 0.72894 0.0
C582 C 0.67718 0.93965 0.71639 0.0
O583 O 0.70352 0.89958 0.80133 0.0
O584 O 0.686 0.95053 0.8045 0.0
In585 In 0.40387 0.7968 0.03606 0.0
O586 O 0.43242 0.84757 0.03999 0.0
O587 O 0.41767 0.83103 0.99072 0.0
C588 C 0.42653 0.78527 0.09992 0.0
C589 C 0.34299 0.82623 0.04408 0.0
C590 C 0.40788 0.73484 1.00588 0.0
O591 O 0.44606 0.79485 0.07606 0.0
O592 O 0.39602 0.78098 0.09116 0.0
O593 O 0.3808 0.75127 0.00788 0.0
O594 O 0.43343 0.75028 0.01737 0.0
C595 C 0.42959 0.85476 0.00868 0.0
O596 O 0.3577 0.82468 0.01551 0.0
O597 O 0.35724 0.80975 0.06759 0.0
In598 In 0.46094 0.6075 0.3834 0.0
O599 O 0.48247 0.66023 0.38044 0.0
O600 O 0.48119 0.63453 0.42911 0.0
C601 C 0.41984 0.58544 0.33407 0.0
C602 C 0.52066 0.57591 0.38324 0.0
C603 C 0.40327 0.62659 0.41171 0.0
O604 O 0.43807 0.6117 0.33021 0.0
O605 O 0.42705 0.56763 0.3601 0.0
O606 O 0.41903 0.60102 0.42347 0.0
O607 O 0.41765 0.64222 0.38745 0.0
C608 C 0.48839 0.66108 0.41253 0.0
O609 O 0.49721 0.56744 0.40395 0.0
O610 O 0.51226 0.59733 0.36067 0.0
In611 In 0.60574 0.54958 0.58941 0.0
O612 O 0.57562 0.51499 0.55292 0.0
O613 O 0.62652 0.50211 0.56674 0.0
C614 C 0.58304 0.6007 0.62688 0.0
C615 C 0.60042 0.51339 0.64593 0.0
C616 C 0.64176 0.59494 0.5546 0.0
O617 O 0.56384 0.58651 0.60472 0.0
O618 O 0.61244 0.58857 0.62963 0.0
O619 O 0.65524 0.57515 0.57624 0.0
O620 O 0.61108 0.58848 0.54726 0.0
C621 C 0.59927 0.49334 0.55195 0.0
O622 O 0.62905 0.52438 0.63574 0.0
O623 O 0.57523 0.52038 0.62713 0.0
C624 C 0.33043 0.54033 0.13371 0.0
C625 C 0.31376 0.52414 0.10657 0.0
H626 H 0.32705 0.55757 0.18542 0.0
C627 C 0.28291 0.50736 0.11284 0.0
H628 H 0.35436 0.55318 0.12973 0.0
C629 C 0.26756 0.50934 0.14505 0.0
C630 C 0.28282 0.5284 0.17105 0.0
H631 H 0.26967 0.49443 0.09236 0.0
H632 H 0.24255 0.49859 0.14862 0.0
C633 C 0.31494 0.54265 0.16562 0.0
C634 C 0.71023 0.35906 0.42463 0.0
C635 C 0.69712 0.35681 0.45796 0.0
H636 H 0.73058 0.39118 0.38569 0.0
C637 C 0.70032 0.38474 0.47987 0.0
H638 H 0.70817 0.33794 0.40721 0.0
C639 C 0.71268 0.41546 0.46738 0.0
C640 C 0.72242 0.41859 0.43294 0.0
H641 H 0.69034 0.38385 0.50569 0.0
H642 H 0.71229 0.43727 0.484 0.0
C643 C 0.72293 0.38965 0.41227 0.0
C644 C 0.85079 0.84464 0.60858 0.0
C645 C 0.8703 0.86657 0.58814 0.0
H646 H 0.80655 0.81365 0.61249 0.0
C647 C 0.85821 0.87583 0.55575 0.0
H648 H 0.85924 0.83741 0.63395 0.0
C649 C 0.82789 0.86199 0.54339 0.0
C650 C 0.8091 0.83902 0.56343 0.0
H651 H 0.8727 0.89275 0.53958 0.0
H652 H 0.81959 0.86863 0.51783 0.0
C653 C 0.82049 0.83111 0.59642 0.0
C654 C 0.41161 0.99733 0.77824 0.0
C655 C 0.44324 0.98259 0.77204 0.0
H656 H 0.37814 0.01814 0.81564 0.0
C657 C 0.46369 0.97332 0.79982 0.0
H658 H 0.39524 0.0044 0.7572 0.0
C659 C 0.45405 0.98143 0.83311 0.0
C660 C 0.42359 0.99843 0.83911 0.0
H661 H 0.4881 0.96174 0.79574 0.0
H662 H 0.47124 0.97596 0.85399 0.0
C663 C 0.40172 0.00497 0.81163 0.0
C664 C 0.19466 0.33408 0.91669 0.0
C665 C 0.20678 0.34107 0.94964 0.0
H666 H 0.15586 0.34231 0.87968 0.0
C667 C 0.18923 0.36426 0.97023 0.0
H668 H 0.20764 0.31646 0.90021 0.0
C669 C 0.15943 0.37929 0.95842 0.0
C670 C 0.14661 0.37105 0.92601 0.0
H671 H 0.1981 0.37022 0.99578 0.0
H672 H 0.14593 0.39641 0.97499 0.0
C673 C 0.16487 0.34881 0.90506 0.0
C674 C 0.95157 0.53129 0.18111 0.0
C675 C 0.92148 0.51334 0.17488 0.0
H676 H 0.98534 0.55156 0.21873 0.0
C677 C 0.89983 0.5057 0.20227 0.0
H678 H 0.96858 0.5376 0.16029 0.0
C679 C 0.9097 0.51319 0.23577 0.0
C680 C 0.94104 0.52887 0.24217 0.0
H681 H 0.87655 0.49177 0.19808 0.0
H682 H 0.89357 0.50524 0.25672 0.0
C683 C 0.96116 0.53925 0.21451 0.0
C684 C 0.73137 0.00595 0.39706 0.0
C685 C 0.70109 0.0234 0.40321 0.0
H686 H 0.77128 0.99596 0.36127 0.0
C687 C 0.68493 0.03974 0.37593 0.0
H688 H 0.74419 0.99289 0.41764 0.0
C689 C 0.70042 0.04147 0.34396 0.0
C690 C 0.73202 0.02646 0.3386 0.0
H691 H 0.66146 0.05312 0.37982 0.0
H692 H 0.68876 0.05644 0.32401 0.0
C693 C 0.74669 0.00732 0.36479 0.0
C694 C 0.21001 0.14829 0.58733 0.0
C695 C 0.19686 0.14967 0.55394 0.0
H696 H 0.23053 0.11724 0.62692 0.0
C697 C 0.20021 0.12142 0.53256 0.0
H698 H 0.20784 0.16969 0.60434 0.0
C699 C 0.21272 0.09115 0.54566 0.0
C700 C 0.22247 0.08883 0.58018 0.0
H701 H 0.19021 0.12166 0.50672 0.0
H702 H 0.21241 0.06903 0.52947 0.0
C703 C 0.22287 0.11816 0.60029 0.0
C704 C 0.03373 0.20592 0.67473 0.0
C705 C 0.05869 0.20469 0.70042 0.0
H706 H 0.02362 0.21068 0.62101 0.0
C707 C 0.09172 0.21523 0.69255 0.0
H708 H 0.00807 0.19772 0.67998 0.0
C709 C 0.10055 0.22291 0.65881 0.0
C710 C 0.07659 0.21966 0.63236 0.0
H711 H 0.11142 0.21444 0.71185 0.0
H712 H 0.12682 0.22843 0.65313 0.0
C713 C 0.0427 0.21299 0.64083 0.0
C714 C 0.02637 0.25918 0.93319 0.0
C715 C 0.0193 0.25985 0.96844 0.0
H716 H 0.03368 0.28794 0.88745 0.0
C717 C 0.00898 0.28999 0.98367 0.0
H718 H 0.03391 0.23603 0.92079 0.0
C719 C 0.0091 0.31975 0.96462 0.0
C720 C 0.01905 0.31953 0.93006 0.0
H721 H 1.0032 0.29102 0.01076 0.0
H722 H 1.00343 0.3432 0.97747 0.0
C723 C 0.02597 0.2888 0.91404 0.0
C724 C 0.9761 0.37227 0.14809 0.0
C725 C 0.94225 0.38213 0.1449 0.0
H726 H 0.01154 0.34071 0.17429 0.0
C727 C 0.9175 0.36564 0.16483 0.0
H728 H 0.99567 0.38448 0.13309 0.0
C729 C 0.92644 0.34061 0.18822 0.0
C730 C 0.96038 0.33154 0.19238 0.0
H731 H 0.89108 0.37245 0.16281 0.0
H732 H 0.90682 0.32898 0.20363 0.0
C733 C 0.9851 0.34726 0.17172 0.0
C734 C 0.88725 0.07256 0.39183 0.0
C735 C 0.88421 0.10452 0.40672 0.0
H736 H 0.87326 0.0403 0.35002 0.0
C737 C 0.86621 0.12955 0.38887 0.0
H738 H 0.90101 0.05283 0.40488 0.0
C739 C 0.85061 0.12258 0.35753 0.0
C740 C 0.85243 0.09032 0.34321 0.0
H741 H 0.86368 0.15463 0.39939 0.0
H742 H 0.83632 0.14226 0.34502 0.0
C743 C 0.87136 0.06548 0.36042 0.0
C744 C 0.03781 0.86459 0.35951 0.0
C745 C 0.07177 0.87451 0.36267 0.0
H746 H 1.00198 0.83311 0.3333 0.0
C747 C 0.0963 0.85818 0.34263 0.0
H748 H 0.01839 0.87667 0.37459 0.0
C749 C 0.08705 0.83327 0.31917 0.0
C750 C 0.053 0.82414 0.31506 0.0
H751 H 0.1228 0.86505 0.34462 0.0
H752 H 0.10651 0.82175 0.30368 0.0
C753 C 0.02849 0.83969 0.33582 0.0
C754 C 0.3683 0.37883 0.6223 0.0
C755 C 0.38583 0.40422 0.60422 0.0
H756 H 0.33894 0.36556 0.66635 0.0
C757 C 0.38862 0.43632 0.61895 0.0
H758 H 0.366 0.35364 0.61192 0.0
C759 C 0.3729 0.44315 0.65043 0.0
C760 C 0.3544 0.41792 0.66784 0.0
H761 H 0.40201 0.45633 0.60573 0.0
H762 H 0.37455 0.46842 0.6607 0.0
C763 C 0.35288 0.38556 0.65368 0.0
C764 C 0.92021 0.71545 0.81492 0.0
C765 C 0.95319 0.70529 0.80692 0.0
H766 H 0.88584 0.73011 0.85429 0.0
C767 C 0.97868 0.70852 0.8319 0.0
H768 H 0.9001 0.71314 0.79617 0.0
C769 C 0.97039 0.71741 0.86549 0.0
C770 C 0.93663 0.72383 0.87435 0.0
H771 H 1.00432 0.70062 0.82655 0.0
H772 H 0.98993 0.71672 0.88495 0.0
C773 C 0.91204 0.7249 0.84832 0.0
C774 C 0.52653 0.2509 0.0776 0.0
C775 C 0.5196 0.25023 0.04231 0.0
H776 H 0.53334 0.22214 0.12339 0.0
C777 C 0.50902 0.22008 0.02699 0.0
H778 H 0.53428 0.27406 0.09007 0.0
C779 C 0.50873 0.1903 0.04604 0.0
C780 C 0.51853 0.19052 0.08068 0.0
H781 H 0.50334 0.21905 0.99986 0.0
H782 H 0.50285 0.16685 0.03314 0.0
C783 C 0.52573 0.22127 0.09674 0.0
C784 C 0.98213 0.87341 0.20669 0.0
C785 C 1.00269 0.85011 0.18977 0.0
H786 H 0.97031 0.92552 0.2139 0.0
C787 C 0.0239 0.86133 0.16317 0.0
H788 H 0.96592 0.86543 0.22756 0.0
C789 C 0.02621 0.89554 0.15511 0.0
C790 C 0.00789 0.91922 0.17403 0.0
H791 H 0.04008 0.84379 0.14982 0.0
H792 H 0.04398 0.90359 0.13561 0.0
C793 C 0.98494 0.90778 0.19908 0.0
C794 C 0.30155 0.37876 0.4849 0.0
C795 C 0.32807 0.40077 0.47619 0.0
H796 H 0.24862 0.37361 0.49525 0.0
C797 C 0.32052 0.43384 0.46598 0.0
H798 H 0.30666 0.35318 0.49296 0.0
C799 C 0.28723 0.44542 0.46689 0.0
C800 C 0.26118 0.42426 0.47864 0.0
H801 H 0.34056 0.45127 0.45905 0.0
H802 H 0.28229 0.47151 0.46066 0.0
C803 C 0.26839 0.39052 0.48643 0.0
C804 C 0.82963 0.55894 0.78402 0.0
C805 C 0.83479 0.52616 0.79627 0.0
H806 H 0.85183 0.60218 0.76026 0.0
C807 C 0.86475 0.50931 0.78749 0.0
H808 H 0.8067 0.57243 0.79017 0.0
C809 C 0.89086 0.52651 0.77072 0.0
C810 C 0.88717 0.56064 0.76227 0.0
H811 H 0.8694 0.48395 0.79651 0.0
H812 H 0.91479 0.51391 0.76694 0.0
C813 C 0.85561 0.57603 0.76706 0.0
C814 C 0.24839 0.61407 0.98425 0.0
C815 C 0.25531 0.58016 0.97708 0.0
H816 H 0.2105 0.65194 0.98954 0.0
C817 C 0.22915 0.55916 0.96524 0.0
H818 H 0.26825 0.63085 0.99313 0.0
C819 C 0.19601 0.57113 0.96359 0.0
C820 C 0.18872 0.60442 0.97312 0.0
H821 H 0.23387 0.53294 0.95948 0.0
H822 H 0.17586 0.55384 0.95661 0.0
C823 C 0.2154 0.62621 0.98196 0.0
C824 C 0.39138 0.97903 0.24039 0.0
C825 C 0.38772 0.94481 0.24863 0.0
H826 H 0.36972 0.02157 0.21511 0.0
C827 C 0.35613 0.92906 0.24374 0.0
H828 H 0.41532 0.9919 0.24422 0.0
C829 C 0.33004 0.94597 0.22705 0.0
C830 C 0.33507 0.97896 0.21516 0.0
H831 H 0.35238 0.9028 0.25035 0.0
H832 H 0.30705 0.93226 0.2209 0.0
C833 C 0.36514 0.99607 0.22389 0.0
C834 C 0.42747 0.17038 0.82393 0.0
C835 C 0.46143 0.17981 0.8198 0.0
H836 H 0.39204 0.13849 0.84968 0.0
C837 C 0.4861 0.16472 0.84083 0.0
H838 H 0.40789 0.18154 0.80824 0.0
C839 C 0.47703 0.13996 0.86481 0.0
C840 C 0.44317 0.12973 0.868 0.0
H841 H 0.51254 0.17155 0.8383 0.0
H842 H 0.49657 0.12822 0.8801 0.0
C843 C 0.41847 0.1456 0.84768 0.0
C844 C 0.59272 0.29334 0.31773 0.0
C845 C 0.55971 0.3037 0.31002 0.0
H846 H 0.62772 0.27935 0.3569 0.0
C847 C 0.5347 0.30142 0.33553 0.0
H848 H 0.61247 0.29492 0.29856 0.0
C849 C 0.54358 0.29339 0.36923 0.0
C850 C 0.57744 0.28685 0.37767 0.0
H851 H 0.50905 0.30948 0.3304 0.0
H852 H 0.52446 0.29485 0.38901 0.0
C853 C 0.60147 0.28472 0.35125 0.0
C854 C 0.7665 1.00073 0.86611 0.0
C855 C 0.78278 0.98323 0.8398 0.0
H856 H 0.76764 0.01444 0.91917 0.0
C857 C 0.81561 0.97105 0.84506 0.0
H858 H 0.74093 0.0098 0.86266 0.0
C859 C 0.83085 0.97358 0.87714 0.0
C860 C 0.81322 0.98791 0.90457 0.0
H861 H 0.82847 0.95728 0.82503 0.0
H862 H 0.85536 0.96214 0.88098 0.0
C863 C 0.78162 1.00294 0.89847 0.0
C864 C 0.35754 0.62889 0.45633 0.0
C865 C 0.37004 0.63804 0.42405 0.0
H866 H 0.31869 0.63623 0.49378 0.0
C867 C 0.35103 0.65996 0.40334 0.0
H868 H 0.37163 0.61197 0.4727 0.0
C869 C 0.32081 0.67357 0.41512 0.0
C870 C 0.30901 0.66575 0.44799 0.0
H871 H 0.35979 0.66711 0.37806 0.0
H872 H 0.30726 0.69102 0.39885 0.0
C873 C 0.3273 0.64281 0.4683 0.0
C874 C 0.05383 0.03123 0.29305 0.0
C875 C 0.07373 0.02085 0.26536 0.0
H876 H 0.04664 0.02968 0.3473 0.0
C877 C 0.10495 0.00527 0.27168 0.0
H878 H 0.02977 0.04348 0.28887 0.0
C879 C 0.11488 0.99788 0.30518 0.0
C880 C 0.09344 0.00553 0.33262 0.0
H881 H 0.1209 0.99733 0.2507 0.0
H882 H 0.13804 0.98402 0.30933 0.0
C883 C 0.06349 0.02337 0.32644 0.0
C884 C 0.79253 0.6211 0.91378 0.0
C885 C 0.79366 0.59253 0.93503 0.0
H886 H 0.8067 0.67285 0.90748 0.0
C887 C 0.80378 0.59635 0.9693 0.0
H888 H 0.78453 0.61903 0.88732 0.0
C889 C 0.81602 0.62739 0.981 0.0
C890 C 0.8187 0.65494 0.95847 0.0
H891 H 0.80464 0.57484 0.98635 0.0
H892 H 0.82636 0.6288 0.00667 0.0
C893 C 0.80508 0.65203 0.92537 0.0
C894 C 0.8082 0.70107 0.47465 0.0
C895 C 0.80327 0.73541 0.4678 0.0
H896 H 0.84357 0.66075 0.47881 0.0
C897 C 0.83021 0.75462 0.45475 0.0
H898 H 0.7878 0.68587 0.48508 0.0
C899 C 0.86246 0.74043 0.45191 0.0
C900 C 0.868 0.70678 0.46174 0.0
H901 H 0.82714 0.7813 0.44993 0.0
H902 H 0.88342 0.75639 0.44416 0.0
C903 C 0.8402 0.68679 0.47134 0.0
C904 C 0.16979 0.18748 0.03522 0.0
C905 C 0.14281 0.20775 0.04575 0.0
H906 H 0.22211 0.18579 0.02132 0.0
C907 C 0.14964 0.24083 0.05683 0.0
H908 H 0.1654 0.16186 0.02676 0.0
C909 C 0.18242 0.25429 0.05449 0.0
C910 C 0.20859 0.23494 0.04064 0.0
H911 H 0.12932 0.25695 0.06531 0.0
H912 H 0.18653 0.28064 0.06042 0.0
C913 C 0.20232 0.20107 0.03237 0.0
C914 C 0.81984 0.07331 0.54456 0.0
C915 C 0.82723 0.10647 0.53425 0.0
H916 H 0.78184 0.03491 0.5497 0.0
C917 C 0.80063 0.1279 0.52512 0.0
H918 H 0.83995 0.05631 0.5518 0.0
C919 C 0.76757 0.11547 0.52328 0.0
C920 C 0.76055 0.08163 0.5312 0.0
H921 H 0.80562 0.15353 0.51695 0.0
H922 H 0.74774 0.13193 0.51415 0.0
C923 C 0.78665 0.06106 0.54336 0.0
C924 C 0.48497 0.62967 0.80492 0.0
C925 C 0.50579 0.65326 0.82154 0.0
H926 H 0.47291 0.5774 0.79808 0.0
C927 C 0.52736 0.64236 0.84791 0.0
H928 H 0.46846 0.63739 0.78423 0.0
C929 C 0.5297 0.6082 0.85609 0.0
C930 C 0.51104 0.58426 0.83751 0.0
H931 H 0.54375 0.66012 0.86103 0.0
H932 H 0.5477 0.60041 0.87544 0.0
C933 C 0.48781 0.59536 0.81264 0.0
C934 C 0.4205 0.79109 0.19579 0.0
C935 C 0.45351 0.80129 0.20426 0.0
H936 H 0.38616 0.77731 0.15581 0.0
C937 C 0.47907 0.79885 0.17937 0.0
H938 H 0.40034 0.79278 0.21447 0.0
C939 C 0.47082 0.79087 0.14548 0.0
C940 C 0.43704 0.78453 0.13624 0.0
H941 H 0.50473 0.80677 0.18508 0.0
H942 H 0.49042 0.79224 0.12617 0.0
C943 C 0.41237 0.78252 0.16208 0.0
C944 C 0.36321 0.76497 0.55872 0.0
C945 C 0.36927 0.79852 0.54862 0.0
H946 H 0.3273 0.72418 0.56087 0.0
C947 C 0.3418 0.81845 0.53854 0.0
H948 H 0.38389 0.74908 0.56684 0.0
C949 C 0.30963 0.80416 0.5351 0.0
C950 C 0.30417 0.76991 0.5423 0.0
H951 H 0.34559 0.8444 0.53084 0.0
H952 H 0.2895 0.81929 0.52434 0.0
C953 C 0.33077 0.7508 0.55577 0.0
C954 C 0.74835 0.89482 0.02673 0.0
C955 C 0.75499 0.92887 0.03392 0.0
H956 H 0.71082 0.85608 0.0217 0.0
C957 C 0.72874 0.94924 0.04603 0.0
H958 H 0.76829 0.87852 0.01766 0.0
C959 C 0.69575 0.93649 0.04793 0.0
C960 C 0.68872 0.90305 0.03842 0.0
H961 H 0.73325 0.97555 0.05181 0.0
H962 H 0.67549 0.9533 0.0551 0.0
C963 C 0.71553 0.8819 0.0293 0.0
C964 C 0.56563 0.47937 0.68606 0.0
C965 C 0.59528 0.49798 0.67973 0.0
H966 H 0.53236 0.45859 0.72381 0.0
C967 C 0.61677 0.5063 0.70707 0.0
H968 H 0.54876 0.47253 0.66528 0.0
C969 C 0.60711 0.49882 0.74063 0.0
C970 C 0.57613 0.48249 0.74712 0.0
H971 H 0.63971 0.52076 0.70279 0.0
H972 H 0.62304 0.50731 0.76154 0.0
C973 C 0.55625 0.47142 0.71952 0.0
C974 C 0.29163 0.8856 0.09692 0.0
C975 C 0.29257 0.91449 0.07609 0.0
H976 H 0.30645 0.83416 0.10264 0.0
C977 C 0.3029 0.91137 0.04185 0.0
H978 H 0.28347 0.88713 0.12334 0.0
C979 C 0.31561 0.88082 0.02983 0.0
C980 C 0.31855 0.85307 0.05203 0.0
H981 H 0.3036 0.93313 0.02511 0.0
H982 H 0.32614 0.88002 1.00425 0.0
C983 C 0.30465 0.85517 0.08502 0.0
C984 C 0.20243 0.46001 0.66544 0.0
C985 C 0.23335 0.47665 0.67114 0.0
H986 H 0.16373 0.4472 0.62941 0.0
C987 C 0.24708 0.49712 0.64537 0.0
H988 H 0.19144 0.44405 0.68508 0.0
C989 C 0.23152 0.49843 0.61318 0.0
C990 C 0.2019 0.47962 0.60669 0.0
H991 H 0.27113 0.50981 0.64916 0.0
H992 H 0.24363 0.5127 0.59291 0.0
C993 C 0.18667 0.46169 0.63356 0.0
C994 C 0.65805 0.13101 0.05282 0.0
C995 C 0.64537 0.13917 0.08524 0.0
H996 H 0.69681 0.14015 0.01557 0.0
C997 C 0.66396 0.16132 0.1063 0.0
H998 H 0.64429 0.11395 0.03617 0.0
C999 C 0.69394 0.17605 0.09477 0.0
C1000 C 0.70593 0.16914 0.06182 0.0
H1001 H 0.65506 0.16775 0.13168 0.0
H1002 H 0.70717 0.19361 0.11133 0.0
C1003 C 0.68804 0.14604 0.04112 0.0
C1004 C 0.65002 0.26936 0.95432 0.0
C1005 C 0.64367 0.3025 0.96526 0.0
H1006 H 0.68634 0.22948 0.95098 0.0
C1007 C 0.67097 0.32278 0.9757 0.0
H1008 H 0.62946 0.25322 0.94591 0.0
C1009 C 0.70331 0.30916 0.97863 0.0
C1010 C 0.70908 0.27524 0.97055 0.0
H1011 H 0.66695 0.34844 0.98404 0.0
H1012 H 0.72334 0.32446 0.98964 0.0
C1013 C 0.68262 0.25587 0.95676 0.0
C1014 C 0.65781 0.43192 0.26654 0.0
C1015 C 0.62626 0.44747 0.26207 0.0
H1016 H 0.70737 0.43565 0.28831 0.0
C1017 C 0.62309 0.48182 0.26965 0.0
H1018 H 0.66119 0.40557 0.26039 0.0
C1019 C 0.64981 0.49921 0.28525 0.0
C1020 C 0.67987 0.48233 0.29374 0.0
H1021 H 0.59918 0.49454 0.26609 0.0
H1022 H 0.64561 0.52484 0.29363 0.0
C1023 C 0.68439 0.4492 0.28234 0.0
C1024 C 0.53236 0.13021 0.71159 0.0
C1025 C 0.51121 0.15314 0.69477 0.0
H1026 H 0.54515 0.07832 0.71892 0.0
C1027 C 0.48982 0.14151 0.66849 0.0
H1028 H 0.54876 0.1385 0.73221 0.0
C1029 C 0.48796 0.10725 0.66062 0.0
C1030 C 0.50695 0.08391 0.67942 0.0
H1031 H 0.47319 0.15875 0.6552 0.0
H1032 H 0.47006 0.09887 0.64136 0.0
C1033 C 0.53002 0.09578 0.70418 0.0
C1034 C 0.02813 0.41541 0.30848 0.0
C1035 C 0.00499 0.42679 0.33321 0.0
H1036 H 0.04703 0.37314 0.28028 0.0
C1037 C 0.98596 0.40307 0.35172 0.0
H1038 H 0.04329 0.43319 0.29397 0.0
C1039 C 0.9879 0.36888 0.34363 0.0
C1040 C 0.00941 0.35772 0.31742 0.0
H1041 H 0.96801 0.41107 0.37095 0.0
H1042 H 0.97126 0.35132 0.35672 0.0
C1043 C 0.03055 0.38106 0.30086 0.0
C1044 C 0.14875 0.01059 0.72827 0.0
C1045 C 0.17892 0.02766 0.71985 0.0
H1046 H 0.09796 0.01497 0.74675 0.0
C1047 C 0.18331 0.0611 0.73057 0.0
H1048 H 0.14465 0.98474 0.72039 0.0
C1049 C 0.15658 0.07834 0.74571 0.0
C1050 C 0.125 0.06246 0.75017 0.0
H1051 H 0.20634 0.07481 0.72462 0.0
H1052 H 0.15991 0.10484 0.75138 0.0
C1053 C 0.12189 0.02794 0.74319 0.0
C1054 C 0.64555 0.93789 0.86405 0.0
C1055 C 0.66528 0.91302 0.84799 0.0
H1056 H 0.61525 0.95128 0.90765 0.0
C1057 C 0.66806 0.8814 0.86367 0.0
H1058 H 0.6429 0.96259 0.8526 0.0
C1059 C 0.65248 0.87512 0.89516 0.0
C1060 C 0.63358 0.90024 0.91178 0.0
H1061 H 0.68302 0.86173 0.85206 0.0
H1062 H 0.65568 0.85054 0.90672 0.0
C1063 C 0.62973 0.93152 0.89559 0.0
C1064 C 0.50588 0.69129 0.46555 0.0
C1065 C 0.4967 0.6924 0.43074 0.0
H1066 H 0.51017 0.71868 0.51265 0.0
C1067 C 0.4896 0.72349 0.41545 0.0
H1068 H 0.51167 0.66755 0.47786 0.0
C1069 C 0.48823 0.75248 0.43543 0.0
C1070 C 0.49447 0.75084 0.47082 0.0
H1071 H 0.48249 0.72505 0.38869 0.0
H1072 H 0.48055 0.77587 0.4235 0.0
C1073 C 0.50501 0.72044 0.48545 0.0
C1074 C 0.53883 0.63857 0.65236 0.0
C1075 C 0.57275 0.62899 0.64915 0.0
H1076 H 0.50323 0.6699 0.67842 0.0
C1077 C 0.59745 0.64575 0.66895 0.0
H1078 H 0.51929 0.62615 0.63746 0.0
C1079 C 0.58839 0.67078 0.69221 0.0
C1080 C 0.55439 0.67959 0.69637 0.0
H1081 H 0.62391 0.63916 0.66692 0.0
H1082 H 0.60798 0.68264 0.70752 0.0
C1083 C 0.52971 0.66358 0.67585 0.0
C1084 C 0.9868 0.75215 0.57651 0.0
C1085 C 0.99325 0.75411 0.54119 0.0
H1086 H 0.98128 0.77911 0.62349 0.0
C1087 C 1.00434 0.78462 0.52695 0.0
H1088 H 0.9787 0.72866 0.58814 0.0
C1089 C 0.00558 0.81357 0.54717 0.0
C1090 C 0.99623 0.81215 0.5819 0.0
H1091 H 0.00966 0.78662 0.49981 0.0
H1092 H 0.01181 0.83741 0.53515 0.0
C1093 C 0.98856 0.78092 0.59681 0.0
C1094 C 0.15111 0.63064 0.11715 0.0
C1095 C 0.13273 0.60515 0.10012 0.0
H1096 H 0.18108 0.64455 0.16067 0.0
C1097 C 0.12919 0.57364 0.11603 0.0
H1098 H 0.15404 0.65539 0.10582 0.0
C1099 C 0.14485 0.56746 0.14771 0.0
C1100 C 0.1641 0.59275 0.16417 0.0
H1101 H 0.11512 0.55358 0.10365 0.0
H1102 H 0.1425 0.54261 0.15895 0.0
C1103 C 0.16652 0.62455 0.14876 0.0
C1104 C 0.33832 0.60768 0.28797 0.0
C1105 C 0.3178 0.57951 0.29521 0.0
H1106 H 0.38703 0.6312 0.29346 0.0
C1107 C 0.33235 0.55203 0.31243 0.0
H1108 H 0.32811 0.62905 0.27426 0.0
C1109 C 0.36621 0.55307 0.32309 0.0
C1110 C 0.38658 0.5815 0.31654 0.0
H1111 H 0.31745 0.52972 0.31803 0.0
H1112 H 0.37615 0.53194 0.33738 0.0
C1113 C 0.37232 0.60862 0.29842 0.0
C1114 C 0.56847 0.41519 0.50348 0.0
C1115 C 0.58651 0.38957 0.52045 0.0
H1116 H 0.55776 0.46835 0.50032 0.0
C1117 C 0.60767 0.39859 0.54791 0.0
H1118 H 0.55224 0.4091 0.48196 0.0
C1119 C 0.61179 0.43226 0.55736 0.0
C1120 C 0.59425 0.458 0.54029 0.0
H1121 H 0.62234 0.37972 0.56126 0.0
H1122 H 0.62882 0.43813 0.57832 0.0
C1123 C 0.57183 0.44909 0.51374 0.0
C1124 C 0.86749 0.95137 0.68967 0.0
C1125 C 0.88722 0.92278 0.6964 0.0
H1126 H 0.81929 0.9752 0.69444 0.0
C1127 C 0.87237 0.89588 0.71462 0.0
H1128 H 0.87789 0.97235 0.67532 0.0
C1129 C 0.8384 0.89721 0.72502 0.0
C1130 C 0.81851 0.92553 0.71756 0.0
H1131 H 0.88659 0.87319 0.71971 0.0
H1132 H 0.82771 0.87602 0.73882 0.0
C1133 C 0.83367 0.95277 0.70021 0.0
C1134 C 0.44352 0.95003 1.00503 0.0
C1135 C 0.4224 0.95877 0.97743 0.0
H1136 H 0.46233 0.90995 0.03698 0.0
C1137 C 0.40658 0.93284 0.95875 0.0
H1138 H 0.45624 0.96946 0.01971 0.0
C1139 C 0.41109 0.89909 0.96763 0.0
C1140 C 0.43087 0.89015 0.99607 0.0
H1141 H 0.39062 0.93864 0.93697 0.0
H1142 H 0.39772 0.88004 0.953 0.0
C1143 C 0.44722 0.916 0.01467 0.0
C1144 C 0.15207 0.46063 0.82676 0.0
C1145 C 0.1313 0.43254 0.81994 0.0
H1146 H 0.2011 0.48349 0.82158 0.0
C1147 C 0.1451 0.40552 0.80143 0.0
H1148 H 0.14247 0.48166 0.84137 0.0
C1149 C 0.17901 0.40617 0.79088 0.0
C1150 C 0.19992 0.434 0.79827 0.0
H1151 H 0.13008 0.38319 0.79625 0.0
H1152 H 0.18884 0.38485 0.77689 0.0
C1153 C 0.18585 0.46145 0.81584 0.0
C1154 C 0.90537 0.57904 0.05382 0.0
C1155 C 0.92178 0.55319 0.03589 0.0
H1156 H 0.89604 0.63173 0.05866 0.0
C1157 C 0.9435 0.56202 0.00877 0.0
H1158 H 0.88893 0.57319 0.07523 0.0
C1159 C 0.94722 0.596 0.99881 0.0
C1160 C 0.93026 0.62174 0.01663 0.0
H1161 H 0.9567 0.54267 0.99468 0.0
H1162 H 0.96281 0.60207 0.97684 0.0
C1163 C 0.90988 0.61276 0.04465 0.0
C1164 C 0.67792 0.10264 0.22021 0.0
C1165 C 0.69823 0.07471 0.21256 0.0
H1166 H 0.62946 0.12608 0.21496 0.0
C1167 C 0.68355 0.04756 0.19467 0.0
H1168 H 0.68822 0.12374 0.23443 0.0
C1169 C 0.64978 0.04876 0.18374 0.0
C1170 C 0.62961 0.07694 0.1908 0.0
H1171 H 0.69831 0.02545 0.18873 0.0
H1172 H 0.63973 0.02793 0.16893 0.0
C1173 C 0.644 0.10368 0.20959 0.0
C1174 C 0.06858 0.08811 0.50845 0.0
C1175 C 0.08635 0.11392 0.49117 0.0
H1176 H 0.05809 0.0348 0.51204 0.0
C1177 C 0.1073 0.10505 0.46365 0.0
H1178 H 0.05252 0.09409 0.53003 0.0
C1179 C 0.11147 0.07138 0.45441 0.0
C1180 C 0.09417 0.04547 0.47176 0.0
H1181 H 0.12176 0.12407 0.45006 0.0
H1182 H 0.1283 0.06565 0.43337 0.0
C1183 C 0.07198 0.05419 0.49841 0.0
C1184 C 0.13387 0.31816 0.47212 0.0
C1185 C 0.10896 0.30476 0.4939 0.0
H1186 H 0.1582 0.36255 0.45264 0.0
C1187 C 0.08667 0.32698 0.51033 0.0
H1188 H 0.15144 0.30166 0.45921 0.0
C1189 C 0.0911 0.36197 0.50733 0.0
C1190 C 0.11716 0.37539 0.48692 0.0
H1191 H 0.06741 0.31739 0.52753 0.0
H1192 H 0.07523 0.37848 0.52232 0.0
C1193 C 0.13756 0.35308 0.46821 0.0
C1194 C 0.93531 0.42827 0.87539 0.0
C1195 C 0.96107 0.44698 0.89166 0.0
H1196 H 0.88214 0.42049 0.86798 0.0
C1197 C 0.95167 0.47263 0.91449 0.0
H1198 H 0.94152 0.40797 0.85805 0.0
C1199 C 0.91733 0.47994 0.92008 0.0
C1200 C 0.89165 0.46118 0.90364 0.0
H1201 H 0.97083 0.48726 0.92774 0.0
H1202 H 0.91087 0.50052 0.93698 0.0
C1203 C 0.90114 0.43506 0.88151 0.0
C1204 C 0.83111 0.37063 0.06396 0.0
C1205 C 0.85688 0.38335 0.04271 0.0
H1206 H 0.80054 0.32817 0.07809 0.0
C1207 C 0.87072 0.36208 0.01766 0.0
H1208 H 0.82025 0.38611 0.08389 0.0
C1209 C 0.85925 0.32873 0.01424 0.0
C1210 C 0.83434 0.31576 0.03639 0.0
H1211 H 0.89091 0.371 1.00119 0.0
H1212 H 0.87029 0.31293 0.99469 0.0
C1213 C 0.82022 0.33719 0.06106 0.0
C1214 C 0.89232 0.0894 0.19131 0.0
C1215 C 0.86989 0.06172 0.19106 0.0
H1216 H 0.94238 0.1075 0.18006 0.0
C1217 C 0.8793 0.03251 0.17335 0.0
H1218 H 0.88581 0.11231 0.20471 0.0
C1219 C 0.91139 0.03015 0.15833 0.0
C1220 C 0.93503 0.05663 0.16154 0.0
H1221 H 0.8625 0.01087 0.17253 0.0
H1222 H 0.91861 0.00649 0.14677 0.0
C1223 C 0.92472 0.08673 0.17707 0.0
C1224 C 0.18343 0.86367 0.44477 0.0
C1225 C 0.15737 0.87615 0.46557 0.0
H1226 H 0.21427 0.82158 0.43146 0.0
C1227 C 0.14325 0.85484 0.49064 0.0
H1228 H 0.19451 0.87918 0.42484 0.0
C1229 C 0.15475 0.82169 0.49454 0.0
C1230 C 0.17998 0.80895 0.47285 0.0
H1231 H 0.12285 0.86357 0.50678 0.0
H1232 H 0.1435 0.80585 0.5141 0.0
C1233 C 0.19435 0.83042 0.44815 0.0
C1234 C 0.39335 0.41571 0.81969 0.0
C1235 C 0.37155 0.4436 0.8201 0.0
H1236 H 0.44295 0.39699 0.83108 0.0
C1237 C 0.38156 0.47252 0.8382 0.0
H1238 H 0.38638 0.39301 0.80597 0.0
C1239 C 0.41362 0.47439 0.85348 0.0
C1240 C 0.43667 0.44771 0.85015 0.0
H1241 H 0.36525 0.49431 0.83915 0.0
H1242 H 0.42133 0.49784 0.86537 0.0
C1243 C 0.42574 0.41789 0.83419 0.0
C1244 C 0.92868 0.83523 0.99686 0.0
C1245 C 0.90685 0.81241 0.01352 0.0
H1246 H 0.93972 0.88709 0.98532 0.0
C1247 C 0.88239 0.82511 0.03605 0.0
H1248 H 0.94759 0.82619 0.97912 0.0
C1249 C 0.8787 0.85991 0.04051 0.0
C1250 C 0.89863 0.88282 0.02166 0.0
H1251 H 0.86518 0.80814 0.04916 0.0
H1252 H 0.8584 0.86882 0.05668 0.0
C1253 C 0.92424 0.8701 1.00044 0.0
C1254 C 0.39937 0.0732 0.13086 0.0
C1255 C 0.38965 0.04732 0.10838 0.0
H1256 H 0.44 0.10056 0.1543 0.0
C1257 C 0.41514 0.0293 0.09126 0.0
H1258 H 0.38052 0.08721 0.14491 0.0
C1259 C 0.44953 0.03706 0.09657 0.0
C1260 C 0.45917 0.06247 0.11975 0.0
H1261 H 0.40852 0.00891 0.07406 0.0
H1262 H 0.46853 0.02299 0.08281 0.0
C1263 C 0.4336 0.08047 0.13667 0.0
C1264 C 0.55786 0.39479 0.09175 0.0
C1265 C 0.52832 0.38875 0.07255 0.0
H1266 H 0.58043 0.3983 0.14151 0.0
C1267 C 0.49726 0.3862 0.0902 0.0
H1268 H 0.58225 0.39671 0.07928 0.0
C1269 C 0.4962 0.38777 0.12628 0.0
C1270 C 0.52628 0.39106 0.14524 0.0
H1271 H 0.47406 0.38121 0.07627 0.0
H1272 H 0.47227 0.38429 0.13932 0.0
C1273 C 0.55688 0.39544 0.12753 0.0
C1274 C 0.06807 0.72433 0.12444 0.0
C1275 C 0.03879 0.71516 0.14265 0.0
H1276 H 0.09655 0.71968 0.07812 0.0
C1277 C 0.01424 0.69511 0.12619 0.0
H1278 H 0.08722 0.74018 0.13618 0.0
C1279 C 0.01967 0.68314 0.09284 0.0
C1280 C 0.04933 0.69175 0.07491 0.0
H1281 H 0.99124 0.68791 0.13944 0.0
H1282 H 1.00109 0.6664 0.08143 0.0
C1283 C 0.07312 0.71306 0.09089 0.0
C1284 C 0.50237 0.41947 0.37054 0.0
C1285 C 0.48961 0.3991 0.34386 0.0
H1286 H 0.50181 0.43086 0.42449 0.0
C1287 C 0.46571 0.37406 0.35217 0.0
H1288 H 0.52116 0.43872 0.36517 0.0
C1289 C 0.45539 0.369 0.38614 0.0
C1290 C 0.46821 0.38913 0.4129 0.0
H1291 H 0.45572 0.35752 0.33254 0.0
H1292 H 0.43716 0.34919 0.39139 0.0
C1293 C 0.49153 0.41478 0.4046 0.0
C1294 C 0.95188 0.61375 0.58908 0.0
C1295 C 0.98146 0.618 0.56954 0.0
H1296 H 0.92969 0.61213 0.63903 0.0
C1297 C 0.01278 0.61939 0.58692 0.0
H1298 H 0.9273 0.6128 0.57683 0.0
C1299 C 0.01415 0.61835 0.62302 0.0
C1300 C 0.98416 0.61684 0.64228 0.0
H1301 H 0.03604 0.62301 0.57273 0.0
H1302 H 0.03836 0.6208 0.63581 0.0
C1303 C 0.9532 0.61368 0.62486 0.0
C1304 C 0.04901 0.6346 0.84827 0.0
C1305 C 0.02531 0.60932 0.84009 0.0
H1306 H 0.07807 0.65927 0.88727 0.0
C1307 C 0.01347 0.58833 0.86672 0.0
H1308 H 0.0583 0.6516 0.82867 0.0
C1309 C 0.02497 0.59267 0.90062 0.0
C1310 C 0.04809 0.61853 0.90881 0.0
H1311 H 0.99487 0.56887 0.86145 0.0
H1312 H 0.01535 0.57614 0.92047 0.0
C1313 C 0.06003 0.63927 0.88209 0.0
C1314 C 0.45357 0.89233 0.4226 0.0
C1315 C 0.48326 0.88782 0.44191 0.0
H1316 H 0.43094 0.89442 0.37281 0.0
C1317 C 0.51439 0.8865 0.4243 0.0
H1318 H 0.42911 0.89325 0.43503 0.0
C1319 C 0.51544 0.88784 0.3882 0.0
C1320 C 0.4853 0.88961 0.36915 0.0
H1321 H 0.53773 0.88269 0.4383 0.0
H1322 H 0.53949 0.88541 0.37522 0.0
C1323 C 0.45456 0.89271 0.38681 0.0
C1324 C 0.48196 0.3336 0.87176 0.0
C1325 C 0.51439 0.34287 0.88313 0.0
H1326 H 0.45213 0.31193 0.83158 0.0
C1327 C 0.54152 0.3413 0.85985 0.0
H1328 H 0.46058 0.33453 0.88906 0.0
C1329 C 0.53691 0.32743 0.82712 0.0
C1330 C 0.50491 0.31571 0.81672 0.0
H1331 H 0.5669 0.34811 0.86787 0.0
H1332 H 0.55872 0.32422 0.81071 0.0
C1333 C 0.47719 0.32057 0.83877 0.0
C1334 C 0.37785 0.96991 0.60128 0.0
C1335 C 0.39247 0.95255 0.62895 0.0
H1336 H 0.33203 0.98715 0.5776 0.0
C1337 C 0.37097 0.9354 0.6519 0.0
H1338 H 0.39368 0.98351 0.58329 0.0
C1339 C 0.33577 0.9383 0.64923 0.0
C1340 C 0.3212 0.95754 0.62294 0.0
H1341 H 0.38129 0.92195 0.67364 0.0
H1342 H 0.31998 0.92684 0.66874 0.0
C1343 C 0.34253 0.972 0.59805 0.0
C1344 C 0.86 0.12527 0.9931 0.0
C1345 C 0.84736 0.14057 0.02279 0.0
H1346 H 0.87762 0.07988 0.9698 0.0
C1347 C 0.84729 0.12202 0.05359 0.0
H1348 H 0.8605 0.13887 0.96904 0.0
C1349 C 0.85655 0.08802 0.05396 0.0
C1350 C 0.86678 0.07201 0.0237 0.0
H1351 H 0.83776 0.13303 0.07699 0.0
H1352 H 0.85378 0.07378 0.07749 0.0
C1353 C 0.86998 0.09145 0.99364 0.0
C1354 C 0.87072 0.57507 0.36418 0.0
C1355 C 0.89229 0.55743 0.38651 0.0
H1356 H 0.81964 0.58381 0.34794 0.0
C1357 C 0.8778 0.53941 0.41389 0.0
H1358 H 0.88095 0.58906 0.34269 0.0
C1359 C 0.84249 0.5371 0.41734 0.0
C1360 C 0.82104 0.55202 0.39295 0.0
H1361 H 0.89368 0.52544 0.43142 0.0
H1362 H 0.83207 0.52141 0.43748 0.0
C1363 C 0.83552 0.57197 0.36706 0.0
C1364 C 0.14512 0.58398 0.51786 0.0
C1365 C 0.14803 0.5647 0.48775 0.0
H1366 H 0.15471 0.63147 0.54238 0.0
C1367 C 0.15786 0.58097 0.45738 0.0
H1368 H 0.13779 0.5722 0.54178 0.0
C1369 C 0.16701 0.61511 0.45767 0.0
C1370 C 0.16724 0.63355 0.48848 0.0
H1371 H 0.16039 0.56685 0.43381 0.0
H1372 H 0.17624 0.62634 0.43415 0.0
C1373 C 0.15498 0.61796 0.5183 0.0
C1374 C 0.13757 0.03249 0.09433 0.0
C1375 C 0.12291 0.05036 0.12154 0.0
H1376 H 0.18345 0.01531 0.0709 0.0
C1377 C 0.14435 0.06847 0.14381 0.0
H1378 H 0.1218 0.01816 0.07686 0.0
C1379 C 0.17957 0.06607 0.14098 0.0
C1380 C 0.19422 0.04634 0.11521 0.0
H1381 H 0.134 0.08234 0.16519 0.0
H1382 H 0.19534 0.07829 0.16004 0.0
C1383 C 0.1729 0.03087 0.09093 0.0
C1384 C 0.64483 0.91991 0.49236 0.0
C1385 C 0.64785 0.93928 0.52243 0.0
H1386 H 0.6544 0.87252 0.4679 0.0
C1387 C 0.65792 0.92323 0.55279 0.0
H1388 H 0.63734 0.93154 0.46844 0.0
C1389 C 0.66715 0.88923 0.55253 0.0
C1390 C 0.66723 0.87072 0.52176 0.0
H1391 H 0.66057 0.93743 0.57632 0.0
H1392 H 0.67653 0.87817 0.57604 0.0
C1393 C 0.65478 0.88608 0.49194 0.0
C1394 C 0.67465 0.47407 0.92233 0.0
C1395 C 0.69591 0.45841 0.89836 0.0
H1396 H 0.62361 0.48662 0.93599 0.0
C1397 C 0.68118 0.43811 0.8729 0.0
H1398 H 0.68526 0.49005 0.94211 0.0
C1399 C 0.64594 0.43539 0.86998 0.0
C1400 C 0.62458 0.45374 0.89183 0.0
H1401 H 0.6969 0.42572 0.8541 0.0
H1402 H 0.63554 0.42111 0.84878 0.0
C1403 C 0.63931 0.4721 0.91884 0.0
C1404 C 0.34829 0.38865 0.9583 0.0
C1405 C 0.34805 0.37025 0.98919 0.0
H1406 H 0.35506 0.43684 0.93425 0.0
C1407 C 0.36046 0.38582 0.01895 0.0
H1408 H 0.33895 0.37742 0.93484 0.0
C1409 C 0.37048 0.41975 0.01837 0.0
C1410 C 0.36756 0.43901 0.98818 0.0
H1411 H 0.36073 0.37235 0.04308 0.0
H1412 H 0.37792 0.43152 0.04224 0.0
C1413 C 0.3576 0.42275 0.95787 0.0
C1414 C 0.42548 0.64128 0.00954 0.0
C1415 C 0.39979 0.62823 0.98836 0.0
H1416 H 0.44896 0.6855 0.03074 0.0
C1417 C 0.38001 0.65086 0.96925 0.0
H1418 H 0.44087 0.62452 0.02483 0.0
C1419 C 0.38385 0.68571 0.97352 0.0
C1420 C 0.4083 0.69873 0.99611 0.0
H1421 H 0.35967 0.64168 0.95307 0.0
H1422 H 0.36669 0.70245 0.96028 0.0
C1423 C 0.43006 0.67621 0.01294 0.0
C1424 C 0.64305 0.64887 0.52072 0.0
C1425 C 0.65743 0.62787 0.54579 0.0
H1426 H 0.64297 0.69778 0.49709 0.0
C1427 C 0.68366 0.6408 0.56637 0.0
H1428 H 0.62252 0.63978 0.50475 0.0
C1429 C 0.69447 0.6742 0.5628 0.0
C1430 C 0.67981 0.69537 0.53812 0.0
H1431 H 0.69496 0.62553 0.58628 0.0
H1432 H 0.71451 0.68339 0.57934 0.0
C1433 C 0.65444 0.68218 0.51663 0.0
C1434 C 0.32069 0.17342 0.95156 0.0
C1435 C 0.33466 0.19518 0.97622 0.0
H1436 H 0.321 0.12443 0.9289 0.0
C1437 C 0.35961 0.18272 0.99851 0.0
H1438 H 0.30099 0.18204 0.93441 0.0
C1439 C 0.37127 0.14957 0.99525 0.0
C1440 C 0.35757 0.12797 0.97022 0.0
H1441 H 0.37055 0.19879 0.01805 0.0
H1442 H 0.39148 0.14107 0.01183 0.0
C1443 C 0.33175 0.14016 0.94882 0.0
C1444 C 0.6343 0.18586 0.53719 0.0
C1445 C 0.60952 0.19914 0.51531 0.0
H1446 H 0.65832 0.14159 0.55671 0.0
C1447 C 0.58718 0.17679 0.49866 0.0
H1448 H 0.65191 0.20245 0.55026 0.0
C1449 C 0.5914 0.14183 0.50159 0.0
C1450 C 0.6173 0.12854 0.52217 0.0
H1451 H 0.568 0.1863 0.4814 0.0
H1452 H 0.57548 0.12524 0.48648 0.0
C1453 C 0.63779 0.15095 0.54103 0.0
C1454 C 0.57414 0.7918 0.92072 0.0
C1455 C 0.55015 0.81269 0.93648 0.0
H1456 H 0.58865 0.76489 0.87558 0.0
C1457 C 0.52053 0.82072 0.91828 0.0
H1458 H 0.59754 0.78564 0.9337 0.0
C1459 C 0.51535 0.8086 0.8849 0.0
C1460 C 0.54011 0.78898 0.86867 0.0
H1461 H 0.5018 0.83714 0.92951 0.0
H1462 H 0.49239 0.81535 0.87146 0.0
C1463 C 0.56935 0.7804 0.88714 0.0
C1464 C 0.05512 0.11412 0.88389 0.0
C1465 C 0.02462 0.11837 0.86598 0.0
H1466 H 0.08034 0.11313 0.93229 0.0
C1467 C 0.99453 0.12177 0.88476 0.0
H1468 H 0.07867 0.11122 0.87006 0.0
C1469 C 0.99551 0.12353 0.92084 0.0
C1470 C 0.02649 0.12109 0.93868 0.0
H1471 H 0.97068 0.12517 0.87157 0.0
H1472 H 0.97233 0.12858 0.93461 0.0
C1473 C 0.056 0.11496 0.91967 0.0
C1474 C 0.51362 0.91709 0.14426 0.0
C1475 C 0.52558 0.89661 0.17116 0.0
H1476 H 0.51534 0.92865 0.09036 0.0
C1477 C 0.54928 0.87156 0.16329 0.0
H1478 H 0.49501 0.93635 0.14928 0.0
C1479 C 0.56021 0.86662 0.12952 0.0
C1480 C 0.54818 0.88687 0.10254 0.0
H1481 H 0.55866 0.85493 0.1831 0.0
H1482 H 0.57827 0.84682 0.12459 0.0
C1483 C 0.52503 0.91249 0.11042 0.0
C1484 C 0.99473 0.18895 0.41393 0.0
C1485 C 0.96509 0.19649 0.4322 0.0
H1486 H 0.02274 0.19521 0.36721 0.0
C1487 C 0.94096 0.21752 0.41674 0.0
H1488 H 0.01358 0.17246 0.42494 0.0
C1489 C 0.94563 0.22952 0.38333 0.0
C1490 C 0.97487 0.22138 0.36476 0.0
H1491 H 0.91755 0.22335 0.42978 0.0
H1492 H 0.92621 0.2451 0.37198 0.0
C1493 C 0.99977 0.20164 0.38074 0.0
C1494 C 1.00147 0.08981 0.64036 0.0
C1495 C 0.98848 0.10967 0.66716 0.0
H1496 H 1.00113 0.07892 0.58629 0.0
C1497 C 0.96441 0.1343 0.65895 0.0
H1498 H 0.02039 0.07089 0.64565 0.0
C1499 C 0.95415 0.13948 0.62497 0.0
C1500 C 0.9672 0.11986 0.59809 0.0
H1501 H 0.95423 0.15045 0.67869 0.0
H1502 H 0.93579 0.15897 0.6198 0.0
C1503 C 0.99068 0.0946 0.60627 0.0
C1504 C 0.44199 0.29191 0.59444 0.0
C1505 C 0.46612 0.31315 0.57891 0.0
H1506 H 0.4273 0.26436 0.63931 0.0
C1507 C 0.49581 0.3211 0.59716 0.0
H1508 H 0.41855 0.28576 0.58141 0.0
C1509 C 0.5009 0.30862 0.63041 0.0
C1510 C 0.476 0.28867 0.64646 0.0
H1511 H 0.51467 0.33776 0.5861 0.0
H1512 H 0.5239 0.31537 0.64393 0.0
C1513 C 0.44672 0.28011 0.6279 0.0
C1514 C 0.5366 0.82043 0.67552 0.0
C1515 C 0.50917 0.81497 0.69789 0.0
H1516 H 0.55256 0.83463 0.62499 0.0
C1517 C 0.47692 0.82579 0.68769 0.0
H1518 H 0.56184 0.81249 0.68255 0.0
C1519 C 0.47182 0.83938 0.6549 0.0
C1520 C 0.4987 0.8416 0.63135 0.0
H1521 H 0.45531 0.82209 0.70433 0.0
H1522 H 0.44628 0.84552 0.64708 0.0
C1523 C 0.53136 0.83319 0.64248 0.0
C1524 C 0.56593 0.53999 0.41064 0.0
C1525 C 0.55663 0.56589 0.38797 0.0
H1526 H 0.60656 0.51156 0.43286 0.0
C1527 C 0.58244 0.58439 0.37157 0.0
H1528 H 0.54673 0.52551 0.42398 0.0
C1529 C 0.61658 0.57714 0.37744 0.0
C1530 C 0.62595 0.55082 0.39947 0.0
H1531 H 0.5763 0.60485 0.35433 0.0
H1532 H 0.63564 0.59156 0.36381 0.0
C1533 C 0.60021 0.53229 0.41603 0.0
C1534 C 0.59067 0.91535 0.6826 0.0
C1535 C 0.58044 0.9453 0.66659 0.0
H1536 H 0.62976 0.88982 0.7102 0.0
C1537 C 0.60438 0.97135 0.66227 0.0
H1538 H 0.57279 0.8949 0.68642 0.0
C1539 C 0.63673 0.96884 0.67675 0.0
C1540 C 0.64608 0.93989 0.69504 0.0
H1541 H 0.59725 0.99487 0.65028 0.0
H1542 H 0.65379 0.99023 0.67513 0.0
C1543 C 0.62331 0.91253 0.69633 0.0
C1544 C 0.12353 0.59595 0.31595 0.0
C1545 C 0.14558 0.56827 0.31717 0.0
H1546 H 0.07364 0.61435 0.32627 0.0
C1547 C 0.13566 0.53955 0.33569 0.0
H1548 H 0.13044 0.61849 0.3019 0.0
C1549 C 0.10343 0.5376 0.35053 0.0
C1550 C 0.08017 0.56399 0.34635 0.0
H1551 H 0.15215 0.51793 0.33727 0.0
H1552 H 0.09582 0.51425 0.36274 0.0
C1553 C 0.09101 0.59368 0.33003 0.0
C1554 C 0.11711 0.92922 0.63771 0.0
C1555 C 0.12655 0.95539 0.61539 0.0
H1556 H 0.07675 0.90109 0.66068 0.0
C1557 C 0.10088 0.9732 0.59822 0.0
H1558 H 0.13611 0.91536 0.65179 0.0
C1559 C 0.06661 0.96498 0.6033 0.0
C1560 C 0.05723 0.93922 0.62621 0.0
H1561 H 0.10728 0.9938 0.58116 0.0
H1562 H 0.04748 0.97892 0.58949 0.0
C1563 C 0.08296 0.92141 0.64322 0.0
C1564 C 0.04003 0.17044 0.15132 0.0
C1565 C 0.01291 0.1685 0.12795 0.0
H1566 H 0.05725 0.18778 0.20048 0.0
C1567 C 0.98052 0.17763 0.13914 0.0
H1568 H 0.06538 0.16379 0.14343 0.0
C1569 C 0.97578 0.19074 0.17208 0.0
C1570 C 1.00348 0.19581 0.19426 0.0
H1571 H 0.95916 0.17647 0.12176 0.0
H1572 H 0.95076 0.1992 0.17915 0.0
C1573 C 0.03545 0.18436 0.18399 0.0
C1574 C 0.97481 0.67752 0.32355 0.0
C1575 C 0.00705 0.68868 0.31332 0.0
H1576 H 0.94422 0.65784 0.36434 0.0
C1577 C 0.03451 0.68375 0.33575 0.0
H1578 H 0.95318 0.6808 0.30685 0.0
C1579 C 0.02931 0.67128 0.36892 0.0
C1580 C 0.99666 0.66264 0.3801 0.0
H1581 H 0.05975 0.69193 0.32869 0.0
H1582 H 0.05053 0.6703 0.38646 0.0
C1583 C 0.96975 0.66421 0.35648 0.0
loop_
_geom_bond_atom_site_label_1
_geom_bond_atom_site_label_2
_geom_bond_distance
_geom_bond_site_symmetry_2
_ccdc_geom_bond_type
In0 O1 2.294 . S
In0 O2 2.326 . S
In0 O6 2.266 . S
In0 O7 2.326 . S
In0 O8 2.266 . S
In0 O9 2.326 . S
In0 O11 2.294 . S
In0 O12 2.326 . S
O1 In0 2.294 . S
O1 C10 1.240 . S
O2 In0 2.326 . S
O2 C10 1.252 . S
C3 O6 1.252 . S
C3 O7 1.260 . S
C4 O11 1.240 . S
C4 O12 1.252 . S
C5 O8 1.252 . S
C5 O9 1.260 . S
O6 In0 2.266 . S
O6 C3 1.252 . S
O7 In0 2.326 . S
O7 C3 1.260 . S
O8 In0 2.266 . S
O8 C5 1.252 . S
O9 In0 2.326 . S
O9 C5 1.260 . S
C10 O1 1.240 . S
C10 O2 1.252 . S
O11 In0 2.294 . S
O11 C4 1.240 . S
O12 In0 2.326 . S
O12 C4 1.252 . S
In13 O14 2.294 . S
In13 O15 2.326 . S
In13 O19 2.266 . S
In13 O20 2.326 . S
In13 O21 2.266 . S
In13 O22 2.326 . S
In13 O24 2.294 . S
In13 O25 2.326 . S
O14 In13 2.294 . S
O14 C23 1.240 . S
O15 In13 2.326 . S
O15 C23 1.252 . S
C16 O19 1.252 . S
C16 O20 1.260 . S
C17 O24 1.240 . S
C17 O25 1.252 . S
C18 O21 1.252 . S
C18 O22 1.260 . S
O19 In13 2.266 . S
O19 C16 1.252 . S
O20 In13 2.326 . S
O20 C16 1.260 . S
O21 In13 2.266 . S
O21 C18 1.252 . S
O22 In13 2.326 . S
O22 C18 1.260 . S
C23 O14 1.240 . S
C23 O15 1.252 . S
O24 In13 2.294 . S
O24 C17 1.240 . S
O25 In13 2.326 . S
O25 C17 1.252 . S
In26 O27 2.294 . S
In26 O28 2.326 . S
In26 O32 2.266 . S
In26 O33 2.326 . S
In26 O34 2.266 . S
In26 O35 2.326 . S
In26 O37 2.294 . S
In26 O38 2.326 . S
O27 In26 2.294 . S
O27 C36 1.240 . S
O28 In26 2.326 . S
O28 C36 1.252 . S
C29 O32 1.252 . S
C29 O33 1.260 . S
C30 O37 1.240 . S
C30 O38 1.252 . S
C31 O34 1.252 . S
C31 O35 1.260 . S
O32 In26 2.266 . S
O32 C29 1.252 . S
O33 In26 2.326 . S
O33 C29 1.260 . S
O34 In26 2.266 . S
O34 C31 1.252 . S
O35 In26 2.326 . S
O35 C31 1.260 . S
C36 O27 1.240 . S
C36 O28 1.252 . S
O37 In26 2.294 . S
O37 C30 1.240 . S
O38 In26 2.326 . S
O38 C30 1.252 . S
In39 O40 2.294 . S
In39 O41 2.326 . S
In39 O45 2.266 . S
In39 O46 2.326 . S
In39 O47 2.266 . S
In39 O48 2.326 . S
In39 O50 2.294 . S
In39 O51 2.326 . S
O40 In39 2.294 . S
O40 C49 1.240 . S
O41 In39 2.326 . S
O41 C49 1.252 . S
C42 O45 1.252 . S
C42 O46 1.260 . S
C43 O50 1.240 . S
C43 O51 1.252 . S
C44 O47 1.252 . S
C44 O48 1.260 . S
O45 In39 2.266 . S
O45 C42 1.252 . S
O46 In39 2.326 . S
O46 C42 1.260 . S
O47 In39 2.266 . S
O47 C44 1.252 . S
O48 In39 2.326 . S
O48 C44 1.260 . S
C49 O40 1.240 . S
C49 O41 1.252 . S
O50 In39 2.294 . S
O50 C43 1.240 . S
O51 In39 2.326 . S
O51 C43 1.252 . S
In52 O53 2.294 . S
In52 O54 2.326 . S
In52 O58 2.266 . S
In52 O59 2.326 . S
In52 O60 2.266 . S
In52 O61 2.326 . S
In52 O63 2.294 . S
In52 O64 2.326 . S
O53 In52 2.294 . S
O53 C62 1.240 . S
O54 In52 2.326 . S
O54 C62 1.252 . S
C55 O58 1.252 . S
C55 O59 1.260 . S
C56 O63 1.240 . S
C56 O64 1.252 . S
C57 O60 1.252 . S
C57 O61 1.260 . S
O58 In52 2.266 . S
O58 C55 1.252 . S
O59 In52 2.326 . S
O59 C55 1.260 . S
O60 In52 2.266 . S
O60 C57 1.252 . S
O61 In52 2.326 . S
O61 C57 1.260 . S
C62 O53 1.240 . S
C62 O54 1.252 . S
O63 In52 2.294 . S
O63 C56 1.240 . S
O64 In52 2.326 . S
O64 C56 1.252 . S
In65 O66 2.294 . S
In65 O67 2.326 . S
In65 O71 2.266 . S
In65 O72 2.326 . S
In65 O73 2.266 . S
In65 O74 2.326 . S
In65 O76 2.294 . S
In65 O77 2.326 . S
O66 In65 2.294 . S
O66 C75 1.240 . S
O67 In65 2.326 . S
O67 C75 1.252 . S
C68 O71 1.252 . S
C68 O72 1.260 . S
C69 O76 1.240 . S
C69 O77 1.252 . S
C70 O73 1.252 . S
C70 O74 1.260 . S
O71 In65 2.266 . S
O71 C68 1.252 . S
O72 In65 2.326 . S
O72 C68 1.260 . S
O73 In65 2.266 . S
O73 C70 1.252 . S
O74 In65 2.326 . S
O74 C70 1.260 . S
C75 O66 1.240 . S
C75 O67 1.252 . S
O76 In65 2.294 . S
O76 C69 1.240 . S
O77 In65 2.326 . S
O77 C69 1.252 . S
In78 O79 2.294 . S
In78 O80 2.326 . S
In78 O84 2.266 . S
In78 O85 2.317 1_545 S
In78 O86 2.266 1_545 S
In78 O87 2.326 . S
In78 O89 2.294 1_545 S
In78 O90 2.326 . S
O79 In78 2.294 . S
O79 C88 1.240 . S
O80 In78 2.326 . S
O80 C88 1.252 . S
C81 O84 1.252 . S
C81 O85 1.244 1_545 S
C82 O89 1.240 1_545 S
C82 O90 1.252 . S
C83 O86 1.252 1_545 S
C83 O87 1.260 . S
O84 In78 2.266 . S
O84 C81 1.252 . S
O85 In78 2.317 1_565 S
O85 C81 1.244 1_565 S
O86 In78 2.266 1_565 S
O86 C83 1.252 1_565 S
O87 In78 2.326 . S
O87 C83 1.260 . S
C88 O79 1.240 . S
C88 O80 1.252 . S
O89 In78 2.294 1_565 S
O89 C82 1.240 1_565 S
O90 In78 2.326 . S
O90 C82 1.252 . S
In91 O92 2.294 . S
In91 O93 2.326 . S
In91 O97 2.266 . S
In91 O98 2.326 . S
In91 O99 2.266 . S
In91 O100 2.326 . S
In91 O102 2.294 . S
In91 O103 2.326 . S
O92 In91 2.294 . S
O92 C101 1.240 . S
O93 In91 2.326 . S
O93 C101 1.252 . S
C94 O97 1.252 . S
C94 O98 1.260 . S
C95 O102 1.240 . S
C95 O103 1.252 . S
C96 O99 1.252 . S
C96 O100 1.260 . S
O97 In91 2.266 . S
O97 C94 1.252 . S
O98 In91 2.326 . S
O98 C94 1.260 . S
O99 In91 2.266 . S
O99 C96 1.252 . S
O100 In91 2.326 . S
O100 C96 1.260 . S
C101 O92 1.240 . S
C101 O93 1.252 . S
O102 In91 2.294 . S
O102 C95 1.240 . S
O103 In91 2.326 . S
O103 C95 1.252 . S
In104 O105 2.294 . S
In104 O106 2.326 . S
In104 O110 2.266 . S
In104 O111 2.326 . S
In104 O112 2.266 . S
In104 O113 2.326 . S
In104 O115 2.294 . S
In104 O116 2.326 . S
O105 In104 2.294 . S
O105 C114 1.240 . S
O106 In104 2.326 . S
O106 C114 1.252 . S
C107 O110 1.252 . S
C107 O111 1.260 . S
C108 O115 1.240 . S
C108 O116 1.252 . S
C109 O112 1.252 . S
C109 O113 1.260 . S
O110 In104 2.266 . S
O110 C107 1.252 . S
O111 In104 2.326 . S
O111 C107 1.260 . S
O112 In104 2.266 . S
O112 C109 1.252 . S
O113 In104 2.326 . S
O113 C109 1.260 . S
C114 O105 1.240 . S
C114 O106 1.252 . S
O115 In104 2.294 . S
O115 C108 1.240 . S
O116 In104 2.326 . S
O116 C108 1.252 . S
In117 O118 2.294 . S
In117 O119 2.326 . S
In117 O123 2.266 . S
In117 O124 2.326 . S
In117 O125 2.266 . S
In117 O126 2.326 . S
In117 O128 2.294 . S
In117 O129 2.326 . S
O118 In117 2.294 . S
O118 C127 1.240 . S
O119 In117 2.326 . S
O119 C127 1.252 . S
C120 O123 1.252 . S
C120 O124 1.260 . S
C121 O128 1.240 . S
C121 O129 1.252 . S
C122 O125 1.252 . S
C122 O126 1.260 . S
O123 In117 2.266 . S
O123 C120 1.252 . S
O124 In117 2.326 . S
O124 C120 1.260 . S
O125 In117 2.266 . S
O125 C122 1.252 . S
O126 In117 2.326 . S
O126 C122 1.260 . S
C127 O118 1.240 . S
C127 O119 1.252 . S
O128 In117 2.294 . S
O128 C121 1.240 . S
O129 In117 2.326 . S
O129 C121 1.252 . S
In130 O131 2.294 . S
In130 O132 2.326 . S
In130 O136 2.266 1_556 S
In130 O137 2.326 . S
In130 O138 2.266 . S
In130 O139 2.326 . S
In130 O141 2.294 . S
In130 O142 2.326 . S
O131 In130 2.294 . S
O131 C140 1.240 . S
O132 In130 2.326 . S
O132 C140 1.252 . S
C133 O136 1.252 . S
C133 O137 1.260 1_554 S
C134 O141 1.240 . S
C134 O142 1.252 . S
C135 O138 1.252 . S
C135 O139 1.260 . S
O136 In130 2.266 1_554 S
O136 C133 1.252 . S
O137 In130 2.326 . S
O137 C133 1.260 1_556 S
O138 In130 2.266 . S
O138 C135 1.252 . S
O139 In130 2.326 . S
O139 C135 1.260 . S
C140 O131 1.240 . S
C140 O132 1.252 . S
O141 In130 2.294 . S
O141 C134 1.240 . S
O142 In130 2.326 . S
O142 C134 1.252 . S
In143 O144 2.294 . S
In143 O145 2.326 . S
In143 O149 2.266 . S
In143 O150 2.326 . S
In143 O151 2.266 . S
In143 O152 2.326 . S
In143 O154 2.294 . S
In143 O155 2.326 . S
O144 In143 2.294 . S
O144 C153 1.240 . S
O145 In143 2.326 . S
O145 C153 1.252 . S
C146 O149 1.252 . S
C146 O150 1.260 . S
C147 O154 1.240 . S
C147 O155 1.252 . S
C148 O151 1.252 . S
C148 O152 1.260 . S
O149 In143 2.266 . S
O149 C146 1.252 . S
O150 In143 2.326 . S
O150 C146 1.260 . S
O151 In143 2.266 . S
O151 C148 1.252 . S
O152 In143 2.326 . S
O152 C148 1.260 . S
C153 O144 1.240 . S
C153 O145 1.252 . S
O154 In143 2.294 . S
O154 C147 1.240 . S
O155 In143 2.326 . S
O155 C147 1.252 . S
In156 O157 2.294 . S
In156 O158 2.326 . S
In156 O162 2.266 . S
In156 O163 2.326 . S
In156 O164 2.266 . S
In156 O165 2.326 . S
In156 O167 2.294 1_554 S
In156 O168 2.326 1_554 S
O157 In156 2.294 . S
O157 C166 1.240 . S
O158 In156 2.326 . S
O158 C166 1.252 . S
C159 O162 1.252 . S
C159 O163 1.260 . S
C160 O167 1.240 . S
C160 O168 1.252 . S
C161 O164 1.252 . S
C161 O165 1.260 . S
O162 In156 2.266 . S
O162 C159 1.252 . S
O163 In156 2.326 . S
O163 C159 1.260 . S
O164 In156 2.266 . S
O164 C161 1.252 . S
O165 In156 2.326 . S
O165 C161 1.260 . S
C166 O157 1.240 . S
C166 O158 1.252 . S
O167 In156 2.294 1_556 S
O167 C160 1.240 . S
O168 In156 2.326 1_556 S
O168 C160 1.252 . S
In169 O170 2.293 1_455 S
In169 O171 2.326 1_455 S
In169 O175 2.266 1_455 S
In169 O176 2.326 . S
In169 O177 2.267 . S
In169 O178 2.325 1_455 S
In169 O180 2.295 . S
In169 O181 2.326 . S
O170 In169 2.293 1_655 S
O170 C179 1.240 . S
O171 In169 2.326 1_655 S
O171 C179 1.261 . S
C172 O175 1.252 . S
C172 O176 1.260 1_655 S
C173 O180 1.240 . S
C173 O181 1.252 . S
C174 O177 1.252 . S
C174 O178 1.260 1_455 S
O175 In169 2.266 1_655 S
O175 C172 1.252 . S
O176 In169 2.326 . S
O176 C172 1.260 1_455 S
O177 In169 2.267 . S
O177 C174 1.252 . S
O178 In169 2.325 1_655 S
O178 C174 1.260 1_655 S
C179 O170 1.240 . S
C179 O171 1.261 . S
O180 In169 2.295 . S
O180 C173 1.240 . S
O181 In169 2.326 . S
O181 C173 1.252 . S
In182 O183 2.294 . S
In182 O184 2.326 . S
In182 O188 2.266 . S
In182 O189 2.326 . S
In182 O190 2.266 . S
In182 O191 2.326 . S
In182 O193 2.294 . S
In182 O194 2.326 . S
O183 In182 2.294 . S
O183 C192 1.240 . S
O184 In182 2.326 . S
O184 C192 1.252 . S
C185 O188 1.252 . S
C185 O189 1.260 . S
C186 O193 1.240 . S
C186 O194 1.252 . S
C187 O190 1.252 . S
C187 O191 1.260 . S
O188 In182 2.266 . S
O188 C185 1.252 . S
O189 In182 2.326 . S
O189 C185 1.260 . S
O190 In182 2.266 . S
O190 C187 1.252 . S
O191 In182 2.326 . S
O191 C187 1.260 . S
C192 O183 1.240 . S
C192 O184 1.252 . S
O193 In182 2.294 . S
O193 C186 1.240 . S
O194 In182 2.326 . S
O194 C186 1.252 . S
In195 O196 2.293 1_655 S
In195 O197 2.326 . S
In195 O201 2.266 1_655 S
In195 O202 2.326 1_655 S
In195 O203 2.266 . S
In195 O204 2.326 . S
In195 O206 2.294 . S
In195 O207 2.326 1_655 S
O196 In195 2.293 1_455 S
O196 C205 1.225 1_455 S
O197 In195 2.326 . S
O197 C205 1.252 . S
C198 O201 1.252 . S
C198 O202 1.260 . S
C199 O206 1.240 1_455 S
C199 O207 1.252 . S
C200 O203 1.252 . S
C200 O204 1.260 . S
O201 In195 2.266 1_455 S
O201 C198 1.252 . S
O202 In195 2.326 1_455 S
O202 C198 1.260 . S
O203 In195 2.266 . S
O203 C200 1.252 . S
O204 In195 2.326 . S
O204 C200 1.260 . S
C205 O196 1.225 1_655 S
C205 O197 1.252 . S
O206 In195 2.294 . S
O206 C199 1.240 1_655 S
O207 In195 2.326 1_455 S
O207 C199 1.252 . S
In208 O209 2.294 . S
In208 O210 2.326 . S
In208 O214 2.266 . S
In208 O215 2.326 . S
In208 O216 2.266 . S
In208 O217 2.326 . S
In208 O219 2.294 . S
In208 O220 2.326 . S
O209 In208 2.294 . S
O209 C218 1.240 . S
O210 In208 2.326 . S
O210 C218 1.252 . S
C211 O214 1.252 1_556 S
C211 O215 1.260 1_556 S
C212 O219 1.240 . S
C212 O220 1.252 . S
C213 O216 1.252 . S
C213 O217 1.260 . S
O214 In208 2.266 . S
O214 C211 1.252 1_554 S
O215 In208 2.326 . S
O215 C211 1.260 1_554 S
O216 In208 2.266 . S
O216 C213 1.252 . S
O217 In208 2.326 . S
O217 C213 1.260 . S
C218 O209 1.240 . S
C218 O210 1.252 . S
O219 In208 2.294 . S
O219 C212 1.240 . S
O220 In208 2.326 . S
O220 C212 1.252 . S
In221 O222 2.294 . S
In221 O223 2.326 . S
In221 O227 2.266 . S
In221 O228 2.326 . S
In221 O229 2.266 . S
In221 O230 2.326 . S
In221 O232 2.294 . S
In221 O233 2.326 . S
O222 In221 2.294 . S
O222 C231 1.240 . S
O223 In221 2.326 . S
O223 C231 1.252 . S
C224 O227 1.252 . S
C224 O228 1.260 . S
C225 O232 1.240 . S
C225 O233 1.252 . S
C226 O229 1.252 . S
C226 O230 1.260 . S
O227 In221 2.266 . S
O227 C224 1.252 . S
O228 In221 2.326 . S
O228 C224 1.260 . S
O229 In221 2.266 . S
O229 C226 1.252 . S
O230 In221 2.326 . S
O230 C226 1.260 . S
C231 O222 1.240 . S
C231 O223 1.252 . S
O232 In221 2.294 . S
O232 C225 1.240 . S
O233 In221 2.326 . S
O233 C225 1.252 . S
In234 O235 2.294 . S
In234 O236 2.326 . S
In234 O240 2.266 . S
In234 O241 2.326 . S
In234 O242 2.266 . S
In234 O243 2.326 . S
In234 O245 2.294 . S
In234 O246 2.326 . S
O235 In234 2.294 . S
O235 C244 1.240 . S
O236 In234 2.326 . S
O236 C244 1.252 . S
C237 O240 1.252 . S
C237 O241 1.260 . S
C238 O245 1.240 . S
C238 O246 1.252 . S
C239 O242 1.252 . S
C239 O243 1.260 . S
O240 In234 2.266 . S
O240 C237 1.252 . S
O241 In234 2.326 . S
O241 C237 1.260 . S
O242 In234 2.266 . S
O242 C239 1.252 . S
O243 In234 2.326 . S
O243 C239 1.260 . S
C244 O235 1.240 . S
C244 O236 1.252 . S
O245 In234 2.294 . S
O245 C238 1.240 . S
O246 In234 2.326 . S
O246 C238 1.252 . S
In247 O248 2.294 . S
In247 O249 2.326 . S
In247 O253 2.266 . S
In247 O254 2.326 . S
In247 O255 2.266 . S
In247 O256 2.326 . S
In247 O258 2.294 . S
In247 O259 2.326 . S
O248 In247 2.294 . S
O248 C257 1.240 . S
O249 In247 2.326 . S
O249 C257 1.252 . S
C250 O253 1.252 . S
C250 O254 1.260 . S
C251 O258 1.240 . S
C251 O259 1.252 . S
C252 O255 1.252 . S
C252 O256 1.260 . S
O253 In247 2.266 . S
O253 C250 1.252 . S
O254 In247 2.326 . S
O254 C250 1.260 . S
O255 In247 2.266 . S
O255 C252 1.252 . S
O256 In247 2.326 . S
O256 C252 1.260 . S
C257 O248 1.240 . S
C257 O249 1.252 . S
O258 In247 2.294 . S
O258 C251 1.240 . S
O259 In247 2.326 . S
O259 C251 1.252 . S
In260 O261 2.294 . S
In260 O262 2.327 . S
In260 O266 2.266 1_545 S
In260 O267 2.325 1_545 S
In260 O268 2.266 . S
In260 O269 2.326 . S
In260 O271 2.294 1_545 S
In260 O272 2.326 1_545 S
O261 In260 2.294 . S
O261 C270 1.240 . S
O262 In260 2.327 . S
O262 C270 1.252 . S
C263 O266 1.252 . S
C263 O267 1.260 . S
C264 O271 1.242 . S
C264 O272 1.252 . S
C265 O268 1.252 . S
C265 O269 1.260 . S
O266 In260 2.266 1_565 S
O266 C263 1.252 . S
O267 In260 2.325 1_565 S
O267 C263 1.260 . S
O268 In260 2.266 . S
O268 C265 1.252 . S
O269 In260 2.326 . S
O269 C265 1.260 . S
C270 O261 1.240 . S
C270 O262 1.252 . S
O271 In260 2.294 1_565 S
O271 C264 1.242 . S
O272 In260 2.326 1_565 S
O272 C264 1.252 . S
In273 O274 2.294 . S
In273 O275 2.327 1_556 S
In273 O279 2.265 . S
In273 O280 2.325 . S
In273 O281 2.267 1_556 S
In273 O282 2.326 1_556 S
In273 O284 2.295 1_556 S
In273 O285 2.326 . S
O274 In273 2.294 . S
O274 C283 1.240 1_556 S
O275 In273 2.327 1_554 S
O275 C283 1.252 . S
C276 O279 1.252 . S
C276 O280 1.260 . S
C277 O284 1.240 . S
C277 O285 1.252 1_554 S
C278 O281 1.252 . S
C278 O282 1.260 . S
O279 In273 2.265 . S
O279 C276 1.252 . S
O280 In273 2.325 . S
O280 C276 1.260 . S
O281 In273 2.267 1_554 S
O281 C278 1.252 . S
O282 In273 2.326 1_554 S
O282 C278 1.260 . S
C283 O274 1.240 1_554 S
C283 O275 1.252 . S
O284 In273 2.295 1_554 S
O284 C277 1.240 . S
O285 In273 2.326 . S
O285 C277 1.252 1_556 S
In286 O287 2.294 . S
In286 O288 2.326 . S
In286 O292 2.266 . S
In286 O293 2.326 . S
In286 O294 2.266 . S
In286 O295 2.326 . S
In286 O297 2.294 . S
In286 O298 2.326 . S
O287 In286 2.294 . S
O287 C296 1.240 . S
O288 In286 2.326 . S
O288 C296 1.252 . S
C289 O292 1.252 . S
C289 O293 1.260 . S
C290 O297 1.240 . S
C290 O298 1.252 . S
C291 O294 1.252 . S
C291 O295 1.260 . S
O292 In286 2.266 . S
O292 C289 1.252 . S
O293 In286 2.326 . S
O293 C289 1.260 . S
O294 In286 2.266 . S
O294 C291 1.252 . S
O295 In286 2.326 . S
O295 C291 1.260 . S
C296 O287 1.240 . S
C296 O288 1.252 . S
O297 In286 2.294 . S
O297 C290 1.240 . S
O298 In286 2.326 . S
O298 C290 1.252 . S
In299 O300 2.294 . S
In299 O301 2.326 . S
In299 O305 2.266 . S
In299 O306 2.326 . S
In299 O307 2.266 . S
In299 O308 2.326 . S
In299 O310 2.294 . S
In299 O311 2.326 . S
O300 In299 2.294 . S
O300 C309 1.240 . S
O301 In299 2.326 . S
O301 C309 1.252 . S
C302 O305 1.252 . S
C302 O306 1.260 . S
C303 O310 1.240 . S
C303 O311 1.252 . S
C304 O307 1.252 . S
C304 O308 1.260 . S
O305 In299 2.266 . S
O305 C302 1.252 . S
O306 In299 2.326 . S
O306 C302 1.260 . S
O307 In299 2.266 . S
O307 C304 1.252 . S
O308 In299 2.326 . S
O308 C304 1.260 . S
C309 O300 1.240 . S
C309 O301 1.252 . S
O310 In299 2.294 . S
O310 C303 1.240 . S
O311 In299 2.326 . S
O311 C303 1.252 . S
In312 O313 2.293 1_565 S
In312 O314 2.326 1_565 S
In312 O318 2.266 1_565 S
In312 O319 2.326 . S
In312 O320 2.266 1_565 S
In312 O321 2.325 1_565 S
In312 O323 2.295 . S
In312 O324 2.327 . S
O313 In312 2.293 1_545 S
O313 C322 1.240 . S
O314 In312 2.326 1_545 S
O314 C322 1.252 . S
C315 O318 1.252 1_565 S
C315 O319 1.260 . S
C316 O323 1.240 . S
C316 O324 1.252 . S
C317 O320 1.252 . S
C317 O321 1.260 . S
O318 In312 2.266 1_545 S
O318 C315 1.252 1_545 S
O319 In312 2.326 . S
O319 C315 1.260 . S
O320 In312 2.266 1_545 S
O320 C317 1.252 . S
O321 In312 2.325 1_545 S
O321 C317 1.260 . S
C322 O313 1.240 . S
C322 O314 1.252 . S
O323 In312 2.295 . S
O323 C316 1.240 . S
O324 In312 2.327 . S
O324 C316 1.252 . S
In325 O326 2.294 . S
In325 O327 2.326 . S
In325 O331 2.266 . S
In325 O332 2.326 . S
In325 O333 2.266 . S
In325 O334 2.326 . S
In325 O336 2.294 . S
In325 O337 2.326 . S
O326 In325 2.294 . S
O326 C335 1.240 . S
O327 In325 2.326 . S
O327 C335 1.252 . S
C328 O331 1.252 . S
C328 O332 1.260 . S
C329 O336 1.240 . S
C329 O337 1.252 . S
C330 O333 1.252 . S
C330 O334 1.260 . S
O331 In325 2.266 . S
O331 C328 1.252 . S
O332 In325 2.326 . S
O332 C328 1.260 . S
O333 In325 2.266 . S
O333 C330 1.252 . S
O334 In325 2.326 . S
O334 C330 1.260 . S
C335 O326 1.240 . S
C335 O327 1.252 . S
O336 In325 2.294 . S
O336 C329 1.240 . S
O337 In325 2.326 . S
O337 C329 1.252 . S
In338 O339 2.294 . S
In338 O340 2.326 . S
In338 O344 2.266 . S
In338 O345 2.326 . S
In338 O346 2.266 . S
In338 O347 2.326 . S
In338 O349 2.294 . S
In338 O350 2.326 . S
O339 In338 2.294 . S
O339 C348 1.240 . S
O340 In338 2.326 . S
O340 C348 1.252 . S
C341 O344 1.252 . S
C341 O345 1.260 . S
C342 O349 1.240 . S
C342 O350 1.252 . S
C343 O346 1.252 . S
C343 O347 1.260 . S
O344 In338 2.266 . S
O344 C341 1.252 . S
O345 In338 2.326 . S
O345 C341 1.260 . S
O346 In338 2.266 . S
O346 C343 1.252 . S
O347 In338 2.326 . S
O347 C343 1.260 . S
C348 O339 1.240 . S
C348 O340 1.252 . S
O349 In338 2.294 . S
O349 C342 1.240 . S
O350 In338 2.326 . S
O350 C342 1.252 . S
In351 O352 2.295 . S
In351 O353 2.327 . S
In351 O357 2.266 . S
In351 O358 2.324 1_554 S
In351 O359 2.265 1_554 S
In351 O360 2.326 . S
In351 O362 2.293 1_554 S
In351 O363 2.326 1_554 S
O352 In351 2.295 . S
O352 C361 1.240 . S
O353 In351 2.327 . S
O353 C361 1.252 . S
C354 O357 1.252 1_556 S
C354 O358 1.260 . S
C355 O362 1.240 . S
C355 O363 1.252 . S
C356 O359 1.252 . S
C356 O360 1.260 1_556 S
O357 In351 2.266 . S
O357 C354 1.252 1_554 S
O358 In351 2.324 1_556 S
O358 C354 1.260 . S
O359 In351 2.265 1_556 S
O359 C356 1.252 . S
O360 In351 2.326 . S
O360 C356 1.260 1_554 S
C361 O352 1.240 . S
C361 O353 1.252 . S
O362 In351 2.293 1_556 S
O362 C355 1.240 . S
O363 In351 2.326 1_556 S
O363 C355 1.252 . S
In364 O365 2.295 1_556 S
In364 O366 2.326 . S
In364 O370 2.267 1_556 S
In364 O371 2.325 . S
In364 O372 2.265 . S
In364 O373 2.325 . S
In364 O375 2.293 . S
In364 O376 2.327 1_556 S
O365 In364 2.295 1_554 S
O365 C374 1.240 . S
O366 In364 2.326 . S
O366 C374 1.252 1_556 S
C367 O370 1.252 . S
C367 O371 1.260 1_554 S
C368 O375 1.240 . S
C368 O376 1.252 1_556 S
C369 O372 1.252 . S
C369 O373 1.260 . S
O370 In364 2.267 1_554 S
O370 C367 1.252 . S
O371 In364 2.325 . S
O371 C367 1.260 1_556 S
O372 In364 2.265 . S
O372 C369 1.252 . S
O373 In364 2.325 . S
O373 C369 1.260 . S
C374 O365 1.240 . S
C374 O366 1.252 1_554 S
O375 In364 2.293 . S
O375 C368 1.240 . S
O376 In364 2.327 1_554 S
O376 C368 1.252 1_554 S
In377 O378 2.294 . S
In377 O379 2.326 1_565 S
In377 O383 2.266 . S
In377 O384 2.326 . S
In377 O385 2.266 1_565 S
In377 O386 2.325 1_565 S
In377 O388 2.294 . S
In377 O389 2.327 . S
O378 In377 2.294 . S
O378 C387 1.237 1_565 S
O379 In377 2.326 1_545 S
O379 C387 1.252 . S
C380 O383 1.252 . S
C380 O384 1.260 . S
C381 O388 1.240 . S
C381 O389 1.252 . S
C382 O385 1.252 . S
C382 O386 1.260 . S
O383 In377 2.266 . S
O383 C380 1.252 . S
O384 In377 2.326 . S
O384 C380 1.260 . S
O385 In377 2.266 1_545 S
O385 C382 1.252 . S
O386 In377 2.325 1_545 S
O386 C382 1.260 . S
C387 O378 1.237 1_545 S
C387 O379 1.252 . S
O388 In377 2.294 . S
O388 C381 1.240 . S
O389 In377 2.327 . S
O389 C381 1.252 . S
In390 O391 2.294 . S
In390 O392 2.326 . S
In390 O396 2.266 . S
In390 O397 2.326 . S
In390 O398 2.266 . S
In390 O399 2.326 . S
In390 O401 2.294 . S
In390 O402 2.326 . S
O391 In390 2.294 . S
O391 C400 1.240 . S
O392 In390 2.326 . S
O392 C400 1.252 . S
C393 O396 1.252 . S
C393 O397 1.260 . S
C394 O401 1.240 . S
C394 O402 1.252 . S
C395 O398 1.252 . S
C395 O399 1.260 . S
O396 In390 2.266 . S
O396 C393 1.252 . S
O397 In390 2.326 . S
O397 C393 1.260 . S
O398 In390 2.266 . S
O398 C395 1.252 . S
O399 In390 2.326 . S
O399 C395 1.260 . S
C400 O391 1.240 . S
C400 O392 1.252 . S
O401 In390 2.294 . S
O401 C394 1.240 . S
O402 In390 2.326 . S
O402 C394 1.252 . S
In403 O404 2.294 . S
In403 O405 2.326 . S
In403 O409 2.266 . S
In403 O410 2.326 . S
In403 O411 2.266 . S
In403 O412 2.326 . S
In403 O414 2.294 . S
In403 O415 2.326 . S
O404 In403 2.294 . S
O404 C413 1.240 . S
O405 In403 2.326 . S
O405 C413 1.252 . S
C406 O409 1.252 . S
C406 O410 1.260 . S
C407 O414 1.240 . S
C407 O415 1.252 . S
C408 O411 1.252 . S
C408 O412 1.260 . S
O409 In403 2.266 . S
O409 C406 1.252 . S
O410 In403 2.326 . S
O410 C406 1.260 . S
O411 In403 2.266 . S
O411 C408 1.252 . S
O412 In403 2.326 . S
O412 C408 1.260 . S
C413 O404 1.240 . S
C413 O405 1.252 . S
O414 In403 2.294 . S
O414 C407 1.240 . S
O415 In403 2.326 . S
O415 C407 1.252 . S
In416 O417 2.294 . S
In416 O418 2.326 . S
In416 O422 2.266 . S
In416 O423 2.326 . S
In416 O424 2.266 . S
In416 O425 2.326 . S
In416 O427 2.294 . S
In416 O428 2.326 . S
O417 In416 2.294 . S
O417 C426 1.240 . S
O418 In416 2.326 . S
O418 C426 1.252 . S
C419 O422 1.252 . S
C419 O423 1.260 . S
C420 O427 1.240 . S
C420 O428 1.252 . S
C421 O424 1.252 . S
C421 O425 1.260 . S
O422 In416 2.266 . S
O422 C419 1.252 . S
O423 In416 2.326 . S
O423 C419 1.260 . S
O424 In416 2.266 . S
O424 C421 1.252 . S
O425 In416 2.326 . S
O425 C421 1.260 . S
C426 O417 1.240 . S
C426 O418 1.252 . S
O427 In416 2.294 . S
O427 C420 1.240 . S
O428 In416 2.326 . S
O428 C420 1.252 . S
In429 O430 2.294 1_456 S
In429 O431 2.326 1_556 S
In429 O435 2.266 1_455 S
In429 O436 2.326 . S
In429 O437 2.266 . S
In429 O438 2.326 1_455 S
In429 O440 2.294 . S
In429 O441 2.326 . S
O430 In429 2.294 1_654 S
O430 C439 1.240 . S
O431 In429 2.326 1_554 S
O431 C439 1.252 1_455 S
C432 O435 1.252 1_455 S
C432 O436 1.260 . S
C433 O440 1.240 . S
C433 O441 1.252 . S
C434 O437 1.252 1_655 S
C434 O438 1.260 . S
O435 In429 2.266 1_655 S
O435 C432 1.252 1_655 S
O436 In429 2.326 . S
O436 C432 1.260 . S
O437 In429 2.266 . S
O437 C434 1.252 1_455 S
O438 In429 2.326 1_655 S
O438 C434 1.260 . S
C439 O430 1.240 . S
C439 O431 1.252 1_655 S
O440 In429 2.294 . S
O440 C433 1.240 . S
O441 In429 2.326 . S
O441 C433 1.252 . S
In442 O443 2.294 . S
In442 O444 2.326 . S
In442 O448 2.266 . S
In442 O449 2.326 . S
In442 O450 2.266 . S
In442 O451 2.326 . S
In442 O453 2.294 . S
In442 O454 2.326 . S
O443 In442 2.294 . S
O443 C452 1.240 . S
O444 In442 2.326 . S
O444 C452 1.252 . S
C445 O448 1.252 . S
C445 O449 1.260 . S
C446 O453 1.240 . S
C446 O454 1.252 . S
C447 O450 1.252 . S
C447 O451 1.260 . S
O448 In442 2.266 . S
O448 C445 1.252 . S
O449 In442 2.326 . S
O449 C445 1.260 . S
O450 In442 2.266 . S
O450 C447 1.252 . S
O451 In442 2.326 . S
O451 C447 1.260 . S
C452 O443 1.240 . S
C452 O444 1.252 . S
O453 In442 2.294 . S
O453 C446 1.240 . S
O454 In442 2.326 . S
O454 C446 1.252 . S
In455 O456 2.294 . S
In455 O457 2.326 . S
In455 O461 2.266 . S
In455 O462 2.326 1_455 S
In455 O463 2.266 . S
In455 O464 2.326 . S
In455 O466 2.294 1_455 S
In455 O467 2.326 1_455 S
O456 In455 2.294 . S
O456 C465 1.240 . S
O457 In455 2.326 . S
O457 C465 1.252 . S
C458 O461 1.252 1_655 S
C458 O462 1.260 . S
C459 O466 1.240 . S
C459 O467 1.252 . S
C460 O463 1.252 . S
C460 O464 1.260 . S
O461 In455 2.266 . S
O461 C458 1.252 1_455 S
O462 In455 2.326 1_655 S
O462 C458 1.260 . S
O463 In455 2.266 . S
O463 C460 1.252 . S
O464 In455 2.326 . S
O464 C460 1.260 . S
C465 O456 1.240 . S
C465 O457 1.252 . S
O466 In455 2.294 1_655 S
O466 C459 1.240 . S
O467 In455 2.326 1_655 S
O467 C459 1.252 . S
In468 O469 2.294 . S
In468 O470 2.326 . S
In468 O474 2.266 . S
In468 O475 2.326 . S
In468 O476 2.266 . S
In468 O477 2.326 . S
In468 O479 2.294 . S
In468 O480 2.326 . S
O469 In468 2.294 . S
O469 C478 1.240 . S
O470 In468 2.326 . S
O470 C478 1.252 . S
C471 O474 1.252 . S
C471 O475 1.260 . S
C472 O479 1.240 . S
C472 O480 1.252 . S
C473 O476 1.252 . S
C473 O477 1.260 . S
O474 In468 2.266 . S
O474 C471 1.252 . S
O475 In468 2.326 . S
O475 C471 1.260 . S
O476 In468 2.266 . S
O476 C473 1.252 . S
O477 In468 2.326 . S
O477 C473 1.260 . S
C478 O469 1.240 . S
C478 O470 1.252 . S
O479 In468 2.294 . S
O479 C472 1.240 . S
O480 In468 2.326 . S
O480 C472 1.252 . S
In481 O482 2.294 . S
In481 O483 2.311 1_556 S
In481 O487 2.266 . S
In481 O488 2.326 . S
In481 O489 2.266 . S
In481 O490 2.326 . S
In481 O492 2.294 . S
In481 O493 2.326 . S
O482 In481 2.294 . S
O482 C491 1.240 1_556 S
O483 In481 2.311 1_554 S
O483 C491 1.258 . S
C484 O487 1.252 . S
C484 O488 1.260 . S
C485 O492 1.240 . S
C485 O493 1.252 . S
C486 O489 1.252 . S
C486 O490 1.260 . S
O487 In481 2.266 . S
O487 C484 1.252 . S
O488 In481 2.326 . S
O488 C484 1.260 . S
O489 In481 2.266 . S
O489 C486 1.252 . S
O490 In481 2.326 . S
O490 C486 1.260 . S
C491 O482 1.240 1_554 S
C491 O483 1.258 . S
O492 In481 2.294 . S
O492 C485 1.240 . S
O493 In481 2.326 . S
O493 C485 1.252 . S
In494 O495 2.294 . S
In494 O496 2.326 . S
In494 O500 2.266 . S
In494 O501 2.326 . S
In494 O502 2.266 . S
In494 O503 2.326 . S
In494 O505 2.294 . S
In494 O506 2.326 . S
O495 In494 2.294 . S
O495 C504 1.240 . S
O496 In494 2.326 . S
O496 C504 1.252 . S
C497 O500 1.252 . S
C497 O501 1.260 . S
C498 O505 1.240 . S
C498 O506 1.252 . S
C499 O502 1.252 . S
C499 O503 1.260 . S
O500 In494 2.266 . S
O500 C497 1.252 . S
O501 In494 2.326 . S
O501 C497 1.260 . S
O502 In494 2.266 . S
O502 C499 1.252 . S
O503 In494 2.326 . S
O503 C499 1.260 . S
C504 O495 1.240 . S
C504 O496 1.252 . S
O505 In494 2.294 . S
O505 C498 1.240 . S
O506 In494 2.326 . S
O506 C498 1.252 . S
In507 O508 2.294 . S
In507 O509 2.326 . S
In507 O513 2.266 . S
In507 O514 2.326 . S
In507 O515 2.266 . S
In507 O516 2.326 . S
In507 O518 2.294 . S
In507 O519 2.326 . S
O508 In507 2.294 . S
O508 C517 1.240 . S
O509 In507 2.326 . S
O509 C517 1.252 . S
C510 O513 1.252 . S
C510 O514 1.260 . S
C511 O518 1.240 . S
C511 O519 1.252 . S
C512 O515 1.252 . S
C512 O516 1.260 . S
O513 In507 2.266 . S
O513 C510 1.252 . S
O514 In507 2.326 . S
O514 C510 1.260 . S
O515 In507 2.266 . S
O515 C512 1.252 . S
O516 In507 2.326 . S
O516 C512 1.260 . S
C517 O508 1.240 . S
C517 O509 1.252 . S
O518 In507 2.294 . S
O518 C511 1.240 . S
O519 In507 2.326 . S
O519 C511 1.252 . S
In520 O521 2.295 . S
In520 O522 2.327 . S
In520 O526 2.266 1_545 S
In520 O527 2.325 1_545 S
In520 O528 2.266 1_545 S
In520 O529 2.326 . S
In520 O531 2.293 1_545 S
In520 O532 2.326 1_545 S
O521 In520 2.295 . S
O521 C530 1.240 . S
O522 In520 2.327 . S
O522 C530 1.252 . S
C523 O526 1.252 . S
C523 O527 1.260 . S
C524 O531 1.240 . S
C524 O532 1.252 . S
C525 O528 1.252 1_545 S
C525 O529 1.260 . S
O526 In520 2.266 1_565 S
O526 C523 1.252 . S
O527 In520 2.325 1_565 S
O527 C523 1.260 . S
O528 In520 2.266 1_565 S
O528 C525 1.252 1_565 S
O529 In520 2.326 . S
O529 C525 1.260 . S
C530 O521 1.240 . S
C530 O522 1.252 . S
O531 In520 2.293 1_565 S
O531 C524 1.240 . S
O532 In520 2.326 1_565 S
O532 C524 1.252 . S
In533 O534 2.295 . S
In533 O535 2.327 . S
In533 O539 2.267 . S
In533 O540 2.325 1_554 S
In533 O541 2.265 1_554 S
In533 O542 2.326 . S
In533 O544 2.293 1_554 S
In533 O545 2.326 . S
O534 In533 2.295 . S
O534 C543 1.240 . S
O535 In533 2.327 . S
O535 C543 1.252 . S
C536 O539 1.252 . S
C536 O540 1.260 1_554 S
C537 O544 1.240 . S
C537 O545 1.252 1_556 S
C538 O541 1.252 . S
C538 O542 1.260 1_556 S
O539 In533 2.267 . S
O539 C536 1.252 . S
O540 In533 2.325 1_556 S
O540 C536 1.260 1_556 S
O541 In533 2.265 1_556 S
O541 C538 1.252 . S
O542 In533 2.326 . S
O542 C538 1.260 1_554 S
C543 O534 1.240 . S
C543 O535 1.252 . S
O544 In533 2.293 1_556 S
O544 C537 1.240 . S
O545 In533 2.326 . S
O545 C537 1.252 1_554 S
In546 O547 2.294 1_655 S
In546 O548 2.326 . S
In546 O552 2.267 1_655 S
In546 O553 2.325 1_655 S
In546 O554 2.266 . S
In546 O555 2.325 . S
In546 O557 2.294 . S
In546 O558 2.327 1_655 S
O547 In546 2.294 1_455 S
O547 C556 1.240 . S
O548 In546 2.326 . S
O548 C556 1.252 1_655 S
C549 O552 1.252 . S
C549 O553 1.274 . S
C550 O557 1.240 . S
C550 O558 1.252 1_655 S
C551 O554 1.252 . S
C551 O555 1.260 . S
O552 In546 2.267 1_455 S
O552 C549 1.252 . S
O553 In546 2.325 1_455 S
O553 C549 1.274 . S
O554 In546 2.266 . S
O554 C551 1.252 . S
O555 In546 2.325 . S
O555 C551 1.260 . S
C556 O547 1.240 . S
C556 O548 1.252 1_455 S
O557 In546 2.294 . S
O557 C550 1.240 . S
O558 In546 2.327 1_455 S
O558 C550 1.252 1_455 S
In559 O560 2.294 1_655 S
In559 O561 2.326 . S
In559 O565 2.266 1_655 S
In559 O566 2.326 . S
In559 O567 2.266 . S
In559 O568 2.326 . S
In559 O570 2.294 . S
In559 O571 2.326 1_655 S
O560 In559 2.294 1_455 S
O560 C569 1.240 1_455 S
O561 In559 2.326 . S
O561 C569 1.252 . S
C562 O565 1.252 . S
C562 O566 1.260 1_455 S
C563 O570 1.240 1_455 S
C563 O571 1.252 . S
C564 O567 1.252 . S
C564 O568 1.260 . S
O565 In559 2.266 1_455 S
O565 C562 1.252 . S
O566 In559 2.326 . S
O566 C562 1.260 1_655 S
O567 In559 2.266 . S
O567 C564 1.252 . S
O568 In559 2.326 . S
O568 C564 1.260 . S
C569 O560 1.240 1_655 S
C569 O561 1.252 . S
O570 In559 2.294 . S
O570 C563 1.240 1_655 S
O571 In559 2.326 1_455 S
O571 C563 1.252 . S
In572 O573 2.294 1_565 S
In572 O574 2.326 . S
In572 O578 2.266 1_565 S
In572 O579 2.326 . S
In572 O580 2.266 . S
In572 O581 2.320 1_565 S
In572 O583 2.294 . S
In572 O584 2.326 . S
O573 In572 2.294 1_545 S
O573 C582 1.240 1_545 S
O574 In572 2.326 . S
O574 C582 1.252 . S
C575 O578 1.252 1_565 S
C575 O579 1.260 . S
C576 O583 1.240 . S
C576 O584 1.252 . S
C577 O580 1.252 . S
C577 O581 1.250 1_565 S
O578 In572 2.266 1_545 S
O578 C575 1.252 1_545 S
O579 In572 2.326 . S
O579 C575 1.260 . S
O580 In572 2.266 . S
O580 C577 1.252 . S
O581 In572 2.320 1_545 S
O581 C577 1.250 1_545 S
C582 O573 1.240 1_565 S
C582 O574 1.252 . S
O583 In572 2.294 . S
O583 C576 1.240 . S
O584 In572 2.326 . S
O584 C576 1.252 . S
In585 O586 2.294 1_554 S
In585 O587 2.326 1_554 S
In585 O591 2.266 . S
In585 O592 2.326 . S
In585 O593 2.266 . S
In585 O594 2.326 1_554 S
In585 O596 2.294 . S
In585 O597 2.326 . S
O586 In585 2.294 1_556 S
O586 C595 1.240 . S
O587 In585 2.326 1_556 S
O587 C595 1.252 . S
C588 O591 1.252 . S
C588 O592 1.260 . S
C589 O596 1.240 . S
C589 O597 1.252 . S
C590 O593 1.252 . S
C590 O594 1.260 1_554 S
O591 In585 2.266 . S
O591 C588 1.252 . S
O592 In585 2.326 . S
O592 C588 1.260 . S
O593 In585 2.266 . S
O593 C590 1.252 . S
O594 In585 2.326 1_556 S
O594 C590 1.260 1_556 S
C595 O586 1.240 . S
C595 O587 1.252 . S
O596 In585 2.294 . S
O596 C589 1.240 . S
O597 In585 2.326 . S
O597 C589 1.252 . S
In598 O599 2.294 . S
In598 O600 2.326 . S
In598 O604 2.266 . S
In598 O605 2.326 . S
In598 O606 2.266 . S
In598 O607 2.326 . S
In598 O609 2.294 . S
In598 O610 2.326 . S
O599 In598 2.294 . S
O599 C608 1.240 . S
O600 In598 2.326 . S
O600 C608 1.252 . S
C601 O604 1.252 . S
C601 O605 1.260 . S
C602 O609 1.240 . S
C602 O610 1.252 . S
C603 O606 1.252 . S
C603 O607 1.260 . S
O604 In598 2.266 . S
O604 C601 1.252 . S
O605 In598 2.326 . S
O605 C601 1.260 . S
O606 In598 2.266 . S
O606 C603 1.252 . S
O607 In598 2.326 . S
O607 C603 1.260 . S
C608 O599 1.240 . S
C608 O600 1.252 . S
O609 In598 2.294 . S
O609 C602 1.240 . S
O610 In598 2.326 . S
O610 C602 1.252 . S
In611 O612 2.294 . S
In611 O613 2.326 . S
In611 O617 2.266 . S
In611 O618 2.326 . S
In611 O619 2.266 . S
In611 O620 2.326 . S
In611 O622 2.294 . S
In611 O623 2.326 . S
O612 In611 2.294 . S
O612 C621 1.240 . S
O613 In611 2.326 . S
O613 C621 1.252 . S
C614 O617 1.252 . S
C614 O618 1.260 . S
C615 O622 1.240 . S
C615 O623 1.252 . S
C616 O619 1.252 . S
C616 O620 1.260 . S
O617 In611 2.266 . S
O617 C614 1.252 . S
O618 In611 2.326 . S
O618 C614 1.260 . S
O619 In611 2.266 . S
O619 C616 1.252 . S
O620 In611 2.326 . S
O620 C616 1.260 . S
C621 O612 1.240 . S
C621 O613 1.252 . S
O622 In611 2.294 . S
O622 C615 1.240 . S
O623 In611 2.326 . S
O623 C615 1.252 . S
C624 C625 1.387 . S
C624 H628 0.950 . S
C624 C633 1.390 . S
C625 C624 1.387 . S
C625 C627 1.387 . S
H626 C633 0.950 . S
C627 C625 1.387 . S
C627 C629 1.390 . S
C627 H631 0.950 . S
H628 C624 0.950 . S
C629 C627 1.390 . S
C629 C630 1.387 . S
C629 H632 0.950 . S
C630 C629 1.387 . S
C630 C633 1.387 . S
H631 C627 0.950 . S
H632 C629 0.950 . S
C633 C624 1.390 . S
C633 H626 0.950 . S
C633 C630 1.387 . S
C634 C635 1.387 . S
C634 H638 0.950 . S
C634 C643 1.390 . S
C635 C634 1.387 . S
C635 C637 1.387 . S
H636 C643 0.950 . S
C637 C635 1.387 . S
C637 C639 1.390 . S
C637 H641 0.950 . S
H638 C634 0.950 . S
C639 C637 1.390 . S
C639 C640 1.387 . S
C639 H642 0.950 . S
C640 C639 1.387 . S
C640 C643 1.387 . S
H641 C637 0.950 . S
H642 C639 0.950 . S
C643 C634 1.390 . S
C643 H636 0.950 . S
C643 C640 1.387 . S
C644 C645 1.387 . S
C644 H648 0.950 . S
C644 C653 1.390 . S
C645 C644 1.387 . S
C645 C647 1.387 . S
H646 C653 0.950 . S
C647 C645 1.387 . S
C647 C649 1.390 . S
C647 H651 0.950 . S
H648 C644 0.950 . S
C649 C647 1.390 . S
C649 C650 1.387 . S
C649 H652 0.950 . S
C650 C649 1.387 . S
C650 C653 1.387 . S
H651 C647 0.950 . S
H652 C649 0.950 . S
C653 C644 1.390 . S
C653 H646 0.950 . S
C653 C650 1.387 . S
C654 C655 1.387 . S
C654 H658 0.950 . S
C654 C663 1.390 . S
C655 C654 1.387 . S
C655 C657 1.387 1_545 S
H656 C663 0.950 . S
C657 C655 1.387 1_565 S
C657 C659 1.390 1_565 S
C657 H661 0.950 . S
H658 C654 0.950 . S
C659 C657 1.390 1_545 S
C659 C660 1.387 . S
C659 H662 0.950 1_545 S
C660 C659 1.387 . S
C660 C663 1.387 . S
H661 C657 0.950 . S
H662 C659 0.950 1_565 S
C663 C654 1.390 . S
C663 H656 0.950 . S
C663 C660 1.387 . S
C664 C665 1.387 . S
C664 H668 0.950 . S
C664 C673 1.390 . S
C665 C664 1.387 . S
C665 C667 1.387 . S
H666 C673 0.950 . S
C667 C665 1.387 . S
C667 C669 1.390 . S
C667 H671 0.950 . S
H668 C664 0.950 . S
C669 C667 1.390 . S
C669 C670 1.387 . S
C669 H672 0.950 . S
C670 C669 1.387 . S
C670 C673 1.387 . S
H671 C667 0.950 . S
H672 C669 0.950 . S
C673 C664 1.390 . S
C673 H666 0.950 . S
C673 C670 1.387 . S
C674 C675 1.387 . S
C674 H678 0.950 . S
C674 C683 1.390 . S
C675 C674 1.387 . S
C675 C677 1.387 . S
H676 C683 0.950 . S
C677 C675 1.387 . S
C677 C679 1.390 . S
C677 H681 0.950 . S
H678 C674 0.950 . S
C679 C677 1.390 . S
C679 C680 1.387 . S
C679 H682 0.950 . S
C680 C679 1.387 . S
C680 C683 1.387 . S
H681 C677 0.950 . S
H682 C679 0.950 . S
C683 C674 1.390 . S
C683 H676 0.950 . S
C683 C680 1.387 . S
C684 C685 1.387 . S
C684 H688 0.950 1_545 S
C684 C693 1.390 1_545 S
C685 C684 1.387 . S
C685 C687 1.387 . S
H686 C693 0.950 . S
C687 C685 1.387 . S
C687 C689 1.390 . S
C687 H691 0.950 . S
H688 C684 0.950 1_565 S
C689 C687 1.390 . S
C689 C690 1.387 . S
C689 H692 0.950 . S
C690 C689 1.387 . S
C690 C693 1.387 1_545 S
H691 C687 0.950 . S
H692 C689 0.950 . S
C693 C684 1.390 1_565 S
C693 H686 0.950 . S
C693 C690 1.387 1_565 S
C694 C695 1.387 . S
C694 H698 0.950 . S
C694 C703 1.390 . S
C695 C694 1.387 . S
C695 C697 1.387 . S
H696 C703 0.950 . S
C697 C695 1.387 . S
C697 C699 1.390 . S
C697 H701 0.950 . S
H698 C694 0.950 . S
C699 C697 1.390 . S
C699 C700 1.387 . S
C699 H702 0.950 . S
C700 C699 1.387 . S
C700 C703 1.387 . S
H701 C697 0.950 . S
H702 C699 0.950 . S
C703 C694 1.390 . S
C703 H696 0.950 . S
C703 C700 1.387 . S
C704 C705 1.387 . S
C704 H708 0.950 . S
C704 C713 1.390 . S
C705 C704 1.387 . S
C705 C707 1.387 . S
H706 C713 0.950 . S
C707 C705 1.387 . S
C707 C709 1.390 . S
C707 H711 0.950 . S
H708 C704 0.950 . S
C709 C707 1.390 . S
C709 C710 1.387 . S
C709 H712 0.950 . S
C710 C709 1.387 . S
C710 C713 1.387 . S
H711 C707 0.950 . S
H712 C709 0.950 . S
C713 C704 1.390 . S
C713 H706 0.950 . S
C713 C710 1.387 . S
C714 C715 1.387 . S
C714 H718 0.950 . S
C714 C723 1.390 . S
C715 C714 1.387 . S
C715 C717 1.387 1_455 S
H716 C723 0.950 . S
C717 C715 1.387 1_655 S
C717 C719 1.390 1_655 S
C717 H721 0.950 . S
H718 C714 0.950 . S
C719 C717 1.390 1_455 S
C719 C720 1.387 . S
C719 H722 0.950 1_455 S
C720 C719 1.387 . S
C720 C723 1.387 . S
H721 C717 0.950 . S
H722 C719 0.950 1_655 S
C723 C714 1.390 . S
C723 H716 0.950 . S
C723 C720 1.387 . S
C724 C725 1.387 . S
C724 H728 0.950 . S
C724 C733 1.390 . S
C725 C724 1.387 . S
C725 C727 1.387 . S
H726 C733 0.950 . S
C727 C725 1.387 . S
C727 C729 1.390 . S
C727 H731 0.950 . S
H728 C724 0.950 . S
C729 C727 1.390 . S
C729 C730 1.387 . S
C729 H732 0.950 . S
C730 C729 1.387 . S
C730 C733 1.387 . S
H731 C727 0.950 . S
H732 C729 0.950 . S
C733 C724 1.390 . S
C733 H726 0.950 . S
C733 C730 1.387 . S
C734 C735 1.387 . S
C734 H738 0.950 . S
C734 C743 1.390 . S
C735 C734 1.387 . S
C735 C737 1.387 . S
H736 C743 0.950 . S
C737 C735 1.387 . S
C737 C739 1.390 . S
C737 H741 0.950 . S
H738 C734 0.950 . S
C739 C737 1.390 . S
C739 C740 1.387 . S
C739 H742 0.950 . S
C740 C739 1.387 . S
C740 C743 1.387 . S
H741 C737 0.950 . S
H742 C739 0.950 . S
C743 C734 1.390 . S
C743 H736 0.950 . S
C743 C740 1.387 . S
C744 C745 1.387 . S
C744 H748 0.950 . S
C744 C753 1.390 . S
C745 C744 1.387 . S
C745 C747 1.387 . S
H746 C753 0.950 . S
C747 C745 1.387 . S
C747 C749 1.390 . S
C747 H751 0.950 . S
H748 C744 0.950 . S
C749 C747 1.390 . S
C749 C750 1.387 . S
C749 H752 0.950 . S
C750 C749 1.387 . S
C750 C753 1.387 . S
H751 C747 0.950 . S
H752 C749 0.950 . S
C753 C744 1.390 . S
C753 H746 0.950 . S
C753 C750 1.387 . S
C754 C755 1.387 . S
C754 H758 0.950 . S
C754 C763 1.390 . S
C755 C754 1.387 . S
C755 C757 1.387 . S
H756 C763 0.950 . S
C757 C755 1.387 . S
C757 C759 1.390 . S
C757 H761 0.950 . S
H758 C754 0.950 . S
C759 C757 1.390 . S
C759 C760 1.387 . S
C759 H762 0.950 . S
C760 C759 1.387 . S
C760 C763 1.387 . S
H761 C757 0.950 . S
H762 C759 0.950 . S
C763 C754 1.390 . S
C763 H756 0.950 . S
C763 C760 1.387 . S
C764 C765 1.387 . S
C764 H768 0.950 . S
C764 C773 1.390 . S
C765 C764 1.387 . S
C765 C767 1.387 . S
H766 C773 0.950 . S
C767 C765 1.387 . S
C767 C769 1.390 . S
C767 H771 0.950 . S
H768 C764 0.950 . S
C769 C767 1.390 . S
C769 C770 1.387 . S
C769 H772 0.950 . S
C770 C769 1.387 . S
C770 C773 1.387 . S
H771 C767 0.950 . S
H772 C769 0.950 . S
C773 C764 1.390 . S
C773 H766 0.950 . S
C773 C770 1.387 . S
C774 C775 1.387 . S
C774 H778 0.950 . S
C774 C783 1.390 . S
C775 C774 1.387 . S
C775 C777 1.387 . S
H776 C783 0.950 . S
C777 C775 1.387 . S
C777 C779 1.390 . S
C777 H781 0.950 . S
H778 C774 0.950 . S
C779 C777 1.390 . S
C779 C780 1.387 . S
C779 H782 0.950 . S
C780 C779 1.387 . S
C780 C783 1.387 . S
H781 C777 0.950 . S
H782 C779 0.950 . S
C783 C774 1.390 . S
C783 H776 0.950 . S
C783 C780 1.387 . S
C784 C785 1.387 1_455 S
C784 H788 0.950 . S
C784 C793 1.390 . S
C785 C784 1.387 1_655 S
C785 C787 1.387 . S
H786 C793 0.950 . S
C787 C785 1.387 . S
C787 C789 1.390 . S
C787 H791 0.950 . S
H788 C784 0.950 . S
C789 C787 1.390 . S
C789 C790 1.387 1_655 S
C789 H792 0.950 . S
C790 C789 1.387 1_455 S
C790 C793 1.387 . S
H791 C787 0.950 . S
H792 C789 0.950 . S
C793 C784 1.390 . S
C793 H786 0.950 . S
C793 C790 1.387 . S
C794 C795 1.387 . S
C794 H798 0.950 . S
C794 C803 1.390 . S
C795 C794 1.387 . S
C795 C797 1.387 . S
H796 C803 0.950 . S
C797 C795 1.387 . S
C797 C799 1.390 . S
C797 H801 0.950 . S
H798 C794 0.950 . S
C799 C797 1.390 . S
C799 C800 1.387 . S
C799 H802 0.950 . S
C800 C799 1.387 . S
C800 C803 1.387 . S
H801 C797 0.950 . S
H802 C799 0.950 . S
C803 C794 1.390 . S
C803 H796 0.950 . S
C803 C800 1.387 . S
C804 C805 1.387 . S
C804 H808 0.950 . S
C804 C813 1.390 . S
C805 C804 1.387 . S
C805 C807 1.387 . S
H806 C813 0.950 . S
C807 C805 1.387 . S
C807 C809 1.390 . S
C807 H811 0.950 . S
H808 C804 0.950 . S
C809 C807 1.390 . S
C809 C810 1.387 . S
C809 H812 0.950 . S
C810 C809 1.387 . S
C810 C813 1.387 . S
H811 C807 0.950 . S
H812 C809 0.950 . S
C813 C804 1.390 . S
C813 H806 0.950 . S
C813 C810 1.387 . S
C814 C815 1.387 1_554 S
C814 H818 0.950 . S
C814 C823 1.390 . S
C815 C814 1.387 1_556 S
C815 C817 1.387 . S
H816 C823 0.950 . S
C817 C815 1.387 . S
C817 C819 1.390 . S
C817 H821 0.950 . S
H818 C814 0.950 . S
C819 C817 1.390 . S
C819 C820 1.387 1_556 S
C819 H822 0.950 . S
C820 C819 1.387 1_554 S
C820 C823 1.387 . S
H821 C817 0.950 . S
H822 C819 0.950 . S
C823 C814 1.390 . S
C823 H816 0.950 . S
C823 C820 1.387 . S
C824 C825 1.387 . S
C824 H828 0.950 . S
C824 C833 1.390 . S
C825 C824 1.387 . S
C825 C827 1.387 . S
H826 C833 0.950 . S
C827 C825 1.387 . S
C827 C829 1.390 . S
C827 H831 0.950 . S
H828 C824 0.950 . S
C829 C827 1.390 . S
C829 C830 1.387 . S
C829 H832 0.950 . S
C830 C829 1.387 . S
C830 C833 1.387 . S
H831 C827 0.950 . S
H832 C829 0.950 . S
C833 C824 1.390 . S
C833 H826 0.950 . S
C833 C830 1.387 . S
C834 C835 1.387 . S
C834 H838 0.950 . S
C834 C843 1.390 . S
C835 C834 1.387 . S
C835 C837 1.387 . S
H836 C843 0.950 . S
C837 C835 1.387 . S
C837 C839 1.390 . S
C837 H841 0.950 . S
H838 C834 0.950 . S
C839 C837 1.390 . S
C839 C840 1.387 . S
C839 H842 0.950 . S
C840 C839 1.387 . S
C840 C843 1.387 . S
H841 C837 0.950 . S
H842 C839 0.950 . S
C843 C834 1.390 . S
C843 H836 0.950 . S
C843 C840 1.387 . S
C844 C845 1.387 . S
C844 H848 0.950 . S
C844 C853 1.390 . S
C845 C844 1.387 . S
C845 C847 1.387 . S
H846 C853 0.950 . S
C847 C845 1.387 . S
C847 C849 1.390 . S
C847 H851 0.950 . S
H848 C844 0.950 . S
C849 C847 1.390 . S
C849 C850 1.387 . S
C849 H852 0.950 . S
C850 C849 1.387 . S
C850 C853 1.387 . S
H851 C847 0.950 . S
H852 C849 0.950 . S
C853 C844 1.390 . S
C853 H846 0.950 . S
C853 C850 1.387 . S
C854 C855 1.387 1_545 S
C854 H858 0.950 . S
C854 C863 1.390 1_545 S
C855 C854 1.387 1_565 S
C855 C857 1.387 . S
H856 C863 0.950 . S
C857 C855 1.387 . S
C857 C859 1.390 . S
C857 H861 0.950 . S
H858 C854 0.950 . S
C859 C857 1.390 . S
C859 C860 1.387 . S
C859 H862 0.950 . S
C860 C859 1.387 . S
C860 C863 1.387 . S
H861 C857 0.950 . S
H862 C859 0.950 . S
C863 C854 1.390 1_565 S
C863 H856 0.950 . S
C863 C860 1.387 . S
C864 C865 1.387 . S
C864 H868 0.950 . S
C864 C873 1.390 . S
C865 C864 1.387 . S
C865 C867 1.387 . S
H866 C873 0.950 . S
C867 C865 1.387 . S
C867 C869 1.390 . S
C867 H871 0.950 . S
H868 C864 0.950 . S
C869 C867 1.390 . S
C869 C870 1.387 . S
C869 H872 0.950 . S
C870 C869 1.387 . S
C870 C873 1.387 . S
H871 C867 0.950 . S
H872 C869 0.950 . S
C873 C864 1.390 . S
C873 H866 0.950 . S
C873 C870 1.387 . S
C874 C875 1.387 1_545 S
C874 H878 0.950 . S
C874 C883 1.380 1_545 S
C875 C874 1.387 1_565 S
C875 C877 1.387 . S
H876 C883 0.928 1_545 S
C877 C875 1.387 . S
C877 C879 1.390 . S
C877 H881 0.950 . S
H878 C874 0.950 . S
C879 C877 1.390 . S
C879 C880 1.387 . S
C879 H882 0.950 . S
C880 C879 1.387 . S
C880 C883 1.420 . S
H881 C877 0.950 . S
H882 C879 0.950 . S
C883 C874 1.380 1_565 S
C883 H876 0.928 1_565 S
C883 C880 1.420 . S
C884 C885 1.387 . S
C884 H888 0.950 . S
C884 C893 1.390 . S
C885 C884 1.387 . S
C885 C887 1.387 . S
H886 C893 0.950 . S
C887 C885 1.387 . S
C887 C889 1.390 . S
C887 H891 0.950 . S
H888 C884 0.950 . S
C889 C887 1.390 . S
C889 C890 1.387 . S
C889 H892 0.950 . S
C890 C889 1.387 . S
C890 C893 1.387 . S
H891 C887 0.950 . S
H892 C889 0.950 . S
C893 C884 1.390 . S
C893 H886 0.950 . S
C893 C890 1.387 . S
C894 C895 1.387 . S
C894 H898 0.950 . S
C894 C903 1.390 . S
C895 C894 1.387 . S
C895 C897 1.387 . S
H896 C903 0.950 . S
C897 C895 1.387 . S
C897 C899 1.390 . S
C897 H901 0.950 . S
H898 C894 0.950 . S
C899 C897 1.390 . S
C899 C900 1.387 . S
C899 H902 0.950 . S
C900 C899 1.387 . S
C900 C903 1.387 . S
H901 C897 0.950 . S
H902 C899 0.950 . S
C903 C894 1.390 . S
C903 H896 0.950 . S
C903 C900 1.387 . S
C904 C905 1.387 . S
C904 H908 0.950 . S
C904 C913 1.390 . S
C905 C904 1.387 . S
C905 C907 1.387 1_554 S
H906 C913 0.950 . S
C907 C905 1.387 1_556 S
C907 C909 1.390 . S
C907 H911 0.950 . S
H908 C904 0.950 . S
C909 C907 1.390 . S
C909 C910 1.387 1_556 S
C909 H912 0.950 . S
C910 C909 1.387 1_554 S
C910 C913 1.387 . S
H911 C907 0.950 . S
H912 C909 0.950 . S
C913 C904 1.390 . S
C913 H906 0.950 . S
C913 C910 1.387 . S
C914 C915 1.387 . S
C914 H918 0.950 . S
C914 C923 1.390 . S
C915 C914 1.387 . S
C915 C917 1.387 . S
H916 C923 0.950 . S
C917 C915 1.387 . S
C917 C919 1.390 . S
C917 H921 0.950 . S
H918 C914 0.950 . S
C919 C917 1.390 . S
C919 C920 1.387 . S
C919 H922 0.950 . S
C920 C919 1.387 . S
C920 C923 1.387 . S
H921 C917 0.950 . S
H922 C919 0.950 . S
C923 C914 1.390 . S
C923 H916 0.950 . S
C923 C920 1.387 . S
C924 C925 1.387 . S
C924 H928 0.950 . S
C924 C933 1.390 . S
C925 C924 1.387 . S
C925 C927 1.387 . S
H926 C933 0.950 . S
C927 C925 1.387 . S
C927 C929 1.390 . S
C927 H931 0.950 . S
H928 C924 0.950 . S
C929 C927 1.390 . S
C929 C930 1.387 . S
C929 H932 0.950 . S
C930 C929 1.387 . S
C930 C933 1.387 . S
H931 C927 0.950 . S
H932 C929 0.950 . S
C933 C924 1.390 . S
C933 H926 0.950 . S
C933 C930 1.387 . S
C934 C935 1.387 . S
C934 H938 0.950 . S
C934 C943 1.390 . S
C935 C934 1.387 . S
C935 C937 1.387 . S
H936 C943 0.950 . S
C937 C935 1.387 . S
C937 C939 1.390 . S
C937 H941 0.950 . S
H938 C934 0.950 . S
C939 C937 1.390 . S
C939 C940 1.387 . S
C939 H942 0.950 . S
C940 C939 1.387 . S
C940 C943 1.387 . S
H941 C937 0.950 . S
H942 C939 0.950 . S
C943 C934 1.390 . S
C943 H936 0.950 . S
C943 C940 1.387 . S
C944 C945 1.387 . S
C944 H948 0.950 . S
C944 C953 1.390 . S
C945 C944 1.387 . S
C945 C947 1.387 . S
H946 C953 0.950 . S
C947 C945 1.387 . S
C947 C949 1.390 . S
C947 H951 0.950 . S
H948 C944 0.950 . S
C949 C947 1.390 . S
C949 C950 1.387 . S
C949 H952 0.950 . S
C950 C949 1.387 . S
C950 C953 1.387 . S
H951 C947 0.950 . S
H952 C949 0.950 . S
C953 C944 1.390 . S
C953 H946 0.950 . S
C953 C950 1.387 . S
C954 C955 1.387 1_556 S
C954 H958 0.950 . S
C954 C963 1.390 . S
C955 C954 1.387 1_554 S
C955 C957 1.387 . S
H956 C963 0.950 . S
C957 C955 1.387 . S
C957 C959 1.390 . S
C957 H961 0.950 . S
H958 C954 0.950 . S
C959 C957 1.390 . S
C959 C960 1.387 1_554 S
C959 H962 0.950 . S
C960 C959 1.387 1_556 S
C960 C963 1.387 . S
H961 C957 0.950 . S
H962 C959 0.950 . S
C963 C954 1.390 . S
C963 H956 0.950 . S
C963 C960 1.387 . S
C964 C965 1.387 . S
C964 H968 0.950 . S
C964 C973 1.390 . S
C965 C964 1.387 . S
C965 C967 1.387 . S
H966 C973 0.950 . S
C967 C965 1.387 . S
C967 C969 1.390 . S
C967 H971 0.950 . S
H968 C964 0.950 . S
C969 C967 1.390 . S
C969 C970 1.387 . S
C969 H972 0.950 . S
C970 C969 1.387 . S
C970 C973 1.387 . S
H971 C967 0.950 . S
H972 C969 0.950 . S
C973 C964 1.390 . S
C973 H966 0.950 . S
C973 C970 1.387 . S
C974 C975 1.387 . S
C974 H978 0.950 . S
C974 C983 1.390 . S
C975 C974 1.387 . S
C975 C977 1.387 . S
H976 C983 0.950 . S
C977 C975 1.387 . S
C977 C979 1.390 . S
C977 H981 0.950 . S
H978 C974 0.950 . S
C979 C977 1.390 . S
C979 C980 1.387 . S
C979 H982 0.950 . S
C980 C979 1.387 . S
C980 C983 1.387 . S
H981 C977 0.950 . S
H982 C979 0.950 . S
C983 C974 1.390 . S
C983 H976 0.950 . S
C983 C980 1.387 . S
C984 C985 1.387 . S
C984 H988 0.950 . S
C984 C993 1.390 . S
C985 C984 1.387 . S
C985 C987 1.387 . S
H986 C993 0.950 . S
C987 C985 1.387 . S
C987 C989 1.390 . S
C987 H991 0.950 . S
H988 C984 0.950 . S
C989 C987 1.390 . S
C989 C990 1.387 . S
C989 H992 0.950 . S
C990 C989 1.387 . S
C990 C993 1.387 . S
H991 C987 0.950 . S
H992 C989 0.950 . S
C993 C984 1.390 . S
C993 H986 0.950 . S
C993 C990 1.387 . S
C994 C995 1.387 . S
C994 H998 0.950 . S
C994 C1003 1.390 . S
C995 C994 1.387 . S
C995 C997 1.387 . S
H996 C1003 0.950 . S
C997 C995 1.387 . S
C997 C999 1.390 . S
C997 H1001 0.950 . S
H998 C994 0.950 . S
C999 C997 1.390 . S
C999 C1000 1.387 . S
C999 H1002 0.950 . S
C1000 C999 1.387 . S
C1000 C1003 1.387 . S
H1001 C997 0.950 . S
H1002 C999 0.950 . S
C1003 C994 1.390 . S
C1003 H996 0.950 . S
C1003 C1000 1.387 . S
C1004 C1005 1.387 1_554 S
C1004 H1008 0.950 . S
C1004 C1013 1.390 1_554 S
C1005 C1004 1.387 1_556 S
C1005 C1007 1.387 . S
H1006 C1013 0.953 . S
C1007 C1005 1.387 . S
C1007 C1009 1.390 . S
C1007 H1011 0.950 . S
H1008 C1004 0.950 . S
C1009 C1007 1.390 . S
C1009 C1010 1.387 . S
C1009 H1012 0.950 . S
C1010 C1009 1.387 . S
C1010 C1013 1.387 . S
H1011 C1007 0.950 . S
H1012 C1009 0.950 . S
C1013 C1004 1.390 1_556 S
C1013 H1006 0.953 . S
C1013 C1010 1.387 . S
C1014 C1015 1.387 . S
C1014 H1018 0.950 . S
C1014 C1023 1.390 . S
C1015 C1014 1.387 . S
C1015 C1017 1.387 . S
H1016 C1023 0.950 . S
C1017 C1015 1.387 . S
C1017 C1019 1.390 . S
C1017 H1021 0.950 . S
H1018 C1014 0.950 . S
C1019 C1017 1.390 . S
C1019 C1020 1.387 . S
C1019 H1022 0.950 . S
C1020 C1019 1.387 . S
C1020 C1023 1.387 . S
H1021 C1017 0.950 . S
H1022 C1019 0.950 . S
C1023 C1014 1.390 . S
C1023 H1016 0.950 . S
C1023 C1020 1.387 . S
C1024 C1025 1.387 . S
C1024 H1028 0.950 . S
C1024 C1033 1.390 . S
C1025 C1024 1.387 . S
C1025 C1027 1.387 . S
H1026 C1033 0.950 . S
C1027 C1025 1.387 . S
C1027 C1029 1.390 . S
C1027 H1031 0.950 . S
H1028 C1024 0.950 . S
C1029 C1027 1.390 . S
C1029 C1030 1.387 . S
C1029 H1032 0.950 . S
C1030 C1029 1.387 . S
C1030 C1033 1.387 . S
H1031 C1027 0.950 . S
H1032 C1029 0.950 . S
C1033 C1024 1.390 . S
C1033 H1026 0.950 . S
C1033 C1030 1.387 . S
C1034 C1035 1.387 1_455 S
C1034 H1038 0.950 . S
C1034 C1043 1.390 . S
C1035 C1034 1.387 1_655 S
C1035 C1037 1.387 . S
H1036 C1043 0.950 . S
C1037 C1035 1.387 . S
C1037 C1039 1.390 . S
C1037 H1041 0.950 . S
H1038 C1034 0.950 . S
C1039 C1037 1.390 . S
C1039 C1040 1.387 1_655 S
C1039 H1042 0.950 . S
C1040 C1039 1.387 1_455 S
C1040 C1043 1.387 . S
H1041 C1037 0.950 . S
H1042 C1039 0.950 . S
C1043 C1034 1.390 . S
C1043 H1036 0.950 . S
C1043 C1040 1.387 . S
C1044 C1045 1.387 . S
C1044 H1048 0.950 . S
C1044 C1053 1.390 . S
C1045 C1044 1.387 . S
C1045 C1047 1.387 . S
H1046 C1053 0.950 . S
C1047 C1045 1.387 . S
C1047 C1049 1.390 . S
C1047 H1051 0.950 . S
H1048 C1044 0.950 . S
C1049 C1047 1.390 . S
C1049 C1050 1.387 . S
C1049 H1052 0.950 . S
C1050 C1049 1.387 . S
C1050 C1053 1.387 . S
H1051 C1047 0.950 . S
H1052 C1049 0.950 . S
C1053 C1044 1.390 . S
C1053 H1046 0.950 . S
C1053 C1050 1.387 . S
C1054 C1055 1.387 . S
C1054 H1058 0.950 . S
C1054 C1063 1.390 . S
C1055 C1054 1.387 . S
C1055 C1057 1.387 . S
H1056 C1063 0.950 . S
C1057 C1055 1.387 . S
C1057 C1059 1.390 . S
C1057 H1061 0.950 . S
H1058 C1054 0.950 . S
C1059 C1057 1.390 . S
C1059 C1060 1.387 . S
C1059 H1062 0.950 . S
C1060 C1059 1.387 . S
C1060 C1063 1.387 . S
H1061 C1057 0.950 . S
H1062 C1059 0.950 . S
C1063 C1054 1.390 . S
C1063 H1056 0.950 . S
C1063 C1060 1.387 . S
C1064 C1065 1.387 . S
C1064 H1068 0.950 . S
C1064 C1073 1.390 . S
C1065 C1064 1.387 . S
C1065 C1067 1.387 . S
H1066 C1073 0.950 . S
C1067 C1065 1.387 . S
C1067 C1069 1.390 . S
C1067 H1071 0.950 . S
H1068 C1064 0.950 . S
C1069 C1067 1.390 . S
C1069 C1070 1.387 . S
C1069 H1072 0.950 . S
C1070 C1069 1.387 . S
C1070 C1073 1.387 . S
H1071 C1067 0.950 . S
H1072 C1069 0.950 . S
C1073 C1064 1.390 . S
C1073 H1066 0.950 . S
C1073 C1070 1.387 . S
C1074 C1075 1.387 . S
C1074 H1078 0.950 . S
C1074 C1083 1.390 . S
C1075 C1074 1.387 . S
C1075 C1077 1.387 . S
H1076 C1083 0.950 . S
C1077 C1075 1.387 . S
C1077 C1079 1.390 . S
C1077 H1081 0.950 . S
H1078 C1074 0.950 . S
C1079 C1077 1.390 . S
C1079 C1080 1.387 . S
C1079 H1082 0.950 . S
C1080 C1079 1.387 . S
C1080 C1083 1.387 . S
H1081 C1077 0.950 . S
H1082 C1079 0.950 . S
C1083 C1074 1.390 . S
C1083 H1076 0.950 . S
C1083 C1080 1.387 . S
C1084 C1085 1.387 . S
C1084 H1088 0.950 1_655 S
C1084 C1093 1.390 . S
C1085 C1084 1.387 . S
C1085 C1087 1.387 . S
H1086 C1093 0.950 . S
C1087 C1085 1.387 . S
C1087 C1089 1.390 . S
C1087 H1091 0.950 . S
H1088 C1084 0.950 1_455 S
C1089 C1087 1.390 . S
C1089 C1090 1.387 . S
C1089 H1092 0.950 . S
C1090 C1089 1.387 . S
C1090 C1093 1.387 . S
H1091 C1087 0.950 . S
H1092 C1089 0.950 . S
C1093 C1084 1.390 . S
C1093 H1086 0.950 . S
C1093 C1090 1.387 . S
C1094 C1095 1.387 . S
C1094 H1098 0.950 . S
C1094 C1103 1.390 . S
C1095 C1094 1.387 . S
C1095 C1097 1.387 . S
H1096 C1103 0.950 . S
C1097 C1095 1.387 . S
C1097 C1099 1.390 . S
C1097 H1101 0.950 . S
H1098 C1094 0.950 . S
C1099 C1097 1.390 . S
C1099 C1100 1.387 . S
C1099 H1102 0.950 . S
C1100 C1099 1.387 . S
C1100 C1103 1.387 . S
H1101 C1097 0.950 . S
H1102 C1099 0.950 . S
C1103 C1094 1.390 . S
C1103 H1096 0.950 . S
C1103 C1100 1.387 . S
C1104 C1105 1.387 . S
C1104 H1108 0.950 . S
C1104 C1113 1.390 . S
C1105 C1104 1.387 . S
C1105 C1107 1.387 . S
H1106 C1113 0.950 . S
C1107 C1105 1.387 . S
C1107 C1109 1.390 . S
C1107 H1111 0.950 . S
H1108 C1104 0.950 . S
C1109 C1107 1.390 . S
C1109 C1110 1.387 . S
C1109 H1112 0.950 . S
C1110 C1109 1.387 . S
C1110 C1113 1.387 . S
H1111 C1107 0.950 . S
H1112 C1109 0.950 . S
C1113 C1104 1.390 . S
C1113 H1106 0.950 . S
C1113 C1110 1.387 . S
C1114 C1115 1.387 . S
C1114 H1118 0.950 . S
C1114 C1123 1.390 . S
C1115 C1114 1.387 . S
C1115 C1117 1.387 . S
H1116 C1123 0.950 . S
C1117 C1115 1.387 . S
C1117 C1119 1.390 . S
C1117 H1121 0.950 . S
H1118 C1114 0.950 . S
C1119 C1117 1.390 . S
C1119 C1120 1.387 . S
C1119 H1122 0.950 . S
C1120 C1119 1.387 . S
C1120 C1123 1.387 . S
H1121 C1117 0.950 . S
H1122 C1119 0.950 . S
C1123 C1114 1.390 . S
C1123 H1116 0.950 . S
C1123 C1120 1.387 . S
C1124 C1125 1.387 . S
C1124 H1128 0.950 . S
C1124 C1133 1.390 . S
C1125 C1124 1.387 . S
C1125 C1127 1.387 . S
H1126 C1133 0.950 . S
C1127 C1125 1.387 . S
C1127 C1129 1.390 . S
C1127 H1131 0.950 . S
H1128 C1124 0.950 . S
C1129 C1127 1.390 . S
C1129 C1130 1.387 . S
C1129 H1132 0.950 . S
C1130 C1129 1.387 . S
C1130 C1133 1.387 . S
H1131 C1127 0.950 . S
H1132 C1129 0.950 . S
C1133 C1124 1.390 . S
C1133 H1126 0.950 . S
C1133 C1130 1.387 . S
C1134 C1135 1.387 . S
C1134 H1138 0.950 1_556 S
C1134 C1143 1.390 . S
C1135 C1134 1.387 . S
C1135 C1137 1.387 . S
H1136 C1143 0.950 1_554 S
C1137 C1135 1.387 . S
C1137 C1139 1.390 . S
C1137 H1141 0.950 . S
H1138 C1134 0.950 1_554 S
C1139 C1137 1.390 . S
C1139 C1140 1.387 . S
C1139 H1142 0.950 . S
C1140 C1139 1.387 . S
C1140 C1143 1.387 . S
H1141 C1137 0.950 . S
H1142 C1139 0.950 . S
C1143 C1134 1.390 . S
C1143 H1136 0.950 1_556 S
C1143 C1140 1.387 . S
C1144 C1145 1.387 . S
C1144 H1148 0.950 . S
C1144 C1153 1.390 . S
C1145 C1144 1.387 . S
C1145 C1147 1.387 . S
H1146 C1153 0.950 . S
C1147 C1145 1.387 . S
C1147 C1149 1.390 . S
C1147 H1151 0.950 . S
H1148 C1144 0.950 . S
C1149 C1147 1.390 . S
C1149 C1150 1.387 . S
C1149 H1152 0.950 . S
C1150 C1149 1.387 . S
C1150 C1153 1.387 . S
H1151 C1147 0.950 . S
H1152 C1149 0.950 . S
C1153 C1144 1.390 . S
C1153 H1146 0.950 . S
C1153 C1150 1.387 . S
C1154 C1155 1.387 . S
C1154 H1158 0.950 . S
C1154 C1163 1.390 . S
C1155 C1154 1.387 . S
C1155 C1157 1.387 . S
H1156 C1163 0.950 . S
C1157 C1155 1.387 . S
C1157 C1159 1.390 . S
C1157 H1161 0.950 1_554 S
H1158 C1154 0.950 . S
C1159 C1157 1.390 . S
C1159 C1160 1.387 . S
C1159 H1162 0.950 1_554 S
C1160 C1159 1.387 . S
C1160 C1163 1.387 . S
H1161 C1157 0.950 1_556 S
H1162 C1159 0.950 1_556 S
C1163 C1154 1.390 . S
C1163 H1156 0.950 . S
C1163 C1160 1.387 . S
C1164 C1165 1.387 . S
C1164 H1168 0.950 . S
C1164 C1173 1.390 . S
C1165 C1164 1.387 . S
C1165 C1167 1.387 . S
H1166 C1173 0.950 . S
C1167 C1165 1.387 . S
C1167 C1169 1.390 . S
C1167 H1171 0.950 . S
H1168 C1164 0.950 . S
C1169 C1167 1.390 . S
C1169 C1170 1.387 . S
C1169 H1172 0.950 . S
C1170 C1169 1.387 . S
C1170 C1173 1.387 . S
H1171 C1167 0.950 . S
H1172 C1169 0.950 . S
C1173 C1164 1.390 . S
C1173 H1166 0.950 . S
C1173 C1170 1.387 . S
C1174 C1175 1.387 . S
C1174 H1178 0.950 . S
C1174 C1183 1.390 . S
C1175 C1174 1.387 . S
C1175 C1177 1.387 . S
H1176 C1183 0.950 . S
C1177 C1175 1.387 . S
C1177 C1179 1.390 . S
C1177 H1181 0.950 . S
H1178 C1174 0.950 . S
C1179 C1177 1.390 . S
C1179 C1180 1.387 . S
C1179 H1182 0.950 . S
C1180 C1179 1.387 . S
C1180 C1183 1.387 . S
H1181 C1177 0.950 . S
H1182 C1179 0.950 . S
C1183 C1174 1.390 . S
C1183 H1176 0.950 . S
C1183 C1180 1.387 . S
C1184 C1185 1.387 . S
C1184 H1188 0.950 . S
C1184 C1193 1.390 . S
C1185 C1184 1.387 . S
C1185 C1187 1.387 . S
H1186 C1193 0.950 . S
C1187 C1185 1.387 . S
C1187 C1189 1.390 . S
C1187 H1191 0.950 . S
H1188 C1184 0.950 . S
C1189 C1187 1.390 . S
C1189 C1190 1.387 . S
C1189 H1192 0.950 . S
C1190 C1189 1.387 . S
C1190 C1193 1.387 . S
H1191 C1187 0.950 . S
H1192 C1189 0.950 . S
C1193 C1184 1.390 . S
C1193 H1186 0.950 . S
C1193 C1190 1.387 . S
C1194 C1195 1.387 . S
C1194 H1198 0.950 . S
C1194 C1203 1.390 . S
C1195 C1194 1.387 . S
C1195 C1197 1.387 . S
H1196 C1203 0.950 . S
C1197 C1195 1.387 . S
C1197 C1199 1.390 . S
C1197 H1201 0.950 . S
H1198 C1194 0.950 . S
C1199 C1197 1.390 . S
C1199 C1200 1.387 . S
C1199 H1202 0.950 . S
C1200 C1199 1.387 . S
C1200 C1203 1.387 . S
H1201 C1197 0.950 . S
H1202 C1199 0.950 . S
C1203 C1194 1.390 . S
C1203 H1196 0.950 . S
C1203 C1200 1.387 . S
C1204 C1205 1.387 . S
C1204 H1208 0.950 . S
C1204 C1213 1.390 . S
C1205 C1204 1.387 . S
C1205 C1207 1.387 . S
H1206 C1213 0.950 . S
C1207 C1205 1.387 . S
C1207 C1209 1.390 . S
C1207 H1211 0.950 . S
H1208 C1204 0.950 . S
C1209 C1207 1.390 . S
C1209 C1210 1.387 . S
C1209 H1212 0.950 1_554 S
C1210 C1209 1.387 . S
C1210 C1213 1.387 . S
H1211 C1207 0.950 . S
H1212 C1209 0.950 1_556 S
C1213 C1204 1.390 . S
C1213 H1206 0.950 . S
C1213 C1210 1.387 . S
C1214 C1215 1.387 . S
C1214 H1218 0.950 . S
C1214 C1223 1.390 . S
C1215 C1214 1.387 . S
C1215 C1217 1.387 1_545 S
H1216 C1223 0.950 . S
C1217 C1215 1.387 1_565 S
C1217 C1219 1.390 . S
C1217 H1221 0.950 . S
H1218 C1214 0.950 . S
C1219 C1217 1.390 . S
C1219 C1220 1.387 1_565 S
C1219 H1222 0.950 . S
C1220 C1219 1.387 1_545 S
C1220 C1223 1.387 . S
H1221 C1217 0.950 . S
H1222 C1219 0.950 . S
C1223 C1214 1.390 . S
C1223 H1216 0.950 . S
C1223 C1220 1.387 . S
C1224 C1225 1.387 . S
C1224 H1228 0.950 . S
C1224 C1233 1.390 . S
C1225 C1224 1.387 . S
C1225 C1227 1.387 . S
H1226 C1233 0.950 . S
C1227 C1225 1.387 . S
C1227 C1229 1.390 . S
C1227 H1231 0.950 . S
H1228 C1224 0.950 . S
C1229 C1227 1.390 . S
C1229 C1230 1.387 . S
C1229 H1232 0.950 . S
C1230 C1229 1.387 . S
C1230 C1233 1.387 . S
H1231 C1227 0.950 . S
H1232 C1229 0.950 . S
C1233 C1224 1.390 . S
C1233 H1226 0.950 . S
C1233 C1230 1.387 . S
C1234 C1235 1.387 . S
C1234 H1238 0.950 . S
C1234 C1243 1.390 . S
C1235 C1234 1.387 . S
C1235 C1237 1.387 . S
H1236 C1243 0.950 . S
C1237 C1235 1.387 . S
C1237 C1239 1.390 . S
C1237 H1241 0.950 . S
H1238 C1234 0.950 . S
C1239 C1237 1.390 . S
C1239 C1240 1.387 . S
C1239 H1242 0.950 . S
C1240 C1239 1.387 . S
C1240 C1243 1.387 . S
H1241 C1237 0.950 . S
H1242 C1239 0.950 . S
C1243 C1234 1.390 . S
C1243 H1236 0.950 . S
C1243 C1240 1.387 . S
C1244 C1245 1.390 . S
C1244 H1248 0.950 . S
C1244 C1253 1.390 . S
C1245 C1244 1.390 . S
C1245 C1247 1.384 1_556 S
H1246 C1253 0.950 . S
C1247 C1245 1.384 1_554 S
C1247 C1249 1.390 . S
C1247 H1251 0.950 . S
H1248 C1244 0.950 . S
C1249 C1247 1.390 . S
C1249 C1250 1.387 . S
C1249 H1252 0.950 . S
C1250 C1249 1.387 . S
C1250 C1253 1.387 1_554 S
H1251 C1247 0.950 . S
H1252 C1249 0.950 . S
C1253 C1244 1.390 . S
C1253 H1246 0.950 . S
C1253 C1250 1.387 1_556 S
C1254 C1255 1.387 . S
C1254 H1258 0.950 . S
C1254 C1263 1.390 . S
C1255 C1254 1.387 . S
C1255 C1257 1.387 . S
H1256 C1263 0.950 . S
C1257 C1255 1.387 . S
C1257 C1259 1.390 . S
C1257 H1261 0.950 . S
H1258 C1254 0.950 . S
C1259 C1257 1.390 . S
C1259 C1260 1.387 . S
C1259 H1262 0.950 . S
C1260 C1259 1.387 . S
C1260 C1263 1.387 . S
H1261 C1257 0.950 . S
H1262 C1259 0.950 . S
C1263 C1254 1.390 . S
C1263 H1256 0.950 . S
C1263 C1260 1.387 . S
C1264 C1265 1.387 . S
C1264 H1268 0.950 . S
C1264 C1273 1.390 . S
C1265 C1264 1.387 . S
C1265 C1267 1.387 . S
H1266 C1273 0.950 . S
C1267 C1265 1.387 . S
C1267 C1269 1.390 . S
C1267 H1271 0.950 . S
H1268 C1264 0.950 . S
C1269 C1267 1.390 . S
C1269 C1270 1.387 . S
C1269 H1272 0.950 . S
C1270 C1269 1.387 . S
C1270 C1273 1.387 . S
H1271 C1267 0.950 . S
H1272 C1269 0.950 . S
C1273 C1264 1.390 . S
C1273 H1266 0.950 . S
C1273 C1270 1.387 . S
C1274 C1275 1.387 . S
C1274 H1278 0.950 . S
C1274 C1283 1.390 . S
C1275 C1274 1.387 . S
C1275 C1277 1.387 . S
H1276 C1283 0.950 . S
C1277 C1275 1.387 . S
C1277 C1279 1.390 . S
C1277 H1281 0.950 . S
H1278 C1274 0.950 . S
C1279 C1277 1.390 . S
C1279 C1280 1.387 . S
C1279 H1282 0.950 . S
C1280 C1279 1.387 . S
C1280 C1283 1.387 . S
H1281 C1277 0.950 . S
H1282 C1279 0.950 . S
C1283 C1274 1.390 . S
C1283 H1276 0.950 . S
C1283 C1280 1.387 . S
C1284 C1285 1.387 . S
C1284 H1288 0.950 . S
C1284 C1293 1.390 . S
C1285 C1284 1.387 . S
C1285 C1287 1.387 . S
H1286 C1293 0.950 . S
C1287 C1285 1.387 . S
C1287 C1289 1.390 . S
C1287 H1291 0.950 . S
H1288 C1284 0.950 . S
C1289 C1287 1.390 . S
C1289 C1290 1.387 . S
C1289 H1292 0.950 . S
C1290 C1289 1.387 . S
C1290 C1293 1.387 . S
H1291 C1287 0.950 . S
H1292 C1289 0.950 . S
C1293 C1284 1.390 . S
C1293 H1286 0.950 . S
C1293 C1290 1.387 . S
C1294 C1295 1.387 . S
C1294 H1298 0.950 . S
C1294 C1303 1.390 . S
C1295 C1294 1.387 . S
C1295 C1297 1.387 . S
H1296 C1303 0.960 . S
C1297 C1295 1.387 . S
C1297 C1299 1.390 . S
C1297 H1301 0.950 . S
H1298 C1294 0.950 . S
C1299 C1297 1.390 . S
C1299 C1300 1.387 . S
C1299 H1302 0.950 . S
C1300 C1299 1.387 . S
C1300 C1303 1.387 . S
H1301 C1297 0.950 . S
H1302 C1299 0.950 . S
C1303 C1294 1.390 . S
C1303 H1296 0.960 . S
C1303 C1300 1.387 . S
C1304 C1305 1.387 . S
C1304 H1308 0.950 . S
C1304 C1313 1.390 . S
C1305 C1304 1.387 . S
C1305 C1307 1.387 . S
H1306 C1313 0.950 . S
C1307 C1305 1.387 . S
C1307 C1309 1.390 . S
C1307 H1311 0.950 . S
H1308 C1304 0.950 . S
C1309 C1307 1.390 . S
C1309 C1310 1.387 . S
C1309 H1312 0.950 . S
C1310 C1309 1.387 . S
C1310 C1313 1.387 . S
H1311 C1307 0.950 . S
H1312 C1309 0.950 . S
C1313 C1304 1.390 . S
C1313 H1306 0.950 . S
C1313 C1310 1.387 . S
C1314 C1315 1.387 . S
C1314 H1318 0.950 . S
C1314 C1323 1.390 . S
C1315 C1314 1.387 . S
C1315 C1317 1.387 . S
H1316 C1323 0.950 . S
C1317 C1315 1.387 . S
C1317 C1319 1.390 . S
C1317 H1321 0.950 . S
H1318 C1314 0.950 . S
C1319 C1317 1.390 . S
C1319 C1320 1.387 . S
C1319 H1322 0.950 . S
C1320 C1319 1.387 . S
C1320 C1323 1.387 . S
H1321 C1317 0.950 . S
H1322 C1319 0.950 . S
C1323 C1314 1.390 . S
C1323 H1316 0.950 . S
C1323 C1320 1.387 . S
C1324 C1325 1.387 . S
C1324 H1328 0.950 . S
C1324 C1333 1.390 . S
C1325 C1324 1.387 . S
C1325 C1327 1.387 . S
H1326 C1333 0.950 . S
C1327 C1325 1.387 . S
C1327 C1329 1.390 . S
C1327 H1331 0.950 . S
H1328 C1324 0.950 . S
C1329 C1327 1.390 . S
C1329 C1330 1.387 . S
C1329 H1332 0.950 . S
C1330 C1329 1.387 . S
C1330 C1333 1.387 . S
H1331 C1327 0.950 . S
H1332 C1329 0.950 . S
C1333 C1324 1.390 . S
C1333 H1326 0.950 . S
C1333 C1330 1.387 . S
C1334 C1335 1.387 . S
C1334 H1338 0.950 1_565 S
C1334 C1343 1.390 . S
C1335 C1334 1.387 . S
C1335 C1337 1.387 . S
H1336 C1343 0.950 1_545 S
C1337 C1335 1.387 . S
C1337 C1339 1.390 . S
C1337 H1341 0.950 . S
H1338 C1334 0.950 1_545 S
C1339 C1337 1.390 . S
C1339 C1340 1.387 . S
C1339 H1342 0.950 . S
C1340 C1339 1.387 . S
C1340 C1343 1.387 . S
H1341 C1337 0.950 . S
H1342 C1339 0.950 . S
C1343 C1334 1.390 . S
C1343 H1336 0.950 1_565 S
C1343 C1340 1.387 . S
C1344 C1345 1.387 . S
C1344 H1348 0.950 . S
C1344 C1353 1.390 . S
C1345 C1344 1.387 . S
C1345 C1347 1.387 1_556 S
H1346 C1353 0.950 . S
C1347 C1345 1.387 1_554 S
C1347 C1349 1.390 . S
C1347 H1351 0.950 . S
H1348 C1344 0.950 . S
C1349 C1347 1.390 . S
C1349 C1350 1.387 . S
C1349 H1352 0.950 . S
C1350 C1349 1.387 . S
C1350 C1353 1.387 1_554 S
H1351 C1347 0.950 . S
H1352 C1349 0.950 . S
C1353 C1344 1.390 . S
C1353 H1346 0.950 . S
C1353 C1350 1.387 1_556 S
C1354 C1355 1.387 . S
C1354 H1358 0.950 . S
C1354 C1363 1.390 . S
C1355 C1354 1.387 . S
C1355 C1357 1.387 . S
H1356 C1363 0.950 . S
C1357 C1355 1.387 . S
C1357 C1359 1.390 . S
C1357 H1361 0.950 . S
H1358 C1354 0.950 . S
C1359 C1357 1.390 . S
C1359 C1360 1.387 . S
C1359 H1362 0.950 . S
C1360 C1359 1.387 . S
C1360 C1363 1.387 . S
H1361 C1357 0.950 . S
H1362 C1359 0.950 . S
C1363 C1354 1.390 . S
C1363 H1356 0.950 . S
C1363 C1360 1.387 . S
C1364 C1365 1.387 . S
C1364 H1368 0.950 . S
C1364 C1373 1.390 . S
C1365 C1364 1.387 . S
C1365 C1367 1.387 . S
H1366 C1373 0.950 . S
C1367 C1365 1.387 . S
C1367 C1369 1.390 . S
C1367 H1371 0.950 . S
H1368 C1364 0.950 . S
C1369 C1367 1.390 . S
C1369 C1370 1.387 . S
C1369 H1372 0.950 . S
C1370 C1369 1.387 . S
C1370 C1373 1.387 . S
H1371 C1367 0.950 . S
H1372 C1369 0.950 . S
C1373 C1364 1.390 . S
C1373 H1366 0.950 . S
C1373 C1370 1.387 . S
C1374 C1375 1.387 . S
C1374 H1378 0.950 1_545 S
C1374 C1383 1.390 . S
C1375 C1374 1.387 . S
C1375 C1377 1.387 . S
H1376 C1383 0.950 1_565 S
C1377 C1375 1.387 . S
C1377 C1379 1.390 . S
C1377 H1381 0.950 . S
H1378 C1374 0.950 1_565 S
C1379 C1377 1.390 . S
C1379 C1380 1.387 . S
C1379 H1382 0.950 . S
C1380 C1379 1.387 . S
C1380 C1383 1.387 . S
H1381 C1377 0.950 . S
H1382 C1379 0.950 . S
C1383 C1374 1.390 . S
C1383 H1376 0.950 1_545 S
C1383 C1380 1.387 . S
C1384 C1385 1.387 . S
C1384 H1388 0.950 . S
C1384 C1393 1.390 . S
C1385 C1384 1.387 . S
C1385 C1387 1.387 . S
H1386 C1393 0.950 . S
C1387 C1385 1.387 . S
C1387 C1389 1.390 . S
C1387 H1391 0.950 . S
H1388 C1384 0.950 . S
C1389 C1387 1.390 . S
C1389 C1390 1.387 . S
C1389 H1392 0.950 . S
C1390 C1389 1.387 . S
C1390 C1393 1.387 . S
H1391 C1387 0.950 . S
H1392 C1389 0.950 . S
C1393 C1384 1.390 . S
C1393 H1386 0.950 . S
C1393 C1390 1.387 . S
C1394 C1395 1.387 . S
C1394 H1398 0.950 . S
C1394 C1403 1.390 . S
C1395 C1394 1.387 . S
C1395 C1397 1.387 . S
H1396 C1403 0.950 . S
C1397 C1395 1.387 . S
C1397 C1399 1.390 . S
C1397 H1401 0.950 . S
H1398 C1394 0.950 . S
C1399 C1397 1.390 . S
C1399 C1400 1.387 . S
C1399 H1402 0.950 . S
C1400 C1399 1.387 . S
C1400 C1403 1.387 . S
H1401 C1397 0.950 . S
H1402 C1399 0.950 . S
C1403 C1394 1.390 . S
C1403 H1396 0.950 . S
C1403 C1400 1.387 . S
C1404 C1405 1.387 1_556 S
C1404 H1408 0.950 . S
C1404 C1413 1.390 . S
C1405 C1404 1.387 1_554 S
C1405 C1407 1.387 . S
H1406 C1413 0.950 . S
C1407 C1405 1.387 . S
C1407 C1409 1.390 . S
C1407 H1411 0.950 . S
H1408 C1404 0.950 . S
C1409 C1407 1.390 . S
C1409 C1410 1.387 1_554 S
C1409 H1412 0.950 . S
C1410 C1409 1.387 1_556 S
C1410 C1413 1.387 . S
H1411 C1407 0.950 . S
H1412 C1409 0.950 . S
C1413 C1404 1.390 . S
C1413 H1406 0.950 . S
C1413 C1410 1.387 . S
C1414 C1415 1.387 1_554 S
C1414 H1418 0.950 . S
C1414 C1423 1.390 . S
C1415 C1414 1.387 1_556 S
C1415 C1417 1.387 . S
H1416 C1423 0.950 . S
C1417 C1415 1.387 . S
C1417 C1419 1.390 . S
C1417 H1421 0.950 . S
H1418 C1414 0.950 . S
C1419 C1417 1.390 . S
C1419 C1420 1.387 . S
C1419 H1422 0.950 . S
C1420 C1419 1.387 . S
C1420 C1423 1.387 1_556 S
H1421 C1417 0.950 . S
H1422 C1419 0.950 . S
C1423 C1414 1.390 . S
C1423 H1416 0.950 . S
C1423 C1420 1.387 1_554 S
C1424 C1425 1.387 . S
C1424 H1428 0.950 . S
C1424 C1433 1.390 . S
C1425 C1424 1.387 . S
C1425 C1427 1.387 . S
H1426 C1433 0.950 . S
C1427 C1425 1.387 . S
C1427 C1429 1.390 . S
C1427 H1431 0.950 . S
H1428 C1424 0.950 . S
C1429 C1427 1.390 . S
C1429 C1430 1.387 . S
C1429 H1432 0.950 . S
C1430 C1429 1.387 . S
C1430 C1433 1.387 . S
H1431 C1427 0.950 . S
H1432 C1429 0.950 . S
C1433 C1424 1.390 . S
C1433 H1426 0.950 . S
C1433 C1430 1.387 . S
C1434 C1435 1.387 . S
C1434 H1438 0.950 . S
C1434 C1443 1.390 . S
C1435 C1434 1.387 . S
C1435 C1437 1.387 . S
H1436 C1443 0.950 . S
C1437 C1435 1.387 . S
C1437 C1439 1.390 . S
C1437 H1441 0.950 1_556 S
H1438 C1434 0.950 . S
C1439 C1437 1.390 . S
C1439 C1440 1.387 . S
C1439 H1442 0.950 . S
C1440 C1439 1.387 . S
C1440 C1443 1.387 . S
H1441 C1437 0.950 1_554 S
H1442 C1439 0.950 . S
C1443 C1434 1.390 . S
C1443 H1436 0.950 . S
C1443 C1440 1.387 . S
C1444 C1445 1.387 . S
C1444 H1448 0.950 . S
C1444 C1453 1.390 . S
C1445 C1444 1.387 . S
C1445 C1447 1.387 . S
H1446 C1453 0.950 . S
C1447 C1445 1.387 . S
C1447 C1449 1.390 . S
C1447 H1451 0.950 . S
H1448 C1444 0.950 . S
C1449 C1447 1.390 . S
C1449 C1450 1.387 . S
C1449 H1452 0.950 . S
C1450 C1449 1.387 . S
C1450 C1453 1.387 . S
H1451 C1447 0.950 . S
H1452 C1449 0.950 . S
C1453 C1444 1.390 . S
C1453 H1446 0.950 . S
C1453 C1450 1.387 . S
C1454 C1455 1.387 . S
C1454 H1458 0.950 . S
C1454 C1463 1.390 . S
C1455 C1454 1.387 . S
C1455 C1457 1.387 . S
H1456 C1463 0.950 . S
C1457 C1455 1.387 . S
C1457 C1459 1.390 . S
C1457 H1461 0.950 . S
H1458 C1454 0.950 . S
C1459 C1457 1.390 . S
C1459 C1460 1.387 . S
C1459 H1462 0.950 . S
C1460 C1459 1.387 . S
C1460 C1463 1.387 . S
H1461 C1457 0.950 . S
H1462 C1459 0.950 . S
C1463 C1454 1.390 . S
C1463 H1456 0.950 . S
C1463 C1460 1.387 . S
C1464 C1465 1.387 1_455 S
C1464 H1468 0.950 . S
C1464 C1473 1.390 . S
C1465 C1464 1.387 1_655 S
C1465 C1467 1.387 . S
H1466 C1473 0.950 . S
C1467 C1465 1.387 . S
C1467 C1469 1.390 . S
C1467 H1471 0.950 . S
H1468 C1464 0.950 . S
C1469 C1467 1.390 . S
C1469 C1470 1.387 . S
C1469 H1472 0.950 . S
C1470 C1469 1.387 . S
C1470 C1473 1.387 1_655 S
H1471 C1467 0.950 . S
H1472 C1469 0.950 . S
C1473 C1464 1.390 . S
C1473 H1466 0.950 . S
C1473 C1470 1.387 1_455 S
C1474 C1475 1.387 . S
C1474 H1478 0.950 . S
C1474 C1483 1.390 . S
C1475 C1474 1.387 . S
C1475 C1477 1.387 . S
H1476 C1483 0.950 . S
C1477 C1475 1.387 . S
C1477 C1479 1.390 . S
C1477 H1481 0.950 . S
H1478 C1474 0.950 . S
C1479 C1477 1.390 . S
C1479 C1480 1.387 . S
C1479 H1482 0.950 . S
C1480 C1479 1.387 . S
C1480 C1483 1.387 . S
H1481 C1477 0.950 . S
H1482 C1479 0.950 . S
C1483 C1474 1.390 . S
C1483 H1476 0.950 . S
C1483 C1480 1.387 . S
C1484 C1485 1.387 . S
C1484 H1488 0.950 . S
C1484 C1493 1.390 . S
C1485 C1484 1.387 . S
C1485 C1487 1.387 . S
H1486 C1493 0.950 . S
C1487 C1485 1.387 . S
C1487 C1489 1.390 . S
C1487 H1491 0.950 . S
H1488 C1484 0.950 . S
C1489 C1487 1.390 . S
C1489 C1490 1.387 . S
C1489 H1492 0.950 . S
C1490 C1489 1.387 . S
C1490 C1493 1.387 . S
H1491 C1487 0.950 . S
H1492 C1489 0.950 . S
C1493 C1484 1.390 . S
C1493 H1486 0.950 . S
C1493 C1490 1.387 . S
C1494 C1495 1.387 . S
C1494 H1498 0.950 . S
C1494 C1503 1.390 . S
C1495 C1494 1.387 . S
C1495 C1497 1.387 . S
H1496 C1503 0.950 . S
C1497 C1495 1.387 . S
C1497 C1499 1.390 . S
C1497 H1501 0.950 . S
H1498 C1494 0.950 . S
C1499 C1497 1.390 . S
C1499 C1500 1.387 . S
C1499 H1502 0.950 . S
C1500 C1499 1.387 . S
C1500 C1503 1.387 . S
H1501 C1497 0.950 . S
H1502 C1499 0.950 . S
C1503 C1494 1.390 . S
C1503 H1496 0.950 . S
C1503 C1500 1.387 . S
C1504 C1505 1.387 . S
C1504 H1508 0.950 . S
C1504 C1513 1.390 . S
C1505 C1504 1.387 . S
C1505 C1507 1.387 . S
H1506 C1513 0.950 . S
C1507 C1505 1.387 . S
C1507 C1509 1.390 . S
C1507 H1511 0.950 . S
H1508 C1504 0.950 . S
C1509 C1507 1.390 . S
C1509 C1510 1.387 . S
C1509 H1512 0.950 . S
C1510 C1509 1.387 . S
C1510 C1513 1.387 . S
H1511 C1507 0.950 . S
H1512 C1509 0.950 . S
C1513 C1504 1.390 . S
C1513 H1506 0.950 . S
C1513 C1510 1.387 . S
C1514 C1515 1.387 . S
C1514 H1518 0.950 . S
C1514 C1523 1.390 . S
C1515 C1514 1.387 . S
C1515 C1517 1.387 . S
H1516 C1523 0.950 . S
C1517 C1515 1.387 . S
C1517 C1519 1.390 . S
C1517 H1521 0.950 . S
H1518 C1514 0.950 . S
C1519 C1517 1.390 . S
C1519 C1520 1.387 . S
C1519 H1522 0.950 . S
C1520 C1519 1.387 . S
C1520 C1523 1.387 . S
H1521 C1517 0.950 . S
H1522 C1519 0.950 . S
C1523 C1514 1.390 . S
C1523 H1516 0.950 . S
C1523 C1520 1.387 . S
C1524 C1525 1.387 . S
C1524 H1528 0.950 . S
C1524 C1533 1.390 . S
C1525 C1524 1.387 . S
C1525 C1527 1.387 . S
H1526 C1533 0.950 . S
C1527 C1525 1.387 . S
C1527 C1529 1.390 . S
C1527 H1531 0.950 . S
H1528 C1524 0.950 . S
C1529 C1527 1.390 . S
C1529 C1530 1.387 . S
C1529 H1532 0.950 . S
C1530 C1529 1.387 . S
C1530 C1533 1.387 . S
H1531 C1527 0.950 . S
H1532 C1529 0.950 . S
C1533 C1524 1.390 . S
C1533 H1526 0.950 . S
C1533 C1530 1.387 . S
C1534 C1535 1.387 . S
C1534 H1538 0.950 . S
C1534 C1543 1.390 . S
C1535 C1534 1.387 . S
C1535 C1537 1.387 1_565 S
H1536 C1543 0.950 . S
C1537 C1535 1.387 1_545 S
C1537 C1539 1.390 . S
C1537 H1541 0.950 . S
H1538 C1534 0.950 . S
C1539 C1537 1.390 . S
C1539 C1540 1.387 1_545 S
C1539 H1542 0.950 . S
C1540 C1539 1.387 1_565 S
C1540 C1543 1.387 . S
H1541 C1537 0.950 . S
H1542 C1539 0.950 . S
C1543 C1534 1.390 . S
C1543 H1536 0.950 . S
C1543 C1540 1.387 . S
C1544 C1545 1.387 . S
C1544 H1548 0.950 . S
C1544 C1553 1.390 . S
C1545 C1544 1.387 . S
C1545 C1547 1.387 . S
H1546 C1553 0.950 . S
C1547 C1545 1.387 . S
C1547 C1549 1.390 . S
C1547 H1551 0.950 . S
H1548 C1544 0.950 . S
C1549 C1547 1.390 . S
C1549 C1550 1.387 . S
C1549 H1552 0.950 . S
C1550 C1549 1.387 . S
C1550 C1553 1.387 . S
H1551 C1547 0.950 . S
H1552 C1549 0.950 . S
C1553 C1544 1.390 . S
C1553 H1546 0.950 . S
C1553 C1550 1.387 . S
C1554 C1555 1.387 . S
C1554 H1558 0.950 . S
C1554 C1563 1.390 . S
C1555 C1554 1.387 . S
C1555 C1557 1.387 . S
H1556 C1563 0.950 . S
C1557 C1555 1.387 . S
C1557 C1559 1.390 . S
C1557 H1561 0.950 . S
H1558 C1554 0.950 . S
C1559 C1557 1.390 . S
C1559 C1560 1.387 . S
C1559 H1562 0.950 . S
C1560 C1559 1.387 . S
C1560 C1563 1.387 . S
H1561 C1557 0.950 . S
H1562 C1559 0.950 . S
C1563 C1554 1.390 . S
C1563 H1556 0.950 . S
C1563 C1560 1.387 . S
C1564 C1565 1.387 . S
C1564 H1568 0.950 . S
C1564 C1573 1.390 1_655 S
C1565 C1564 1.387 . S
C1565 C1567 1.387 1_655 S
H1566 C1573 0.950 . S
C1567 C1565 1.387 1_455 S
C1567 C1569 1.390 . S
C1567 H1571 0.950 . S
H1568 C1564 0.950 . S
C1569 C1567 1.390 . S
C1569 C1570 1.387 . S
C1569 H1572 0.950 . S
C1570 C1569 1.387 . S
C1570 C1573 1.387 . S
H1571 C1567 0.950 . S
H1572 C1569 0.950 . S
C1573 C1564 1.390 1_455 S
C1573 H1566 0.950 . S
C1573 C1570 1.387 . S
C1574 C1575 1.387 . S
C1574 H1578 0.950 . S
C1574 C1583 1.390 . S
C1575 C1574 1.387 . S
C1575 C1577 1.387 . S
H1576 C1583 0.950 1_455 S
C1577 C1575 1.387 . S
C1577 C1579 1.390 1_655 S
C1577 H1581 0.950 . S
H1578 C1574 0.950 . S
C1579 C1577 1.390 1_455 S
C1579 C1580 1.387 . S
C1579 H1582 0.950 . S
C1580 C1579 1.387 . S
C1580 C1583 1.387 1_455 S
H1581 C1577 0.950 . S
H1582 C1579 0.950 . S
C1583 C1574 1.390 . S
C1583 H1576 0.950 1_655 S
C1583 C1580 1.387 1_655 S
C625 C361 1.222 . S
C630 C4 1.141 . S
C635 C18 1.181 . S
C640 C499 1.232 . S
C645 C30 1.015 . S
C650 C329 1.033 . S
C655 C525 0.973 . S
C660 C44 0.932 . S
C665 C369 1.060 . S
C670 C57 1.042 . S
C675 C75 0.980 . S
C680 C290 1.026 . S
C685 C393 1.222 . S
C690 C83 1.143 . S
C695 C101 1.138 . S
C700 C270 1.173 . S
C705 C465 1.172 . S
C710 C96 1.183 . S
C715 C432 1.009 . S
C720 C62 0.985 . S
C725 C70 1.026 . S
C730 C551 1.036 . S
C735 C452 1.099 . S
C740 C88 1.097 . S
C745 C108 1.024 . S
C750 C173 1.034 . S
C755 C187 1.056 . S
C760 C122 1.054 . S
C765 C200 1.121 . S
C770 C140 1.133 . S
C775 C161 1.076 . S
C780 C146 1.042 . S
C785 C172 1.251 . S
C790 C316 1.314 . S
C795 C192 1.113 . S
C800 C510 1.161 . S
C805 C348 1.240 . S
C810 C205 1.271 . S
C815 C356 1.142 . S
C820 C213 1.079 . S
C825 C231 1.269 . S
C830 C380 1.227 . S
C835 C239 1.054 . S
C840 C49 1.038 . S
C845 C251 1.138 . S
C850 C23 1.149 . S
C855 C575 1.115 . S
C860 C276 1.180 . S
C865 C603 1.013 . S
C870 C302 1.031 . S
C875 C315 0.981 . S
C880 C107 0.929 . S
C885 C343 1.239 . S
C890 C135 1.191 . S
C895 C328 1.327 . S
C900 C564 1.402 . S
C905 C433 1.378 1_554 S
C910 C374 1.325 . S
C915 C447 1.052 . S
C920 C394 1.110 . S
C925 C420 1.315 . S
C930 C408 1.370 . S
C935 C226 1.157 . S
C940 C588 1.170 . S
C945 C473 1.420 . S
C950 C303 1.359 . S
C955 C277 1.104 . S
C960 C485 1.049 . S
C965 C615 0.959 . S
C970 C413 1.003 . S
C975 C381 1.177 . S
C980 C589 1.138 . S
C985 C127 1.149 . S
C990 C511 1.230 . S
C995 C147 1.054 . S
C1000 C543 1.066 . S
C1005 C166 1.365 1_556 S
C1010 C538 1.297 . S
C1015 C250 1.258 . S
C1020 C504 1.233 . S
C1025 C244 1.250 . S
C1030 C530 1.303 . S
C1035 C289 1.355 . S
C1040 C556 1.300 . S
C1045 C265 1.242 . S
C1050 C460 1.273 . S
C1055 C576 1.121 . S
C1060 C484 1.120 . S
C1065 C608 0.964 . S
C1070 C478 0.992 . S
C1075 C614 1.033 . S
C1080 C419 1.048 . S
C1085 C569 1.062 . S
C1090 C29 1.031 . S
C1095 C218 1.066 . S
C1100 C3 1.062 . S
C1105 C10 1.592 . S
C1110 C601 1.616 . S
C1115 C16 1.522 . S
C1120 C621 1.571 . S
C1125 C36 1.613 . S
C1130 C577 1.612 . S
C1135 C42 1.627 1_565 S
C1140 C595 1.546 . S
C1145 C55 1.621 . S
C1150 C121 1.602 . S
C1155 C69 1.556 . S
C1160 C133 1.503 . S
C1165 C81 1.620 . S
C1170 C153 1.618 . S
C1175 C95 1.541 . S
C1180 C109 1.615 1_545 S
C1185 C94 2.064 . S
C1190 C512 1.815 . S
C1195 C56 1.661 1_655 S
C1200 C342 1.528 . S
C1205 C68 1.775 . S
C1210 C536 1.726 . S
C1215 C82 2.058 . S
C1220 C322 1.891 1_655 S
C1225 C114 1.759 . S
C1230 C309 1.693 . S
C1235 C120 2.073 . S
C1240 C406 1.928 . S
C1245 C134 2.099 . S
C1250 C283 1.828 . S
C1255 C382 1.553 . S
C1260 C148 1.683 . S
C1265 C159 1.657 . S
C1270 C252 1.853 . S
C1275 C174 1.698 . S
C1280 C212 1.693 . S
C1285 C257 1.441 . S
C1290 C186 1.540 . S
C1295 C563 1.638 . S
C1300 C199 1.827 . S
C1305 C198 1.489 . S
C1310 C211 1.585 . S
C1315 C472 1.718 . S
C1320 C225 1.931 . S
C1325 C160 1.878 . S
C1330 C237 1.921 . S
C1335 C523 1.945 . S
C1340 C264 2.101 . S
C1345 C537 2.101 . S
C1350 C278 1.984 1_545 S
C1355 C296 1.891 . S
C1360 C497 2.094 . S
C1365 C517 2.021 . S
C1370 C304 2.158 . S
C1375 C317 1.949 . S
C1380 C387 2.115 . S
C1385 C395 2.034 1_565 S
C1390 C335 2.151 . S
C1395 C341 2.116 . S
C1400 C407 1.905 . S
C1405 C367 2.073 . S
C1410 C355 1.932 . S
C1415 C354 1.801 . S
C1420 C590 2.029 1_556 S
C1425 C616 1.783 . S
C1430 C330 1.734 . S
C1435 C368 1.658 . S
C1440 C43 1.724 . S
C1445 C17 2.130 . S
C1450 C400 1.849 . S
C1455 C486 1.672 . S
C1460 C426 1.655 . S
C1465 C458 1.942 . S
C1470 C434 1.733 . S
C1475 C224 1.483 . S
C1480 C491 1.576 . S
C1485 C446 1.675 . S
C1490 C550 1.662 . S
C1495 C459 1.448 . S
C1500 C445 1.563 . S
C1505 C185 1.732 . S
C1510 C238 1.711 . S
C1515 C421 1.933 . S
C1520 C471 1.880 . S
C1525 C602 1.675 . S
C1530 C498 1.541 . S
C1535 C524 1.860 . S
C1540 C582 2.027 . S
C1545 C5 2.061 . S
C1550 C291 1.920 1_455 S
C1555 C263 1.554 . S
C1560 C31 1.683 1_455 S
C1565 C439 1.875 . S
C1570 C549 1.946 . S
C1575 C179 1.885 . S
C1580 C562 1.869 . S
