# Generated by pormake.
# Topology fch, (5)-cn, num edge types: 1
# Building blocks:
#     Node 0, Type 0, BuildingBlock: XOMCOT_clean_sbu_1, # of connection points: 5
#     Node 1, Type 0, BuildingBlock: XOMCOT_clean_sbu_1, # of connection points: 5
#     Node 2, Type 0, BuildingBlock: XOMCOT_clean_sbu_1, # of connection points: 5
#     Node 3, Type 0, BuildingBlock: XOMCOT_clean_sbu_1, # of connection points: 5
#     Node 4, Type 0, BuildingBlock: XOMCOT_clean_sbu_1, # of connection points: 5
#     Node 5, Type 0, BuildingBlock: XOMCOT_clean_sbu_1, # of connection points: 5
#     Node 6, Type 0, BuildingBlock: XOMCOT_clean_sbu_1, # of connection points: 5
#     Node 7, Type 0, BuildingBlock: XOMCOT_clean_sbu_1, # of connection points: 5
#     Node 8, Type 0, BuildingBlock: XOMCOT_clean_sbu_1, # of connection points: 5
#     Node 9, Type 0, BuildingBlock: XOMCOT_clean_sbu_1, # of connection points: 5
#     Node 10, Type 0, BuildingBlock: XOMCOT_clean_sbu_1, # of connection points: 5
#     Node 11, Type 0, BuildingBlock: XOMCOT_clean_sbu_1, # of connection points: 5
#     Node 12, Type 0, BuildingBlock: XOMCOT_clean_sbu_1, # of connection points: 5
#     Node 13, Type 0, BuildingBlock: XOMCOT_clean_sbu_1, # of connection points: 5
#     Node 14, Type 0, BuildingBlock: XOMCOT_clean_sbu_1, # of connection points: 5
#     Node 15, Type 0, BuildingBlock: XOMCOT_clean_sbu_1, # of connection points: 5
#     Node 16, Type 0, BuildingBlock: XOMCOT_clean_sbu_1, # of connection points: 5
#     Node 17, Type 0, BuildingBlock: XOMCOT_clean_sbu_1, # of connection points: 5
#     Node 18, Type 0, BuildingBlock: XOMCOT_clean_sbu_1, # of connection points: 5
#     Node 19, Type 0, BuildingBlock: XOMCOT_clean_sbu_1, # of connection points: 5
#     Node 20, Type 0, BuildingBlock: XOMCOT_clean_sbu_1, # of connection points: 5
#     Node 21, Type 0, BuildingBlock: XOMCOT_clean_sbu_1, # of connection points: 5
#     Node 22, Type 0, BuildingBlock: XOMCOT_clean_sbu_1, # of connection points: 5
#     Node 23, Type 0, BuildingBlock: XOMCOT_clean_sbu_1, # of connection points: 5
#     Node 24, Type 0, BuildingBlock: XOMCOT_clean_sbu_1, # of connection points: 5
#     Node 25, Type 0, BuildingBlock: XOMCOT_clean_sbu_1, # of connection points: 5
#     Node 26, Type 0, BuildingBlock: XOMCOT_clean_sbu_1, # of connection points: 5
#     Node 27, Type 0, BuildingBlock: XOMCOT_clean_sbu_1, # of connection points: 5
#     Node 28, Type 0, BuildingBlock: XOMCOT_clean_sbu_1, # of connection points: 5
#     Node 29, Type 0, BuildingBlock: XOMCOT_clean_sbu_1, # of connection points: 5
#     Node 30, Type 0, BuildingBlock: XOMCOT_clean_sbu_1, # of connection points: 5
#     Node 31, Type 0, BuildingBlock: XOMCOT_clean_sbu_1, # of connection points: 5
#     Node 32, Type 0, BuildingBlock: XOMCOT_clean_sbu_1, # of connection points: 5
#     Node 33, Type 0, BuildingBlock: XOMCOT_clean_sbu_1, # of connection points: 5
#     Node 34, Type 0, BuildingBlock: XOMCOT_clean_sbu_1, # of connection points: 5
#     Node 35, Type 0, BuildingBlock: XOMCOT_clean_sbu_1, # of connection points: 5
#     Node 36, Type 0, BuildingBlock: XOMCOT_clean_sbu_1, # of connection points: 5
#     Node 37, Type 0, BuildingBlock: XOMCOT_clean_sbu_1, # of connection points: 5
#     Node 38, Type 0, BuildingBlock: XOMCOT_clean_sbu_1, # of connection points: 5
#     Node 39, Type 0, BuildingBlock: XOMCOT_clean_sbu_1, # of connection points: 5
#     Node 40, Type 0, BuildingBlock: XOMCOT_clean_sbu_1, # of connection points: 5
#     Node 41, Type 0, BuildingBlock: XOMCOT_clean_sbu_1, # of connection points: 5
#     Node 42, Type 0, BuildingBlock: XOMCOT_clean_sbu_1, # of connection points: 5
#     Node 43, Type 0, BuildingBlock: XOMCOT_clean_sbu_1, # of connection points: 5
#     Node 44, Type 0, BuildingBlock: XOMCOT_clean_sbu_1, # of connection points: 5
#     Node 45, Type 0, BuildingBlock: XOMCOT_clean_sbu_1, # of connection points: 5
#     Node 46, Type 0, BuildingBlock: XOMCOT_clean_sbu_1, # of connection points: 5
#     Node 47, Type 0, BuildingBlock: XOMCOT_clean_sbu_1, # of connection points: 5
#     Edge 48, Type (0, 0), BuildingBlock: KIFKEQ_clean_linker_1, # of connection points: 2
#     Edge 49, Type (0, 0), BuildingBlock: KIFKEQ_clean_linker_1, # of connection points: 2
#     Edge 50, Type (0, 0), BuildingBlock: KIFKEQ_clean_linker_1, # of connection points: 2
#     Edge 51, Type (0, 0), BuildingBlock: KIFKEQ_clean_linker_1, # of connection points: 2
#     Edge 52, Type (0, 0), BuildingBlock: KIFKEQ_clean_linker_1, # of connection points: 2
#     Edge 53, Type (0, 0), BuildingBlock: KIFKEQ_clean_linker_1, # of connection points: 2
#     Edge 54, Type (0, 0), BuildingBlock: KIFKEQ_clean_linker_1, # of connection points: 2
#     Edge 55, Type (0, 0), BuildingBlock: KIFKEQ_clean_linker_1, # of connection points: 2
#     Edge 56, Type (0, 0), BuildingBlock: KIFKEQ_clean_linker_1, # of connection points: 2
#     Edge 57, Type (0, 0), BuildingBlock: KIFKEQ_clean_linker_1, # of connection points: 2
#     Edge 58, Type (0, 0), BuildingBlock: KIFKEQ_clean_linker_1, # of connection points: 2
#     Edge 59, Type (0, 0), BuildingBlock: KIFKEQ_clean_linker_1, # of connection points: 2
#     Edge 60, Type (0, 0), BuildingBlock: KIFKEQ_clean_linker_1, # of connection points: 2
#     Edge 61, Type (0, 0), BuildingBlock: KIFKEQ_clean_linker_1, # of connection points: 2
#     Edge 62, Type (0, 0), BuildingBlock: KIFKEQ_clean_linker_1, # of connection points: 2
#     Edge 63, Type (0, 0), BuildingBlock: KIFKEQ_clean_linker_1, # of connection points: 2
#     Edge 64, Type (0, 0), BuildingBlock: KIFKEQ_clean_linker_1, # of connection points: 2
#     Edge 65, Type (0, 0), BuildingBlock: KIFKEQ_clean_linker_1, # of connection points: 2
#     Edge 66, Type (0, 0), BuildingBlock: KIFKEQ_clean_linker_1, # of connection points: 2
#     Edge 67, Type (0, 0), BuildingBlock: KIFKEQ_clean_linker_1, # of connection points: 2
#     Edge 68, Type (0, 0), BuildingBlock: KIFKEQ_clean_linker_1, # of connection points: 2
#     Edge 69, Type (0, 0), BuildingBlock: KIFKEQ_clean_linker_1, # of connection points: 2
#     Edge 70, Type (0, 0), BuildingBlock: KIFKEQ_clean_linker_1, # of connection points: 2
#     Edge 71, Type (0, 0), BuildingBlock: KIFKEQ_clean_linker_1, # of connection points: 2
#     Edge 72, Type (0, 0), BuildingBlock: KIFKEQ_clean_linker_1, # of connection points: 2
#     Edge 73, Type (0, 0), BuildingBlock: KIFKEQ_clean_linker_1, # of connection points: 2
#     Edge 74, Type (0, 0), BuildingBlock: KIFKEQ_clean_linker_1, # of connection points: 2
#     Edge 75, Type (0, 0), BuildingBlock: KIFKEQ_clean_linker_1, # of connection points: 2
#     Edge 76, Type (0, 0), BuildingBlock: KIFKEQ_clean_linker_1, # of connection points: 2
#     Edge 77, Type (0, 0), BuildingBlock: KIFKEQ_clean_linker_1, # of connection points: 2
#     Edge 78, Type (0, 0), BuildingBlock: KIFKEQ_clean_linker_1, # of connection points: 2
#     Edge 79, Type (0, 0), BuildingBlock: KIFKEQ_clean_linker_1, # of connection points: 2
#     Edge 80, Type (0, 0), BuildingBlock: KIFKEQ_clean_linker_1, # of connection points: 2
#     Edge 81, Type (0, 0), BuildingBlock: KIFKEQ_clean_linker_1, # of connection points: 2
#     Edge 82, Type (0, 0), BuildingBlock: KIFKEQ_clean_linker_1, # of connection points: 2
#     Edge 83, Type (0, 0), BuildingBlock: KIFKEQ_clean_linker_1, # of connection points: 2
#     Edge 84, Type (0, 0), BuildingBlock: KIFKEQ_clean_linker_1, # of connection points: 2
#     Edge 85, Type (0, 0), BuildingBlock: KIFKEQ_clean_linker_1, # of connection points: 2
#     Edge 86, Type (0, 0), BuildingBlock: KIFKEQ_clean_linker_1, # of connection points: 2
#     Edge 87, Type (0, 0), BuildingBlock: KIFKEQ_clean_linker_1, # of connection points: 2
#     Edge 88, Type (0, 0), BuildingBlock: KIFKEQ_clean_linker_1, # of connection points: 2
#     Edge 89, Type (0, 0), BuildingBlock: KIFKEQ_clean_linker_1, # of connection points: 2
#     Edge 90, Type (0, 0), BuildingBlock: KIFKEQ_clean_linker_1, # of connection points: 2
#     Edge 91, Type (0, 0), BuildingBlock: KIFKEQ_clean_linker_1, # of connection points: 2
#     Edge 92, Type (0, 0), BuildingBlock: KIFKEQ_clean_linker_1, # of connection points: 2
#     Edge 93, Type (0, 0), BuildingBlock: KIFKEQ_clean_linker_1, # of connection points: 2
#     Edge 94, Type (0, 0), BuildingBlock: KIFKEQ_clean_linker_1, # of connection points: 2
#     Edge 95, Type (0, 0), BuildingBlock: KIFKEQ_clean_linker_1, # of connection points: 2
#     Edge 96, Type (0, 0), BuildingBlock: KIFKEQ_clean_linker_1, # of connection points: 2
#     Edge 97, Type (0, 0), BuildingBlock: KIFKEQ_clean_linker_1, # of connection points: 2
#     Edge 98, Type (0, 0), BuildingBlock: KIFKEQ_clean_linker_1, # of connection points: 2
#     Edge 99, Type (0, 0), BuildingBlock: KIFKEQ_clean_linker_1, # of connection points: 2
#     Edge 100, Type (0, 0), BuildingBlock: KIFKEQ_clean_linker_1, # of connection points: 2
#     Edge 101, Type (0, 0), BuildingBlock: KIFKEQ_clean_linker_1, # of connection points: 2
#     Edge 102, Type (0, 0), BuildingBlock: KIFKEQ_clean_linker_1, # of connection points: 2
#     Edge 103, Type (0, 0), BuildingBlock: KIFKEQ_clean_linker_1, # of connection points: 2
#     Edge 104, Type (0, 0), BuildingBlock: KIFKEQ_clean_linker_1, # of connection points: 2
#     Edge 105, Type (0, 0), BuildingBlock: KIFKEQ_clean_linker_1, # of connection points: 2
#     Edge 106, Type (0, 0), BuildingBlock: KIFKEQ_clean_linker_1, # of connection points: 2
#     Edge 107, Type (0, 0), BuildingBlock: KIFKEQ_clean_linker_1, # of connection points: 2
#     Edge 108, Type (0, 0), BuildingBlock: KIFKEQ_clean_linker_1, # of connection points: 2
#     Edge 109, Type (0, 0), BuildingBlock: KIFKEQ_clean_linker_1, # of connection points: 2
#     Edge 110, Type (0, 0), BuildingBlock: KIFKEQ_clean_linker_1, # of connection points: 2
#     Edge 111, Type (0, 0), BuildingBlock: KIFKEQ_clean_linker_1, # of connection points: 2
#     Edge 112, Type (0, 0), BuildingBlock: KIFKEQ_clean_linker_1, # of connection points: 2
#     Edge 113, Type (0, 0), BuildingBlock: KIFKEQ_clean_linker_1, # of connection points: 2
#     Edge 114, Type (0, 0), BuildingBlock: KIFKEQ_clean_linker_1, # of connection points: 2
#     Edge 115, Type (0, 0), BuildingBlock: KIFKEQ_clean_linker_1, # of connection points: 2
#     Edge 116, Type (0, 0), BuildingBlock: KIFKEQ_clean_linker_1, # of connection points: 2
#     Edge 117, Type (0, 0), BuildingBlock: KIFKEQ_clean_linker_1, # of connection points: 2
#     Edge 118, Type (0, 0), BuildingBlock: KIFKEQ_clean_linker_1, # of connection points: 2
#     Edge 119, Type (0, 0), BuildingBlock: KIFKEQ_clean_linker_1, # of connection points: 2
#     Edge 120, Type (0, 0), BuildingBlock: KIFKEQ_clean_linker_1, # of connection points: 2
#     Edge 121, Type (0, 0), BuildingBlock: KIFKEQ_clean_linker_1, # of connection points: 2
#     Edge 122, Type (0, 0), BuildingBlock: KIFKEQ_clean_linker_1, # of connection points: 2
#     Edge 123, Type (0, 0), BuildingBlock: KIFKEQ_clean_linker_1, # of connection points: 2
#     Edge 124, Type (0, 0), BuildingBlock: KIFKEQ_clean_linker_1, # of connection points: 2
#     Edge 125, Type (0, 0), BuildingBlock: KIFKEQ_clean_linker_1, # of connection points: 2
#     Edge 126, Type (0, 0), BuildingBlock: KIFKEQ_clean_linker_1, # of connection points: 2
#     Edge 127, Type (0, 0), BuildingBlock: KIFKEQ_clean_linker_1, # of connection points: 2
#     Edge 128, Type (0, 0), BuildingBlock: KIFKEQ_clean_linker_1, # of connection points: 2
#     Edge 129, Type (0, 0), BuildingBlock: KIFKEQ_clean_linker_1, # of connection points: 2
#     Edge 130, Type (0, 0), BuildingBlock: KIFKEQ_clean_linker_1, # of connection points: 2
#     Edge 131, Type (0, 0), BuildingBlock: KIFKEQ_clean_linker_1, # of connection points: 2
#     Edge 132, Type (0, 0), BuildingBlock: KIFKEQ_clean_linker_1, # of connection points: 2
#     Edge 133, Type (0, 0), BuildingBlock: KIFKEQ_clean_linker_1, # of connection points: 2
#     Edge 134, Type (0, 0), BuildingBlock: KIFKEQ_clean_linker_1, # of connection points: 2
#     Edge 135, Type (0, 0), BuildingBlock: KIFKEQ_clean_linker_1, # of connection points: 2
#     Edge 136, Type (0, 0), BuildingBlock: KIFKEQ_clean_linker_1, # of connection points: 2
#     Edge 137, Type (0, 0), BuildingBlock: KIFKEQ_clean_linker_1, # of connection points: 2
#     Edge 138, Type (0, 0), BuildingBlock: KIFKEQ_clean_linker_1, # of connection points: 2
#     Edge 139, Type (0, 0), BuildingBlock: KIFKEQ_clean_linker_1, # of connection points: 2
#     Edge 140, Type (0, 0), BuildingBlock: KIFKEQ_clean_linker_1, # of connection points: 2
#     Edge 141, Type (0, 0), BuildingBlock: KIFKEQ_clean_linker_1, # of connection points: 2
#     Edge 142, Type (0, 0), BuildingBlock: KIFKEQ_clean_linker_1, # of connection points: 2
#     Edge 143, Type (0, 0), BuildingBlock: KIFKEQ_clean_linker_1, # of connection points: 2
#     Edge 144, Type (0, 0), BuildingBlock: KIFKEQ_clean_linker_1, # of connection points: 2
#     Edge 145, Type (0, 0), BuildingBlock: KIFKEQ_clean_linker_1, # of connection points: 2
#     Edge 146, Type (0, 0), BuildingBlock: KIFKEQ_clean_linker_1, # of connection points: 2
#     Edge 147, Type (0, 0), BuildingBlock: KIFKEQ_clean_linker_1, # of connection points: 2
#     Edge 148, Type (0, 0), BuildingBlock: KIFKEQ_clean_linker_1, # of connection points: 2
#     Edge 149, Type (0, 0), BuildingBlock: KIFKEQ_clean_linker_1, # of connection points: 2
#     Edge 150, Type (0, 0), BuildingBlock: KIFKEQ_clean_linker_1, # of connection points: 2
#     Edge 151, Type (0, 0), BuildingBlock: KIFKEQ_clean_linker_1, # of connection points: 2
#     Edge 152, Type (0, 0), BuildingBlock: KIFKEQ_clean_linker_1, # of connection points: 2
#     Edge 153, Type (0, 0), BuildingBlock: KIFKEQ_clean_linker_1, # of connection points: 2
#     Edge 154, Type (0, 0), BuildingBlock: KIFKEQ_clean_linker_1, # of connection points: 2
#     Edge 155, Type (0, 0), BuildingBlock: KIFKEQ_clean_linker_1, # of connection points: 2
#     Edge 156, Type (0, 0), BuildingBlock: KIFKEQ_clean_linker_1, # of connection points: 2
#     Edge 157, Type (0, 0), BuildingBlock: KIFKEQ_clean_linker_1, # of connection points: 2
#     Edge 158, Type (0, 0), BuildingBlock: KIFKEQ_clean_linker_1, # of connection points: 2
#     Edge 159, Type (0, 0), BuildingBlock: KIFKEQ_clean_linker_1, # of connection points: 2
#     Edge 160, Type (0, 0), BuildingBlock: KIFKEQ_clean_linker_1, # of connection points: 2
#     Edge 161, Type (0, 0), BuildingBlock: KIFKEQ_clean_linker_1, # of connection points: 2
#     Edge 162, Type (0, 0), BuildingBlock: KIFKEQ_clean_linker_1, # of connection points: 2
#     Edge 163, Type (0, 0), BuildingBlock: KIFKEQ_clean_linker_1, # of connection points: 2
#     Edge 164, Type (0, 0), BuildingBlock: KIFKEQ_clean_linker_1, # of connection points: 2
#     Edge 165, Type (0, 0), BuildingBlock: KIFKEQ_clean_linker_1, # of connection points: 2
#     Edge 166, Type (0, 0), BuildingBlock: KIFKEQ_clean_linker_1, # of connection points: 2
#     Edge 167, Type (0, 0), BuildingBlock: KIFKEQ_clean_linker_1, # of connection points: 2
# Relax obj value: 0.575
# Max RMSD: 0.220
# Mean RMSD: 0.220
data_MOF--net-fch--node1-XOMCOT_clean_sbu_1--edge1-KIFKEQ_clean_linker_1
_symmetry_space_group_name_H-M    P1
_symmetry_Int_Tables_number       1
_symmetry_cell_setting            triclinic
loop_
_symmetry_equiv_pos_as_xyz
'x, y, z'
_cell_length_a     79.001585
_cell_length_b     78.997893
_cell_length_c     78.985442
_cell_angle_alpha  90.003312
_cell_angle_beta   89.998781
_cell_angle_gamma 89.991294
loop_
_atom_site_label
_atom_site_type_symbol
_atom_site_fract_x
_atom_site_fract_y
_atom_site_fract_z
_atom_type_partial_charge
C0 C 0.03332 0.38493 0.11707 0.0
C1 C 0.01829 0.38004 0.10982 0.0
N2 N 0.00735 0.39304 0.11112 0.0
N3 N 0.03186 0.40097 0.12269 0.0
C4 C 0.01581 0.40553 0.11909 0.0
H5 H 0.04481 0.37751 0.1177 0.0
Co6 Co 0.04982 0.41314 0.13101 0.0
C7 C 0.03981 0.44986 0.13184 0.0
O8 O 0.05012 0.45253 0.1446 0.0
N9 N 0.06887 0.42498 0.13933 0.0
C10 C 0.08869 0.43748 0.15508 0.0
C11 C 0.07588 0.42564 0.15496 0.0
C12 C 0.07813 0.43601 0.1301 0.0
N13 N 0.09004 0.44387 0.13938 0.0
O14 O 0.05936 0.41315 0.10897 0.0
H15 H 0.07159 0.4187 0.16591 0.0
H16 H 0.07522 0.43938 0.11714 0.0
O17 O 0.03806 0.43486 0.12582 0.0
C18 C 0.07201 0.40345 0.1067 0.0
O19 O 0.07794 0.39468 0.11953 0.0
N20 N 0.0406 0.41162 0.15262 0.0
C21 C 0.0365 0.40924 0.18735 0.0
C22 C 0.02828 0.42207 0.17817 0.0
C23 C 0.03014 0.42277 0.16064 0.0
C24 C 0.04626 0.39759 0.16084 0.0
C25 C 0.04427 0.39606 0.17828 0.0
H26 H 0.02385 0.43278 0.15389 0.0
H27 H 0.05372 0.38833 0.15403 0.0
H28 H 0.01063 0.41794 0.12159 0.0
H29 H 0.01567 0.368 0.10382 0.0
H30 H 0.09599 0.44154 0.16595 0.0
H31 H 0.02161 0.43227 0.18442 0.0
H32 H 0.05 0.38539 0.1847 0.0
C33 C 0.60843 0.01917 0.13597 0.0
C34 C 0.61352 0.0043 0.12846 0.0
N35 N 0.60107 -0.0009 0.11802 0.0
N36 N 0.59286 0.0232 0.13027 0.0
C37 C 0.58873 0.01079 0.11935 0.0
H38 H 0.61575 0.02681 0.14466 0.0
Co39 Co 0.58124 0.04289 0.1346 0.0
C40 C 0.54509 0.03297 0.13776 0.0
O41 O 0.54344 0.04365 0.15041 0.0
N42 N 0.56971 0.06351 0.13844 0.0
C43 C 0.5598 0.08847 0.14713 0.0
C44 C 0.5717 0.07607 0.14993 0.0
C45 C 0.55706 0.06911 0.12836 0.0
N46 N 0.55054 0.08398 0.13357 0.0
O47 O 0.58255 0.04862 0.11145 0.0
H48 H 0.58111 0.07657 0.15977 0.0
H49 H 0.55221 0.06193 0.11775 0.0
O50 O 0.55949 0.03122 0.1305 0.0
C51 C 0.59615 0.0559 0.10694 0.0
O52 O 0.60822 0.05807 0.11819 0.0
N53 N 0.58101 0.03728 0.15757 0.0
C54 C 0.57991 0.03386 0.19248 0.0
C55 C 0.57143 0.02224 0.18205 0.0
C56 C 0.57242 0.02398 0.16451 0.0
C57 C 0.59171 0.04657 0.16731 0.0
C58 C 0.59098 0.04552 0.18487 0.0
H59 H 0.56594 0.01491 0.15662 0.0
H60 H 0.60019 0.05555 0.1614 0.0
H61 H 0.57723 0.01075 0.1119 0.0
H62 H 0.62547 -0.00211 0.13043 0.0
H63 H 0.55811 0.09989 0.15451 0.0
H64 H 0.56366 0.01227 0.18735 0.0
H65 H 0.59824 0.05448 0.19225 0.0
C66 C 0.97609 0.60853 0.1397 0.0
C67 C 0.992 0.61312 0.13426 0.0
N68 N -0.00261 0.60139 0.12311 0.0
N69 N 0.97161 0.59397 0.13201 0.0
C70 C 0.98477 0.58998 0.12196 0.0
H71 H 0.96812 0.61554 0.14834 0.0
Co72 Co 0.95091 0.58343 0.13318 0.0
C73 C 0.95901 0.54632 0.13425 0.0
O74 O 0.94695 0.54376 0.14544 0.0
N75 N 0.92932 0.57321 0.13385 0.0
C76 C 0.9027 0.5657 0.13937 0.0
C77 C 0.91545 0.57688 0.14321 0.0
C78 C 0.92415 0.56053 0.1236 0.0
N79 N 0.9083 0.55531 0.12711 0.0
O80 O 0.948 0.58651 0.10968 0.0
H81 H 0.91429 0.58703 0.15222 0.0
H82 H 0.9322 0.55467 0.1142 0.0
O83 O 0.96185 0.56132 0.12875 0.0
C84 C 0.94022 0.59991 0.10542 0.0
O85 O 0.93607 0.61086 0.11724 0.0
N86 N 0.95359 0.58128 0.15664 0.0
C87 C 0.94948 0.57559 0.19083 0.0
C88 C 0.96223 0.56707 0.18194 0.0
C89 C 0.96438 0.57045 0.16473 0.0
C90 C 0.94375 0.592 0.16584 0.0
C91 C 0.941 0.589 0.18297 0.0
H92 H 0.97408 0.56372 0.15786 0.0
H93 H 0.937 0.6021 0.15955 0.0
H94 H 0.98477 0.57933 0.11334 0.0
H95 H -0.00103 0.62428 0.13809 0.0
H96 H 0.89034 0.56516 0.14525 0.0
H97 H 0.96959 0.55714 0.18789 0.0
H98 H 0.93167 0.59643 0.18975 0.0
C99 C 0.38384 0.96978 0.13576 0.0
C100 C 0.3793 0.9857 0.13034 0.0
N101 N 0.39179 0.99166 0.12037 0.0
N102 N 0.39911 0.96585 0.12926 0.0
C103 C 0.4036 0.97936 0.11989 0.0
H104 H 0.37632 0.96143 0.14358 0.0
Co105 Co 0.41 0.94537 0.131 0.0
C106 C 0.44691 0.95357 0.13355 0.0
O107 O 0.44903 0.94123 0.14451 0.0
N108 N 0.42067 0.92406 0.13227 0.0
C109 C 0.43023 0.89846 0.13917 0.0
C110 C 0.41848 0.91077 0.14284 0.0
C111 C 0.4331 0.91897 0.12168 0.0
N112 N 0.43955 0.90377 0.12595 0.0
O113 O 0.40799 0.94238 0.10738 0.0
H114 H 0.40922 0.90989 0.15281 0.0
H115 H 0.43818 0.9269 0.11173 0.0
O116 O 0.43213 0.95666 0.1276 0.0
C117 C 0.39484 0.93441 0.1027 0.0
O118 O 0.38369 0.92992 0.1142 0.0
N119 N 0.41092 0.9482 0.15448 0.0
C120 C 0.41313 0.94579 0.18941 0.0
C121 C 0.42317 0.95748 0.18054 0.0
C122 C 0.42141 0.95892 0.16305 0.0
C123 C 0.39914 0.93906 0.16309 0.0
C124 C 0.40011 0.9375 0.18062 0.0
H125 H 0.42896 0.96819 0.15649 0.0
H126 H 0.38962 0.93205 0.15617 0.0
H127 H 0.41494 0.97986 0.11223 0.0
H128 H 0.36768 0.9923 0.13337 0.0
H129 H 0.43205 0.88672 0.14599 0.0
H130 H 0.43295 0.96477 0.18677 0.0
H131 H 0.39129 0.92921 0.18705 0.0
C132 C 0.02021 0.60997 0.85876 0.0
C133 C 0.00482 0.61489 0.86527 0.0
N134 N -0.00017 0.60316 0.87661 0.0
N135 N 0.02471 0.59513 0.86585 0.0
C136 C 0.01215 0.59134 0.87672 0.0
H137 H 0.02776 0.61684 0.84964 0.0
Co138 Co 0.04463 0.58366 0.86233 0.0
C139 C 0.03509 0.54731 0.85992 0.0
O140 O 0.04599 0.54551 0.84747 0.0
N141 N 0.06553 0.57237 0.8593 0.0
C142 C 0.09108 0.56322 0.85154 0.0
C143 C 0.07866 0.57505 0.84862 0.0
C144 C 0.07089 0.55952 0.86925 0.0
N145 N 0.08606 0.55337 0.86447 0.0
O146 O 0.04986 0.58574 0.88557 0.0
H147 H 0.07961 0.58498 0.83934 0.0
H148 H 0.06338 0.55425 0.87942 0.0
O149 O 0.03313 0.56184 0.8669 0.0
C150 C 0.05919 0.5982 0.8896 0.0
O151 O 0.0637 0.60899 0.87776 0.0
N152 N 0.03941 0.58242 0.8392 0.0
C153 C 0.03735 0.57731 0.80459 0.0
C154 C 0.025 0.57049 0.8154 0.0
C155 C 0.02608 0.57351 0.83275 0.0
C156 C 0.04908 0.59201 0.82869 0.0
C157 C 0.04875 0.5892 0.8113 0.0
H158 H 0.01663 0.56805 0.84098 0.0
H159 H 0.05779 0.60115 0.83393 0.0
H160 H 0.0121 0.58015 0.88461 0.0
H161 H -0.00193 0.62641 0.8622 0.0
H162 H 0.10286 0.56195 0.84466 0.0
H163 H 0.01512 0.56227 0.81065 0.0
H164 H 0.05812 0.59544 0.8035 0.0
C165 C 0.38626 0.02647 0.85386 0.0
C166 C 0.38144 0.01046 0.85878 0.0
N167 N 0.39313 0.00451 0.86969 0.0
N168 N 0.40091 0.03047 0.86163 0.0
C169 C 0.40476 0.0169 0.8712 0.0
H170 H 0.37935 0.03484 0.84551 0.0
Co171 Co 0.41179 0.05103 0.86111 0.0
C172 C 0.44851 0.04244 0.85866 0.0
O173 O 0.45066 0.05479 0.8477 0.0
N174 N 0.42244 0.07246 0.86122 0.0
C175 C 0.43058 0.09917 0.85712 0.0
C176 C 0.41902 0.08694 0.85272 0.0
C177 C 0.43537 0.07675 0.87158 0.0
N178 N 0.44095 0.09263 0.8689 0.0
O179 O 0.40906 0.05311 0.88475 0.0
H180 H 0.40875 0.08892 0.844 0.0
H181 H 0.4411 0.06807 0.88049 0.0
O182 O 0.43377 0.03958 0.8648 0.0
C183 C 0.39501 0.05875 0.89016 0.0
O184 O 0.38277 0.06164 0.87927 0.0
N185 N 0.41378 0.04903 0.83752 0.0
C186 C 0.42019 0.05215 0.80334 0.0
C187 C 0.42713 0.03862 0.8124 0.0
C188 C 0.4234 0.03704 0.82958 0.0
C189 C 0.40432 0.05993 0.82813 0.0
C190 C 0.40784 0.06226 0.81101 0.0
H191 H 0.42894 0.02669 0.83659 0.0
H192 H 0.39463 0.06747 0.83415 0.0
H193 H 0.41546 0.01645 0.87974 0.0
H194 H 0.37015 0.0038 0.85479 0.0
H195 H 0.43133 0.11185 0.85199 0.0
H196 H 0.43614 0.03007 0.80658 0.0
H197 H 0.40154 0.07225 0.80404 0.0
C198 C 0.97017 0.38601 0.85951 0.0
C199 C 0.98566 0.38109 0.86576 0.0
N200 N 0.99143 0.39346 0.876 0.0
N201 N 0.96631 0.4014 0.86575 0.0
C202 C 0.97943 0.40559 0.8758 0.0
H203 H 0.9621 0.37875 0.85117 0.0
Co204 Co 0.94633 0.41288 0.86249 0.0
C205 C 0.95582 0.44923 0.85962 0.0
O206 O 0.9446 0.45108 0.84747 0.0
N207 N 0.92544 0.42419 0.8597 0.0
C208 C 0.90005 0.43382 0.85203 0.0
C209 C 0.91242 0.422 0.84879 0.0
C210 C 0.92016 0.43682 0.86997 0.0
N211 N 0.90504 0.4432 0.86532 0.0
O212 O 0.94159 0.41116 0.88586 0.0
H213 H 0.91157 0.41252 0.83905 0.0
H214 H 0.92773 0.44179 0.88024 0.0
O215 O 0.95795 0.43469 0.86649 0.0
C216 C 0.93446 0.39756 0.89063 0.0
O217 O 0.93179 0.38554 0.87945 0.0
N218 N 0.95098 0.41359 0.83927 0.0
C219 C 0.95316 0.41532 0.80426 0.0
C220 C 0.96499 0.42382 0.81443 0.0
C221 C 0.96388 0.42251 0.832 0.0
C222 C 0.94146 0.40297 0.82965 0.0
C223 C 0.94188 0.40403 0.81207 0.0
H224 H 0.97319 0.42893 0.83966 0.0
H225 H 0.93285 0.39422 0.83571 0.0
H226 H 0.97988 0.41703 0.88332 0.0
H227 H 0.99217 0.36936 0.86297 0.0
H228 H 0.88835 0.43541 0.84509 0.0
H229 H 0.9747 0.43178 0.80892 0.0
H230 H 0.93281 0.39673 0.80486 0.0
C231 C 0.60947 0.97628 0.85636 0.0
C232 C 0.6145 0.99144 0.86333 0.0
N233 N 0.60214 0.99685 0.87376 0.0
N234 N 0.59402 0.9723 0.86238 0.0
C235 C 0.58991 0.98499 0.87298 0.0
H236 H 0.6167 0.96849 0.84773 0.0
Co237 Co 0.58242 0.95256 0.85841 0.0
C238 C 0.54616 0.9624 0.85576 0.0
O239 O 0.54436 0.95167 0.84317 0.0
N240 N 0.57097 0.93183 0.85491 0.0
C241 C 0.56127 0.90668 0.84655 0.0
C242 C 0.57325 0.91899 0.84378 0.0
C243 C 0.55816 0.9264 0.86487 0.0
N244 N 0.55171 0.91146 0.85978 0.0
O245 O 0.58411 0.94696 0.88155 0.0
H246 H 0.58295 0.91821 0.83425 0.0
H247 H 0.55311 0.93375 0.87528 0.0
O248 O 0.56065 0.96416 0.86286 0.0
C249 C 0.59736 0.93906 0.88606 0.0
O250 O 0.60929 0.93628 0.8748 0.0
N251 N 0.58161 0.95811 0.83539 0.0
C252 C 0.57724 0.96038 0.80073 0.0
C253 C 0.57009 0.9726 0.81146 0.0
C254 C 0.57275 0.97144 0.82886 0.0
C255 C 0.5915 0.94858 0.82505 0.0
C256 C 0.5891 0.94903 0.8076 0.0
H257 H 0.56703 0.98078 0.83704 0.0
H258 H 0.60045 0.93975 0.83045 0.0
H259 H 0.57847 0.9852 0.88051 0.0
H260 H 0.62633 -0.00207 0.86094 0.0
H261 H 0.55969 0.89513 0.83933 0.0
H262 H 0.56185 0.98241 0.80658 0.0
H263 H 0.59554 0.93973 0.79988 0.0
C264 C 0.12067 0.03068 0.37991 0.0
C265 C 0.11613 0.01476 0.37449 0.0
N266 N 0.11557 0.00454 0.3881 0.0
N267 N 0.12272 0.03043 0.39685 0.0
C268 C 0.11967 0.01429 0.40147 0.0
H269 H 0.12178 0.04189 0.37213 0.0
Co270 Co 0.12637 0.04954 0.40964 0.0
C271 C 0.12926 0.03846 0.44551 0.0
O272 O 0.14166 0.04939 0.44747 0.0
N273 N 0.12958 0.06972 0.42226 0.0
C274 C 0.1383 0.09386 0.43398 0.0
C275 C 0.14111 0.08236 0.42122 0.0
C276 C 0.11935 0.07452 0.43512 0.0
N277 N 0.12467 0.08878 0.44279 0.0
O278 O 0.10306 0.05479 0.40803 0.0
H279 H 0.15108 0.08345 0.412 0.0
H280 H 0.10875 0.06702 0.43949 0.0
O281 O 0.12216 0.03681 0.43098 0.0
C282 C 0.09978 0.0664 0.39739 0.0
O283 O 0.1123 0.07321 0.3888 0.0
N284 N 0.14947 0.04449 0.40996 0.0
C285 C 0.18411 0.04452 0.41359 0.0
C286 C 0.17451 0.03175 0.42121 0.0
C287 C 0.15701 0.03171 0.41885 0.0
C288 C 0.15897 0.05458 0.39975 0.0
C289 C 0.17644 0.05529 0.40182 0.0
H290 H 0.14957 0.02206 0.42502 0.0
H291 H 0.15278 0.06329 0.39118 0.0
H292 H 0.11963 0.00988 0.41442 0.0
H293 H 0.11312 0.01106 0.36164 0.0
H294 H 0.14587 0.10495 0.43672 0.0
H295 H 0.18024 0.02281 0.42989 0.0
H296 H 0.18368 0.06491 0.39526 0.0
C297 C 0.95698 0.12148 0.38357 0.0
C298 C 0.97177 0.11442 0.37763 0.0
N299 N 0.98321 0.11485 0.39025 0.0
N300 N 0.95915 0.12612 0.39984 0.0
C301 C 0.97528 0.12197 0.40355 0.0
H302 H 0.9452 0.12265 0.37669 0.0
Co303 Co 0.94205 0.13388 0.41357 0.0
C304 C 0.9576 0.1427 0.44633 0.0
O305 O 0.94848 0.15663 0.44598 0.0
N306 N 0.92392 0.1412 0.42751 0.0
C307 C 0.9011 0.15227 0.43995 0.0
C308 C 0.91178 0.15324 0.42618 0.0
C309 C 0.91994 0.13292 0.44192 0.0
N310 N 0.9063 0.13941 0.44981 0.0
O311 O 0.93475 0.11123 0.41648 0.0
H312 H 0.91024 0.16201 0.41586 0.0
H313 H 0.92722 0.12235 0.44669 0.0
O314 O 0.95662 0.13213 0.43403 0.0
C315 C 0.92147 0.1076 0.40814 0.0
O316 O 0.91401 0.11951 0.39923 0.0
N317 N 0.94908 0.15601 0.40916 0.0
C318 C 0.95444 0.19037 0.40493 0.0
C319 C 0.9671 0.18016 0.41209 0.0
C320 C 0.96427 0.16282 0.41381 0.0
C321 C 0.93842 0.16501 0.3991 0.0
C322 C 0.94051 0.1824 0.39727 0.0
H323 H 0.97393 0.15513 0.41967 0.0
H324 H 0.92759 0.15884 0.39346 0.0
H325 H 0.98096 0.12344 0.41592 0.0
H326 H 0.9739 0.1092 0.36514 0.0
H327 H 0.89013 0.16015 0.44225 0.0
H328 H 0.97862 0.18559 0.41716 0.0
H329 H 0.93059 0.18952 0.39105 0.0
C330 C 0.87465 0.96371 0.38435 0.0
C331 C 0.87933 0.9799 0.37994 0.0
N332 N 0.87863 0.98957 0.39396 0.0
N333 N 0.87128 0.96324 0.40108 0.0
C334 C 0.87363 0.97922 0.40653 0.0
H335 H 0.87432 0.95283 0.37605 0.0
Co336 Co 0.8669 0.94381 0.41318 0.0
C337 C 0.86532 0.95404 0.44958 0.0
O338 O 0.85278 0.94335 0.45193 0.0
N339 N 0.86289 0.9234 0.4251 0.0
C340 C 0.85296 0.89956 0.43641 0.0
C341 C 0.8506 0.91153 0.42401 0.0
C342 C 0.87305 0.91767 0.43761 0.0
N343 N 0.86701 0.9036 0.44516 0.0
O344 O 0.88998 0.93775 0.41141 0.0
H345 H 0.84032 0.91137 0.41507 0.0
H346 H 0.88441 0.92423 0.44153 0.0
O347 O 0.87187 0.95564 0.4348 0.0
C348 C 0.89372 0.9271 0.39994 0.0
O349 O 0.88162 0.92127 0.39012 0.0
N350 N 0.844 0.9498 0.41389 0.0
C351 C 0.80943 0.95087 0.4181 0.0
C352 C 0.81963 0.96271 0.42636 0.0
C353 C 0.83707 0.96226 0.4237 0.0
C354 C 0.83397 0.94068 0.40327 0.0
C355 C 0.81649 0.94054 0.40557 0.0
H356 H 0.8449 0.97124 0.43034 0.0
H357 H 0.83969 0.93214 0.39422 0.0
H358 H 0.87247 0.98314 0.41957 0.0
H359 H 0.8833 0.98416 0.36754 0.0
H360 H 0.84453 0.88912 0.43916 0.0
H361 H 0.81438 0.97125 0.43572 0.0
H362 H 0.80879 0.93154 0.39867 0.0
C363 C 0.03019 0.85756 0.38702 0.0
C364 C 0.01453 0.86341 0.3821 0.0
N365 N 0.00872 0.87392 0.39422 0.0
N366 N 0.03411 0.86433 0.40218 0.0
C367 C 0.0209 0.87434 0.40617 0.0
H368 H 0.03821 0.84891 0.38008 0.0
Co369 Co 0.05381 0.86082 0.41401 0.0
C370 C 0.04392 0.8607 0.45043 0.0
O371 O 0.05441 0.84804 0.453 0.0
N372 N 0.07452 0.85766 0.42567 0.0
C373 C 0.09973 0.84951 0.43537 0.0
C374 C 0.08727 0.8464 0.42363 0.0
C375 C 0.08014 0.86803 0.43806 0.0
N376 N 0.09512 0.86308 0.44455 0.0
O377 O 0.05976 0.88377 0.41057 0.0
H378 H 0.08793 0.8366 0.41419 0.0
H379 H 0.07293 0.8787 0.44272 0.0
O380 O 0.04233 0.86695 0.43552 0.0
C381 C 0.07143 0.88665 0.39988 0.0
O382 O 0.07846 0.87386 0.39189 0.0
N383 N 0.04781 0.83801 0.41644 0.0
C384 C 0.04428 0.80372 0.4227 0.0
C385 C 0.03251 0.81527 0.42928 0.0
C386 C 0.03428 0.83243 0.42564 0.0
C387 C 0.05706 0.82679 0.40726 0.0
C388 C 0.05597 0.80953 0.41062 0.0
H389 H 0.02515 0.84121 0.43078 0.0
H390 H 0.06599 0.83134 0.39795 0.0
H391 H 0.02036 0.88205 0.41747 0.0
H392 H 0.00785 0.85997 0.37064 0.0
H393 H 0.11128 0.84231 0.43701 0.0
H394 H 0.02248 0.81119 0.4377 0.0
H395 H 0.06494 0.8011 0.4046 0.0
C396 C 0.13976 0.98136 0.6043 0.0
C397 C 0.13122 0.99584 0.60881 0.0
N398 N 0.11742 -0.00266 0.59882 0.0
N399 N 0.13153 0.97389 0.59139 0.0
C400 C 0.11799 0.9838 0.58839 0.0
H401 H 0.15113 0.97651 0.61017 0.0
Co402 Co 0.13658 0.95363 0.58105 0.0
C403 C 0.13599 0.96102 0.54398 0.0
O404 O 0.14906 0.95095 0.54178 0.0
N405 N 0.14123 0.93246 0.5709 0.0
C406 C 0.15122 0.90736 0.56273 0.0
C407 C 0.15349 0.92079 0.57358 0.0
C408 C 0.13118 0.92524 0.55909 0.0
N409 N 0.1372 0.91029 0.55353 0.0
O410 O 0.11402 0.94641 0.58443 0.0
H411 H 0.16349 0.92159 0.58279 0.0
H412 H 0.12 0.93134 0.55406 0.0
O413 O 0.12999 0.96331 0.55889 0.0
C414 C 0.11118 0.93597 0.59632 0.0
O415 O 0.1238 0.93114 0.60603 0.0
N416 N 0.15905 0.96079 0.57849 0.0
C417 C 0.19329 0.96494 0.57257 0.0
C418 C 0.1815 0.97534 0.56434 0.0
C419 C 0.16433 0.97336 0.56786 0.0
C420 C 0.17038 0.95309 0.5889 0.0
C421 C 0.18767 0.95458 0.58586 0.0
H422 H 0.15535 0.98145 0.56149 0.0
H423 H 0.16593 0.94484 0.59886 0.0
H424 H 0.10851 0.98075 0.579 0.0
H425 H 0.13499 0.0045 0.61871 0.0
H426 H 0.15932 0.89636 0.56164 0.0
H427 H 0.18543 0.98429 0.55472 0.0
H428 H 0.19632 0.94671 0.59301 0.0
C429 C 0.01483 0.13824 0.60973 0.0
C430 C -0.00136 0.13355 0.61405 0.0
N431 N 0.9927 0.12311 0.60193 0.0
N432 N 0.019 0.13084 0.59494 0.0
C433 C 0.00531 0.12172 0.59048 0.0
H434 H 0.02323 0.14613 0.61713 0.0
Co435 Co 0.04001 0.13128 0.58485 0.0
C436 C 0.03337 0.13814 0.54849 0.0
O437 O 0.04607 0.1489 0.54867 0.0
N438 N 0.06186 0.13102 0.575 0.0
C439 C 0.0891 0.13417 0.56829 0.0
C440 C 0.07666 0.13823 0.57976 0.0
C441 C 0.06609 0.12167 0.56129 0.0
N442 N 0.08234 0.12382 0.55661 0.0
O443 O 0.04095 0.10739 0.5853 0.0
H444 H 0.07874 0.14575 0.59092 0.0
H445 H 0.05718 0.11387 0.55443 0.0
O446 O 0.02936 0.13026 0.5621 0.0
C447 C 0.04435 0.09997 0.59915 0.0
O448 O 0.04509 0.10892 0.61315 0.0
N449 N 0.03922 0.15507 0.58512 0.0
C450 C 0.04419 0.18944 0.58157 0.0
C451 C 0.03022 0.18171 0.57389 0.0
C452 C 0.0277 0.16439 0.57619 0.0
C453 C 0.05042 0.16307 0.59547 0.0
C454 C 0.05369 0.18027 0.59338 0.0
H455 H 0.01714 0.15837 0.56994 0.0
H456 H 0.05746 0.15591 0.60474 0.0
H457 H 0.00495 0.11353 0.5795 0.0
H458 H 0.99187 0.13733 0.62535 0.0
H459 H 0.1021 0.13847 0.56854 0.0
H460 H 0.02215 0.18864 0.56524 0.0
H461 H 0.06398 0.18614 0.60028 0.0
C462 C 0.85312 0.01856 0.60479 0.0
C463 C 0.85961 0.00305 0.60934 0.0
N464 N 0.87153 -0.00126 0.59792 0.0
N465 N 0.86088 0.02387 0.59057 0.0
C466 C 0.87211 0.01162 0.58675 0.0
H467 H 0.84344 0.02559 0.61145 0.0
Co468 Co 0.85716 0.04429 0.58014 0.0
C469 C 0.86129 0.03764 0.54301 0.0
O470 O 0.84911 0.04845 0.53954 0.0
N471 N 0.85363 0.06573 0.57022 0.0
C472 C 0.84476 0.09162 0.56333 0.0
C473 C 0.84147 0.07748 0.57292 0.0
C474 C 0.86461 0.07351 0.55965 0.0
N475 N 0.85933 0.08904 0.55492 0.0
O476 O 0.87947 0.05101 0.58543 0.0
H477 H 0.83098 0.07634 0.58154 0.0
H478 H 0.87608 0.06758 0.55509 0.0
O479 O 0.86553 0.03498 0.55844 0.0
C480 C 0.88215 0.06094 0.59778 0.0
O481 O 0.86937 0.0656 0.60736 0.0
N482 N 0.8349 0.03738 0.57541 0.0
C483 C 0.80157 0.03309 0.56579 0.0
C484 C 0.81426 0.0233 0.55831 0.0
C485 C 0.83089 0.02517 0.56382 0.0
C486 C 0.82241 0.04462 0.58482 0.0
C487 C 0.80552 0.04296 0.57998 0.0
H488 H 0.84049 0.01724 0.55825 0.0
H489 H 0.82566 0.05249 0.59554 0.0
H490 H 0.8809 0.01235 0.57628 0.0
H491 H 0.85576 0.9955 0.6201 0.0
H492 H 0.83708 0.10295 0.5627 0.0
H493 H 0.81145 0.01483 0.54789 0.0
H494 H 0.79588 0.05022 0.58649 0.0
C495 C 0.97215 0.87176 0.61188 0.0
C496 C 0.98756 0.87813 0.61678 0.0
N497 N -0.00266 0.87983 0.60289 0.0
N498 N 0.97217 0.8695 0.59499 0.0
C499 C 0.98769 0.87436 0.58986 0.0
H500 H 0.96141 0.86936 0.62002 0.0
Co501 Co 0.95334 0.8627 0.58311 0.0
C502 C 0.96239 0.8621 0.54604 0.0
O503 O 0.95117 0.85017 0.5432 0.0
N504 N 0.93346 0.85592 0.57176 0.0
C505 C 0.912 0.84157 0.56038 0.0
C506 C 0.92522 0.84089 0.57171 0.0
C507 C 0.92452 0.86566 0.5609 0.0
N508 N 0.91166 0.85717 0.55362 0.0
O509 O 0.9453 0.88527 0.58349 0.0
H510 H 0.92878 0.82981 0.57882 0.0
H511 H 0.92825 0.87833 0.55726 0.0
O512 O 0.96481 0.86748 0.56119 0.0
C513 C 0.9344 0.88853 0.59486 0.0
O514 O 0.92984 0.87641 0.60531 0.0
N515 N 0.96111 0.84046 0.58406 0.0
C516 C 0.96308 0.8055 0.58599 0.0
C517 C 0.97129 0.81427 0.57288 0.0
C518 C 0.97051 0.8319 0.57238 0.0
C519 C 0.95544 0.83244 0.59821 0.0
C520 C 0.95634 0.81489 0.59949 0.0
H521 H 0.97677 0.83832 0.56216 0.0
H522 H 0.94878 0.83959 0.60782 0.0
H523 H 0.99177 0.87403 0.57685 0.0
H524 H 0.99098 0.88182 0.62952 0.0
H525 H 0.90369 0.83123 0.55693 0.0
H526 H 0.97717 0.80769 0.5624 0.0
H527 H 0.95061 0.80872 0.61031 0.0
C528 C 0.38367 0.13355 0.02349 0.0
C529 C 0.37844 0.12703 0.00822 0.0
N530 N 0.39049 0.11636 0.00257 0.0
N531 N 0.39902 0.12715 0.02728 0.0
C532 C 0.40281 0.11665 0.01439 0.0
H533 H 0.37664 0.14215 0.03148 0.0
Co534 Co 0.41082 0.13096 0.04697 0.0
C535 C 0.44687 0.13457 0.03708 0.0
O536 O 0.44825 0.14706 0.04799 0.0
N537 N 0.42245 0.13431 0.06766 0.0
C538 C 0.43213 0.14238 0.09291 0.0
C539 C 0.42019 0.14532 0.0806 0.0
C540 C 0.4353 0.12432 0.07295 0.0
N541 N 0.4417 0.1292 0.08799 0.0
O542 O 0.40948 0.1077 0.05217 0.0
H543 H 0.41051 0.15486 0.08146 0.0
H544 H 0.44033 0.11401 0.06547 0.0
O545 O 0.43257 0.12714 0.03508 0.0
C546 C 0.3968 0.10372 0.0612 0.0
O547 O 0.38584 0.11556 0.06527 0.0
N548 N 0.41105 0.15406 0.04189 0.0
C549 C 0.41214 0.18901 0.03896 0.0
C550 C 0.42042 0.17874 0.02705 0.0
C551 C 0.41943 0.16119 0.02855 0.0
C552 C 0.40051 0.16369 0.05148 0.0
C553 C 0.40126 0.18126 0.05068 0.0
H554 H 0.42574 0.15343 0.01924 0.0
H555 H 0.39206 0.15767 0.0604 0.0
H556 H 0.41434 0.10929 0.01376 0.0
H557 H 0.3665 0.1296 0.00202 0.0
H558 H 0.43361 0.14939 0.10459 0.0
H559 H 0.42802 0.18418 0.01702 0.0
H560 H 0.39412 0.18852 0.05984 0.0
C561 C 0.38381 0.86227 0.96765 0.0
C562 C 0.37881 0.86829 0.98322 0.0
N563 N 0.39108 0.87858 0.98911 0.0
N564 N 0.39913 0.86872 0.96388 0.0
C565 C 0.40321 0.87865 0.97711 0.0
H566 H 0.37665 0.85394 0.95947 0.0
Co567 Co 0.41054 0.86586 0.94384 0.0
C568 C 0.44702 0.86381 0.95318 0.0
O569 O 0.44899 0.85171 0.94192 0.0
N570 N 0.42173 0.86351 0.92278 0.0
C571 C 0.43055 0.8566 0.89686 0.0
C572 C 0.41884 0.85331 0.90931 0.0
C573 C 0.43454 0.87361 0.91759 0.0
N574 N 0.4405 0.86932 0.9022 0.0
O575 O 0.40799 0.88914 0.93912 0.0
H576 H 0.40882 0.84416 0.90814 0.0
H577 H 0.43987 0.88355 0.92535 0.0
O578 O 0.43239 0.87053 0.95533 0.0
C579 C 0.39536 0.89295 0.92993 0.0
O580 O 0.38483 0.88089 0.92539 0.0
N581 N 0.41221 0.84266 0.94851 0.0
C582 C 0.41885 0.80848 0.94881 0.0
C583 C 0.42547 0.81878 0.96156 0.0
C584 C 0.42156 0.83599 0.96146 0.0
C585 C 0.40289 0.83222 0.93849 0.0
C586 C 0.40654 0.81499 0.93789 0.0
H587 H 0.42691 0.84402 0.97114 0.0
H588 H 0.39343 0.83747 0.93012 0.0
H589 H 0.41455 0.8863 0.97767 0.0
H590 H 0.3671 0.86534 0.98969 0.0
H591 H 0.43162 0.85014 0.88483 0.0
H592 H 0.4345 0.81388 0.97065 0.0
H593 H 0.4006 0.80708 0.92839 0.0
C594 C 0.13007 0.38162 0.96662 0.0
C595 C 0.12589 0.37671 0.98281 0.0
N596 N 0.1236 0.39078 0.99212 0.0
N597 N 0.13014 0.39866 0.9658 0.0
C598 C 0.12629 0.40389 0.98157 0.0
H599 H 0.13229 0.37333 0.95595 0.0
Co600 Co 0.13265 0.41071 0.94604 0.0
C601 C 0.13546 0.44709 0.95614 0.0
O602 O 0.14731 0.4493 0.94465 0.0
N603 N 0.13472 0.42243 0.92528 0.0
C604 C 0.14165 0.43205 0.89968 0.0
C605 C 0.145 0.42001 0.91178 0.0
C606 C 0.12461 0.43538 0.9205 0.0
N607 N 0.12889 0.4418 0.90529 0.0
O608 O 0.10912 0.40899 0.94208 0.0
H609 H 0.1543 0.41015 0.91041 0.0
H610 H 0.11472 0.44052 0.92847 0.0
O611 O 0.12886 0.43239 0.95816 0.0
C612 C 0.10483 0.39692 0.93235 0.0
O613 O 0.11661 0.38664 0.92666 0.0
N614 N 0.15597 0.41134 0.94981 0.0
C615 C 0.19055 0.41511 0.94775 0.0
C616 C 0.18158 0.42328 0.96065 0.0
C617 C 0.16411 0.42086 0.96173 0.0
C618 C 0.165 0.40072 0.9397 0.0
C619 C 0.18239 0.40284 0.93794 0.0
H620 H 0.15716 0.42739 0.97151 0.0
H621 H 0.15843 0.39163 0.93184 0.0
H622 H 0.1246 0.41697 0.98514 0.0
H623 H 0.12426 0.36386 0.98729 0.0
H624 H 0.14816 0.43354 0.88771 0.0
H625 H 0.18772 0.43235 0.9689 0.0
H626 H 0.18916 0.39582 0.9283 0.0
C627 C 0.61014 0.13602 0.97656 0.0
C628 C 0.61478 0.12951 0.99203 0.0
N629 N 0.60272 0.11853 0.99701 0.0
N630 N 0.59514 0.12931 0.972 0.0
C631 C 0.59098 0.11864 0.98461 0.0
H632 H 0.61733 0.14488 0.96899 0.0
Co633 Co 0.58391 0.133 0.95198 0.0
C634 C 0.54747 0.136 0.96106 0.0
O635 O 0.54597 0.14848 0.95015 0.0
N636 N 0.57283 0.13624 0.931 0.0
C637 C 0.56326 0.14481 0.90588 0.0
C638 C 0.57522 0.14744 0.91825 0.0
C639 C 0.56002 0.12635 0.92546 0.0
N640 N 0.55363 0.1316 0.91055 0.0
O641 O 0.58562 0.10975 0.94681 0.0
H642 H 0.58485 0.15705 0.91765 0.0
H643 H 0.55481 0.11601 0.93278 0.0
O644 O 0.5619 0.1289 0.96328 0.0
C645 C 0.59867 0.10575 0.93832 0.0
O646 O 0.60985 0.11755 0.93478 0.0
N647 N 0.58326 0.1561 0.95704 0.0
C648 C 0.58124 0.19104 0.95922 0.0
C649 C 0.57272 0.18082 0.97099 0.0
C650 C 0.57419 0.16326 0.96989 0.0
C651 C 0.59404 0.16578 0.94777 0.0
C652 C 0.59286 0.18333 0.94819 0.0
H653 H 0.56765 0.15553 0.97905 0.0
H654 H 0.60292 0.15978 0.93925 0.0
H655 H 0.5796 0.11103 0.98465 0.0
H656 H 0.62634 0.1323 -0.00116 0.0
H657 H 0.56165 0.1522 0.89445 0.0
H658 H 0.56452 0.18626 0.98053 0.0
H659 H 0.6002 0.19059 0.93919 0.0
C660 C 0.85979 0.61089 0.97535 0.0
C661 C 0.86688 0.6159 0.99045 0.0
N662 N 0.87719 0.60344 0.99587 0.0
N663 N 0.8656 0.59535 0.97139 0.0
C664 C 0.87619 0.59115 0.98408 0.0
H665 H 0.8513 0.61824 0.96752 0.0
Co666 Co 0.86169 0.58393 0.95149 0.0
C667 C 0.85795 0.54769 0.96105 0.0
O668 O 0.84548 0.54627 0.95012 0.0
N669 N 0.85826 0.57268 0.93066 0.0
C670 C 0.85 0.56338 0.90533 0.0
C671 C 0.8473 0.57527 0.91774 0.0
C672 C 0.86802 0.55972 0.92524 0.0
N673 N 0.863 0.55353 0.91016 0.0
O674 O 0.88499 0.58504 0.94635 0.0
H675 H 0.83791 0.58512 0.91699 0.0
H676 H 0.87823 0.55441 0.93267 0.0
O677 O 0.86531 0.56201 0.96308 0.0
C678 C 0.88983 0.59863 0.93924 0.0
O679 O 0.87878 0.61085 0.93693 0.0
N680 N 0.83857 0.58387 0.95651 0.0
C681 C 0.80357 0.58267 0.95866 0.0
C682 C 0.8136 0.57411 0.97059 0.0
C683 C 0.83118 0.57514 0.96947 0.0
C684 C 0.82914 0.59471 0.94705 0.0
C685 C 0.81156 0.59392 0.94745 0.0
H686 H 0.83876 0.56855 0.97874 0.0
H687 H 0.83535 0.60334 0.93842 0.0
H688 H 0.88361 0.57964 0.98427 0.0
H689 H 0.86471 0.62782 0.99685 0.0
H690 H 0.84291 0.56208 0.89367 0.0
H691 H 0.80797 0.56622 0.98028 0.0
H692 H 0.8045 0.60129 0.93831 0.0
C693 C 0.6061 0.85712 0.0158 0.0
C694 C 0.61055 0.86291 -1e-05 0.0
N695 N 0.59918 0.8747 0.99524 0.0
N696 N 0.59188 0.86509 0.02083 0.0
C697 C 0.58801 0.87577 0.00812 0.0
H698 H 0.61307 0.84807 0.02333 0.0
Co699 Co 0.58145 0.8634 0.04161 0.0
C700 C 0.54422 0.86195 0.03385 0.0
O701 O 0.54174 0.85096 0.0461 0.0
N702 N 0.57135 0.86214 0.06319 0.0
C703 C 0.56349 0.85525 0.08936 0.0
C704 C 0.57475 0.85195 0.07652 0.0
C705 C 0.55874 0.87226 0.06878 0.0
N706 N 0.55327 0.86792 0.08436 0.0
O707 O 0.58392 0.88694 0.0448 0.0
H708 H 0.58463 0.84257 0.07712 0.0
H709 H 0.55295 0.88198 0.06107 0.0
O710 O 0.55921 0.86736 0.03077 0.0
C711 C 0.59751 0.89127 0.05222 0.0
O712 O 0.60876 0.87953 0.05576 0.0
N713 N 0.58003 0.83993 0.03877 0.0
C714 C 0.57726 0.80518 0.04246 0.0
C715 C 0.56671 0.81388 0.0311 0.0
C716 C 0.56873 0.83129 0.02898 0.0
C717 C 0.59218 0.83134 0.04743 0.0
C718 C 0.59098 0.81391 0.0496 0.0
H719 H 0.56072 0.83773 0.02002 0.0
H720 H 0.60221 0.83827 0.05369 0.0
H721 H 0.57737 0.88438 0.00846 0.0
H722 H 0.62164 0.85919 0.99286 0.0
H723 H 0.56268 0.8486 0.10131 0.0
H724 H 0.55637 0.80762 0.02465 0.0
H725 H 0.60016 0.80756 0.05754 0.0
C726 C 0.13771 0.60622 0.02145 0.0
C727 C 0.13146 0.61123 0.00599 0.0
N728 N 0.12038 0.59941 0.00066 0.0
N729 N 0.13063 0.59132 0.02574 0.0
C730 C 0.12009 0.5875 0.01289 0.0
H731 H 0.14663 0.61311 0.02923 0.0
Co732 Co 0.13372 0.58029 0.04596 0.0
C733 C 0.13345 0.5434 0.03756 0.0
O734 O 0.14557 0.54085 0.04868 0.0
N735 N 0.13645 0.5696 0.06724 0.0
C736 C 0.14458 0.56109 0.09287 0.0
C737 C 0.14752 0.57239 0.07999 0.0
C738 C 0.12619 0.55733 0.07334 0.0
N739 N 0.13125 0.55142 0.08855 0.0
O740 O 0.11076 0.5839 0.0514 0.0
H741 H 0.15719 0.58197 0.08031 0.0
H742 H 0.11539 0.55253 0.06644 0.0
O743 O 0.12768 0.5584 0.0352 0.0
C744 C 0.10749 0.59675 0.06049 0.0
O745 O 0.11992 0.60699 0.06468 0.0
N746 N 0.15666 0.57748 0.04051 0.0
C747 C 0.19044 0.56919 0.0397 0.0
C748 C 0.17945 0.56222 0.02774 0.0
C749 C 0.16249 0.56705 0.02799 0.0
C750 C 0.16782 0.58692 0.04961 0.0
C751 C 0.18489 0.58252 0.04992 0.0
H752 H 0.15397 0.56156 0.01884 0.0
H753 H 0.16325 0.59701 0.05764 0.0
H754 H 0.11187 0.57654 0.0128 0.0
H755 H 0.1348 0.62266 -0.00078 0.0
H756 H 0.15208 0.55979 0.10426 0.0
H757 H 0.18364 0.55236 0.01918 0.0
H758 H 0.19335 0.58862 0.05883 0.0
C759 C 0.85822 0.3853 0.02362 0.0
C760 C 0.86414 0.38041 0.00798 0.0
N761 N 0.87535 0.39211 0.00264 0.0
N762 N 0.86554 0.40008 0.02794 0.0
C763 C 0.87596 0.40387 0.015 0.0
H764 H 0.84935 0.37842 0.03146 0.0
Co765 Co 0.86292 0.41159 0.04799 0.0
C766 C 0.85992 0.44799 0.03854 0.0
O767 O 0.84806 0.4498 0.05008 0.0
N768 N 0.8608 0.42303 0.06898 0.0
C769 C 0.85374 0.43287 0.09448 0.0
C770 C 0.85044 0.42074 0.08245 0.0
C771 C 0.87097 0.43593 0.07378 0.0
N772 N 0.86659 0.4425 0.08889 0.0
O773 O 0.88643 0.4096 0.0521 0.0
H774 H 0.84105 0.41098 0.08383 0.0
H775 H 0.88088 0.44104 0.06582 0.0
O776 O 0.86674 0.43344 0.03617 0.0
C777 C 0.89038 0.39857 0.06312 0.0
O778 O 0.87833 0.38934 0.06994 0.0
N779 N 0.83957 0.41255 0.04406 0.0
C780 C 0.80518 0.41768 0.04564 0.0
C781 C 0.81454 0.42506 0.03255 0.0
C782 C 0.8319 0.42193 0.03171 0.0
C783 C 0.83006 0.40252 0.05431 0.0
C784 C 0.81276 0.40535 0.05584 0.0
H785 H 0.83921 0.4279 0.02184 0.0
H786 H 0.83619 0.39331 0.06238 0.0
H787 H 0.88391 0.41502 0.01472 0.0
H788 H 0.86077 0.36895 0.00128 0.0
H789 H 0.84708 0.43458 0.10634 0.0
H790 H 0.80883 0.43412 0.02399 0.0
H791 H 0.80562 0.39887 0.0656 0.0
C792 C 0.52359 0.88392 0.63377 0.0
C793 C 0.50815 0.87878 0.62757 0.0
N794 N 0.50194 0.89126 0.61775 0.0
N795 N 0.52699 0.89956 0.62789 0.0
C796 C 0.51366 0.90367 0.61811 0.0
H797 H 0.53189 0.87672 0.64194 0.0
Co798 Co 0.54656 0.91143 0.63189 0.0
C799 C 0.53693 0.94778 0.63303 0.0
O800 O 0.54741 0.94988 0.64579 0.0
N801 N 0.56718 0.92313 0.63554 0.0
C802 C 0.59136 0.93412 0.64498 0.0
C803 C 0.57922 0.92197 0.64765 0.0
C804 C 0.57299 0.93542 0.62514 0.0
N805 N 0.5873 0.94279 0.63088 0.0
O806 O 0.55265 0.9089 0.60895 0.0
H807 H 0.57943 0.91313 0.65801 0.0
H808 H 0.56634 0.93925 0.61381 0.0
O809 O 0.53506 0.93307 0.62642 0.0
C810 C 0.56197 0.89629 0.60543 0.0
O811 O 0.56612 0.88571 0.61758 0.0
N812 N 0.54042 0.91298 0.65471 0.0
C813 C 0.53695 0.91788 0.68921 0.0
C814 C 0.52521 0.92501 0.67794 0.0
C815 C 0.52698 0.92208 0.66064 0.0
C816 C 0.54949 0.90317 0.66554 0.0
C817 C 0.54844 0.90584 0.68292 0.0
H818 H 0.51796 0.92773 0.65206 0.0
H819 H 0.55852 0.89415 0.66058 0.0
H820 H 0.51276 0.91534 0.611 0.0
H821 H 0.50194 0.86686 0.63021 0.0
H822 H 0.60198 0.93668 0.65323 0.0
H823 H 0.51531 0.9334 0.68234 0.0
H824 H 0.55742 0.89946 0.69106 0.0
C825 C 0.10732 0.51636 0.63772 0.0
C826 C 0.11216 0.50118 0.63068 0.0
N827 N 0.10041 0.49666 0.61915 0.0
N828 N 0.09253 0.52121 0.63079 0.0
C829 C 0.08867 0.50905 0.61948 0.0
H830 H 0.11429 0.52357 0.64704 0.0
Co831 Co 0.08126 0.54118 0.63465 0.0
C832 C 0.04482 0.53176 0.63715 0.0
O833 O 0.04305 0.54237 0.64985 0.0
N834 N 0.07016 0.56211 0.63805 0.0
C835 C 0.06095 0.58736 0.64667 0.0
C836 C 0.07298 0.575 0.649 0.0
C837 C 0.05707 0.56761 0.62851 0.0
N838 N 0.05085 0.58257 0.63385 0.0
O839 O 0.08314 0.54662 0.61147 0.0
H840 H 0.08303 0.57573 0.65816 0.0
H841 H 0.0516 0.56028 0.61832 0.0
O842 O 0.05934 0.52989 0.63015 0.0
C843 C 0.09612 0.55513 0.6073 0.0
O844 O 0.10735 0.55886 0.61899 0.0
N845 N 0.08031 0.53581 0.65772 0.0
C846 C 0.07625 0.53402 0.69248 0.0
C847 C 0.06861 0.52192 0.68194 0.0
C848 C 0.07113 0.52283 0.66449 0.0
C849 C 0.09054 0.54518 0.66789 0.0
C850 C 0.08831 0.54498 0.68536 0.0
H851 H 0.06509 0.51356 0.65647 0.0
H852 H 0.0997 0.55368 0.66231 0.0
H853 H 0.07752 0.50939 0.61153 0.0
H854 H 0.12367 0.49429 0.63346 0.0
H855 H 0.05966 0.59888 0.65397 0.0
H856 H 0.06017 0.51238 0.687 0.0
H857 H 0.0951 0.55416 0.69291 0.0
C858 C 0.4675 0.11227 0.62284 0.0
C859 C 0.48314 0.11765 0.61743 0.0
N860 N 0.49314 0.10396 0.61582 0.0
N861 N 0.46766 0.09529 0.62441 0.0
C862 C 0.48351 0.09057 0.62016 0.0
H863 H 0.45655 0.12017 0.62513 0.0
Co864 Co 0.44879 0.08271 0.62976 0.0
C865 C 0.46001 0.04704 0.63345 0.0
O866 O 0.45 0.04565 0.64668 0.0
N867 N 0.42886 0.07037 0.63474 0.0
C868 C 0.40481 0.05967 0.64489 0.0
C869 C 0.41685 0.0721 0.64684 0.0
C870 C 0.42328 0.05731 0.6252 0.0
N871 N 0.40897 0.05031 0.63129 0.0
O872 O 0.44212 0.08325 0.60677 0.0
H873 H 0.4165 0.08168 0.65652 0.0
H874 H 0.43012 0.05254 0.61433 0.0
O875 O 0.46116 0.06124 0.62567 0.0
C876 C 0.43127 0.09463 0.60336 0.0
O877 O 0.42619 0.10475 0.61555 0.0
N878 N 0.45527 0.08342 0.65246 0.0
C879 C 0.45937 0.08372 0.68731 0.0
C880 C 0.47093 0.07502 0.67698 0.0
C881 C 0.46882 0.07529 0.65945 0.0
C882 C 0.44603 0.09438 0.66197 0.0
C883 C 0.44744 0.09434 0.67952 0.0
H884 H 0.47778 0.06855 0.65165 0.0
H885 H 0.43667 0.10235 0.65593 0.0
H886 H 0.48779 0.07759 0.61965 0.0
H887 H 0.48685 0.13057 0.61473 0.0
H888 H 0.39385 0.05771 0.65288 0.0
H889 H 0.48108 0.06756 0.68237 0.0
H890 H 0.43847 0.10172 0.68678 0.0
C891 C 0.88373 0.47015 0.6356 0.0
C892 C 0.87877 0.48591 0.63006 0.0
N893 N 0.88994 0.49119 0.61829 0.0
N894 N 0.89805 0.46568 0.62748 0.0
C895 C 0.90148 0.47867 0.61699 0.0
H896 H 0.87716 0.4623 0.64468 0.0
Co897 Co 0.90917 0.44527 0.62913 0.0
C898 C 0.94575 0.45396 0.63156 0.0
O899 O 0.94763 0.44202 0.643 0.0
N900 N 0.92008 0.42394 0.63018 0.0
C901 C 0.9287 0.39766 0.63579 0.0
C902 C 0.91707 0.41 0.63968 0.0
C903 C 0.93286 0.41917 0.61984 0.0
N904 N 0.93873 0.40355 0.62338 0.0
O905 O 0.90652 0.44192 0.60561 0.0
H906 H 0.90708 0.40846 0.64881 0.0
H907 H 0.93832 0.42739 0.61034 0.0
O908 O 0.93111 0.45674 0.6251 0.0
C909 C 0.89349 0.43343 0.60153 0.0
O910 O 0.88278 0.42901 0.61347 0.0
N911 N 0.91089 0.44842 0.6526 0.0
C912 C 0.91632 0.44669 0.68704 0.0
C913 C 0.92372 0.45972 0.67761 0.0
C914 C 0.92047 0.46062 0.66027 0.0
C915 C 0.90104 0.43804 0.66219 0.0
C916 C 0.90405 0.43643 0.67947 0.0
H917 H 0.92632 0.47058 0.65298 0.0
H918 H 0.89153 0.43025 0.65619 0.0
H919 H 0.91218 0.47884 0.60843 0.0
H920 H 0.86755 0.4927 0.63403 0.0
H921 H 0.92973 0.38534 0.64169 0.0
H922 H 0.93272 0.46835 0.68332 0.0
H923 H 0.89748 0.42678 0.68667 0.0
C924 C 0.51952 0.10653 0.35756 0.0
C925 C 0.50352 0.11104 0.36276 0.0
N926 N 0.49849 0.09997 0.37473 0.0
N927 N 0.52438 0.09258 0.36609 0.0
C928 C 0.51138 0.08891 0.37647 0.0
H929 H 0.52728 0.11319 0.34846 0.0
Co930 Co 0.5452 0.08221 0.36526 0.0
C931 C 0.53724 0.04535 0.36216 0.0
O932 O 0.54939 0.04371 0.3509 0.0
N933 N 0.5669 0.07217 0.36503 0.0
C934 C 0.59407 0.06574 0.36092 0.0
C935 C 0.58134 0.07698 0.35717 0.0
C936 C 0.57168 0.05875 0.37451 0.0
N937 N 0.58788 0.05418 0.37174 0.0
O938 O 0.54747 0.08467 0.38893 0.0
H939 H 0.58298 0.0881 0.34948 0.0
H940 H 0.56324 0.05206 0.38296 0.0
O941 O 0.53427 0.05989 0.36876 0.0
C942 C 0.55256 0.09887 0.39448 0.0
O943 O 0.55472 0.11139 0.38374 0.0
N944 N 0.54303 0.08045 0.34164 0.0
C945 C 0.54605 0.07403 0.30748 0.0
C946 C 0.53257 0.06705 0.31657 0.0
C947 C 0.53102 0.0708 0.33375 0.0
C948 C 0.5538 0.09 0.33219 0.0
C949 C 0.55609 0.08647 0.31508 0.0
H950 H 0.52076 0.0652 0.34083 0.0
H951 H 0.56119 0.09983 0.33812 0.0
H952 H 0.5115 0.07845 0.38531 0.0
H953 H 0.49641 0.12194 0.35849 0.0
H954 H 0.60689 0.06608 0.3561 0.0
H955 H 0.52409 0.05795 0.3108 0.0
H956 H 0.56602 0.09281 0.30807 0.0
C957 C 0.88218 0.52578 0.36328 0.0
C958 C 0.87701 0.51047 0.36979 0.0
N959 N 0.88981 0.50407 0.37909 0.0
N960 N 0.89813 0.52889 0.36843 0.0
C961 C 0.90243 0.5155 0.37807 0.0
H962 H 0.87472 0.53427 0.35554 0.0
Co963 Co 0.91033 0.54843 0.3648 0.0
C964 C 0.94418 0.5351 0.35509 0.0
O965 O 0.94413 0.54537 0.34198 0.0
N966 N 0.92225 0.56886 0.36194 0.0
C967 C 0.92785 0.59654 0.36067 0.0
C968 C 0.91549 0.58434 0.35914 0.0
C969 C 0.93846 0.57222 0.36626 0.0
N970 N 0.94234 0.58876 0.365 0.0
O971 O 0.9116 0.55212 0.38839 0.0
H972 H 0.90217 0.58686 0.35733 0.0
H973 H 0.947 0.56303 0.37167 0.0
O974 O 0.93172 0.53527 0.3655 0.0
C975 C 0.89821 0.55781 0.39525 0.0
O976 O 0.88447 0.55941 0.38602 0.0
N977 N 0.90824 0.54503 0.34123 0.0
C978 C 0.90896 0.54291 0.30613 0.0
C979 C 0.9135 0.5289 0.31605 0.0
C980 C 0.9127 0.53011 0.33365 0.0
C981 C 0.90125 0.55762 0.33178 0.0
C982 C 0.90188 0.55705 0.3142 0.0
H983 H 0.91661 0.51938 0.34118 0.0
H984 H 0.89549 0.56839 0.33776 0.0
H985 H 0.91435 0.51449 0.38473 0.0
H986 H 0.86481 0.50455 0.36787 0.0
H987 H 0.92615 0.61006 0.35933 0.0
H988 H 0.91825 0.51739 0.31032 0.0
H989 H 0.89768 0.56801 0.30713 0.0
C990 C 0.47551 0.88281 0.36004 0.0
C991 C 0.4913 0.87833 0.36583 0.0
N992 N 0.49708 0.89092 0.37577 0.0
N993 N 0.47147 0.89818 0.36625 0.0
C994 C 0.4848 0.90277 0.37583 0.0
H995 H 0.46732 0.87516 0.35219 0.0
Co996 Co 0.45092 0.90882 0.36385 0.0
C997 C 0.45877 0.94588 0.3612 0.0
O998 O 0.44663 0.94786 0.34999 0.0
N999 N 0.42949 0.9191 0.36184 0.0
C1000 C 0.4035 0.92703 0.35437 0.0
C1001 C 0.41642 0.91578 0.3513 0.0
C1002 C 0.42371 0.93173 0.37183 0.0
N1003 N 0.40822 0.93718 0.36719 0.0
O1004 O 0.44732 0.90714 0.38741 0.0
H1005 H 0.41602 0.90592 0.34189 0.0
H1006 H 0.43121 0.93749 0.38173 0.0
O1007 O 0.46187 0.93114 0.36723 0.0
C1008 C 0.43938 0.8939 0.39191 0.0
O1009 O 0.43554 0.88258 0.38034 0.0
N1010 N 0.45425 0.90938 0.34041 0.0
C1011 C 0.45173 0.91076 0.30546 0.0
C1012 C 0.46289 0.92157 0.3141 0.0
C1013 C 0.46441 0.92025 0.33164 0.0
C1014 C 0.44574 0.89698 0.33205 0.0
C1015 C 0.44418 0.89747 0.31451 0.0
H1016 H 0.47326 0.92842 0.33804 0.0
H1017 H 0.43915 0.88731 0.33916 0.0
H1018 H 0.48515 0.91422 0.38335 0.0
H1019 H 0.49792 0.86665 0.36306 0.0
H1020 H 0.39166 0.9278 0.34751 0.0
H1021 H 0.46963 0.93161 0.30767 0.0
H1022 H 0.43636 0.8881 0.30828 0.0
C1023 C 0.10343 0.47711 0.35236 0.0
C1024 C 0.10719 0.49325 0.3577 0.0
N1025 N 0.09597 0.49761 0.36979 0.0
N1026 N 0.0898 0.47147 0.36093 0.0
C1027 C 0.08557 0.48418 0.37146 0.0
H1028 H 0.11048 0.46975 0.34321 0.0
Co1029 Co 0.0806 0.45011 0.3601 0.0
C1030 C 0.04335 0.45553 0.35715 0.0
O1031 O 0.04264 0.44289 0.34634 0.0
N1032 N 0.07168 0.42793 0.35985 0.0
C1033 C 0.06468 0.40112 0.35457 0.0
C1034 C 0.07551 0.41412 0.35046 0.0
C1035 C 0.05934 0.42249 0.37038 0.0
N1036 N 0.05441 0.40652 0.36701 0.0
O1037 O 0.08331 0.44797 0.38378 0.0
H1038 H 0.08535 0.41324 0.34108 0.0
H1039 H 0.05325 0.43055 0.37963 0.0
O1040 O 0.05764 0.45978 0.36357 0.0
C1041 C 0.09713 0.44109 0.38828 0.0
O1042 O 0.10848 0.43761 0.37662 0.0
N1043 N 0.07887 0.45206 0.33649 0.0
C1044 C 0.07376 0.44721 0.30221 0.0
C1045 C 0.06458 0.45967 0.31094 0.0
C1046 C 0.06783 0.46235 0.32808 0.0
C1047 C 0.09016 0.44263 0.32756 0.0
C1048 C 0.08765 0.43971 0.31036 0.0
H1049 H 0.06073 0.47197 0.33468 0.0
H1050 H 0.10046 0.43639 0.33408 0.0
H1051 H 0.07525 0.48342 0.38044 0.0
H1052 H 0.11777 0.50087 0.35351 0.0
H1053 H 0.06413 0.38881 0.34858 0.0
H1054 H 0.05427 0.46648 0.30502 0.0
H1055 H 0.09592 0.43096 0.30378 0.0
C1056 C 0.63597 0.52375 0.88663 0.0
C1057 C 0.63051 0.50797 0.88168 0.0
N1058 N 0.61997 0.502 0.89369 0.0
N1059 N 0.62891 0.52759 0.90168 0.0
C1060 C 0.61922 0.51414 0.90564 0.0
H1061 H 0.64418 0.53211 0.87954 0.0
Co1062 Co 0.63025 0.54795 0.91286 0.0
C1063 C 0.63376 0.53879 0.94938 0.0
O1064 O 0.64504 0.55087 0.95135 0.0
N1065 N 0.631 0.5692 0.92386 0.0
C1066 C 0.63632 0.59552 0.93253 0.0
C1067 C 0.63994 0.58344 0.92054 0.0
C1068 C 0.62118 0.57353 0.93719 0.0
N1069 N 0.62462 0.58915 0.9431 0.0
O1070 O 0.60658 0.55058 0.91099 0.0
H1071 H 0.64851 0.58533 0.91013 0.0
H1072 H 0.61219 0.56499 0.943 0.0
O1073 O 0.62712 0.53623 0.93479 0.0
C1074 C 0.60116 0.55645 0.89704 0.0
O1075 O 0.61198 0.55907 0.88467 0.0
N1076 N 0.65381 0.54549 0.91385 0.0
C1077 C 0.68823 0.54851 0.91855 0.0
C1078 C 0.67947 0.5351 0.9261 0.0
C1079 C 0.66212 0.53356 0.92322 0.0
C1080 C 0.66278 0.55619 0.90377 0.0
C1081 C 0.68004 0.55845 0.90641 0.0
H1082 H 0.65532 0.52335 0.92923 0.0
H1083 H 0.65628 0.56378 0.89442 0.0
H1084 H 0.61111 0.51362 0.91668 0.0
H1085 H 0.63387 0.50149 0.87008 0.0
H1086 H 0.64198 0.60796 0.93347 0.0
H1087 H 0.68566 0.52671 0.935 0.0
H1088 H 0.68672 0.56839 0.89971 0.0
C1089 C 0.4718 0.63785 0.88756 0.0
C1090 C 0.48677 0.63074 0.88226 0.0
N1091 N 0.49177 0.61944 0.89403 0.0
N1092 N 0.46754 0.63119 0.90267 0.0
C1093 C 0.47985 0.61995 0.90625 0.0
H1094 H 0.46429 0.64702 0.8807 0.0
Co1095 Co 0.44787 0.6354 0.91433 0.0
C1096 C 0.45749 0.63717 0.95068 0.0
O1097 O 0.44689 0.64986 0.9526 0.0
N1098 N 0.4272 0.6392 0.92576 0.0
C1099 C 0.40199 0.64783 0.93507 0.0
C1100 C 0.41473 0.65075 0.92356 0.0
C1101 C 0.42123 0.62898 0.93811 0.0
N1102 N 0.40619 0.63415 0.94428 0.0
O1103 O 0.44182 0.61239 0.91215 0.0
H1104 H 0.41447 0.66062 0.91418 0.0
H1105 H 0.42822 0.61824 0.94293 0.0
O1106 O 0.45933 0.63035 0.93606 0.0
C1107 C 0.43277 0.6089 0.89932 0.0
O1108 O 0.42894 0.62108 0.88865 0.0
N1109 N 0.45387 0.65826 0.91545 0.0
C1110 C 0.45817 0.693 0.91761 0.0
C1111 C 0.4693 0.68207 0.92608 0.0
C1112 C 0.46717 0.66463 0.92449 0.0
C1113 C 0.44498 0.66856 0.90493 0.0
C1114 C 0.44651 0.68605 0.90615 0.0
H1115 H 0.476 0.65635 0.93083 0.0
H1116 H 0.43605 0.66314 0.89608 0.0
H1117 H 0.47996 0.61219 0.91753 0.0
H1118 H 0.4932 0.63333 0.87044 0.0
H1119 H 0.39051 0.65518 0.93645 0.0
H1120 H 0.47919 0.68692 0.93424 0.0
H1121 H 0.43796 0.69392 0.89889 0.0
C1122 C 0.36036 0.47423 0.88116 0.0
C1123 C 0.36587 0.49021 0.8769 0.0
N1124 N 0.37561 0.49603 0.88964 0.0
N1125 N 0.36659 0.47013 0.8965 0.0
C1126 C 0.3759 0.48357 0.90129 0.0
H1127 H 0.35247 0.46604 0.87354 0.0
Co1128 Co 0.36397 0.44983 0.90755 0.0
C1129 C 0.36077 0.45858 0.94409 0.0
O1130 O 0.34884 0.44708 0.94567 0.0
N1131 N 0.36188 0.42865 0.91848 0.0
C1132 C 0.35538 0.40277 0.92767 0.0
C1133 C 0.35168 0.41512 0.91596 0.0
C1134 C 0.37223 0.42369 0.93116 0.0
N1135 N 0.36826 0.4083 0.93733 0.0
O1136 O 0.38746 0.4458 0.90562 0.0
H1137 H 0.34216 0.4139 0.90629 0.0
H1138 H 0.38208 0.43169 0.93631 0.0
O1139 O 0.36768 0.46112 0.92963 0.0
C1140 C 0.39177 0.43718 0.89275 0.0
O1141 O 0.38008 0.43295 0.88169 0.0
N1142 N 0.34064 0.45376 0.90847 0.0
C1143 C 0.30567 0.45445 0.91126 0.0
C1144 C 0.31557 0.46677 0.91939 0.0
C1145 C 0.33311 0.4664 0.91754 0.0
C1146 C 0.33114 0.44389 0.89807 0.0
C1147 C 0.31361 0.44355 0.89966 0.0
H1148 H 0.34058 0.47597 0.92381 0.0
H1149 H 0.3373 0.43558 0.8891 0.0
H1150 H 0.38321 0.48401 0.91286 0.0
H1151 H 0.36289 0.49701 0.86539 0.0
H1152 H 0.34901 0.39072 0.92899 0.0
H1153 H 0.3099 0.47624 0.92752 0.0
H1154 H 0.30659 0.43416 0.89258 0.0
C1155 C 0.5235 0.35843 0.88393 0.0
C1156 C 0.50796 0.36454 0.87895 0.0
N1157 N 0.50221 0.37499 0.89115 0.0
N1158 N 0.52739 0.36499 0.89919 0.0
C1159 C 0.51423 0.37504 0.90325 0.0
H1160 H 0.53165 0.35011 0.87673 0.0
Co1161 Co 0.54763 0.3626 0.91038 0.0
C1162 C 0.53862 0.35925 0.94686 0.0
O1163 O 0.55033 0.34755 0.94854 0.0
N1164 N 0.56885 0.36079 0.92139 0.0
C1165 C 0.59504 0.35459 0.92988 0.0
C1166 C 0.58265 0.35116 0.91816 0.0
C1167 C 0.57374 0.37071 0.93446 0.0
N1168 N 0.58932 0.36682 0.94022 0.0
O1169 O 0.55139 0.38611 0.9085 0.0
H1170 H 0.58408 0.34231 0.9079 0.0
H1171 H 0.56566 0.38021 0.94011 0.0
O1172 O 0.5361 0.36615 0.93238 0.0
C1173 C 0.55995 0.39044 0.89559 0.0
O1174 O 0.5643 0.37873 0.8846 0.0
N1175 N 0.54403 0.3392 0.91129 0.0
C1176 C 0.54588 0.3048 0.91639 0.0
C1177 C 0.53274 0.31407 0.9238 0.0
C1178 C 0.53177 0.33142 0.92069 0.0
C1179 C 0.55434 0.32976 0.90123 0.0
C1180 C 0.55601 0.31246 0.90407 0.0
H1181 H 0.52185 0.33866 0.92668 0.0
H1182 H 0.5622 0.33591 0.89187 0.0
H1183 H 0.51386 0.38288 0.91448 0.0
H1184 H 0.50151 0.36166 0.86721 0.0
H1185 H 0.60731 0.34855 0.93069 0.0
H1186 H 0.52423 0.30829 0.93287 0.0
H1187 H 0.56579 0.30539 0.89754 0.0
C1188 C 0.63393 0.47132 0.11105 0.0
C1189 C 0.62687 0.48636 0.1163 0.0
N1190 N 0.61697 0.49225 0.10371 0.0
N1191 N 0.62852 0.46788 0.09525 0.0
C1192 C 0.61817 0.48078 0.09113 0.0
H1193 H 0.64223 0.46325 0.11836 0.0
Co1194 Co 0.63299 0.44847 0.08323 0.0
C1195 C 0.63594 0.45894 0.04722 0.0
O1196 O 0.6487 0.44839 0.04547 0.0
N1197 N 0.63701 0.42808 0.07131 0.0
C1198 C 0.64618 0.40359 0.06068 0.0
C1199 C 0.64874 0.4157 0.07294 0.0
C1200 C 0.627 0.42262 0.05855 0.0
N1201 N 0.63253 0.40808 0.05157 0.0
O1202 O 0.60994 0.44242 0.08467 0.0
H1203 H 0.65863 0.41515 0.0823 0.0
H1204 H 0.61627 0.42975 0.05387 0.0
O1205 O 0.62865 0.46046 0.06164 0.0
C1206 C 0.60646 0.43298 0.09722 0.0
O1207 O 0.61856 0.42918 0.10798 0.0
N1208 N 0.65588 0.45436 0.08295 0.0
C1209 C 0.69073 0.4578 0.08129 0.0
C1210 C 0.68017 0.46954 0.07314 0.0
C1211 C 0.66266 0.4678 0.07445 0.0
C1212 C 0.66579 0.44499 0.09343 0.0
C1213 C 0.68333 0.44607 0.09241 0.0
H1214 H 0.65465 0.47694 0.06819 0.0
H1215 H 0.66003 0.43586 0.10184 0.0
H1216 H 0.61114 0.48144 0.0794 0.0
H1217 H 0.62885 0.49246 0.1284 0.0
H1218 H 0.65385 0.39243 0.05859 0.0
H1219 H 0.68535 0.47955 0.06533 0.0
H1220 H 0.69085 0.43703 0.09944 0.0
C1221 C 0.51982 0.6353 0.11201 0.0
C1222 C 0.50377 0.62998 0.11616 0.0
N1223 N 0.49791 0.62035 0.10336 0.0
N1224 N 0.52394 0.62908 0.09666 0.0
C1225 C 0.51041 0.61995 0.09176 0.0
H1226 H 0.52808 0.64297 0.11977 0.0
Co1227 Co 0.54449 0.6314 0.08603 0.0
C1228 C 0.53669 0.63367 0.04894 0.0
O1229 O 0.54879 0.64492 0.04692 0.0
N1230 N 0.56589 0.63331 0.07569 0.0
C1231 C 0.59149 0.641 0.06673 0.0
C1232 C 0.57882 0.64425 0.07822 0.0
C1233 C 0.57156 0.62294 0.06332 0.0
N1234 N 0.58677 0.62767 0.05726 0.0
O1235 O 0.54813 0.60786 0.08799 0.0
H1236 H 0.57922 0.65418 0.08756 0.0
H1237 H 0.56404 0.61278 0.05802 0.0
O1238 O 0.5336 0.62771 0.06372 0.0
C1239 C 0.55608 0.60324 0.10118 0.0
O1240 O 0.56009 0.61472 0.11254 0.0
N1241 N 0.54099 0.65479 0.08511 0.0
C1242 C 0.54233 0.68978 0.08303 0.0
C1243 C 0.53113 0.68058 0.07274 0.0
C1244 C 0.53022 0.66305 0.07442 0.0
C1245 C 0.54961 0.66365 0.09709 0.0
C1246 C 0.55064 0.68122 0.0962 0.0
H1247 H 0.5213 0.65623 0.06668 0.0
H1248 H 0.55665 0.65693 0.10674 0.0
H1249 H 0.50999 0.6126 0.08022 0.0
H1250 H 0.49697 0.63294 0.12768 0.0
H1251 H 0.60307 0.64816 0.0652 0.0
H1252 H 0.52385 0.6866 0.06282 0.0
H1253 H 0.55855 0.68788 0.10519 0.0
C1254 C 0.36087 0.521 0.10795 0.0
C1255 C 0.36909 0.50653 0.11308 0.0
N1256 N 0.37927 0.50143 0.10038 0.0
N1257 N 0.36585 0.52487 0.09211 0.0
C1258 C 0.37708 0.51278 0.08784 0.0
H1259 H 0.35213 0.52847 0.11539 0.0
Co1260 Co 0.36012 0.54418 0.08059 0.0
C1261 C 0.35831 0.53484 0.04424 0.0
O1262 O 0.34493 0.54462 0.04275 0.0
N1263 N 0.35478 0.56459 0.06926 0.0
C1264 C 0.34443 0.58896 0.05945 0.0
C1265 C 0.34221 0.5761 0.07101 0.0
C1266 C 0.36481 0.57125 0.05711 0.0
N1267 N 0.35866 0.5858 0.05068 0.0
O1268 O 0.38269 0.55172 0.08245 0.0
H1269 H 0.33202 0.57559 0.08004 0.0
H1270 H 0.37613 0.56505 0.05254 0.0
O1271 O 0.36557 0.53322 0.05867 0.0
C1272 C 0.38592 0.56127 0.09496 0.0
O1273 O 0.37374 0.5648 0.10574 0.0
N1274 N 0.33773 0.53657 0.07975 0.0
C1275 C 0.30347 0.52998 0.07682 0.0
C1276 C 0.31529 0.51941 0.06887 0.0
C1277 C 0.3325 0.52269 0.07086 0.0
C1278 C 0.32666 0.54481 0.09003 0.0
C1279 C 0.30933 0.5421 0.08842 0.0
H1280 H 0.3415 0.51441 0.06476 0.0
H1281 H 0.33127 0.55426 0.0988 0.0
H1282 H 0.38405 0.51269 0.07605 0.0
H1283 H 0.36772 0.50029 0.12521 0.0
H1284 H 0.33621 0.59977 0.05769 0.0
H1285 H 0.31129 0.50921 0.06063 0.0
H1286 H 0.30071 0.55022 0.09532 0.0
C1287 C 0.47341 0.3561 0.10846 0.0
C1288 C 0.4895 0.36079 0.11327 0.0
N1289 N 0.49592 0.3709 0.10113 0.0
N1290 N 0.46985 0.36325 0.09339 0.0
C1291 C 0.48373 0.37221 0.08929 0.0
H1292 H 0.46471 0.34834 0.11564 0.0
Co1293 Co 0.44959 0.36289 0.08195 0.0
C1294 C 0.45938 0.35826 0.04569 0.0
O1295 O 0.44712 0.34715 0.04383 0.0
N1296 N 0.42853 0.3632 0.07058 0.0
C1297 C 0.402 0.35978 0.06149 0.0
C1298 C 0.41346 0.35576 0.07399 0.0
C1299 C 0.42536 0.37262 0.05667 0.0
N1300 N 0.4097 0.37018 0.05047 0.0
O1301 O 0.44812 0.38664 0.0838 0.0
H1302 H 0.41064 0.3479 0.08476 0.0
H1303 H 0.43457 0.38094 0.05087 0.0
O1304 O 0.46179 0.36527 0.06013 0.0
C1305 C 0.44105 0.39169 0.09734 0.0
O1306 O 0.43675 0.38041 0.10878 0.0
N1307 N 0.45085 0.33925 0.08109 0.0
C1308 C 0.44665 0.30493 0.07653 0.0
C1309 C 0.4608 0.31306 0.06965 0.0
C1310 C 0.46291 0.33036 0.07246 0.0
C1311 C 0.4392 0.33086 0.09059 0.0
C1312 C 0.43638 0.31367 0.088 0.0
H1313 H 0.47369 0.33668 0.06694 0.0
H1314 H 0.43152 0.33771 0.09958 0.0
H1315 H 0.48457 0.38022 0.0782 0.0
H1316 H 0.4959 0.35719 0.12485 0.0
H1317 H 0.38924 0.35493 0.06027 0.0
H1318 H 0.46944 0.30642 0.06131 0.0
H1319 H 0.42589 0.30746 0.09428 0.0
C1320 C 0.89119 0.64149 0.5239 0.0
C1321 C 0.88773 0.63605 0.50772 0.0
N1322 N 0.8975 0.62243 0.50439 0.0
N1323 N 0.9032 0.63146 0.53065 0.0
C1324 C 0.90669 0.61995 0.51858 0.0
H1325 H 0.88527 0.65202 0.53034 0.0
Co1326 Co 0.91251 0.63222 0.55203 0.0
C1327 C 0.95004 0.63161 0.54566 0.0
O1328 O 0.95283 0.64207 0.5583 0.0
N1329 N 0.9216 0.63247 0.57408 0.0
C1330 C 0.92881 0.63791 0.6008 0.0
C1331 C 0.91829 0.64237 0.58766 0.0
C1332 C 0.93331 0.62139 0.57978 0.0
N1333 N 0.93837 0.62479 0.5957 0.0
O1334 O 0.90859 0.60877 0.55465 0.0
H1335 H 0.90897 0.65229 0.58828 0.0
H1336 H 0.93881 0.61159 0.57195 0.0
O1337 O 0.93487 0.62708 0.54214 0.0
C1338 C 0.89462 0.60397 0.56098 0.0
O1339 O 0.88293 0.61535 0.56425 0.0
N1340 N 0.91573 0.65564 0.5496 0.0
C1341 C 0.92234 0.68988 0.55323 0.0
C1342 C 0.93149 0.68018 0.5415 0.0
C1343 C 0.92757 0.6631 0.53946 0.0
C1344 C 0.90479 0.66545 0.55856 0.0
C1345 C 0.90803 0.68263 0.56086 0.0
H1346 H 0.93456 0.65587 0.53023 0.0
H1347 H 0.89408 0.65967 0.56485 0.0
H1348 H 0.91554 0.60968 0.52044 0.0
H1349 H 0.87873 0.64178 0.49914 0.0
H1350 H 0.92958 0.64408 0.61301 0.0
H1351 H 0.94218 0.68537 0.53467 0.0
H1352 H 0.89989 0.68993 0.56912 0.0
C1353 C 0.88393 0.35585 0.46903 0.0
C1354 C 0.8791 0.36118 0.48491 0.0
N1355 N 0.89105 0.37183 0.4908 0.0
N1356 N 0.89885 0.3631 0.46507 0.0
C1357 C 0.90286 0.37276 0.47853 0.0
H1358 H 0.87681 0.34766 0.46069 0.0
Co1359 Co 0.90974 0.36225 0.44453 0.0
C1360 C 0.94644 0.35894 0.45302 0.0
O1361 O 0.94832 0.34799 0.44062 0.0
N1362 N 0.92045 0.36202 0.42311 0.0
C1363 C 0.92926 0.35691 0.39679 0.0
C1364 C 0.91729 0.35309 0.40882 0.0
C1365 C 0.93361 0.37209 0.41882 0.0
N1366 N 0.93963 0.36875 0.40323 0.0
O1367 O 0.90751 0.38592 0.44241 0.0
H1368 H 0.90707 0.3443 0.40691 0.0
H1369 H 0.93935 0.38106 0.42744 0.0
O1370 O 0.93183 0.36536 0.45601 0.0
C1371 C 0.89405 0.39079 0.43509 0.0
O1372 O 0.88275 0.37939 0.43071 0.0
N1373 N 0.91101 0.33867 0.44647 0.0
C1374 C 0.91662 0.30459 0.44178 0.0
C1375 C 0.92422 0.31298 0.45542 0.0
C1376 C 0.92086 0.33013 0.45783 0.0
C1377 C 0.90082 0.32989 0.43573 0.0
C1378 C 0.90386 0.31282 0.43265 0.0
H1379 H 0.92697 0.33667 0.46816 0.0
H1380 H 0.89119 0.33648 0.42859 0.0
H1381 H 0.91377 0.38103 0.47893 0.0
H1382 H 0.86758 0.35772 0.49148 0.0
H1383 H 0.93043 0.35119 0.38439 0.0
H1384 H 0.93356 0.30674 0.46329 0.0
H1385 H 0.89704 0.30639 0.42263 0.0
C1386 C 0.6394 0.88472 0.47299 0.0
C1387 C 0.63329 0.87973 0.48853 0.0
N1388 N 0.62281 0.8919 0.49428 0.0
N1389 N 0.63282 0.89996 0.46909 0.0
C1390 C 0.6227 0.90396 0.48221 0.0
H1391 H 0.64792 0.87764 0.46495 0.0
Co1392 Co 0.63599 0.91158 0.4492 0.0
C1393 C 0.63664 0.94815 0.4586 0.0
O1394 O 0.64897 0.95068 0.44771 0.0
N1395 N 0.63876 0.92301 0.42838 0.0
C1396 C 0.64715 0.93361 0.40362 0.0
C1397 C 0.65041 0.92169 0.41588 0.0
C1398 C 0.62805 0.93512 0.4228 0.0
N1399 N 0.63312 0.94212 0.40812 0.0
O1400 O 0.61286 0.90883 0.44401 0.0
H1401 H 0.6608 0.91289 0.41545 0.0
H1402 H 0.61725 0.9395 0.43001 0.0
O1403 O 0.63064 0.93322 0.46066 0.0
C1404 C 0.60907 0.89613 0.43493 0.0
O1405 O 0.62111 0.88551 0.43055 0.0
N1406 N 0.65901 0.91335 0.45435 0.0
C1407 C 0.69381 0.91691 0.45663 0.0
C1408 C 0.68319 0.92535 0.46807 0.0
C1409 C 0.66573 0.92304 0.46699 0.0
C1410 C 0.6692 0.90288 0.44525 0.0
C1411 C 0.6867 0.90477 0.44579 0.0
H1412 H 0.65771 0.92941 0.47603 0.0
H1413 H 0.66362 0.89372 0.43673 0.0
H1414 H 0.61493 0.91523 0.48264 0.0
H1415 H 0.63636 0.86809 0.49509 0.0
H1416 H 0.6547 0.93604 0.39245 0.0
H1417 H 0.68826 0.93404 0.47739 0.0
H1418 H 0.69439 0.89755 0.43704 0.0
C1419 C 0.10873 0.63247 0.47527 0.0
C1420 C 0.11373 0.62523 0.4903 0.0
N1421 N 0.10102 0.61533 0.49592 0.0
N1422 N 0.09295 0.62719 0.47155 0.0
C1423 C 0.08863 0.61669 0.48426 0.0
H1424 H 0.11613 0.64094 0.46747 0.0
Co1425 Co 0.0811 0.63249 0.45226 0.0
C1426 C 0.04493 0.63468 0.46258 0.0
O1427 O 0.04288 0.64763 0.45233 0.0
N1428 N 0.06944 0.63744 0.43194 0.0
C1429 C 0.06 0.64744 0.40728 0.0
C1430 C 0.07167 0.64955 0.42002 0.0
C1431 C 0.05686 0.62771 0.42561 0.0
N1432 N 0.05066 0.63369 0.41089 0.0
O1433 O 0.08237 0.60969 0.44528 0.0
H1434 H 0.08122 0.65926 0.42009 0.0
H1435 H 0.05194 0.61667 0.43207 0.0
O1436 O 0.05948 0.62764 0.46387 0.0
C1437 C 0.09513 0.60565 0.43638 0.0
O1438 O 0.10689 0.61706 0.43352 0.0
N1439 N 0.08074 0.65513 0.45918 0.0
C1440 C 0.07806 0.68977 0.46365 0.0
C1441 C 0.07 0.67865 0.47491 0.0
C1442 C 0.07182 0.66125 0.47266 0.0
C1443 C 0.09126 0.66557 0.45046 0.0
C1444 C 0.08975 0.68305 0.45206 0.0
H1445 H 0.06555 0.65281 0.48139 0.0
H1446 H 0.10002 0.66032 0.44135 0.0
H1447 H 0.07682 0.60978 0.48472 0.0
H1448 H 0.12571 0.6272 0.49665 0.0
H1449 H 0.05863 0.65531 0.39615 0.0
H1450 H 0.06176 0.68331 0.48483 0.0
H1451 H 0.09677 0.69103 0.44342 0.0
C1452 C 0.35492 0.10624 0.47023 0.0
C1453 C 0.36081 0.11101 0.48592 0.0
N1454 N 0.37141 0.09887 0.49154 0.0
N1455 N 0.36175 0.09117 0.4661 0.0
C1456 C 0.3718 0.08706 0.47924 0.0
H1457 H 0.34637 0.11336 0.46225 0.0
Co1458 Co 0.359 0.07959 0.44609 0.0
C1459 C 0.35707 0.04319 0.45583 0.0
O1460 O 0.34507 0.04077 0.44456 0.0
N1461 N 0.35675 0.0681 0.42523 0.0
C1462 C 0.34933 0.05775 0.40005 0.0
C1463 C 0.34584 0.06979 0.41213 0.0
C1464 C 0.3673 0.05559 0.42023 0.0
N1465 N 0.36278 0.04873 0.40528 0.0
O1466 O 0.38233 0.08184 0.44165 0.0
H1467 H 0.33584 0.079 0.41112 0.0
H1468 H 0.3776 0.05093 0.42796 0.0
O1469 O 0.36342 0.05798 0.45783 0.0
C1470 C 0.38681 0.09535 0.4342 0.0
O1471 O 0.37534 0.10699 0.43107 0.0
N1472 N 0.33579 0.07835 0.45041 0.0
C1473 C 0.30081 0.07595 0.45186 0.0
C1474 C 0.31088 0.06748 0.46379 0.0
C1475 C 0.32844 0.06916 0.46307 0.0
C1476 C 0.32618 0.08886 0.44076 0.0
C1477 C 0.30863 0.0875 0.44084 0.0
H1478 H 0.33602 0.06279 0.47248 0.0
H1479 H 0.33225 0.09773 0.43228 0.0
H1480 H 0.3797 0.07588 0.47953 0.0
H1481 H 0.35751 0.12247 0.49268 0.0
H1482 H 0.34237 0.05567 0.38843 0.0
H1483 H 0.30531 0.0593 0.47327 0.0
H1484 H 0.30145 0.09474 0.4317 0.0
C1485 C 0.10902 0.35859 0.5171 0.0
C1486 C 0.11395 0.36573 0.50198 0.0
N1487 N 0.10139 0.37593 0.49658 0.0
N1488 N 0.09344 0.36429 0.52109 0.0
C1489 C 0.08913 0.37482 0.50839 0.0
H1490 H 0.11649 0.35023 0.52495 0.0
Co1491 Co 0.08199 0.36074 0.54106 0.0
C1492 C 0.04588 0.35626 0.53131 0.0
O1493 O 0.04446 0.34408 0.54257 0.0
N1494 N 0.07058 0.35776 0.5619 0.0
C1495 C 0.06068 0.34983 0.58711 0.0
C1496 C 0.07291 0.34701 0.57505 0.0
C1497 C 0.05746 0.36756 0.56686 0.0
N1498 N 0.0509 0.36271 0.58183 0.0
O1499 O 0.08279 0.3842 0.54561 0.0
H1500 H 0.08272 0.33762 0.57615 0.0
H1501 H 0.05221 0.37757 0.55912 0.0
O1502 O 0.06013 0.36371 0.52923 0.0
C1503 C 0.09643 0.38912 0.55256 0.0
O1504 O 0.10868 0.37811 0.55485 0.0
N1505 N 0.08233 0.33748 0.53678 0.0
C1506 C 0.08124 0.30241 0.53665 0.0
C1507 C 0.07268 0.31172 0.52414 0.0
C1508 C 0.07364 0.32936 0.52424 0.0
C1509 C 0.09329 0.32865 0.54667 0.0
C1510 C 0.09256 0.31107 0.54729 0.0
H1511 H 0.06692 0.33639 0.51465 0.0
H1512 H 0.10179 0.33538 0.55503 0.0
H1513 H 0.07761 0.38222 0.50826 0.0
H1514 H 0.1259 0.36374 0.49558 0.0
H1515 H 0.05904 0.34285 0.59879 0.0
H1516 H 0.06475 0.30553 0.51483 0.0
H1517 H 0.09993 0.3046 0.55684 0.0
C1518 C 0.63448 0.10894 0.52326 0.0
C1519 C 0.62672 0.11453 0.50873 0.0
N1520 N 0.61545 0.1027 0.5038 0.0
N1521 N 0.62825 0.09362 0.52734 0.0
C1522 C 0.61661 0.09017 0.51536 0.0
H1523 H 0.64392 0.11568 0.53054 0.0
Co1524 Co 0.63409 0.08163 0.54636 0.0
C1525 C 0.63286 0.04519 0.53729 0.0
O1526 O 0.64638 0.04284 0.5467 0.0
N1527 N 0.63975 0.06984 0.56651 0.0
C1528 C 0.65177 0.05806 0.58919 0.0
C1529 C 0.65368 0.06986 0.57652 0.0
C1530 C 0.62927 0.05858 0.57404 0.0
N1531 N 0.63641 0.051 0.58752 0.0
O1532 O 0.61195 0.08504 0.55494 0.0
H1533 H 0.66477 0.07758 0.5749 0.0
H1534 H 0.61701 0.05513 0.56899 0.0
O1535 O 0.62658 0.06009 0.53572 0.0
C1536 C 0.60966 0.09491 0.56744 0.0
O1537 O 0.62275 0.10248 0.57437 0.0
N1538 N 0.656 0.07916 0.53749 0.0
C1539 C 0.68935 0.07264 0.52933 0.0
C1540 C 0.67633 0.06562 0.51961 0.0
C1541 C 0.65963 0.06957 0.52355 0.0
C1542 C 0.66843 0.08858 0.54479 0.0
C1543 C 0.68539 0.08521 0.54121 0.0
H1544 H 0.64969 0.06426 0.51583 0.0
H1545 H 0.66521 0.09784 0.55436 0.0
H1546 H 0.60915 0.07869 0.51513 0.0
H1547 H 0.62896 0.12652 0.50249 0.0
H1548 H 0.66107 0.05468 0.59867 0.0
H1549 H 0.67902 0.05652 0.5097 0.0
H1550 H 0.69516 0.09136 0.5486 0.0
C1551 C 0.35907 0.884 0.52229 0.0
C1552 C 0.366 0.87892 0.50713 0.0
N1553 N 0.3767 0.89111 0.50185 0.0
N1554 N 0.36538 0.89929 0.52642 0.0
C1555 C 0.37612 0.90327 0.51379 0.0
H1556 H 0.35026 0.8769 0.53 0.0
Co1557 Co 0.36162 0.91073 0.5463 0.0
C1558 C 0.36037 0.94715 0.53705 0.0
O1559 O 0.3478 0.94915 0.54778 0.0
N1560 N 0.3584 0.92195 0.56723 0.0
C1561 C 0.35063 0.93106 0.5928 0.0
C1562 C 0.34742 0.91952 0.58015 0.0
C1563 C 0.36874 0.93435 0.57292 0.0
N1564 N 0.36401 0.94046 0.58813 0.0
O1565 O 0.38463 0.90797 0.55204 0.0
H1566 H 0.33779 0.90992 0.58083 0.0
H1567 H 0.37923 0.93927 0.56563 0.0
O1568 O 0.36709 0.9325 0.53513 0.0
C1569 C 0.38862 0.89526 0.56103 0.0
O1570 O 0.37679 0.8844 0.56536 0.0
N1571 N 0.3387 0.91275 0.54036 0.0
C1572 C 0.3046 0.91973 0.53661 0.0
C1573 C 0.31628 0.92578 0.52473 0.0
C1574 C 0.33333 0.92174 0.52659 0.0
C1575 C 0.32724 0.90394 0.54971 0.0
C1576 C 0.31004 0.90767 0.54848 0.0
H1577 H 0.34225 0.92657 0.51743 0.0
H1578 H 0.33154 0.89464 0.55876 0.0
H1579 H 0.38389 0.91455 0.51369 0.0
H1580 H 0.36341 0.86719 0.50054 0.0
H1581 H 0.34367 0.93236 0.60453 0.0
H1582 H 0.31243 0.9342 0.51461 0.0
H1583 H 0.30139 0.90201 0.55747 0.0
H1584 H 0.05949 0.46511 0.27589 0.0
H1585 H 0.07406 0.41455 0.29115 0.0
H1586 H 0.04799 0.45367 0.24955 0.0
H1587 H 0.06317 0.4034 0.26461 0.0
H1588 H 0.06486 0.40026 0.20495 0.0
H1589 H 0.07245 0.40818 0.23351 0.0
H1590 H 0.02385 0.43219 0.24011 0.0
H1591 H 0.01561 0.42346 0.21158 0.0
C1592 C 0.06024 0.45161 0.27368 0.0
C1593 C 0.06788 0.44079 0.28558 0.0
C1594 C 0.0536 0.44508 0.25865 0.0
C1595 C 0.05464 0.42768 0.25521 0.0
C1596 C 0.0623 0.41688 0.267 0.0
C1597 C 0.06874 0.42334 0.28208 0.0
C1598 C 0.0554 0.40659 0.21258 0.0
C1599 C 0.03957 0.41123 0.2058 0.0
C1600 C 0.05989 0.41129 0.22894 0.0
C1601 C 0.0488 0.42096 0.23883 0.0
C1602 C 0.03268 0.42494 0.23253 0.0
C1603 C 0.02802 0.41995 0.21621 0.0
H1604 H 0.54929 0.02856 0.20772 0.0
H1605 H 0.60105 0.04268 0.21871 0.0
H1606 H 0.54122 0.03578 0.23639 0.0
H1607 H 0.59263 0.05147 0.24683 0.0
H1608 H 0.57526 0.05816 0.30035 0.0
H1609 H 0.58354 0.04476 0.27385 0.0
H1610 H 0.53626 0.06085 0.25125 0.0
H1611 H 0.52769 0.07325 0.27827 0.0
C1612 C 0.55905 0.03293 0.21629 0.0
C1613 C 0.57581 0.03525 0.21076 0.0
C1614 C 0.55431 0.03744 0.23268 0.0
C1615 C 0.56613 0.04465 0.24383 0.0
C1616 C 0.58312 0.04595 0.23865 0.0
C1617 C 0.58794 0.04112 0.22238 0.0
C1618 C 0.56673 0.0588 0.28962 0.0
C1619 C 0.55098 0.06684 0.29109 0.0
C1620 C 0.57145 0.05117 0.27445 0.0
C1621 C 0.56063 0.05175 0.26034 0.0
C1622 C 0.5448 0.05984 0.26192 0.0
C1623 C 0.53993 0.06715 0.27726 0.0
H1624 H 0.91771 0.56596 0.19842 0.0
H1625 H 0.9678 0.57028 0.21972 0.0
H1626 H 0.90717 0.55461 0.22503 0.0
H1627 H 0.95717 0.55974 0.24683 0.0
H1628 H 0.93725 0.53056 0.29053 0.0
H1629 H 0.94664 0.53608 0.26178 0.0
H1630 H 0.90052 0.564 0.25221 0.0
H1631 H 0.89058 0.55732 0.28046 0.0
C1632 C 0.92638 0.56468 0.20897 0.0
C1633 C 0.94347 0.56919 0.20724 0.0
C1634 C 0.92037 0.55819 0.22421 0.0
C1635 C 0.93126 0.55636 0.23815 0.0
C1636 C 0.94847 0.56073 0.23629 0.0
C1637 C 0.95456 0.56693 0.22088 0.0
C1638 C 0.92884 0.53737 0.28211 0.0
C1639 C 0.91321 0.54365 0.28787 0.0
C1640 C 0.93439 0.54081 0.2657 0.0
C1641 C 0.92452 0.55078 0.25477 0.0
C1642 C 0.90846 0.55622 0.26022 0.0
C1643 C 0.90282 0.55256 0.27653 0.0
H1644 H 0.47084 0.92422 0.27947 0.0
H1645 H 0.42046 0.9062 0.29144 0.0
H1646 H 0.46071 0.93344 0.25173 0.0
H1647 H 0.41087 0.91453 0.26347 0.0
H1648 H 0.4106 0.91444 0.20374 0.0
H1649 H 0.41993 0.9056 0.23167 0.0
H1650 H 0.43604 0.95658 0.24269 0.0
H1651 H 0.4258 0.96589 0.21502 0.0
C1652 C 0.4577 0.9221 0.27623 0.0
C1653 C 0.44651 0.91442 0.28777 0.0
C1654 C 0.45195 0.92737 0.26037 0.0
C1655 C 0.43504 0.92473 0.25567 0.0
C1656 C 0.424 0.91659 0.26687 0.0
C1657 C 0.42961 0.91163 0.28281 0.0
C1658 C 0.41564 0.92396 0.21221 0.0
C1659 C 0.41735 0.94095 0.20707 0.0
C1660 C 0.42117 0.9188 0.22812 0.0
C1661 C 0.42882 0.93041 0.23909 0.0
C1662 C 0.43038 0.9474 0.23422 0.0
C1663 C 0.42453 0.95268 0.2184 0.0
H1664 H 0.0945 0.54438 0.72031 0.0
H1665 H 0.04393 0.53042 0.7044 0.0
H1666 H 0.08299 0.55484 0.74702 0.0
H1667 H 0.03283 0.53996 0.73155 0.0
H1668 H 0.03221 0.54483 0.79367 0.0
H1669 H 0.04069 0.53256 0.76669 0.0
H1670 H 0.05777 0.58149 0.74961 0.0
H1671 H 0.04836 0.59421 0.77615 0.0
C1672 C 0.08102 0.5433 0.72254 0.0
C1673 C 0.07014 0.53677 0.71004 0.0
C1674 C 0.07449 0.54924 0.73782 0.0
C1675 C 0.05707 0.54836 0.74102 0.0
C1676 C 0.04632 0.54075 0.7292 0.0
C1677 C 0.05277 0.53512 0.71375 0.0
C1678 C 0.03719 0.55318 0.78401 0.0
C1679 C 0.03972 0.57056 0.78721 0.0
C1680 C 0.04222 0.54605 0.76866 0.0
C1681 C 0.05011 0.55609 0.75641 0.0
C1682 C 0.05194 0.57352 0.75914 0.0
C1683 C 0.0466 0.58075 0.77433 0.0
H1684 H 0.45042 0.10549 0.71301 0.0
H1685 H 0.46543 0.05368 0.70347 0.0
H1686 H 0.44185 0.09772 0.74139 0.0
H1687 H 0.45845 0.04632 0.73238 0.0
H1688 H 0.42132 0.03315 0.77455 0.0
H1689 H 0.43351 0.04129 0.74733 0.0
H1690 H 0.44851 0.08951 0.76868 0.0
H1691 H 0.4353 0.08161 0.79539 0.0
C1692 C 0.45223 0.09252 0.71705 0.0
C1693 C 0.45825 0.08016 0.70574 0.0
C1694 C 0.44753 0.08809 0.73347 0.0
C1695 C 0.44911 0.07127 0.73912 0.0
C1696 C 0.45654 0.05927 0.7283 0.0
C1697 C 0.46091 0.06361 0.71177 0.0
C1698 C 0.42713 0.0455 0.77323 0.0
C1699 C 0.42718 0.0569 0.78679 0.0
C1700 C 0.43432 0.05013 0.75777 0.0
C1701 C 0.44208 0.06609 0.75577 0.0
C1702 C 0.44237 0.07729 0.7696 0.0
C1703 C 0.43484 0.07279 0.78489 0.0
H1704 H 0.94436 0.39395 0.77824 0.0
H1705 H 0.95778 0.44597 0.78882 0.0
H1706 H 0.93614 0.40189 0.7498 0.0
H1707 H 0.95108 0.4536 0.75987 0.0
H1708 H 0.91568 0.4659 0.71574 0.0
H1709 H 0.92676 0.45808 0.74359 0.0
H1710 H 0.9443 0.4104 0.72298 0.0
H1711 H 0.93223 0.41793 0.69565 0.0
C1712 C 0.94584 0.40703 0.77444 0.0
C1713 C 0.95146 0.41934 0.78598 0.0
C1714 C 0.94134 0.41157 0.75799 0.0
C1715 C 0.94272 0.42847 0.75255 0.0
C1716 C 0.94943 0.44056 0.76374 0.0
C1717 C 0.95362 0.43608 0.78029 0.0
C1718 C 0.92183 0.45375 0.71736 0.0
C1719 C 0.92292 0.44236 0.70384 0.0
C1720 C 0.92836 0.44931 0.73319 0.0
C1721 C 0.93643 0.43356 0.73558 0.0
C1722 C 0.93785 0.42243 0.72176 0.0
C1723 C 0.931 0.42673 0.70611 0.0
H1724 H 0.59471 0.94981 0.77249 0.0
H1725 H 0.54477 0.96473 0.78953 0.0
H1726 H 0.58241 0.93964 0.74602 0.0
H1727 H 0.5329 0.95544 0.76262 0.0
H1728 H 0.53246 0.95054 0.6998 0.0
H1729 H 0.54105 0.96276 0.72678 0.0
H1730 H 0.55586 0.91337 0.74462 0.0
H1731 H 0.54636 0.90074 0.71805 0.0
C1732 C 0.58121 0.95118 0.77055 0.0
C1733 C 0.57074 0.95788 0.7833 0.0
C1734 C 0.57424 0.9454 0.75542 0.0
C1735 C 0.55677 0.9466 0.75262 0.0
C1736 C 0.54642 0.95439 0.76467 0.0
C1737 C 0.55331 0.95988 0.77997 0.0
C1738 C 0.53692 0.9421 0.70964 0.0
C1739 C 0.53888 0.92462 0.70663 0.0
C1740 C 0.542 0.94919 0.72498 0.0
C1741 C 0.54935 0.93897 0.73742 0.0
C1742 C 0.55044 0.92144 0.73494 0.0
C1743 C 0.54506 0.91428 0.71975 0.0
H1744 H 0.21307 0.02566 0.4118 0.0
H1745 H 0.19247 0.07251 0.43076 0.0
H1746 H 0.24091 0.03333 0.42311 0.0
H1747 H 0.21976 0.07983 0.44299 0.0
H1748 H 0.27464 0.09716 0.44339 0.0
H1749 H 0.24639 0.08907 0.43466 0.0
H1750 H 0.25715 0.03702 0.44785 0.0
H1751 H 0.28592 0.0449 0.45518 0.0
C1752 C 0.21458 0.03753 0.41849 0.0
C1753 C 0.20094 0.04869 0.4202 0.0
C1754 C 0.23039 0.04187 0.42515 0.0
C1755 C 0.23261 0.05726 0.43393 0.0
C1756 C 0.21866 0.06811 0.43597 0.0
C1757 C 0.20304 0.06393 0.42903 0.0
C1758 C 0.27101 0.08398 0.4444 0.0
C1759 C 0.28266 0.07167 0.44976 0.0
C1760 C 0.25469 0.07934 0.4396 0.0
C1761 C 0.24951 0.06232 0.44037 0.0
C1762 C 0.26083 0.05017 0.44672 0.0
C1763 C 0.27726 0.05477 0.45126 0.0
H1764 H 0.94202 0.21544 0.38412 0.0
H1765 H 0.96591 0.20742 0.43277 0.0
H1766 H 0.9341 0.2438 0.3928 0.0
H1767 H 0.95934 0.23622 0.44078 0.0
H1768 H 0.92162 0.27557 0.45985 0.0
H1769 H 0.93404 0.24918 0.44963 0.0
H1770 H 0.94087 0.27166 0.40012 0.0
H1771 H 0.92765 0.2976 0.41024 0.0
C1772 C 0.94597 0.21984 0.39649 0.0
C1773 C 0.9542 0.20892 0.40788 0.0
C1774 C 0.94159 0.23622 0.40142 0.0
C1775 C 0.94568 0.24214 0.41771 0.0
C1776 C 0.95549 0.23185 0.42837 0.0
C1777 C 0.95959 0.21539 0.42358 0.0
C1778 C 0.9257 0.27471 0.44678 0.0
C1779 C 0.92346 0.28838 0.43573 0.0
C1780 C 0.93302 0.25973 0.44094 0.0
C1781 C 0.93857 0.25832 0.42404 0.0
C1782 C 0.9365 0.27218 0.41311 0.0
C1783 C 0.92891 0.28702 0.41887 0.0
H1784 H 0.77944 0.96737 0.41312 0.0
H1785 H 0.80249 0.92516 0.43891 0.0
H1786 H 0.75177 0.95935 0.42476 0.0
H1787 H 0.77523 0.91746 0.45116 0.0
H1788 H 0.72116 0.89648 0.4504 0.0
H1789 H 0.74934 0.9054 0.44191 0.0
H1790 H 0.73545 0.95765 0.45042 0.0
H1791 H 0.70694 0.9488 0.4579 0.0
C1792 C 0.77849 0.95647 0.42139 0.0
C1793 C 0.79279 0.94669 0.42504 0.0
C1794 C 0.76279 0.95195 0.42818 0.0
C1795 C 0.76132 0.93771 0.43886 0.0
C1796 C 0.77586 0.92827 0.44275 0.0
C1797 C 0.79143 0.93268 0.43582 0.0
C1798 C 0.72414 0.90986 0.45053 0.0
C1799 C 0.71176 0.92192 0.45467 0.0
C1800 C 0.74035 0.91499 0.44582 0.0
C1801 C 0.74458 0.93227 0.44532 0.0
C1802 C 0.73248 0.94427 0.45036 0.0
C1803 C 0.71622 0.93916 0.45495 0.0
H1804 H 0.05289 0.7744 0.40606 0.0
H1805 H 0.03948 0.79384 0.45554 0.0
H1806 H 0.06093 0.74751 0.41902 0.0
H1807 H 0.04667 0.76657 0.46813 0.0
H1808 H 0.04613 0.7025 0.46761 0.0
H1809 H 0.03611 0.73048 0.4593 0.0
H1810 H 0.08714 0.74522 0.44683 0.0
H1811 H 0.09753 0.71758 0.456 0.0
C1812 C 0.05143 0.77292 0.41961 0.0
C1813 C 0.04575 0.78639 0.42976 0.0
C1814 C 0.05598 0.75755 0.42697 0.0
C1815 C 0.05457 0.75529 0.4445 0.0
C1816 C 0.04785 0.76821 0.45456 0.0
C1817 C 0.04358 0.78371 0.44727 0.0
C1818 C 0.05538 0.71186 0.46376 0.0
C1819 C 0.07266 0.70769 0.46228 0.0
C1820 C 0.04955 0.72779 0.45886 0.0
C1821 C 0.06088 0.73966 0.45223 0.0
C1822 C 0.07823 0.73602 0.45175 0.0
C1823 C 0.08412 0.72022 0.45692 0.0
H1824 H 0.27446 0.90418 0.54425 0.0
H1825 H 0.29647 0.95305 0.5329 0.0
H1826 H 0.24785 0.91816 0.55181 0.0
H1827 H 0.26968 0.96674 0.53999 0.0
H1828 H 0.20281 0.96357 0.53945 0.0
H1829 H 0.23003 0.95406 0.52829 0.0
H1830 H 0.24989 0.95095 0.57901 0.0
H1831 H 0.22284 0.96094 0.59037 0.0
C1832 C 0.27356 0.91781 0.54309 0.0
C1833 C 0.2876 0.9275 0.53805 0.0
C1834 C 0.25838 0.92575 0.54736 0.0
C1835 C 0.25701 0.94341 0.54651 0.0
C1836 C 0.27061 0.95307 0.54065 0.0
C1837 C 0.28583 0.94518 0.53646 0.0
C1838 C 0.21313 0.96148 0.54823 0.0
C1839 C 0.21065 0.96292 0.56583 0.0
C1840 C 0.2286 0.9559 0.54181 0.0
C1841 C 0.24173 0.9517 0.55289 0.0
C1842 C 0.23973 0.9541 0.57035 0.0
C1843 C 0.22431 0.95976 0.57679 0.0
H1844 H 0.07481 0.19637 0.56835 0.0
H1845 H 0.02676 0.21926 0.58049 0.0
H1846 H 0.08417 0.22256 0.55516 0.0
H1847 H 0.03638 0.24599 0.56828 0.0
H1848 H 0.05045 0.28702 0.53285 0.0
H1849 H 0.04204 0.25928 0.54264 0.0
H1850 H 0.09311 0.24994 0.56002 0.0
H1851 H 0.10194 0.27699 0.54861 0.0
C1852 C 0.06644 0.20724 0.56854 0.0
C1853 C 0.05017 0.20598 0.57552 0.0
C1854 C 0.07178 0.22225 0.56099 0.0
C1855 C 0.06105 0.23645 0.56056 0.0
C1856 C 0.04486 0.23522 0.56798 0.0
C1857 C 0.03939 0.22004 0.57519 0.0
C1858 C 0.06008 0.27886 0.53818 0.0
C1859 C 0.07689 0.28443 0.54006 0.0
C1860 C 0.05512 0.26304 0.5442 0.0
C1861 C 0.06675 0.25249 0.55256 0.0
C1862 C 0.08375 0.25766 0.55365 0.0
C1863 C 0.0888 0.27335 0.54729 0.0
H1864 H 0.77032 0.02889 0.57989 0.0
H1865 H 0.79577 0.04208 0.53334 0.0
H1866 H 0.74307 0.03635 0.56699 0.0
H1867 H 0.7686 0.04994 0.52064 0.0
H1868 H 0.69668 0.03941 0.53241 0.0
H1869 H 0.72429 0.02691 0.5386 0.0
H1870 H 0.74776 0.07591 0.53295 0.0
H1871 H 0.72001 0.08858 0.52708 0.0
C1872 C 0.76999 0.03306 0.56682 0.0
C1873 C 0.78499 0.03485 0.55753 0.0
C1874 C 0.7545 0.03727 0.55946 0.0
C1875 C 0.75392 0.04367 0.54288 0.0
C1876 C 0.76885 0.04496 0.53342 0.0
C1877 C 0.78428 0.04039 0.54064 0.0
C1878 C 0.70781 0.04741 0.53197 0.0
C1879 C 0.70632 0.06494 0.52926 0.0
C1880 C 0.72352 0.04028 0.53561 0.0
C1881 C 0.73797 0.05051 0.53624 0.0
C1882 C 0.7367 0.06781 0.53238 0.0
C1883 C 0.72092 0.07504 0.52908 0.0
H1884 H 0.92194 0.70304 0.58511 0.0
H1885 H 0.9373 0.71467 0.53383 0.0
H1886 H 0.93334 0.72999 0.59464 0.0
H1887 H 0.94923 0.74147 0.54364 0.0
H1888 H 0.9826 0.78029 0.57165 0.0
H1889 H 0.97329 0.75177 0.56404 0.0
H1890 H 0.92534 0.76082 0.58859 0.0
H1891 H 0.9341 0.78934 0.59552 0.0
C1892 C 0.92755 0.71141 0.57581 0.0
C1893 C 0.92852 0.70675 0.55864 0.0
C1894 C 0.93425 0.72674 0.58135 0.0
C1895 C 0.94225 0.73766 0.56989 0.0
C1896 C 0.94335 0.73307 0.55275 0.0
C1897 C 0.93647 0.71778 0.54715 0.0
C1898 C 0.97011 0.77619 0.5755 0.0
C1899 C 0.95912 0.78721 0.58417 0.0
C1900 C 0.96482 0.75988 0.57115 0.0
C1901 C 0.94859 0.75424 0.57566 0.0
C1902 C 0.93798 0.76485 0.5851 0.0
C1903 C 0.94313 0.78118 0.58922 0.0
H1904 H 0.44265 0.20433 0.03334 0.0
H1905 H 0.3911 0.21512 0.04837 0.0
H1906 H 0.45073 0.23303 0.04037 0.0
H1907 H 0.39957 0.24331 0.05695 0.0
H1908 H 0.41697 0.29722 0.06173 0.0
H1909 H 0.4084 0.27031 0.04945 0.0
H1910 H 0.45598 0.24818 0.06528 0.0
H1911 H 0.46483 0.27556 0.07662 0.0
C1912 C 0.43294 0.21286 0.03789 0.0
C1913 C 0.41623 0.20727 0.04047 0.0
C1914 C 0.43769 0.22926 0.04229 0.0
C1915 C 0.42593 0.24038 0.04965 0.0
C1916 C 0.409 0.23513 0.0513 0.0
C1917 C 0.40417 0.21883 0.04659 0.0
C1918 C 0.4255 0.28651 0.06261 0.0
C1919 C 0.44144 0.28825 0.07023 0.0
C1920 C 0.42061 0.2711 0.05561 0.0
C1921 C 0.43146 0.25702 0.05637 0.0
C1922 C 0.44743 0.25883 0.06413 0.0
C1923 C 0.45246 0.27439 0.07082 0.0
H1924 H 0.46186 0.70731 0.94884 0.0
H1925 H 0.45218 0.71985 0.89644 0.0
H1926 H 0.45525 0.73621 0.95701 0.0
H1927 H 0.44434 0.74834 0.90474 0.0
H1928 H 0.43883 0.8016 0.92233 0.0
H1929 H 0.45247 0.77483 0.91531 0.0
H1930 H 0.42979 0.75194 0.95965 0.0
H1931 H 0.41695 0.77919 0.96702 0.0
C1932 C 0.45865 0.7163 0.939 0.0
C1933 C 0.45735 0.71121 0.92199 0.0
C1934 C 0.45455 0.7328 0.94374 0.0
C1935 C 0.44891 0.7445 0.9316 0.0
C1936 C 0.44869 0.7397 0.91445 0.0
C1937 C 0.45299 0.72328 0.90969 0.0
C1938 C 0.43688 0.79077 0.93054 0.0
C1939 C 0.42675 0.79216 0.94503 0.0
C1940 C 0.44462 0.77547 0.92653 0.0
C1941 C 0.44213 0.76119 0.93682 0.0
C1942 C 0.43219 0.76275 0.95157 0.0
C1943 C 0.42467 0.77821 0.95573 0.0
H1944 H 0.29128 0.45845 0.9425 0.0
H1945 H 0.2793 0.4441 0.89101 0.0
H1946 H 0.263 0.45056 0.95131 0.0
H1947 H 0.25161 0.43468 0.90014 0.0
H1948 H 0.19805 0.43012 0.91827 0.0
H1949 H 0.22493 0.44224 0.90947 0.0
H1950 H 0.2475 0.42592 0.95669 0.0
H1951 H 0.22005 0.4148 0.96581 0.0
C1952 C 0.28258 0.45382 0.93298 0.0
C1953 C 0.28769 0.45182 0.91603 0.0
C1954 C 0.26643 0.44893 0.93814 0.0
C1955 C 0.25508 0.44166 0.92654 0.0
C1956 C 0.25994 0.44031 0.90946 0.0
C1957 C 0.27597 0.44551 0.90423 0.0
C1958 C 0.20885 0.42912 0.92668 0.0
C1959 C 0.20723 0.42141 0.94257 0.0
C1960 C 0.22426 0.436 0.92165 0.0
C1961 C 0.23847 0.43499 0.93229 0.0
C1962 C 0.23677 0.4272 0.94827 0.0
C1963 C 0.22118 0.42064 0.95345 0.0
H1964 H 0.57465 0.29827 0.93309 0.0
H1965 H 0.52812 0.27514 0.91641 0.0
H1966 H 0.58311 0.27198 0.94672 0.0
H1967 H 0.53694 0.24828 0.92907 0.0
H1968 H 0.55 0.20548 0.96282 0.0
H1969 H 0.54139 0.23371 0.9545 0.0
H1970 H 0.59303 0.24518 0.94035 0.0
H1971 H 0.6019 0.21754 0.95018 0.0
C1972 C 0.5664 0.28735 0.93214 0.0
C1973 C 0.5509 0.28846 0.92359 0.0
C1974 C 0.57123 0.27229 0.93989 0.0
C1975 C 0.56077 0.25793 0.93895 0.0
C1976 C 0.54518 0.25915 0.93033 0.0
C1977 C 0.54019 0.27439 0.92288 0.0
C1978 C 0.55966 0.2142 0.95852 0.0
C1979 C 0.57665 0.20911 0.957 0.0
C1980 C 0.55462 0.23032 0.95339 0.0
C1981 C 0.56641 0.24162 0.94636 0.0
C1982 C 0.58356 0.23687 0.94574 0.0
C1983 C 0.58865 0.22088 0.95118 0.0
H1984 H 0.77761 0.60374 0.94886 0.0
H1985 H 0.78821 0.55199 0.96333 0.0
H1986 H 0.74969 0.59533 0.93944 0.0
H1987 H 0.75971 0.54395 0.95551 0.0
H1988 H 0.71748 0.53013 0.91888 0.0
H1989 H 0.74476 0.53884 0.93059 0.0
H1990 H 0.72264 0.58655 0.94611 0.0
H1991 H 0.6959 0.57813 0.93338 0.0
C1992 C 0.77391 0.59063 0.95033 0.0
C1993 C 0.78536 0.57852 0.95656 0.0
C1994 C 0.75775 0.58582 0.94513 0.0
C1995 C 0.75249 0.56886 0.94643 0.0
C1996 C 0.76348 0.55702 0.95386 0.0
C1997 C 0.77977 0.56175 0.95871 0.0
C1998 C 0.71866 0.54251 0.92466 0.0
C1999 C 0.70486 0.55361 0.92504 0.0
C2000 C 0.73416 0.54746 0.93158 0.0
C2001 C 0.73594 0.56343 0.93937 0.0
C2002 C 0.7219 0.57434 0.93992 0.0
C2003 C 0.70658 0.56954 0.93267 0.0
H2004 H 0.58128 0.79214 0.0742 0.0
H2005 H 0.56297 0.77905 0.0242 0.0
H2006 H 0.57255 0.76457 0.0846 0.0
H2007 H 0.55342 0.7517 0.0351 0.0
H2008 H 0.57321 0.70497 0.08615 0.0
H2009 H 0.58155 0.73295 0.07662 0.0
H2010 H 0.53061 0.74259 0.05951 0.0
H2011 H 0.52178 0.71482 0.06992 0.0
C2012 C 0.57566 0.78334 0.06532 0.0
C2013 C 0.573 0.78783 0.04826 0.0
C2014 C 0.57047 0.76764 0.07139 0.0
C2015 C 0.56223 0.75622 0.06065 0.0
C2016 C 0.55957 0.76051 0.04362 0.0
C2017 C 0.56504 0.77614 0.03743 0.0
C2018 C 0.56357 0.71315 0.08087 0.0
C2019 C 0.54676 0.70757 0.07889 0.0
C2020 C 0.56845 0.7291 0.07523 0.0
C2021 C 0.55673 0.7397 0.06722 0.0
C2022 C 0.53988 0.73442 0.06546 0.0
C2023 C 0.53488 0.71855 0.0714 0.0
H2024 H 0.29147 0.52657 0.0447 0.0
H2025 H 0.27509 0.53431 0.09636 0.0
H2026 H 0.26308 0.53287 0.0347 0.0
H2027 H 0.24687 0.54144 0.08626 0.0
H2028 H 0.1949 0.54601 0.06397 0.0
H2029 H 0.22126 0.53215 0.07233 0.0
H2030 H 0.24784 0.55966 0.03313 0.0
H2031 H 0.22121 0.57311 0.02457 0.0
C2032 C 0.28172 0.52918 0.05398 0.0
C2033 C 0.28557 0.53011 0.07134 0.0
C2034 C 0.26551 0.53306 0.0482 0.0
C2035 C 0.25287 0.53798 0.05965 0.0
C2036 C 0.25636 0.53767 0.0771 0.0
C2037 C 0.27256 0.53373 0.0829 0.0
C2038 C 0.20643 0.54889 0.05711 0.0
C2039 C 0.2063 0.56058 0.04377 0.0
C2040 C 0.22146 0.54103 0.06188 0.0
C2041 C 0.23661 0.54485 0.05343 0.0
C2042 C 0.23631 0.55628 0.03973 0.0
C2043 C 0.2212 0.56409 0.0349 0.0
H2044 H 0.79849 0.43426 0.07446 0.0
H2045 H 0.77562 0.41785 0.02769 0.0
H2046 H 0.77205 0.44755 0.08299 0.0
H2047 H 0.74863 0.43021 0.03656 0.0
H2048 H 0.70515 0.46275 0.05023 0.0
H2049 H 0.73362 0.45539 0.04149 0.0
H2050 H 0.74536 0.4403 0.09281 0.0
H2051 H 0.71741 0.4491 0.10183 0.0
C2052 C 0.7876 0.43332 0.06615 0.0
C2053 C 0.78882 0.4249 0.05058 0.0
C2054 C 0.77247 0.44088 0.07103 0.0
C2055 C 0.75813 0.43988 0.06055 0.0
C2056 C 0.75947 0.43149 0.04484 0.0
C2057 C 0.77479 0.42422 0.03981 0.0
C2058 C 0.71397 0.45846 0.0598 0.0
C2059 C 0.70888 0.45634 0.07674 0.0
C2060 C 0.73023 0.45389 0.05469 0.0
C2061 C 0.74168 0.44686 0.06633 0.0
C2062 C 0.73693 0.4457 0.08345 0.0
C2063 C 0.72077 0.45056 0.08862 0.0
H2064 H 0.95366 0.5127 0.13981 0.0
H2065 H 0.98954 0.54752 0.11767 0.0
H2066 H 0.97313 0.48936 0.13479 0.0
H2067 H 0.00901 0.52404 0.11246 0.0
H2068 H 0.04588 0.4834 0.1352 0.0
H2069 H 0.02599 0.50661 0.13182 0.0
H2070 H 0.98811 0.47158 0.11373 0.0
H2071 H 0.00817 0.44817 0.11723 0.0
C2072 C 0.96562 0.51535 0.13365 0.0
C2073 C 0.97013 0.53202 0.12934 0.0
C2074 C 0.97672 0.50192 0.13062 0.0
C2075 C 0.99266 0.50483 0.12328 0.0
C2076 C 0.99688 0.5214 0.11828 0.0
C2077 C 0.9857 0.53485 0.12121 0.0
C2078 C 0.0334 0.48066 0.13022 0.0
C2079 C 0.02852 0.46391 0.1267 0.0
C2080 C 0.02203 0.49401 0.12815 0.0
C2081 C 0.00541 0.49095 0.12263 0.0
C2082 C 0.00078 0.47431 0.11819 0.0
C2083 C 0.01229 0.46091 0.12009 0.0
H2084 H 0.5119 0.03838 0.14496 0.0
H2085 H 0.54543 0.00296 0.12023 0.0
H2086 H 0.48816 0.0193 0.14028 0.0
H2087 H 0.52152 0.98379 0.11548 0.0
H2088 H 0.44606 0.98599 0.12109 0.0
H2089 H 0.46988 0.00564 0.11846 0.0
H2090 H 0.50405 0.96644 0.13533 0.0
H2091 H 0.48038 0.94686 0.13787 0.0
C2092 C 0.51416 0.02659 0.13833 0.0
C2093 C 0.53056 0.0221 0.13311 0.0
C2094 C 0.50051 0.01572 0.13551 0.0
C2095 C 0.50296 2e-05 0.12754 0.0
C2096 C 0.51927 0.99577 0.12176 0.0
C2097 C 0.53293 0.00676 0.12441 0.0
C2098 C 0.4587 0.98151 0.12393 0.0
C2099 C 0.46133 0.96494 0.12985 0.0
C2100 C 0.47231 0.99277 0.12251 0.0
C2101 C 0.48883 0.98761 0.12676 0.0
C2102 C 0.49152 0.97078 0.13181 0.0
C2103 C 0.47792 0.9596 0.13341 0.0
H2104 H 0.94976 0.4826 0.85389 0.0
H2105 H 0.98691 0.44855 0.8751 0.0
H2106 H 0.96908 0.50628 0.85788 0.0
H2107 H 0.00633 0.47238 0.87913 0.0
H2108 H 0.004 0.54794 0.87542 0.0
H2109 H 0.98455 0.52406 0.87921 0.0
H2110 H 0.02198 0.49027 0.85809 0.0
H2111 H 0.04131 0.51398 0.85433 0.0
C2112 C 0.96199 0.48021 0.85962 0.0
C2113 C 0.96688 0.46368 0.86403 0.0
C2114 C 0.973 0.49382 0.86205 0.0
C2115 C 0.98925 0.4912 0.86878 0.0
C2116 C 0.99392 0.47476 0.87381 0.0
C2117 C 0.98279 0.46114 0.87158 0.0
C2118 C 0.00816 0.53535 0.8719 0.0
C2119 C 0.0241 0.53284 0.86443 0.0
C2120 C 0.99701 0.52171 0.87398 0.0
C2121 C 0.00172 0.5053 0.86888 0.0
C2122 C 0.01802 0.50271 0.86229 0.0
C2123 C 0.02905 0.51633 0.86 0.0
H2124 H 0.51286 0.95683 0.84929 0.0
H2125 H 0.54683 0.99283 0.87253 0.0
H2126 H 0.48927 0.97616 0.85364 0.0
H2127 H 0.52306 0.01226 0.87696 0.0
H2128 H 0.48199 0.0487 0.85367 0.0
H2129 H 0.50554 0.02903 0.85664 0.0
H2130 H 0.47125 0.99068 0.87513 0.0
H2131 H 0.44755 0.01042 0.87207 0.0
C2132 C 0.51525 0.9688 0.85554 0.0
C2133 C 0.53173 0.97338 0.86042 0.0
C2134 C 0.50168 0.97982 0.85817 0.0
C2135 C 0.5043 0.99576 0.86559 0.0
C2136 C 0.52069 0.0001 0.87109 0.0
C2137 C 0.53427 0.98895 0.86863 0.0
C2138 C 0.47948 0.03614 0.85857 0.0
C2139 C 0.46289 0.03106 0.86247 0.0
C2140 C 0.49302 0.02492 0.86041 0.0
C2141 C 0.49026 0.00829 0.86606 0.0
C2142 C 0.47374 0.00339 0.87062 0.0
C2143 C 0.46019 0.01471 0.86894 0.0
H2144 H 0.13363 0.04526 0.47881 0.0
H2145 H 0.11524 0.00657 0.44486 0.0
H2146 H 0.13077 0.02592 0.50258 0.0
H2147 H 0.11239 0.98705 0.46882 0.0
H2148 H 0.14082 0.95457 0.51052 0.0
H2149 H 0.13459 0.97307 0.48666 0.0
H2150 H 0.11117 0.00899 0.52059 0.0
H2151 H 0.11748 0.99041 0.5446 0.0
C2152 C 0.12871 0.03267 0.47647 0.0
C2153 C 0.12487 0.02736 0.45993 0.0
C2154 C 0.12693 0.02163 0.49014 0.0
C2155 C 0.12143 0.00492 0.48759 0.0
C2156 C 0.11678 -0.00017 0.47115 0.0
C2157 C 0.11834 0.01101 0.45744 0.0
C2158 C 0.1341 0.96629 0.51288 0.0
C2159 C 0.12984 0.97114 0.52946 0.0
C2160 C 0.13039 0.97683 0.49917 0.0
C2161 C 0.12247 0.99254 0.50174 0.0
C2162 C 0.11741 0.997 0.51824 0.0
C2163 C 0.12096 0.98635 0.53197 0.0
H2164 H 0.03823 0.15451 0.51862 0.0
H2165 H 0.00576 0.11755 0.54261 0.0
H2166 H 0.02072 0.1536 0.49337 0.0
H2167 H 0.98819 0.11661 0.51693 0.0
H2168 H 0.97146 0.11295 0.45833 0.0
H2169 H 0.99046 0.1097 0.4829 0.0
H2170 H 0.98947 0.16377 0.49062 0.0
H2171 H 0.9706 0.16701 0.46657 0.0
C2172 C 0.02744 0.14605 0.51849 0.0
C2173 C 0.02329 0.13625 0.53276 0.0
C2174 C 0.01743 0.14553 0.50397 0.0
C2175 C 0.00308 0.13511 0.50324 0.0
C2176 C -0.00074 0.12469 0.51716 0.0
C2177 C 0.00925 0.12531 0.53186 0.0
C2178 C 0.9754 0.12409 0.46529 0.0
C2179 C 0.96955 0.14023 0.46054 0.0
C2180 C 0.98613 0.12222 0.47936 0.0
C2181 C 0.99143 0.13651 0.48859 0.0
C2182 C 0.98568 0.15257 0.48367 0.0
C2183 C 0.97481 0.1544 0.46991 0.0
H2184 H 0.85922 0.0428 0.50898 0.0
H2185 H 0.87696 0.00681 0.54612 0.0
H2186 H 0.86468 0.02236 0.48653 0.0
H2187 H 0.88253 0.98637 0.5236 0.0
H2188 H 0.85858 0.9499 0.48303 0.0
H2189 H 0.86214 0.97043 0.50568 0.0
H2190 H 0.88605 0.00499 0.47073 0.0
H2191 H 0.88256 0.9843 0.44793 0.0
C2192 C 0.86462 0.03065 0.51232 0.0
C2193 C 0.86748 0.02637 0.52936 0.0
C2194 C 0.86786 0.01897 0.49943 0.0
C2195 C 0.87392 0.0027 0.50329 0.0
C2196 C 0.87771 -0.00124 0.52025 0.0
C2197 C 0.87462 0.01052 0.53314 0.0
C2198 C 0.86483 0.96177 0.48019 0.0
C2199 C 0.87 0.96558 0.46359 0.0
C2200 C 0.867 0.97349 0.49323 0.0
C2201 C 0.87427 0.98939 0.48998 0.0
C2202 C 0.88024 0.9929 0.47357 0.0
C2203 C 0.87827 0.98104 0.46052 0.0
H2204 H 0.95697 0.8575 0.5124 0.0
H2205 H 0.99341 0.87804 0.54761 0.0
H2206 H 0.97689 0.86156 0.4893 0.0
H2207 H 0.01345 0.88212 0.52436 0.0
H2208 H 0.0493 0.85638 0.4841 0.0
H2209 H 0.02945 0.86117 0.50716 0.0
H2210 H 0.99327 0.88184 0.47175 0.0
H2211 H 0.01323 0.87693 0.44854 0.0
C2212 C 0.96917 0.86312 0.51519 0.0
C2213 C 0.97371 0.86715 0.53194 0.0
C2214 C 0.98054 0.86559 0.50189 0.0
C2215 C 0.99681 0.87205 0.505 0.0
C2216 C 0.00105 0.87694 0.5216 0.0
C2217 C 0.98956 0.87464 0.53493 0.0
C2218 C 0.03722 0.8622 0.48125 0.0
C2219 C 0.03276 0.86611 0.46447 0.0
C2220 C 0.02588 0.86509 0.49451 0.0
C2221 C 0.00974 0.87181 0.49129 0.0
C2222 C 0.00557 0.87651 0.4746 0.0
C2223 C 0.01703 0.87379 0.46133 0.0
H2224 H 0.54714 0.12001 0.99191 0.0
H2225 H 0.51433 0.14165 0.9539 0.0
H2226 H 0.52264 0.11568 0.01046 0.0
H2227 H 0.48999 0.13733 0.97233 0.0
H2228 H 0.44721 0.11933 0.00582 0.0
H2229 H 0.4717 0.11575 0.98706 0.0
H2230 H 0.50424 0.13675 0.02565 0.0
H2231 H 0.47994 0.14033 0.04425 0.0
C2232 C 0.53468 0.12356 0.98741 0.0
C2233 C 0.53267 0.13134 0.97154 0.0
C2234 C 0.52068 0.12115 -0.00196 0.0
C2235 C 0.50439 0.12622 0.99287 0.0
C2236 C 0.50232 0.13314 0.97662 0.0
C2237 C 0.5163 0.13576 0.96613 0.0
C2238 C 0.45965 0.12288 0.01037 0.0
C2239 C 0.46165 0.13027 0.02642 0.0
C2240 C 0.47364 0.12091 -0.00038 0.0
C2241 C 0.4899 0.12601 0.00487 0.0
C2242 C 0.49195 0.13254 0.02128 0.0
C2243 C 0.47798 0.13473 0.03188 0.0
H2244 H 0.48038 0.85805 0.94732 0.0
H2245 H 0.44613 0.87881 0.98455 0.0
H2246 H 0.50384 0.86119 0.96702 0.0
H2247 H 0.46978 0.88208 0.00436 0.0
H2248 H 0.51061 0.85697 0.03969 0.0
H2249 H 0.4872 0.86118 0.0201 0.0
H2250 H 0.52185 0.88127 0.98289 0.0
H2251 H 0.54542 0.87692 0.00251 0.0
C2252 C 0.47791 0.86354 0.95965 0.0
C2253 C 0.46138 0.86804 0.96444 0.0
C2254 C 0.4914 0.86547 0.9709 0.0
C2255 C 0.48868 0.87182 0.98729 0.0
C2256 C 0.47225 0.87701 0.99186 0.0
C2257 C 0.45873 0.87524 0.98049 0.0
C2258 C 0.51324 0.86247 0.0274 0.0
C2259 C 0.52991 0.86642 0.02258 0.0
C2260 C 0.49978 0.86502 0.01622 0.0
C2261 C 0.50266 0.87149 -0.0001 0.0
C2262 C 0.51925 0.87611 0.99533 0.0
C2263 C 0.53273 0.87368 0.00658 0.0
H2264 H 0.14315 0.48038 0.95172 0.0
H2265 H 0.11757 0.44634 0.98604 0.0
H2266 H 0.1386 0.50366 0.97136 0.0
H2267 H 0.11307 0.46976 0.0058 0.0
H2268 H 0.12019 0.54524 0.00551 0.0
H2269 H 0.11687 0.52191 0.98537 0.0
H2270 H 0.13309 0.48652 0.02376 0.0
H2271 H 0.13633 0.50973 0.04381 0.0
C2272 C 0.1364 0.47787 0.96339 0.0
C2273 C 0.13096 0.46141 0.96742 0.0
C2274 C 0.13365 0.49128 0.97459 0.0
C2275 C 0.12552 0.48856 0.99016 0.0
C2276 C 0.11951 0.47222 0.99394 0.0
C2277 C 0.12207 0.4588 0.98262 0.0
C2278 C 0.12266 0.53244 0.00973 0.0
C2279 C 0.12866 0.52932 0.02618 0.0
C2280 C 0.12088 0.51909 -0.00182 0.0
C2281 C 0.12484 0.50238 0.00294 0.0
C2282 C 0.12981 0.4992 0.01971 0.0
C2283 C 0.13179 0.51253 0.03117 0.0
H2284 H 0.85108 0.51459 0.9547 0.0
H2285 H 0.87467 0.54742 0.99153 0.0
H2286 H 0.85537 0.49044 0.97337 0.0
H2287 H 0.87899 0.5231 0.0103 0.0
H2288 H 0.87375 0.44769 0.00664 0.0
H2289 H 0.87698 0.47189 0.98746 0.0
H2290 H 0.85839 0.50529 0.02656 0.0
H2291 H 0.85519 0.48127 0.0456 0.0
C2292 C 0.85737 0.51661 0.96672 0.0
C2293 C 0.86238 0.53294 0.97172 0.0
C2294 C 0.85997 0.50273 0.97735 0.0
C2295 C 0.86748 0.50486 0.99333 0.0
C2296 C 0.87307 0.5211 -0.00191 0.0
C2297 C 0.87066 0.535 0.98733 0.0
C2298 C 0.87066 0.46025 0.01119 0.0
C2299 C 0.86406 0.46257 0.02755 0.0
C2300 C 0.87242 0.47407 0.00021 0.0
C2301 C 0.86788 0.49049 0.00548 0.0
C2302 C 0.86215 0.49286 0.02215 0.0
C2303 C 0.86018 0.47906 0.03301 0.0
H2304 H 0.45387 0.01401 0.64046 0.0
H2305 H 0.48987 0.04675 0.61554 0.0
H2306 H 0.47247 0.98989 0.63585 0.0
H2307 H 0.50863 0.02246 0.61096 0.0
H2308 H 0.50539 0.94701 0.6185 0.0
H2309 H 0.4863 0.97111 0.61422 0.0
H2310 H 0.52534 0.0051 0.63182 0.0
H2311 H 0.54429 0.98115 0.63607 0.0
C2312 C 0.46569 0.01602 0.63379 0.0
C2313 C 0.47051 0.03232 0.62856 0.0
C2314 C 0.47627 0.00215 0.631 0.0
C2315 C 0.49204 0.00427 0.62308 0.0
C2316 C 0.49658 0.02047 0.61719 0.0
C2317 C 0.48584 0.03435 0.61977 0.0
C2318 C 0.50998 0.95967 0.62107 0.0
C2319 C 0.52624 0.96221 0.62779 0.0
C2320 C 0.49905 0.97345 0.61871 0.0
C2321 C 0.5043 0.98999 0.62277 0.0
C2322 C 0.52095 0.99255 0.62844 0.0
C2323 C 0.53176 0.97881 0.63102 0.0
H2324 H 0.97907 0.44686 0.63605 0.0
H2325 H 0.94535 0.48621 0.61862 0.0
H2326 H 0.00298 0.46612 0.63358 0.0
H2327 H 0.96944 0.5056 0.61609 0.0
H2328 H 0.04502 0.50194 0.61931 0.0
H2329 H 0.0209 0.4832 0.6139 0.0
H2330 H 0.98761 0.5191 0.63825 0.0
H2331 H 0.01155 0.53774 0.64358 0.0
C2332 C 0.97681 0.45958 0.63144 0.0
C2333 C 0.96031 0.46508 0.6277 0.0
C2334 C 0.99055 0.47057 0.62989 0.0
C2335 C 0.9881 0.48741 0.62471 0.0
C2336 C 0.97169 0.49272 0.62024 0.0
C2337 C 0.95792 0.48162 0.6216 0.0
C2338 C 0.0325 0.50592 0.62324 0.0
C2339 C 0.0302 0.52122 0.63203 0.0
C2340 C 0.01871 0.49518 0.62021 0.0
C2341 C 0.00236 0.49965 0.6257 0.0
C2342 C -1e-05 0.51535 0.63371 0.0
C2343 C 0.01376 0.52596 0.63691 0.0
H2344 H 0.45212 0.97925 0.35591 0.0
H2345 H 0.49052 0.94554 0.37539 0.0
H2346 H 0.47122 0.00316 0.35943 0.0
H2347 H 0.50968 0.96962 0.37904 0.0
H2348 H 0.50581 0.04519 0.37701 0.0
H2349 H 0.48671 0.02098 0.38018 0.0
H2350 H 0.52475 0.98816 0.35862 0.0
H2351 H 0.54379 0.01219 0.35556 0.0
C2352 C 0.46458 0.97697 0.36114 0.0
C2353 C 0.46986 0.96047 0.36522 0.0
C2354 C 0.47549 0.99072 0.3633 0.0
C2355 C 0.49199 0.9883 0.36946 0.0
C2356 C 0.49708 0.97187 0.37412 0.0
C2357 C 0.48608 0.95809 0.37212 0.0
C2358 C 0.51017 0.03275 0.3732 0.0
C2359 C 0.52625 0.03063 0.3659 0.0
C2360 C 0.49921 0.01891 0.37494 0.0
C2361 C 0.50419 0.00266 0.36959 0.0
C2362 C 0.52057 0.00046 0.36302 0.0
C2363 C 0.53143 0.01428 0.36113 0.0
H2364 H 0.01303 0.45246 0.34114 0.0
H2365 H 0.039 0.48269 0.37867 0.0
H2366 H 0.98883 0.47143 0.34255 0.0
H2367 H 0.01431 0.50161 0.38022 0.0
H2368 H 0.95438 0.51836 0.38394 0.0
H2369 H 0.97838 0.49861 0.38672 0.0
H2370 H 0.98977 0.50514 0.33372 0.0
H2371 H 0.96632 0.52494 0.33096 0.0
C2372 C 0.01352 0.463 0.3499 0.0
C2373 C 0.02806 0.46614 0.35968 0.0
C2374 C -0.00038 0.47385 0.35068 0.0
C2375 C -0.00022 0.48795 0.36144 0.0
C2376 C 0.0139 0.49073 0.37189 0.0
C2377 C 0.02801 0.47996 0.37094 0.0
C2378 C 0.96208 0.51559 0.37294 0.0
C2379 C 0.95849 0.5232 0.35724 0.0
C2380 C 0.9758 0.5044 0.37456 0.0
C2381 C 0.98583 0.50041 0.36041 0.0
C2382 C 0.98218 0.508 0.34479 0.0
C2383 C 0.96877 0.51936 0.34324 0.0
H2384 H 0.63936 0.54495 0.98278 0.0
H2385 H 0.61969 0.50705 0.94862 0.0
H2386 H 0.63616 0.52541 0.00642 0.0
H2387 H 0.61644 0.48743 0.97241 0.0
H2388 H 0.64207 0.45318 0.01392 0.0
H2389 H 0.63791 0.47252 0.99029 0.0
H2390 H 0.61546 0.50912 0.02415 0.0
H2391 H 0.61966 0.48964 0.04795 0.0
C2392 C 0.63415 0.5325 0.98036 0.0
C2393 C 0.62994 0.52748 0.96381 0.0
C2394 C 0.63218 0.52136 0.99394 0.0
C2395 C 0.6261 0.50486 0.99128 0.0
C2396 C 0.62127 0.50003 0.97482 0.0
C2397 C 0.62306 0.51128 0.96122 0.0
C2398 C 0.63604 0.46526 0.0163 0.0
C2399 C 0.63133 0.46996 0.03281 0.0
C2400 C 0.63353 0.47629 0.00273 0.0
C2401 C 0.62641 0.49237 0.00535 0.0
C2402 C 0.62108 0.49684 0.02177 0.0
C2403 C 0.6234 0.48567 0.03536 0.0
H2404 H 0.45168 0.64313 0.98403 0.0
H2405 H 0.48792 0.62034 0.95001 0.0
H2406 H 0.47084 0.63852 0.00769 0.0
H2407 H 0.5072 0.61564 0.97386 0.0
H2408 H 0.5047 0.62011 0.04953 0.0
H2409 H 0.48523 0.61705 0.02563 0.0
H2410 H 0.52391 0.63559 0.99174 0.0
H2411 H 0.54334 0.63852 0.0155 0.0
C2412 C 0.46366 0.63691 0.98165 0.0
C2413 C 0.46836 0.63225 0.96513 0.0
C2414 C 0.4746 0.63413 0.99525 0.0
C2415 C 0.49057 0.62676 0.99266 0.0
C2416 C 0.49501 0.62146 0.97623 0.0
C2417 C 0.48395 0.62407 0.9626 0.0
C2418 C 0.50913 0.62323 0.03694 0.0
C2419 C 0.5255 0.62972 0.03443 0.0
C2420 C 0.49796 0.62156 0.02327 0.0
C2421 C 0.503 0.62616 0.0068 0.0
C2422 C 0.51967 0.63179 0.00422 0.0
C2423 C 0.53076 0.63361 0.01788 0.0
H2424 H 0.35283 0.54183 0.01109 0.0
H2425 H 0.37523 0.50448 0.04414 0.0
H2426 H 0.35748 0.52334 0.98687 0.0
H2427 H 0.3799 0.48584 0.01974 0.0
H2428 H 0.37545 0.49006 0.94424 0.0
H2429 H 0.37908 0.5089 0.96861 0.0
H2430 H 0.35903 0.47013 0.00153 0.0
H2431 H 0.35543 0.45139 0.9773 0.0
C2432 C 0.35901 0.52975 0.01313 0.0
C2433 C 0.36353 0.52453 0.02952 0.0
C2434 C 0.3618 0.51921 -0.00078 0.0
C2435 C 0.36899 0.50311 0.00139 0.0
C2436 C 0.37422 0.49816 0.01771 0.0
C2437 C 0.37164 0.50884 0.03164 0.0
C2438 C 0.37212 0.48548 0.95673 0.0
C2439 C 0.365 0.46932 0.95884 0.0
C2440 C 0.37413 0.49627 0.97066 0.0
C2441 C 0.36929 0.49101 0.98698 0.0
C2442 C 0.36303 0.47451 0.98916 0.0
C2443 C 0.36082 0.46383 0.97525 0.0
H2444 H 0.45338 0.35167 0.01242 0.0
H2445 H 0.4908 0.37309 0.04608 0.0
H2446 H 0.47261 0.35529 0.98861 0.0
H2447 H 0.51011 0.37675 0.0221 0.0
H2448 H 0.50698 0.37364 0.94663 0.0
H2449 H 0.48762 0.37664 0.97068 0.0
H2450 H 0.52583 0.35615 0.00397 0.0
H2451 H 0.54509 0.3532 0.98009 0.0
C2452 C 0.46567 0.35731 0.01472 0.0
C2453 C 0.47063 0.36195 0.03117 0.0
C2454 C 0.47663 0.35953 0.00102 0.0
C2455 C 0.49289 0.36628 0.00347 0.0
C2456 C 0.49769 0.37141 0.01985 0.0
C2457 C 0.48662 0.36937 0.03356 0.0
C2458 C 0.51131 0.37005 0.95913 0.0
C2459 C 0.5275 0.36305 0.96145 0.0
C2460 C 0.50021 0.37168 0.97288 0.0
C2461 C 0.50518 0.36657 0.98921 0.0
C2462 C 0.52166 0.36035 0.9916 0.0
C2463 C 0.53265 0.35853 0.97788 0.0
H2464 H 0.98387 0.63552 0.55123 0.0
H2465 H 0.94802 0.61846 0.5136 0.0
H2466 H 0.00677 0.63252 0.53079 0.0
H2467 H 0.97102 0.61536 0.49316 0.0
H2468 H 0.04659 0.61728 0.49262 0.0
H2469 H 0.02356 0.61264 0.51285 0.0
H2470 H 0.98862 0.63694 0.47852 0.0
H2471 H 0.01149 0.64148 0.45839 0.0
C2472 C 0.98091 0.63086 0.53867 0.0
C2473 C 0.96409 0.62741 0.53399 0.0
C2474 C 0.99407 0.62902 0.52699 0.0
C2475 C 0.9907 0.62381 0.51032 0.0
C2476 C 0.97399 0.61957 0.50587 0.0
C2477 C 0.96082 0.62127 0.51761 0.0
C2478 C 0.03393 0.62133 0.48929 0.0
C2479 C 0.03087 0.62986 0.47397 0.0
C2480 C 0.02077 0.61876 0.5009 0.0
C2481 C 0.00428 0.62447 0.49731 0.0
C2482 C 0.00112 0.63223 0.48162 0.0
C2483 C 0.01427 0.63496 0.47013 0.0
H2484 H 0.01283 0.34873 0.53726 0.0
H2485 H 0.04566 0.3729 0.5008 0.0
H2486 H 0.98879 0.3528 0.51842 0.0
H2487 H 0.02144 0.37702 0.48187 0.0
H2488 H 0.97977 0.35406 0.44601 0.0
H2489 H 0.00373 0.35672 0.46523 0.0
H2490 H 0.97023 0.37445 0.50463 0.0
H2491 H 0.94611 0.37173 0.48533 0.0
C2492 C 0.01488 0.35508 0.52528 0.0
C2493 C 0.03118 0.36035 0.52045 0.0
C2494 C 0.00106 0.35755 0.51454 0.0
C2495 C 0.00321 0.3652 0.49864 0.0
C2496 C 0.01942 0.37098 0.49401 0.0
C2497 C 0.03326 0.36869 0.50487 0.0
C2498 C 0.97752 0.35871 0.45872 0.0
C2499 C 0.96103 0.36253 0.46421 0.0
C2500 C 0.99128 0.36038 0.46968 0.0
C2501 C 0.98887 0.36573 0.48646 0.0
C2502 C 0.97245 0.37016 0.4918 0.0
C2503 C 0.95867 0.36868 0.48074 0.0
H2504 H 0.6356 0.01178 0.54428 0.0
H2505 H 0.61762 0.04647 0.50608 0.0
H2506 H 0.63189 0.98822 0.52482 0.0
H2507 H 0.61377 0.02272 0.48645 0.0
H2508 H 0.64154 0.98175 0.453 0.0
H2509 H 0.63549 0.00516 0.47207 0.0
H2510 H 0.61275 0.97042 0.50764 0.0
H2511 H 0.61895 0.94684 0.48851 0.0
C2512 C 0.63046 0.0143 0.53182 0.0
C2513 C 0.62706 0.03096 0.52662 0.0
C2514 C 0.62821 0.00076 0.52069 0.0
C2515 C 0.62267 0.0036 0.50403 0.0
C2516 C 0.61822 0.02017 0.49917 0.0
C2517 C 0.62029 0.03374 0.51042 0.0
C2518 C 0.63505 0.9791 0.46479 0.0
C2519 C 0.63094 0.9624 0.46935 0.0
C2520 C 0.63141 0.99257 0.47565 0.0
C2521 C 0.62368 0.98966 0.4914 0.0
C2522 C 0.61883 0.97304 0.49563 0.0
C2523 C 0.62234 0.95955 0.48466 0.0
H2524 H 0.37537 0.94588 0.50575 0.0
H2525 H 0.35526 0.9806 0.54291 0.0
H2526 H 0.37859 0.96932 0.48571 0.0
H2527 H 0.35842 0.00388 0.52297 0.0
H2528 H 0.35168 0.00957 0.45073 0.0
H2529 H 0.3567 0.98643 0.47047 0.0
H2530 H 0.37853 0.02157 0.50622 0.0
H2531 H 0.37343 0.04484 0.48642 0.0
C2532 C 0.37199 0.95855 0.50976 0.0
C2533 C 0.36492 0.9614 0.52583 0.0
C2534 C 0.37373 0.97194 0.49826 0.0
C2535 C 0.36867 0.98843 0.50273 0.0
C2536 C 0.36257 0.99138 0.51918 0.0
C2537 C 0.36065 0.978 0.53056 0.0
C2538 C 0.35774 0.01235 0.46272 0.0
C2539 C 0.36199 0.02906 0.4671 0.0
C2540 C 0.36077 -0.00095 0.47396 0.0
C2541 C 0.36797 0.00218 0.48992 0.0
C2542 C 0.37285 0.0188 0.49405 0.0
C2543 C 0.36999 0.03211 0.48269 0.0
H2544 H 0.13561 0.54296 0.12167 0.0
H2545 H 0.11384 0.52526 0.07465 0.0
H2546 H 0.12815 0.51622 0.13509 0.0
H2547 H 0.10549 0.49921 0.08828 0.0
H2548 H 0.10651 0.44763 0.10998 0.0
H2549 H 0.11795 0.47394 0.09852 0.0
H2550 H 0.10456 0.49978 0.14491 0.0
H2551 H 0.0938 0.47317 0.15647 0.0
C2552 C 0.12914 0.53347 0.11421 0.0
C2553 C 0.1254 0.53634 0.09703 0.0
C2554 C 0.12474 0.51818 0.12196 0.0
C2555 C 0.11642 0.50547 0.11271 0.0
C2556 C 0.11226 0.50855 0.09569 0.0
C2557 C 0.11677 0.52372 0.08793 0.0
C2558 C 0.10641 0.45891 0.11778 0.0
C2559 C 0.09933 0.45849 0.13403 0.0
C2560 C 0.11276 0.474 0.11121 0.0
C2561 C 0.11183 0.48906 0.12066 0.0
C2562 C 0.10556 0.48841 0.13732 0.0
C2563 C 0.09944 0.4732 0.14398 0.0
H2564 H 0.5285 0.10382 0.15086 0.0
H2565 H 0.53856 0.08247 0.10152 0.0
H2566 H 0.50173 0.11518 0.14047 0.0
H2567 H 0.51177 0.09368 0.0912 0.0
H2568 H 0.4546 0.09756 0.08531 0.0
H2569 H 0.48147 0.08748 0.09654 0.0
H2570 H 0.48996 0.13611 0.12005 0.0
H2571 H 0.46313 0.14628 0.10867 0.0
C2572 C 0.52514 0.10178 0.13774 0.0
C2573 C 0.5356 0.09211 0.12705 0.0
C2574 C 0.50978 0.10823 0.13181 0.0
C2575 C 0.50458 0.10512 0.1151 0.0
C2576 C 0.51529 0.09595 0.10426 0.0
C2577 C 0.53064 0.08955 0.11016 0.0
C2578 C 0.4622 0.10613 0.09282 0.0
C2579 C 0.45677 0.12277 0.09598 0.0
C2580 C 0.4776 0.10036 0.09924 0.0
C2581 C 0.48789 0.11108 0.109 0.0
C2582 C 0.48224 0.12754 0.11264 0.0
C2583 C 0.46683 0.13333 0.10618 0.0
H2584 H 0.88691 0.53504 0.14451 0.0
H2585 H 0.91226 0.54073 0.09641 0.0
H2586 H 0.87654 0.50735 0.13583 0.0
H2587 H 0.90178 0.51305 0.08761 0.0
H2588 H 0.898 0.45567 0.08598 0.0
H2589 H 0.90723 0.48367 0.09512 0.0
H2590 H 0.85765 0.49309 0.11626 0.0
H2591 H 0.84852 0.46505 0.10723 0.0
C2592 C 0.88996 0.53053 0.13193 0.0
C2593 C 0.90045 0.54002 0.12115 0.0
C2594 C 0.88407 0.51464 0.12698 0.0
C2595 C 0.88851 0.50794 0.11112 0.0
C2596 C 0.89847 0.51771 0.10008 0.0
C2597 C 0.9044 0.53358 0.10506 0.0
C2598 C 0.88912 0.46372 0.09263 0.0
C2599 C 0.87255 0.45819 0.09588 0.0
C2600 C 0.89436 0.47978 0.09778 0.0
C2601 C 0.8831 0.49066 0.10623 0.0
C2602 C 0.86666 0.48494 0.1099 0.0
C2603 C 0.86145 0.46885 0.1048 0.0
H2604 H 0.46212 0.88508 0.14372 0.0
H2605 H 0.45268 0.90694 0.09451 0.0
H2606 H 0.49024 0.87641 0.13452 0.0
H2607 H 0.48082 0.89825 0.08526 0.0
H2608 H 0.53815 0.89849 0.0812 0.0
H2609 H 0.51012 0.90639 0.09144 0.0
H2610 H 0.50495 0.85736 0.11512 0.0
H2611 H 0.53293 0.84949 0.1049 0.0
C2612 C 0.46591 0.88772 0.13083 0.0
C2613 C 0.4552 0.89674 0.11985 0.0
C2614 C 0.48206 0.88283 0.12558 0.0
C2615 C 0.48782 0.88685 0.10924 0.0
C2616 C 0.47688 0.89532 0.09807 0.0
C2617 C 0.46075 0.90022 0.10332 0.0
C2618 C 0.53105 0.88944 0.08865 0.0
C2619 C 0.53774 0.87335 0.09218 0.0
C2620 C 0.51497 0.89393 0.09445 0.0
C2621 C 0.50525 0.88241 0.1039 0.0
C2622 C 0.51219 0.86656 0.10796 0.0
C2623 C 0.52827 0.86208 0.10217 0.0
H2624 H 0.08378 0.54001 0.8959 0.0
H2625 H 0.10577 0.53186 0.84651 0.0
H2626 H 0.09435 0.51253 0.90514 0.0
H2627 H 0.11634 0.50438 0.85572 0.0
H2628 H 0.14614 0.46353 0.88519 0.0
H2629 H 0.13654 0.49108 0.87517 0.0
H2630 H 0.088 0.48277 0.89895 0.0
H2631 H 0.09761 0.45522 0.90896 0.0
C2632 C 0.09089 0.53235 0.88703 0.0
C2633 C 0.09386 0.53806 0.87046 0.0
C2634 C 0.09689 0.51661 0.89229 0.0
C2635 C 0.10599 0.50622 0.88108 0.0
C2636 C 0.10946 0.51216 0.86468 0.0
C2637 C 0.10347 0.52793 0.85942 0.0
C2638 C 0.13332 0.46745 0.88802 0.0
C2639 C 0.12265 0.45724 0.89793 0.0
C2640 C 0.12785 0.48326 0.88233 0.0
C2641 C 0.11159 0.48916 0.88644 0.0
C2642 C 0.10074 0.47872 0.89591 0.0
C2643 C 0.10621 0.46293 0.90159 0.0
H2644 H 0.54047 0.10005 0.91148 0.0
H2645 H 0.53131 0.15062 0.89288 0.0
H2646 H 0.51264 0.0913 0.90139 0.0
H2647 H 0.50345 0.14196 0.88291 0.0
H2648 H 0.4616 0.11467 0.8528 0.0
H2649 H 0.48935 0.12426 0.86219 0.0
H2650 H 0.48319 0.09629 0.90881 0.0
H2651 H 0.45547 0.08661 0.89931 0.0
C2652 C 0.53251 0.10927 0.90521 0.0
C2653 C 0.53805 0.12601 0.90299 0.0
C2654 C 0.51655 0.1043 0.89951 0.0
C2655 C 0.50577 0.116 0.89153 0.0
C2656 C 0.51151 0.13262 0.88888 0.0
C2657 C 0.52751 0.13756 0.89453 0.0
C2658 C 0.46603 0.11084 0.86518 0.0
C2659 C 0.45639 0.09984 0.8753 0.0
C2660 C 0.48196 0.11628 0.87054 0.0
C2661 C 0.48854 0.11088 0.88616 0.0
C2662 C 0.47863 0.10035 0.89653 0.0
C2663 C 0.46273 0.09487 0.89115 0.0
H2664 H 0.90757 0.45561 0.89713 0.0
H2665 H 0.88505 0.46521 0.84823 0.0
H2666 H 0.8971 0.48279 0.90728 0.0
H2667 H 0.87449 0.49237 0.85842 0.0
H2668 H 0.84511 0.53229 0.89001 0.0
H2669 H 0.85445 0.50504 0.87892 0.0
H2670 H 0.90368 0.51278 0.90142 0.0
H2671 H 0.89439 0.54004 0.91241 0.0
C2672 C 0.90037 0.46351 0.88856 0.0
C2673 C 0.89725 0.45832 0.87184 0.0
C2674 C 0.89441 0.47908 0.89435 0.0
C2675 C 0.88517 0.48978 0.88357 0.0
C2676 C 0.8815 0.48433 0.86704 0.0
C2677 C 0.88749 0.46875 0.86123 0.0
C2678 C 0.85801 0.52832 0.89233 0.0
C2679 C 0.86898 0.53828 0.90219 0.0
C2680 C 0.86333 0.51268 0.88603 0.0
C2681 C 0.87971 0.5067 0.88949 0.0
C2682 C 0.89085 0.5169 0.89888 0.0
C2683 C 0.88555 0.53252 0.90514 0.0
H2684 H 0.53888 0.91323 0.89146 0.0
H2685 H 0.52965 0.89238 0.84176 0.0
H2686 H 0.51141 0.90288 0.90091 0.0
H2687 H 0.50218 0.88197 0.85122 0.0
H2688 H 0.46153 0.85208 0.88131 0.0
H2689 H 0.48893 0.86153 0.87072 0.0
H2690 H 0.48162 0.90993 0.8951 0.0
H2691 H 0.45421 0.90051 0.90564 0.0
C2692 C 0.53099 0.90642 0.88257 0.0
C2693 C 0.53639 0.90372 0.86584 0.0
C2694 C 0.51525 0.90054 0.88795 0.0
C2695 C 0.50456 0.89182 0.87673 0.0
C2696 C 0.51019 0.88858 0.86017 0.0
C2697 C 0.52595 0.89447 0.85478 0.0
C2698 C 0.46562 0.86485 0.88414 0.0
C2699 C 0.45575 0.87552 0.8944 0.0
C2700 C 0.48134 0.87022 0.87813 0.0
C2701 C 0.4875 0.88638 0.88227 0.0
C2702 C 0.47737 0.89726 0.89203 0.0
C2703 C 0.46166 0.89189 0.89802 0.0
H2704 H 0.09262 0.08789 0.45464 0.0
H2705 H 0.14332 0.10396 0.46716 0.0
H2706 H 0.083 0.09627 0.48276 0.0
H2707 H 0.13383 0.11215 0.49534 0.0
H2708 H 0.10604 0.14022 0.53819 0.0
H2709 H 0.1165 0.13237 0.51026 0.0
H2710 H 0.08611 0.0869 0.51174 0.0
H2711 H 0.07551 0.09493 0.53961 0.0
C2712 C 0.10168 0.09324 0.46341 0.0
C2713 C 0.1187 0.09528 0.45871 0.0
C2714 C 0.09622 0.09795 0.47954 0.0
C2715 C 0.1077 0.10471 0.49135 0.0
C2716 C 0.12464 0.10714 0.48649 0.0
C2717 C 0.13007 0.1025 0.47032 0.0
C2718 C 0.10184 0.12841 0.53267 0.0
C2719 C 0.08992 0.11821 0.54104 0.0
C2720 C 0.10778 0.12393 0.51664 0.0
C2721 C 0.102 0.1091 0.5087 0.0
C2722 C 0.09051 0.09861 0.51734 0.0
C2723 C 0.0845 0.10315 0.53333 0.0
H2724 H 0.8923 0.09033 0.54572 0.0
H2725 H 0.84308 0.11146 0.53461 0.0
H2726 H 0.90391 0.10441 0.52085 0.0
H2727 H 0.85481 0.12575 0.50987 0.0
H2728 H 0.88762 0.15756 0.47231 0.0
H2729 H 0.87656 0.14761 0.49954 0.0
H2730 H 0.89789 0.0982 0.49003 0.0
H2731 H 0.90847 0.10784 0.4629 0.0
C2732 C 0.88399 0.09808 0.53807 0.0
C2733 C 0.8667 0.09951 0.54197 0.0
C2734 C 0.89065 0.10618 0.52388 0.0
C2735 C 0.88017 0.11594 0.51335 0.0
C2736 C 0.86316 0.11834 0.51784 0.0
C2737 C 0.85646 0.11016 0.53202 0.0
C2738 C 0.88979 0.14454 0.47598 0.0
C2739 C 0.89911 0.13357 0.4655 0.0
C2740 C 0.88354 0.1389 0.49157 0.0
C2741 C 0.88666 0.12225 0.49697 0.0
C2742 C 0.8957 0.11124 0.48637 0.0
C2743 C 0.90178 0.1168 0.47081 0.0
H2744 H 0.89859 0.88817 0.54866 0.0
H2745 H 0.90391 0.83887 0.52587 0.0
H2746 H 0.88601 0.89895 0.52257 0.0
H2747 H 0.89203 0.84965 0.49949 0.0
H2748 H 0.86001 0.87209 0.45719 0.0
H2749 H 0.86826 0.86039 0.48449 0.0
H2750 H 0.89622 0.90612 0.4955 0.0
H2751 H 0.88707 0.9182 0.469 0.0
C2752 C 0.89691 0.87965 0.53804 0.0
C2753 C 0.90219 0.86275 0.53918 0.0
C2754 C 0.88987 0.8858 0.52307 0.0
C2755 C 0.88828 0.87524 0.50881 0.0
C2756 C 0.8929 0.85811 0.51024 0.0
C2757 C 0.8997 0.8519 0.52534 0.0
C2758 C 0.86778 0.87971 0.46549 0.0
C2759 C 0.87286 0.89611 0.46076 0.0
C2760 C 0.87265 0.87293 0.4811 0.0
C2761 C 0.8828 0.88235 0.49228 0.0
C2762 C 0.88809 0.89861 0.48741 0.0
C2763 C 0.8831 0.90544 0.47194 0.0
H2764 H 0.10517 0.9093 0.54149 0.0
H2765 H 0.15573 0.89048 0.53245 0.0
H2766 H 0.09594 0.89735 0.51461 0.0
H2767 H 0.14636 0.87825 0.50566 0.0
H2768 H 0.11556 0.84607 0.46631 0.0
H2769 H 0.12623 0.85626 0.49345 0.0
H2770 H 0.10296 0.90487 0.48431 0.0
H2771 H 0.09259 0.89487 0.45708 0.0
C2772 C 0.11429 0.90255 0.53382 0.0
C2773 C 0.13124 0.90106 0.539 0.0
C2774 C 0.10901 0.89572 0.51844 0.0
C2775 C 0.12053 0.88714 0.50797 0.0
C2776 C 0.13724 0.88481 0.51353 0.0
C2777 C 0.14256 0.89174 0.5289 0.0
C2778 C 0.11301 0.85903 0.46991 0.0
C2779 C 0.10306 0.8696 0.45959 0.0
C2780 C 0.11904 0.86482 0.4855 0.0
C2781 C 0.11515 0.88123 0.49106 0.0
C2782 C 0.10579 0.89201 0.48048 0.0
C2783 C 0.09987 0.88628 0.46488 0.0
H2784 H 0.57401 0.9656 0.60863 0.0
H2785 H 0.61842 0.95531 0.63903 0.0
H2786 H 0.58651 0.99176 0.59918 0.0
H2787 H 0.63036 0.98228 0.6305 0.0
H2788 H 0.65412 0.02336 0.59675 0.0
H2789 H 0.64263 0.99686 0.60759 0.0
H2790 H 0.59263 0.01922 0.60861 0.0
H2791 H 0.60421 0.0454 0.59702 0.0
C2792 C 0.58645 0.96877 0.61332 0.0
C2793 C 0.59514 0.95811 0.62465 0.0
C2794 C 0.59352 0.98407 0.6081 0.0
C2795 C 0.60936 0.98931 0.61425 0.0
C2796 C 0.61817 0.97862 0.62541 0.0
C2797 C 0.6112 0.96317 0.63046 0.0
C2798 C 0.64074 0.02262 0.59959 0.0
C2799 C 0.63 0.03632 0.59606 0.0
C2800 C 0.63412 0.00746 0.60579 0.0
C2801 C 0.61665 0.00579 0.60882 0.0
C2802 C 0.60607 0.01986 0.60601 0.0
C2803 C 0.61267 0.03491 0.59954 0.0
H2804 H 0.9595 0.64136 0.617 0.0
H2805 H 0.95122 0.59328 0.59233 0.0
H2806 H 0.98702 0.63158 0.6269 0.0
H2807 H 0.97876 0.58346 0.60224 0.0
H2808 H 0.0363 0.58076 0.60294 0.0
H2809 H 0.00817 0.5907 0.59512 0.0
H2810 H 0.00137 0.61111 0.64541 0.0
H2811 H 0.02952 0.60115 0.65322 0.0
C2812 C 0.96337 0.62856 0.61404 0.0
C2813 C 0.95325 0.61812 0.60378 0.0
C2814 C 0.97918 0.62298 0.61964 0.0
C2815 C 0.98515 0.60686 0.61511 0.0
C2816 C 0.97465 0.59611 0.60558 0.0
C2817 C 0.95887 0.60168 0.59998 0.0
C2818 C 0.02881 0.58738 0.6123 0.0
C2819 C 0.0351 0.59011 0.6287 0.0
C2820 C 0.01267 0.593 0.60787 0.0
C2821 C 0.00248 0.60146 0.61974 0.0
C2822 C 0.00898 0.60469 0.63597 0.0
C2823 C 0.02513 0.59907 0.64041 0.0
H2824 H 0.39581 0.95298 0.58557 0.0
H2825 H 0.3473 0.96176 0.60926 0.0
H2826 H 0.40602 0.97991 0.59654 0.0
H2827 H 0.35764 0.98863 0.62044 0.0
H2828 H 0.39026 0.0282 0.64979 0.0
H2829 H 0.37916 0.00094 0.64041 0.0
H2830 H 0.399 0.01012 0.59031 0.0
H2831 H 0.40985 0.03742 0.59954 0.0
C2832 C 0.38733 0.96063 0.59314 0.0
C2833 C 0.37067 0.9553 0.59636 0.0
C2834 C 0.39318 0.97605 0.59941 0.0
C2835 C 0.38254 0.98645 0.60913 0.0
C2836 C 0.36613 0.98082 0.61303 0.0
C2837 C 0.36024 0.9654 0.60668 0.0
C2838 C 0.392 0.02455 0.63671 0.0
C2839 C 0.40108 0.03495 0.62545 0.0
C2840 C 0.38571 0.0089 0.63137 0.0
C2841 C 0.38844 0.00333 0.61471 0.0
C2842 C 0.39705 0.01393 0.60334 0.0
C2843 C 0.40326 0.02958 0.60863 0.0
H2844 H 0.95266 0.40809 0.59243 0.0
H2845 H 0.95979 0.38237 0.64014 0.0
H2846 H 0.98018 0.39791 0.58283 0.0
H2847 H 0.98731 0.37226 0.63063 0.0
H2848 H 0.02874 0.34443 0.60049 0.0
H2849 H 0.00098 0.35351 0.61043 0.0
H2850 H 0.0098 0.40327 0.58948 0.0
H2851 H 0.03752 0.39412 0.57947 0.0
C2852 C 0.9601 0.40024 0.60084 0.0
C2853 C 0.95408 0.39608 0.61705 0.0
C2854 C 0.97588 0.39447 0.59539 0.0
C2855 C 0.986 0.38444 0.60605 0.0
C2856 C 0.97976 0.37984 0.62206 0.0
C2857 C 0.96395 0.38559 0.62749 0.0
C2858 C 0.02487 0.35738 0.59826 0.0
C2859 C 0.03529 0.36855 0.58915 0.0
C2860 C 0.00894 0.36257 0.6039 0.0
C2861 C 0.00313 0.37905 0.60058 0.0
C2862 C 0.01376 0.39036 0.5919 0.0
C2863 C 0.02966 0.38516 0.58623 0.0
H2864 H 0.60068 0.95284 0.40836 0.0
H2865 H 0.65098 0.96635 0.39181 0.0
H2866 H 0.59028 0.98047 0.39933 0.0
H2867 H 0.64067 0.99403 0.38291 0.0
H2868 H 0.61141 0.03599 0.35481 0.0
H2869 H 0.6225 0.00828 0.36259 0.0
H2870 H 0.59328 0.00963 0.40882 0.0
H2871 H 0.58211 0.03729 0.40095 0.0
C2872 C 0.60948 0.96171 0.40272 0.0
C2873 C 0.62663 0.95748 0.40084 0.0
C2874 C 0.60357 0.97755 0.39764 0.0
C2875 C 0.61471 0.98951 0.39063 0.0
C2876 C 0.63175 0.98504 0.38816 0.0
C2877 C 0.63765 0.96916 0.39319 0.0
C2878 C 0.6076 0.0305 0.36677 0.0
C2879 C 0.59584 0.03878 0.37725 0.0
C2880 C 0.6139 0.0146 0.3712 0.0
C2881 C 0.60861 0.00668 0.38622 0.0
C2882 C 0.59728 0.01523 0.39697 0.0
C2883 C 0.59095 0.03109 0.39251 0.0
H2884 H 0.03946 0.60137 0.40984 0.0
H2885 H 0.02888 0.6518 0.39155 0.0
H2886 H 0.01344 0.59121 0.3969 0.0
H2887 H 0.00308 0.64149 0.37803 0.0
H2888 H 0.94807 0.61986 0.37839 0.0
H2889 H 0.97531 0.63127 0.38754 0.0
H2890 H 0.00024 0.58599 0.36963 0.0
H2891 H 0.97304 0.5746 0.36064 0.0
C2892 C 0.03163 0.61026 0.40294 0.0
C2893 C 0.03617 0.62741 0.40183 0.0
C2894 C 0.01682 0.6044 0.39536 0.0
C2895 C 0.00619 0.61556 0.38646 0.0
C2896 C 0.01094 0.63263 0.38495 0.0
C2897 C 0.0258 0.63849 0.39252 0.0
C2898 C 0.95941 0.6125 0.37618 0.0
C2899 C 0.95843 0.59626 0.36901 0.0
C2900 C 0.97501 0.61902 0.38139 0.0
C2901 C 0.9899 0.60944 0.37945 0.0
C2902 C 0.98896 0.59352 0.37161 0.0
C2903 C 0.9734 0.587 0.36648 0.0
H2904 H 0.39466 0.0366 0.40815 0.0
H2905 H 0.34567 0.02576 0.38644 0.0
H2906 H 0.40487 0.00899 0.39888 0.0
H2907 H 0.35588 -0.00183 0.37713 0.0
H2908 H 0.38724 0.95736 0.34904 0.0
H2909 H 0.37599 0.98477 0.35753 0.0
H2910 H 0.3996 0.97926 0.40655 0.0
H2911 H 0.41082 0.95179 0.39807 0.0
C2912 C 0.38609 0.02833 0.40137 0.0
C2913 C 0.36934 0.03333 0.39811 0.0
C2914 C 0.3919 0.01251 0.39612 0.0
C2915 C 0.3811 0.00134 0.38747 0.0
C2916 C 0.36453 0.00655 0.38368 0.0
C2917 C 0.3587 0.02239 0.38895 0.0
C2918 C 0.38976 0.96182 0.36174 0.0
C2919 C 0.4 0.95242 0.37286 0.0
C2920 C 0.38337 0.97757 0.36657 0.0
C2921 C 0.38709 0.98425 0.38262 0.0
C2922 C 0.39684 0.9746 0.39395 0.0
C2923 C 0.40322 0.95885 0.38913 0.0
H2924 H 0.04025 0.40959 0.39795 0.0
H2925 H 0.0335 0.38639 0.34894 0.0
H2926 H 0.01214 0.39994 0.4064 0.0
H2927 H 0.00534 0.37699 0.35718 0.0
H2928 H 0.96106 0.35052 0.38377 0.0
H2929 H 0.98967 0.35838 0.37542 0.0
H2930 H 0.98325 0.40708 0.39954 0.0
H2931 H 0.9547 0.39903 0.40811 0.0
C2932 C 0.03278 0.40232 0.38905 0.0
C2933 C 0.03903 0.39876 0.37281 0.0
C2934 C 0.01665 0.3969 0.39382 0.0
C2935 C 0.00641 0.38791 0.38237 0.0
C2936 C 0.01296 0.38377 0.36635 0.0
C2937 C 0.02912 0.38909 0.36164 0.0
C2938 C 0.96566 0.36302 0.38701 0.0
C2939 C 0.95566 0.37419 0.39658 0.0
C2940 C 0.98208 0.36749 0.38229 0.0
C2941 C 0.98881 0.38328 0.38697 0.0
C2942 C 0.97859 0.39466 0.39609 0.0
C2943 C 0.96221 0.39013 0.40089 0.0
H2944 H 0.6422 0.61011 0.9637 0.0
H2945 H 0.59464 0.58365 0.95867 0.0
H2946 H 0.63412 0.61934 0.99199 0.0
H2947 H 0.58647 0.59295 0.98694 0.0
H2948 H 0.60498 0.64625 0.03498 0.0
H2949 H 0.61433 0.63749 0.00694 0.0
H2950 H 0.59471 0.58726 0.01612 0.0
H2951 H 0.58524 0.59612 0.04416 0.0
C2952 C 0.62987 0.60654 0.96851 0.0
C2953 C 0.61906 0.59612 0.95898 0.0
C2954 C 0.62528 0.61176 0.98475 0.0
C2955 C 0.60975 0.60671 0.99178 0.0
C2956 C 0.5987 0.59673 0.98203 0.0
C2957 C 0.60332 0.59147 0.96581 0.0
C2958 C 0.60299 0.63325 0.03116 0.0
C2959 C 0.59432 0.62187 0.04174 0.0
C2960 C 0.60828 0.62825 0.01506 0.0
C2961 C 0.60507 0.61175 0.00924 0.0
C2962 C 0.59702 0.60018 0.0201 0.0
C2963 C 0.59168 0.6052 0.03617 0.0
H2964 H 0.38467 0.6508 0.96531 0.0
H2965 H 0.40805 0.60214 0.9564 0.0
H2966 H 0.37239 0.64004 0.99156 0.0
H2967 H 0.3961 0.5916 0.98275 0.0
H2968 H 0.39115 0.58671 0.0399 0.0
H2969 H 0.40157 0.59877 0.01354 0.0
H2970 H 0.35153 0.6176 0.00222 0.0
H2971 H 0.34094 0.60519 0.0285 0.0
C2972 C 0.387 0.63777 0.96879 0.0
C2973 C 0.39753 0.62739 0.95883 0.0
C2974 C 0.38003 0.63165 0.98385 0.0
C2975 C 0.38354 0.6151 0.98927 0.0
C2976 C 0.39351 0.60454 0.97903 0.0
C2977 C 0.40037 0.6106 0.96395 0.0
C2978 C 0.38233 0.59336 0.0318 0.0
C2979 C 0.36516 0.59476 0.0362 0.0
C2980 C 0.38831 0.60027 0.01672 0.0
C2981 C 0.37728 0.60887 0.00576 0.0
C2982 C 0.36029 0.61103 0.01048 0.0
C2983 C 0.35426 0.60399 0.02556 0.0
H2984 H 0.42836 0.37295 0.0221 0.0
H2985 H 0.3776 0.3781 0.04158 0.0
H2986 H 0.41851 0.38038 0.99396 0.0
H2987 H 0.36764 0.38616 0.01337 0.0
H2988 H 0.35245 0.38599 0.95816 0.0
H2989 H 0.36266 0.37562 0.98533 0.0
H2990 H 0.40886 0.40419 0.97874 0.0
H2991 H 0.39914 0.41363 0.95122 0.0
C2992 C 0.41511 0.37597 0.02038 0.0
C2993 C 0.40375 0.37516 0.03404 0.0
C2994 C 0.40945 0.38021 0.00424 0.0
C2995 C 0.3923 0.38397 0.0014 0.0
C2996 C 0.3809 0.3831 0.01507 0.0
C2997 C 0.38657 0.37862 0.03123 0.0
C2998 C 0.36494 0.38973 0.96232 0.0
C2999 C 0.37492 0.40075 0.95253 0.0
C3000 C 0.37069 0.384 0.97804 0.0
C3001 C 0.3865 0.38921 0.98431 0.0
C3002 C 0.39667 0.3998 0.97427 0.0
C3003 C 0.391 0.4054 0.95853 0.0
H3004 H 0.65071 0.39024 0.0286 0.0
H3005 H 0.60051 0.40895 0.03953 0.0
H3006 H 0.64096 0.38008 0.00113 0.0
H3007 H 0.59076 0.39884 0.01206 0.0
H3008 H 0.58473 0.39746 0.95487 0.0
H3009 H 0.59544 0.40667 0.98229 0.0
H3010 H 0.62198 0.35918 0.98791 0.0
H3011 H 0.61122 0.34995 0.9605 0.0
C3012 C 0.63753 0.39192 0.02527 0.0
C3013 C 0.6264 0.40049 0.03619 0.0
C3014 C 0.63196 0.38616 0.00951 0.0
C3015 C 0.61516 0.38887 0.00436 0.0
C3016 C 0.60389 0.39692 0.01552 0.0
C3017 C 0.60945 0.40267 0.03126 0.0
C3018 C 0.59284 0.38899 0.96195 0.0
C3019 C 0.59704 0.37294 0.95555 0.0
C3020 C 0.59894 0.39424 0.97767 0.0
C3021 C 0.60939 0.38356 0.98733 0.0
C3022 C 0.61405 0.36773 0.9807 0.0
C3023 C 0.60793 0.36247 0.96497 0.0
H3024 H 0.05737 0.40833 0.0759 0.0
H3025 H 0.10477 0.39546 0.09997 0.0
H3026 H 0.07062 0.40472 0.04805 0.0
H3027 H 0.11806 0.39234 0.07211 0.0
H3028 H 0.13372 0.41259 0.01624 0.0
H3029 H 0.12152 0.41582 0.04468 0.0
H3030 H 0.0865 0.37524 0.03421 0.0
H3031 H 0.09896 0.37174 0.00598 0.0
C3032 C 0.07063 0.4049 0.07521 0.0
C3033 C 0.08008 0.40211 0.09 0.0
C3034 C 0.07814 0.40277 0.05935 0.0
C3035 C 0.09526 0.39823 0.05812 0.0
C3036 C 0.10482 0.39585 0.07287 0.0
C3037 C 0.09722 0.39759 0.08872 0.0
C3038 C 0.12353 0.4043 0.02016 0.0
C3039 C 0.11728 0.39188 0.00909 0.0
C3040 C 0.11661 0.40612 0.03632 0.0
C3041 C 0.1031 0.39581 0.04142 0.0
C3042 C 0.0969 0.38333 0.03042 0.0
C3043 C 0.10408 0.38125 0.01441 0.0
H3044 H 0.61698 0.12655 0.02705 0.0
H3045 H 0.58789 0.08795 0.0015 0.0
H3046 H 0.61598 0.11009 0.05309 0.0
H3047 H 0.58695 0.07141 0.02753 0.0
H3048 H 0.57173 0.05856 0.08261 0.0
H3049 H 0.5739 0.07299 0.05543 0.0
H3050 H 0.62654 0.08399 0.06544 0.0
H3051 H 0.62429 0.0699 0.09277 0.0
C3052 C 0.61055 0.11446 0.02695 0.0
C3053 C 0.60247 0.10859 0.01225 0.0
C3054 C 0.60999 0.105 0.04185 0.0
C3055 C 0.60139 0.08944 0.04235 0.0
C3056 C 0.59346 0.08347 0.0276 0.0
C3057 C 0.59398 0.09295 0.01271 0.0
C3058 C 0.58381 0.0639 0.07892 0.0
C3059 C 0.59782 0.06319 0.08985 0.0
C3060 C 0.58506 0.07212 0.06333 0.0
C3061 C 0.60036 0.07972 0.05835 0.0
C3062 C 0.61451 0.07851 0.06907 0.0
C3063 C 0.61324 0.07036 0.08467 0.0
H3064 H 0.94562 0.57921 0.07821 0.0
H3065 H 0.91979 0.62498 0.09344 0.0
H3066 H 0.93203 0.58078 0.05055 0.0
H3067 H 0.90583 0.62625 0.06607 0.0
H3068 H 0.89169 0.6306 0.01084 0.0
H3069 H 0.90927 0.63064 0.03622 0.0
H3070 H 0.9038 0.57632 0.03997 0.0
H3071 H 0.8865 0.57633 0.01445 0.0
C3072 C 0.93716 0.58968 0.0756 0.0
C3073 C 0.93369 0.60191 0.08804 0.0
C3074 C 0.92927 0.59051 0.05981 0.0
C3075 C 0.9177 0.60353 0.05616 0.0
C3076 C 0.91479 0.61614 0.06838 0.0
C3077 C 0.92274 0.61536 0.08413 0.0
C3078 C 0.89422 0.6187 0.01715 0.0
C3079 C 0.88768 0.60347 0.01073 0.0
C3080 C 0.90431 0.61871 0.03166 0.0
C3081 C 0.90795 0.60348 0.04012 0.0
C3082 C 0.90152 0.58823 0.03358 0.0
C3083 C 0.89154 0.58823 0.01901 0.0
H3084 H 0.36397 0.89136 0.00565 0.0
H3085 H 0.41838 0.8869 0.00789 0.0
H3086 H 0.36411 0.90695 0.0323 0.0
H3087 H 0.41859 0.90218 0.03466 0.0
H3088 H 0.37033 0.91387 0.08983 0.0
H3089 H 0.36907 0.90151 0.0617 0.0
H3090 H 0.41393 0.9294 0.0474 0.0
H3091 H 0.4155 0.94138 0.07581 0.0
C3092 C 0.37594 0.89362 0.01192 0.0
C3093 C 0.39115 0.88789 0.00474 0.0
C3094 C 0.37604 0.90255 0.02716 0.0
C3095 C 0.39136 0.90582 0.03561 0.0
C3096 C 0.40659 0.90018 0.02833 0.0
C3097 C 0.40648 0.89136 0.01303 0.0
C3098 C 0.37984 0.91751 0.08065 0.0
C3099 C 0.39309 0.9285 0.08507 0.0
C3100 C 0.37906 0.91049 0.06447 0.0
C3101 C 0.39146 0.91439 0.05232 0.0
C3102 C 0.40435 0.9259 0.05657 0.0
C3103 C 0.40519 0.93286 0.0728 0.0
H3104 H 0.08241 0.62103 0.90097 0.0
H3105 H 0.0525 0.57809 0.91696 0.0
H3106 H 0.09636 0.62155 0.92838 0.0
H3107 H 0.06613 0.57895 0.94465 0.0
H3108 H 0.10972 0.57234 0.98268 0.0
H3109 H 0.09357 0.57266 0.9564 0.0
H3110 H 0.09232 0.62735 0.9579 0.0
H3111 H 0.10872 0.62696 0.98404 0.0
C3112 C 0.07862 0.61186 0.91043 0.0
C3113 C 0.06641 0.59947 0.90678 0.0
C3114 C 0.08657 0.61221 0.9262 0.0
C3115 C 0.08241 0.60025 0.93869 0.0
C3116 C 0.06982 0.58816 0.9352 0.0
C3117 C 0.06192 0.58775 0.91938 0.0
C3118 C 0.10585 0.5844 0.97746 0.0
C3119 C 0.11054 0.59962 0.98535 0.0
C3120 C 0.09655 0.5846 0.96244 0.0
C3121 C 0.09164 0.60004 0.95505 0.0
C3122 C 0.09613 0.61526 0.96311 0.0
C3123 C 0.10554 0.61505 0.97807 0.0
H3124 H 0.37443 0.12429 0.97342 0.0
H3125 H 0.40581 0.08619 0.99692 0.0
H3126 H 0.37451 0.10821 0.94716 0.0
H3127 H 0.40584 0.06999 0.97063 0.0
H3128 H 0.41968 0.06004 0.91432 0.0
H3129 H 0.41768 0.07262 0.94238 0.0
H3130 H 0.36443 0.08222 0.93433 0.0
H3131 H 0.36651 0.06999 0.90608 0.0
C3132 C 0.38115 0.11236 0.97305 0.0
C3133 C 0.39017 0.10656 0.98722 0.0
C3134 C 0.38117 0.10311 0.95801 0.0
C3135 C 0.39016 0.0878 0.95683 0.0
C3136 C 0.39897 0.08185 0.97109 0.0
C3137 C 0.39899 0.09115 0.98612 0.0
C3138 C 0.40748 0.06461 0.91863 0.0
C3139 C 0.39328 0.06418 0.90794 0.0
C3140 C 0.40633 0.07176 0.93475 0.0
C3141 C 0.39093 0.07856 0.94051 0.0
C3142 C 0.37654 0.07737 0.93011 0.0
C3143 C 0.37771 0.07028 0.91397 0.0
H3144 H 0.86615 0.37787 0.97289 0.0
H3145 H 0.90614 0.40618 0.99715 0.0
H3146 H 0.88181 0.37847 0.94635 0.0
H3147 H 0.92186 0.40674 0.97062 0.0
H3148 H 0.93315 0.42188 0.91518 0.0
H3149 H 0.91962 0.41987 0.94284 0.0
H3150 H 0.90726 0.3675 0.933 0.0
H3151 H 0.92046 0.3696 0.9052 0.0
C3152 C 0.87837 0.38404 0.97261 0.0
C3153 C 0.88485 0.39204 0.9871 0.0
C3154 C 0.88737 0.38436 0.95741 0.0
C3155 C 0.90308 0.39266 0.95639 0.0
C3156 C 0.90968 0.40047 0.97094 0.0
C3157 C 0.90065 0.40017 0.98613 0.0
C3158 C 0.9277 0.40989 0.919 0.0
C3159 C 0.92778 0.39592 0.90799 0.0
C3160 C 0.92001 0.40872 0.93487 0.0
C3161 C 0.91228 0.39355 0.94005 0.0
C3162 C 0.91285 0.37944 0.92924 0.0
C3163 C 0.9205 0.38062 0.91336 0.0
H3164 H 0.57293 0.93826 0.9105 0.0
H3165 H 0.62425 0.92247 0.89994 0.0
H3166 H 0.57386 0.92324 0.93741 0.0
H3167 H 0.62528 0.90774 0.92702 0.0
H3168 H 0.61207 0.86564 0.96487 0.0
H3169 H 0.61234 0.88244 0.93901 0.0
H3170 H 0.58714 0.92328 0.96528 0.0
H3171 H 0.58684 0.90644 0.99111 0.0
C3172 C 0.5845 0.93181 0.91404 0.0
C3173 C 0.59849 0.93147 0.90307 0.0
C3174 C 0.58504 0.92324 0.92949 0.0
C3175 C 0.59961 0.91422 0.93428 0.0
C3176 C 0.61378 0.91435 0.92354 0.0
C3177 C 0.61323 0.92287 0.90808 0.0
C3178 C 0.60674 0.87825 0.96515 0.0
C3179 C 0.59939 0.88468 0.98001 0.0
C3180 C 0.60691 0.88789 0.95036 0.0
C3181 C 0.59978 0.9042 0.95013 0.0
C3182 C 0.59252 0.91067 0.96501 0.0
C3183 C 0.59232 0.90101 0.9798 0.0
H3184 H 0.99339 0.08567 0.37571 0.0
H3185 H 0.01072 0.12846 0.40489 0.0
H3186 H 0.02187 0.07328 0.37696 0.0
H3187 H 0.03921 0.11625 0.40592 0.0
H3188 H 0.0906 0.09688 0.38445 0.0
H3189 H 0.06209 0.10854 0.38204 0.0
H3190 H 0.0414 0.06268 0.4033 0.0
H3191 H 0.07004 0.05101 0.40607 0.0
C3192 C 0.00337 0.09247 0.3822 0.0
C3193 C -0.0 0.10799 0.39019 0.0
C3194 C 0.01953 0.08535 0.38303 0.0
C3195 C 0.03259 0.09386 0.39154 0.0
C3196 C 0.0293 0.10952 0.39924 0.0
C3197 C 0.01308 0.11645 0.39871 0.0
C3198 C 0.07998 0.08924 0.38855 0.0
C3199 C 0.08249 0.07305 0.39547 0.0
C3200 C 0.06372 0.09595 0.38722 0.0
C3201 C 0.04968 0.08646 0.39248 0.0
C3202 C 0.0521 0.07014 0.39909 0.0
C3203 C 0.06843 0.06354 0.40073 0.0
H3204 H 0.88926 0.09792 0.40122 0.0
H3205 H 0.93871 0.07824 0.41387 0.0
H3206 H 0.87851 0.06906 0.39828 0.0
H3207 H 0.92795 0.04932 0.41061 0.0
H3208 H 0.90528 0.00436 0.3786 0.0
H3209 H 0.91576 0.03316 0.38333 0.0
H3210 H 0.87492 0.04226 0.41849 0.0
H3211 H 0.86457 0.01337 0.41389 0.0
C3212 C 0.89779 0.08741 0.40345 0.0
C3213 C 0.91481 0.09024 0.40773 0.0
C3214 C 0.89162 0.07096 0.40182 0.0
C3215 C 0.90246 0.0571 0.40413 0.0
C3216 C 0.91942 0.05988 0.40867 0.0
C3217 C 0.92552 0.07636 0.41063 0.0
C3218 C 0.89849 0.0126 0.38719 0.0
C3219 C 0.88411 0.00677 0.39585 0.0
C3220 C 0.90456 0.02894 0.39003 0.0
C3221 C 0.89616 0.03977 0.40133 0.0
C3222 C 0.88158 0.03408 0.40973 0.0
C3223 C 0.8757 0.01763 0.40712 0.0
H3224 H 0.90534 0.90362 0.37748 0.0
H3225 H 0.92146 0.93584 0.41869 0.0
H3226 H 0.93365 0.89163 0.37575 0.0
H3227 H 0.94993 0.92408 0.41668 0.0
H3228 H 0.99097 0.88306 0.42203 0.0
H3229 H 0.96359 0.89713 0.42283 0.0
H3230 H 0.96271 0.89852 0.36814 0.0
H3231 H 0.99014 0.88435 0.36737 0.0
C3232 C 0.91497 0.90827 0.38606 0.0
C3233 C 0.91115 0.92061 0.39828 0.0
C3234 C 0.93123 0.90147 0.38499 0.0
C3235 C 0.94401 0.90689 0.3961 0.0
C3236 C 0.94028 0.91949 0.4081 0.0
C3237 C 0.924 0.92629 0.40918 0.0
C3238 C 0.98505 0.88656 0.41019 0.0
C3239 C 0.99272 0.88259 0.39463 0.0
C3240 C 0.96936 0.89464 0.41064 0.0
C3241 C 0.961 0.89896 0.39555 0.0
C3242 C 0.96874 0.89515 0.37999 0.0
C3243 C 0.98443 0.88702 0.37953 0.0
H3244 H 0.08952 0.99106 0.3707 0.0
H3245 H 0.12851 0.97942 0.40712 0.0
H3246 H 0.07859 0.96209 0.37312 0.0
H3247 H 0.11782 0.95032 0.40927 0.0
H3248 H 0.10274 0.89583 0.38897 0.0
H3249 H 0.11386 0.92455 0.38557 0.0
H3250 H 0.06578 0.94511 0.40134 0.0
H3251 H 0.05471 0.91637 0.40521 0.0
C3252 C 0.09586 0.9822 0.37902 0.0
C3253 C 0.10985 0.98733 0.3887 0.0
C3254 C 0.08956 0.96575 0.38049 0.0
C3255 C 0.09741 0.95413 0.39137 0.0
C3256 C 0.11164 0.95912 0.40076 0.0
C3257 C 0.1177 0.97568 0.39958 0.0
C3258 C 0.09453 0.90648 0.39165 0.0
C3259 C 0.07788 0.90394 0.39734 0.0
C3260 C 0.10091 0.92284 0.38977 0.0
C3261 C 0.09061 0.93688 0.39318 0.0
C3262 C 0.07387 0.93439 0.39858 0.0
C3263 C 0.0676 0.91802 0.40084 0.0
H3264 H 0.1026 0.90861 0.61553 0.0
H3265 H 0.08178 0.94559 0.581 0.0
H3266 H 0.07523 0.89454 0.617 0.0
H3267 H 0.05424 0.93189 0.58293 0.0
H3268 H 0.01276 0.89334 0.5752 0.0
H3269 H 0.0404 0.90657 0.57397 0.0
H3270 H 0.04713 0.89764 0.62753 0.0
H3271 H 0.01991 0.88342 0.62858 0.0
C3272 C 0.09211 0.91387 0.60843 0.0
C3273 C 0.09433 0.92817 0.59812 0.0
C3274 C 0.0764 0.90584 0.60932 0.0
C3275 C 0.06255 0.91204 0.60002 0.0
C3276 C 0.06472 0.92658 0.58998 0.0
C3277 C 0.08047 0.93452 0.58898 0.0
C3278 C 0.02018 0.89389 0.58668 0.0
C3279 C 0.01399 0.88727 0.60201 0.0
C3280 C 0.03598 0.90175 0.58602 0.0
C3281 C 0.04593 0.90332 0.60068 0.0
C3282 C 0.03985 0.89654 0.61596 0.0
C3283 C 0.02411 0.88855 0.6166 0.0
H3284 H 0.04833 0.07859 0.62597 0.0
H3285 H 0.05548 0.08209 0.57185 0.0
H3286 H 0.06346 0.05168 0.6262 0.0
H3287 H 0.07123 0.05575 0.57214 0.0
H3288 H 0.09318 0.004 0.5751 0.0
H3289 H 0.07215 0.02625 0.57576 0.0
H3290 H 0.0921 0.04369 0.62363 0.0
H3291 H 0.11231 0.02075 0.62365 0.0
C3292 C 0.05297 0.0735 0.61411 0.0
C3293 C 0.05084 0.08248 0.59893 0.0
C3294 C 0.06177 0.05817 0.61424 0.0
C3295 C 0.06884 0.05166 0.59924 0.0
C3296 C 0.06585 0.06023 0.58392 0.0
C3297 C 0.05684 0.07541 0.58375 0.0
C3298 C 0.09296 0.0123 0.58597 0.0
C3299 C 0.10467 0.01046 0.59929 0.0
C3300 C 0.08094 0.02524 0.58624 0.0
C3301 C 0.08043 0.03685 0.59971 0.0
C3302 C 0.09191 0.03485 0.61316 0.0
C3303 C 0.10378 0.02178 0.61301 0.0
H3304 H 0.91088 0.05427 0.57982 0.0
H3305 H 0.89132 0.08568 0.62016 0.0
H3306 H 0.93789 0.06901 0.58143 0.0
H3307 H 0.91824 0.10069 0.62148 0.0
H3308 H 0.97514 0.11264 0.5745 0.0
H3309 H 0.94863 0.09689 0.57429 0.0
H3310 H 0.9479 0.0974 0.629 0.0
H3311 H 0.97435 0.11326 0.62917 0.0
C3312 C 0.91237 0.06427 0.5891 0.0
C3313 C 0.89895 0.06885 0.59983 0.0
C3314 C 0.9278 0.0728 0.58992 0.0
C3315 C 0.93014 0.08613 0.60146 0.0
C3316 C 0.91688 0.09039 0.61254 0.0
C3317 C 0.90144 0.08182 0.61175 0.0
C3318 C 0.96936 0.10931 0.58647 0.0
C3319 C 0.97683 0.11419 0.60184 0.0
C3320 C 0.9542 0.10025 0.58636 0.0
C3321 C 0.94621 0.09582 0.60164 0.0
C3322 C 0.95363 0.1008 0.61701 0.0
C3323 C 0.96877 0.10991 0.61711 0.0
H3324 H 0.88189 0.98046 0.62491 0.0
H3325 H 0.88379 0.98262 0.57033 0.0
H3326 H 0.89824 0.95431 0.62448 0.0
H3327 H 0.89991 0.95632 0.56981 0.0
H3328 H 0.9413 0.91663 0.57582 0.0
H3329 H 0.92702 0.94401 0.57691 0.0
H3330 H 0.89423 0.92526 0.61651 0.0
H3331 H 0.90877 0.89818 0.61577 0.0
C3332 C 0.88572 0.97527 0.61283 0.0
C3333 C 0.88152 0.98353 0.59767 0.0
C3334 C 0.89507 0.9603 0.61256 0.0
C3335 C 0.90032 0.95319 0.59711 0.0
C3336 C 0.89629 0.96159 0.58194 0.0
C3337 C 0.88703 0.97663 0.58223 0.0
C3338 C 0.93111 0.91842 0.58482 0.0
C3339 C 0.92617 0.90527 0.59572 0.0
C3340 C 0.92287 0.93406 0.58537 0.0
C3341 C 0.90949 0.93681 0.5968 0.0
C3342 C 0.90466 0.92366 0.60775 0.0
C3343 C 0.91294 0.90808 0.60726 0.0
H3344 H 0.41946 0.00997 0.11219 0.0
H3345 H 0.36498 0.00896 0.10796 0.0
H3346 H 0.42021 0.03665 0.09674 0.0
H3347 H 0.36568 0.03552 0.09226 0.0
H3348 H 0.3729 0.09244 0.08332 0.0
H3349 H 0.37151 0.06498 0.0971 0.0
H3350 H 0.41553 0.04861 0.069 0.0
H3351 H 0.41722 0.07635 0.05555 0.0
C3352 C 0.40766 0.01539 0.1078 0.0
C3353 C 0.39216 0.00743 0.11131 0.0
C3354 C 0.40808 0.03063 0.09889 0.0
C3355 C 0.393 0.03819 0.09323 0.0
C3356 C 0.3775 0.03016 0.09667 0.0
C3357 C 0.37708 0.01496 0.10567 0.0
C3358 C 0.38222 0.08296 0.07998 0.0
C3359 C 0.39521 0.08658 0.06841 0.0
C3360 C 0.38136 0.06717 0.08782 0.0
C3361 C 0.39344 0.05463 0.08419 0.0
C3362 C 0.40619 0.05811 0.07227 0.0
C3363 C 0.40709 0.07395 0.06447 0.0
H3364 H 0.41473 0.92076 0.93681 0.0
H3365 H 0.37242 0.90378 0.90655 0.0
H3366 H 0.41347 0.94834 0.92303 0.0
H3367 H 0.37151 0.93111 0.89242 0.0
H3368 H 0.4202 0.98634 0.87987 0.0
H3369 H 0.41997 0.95982 0.89559 0.0
H3370 H 0.36525 0.96063 0.89602 0.0
H3371 H 0.36556 0.98703 0.88002 0.0
C3372 C 0.40512 0.92294 0.92728 0.0
C3373 C 0.39372 0.91009 0.92272 0.0
C3374 C 0.40448 0.93869 0.91929 0.0
C3375 C 0.39249 0.94187 0.90651 0.0
C3376 C 0.38079 0.92915 0.90233 0.0
C3377 C 0.38136 0.91345 0.91038 0.0
C3378 C 0.40814 0.98088 0.88342 0.0
C3379 C 0.3929 0.98872 0.87871 0.0
C3380 C 0.40799 0.96573 0.89248 0.0
C3381 C 0.39258 0.95815 0.89715 0.0
C3382 C 0.37733 0.96602 0.89244 0.0
C3383 C 0.37749 0.98113 0.88326 0.0
H3384 H 0.00821 0.36638 0.88856 0.0
H3385 H 0.00982 0.4209 0.88492 0.0
H3386 H 0.03488 0.36661 0.9041 0.0
H3387 H 0.03656 0.42117 0.90027 0.0
H3388 H 0.09234 0.37337 0.91052 0.0
H3389 H 0.06425 0.37229 0.89808 0.0
H3390 H 0.0494 0.41586 0.92768 0.0
H3391 H 0.07777 0.41722 0.93985 0.0
C3392 C 0.01432 0.3784 0.891 0.0
C3393 C 0.00698 0.39361 0.88546 0.0
C3394 C 0.02957 0.37855 0.89991 0.0
C3395 C 0.03785 0.39391 0.90339 0.0
C3396 C 0.03037 0.40914 0.89805 0.0
C3397 C 0.01508 0.40899 0.88921 0.0
C3398 C 0.08306 0.38265 0.9145 0.0
C3399 C 0.0873 0.39544 0.9261 0.0
C3400 C 0.06691 0.38196 0.90743 0.0
C3401 C 0.0546 0.39402 0.91185 0.0
C3402 C 0.05869 0.40653 0.92384 0.0
C3403 C 0.07489 0.40724 0.93089 0.0
H3404 H 0.62926 0.01229 0.88783 0.0
H3405 H 0.5749 0.01528 0.88303 0.0
H3406 H 0.62913 0.03774 0.90531 0.0
H3407 H 0.57473 0.04085 0.90024 0.0
H3408 H 0.57782 0.07851 0.94289 0.0
H3409 H 0.57929 0.0512 0.92856 0.0
H3410 H 0.6243 0.06757 0.90207 0.0
H3411 H 0.62313 0.09458 0.91674 0.0
C3412 C 0.61731 0.01847 0.89041 0.0
C3413 C 0.6021 0.01184 0.88405 0.0
C3414 C 0.61722 0.03303 0.90044 0.0
C3415 C 0.60192 0.04131 0.90419 0.0
C3416 C 0.5867 0.0346 0.89787 0.0
C3417 C 0.58679 0.01999 0.88795 0.0
C3418 C 0.58814 0.07618 0.93416 0.0
C3419 C 0.60031 0.08871 0.93088 0.0
C3420 C 0.58892 0.06059 0.92586 0.0
C3421 C 0.60184 0.05727 0.91407 0.0
C3422 C 0.61429 0.06963 0.91122 0.0
C3423 C 0.61356 0.08517 0.91957 0.0
H3424 H 0.91392 0.57391 0.93698 0.0
H3425 H 0.90449 0.62653 0.92527 0.0
H3426 H 0.94119 0.57563 0.92265 0.0
H3427 H 0.93189 0.62833 0.91126 0.0
H3428 H 0.96992 0.61772 0.86855 0.0
H3429 H 0.94397 0.61728 0.88515 0.0
H3430 H 0.96931 0.58839 0.92409 0.0
H3431 H 0.99527 0.58881 0.90744 0.0
C3432 C 0.91778 0.58591 0.93159 0.0
C3433 C 0.90703 0.60006 0.93215 0.0
C3434 C 0.93343 0.58691 0.92343 0.0
C3435 C 0.93862 0.60208 0.91572 0.0
C3436 C 0.9281 0.61638 0.91682 0.0
C3437 C 0.91245 0.61537 0.92493 0.0
C3438 C 0.97001 0.61145 0.88073 0.0
C3439 C 0.98463 0.60325 0.88664 0.0
C3440 C 0.95515 0.61121 0.89027 0.0
C3441 C 0.9546 0.60281 0.90594 0.0
C3442 C 0.96928 0.59476 0.91195 0.0
C3443 C 0.98414 0.59498 0.90239 0.0
H3444 H 0.62819 0.98479 0.10278 0.0
H3445 H 0.57402 0.98055 0.10854 0.0
H3446 H 0.62821 0.95998 0.08439 0.0
H3447 H 0.57399 0.95558 0.09048 0.0
H3448 H 0.62291 0.90306 0.07231 0.0
H3449 H 0.62421 0.93009 0.08688 0.0
H3450 H 0.57804 0.94575 0.06202 0.0
H3451 H 0.57644 0.91838 0.04783 0.0
C3452 C 0.61631 0.97846 0.1002 0.0
C3453 C 0.60111 0.98453 0.10713 0.0
C3454 C 0.6163 0.96428 0.08965 0.0
C3455 C 0.6011 0.9558 0.08594 0.0
C3456 C 0.58589 0.962 0.09279 0.0
C3457 C 0.58589 0.97625 0.10321 0.0
C3458 C 0.61314 0.91234 0.06978 0.0
C3459 C 0.59948 0.90853 0.05906 0.0
C3460 C 0.61394 0.92789 0.07807 0.0
C3461 C 0.60115 0.94004 0.07573 0.0
C3462 C 0.58792 0.93653 0.06435 0.0
C3463 C 0.58706 0.92091 0.05612 0.0
H3464 H 0.09775 0.61992 0.08415 0.0
H3465 H 0.07896 0.5784 0.05386 0.0
H3466 H 0.07069 0.62155 0.09876 0.0
H3467 H 0.05169 0.58037 0.06813 0.0
H3468 H 0.01469 0.57404 0.11219 0.0
H3469 H 0.04079 0.57385 0.09581 0.0
H3470 H 0.04119 0.62857 0.09587 0.0
H3471 H 0.01517 0.62869 0.11251 0.0
C3472 C 0.08775 0.61132 0.08042 0.0
C3473 C 0.09052 0.59895 0.06795 0.0
C3474 C 0.0722 0.61231 0.08875 0.0
C3475 C 0.05907 0.601 0.08471 0.0
C3476 C 0.06166 0.58905 0.07177 0.0
C3477 C 0.07724 0.588 0.06351 0.0
C3478 C 0.02031 0.58602 0.1086 0.0
C3479 C 0.01292 0.60138 0.11363 0.0
C3480 C 0.03522 0.58592 0.09916 0.0
C3481 C 0.04302 0.6012 0.09444 0.0
C3482 C 0.03561 0.61658 0.09947 0.0
C3483 C 0.02073 0.61666 0.10902 0.0
H3484 H 0.99711 0.38023 0.0812 0.0
H3485 H 0.98008 0.40814 0.12497 0.0
H3486 H 0.96865 0.38191 0.069 0.0
H3487 H 0.9515 0.4096 0.11288 0.0
H3488 H 0.90044 0.38588 0.09344 0.0
H3489 H 0.9291 0.38506 0.10499 0.0
H3490 H 0.94832 0.4078 0.05918 0.0
H3491 H 0.9195 0.40899 0.04765 0.0
C3492 C 0.98722 0.38661 0.08823 0.0
C3493 C 0.99066 0.39397 0.10404 0.0
C3494 C 0.97105 0.38769 0.0812 0.0
C3495 C 0.95801 0.39586 0.09005 0.0
C3496 C 0.96141 0.40319 0.10589 0.0
C3497 C 0.97768 0.40241 0.11275 0.0
C3498 C 0.91077 0.39064 0.08579 0.0
C3499 C 0.9078 0.39746 0.06964 0.0
C3500 C 0.92711 0.39027 0.09245 0.0
C3501 C 0.94078 0.39641 0.08295 0.0
C3502 C 0.9379 0.40297 0.06668 0.0
C3503 C 0.92148 0.40366 0.06014 0.0
H3504 H 0.55586 0.91581 0.57756 0.0
H3505 H 0.58492 0.87277 0.59484 0.0
H3506 H 0.56966 0.91404 0.55002 0.0
H3507 H 0.59902 0.8713 0.56748 0.0
H3508 H 0.61089 0.86473 0.51142 0.0
H3509 H 0.5948 0.86501 0.53779 0.0
H3510 H 0.59758 0.91965 0.53881 0.0
H3511 H 0.61347 0.91932 0.51242 0.0
C3512 C 0.56514 0.90593 0.57546 0.0
C3513 C 0.56936 0.89447 0.58838 0.0
C3514 C 0.57312 0.90499 0.55973 0.0
C3515 C 0.58553 0.89261 0.55662 0.0
C3516 C 0.5894 0.88087 0.56941 0.0
C3517 C 0.58137 0.88177 0.58512 0.0
C3518 C 0.60812 0.87677 0.51734 0.0
C3519 C 0.61341 0.892 0.50986 0.0
C3520 C 0.5989 0.87694 0.53242 0.0
C3521 C 0.59486 0.89235 0.54035 0.0
C3522 C 0.60019 0.90758 0.53285 0.0
C3523 C 0.60933 0.9074 0.51775 0.0
H3524 H 0.12771 0.6009 0.51181 0.0
H3525 H 0.0735 0.60732 0.51457 0.0
H3526 H 0.12712 0.58457 0.53801 0.0
H3527 H 0.07287 0.5912 0.54082 0.0
H3528 H 0.12078 0.5761 0.59539 0.0
H3529 H 0.12223 0.58959 0.56776 0.0
H3530 H 0.07687 0.56313 0.55241 0.0
H3531 H 0.07515 0.54996 0.58027 0.0
C3532 C 0.11569 0.59889 0.51807 0.0
C3533 C 0.10066 0.60541 0.51117 0.0
C3534 C 0.11534 0.58954 0.53306 0.0
C3535 C 0.09995 0.58659 0.5415 0.0
C3536 C 0.0849 0.59297 0.53448 0.0
C3537 C 0.08525 0.60225 0.51946 0.0
C3538 C 0.11119 0.57305 0.58608 0.0
C3539 C 0.09779 0.56206 0.59004 0.0
C3540 C 0.11208 0.58071 0.5702 0.0
C3541 C 0.09962 0.57749 0.55791 0.0
C3542 C 0.0865 0.56608 0.5617 0.0
C3543 C 0.08558 0.55845 0.57762 0.0
H3544 H 0.43795 0.07508 0.57554 0.0
H3545 H 0.40718 0.1169 0.59285 0.0
H3546 H 0.42428 0.07656 0.54786 0.0
H3547 H 0.39329 0.11809 0.56543 0.0
H3548 H 0.38262 0.12582 0.50947 0.0
H3549 H 0.39829 0.12522 0.53606 0.0
H3550 H 0.39662 0.07054 0.53576 0.0
H3551 H 0.3811 0.07118 0.50914 0.0
C3552 C 0.42831 0.0846 0.57343 0.0
C3553 C 0.42363 0.09586 0.58637 0.0
C3554 C 0.42041 0.08538 0.55762 0.0
C3555 C 0.40768 0.09742 0.55448 0.0
C3556 C 0.40321 0.10883 0.56737 0.0
C3557 C 0.41111 0.10807 0.58313 0.0
C3558 C 0.38553 0.1137 0.51514 0.0
C3559 C 0.38063 0.09856 0.50723 0.0
C3560 C 0.39452 0.11334 0.53036 0.0
C3561 C 0.39871 0.09783 0.538 0.0
C3562 C 0.39385 0.08269 0.53004 0.0
C3563 C 0.38493 0.08305 0.51481 0.0
H3564 H 0.86352 0.38364 0.50737 0.0
H3565 H 0.91808 0.38158 0.50926 0.0
H3566 H 0.86321 0.40035 0.53333 0.0
H3567 H 0.91785 0.39798 0.53537 0.0
H3568 H 0.91353 0.43958 0.57398 0.0
H3569 H 0.91221 0.42573 0.54642 0.0
H3570 H 0.86858 0.39713 0.56295 0.0
H3571 H 0.86956 0.41135 0.5902 0.0
C3572 C 0.87542 0.38661 0.51346 0.0
C3573 C 0.89082 0.3813 0.50633 0.0
C3574 C 0.87527 0.39621 0.5283 0.0
C3575 C 0.89051 0.40056 0.5364 0.0
C3576 C 0.9059 0.39517 0.52927 0.0
C3577 C 0.90605 0.3857 0.51437 0.0
C3578 C 0.90352 0.43051 0.57162 0.0
C3579 C 0.8917 0.4265 0.58428 0.0
C3580 C 0.90285 0.42247 0.55589 0.0
C3581 C 0.8904 0.41019 0.55254 0.0
C3582 C 0.87823 0.40664 0.56502 0.0
C3583 C 0.87884 0.41475 0.5807 0.0
H3584 H 0.56329 0.12749 0.41054 0.0
H3585 H 0.5552 0.07392 0.41827 0.0
H3586 H 0.57653 0.12948 0.43834 0.0
H3587 H 0.56876 0.07586 0.44588 0.0
H3588 H 0.5851 0.08713 0.49981 0.0
H3589 H 0.56732 0.08729 0.47456 0.0
H3590 H 0.60352 0.11966 0.44939 0.0
H3591 H 0.62121 0.1195 0.47455 0.0
C3592 C 0.56418 0.11618 0.41824 0.0
C3593 C 0.55836 0.10052 0.41215 0.0
C3594 C 0.57184 0.1173 0.43412 0.0
C3595 C 0.57388 0.10279 0.4442 0.0
C3596 C 0.56727 0.0873 0.43848 0.0
C3597 C 0.55955 0.08618 0.42262 0.0
C3598 C 0.58927 0.09423 0.48887 0.0
C3599 C 0.60461 0.10325 0.48917 0.0
C3600 C 0.57906 0.09436 0.47443 0.0
C3601 C 0.58399 0.10352 0.46 0.0
C3602 C 0.59919 0.11275 0.46041 0.0
C3603 C 0.60937 0.11263 0.47483 0.0
H3604 H 0.92567 0.56862 0.41312 0.0
H3605 H 0.87141 0.56274 0.41622 0.0
H3606 H 0.9256 0.58367 0.44002 0.0
H3607 H 0.87135 0.57706 0.44351 0.0
H3608 H 0.8739 0.62168 0.4793 0.0
H3609 H 0.87455 0.60488 0.45369 0.0
H3610 H 0.9218 0.58231 0.46957 0.0
H3611 H 0.92183 0.60001 0.49459 0.0
C3612 C 0.91378 0.57019 0.41978 0.0
C3613 C 0.89853 0.56463 0.41258 0.0
C3614 C 0.91373 0.57879 0.43523 0.0
C3615 C 0.89844 0.58177 0.44388 0.0
C3616 C 0.8833 0.57539 0.437 0.0
C3617 C 0.88334 0.56705 0.42144 0.0
C3618 C 0.88456 0.61333 0.47732 0.0
C3619 C 0.89779 0.6123 0.48918 0.0
C3620 C 0.88479 0.60344 0.46269 0.0
C3621 C 0.89815 0.59209 0.4596 0.0
C3622 C 0.91137 0.591 0.47145 0.0
C3623 C 0.91125 0.60105 0.48598 0.0
H3624 H 0.44461 0.91502 0.41886 0.0
H3625 H 0.41859 0.86924 0.40401 0.0
H3626 H 0.43104 0.91369 0.44657 0.0
H3627 H 0.40462 0.86824 0.43137 0.0
H3628 H 0.38615 0.91823 0.48337 0.0
H3629 H 0.40317 0.91822 0.45767 0.0
H3630 H 0.40807 0.8638 0.46102 0.0
H3631 H 0.39068 0.86388 0.48655 0.0
C3632 C 0.43609 0.90462 0.42155 0.0
C3633 C 0.4326 0.89228 0.40924 0.0
C3634 C 0.42821 0.90393 0.43737 0.0
C3635 C 0.41663 0.89094 0.44114 0.0
C3636 C 0.41362 0.8783 0.42899 0.0
C3637 C 0.42157 0.87893 0.41324 0.0
C3638 C 0.391 0.90631 0.47867 0.0
C3639 C 0.38703 0.89105 0.48688 0.0
C3640 C 0.40082 0.90629 0.46399 0.0
C3641 C 0.40702 0.89101 0.45729 0.0
C3642 C 0.40328 0.87577 0.4657 0.0
C3643 C 0.39331 0.87579 0.4803 0.0
H3644 H 0.07427 0.3848 0.47783 0.0
H3645 H 0.12833 0.39133 0.48214 0.0
H3646 H 0.07404 0.40269 0.45273 0.0
H3647 H 0.12815 0.40959 0.45723 0.0
H3648 H 0.12297 0.42174 0.40037 0.0
H3649 H 0.12439 0.40723 0.42742 0.0
H3650 H 0.07755 0.43105 0.4427 0.0
H3651 H 0.07582 0.44514 0.41528 0.0
C3652 C 0.08607 0.39026 0.4735 0.0
C3653 C 0.10133 0.38661 0.48185 0.0
C3654 C 0.08595 0.40059 0.45918 0.0
C3655 C 0.10107 0.40764 0.45298 0.0
C3656 C 0.11631 0.40417 0.46151 0.0
C3657 C 0.11644 0.3937 0.47576 0.0
C3658 C 0.11308 0.42407 0.40957 0.0
C3659 C 0.0992 0.43446 0.40563 0.0
C3660 C 0.11394 0.4158 0.42515 0.0
C3661 C 0.101 0.41784 0.43719 0.0
C3662 C 0.08755 0.42893 0.43356 0.0
C3663 C 0.08663 0.43712 0.41792 0.0
H3664 H 0.57734 0.55857 0.92202 0.0
H3665 H 0.58535 0.56831 0.86876 0.0
H3666 H 0.54983 0.57241 0.92039 0.0
H3667 H 0.55768 0.58183 0.86707 0.0
H3668 H 0.52128 0.62605 0.87802 0.0
H3669 H 0.54661 0.60857 0.87774 0.0
H3670 H 0.52124 0.57119 0.90858 0.0
H3671 H 0.49584 0.58874 0.90886 0.0
C3672 C 0.57308 0.56336 0.90989 0.0
C3673 C 0.58357 0.56252 0.89555 0.0
C3674 C 0.55729 0.57123 0.90895 0.0
C3675 C 0.55169 0.57837 0.89364 0.0
C3676 C 0.56182 0.57673 0.87912 0.0
C3677 C 0.57762 0.56891 0.88006 0.0
C3678 C 0.52101 0.61401 0.88455 0.0
C3679 C 0.50657 0.60883 0.89352 0.0
C3680 C 0.53552 0.60396 0.88436 0.0
C3681 C 0.5359 0.58847 0.89311 0.0
C3682 C 0.52138 0.58316 0.90189 0.0
C3683 C 0.50686 0.59324 0.90209 0.0
H3684 H 0.38785 0.51458 0.86357 0.0
H3685 H 0.38285 0.5137 0.918 0.0
H3686 H 0.40281 0.54153 0.86538 0.0
H3687 H 0.39759 0.54068 0.91985 0.0
H3688 H 0.41079 0.59838 0.8749 0.0
H3689 H 0.39735 0.5708 0.87231 0.0
H3690 H 0.42527 0.55309 0.91592 0.0
H3691 H 0.43838 0.58087 0.9188 0.0
C3692 C 0.38982 0.52022 0.8759 0.0
C3693 C 0.38421 0.51203 0.89064 0.0
C3694 C 0.3984 0.53564 0.87695 0.0
C3695 C 0.40144 0.54321 0.89277 0.0
C3696 C 0.39576 0.53502 0.9075 0.0
C3697 C 0.38727 0.51958 0.90644 0.0
C3698 C 0.41414 0.58858 0.88389 0.0
C3699 C 0.42558 0.59182 0.8971 0.0
C3700 C 0.4065 0.57274 0.88234 0.0
C3701 C 0.4102 0.55977 0.89394 0.0
C3702 C 0.42195 0.56291 0.90694 0.0
C3703 C 0.42955 0.57878 0.90852 0.0
H3704 H 0.48643 0.38805 0.86372 0.0
H3705 H 0.48348 0.38435 0.91816 0.0
H3706 H 0.46058 0.40491 0.86343 0.0
H3707 H 0.45746 0.40091 0.91793 0.0
H3708 H 0.41872 0.44261 0.9138 0.0
H3709 H 0.4463 0.42876 0.91285 0.0
H3710 H 0.43091 0.4013 0.86809 0.0
H3711 H 0.40365 0.4155 0.86872 0.0
C3712 C 0.48015 0.39072 0.8756 0.0
C3713 C 0.48691 0.38485 0.89096 0.0
C3714 C 0.46536 0.40039 0.87545 0.0
C3715 C 0.45695 0.40427 0.89066 0.0
C3716 C 0.46379 0.39844 0.90602 0.0
C3717 C 0.47864 0.38888 0.90617 0.0
C3718 C 0.42133 0.43378 0.90364 0.0
C3719 C 0.409 0.43011 0.89137 0.0
C3720 C 0.43708 0.42575 0.90317 0.0
C3721 C 0.44077 0.41382 0.89047 0.0
C3722 C 0.42858 0.41056 0.87793 0.0
C3723 C 0.4129 0.41865 0.87834 0.0
H3724 H 0.58185 0.4023 0.87176 0.0
H3725 H 0.55369 0.41759 0.91613 0.0
H3726 H 0.59562 0.42978 0.87098 0.0
H3727 H 0.5671 0.44537 0.91502 0.0
H3728 H 0.6107 0.48328 0.92071 0.0
H3729 H 0.59471 0.45692 0.92047 0.0
H3730 H 0.59163 0.45936 0.86587 0.0
H3731 H 0.60793 0.48557 0.86618 0.0
C3732 C 0.57838 0.41164 0.88119 0.0
C3733 C 0.56677 0.40775 0.89408 0.0
C3734 C 0.58623 0.42744 0.88069 0.0
C3735 C 0.58254 0.43974 0.893 0.0
C3736 C 0.57045 0.43605 0.90553 0.0
C3737 C 0.56266 0.42019 0.90609 0.0
C3738 C 0.6065 0.47821 0.90869 0.0
C3739 C 0.6106 0.48641 0.89346 0.0
C3740 C 0.59727 0.46316 0.90853 0.0
C3741 C 0.59183 0.45605 0.89315 0.0
C3742 C 0.59584 0.46436 0.87792 0.0
C3743 C 0.60519 0.47935 0.87808 0.0
H3744 H 0.59629 0.40997 0.12082 0.0
H3745 H 0.57875 0.4378 0.07707 0.0
H3746 H 0.56945 0.39496 0.12207 0.0
H3747 H 0.55167 0.42311 0.07864 0.0
H3748 H 0.51463 0.37914 0.07379 0.0
H3749 H 0.54109 0.39493 0.07343 0.0
H3750 H 0.53971 0.39839 0.12804 0.0
H3751 H 0.5133 0.38234 0.12833 0.0
C3752 C 0.58661 0.41305 0.1116 0.0
C3753 C 0.58966 0.42501 0.09879 0.0
C3754 C 0.57119 0.40449 0.11237 0.0
C3755 C 0.55846 0.40777 0.1004 0.0
C3756 C 0.56134 0.42008 0.08787 0.0
C3757 C 0.5768 0.42859 0.08705 0.0
C3758 C 0.51996 0.38334 0.0857 0.0
C3759 C 0.51191 0.37956 0.10109 0.0
C3760 C 0.53507 0.39244 0.0855 0.0
C3761 C 0.54242 0.39804 0.1007 0.0
C3762 C 0.53445 0.3941 0.11612 0.0
C3763 C 0.51936 0.38489 0.11631 0.0
H3764 H 0.55105 0.57671 0.07952 0.0
H3765 H 0.5762 0.59049 0.12613 0.0
H3766 H 0.56425 0.54882 0.08069 0.0
H3767 H 0.58975 0.5629 0.12702 0.0
H3768 H 0.60221 0.50718 0.13076 0.0
H3769 H 0.58539 0.53307 0.13082 0.0
H3770 H 0.59233 0.53758 0.07672 0.0
H3771 H 0.60888 0.51158 0.0767 0.0
C3772 C 0.5593 0.57375 0.09007 0.0
C3773 C 0.56265 0.58582 0.10269 0.0
C3774 C 0.56696 0.55782 0.09067 0.0
C3775 C 0.57817 0.55369 0.10387 0.0
C3776 C 0.58104 0.56559 0.11678 0.0
C3777 C 0.57333 0.58146 0.11621 0.0
C3778 C 0.60016 0.51375 0.11892 0.0
C3779 C 0.60689 0.5074 0.10374 0.0
C3780 C 0.59052 0.52857 0.11894 0.0
C3781 C 0.58751 0.5374 0.10378 0.0
C3782 C 0.59413 0.53093 0.08857 0.0
C3783 C 0.60367 0.51607 0.08855 0.0
H3784 H 0.39593 0.58415 0.11878 0.0
H3785 H 0.41381 0.55636 0.07514 0.0
H3786 H 0.42318 0.59836 0.1209 0.0
H3787 H 0.44123 0.57026 0.07755 0.0
H3788 H 0.48019 0.613 0.07506 0.0
H3789 H 0.45323 0.59815 0.07333 0.0
H3790 H 0.45255 0.59315 0.12782 0.0
H3791 H 0.47944 0.60818 0.12951 0.0
C3792 C 0.40574 0.58095 0.10974 0.0
C3793 C 0.40272 0.56917 0.09677 0.0
C3794 C 0.42138 0.58903 0.11101 0.0
C3795 C 0.43435 0.58546 0.09938 0.0
C3796 C 0.43141 0.57347 0.08656 0.0
C3797 C 0.41574 0.56543 0.08525 0.0
C3798 C 0.47433 0.60862 0.08664 0.0
C3799 C 0.48191 0.61174 0.10242 0.0
C3800 C 0.45891 0.60008 0.08566 0.0
C3801 C 0.45078 0.59442 0.10044 0.0
C3802 C 0.45838 0.59756 0.11622 0.0
C3803 C 0.47377 0.60617 0.1172 0.0
H3804 H 0.44637 0.41797 0.0754 0.0
H3805 H 0.42285 0.40538 0.12318 0.0
H3806 H 0.43385 0.44618 0.07673 0.0
H3807 H 0.40994 0.43323 0.12423 0.0
H3808 H 0.39586 0.48806 0.12715 0.0
H3809 H 0.41395 0.46303 0.12716 0.0
H3810 H 0.40571 0.45721 0.07336 0.0
H3811 H 0.38796 0.48241 0.07338 0.0
C3812 C 0.43868 0.42128 0.08626 0.0
C3813 C 0.43546 0.40942 0.0991 0.0
C3814 C 0.43142 0.43739 0.08696 0.0
C3815 C 0.42075 0.44189 0.10049 0.0
C3816 C 0.41823 0.43026 0.11371 0.0
C3817 C 0.42555 0.41423 0.11305 0.0
C3818 C 0.39795 0.4814 0.11536 0.0
C3819 C 0.39042 0.48707 0.10029 0.0
C3820 C 0.40832 0.4671 0.11534 0.0
C3821 C 0.41124 0.45808 0.10027 0.0
C3822 C 0.40398 0.46401 0.08513 0.0
C3823 C 0.39374 0.4784 0.08514 0.0
H3824 H 0.91805 0.57859 0.56012 0.0
H3825 H 0.86662 0.58957 0.57527 0.0
H3826 H 0.91588 0.55067 0.57293 0.0
H3827 H 0.86434 0.56144 0.58778 0.0
H3828 H 0.87632 0.521 0.62823 0.0
H3829 H 0.87623 0.54755 0.61258 0.0
H3830 H 0.90224 0.52319 0.57107 0.0
H3831 H 0.90238 0.49665 0.58679 0.0
C3832 C 0.90617 0.57493 0.56592 0.0
C3833 C 0.89254 0.58633 0.5668 0.0
C3834 C 0.90491 0.55889 0.57321 0.0
C3835 C 0.88998 0.55389 0.58149 0.0
C3836 C 0.87611 0.56504 0.58175 0.0
C3837 C 0.87738 0.58111 0.57448 0.0
C3838 C 0.88183 0.52126 0.61569 0.0
C3839 C 0.88945 0.50674 0.60881 0.0
C3840 C 0.88175 0.53646 0.60669 0.0
C3841 C 0.88923 0.53747 0.59057 0.0
C3842 C 0.89659 0.52288 0.58356 0.0
C3843 C 0.89671 0.50768 0.59259 0.0
H3844 H 0.86302 0.48866 0.39385 0.0
H3845 H 0.9169 0.48436 0.3858 0.0
H3846 H 0.86327 0.46218 0.40974 0.0
H3847 H 0.91718 0.45783 0.40144 0.0
H3848 H 0.91544 0.4173 0.44115 0.0
H3849 H 0.91375 0.44575 0.42931 0.0
H3850 H 0.86703 0.43246 0.40411 0.0
H3851 H 0.86845 0.40426 0.41631 0.0
C3852 C 0.87488 0.48199 0.39539 0.0
C3853 C 0.88993 0.48854 0.38856 0.0
C3854 C 0.87504 0.46685 0.40451 0.0
C3855 C 0.89025 0.45791 0.40689 0.0
C3856 C 0.90531 0.46456 0.40014 0.0
C3857 C 0.90515 0.47973 0.39112 0.0
C3858 C 0.90469 0.42055 0.43328 0.0
C3859 C 0.89214 0.40851 0.42956 0.0
C3860 C 0.90378 0.4368 0.4264 0.0
C3861 C 0.89035 0.44131 0.41563 0.0
C3862 C 0.87746 0.42946 0.41249 0.0
C3863 C 0.87833 0.41325 0.41941 0.0
H3864 H 0.51423 0.86411 0.38842 0.0
H3865 H 0.51523 0.91861 0.38433 0.0
H3866 H 0.54073 0.86477 0.40419 0.0
H3867 H 0.54184 0.91931 0.39991 0.0
H3868 H 0.58154 0.91615 0.44103 0.0
H3869 H 0.55376 0.91438 0.42771 0.0
H3870 H 0.57025 0.87071 0.39916 0.0
H3871 H 0.59782 0.87218 0.41278 0.0
C3872 C 0.5202 0.87621 0.39077 0.0
C3873 C 0.5127 0.89131 0.3851 0.0
C3874 C 0.53536 0.8766 0.39981 0.0
C3875 C 0.54339 0.89208 0.4033 0.0
C3876 C 0.53583 0.90719 0.39769 0.0
C3877 C 0.52062 0.9068 0.38872 0.0
C3878 C 0.57916 0.90606 0.43204 0.0
C3879 C 0.59187 0.89433 0.42791 0.0
C3880 C 0.5633 0.90513 0.42433 0.0
C3881 C 0.55984 0.89248 0.4123 0.0
C3882 C 0.57244 0.8805 0.40851 0.0
C3883 C 0.58827 0.88139 0.41627 0.0
H3884 H 0.10717 0.52849 0.36017 0.0
H3885 H 0.08471 0.50134 0.40198 0.0
H3886 H 0.10737 0.5543 0.37707 0.0
H3887 H 0.08494 0.5271 0.41889 0.0
H3888 H 0.07079 0.5811 0.43587 0.0
H3889 H 0.07112 0.5547 0.41993 0.0
H3890 H 0.12145 0.5662 0.40186 0.0
H3891 H 0.12101 0.59277 0.41752 0.0
C3892 C 0.10239 0.52801 0.373 0.0
C3893 C 0.09589 0.51289 0.3797 0.0
C3894 C 0.10253 0.54277 0.38269 0.0
C3895 C 0.09621 0.54271 0.39933 0.0
C3896 C 0.08968 0.5276 0.40603 0.0
C3897 C 0.08952 0.51284 0.39632 0.0
C3898 C 0.08199 0.57792 0.42862 0.0
C3899 C 0.09586 0.58903 0.42791 0.0
C3900 C 0.08219 0.56278 0.41953 0.0
C3901 C 0.09628 0.55843 0.40957 0.0
C3902 C 0.1103 0.56935 0.40919 0.0
C3903 C 0.11009 0.58451 0.41826 0.0
H3904 H 0.46828 0.11226 0.36437 0.0
H3905 H 0.49351 0.08839 0.40661 0.0
H3906 H 0.44177 0.11211 0.38015 0.0
H3907 H 0.46703 0.08825 0.4224 0.0
H3908 H 0.41217 0.07189 0.43471 0.0
H3909 H 0.43973 0.07384 0.42104 0.0
H3910 H 0.42818 0.12481 0.40488 0.0
H3911 H 0.40046 0.12277 0.41827 0.0
C3912 C 0.4682 0.10715 0.37709 0.0
C3913 C 0.48295 0.10024 0.38419 0.0
C3914 C 0.45304 0.10709 0.38614 0.0
C3915 C 0.45233 0.10016 0.40252 0.0
C3916 C 0.46713 0.09345 0.40971 0.0
C3917 C 0.48228 0.09349 0.40065 0.0
C3918 C 0.41559 0.08358 0.42841 0.0
C3919 C 0.40412 0.09715 0.42748 0.0
C3920 C 0.4314 0.08472 0.42063 0.0
C3921 C 0.43607 0.09944 0.4118 0.0
C3922 C 0.42481 0.1132 0.41136 0.0
C3923 C 0.40899 0.11206 0.41912 0.0
H3924 H 0.08593 0.49341 0.58819 0.0
H3925 H 0.11515 0.4665 0.62578 0.0
H3926 H 0.08563 0.46823 0.57037 0.0
H3927 H 0.11487 0.44135 0.60798 0.0
H3928 H 0.12439 0.40385 0.56628 0.0
H3929 H 0.12602 0.43079 0.58116 0.0
H3930 H 0.07309 0.43981 0.5707 0.0
H3931 H 0.07151 0.41297 0.55552 0.0
C3932 C 0.0922 0.4821 0.59271 0.0
C3933 C 0.10052 0.48193 0.60845 0.0
C3934 C 0.09205 0.46769 0.58247 0.0
C3935 C 0.10025 0.45284 0.58776 0.0
C3936 C 0.10869 0.45271 0.60342 0.0
C3937 C 0.10884 0.46711 0.61364 0.0
C3938 C 0.11314 0.41167 0.56699 0.0
C3939 C 0.09779 0.40625 0.55984 0.0
C3940 C 0.11406 0.42705 0.57559 0.0
C3941 C 0.09964 0.43731 0.57726 0.0
C3942 C 0.08445 0.43222 0.56952 0.0
C3943 C 0.08354 0.41683 0.56086 0.0
H3944 H 0.51856 0.08415 0.62695 0.0
H3945 H 0.5059 0.12254 0.59022 0.0
H3946 H 0.54738 0.08263 0.61542 0.0
H3947 H 0.53458 0.12078 0.57847 0.0
H3948 H 0.57945 0.09091 0.55139 0.0
H3949 H 0.55111 0.09393 0.5636 0.0
H3950 H 0.57318 0.10601 0.61209 0.0
H3951 H 0.60156 0.10343 0.59984 0.0
C3952 C 0.522 0.09223 0.61643 0.0
C3953 C 0.51014 0.10348 0.60946 0.0
C3954 C 0.53841 0.09143 0.60992 0.0
C3955 C 0.54305 0.10159 0.5961 0.0
C3956 C 0.5312 0.11283 0.58912 0.0
C3957 C 0.51491 0.1139 0.59588 0.0
C3958 C 0.57823 0.09428 0.56464 0.0
C3959 C 0.59264 0.09699 0.57469 0.0
C3960 C 0.56208 0.09606 0.57156 0.0
C3961 C 0.56011 0.10019 0.58873 0.0
C3962 C 0.57448 0.10278 0.59882 0.0
C3963 C 0.59064 0.10139 0.5918 0.0
H3964 H 0.4851 0.86422 0.60515 0.0
H3965 H 0.48296 0.91863 0.60994 0.0
H3966 H 0.45816 0.86449 0.59006 0.0
H3967 H 0.45602 0.91893 0.59501 0.0
H3968 H 0.4158 0.91559 0.55458 0.0
H3969 H 0.44386 0.91401 0.56727 0.0
H3970 H 0.42847 0.86997 0.59585 0.0
H3971 H 0.40055 0.87129 0.58286 0.0
C3972 C 0.47882 0.87621 0.60307 0.0
C3973 C 0.48614 0.8914 0.60872 0.0
C3974 C 0.46341 0.87637 0.59443 0.0
C3975 C 0.45498 0.89173 0.59131 0.0
C3976 C 0.46235 0.90692 0.59692 0.0
C3977 C 0.47777 0.90675 0.6055 0.0
C3978 C 0.41846 0.90547 0.56345 0.0
C3979 C 0.40595 0.8936 0.56778 0.0
C3980 C 0.43449 0.90464 0.5708 0.0
C3981 C 0.43834 0.89194 0.58265 0.0
C3982 C 0.42596 0.8798 0.58663 0.0
C3983 C 0.40993 0.88061 0.57925 0.0
loop_
_geom_bond_atom_site_label_1
_geom_bond_atom_site_label_2
_geom_bond_distance
_geom_bond_site_symmetry_2
_ccdc_geom_bond_type
C0 C1 1.351 . S
C0 N3 1.368 . S
C0 H5 0.931 . S
C1 C0 1.351 . S
C1 N2 1.373 . S
C1 H29 0.930 . S
N2 C1 1.373 . S
N2 C4 1.340 . S
N3 C0 1.368 . S
N3 C4 1.321 . S
N3 Co6 2.135 . S
C4 N2 1.340 . S
C4 N3 1.321 . S
C4 H28 0.930 . S
H5 C0 0.931 . S
Co6 N3 2.135 . S
Co6 N9 2.121 . S
Co6 O14 2.055 . S
Co6 O17 2.039 . S
Co6 N20 2.140 . S
C7 O8 1.227 . S
C7 O17 1.265 . S
O8 C7 1.227 . S
N9 Co6 2.121 . S
N9 C11 1.375 . S
N9 C12 1.313 . S
C10 C11 1.338 . S
C10 N13 1.377 . S
C10 H30 0.930 . S
C11 N9 1.375 . S
C11 C10 1.338 . S
C11 H15 0.931 . S
C12 N9 1.313 . S
C12 N13 1.344 . S
C12 H16 0.930 . S
N13 C10 1.377 . S
N13 C12 1.344 . S
O14 Co6 2.055 . S
O14 C18 1.253 . S
H15 C11 0.931 . S
H16 C12 0.930 . S
O17 Co6 2.039 . S
O17 C7 1.265 . S
C18 O14 1.253 . S
C18 O19 1.227 . S
O19 C18 1.227 . S
N20 Co6 2.140 . S
N20 C23 1.346 . S
N20 C24 1.345 . S
C21 C22 1.387 . S
C21 C25 1.391 . S
C22 C21 1.387 . S
C22 C23 1.369 . S
C22 H31 0.929 . S
C23 N20 1.346 . S
C23 C22 1.369 . S
C23 H26 0.928 . S
C24 N20 1.345 . S
C24 C25 1.371 . S
C24 H27 0.931 . S
C25 C21 1.391 . S
C25 C24 1.371 . S
C25 H32 0.930 . S
H26 C23 0.928 . S
H27 C24 0.931 . S
H28 C4 0.930 . S
H29 C1 0.930 . S
H30 C10 0.930 . S
H31 C22 0.929 . S
H32 C25 0.930 . S
C33 C34 1.351 . S
C33 N36 1.368 . S
C33 H38 0.931 . S
C34 C33 1.351 . S
C34 N35 1.373 . S
C34 H62 0.930 . S
N35 C34 1.373 . S
N35 C37 1.340 . S
N36 C33 1.368 . S
N36 C37 1.321 . S
N36 Co39 2.135 . S
C37 N35 1.340 . S
C37 N36 1.321 . S
C37 H61 0.930 . S
H38 C33 0.931 . S
Co39 N36 2.135 . S
Co39 N42 2.121 . S
Co39 O47 2.055 . S
Co39 O50 2.039 . S
Co39 N53 2.140 . S
C40 O41 1.227 . S
C40 O50 1.265 . S
O41 C40 1.227 . S
N42 Co39 2.121 . S
N42 C44 1.375 . S
N42 C45 1.313 . S
C43 C44 1.338 . S
C43 N46 1.377 . S
C43 H63 0.930 . S
C44 N42 1.375 . S
C44 C43 1.338 . S
C44 H48 0.931 . S
C45 N42 1.313 . S
C45 N46 1.344 . S
C45 H49 0.930 . S
N46 C43 1.377 . S
N46 C45 1.344 . S
O47 Co39 2.055 . S
O47 C51 1.253 . S
H48 C44 0.931 . S
H49 C45 0.930 . S
O50 Co39 2.039 . S
O50 C40 1.265 . S
C51 O47 1.253 . S
C51 O52 1.227 . S
O52 C51 1.227 . S
N53 Co39 2.140 . S
N53 C56 1.346 . S
N53 C57 1.345 . S
C54 C55 1.387 . S
C54 C58 1.391 . S
C55 C54 1.387 . S
C55 C56 1.369 . S
C55 H64 0.929 . S
C56 N53 1.346 . S
C56 C55 1.369 . S
C56 H59 0.928 . S
C57 N53 1.345 . S
C57 C58 1.371 . S
C57 H60 0.931 . S
C58 C54 1.391 . S
C58 C57 1.371 . S
C58 H65 0.930 . S
H59 C56 0.928 . S
H60 C57 0.931 . S
H61 C37 0.930 . S
H62 C34 0.930 . S
H63 C43 0.930 . S
H64 C55 0.929 . S
H65 C58 0.930 . S
C66 C67 1.351 . S
C66 N69 1.368 . S
C66 H71 0.931 . S
C67 C66 1.351 . S
C67 N68 1.373 . S
C67 H95 0.930 . S
N68 C67 1.373 . S
N68 C70 1.340 . S
N69 C66 1.368 . S
N69 C70 1.321 . S
N69 Co72 2.135 . S
C70 N68 1.340 . S
C70 N69 1.321 . S
C70 H94 0.930 . S
H71 C66 0.931 . S
Co72 N69 2.135 . S
Co72 N75 2.121 . S
Co72 O80 2.055 . S
Co72 O83 2.039 . S
Co72 N86 2.140 . S
C73 O74 1.227 . S
C73 O83 1.265 . S
O74 C73 1.227 . S
N75 Co72 2.121 . S
N75 C77 1.375 . S
N75 C78 1.313 . S
C76 C77 1.338 . S
C76 N79 1.377 . S
C76 H96 0.930 . S
C77 N75 1.375 . S
C77 C76 1.338 . S
C77 H81 0.931 . S
C78 N75 1.313 . S
C78 N79 1.344 . S
C78 H82 0.930 . S
N79 C76 1.377 . S
N79 C78 1.344 . S
O80 Co72 2.055 . S
O80 C84 1.253 . S
H81 C77 0.931 . S
H82 C78 0.930 . S
O83 Co72 2.039 . S
O83 C73 1.265 . S
C84 O80 1.253 . S
C84 O85 1.227 . S
O85 C84 1.227 . S
N86 Co72 2.140 . S
N86 C89 1.346 . S
N86 C90 1.345 . S
C87 C88 1.387 . S
C87 C91 1.391 . S
C88 C87 1.387 . S
C88 C89 1.369 . S
C88 H97 0.929 . S
C89 N86 1.346 . S
C89 C88 1.369 . S
C89 H92 0.928 . S
C90 N86 1.345 . S
C90 C91 1.371 . S
C90 H93 0.931 . S
C91 C87 1.391 . S
C91 C90 1.371 . S
C91 H98 0.930 . S
H92 C89 0.928 . S
H93 C90 0.931 . S
H94 C70 0.930 . S
H95 C67 0.930 . S
H96 C76 0.930 . S
H97 C88 0.929 . S
H98 C91 0.930 . S
C99 C100 1.351 . S
C99 N102 1.368 . S
C99 H104 0.931 . S
C100 C99 1.351 . S
C100 N101 1.373 . S
C100 H128 0.930 . S
N101 C100 1.373 . S
N101 C103 1.340 . S
N102 C99 1.368 . S
N102 C103 1.321 . S
N102 Co105 2.135 . S
C103 N101 1.340 . S
C103 N102 1.321 . S
C103 H127 0.930 . S
H104 C99 0.931 . S
Co105 N102 2.135 . S
Co105 N108 2.121 . S
Co105 O113 2.055 . S
Co105 O116 2.039 . S
Co105 N119 2.140 . S
C106 O107 1.227 . S
C106 O116 1.265 . S
O107 C106 1.227 . S
N108 Co105 2.121 . S
N108 C110 1.375 . S
N108 C111 1.313 . S
C109 C110 1.338 . S
C109 N112 1.377 . S
C109 H129 0.930 . S
C110 N108 1.375 . S
C110 C109 1.338 . S
C110 H114 0.931 . S
C111 N108 1.313 . S
C111 N112 1.344 . S
C111 H115 0.930 . S
N112 C109 1.377 . S
N112 C111 1.344 . S
O113 Co105 2.055 . S
O113 C117 1.253 . S
H114 C110 0.931 . S
H115 C111 0.930 . S
O116 Co105 2.039 . S
O116 C106 1.265 . S
C117 O113 1.253 . S
C117 O118 1.227 . S
O118 C117 1.227 . S
N119 Co105 2.140 . S
N119 C122 1.346 . S
N119 C123 1.345 . S
C120 C121 1.387 . S
C120 C124 1.391 . S
C121 C120 1.387 . S
C121 C122 1.369 . S
C121 H130 0.929 . S
C122 N119 1.346 . S
C122 C121 1.369 . S
C122 H125 0.928 . S
C123 N119 1.345 . S
C123 C124 1.371 . S
C123 H126 0.931 . S
C124 C120 1.391 . S
C124 C123 1.371 . S
C124 H131 0.930 . S
H125 C122 0.928 . S
H126 C123 0.931 . S
H127 C103 0.930 . S
H128 C100 0.930 . S
H129 C109 0.930 . S
H130 C121 0.929 . S
H131 C124 0.930 . S
C132 C133 1.351 . S
C132 N135 1.368 . S
C132 H137 0.931 . S
C133 C132 1.351 . S
C133 N134 1.373 . S
C133 H161 0.930 . S
N134 C133 1.373 . S
N134 C136 1.340 . S
N135 C132 1.368 . S
N135 C136 1.321 . S
N135 Co138 2.135 . S
C136 N134 1.340 . S
C136 N135 1.321 . S
C136 H160 0.930 . S
H137 C132 0.931 . S
Co138 N135 2.135 . S
Co138 N141 2.121 . S
Co138 O146 2.055 . S
Co138 O149 2.039 . S
Co138 N152 2.140 . S
C139 O140 1.227 . S
C139 O149 1.265 . S
O140 C139 1.227 . S
N141 Co138 2.121 . S
N141 C143 1.375 . S
N141 C144 1.313 . S
C142 C143 1.338 . S
C142 N145 1.377 . S
C142 H162 0.930 . S
C143 N141 1.375 . S
C143 C142 1.338 . S
C143 H147 0.931 . S
C144 N141 1.313 . S
C144 N145 1.344 . S
C144 H148 0.930 . S
N145 C142 1.377 . S
N145 C144 1.344 . S
O146 Co138 2.055 . S
O146 C150 1.253 . S
H147 C143 0.931 . S
H148 C144 0.930 . S
O149 Co138 2.039 . S
O149 C139 1.265 . S
C150 O146 1.253 . S
C150 O151 1.227 . S
O151 C150 1.227 . S
N152 Co138 2.140 . S
N152 C155 1.346 . S
N152 C156 1.345 . S
C153 C154 1.387 . S
C153 C157 1.391 . S
C154 C153 1.387 . S
C154 C155 1.369 . S
C154 H163 0.929 . S
C155 N152 1.346 . S
C155 C154 1.369 . S
C155 H158 0.928 . S
C156 N152 1.345 . S
C156 C157 1.371 . S
C156 H159 0.931 . S
C157 C153 1.391 . S
C157 C156 1.371 . S
C157 H164 0.930 . S
H158 C155 0.928 . S
H159 C156 0.931 . S
H160 C136 0.930 . S
H161 C133 0.930 . S
H162 C142 0.930 . S
H163 C154 0.929 . S
H164 C157 0.930 . S
C165 C166 1.351 . S
C165 N168 1.368 . S
C165 H170 0.931 . S
C166 C165 1.351 . S
C166 N167 1.373 . S
C166 H194 0.930 . S
N167 C166 1.373 . S
N167 C169 1.340 . S
N168 C165 1.368 . S
N168 C169 1.321 . S
N168 Co171 2.135 . S
C169 N167 1.340 . S
C169 N168 1.321 . S
C169 H193 0.930 . S
H170 C165 0.931 . S
Co171 N168 2.135 . S
Co171 N174 2.121 . S
Co171 O179 2.055 . S
Co171 O182 2.039 . S
Co171 N185 2.140 . S
C172 O173 1.227 . S
C172 O182 1.265 . S
O173 C172 1.227 . S
N174 Co171 2.121 . S
N174 C176 1.375 . S
N174 C177 1.313 . S
C175 C176 1.338 . S
C175 N178 1.377 . S
C175 H195 0.930 . S
C176 N174 1.375 . S
C176 C175 1.338 . S
C176 H180 0.931 . S
C177 N174 1.313 . S
C177 N178 1.344 . S
C177 H181 0.930 . S
N178 C175 1.377 . S
N178 C177 1.344 . S
O179 Co171 2.055 . S
O179 C183 1.253 . S
H180 C176 0.931 . S
H181 C177 0.930 . S
O182 Co171 2.039 . S
O182 C172 1.265 . S
C183 O179 1.253 . S
C183 O184 1.227 . S
O184 C183 1.227 . S
N185 Co171 2.140 . S
N185 C188 1.346 . S
N185 C189 1.345 . S
C186 C187 1.387 . S
C186 C190 1.391 . S
C187 C186 1.387 . S
C187 C188 1.369 . S
C187 H196 0.929 . S
C188 N185 1.346 . S
C188 C187 1.369 . S
C188 H191 0.928 . S
C189 N185 1.345 . S
C189 C190 1.371 . S
C189 H192 0.931 . S
C190 C186 1.391 . S
C190 C189 1.371 . S
C190 H197 0.930 . S
H191 C188 0.928 . S
H192 C189 0.931 . S
H193 C169 0.930 . S
H194 C166 0.930 . S
H195 C175 0.930 . S
H196 C187 0.929 . S
H197 C190 0.930 . S
C198 C199 1.351 . S
C198 N201 1.368 . S
C198 H203 0.931 . S
C199 C198 1.351 . S
C199 N200 1.373 . S
C199 H227 0.930 . S
N200 C199 1.373 . S
N200 C202 1.340 . S
N201 C198 1.368 . S
N201 C202 1.321 . S
N201 Co204 2.135 . S
C202 N200 1.340 . S
C202 N201 1.321 . S
C202 H226 0.930 . S
H203 C198 0.931 . S
Co204 N201 2.135 . S
Co204 N207 2.121 . S
Co204 O212 2.055 . S
Co204 O215 2.039 . S
Co204 N218 2.140 . S
C205 O206 1.227 . S
C205 O215 1.265 . S
O206 C205 1.227 . S
N207 Co204 2.121 . S
N207 C209 1.375 . S
N207 C210 1.313 . S
C208 C209 1.338 . S
C208 N211 1.377 . S
C208 H228 0.930 . S
C209 N207 1.375 . S
C209 C208 1.338 . S
C209 H213 0.931 . S
C210 N207 1.313 . S
C210 N211 1.344 . S
C210 H214 0.930 . S
N211 C208 1.377 . S
N211 C210 1.344 . S
O212 Co204 2.055 . S
O212 C216 1.253 . S
H213 C209 0.931 . S
H214 C210 0.930 . S
O215 Co204 2.039 . S
O215 C205 1.265 . S
C216 O212 1.253 . S
C216 O217 1.227 . S
O217 C216 1.227 . S
N218 Co204 2.140 . S
N218 C221 1.346 . S
N218 C222 1.345 . S
C219 C220 1.387 . S
C219 C223 1.391 . S
C220 C219 1.387 . S
C220 C221 1.369 . S
C220 H229 0.929 . S
C221 N218 1.346 . S
C221 C220 1.369 . S
C221 H224 0.928 . S
C222 N218 1.345 . S
C222 C223 1.371 . S
C222 H225 0.931 . S
C223 C219 1.391 . S
C223 C222 1.371 . S
C223 H230 0.930 . S
H224 C221 0.928 . S
H225 C222 0.931 . S
H226 C202 0.930 . S
H227 C199 0.930 . S
H228 C208 0.930 . S
H229 C220 0.929 . S
H230 C223 0.930 . S
C231 C232 1.351 . S
C231 N234 1.368 . S
C231 H236 0.931 . S
C232 C231 1.351 . S
C232 N233 1.373 . S
C232 H260 0.930 . S
N233 C232 1.373 . S
N233 C235 1.340 . S
N234 C231 1.368 . S
N234 C235 1.321 . S
N234 Co237 2.135 . S
C235 N233 1.340 . S
C235 N234 1.321 . S
C235 H259 0.930 . S
H236 C231 0.931 . S
Co237 N234 2.135 . S
Co237 N240 2.121 . S
Co237 O245 2.055 . S
Co237 O248 2.039 . S
Co237 N251 2.140 . S
C238 O239 1.227 . S
C238 O248 1.265 . S
O239 C238 1.227 . S
N240 Co237 2.121 . S
N240 C242 1.375 . S
N240 C243 1.313 . S
C241 C242 1.338 . S
C241 N244 1.377 . S
C241 H261 0.930 . S
C242 N240 1.375 . S
C242 C241 1.338 . S
C242 H246 0.931 . S
C243 N240 1.313 . S
C243 N244 1.344 . S
C243 H247 0.930 . S
N244 C241 1.377 . S
N244 C243 1.344 . S
O245 Co237 2.055 . S
O245 C249 1.253 . S
H246 C242 0.931 . S
H247 C243 0.930 . S
O248 Co237 2.039 . S
O248 C238 1.265 . S
C249 O245 1.253 . S
C249 O250 1.227 . S
O250 C249 1.227 . S
N251 Co237 2.140 . S
N251 C254 1.346 . S
N251 C255 1.345 . S
C252 C253 1.387 . S
C252 C256 1.391 . S
C253 C252 1.387 . S
C253 C254 1.369 . S
C253 H262 0.929 . S
C254 N251 1.346 . S
C254 C253 1.369 . S
C254 H257 0.928 . S
C255 N251 1.345 . S
C255 C256 1.371 . S
C255 H258 0.931 . S
C256 C252 1.391 . S
C256 C255 1.371 . S
C256 H263 0.930 . S
H257 C254 0.928 . S
H258 C255 0.931 . S
H259 C235 0.930 . S
H260 C232 0.930 . S
H261 C241 0.930 . S
H262 C253 0.929 . S
H263 C256 0.930 . S
C264 C265 1.351 . S
C264 N267 1.368 . S
C264 H269 0.931 . S
C265 C264 1.351 . S
C265 N266 1.373 . S
C265 H293 0.930 . S
N266 C265 1.373 . S
N266 C268 1.340 . S
N267 C264 1.368 . S
N267 C268 1.321 . S
N267 Co270 2.135 . S
C268 N266 1.340 . S
C268 N267 1.321 . S
C268 H292 0.930 . S
H269 C264 0.931 . S
Co270 N267 2.135 . S
Co270 N273 2.121 . S
Co270 O278 2.055 . S
Co270 O281 2.039 . S
Co270 N284 2.140 . S
C271 O272 1.227 . S
C271 O281 1.265 . S
O272 C271 1.227 . S
N273 Co270 2.121 . S
N273 C275 1.375 . S
N273 C276 1.313 . S
C274 C275 1.338 . S
C274 N277 1.377 . S
C274 H294 0.930 . S
C275 N273 1.375 . S
C275 C274 1.338 . S
C275 H279 0.931 . S
C276 N273 1.313 . S
C276 N277 1.344 . S
C276 H280 0.930 . S
N277 C274 1.377 . S
N277 C276 1.344 . S
O278 Co270 2.055 . S
O278 C282 1.253 . S
H279 C275 0.931 . S
H280 C276 0.930 . S
O281 Co270 2.039 . S
O281 C271 1.265 . S
C282 O278 1.253 . S
C282 O283 1.227 . S
O283 C282 1.227 . S
N284 Co270 2.140 . S
N284 C287 1.346 . S
N284 C288 1.345 . S
C285 C286 1.387 . S
C285 C289 1.391 . S
C286 C285 1.387 . S
C286 C287 1.369 . S
C286 H295 0.929 . S
C287 N284 1.346 . S
C287 C286 1.369 . S
C287 H290 0.928 . S
C288 N284 1.345 . S
C288 C289 1.371 . S
C288 H291 0.931 . S
C289 C285 1.391 . S
C289 C288 1.371 . S
C289 H296 0.930 . S
H290 C287 0.928 . S
H291 C288 0.931 . S
H292 C268 0.930 . S
H293 C265 0.930 . S
H294 C274 0.930 . S
H295 C286 0.929 . S
H296 C289 0.930 . S
C297 C298 1.351 . S
C297 N300 1.368 . S
C297 H302 0.931 . S
C298 C297 1.351 . S
C298 N299 1.373 . S
C298 H326 0.930 . S
N299 C298 1.373 . S
N299 C301 1.340 . S
N300 C297 1.368 . S
N300 C301 1.321 . S
N300 Co303 2.135 . S
C301 N299 1.340 . S
C301 N300 1.321 . S
C301 H325 0.930 . S
H302 C297 0.931 . S
Co303 N300 2.135 . S
Co303 N306 2.121 . S
Co303 O311 2.055 . S
Co303 O314 2.039 . S
Co303 N317 2.140 . S
C304 O305 1.227 . S
C304 O314 1.265 . S
O305 C304 1.227 . S
N306 Co303 2.121 . S
N306 C308 1.375 . S
N306 C309 1.313 . S
C307 C308 1.338 . S
C307 N310 1.377 . S
C307 H327 0.930 . S
C308 N306 1.375 . S
C308 C307 1.338 . S
C308 H312 0.931 . S
C309 N306 1.313 . S
C309 N310 1.344 . S
C309 H313 0.930 . S
N310 C307 1.377 . S
N310 C309 1.344 . S
O311 Co303 2.055 . S
O311 C315 1.253 . S
H312 C308 0.931 . S
H313 C309 0.930 . S
O314 Co303 2.039 . S
O314 C304 1.265 . S
C315 O311 1.253 . S
C315 O316 1.227 . S
O316 C315 1.227 . S
N317 Co303 2.140 . S
N317 C320 1.346 . S
N317 C321 1.345 . S
C318 C319 1.387 . S
C318 C322 1.391 . S
C319 C318 1.387 . S
C319 C320 1.369 . S
C319 H328 0.929 . S
C320 N317 1.346 . S
C320 C319 1.369 . S
C320 H323 0.928 . S
C321 N317 1.345 . S
C321 C322 1.371 . S
C321 H324 0.931 . S
C322 C318 1.391 . S
C322 C321 1.371 . S
C322 H329 0.930 . S
H323 C320 0.928 . S
H324 C321 0.931 . S
H325 C301 0.930 . S
H326 C298 0.930 . S
H327 C307 0.930 . S
H328 C319 0.929 . S
H329 C322 0.930 . S
C330 C331 1.351 . S
C330 N333 1.368 . S
C330 H335 0.931 . S
C331 C330 1.351 . S
C331 N332 1.373 . S
C331 H359 0.930 . S
N332 C331 1.373 . S
N332 C334 1.340 . S
N333 C330 1.368 . S
N333 C334 1.321 . S
N333 Co336 2.135 . S
C334 N332 1.340 . S
C334 N333 1.321 . S
C334 H358 0.930 . S
H335 C330 0.931 . S
Co336 N333 2.135 . S
Co336 N339 2.121 . S
Co336 O344 2.055 . S
Co336 O347 2.039 . S
Co336 N350 2.140 . S
C337 O338 1.227 . S
C337 O347 1.265 . S
O338 C337 1.227 . S
N339 Co336 2.121 . S
N339 C341 1.375 . S
N339 C342 1.313 . S
C340 C341 1.338 . S
C340 N343 1.377 . S
C340 H360 0.930 . S
C341 N339 1.375 . S
C341 C340 1.338 . S
C341 H345 0.931 . S
C342 N339 1.313 . S
C342 N343 1.344 . S
C342 H346 0.930 . S
N343 C340 1.377 . S
N343 C342 1.344 . S
O344 Co336 2.055 . S
O344 C348 1.253 . S
H345 C341 0.931 . S
H346 C342 0.930 . S
O347 Co336 2.039 . S
O347 C337 1.265 . S
C348 O344 1.253 . S
C348 O349 1.227 . S
O349 C348 1.227 . S
N350 Co336 2.140 . S
N350 C353 1.346 . S
N350 C354 1.345 . S
C351 C352 1.387 . S
C351 C355 1.391 . S
C352 C351 1.387 . S
C352 C353 1.369 . S
C352 H361 0.929 . S
C353 N350 1.346 . S
C353 C352 1.369 . S
C353 H356 0.928 . S
C354 N350 1.345 . S
C354 C355 1.371 . S
C354 H357 0.931 . S
C355 C351 1.391 . S
C355 C354 1.371 . S
C355 H362 0.930 . S
H356 C353 0.928 . S
H357 C354 0.931 . S
H358 C334 0.930 . S
H359 C331 0.930 . S
H360 C340 0.930 . S
H361 C352 0.929 . S
H362 C355 0.930 . S
C363 C364 1.351 . S
C363 N366 1.368 . S
C363 H368 0.931 . S
C364 C363 1.351 . S
C364 N365 1.373 . S
C364 H392 0.930 . S
N365 C364 1.373 . S
N365 C367 1.340 . S
N366 C363 1.368 . S
N366 C367 1.321 . S
N366 Co369 2.135 . S
C367 N365 1.340 . S
C367 N366 1.321 . S
C367 H391 0.930 . S
H368 C363 0.931 . S
Co369 N366 2.135 . S
Co369 N372 2.121 . S
Co369 O377 2.055 . S
Co369 O380 2.039 . S
Co369 N383 2.140 . S
C370 O371 1.227 . S
C370 O380 1.265 . S
O371 C370 1.227 . S
N372 Co369 2.121 . S
N372 C374 1.375 . S
N372 C375 1.313 . S
C373 C374 1.338 . S
C373 N376 1.377 . S
C373 H393 0.930 . S
C374 N372 1.375 . S
C374 C373 1.338 . S
C374 H378 0.931 . S
C375 N372 1.313 . S
C375 N376 1.344 . S
C375 H379 0.930 . S
N376 C373 1.377 . S
N376 C375 1.344 . S
O377 Co369 2.055 . S
O377 C381 1.253 . S
H378 C374 0.931 . S
H379 C375 0.930 . S
O380 Co369 2.039 . S
O380 C370 1.265 . S
C381 O377 1.253 . S
C381 O382 1.227 . S
O382 C381 1.227 . S
N383 Co369 2.140 . S
N383 C386 1.346 . S
N383 C387 1.345 . S
C384 C385 1.387 . S
C384 C388 1.391 . S
C385 C384 1.387 . S
C385 C386 1.369 . S
C385 H394 0.929 . S
C386 N383 1.346 . S
C386 C385 1.369 . S
C386 H389 0.928 . S
C387 N383 1.345 . S
C387 C388 1.371 . S
C387 H390 0.931 . S
C388 C384 1.391 . S
C388 C387 1.371 . S
C388 H395 0.930 . S
H389 C386 0.928 . S
H390 C387 0.931 . S
H391 C367 0.930 . S
H392 C364 0.930 . S
H393 C373 0.930 . S
H394 C385 0.929 . S
H395 C388 0.930 . S
C396 C397 1.351 . S
C396 N399 1.368 . S
C396 H401 0.931 . S
C397 C396 1.351 . S
C397 N398 1.373 . S
C397 H425 0.930 . S
N398 C397 1.373 . S
N398 C400 1.340 . S
N399 C396 1.368 . S
N399 C400 1.321 . S
N399 Co402 2.135 . S
C400 N398 1.340 . S
C400 N399 1.321 . S
C400 H424 0.930 . S
H401 C396 0.931 . S
Co402 N399 2.135 . S
Co402 N405 2.121 . S
Co402 O410 2.055 . S
Co402 O413 2.039 . S
Co402 N416 2.140 . S
C403 O404 1.227 . S
C403 O413 1.265 . S
O404 C403 1.227 . S
N405 Co402 2.121 . S
N405 C407 1.375 . S
N405 C408 1.313 . S
C406 C407 1.338 . S
C406 N409 1.377 . S
C406 H426 0.930 . S
C407 N405 1.375 . S
C407 C406 1.338 . S
C407 H411 0.931 . S
C408 N405 1.313 . S
C408 N409 1.344 . S
C408 H412 0.930 . S
N409 C406 1.377 . S
N409 C408 1.344 . S
O410 Co402 2.055 . S
O410 C414 1.253 . S
H411 C407 0.931 . S
H412 C408 0.930 . S
O413 Co402 2.039 . S
O413 C403 1.265 . S
C414 O410 1.253 . S
C414 O415 1.227 . S
O415 C414 1.227 . S
N416 Co402 2.140 . S
N416 C419 1.346 . S
N416 C420 1.345 . S
C417 C418 1.387 . S
C417 C421 1.391 . S
C418 C417 1.387 . S
C418 C419 1.369 . S
C418 H427 0.929 . S
C419 N416 1.346 . S
C419 C418 1.369 . S
C419 H422 0.928 . S
C420 N416 1.345 . S
C420 C421 1.371 . S
C420 H423 0.931 . S
C421 C417 1.391 . S
C421 C420 1.371 . S
C421 H428 0.930 . S
H422 C419 0.928 . S
H423 C420 0.931 . S
H424 C400 0.930 . S
H425 C397 0.930 . S
H426 C406 0.930 . S
H427 C418 0.929 . S
H428 C421 0.930 . S
C429 C430 1.351 . S
C429 N432 1.368 . S
C429 H434 0.931 . S
C430 C429 1.351 . S
C430 N431 1.373 . S
C430 H458 0.930 . S
N431 C430 1.373 . S
N431 C433 1.340 . S
N432 C429 1.368 . S
N432 C433 1.321 . S
N432 Co435 2.135 . S
C433 N431 1.340 . S
C433 N432 1.321 . S
C433 H457 0.930 . S
H434 C429 0.931 . S
Co435 N432 2.135 . S
Co435 N438 2.121 . S
Co435 O443 2.055 . S
Co435 O446 2.039 . S
Co435 N449 2.140 . S
C436 O437 1.227 . S
C436 O446 1.265 . S
O437 C436 1.227 . S
N438 Co435 2.121 . S
N438 C440 1.375 . S
N438 C441 1.313 . S
C439 C440 1.338 . S
C439 N442 1.377 . S
C439 H459 0.930 . S
C440 N438 1.375 . S
C440 C439 1.338 . S
C440 H444 0.931 . S
C441 N438 1.313 . S
C441 N442 1.344 . S
C441 H445 0.930 . S
N442 C439 1.377 . S
N442 C441 1.344 . S
O443 Co435 2.055 . S
O443 C447 1.253 . S
H444 C440 0.931 . S
H445 C441 0.930 . S
O446 Co435 2.039 . S
O446 C436 1.265 . S
C447 O443 1.253 . S
C447 O448 1.227 . S
O448 C447 1.227 . S
N449 Co435 2.140 . S
N449 C452 1.346 . S
N449 C453 1.345 . S
C450 C451 1.387 . S
C450 C454 1.391 . S
C451 C450 1.387 . S
C451 C452 1.369 . S
C451 H460 0.929 . S
C452 N449 1.346 . S
C452 C451 1.369 . S
C452 H455 0.928 . S
C453 N449 1.345 . S
C453 C454 1.371 . S
C453 H456 0.931 . S
C454 C450 1.391 . S
C454 C453 1.371 . S
C454 H461 0.930 . S
H455 C452 0.928 . S
H456 C453 0.931 . S
H457 C433 0.930 . S
H458 C430 0.930 . S
H459 C439 0.930 . S
H460 C451 0.929 . S
H461 C454 0.930 . S
C462 C463 1.351 . S
C462 N465 1.368 . S
C462 H467 0.931 . S
C463 C462 1.351 . S
C463 N464 1.373 . S
C463 H491 0.930 . S
N464 C463 1.373 . S
N464 C466 1.340 . S
N465 C462 1.368 . S
N465 C466 1.321 . S
N465 Co468 2.135 . S
C466 N464 1.340 . S
C466 N465 1.321 . S
C466 H490 0.930 . S
H467 C462 0.931 . S
Co468 N465 2.135 . S
Co468 N471 2.121 . S
Co468 O476 2.055 . S
Co468 O479 2.039 . S
Co468 N482 2.140 . S
C469 O470 1.227 . S
C469 O479 1.265 . S
O470 C469 1.227 . S
N471 Co468 2.121 . S
N471 C473 1.375 . S
N471 C474 1.313 . S
C472 C473 1.338 . S
C472 N475 1.377 . S
C472 H492 0.930 . S
C473 N471 1.375 . S
C473 C472 1.338 . S
C473 H477 0.931 . S
C474 N471 1.313 . S
C474 N475 1.344 . S
C474 H478 0.930 . S
N475 C472 1.377 . S
N475 C474 1.344 . S
O476 Co468 2.055 . S
O476 C480 1.253 . S
H477 C473 0.931 . S
H478 C474 0.930 . S
O479 Co468 2.039 . S
O479 C469 1.265 . S
C480 O476 1.253 . S
C480 O481 1.227 . S
O481 C480 1.227 . S
N482 Co468 2.140 . S
N482 C485 1.346 . S
N482 C486 1.345 . S
C483 C484 1.387 . S
C483 C487 1.391 . S
C484 C483 1.387 . S
C484 C485 1.369 . S
C484 H493 0.929 . S
C485 N482 1.346 . S
C485 C484 1.369 . S
C485 H488 0.928 . S
C486 N482 1.345 . S
C486 C487 1.371 . S
C486 H489 0.931 . S
C487 C483 1.391 . S
C487 C486 1.371 . S
C487 H494 0.930 . S
H488 C485 0.928 . S
H489 C486 0.931 . S
H490 C466 0.930 . S
H491 C463 0.930 . S
H492 C472 0.930 . S
H493 C484 0.929 . S
H494 C487 0.930 . S
C495 C496 1.351 . S
C495 N498 1.368 . S
C495 H500 0.931 . S
C496 C495 1.351 . S
C496 N497 1.373 . S
C496 H524 0.930 . S
N497 C496 1.373 . S
N497 C499 1.340 . S
N498 C495 1.368 . S
N498 C499 1.321 . S
N498 Co501 2.135 . S
C499 N497 1.340 . S
C499 N498 1.321 . S
C499 H523 0.930 . S
H500 C495 0.931 . S
Co501 N498 2.135 . S
Co501 N504 2.121 . S
Co501 O509 2.055 . S
Co501 O512 2.039 . S
Co501 N515 2.140 . S
C502 O503 1.227 . S
C502 O512 1.265 . S
O503 C502 1.227 . S
N504 Co501 2.121 . S
N504 C506 1.375 . S
N504 C507 1.313 . S
C505 C506 1.338 . S
C505 N508 1.377 . S
C505 H525 0.930 . S
C506 N504 1.375 . S
C506 C505 1.338 . S
C506 H510 0.931 . S
C507 N504 1.313 . S
C507 N508 1.344 . S
C507 H511 0.930 . S
N508 C505 1.377 . S
N508 C507 1.344 . S
O509 Co501 2.055 . S
O509 C513 1.253 . S
H510 C506 0.931 . S
H511 C507 0.930 . S
O512 Co501 2.039 . S
O512 C502 1.265 . S
C513 O509 1.253 . S
C513 O514 1.227 . S
O514 C513 1.227 . S
N515 Co501 2.140 . S
N515 C518 1.346 . S
N515 C519 1.345 . S
C516 C517 1.387 . S
C516 C520 1.391 . S
C517 C516 1.387 . S
C517 C518 1.369 . S
C517 H526 0.929 . S
C518 N515 1.346 . S
C518 C517 1.369 . S
C518 H521 0.928 . S
C519 N515 1.345 . S
C519 C520 1.371 . S
C519 H522 0.931 . S
C520 C516 1.391 . S
C520 C519 1.371 . S
C520 H527 0.930 . S
H521 C518 0.928 . S
H522 C519 0.931 . S
H523 C499 0.930 . S
H524 C496 0.930 . S
H525 C505 0.930 . S
H526 C517 0.929 . S
H527 C520 0.930 . S
C528 C529 1.351 . S
C528 N531 1.368 . S
C528 H533 0.931 . S
C529 C528 1.351 . S
C529 N530 1.373 . S
C529 H557 0.930 . S
N530 C529 1.373 . S
N530 C532 1.340 . S
N531 C528 1.368 . S
N531 C532 1.321 . S
N531 Co534 2.135 . S
C532 N530 1.340 . S
C532 N531 1.321 . S
C532 H556 0.930 . S
H533 C528 0.931 . S
Co534 N531 2.135 . S
Co534 N537 2.121 . S
Co534 O542 2.055 . S
Co534 O545 2.039 . S
Co534 N548 2.140 . S
C535 O536 1.227 . S
C535 O545 1.265 . S
O536 C535 1.227 . S
N537 Co534 2.121 . S
N537 C539 1.375 . S
N537 C540 1.313 . S
C538 C539 1.338 . S
C538 N541 1.377 . S
C538 H558 0.930 . S
C539 N537 1.375 . S
C539 C538 1.338 . S
C539 H543 0.931 . S
C540 N537 1.313 . S
C540 N541 1.344 . S
C540 H544 0.930 . S
N541 C538 1.377 . S
N541 C540 1.344 . S
O542 Co534 2.055 . S
O542 C546 1.253 . S
H543 C539 0.931 . S
H544 C540 0.930 . S
O545 Co534 2.039 . S
O545 C535 1.265 . S
C546 O542 1.253 . S
C546 O547 1.227 . S
O547 C546 1.227 . S
N548 Co534 2.140 . S
N548 C551 1.346 . S
N548 C552 1.345 . S
C549 C550 1.387 . S
C549 C553 1.391 . S
C550 C549 1.387 . S
C550 C551 1.369 . S
C550 H559 0.929 . S
C551 N548 1.346 . S
C551 C550 1.369 . S
C551 H554 0.928 . S
C552 N548 1.345 . S
C552 C553 1.371 . S
C552 H555 0.931 . S
C553 C549 1.391 . S
C553 C552 1.371 . S
C553 H560 0.930 . S
H554 C551 0.928 . S
H555 C552 0.931 . S
H556 C532 0.930 . S
H557 C529 0.930 . S
H558 C538 0.930 . S
H559 C550 0.929 . S
H560 C553 0.930 . S
C561 C562 1.351 . S
C561 N564 1.368 . S
C561 H566 0.931 . S
C562 C561 1.351 . S
C562 N563 1.373 . S
C562 H590 0.930 . S
N563 C562 1.373 . S
N563 C565 1.340 . S
N564 C561 1.368 . S
N564 C565 1.321 . S
N564 Co567 2.135 . S
C565 N563 1.340 . S
C565 N564 1.321 . S
C565 H589 0.930 . S
H566 C561 0.931 . S
Co567 N564 2.135 . S
Co567 N570 2.121 . S
Co567 O575 2.055 . S
Co567 O578 2.039 . S
Co567 N581 2.140 . S
C568 O569 1.227 . S
C568 O578 1.265 . S
O569 C568 1.227 . S
N570 Co567 2.121 . S
N570 C572 1.375 . S
N570 C573 1.313 . S
C571 C572 1.338 . S
C571 N574 1.377 . S
C571 H591 0.930 . S
C572 N570 1.375 . S
C572 C571 1.338 . S
C572 H576 0.931 . S
C573 N570 1.313 . S
C573 N574 1.344 . S
C573 H577 0.930 . S
N574 C571 1.377 . S
N574 C573 1.344 . S
O575 Co567 2.055 . S
O575 C579 1.253 . S
H576 C572 0.931 . S
H577 C573 0.930 . S
O578 Co567 2.039 . S
O578 C568 1.265 . S
C579 O575 1.253 . S
C579 O580 1.227 . S
O580 C579 1.227 . S
N581 Co567 2.140 . S
N581 C584 1.346 . S
N581 C585 1.345 . S
C582 C583 1.387 . S
C582 C586 1.391 . S
C583 C582 1.387 . S
C583 C584 1.369 . S
C583 H592 0.929 . S
C584 N581 1.346 . S
C584 C583 1.369 . S
C584 H587 0.928 . S
C585 N581 1.345 . S
C585 C586 1.371 . S
C585 H588 0.931 . S
C586 C582 1.391 . S
C586 C585 1.371 . S
C586 H593 0.930 . S
H587 C584 0.928 . S
H588 C585 0.931 . S
H589 C565 0.930 . S
H590 C562 0.930 . S
H591 C571 0.930 . S
H592 C583 0.929 . S
H593 C586 0.930 . S
C594 C595 1.351 . S
C594 N597 1.368 . S
C594 H599 0.931 . S
C595 C594 1.351 . S
C595 N596 1.373 . S
C595 H623 0.930 . S
N596 C595 1.373 . S
N596 C598 1.340 . S
N597 C594 1.368 . S
N597 C598 1.321 . S
N597 Co600 2.135 . S
C598 N596 1.340 . S
C598 N597 1.321 . S
C598 H622 0.930 . S
H599 C594 0.931 . S
Co600 N597 2.135 . S
Co600 N603 2.121 . S
Co600 O608 2.055 . S
Co600 O611 2.039 . S
Co600 N614 2.140 . S
C601 O602 1.227 . S
C601 O611 1.265 . S
O602 C601 1.227 . S
N603 Co600 2.121 . S
N603 C605 1.375 . S
N603 C606 1.313 . S
C604 C605 1.338 . S
C604 N607 1.377 . S
C604 H624 0.930 . S
C605 N603 1.375 . S
C605 C604 1.338 . S
C605 H609 0.931 . S
C606 N603 1.313 . S
C606 N607 1.344 . S
C606 H610 0.930 . S
N607 C604 1.377 . S
N607 C606 1.344 . S
O608 Co600 2.055 . S
O608 C612 1.253 . S
H609 C605 0.931 . S
H610 C606 0.930 . S
O611 Co600 2.039 . S
O611 C601 1.265 . S
C612 O608 1.253 . S
C612 O613 1.227 . S
O613 C612 1.227 . S
N614 Co600 2.140 . S
N614 C617 1.346 . S
N614 C618 1.345 . S
C615 C616 1.387 . S
C615 C619 1.391 . S
C616 C615 1.387 . S
C616 C617 1.369 . S
C616 H625 0.929 . S
C617 N614 1.346 . S
C617 C616 1.369 . S
C617 H620 0.928 . S
C618 N614 1.345 . S
C618 C619 1.371 . S
C618 H621 0.931 . S
C619 C615 1.391 . S
C619 C618 1.371 . S
C619 H626 0.930 . S
H620 C617 0.928 . S
H621 C618 0.931 . S
H622 C598 0.930 . S
H623 C595 0.930 . S
H624 C604 0.930 . S
H625 C616 0.929 . S
H626 C619 0.930 . S
C627 C628 1.351 . S
C627 N630 1.368 . S
C627 H632 0.931 . S
C628 C627 1.351 . S
C628 N629 1.373 . S
C628 H656 0.930 . S
N629 C628 1.373 . S
N629 C631 1.340 . S
N630 C627 1.368 . S
N630 C631 1.321 . S
N630 Co633 2.135 . S
C631 N629 1.340 . S
C631 N630 1.321 . S
C631 H655 0.930 . S
H632 C627 0.931 . S
Co633 N630 2.135 . S
Co633 N636 2.121 . S
Co633 O641 2.055 . S
Co633 O644 2.039 . S
Co633 N647 2.140 . S
C634 O635 1.227 . S
C634 O644 1.265 . S
O635 C634 1.227 . S
N636 Co633 2.121 . S
N636 C638 1.375 . S
N636 C639 1.313 . S
C637 C638 1.338 . S
C637 N640 1.377 . S
C637 H657 0.930 . S
C638 N636 1.375 . S
C638 C637 1.338 . S
C638 H642 0.931 . S
C639 N636 1.313 . S
C639 N640 1.344 . S
C639 H643 0.930 . S
N640 C637 1.377 . S
N640 C639 1.344 . S
O641 Co633 2.055 . S
O641 C645 1.253 . S
H642 C638 0.931 . S
H643 C639 0.930 . S
O644 Co633 2.039 . S
O644 C634 1.265 . S
C645 O641 1.253 . S
C645 O646 1.227 . S
O646 C645 1.227 . S
N647 Co633 2.140 . S
N647 C650 1.346 . S
N647 C651 1.345 . S
C648 C649 1.387 . S
C648 C652 1.391 . S
C649 C648 1.387 . S
C649 C650 1.369 . S
C649 H658 0.929 . S
C650 N647 1.346 . S
C650 C649 1.369 . S
C650 H653 0.928 . S
C651 N647 1.345 . S
C651 C652 1.371 . S
C651 H654 0.931 . S
C652 C648 1.391 . S
C652 C651 1.371 . S
C652 H659 0.930 . S
H653 C650 0.928 . S
H654 C651 0.931 . S
H655 C631 0.930 . S
H656 C628 0.930 . S
H657 C637 0.930 . S
H658 C649 0.929 . S
H659 C652 0.930 . S
C660 C661 1.351 . S
C660 N663 1.368 . S
C660 H665 0.931 . S
C661 C660 1.351 . S
C661 N662 1.373 . S
C661 H689 0.930 . S
N662 C661 1.373 . S
N662 C664 1.340 . S
N663 C660 1.368 . S
N663 C664 1.321 . S
N663 Co666 2.135 . S
C664 N662 1.340 . S
C664 N663 1.321 . S
C664 H688 0.930 . S
H665 C660 0.931 . S
Co666 N663 2.135 . S
Co666 N669 2.121 . S
Co666 O674 2.055 . S
Co666 O677 2.039 . S
Co666 N680 2.140 . S
C667 O668 1.227 . S
C667 O677 1.265 . S
O668 C667 1.227 . S
N669 Co666 2.121 . S
N669 C671 1.375 . S
N669 C672 1.313 . S
C670 C671 1.338 . S
C670 N673 1.377 . S
C670 H690 0.930 . S
C671 N669 1.375 . S
C671 C670 1.338 . S
C671 H675 0.931 . S
C672 N669 1.313 . S
C672 N673 1.344 . S
C672 H676 0.930 . S
N673 C670 1.377 . S
N673 C672 1.344 . S
O674 Co666 2.055 . S
O674 C678 1.253 . S
H675 C671 0.931 . S
H676 C672 0.930 . S
O677 Co666 2.039 . S
O677 C667 1.265 . S
C678 O674 1.253 . S
C678 O679 1.227 . S
O679 C678 1.227 . S
N680 Co666 2.140 . S
N680 C683 1.346 . S
N680 C684 1.345 . S
C681 C682 1.387 . S
C681 C685 1.391 . S
C682 C681 1.387 . S
C682 C683 1.369 . S
C682 H691 0.929 . S
C683 N680 1.346 . S
C683 C682 1.369 . S
C683 H686 0.928 . S
C684 N680 1.345 . S
C684 C685 1.371 . S
C684 H687 0.931 . S
C685 C681 1.391 . S
C685 C684 1.371 . S
C685 H692 0.930 . S
H686 C683 0.928 . S
H687 C684 0.931 . S
H688 C664 0.930 . S
H689 C661 0.930 . S
H690 C670 0.930 . S
H691 C682 0.929 . S
H692 C685 0.930 . S
C693 C694 1.351 . S
C693 N696 1.368 . S
C693 H698 0.931 . S
C694 C693 1.351 . S
C694 N695 1.373 . S
C694 H722 0.930 . S
N695 C694 1.373 . S
N695 C697 1.340 . S
N696 C693 1.368 . S
N696 C697 1.321 . S
N696 Co699 2.135 . S
C697 N695 1.340 . S
C697 N696 1.321 . S
C697 H721 0.930 . S
H698 C693 0.931 . S
Co699 N696 2.135 . S
Co699 N702 2.121 . S
Co699 O707 2.055 . S
Co699 O710 2.039 . S
Co699 N713 2.140 . S
C700 O701 1.227 . S
C700 O710 1.265 . S
O701 C700 1.227 . S
N702 Co699 2.121 . S
N702 C704 1.375 . S
N702 C705 1.313 . S
C703 C704 1.338 . S
C703 N706 1.377 . S
C703 H723 0.930 . S
C704 N702 1.375 . S
C704 C703 1.338 . S
C704 H708 0.931 . S
C705 N702 1.313 . S
C705 N706 1.344 . S
C705 H709 0.930 . S
N706 C703 1.377 . S
N706 C705 1.344 . S
O707 Co699 2.055 . S
O707 C711 1.253 . S
H708 C704 0.931 . S
H709 C705 0.930 . S
O710 Co699 2.039 . S
O710 C700 1.265 . S
C711 O707 1.253 . S
C711 O712 1.227 . S
O712 C711 1.227 . S
N713 Co699 2.140 . S
N713 C716 1.346 . S
N713 C717 1.345 . S
C714 C715 1.387 . S
C714 C718 1.391 . S
C715 C714 1.387 . S
C715 C716 1.369 . S
C715 H724 0.929 . S
C716 N713 1.346 . S
C716 C715 1.369 . S
C716 H719 0.928 . S
C717 N713 1.345 . S
C717 C718 1.371 . S
C717 H720 0.931 . S
C718 C714 1.391 . S
C718 C717 1.371 . S
C718 H725 0.930 . S
H719 C716 0.928 . S
H720 C717 0.931 . S
H721 C697 0.930 . S
H722 C694 0.930 . S
H723 C703 0.930 . S
H724 C715 0.929 . S
H725 C718 0.930 . S
C726 C727 1.351 . S
C726 N729 1.368 . S
C726 H731 0.931 . S
C727 C726 1.351 . S
C727 N728 1.373 . S
C727 H755 0.930 . S
N728 C727 1.373 . S
N728 C730 1.340 . S
N729 C726 1.368 . S
N729 C730 1.321 . S
N729 Co732 2.135 . S
C730 N728 1.340 . S
C730 N729 1.321 . S
C730 H754 0.930 . S
H731 C726 0.931 . S
Co732 N729 2.135 . S
Co732 N735 2.121 . S
Co732 O740 2.055 . S
Co732 O743 2.039 . S
Co732 N746 2.140 . S
C733 O734 1.227 . S
C733 O743 1.265 . S
O734 C733 1.227 . S
N735 Co732 2.121 . S
N735 C737 1.375 . S
N735 C738 1.313 . S
C736 C737 1.338 . S
C736 N739 1.377 . S
C736 H756 0.930 . S
C737 N735 1.375 . S
C737 C736 1.338 . S
C737 H741 0.931 . S
C738 N735 1.313 . S
C738 N739 1.344 . S
C738 H742 0.930 . S
N739 C736 1.377 . S
N739 C738 1.344 . S
O740 Co732 2.055 . S
O740 C744 1.253 . S
H741 C737 0.931 . S
H742 C738 0.930 . S
O743 Co732 2.039 . S
O743 C733 1.265 . S
C744 O740 1.253 . S
C744 O745 1.227 . S
O745 C744 1.227 . S
N746 Co732 2.140 . S
N746 C749 1.346 . S
N746 C750 1.345 . S
C747 C748 1.387 . S
C747 C751 1.391 . S
C748 C747 1.387 . S
C748 C749 1.369 . S
C748 H757 0.929 . S
C749 N746 1.346 . S
C749 C748 1.369 . S
C749 H752 0.928 . S
C750 N746 1.345 . S
C750 C751 1.371 . S
C750 H753 0.931 . S
C751 C747 1.391 . S
C751 C750 1.371 . S
C751 H758 0.930 . S
H752 C749 0.928 . S
H753 C750 0.931 . S
H754 C730 0.930 . S
H755 C727 0.930 . S
H756 C736 0.930 . S
H757 C748 0.929 . S
H758 C751 0.930 . S
C759 C760 1.351 . S
C759 N762 1.368 . S
C759 H764 0.931 . S
C760 C759 1.351 . S
C760 N761 1.373 . S
C760 H788 0.930 . S
N761 C760 1.373 . S
N761 C763 1.340 . S
N762 C759 1.368 . S
N762 C763 1.321 . S
N762 Co765 2.135 . S
C763 N761 1.340 . S
C763 N762 1.321 . S
C763 H787 0.930 . S
H764 C759 0.931 . S
Co765 N762 2.135 . S
Co765 N768 2.121 . S
Co765 O773 2.055 . S
Co765 O776 2.039 . S
Co765 N779 2.140 . S
C766 O767 1.227 . S
C766 O776 1.265 . S
O767 C766 1.227 . S
N768 Co765 2.121 . S
N768 C770 1.375 . S
N768 C771 1.313 . S
C769 C770 1.338 . S
C769 N772 1.377 . S
C769 H789 0.930 . S
C770 N768 1.375 . S
C770 C769 1.338 . S
C770 H774 0.931 . S
C771 N768 1.313 . S
C771 N772 1.344 . S
C771 H775 0.930 . S
N772 C769 1.377 . S
N772 C771 1.344 . S
O773 Co765 2.055 . S
O773 C777 1.253 . S
H774 C770 0.931 . S
H775 C771 0.930 . S
O776 Co765 2.039 . S
O776 C766 1.265 . S
C777 O773 1.253 . S
C777 O778 1.227 . S
O778 C777 1.227 . S
N779 Co765 2.140 . S
N779 C782 1.346 . S
N779 C783 1.345 . S
C780 C781 1.387 . S
C780 C784 1.391 . S
C781 C780 1.387 . S
C781 C782 1.369 . S
C781 H790 0.929 . S
C782 N779 1.346 . S
C782 C781 1.369 . S
C782 H785 0.928 . S
C783 N779 1.345 . S
C783 C784 1.371 . S
C783 H786 0.931 . S
C784 C780 1.391 . S
C784 C783 1.371 . S
C784 H791 0.930 . S
H785 C782 0.928 . S
H786 C783 0.931 . S
H787 C763 0.930 . S
H788 C760 0.930 . S
H789 C769 0.930 . S
H790 C781 0.929 . S
H791 C784 0.930 . S
C792 C793 1.351 . S
C792 N795 1.368 . S
C792 H797 0.931 . S
C793 C792 1.351 . S
C793 N794 1.373 . S
C793 H821 0.930 . S
N794 C793 1.373 . S
N794 C796 1.340 . S
N795 C792 1.368 . S
N795 C796 1.321 . S
N795 Co798 2.135 . S
C796 N794 1.340 . S
C796 N795 1.321 . S
C796 H820 0.930 . S
H797 C792 0.931 . S
Co798 N795 2.135 . S
Co798 N801 2.121 . S
Co798 O806 2.055 . S
Co798 O809 2.039 . S
Co798 N812 2.140 . S
C799 O800 1.227 . S
C799 O809 1.265 . S
O800 C799 1.227 . S
N801 Co798 2.121 . S
N801 C803 1.375 . S
N801 C804 1.313 . S
C802 C803 1.338 . S
C802 N805 1.377 . S
C802 H822 0.930 . S
C803 N801 1.375 . S
C803 C802 1.338 . S
C803 H807 0.931 . S
C804 N801 1.313 . S
C804 N805 1.344 . S
C804 H808 0.930 . S
N805 C802 1.377 . S
N805 C804 1.344 . S
O806 Co798 2.055 . S
O806 C810 1.253 . S
H807 C803 0.931 . S
H808 C804 0.930 . S
O809 Co798 2.039 . S
O809 C799 1.265 . S
C810 O806 1.253 . S
C810 O811 1.227 . S
O811 C810 1.227 . S
N812 Co798 2.140 . S
N812 C815 1.346 . S
N812 C816 1.345 . S
C813 C814 1.387 . S
C813 C817 1.391 . S
C814 C813 1.387 . S
C814 C815 1.369 . S
C814 H823 0.929 . S
C815 N812 1.346 . S
C815 C814 1.369 . S
C815 H818 0.928 . S
C816 N812 1.345 . S
C816 C817 1.371 . S
C816 H819 0.931 . S
C817 C813 1.391 . S
C817 C816 1.371 . S
C817 H824 0.930 . S
H818 C815 0.928 . S
H819 C816 0.931 . S
H820 C796 0.930 . S
H821 C793 0.930 . S
H822 C802 0.930 . S
H823 C814 0.929 . S
H824 C817 0.930 . S
C825 C826 1.351 . S
C825 N828 1.368 . S
C825 H830 0.931 . S
C826 C825 1.351 . S
C826 N827 1.373 . S
C826 H854 0.930 . S
N827 C826 1.373 . S
N827 C829 1.340 . S
N828 C825 1.368 . S
N828 C829 1.321 . S
N828 Co831 2.135 . S
C829 N827 1.340 . S
C829 N828 1.321 . S
C829 H853 0.930 . S
H830 C825 0.931 . S
Co831 N828 2.135 . S
Co831 N834 2.121 . S
Co831 O839 2.055 . S
Co831 O842 2.039 . S
Co831 N845 2.140 . S
C832 O833 1.227 . S
C832 O842 1.265 . S
O833 C832 1.227 . S
N834 Co831 2.121 . S
N834 C836 1.375 . S
N834 C837 1.313 . S
C835 C836 1.338 . S
C835 N838 1.377 . S
C835 H855 0.930 . S
C836 N834 1.375 . S
C836 C835 1.338 . S
C836 H840 0.931 . S
C837 N834 1.313 . S
C837 N838 1.344 . S
C837 H841 0.930 . S
N838 C835 1.377 . S
N838 C837 1.344 . S
O839 Co831 2.055 . S
O839 C843 1.253 . S
H840 C836 0.931 . S
H841 C837 0.930 . S
O842 Co831 2.039 . S
O842 C832 1.265 . S
C843 O839 1.253 . S
C843 O844 1.227 . S
O844 C843 1.227 . S
N845 Co831 2.140 . S
N845 C848 1.346 . S
N845 C849 1.345 . S
C846 C847 1.387 . S
C846 C850 1.391 . S
C847 C846 1.387 . S
C847 C848 1.369 . S
C847 H856 0.929 . S
C848 N845 1.346 . S
C848 C847 1.369 . S
C848 H851 0.928 . S
C849 N845 1.345 . S
C849 C850 1.371 . S
C849 H852 0.931 . S
C850 C846 1.391 . S
C850 C849 1.371 . S
C850 H857 0.930 . S
H851 C848 0.928 . S
H852 C849 0.931 . S
H853 C829 0.930 . S
H854 C826 0.930 . S
H855 C835 0.930 . S
H856 C847 0.929 . S
H857 C850 0.930 . S
C858 C859 1.351 . S
C858 N861 1.368 . S
C858 H863 0.931 . S
C859 C858 1.351 . S
C859 N860 1.373 . S
C859 H887 0.930 . S
N860 C859 1.373 . S
N860 C862 1.340 . S
N861 C858 1.368 . S
N861 C862 1.321 . S
N861 Co864 2.135 . S
C862 N860 1.340 . S
C862 N861 1.321 . S
C862 H886 0.930 . S
H863 C858 0.931 . S
Co864 N861 2.135 . S
Co864 N867 2.121 . S
Co864 O872 2.055 . S
Co864 O875 2.039 . S
Co864 N878 2.140 . S
C865 O866 1.227 . S
C865 O875 1.265 . S
O866 C865 1.227 . S
N867 Co864 2.121 . S
N867 C869 1.375 . S
N867 C870 1.313 . S
C868 C869 1.338 . S
C868 N871 1.377 . S
C868 H888 0.930 . S
C869 N867 1.375 . S
C869 C868 1.338 . S
C869 H873 0.931 . S
C870 N867 1.313 . S
C870 N871 1.344 . S
C870 H874 0.930 . S
N871 C868 1.377 . S
N871 C870 1.344 . S
O872 Co864 2.055 . S
O872 C876 1.253 . S
H873 C869 0.931 . S
H874 C870 0.930 . S
O875 Co864 2.039 . S
O875 C865 1.265 . S
C876 O872 1.253 . S
C876 O877 1.227 . S
O877 C876 1.227 . S
N878 Co864 2.140 . S
N878 C881 1.346 . S
N878 C882 1.345 . S
C879 C880 1.387 . S
C879 C883 1.391 . S
C880 C879 1.387 . S
C880 C881 1.369 . S
C880 H889 0.929 . S
C881 N878 1.346 . S
C881 C880 1.369 . S
C881 H884 0.928 . S
C882 N878 1.345 . S
C882 C883 1.371 . S
C882 H885 0.931 . S
C883 C879 1.391 . S
C883 C882 1.371 . S
C883 H890 0.930 . S
H884 C881 0.928 . S
H885 C882 0.931 . S
H886 C862 0.930 . S
H887 C859 0.930 . S
H888 C868 0.930 . S
H889 C880 0.929 . S
H890 C883 0.930 . S
C891 C892 1.351 . S
C891 N894 1.368 . S
C891 H896 0.931 . S
C892 C891 1.351 . S
C892 N893 1.373 . S
C892 H920 0.930 . S
N893 C892 1.373 . S
N893 C895 1.340 . S
N894 C891 1.368 . S
N894 C895 1.321 . S
N894 Co897 2.135 . S
C895 N893 1.340 . S
C895 N894 1.321 . S
C895 H919 0.930 . S
H896 C891 0.931 . S
Co897 N894 2.135 . S
Co897 N900 2.121 . S
Co897 O905 2.055 . S
Co897 O908 2.039 . S
Co897 N911 2.140 . S
C898 O899 1.227 . S
C898 O908 1.265 . S
O899 C898 1.227 . S
N900 Co897 2.121 . S
N900 C902 1.375 . S
N900 C903 1.313 . S
C901 C902 1.338 . S
C901 N904 1.377 . S
C901 H921 0.930 . S
C902 N900 1.375 . S
C902 C901 1.338 . S
C902 H906 0.931 . S
C903 N900 1.313 . S
C903 N904 1.344 . S
C903 H907 0.930 . S
N904 C901 1.377 . S
N904 C903 1.344 . S
O905 Co897 2.055 . S
O905 C909 1.253 . S
H906 C902 0.931 . S
H907 C903 0.930 . S
O908 Co897 2.039 . S
O908 C898 1.265 . S
C909 O905 1.253 . S
C909 O910 1.227 . S
O910 C909 1.227 . S
N911 Co897 2.140 . S
N911 C914 1.346 . S
N911 C915 1.345 . S
C912 C913 1.387 . S
C912 C916 1.391 . S
C913 C912 1.387 . S
C913 C914 1.369 . S
C913 H922 0.929 . S
C914 N911 1.346 . S
C914 C913 1.369 . S
C914 H917 0.928 . S
C915 N911 1.345 . S
C915 C916 1.371 . S
C915 H918 0.931 . S
C916 C912 1.391 . S
C916 C915 1.371 . S
C916 H923 0.930 . S
H917 C914 0.928 . S
H918 C915 0.931 . S
H919 C895 0.930 . S
H920 C892 0.930 . S
H921 C901 0.930 . S
H922 C913 0.929 . S
H923 C916 0.930 . S
C924 C925 1.351 . S
C924 N927 1.368 . S
C924 H929 0.931 . S
C925 C924 1.351 . S
C925 N926 1.373 . S
C925 H953 0.930 . S
N926 C925 1.373 . S
N926 C928 1.340 . S
N927 C924 1.368 . S
N927 C928 1.321 . S
N927 Co930 2.135 . S
C928 N926 1.340 . S
C928 N927 1.321 . S
C928 H952 0.930 . S
H929 C924 0.931 . S
Co930 N927 2.135 . S
Co930 N933 2.121 . S
Co930 O938 2.055 . S
Co930 O941 2.039 . S
Co930 N944 2.140 . S
C931 O932 1.227 . S
C931 O941 1.265 . S
O932 C931 1.227 . S
N933 Co930 2.121 . S
N933 C935 1.375 . S
N933 C936 1.313 . S
C934 C935 1.338 . S
C934 N937 1.377 . S
C934 H954 0.930 . S
C935 N933 1.375 . S
C935 C934 1.338 . S
C935 H939 0.931 . S
C936 N933 1.313 . S
C936 N937 1.344 . S
C936 H940 0.930 . S
N937 C934 1.377 . S
N937 C936 1.344 . S
O938 Co930 2.055 . S
O938 C942 1.253 . S
H939 C935 0.931 . S
H940 C936 0.930 . S
O941 Co930 2.039 . S
O941 C931 1.265 . S
C942 O938 1.253 . S
C942 O943 1.227 . S
O943 C942 1.227 . S
N944 Co930 2.140 . S
N944 C947 1.346 . S
N944 C948 1.345 . S
C945 C946 1.387 . S
C945 C949 1.391 . S
C946 C945 1.387 . S
C946 C947 1.369 . S
C946 H955 0.929 . S
C947 N944 1.346 . S
C947 C946 1.369 . S
C947 H950 0.928 . S
C948 N944 1.345 . S
C948 C949 1.371 . S
C948 H951 0.931 . S
C949 C945 1.391 . S
C949 C948 1.371 . S
C949 H956 0.930 . S
H950 C947 0.928 . S
H951 C948 0.931 . S
H952 C928 0.930 . S
H953 C925 0.930 . S
H954 C934 0.930 . S
H955 C946 0.929 . S
H956 C949 0.930 . S
C957 C958 1.351 . S
C957 N960 1.368 . S
C957 H962 0.931 . S
C958 C957 1.351 . S
C958 N959 1.373 . S
C958 H986 0.930 . S
N959 C958 1.373 . S
N959 C961 1.340 . S
N960 C957 1.368 . S
N960 C961 1.321 . S
N960 Co963 2.135 . S
C961 N959 1.340 . S
C961 N960 1.321 . S
C961 H985 0.930 . S
H962 C957 0.931 . S
Co963 N960 2.135 . S
Co963 N966 2.121 . S
Co963 O971 2.055 . S
Co963 O974 2.039 . S
Co963 N977 2.140 . S
C964 O965 1.227 . S
C964 O974 1.265 . S
O965 C964 1.227 . S
N966 Co963 2.121 . S
N966 C968 1.375 . S
N966 C969 1.313 . S
C967 C968 1.338 . S
C967 N970 1.377 . S
C967 H987 0.930 . S
C968 N966 1.375 . S
C968 C967 1.338 . S
C968 H972 0.931 . S
C969 N966 1.313 . S
C969 N970 1.344 . S
C969 H973 0.930 . S
N970 C967 1.377 . S
N970 C969 1.344 . S
O971 Co963 2.055 . S
O971 C975 1.253 . S
H972 C968 0.931 . S
H973 C969 0.930 . S
O974 Co963 2.039 . S
O974 C964 1.265 . S
C975 O971 1.253 . S
C975 O976 1.227 . S
O976 C975 1.227 . S
N977 Co963 2.140 . S
N977 C980 1.346 . S
N977 C981 1.345 . S
C978 C979 1.387 . S
C978 C982 1.391 . S
C979 C978 1.387 . S
C979 C980 1.369 . S
C979 H988 0.929 . S
C980 N977 1.346 . S
C980 C979 1.369 . S
C980 H983 0.928 . S
C981 N977 1.345 . S
C981 C982 1.371 . S
C981 H984 0.931 . S
C982 C978 1.391 . S
C982 C981 1.371 . S
C982 H989 0.930 . S
H983 C980 0.928 . S
H984 C981 0.931 . S
H985 C961 0.930 . S
H986 C958 0.930 . S
H987 C967 0.930 . S
H988 C979 0.929 . S
H989 C982 0.930 . S
C990 C991 1.351 . S
C990 N993 1.368 . S
C990 H995 0.931 . S
C991 C990 1.351 . S
C991 N992 1.373 . S
C991 H1019 0.930 . S
N992 C991 1.373 . S
N992 C994 1.340 . S
N993 C990 1.368 . S
N993 C994 1.321 . S
N993 Co996 2.135 . S
C994 N992 1.340 . S
C994 N993 1.321 . S
C994 H1018 0.930 . S
H995 C990 0.931 . S
Co996 N993 2.135 . S
Co996 N999 2.121 . S
Co996 O1004 2.055 . S
Co996 O1007 2.039 . S
Co996 N1010 2.140 . S
C997 O998 1.227 . S
C997 O1007 1.265 . S
O998 C997 1.227 . S
N999 Co996 2.121 . S
N999 C1001 1.375 . S
N999 C1002 1.313 . S
C1000 C1001 1.338 . S
C1000 N1003 1.377 . S
C1000 H1020 0.930 . S
C1001 N999 1.375 . S
C1001 C1000 1.338 . S
C1001 H1005 0.931 . S
C1002 N999 1.313 . S
C1002 N1003 1.344 . S
C1002 H1006 0.930 . S
N1003 C1000 1.377 . S
N1003 C1002 1.344 . S
O1004 Co996 2.055 . S
O1004 C1008 1.253 . S
H1005 C1001 0.931 . S
H1006 C1002 0.930 . S
O1007 Co996 2.039 . S
O1007 C997 1.265 . S
C1008 O1004 1.253 . S
C1008 O1009 1.227 . S
O1009 C1008 1.227 . S
N1010 Co996 2.140 . S
N1010 C1013 1.346 . S
N1010 C1014 1.345 . S
C1011 C1012 1.387 . S
C1011 C1015 1.391 . S
C1012 C1011 1.387 . S
C1012 C1013 1.369 . S
C1012 H1021 0.929 . S
C1013 N1010 1.346 . S
C1013 C1012 1.369 . S
C1013 H1016 0.928 . S
C1014 N1010 1.345 . S
C1014 C1015 1.371 . S
C1014 H1017 0.931 . S
C1015 C1011 1.391 . S
C1015 C1014 1.371 . S
C1015 H1022 0.930 . S
H1016 C1013 0.928 . S
H1017 C1014 0.931 . S
H1018 C994 0.930 . S
H1019 C991 0.930 . S
H1020 C1000 0.930 . S
H1021 C1012 0.929 . S
H1022 C1015 0.930 . S
C1023 C1024 1.351 . S
C1023 N1026 1.368 . S
C1023 H1028 0.931 . S
C1024 C1023 1.351 . S
C1024 N1025 1.373 . S
C1024 H1052 0.930 . S
N1025 C1024 1.373 . S
N1025 C1027 1.340 . S
N1026 C1023 1.368 . S
N1026 C1027 1.321 . S
N1026 Co1029 2.135 . S
C1027 N1025 1.340 . S
C1027 N1026 1.321 . S
C1027 H1051 0.930 . S
H1028 C1023 0.931 . S
Co1029 N1026 2.135 . S
Co1029 N1032 2.121 . S
Co1029 O1037 2.055 . S
Co1029 O1040 2.039 . S
Co1029 N1043 2.140 . S
C1030 O1031 1.227 . S
C1030 O1040 1.265 . S
O1031 C1030 1.227 . S
N1032 Co1029 2.121 . S
N1032 C1034 1.375 . S
N1032 C1035 1.313 . S
C1033 C1034 1.338 . S
C1033 N1036 1.377 . S
C1033 H1053 0.930 . S
C1034 N1032 1.375 . S
C1034 C1033 1.338 . S
C1034 H1038 0.931 . S
C1035 N1032 1.313 . S
C1035 N1036 1.344 . S
C1035 H1039 0.930 . S
N1036 C1033 1.377 . S
N1036 C1035 1.344 . S
O1037 Co1029 2.055 . S
O1037 C1041 1.253 . S
H1038 C1034 0.931 . S
H1039 C1035 0.930 . S
O1040 Co1029 2.039 . S
O1040 C1030 1.265 . S
C1041 O1037 1.253 . S
C1041 O1042 1.227 . S
O1042 C1041 1.227 . S
N1043 Co1029 2.140 . S
N1043 C1046 1.346 . S
N1043 C1047 1.345 . S
C1044 C1045 1.387 . S
C1044 C1048 1.391 . S
C1045 C1044 1.387 . S
C1045 C1046 1.369 . S
C1045 H1054 0.929 . S
C1046 N1043 1.346 . S
C1046 C1045 1.369 . S
C1046 H1049 0.928 . S
C1047 N1043 1.345 . S
C1047 C1048 1.371 . S
C1047 H1050 0.931 . S
C1048 C1044 1.391 . S
C1048 C1047 1.371 . S
C1048 H1055 0.930 . S
H1049 C1046 0.928 . S
H1050 C1047 0.931 . S
H1051 C1027 0.930 . S
H1052 C1024 0.930 . S
H1053 C1033 0.930 . S
H1054 C1045 0.929 . S
H1055 C1048 0.930 . S
C1056 C1057 1.351 . S
C1056 N1059 1.368 . S
C1056 H1061 0.931 . S
C1057 C1056 1.351 . S
C1057 N1058 1.373 . S
C1057 H1085 0.930 . S
N1058 C1057 1.373 . S
N1058 C1060 1.340 . S
N1059 C1056 1.368 . S
N1059 C1060 1.321 . S
N1059 Co1062 2.135 . S
C1060 N1058 1.340 . S
C1060 N1059 1.321 . S
C1060 H1084 0.930 . S
H1061 C1056 0.931 . S
Co1062 N1059 2.135 . S
Co1062 N1065 2.121 . S
Co1062 O1070 2.055 . S
Co1062 O1073 2.039 . S
Co1062 N1076 2.140 . S
C1063 O1064 1.227 . S
C1063 O1073 1.265 . S
O1064 C1063 1.227 . S
N1065 Co1062 2.121 . S
N1065 C1067 1.375 . S
N1065 C1068 1.313 . S
C1066 C1067 1.338 . S
C1066 N1069 1.377 . S
C1066 H1086 0.930 . S
C1067 N1065 1.375 . S
C1067 C1066 1.338 . S
C1067 H1071 0.931 . S
C1068 N1065 1.313 . S
C1068 N1069 1.344 . S
C1068 H1072 0.930 . S
N1069 C1066 1.377 . S
N1069 C1068 1.344 . S
O1070 Co1062 2.055 . S
O1070 C1074 1.253 . S
H1071 C1067 0.931 . S
H1072 C1068 0.930 . S
O1073 Co1062 2.039 . S
O1073 C1063 1.265 . S
C1074 O1070 1.253 . S
C1074 O1075 1.227 . S
O1075 C1074 1.227 . S
N1076 Co1062 2.140 . S
N1076 C1079 1.346 . S
N1076 C1080 1.345 . S
C1077 C1078 1.387 . S
C1077 C1081 1.391 . S
C1078 C1077 1.387 . S
C1078 C1079 1.369 . S
C1078 H1087 0.929 . S
C1079 N1076 1.346 . S
C1079 C1078 1.369 . S
C1079 H1082 0.928 . S
C1080 N1076 1.345 . S
C1080 C1081 1.371 . S
C1080 H1083 0.931 . S
C1081 C1077 1.391 . S
C1081 C1080 1.371 . S
C1081 H1088 0.930 . S
H1082 C1079 0.928 . S
H1083 C1080 0.931 . S
H1084 C1060 0.930 . S
H1085 C1057 0.930 . S
H1086 C1066 0.930 . S
H1087 C1078 0.929 . S
H1088 C1081 0.930 . S
C1089 C1090 1.351 . S
C1089 N1092 1.368 . S
C1089 H1094 0.931 . S
C1090 C1089 1.351 . S
C1090 N1091 1.373 . S
C1090 H1118 0.930 . S
N1091 C1090 1.373 . S
N1091 C1093 1.340 . S
N1092 C1089 1.368 . S
N1092 C1093 1.321 . S
N1092 Co1095 2.135 . S
C1093 N1091 1.340 . S
C1093 N1092 1.321 . S
C1093 H1117 0.930 . S
H1094 C1089 0.931 . S
Co1095 N1092 2.135 . S
Co1095 N1098 2.121 . S
Co1095 O1103 2.055 . S
Co1095 O1106 2.039 . S
Co1095 N1109 2.140 . S
C1096 O1097 1.227 . S
C1096 O1106 1.265 . S
O1097 C1096 1.227 . S
N1098 Co1095 2.121 . S
N1098 C1100 1.375 . S
N1098 C1101 1.313 . S
C1099 C1100 1.338 . S
C1099 N1102 1.377 . S
C1099 H1119 0.930 . S
C1100 N1098 1.375 . S
C1100 C1099 1.338 . S
C1100 H1104 0.931 . S
C1101 N1098 1.313 . S
C1101 N1102 1.344 . S
C1101 H1105 0.930 . S
N1102 C1099 1.377 . S
N1102 C1101 1.344 . S
O1103 Co1095 2.055 . S
O1103 C1107 1.253 . S
H1104 C1100 0.931 . S
H1105 C1101 0.930 . S
O1106 Co1095 2.039 . S
O1106 C1096 1.265 . S
C1107 O1103 1.253 . S
C1107 O1108 1.227 . S
O1108 C1107 1.227 . S
N1109 Co1095 2.140 . S
N1109 C1112 1.346 . S
N1109 C1113 1.345 . S
C1110 C1111 1.387 . S
C1110 C1114 1.391 . S
C1111 C1110 1.387 . S
C1111 C1112 1.369 . S
C1111 H1120 0.929 . S
C1112 N1109 1.346 . S
C1112 C1111 1.369 . S
C1112 H1115 0.928 . S
C1113 N1109 1.345 . S
C1113 C1114 1.371 . S
C1113 H1116 0.931 . S
C1114 C1110 1.391 . S
C1114 C1113 1.371 . S
C1114 H1121 0.930 . S
H1115 C1112 0.928 . S
H1116 C1113 0.931 . S
H1117 C1093 0.930 . S
H1118 C1090 0.930 . S
H1119 C1099 0.930 . S
H1120 C1111 0.929 . S
H1121 C1114 0.930 . S
C1122 C1123 1.351 . S
C1122 N1125 1.368 . S
C1122 H1127 0.931 . S
C1123 C1122 1.351 . S
C1123 N1124 1.373 . S
C1123 H1151 0.930 . S
N1124 C1123 1.373 . S
N1124 C1126 1.340 . S
N1125 C1122 1.368 . S
N1125 C1126 1.321 . S
N1125 Co1128 2.135 . S
C1126 N1124 1.340 . S
C1126 N1125 1.321 . S
C1126 H1150 0.930 . S
H1127 C1122 0.931 . S
Co1128 N1125 2.135 . S
Co1128 N1131 2.121 . S
Co1128 O1136 2.055 . S
Co1128 O1139 2.039 . S
Co1128 N1142 2.140 . S
C1129 O1130 1.227 . S
C1129 O1139 1.265 . S
O1130 C1129 1.227 . S
N1131 Co1128 2.121 . S
N1131 C1133 1.375 . S
N1131 C1134 1.313 . S
C1132 C1133 1.338 . S
C1132 N1135 1.377 . S
C1132 H1152 0.930 . S
C1133 N1131 1.375 . S
C1133 C1132 1.338 . S
C1133 H1137 0.931 . S
C1134 N1131 1.313 . S
C1134 N1135 1.344 . S
C1134 H1138 0.930 . S
N1135 C1132 1.377 . S
N1135 C1134 1.344 . S
O1136 Co1128 2.055 . S
O1136 C1140 1.253 . S
H1137 C1133 0.931 . S
H1138 C1134 0.930 . S
O1139 Co1128 2.039 . S
O1139 C1129 1.265 . S
C1140 O1136 1.253 . S
C1140 O1141 1.227 . S
O1141 C1140 1.227 . S
N1142 Co1128 2.140 . S
N1142 C1145 1.346 . S
N1142 C1146 1.345 . S
C1143 C1144 1.387 . S
C1143 C1147 1.391 . S
C1144 C1143 1.387 . S
C1144 C1145 1.369 . S
C1144 H1153 0.929 . S
C1145 N1142 1.346 . S
C1145 C1144 1.369 . S
C1145 H1148 0.928 . S
C1146 N1142 1.345 . S
C1146 C1147 1.371 . S
C1146 H1149 0.931 . S
C1147 C1143 1.391 . S
C1147 C1146 1.371 . S
C1147 H1154 0.930 . S
H1148 C1145 0.928 . S
H1149 C1146 0.931 . S
H1150 C1126 0.930 . S
H1151 C1123 0.930 . S
H1152 C1132 0.930 . S
H1153 C1144 0.929 . S
H1154 C1147 0.930 . S
C1155 C1156 1.351 . S
C1155 N1158 1.368 . S
C1155 H1160 0.931 . S
C1156 C1155 1.351 . S
C1156 N1157 1.373 . S
C1156 H1184 0.930 . S
N1157 C1156 1.373 . S
N1157 C1159 1.340 . S
N1158 C1155 1.368 . S
N1158 C1159 1.321 . S
N1158 Co1161 2.135 . S
C1159 N1157 1.340 . S
C1159 N1158 1.321 . S
C1159 H1183 0.930 . S
H1160 C1155 0.931 . S
Co1161 N1158 2.135 . S
Co1161 N1164 2.121 . S
Co1161 O1169 2.055 . S
Co1161 O1172 2.039 . S
Co1161 N1175 2.140 . S
C1162 O1163 1.227 . S
C1162 O1172 1.265 . S
O1163 C1162 1.227 . S
N1164 Co1161 2.121 . S
N1164 C1166 1.375 . S
N1164 C1167 1.313 . S
C1165 C1166 1.338 . S
C1165 N1168 1.377 . S
C1165 H1185 0.930 . S
C1166 N1164 1.375 . S
C1166 C1165 1.338 . S
C1166 H1170 0.931 . S
C1167 N1164 1.313 . S
C1167 N1168 1.344 . S
C1167 H1171 0.930 . S
N1168 C1165 1.377 . S
N1168 C1167 1.344 . S
O1169 Co1161 2.055 . S
O1169 C1173 1.253 . S
H1170 C1166 0.931 . S
H1171 C1167 0.930 . S
O1172 Co1161 2.039 . S
O1172 C1162 1.265 . S
C1173 O1169 1.253 . S
C1173 O1174 1.227 . S
O1174 C1173 1.227 . S
N1175 Co1161 2.140 . S
N1175 C1178 1.346 . S
N1175 C1179 1.345 . S
C1176 C1177 1.387 . S
C1176 C1180 1.391 . S
C1177 C1176 1.387 . S
C1177 C1178 1.369 . S
C1177 H1186 0.929 . S
C1178 N1175 1.346 . S
C1178 C1177 1.369 . S
C1178 H1181 0.928 . S
C1179 N1175 1.345 . S
C1179 C1180 1.371 . S
C1179 H1182 0.931 . S
C1180 C1176 1.391 . S
C1180 C1179 1.371 . S
C1180 H1187 0.930 . S
H1181 C1178 0.928 . S
H1182 C1179 0.931 . S
H1183 C1159 0.930 . S
H1184 C1156 0.930 . S
H1185 C1165 0.930 . S
H1186 C1177 0.929 . S
H1187 C1180 0.930 . S
C1188 C1189 1.351 . S
C1188 N1191 1.368 . S
C1188 H1193 0.931 . S
C1189 C1188 1.351 . S
C1189 N1190 1.373 . S
C1189 H1217 0.930 . S
N1190 C1189 1.373 . S
N1190 C1192 1.340 . S
N1191 C1188 1.368 . S
N1191 C1192 1.321 . S
N1191 Co1194 2.135 . S
C1192 N1190 1.340 . S
C1192 N1191 1.321 . S
C1192 H1216 0.930 . S
H1193 C1188 0.931 . S
Co1194 N1191 2.135 . S
Co1194 N1197 2.121 . S
Co1194 O1202 2.055 . S
Co1194 O1205 2.039 . S
Co1194 N1208 2.140 . S
C1195 O1196 1.227 . S
C1195 O1205 1.265 . S
O1196 C1195 1.227 . S
N1197 Co1194 2.121 . S
N1197 C1199 1.375 . S
N1197 C1200 1.313 . S
C1198 C1199 1.338 . S
C1198 N1201 1.377 . S
C1198 H1218 0.930 . S
C1199 N1197 1.375 . S
C1199 C1198 1.338 . S
C1199 H1203 0.931 . S
C1200 N1197 1.313 . S
C1200 N1201 1.344 . S
C1200 H1204 0.930 . S
N1201 C1198 1.377 . S
N1201 C1200 1.344 . S
O1202 Co1194 2.055 . S
O1202 C1206 1.253 . S
H1203 C1199 0.931 . S
H1204 C1200 0.930 . S
O1205 Co1194 2.039 . S
O1205 C1195 1.265 . S
C1206 O1202 1.253 . S
C1206 O1207 1.227 . S
O1207 C1206 1.227 . S
N1208 Co1194 2.140 . S
N1208 C1211 1.346 . S
N1208 C1212 1.345 . S
C1209 C1210 1.387 . S
C1209 C1213 1.391 . S
C1210 C1209 1.387 . S
C1210 C1211 1.369 . S
C1210 H1219 0.929 . S
C1211 N1208 1.346 . S
C1211 C1210 1.369 . S
C1211 H1214 0.928 . S
C1212 N1208 1.345 . S
C1212 C1213 1.371 . S
C1212 H1215 0.931 . S
C1213 C1209 1.391 . S
C1213 C1212 1.371 . S
C1213 H1220 0.930 . S
H1214 C1211 0.928 . S
H1215 C1212 0.931 . S
H1216 C1192 0.930 . S
H1217 C1189 0.930 . S
H1218 C1198 0.930 . S
H1219 C1210 0.929 . S
H1220 C1213 0.930 . S
C1221 C1222 1.351 . S
C1221 N1224 1.368 . S
C1221 H1226 0.931 . S
C1222 C1221 1.351 . S
C1222 N1223 1.373 . S
C1222 H1250 0.930 . S
N1223 C1222 1.373 . S
N1223 C1225 1.340 . S
N1224 C1221 1.368 . S
N1224 C1225 1.321 . S
N1224 Co1227 2.135 . S
C1225 N1223 1.340 . S
C1225 N1224 1.321 . S
C1225 H1249 0.930 . S
H1226 C1221 0.931 . S
Co1227 N1224 2.135 . S
Co1227 N1230 2.121 . S
Co1227 O1235 2.055 . S
Co1227 O1238 2.039 . S
Co1227 N1241 2.140 . S
C1228 O1229 1.227 . S
C1228 O1238 1.265 . S
O1229 C1228 1.227 . S
N1230 Co1227 2.121 . S
N1230 C1232 1.375 . S
N1230 C1233 1.313 . S
C1231 C1232 1.338 . S
C1231 N1234 1.377 . S
C1231 H1251 0.930 . S
C1232 N1230 1.375 . S
C1232 C1231 1.338 . S
C1232 H1236 0.931 . S
C1233 N1230 1.313 . S
C1233 N1234 1.344 . S
C1233 H1237 0.930 . S
N1234 C1231 1.377 . S
N1234 C1233 1.344 . S
O1235 Co1227 2.055 . S
O1235 C1239 1.253 . S
H1236 C1232 0.931 . S
H1237 C1233 0.930 . S
O1238 Co1227 2.039 . S
O1238 C1228 1.265 . S
C1239 O1235 1.253 . S
C1239 O1240 1.227 . S
O1240 C1239 1.227 . S
N1241 Co1227 2.140 . S
N1241 C1244 1.346 . S
N1241 C1245 1.345 . S
C1242 C1243 1.387 . S
C1242 C1246 1.391 . S
C1243 C1242 1.387 . S
C1243 C1244 1.369 . S
C1243 H1252 0.929 . S
C1244 N1241 1.346 . S
C1244 C1243 1.369 . S
C1244 H1247 0.928 . S
C1245 N1241 1.345 . S
C1245 C1246 1.371 . S
C1245 H1248 0.931 . S
C1246 C1242 1.391 . S
C1246 C1245 1.371 . S
C1246 H1253 0.930 . S
H1247 C1244 0.928 . S
H1248 C1245 0.931 . S
H1249 C1225 0.930 . S
H1250 C1222 0.930 . S
H1251 C1231 0.930 . S
H1252 C1243 0.929 . S
H1253 C1246 0.930 . S
C1254 C1255 1.351 . S
C1254 N1257 1.368 . S
C1254 H1259 0.931 . S
C1255 C1254 1.351 . S
C1255 N1256 1.373 . S
C1255 H1283 0.930 . S
N1256 C1255 1.373 . S
N1256 C1258 1.340 . S
N1257 C1254 1.368 . S
N1257 C1258 1.321 . S
N1257 Co1260 2.135 . S
C1258 N1256 1.340 . S
C1258 N1257 1.321 . S
C1258 H1282 0.930 . S
H1259 C1254 0.931 . S
Co1260 N1257 2.135 . S
Co1260 N1263 2.121 . S
Co1260 O1268 2.055 . S
Co1260 O1271 2.039 . S
Co1260 N1274 2.140 . S
C1261 O1262 1.227 . S
C1261 O1271 1.265 . S
O1262 C1261 1.227 . S
N1263 Co1260 2.121 . S
N1263 C1265 1.375 . S
N1263 C1266 1.313 . S
C1264 C1265 1.338 . S
C1264 N1267 1.377 . S
C1264 H1284 0.930 . S
C1265 N1263 1.375 . S
C1265 C1264 1.338 . S
C1265 H1269 0.931 . S
C1266 N1263 1.313 . S
C1266 N1267 1.344 . S
C1266 H1270 0.930 . S
N1267 C1264 1.377 . S
N1267 C1266 1.344 . S
O1268 Co1260 2.055 . S
O1268 C1272 1.253 . S
H1269 C1265 0.931 . S
H1270 C1266 0.930 . S
O1271 Co1260 2.039 . S
O1271 C1261 1.265 . S
C1272 O1268 1.253 . S
C1272 O1273 1.227 . S
O1273 C1272 1.227 . S
N1274 Co1260 2.140 . S
N1274 C1277 1.346 . S
N1274 C1278 1.345 . S
C1275 C1276 1.387 . S
C1275 C1279 1.391 . S
C1276 C1275 1.387 . S
C1276 C1277 1.369 . S
C1276 H1285 0.929 . S
C1277 N1274 1.346 . S
C1277 C1276 1.369 . S
C1277 H1280 0.928 . S
C1278 N1274 1.345 . S
C1278 C1279 1.371 . S
C1278 H1281 0.931 . S
C1279 C1275 1.391 . S
C1279 C1278 1.371 . S
C1279 H1286 0.930 . S
H1280 C1277 0.928 . S
H1281 C1278 0.931 . S
H1282 C1258 0.930 . S
H1283 C1255 0.930 . S
H1284 C1264 0.930 . S
H1285 C1276 0.929 . S
H1286 C1279 0.930 . S
C1287 C1288 1.351 . S
C1287 N1290 1.368 . S
C1287 H1292 0.931 . S
C1288 C1287 1.351 . S
C1288 N1289 1.373 . S
C1288 H1316 0.930 . S
N1289 C1288 1.373 . S
N1289 C1291 1.340 . S
N1290 C1287 1.368 . S
N1290 C1291 1.321 . S
N1290 Co1293 2.135 . S
C1291 N1289 1.340 . S
C1291 N1290 1.321 . S
C1291 H1315 0.930 . S
H1292 C1287 0.931 . S
Co1293 N1290 2.135 . S
Co1293 N1296 2.121 . S
Co1293 O1301 2.055 . S
Co1293 O1304 2.039 . S
Co1293 N1307 2.140 . S
C1294 O1295 1.227 . S
C1294 O1304 1.265 . S
O1295 C1294 1.227 . S
N1296 Co1293 2.121 . S
N1296 C1298 1.375 . S
N1296 C1299 1.313 . S
C1297 C1298 1.338 . S
C1297 N1300 1.377 . S
C1297 H1317 0.930 . S
C1298 N1296 1.375 . S
C1298 C1297 1.338 . S
C1298 H1302 0.931 . S
C1299 N1296 1.313 . S
C1299 N1300 1.344 . S
C1299 H1303 0.930 . S
N1300 C1297 1.377 . S
N1300 C1299 1.344 . S
O1301 Co1293 2.055 . S
O1301 C1305 1.253 . S
H1302 C1298 0.931 . S
H1303 C1299 0.930 . S
O1304 Co1293 2.039 . S
O1304 C1294 1.265 . S
C1305 O1301 1.253 . S
C1305 O1306 1.227 . S
O1306 C1305 1.227 . S
N1307 Co1293 2.140 . S
N1307 C1310 1.346 . S
N1307 C1311 1.345 . S
C1308 C1309 1.387 . S
C1308 C1312 1.391 . S
C1309 C1308 1.387 . S
C1309 C1310 1.369 . S
C1309 H1318 0.929 . S
C1310 N1307 1.346 . S
C1310 C1309 1.369 . S
C1310 H1313 0.928 . S
C1311 N1307 1.345 . S
C1311 C1312 1.371 . S
C1311 H1314 0.931 . S
C1312 C1308 1.391 . S
C1312 C1311 1.371 . S
C1312 H1319 0.930 . S
H1313 C1310 0.928 . S
H1314 C1311 0.931 . S
H1315 C1291 0.930 . S
H1316 C1288 0.930 . S
H1317 C1297 0.930 . S
H1318 C1309 0.929 . S
H1319 C1312 0.930 . S
C1320 C1321 1.351 . S
C1320 N1323 1.368 . S
C1320 H1325 0.931 . S
C1321 C1320 1.351 . S
C1321 N1322 1.373 . S
C1321 H1349 0.930 . S
N1322 C1321 1.373 . S
N1322 C1324 1.340 . S
N1323 C1320 1.368 . S
N1323 C1324 1.321 . S
N1323 Co1326 2.135 . S
C1324 N1322 1.340 . S
C1324 N1323 1.321 . S
C1324 H1348 0.930 . S
H1325 C1320 0.931 . S
Co1326 N1323 2.135 . S
Co1326 N1329 2.121 . S
Co1326 O1334 2.055 . S
Co1326 O1337 2.039 . S
Co1326 N1340 2.140 . S
C1327 O1328 1.227 . S
C1327 O1337 1.265 . S
O1328 C1327 1.227 . S
N1329 Co1326 2.121 . S
N1329 C1331 1.375 . S
N1329 C1332 1.313 . S
C1330 C1331 1.338 . S
C1330 N1333 1.377 . S
C1330 H1350 0.930 . S
C1331 N1329 1.375 . S
C1331 C1330 1.338 . S
C1331 H1335 0.931 . S
C1332 N1329 1.313 . S
C1332 N1333 1.344 . S
C1332 H1336 0.930 . S
N1333 C1330 1.377 . S
N1333 C1332 1.344 . S
O1334 Co1326 2.055 . S
O1334 C1338 1.253 . S
H1335 C1331 0.931 . S
H1336 C1332 0.930 . S
O1337 Co1326 2.039 . S
O1337 C1327 1.265 . S
C1338 O1334 1.253 . S
C1338 O1339 1.227 . S
O1339 C1338 1.227 . S
N1340 Co1326 2.140 . S
N1340 C1343 1.346 . S
N1340 C1344 1.345 . S
C1341 C1342 1.387 . S
C1341 C1345 1.391 . S
C1342 C1341 1.387 . S
C1342 C1343 1.369 . S
C1342 H1351 0.929 . S
C1343 N1340 1.346 . S
C1343 C1342 1.369 . S
C1343 H1346 0.928 . S
C1344 N1340 1.345 . S
C1344 C1345 1.371 . S
C1344 H1347 0.931 . S
C1345 C1341 1.391 . S
C1345 C1344 1.371 . S
C1345 H1352 0.930 . S
H1346 C1343 0.928 . S
H1347 C1344 0.931 . S
H1348 C1324 0.930 . S
H1349 C1321 0.930 . S
H1350 C1330 0.930 . S
H1351 C1342 0.929 . S
H1352 C1345 0.930 . S
C1353 C1354 1.351 . S
C1353 N1356 1.368 . S
C1353 H1358 0.931 . S
C1354 C1353 1.351 . S
C1354 N1355 1.373 . S
C1354 H1382 0.930 . S
N1355 C1354 1.373 . S
N1355 C1357 1.340 . S
N1356 C1353 1.368 . S
N1356 C1357 1.321 . S
N1356 Co1359 2.135 . S
C1357 N1355 1.340 . S
C1357 N1356 1.321 . S
C1357 H1381 0.930 . S
H1358 C1353 0.931 . S
Co1359 N1356 2.135 . S
Co1359 N1362 2.121 . S
Co1359 O1367 2.055 . S
Co1359 O1370 2.039 . S
Co1359 N1373 2.140 . S
C1360 O1361 1.227 . S
C1360 O1370 1.265 . S
O1361 C1360 1.227 . S
N1362 Co1359 2.121 . S
N1362 C1364 1.375 . S
N1362 C1365 1.313 . S
C1363 C1364 1.338 . S
C1363 N1366 1.377 . S
C1363 H1383 0.930 . S
C1364 N1362 1.375 . S
C1364 C1363 1.338 . S
C1364 H1368 0.931 . S
C1365 N1362 1.313 . S
C1365 N1366 1.344 . S
C1365 H1369 0.930 . S
N1366 C1363 1.377 . S
N1366 C1365 1.344 . S
O1367 Co1359 2.055 . S
O1367 C1371 1.253 . S
H1368 C1364 0.931 . S
H1369 C1365 0.930 . S
O1370 Co1359 2.039 . S
O1370 C1360 1.265 . S
C1371 O1367 1.253 . S
C1371 O1372 1.227 . S
O1372 C1371 1.227 . S
N1373 Co1359 2.140 . S
N1373 C1376 1.346 . S
N1373 C1377 1.345 . S
C1374 C1375 1.387 . S
C1374 C1378 1.391 . S
C1375 C1374 1.387 . S
C1375 C1376 1.369 . S
C1375 H1384 0.929 . S
C1376 N1373 1.346 . S
C1376 C1375 1.369 . S
C1376 H1379 0.928 . S
C1377 N1373 1.345 . S
C1377 C1378 1.371 . S
C1377 H1380 0.931 . S
C1378 C1374 1.391 . S
C1378 C1377 1.371 . S
C1378 H1385 0.930 . S
H1379 C1376 0.928 . S
H1380 C1377 0.931 . S
H1381 C1357 0.930 . S
H1382 C1354 0.930 . S
H1383 C1363 0.930 . S
H1384 C1375 0.929 . S
H1385 C1378 0.930 . S
C1386 C1387 1.351 . S
C1386 N1389 1.368 . S
C1386 H1391 0.931 . S
C1387 C1386 1.351 . S
C1387 N1388 1.373 . S
C1387 H1415 0.930 . S
N1388 C1387 1.373 . S
N1388 C1390 1.340 . S
N1389 C1386 1.368 . S
N1389 C1390 1.321 . S
N1389 Co1392 2.135 . S
C1390 N1388 1.340 . S
C1390 N1389 1.321 . S
C1390 H1414 0.930 . S
H1391 C1386 0.931 . S
Co1392 N1389 2.135 . S
Co1392 N1395 2.121 . S
Co1392 O1400 2.055 . S
Co1392 O1403 2.039 . S
Co1392 N1406 2.140 . S
C1393 O1394 1.227 . S
C1393 O1403 1.265 . S
O1394 C1393 1.227 . S
N1395 Co1392 2.121 . S
N1395 C1397 1.375 . S
N1395 C1398 1.313 . S
C1396 C1397 1.338 . S
C1396 N1399 1.377 . S
C1396 H1416 0.930 . S
C1397 N1395 1.375 . S
C1397 C1396 1.338 . S
C1397 H1401 0.931 . S
C1398 N1395 1.313 . S
C1398 N1399 1.344 . S
C1398 H1402 0.930 . S
N1399 C1396 1.377 . S
N1399 C1398 1.344 . S
O1400 Co1392 2.055 . S
O1400 C1404 1.253 . S
H1401 C1397 0.931 . S
H1402 C1398 0.930 . S
O1403 Co1392 2.039 . S
O1403 C1393 1.265 . S
C1404 O1400 1.253 . S
C1404 O1405 1.227 . S
O1405 C1404 1.227 . S
N1406 Co1392 2.140 . S
N1406 C1409 1.346 . S
N1406 C1410 1.345 . S
C1407 C1408 1.387 . S
C1407 C1411 1.391 . S
C1408 C1407 1.387 . S
C1408 C1409 1.369 . S
C1408 H1417 0.929 . S
C1409 N1406 1.346 . S
C1409 C1408 1.369 . S
C1409 H1412 0.928 . S
C1410 N1406 1.345 . S
C1410 C1411 1.371 . S
C1410 H1413 0.931 . S
C1411 C1407 1.391 . S
C1411 C1410 1.371 . S
C1411 H1418 0.930 . S
H1412 C1409 0.928 . S
H1413 C1410 0.931 . S
H1414 C1390 0.930 . S
H1415 C1387 0.930 . S
H1416 C1396 0.930 . S
H1417 C1408 0.929 . S
H1418 C1411 0.930 . S
C1419 C1420 1.351 . S
C1419 N1422 1.368 . S
C1419 H1424 0.931 . S
C1420 C1419 1.351 . S
C1420 N1421 1.373 . S
C1420 H1448 0.930 . S
N1421 C1420 1.373 . S
N1421 C1423 1.340 . S
N1422 C1419 1.368 . S
N1422 C1423 1.321 . S
N1422 Co1425 2.135 . S
C1423 N1421 1.340 . S
C1423 N1422 1.321 . S
C1423 H1447 0.930 . S
H1424 C1419 0.931 . S
Co1425 N1422 2.135 . S
Co1425 N1428 2.121 . S
Co1425 O1433 2.055 . S
Co1425 O1436 2.039 . S
Co1425 N1439 2.140 . S
C1426 O1427 1.227 . S
C1426 O1436 1.265 . S
O1427 C1426 1.227 . S
N1428 Co1425 2.121 . S
N1428 C1430 1.375 . S
N1428 C1431 1.313 . S
C1429 C1430 1.338 . S
C1429 N1432 1.377 . S
C1429 H1449 0.930 . S
C1430 N1428 1.375 . S
C1430 C1429 1.338 . S
C1430 H1434 0.931 . S
C1431 N1428 1.313 . S
C1431 N1432 1.344 . S
C1431 H1435 0.930 . S
N1432 C1429 1.377 . S
N1432 C1431 1.344 . S
O1433 Co1425 2.055 . S
O1433 C1437 1.253 . S
H1434 C1430 0.931 . S
H1435 C1431 0.930 . S
O1436 Co1425 2.039 . S
O1436 C1426 1.265 . S
C1437 O1433 1.253 . S
C1437 O1438 1.227 . S
O1438 C1437 1.227 . S
N1439 Co1425 2.140 . S
N1439 C1442 1.346 . S
N1439 C1443 1.345 . S
C1440 C1441 1.387 . S
C1440 C1444 1.391 . S
C1441 C1440 1.387 . S
C1441 C1442 1.369 . S
C1441 H1450 0.929 . S
C1442 N1439 1.346 . S
C1442 C1441 1.369 . S
C1442 H1445 0.928 . S
C1443 N1439 1.345 . S
C1443 C1444 1.371 . S
C1443 H1446 0.931 . S
C1444 C1440 1.391 . S
C1444 C1443 1.371 . S
C1444 H1451 0.930 . S
H1445 C1442 0.928 . S
H1446 C1443 0.931 . S
H1447 C1423 0.930 . S
H1448 C1420 0.930 . S
H1449 C1429 0.930 . S
H1450 C1441 0.929 . S
H1451 C1444 0.930 . S
C1452 C1453 1.351 . S
C1452 N1455 1.368 . S
C1452 H1457 0.931 . S
C1453 C1452 1.351 . S
C1453 N1454 1.373 . S
C1453 H1481 0.930 . S
N1454 C1453 1.373 . S
N1454 C1456 1.340 . S
N1455 C1452 1.368 . S
N1455 C1456 1.321 . S
N1455 Co1458 2.135 . S
C1456 N1454 1.340 . S
C1456 N1455 1.321 . S
C1456 H1480 0.930 . S
H1457 C1452 0.931 . S
Co1458 N1455 2.135 . S
Co1458 N1461 2.121 . S
Co1458 O1466 2.055 . S
Co1458 O1469 2.039 . S
Co1458 N1472 2.140 . S
C1459 O1460 1.227 . S
C1459 O1469 1.265 . S
O1460 C1459 1.227 . S
N1461 Co1458 2.121 . S
N1461 C1463 1.375 . S
N1461 C1464 1.313 . S
C1462 C1463 1.338 . S
C1462 N1465 1.377 . S
C1462 H1482 0.930 . S
C1463 N1461 1.375 . S
C1463 C1462 1.338 . S
C1463 H1467 0.931 . S
C1464 N1461 1.313 . S
C1464 N1465 1.344 . S
C1464 H1468 0.930 . S
N1465 C1462 1.377 . S
N1465 C1464 1.344 . S
O1466 Co1458 2.055 . S
O1466 C1470 1.253 . S
H1467 C1463 0.931 . S
H1468 C1464 0.930 . S
O1469 Co1458 2.039 . S
O1469 C1459 1.265 . S
C1470 O1466 1.253 . S
C1470 O1471 1.227 . S
O1471 C1470 1.227 . S
N1472 Co1458 2.140 . S
N1472 C1475 1.346 . S
N1472 C1476 1.345 . S
C1473 C1474 1.387 . S
C1473 C1477 1.391 . S
C1474 C1473 1.387 . S
C1474 C1475 1.369 . S
C1474 H1483 0.929 . S
C1475 N1472 1.346 . S
C1475 C1474 1.369 . S
C1475 H1478 0.928 . S
C1476 N1472 1.345 . S
C1476 C1477 1.371 . S
C1476 H1479 0.931 . S
C1477 C1473 1.391 . S
C1477 C1476 1.371 . S
C1477 H1484 0.930 . S
H1478 C1475 0.928 . S
H1479 C1476 0.931 . S
H1480 C1456 0.930 . S
H1481 C1453 0.930 . S
H1482 C1462 0.930 . S
H1483 C1474 0.929 . S
H1484 C1477 0.930 . S
C1485 C1486 1.351 . S
C1485 N1488 1.368 . S
C1485 H1490 0.931 . S
C1486 C1485 1.351 . S
C1486 N1487 1.373 . S
C1486 H1514 0.930 . S
N1487 C1486 1.373 . S
N1487 C1489 1.340 . S
N1488 C1485 1.368 . S
N1488 C1489 1.321 . S
N1488 Co1491 2.135 . S
C1489 N1487 1.340 . S
C1489 N1488 1.321 . S
C1489 H1513 0.930 . S
H1490 C1485 0.931 . S
Co1491 N1488 2.135 . S
Co1491 N1494 2.121 . S
Co1491 O1499 2.055 . S
Co1491 O1502 2.039 . S
Co1491 N1505 2.140 . S
C1492 O1493 1.227 . S
C1492 O1502 1.265 . S
O1493 C1492 1.227 . S
N1494 Co1491 2.121 . S
N1494 C1496 1.375 . S
N1494 C1497 1.313 . S
C1495 C1496 1.338 . S
C1495 N1498 1.377 . S
C1495 H1515 0.930 . S
C1496 N1494 1.375 . S
C1496 C1495 1.338 . S
C1496 H1500 0.931 . S
C1497 N1494 1.313 . S
C1497 N1498 1.344 . S
C1497 H1501 0.930 . S
N1498 C1495 1.377 . S
N1498 C1497 1.344 . S
O1499 Co1491 2.055 . S
O1499 C1503 1.253 . S
H1500 C1496 0.931 . S
H1501 C1497 0.930 . S
O1502 Co1491 2.039 . S
O1502 C1492 1.265 . S
C1503 O1499 1.253 . S
C1503 O1504 1.227 . S
O1504 C1503 1.227 . S
N1505 Co1491 2.140 . S
N1505 C1508 1.346 . S
N1505 C1509 1.345 . S
C1506 C1507 1.387 . S
C1506 C1510 1.391 . S
C1507 C1506 1.387 . S
C1507 C1508 1.369 . S
C1507 H1516 0.929 . S
C1508 N1505 1.346 . S
C1508 C1507 1.369 . S
C1508 H1511 0.928 . S
C1509 N1505 1.345 . S
C1509 C1510 1.371 . S
C1509 H1512 0.931 . S
C1510 C1506 1.391 . S
C1510 C1509 1.371 . S
C1510 H1517 0.930 . S
H1511 C1508 0.928 . S
H1512 C1509 0.931 . S
H1513 C1489 0.930 . S
H1514 C1486 0.930 . S
H1515 C1495 0.930 . S
H1516 C1507 0.929 . S
H1517 C1510 0.930 . S
C1518 C1519 1.351 . S
C1518 N1521 1.368 . S
C1518 H1523 0.931 . S
C1519 C1518 1.351 . S
C1519 N1520 1.373 . S
C1519 H1547 0.930 . S
N1520 C1519 1.373 . S
N1520 C1522 1.340 . S
N1521 C1518 1.368 . S
N1521 C1522 1.321 . S
N1521 Co1524 2.135 . S
C1522 N1520 1.340 . S
C1522 N1521 1.321 . S
C1522 H1546 0.930 . S
H1523 C1518 0.931 . S
Co1524 N1521 2.135 . S
Co1524 N1527 2.121 . S
Co1524 O1532 2.055 . S
Co1524 O1535 2.039 . S
Co1524 N1538 2.140 . S
C1525 O1526 1.227 . S
C1525 O1535 1.265 . S
O1526 C1525 1.227 . S
N1527 Co1524 2.121 . S
N1527 C1529 1.375 . S
N1527 C1530 1.313 . S
C1528 C1529 1.338 . S
C1528 N1531 1.377 . S
C1528 H1548 0.930 . S
C1529 N1527 1.375 . S
C1529 C1528 1.338 . S
C1529 H1533 0.931 . S
C1530 N1527 1.313 . S
C1530 N1531 1.344 . S
C1530 H1534 0.930 . S
N1531 C1528 1.377 . S
N1531 C1530 1.344 . S
O1532 Co1524 2.055 . S
O1532 C1536 1.253 . S
H1533 C1529 0.931 . S
H1534 C1530 0.930 . S
O1535 Co1524 2.039 . S
O1535 C1525 1.265 . S
C1536 O1532 1.253 . S
C1536 O1537 1.227 . S
O1537 C1536 1.227 . S
N1538 Co1524 2.140 . S
N1538 C1541 1.346 . S
N1538 C1542 1.345 . S
C1539 C1540 1.387 . S
C1539 C1543 1.391 . S
C1540 C1539 1.387 . S
C1540 C1541 1.369 . S
C1540 H1549 0.929 . S
C1541 N1538 1.346 . S
C1541 C1540 1.369 . S
C1541 H1544 0.928 . S
C1542 N1538 1.345 . S
C1542 C1543 1.371 . S
C1542 H1545 0.931 . S
C1543 C1539 1.391 . S
C1543 C1542 1.371 . S
C1543 H1550 0.930 . S
H1544 C1541 0.928 . S
H1545 C1542 0.931 . S
H1546 C1522 0.930 . S
H1547 C1519 0.930 . S
H1548 C1528 0.930 . S
H1549 C1540 0.929 . S
H1550 C1543 0.930 . S
C1551 C1552 1.351 . S
C1551 N1554 1.368 . S
C1551 H1556 0.931 . S
C1552 C1551 1.351 . S
C1552 N1553 1.373 . S
C1552 H1580 0.930 . S
N1553 C1552 1.373 . S
N1553 C1555 1.340 . S
N1554 C1551 1.368 . S
N1554 C1555 1.321 . S
N1554 Co1557 2.135 . S
C1555 N1553 1.340 . S
C1555 N1554 1.321 . S
C1555 H1579 0.930 . S
H1556 C1551 0.931 . S
Co1557 N1554 2.135 . S
Co1557 N1560 2.121 . S
Co1557 O1565 2.055 . S
Co1557 O1568 2.039 . S
Co1557 N1571 2.140 . S
C1558 O1559 1.227 . S
C1558 O1568 1.265 . S
O1559 C1558 1.227 . S
N1560 Co1557 2.121 . S
N1560 C1562 1.375 . S
N1560 C1563 1.313 . S
C1561 C1562 1.338 . S
C1561 N1564 1.377 . S
C1561 H1581 0.930 . S
C1562 N1560 1.375 . S
C1562 C1561 1.338 . S
C1562 H1566 0.931 . S
C1563 N1560 1.313 . S
C1563 N1564 1.344 . S
C1563 H1567 0.930 . S
N1564 C1561 1.377 . S
N1564 C1563 1.344 . S
O1565 Co1557 2.055 . S
O1565 C1569 1.253 . S
H1566 C1562 0.931 . S
H1567 C1563 0.930 . S
O1568 Co1557 2.039 . S
O1568 C1558 1.265 . S
C1569 O1565 1.253 . S
C1569 O1570 1.227 . S
O1570 C1569 1.227 . S
N1571 Co1557 2.140 . S
N1571 C1574 1.346 . S
N1571 C1575 1.345 . S
C1572 C1573 1.387 . S
C1572 C1576 1.391 . S
C1573 C1572 1.387 . S
C1573 C1574 1.369 . S
C1573 H1582 0.929 . S
C1574 N1571 1.346 . S
C1574 C1573 1.369 . S
C1574 H1577 0.928 . S
C1575 N1571 1.345 . S
C1575 C1576 1.371 . S
C1575 H1578 0.931 . S
C1576 C1572 1.391 . S
C1576 C1575 1.371 . S
C1576 H1583 0.930 . S
H1577 C1574 0.928 . S
H1578 C1575 0.931 . S
H1579 C1555 0.930 . S
H1580 C1552 0.930 . S
H1581 C1561 0.930 . S
H1582 C1573 0.929 . S
H1583 C1576 0.930 . S
H1584 C1592 0.950 . S
H1585 C1597 0.950 . S
H1586 C1594 0.950 . S
H1587 C1596 0.950 . S
H1588 C1598 0.950 . S
H1589 C1600 0.950 . S
H1590 C1602 0.950 . S
H1591 C1603 0.950 . S
C1592 H1584 0.950 . S
C1592 C1593 1.386 . S
C1592 C1594 1.391 . S
C1593 C1592 1.386 . S
C1593 C1597 1.393 . S
C1594 H1586 0.950 . S
C1594 C1592 1.391 . S
C1594 C1595 1.400 . S
C1595 C1594 1.400 . S
C1595 C1596 1.398 . S
C1595 C1601 1.491 . S
C1596 H1587 0.950 . S
C1596 C1595 1.398 . S
C1596 C1597 1.391 . S
C1597 H1585 0.950 . S
C1597 C1593 1.393 . S
C1597 C1596 1.391 . S
C1598 H1588 0.950 . S
C1598 C1599 1.386 . S
C1598 C1600 1.391 . S
C1599 C1598 1.386 . S
C1599 C1603 1.393 . S
C1600 H1589 0.950 . S
C1600 C1598 1.391 . S
C1600 C1601 1.400 . S
C1601 C1595 1.491 . S
C1601 C1600 1.400 . S
C1601 C1602 1.398 . S
C1602 H1590 0.950 . S
C1602 C1601 1.398 . S
C1602 C1603 1.391 . S
C1603 H1591 0.950 . S
C1603 C1599 1.393 . S
C1603 C1602 1.391 . S
H1604 C1612 0.950 . S
H1605 C1617 0.950 . S
H1606 C1614 0.950 . S
H1607 C1616 0.950 . S
H1608 C1618 0.950 . S
H1609 C1620 0.950 . S
H1610 C1622 0.950 . S
H1611 C1623 0.950 . S
C1612 H1604 0.950 . S
C1612 C1613 1.386 . S
C1612 C1614 1.391 . S
C1613 C1612 1.386 . S
C1613 C1617 1.393 . S
C1614 H1606 0.950 . S
C1614 C1612 1.391 . S
C1614 C1615 1.400 . S
C1615 C1614 1.400 . S
C1615 C1616 1.398 . S
C1615 C1621 1.491 . S
C1616 H1607 0.950 . S
C1616 C1615 1.398 . S
C1616 C1617 1.391 . S
C1617 H1605 0.950 . S
C1617 C1613 1.393 . S
C1617 C1616 1.391 . S
C1618 H1608 0.950 . S
C1618 C1619 1.386 . S
C1618 C1620 1.391 . S
C1619 C1618 1.386 . S
C1619 C1623 1.393 . S
C1620 H1609 0.950 . S
C1620 C1618 1.391 . S
C1620 C1621 1.400 . S
C1621 C1615 1.491 . S
C1621 C1620 1.400 . S
C1621 C1622 1.398 . S
C1622 H1610 0.950 . S
C1622 C1621 1.398 . S
C1622 C1623 1.391 . S
C1623 H1611 0.950 . S
C1623 C1619 1.393 . S
C1623 C1622 1.391 . S
H1624 C1632 0.950 . S
H1625 C1637 0.950 . S
H1626 C1634 0.950 . S
H1627 C1636 0.950 . S
H1628 C1638 0.950 . S
H1629 C1640 0.950 . S
H1630 C1642 0.950 . S
H1631 C1643 0.950 . S
C1632 H1624 0.950 . S
C1632 C1633 1.386 . S
C1632 C1634 1.391 . S
C1633 C1632 1.386 . S
C1633 C1637 1.393 . S
C1634 H1626 0.950 . S
C1634 C1632 1.391 . S
C1634 C1635 1.400 . S
C1635 C1634 1.400 . S
C1635 C1636 1.398 . S
C1635 C1641 1.491 . S
C1636 H1627 0.950 . S
C1636 C1635 1.398 . S
C1636 C1637 1.391 . S
C1637 H1625 0.950 . S
C1637 C1633 1.393 . S
C1637 C1636 1.391 . S
C1638 H1628 0.950 . S
C1638 C1639 1.386 . S
C1638 C1640 1.391 . S
C1639 C1638 1.386 . S
C1639 C1643 1.393 . S
C1640 H1629 0.950 . S
C1640 C1638 1.391 . S
C1640 C1641 1.400 . S
C1641 C1635 1.491 . S
C1641 C1640 1.400 . S
C1641 C1642 1.398 . S
C1642 H1630 0.950 . S
C1642 C1641 1.398 . S
C1642 C1643 1.391 . S
C1643 H1631 0.950 . S
C1643 C1639 1.393 . S
C1643 C1642 1.391 . S
H1644 C1652 0.950 . S
H1645 C1657 0.950 . S
H1646 C1654 0.950 . S
H1647 C1656 0.950 . S
H1648 C1658 0.950 . S
H1649 C1660 0.950 . S
H1650 C1662 0.950 . S
H1651 C1663 0.950 . S
C1652 H1644 0.950 . S
C1652 C1653 1.386 . S
C1652 C1654 1.391 . S
C1653 C1652 1.386 . S
C1653 C1657 1.393 . S
C1654 H1646 0.950 . S
C1654 C1652 1.391 . S
C1654 C1655 1.400 . S
C1655 C1654 1.400 . S
C1655 C1656 1.398 . S
C1655 C1661 1.491 . S
C1656 H1647 0.950 . S
C1656 C1655 1.398 . S
C1656 C1657 1.391 . S
C1657 H1645 0.950 . S
C1657 C1653 1.393 . S
C1657 C1656 1.391 . S
C1658 H1648 0.950 . S
C1658 C1659 1.386 . S
C1658 C1660 1.391 . S
C1659 C1658 1.386 . S
C1659 C1663 1.393 . S
C1660 H1649 0.950 . S
C1660 C1658 1.391 . S
C1660 C1661 1.400 . S
C1661 C1655 1.491 . S
C1661 C1660 1.400 . S
C1661 C1662 1.398 . S
C1662 H1650 0.950 . S
C1662 C1661 1.398 . S
C1662 C1663 1.391 . S
C1663 H1651 0.950 . S
C1663 C1659 1.393 . S
C1663 C1662 1.391 . S
H1664 C1672 0.950 . S
H1665 C1677 0.950 . S
H1666 C1674 0.950 . S
H1667 C1676 0.950 . S
H1668 C1678 0.950 . S
H1669 C1680 0.950 . S
H1670 C1682 0.950 . S
H1671 C1683 0.950 . S
C1672 H1664 0.950 . S
C1672 C1673 1.386 . S
C1672 C1674 1.391 . S
C1673 C1672 1.386 . S
C1673 C1677 1.393 . S
C1674 H1666 0.950 . S
C1674 C1672 1.391 . S
C1674 C1675 1.400 . S
C1675 C1674 1.400 . S
C1675 C1676 1.398 . S
C1675 C1681 1.491 . S
C1676 H1667 0.950 . S
C1676 C1675 1.398 . S
C1676 C1677 1.391 . S
C1677 H1665 0.950 . S
C1677 C1673 1.393 . S
C1677 C1676 1.391 . S
C1678 H1668 0.950 . S
C1678 C1679 1.386 . S
C1678 C1680 1.391 . S
C1679 C1678 1.386 . S
C1679 C1683 1.393 . S
C1680 H1669 0.950 . S
C1680 C1678 1.391 . S
C1680 C1681 1.400 . S
C1681 C1675 1.491 . S
C1681 C1680 1.400 . S
C1681 C1682 1.398 . S
C1682 H1670 0.950 . S
C1682 C1681 1.398 . S
C1682 C1683 1.391 . S
C1683 H1671 0.950 . S
C1683 C1679 1.393 . S
C1683 C1682 1.391 . S
H1684 C1692 0.950 . S
H1685 C1697 0.950 . S
H1686 C1694 0.950 . S
H1687 C1696 0.950 . S
H1688 C1698 0.950 . S
H1689 C1700 0.950 . S
H1690 C1702 0.950 . S
H1691 C1703 0.950 . S
C1692 H1684 0.950 . S
C1692 C1693 1.386 . S
C1692 C1694 1.391 . S
C1693 C1692 1.386 . S
C1693 C1697 1.393 . S
C1694 H1686 0.950 . S
C1694 C1692 1.391 . S
C1694 C1695 1.400 . S
C1695 C1694 1.400 . S
C1695 C1696 1.398 . S
C1695 C1701 1.491 . S
C1696 H1687 0.950 . S
C1696 C1695 1.398 . S
C1696 C1697 1.391 . S
C1697 H1685 0.950 . S
C1697 C1693 1.393 . S
C1697 C1696 1.391 . S
C1698 H1688 0.950 . S
C1698 C1699 1.386 . S
C1698 C1700 1.391 . S
C1699 C1698 1.386 . S
C1699 C1703 1.393 . S
C1700 H1689 0.950 . S
C1700 C1698 1.391 . S
C1700 C1701 1.400 . S
C1701 C1695 1.491 . S
C1701 C1700 1.400 . S
C1701 C1702 1.398 . S
C1702 H1690 0.950 . S
C1702 C1701 1.398 . S
C1702 C1703 1.391 . S
C1703 H1691 0.950 . S
C1703 C1699 1.393 . S
C1703 C1702 1.391 . S
H1704 C1712 0.950 . S
H1705 C1717 0.950 . S
H1706 C1714 0.950 . S
H1707 C1716 0.950 . S
H1708 C1718 0.950 . S
H1709 C1720 0.950 . S
H1710 C1722 0.950 . S
H1711 C1723 0.950 . S
C1712 H1704 0.950 . S
C1712 C1713 1.386 . S
C1712 C1714 1.391 . S
C1713 C1712 1.386 . S
C1713 C1717 1.393 . S
C1714 H1706 0.950 . S
C1714 C1712 1.391 . S
C1714 C1715 1.400 . S
C1715 C1714 1.400 . S
C1715 C1716 1.398 . S
C1715 C1721 1.491 . S
C1716 H1707 0.950 . S
C1716 C1715 1.398 . S
C1716 C1717 1.391 . S
C1717 H1705 0.950 . S
C1717 C1713 1.393 . S
C1717 C1716 1.391 . S
C1718 H1708 0.950 . S
C1718 C1719 1.386 . S
C1718 C1720 1.391 . S
C1719 C1718 1.386 . S
C1719 C1723 1.393 . S
C1720 H1709 0.950 . S
C1720 C1718 1.391 . S
C1720 C1721 1.400 . S
C1721 C1715 1.491 . S
C1721 C1720 1.400 . S
C1721 C1722 1.398 . S
C1722 H1710 0.950 . S
C1722 C1721 1.398 . S
C1722 C1723 1.391 . S
C1723 H1711 0.950 . S
C1723 C1719 1.393 . S
C1723 C1722 1.391 . S
H1724 C1732 0.950 . S
H1725 C1737 0.950 . S
H1726 C1734 0.950 . S
H1727 C1736 0.950 . S
H1728 C1738 0.950 . S
H1729 C1740 0.950 . S
H1730 C1742 0.950 . S
H1731 C1743 0.950 . S
C1732 H1724 0.950 . S
C1732 C1733 1.386 . S
C1732 C1734 1.391 . S
C1733 C1732 1.386 . S
C1733 C1737 1.393 . S
C1734 H1726 0.950 . S
C1734 C1732 1.391 . S
C1734 C1735 1.400 . S
C1735 C1734 1.400 . S
C1735 C1736 1.398 . S
C1735 C1741 1.491 . S
C1736 H1727 0.950 . S
C1736 C1735 1.398 . S
C1736 C1737 1.391 . S
C1737 H1725 0.950 . S
C1737 C1733 1.393 . S
C1737 C1736 1.391 . S
C1738 H1728 0.950 . S
C1738 C1739 1.386 . S
C1738 C1740 1.391 . S
C1739 C1738 1.386 . S
C1739 C1743 1.393 . S
C1740 H1729 0.950 . S
C1740 C1738 1.391 . S
C1740 C1741 1.400 . S
C1741 C1735 1.491 . S
C1741 C1740 1.400 . S
C1741 C1742 1.398 . S
C1742 H1730 0.950 . S
C1742 C1741 1.398 . S
C1742 C1743 1.391 . S
C1743 H1731 0.950 . S
C1743 C1739 1.393 . S
C1743 C1742 1.391 . S
H1744 C1752 0.950 . S
H1745 C1757 0.950 . S
H1746 C1754 0.950 . S
H1747 C1756 0.950 . S
H1748 C1758 0.950 . S
H1749 C1760 0.950 . S
H1750 C1762 0.950 . S
H1751 C1763 0.950 . S
C1752 H1744 0.950 . S
C1752 C1753 1.386 . S
C1752 C1754 1.391 . S
C1753 C1752 1.386 . S
C1753 C1757 1.393 . S
C1754 H1746 0.950 . S
C1754 C1752 1.391 . S
C1754 C1755 1.400 . S
C1755 C1754 1.400 . S
C1755 C1756 1.398 . S
C1755 C1761 1.491 . S
C1756 H1747 0.950 . S
C1756 C1755 1.398 . S
C1756 C1757 1.391 . S
C1757 H1745 0.950 . S
C1757 C1753 1.393 . S
C1757 C1756 1.391 . S
C1758 H1748 0.950 . S
C1758 C1759 1.386 . S
C1758 C1760 1.391 . S
C1759 C1758 1.386 . S
C1759 C1763 1.393 . S
C1760 H1749 0.950 . S
C1760 C1758 1.391 . S
C1760 C1761 1.400 . S
C1761 C1755 1.491 . S
C1761 C1760 1.400 . S
C1761 C1762 1.398 . S
C1762 H1750 0.950 . S
C1762 C1761 1.398 . S
C1762 C1763 1.391 . S
C1763 H1751 0.950 . S
C1763 C1759 1.393 . S
C1763 C1762 1.391 . S
H1764 C1772 0.950 . S
H1765 C1777 0.950 . S
H1766 C1774 0.950 . S
H1767 C1776 0.950 . S
H1768 C1778 0.950 . S
H1769 C1780 0.950 . S
H1770 C1782 0.950 . S
H1771 C1783 0.950 . S
C1772 H1764 0.950 . S
C1772 C1773 1.386 . S
C1772 C1774 1.391 . S
C1773 C1772 1.386 . S
C1773 C1777 1.393 . S
C1774 H1766 0.950 . S
C1774 C1772 1.391 . S
C1774 C1775 1.400 . S
C1775 C1774 1.400 . S
C1775 C1776 1.398 . S
C1775 C1781 1.491 . S
C1776 H1767 0.950 . S
C1776 C1775 1.398 . S
C1776 C1777 1.391 . S
C1777 H1765 0.950 . S
C1777 C1773 1.393 . S
C1777 C1776 1.391 . S
C1778 H1768 0.950 . S
C1778 C1779 1.386 . S
C1778 C1780 1.391 . S
C1779 C1778 1.386 . S
C1779 C1783 1.393 . S
C1780 H1769 0.950 . S
C1780 C1778 1.391 . S
C1780 C1781 1.400 . S
C1781 C1775 1.491 . S
C1781 C1780 1.400 . S
C1781 C1782 1.398 . S
C1782 H1770 0.950 . S
C1782 C1781 1.398 . S
C1782 C1783 1.391 . S
C1783 H1771 0.950 . S
C1783 C1779 1.393 . S
C1783 C1782 1.391 . S
H1784 C1792 0.950 . S
H1785 C1797 0.950 . S
H1786 C1794 0.950 . S
H1787 C1796 0.950 . S
H1788 C1798 0.950 . S
H1789 C1800 0.950 . S
H1790 C1802 0.950 . S
H1791 C1803 0.950 . S
C1792 H1784 0.950 . S
C1792 C1793 1.386 . S
C1792 C1794 1.391 . S
C1793 C1792 1.386 . S
C1793 C1797 1.393 . S
C1794 H1786 0.950 . S
C1794 C1792 1.391 . S
C1794 C1795 1.400 . S
C1795 C1794 1.400 . S
C1795 C1796 1.398 . S
C1795 C1801 1.491 . S
C1796 H1787 0.950 . S
C1796 C1795 1.398 . S
C1796 C1797 1.391 . S
C1797 H1785 0.950 . S
C1797 C1793 1.393 . S
C1797 C1796 1.391 . S
C1798 H1788 0.950 . S
C1798 C1799 1.386 . S
C1798 C1800 1.391 . S
C1799 C1798 1.386 . S
C1799 C1803 1.393 . S
C1800 H1789 0.950 . S
C1800 C1798 1.391 . S
C1800 C1801 1.400 . S
C1801 C1795 1.491 . S
C1801 C1800 1.400 . S
C1801 C1802 1.398 . S
C1802 H1790 0.950 . S
C1802 C1801 1.398 . S
C1802 C1803 1.391 . S
C1803 H1791 0.950 . S
C1803 C1799 1.393 . S
C1803 C1802 1.391 . S
H1804 C1812 0.950 . S
H1805 C1817 0.950 . S
H1806 C1814 0.950 . S
H1807 C1816 0.950 . S
H1808 C1818 0.950 . S
H1809 C1820 0.950 . S
H1810 C1822 0.950 . S
H1811 C1823 0.950 . S
C1812 H1804 0.950 . S
C1812 C1813 1.386 . S
C1812 C1814 1.391 . S
C1813 C1812 1.386 . S
C1813 C1817 1.393 . S
C1814 H1806 0.950 . S
C1814 C1812 1.391 . S
C1814 C1815 1.400 . S
C1815 C1814 1.400 . S
C1815 C1816 1.398 . S
C1815 C1821 1.491 . S
C1816 H1807 0.950 . S
C1816 C1815 1.398 . S
C1816 C1817 1.391 . S
C1817 H1805 0.950 . S
C1817 C1813 1.393 . S
C1817 C1816 1.391 . S
C1818 H1808 0.950 . S
C1818 C1819 1.386 . S
C1818 C1820 1.391 . S
C1819 C1818 1.386 . S
C1819 C1823 1.393 . S
C1820 H1809 0.950 . S
C1820 C1818 1.391 . S
C1820 C1821 1.400 . S
C1821 C1815 1.491 . S
C1821 C1820 1.400 . S
C1821 C1822 1.398 . S
C1822 H1810 0.950 . S
C1822 C1821 1.398 . S
C1822 C1823 1.391 . S
C1823 H1811 0.950 . S
C1823 C1819 1.393 . S
C1823 C1822 1.391 . S
H1824 C1832 0.950 . S
H1825 C1837 0.950 . S
H1826 C1834 0.950 . S
H1827 C1836 0.950 . S
H1828 C1838 0.950 . S
H1829 C1840 0.950 . S
H1830 C1842 0.950 . S
H1831 C1843 0.950 . S
C1832 H1824 0.950 . S
C1832 C1833 1.386 . S
C1832 C1834 1.391 . S
C1833 C1832 1.386 . S
C1833 C1837 1.393 . S
C1834 H1826 0.950 . S
C1834 C1832 1.391 . S
C1834 C1835 1.400 . S
C1835 C1834 1.400 . S
C1835 C1836 1.398 . S
C1835 C1841 1.491 . S
C1836 H1827 0.950 . S
C1836 C1835 1.398 . S
C1836 C1837 1.391 . S
C1837 H1825 0.950 . S
C1837 C1833 1.393 . S
C1837 C1836 1.391 . S
C1838 H1828 0.950 . S
C1838 C1839 1.386 . S
C1838 C1840 1.391 . S
C1839 C1838 1.386 . S
C1839 C1843 1.393 . S
C1840 H1829 0.950 . S
C1840 C1838 1.391 . S
C1840 C1841 1.400 . S
C1841 C1835 1.491 . S
C1841 C1840 1.400 . S
C1841 C1842 1.398 . S
C1842 H1830 0.950 . S
C1842 C1841 1.398 . S
C1842 C1843 1.391 . S
C1843 H1831 0.950 . S
C1843 C1839 1.393 . S
C1843 C1842 1.391 . S
H1844 C1852 0.950 . S
H1845 C1857 0.950 . S
H1846 C1854 0.950 . S
H1847 C1856 0.950 . S
H1848 C1858 0.950 . S
H1849 C1860 0.950 . S
H1850 C1862 0.950 . S
H1851 C1863 0.950 . S
C1852 H1844 0.950 . S
C1852 C1853 1.386 . S
C1852 C1854 1.391 . S
C1853 C1852 1.386 . S
C1853 C1857 1.393 . S
C1854 H1846 0.950 . S
C1854 C1852 1.391 . S
C1854 C1855 1.400 . S
C1855 C1854 1.400 . S
C1855 C1856 1.398 . S
C1855 C1861 1.491 . S
C1856 H1847 0.950 . S
C1856 C1855 1.398 . S
C1856 C1857 1.391 . S
C1857 H1845 0.950 . S
C1857 C1853 1.393 . S
C1857 C1856 1.391 . S
C1858 H1848 0.950 . S
C1858 C1859 1.386 . S
C1858 C1860 1.391 . S
C1859 C1858 1.386 . S
C1859 C1863 1.393 . S
C1860 H1849 0.950 . S
C1860 C1858 1.391 . S
C1860 C1861 1.400 . S
C1861 C1855 1.491 . S
C1861 C1860 1.400 . S
C1861 C1862 1.398 . S
C1862 H1850 0.950 . S
C1862 C1861 1.398 . S
C1862 C1863 1.391 . S
C1863 H1851 0.950 . S
C1863 C1859 1.393 . S
C1863 C1862 1.391 . S
H1864 C1872 0.950 . S
H1865 C1877 0.950 . S
H1866 C1874 0.950 . S
H1867 C1876 0.950 . S
H1868 C1878 0.950 . S
H1869 C1880 0.950 . S
H1870 C1882 0.950 . S
H1871 C1883 0.950 . S
C1872 H1864 0.950 . S
C1872 C1873 1.386 . S
C1872 C1874 1.391 . S
C1873 C1872 1.386 . S
C1873 C1877 1.393 . S
C1874 H1866 0.950 . S
C1874 C1872 1.391 . S
C1874 C1875 1.400 . S
C1875 C1874 1.400 . S
C1875 C1876 1.398 . S
C1875 C1881 1.491 . S
C1876 H1867 0.950 . S
C1876 C1875 1.398 . S
C1876 C1877 1.391 . S
C1877 H1865 0.950 . S
C1877 C1873 1.393 . S
C1877 C1876 1.391 . S
C1878 H1868 0.950 . S
C1878 C1879 1.386 . S
C1878 C1880 1.391 . S
C1879 C1878 1.386 . S
C1879 C1883 1.393 . S
C1880 H1869 0.950 . S
C1880 C1878 1.391 . S
C1880 C1881 1.400 . S
C1881 C1875 1.491 . S
C1881 C1880 1.400 . S
C1881 C1882 1.398 . S
C1882 H1870 0.950 . S
C1882 C1881 1.398 . S
C1882 C1883 1.391 . S
C1883 H1871 0.950 . S
C1883 C1879 1.393 . S
C1883 C1882 1.391 . S
H1884 C1892 0.950 . S
H1885 C1897 0.950 . S
H1886 C1894 0.950 . S
H1887 C1896 0.950 . S
H1888 C1898 0.950 . S
H1889 C1900 0.950 . S
H1890 C1902 0.950 . S
H1891 C1903 0.950 . S
C1892 H1884 0.950 . S
C1892 C1893 1.386 . S
C1892 C1894 1.391 . S
C1893 C1892 1.386 . S
C1893 C1897 1.393 . S
C1894 H1886 0.950 . S
C1894 C1892 1.391 . S
C1894 C1895 1.400 . S
C1895 C1894 1.400 . S
C1895 C1896 1.398 . S
C1895 C1901 1.491 . S
C1896 H1887 0.950 . S
C1896 C1895 1.398 . S
C1896 C1897 1.391 . S
C1897 H1885 0.950 . S
C1897 C1893 1.393 . S
C1897 C1896 1.391 . S
C1898 H1888 0.950 . S
C1898 C1899 1.386 . S
C1898 C1900 1.391 . S
C1899 C1898 1.386 . S
C1899 C1903 1.393 . S
C1900 H1889 0.950 . S
C1900 C1898 1.391 . S
C1900 C1901 1.400 . S
C1901 C1895 1.491 . S
C1901 C1900 1.400 . S
C1901 C1902 1.398 . S
C1902 H1890 0.950 . S
C1902 C1901 1.398 . S
C1902 C1903 1.391 . S
C1903 H1891 0.950 . S
C1903 C1899 1.393 . S
C1903 C1902 1.391 . S
H1904 C1912 0.950 . S
H1905 C1917 0.950 . S
H1906 C1914 0.950 . S
H1907 C1916 0.950 . S
H1908 C1918 0.950 . S
H1909 C1920 0.950 . S
H1910 C1922 0.950 . S
H1911 C1923 0.950 . S
C1912 H1904 0.950 . S
C1912 C1913 1.386 . S
C1912 C1914 1.391 . S
C1913 C1912 1.386 . S
C1913 C1917 1.393 . S
C1914 H1906 0.950 . S
C1914 C1912 1.391 . S
C1914 C1915 1.400 . S
C1915 C1914 1.400 . S
C1915 C1916 1.398 . S
C1915 C1921 1.491 . S
C1916 H1907 0.950 . S
C1916 C1915 1.398 . S
C1916 C1917 1.391 . S
C1917 H1905 0.950 . S
C1917 C1913 1.393 . S
C1917 C1916 1.391 . S
C1918 H1908 0.950 . S
C1918 C1919 1.386 . S
C1918 C1920 1.391 . S
C1919 C1918 1.386 . S
C1919 C1923 1.393 . S
C1920 H1909 0.950 . S
C1920 C1918 1.391 . S
C1920 C1921 1.400 . S
C1921 C1915 1.491 . S
C1921 C1920 1.400 . S
C1921 C1922 1.398 . S
C1922 H1910 0.950 . S
C1922 C1921 1.398 . S
C1922 C1923 1.391 . S
C1923 H1911 0.950 . S
C1923 C1919 1.393 . S
C1923 C1922 1.391 . S
H1924 C1932 0.950 . S
H1925 C1937 0.950 . S
H1926 C1934 0.950 . S
H1927 C1936 0.950 . S
H1928 C1938 0.950 . S
H1929 C1940 0.950 . S
H1930 C1942 0.950 . S
H1931 C1943 0.950 . S
C1932 H1924 0.950 . S
C1932 C1933 1.386 . S
C1932 C1934 1.391 . S
C1933 C1932 1.386 . S
C1933 C1937 1.393 . S
C1934 H1926 0.950 . S
C1934 C1932 1.391 . S
C1934 C1935 1.400 . S
C1935 C1934 1.400 . S
C1935 C1936 1.398 . S
C1935 C1941 1.491 . S
C1936 H1927 0.950 . S
C1936 C1935 1.398 . S
C1936 C1937 1.391 . S
C1937 H1925 0.950 . S
C1937 C1933 1.393 . S
C1937 C1936 1.391 . S
C1938 H1928 0.950 . S
C1938 C1939 1.386 . S
C1938 C1940 1.391 . S
C1939 C1938 1.386 . S
C1939 C1943 1.393 . S
C1940 H1929 0.950 . S
C1940 C1938 1.391 . S
C1940 C1941 1.400 . S
C1941 C1935 1.491 . S
C1941 C1940 1.400 . S
C1941 C1942 1.398 . S
C1942 H1930 0.950 . S
C1942 C1941 1.398 . S
C1942 C1943 1.391 . S
C1943 H1931 0.950 . S
C1943 C1939 1.393 . S
C1943 C1942 1.391 . S
H1944 C1952 0.950 . S
H1945 C1957 0.950 . S
H1946 C1954 0.950 . S
H1947 C1956 0.950 . S
H1948 C1958 0.950 . S
H1949 C1960 0.950 . S
H1950 C1962 0.950 . S
H1951 C1963 0.950 . S
C1952 H1944 0.950 . S
C1952 C1953 1.386 . S
C1952 C1954 1.391 . S
C1953 C1952 1.386 . S
C1953 C1957 1.393 . S
C1954 H1946 0.950 . S
C1954 C1952 1.391 . S
C1954 C1955 1.400 . S
C1955 C1954 1.400 . S
C1955 C1956 1.398 . S
C1955 C1961 1.491 . S
C1956 H1947 0.950 . S
C1956 C1955 1.398 . S
C1956 C1957 1.391 . S
C1957 H1945 0.950 . S
C1957 C1953 1.393 . S
C1957 C1956 1.391 . S
C1958 H1948 0.950 . S
C1958 C1959 1.386 . S
C1958 C1960 1.391 . S
C1959 C1958 1.386 . S
C1959 C1963 1.393 . S
C1960 H1949 0.950 . S
C1960 C1958 1.391 . S
C1960 C1961 1.400 . S
C1961 C1955 1.491 . S
C1961 C1960 1.400 . S
C1961 C1962 1.398 . S
C1962 H1950 0.950 . S
C1962 C1961 1.398 . S
C1962 C1963 1.391 . S
C1963 H1951 0.950 . S
C1963 C1959 1.393 . S
C1963 C1962 1.391 . S
H1964 C1972 0.950 . S
H1965 C1977 0.950 . S
H1966 C1974 0.950 . S
H1967 C1976 0.950 . S
H1968 C1978 0.950 . S
H1969 C1980 0.950 . S
H1970 C1982 0.950 . S
H1971 C1983 0.950 . S
C1972 H1964 0.950 . S
C1972 C1973 1.386 . S
C1972 C1974 1.391 . S
C1973 C1972 1.386 . S
C1973 C1977 1.393 . S
C1974 H1966 0.950 . S
C1974 C1972 1.391 . S
C1974 C1975 1.400 . S
C1975 C1974 1.400 . S
C1975 C1976 1.398 . S
C1975 C1981 1.491 . S
C1976 H1967 0.950 . S
C1976 C1975 1.398 . S
C1976 C1977 1.391 . S
C1977 H1965 0.950 . S
C1977 C1973 1.393 . S
C1977 C1976 1.391 . S
C1978 H1968 0.950 . S
C1978 C1979 1.386 . S
C1978 C1980 1.391 . S
C1979 C1978 1.386 . S
C1979 C1983 1.393 . S
C1980 H1969 0.950 . S
C1980 C1978 1.391 . S
C1980 C1981 1.400 . S
C1981 C1975 1.491 . S
C1981 C1980 1.400 . S
C1981 C1982 1.398 . S
C1982 H1970 0.950 . S
C1982 C1981 1.398 . S
C1982 C1983 1.391 . S
C1983 H1971 0.950 . S
C1983 C1979 1.393 . S
C1983 C1982 1.391 . S
H1984 C1992 0.950 . S
H1985 C1997 0.950 . S
H1986 C1994 0.950 . S
H1987 C1996 0.950 . S
H1988 C1998 0.950 . S
H1989 C2000 0.950 . S
H1990 C2002 0.950 . S
H1991 C2003 0.950 . S
C1992 H1984 0.950 . S
C1992 C1993 1.386 . S
C1992 C1994 1.391 . S
C1993 C1992 1.386 . S
C1993 C1997 1.393 . S
C1994 H1986 0.950 . S
C1994 C1992 1.391 . S
C1994 C1995 1.400 . S
C1995 C1994 1.400 . S
C1995 C1996 1.398 . S
C1995 C2001 1.491 . S
C1996 H1987 0.950 . S
C1996 C1995 1.398 . S
C1996 C1997 1.391 . S
C1997 H1985 0.950 . S
C1997 C1993 1.393 . S
C1997 C1996 1.391 . S
C1998 H1988 0.950 . S
C1998 C1999 1.386 . S
C1998 C2000 1.391 . S
C1999 C1998 1.386 . S
C1999 C2003 1.393 . S
C2000 H1989 0.950 . S
C2000 C1998 1.391 . S
C2000 C2001 1.400 . S
C2001 C1995 1.491 . S
C2001 C2000 1.400 . S
C2001 C2002 1.398 . S
C2002 H1990 0.950 . S
C2002 C2001 1.398 . S
C2002 C2003 1.391 . S
C2003 H1991 0.950 . S
C2003 C1999 1.393 . S
C2003 C2002 1.391 . S
H2004 C2012 0.950 . S
H2005 C2017 0.950 . S
H2006 C2014 0.950 . S
H2007 C2016 0.950 . S
H2008 C2018 0.950 . S
H2009 C2020 0.950 . S
H2010 C2022 0.950 . S
H2011 C2023 0.950 . S
C2012 H2004 0.950 . S
C2012 C2013 1.386 . S
C2012 C2014 1.391 . S
C2013 C2012 1.386 . S
C2013 C2017 1.393 . S
C2014 H2006 0.950 . S
C2014 C2012 1.391 . S
C2014 C2015 1.400 . S
C2015 C2014 1.400 . S
C2015 C2016 1.398 . S
C2015 C2021 1.491 . S
C2016 H2007 0.950 . S
C2016 C2015 1.398 . S
C2016 C2017 1.391 . S
C2017 H2005 0.950 . S
C2017 C2013 1.393 . S
C2017 C2016 1.391 . S
C2018 H2008 0.950 . S
C2018 C2019 1.386 . S
C2018 C2020 1.391 . S
C2019 C2018 1.386 . S
C2019 C2023 1.393 . S
C2020 H2009 0.950 . S
C2020 C2018 1.391 . S
C2020 C2021 1.400 . S
C2021 C2015 1.491 . S
C2021 C2020 1.400 . S
C2021 C2022 1.398 . S
C2022 H2010 0.950 . S
C2022 C2021 1.398 . S
C2022 C2023 1.391 . S
C2023 H2011 0.950 . S
C2023 C2019 1.393 . S
C2023 C2022 1.391 . S
H2024 C2032 0.950 . S
H2025 C2037 0.950 . S
H2026 C2034 0.950 . S
H2027 C2036 0.950 . S
H2028 C2038 0.950 . S
H2029 C2040 0.950 . S
H2030 C2042 0.950 . S
H2031 C2043 0.950 . S
C2032 H2024 0.950 . S
C2032 C2033 1.386 . S
C2032 C2034 1.391 . S
C2033 C2032 1.386 . S
C2033 C2037 1.393 . S
C2034 H2026 0.950 . S
C2034 C2032 1.391 . S
C2034 C2035 1.400 . S
C2035 C2034 1.400 . S
C2035 C2036 1.398 . S
C2035 C2041 1.491 . S
C2036 H2027 0.950 . S
C2036 C2035 1.398 . S
C2036 C2037 1.391 . S
C2037 H2025 0.950 . S
C2037 C2033 1.393 . S
C2037 C2036 1.391 . S
C2038 H2028 0.950 . S
C2038 C2039 1.386 . S
C2038 C2040 1.391 . S
C2039 C2038 1.386 . S
C2039 C2043 1.393 . S
C2040 H2029 0.950 . S
C2040 C2038 1.391 . S
C2040 C2041 1.400 . S
C2041 C2035 1.491 . S
C2041 C2040 1.400 . S
C2041 C2042 1.398 . S
C2042 H2030 0.950 . S
C2042 C2041 1.398 . S
C2042 C2043 1.391 . S
C2043 H2031 0.950 . S
C2043 C2039 1.393 . S
C2043 C2042 1.391 . S
H2044 C2052 0.950 . S
H2045 C2057 0.950 . S
H2046 C2054 0.950 . S
H2047 C2056 0.950 . S
H2048 C2058 0.950 . S
H2049 C2060 0.950 . S
H2050 C2062 0.950 . S
H2051 C2063 0.950 . S
C2052 H2044 0.950 . S
C2052 C2053 1.386 . S
C2052 C2054 1.391 . S
C2053 C2052 1.386 . S
C2053 C2057 1.393 . S
C2054 H2046 0.950 . S
C2054 C2052 1.391 . S
C2054 C2055 1.400 . S
C2055 C2054 1.400 . S
C2055 C2056 1.398 . S
C2055 C2061 1.491 . S
C2056 H2047 0.950 . S
C2056 C2055 1.398 . S
C2056 C2057 1.391 . S
C2057 H2045 0.950 . S
C2057 C2053 1.393 . S
C2057 C2056 1.391 . S
C2058 H2048 0.950 . S
C2058 C2059 1.386 . S
C2058 C2060 1.391 . S
C2059 C2058 1.386 . S
C2059 C2063 1.393 . S
C2060 H2049 0.950 . S
C2060 C2058 1.391 . S
C2060 C2061 1.400 . S
C2061 C2055 1.491 . S
C2061 C2060 1.400 . S
C2061 C2062 1.398 . S
C2062 H2050 0.950 . S
C2062 C2061 1.398 . S
C2062 C2063 1.391 . S
C2063 H2051 0.950 . S
C2063 C2059 1.393 . S
C2063 C2062 1.391 . S
H2064 C2072 0.950 . S
H2065 C2077 0.950 . S
H2066 C2074 0.950 . S
H2067 C2076 0.950 1_455 S
H2068 C2078 0.950 . S
H2069 C2080 0.950 . S
H2070 C2082 0.950 1_655 S
H2071 C2083 0.950 . S
C2072 H2064 0.950 . S
C2072 C2073 1.386 . S
C2072 C2074 1.391 . S
C2073 C2072 1.386 . S
C2073 C2077 1.393 . S
C2074 H2066 0.950 . S
C2074 C2072 1.391 . S
C2074 C2075 1.400 . S
C2075 C2074 1.400 . S
C2075 C2076 1.398 . S
C2075 C2081 1.491 1_655 S
C2076 H2067 0.950 1_655 S
C2076 C2075 1.398 . S
C2076 C2077 1.391 . S
C2077 H2065 0.950 . S
C2077 C2073 1.393 . S
C2077 C2076 1.391 . S
C2078 H2068 0.950 . S
C2078 C2079 1.386 . S
C2078 C2080 1.391 . S
C2079 C2078 1.386 . S
C2079 C2083 1.393 . S
C2080 H2069 0.950 . S
C2080 C2078 1.391 . S
C2080 C2081 1.400 . S
C2081 C2075 1.491 1_455 S
C2081 C2080 1.400 . S
C2081 C2082 1.398 . S
C2082 H2070 0.950 1_455 S
C2082 C2081 1.398 . S
C2082 C2083 1.391 . S
C2083 H2071 0.950 . S
C2083 C2079 1.393 . S
C2083 C2082 1.391 . S
H2084 C2092 0.950 . S
H2085 C2097 0.950 . S
H2086 C2094 0.965 . S
H2087 C2096 0.950 . S
H2088 C2098 0.950 . S
H2089 C2100 0.965 . S
H2090 C2102 0.950 . S
H2091 C2103 0.950 . S
C2092 H2084 0.950 . S
C2092 C2093 1.386 . S
C2092 C2094 1.391 . S
C2093 C2092 1.386 . S
C2093 C2097 1.393 . S
C2094 H2086 0.965 . S
C2094 C2092 1.391 . S
C2094 C2095 1.400 . S
C2095 C2094 1.400 . S
C2095 C2096 1.398 . S
C2095 C2101 1.491 1_545 S
C2096 H2087 0.950 . S
C2096 C2095 1.398 . S
C2096 C2097 1.391 . S
C2097 H2085 0.950 . S
C2097 C2093 1.393 . S
C2097 C2096 1.391 . S
C2098 H2088 0.950 . S
C2098 C2099 1.386 . S
C2098 C2100 1.391 . S
C2099 C2098 1.386 . S
C2099 C2103 1.393 . S
C2100 H2089 0.965 . S
C2100 C2098 1.391 . S
C2100 C2101 1.400 . S
C2101 C2095 1.491 1_565 S
C2101 C2100 1.400 . S
C2101 C2102 1.398 . S
C2102 H2090 0.950 . S
C2102 C2101 1.398 . S
C2102 C2103 1.391 . S
C2103 H2091 0.950 . S
C2103 C2099 1.393 . S
C2103 C2102 1.391 . S
H2104 C2112 0.950 . S
H2105 C2117 0.963 . S
H2106 C2114 0.950 . S
H2107 C2116 0.950 . S
H2108 C2118 0.950 . S
H2109 C2120 0.950 . S
H2110 C2122 0.950 . S
H2111 C2123 0.963 . S
C2112 H2104 0.950 . S
C2112 C2113 1.386 . S
C2112 C2114 1.391 . S
C2113 C2112 1.386 . S
C2113 C2117 1.393 . S
C2114 H2106 0.950 . S
C2114 C2112 1.391 . S
C2114 C2115 1.400 . S
C2115 C2114 1.400 . S
C2115 C2116 1.398 1_655 S
C2115 C2121 1.491 1_655 S
C2116 H2107 0.950 . S
C2116 C2115 1.398 1_455 S
C2116 C2117 1.391 1_455 S
C2117 H2105 0.963 . S
C2117 C2113 1.393 . S
C2117 C2116 1.391 1_655 S
C2118 H2108 0.950 . S
C2118 C2119 1.386 . S
C2118 C2120 1.391 . S
C2119 C2118 1.386 . S
C2119 C2123 1.393 . S
C2120 H2109 0.950 . S
C2120 C2118 1.391 . S
C2120 C2121 1.400 . S
C2121 C2115 1.491 1_455 S
C2121 C2120 1.400 . S
C2121 C2122 1.398 1_455 S
C2122 H2110 0.950 . S
C2122 C2121 1.398 1_655 S
C2122 C2123 1.391 1_655 S
C2123 H2111 0.963 . S
C2123 C2119 1.393 . S
C2123 C2122 1.391 1_455 S
H2124 C2132 0.950 . S
H2125 C2137 0.950 . S
H2126 C2134 0.950 . S
H2127 C2136 0.961 . S
H2128 C2138 0.950 . S
H2129 C2140 0.950 . S
H2130 C2142 0.961 . S
H2131 C2143 0.950 . S
C2132 H2124 0.950 . S
C2132 C2133 1.386 . S
C2132 C2134 1.391 . S
C2133 C2132 1.386 . S
C2133 C2137 1.393 . S
C2134 H2126 0.950 . S
C2134 C2132 1.391 . S
C2134 C2135 1.400 . S
C2135 C2134 1.400 . S
C2135 C2136 1.394 1_565 S
C2135 C2141 1.491 1_565 S
C2136 H2127 0.961 . S
C2136 C2135 1.394 1_545 S
C2136 C2137 1.383 1_545 S
C2137 H2125 0.950 . S
C2137 C2133 1.393 . S
C2137 C2136 1.383 1_565 S
C2138 H2128 0.950 . S
C2138 C2139 1.386 . S
C2138 C2140 1.391 . S
C2139 C2138 1.386 . S
C2139 C2143 1.393 . S
C2140 H2129 0.950 . S
C2140 C2138 1.391 . S
C2140 C2141 1.400 . S
C2141 C2135 1.491 1_545 S
C2141 C2140 1.400 . S
C2141 C2142 1.394 1_545 S
C2142 H2130 0.961 . S
C2142 C2141 1.394 1_565 S
C2142 C2143 1.383 1_565 S
C2143 H2131 0.950 . S
C2143 C2139 1.393 . S
C2143 C2142 1.383 1_545 S
H2144 C2152 0.950 . S
H2145 C2157 0.950 . S
H2146 C2154 0.950 . S
H2147 C2156 0.950 1_565 S
H2148 C2158 0.950 . S
H2149 C2160 0.950 . S
H2150 C2162 0.950 1_545 S
H2151 C2163 0.950 . S
C2152 H2144 0.950 . S
C2152 C2153 1.386 . S
C2152 C2154 1.391 . S
C2153 C2152 1.386 . S
C2153 C2157 1.393 . S
C2154 H2146 0.950 . S
C2154 C2152 1.391 . S
C2154 C2155 1.400 . S
C2155 C2154 1.400 . S
C2155 C2156 1.398 . S
C2155 C2161 1.491 1_545 S
C2156 H2147 0.950 1_545 S
C2156 C2155 1.398 . S
C2156 C2157 1.391 . S
C2157 H2145 0.950 . S
C2157 C2153 1.393 . S
C2157 C2156 1.391 . S
C2158 H2148 0.950 . S
C2158 C2159 1.386 . S
C2158 C2160 1.391 . S
C2159 C2158 1.386 . S
C2159 C2163 1.393 . S
C2160 H2149 0.950 . S
C2160 C2158 1.391 . S
C2160 C2161 1.400 . S
C2161 C2155 1.491 1_565 S
C2161 C2160 1.400 . S
C2161 C2162 1.398 . S
C2162 H2150 0.950 1_565 S
C2162 C2161 1.398 . S
C2162 C2163 1.391 . S
C2163 H2151 0.950 . S
C2163 C2159 1.393 . S
C2163 C2162 1.391 . S
H2164 C2172 0.973 . S
H2165 C2177 0.950 . S
H2166 C2174 0.950 . S
H2167 C2176 0.950 . S
H2168 C2178 0.973 . S
H2169 C2180 0.950 . S
H2170 C2182 0.950 . S
H2171 C2183 0.950 . S
C2172 H2164 0.973 . S
C2172 C2173 1.386 . S
C2172 C2174 1.391 1_455 S
C2173 C2172 1.386 . S
C2173 C2177 1.393 . S
C2174 H2166 0.950 . S
C2174 C2172 1.391 1_655 S
C2174 C2175 1.400 1_655 S
C2175 C2174 1.400 1_455 S
C2175 C2176 1.398 . S
C2175 C2181 1.491 1_455 S
C2176 H2167 0.950 . S
C2176 C2175 1.398 . S
C2176 C2177 1.391 . S
C2177 H2165 0.950 . S
C2177 C2173 1.393 . S
C2177 C2176 1.391 . S
C2178 H2168 0.973 . S
C2178 C2179 1.386 . S
C2178 C2180 1.391 1_655 S
C2179 C2178 1.386 . S
C2179 C2183 1.393 . S
C2180 H2169 0.950 . S
C2180 C2178 1.391 1_455 S
C2180 C2181 1.400 1_455 S
C2181 C2175 1.491 1_655 S
C2181 C2180 1.400 1_655 S
C2181 C2182 1.398 . S
C2182 H2170 0.950 . S
C2182 C2181 1.398 . S
C2182 C2183 1.391 . S
C2183 H2171 0.950 . S
C2183 C2179 1.393 . S
C2183 C2182 1.391 . S
H2184 C2192 0.950 . S
H2185 C2197 0.950 . S
H2186 C2194 0.950 . S
H2187 C2196 0.950 1_565 S
H2188 C2198 0.950 . S
H2189 C2200 0.950 . S
H2190 C2202 0.950 1_545 S
H2191 C2203 0.950 . S
C2192 H2184 0.950 . S
C2192 C2193 1.386 . S
C2192 C2194 1.391 . S
C2193 C2192 1.386 . S
C2193 C2197 1.393 . S
C2194 H2186 0.950 . S
C2194 C2192 1.391 . S
C2194 C2195 1.400 . S
C2195 C2194 1.400 . S
C2195 C2196 1.398 . S
C2195 C2201 1.491 1_545 S
C2196 H2187 0.950 1_545 S
C2196 C2195 1.398 . S
C2196 C2197 1.391 . S
C2197 H2185 0.950 . S
C2197 C2193 1.393 . S
C2197 C2196 1.391 . S
C2198 H2188 0.950 . S
C2198 C2199 1.386 . S
C2198 C2200 1.391 . S
C2199 C2198 1.386 . S
C2199 C2203 1.393 . S
C2200 H2189 0.950 . S
C2200 C2198 1.391 . S
C2200 C2201 1.400 . S
C2201 C2195 1.491 1_565 S
C2201 C2200 1.400 . S
C2201 C2202 1.398 . S
C2202 H2190 0.950 1_565 S
C2202 C2201 1.398 . S
C2202 C2203 1.391 . S
C2203 H2191 0.950 . S
C2203 C2199 1.393 . S
C2203 C2202 1.391 . S
H2204 C2212 0.950 . S
H2205 C2217 0.950 . S
H2206 C2214 0.950 . S
H2207 C2216 0.950 1_455 S
H2208 C2218 0.950 . S
H2209 C2220 0.950 . S
H2210 C2222 0.950 1_655 S
H2211 C2223 0.950 . S
C2212 H2204 0.950 . S
C2212 C2213 1.386 . S
C2212 C2214 1.391 . S
C2213 C2212 1.386 . S
C2213 C2217 1.393 . S
C2214 H2206 0.950 . S
C2214 C2212 1.391 . S
C2214 C2215 1.400 . S
C2215 C2214 1.400 . S
C2215 C2216 1.398 . S
C2215 C2221 1.491 1_655 S
C2216 H2207 0.950 1_655 S
C2216 C2215 1.398 . S
C2216 C2217 1.391 . S
C2217 H2205 0.950 . S
C2217 C2213 1.393 . S
C2217 C2216 1.391 . S
C2218 H2208 0.950 . S
C2218 C2219 1.386 . S
C2218 C2220 1.391 . S
C2219 C2218 1.386 . S
C2219 C2223 1.393 . S
C2220 H2209 0.950 . S
C2220 C2218 1.391 . S
C2220 C2221 1.400 . S
C2221 C2215 1.491 1_455 S
C2221 C2220 1.400 . S
C2221 C2222 1.398 . S
C2222 H2210 0.950 1_455 S
C2222 C2221 1.398 . S
C2222 C2223 1.391 . S
C2223 H2211 0.950 . S
C2223 C2219 1.393 . S
C2223 C2222 1.391 . S
H2224 C2232 0.950 . S
H2225 C2237 0.950 . S
H2226 C2234 0.950 . S
H2227 C2236 0.950 . S
H2228 C2238 0.950 . S
H2229 C2240 0.950 . S
H2230 C2242 0.950 . S
H2231 C2243 0.950 . S
C2232 H2224 0.950 . S
C2232 C2233 1.386 . S
C2232 C2234 1.391 1_556 S
C2233 C2232 1.386 . S
C2233 C2237 1.393 . S
C2234 H2226 0.950 . S
C2234 C2232 1.391 1_554 S
C2234 C2235 1.400 1_554 S
C2235 C2234 1.400 1_556 S
C2235 C2236 1.398 . S
C2235 C2241 1.491 1_556 S
C2236 H2227 0.950 . S
C2236 C2235 1.398 . S
C2236 C2237 1.391 . S
C2237 H2225 0.950 . S
C2237 C2233 1.393 . S
C2237 C2236 1.391 . S
C2238 H2228 0.950 . S
C2238 C2239 1.386 . S
C2238 C2240 1.391 1_554 S
C2239 C2238 1.386 . S
C2239 C2243 1.393 . S
C2240 H2229 0.950 . S
C2240 C2238 1.391 1_556 S
C2240 C2241 1.400 1_556 S
C2241 C2235 1.491 1_554 S
C2241 C2240 1.400 1_554 S
C2241 C2242 1.398 . S
C2242 H2230 0.950 . S
C2242 C2241 1.398 . S
C2242 C2243 1.391 . S
C2243 H2231 0.950 . S
C2243 C2239 1.393 . S
C2243 C2242 1.391 . S
H2244 C2252 0.950 . S
H2245 C2257 0.950 . S
H2246 C2254 0.950 . S
H2247 C2256 0.950 . S
H2248 C2258 0.950 . S
H2249 C2260 0.950 . S
H2250 C2262 0.950 . S
H2251 C2263 0.950 . S
C2252 H2244 0.950 . S
C2252 C2253 1.386 . S
C2252 C2254 1.391 . S
C2253 C2252 1.386 . S
C2253 C2257 1.393 . S
C2254 H2246 0.950 . S
C2254 C2252 1.391 . S
C2254 C2255 1.400 . S
C2255 C2254 1.400 . S
C2255 C2256 1.398 1_556 S
C2255 C2261 1.491 1_556 S
C2256 H2247 0.950 . S
C2256 C2255 1.398 1_554 S
C2256 C2257 1.391 1_554 S
C2257 H2245 0.950 . S
C2257 C2253 1.393 . S
C2257 C2256 1.391 1_556 S
C2258 H2248 0.950 . S
C2258 C2259 1.386 . S
C2258 C2260 1.391 . S
C2259 C2258 1.386 . S
C2259 C2263 1.393 . S
C2260 H2249 0.950 . S
C2260 C2258 1.391 . S
C2260 C2261 1.400 . S
C2261 C2255 1.491 1_554 S
C2261 C2260 1.400 . S
C2261 C2262 1.398 1_554 S
C2262 H2250 0.950 . S
C2262 C2261 1.398 1_556 S
C2262 C2263 1.391 1_556 S
C2263 H2251 0.950 . S
C2263 C2259 1.393 . S
C2263 C2262 1.391 1_554 S
H2264 C2272 0.950 . S
H2265 C2277 0.950 . S
H2266 C2274 0.983 . S
H2267 C2276 0.950 . S
H2268 C2278 0.950 . S
H2269 C2280 0.983 . S
H2270 C2282 0.950 . S
H2271 C2283 0.950 . S
C2272 H2264 0.950 . S
C2272 C2273 1.386 . S
C2272 C2274 1.391 . S
C2273 C2272 1.386 . S
C2273 C2277 1.393 . S
C2274 H2266 0.983 . S
C2274 C2272 1.391 . S
C2274 C2275 1.400 . S
C2275 C2274 1.400 . S
C2275 C2276 1.398 . S
C2275 C2281 1.491 1_556 S
C2276 H2267 0.950 . S
C2276 C2275 1.398 . S
C2276 C2277 1.391 . S
C2277 H2265 0.950 . S
C2277 C2273 1.393 . S
C2277 C2276 1.391 . S
C2278 H2268 0.950 . S
C2278 C2279 1.386 . S
C2278 C2280 1.391 . S
C2279 C2278 1.386 . S
C2279 C2283 1.393 . S
C2280 H2269 0.983 . S
C2280 C2278 1.391 . S
C2280 C2281 1.400 . S
C2281 C2275 1.491 1_554 S
C2281 C2280 1.400 . S
C2281 C2282 1.398 . S
C2282 H2270 0.950 . S
C2282 C2281 1.398 . S
C2282 C2283 1.391 . S
C2283 H2271 0.950 . S
C2283 C2279 1.393 . S
C2283 C2282 1.391 . S
H2284 C2292 0.950 . S
H2285 C2297 0.950 . S
H2286 C2294 0.950 . S
H2287 C2296 0.950 . S
H2288 C2298 0.950 . S
H2289 C2300 0.950 . S
H2290 C2302 0.950 . S
H2291 C2303 0.950 . S
C2292 H2284 0.950 . S
C2292 C2293 1.386 . S
C2292 C2294 1.391 . S
C2293 C2292 1.386 . S
C2293 C2297 1.393 . S
C2294 H2286 0.950 . S
C2294 C2292 1.391 . S
C2294 C2295 1.400 . S
C2295 C2294 1.400 . S
C2295 C2296 1.398 . S
C2295 C2301 1.491 1_556 S
C2296 H2287 0.950 . S
C2296 C2295 1.398 . S
C2296 C2297 1.391 . S
C2297 H2285 0.950 . S
C2297 C2293 1.393 . S
C2297 C2296 1.391 . S
C2298 H2288 0.950 . S
C2298 C2299 1.386 . S
C2298 C2300 1.391 . S
C2299 C2298 1.386 . S
C2299 C2303 1.393 . S
C2300 H2289 0.950 . S
C2300 C2298 1.391 . S
C2300 C2301 1.400 . S
C2301 C2295 1.491 1_554 S
C2301 C2300 1.400 . S
C2301 C2302 1.398 . S
C2302 H2290 0.950 . S
C2302 C2301 1.398 . S
C2302 C2303 1.391 . S
C2303 H2291 0.950 . S
C2303 C2299 1.393 . S
C2303 C2302 1.391 . S
H2304 C2312 0.950 . S
H2305 C2317 0.950 . S
H2306 C2314 0.950 . S
H2307 C2316 0.950 . S
H2308 C2318 0.950 . S
H2309 C2320 0.950 . S
H2310 C2322 0.950 . S
H2311 C2323 0.950 . S
C2312 H2304 0.950 . S
C2312 C2313 1.386 . S
C2312 C2314 1.391 . S
C2313 C2312 1.386 . S
C2313 C2317 1.393 . S
C2314 H2306 0.950 . S
C2314 C2312 1.391 . S
C2314 C2315 1.400 . S
C2315 C2314 1.400 . S
C2315 C2316 1.398 . S
C2315 C2321 1.491 1_545 S
C2316 H2307 0.950 . S
C2316 C2315 1.398 . S
C2316 C2317 1.391 . S
C2317 H2305 0.950 . S
C2317 C2313 1.393 . S
C2317 C2316 1.391 . S
C2318 H2308 0.950 . S
C2318 C2319 1.386 . S
C2318 C2320 1.391 . S
C2319 C2318 1.386 . S
C2319 C2323 1.393 . S
C2320 H2309 0.950 . S
C2320 C2318 1.391 . S
C2320 C2321 1.400 . S
C2321 C2315 1.491 1_565 S
C2321 C2320 1.400 . S
C2321 C2322 1.398 . S
C2322 H2310 0.950 . S
C2322 C2321 1.398 . S
C2322 C2323 1.391 . S
C2323 H2311 0.950 . S
C2323 C2319 1.393 . S
C2323 C2322 1.391 . S
H2324 C2332 0.950 . S
H2325 C2337 0.950 . S
H2326 C2334 0.901 1_455 S
H2327 C2336 0.950 . S
H2328 C2338 0.950 . S
H2329 C2340 0.901 1_655 S
H2330 C2342 0.950 . S
H2331 C2343 0.950 . S
C2332 H2324 0.950 . S
C2332 C2333 1.386 . S
C2332 C2334 1.391 . S
C2333 C2332 1.386 . S
C2333 C2337 1.393 . S
C2334 H2326 0.901 1_655 S
C2334 C2332 1.391 . S
C2334 C2335 1.400 . S
C2335 C2334 1.400 . S
C2335 C2336 1.398 . S
C2335 C2341 1.491 1_655 S
C2336 H2327 0.950 . S
C2336 C2335 1.398 . S
C2336 C2337 1.391 . S
C2337 H2325 0.950 . S
C2337 C2333 1.393 . S
C2337 C2336 1.391 . S
C2338 H2328 0.950 . S
C2338 C2339 1.386 . S
C2338 C2340 1.391 . S
C2339 C2338 1.386 . S
C2339 C2343 1.393 . S
C2340 H2329 0.901 1_455 S
C2340 C2338 1.391 . S
C2340 C2341 1.400 . S
C2341 C2335 1.491 1_455 S
C2341 C2340 1.400 . S
C2341 C2342 1.398 . S
C2342 H2330 0.950 . S
C2342 C2341 1.398 . S
C2342 C2343 1.391 . S
C2343 H2331 0.950 . S
C2343 C2339 1.393 . S
C2343 C2342 1.391 . S
H2344 C2352 0.950 . S
H2345 C2357 0.950 . S
H2346 C2354 0.950 . S
H2347 C2356 0.950 . S
H2348 C2358 0.950 . S
H2349 C2360 0.950 . S
H2350 C2362 0.950 . S
H2351 C2363 0.950 . S
C2352 H2344 0.950 . S
C2352 C2353 1.386 . S
C2352 C2354 1.391 . S
C2353 C2352 1.386 . S
C2353 C2357 1.393 . S
C2354 H2346 0.950 . S
C2354 C2352 1.391 . S
C2354 C2355 1.400 . S
C2355 C2354 1.400 . S
C2355 C2356 1.398 . S
C2355 C2361 1.491 1_565 S
C2356 H2347 0.950 . S
C2356 C2355 1.398 . S
C2356 C2357 1.391 . S
C2357 H2345 0.950 . S
C2357 C2353 1.393 . S
C2357 C2356 1.391 . S
C2358 H2348 0.950 . S
C2358 C2359 1.386 . S
C2358 C2360 1.391 . S
C2359 C2358 1.386 . S
C2359 C2363 1.393 . S
C2360 H2349 0.950 . S
C2360 C2358 1.391 . S
C2360 C2361 1.400 . S
C2361 C2355 1.491 1_545 S
C2361 C2360 1.400 . S
C2361 C2362 1.398 . S
C2362 H2350 0.950 . S
C2362 C2361 1.398 . S
C2362 C2363 1.391 . S
C2363 H2351 0.950 . S
C2363 C2359 1.393 . S
C2363 C2362 1.391 . S
H2364 C2372 0.950 . S
H2365 C2377 0.950 . S
H2366 C2374 0.950 1_655 S
H2367 C2376 0.950 . S
H2368 C2378 0.950 . S
H2369 C2380 0.950 1_455 S
H2370 C2382 0.950 . S
H2371 C2383 0.950 . S
C2372 H2364 0.950 . S
C2372 C2373 1.386 . S
C2372 C2374 1.391 . S
C2373 C2372 1.386 . S
C2373 C2377 1.393 . S
C2374 H2366 0.950 1_455 S
C2374 C2372 1.391 . S
C2374 C2375 1.400 . S
C2375 C2374 1.400 . S
C2375 C2376 1.398 . S
C2375 C2381 1.491 1_455 S
C2376 H2367 0.950 . S
C2376 C2375 1.398 . S
C2376 C2377 1.391 . S
C2377 H2365 0.950 . S
C2377 C2373 1.393 . S
C2377 C2376 1.391 . S
C2378 H2368 0.950 . S
C2378 C2379 1.386 . S
C2378 C2380 1.391 . S
C2379 C2378 1.386 . S
C2379 C2383 1.393 . S
C2380 H2369 0.950 1_655 S
C2380 C2378 1.391 . S
C2380 C2381 1.400 . S
C2381 C2375 1.491 1_655 S
C2381 C2380 1.400 . S
C2381 C2382 1.398 . S
C2382 H2370 0.950 . S
C2382 C2381 1.398 . S
C2382 C2383 1.391 . S
C2383 H2371 0.950 . S
C2383 C2379 1.393 . S
C2383 C2382 1.391 . S
H2384 C2392 0.950 . S
H2385 C2397 0.950 . S
H2386 C2394 0.893 1_554 S
H2387 C2396 0.950 . S
H2388 C2398 0.950 . S
H2389 C2400 0.893 1_556 S
H2390 C2402 0.950 . S
H2391 C2403 0.950 . S
C2392 H2384 0.950 . S
C2392 C2393 1.386 . S
C2392 C2394 1.391 . S
C2393 C2392 1.386 . S
C2393 C2397 1.393 . S
C2394 H2386 0.893 1_556 S
C2394 C2392 1.391 . S
C2394 C2395 1.400 . S
C2395 C2394 1.400 . S
C2395 C2396 1.398 . S
C2395 C2401 1.491 1_556 S
C2396 H2387 0.950 . S
C2396 C2395 1.398 . S
C2396 C2397 1.391 . S
C2397 H2385 0.950 . S
C2397 C2393 1.393 . S
C2397 C2396 1.391 . S
C2398 H2388 0.950 . S
C2398 C2399 1.386 . S
C2398 C2400 1.391 . S
C2399 C2398 1.386 . S
C2399 C2403 1.393 . S
C2400 H2389 0.893 1_554 S
C2400 C2398 1.391 . S
C2400 C2401 1.400 . S
C2401 C2395 1.491 1_554 S
C2401 C2400 1.400 . S
C2401 C2402 1.398 . S
C2402 H2390 0.950 . S
C2402 C2401 1.398 . S
C2402 C2403 1.391 . S
C2403 H2391 0.950 . S
C2403 C2399 1.393 . S
C2403 C2402 1.391 . S
H2404 C2412 0.950 . S
H2405 C2417 0.950 . S
H2406 C2414 0.950 . S
H2407 C2416 0.950 1_554 S
H2408 C2418 0.950 . S
H2409 C2420 0.950 . S
H2410 C2422 0.950 1_556 S
H2411 C2423 0.950 . S
C2412 H2404 0.950 . S
C2412 C2413 1.386 . S
C2412 C2414 1.391 . S
C2413 C2412 1.386 . S
C2413 C2417 1.393 . S
C2414 H2406 0.950 . S
C2414 C2412 1.391 . S
C2414 C2415 1.400 . S
C2415 C2414 1.400 . S
C2415 C2416 1.398 . S
C2415 C2421 1.491 1_556 S
C2416 H2407 0.950 1_556 S
C2416 C2415 1.398 . S
C2416 C2417 1.391 . S
C2417 H2405 0.950 . S
C2417 C2413 1.393 . S
C2417 C2416 1.391 . S
C2418 H2408 0.950 . S
C2418 C2419 1.386 . S
C2418 C2420 1.391 . S
C2419 C2418 1.386 . S
C2419 C2423 1.393 . S
C2420 H2409 0.950 . S
C2420 C2418 1.391 . S
C2420 C2421 1.400 . S
C2421 C2415 1.491 1_554 S
C2421 C2420 1.400 . S
C2421 C2422 1.398 . S
C2422 H2410 0.950 1_554 S
C2422 C2421 1.398 . S
C2422 C2423 1.391 . S
C2423 H2411 0.950 . S
C2423 C2419 1.393 . S
C2423 C2422 1.391 . S
H2424 C2432 0.950 . S
H2425 C2437 0.950 . S
H2426 C2434 0.950 . S
H2427 C2436 0.950 1_556 S
H2428 C2438 0.950 . S
H2429 C2440 0.950 . S
H2430 C2442 0.950 1_554 S
H2431 C2443 0.950 . S
C2432 H2424 0.950 . S
C2432 C2433 1.386 . S
C2432 C2434 1.391 . S
C2433 C2432 1.386 . S
C2433 C2437 1.393 . S
C2434 H2426 0.950 . S
C2434 C2432 1.391 . S
C2434 C2435 1.400 . S
C2435 C2434 1.400 . S
C2435 C2436 1.398 . S
C2435 C2441 1.491 1_554 S
C2436 H2427 0.950 1_554 S
C2436 C2435 1.398 . S
C2436 C2437 1.391 . S
C2437 H2425 0.950 . S
C2437 C2433 1.393 . S
C2437 C2436 1.391 . S
C2438 H2428 0.950 . S
C2438 C2439 1.386 . S
C2438 C2440 1.391 . S
C2439 C2438 1.386 . S
C2439 C2443 1.393 . S
C2440 H2429 0.950 . S
C2440 C2438 1.391 . S
C2440 C2441 1.400 . S
C2441 C2435 1.491 1_556 S
C2441 C2440 1.400 . S
C2441 C2442 1.398 . S
C2442 H2430 0.950 1_556 S
C2442 C2441 1.398 . S
C2442 C2443 1.391 . S
C2443 H2431 0.950 . S
C2443 C2439 1.393 . S
C2443 C2442 1.391 . S
H2444 C2452 0.950 . S
H2445 C2457 0.950 . S
H2446 C2454 0.950 1_556 S
H2447 C2456 0.950 . S
H2448 C2458 0.950 . S
H2449 C2460 0.950 1_554 S
H2450 C2462 0.950 . S
H2451 C2463 0.950 . S
C2452 H2444 0.950 . S
C2452 C2453 1.386 . S
C2452 C2454 1.391 . S
C2453 C2452 1.386 . S
C2453 C2457 1.393 . S
C2454 H2446 0.950 1_554 S
C2454 C2452 1.391 . S
C2454 C2455 1.400 . S
C2455 C2454 1.400 . S
C2455 C2456 1.398 . S
C2455 C2461 1.491 1_554 S
C2456 H2447 0.950 . S
C2456 C2455 1.398 . S
C2456 C2457 1.391 . S
C2457 H2445 0.950 . S
C2457 C2453 1.393 . S
C2457 C2456 1.391 . S
C2458 H2448 0.950 . S
C2458 C2459 1.386 . S
C2458 C2460 1.391 . S
C2459 C2458 1.386 . S
C2459 C2463 1.393 . S
C2460 H2449 0.950 1_556 S
C2460 C2458 1.391 . S
C2460 C2461 1.400 . S
C2461 C2455 1.491 1_556 S
C2461 C2460 1.400 . S
C2461 C2462 1.398 . S
C2462 H2450 0.950 . S
C2462 C2461 1.398 . S
C2462 C2463 1.391 . S
C2463 H2451 0.950 . S
C2463 C2459 1.393 . S
C2463 C2462 1.391 . S
H2464 C2472 0.950 . S
H2465 C2477 0.950 . S
H2466 C2474 0.950 1_455 S
H2467 C2476 0.950 . S
H2468 C2478 0.950 . S
H2469 C2480 0.950 1_655 S
H2470 C2482 0.950 . S
H2471 C2483 0.950 . S
C2472 H2464 0.950 . S
C2472 C2473 1.386 . S
C2472 C2474 1.391 . S
C2473 C2472 1.386 . S
C2473 C2477 1.393 . S
C2474 H2466 0.950 1_655 S
C2474 C2472 1.391 . S
C2474 C2475 1.400 . S
C2475 C2474 1.400 . S
C2475 C2476 1.398 . S
C2475 C2481 1.491 1_655 S
C2476 H2467 0.950 . S
C2476 C2475 1.398 . S
C2476 C2477 1.391 . S
C2477 H2465 0.950 . S
C2477 C2473 1.393 . S
C2477 C2476 1.391 . S
C2478 H2468 0.950 . S
C2478 C2479 1.386 . S
C2478 C2480 1.391 . S
C2479 C2478 1.386 . S
C2479 C2483 1.393 . S
C2480 H2469 0.950 1_455 S
C2480 C2478 1.391 . S
C2480 C2481 1.400 . S
C2481 C2475 1.491 1_455 S
C2481 C2480 1.400 . S
C2481 C2482 1.398 . S
C2482 H2470 0.950 . S
C2482 C2481 1.398 . S
C2482 C2483 1.391 . S
C2483 H2471 0.950 . S
C2483 C2479 1.393 . S
C2483 C2482 1.391 . S
H2484 C2492 0.950 . S
H2485 C2497 0.950 . S
H2486 C2494 0.950 . S
H2487 C2496 0.950 . S
H2488 C2498 0.950 . S
H2489 C2500 0.950 . S
H2490 C2502 0.950 . S
H2491 C2503 0.950 . S
C2492 H2484 0.950 . S
C2492 C2493 1.386 . S
C2492 C2494 1.391 . S
C2493 C2492 1.386 . S
C2493 C2497 1.393 . S
C2494 H2486 0.950 . S
C2494 C2492 1.391 . S
C2494 C2495 1.400 . S
C2495 C2494 1.400 . S
C2495 C2496 1.398 . S
C2495 C2501 1.491 1_455 S
C2496 H2487 0.950 . S
C2496 C2495 1.398 . S
C2496 C2497 1.391 . S
C2497 H2485 0.950 . S
C2497 C2493 1.393 . S
C2497 C2496 1.391 . S
C2498 H2488 0.950 . S
C2498 C2499 1.386 . S
C2498 C2500 1.391 . S
C2499 C2498 1.386 . S
C2499 C2503 1.393 . S
C2500 H2489 0.950 . S
C2500 C2498 1.391 . S
C2500 C2501 1.400 . S
C2501 C2495 1.491 1_655 S
C2501 C2500 1.400 . S
C2501 C2502 1.398 . S
C2502 H2490 0.950 . S
C2502 C2501 1.398 . S
C2502 C2503 1.391 . S
C2503 H2491 0.950 . S
C2503 C2499 1.393 . S
C2503 C2502 1.391 . S
H2504 C2512 0.950 . S
H2505 C2517 0.950 . S
H2506 C2514 0.950 . S
H2507 C2516 0.950 . S
H2508 C2518 0.950 . S
H2509 C2520 0.950 . S
H2510 C2522 0.950 . S
H2511 C2523 0.950 . S
C2512 H2504 0.950 . S
C2512 C2513 1.386 . S
C2512 C2514 1.391 . S
C2513 C2512 1.386 . S
C2513 C2517 1.393 . S
C2514 H2506 0.950 . S
C2514 C2512 1.391 . S
C2514 C2515 1.400 . S
C2515 C2514 1.400 . S
C2515 C2516 1.398 . S
C2515 C2521 1.491 1_545 S
C2516 H2507 0.950 . S
C2516 C2515 1.398 . S
C2516 C2517 1.391 . S
C2517 H2505 0.950 . S
C2517 C2513 1.393 . S
C2517 C2516 1.391 . S
C2518 H2508 0.950 . S
C2518 C2519 1.386 . S
C2518 C2520 1.391 . S
C2519 C2518 1.386 . S
C2519 C2523 1.393 . S
C2520 H2509 0.950 . S
C2520 C2518 1.391 . S
C2520 C2521 1.400 . S
C2521 C2515 1.491 1_565 S
C2521 C2520 1.400 . S
C2521 C2522 1.398 . S
C2522 H2510 0.950 . S
C2522 C2521 1.398 . S
C2522 C2523 1.391 . S
C2523 H2511 0.950 . S
C2523 C2519 1.393 . S
C2523 C2522 1.391 . S
H2524 C2532 0.950 . S
H2525 C2537 0.950 . S
H2526 C2534 0.950 1_545 S
H2527 C2536 0.950 . S
H2528 C2538 0.950 . S
H2529 C2540 0.950 1_565 S
H2530 C2542 0.950 . S
H2531 C2543 0.950 . S
C2532 H2524 0.950 . S
C2532 C2533 1.386 . S
C2532 C2534 1.391 . S
C2533 C2532 1.386 . S
C2533 C2537 1.393 . S
C2534 H2526 0.950 1_565 S
C2534 C2532 1.391 . S
C2534 C2535 1.400 . S
C2535 C2534 1.400 . S
C2535 C2536 1.398 . S
C2535 C2541 1.491 1_565 S
C2536 H2527 0.950 . S
C2536 C2535 1.398 . S
C2536 C2537 1.391 . S
C2537 H2525 0.950 . S
C2537 C2533 1.393 . S
C2537 C2536 1.391 . S
C2538 H2528 0.950 . S
C2538 C2539 1.386 . S
C2538 C2540 1.391 . S
C2539 C2538 1.386 . S
C2539 C2543 1.393 . S
C2540 H2529 0.950 1_545 S
C2540 C2538 1.391 . S
C2540 C2541 1.400 . S
C2541 C2535 1.491 1_545 S
C2541 C2540 1.400 . S
C2541 C2542 1.398 . S
C2542 H2530 0.950 . S
C2542 C2541 1.398 . S
C2542 C2543 1.391 . S
C2543 H2531 0.950 . S
C2543 C2539 1.393 . S
C2543 C2542 1.391 . S
H2544 C2552 0.950 . S
H2545 C2557 0.950 . S
H2546 C2554 0.950 . S
H2547 C2556 0.950 . S
H2548 C2558 0.950 . S
H2549 C2560 0.950 . S
H2550 C2562 0.950 . S
H2551 C2563 0.950 . S
C2552 H2544 0.950 . S
C2552 C2553 1.386 . S
C2552 C2554 1.391 . S
C2553 C2552 1.386 . S
C2553 C2557 1.393 . S
C2554 H2546 0.950 . S
C2554 C2552 1.391 . S
C2554 C2555 1.400 . S
C2555 C2554 1.400 . S
C2555 C2556 1.398 . S
C2555 C2561 1.491 . S
C2556 H2547 0.950 . S
C2556 C2555 1.398 . S
C2556 C2557 1.391 . S
C2557 H2545 0.950 . S
C2557 C2553 1.393 . S
C2557 C2556 1.391 . S
C2558 H2548 0.950 . S
C2558 C2559 1.386 . S
C2558 C2560 1.391 . S
C2559 C2558 1.386 . S
C2559 C2563 1.393 . S
C2560 H2549 0.950 . S
C2560 C2558 1.391 . S
C2560 C2561 1.400 . S
C2561 C2555 1.491 . S
C2561 C2560 1.400 . S
C2561 C2562 1.398 . S
C2562 H2550 0.950 . S
C2562 C2561 1.398 . S
C2562 C2563 1.391 . S
C2563 H2551 0.950 . S
C2563 C2559 1.393 . S
C2563 C2562 1.391 . S
H2564 C2572 0.950 . S
H2565 C2577 0.950 . S
H2566 C2574 0.950 . S
H2567 C2576 0.950 . S
H2568 C2578 0.950 . S
H2569 C2580 0.950 . S
H2570 C2582 0.950 . S
H2571 C2583 0.950 . S
C2572 H2564 0.950 . S
C2572 C2573 1.386 . S
C2572 C2574 1.391 . S
C2573 C2572 1.386 . S
C2573 C2577 1.393 . S
C2574 H2566 0.950 . S
C2574 C2572 1.391 . S
C2574 C2575 1.400 . S
C2575 C2574 1.400 . S
C2575 C2576 1.398 . S
C2575 C2581 1.491 . S
C2576 H2567 0.950 . S
C2576 C2575 1.398 . S
C2576 C2577 1.391 . S
C2577 H2565 0.950 . S
C2577 C2573 1.393 . S
C2577 C2576 1.391 . S
C2578 H2568 0.950 . S
C2578 C2579 1.386 . S
C2578 C2580 1.391 . S
C2579 C2578 1.386 . S
C2579 C2583 1.393 . S
C2580 H2569 0.950 . S
C2580 C2578 1.391 . S
C2580 C2581 1.400 . S
C2581 C2575 1.491 . S
C2581 C2580 1.400 . S
C2581 C2582 1.398 . S
C2582 H2570 0.950 . S
C2582 C2581 1.398 . S
C2582 C2583 1.391 . S
C2583 H2571 0.950 . S
C2583 C2579 1.393 . S
C2583 C2582 1.391 . S
H2584 C2592 0.950 . S
H2585 C2597 0.950 . S
H2586 C2594 0.950 . S
H2587 C2596 0.950 . S
H2588 C2598 0.950 . S
H2589 C2600 0.950 . S
H2590 C2602 0.950 . S
H2591 C2603 0.950 . S
C2592 H2584 0.950 . S
C2592 C2593 1.386 . S
C2592 C2594 1.391 . S
C2593 C2592 1.386 . S
C2593 C2597 1.393 . S
C2594 H2586 0.950 . S
C2594 C2592 1.391 . S
C2594 C2595 1.400 . S
C2595 C2594 1.400 . S
C2595 C2596 1.398 . S
C2595 C2601 1.491 . S
C2596 H2587 0.950 . S
C2596 C2595 1.398 . S
C2596 C2597 1.391 . S
C2597 H2585 0.950 . S
C2597 C2593 1.393 . S
C2597 C2596 1.391 . S
C2598 H2588 0.950 . S
C2598 C2599 1.386 . S
C2598 C2600 1.391 . S
C2599 C2598 1.386 . S
C2599 C2603 1.393 . S
C2600 H2589 0.950 . S
C2600 C2598 1.391 . S
C2600 C2601 1.400 . S
C2601 C2595 1.491 . S
C2601 C2600 1.400 . S
C2601 C2602 1.398 . S
C2602 H2590 0.950 . S
C2602 C2601 1.398 . S
C2602 C2603 1.391 . S
C2603 H2591 0.950 . S
C2603 C2599 1.393 . S
C2603 C2602 1.391 . S
H2604 C2612 0.950 . S
H2605 C2617 0.950 . S
H2606 C2614 0.950 . S
H2607 C2616 0.950 . S
H2608 C2618 0.950 . S
H2609 C2620 0.950 . S
H2610 C2622 0.950 . S
H2611 C2623 0.950 . S
C2612 H2604 0.950 . S
C2612 C2613 1.386 . S
C2612 C2614 1.391 . S
C2613 C2612 1.386 . S
C2613 C2617 1.393 . S
C2614 H2606 0.950 . S
C2614 C2612 1.391 . S
C2614 C2615 1.400 . S
C2615 C2614 1.400 . S
C2615 C2616 1.398 . S
C2615 C2621 1.491 . S
C2616 H2607 0.950 . S
C2616 C2615 1.398 . S
C2616 C2617 1.391 . S
C2617 H2605 0.950 . S
C2617 C2613 1.393 . S
C2617 C2616 1.391 . S
C2618 H2608 0.950 . S
C2618 C2619 1.386 . S
C2618 C2620 1.391 . S
C2619 C2618 1.386 . S
C2619 C2623 1.393 . S
C2620 H2609 0.950 . S
C2620 C2618 1.391 . S
C2620 C2621 1.400 . S
C2621 C2615 1.491 . S
C2621 C2620 1.400 . S
C2621 C2622 1.398 . S
C2622 H2610 0.950 . S
C2622 C2621 1.398 . S
C2622 C2623 1.391 . S
C2623 H2611 0.950 . S
C2623 C2619 1.393 . S
C2623 C2622 1.391 . S
H2624 C2632 0.950 . S
H2625 C2637 0.950 . S
H2626 C2634 0.950 . S
H2627 C2636 0.950 . S
H2628 C2638 0.950 . S
H2629 C2640 0.950 . S
H2630 C2642 0.950 . S
H2631 C2643 0.950 . S
C2632 H2624 0.950 . S
C2632 C2633 1.386 . S
C2632 C2634 1.391 . S
C2633 C2632 1.386 . S
C2633 C2637 1.393 . S
C2634 H2626 0.950 . S
C2634 C2632 1.391 . S
C2634 C2635 1.400 . S
C2635 C2634 1.400 . S
C2635 C2636 1.398 . S
C2635 C2641 1.491 . S
C2636 H2627 0.950 . S
C2636 C2635 1.398 . S
C2636 C2637 1.391 . S
C2637 H2625 0.950 . S
C2637 C2633 1.393 . S
C2637 C2636 1.391 . S
C2638 H2628 0.950 . S
C2638 C2639 1.386 . S
C2638 C2640 1.391 . S
C2639 C2638 1.386 . S
C2639 C2643 1.393 . S
C2640 H2629 0.950 . S
C2640 C2638 1.391 . S
C2640 C2641 1.400 . S
C2641 C2635 1.491 . S
C2641 C2640 1.400 . S
C2641 C2642 1.398 . S
C2642 H2630 0.950 . S
C2642 C2641 1.398 . S
C2642 C2643 1.391 . S
C2643 H2631 0.950 . S
C2643 C2639 1.393 . S
C2643 C2642 1.391 . S
H2644 C2652 0.950 . S
H2645 C2657 0.950 . S
H2646 C2654 0.950 . S
H2647 C2656 0.950 . S
H2648 C2658 0.950 . S
H2649 C2660 0.950 . S
H2650 C2662 0.950 . S
H2651 C2663 0.950 . S
C2652 H2644 0.950 . S
C2652 C2653 1.386 . S
C2652 C2654 1.391 . S
C2653 C2652 1.386 . S
C2653 C2657 1.393 . S
C2654 H2646 0.950 . S
C2654 C2652 1.391 . S
C2654 C2655 1.400 . S
C2655 C2654 1.400 . S
C2655 C2656 1.398 . S
C2655 C2661 1.491 . S
C2656 H2647 0.950 . S
C2656 C2655 1.398 . S
C2656 C2657 1.391 . S
C2657 H2645 0.950 . S
C2657 C2653 1.393 . S
C2657 C2656 1.391 . S
C2658 H2648 0.950 . S
C2658 C2659 1.386 . S
C2658 C2660 1.391 . S
C2659 C2658 1.386 . S
C2659 C2663 1.393 . S
C2660 H2649 0.950 . S
C2660 C2658 1.391 . S
C2660 C2661 1.400 . S
C2661 C2655 1.491 . S
C2661 C2660 1.400 . S
C2661 C2662 1.398 . S
C2662 H2650 0.950 . S
C2662 C2661 1.398 . S
C2662 C2663 1.391 . S
C2663 H2651 0.950 . S
C2663 C2659 1.393 . S
C2663 C2662 1.391 . S
H2664 C2672 0.950 . S
H2665 C2677 0.950 . S
H2666 C2674 0.950 . S
H2667 C2676 0.950 . S
H2668 C2678 0.950 . S
H2669 C2680 0.950 . S
H2670 C2682 0.950 . S
H2671 C2683 0.950 . S
C2672 H2664 0.950 . S
C2672 C2673 1.386 . S
C2672 C2674 1.391 . S
C2673 C2672 1.386 . S
C2673 C2677 1.393 . S
C2674 H2666 0.950 . S
C2674 C2672 1.391 . S
C2674 C2675 1.400 . S
C2675 C2674 1.400 . S
C2675 C2676 1.398 . S
C2675 C2681 1.491 . S
C2676 H2667 0.950 . S
C2676 C2675 1.398 . S
C2676 C2677 1.391 . S
C2677 H2665 0.950 . S
C2677 C2673 1.393 . S
C2677 C2676 1.391 . S
C2678 H2668 0.950 . S
C2678 C2679 1.386 . S
C2678 C2680 1.391 . S
C2679 C2678 1.386 . S
C2679 C2683 1.393 . S
C2680 H2669 0.950 . S
C2680 C2678 1.391 . S
C2680 C2681 1.400 . S
C2681 C2675 1.491 . S
C2681 C2680 1.400 . S
C2681 C2682 1.398 . S
C2682 H2670 0.950 . S
C2682 C2681 1.398 . S
C2682 C2683 1.391 . S
C2683 H2671 0.950 . S
C2683 C2679 1.393 . S
C2683 C2682 1.391 . S
H2684 C2692 0.950 . S
H2685 C2697 0.950 . S
H2686 C2694 0.950 . S
H2687 C2696 0.950 . S
H2688 C2698 0.950 . S
H2689 C2700 0.950 . S
H2690 C2702 0.950 . S
H2691 C2703 0.950 . S
C2692 H2684 0.950 . S
C2692 C2693 1.386 . S
C2692 C2694 1.391 . S
C2693 C2692 1.386 . S
C2693 C2697 1.393 . S
C2694 H2686 0.950 . S
C2694 C2692 1.391 . S
C2694 C2695 1.400 . S
C2695 C2694 1.400 . S
C2695 C2696 1.398 . S
C2695 C2701 1.491 . S
C2696 H2687 0.950 . S
C2696 C2695 1.398 . S
C2696 C2697 1.391 . S
C2697 H2685 0.950 . S
C2697 C2693 1.393 . S
C2697 C2696 1.391 . S
C2698 H2688 0.950 . S
C2698 C2699 1.386 . S
C2698 C2700 1.391 . S
C2699 C2698 1.386 . S
C2699 C2703 1.393 . S
C2700 H2689 0.950 . S
C2700 C2698 1.391 . S
C2700 C2701 1.400 . S
C2701 C2695 1.491 . S
C2701 C2700 1.400 . S
C2701 C2702 1.398 . S
C2702 H2690 0.950 . S
C2702 C2701 1.398 . S
C2702 C2703 1.391 . S
C2703 H2691 0.950 . S
C2703 C2699 1.393 . S
C2703 C2702 1.391 . S
H2704 C2712 0.950 . S
H2705 C2717 0.950 . S
H2706 C2714 0.950 . S
H2707 C2716 0.950 . S
H2708 C2718 0.950 . S
H2709 C2720 0.950 . S
H2710 C2722 0.950 . S
H2711 C2723 0.950 . S
C2712 H2704 0.950 . S
C2712 C2713 1.386 . S
C2712 C2714 1.391 . S
C2713 C2712 1.386 . S
C2713 C2717 1.393 . S
C2714 H2706 0.950 . S
C2714 C2712 1.391 . S
C2714 C2715 1.400 . S
C2715 C2714 1.400 . S
C2715 C2716 1.398 . S
C2715 C2721 1.491 . S
C2716 H2707 0.950 . S
C2716 C2715 1.398 . S
C2716 C2717 1.391 . S
C2717 H2705 0.950 . S
C2717 C2713 1.393 . S
C2717 C2716 1.391 . S
C2718 H2708 0.950 . S
C2718 C2719 1.386 . S
C2718 C2720 1.391 . S
C2719 C2718 1.386 . S
C2719 C2723 1.393 . S
C2720 H2709 0.950 . S
C2720 C2718 1.391 . S
C2720 C2721 1.400 . S
C2721 C2715 1.491 . S
C2721 C2720 1.400 . S
C2721 C2722 1.398 . S
C2722 H2710 0.950 . S
C2722 C2721 1.398 . S
C2722 C2723 1.391 . S
C2723 H2711 0.950 . S
C2723 C2719 1.393 . S
C2723 C2722 1.391 . S
H2724 C2732 0.950 . S
H2725 C2737 0.950 . S
H2726 C2734 0.950 . S
H2727 C2736 0.950 . S
H2728 C2738 0.950 . S
H2729 C2740 0.950 . S
H2730 C2742 0.950 . S
H2731 C2743 0.950 . S
C2732 H2724 0.950 . S
C2732 C2733 1.386 . S
C2732 C2734 1.391 . S
C2733 C2732 1.386 . S
C2733 C2737 1.393 . S
C2734 H2726 0.950 . S
C2734 C2732 1.391 . S
C2734 C2735 1.400 . S
C2735 C2734 1.400 . S
C2735 C2736 1.398 . S
C2735 C2741 1.491 . S
C2736 H2727 0.950 . S
C2736 C2735 1.398 . S
C2736 C2737 1.391 . S
C2737 H2725 0.950 . S
C2737 C2733 1.393 . S
C2737 C2736 1.391 . S
C2738 H2728 0.950 . S
C2738 C2739 1.386 . S
C2738 C2740 1.391 . S
C2739 C2738 1.386 . S
C2739 C2743 1.393 . S
C2740 H2729 0.950 . S
C2740 C2738 1.391 . S
C2740 C2741 1.400 . S
C2741 C2735 1.491 . S
C2741 C2740 1.400 . S
C2741 C2742 1.398 . S
C2742 H2730 0.950 . S
C2742 C2741 1.398 . S
C2742 C2743 1.391 . S
C2743 H2731 0.950 . S
C2743 C2739 1.393 . S
C2743 C2742 1.391 . S
H2744 C2752 0.950 . S
H2745 C2757 0.950 . S
H2746 C2754 0.950 . S
H2747 C2756 0.950 . S
H2748 C2758 0.950 . S
H2749 C2760 0.950 . S
H2750 C2762 0.950 . S
H2751 C2763 0.950 . S
C2752 H2744 0.950 . S
C2752 C2753 1.386 . S
C2752 C2754 1.391 . S
C2753 C2752 1.386 . S
C2753 C2757 1.393 . S
C2754 H2746 0.950 . S
C2754 C2752 1.391 . S
C2754 C2755 1.400 . S
C2755 C2754 1.400 . S
C2755 C2756 1.398 . S
C2755 C2761 1.491 . S
C2756 H2747 0.950 . S
C2756 C2755 1.398 . S
C2756 C2757 1.391 . S
C2757 H2745 0.950 . S
C2757 C2753 1.393 . S
C2757 C2756 1.391 . S
C2758 H2748 0.950 . S
C2758 C2759 1.386 . S
C2758 C2760 1.391 . S
C2759 C2758 1.386 . S
C2759 C2763 1.393 . S
C2760 H2749 0.950 . S
C2760 C2758 1.391 . S
C2760 C2761 1.400 . S
C2761 C2755 1.491 . S
C2761 C2760 1.400 . S
C2761 C2762 1.398 . S
C2762 H2750 0.950 . S
C2762 C2761 1.398 . S
C2762 C2763 1.391 . S
C2763 H2751 0.950 . S
C2763 C2759 1.393 . S
C2763 C2762 1.391 . S
H2764 C2772 0.950 . S
H2765 C2777 0.950 . S
H2766 C2774 0.950 . S
H2767 C2776 0.950 . S
H2768 C2778 0.950 . S
H2769 C2780 0.950 . S
H2770 C2782 0.950 . S
H2771 C2783 0.950 . S
C2772 H2764 0.950 . S
C2772 C2773 1.386 . S
C2772 C2774 1.391 . S
C2773 C2772 1.386 . S
C2773 C2777 1.393 . S
C2774 H2766 0.950 . S
C2774 C2772 1.391 . S
C2774 C2775 1.400 . S
C2775 C2774 1.400 . S
C2775 C2776 1.398 . S
C2775 C2781 1.491 . S
C2776 H2767 0.950 . S
C2776 C2775 1.398 . S
C2776 C2777 1.391 . S
C2777 H2765 0.950 . S
C2777 C2773 1.393 . S
C2777 C2776 1.391 . S
C2778 H2768 0.950 . S
C2778 C2779 1.386 . S
C2778 C2780 1.391 . S
C2779 C2778 1.386 . S
C2779 C2783 1.393 . S
C2780 H2769 0.950 . S
C2780 C2778 1.391 . S
C2780 C2781 1.400 . S
C2781 C2775 1.491 . S
C2781 C2780 1.400 . S
C2781 C2782 1.398 . S
C2782 H2770 0.950 . S
C2782 C2781 1.398 . S
C2782 C2783 1.391 . S
C2783 H2771 0.950 . S
C2783 C2779 1.393 . S
C2783 C2782 1.391 . S
H2784 C2792 0.950 . S
H2785 C2797 0.950 . S
H2786 C2794 0.950 . S
H2787 C2796 0.950 . S
H2788 C2798 0.950 . S
H2789 C2800 0.950 . S
H2790 C2802 0.950 . S
H2791 C2803 0.950 . S
C2792 H2784 0.950 . S
C2792 C2793 1.386 . S
C2792 C2794 1.391 . S
C2793 C2792 1.386 . S
C2793 C2797 1.393 . S
C2794 H2786 0.950 . S
C2794 C2792 1.391 . S
C2794 C2795 1.400 . S
C2795 C2794 1.400 . S
C2795 C2796 1.398 . S
C2795 C2801 1.491 1_565 S
C2796 H2787 0.950 . S
C2796 C2795 1.398 . S
C2796 C2797 1.391 . S
C2797 H2785 0.950 . S
C2797 C2793 1.393 . S
C2797 C2796 1.391 . S
C2798 H2788 0.950 . S
C2798 C2799 1.386 . S
C2798 C2800 1.391 . S
C2799 C2798 1.386 . S
C2799 C2803 1.393 . S
C2800 H2789 0.950 . S
C2800 C2798 1.391 . S
C2800 C2801 1.400 . S
C2801 C2795 1.491 1_545 S
C2801 C2800 1.400 . S
C2801 C2802 1.398 . S
C2802 H2790 0.950 . S
C2802 C2801 1.398 . S
C2802 C2803 1.391 . S
C2803 H2791 0.950 . S
C2803 C2799 1.393 . S
C2803 C2802 1.391 . S
H2804 C2812 0.950 . S
H2805 C2817 0.950 . S
H2806 C2814 0.950 . S
H2807 C2816 0.950 . S
H2808 C2818 0.950 . S
H2809 C2820 0.950 . S
H2810 C2822 0.950 . S
H2811 C2823 0.950 . S
C2812 H2804 0.950 . S
C2812 C2813 1.386 . S
C2812 C2814 1.391 . S
C2813 C2812 1.386 . S
C2813 C2817 1.393 . S
C2814 H2806 0.950 . S
C2814 C2812 1.391 . S
C2814 C2815 1.400 . S
C2815 C2814 1.400 . S
C2815 C2816 1.398 . S
C2815 C2821 1.491 1_655 S
C2816 H2807 0.950 . S
C2816 C2815 1.398 . S
C2816 C2817 1.391 . S
C2817 H2805 0.950 . S
C2817 C2813 1.393 . S
C2817 C2816 1.391 . S
C2818 H2808 0.950 . S
C2818 C2819 1.386 . S
C2818 C2820 1.391 . S
C2819 C2818 1.386 . S
C2819 C2823 1.393 . S
C2820 H2809 0.950 . S
C2820 C2818 1.391 . S
C2820 C2821 1.400 . S
C2821 C2815 1.491 1_455 S
C2821 C2820 1.400 . S
C2821 C2822 1.398 . S
C2822 H2810 0.950 . S
C2822 C2821 1.398 . S
C2822 C2823 1.391 . S
C2823 H2811 0.950 . S
C2823 C2819 1.393 . S
C2823 C2822 1.391 . S
H2824 C2832 0.950 . S
H2825 C2837 0.950 . S
H2826 C2834 0.950 . S
H2827 C2836 0.950 . S
H2828 C2838 0.950 . S
H2829 C2840 0.950 . S
H2830 C2842 0.950 . S
H2831 C2843 0.950 . S
C2832 H2824 0.950 . S
C2832 C2833 1.386 . S
C2832 C2834 1.391 . S
C2833 C2832 1.386 . S
C2833 C2837 1.393 . S
C2834 H2826 0.950 . S
C2834 C2832 1.391 . S
C2834 C2835 1.400 . S
C2835 C2834 1.400 . S
C2835 C2836 1.398 . S
C2835 C2841 1.491 1_565 S
C2836 H2827 0.950 . S
C2836 C2835 1.398 . S
C2836 C2837 1.391 . S
C2837 H2825 0.950 . S
C2837 C2833 1.393 . S
C2837 C2836 1.391 . S
C2838 H2828 0.950 . S
C2838 C2839 1.386 . S
C2838 C2840 1.391 . S
C2839 C2838 1.386 . S
C2839 C2843 1.393 . S
C2840 H2829 0.950 . S
C2840 C2838 1.391 . S
C2840 C2841 1.400 . S
C2841 C2835 1.491 1_545 S
C2841 C2840 1.400 . S
C2841 C2842 1.398 . S
C2842 H2830 0.950 . S
C2842 C2841 1.398 . S
C2842 C2843 1.391 . S
C2843 H2831 0.950 . S
C2843 C2839 1.393 . S
C2843 C2842 1.391 . S
H2844 C2852 0.950 . S
H2845 C2857 0.950 . S
H2846 C2854 0.950 . S
H2847 C2856 0.950 . S
H2848 C2858 0.950 . S
H2849 C2860 0.950 . S
H2850 C2862 0.950 . S
H2851 C2863 0.950 . S
C2852 H2844 0.950 . S
C2852 C2853 1.386 . S
C2852 C2854 1.391 . S
C2853 C2852 1.386 . S
C2853 C2857 1.393 . S
C2854 H2846 0.950 . S
C2854 C2852 1.391 . S
C2854 C2855 1.400 . S
C2855 C2854 1.400 . S
C2855 C2856 1.398 . S
C2855 C2861 1.491 1_655 S
C2856 H2847 0.950 . S
C2856 C2855 1.398 . S
C2856 C2857 1.391 . S
C2857 H2845 0.950 . S
C2857 C2853 1.393 . S
C2857 C2856 1.391 . S
C2858 H2848 0.950 . S
C2858 C2859 1.386 . S
C2858 C2860 1.391 . S
C2859 C2858 1.386 . S
C2859 C2863 1.393 . S
C2860 H2849 0.950 . S
C2860 C2858 1.391 . S
C2860 C2861 1.400 . S
C2861 C2855 1.491 1_455 S
C2861 C2860 1.400 . S
C2861 C2862 1.398 . S
C2862 H2850 0.950 . S
C2862 C2861 1.398 . S
C2862 C2863 1.391 . S
C2863 H2851 0.950 . S
C2863 C2859 1.393 . S
C2863 C2862 1.391 . S
H2864 C2872 0.950 . S
H2865 C2877 0.950 . S
H2866 C2874 0.950 . S
H2867 C2876 0.950 . S
H2868 C2878 0.950 . S
H2869 C2880 0.950 . S
H2870 C2882 0.950 . S
H2871 C2883 0.950 . S
C2872 H2864 0.950 . S
C2872 C2873 1.386 . S
C2872 C2874 1.391 . S
C2873 C2872 1.386 . S
C2873 C2877 1.393 . S
C2874 H2866 0.950 . S
C2874 C2872 1.391 . S
C2874 C2875 1.400 . S
C2875 C2874 1.400 . S
C2875 C2876 1.398 . S
C2875 C2881 1.491 1_565 S
C2876 H2867 0.950 . S
C2876 C2875 1.398 . S
C2876 C2877 1.391 . S
C2877 H2865 0.950 . S
C2877 C2873 1.393 . S
C2877 C2876 1.391 . S
C2878 H2868 0.950 . S
C2878 C2879 1.386 . S
C2878 C2880 1.391 . S
C2879 C2878 1.386 . S
C2879 C2883 1.393 . S
C2880 H2869 0.950 . S
C2880 C2878 1.391 . S
C2880 C2881 1.400 . S
C2881 C2875 1.491 1_545 S
C2881 C2880 1.400 . S
C2881 C2882 1.398 . S
C2882 H2870 0.950 . S
C2882 C2881 1.398 . S
C2882 C2883 1.391 . S
C2883 H2871 0.950 . S
C2883 C2879 1.393 . S
C2883 C2882 1.391 . S
H2884 C2892 0.950 . S
H2885 C2897 0.950 . S
H2886 C2894 0.950 . S
H2887 C2896 0.966 . S
H2888 C2898 0.950 . S
H2889 C2900 0.950 . S
H2890 C2902 0.966 . S
H2891 C2903 0.950 . S
C2892 H2884 0.950 . S
C2892 C2893 1.386 . S
C2892 C2894 1.391 . S
C2893 C2892 1.386 . S
C2893 C2897 1.393 . S
C2894 H2886 0.950 . S
C2894 C2892 1.391 . S
C2894 C2895 1.400 . S
C2895 C2894 1.400 . S
C2895 C2896 1.398 . S
C2895 C2901 1.491 1_455 S
C2896 H2887 0.966 . S
C2896 C2895 1.398 . S
C2896 C2897 1.391 . S
C2897 H2885 0.950 . S
C2897 C2893 1.393 . S
C2897 C2896 1.391 . S
C2898 H2888 0.950 . S
C2898 C2899 1.386 . S
C2898 C2900 1.391 . S
C2899 C2898 1.386 . S
C2899 C2903 1.393 . S
C2900 H2889 0.950 . S
C2900 C2898 1.391 . S
C2900 C2901 1.400 . S
C2901 C2895 1.491 1_655 S
C2901 C2900 1.400 . S
C2901 C2902 1.398 . S
C2902 H2890 0.966 . S
C2902 C2901 1.398 . S
C2902 C2903 1.391 . S
C2903 H2891 0.950 . S
C2903 C2899 1.393 . S
C2903 C2902 1.391 . S
H2904 C2912 0.950 . S
H2905 C2917 0.950 . S
H2906 C2914 0.950 . S
H2907 C2916 0.950 . S
H2908 C2918 0.950 . S
H2909 C2920 0.950 . S
H2910 C2922 0.950 . S
H2911 C2923 0.950 . S
C2912 H2904 0.950 . S
C2912 C2913 1.386 . S
C2912 C2914 1.391 . S
C2913 C2912 1.386 . S
C2913 C2917 1.393 . S
C2914 H2906 0.950 . S
C2914 C2912 1.391 . S
C2914 C2915 1.400 . S
C2915 C2914 1.400 . S
C2915 C2916 1.398 . S
C2915 C2921 1.491 1_545 S
C2916 H2907 0.950 . S
C2916 C2915 1.398 . S
C2916 C2917 1.391 . S
C2917 H2905 0.950 . S
C2917 C2913 1.393 . S
C2917 C2916 1.391 . S
C2918 H2908 0.950 . S
C2918 C2919 1.386 . S
C2918 C2920 1.391 . S
C2919 C2918 1.386 . S
C2919 C2923 1.393 . S
C2920 H2909 0.950 . S
C2920 C2918 1.391 . S
C2920 C2921 1.400 . S
C2921 C2915 1.491 1_565 S
C2921 C2920 1.400 . S
C2921 C2922 1.398 . S
C2922 H2910 0.950 . S
C2922 C2921 1.398 . S
C2922 C2923 1.391 . S
C2923 H2911 0.950 . S
C2923 C2919 1.393 . S
C2923 C2922 1.391 . S
H2924 C2932 0.950 . S
H2925 C2937 0.950 . S
H2926 C2934 0.950 . S
H2927 C2936 0.950 . S
H2928 C2938 0.950 . S
H2929 C2940 0.950 . S
H2930 C2942 0.950 . S
H2931 C2943 0.950 . S
C2932 H2924 0.950 . S
C2932 C2933 1.386 . S
C2932 C2934 1.391 . S
C2933 C2932 1.386 . S
C2933 C2937 1.393 . S
C2934 H2926 0.950 . S
C2934 C2932 1.391 . S
C2934 C2935 1.400 . S
C2935 C2934 1.400 . S
C2935 C2936 1.398 . S
C2935 C2941 1.491 1_455 S
C2936 H2927 0.950 . S
C2936 C2935 1.398 . S
C2936 C2937 1.391 . S
C2937 H2925 0.950 . S
C2937 C2933 1.393 . S
C2937 C2936 1.391 . S
C2938 H2928 0.950 . S
C2938 C2939 1.386 . S
C2938 C2940 1.391 . S
C2939 C2938 1.386 . S
C2939 C2943 1.393 . S
C2940 H2929 0.950 . S
C2940 C2938 1.391 . S
C2940 C2941 1.400 . S
C2941 C2935 1.491 1_655 S
C2941 C2940 1.400 . S
C2941 C2942 1.398 . S
C2942 H2930 0.950 . S
C2942 C2941 1.398 . S
C2942 C2943 1.391 . S
C2943 H2931 0.950 . S
C2943 C2939 1.393 . S
C2943 C2942 1.391 . S
H2944 C2952 0.950 . S
H2945 C2957 0.950 . S
H2946 C2954 0.963 . S
H2947 C2956 0.950 . S
H2948 C2958 0.950 . S
H2949 C2960 0.963 . S
H2950 C2962 0.950 . S
H2951 C2963 0.950 . S
C2952 H2944 0.950 . S
C2952 C2953 1.386 . S
C2952 C2954 1.391 . S
C2953 C2952 1.386 . S
C2953 C2957 1.393 . S
C2954 H2946 0.963 . S
C2954 C2952 1.391 . S
C2954 C2955 1.400 . S
C2955 C2954 1.400 . S
C2955 C2956 1.398 . S
C2955 C2961 1.491 1_556 S
C2956 H2947 0.950 . S
C2956 C2955 1.398 . S
C2956 C2957 1.391 . S
C2957 H2945 0.950 . S
C2957 C2953 1.393 . S
C2957 C2956 1.391 . S
C2958 H2948 0.950 . S
C2958 C2959 1.386 . S
C2958 C2960 1.391 . S
C2959 C2958 1.386 . S
C2959 C2963 1.393 . S
C2960 H2949 0.963 . S
C2960 C2958 1.391 . S
C2960 C2961 1.400 . S
C2961 C2955 1.491 1_554 S
C2961 C2960 1.400 . S
C2961 C2962 1.398 . S
C2962 H2950 0.950 . S
C2962 C2961 1.398 . S
C2962 C2963 1.391 . S
C2963 H2951 0.950 . S
C2963 C2959 1.393 . S
C2963 C2962 1.391 . S
H2964 C2972 0.950 . S
H2965 C2977 0.950 . S
H2966 C2974 0.950 . S
H2967 C2976 0.950 . S
H2968 C2978 0.950 . S
H2969 C2980 0.950 . S
H2970 C2982 0.950 . S
H2971 C2983 0.950 . S
C2972 H2964 0.950 . S
C2972 C2973 1.386 . S
C2972 C2974 1.391 . S
C2973 C2972 1.386 . S
C2973 C2977 1.393 . S
C2974 H2966 0.950 . S
C2974 C2972 1.391 . S
C2974 C2975 1.400 . S
C2975 C2974 1.400 . S
C2975 C2976 1.398 . S
C2975 C2981 1.491 1_556 S
C2976 H2967 0.950 . S
C2976 C2975 1.398 . S
C2976 C2977 1.391 . S
C2977 H2965 0.950 . S
C2977 C2973 1.393 . S
C2977 C2976 1.391 . S
C2978 H2968 0.950 . S
C2978 C2979 1.386 . S
C2978 C2980 1.391 . S
C2979 C2978 1.386 . S
C2979 C2983 1.393 . S
C2980 H2969 0.950 . S
C2980 C2978 1.391 . S
C2980 C2981 1.400 . S
C2981 C2975 1.491 1_554 S
C2981 C2980 1.400 . S
C2981 C2982 1.398 . S
C2982 H2970 0.950 . S
C2982 C2981 1.398 . S
C2982 C2983 1.391 . S
C2983 H2971 0.950 . S
C2983 C2979 1.393 . S
C2983 C2982 1.391 . S
H2984 C2992 0.950 . S
H2985 C2997 0.950 . S
H2986 C2994 0.972 . S
H2987 C2996 0.950 . S
H2988 C2998 0.950 . S
H2989 C3000 0.972 . S
H2990 C3002 0.950 . S
H2991 C3003 0.950 . S
C2992 H2984 0.950 . S
C2992 C2993 1.386 . S
C2992 C2994 1.391 . S
C2993 C2992 1.386 . S
C2993 C2997 1.393 . S
C2994 H2986 0.972 . S
C2994 C2992 1.391 . S
C2994 C2995 1.400 . S
C2995 C2994 1.400 . S
C2995 C2996 1.398 . S
C2995 C3001 1.491 1_554 S
C2996 H2987 0.950 . S
C2996 C2995 1.398 . S
C2996 C2997 1.391 . S
C2997 H2985 0.950 . S
C2997 C2993 1.393 . S
C2997 C2996 1.391 . S
C2998 H2988 0.950 . S
C2998 C2999 1.386 . S
C2998 C3000 1.391 . S
C2999 C2998 1.386 . S
C2999 C3003 1.393 . S
C3000 H2989 0.972 . S
C3000 C2998 1.391 . S
C3000 C3001 1.400 . S
C3001 C2995 1.491 1_556 S
C3001 C3000 1.400 . S
C3001 C3002 1.398 . S
C3002 H2990 0.950 . S
C3002 C3001 1.398 . S
C3002 C3003 1.391 . S
C3003 H2991 0.950 . S
C3003 C2999 1.393 . S
C3003 C3002 1.391 . S
H3004 C3012 0.950 . S
H3005 C3017 0.950 . S
H3006 C3014 0.950 . S
H3007 C3016 0.950 . S
H3008 C3018 0.950 . S
H3009 C3020 0.950 . S
H3010 C3022 0.950 . S
H3011 C3023 0.950 . S
C3012 H3004 0.950 . S
C3012 C3013 1.386 . S
C3012 C3014 1.391 . S
C3013 C3012 1.386 . S
C3013 C3017 1.393 . S
C3014 H3006 0.950 . S
C3014 C3012 1.391 . S
C3014 C3015 1.400 . S
C3015 C3014 1.400 . S
C3015 C3016 1.398 . S
C3015 C3021 1.491 1_554 S
C3016 H3007 0.950 . S
C3016 C3015 1.398 . S
C3016 C3017 1.391 . S
C3017 H3005 0.950 . S
C3017 C3013 1.393 . S
C3017 C3016 1.391 . S
C3018 H3008 0.950 . S
C3018 C3019 1.386 . S
C3018 C3020 1.391 . S
C3019 C3018 1.386 . S
C3019 C3023 1.393 . S
C3020 H3009 0.950 . S
C3020 C3018 1.391 . S
C3020 C3021 1.400 . S
C3021 C3015 1.491 1_556 S
C3021 C3020 1.400 . S
C3021 C3022 1.398 . S
C3022 H3010 0.950 . S
C3022 C3021 1.398 . S
C3022 C3023 1.391 . S
C3023 H3011 0.950 . S
C3023 C3019 1.393 . S
C3023 C3022 1.391 . S
H3024 C3032 0.950 . S
H3025 C3037 0.950 . S
H3026 C3034 0.950 . S
H3027 C3036 0.950 . S
H3028 C3038 0.950 . S
H3029 C3040 0.950 . S
H3030 C3042 0.950 . S
H3031 C3043 0.950 . S
C3032 H3024 0.950 . S
C3032 C3033 1.386 . S
C3032 C3034 1.391 . S
C3033 C3032 1.386 . S
C3033 C3037 1.393 . S
C3034 H3026 0.950 . S
C3034 C3032 1.391 . S
C3034 C3035 1.400 . S
C3035 C3034 1.400 . S
C3035 C3036 1.398 . S
C3035 C3041 1.491 . S
C3036 H3027 0.950 . S
C3036 C3035 1.398 . S
C3036 C3037 1.391 . S
C3037 H3025 0.950 . S
C3037 C3033 1.393 . S
C3037 C3036 1.391 . S
C3038 H3028 0.950 . S
C3038 C3039 1.386 . S
C3038 C3040 1.391 . S
C3039 C3038 1.386 . S
C3039 C3043 1.393 . S
C3040 H3029 0.950 . S
C3040 C3038 1.391 . S
C3040 C3041 1.400 . S
C3041 C3035 1.491 . S
C3041 C3040 1.400 . S
C3041 C3042 1.398 . S
C3042 H3030 0.950 . S
C3042 C3041 1.398 . S
C3042 C3043 1.391 . S
C3043 H3031 0.950 . S
C3043 C3039 1.393 . S
C3043 C3042 1.391 . S
H3044 C3052 0.950 . S
H3045 C3057 0.950 . S
H3046 C3054 0.950 . S
H3047 C3056 0.950 . S
H3048 C3058 0.950 . S
H3049 C3060 0.950 . S
H3050 C3062 0.950 . S
H3051 C3063 0.950 . S
C3052 H3044 0.950 . S
C3052 C3053 1.386 . S
C3052 C3054 1.391 . S
C3053 C3052 1.386 . S
C3053 C3057 1.393 . S
C3054 H3046 0.950 . S
C3054 C3052 1.391 . S
C3054 C3055 1.400 . S
C3055 C3054 1.400 . S
C3055 C3056 1.398 . S
C3055 C3061 1.491 . S
C3056 H3047 0.950 . S
C3056 C3055 1.398 . S
C3056 C3057 1.391 . S
C3057 H3045 0.950 . S
C3057 C3053 1.393 . S
C3057 C3056 1.391 . S
C3058 H3048 0.950 . S
C3058 C3059 1.386 . S
C3058 C3060 1.391 . S
C3059 C3058 1.386 . S
C3059 C3063 1.393 . S
C3060 H3049 0.950 . S
C3060 C3058 1.391 . S
C3060 C3061 1.400 . S
C3061 C3055 1.491 . S
C3061 C3060 1.400 . S
C3061 C3062 1.398 . S
C3062 H3050 0.950 . S
C3062 C3061 1.398 . S
C3062 C3063 1.391 . S
C3063 H3051 0.950 . S
C3063 C3059 1.393 . S
C3063 C3062 1.391 . S
H3064 C3072 0.950 . S
H3065 C3077 0.950 . S
H3066 C3074 0.950 . S
H3067 C3076 0.950 . S
H3068 C3078 0.950 . S
H3069 C3080 0.950 . S
H3070 C3082 0.950 . S
H3071 C3083 0.950 . S
C3072 H3064 0.950 . S
C3072 C3073 1.386 . S
C3072 C3074 1.391 . S
C3073 C3072 1.386 . S
C3073 C3077 1.393 . S
C3074 H3066 0.950 . S
C3074 C3072 1.391 . S
C3074 C3075 1.400 . S
C3075 C3074 1.400 . S
C3075 C3076 1.398 . S
C3075 C3081 1.491 . S
C3076 H3067 0.950 . S
C3076 C3075 1.398 . S
C3076 C3077 1.391 . S
C3077 H3065 0.950 . S
C3077 C3073 1.393 . S
C3077 C3076 1.391 . S
C3078 H3068 0.950 . S
C3078 C3079 1.386 . S
C3078 C3080 1.391 . S
C3079 C3078 1.386 . S
C3079 C3083 1.393 . S
C3080 H3069 0.950 . S
C3080 C3078 1.391 . S
C3080 C3081 1.400 . S
C3081 C3075 1.491 . S
C3081 C3080 1.400 . S
C3081 C3082 1.398 . S
C3082 H3070 0.950 . S
C3082 C3081 1.398 . S
C3082 C3083 1.391 . S
C3083 H3071 0.950 . S
C3083 C3079 1.393 . S
C3083 C3082 1.391 . S
H3084 C3092 0.950 . S
H3085 C3097 0.950 . S
H3086 C3094 0.950 . S
H3087 C3096 0.950 . S
H3088 C3098 0.950 . S
H3089 C3100 0.950 . S
H3090 C3102 0.950 . S
H3091 C3103 0.950 . S
C3092 H3084 0.950 . S
C3092 C3093 1.386 . S
C3092 C3094 1.391 . S
C3093 C3092 1.386 . S
C3093 C3097 1.393 . S
C3094 H3086 0.950 . S
C3094 C3092 1.391 . S
C3094 C3095 1.400 . S
C3095 C3094 1.400 . S
C3095 C3096 1.398 . S
C3095 C3101 1.491 . S
C3096 H3087 0.950 . S
C3096 C3095 1.398 . S
C3096 C3097 1.391 . S
C3097 H3085 0.950 . S
C3097 C3093 1.393 . S
C3097 C3096 1.391 . S
C3098 H3088 0.950 . S
C3098 C3099 1.386 . S
C3098 C3100 1.391 . S
C3099 C3098 1.386 . S
C3099 C3103 1.393 . S
C3100 H3089 0.950 . S
C3100 C3098 1.391 . S
C3100 C3101 1.400 . S
C3101 C3095 1.491 . S
C3101 C3100 1.400 . S
C3101 C3102 1.398 . S
C3102 H3090 0.950 . S
C3102 C3101 1.398 . S
C3102 C3103 1.391 . S
C3103 H3091 0.950 . S
C3103 C3099 1.393 . S
C3103 C3102 1.391 . S
H3104 C3112 0.950 . S
H3105 C3117 0.950 . S
H3106 C3114 0.950 . S
H3107 C3116 0.950 . S
H3108 C3118 0.950 . S
H3109 C3120 0.950 . S
H3110 C3122 0.950 . S
H3111 C3123 0.950 . S
C3112 H3104 0.950 . S
C3112 C3113 1.386 . S
C3112 C3114 1.391 . S
C3113 C3112 1.386 . S
C3113 C3117 1.393 . S
C3114 H3106 0.950 . S
C3114 C3112 1.391 . S
C3114 C3115 1.400 . S
C3115 C3114 1.400 . S
C3115 C3116 1.398 . S
C3115 C3121 1.491 . S
C3116 H3107 0.950 . S
C3116 C3115 1.398 . S
C3116 C3117 1.391 . S
C3117 H3105 0.950 . S
C3117 C3113 1.393 . S
C3117 C3116 1.391 . S
C3118 H3108 0.950 . S
C3118 C3119 1.386 . S
C3118 C3120 1.391 . S
C3119 C3118 1.386 . S
C3119 C3123 1.393 . S
C3120 H3109 0.950 . S
C3120 C3118 1.391 . S
C3120 C3121 1.400 . S
C3121 C3115 1.491 . S
C3121 C3120 1.400 . S
C3121 C3122 1.398 . S
C3122 H3110 0.950 . S
C3122 C3121 1.398 . S
C3122 C3123 1.391 . S
C3123 H3111 0.950 . S
C3123 C3119 1.393 . S
C3123 C3122 1.391 . S
H3124 C3132 0.950 . S
H3125 C3137 0.950 . S
H3126 C3134 0.950 . S
H3127 C3136 0.950 . S
H3128 C3138 0.950 . S
H3129 C3140 0.950 . S
H3130 C3142 0.950 . S
H3131 C3143 0.950 . S
C3132 H3124 0.950 . S
C3132 C3133 1.386 . S
C3132 C3134 1.391 . S
C3133 C3132 1.386 . S
C3133 C3137 1.393 . S
C3134 H3126 0.950 . S
C3134 C3132 1.391 . S
C3134 C3135 1.400 . S
C3135 C3134 1.400 . S
C3135 C3136 1.398 . S
C3135 C3141 1.491 . S
C3136 H3127 0.950 . S
C3136 C3135 1.398 . S
C3136 C3137 1.391 . S
C3137 H3125 0.950 . S
C3137 C3133 1.393 . S
C3137 C3136 1.391 . S
C3138 H3128 0.950 . S
C3138 C3139 1.386 . S
C3138 C3140 1.391 . S
C3139 C3138 1.386 . S
C3139 C3143 1.393 . S
C3140 H3129 0.950 . S
C3140 C3138 1.391 . S
C3140 C3141 1.400 . S
C3141 C3135 1.491 . S
C3141 C3140 1.400 . S
C3141 C3142 1.398 . S
C3142 H3130 0.950 . S
C3142 C3141 1.398 . S
C3142 C3143 1.391 . S
C3143 H3131 0.950 . S
C3143 C3139 1.393 . S
C3143 C3142 1.391 . S
H3144 C3152 0.950 . S
H3145 C3157 0.950 . S
H3146 C3154 0.950 . S
H3147 C3156 0.950 . S
H3148 C3158 0.950 . S
H3149 C3160 0.950 . S
H3150 C3162 0.950 . S
H3151 C3163 0.950 . S
C3152 H3144 0.950 . S
C3152 C3153 1.386 . S
C3152 C3154 1.391 . S
C3153 C3152 1.386 . S
C3153 C3157 1.393 . S
C3154 H3146 0.950 . S
C3154 C3152 1.391 . S
C3154 C3155 1.400 . S
C3155 C3154 1.400 . S
C3155 C3156 1.398 . S
C3155 C3161 1.491 . S
C3156 H3147 0.950 . S
C3156 C3155 1.398 . S
C3156 C3157 1.391 . S
C3157 H3145 0.950 . S
C3157 C3153 1.393 . S
C3157 C3156 1.391 . S
C3158 H3148 0.950 . S
C3158 C3159 1.386 . S
C3158 C3160 1.391 . S
C3159 C3158 1.386 . S
C3159 C3163 1.393 . S
C3160 H3149 0.950 . S
C3160 C3158 1.391 . S
C3160 C3161 1.400 . S
C3161 C3155 1.491 . S
C3161 C3160 1.400 . S
C3161 C3162 1.398 . S
C3162 H3150 0.950 . S
C3162 C3161 1.398 . S
C3162 C3163 1.391 . S
C3163 H3151 0.950 . S
C3163 C3159 1.393 . S
C3163 C3162 1.391 . S
H3164 C3172 0.950 . S
H3165 C3177 0.950 . S
H3166 C3174 0.950 . S
H3167 C3176 0.950 . S
H3168 C3178 0.950 . S
H3169 C3180 0.950 . S
H3170 C3182 0.950 . S
H3171 C3183 0.950 . S
C3172 H3164 0.950 . S
C3172 C3173 1.386 . S
C3172 C3174 1.391 . S
C3173 C3172 1.386 . S
C3173 C3177 1.393 . S
C3174 H3166 0.950 . S
C3174 C3172 1.391 . S
C3174 C3175 1.400 . S
C3175 C3174 1.400 . S
C3175 C3176 1.398 . S
C3175 C3181 1.491 . S
C3176 H3167 0.950 . S
C3176 C3175 1.398 . S
C3176 C3177 1.391 . S
C3177 H3165 0.950 . S
C3177 C3173 1.393 . S
C3177 C3176 1.391 . S
C3178 H3168 0.950 . S
C3178 C3179 1.386 . S
C3178 C3180 1.391 . S
C3179 C3178 1.386 . S
C3179 C3183 1.393 . S
C3180 H3169 0.950 . S
C3180 C3178 1.391 . S
C3180 C3181 1.400 . S
C3181 C3175 1.491 . S
C3181 C3180 1.400 . S
C3181 C3182 1.398 . S
C3182 H3170 0.950 . S
C3182 C3181 1.398 . S
C3182 C3183 1.391 . S
C3183 H3171 0.950 . S
C3183 C3179 1.393 . S
C3183 C3182 1.391 . S
H3184 C3192 0.950 . S
H3185 C3197 0.950 . S
H3186 C3194 0.950 . S
H3187 C3196 0.950 . S
H3188 C3198 0.950 . S
H3189 C3200 0.950 . S
H3190 C3202 0.950 . S
H3191 C3203 0.950 . S
C3192 H3184 0.950 . S
C3192 C3193 1.386 . S
C3192 C3194 1.391 . S
C3193 C3192 1.386 . S
C3193 C3197 1.393 . S
C3194 H3186 0.950 . S
C3194 C3192 1.391 . S
C3194 C3195 1.400 . S
C3195 C3194 1.400 . S
C3195 C3196 1.398 . S
C3195 C3201 1.491 . S
C3196 H3187 0.950 . S
C3196 C3195 1.398 . S
C3196 C3197 1.391 . S
C3197 H3185 0.950 . S
C3197 C3193 1.393 . S
C3197 C3196 1.391 . S
C3198 H3188 0.950 . S
C3198 C3199 1.386 . S
C3198 C3200 1.391 . S
C3199 C3198 1.386 . S
C3199 C3203 1.393 . S
C3200 H3189 0.950 . S
C3200 C3198 1.391 . S
C3200 C3201 1.400 . S
C3201 C3195 1.491 . S
C3201 C3200 1.400 . S
C3201 C3202 1.398 . S
C3202 H3190 0.950 . S
C3202 C3201 1.398 . S
C3202 C3203 1.391 . S
C3203 H3191 0.950 . S
C3203 C3199 1.393 . S
C3203 C3202 1.391 . S
H3204 C3212 0.950 . S
H3205 C3217 0.950 . S
H3206 C3214 0.950 . S
H3207 C3216 0.950 . S
H3208 C3218 0.950 . S
H3209 C3220 0.950 . S
H3210 C3222 0.950 . S
H3211 C3223 0.950 . S
C3212 H3204 0.950 . S
C3212 C3213 1.386 . S
C3212 C3214 1.391 . S
C3213 C3212 1.386 . S
C3213 C3217 1.393 . S
C3214 H3206 0.950 . S
C3214 C3212 1.391 . S
C3214 C3215 1.400 . S
C3215 C3214 1.400 . S
C3215 C3216 1.398 . S
C3215 C3221 1.491 . S
C3216 H3207 0.950 . S
C3216 C3215 1.398 . S
C3216 C3217 1.391 . S
C3217 H3205 0.950 . S
C3217 C3213 1.393 . S
C3217 C3216 1.391 . S
C3218 H3208 0.950 . S
C3218 C3219 1.386 . S
C3218 C3220 1.391 . S
C3219 C3218 1.386 . S
C3219 C3223 1.393 . S
C3220 H3209 0.950 . S
C3220 C3218 1.391 . S
C3220 C3221 1.400 . S
C3221 C3215 1.491 . S
C3221 C3220 1.400 . S
C3221 C3222 1.398 . S
C3222 H3210 0.950 . S
C3222 C3221 1.398 . S
C3222 C3223 1.391 . S
C3223 H3211 0.950 . S
C3223 C3219 1.393 . S
C3223 C3222 1.391 . S
H3224 C3232 0.950 . S
H3225 C3237 0.950 . S
H3226 C3234 0.950 . S
H3227 C3236 0.950 . S
H3228 C3238 0.950 . S
H3229 C3240 0.950 . S
H3230 C3242 0.950 . S
H3231 C3243 0.950 . S
C3232 H3224 0.950 . S
C3232 C3233 1.386 . S
C3232 C3234 1.391 . S
C3233 C3232 1.386 . S
C3233 C3237 1.393 . S
C3234 H3226 0.950 . S
C3234 C3232 1.391 . S
C3234 C3235 1.400 . S
C3235 C3234 1.400 . S
C3235 C3236 1.398 . S
C3235 C3241 1.491 . S
C3236 H3227 0.950 . S
C3236 C3235 1.398 . S
C3236 C3237 1.391 . S
C3237 H3225 0.950 . S
C3237 C3233 1.393 . S
C3237 C3236 1.391 . S
C3238 H3228 0.950 . S
C3238 C3239 1.386 . S
C3238 C3240 1.391 . S
C3239 C3238 1.386 . S
C3239 C3243 1.393 . S
C3240 H3229 0.950 . S
C3240 C3238 1.391 . S
C3240 C3241 1.400 . S
C3241 C3235 1.491 . S
C3241 C3240 1.400 . S
C3241 C3242 1.398 . S
C3242 H3230 0.950 . S
C3242 C3241 1.398 . S
C3242 C3243 1.391 . S
C3243 H3231 0.950 . S
C3243 C3239 1.393 . S
C3243 C3242 1.391 . S
H3244 C3252 0.950 . S
H3245 C3257 0.950 . S
H3246 C3254 0.950 . S
H3247 C3256 0.950 . S
H3248 C3258 0.950 . S
H3249 C3260 0.950 . S
H3250 C3262 0.950 . S
H3251 C3263 0.950 . S
C3252 H3244 0.950 . S
C3252 C3253 1.386 . S
C3252 C3254 1.391 . S
C3253 C3252 1.386 . S
C3253 C3257 1.393 . S
C3254 H3246 0.950 . S
C3254 C3252 1.391 . S
C3254 C3255 1.400 . S
C3255 C3254 1.400 . S
C3255 C3256 1.398 . S
C3255 C3261 1.491 . S
C3256 H3247 0.950 . S
C3256 C3255 1.398 . S
C3256 C3257 1.391 . S
C3257 H3245 0.950 . S
C3257 C3253 1.393 . S
C3257 C3256 1.391 . S
C3258 H3248 0.950 . S
C3258 C3259 1.386 . S
C3258 C3260 1.391 . S
C3259 C3258 1.386 . S
C3259 C3263 1.393 . S
C3260 H3249 0.950 . S
C3260 C3258 1.391 . S
C3260 C3261 1.400 . S
C3261 C3255 1.491 . S
C3261 C3260 1.400 . S
C3261 C3262 1.398 . S
C3262 H3250 0.950 . S
C3262 C3261 1.398 . S
C3262 C3263 1.391 . S
C3263 H3251 0.950 . S
C3263 C3259 1.393 . S
C3263 C3262 1.391 . S
H3264 C3272 0.950 . S
H3265 C3277 0.950 . S
H3266 C3274 0.950 . S
H3267 C3276 0.950 . S
H3268 C3278 0.950 . S
H3269 C3280 0.950 . S
H3270 C3282 0.950 . S
H3271 C3283 0.950 . S
C3272 H3264 0.950 . S
C3272 C3273 1.386 . S
C3272 C3274 1.391 . S
C3273 C3272 1.386 . S
C3273 C3277 1.393 . S
C3274 H3266 0.950 . S
C3274 C3272 1.391 . S
C3274 C3275 1.400 . S
C3275 C3274 1.400 . S
C3275 C3276 1.398 . S
C3275 C3281 1.491 . S
C3276 H3267 0.950 . S
C3276 C3275 1.398 . S
C3276 C3277 1.391 . S
C3277 H3265 0.950 . S
C3277 C3273 1.393 . S
C3277 C3276 1.391 . S
C3278 H3268 0.950 . S
C3278 C3279 1.386 . S
C3278 C3280 1.391 . S
C3279 C3278 1.386 . S
C3279 C3283 1.393 . S
C3280 H3269 0.950 . S
C3280 C3278 1.391 . S
C3280 C3281 1.400 . S
C3281 C3275 1.491 . S
C3281 C3280 1.400 . S
C3281 C3282 1.398 . S
C3282 H3270 0.950 . S
C3282 C3281 1.398 . S
C3282 C3283 1.391 . S
C3283 H3271 0.950 . S
C3283 C3279 1.393 . S
C3283 C3282 1.391 . S
H3284 C3292 0.950 . S
H3285 C3297 0.950 . S
H3286 C3294 0.950 . S
H3287 C3296 0.950 . S
H3288 C3298 0.950 . S
H3289 C3300 0.950 . S
H3290 C3302 0.950 . S
H3291 C3303 0.950 . S
C3292 H3284 0.950 . S
C3292 C3293 1.386 . S
C3292 C3294 1.391 . S
C3293 C3292 1.386 . S
C3293 C3297 1.393 . S
C3294 H3286 0.950 . S
C3294 C3292 1.391 . S
C3294 C3295 1.400 . S
C3295 C3294 1.400 . S
C3295 C3296 1.398 . S
C3295 C3301 1.491 . S
C3296 H3287 0.950 . S
C3296 C3295 1.398 . S
C3296 C3297 1.391 . S
C3297 H3285 0.950 . S
C3297 C3293 1.393 . S
C3297 C3296 1.391 . S
C3298 H3288 0.950 . S
C3298 C3299 1.386 . S
C3298 C3300 1.391 . S
C3299 C3298 1.386 . S
C3299 C3303 1.393 . S
C3300 H3289 0.950 . S
C3300 C3298 1.391 . S
C3300 C3301 1.400 . S
C3301 C3295 1.491 . S
C3301 C3300 1.400 . S
C3301 C3302 1.398 . S
C3302 H3290 0.950 . S
C3302 C3301 1.398 . S
C3302 C3303 1.391 . S
C3303 H3291 0.950 . S
C3303 C3299 1.393 . S
C3303 C3302 1.391 . S
H3304 C3312 0.950 . S
H3305 C3317 0.950 . S
H3306 C3314 0.950 . S
H3307 C3316 0.950 . S
H3308 C3318 0.950 . S
H3309 C3320 0.950 . S
H3310 C3322 0.950 . S
H3311 C3323 0.950 . S
C3312 H3304 0.950 . S
C3312 C3313 1.386 . S
C3312 C3314 1.391 . S
C3313 C3312 1.386 . S
C3313 C3317 1.393 . S
C3314 H3306 0.950 . S
C3314 C3312 1.391 . S
C3314 C3315 1.400 . S
C3315 C3314 1.400 . S
C3315 C3316 1.398 . S
C3315 C3321 1.491 . S
C3316 H3307 0.950 . S
C3316 C3315 1.398 . S
C3316 C3317 1.391 . S
C3317 H3305 0.950 . S
C3317 C3313 1.393 . S
C3317 C3316 1.391 . S
C3318 H3308 0.950 . S
C3318 C3319 1.386 . S
C3318 C3320 1.391 . S
C3319 C3318 1.386 . S
C3319 C3323 1.393 . S
C3320 H3309 0.950 . S
C3320 C3318 1.391 . S
C3320 C3321 1.400 . S
C3321 C3315 1.491 . S
C3321 C3320 1.400 . S
C3321 C3322 1.398 . S
C3322 H3310 0.950 . S
C3322 C3321 1.398 . S
C3322 C3323 1.391 . S
C3323 H3311 0.950 . S
C3323 C3319 1.393 . S
C3323 C3322 1.391 . S
H3324 C3332 0.950 . S
H3325 C3337 0.950 . S
H3326 C3334 0.950 . S
H3327 C3336 0.950 . S
H3328 C3338 0.950 . S
H3329 C3340 0.950 . S
H3330 C3342 0.950 . S
H3331 C3343 0.950 . S
C3332 H3324 0.950 . S
C3332 C3333 1.386 . S
C3332 C3334 1.391 . S
C3333 C3332 1.386 . S
C3333 C3337 1.393 . S
C3334 H3326 0.950 . S
C3334 C3332 1.391 . S
C3334 C3335 1.400 . S
C3335 C3334 1.400 . S
C3335 C3336 1.398 . S
C3335 C3341 1.491 . S
C3336 H3327 0.950 . S
C3336 C3335 1.398 . S
C3336 C3337 1.391 . S
C3337 H3325 0.950 . S
C3337 C3333 1.393 . S
C3337 C3336 1.391 . S
C3338 H3328 0.950 . S
C3338 C3339 1.386 . S
C3338 C3340 1.391 . S
C3339 C3338 1.386 . S
C3339 C3343 1.393 . S
C3340 H3329 0.950 . S
C3340 C3338 1.391 . S
C3340 C3341 1.400 . S
C3341 C3335 1.491 . S
C3341 C3340 1.400 . S
C3341 C3342 1.398 . S
C3342 H3330 0.950 . S
C3342 C3341 1.398 . S
C3342 C3343 1.391 . S
C3343 H3331 0.950 . S
C3343 C3339 1.393 . S
C3343 C3342 1.391 . S
H3344 C3352 0.950 . S
H3345 C3357 0.950 . S
H3346 C3354 0.950 . S
H3347 C3356 0.950 . S
H3348 C3358 0.950 . S
H3349 C3360 0.950 . S
H3350 C3362 0.950 . S
H3351 C3363 0.950 . S
C3352 H3344 0.950 . S
C3352 C3353 1.386 . S
C3352 C3354 1.391 . S
C3353 C3352 1.386 . S
C3353 C3357 1.393 . S
C3354 H3346 0.950 . S
C3354 C3352 1.391 . S
C3354 C3355 1.400 . S
C3355 C3354 1.400 . S
C3355 C3356 1.398 . S
C3355 C3361 1.491 . S
C3356 H3347 0.950 . S
C3356 C3355 1.398 . S
C3356 C3357 1.391 . S
C3357 H3345 0.950 . S
C3357 C3353 1.393 . S
C3357 C3356 1.391 . S
C3358 H3348 0.950 . S
C3358 C3359 1.386 . S
C3358 C3360 1.391 . S
C3359 C3358 1.386 . S
C3359 C3363 1.393 . S
C3360 H3349 0.950 . S
C3360 C3358 1.391 . S
C3360 C3361 1.400 . S
C3361 C3355 1.491 . S
C3361 C3360 1.400 . S
C3361 C3362 1.398 . S
C3362 H3350 0.950 . S
C3362 C3361 1.398 . S
C3362 C3363 1.391 . S
C3363 H3351 0.950 . S
C3363 C3359 1.393 . S
C3363 C3362 1.391 . S
H3364 C3372 0.950 . S
H3365 C3377 0.950 . S
H3366 C3374 0.950 . S
H3367 C3376 0.950 . S
H3368 C3378 0.950 . S
H3369 C3380 0.950 . S
H3370 C3382 0.950 . S
H3371 C3383 0.950 . S
C3372 H3364 0.950 . S
C3372 C3373 1.386 . S
C3372 C3374 1.391 . S
C3373 C3372 1.386 . S
C3373 C3377 1.393 . S
C3374 H3366 0.950 . S
C3374 C3372 1.391 . S
C3374 C3375 1.400 . S
C3375 C3374 1.400 . S
C3375 C3376 1.398 . S
C3375 C3381 1.491 . S
C3376 H3367 0.950 . S
C3376 C3375 1.398 . S
C3376 C3377 1.391 . S
C3377 H3365 0.950 . S
C3377 C3373 1.393 . S
C3377 C3376 1.391 . S
C3378 H3368 0.950 . S
C3378 C3379 1.386 . S
C3378 C3380 1.391 . S
C3379 C3378 1.386 . S
C3379 C3383 1.393 . S
C3380 H3369 0.950 . S
C3380 C3378 1.391 . S
C3380 C3381 1.400 . S
C3381 C3375 1.491 . S
C3381 C3380 1.400 . S
C3381 C3382 1.398 . S
C3382 H3370 0.950 . S
C3382 C3381 1.398 . S
C3382 C3383 1.391 . S
C3383 H3371 0.950 . S
C3383 C3379 1.393 . S
C3383 C3382 1.391 . S
H3384 C3392 0.950 . S
H3385 C3397 0.950 . S
H3386 C3394 0.950 . S
H3387 C3396 0.950 . S
H3388 C3398 0.950 . S
H3389 C3400 0.950 . S
H3390 C3402 0.950 . S
H3391 C3403 0.950 . S
C3392 H3384 0.950 . S
C3392 C3393 1.386 . S
C3392 C3394 1.391 . S
C3393 C3392 1.386 . S
C3393 C3397 1.393 . S
C3394 H3386 0.950 . S
C3394 C3392 1.391 . S
C3394 C3395 1.400 . S
C3395 C3394 1.400 . S
C3395 C3396 1.398 . S
C3395 C3401 1.491 . S
C3396 H3387 0.950 . S
C3396 C3395 1.398 . S
C3396 C3397 1.391 . S
C3397 H3385 0.950 . S
C3397 C3393 1.393 . S
C3397 C3396 1.391 . S
C3398 H3388 0.950 . S
C3398 C3399 1.386 . S
C3398 C3400 1.391 . S
C3399 C3398 1.386 . S
C3399 C3403 1.393 . S
C3400 H3389 0.950 . S
C3400 C3398 1.391 . S
C3400 C3401 1.400 . S
C3401 C3395 1.491 . S
C3401 C3400 1.400 . S
C3401 C3402 1.398 . S
C3402 H3390 0.950 . S
C3402 C3401 1.398 . S
C3402 C3403 1.391 . S
C3403 H3391 0.950 . S
C3403 C3399 1.393 . S
C3403 C3402 1.391 . S
H3404 C3412 0.950 . S
H3405 C3417 0.950 . S
H3406 C3414 0.950 . S
H3407 C3416 0.950 . S
H3408 C3418 0.950 . S
H3409 C3420 0.950 . S
H3410 C3422 0.950 . S
H3411 C3423 0.950 . S
C3412 H3404 0.950 . S
C3412 C3413 1.386 . S
C3412 C3414 1.391 . S
C3413 C3412 1.386 . S
C3413 C3417 1.393 . S
C3414 H3406 0.950 . S
C3414 C3412 1.391 . S
C3414 C3415 1.400 . S
C3415 C3414 1.400 . S
C3415 C3416 1.398 . S
C3415 C3421 1.491 . S
C3416 H3407 0.950 . S
C3416 C3415 1.398 . S
C3416 C3417 1.391 . S
C3417 H3405 0.950 . S
C3417 C3413 1.393 . S
C3417 C3416 1.391 . S
C3418 H3408 0.950 . S
C3418 C3419 1.386 . S
C3418 C3420 1.391 . S
C3419 C3418 1.386 . S
C3419 C3423 1.393 . S
C3420 H3409 0.950 . S
C3420 C3418 1.391 . S
C3420 C3421 1.400 . S
C3421 C3415 1.491 . S
C3421 C3420 1.400 . S
C3421 C3422 1.398 . S
C3422 H3410 0.950 . S
C3422 C3421 1.398 . S
C3422 C3423 1.391 . S
C3423 H3411 0.950 . S
C3423 C3419 1.393 . S
C3423 C3422 1.391 . S
H3424 C3432 0.950 . S
H3425 C3437 0.950 . S
H3426 C3434 0.950 . S
H3427 C3436 0.950 . S
H3428 C3438 0.950 . S
H3429 C3440 0.950 . S
H3430 C3442 0.950 . S
H3431 C3443 0.950 . S
C3432 H3424 0.950 . S
C3432 C3433 1.386 . S
C3432 C3434 1.391 . S
C3433 C3432 1.386 . S
C3433 C3437 1.393 . S
C3434 H3426 0.950 . S
C3434 C3432 1.391 . S
C3434 C3435 1.400 . S
C3435 C3434 1.400 . S
C3435 C3436 1.398 . S
C3435 C3441 1.491 . S
C3436 H3427 0.950 . S
C3436 C3435 1.398 . S
C3436 C3437 1.391 . S
C3437 H3425 0.950 . S
C3437 C3433 1.393 . S
C3437 C3436 1.391 . S
C3438 H3428 0.950 . S
C3438 C3439 1.386 . S
C3438 C3440 1.391 . S
C3439 C3438 1.386 . S
C3439 C3443 1.393 . S
C3440 H3429 0.950 . S
C3440 C3438 1.391 . S
C3440 C3441 1.400 . S
C3441 C3435 1.491 . S
C3441 C3440 1.400 . S
C3441 C3442 1.398 . S
C3442 H3430 0.950 . S
C3442 C3441 1.398 . S
C3442 C3443 1.391 . S
C3443 H3431 0.950 . S
C3443 C3439 1.393 . S
C3443 C3442 1.391 . S
H3444 C3452 0.950 . S
H3445 C3457 0.950 . S
H3446 C3454 0.950 . S
H3447 C3456 0.950 . S
H3448 C3458 0.950 . S
H3449 C3460 0.950 . S
H3450 C3462 0.950 . S
H3451 C3463 0.950 . S
C3452 H3444 0.950 . S
C3452 C3453 1.386 . S
C3452 C3454 1.391 . S
C3453 C3452 1.386 . S
C3453 C3457 1.393 . S
C3454 H3446 0.950 . S
C3454 C3452 1.391 . S
C3454 C3455 1.400 . S
C3455 C3454 1.400 . S
C3455 C3456 1.398 . S
C3455 C3461 1.491 . S
C3456 H3447 0.950 . S
C3456 C3455 1.398 . S
C3456 C3457 1.391 . S
C3457 H3445 0.950 . S
C3457 C3453 1.393 . S
C3457 C3456 1.391 . S
C3458 H3448 0.950 . S
C3458 C3459 1.386 . S
C3458 C3460 1.391 . S
C3459 C3458 1.386 . S
C3459 C3463 1.393 . S
C3460 H3449 0.950 . S
C3460 C3458 1.391 . S
C3460 C3461 1.400 . S
C3461 C3455 1.491 . S
C3461 C3460 1.400 . S
C3461 C3462 1.398 . S
C3462 H3450 0.950 . S
C3462 C3461 1.398 . S
C3462 C3463 1.391 . S
C3463 H3451 0.950 . S
C3463 C3459 1.393 . S
C3463 C3462 1.391 . S
H3464 C3472 0.950 . S
H3465 C3477 0.950 . S
H3466 C3474 0.950 . S
H3467 C3476 0.950 . S
H3468 C3478 0.950 . S
H3469 C3480 0.950 . S
H3470 C3482 0.950 . S
H3471 C3483 0.950 . S
C3472 H3464 0.950 . S
C3472 C3473 1.386 . S
C3472 C3474 1.391 . S
C3473 C3472 1.386 . S
C3473 C3477 1.393 . S
C3474 H3466 0.950 . S
C3474 C3472 1.391 . S
C3474 C3475 1.400 . S
C3475 C3474 1.400 . S
C3475 C3476 1.398 . S
C3475 C3481 1.491 . S
C3476 H3467 0.950 . S
C3476 C3475 1.398 . S
C3476 C3477 1.391 . S
C3477 H3465 0.950 . S
C3477 C3473 1.393 . S
C3477 C3476 1.391 . S
C3478 H3468 0.950 . S
C3478 C3479 1.386 . S
C3478 C3480 1.391 . S
C3479 C3478 1.386 . S
C3479 C3483 1.393 . S
C3480 H3469 0.950 . S
C3480 C3478 1.391 . S
C3480 C3481 1.400 . S
C3481 C3475 1.491 . S
C3481 C3480 1.400 . S
C3481 C3482 1.398 . S
C3482 H3470 0.950 . S
C3482 C3481 1.398 . S
C3482 C3483 1.391 . S
C3483 H3471 0.950 . S
C3483 C3479 1.393 . S
C3483 C3482 1.391 . S
H3484 C3492 0.950 . S
H3485 C3497 0.950 . S
H3486 C3494 0.950 . S
H3487 C3496 0.950 . S
H3488 C3498 0.950 . S
H3489 C3500 0.950 . S
H3490 C3502 0.950 . S
H3491 C3503 0.950 . S
C3492 H3484 0.950 . S
C3492 C3493 1.386 . S
C3492 C3494 1.391 . S
C3493 C3492 1.386 . S
C3493 C3497 1.393 . S
C3494 H3486 0.950 . S
C3494 C3492 1.391 . S
C3494 C3495 1.400 . S
C3495 C3494 1.400 . S
C3495 C3496 1.398 . S
C3495 C3501 1.491 . S
C3496 H3487 0.950 . S
C3496 C3495 1.398 . S
C3496 C3497 1.391 . S
C3497 H3485 0.950 . S
C3497 C3493 1.393 . S
C3497 C3496 1.391 . S
C3498 H3488 0.950 . S
C3498 C3499 1.386 . S
C3498 C3500 1.391 . S
C3499 C3498 1.386 . S
C3499 C3503 1.393 . S
C3500 H3489 0.950 . S
C3500 C3498 1.391 . S
C3500 C3501 1.400 . S
C3501 C3495 1.491 . S
C3501 C3500 1.400 . S
C3501 C3502 1.398 . S
C3502 H3490 0.950 . S
C3502 C3501 1.398 . S
C3502 C3503 1.391 . S
C3503 H3491 0.950 . S
C3503 C3499 1.393 . S
C3503 C3502 1.391 . S
H3504 C3512 0.950 . S
H3505 C3517 0.950 . S
H3506 C3514 0.950 . S
H3507 C3516 0.950 . S
H3508 C3518 0.950 . S
H3509 C3520 0.950 . S
H3510 C3522 0.950 . S
H3511 C3523 0.950 . S
C3512 H3504 0.950 . S
C3512 C3513 1.386 . S
C3512 C3514 1.391 . S
C3513 C3512 1.386 . S
C3513 C3517 1.393 . S
C3514 H3506 0.950 . S
C3514 C3512 1.391 . S
C3514 C3515 1.400 . S
C3515 C3514 1.400 . S
C3515 C3516 1.398 . S
C3515 C3521 1.491 . S
C3516 H3507 0.950 . S
C3516 C3515 1.398 . S
C3516 C3517 1.391 . S
C3517 H3505 0.950 . S
C3517 C3513 1.393 . S
C3517 C3516 1.391 . S
C3518 H3508 0.950 . S
C3518 C3519 1.386 . S
C3518 C3520 1.391 . S
C3519 C3518 1.386 . S
C3519 C3523 1.393 . S
C3520 H3509 0.950 . S
C3520 C3518 1.391 . S
C3520 C3521 1.400 . S
C3521 C3515 1.491 . S
C3521 C3520 1.400 . S
C3521 C3522 1.398 . S
C3522 H3510 0.950 . S
C3522 C3521 1.398 . S
C3522 C3523 1.391 . S
C3523 H3511 0.950 . S
C3523 C3519 1.393 . S
C3523 C3522 1.391 . S
H3524 C3532 0.950 . S
H3525 C3537 0.950 . S
H3526 C3534 0.950 . S
H3527 C3536 0.950 . S
H3528 C3538 0.950 . S
H3529 C3540 0.950 . S
H3530 C3542 0.950 . S
H3531 C3543 0.950 . S
C3532 H3524 0.950 . S
C3532 C3533 1.386 . S
C3532 C3534 1.391 . S
C3533 C3532 1.386 . S
C3533 C3537 1.393 . S
C3534 H3526 0.950 . S
C3534 C3532 1.391 . S
C3534 C3535 1.400 . S
C3535 C3534 1.400 . S
C3535 C3536 1.398 . S
C3535 C3541 1.491 . S
C3536 H3527 0.950 . S
C3536 C3535 1.398 . S
C3536 C3537 1.391 . S
C3537 H3525 0.950 . S
C3537 C3533 1.393 . S
C3537 C3536 1.391 . S
C3538 H3528 0.950 . S
C3538 C3539 1.386 . S
C3538 C3540 1.391 . S
C3539 C3538 1.386 . S
C3539 C3543 1.393 . S
C3540 H3529 0.950 . S
C3540 C3538 1.391 . S
C3540 C3541 1.400 . S
C3541 C3535 1.491 . S
C3541 C3540 1.400 . S
C3541 C3542 1.398 . S
C3542 H3530 0.950 . S
C3542 C3541 1.398 . S
C3542 C3543 1.391 . S
C3543 H3531 0.950 . S
C3543 C3539 1.393 . S
C3543 C3542 1.391 . S
H3544 C3552 0.950 . S
H3545 C3557 0.950 . S
H3546 C3554 0.950 . S
H3547 C3556 0.950 . S
H3548 C3558 0.950 . S
H3549 C3560 0.950 . S
H3550 C3562 0.950 . S
H3551 C3563 0.950 . S
C3552 H3544 0.950 . S
C3552 C3553 1.386 . S
C3552 C3554 1.391 . S
C3553 C3552 1.386 . S
C3553 C3557 1.393 . S
C3554 H3546 0.950 . S
C3554 C3552 1.391 . S
C3554 C3555 1.400 . S
C3555 C3554 1.400 . S
C3555 C3556 1.398 . S
C3555 C3561 1.491 . S
C3556 H3547 0.950 . S
C3556 C3555 1.398 . S
C3556 C3557 1.391 . S
C3557 H3545 0.950 . S
C3557 C3553 1.393 . S
C3557 C3556 1.391 . S
C3558 H3548 0.950 . S
C3558 C3559 1.386 . S
C3558 C3560 1.391 . S
C3559 C3558 1.386 . S
C3559 C3563 1.393 . S
C3560 H3549 0.950 . S
C3560 C3558 1.391 . S
C3560 C3561 1.400 . S
C3561 C3555 1.491 . S
C3561 C3560 1.400 . S
C3561 C3562 1.398 . S
C3562 H3550 0.950 . S
C3562 C3561 1.398 . S
C3562 C3563 1.391 . S
C3563 H3551 0.950 . S
C3563 C3559 1.393 . S
C3563 C3562 1.391 . S
H3564 C3572 0.950 . S
H3565 C3577 0.950 . S
H3566 C3574 0.950 . S
H3567 C3576 0.950 . S
H3568 C3578 0.950 . S
H3569 C3580 0.950 . S
H3570 C3582 0.950 . S
H3571 C3583 0.950 . S
C3572 H3564 0.950 . S
C3572 C3573 1.386 . S
C3572 C3574 1.391 . S
C3573 C3572 1.386 . S
C3573 C3577 1.393 . S
C3574 H3566 0.950 . S
C3574 C3572 1.391 . S
C3574 C3575 1.400 . S
C3575 C3574 1.400 . S
C3575 C3576 1.398 . S
C3575 C3581 1.491 . S
C3576 H3567 0.950 . S
C3576 C3575 1.398 . S
C3576 C3577 1.391 . S
C3577 H3565 0.950 . S
C3577 C3573 1.393 . S
C3577 C3576 1.391 . S
C3578 H3568 0.950 . S
C3578 C3579 1.386 . S
C3578 C3580 1.391 . S
C3579 C3578 1.386 . S
C3579 C3583 1.393 . S
C3580 H3569 0.950 . S
C3580 C3578 1.391 . S
C3580 C3581 1.400 . S
C3581 C3575 1.491 . S
C3581 C3580 1.400 . S
C3581 C3582 1.398 . S
C3582 H3570 0.950 . S
C3582 C3581 1.398 . S
C3582 C3583 1.391 . S
C3583 H3571 0.950 . S
C3583 C3579 1.393 . S
C3583 C3582 1.391 . S
H3584 C3592 0.950 . S
H3585 C3597 0.950 . S
H3586 C3594 0.950 . S
H3587 C3596 0.950 . S
H3588 C3598 0.950 . S
H3589 C3600 0.950 . S
H3590 C3602 0.950 . S
H3591 C3603 0.950 . S
C3592 H3584 0.950 . S
C3592 C3593 1.386 . S
C3592 C3594 1.391 . S
C3593 C3592 1.386 . S
C3593 C3597 1.393 . S
C3594 H3586 0.950 . S
C3594 C3592 1.391 . S
C3594 C3595 1.400 . S
C3595 C3594 1.400 . S
C3595 C3596 1.398 . S
C3595 C3601 1.491 . S
C3596 H3587 0.950 . S
C3596 C3595 1.398 . S
C3596 C3597 1.391 . S
C3597 H3585 0.950 . S
C3597 C3593 1.393 . S
C3597 C3596 1.391 . S
C3598 H3588 0.950 . S
C3598 C3599 1.386 . S
C3598 C3600 1.391 . S
C3599 C3598 1.386 . S
C3599 C3603 1.393 . S
C3600 H3589 0.950 . S
C3600 C3598 1.391 . S
C3600 C3601 1.400 . S
C3601 C3595 1.491 . S
C3601 C3600 1.400 . S
C3601 C3602 1.398 . S
C3602 H3590 0.950 . S
C3602 C3601 1.398 . S
C3602 C3603 1.391 . S
C3603 H3591 0.950 . S
C3603 C3599 1.393 . S
C3603 C3602 1.391 . S
H3604 C3612 0.950 . S
H3605 C3617 0.950 . S
H3606 C3614 0.950 . S
H3607 C3616 0.950 . S
H3608 C3618 0.950 . S
H3609 C3620 0.950 . S
H3610 C3622 0.950 . S
H3611 C3623 0.950 . S
C3612 H3604 0.950 . S
C3612 C3613 1.386 . S
C3612 C3614 1.391 . S
C3613 C3612 1.386 . S
C3613 C3617 1.393 . S
C3614 H3606 0.950 . S
C3614 C3612 1.391 . S
C3614 C3615 1.400 . S
C3615 C3614 1.400 . S
C3615 C3616 1.398 . S
C3615 C3621 1.491 . S
C3616 H3607 0.950 . S
C3616 C3615 1.398 . S
C3616 C3617 1.391 . S
C3617 H3605 0.950 . S
C3617 C3613 1.393 . S
C3617 C3616 1.391 . S
C3618 H3608 0.950 . S
C3618 C3619 1.386 . S
C3618 C3620 1.391 . S
C3619 C3618 1.386 . S
C3619 C3623 1.393 . S
C3620 H3609 0.950 . S
C3620 C3618 1.391 . S
C3620 C3621 1.400 . S
C3621 C3615 1.491 . S
C3621 C3620 1.400 . S
C3621 C3622 1.398 . S
C3622 H3610 0.950 . S
C3622 C3621 1.398 . S
C3622 C3623 1.391 . S
C3623 H3611 0.950 . S
C3623 C3619 1.393 . S
C3623 C3622 1.391 . S
H3624 C3632 0.950 . S
H3625 C3637 0.950 . S
H3626 C3634 0.950 . S
H3627 C3636 0.950 . S
H3628 C3638 0.950 . S
H3629 C3640 0.950 . S
H3630 C3642 0.950 . S
H3631 C3643 0.950 . S
C3632 H3624 0.950 . S
C3632 C3633 1.386 . S
C3632 C3634 1.391 . S
C3633 C3632 1.386 . S
C3633 C3637 1.393 . S
C3634 H3626 0.950 . S
C3634 C3632 1.391 . S
C3634 C3635 1.400 . S
C3635 C3634 1.400 . S
C3635 C3636 1.398 . S
C3635 C3641 1.491 . S
C3636 H3627 0.950 . S
C3636 C3635 1.398 . S
C3636 C3637 1.391 . S
C3637 H3625 0.950 . S
C3637 C3633 1.393 . S
C3637 C3636 1.391 . S
C3638 H3628 0.950 . S
C3638 C3639 1.386 . S
C3638 C3640 1.391 . S
C3639 C3638 1.386 . S
C3639 C3643 1.393 . S
C3640 H3629 0.950 . S
C3640 C3638 1.391 . S
C3640 C3641 1.400 . S
C3641 C3635 1.491 . S
C3641 C3640 1.400 . S
C3641 C3642 1.398 . S
C3642 H3630 0.950 . S
C3642 C3641 1.398 . S
C3642 C3643 1.391 . S
C3643 H3631 0.950 . S
C3643 C3639 1.393 . S
C3643 C3642 1.391 . S
H3644 C3652 0.950 . S
H3645 C3657 0.950 . S
H3646 C3654 0.950 . S
H3647 C3656 0.950 . S
H3648 C3658 0.950 . S
H3649 C3660 0.950 . S
H3650 C3662 0.950 . S
H3651 C3663 0.950 . S
C3652 H3644 0.950 . S
C3652 C3653 1.386 . S
C3652 C3654 1.391 . S
C3653 C3652 1.386 . S
C3653 C3657 1.393 . S
C3654 H3646 0.950 . S
C3654 C3652 1.391 . S
C3654 C3655 1.400 . S
C3655 C3654 1.400 . S
C3655 C3656 1.398 . S
C3655 C3661 1.491 . S
C3656 H3647 0.950 . S
C3656 C3655 1.398 . S
C3656 C3657 1.391 . S
C3657 H3645 0.950 . S
C3657 C3653 1.393 . S
C3657 C3656 1.391 . S
C3658 H3648 0.950 . S
C3658 C3659 1.386 . S
C3658 C3660 1.391 . S
C3659 C3658 1.386 . S
C3659 C3663 1.393 . S
C3660 H3649 0.950 . S
C3660 C3658 1.391 . S
C3660 C3661 1.400 . S
C3661 C3655 1.491 . S
C3661 C3660 1.400 . S
C3661 C3662 1.398 . S
C3662 H3650 0.950 . S
C3662 C3661 1.398 . S
C3662 C3663 1.391 . S
C3663 H3651 0.950 . S
C3663 C3659 1.393 . S
C3663 C3662 1.391 . S
H3664 C3672 0.950 . S
H3665 C3677 0.950 . S
H3666 C3674 0.950 . S
H3667 C3676 0.950 . S
H3668 C3678 0.950 . S
H3669 C3680 0.950 . S
H3670 C3682 0.950 . S
H3671 C3683 0.950 . S
C3672 H3664 0.950 . S
C3672 C3673 1.386 . S
C3672 C3674 1.391 . S
C3673 C3672 1.386 . S
C3673 C3677 1.393 . S
C3674 H3666 0.950 . S
C3674 C3672 1.391 . S
C3674 C3675 1.400 . S
C3675 C3674 1.400 . S
C3675 C3676 1.398 . S
C3675 C3681 1.491 . S
C3676 H3667 0.950 . S
C3676 C3675 1.398 . S
C3676 C3677 1.391 . S
C3677 H3665 0.950 . S
C3677 C3673 1.393 . S
C3677 C3676 1.391 . S
C3678 H3668 0.950 . S
C3678 C3679 1.386 . S
C3678 C3680 1.391 . S
C3679 C3678 1.386 . S
C3679 C3683 1.393 . S
C3680 H3669 0.950 . S
C3680 C3678 1.391 . S
C3680 C3681 1.400 . S
C3681 C3675 1.491 . S
C3681 C3680 1.400 . S
C3681 C3682 1.398 . S
C3682 H3670 0.950 . S
C3682 C3681 1.398 . S
C3682 C3683 1.391 . S
C3683 H3671 0.950 . S
C3683 C3679 1.393 . S
C3683 C3682 1.391 . S
H3684 C3692 0.950 . S
H3685 C3697 0.950 . S
H3686 C3694 0.950 . S
H3687 C3696 0.950 . S
H3688 C3698 0.950 . S
H3689 C3700 0.950 . S
H3690 C3702 0.950 . S
H3691 C3703 0.950 . S
C3692 H3684 0.950 . S
C3692 C3693 1.386 . S
C3692 C3694 1.391 . S
C3693 C3692 1.386 . S
C3693 C3697 1.393 . S
C3694 H3686 0.950 . S
C3694 C3692 1.391 . S
C3694 C3695 1.400 . S
C3695 C3694 1.400 . S
C3695 C3696 1.398 . S
C3695 C3701 1.491 . S
C3696 H3687 0.950 . S
C3696 C3695 1.398 . S
C3696 C3697 1.391 . S
C3697 H3685 0.950 . S
C3697 C3693 1.393 . S
C3697 C3696 1.391 . S
C3698 H3688 0.950 . S
C3698 C3699 1.386 . S
C3698 C3700 1.391 . S
C3699 C3698 1.386 . S
C3699 C3703 1.393 . S
C3700 H3689 0.950 . S
C3700 C3698 1.391 . S
C3700 C3701 1.400 . S
C3701 C3695 1.491 . S
C3701 C3700 1.400 . S
C3701 C3702 1.398 . S
C3702 H3690 0.950 . S
C3702 C3701 1.398 . S
C3702 C3703 1.391 . S
C3703 H3691 0.950 . S
C3703 C3699 1.393 . S
C3703 C3702 1.391 . S
H3704 C3712 0.950 . S
H3705 C3717 0.950 . S
H3706 C3714 0.950 . S
H3707 C3716 0.950 . S
H3708 C3718 0.950 . S
H3709 C3720 0.950 . S
H3710 C3722 0.950 . S
H3711 C3723 0.950 . S
C3712 H3704 0.950 . S
C3712 C3713 1.386 . S
C3712 C3714 1.391 . S
C3713 C3712 1.386 . S
C3713 C3717 1.393 . S
C3714 H3706 0.950 . S
C3714 C3712 1.391 . S
C3714 C3715 1.400 . S
C3715 C3714 1.400 . S
C3715 C3716 1.398 . S
C3715 C3721 1.491 . S
C3716 H3707 0.950 . S
C3716 C3715 1.398 . S
C3716 C3717 1.391 . S
C3717 H3705 0.950 . S
C3717 C3713 1.393 . S
C3717 C3716 1.391 . S
C3718 H3708 0.950 . S
C3718 C3719 1.386 . S
C3718 C3720 1.391 . S
C3719 C3718 1.386 . S
C3719 C3723 1.393 . S
C3720 H3709 0.950 . S
C3720 C3718 1.391 . S
C3720 C3721 1.400 . S
C3721 C3715 1.491 . S
C3721 C3720 1.400 . S
C3721 C3722 1.398 . S
C3722 H3710 0.950 . S
C3722 C3721 1.398 . S
C3722 C3723 1.391 . S
C3723 H3711 0.950 . S
C3723 C3719 1.393 . S
C3723 C3722 1.391 . S
H3724 C3732 0.950 . S
H3725 C3737 0.950 . S
H3726 C3734 0.950 . S
H3727 C3736 0.950 . S
H3728 C3738 0.950 . S
H3729 C3740 0.950 . S
H3730 C3742 0.950 . S
H3731 C3743 0.950 . S
C3732 H3724 0.950 . S
C3732 C3733 1.386 . S
C3732 C3734 1.391 . S
C3733 C3732 1.386 . S
C3733 C3737 1.393 . S
C3734 H3726 0.950 . S
C3734 C3732 1.391 . S
C3734 C3735 1.400 . S
C3735 C3734 1.400 . S
C3735 C3736 1.398 . S
C3735 C3741 1.491 . S
C3736 H3727 0.950 . S
C3736 C3735 1.398 . S
C3736 C3737 1.391 . S
C3737 H3725 0.950 . S
C3737 C3733 1.393 . S
C3737 C3736 1.391 . S
C3738 H3728 0.950 . S
C3738 C3739 1.386 . S
C3738 C3740 1.391 . S
C3739 C3738 1.386 . S
C3739 C3743 1.393 . S
C3740 H3729 0.950 . S
C3740 C3738 1.391 . S
C3740 C3741 1.400 . S
C3741 C3735 1.491 . S
C3741 C3740 1.400 . S
C3741 C3742 1.398 . S
C3742 H3730 0.950 . S
C3742 C3741 1.398 . S
C3742 C3743 1.391 . S
C3743 H3731 0.950 . S
C3743 C3739 1.393 . S
C3743 C3742 1.391 . S
H3744 C3752 0.950 . S
H3745 C3757 0.950 . S
H3746 C3754 0.950 . S
H3747 C3756 0.950 . S
H3748 C3758 0.950 . S
H3749 C3760 0.950 . S
H3750 C3762 0.950 . S
H3751 C3763 0.950 . S
C3752 H3744 0.950 . S
C3752 C3753 1.386 . S
C3752 C3754 1.391 . S
C3753 C3752 1.386 . S
C3753 C3757 1.393 . S
C3754 H3746 0.950 . S
C3754 C3752 1.391 . S
C3754 C3755 1.400 . S
C3755 C3754 1.400 . S
C3755 C3756 1.398 . S
C3755 C3761 1.491 . S
C3756 H3747 0.950 . S
C3756 C3755 1.398 . S
C3756 C3757 1.391 . S
C3757 H3745 0.950 . S
C3757 C3753 1.393 . S
C3757 C3756 1.391 . S
C3758 H3748 0.950 . S
C3758 C3759 1.386 . S
C3758 C3760 1.391 . S
C3759 C3758 1.386 . S
C3759 C3763 1.393 . S
C3760 H3749 0.950 . S
C3760 C3758 1.391 . S
C3760 C3761 1.400 . S
C3761 C3755 1.491 . S
C3761 C3760 1.400 . S
C3761 C3762 1.398 . S
C3762 H3750 0.950 . S
C3762 C3761 1.398 . S
C3762 C3763 1.391 . S
C3763 H3751 0.950 . S
C3763 C3759 1.393 . S
C3763 C3762 1.391 . S
H3764 C3772 0.950 . S
H3765 C3777 0.950 . S
H3766 C3774 0.950 . S
H3767 C3776 0.950 . S
H3768 C3778 0.950 . S
H3769 C3780 0.950 . S
H3770 C3782 0.950 . S
H3771 C3783 0.950 . S
C3772 H3764 0.950 . S
C3772 C3773 1.386 . S
C3772 C3774 1.391 . S
C3773 C3772 1.386 . S
C3773 C3777 1.393 . S
C3774 H3766 0.950 . S
C3774 C3772 1.391 . S
C3774 C3775 1.400 . S
C3775 C3774 1.400 . S
C3775 C3776 1.398 . S
C3775 C3781 1.491 . S
C3776 H3767 0.950 . S
C3776 C3775 1.398 . S
C3776 C3777 1.391 . S
C3777 H3765 0.950 . S
C3777 C3773 1.393 . S
C3777 C3776 1.391 . S
C3778 H3768 0.950 . S
C3778 C3779 1.386 . S
C3778 C3780 1.391 . S
C3779 C3778 1.386 . S
C3779 C3783 1.393 . S
C3780 H3769 0.950 . S
C3780 C3778 1.391 . S
C3780 C3781 1.400 . S
C3781 C3775 1.491 . S
C3781 C3780 1.400 . S
C3781 C3782 1.398 . S
C3782 H3770 0.950 . S
C3782 C3781 1.398 . S
C3782 C3783 1.391 . S
C3783 H3771 0.950 . S
C3783 C3779 1.393 . S
C3783 C3782 1.391 . S
H3784 C3792 0.950 . S
H3785 C3797 0.950 . S
H3786 C3794 0.950 . S
H3787 C3796 0.950 . S
H3788 C3798 0.950 . S
H3789 C3800 0.950 . S
H3790 C3802 0.950 . S
H3791 C3803 0.950 . S
C3792 H3784 0.950 . S
C3792 C3793 1.386 . S
C3792 C3794 1.391 . S
C3793 C3792 1.386 . S
C3793 C3797 1.393 . S
C3794 H3786 0.950 . S
C3794 C3792 1.391 . S
C3794 C3795 1.400 . S
C3795 C3794 1.400 . S
C3795 C3796 1.398 . S
C3795 C3801 1.491 . S
C3796 H3787 0.950 . S
C3796 C3795 1.398 . S
C3796 C3797 1.391 . S
C3797 H3785 0.950 . S
C3797 C3793 1.393 . S
C3797 C3796 1.391 . S
C3798 H3788 0.950 . S
C3798 C3799 1.386 . S
C3798 C3800 1.391 . S
C3799 C3798 1.386 . S
C3799 C3803 1.393 . S
C3800 H3789 0.950 . S
C3800 C3798 1.391 . S
C3800 C3801 1.400 . S
C3801 C3795 1.491 . S
C3801 C3800 1.400 . S
C3801 C3802 1.398 . S
C3802 H3790 0.950 . S
C3802 C3801 1.398 . S
C3802 C3803 1.391 . S
C3803 H3791 0.950 . S
C3803 C3799 1.393 . S
C3803 C3802 1.391 . S
H3804 C3812 0.950 . S
H3805 C3817 0.950 . S
H3806 C3814 0.950 . S
H3807 C3816 0.950 . S
H3808 C3818 0.950 . S
H3809 C3820 0.950 . S
H3810 C3822 0.950 . S
H3811 C3823 0.950 . S
C3812 H3804 0.950 . S
C3812 C3813 1.386 . S
C3812 C3814 1.391 . S
C3813 C3812 1.386 . S
C3813 C3817 1.393 . S
C3814 H3806 0.950 . S
C3814 C3812 1.391 . S
C3814 C3815 1.400 . S
C3815 C3814 1.400 . S
C3815 C3816 1.398 . S
C3815 C3821 1.491 . S
C3816 H3807 0.950 . S
C3816 C3815 1.398 . S
C3816 C3817 1.391 . S
C3817 H3805 0.950 . S
C3817 C3813 1.393 . S
C3817 C3816 1.391 . S
C3818 H3808 0.950 . S
C3818 C3819 1.386 . S
C3818 C3820 1.391 . S
C3819 C3818 1.386 . S
C3819 C3823 1.393 . S
C3820 H3809 0.950 . S
C3820 C3818 1.391 . S
C3820 C3821 1.400 . S
C3821 C3815 1.491 . S
C3821 C3820 1.400 . S
C3821 C3822 1.398 . S
C3822 H3810 0.950 . S
C3822 C3821 1.398 . S
C3822 C3823 1.391 . S
C3823 H3811 0.950 . S
C3823 C3819 1.393 . S
C3823 C3822 1.391 . S
H3824 C3832 0.950 . S
H3825 C3837 0.950 . S
H3826 C3834 0.950 . S
H3827 C3836 0.950 . S
H3828 C3838 0.950 . S
H3829 C3840 0.950 . S
H3830 C3842 0.950 . S
H3831 C3843 0.950 . S
C3832 H3824 0.950 . S
C3832 C3833 1.386 . S
C3832 C3834 1.391 . S
C3833 C3832 1.386 . S
C3833 C3837 1.393 . S
C3834 H3826 0.950 . S
C3834 C3832 1.391 . S
C3834 C3835 1.400 . S
C3835 C3834 1.400 . S
C3835 C3836 1.398 . S
C3835 C3841 1.491 . S
C3836 H3827 0.950 . S
C3836 C3835 1.398 . S
C3836 C3837 1.391 . S
C3837 H3825 0.950 . S
C3837 C3833 1.393 . S
C3837 C3836 1.391 . S
C3838 H3828 0.950 . S
C3838 C3839 1.386 . S
C3838 C3840 1.391 . S
C3839 C3838 1.386 . S
C3839 C3843 1.393 . S
C3840 H3829 0.950 . S
C3840 C3838 1.391 . S
C3840 C3841 1.400 . S
C3841 C3835 1.491 . S
C3841 C3840 1.400 . S
C3841 C3842 1.398 . S
C3842 H3830 0.950 . S
C3842 C3841 1.398 . S
C3842 C3843 1.391 . S
C3843 H3831 0.950 . S
C3843 C3839 1.393 . S
C3843 C3842 1.391 . S
H3844 C3852 0.950 . S
H3845 C3857 0.950 . S
H3846 C3854 0.950 . S
H3847 C3856 0.950 . S
H3848 C3858 0.950 . S
H3849 C3860 0.950 . S
H3850 C3862 0.950 . S
H3851 C3863 0.950 . S
C3852 H3844 0.950 . S
C3852 C3853 1.386 . S
C3852 C3854 1.391 . S
C3853 C3852 1.386 . S
C3853 C3857 1.393 . S
C3854 H3846 0.950 . S
C3854 C3852 1.391 . S
C3854 C3855 1.400 . S
C3855 C3854 1.400 . S
C3855 C3856 1.398 . S
C3855 C3861 1.491 . S
C3856 H3847 0.950 . S
C3856 C3855 1.398 . S
C3856 C3857 1.391 . S
C3857 H3845 0.950 . S
C3857 C3853 1.393 . S
C3857 C3856 1.391 . S
C3858 H3848 0.950 . S
C3858 C3859 1.386 . S
C3858 C3860 1.391 . S
C3859 C3858 1.386 . S
C3859 C3863 1.393 . S
C3860 H3849 0.950 . S
C3860 C3858 1.391 . S
C3860 C3861 1.400 . S
C3861 C3855 1.491 . S
C3861 C3860 1.400 . S
C3861 C3862 1.398 . S
C3862 H3850 0.950 . S
C3862 C3861 1.398 . S
C3862 C3863 1.391 . S
C3863 H3851 0.950 . S
C3863 C3859 1.393 . S
C3863 C3862 1.391 . S
H3864 C3872 0.950 . S
H3865 C3877 0.950 . S
H3866 C3874 0.950 . S
H3867 C3876 0.950 . S
H3868 C3878 0.950 . S
H3869 C3880 0.950 . S
H3870 C3882 0.950 . S
H3871 C3883 0.950 . S
C3872 H3864 0.950 . S
C3872 C3873 1.386 . S
C3872 C3874 1.391 . S
C3873 C3872 1.386 . S
C3873 C3877 1.393 . S
C3874 H3866 0.950 . S
C3874 C3872 1.391 . S
C3874 C3875 1.400 . S
C3875 C3874 1.400 . S
C3875 C3876 1.398 . S
C3875 C3881 1.491 . S
C3876 H3867 0.950 . S
C3876 C3875 1.398 . S
C3876 C3877 1.391 . S
C3877 H3865 0.950 . S
C3877 C3873 1.393 . S
C3877 C3876 1.391 . S
C3878 H3868 0.950 . S
C3878 C3879 1.386 . S
C3878 C3880 1.391 . S
C3879 C3878 1.386 . S
C3879 C3883 1.393 . S
C3880 H3869 0.950 . S
C3880 C3878 1.391 . S
C3880 C3881 1.400 . S
C3881 C3875 1.491 . S
C3881 C3880 1.400 . S
C3881 C3882 1.398 . S
C3882 H3870 0.950 . S
C3882 C3881 1.398 . S
C3882 C3883 1.391 . S
C3883 H3871 0.950 . S
C3883 C3879 1.393 . S
C3883 C3882 1.391 . S
H3884 C3892 0.950 . S
H3885 C3897 0.950 . S
H3886 C3894 0.950 . S
H3887 C3896 0.950 . S
H3888 C3898 0.950 . S
H3889 C3900 0.950 . S
H3890 C3902 0.950 . S
H3891 C3903 0.950 . S
C3892 H3884 0.950 . S
C3892 C3893 1.386 . S
C3892 C3894 1.391 . S
C3893 C3892 1.386 . S
C3893 C3897 1.393 . S
C3894 H3886 0.950 . S
C3894 C3892 1.391 . S
C3894 C3895 1.400 . S
C3895 C3894 1.400 . S
C3895 C3896 1.398 . S
C3895 C3901 1.491 . S
C3896 H3887 0.950 . S
C3896 C3895 1.398 . S
C3896 C3897 1.391 . S
C3897 H3885 0.950 . S
C3897 C3893 1.393 . S
C3897 C3896 1.391 . S
C3898 H3888 0.950 . S
C3898 C3899 1.386 . S
C3898 C3900 1.391 . S
C3899 C3898 1.386 . S
C3899 C3903 1.393 . S
C3900 H3889 0.950 . S
C3900 C3898 1.391 . S
C3900 C3901 1.400 . S
C3901 C3895 1.491 . S
C3901 C3900 1.400 . S
C3901 C3902 1.398 . S
C3902 H3890 0.950 . S
C3902 C3901 1.398 . S
C3902 C3903 1.391 . S
C3903 H3891 0.950 . S
C3903 C3899 1.393 . S
C3903 C3902 1.391 . S
H3904 C3912 0.950 . S
H3905 C3917 0.950 . S
H3906 C3914 0.950 . S
H3907 C3916 0.950 . S
H3908 C3918 0.950 . S
H3909 C3920 0.950 . S
H3910 C3922 0.950 . S
H3911 C3923 0.950 . S
C3912 H3904 0.950 . S
C3912 C3913 1.386 . S
C3912 C3914 1.391 . S
C3913 C3912 1.386 . S
C3913 C3917 1.393 . S
C3914 H3906 0.950 . S
C3914 C3912 1.391 . S
C3914 C3915 1.400 . S
C3915 C3914 1.400 . S
C3915 C3916 1.398 . S
C3915 C3921 1.491 . S
C3916 H3907 0.950 . S
C3916 C3915 1.398 . S
C3916 C3917 1.391 . S
C3917 H3905 0.950 . S
C3917 C3913 1.393 . S
C3917 C3916 1.391 . S
C3918 H3908 0.950 . S
C3918 C3919 1.386 . S
C3918 C3920 1.391 . S
C3919 C3918 1.386 . S
C3919 C3923 1.393 . S
C3920 H3909 0.950 . S
C3920 C3918 1.391 . S
C3920 C3921 1.400 . S
C3921 C3915 1.491 . S
C3921 C3920 1.400 . S
C3921 C3922 1.398 . S
C3922 H3910 0.950 . S
C3922 C3921 1.398 . S
C3922 C3923 1.391 . S
C3923 H3911 0.950 . S
C3923 C3919 1.393 . S
C3923 C3922 1.391 . S
H3924 C3932 0.950 . S
H3925 C3937 0.950 . S
H3926 C3934 0.950 . S
H3927 C3936 0.950 . S
H3928 C3938 0.950 . S
H3929 C3940 0.950 . S
H3930 C3942 0.950 . S
H3931 C3943 0.950 . S
C3932 H3924 0.950 . S
C3932 C3933 1.386 . S
C3932 C3934 1.391 . S
C3933 C3932 1.386 . S
C3933 C3937 1.393 . S
C3934 H3926 0.950 . S
C3934 C3932 1.391 . S
C3934 C3935 1.400 . S
C3935 C3934 1.400 . S
C3935 C3936 1.398 . S
C3935 C3941 1.491 . S
C3936 H3927 0.950 . S
C3936 C3935 1.398 . S
C3936 C3937 1.391 . S
C3937 H3925 0.950 . S
C3937 C3933 1.393 . S
C3937 C3936 1.391 . S
C3938 H3928 0.950 . S
C3938 C3939 1.386 . S
C3938 C3940 1.391 . S
C3939 C3938 1.386 . S
C3939 C3943 1.393 . S
C3940 H3929 0.950 . S
C3940 C3938 1.391 . S
C3940 C3941 1.400 . S
C3941 C3935 1.491 . S
C3941 C3940 1.400 . S
C3941 C3942 1.398 . S
C3942 H3930 0.950 . S
C3942 C3941 1.398 . S
C3942 C3943 1.391 . S
C3943 H3931 0.950 . S
C3943 C3939 1.393 . S
C3943 C3942 1.391 . S
H3944 C3952 0.950 . S
H3945 C3957 0.950 . S
H3946 C3954 0.950 . S
H3947 C3956 0.950 . S
H3948 C3958 0.950 . S
H3949 C3960 0.950 . S
H3950 C3962 0.950 . S
H3951 C3963 0.950 . S
C3952 H3944 0.950 . S
C3952 C3953 1.386 . S
C3952 C3954 1.391 . S
C3953 C3952 1.386 . S
C3953 C3957 1.393 . S
C3954 H3946 0.950 . S
C3954 C3952 1.391 . S
C3954 C3955 1.400 . S
C3955 C3954 1.400 . S
C3955 C3956 1.398 . S
C3955 C3961 1.491 . S
C3956 H3947 0.950 . S
C3956 C3955 1.398 . S
C3956 C3957 1.391 . S
C3957 H3945 0.950 . S
C3957 C3953 1.393 . S
C3957 C3956 1.391 . S
C3958 H3948 0.950 . S
C3958 C3959 1.386 . S
C3958 C3960 1.391 . S
C3959 C3958 1.386 . S
C3959 C3963 1.393 . S
C3960 H3949 0.950 . S
C3960 C3958 1.391 . S
C3960 C3961 1.400 . S
C3961 C3955 1.491 . S
C3961 C3960 1.400 . S
C3961 C3962 1.398 . S
C3962 H3950 0.950 . S
C3962 C3961 1.398 . S
C3962 C3963 1.391 . S
C3963 H3951 0.950 . S
C3963 C3959 1.393 . S
C3963 C3962 1.391 . S
H3964 C3972 0.950 . S
H3965 C3977 0.950 . S
H3966 C3974 0.950 . S
H3967 C3976 0.950 . S
H3968 C3978 0.950 . S
H3969 C3980 0.950 . S
H3970 C3982 0.950 . S
H3971 C3983 0.950 . S
C3972 H3964 0.950 . S
C3972 C3973 1.386 . S
C3972 C3974 1.391 . S
C3973 C3972 1.386 . S
C3973 C3977 1.393 . S
C3974 H3966 0.950 . S
C3974 C3972 1.391 . S
C3974 C3975 1.400 . S
C3975 C3974 1.400 . S
C3975 C3976 1.398 . S
C3975 C3981 1.491 . S
C3976 H3967 0.950 . S
C3976 C3975 1.398 . S
C3976 C3977 1.391 . S
C3977 H3965 0.950 . S
C3977 C3973 1.393 . S
C3977 C3976 1.391 . S
C3978 H3968 0.950 . S
C3978 C3979 1.386 . S
C3978 C3980 1.391 . S
C3979 C3978 1.386 . S
C3979 C3983 1.393 . S
C3980 H3969 0.950 . S
C3980 C3978 1.391 . S
C3980 C3981 1.400 . S
C3981 C3975 1.491 . S
C3981 C3980 1.400 . S
C3981 C3982 1.398 . S
C3982 H3970 0.950 . S
C3982 C3981 1.398 . S
C3982 C3983 1.391 . S
C3983 H3971 0.950 . S
C3983 C3979 1.393 . S
C3983 C3982 1.391 . S
C1593 C1044 1.242 . S
C1599 C21 1.240 . S
C1613 C54 1.242 . S
C1619 C945 1.241 . S
C1633 C87 1.213 . S
C1639 C978 1.238 . S
C1653 C1011 1.245 . S
C1659 C120 1.236 . S
C1673 C846 1.218 . S
C1679 C153 1.213 . S
C1693 C879 1.234 . S
C1699 C186 1.211 . S
C1713 C219 1.229 . S
C1719 C912 1.210 . S
C1733 C252 1.221 . S
C1739 C813 1.211 . S
C1753 C285 1.246 . S
C1759 C1473 1.232 . S
C1773 C318 1.215 . S
C1779 C1374 1.216 . S
C1793 C351 1.245 . S
C1799 C1407 1.236 . S
C1813 C384 1.223 . S
C1819 C1440 1.210 . S
C1833 C1572 1.224 . S
C1839 C417 1.210 . S
C1853 C450 1.211 . S
C1859 C1506 1.222 . S
C1873 C483 1.222 . S
C1879 C1539 1.211 . S
C1893 C1341 1.211 . S
C1899 C516 1.221 . S
C1913 C549 1.222 . S
C1919 C1308 1.245 . S
C1933 C1110 1.233 . S
C1939 C582 1.246 . S
C1953 C1143 1.221 . S
C1959 C615 1.245 . S
C1973 C1176 1.211 . S
C1979 C648 1.222 . S
C1993 C681 1.233 . S
C1999 C1077 1.210 . S
C2013 C714 1.219 . S
C2019 C1242 1.244 . S
C2033 C1275 1.233 . S
C2039 C747 1.246 . S
C2053 C780 1.211 . S
C2059 C1209 1.234 . S
C2073 C73 1.075 . S
C2079 C7 1.073 . S
C2093 C40 1.072 . S
C2099 C106 1.073 . S
C2113 C205 1.076 . S
C2119 C139 1.071 . S
C2133 C238 1.075 . S
C2139 C172 1.072 . S
C2153 C271 1.075 . S
C2159 C403 1.073 . S
C2173 C436 1.071 . S
C2179 C304 1.076 . S
C2193 C469 1.075 . S
C2199 C337 1.073 . S
C2213 C502 1.075 . S
C2219 C370 1.073 . S
C2233 C634 1.071 . S
C2239 C535 1.076 . S
C2253 C568 1.076 . S
C2259 C700 1.072 . S
C2273 C601 1.072 . S
C2279 C733 1.073 . S
C2293 C667 1.073 . S
C2299 C766 1.073 . S
C2313 C865 1.073 . S
C2319 C799 1.072 . S
C2333 C898 1.075 . S
C2339 C832 1.071 . S
C2353 C997 1.074 . S
C2359 C931 1.072 . S
C2373 C1030 1.075 . S
C2379 C964 1.071 . S
C2393 C1063 1.076 . S
C2399 C1195 1.072 . S
C2413 C1096 1.071 . S
C2419 C1228 1.075 . S
C2433 C1261 1.071 . S
C2439 C1129 1.075 . S
C2453 C1294 1.076 . S
C2459 C1162 1.071 . S
C2473 C1327 1.076 . S
C2479 C1426 1.071 . S
C2493 C1492 1.074 . S
C2499 C1360 1.073 . S
C2513 C1525 1.074 . S
C2519 C1393 1.073 . S
C2533 C1558 1.076 . S
C2539 C1459 1.071 . S
C2553 N739 0.707 . S
C2559 N13 0.749 . S
C2573 N46 0.751 . S
C2579 N541 0.712 . S
C2593 N79 0.752 . S
C2599 N772 0.715 . S
C2613 N112 0.753 . S
C2619 N706 0.728 . S
C2633 N145 0.723 . S
C2639 N607 0.676 . S
C2653 N640 0.672 . S
C2659 N178 0.685 . S
C2673 N211 0.669 . S
C2679 N673 0.692 . S
C2693 N244 0.671 . S
C2699 N574 0.710 . S
C2713 N277 0.689 . S
C2719 N442 0.670 . S
C2733 N475 0.693 . S
C2739 N310 0.669 . S
C2753 N508 0.669 . S
C2759 N343 0.697 . S
C2773 N409 0.724 . S
C2779 N376 0.677 . S
C2793 N805 0.721 . S
C2799 N1531 0.676 . S
C2813 N1333 0.745 . S
C2819 N838 0.747 . S
C2833 N1564 0.669 . S
C2839 N871 0.698 . S
C2853 N904 0.673 . S
C2859 N1498 0.682 . S
C2873 N1399 0.672 . S
C2879 N937 0.685 . S
C2893 N1432 0.676 . S
C2899 N970 0.722 . S
C2913 N1465 0.685 . S
C2919 N1003 0.672 . S
C2933 N1036 0.669 . S
C2939 N1366 0.703 . S
C2953 N1069 0.741 . S
C2959 N1234 0.693 . S
C2973 N1102 0.714 . S
C2979 N1267 0.751 . S
C2993 N1300 0.734 . S
C2999 N1135 0.685 . S
C3013 N1201 0.751 . S
C3019 N1168 0.738 . S
C3033 C18 2.078 . S
C3039 N596 1.923 1_554 S
C3053 N629 1.934 1_554 S
C3059 C51 2.083 . S
C3073 C84 2.079 . S
C3079 N662 1.915 1_554 S
C3093 N563 1.931 1_554 S
C3099 C117 2.080 . S
C3113 C150 2.088 . S
C3119 N728 1.926 1_556 S
C3133 N530 1.934 1_556 S
C3139 C183 2.082 . S
C3153 N761 1.916 1_556 S
C3159 C216 2.088 . S
C3173 C249 2.078 . S
C3179 N695 1.917 1_556 S
C3193 N299 1.931 1_455 S
C3199 C282 2.080 . S
C3213 C315 2.088 . S
C3219 N332 1.917 1_545 S
C3233 C348 2.084 . S
C3239 N365 1.934 1_655 S
C3253 N266 1.928 1_565 S
C3259 C381 2.079 . S
C3273 C414 2.087 . S
C3279 N497 1.927 1_455 S
C3293 C447 2.081 . S
C3299 N398 1.933 1_545 S
C3313 C480 2.079 . S
C3319 N431 1.928 1_655 S
C3333 N464 1.930 1_565 S
C3339 C513 2.087 . S
C3353 N101 1.914 1_545 S
C3359 C546 2.079 . S
C3373 C579 2.080 . S
C3379 N167 1.931 1_565 S
C3393 N200 1.928 1_455 S
C3399 C612 2.079 . S
C3413 N233 1.923 1_545 S
C3419 C645 2.088 . S
C3433 C678 2.078 . S
C3439 N134 1.921 1_655 S
C3453 N35 1.928 1_565 S
C3459 C711 2.079 . S
C3473 C744 2.087 . S
C3479 N68 1.928 1_455 S
C3493 N2 1.933 1_655 S
C3499 C777 2.081 . S
C3513 C810 2.079 . S
C3519 N1388 1.913 . S
C3533 N1421 1.929 . S
C3539 C843 2.079 . S
C3553 C876 2.084 . S
C3559 N1454 1.905 . S
C3573 N1355 1.918 . S
C3579 C909 2.088 . S
C3593 C942 2.081 . S
C3599 N1520 1.933 . S
C3613 C975 2.086 . S
C3619 N1322 1.906 . S
C3633 C1008 2.079 . S
C3639 N1553 1.927 . S
C3653 N1487 1.908 . S
C3659 C1041 2.080 . S
C3673 C1074 2.078 . S
C3679 N1091 1.919 . S
C3693 N1124 1.933 . S
C3699 C1107 2.081 . S
C3713 N1157 1.934 . S
C3719 C1140 2.084 . S
C3733 C1173 2.088 . S
C3739 N1058 1.926 . S
C3753 C1206 2.086 . S
C3759 N1289 1.933 . S
C3773 C1239 2.081 . S
C3779 N1190 1.906 . S
C3793 C1272 2.088 . S
C3799 N1223 1.921 . S
C3813 C1305 2.079 . S
C3819 N1256 1.914 . S
C3833 C1338 2.085 . S
C3839 N893 1.906 . S
C3853 N959 1.933 . S
C3859 C1371 2.085 . S
C3873 N992 1.934 . S
C3879 C1404 2.084 . S
C3893 N1025 1.915 . S
C3899 C1437 2.088 . S
C3913 N926 1.934 . S
C3919 C1470 2.082 . S
C3933 N827 1.924 . S
C3939 C1503 2.078 . S
C3953 N860 1.908 . S
C3959 C1536 2.087 . S
C3973 N794 1.917 . S
C3979 C1569 2.088 . S
