# Generated by pormake.
# Topology sms, (6)-cn, num edge types: 1
# Building blocks:
#     Node 0, Type 0, BuildingBlock: IZENUY_clean_sbu_0, # of connection points: 6
#     Node 1, Type 0, BuildingBlock: IZENUY_clean_sbu_0, # of connection points: 6
#     Node 2, Type 0, BuildingBlock: IZENUY_clean_sbu_0, # of connection points: 6
#     Node 3, Type 0, BuildingBlock: IZENUY_clean_sbu_0, # of connection points: 6
#     Node 4, Type 0, BuildingBlock: IZENUY_clean_sbu_0, # of connection points: 6
#     Node 5, Type 0, BuildingBlock: IZENUY_clean_sbu_0, # of connection points: 6
#     Node 6, Type 0, BuildingBlock: IZENUY_clean_sbu_0, # of connection points: 6
#     Node 7, Type 0, BuildingBlock: IZENUY_clean_sbu_0, # of connection points: 6
#     Node 8, Type 0, BuildingBlock: IZENUY_clean_sbu_0, # of connection points: 6
#     Node 9, Type 0, BuildingBlock: IZENUY_clean_sbu_0, # of connection points: 6
#     Node 10, Type 0, BuildingBlock: IZENUY_clean_sbu_0, # of connection points: 6
#     Node 11, Type 0, BuildingBlock: IZENUY_clean_sbu_0, # of connection points: 6
#     Node 12, Type 0, BuildingBlock: IZENUY_clean_sbu_0, # of connection points: 6
#     Node 13, Type 0, BuildingBlock: IZENUY_clean_sbu_0, # of connection points: 6
#     Node 14, Type 0, BuildingBlock: IZENUY_clean_sbu_0, # of connection points: 6
#     Node 15, Type 0, BuildingBlock: IZENUY_clean_sbu_0, # of connection points: 6
#     Node 16, Type 0, BuildingBlock: IZENUY_clean_sbu_0, # of connection points: 6
#     Node 17, Type 0, BuildingBlock: IZENUY_clean_sbu_0, # of connection points: 6
#     Edge 18, Type (0, 0), BuildingBlock: ZUJKAS_clean_linker_0, # of connection points: 2
#     Edge 19, Type (0, 0), BuildingBlock: ZUJKAS_clean_linker_0, # of connection points: 2
#     Edge 20, Type (0, 0), BuildingBlock: ZUJKAS_clean_linker_0, # of connection points: 2
#     Edge 21, Type (0, 0), BuildingBlock: ZUJKAS_clean_linker_0, # of connection points: 2
#     Edge 22, Type (0, 0), BuildingBlock: ZUJKAS_clean_linker_0, # of connection points: 2
#     Edge 23, Type (0, 0), BuildingBlock: ZUJKAS_clean_linker_0, # of connection points: 2
#     Edge 24, Type (0, 0), BuildingBlock: ZUJKAS_clean_linker_0, # of connection points: 2
#     Edge 25, Type (0, 0), BuildingBlock: ZUJKAS_clean_linker_0, # of connection points: 2
#     Edge 26, Type (0, 0), BuildingBlock: ZUJKAS_clean_linker_0, # of connection points: 2
#     Edge 27, Type (0, 0), BuildingBlock: ZUJKAS_clean_linker_0, # of connection points: 2
#     Edge 28, Type (0, 0), BuildingBlock: ZUJKAS_clean_linker_0, # of connection points: 2
#     Edge 29, Type (0, 0), BuildingBlock: ZUJKAS_clean_linker_0, # of connection points: 2
#     Edge 30, Type (0, 0), BuildingBlock: ZUJKAS_clean_linker_0, # of connection points: 2
#     Edge 31, Type (0, 0), BuildingBlock: ZUJKAS_clean_linker_0, # of connection points: 2
#     Edge 32, Type (0, 0), BuildingBlock: ZUJKAS_clean_linker_0, # of connection points: 2
#     Edge 33, Type (0, 0), BuildingBlock: ZUJKAS_clean_linker_0, # of connection points: 2
#     Edge 34, Type (0, 0), BuildingBlock: ZUJKAS_clean_linker_0, # of connection points: 2
#     Edge 35, Type (0, 0), BuildingBlock: ZUJKAS_clean_linker_0, # of connection points: 2
#     Edge 36, Type (0, 0), BuildingBlock: ZUJKAS_clean_linker_0, # of connection points: 2
#     Edge 37, Type (0, 0), BuildingBlock: ZUJKAS_clean_linker_0, # of connection points: 2
#     Edge 38, Type (0, 0), BuildingBlock: ZUJKAS_clean_linker_0, # of connection points: 2
#     Edge 39, Type (0, 0), BuildingBlock: ZUJKAS_clean_linker_0, # of connection points: 2
#     Edge 40, Type (0, 0), BuildingBlock: ZUJKAS_clean_linker_0, # of connection points: 2
#     Edge 41, Type (0, 0), BuildingBlock: ZUJKAS_clean_linker_0, # of connection points: 2
#     Edge 42, Type (0, 0), BuildingBlock: ZUJKAS_clean_linker_0, # of connection points: 2
#     Edge 43, Type (0, 0), BuildingBlock: ZUJKAS_clean_linker_0, # of connection points: 2
#     Edge 44, Type (0, 0), BuildingBlock: ZUJKAS_clean_linker_0, # of connection points: 2
#     Edge 45, Type (0, 0), BuildingBlock: ZUJKAS_clean_linker_0, # of connection points: 2
#     Edge 46, Type (0, 0), BuildingBlock: ZUJKAS_clean_linker_0, # of connection points: 2
#     Edge 47, Type (0, 0), BuildingBlock: ZUJKAS_clean_linker_0, # of connection points: 2
#     Edge 48, Type (0, 0), BuildingBlock: ZUJKAS_clean_linker_0, # of connection points: 2
#     Edge 49, Type (0, 0), BuildingBlock: ZUJKAS_clean_linker_0, # of connection points: 2
#     Edge 50, Type (0, 0), BuildingBlock: ZUJKAS_clean_linker_0, # of connection points: 2
#     Edge 51, Type (0, 0), BuildingBlock: ZUJKAS_clean_linker_0, # of connection points: 2
#     Edge 52, Type (0, 0), BuildingBlock: ZUJKAS_clean_linker_0, # of connection points: 2
#     Edge 53, Type (0, 0), BuildingBlock: ZUJKAS_clean_linker_0, # of connection points: 2
#     Edge 54, Type (0, 0), BuildingBlock: ZUJKAS_clean_linker_0, # of connection points: 2
#     Edge 55, Type (0, 0), BuildingBlock: ZUJKAS_clean_linker_0, # of connection points: 2
#     Edge 56, Type (0, 0), BuildingBlock: ZUJKAS_clean_linker_0, # of connection points: 2
#     Edge 57, Type (0, 0), BuildingBlock: ZUJKAS_clean_linker_0, # of connection points: 2
#     Edge 58, Type (0, 0), BuildingBlock: ZUJKAS_clean_linker_0, # of connection points: 2
#     Edge 59, Type (0, 0), BuildingBlock: ZUJKAS_clean_linker_0, # of connection points: 2
#     Edge 60, Type (0, 0), BuildingBlock: ZUJKAS_clean_linker_0, # of connection points: 2
#     Edge 61, Type (0, 0), BuildingBlock: ZUJKAS_clean_linker_0, # of connection points: 2
#     Edge 62, Type (0, 0), BuildingBlock: ZUJKAS_clean_linker_0, # of connection points: 2
#     Edge 63, Type (0, 0), BuildingBlock: ZUJKAS_clean_linker_0, # of connection points: 2
#     Edge 64, Type (0, 0), BuildingBlock: ZUJKAS_clean_linker_0, # of connection points: 2
#     Edge 65, Type (0, 0), BuildingBlock: ZUJKAS_clean_linker_0, # of connection points: 2
#     Edge 66, Type (0, 0), BuildingBlock: ZUJKAS_clean_linker_0, # of connection points: 2
#     Edge 67, Type (0, 0), BuildingBlock: ZUJKAS_clean_linker_0, # of connection points: 2
#     Edge 68, Type (0, 0), BuildingBlock: ZUJKAS_clean_linker_0, # of connection points: 2
#     Edge 69, Type (0, 0), BuildingBlock: ZUJKAS_clean_linker_0, # of connection points: 2
#     Edge 70, Type (0, 0), BuildingBlock: ZUJKAS_clean_linker_0, # of connection points: 2
#     Edge 71, Type (0, 0), BuildingBlock: ZUJKAS_clean_linker_0, # of connection points: 2
# Relax obj value: 0.430
# Max RMSD: 0.158
# Mean RMSD: 0.158
data_MOF--net-sms--node1-IZENUY_clean_sbu_0--edge1-ZUJKAS_clean_linker_0
_symmetry_space_group_name_H-M    P1
_symmetry_Int_Tables_number       1
_symmetry_cell_setting            triclinic
loop_
_symmetry_equiv_pos_as_xyz
'x, y, z'
_cell_length_a     48.738875
_cell_length_b     48.743257
_cell_length_c     77.07654
_cell_angle_alpha  89.961582
_cell_angle_beta   90.036763
_cell_angle_gamma 120.02379
loop_
_atom_site_label
_atom_site_type_symbol
_atom_site_fract_x
_atom_site_fract_y
_atom_site_fract_z
_atom_type_partial_charge
Fe0 Fe 0.207 0.41752 0.09224 0.0
Fe1 Fe 0.17111 0.34739 0.08206 0.0
O2 O 0.19068 0.388 0.07608 0.0
Fe3 Fe 0.19419 0.3993 0.05402 0.0
O4 O 0.23713 0.42056 0.05508 0.0
O5 O 0.23976 0.44645 0.07884 0.0
O6 O 0.23321 0.40371 0.09918 0.0
C7 C 0.22459 0.37608 0.10435 0.0
C8 C 0.1816 0.44358 0.07104 0.0
O9 O 0.19691 0.35336 0.10106 0.0
C10 C 0.13345 0.34982 0.05452 0.0
O11 O 0.17752 0.39406 0.10878 0.0
O12 O 0.14226 0.35149 0.09506 0.0
O13 O 0.19223 0.4355 0.05818 0.0
O14 O 0.18174 0.43325 0.08603 0.0
C15 C 0.20438 0.34702 0.05355 0.0
O16 O 0.14217 0.33438 0.06411 0.0
O17 O 0.15174 0.37884 0.05152 0.0
C18 C 0.14953 0.37108 0.1073 0.0
O19 O 0.19852 0.34063 0.06945 0.0
O20 O 0.19671 0.36524 0.04593 0.0
C21 C 0.25299 0.44238 0.06578 0.0
Fe22 Fe 0.56348 0.78071 0.0824 0.0
Fe23 Fe 0.63426 0.81405 0.07395 0.0
O24 O 0.5942 0.79336 0.06701 0.0
Fe25 Fe 0.58481 0.7853 0.04475 0.0
O26 O 0.56391 0.80746 0.04449 0.0
O27 O 0.5361 0.78499 0.06792 0.0
O28 O 0.57742 0.82101 0.08916 0.0
C29 C 0.6047 0.83926 0.09511 0.0
C30 C 0.53912 0.72895 0.0613 0.0
O31 O 0.6271 0.8336 0.0925 0.0
C32 C 0.63378 0.77366 0.04741 0.0
O33 O 0.58528 0.7741 0.09972 0.0
O34 O 0.6286 0.7807 0.08721 0.0
O35 O 0.54808 0.74747 0.04836 0.0
O36 O 0.54767 0.73962 0.07644 0.0
C37 C 0.63762 0.84753 0.04486 0.0
O38 O 0.64856 0.79831 0.05666 0.0
O39 O 0.60501 0.76277 0.04363 0.0
C40 C 0.60763 0.76803 0.0988 0.0
O41 O 0.64223 0.84839 0.06102 0.0
O42 O 0.61991 0.82153 0.03721 0.0
C43 C 0.54139 0.80205 0.05458 0.0
Fe44 Fe 0.18519 0.82784 0.07646 0.0
Fe45 Fe 0.2075 0.79767 0.04895 0.0
O46 O 0.20559 0.80751 0.07083 0.0
Fe47 Fe 0.22407 0.79704 0.08713 0.0
O48 O 0.19493 0.79096 0.10398 0.0
O49 O 0.15784 0.79538 0.09026 0.0
O50 O 0.15543 0.80995 0.05905 0.0
C51 C 0.14637 0.78473 0.05039 0.0
C52 C 0.23953 0.8561 0.09811 0.0
O53 O 0.16489 0.77423 0.04763 0.0
C54 C 0.26784 0.81646 0.05934 0.0
O55 O 0.21125 0.8613 0.06293 0.0
O56 O 0.20797 0.83287 0.04003 0.0
O57 O 0.2494 0.83805 0.09299 0.0
O58 O 0.21133 0.84951 0.09494 0.0
C59 C 0.19834 0.74338 0.06747 0.0
O60 O 0.25041 0.82052 0.0488 0.0
O61 O 0.25654 0.8012 0.07329 0.0
C62 C 0.21562 0.85934 0.04694 0.0
O63 O 0.2073 0.76064 0.054 0.0
O64 O 0.19988 0.75532 0.08218 0.0
C65 C 0.16636 0.78435 0.10263 0.0
Fe66 Fe 0.40751 0.20635 0.94732 0.0
Fe67 Fe 0.42368 0.22257 0.90901 0.0
O68 O 0.39511 0.2043 0.92554 0.0
Fe69 Fe 0.35424 0.18407 0.92014 0.0
O70 O 0.34707 0.20989 0.93393 0.0
O71 O 0.37341 0.20758 0.95658 0.0
O72 O 0.42817 0.24936 0.94731 0.0
C73 C 0.44949 0.26641 0.9366 0.0
C74 C 0.35878 0.14516 0.9461 0.0
O75 O 0.45285 0.25467 0.92269 0.0
C76 C 0.37793 0.16542 0.89349 0.0
O77 O 0.4438 0.20538 0.94182 0.0
O78 O 0.44072 0.19782 0.91359 0.0
O79 O 0.34261 0.15413 0.93739 0.0
O80 O 0.38781 0.1637 0.94892 0.0
C81 C 0.38028 0.23892 0.89893 0.0
O82 O 0.39988 0.19395 0.89214 0.0
O83 O 0.35892 0.15677 0.90608 0.0
C84 C 0.45147 0.19617 0.9282 0.0
O85 O 0.40836 0.24837 0.90364 0.0
O86 O 0.35855 0.21065 0.90189 0.0
C87 C 0.35405 0.2147 0.94983 0.0
Fe88 Fe 0.82357 0.17273 0.91873 0.0
Fe89 Fe 0.79159 0.19453 0.94545 0.0
O90 O 0.80166 0.19178 0.92373 0.0
Fe91 Fe 0.78986 0.20832 0.90697 0.0
O92 O 0.78548 0.17923 0.89055 0.0
O93 O 0.79208 0.14404 0.90487 0.0
O94 O 0.80597 0.14334 0.93633 0.0
C95 C 0.78061 0.13397 0.94493 0.0
C96 C 0.84998 0.22644 0.89656 0.0
O97 O 0.76937 0.15197 0.94746 0.0
C98 C 0.8084 0.25363 0.93371 0.0
O99 O 0.85635 0.20001 0.93233 0.0
O100 O 0.82717 0.19661 0.95485 0.0
O101 O 0.83046 0.23484 0.90106 0.0
O102 O 0.84509 0.19894 0.90021 0.0
C103 C 0.73646 0.18229 0.92667 0.0
O104 O 0.8134 0.23755 0.94476 0.0
O105 O 0.79235 0.24066 0.9202 0.0
C106 C 0.85389 0.20459 0.94822 0.0
O107 O 0.75398 0.19276 0.94 0.0
O108 O 0.7483 0.18277 0.91205 0.0
C109 C 0.78076 0.15137 0.89215 0.0
Fe110 Fe 0.82234 0.63668 0.92316 0.0
Fe111 Fe 0.79831 0.58568 0.95173 0.0
O112 O 0.8018 0.5963 0.92955 0.0
Fe113 Fe 0.78453 0.56635 0.91363 0.0
O114 O 0.81398 0.58884 0.89686 0.0
O115 O 0.85046 0.63105 0.91032 0.0
O116 O 0.85119 0.64976 0.94104 0.0
C117 C 0.85948 0.63444 0.95096 0.0
C118 C 0.76866 0.60882 0.90112 0.0
O119 O 0.84083 0.60561 0.95425 0.0
C120 C 0.73898 0.54278 0.9404 0.0
O121 O 0.79571 0.6449 0.93557 0.0
O122 O 0.79648 0.62029 0.95936 0.0
O123 O 0.75892 0.58105 0.90655 0.0
O124 O 0.79679 0.63076 0.90418 0.0
C125 C 0.81024 0.54083 0.93518 0.0
O126 O 0.7553 0.56496 0.95081 0.0
O127 O 0.75174 0.53819 0.92729 0.0
C128 C 0.78958 0.63882 0.95147 0.0
O129 O 0.79969 0.54919 0.94794 0.0
O130 O 0.8092 0.54998 0.92 0.0
C131 C 0.84231 0.61129 0.8981 0.0
Fe132 Fe 0.87575 0.75419 0.4266 0.0
Fe133 Fe 0.84235 0.68499 0.41466 0.0
O134 O 0.86219 0.72603 0.40963 0.0
Fe135 Fe 0.86865 0.73935 0.38787 0.0
O136 O 0.91147 0.76174 0.39095 0.0
O137 O 0.909 0.7854 0.41451 0.0
O138 O 0.90229 0.74093 0.43399 0.0
C139 C 0.89367 0.71284 0.43843 0.0
C140 C 0.8507 0.77977 0.4048 0.0
O141 O 0.86645 0.6901 0.43428 0.0
C142 C 0.80801 0.68893 0.38588 0.0
O143 O 0.84529 0.72868 0.44218 0.0
O144 O 0.81184 0.68784 0.42679 0.0
O145 O 0.86411 0.774 0.39233 0.0
O146 O 0.84986 0.76887 0.41979 0.0
C147 C 0.87914 0.68707 0.38721 0.0
O148 O 0.81541 0.67306 0.39593 0.0
O149 O 0.8267 0.71802 0.38326 0.0
C150 C 0.81759 0.706 0.43956 0.0
O151 O 0.87089 0.67892 0.40273 0.0
O152 O 0.87382 0.70701 0.37967 0.0
C153 C 0.92467 0.78351 0.40202 0.0
Fe154 Fe 0.25919 0.12713 0.38761 0.0
Fe155 Fe 0.24447 0.12203 0.42633 0.0
O156 O 0.27246 0.13556 0.40935 0.0
Fe157 Fe 0.3135 0.15735 0.41415 0.0
O158 O 0.31845 0.19108 0.40163 0.0
O159 O 0.29225 0.16361 0.37872 0.0
O160 O 0.23759 0.14837 0.38963 0.0
C161 C 0.21648 0.14193 0.4009 0.0
C162 C 0.30922 0.11684 0.38653 0.0
O163 O 0.21392 0.12487 0.41388 0.0
C164 C 0.29301 0.11262 0.43967 0.0
O165 O 0.22373 0.08894 0.39258 0.0
O166 O 0.22918 0.08099 0.42011 0.0
O167 O 0.32519 0.14149 0.39567 0.0
O168 O 0.27988 0.10552 0.38429 0.0
C169 C 0.28617 0.18165 0.43765 0.0
O170 O 0.26987 0.11707 0.44204 0.0
O171 O 0.31124 0.12485 0.42688 0.0
C172 C 0.21778 0.07032 0.40531 0.0
O173 O 0.25811 0.16206 0.43331 0.0
O174 O 0.30886 0.17718 0.43348 0.0
C175 C 0.31103 0.18982 0.38585 0.0
Fe176 Fe 0.84544 0.15621 0.41151 0.0
Fe177 Fe 0.87157 0.12774 0.38488 0.0
O178 O 0.86581 0.13548 0.40663 0.0
Fe179 Fe 0.88054 0.12226 0.42373 0.0
O180 O 0.84103 0.09705 0.43182 0.0
O181 O 0.82702 0.13353 0.43163 0.0
O182 O 0.81013 0.12728 0.40026 0.0
C183 C 0.80912 0.11792 0.38491 0.0
C184 C 0.89236 0.18177 0.43574 0.0
O185 O 0.83392 0.12278 0.37702 0.0
C186 C 0.93025 0.14505 0.40127 0.0
O187 O 0.85991 0.182 0.39232 0.0
O188 O 0.89255 0.1694 0.37957 0.0
O189 O 0.88729 0.15414 0.43876 0.0
O190 O 0.87956 0.18704 0.42298 0.0
C191 C 0.85821 0.07173 0.39996 0.0
O192 O 0.91054 0.1316 0.38903 0.0
O193 O 0.92092 0.14677 0.4163 0.0
C194 C 0.8825 0.18842 0.38195 0.0
O195 O 0.85071 0.08522 0.38851 0.0
O196 O 0.87649 0.08759 0.41222 0.0
C197 C 0.82219 0.10642 0.43625 0.0
Fe198 Fe 0.0136 0.50896 0.2524 0.0
Fe199 Fe 0.06793 0.53587 0.27921 0.0
O200 O 0.05474 0.52997 0.25739 0.0
Fe201 Fe 0.08299 0.54511 0.24047 0.0
O202 O 0.0679 0.56989 0.23286 0.0
O203 O 0.01748 0.53289 0.2329 0.0
O204 O 0.00655 0.53657 0.26467 0.0
C205 C 0.01449 0.54426 0.28027 0.0
C206 C 0.03622 0.48599 0.22724 0.0
O207 O 0.03436 0.53867 0.28768 0.0
C208 C 0.1113 0.52237 0.26196 0.0
O209 O 0.00268 0.4816 0.27096 0.0
O210 O 0.04831 0.4938 0.28314 0.0
O211 O 0.05878 0.51392 0.22493 0.0
O212 O 0.01758 0.47952 0.23987 0.0
C213 C 0.10963 0.59362 0.26569 0.0
O214 O 0.10406 0.53405 0.27466 0.0
O215 O 0.09989 0.52109 0.24711 0.0
C216 C 0.01928 0.47461 0.2807 0.0
O217 O 0.08849 0.57859 0.27686 0.0
O218 O 0.11261 0.57946 0.25271 0.0
C219 C 0.03972 0.55994 0.22821 0.0
Fe220 Fe 0.48888 0.51141 0.25654 0.0
Fe221 Fe 0.45924 0.53492 0.28369 0.0
O222 O 0.46817 0.53152 0.26184 0.0
Fe223 Fe 0.45638 0.54828 0.24519 0.0
O224 O 0.45047 0.51831 0.22888 0.0
O225 O 0.45599 0.48269 0.24349 0.0
O226 O 0.47219 0.48285 0.27456 0.0
C227 C 0.44734 0.47404 0.28352 0.0
C228 C 0.5154 0.56439 0.23389 0.0
O229 O 0.43657 0.49241 0.28607 0.0
C230 C 0.47618 0.59405 0.27194 0.0
O231 O 0.52275 0.53878 0.2694 0.0
O232 O 0.49523 0.53684 0.29246 0.0
O233 O 0.49699 0.57395 0.2388 0.0
O234 O 0.50946 0.53651 0.23748 0.0
C235 C 0.40367 0.52321 0.26552 0.0
O236 O 0.48143 0.57783 0.28276 0.0
O237 O 0.46015 0.58133 0.25837 0.0
C238 C 0.52145 0.54425 0.28529 0.0
O239 O 0.42156 0.53351 0.27873 0.0
O240 O 0.415 0.52362 0.25076 0.0
C241 C 0.44439 0.49003 0.23092 0.0
Fe242 Fe 0.48546 0.97102 0.25809 0.0
Fe243 Fe 0.45809 0.91987 0.2867 0.0
O244 O 0.46519 0.93058 0.26453 0.0
Fe245 Fe 0.45198 0.90068 0.24859 0.0
O246 O 0.49218 0.91483 0.2416 0.0
O247 O 0.50446 0.96461 0.23894 0.0
O248 O 0.52036 0.97888 0.27034 0.0
C249 C 0.52052 0.97246 0.28619 0.0
C250 C 0.43884 0.94545 0.23361 0.0
O251 O 0.49519 0.95392 0.2942 0.0
C252 C 0.40075 0.87588 0.27008 0.0
O253 O 0.47043 0.98453 0.27607 0.0
O254 O 0.43638 0.94063 0.2894 0.0
O255 O 0.44538 0.92355 0.23193 0.0
O256 O 0.45155 0.96573 0.24551 0.0
C257 C 0.47332 0.87624 0.27515 0.0
O258 O 0.41955 0.88389 0.28291 0.0
O259 O 0.41113 0.88497 0.25493 0.0
C260 C 0.44693 0.96951 0.28608 0.0
O261 O 0.47952 0.89833 0.28568 0.0
O262 O 0.45594 0.87202 0.26211 0.0
C263 C 0.51048 0.94249 0.23616 0.0
Fe264 Fe 0.50882 0.02034 0.74635 0.0
Fe265 Fe 0.53559 0.07424 0.71943 0.0
O266 O 0.53128 0.0613 0.74124 0.0
Fe267 Fe 0.54929 0.08942 0.75805 0.0
O268 O 0.57278 0.07214 0.76463 0.0
O269 O 0.53338 0.02286 0.76525 0.0
O270 O 0.53448 0.01169 0.73335 0.0
C271 C 0.54084 0.01894 0.71757 0.0
C272 C 0.49 0.04533 0.77232 0.0
O273 O 0.53554 0.03931 0.71049 0.0
C274 C 0.52691 0.11981 0.73781 0.0
O275 O 0.48049 0.01042 0.72836 0.0
O276 O 0.49326 0.05653 0.71682 0.0
O277 O 0.51873 0.06649 0.77422 0.0
O278 O 0.48153 0.02647 0.75965 0.0
C279 C 0.59537 0.11388 0.73131 0.0
O280 O 0.5364 0.11156 0.72454 0.0
O281 O 0.52675 0.10845 0.75252 0.0
C282 C 0.47348 0.02766 0.7192 0.0
O283 O 0.57835 0.09295 0.72044 0.0
O284 O 0.58337 0.11763 0.74504 0.0
C285 C 0.56145 0.04373 0.76927 0.0
Fe286 Fe 0.89849 0.44819 0.75169 0.0
Fe287 Fe 0.96898 0.48197 0.74224 0.0
O288 O 0.92871 0.4641 0.73586 0.0
Fe289 Fe 0.91837 0.46191 0.71369 0.0
O290 O 0.88322 0.46574 0.71767 0.0
O291 O 0.88498 0.47537 0.74563 0.0
O292 O 0.92218 0.47619 0.76876 0.0
C293 C 0.94612 0.50368 0.76786 0.0
C294 C 0.87246 0.40364 0.72449 0.0
O295 O 0.9658 0.51098 0.75567 0.0
C296 C 0.96931 0.44962 0.71332 0.0
O297 O 0.9103 0.42021 0.75853 0.0
O298 O 0.96122 0.45489 0.76071 0.0
O299 O 0.89549 0.41886 0.71435 0.0
O300 O 0.86898 0.41696 0.7377 0.0
C301 C 0.96943 0.52177 0.71513 0.0
O302 O 0.97495 0.45436 0.72933 0.0
O303 O 0.95175 0.45811 0.70572 0.0
C304 C 0.93766 0.42763 0.7638 0.0
O305 O 0.98369 0.51182 0.7248 0.0
O306 O 0.94045 0.50446 0.71161 0.0
C307 C 0.87599 0.47712 0.73051 0.0
Fe308 Fe 0.50806 0.49448 0.74473 0.0
Fe309 Fe 0.53366 0.46514 0.7186 0.0
O310 O 0.52896 0.47421 0.74022 0.0
Fe311 Fe 0.54532 0.46318 0.75743 0.0
O312 O 0.51446 0.45709 0.77311 0.0
O313 O 0.47899 0.46157 0.7577 0.0
O314 O 0.48057 0.4773 0.72633 0.0
C315 C 0.47248 0.45241 0.71755 0.0
C316 C 0.55996 0.52229 0.76778 0.0
O317 O 0.49125 0.44194 0.71557 0.0
C318 C 0.59246 0.4834 0.73158 0.0
O319 O 0.53582 0.52835 0.73197 0.0
O320 O 0.53551 0.50074 0.70931 0.0
O321 O 0.57017 0.50406 0.76368 0.0
O322 O 0.53193 0.51546 0.76401 0.0
C323 C 0.52213 0.41019 0.7374 0.0
O324 O 0.57658 0.48784 0.72015 0.0
O325 O 0.57916 0.46733 0.74502 0.0
C326 C 0.54235 0.52697 0.71626 0.0
O327 O 0.5326 0.4279 0.72413 0.0
O328 O 0.52158 0.42157 0.752 0.0
C329 C 0.48615 0.45064 0.77068 0.0
Fe330 Fe 0.73813 0.8742 0.61269 0.0
Fe331 Fe 0.75366 0.88183 0.57403 0.0
O332 O 0.72534 0.86685 0.59088 0.0
Fe333 Fe 0.68447 0.84455 0.58578 0.0
O334 O 0.67158 0.85848 0.60459 0.0
O335 O 0.71613 0.89436 0.61668 0.0
O336 O 0.77261 0.91351 0.60829 0.0
C337 C 0.77844 0.93257 0.59576 0.0
C338 C 0.68737 0.81069 0.61331 0.0
O339 O 0.76775 0.92234 0.58077 0.0
C340 C 0.71328 0.82232 0.5621 0.0
O341 O 0.76113 0.85433 0.61007 0.0
O342 O 0.78489 0.88014 0.58637 0.0
O343 O 0.68002 0.81037 0.59759 0.0
O344 O 0.70578 0.8365 0.62094 0.0
C345 C 0.70458 0.89052 0.56102 0.0
O346 O 0.74118 0.84217 0.56663 0.0
O347 O 0.69026 0.82636 0.56609 0.0
C348 C 0.78302 0.86288 0.59906 0.0
O349 O 0.72784 0.88635 0.55841 0.0
O350 O 0.68629 0.87755 0.57371 0.0
C351 C 0.68678 0.88254 0.61424 0.0
Fe352 Fe 0.12594 0.86942 0.61539 0.0
Fe353 Fe 0.11893 0.87738 0.57666 0.0
O354 O 0.13354 0.86391 0.59361 0.0
Fe355 Fe 0.15565 0.84507 0.5887 0.0
O356 O 0.14102 0.81821 0.6075 0.0
O357 O 0.10515 0.82722 0.6193 0.0
O358 O 0.08718 0.86574 0.61081 0.0
C359 C 0.06811 0.85254 0.59831 0.0
C360 C 0.18914 0.88164 0.61638 0.0
O361 O 0.07827 0.85137 0.58344 0.0
C362 C 0.17832 0.89587 0.5647 0.0
O363 O 0.14648 0.91219 0.61283 0.0
O364 O 0.12171 0.91093 0.58882 0.0
O365 O 0.18972 0.87469 0.60067 0.0
O366 O 0.16317 0.87398 0.62387 0.0
C367 C 0.1098 0.81932 0.56378 0.0
O368 O 0.15855 0.90403 0.56913 0.0
O369 O 0.1744 0.86899 0.56902 0.0
C370 C 0.13945 0.92619 0.60141 0.0
O371 O 0.11384 0.8467 0.56121 0.0
O372 O 0.12281 0.81401 0.57647 0.0
C373 C 0.11684 0.80953 0.61704 0.0
Fe374 Fe 0.15438 0.31268 0.58649 0.0
Fe375 Fe 0.12775 0.25853 0.61321 0.0
O376 O 0.13424 0.27164 0.5914 0.0
Fe377 Fe 0.12039 0.24357 0.57443 0.0
O378 O 0.15209 0.26862 0.55923 0.0
O379 O 0.18516 0.30978 0.57474 0.0
O380 O 0.18058 0.32428 0.60558 0.0
C381 C 0.1883 0.30819 0.61528 0.0
C382 C 0.10436 0.28601 0.56199 0.0
O383 O 0.16977 0.27896 0.61753 0.0
C384 C 0.07084 0.21609 0.5989 0.0
O385 O 0.12505 0.31816 0.59797 0.0
O386 O 0.12387 0.29177 0.62137 0.0
O387 O 0.09504 0.25788 0.56656 0.0
O388 O 0.13149 0.30833 0.5665 0.0
C389 C 0.14362 0.21652 0.59654 0.0
O390 O 0.08502 0.23709 0.6103 0.0
O391 O 0.08598 0.21337 0.58633 0.0
C392 C 0.1173 0.31066 0.6136 0.0
O393 O 0.13075 0.22305 0.60893 0.0
O394 O 0.14491 0.22746 0.58153 0.0
C395 C 0.1797 0.29149 0.56204 0.0
H396 H 0.18226 0.70051 0.09393 0.0
H397 H 0.17253 0.64631 0.09216 0.0
H398 H 0.18454 0.65531 0.03664 0.0
H399 H 0.19479 0.70976 0.03826 0.0
H400 H 0.12741 0.59222 0.07341 0.0
H401 H 0.25113 0.63247 0.05266 0.0
H402 H 0.23926 0.65927 0.06143 0.0
H403 H 0.22997 0.64597 0.03934 0.0
C404 C 0.18271 0.69098 0.08131 0.0
C405 C 0.18979 0.70968 0.06626 0.0
C406 C 0.17703 0.65994 0.08033 0.0
C407 C 0.17835 0.64704 0.06431 0.0
C408 C 0.18402 0.66509 0.04917 0.0
H409 H 0.18221 0.47423 0.04116 0.0
H410 H 0.17668 0.52117 0.03839 0.0
C411 C 0.18978 0.69616 0.05013 0.0
C412 C 0.17518 0.61522 0.06362 0.0
H413 H 0.21648 0.57745 0.05456 0.0
C414 C 0.14679 0.5889 0.06922 0.0
C415 C 0.20056 0.61105 0.05817 0.0
C416 C 0.23207 0.63866 0.05269 0.0
C417 C 0.14311 0.55841 0.06951 0.0
C418 C 0.16868 0.55435 0.06432 0.0
C419 C 0.19685 0.58061 0.05845 0.0
C420 C 0.16762 0.5235 0.06567 0.0
C421 C 0.11185 0.53083 0.07526 0.0
C422 C 0.1639 0.50897 0.0819 0.0
C423 C 0.16701 0.4821 0.08354 0.0
C424 C 0.17425 0.46945 0.06899 0.0
C425 C 0.17676 0.48339 0.05264 0.0
C426 C 0.1736 0.51023 0.05102 0.0
H427 H 0.09223 0.53603 0.07374 0.0
H428 H 0.10596 0.50909 0.06779 0.0
H429 H 0.11339 0.52601 0.08919 0.0
H430 H 0.15993 0.51918 0.09343 0.0
H431 H 0.16492 0.47199 0.09632 0.0
H432 H 0.51864 0.6962 0.03078 0.0
H433 H 0.47581 0.64152 0.02676 0.0
H434 H 0.46218 0.63098 0.08217 0.0
H435 H 0.5054 0.68517 0.08636 0.0
H436 H 0.45753 0.57783 0.06659 0.0
H437 H 0.38382 0.61838 0.03193 0.0
H438 H 0.42169 0.63001 0.02238 0.0
H439 H 0.41973 0.64547 0.04322 0.0
C440 C 0.50665 0.68216 0.04212 0.0
C441 C 0.51508 0.69519 0.05888 0.0
C442 C 0.48215 0.65097 0.03978 0.0
C443 C 0.46541 0.63247 0.05414 0.0
C444 C 0.47472 0.64494 0.07091 0.0
H445 H 0.29694 0.48082 0.08919 0.0
H446 H 0.35119 0.52266 0.08363 0.0
C447 C 0.49937 0.67597 0.07327 0.0
C448 C 0.43705 0.60077 0.0519 0.0
H449 H 0.36038 0.56414 0.03781 0.0
C450 C 0.43643 0.57471 0.06007 0.0
C451 C 0.40958 0.59677 0.04332 0.0
C452 C 0.40847 0.62411 0.03481 0.0
C453 C 0.40861 0.54507 0.06056 0.0
C454 C 0.3808 0.54156 0.05277 0.0
C455 C 0.38189 0.56701 0.04369 0.0
C456 C 0.34943 0.5135 0.05607 0.0
C457 C 0.40886 0.51801 0.06991 0.0
C458 C 0.33046 0.49453 0.04237 0.0
C459 C 0.29929 0.47043 0.04552 0.0
C460 C 0.28659 0.46557 0.06236 0.0
C461 C 0.30599 0.48418 0.07606 0.0
C462 C 0.3371 0.50788 0.07294 0.0
H463 H 0.43313 0.52134 0.07049 0.0
H464 H 0.40047 0.51685 0.08341 0.0
H465 H 0.39285 0.49504 0.06348 0.0
H466 H 0.33955 0.49882 0.02923 0.0
H467 H 0.28485 0.45644 0.03472 0.0
H468 H 0.49835 0.80359 0.07618 0.0
H469 H 0.45962 0.81963 0.0696 0.0
H470 H 0.49503 0.84291 0.01724 0.0
H471 H 0.53434 0.82666 0.02373 0.0
H472 H 0.47042 0.8811 0.05554 0.0
H473 H 0.39683 0.77591 0.01369 0.0
H474 H 0.42516 0.77596 0.02881 0.0
H475 H 0.43876 0.80009 0.00969 0.0
C476 C 0.49806 0.81213 0.06324 0.0
C477 C 0.51919 0.81347 0.05041 0.0
C478 C 0.47601 0.82148 0.05954 0.0
C479 C 0.47441 0.83227 0.04294 0.0
C480 C 0.49586 0.83444 0.03012 0.0
H481 H 0.2962 0.83393 0.02729 0.0
H482 H 0.35001 0.84603 0.01958 0.0
C483 C 0.51826 0.82522 0.03385 0.0
C484 C 0.44896 0.83956 0.03932 0.0
H485 H 0.37282 0.80369 0.02455 0.0
C486 C 0.44937 0.86476 0.04834 0.0
C487 C 0.4217 0.81834 0.02981 0.0
C488 C 0.42026 0.79095 0.01992 0.0
C489 C 0.42227 0.86776 0.04924 0.0
C490 C 0.39402 0.84466 0.04118 0.0
C491 C 0.3945 0.82125 0.0308 0.0
C492 C 0.3629 0.84105 0.04577 0.0
C493 C 0.42361 0.89465 0.05959 0.0
C494 C 0.35241 0.83418 0.063 0.0
C495 C 0.32181 0.82701 0.0674 0.0
C496 C 0.30096 0.82648 0.05464 0.0
C497 C 0.31175 0.83421 0.03742 0.0
C498 C 0.34243 0.84115 0.03299 0.0
H499 H 0.44792 0.91557 0.05957 0.0
H500 H 0.40686 0.90182 0.0544 0.0
H501 H 0.41711 0.88697 0.07326 0.0
H502 H 0.36758 0.83327 0.073 0.0
H503 H 0.31431 0.8213 0.08079 0.0
H504 H 0.48135 0.19118 0.95713 0.0
H505 H 0.52588 0.18142 0.95825 0.0
H506 H 0.52328 0.17219 0.90256 0.0
H507 H 0.47843 0.18141 0.90127 0.0
H508 H 0.53335 0.12701 0.92022 0.0
H509 H 0.61487 0.24984 0.94295 0.0
H510 H 0.58029 0.22765 0.95617 0.0
H511 H 0.57606 0.23771 0.93428 0.0
C512 C 0.49006 0.18686 0.94511 0.0
C513 C 0.47659 0.18755 0.92908 0.0
C514 C 0.51558 0.18138 0.94578 0.0
C515 C 0.52822 0.1767 0.93046 0.0
C516 C 0.51396 0.17594 0.91452 0.0
H517 H 0.69393 0.1678 0.90009 0.0
H518 H 0.64136 0.16238 0.90172 0.0
C519 C 0.48838 0.18131 0.91382 0.0
C520 C 0.55722 0.17413 0.93092 0.0
H521 H 0.63591 0.2157 0.94099 0.0
C522 C 0.55579 0.14633 0.92479 0.0
C523 C 0.58644 0.19947 0.93682 0.0
C524 C 0.58974 0.23048 0.94279 0.0
C525 C 0.58287 0.14309 0.92457 0.0
C526 C 0.61209 0.16851 0.93039 0.0
C527 C 0.6134 0.19617 0.93664 0.0
C528 C 0.64203 0.16767 0.92962 0.0
C529 C 0.57991 0.11242 0.91828 0.0
C530 C 0.65983 0.17238 0.94476 0.0
C531 C 0.68999 0.17576 0.94387 0.0
C532 C 0.70304 0.17472 0.92778 0.0
C533 C 0.68461 0.16872 0.91269 0.0
C534 C 0.65444 0.16539 0.91361 0.0
H535 H 0.55501 0.09261 0.91891 0.0
H536 H 0.58773 0.11524 0.90455 0.0
H537 H 0.59507 0.10599 0.92604 0.0
H538 H 0.65071 0.17431 0.95724 0.0
H539 H 0.70343 0.18019 0.95576 0.0
H540 H 0.81848 0.51823 0.96605 0.0
H541 H 0.8306 0.47577 0.97052 0.0
H542 H 0.83565 0.46649 0.91513 0.0
H543 H 0.82424 0.5093 0.91053 0.0
H544 H 0.79392 0.41588 0.9601 0.0
H545 H 0.91245 0.46262 0.9309 0.0
H546 H 0.89629 0.48779 0.93623 0.0
H547 H 0.88586 0.46599 0.91613 0.0
C548 C 0.82263 0.50747 0.95481 0.0
C549 C 0.82018 0.51701 0.93791 0.0
C550 C 0.82965 0.48328 0.95741 0.0
C551 C 0.83449 0.46828 0.94318 0.0
C552 C 0.83285 0.47829 0.92632 0.0
H553 H 0.8121 0.29697 0.91035 0.0
H554 H 0.824 0.35103 0.91584 0.0
C555 C 0.826 0.50259 0.9237 0.0
C556 C 0.83768 0.43988 0.94577 0.0
H557 H 0.87986 0.40521 0.9323 0.0
C558 C 0.81314 0.41377 0.95442 0.0
C559 C 0.86287 0.43725 0.93845 0.0
C560 C 0.89101 0.46507 0.93008 0.0
C561 C 0.81186 0.3844 0.95479 0.0
C562 C 0.83589 0.38123 0.9464 0.0
C563 C 0.86144 0.40778 0.93868 0.0
C564 C 0.83232 0.34972 0.94331 0.0
C565 C 0.78374 0.3564 0.9631 0.0
C566 C 0.83374 0.33135 0.95694 0.0
C567 C 0.82691 0.30024 0.95384 0.0
C568 C 0.81834 0.28716 0.9371 0.0
C569 C 0.81817 0.30618 0.92343 0.0
C570 C 0.82518 0.33716 0.92651 0.0
H571 H 0.76565 0.36227 0.96765 0.0
H572 H 0.77241 0.33645 0.95375 0.0
H573 H 0.79182 0.3482 0.9744 0.0
H574 H 0.83944 0.34084 0.96998 0.0
H575 H 0.82741 0.2862 0.9646 0.0
H576 H 0.70566 0.53515 0.97062 0.0
H577 H 0.65021 0.49491 0.97653 0.0
H578 H 0.64106 0.45919 0.92442 0.0
H579 H 0.69587 0.49889 0.9184 0.0
H580 H 0.58883 0.46885 0.93757 0.0
H581 H 0.62096 0.39711 0.98064 0.0
H582 H 0.63813 0.43902 0.98447 0.0
H583 H 0.64927 0.42551 0.96556 0.0
C584 C 0.69172 0.51881 0.96041 0.0
C585 C 0.70526 0.51997 0.9441 0.0
C586 C 0.66014 0.49586 0.96382 0.0
C587 C 0.64174 0.47405 0.95092 0.0
C588 C 0.65494 0.47584 0.93454 0.0
H589 H 0.49073 0.31173 0.91455 0.0
H590 H 0.53267 0.36509 0.92156 0.0
C591 C 0.68635 0.49846 0.93116 0.0
C592 C 0.60905 0.44819 0.95429 0.0
H593 H 0.56893 0.37268 0.97003 0.0
C594 C 0.58421 0.4481 0.94505 0.0
C595 C 0.60312 0.42132 0.96417 0.0
C596 C 0.62915 0.42042 0.9743 0.0
C597 C 0.55407 0.42095 0.94442 0.0
C598 C 0.54896 0.39309 0.95296 0.0
C599 C 0.573 0.39406 0.96343 0.0
C600 C 0.52119 0.36179 0.94888 0.0
C601 C 0.52841 0.42187 0.93394 0.0
C602 C 0.50094 0.34198 0.96198 0.0
C603 C 0.4768 0.31117 0.958 0.0
C604 C 0.47304 0.29962 0.94092 0.0
C605 C 0.49306 0.31981 0.92785 0.0
C606 C 0.51687 0.35049 0.9318 0.0
H607 H 0.53181 0.44617 0.93363 0.0
H608 H 0.52946 0.41485 0.92036 0.0
H609 H 0.50452 0.40534 0.93924 0.0
H610 H 0.50415 0.35018 0.97528 0.0
H611 H 0.46178 0.29615 0.96835 0.0
H612 H 0.86073 0.03366 0.42492 0.0
H613 H 0.84837 0.97879 0.42207 0.0
H614 H 0.82111 0.97777 0.36876 0.0
H615 H 0.83333 0.033 0.37147 0.0
H616 H 0.78731 0.92086 0.4088 0.0
H617 H 0.89724 0.95738 0.37034 0.0
H618 H 0.89306 0.98504 0.3841 0.0
H619 H 0.8713 0.9721 0.36417 0.0
C620 C 0.85194 0.02179 0.41259 0.0
C621 C 0.8484 0.03781 0.39834 0.0
C622 C 0.84471 0.99038 0.41104 0.0
C623 C 0.83403 0.97443 0.39521 0.0
C624 C 0.82945 0.98986 0.38107 0.0
H625 H 0.84155 0.80229 0.37419 0.0
H626 H 0.83071 0.84569 0.37007 0.0
C627 C 0.83644 0.02134 0.38265 0.0
C628 C 0.82989 0.94241 0.39343 0.0
H629 H 0.86874 0.90464 0.37958 0.0
C630 C 0.80476 0.91706 0.40218 0.0
C631 C 0.85266 0.93766 0.38473 0.0
C632 C 0.88023 0.96438 0.37531 0.0
C633 C 0.80232 0.88712 0.40286 0.0
C634 C 0.82617 0.88283 0.39502 0.0
C635 C 0.85049 0.90791 0.38562 0.0
C636 C 0.82805 0.85361 0.39749 0.0
C637 C 0.77435 0.86053 0.41209 0.0
C638 C 0.82971 0.84329 0.41427 0.0
C639 C 0.83562 0.81829 0.41667 0.0
C640 C 0.84064 0.80356 0.40232 0.0
C641 C 0.83802 0.8133 0.38552 0.0
C642 C 0.83177 0.83806 0.38313 0.0
H643 H 0.7534 0.86384 0.41159 0.0
H644 H 0.76775 0.83713 0.40635 0.0
H645 H 0.78046 0.8604 0.42595 0.0
H646 H 0.82782 0.85543 0.42557 0.0
H647 H 0.83763 0.81148 0.42979 0.0
H648 H 0.94744 0.84522 0.40939 0.0
H649 H 0.00213 0.88823 0.40815 0.0
H650 H 0.03124 0.8235 0.38898 0.0
H651 H 0.97569 0.78028 0.38947 0.0
H652 H 0.04973 0.89266 0.42655 0.0
H653 H 0.07836 0.89711 0.35642 0.0
H654 H 0.03837 0.87462 0.36451 0.0
H655 H 0.06515 0.85959 0.36684 0.0
C656 C 0.96542 0.84022 0.40467 0.0
C657 C 0.95745 0.8095 0.39953 0.0
C658 C 0.9967 0.8648 0.40401 0.0
C659 C 0.02087 0.85919 0.39846 0.0
C660 C 0.01295 0.82856 0.393 0.0
H661 H 0.20953 0.01988 0.42491 0.0
H662 H 0.16609 0.96488 0.42286 0.0
C663 C 0.98131 0.8039 0.39333 0.0
C664 C 0.05418 0.88552 0.39937 0.0
H665 H 0.11864 0.93401 0.37468 0.0
C666 C 0.06493 0.9016 0.41523 0.0
C667 C 0.07396 0.89705 0.3846 0.0
C668 C 0.0634 0.88142 0.36708 0.0
C669 C 0.09393 0.92996 0.41653 0.0
C670 C 0.11356 0.94188 0.40169 0.0
C671 C 0.10363 0.9248 0.38605 0.0
C672 C 0.14244 0.97375 0.4016 0.0
C673 C 0.10205 0.94782 0.43351 0.0
C674 C 0.14469 0.99656 0.38967 0.0
C675 C 0.16987 0.02764 0.3905 0.0
C676 C 0.1931 0.03669 0.40346 0.0
C677 C 0.19162 0.01362 0.41497 0.0
C678 C 0.16675 0.98227 0.41387 0.0
H679 H 0.08103 0.9393 0.4421 0.0
H680 H 0.11997 0.94431 0.4405 0.0
H681 H 0.112 0.97359 0.43131 0.0
H682 H 0.12631 0.99061 0.38006 0.0
H683 H 0.17038 0.04486 0.38142 0.0
H684 H 0.17621 0.14267 0.42498 0.0
H685 H 0.13317 0.15379 0.42045 0.0
H686 H 0.15833 0.17323 0.36642 0.0
H687 H 0.20187 0.16223 0.37082 0.0
H688 H 0.13541 0.21242 0.40359 0.0
H689 H 0.06208 0.0963 0.37034 0.0
H690 H 0.09426 0.10304 0.38461 0.0
H691 H 0.10261 0.12161 0.3637 0.0
C692 C 0.17278 0.1495 0.41213 0.0
C693 C 0.19218 0.15119 0.3982 0.0
C694 C 0.14831 0.15602 0.40961 0.0
C695 C 0.1426 0.16414 0.39311 0.0
C696 C 0.16245 0.1669 0.37924 0.0
H697 H 0.96003 0.14966 0.37046 0.0
H698 H 0.01431 0.1607 0.36612 0.0
C699 C 0.18724 0.16063 0.38178 0.0
C700 C 0.1144 0.16744 0.39047 0.0
H701 H 0.03718 0.12508 0.37776 0.0
C702 C 0.11402 0.19365 0.39767 0.0
C703 C 0.08674 0.14296 0.38267 0.0
C704 C 0.0861 0.11424 0.37489 0.0
C705 C 0.08619 0.19549 0.39781 0.0
C706 C 0.05792 0.17 0.39101 0.0
C707 C 0.05882 0.14458 0.38302 0.0
C708 C 0.02661 0.16763 0.39337 0.0
C709 C 0.08731 0.22454 0.40543 0.0
C710 C 0.01556 0.16815 0.41012 0.0
C711 C 0.98463 0.16205 0.41264 0.0
C712 C 0.96393 0.15472 0.39847 0.0
C713 C 0.97531 0.15502 0.38166 0.0
C714 C 0.00634 0.1614 0.37915 0.0
H715 H 0.1113 0.24567 0.40404 0.0
H716 H 0.06981 0.22959 0.39913 0.0
H717 H 0.08187 0.22069 0.41949 0.0
H718 H 0.03042 0.17201 0.42136 0.0
H719 H 0.97663 0.1619 0.42577 0.0
H720 H 0.37216 0.52529 0.29445 0.0
H721 H 0.31849 0.51718 0.29597 0.0
H722 H 0.30588 0.49562 0.2413 0.0
H723 H 0.35926 0.50323 0.23965 0.0
H724 H 0.29916 0.55312 0.27746 0.0
H725 H 0.22281 0.42577 0.26172 0.0
H726 H 0.26368 0.44254 0.26831 0.0
H727 H 0.25409 0.44702 0.24634 0.0
C728 C 0.35781 0.51831 0.28279 0.0
C729 C 0.37012 0.51512 0.2669 0.0
C730 C 0.32714 0.51367 0.2837 0.0
C731 C 0.3081 0.50548 0.2688 0.0
C732 C 0.31992 0.5013 0.25304 0.0
H733 H 0.13875 0.50445 0.23672 0.0
H734 H 0.18514 0.49797 0.23963 0.0
C735 C 0.35058 0.50593 0.2521 0.0
C736 C 0.27721 0.50442 0.26933 0.0
H737 H 0.1984 0.45782 0.2603 0.0
C738 C 0.27705 0.53217 0.27394 0.0
C739 C 0.24849 0.47711 0.26458 0.0
C740 C 0.24712 0.44632 0.26011 0.0
C741 C 0.2491 0.5337 0.27343 0.0
C742 C 0.22041 0.5065 0.26851 0.0
C743 C 0.22044 0.47858 0.26411 0.0
C744 C 0.19044 0.50717 0.26723 0.0
C745 C 0.25076 0.56479 0.27754 0.0
C746 C 0.17749 0.51348 0.2819 0.0
C747 C 0.1511 0.51739 0.28029 0.0
C748 C 0.13705 0.51484 0.26397 0.0
C749 C 0.14911 0.50683 0.24946 0.0
C750 C 0.17558 0.50304 0.25109 0.0
H751 H 0.27547 0.58501 0.27709 0.0
H752 H 0.23613 0.56954 0.2683 0.0
H753 H 0.24143 0.56367 0.2908 0.0
H754 H 0.18827 0.51611 0.29454 0.0
H755 H 0.14221 0.52316 0.29177 0.0
H756 H 0.50096 0.62694 0.30231 0.0
H757 H 0.5136 0.68134 0.30885 0.0
H758 H 0.4857 0.69056 0.25706 0.0
H759 H 0.47326 0.63671 0.25036 0.0
H760 H 0.54478 0.74424 0.26975 0.0
H761 H 0.44258 0.70515 0.31506 0.0
H762 H 0.46997 0.69105 0.31852 0.0
H763 H 0.44459 0.67805 0.29986 0.0
C764 C 0.49773 0.64066 0.29229 0.0
C765 C 0.48576 0.62737 0.27587 0.0
C766 C 0.50488 0.67165 0.29607 0.0
C767 C 0.50029 0.68975 0.28347 0.0
C768 C 0.48937 0.67691 0.26695 0.0
H769 H 0.47528 0.83524 0.25216 0.0
H770 H 0.48961 0.79484 0.25756 0.0
C771 C 0.48212 0.64605 0.26319 0.0
C772 C 0.5053 0.72163 0.28736 0.0
H773 H 0.46806 0.75792 0.3057 0.0
C774 C 0.52853 0.74748 0.27795 0.0
C775 C 0.48424 0.72578 0.29819 0.0
C776 C 0.4588 0.69863 0.30849 0.0
C777 C 0.52981 0.77685 0.27813 0.0
C778 C 0.50696 0.78018 0.28774 0.0
C779 C 0.48548 0.75519 0.29831 0.0
C780 C 0.50136 0.80692 0.28461 0.0
C781 C 0.55462 0.80361 0.26736 0.0
C782 C 0.50286 0.82693 0.29812 0.0
C783 C 0.4946 0.85024 0.29506 0.0
C784 C 0.4841 0.85329 0.27853 0.0
C785 C 0.48307 0.83339 0.26506 0.0
C786 C 0.49157 0.81048 0.26807 0.0
H787 H 0.57609 0.80139 0.26583 0.0
H788 H 0.5449 0.80281 0.25423 0.0
H789 H 0.56158 0.82699 0.27325 0.0
H790 H 0.51003 0.82425 0.31102 0.0
H791 H 0.49561 0.86523 0.30569 0.0
H792 H 0.15179 0.63517 0.24237 0.0
H793 H 0.1953 0.68875 0.24785 0.0
H794 H 0.16618 0.68167 0.30124 0.0
H795 H 0.12222 0.62777 0.29589 0.0
H796 H 0.19462 0.74564 0.26437 0.0
H797 H 0.26084 0.69727 0.30006 0.0
H798 H 0.22921 0.6731 0.2852 0.0
H799 H 0.22021 0.68378 0.30579 0.0
C800 C 0.15439 0.64505 0.25526 0.0
C801 C 0.13382 0.62709 0.26876 0.0
C802 C 0.17915 0.67571 0.25832 0.0
C803 C 0.18395 0.68892 0.27495 0.0
C804 C 0.1628 0.67168 0.28834 0.0
H805 H 0.36901 0.85183 0.30065 0.0
H806 H 0.31365 0.8104 0.30438 0.0
C807 C 0.13776 0.64097 0.28525 0.0
C808 C 0.21265 0.71971 0.2783 0.0
H809 H 0.28842 0.75118 0.29304 0.0
C810 C 0.21501 0.7471 0.27091 0.0
C811 C 0.23901 0.72139 0.28694 0.0
C812 C 0.23751 0.69241 0.29495 0.0
C813 C 0.24364 0.77606 0.27135 0.0
C814 C 0.27068 0.77726 0.27894 0.0
C815 C 0.26772 0.75022 0.28718 0.0
C816 C 0.30287 0.80507 0.27693 0.0
C817 C 0.24472 0.80488 0.26342 0.0
C818 C 0.31515 0.8159 0.26027 0.0
C819 C 0.34666 0.8396 0.25809 0.0
C820 C 0.36674 0.85259 0.27253 0.0
C821 C 0.35422 0.8422 0.28925 0.0
C822 C 0.32258 0.8186 0.29141 0.0
H823 H 0.22123 0.80334 0.26423 0.0
H824 H 0.26261 0.82702 0.2699 0.0
H825 H 0.25097 0.80626 0.24948 0.0
H826 H 0.30071 0.80521 0.24886 0.0
H827 H 0.35549 0.84699 0.24503 0.0
H828 H 0.50889 0.1456 0.76386 0.0
H829 H 0.50152 0.19149 0.76215 0.0
H830 H 0.52119 0.19915 0.70727 0.0
H831 H 0.5291 0.15347 0.70885 0.0
H832 H 0.55705 0.25519 0.72511 0.0
H833 H 0.43006 0.20254 0.74227 0.0
H834 H 0.45239 0.19372 0.75755 0.0
H835 H 0.44725 0.17882 0.73574 0.0
C836 C 0.51131 0.15677 0.75136 0.0
C837 C 0.51977 0.14592 0.7365 0.0
C838 C 0.50681 0.18287 0.75039 0.0
C839 C 0.51039 0.19846 0.73454 0.0
C840 C 0.51814 0.18731 0.71961 0.0
H841 H 0.52189 0.37787 0.70835 0.0
H842 H 0.51631 0.32524 0.7069 0.0
C843 C 0.52266 0.16121 0.72055 0.0
C844 C 0.50874 0.22797 0.73385 0.0
H845 H 0.46115 0.25908 0.74272 0.0
C846 C 0.53597 0.256 0.72876 0.0
C847 C 0.48127 0.22893 0.73876 0.0
C848 C 0.45098 0.19935 0.74374 0.0
C849 C 0.5368 0.28516 0.72887 0.0
C850 C 0.50942 0.28619 0.73389 0.0
C851 C 0.48206 0.25814 0.73885 0.0
C852 C 0.50924 0.31645 0.73449 0.0
C853 C 0.56733 0.31477 0.72415 0.0
C854 C 0.50567 0.32829 0.7504 0.0
C855 C 0.50866 0.35831 0.75129 0.0
C856 C 0.51527 0.377 0.73626 0.0
C857 C 0.51721 0.36431 0.72021 0.0
C858 C 0.51413 0.33427 0.71935 0.0
H859 H 0.58795 0.31094 0.72459 0.0
H860 H 0.56543 0.32203 0.71076 0.0
H861 H 0.57197 0.33457 0.73303 0.0
H862 H 0.50168 0.31475 0.76222 0.0
H863 H 0.5068 0.36724 0.76384 0.0
H864 H 0.6248 0.12535 0.69962 0.0
H865 H 0.67822 0.16813 0.69225 0.0
H866 H 0.69423 0.19773 0.74579 0.0
H867 H 0.64116 0.15533 0.75325 0.0
H868 H 0.69736 0.23246 0.69765 0.0
H869 H 0.77724 0.20072 0.73201 0.0
H870 H 0.73661 0.17191 0.72684 0.0
H871 H 0.74566 0.1969 0.74563 0.0
C872 C 0.63994 0.14061 0.70987 0.0
C873 C 0.62868 0.13712 0.72701 0.0
C874 C 0.67042 0.16499 0.70563 0.0
C875 C 0.69028 0.18579 0.71851 0.0
C876 C 0.67952 0.18154 0.73571 0.0
H877 H 0.81261 0.37221 0.73734 0.0
H878 H 0.77132 0.31795 0.73146 0.0
C879 C 0.64905 0.15746 0.73993 0.0
C880 C 0.72064 0.21432 0.71393 0.0
H881 H 0.79789 0.25691 0.72681 0.0
C882 C 0.71959 0.23748 0.70358 0.0
C883 C 0.74965 0.22074 0.72156 0.0
C884 C 0.75249 0.19609 0.73199 0.0
C885 C 0.74613 0.26787 0.70198 0.0
C886 C 0.77424 0.27513 0.71094 0.0
C887 C 0.77617 0.25123 0.72002 0.0
C888 C 0.7995 0.30829 0.71351 0.0
C889 C 0.74342 0.29269 0.69164 0.0
C890 C 0.82906 0.3207 0.70533 0.0
C891 C 0.85285 0.35204 0.70856 0.0
C892 C 0.84741 0.37101 0.72024 0.0
C893 C 0.81766 0.35826 0.72834 0.0
C894 C 0.79396 0.32729 0.72495 0.0
H895 H 0.72341 0.28184 0.68228 0.0
H896 H 0.73922 0.30798 0.70064 0.0
H897 H 0.76571 0.308 0.68445 0.0
H898 H 0.8337 0.30617 0.69654 0.0
H899 H 0.8756 0.36119 0.70221 0.0
H900 H 0.84356 0.48914 0.75554 0.0
H901 H 0.80103 0.50116 0.75123 0.0
H902 H 0.81408 0.5028 0.69582 0.0
H903 H 0.85615 0.48996 0.69996 0.0
H904 H 0.79676 0.54977 0.73503 0.0
H905 H 0.72186 0.4345 0.7016 0.0
H906 H 0.75774 0.44339 0.71294 0.0
H907 H 0.75974 0.45995 0.69183 0.0
C908 C 0.8376 0.4923 0.74243 0.0
C909 C 0.85285 0.48802 0.72807 0.0
C910 C 0.81333 0.49926 0.73999 0.0
C911 C 0.80399 0.50222 0.72319 0.0
C912 C 0.82042 0.49984 0.70887 0.0
H913 H 0.6251 0.49872 0.70073 0.0
H914 H 0.67976 0.51021 0.69619 0.0
C915 C 0.84451 0.4926 0.71128 0.0
C916 C 0.77581 0.50583 0.72082 0.0
H917 H 0.69934 0.46649 0.70636 0.0
C918 C 0.77558 0.53178 0.72856 0.0
C919 C 0.74823 0.48236 0.71232 0.0
C920 C 0.74663 0.45333 0.7043 0.0
C921 C 0.74812 0.53428 0.72859 0.0
C922 C 0.72021 0.51008 0.72079 0.0
C923 C 0.7209 0.48506 0.71224 0.0
C924 C 0.68907 0.50773 0.72343 0.0
C925 C 0.74893 0.56233 0.73735 0.0
C926 C 0.67642 0.5027 0.74022 0.0
C927 C 0.64534 0.49583 0.74281 0.0
C928 C 0.62623 0.49385 0.72866 0.0
C929 C 0.6393 0.50014 0.71188 0.0
C930 C 0.67045 0.50672 0.70927 0.0
H931 H 0.77336 0.58303 0.73771 0.0
H932 H 0.73318 0.56932 0.73064 0.0
H933 H 0.7406 0.55593 0.75093 0.0
H934 H 0.69017 0.50276 0.75129 0.0
H935 H 0.63602 0.49132 0.75591 0.0
H936 H 0.01692 0.80946 0.57949 0.0
H937 H 0.96231 0.79903 0.58143 0.0
H938 H 0.98979 0.86709 0.62301 0.0
H939 H 0.04365 0.87614 0.6218 0.0
H940 H 0.9327 0.81974 0.62893 0.0
H941 H 0.93853 0.85863 0.56055 0.0
H942 H 0.9425 0.8242 0.56298 0.0
H943 H 0.97249 0.86169 0.5716 0.0
C944 C 0.01112 0.82187 0.58916 0.0
C945 C 0.03459 0.84389 0.60035 0.0
C946 C 0.97998 0.81606 0.5902 0.0
C947 C 0.97209 0.83295 0.60204 0.0
C948 C 0.99525 0.85383 0.61372 0.0
H949 H 0.84462 0.90082 0.59075 0.0
H950 H 0.88748 0.88903 0.59267 0.0
C951 C 0.0261 0.85907 0.61298 0.0
C952 C 0.94057 0.83079 0.60168 0.0
H953 H 0.89194 0.84473 0.57587 0.0
C954 C 0.92364 0.82502 0.6173 0.0
C955 C 0.92885 0.83786 0.58652 0.0
C956 C 0.94662 0.84623 0.56951 0.0
C957 C 0.8962 0.82755 0.61837 0.0
C958 C 0.88478 0.835 0.60324 0.0
C959 C 0.90077 0.83908 0.58746 0.0
C960 C 0.85853 0.84217 0.60361 0.0
C961 C 0.88079 0.82396 0.63584 0.0
C962 C 0.82797 0.82002 0.60948 0.0
C963 C 0.80341 0.8271 0.60875 0.0
C964 C 0.80898 0.85606 0.60173 0.0
C965 C 0.83961 0.87822 0.5961 0.0
C966 C 0.86411 0.87146 0.59716 0.0
H967 H 0.89662 0.8256 0.64665 0.0
H968 H 0.87402 0.84238 0.63775 0.0
H969 H 0.85898 0.8004 0.63657 0.0
H970 H 0.82289 0.79701 0.61417 0.0
H971 H 0.77987 0.80952 0.61299 0.0
H972 H 0.15402 0.18245 0.57183 0.0
H973 H 0.16302 0.13799 0.57654 0.0
H974 H 0.16422 0.15176 0.63188 0.0
H975 H 0.15422 0.19564 0.6273 0.0
H976 H 0.20894 0.13051 0.59269 0.0
H977 H 0.09343 0.06112 0.62672 0.0
H978 H 0.10415 0.0974 0.6153 0.0
H979 H 0.1202 0.09859 0.63648 0.0
C980 C 0.15645 0.1762 0.585 0.0
C981 C 0.15283 0.19218 0.59921 0.0
C982 C 0.16165 0.15082 0.58767 0.0
C983 C 0.16357 0.14113 0.60457 0.0
C984 C 0.16194 0.15829 0.61875 0.0
H985 H 0.15782 0.96237 0.63106 0.0
H986 H 0.16969 0.01749 0.63395 0.0
C987 C 0.15634 0.18343 0.6161 0.0
C988 C 0.16549 0.11204 0.60722 0.0
H989 H 0.12396 0.03659 0.62308 0.0
C990 C 0.19055 0.11008 0.5995 0.0
C991 C 0.14144 0.0854 0.61612 0.0
C992 C 0.11313 0.08549 0.62401 0.0
C993 C 0.19168 0.08189 0.6 0.0
C994 C 0.16711 0.05506 0.60838 0.0
C995 C 0.14287 0.05739 0.61679 0.0
C996 C 0.16369 0.02333 0.60663 0.0
C997 C 0.2187 0.08071 0.5912 0.0
C998 C 0.15642 0.0086 0.59035 0.0
C999 C 0.14926 0.97724 0.58871 0.0
C1000 C 0.14931 0.96001 0.60333 0.0
C1001 C 0.15764 0.97511 0.61958 0.0
C1002 C 0.16444 0.00651 0.62125 0.0
H1003 H 0.23966 0.10477 0.58963 0.0
H1004 H 0.22582 0.06576 0.59866 0.0
H1005 H 0.21099 0.07015 0.5781 0.0
H1006 H 0.15522 0.02104 0.57898 0.0
H1007 H 0.1432 0.96633 0.57599 0.0
H1008 H 0.03347 0.20213 0.628 0.0
H1009 H 0.97816 0.15948 0.63121 0.0
H1010 H 0.97646 0.13409 0.5775 0.0
H1011 H 0.03135 0.17628 0.57415 0.0
H1012 H 0.91974 0.13705 0.59141 0.0
H1013 H 0.95648 0.06316 0.62928 0.0
H1014 H 0.97122 0.10367 0.63575 0.0
H1015 H 0.98404 0.09534 0.61564 0.0
C1016 C 0.02118 0.18764 0.61685 0.0
C1017 C 0.03689 0.19227 0.60088 0.0
C1018 C 0.98967 0.16333 0.61871 0.0
C1019 C 0.97345 0.14364 0.6046 0.0
C1020 C 0.98865 0.14908 0.58852 0.0
H1021 H 0.80997 0.97731 0.57068 0.0
H1022 H 0.85398 0.03109 0.5748 0.0
C1023 C 0.02008 0.17307 0.58668 0.0
C1024 C 0.94138 0.11589 0.60661 0.0
H1025 H 0.90348 0.03926 0.62056 0.0
C1026 C 0.91593 0.11577 0.59802 0.0
C1027 C 0.93663 0.08833 0.61529 0.0
C1028 C 0.96344 0.08729 0.62449 0.0
C1029 C 0.88592 0.08834 0.59746 0.0
C1030 C 0.88162 0.06017 0.60528 0.0
C1031 C 0.90678 0.06083 0.61454 0.0
C1032 C 0.85231 0.02912 0.60288 0.0
C1033 C 0.85927 0.08981 0.58836 0.0
C1034 C 0.8368 0.00992 0.61728 0.0
C1035 C 0.81198 0.9789 0.61495 0.0
C1036 C 0.80216 0.96647 0.59817 0.0
C1037 C 0.81684 0.98618 0.58378 0.0
C1038 C 0.84187 0.01709 0.58612 0.0
H1039 H 0.86272 0.11412 0.58884 0.0
H1040 H 0.8589 0.08347 0.5745 0.0
H1041 H 0.83594 0.0731 0.59421 0.0
H1042 H 0.84452 0.01865 0.63032 0.0
H1043 H 0.80102 0.9644 0.62631 0.0
H1044 H 0.08506 0.32936 0.10733 0.0
H1045 H 0.04616 0.32745 0.12833 0.0
H1046 H 0.12179 0.40249 0.15773 0.0
H1047 H 0.1604 0.40418 0.13729 0.0
H1048 H 0.07551 0.35432 0.17854 0.0
H1049 H 0.0228 0.39769 0.12888 0.0
H1050 H 0.02308 0.36148 0.12486 0.0
H1051 H 0.05968 0.39853 0.12494 0.0
C1052 C 0.09334 0.3451 0.11843 0.0
C1053 C 0.12582 0.36714 0.12054 0.0
C1054 C 0.0711 0.34406 0.13035 0.0
C1055 C 0.08109 0.36505 0.14449 0.0
C1056 C 0.11354 0.386 0.14695 0.0
H1057 H 0.06475 0.49523 0.19587 0.0
H1058 H 0.06323 0.45562 0.17626 0.0
C1059 C 0.13562 0.38706 0.13514 0.0
C1060 C 0.0585 0.3678 0.15621 0.0
H1061 H 0.01483 0.40476 0.15799 0.0
C1062 C 0.06128 0.36437 0.1741 0.0
C1063 C 0.03987 0.38073 0.1503 0.0
C1064 C 0.03608 0.38501 0.13122 0.0
C1065 C 0.04907 0.37688 0.18627 0.0
C1066 C 0.03315 0.39265 0.18029 0.0
C1067 C 0.02715 0.39272 0.16248 0.0
C1068 C 0.02975 0.41543 0.19153 0.0
C1069 C 0.05621 0.37608 0.20526 0.0
C1070 C 0.0108 0.40601 0.20651 0.0
C1071 C 0.01177 0.42887 0.21795 0.0
C1072 C 0.03173 0.46136 0.21451 0.0
C1073 C 0.04936 0.47046 0.19905 0.0
C1074 C 0.04836 0.44779 0.18772 0.0
H1075 H 0.07092 0.36489 0.20756 0.0
H1076 H 0.06888 0.4005 0.21062 0.0
H1077 H 0.0337 0.36244 0.21254 0.0
H1078 H 0.99597 0.38112 0.20957 0.0
H1079 H 0.99782 0.42113 0.22974 0.0
H1080 H 0.65444 0.75258 0.10371 0.0
H1081 H 0.65427 0.71464 0.12491 0.0
H1082 H 0.56374 0.69669 0.14415 0.0
H1083 H 0.56363 0.73415 0.12339 0.0
H1084 H 0.64565 0.71486 0.16393 0.0
H1085 H 0.55278 0.60764 0.13089 0.0
H1086 H 0.57706 0.64472 0.11969 0.0
H1087 H 0.54335 0.6388 0.13218 0.0
C1088 C 0.63459 0.74061 0.11252 0.0
C1089 C 0.60906 0.74643 0.11185 0.0
C1090 C 0.63454 0.71896 0.12457 0.0
C1091 C 0.60877 0.70262 0.13587 0.0
C1092 C 0.58362 0.70877 0.13535 0.0
H1093 H 0.54302 0.62799 0.22983 0.0
H1094 H 0.57613 0.65978 0.20593 0.0
C1095 C 0.58373 0.73038 0.12351 0.0
C1096 C 0.60748 0.67929 0.14859 0.0
H1097 H 0.55671 0.60387 0.16199 0.0
C1098 C 0.62687 0.6903 0.16334 0.0
C1099 C 0.58345 0.64715 0.14764 0.0
C1100 C 0.56315 0.63374 0.13166 0.0
C1101 C 0.6206 0.67071 0.17792 0.0
C1102 C 0.59401 0.63969 0.17774 0.0
C1103 C 0.5769 0.62774 0.16227 0.0
C1104 C 0.57989 0.62161 0.19395 0.0
C1105 C 0.64153 0.68399 0.19367 0.0
C1106 C 0.57102 0.58945 0.19534 0.0
C1107 C 0.55171 0.57099 0.20906 0.0
C1108 C 0.54059 0.58437 0.22139 0.0
C1109 C 0.55105 0.61694 0.22049 0.0
C1110 C 0.57038 0.6353 0.2069 0.0
H1111 H 0.66636 0.70088 0.1898 0.0
H1112 H 0.63312 0.69726 0.20166 0.0
H1113 H 0.64121 0.66496 0.20175 0.0
H1114 H 0.57781 0.57831 0.18538 0.0
H1115 H 0.54395 0.54593 0.2094 0.0
H1116 H 0.42629 0.99421 0.22841 0.0
H1117 H 0.38897 0.99549 0.20727 0.0
H1118 H 0.36482 0.90221 0.18952 0.0
H1119 H 0.4016 0.90068 0.21021 0.0
H1120 H 0.38867 0.98554 0.1688 0.0
H1121 H 0.27836 0.89728 0.20132 0.0
H1122 H 0.31551 0.91992 0.21276 0.0
H1123 H 0.3076 0.88516 0.20064 0.0
C1124 C 0.41297 0.97402 0.21998 0.0
C1125 C 0.417 0.94739 0.22096 0.0
C1126 C 0.39171 0.97479 0.20797 0.0
C1127 C 0.37389 0.94874 0.19706 0.0
C1128 C 0.37802 0.92234 0.19801 0.0
H1129 H 0.30295 0.88257 0.10309 0.0
H1130 H 0.33414 0.91612 0.127 0.0
C1131 C 0.39929 0.92164 0.20979 0.0
C1132 C 0.35153 0.94862 0.18405 0.0
H1133 H 0.27615 0.89984 0.16993 0.0
C1134 C 0.36379 0.96754 0.1692 0.0
C1135 C 0.31898 0.92566 0.18476 0.0
C1136 C 0.30423 0.90606 0.20082 0.0
C1137 C 0.34503 0.96159 0.1543 0.0
C1138 C 0.31356 0.93576 0.15426 0.0
C1139 C 0.30039 0.91938 0.16981 0.0
C1140 C 0.29612 0.92145 0.13792 0.0
C1141 C 0.35963 0.98192 0.13846 0.0
C1142 C 0.26426 0.9133 0.13592 0.0
C1143 C 0.24611 0.89366 0.12223 0.0
C1144 C 0.2595 0.88153 0.11051 0.0
C1145 C 0.29187 0.89134 0.11196 0.0
C1146 C 0.30991 0.91095 0.12554 0.0
H1147 H 0.37683 0.00671 0.14225 0.0
H1148 H 0.37287 0.97273 0.13107 0.0
H1149 H 0.34138 0.98196 0.12985 0.0
H1150 H 0.25304 0.92087 0.14542 0.0
H1151 H 0.22122 0.8865 0.12147 0.0
H1152 H 0.40808 0.17875 0.86233 0.0
H1153 H 0.40806 0.14171 0.84129 0.0
H1154 H 0.34073 0.06315 0.87241 0.0
H1155 H 0.34094 0.10044 0.8939 0.0
H1156 H 0.39148 0.05758 0.86397 0.0
H1157 H 0.34768 0.08513 0.80445 0.0
H1158 H 0.37793 0.1212 0.81397 0.0
H1159 H 0.34159 0.09691 0.82568 0.0
C1160 C 0.39279 0.15363 0.86462 0.0
C1161 C 0.37455 0.14257 0.87983 0.0
C1162 C 0.39254 0.13241 0.85244 0.0
C1163 C 0.3739 0.09962 0.85507 0.0
C1164 C 0.35497 0.08837 0.87002 0.0
H1165 H 0.42494 0.01341 0.77001 0.0
H1166 H 0.3877 0.01528 0.79083 0.0
C1167 C 0.35511 0.1097 0.88226 0.0
C1168 C 0.37775 0.07787 0.84319 0.0
H1169 H 0.3876 0.06884 0.80019 0.0
C1170 C 0.38968 0.05922 0.85002 0.0
C1171 C 0.37469 0.07922 0.825 0.0
C1172 C 0.3594 0.09644 0.81689 0.0
C1173 C 0.40193 0.0449 0.83912 0.0
C1174 C 0.40279 0.04994 0.821 0.0
C1175 C 0.38755 0.06547 0.8141 0.0
C1176 C 0.4239 0.04444 0.80946 0.0
C1177 C 0.41535 0.02593 0.84718 0.0
C1178 C 0.45647 0.06008 0.81306 0.0
C1179 C 0.47762 0.05917 0.80127 0.0
C1180 C 0.46675 0.04273 0.7855 0.0
C1181 C 0.43399 0.02612 0.7821 0.0
C1182 C 0.41272 0.02718 0.79395 0.0
H1183 H 0.40218 0.01382 0.85917 0.0
H1184 H 0.41449 0.00789 0.83805 0.0
H1185 H 0.4404 0.04215 0.85091 0.0
H1186 H 0.4658 0.07429 0.82468 0.0
H1187 H 0.50268 0.07222 0.80432 0.0
H1188 H 0.8905 0.37509 0.77938 0.0
H1189 H 0.89541 0.34035 0.80011 0.0
H1190 H 0.99724 0.39369 0.79511 0.0
H1191 H 0.99252 0.42975 0.77462 0.0
H1192 H 0.91987 0.30181 0.79835 0.0
H1193 H 0.98726 0.39745 0.8467 0.0
H1194 H 0.96958 0.40415 0.82782 0.0
H1195 H 0.00475 0.40126 0.82569 0.0
C1196 C 0.91402 0.37953 0.78259 0.0
C1197 C 0.94115 0.40549 0.77551 0.0
C1198 C 0.91679 0.35948 0.79442 0.0
C1199 C 0.94671 0.36458 0.79935 0.0
C1200 C 0.97393 0.38969 0.79179 0.0
H1201 H 0.89032 0.21365 0.87752 0.0
H1202 H 0.92667 0.24683 0.85447 0.0
C1203 C 0.97119 0.41019 0.78005 0.0
C1204 C 0.94834 0.34416 0.81314 0.0
H1205 H 0.96353 0.34533 0.85642 0.0
C1206 C 0.93004 0.31119 0.81099 0.0
C1207 C 0.96211 0.35656 0.82952 0.0
C1208 C 0.98193 0.39176 0.83272 0.0
C1209 C 0.92167 0.29051 0.82519 0.0
C1210 C 0.93299 0.3032 0.84191 0.0
C1211 C 0.95471 0.33575 0.84361 0.0
C1212 C 0.9168 0.28518 0.85782 0.0
C1213 C 0.89815 0.25582 0.8224 0.0
C1214 C 0.90091 0.29657 0.8681 0.0
C1215 C 0.88078 0.2781 0.88134 0.0
C1216 C 0.8757 0.24752 0.88456 0.0
C1217 C 0.89339 0.23693 0.87517 0.0
C1218 C 0.91399 0.25576 0.86192 0.0
H1219 H 0.8891 0.25066 0.80886 0.0
H1220 H 0.90967 0.24161 0.8252 0.0
H1221 H 0.87762 0.24787 0.83128 0.0
H1222 H 0.90271 0.31921 0.86528 0.0
H1223 H 0.86804 0.28733 0.88851 0.0
H1224 H 0.61458 0.5773 0.76212 0.0
H1225 H 0.65266 0.61071 0.78442 0.0
H1226 H 0.58655 0.5533 0.8243 0.0
H1227 H 0.54792 0.52124 0.802 0.0
H1228 H 0.6225 0.61354 0.83524 0.0
H1229 H 0.69902 0.57108 0.80603 0.0
H1230 H 0.69032 0.59495 0.79188 0.0
H1231 H 0.65895 0.55682 0.79891 0.0
C1232 C 0.60787 0.5728 0.77568 0.0
C1233 C 0.57852 0.54701 0.78049 0.0
C1234 C 0.62968 0.59157 0.78838 0.0
C1235 C 0.62284 0.58385 0.80602 0.0
C1236 C 0.59242 0.55964 0.81079 0.0
H1237 H 0.70446 0.57507 0.89877 0.0
H1238 H 0.67129 0.57841 0.87606 0.0
C1239 C 0.57033 0.54138 0.79808 0.0
C1240 C 0.64822 0.59769 0.81933 0.0
H1241 H 0.71676 0.60015 0.83166 0.0
C1242 C 0.64336 0.61106 0.83434 0.0
C1243 C 0.6754 0.59423 0.81822 0.0
C1244 C 0.6812 0.57826 0.80299 0.0
C1245 C 0.66428 0.61994 0.84849 0.0
C1246 C 0.6907 0.61546 0.84753 0.0
C1247 C 0.69656 0.6038 0.83222 0.0
C1248 C 0.71 0.61813 0.86291 0.0
C1249 C 0.65751 0.63307 0.86459 0.0
C1250 C 0.74272 0.63964 0.86312 0.0
C1251 C 0.76177 0.6379 0.87617 0.0
C1252 C 0.7484 0.61411 0.88892 0.0
C1253 C 0.71543 0.59351 0.88905 0.0
C1254 C 0.6964 0.59558 0.87619 0.0
H1255 H 0.64168 0.64282 0.86178 0.0
H1256 H 0.64557 0.61379 0.87428 0.0
H1257 H 0.67983 0.65196 0.87047 0.0
H1258 H 0.75363 0.65691 0.85282 0.0
H1259 H 0.78712 0.65402 0.87573 0.0
H1260 H 0.98323 0.56874 0.76754 0.0
H1261 H 0.98619 0.60563 0.79025 0.0
H1262 H 0.92306 0.52631 0.82229 0.0
H1263 H 0.92017 0.4898 0.80003 0.0
H1264 H 0.93518 0.60974 0.80189 0.0
H1265 H 0.98871 0.58293 0.85746 0.0
H1266 H 0.9927 0.57253 0.83546 0.0
H1267 H 0.95825 0.54668 0.8482 0.0
C1268 C 0.9706 0.55929 0.77961 0.0
C1269 C 0.95138 0.52638 0.78197 0.0
C1270 C 0.97231 0.58035 0.79254 0.0
C1271 C 0.95534 0.56872 0.80811 0.0
C1272 C 0.93707 0.53588 0.81062 0.0
H1273 H 0.82831 0.58391 0.86625 0.0
H1274 H 0.86467 0.58546 0.84427 0.0
C1275 C 0.93513 0.51499 0.79775 0.0
C1276 C 0.95282 0.58999 0.82095 0.0
H1277 H 0.9475 0.59642 0.86472 0.0
C1278 C 0.9389 0.60778 0.81561 0.0
C1279 C 0.95833 0.5882 0.83883 0.0
C1280 C 0.97567 0.57182 0.84527 0.0
C1281 C 0.92685 0.62043 0.82778 0.0
C1282 C 0.92833 0.61464 0.84565 0.0
C1283 C 0.94576 0.60033 0.851 0.0
C1284 C 0.90719 0.61749 0.85844 0.0
C1285 C 0.91086 0.63817 0.82134 0.0
C1286 C 0.91894 0.63467 0.87393 0.0
C1287 C 0.89797 0.63374 0.8867 0.0
C1288 C 0.86501 0.61512 0.88426 0.0
C1289 C 0.85352 0.59846 0.8686 0.0
C1290 C 0.87434 0.59961 0.85588 0.0
H1291 H 0.92206 0.65112 0.80915 0.0
H1292 H 0.88564 0.621 0.81844 0.0
H1293 H 0.91186 0.65532 0.83116 0.0
H1294 H 0.94423 0.64824 0.87626 0.0
H1295 H 0.90752 0.64668 0.89868 0.0
H1296 H 0.41651 0.30274 0.8961 0.0
H1297 H 0.4131 0.33667 0.87417 0.0
H1298 H 0.32804 0.25717 0.85369 0.0
H1299 H 0.3316 0.22259 0.87571 0.0
H1300 H 0.37264 0.28618 0.82917 0.0
H1301 H 0.36163 0.37831 0.86424 0.0
H1302 H 0.39235 0.37363 0.87406 0.0
H1303 H 0.35208 0.34101 0.87425 0.0
C1304 C 0.39664 0.29251 0.88719 0.0
C1305 C 0.3745 0.25992 0.88752 0.0
C1306 C 0.39448 0.31209 0.87476 0.0
C1307 C 0.37002 0.29964 0.86243 0.0
C1308 C 0.3469 0.26735 0.86322 0.0
H1309 H 0.42154 0.4158 0.76655 0.0
H1310 H 0.38281 0.37825 0.78751 0.0
C1311 C 0.34896 0.24764 0.87579 0.0
C1312 C 0.3722 0.31953 0.84734 0.0
H1313 H 0.39469 0.39625 0.83764 0.0
C1314 C 0.3762 0.30984 0.83083 0.0
C1315 C 0.37657 0.3503 0.84946 0.0
C1316 C 0.37005 0.36121 0.86646 0.0
C1317 C 0.38812 0.33132 0.81695 0.0
C1318 C 0.39602 0.36311 0.81969 0.0
C1319 C 0.38887 0.37189 0.83564 0.0
C1320 C 0.41751 0.38836 0.80765 0.0
C1321 C 0.39517 0.32078 0.79994 0.0
C1322 C 0.4495 0.40682 0.81227 0.0
C1323 C 0.47151 0.42787 0.80041 0.0
C1324 C 0.46193 0.43112 0.7837 0.0
C1325 C 0.42955 0.4138 0.77936 0.0
C1326 C 0.40746 0.39236 0.79126 0.0
H1327 H 0.38783 0.29522 0.79997 0.0
H1328 H 0.38256 0.32516 0.78926 0.0
H1329 H 0.42095 0.33479 0.79716 0.0
H1330 H 0.45768 0.40397 0.82486 0.0
H1331 H 0.49621 0.44106 0.8042 0.0
H1332 H 0.58441 0.00266 0.76815 0.0
H1333 H 0.62022 -0.00088 0.7896 0.0
H1334 H 0.61293 0.06763 0.82177 0.0
H1335 H 0.57794 0.0714 0.80049 0.0
H1336 H 0.67877 0.05174 0.79875 0.0
H1337 H 0.6056 0.00191 0.85728 0.0
H1338 H 0.58861 0.99608 0.83579 0.0
H1339 H 0.59864 0.03155 0.84788 0.0
C1340 C 0.58996 0.01623 0.78006 0.0
C1341 C 0.57859 0.03724 0.78282 0.0
C1342 C 0.61032 0.01423 0.79224 0.0
C1343 C 0.61874 0.03267 0.80742 0.0
C1344 C 0.60615 0.05259 0.81039 0.0
H1345 H 0.76631 0.16299 0.85993 0.0
H1346 H 0.73049 0.12485 0.83889 0.0
C1347 C 0.58639 0.05494 0.79818 0.0
C1348 C 0.64393 0.03518 0.81919 0.0
H1349 H 0.66116 0.04312 0.86238 0.0
C1350 C 0.67488 0.04878 0.81265 0.0
C1351 C 0.63891 0.03068 0.83728 0.0
C1352 C 0.60604 0.0139 0.84493 0.0
C1353 C 0.70109 0.06166 0.82386 0.0
C1354 C 0.69608 0.06129 0.84196 0.0
C1355 C 0.6651 0.04401 0.84849 0.0
C1356 C 0.72146 0.0835 0.85383 0.0
C1357 C 0.73392 0.0774 0.81615 0.0
C1358 C 0.72822 0.07306 0.8694 0.0
C1359 C 0.74876 0.09505 0.88164 0.0
C1360 C 0.76235 0.12777 0.87857 0.0
C1361 C 0.75623 0.13799 0.86274 0.0
C1362 C 0.736 0.11614 0.85055 0.0
H1363 H 0.73425 0.06514 0.80407 0.0
H1364 H 0.74122 0.10222 0.81266 0.0
H1365 H 0.75148 0.0776 0.82541 0.0
H1366 H 0.71689 0.04798 0.87229 0.0
H1367 H 0.75289 0.08646 0.89376 0.0
H1368 H 0.65014 0.86753 0.12033 0.0
H1369 H 0.64882 0.89881 0.14492 0.0
H1370 H 0.56613 0.89659 0.12336 0.0
H1371 H 0.56703 0.86527 0.09888 0.0
H1372 H 0.63219 0.9605 0.14627 0.0
H1373 H 0.55085 0.84016 0.17307 0.0
H1374 H 0.58286 0.84749 0.15854 0.0
H1375 H 0.54827 0.84711 0.15031 0.0
C1376 C 0.63226 0.87452 0.12056 0.0
C1377 C 0.60835 0.8635 0.10785 0.0
C1378 C 0.63164 0.89248 0.13457 0.0
C1379 C 0.60738 0.89989 0.13586 0.0
C1380 C 0.58512 0.89119 0.12247 0.0
H1381 H 0.52664 0.97537 0.20565 0.0
H1382 H 0.55823 0.97077 0.18235 0.0
C1383 C 0.58555 0.8731 0.10859 0.0
C1384 C 0.60148 0.91124 0.15238 0.0
H1385 H 0.55435 0.88352 0.18808 0.0
C1386 C 0.61556 0.94384 0.15561 0.0
C1387 C 0.57997 0.8893 0.16448 0.0
C1388 C 0.56458 0.85401 0.16159 0.0
C1389 C 0.60787 0.95509 0.17059 0.0
C1390 C 0.58512 0.93307 0.18231 0.0
C1391 C 0.57192 0.90047 0.1792 0.0
C1392 C 0.57273 0.94255 0.19735 0.0
C1393 C 0.62414 0.99032 0.17369 0.0
C1394 C 0.57077 0.92876 0.21365 0.0
C1395 C 0.55201 0.93059 0.22672 0.0
C1396 C 0.53541 0.94681 0.22388 0.0
C1397 C 0.53953 0.96302 0.20818 0.0
C1398 C 0.55777 0.96056 0.1949 0.0
H1399 H 0.64783 0.00272 0.1674 0.0
H1400 H 0.60966 -0.00025 0.16792 0.0
H1401 H 0.62704 0.99595 0.18776 0.0
H1402 H 0.58209 0.91477 0.21586 0.0
H1403 H 0.54922 0.91799 0.23878 0.0
H1404 H 0.17802 0.75927 0.13136 0.0
H1405 H 0.14003 0.72255 0.15223 0.0
H1406 H 0.06427 0.72659 0.12563 0.0
H1407 H 0.10236 0.7633 0.10427 0.0
H1408 H 0.09762 0.72789 0.17462 0.0
H1409 H 0.03521 0.63145 0.126 0.0
H1410 H 0.07299 0.66606 0.12136 0.0
H1411 H 0.03774 0.66899 0.12194 0.0
C1412 C 0.15335 0.75264 0.12993 0.0
C1413 C 0.14325 0.76414 0.11604 0.0
C1414 C 0.13164 0.73166 0.14195 0.0
C1415 C 0.09929 0.7216 0.1404 0.0
C1416 C 0.08908 0.73374 0.12692 0.0
H1417 H 0.00526 0.5904 0.22835 0.0
H1418 H 0.0083 0.62868 0.20636 0.0
C1419 C 0.1109 0.75482 0.11479 0.0
C1420 C 0.07678 0.69721 0.15262 0.0
H1421 H 0.02529 0.61761 0.1553 0.0
C1422 C 0.08107 0.70391 0.17045 0.0
C1423 C 0.05523 0.66601 0.14707 0.0
C1424 C 0.04995 0.65742 0.12807 0.0
C1425 C 0.06659 0.67975 0.18288 0.0
C1426 C 0.04683 0.64813 0.17728 0.0
C1427 C 0.04033 0.6419 0.15951 0.0
C1428 C 0.0389 0.6211 0.18905 0.0
C1429 C 0.07488 0.68782 0.20177 0.0
C1430 C 0.05371 0.60317 0.18617 0.0
C1431 C 0.05192 0.58156 0.19856 0.0
C1432 C 0.035 0.57718 0.21399 0.0
C1433 C 0.0182 0.59332 0.21643 0.0
C1434 C 0.02015 0.61527 0.20398 0.0
H1435 H 0.09299 0.71313 0.20372 0.0
H1436 H 0.05329 0.68286 0.2091 0.0
H1437 H 0.08404 0.67295 0.20737 0.0
H1438 H 0.06834 0.6073 0.1748 0.0
H1439 H 0.06513 0.56937 0.19649 0.0
H1440 H 0.40751 0.42598 0.23571 0.0
H1441 H 0.36898 0.38726 0.21515 0.0
H1442 H 0.39724 0.461 0.1768 0.0
H1443 H 0.43511 0.49969 0.19722 0.0
H1444 H 0.31899 0.39821 0.19942 0.0
H1445 H 0.39358 0.38284 0.15067 0.0
H1446 H 0.40612 0.39449 0.17287 0.0
H1447 H 0.40875 0.42324 0.15733 0.0
C1448 C 0.40589 0.43372 0.22277 0.0
C1449 C 0.42421 0.46584 0.21805 0.0
C1450 C 0.38391 0.41163 0.21108 0.0
C1451 C 0.38062 0.42127 0.19443 0.0
C1452 C 0.39981 0.45303 0.18951 0.0
H1453 H 0.28758 0.41593 0.10822 0.0
H1454 H 0.3221 0.41515 0.13064 0.0
C1455 C 0.42128 0.47514 0.20123 0.0
C1456 C 0.3549 0.39963 0.18265 0.0
H1457 H 0.34309 0.37475 0.14061 0.0
C1458 C 0.32385 0.39201 0.18672 0.0
C1459 C 0.36149 0.39156 0.16621 0.0
C1460 C 0.39427 0.39818 0.16152 0.0
C1461 C 0.29986 0.37974 0.17408 0.0
C1462 C 0.30718 0.37437 0.15708 0.0
C1463 C 0.33751 0.37895 0.15361 0.0
C1464 C 0.28653 0.37101 0.14214 0.0
C1465 C 0.26787 0.37563 0.17857 0.0
C1466 C 0.25518 0.34581 0.14072 0.0
C1467 C 0.23503 0.34633 0.12785 0.0
C1468 C 0.24611 0.37206 0.11629 0.0
C1469 C 0.2781 0.39601 0.1171 0.0
C1470 C 0.298 0.3955 0.12986 0.0
H1471 H 0.26733 0.38427 0.19183 0.0
H1472 H 0.26128 0.38861 0.16915 0.0
H1473 H 0.24965 0.35015 0.17789 0.0
H1474 H 0.24602 0.32636 0.14987 0.0
H1475 H 0.21056 0.32741 0.12745 0.0
H1476 H 0.66347 0.78721 0.53996 0.0
H1477 H 0.65928 0.74749 0.51883 0.0
H1478 H 0.74824 0.75923 0.53704 0.0
H1479 H 0.75255 0.79848 0.55798 0.0
H1480 H 0.70371 0.7611 0.4927 0.0
H1481 H 0.69428 0.66326 0.53284 0.0
H1482 H 0.68429 0.69195 0.54101 0.0
H1483 H 0.72483 0.70056 0.54105 0.0
C1484 C 0.68177 0.7808 0.53965 0.0
C1485 C 0.70847 0.79612 0.55052 0.0
C1486 C 0.67931 0.75811 0.52761 0.0
C1487 C 0.70315 0.74999 0.52659 0.0
C1488 C 0.72916 0.7645 0.53788 0.0
H1489 H 0.82555 0.72444 0.47318 0.0
H1490 H 0.78624 0.72406 0.49275 0.0
C1491 C 0.73179 0.78727 0.54971 0.0
C1492 C 0.70376 0.72982 0.51241 0.0
H1493 H 0.72446 0.67343 0.50564 0.0
C1494 C 0.70698 0.74106 0.49534 0.0
C1495 C 0.70768 0.70349 0.51586 0.0
C1496 C 0.70222 0.68893 0.53369 0.0
C1497 C 0.71798 0.72928 0.48208 0.0
C1498 C 0.72558 0.70552 0.48607 0.0
C1499 C 0.71883 0.69182 0.50265 0.0
C1500 C 0.74712 0.70038 0.47478 0.0
C1501 C 0.72461 0.7446 0.46439 0.0
C1502 C 0.7379 0.68626 0.45834 0.0
C1503 C 0.7605 0.68633 0.44705 0.0
C1504 C 0.79252 0.70083 0.45206 0.0
C1505 C 0.80113 0.71337 0.46887 0.0
C1506 C 0.77865 0.71301 0.48012 0.0
H1507 H 0.7182 0.76347 0.46359 0.0
H1508 H 0.75014 0.75514 0.46121 0.0
H1509 H 0.71087 0.72641 0.45442 0.0
H1510 H 0.71359 0.67626 0.45405 0.0
H1511 H 0.75326 0.67655 0.43414 0.0
H1512 H 0.27864 0.10673 0.47387 0.0
H1513 H 0.28003 0.06948 0.49439 0.0
H1514 H 0.32043 0.0372 0.45517 0.0
H1515 H 0.3194 0.0751 0.4344 0.0
H1516 H 0.26342 0.98925 0.47046 0.0
H1517 H 0.34867 0.06166 0.52128 0.0
H1518 H 0.32371 0.07746 0.51536 0.0
H1519 H 0.3502 0.0762 0.49949 0.0
C1520 C 0.28853 0.09226 0.4697 0.0
C1521 C 0.29882 0.0937 0.45255 0.0
C1522 C 0.2896 0.07117 0.4815 0.0
C1523 C 0.30077 0.05091 0.47638 0.0
C1524 C 0.31215 0.05299 0.45941 0.0
H1525 H 0.21674 0.88208 0.54463 0.0
H1526 H 0.25584 0.9168 0.52296 0.0
C1527 C 0.31157 0.0746 0.4476 0.0
C1528 C 0.29577 0.02484 0.48819 0.0
H1529 H 0.30233 0.01235 0.53112 0.0
C1530 C 0.27277 0.99388 0.48357 0.0
C1531 C 0.30821 0.03099 0.50521 0.0
C1532 C 0.33433 0.06338 0.51057 0.0
C1533 C 0.259 0.9698 0.4961 0.0
C1534 C 0.26897 0.97696 0.51358 0.0
C1535 C 0.29454 0.00697 0.51774 0.0
C1536 C 0.24891 0.95662 0.52793 0.0
C1537 C 0.23171 0.9379 0.49091 0.0
C1538 C 0.23296 0.96788 0.53823 0.0
C1539 C 0.21086 0.94833 0.55049 0.0
C1540 C 0.20416 0.91696 0.55279 0.0
C1541 C 0.22126 0.90607 0.54306 0.0
C1542 C 0.24348 0.9258 0.53066 0.0
H1543 H 0.22553 0.93695 0.47696 0.0
H1544 H 0.238 0.9193 0.49342 0.0
H1545 H 0.21043 0.93219 0.49878 0.0
H1546 H 0.23677 0.99158 0.53633 0.0
H1547 H 0.19847 0.95767 0.5579 0.0
H1548 H 0.04212 0.24668 0.55512 0.0
H1549 H 0.01021 0.25184 0.53255 0.0
H1550 H 0.08873 0.34308 0.51824 0.0
H1551 H 0.12141 0.33787 0.54092 0.0
H1552 H 0.99271 0.29824 0.52503 0.0
H1553 H 0.06849 0.28951 0.47351 0.0
H1554 H 0.07176 0.28031 0.49583 0.0
H1555 H 0.08638 0.32066 0.48939 0.0
C1556 C 0.05268 0.26802 0.5473 0.0
C1557 C 0.08449 0.29163 0.54961 0.0
C1558 C 0.03428 0.27103 0.53447 0.0
C1559 C 0.04719 0.29767 0.5236 0.0
C1560 C 0.07846 0.32217 0.52638 0.0
H1561 H 0.93073 0.24509 0.42898 0.0
H1562 H 0.9691 0.28541 0.44904 0.0
C1563 C 0.09702 0.3192 0.53936 0.0
C1564 C 0.02807 0.29745 0.50862 0.0
H1565 H 0.01686 0.27601 0.46595 0.0
C1566 C -0.00162 0.29448 0.51196 0.0
C1567 C 0.03562 0.29287 0.49153 0.0
C1568 C 0.06721 0.29588 0.48721 0.0
C1569 C 0.97488 0.28368 0.49911 0.0
C1570 C 0.98125 0.27552 0.48262 0.0
C1571 C 0.01206 0.28216 0.47867 0.0
C1572 C 0.95528 0.25364 0.47103 0.0
C1573 C 0.94263 0.27871 0.50365 0.0
C1574 C 0.93491 0.22263 0.47682 0.0
C1575 C 0.91363 0.19968 0.46543 0.0
C1576 C 0.91205 0.2073 0.44803 0.0
C1577 C 0.93137 0.23872 0.44238 0.0
C1578 C 0.95322 0.2617 0.45378 0.0
H1579 H 0.94435 0.29555 0.51389 0.0
H1580 H 0.93071 0.28163 0.49209 0.0
H1581 H 0.92766 0.25432 0.50876 0.0
H1582 H 0.93657 0.21574 0.48997 0.0
H1583 H 0.89897 0.17568 0.47014 0.0
H1584 H 0.24331 0.31757 0.56837 0.0
H1585 H 0.28342 0.31946 0.5482 0.0
H1586 H 0.21279 0.28001 0.50782 0.0
H1587 H 0.17295 0.27765 0.52776 0.0
H1588 H 0.27478 0.26237 0.53214 0.0
H1589 H 0.29119 0.35131 0.48276 0.0
H1590 H 0.27742 0.35167 0.50451 0.0
H1591 H 0.25015 0.32624 0.48815 0.0
C1592 C 0.23667 0.31005 0.55506 0.0
C1593 C 0.20506 0.29733 0.54961 0.0
C1594 C 0.25953 0.31114 0.54359 0.0
C1595 C 0.25115 0.30034 0.52646 0.0
C1596 C 0.21993 0.28909 0.52086 0.0
H1597 H 0.24588 0.20372 0.44356 0.0
H1598 H 0.2501 0.24145 0.46545 0.0
C1599 C 0.1971 0.28748 0.53232 0.0
C1600 C 0.27299 0.29615 0.5149 0.0
H1601 H 0.29491 0.30582 0.47236 0.0
C1602 C 0.28044 0.27269 0.51925 0.0
C1603 C 0.2805 0.30986 0.49819 0.0
C1604 C 0.27468 0.33643 0.49318 0.0
C1605 C 0.29141 0.25971 0.50663 0.0
C1606 C 0.29546 0.27099 0.48936 0.0
C1607 C 0.29157 0.29703 0.48558 0.0
C1608 C 0.29624 0.25178 0.4747 0.0
C1609 C 0.29533 0.23184 0.51144 0.0
C1610 C 0.32125 0.24565 0.47228 0.0
C1611 C 0.31882 0.22374 0.4597 0.0
C1612 C 0.2913 0.20768 0.44948 0.0
C1613 C 0.2672 0.2153 0.45138 0.0
C1614 C 0.26967 0.23708 0.46382 0.0
H1615 H 0.28902 0.22459 0.5252 0.0
H1616 H 0.28022 0.21124 0.50301 0.0
H1617 H 0.32034 0.2381 0.50942 0.0
H1618 H 0.34214 0.25708 0.48042 0.0
H1619 H 0.33786 0.2185 0.45845 0.0
H1620 H 0.78711 0.12329 0.45722 0.0
H1621 H 0.74817 0.09007 0.47937 0.0
H1622 H 0.76073 0.0116 0.46486 0.0
H1623 H 0.79887 0.04405 0.44285 0.0
H1624 H 0.69624 0.99477 0.47119 0.0
H1625 H 0.77842 0.06674 0.52451 0.0
H1626 H 0.76698 0.086 0.50848 0.0
H1627 H 0.79221 0.0706 0.50244 0.0
C1628 C 0.78117 0.09883 0.45864 0.0
C1629 C 0.79641 0.08643 0.44847 0.0
C1630 C 0.75905 0.07995 0.47132 0.0
C1631 C 0.75185 0.04849 0.47386 0.0
C1632 C 0.76592 0.0358 0.46312 0.0
H1633 H 0.71633 0.89548 0.52656 0.0
H1634 H 0.71593 0.93394 0.50654 0.0
C1635 C 0.78794 0.05451 0.45061 0.0
C1636 C 0.73183 0.02879 0.48841 0.0
H1637 H 0.7387 0.01523 0.53118 0.0
C1638 C 0.70485 -0.00036 0.48445 0.0
C1639 C 0.7429 0.03529 0.50573 0.0
C1640 C 0.77174 0.06627 0.51068 0.0
C1641 C 0.69067 0.97565 0.49697 0.0
C1642 C 0.70402 0.98092 0.51376 0.0
C1643 C 0.72863 0.01124 0.51825 0.0
C1644 C 0.69804 0.95419 0.52529 0.0
C1645 C 0.66295 0.94407 0.4918 0.0
C1646 C 0.68782 0.95257 0.5425 0.0
C1647 C 0.68775 0.93021 0.554 0.0
C1648 C 0.69874 0.90991 0.5485 0.0
C1649 C 0.70776 0.91086 0.53113 0.0
C1650 C 0.70729 0.93267 0.51964 0.0
H1651 H 0.64872 0.94695 0.48144 0.0
H1652 H 0.6719 0.92879 0.4866 0.0
H1653 H 0.64735 0.93186 0.50307 0.0
H1654 H 0.68104 0.96929 0.54716 0.0
H1655 H 0.68098 0.93011 0.56739 0.0
H1656 H 0.10056 0.82685 0.52991 0.0
H1657 H 0.06213 0.78734 0.51017 0.0
H1658 H 0.03557 0.71524 0.54938 0.0
H1659 H 0.07453 0.75509 0.56943 0.0
H1660 H 0.051 0.72427 0.49822 0.0
H1661 H 0.95375 0.72132 0.53788 0.0
H1662 H 0.99405 0.75327 0.5403 0.0
H1663 H 0.98309 0.71439 0.54799 0.0
C1664 C 0.08697 0.8025 0.53428 0.0
C1665 C 0.0903 0.79408 0.55126 0.0
C1666 C 0.06512 0.77991 0.52295 0.0
C1667 C 0.0459 0.74848 0.52837 0.0
C1668 C 0.05018 0.73946 0.54501 0.0
H1669 H 0.87741 0.66395 0.46153 0.0
H1670 H 0.91198 0.66016 0.48353 0.0
C1671 C 0.07247 0.76215 0.55639 0.0
C1672 C 0.01954 0.72682 0.51691 0.0
H1673 H 0.94263 0.70562 0.50884 0.0
C1674 C 0.02698 0.71912 0.50071 0.0
C1675 C 0.98818 0.71988 0.52026 0.0
C1676 C 0.97902 0.72757 0.53751 0.0
C1677 C 0.00463 0.70746 0.48724 0.0
C1678 C 0.97441 0.70411 0.48998 0.0
C1679 C 0.9659 0.70844 0.50672 0.0
C1680 C 0.9542 0.70284 0.47527 0.0
C1681 C 0.01424 0.70077 0.46987 0.0
C1682 C 0.96649 0.72797 0.46336 0.0
C1683 C 0.94692 0.73035 0.45102 0.0
C1684 C 0.9145 0.70767 0.4503 0.0
C1685 C 0.90233 0.68171 0.46175 0.0
C1686 C 0.92201 0.67951 0.4743 0.0
H1687 H 0.03147 0.69234 0.47148 0.0
H1688 H 0.99342 0.68275 0.46248 0.0
H1689 H 0.02602 0.72298 0.46217 0.0
H1690 H 0.99102 0.7467 0.46412 0.0
H1691 H 0.95705 0.75054 0.44233 0.0
H1692 H 0.21651 0.30031 0.06399 0.0
H1693 H 0.2419 0.2765 0.04714 0.0
H1694 H 0.25094 0.33582 0.0035 0.0
H1695 H 0.22561 0.35973 0.02012 0.0
H1696 H 0.22166 0.24528 0.01254 0.0
H1697 H 0.34262 0.3511 0.01377 0.0
H1698 H 0.31227 0.34526 0.0292 0.0
H1699 H 0.31111 0.35816 0.00753 0.0
C1700 C 0.22385 0.30827 0.0508 0.0
C1701 C 0.21904 0.33194 0.0434 0.0
C1702 C 0.2383 0.29462 0.04121 0.0
C1703 C 0.24848 0.30468 0.02418 0.0
C1704 C 0.2435 0.32804 0.01671 0.0
H1705 H 0.30527 0.22482 0.94117 0.0
H1706 H 0.27907 0.24539 0.95982 0.0
C1707 C 0.22889 0.34154 0.02621 0.0
C1708 C 0.26427 0.29074 0.01412 0.0
H1709 H 0.33478 0.30873 0.99544 0.0
C1710 C 0.24641 0.25903 0.00884 0.0
C1711 C 0.2966 0.30879 0.0095 0.0
C1712 C 0.31696 0.34266 0.01537 0.0
C1713 C 0.25997 0.24504 0.99866 0.0
C1714 C 0.29207 0.26338 0.99362 0.0
C1715 C 0.31009 0.29487 0.99925 0.0
C1716 C 0.30743 0.25033 0.98246 0.0
C1717 C 0.23999 0.21075 0.99343 0.0
C1718 C 0.33232 0.24679 0.989 0.0
C1719 C 0.34733 0.23503 0.97842 0.0
C1720 C 0.33788 0.22689 0.96104 0.0
C1721 C 0.31305 0.23074 0.9545 0.0
C1722 C 0.29795 0.24234 0.96514 0.0
H1723 H 0.21806 0.19821 0.00135 0.0
H1724 H 0.23299 0.20946 0.97962 0.0
H1725 H 0.25363 0.1982 0.99475 0.0
H1726 H 0.34006 0.25305 0.00232 0.0
H1727 H 0.36648 0.23255 0.98384 0.0
H1728 H 0.79824 0.08871 0.94344 0.0
H1729 H 0.77475 0.03841 0.95925 0.0
H1730 H 0.70708 0.05941 0.98277 0.0
H1731 H 0.72983 0.10924 0.96688 0.0
H1732 H 0.76962 0.02901 0.99483 0.0
H1733 H 0.65102 0.97037 0.96394 0.0
H1734 H 0.68441 0.00537 0.95498 0.0
H1735 H 0.6621 0.00868 0.97263 0.0
C1736 C 0.77818 0.0825 0.95187 0.0
C1737 C 0.76588 0.10297 0.95386 0.0
C1738 C 0.76486 0.0538 0.9609 0.0
C1739 C 0.73895 0.04507 0.97199 0.0
C1740 C 0.72664 0.06542 0.974 0.0
H1741 H 0.67082 0.90902 0.05624 0.0
H1742 H 0.6971 0.957 0.03841 0.0
C1743 C 0.73982 0.094 0.96495 0.0
C1744 C 0.72535 0.01519 0.98195 0.0
H1745 H 0.65615 0.94679 0.98997 0.0
C1746 C 0.74488 0.01086 0.99369 0.0
C1747 C 0.69318 0.99148 0.98026 0.0
C1748 C 0.67152 0.994 0.96714 0.0
C1749 C 0.73285 0.98369 0.00413 0.0
C1750 C 0.70033 0.96066 0.003 0.0
C1751 C 0.68101 0.96469 0.99096 0.0
C1752 C 0.68577 0.93186 0.01394 0.0
C1753 C 0.75513 0.97974 0.01611 0.0
C1754 C 0.67022 0.90194 0.00607 0.0
C1755 C 0.65488 0.87462 0.01616 0.0
C1756 C 0.65482 0.87666 0.03437 0.0
C1757 C 0.67068 0.90667 0.04226 0.0
C1758 C 0.68585 0.93408 0.0321 0.0
H1759 H 0.78021 0.99459 0.01198 0.0
H1760 H 0.75293 0.9872 0.02939 0.0
H1761 H 0.7493 0.95462 0.01667 0.0
H1762 H 0.6698 0.89974 0.99207 0.0
H1763 H 0.64297 0.85188 0.00966 0.0
H1764 H 0.88324 0.60974 0.9745 0.0
H1765 H 0.93157 0.63821 0.99167 0.0
H1766 H 0.95264 0.72572 0.96661 0.0
H1767 H 0.90433 0.69745 0.94921 0.0
H1768 H 0.00468 0.71526 0.96906 0.0
H1769 H 0.94409 0.69854 0.03237 0.0
H1770 H 0.93125 0.66248 0.02044 0.0
H1771 H 0.92395 0.69253 0.01184 0.0
C1772 C 0.89812 0.63504 0.97258 0.0
C1773 C 0.88976 0.65137 0.96057 0.0
C1774 C 0.92562 0.65127 0.9825 0.0
C1775 C 0.94523 0.6841 0.98064 0.0
C1776 C 0.93756 0.70039 0.96833 0.0
H1777 H 0.10198 0.80366 0.05019 0.0
H1778 H 0.05286 0.78082 0.03326 0.0
C1779 C 0.90999 0.68418 0.95839 0.0
C1780 C 0.97405 0.70125 0.99138 0.0
H1781 H -0.00034 0.71737 0.03334 0.0
C1782 C 0.00362 0.71597 0.9831 0.0
C1783 C 0.97248 0.70248 0.00966 0.0
C1784 C 0.94124 0.68844 0.01913 0.0
C1785 C 0.03182 0.73094 0.99271 0.0
C1786 C 0.03025 0.73078 0.01103 0.0
C1787 C 0.00069 0.71711 0.01928 0.0
C1788 C 0.05912 0.74382 0.02182 0.0
C1789 C 0.06306 0.74674 0.98319 0.0
C1790 C 0.07828 0.72994 0.02131 0.0
C1791 C 0.1062 0.74279 0.03095 0.0
C1792 C 0.11547 0.76978 0.04133 0.0
C1793 C 0.09561 0.78298 0.04227 0.0
C1794 C 0.06759 0.77002 0.0326 0.0
H1795 H 0.06022 0.75194 0.96948 0.0
H1796 H 0.08033 0.76919 0.98966 0.0
H1797 H 0.07308 0.7307 0.98318 0.0
H1798 H 0.07173 0.70928 0.01332 0.0
H1799 H 0.12074 0.73181 0.03004 0.0
H1800 H 0.60924 0.71512 0.03282 0.0
H1801 H 0.63787 0.6934 0.01737 0.0
H1802 H 0.72607 0.77986 0.02666 0.0
H1803 H 0.69773 0.80134 0.04264 0.0
H1804 H 0.67172 0.71489 0.98834 0.0
H1805 H 0.74892 0.71462 0.04113 0.0
H1806 H 0.71599 0.72086 0.04515 0.0
H1807 H 0.75317 0.75291 0.03749 0.0
C1808 C 0.63479 0.72937 0.03174 0.0
C1809 C 0.65128 0.75989 0.03897 0.0
C1810 C 0.65109 0.71695 0.0229 0.0
C1811 C 0.68413 0.73487 0.02104 0.0
C1812 C 0.70068 0.76532 0.0283 0.0
H1813 H 0.78557 0.69105 0.94228 0.0
H1814 H 0.76133 0.71615 0.95896 0.0
C1815 C 0.68443 0.77761 0.03736 0.0
C1816 C 0.70093 0.72214 0.0108 0.0
H1817 H 0.76029 0.70445 0.01265 0.0
C1818 C 0.69103 0.71249 0.99367 0.0
C1819 C 0.72593 0.71883 0.01784 0.0
C1820 C 0.73644 0.72705 0.03646 0.0
C1821 C 0.70534 0.69947 0.98337 0.0
C1822 C 0.73091 0.69698 0.99024 0.0
C1823 C 0.74089 0.70672 0.00736 0.0
C1824 C 0.74657 0.68274 0.98025 0.0
C1825 C 0.69224 0.68763 0.96545 0.0
C1826 C 0.74722 0.65633 0.98697 0.0
C1827 C 0.76151 0.64236 0.97765 0.0
C1828 C 0.7753 0.65442 0.96138 0.0
C1829 C 0.7749 0.68107 0.95471 0.0
C1830 C 0.76091 0.69531 0.96418 0.0
H1831 H 0.66773 0.6834 0.96403 0.0
H1832 H 0.70734 0.7057 0.95572 0.0
H1833 H 0.69206 0.66527 0.96244 0.0
H1834 H 0.73631 0.64628 0.99936 0.0
H1835 H 0.7613 0.62176 0.98311 0.0
H1836 H 0.24106 0.92119 0.05714 0.0
H1837 H 0.26278 0.96819 0.0386 0.0
H1838 H 0.23928 0.90901 0.99315 0.0
H1839 H 0.2182 0.86201 0.01154 0.0
H1840 H 0.29894 0.95839 0.99172 0.0
H1841 H 0.21634 0.00095 0.00924 0.0
H1842 H 0.23561 0.9957 0.02774 0.0
H1843 H 0.20897 0.9619 0.01491 0.0
C1844 C 0.24027 0.91815 0.0432 0.0
C1845 C 0.22779 0.88784 0.03583 0.0
C1846 C 0.25253 0.94503 0.03261 0.0
C1847 C 0.25214 0.94204 0.01449 0.0
C1848 C 0.23966 0.91183 0.00711 0.0
H1849 H 0.29669 0.0982 0.94318 0.0
H1850 H 0.27019 0.04741 0.95851 0.0
C1851 C 0.22762 0.88499 0.01766 0.0
C1852 C 0.26608 0.97047 0.00321 0.0
H1853 H 0.26278 0.03708 0.9935 0.0
C1854 C 0.29088 0.97548 0.99201 0.0
C1855 C 0.25519 0.99246 0.0034 0.0
C1856 C 0.22735 0.98737 0.01433 0.0
C1857 C 0.30567 0.00234 0.98133 0.0
C1858 C 0.29585 0.02514 0.98218 0.0
C1859 C 0.27046 0.0197 0.993 0.0
C1860 C 0.31218 0.05522 0.97232 0.0
C1861 C 0.33149 0.00589 0.96915 0.0
C1862 C 0.34451 0.07644 0.97505 0.0
C1863 C 0.35975 0.10534 0.96626 0.0
C1864 C 0.34284 0.1138 0.95472 0.0
C1865 C 0.31042 0.09243 0.95197 0.0
C1866 C 0.29522 0.06342 0.96073 0.0
H1867 H 0.3294 0.98261 0.96618 0.0
H1868 H 0.33088 0.01725 0.95678 0.0
H1869 H 0.35488 0.02099 0.97537 0.0
H1870 H 0.35788 0.07091 0.98423 0.0
H1871 H 0.38469 0.12126 0.96877 0.0
H1872 H 0.85521 0.20633 0.98362 0.0
H1873 H 0.90153 0.22836 0.00253 0.0
H1874 H 0.96268 0.25416 0.95781 0.0
H1875 H 0.91629 0.23146 0.93869 0.0
H1876 H 0.98036 0.22738 0.98394 0.0
H1877 H 0.96104 0.32245 0.01005 0.0
H1878 H 0.92768 0.28336 0.01284 0.0
H1879 H 0.94006 0.29912 0.99134 0.0
C1880 C 0.87849 0.21668 0.97776 0.0
C1881 C 0.88207 0.21734 0.95962 0.0
C1882 C 0.90495 0.22938 0.98861 0.0
C1883 C 0.93553 0.24342 0.98156 0.0
C1884 C 0.93923 0.24355 0.96349 0.0
H1885 H 0.11102 0.37476 0.03044 0.0
H1886 H 0.06262 0.3472 0.01341 0.0
C1887 C 0.91273 0.23061 0.9526 0.0
C1888 C 0.96364 0.25817 0.99305 0.0
H1889 H 0.00118 0.31598 0.02351 0.0
C1890 C 0.98498 0.24677 0.99259 0.0
C1891 C 0.96971 0.28366 0.00418 0.0
C1892 C 0.9486 0.29811 0.00456 0.0
C1893 C 0.01227 0.26017 0.00302 0.0
C1894 C 0.01793 0.28519 0.01444 0.0
C1895 C 0.99657 0.29655 0.01488 0.0
C1896 C 0.04695 0.30143 0.0252 0.0
C1897 C 0.03523 0.24807 0.00132 0.0
C1898 C 0.05398 0.28491 0.03773 0.0
C1899 C 0.08189 0.30061 0.04748 0.0
C1900 C 0.10305 0.33315 0.04496 0.0
C1901 C 0.09539 0.34969 0.03272 0.0
C1902 C 0.06767 0.33398 0.02295 0.0
H1903 H 0.03133 0.23434 0.98917 0.0
H1904 H 0.0601 0.26794 0.00152 0.0
H1905 H 0.03195 0.23221 0.01242 0.0
H1906 H 0.03791 0.25991 0.03996 0.0
H1907 H 0.08696 0.28724 0.0569 0.0
H1908 H 0.9208 0.71163 0.3605 0.0
H1909 H 0.94131 0.68467 0.34252 0.0
H1910 H 0.88696 0.59898 0.37225 0.0
H1911 H 0.86779 0.62652 0.39091 0.0
H1912 H 0.94169 0.60592 0.36592 0.0
H1913 H 0.89678 0.62511 0.30403 0.0
H1914 H 0.92266 0.66228 0.31424 0.0
H1915 H 0.88604 0.63436 0.32469 0.0
C1916 C 0.91331 0.68705 0.3632 0.0
C1917 C 0.89257 0.67106 0.37699 0.0
C1918 C 0.92477 0.67156 0.35281 0.0
C1919 C 0.91487 0.63946 0.35564 0.0
C1920 C 0.8947 0.62365 0.36969 0.0
H1921 H 0.9543 0.53431 0.27671 0.0
H1922 H 0.92787 0.55468 0.29545 0.0
C1923 C 0.88382 0.63939 0.38037 0.0
C1924 C 0.92629 0.62272 0.34422 0.0
H1925 H 0.93694 0.61038 0.30177 0.0
C1926 C 0.9403 0.6066 0.35189 0.0
C1927 C 0.92376 0.62279 0.3259 0.0
C1928 C 0.90615 0.63675 0.31677 0.0
C1929 C 0.95287 0.59158 0.34179 0.0
C1930 C 0.95273 0.59397 0.32347 0.0
C1931 C 0.93764 0.60905 0.3158 0.0
C1932 C 0.96861 0.5816 0.31207 0.0
C1933 C 0.96568 0.57293 0.35094 0.0
C1934 C 0.00046 0.5905 0.3149 0.0
C1935 C 0.01528 0.57837 0.30448 0.0
C1936 C -0.00113 0.5579 0.29066 0.0
C1937 C 0.96745 0.55006 0.2873 0.0
C1938 C 0.95236 0.56164 0.29801 0.0
H1939 H 0.95386 0.5639 0.36367 0.0
H1940 H 0.96243 0.55249 0.34303 0.0
H1941 H 0.99135 0.58864 0.35348 0.0
H1942 H 0.01394 0.60687 0.32518 0.0
H1943 H 0.03972 0.58522 0.30715 0.0
H1944 H 0.46305 0.42745 0.28128 0.0
H1945 H 0.43989 0.37764 0.29753 0.0
H1946 H 0.37647 0.40198 0.32334 0.0
H1947 H 0.39886 0.45132 0.30698 0.0
H1948 H 0.43827 0.36902 0.33279 0.0
H1949 H 0.31632 0.31291 0.30632 0.0
H1950 H 0.34916 0.34719 0.29644 0.0
H1951 H 0.32944 0.35164 0.31505 0.0
C1952 C 0.44399 0.42208 0.2903 0.0
C1953 C 0.43276 0.44334 0.29279 0.0
C1954 C 0.43083 0.39364 0.29959 0.0
C1955 C 0.40619 0.38596 0.31145 0.0
C1956 C 0.39499 0.40713 0.31397 0.0
H1957 H 0.34625 0.25153 0.39663 0.0
H1958 H 0.37042 0.29913 0.37846 0.0
C1959 C 0.40797 0.43543 0.30465 0.0
C1960 C 0.39287 0.35634 0.32168 0.0
H1961 H 0.32356 0.28945 0.33182 0.0
C1962 C 0.41323 0.35147 0.3325 0.0
C1963 C 0.36028 0.33335 0.3211 0.0
C1964 C 0.33758 0.33632 0.30897 0.0
C1965 C 0.40173 0.32447 0.34306 0.0
C1966 C 0.36889 0.30219 0.34305 0.0
C1967 C 0.34867 0.30677 0.33196 0.0
C1968 C 0.35496 0.27357 0.35416 0.0
C1969 C 0.4249 0.31988 0.35391 0.0
C1970 C 0.33761 0.24352 0.34656 0.0
C1971 C 0.32343 0.2164 0.35688 0.0
C1972 C 0.32638 0.21876 0.37505 0.0
C1973 C 0.3438 0.24891 0.38267 0.0
C1974 C 0.35778 0.27611 0.3723 0.0
H1975 H 0.44945 0.33391 0.34881 0.0
H1976 H 0.42481 0.32794 0.36735 0.0
H1977 H 0.41829 0.29453 0.35438 0.0
H1978 H 0.33504 0.24105 0.33259 0.0
H1979 H 0.31023 0.19356 0.35058 0.0
H1980 H 0.57141 0.03162 0.28119 0.0
H1981 H 0.62033 0.05752 0.29826 0.0
H1982 H 0.58636 0.97329 0.32968 0.0
H1983 H 0.53678 0.94817 0.31332 0.0
H1984 H 0.61142 0.02202 0.34951 0.0
H1985 H 0.69475 0.04568 0.29526 0.0
H1986 H 0.67136 0.06418 0.29188 0.0
H1987 H 0.65245 0.02158 0.29265 0.0
C1988 C 0.57454 0.01869 0.29171 0.0
C1989 C 0.55047 0.98795 0.29596 0.0
C1990 C 0.60256 0.03338 0.30137 0.0
C1991 C 0.60736 0.01712 0.31504 0.0
C1992 C 0.58326 0.98632 0.3192 0.0
H1993 H 0.79043 0.07272 0.36006 0.0
H1994 H 0.74054 0.04769 0.34396 0.0
C1995 C 0.55497 0.97198 0.30985 0.0
C1996 C 0.63702 0.0323 0.32537 0.0
H1997 H 0.71759 0.07056 0.32217 0.0
C1998 C 0.63464 0.03244 0.34353 0.0
C1999 C 0.66732 0.04552 0.3176 0.0
C2000 C 0.67165 0.04395 0.2983 0.0
C2001 C 0.66163 0.0453 0.35413 0.0
C2002 C 0.69198 0.05979 0.34633 0.0
C2003 C 0.69435 0.05973 0.32817 0.0
C2004 C 0.72163 0.07433 0.35667 0.0
C2005 C 0.65714 0.04218 0.37356 0.0
C2006 C 0.72765 0.09763 0.36919 0.0
C2007 C 0.7558 0.11131 0.37874 0.0
C2008 C 0.77883 0.1027 0.37547 0.0
C2009 C 0.77305 0.07983 0.36276 0.0
C2010 C 0.7446 0.06558 0.35356 0.0
H2011 H 0.63348 0.02203 0.37709 0.0
H2012 H 0.67555 0.03859 0.37993 0.0
H2013 H 0.65867 0.06408 0.37882 0.0
H2014 H 0.71081 0.10557 0.37145 0.0
H2015 H 0.75994 0.12924 0.38832 0.0
H2016 H 0.37273 0.13681 0.38608 0.0
H2017 H 0.39969 0.11554 0.36853 0.0
H2018 H 0.3099 0.04491 0.34735 0.0
H2019 H 0.28274 0.06595 0.36466 0.0
H2020 H 0.39 0.05301 0.36805 0.0
H2021 H 0.36494 0.08827 0.30415 0.0
H2022 H 0.36117 0.10482 0.32437 0.0
H2023 H 0.33041 0.06637 0.31746 0.0
C2024 C 0.35871 0.11674 0.37769 0.0
C2025 C 0.32561 0.10326 0.37666 0.0
C2026 C 0.37416 0.10468 0.36768 0.0
C2027 C 0.35679 0.07911 0.35643 0.0
C2028 C 0.32374 0.06512 0.35569 0.0
H2029 H 0.39839 0.94529 0.30954 0.0
H2030 H 0.37882 0.97415 0.32652 0.0
C2031 C 0.30828 0.07709 0.36568 0.0
C2032 C 0.37298 0.06649 0.34567 0.0
H2033 H 0.38356 0.05132 0.30374 0.0
C2034 C 0.3889 0.05289 0.35399 0.0
C2035 C 0.37182 0.06683 0.32734 0.0
C2036 C 0.35643 0.08262 0.31776 0.0
C2037 C 0.40264 0.03841 0.34442 0.0
C2038 C 0.39998 0.03724 0.32613 0.0
C2039 C 0.3852 0.05198 0.31779 0.0
C2040 C 0.4115 0.01992 0.31549 0.0
C2041 C 0.41979 0.02438 0.35396 0.0
C2042 C 0.43563 0.03602 0.30325 0.0
C2043 C 0.44683 0.01959 0.29343 0.0
C2044 C 0.43391 0.98674 0.29564 0.0
C2045 C 0.40908 0.97061 0.30759 0.0
C2046 C 0.39796 0.98707 0.3174 0.0
H2047 H 0.42704 0.03454 0.36719 0.0
H2048 H 0.40377 0.99843 0.3553 0.0
H2049 H 0.44118 0.02841 0.34671 0.0
H2050 H 0.44612 0.06137 0.30151 0.0
H2051 H 0.46588 0.0327 0.28429 0.0
H2052 H 0.96452 0.41959 0.27316 0.0
H2053 H 0.94009 0.37027 0.28996 0.0
H2054 H 0.01462 0.41394 0.32811 0.0
H2055 H 0.03978 0.46253 0.31104 0.0
H2056 H 0.00431 0.35766 0.32108 0.0
H2057 H 0.88833 0.34933 0.33311 0.0
H2058 H 0.89694 0.35032 0.31043 0.0
H2059 H 0.92142 0.38414 0.32385 0.0
C2060 C 0.97556 0.41861 0.28517 0.0
C2061 C 0.004 0.44489 0.2908 0.0
C2062 C 0.96147 0.39053 0.29483 0.0
C2063 C 0.97516 0.38857 0.3105 0.0
C2064 C 0.00356 0.41486 0.3161 0.0
H2065 H 0.88221 0.24307 0.38931 0.0
H2066 H 0.90528 0.29176 0.37203 0.0
C2067 C 0.01793 0.44264 0.30631 0.0
C2068 C 0.96075 0.35893 0.32087 0.0
H2069 H 0.89253 0.30427 0.34083 0.0
C2070 C 0.97989 0.34608 0.32546 0.0
C2071 C 0.92904 0.34408 0.32683 0.0
C2072 C 0.90784 0.35785 0.32346 0.0
C2073 C 0.96828 0.31883 0.33578 0.0
C2074 C 0.93617 0.30317 0.34109 0.0
C2075 C 0.91704 0.31609 0.33659 0.0
C2076 C 0.92208 0.27359 0.35149 0.0
C2077 C 0.99089 0.30775 0.34128 0.0
C2078 C 0.92348 0.24708 0.34559 0.0
C2079 C 0.91091 0.21954 0.35559 0.0
C2080 C 0.89589 0.21766 0.37146 0.0
C2081 C 0.89365 0.24386 0.37713 0.0
C2082 C 0.90679 0.27165 0.36726 0.0
H2083 H 0.01588 0.32744 0.34099 0.0
H2084 H 0.9855 0.2976 0.35457 0.0
H2085 H 0.98887 0.28924 0.33215 0.0
H2086 H 0.93422 0.24762 0.33321 0.0
H2087 H 0.91256 0.19955 0.35075 0.0
H2088 H 0.78736 0.71403 0.36081 0.0
H2089 H 0.7377 0.68744 0.34466 0.0
H2090 H 0.7101 0.60103 0.37288 0.0
H2091 H 0.76013 0.62728 0.38894 0.0
H2092 H 0.6999 0.59139 0.33768 0.0
H2093 H 0.65023 0.66412 0.36258 0.0
H2094 H 0.68893 0.68742 0.35327 0.0
H2095 H 0.68392 0.66432 0.37246 0.0
C2096 C 0.77074 0.68939 0.36365 0.0
C2097 C 0.77772 0.6728 0.37622 0.0
C2098 C 0.74227 0.67429 0.35447 0.0
C2099 C 0.72002 0.64245 0.35779 0.0
C2100 C 0.72693 0.6257 0.3702 0.0
H2101 H 0.52587 0.55032 0.32057 0.0
H2102 H 0.57368 0.57217 0.33834 0.0
C2103 C 0.75551 0.64075 0.37937 0.0
C2104 C 0.68988 0.6265 0.34799 0.0
H2105 H 0.62433 0.63155 0.33804 0.0
C2106 C 0.68323 0.6 0.33784 0.0
C2107 C 0.66801 0.63754 0.34843 0.0
C2108 C 0.67292 0.66471 0.35991 0.0
C2109 C 0.65562 0.58467 0.32773 0.0
C2110 C 0.63449 0.59664 0.32755 0.0
C2111 C 0.64077 0.62266 0.33804 0.0
C2112 C 0.60557 0.58245 0.31666 0.0
C2113 C 0.64916 0.55562 0.31754 0.0
C2114 C 0.60768 0.58121 0.29855 0.0
C2115 C 0.58035 0.56854 0.28833 0.0
C2116 C 0.55045 0.55724 0.29604 0.0
C2117 C 0.5485 0.55878 0.31419 0.0
C2118 C 0.5758 0.57126 0.32439 0.0
H2119 H 0.66243 0.54445 0.32287 0.0
H2120 H 0.62349 0.53776 0.31751 0.0
H2121 H 0.65686 0.56253 0.30391 0.0
H2122 H 0.63051 0.59044 0.29229 0.0
H2123 H 0.5827 0.56798 0.27438 0.0
H2124 H 0.71171 0.93908 0.63123 0.0
H2125 H 0.68357 0.95886 0.64874 0.0
H2126 H 0.59497 0.87393 0.63779 0.0
H2127 H 0.62285 0.8543 0.6198 0.0
H2128 H 0.58921 0.92575 0.6354 0.0
H2129 H 0.64955 0.92958 0.69694 0.0
H2130 H 0.67718 0.95236 0.6802 0.0
H2131 H 0.65269 0.91009 0.67778 0.0
C2132 C 0.68623 0.92457 0.63255 0.0
C2133 C 0.66953 0.89499 0.62426 0.0
C2134 C 0.67022 0.93583 0.64266 0.0
C2135 C 0.6373 0.9175 0.64493 0.0
C2136 C 0.62043 0.88831 0.63632 0.0
H2137 H 0.54214 0.96485 0.72561 0.0
H2138 H 0.56245 0.93748 0.70772 0.0
C2139 C 0.63639 0.87716 0.62604 0.0
C2140 C 0.62049 0.92909 0.65608 0.0
H2141 H 0.62086 0.95757 0.69656 0.0
C2142 C 0.59591 0.93244 0.64882 0.0
C2143 C 0.62879 0.93715 0.6737 0.0
C2144 C 0.65325 0.93179 0.68267 0.0
C2145 C 0.58017 0.94472 0.65853 0.0
C2146 C 0.5899 0.95472 0.67581 0.0
C2147 C 0.6137 0.9503 0.68324 0.0
C2148 C 0.57632 0.97052 0.68629 0.0
C2149 C 0.5531 0.94657 0.65021 0.0
C2150 C 0.57766 0.99833 0.68026 0.0
C2151 C 0.56579 0.0138 0.69035 0.0
C2152 C 0.55286 0.00209 0.70683 0.0
C2153 C 0.55192 0.97445 0.71296 0.0
C2154 C 0.56349 0.95878 0.70276 0.0
H2155 H 0.54205 0.92888 0.63962 0.0
H2156 H 0.53454 0.94257 0.65985 0.0
H2157 H 0.56224 0.97043 0.64442 0.0
H2158 H 0.58835 0.00838 0.66784 0.0
H2159 H 0.56726 0.03527 0.68534 0.0
H2160 H 0.068 0.78564 0.64033 0.0
H2161 H 0.04814 0.73751 0.65767 0.0
H2162 H 0.11693 0.71805 0.63426 0.0
H2163 H 0.13695 0.76614 0.61668 0.0
H2164 H 0.05505 0.66575 0.63524 0.0
H2165 H 0.09231 0.72367 0.6996 0.0
H2166 H 0.06991 0.73679 0.68711 0.0
H2167 H 0.10808 0.7448 0.67948 0.0
C2168 C 0.07901 0.77122 0.63885 0.0
C2169 C 0.10422 0.77987 0.62718 0.0
C2170 C 0.06776 0.74384 0.64888 0.0
C2171 C 0.08153 0.72465 0.64747 0.0
C2172 C 0.10625 0.7328 0.63563 0.0
H2173 H 0.0332 0.56438 0.71711 0.0
H2174 H 0.06307 0.61378 0.70068 0.0
C2175 C 0.1176 0.76025 0.6256 0.0
C2176 C 0.06917 0.69545 0.65795 0.0
H2177 H 0.05468 0.66809 0.69962 0.0
C2178 C 0.05526 0.66623 0.64931 0.0
C2179 C 0.06995 0.69625 0.67629 0.0
C2180 C 0.08615 0.72706 0.68619 0.0
C2181 C 0.04079 0.63764 0.65857 0.0
C2182 C 0.03994 0.63845 0.6769 0.0
C2183 C 0.05511 0.66764 0.68556 0.0
C2184 C 0.02204 0.6092 0.68721 0.0
C2185 C 0.02626 0.60681 0.64868 0.0
C2186 C 0.98908 0.59088 0.68534 0.0
C2187 C 0.97198 0.56283 0.69469 0.0
C2188 C 0.98754 0.55258 0.70613 0.0
C2189 C 0.02053 0.57152 0.70834 0.0
C2190 C 0.03763 0.59969 0.69898 0.0
H2191 H 0.03625 0.61011 0.63539 0.0
H2192 H 0.03005 0.58897 0.65559 0.0
H2193 H 0.00035 0.59726 0.64748 0.0
H2194 H 0.97659 0.59824 0.67658 0.0
H2195 H 0.94659 0.54902 0.69276 0.0
H2196 H 0.21062 0.28138 0.63834 0.0
H2197 H 0.2586 0.30799 0.65592 0.0
H2198 H 0.28118 0.39772 0.63318 0.0
H2199 H 0.23321 0.3713 0.61535 0.0
H2200 H 0.33262 0.38592 0.63466 0.0
H2201 H 0.27167 0.36544 0.69815 0.0
H2202 H 0.2585 0.33029 0.68532 0.0
H2203 H 0.2518 0.36133 0.67772 0.0
C2204 C 0.2257 0.30679 0.63705 0.0
C2205 C 0.21792 0.32426 0.62552 0.0
C2206 C 0.25303 0.32195 0.64719 0.0
C2207 C 0.27303 0.35484 0.64605 0.0
C2208 C 0.26581 0.37232 0.63432 0.0
H2209 H 0.42714 0.46991 0.71727 0.0
H2210 H 0.37878 0.44723 0.69977 0.0
C2211 C 0.23841 0.35718 0.62416 0.0
C2212 C 0.30182 0.3708 0.65692 0.0
H2213 H 0.32711 0.38409 0.69898 0.0
C2214 C 0.33147 0.38573 0.64871 0.0
C2215 C 0.30012 0.37078 0.67523 0.0
C2216 C 0.26883 0.35637 0.68466 0.0
C2217 C 0.35961 0.39992 0.6584 0.0
C2218 C 0.35791 0.39873 0.67672 0.0
C2219 C 0.32826 0.38462 0.68492 0.0
C2220 C 0.3867 0.41182 0.6876 0.0
C2221 C 0.39092 0.41619 0.64895 0.0
C2222 C 0.40668 0.39888 0.68679 0.0
C2223 C 0.43427 0.4117 0.69676 0.0
C2224 C 0.44232 0.43768 0.70776 0.0
C2225 C 0.42174 0.45003 0.70886 0.0
C2226 C 0.39411 0.43713 0.69889 0.0
H2227 H 0.38818 0.42196 0.63534 0.0
H2228 H 0.40809 0.43839 0.65568 0.0
H2229 H 0.40103 0.40024 0.64866 0.0
H2230 H 0.40096 0.3789 0.6784 0.0
H2231 H 0.44943 0.40143 0.69569 0.0
H2232 H 0.00324 0.42252 0.72517 0.0
H2233 H 0.02907 0.39984 0.70787 0.0
H2234 H 0.99758 0.42377 0.66089 0.0
H2235 H 0.9711 0.44581 0.67802 0.0
H2236 H 0.98728 0.36354 0.66033 0.0
H2237 H 0.11088 0.44717 0.68063 0.0
H2238 H 0.08461 0.42763 0.69849 0.0
H2239 H 0.07859 0.45428 0.68498 0.0
C2240 C 0.00195 0.42311 0.71115 0.0
C2241 C 0.98526 0.43613 0.70297 0.0
C2242 C 0.01687 0.41031 0.70129 0.0
C2243 C 0.01573 0.41068 0.6831 0.0
C2244 C -0.00111 0.42342 0.67492 0.0
H2245 H 0.09393 0.3475 0.60098 0.0
H2246 H 0.06897 0.37209 0.61752 0.0
C2247 C 0.98379 0.43601 0.68474 0.0
C2248 C 0.03125 0.39695 0.67256 0.0
H2249 H 0.10248 0.40189 0.66454 0.0
C2250 C 0.0125 0.37207 0.66115 0.0
C2251 C 0.06419 0.40823 0.67364 0.0
C2252 C 0.08582 0.436 0.68497 0.0
C2253 C 0.02571 0.35769 0.65104 0.0
C2254 C 0.05848 0.36865 0.65235 0.0
C2255 C 0.0773 0.3936 0.66366 0.0
C2256 C 0.07357 0.354 0.64232 0.0
C2257 C 0.00452 0.33046 0.6393 0.0
C2258 C 0.08463 0.33608 0.6509 0.0
C2259 C 0.09877 0.32196 0.64154 0.0
C2260 C 0.10241 0.32582 0.62344 0.0
C2261 C 0.09153 0.34411 0.61491 0.0
C2262 C 0.07718 0.35806 0.6243 0.0
H2263 H 0.979 0.32155 0.64186 0.0
H2264 H 0.00954 0.33839 0.62558 0.0
H2265 H 0.00933 0.31061 0.64093 0.0
H2266 H 0.08207 0.33281 0.66483 0.0
H2267 H 0.10695 0.3081 0.64853 0.0
H2268 H 0.54854 0.53094 0.681 0.0
H2269 H 0.57247 0.57868 0.66314 0.0
H2270 H 0.59239 0.63628 0.709 0.0
H2271 H 0.56779 0.5885 0.72702 0.0
H2272 H 0.56738 0.65482 0.68275 0.0
H2273 H 0.66632 0.64057 0.65785 0.0
H2274 H 0.62798 0.60679 0.65385 0.0
H2275 H 0.64177 0.61766 0.6758 0.0
C2276 C 0.55804 0.55375 0.68733 0.0
C2277 C 0.55636 0.55593 0.70546 0.0
C2278 C 0.57189 0.58102 0.67709 0.0
C2279 C 0.58478 0.61103 0.68478 0.0
C2280 C 0.58274 0.61332 0.70283 0.0
H2281 H 0.68848 0.80421 0.64845 0.0
H2282 H 0.66262 0.75532 0.66538 0.0
C2283 C 0.56866 0.58601 0.7131 0.0
C2284 C 0.59989 0.64 0.67394 0.0
H2285 H 0.65922 0.68068 0.64461 0.0
C2286 C 0.58754 0.66055 0.67447 0.0
C2287 C 0.62621 0.6474 0.66316 0.0
C2288 C 0.64157 0.62712 0.66272 0.0
C2289 C 0.6006 0.68814 0.66433 0.0
C2290 C 0.62671 0.69535 0.65349 0.0
C2291 C 0.63902 0.67483 0.65288 0.0
C2292 C 0.64224 0.72472 0.64312 0.0
C2293 C 0.5863 0.70932 0.66513 0.0
C2294 C 0.63963 0.7235 0.62499 0.0
C2295 C 0.65428 0.75143 0.61523 0.0
C2296 C 0.67206 0.78096 0.62348 0.0
C2297 C 0.67495 0.78191 0.64167 0.0
C2298 C 0.66011 0.75404 0.65139 0.0
H2299 H 0.5628 0.69755 0.67163 0.0
H2300 H 0.60236 0.73109 0.67251 0.0
H2301 H 0.5836 0.71662 0.65187 0.0
H2302 H 0.62604 0.70096 0.61842 0.0
H2303 H 0.65176 0.74987 0.60124 0.0
H2304 H 0.19514 0.89098 0.6514 0.0
H2305 H 0.24376 0.91639 0.66845 0.0
H2306 H 0.29897 0.93279 0.62192 0.0
H2307 H 0.25021 0.90671 0.60468 0.0
H2308 H 0.31888 0.90975 0.64862 0.0
H2309 H 0.30622 0.01068 0.67133 0.0
H2310 H 0.27224 0.97294 0.67619 0.0
H2311 H 0.28255 0.98488 0.65394 0.0
C2312 C 0.21759 0.90004 0.64473 0.0
C2313 C 0.21878 0.89692 0.62664 0.0
C2314 C 0.24538 0.91473 0.65452 0.0
C2315 C 0.27497 0.92702 0.64641 0.0
C2316 C 0.27633 0.92363 0.6284 0.0
H2317 H 0.45494 0.05569 0.69472 0.0
H2318 H 0.4071 0.03086 0.67698 0.0
C2319 C 0.24847 0.90873 0.61858 0.0
C2320 C 0.30441 0.94281 0.65685 0.0
H2321 H 0.34521 0.00295 0.68566 0.0
C2322 C 0.32477 0.93024 0.65665 0.0
C2323 C 0.31222 0.96979 0.66713 0.0
C2324 C 0.29233 0.98558 0.66706 0.0
C2325 C 0.35246 0.94356 0.66673 0.0
C2326 C 0.35953 0.96968 0.67759 0.0
C2327 C 0.33949 0.98263 0.67752 0.0
C2328 C 0.3881 0.98456 0.68876 0.0
C2329 C 0.37415 0.92987 0.6654 0.0
C2330 C 0.39298 0.96692 0.70155 0.0
C2331 C 0.42047 0.981 0.71168 0.0
C2332 C 0.44339 0.01308 0.70932 0.0
C2333 C 0.43786 0.0309 0.69687 0.0
C2334 C 0.41051 0.01676 0.68669 0.0
H2335 H 0.37003 0.91612 0.65323 0.0
H2336 H 0.39942 0.94883 0.66586 0.0
H2337 H 0.36956 0.91358 0.67647 0.0
H2338 H 0.37557 0.94224 0.70367 0.0
H2339 H 0.42384 0.96668 0.72126 0.0
loop_
_geom_bond_atom_site_label_1
_geom_bond_atom_site_label_2
_geom_bond_distance
_geom_bond_site_symmetry_2
_ccdc_geom_bond_type
Fe0 O2 1.918 . S
Fe0 O5 1.997 . S
Fe0 O6 2.002 . S
Fe0 O11 1.976 . S
Fe0 O14 1.996 . S
Fe1 O2 1.918 . S
Fe1 O9 1.997 . S
Fe1 O12 1.996 . S
Fe1 O16 1.976 . S
Fe1 O19 2.002 . S
O2 Fe0 1.918 . S
O2 Fe1 1.918 . S
O2 Fe3 1.918 . S
Fe3 O2 1.918 . S
Fe3 O4 2.002 . S
Fe3 O13 1.976 . S
Fe3 O17 1.996 . S
Fe3 O20 1.997 . S
O4 Fe3 2.002 . S
O4 C21 1.295 . S
O5 Fe0 1.997 . S
O5 C21 1.235 . S
O6 Fe0 2.002 . S
O6 C7 1.295 . S
C7 O6 1.295 . S
C7 O9 1.235 . S
C8 O13 1.287 . S
C8 O14 1.255 . S
O9 Fe1 1.997 . S
O9 C7 1.235 . S
C10 O16 1.287 . S
C10 O17 1.255 . S
O11 Fe0 1.976 . S
O11 C18 1.287 . S
O12 Fe1 1.996 . S
O12 C18 1.255 . S
O13 Fe3 1.976 . S
O13 C8 1.287 . S
O14 Fe0 1.996 . S
O14 C8 1.255 . S
C15 O19 1.295 . S
C15 O20 1.235 . S
O16 Fe1 1.976 . S
O16 C10 1.287 . S
O17 Fe3 1.996 . S
O17 C10 1.255 . S
C18 O11 1.287 . S
C18 O12 1.255 . S
O19 Fe1 2.002 . S
O19 C15 1.295 . S
O20 Fe3 1.997 . S
O20 C15 1.235 . S
C21 O4 1.295 . S
C21 O5 1.235 . S
Fe22 O24 1.918 . S
Fe22 O27 1.997 . S
Fe22 O28 2.002 . S
Fe22 O33 1.976 . S
Fe22 O36 1.996 . S
Fe23 O24 1.918 . S
Fe23 O31 1.997 . S
Fe23 O34 1.996 . S
Fe23 O38 1.976 . S
Fe23 O41 2.002 . S
O24 Fe22 1.918 . S
O24 Fe23 1.918 . S
O24 Fe25 1.918 . S
Fe25 O24 1.918 . S
Fe25 O26 2.002 . S
Fe25 O35 1.976 . S
Fe25 O39 1.996 . S
Fe25 O42 1.997 . S
O26 Fe25 2.002 . S
O26 C43 1.295 . S
O27 Fe22 1.997 . S
O27 C43 1.235 . S
O28 Fe22 2.002 . S
O28 C29 1.295 . S
C29 O28 1.295 . S
C29 O31 1.235 . S
C30 O35 1.287 . S
C30 O36 1.255 . S
O31 Fe23 1.997 . S
O31 C29 1.235 . S
C32 O38 1.287 . S
C32 O39 1.255 . S
O33 Fe22 1.976 . S
O33 C40 1.287 . S
O34 Fe23 1.996 . S
O34 C40 1.255 . S
O35 Fe25 1.976 . S
O35 C30 1.287 . S
O36 Fe22 1.996 . S
O36 C30 1.255 . S
C37 O41 1.295 . S
C37 O42 1.235 . S
O38 Fe23 1.976 . S
O38 C32 1.287 . S
O39 Fe25 1.996 . S
O39 C32 1.255 . S
C40 O33 1.287 . S
C40 O34 1.255 . S
O41 Fe23 2.002 . S
O41 C37 1.295 . S
O42 Fe25 1.997 . S
O42 C37 1.235 . S
C43 O26 1.295 . S
C43 O27 1.235 . S
Fe44 O46 1.918 . S
Fe44 O49 1.997 . S
Fe44 O50 2.002 . S
Fe44 O55 1.976 . S
Fe44 O58 1.996 . S
Fe45 O46 1.918 . S
Fe45 O53 1.997 . S
Fe45 O56 1.996 . S
Fe45 O60 1.976 . S
Fe45 O63 2.002 . S
O46 Fe44 1.918 . S
O46 Fe45 1.918 . S
O46 Fe47 1.918 . S
Fe47 O46 1.918 . S
Fe47 O48 2.002 . S
Fe47 O57 1.976 . S
Fe47 O61 1.996 . S
Fe47 O64 1.997 . S
O48 Fe47 2.002 . S
O48 C65 1.295 . S
O49 Fe44 1.997 . S
O49 C65 1.235 . S
O50 Fe44 2.002 . S
O50 C51 1.295 . S
C51 O50 1.295 . S
C51 O53 1.235 . S
C52 O57 1.287 . S
C52 O58 1.255 . S
O53 Fe45 1.997 . S
O53 C51 1.235 . S
C54 O60 1.287 . S
C54 O61 1.255 . S
O55 Fe44 1.976 . S
O55 C62 1.287 . S
O56 Fe45 1.996 . S
O56 C62 1.255 . S
O57 Fe47 1.976 . S
O57 C52 1.287 . S
O58 Fe44 1.996 . S
O58 C52 1.255 . S
C59 O63 1.295 . S
C59 O64 1.235 . S
O60 Fe45 1.976 . S
O60 C54 1.287 . S
O61 Fe47 1.996 . S
O61 C54 1.255 . S
C62 O55 1.287 . S
C62 O56 1.255 . S
O63 Fe45 2.002 . S
O63 C59 1.295 . S
O64 Fe47 1.997 . S
O64 C59 1.235 . S
C65 O48 1.295 . S
C65 O49 1.235 . S
Fe66 O68 1.918 . S
Fe66 O71 1.997 . S
Fe66 O72 2.002 . S
Fe66 O77 1.976 . S
Fe66 O80 1.996 . S
Fe67 O68 1.918 . S
Fe67 O75 1.997 . S
Fe67 O78 1.996 . S
Fe67 O82 1.976 . S
Fe67 O85 2.002 . S
O68 Fe66 1.918 . S
O68 Fe67 1.918 . S
O68 Fe69 1.918 . S
Fe69 O68 1.918 . S
Fe69 O70 2.002 . S
Fe69 O79 1.976 . S
Fe69 O83 1.996 . S
Fe69 O86 1.997 . S
O70 Fe69 2.002 . S
O70 C87 1.295 . S
O71 Fe66 1.997 . S
O71 C87 1.235 . S
O72 Fe66 2.002 . S
O72 C73 1.295 . S
C73 O72 1.295 . S
C73 O75 1.235 . S
C74 O79 1.287 . S
C74 O80 1.255 . S
O75 Fe67 1.997 . S
O75 C73 1.235 . S
C76 O82 1.287 . S
C76 O83 1.255 . S
O77 Fe66 1.976 . S
O77 C84 1.287 . S
O78 Fe67 1.996 . S
O78 C84 1.255 . S
O79 Fe69 1.976 . S
O79 C74 1.287 . S
O80 Fe66 1.996 . S
O80 C74 1.255 . S
C81 O85 1.295 . S
C81 O86 1.235 . S
O82 Fe67 1.976 . S
O82 C76 1.287 . S
O83 Fe69 1.996 . S
O83 C76 1.255 . S
C84 O77 1.287 . S
C84 O78 1.255 . S
O85 Fe67 2.002 . S
O85 C81 1.295 . S
O86 Fe69 1.997 . S
O86 C81 1.235 . S
C87 O70 1.295 . S
C87 O71 1.235 . S
Fe88 O90 1.918 . S
Fe88 O93 1.997 . S
Fe88 O94 2.002 . S
Fe88 O99 1.976 . S
Fe88 O102 1.996 . S
Fe89 O90 1.918 . S
Fe89 O97 1.997 . S
Fe89 O100 1.996 . S
Fe89 O104 1.976 . S
Fe89 O107 2.002 . S
O90 Fe88 1.918 . S
O90 Fe89 1.918 . S
O90 Fe91 1.918 . S
Fe91 O90 1.918 . S
Fe91 O92 2.002 . S
Fe91 O101 1.976 . S
Fe91 O105 1.996 . S
Fe91 O108 1.997 . S
O92 Fe91 2.002 . S
O92 C109 1.295 . S
O93 Fe88 1.997 . S
O93 C109 1.235 . S
O94 Fe88 2.002 . S
O94 C95 1.295 . S
C95 O94 1.295 . S
C95 O97 1.235 . S
C96 O101 1.287 . S
C96 O102 1.255 . S
O97 Fe89 1.997 . S
O97 C95 1.235 . S
C98 O104 1.287 . S
C98 O105 1.255 . S
O99 Fe88 1.976 . S
O99 C106 1.287 . S
O100 Fe89 1.996 . S
O100 C106 1.255 . S
O101 Fe91 1.976 . S
O101 C96 1.287 . S
O102 Fe88 1.996 . S
O102 C96 1.255 . S
C103 O107 1.295 . S
C103 O108 1.235 . S
O104 Fe89 1.976 . S
O104 C98 1.287 . S
O105 Fe91 1.996 . S
O105 C98 1.255 . S
C106 O99 1.287 . S
C106 O100 1.255 . S
O107 Fe89 2.002 . S
O107 C103 1.295 . S
O108 Fe91 1.997 . S
O108 C103 1.235 . S
C109 O92 1.295 . S
C109 O93 1.235 . S
Fe110 O112 1.918 . S
Fe110 O115 1.997 . S
Fe110 O116 2.002 . S
Fe110 O121 1.976 . S
Fe110 O124 1.996 . S
Fe111 O112 1.918 . S
Fe111 O119 1.997 . S
Fe111 O122 1.996 . S
Fe111 O126 1.976 . S
Fe111 O129 2.002 . S
O112 Fe110 1.918 . S
O112 Fe111 1.918 . S
O112 Fe113 1.918 . S
Fe113 O112 1.918 . S
Fe113 O114 2.002 . S
Fe113 O123 1.976 . S
Fe113 O127 1.996 . S
Fe113 O130 1.997 . S
O114 Fe113 2.002 . S
O114 C131 1.295 . S
O115 Fe110 1.997 . S
O115 C131 1.235 . S
O116 Fe110 2.002 . S
O116 C117 1.295 . S
C117 O116 1.295 . S
C117 O119 1.235 . S
C118 O123 1.287 . S
C118 O124 1.255 . S
O119 Fe111 1.997 . S
O119 C117 1.235 . S
C120 O126 1.287 . S
C120 O127 1.255 . S
O121 Fe110 1.976 . S
O121 C128 1.287 . S
O122 Fe111 1.996 . S
O122 C128 1.255 . S
O123 Fe113 1.976 . S
O123 C118 1.287 . S
O124 Fe110 1.996 . S
O124 C118 1.255 . S
C125 O129 1.295 . S
C125 O130 1.235 . S
O126 Fe111 1.976 . S
O126 C120 1.287 . S
O127 Fe113 1.996 . S
O127 C120 1.255 . S
C128 O121 1.287 . S
C128 O122 1.255 . S
O129 Fe111 2.002 . S
O129 C125 1.295 . S
O130 Fe113 1.997 . S
O130 C125 1.235 . S
C131 O114 1.295 . S
C131 O115 1.235 . S
Fe132 O134 1.918 . S
Fe132 O137 1.997 . S
Fe132 O138 2.002 . S
Fe132 O143 1.976 . S
Fe132 O146 1.996 . S
Fe133 O134 1.918 . S
Fe133 O141 1.997 . S
Fe133 O144 1.996 . S
Fe133 O148 1.976 . S
Fe133 O151 2.002 . S
O134 Fe132 1.918 . S
O134 Fe133 1.918 . S
O134 Fe135 1.918 . S
Fe135 O134 1.918 . S
Fe135 O136 2.002 . S
Fe135 O145 1.976 . S
Fe135 O149 1.996 . S
Fe135 O152 1.997 . S
O136 Fe135 2.002 . S
O136 C153 1.295 . S
O137 Fe132 1.997 . S
O137 C153 1.235 . S
O138 Fe132 2.002 . S
O138 C139 1.295 . S
C139 O138 1.295 . S
C139 O141 1.235 . S
C140 O145 1.287 . S
C140 O146 1.255 . S
O141 Fe133 1.997 . S
O141 C139 1.235 . S
C142 O148 1.287 . S
C142 O149 1.255 . S
O143 Fe132 1.976 . S
O143 C150 1.287 . S
O144 Fe133 1.996 . S
O144 C150 1.255 . S
O145 Fe135 1.976 . S
O145 C140 1.287 . S
O146 Fe132 1.996 . S
O146 C140 1.255 . S
C147 O151 1.295 . S
C147 O152 1.235 . S
O148 Fe133 1.976 . S
O148 C142 1.287 . S
O149 Fe135 1.996 . S
O149 C142 1.255 . S
C150 O143 1.287 . S
C150 O144 1.255 . S
O151 Fe133 2.002 . S
O151 C147 1.295 . S
O152 Fe135 1.997 . S
O152 C147 1.235 . S
C153 O136 1.295 . S
C153 O137 1.235 . S
Fe154 O156 1.918 . S
Fe154 O159 1.997 . S
Fe154 O160 2.002 . S
Fe154 O165 1.976 . S
Fe154 O168 1.996 . S
Fe155 O156 1.918 . S
Fe155 O163 1.997 . S
Fe155 O166 1.996 . S
Fe155 O170 1.976 . S
Fe155 O173 2.002 . S
O156 Fe154 1.918 . S
O156 Fe155 1.918 . S
O156 Fe157 1.918 . S
Fe157 O156 1.918 . S
Fe157 O158 2.002 . S
Fe157 O167 1.976 . S
Fe157 O171 1.996 . S
Fe157 O174 1.997 . S
O158 Fe157 2.002 . S
O158 C175 1.295 . S
O159 Fe154 1.997 . S
O159 C175 1.235 . S
O160 Fe154 2.002 . S
O160 C161 1.295 . S
C161 O160 1.295 . S
C161 O163 1.235 . S
C162 O167 1.287 . S
C162 O168 1.255 . S
O163 Fe155 1.997 . S
O163 C161 1.235 . S
C164 O170 1.287 . S
C164 O171 1.255 . S
O165 Fe154 1.976 . S
O165 C172 1.287 . S
O166 Fe155 1.996 . S
O166 C172 1.255 . S
O167 Fe157 1.976 . S
O167 C162 1.287 . S
O168 Fe154 1.996 . S
O168 C162 1.255 . S
C169 O173 1.295 . S
C169 O174 1.235 . S
O170 Fe155 1.976 . S
O170 C164 1.287 . S
O171 Fe157 1.996 . S
O171 C164 1.255 . S
C172 O165 1.287 . S
C172 O166 1.255 . S
O173 Fe155 2.002 . S
O173 C169 1.295 . S
O174 Fe157 1.997 . S
O174 C169 1.235 . S
C175 O158 1.295 . S
C175 O159 1.235 . S
Fe176 O178 1.918 . S
Fe176 O181 1.997 . S
Fe176 O182 2.002 . S
Fe176 O187 1.976 . S
Fe176 O190 1.996 . S
Fe177 O178 1.918 . S
Fe177 O185 1.997 . S
Fe177 O188 1.996 . S
Fe177 O192 1.976 . S
Fe177 O195 2.002 . S
O178 Fe176 1.918 . S
O178 Fe177 1.918 . S
O178 Fe179 1.918 . S
Fe179 O178 1.918 . S
Fe179 O180 2.002 . S
Fe179 O189 1.976 . S
Fe179 O193 1.996 . S
Fe179 O196 1.997 . S
O180 Fe179 2.002 . S
O180 C197 1.295 . S
O181 Fe176 1.997 . S
O181 C197 1.235 . S
O182 Fe176 2.002 . S
O182 C183 1.295 . S
C183 O182 1.295 . S
C183 O185 1.235 . S
C184 O189 1.287 . S
C184 O190 1.255 . S
O185 Fe177 1.997 . S
O185 C183 1.235 . S
C186 O192 1.287 . S
C186 O193 1.255 . S
O187 Fe176 1.976 . S
O187 C194 1.287 . S
O188 Fe177 1.996 . S
O188 C194 1.255 . S
O189 Fe179 1.976 . S
O189 C184 1.287 . S
O190 Fe176 1.996 . S
O190 C184 1.255 . S
C191 O195 1.295 . S
C191 O196 1.235 . S
O192 Fe177 1.976 . S
O192 C186 1.287 . S
O193 Fe179 1.996 . S
O193 C186 1.255 . S
C194 O187 1.287 . S
C194 O188 1.255 . S
O195 Fe177 2.002 . S
O195 C191 1.295 . S
O196 Fe179 1.997 . S
O196 C191 1.235 . S
C197 O180 1.295 . S
C197 O181 1.235 . S
Fe198 O200 1.918 . S
Fe198 O203 1.997 . S
Fe198 O204 2.002 . S
Fe198 O209 1.976 . S
Fe198 O212 1.996 . S
Fe199 O200 1.918 . S
Fe199 O207 1.997 . S
Fe199 O210 1.996 . S
Fe199 O214 1.976 . S
Fe199 O217 2.002 . S
O200 Fe198 1.918 . S
O200 Fe199 1.918 . S
O200 Fe201 1.918 . S
Fe201 O200 1.918 . S
Fe201 O202 2.002 . S
Fe201 O211 1.976 . S
Fe201 O215 1.996 . S
Fe201 O218 1.997 . S
O202 Fe201 2.002 . S
O202 C219 1.295 . S
O203 Fe198 1.997 . S
O203 C219 1.235 . S
O204 Fe198 2.002 . S
O204 C205 1.295 . S
C205 O204 1.295 . S
C205 O207 1.235 . S
C206 O211 1.287 . S
C206 O212 1.255 . S
O207 Fe199 1.997 . S
O207 C205 1.235 . S
C208 O214 1.287 . S
C208 O215 1.255 . S
O209 Fe198 1.976 . S
O209 C216 1.287 . S
O210 Fe199 1.996 . S
O210 C216 1.255 . S
O211 Fe201 1.976 . S
O211 C206 1.287 . S
O212 Fe198 1.996 . S
O212 C206 1.255 . S
C213 O217 1.295 . S
C213 O218 1.235 . S
O214 Fe199 1.976 . S
O214 C208 1.287 . S
O215 Fe201 1.996 . S
O215 C208 1.255 . S
C216 O209 1.287 . S
C216 O210 1.255 . S
O217 Fe199 2.002 . S
O217 C213 1.295 . S
O218 Fe201 1.997 . S
O218 C213 1.235 . S
C219 O202 1.295 . S
C219 O203 1.235 . S
Fe220 O222 1.918 . S
Fe220 O225 1.997 . S
Fe220 O226 2.002 . S
Fe220 O231 1.976 . S
Fe220 O234 1.996 . S
Fe221 O222 1.918 . S
Fe221 O229 1.997 . S
Fe221 O232 1.996 . S
Fe221 O236 1.976 . S
Fe221 O239 2.002 . S
O222 Fe220 1.918 . S
O222 Fe221 1.918 . S
O222 Fe223 1.918 . S
Fe223 O222 1.918 . S
Fe223 O224 2.002 . S
Fe223 O233 1.976 . S
Fe223 O237 1.996 . S
Fe223 O240 1.997 . S
O224 Fe223 2.002 . S
O224 C241 1.295 . S
O225 Fe220 1.997 . S
O225 C241 1.235 . S
O226 Fe220 2.002 . S
O226 C227 1.295 . S
C227 O226 1.295 . S
C227 O229 1.235 . S
C228 O233 1.287 . S
C228 O234 1.255 . S
O229 Fe221 1.997 . S
O229 C227 1.235 . S
C230 O236 1.287 . S
C230 O237 1.255 . S
O231 Fe220 1.976 . S
O231 C238 1.287 . S
O232 Fe221 1.996 . S
O232 C238 1.255 . S
O233 Fe223 1.976 . S
O233 C228 1.287 . S
O234 Fe220 1.996 . S
O234 C228 1.255 . S
C235 O239 1.295 . S
C235 O240 1.235 . S
O236 Fe221 1.976 . S
O236 C230 1.287 . S
O237 Fe223 1.996 . S
O237 C230 1.255 . S
C238 O231 1.287 . S
C238 O232 1.255 . S
O239 Fe221 2.002 . S
O239 C235 1.295 . S
O240 Fe223 1.997 . S
O240 C235 1.235 . S
C241 O224 1.295 . S
C241 O225 1.235 . S
Fe242 O244 1.918 . S
Fe242 O247 1.997 . S
Fe242 O248 2.002 . S
Fe242 O253 1.976 . S
Fe242 O256 1.996 . S
Fe243 O244 1.918 . S
Fe243 O251 1.997 . S
Fe243 O254 1.996 . S
Fe243 O258 1.976 . S
Fe243 O261 2.002 . S
O244 Fe242 1.918 . S
O244 Fe243 1.918 . S
O244 Fe245 1.918 . S
Fe245 O244 1.918 . S
Fe245 O246 2.002 . S
Fe245 O255 1.976 . S
Fe245 O259 1.996 . S
Fe245 O262 1.997 . S
O246 Fe245 2.002 . S
O246 C263 1.295 . S
O247 Fe242 1.997 . S
O247 C263 1.235 . S
O248 Fe242 2.002 . S
O248 C249 1.295 . S
C249 O248 1.295 . S
C249 O251 1.235 . S
C250 O255 1.287 . S
C250 O256 1.255 . S
O251 Fe243 1.997 . S
O251 C249 1.235 . S
C252 O258 1.287 . S
C252 O259 1.255 . S
O253 Fe242 1.976 . S
O253 C260 1.287 . S
O254 Fe243 1.996 . S
O254 C260 1.255 . S
O255 Fe245 1.976 . S
O255 C250 1.287 . S
O256 Fe242 1.996 . S
O256 C250 1.255 . S
C257 O261 1.295 . S
C257 O262 1.235 . S
O258 Fe243 1.976 . S
O258 C252 1.287 . S
O259 Fe245 1.996 . S
O259 C252 1.255 . S
C260 O253 1.287 . S
C260 O254 1.255 . S
O261 Fe243 2.002 . S
O261 C257 1.295 . S
O262 Fe245 1.997 . S
O262 C257 1.235 . S
C263 O246 1.295 . S
C263 O247 1.235 . S
Fe264 O266 1.918 . S
Fe264 O269 1.997 . S
Fe264 O270 2.002 . S
Fe264 O275 1.976 . S
Fe264 O278 1.996 . S
Fe265 O266 1.918 . S
Fe265 O273 1.997 . S
Fe265 O276 1.996 . S
Fe265 O280 1.976 . S
Fe265 O283 2.002 . S
O266 Fe264 1.918 . S
O266 Fe265 1.918 . S
O266 Fe267 1.918 . S
Fe267 O266 1.918 . S
Fe267 O268 2.002 . S
Fe267 O277 1.976 . S
Fe267 O281 1.996 . S
Fe267 O284 1.997 . S
O268 Fe267 2.002 . S
O268 C285 1.295 . S
O269 Fe264 1.997 . S
O269 C285 1.235 . S
O270 Fe264 2.002 . S
O270 C271 1.295 . S
C271 O270 1.295 . S
C271 O273 1.235 . S
C272 O277 1.287 . S
C272 O278 1.255 . S
O273 Fe265 1.997 . S
O273 C271 1.235 . S
C274 O280 1.287 . S
C274 O281 1.255 . S
O275 Fe264 1.976 . S
O275 C282 1.287 . S
O276 Fe265 1.996 . S
O276 C282 1.255 . S
O277 Fe267 1.976 . S
O277 C272 1.287 . S
O278 Fe264 1.996 . S
O278 C272 1.255 . S
C279 O283 1.295 . S
C279 O284 1.235 . S
O280 Fe265 1.976 . S
O280 C274 1.287 . S
O281 Fe267 1.996 . S
O281 C274 1.255 . S
C282 O275 1.287 . S
C282 O276 1.255 . S
O283 Fe265 2.002 . S
O283 C279 1.295 . S
O284 Fe267 1.997 . S
O284 C279 1.235 . S
C285 O268 1.295 . S
C285 O269 1.235 . S
Fe286 O288 1.918 . S
Fe286 O291 1.997 . S
Fe286 O292 2.002 . S
Fe286 O297 1.976 . S
Fe286 O300 1.996 . S
Fe287 O288 1.918 . S
Fe287 O295 1.997 . S
Fe287 O298 1.996 . S
Fe287 O302 1.976 . S
Fe287 O305 2.002 . S
O288 Fe286 1.918 . S
O288 Fe287 1.918 . S
O288 Fe289 1.918 . S
Fe289 O288 1.918 . S
Fe289 O290 2.002 . S
Fe289 O299 1.976 . S
Fe289 O303 1.996 . S
Fe289 O306 1.997 . S
O290 Fe289 2.002 . S
O290 C307 1.295 . S
O291 Fe286 1.997 . S
O291 C307 1.235 . S
O292 Fe286 2.002 . S
O292 C293 1.295 . S
C293 O292 1.295 . S
C293 O295 1.235 . S
C294 O299 1.287 . S
C294 O300 1.255 . S
O295 Fe287 1.997 . S
O295 C293 1.235 . S
C296 O302 1.287 . S
C296 O303 1.255 . S
O297 Fe286 1.976 . S
O297 C304 1.287 . S
O298 Fe287 1.996 . S
O298 C304 1.255 . S
O299 Fe289 1.976 . S
O299 C294 1.287 . S
O300 Fe286 1.996 . S
O300 C294 1.255 . S
C301 O305 1.295 . S
C301 O306 1.235 . S
O302 Fe287 1.976 . S
O302 C296 1.287 . S
O303 Fe289 1.996 . S
O303 C296 1.255 . S
C304 O297 1.287 . S
C304 O298 1.255 . S
O305 Fe287 2.002 . S
O305 C301 1.295 . S
O306 Fe289 1.997 . S
O306 C301 1.235 . S
C307 O290 1.295 . S
C307 O291 1.235 . S
Fe308 O310 1.918 . S
Fe308 O313 1.997 . S
Fe308 O314 2.002 . S
Fe308 O319 1.976 . S
Fe308 O322 1.996 . S
Fe309 O310 1.918 . S
Fe309 O317 1.997 . S
Fe309 O320 1.996 . S
Fe309 O324 1.976 . S
Fe309 O327 2.002 . S
O310 Fe308 1.918 . S
O310 Fe309 1.918 . S
O310 Fe311 1.918 . S
Fe311 O310 1.918 . S
Fe311 O312 2.002 . S
Fe311 O321 1.976 . S
Fe311 O325 1.996 . S
Fe311 O328 1.997 . S
O312 Fe311 2.002 . S
O312 C329 1.295 . S
O313 Fe308 1.997 . S
O313 C329 1.235 . S
O314 Fe308 2.002 . S
O314 C315 1.295 . S
C315 O314 1.295 . S
C315 O317 1.235 . S
C316 O321 1.287 . S
C316 O322 1.255 . S
O317 Fe309 1.997 . S
O317 C315 1.235 . S
C318 O324 1.287 . S
C318 O325 1.255 . S
O319 Fe308 1.976 . S
O319 C326 1.287 . S
O320 Fe309 1.996 . S
O320 C326 1.255 . S
O321 Fe311 1.976 . S
O321 C316 1.287 . S
O322 Fe308 1.996 . S
O322 C316 1.255 . S
C323 O327 1.295 . S
C323 O328 1.235 . S
O324 Fe309 1.976 . S
O324 C318 1.287 . S
O325 Fe311 1.996 . S
O325 C318 1.255 . S
C326 O319 1.287 . S
C326 O320 1.255 . S
O327 Fe309 2.002 . S
O327 C323 1.295 . S
O328 Fe311 1.997 . S
O328 C323 1.235 . S
C329 O312 1.295 . S
C329 O313 1.235 . S
Fe330 O332 1.918 . S
Fe330 O335 1.997 . S
Fe330 O336 2.002 . S
Fe330 O341 1.976 . S
Fe330 O344 1.996 . S
Fe331 O332 1.918 . S
Fe331 O339 1.997 . S
Fe331 O342 1.996 . S
Fe331 O346 1.976 . S
Fe331 O349 2.002 . S
O332 Fe330 1.918 . S
O332 Fe331 1.918 . S
O332 Fe333 1.918 . S
Fe333 O332 1.918 . S
Fe333 O334 2.002 . S
Fe333 O343 1.976 . S
Fe333 O347 1.996 . S
Fe333 O350 1.997 . S
O334 Fe333 2.002 . S
O334 C351 1.295 . S
O335 Fe330 1.997 . S
O335 C351 1.235 . S
O336 Fe330 2.002 . S
O336 C337 1.295 . S
C337 O336 1.295 . S
C337 O339 1.235 . S
C338 O343 1.287 . S
C338 O344 1.255 . S
O339 Fe331 1.997 . S
O339 C337 1.235 . S
C340 O346 1.287 . S
C340 O347 1.255 . S
O341 Fe330 1.976 . S
O341 C348 1.287 . S
O342 Fe331 1.996 . S
O342 C348 1.255 . S
O343 Fe333 1.976 . S
O343 C338 1.287 . S
O344 Fe330 1.996 . S
O344 C338 1.255 . S
C345 O349 1.295 . S
C345 O350 1.235 . S
O346 Fe331 1.976 . S
O346 C340 1.287 . S
O347 Fe333 1.996 . S
O347 C340 1.255 . S
C348 O341 1.287 . S
C348 O342 1.255 . S
O349 Fe331 2.002 . S
O349 C345 1.295 . S
O350 Fe333 1.997 . S
O350 C345 1.235 . S
C351 O334 1.295 . S
C351 O335 1.235 . S
Fe352 O354 1.918 . S
Fe352 O357 1.997 . S
Fe352 O358 2.002 . S
Fe352 O363 1.976 . S
Fe352 O366 1.996 . S
Fe353 O354 1.918 . S
Fe353 O361 1.997 . S
Fe353 O364 1.996 . S
Fe353 O368 1.976 . S
Fe353 O371 2.002 . S
O354 Fe352 1.918 . S
O354 Fe353 1.918 . S
O354 Fe355 1.918 . S
Fe355 O354 1.918 . S
Fe355 O356 2.002 . S
Fe355 O365 1.976 . S
Fe355 O369 1.996 . S
Fe355 O372 1.997 . S
O356 Fe355 2.002 . S
O356 C373 1.295 . S
O357 Fe352 1.997 . S
O357 C373 1.235 . S
O358 Fe352 2.002 . S
O358 C359 1.295 . S
C359 O358 1.295 . S
C359 O361 1.235 . S
C360 O365 1.287 . S
C360 O366 1.255 . S
O361 Fe353 1.997 . S
O361 C359 1.235 . S
C362 O368 1.287 . S
C362 O369 1.255 . S
O363 Fe352 1.976 . S
O363 C370 1.287 . S
O364 Fe353 1.996 . S
O364 C370 1.255 . S
O365 Fe355 1.976 . S
O365 C360 1.287 . S
O366 Fe352 1.996 . S
O366 C360 1.255 . S
C367 O371 1.295 . S
C367 O372 1.235 . S
O368 Fe353 1.976 . S
O368 C362 1.287 . S
O369 Fe355 1.996 . S
O369 C362 1.255 . S
C370 O363 1.287 . S
C370 O364 1.255 . S
O371 Fe353 2.002 . S
O371 C367 1.295 . S
O372 Fe355 1.997 . S
O372 C367 1.235 . S
C373 O356 1.295 . S
C373 O357 1.235 . S
Fe374 O376 1.918 . S
Fe374 O379 1.997 . S
Fe374 O380 2.002 . S
Fe374 O385 1.976 . S
Fe374 O388 1.996 . S
Fe375 O376 1.918 . S
Fe375 O383 1.997 . S
Fe375 O386 1.996 . S
Fe375 O390 1.976 . S
Fe375 O393 2.002 . S
O376 Fe374 1.918 . S
O376 Fe375 1.918 . S
O376 Fe377 1.918 . S
Fe377 O376 1.918 . S
Fe377 O378 2.002 . S
Fe377 O387 1.976 . S
Fe377 O391 1.996 . S
Fe377 O394 1.997 . S
O378 Fe377 2.002 . S
O378 C395 1.295 . S
O379 Fe374 1.997 . S
O379 C395 1.235 . S
O380 Fe374 2.002 . S
O380 C381 1.295 . S
C381 O380 1.295 . S
C381 O383 1.235 . S
C382 O387 1.287 . S
C382 O388 1.255 . S
O383 Fe375 1.997 . S
O383 C381 1.235 . S
C384 O390 1.287 . S
C384 O391 1.255 . S
O385 Fe374 1.976 . S
O385 C392 1.287 . S
O386 Fe375 1.996 . S
O386 C392 1.255 . S
O387 Fe377 1.976 . S
O387 C382 1.287 . S
O388 Fe374 1.996 . S
O388 C382 1.255 . S
C389 O393 1.295 . S
C389 O394 1.235 . S
O390 Fe375 1.976 . S
O390 C384 1.287 . S
O391 Fe377 1.996 . S
O391 C384 1.255 . S
C392 O385 1.287 . S
C392 O386 1.255 . S
O393 Fe375 2.002 . S
O393 C389 1.295 . S
O394 Fe377 1.997 . S
O394 C389 1.235 . S
C395 O378 1.295 . S
C395 O379 1.235 . S
H396 C404 0.929 . S
H397 C406 0.930 . S
H398 C408 0.930 . S
H399 C411 0.929 . S
H400 C414 0.930 . S
H401 C416 0.960 . S
H402 C416 0.960 . S
H403 C416 0.960 . S
C404 H396 0.929 . S
C404 C405 1.377 . S
C404 C406 1.384 . S
C405 C404 1.377 . S
C405 C411 1.390 . S
C406 H397 0.930 . S
C406 C404 1.384 . S
C406 C407 1.372 . S
C407 C406 1.372 . S
C407 C408 1.400 . S
C407 C412 1.490 . S
C408 H398 0.930 . S
C408 C407 1.400 . S
C408 C411 1.386 . S
H409 C425 0.930 . S
H410 C426 0.931 . S
C411 H399 0.929 . S
C411 C405 1.390 . S
C411 C408 1.386 . S
C412 C407 1.490 . S
C412 C414 1.395 . S
C412 C415 1.403 . S
H413 C419 0.930 . S
C414 H400 0.930 . S
C414 C412 1.395 . S
C414 C417 1.403 . S
C415 C412 1.403 . S
C415 C416 1.524 . S
C415 C419 1.400 . S
C416 H401 0.960 . S
C416 H402 0.960 . S
C416 H403 0.960 . S
C416 C415 1.524 . S
C417 C414 1.403 . S
C417 C418 1.392 . S
C417 C421 1.495 . S
C418 C417 1.392 . S
C418 C419 1.385 . S
C418 C420 1.478 . S
C419 H413 0.930 . S
C419 C415 1.400 . S
C419 C418 1.385 . S
C420 C418 1.478 . S
C420 C422 1.381 . S
C420 C426 1.383 . S
C421 C417 1.495 . S
C421 H427 0.959 . S
C421 H428 0.961 . S
C421 H429 0.960 . S
C422 C420 1.381 . S
C422 C423 1.394 . S
C422 H430 0.930 . S
C423 C422 1.394 . S
C423 C424 1.383 . S
C423 H431 0.929 . S
C424 C423 1.383 . S
C424 C425 1.377 . S
C425 H409 0.930 . S
C425 C424 1.377 . S
C425 C426 1.379 . S
C426 H410 0.931 . S
C426 C420 1.383 . S
C426 C425 1.379 . S
H427 C421 0.959 . S
H428 C421 0.961 . S
H429 C421 0.960 . S
H430 C422 0.930 . S
H431 C423 0.929 . S
H432 C440 0.929 . S
H433 C442 0.930 . S
H434 C444 0.930 . S
H435 C447 0.929 . S
H436 C450 0.930 . S
H437 C452 0.960 . S
H438 C452 0.960 . S
H439 C452 0.960 . S
C440 H432 0.929 . S
C440 C441 1.377 . S
C440 C442 1.384 . S
C441 C440 1.377 . S
C441 C447 1.390 . S
C442 H433 0.930 . S
C442 C440 1.384 . S
C442 C443 1.372 . S
C443 C442 1.372 . S
C443 C444 1.400 . S
C443 C448 1.490 . S
C444 H434 0.930 . S
C444 C443 1.400 . S
C444 C447 1.386 . S
H445 C461 0.930 . S
H446 C462 0.931 . S
C447 H435 0.929 . S
C447 C441 1.390 . S
C447 C444 1.386 . S
C448 C443 1.490 . S
C448 C450 1.395 . S
C448 C451 1.403 . S
H449 C455 0.930 . S
C450 H436 0.930 . S
C450 C448 1.395 . S
C450 C453 1.403 . S
C451 C448 1.403 . S
C451 C452 1.524 . S
C451 C455 1.400 . S
C452 H437 0.960 . S
C452 H438 0.960 . S
C452 H439 0.960 . S
C452 C451 1.524 . S
C453 C450 1.403 . S
C453 C454 1.392 . S
C453 C457 1.495 . S
C454 C453 1.392 . S
C454 C455 1.385 . S
C454 C456 1.478 . S
C455 H449 0.930 . S
C455 C451 1.400 . S
C455 C454 1.385 . S
C456 C454 1.478 . S
C456 C458 1.381 . S
C456 C462 1.383 . S
C457 C453 1.495 . S
C457 H463 0.959 . S
C457 H464 0.961 . S
C457 H465 0.960 . S
C458 C456 1.381 . S
C458 C459 1.394 . S
C458 H466 0.930 . S
C459 C458 1.394 . S
C459 C460 1.383 . S
C459 H467 0.929 . S
C460 C459 1.383 . S
C460 C461 1.377 . S
C461 H445 0.930 . S
C461 C460 1.377 . S
C461 C462 1.379 . S
C462 H446 0.931 . S
C462 C456 1.383 . S
C462 C461 1.379 . S
H463 C457 0.959 . S
H464 C457 0.961 . S
H465 C457 0.960 . S
H466 C458 0.930 . S
H467 C459 0.929 . S
H468 C476 0.929 . S
H469 C478 0.930 . S
H470 C480 0.930 . S
H471 C483 0.929 . S
H472 C486 0.930 . S
H473 C488 0.960 . S
H474 C488 0.960 . S
H475 C488 0.960 . S
C476 H468 0.929 . S
C476 C477 1.377 . S
C476 C478 1.384 . S
C477 C476 1.377 . S
C477 C483 1.390 . S
C478 H469 0.930 . S
C478 C476 1.384 . S
C478 C479 1.372 . S
C479 C478 1.372 . S
C479 C480 1.400 . S
C479 C484 1.490 . S
C480 H470 0.930 . S
C480 C479 1.400 . S
C480 C483 1.386 . S
H481 C497 0.930 . S
H482 C498 0.931 . S
C483 H471 0.929 . S
C483 C477 1.390 . S
C483 C480 1.386 . S
C484 C479 1.490 . S
C484 C486 1.395 . S
C484 C487 1.403 . S
H485 C491 0.930 . S
C486 H472 0.930 . S
C486 C484 1.395 . S
C486 C489 1.403 . S
C487 C484 1.403 . S
C487 C488 1.524 . S
C487 C491 1.400 . S
C488 H473 0.960 . S
C488 H474 0.960 . S
C488 H475 0.960 . S
C488 C487 1.524 . S
C489 C486 1.403 . S
C489 C490 1.392 . S
C489 C493 1.495 . S
C490 C489 1.392 . S
C490 C491 1.385 . S
C490 C492 1.478 . S
C491 H485 0.930 . S
C491 C487 1.400 . S
C491 C490 1.385 . S
C492 C490 1.478 . S
C492 C494 1.381 . S
C492 C498 1.383 . S
C493 C489 1.495 . S
C493 H499 0.959 . S
C493 H500 0.961 . S
C493 H501 0.960 . S
C494 C492 1.381 . S
C494 C495 1.394 . S
C494 H502 0.930 . S
C495 C494 1.394 . S
C495 C496 1.383 . S
C495 H503 0.929 . S
C496 C495 1.383 . S
C496 C497 1.377 . S
C497 H481 0.930 . S
C497 C496 1.377 . S
C497 C498 1.379 . S
C498 H482 0.931 . S
C498 C492 1.383 . S
C498 C497 1.379 . S
H499 C493 0.959 . S
H500 C493 0.961 . S
H501 C493 0.960 . S
H502 C494 0.930 . S
H503 C495 0.929 . S
H504 C512 0.929 . S
H505 C514 0.930 . S
H506 C516 0.930 . S
H507 C519 0.929 . S
H508 C522 0.930 . S
H509 C524 0.960 . S
H510 C524 0.960 . S
H511 C524 0.960 . S
C512 H504 0.929 . S
C512 C513 1.377 . S
C512 C514 1.384 . S
C513 C512 1.377 . S
C513 C519 1.390 . S
C514 H505 0.930 . S
C514 C512 1.384 . S
C514 C515 1.372 . S
C515 C514 1.372 . S
C515 C516 1.400 . S
C515 C520 1.490 . S
C516 H506 0.930 . S
C516 C515 1.400 . S
C516 C519 1.386 . S
H517 C533 0.930 . S
H518 C534 0.931 . S
C519 H507 0.929 . S
C519 C513 1.390 . S
C519 C516 1.386 . S
C520 C515 1.490 . S
C520 C522 1.395 . S
C520 C523 1.403 . S
H521 C527 0.930 . S
C522 H508 0.930 . S
C522 C520 1.395 . S
C522 C525 1.403 . S
C523 C520 1.403 . S
C523 C524 1.524 . S
C523 C527 1.400 . S
C524 H509 0.960 . S
C524 H510 0.960 . S
C524 H511 0.960 . S
C524 C523 1.524 . S
C525 C522 1.403 . S
C525 C526 1.392 . S
C525 C529 1.495 . S
C526 C525 1.392 . S
C526 C527 1.385 . S
C526 C528 1.478 . S
C527 H521 0.930 . S
C527 C523 1.400 . S
C527 C526 1.385 . S
C528 C526 1.478 . S
C528 C530 1.381 . S
C528 C534 1.383 . S
C529 C525 1.495 . S
C529 H535 0.959 . S
C529 H536 0.961 . S
C529 H537 0.960 . S
C530 C528 1.381 . S
C530 C531 1.394 . S
C530 H538 0.930 . S
C531 C530 1.394 . S
C531 C532 1.383 . S
C531 H539 0.929 . S
C532 C531 1.383 . S
C532 C533 1.377 . S
C533 H517 0.930 . S
C533 C532 1.377 . S
C533 C534 1.379 . S
C534 H518 0.931 . S
C534 C528 1.383 . S
C534 C533 1.379 . S
H535 C529 0.959 . S
H536 C529 0.961 . S
H537 C529 0.960 . S
H538 C530 0.930 . S
H539 C531 0.929 . S
H540 C548 0.929 . S
H541 C550 0.930 . S
H542 C552 0.930 . S
H543 C555 0.929 . S
H544 C558 0.930 . S
H545 C560 0.960 . S
H546 C560 0.960 . S
H547 C560 0.960 . S
C548 H540 0.929 . S
C548 C549 1.377 . S
C548 C550 1.384 . S
C549 C548 1.377 . S
C549 C555 1.390 . S
C550 H541 0.930 . S
C550 C548 1.384 . S
C550 C551 1.372 . S
C551 C550 1.372 . S
C551 C552 1.400 . S
C551 C556 1.490 . S
C552 H542 0.930 . S
C552 C551 1.400 . S
C552 C555 1.386 . S
H553 C569 0.930 . S
H554 C570 0.931 . S
C555 H543 0.929 . S
C555 C549 1.390 . S
C555 C552 1.386 . S
C556 C551 1.490 . S
C556 C558 1.395 . S
C556 C559 1.403 . S
H557 C563 0.930 . S
C558 H544 0.930 . S
C558 C556 1.395 . S
C558 C561 1.403 . S
C559 C556 1.403 . S
C559 C560 1.524 . S
C559 C563 1.400 . S
C560 H545 0.960 . S
C560 H546 0.960 . S
C560 H547 0.960 . S
C560 C559 1.524 . S
C561 C558 1.403 . S
C561 C562 1.392 . S
C561 C565 1.495 . S
C562 C561 1.392 . S
C562 C563 1.385 . S
C562 C564 1.478 . S
C563 H557 0.930 . S
C563 C559 1.400 . S
C563 C562 1.385 . S
C564 C562 1.478 . S
C564 C566 1.381 . S
C564 C570 1.383 . S
C565 C561 1.495 . S
C565 H571 0.959 . S
C565 H572 0.961 . S
C565 H573 0.960 . S
C566 C564 1.381 . S
C566 C567 1.394 . S
C566 H574 0.930 . S
C567 C566 1.394 . S
C567 C568 1.383 . S
C567 H575 0.929 . S
C568 C567 1.383 . S
C568 C569 1.377 . S
C569 H553 0.930 . S
C569 C568 1.377 . S
C569 C570 1.379 . S
C570 H554 0.931 . S
C570 C564 1.383 . S
C570 C569 1.379 . S
H571 C565 0.959 . S
H572 C565 0.961 . S
H573 C565 0.960 . S
H574 C566 0.930 . S
H575 C567 0.929 . S
H576 C584 0.929 . S
H577 C586 0.930 . S
H578 C588 0.930 . S
H579 C591 0.929 . S
H580 C594 0.930 . S
H581 C596 0.960 . S
H582 C596 0.960 . S
H583 C596 0.960 . S
C584 H576 0.929 . S
C584 C585 1.377 . S
C584 C586 1.384 . S
C585 C584 1.377 . S
C585 C591 1.390 . S
C586 H577 0.930 . S
C586 C584 1.384 . S
C586 C587 1.372 . S
C587 C586 1.372 . S
C587 C588 1.400 . S
C587 C592 1.490 . S
C588 H578 0.930 . S
C588 C587 1.400 . S
C588 C591 1.386 . S
H589 C605 0.930 . S
H590 C606 0.931 . S
C591 H579 0.929 . S
C591 C585 1.390 . S
C591 C588 1.386 . S
C592 C587 1.490 . S
C592 C594 1.395 . S
C592 C595 1.403 . S
H593 C599 0.930 . S
C594 H580 0.930 . S
C594 C592 1.395 . S
C594 C597 1.403 . S
C595 C592 1.403 . S
C595 C596 1.524 . S
C595 C599 1.400 . S
C596 H581 0.960 . S
C596 H582 0.960 . S
C596 H583 0.960 . S
C596 C595 1.524 . S
C597 C594 1.403 . S
C597 C598 1.392 . S
C597 C601 1.495 . S
C598 C597 1.392 . S
C598 C599 1.385 . S
C598 C600 1.478 . S
C599 H593 0.930 . S
C599 C595 1.400 . S
C599 C598 1.385 . S
C600 C598 1.478 . S
C600 C602 1.381 . S
C600 C606 1.383 . S
C601 C597 1.495 . S
C601 H607 0.959 . S
C601 H608 0.961 . S
C601 H609 0.960 . S
C602 C600 1.381 . S
C602 C603 1.394 . S
C602 H610 0.930 . S
C603 C602 1.394 . S
C603 C604 1.383 . S
C603 H611 0.929 . S
C604 C603 1.383 . S
C604 C605 1.377 . S
C605 H589 0.930 . S
C605 C604 1.377 . S
C605 C606 1.379 . S
C606 H590 0.931 . S
C606 C600 1.383 . S
C606 C605 1.379 . S
H607 C601 0.959 . S
H608 C601 0.961 . S
H609 C601 0.960 . S
H610 C602 0.930 . S
H611 C603 0.929 . S
H612 C620 0.929 . S
H613 C622 0.930 . S
H614 C624 0.930 . S
H615 C627 0.929 . S
H616 C630 0.930 . S
H617 C632 0.960 . S
H618 C632 0.960 . S
H619 C632 0.960 . S
C620 H612 0.929 . S
C620 C621 1.377 . S
C620 C622 1.384 . S
C621 C620 1.377 . S
C621 C627 1.390 . S
C622 H613 0.930 . S
C622 C620 1.384 . S
C622 C623 1.372 1_545 S
C623 C622 1.372 1_565 S
C623 C624 1.400 . S
C623 C628 1.490 . S
C624 H614 0.930 . S
C624 C623 1.400 . S
C624 C627 1.386 1_565 S
H625 C641 0.930 . S
H626 C642 0.931 . S
C627 H615 0.929 . S
C627 C621 1.390 . S
C627 C624 1.386 1_545 S
C628 C623 1.490 . S
C628 C630 1.395 . S
C628 C631 1.403 . S
H629 C635 0.930 . S
C630 H616 0.930 . S
C630 C628 1.395 . S
C630 C633 1.403 . S
C631 C628 1.403 . S
C631 C632 1.524 . S
C631 C635 1.400 . S
C632 H617 0.960 . S
C632 H618 0.960 . S
C632 H619 0.960 . S
C632 C631 1.524 . S
C633 C630 1.403 . S
C633 C634 1.392 . S
C633 C637 1.495 . S
C634 C633 1.392 . S
C634 C635 1.385 . S
C634 C636 1.478 . S
C635 H629 0.930 . S
C635 C631 1.400 . S
C635 C634 1.385 . S
C636 C634 1.478 . S
C636 C638 1.381 . S
C636 C642 1.383 . S
C637 C633 1.495 . S
C637 H643 0.959 . S
C637 H644 0.961 . S
C637 H645 0.960 . S
C638 C636 1.381 . S
C638 C639 1.394 . S
C638 H646 0.930 . S
C639 C638 1.394 . S
C639 C640 1.383 . S
C639 H647 0.929 . S
C640 C639 1.383 . S
C640 C641 1.377 . S
C641 H625 0.930 . S
C641 C640 1.377 . S
C641 C642 1.379 . S
C642 H626 0.931 . S
C642 C636 1.383 . S
C642 C641 1.379 . S
H643 C637 0.959 . S
H644 C637 0.961 . S
H645 C637 0.960 . S
H646 C638 0.930 . S
H647 C639 0.929 . S
H648 C656 0.929 . S
H649 C658 0.930 . S
H650 C660 0.930 . S
H651 C663 0.929 . S
H652 C666 0.930 . S
H653 C668 0.960 . S
H654 C668 0.960 . S
H655 C668 0.960 . S
C656 H648 0.929 . S
C656 C657 1.377 . S
C656 C658 1.384 . S
C657 C656 1.377 . S
C657 C663 1.390 . S
C658 H649 0.930 . S
C658 C656 1.384 . S
C658 C659 1.372 1_655 S
C659 C658 1.372 1_455 S
C659 C660 1.400 . S
C659 C664 1.490 . S
C660 H650 0.930 . S
C660 C659 1.400 . S
C660 C663 1.386 1_455 S
H661 C677 0.930 . S
H662 C678 0.931 . S
C663 H651 0.929 . S
C663 C657 1.390 . S
C663 C660 1.386 1_655 S
C664 C659 1.490 . S
C664 C666 1.395 . S
C664 C667 1.403 . S
H665 C671 0.930 . S
C666 H652 0.930 . S
C666 C664 1.395 . S
C666 C669 1.403 . S
C667 C664 1.403 . S
C667 C668 1.524 . S
C667 C671 1.400 . S
C668 H653 0.960 . S
C668 H654 0.960 . S
C668 H655 0.960 . S
C668 C667 1.524 . S
C669 C666 1.403 . S
C669 C670 1.392 . S
C669 C673 1.495 . S
C670 C669 1.392 . S
C670 C671 1.385 . S
C670 C672 1.478 . S
C671 H665 0.930 . S
C671 C667 1.400 . S
C671 C670 1.385 . S
C672 C670 1.478 . S
C672 C674 1.381 1_565 S
C672 C678 1.383 . S
C673 C669 1.495 . S
C673 H679 0.959 . S
C673 H680 0.961 . S
C673 H681 0.960 . S
C674 C672 1.381 1_545 S
C674 C675 1.394 . S
C674 H682 0.930 . S
C675 C674 1.394 . S
C675 C676 1.383 . S
C675 H683 0.929 . S
C676 C675 1.383 . S
C676 C677 1.377 . S
C677 H661 0.930 . S
C677 C676 1.377 . S
C677 C678 1.379 1_545 S
C678 H662 0.931 . S
C678 C672 1.383 . S
C678 C677 1.379 1_565 S
H679 C673 0.959 . S
H680 C673 0.961 . S
H681 C673 0.960 . S
H682 C674 0.930 . S
H683 C675 0.929 . S
H684 C692 0.929 . S
H685 C694 0.930 . S
H686 C696 0.930 . S
H687 C699 0.929 . S
H688 C702 0.930 . S
H689 C704 0.960 . S
H690 C704 0.960 . S
H691 C704 0.960 . S
C692 H684 0.929 . S
C692 C693 1.377 . S
C692 C694 1.384 . S
C693 C692 1.377 . S
C693 C699 1.390 . S
C694 H685 0.930 . S
C694 C692 1.384 . S
C694 C695 1.372 . S
C695 C694 1.372 . S
C695 C696 1.400 . S
C695 C700 1.490 . S
C696 H686 0.930 . S
C696 C695 1.400 . S
C696 C699 1.386 . S
H697 C713 0.930 . S
H698 C714 0.931 . S
C699 H687 0.929 . S
C699 C693 1.390 . S
C699 C696 1.386 . S
C700 C695 1.490 . S
C700 C702 1.395 . S
C700 C703 1.403 . S
H701 C707 0.930 . S
C702 H688 0.930 . S
C702 C700 1.395 . S
C702 C705 1.403 . S
C703 C700 1.403 . S
C703 C704 1.524 . S
C703 C707 1.400 . S
C704 H689 0.960 . S
C704 H690 0.960 . S
C704 H691 0.960 . S
C704 C703 1.524 . S
C705 C702 1.403 . S
C705 C706 1.392 . S
C705 C709 1.495 . S
C706 C705 1.392 . S
C706 C707 1.385 . S
C706 C708 1.478 . S
C707 H701 0.930 . S
C707 C703 1.400 . S
C707 C706 1.385 . S
C708 C706 1.478 . S
C708 C710 1.381 1_455 S
C708 C714 1.383 . S
C709 C705 1.495 . S
C709 H715 0.959 . S
C709 H716 0.961 . S
C709 H717 0.960 . S
C710 C708 1.381 1_655 S
C710 C711 1.394 . S
C710 H718 0.930 . S
C711 C710 1.394 . S
C711 C712 1.383 . S
C711 H719 0.929 . S
C712 C711 1.383 . S
C712 C713 1.377 . S
C713 H697 0.930 . S
C713 C712 1.377 . S
C713 C714 1.379 1_655 S
C714 H698 0.931 . S
C714 C708 1.383 . S
C714 C713 1.379 1_455 S
H715 C709 0.959 . S
H716 C709 0.961 . S
H717 C709 0.960 . S
H718 C710 0.930 . S
H719 C711 0.929 . S
H720 C728 0.929 . S
H721 C730 0.930 . S
H722 C732 0.930 . S
H723 C735 0.929 . S
H724 C738 0.930 . S
H725 C740 0.960 . S
H726 C740 0.960 . S
H727 C740 0.960 . S
C728 H720 0.929 . S
C728 C729 1.377 . S
C728 C730 1.384 . S
C729 C728 1.377 . S
C729 C735 1.390 . S
C730 H721 0.930 . S
C730 C728 1.384 . S
C730 C731 1.372 . S
C731 C730 1.372 . S
C731 C732 1.400 . S
C731 C736 1.490 . S
C732 H722 0.930 . S
C732 C731 1.400 . S
C732 C735 1.386 . S
H733 C749 0.930 . S
H734 C750 0.931 . S
C735 H723 0.929 . S
C735 C729 1.390 . S
C735 C732 1.386 . S
C736 C731 1.490 . S
C736 C738 1.395 . S
C736 C739 1.403 . S
H737 C743 0.930 . S
C738 H724 0.930 . S
C738 C736 1.395 . S
C738 C741 1.403 . S
C739 C736 1.403 . S
C739 C740 1.524 . S
C739 C743 1.400 . S
C740 H725 0.960 . S
C740 H726 0.960 . S
C740 H727 0.960 . S
C740 C739 1.524 . S
C741 C738 1.403 . S
C741 C742 1.392 . S
C741 C745 1.495 . S
C742 C741 1.392 . S
C742 C743 1.385 . S
C742 C744 1.478 . S
C743 H737 0.930 . S
C743 C739 1.400 . S
C743 C742 1.385 . S
C744 C742 1.478 . S
C744 C746 1.381 . S
C744 C750 1.383 . S
C745 C741 1.495 . S
C745 H751 0.959 . S
C745 H752 0.961 . S
C745 H753 0.960 . S
C746 C744 1.381 . S
C746 C747 1.394 . S
C746 H754 0.930 . S
C747 C746 1.394 . S
C747 C748 1.383 . S
C747 H755 0.929 . S
C748 C747 1.383 . S
C748 C749 1.377 . S
C749 H733 0.930 . S
C749 C748 1.377 . S
C749 C750 1.379 . S
C750 H734 0.931 . S
C750 C744 1.383 . S
C750 C749 1.379 . S
H751 C745 0.959 . S
H752 C745 0.961 . S
H753 C745 0.960 . S
H754 C746 0.930 . S
H755 C747 0.929 . S
H756 C764 0.929 . S
H757 C766 0.930 . S
H758 C768 0.930 . S
H759 C771 0.929 . S
H760 C774 0.930 . S
H761 C776 0.960 . S
H762 C776 0.960 . S
H763 C776 0.960 . S
C764 H756 0.929 . S
C764 C765 1.377 . S
C764 C766 1.384 . S
C765 C764 1.377 . S
C765 C771 1.390 . S
C766 H757 0.930 . S
C766 C764 1.384 . S
C766 C767 1.372 . S
C767 C766 1.372 . S
C767 C768 1.400 . S
C767 C772 1.490 . S
C768 H758 0.930 . S
C768 C767 1.400 . S
C768 C771 1.386 . S
H769 C785 0.930 . S
H770 C786 0.931 . S
C771 H759 0.929 . S
C771 C765 1.390 . S
C771 C768 1.386 . S
C772 C767 1.490 . S
C772 C774 1.395 . S
C772 C775 1.403 . S
H773 C779 0.930 . S
C774 H760 0.930 . S
C774 C772 1.395 . S
C774 C777 1.403 . S
C775 C772 1.403 . S
C775 C776 1.524 . S
C775 C779 1.400 . S
C776 H761 0.960 . S
C776 H762 0.960 . S
C776 H763 0.960 . S
C776 C775 1.524 . S
C777 C774 1.403 . S
C777 C778 1.392 . S
C777 C781 1.495 . S
C778 C777 1.392 . S
C778 C779 1.385 . S
C778 C780 1.478 . S
C779 H773 0.930 . S
C779 C775 1.400 . S
C779 C778 1.385 . S
C780 C778 1.478 . S
C780 C782 1.381 . S
C780 C786 1.383 . S
C781 C777 1.495 . S
C781 H787 0.959 . S
C781 H788 0.961 . S
C781 H789 0.960 . S
C782 C780 1.381 . S
C782 C783 1.394 . S
C782 H790 0.930 . S
C783 C782 1.394 . S
C783 C784 1.383 . S
C783 H791 0.929 . S
C784 C783 1.383 . S
C784 C785 1.377 . S
C785 H769 0.930 . S
C785 C784 1.377 . S
C785 C786 1.379 . S
C786 H770 0.931 . S
C786 C780 1.383 . S
C786 C785 1.379 . S
H787 C781 0.959 . S
H788 C781 0.961 . S
H789 C781 0.960 . S
H790 C782 0.930 . S
H791 C783 0.929 . S
H792 C800 0.929 . S
H793 C802 0.930 . S
H794 C804 0.930 . S
H795 C807 0.929 . S
H796 C810 0.930 . S
H797 C812 0.960 . S
H798 C812 0.960 . S
H799 C812 0.960 . S
C800 H792 0.929 . S
C800 C801 1.377 . S
C800 C802 1.384 . S
C801 C800 1.377 . S
C801 C807 1.390 . S
C802 H793 0.930 . S
C802 C800 1.384 . S
C802 C803 1.372 . S
C803 C802 1.372 . S
C803 C804 1.400 . S
C803 C808 1.490 . S
C804 H794 0.930 . S
C804 C803 1.400 . S
C804 C807 1.386 . S
H805 C821 0.930 . S
H806 C822 0.931 . S
C807 H795 0.929 . S
C807 C801 1.390 . S
C807 C804 1.386 . S
C808 C803 1.490 . S
C808 C810 1.395 . S
C808 C811 1.403 . S
H809 C815 0.930 . S
C810 H796 0.930 . S
C810 C808 1.395 . S
C810 C813 1.403 . S
C811 C808 1.403 . S
C811 C812 1.524 . S
C811 C815 1.400 . S
C812 H797 0.960 . S
C812 H798 0.960 . S
C812 H799 0.960 . S
C812 C811 1.524 . S
C813 C810 1.403 . S
C813 C814 1.392 . S
C813 C817 1.495 . S
C814 C813 1.392 . S
C814 C815 1.385 . S
C814 C816 1.478 . S
C815 H809 0.930 . S
C815 C811 1.400 . S
C815 C814 1.385 . S
C816 C814 1.478 . S
C816 C818 1.381 . S
C816 C822 1.383 . S
C817 C813 1.495 . S
C817 H823 0.959 . S
C817 H824 0.961 . S
C817 H825 0.960 . S
C818 C816 1.381 . S
C818 C819 1.394 . S
C818 H826 0.930 . S
C819 C818 1.394 . S
C819 C820 1.383 . S
C819 H827 0.929 . S
C820 C819 1.383 . S
C820 C821 1.377 . S
C821 H805 0.930 . S
C821 C820 1.377 . S
C821 C822 1.379 . S
C822 H806 0.931 . S
C822 C816 1.383 . S
C822 C821 1.379 . S
H823 C817 0.959 . S
H824 C817 0.961 . S
H825 C817 0.960 . S
H826 C818 0.930 . S
H827 C819 0.929 . S
H828 C836 0.929 . S
H829 C838 0.930 . S
H830 C840 0.930 . S
H831 C843 0.929 . S
H832 C846 0.930 . S
H833 C848 0.960 . S
H834 C848 0.960 . S
H835 C848 0.960 . S
C836 H828 0.929 . S
C836 C837 1.377 . S
C836 C838 1.384 . S
C837 C836 1.377 . S
C837 C843 1.390 . S
C838 H829 0.930 . S
C838 C836 1.384 . S
C838 C839 1.372 . S
C839 C838 1.372 . S
C839 C840 1.400 . S
C839 C844 1.490 . S
C840 H830 0.930 . S
C840 C839 1.400 . S
C840 C843 1.386 . S
H841 C857 0.930 . S
H842 C858 0.931 . S
C843 H831 0.929 . S
C843 C837 1.390 . S
C843 C840 1.386 . S
C844 C839 1.490 . S
C844 C846 1.395 . S
C844 C847 1.403 . S
H845 C851 0.930 . S
C846 H832 0.930 . S
C846 C844 1.395 . S
C846 C849 1.403 . S
C847 C844 1.403 . S
C847 C848 1.524 . S
C847 C851 1.400 . S
C848 H833 0.960 . S
C848 H834 0.960 . S
C848 H835 0.960 . S
C848 C847 1.524 . S
C849 C846 1.403 . S
C849 C850 1.392 . S
C849 C853 1.495 . S
C850 C849 1.392 . S
C850 C851 1.385 . S
C850 C852 1.478 . S
C851 H845 0.930 . S
C851 C847 1.400 . S
C851 C850 1.385 . S
C852 C850 1.478 . S
C852 C854 1.381 . S
C852 C858 1.383 . S
C853 C849 1.495 . S
C853 H859 0.959 . S
C853 H860 0.961 . S
C853 H861 0.960 . S
C854 C852 1.381 . S
C854 C855 1.394 . S
C854 H862 0.930 . S
C855 C854 1.394 . S
C855 C856 1.383 . S
C855 H863 0.929 . S
C856 C855 1.383 . S
C856 C857 1.377 . S
C857 H841 0.930 . S
C857 C856 1.377 . S
C857 C858 1.379 . S
C858 H842 0.931 . S
C858 C852 1.383 . S
C858 C857 1.379 . S
H859 C853 0.959 . S
H860 C853 0.961 . S
H861 C853 0.960 . S
H862 C854 0.930 . S
H863 C855 0.929 . S
H864 C872 0.929 . S
H865 C874 0.930 . S
H866 C876 0.930 . S
H867 C879 0.929 . S
H868 C882 0.930 . S
H869 C884 0.960 . S
H870 C884 0.960 . S
H871 C884 0.960 . S
C872 H864 0.929 . S
C872 C873 1.377 . S
C872 C874 1.384 . S
C873 C872 1.377 . S
C873 C879 1.390 . S
C874 H865 0.930 . S
C874 C872 1.384 . S
C874 C875 1.372 . S
C875 C874 1.372 . S
C875 C876 1.400 . S
C875 C880 1.490 . S
C876 H866 0.930 . S
C876 C875 1.400 . S
C876 C879 1.386 . S
H877 C893 0.930 . S
H878 C894 0.931 . S
C879 H867 0.929 . S
C879 C873 1.390 . S
C879 C876 1.386 . S
C880 C875 1.490 . S
C880 C882 1.395 . S
C880 C883 1.403 . S
H881 C887 0.930 . S
C882 H868 0.930 . S
C882 C880 1.395 . S
C882 C885 1.403 . S
C883 C880 1.403 . S
C883 C884 1.524 . S
C883 C887 1.400 . S
C884 H869 0.960 . S
C884 H870 0.960 . S
C884 H871 0.960 . S
C884 C883 1.524 . S
C885 C882 1.403 . S
C885 C886 1.392 . S
C885 C889 1.495 . S
C886 C885 1.392 . S
C886 C887 1.385 . S
C886 C888 1.478 . S
C887 H881 0.930 . S
C887 C883 1.400 . S
C887 C886 1.385 . S
C888 C886 1.478 . S
C888 C890 1.381 . S
C888 C894 1.383 . S
C889 C885 1.495 . S
C889 H895 0.959 . S
C889 H896 0.961 . S
C889 H897 0.960 . S
C890 C888 1.381 . S
C890 C891 1.394 . S
C890 H898 0.930 . S
C891 C890 1.394 . S
C891 C892 1.383 . S
C891 H899 0.929 . S
C892 C891 1.383 . S
C892 C893 1.377 . S
C893 H877 0.930 . S
C893 C892 1.377 . S
C893 C894 1.379 . S
C894 H878 0.931 . S
C894 C888 1.383 . S
C894 C893 1.379 . S
H895 C889 0.959 . S
H896 C889 0.961 . S
H897 C889 0.960 . S
H898 C890 0.930 . S
H899 C891 0.929 . S
H900 C908 0.929 . S
H901 C910 0.930 . S
H902 C912 0.930 . S
H903 C915 0.929 . S
H904 C918 0.930 . S
H905 C920 0.960 . S
H906 C920 0.960 . S
H907 C920 0.960 . S
C908 H900 0.929 . S
C908 C909 1.377 . S
C908 C910 1.384 . S
C909 C908 1.377 . S
C909 C915 1.390 . S
C910 H901 0.930 . S
C910 C908 1.384 . S
C910 C911 1.372 . S
C911 C910 1.372 . S
C911 C912 1.400 . S
C911 C916 1.490 . S
C912 H902 0.930 . S
C912 C911 1.400 . S
C912 C915 1.386 . S
H913 C929 0.930 . S
H914 C930 0.931 . S
C915 H903 0.929 . S
C915 C909 1.390 . S
C915 C912 1.386 . S
C916 C911 1.490 . S
C916 C918 1.395 . S
C916 C919 1.403 . S
H917 C923 0.930 . S
C918 H904 0.930 . S
C918 C916 1.395 . S
C918 C921 1.403 . S
C919 C916 1.403 . S
C919 C920 1.524 . S
C919 C923 1.400 . S
C920 H905 0.960 . S
C920 H906 0.960 . S
C920 H907 0.960 . S
C920 C919 1.524 . S
C921 C918 1.403 . S
C921 C922 1.392 . S
C921 C925 1.495 . S
C922 C921 1.392 . S
C922 C923 1.385 . S
C922 C924 1.478 . S
C923 H917 0.930 . S
C923 C919 1.400 . S
C923 C922 1.385 . S
C924 C922 1.478 . S
C924 C926 1.381 . S
C924 C930 1.383 . S
C925 C921 1.495 . S
C925 H931 0.959 . S
C925 H932 0.961 . S
C925 H933 0.960 . S
C926 C924 1.381 . S
C926 C927 1.394 . S
C926 H934 0.930 . S
C927 C926 1.394 . S
C927 C928 1.383 . S
C927 H935 0.929 . S
C928 C927 1.383 . S
C928 C929 1.377 . S
C929 H913 0.930 . S
C929 C928 1.377 . S
C929 C930 1.379 . S
C930 H914 0.931 . S
C930 C924 1.383 . S
C930 C929 1.379 . S
H931 C925 0.959 . S
H932 C925 0.961 . S
H933 C925 0.960 . S
H934 C926 0.930 . S
H935 C927 0.929 . S
H936 C944 0.929 . S
H937 C946 0.930 . S
H938 C948 0.930 . S
H939 C951 0.929 . S
H940 C954 0.930 . S
H941 C956 0.960 . S
H942 C956 0.960 . S
H943 C956 0.960 . S
C944 H936 0.929 . S
C944 C945 1.377 . S
C944 C946 1.384 1_455 S
C945 C944 1.377 . S
C945 C951 1.390 . S
C946 H937 0.930 . S
C946 C944 1.384 1_655 S
C946 C947 1.372 . S
C947 C946 1.372 . S
C947 C948 1.400 1_655 S
C947 C952 1.490 . S
C948 H938 0.930 . S
C948 C947 1.400 1_455 S
C948 C951 1.386 . S
H949 C965 0.930 . S
H950 C966 0.931 . S
C951 H939 0.929 . S
C951 C945 1.390 . S
C951 C948 1.386 . S
C952 C947 1.490 . S
C952 C954 1.395 . S
C952 C955 1.403 . S
H953 C959 0.930 . S
C954 H940 0.930 . S
C954 C952 1.395 . S
C954 C957 1.403 . S
C955 C952 1.403 . S
C955 C956 1.524 . S
C955 C959 1.400 . S
C956 H941 0.960 . S
C956 H942 0.960 . S
C956 H943 0.960 . S
C956 C955 1.524 . S
C957 C954 1.403 . S
C957 C958 1.392 . S
C957 C961 1.495 . S
C958 C957 1.392 . S
C958 C959 1.385 . S
C958 C960 1.478 . S
C959 H953 0.930 . S
C959 C955 1.400 . S
C959 C958 1.385 . S
C960 C958 1.478 . S
C960 C962 1.381 . S
C960 C966 1.383 . S
C961 C957 1.495 . S
C961 H967 0.959 . S
C961 H968 0.961 . S
C961 H969 0.960 . S
C962 C960 1.381 . S
C962 C963 1.394 . S
C962 H970 0.930 . S
C963 C962 1.394 . S
C963 C964 1.383 . S
C963 H971 0.929 . S
C964 C963 1.383 . S
C964 C965 1.377 . S
C965 H949 0.930 . S
C965 C964 1.377 . S
C965 C966 1.379 . S
C966 H950 0.931 . S
C966 C960 1.383 . S
C966 C965 1.379 . S
H967 C961 0.959 . S
H968 C961 0.961 . S
H969 C961 0.960 . S
H970 C962 0.930 . S
H971 C963 0.929 . S
H972 C980 0.929 . S
H973 C982 0.930 . S
H974 C984 0.930 . S
H975 C987 0.929 . S
H976 C990 0.930 . S
H977 C992 0.960 . S
H978 C992 0.960 . S
H979 C992 0.960 . S
C980 H972 0.929 . S
C980 C981 1.377 . S
C980 C982 1.384 . S
C981 C980 1.377 . S
C981 C987 1.390 . S
C982 H973 0.930 . S
C982 C980 1.384 . S
C982 C983 1.372 . S
C983 C982 1.372 . S
C983 C984 1.400 . S
C983 C988 1.490 . S
C984 H974 0.930 . S
C984 C983 1.400 . S
C984 C987 1.386 . S
H985 C1001 0.930 . S
H986 C1002 0.931 . S
C987 H975 0.929 . S
C987 C981 1.390 . S
C987 C984 1.386 . S
C988 C983 1.490 . S
C988 C990 1.395 . S
C988 C991 1.403 . S
H989 C995 0.930 . S
C990 H976 0.930 . S
C990 C988 1.395 . S
C990 C993 1.403 . S
C991 C988 1.403 . S
C991 C992 1.524 . S
C991 C995 1.400 . S
C992 H977 0.960 . S
C992 H978 0.960 . S
C992 H979 0.960 . S
C992 C991 1.524 . S
C993 C990 1.403 . S
C993 C994 1.392 . S
C993 C997 1.495 . S
C994 C993 1.392 . S
C994 C995 1.385 . S
C994 C996 1.478 . S
C995 H989 0.930 . S
C995 C991 1.400 . S
C995 C994 1.385 . S
C996 C994 1.478 . S
C996 C998 1.381 . S
C996 C1002 1.383 1_545 S
C997 C993 1.495 . S
C997 H1003 0.959 . S
C997 H1004 0.961 . S
C997 H1005 0.960 . S
C998 C996 1.381 . S
C998 C999 1.394 1_545 S
C998 H1006 0.930 . S
C999 C998 1.394 1_565 S
C999 C1000 1.383 . S
C999 H1007 0.929 . S
C1000 C999 1.383 . S
C1000 C1001 1.377 . S
C1001 H985 0.930 . S
C1001 C1000 1.377 . S
C1001 C1002 1.379 . S
C1002 H986 0.931 . S
C1002 C996 1.383 1_565 S
C1002 C1001 1.379 . S
H1003 C997 0.959 . S
H1004 C997 0.961 . S
H1005 C997 0.960 . S
H1006 C998 0.930 . S
H1007 C999 0.929 . S
H1008 C1016 0.929 . S
H1009 C1018 0.930 . S
H1010 C1020 0.932 1_655 S
H1011 C1023 0.929 . S
H1012 C1026 0.930 . S
H1013 C1028 0.960 . S
H1014 C1028 0.960 . S
H1015 C1028 0.960 . S
C1016 H1008 0.929 . S
C1016 C1017 1.377 . S
C1016 C1018 1.384 1_455 S
C1017 C1016 1.377 . S
C1017 C1023 1.390 . S
C1018 H1009 0.930 . S
C1018 C1016 1.384 1_655 S
C1018 C1019 1.372 . S
C1019 C1018 1.372 . S
C1019 C1020 1.400 1_655 S
C1019 C1024 1.490 . S
C1020 H1010 0.932 1_455 S
C1020 C1019 1.400 1_455 S
C1020 C1023 1.386 . S
H1021 C1037 0.930 . S
H1022 C1038 0.931 1_545 S
C1023 H1011 0.929 . S
C1023 C1017 1.390 . S
C1023 C1020 1.386 . S
C1024 C1019 1.490 . S
C1024 C1026 1.395 . S
C1024 C1027 1.403 . S
H1025 C1031 0.930 . S
C1026 H1012 0.930 . S
C1026 C1024 1.395 . S
C1026 C1029 1.403 . S
C1027 C1024 1.403 . S
C1027 C1028 1.524 . S
C1027 C1031 1.400 . S
C1028 H1013 0.960 . S
C1028 H1014 0.960 . S
C1028 H1015 0.960 . S
C1028 C1027 1.524 . S
C1029 C1026 1.403 . S
C1029 C1030 1.392 . S
C1029 C1033 1.495 . S
C1030 C1029 1.392 . S
C1030 C1031 1.385 . S
C1030 C1032 1.478 . S
C1031 H1025 0.930 . S
C1031 C1027 1.400 . S
C1031 C1030 1.385 . S
C1032 C1030 1.478 . S
C1032 C1034 1.381 . S
C1032 C1038 1.383 1_545 S
C1033 C1029 1.495 . S
C1033 H1039 0.959 . S
C1033 H1040 0.961 . S
C1033 H1041 0.960 . S
C1034 C1032 1.381 . S
C1034 C1035 1.394 1_545 S
C1034 H1042 0.930 . S
C1035 C1034 1.394 1_565 S
C1035 C1036 1.383 . S
C1035 H1043 0.929 . S
C1036 C1035 1.383 . S
C1036 C1037 1.377 . S
C1037 H1021 0.930 . S
C1037 C1036 1.377 . S
C1037 C1038 1.379 . S
C1038 H1022 0.931 1_565 S
C1038 C1032 1.383 1_565 S
C1038 C1037 1.379 . S
H1039 C1033 0.959 . S
H1040 C1033 0.961 . S
H1041 C1033 0.960 . S
H1042 C1034 0.930 . S
H1043 C1035 0.929 . S
H1044 C1052 0.929 . S
H1045 C1054 0.930 . S
H1046 C1056 0.930 . S
H1047 C1059 0.929 . S
H1048 C1062 0.930 . S
H1049 C1064 0.960 . S
H1050 C1064 0.960 . S
H1051 C1064 0.960 . S
C1052 H1044 0.929 . S
C1052 C1053 1.377 . S
C1052 C1054 1.384 . S
C1053 C1052 1.377 . S
C1053 C1059 1.390 . S
C1054 H1045 0.930 . S
C1054 C1052 1.384 . S
C1054 C1055 1.372 . S
C1055 C1054 1.372 . S
C1055 C1056 1.400 . S
C1055 C1060 1.490 . S
C1056 H1046 0.930 . S
C1056 C1055 1.400 . S
C1056 C1059 1.386 . S
H1057 C1073 0.930 . S
H1058 C1074 0.931 . S
C1059 H1047 0.929 . S
C1059 C1053 1.390 . S
C1059 C1056 1.386 . S
C1060 C1055 1.490 . S
C1060 C1062 1.395 . S
C1060 C1063 1.403 . S
H1061 C1067 0.930 . S
C1062 H1048 0.930 . S
C1062 C1060 1.395 . S
C1062 C1065 1.403 . S
C1063 C1060 1.403 . S
C1063 C1064 1.524 . S
C1063 C1067 1.400 . S
C1064 H1049 0.960 . S
C1064 H1050 0.960 . S
C1064 H1051 0.960 . S
C1064 C1063 1.524 . S
C1065 C1062 1.403 . S
C1065 C1066 1.392 . S
C1065 C1069 1.495 . S
C1066 C1065 1.392 . S
C1066 C1067 1.385 . S
C1066 C1068 1.478 . S
C1067 H1061 0.930 . S
C1067 C1063 1.400 . S
C1067 C1066 1.385 . S
C1068 C1066 1.478 . S
C1068 C1070 1.381 . S
C1068 C1074 1.383 . S
C1069 C1065 1.495 . S
C1069 H1075 0.959 . S
C1069 H1076 0.961 . S
C1069 H1077 0.960 . S
C1070 C1068 1.381 . S
C1070 C1071 1.394 . S
C1070 H1078 0.930 . S
C1071 C1070 1.394 . S
C1071 C1072 1.383 . S
C1071 H1079 0.929 . S
C1072 C1071 1.383 . S
C1072 C1073 1.377 . S
C1073 H1057 0.930 . S
C1073 C1072 1.377 . S
C1073 C1074 1.379 . S
C1074 H1058 0.931 . S
C1074 C1068 1.383 . S
C1074 C1073 1.379 . S
H1075 C1069 0.959 . S
H1076 C1069 0.961 . S
H1077 C1069 0.960 . S
H1078 C1070 0.930 . S
H1079 C1071 0.929 . S
H1080 C1088 0.929 . S
H1081 C1090 0.930 . S
H1082 C1092 0.930 . S
H1083 C1095 0.929 . S
H1084 C1098 0.930 . S
H1085 C1100 0.960 . S
H1086 C1100 0.960 . S
H1087 C1100 0.960 . S
C1088 H1080 0.929 . S
C1088 C1089 1.377 . S
C1088 C1090 1.384 . S
C1089 C1088 1.377 . S
C1089 C1095 1.390 . S
C1090 H1081 0.930 . S
C1090 C1088 1.384 . S
C1090 C1091 1.372 . S
C1091 C1090 1.372 . S
C1091 C1092 1.400 . S
C1091 C1096 1.490 . S
C1092 H1082 0.930 . S
C1092 C1091 1.400 . S
C1092 C1095 1.386 . S
H1093 C1109 0.930 . S
H1094 C1110 0.931 . S
C1095 H1083 0.929 . S
C1095 C1089 1.390 . S
C1095 C1092 1.386 . S
C1096 C1091 1.490 . S
C1096 C1098 1.395 . S
C1096 C1099 1.403 . S
H1097 C1103 0.930 . S
C1098 H1084 0.930 . S
C1098 C1096 1.395 . S
C1098 C1101 1.403 . S
C1099 C1096 1.403 . S
C1099 C1100 1.524 . S
C1099 C1103 1.400 . S
C1100 H1085 0.960 . S
C1100 H1086 0.960 . S
C1100 H1087 0.960 . S
C1100 C1099 1.524 . S
C1101 C1098 1.403 . S
C1101 C1102 1.392 . S
C1101 C1105 1.495 . S
C1102 C1101 1.392 . S
C1102 C1103 1.385 . S
C1102 C1104 1.478 . S
C1103 H1097 0.930 . S
C1103 C1099 1.400 . S
C1103 C1102 1.385 . S
C1104 C1102 1.478 . S
C1104 C1106 1.381 . S
C1104 C1110 1.383 . S
C1105 C1101 1.495 . S
C1105 H1111 0.959 . S
C1105 H1112 0.961 . S
C1105 H1113 0.960 . S
C1106 C1104 1.381 . S
C1106 C1107 1.394 . S
C1106 H1114 0.930 . S
C1107 C1106 1.394 . S
C1107 C1108 1.383 . S
C1107 H1115 0.929 . S
C1108 C1107 1.383 . S
C1108 C1109 1.377 . S
C1109 H1093 0.930 . S
C1109 C1108 1.377 . S
C1109 C1110 1.379 . S
C1110 H1094 0.931 . S
C1110 C1104 1.383 . S
C1110 C1109 1.379 . S
H1111 C1105 0.959 . S
H1112 C1105 0.961 . S
H1113 C1105 0.960 . S
H1114 C1106 0.930 . S
H1115 C1107 0.929 . S
H1116 C1124 0.929 . S
H1117 C1126 0.930 . S
H1118 C1128 0.930 . S
H1119 C1131 0.929 . S
H1120 C1134 0.930 . S
H1121 C1136 0.960 . S
H1122 C1136 0.960 . S
H1123 C1136 0.960 . S
C1124 H1116 0.929 . S
C1124 C1125 1.377 . S
C1124 C1126 1.384 . S
C1125 C1124 1.377 . S
C1125 C1131 1.390 . S
C1126 H1117 0.930 . S
C1126 C1124 1.384 . S
C1126 C1127 1.372 . S
C1127 C1126 1.372 . S
C1127 C1128 1.400 . S
C1127 C1132 1.490 . S
C1128 H1118 0.930 . S
C1128 C1127 1.400 . S
C1128 C1131 1.386 . S
H1129 C1145 0.930 . S
H1130 C1146 0.931 . S
C1131 H1119 0.929 . S
C1131 C1125 1.390 . S
C1131 C1128 1.386 . S
C1132 C1127 1.490 . S
C1132 C1134 1.395 . S
C1132 C1135 1.403 . S
H1133 C1139 0.930 . S
C1134 H1120 0.930 . S
C1134 C1132 1.395 . S
C1134 C1137 1.403 . S
C1135 C1132 1.403 . S
C1135 C1136 1.524 . S
C1135 C1139 1.400 . S
C1136 H1121 0.960 . S
C1136 H1122 0.960 . S
C1136 H1123 0.960 . S
C1136 C1135 1.524 . S
C1137 C1134 1.403 . S
C1137 C1138 1.392 . S
C1137 C1141 1.495 . S
C1138 C1137 1.392 . S
C1138 C1139 1.385 . S
C1138 C1140 1.478 . S
C1139 H1133 0.930 . S
C1139 C1135 1.400 . S
C1139 C1138 1.385 . S
C1140 C1138 1.478 . S
C1140 C1142 1.381 . S
C1140 C1146 1.383 . S
C1141 C1137 1.495 . S
C1141 H1147 0.959 . S
C1141 H1148 0.961 . S
C1141 H1149 0.960 . S
C1142 C1140 1.381 . S
C1142 C1143 1.394 . S
C1142 H1150 0.930 . S
C1143 C1142 1.394 . S
C1143 C1144 1.383 . S
C1143 H1151 0.929 . S
C1144 C1143 1.383 . S
C1144 C1145 1.377 . S
C1145 H1129 0.930 . S
C1145 C1144 1.377 . S
C1145 C1146 1.379 . S
C1146 H1130 0.931 . S
C1146 C1140 1.383 . S
C1146 C1145 1.379 . S
H1147 C1141 0.959 . S
H1148 C1141 0.961 . S
H1149 C1141 0.960 . S
H1150 C1142 0.930 . S
H1151 C1143 0.929 . S
H1152 C1160 0.929 . S
H1153 C1162 0.930 . S
H1154 C1164 0.930 . S
H1155 C1167 0.929 . S
H1156 C1170 0.930 . S
H1157 C1172 0.960 . S
H1158 C1172 0.960 . S
H1159 C1172 0.960 . S
C1160 H1152 0.929 . S
C1160 C1161 1.377 . S
C1160 C1162 1.384 . S
C1161 C1160 1.377 . S
C1161 C1167 1.390 . S
C1162 H1153 0.930 . S
C1162 C1160 1.384 . S
C1162 C1163 1.372 . S
C1163 C1162 1.372 . S
C1163 C1164 1.400 . S
C1163 C1168 1.490 . S
C1164 H1154 0.930 . S
C1164 C1163 1.400 . S
C1164 C1167 1.386 . S
H1165 C1181 0.930 . S
H1166 C1182 0.931 . S
C1167 H1155 0.929 . S
C1167 C1161 1.390 . S
C1167 C1164 1.386 . S
C1168 C1163 1.490 . S
C1168 C1170 1.395 . S
C1168 C1171 1.403 . S
H1169 C1175 0.930 . S
C1170 H1156 0.930 . S
C1170 C1168 1.395 . S
C1170 C1173 1.403 . S
C1171 C1168 1.403 . S
C1171 C1172 1.524 . S
C1171 C1175 1.400 . S
C1172 H1157 0.960 . S
C1172 H1158 0.960 . S
C1172 H1159 0.960 . S
C1172 C1171 1.524 . S
C1173 C1170 1.403 . S
C1173 C1174 1.392 . S
C1173 C1177 1.495 . S
C1174 C1173 1.392 . S
C1174 C1175 1.385 . S
C1174 C1176 1.478 . S
C1175 H1169 0.930 . S
C1175 C1171 1.400 . S
C1175 C1174 1.385 . S
C1176 C1174 1.478 . S
C1176 C1178 1.381 . S
C1176 C1182 1.383 . S
C1177 C1173 1.495 . S
C1177 H1183 0.959 . S
C1177 H1184 0.961 . S
C1177 H1185 0.960 . S
C1178 C1176 1.381 . S
C1178 C1179 1.394 . S
C1178 H1186 0.930 . S
C1179 C1178 1.394 . S
C1179 C1180 1.383 . S
C1179 H1187 0.929 . S
C1180 C1179 1.383 . S
C1180 C1181 1.377 . S
C1181 H1165 0.930 . S
C1181 C1180 1.377 . S
C1181 C1182 1.379 . S
C1182 H1166 0.931 . S
C1182 C1176 1.383 . S
C1182 C1181 1.379 . S
H1183 C1177 0.959 . S
H1184 C1177 0.961 . S
H1185 C1177 0.960 . S
H1186 C1178 0.930 . S
H1187 C1179 0.929 . S
H1188 C1196 0.929 . S
H1189 C1198 0.930 . S
H1190 C1200 0.930 . S
H1191 C1203 0.929 . S
H1192 C1206 0.930 . S
H1193 C1208 0.960 . S
H1194 C1208 0.960 . S
H1195 C1208 0.960 . S
C1196 H1188 0.929 . S
C1196 C1197 1.377 . S
C1196 C1198 1.384 . S
C1197 C1196 1.377 . S
C1197 C1203 1.390 . S
C1198 H1189 0.930 . S
C1198 C1196 1.384 . S
C1198 C1199 1.372 . S
C1199 C1198 1.372 . S
C1199 C1200 1.400 . S
C1199 C1204 1.490 . S
C1200 H1190 0.930 . S
C1200 C1199 1.400 . S
C1200 C1203 1.386 . S
H1201 C1217 0.930 . S
H1202 C1218 0.931 . S
C1203 H1191 0.929 . S
C1203 C1197 1.390 . S
C1203 C1200 1.386 . S
C1204 C1199 1.490 . S
C1204 C1206 1.395 . S
C1204 C1207 1.403 . S
H1205 C1211 0.930 . S
C1206 H1192 0.930 . S
C1206 C1204 1.395 . S
C1206 C1209 1.403 . S
C1207 C1204 1.403 . S
C1207 C1208 1.524 . S
C1207 C1211 1.400 . S
C1208 H1193 0.960 . S
C1208 H1194 0.960 . S
C1208 H1195 0.960 . S
C1208 C1207 1.524 . S
C1209 C1206 1.403 . S
C1209 C1210 1.392 . S
C1209 C1213 1.495 . S
C1210 C1209 1.392 . S
C1210 C1211 1.385 . S
C1210 C1212 1.478 . S
C1211 H1205 0.930 . S
C1211 C1207 1.400 . S
C1211 C1210 1.385 . S
C1212 C1210 1.478 . S
C1212 C1214 1.381 . S
C1212 C1218 1.383 . S
C1213 C1209 1.495 . S
C1213 H1219 0.959 . S
C1213 H1220 0.961 . S
C1213 H1221 0.960 . S
C1214 C1212 1.381 . S
C1214 C1215 1.394 . S
C1214 H1222 0.930 . S
C1215 C1214 1.394 . S
C1215 C1216 1.383 . S
C1215 H1223 0.929 . S
C1216 C1215 1.383 . S
C1216 C1217 1.377 . S
C1217 H1201 0.930 . S
C1217 C1216 1.377 . S
C1217 C1218 1.379 . S
C1218 H1202 0.931 . S
C1218 C1212 1.383 . S
C1218 C1217 1.379 . S
H1219 C1213 0.959 . S
H1220 C1213 0.961 . S
H1221 C1213 0.960 . S
H1222 C1214 0.930 . S
H1223 C1215 0.929 . S
H1224 C1232 0.929 . S
H1225 C1234 0.930 . S
H1226 C1236 0.930 . S
H1227 C1239 0.929 . S
H1228 C1242 0.930 . S
H1229 C1244 0.960 . S
H1230 C1244 0.960 . S
H1231 C1244 0.960 . S
C1232 H1224 0.929 . S
C1232 C1233 1.377 . S
C1232 C1234 1.384 . S
C1233 C1232 1.377 . S
C1233 C1239 1.390 . S
C1234 H1225 0.930 . S
C1234 C1232 1.384 . S
C1234 C1235 1.372 . S
C1235 C1234 1.372 . S
C1235 C1236 1.400 . S
C1235 C1240 1.490 . S
C1236 H1226 0.930 . S
C1236 C1235 1.400 . S
C1236 C1239 1.386 . S
H1237 C1253 0.930 . S
H1238 C1254 0.931 . S
C1239 H1227 0.929 . S
C1239 C1233 1.390 . S
C1239 C1236 1.386 . S
C1240 C1235 1.490 . S
C1240 C1242 1.395 . S
C1240 C1243 1.403 . S
H1241 C1247 0.930 . S
C1242 H1228 0.930 . S
C1242 C1240 1.395 . S
C1242 C1245 1.403 . S
C1243 C1240 1.403 . S
C1243 C1244 1.524 . S
C1243 C1247 1.400 . S
C1244 H1229 0.960 . S
C1244 H1230 0.960 . S
C1244 H1231 0.960 . S
C1244 C1243 1.524 . S
C1245 C1242 1.403 . S
C1245 C1246 1.392 . S
C1245 C1249 1.495 . S
C1246 C1245 1.392 . S
C1246 C1247 1.385 . S
C1246 C1248 1.478 . S
C1247 H1241 0.930 . S
C1247 C1243 1.400 . S
C1247 C1246 1.385 . S
C1248 C1246 1.478 . S
C1248 C1250 1.381 . S
C1248 C1254 1.383 . S
C1249 C1245 1.495 . S
C1249 H1255 0.959 . S
C1249 H1256 0.961 . S
C1249 H1257 0.960 . S
C1250 C1248 1.381 . S
C1250 C1251 1.394 . S
C1250 H1258 0.930 . S
C1251 C1250 1.394 . S
C1251 C1252 1.383 . S
C1251 H1259 0.929 . S
C1252 C1251 1.383 . S
C1252 C1253 1.377 . S
C1253 H1237 0.930 . S
C1253 C1252 1.377 . S
C1253 C1254 1.379 . S
C1254 H1238 0.931 . S
C1254 C1248 1.383 . S
C1254 C1253 1.379 . S
H1255 C1249 0.959 . S
H1256 C1249 0.961 . S
H1257 C1249 0.960 . S
H1258 C1250 0.930 . S
H1259 C1251 0.929 . S
H1260 C1268 0.929 . S
H1261 C1270 0.930 . S
H1262 C1272 0.930 . S
H1263 C1275 0.929 . S
H1264 C1278 0.930 . S
H1265 C1280 0.960 . S
H1266 C1280 0.960 . S
H1267 C1280 0.960 . S
C1268 H1260 0.929 . S
C1268 C1269 1.377 . S
C1268 C1270 1.384 . S
C1269 C1268 1.377 . S
C1269 C1275 1.390 . S
C1270 H1261 0.930 . S
C1270 C1268 1.384 . S
C1270 C1271 1.372 . S
C1271 C1270 1.372 . S
C1271 C1272 1.400 . S
C1271 C1276 1.490 . S
C1272 H1262 0.930 . S
C1272 C1271 1.400 . S
C1272 C1275 1.386 . S
H1273 C1289 0.930 . S
H1274 C1290 0.931 . S
C1275 H1263 0.929 . S
C1275 C1269 1.390 . S
C1275 C1272 1.386 . S
C1276 C1271 1.490 . S
C1276 C1278 1.395 . S
C1276 C1279 1.403 . S
H1277 C1283 0.930 . S
C1278 H1264 0.930 . S
C1278 C1276 1.395 . S
C1278 C1281 1.403 . S
C1279 C1276 1.403 . S
C1279 C1280 1.524 . S
C1279 C1283 1.400 . S
C1280 H1265 0.960 . S
C1280 H1266 0.960 . S
C1280 H1267 0.960 . S
C1280 C1279 1.524 . S
C1281 C1278 1.403 . S
C1281 C1282 1.392 . S
C1281 C1285 1.495 . S
C1282 C1281 1.392 . S
C1282 C1283 1.385 . S
C1282 C1284 1.478 . S
C1283 H1277 0.930 . S
C1283 C1279 1.400 . S
C1283 C1282 1.385 . S
C1284 C1282 1.478 . S
C1284 C1286 1.381 . S
C1284 C1290 1.383 . S
C1285 C1281 1.495 . S
C1285 H1291 0.959 . S
C1285 H1292 0.961 . S
C1285 H1293 0.960 . S
C1286 C1284 1.381 . S
C1286 C1287 1.394 . S
C1286 H1294 0.930 . S
C1287 C1286 1.394 . S
C1287 C1288 1.383 . S
C1287 H1295 0.929 . S
C1288 C1287 1.383 . S
C1288 C1289 1.377 . S
C1289 H1273 0.930 . S
C1289 C1288 1.377 . S
C1289 C1290 1.379 . S
C1290 H1274 0.931 . S
C1290 C1284 1.383 . S
C1290 C1289 1.379 . S
H1291 C1285 0.959 . S
H1292 C1285 0.961 . S
H1293 C1285 0.960 . S
H1294 C1286 0.930 . S
H1295 C1287 0.929 . S
H1296 C1304 0.929 . S
H1297 C1306 0.930 . S
H1298 C1308 0.930 . S
H1299 C1311 0.929 . S
H1300 C1314 0.930 . S
H1301 C1316 0.960 . S
H1302 C1316 0.960 . S
H1303 C1316 0.960 . S
C1304 H1296 0.929 . S
C1304 C1305 1.377 . S
C1304 C1306 1.384 . S
C1305 C1304 1.377 . S
C1305 C1311 1.390 . S
C1306 H1297 0.930 . S
C1306 C1304 1.384 . S
C1306 C1307 1.372 . S
C1307 C1306 1.372 . S
C1307 C1308 1.400 . S
C1307 C1312 1.490 . S
C1308 H1298 0.930 . S
C1308 C1307 1.400 . S
C1308 C1311 1.386 . S
H1309 C1325 0.930 . S
H1310 C1326 0.931 . S
C1311 H1299 0.929 . S
C1311 C1305 1.390 . S
C1311 C1308 1.386 . S
C1312 C1307 1.490 . S
C1312 C1314 1.395 . S
C1312 C1315 1.403 . S
H1313 C1319 0.930 . S
C1314 H1300 0.930 . S
C1314 C1312 1.395 . S
C1314 C1317 1.403 . S
C1315 C1312 1.403 . S
C1315 C1316 1.524 . S
C1315 C1319 1.400 . S
C1316 H1301 0.960 . S
C1316 H1302 0.960 . S
C1316 H1303 0.960 . S
C1316 C1315 1.524 . S
C1317 C1314 1.403 . S
C1317 C1318 1.392 . S
C1317 C1321 1.495 . S
C1318 C1317 1.392 . S
C1318 C1319 1.385 . S
C1318 C1320 1.478 . S
C1319 H1313 0.930 . S
C1319 C1315 1.400 . S
C1319 C1318 1.385 . S
C1320 C1318 1.478 . S
C1320 C1322 1.381 . S
C1320 C1326 1.383 . S
C1321 C1317 1.495 . S
C1321 H1327 0.959 . S
C1321 H1328 0.961 . S
C1321 H1329 0.960 . S
C1322 C1320 1.381 . S
C1322 C1323 1.394 . S
C1322 H1330 0.930 . S
C1323 C1322 1.394 . S
C1323 C1324 1.383 . S
C1323 H1331 0.929 . S
C1324 C1323 1.383 . S
C1324 C1325 1.377 . S
C1325 H1309 0.930 . S
C1325 C1324 1.377 . S
C1325 C1326 1.379 . S
C1326 H1310 0.931 . S
C1326 C1320 1.383 . S
C1326 C1325 1.379 . S
H1327 C1321 0.959 . S
H1328 C1321 0.961 . S
H1329 C1321 0.960 . S
H1330 C1322 0.930 . S
H1331 C1323 0.929 . S
H1332 C1340 0.929 . S
H1333 C1342 0.930 . S
H1334 C1344 0.930 . S
H1335 C1347 0.929 . S
H1336 C1350 0.930 . S
H1337 C1352 0.960 . S
H1338 C1352 0.960 . S
H1339 C1352 0.960 . S
C1340 H1332 0.929 . S
C1340 C1341 1.377 . S
C1340 C1342 1.384 . S
C1341 C1340 1.377 . S
C1341 C1347 1.390 . S
C1342 H1333 0.930 . S
C1342 C1340 1.384 . S
C1342 C1343 1.372 . S
C1343 C1342 1.372 . S
C1343 C1344 1.400 . S
C1343 C1348 1.490 . S
C1344 H1334 0.930 . S
C1344 C1343 1.400 . S
C1344 C1347 1.386 . S
H1345 C1361 0.930 . S
H1346 C1362 0.931 . S
C1347 H1335 0.929 . S
C1347 C1341 1.390 . S
C1347 C1344 1.386 . S
C1348 C1343 1.490 . S
C1348 C1350 1.395 . S
C1348 C1351 1.403 . S
H1349 C1355 0.930 . S
C1350 H1336 0.930 . S
C1350 C1348 1.395 . S
C1350 C1353 1.403 . S
C1351 C1348 1.403 . S
C1351 C1352 1.524 . S
C1351 C1355 1.400 . S
C1352 H1337 0.960 . S
C1352 H1338 0.960 . S
C1352 H1339 0.960 . S
C1352 C1351 1.524 . S
C1353 C1350 1.403 . S
C1353 C1354 1.392 . S
C1353 C1357 1.495 . S
C1354 C1353 1.392 . S
C1354 C1355 1.385 . S
C1354 C1356 1.478 . S
C1355 H1349 0.930 . S
C1355 C1351 1.400 . S
C1355 C1354 1.385 . S
C1356 C1354 1.478 . S
C1356 C1358 1.381 . S
C1356 C1362 1.383 . S
C1357 C1353 1.495 . S
C1357 H1363 0.959 . S
C1357 H1364 0.961 . S
C1357 H1365 0.960 . S
C1358 C1356 1.381 . S
C1358 C1359 1.394 . S
C1358 H1366 0.930 . S
C1359 C1358 1.394 . S
C1359 C1360 1.383 . S
C1359 H1367 0.929 . S
C1360 C1359 1.383 . S
C1360 C1361 1.377 . S
C1361 H1345 0.930 . S
C1361 C1360 1.377 . S
C1361 C1362 1.379 . S
C1362 H1346 0.931 . S
C1362 C1356 1.383 . S
C1362 C1361 1.379 . S
H1363 C1357 0.959 . S
H1364 C1357 0.961 . S
H1365 C1357 0.960 . S
H1366 C1358 0.930 . S
H1367 C1359 0.929 . S
H1368 C1376 0.929 . S
H1369 C1378 0.930 . S
H1370 C1380 0.930 . S
H1371 C1383 0.929 . S
H1372 C1386 0.930 . S
H1373 C1388 0.960 . S
H1374 C1388 0.960 . S
H1375 C1388 0.960 . S
C1376 H1368 0.929 . S
C1376 C1377 1.377 . S
C1376 C1378 1.384 . S
C1377 C1376 1.377 . S
C1377 C1383 1.390 . S
C1378 H1369 0.930 . S
C1378 C1376 1.384 . S
C1378 C1379 1.372 . S
C1379 C1378 1.372 . S
C1379 C1380 1.400 . S
C1379 C1384 1.490 . S
C1380 H1370 0.930 . S
C1380 C1379 1.400 . S
C1380 C1383 1.386 . S
H1381 C1397 0.930 . S
H1382 C1398 0.931 . S
C1383 H1371 0.929 . S
C1383 C1377 1.390 . S
C1383 C1380 1.386 . S
C1384 C1379 1.490 . S
C1384 C1386 1.395 . S
C1384 C1387 1.403 . S
H1385 C1391 0.930 . S
C1386 H1372 0.930 . S
C1386 C1384 1.395 . S
C1386 C1389 1.403 . S
C1387 C1384 1.403 . S
C1387 C1388 1.524 . S
C1387 C1391 1.400 . S
C1388 H1373 0.960 . S
C1388 H1374 0.960 . S
C1388 H1375 0.960 . S
C1388 C1387 1.524 . S
C1389 C1386 1.403 . S
C1389 C1390 1.392 . S
C1389 C1393 1.495 . S
C1390 C1389 1.392 . S
C1390 C1391 1.385 . S
C1390 C1392 1.478 . S
C1391 H1385 0.930 . S
C1391 C1387 1.400 . S
C1391 C1390 1.385 . S
C1392 C1390 1.478 . S
C1392 C1394 1.381 . S
C1392 C1398 1.383 . S
C1393 C1389 1.495 . S
C1393 H1399 0.959 . S
C1393 H1400 0.961 . S
C1393 H1401 0.960 . S
C1394 C1392 1.381 . S
C1394 C1395 1.394 . S
C1394 H1402 0.930 . S
C1395 C1394 1.394 . S
C1395 C1396 1.383 . S
C1395 H1403 0.929 . S
C1396 C1395 1.383 . S
C1396 C1397 1.377 . S
C1397 H1381 0.930 . S
C1397 C1396 1.377 . S
C1397 C1398 1.379 . S
C1398 H1382 0.931 . S
C1398 C1392 1.383 . S
C1398 C1397 1.379 . S
H1399 C1393 0.959 . S
H1400 C1393 0.961 . S
H1401 C1393 0.960 . S
H1402 C1394 0.930 . S
H1403 C1395 0.929 . S
H1404 C1412 0.929 . S
H1405 C1414 0.930 . S
H1406 C1416 0.930 . S
H1407 C1419 0.929 . S
H1408 C1422 0.930 . S
H1409 C1424 0.960 . S
H1410 C1424 0.960 . S
H1411 C1424 0.960 . S
C1412 H1404 0.929 . S
C1412 C1413 1.377 . S
C1412 C1414 1.384 . S
C1413 C1412 1.377 . S
C1413 C1419 1.390 . S
C1414 H1405 0.930 . S
C1414 C1412 1.384 . S
C1414 C1415 1.372 . S
C1415 C1414 1.372 . S
C1415 C1416 1.400 . S
C1415 C1420 1.490 . S
C1416 H1406 0.930 . S
C1416 C1415 1.400 . S
C1416 C1419 1.386 . S
H1417 C1433 0.930 . S
H1418 C1434 0.931 . S
C1419 H1407 0.929 . S
C1419 C1413 1.390 . S
C1419 C1416 1.386 . S
C1420 C1415 1.490 . S
C1420 C1422 1.395 . S
C1420 C1423 1.403 . S
H1421 C1427 0.930 . S
C1422 H1408 0.930 . S
C1422 C1420 1.395 . S
C1422 C1425 1.403 . S
C1423 C1420 1.403 . S
C1423 C1424 1.524 . S
C1423 C1427 1.400 . S
C1424 H1409 0.960 . S
C1424 H1410 0.960 . S
C1424 H1411 0.960 . S
C1424 C1423 1.524 . S
C1425 C1422 1.403 . S
C1425 C1426 1.392 . S
C1425 C1429 1.495 . S
C1426 C1425 1.392 . S
C1426 C1427 1.385 . S
C1426 C1428 1.478 . S
C1427 H1421 0.930 . S
C1427 C1423 1.400 . S
C1427 C1426 1.385 . S
C1428 C1426 1.478 . S
C1428 C1430 1.381 . S
C1428 C1434 1.383 . S
C1429 C1425 1.495 . S
C1429 H1435 0.959 . S
C1429 H1436 0.961 . S
C1429 H1437 0.960 . S
C1430 C1428 1.381 . S
C1430 C1431 1.394 . S
C1430 H1438 0.930 . S
C1431 C1430 1.394 . S
C1431 C1432 1.383 . S
C1431 H1439 0.929 . S
C1432 C1431 1.383 . S
C1432 C1433 1.377 . S
C1433 H1417 0.930 . S
C1433 C1432 1.377 . S
C1433 C1434 1.379 . S
C1434 H1418 0.931 . S
C1434 C1428 1.383 . S
C1434 C1433 1.379 . S
H1435 C1429 0.959 . S
H1436 C1429 0.961 . S
H1437 C1429 0.960 . S
H1438 C1430 0.930 . S
H1439 C1431 0.929 . S
H1440 C1448 0.929 . S
H1441 C1450 0.930 . S
H1442 C1452 0.930 . S
H1443 C1455 0.929 . S
H1444 C1458 0.930 . S
H1445 C1460 0.960 . S
H1446 C1460 0.960 . S
H1447 C1460 0.960 . S
C1448 H1440 0.929 . S
C1448 C1449 1.377 . S
C1448 C1450 1.384 . S
C1449 C1448 1.377 . S
C1449 C1455 1.390 . S
C1450 H1441 0.930 . S
C1450 C1448 1.384 . S
C1450 C1451 1.372 . S
C1451 C1450 1.372 . S
C1451 C1452 1.400 . S
C1451 C1456 1.490 . S
C1452 H1442 0.930 . S
C1452 C1451 1.400 . S
C1452 C1455 1.386 . S
H1453 C1469 0.930 . S
H1454 C1470 0.931 . S
C1455 H1443 0.929 . S
C1455 C1449 1.390 . S
C1455 C1452 1.386 . S
C1456 C1451 1.490 . S
C1456 C1458 1.395 . S
C1456 C1459 1.403 . S
H1457 C1463 0.930 . S
C1458 H1444 0.930 . S
C1458 C1456 1.395 . S
C1458 C1461 1.403 . S
C1459 C1456 1.403 . S
C1459 C1460 1.524 . S
C1459 C1463 1.400 . S
C1460 H1445 0.960 . S
C1460 H1446 0.960 . S
C1460 H1447 0.960 . S
C1460 C1459 1.524 . S
C1461 C1458 1.403 . S
C1461 C1462 1.392 . S
C1461 C1465 1.495 . S
C1462 C1461 1.392 . S
C1462 C1463 1.385 . S
C1462 C1464 1.478 . S
C1463 H1457 0.930 . S
C1463 C1459 1.400 . S
C1463 C1462 1.385 . S
C1464 C1462 1.478 . S
C1464 C1466 1.381 . S
C1464 C1470 1.383 . S
C1465 C1461 1.495 . S
C1465 H1471 0.959 . S
C1465 H1472 0.961 . S
C1465 H1473 0.960 . S
C1466 C1464 1.381 . S
C1466 C1467 1.394 . S
C1466 H1474 0.930 . S
C1467 C1466 1.394 . S
C1467 C1468 1.383 . S
C1467 H1475 0.929 . S
C1468 C1467 1.383 . S
C1468 C1469 1.377 . S
C1469 H1453 0.930 . S
C1469 C1468 1.377 . S
C1469 C1470 1.379 . S
C1470 H1454 0.931 . S
C1470 C1464 1.383 . S
C1470 C1469 1.379 . S
H1471 C1465 0.959 . S
H1472 C1465 0.961 . S
H1473 C1465 0.960 . S
H1474 C1466 0.930 . S
H1475 C1467 0.929 . S
H1476 C1484 0.929 . S
H1477 C1486 0.930 . S
H1478 C1488 0.930 . S
H1479 C1491 0.929 . S
H1480 C1494 0.930 . S
H1481 C1496 0.960 . S
H1482 C1496 0.960 . S
H1483 C1496 0.960 . S
C1484 H1476 0.929 . S
C1484 C1485 1.377 . S
C1484 C1486 1.384 . S
C1485 C1484 1.377 . S
C1485 C1491 1.390 . S
C1486 H1477 0.930 . S
C1486 C1484 1.384 . S
C1486 C1487 1.372 . S
C1487 C1486 1.372 . S
C1487 C1488 1.400 . S
C1487 C1492 1.490 . S
C1488 H1478 0.930 . S
C1488 C1487 1.400 . S
C1488 C1491 1.386 . S
H1489 C1505 0.930 . S
H1490 C1506 0.931 . S
C1491 H1479 0.929 . S
C1491 C1485 1.390 . S
C1491 C1488 1.386 . S
C1492 C1487 1.490 . S
C1492 C1494 1.395 . S
C1492 C1495 1.403 . S
H1493 C1499 0.930 . S
C1494 H1480 0.930 . S
C1494 C1492 1.395 . S
C1494 C1497 1.403 . S
C1495 C1492 1.403 . S
C1495 C1496 1.524 . S
C1495 C1499 1.400 . S
C1496 H1481 0.960 . S
C1496 H1482 0.960 . S
C1496 H1483 0.960 . S
C1496 C1495 1.524 . S
C1497 C1494 1.403 . S
C1497 C1498 1.392 . S
C1497 C1501 1.495 . S
C1498 C1497 1.392 . S
C1498 C1499 1.385 . S
C1498 C1500 1.478 . S
C1499 H1493 0.930 . S
C1499 C1495 1.400 . S
C1499 C1498 1.385 . S
C1500 C1498 1.478 . S
C1500 C1502 1.381 . S
C1500 C1506 1.383 . S
C1501 C1497 1.495 . S
C1501 H1507 0.959 . S
C1501 H1508 0.961 . S
C1501 H1509 0.960 . S
C1502 C1500 1.381 . S
C1502 C1503 1.394 . S
C1502 H1510 0.930 . S
C1503 C1502 1.394 . S
C1503 C1504 1.383 . S
C1503 H1511 0.929 . S
C1504 C1503 1.383 . S
C1504 C1505 1.377 . S
C1505 H1489 0.930 . S
C1505 C1504 1.377 . S
C1505 C1506 1.379 . S
C1506 H1490 0.931 . S
C1506 C1500 1.383 . S
C1506 C1505 1.379 . S
H1507 C1501 0.959 . S
H1508 C1501 0.961 . S
H1509 C1501 0.960 . S
H1510 C1502 0.930 . S
H1511 C1503 0.929 . S
H1512 C1520 0.929 . S
H1513 C1522 0.930 . S
H1514 C1524 0.930 . S
H1515 C1527 0.929 . S
H1516 C1530 0.930 . S
H1517 C1532 0.960 . S
H1518 C1532 0.960 . S
H1519 C1532 0.960 . S
C1520 H1512 0.929 . S
C1520 C1521 1.377 . S
C1520 C1522 1.384 . S
C1521 C1520 1.377 . S
C1521 C1527 1.390 . S
C1522 H1513 0.930 . S
C1522 C1520 1.384 . S
C1522 C1523 1.372 . S
C1523 C1522 1.372 . S
C1523 C1524 1.400 . S
C1523 C1528 1.490 . S
C1524 H1514 0.930 . S
C1524 C1523 1.400 . S
C1524 C1527 1.386 . S
H1525 C1541 0.930 . S
H1526 C1542 0.931 . S
C1527 H1515 0.929 . S
C1527 C1521 1.390 . S
C1527 C1524 1.386 . S
C1528 C1523 1.490 . S
C1528 C1530 1.395 1_545 S
C1528 C1531 1.403 . S
H1529 C1535 0.930 . S
C1530 H1516 0.930 . S
C1530 C1528 1.395 1_565 S
C1530 C1533 1.403 . S
C1531 C1528 1.403 . S
C1531 C1532 1.524 . S
C1531 C1535 1.400 . S
C1532 H1517 0.960 . S
C1532 H1518 0.960 . S
C1532 H1519 0.960 . S
C1532 C1531 1.524 . S
C1533 C1530 1.403 . S
C1533 C1534 1.392 . S
C1533 C1537 1.495 . S
C1534 C1533 1.392 . S
C1534 C1535 1.385 1_565 S
C1534 C1536 1.478 . S
C1535 H1529 0.930 . S
C1535 C1531 1.400 . S
C1535 C1534 1.385 1_545 S
C1536 C1534 1.478 . S
C1536 C1538 1.381 . S
C1536 C1542 1.383 . S
C1537 C1533 1.495 . S
C1537 H1543 0.959 . S
C1537 H1544 0.961 . S
C1537 H1545 0.960 . S
C1538 C1536 1.381 . S
C1538 C1539 1.394 . S
C1538 H1546 0.930 . S
C1539 C1538 1.394 . S
C1539 C1540 1.383 . S
C1539 H1547 0.929 . S
C1540 C1539 1.383 . S
C1540 C1541 1.377 . S
C1541 H1525 0.930 . S
C1541 C1540 1.377 . S
C1541 C1542 1.379 . S
C1542 H1526 0.931 . S
C1542 C1536 1.383 . S
C1542 C1541 1.379 . S
H1543 C1537 0.959 . S
H1544 C1537 0.961 . S
H1545 C1537 0.960 . S
H1546 C1538 0.930 . S
H1547 C1539 0.929 . S
H1548 C1556 0.929 . S
H1549 C1558 0.930 . S
H1550 C1560 0.930 . S
H1551 C1563 0.929 . S
H1552 C1566 0.930 . S
H1553 C1568 0.960 . S
H1554 C1568 0.960 . S
H1555 C1568 0.960 . S
C1556 H1548 0.929 . S
C1556 C1557 1.377 . S
C1556 C1558 1.384 . S
C1557 C1556 1.377 . S
C1557 C1563 1.390 . S
C1558 H1549 0.930 . S
C1558 C1556 1.384 . S
C1558 C1559 1.372 . S
C1559 C1558 1.372 . S
C1559 C1560 1.400 . S
C1559 C1564 1.490 . S
C1560 H1550 0.930 . S
C1560 C1559 1.400 . S
C1560 C1563 1.386 . S
H1561 C1577 0.930 . S
H1562 C1578 0.931 . S
C1563 H1551 0.929 . S
C1563 C1557 1.390 . S
C1563 C1560 1.386 . S
C1564 C1559 1.490 . S
C1564 C1566 1.395 1_455 S
C1564 C1567 1.403 . S
H1565 C1571 0.937 . S
C1566 H1552 0.930 . S
C1566 C1564 1.395 1_655 S
C1566 C1569 1.403 . S
C1567 C1564 1.403 . S
C1567 C1568 1.524 . S
C1567 C1571 1.388 1_455 S
C1568 H1553 0.960 . S
C1568 H1554 0.960 . S
C1568 H1555 0.960 . S
C1568 C1567 1.524 . S
C1569 C1566 1.403 . S
C1569 C1570 1.392 . S
C1569 C1573 1.495 . S
C1570 C1569 1.392 . S
C1570 C1571 1.391 . S
C1570 C1572 1.478 . S
C1571 H1565 0.937 . S
C1571 C1567 1.388 1_655 S
C1571 C1570 1.391 . S
C1572 C1570 1.478 . S
C1572 C1574 1.381 . S
C1572 C1578 1.383 . S
C1573 C1569 1.495 . S
C1573 H1579 0.959 . S
C1573 H1580 0.961 . S
C1573 H1581 0.960 . S
C1574 C1572 1.381 . S
C1574 C1575 1.394 . S
C1574 H1582 0.930 . S
C1575 C1574 1.394 . S
C1575 C1576 1.383 . S
C1575 H1583 0.929 . S
C1576 C1575 1.383 . S
C1576 C1577 1.377 . S
C1577 H1561 0.930 . S
C1577 C1576 1.377 . S
C1577 C1578 1.379 . S
C1578 H1562 0.931 . S
C1578 C1572 1.383 . S
C1578 C1577 1.379 . S
H1579 C1573 0.959 . S
H1580 C1573 0.961 . S
H1581 C1573 0.960 . S
H1582 C1574 0.930 . S
H1583 C1575 0.929 . S
H1584 C1592 0.929 . S
H1585 C1594 0.930 . S
H1586 C1596 0.930 . S
H1587 C1599 0.929 . S
H1588 C1602 0.930 . S
H1589 C1604 0.960 . S
H1590 C1604 0.960 . S
H1591 C1604 0.960 . S
C1592 H1584 0.929 . S
C1592 C1593 1.377 . S
C1592 C1594 1.384 . S
C1593 C1592 1.377 . S
C1593 C1599 1.390 . S
C1594 H1585 0.930 . S
C1594 C1592 1.384 . S
C1594 C1595 1.372 . S
C1595 C1594 1.372 . S
C1595 C1596 1.400 . S
C1595 C1600 1.490 . S
C1596 H1586 0.930 . S
C1596 C1595 1.400 . S
C1596 C1599 1.386 . S
H1597 C1613 0.930 . S
H1598 C1614 0.931 . S
C1599 H1587 0.929 . S
C1599 C1593 1.390 . S
C1599 C1596 1.386 . S
C1600 C1595 1.490 . S
C1600 C1602 1.395 . S
C1600 C1603 1.403 . S
H1601 C1607 0.930 . S
C1602 H1588 0.930 . S
C1602 C1600 1.395 . S
C1602 C1605 1.403 . S
C1603 C1600 1.403 . S
C1603 C1604 1.524 . S
C1603 C1607 1.400 . S
C1604 H1589 0.960 . S
C1604 H1590 0.960 . S
C1604 H1591 0.960 . S
C1604 C1603 1.524 . S
C1605 C1602 1.403 . S
C1605 C1606 1.392 . S
C1605 C1609 1.495 . S
C1606 C1605 1.392 . S
C1606 C1607 1.385 . S
C1606 C1608 1.478 . S
C1607 H1601 0.930 . S
C1607 C1603 1.400 . S
C1607 C1606 1.385 . S
C1608 C1606 1.478 . S
C1608 C1610 1.381 . S
C1608 C1614 1.383 . S
C1609 C1605 1.495 . S
C1609 H1615 0.959 . S
C1609 H1616 0.961 . S
C1609 H1617 0.960 . S
C1610 C1608 1.381 . S
C1610 C1611 1.394 . S
C1610 H1618 0.930 . S
C1611 C1610 1.394 . S
C1611 C1612 1.383 . S
C1611 H1619 0.929 . S
C1612 C1611 1.383 . S
C1612 C1613 1.377 . S
C1613 H1597 0.930 . S
C1613 C1612 1.377 . S
C1613 C1614 1.379 . S
C1614 H1598 0.931 . S
C1614 C1608 1.383 . S
C1614 C1613 1.379 . S
H1615 C1609 0.959 . S
H1616 C1609 0.961 . S
H1617 C1609 0.960 . S
H1618 C1610 0.930 . S
H1619 C1611 0.929 . S
H1620 C1628 0.929 . S
H1621 C1630 0.930 . S
H1622 C1632 0.930 . S
H1623 C1635 0.929 . S
H1624 C1638 0.930 . S
H1625 C1640 0.960 . S
H1626 C1640 0.960 . S
H1627 C1640 0.960 . S
C1628 H1620 0.929 . S
C1628 C1629 1.377 . S
C1628 C1630 1.384 . S
C1629 C1628 1.377 . S
C1629 C1635 1.390 . S
C1630 H1621 0.930 . S
C1630 C1628 1.384 . S
C1630 C1631 1.372 . S
C1631 C1630 1.372 . S
C1631 C1632 1.400 . S
C1631 C1636 1.490 . S
C1632 H1622 0.930 . S
C1632 C1631 1.400 . S
C1632 C1635 1.386 . S
H1633 C1649 0.930 . S
H1634 C1650 0.931 . S
C1635 H1623 0.929 . S
C1635 C1629 1.390 . S
C1635 C1632 1.386 . S
C1636 C1631 1.490 . S
C1636 C1638 1.395 1_545 S
C1636 C1639 1.403 . S
H1637 C1643 0.930 . S
C1638 H1624 0.930 . S
C1638 C1636 1.395 1_565 S
C1638 C1641 1.403 . S
C1639 C1636 1.403 . S
C1639 C1640 1.524 . S
C1639 C1643 1.400 . S
C1640 H1625 0.960 . S
C1640 H1626 0.960 . S
C1640 H1627 0.960 . S
C1640 C1639 1.524 . S
C1641 C1638 1.403 . S
C1641 C1642 1.392 . S
C1641 C1645 1.495 . S
C1642 C1641 1.392 . S
C1642 C1643 1.385 1_565 S
C1642 C1644 1.478 . S
C1643 H1637 0.930 . S
C1643 C1639 1.400 . S
C1643 C1642 1.385 1_545 S
C1644 C1642 1.478 . S
C1644 C1646 1.381 . S
C1644 C1650 1.383 . S
C1645 C1641 1.495 . S
C1645 H1651 0.959 . S
C1645 H1652 0.961 . S
C1645 H1653 0.960 . S
C1646 C1644 1.381 . S
C1646 C1647 1.394 . S
C1646 H1654 0.930 . S
C1647 C1646 1.394 . S
C1647 C1648 1.383 . S
C1647 H1655 0.929 . S
C1648 C1647 1.383 . S
C1648 C1649 1.377 . S
C1649 H1633 0.930 . S
C1649 C1648 1.377 . S
C1649 C1650 1.379 . S
C1650 H1634 0.931 . S
C1650 C1644 1.383 . S
C1650 C1649 1.379 . S
H1651 C1645 0.959 . S
H1652 C1645 0.961 . S
H1653 C1645 0.960 . S
H1654 C1646 0.930 . S
H1655 C1647 0.929 . S
H1656 C1664 0.929 . S
H1657 C1666 0.930 . S
H1658 C1668 0.930 . S
H1659 C1671 0.929 . S
H1660 C1674 0.930 . S
H1661 C1676 0.960 . S
H1662 C1676 0.960 . S
H1663 C1676 0.966 . S
C1664 H1656 0.929 . S
C1664 C1665 1.377 . S
C1664 C1666 1.384 . S
C1665 C1664 1.377 . S
C1665 C1671 1.390 . S
C1666 H1657 0.930 . S
C1666 C1664 1.384 . S
C1666 C1667 1.372 . S
C1667 C1666 1.372 . S
C1667 C1668 1.400 . S
C1667 C1672 1.490 . S
C1668 H1658 0.930 . S
C1668 C1667 1.400 . S
C1668 C1671 1.386 . S
H1669 C1685 0.930 . S
H1670 C1686 0.931 . S
C1671 H1659 0.929 . S
C1671 C1665 1.390 . S
C1671 C1668 1.386 . S
C1672 C1667 1.490 . S
C1672 C1674 1.395 . S
C1672 C1675 1.403 1_455 S
H1673 C1679 0.930 . S
C1674 H1660 0.930 . S
C1674 C1672 1.395 . S
C1674 C1677 1.403 . S
C1675 C1672 1.403 1_655 S
C1675 C1676 1.524 . S
C1675 C1679 1.400 . S
C1676 H1661 0.960 . S
C1676 H1662 0.960 . S
C1676 H1663 0.966 . S
C1676 C1675 1.524 . S
C1677 C1674 1.403 . S
C1677 C1678 1.392 1_455 S
C1677 C1681 1.495 . S
C1678 C1677 1.392 1_655 S
C1678 C1679 1.385 . S
C1678 C1680 1.478 . S
C1679 H1673 0.930 . S
C1679 C1675 1.400 . S
C1679 C1678 1.385 . S
C1680 C1678 1.478 . S
C1680 C1682 1.381 . S
C1680 C1686 1.383 . S
C1681 C1677 1.495 . S
C1681 H1687 0.959 . S
C1681 H1688 0.961 . S
C1681 H1689 0.973 . S
C1682 C1680 1.381 . S
C1682 C1683 1.394 . S
C1682 H1690 0.930 . S
C1683 C1682 1.394 . S
C1683 C1684 1.383 . S
C1683 H1691 0.929 . S
C1684 C1683 1.383 . S
C1684 C1685 1.377 . S
C1685 H1669 0.930 . S
C1685 C1684 1.377 . S
C1685 C1686 1.379 . S
C1686 H1670 0.931 . S
C1686 C1680 1.383 . S
C1686 C1685 1.379 . S
H1687 C1681 0.959 . S
H1688 C1681 0.961 . S
H1689 C1681 0.973 . S
H1690 C1682 0.930 . S
H1691 C1683 0.929 . S
H1692 C1700 0.929 . S
H1693 C1702 0.930 . S
H1694 C1704 0.930 . S
H1695 C1707 0.929 . S
H1696 C1710 0.930 . S
H1697 C1712 0.960 . S
H1698 C1712 0.960 . S
H1699 C1712 0.960 . S
C1700 H1692 0.929 . S
C1700 C1701 1.377 . S
C1700 C1702 1.384 . S
C1701 C1700 1.377 . S
C1701 C1707 1.390 . S
C1702 H1693 0.930 . S
C1702 C1700 1.384 . S
C1702 C1703 1.372 . S
C1703 C1702 1.372 . S
C1703 C1704 1.400 . S
C1703 C1708 1.490 . S
C1704 H1694 0.930 . S
C1704 C1703 1.400 . S
C1704 C1707 1.386 . S
H1705 C1721 0.930 . S
H1706 C1722 0.931 . S
C1707 H1695 0.929 . S
C1707 C1701 1.390 . S
C1707 C1704 1.386 . S
C1708 C1703 1.490 . S
C1708 C1710 1.395 . S
C1708 C1711 1.403 . S
H1709 C1715 0.930 . S
C1710 H1696 0.930 . S
C1710 C1708 1.395 . S
C1710 C1713 1.403 1_554 S
C1711 C1708 1.403 . S
C1711 C1712 1.524 . S
C1711 C1715 1.400 1_554 S
C1712 H1697 0.960 . S
C1712 H1698 0.960 . S
C1712 H1699 0.960 . S
C1712 C1711 1.524 . S
C1713 C1710 1.403 1_556 S
C1713 C1714 1.392 . S
C1713 C1717 1.495 . S
C1714 C1713 1.392 . S
C1714 C1715 1.385 . S
C1714 C1716 1.478 . S
C1715 H1709 0.930 . S
C1715 C1711 1.400 1_556 S
C1715 C1714 1.385 . S
C1716 C1714 1.478 . S
C1716 C1718 1.381 . S
C1716 C1722 1.383 . S
C1717 C1713 1.495 . S
C1717 H1723 0.959 . S
C1717 H1724 0.961 . S
C1717 H1725 0.960 . S
C1718 C1716 1.381 . S
C1718 C1719 1.394 . S
C1718 H1726 0.930 . S
C1719 C1718 1.394 . S
C1719 C1720 1.383 . S
C1719 H1727 0.929 . S
C1720 C1719 1.383 . S
C1720 C1721 1.377 . S
C1721 H1705 0.930 . S
C1721 C1720 1.377 . S
C1721 C1722 1.379 . S
C1722 H1706 0.931 . S
C1722 C1716 1.383 . S
C1722 C1721 1.379 . S
H1723 C1717 0.959 . S
H1724 C1717 0.961 . S
H1725 C1717 0.960 . S
H1726 C1718 0.930 . S
H1727 C1719 0.929 . S
H1728 C1736 0.929 . S
H1729 C1738 0.930 . S
H1730 C1740 0.930 . S
H1731 C1743 0.929 . S
H1732 C1746 0.930 . S
H1733 C1748 0.960 . S
H1734 C1748 0.960 . S
H1735 C1748 0.960 . S
C1736 H1728 0.929 . S
C1736 C1737 1.377 . S
C1736 C1738 1.384 . S
C1737 C1736 1.377 . S
C1737 C1743 1.390 . S
C1738 H1729 0.930 . S
C1738 C1736 1.384 . S
C1738 C1739 1.372 . S
C1739 C1738 1.372 . S
C1739 C1740 1.400 . S
C1739 C1744 1.490 . S
C1740 H1730 0.930 . S
C1740 C1739 1.400 . S
C1740 C1743 1.386 . S
H1741 C1757 0.930 . S
H1742 C1758 0.931 . S
C1743 H1731 0.929 . S
C1743 C1737 1.390 . S
C1743 C1740 1.386 . S
C1744 C1739 1.490 . S
C1744 C1746 1.395 . S
C1744 C1747 1.403 . S
H1745 C1751 0.930 . S
C1746 H1732 0.930 . S
C1746 C1744 1.395 . S
C1746 C1749 1.403 1_546 S
C1747 C1744 1.403 . S
C1747 C1748 1.524 . S
C1747 C1751 1.400 1_546 S
C1748 H1733 0.960 . S
C1748 H1734 0.960 . S
C1748 H1735 0.960 . S
C1748 C1747 1.524 . S
C1749 C1746 1.403 1_564 S
C1749 C1750 1.392 . S
C1749 C1753 1.495 . S
C1750 C1749 1.392 . S
C1750 C1751 1.385 . S
C1750 C1752 1.478 . S
C1751 H1745 0.930 . S
C1751 C1747 1.400 1_564 S
C1751 C1750 1.385 . S
C1752 C1750 1.478 . S
C1752 C1754 1.381 . S
C1752 C1758 1.383 . S
C1753 C1749 1.495 . S
C1753 H1759 0.959 . S
C1753 H1760 0.961 . S
C1753 H1761 0.960 . S
C1754 C1752 1.381 . S
C1754 C1755 1.394 . S
C1754 H1762 0.930 . S
C1755 C1754 1.394 . S
C1755 C1756 1.383 . S
C1755 H1763 0.929 . S
C1756 C1755 1.383 . S
C1756 C1757 1.377 . S
C1757 H1741 0.930 . S
C1757 C1756 1.377 . S
C1757 C1758 1.379 . S
C1758 H1742 0.931 . S
C1758 C1752 1.383 . S
C1758 C1757 1.379 . S
H1759 C1753 0.959 . S
H1760 C1753 0.961 . S
H1761 C1753 0.960 . S
H1762 C1754 0.930 . S
H1763 C1755 0.929 . S
H1764 C1772 0.929 . S
H1765 C1774 0.930 . S
H1766 C1776 0.930 . S
H1767 C1779 0.929 . S
H1768 C1782 0.930 . S
H1769 C1784 0.960 . S
H1770 C1784 0.960 . S
H1771 C1784 0.960 . S
C1772 H1764 0.929 . S
C1772 C1773 1.377 . S
C1772 C1774 1.384 . S
C1773 C1772 1.377 . S
C1773 C1779 1.390 . S
C1774 H1765 0.930 . S
C1774 C1772 1.384 . S
C1774 C1775 1.372 . S
C1775 C1774 1.372 . S
C1775 C1776 1.400 . S
C1775 C1780 1.490 . S
C1776 H1766 0.930 . S
C1776 C1775 1.400 . S
C1776 C1779 1.386 . S
H1777 C1793 0.930 . S
H1778 C1794 0.931 . S
C1779 H1767 0.929 . S
C1779 C1773 1.390 . S
C1779 C1776 1.386 . S
C1780 C1775 1.490 . S
C1780 C1782 1.395 . S
C1780 C1783 1.403 1_556 S
H1781 C1787 0.930 . S
C1782 H1768 0.930 . S
C1782 C1780 1.395 . S
C1782 C1785 1.403 1_655 S
C1783 C1780 1.403 1_554 S
C1783 C1784 1.524 . S
C1783 C1787 1.400 1_655 S
C1784 H1769 0.960 . S
C1784 H1770 0.960 . S
C1784 H1771 0.960 . S
C1784 C1783 1.524 . S
C1785 C1782 1.403 1_455 S
C1785 C1786 1.392 1_556 S
C1785 C1789 1.495 . S
C1786 C1785 1.392 1_554 S
C1786 C1787 1.385 . S
C1786 C1788 1.478 . S
C1787 H1781 0.930 . S
C1787 C1783 1.400 1_455 S
C1787 C1786 1.385 . S
C1788 C1786 1.478 . S
C1788 C1790 1.381 . S
C1788 C1794 1.383 . S
C1789 C1785 1.495 . S
C1789 H1795 0.959 . S
C1789 H1796 0.961 . S
C1789 H1797 0.960 . S
C1790 C1788 1.381 . S
C1790 C1791 1.394 . S
C1790 H1798 0.930 . S
C1791 C1790 1.394 . S
C1791 C1792 1.383 . S
C1791 H1799 0.929 . S
C1792 C1791 1.383 . S
C1792 C1793 1.377 . S
C1793 H1777 0.930 . S
C1793 C1792 1.377 . S
C1793 C1794 1.379 . S
C1794 H1778 0.931 . S
C1794 C1788 1.383 . S
C1794 C1793 1.379 . S
H1795 C1789 0.959 . S
H1796 C1789 0.961 . S
H1797 C1789 0.960 . S
H1798 C1790 0.930 . S
H1799 C1791 0.929 . S
H1800 C1808 0.929 . S
H1801 C1810 0.930 . S
H1802 C1812 0.930 . S
H1803 C1815 0.929 . S
H1804 C1818 0.930 . S
H1805 C1820 0.960 . S
H1806 C1820 0.960 . S
H1807 C1820 0.960 . S
C1808 H1800 0.929 . S
C1808 C1809 1.377 . S
C1808 C1810 1.384 . S
C1809 C1808 1.377 . S
C1809 C1815 1.390 . S
C1810 H1801 0.930 . S
C1810 C1808 1.384 . S
C1810 C1811 1.372 . S
C1811 C1810 1.372 . S
C1811 C1812 1.400 . S
C1811 C1816 1.490 . S
C1812 H1802 0.930 . S
C1812 C1811 1.400 . S
C1812 C1815 1.386 . S
H1813 C1829 0.930 . S
H1814 C1830 0.931 . S
C1815 H1803 0.929 . S
C1815 C1809 1.390 . S
C1815 C1812 1.386 . S
C1816 C1811 1.490 . S
C1816 C1818 1.395 1_554 S
C1816 C1819 1.403 . S
H1817 C1823 0.930 . S
C1818 H1804 0.930 . S
C1818 C1816 1.395 1_556 S
C1818 C1821 1.403 . S
C1819 C1816 1.403 . S
C1819 C1820 1.524 . S
C1819 C1823 1.400 . S
C1820 H1805 0.960 . S
C1820 H1806 0.960 . S
C1820 H1807 0.960 . S
C1820 C1819 1.524 . S
C1821 C1818 1.403 . S
C1821 C1822 1.392 . S
C1821 C1825 1.495 . S
C1822 C1821 1.392 . S
C1822 C1823 1.385 1_556 S
C1822 C1824 1.478 . S
C1823 H1817 0.930 . S
C1823 C1819 1.400 . S
C1823 C1822 1.385 1_554 S
C1824 C1822 1.478 . S
C1824 C1826 1.381 . S
C1824 C1830 1.383 . S
C1825 C1821 1.495 . S
C1825 H1831 0.959 . S
C1825 H1832 0.961 . S
C1825 H1833 0.960 . S
C1826 C1824 1.381 . S
C1826 C1827 1.394 . S
C1826 H1834 0.930 . S
C1827 C1826 1.394 . S
C1827 C1828 1.383 . S
C1827 H1835 0.929 . S
C1828 C1827 1.383 . S
C1828 C1829 1.377 . S
C1829 H1813 0.930 . S
C1829 C1828 1.377 . S
C1829 C1830 1.379 . S
C1830 H1814 0.931 . S
C1830 C1824 1.383 . S
C1830 C1829 1.379 . S
H1831 C1825 0.959 . S
H1832 C1825 0.961 . S
H1833 C1825 0.960 . S
H1834 C1826 0.930 . S
H1835 C1827 0.929 . S
H1836 C1844 0.929 . S
H1837 C1846 0.930 . S
H1838 C1848 0.930 . S
H1839 C1851 0.929 . S
H1840 C1854 0.934 . S
H1841 C1856 0.960 1_545 S
H1842 C1856 0.960 . S
H1843 C1856 0.960 . S
C1844 H1836 0.929 . S
C1844 C1845 1.377 . S
C1844 C1846 1.384 . S
C1845 C1844 1.377 . S
C1845 C1851 1.390 . S
C1846 H1837 0.930 . S
C1846 C1844 1.384 . S
C1846 C1847 1.372 . S
C1847 C1846 1.372 . S
C1847 C1848 1.400 . S
C1847 C1852 1.490 . S
C1848 H1838 0.930 . S
C1848 C1847 1.400 . S
C1848 C1851 1.386 . S
H1849 C1865 0.930 . S
H1850 C1866 0.931 . S
C1851 H1839 0.929 . S
C1851 C1845 1.390 . S
C1851 C1848 1.386 . S
C1852 C1847 1.490 . S
C1852 C1854 1.418 . S
C1852 C1855 1.403 . S
H1853 C1859 0.930 . S
C1854 H1840 0.934 . S
C1854 C1852 1.418 . S
C1854 C1857 1.379 1_564 S
C1855 C1852 1.403 . S
C1855 C1856 1.524 . S
C1855 C1859 1.400 1_564 S
C1856 H1841 0.960 1_565 S
C1856 H1842 0.960 . S
C1856 H1843 0.960 . S
C1856 C1855 1.524 . S
C1857 C1854 1.379 1_546 S
C1857 C1858 1.392 . S
C1857 C1861 1.495 . S
C1858 C1857 1.392 . S
C1858 C1859 1.385 . S
C1858 C1860 1.478 . S
C1859 H1853 0.930 . S
C1859 C1855 1.400 1_546 S
C1859 C1858 1.385 . S
C1860 C1858 1.478 . S
C1860 C1862 1.381 . S
C1860 C1866 1.383 . S
C1861 C1857 1.495 . S
C1861 H1867 0.959 1_545 S
C1861 H1868 0.961 . S
C1861 H1869 0.960 . S
C1862 C1860 1.381 . S
C1862 C1863 1.394 . S
C1862 H1870 0.930 . S
C1863 C1862 1.394 . S
C1863 C1864 1.383 . S
C1863 H1871 0.929 . S
C1864 C1863 1.383 . S
C1864 C1865 1.377 . S
C1865 H1849 0.930 . S
C1865 C1864 1.377 . S
C1865 C1866 1.379 . S
C1866 H1850 0.931 . S
C1866 C1860 1.383 . S
C1866 C1865 1.379 . S
H1867 C1861 0.959 1_565 S
H1868 C1861 0.961 . S
H1869 C1861 0.960 . S
H1870 C1862 0.930 . S
H1871 C1863 0.929 . S
H1872 C1880 0.929 . S
H1873 C1882 0.971 . S
H1874 C1884 0.930 . S
H1875 C1887 0.929 . S
H1876 C1890 0.930 . S
H1877 C1892 0.960 . S
H1878 C1892 0.960 . S
H1879 C1892 0.960 . S
C1880 H1872 0.929 . S
C1880 C1881 1.377 . S
C1880 C1882 1.384 . S
C1881 C1880 1.377 . S
C1881 C1887 1.390 . S
C1882 H1873 0.971 . S
C1882 C1880 1.384 . S
C1882 C1883 1.372 . S
C1883 C1882 1.372 . S
C1883 C1884 1.400 . S
C1883 C1888 1.490 . S
C1884 H1874 0.930 . S
C1884 C1883 1.400 . S
C1884 C1887 1.386 . S
H1885 C1901 0.930 . S
H1886 C1902 0.940 . S
C1887 H1875 0.929 . S
C1887 C1881 1.390 . S
C1887 C1884 1.386 . S
C1888 C1883 1.490 . S
C1888 C1890 1.395 . S
C1888 C1891 1.403 . S
H1889 C1895 0.930 . S
C1890 H1876 0.930 . S
C1890 C1888 1.395 . S
C1890 C1893 1.403 1_656 S
C1891 C1888 1.403 . S
C1891 C1892 1.524 . S
C1891 C1895 1.400 1_656 S
C1892 H1877 0.960 . S
C1892 H1878 0.960 . S
C1892 H1879 0.960 . S
C1892 C1891 1.524 . S
C1893 C1890 1.403 1_454 S
C1893 C1894 1.392 . S
C1893 C1897 1.495 . S
C1894 C1893 1.392 . S
C1894 C1895 1.385 . S
C1894 C1896 1.478 . S
C1895 H1889 0.930 . S
C1895 C1891 1.400 1_454 S
C1895 C1894 1.385 . S
C1896 C1894 1.478 . S
C1896 C1898 1.381 . S
C1896 C1902 1.383 . S
C1897 C1893 1.495 . S
C1897 H1903 0.959 . S
C1897 H1904 0.961 . S
C1897 H1905 0.960 . S
C1898 C1896 1.381 . S
C1898 C1899 1.394 . S
C1898 H1906 0.930 . S
C1899 C1898 1.394 . S
C1899 C1900 1.383 . S
C1899 H1907 0.929 . S
C1900 C1899 1.383 . S
C1900 C1901 1.377 . S
C1901 H1885 0.930 . S
C1901 C1900 1.377 . S
C1901 C1902 1.379 . S
C1902 H1886 0.940 . S
C1902 C1896 1.383 . S
C1902 C1901 1.379 . S
H1903 C1897 0.959 . S
H1904 C1897 0.961 . S
H1905 C1897 0.960 . S
H1906 C1898 0.930 . S
H1907 C1899 0.929 . S
H1908 C1916 0.929 . S
H1909 C1918 0.930 . S
H1910 C1920 0.930 . S
H1911 C1923 0.929 . S
H1912 C1926 0.930 . S
H1913 C1928 0.960 . S
H1914 C1928 0.960 . S
H1915 C1928 0.960 . S
C1916 H1908 0.929 . S
C1916 C1917 1.377 . S
C1916 C1918 1.384 . S
C1917 C1916 1.377 . S
C1917 C1923 1.390 . S
C1918 H1909 0.930 . S
C1918 C1916 1.384 . S
C1918 C1919 1.372 . S
C1919 C1918 1.372 . S
C1919 C1920 1.400 . S
C1919 C1924 1.490 . S
C1920 H1910 0.930 . S
C1920 C1919 1.400 . S
C1920 C1923 1.386 . S
H1921 C1937 0.930 . S
H1922 C1938 0.931 . S
C1923 H1911 0.929 . S
C1923 C1917 1.390 . S
C1923 C1920 1.386 . S
C1924 C1919 1.490 . S
C1924 C1926 1.395 . S
C1924 C1927 1.403 . S
H1925 C1931 0.930 . S
C1926 H1912 0.930 . S
C1926 C1924 1.395 . S
C1926 C1929 1.403 . S
C1927 C1924 1.403 . S
C1927 C1928 1.524 . S
C1927 C1931 1.400 . S
C1928 H1913 0.960 . S
C1928 H1914 0.960 . S
C1928 H1915 0.960 . S
C1928 C1927 1.524 . S
C1929 C1926 1.403 . S
C1929 C1930 1.392 . S
C1929 C1933 1.495 1_655 S
C1930 C1929 1.392 . S
C1930 C1931 1.385 . S
C1930 C1932 1.478 . S
C1931 H1925 0.930 . S
C1931 C1927 1.400 . S
C1931 C1930 1.385 . S
C1932 C1930 1.478 . S
C1932 C1934 1.381 1_655 S
C1932 C1938 1.383 . S
C1933 C1929 1.495 1_455 S
C1933 H1939 0.959 . S
C1933 H1940 0.952 . S
C1933 H1941 0.960 . S
C1934 C1932 1.381 1_455 S
C1934 C1935 1.394 . S
C1934 H1942 0.930 . S
C1935 C1934 1.394 . S
C1935 C1936 1.383 . S
C1935 H1943 0.929 . S
C1936 C1935 1.383 . S
C1936 C1937 1.377 1_455 S
C1937 H1921 0.930 . S
C1937 C1936 1.377 1_655 S
C1937 C1938 1.379 . S
C1938 H1922 0.931 . S
C1938 C1932 1.383 . S
C1938 C1937 1.379 . S
H1939 C1933 0.959 . S
H1940 C1933 0.952 . S
H1941 C1933 0.960 . S
H1942 C1934 0.930 . S
H1943 C1935 0.929 . S
H1944 C1952 0.929 . S
H1945 C1954 0.930 . S
H1946 C1956 0.930 . S
H1947 C1959 0.929 . S
H1948 C1962 0.930 . S
H1949 C1964 0.960 . S
H1950 C1964 0.960 . S
H1951 C1964 0.960 . S
C1952 H1944 0.929 . S
C1952 C1953 1.377 . S
C1952 C1954 1.384 . S
C1953 C1952 1.377 . S
C1953 C1959 1.390 . S
C1954 H1945 0.930 . S
C1954 C1952 1.384 . S
C1954 C1955 1.372 . S
C1955 C1954 1.372 . S
C1955 C1956 1.400 . S
C1955 C1960 1.490 . S
C1956 H1946 0.930 . S
C1956 C1955 1.400 . S
C1956 C1959 1.386 . S
H1957 C1973 0.930 . S
H1958 C1974 0.931 . S
C1959 H1947 0.929 . S
C1959 C1953 1.390 . S
C1959 C1956 1.386 . S
C1960 C1955 1.490 . S
C1960 C1962 1.395 . S
C1960 C1963 1.403 . S
H1961 C1967 0.930 . S
C1962 H1948 0.930 . S
C1962 C1960 1.395 . S
C1962 C1965 1.403 . S
C1963 C1960 1.403 . S
C1963 C1964 1.524 . S
C1963 C1967 1.400 . S
C1964 H1949 0.960 . S
C1964 H1950 0.960 . S
C1964 H1951 0.960 . S
C1964 C1963 1.524 . S
C1965 C1962 1.403 . S
C1965 C1966 1.392 . S
C1965 C1969 1.495 . S
C1966 C1965 1.392 . S
C1966 C1967 1.385 . S
C1966 C1968 1.478 . S
C1967 H1961 0.930 . S
C1967 C1963 1.400 . S
C1967 C1966 1.385 . S
C1968 C1966 1.478 . S
C1968 C1970 1.381 . S
C1968 C1974 1.383 . S
C1969 C1965 1.495 . S
C1969 H1975 0.959 . S
C1969 H1976 0.961 . S
C1969 H1977 0.960 . S
C1970 C1968 1.381 . S
C1970 C1971 1.394 . S
C1970 H1978 0.930 . S
C1971 C1970 1.394 . S
C1971 C1972 1.383 . S
C1971 H1979 0.929 . S
C1972 C1971 1.383 . S
C1972 C1973 1.377 . S
C1973 H1957 0.930 . S
C1973 C1972 1.377 . S
C1973 C1974 1.379 . S
C1974 H1958 0.931 . S
C1974 C1968 1.383 . S
C1974 C1973 1.379 . S
H1975 C1969 0.959 . S
H1976 C1969 0.961 . S
H1977 C1969 0.960 . S
H1978 C1970 0.930 . S
H1979 C1971 0.929 . S
H1980 C1988 0.929 . S
H1981 C1990 0.930 . S
H1982 C1992 0.930 . S
H1983 C1995 0.929 . S
H1984 C1998 0.930 . S
H1985 C2000 0.960 . S
H1986 C2000 0.960 . S
H1987 C2000 0.960 . S
C1988 H1980 0.929 . S
C1988 C1989 1.377 1_545 S
C1988 C1990 1.384 . S
C1989 C1988 1.377 1_565 S
C1989 C1995 1.390 . S
C1990 H1981 0.930 . S
C1990 C1988 1.384 . S
C1990 C1991 1.372 . S
C1991 C1990 1.372 . S
C1991 C1992 1.400 1_545 S
C1991 C1996 1.490 . S
C1992 H1982 0.930 . S
C1992 C1991 1.400 1_565 S
C1992 C1995 1.386 . S
H1993 C2009 0.930 . S
H1994 C2010 0.931 . S
C1995 H1983 0.929 . S
C1995 C1989 1.390 . S
C1995 C1992 1.386 . S
C1996 C1991 1.490 . S
C1996 C1998 1.395 . S
C1996 C1999 1.403 . S
H1997 C2003 0.930 . S
C1998 H1984 0.930 . S
C1998 C1996 1.395 . S
C1998 C2001 1.403 . S
C1999 C1996 1.403 . S
C1999 C2000 1.524 . S
C1999 C2003 1.400 . S
C2000 H1985 0.960 . S
C2000 H1986 0.960 . S
C2000 H1987 0.960 . S
C2000 C1999 1.524 . S
C2001 C1998 1.403 . S
C2001 C2002 1.392 . S
C2001 C2005 1.495 . S
C2002 C2001 1.392 . S
C2002 C2003 1.385 . S
C2002 C2004 1.478 . S
C2003 H1997 0.930 . S
C2003 C1999 1.400 . S
C2003 C2002 1.385 . S
C2004 C2002 1.478 . S
C2004 C2006 1.381 . S
C2004 C2010 1.383 . S
C2005 C2001 1.495 . S
C2005 H2011 0.959 . S
C2005 H2012 0.961 . S
C2005 H2013 0.960 . S
C2006 C2004 1.381 . S
C2006 C2007 1.394 . S
C2006 H2014 0.930 . S
C2007 C2006 1.394 . S
C2007 C2008 1.383 . S
C2007 H2015 0.929 . S
C2008 C2007 1.383 . S
C2008 C2009 1.377 . S
C2009 H1993 0.930 . S
C2009 C2008 1.377 . S
C2009 C2010 1.379 . S
C2010 H1994 0.931 . S
C2010 C2004 1.383 . S
C2010 C2009 1.379 . S
H2011 C2005 0.959 . S
H2012 C2005 0.961 . S
H2013 C2005 0.960 . S
H2014 C2006 0.930 . S
H2015 C2007 0.929 . S
H2016 C2024 0.929 . S
H2017 C2026 0.930 . S
H2018 C2028 0.930 . S
H2019 C2031 0.929 . S
H2020 C2034 0.930 . S
H2021 C2036 0.960 . S
H2022 C2036 0.960 . S
H2023 C2036 0.960 . S
C2024 H2016 0.929 . S
C2024 C2025 1.377 . S
C2024 C2026 1.384 . S
C2025 C2024 1.377 . S
C2025 C2031 1.390 . S
C2026 H2017 0.930 . S
C2026 C2024 1.384 . S
C2026 C2027 1.372 . S
C2027 C2026 1.372 . S
C2027 C2028 1.400 . S
C2027 C2032 1.490 . S
C2028 H2018 0.930 . S
C2028 C2027 1.400 . S
C2028 C2031 1.386 . S
H2029 C2045 0.930 . S
H2030 C2046 0.931 . S
C2031 H2019 0.929 . S
C2031 C2025 1.390 . S
C2031 C2028 1.386 . S
C2032 C2027 1.490 . S
C2032 C2034 1.395 . S
C2032 C2035 1.403 . S
H2033 C2039 0.930 . S
C2034 H2020 0.930 . S
C2034 C2032 1.395 . S
C2034 C2037 1.403 . S
C2035 C2032 1.403 . S
C2035 C2036 1.524 . S
C2035 C2039 1.400 . S
C2036 H2021 0.960 . S
C2036 H2022 0.960 . S
C2036 H2023 0.960 . S
C2036 C2035 1.524 . S
C2037 C2034 1.403 . S
C2037 C2038 1.392 . S
C2037 C2041 1.495 . S
C2038 C2037 1.392 . S
C2038 C2039 1.385 . S
C2038 C2040 1.478 . S
C2039 H2033 0.930 . S
C2039 C2035 1.400 . S
C2039 C2038 1.385 . S
C2040 C2038 1.478 . S
C2040 C2042 1.381 . S
C2040 C2046 1.383 1_545 S
C2041 C2037 1.495 . S
C2041 H2047 0.959 . S
C2041 H2048 0.961 . S
C2041 H2049 0.960 . S
C2042 C2040 1.381 . S
C2042 C2043 1.394 . S
C2042 H2050 0.930 . S
C2043 C2042 1.394 . S
C2043 C2044 1.383 1_545 S
C2043 H2051 0.929 . S
C2044 C2043 1.383 1_565 S
C2044 C2045 1.377 . S
C2045 H2029 0.930 . S
C2045 C2044 1.377 . S
C2045 C2046 1.379 . S
C2046 H2030 0.931 . S
C2046 C2040 1.383 1_565 S
C2046 C2045 1.379 . S
H2047 C2041 0.959 . S
H2048 C2041 0.961 . S
H2049 C2041 0.960 . S
H2050 C2042 0.930 . S
H2051 C2043 0.929 . S
H2052 C2060 0.929 . S
H2053 C2062 0.930 . S
H2054 C2064 0.930 . S
H2055 C2067 0.929 . S
H2056 C2070 0.930 1_455 S
H2057 C2072 0.960 . S
H2058 C2072 0.960 . S
H2059 C2072 0.960 . S
C2060 H2052 0.929 . S
C2060 C2061 1.377 . S
C2060 C2062 1.384 1_455 S
C2061 C2060 1.377 . S
C2061 C2067 1.390 1_455 S
C2062 H2053 0.930 . S
C2062 C2060 1.384 1_655 S
C2062 C2063 1.372 . S
C2063 C2062 1.372 . S
C2063 C2064 1.400 . S
C2063 C2068 1.490 . S
C2064 H2054 0.930 . S
C2064 C2063 1.400 . S
C2064 C2067 1.386 . S
H2065 C2081 0.930 . S
H2066 C2082 0.931 . S
C2067 H2055 0.929 . S
C2067 C2061 1.390 1_655 S
C2067 C2064 1.386 . S
C2068 C2063 1.490 . S
C2068 C2070 1.395 . S
C2068 C2071 1.403 . S
H2069 C2075 0.930 . S
C2070 H2056 0.930 1_655 S
C2070 C2068 1.395 . S
C2070 C2073 1.403 . S
C2071 C2068 1.403 . S
C2071 C2072 1.524 . S
C2071 C2075 1.400 . S
C2072 H2057 0.960 . S
C2072 H2058 0.960 . S
C2072 H2059 0.960 . S
C2072 C2071 1.524 . S
C2073 C2070 1.403 . S
C2073 C2074 1.392 . S
C2073 C2077 1.495 . S
C2074 C2073 1.392 . S
C2074 C2075 1.385 . S
C2074 C2076 1.478 . S
C2075 H2069 0.930 . S
C2075 C2071 1.400 . S
C2075 C2074 1.385 . S
C2076 C2074 1.478 . S
C2076 C2078 1.381 . S
C2076 C2082 1.383 . S
C2077 C2073 1.495 . S
C2077 H2083 0.959 1_655 S
C2077 H2084 0.961 . S
C2077 H2085 0.960 . S
C2078 C2076 1.381 . S
C2078 C2079 1.394 . S
C2078 H2086 0.930 . S
C2079 C2078 1.394 . S
C2079 C2080 1.383 . S
C2079 H2087 0.929 . S
C2080 C2079 1.383 . S
C2080 C2081 1.377 . S
C2081 H2065 0.930 . S
C2081 C2080 1.377 . S
C2081 C2082 1.379 . S
C2082 H2066 0.931 . S
C2082 C2076 1.383 . S
C2082 C2081 1.379 . S
H2083 C2077 0.959 1_455 S
H2084 C2077 0.961 . S
H2085 C2077 0.960 . S
H2086 C2078 0.930 . S
H2087 C2079 0.929 . S
H2088 C2096 0.929 . S
H2089 C2098 0.930 . S
H2090 C2100 0.930 . S
H2091 C2103 0.929 . S
H2092 C2106 0.930 . S
H2093 C2108 0.960 . S
H2094 C2108 0.960 . S
H2095 C2108 0.960 . S
C2096 H2088 0.929 . S
C2096 C2097 1.377 . S
C2096 C2098 1.384 . S
C2097 C2096 1.377 . S
C2097 C2103 1.390 . S
C2098 H2089 0.930 . S
C2098 C2096 1.384 . S
C2098 C2099 1.372 . S
C2099 C2098 1.372 . S
C2099 C2100 1.400 . S
C2099 C2104 1.490 . S
C2100 H2090 0.930 . S
C2100 C2099 1.400 . S
C2100 C2103 1.386 . S
H2101 C2117 0.930 . S
H2102 C2118 0.931 . S
C2103 H2091 0.929 . S
C2103 C2097 1.390 . S
C2103 C2100 1.386 . S
C2104 C2099 1.490 . S
C2104 C2106 1.395 . S
C2104 C2107 1.403 . S
H2105 C2111 0.930 . S
C2106 H2092 0.930 . S
C2106 C2104 1.395 . S
C2106 C2109 1.403 . S
C2107 C2104 1.403 . S
C2107 C2108 1.524 . S
C2107 C2111 1.400 . S
C2108 H2093 0.960 . S
C2108 H2094 0.960 . S
C2108 H2095 0.960 . S
C2108 C2107 1.524 . S
C2109 C2106 1.403 . S
C2109 C2110 1.392 . S
C2109 C2113 1.495 . S
C2110 C2109 1.392 . S
C2110 C2111 1.385 . S
C2110 C2112 1.478 . S
C2111 H2105 0.930 . S
C2111 C2107 1.400 . S
C2111 C2110 1.385 . S
C2112 C2110 1.478 . S
C2112 C2114 1.381 . S
C2112 C2118 1.383 . S
C2113 C2109 1.495 . S
C2113 H2119 0.959 . S
C2113 H2120 0.961 . S
C2113 H2121 0.960 . S
C2114 C2112 1.381 . S
C2114 C2115 1.394 . S
C2114 H2122 0.930 . S
C2115 C2114 1.394 . S
C2115 C2116 1.383 . S
C2115 H2123 0.929 . S
C2116 C2115 1.383 . S
C2116 C2117 1.377 . S
C2117 H2101 0.930 . S
C2117 C2116 1.377 . S
C2117 C2118 1.379 . S
C2118 H2102 0.931 . S
C2118 C2112 1.383 . S
C2118 C2117 1.379 . S
H2119 C2113 0.959 . S
H2120 C2113 0.961 . S
H2121 C2113 0.960 . S
H2122 C2114 0.930 . S
H2123 C2115 0.929 . S
H2124 C2132 0.929 . S
H2125 C2134 0.930 . S
H2126 C2136 0.930 . S
H2127 C2139 0.929 . S
H2128 C2142 0.930 . S
H2129 C2144 0.960 . S
H2130 C2144 0.960 . S
H2131 C2144 0.960 . S
C2132 H2124 0.929 . S
C2132 C2133 1.377 . S
C2132 C2134 1.384 . S
C2133 C2132 1.377 . S
C2133 C2139 1.390 . S
C2134 H2125 0.930 . S
C2134 C2132 1.384 . S
C2134 C2135 1.372 . S
C2135 C2134 1.372 . S
C2135 C2136 1.400 . S
C2135 C2140 1.490 . S
C2136 H2126 0.930 . S
C2136 C2135 1.400 . S
C2136 C2139 1.386 . S
H2137 C2153 0.930 . S
H2138 C2154 0.931 . S
C2139 H2127 0.929 . S
C2139 C2133 1.390 . S
C2139 C2136 1.386 . S
C2140 C2135 1.490 . S
C2140 C2142 1.395 . S
C2140 C2143 1.403 . S
H2141 C2147 0.930 . S
C2142 H2128 0.930 . S
C2142 C2140 1.395 . S
C2142 C2145 1.403 . S
C2143 C2140 1.403 . S
C2143 C2144 1.524 . S
C2143 C2147 1.400 . S
C2144 H2129 0.960 . S
C2144 H2130 0.960 . S
C2144 H2131 0.960 . S
C2144 C2143 1.524 . S
C2145 C2142 1.403 . S
C2145 C2146 1.392 . S
C2145 C2149 1.495 . S
C2146 C2145 1.392 . S
C2146 C2147 1.385 . S
C2146 C2148 1.478 . S
C2147 H2141 0.930 . S
C2147 C2143 1.400 . S
C2147 C2146 1.385 . S
C2148 C2146 1.478 . S
C2148 C2150 1.381 1_565 S
C2148 C2154 1.383 . S
C2149 C2145 1.495 . S
C2149 H2155 0.959 . S
C2149 H2156 0.961 . S
C2149 H2157 0.960 1_565 S
C2150 C2148 1.381 1_545 S
C2150 C2151 1.394 . S
C2150 H2158 0.930 . S
C2151 C2150 1.394 . S
C2151 C2152 1.383 . S
C2151 H2159 0.929 . S
C2152 C2151 1.383 . S
C2152 C2153 1.377 1_545 S
C2153 H2137 0.930 . S
C2153 C2152 1.377 1_565 S
C2153 C2154 1.379 . S
C2154 H2138 0.931 . S
C2154 C2148 1.383 . S
C2154 C2153 1.379 . S
H2155 C2149 0.959 . S
H2156 C2149 0.961 . S
H2157 C2149 0.960 1_545 S
H2158 C2150 0.930 . S
H2159 C2151 0.929 . S
H2160 C2168 0.929 . S
H2161 C2170 0.930 . S
H2162 C2172 0.930 . S
H2163 C2175 0.929 . S
H2164 C2178 0.930 . S
H2165 C2180 0.960 . S
H2166 C2180 0.960 . S
H2167 C2180 0.960 . S
C2168 H2160 0.929 . S
C2168 C2169 1.377 . S
C2168 C2170 1.384 . S
C2169 C2168 1.377 . S
C2169 C2175 1.390 . S
C2170 H2161 0.930 . S
C2170 C2168 1.384 . S
C2170 C2171 1.372 . S
C2171 C2170 1.372 . S
C2171 C2172 1.400 . S
C2171 C2176 1.490 . S
C2172 H2162 0.930 . S
C2172 C2171 1.400 . S
C2172 C2175 1.386 . S
H2173 C2189 0.930 . S
H2174 C2190 0.931 . S
C2175 H2163 0.929 . S
C2175 C2169 1.390 . S
C2175 C2172 1.386 . S
C2176 C2171 1.490 . S
C2176 C2178 1.395 . S
C2176 C2179 1.403 . S
H2177 C2183 0.930 . S
C2178 H2164 0.930 . S
C2178 C2176 1.395 . S
C2178 C2181 1.403 . S
C2179 C2176 1.403 . S
C2179 C2180 1.524 . S
C2179 C2183 1.400 . S
C2180 H2165 0.960 . S
C2180 H2166 0.960 . S
C2180 H2167 0.960 . S
C2180 C2179 1.524 . S
C2181 C2178 1.403 . S
C2181 C2182 1.392 . S
C2181 C2185 1.495 1_455 S
C2182 C2181 1.392 . S
C2182 C2183 1.385 . S
C2182 C2184 1.478 . S
C2183 H2177 0.930 . S
C2183 C2179 1.400 . S
C2183 C2182 1.385 . S
C2184 C2182 1.478 . S
C2184 C2186 1.381 1_455 S
C2184 C2190 1.383 . S
C2185 C2181 1.495 1_655 S
C2185 H2191 0.959 . S
C2185 H2192 0.961 . S
C2185 H2193 0.960 . S
C2186 C2184 1.381 1_655 S
C2186 C2187 1.394 . S
C2186 H2194 0.930 . S
C2187 C2186 1.394 . S
C2187 C2188 1.383 . S
C2187 H2195 0.929 . S
C2188 C2187 1.383 . S
C2188 C2189 1.377 1_655 S
C2189 H2173 0.930 . S
C2189 C2188 1.377 1_455 S
C2189 C2190 1.379 . S
C2190 H2174 0.931 . S
C2190 C2184 1.383 . S
C2190 C2189 1.379 . S
H2191 C2185 0.959 . S
H2192 C2185 0.961 . S
H2193 C2185 0.960 . S
H2194 C2186 0.930 . S
H2195 C2187 0.929 . S
H2196 C2204 0.929 . S
H2197 C2206 0.930 . S
H2198 C2208 0.930 . S
H2199 C2211 0.929 . S
H2200 C2214 0.930 . S
H2201 C2216 0.960 . S
H2202 C2216 0.960 . S
H2203 C2216 0.960 . S
C2204 H2196 0.929 . S
C2204 C2205 1.377 . S
C2204 C2206 1.384 . S
C2205 C2204 1.377 . S
C2205 C2211 1.390 . S
C2206 H2197 0.930 . S
C2206 C2204 1.384 . S
C2206 C2207 1.372 . S
C2207 C2206 1.372 . S
C2207 C2208 1.400 . S
C2207 C2212 1.490 . S
C2208 H2198 0.930 . S
C2208 C2207 1.400 . S
C2208 C2211 1.386 . S
H2209 C2225 0.930 . S
H2210 C2226 0.931 . S
C2211 H2199 0.929 . S
C2211 C2205 1.390 . S
C2211 C2208 1.386 . S
C2212 C2207 1.490 . S
C2212 C2214 1.395 . S
C2212 C2215 1.403 . S
H2213 C2219 0.930 . S
C2214 H2200 0.930 . S
C2214 C2212 1.395 . S
C2214 C2217 1.403 . S
C2215 C2212 1.403 . S
C2215 C2216 1.524 . S
C2215 C2219 1.400 . S
C2216 H2201 0.960 . S
C2216 H2202 0.960 . S
C2216 H2203 0.960 . S
C2216 C2215 1.524 . S
C2217 C2214 1.403 . S
C2217 C2218 1.392 . S
C2217 C2221 1.495 . S
C2218 C2217 1.392 . S
C2218 C2219 1.385 . S
C2218 C2220 1.478 . S
C2219 H2213 0.930 . S
C2219 C2215 1.400 . S
C2219 C2218 1.385 . S
C2220 C2218 1.478 . S
C2220 C2222 1.381 . S
C2220 C2226 1.383 . S
C2221 C2217 1.495 . S
C2221 H2227 0.959 . S
C2221 H2228 0.961 . S
C2221 H2229 0.960 . S
C2222 C2220 1.381 . S
C2222 C2223 1.394 . S
C2222 H2230 0.930 . S
C2223 C2222 1.394 . S
C2223 C2224 1.383 . S
C2223 H2231 0.929 . S
C2224 C2223 1.383 . S
C2224 C2225 1.377 . S
C2225 H2209 0.930 . S
C2225 C2224 1.377 . S
C2225 C2226 1.379 . S
C2226 H2210 0.931 . S
C2226 C2220 1.383 . S
C2226 C2225 1.379 . S
H2227 C2221 0.959 . S
H2228 C2221 0.961 . S
H2229 C2221 0.960 . S
H2230 C2222 0.930 . S
H2231 C2223 0.929 . S
H2232 C2240 0.929 . S
H2233 C2242 0.930 . S
H2234 C2244 0.930 . S
H2235 C2247 0.929 . S
H2236 C2250 0.930 1_655 S
H2237 C2252 0.960 . S
H2238 C2252 0.960 . S
H2239 C2252 0.960 . S
C2240 H2232 0.929 . S
C2240 C2241 1.377 . S
C2240 C2242 1.384 . S
C2241 C2240 1.377 . S
C2241 C2247 1.390 1_655 S
C2242 H2233 0.930 . S
C2242 C2240 1.384 . S
C2242 C2243 1.372 1_655 S
C2243 C2242 1.372 1_455 S
C2243 C2244 1.400 . S
C2243 C2248 1.490 . S
C2244 H2234 0.930 . S
C2244 C2243 1.400 . S
C2244 C2247 1.386 . S
H2245 C2261 0.930 . S
H2246 C2262 0.931 . S
C2247 H2235 0.929 . S
C2247 C2241 1.390 1_455 S
C2247 C2244 1.386 . S
C2248 C2243 1.490 . S
C2248 C2250 1.395 . S
C2248 C2251 1.403 . S
H2249 C2255 0.930 . S
C2250 H2236 0.930 1_455 S
C2250 C2248 1.395 . S
C2250 C2253 1.403 . S
C2251 C2248 1.403 . S
C2251 C2252 1.524 . S
C2251 C2255 1.400 . S
C2252 H2237 0.960 . S
C2252 H2238 0.960 . S
C2252 H2239 0.960 . S
C2252 C2251 1.524 . S
C2253 C2250 1.403 . S
C2253 C2254 1.392 . S
C2253 C2257 1.495 . S
C2254 C2253 1.392 . S
C2254 C2255 1.385 . S
C2254 C2256 1.478 . S
C2255 H2249 0.930 . S
C2255 C2251 1.400 . S
C2255 C2254 1.385 . S
C2256 C2254 1.478 . S
C2256 C2258 1.381 . S
C2256 C2262 1.383 . S
C2257 C2253 1.495 . S
C2257 H2263 0.959 1_455 S
C2257 H2264 0.961 . S
C2257 H2265 0.960 . S
C2258 C2256 1.381 . S
C2258 C2259 1.394 . S
C2258 H2266 0.930 . S
C2259 C2258 1.394 . S
C2259 C2260 1.383 . S
C2259 H2267 0.929 . S
C2260 C2259 1.383 . S
C2260 C2261 1.377 . S
C2261 H2245 0.930 . S
C2261 C2260 1.377 . S
C2261 C2262 1.379 . S
C2262 H2246 0.931 . S
C2262 C2256 1.383 . S
C2262 C2261 1.379 . S
H2263 C2257 0.959 1_655 S
H2264 C2257 0.961 . S
H2265 C2257 0.960 . S
H2266 C2258 0.930 . S
H2267 C2259 0.929 . S
H2268 C2276 0.929 . S
H2269 C2278 0.930 . S
H2270 C2280 0.930 . S
H2271 C2283 0.929 . S
H2272 C2286 0.930 . S
H2273 C2288 0.960 . S
H2274 C2288 0.960 . S
H2275 C2288 0.960 . S
C2276 H2268 0.929 . S
C2276 C2277 1.377 . S
C2276 C2278 1.384 . S
C2277 C2276 1.377 . S
C2277 C2283 1.390 . S
C2278 H2269 0.930 . S
C2278 C2276 1.384 . S
C2278 C2279 1.372 . S
C2279 C2278 1.372 . S
C2279 C2280 1.400 . S
C2279 C2284 1.490 . S
C2280 H2270 0.930 . S
C2280 C2279 1.400 . S
C2280 C2283 1.386 . S
H2281 C2297 0.930 . S
H2282 C2298 0.931 . S
C2283 H2271 0.929 . S
C2283 C2277 1.390 . S
C2283 C2280 1.386 . S
C2284 C2279 1.490 . S
C2284 C2286 1.395 . S
C2284 C2287 1.403 . S
H2285 C2291 0.930 . S
C2286 H2272 0.930 . S
C2286 C2284 1.395 . S
C2286 C2289 1.403 . S
C2287 C2284 1.403 . S
C2287 C2288 1.524 . S
C2287 C2291 1.400 . S
C2288 H2273 0.960 . S
C2288 H2274 0.960 . S
C2288 H2275 0.960 . S
C2288 C2287 1.524 . S
C2289 C2286 1.403 . S
C2289 C2290 1.392 . S
C2289 C2293 1.495 . S
C2290 C2289 1.392 . S
C2290 C2291 1.385 . S
C2290 C2292 1.478 . S
C2291 H2285 0.930 . S
C2291 C2287 1.400 . S
C2291 C2290 1.385 . S
C2292 C2290 1.478 . S
C2292 C2294 1.381 . S
C2292 C2298 1.383 . S
C2293 C2289 1.495 . S
C2293 H2299 0.959 . S
C2293 H2300 0.961 . S
C2293 H2301 0.960 . S
C2294 C2292 1.381 . S
C2294 C2295 1.394 . S
C2294 H2302 0.930 . S
C2295 C2294 1.394 . S
C2295 C2296 1.383 . S
C2295 H2303 0.929 . S
C2296 C2295 1.383 . S
C2296 C2297 1.377 . S
C2297 H2281 0.930 . S
C2297 C2296 1.377 . S
C2297 C2298 1.379 . S
C2298 H2282 0.931 . S
C2298 C2292 1.383 . S
C2298 C2297 1.379 . S
H2299 C2293 0.959 . S
H2300 C2293 0.961 . S
H2301 C2293 0.960 . S
H2302 C2294 0.930 . S
H2303 C2295 0.929 . S
H2304 C2312 0.929 . S
H2305 C2314 0.930 . S
H2306 C2316 0.930 . S
H2307 C2319 0.929 . S
H2308 C2322 0.930 . S
H2309 C2324 0.960 1_545 S
H2310 C2324 0.960 . S
H2311 C2324 0.960 . S
C2312 H2304 0.929 . S
C2312 C2313 1.377 . S
C2312 C2314 1.384 . S
C2313 C2312 1.377 . S
C2313 C2319 1.390 . S
C2314 H2305 0.930 . S
C2314 C2312 1.384 . S
C2314 C2315 1.372 . S
C2315 C2314 1.372 . S
C2315 C2316 1.400 . S
C2315 C2320 1.490 . S
C2316 H2306 0.930 . S
C2316 C2315 1.400 . S
C2316 C2319 1.386 . S
H2317 C2333 0.930 . S
H2318 C2334 0.931 . S
C2319 H2307 0.929 . S
C2319 C2313 1.390 . S
C2319 C2316 1.386 . S
C2320 C2315 1.490 . S
C2320 C2322 1.395 . S
C2320 C2323 1.403 . S
H2321 C2327 0.930 1_545 S
C2322 H2308 0.930 . S
C2322 C2320 1.395 . S
C2322 C2325 1.403 . S
C2323 C2320 1.403 . S
C2323 C2324 1.524 . S
C2323 C2327 1.400 . S
C2324 H2309 0.960 1_565 S
C2324 H2310 0.960 . S
C2324 H2311 0.960 . S
C2324 C2323 1.524 . S
C2325 C2322 1.403 . S
C2325 C2326 1.392 . S
C2325 C2329 1.495 . S
C2326 C2325 1.392 . S
C2326 C2327 1.385 . S
C2326 C2328 1.478 . S
C2327 H2321 0.930 1_565 S
C2327 C2323 1.400 . S
C2327 C2326 1.385 . S
C2328 C2326 1.478 . S
C2328 C2330 1.381 . S
C2328 C2334 1.383 . S
C2329 C2325 1.495 . S
C2329 H2335 0.959 . S
C2329 H2336 0.961 . S
C2329 H2337 0.960 . S
C2330 C2328 1.381 . S
C2330 C2331 1.394 . S
C2330 H2338 0.930 . S
C2331 C2330 1.394 . S
C2331 C2332 1.383 1_565 S
C2331 H2339 0.929 . S
C2332 C2331 1.383 1_545 S
C2332 C2333 1.377 . S
C2333 H2317 0.930 . S
C2333 C2332 1.377 . S
C2333 C2334 1.379 1_545 S
C2334 H2318 0.931 . S
C2334 C2328 1.383 . S
C2334 C2333 1.379 1_565 S
H2335 C2329 0.959 . S
H2336 C2329 0.961 . S
H2337 C2329 0.960 . S
H2338 C2330 0.930 . S
H2339 C2331 0.929 . S
C405 C59 0.890 . S
C424 C8 0.925 . S
C441 C30 0.899 . S
C460 C21 0.924 . S
C477 C43 0.887 . S
C496 C54 0.884 . S
C513 C84 0.901 . S
C532 C103 0.912 . S
C549 C125 0.895 . S
C568 C98 0.863 . S
C585 C120 0.894 . S
C604 C73 0.928 . S
C621 C191 0.886 . S
C640 C140 0.889 . S
C657 C153 0.891 . S
C676 C172 0.866 . S
C693 C161 0.887 . S
C712 C186 0.877 . S
C729 C235 0.899 . S
C748 C208 0.913 . S
C765 C230 0.897 . S
C784 C257 0.928 . S
C801 C213 0.888 . S
C820 C252 0.920 . S
C837 C274 0.894 . S
C856 C323 0.860 . S
C873 C279 0.897 . S
C892 C294 0.866 . S
C909 C307 0.887 . S
C928 C318 0.913 . S
C945 C359 0.896 . S
C964 C348 0.924 . S
C981 C389 0.890 . S
C1000 C370 0.925 . S
C1017 C384 0.899 . S
C1036 C337 0.925 . S
C1053 C18 0.848 . S
C1072 C206 0.839 . S
C1089 C40 0.849 . S
C1108 C228 0.833 . S
C1125 C250 0.848 . S
C1144 C52 0.839 . S
C1161 C76 0.838 . S
C1180 C272 0.826 . S
C1197 C304 0.839 . S
C1216 C96 0.824 . S
C1233 C316 0.843 . S
C1252 C118 0.866 . S
C1269 C293 0.952 . S
C1288 C131 0.920 . S
C1305 C81 0.937 . S
C1324 C329 0.956 . S
C1341 C285 0.953 . S
C1360 C109 0.915 . S
C1377 C29 0.938 . S
C1396 C263 0.984 . S
C1413 C65 0.944 . S
C1432 C219 0.916 . S
C1449 C241 0.952 . S
C1468 C7 0.901 . S
C1485 C340 0.849 . S
C1504 C150 0.808 . S
C1521 C164 0.834 . S
C1540 C362 0.858 . S
C1557 C382 0.840 . S
C1576 C184 0.816 . S
C1593 C395 0.952 . S
C1612 C169 0.902 . S
C1629 C197 0.952 . S
C1648 C345 0.925 . S
C1665 C367 0.942 . S
C1684 C139 0.923 . S
C1701 C15 1.281 . S
C1720 C87 1.278 . S
C1737 C95 1.282 . S
C1756 C37 1.279 . S
C1773 C117 1.279 . S
C1792 C51 1.272 . S
C1809 C32 1.138 . S
C1828 C128 1.131 . S
C1845 C62 1.139 . S
C1864 C74 1.128 . S
C1881 C106 1.136 . S
C1900 C10 1.146 . S
C1917 C147 1.279 . S
C1936 C205 1.270 . S
C1953 C227 1.282 . S
C1972 C175 1.281 . S
C1989 C249 1.281 . S
C2008 C183 1.285 . S
C2025 C162 1.136 . S
C2044 C260 1.143 . S
C2061 C216 1.139 . S
C2080 C194 1.125 . S
C2097 C142 1.135 . S
C2116 C238 1.147 . S
C2133 C351 1.280 . S
C2152 C271 1.270 . S
C2169 C373 1.279 . S
C2188 C301 1.273 . S
C2205 C381 1.279 . S
C2224 C315 1.270 . S
C2241 C296 1.138 . S
C2260 C392 1.135 . S
C2277 C326 1.136 . S
C2296 C338 1.143 . S
C2313 C360 1.135 . S
C2332 C282 1.147 . S
