# Generated by pormake.
# Topology smm, (6)-cn, num edge types: 1
# Building blocks:
#     Node 0, Type 0, BuildingBlock: MIFKUJ_clean_sbu_0, # of connection points: 6
#     Node 1, Type 0, BuildingBlock: MIFKUJ_clean_sbu_0, # of connection points: 6
#     Node 2, Type 0, BuildingBlock: MIFKUJ_clean_sbu_0, # of connection points: 6
#     Node 3, Type 0, BuildingBlock: MIFKUJ_clean_sbu_0, # of connection points: 6
#     Node 4, Type 0, BuildingBlock: MIFKUJ_clean_sbu_0, # of connection points: 6
#     Node 5, Type 0, BuildingBlock: MIFKUJ_clean_sbu_0, # of connection points: 6
#     Node 6, Type 0, BuildingBlock: MIFKUJ_clean_sbu_0, # of connection points: 6
#     Node 7, Type 0, BuildingBlock: MIFKUJ_clean_sbu_0, # of connection points: 6
#     Node 8, Type 0, BuildingBlock: MIFKUJ_clean_sbu_0, # of connection points: 6
#     Edge 9, Type (0, 0), BuildingBlock: AJUNOK_clean_linker_0, # of connection points: 2
#     Edge 10, Type (0, 0), BuildingBlock: AJUNOK_clean_linker_0, # of connection points: 2
#     Edge 11, Type (0, 0), BuildingBlock: AJUNOK_clean_linker_0, # of connection points: 2
#     Edge 12, Type (0, 0), BuildingBlock: AJUNOK_clean_linker_0, # of connection points: 2
#     Edge 13, Type (0, 0), BuildingBlock: AJUNOK_clean_linker_0, # of connection points: 2
#     Edge 14, Type (0, 0), BuildingBlock: AJUNOK_clean_linker_0, # of connection points: 2
#     Edge 15, Type (0, 0), BuildingBlock: AJUNOK_clean_linker_0, # of connection points: 2
#     Edge 16, Type (0, 0), BuildingBlock: AJUNOK_clean_linker_0, # of connection points: 2
#     Edge 17, Type (0, 0), BuildingBlock: AJUNOK_clean_linker_0, # of connection points: 2
#     Edge 18, Type (0, 0), BuildingBlock: AJUNOK_clean_linker_0, # of connection points: 2
#     Edge 19, Type (0, 0), BuildingBlock: AJUNOK_clean_linker_0, # of connection points: 2
#     Edge 20, Type (0, 0), BuildingBlock: AJUNOK_clean_linker_0, # of connection points: 2
#     Edge 21, Type (0, 0), BuildingBlock: AJUNOK_clean_linker_0, # of connection points: 2
#     Edge 22, Type (0, 0), BuildingBlock: AJUNOK_clean_linker_0, # of connection points: 2
#     Edge 23, Type (0, 0), BuildingBlock: AJUNOK_clean_linker_0, # of connection points: 2
#     Edge 24, Type (0, 0), BuildingBlock: AJUNOK_clean_linker_0, # of connection points: 2
#     Edge 25, Type (0, 0), BuildingBlock: AJUNOK_clean_linker_0, # of connection points: 2
#     Edge 26, Type (0, 0), BuildingBlock: AJUNOK_clean_linker_0, # of connection points: 2
#     Edge 27, Type (0, 0), BuildingBlock: AJUNOK_clean_linker_0, # of connection points: 2
#     Edge 28, Type (0, 0), BuildingBlock: AJUNOK_clean_linker_0, # of connection points: 2
#     Edge 29, Type (0, 0), BuildingBlock: AJUNOK_clean_linker_0, # of connection points: 2
#     Edge 30, Type (0, 0), BuildingBlock: AJUNOK_clean_linker_0, # of connection points: 2
#     Edge 31, Type (0, 0), BuildingBlock: AJUNOK_clean_linker_0, # of connection points: 2
#     Edge 32, Type (0, 0), BuildingBlock: AJUNOK_clean_linker_0, # of connection points: 2
#     Edge 33, Type (0, 0), BuildingBlock: AJUNOK_clean_linker_0, # of connection points: 2
#     Edge 34, Type (0, 0), BuildingBlock: AJUNOK_clean_linker_0, # of connection points: 2
#     Edge 35, Type (0, 0), BuildingBlock: AJUNOK_clean_linker_0, # of connection points: 2
# Relax obj value: 0.030
# Max RMSD: 0.121
# Mean RMSD: 0.104
data_MOF--net-smm--node1-MIFKUJ_clean_sbu_0--edge1-AJUNOK_clean_linker_0
_symmetry_space_group_name_H-M    P1
_symmetry_Int_Tables_number       1
_symmetry_cell_setting            triclinic
loop_
_symmetry_equiv_pos_as_xyz
'x, y, z'
_cell_length_a     47.088608
_cell_length_b     48.798149
_cell_length_c     9.8214778
_cell_angle_alpha  92.646237
_cell_angle_beta   92.143104
_cell_angle_gamma 119.84964
loop_
_atom_site_label
_atom_site_type_symbol
_atom_site_fract_x
_atom_site_fract_y
_atom_site_fract_z
_atom_type_partial_charge
Zn0 Zn 0.9846 0.13499 0.10716 0.0
Zn1 Zn 0.02448 0.21802 0.08335 0.0
C2 C 0.0391 0.12918 0.04108 0.0
O3 O 0.02099 0.11922 0.92503 0.0
C4 C 0.97966 0.23712 0.14179 0.0
O5 O 1.00022 0.2476 0.2507 0.0
O6 O 0.95344 0.08824 0.1136 0.0
O7 O 0.97445 0.16028 0.2365 0.0
O8 O 0.02309 0.20405 0.26758 0.0
C9 C 0.96171 0.07349 0.19468 0.0
O10 O 0.98701 0.08973 0.28333 0.0
O11 O 0.03003 0.14054 0.13834 0.0
C12 C 0.08595 0.27273 0.00333 0.0
O13 O 0.08973 0.25238 0.92508 0.0
O14 O 0.0619 0.26265 0.07866 0.0
O15 O 0.02705 0.18849 0.94895 0.0
O16 O 0.97807 0.14586 0.92864 0.0
O17 O 0.98401 0.22155 0.04556 0.0
C18 C 0.99675 0.18301 0.31294 0.0
C19 C 1.00037 0.17019 0.87997 0.0
Zn20 Zn 0.88053 0.87435 0.09183 0.0
Zn21 Zn 0.8113 0.78425 0.10103 0.0
C22 C 0.94731 0.89084 0.11618 0.0
O23 O 0.94285 0.89605 0.24392 0.0
C24 C 0.75738 0.77795 0.93563 0.0
O25 O 0.77252 0.77 0.84598 0.0
O26 O 0.88656 0.91862 0.10363 0.0
O27 O 0.84222 0.84257 0.97481 0.0
O28 O 0.83856 0.79643 0.94476 0.0
C29 C 0.91056 0.94023 0.04655 0.0
O30 O 0.92752 0.9326 0.96588 0.0
O31 O 0.92258 0.87824 0.02994 0.0
C32 C 0.80261 0.72395 0.20134 0.0
O33 O 0.82582 0.74071 0.29777 0.0
O34 O 0.79442 0.7379 0.11538 0.0
O35 O 0.83692 0.80899 0.2751 0.0
O36 O 0.87567 0.86015 0.27805 0.0
O37 O 0.77041 0.78709 0.0572 0.0
C38 C 0.84883 0.82402 0.90694 0.0
C39 C 0.85907 0.83489 0.33719 0.0
Zn40 Zn 0.14047 0.02946 0.97587 0.0
Zn41 Zn 0.20675 0.00095 0.9225 0.0
C42 C 0.07674 0.97475 0.94368 0.0
O43 O 0.07932 0.98418 0.81941 0.0
C44 C 0.26893 0.04914 0.05487 0.0
O45 O 0.25516 0.03619 0.16624 0.0
O46 O 0.13284 0.06649 0.00244 0.0
O47 O 0.18135 0.03562 0.06954 0.0
O48 O 0.18695 0.99458 0.09949 0.0
C49 C 0.11573 0.06782 0.09692 0.0
O50 O 0.10503 0.04591 0.18489 0.0
O51 O 0.10068 0.9904 0.03219 0.0
C52 C 0.22305 0.95972 0.76465 0.0
O53 O 0.22253 0.97619 0.66345 0.0
O54 O 0.21477 0.96483 0.88056 0.0
O55 O 0.17977 0.00546 0.76979 0.0
O56 O 0.144 0.02293 0.77784 0.0
O57 O 0.25205 0.03924 0.94104 0.0
C58 C 0.17761 0.01344 0.14213 0.0
C59 C 0.15946 0.01208 0.71205 0.0
Zn60 Zn 0.70341 0.48835 0.18946 0.0
Zn61 Zn 0.66439 0.53048 0.24349 0.0
C62 C 0.64815 0.42867 0.22972 0.0
O63 O 0.66367 0.43516 0.3511 0.0
C64 C 0.71071 0.58971 0.18569 0.0
O65 O 0.68531 0.58115 0.09878 0.0
O66 O 0.73554 0.47286 0.18462 0.0
O67 O 0.71137 0.52097 0.06202 0.0
O68 O 0.66166 0.51555 0.05406 0.0
C69 C 0.73591 0.45474 0.08849 0.0
O70 O 0.71852 0.44987 0.97302 0.0
O71 O 0.6596 0.44917 0.14193 0.0
C72 C 0.64123 0.56772 0.37095 0.0
O73 O 0.66972 0.57841 0.43903 0.0
O74 O 0.63147 0.54493 0.27964 0.0
O75 O 0.65775 0.49643 0.35698 0.0
O76 O 0.70818 0.50591 0.37517 0.0
O77 O 0.70915 0.57022 0.27103 0.0
C78 C 0.68833 0.52284 -0.0004 0.0
C79 C 0.68373 0.50464 0.4292 0.0
Zn80 Zn 0.54939 0.23291 0.18918 0.0
Zn81 Zn 0.47411 0.13988 0.21085 0.0
C82 C 0.60475 0.22183 0.17107 0.0
O83 O 0.59177 0.20327 0.27062 0.0
C84 C 0.41075 0.1156 0.09495 0.0
O85 O 0.42419 0.10526 0.00666 0.0
O86 O 0.55441 0.27608 0.18362 0.0
O87 O 0.50809 0.19876 0.08548 0.0
O88 O 0.49107 0.14915 0.02536 0.0
C89 C 0.56868 0.29461 0.09114 0.0
O90 O 0.57667 0.28369 0.98318 0.0
O91 O 0.59019 0.23542 0.12052 0.0
C92 C 0.45555 0.08881 0.37435 0.0
O93 O 0.44534 0.10575 0.44171 0.0
O94 O 0.47057 0.09925 0.26721 0.0
O95 O 0.50538 0.17684 0.3398 0.0
O96 O 0.54674 0.22487 0.38902 0.0
O97 O 0.42816 0.13291 0.19998 0.0
C98 C 0.50718 0.17803 -0.00051 0.0
C99 C 0.52413 0.19903 0.4281 0.0
Zn100 Zn 0.80592 0.32602 0.18725 0.0
Zn101 Zn 0.90084 0.35208 0.2641 0.0
C102 C 0.77856 0.36434 0.19831 0.0
O103 O 0.76528 0.3449 0.29481 0.0
C104 C 0.90739 0.30315 0.12278 0.0
O105 O 0.91379 0.32205 0.0233 0.0
O106 O 0.76229 0.28554 0.16235 0.0
O107 O 0.84214 0.32446 0.0979 0.0
O108 O 0.8909 0.36519 0.08982 0.0
C109 C 0.74181 0.28179 0.06512 0.0
O110 O 0.75162 0.30219 0.97054 0.0
O111 O 0.79886 0.36126 0.12649 0.0
C112 C 0.95904 0.38428 0.44935 0.0
O113 O 0.93826 0.36962 0.54191 0.0
O114 O 0.94819 0.38177 0.32622 0.0
O115 O 0.87172 0.35134 0.41064 0.0
O116 O 0.81822 0.33542 0.38829 0.0
O117 O 0.89841 0.30991 0.23391 0.0
C118 C 0.86178 0.3486 0.03818 0.0
C119 C 0.84515 0.34648 0.46044 0.0
Zn120 Zn 0.34246 0.81216 0.67033 0.0
Zn121 Zn 0.36183 0.90168 0.63256 0.0
C122 C 0.40722 0.81769 0.70078 0.0
O123 O 0.41042 0.82734 0.57671 0.0
C124 C 0.31105 0.90944 0.74127 0.0
O125 O 0.33102 0.91715 0.85119 0.0
O126 O 0.30532 0.76672 0.66866 0.0
O127 O 0.33346 0.84402 0.75875 0.0
O128 O 0.37254 0.89222 0.81545 0.0
C129 C 0.30809 0.7496 0.75595 0.0
O130 O 0.33138 0.763 0.85478 0.0
O131 O 0.38212 0.81317 0.762 0.0
C132 C 0.4008 0.9569 0.48551 0.0
O133 O 0.38853 0.93637 0.37842 0.0
O134 O 0.39414 0.94705 0.60395 0.0
O135 O 0.36154 0.87228 0.47898 0.0
O136 O 0.35065 0.82216 0.47593 0.0
O137 O 0.31814 0.9 0.63171 0.0
C138 C 0.35555 0.86385 0.84575 0.0
C139 C 0.35868 0.84742 0.41681 0.0
Zn140 Zn 0.21804 0.55289 0.7453 0.0
Zn141 Zn 0.15682 0.45856 0.76213 0.0
C142 C 0.28493 0.57459 0.79448 0.0
O143 O 0.27805 0.58646 0.90274 0.0
C144 C 0.09711 0.43366 0.60725 0.0
O145 O 0.11386 0.42455 0.53221 0.0
O146 O 0.2229 0.59598 0.72142 0.0
O147 O 0.18013 0.51628 0.64159 0.0
O148 O 0.17959 0.47209 0.59254 0.0
C149 C 0.24454 0.61369 0.64333 0.0
O150 O 0.25834 0.60165 0.56572 0.0
O151 O 0.26162 0.55658 0.7066 0.0
C152 C 0.14235 0.40625 0.92066 0.0
O153 O 0.13584 0.42329 0.00792 0.0
O154 O 0.15329 0.41733 0.80758 0.0
O155 O 0.18028 0.49194 0.91791 0.0
O156 O 0.21236 0.54444 0.93968 0.0
O157 O 0.11052 0.44965 0.7204 0.0
C158 C 0.18689 0.49961 0.56141 0.0
C159 C 0.19737 0.51784 -0.00908 0.0
Zn160 Zn 0.48536 0.69764 0.72187 0.0
Zn161 Zn 0.55792 0.67313 0.67265 0.0
C162 C 0.42234 0.63931 0.68118 0.0
O163 O 0.43131 0.63939 0.55621 0.0
C164 C 0.6176 0.72426 0.81992 0.0
O165 O 0.59943 0.71623 0.92512 0.0
O166 O 0.48357 0.73799 0.75362 0.0
O167 O 0.52484 0.6984 0.81029 0.0
O168 O 0.53874 0.66334 0.85429 0.0
C169 C 0.46168 0.73853 0.8239 0.0
O170 O 0.44231 0.71344 0.88767 0.0
O171 O 0.44237 0.66064 0.77061 0.0
C172 C 0.58176 0.64392 0.4959 0.0
O173 O 0.59396 0.6722 0.44978 0.0
O174 O 0.56298 0.63711 0.59367 0.0
O175 O 0.52816 0.68041 0.5426 0.0
O176 O 0.48938 0.69321 0.52074 0.0
O177 O 0.6044 0.71079 0.70226 0.0
C178 C 0.52416 0.67823 0.88924 0.0
C179 C 0.50879 0.6854 0.46764 0.0
C180 C 0.1049 0.32851 0.08866 0.0
C181 C 0.10552 0.30729 -0.01158 0.0
C182 C 0.11836 0.36072 0.06843 0.0
C183 C 0.13286 0.37311 0.94662 0.0
H184 H 0.09289 0.32 0.18208 0.0
H185 H 0.1162 0.37573 0.14723 0.0
S186 S 0.14324 0.32802 0.65609 0.0
N187 N 0.12392 0.30133 0.7665 0.0
N188 N 0.14912 0.36187 0.7278 0.0
C189 C 0.13524 0.35248 0.84832 0.0
C190 C 0.12164 0.3196 0.86943 0.0
C191 C 0.7022 0.76653 0.00666 0.0
C192 C 0.72312 0.77047 0.90161 0.0
C193 C 0.66831 0.75344 0.97816 0.0
C194 C 0.65394 0.74379 0.84344 0.0
H195 H 0.71168 0.77189 0.11256 0.0
H196 H 0.65315 0.74942 0.0636 0.0
S197 S 0.6989 0.75457 0.52946 0.0
N198 N 0.7277 0.76778 0.65588 0.0
N199 N 0.66411 0.74318 0.60242 0.0
C200 C 0.67498 0.75006 0.73656 0.0
C201 C 0.70951 0.76337 0.76564 0.0
C202 C 0.25313 0.93545 0.8737 0.0
C203 C 0.24009 0.94112 0.75393 0.0
C204 C 0.27463 0.92351 0.86788 0.0
C205 C 0.28375 0.91638 0.74215 0.0
H206 H 0.24823 0.94192 0.97345 0.0
H207 H 0.28519 0.92105 0.96328 0.0
S208 S 0.25221 0.92198 0.39834 0.0
N209 N 0.23477 0.93519 0.50557 0.0
N210 N 0.27499 0.91236 0.49437 0.0
C211 C 0.26887 0.91953 0.62133 0.0
C212 C 0.24714 0.93203 0.62732 0.0
C213 C 0.35734 0.10022 0.19628 0.0
C214 C 0.37503 0.10355 0.08006 0.0
C215 C 0.32291 0.08393 0.18623 0.0
C216 C 0.30495 0.07079 0.05941 0.0
H217 H 0.37006 0.10871 0.29669 0.0
H218 H 0.31032 0.08065 0.27937 0.0
S219 S 0.34011 0.07685 0.7221 0.0
N220 N 0.37233 0.09507 0.83298 0.0
N221 N 0.3078 0.06499 0.81329 0.0
C222 C 0.3225 0.07594 0.94126 0.0
C223 C 0.3575 0.09215 0.95187 0.0
C224 C 0.9256 0.27008 0.24323 0.0
C225 C 0.91872 0.27972 0.11935 0.0
C226 C 0.94355 0.25433 0.24768 0.0
C227 C 0.95483 0.24708 0.12839 0.0
H228 H 0.91909 0.27661 0.33912 0.0
H229 H 0.94998 0.24913 0.3465 0.0
S230 S 0.93867 0.26221 0.77534 0.0
N231 N 0.92112 0.27732 0.87209 0.0
N232 N 0.95459 0.24723 0.88088 0.0
C233 C 0.94561 0.25389 0.00236 0.0
C234 C 0.92762 0.27036 -0.0022 0.0
C235 C 0.76412 0.67208 0.07695 0.0
C236 C 0.78369 0.6889 0.19641 0.0
C237 C 0.74207 0.63961 0.07313 0.0
C238 C 0.73855 0.62247 0.18852 0.0
H239 H 0.76497 0.68426 -0.01367 0.0
H240 H 0.72678 0.62808 0.9798 0.0
S241 S 0.78644 0.65446 0.52257 0.0
N242 N 0.8002 0.68547 0.43005 0.0
N243 N 0.75839 0.62404 0.42259 0.0
C244 C 0.75942 0.63842 0.30618 0.0
C245 C 0.78208 0.67174 0.31018 0.0
C246 C 0.04074 0.42255 0.65928 0.0
C247 C 0.06269 0.42381 0.56302 0.0
C248 C 0.00736 0.41049 0.62104 0.0
C249 C 0.99484 0.39981 0.48476 0.0
H250 H 0.04913 0.42992 0.76583 0.0
H251 H 0.99117 0.40912 0.69928 0.0
S252 S 0.0425 0.39975 0.19185 0.0
N253 N 0.06975 0.41454 0.32421 0.0
N254 N 0.00732 0.39229 0.25239 0.0
C255 C 0.01678 0.40204 0.38661 0.0
C256 C 0.05061 0.4139 0.42577 0.0
C257 C 0.62654 0.63669 0.40741 0.0
C258 C 0.59451 0.62298 0.45131 0.0
C259 C 0.64103 0.61827 0.37853 0.0
C260 C 0.62372 0.58538 0.38857 0.0
H261 H 0.64113 0.66207 0.40073 0.0
H262 H 0.66619 0.62994 0.34984 0.0
S263 S 0.53865 0.53748 0.49002 0.0
N264 N 0.54551 0.57422 0.49906 0.0
N265 N 0.5726 0.53942 0.43892 0.0
C266 C 0.59127 0.57104 0.42638 0.0
C267 C 0.5767 0.58992 0.45942 0.0
C268 C 0.44551 0.03414 0.31522 0.0
C269 C 0.44559 0.05635 0.41209 0.0
C270 C 0.432 0.0022 0.34181 0.0
C271 C 0.41849 0.99133 0.46694 0.0
H272 H 0.45468 0.04113 0.21572 0.0
H273 H 0.43147 0.98577 0.26228 0.0
S274 S 0.41517 0.04054 0.75948 0.0
N275 N 0.43283 0.06566 0.64156 0.0
N276 N 0.40773 0.00579 0.692 0.0
C277 C 0.4199 0.01362 0.56742 0.0
C278 C 0.43335 0.04607 0.5398 0.0
C279 C 0.09706 0.09899 0.96394 0.0
C280 C 0.10245 0.08962 0.09111 0.0
C281 C 0.07843 0.11398 0.95062 0.0
C282 C 0.06498 0.12072 0.06423 0.0
H283 H 0.10539 0.09283 0.87222 0.0
H284 H 0.07317 0.1189 0.84918 0.0
S285 S 0.07677 0.1058 0.42356 0.0
N286 N 0.09614 0.09133 0.33525 0.0
N287 N 0.06194 0.12043 0.31113 0.0
C288 C 0.07276 0.11411 0.19397 0.0
C289 C 0.09122 0.09824 0.20709 0.0
C290 C 0.90211 0.98632 0.09853 0.0
C291 C 0.92325 0.97384 0.08935 0.0
C292 C 0.91459 0.01871 0.13436 0.0
C293 C 0.94836 0.03918 0.16695 0.0
H294 H 0.87598 0.97117 0.07424 0.0
H295 H 0.8978 0.02781 0.13651 0.0
S296 S 0.01361 0.0176 0.16302 0.0
N297 N 0.97934 0.98415 0.11745 0.0
N298 N 1.00256 0.04454 0.1892 0.0
C299 C 0.96953 0.02668 0.16165 0.0
C300 C 0.95701 0.99409 0.12168 0.0
C301 C 0.00793 0.92454 0.16498 0.0
C302 C 0.98105 0.90681 0.06905 0.0
C303 C 0.03923 0.94521 0.12342 0.0
C304 C 0.04492 0.94903 0.98419 0.0
H305 H 0.00456 0.92371 0.27352 0.0
H306 H 0.05869 0.95941 0.20148 0.0
S307 S 0.98409 0.90437 0.69147 0.0
N308 N 0.96313 0.89162 0.82798 0.0
N309 N 0.02194 0.93048 0.74989 0.0
C310 C 0.01885 0.92972 0.88696 0.0
C311 C 0.98694 0.90856 0.92934 0.0
C312 C 0.76404 0.4245 0.02077 0.0
C313 C 0.74882 0.4335 0.11967 0.0
C314 C 0.77451 0.40275 0.04794 0.0
C315 C 0.76927 0.38868 0.17354 0.0
H316 H 0.7678 0.43427 0.92188 0.0
H317 H 0.78602 0.39634 0.96879 0.0
S318 S 0.72917 0.40356 0.46414 0.0
N319 N 0.72855 0.42641 0.34686 0.0
N320 N 0.74754 0.38536 0.39718 0.0
C321 C 0.75396 0.39753 0.27288 0.0
C322 C 0.7439 0.41998 0.24612 0.0
C323 C 0.62015 0.38286 0.05484 0.0
C324 C 0.62222 0.39584 0.18818 0.0
C325 C 0.60088 0.35015 0.02137 0.0
C326 C 0.58273 0.3293 0.11965 0.0
H327 H 0.63521 0.39772 0.97817 0.0
H328 H 0.60163 0.34105 0.91967 0.0
S329 S 0.5753 0.3527 0.47664 0.0
N330 N 0.60145 0.38627 0.41378 0.0
N331 N 0.56462 0.32494 0.35124 0.0
C332 C 0.58233 0.34251 0.24998 0.0
C333 C 0.6023 0.37575 0.28423 0.0
C334 C 0.65019 0.24882 0.01677 0.0
C335 C 0.63829 0.23108 0.13125 0.0
C336 C 0.68337 0.26306 -0.00993 0.0
C337 C 0.70613 0.26037 0.07725 0.0
H338 H 0.63407 0.253 0.95025 0.0
H339 H 0.69142 0.2778 0.90463 0.0
S340 S 0.68656 0.212 0.37755 0.0
N341 N 0.65112 0.20815 0.32242 0.0
N342 N 0.71355 0.23502 0.27251 0.0
C343 C 0.69407 0.24047 0.18545 0.0
C344 C 0.66015 0.22581 0.21237 0.0
C345 C 0.46267 0.78224 0.6975 0.0
C346 C 0.45384 0.76424 0.81232 0.0
C347 C 0.44954 0.80169 0.66795 0.0
C348 C 0.42723 0.80404 0.75255 0.0
H349 H 0.47808 0.77971 0.62462 0.0
H350 H 0.45539 0.81336 0.57344 0.0
S351 S 0.40229 0.76734 0.08247 0.0
N352 N 0.42564 0.75383 0.0224 0.0
N353 N 0.40157 0.79096 0.9691 0.0
C354 C 0.421 0.78876 0.87534 0.0
C355 C 0.43409 0.76866 0.90448 0.0
C356 C 0.24204 0.66383 0.66796 0.0
C357 C 0.26045 0.64833 0.66791 0.0
C358 C 0.25751 0.69691 0.6947 0.0
C359 C 0.29155 0.71502 0.7272 0.0
H360 H 0.21569 0.65039 0.6458 0.0
H361 H 0.24278 0.70829 0.69239 0.0
S362 S 0.35038 0.68536 0.74299 0.0
N363 N 0.31435 0.65346 0.70205 0.0
N364 N 0.34311 0.71513 0.75717 0.0
C365 C 0.31004 0.69963 0.72875 0.0
C366 C 0.29454 0.66634 0.69789 0.0
C367 C 0.37768 0.62132 0.84263 0.0
C368 C 0.38766 0.61832 0.71222 0.0
C369 C 0.34449 0.60569 0.86965 0.0
C370 C 0.31978 0.58632 0.7676 0.0
H371 H 0.39549 0.63689 0.92365 0.0
H372 H 0.33818 0.60983 0.97048 0.0
S373 S 0.3329 0.56757 0.41295 0.0
N374 N 0.37016 0.59212 0.48273 0.0
N375 N 0.30775 0.56285 0.53382 0.0
C376 C 0.32944 0.58152 0.63897 0.0
C377 C 0.36336 0.59749 0.61125 0.0
C378 C 0.98006 0.14754 0.64677 0.0
C379 C 0.99704 0.17444 0.73794 0.0
C380 C 0.97887 0.15074 0.50812 0.0
C381 C 0.9948 0.1809 0.45806 0.0
H382 H 0.96876 0.12389 0.68208 0.0
H383 H 0.96671 0.12941 0.43984 0.0
S384 S 0.03729 0.25854 0.65873 0.0
N385 N 0.0259 0.23193 0.77329 0.0
N386 N 0.02475 0.2381 0.50874 0.0
C387 C 0.0103 0.20804 0.54865 0.0
C388 C 0.01114 0.20475 0.69032 0.0
C389 C 0.85905 0.80637 0.68347 0.0
C390 C 0.8602 0.83086 0.76905 0.0
C391 C 0.86077 0.80871 0.54321 0.0
C392 C 0.86436 0.8358 0.48477 0.0
H393 H 0.85443 0.78427 0.72311 0.0
H394 H 0.85783 0.78864 0.47961 0.0
S395 S 0.87612 0.9093 0.66669 0.0
N396 N 0.87037 0.88503 0.78778 0.0
N397 N 0.87451 0.88963 0.52259 0.0
C398 C 0.86949 0.86193 0.57005 0.0
C399 C 0.86722 0.85941 0.71312 0.0
C400 C 0.15524 0.98409 0.49039 0.0
C401 C 0.15681 0.01022 0.56318 0.0
C402 C 0.15935 0.98439 0.35065 0.0
C403 C 0.16599 0.0112 0.28017 0.0
H404 H 0.15218 0.96384 0.54297 0.0
H405 H 0.15915 0.96415 0.29943 0.0
S406 S 0.17054 0.08495 0.42595 0.0
N407 N 0.16272 0.06248 0.55573 0.0
N408 N 0.17214 0.0639 0.29302 0.0
C409 C 0.16572 0.0368 0.35084 0.0
C410 C 0.16075 0.03612 0.49286 0.0
C411 C 0.71524 0.52265 0.65072 0.0
C412 C 0.68673 0.51552 0.57129 0.0
C413 C 0.71699 0.5284 0.79061 0.0
C414 C 0.69015 0.5269 0.85445 0.0
H415 H 0.73564 0.52202 0.60625 0.0
H416 H 0.73855 0.53164 0.84914 0.0
S417 S 0.61408 0.51852 0.68674 0.0
N418 N 0.63388 0.51357 0.56157 0.0
N419 N 0.63772 0.52544 0.82702 0.0
C420 C 0.66339 0.52412 0.77462 0.0
C421 C 0.66141 0.5179 0.63182 0.0
C422 C 0.54717 0.20658 0.66883 0.0
C423 C 0.51975 0.19479 0.57438 0.0
C424 C 0.54316 0.20158 0.80803 0.0
C425 C 0.51168 0.18494 0.85593 0.0
H426 H 0.57178 0.21903 0.63445 0.0
H427 H 0.56471 0.2101 0.87743 0.0
S428 S 0.43234 0.15347 0.65343 0.0
N429 N 0.46034 0.16876 0.54066 0.0
N430 N 0.45285 0.15908 0.80185 0.0
C431 C 0.48419 0.17412 0.76343 0.0
C432 C 0.48822 0.17914 0.62245 0.0
C433 C 0.82121 0.32778 0.68138 0.0
C434 C 0.84552 0.35136 0.60877 0.0
C435 C 0.82536 0.32833 0.82345 0.0
C436 C 0.85375 0.35266 0.89667 0.0
H437 H 0.80019 0.30756 0.62743 0.0
H438 H 0.80737 0.30837 0.87442 0.0
S439 S 0.92059 0.42362 0.75378 0.0
N440 N 0.89602 0.40208 0.61971 0.0
N441 N 0.9036 0.40375 0.8874 0.0
C442 C 0.87637 0.37814 0.82582 0.0
C443 C 0.87233 0.37729 0.68135 0.0
C444 C 0.38669 0.87362 0.21354 0.0
C445 C 0.36121 0.84727 0.26873 0.0
C446 C 0.38591 0.87748 0.07373 0.0
C447 C 0.35924 0.85539 0.98498 0.0
H448 H 0.40665 0.89205 0.27981 0.0
H449 H 0.40547 0.89884 0.03648 0.0
S450 S 0.28742 0.78118 0.08049 0.0
N451 N 0.31002 0.7975 0.2252 0.0
N452 N 0.30763 0.80522 0.9623 0.0
C453 C 0.33457 0.8279 0.03826 0.0
C454 C 0.33577 0.82373 0.18053 0.0
C455 C 0.20213 0.49198 0.19308 0.0
C456 C 0.19945 0.5167 0.13864 0.0
C457 C 0.20064 0.48818 0.33271 0.0
C458 C 0.19561 0.50854 0.42177 0.0
H459 H 0.20465 0.47503 0.12682 0.0
H460 H 0.20181 0.46816 0.3697 0.0
S461 S 0.18893 0.57811 0.32736 0.0
N462 N 0.194 0.56318 0.18215 0.0
N463 N 0.18956 0.55534 0.44526 0.0
C464 C 0.19447 0.53434 0.36873 0.0
C465 C 0.19674 0.53856 0.22657 0.0
C466 C 0.51352 0.6581 0.25726 0.0
C467 C 0.50884 0.68199 0.31822 0.0
C468 C 0.51593 0.6557 0.11626 0.0
C469 C 0.51452 0.67756 0.03138 0.0
H470 H 0.51581 0.6414 0.31925 0.0
H471 H 0.52035 0.63731 0.0746 0.0
S472 S 0.50245 0.74458 0.14388 0.0
N473 N 0.50171 0.72723 0.28501 0.0
N474 N 0.50775 0.72377 0.02035 0.0
C475 C 0.50886 0.70105 0.09128 0.0
C476 C 0.50572 0.70304 0.23476 0.0
loop_
_geom_bond_atom_site_label_1
_geom_bond_atom_site_label_2
_geom_bond_distance
_geom_bond_site_symmetry_2
_ccdc_geom_bond_type
Zn0 O6 1.969 1_455 S
Zn0 O7 1.965 1_455 S
Zn0 O11 2.024 . S
Zn0 O16 1.969 1_554 S
Zn1 O8 1.969 . S
Zn1 O14 1.969 . S
Zn1 O15 1.965 1_554 S
Zn1 O17 2.024 1_455 S
C2 O3 1.229 1_554 S
C2 O11 1.058 . S
O3 C2 1.229 1_556 S
C4 O5 1.229 . S
C4 O17 1.058 . S
O5 C4 1.229 . S
O6 Zn0 1.969 1_655 S
O6 C9 1.267 . S
O7 Zn0 1.965 1_655 S
O7 C18 1.260 1_655 S
O8 Zn1 1.969 . S
O8 C18 1.258 . S
C9 O6 1.267 . S
C9 O10 1.228 . S
O10 C9 1.228 . S
O11 Zn0 2.024 . S
O11 C2 1.058 . S
C12 O13 1.228 . S
C12 O14 1.267 1_556 S
O13 C12 1.228 . S
O14 Zn1 1.969 . S
O14 C12 1.267 1_554 S
O15 Zn1 1.965 1_556 S
O15 C19 1.260 . S
O16 Zn0 1.969 1_556 S
O16 C19 1.258 . S
O17 Zn1 2.024 1_655 S
O17 C4 1.058 . S
C18 O7 1.260 1_455 S
C18 O8 1.258 . S
C19 O15 1.260 . S
C19 O16 1.258 . S
Zn20 O26 1.969 . S
Zn20 O27 1.965 1_554 S
Zn20 O31 2.024 . S
Zn20 O36 1.969 . S
Zn21 O28 1.969 1_554 S
Zn21 O34 1.969 . S
Zn21 O35 1.965 . S
Zn21 O37 2.024 . S
C22 O23 1.229 . S
C22 O31 1.058 . S
O23 C22 1.229 . S
C24 O25 1.229 . S
C24 O37 1.059 1_556 S
O25 C24 1.229 . S
O26 Zn20 1.969 . S
O26 C29 1.267 1_554 S
O27 Zn20 1.965 1_556 S
O27 C38 1.260 . S
O28 Zn21 1.969 1_556 S
O28 C38 1.258 . S
C29 O26 1.267 1_556 S
C29 O30 1.228 . S
O30 C29 1.228 . S
O31 Zn20 2.024 . S
O31 C22 1.058 . S
C32 O33 1.228 . S
C32 O34 1.267 . S
O33 C32 1.228 . S
O34 Zn21 1.969 . S
O34 C32 1.267 . S
O35 Zn21 1.965 . S
O35 C39 1.260 . S
O36 Zn20 1.969 . S
O36 C39 1.258 . S
O37 Zn21 2.024 . S
O37 C24 1.059 1_554 S
C38 O27 1.260 . S
C38 O28 1.258 . S
C39 O35 1.260 . S
C39 O36 1.258 . S
Zn40 O46 1.969 . S
Zn40 O47 1.963 1_556 S
Zn40 O51 2.023 1_546 S
Zn40 O56 1.971 . S
Zn41 O48 1.969 . S
Zn41 O54 1.969 1_545 S
Zn41 O55 1.965 1_544 S
Zn41 O57 2.024 1_554 S
C42 O43 1.229 . S
C42 O51 1.058 1_556 S
O43 C42 1.229 . S
C44 O45 1.229 . S
C44 O57 1.058 1_554 S
O45 C44 1.229 . S
O46 Zn40 1.969 . S
O46 C49 1.267 1_556 S
O47 Zn40 1.963 1_554 S
O47 C58 1.260 . S
O48 Zn41 1.969 . S
O48 C58 1.258 . S
C49 O46 1.267 1_554 S
C49 O50 1.228 . S
O50 C49 1.228 . S
O51 Zn40 2.023 1_564 S
O51 C42 1.058 1_554 S
C52 O53 1.228 . S
C52 O54 1.267 1_556 S
O53 C52 1.228 . S
O54 Zn41 1.969 1_565 S
O54 C52 1.267 1_554 S
O55 Zn41 1.965 1_566 S
O55 C59 1.260 1_565 S
O56 Zn40 1.971 . S
O56 C59 1.258 . S
O57 Zn41 2.024 1_556 S
O57 C44 1.058 1_556 S
C58 O47 1.260 . S
C58 O48 1.258 . S
C59 O55 1.260 1_545 S
C59 O56 1.258 . S
Zn60 O66 1.969 . S
Zn60 O67 1.965 . S
Zn60 O71 2.024 . S
Zn60 O76 1.969 . S
Zn61 O68 1.969 . S
Zn61 O74 1.969 . S
Zn61 O75 1.965 . S
Zn61 O77 2.024 . S
C62 O63 1.229 . S
C62 O71 1.058 . S
O63 C62 1.229 . S
C64 O65 1.229 . S
C64 O77 1.058 . S
O65 C64 1.229 . S
O66 Zn60 1.969 . S
O66 C69 1.267 . S
O67 Zn60 1.965 . S
O67 C78 1.260 . S
O68 Zn61 1.969 . S
O68 C78 1.258 . S
C69 O66 1.267 . S
C69 O70 1.228 . S
O70 C69 1.228 . S
O71 Zn60 2.024 . S
O71 C62 1.058 . S
C72 O73 1.228 . S
C72 O74 1.267 . S
O73 C72 1.228 . S
O74 Zn61 1.969 . S
O74 C72 1.267 . S
O75 Zn61 1.965 . S
O75 C79 1.260 . S
O76 Zn60 1.969 . S
O76 C79 1.258 . S
O77 Zn61 2.024 . S
O77 C64 1.058 . S
C78 O67 1.260 . S
C78 O68 1.258 . S
C79 O75 1.260 . S
C79 O76 1.258 . S
Zn80 O86 1.969 . S
Zn80 O87 1.965 . S
Zn80 O91 2.024 . S
Zn80 O96 1.969 . S
Zn81 O88 1.969 . S
Zn81 O94 1.969 . S
Zn81 O95 1.965 . S
Zn81 O97 2.024 . S
C82 O83 1.229 . S
C82 O91 1.058 . S
O83 C82 1.229 . S
C84 O85 1.229 . S
C84 O97 1.058 . S
O85 C84 1.229 . S
O86 Zn80 1.969 . S
O86 C89 1.267 . S
O87 Zn80 1.965 . S
O87 C98 1.260 . S
O88 Zn81 1.969 . S
O88 C98 1.258 . S
C89 O86 1.267 . S
C89 O90 1.228 . S
O90 C89 1.228 . S
O91 Zn80 2.024 . S
O91 C82 1.058 . S
C92 O93 1.228 . S
C92 O94 1.267 . S
O93 C92 1.228 . S
O94 Zn81 1.969 . S
O94 C92 1.267 . S
O95 Zn81 1.965 . S
O95 C99 1.260 . S
O96 Zn80 1.969 . S
O96 C99 1.258 . S
O97 Zn81 2.024 . S
O97 C84 1.058 . S
C98 O87 1.260 . S
C98 O88 1.258 . S
C99 O95 1.260 . S
C99 O96 1.258 . S
Zn100 O106 1.969 . S
Zn100 O107 1.965 . S
Zn100 O111 2.024 . S
Zn100 O116 1.969 . S
Zn101 O108 1.969 . S
Zn101 O114 1.969 . S
Zn101 O115 1.965 . S
Zn101 O117 2.024 . S
C102 O103 1.229 . S
C102 O111 1.058 . S
O103 C102 1.229 . S
C104 O105 1.229 . S
C104 O117 1.058 . S
O105 C104 1.229 . S
O106 Zn100 1.969 . S
O106 C109 1.267 . S
O107 Zn100 1.965 . S
O107 C118 1.260 . S
O108 Zn101 1.969 . S
O108 C118 1.258 . S
C109 O106 1.267 . S
C109 O110 1.228 . S
O110 C109 1.228 . S
O111 Zn100 2.024 . S
O111 C102 1.058 . S
C112 O113 1.228 . S
C112 O114 1.267 . S
O113 C112 1.228 . S
O114 Zn101 1.969 . S
O114 C112 1.267 . S
O115 Zn101 1.965 . S
O115 C119 1.260 . S
O116 Zn100 1.969 . S
O116 C119 1.258 . S
O117 Zn101 2.024 . S
O117 C104 1.058 . S
C118 O107 1.260 . S
C118 O108 1.258 . S
C119 O115 1.260 . S
C119 O116 1.258 . S
Zn120 O126 1.969 . S
Zn120 O127 1.965 . S
Zn120 O131 2.024 . S
Zn120 O136 1.969 . S
Zn121 O128 1.969 . S
Zn121 O134 1.969 . S
Zn121 O135 1.965 . S
Zn121 O137 2.024 . S
C122 O123 1.229 . S
C122 O131 1.058 . S
O123 C122 1.229 . S
C124 O125 1.229 . S
C124 O137 1.058 . S
O125 C124 1.229 . S
O126 Zn120 1.969 . S
O126 C129 1.267 . S
O127 Zn120 1.965 . S
O127 C138 1.260 . S
O128 Zn121 1.969 . S
O128 C138 1.258 . S
C129 O126 1.267 . S
C129 O130 1.228 . S
O130 C129 1.228 . S
O131 Zn120 2.024 . S
O131 C122 1.058 . S
C132 O133 1.228 . S
C132 O134 1.267 . S
O133 C132 1.228 . S
O134 Zn121 1.969 . S
O134 C132 1.267 . S
O135 Zn121 1.965 . S
O135 C139 1.260 . S
O136 Zn120 1.969 . S
O136 C139 1.258 . S
O137 Zn121 2.024 . S
O137 C124 1.058 . S
C138 O127 1.260 . S
C138 O128 1.258 . S
C139 O135 1.260 . S
C139 O136 1.258 . S
Zn140 O146 1.969 . S
Zn140 O147 1.965 . S
Zn140 O151 2.024 . S
Zn140 O156 1.969 . S
Zn141 O148 1.969 . S
Zn141 O154 1.969 . S
Zn141 O155 1.965 . S
Zn141 O157 2.024 . S
C142 O143 1.229 . S
C142 O151 1.058 . S
O143 C142 1.229 . S
C144 O145 1.229 . S
C144 O157 1.058 . S
O145 C144 1.229 . S
O146 Zn140 1.969 . S
O146 C149 1.267 . S
O147 Zn140 1.965 . S
O147 C158 1.260 . S
O148 Zn141 1.969 . S
O148 C158 1.258 . S
C149 O146 1.267 . S
C149 O150 1.228 . S
O150 C149 1.228 . S
O151 Zn140 2.024 . S
O151 C142 1.058 . S
C152 O153 1.228 . S
C152 O154 1.267 . S
O153 C152 1.228 . S
O154 Zn141 1.969 . S
O154 C152 1.267 . S
O155 Zn141 1.965 . S
O155 C159 1.260 . S
O156 Zn140 1.969 . S
O156 C159 1.258 . S
O157 Zn141 2.024 . S
O157 C144 1.058 . S
C158 O147 1.260 . S
C158 O148 1.258 . S
C159 O155 1.260 . S
C159 O156 1.258 . S
Zn160 O166 1.969 . S
Zn160 O167 1.965 . S
Zn160 O171 2.024 . S
Zn160 O176 1.969 . S
Zn161 O168 1.969 . S
Zn161 O174 1.969 . S
Zn161 O175 1.965 . S
Zn161 O177 2.024 . S
C162 O163 1.229 . S
C162 O171 1.058 . S
O163 C162 1.229 . S
C164 O165 1.229 . S
C164 O177 1.058 . S
O165 C164 1.229 . S
O166 Zn160 1.969 . S
O166 C169 1.267 . S
O167 Zn160 1.965 . S
O167 C178 1.260 . S
O168 Zn161 1.969 . S
O168 C178 1.258 . S
C169 O166 1.267 . S
C169 O170 1.228 . S
O170 C169 1.228 . S
O171 Zn160 2.024 . S
O171 C162 1.058 . S
C172 O173 1.228 . S
C172 O174 1.267 . S
O173 C172 1.228 . S
O174 Zn161 1.969 . S
O174 C172 1.267 . S
O175 Zn161 1.965 . S
O175 C179 1.260 . S
O176 Zn160 1.969 . S
O176 C179 1.258 . S
O177 Zn161 2.024 . S
O177 C164 1.058 . S
C178 O167 1.260 . S
C178 O168 1.258 . S
C179 O175 1.260 . S
C179 O176 1.258 . S
C180 C181 1.369 . S
C180 C182 1.419 . S
C180 H184 0.930 1_556 S
C181 C180 1.369 . S
C181 C190 1.429 . S
C182 C180 1.419 . S
C182 C183 1.363 . S
C182 H185 0.929 . S
C183 C182 1.363 . S
C183 C189 1.428 . S
H184 C180 0.930 1_554 S
H185 C182 0.929 . S
S186 N187 1.613 . S
S186 N188 1.610 . S
N187 S186 1.613 . S
N187 C190 1.350 . S
N188 S186 1.610 . S
N188 C189 1.351 . S
C189 C183 1.428 . S
C189 N188 1.351 . S
C189 C190 1.434 . S
C190 C181 1.429 . S
C190 N187 1.350 . S
C190 C189 1.434 . S
C191 C192 1.369 1_554 S
C191 C193 1.419 1_554 S
C191 H195 0.930 . S
C192 C191 1.369 1_556 S
C192 C201 1.429 . S
C193 C191 1.419 1_556 S
C193 C194 1.363 . S
C193 H196 0.929 . S
C194 C193 1.363 . S
C194 C200 1.428 . S
H195 C191 0.930 . S
H196 C193 0.929 . S
S197 N198 1.613 . S
S197 N199 1.610 . S
N198 S197 1.613 . S
N198 C201 1.350 . S
N199 S197 1.610 . S
N199 C200 1.351 . S
C200 C194 1.428 . S
C200 N199 1.351 . S
C200 C201 1.434 . S
C201 C192 1.429 . S
C201 N198 1.350 . S
C201 C200 1.434 . S
C202 C203 1.369 . S
C202 C204 1.419 . S
C202 H206 0.930 . S
C203 C202 1.369 . S
C203 C212 1.429 . S
C204 C202 1.419 . S
C204 C205 1.363 . S
C204 H207 0.929 . S
C205 C204 1.363 . S
C205 C211 1.428 . S
H206 C202 0.930 . S
H207 C204 0.929 . S
S208 N209 1.613 . S
S208 N210 1.610 . S
N209 S208 1.613 . S
N209 C212 1.350 . S
N210 S208 1.610 . S
N210 C211 1.351 . S
C211 C205 1.428 . S
C211 N210 1.351 . S
C211 C212 1.434 . S
C212 C203 1.429 . S
C212 N209 1.350 . S
C212 C211 1.434 . S
C213 C214 1.369 . S
C213 C215 1.419 . S
C213 H217 0.930 . S
C214 C213 1.369 . S
C214 C223 1.429 . S
C215 C213 1.419 . S
C215 C216 1.363 . S
C215 H218 0.929 . S
C216 C215 1.363 . S
C216 C222 1.428 1_554 S
H217 C213 0.930 . S
H218 C215 0.929 . S
S219 N220 1.613 . S
S219 N221 1.610 . S
N220 S219 1.613 . S
N220 C223 1.350 1_556 S
N221 S219 1.610 . S
N221 C222 1.351 . S
C222 C216 1.428 1_556 S
C222 N221 1.351 . S
C222 C223 1.434 1_556 S
C223 C214 1.429 . S
C223 N220 1.350 1_554 S
C223 C222 1.434 1_554 S
C224 C225 1.369 . S
C224 C226 1.419 . S
C224 H228 0.930 . S
C225 C224 1.369 . S
C225 C234 1.429 . S
C226 C224 1.419 . S
C226 C227 1.363 . S
C226 H229 0.929 . S
C227 C226 1.363 . S
C227 C233 1.428 . S
H228 C224 0.930 . S
H229 C226 0.929 . S
S230 N231 1.613 . S
S230 N232 1.610 . S
N231 S230 1.613 . S
N231 C234 1.350 . S
N232 S230 1.610 . S
N232 C233 1.351 . S
C233 C227 1.428 . S
C233 N232 1.351 . S
C233 C234 1.434 . S
C234 C225 1.429 . S
C234 N231 1.350 . S
C234 C233 1.434 . S
C235 C236 1.369 . S
C235 C237 1.419 . S
C235 H239 0.930 . S
C236 C235 1.369 . S
C236 C245 1.429 . S
C237 C235 1.419 . S
C237 C238 1.363 . S
C237 H240 0.929 . S
C238 C237 1.363 . S
C238 C244 1.428 . S
H239 C235 0.930 . S
H240 C237 0.929 . S
S241 N242 1.613 . S
S241 N243 1.610 . S
N242 S241 1.613 . S
N242 C245 1.350 . S
N243 S241 1.610 . S
N243 C244 1.351 . S
C244 C238 1.428 . S
C244 N243 1.351 . S
C244 C245 1.434 . S
C245 C236 1.429 . S
C245 N242 1.350 . S
C245 C244 1.434 . S
C246 C247 1.369 . S
C246 C248 1.419 . S
C246 H250 0.930 . S
C247 C246 1.369 . S
C247 C256 1.429 . S
C248 C246 1.419 . S
C248 C249 1.363 1_455 S
C248 H251 0.929 1_455 S
C249 C248 1.363 1_655 S
C249 C255 1.428 1_655 S
H250 C246 0.930 . S
H251 C248 0.929 1_655 S
S252 N253 1.613 . S
S252 N254 1.610 . S
N253 S252 1.613 . S
N253 C256 1.350 . S
N254 S252 1.610 . S
N254 C255 1.351 . S
C255 C249 1.428 1_455 S
C255 N254 1.351 . S
C255 C256 1.434 . S
C256 C247 1.429 . S
C256 N253 1.350 . S
C256 C255 1.434 . S
C257 C258 1.369 . S
C257 C259 1.419 . S
C257 H261 0.930 . S
C258 C257 1.369 . S
C258 C267 1.429 . S
C259 C257 1.419 . S
C259 C260 1.363 . S
C259 H262 0.929 . S
C260 C259 1.363 . S
C260 C266 1.428 . S
H261 C257 0.930 . S
H262 C259 0.929 . S
S263 N264 1.613 . S
S263 N265 1.610 . S
N264 S263 1.613 . S
N264 C267 1.350 . S
N265 S263 1.610 . S
N265 C266 1.351 . S
C266 C260 1.428 . S
C266 N265 1.351 . S
C266 C267 1.434 . S
C267 C258 1.429 . S
C267 N264 1.350 . S
C267 C266 1.434 . S
C268 C269 1.369 . S
C268 C270 1.419 1_545 S
C268 H272 0.930 . S
C269 C268 1.369 . S
C269 C278 1.429 . S
C270 C268 1.419 1_565 S
C270 C271 1.363 . S
C270 H273 0.929 . S
C271 C270 1.363 . S
C271 C277 1.428 1_565 S
H272 C268 0.930 . S
H273 C270 0.929 . S
S274 N275 1.613 . S
S274 N276 1.610 . S
N275 S274 1.613 . S
N275 C278 1.350 . S
N276 S274 1.610 . S
N276 C277 1.351 . S
C277 C271 1.428 1_545 S
C277 N276 1.351 . S
C277 C278 1.434 . S
C278 C269 1.429 . S
C278 N275 1.350 . S
C278 C277 1.434 . S
C279 C280 1.369 . S
C279 C281 1.419 . S
C279 H283 0.930 . S
C280 C279 1.369 . S
C280 C289 1.429 . S
C281 C279 1.419 . S
C281 C282 1.363 . S
C281 H284 0.929 . S
C282 C281 1.363 . S
C282 C288 1.428 . S
H283 C279 0.930 . S
H284 C281 0.929 . S
S285 N286 1.613 . S
S285 N287 1.610 . S
N286 S285 1.613 . S
N286 C289 1.350 . S
N287 S285 1.610 . S
N287 C288 1.351 . S
C288 C282 1.428 . S
C288 N287 1.351 . S
C288 C289 1.434 . S
C289 C280 1.429 . S
C289 N286 1.350 . S
C289 C288 1.434 . S
C290 C291 1.369 . S
C290 C292 1.419 1_565 S
C290 H294 0.930 . S
C291 C290 1.369 . S
C291 C300 1.429 . S
C292 C290 1.419 1_545 S
C292 C293 1.363 . S
C292 H295 0.929 . S
C293 C292 1.363 . S
C293 C299 1.428 . S
H294 C290 0.930 . S
H295 C292 0.929 . S
S296 N297 1.608 1_445 S
S296 N298 1.603 1_455 S
N297 S296 1.608 1_665 S
N297 C300 1.350 . S
N298 S296 1.603 1_655 S
N298 C299 1.351 . S
C299 C293 1.428 . S
C299 N298 1.351 . S
C299 C300 1.434 1_545 S
C300 C291 1.429 . S
C300 N297 1.350 . S
C300 C299 1.434 1_565 S
C301 C302 1.369 1_455 S
C301 C303 1.419 . S
C301 H305 0.930 1_455 S
C302 C301 1.369 1_655 S
C302 C311 1.429 1_554 S
C303 C301 1.419 . S
C303 C304 1.363 1_554 S
C303 H306 0.929 . S
C304 C303 1.363 1_556 S
C304 C310 1.428 . S
H305 C301 0.930 1_655 S
H306 C303 0.929 . S
S307 N308 1.613 . S
S307 N309 1.610 1_655 S
N308 S307 1.613 . S
N308 C311 1.350 . S
N309 S307 1.610 1_455 S
N309 C310 1.351 . S
C310 C304 1.428 . S
C310 N309 1.351 . S
C310 C311 1.434 1_455 S
C311 C302 1.429 1_556 S
C311 N308 1.350 . S
C311 C310 1.434 1_655 S
C312 C313 1.369 . S
C312 C314 1.419 . S
C312 H316 0.930 . S
C313 C312 1.369 . S
C313 C322 1.429 . S
C314 C312 1.419 . S
C314 C315 1.363 . S
C314 H317 0.929 . S
C315 C314 1.363 . S
C315 C321 1.428 . S
H316 C312 0.930 . S
H317 C314 0.929 . S
S318 N319 1.613 . S
S318 N320 1.610 . S
N319 S318 1.613 . S
N319 C322 1.350 . S
N320 S318 1.610 . S
N320 C321 1.351 . S
C321 C315 1.428 . S
C321 N320 1.351 . S
C321 C322 1.434 . S
C322 C313 1.429 . S
C322 N319 1.350 . S
C322 C321 1.434 . S
C323 C324 1.369 . S
C323 C325 1.419 . S
C323 H327 0.930 . S
C324 C323 1.369 . S
C324 C333 1.429 . S
C325 C323 1.419 . S
C325 C326 1.363 . S
C325 H328 0.929 . S
C326 C325 1.363 . S
C326 C332 1.428 . S
H327 C323 0.930 . S
H328 C325 0.929 . S
S329 N330 1.613 . S
S329 N331 1.610 . S
N330 S329 1.613 . S
N330 C333 1.350 . S
N331 S329 1.610 . S
N331 C332 1.351 . S
C332 C326 1.428 . S
C332 N331 1.351 . S
C332 C333 1.434 . S
C333 C324 1.429 . S
C333 N330 1.350 . S
C333 C332 1.434 . S
C334 C335 1.369 . S
C334 C336 1.419 . S
C334 H338 0.930 . S
C335 C334 1.369 . S
C335 C344 1.429 . S
C336 C334 1.419 . S
C336 C337 1.363 . S
C336 H339 0.929 . S
C337 C336 1.363 . S
C337 C343 1.428 . S
H338 C334 0.930 . S
H339 C336 0.929 . S
S340 N341 1.613 . S
S340 N342 1.610 . S
N341 S340 1.613 . S
N341 C344 1.350 . S
N342 S340 1.610 . S
N342 C343 1.351 . S
C343 C337 1.428 . S
C343 N342 1.351 . S
C343 C344 1.434 . S
C344 C335 1.429 . S
C344 N341 1.350 . S
C344 C343 1.434 . S
C345 C346 1.369 . S
C345 C347 1.419 . S
C345 H349 0.930 . S
C346 C345 1.369 . S
C346 C355 1.429 . S
C347 C345 1.419 . S
C347 C348 1.363 . S
C347 H350 0.929 . S
C348 C347 1.363 . S
C348 C354 1.428 . S
H349 C345 0.930 . S
H350 C347 0.929 . S
S351 N352 1.613 . S
S351 N353 1.610 . S
N352 S351 1.613 . S
N352 C355 1.350 . S
N353 S351 1.610 . S
N353 C354 1.351 . S
C354 C348 1.428 . S
C354 N353 1.351 . S
C354 C355 1.434 . S
C355 C346 1.429 . S
C355 N352 1.350 . S
C355 C354 1.434 . S
C356 C357 1.369 . S
C356 C358 1.419 . S
C356 H360 0.930 . S
C357 C356 1.369 . S
C357 C366 1.429 . S
C358 C356 1.419 . S
C358 C359 1.363 . S
C358 H361 0.929 . S
C359 C358 1.363 . S
C359 C365 1.428 . S
H360 C356 0.930 . S
H361 C358 0.929 . S
S362 N363 1.613 . S
S362 N364 1.610 . S
N363 S362 1.613 . S
N363 C366 1.350 . S
N364 S362 1.610 . S
N364 C365 1.351 . S
C365 C359 1.428 . S
C365 N364 1.351 . S
C365 C366 1.434 . S
C366 C357 1.429 . S
C366 N363 1.350 . S
C366 C365 1.434 . S
C367 C368 1.369 . S
C367 C369 1.419 . S
C367 H371 0.930 . S
C368 C367 1.369 . S
C368 C377 1.429 . S
C369 C367 1.419 . S
C369 C370 1.363 . S
C369 H372 0.929 . S
C370 C369 1.363 . S
C370 C376 1.428 . S
H371 C367 0.930 . S
H372 C369 0.929 . S
S373 N374 1.613 . S
S373 N375 1.610 . S
N374 S373 1.613 . S
N374 C377 1.350 . S
N375 S373 1.610 . S
N375 C376 1.351 . S
C376 C370 1.428 . S
C376 N375 1.351 . S
C376 C377 1.434 . S
C377 C368 1.429 . S
C377 N374 1.350 . S
C377 C376 1.434 . S
C378 C379 1.369 . S
C378 C380 1.419 . S
C378 H382 0.930 . S
C379 C378 1.369 . S
C379 C388 1.429 . S
C380 C378 1.419 . S
C380 C381 1.363 . S
C380 H383 0.929 . S
C381 C380 1.363 . S
C381 C387 1.428 . S
H382 C378 0.930 . S
H383 C380 0.929 . S
S384 N385 1.613 . S
S384 N386 1.610 . S
N385 S384 1.613 . S
N385 C388 1.350 1_655 S
N386 S384 1.610 . S
N386 C387 1.351 1_655 S
C387 C381 1.428 . S
C387 N386 1.351 1_455 S
C387 C388 1.434 . S
C388 C379 1.429 . S
C388 N385 1.350 1_455 S
C388 C387 1.434 . S
C389 C390 1.369 . S
C389 C391 1.419 . S
C389 H393 0.930 . S
C390 C389 1.369 . S
C390 C399 1.429 . S
C391 C389 1.419 . S
C391 C392 1.363 . S
C391 H394 0.929 . S
C392 C391 1.363 . S
C392 C398 1.428 . S
H393 C389 0.930 . S
H394 C391 0.929 . S
S395 N396 1.613 . S
S395 N397 1.610 . S
N396 S395 1.613 . S
N396 C399 1.350 . S
N397 S395 1.610 . S
N397 C398 1.351 . S
C398 C392 1.428 . S
C398 N397 1.351 . S
C398 C399 1.434 . S
C399 C390 1.429 . S
C399 N396 1.350 . S
C399 C398 1.434 . S
C400 C401 1.369 1_565 S
C400 C402 1.419 . S
C400 H404 0.930 . S
C401 C400 1.369 1_545 S
C401 C410 1.429 . S
C402 C400 1.419 . S
C402 C403 1.363 1_565 S
C402 H405 0.929 . S
C403 C402 1.363 1_545 S
C403 C409 1.428 . S
H404 C400 0.930 . S
H405 C402 0.929 . S
S406 N407 1.613 . S
S406 N408 1.610 . S
N407 S406 1.613 . S
N407 C410 1.350 . S
N408 S406 1.610 . S
N408 C409 1.351 . S
C409 C403 1.428 . S
C409 N408 1.351 . S
C409 C410 1.434 . S
C410 C401 1.429 . S
C410 N407 1.350 . S
C410 C409 1.434 . S
C411 C412 1.369 . S
C411 C413 1.419 . S
C411 H415 0.930 . S
C412 C411 1.369 . S
C412 C421 1.429 . S
C413 C411 1.419 . S
C413 C414 1.363 . S
C413 H416 0.929 . S
C414 C413 1.363 . S
C414 C420 1.428 . S
H415 C411 0.930 . S
H416 C413 0.929 . S
S417 N418 1.613 . S
S417 N419 1.610 . S
N418 S417 1.613 . S
N418 C421 1.350 . S
N419 S417 1.610 . S
N419 C420 1.351 . S
C420 C414 1.428 . S
C420 N419 1.351 . S
C420 C421 1.434 . S
C421 C412 1.429 . S
C421 N418 1.350 . S
C421 C420 1.434 . S
C422 C423 1.369 . S
C422 C424 1.419 . S
C422 H426 0.930 . S
C423 C422 1.369 . S
C423 C432 1.429 . S
C424 C422 1.419 . S
C424 C425 1.363 . S
C424 H427 0.929 . S
C425 C424 1.363 . S
C425 C431 1.428 . S
H426 C422 0.930 . S
H427 C424 0.929 . S
S428 N429 1.613 . S
S428 N430 1.610 . S
N429 S428 1.613 . S
N429 C432 1.350 . S
N430 S428 1.610 . S
N430 C431 1.351 . S
C431 C425 1.428 . S
C431 N430 1.351 . S
C431 C432 1.434 . S
C432 C423 1.429 . S
C432 N429 1.350 . S
C432 C431 1.434 . S
C433 C434 1.369 . S
C433 C435 1.419 . S
C433 H437 0.930 . S
C434 C433 1.369 . S
C434 C443 1.429 . S
C435 C433 1.419 . S
C435 C436 1.363 . S
C435 H438 0.929 . S
C436 C435 1.363 . S
C436 C442 1.428 . S
H437 C433 0.930 . S
H438 C435 0.929 . S
S439 N440 1.613 . S
S439 N441 1.610 . S
N440 S439 1.613 . S
N440 C443 1.350 . S
N441 S439 1.610 . S
N441 C442 1.351 . S
C442 C436 1.428 . S
C442 N441 1.351 . S
C442 C443 1.434 . S
C443 C434 1.429 . S
C443 N440 1.350 . S
C443 C442 1.434 . S
C444 C445 1.369 . S
C444 C446 1.419 . S
C444 H448 0.930 . S
C445 C444 1.369 . S
C445 C454 1.429 . S
C446 C444 1.419 . S
C446 C447 1.363 . S
C446 H449 0.929 . S
C447 C446 1.363 . S
C447 C453 1.428 . S
H448 C444 0.930 . S
H449 C446 0.929 . S
S450 N451 1.613 . S
S450 N452 1.610 . S
N451 S450 1.613 . S
N451 C454 1.350 . S
N452 S450 1.610 . S
N452 C453 1.351 . S
C453 C447 1.428 . S
C453 N452 1.351 . S
C453 C454 1.434 . S
C454 C445 1.429 . S
C454 N451 1.350 . S
C454 C453 1.434 . S
C455 C456 1.369 . S
C455 C457 1.419 . S
C455 H459 0.930 . S
C456 C455 1.369 . S
C456 C465 1.429 . S
C457 C455 1.419 . S
C457 C458 1.363 . S
C457 H460 0.929 . S
C458 C457 1.363 . S
C458 C464 1.428 . S
H459 C455 0.930 . S
H460 C457 0.929 . S
S461 N462 1.613 . S
S461 N463 1.610 . S
N462 S461 1.613 . S
N462 C465 1.350 . S
N463 S461 1.610 . S
N463 C464 1.351 . S
C464 C458 1.428 . S
C464 N463 1.351 . S
C464 C465 1.434 . S
C465 C456 1.429 . S
C465 N462 1.350 . S
C465 C464 1.434 . S
C466 C467 1.369 . S
C466 C468 1.419 . S
C466 H470 0.930 . S
C467 C466 1.369 . S
C467 C476 1.429 . S
C468 C466 1.419 . S
C468 C469 1.363 . S
C468 H471 0.929 . S
C469 C468 1.363 . S
C469 C475 1.428 . S
H470 C466 0.930 . S
H471 C468 0.929 . S
S472 N473 1.613 . S
S472 N474 1.610 . S
N473 S472 1.613 . S
N473 C476 1.350 . S
N474 S472 1.610 . S
N474 C475 1.351 . S
C475 C469 1.428 . S
C475 N474 1.351 . S
C475 C476 1.434 . S
C476 C467 1.429 . S
C476 N473 1.350 . S
C476 C475 1.434 . S
C181 C12 1.498 . S
C183 C152 1.482 . S
C192 C24 1.545 . S
C194 C164 1.521 . S
C203 C52 1.534 . S
C205 C124 1.483 . S
C214 C84 1.444 . S
C216 C44 1.458 . S
C225 C104 1.497 . S
C227 C4 1.489 . S
C236 C32 1.562 . S
C238 C64 1.494 . S
C247 C144 1.459 . S
C249 C112 1.535 . S
C258 C172 1.541 . S
C260 C72 1.524 . S
C269 C92 1.586 . S
C271 C132 1.580 . S
C280 C49 1.449 . S
C282 C2 1.377 . S
C291 C29 1.441 1_554 S
C293 C9 1.419 . S
C302 C22 1.527 . S
C304 C42 1.561 . S
C313 C69 1.473 . S
C315 C102 1.447 . S
C324 C62 1.457 . S
C326 C89 1.485 . S
C335 C82 1.453 . S
C337 C109 1.478 . S
C346 C169 1.548 . S
C348 C122 1.471 . S
C357 C149 1.369 . S
C359 C129 1.349 . S
C368 C162 1.485 . S
C370 C142 1.456 . S
C379 C19 1.281 . S
C381 C18 1.273 . S
C390 C38 1.282 . S
C392 C39 1.276 . S
C401 C59 1.284 . S
C403 C58 1.281 . S
C412 C79 1.280 . S
C414 C78 1.275 1_556 S
C423 C99 1.283 . S
C425 C98 1.277 1_556 S
C434 C119 1.275 . S
C436 C118 1.281 1_556 S
C445 C139 1.277 . S
C447 C138 1.279 1_554 S
C456 C159 1.278 1_554 S
C458 C158 1.276 . S
C467 C179 1.279 . S
C469 C178 1.277 1_554 S
