# Generated by pormake.
# Topology flu-e, (6)-cn, num edge types: 1
# Building blocks:
#     Node 0, Type 0, BuildingBlock: IZENUY_clean_sbu_0, # of connection points: 6
#     Node 1, Type 0, BuildingBlock: IZENUY_clean_sbu_0, # of connection points: 6
#     Node 2, Type 0, BuildingBlock: IZENUY_clean_sbu_0, # of connection points: 6
#     Node 3, Type 0, BuildingBlock: IZENUY_clean_sbu_0, # of connection points: 6
#     Node 4, Type 0, BuildingBlock: IZENUY_clean_sbu_0, # of connection points: 6
#     Node 5, Type 0, BuildingBlock: IZENUY_clean_sbu_0, # of connection points: 6
#     Node 6, Type 0, BuildingBlock: IZENUY_clean_sbu_0, # of connection points: 6
#     Node 7, Type 0, BuildingBlock: IZENUY_clean_sbu_0, # of connection points: 6
#     Node 8, Type 0, BuildingBlock: IZENUY_clean_sbu_0, # of connection points: 6
#     Node 9, Type 0, BuildingBlock: IZENUY_clean_sbu_0, # of connection points: 6
#     Node 10, Type 0, BuildingBlock: IZENUY_clean_sbu_0, # of connection points: 6
#     Node 11, Type 0, BuildingBlock: IZENUY_clean_sbu_0, # of connection points: 6
#     Node 12, Type 0, BuildingBlock: IZENUY_clean_sbu_0, # of connection points: 6
#     Node 13, Type 0, BuildingBlock: IZENUY_clean_sbu_0, # of connection points: 6
#     Node 14, Type 0, BuildingBlock: IZENUY_clean_sbu_0, # of connection points: 6
#     Node 15, Type 0, BuildingBlock: IZENUY_clean_sbu_0, # of connection points: 6
#     Node 16, Type 0, BuildingBlock: IZENUY_clean_sbu_0, # of connection points: 6
#     Node 17, Type 0, BuildingBlock: IZENUY_clean_sbu_0, # of connection points: 6
#     Node 18, Type 0, BuildingBlock: IZENUY_clean_sbu_0, # of connection points: 6
#     Node 19, Type 0, BuildingBlock: IZENUY_clean_sbu_0, # of connection points: 6
#     Node 20, Type 0, BuildingBlock: IZENUY_clean_sbu_0, # of connection points: 6
#     Node 21, Type 0, BuildingBlock: IZENUY_clean_sbu_0, # of connection points: 6
#     Node 22, Type 0, BuildingBlock: IZENUY_clean_sbu_0, # of connection points: 6
#     Node 23, Type 0, BuildingBlock: IZENUY_clean_sbu_0, # of connection points: 6
#     Node 24, Type 0, BuildingBlock: IZENUY_clean_sbu_0, # of connection points: 6
#     Node 25, Type 0, BuildingBlock: IZENUY_clean_sbu_0, # of connection points: 6
#     Node 26, Type 0, BuildingBlock: IZENUY_clean_sbu_0, # of connection points: 6
#     Node 27, Type 0, BuildingBlock: IZENUY_clean_sbu_0, # of connection points: 6
#     Node 28, Type 0, BuildingBlock: IZENUY_clean_sbu_0, # of connection points: 6
#     Node 29, Type 0, BuildingBlock: IZENUY_clean_sbu_0, # of connection points: 6
#     Node 30, Type 0, BuildingBlock: IZENUY_clean_sbu_0, # of connection points: 6
#     Node 31, Type 0, BuildingBlock: IZENUY_clean_sbu_0, # of connection points: 6
#     Edge 32, Type (0, 0), BuildingBlock: AJUNOK_clean_linker_0, # of connection points: 2
#     Edge 33, Type (0, 0), BuildingBlock: AJUNOK_clean_linker_0, # of connection points: 2
#     Edge 34, Type (0, 0), BuildingBlock: AJUNOK_clean_linker_0, # of connection points: 2
#     Edge 35, Type (0, 0), BuildingBlock: AJUNOK_clean_linker_0, # of connection points: 2
#     Edge 36, Type (0, 0), BuildingBlock: AJUNOK_clean_linker_0, # of connection points: 2
#     Edge 37, Type (0, 0), BuildingBlock: AJUNOK_clean_linker_0, # of connection points: 2
#     Edge 38, Type (0, 0), BuildingBlock: AJUNOK_clean_linker_0, # of connection points: 2
#     Edge 39, Type (0, 0), BuildingBlock: AJUNOK_clean_linker_0, # of connection points: 2
#     Edge 40, Type (0, 0), BuildingBlock: AJUNOK_clean_linker_0, # of connection points: 2
#     Edge 41, Type (0, 0), BuildingBlock: AJUNOK_clean_linker_0, # of connection points: 2
#     Edge 42, Type (0, 0), BuildingBlock: AJUNOK_clean_linker_0, # of connection points: 2
#     Edge 43, Type (0, 0), BuildingBlock: AJUNOK_clean_linker_0, # of connection points: 2
#     Edge 44, Type (0, 0), BuildingBlock: AJUNOK_clean_linker_0, # of connection points: 2
#     Edge 45, Type (0, 0), BuildingBlock: AJUNOK_clean_linker_0, # of connection points: 2
#     Edge 46, Type (0, 0), BuildingBlock: AJUNOK_clean_linker_0, # of connection points: 2
#     Edge 47, Type (0, 0), BuildingBlock: AJUNOK_clean_linker_0, # of connection points: 2
#     Edge 48, Type (0, 0), BuildingBlock: AJUNOK_clean_linker_0, # of connection points: 2
#     Edge 49, Type (0, 0), BuildingBlock: AJUNOK_clean_linker_0, # of connection points: 2
#     Edge 50, Type (0, 0), BuildingBlock: AJUNOK_clean_linker_0, # of connection points: 2
#     Edge 51, Type (0, 0), BuildingBlock: AJUNOK_clean_linker_0, # of connection points: 2
#     Edge 52, Type (0, 0), BuildingBlock: AJUNOK_clean_linker_0, # of connection points: 2
#     Edge 53, Type (0, 0), BuildingBlock: AJUNOK_clean_linker_0, # of connection points: 2
#     Edge 54, Type (0, 0), BuildingBlock: AJUNOK_clean_linker_0, # of connection points: 2
#     Edge 55, Type (0, 0), BuildingBlock: AJUNOK_clean_linker_0, # of connection points: 2
#     Edge 56, Type (0, 0), BuildingBlock: AJUNOK_clean_linker_0, # of connection points: 2
#     Edge 57, Type (0, 0), BuildingBlock: AJUNOK_clean_linker_0, # of connection points: 2
#     Edge 58, Type (0, 0), BuildingBlock: AJUNOK_clean_linker_0, # of connection points: 2
#     Edge 59, Type (0, 0), BuildingBlock: AJUNOK_clean_linker_0, # of connection points: 2
#     Edge 60, Type (0, 0), BuildingBlock: AJUNOK_clean_linker_0, # of connection points: 2
#     Edge 61, Type (0, 0), BuildingBlock: AJUNOK_clean_linker_0, # of connection points: 2
#     Edge 62, Type (0, 0), BuildingBlock: AJUNOK_clean_linker_0, # of connection points: 2
#     Edge 63, Type (0, 0), BuildingBlock: AJUNOK_clean_linker_0, # of connection points: 2
#     Edge 64, Type (0, 0), BuildingBlock: AJUNOK_clean_linker_0, # of connection points: 2
#     Edge 65, Type (0, 0), BuildingBlock: AJUNOK_clean_linker_0, # of connection points: 2
#     Edge 66, Type (0, 0), BuildingBlock: AJUNOK_clean_linker_0, # of connection points: 2
#     Edge 67, Type (0, 0), BuildingBlock: AJUNOK_clean_linker_0, # of connection points: 2
#     Edge 68, Type (0, 0), BuildingBlock: AJUNOK_clean_linker_0, # of connection points: 2
#     Edge 69, Type (0, 0), BuildingBlock: AJUNOK_clean_linker_0, # of connection points: 2
#     Edge 70, Type (0, 0), BuildingBlock: AJUNOK_clean_linker_0, # of connection points: 2
#     Edge 71, Type (0, 0), BuildingBlock: AJUNOK_clean_linker_0, # of connection points: 2
#     Edge 72, Type (0, 0), BuildingBlock: AJUNOK_clean_linker_0, # of connection points: 2
#     Edge 73, Type (0, 0), BuildingBlock: AJUNOK_clean_linker_0, # of connection points: 2
#     Edge 74, Type (0, 0), BuildingBlock: AJUNOK_clean_linker_0, # of connection points: 2
#     Edge 75, Type (0, 0), BuildingBlock: AJUNOK_clean_linker_0, # of connection points: 2
#     Edge 76, Type (0, 0), BuildingBlock: AJUNOK_clean_linker_0, # of connection points: 2
#     Edge 77, Type (0, 0), BuildingBlock: AJUNOK_clean_linker_0, # of connection points: 2
#     Edge 78, Type (0, 0), BuildingBlock: AJUNOK_clean_linker_0, # of connection points: 2
#     Edge 79, Type (0, 0), BuildingBlock: AJUNOK_clean_linker_0, # of connection points: 2
#     Edge 80, Type (0, 0), BuildingBlock: AJUNOK_clean_linker_0, # of connection points: 2
#     Edge 81, Type (0, 0), BuildingBlock: AJUNOK_clean_linker_0, # of connection points: 2
#     Edge 82, Type (0, 0), BuildingBlock: AJUNOK_clean_linker_0, # of connection points: 2
#     Edge 83, Type (0, 0), BuildingBlock: AJUNOK_clean_linker_0, # of connection points: 2
#     Edge 84, Type (0, 0), BuildingBlock: AJUNOK_clean_linker_0, # of connection points: 2
#     Edge 85, Type (0, 0), BuildingBlock: AJUNOK_clean_linker_0, # of connection points: 2
#     Edge 86, Type (0, 0), BuildingBlock: AJUNOK_clean_linker_0, # of connection points: 2
#     Edge 87, Type (0, 0), BuildingBlock: AJUNOK_clean_linker_0, # of connection points: 2
#     Edge 88, Type (0, 0), BuildingBlock: AJUNOK_clean_linker_0, # of connection points: 2
#     Edge 89, Type (0, 0), BuildingBlock: AJUNOK_clean_linker_0, # of connection points: 2
#     Edge 90, Type (0, 0), BuildingBlock: AJUNOK_clean_linker_0, # of connection points: 2
#     Edge 91, Type (0, 0), BuildingBlock: AJUNOK_clean_linker_0, # of connection points: 2
#     Edge 92, Type (0, 0), BuildingBlock: AJUNOK_clean_linker_0, # of connection points: 2
#     Edge 93, Type (0, 0), BuildingBlock: AJUNOK_clean_linker_0, # of connection points: 2
#     Edge 94, Type (0, 0), BuildingBlock: AJUNOK_clean_linker_0, # of connection points: 2
#     Edge 95, Type (0, 0), BuildingBlock: AJUNOK_clean_linker_0, # of connection points: 2
#     Edge 96, Type (0, 0), BuildingBlock: AJUNOK_clean_linker_0, # of connection points: 2
#     Edge 97, Type (0, 0), BuildingBlock: AJUNOK_clean_linker_0, # of connection points: 2
#     Edge 98, Type (0, 0), BuildingBlock: AJUNOK_clean_linker_0, # of connection points: 2
#     Edge 99, Type (0, 0), BuildingBlock: AJUNOK_clean_linker_0, # of connection points: 2
#     Edge 100, Type (0, 0), BuildingBlock: AJUNOK_clean_linker_0, # of connection points: 2
#     Edge 101, Type (0, 0), BuildingBlock: AJUNOK_clean_linker_0, # of connection points: 2
#     Edge 102, Type (0, 0), BuildingBlock: AJUNOK_clean_linker_0, # of connection points: 2
#     Edge 103, Type (0, 0), BuildingBlock: AJUNOK_clean_linker_0, # of connection points: 2
#     Edge 104, Type (0, 0), BuildingBlock: AJUNOK_clean_linker_0, # of connection points: 2
#     Edge 105, Type (0, 0), BuildingBlock: AJUNOK_clean_linker_0, # of connection points: 2
#     Edge 106, Type (0, 0), BuildingBlock: AJUNOK_clean_linker_0, # of connection points: 2
#     Edge 107, Type (0, 0), BuildingBlock: AJUNOK_clean_linker_0, # of connection points: 2
#     Edge 108, Type (0, 0), BuildingBlock: AJUNOK_clean_linker_0, # of connection points: 2
#     Edge 109, Type (0, 0), BuildingBlock: AJUNOK_clean_linker_0, # of connection points: 2
#     Edge 110, Type (0, 0), BuildingBlock: AJUNOK_clean_linker_0, # of connection points: 2
#     Edge 111, Type (0, 0), BuildingBlock: AJUNOK_clean_linker_0, # of connection points: 2
#     Edge 112, Type (0, 0), BuildingBlock: AJUNOK_clean_linker_0, # of connection points: 2
#     Edge 113, Type (0, 0), BuildingBlock: AJUNOK_clean_linker_0, # of connection points: 2
#     Edge 114, Type (0, 0), BuildingBlock: AJUNOK_clean_linker_0, # of connection points: 2
#     Edge 115, Type (0, 0), BuildingBlock: AJUNOK_clean_linker_0, # of connection points: 2
#     Edge 116, Type (0, 0), BuildingBlock: AJUNOK_clean_linker_0, # of connection points: 2
#     Edge 117, Type (0, 0), BuildingBlock: AJUNOK_clean_linker_0, # of connection points: 2
#     Edge 118, Type (0, 0), BuildingBlock: AJUNOK_clean_linker_0, # of connection points: 2
#     Edge 119, Type (0, 0), BuildingBlock: AJUNOK_clean_linker_0, # of connection points: 2
#     Edge 120, Type (0, 0), BuildingBlock: AJUNOK_clean_linker_0, # of connection points: 2
#     Edge 121, Type (0, 0), BuildingBlock: AJUNOK_clean_linker_0, # of connection points: 2
#     Edge 122, Type (0, 0), BuildingBlock: AJUNOK_clean_linker_0, # of connection points: 2
#     Edge 123, Type (0, 0), BuildingBlock: AJUNOK_clean_linker_0, # of connection points: 2
#     Edge 124, Type (0, 0), BuildingBlock: AJUNOK_clean_linker_0, # of connection points: 2
#     Edge 125, Type (0, 0), BuildingBlock: AJUNOK_clean_linker_0, # of connection points: 2
#     Edge 126, Type (0, 0), BuildingBlock: AJUNOK_clean_linker_0, # of connection points: 2
#     Edge 127, Type (0, 0), BuildingBlock: AJUNOK_clean_linker_0, # of connection points: 2
# Relax obj value: 0.165
# Max RMSD: 0.166
# Mean RMSD: 0.166
data_MOF--net-flu-e--node1-IZENUY_clean_sbu_0--edge1-AJUNOK_clean_linker_0
_symmetry_space_group_name_H-M    P1
_symmetry_Int_Tables_number       1
_symmetry_cell_setting            triclinic
loop_
_symmetry_equiv_pos_as_xyz
'x, y, z'
_cell_length_a     39.814463
_cell_length_b     39.802099
_cell_length_c     39.786314
_cell_angle_alpha  90.002176
_cell_angle_beta   90.001157
_cell_angle_gamma 90.008045
loop_
_atom_site_label
_atom_site_type_symbol
_atom_site_fract_x
_atom_site_fract_y
_atom_site_fract_z
_atom_type_partial_charge
Fe0 Fe 0.14318 0.19917 0.38448 0.0
Fe1 Fe 0.20033 0.14731 0.38587 0.0
O2 O 0.16314 0.16333 0.36738 0.0
Fe3 Fe 0.14601 0.14379 0.33124 0.0
O4 O 0.15158 0.18165 0.30665 0.0
O5 O 0.12849 0.21534 0.34363 0.0
O6 O 0.18025 0.22442 0.37813 0.0
C7 C 0.20939 0.21777 0.38843 0.0
C8 C 0.08819 0.16167 0.36878 0.0
O9 O 0.21663 0.18861 0.39901 0.0
C10 C 0.16291 0.08892 0.36856 0.0
O11 O 0.15466 0.18976 0.4283 0.0
O12 O 0.17962 0.14063 0.4259 0.0
O13 O 0.10228 0.15438 0.3412 0.0
O14 O 0.10454 0.17616 0.39172 0.0
C15 C 0.21553 0.14138 0.31894 0.0
O16 O 0.19046 0.10325 0.37586 0.0
O17 O 0.1398 0.10478 0.35372 0.0
C18 C 0.16452 0.163 0.4425 0.0
O19 O 0.22386 0.15306 0.34718 0.0
O20 O 0.18641 0.12963 0.31432 0.0
C21 C 0.13991 0.21006 0.31434 0.0
Fe22 Fe 0.88779 0.19909 0.38551 0.0
Fe23 Fe 0.88321 0.14307 0.33283 0.0
O24 O 0.86738 0.16312 0.36923 0.0
Fe25 Fe 0.83074 0.14761 0.38906 0.0
O26 O 0.81546 0.18918 0.40285 0.0
O27 O 0.85071 0.2243 0.3793 0.0
O28 O 0.9021 0.21496 0.34438 0.0
C29 C 0.89107 0.20889 0.31511 0.0
C30 C 0.86828 0.16297 0.44408 0.0
O31 O 0.87824 0.18083 0.30823 0.0
C32 C 0.86609 0.08843 0.37035 0.0
O33 O 0.9263 0.176 0.39231 0.0
O34 O 0.92745 0.15268 0.34229 0.0
O35 O 0.85296 0.14043 0.42801 0.0
O36 O 0.87693 0.19003 0.4296 0.0
C37 C 0.813 0.14257 0.32285 0.0
O38 O 0.88907 0.10393 0.35507 0.0
O39 O 0.83916 0.10335 0.37855 0.0
C40 C 0.94209 0.16079 0.36946 0.0
O41 O 0.84169 0.13017 0.31669 0.0
O42 O 0.80632 0.15408 0.35152 0.0
C43 C 0.82194 0.21791 0.3907 0.0
Fe44 Fe 0.83026 0.88406 0.38804 0.0
Fe45 Fe 0.88294 0.88789 0.3321 0.0
O46 O 0.86656 0.86775 0.36821 0.0
Fe47 Fe 0.88598 0.83099 0.38406 0.0
O48 O 0.84796 0.80668 0.37833 0.0
O49 O 0.81418 0.84314 0.40194 0.0
O50 O 0.80566 0.87835 0.35023 0.0
C51 C 0.81289 0.89054 0.32192 0.0
C52 C 0.86797 0.86766 0.4428 0.0
O53 O 0.84197 0.90217 0.31628 0.0
C54 C 0.94147 0.86785 0.36795 0.0
O55 O 0.83957 0.92801 0.3777 0.0
O56 O 0.88982 0.92674 0.35498 0.0
O57 O 0.87595 0.84041 0.42826 0.0
O58 O 0.85264 0.89051 0.42708 0.0
C59 C 0.88745 0.82164 0.31372 0.0
O60 O 0.92688 0.87689 0.3411 0.0
O61 O 0.92541 0.8527 0.39064 0.0
C62 C 0.86687 0.94251 0.37018 0.0
O63 O 0.87664 0.85059 0.30701 0.0
O64 O 0.89923 0.81505 0.34259 0.0
C65 C 0.81961 0.8141 0.39023 0.0
Fe66 Fe 0.1453 0.88887 0.32975 0.0
Fe67 Fe 0.19966 0.8851 0.38407 0.0
O68 O 0.16286 0.86865 0.36526 0.0
Fe69 Fe 0.14401 0.8318 0.38158 0.0
O70 O 0.12973 0.81591 0.3405 0.0
O71 O 0.15091 0.85172 0.30424 0.0
O72 O 0.18567 0.90356 0.3129 0.0
C73 C 0.21489 0.8918 0.31725 0.0
C74 C 0.08786 0.86839 0.36692 0.0
O75 O 0.22327 0.87979 0.34538 0.0
C76 C 0.16391 0.86805 0.4401 0.0
O77 O 0.13884 0.92747 0.35307 0.0
O78 O 0.18971 0.92904 0.37431 0.0
O79 O 0.10456 0.85332 0.38923 0.0
O80 O 0.10177 0.87759 0.33981 0.0
C81 C 0.21056 0.81505 0.3862 0.0
O82 O 0.17843 0.89113 0.42392 0.0
O83 O 0.15521 0.84105 0.42551 0.0
C84 C 0.16204 0.9433 0.36778 0.0
O85 O 0.21637 0.84424 0.39729 0.0
O86 O 0.18197 0.8076 0.37486 0.0
C87 C 0.13976 0.8229 0.31107 0.0
Fe88 Fe 0.14303 0.83015 0.64451 0.0
Fe89 Fe 0.20047 0.88158 0.64316 0.0
O90 O 0.16328 0.86577 0.66186 0.0
Fe91 Fe 0.14656 0.88501 0.69836 0.0
O92 O 0.15137 0.84652 0.72243 0.0
O93 O 0.12777 0.81384 0.68495 0.0
O94 O 0.17991 0.80459 0.65102 0.0
C95 C 0.20908 0.81108 0.64068 0.0
C96 C 0.08829 0.86781 0.66043 0.0
O97 O 0.21627 0.84013 0.62968 0.0
C98 C 0.16435 0.94052 0.66194 0.0
O99 O 0.15486 0.83956 0.60088 0.0
O100 O 0.17943 0.88881 0.60338 0.0
O101 O 0.10258 0.87533 0.68794 0.0
O102 O 0.1046 0.85351 0.63731 0.0
C103 C 0.21657 0.88686 0.70998 0.0
O104 O 0.19133 0.92574 0.65354 0.0
O105 O 0.14112 0.92479 0.67678 0.0
C106 C 0.1643 0.86649 0.58676 0.0
O107 O 0.22425 0.87534 0.6815 0.0
O108 O 0.18736 0.89809 0.71547 0.0
C109 C 0.13918 0.81842 0.71429 0.0
Fe110 Fe 0.14429 0.14424 0.69974 0.0
Fe111 Fe 0.20071 0.14396 0.64712 0.0
O112 O 0.16361 0.16219 0.66383 0.0
Fe113 Fe 0.14606 0.19875 0.64526 0.0
O114 O 0.15097 0.2224 0.68399 0.0
O115 O 0.1288 0.18423 0.71684 0.0
O116 O 0.18163 0.15101 0.72462 0.0
C117 C 0.21079 0.14117 0.71736 0.0
C118 C 0.08866 0.1597 0.66306 0.0
O119 O 0.21752 0.1304 0.68814 0.0
C120 C 0.16347 0.16302 0.58898 0.0
O121 O 0.15637 0.10077 0.68974 0.0
O122 O 0.18002 0.10397 0.64007 0.0
O123 O 0.10234 0.18743 0.65524 0.0
O124 O 0.10552 0.13682 0.67709 0.0
C125 C 0.21604 0.21098 0.64189 0.0
O126 O 0.19062 0.15449 0.60329 0.0
O127 O 0.14045 0.17777 0.60512 0.0
C128 C 0.16564 0.08697 0.66259 0.0
O129 O 0.22425 0.18248 0.65294 0.0
O130 O 0.18639 0.21683 0.63207 0.0
C131 C 0.13964 0.21375 0.71229 0.0
Fe132 Fe 0.88484 0.14253 0.70179 0.0
Fe133 Fe 0.88713 0.19839 0.64867 0.0
O134 O 0.86796 0.16186 0.66537 0.0
Fe135 Fe 0.83158 0.14508 0.64601 0.0
O136 O 0.80715 0.15059 0.68396 0.0
O137 O 0.84408 0.12849 0.71836 0.0
O138 O 0.87897 0.1805 0.72629 0.0
C139 C 0.89026 0.20906 0.7186 0.0
C140 C 0.86894 0.08704 0.66462 0.0
O141 O 0.90148 0.2146 0.68938 0.0
C142 C 0.86804 0.16182 0.59042 0.0
O143 O 0.92864 0.15319 0.69175 0.0
O144 O 0.92642 0.17645 0.64164 0.0
O145 O 0.84164 0.10122 0.65637 0.0
O146 O 0.89156 0.10316 0.67988 0.0
C147 C 0.82061 0.21524 0.64345 0.0
O148 O 0.87612 0.18901 0.60488 0.0
O149 O 0.85356 0.13875 0.6066 0.0
C150 C 0.94263 0.16123 0.66427 0.0
O151 O 0.84917 0.22273 0.65491 0.0
O152 O 0.81476 0.18595 0.63243 0.0
C153 C 0.81477 0.13938 0.71256 0.0
Fe154 Fe 0.88439 0.88472 0.70012 0.0
Fe155 Fe 0.83106 0.88398 0.64432 0.0
O156 O 0.86713 0.86624 0.66342 0.0
Fe157 Fe 0.88562 0.82965 0.64606 0.0
O158 O 0.89961 0.81243 0.68641 0.0
O159 O 0.87812 0.84639 0.72417 0.0
O160 O 0.84388 0.89911 0.71694 0.0
C161 C 0.8143 0.88903 0.71099 0.0
C162 C 0.94189 0.86548 0.66229 0.0
O163 O 0.80651 0.87818 0.68225 0.0
C164 C 0.86779 0.86777 0.58863 0.0
O165 O 0.89159 0.92448 0.67877 0.0
O166 O 0.84162 0.92738 0.65551 0.0
O167 O 0.92529 0.8511 0.63941 0.0
O168 O 0.92795 0.87348 0.68982 0.0
C169 C 0.81868 0.81445 0.64113 0.0
O170 O 0.85318 0.8907 0.60496 0.0
O171 O 0.87489 0.84005 0.60251 0.0
C172 C 0.86909 0.94109 0.66378 0.0
O173 O 0.81381 0.84377 0.6299 0.0
O174 O 0.84719 0.80582 0.65189 0.0
C175 C 0.88861 0.81769 0.71575 0.0
Fe176 Fe 0.38466 0.14403 0.20007 0.0
Fe177 Fe 0.3866 0.19992 0.14697 0.0
O178 O 0.36757 0.16341 0.16381 0.0
Fe179 Fe 0.33117 0.14663 0.1446 0.0
O180 O 0.30693 0.15235 0.18262 0.0
O181 O 0.34394 0.13023 0.21704 0.0
O182 O 0.37907 0.18193 0.2246 0.0
C183 C 0.39024 0.21051 0.21687 0.0
C184 C 0.36819 0.08842 0.16337 0.0
O185 O 0.40122 0.21614 0.18758 0.0
C186 C 0.36756 0.16312 0.08891 0.0
O187 O 0.42845 0.15461 0.18972 0.0
O188 O 0.42569 0.17784 0.13969 0.0
O189 O 0.34095 0.10275 0.15518 0.0
O190 O 0.3911 0.10469 0.17801 0.0
C191 C 0.32016 0.21674 0.14215 0.0
O192 O 0.37535 0.19047 0.10322 0.0
O193 O 0.35314 0.14007 0.1052 0.0
C194 C 0.4423 0.16304 0.16226 0.0
O195 O 0.34874 0.22435 0.15344 0.0
O196 O 0.31458 0.18751 0.13082 0.0
C197 C 0.31456 0.14097 0.21117 0.0
Fe198 Fe 0.88611 0.38339 0.20256 0.0
Fe199 Fe 0.83177 0.38586 0.1477 0.0
O200 O 0.86797 0.3668 0.16533 0.0
Fe201 Fe 0.88553 0.33088 0.14583 0.0
O202 O 0.87953 0.30586 0.18325 0.0
O203 O 0.89958 0.34246 0.2194 0.0
O204 O 0.84725 0.37755 0.22591 0.0
C205 C 0.81898 0.38892 0.21722 0.0
C206 C 0.94285 0.36803 0.1665 0.0
O207 O 0.81444 0.4001 0.18786 0.0
C208 C 0.86974 0.36749 0.09014 0.0
O209 O 0.87577 0.42722 0.19227 0.0
O210 O 0.85384 0.42531 0.14151 0.0
O211 O 0.92894 0.34095 0.15731 0.0
O212 O 0.92639 0.39024 0.18206 0.0
C213 C 0.81573 0.31907 0.14215 0.0
O214 O 0.84218 0.3751 0.10408 0.0
O215 O 0.89266 0.3534 0.10683 0.0
C216 C 0.8684 0.44144 0.16469 0.0
O217 O 0.80739 0.34761 0.15319 0.0
O218 O 0.84514 0.31406 0.13111 0.0
C219 C 0.89039 0.31285 0.21215 0.0
Fe220 Fe 0.70021 0.88401 0.14673 0.0
Fe221 Fe 0.64515 0.88675 0.20071 0.0
O222 O 0.66304 0.86741 0.16486 0.0
Fe223 Fe 0.64397 0.83111 0.1476 0.0
O224 O 0.68144 0.80658 0.15472 0.0
O225 O 0.71722 0.84288 0.13361 0.0
O226 O 0.72341 0.8785 0.18557 0.0
C227 C 0.71455 0.88977 0.21381 0.0
C228 C 0.66514 0.86774 0.08992 0.0
O229 O 0.68521 0.90101 0.21833 0.0
C230 C 0.58806 0.86774 0.16223 0.0
O231 O 0.68991 0.92808 0.15677 0.0
O232 O 0.63909 0.92589 0.17829 0.0
O233 O 0.65595 0.84066 0.10397 0.0
O234 O 0.67963 0.89044 0.10662 0.0
C235 C 0.63949 0.82029 0.21762 0.0
O236 O 0.60167 0.87584 0.18985 0.0
O237 O 0.60497 0.85328 0.13968 0.0
C238 C 0.66243 0.94234 0.16451 0.0
O239 O 0.65052 0.84892 0.22546 0.0
O240 O 0.62881 0.81471 0.18814 0.0
C241 C 0.71053 0.81373 0.1446 0.0
Fe242 Fe 0.14481 0.64731 0.19982 0.0
Fe243 Fe 0.19892 0.64358 0.14491 0.0
O244 O 0.16301 0.66328 0.1624 0.0
Fe245 Fe 0.14582 0.69931 0.1427 0.0
O246 O 0.15254 0.72448 0.17983 0.0
O247 O 0.13181 0.68859 0.21624 0.0
O248 O 0.1837 0.65305 0.22301 0.0
C249 C 0.21196 0.6416 0.21445 0.0
C250 C 0.08788 0.66332 0.16465 0.0
O251 O 0.21648 0.62988 0.18526 0.0
C252 C 0.16053 0.66141 0.08756 0.0
O253 O 0.1547 0.60321 0.19004 0.0
O254 O 0.17654 0.60439 0.13926 0.0
O255 O 0.10219 0.68998 0.15468 0.0
O256 O 0.1045 0.64071 0.17943 0.0
C257 C 0.21583 0.70993 0.1384 0.0
O258 O 0.18821 0.65375 0.10122 0.0
O259 O 0.1381 0.67662 0.10395 0.0
C260 C 0.162 0.58863 0.16262 0.0
O261 O 0.2236 0.68145 0.14981 0.0
O262 O 0.18643 0.71543 0.12751 0.0
C263 C 0.14159 0.71798 0.20878 0.0
Fe264 Fe 0.33114 0.88446 0.88365 0.0
Fe265 Fe 0.38695 0.88399 0.83049 0.0
O266 O 0.36771 0.86594 0.86635 0.0
Fe267 Fe 0.38479 0.8291 0.88461 0.0
O268 O 0.34416 0.8119 0.89827 0.0
O269 O 0.30702 0.84651 0.87692 0.0
O270 O 0.31451 0.89923 0.84313 0.0
C271 C 0.32041 0.88893 0.8136 0.0
C272 C 0.36839 0.86435 0.94127 0.0
O273 O 0.3492 0.87841 0.80573 0.0
C274 C 0.44256 0.86723 0.8669 0.0
O275 O 0.35272 0.92378 0.89135 0.0
O276 O 0.37583 0.92746 0.84139 0.0
O277 O 0.39127 0.8501 0.92457 0.0
O278 O 0.34108 0.87289 0.92728 0.0
C279 C 0.39028 0.81439 0.81755 0.0
O280 O 0.42611 0.89041 0.8529 0.0
O281 O 0.42851 0.83956 0.87414 0.0
C282 C 0.3672 0.94087 0.86897 0.0
O283 O 0.40133 0.84384 0.81287 0.0
O284 O 0.37918 0.8056 0.8459 0.0
C285 C 0.31471 0.81781 0.88783 0.0
Fe286 Fe 0.14486 0.38336 0.8304 0.0
Fe287 Fe 0.20032 0.38581 0.88396 0.0
O288 O 0.16378 0.36666 0.8671 0.0
Fe289 Fe 0.14657 0.3304 0.8865 0.0
O290 O 0.15219 0.30564 0.84861 0.0
O291 O 0.13067 0.34268 0.81385 0.0
O292 O 0.18287 0.37699 0.80633 0.0
C293 C 0.21152 0.38807 0.81389 0.0
C294 C 0.08892 0.36792 0.86696 0.0
O295 O 0.21739 0.39916 0.84314 0.0
C296 C 0.16272 0.36751 0.94208 0.0
O297 O 0.15576 0.42714 0.83992 0.0
O298 O 0.17884 0.42561 0.89008 0.0
O299 O 0.10293 0.34063 0.87558 0.0
O300 O 0.10545 0.3905 0.85208 0.0
C301 C 0.21651 0.31906 0.88988 0.0
O302 O 0.19003 0.37565 0.92786 0.0
O303 O 0.13995 0.35248 0.92589 0.0
C304 C 0.1639 0.44158 0.8671 0.0
O305 O 0.22439 0.34758 0.87863 0.0
O306 O 0.18713 0.31355 0.90071 0.0
C307 C 0.14096 0.31322 0.81998 0.0
Fe308 Fe 0.64411 0.14591 0.83221 0.0
Fe309 Fe 0.64641 0.1991 0.88806 0.0
O310 O 0.66321 0.16269 0.86877 0.0
Fe311 Fe 0.69962 0.14341 0.8856 0.0
O312 O 0.716 0.12907 0.84492 0.0
O313 O 0.68219 0.15191 0.80796 0.0
O314 O 0.63004 0.18661 0.81569 0.0
C315 C 0.64077 0.21597 0.8215 0.0
C316 C 0.66262 0.08795 0.86962 0.0
O317 O 0.65203 0.22356 0.85009 0.0
C318 C 0.66298 0.16271 0.94379 0.0
O319 O 0.60463 0.13914 0.8538 0.0
O320 O 0.60255 0.189 0.87759 0.0
O321 O 0.67752 0.10412 0.89249 0.0
O322 O 0.65483 0.10212 0.84216 0.0
C323 C 0.71659 0.20992 0.89084 0.0
O324 O 0.63996 0.17717 0.92751 0.0
O325 O 0.69011 0.15441 0.92938 0.0
C326 C 0.58839 0.16182 0.86885 0.0
O327 O 0.68727 0.21588 0.90173 0.0
O328 O 0.72405 0.18131 0.87949 0.0
C329 C 0.71064 0.14037 0.81569 0.0
Fe330 Fe 0.88642 0.69854 0.88503 0.0
Fe331 Fe 0.88313 0.64312 0.83142 0.0
O332 O 0.86678 0.66231 0.86813 0.0
Fe333 Fe 0.83043 0.64563 0.88756 0.0
O334 O 0.81427 0.68641 0.90195 0.0
O335 O 0.84863 0.72328 0.87976 0.0
O336 O 0.89993 0.71546 0.84412 0.0
C337 C 0.88866 0.70975 0.81488 0.0
C338 C 0.86751 0.66113 0.94311 0.0
O339 O 0.87712 0.68124 0.80738 0.0
C340 C 0.86709 0.58747 0.86829 0.0
O341 O 0.92566 0.67628 0.89109 0.0
O342 O 0.92704 0.65368 0.84078 0.0
O343 O 0.85265 0.63855 0.9266 0.0
O344 O 0.87618 0.6884 0.92904 0.0
C345 C 0.81304 0.64045 0.82122 0.0
O346 O 0.88983 0.60352 0.85305 0.0
O347 O 0.8399 0.6018 0.87661 0.0
C348 C 0.94164 0.66175 0.86791 0.0
O349 O 0.84221 0.62936 0.81514 0.0
O350 O 0.8058 0.65187 0.84984 0.0
C351 C 0.82007 0.71573 0.89107 0.0
Fe352 Fe 0.19986 0.38742 0.14608 0.0
Fe353 Fe 0.14531 0.38475 0.20054 0.0
O354 O 0.16378 0.36802 0.16356 0.0
Fe355 Fe 0.1467 0.3316 0.14447 0.0
O356 O 0.18736 0.31498 0.13021 0.0
O357 O 0.22454 0.34956 0.15168 0.0
O358 O 0.21698 0.40164 0.18642 0.0
C359 C 0.21227 0.39017 0.21569 0.0
C360 C 0.16228 0.36829 0.08843 0.0
O361 O 0.18392 0.3789 0.22423 0.0
C362 C 0.08896 0.36886 0.16452 0.0
O363 O 0.17749 0.42666 0.13971 0.0
O364 O 0.15578 0.42851 0.19047 0.0
O365 O 0.13964 0.35335 0.10488 0.0
O366 O 0.1896 0.37654 0.10246 0.0
C367 C 0.14186 0.31463 0.21122 0.0
O368 O 0.10536 0.39146 0.17957 0.0
O369 O 0.10305 0.3417 0.1556 0.0
C370 C 0.16286 0.44271 0.16285 0.0
O371 O 0.13152 0.34406 0.21729 0.0
O372 O 0.1528 0.3071 0.18245 0.0
C373 C 0.21676 0.3208 0.1409 0.0
Fe374 Fe 0.19852 0.64583 0.88657 0.0
Fe375 Fe 0.1464 0.64436 0.82974 0.0
O376 O 0.16257 0.66302 0.86681 0.0
Fe377 Fe 0.14319 0.69919 0.88407 0.0
O378 O 0.18121 0.72355 0.87893 0.0
O379 O 0.21465 0.68636 0.90184 0.0
O380 O 0.22356 0.65268 0.84945 0.0
C381 C 0.21679 0.64233 0.82033 0.0
C382 C 0.16102 0.66085 0.94173 0.0
O383 O 0.18773 0.63129 0.81336 0.0
C384 C 0.08789 0.6625 0.86678 0.0
O385 O 0.18937 0.60213 0.87472 0.0
O386 O 0.13983 0.60444 0.85073 0.0
O387 O 0.1533 0.68853 0.92795 0.0
O388 O 0.1756 0.63819 0.92509 0.0
C389 C 0.14021 0.71113 0.81402 0.0
O390 O 0.10237 0.65444 0.83952 0.0
O391 O 0.10389 0.67713 0.88988 0.0
C392 C 0.16247 0.58789 0.86546 0.0
O393 O 0.15187 0.68282 0.806 0.0
O394 O 0.12969 0.71672 0.84352 0.0
C395 C 0.20955 0.71566 0.89056 0.0
Fe396 Fe 0.38635 0.19867 0.8834 0.0
Fe397 Fe 0.38368 0.14147 0.83164 0.0
O398 O 0.3673 0.16166 0.86777 0.0
Fe399 Fe 0.33128 0.14522 0.88796 0.0
O400 O 0.31499 0.1862 0.90187 0.0
O401 O 0.34816 0.22261 0.87738 0.0
O402 O 0.39975 0.21447 0.84192 0.0
C403 C 0.38834 0.20757 0.81299 0.0
C404 C 0.36864 0.1623 0.94252 0.0
O405 O 0.3775 0.17863 0.80647 0.0
C406 C 0.36785 0.0868 0.86965 0.0
O407 O 0.42577 0.17724 0.89017 0.0
O408 O 0.42781 0.15238 0.84088 0.0
O409 O 0.35409 0.139 0.92675 0.0
O410 O 0.37624 0.18955 0.92771 0.0
C411 C 0.31356 0.13967 0.82175 0.0
O412 O 0.39059 0.10268 0.85437 0.0
O413 O 0.34062 0.1012 0.87762 0.0
C414 C 0.44215 0.16208 0.86772 0.0
O415 O 0.34237 0.12741 0.8158 0.0
O416 O 0.30651 0.15094 0.85046 0.0
C417 C 0.32001 0.21517 0.88974 0.0
Fe418 Fe 0.88636 0.3835 0.83237 0.0
Fe419 Fe 0.88537 0.3302 0.88801 0.0
O420 O 0.86764 0.36625 0.86887 0.0
Fe421 Fe 0.83095 0.38467 0.88602 0.0
O422 O 0.8138 0.39848 0.84539 0.0
O423 O 0.84838 0.37722 0.80813 0.0
O424 O 0.90071 0.34286 0.81563 0.0
C425 C 0.89019 0.3134 0.82152 0.0
C426 C 0.8664 0.44121 0.8697 0.0
O427 O 0.87943 0.30561 0.85025 0.0
C428 C 0.86914 0.36659 0.94373 0.0
O429 O 0.92579 0.39077 0.85404 0.0
O430 O 0.92882 0.34062 0.87667 0.0
O431 O 0.85212 0.42451 0.89257 0.0
O432 O 0.87513 0.42719 0.84243 0.0
C433 C 0.81582 0.3177 0.89136 0.0
O434 O 0.89217 0.3525 0.92715 0.0
O435 O 0.84147 0.37406 0.92976 0.0
C436 C 0.94262 0.36807 0.86834 0.0
O437 O 0.84517 0.31293 0.90258 0.0
O438 O 0.80722 0.34612 0.88031 0.0
C439 C 0.81971 0.38817 0.81587 0.0
Fe440 Fe 0.64447 0.88393 0.83235 0.0
Fe441 Fe 0.70034 0.88651 0.88532 0.0
O442 O 0.66382 0.86721 0.86876 0.0
Fe443 Fe 0.64702 0.83084 0.88817 0.0
O444 O 0.65271 0.80626 0.85019 0.0
O445 O 0.63028 0.84316 0.816 0.0
O446 O 0.68228 0.87789 0.80775 0.0
C447 C 0.71082 0.88942 0.81513 0.0
C448 C 0.58891 0.86794 0.86911 0.0
O449 O 0.71661 0.90048 0.8444 0.0
C450 C 0.66353 0.86778 0.94362 0.0
O451 O 0.65528 0.92774 0.84202 0.0
O452 O 0.67845 0.92591 0.8921 0.0
O453 O 0.60317 0.84071 0.87752 0.0
O454 O 0.60529 0.89078 0.85449 0.0
C455 C 0.71701 0.81993 0.8908 0.0
O456 O 0.69075 0.8759 0.92923 0.0
O457 O 0.64057 0.85284 0.9276 0.0
C458 C 0.66329 0.94199 0.86936 0.0
O459 O 0.72469 0.84847 0.87939 0.0
O460 O 0.6878 0.81439 0.90207 0.0
C461 C 0.64135 0.81389 0.82161 0.0
Fe462 Fe 0.88452 0.64642 0.20143 0.0
Fe463 Fe 0.88226 0.69882 0.14468 0.0
O464 O 0.86596 0.66223 0.16416 0.0
Fe465 Fe 0.83034 0.64194 0.14683 0.0
O466 O 0.81343 0.62737 0.18719 0.0
O467 O 0.8456 0.65153 0.22472 0.0
O468 O 0.897 0.68785 0.21804 0.0
C469 C 0.88569 0.7168 0.21115 0.0
C470 C 0.86821 0.58756 0.16396 0.0
O471 O 0.87519 0.72348 0.18208 0.0
C472 C 0.86777 0.66128 0.08923 0.0
O473 O 0.92471 0.64053 0.1808 0.0
O474 O 0.92621 0.69 0.15629 0.0
O475 O 0.85348 0.60322 0.14063 0.0
O476 O 0.87526 0.60218 0.19145 0.0
C477 C 0.81222 0.70822 0.14185 0.0
O478 O 0.89009 0.67671 0.10561 0.0
O479 O 0.84041 0.65286 0.10312 0.0
C480 C 0.9409 0.66336 0.16592 0.0
O481 O 0.84113 0.71439 0.13001 0.0
O482 O 0.80512 0.6793 0.1526 0.0
C483 C 0.81763 0.63924 0.21636 0.0
Fe484 Fe 0.38401 0.88625 0.1988 0.0
Fe485 Fe 0.33072 0.88397 0.143 0.0
O486 O 0.36695 0.86693 0.16247 0.0
Fe487 Fe 0.3859 0.83019 0.14593 0.0
O488 O 0.39987 0.8139 0.18683 0.0
O489 O 0.37786 0.84853 0.22353 0.0
O490 O 0.3435 0.90062 0.21549 0.0
C491 C 0.314 0.89038 0.20954 0.0
C492 C 0.4418 0.86666 0.16162 0.0
O493 O 0.30618 0.87892 0.18105 0.0
C494 C 0.36748 0.86684 0.08753 0.0
O495 O 0.39097 0.92545 0.17663 0.0
O496 O 0.34101 0.92778 0.15333 0.0
O497 O 0.42536 0.85184 0.13895 0.0
O498 O 0.42768 0.87513 0.1889 0.0
C499 C 0.31927 0.81388 0.14049 0.0
O500 O 0.35267 0.88997 0.10342 0.0
O501 O 0.37529 0.83962 0.10204 0.0
C502 C 0.36824 0.94193 0.16191 0.0
O503 O 0.31378 0.8432 0.12942 0.0
O504 O 0.34774 0.80612 0.152 0.0
C505 C 0.38891 0.81983 0.21609 0.0
Fe506 Fe 0.64301 0.14654 0.20117 0.0
Fe507 Fe 0.69997 0.14485 0.149 0.0
O508 O 0.66287 0.16361 0.16511 0.0
Fe509 Fe 0.64595 0.1999 0.14562 0.0
O510 O 0.65078 0.22422 0.18367 0.0
O511 O 0.62822 0.1871 0.21764 0.0
O512 O 0.6803 0.15302 0.22616 0.0
C513 C 0.70935 0.14259 0.2193 0.0
C514 C 0.5881 0.16195 0.1632 0.0
O515 O 0.71614 0.1314 0.19027 0.0
C516 C 0.66339 0.16336 0.09026 0.0
O517 O 0.65441 0.10284 0.1916 0.0
O518 O 0.67899 0.10495 0.14217 0.0
O519 O 0.60213 0.18944 0.15544 0.0
O520 O 0.60415 0.13934 0.17854 0.0
C521 C 0.71596 0.21165 0.14328 0.0
O522 O 0.69051 0.15519 0.1049 0.0
O523 O 0.64025 0.17793 0.10622 0.0
C524 C 0.66356 0.08868 0.16458 0.0
O525 O 0.72371 0.18325 0.15492 0.0
O526 O 0.68663 0.21729 0.13238 0.0
C527 C 0.63878 0.21656 0.21192 0.0
Fe528 Fe 0.38755 0.6451 0.69953 0.0
Fe529 Fe 0.3832 0.6978 0.64352 0.0
O530 O 0.36737 0.6612 0.66334 0.0
Fe531 Fe 0.33098 0.64104 0.64759 0.0
O532 O 0.31538 0.6276 0.68917 0.0
O533 O 0.35032 0.6514 0.7245 0.0
O534 O 0.40186 0.68611 0.71534 0.0
C535 C 0.39034 0.71522 0.70972 0.0
C536 C 0.36866 0.58621 0.66382 0.0
O537 O 0.37792 0.72234 0.6815 0.0
C538 C 0.3665 0.66035 0.58845 0.0
O539 O 0.42607 0.6383 0.67657 0.0
O540 O 0.42752 0.68833 0.65323 0.0
O541 O 0.35336 0.60193 0.64096 0.0
O542 O 0.37683 0.601 0.69082 0.0
C543 C 0.31279 0.70725 0.64203 0.0
O544 O 0.38925 0.67587 0.60412 0.0
O545 O 0.33981 0.6513 0.60334 0.0
C546 C 0.44205 0.66116 0.66157 0.0
O547 O 0.34172 0.71385 0.63046 0.0
O548 O 0.30623 0.67851 0.65344 0.0
C549 C 0.32158 0.64006 0.71786 0.0
Fe550 Fe 0.7003 0.38409 0.64459 0.0
Fe551 Fe 0.64684 0.38561 0.70012 0.0
O552 O 0.66417 0.36656 0.66379 0.0
Fe553 Fe 0.64574 0.32968 0.64702 0.0
O554 O 0.68427 0.30595 0.65304 0.0
O555 O 0.71766 0.34371 0.63067 0.0
O556 O 0.7247 0.37866 0.68263 0.0
C557 C 0.71681 0.38978 0.71121 0.0
C558 C 0.66378 0.36712 0.58903 0.0
O559 O 0.68733 0.40035 0.71679 0.0
C560 C 0.58923 0.36534 0.6629 0.0
O561 O 0.68967 0.42771 0.6553 0.0
O562 O 0.63953 0.42476 0.67801 0.0
O563 O 0.65633 0.33962 0.60324 0.0
O564 O 0.67835 0.39026 0.60511 0.0
C565 C 0.64224 0.31912 0.7172 0.0
O566 O 0.6032 0.37416 0.69015 0.0
O567 O 0.60596 0.35086 0.64018 0.0
C568 C 0.66218 0.44152 0.66353 0.0
O569 O 0.65322 0.34785 0.72473 0.0
O570 O 0.63184 0.31306 0.68776 0.0
C571 C 0.71277 0.31444 0.64208 0.0
Fe572 Fe 0.33136 0.38773 0.38439 0.0
Fe573 Fe 0.38689 0.38438 0.3313 0.0
O574 O 0.36728 0.36771 0.36753 0.0
Fe575 Fe 0.38324 0.33073 0.3865 0.0
O576 O 0.34189 0.31483 0.4002 0.0
O577 O 0.30627 0.35059 0.37815 0.0
O578 O 0.31503 0.4022 0.34357 0.0
C579 C 0.32059 0.39094 0.31429 0.0
C580 C 0.36816 0.36782 0.44219 0.0
O581 O 0.34895 0.37903 0.30679 0.0
C582 C 0.44206 0.36718 0.36809 0.0
O583 O 0.3542 0.42641 0.39141 0.0
O584 O 0.37667 0.42833 0.34113 0.0
O585 O 0.39039 0.35215 0.42599 0.0
O586 O 0.34095 0.37654 0.42814 0.0
C587 C 0.38885 0.31442 0.32001 0.0
O588 O 0.42609 0.39043 0.35362 0.0
O589 O 0.42738 0.33995 0.37595 0.0
C590 C 0.36886 0.44262 0.36852 0.0
O591 O 0.40051 0.34352 0.31469 0.0
O592 O 0.37698 0.30682 0.34835 0.0
C593 C 0.31287 0.32165 0.38898 0.0
Fe594 Fe 0.69935 0.64393 0.38565 0.0
Fe595 Fe 0.64339 0.64619 0.3325 0.0
O596 O 0.66283 0.66314 0.36883 0.0
Fe597 Fe 0.64616 0.69971 0.38802 0.0
O598 O 0.68696 0.71613 0.40191 0.0
O599 O 0.72374 0.68183 0.37948 0.0
O600 O 0.7159 0.62971 0.345 0.0
C601 C 0.70988 0.64006 0.31554 0.0
C602 C 0.66236 0.66293 0.44369 0.0
O603 O 0.68136 0.65147 0.30787 0.0
C604 C 0.58785 0.66286 0.36931 0.0
O605 O 0.67744 0.60462 0.39265 0.0
O606 O 0.65378 0.60244 0.34277 0.0
O607 O 0.63954 0.67798 0.4276 0.0
O608 O 0.68963 0.6548 0.42943 0.0
C609 C 0.64074 0.71629 0.32129 0.0
O610 O 0.60391 0.63992 0.35445 0.0
O611 O 0.60229 0.69005 0.37743 0.0
C612 C 0.66202 0.58844 0.37017 0.0
O613 O 0.62972 0.68697 0.31567 0.0
O614 O 0.652 0.724 0.34989 0.0
C615 C 0.71614 0.71045 0.39067 0.0
Fe616 Fe 0.38323 0.69977 0.38711 0.0
Fe617 Fe 0.38641 0.64686 0.33113 0.0
O618 O 0.36671 0.66346 0.3674 0.0
Fe619 Fe 0.33005 0.64415 0.38363 0.0
O620 O 0.30575 0.68209 0.37745 0.0
O621 O 0.34229 0.71604 0.40079 0.0
O622 O 0.37771 0.72445 0.34917 0.0
C623 C 0.3892 0.71689 0.32062 0.0
C624 C 0.36649 0.6624 0.44221 0.0
O625 O 0.40054 0.68771 0.31504 0.0
C626 C 0.3672 0.58875 0.3679 0.0
O627 O 0.42717 0.69014 0.37678 0.0
O628 O 0.42563 0.64012 0.35347 0.0
O629 O 0.33926 0.65471 0.42761 0.0
O630 O 0.38951 0.67749 0.42644 0.0
C631 C 0.32004 0.64136 0.31345 0.0
O632 O 0.3756 0.60304 0.34068 0.0
O633 O 0.35203 0.60491 0.39054 0.0
C634 C 0.44161 0.66293 0.36867 0.0
O635 O 0.34868 0.65281 0.30627 0.0
O636 O 0.31398 0.63023 0.34263 0.0
C637 C 0.31326 0.71058 0.389 0.0
Fe638 Fe 0.64727 0.33052 0.38609 0.0
Fe639 Fe 0.64381 0.38549 0.33216 0.0
O640 O 0.66342 0.36791 0.36801 0.0
Fe641 Fe 0.69949 0.38747 0.3853 0.0
O642 O 0.72443 0.35023 0.37849 0.0
O643 O 0.68847 0.31398 0.39925 0.0
O644 O 0.65301 0.30736 0.34721 0.0
C645 C 0.64114 0.31593 0.31911 0.0
C646 C 0.663 0.36592 0.4429 0.0
O647 O 0.62985 0.34526 0.31463 0.0
C648 C 0.66181 0.44277 0.37052 0.0
O649 O 0.60319 0.34029 0.37602 0.0
O650 O 0.60463 0.3912 0.35466 0.0
O651 O 0.68991 0.37558 0.42888 0.0
O652 O 0.64057 0.35098 0.42623 0.0
C653 C 0.71021 0.39196 0.31527 0.0
O654 O 0.65421 0.42905 0.34285 0.0
O655 O 0.67698 0.42637 0.393 0.0
C656 C 0.58859 0.36768 0.36863 0.0
O657 O 0.68172 0.38051 0.30748 0.0
O658 O 0.7159 0.40254 0.34476 0.0
C659 C 0.71764 0.32106 0.38865 0.0
Fe660 Fe 0.38665 0.38102 0.70001 0.0
Fe661 Fe 0.33196 0.38478 0.64559 0.0
O662 O 0.36815 0.36525 0.66261 0.0
Fe663 Fe 0.3853 0.32944 0.64249 0.0
O664 O 0.37853 0.30399 0.67953 0.0
O665 O 0.39983 0.33961 0.7159 0.0
O666 O 0.34797 0.37505 0.72354 0.0
C667 C 0.3196 0.38639 0.7152 0.0
C668 C 0.44301 0.3656 0.66365 0.0
O669 O 0.31475 0.39811 0.6861 0.0
C670 C 0.37009 0.3678 0.58784 0.0
O671 O 0.37654 0.42515 0.69066 0.0
O672 O 0.35402 0.42429 0.64014 0.0
O673 O 0.42886 0.33868 0.65432 0.0
O674 O 0.42674 0.38788 0.67931 0.0
C675 C 0.31559 0.31825 0.63857 0.0
O676 O 0.34244 0.37498 0.60181 0.0
O677 O 0.39279 0.3526 0.60393 0.0
C678 C 0.36876 0.43995 0.6635 0.0
O679 O 0.30753 0.34653 0.65039 0.0
O680 O 0.34485 0.31342 0.62717 0.0
C681 C 0.38879 0.31061 0.70875 0.0
Fe682 Fe 0.64461 0.6436 0.7008 0.0
Fe683 Fe 0.69932 0.64571 0.64654 0.0
O684 O 0.66252 0.66285 0.66485 0.0
Fe685 Fe 0.64399 0.69951 0.64763 0.0
O686 O 0.62949 0.7162 0.68822 0.0
O687 O 0.65026 0.68138 0.72556 0.0
O688 O 0.68472 0.6292 0.71829 0.0
C689 C 0.71408 0.64037 0.71357 0.0
C690 C 0.58781 0.66302 0.66241 0.0
O691 O 0.72284 0.65134 0.68517 0.0
C692 C 0.66399 0.66218 0.58994 0.0
O693 O 0.6381 0.60438 0.67848 0.0
O694 O 0.68883 0.602 0.65701 0.0
O695 O 0.60446 0.67818 0.64012 0.0
O696 O 0.60125 0.65469 0.69002 0.0
C697 C 0.71074 0.7157 0.64328 0.0
O698 O 0.67826 0.63929 0.60662 0.0
O699 O 0.65537 0.68948 0.60396 0.0
C700 C 0.66126 0.58791 0.66447 0.0
O701 O 0.71668 0.68624 0.6329 0.0
O702 O 0.68207 0.72348 0.65418 0.0
C703 C 0.6398 0.71022 0.71774 0.0
C704 C 0.14875 0.25492 0.23031 0.0
C705 C 0.13979 0.28832 0.23777 0.0
C706 C 0.14813 0.22983 0.25502 0.0
C707 C 0.13853 0.23695 0.28836 0.0
H708 H 0.15661 0.24798 0.20517 0.0
H709 H 0.15554 0.20466 0.24785 0.0
S710 S 0.11311 0.3205 0.32136 0.0
N711 N 0.12116 0.3272 0.28124 0.0
N712 N 0.11997 0.2801 0.32754 0.0
C713 C 0.1293 0.27021 0.29619 0.0
C714 C 0.12996 0.29582 0.271 0.0
C715 C 0.7642 0.12221 0.24304 0.0
C716 C 0.73541 0.14256 0.24599 0.0
C717 C 0.78919 0.12222 0.26796 0.0
C718 C 0.78636 0.1426 0.29675 0.0
H719 H 0.76739 0.10597 0.22143 0.0
H720 H 0.81078 0.10598 0.26469 0.0
S721 S 0.71751 0.20304 0.31489 0.0
N722 N 0.70668 0.18526 0.27904 0.0
N723 N 0.7534 0.18534 0.3256 0.0
C724 C 0.75799 0.16356 0.29964 0.0
C725 C 0.73261 0.16352 0.27436 0.0
C726 C 0.90718 0.76643 0.29017 0.0
C727 C 0.88711 0.7954 0.28712 0.0
C728 C 0.90666 0.74112 0.26557 0.0
C729 C 0.88604 0.74379 0.23694 0.0
H730 H 0.92358 0.76328 0.31167 0.0
H731 H 0.92272 0.71942 0.26894 0.0
S732 S 0.82623 0.81308 0.21849 0.0
N733 N 0.84445 0.82421 0.25404 0.0
N734 N 0.84344 0.77686 0.20805 0.0
C735 C 0.86539 0.77237 0.23387 0.0
C736 C 0.86594 0.79809 0.25886 0.0
C737 C 0.2742 0.8886 0.29618 0.0
C738 C 0.23979 0.89326 0.28944 0.0
C739 C 0.29803 0.8885 0.27023 0.0
C740 C 0.28837 0.8924 0.23643 0.0
H741 H 0.28287 0.88489 0.32172 0.0
H742 H 0.32418 0.8845 0.27665 0.0
S743 S 0.20182 0.90642 0.20508 0.0
N744 N 0.1975 0.90288 0.2462 0.0
N745 N 0.24234 0.90195 0.19756 0.0
C746 C 0.25419 0.89729 0.22926 0.0
C747 C 0.22992 0.89795 0.25571 0.0
C748 C 0.14409 0.79747 0.77367 0.0
C749 C 0.13733 0.79085 0.73953 0.0
C750 C 0.14411 0.77164 0.7977 0.0
C751 C 0.13807 0.73807 0.78846 0.0
H752 H 0.14962 0.82279 0.78198 0.0
H753 H 0.14981 0.7779 0.82359 0.0
S754 S 0.11759 0.70713 0.70299 0.0
N755 N 0.12297 0.74798 0.69818 0.0
N756 N 0.12399 0.69958 0.74327 0.0
C757 C 0.13096 0.73103 0.75461 0.0
C758 C 0.13029 0.75737 0.73021 0.0
C759 C 0.26478 0.11933 0.74186 0.0
C760 C 0.23696 0.14108 0.74392 0.0
C761 C 0.28952 0.11889 0.76707 0.0
C762 C 0.28734 0.14021 0.79523 0.0
H763 H 0.26729 0.10223 0.72083 0.0
H764 H 0.31031 0.10151 0.76459 0.0
S765 S 0.22185 0.20503 0.81024 0.0
N766 N 0.21034 0.18652 0.77496 0.0
N767 N 0.25655 0.18574 0.82208 0.0
C768 C 0.26013 0.16276 0.79703 0.0
C769 C 0.23504 0.16319 0.77146 0.0
C770 C 0.88673 0.25322 0.80325 0.0
C771 C 0.89179 0.28725 0.79492 0.0
C772 C 0.88666 0.22814 0.77854 0.0
C773 C 0.89173 0.23598 0.74441 0.0
H774 H 0.88264 0.24578 0.82911 0.0
H775 H 0.88248 0.20239 0.78633 0.0
S776 S 0.90448 0.32142 0.70896 0.0
N777 N 0.901 0.32755 0.74983 0.0
N778 N 0.90096 0.28049 0.70345 0.0
C779 C 0.8968 0.26992 0.73568 0.0
C780 C 0.89681 0.29549 0.76087 0.0
C781 C 0.755 0.88079 0.73075 0.0
C782 C 0.78816 0.891 0.73769 0.0
C783 C 0.73019 0.88084 0.75573 0.0
C784 C 0.73735 0.89117 0.78882 0.0
H785 H 0.74809 0.87228 0.70585 0.0
H786 H 0.70522 0.87235 0.74898 0.0
S787 S 0.82021 0.92052 0.82035 0.0
N788 N 0.82676 0.91199 0.7803 0.0
N789 N 0.78021 0.91213 0.82714 0.0
C790 C 0.77033 0.90182 0.7961 0.0
C791 C 0.79565 0.90173 0.77062 0.0
C792 C 0.29864 0.13791 0.27202 0.0
C793 C 0.28874 0.13965 0.23806 0.0
C794 C 0.27489 0.13847 0.29808 0.0
C795 C 0.24029 0.14015 0.29117 0.0
H796 H 0.32502 0.13682 0.27863 0.0
H797 H 0.28372 0.13746 0.32382 0.0
S798 S 0.20107 0.14535 0.20664 0.0
N799 N 0.24178 0.14341 0.19906 0.0
N800 N 0.19727 0.14385 0.24792 0.0
C801 C 0.23001 0.14155 0.25735 0.0
C802 C 0.25418 0.1415 0.23085 0.0
C803 C 0.89599 0.269 0.29694 0.0
C804 C 0.89365 0.23476 0.2884 0.0
C805 C 0.89559 0.29405 0.27212 0.0
C806 C 0.89301 0.28583 0.23777 0.0
H807 H 0.89714 0.27661 0.32305 0.0
H808 H 0.89647 0.32008 0.28003 0.0
S809 S 0.89052 0.19964 0.20201 0.0
N810 N 0.89149 0.19384 0.24305 0.0
N811 N 0.89101 0.24072 0.19649 0.0
C812 C 0.892 0.2516 0.22886 0.0
C813 C 0.89228 0.22615 0.25413 0.0
C814 C 0.77349 0.89479 0.23508 0.0
C815 C 0.73902 0.89114 0.24174 0.0
C816 C 0.79704 0.89551 0.26127 0.0
C817 C 0.7871 0.89181 0.29506 0.0
H818 H 0.78236 0.89725 0.20946 0.0
H819 H 0.82334 0.8982 0.25484 0.0
S820 S 0.69969 0.88052 0.32566 0.0
N821 N 0.696 0.88359 0.28446 0.0
N822 N 0.74023 0.88411 0.3336 0.0
C823 C 0.75265 0.88798 0.302 0.0
C824 C 0.72864 0.88787 0.27538 0.0
C825 C 0.13354 0.76293 0.29279 0.0
C826 C 0.13809 0.79697 0.28425 0.0
C827 C 0.1341 0.73766 0.26821 0.0
C828 C 0.13925 0.74536 0.23406 0.0
H829 H 0.13027 0.75555 0.31879 0.0
H830 H 0.13117 0.71181 0.27622 0.0
S831 S 0.14954 0.83085 0.19799 0.0
N832 N 0.14588 0.83718 0.2388 0.0
N833 N 0.14698 0.78983 0.19276 0.0
C834 C 0.14292 0.7794 0.22504 0.0
C835 C 0.14233 0.80512 0.25006 0.0
C836 C 0.27661 0.88338 0.72878 0.0
C837 C 0.24258 0.88881 0.73674 0.0
C838 C 0.30155 0.88407 0.75364 0.0
C839 C 0.29358 0.89014 0.78759 0.0
H840 H 0.28417 0.87844 0.70309 0.0
H841 H 0.32729 0.87961 0.74608 0.0
S842 S 0.20805 0.90457 0.82207 0.0
N843 N 0.20213 0.89976 0.7813 0.0
N844 N 0.24891 0.90098 0.82795 0.0
C845 C 0.25964 0.89565 0.79595 0.0
C846 C 0.23421 0.89499 0.77059 0.0
C847 C 0.14228 0.29705 0.75928 0.0
C848 C 0.13912 0.2874 0.79317 0.0
C849 C 0.14213 0.27317 0.73334 0.0
C850 C 0.13812 0.23867 0.74016 0.0
H851 H 0.14571 0.32325 0.75274 0.0
H852 H 0.14529 0.28189 0.70775 0.0
S853 S 0.12753 0.2005 0.8248 0.0
N854 N 0.13136 0.24112 0.83222 0.0
N855 N 0.13011 0.19626 0.7836 0.0
C856 C 0.1342 0.22877 0.77398 0.0
C857 C 0.13502 0.25309 0.80043 0.0
C858 C 0.75474 0.14384 0.73101 0.0
C859 C 0.78865 0.13794 0.73921 0.0
C860 C 0.72972 0.14416 0.75578 0.0
C861 C 0.7375 0.13858 0.78984 0.0
H862 H 0.74735 0.14846 0.70522 0.0
H863 H 0.70407 0.14898 0.74807 0.0
S864 S 0.82266 0.12347 0.82495 0.0
N865 N 0.82879 0.12728 0.78412 0.0
N866 N 0.78185 0.12786 0.8306 0.0
C867 C 0.77132 0.13265 0.79844 0.0
C868 C 0.79683 0.13233 0.77319 0.0
C869 C 0.89389 0.77052 0.79875 0.0
C870 C 0.88969 0.73671 0.789 0.0
C871 C 0.89338 0.79665 0.77504 0.0
C872 C 0.88928 0.78995 0.74058 0.0
H873 H 0.89702 0.77698 0.82501 0.0
H874 H 0.89646 0.82226 0.78374 0.0
S875 S 0.87629 0.70611 0.70177 0.0
N876 N 0.88049 0.69825 0.74228 0.0
N877 N 0.88007 0.74721 0.69789 0.0
C878 C 0.88514 0.75633 0.73044 0.0
C879 C 0.88518 0.72978 0.75457 0.0
C880 C 0.3016 0.27692 0.14528 0.0
C881 C 0.29345 0.24281 0.1405 0.0
C882 C 0.27678 0.30191 0.14485 0.0
C883 C 0.2427 0.29392 0.13971 0.0
H884 H 0.3274 0.28449 0.14948 0.0
H885 H 0.28447 0.32772 0.1487 0.0
S886 S 0.20772 0.20816 0.12783 0.0
N887 N 0.24857 0.20226 0.13154 0.0
N888 N 0.20201 0.24911 0.13084 0.0
C889 C 0.23415 0.25988 0.13502 0.0
C890 C 0.25946 0.23441 0.13541 0.0
C891 C 0.22967 0.77472 0.88238 0.0
C892 C 0.23664 0.74134 0.89181 0.0
C893 C 0.25493 0.79918 0.88154 0.0
C894 C 0.28837 0.7914 0.89006 0.0
H895 H 0.20447 0.78212 0.87524 0.0
H896 H 0.24809 0.82438 0.87387 0.0
S897 S 0.32024 0.70752 0.9159 0.0
N898 N 0.27969 0.7017 0.90961 0.0
N899 N 0.32717 0.7476 0.90794 0.0
C900 C 0.29576 0.75812 0.89966 0.0
C901 C 0.26994 0.73317 0.90058 0.0
C902 C 0.30104 0.27494 0.88426 0.0
C903 C 0.29326 0.24118 0.89145 0.0
C904 C 0.27621 0.29987 0.88433 0.0
C905 C 0.24243 0.29219 0.89152 0.0
H906 H 0.32656 0.28229 0.87834 0.0
H907 H 0.28365 0.32538 0.87844 0.0
S908 S 0.20842 0.20736 0.91066 0.0
N909 N 0.24907 0.20125 0.90532 0.0
N910 N 0.20239 0.24802 0.90524 0.0
C911 C 0.23424 0.25851 0.89876 0.0
C912 C 0.25961 0.23308 0.89879 0.0
C913 C 0.73275 0.27066 0.89511 0.0
C914 C 0.74254 0.23675 0.8922 0.0
C915 C 0.75652 0.29671 0.89487 0.0
C916 C 0.79108 0.28986 0.89238 0.0
H917 H 0.70642 0.27727 0.89691 0.0
H918 H 0.74773 0.3224 0.89678 0.0
S919 S 0.83007 0.20556 0.88371 0.0
N920 N 0.78941 0.19791 0.88626 0.0
N921 N 0.83396 0.24675 0.88645 0.0
C922 C 0.80128 0.2561 0.88973 0.0
C923 C 0.77707 0.22961 0.88945 0.0
C924 C 0.77691 0.80087 0.88682 0.0
C925 C 0.74288 0.79306 0.89238 0.0
C926 C 0.80167 0.77584 0.88696 0.0
C927 C 0.79348 0.74188 0.89266 0.0
H928 H 0.7846 0.82656 0.88215 0.0
H929 H 0.82744 0.78325 0.88237 0.0
S930 S 0.70779 0.70775 0.90692 0.0
N931 N 0.70215 0.74861 0.9028 0.0
N932 N 0.7486 0.70166 0.90308 0.0
C933 C 0.75952 0.73367 0.89823 0.0
C934 C 0.73428 0.75918 0.89809 0.0
C935 C 0.78826 0.76295 0.12112 0.0
C936 C 0.78616 0.73493 0.14265 0.0
C937 C 0.76389 0.78851 0.12192 0.0
C938 C 0.73651 0.78697 0.14428 0.0
H939 H 0.80871 0.76504 0.10329 0.0
H940 H 0.76631 0.80937 0.10462 0.0
S941 S 0.7219 0.72135 0.20902 0.0
N942 N 0.75604 0.70889 0.18908 0.0
N943 N 0.71043 0.75659 0.19048 0.0
C944 C 0.73469 0.75958 0.16659 0.0
C945 C 0.75943 0.73367 0.1658 0.0
C946 C 0.27565 0.72891 0.14358 0.0
C947 C 0.24179 0.73676 0.13693 0.0
C948 C 0.30046 0.75387 0.14431 0.0
C949 C 0.29257 0.78783 0.13835 0.0
H950 H 0.28316 0.70324 0.14852 0.0
H951 H 0.32604 0.74638 0.14977 0.0
S952 S 0.20754 0.82206 0.12067 0.0
N953 N 0.20162 0.78123 0.12476 0.0
N954 N 0.24818 0.8281 0.1261 0.0
C955 C 0.25883 0.79609 0.13151 0.0
C956 C 0.23351 0.77062 0.13079 0.0
C957 C 0.73206 0.27252 0.14377 0.0
C958 C 0.7417 0.23856 0.1415 0.0
C959 C 0.75605 0.29841 0.14381 0.0
C960 C 0.79061 0.29139 0.14092 0.0
H961 H 0.70579 0.27916 0.14635 0.0
H962 H 0.74738 0.3241 0.14617 0.0
S963 S 0.82877 0.20652 0.13303 0.0
N964 N 0.78804 0.1993 0.13568 0.0
N965 N 0.83307 0.2477 0.13518 0.0
C966 C 0.80049 0.25749 0.13804 0.0
C967 C 0.77608 0.23116 0.13851 0.0
C968 C 0.77325 0.6368 0.73453 0.0
C969 C 0.73871 0.63931 0.7414 0.0
C970 C 0.79697 0.63649 0.76056 0.0
C971 C 0.78712 0.63929 0.79446 0.0
H972 H 0.78206 0.63494 0.70883 0.0
H973 H 0.8233 0.6347 0.75394 0.0
S974 S 0.69964 0.64789 0.82571 0.0
N975 N 0.69577 0.64525 0.78449 0.0
N976 N 0.7403 0.64525 0.83336 0.0
C977 C 0.75262 0.64211 0.80165 0.0
C978 C 0.72845 0.64192 0.77515 0.0
C979 C 0.2724 0.3914 0.79811 0.0
C980 C 0.23853 0.38867 0.78815 0.0
C981 C 0.29856 0.39046 0.77448 0.0
C982 C 0.29183 0.38738 0.73994 0.0
H983 H 0.27887 0.3937 0.82446 0.0
H984 H 0.32422 0.39243 0.78333 0.0
S985 S 0.20773 0.37852 0.70059 0.0
N986 N 0.19989 0.38203 0.74116 0.0
N987 N 0.24895 0.38082 0.6969 0.0
C988 C 0.25813 0.38472 0.72958 0.0
C989 C 0.23154 0.3852 0.75363 0.0
C990 C 0.25928 0.63756 0.29738 0.0
C991 C 0.29318 0.64034 0.2875 0.0
C992 C 0.23316 0.63802 0.2737 0.0
C993 C 0.23989 0.6406 0.23911 0.0
H994 H 0.25274 0.63566 0.32374 0.0
H995 H 0.2075 0.63615 0.28257 0.0
S996 S 0.32409 0.64908 0.19985 0.0
N997 N 0.33187 0.64637 0.24052 0.0
N998 N 0.28288 0.64651 0.19608 0.0
C999 C 0.27363 0.64316 0.2288 0.0
C1000 C 0.30021 0.64326 0.25294 0.0
C1001 C 0.77127 0.39389 0.29997 0.0
C1002 C 0.73739 0.39308 0.28971 0.0
C1003 C 0.79757 0.39236 0.27651 0.0
C1004 C 0.79103 0.39078 0.24181 0.0
H1005 H 0.7776 0.39494 0.32642 0.0
H1006 H 0.8232 0.39257 0.28565 0.0
S1007 S 0.70684 0.38927 0.20163 0.0
N1008 N 0.69887 0.39121 0.24229 0.0
N1009 N 0.74814 0.38894 0.19829 0.0
C1010 C 0.75729 0.39064 0.23117 0.0
C1011 C 0.73054 0.39165 0.25505 0.0
C1012 C 0.2403 0.62236 0.7652 0.0
C1013 C 0.24377 0.64181 0.79457 0.0
C1014 C 0.26558 0.62172 0.7406 0.0
C1015 C 0.29531 0.64051 0.74439 0.0
H1016 H 0.21797 0.60733 0.76121 0.0
H1017 H 0.26178 0.60628 0.7185 0.0
S1018 S 0.31542 0.69801 0.81531 0.0
N1019 N 0.27851 0.68191 0.82504 0.0
N1020 N 0.32578 0.68074 0.77907 0.0
C1021 C 0.2988 0.66055 0.7734 0.0
C1022 C 0.27313 0.66119 0.79839 0.0
C1023 C 0.80082 0.38184 0.75606 0.0
C1024 C 0.79319 0.39032 0.78958 0.0
C1025 C 0.77617 0.38236 0.73094 0.0
C1026 C 0.74272 0.39134 0.73814 0.0
H1027 H 0.82605 0.37441 0.74906 0.0
H1028 H 0.78347 0.37533 0.70569 0.0
S1029 S 0.70932 0.41552 0.82196 0.0
N1030 N 0.74953 0.40802 0.82862 0.0
N1031 N 0.70326 0.40892 0.78147 0.0
C1032 C 0.73473 0.40016 0.7715 0.0
C1033 C 0.75989 0.39966 0.79715 0.0
C1034 C 0.25976 0.39554 0.29848 0.0
C1035 C 0.29358 0.39218 0.28852 0.0
C1036 C 0.23354 0.39472 0.2749 0.0
C1037 C 0.24015 0.39133 0.24035 0.0
H1038 H 0.25336 0.3981 0.32482 0.0
H1039 H 0.20791 0.39696 0.2838 0.0
S1040 S 0.32411 0.38147 0.20094 0.0
N1041 N 0.33205 0.38495 0.24151 0.0
N1042 N 0.28292 0.38425 0.1973 0.0
C1043 C 0.27382 0.38833 0.22997 0.0
C1044 C 0.30046 0.38854 0.254 0.0
C1045 C 0.77056 0.6415 0.29956 0.0
C1046 C 0.73673 0.63828 0.2898 0.0
C1047 C 0.79653 0.64155 0.27574 0.0
C1048 C 0.78978 0.63766 0.24122 0.0
H1049 H 0.77702 0.64485 0.32581 0.0
H1050 H 0.82209 0.64472 0.28451 0.0
S1051 S 0.70535 0.627 0.20275 0.0
N1052 N 0.69782 0.63063 0.24339 0.0
N1053 N 0.74652 0.62967 0.19863 0.0
C1054 C 0.75603 0.63364 0.23121 0.0
C1055 C 0.72955 0.63429 0.25545 0.0
C1056 C 0.29019 0.76323 0.62325 0.0
C1057 C 0.2858 0.7331 0.64129 0.0
C1058 C 0.26523 0.78817 0.6229 0.0
C1059 C 0.23485 0.78401 0.64057 0.0
H1060 H 0.31309 0.76767 0.60925 0.0
H1061 H 0.26986 0.81089 0.60865 0.0
S1062 S 0.21178 0.71066 0.69369 0.0
N1063 N 0.24913 0.70121 0.67851 0.0
N1064 N 0.2025 0.74781 0.67785 0.0
C1065 C 0.23027 0.75409 0.65896 0.0
C1066 C 0.25564 0.72875 0.65933 0.0
C1067 C 0.29025 0.26549 0.40698 0.0
C1068 C 0.28588 0.29584 0.38932 0.0
C1069 C 0.26535 0.2405 0.40682 0.0
C1070 C 0.23509 0.24483 0.38902 0.0
H1071 H 0.31307 0.26091 0.42104 0.0
H1072 H 0.26994 0.21759 0.42081 0.0
S1073 S 0.21196 0.31891 0.33697 0.0
N1074 N 0.24925 0.32821 0.35245 0.0
N1075 N 0.20275 0.28148 0.35217 0.0
C1076 C 0.23049 0.275 0.37105 0.0
C1077 C 0.25578 0.30039 0.37121 0.0
C1078 C 0.22922 0.75515 0.38067 0.0
C1079 C 0.23703 0.78881 0.38822 0.0
C1080 C 0.25387 0.73004 0.38147 0.0
C1081 C 0.28741 0.73748 0.38988 0.0
H1082 H 0.20386 0.74801 0.37389 0.0
H1083 H 0.24649 0.7046 0.37522 0.0
S1084 S 0.3214 0.82192 0.41071 0.0
N1085 N 0.28106 0.82836 0.40381 0.0
N1086 N 0.32727 0.78125 0.40532 0.0
C1087 C 0.29562 0.77105 0.39754 0.0
C1088 C 0.2705 0.79665 0.39671 0.0
C1089 C 0.77603 0.72924 0.38603 0.0
C1090 C 0.7421 0.73721 0.39201 0.0
C1091 C 0.8009 0.75415 0.38593 0.0
C1092 C 0.79292 0.7881 0.3918 0.0
H1093 H 0.78356 0.70353 0.38123 0.0
H1094 H 0.8266 0.74664 0.38107 0.0
S1095 S 0.70757 0.82263 0.40706 0.0
N1096 N 0.70168 0.7818 0.40293 0.0
N1097 N 0.74836 0.82853 0.40276 0.0
C1098 C 0.75907 0.79648 0.39774 0.0
C1099 C 0.73371 0.7711 0.39784 0.0
C1100 C 0.74031 0.26511 0.40736 0.0
C1101 C 0.74465 0.29526 0.38934 0.0
C1102 C 0.76544 0.24035 0.40795 0.0
C1103 C 0.79592 0.24472 0.39054 0.0
H1104 H 0.71735 0.26055 0.42122 0.0
H1105 H 0.76086 0.21761 0.42219 0.0
S1106 S 0.81888 0.31814 0.33744 0.0
N1107 N 0.78133 0.32731 0.35232 0.0
N1108 N 0.82828 0.28108 0.3534 0.0
C1109 C 0.80039 0.27461 0.37206 0.0
C1110 C 0.77487 0.29976 0.37147 0.0
C1111 C 0.75982 0.23127 0.63971 0.0
C1112 C 0.79375 0.24114 0.642 0.0
C1113 C 0.73377 0.25503 0.63974 0.0
C1114 C 0.74061 0.28966 0.64139 0.0
H1115 H 0.75323 0.20489 0.63853 0.0
H1116 H 0.70807 0.24618 0.63831 0.0
S1117 S 0.82502 0.32885 0.64805 0.0
N1118 N 0.83263 0.28813 0.64638 0.0
N1119 N 0.78381 0.33267 0.64577 0.0
C1120 C 0.77441 0.29992 0.64341 0.0
C1121 C 0.8009 0.27573 0.64392 0.0
C1122 C 0.25624 0.29745 0.64352 0.0
C1123 C 0.29041 0.29065 0.63734 0.0
C1124 C 0.23229 0.2716 0.64423 0.0
C1125 C 0.24163 0.23786 0.63942 0.0
H1126 H 0.24785 0.32294 0.64802 0.0
H1127 H 0.20635 0.27803 0.64941 0.0
S1128 S 0.32738 0.2064 0.62113 0.0
N1129 N 0.33201 0.24742 0.62509 0.0
N1130 N 0.28705 0.19899 0.62723 0.0
C1131 C 0.27555 0.23064 0.63292 0.0
C1132 C 0.29988 0.25698 0.63161 0.0
C1133 C 0.79761 0.75513 0.63959 0.0
C1134 C 0.7908 0.78979 0.64054 0.0
C1135 C 0.77153 0.73145 0.63982 0.0
C1136 C 0.73763 0.74146 0.64167 0.0
H1137 H 0.82329 0.74619 0.63855 0.0
H1138 H 0.77807 0.70504 0.63919 0.0
S1139 S 0.70646 0.82931 0.64586 0.0
N1140 N 0.7477 0.833 0.64382 0.0
N1141 N 0.69878 0.78857 0.64489 0.0
C1142 C 0.7305 0.77608 0.64289 0.0
C1143 C 0.75704 0.80019 0.64213 0.0
C1144 C 0.64963 0.27514 0.80176 0.0
C1145 C 0.63926 0.24204 0.79476 0.0
C1146 C 0.65006 0.29989 0.77671 0.0
C1147 C 0.64014 0.29266 0.74351 0.0
H1148 H 0.65789 0.28207 0.82676 0.0
H1149 H 0.6586 0.32483 0.78349 0.0
S1150 S 0.61079 0.20983 0.71181 0.0
N1151 N 0.61869 0.20338 0.75199 0.0
N1152 N 0.61949 0.24977 0.70502 0.0
C1153 C 0.62941 0.25971 0.73617 0.0
C1154 C 0.62897 0.23448 0.76172 0.0
C1155 C 0.39477 0.75516 0.79649 0.0
C1156 C 0.39163 0.78969 0.78968 0.0
C1157 C 0.3953 0.73142 0.77041 0.0
C1158 C 0.3919 0.74118 0.73653 0.0
H1159 H 0.39692 0.74637 0.82218 0.0
H1160 H 0.3976 0.70511 0.77699 0.0
S1161 S 0.38216 0.82862 0.70542 0.0
N1162 N 0.38501 0.83253 0.74662 0.0
N1163 N 0.38517 0.78798 0.69773 0.0
C1164 C 0.38865 0.77568 0.72942 0.0
C1165 C 0.38874 0.79988 0.75593 0.0
C1166 C 0.64465 0.77634 0.30245 0.0
C1167 C 0.63896 0.74234 0.2945 0.0
C1168 C 0.64417 0.8013 0.27759 0.0
C1169 C 0.63803 0.79342 0.24362 0.0
H1170 H 0.64966 0.78388 0.32813 0.0
H1171 H 0.64882 0.82701 0.28516 0.0
S1172 S 0.62311 0.70795 0.2091 0.0
N1173 N 0.62788 0.70198 0.24986 0.0
N1174 N 0.62689 0.74882 0.20325 0.0
C1175 C 0.63228 0.7595 0.23526 0.0
C1176 C 0.63279 0.73403 0.26061 0.0
C1177 C 0.3854 0.25441 0.3015 0.0
C1178 C 0.39073 0.28841 0.29336 0.0
C1179 C 0.38582 0.22942 0.27673 0.0
C1180 C 0.39157 0.23735 0.24274 0.0
H1181 H 0.38073 0.24691 0.32726 0.0
H1182 H 0.38139 0.20367 0.28437 0.0
S1183 S 0.40538 0.32284 0.20783 0.0
N1184 N 0.40106 0.32884 0.24864 0.0
N1185 N 0.40182 0.28194 0.20209 0.0
C1186 C 0.39694 0.27128 0.23419 0.0
C1187 C 0.39652 0.29676 0.25946 0.0
C1188 C 0.40895 0.26209 0.78873 0.0
C1189 C 0.38861 0.2333 0.78596 0.0
C1190 C 0.40908 0.28684 0.76359 0.0
C1191 C 0.38889 0.28377 0.73468 0.0
H1192 H 0.42501 0.26554 0.81043 0.0
H1193 H 0.42525 0.3085 0.76683 0.0
S1194 S 0.32871 0.21466 0.71675 0.0
N1195 N 0.34622 0.20415 0.75282 0.0
N1196 N 0.3465 0.25047 0.70578 0.0
C1197 C 0.36808 0.2553 0.73183 0.0
C1198 C 0.36792 0.23015 0.75739 0.0
C1199 C 0.64409 0.75374 0.80285 0.0
C1200 C 0.63956 0.78789 0.79482 0.0
C1201 C 0.64358 0.72885 0.7779 0.0
C1202 C 0.6386 0.737 0.7438 0.0
H1203 H 0.64817 0.74605 0.82865 0.0
H1204 H 0.64728 0.70298 0.7855 0.0
S1205 S 0.6274 0.82295 0.70911 0.0
N1206 N 0.63102 0.82867 0.75002 0.0
N1207 N 0.63014 0.78201 0.70324 0.0
C1208 C 0.63414 0.77109 0.73538 0.0
C1209 C 0.63462 0.79646 0.76081 0.0
C1210 C 0.6385 0.25643 0.2986 0.0
C1211 C 0.63879 0.29105 0.29149 0.0
C1212 C 0.63717 0.23253 0.27272 0.0
C1213 C 0.63697 0.24232 0.23873 0.0
H1214 H 0.63931 0.24766 0.32437 0.0
H1215 H 0.63728 0.20616 0.27944 0.0
S1216 S 0.63615 0.32983 0.20661 0.0
N1217 N 0.63747 0.33393 0.24787 0.0
N1218 N 0.63582 0.28902 0.19936 0.0
C1219 C 0.63678 0.27685 0.23127 0.0
C1220 C 0.63749 0.30119 0.2576 0.0
C1221 C 0.38427 0.80145 0.27626 0.0
C1222 C 0.39042 0.79328 0.24235 0.0
C1223 C 0.38434 0.77674 0.30138 0.0
C1224 C 0.39059 0.74277 0.29371 0.0
H1225 H 0.37917 0.82717 0.28356 0.0
H1226 H 0.3793 0.7844 0.32701 0.0
S1227 S 0.40644 0.70773 0.20857 0.0
N1228 N 0.40191 0.74845 0.20234 0.0
N1229 N 0.40207 0.70212 0.24942 0.0
C1230 C 0.39669 0.7342 0.25988 0.0
C1231 C 0.3966 0.75938 0.23429 0.0
C1232 C 0.13685 0.99872 0.35198 0.0
C1233 C 0.15938 0.9802 0.37195 0.0
C1234 C 0.13716 0.03392 0.35212 0.0
C1235 C 0.16001 0.05197 0.37223 0.0
H1236 H 0.1198 0.98603 0.33498 0.0
H1237 H 0.12028 0.04699 0.33524 0.0
S1238 S 0.21992 0.01537 0.43363 0.0
N1239 N 0.20214 0.98251 0.4156 0.0
N1240 N 0.20271 0.04866 0.41585 0.0
C1241 C 0.18112 0.03377 0.39396 0.0
C1242 C 0.1808 0.99792 0.39383 0.0
C1243 C 0.99754 0.1464 0.34376 0.0
C1244 C 0.9792 0.15745 0.37189 0.0
C1245 C 0.03266 0.1467 0.3436 0.0
C1246 C 0.05113 0.15807 0.37158 0.0
H1247 H 0.98475 0.13842 0.32109 0.0
H1248 H 0.04532 0.13886 0.32082 0.0
S1249 S 0.01538 0.1853 0.45341 0.0
N1250 N 0.98228 0.17692 0.42988 0.0
N1251 N 0.04838 0.17751 0.42953 0.0
C1252 C 0.03321 0.16739 0.40064 0.0
C1253 C 0.99729 0.16708 0.40082 0.0
C1254 C 0.89155 0.03321 0.35404 0.0
C1255 C 0.86853 0.05139 0.37386 0.0
C1256 C 0.8919 0.998 0.35409 0.0
C1257 C 0.86924 0.97953 0.37397 0.0
H1258 H 0.90867 0.04619 0.33733 0.0
H1259 H 0.90919 0.98525 0.33738 0.0
S1260 S 0.80781 1.01504 0.43461 0.0
N1261 N 0.82523 0.04824 0.41688 0.0
N1262 N 0.82589 0.9821 0.41705 0.0
C1263 C 0.84751 0.99739 0.39546 0.0
C1264 C 0.84714 0.03326 0.39538 0.0
C1265 C 0.99687 0.8834 0.34275 0.0
C1266 C 0.97866 0.87082 0.37034 0.0
C1267 C 0.03199 0.88353 0.34254 0.0
C1268 C 0.05068 0.87107 0.36989 0.0
H1269 H 0.98397 0.89248 0.32057 0.0
H1270 H 0.04451 0.89271 0.32017 0.0
S1271 S 0.01532 0.83907 0.45019 0.0
N1272 N 0.98208 0.84829 0.42717 0.0
N1273 N 0.0482 0.84849 0.42673 0.0
C1274 C 0.03288 0.85994 0.39842 0.0
C1275 C 0.99693 0.85983 0.39865 0.0
C1276 C 0.14351 0.03141 0.6824 0.0
C1277 C 0.16318 0.04975 0.65935 0.0
C1278 C 0.14293 0.99618 0.68214 0.0
C1279 C 0.16233 0.97769 0.65908 0.0
H1280 H 0.12883 0.04434 0.70133 0.0
H1281 H 0.12811 0.98337 0.70103 0.0
S1282 S 0.21549 1.01319 0.59114 0.0
N1283 N 0.20051 0.04642 0.61094 0.0
N1284 N 0.19973 0.98026 0.61085 0.0
C1285 C 0.18106 0.99559 0.635 0.0
C1286 C 0.18137 0.03154 0.63499 0.0
C1287 C 0.99801 0.18038 0.64134 0.0
C1288 C 0.97957 0.15757 0.66105 0.0
C1289 C 0.03323 0.18002 0.64122 0.0
C1290 C 0.05149 0.15656 0.66047 0.0
H1291 H 0.98523 0.19962 0.62694 0.0
H1292 H 0.04623 0.19888 0.62651 0.0
S1293 S 1.0148 0.08869 0.71309 0.0
N1294 N 0.98195 0.10902 0.69802 0.0
N1295 N 0.04807 0.10797 0.69757 0.0
C1296 C 0.03325 0.13234 0.67878 0.0
C1297 C 0.99736 0.13298 0.67917 0.0
C1298 C 0.89367 0.03164 0.68204 0.0
C1299 C 0.87204 0.05004 0.6609 0.0
C1300 C 0.89379 0.99634 0.68181 0.0
C1301 C 0.8723 0.97813 0.6604 0.0
H1302 H 0.90964 0.0445 0.69994 0.0
H1303 H 0.90978 0.98333 0.69957 0.0
S1304 S 0.81533 1.01438 0.59597 0.0
N1305 N 0.83173 0.04735 0.61504 0.0
N1306 N 0.832 0.98124 0.61452 0.0
C1307 C 0.85221 0.99626 0.63761 0.0
C1308 C 0.85206 0.03212 0.63788 0.0
C1309 C 0.99763 0.88139 0.68656 0.0
C1310 C 0.97901 0.86898 0.65915 0.0
C1311 C 0.03275 0.88213 0.68604 0.0
C1312 C 0.05105 0.87049 0.65808 0.0
H1313 H 0.98508 0.88985 0.70919 0.0
H1314 H 0.0456 0.89107 0.70831 0.0
S1315 S 1.01444 0.83941 0.57794 0.0
N1316 N 0.98156 0.84761 0.60184 0.0
N1317 N 0.04767 0.84898 0.60086 0.0
C1318 C 0.0328 0.85965 0.6297 0.0
C1319 C 0.99684 0.85889 0.63024 0.0
C1320 C 0.38166 0.18874 0.03325 0.0
C1321 C 0.37092 0.16054 0.05176 0.0
C1322 C 0.38204 0.18854 0.99808 0.0
C1323 C 0.37171 0.16013 0.97973 0.0
H1324 H 0.38899 0.21168 0.04592 0.0
H1325 H 0.38958 0.21134 0.98526 0.0
S1326 S 0.34556 0.07811 0.016 0.0
N1327 N 0.35273 0.1022 0.04901 0.0
N1328 N 0.3535 0.10177 0.98287 0.0
C1329 C 0.36263 0.13107 0.99787 0.0
C1330 C 0.36221 0.13129 0.03382 0.0
C1331 C 0.84506 0.38306 0.99936 0.0
C1332 C 0.87217 0.36989 0.98088 0.0
C1333 C 0.84523 0.38331 0.03451 0.0
C1334 C 0.87252 0.37039 0.05295 0.0
H1335 H 0.82292 0.39251 0.98668 0.0
H1336 H 0.82319 0.39292 0.04726 0.0
S1337 S 0.95176 0.3368 0.01682 0.0
N1338 N 0.92859 0.34636 0.98376 0.0
N1339 N 0.92887 0.34681 0.04993 0.0
C1340 C 0.90067 0.35879 0.03487 0.0
C1341 C 0.9005 0.35855 0.99888 0.0
C1342 C 0.6418 0.84791 0.99931 0.0
C1343 C 0.66115 0.8709 0.98071 0.0
C1344 C 0.64256 0.84773 0.03457 0.0
C1345 C 0.6624 0.8708 0.05271 0.0
H1346 H 0.62695 0.82897 0.98658 0.0
H1347 H 0.62794 0.82887 0.04765 0.0
S1348 S 0.7146 0.93883 0.01571 0.0
N1349 N 0.69856 0.91911 0.98293 0.0
N1350 N 0.6998 0.91913 0.04908 0.0
C1351 C 0.68048 0.89511 0.03436 0.0
C1352 C 0.67995 0.89503 0.99844 0.0
C1353 C 0.13815 0.68112 0.03219 0.0
C1354 C 0.15713 0.65776 0.05068 0.0
C1355 C 0.13857 0.68108 0.99695 0.0
C1356 C 0.15769 0.65744 0.9788 0.0
H1357 H 0.12406 0.7006 0.04497 0.0
H1358 H 0.12449 0.70036 0.98389 0.0
S1359 S 0.20799 0.58793 0.01569 0.0
N1360 N 0.19291 0.60836 0.04849 0.0
N1361 N 0.19349 0.60788 0.98234 0.0
C1362 C 0.17507 0.63258 0.99708 0.0
C1363 C 0.17489 0.63288 0.03298 0.0
C1364 C 0.34831 0.8875 0.99633 0.0
C1365 C 0.37139 0.86743 0.97845 0.0
C1366 C 0.34822 0.88846 0.03158 0.0
C1367 C 0.37094 0.86907 0.05045 0.0
H1368 H 0.32961 0.90213 0.98303 0.0
H1369 H 0.32927 0.90347 0.04409 0.0
S1370 S 0.43882 0.81507 0.01622 0.0
N1371 N 0.41947 0.82982 0.98262 0.0
N1372 N 0.41895 0.83138 0.04877 0.0
C1373 C 0.39511 0.85007 0.03299 0.0
C1374 C 0.39547 0.84935 0.99707 0.0
C1375 C 0.13729 0.35093 0.03295 0.0
C1376 C 0.15939 0.37163 0.05127 0.0
C1377 C 0.13746 0.35071 0.99761 0.0
C1378 C 0.15975 0.37118 0.9792 0.0
H1379 H 0.12065 0.33374 0.04592 0.0
H1380 H 0.12093 0.33336 0.98471 0.0
S1381 S 0.21864 0.43402 1.0151 0.0
N1382 N 0.20128 0.41605 0.0482 0.0
N1383 N 0.20162 0.4156 0.98207 0.0
C1384 C 0.18047 0.39347 0.99723 0.0
C1385 C 0.18028 0.39371 0.03313 0.0
C1386 C 0.68919 0.14959 0.0346 0.0
C1387 C 0.66097 0.16019 0.05307 0.0
C1388 C 0.68906 0.14944 0.99943 0.0
C1389 C 0.66071 0.1599 0.98101 0.0
H1390 H 0.71208 0.14218 0.04731 0.0
H1391 H 0.71188 0.1419 0.98667 0.0
S1392 S 0.57874 0.18608 0.01714 0.0
N1393 N 0.60267 0.17858 0.05018 0.0
N1394 N 0.60249 0.17834 0.98404 0.0
C1395 C 0.63168 0.169 0.99909 0.0
C1396 C 0.63179 0.16913 0.03505 0.0
C1397 C 0.88918 0.68187 0.99857 0.0
C1398 C 0.87053 0.65794 0.98028 0.0
C1399 C 0.88953 0.6818 0.03383 0.0
C1400 C 0.87095 0.65805 0.05225 0.0
H1401 H 0.903 0.7014 0.98561 0.0
H1402 H 0.90333 0.70144 0.04669 0.0
S1403 S 0.82128 0.58751 0.01691 0.0
N1404 N 0.83551 0.6078 0.98366 0.0
N1405 N 0.83594 0.6081 0.0498 0.0
C1406 C 0.85356 0.63299 0.03441 0.0
C1407 C 0.85346 0.63279 0.9985 0.0
C1408 C 0.03368 0.39284 0.18357 0.0
C1409 C 0.05183 0.37172 0.16169 0.0
C1410 C 0.99838 0.39263 0.18409 0.0
C1411 C 0.97988 0.37131 0.16275 0.0
H1412 H 0.04679 0.40867 0.20142 0.0
H1413 H 0.9856 0.40831 0.2023 0.0
S1414 S 0.01527 0.31556 0.09675 0.0
N1415 N 0.04848 0.33202 0.11534 0.0
N1416 N 0.98241 0.33165 0.11625 0.0
C1417 C 0.99772 0.35169 0.13931 0.0
C1418 C 0.03358 0.35188 0.1388 0.0
C1419 C 0.0322 0.64857 0.84121 0.0
C1420 C 0.05078 0.6591 0.8694 0.0
C1421 C 0.99707 0.64838 0.84151 0.0
C1422 C 0.97882 0.65874 0.87001 0.0
H1423 H 0.0448 0.64128 0.81821 0.0
H1424 H 0.9842 0.64096 0.8187 0.0
S1425 S 0.01531 0.68447 0.95202 0.0
N1426 N 0.04821 0.67714 0.92787 0.0
N1427 N 0.98211 0.67682 0.92838 0.0
C1428 C 0.99702 0.66766 0.89904 0.0
C1429 C 0.03294 0.66784 0.89875 0.0
C1430 C 0.39014 0.99626 0.85009 0.0
C1431 C 0.36999 0.97792 0.87269 0.0
C1432 C 0.39054 0.03146 0.85034 0.0
C1433 C 0.37049 0.0498 0.87294 0.0
H1434 H 0.40521 0.98337 0.83144 0.0
H1435 H 0.40563 0.04432 0.8317 0.0
S1436 S 0.31624 1.01419 0.9399 0.0
N1437 N 0.33175 0.98102 0.92041 0.0
N1438 N 0.33227 0.04717 0.92051 0.0
C1439 C 0.35149 0.03189 0.89676 0.0
C1440 C 0.35134 0.99599 0.89678 0.0
C1441 C 0.03345 0.34416 0.8843 0.0
C1442 C 0.0518 0.37091 0.87019 0.0
C1443 C 0.99834 0.34423 0.88468 0.0
C1444 C 0.97979 0.37104 0.87094 0.0
H1445 H 0.04622 0.32238 0.89444 0.0
H1446 H 0.9857 0.32248 0.89509 0.0
S1447 S 0.01555 0.44927 0.83462 0.0
N1448 N 0.04868 0.42652 0.84481 0.0
N1449 N 0.98256 0.42662 0.8455 0.0
C1450 C 0.99773 0.39886 0.85835 0.0
C1451 C 0.03369 0.3988 0.85797 0.0
C1452 C 0.68 0.99737 0.89455 0.0
C1453 C 0.65956 0.979 0.87226 0.0
C1454 C 0.67982 0.03264 0.89463 0.0
C1455 C 0.65918 0.0509 0.87243 0.0
H1456 H 0.69731 0.98451 0.91115 0.0
H1457 H 0.69702 0.04561 0.91127 0.0
S1458 S 0.59673 1.01474 0.81327 0.0
N1459 N 0.61511 0.98175 0.83037 0.0
N1460 N 0.61477 0.04786 0.83053 0.0
C1461 C 0.63708 0.03281 0.85156 0.0
C1462 C 0.63728 0.99694 0.85147 0.0
C1463 C 0.99668 0.68871 0.15116 0.0
C1464 C 0.97826 0.66108 0.16337 0.0
C1465 C 0.03188 0.68866 0.15083 0.0
C1466 C 0.05049 0.66099 0.16272 0.0
H1467 H 0.98389 0.71106 0.14238 0.0
H1468 H 0.04452 0.71101 0.14182 0.0
S1469 S 1.01461 0.58076 0.19433 0.0
N1470 N 0.98149 0.60409 0.18549 0.0
N1471 N 0.04761 0.60405 0.18491 0.0
C1472 C 0.03246 0.63257 0.1738 0.0
C1473 C 0.99646 0.6326 0.17412 0.0
C1474 C 0.34333 0.99774 0.14715 0.0
C1475 C 0.37094 0.97916 0.15917 0.0
C1476 C 0.34329 0.03289 0.14756 0.0
C1477 C 0.37085 0.05124 0.16 0.0
H1478 H 0.32097 0.9851 0.13816 0.0
H1479 H 0.32092 0.04568 0.13882 0.0
S1480 S 0.45128 1.01494 0.19052 0.0
N1481 N 0.42799 0.98195 0.18108 0.0
N1482 N 0.42792 0.04808 0.18184 0.0
C1483 C 0.39942 0.0331 0.17048 0.0
C1484 C 0.39945 0.99713 0.17007 0.0
C1485 C 0.68424 0.9978 0.14378 0.0
C1486 C 0.65975 0.9796 0.16177 0.0
C1487 C 0.68446 0.03307 0.14355 0.0
C1488 C 0.66044 0.05163 0.16166 0.0
H1489 H 0.70394 0.98474 0.13028 0.0
H1490 H 0.70442 0.04584 0.13015 0.0
S1491 S 0.58875 0.01663 0.2099 0.0
N1492 N 0.60904 0.98328 0.19591 0.0
N1493 N 0.60986 0.0494 0.19576 0.0
C1494 C 0.63497 0.0339 0.17855 0.0
C1495 C 0.63448 0.99798 0.1785 0.0
C1496 C 0.18287 0.53275 0.88822 0.0
C1497 C 0.1597 0.55066 0.86828 0.0
C1498 C 0.1831 0.49749 0.88897 0.0
C1499 C 0.16043 0.47866 0.86947 0.0
H1500 H 0.20154 0.54602 0.90293 0.0
H1501 H 0.20209 0.48497 0.90391 0.0
S1502 S 0.09231 0.51295 0.81579 0.0
N1503 N 0.11156 0.54651 0.83071 0.0
N1504 N 0.11234 0.4804 0.83186 0.0
C1505 C 0.13617 0.49614 0.8506 0.0
C1506 C 0.13568 0.53205 0.8501 0.0
C1507 C 0.8891 0.53173 0.8489 0.0
C1508 C 0.86974 0.55043 0.8718 0.0
C1509 C 0.88864 0.49648 0.84917 0.0
C1510 C 0.86913 0.47843 0.87259 0.0
H1511 H 0.9037 0.54435 0.8297 0.0
H1512 H 0.9032 0.48331 0.83031 0.0
S1513 S 0.81723 0.51579 0.94067 0.0
N1514 N 0.8328 0.54846 0.9204 0.0
N1515 N 0.83215 0.48232 0.92123 0.0
C1516 C 0.85111 0.49691 0.89685 0.0
C1517 C 0.85133 0.53283 0.89633 0.0
C1518 C 0.17842 0.49809 0.13705 0.0
C1519 C 0.15888 0.4797 0.16009 0.0
C1520 C 0.17822 0.53334 0.13705 0.0
C1521 C 0.15849 0.55158 0.16011 0.0
H1522 H 0.19507 0.48527 0.11975 0.0
H1523 H 0.19472 0.54631 0.11971 0.0
S1524 S 0.09836 0.51538 0.22154 0.0
N1525 N 0.11605 0.4824 0.20367 0.0
N1526 N 0.11575 0.54852 0.20368 0.0
C1527 C 0.13722 0.53349 0.18179 0.0
C1528 C 0.1374 0.49762 0.18177 0.0
C1529 C 0.85242 0.49672 0.13877 0.0
C1530 C 0.87207 0.47851 0.16189 0.0
C1531 C 0.85241 0.53199 0.13858 0.0
C1532 C 0.87204 0.55048 0.16153 0.0
H1533 H 0.83585 0.48372 0.12153 0.0
H1534 H 0.83582 0.54476 0.1212 0.0
S1535 S 0.93231 0.51491 0.22321 0.0
N1536 N 0.91482 0.48173 0.2055 0.0
N1537 N 0.91475 0.54786 0.20516 0.0
C1538 C 0.89338 0.53259 0.18332 0.0
C1539 C 0.89341 0.4967 0.1835 0.0
C1540 C 0.39147 0.67769 0.53317 0.0
C1541 C 0.3688 0.65737 0.55126 0.0
C1542 C 0.39154 0.67818 0.49791 0.0
C1543 C 0.36893 0.65838 0.47927 0.0
H1544 H 0.40854 0.69436 0.54628 0.0
H1545 H 0.40861 0.6952 0.48526 0.0
S1546 S 0.30832 0.59668 0.51432 0.0
N1547 N 0.32584 0.61403 0.54768 0.0
N1548 N 0.32598 0.61493 0.48153 0.0
C1549 C 0.34752 0.63647 0.49699 0.0
C1550 C 0.34745 0.63597 0.53289 0.0
C1551 C 0.85116 0.89285 0.49808 0.0
C1552 C 0.87163 0.87046 0.47981 0.0
C1553 C 0.85117 0.89301 0.53333 0.0
C1554 C 0.87164 0.87078 0.55167 0.0
H1555 H 0.83393 0.90947 0.48514 0.0
H1556 H 0.83392 0.90966 0.54621 0.0
S1557 S 0.93433 0.81164 0.51592 0.0
N1558 N 0.91607 0.82863 0.48278 0.0
N1559 N 0.91612 0.82893 0.54894 0.0
C1560 C 0.89386 0.84989 0.53373 0.0
C1561 C 0.89384 0.84972 0.49786 0.0
C1562 C 0.68318 0.38914 0.53338 0.0
C1563 C 0.66034 0.36969 0.55203 0.0
C1564 C 0.68312 0.38849 0.49815 0.0
C1565 C 0.65997 0.36867 0.48009 0.0
H1566 H 0.7022 0.40393 0.54605 0.0
H1567 H 0.70193 0.40313 0.48502 0.0
S1568 S 0.59208 0.31648 0.51735 0.0
N1569 N 0.61206 0.33237 0.55005 0.0
N1570 N 0.61158 0.33136 0.48389 0.0
C1571 C 0.63574 0.35057 0.49851 0.0
C1572 C 0.63606 0.35099 0.53443 0.0
C1573 C 0.14236 0.18366 0.53332 0.0
C1574 C 0.16097 0.16003 0.55186 0.0
C1575 C 0.14293 0.18377 0.49804 0.0
C1576 C 0.16182 0.16 0.47978 0.0
H1577 H 0.12827 0.20312 0.54611 0.0
H1578 H 0.12895 0.20316 0.48505 0.0
S1579 S 0.21141 0.08993 0.51666 0.0
N1580 N 0.19644 0.11039 0.54949 0.0
N1581 N 0.19724 0.11018 0.48333 0.0
C1582 C 0.17907 0.13504 0.4981 0.0
C1583 C 0.17875 0.1352 0.53405 0.0
C1584 C 0.39453 0.35076 0.53235 0.0
C1585 C 0.373 0.37176 0.55092 0.0
C1586 C 0.39386 0.35062 0.4971 0.0
C1587 C 0.37163 0.37149 0.47912 0.0
H1588 H 0.41096 0.33316 0.54505 0.0
H1589 H 0.40988 0.33299 0.48397 0.0
S1590 S 0.31466 0.43555 0.51585 0.0
N1591 N 0.33206 0.4171 0.54867 0.0
N1592 N 0.3308 0.41684 0.48253 0.0
C1593 C 0.35166 0.39423 0.49738 0.0
C1594 C 0.35235 0.39438 0.53322 0.0
C1595 C 0.14877 0.8426 0.49562 0.0
C1596 C 0.16129 0.87023 0.4774 0.0
C1597 C 0.1489 0.84222 0.5308 0.0
C1598 C 0.16158 0.86943 0.54953 0.0
H1599 H 0.13947 0.82053 0.48268 0.0
H1600 H 0.13969 0.81987 0.54331 0.0
S1601 S 0.19369 0.94973 0.51423 0.0
N1602 N 0.18412 0.92691 0.48094 0.0
N1603 N 0.18439 0.92617 0.54708 0.0
C1604 C 0.17271 0.89798 0.53173 0.0
C1605 C 0.17256 0.89838 0.49575 0.0
C1606 C 0.6408 0.68273 0.49946 0.0
C1607 C 0.6598 0.65957 0.48074 0.0
C1608 C 0.64156 0.68268 0.53471 0.0
C1609 C 0.66103 0.6592 0.55274 0.0
H1610 H 0.62628 0.70198 0.48683 0.0
H1611 H 0.62729 0.70174 0.5479 0.0
S1612 S 0.71207 0.59054 0.51534 0.0
N1613 N 0.69638 0.61072 0.48268 0.0
N1614 N 0.69759 0.61027 0.54883 0.0
C1615 C 0.67868 0.63469 0.53426 0.0
C1616 C 0.67816 0.635 0.49833 0.0
C1617 C 0.88291 0.18755 0.53504 0.0
C1618 C 0.87115 0.15955 0.55323 0.0
C1619 C 0.88302 0.18785 0.49988 0.0
C1620 C 0.87138 0.16017 0.48122 0.0
H1621 H 0.89129 0.20998 0.54797 0.0
H1622 H 0.89144 0.21048 0.48733 0.0
S1623 S 0.84201 0.0788 0.51652 0.0
N1624 N 0.85046 0.10207 0.5498 0.0
N1625 N 0.85071 0.10258 0.48367 0.0
C1626 C 0.86122 0.13124 0.49901 0.0
C1627 C 0.86109 0.13094 0.53496 0.0
C1628 C 0.38307 0.5333 0.3431 0.0
C1629 C 0.37083 0.55169 0.37074 0.0
C1630 C 0.38358 0.49818 0.34329 0.0
C1631 C 0.37186 0.47976 0.37111 0.0
H1632 H 0.39147 0.54602 0.32056 0.0
H1633 H 0.39232 0.48546 0.32087 0.0
S1634 S 0.34157 0.51574 0.45183 0.0
N1635 N 0.34983 0.5488 0.42818 0.0
N1636 N 0.35078 0.48269 0.42853 0.0
C1637 C 0.36134 0.49777 0.39976 0.0
C1638 C 0.36082 0.5337 0.39956 0.0
C1639 C 0.67908 0.53326 0.39546 0.0
C1640 C 0.65819 0.55151 0.37347 0.0
C1641 C 0.67898 0.498 0.39563 0.0
C1642 C 0.65798 0.47969 0.37384 0.0
H1643 H 0.69673 0.54621 0.41164 0.0
H1644 H 0.69659 0.48509 0.41188 0.0
S1645 S 0.59415 0.51549 0.31598 0.0
N1646 N 0.61283 0.54858 0.3326 0.0
N1647 N 0.61263 0.48247 0.33294 0.0
C1648 C 0.63535 0.49765 0.35346 0.0
C1649 C 0.63545 0.53349 0.35326 0.0
C1650 C 0.35271 0.53075 0.63829 0.0
C1651 C 0.3722 0.54909 0.66147 0.0
C1652 C 0.35274 0.49549 0.63821 0.0
C1653 C 0.37225 0.47709 0.66131 0.0
H1654 H 0.3363 0.54364 0.62081 0.0
H1655 H 0.33636 0.48264 0.62067 0.0
S1656 S 0.4319 0.51302 0.72346 0.0
N1657 N 0.41453 0.54611 0.70548 0.0
N1658 N 0.41456 0.47998 0.70537 0.0
C1659 C 0.39335 0.49511 0.68328 0.0
C1660 C 0.39333 0.53102 0.68334 0.0
C1661 C 0.68597 0.4974 0.64746 0.0
C1662 C 0.65903 0.47868 0.66068 0.0
C1663 C 0.68574 0.53254 0.6477 0.0
C1664 C 0.65857 0.55073 0.66118 0.0
H1665 H 0.70804 0.4849 0.6376 0.0
H1666 H 0.70763 0.54546 0.63798 0.0
S1667 S 0.57981 0.51395 0.69525 0.0
N1668 N 0.60291 0.4811 0.68492 0.0
N1669 N 0.60252 0.54723 0.68544 0.0
C1670 C 0.63059 0.53243 0.67287 0.0
C1671 C 0.63082 0.49646 0.67261 0.0
C1672 C 0.49788 0.14088 0.84705 0.0
C1673 C 0.47937 0.1595 0.87081 0.0
C1674 C 0.53312 0.1405 0.8475 0.0
C1675 C 0.55133 0.15907 0.87146 0.0
H1676 H 0.4851 0.12699 0.82744 0.0
H1677 H 0.54616 0.12659 0.82807 0.0
S1678 S 0.51541 0.20913 0.94141 0.0
N1679 N 0.48236 0.19479 0.92086 0.0
N1680 N 0.54844 0.19437 0.92116 0.0
C1681 C 0.53328 0.17665 0.8962 0.0
C1682 C 0.49739 0.17676 0.89604 0.0
C1683 C 0.53319 0.84278 0.8836 0.0
C1684 C 0.55169 0.87048 0.87171 0.0
C1685 C 0.49806 0.8426 0.883 0.0
C1686 C 0.47968 0.87011 0.87049 0.0
H1687 H 0.54587 0.82046 0.89263 0.0
H1688 H 0.48532 0.82016 0.89166 0.0
S1689 S 0.5158 0.95074 0.84023 0.0
N1690 N 0.54881 0.92757 0.84985 0.0
N1691 N 0.48271 0.92723 0.84871 0.0
C1692 C 0.49774 0.89877 0.86015 0.0
C1693 C 0.53369 0.89896 0.86076 0.0
C1694 C 0.49735 0.13975 0.18188 0.0
C1695 C 0.47935 0.15982 0.15893 0.0
C1696 C 0.53256 0.13916 0.18198 0.0
C1697 C 0.55119 0.15895 0.15939 0.0
H1698 H 0.48419 0.12496 0.20056 0.0
H1699 H 0.54521 0.12423 0.20091 0.0
S1700 S 0.51655 0.21271 0.09152 0.0
N1701 N 0.48313 0.19754 0.11082 0.0
N1702 N 0.54921 0.19669 0.1114 0.0
C1703 C 0.53361 0.17776 0.13518 0.0
C1704 C 0.49775 0.17809 0.1348 0.0
C1705 C 0.53227 0.88453 0.18559 0.0
C1706 C 0.55093 0.87056 0.15897 0.0
C1707 C 0.49715 0.88422 0.18548 0.0
C1708 C 0.47893 0.86991 0.15875 0.0
H1709 H 0.54482 0.89506 0.20733 0.0
H1710 H 0.48428 0.89453 0.20714 0.0
S1711 S 0.5155 0.83382 0.08075 0.0
N1712 N 0.5484 0.84479 0.1035 0.0
N1713 N 0.48228 0.8442 0.10329 0.0
C1714 C 0.49715 0.85752 0.13101 0.0
C1715 C 0.53311 0.85785 0.13112 0.0
C1716 C 0.49858 0.38713 0.68405 0.0
C1717 C 0.48004 0.36848 0.66044 0.0
C1718 C 0.53382 0.38678 0.68391 0.0
C1719 C 0.55203 0.36807 0.65994 0.0
H1720 H 0.48583 0.40105 0.70366 0.0
H1721 H 0.54684 0.40074 0.70331 0.0
S1722 S 0.51513 0.31856 0.58986 0.0
N1723 N 0.48234 0.33329 0.61054 0.0
N1724 N 0.54845 0.33285 0.60998 0.0
C1725 C 0.53371 0.35087 0.63498 0.0
C1726 C 0.4978 0.35097 0.63535 0.0
C1727 C 0.49715 0.63744 0.3526 0.0
C1728 C 0.47872 0.66031 0.37237 0.0
C1729 C 0.53244 0.63743 0.35276 0.0
C1730 C 0.55072 0.6603 0.37267 0.0
H1731 H 0.48432 0.62024 0.33586 0.0
H1732 H 0.5454 0.62021 0.33614 0.0
S1733 S 0.51449 0.72159 0.43302 0.0
N1734 N 0.48152 0.70375 0.41531 0.0
N1735 N 0.5476 0.70375 0.41557 0.0
C1736 C 0.53258 0.68189 0.39403 0.0
C1737 C 0.4967 0.68189 0.39389 0.0
C1738 C 0.53295 0.3413 0.38168 0.0
C1739 C 0.55135 0.36982 0.37166 0.0
C1740 C 0.49777 0.34116 0.38151 0.0
C1741 C 0.47927 0.36954 0.37132 0.0
H1742 H 0.54574 0.31838 0.38887 0.0
H1743 H 0.48507 0.31815 0.38857 0.0
S1744 S 0.51514 0.45219 0.34667 0.0
N1745 N 0.54824 0.42835 0.3541 0.0
N1746 N 0.48214 0.42811 0.35379 0.0
C1747 C 0.49727 0.39886 0.36283 0.0
C1748 C 0.53322 0.399 0.363 0.0
C1749 C 0.49728 0.68309 0.6406 0.0
C1750 C 0.47918 0.65849 0.65853 0.0
C1751 C 0.53251 0.68345 0.64052 0.0
C1752 C 0.551 0.65948 0.65873 0.0
H1753 H 0.48418 0.70282 0.62719 0.0
H1754 H 0.54527 0.70356 0.62733 0.0
S1755 S 0.51625 0.58738 0.70651 0.0
N1756 N 0.4829 0.60753 0.69238 0.0
N1757 N 0.54894 0.60876 0.69262 0.0
C1758 C 0.53338 0.63381 0.67538 0.0
C1759 C 0.49755 0.63314 0.67514 0.0
loop_
_geom_bond_atom_site_label_1
_geom_bond_atom_site_label_2
_geom_bond_distance
_geom_bond_site_symmetry_2
_ccdc_geom_bond_type
Fe0 O2 1.918 . S
Fe0 O5 1.997 . S
Fe0 O6 2.002 . S
Fe0 O11 1.976 . S
Fe0 O14 1.996 . S
Fe1 O2 1.918 . S
Fe1 O9 1.997 . S
Fe1 O12 1.996 . S
Fe1 O16 1.976 . S
Fe1 O19 2.002 . S
O2 Fe0 1.918 . S
O2 Fe1 1.918 . S
O2 Fe3 1.918 . S
Fe3 O2 1.918 . S
Fe3 O4 2.002 . S
Fe3 O13 1.976 . S
Fe3 O17 1.996 . S
Fe3 O20 1.997 . S
O4 Fe3 2.002 . S
O4 C21 1.295 . S
O5 Fe0 1.997 . S
O5 C21 1.235 . S
O6 Fe0 2.002 . S
O6 C7 1.295 . S
C7 O6 1.295 . S
C7 O9 1.235 . S
C8 O13 1.287 . S
C8 O14 1.255 . S
O9 Fe1 1.997 . S
O9 C7 1.235 . S
C10 O16 1.287 . S
C10 O17 1.255 . S
O11 Fe0 1.976 . S
O11 C18 1.287 . S
O12 Fe1 1.996 . S
O12 C18 1.255 . S
O13 Fe3 1.976 . S
O13 C8 1.287 . S
O14 Fe0 1.996 . S
O14 C8 1.255 . S
C15 O19 1.295 . S
C15 O20 1.235 . S
O16 Fe1 1.976 . S
O16 C10 1.287 . S
O17 Fe3 1.996 . S
O17 C10 1.255 . S
C18 O11 1.287 . S
C18 O12 1.255 . S
O19 Fe1 2.002 . S
O19 C15 1.295 . S
O20 Fe3 1.997 . S
O20 C15 1.235 . S
C21 O4 1.295 . S
C21 O5 1.235 . S
Fe22 O24 1.918 . S
Fe22 O27 1.997 . S
Fe22 O28 2.002 . S
Fe22 O33 1.976 . S
Fe22 O36 1.996 . S
Fe23 O24 1.918 . S
Fe23 O31 1.997 . S
Fe23 O34 1.996 . S
Fe23 O38 1.976 . S
Fe23 O41 2.002 . S
O24 Fe22 1.918 . S
O24 Fe23 1.918 . S
O24 Fe25 1.918 . S
Fe25 O24 1.918 . S
Fe25 O26 2.002 . S
Fe25 O35 1.976 . S
Fe25 O39 1.996 . S
Fe25 O42 1.997 . S
O26 Fe25 2.002 . S
O26 C43 1.295 . S
O27 Fe22 1.997 . S
O27 C43 1.235 . S
O28 Fe22 2.002 . S
O28 C29 1.295 . S
C29 O28 1.295 . S
C29 O31 1.235 . S
C30 O35 1.287 . S
C30 O36 1.255 . S
O31 Fe23 1.997 . S
O31 C29 1.235 . S
C32 O38 1.287 . S
C32 O39 1.255 . S
O33 Fe22 1.976 . S
O33 C40 1.287 . S
O34 Fe23 1.996 . S
O34 C40 1.255 . S
O35 Fe25 1.976 . S
O35 C30 1.287 . S
O36 Fe22 1.996 . S
O36 C30 1.255 . S
C37 O41 1.295 . S
C37 O42 1.235 . S
O38 Fe23 1.976 . S
O38 C32 1.287 . S
O39 Fe25 1.996 . S
O39 C32 1.255 . S
C40 O33 1.287 . S
C40 O34 1.255 . S
O41 Fe23 2.002 . S
O41 C37 1.295 . S
O42 Fe25 1.997 . S
O42 C37 1.235 . S
C43 O26 1.295 . S
C43 O27 1.235 . S
Fe44 O46 1.918 . S
Fe44 O49 1.997 . S
Fe44 O50 2.002 . S
Fe44 O55 1.976 . S
Fe44 O58 1.996 . S
Fe45 O46 1.918 . S
Fe45 O53 1.997 . S
Fe45 O56 1.996 . S
Fe45 O60 1.976 . S
Fe45 O63 2.002 . S
O46 Fe44 1.918 . S
O46 Fe45 1.918 . S
O46 Fe47 1.918 . S
Fe47 O46 1.918 . S
Fe47 O48 2.002 . S
Fe47 O57 1.976 . S
Fe47 O61 1.996 . S
Fe47 O64 1.997 . S
O48 Fe47 2.002 . S
O48 C65 1.295 . S
O49 Fe44 1.997 . S
O49 C65 1.235 . S
O50 Fe44 2.002 . S
O50 C51 1.295 . S
C51 O50 1.295 . S
C51 O53 1.235 . S
C52 O57 1.287 . S
C52 O58 1.255 . S
O53 Fe45 1.997 . S
O53 C51 1.235 . S
C54 O60 1.287 . S
C54 O61 1.255 . S
O55 Fe44 1.976 . S
O55 C62 1.287 . S
O56 Fe45 1.996 . S
O56 C62 1.255 . S
O57 Fe47 1.976 . S
O57 C52 1.287 . S
O58 Fe44 1.996 . S
O58 C52 1.255 . S
C59 O63 1.295 . S
C59 O64 1.235 . S
O60 Fe45 1.976 . S
O60 C54 1.287 . S
O61 Fe47 1.996 . S
O61 C54 1.255 . S
C62 O55 1.287 . S
C62 O56 1.255 . S
O63 Fe45 2.002 . S
O63 C59 1.295 . S
O64 Fe47 1.997 . S
O64 C59 1.235 . S
C65 O48 1.295 . S
C65 O49 1.235 . S
Fe66 O68 1.918 . S
Fe66 O71 1.997 . S
Fe66 O72 2.002 . S
Fe66 O77 1.976 . S
Fe66 O80 1.996 . S
Fe67 O68 1.918 . S
Fe67 O75 1.997 . S
Fe67 O78 1.996 . S
Fe67 O82 1.976 . S
Fe67 O85 2.002 . S
O68 Fe66 1.918 . S
O68 Fe67 1.918 . S
O68 Fe69 1.918 . S
Fe69 O68 1.918 . S
Fe69 O70 2.002 . S
Fe69 O79 1.976 . S
Fe69 O83 1.996 . S
Fe69 O86 1.997 . S
O70 Fe69 2.002 . S
O70 C87 1.295 . S
O71 Fe66 1.997 . S
O71 C87 1.235 . S
O72 Fe66 2.002 . S
O72 C73 1.295 . S
C73 O72 1.295 . S
C73 O75 1.235 . S
C74 O79 1.287 . S
C74 O80 1.255 . S
O75 Fe67 1.997 . S
O75 C73 1.235 . S
C76 O82 1.287 . S
C76 O83 1.255 . S
O77 Fe66 1.976 . S
O77 C84 1.287 . S
O78 Fe67 1.996 . S
O78 C84 1.255 . S
O79 Fe69 1.976 . S
O79 C74 1.287 . S
O80 Fe66 1.996 . S
O80 C74 1.255 . S
C81 O85 1.295 . S
C81 O86 1.235 . S
O82 Fe67 1.976 . S
O82 C76 1.287 . S
O83 Fe69 1.996 . S
O83 C76 1.255 . S
C84 O77 1.287 . S
C84 O78 1.255 . S
O85 Fe67 2.002 . S
O85 C81 1.295 . S
O86 Fe69 1.997 . S
O86 C81 1.235 . S
C87 O70 1.295 . S
C87 O71 1.235 . S
Fe88 O90 1.918 . S
Fe88 O93 1.997 . S
Fe88 O94 2.002 . S
Fe88 O99 1.976 . S
Fe88 O102 1.996 . S
Fe89 O90 1.918 . S
Fe89 O97 1.997 . S
Fe89 O100 1.996 . S
Fe89 O104 1.976 . S
Fe89 O107 2.002 . S
O90 Fe88 1.918 . S
O90 Fe89 1.918 . S
O90 Fe91 1.918 . S
Fe91 O90 1.918 . S
Fe91 O92 2.002 . S
Fe91 O101 1.976 . S
Fe91 O105 1.996 . S
Fe91 O108 1.997 . S
O92 Fe91 2.002 . S
O92 C109 1.295 . S
O93 Fe88 1.997 . S
O93 C109 1.235 . S
O94 Fe88 2.002 . S
O94 C95 1.295 . S
C95 O94 1.295 . S
C95 O97 1.235 . S
C96 O101 1.287 . S
C96 O102 1.255 . S
O97 Fe89 1.997 . S
O97 C95 1.235 . S
C98 O104 1.287 . S
C98 O105 1.255 . S
O99 Fe88 1.976 . S
O99 C106 1.287 . S
O100 Fe89 1.996 . S
O100 C106 1.255 . S
O101 Fe91 1.976 . S
O101 C96 1.287 . S
O102 Fe88 1.996 . S
O102 C96 1.255 . S
C103 O107 1.295 . S
C103 O108 1.235 . S
O104 Fe89 1.976 . S
O104 C98 1.287 . S
O105 Fe91 1.996 . S
O105 C98 1.255 . S
C106 O99 1.287 . S
C106 O100 1.255 . S
O107 Fe89 2.002 . S
O107 C103 1.295 . S
O108 Fe91 1.997 . S
O108 C103 1.235 . S
C109 O92 1.295 . S
C109 O93 1.235 . S
Fe110 O112 1.918 . S
Fe110 O115 1.997 . S
Fe110 O116 2.002 . S
Fe110 O121 1.976 . S
Fe110 O124 1.996 . S
Fe111 O112 1.918 . S
Fe111 O119 1.997 . S
Fe111 O122 1.996 . S
Fe111 O126 1.976 . S
Fe111 O129 2.002 . S
O112 Fe110 1.918 . S
O112 Fe111 1.918 . S
O112 Fe113 1.918 . S
Fe113 O112 1.918 . S
Fe113 O114 2.002 . S
Fe113 O123 1.976 . S
Fe113 O127 1.996 . S
Fe113 O130 1.997 . S
O114 Fe113 2.002 . S
O114 C131 1.295 . S
O115 Fe110 1.997 . S
O115 C131 1.235 . S
O116 Fe110 2.002 . S
O116 C117 1.295 . S
C117 O116 1.295 . S
C117 O119 1.235 . S
C118 O123 1.287 . S
C118 O124 1.255 . S
O119 Fe111 1.997 . S
O119 C117 1.235 . S
C120 O126 1.287 . S
C120 O127 1.255 . S
O121 Fe110 1.976 . S
O121 C128 1.287 . S
O122 Fe111 1.996 . S
O122 C128 1.255 . S
O123 Fe113 1.976 . S
O123 C118 1.287 . S
O124 Fe110 1.996 . S
O124 C118 1.255 . S
C125 O129 1.295 . S
C125 O130 1.235 . S
O126 Fe111 1.976 . S
O126 C120 1.287 . S
O127 Fe113 1.996 . S
O127 C120 1.255 . S
C128 O121 1.287 . S
C128 O122 1.255 . S
O129 Fe111 2.002 . S
O129 C125 1.295 . S
O130 Fe113 1.997 . S
O130 C125 1.235 . S
C131 O114 1.295 . S
C131 O115 1.235 . S
Fe132 O134 1.918 . S
Fe132 O137 1.997 . S
Fe132 O138 2.002 . S
Fe132 O143 1.976 . S
Fe132 O146 1.996 . S
Fe133 O134 1.918 . S
Fe133 O141 1.997 . S
Fe133 O144 1.996 . S
Fe133 O148 1.976 . S
Fe133 O151 2.002 . S
O134 Fe132 1.918 . S
O134 Fe133 1.918 . S
O134 Fe135 1.918 . S
Fe135 O134 1.918 . S
Fe135 O136 2.002 . S
Fe135 O145 1.976 . S
Fe135 O149 1.996 . S
Fe135 O152 1.997 . S
O136 Fe135 2.002 . S
O136 C153 1.295 . S
O137 Fe132 1.997 . S
O137 C153 1.235 . S
O138 Fe132 2.002 . S
O138 C139 1.295 . S
C139 O138 1.295 . S
C139 O141 1.235 . S
C140 O145 1.287 . S
C140 O146 1.255 . S
O141 Fe133 1.997 . S
O141 C139 1.235 . S
C142 O148 1.287 . S
C142 O149 1.255 . S
O143 Fe132 1.976 . S
O143 C150 1.287 . S
O144 Fe133 1.996 . S
O144 C150 1.255 . S
O145 Fe135 1.976 . S
O145 C140 1.287 . S
O146 Fe132 1.996 . S
O146 C140 1.255 . S
C147 O151 1.295 . S
C147 O152 1.235 . S
O148 Fe133 1.976 . S
O148 C142 1.287 . S
O149 Fe135 1.996 . S
O149 C142 1.255 . S
C150 O143 1.287 . S
C150 O144 1.255 . S
O151 Fe133 2.002 . S
O151 C147 1.295 . S
O152 Fe135 1.997 . S
O152 C147 1.235 . S
C153 O136 1.295 . S
C153 O137 1.235 . S
Fe154 O156 1.918 . S
Fe154 O159 1.997 . S
Fe154 O160 2.002 . S
Fe154 O165 1.976 . S
Fe154 O168 1.996 . S
Fe155 O156 1.918 . S
Fe155 O163 1.997 . S
Fe155 O166 1.996 . S
Fe155 O170 1.976 . S
Fe155 O173 2.002 . S
O156 Fe154 1.918 . S
O156 Fe155 1.918 . S
O156 Fe157 1.918 . S
Fe157 O156 1.918 . S
Fe157 O158 2.002 . S
Fe157 O167 1.976 . S
Fe157 O171 1.996 . S
Fe157 O174 1.997 . S
O158 Fe157 2.002 . S
O158 C175 1.295 . S
O159 Fe154 1.997 . S
O159 C175 1.235 . S
O160 Fe154 2.002 . S
O160 C161 1.295 . S
C161 O160 1.295 . S
C161 O163 1.235 . S
C162 O167 1.287 . S
C162 O168 1.255 . S
O163 Fe155 1.997 . S
O163 C161 1.235 . S
C164 O170 1.287 . S
C164 O171 1.255 . S
O165 Fe154 1.976 . S
O165 C172 1.287 . S
O166 Fe155 1.996 . S
O166 C172 1.255 . S
O167 Fe157 1.976 . S
O167 C162 1.287 . S
O168 Fe154 1.996 . S
O168 C162 1.255 . S
C169 O173 1.295 . S
C169 O174 1.235 . S
O170 Fe155 1.976 . S
O170 C164 1.287 . S
O171 Fe157 1.996 . S
O171 C164 1.255 . S
C172 O165 1.287 . S
C172 O166 1.255 . S
O173 Fe155 2.002 . S
O173 C169 1.295 . S
O174 Fe157 1.997 . S
O174 C169 1.235 . S
C175 O158 1.295 . S
C175 O159 1.235 . S
Fe176 O178 1.918 . S
Fe176 O181 1.997 . S
Fe176 O182 2.002 . S
Fe176 O187 1.976 . S
Fe176 O190 1.996 . S
Fe177 O178 1.918 . S
Fe177 O185 1.997 . S
Fe177 O188 1.996 . S
Fe177 O192 1.976 . S
Fe177 O195 2.002 . S
O178 Fe176 1.918 . S
O178 Fe177 1.918 . S
O178 Fe179 1.918 . S
Fe179 O178 1.918 . S
Fe179 O180 2.002 . S
Fe179 O189 1.976 . S
Fe179 O193 1.996 . S
Fe179 O196 1.997 . S
O180 Fe179 2.002 . S
O180 C197 1.295 . S
O181 Fe176 1.997 . S
O181 C197 1.235 . S
O182 Fe176 2.002 . S
O182 C183 1.295 . S
C183 O182 1.295 . S
C183 O185 1.235 . S
C184 O189 1.287 . S
C184 O190 1.255 . S
O185 Fe177 1.997 . S
O185 C183 1.235 . S
C186 O192 1.287 . S
C186 O193 1.255 . S
O187 Fe176 1.976 . S
O187 C194 1.287 . S
O188 Fe177 1.996 . S
O188 C194 1.255 . S
O189 Fe179 1.976 . S
O189 C184 1.287 . S
O190 Fe176 1.996 . S
O190 C184 1.255 . S
C191 O195 1.295 . S
C191 O196 1.235 . S
O192 Fe177 1.976 . S
O192 C186 1.287 . S
O193 Fe179 1.996 . S
O193 C186 1.255 . S
C194 O187 1.287 . S
C194 O188 1.255 . S
O195 Fe177 2.002 . S
O195 C191 1.295 . S
O196 Fe179 1.997 . S
O196 C191 1.235 . S
C197 O180 1.295 . S
C197 O181 1.235 . S
Fe198 O200 1.918 . S
Fe198 O203 1.997 . S
Fe198 O204 2.002 . S
Fe198 O209 1.976 . S
Fe198 O212 1.996 . S
Fe199 O200 1.918 . S
Fe199 O207 1.997 . S
Fe199 O210 1.996 . S
Fe199 O214 1.976 . S
Fe199 O217 2.002 . S
O200 Fe198 1.918 . S
O200 Fe199 1.918 . S
O200 Fe201 1.918 . S
Fe201 O200 1.918 . S
Fe201 O202 2.002 . S
Fe201 O211 1.976 . S
Fe201 O215 1.996 . S
Fe201 O218 1.997 . S
O202 Fe201 2.002 . S
O202 C219 1.295 . S
O203 Fe198 1.997 . S
O203 C219 1.235 . S
O204 Fe198 2.002 . S
O204 C205 1.295 . S
C205 O204 1.295 . S
C205 O207 1.235 . S
C206 O211 1.287 . S
C206 O212 1.255 . S
O207 Fe199 1.997 . S
O207 C205 1.235 . S
C208 O214 1.287 . S
C208 O215 1.255 . S
O209 Fe198 1.976 . S
O209 C216 1.287 . S
O210 Fe199 1.996 . S
O210 C216 1.255 . S
O211 Fe201 1.976 . S
O211 C206 1.287 . S
O212 Fe198 1.996 . S
O212 C206 1.255 . S
C213 O217 1.295 . S
C213 O218 1.235 . S
O214 Fe199 1.976 . S
O214 C208 1.287 . S
O215 Fe201 1.996 . S
O215 C208 1.255 . S
C216 O209 1.287 . S
C216 O210 1.255 . S
O217 Fe199 2.002 . S
O217 C213 1.295 . S
O218 Fe201 1.997 . S
O218 C213 1.235 . S
C219 O202 1.295 . S
C219 O203 1.235 . S
Fe220 O222 1.918 . S
Fe220 O225 1.997 . S
Fe220 O226 2.002 . S
Fe220 O231 1.976 . S
Fe220 O234 1.996 . S
Fe221 O222 1.918 . S
Fe221 O229 1.997 . S
Fe221 O232 1.996 . S
Fe221 O236 1.976 . S
Fe221 O239 2.002 . S
O222 Fe220 1.918 . S
O222 Fe221 1.918 . S
O222 Fe223 1.918 . S
Fe223 O222 1.918 . S
Fe223 O224 2.002 . S
Fe223 O233 1.976 . S
Fe223 O237 1.996 . S
Fe223 O240 1.997 . S
O224 Fe223 2.002 . S
O224 C241 1.295 . S
O225 Fe220 1.997 . S
O225 C241 1.235 . S
O226 Fe220 2.002 . S
O226 C227 1.295 . S
C227 O226 1.295 . S
C227 O229 1.235 . S
C228 O233 1.287 . S
C228 O234 1.255 . S
O229 Fe221 1.997 . S
O229 C227 1.235 . S
C230 O236 1.287 . S
C230 O237 1.255 . S
O231 Fe220 1.976 . S
O231 C238 1.287 . S
O232 Fe221 1.996 . S
O232 C238 1.255 . S
O233 Fe223 1.976 . S
O233 C228 1.287 . S
O234 Fe220 1.996 . S
O234 C228 1.255 . S
C235 O239 1.295 . S
C235 O240 1.235 . S
O236 Fe221 1.976 . S
O236 C230 1.287 . S
O237 Fe223 1.996 . S
O237 C230 1.255 . S
C238 O231 1.287 . S
C238 O232 1.255 . S
O239 Fe221 2.002 . S
O239 C235 1.295 . S
O240 Fe223 1.997 . S
O240 C235 1.235 . S
C241 O224 1.295 . S
C241 O225 1.235 . S
Fe242 O244 1.918 . S
Fe242 O247 1.997 . S
Fe242 O248 2.002 . S
Fe242 O253 1.976 . S
Fe242 O256 1.996 . S
Fe243 O244 1.918 . S
Fe243 O251 1.997 . S
Fe243 O254 1.996 . S
Fe243 O258 1.976 . S
Fe243 O261 2.002 . S
O244 Fe242 1.918 . S
O244 Fe243 1.918 . S
O244 Fe245 1.918 . S
Fe245 O244 1.918 . S
Fe245 O246 2.002 . S
Fe245 O255 1.976 . S
Fe245 O259 1.996 . S
Fe245 O262 1.997 . S
O246 Fe245 2.002 . S
O246 C263 1.295 . S
O247 Fe242 1.997 . S
O247 C263 1.235 . S
O248 Fe242 2.002 . S
O248 C249 1.295 . S
C249 O248 1.295 . S
C249 O251 1.235 . S
C250 O255 1.287 . S
C250 O256 1.255 . S
O251 Fe243 1.997 . S
O251 C249 1.235 . S
C252 O258 1.287 . S
C252 O259 1.255 . S
O253 Fe242 1.976 . S
O253 C260 1.287 . S
O254 Fe243 1.996 . S
O254 C260 1.255 . S
O255 Fe245 1.976 . S
O255 C250 1.287 . S
O256 Fe242 1.996 . S
O256 C250 1.255 . S
C257 O261 1.295 . S
C257 O262 1.235 . S
O258 Fe243 1.976 . S
O258 C252 1.287 . S
O259 Fe245 1.996 . S
O259 C252 1.255 . S
C260 O253 1.287 . S
C260 O254 1.255 . S
O261 Fe243 2.002 . S
O261 C257 1.295 . S
O262 Fe245 1.997 . S
O262 C257 1.235 . S
C263 O246 1.295 . S
C263 O247 1.235 . S
Fe264 O266 1.918 . S
Fe264 O269 1.997 . S
Fe264 O270 2.002 . S
Fe264 O275 1.976 . S
Fe264 O278 1.996 . S
Fe265 O266 1.918 . S
Fe265 O273 1.997 . S
Fe265 O276 1.996 . S
Fe265 O280 1.976 . S
Fe265 O283 2.002 . S
O266 Fe264 1.918 . S
O266 Fe265 1.918 . S
O266 Fe267 1.918 . S
Fe267 O266 1.918 . S
Fe267 O268 2.002 . S
Fe267 O277 1.976 . S
Fe267 O281 1.996 . S
Fe267 O284 1.997 . S
O268 Fe267 2.002 . S
O268 C285 1.295 . S
O269 Fe264 1.997 . S
O269 C285 1.235 . S
O270 Fe264 2.002 . S
O270 C271 1.295 . S
C271 O270 1.295 . S
C271 O273 1.235 . S
C272 O277 1.287 . S
C272 O278 1.255 . S
O273 Fe265 1.997 . S
O273 C271 1.235 . S
C274 O280 1.287 . S
C274 O281 1.255 . S
O275 Fe264 1.976 . S
O275 C282 1.287 . S
O276 Fe265 1.996 . S
O276 C282 1.255 . S
O277 Fe267 1.976 . S
O277 C272 1.287 . S
O278 Fe264 1.996 . S
O278 C272 1.255 . S
C279 O283 1.295 . S
C279 O284 1.235 . S
O280 Fe265 1.976 . S
O280 C274 1.287 . S
O281 Fe267 1.996 . S
O281 C274 1.255 . S
C282 O275 1.287 . S
C282 O276 1.255 . S
O283 Fe265 2.002 . S
O283 C279 1.295 . S
O284 Fe267 1.997 . S
O284 C279 1.235 . S
C285 O268 1.295 . S
C285 O269 1.235 . S
Fe286 O288 1.918 . S
Fe286 O291 1.997 . S
Fe286 O292 2.002 . S
Fe286 O297 1.976 . S
Fe286 O300 1.996 . S
Fe287 O288 1.918 . S
Fe287 O295 1.997 . S
Fe287 O298 1.996 . S
Fe287 O302 1.976 . S
Fe287 O305 2.002 . S
O288 Fe286 1.918 . S
O288 Fe287 1.918 . S
O288 Fe289 1.918 . S
Fe289 O288 1.918 . S
Fe289 O290 2.002 . S
Fe289 O299 1.976 . S
Fe289 O303 1.996 . S
Fe289 O306 1.997 . S
O290 Fe289 2.002 . S
O290 C307 1.295 . S
O291 Fe286 1.997 . S
O291 C307 1.235 . S
O292 Fe286 2.002 . S
O292 C293 1.295 . S
C293 O292 1.295 . S
C293 O295 1.235 . S
C294 O299 1.287 . S
C294 O300 1.255 . S
O295 Fe287 1.997 . S
O295 C293 1.235 . S
C296 O302 1.287 . S
C296 O303 1.255 . S
O297 Fe286 1.976 . S
O297 C304 1.287 . S
O298 Fe287 1.996 . S
O298 C304 1.255 . S
O299 Fe289 1.976 . S
O299 C294 1.287 . S
O300 Fe286 1.996 . S
O300 C294 1.255 . S
C301 O305 1.295 . S
C301 O306 1.235 . S
O302 Fe287 1.976 . S
O302 C296 1.287 . S
O303 Fe289 1.996 . S
O303 C296 1.255 . S
C304 O297 1.287 . S
C304 O298 1.255 . S
O305 Fe287 2.002 . S
O305 C301 1.295 . S
O306 Fe289 1.997 . S
O306 C301 1.235 . S
C307 O290 1.295 . S
C307 O291 1.235 . S
Fe308 O310 1.918 . S
Fe308 O313 1.997 . S
Fe308 O314 2.002 . S
Fe308 O319 1.976 . S
Fe308 O322 1.996 . S
Fe309 O310 1.918 . S
Fe309 O317 1.997 . S
Fe309 O320 1.996 . S
Fe309 O324 1.976 . S
Fe309 O327 2.002 . S
O310 Fe308 1.918 . S
O310 Fe309 1.918 . S
O310 Fe311 1.918 . S
Fe311 O310 1.918 . S
Fe311 O312 2.002 . S
Fe311 O321 1.976 . S
Fe311 O325 1.996 . S
Fe311 O328 1.997 . S
O312 Fe311 2.002 . S
O312 C329 1.295 . S
O313 Fe308 1.997 . S
O313 C329 1.235 . S
O314 Fe308 2.002 . S
O314 C315 1.295 . S
C315 O314 1.295 . S
C315 O317 1.235 . S
C316 O321 1.287 . S
C316 O322 1.255 . S
O317 Fe309 1.997 . S
O317 C315 1.235 . S
C318 O324 1.287 . S
C318 O325 1.255 . S
O319 Fe308 1.976 . S
O319 C326 1.287 . S
O320 Fe309 1.996 . S
O320 C326 1.255 . S
O321 Fe311 1.976 . S
O321 C316 1.287 . S
O322 Fe308 1.996 . S
O322 C316 1.255 . S
C323 O327 1.295 . S
C323 O328 1.235 . S
O324 Fe309 1.976 . S
O324 C318 1.287 . S
O325 Fe311 1.996 . S
O325 C318 1.255 . S
C326 O319 1.287 . S
C326 O320 1.255 . S
O327 Fe309 2.002 . S
O327 C323 1.295 . S
O328 Fe311 1.997 . S
O328 C323 1.235 . S
C329 O312 1.295 . S
C329 O313 1.235 . S
Fe330 O332 1.918 . S
Fe330 O335 1.997 . S
Fe330 O336 2.002 . S
Fe330 O341 1.976 . S
Fe330 O344 1.996 . S
Fe331 O332 1.918 . S
Fe331 O339 1.997 . S
Fe331 O342 1.996 . S
Fe331 O346 1.976 . S
Fe331 O349 2.002 . S
O332 Fe330 1.918 . S
O332 Fe331 1.918 . S
O332 Fe333 1.918 . S
Fe333 O332 1.918 . S
Fe333 O334 2.002 . S
Fe333 O343 1.976 . S
Fe333 O347 1.996 . S
Fe333 O350 1.997 . S
O334 Fe333 2.002 . S
O334 C351 1.295 . S
O335 Fe330 1.997 . S
O335 C351 1.235 . S
O336 Fe330 2.002 . S
O336 C337 1.295 . S
C337 O336 1.295 . S
C337 O339 1.235 . S
C338 O343 1.287 . S
C338 O344 1.255 . S
O339 Fe331 1.997 . S
O339 C337 1.235 . S
C340 O346 1.287 . S
C340 O347 1.255 . S
O341 Fe330 1.976 . S
O341 C348 1.287 . S
O342 Fe331 1.996 . S
O342 C348 1.255 . S
O343 Fe333 1.976 . S
O343 C338 1.287 . S
O344 Fe330 1.996 . S
O344 C338 1.255 . S
C345 O349 1.295 . S
C345 O350 1.235 . S
O346 Fe331 1.976 . S
O346 C340 1.287 . S
O347 Fe333 1.996 . S
O347 C340 1.255 . S
C348 O341 1.287 . S
C348 O342 1.255 . S
O349 Fe331 2.002 . S
O349 C345 1.295 . S
O350 Fe333 1.997 . S
O350 C345 1.235 . S
C351 O334 1.295 . S
C351 O335 1.235 . S
Fe352 O354 1.918 . S
Fe352 O357 1.997 . S
Fe352 O358 2.002 . S
Fe352 O363 1.976 . S
Fe352 O366 1.996 . S
Fe353 O354 1.918 . S
Fe353 O361 1.997 . S
Fe353 O364 1.996 . S
Fe353 O368 1.976 . S
Fe353 O371 2.002 . S
O354 Fe352 1.918 . S
O354 Fe353 1.918 . S
O354 Fe355 1.918 . S
Fe355 O354 1.918 . S
Fe355 O356 2.002 . S
Fe355 O365 1.976 . S
Fe355 O369 1.996 . S
Fe355 O372 1.997 . S
O356 Fe355 2.002 . S
O356 C373 1.295 . S
O357 Fe352 1.997 . S
O357 C373 1.235 . S
O358 Fe352 2.002 . S
O358 C359 1.295 . S
C359 O358 1.295 . S
C359 O361 1.235 . S
C360 O365 1.287 . S
C360 O366 1.255 . S
O361 Fe353 1.997 . S
O361 C359 1.235 . S
C362 O368 1.287 . S
C362 O369 1.255 . S
O363 Fe352 1.976 . S
O363 C370 1.287 . S
O364 Fe353 1.996 . S
O364 C370 1.255 . S
O365 Fe355 1.976 . S
O365 C360 1.287 . S
O366 Fe352 1.996 . S
O366 C360 1.255 . S
C367 O371 1.295 . S
C367 O372 1.235 . S
O368 Fe353 1.976 . S
O368 C362 1.287 . S
O369 Fe355 1.996 . S
O369 C362 1.255 . S
C370 O363 1.287 . S
C370 O364 1.255 . S
O371 Fe353 2.002 . S
O371 C367 1.295 . S
O372 Fe355 1.997 . S
O372 C367 1.235 . S
C373 O356 1.295 . S
C373 O357 1.235 . S
Fe374 O376 1.918 . S
Fe374 O379 1.997 . S
Fe374 O380 2.002 . S
Fe374 O385 1.976 . S
Fe374 O388 1.996 . S
Fe375 O376 1.918 . S
Fe375 O383 1.997 . S
Fe375 O386 1.996 . S
Fe375 O390 1.976 . S
Fe375 O393 2.002 . S
O376 Fe374 1.918 . S
O376 Fe375 1.918 . S
O376 Fe377 1.918 . S
Fe377 O376 1.918 . S
Fe377 O378 2.002 . S
Fe377 O387 1.976 . S
Fe377 O391 1.996 . S
Fe377 O394 1.997 . S
O378 Fe377 2.002 . S
O378 C395 1.295 . S
O379 Fe374 1.997 . S
O379 C395 1.235 . S
O380 Fe374 2.002 . S
O380 C381 1.295 . S
C381 O380 1.295 . S
C381 O383 1.235 . S
C382 O387 1.287 . S
C382 O388 1.255 . S
O383 Fe375 1.997 . S
O383 C381 1.235 . S
C384 O390 1.287 . S
C384 O391 1.255 . S
O385 Fe374 1.976 . S
O385 C392 1.287 . S
O386 Fe375 1.996 . S
O386 C392 1.255 . S
O387 Fe377 1.976 . S
O387 C382 1.287 . S
O388 Fe374 1.996 . S
O388 C382 1.255 . S
C389 O393 1.295 . S
C389 O394 1.235 . S
O390 Fe375 1.976 . S
O390 C384 1.287 . S
O391 Fe377 1.996 . S
O391 C384 1.255 . S
C392 O385 1.287 . S
C392 O386 1.255 . S
O393 Fe375 2.002 . S
O393 C389 1.295 . S
O394 Fe377 1.997 . S
O394 C389 1.235 . S
C395 O378 1.295 . S
C395 O379 1.235 . S
Fe396 O398 1.918 . S
Fe396 O401 1.997 . S
Fe396 O402 2.002 . S
Fe396 O407 1.976 . S
Fe396 O410 1.996 . S
Fe397 O398 1.918 . S
Fe397 O405 1.997 . S
Fe397 O408 1.996 . S
Fe397 O412 1.976 . S
Fe397 O415 2.002 . S
O398 Fe396 1.918 . S
O398 Fe397 1.918 . S
O398 Fe399 1.918 . S
Fe399 O398 1.918 . S
Fe399 O400 2.002 . S
Fe399 O409 1.976 . S
Fe399 O413 1.996 . S
Fe399 O416 1.997 . S
O400 Fe399 2.002 . S
O400 C417 1.295 . S
O401 Fe396 1.997 . S
O401 C417 1.235 . S
O402 Fe396 2.002 . S
O402 C403 1.295 . S
C403 O402 1.295 . S
C403 O405 1.235 . S
C404 O409 1.287 . S
C404 O410 1.255 . S
O405 Fe397 1.997 . S
O405 C403 1.235 . S
C406 O412 1.287 . S
C406 O413 1.255 . S
O407 Fe396 1.976 . S
O407 C414 1.287 . S
O408 Fe397 1.996 . S
O408 C414 1.255 . S
O409 Fe399 1.976 . S
O409 C404 1.287 . S
O410 Fe396 1.996 . S
O410 C404 1.255 . S
C411 O415 1.295 . S
C411 O416 1.235 . S
O412 Fe397 1.976 . S
O412 C406 1.287 . S
O413 Fe399 1.996 . S
O413 C406 1.255 . S
C414 O407 1.287 . S
C414 O408 1.255 . S
O415 Fe397 2.002 . S
O415 C411 1.295 . S
O416 Fe399 1.997 . S
O416 C411 1.235 . S
C417 O400 1.295 . S
C417 O401 1.235 . S
Fe418 O420 1.918 . S
Fe418 O423 1.997 . S
Fe418 O424 2.002 . S
Fe418 O429 1.976 . S
Fe418 O432 1.996 . S
Fe419 O420 1.918 . S
Fe419 O427 1.997 . S
Fe419 O430 1.996 . S
Fe419 O434 1.976 . S
Fe419 O437 2.002 . S
O420 Fe418 1.918 . S
O420 Fe419 1.918 . S
O420 Fe421 1.918 . S
Fe421 O420 1.918 . S
Fe421 O422 2.002 . S
Fe421 O431 1.976 . S
Fe421 O435 1.996 . S
Fe421 O438 1.997 . S
O422 Fe421 2.002 . S
O422 C439 1.295 . S
O423 Fe418 1.997 . S
O423 C439 1.235 . S
O424 Fe418 2.002 . S
O424 C425 1.295 . S
C425 O424 1.295 . S
C425 O427 1.235 . S
C426 O431 1.287 . S
C426 O432 1.255 . S
O427 Fe419 1.997 . S
O427 C425 1.235 . S
C428 O434 1.287 . S
C428 O435 1.255 . S
O429 Fe418 1.976 . S
O429 C436 1.287 . S
O430 Fe419 1.996 . S
O430 C436 1.255 . S
O431 Fe421 1.976 . S
O431 C426 1.287 . S
O432 Fe418 1.996 . S
O432 C426 1.255 . S
C433 O437 1.295 . S
C433 O438 1.235 . S
O434 Fe419 1.976 . S
O434 C428 1.287 . S
O435 Fe421 1.996 . S
O435 C428 1.255 . S
C436 O429 1.287 . S
C436 O430 1.255 . S
O437 Fe419 2.002 . S
O437 C433 1.295 . S
O438 Fe421 1.997 . S
O438 C433 1.235 . S
C439 O422 1.295 . S
C439 O423 1.235 . S
Fe440 O442 1.918 . S
Fe440 O445 1.997 . S
Fe440 O446 2.002 . S
Fe440 O451 1.976 . S
Fe440 O454 1.996 . S
Fe441 O442 1.918 . S
Fe441 O449 1.997 . S
Fe441 O452 1.996 . S
Fe441 O456 1.976 . S
Fe441 O459 2.002 . S
O442 Fe440 1.918 . S
O442 Fe441 1.918 . S
O442 Fe443 1.918 . S
Fe443 O442 1.918 . S
Fe443 O444 2.002 . S
Fe443 O453 1.976 . S
Fe443 O457 1.996 . S
Fe443 O460 1.997 . S
O444 Fe443 2.002 . S
O444 C461 1.295 . S
O445 Fe440 1.997 . S
O445 C461 1.235 . S
O446 Fe440 2.002 . S
O446 C447 1.295 . S
C447 O446 1.295 . S
C447 O449 1.235 . S
C448 O453 1.287 . S
C448 O454 1.255 . S
O449 Fe441 1.997 . S
O449 C447 1.235 . S
C450 O456 1.287 . S
C450 O457 1.255 . S
O451 Fe440 1.976 . S
O451 C458 1.287 . S
O452 Fe441 1.996 . S
O452 C458 1.255 . S
O453 Fe443 1.976 . S
O453 C448 1.287 . S
O454 Fe440 1.996 . S
O454 C448 1.255 . S
C455 O459 1.295 . S
C455 O460 1.235 . S
O456 Fe441 1.976 . S
O456 C450 1.287 . S
O457 Fe443 1.996 . S
O457 C450 1.255 . S
C458 O451 1.287 . S
C458 O452 1.255 . S
O459 Fe441 2.002 . S
O459 C455 1.295 . S
O460 Fe443 1.997 . S
O460 C455 1.235 . S
C461 O444 1.295 . S
C461 O445 1.235 . S
Fe462 O464 1.918 . S
Fe462 O467 1.997 . S
Fe462 O468 2.002 . S
Fe462 O473 1.976 . S
Fe462 O476 1.996 . S
Fe463 O464 1.918 . S
Fe463 O471 1.997 . S
Fe463 O474 1.996 . S
Fe463 O478 1.976 . S
Fe463 O481 2.002 . S
O464 Fe462 1.918 . S
O464 Fe463 1.918 . S
O464 Fe465 1.918 . S
Fe465 O464 1.918 . S
Fe465 O466 2.002 . S
Fe465 O475 1.976 . S
Fe465 O479 1.996 . S
Fe465 O482 1.997 . S
O466 Fe465 2.002 . S
O466 C483 1.295 . S
O467 Fe462 1.997 . S
O467 C483 1.235 . S
O468 Fe462 2.002 . S
O468 C469 1.295 . S
C469 O468 1.295 . S
C469 O471 1.235 . S
C470 O475 1.287 . S
C470 O476 1.255 . S
O471 Fe463 1.997 . S
O471 C469 1.235 . S
C472 O478 1.287 . S
C472 O479 1.255 . S
O473 Fe462 1.976 . S
O473 C480 1.287 . S
O474 Fe463 1.996 . S
O474 C480 1.255 . S
O475 Fe465 1.976 . S
O475 C470 1.287 . S
O476 Fe462 1.996 . S
O476 C470 1.255 . S
C477 O481 1.295 . S
C477 O482 1.235 . S
O478 Fe463 1.976 . S
O478 C472 1.287 . S
O479 Fe465 1.996 . S
O479 C472 1.255 . S
C480 O473 1.287 . S
C480 O474 1.255 . S
O481 Fe463 2.002 . S
O481 C477 1.295 . S
O482 Fe465 1.997 . S
O482 C477 1.235 . S
C483 O466 1.295 . S
C483 O467 1.235 . S
Fe484 O486 1.918 . S
Fe484 O489 1.997 . S
Fe484 O490 2.002 . S
Fe484 O495 1.976 . S
Fe484 O498 1.996 . S
Fe485 O486 1.918 . S
Fe485 O493 1.997 . S
Fe485 O496 1.996 . S
Fe485 O500 1.976 . S
Fe485 O503 2.002 . S
O486 Fe484 1.918 . S
O486 Fe485 1.918 . S
O486 Fe487 1.918 . S
Fe487 O486 1.918 . S
Fe487 O488 2.002 . S
Fe487 O497 1.976 . S
Fe487 O501 1.996 . S
Fe487 O504 1.997 . S
O488 Fe487 2.002 . S
O488 C505 1.295 . S
O489 Fe484 1.997 . S
O489 C505 1.235 . S
O490 Fe484 2.002 . S
O490 C491 1.295 . S
C491 O490 1.295 . S
C491 O493 1.235 . S
C492 O497 1.287 . S
C492 O498 1.255 . S
O493 Fe485 1.997 . S
O493 C491 1.235 . S
C494 O500 1.287 . S
C494 O501 1.255 . S
O495 Fe484 1.976 . S
O495 C502 1.287 . S
O496 Fe485 1.996 . S
O496 C502 1.255 . S
O497 Fe487 1.976 . S
O497 C492 1.287 . S
O498 Fe484 1.996 . S
O498 C492 1.255 . S
C499 O503 1.295 . S
C499 O504 1.235 . S
O500 Fe485 1.976 . S
O500 C494 1.287 . S
O501 Fe487 1.996 . S
O501 C494 1.255 . S
C502 O495 1.287 . S
C502 O496 1.255 . S
O503 Fe485 2.002 . S
O503 C499 1.295 . S
O504 Fe487 1.997 . S
O504 C499 1.235 . S
C505 O488 1.295 . S
C505 O489 1.235 . S
Fe506 O508 1.918 . S
Fe506 O511 1.997 . S
Fe506 O512 2.002 . S
Fe506 O517 1.976 . S
Fe506 O520 1.996 . S
Fe507 O508 1.918 . S
Fe507 O515 1.997 . S
Fe507 O518 1.996 . S
Fe507 O522 1.976 . S
Fe507 O525 2.002 . S
O508 Fe506 1.918 . S
O508 Fe507 1.918 . S
O508 Fe509 1.918 . S
Fe509 O508 1.918 . S
Fe509 O510 2.002 . S
Fe509 O519 1.976 . S
Fe509 O523 1.996 . S
Fe509 O526 1.997 . S
O510 Fe509 2.002 . S
O510 C527 1.295 . S
O511 Fe506 1.997 . S
O511 C527 1.235 . S
O512 Fe506 2.002 . S
O512 C513 1.295 . S
C513 O512 1.295 . S
C513 O515 1.235 . S
C514 O519 1.287 . S
C514 O520 1.255 . S
O515 Fe507 1.997 . S
O515 C513 1.235 . S
C516 O522 1.287 . S
C516 O523 1.255 . S
O517 Fe506 1.976 . S
O517 C524 1.287 . S
O518 Fe507 1.996 . S
O518 C524 1.255 . S
O519 Fe509 1.976 . S
O519 C514 1.287 . S
O520 Fe506 1.996 . S
O520 C514 1.255 . S
C521 O525 1.295 . S
C521 O526 1.235 . S
O522 Fe507 1.976 . S
O522 C516 1.287 . S
O523 Fe509 1.996 . S
O523 C516 1.255 . S
C524 O517 1.287 . S
C524 O518 1.255 . S
O525 Fe507 2.002 . S
O525 C521 1.295 . S
O526 Fe509 1.997 . S
O526 C521 1.235 . S
C527 O510 1.295 . S
C527 O511 1.235 . S
Fe528 O530 1.918 . S
Fe528 O533 1.997 . S
Fe528 O534 2.002 . S
Fe528 O539 1.976 . S
Fe528 O542 1.996 . S
Fe529 O530 1.918 . S
Fe529 O537 1.997 . S
Fe529 O540 1.996 . S
Fe529 O544 1.976 . S
Fe529 O547 2.002 . S
O530 Fe528 1.918 . S
O530 Fe529 1.918 . S
O530 Fe531 1.918 . S
Fe531 O530 1.918 . S
Fe531 O532 2.002 . S
Fe531 O541 1.976 . S
Fe531 O545 1.996 . S
Fe531 O548 1.997 . S
O532 Fe531 2.002 . S
O532 C549 1.295 . S
O533 Fe528 1.997 . S
O533 C549 1.235 . S
O534 Fe528 2.002 . S
O534 C535 1.295 . S
C535 O534 1.295 . S
C535 O537 1.235 . S
C536 O541 1.287 . S
C536 O542 1.255 . S
O537 Fe529 1.997 . S
O537 C535 1.235 . S
C538 O544 1.287 . S
C538 O545 1.255 . S
O539 Fe528 1.976 . S
O539 C546 1.287 . S
O540 Fe529 1.996 . S
O540 C546 1.255 . S
O541 Fe531 1.976 . S
O541 C536 1.287 . S
O542 Fe528 1.996 . S
O542 C536 1.255 . S
C543 O547 1.295 . S
C543 O548 1.235 . S
O544 Fe529 1.976 . S
O544 C538 1.287 . S
O545 Fe531 1.996 . S
O545 C538 1.255 . S
C546 O539 1.287 . S
C546 O540 1.255 . S
O547 Fe529 2.002 . S
O547 C543 1.295 . S
O548 Fe531 1.997 . S
O548 C543 1.235 . S
C549 O532 1.295 . S
C549 O533 1.235 . S
Fe550 O552 1.918 . S
Fe550 O555 1.997 . S
Fe550 O556 2.002 . S
Fe550 O561 1.976 . S
Fe550 O564 1.996 . S
Fe551 O552 1.918 . S
Fe551 O559 1.997 . S
Fe551 O562 1.996 . S
Fe551 O566 1.976 . S
Fe551 O569 2.002 . S
O552 Fe550 1.918 . S
O552 Fe551 1.918 . S
O552 Fe553 1.918 . S
Fe553 O552 1.918 . S
Fe553 O554 2.002 . S
Fe553 O563 1.976 . S
Fe553 O567 1.996 . S
Fe553 O570 1.997 . S
O554 Fe553 2.002 . S
O554 C571 1.295 . S
O555 Fe550 1.997 . S
O555 C571 1.235 . S
O556 Fe550 2.002 . S
O556 C557 1.295 . S
C557 O556 1.295 . S
C557 O559 1.235 . S
C558 O563 1.287 . S
C558 O564 1.255 . S
O559 Fe551 1.997 . S
O559 C557 1.235 . S
C560 O566 1.287 . S
C560 O567 1.255 . S
O561 Fe550 1.976 . S
O561 C568 1.287 . S
O562 Fe551 1.996 . S
O562 C568 1.255 . S
O563 Fe553 1.976 . S
O563 C558 1.287 . S
O564 Fe550 1.996 . S
O564 C558 1.255 . S
C565 O569 1.295 . S
C565 O570 1.235 . S
O566 Fe551 1.976 . S
O566 C560 1.287 . S
O567 Fe553 1.996 . S
O567 C560 1.255 . S
C568 O561 1.287 . S
C568 O562 1.255 . S
O569 Fe551 2.002 . S
O569 C565 1.295 . S
O570 Fe553 1.997 . S
O570 C565 1.235 . S
C571 O554 1.295 . S
C571 O555 1.235 . S
Fe572 O574 1.918 . S
Fe572 O577 1.997 . S
Fe572 O578 2.002 . S
Fe572 O583 1.976 . S
Fe572 O586 1.996 . S
Fe573 O574 1.918 . S
Fe573 O581 1.997 . S
Fe573 O584 1.996 . S
Fe573 O588 1.976 . S
Fe573 O591 2.002 . S
O574 Fe572 1.918 . S
O574 Fe573 1.918 . S
O574 Fe575 1.918 . S
Fe575 O574 1.918 . S
Fe575 O576 2.002 . S
Fe575 O585 1.976 . S
Fe575 O589 1.996 . S
Fe575 O592 1.997 . S
O576 Fe575 2.002 . S
O576 C593 1.295 . S
O577 Fe572 1.997 . S
O577 C593 1.235 . S
O578 Fe572 2.002 . S
O578 C579 1.295 . S
C579 O578 1.295 . S
C579 O581 1.235 . S
C580 O585 1.287 . S
C580 O586 1.255 . S
O581 Fe573 1.997 . S
O581 C579 1.235 . S
C582 O588 1.287 . S
C582 O589 1.255 . S
O583 Fe572 1.976 . S
O583 C590 1.287 . S
O584 Fe573 1.996 . S
O584 C590 1.255 . S
O585 Fe575 1.976 . S
O585 C580 1.287 . S
O586 Fe572 1.996 . S
O586 C580 1.255 . S
C587 O591 1.295 . S
C587 O592 1.235 . S
O588 Fe573 1.976 . S
O588 C582 1.287 . S
O589 Fe575 1.996 . S
O589 C582 1.255 . S
C590 O583 1.287 . S
C590 O584 1.255 . S
O591 Fe573 2.002 . S
O591 C587 1.295 . S
O592 Fe575 1.997 . S
O592 C587 1.235 . S
C593 O576 1.295 . S
C593 O577 1.235 . S
Fe594 O596 1.918 . S
Fe594 O599 1.997 . S
Fe594 O600 2.002 . S
Fe594 O605 1.976 . S
Fe594 O608 1.996 . S
Fe595 O596 1.918 . S
Fe595 O603 1.997 . S
Fe595 O606 1.996 . S
Fe595 O610 1.976 . S
Fe595 O613 2.002 . S
O596 Fe594 1.918 . S
O596 Fe595 1.918 . S
O596 Fe597 1.918 . S
Fe597 O596 1.918 . S
Fe597 O598 2.002 . S
Fe597 O607 1.976 . S
Fe597 O611 1.996 . S
Fe597 O614 1.997 . S
O598 Fe597 2.002 . S
O598 C615 1.295 . S
O599 Fe594 1.997 . S
O599 C615 1.235 . S
O600 Fe594 2.002 . S
O600 C601 1.295 . S
C601 O600 1.295 . S
C601 O603 1.235 . S
C602 O607 1.287 . S
C602 O608 1.255 . S
O603 Fe595 1.997 . S
O603 C601 1.235 . S
C604 O610 1.287 . S
C604 O611 1.255 . S
O605 Fe594 1.976 . S
O605 C612 1.287 . S
O606 Fe595 1.996 . S
O606 C612 1.255 . S
O607 Fe597 1.976 . S
O607 C602 1.287 . S
O608 Fe594 1.996 . S
O608 C602 1.255 . S
C609 O613 1.295 . S
C609 O614 1.235 . S
O610 Fe595 1.976 . S
O610 C604 1.287 . S
O611 Fe597 1.996 . S
O611 C604 1.255 . S
C612 O605 1.287 . S
C612 O606 1.255 . S
O613 Fe595 2.002 . S
O613 C609 1.295 . S
O614 Fe597 1.997 . S
O614 C609 1.235 . S
C615 O598 1.295 . S
C615 O599 1.235 . S
Fe616 O618 1.918 . S
Fe616 O621 1.997 . S
Fe616 O622 2.002 . S
Fe616 O627 1.976 . S
Fe616 O630 1.996 . S
Fe617 O618 1.918 . S
Fe617 O625 1.997 . S
Fe617 O628 1.996 . S
Fe617 O632 1.976 . S
Fe617 O635 2.002 . S
O618 Fe616 1.918 . S
O618 Fe617 1.918 . S
O618 Fe619 1.918 . S
Fe619 O618 1.918 . S
Fe619 O620 2.002 . S
Fe619 O629 1.976 . S
Fe619 O633 1.996 . S
Fe619 O636 1.997 . S
O620 Fe619 2.002 . S
O620 C637 1.295 . S
O621 Fe616 1.997 . S
O621 C637 1.235 . S
O622 Fe616 2.002 . S
O622 C623 1.295 . S
C623 O622 1.295 . S
C623 O625 1.235 . S
C624 O629 1.287 . S
C624 O630 1.255 . S
O625 Fe617 1.997 . S
O625 C623 1.235 . S
C626 O632 1.287 . S
C626 O633 1.255 . S
O627 Fe616 1.976 . S
O627 C634 1.287 . S
O628 Fe617 1.996 . S
O628 C634 1.255 . S
O629 Fe619 1.976 . S
O629 C624 1.287 . S
O630 Fe616 1.996 . S
O630 C624 1.255 . S
C631 O635 1.295 . S
C631 O636 1.235 . S
O632 Fe617 1.976 . S
O632 C626 1.287 . S
O633 Fe619 1.996 . S
O633 C626 1.255 . S
C634 O627 1.287 . S
C634 O628 1.255 . S
O635 Fe617 2.002 . S
O635 C631 1.295 . S
O636 Fe619 1.997 . S
O636 C631 1.235 . S
C637 O620 1.295 . S
C637 O621 1.235 . S
Fe638 O640 1.918 . S
Fe638 O643 1.997 . S
Fe638 O644 2.002 . S
Fe638 O649 1.976 . S
Fe638 O652 1.996 . S
Fe639 O640 1.918 . S
Fe639 O647 1.997 . S
Fe639 O650 1.996 . S
Fe639 O654 1.976 . S
Fe639 O657 2.002 . S
O640 Fe638 1.918 . S
O640 Fe639 1.918 . S
O640 Fe641 1.918 . S
Fe641 O640 1.918 . S
Fe641 O642 2.002 . S
Fe641 O651 1.976 . S
Fe641 O655 1.996 . S
Fe641 O658 1.997 . S
O642 Fe641 2.002 . S
O642 C659 1.295 . S
O643 Fe638 1.997 . S
O643 C659 1.235 . S
O644 Fe638 2.002 . S
O644 C645 1.295 . S
C645 O644 1.295 . S
C645 O647 1.235 . S
C646 O651 1.287 . S
C646 O652 1.255 . S
O647 Fe639 1.997 . S
O647 C645 1.235 . S
C648 O654 1.287 . S
C648 O655 1.255 . S
O649 Fe638 1.976 . S
O649 C656 1.287 . S
O650 Fe639 1.996 . S
O650 C656 1.255 . S
O651 Fe641 1.976 . S
O651 C646 1.287 . S
O652 Fe638 1.996 . S
O652 C646 1.255 . S
C653 O657 1.295 . S
C653 O658 1.235 . S
O654 Fe639 1.976 . S
O654 C648 1.287 . S
O655 Fe641 1.996 . S
O655 C648 1.255 . S
C656 O649 1.287 . S
C656 O650 1.255 . S
O657 Fe639 2.002 . S
O657 C653 1.295 . S
O658 Fe641 1.997 . S
O658 C653 1.235 . S
C659 O642 1.295 . S
C659 O643 1.235 . S
Fe660 O662 1.918 . S
Fe660 O665 1.997 . S
Fe660 O666 2.002 . S
Fe660 O671 1.976 . S
Fe660 O674 1.996 . S
Fe661 O662 1.918 . S
Fe661 O669 1.997 . S
Fe661 O672 1.996 . S
Fe661 O676 1.976 . S
Fe661 O679 2.002 . S
O662 Fe660 1.918 . S
O662 Fe661 1.918 . S
O662 Fe663 1.918 . S
Fe663 O662 1.918 . S
Fe663 O664 2.002 . S
Fe663 O673 1.976 . S
Fe663 O677 1.996 . S
Fe663 O680 1.997 . S
O664 Fe663 2.002 . S
O664 C681 1.295 . S
O665 Fe660 1.997 . S
O665 C681 1.235 . S
O666 Fe660 2.002 . S
O666 C667 1.295 . S
C667 O666 1.295 . S
C667 O669 1.235 . S
C668 O673 1.287 . S
C668 O674 1.255 . S
O669 Fe661 1.997 . S
O669 C667 1.235 . S
C670 O676 1.287 . S
C670 O677 1.255 . S
O671 Fe660 1.976 . S
O671 C678 1.287 . S
O672 Fe661 1.996 . S
O672 C678 1.255 . S
O673 Fe663 1.976 . S
O673 C668 1.287 . S
O674 Fe660 1.996 . S
O674 C668 1.255 . S
C675 O679 1.295 . S
C675 O680 1.235 . S
O676 Fe661 1.976 . S
O676 C670 1.287 . S
O677 Fe663 1.996 . S
O677 C670 1.255 . S
C678 O671 1.287 . S
C678 O672 1.255 . S
O679 Fe661 2.002 . S
O679 C675 1.295 . S
O680 Fe663 1.997 . S
O680 C675 1.235 . S
C681 O664 1.295 . S
C681 O665 1.235 . S
Fe682 O684 1.918 . S
Fe682 O687 1.997 . S
Fe682 O688 2.002 . S
Fe682 O693 1.976 . S
Fe682 O696 1.996 . S
Fe683 O684 1.918 . S
Fe683 O691 1.997 . S
Fe683 O694 1.996 . S
Fe683 O698 1.976 . S
Fe683 O701 2.002 . S
O684 Fe682 1.918 . S
O684 Fe683 1.918 . S
O684 Fe685 1.918 . S
Fe685 O684 1.918 . S
Fe685 O686 2.002 . S
Fe685 O695 1.976 . S
Fe685 O699 1.996 . S
Fe685 O702 1.997 . S
O686 Fe685 2.002 . S
O686 C703 1.295 . S
O687 Fe682 1.997 . S
O687 C703 1.235 . S
O688 Fe682 2.002 . S
O688 C689 1.295 . S
C689 O688 1.295 . S
C689 O691 1.235 . S
C690 O695 1.287 . S
C690 O696 1.255 . S
O691 Fe683 1.997 . S
O691 C689 1.235 . S
C692 O698 1.287 . S
C692 O699 1.255 . S
O693 Fe682 1.976 . S
O693 C700 1.287 . S
O694 Fe683 1.996 . S
O694 C700 1.255 . S
O695 Fe685 1.976 . S
O695 C690 1.287 . S
O696 Fe682 1.996 . S
O696 C690 1.255 . S
C697 O701 1.295 . S
C697 O702 1.235 . S
O698 Fe683 1.976 . S
O698 C692 1.287 . S
O699 Fe685 1.996 . S
O699 C692 1.255 . S
C700 O693 1.287 . S
C700 O694 1.255 . S
O701 Fe683 2.002 . S
O701 C697 1.295 . S
O702 Fe685 1.997 . S
O702 C697 1.235 . S
C703 O686 1.295 . S
C703 O687 1.235 . S
C704 C705 1.369 . S
C704 C706 1.419 . S
C704 H708 0.930 . S
C705 C704 1.369 . S
C705 C714 1.429 . S
C706 C704 1.419 . S
C706 C707 1.363 . S
C706 H709 0.929 . S
C707 C706 1.363 . S
C707 C713 1.428 . S
H708 C704 0.930 . S
H709 C706 0.929 . S
S710 N711 1.613 . S
S710 N712 1.610 . S
N711 S710 1.613 . S
N711 C714 1.350 . S
N712 S710 1.610 . S
N712 C713 1.351 . S
C713 C707 1.428 . S
C713 N712 1.351 . S
C713 C714 1.434 . S
C714 C705 1.429 . S
C714 N711 1.350 . S
C714 C713 1.434 . S
C715 C716 1.369 . S
C715 C717 1.419 . S
C715 H719 0.930 . S
C716 C715 1.369 . S
C716 C725 1.429 . S
C717 C715 1.419 . S
C717 C718 1.363 . S
C717 H720 0.929 . S
C718 C717 1.363 . S
C718 C724 1.428 . S
H719 C715 0.930 . S
H720 C717 0.929 . S
S721 N722 1.613 . S
S721 N723 1.610 . S
N722 S721 1.613 . S
N722 C725 1.350 . S
N723 S721 1.610 . S
N723 C724 1.351 . S
C724 C718 1.428 . S
C724 N723 1.351 . S
C724 C725 1.434 . S
C725 C716 1.429 . S
C725 N722 1.350 . S
C725 C724 1.434 . S
C726 C727 1.369 . S
C726 C728 1.419 . S
C726 H730 0.930 . S
C727 C726 1.369 . S
C727 C736 1.429 . S
C728 C726 1.419 . S
C728 C729 1.363 . S
C728 H731 0.929 . S
C729 C728 1.363 . S
C729 C735 1.428 . S
H730 C726 0.930 . S
H731 C728 0.929 . S
S732 N733 1.613 . S
S732 N734 1.610 . S
N733 S732 1.613 . S
N733 C736 1.350 . S
N734 S732 1.610 . S
N734 C735 1.351 . S
C735 C729 1.428 . S
C735 N734 1.351 . S
C735 C736 1.434 . S
C736 C727 1.429 . S
C736 N733 1.350 . S
C736 C735 1.434 . S
C737 C738 1.369 . S
C737 C739 1.419 . S
C737 H741 0.930 . S
C738 C737 1.369 . S
C738 C747 1.429 . S
C739 C737 1.419 . S
C739 C740 1.363 . S
C739 H742 0.929 . S
C740 C739 1.363 . S
C740 C746 1.428 . S
H741 C737 0.930 . S
H742 C739 0.929 . S
S743 N744 1.613 . S
S743 N745 1.610 . S
N744 S743 1.613 . S
N744 C747 1.350 . S
N745 S743 1.610 . S
N745 C746 1.351 . S
C746 C740 1.428 . S
C746 N745 1.351 . S
C746 C747 1.434 . S
C747 C738 1.429 . S
C747 N744 1.350 . S
C747 C746 1.434 . S
C748 C749 1.369 . S
C748 C750 1.419 . S
C748 H752 0.930 . S
C749 C748 1.369 . S
C749 C758 1.429 . S
C750 C748 1.419 . S
C750 C751 1.363 . S
C750 H753 0.929 . S
C751 C750 1.363 . S
C751 C757 1.428 . S
H752 C748 0.930 . S
H753 C750 0.929 . S
S754 N755 1.613 . S
S754 N756 1.610 . S
N755 S754 1.613 . S
N755 C758 1.350 . S
N756 S754 1.610 . S
N756 C757 1.351 . S
C757 C751 1.428 . S
C757 N756 1.351 . S
C757 C758 1.434 . S
C758 C749 1.429 . S
C758 N755 1.350 . S
C758 C757 1.434 . S
C759 C760 1.369 . S
C759 C761 1.419 . S
C759 H763 0.930 . S
C760 C759 1.369 . S
C760 C769 1.429 . S
C761 C759 1.419 . S
C761 C762 1.363 . S
C761 H764 0.929 . S
C762 C761 1.363 . S
C762 C768 1.428 . S
H763 C759 0.930 . S
H764 C761 0.929 . S
S765 N766 1.613 . S
S765 N767 1.610 . S
N766 S765 1.613 . S
N766 C769 1.350 . S
N767 S765 1.610 . S
N767 C768 1.351 . S
C768 C762 1.428 . S
C768 N767 1.351 . S
C768 C769 1.434 . S
C769 C760 1.429 . S
C769 N766 1.350 . S
C769 C768 1.434 . S
C770 C771 1.369 . S
C770 C772 1.419 . S
C770 H774 0.930 . S
C771 C770 1.369 . S
C771 C780 1.429 . S
C772 C770 1.419 . S
C772 C773 1.363 . S
C772 H775 0.929 . S
C773 C772 1.363 . S
C773 C779 1.428 . S
H774 C770 0.930 . S
H775 C772 0.929 . S
S776 N777 1.613 . S
S776 N778 1.610 . S
N777 S776 1.613 . S
N777 C780 1.350 . S
N778 S776 1.610 . S
N778 C779 1.351 . S
C779 C773 1.428 . S
C779 N778 1.351 . S
C779 C780 1.434 . S
C780 C771 1.429 . S
C780 N777 1.350 . S
C780 C779 1.434 . S
C781 C782 1.369 . S
C781 C783 1.419 . S
C781 H785 0.930 . S
C782 C781 1.369 . S
C782 C791 1.429 . S
C783 C781 1.419 . S
C783 C784 1.363 . S
C783 H786 0.929 . S
C784 C783 1.363 . S
C784 C790 1.428 . S
H785 C781 0.930 . S
H786 C783 0.929 . S
S787 N788 1.613 . S
S787 N789 1.610 . S
N788 S787 1.613 . S
N788 C791 1.350 . S
N789 S787 1.610 . S
N789 C790 1.351 . S
C790 C784 1.428 . S
C790 N789 1.351 . S
C790 C791 1.434 . S
C791 C782 1.429 . S
C791 N788 1.350 . S
C791 C790 1.434 . S
C792 C793 1.369 . S
C792 C794 1.419 . S
C792 H796 0.930 . S
C793 C792 1.369 . S
C793 C802 1.429 . S
C794 C792 1.419 . S
C794 C795 1.363 . S
C794 H797 0.929 . S
C795 C794 1.363 . S
C795 C801 1.428 . S
H796 C792 0.930 . S
H797 C794 0.929 . S
S798 N799 1.613 . S
S798 N800 1.610 . S
N799 S798 1.613 . S
N799 C802 1.350 . S
N800 S798 1.610 . S
N800 C801 1.351 . S
C801 C795 1.428 . S
C801 N800 1.351 . S
C801 C802 1.434 . S
C802 C793 1.429 . S
C802 N799 1.350 . S
C802 C801 1.434 . S
C803 C804 1.369 . S
C803 C805 1.419 . S
C803 H807 0.930 . S
C804 C803 1.369 . S
C804 C813 1.429 . S
C805 C803 1.419 . S
C805 C806 1.363 . S
C805 H808 0.929 . S
C806 C805 1.363 . S
C806 C812 1.428 . S
H807 C803 0.930 . S
H808 C805 0.929 . S
S809 N810 1.613 . S
S809 N811 1.610 . S
N810 S809 1.613 . S
N810 C813 1.350 . S
N811 S809 1.610 . S
N811 C812 1.351 . S
C812 C806 1.428 . S
C812 N811 1.351 . S
C812 C813 1.434 . S
C813 C804 1.429 . S
C813 N810 1.350 . S
C813 C812 1.434 . S
C814 C815 1.369 . S
C814 C816 1.419 . S
C814 H818 0.930 . S
C815 C814 1.369 . S
C815 C824 1.429 . S
C816 C814 1.419 . S
C816 C817 1.363 . S
C816 H819 0.929 . S
C817 C816 1.363 . S
C817 C823 1.428 . S
H818 C814 0.930 . S
H819 C816 0.929 . S
S820 N821 1.613 . S
S820 N822 1.610 . S
N821 S820 1.613 . S
N821 C824 1.350 . S
N822 S820 1.610 . S
N822 C823 1.351 . S
C823 C817 1.428 . S
C823 N822 1.351 . S
C823 C824 1.434 . S
C824 C815 1.429 . S
C824 N821 1.350 . S
C824 C823 1.434 . S
C825 C826 1.369 . S
C825 C827 1.419 . S
C825 H829 0.930 . S
C826 C825 1.369 . S
C826 C835 1.429 . S
C827 C825 1.419 . S
C827 C828 1.363 . S
C827 H830 0.929 . S
C828 C827 1.363 . S
C828 C834 1.428 . S
H829 C825 0.930 . S
H830 C827 0.929 . S
S831 N832 1.613 . S
S831 N833 1.610 . S
N832 S831 1.613 . S
N832 C835 1.350 . S
N833 S831 1.610 . S
N833 C834 1.351 . S
C834 C828 1.428 . S
C834 N833 1.351 . S
C834 C835 1.434 . S
C835 C826 1.429 . S
C835 N832 1.350 . S
C835 C834 1.434 . S
C836 C837 1.369 . S
C836 C838 1.419 . S
C836 H840 0.930 . S
C837 C836 1.369 . S
C837 C846 1.429 . S
C838 C836 1.419 . S
C838 C839 1.363 . S
C838 H841 0.929 . S
C839 C838 1.363 . S
C839 C845 1.428 . S
H840 C836 0.930 . S
H841 C838 0.929 . S
S842 N843 1.613 . S
S842 N844 1.610 . S
N843 S842 1.613 . S
N843 C846 1.350 . S
N844 S842 1.610 . S
N844 C845 1.351 . S
C845 C839 1.428 . S
C845 N844 1.351 . S
C845 C846 1.434 . S
C846 C837 1.429 . S
C846 N843 1.350 . S
C846 C845 1.434 . S
C847 C848 1.369 . S
C847 C849 1.419 . S
C847 H851 0.930 . S
C848 C847 1.369 . S
C848 C857 1.429 . S
C849 C847 1.419 . S
C849 C850 1.363 . S
C849 H852 0.929 . S
C850 C849 1.363 . S
C850 C856 1.428 . S
H851 C847 0.930 . S
H852 C849 0.929 . S
S853 N854 1.613 . S
S853 N855 1.610 . S
N854 S853 1.613 . S
N854 C857 1.350 . S
N855 S853 1.610 . S
N855 C856 1.351 . S
C856 C850 1.428 . S
C856 N855 1.351 . S
C856 C857 1.434 . S
C857 C848 1.429 . S
C857 N854 1.350 . S
C857 C856 1.434 . S
C858 C859 1.369 . S
C858 C860 1.419 . S
C858 H862 0.930 . S
C859 C858 1.369 . S
C859 C868 1.429 . S
C860 C858 1.419 . S
C860 C861 1.363 . S
C860 H863 0.929 . S
C861 C860 1.363 . S
C861 C867 1.428 . S
H862 C858 0.930 . S
H863 C860 0.929 . S
S864 N865 1.613 . S
S864 N866 1.610 . S
N865 S864 1.613 . S
N865 C868 1.350 . S
N866 S864 1.610 . S
N866 C867 1.351 . S
C867 C861 1.428 . S
C867 N866 1.351 . S
C867 C868 1.434 . S
C868 C859 1.429 . S
C868 N865 1.350 . S
C868 C867 1.434 . S
C869 C870 1.369 . S
C869 C871 1.419 . S
C869 H873 0.930 . S
C870 C869 1.369 . S
C870 C879 1.429 . S
C871 C869 1.419 . S
C871 C872 1.363 . S
C871 H874 0.929 . S
C872 C871 1.363 . S
C872 C878 1.428 . S
H873 C869 0.930 . S
H874 C871 0.929 . S
S875 N876 1.613 . S
S875 N877 1.610 . S
N876 S875 1.613 . S
N876 C879 1.350 . S
N877 S875 1.610 . S
N877 C878 1.351 . S
C878 C872 1.428 . S
C878 N877 1.351 . S
C878 C879 1.434 . S
C879 C870 1.429 . S
C879 N876 1.350 . S
C879 C878 1.434 . S
C880 C881 1.369 . S
C880 C882 1.419 . S
C880 H884 0.930 . S
C881 C880 1.369 . S
C881 C890 1.429 . S
C882 C880 1.419 . S
C882 C883 1.363 . S
C882 H885 0.929 . S
C883 C882 1.363 . S
C883 C889 1.428 . S
H884 C880 0.930 . S
H885 C882 0.929 . S
S886 N887 1.613 . S
S886 N888 1.610 . S
N887 S886 1.613 . S
N887 C890 1.350 . S
N888 S886 1.610 . S
N888 C889 1.351 . S
C889 C883 1.428 . S
C889 N888 1.351 . S
C889 C890 1.434 . S
C890 C881 1.429 . S
C890 N887 1.350 . S
C890 C889 1.434 . S
C891 C892 1.369 . S
C891 C893 1.419 . S
C891 H895 0.930 . S
C892 C891 1.369 . S
C892 C901 1.429 . S
C893 C891 1.419 . S
C893 C894 1.363 . S
C893 H896 0.929 . S
C894 C893 1.363 . S
C894 C900 1.428 . S
H895 C891 0.930 . S
H896 C893 0.929 . S
S897 N898 1.613 . S
S897 N899 1.610 . S
N898 S897 1.613 . S
N898 C901 1.350 . S
N899 S897 1.610 . S
N899 C900 1.351 . S
C900 C894 1.428 . S
C900 N899 1.351 . S
C900 C901 1.434 . S
C901 C892 1.429 . S
C901 N898 1.350 . S
C901 C900 1.434 . S
C902 C903 1.369 . S
C902 C904 1.419 . S
C902 H906 0.930 . S
C903 C902 1.369 . S
C903 C912 1.429 . S
C904 C902 1.419 . S
C904 C905 1.363 . S
C904 H907 0.929 . S
C905 C904 1.363 . S
C905 C911 1.428 . S
H906 C902 0.930 . S
H907 C904 0.929 . S
S908 N909 1.613 . S
S908 N910 1.610 . S
N909 S908 1.613 . S
N909 C912 1.350 . S
N910 S908 1.610 . S
N910 C911 1.351 . S
C911 C905 1.428 . S
C911 N910 1.351 . S
C911 C912 1.434 . S
C912 C903 1.429 . S
C912 N909 1.350 . S
C912 C911 1.434 . S
C913 C914 1.369 . S
C913 C915 1.419 . S
C913 H917 0.930 . S
C914 C913 1.369 . S
C914 C923 1.429 . S
C915 C913 1.419 . S
C915 C916 1.363 . S
C915 H918 0.929 . S
C916 C915 1.363 . S
C916 C922 1.428 . S
H917 C913 0.930 . S
H918 C915 0.929 . S
S919 N920 1.613 . S
S919 N921 1.610 . S
N920 S919 1.613 . S
N920 C923 1.350 . S
N921 S919 1.610 . S
N921 C922 1.351 . S
C922 C916 1.428 . S
C922 N921 1.351 . S
C922 C923 1.434 . S
C923 C914 1.429 . S
C923 N920 1.350 . S
C923 C922 1.434 . S
C924 C925 1.369 . S
C924 C926 1.419 . S
C924 H928 0.930 . S
C925 C924 1.369 . S
C925 C934 1.429 . S
C926 C924 1.419 . S
C926 C927 1.363 . S
C926 H929 0.929 . S
C927 C926 1.363 . S
C927 C933 1.428 . S
H928 C924 0.930 . S
H929 C926 0.929 . S
S930 N931 1.613 . S
S930 N932 1.610 . S
N931 S930 1.613 . S
N931 C934 1.350 . S
N932 S930 1.610 . S
N932 C933 1.351 . S
C933 C927 1.428 . S
C933 N932 1.351 . S
C933 C934 1.434 . S
C934 C925 1.429 . S
C934 N931 1.350 . S
C934 C933 1.434 . S
C935 C936 1.369 . S
C935 C937 1.419 . S
C935 H939 0.930 . S
C936 C935 1.369 . S
C936 C945 1.429 . S
C937 C935 1.419 . S
C937 C938 1.363 . S
C937 H940 0.929 . S
C938 C937 1.363 . S
C938 C944 1.428 . S
H939 C935 0.930 . S
H940 C937 0.929 . S
S941 N942 1.613 . S
S941 N943 1.610 . S
N942 S941 1.613 . S
N942 C945 1.350 . S
N943 S941 1.610 . S
N943 C944 1.351 . S
C944 C938 1.428 . S
C944 N943 1.351 . S
C944 C945 1.434 . S
C945 C936 1.429 . S
C945 N942 1.350 . S
C945 C944 1.434 . S
C946 C947 1.369 . S
C946 C948 1.419 . S
C946 H950 0.930 . S
C947 C946 1.369 . S
C947 C956 1.429 . S
C948 C946 1.419 . S
C948 C949 1.363 . S
C948 H951 0.929 . S
C949 C948 1.363 . S
C949 C955 1.428 . S
H950 C946 0.930 . S
H951 C948 0.929 . S
S952 N953 1.613 . S
S952 N954 1.610 . S
N953 S952 1.613 . S
N953 C956 1.350 . S
N954 S952 1.610 . S
N954 C955 1.351 . S
C955 C949 1.428 . S
C955 N954 1.351 . S
C955 C956 1.434 . S
C956 C947 1.429 . S
C956 N953 1.350 . S
C956 C955 1.434 . S
C957 C958 1.369 . S
C957 C959 1.419 . S
C957 H961 0.930 . S
C958 C957 1.369 . S
C958 C967 1.429 . S
C959 C957 1.419 . S
C959 C960 1.363 . S
C959 H962 0.929 . S
C960 C959 1.363 . S
C960 C966 1.428 . S
H961 C957 0.930 . S
H962 C959 0.929 . S
S963 N964 1.613 . S
S963 N965 1.610 . S
N964 S963 1.613 . S
N964 C967 1.350 . S
N965 S963 1.610 . S
N965 C966 1.351 . S
C966 C960 1.428 . S
C966 N965 1.351 . S
C966 C967 1.434 . S
C967 C958 1.429 . S
C967 N964 1.350 . S
C967 C966 1.434 . S
C968 C969 1.369 . S
C968 C970 1.419 . S
C968 H972 0.930 . S
C969 C968 1.369 . S
C969 C978 1.429 . S
C970 C968 1.419 . S
C970 C971 1.363 . S
C970 H973 0.929 . S
C971 C970 1.363 . S
C971 C977 1.428 . S
H972 C968 0.930 . S
H973 C970 0.929 . S
S974 N975 1.613 . S
S974 N976 1.610 . S
N975 S974 1.613 . S
N975 C978 1.350 . S
N976 S974 1.610 . S
N976 C977 1.351 . S
C977 C971 1.428 . S
C977 N976 1.351 . S
C977 C978 1.434 . S
C978 C969 1.429 . S
C978 N975 1.350 . S
C978 C977 1.434 . S
C979 C980 1.369 . S
C979 C981 1.419 . S
C979 H983 0.930 . S
C980 C979 1.369 . S
C980 C989 1.429 . S
C981 C979 1.419 . S
C981 C982 1.363 . S
C981 H984 0.929 . S
C982 C981 1.363 . S
C982 C988 1.428 . S
H983 C979 0.930 . S
H984 C981 0.929 . S
S985 N986 1.613 . S
S985 N987 1.610 . S
N986 S985 1.613 . S
N986 C989 1.350 . S
N987 S985 1.610 . S
N987 C988 1.351 . S
C988 C982 1.428 . S
C988 N987 1.351 . S
C988 C989 1.434 . S
C989 C980 1.429 . S
C989 N986 1.350 . S
C989 C988 1.434 . S
C990 C991 1.369 . S
C990 C992 1.419 . S
C990 H994 0.930 . S
C991 C990 1.369 . S
C991 C1000 1.429 . S
C992 C990 1.419 . S
C992 C993 1.363 . S
C992 H995 0.929 . S
C993 C992 1.363 . S
C993 C999 1.428 . S
H994 C990 0.930 . S
H995 C992 0.929 . S
S996 N997 1.613 . S
S996 N998 1.610 . S
N997 S996 1.613 . S
N997 C1000 1.350 . S
N998 S996 1.610 . S
N998 C999 1.351 . S
C999 C993 1.428 . S
C999 N998 1.351 . S
C999 C1000 1.434 . S
C1000 C991 1.429 . S
C1000 N997 1.350 . S
C1000 C999 1.434 . S
C1001 C1002 1.369 . S
C1001 C1003 1.419 . S
C1001 H1005 0.930 . S
C1002 C1001 1.369 . S
C1002 C1011 1.429 . S
C1003 C1001 1.419 . S
C1003 C1004 1.363 . S
C1003 H1006 0.929 . S
C1004 C1003 1.363 . S
C1004 C1010 1.428 . S
H1005 C1001 0.930 . S
H1006 C1003 0.929 . S
S1007 N1008 1.613 . S
S1007 N1009 1.610 . S
N1008 S1007 1.613 . S
N1008 C1011 1.350 . S
N1009 S1007 1.610 . S
N1009 C1010 1.351 . S
C1010 C1004 1.428 . S
C1010 N1009 1.351 . S
C1010 C1011 1.434 . S
C1011 C1002 1.429 . S
C1011 N1008 1.350 . S
C1011 C1010 1.434 . S
C1012 C1013 1.369 . S
C1012 C1014 1.419 . S
C1012 H1016 0.930 . S
C1013 C1012 1.369 . S
C1013 C1022 1.429 . S
C1014 C1012 1.419 . S
C1014 C1015 1.363 . S
C1014 H1017 0.929 . S
C1015 C1014 1.363 . S
C1015 C1021 1.428 . S
H1016 C1012 0.930 . S
H1017 C1014 0.929 . S
S1018 N1019 1.613 . S
S1018 N1020 1.610 . S
N1019 S1018 1.613 . S
N1019 C1022 1.350 . S
N1020 S1018 1.610 . S
N1020 C1021 1.351 . S
C1021 C1015 1.428 . S
C1021 N1020 1.351 . S
C1021 C1022 1.434 . S
C1022 C1013 1.429 . S
C1022 N1019 1.350 . S
C1022 C1021 1.434 . S
C1023 C1024 1.369 . S
C1023 C1025 1.419 . S
C1023 H1027 0.930 . S
C1024 C1023 1.369 . S
C1024 C1033 1.429 . S
C1025 C1023 1.419 . S
C1025 C1026 1.363 . S
C1025 H1028 0.929 . S
C1026 C1025 1.363 . S
C1026 C1032 1.428 . S
H1027 C1023 0.930 . S
H1028 C1025 0.929 . S
S1029 N1030 1.613 . S
S1029 N1031 1.610 . S
N1030 S1029 1.613 . S
N1030 C1033 1.350 . S
N1031 S1029 1.610 . S
N1031 C1032 1.351 . S
C1032 C1026 1.428 . S
C1032 N1031 1.351 . S
C1032 C1033 1.434 . S
C1033 C1024 1.429 . S
C1033 N1030 1.350 . S
C1033 C1032 1.434 . S
C1034 C1035 1.369 . S
C1034 C1036 1.419 . S
C1034 H1038 0.930 . S
C1035 C1034 1.369 . S
C1035 C1044 1.429 . S
C1036 C1034 1.419 . S
C1036 C1037 1.363 . S
C1036 H1039 0.929 . S
C1037 C1036 1.363 . S
C1037 C1043 1.428 . S
H1038 C1034 0.930 . S
H1039 C1036 0.929 . S
S1040 N1041 1.613 . S
S1040 N1042 1.610 . S
N1041 S1040 1.613 . S
N1041 C1044 1.350 . S
N1042 S1040 1.610 . S
N1042 C1043 1.351 . S
C1043 C1037 1.428 . S
C1043 N1042 1.351 . S
C1043 C1044 1.434 . S
C1044 C1035 1.429 . S
C1044 N1041 1.350 . S
C1044 C1043 1.434 . S
C1045 C1046 1.369 . S
C1045 C1047 1.419 . S
C1045 H1049 0.930 . S
C1046 C1045 1.369 . S
C1046 C1055 1.429 . S
C1047 C1045 1.419 . S
C1047 C1048 1.363 . S
C1047 H1050 0.929 . S
C1048 C1047 1.363 . S
C1048 C1054 1.428 . S
H1049 C1045 0.930 . S
H1050 C1047 0.929 . S
S1051 N1052 1.613 . S
S1051 N1053 1.610 . S
N1052 S1051 1.613 . S
N1052 C1055 1.350 . S
N1053 S1051 1.610 . S
N1053 C1054 1.351 . S
C1054 C1048 1.428 . S
C1054 N1053 1.351 . S
C1054 C1055 1.434 . S
C1055 C1046 1.429 . S
C1055 N1052 1.350 . S
C1055 C1054 1.434 . S
C1056 C1057 1.369 . S
C1056 C1058 1.419 . S
C1056 H1060 0.930 . S
C1057 C1056 1.369 . S
C1057 C1066 1.429 . S
C1058 C1056 1.419 . S
C1058 C1059 1.363 . S
C1058 H1061 0.929 . S
C1059 C1058 1.363 . S
C1059 C1065 1.428 . S
H1060 C1056 0.930 . S
H1061 C1058 0.929 . S
S1062 N1063 1.613 . S
S1062 N1064 1.610 . S
N1063 S1062 1.613 . S
N1063 C1066 1.350 . S
N1064 S1062 1.610 . S
N1064 C1065 1.351 . S
C1065 C1059 1.428 . S
C1065 N1064 1.351 . S
C1065 C1066 1.434 . S
C1066 C1057 1.429 . S
C1066 N1063 1.350 . S
C1066 C1065 1.434 . S
C1067 C1068 1.369 . S
C1067 C1069 1.419 . S
C1067 H1071 0.930 . S
C1068 C1067 1.369 . S
C1068 C1077 1.429 . S
C1069 C1067 1.419 . S
C1069 C1070 1.363 . S
C1069 H1072 0.929 . S
C1070 C1069 1.363 . S
C1070 C1076 1.428 . S
H1071 C1067 0.930 . S
H1072 C1069 0.929 . S
S1073 N1074 1.613 . S
S1073 N1075 1.610 . S
N1074 S1073 1.613 . S
N1074 C1077 1.350 . S
N1075 S1073 1.610 . S
N1075 C1076 1.351 . S
C1076 C1070 1.428 . S
C1076 N1075 1.351 . S
C1076 C1077 1.434 . S
C1077 C1068 1.429 . S
C1077 N1074 1.350 . S
C1077 C1076 1.434 . S
C1078 C1079 1.369 . S
C1078 C1080 1.419 . S
C1078 H1082 0.930 . S
C1079 C1078 1.369 . S
C1079 C1088 1.429 . S
C1080 C1078 1.419 . S
C1080 C1081 1.363 . S
C1080 H1083 0.929 . S
C1081 C1080 1.363 . S
C1081 C1087 1.428 . S
H1082 C1078 0.930 . S
H1083 C1080 0.929 . S
S1084 N1085 1.613 . S
S1084 N1086 1.610 . S
N1085 S1084 1.613 . S
N1085 C1088 1.350 . S
N1086 S1084 1.610 . S
N1086 C1087 1.351 . S
C1087 C1081 1.428 . S
C1087 N1086 1.351 . S
C1087 C1088 1.434 . S
C1088 C1079 1.429 . S
C1088 N1085 1.350 . S
C1088 C1087 1.434 . S
C1089 C1090 1.369 . S
C1089 C1091 1.419 . S
C1089 H1093 0.930 . S
C1090 C1089 1.369 . S
C1090 C1099 1.429 . S
C1091 C1089 1.419 . S
C1091 C1092 1.363 . S
C1091 H1094 0.929 . S
C1092 C1091 1.363 . S
C1092 C1098 1.428 . S
H1093 C1089 0.930 . S
H1094 C1091 0.929 . S
S1095 N1096 1.613 . S
S1095 N1097 1.610 . S
N1096 S1095 1.613 . S
N1096 C1099 1.350 . S
N1097 S1095 1.610 . S
N1097 C1098 1.351 . S
C1098 C1092 1.428 . S
C1098 N1097 1.351 . S
C1098 C1099 1.434 . S
C1099 C1090 1.429 . S
C1099 N1096 1.350 . S
C1099 C1098 1.434 . S
C1100 C1101 1.369 . S
C1100 C1102 1.419 . S
C1100 H1104 0.930 . S
C1101 C1100 1.369 . S
C1101 C1110 1.429 . S
C1102 C1100 1.419 . S
C1102 C1103 1.363 . S
C1102 H1105 0.929 . S
C1103 C1102 1.363 . S
C1103 C1109 1.428 . S
H1104 C1100 0.930 . S
H1105 C1102 0.929 . S
S1106 N1107 1.613 . S
S1106 N1108 1.610 . S
N1107 S1106 1.613 . S
N1107 C1110 1.350 . S
N1108 S1106 1.610 . S
N1108 C1109 1.351 . S
C1109 C1103 1.428 . S
C1109 N1108 1.351 . S
C1109 C1110 1.434 . S
C1110 C1101 1.429 . S
C1110 N1107 1.350 . S
C1110 C1109 1.434 . S
C1111 C1112 1.369 . S
C1111 C1113 1.419 . S
C1111 H1115 0.930 . S
C1112 C1111 1.369 . S
C1112 C1121 1.429 . S
C1113 C1111 1.419 . S
C1113 C1114 1.363 . S
C1113 H1116 0.929 . S
C1114 C1113 1.363 . S
C1114 C1120 1.428 . S
H1115 C1111 0.930 . S
H1116 C1113 0.929 . S
S1117 N1118 1.613 . S
S1117 N1119 1.610 . S
N1118 S1117 1.613 . S
N1118 C1121 1.350 . S
N1119 S1117 1.610 . S
N1119 C1120 1.351 . S
C1120 C1114 1.428 . S
C1120 N1119 1.351 . S
C1120 C1121 1.434 . S
C1121 C1112 1.429 . S
C1121 N1118 1.350 . S
C1121 C1120 1.434 . S
C1122 C1123 1.369 . S
C1122 C1124 1.419 . S
C1122 H1126 0.930 . S
C1123 C1122 1.369 . S
C1123 C1132 1.429 . S
C1124 C1122 1.419 . S
C1124 C1125 1.363 . S
C1124 H1127 0.929 . S
C1125 C1124 1.363 . S
C1125 C1131 1.428 . S
H1126 C1122 0.930 . S
H1127 C1124 0.929 . S
S1128 N1129 1.613 . S
S1128 N1130 1.610 . S
N1129 S1128 1.613 . S
N1129 C1132 1.350 . S
N1130 S1128 1.610 . S
N1130 C1131 1.351 . S
C1131 C1125 1.428 . S
C1131 N1130 1.351 . S
C1131 C1132 1.434 . S
C1132 C1123 1.429 . S
C1132 N1129 1.350 . S
C1132 C1131 1.434 . S
C1133 C1134 1.369 . S
C1133 C1135 1.419 . S
C1133 H1137 0.930 . S
C1134 C1133 1.369 . S
C1134 C1143 1.429 . S
C1135 C1133 1.419 . S
C1135 C1136 1.363 . S
C1135 H1138 0.929 . S
C1136 C1135 1.363 . S
C1136 C1142 1.428 . S
H1137 C1133 0.930 . S
H1138 C1135 0.929 . S
S1139 N1140 1.613 . S
S1139 N1141 1.610 . S
N1140 S1139 1.613 . S
N1140 C1143 1.350 . S
N1141 S1139 1.610 . S
N1141 C1142 1.351 . S
C1142 C1136 1.428 . S
C1142 N1141 1.351 . S
C1142 C1143 1.434 . S
C1143 C1134 1.429 . S
C1143 N1140 1.350 . S
C1143 C1142 1.434 . S
C1144 C1145 1.369 . S
C1144 C1146 1.419 . S
C1144 H1148 0.930 . S
C1145 C1144 1.369 . S
C1145 C1154 1.429 . S
C1146 C1144 1.419 . S
C1146 C1147 1.363 . S
C1146 H1149 0.929 . S
C1147 C1146 1.363 . S
C1147 C1153 1.428 . S
H1148 C1144 0.930 . S
H1149 C1146 0.929 . S
S1150 N1151 1.613 . S
S1150 N1152 1.610 . S
N1151 S1150 1.613 . S
N1151 C1154 1.350 . S
N1152 S1150 1.610 . S
N1152 C1153 1.351 . S
C1153 C1147 1.428 . S
C1153 N1152 1.351 . S
C1153 C1154 1.434 . S
C1154 C1145 1.429 . S
C1154 N1151 1.350 . S
C1154 C1153 1.434 . S
C1155 C1156 1.369 . S
C1155 C1157 1.419 . S
C1155 H1159 0.930 . S
C1156 C1155 1.369 . S
C1156 C1165 1.429 . S
C1157 C1155 1.419 . S
C1157 C1158 1.363 . S
C1157 H1160 0.929 . S
C1158 C1157 1.363 . S
C1158 C1164 1.428 . S
H1159 C1155 0.930 . S
H1160 C1157 0.929 . S
S1161 N1162 1.613 . S
S1161 N1163 1.610 . S
N1162 S1161 1.613 . S
N1162 C1165 1.350 . S
N1163 S1161 1.610 . S
N1163 C1164 1.351 . S
C1164 C1158 1.428 . S
C1164 N1163 1.351 . S
C1164 C1165 1.434 . S
C1165 C1156 1.429 . S
C1165 N1162 1.350 . S
C1165 C1164 1.434 . S
C1166 C1167 1.369 . S
C1166 C1168 1.419 . S
C1166 H1170 0.930 . S
C1167 C1166 1.369 . S
C1167 C1176 1.429 . S
C1168 C1166 1.419 . S
C1168 C1169 1.363 . S
C1168 H1171 0.929 . S
C1169 C1168 1.363 . S
C1169 C1175 1.428 . S
H1170 C1166 0.930 . S
H1171 C1168 0.929 . S
S1172 N1173 1.613 . S
S1172 N1174 1.610 . S
N1173 S1172 1.613 . S
N1173 C1176 1.350 . S
N1174 S1172 1.610 . S
N1174 C1175 1.351 . S
C1175 C1169 1.428 . S
C1175 N1174 1.351 . S
C1175 C1176 1.434 . S
C1176 C1167 1.429 . S
C1176 N1173 1.350 . S
C1176 C1175 1.434 . S
C1177 C1178 1.369 . S
C1177 C1179 1.419 . S
C1177 H1181 0.930 . S
C1178 C1177 1.369 . S
C1178 C1187 1.429 . S
C1179 C1177 1.419 . S
C1179 C1180 1.363 . S
C1179 H1182 0.929 . S
C1180 C1179 1.363 . S
C1180 C1186 1.428 . S
H1181 C1177 0.930 . S
H1182 C1179 0.929 . S
S1183 N1184 1.613 . S
S1183 N1185 1.610 . S
N1184 S1183 1.613 . S
N1184 C1187 1.350 . S
N1185 S1183 1.610 . S
N1185 C1186 1.351 . S
C1186 C1180 1.428 . S
C1186 N1185 1.351 . S
C1186 C1187 1.434 . S
C1187 C1178 1.429 . S
C1187 N1184 1.350 . S
C1187 C1186 1.434 . S
C1188 C1189 1.369 . S
C1188 C1190 1.419 . S
C1188 H1192 0.930 . S
C1189 C1188 1.369 . S
C1189 C1198 1.429 . S
C1190 C1188 1.419 . S
C1190 C1191 1.363 . S
C1190 H1193 0.929 . S
C1191 C1190 1.363 . S
C1191 C1197 1.428 . S
H1192 C1188 0.930 . S
H1193 C1190 0.929 . S
S1194 N1195 1.613 . S
S1194 N1196 1.610 . S
N1195 S1194 1.613 . S
N1195 C1198 1.350 . S
N1196 S1194 1.610 . S
N1196 C1197 1.351 . S
C1197 C1191 1.428 . S
C1197 N1196 1.351 . S
C1197 C1198 1.434 . S
C1198 C1189 1.429 . S
C1198 N1195 1.350 . S
C1198 C1197 1.434 . S
C1199 C1200 1.369 . S
C1199 C1201 1.419 . S
C1199 H1203 0.930 . S
C1200 C1199 1.369 . S
C1200 C1209 1.429 . S
C1201 C1199 1.419 . S
C1201 C1202 1.363 . S
C1201 H1204 0.929 . S
C1202 C1201 1.363 . S
C1202 C1208 1.428 . S
H1203 C1199 0.930 . S
H1204 C1201 0.929 . S
S1205 N1206 1.613 . S
S1205 N1207 1.610 . S
N1206 S1205 1.613 . S
N1206 C1209 1.350 . S
N1207 S1205 1.610 . S
N1207 C1208 1.351 . S
C1208 C1202 1.428 . S
C1208 N1207 1.351 . S
C1208 C1209 1.434 . S
C1209 C1200 1.429 . S
C1209 N1206 1.350 . S
C1209 C1208 1.434 . S
C1210 C1211 1.369 . S
C1210 C1212 1.419 . S
C1210 H1214 0.930 . S
C1211 C1210 1.369 . S
C1211 C1220 1.429 . S
C1212 C1210 1.419 . S
C1212 C1213 1.363 . S
C1212 H1215 0.929 . S
C1213 C1212 1.363 . S
C1213 C1219 1.428 . S
H1214 C1210 0.930 . S
H1215 C1212 0.929 . S
S1216 N1217 1.613 . S
S1216 N1218 1.610 . S
N1217 S1216 1.613 . S
N1217 C1220 1.350 . S
N1218 S1216 1.610 . S
N1218 C1219 1.351 . S
C1219 C1213 1.428 . S
C1219 N1218 1.351 . S
C1219 C1220 1.434 . S
C1220 C1211 1.429 . S
C1220 N1217 1.350 . S
C1220 C1219 1.434 . S
C1221 C1222 1.369 . S
C1221 C1223 1.419 . S
C1221 H1225 0.930 . S
C1222 C1221 1.369 . S
C1222 C1231 1.429 . S
C1223 C1221 1.419 . S
C1223 C1224 1.363 . S
C1223 H1226 0.929 . S
C1224 C1223 1.363 . S
C1224 C1230 1.428 . S
H1225 C1221 0.930 . S
H1226 C1223 0.929 . S
S1227 N1228 1.613 . S
S1227 N1229 1.610 . S
N1228 S1227 1.613 . S
N1228 C1231 1.350 . S
N1229 S1227 1.610 . S
N1229 C1230 1.351 . S
C1230 C1224 1.428 . S
C1230 N1229 1.351 . S
C1230 C1231 1.434 . S
C1231 C1222 1.429 . S
C1231 N1228 1.350 . S
C1231 C1230 1.434 . S
C1232 C1233 1.369 . S
C1232 C1234 1.419 1_565 S
C1232 H1236 0.930 . S
C1233 C1232 1.369 . S
C1233 C1242 1.429 . S
C1234 C1232 1.419 1_545 S
C1234 C1235 1.363 . S
C1234 H1237 0.929 . S
C1235 C1234 1.363 . S
C1235 C1241 1.428 . S
H1236 C1232 0.930 . S
H1237 C1234 0.929 . S
S1238 N1239 1.612 . S
S1238 N1240 1.611 1_565 S
N1239 S1238 1.612 . S
N1239 C1242 1.350 . S
N1240 S1238 1.611 1_545 S
N1240 C1241 1.351 . S
C1241 C1235 1.428 . S
C1241 N1240 1.351 . S
C1241 C1242 1.434 1_545 S
C1242 C1233 1.429 . S
C1242 N1239 1.350 . S
C1242 C1241 1.434 1_565 S
C1243 C1244 1.369 . S
C1243 C1245 1.419 1_655 S
C1243 H1247 0.930 . S
C1244 C1243 1.369 . S
C1244 C1253 1.429 . S
C1245 C1243 1.419 1_455 S
C1245 C1246 1.363 . S
C1245 H1248 0.929 . S
C1246 C1245 1.363 . S
C1246 C1252 1.428 . S
H1247 C1243 0.930 . S
H1248 C1245 0.929 . S
S1249 N1250 1.617 . S
S1249 N1251 1.607 1_655 S
N1250 S1249 1.617 . S
N1250 C1253 1.350 . S
N1251 S1249 1.607 1_455 S
N1251 C1252 1.351 . S
C1252 C1246 1.428 . S
C1252 N1251 1.351 . S
C1252 C1253 1.434 1_455 S
C1253 C1244 1.429 . S
C1253 N1250 1.350 . S
C1253 C1252 1.434 1_655 S
C1254 C1255 1.369 . S
C1254 C1256 1.419 1_545 S
C1254 H1258 0.930 . S
C1255 C1254 1.369 . S
C1255 C1264 1.429 . S
C1256 C1254 1.419 1_565 S
C1256 C1257 1.363 . S
C1256 H1259 0.929 . S
C1257 C1256 1.363 . S
C1257 C1263 1.428 . S
H1258 C1254 0.930 . S
H1259 C1256 0.929 . S
S1260 N1261 1.601 1_565 S
S1260 N1262 1.622 . S
N1261 S1260 1.601 1_545 S
N1261 C1264 1.350 . S
N1262 S1260 1.622 . S
N1262 C1263 1.351 . S
C1263 C1257 1.428 . S
C1263 N1262 1.351 . S
C1263 C1264 1.434 1_565 S
C1264 C1255 1.429 . S
C1264 N1261 1.350 . S
C1264 C1263 1.434 1_545 S
C1265 C1266 1.369 . S
C1265 C1267 1.419 1_655 S
C1265 H1269 0.930 . S
C1266 C1265 1.369 . S
C1266 C1275 1.429 . S
C1267 C1265 1.419 1_455 S
C1267 C1268 1.363 . S
C1267 H1270 0.929 . S
C1268 C1267 1.363 . S
C1268 C1274 1.428 . S
H1269 C1265 0.930 . S
H1270 C1267 0.929 . S
S1271 N1272 1.605 1_455 S
S1271 N1273 1.618 . S
N1272 S1271 1.605 1_655 S
N1272 C1275 1.350 . S
N1273 S1271 1.618 . S
N1273 C1274 1.351 . S
C1274 C1268 1.428 . S
C1274 N1273 1.351 . S
C1274 C1275 1.434 1_455 S
C1275 C1266 1.429 . S
C1275 N1272 1.350 . S
C1275 C1274 1.434 1_655 S
C1276 C1277 1.369 . S
C1276 C1278 1.419 1_545 S
C1276 H1280 0.930 . S
C1277 C1276 1.369 . S
C1277 C1286 1.429 . S
C1278 C1276 1.419 1_565 S
C1278 C1279 1.363 . S
C1278 H1281 0.929 . S
C1279 C1278 1.363 . S
C1279 C1285 1.428 . S
H1280 C1276 0.930 . S
H1281 C1278 0.929 . S
S1282 N1283 1.609 1_565 S
S1282 N1284 1.614 . S
N1283 S1282 1.609 1_545 S
N1283 C1286 1.350 . S
N1284 S1282 1.614 . S
N1284 C1285 1.351 . S
C1285 C1279 1.428 . S
C1285 N1284 1.351 . S
C1285 C1286 1.434 1_565 S
C1286 C1277 1.429 . S
C1286 N1283 1.350 . S
C1286 C1285 1.434 1_545 S
C1287 C1288 1.369 . S
C1287 C1289 1.419 1_655 S
C1287 H1291 0.930 . S
C1288 C1287 1.369 . S
C1288 C1297 1.429 . S
C1289 C1287 1.419 1_455 S
C1289 C1290 1.363 . S
C1289 H1292 0.929 . S
C1290 C1289 1.363 . S
C1290 C1296 1.428 . S
H1291 C1287 0.930 . S
H1292 C1289 0.929 . S
S1293 N1294 1.620 . S
S1293 N1295 1.604 1_655 S
N1294 S1293 1.620 . S
N1294 C1297 1.350 . S
N1295 S1293 1.604 1_455 S
N1295 C1296 1.351 . S
C1296 C1290 1.428 . S
C1296 N1295 1.351 . S
C1296 C1297 1.434 1_455 S
C1297 C1288 1.429 . S
C1297 N1294 1.350 . S
C1297 C1296 1.434 1_655 S
C1298 C1299 1.369 . S
C1298 C1300 1.419 1_545 S
C1298 H1302 0.930 . S
C1299 C1298 1.369 . S
C1299 C1308 1.429 . S
C1300 C1298 1.419 1_565 S
C1300 C1301 1.363 . S
C1300 H1303 0.929 . S
C1301 C1300 1.363 . S
C1301 C1307 1.428 . S
H1302 C1298 0.930 . S
H1303 C1300 0.929 . S
S1304 N1305 1.613 . S
S1304 N1306 1.610 1_545 S
N1305 S1304 1.613 . S
N1305 C1308 1.350 . S
N1306 S1304 1.610 1_565 S
N1306 C1307 1.351 . S
C1307 C1301 1.428 . S
C1307 N1306 1.351 . S
C1307 C1308 1.434 1_565 S
C1308 C1299 1.429 . S
C1308 N1305 1.350 . S
C1308 C1307 1.434 1_545 S
C1309 C1310 1.369 . S
C1309 C1311 1.419 1_655 S
C1309 H1313 0.930 . S
C1310 C1309 1.369 . S
C1310 C1319 1.429 . S
C1311 C1309 1.419 1_455 S
C1311 C1312 1.363 . S
C1311 H1314 0.929 . S
C1312 C1311 1.363 . S
C1312 C1318 1.428 . S
H1313 C1309 0.930 . S
H1314 C1311 0.929 . S
S1315 N1316 1.612 . S
S1315 N1317 1.611 1_655 S
N1316 S1315 1.612 . S
N1316 C1319 1.350 . S
N1317 S1315 1.611 1_455 S
N1317 C1318 1.351 . S
C1318 C1312 1.428 . S
C1318 N1317 1.351 . S
C1318 C1319 1.434 1_455 S
C1319 C1310 1.429 . S
C1319 N1316 1.350 . S
C1319 C1318 1.434 1_655 S
C1320 C1321 1.369 . S
C1320 C1322 1.419 1_554 S
C1320 H1324 0.930 . S
C1321 C1320 1.369 . S
C1321 C1330 1.429 . S
C1322 C1320 1.419 1_556 S
C1322 C1323 1.363 . S
C1322 H1325 0.929 . S
C1323 C1322 1.363 . S
C1323 C1329 1.428 . S
H1324 C1320 0.930 . S
H1325 C1322 0.929 . S
S1326 N1327 1.604 1_556 S
S1326 N1328 1.620 . S
N1327 S1326 1.604 1_554 S
N1327 C1330 1.350 . S
N1328 S1326 1.620 . S
N1328 C1329 1.351 . S
C1329 C1323 1.428 . S
C1329 N1328 1.351 . S
C1329 C1330 1.434 1_556 S
C1330 C1321 1.429 . S
C1330 N1327 1.350 . S
C1330 C1329 1.434 1_554 S
C1331 C1332 1.369 . S
C1331 C1333 1.419 1_556 S
C1331 H1335 0.930 . S
C1332 C1331 1.369 . S
C1332 C1341 1.429 . S
C1333 C1331 1.419 1_554 S
C1333 C1334 1.363 . S
C1333 H1336 0.929 . S
C1334 C1333 1.363 . S
C1334 C1340 1.428 . S
H1335 C1331 0.930 . S
H1336 C1333 0.929 . S
S1337 N1338 1.613 . S
S1337 N1339 1.611 1_556 S
N1338 S1337 1.613 . S
N1338 C1341 1.350 . S
N1339 S1337 1.611 1_554 S
N1339 C1340 1.351 . S
C1340 C1334 1.428 . S
C1340 N1339 1.351 . S
C1340 C1341 1.434 1_554 S
C1341 C1332 1.429 . S
C1341 N1338 1.350 . S
C1341 C1340 1.434 1_556 S
C1342 C1343 1.369 . S
C1342 C1344 1.419 1_556 S
C1342 H1346 0.930 . S
C1343 C1342 1.369 . S
C1343 C1352 1.429 . S
C1344 C1342 1.419 1_554 S
C1344 C1345 1.363 . S
C1344 H1347 0.929 . S
C1345 C1344 1.363 . S
C1345 C1351 1.428 . S
H1346 C1342 0.930 . S
H1347 C1344 0.929 . S
S1348 N1349 1.621 . S
S1348 N1350 1.603 1_556 S
N1349 S1348 1.621 . S
N1349 C1352 1.350 . S
N1350 S1348 1.603 1_554 S
N1350 C1351 1.351 . S
C1351 C1345 1.428 . S
C1351 N1350 1.351 . S
C1351 C1352 1.434 1_554 S
C1352 C1343 1.429 . S
C1352 N1349 1.350 . S
C1352 C1351 1.434 1_556 S
C1353 C1354 1.369 . S
C1353 C1355 1.419 1_554 S
C1353 H1357 0.930 . S
C1354 C1353 1.369 . S
C1354 C1363 1.429 . S
C1355 C1353 1.419 1_556 S
C1355 C1356 1.363 . S
C1355 H1358 0.929 . S
C1356 C1355 1.363 . S
C1356 C1362 1.428 . S
H1357 C1353 0.930 . S
H1358 C1355 0.929 . S
S1359 N1360 1.613 . S
S1359 N1361 1.611 1_554 S
N1360 S1359 1.613 . S
N1360 C1363 1.350 . S
N1361 S1359 1.611 1_556 S
N1361 C1362 1.351 . S
C1362 C1356 1.428 . S
C1362 N1361 1.351 . S
C1362 C1363 1.434 1_556 S
C1363 C1354 1.429 . S
C1363 N1360 1.350 . S
C1363 C1362 1.434 1_554 S
C1364 C1365 1.369 . S
C1364 C1366 1.419 1_556 S
C1364 H1368 0.930 . S
C1365 C1364 1.369 . S
C1365 C1374 1.429 . S
C1366 C1364 1.419 1_554 S
C1366 C1367 1.363 . S
C1366 H1369 0.929 . S
C1367 C1366 1.363 . S
C1367 C1373 1.428 . S
H1368 C1364 0.930 . S
H1369 C1366 0.929 . S
S1370 N1371 1.613 . S
S1370 N1372 1.611 1_556 S
N1371 S1370 1.613 . S
N1371 C1374 1.350 . S
N1372 S1370 1.611 1_554 S
N1372 C1373 1.351 . S
C1373 C1367 1.428 . S
C1373 N1372 1.351 . S
C1373 C1374 1.434 1_554 S
C1374 C1365 1.429 . S
C1374 N1371 1.350 . S
C1374 C1373 1.434 1_556 S
C1375 C1376 1.369 . S
C1375 C1377 1.419 1_554 S
C1375 H1379 0.930 . S
C1376 C1375 1.369 . S
C1376 C1385 1.429 . S
C1377 C1375 1.419 1_556 S
C1377 C1378 1.363 . S
C1377 H1380 0.929 . S
C1378 C1377 1.363 . S
C1378 C1384 1.428 . S
H1379 C1375 0.930 . S
H1380 C1377 0.929 . S
S1381 N1382 1.603 1_556 S
S1381 N1383 1.620 . S
N1382 S1381 1.603 1_554 S
N1382 C1385 1.350 . S
N1383 S1381 1.620 . S
N1383 C1384 1.351 . S
C1384 C1378 1.428 . S
C1384 N1383 1.351 . S
C1384 C1385 1.434 1_556 S
C1385 C1376 1.429 . S
C1385 N1382 1.350 . S
C1385 C1384 1.434 1_554 S
C1386 C1387 1.369 . S
C1386 C1388 1.419 1_554 S
C1386 H1390 0.930 . S
C1387 C1386 1.369 . S
C1387 C1396 1.429 . S
C1388 C1386 1.419 1_556 S
C1388 C1389 1.363 . S
C1388 H1391 0.929 . S
C1389 C1388 1.363 . S
C1389 C1395 1.428 . S
H1390 C1386 0.930 . S
H1391 C1388 0.929 . S
S1392 N1393 1.611 1_556 S
S1392 N1394 1.613 . S
N1393 S1392 1.611 1_554 S
N1393 C1396 1.350 . S
N1394 S1392 1.613 . S
N1394 C1395 1.351 . S
C1395 C1389 1.428 . S
C1395 N1394 1.351 . S
C1395 C1396 1.434 1_556 S
C1396 C1387 1.429 . S
C1396 N1393 1.350 . S
C1396 C1395 1.434 1_554 S
C1397 C1398 1.369 . S
C1397 C1399 1.419 1_556 S
C1397 H1401 0.930 . S
C1398 C1397 1.369 . S
C1398 C1407 1.429 . S
C1399 C1397 1.419 1_554 S
C1399 C1400 1.363 . S
C1399 H1402 0.929 . S
C1400 C1399 1.363 . S
C1400 C1406 1.428 . S
H1401 C1397 0.930 . S
H1402 C1399 0.929 . S
S1403 N1404 1.612 . S
S1403 N1405 1.611 1_556 S
N1404 S1403 1.612 . S
N1404 C1407 1.350 . S
N1405 S1403 1.611 1_554 S
N1405 C1406 1.351 . S
C1406 C1400 1.428 . S
C1406 N1405 1.351 . S
C1406 C1407 1.434 1_554 S
C1407 C1398 1.429 . S
C1407 N1404 1.350 . S
C1407 C1406 1.434 1_556 S
C1408 C1409 1.369 . S
C1408 C1410 1.419 1_455 S
C1408 H1412 0.930 . S
C1409 C1408 1.369 . S
C1409 C1418 1.429 . S
C1410 C1408 1.419 1_655 S
C1410 C1411 1.363 . S
C1410 H1413 0.929 . S
C1411 C1410 1.363 . S
C1411 C1417 1.428 . S
H1412 C1408 0.930 . S
H1413 C1410 0.929 . S
S1414 N1415 1.605 1_655 S
S1414 N1416 1.619 . S
N1415 S1414 1.605 1_455 S
N1415 C1418 1.350 . S
N1416 S1414 1.619 . S
N1416 C1417 1.351 . S
C1417 C1411 1.428 . S
C1417 N1416 1.351 . S
C1417 C1418 1.434 1_655 S
C1418 C1409 1.429 . S
C1418 N1415 1.350 . S
C1418 C1417 1.434 1_455 S
C1419 C1420 1.369 . S
C1419 C1421 1.419 1_455 S
C1419 H1423 0.930 . S
C1420 C1419 1.369 . S
C1420 C1429 1.429 . S
C1421 C1419 1.419 1_655 S
C1421 C1422 1.363 . S
C1421 H1424 0.929 . S
C1422 C1421 1.363 . S
C1422 C1428 1.428 . S
H1423 C1419 0.930 . S
H1424 C1421 0.929 . S
S1425 N1426 1.604 1_655 S
S1425 N1427 1.620 . S
N1426 S1425 1.604 1_455 S
N1426 C1429 1.350 . S
N1427 S1425 1.620 . S
N1427 C1428 1.351 . S
C1428 C1422 1.428 . S
C1428 N1427 1.351 . S
C1428 C1429 1.434 1_655 S
C1429 C1420 1.429 . S
C1429 N1426 1.350 . S
C1429 C1428 1.434 1_455 S
C1430 C1431 1.369 . S
C1430 C1432 1.419 1_565 S
C1430 H1434 0.930 . S
C1431 C1430 1.369 . S
C1431 C1440 1.429 . S
C1432 C1430 1.419 1_545 S
C1432 C1433 1.363 . S
C1432 H1435 0.929 . S
C1433 C1432 1.363 . S
C1433 C1439 1.428 . S
H1434 C1430 0.930 . S
H1435 C1432 0.929 . S
S1436 N1437 1.615 . S
S1436 N1438 1.608 1_565 S
N1437 S1436 1.615 . S
N1437 C1440 1.350 . S
N1438 S1436 1.608 1_545 S
N1438 C1439 1.351 . S
C1439 C1433 1.428 . S
C1439 N1438 1.351 . S
C1439 C1440 1.434 1_545 S
C1440 C1431 1.429 . S
C1440 N1437 1.350 . S
C1440 C1439 1.434 1_565 S
C1441 C1442 1.369 . S
C1441 C1443 1.419 1_455 S
C1441 H1445 0.930 . S
C1442 C1441 1.369 . S
C1442 C1451 1.429 . S
C1443 C1441 1.419 1_655 S
C1443 C1444 1.363 . S
C1443 H1446 0.929 . S
C1444 C1443 1.363 . S
C1444 C1450 1.428 . S
H1445 C1441 0.930 . S
H1446 C1443 0.929 . S
S1447 N1448 1.603 1_655 S
S1447 N1449 1.621 . S
N1448 S1447 1.603 1_455 S
N1448 C1451 1.350 . S
N1449 S1447 1.621 . S
N1449 C1450 1.351 . S
C1450 C1444 1.428 . S
C1450 N1449 1.351 . S
C1450 C1451 1.434 1_655 S
C1451 C1442 1.429 . S
C1451 N1448 1.350 . S
C1451 C1450 1.434 1_455 S
C1452 C1453 1.369 . S
C1452 C1454 1.419 1_565 S
C1452 H1456 0.930 . S
C1453 C1452 1.369 . S
C1453 C1462 1.429 . S
C1454 C1452 1.419 1_545 S
C1454 C1455 1.363 . S
C1454 H1457 0.929 . S
C1455 C1454 1.363 . S
C1455 C1461 1.428 . S
H1456 C1452 0.930 . S
H1457 C1454 0.929 . S
S1458 N1459 1.624 . S
S1458 N1460 1.600 1_565 S
N1459 S1458 1.624 . S
N1459 C1462 1.350 . S
N1460 S1458 1.600 1_545 S
N1460 C1461 1.351 . S
C1461 C1455 1.428 . S
C1461 N1460 1.351 . S
C1461 C1462 1.434 1_545 S
C1462 C1453 1.429 . S
C1462 N1459 1.350 . S
C1462 C1461 1.434 1_565 S
C1463 C1464 1.369 . S
C1463 C1465 1.419 1_655 S
C1463 H1467 0.930 . S
C1464 C1463 1.369 . S
C1464 C1473 1.429 . S
C1465 C1463 1.419 1_455 S
C1465 C1466 1.363 . S
C1465 H1468 0.929 . S
C1466 C1465 1.363 . S
C1466 C1472 1.428 . S
H1467 C1463 0.930 . S
H1468 C1465 0.929 . S
S1469 N1470 1.622 . S
S1469 N1471 1.602 1_655 S
N1470 S1469 1.622 . S
N1470 C1473 1.350 . S
N1471 S1469 1.602 1_455 S
N1471 C1472 1.351 . S
C1472 C1466 1.428 . S
C1472 N1471 1.351 . S
C1472 C1473 1.434 1_455 S
C1473 C1464 1.429 . S
C1473 N1470 1.350 . S
C1473 C1472 1.434 1_655 S
C1474 C1475 1.369 . S
C1474 C1476 1.419 1_565 S
C1474 H1478 0.930 . S
C1475 C1474 1.369 . S
C1475 C1484 1.429 . S
C1476 C1474 1.419 1_545 S
C1476 C1477 1.363 . S
C1476 H1479 0.929 . S
C1477 C1476 1.363 . S
C1477 C1483 1.428 . S
H1478 C1474 0.930 . S
H1479 C1476 0.929 . S
S1480 N1481 1.623 . S
S1480 N1482 1.600 1_565 S
N1481 S1480 1.623 . S
N1481 C1484 1.350 . S
N1482 S1480 1.600 1_545 S
N1482 C1483 1.351 . S
C1483 C1477 1.428 . S
C1483 N1482 1.351 . S
C1483 C1484 1.434 1_545 S
C1484 C1475 1.429 . S
C1484 N1481 1.350 . S
C1484 C1483 1.434 1_565 S
C1485 C1486 1.369 . S
C1485 C1487 1.419 1_565 S
C1485 H1489 0.930 . S
C1486 C1485 1.369 . S
C1486 C1495 1.429 . S
C1487 C1485 1.419 1_545 S
C1487 C1488 1.363 . S
C1487 H1490 0.929 . S
C1488 C1487 1.363 . S
C1488 C1494 1.428 . S
H1489 C1485 0.930 . S
H1490 C1487 0.929 . S
S1491 N1492 1.608 1_545 S
S1491 N1493 1.616 . S
N1492 S1491 1.608 1_565 S
N1492 C1495 1.350 . S
N1493 S1491 1.616 . S
N1493 C1494 1.351 . S
C1494 C1488 1.428 . S
C1494 N1493 1.351 . S
C1494 C1495 1.434 1_545 S
C1495 C1486 1.429 . S
C1495 N1492 1.350 . S
C1495 C1494 1.434 1_565 S
C1496 C1497 1.369 . S
C1496 C1498 1.419 . S
C1496 H1500 0.930 . S
C1497 C1496 1.369 . S
C1497 C1506 1.429 . S
C1498 C1496 1.419 . S
C1498 C1499 1.363 . S
C1498 H1501 0.929 . S
C1499 C1498 1.363 . S
C1499 C1505 1.428 . S
H1500 C1496 0.930 . S
H1501 C1498 0.929 . S
S1502 N1503 1.613 . S
S1502 N1504 1.610 . S
N1503 S1502 1.613 . S
N1503 C1506 1.350 . S
N1504 S1502 1.610 . S
N1504 C1505 1.351 . S
C1505 C1499 1.428 . S
C1505 N1504 1.351 . S
C1505 C1506 1.434 . S
C1506 C1497 1.429 . S
C1506 N1503 1.350 . S
C1506 C1505 1.434 . S
C1507 C1508 1.369 . S
C1507 C1509 1.419 . S
C1507 H1511 0.930 . S
C1508 C1507 1.369 . S
C1508 C1517 1.429 . S
C1509 C1507 1.419 . S
C1509 C1510 1.363 . S
C1509 H1512 0.929 . S
C1510 C1509 1.363 . S
C1510 C1516 1.428 . S
H1511 C1507 0.930 . S
H1512 C1509 0.929 . S
S1513 N1514 1.613 . S
S1513 N1515 1.610 . S
N1514 S1513 1.613 . S
N1514 C1517 1.350 . S
N1515 S1513 1.610 . S
N1515 C1516 1.351 . S
C1516 C1510 1.428 . S
C1516 N1515 1.351 . S
C1516 C1517 1.434 . S
C1517 C1508 1.429 . S
C1517 N1514 1.350 . S
C1517 C1516 1.434 . S
C1518 C1519 1.369 . S
C1518 C1520 1.419 . S
C1518 H1522 0.930 . S
C1519 C1518 1.369 . S
C1519 C1528 1.429 . S
C1520 C1518 1.419 . S
C1520 C1521 1.363 . S
C1520 H1523 0.929 . S
C1521 C1520 1.363 . S
C1521 C1527 1.428 . S
H1522 C1518 0.930 . S
H1523 C1520 0.929 . S
S1524 N1525 1.613 . S
S1524 N1526 1.610 . S
N1525 S1524 1.613 . S
N1525 C1528 1.350 . S
N1526 S1524 1.610 . S
N1526 C1527 1.351 . S
C1527 C1521 1.428 . S
C1527 N1526 1.351 . S
C1527 C1528 1.434 . S
C1528 C1519 1.429 . S
C1528 N1525 1.350 . S
C1528 C1527 1.434 . S
C1529 C1530 1.369 . S
C1529 C1531 1.419 . S
C1529 H1533 0.930 . S
C1530 C1529 1.369 . S
C1530 C1539 1.429 . S
C1531 C1529 1.419 . S
C1531 C1532 1.363 . S
C1531 H1534 0.929 . S
C1532 C1531 1.363 . S
C1532 C1538 1.428 . S
H1533 C1529 0.930 . S
H1534 C1531 0.929 . S
S1535 N1536 1.613 . S
S1535 N1537 1.610 . S
N1536 S1535 1.613 . S
N1536 C1539 1.350 . S
N1537 S1535 1.610 . S
N1537 C1538 1.351 . S
C1538 C1532 1.428 . S
C1538 N1537 1.351 . S
C1538 C1539 1.434 . S
C1539 C1530 1.429 . S
C1539 N1536 1.350 . S
C1539 C1538 1.434 . S
C1540 C1541 1.369 . S
C1540 C1542 1.419 . S
C1540 H1544 0.930 . S
C1541 C1540 1.369 . S
C1541 C1550 1.429 . S
C1542 C1540 1.419 . S
C1542 C1543 1.363 . S
C1542 H1545 0.929 . S
C1543 C1542 1.363 . S
C1543 C1549 1.428 . S
H1544 C1540 0.930 . S
H1545 C1542 0.929 . S
S1546 N1547 1.613 . S
S1546 N1548 1.610 . S
N1547 S1546 1.613 . S
N1547 C1550 1.350 . S
N1548 S1546 1.610 . S
N1548 C1549 1.351 . S
C1549 C1543 1.428 . S
C1549 N1548 1.351 . S
C1549 C1550 1.434 . S
C1550 C1541 1.429 . S
C1550 N1547 1.350 . S
C1550 C1549 1.434 . S
C1551 C1552 1.369 . S
C1551 C1553 1.419 . S
C1551 H1555 0.930 . S
C1552 C1551 1.369 . S
C1552 C1561 1.429 . S
C1553 C1551 1.419 . S
C1553 C1554 1.363 . S
C1553 H1556 0.929 . S
C1554 C1553 1.363 . S
C1554 C1560 1.428 . S
H1555 C1551 0.930 . S
H1556 C1553 0.929 . S
S1557 N1558 1.613 . S
S1557 N1559 1.610 . S
N1558 S1557 1.613 . S
N1558 C1561 1.350 . S
N1559 S1557 1.610 . S
N1559 C1560 1.351 . S
C1560 C1554 1.428 . S
C1560 N1559 1.351 . S
C1560 C1561 1.434 . S
C1561 C1552 1.429 . S
C1561 N1558 1.350 . S
C1561 C1560 1.434 . S
C1562 C1563 1.369 . S
C1562 C1564 1.419 . S
C1562 H1566 0.930 . S
C1563 C1562 1.369 . S
C1563 C1572 1.429 . S
C1564 C1562 1.419 . S
C1564 C1565 1.363 . S
C1564 H1567 0.929 . S
C1565 C1564 1.363 . S
C1565 C1571 1.428 . S
H1566 C1562 0.930 . S
H1567 C1564 0.929 . S
S1568 N1569 1.613 . S
S1568 N1570 1.610 . S
N1569 S1568 1.613 . S
N1569 C1572 1.350 . S
N1570 S1568 1.610 . S
N1570 C1571 1.351 . S
C1571 C1565 1.428 . S
C1571 N1570 1.351 . S
C1571 C1572 1.434 . S
C1572 C1563 1.429 . S
C1572 N1569 1.350 . S
C1572 C1571 1.434 . S
C1573 C1574 1.369 . S
C1573 C1575 1.419 . S
C1573 H1577 0.930 . S
C1574 C1573 1.369 . S
C1574 C1583 1.429 . S
C1575 C1573 1.419 . S
C1575 C1576 1.363 . S
C1575 H1578 0.929 . S
C1576 C1575 1.363 . S
C1576 C1582 1.428 . S
H1577 C1573 0.930 . S
H1578 C1575 0.929 . S
S1579 N1580 1.613 . S
S1579 N1581 1.610 . S
N1580 S1579 1.613 . S
N1580 C1583 1.350 . S
N1581 S1579 1.610 . S
N1581 C1582 1.351 . S
C1582 C1576 1.428 . S
C1582 N1581 1.351 . S
C1582 C1583 1.434 . S
C1583 C1574 1.429 . S
C1583 N1580 1.350 . S
C1583 C1582 1.434 . S
C1584 C1585 1.369 . S
C1584 C1586 1.419 . S
C1584 H1588 0.930 . S
C1585 C1584 1.369 . S
C1585 C1594 1.429 . S
C1586 C1584 1.419 . S
C1586 C1587 1.363 . S
C1586 H1589 0.929 . S
C1587 C1586 1.363 . S
C1587 C1593 1.428 . S
H1588 C1584 0.930 . S
H1589 C1586 0.929 . S
S1590 N1591 1.613 . S
S1590 N1592 1.610 . S
N1591 S1590 1.613 . S
N1591 C1594 1.350 . S
N1592 S1590 1.610 . S
N1592 C1593 1.351 . S
C1593 C1587 1.428 . S
C1593 N1592 1.351 . S
C1593 C1594 1.434 . S
C1594 C1585 1.429 . S
C1594 N1591 1.350 . S
C1594 C1593 1.434 . S
C1595 C1596 1.369 . S
C1595 C1597 1.419 . S
C1595 H1599 0.930 . S
C1596 C1595 1.369 . S
C1596 C1605 1.429 . S
C1597 C1595 1.419 . S
C1597 C1598 1.363 . S
C1597 H1600 0.929 . S
C1598 C1597 1.363 . S
C1598 C1604 1.428 . S
H1599 C1595 0.930 . S
H1600 C1597 0.929 . S
S1601 N1602 1.613 . S
S1601 N1603 1.610 . S
N1602 S1601 1.613 . S
N1602 C1605 1.350 . S
N1603 S1601 1.610 . S
N1603 C1604 1.351 . S
C1604 C1598 1.428 . S
C1604 N1603 1.351 . S
C1604 C1605 1.434 . S
C1605 C1596 1.429 . S
C1605 N1602 1.350 . S
C1605 C1604 1.434 . S
C1606 C1607 1.369 . S
C1606 C1608 1.419 . S
C1606 H1610 0.930 . S
C1607 C1606 1.369 . S
C1607 C1616 1.429 . S
C1608 C1606 1.419 . S
C1608 C1609 1.363 . S
C1608 H1611 0.929 . S
C1609 C1608 1.363 . S
C1609 C1615 1.428 . S
H1610 C1606 0.930 . S
H1611 C1608 0.929 . S
S1612 N1613 1.613 . S
S1612 N1614 1.610 . S
N1613 S1612 1.613 . S
N1613 C1616 1.350 . S
N1614 S1612 1.610 . S
N1614 C1615 1.351 . S
C1615 C1609 1.428 . S
C1615 N1614 1.351 . S
C1615 C1616 1.434 . S
C1616 C1607 1.429 . S
C1616 N1613 1.350 . S
C1616 C1615 1.434 . S
C1617 C1618 1.369 . S
C1617 C1619 1.419 . S
C1617 H1621 0.930 . S
C1618 C1617 1.369 . S
C1618 C1627 1.429 . S
C1619 C1617 1.419 . S
C1619 C1620 1.363 . S
C1619 H1622 0.929 . S
C1620 C1619 1.363 . S
C1620 C1626 1.428 . S
H1621 C1617 0.930 . S
H1622 C1619 0.929 . S
S1623 N1624 1.613 . S
S1623 N1625 1.610 . S
N1624 S1623 1.613 . S
N1624 C1627 1.350 . S
N1625 S1623 1.610 . S
N1625 C1626 1.351 . S
C1626 C1620 1.428 . S
C1626 N1625 1.351 . S
C1626 C1627 1.434 . S
C1627 C1618 1.429 . S
C1627 N1624 1.350 . S
C1627 C1626 1.434 . S
C1628 C1629 1.369 . S
C1628 C1630 1.419 . S
C1628 H1632 0.930 . S
C1629 C1628 1.369 . S
C1629 C1638 1.429 . S
C1630 C1628 1.419 . S
C1630 C1631 1.363 . S
C1630 H1633 0.929 . S
C1631 C1630 1.363 . S
C1631 C1637 1.428 . S
H1632 C1628 0.930 . S
H1633 C1630 0.929 . S
S1634 N1635 1.613 . S
S1634 N1636 1.610 . S
N1635 S1634 1.613 . S
N1635 C1638 1.350 . S
N1636 S1634 1.610 . S
N1636 C1637 1.351 . S
C1637 C1631 1.428 . S
C1637 N1636 1.351 . S
C1637 C1638 1.434 . S
C1638 C1629 1.429 . S
C1638 N1635 1.350 . S
C1638 C1637 1.434 . S
C1639 C1640 1.369 . S
C1639 C1641 1.419 . S
C1639 H1643 0.930 . S
C1640 C1639 1.369 . S
C1640 C1649 1.429 . S
C1641 C1639 1.419 . S
C1641 C1642 1.363 . S
C1641 H1644 0.929 . S
C1642 C1641 1.363 . S
C1642 C1648 1.428 . S
H1643 C1639 0.930 . S
H1644 C1641 0.929 . S
S1645 N1646 1.613 . S
S1645 N1647 1.610 . S
N1646 S1645 1.613 . S
N1646 C1649 1.350 . S
N1647 S1645 1.610 . S
N1647 C1648 1.351 . S
C1648 C1642 1.428 . S
C1648 N1647 1.351 . S
C1648 C1649 1.434 . S
C1649 C1640 1.429 . S
C1649 N1646 1.350 . S
C1649 C1648 1.434 . S
C1650 C1651 1.369 . S
C1650 C1652 1.419 . S
C1650 H1654 0.930 . S
C1651 C1650 1.369 . S
C1651 C1660 1.429 . S
C1652 C1650 1.419 . S
C1652 C1653 1.363 . S
C1652 H1655 0.929 . S
C1653 C1652 1.363 . S
C1653 C1659 1.428 . S
H1654 C1650 0.930 . S
H1655 C1652 0.929 . S
S1656 N1657 1.613 . S
S1656 N1658 1.610 . S
N1657 S1656 1.613 . S
N1657 C1660 1.350 . S
N1658 S1656 1.610 . S
N1658 C1659 1.351 . S
C1659 C1653 1.428 . S
C1659 N1658 1.351 . S
C1659 C1660 1.434 . S
C1660 C1651 1.429 . S
C1660 N1657 1.350 . S
C1660 C1659 1.434 . S
C1661 C1662 1.369 . S
C1661 C1663 1.419 . S
C1661 H1665 0.930 . S
C1662 C1661 1.369 . S
C1662 C1671 1.429 . S
C1663 C1661 1.419 . S
C1663 C1664 1.363 . S
C1663 H1666 0.929 . S
C1664 C1663 1.363 . S
C1664 C1670 1.428 . S
H1665 C1661 0.930 . S
H1666 C1663 0.929 . S
S1667 N1668 1.613 . S
S1667 N1669 1.610 . S
N1668 S1667 1.613 . S
N1668 C1671 1.350 . S
N1669 S1667 1.610 . S
N1669 C1670 1.351 . S
C1670 C1664 1.428 . S
C1670 N1669 1.351 . S
C1670 C1671 1.434 . S
C1671 C1662 1.429 . S
C1671 N1668 1.350 . S
C1671 C1670 1.434 . S
C1672 C1673 1.369 . S
C1672 C1674 1.419 . S
C1672 H1676 0.930 . S
C1673 C1672 1.369 . S
C1673 C1682 1.429 . S
C1674 C1672 1.419 . S
C1674 C1675 1.363 . S
C1674 H1677 0.929 . S
C1675 C1674 1.363 . S
C1675 C1681 1.428 . S
H1676 C1672 0.930 . S
H1677 C1674 0.929 . S
S1678 N1679 1.613 . S
S1678 N1680 1.610 . S
N1679 S1678 1.613 . S
N1679 C1682 1.350 . S
N1680 S1678 1.610 . S
N1680 C1681 1.351 . S
C1681 C1675 1.428 . S
C1681 N1680 1.351 . S
C1681 C1682 1.434 . S
C1682 C1673 1.429 . S
C1682 N1679 1.350 . S
C1682 C1681 1.434 . S
C1683 C1684 1.369 . S
C1683 C1685 1.419 . S
C1683 H1687 0.930 . S
C1684 C1683 1.369 . S
C1684 C1693 1.429 . S
C1685 C1683 1.419 . S
C1685 C1686 1.363 . S
C1685 H1688 0.929 . S
C1686 C1685 1.363 . S
C1686 C1692 1.428 . S
H1687 C1683 0.930 . S
H1688 C1685 0.929 . S
S1689 N1690 1.613 . S
S1689 N1691 1.610 . S
N1690 S1689 1.613 . S
N1690 C1693 1.350 . S
N1691 S1689 1.610 . S
N1691 C1692 1.351 . S
C1692 C1686 1.428 . S
C1692 N1691 1.351 . S
C1692 C1693 1.434 . S
C1693 C1684 1.429 . S
C1693 N1690 1.350 . S
C1693 C1692 1.434 . S
C1694 C1695 1.369 . S
C1694 C1696 1.419 . S
C1694 H1698 0.930 . S
C1695 C1694 1.369 . S
C1695 C1704 1.429 . S
C1696 C1694 1.419 . S
C1696 C1697 1.363 . S
C1696 H1699 0.929 . S
C1697 C1696 1.363 . S
C1697 C1703 1.428 . S
H1698 C1694 0.930 . S
H1699 C1696 0.929 . S
S1700 N1701 1.613 . S
S1700 N1702 1.610 . S
N1701 S1700 1.613 . S
N1701 C1704 1.350 . S
N1702 S1700 1.610 . S
N1702 C1703 1.351 . S
C1703 C1697 1.428 . S
C1703 N1702 1.351 . S
C1703 C1704 1.434 . S
C1704 C1695 1.429 . S
C1704 N1701 1.350 . S
C1704 C1703 1.434 . S
C1705 C1706 1.369 . S
C1705 C1707 1.419 . S
C1705 H1709 0.930 . S
C1706 C1705 1.369 . S
C1706 C1715 1.429 . S
C1707 C1705 1.419 . S
C1707 C1708 1.363 . S
C1707 H1710 0.929 . S
C1708 C1707 1.363 . S
C1708 C1714 1.428 . S
H1709 C1705 0.930 . S
H1710 C1707 0.929 . S
S1711 N1712 1.613 . S
S1711 N1713 1.610 . S
N1712 S1711 1.613 . S
N1712 C1715 1.350 . S
N1713 S1711 1.610 . S
N1713 C1714 1.351 . S
C1714 C1708 1.428 . S
C1714 N1713 1.351 . S
C1714 C1715 1.434 . S
C1715 C1706 1.429 . S
C1715 N1712 1.350 . S
C1715 C1714 1.434 . S
C1716 C1717 1.369 . S
C1716 C1718 1.419 . S
C1716 H1720 0.930 . S
C1717 C1716 1.369 . S
C1717 C1726 1.429 . S
C1718 C1716 1.419 . S
C1718 C1719 1.363 . S
C1718 H1721 0.929 . S
C1719 C1718 1.363 . S
C1719 C1725 1.428 . S
H1720 C1716 0.930 . S
H1721 C1718 0.929 . S
S1722 N1723 1.613 . S
S1722 N1724 1.610 . S
N1723 S1722 1.613 . S
N1723 C1726 1.350 . S
N1724 S1722 1.610 . S
N1724 C1725 1.351 . S
C1725 C1719 1.428 . S
C1725 N1724 1.351 . S
C1725 C1726 1.434 . S
C1726 C1717 1.429 . S
C1726 N1723 1.350 . S
C1726 C1725 1.434 . S
C1727 C1728 1.369 . S
C1727 C1729 1.419 . S
C1727 H1731 0.930 . S
C1728 C1727 1.369 . S
C1728 C1737 1.429 . S
C1729 C1727 1.419 . S
C1729 C1730 1.363 . S
C1729 H1732 0.929 . S
C1730 C1729 1.363 . S
C1730 C1736 1.428 . S
H1731 C1727 0.930 . S
H1732 C1729 0.929 . S
S1733 N1734 1.613 . S
S1733 N1735 1.610 . S
N1734 S1733 1.613 . S
N1734 C1737 1.350 . S
N1735 S1733 1.610 . S
N1735 C1736 1.351 . S
C1736 C1730 1.428 . S
C1736 N1735 1.351 . S
C1736 C1737 1.434 . S
C1737 C1728 1.429 . S
C1737 N1734 1.350 . S
C1737 C1736 1.434 . S
C1738 C1739 1.369 . S
C1738 C1740 1.419 . S
C1738 H1742 0.930 . S
C1739 C1738 1.369 . S
C1739 C1748 1.429 . S
C1740 C1738 1.419 . S
C1740 C1741 1.363 . S
C1740 H1743 0.929 . S
C1741 C1740 1.363 . S
C1741 C1747 1.428 . S
H1742 C1738 0.930 . S
H1743 C1740 0.929 . S
S1744 N1745 1.613 . S
S1744 N1746 1.610 . S
N1745 S1744 1.613 . S
N1745 C1748 1.350 . S
N1746 S1744 1.610 . S
N1746 C1747 1.351 . S
C1747 C1741 1.428 . S
C1747 N1746 1.351 . S
C1747 C1748 1.434 . S
C1748 C1739 1.429 . S
C1748 N1745 1.350 . S
C1748 C1747 1.434 . S
C1749 C1750 1.369 . S
C1749 C1751 1.419 . S
C1749 H1753 0.930 . S
C1750 C1749 1.369 . S
C1750 C1759 1.429 . S
C1751 C1749 1.419 . S
C1751 C1752 1.363 . S
C1751 H1754 0.929 . S
C1752 C1751 1.363 . S
C1752 C1758 1.428 . S
H1753 C1749 0.930 . S
H1754 C1751 0.929 . S
S1755 N1756 1.613 . S
S1755 N1757 1.610 . S
N1756 S1755 1.613 . S
N1756 C1759 1.350 . S
N1757 S1755 1.610 . S
N1757 C1758 1.351 . S
C1758 C1752 1.428 . S
C1758 N1757 1.351 . S
C1758 C1759 1.434 . S
C1759 C1750 1.429 . S
C1759 N1756 1.350 . S
C1759 C1758 1.434 . S
C705 C367 1.179 . S
C707 C21 1.179 . S
C716 C513 1.179 . S
C718 C37 1.180 . S
C727 C59 1.179 . S
C729 C469 1.180 . S
C738 C73 1.179 . S
C740 C491 1.179 . S
C749 C109 1.180 . S
C751 C389 1.179 . S
C760 C117 1.179 . S
C762 C411 1.179 . S
C771 C425 1.179 . S
C773 C139 1.180 . S
C782 C161 1.180 . S
C784 C447 1.180 . S
C793 C197 1.179 . S
C795 C15 1.179 . S
C804 C29 1.179 . S
C806 C219 1.179 . S
C815 C227 1.179 . S
C817 C51 1.179 . S
C826 C87 1.180 . S
C828 C263 1.179 . S
C837 C103 1.179 . S
C839 C271 1.179 . S
C848 C307 1.179 . S
C850 C131 1.180 . S
C859 C153 1.180 . S
C861 C329 1.180 . S
C870 C337 1.180 . S
C872 C175 1.179 . S
C881 C191 1.179 . S
C883 C373 1.179 . S
C892 C395 1.180 . S
C894 C285 1.180 . S
C903 C417 1.180 . S
C905 C301 1.180 . S
C914 C323 1.180 . S
C916 C433 1.179 . S
C925 C455 1.180 . S
C927 C351 1.180 . S
C936 C477 1.179 . S
C938 C241 1.179 . S
C947 C257 1.180 . S
C949 C499 1.179 . S
C958 C521 1.179 . S
C960 C213 1.179 . S
C969 C689 1.179 . S
C971 C345 1.179 . S
C980 C293 1.179 . S
C982 C667 1.179 . S
C991 C631 1.180 . S
C993 C249 1.180 . S
C1002 C653 1.179 . S
C1004 C205 1.180 . S
C1013 C381 1.179 . S
C1015 C549 1.179 . S
C1024 C439 1.180 . S
C1026 C557 1.180 . S
C1035 C579 1.179 . S
C1037 C359 1.179 . S
C1046 C601 1.180 . S
C1048 C483 1.180 . S
C1057 C543 1.180 . S
C1059 C95 1.179 . S
C1068 C593 1.180 . S
C1070 C7 1.180 . S
C1079 C81 1.179 . S
C1081 C637 1.179 . S
C1090 C615 1.180 . S
C1092 C65 1.180 . S
C1101 C659 1.179 . S
C1103 C43 1.179 . S
C1112 C147 1.179 . S
C1114 C571 1.180 . S
C1123 C675 1.180 . S
C1125 C125 1.179 . S
C1134 C169 1.179 . S
C1136 C697 1.179 . S
C1145 C315 1.179 . S
C1147 C565 1.180 . S
C1156 C279 1.180 . S
C1158 C535 1.180 . S
C1167 C609 1.180 . S
C1169 C235 1.180 . S
C1178 C587 1.179 . S
C1180 C183 1.179 . S
C1189 C403 1.180 . S
C1191 C681 1.179 . S
C1200 C461 1.180 . S
C1202 C703 1.179 . S
C1211 C645 1.180 . S
C1213 C527 1.179 . S
C1222 C505 1.179 . S
C1224 C623 1.180 . S
C1233 C84 1.553 . S
C1235 C10 1.553 . S
C1244 C40 1.555 . S
C1246 C8 1.554 . S
C1255 C32 1.554 . S
C1257 C62 1.554 . S
C1266 C54 1.555 . S
C1268 C74 1.555 . S
C1277 C128 1.553 . S
C1279 C98 1.553 . S
C1288 C150 1.554 . S
C1290 C118 1.554 . S
C1299 C140 1.553 . S
C1301 C172 1.553 . S
C1310 C162 1.555 . S
C1312 C96 1.554 . S
C1321 C186 1.555 . S
C1323 C404 1.555 . S
C1332 C428 1.555 . S
C1334 C208 1.554 . S
C1343 C450 1.554 . S
C1345 C228 1.554 . S
C1354 C252 1.555 . S
C1356 C382 1.554 . S
C1365 C272 1.555 . S
C1367 C494 1.554 . S
C1376 C360 1.554 . S
C1378 C296 1.555 . S
C1387 C516 1.555 . S
C1389 C318 1.555 . S
C1398 C338 1.555 . S
C1400 C472 1.554 . S
C1409 C362 1.555 . S
C1411 C206 1.555 . S
C1420 C384 1.555 . S
C1422 C348 1.555 . S
C1431 C282 1.555 . S
C1433 C406 1.554 . S
C1442 C294 1.554 . S
C1444 C436 1.554 . S
C1453 C458 1.554 . S
C1455 C316 1.553 . S
C1464 C480 1.554 . S
C1466 C250 1.554 . S
C1475 C502 1.554 . S
C1477 C184 1.554 . S
C1486 C238 1.553 . S
C1488 C524 1.553 . S
C1497 C392 1.553 . S
C1499 C304 1.553 . S
C1508 C340 1.553 . S
C1510 C426 1.554 . S
C1519 C370 1.553 . S
C1521 C260 1.553 . S
C1530 C216 1.553 . S
C1532 C470 1.553 . S
C1541 C538 1.553 . S
C1543 C624 1.554 . S
C1552 C52 1.553 . S
C1554 C164 1.553 . S
C1563 C558 1.554 . S
C1565 C646 1.554 . S
C1574 C120 1.555 . S
C1576 C18 1.554 . S
C1585 C670 1.553 . S
C1587 C580 1.553 . S
C1596 C76 1.554 . S
C1598 C106 1.554 . S
C1607 C602 1.555 . S
C1609 C692 1.555 . S
C1618 C142 1.555 . S
C1620 C30 1.555 . S
C1629 C626 1.555 . S
C1631 C590 1.555 . S
C1640 C612 1.553 . S
C1642 C648 1.554 . S
C1651 C536 1.553 . S
C1653 C678 1.553 . S
C1662 C568 1.554 . S
C1664 C700 1.554 . S
C1673 C414 1.555 . S
C1675 C326 1.554 . S
C1684 C448 1.555 . S
C1686 C274 1.555 . S
C1695 C194 1.555 . S
C1697 C514 1.555 . S
C1706 C230 1.555 . S
C1708 C492 1.555 . S
C1717 C668 1.555 . S
C1719 C560 1.554 . S
C1728 C634 1.553 . S
C1730 C604 1.553 . S
C1739 C656 1.555 . S
C1741 C582 1.554 . S
C1750 C546 1.555 . S
C1752 C690 1.554 . S
