# Generated by pormake.
# Topology wlb, (5)-cn, num edge types: 1
# Building blocks:
#     Node 0, Type 0, BuildingBlock: BEQFEK_clean_sbu_0, # of connection points: 5
#     Node 1, Type 0, BuildingBlock: BEQFEK_clean_sbu_0, # of connection points: 5
#     Node 2, Type 0, BuildingBlock: BEQFEK_clean_sbu_0, # of connection points: 5
#     Node 3, Type 0, BuildingBlock: BEQFEK_clean_sbu_0, # of connection points: 5
#     Node 4, Type 0, BuildingBlock: BEQFEK_clean_sbu_0, # of connection points: 5
#     Node 5, Type 0, BuildingBlock: BEQFEK_clean_sbu_0, # of connection points: 5
#     Node 6, Type 0, BuildingBlock: BEQFEK_clean_sbu_0, # of connection points: 5
#     Node 7, Type 0, BuildingBlock: BEQFEK_clean_sbu_0, # of connection points: 5
#     Node 8, Type 0, BuildingBlock: BEQFEK_clean_sbu_0, # of connection points: 5
#     Node 9, Type 0, BuildingBlock: BEQFEK_clean_sbu_0, # of connection points: 5
#     Node 10, Type 0, BuildingBlock: BEQFEK_clean_sbu_0, # of connection points: 5
#     Node 11, Type 0, BuildingBlock: BEQFEK_clean_sbu_0, # of connection points: 5
#     Node 12, Type 0, BuildingBlock: BEQFEK_clean_sbu_0, # of connection points: 5
#     Node 13, Type 0, BuildingBlock: BEQFEK_clean_sbu_0, # of connection points: 5
#     Node 14, Type 0, BuildingBlock: BEQFEK_clean_sbu_0, # of connection points: 5
#     Node 15, Type 0, BuildingBlock: BEQFEK_clean_sbu_0, # of connection points: 5
#     Node 16, Type 0, BuildingBlock: BEQFEK_clean_sbu_0, # of connection points: 5
#     Node 17, Type 0, BuildingBlock: BEQFEK_clean_sbu_0, # of connection points: 5
#     Edge 18, Type (0, 0), BuildingBlock: AJUNOK_clean_linker_0, # of connection points: 2
#     Edge 19, Type (0, 0), BuildingBlock: AJUNOK_clean_linker_0, # of connection points: 2
#     Edge 20, Type (0, 0), BuildingBlock: AJUNOK_clean_linker_0, # of connection points: 2
#     Edge 21, Type (0, 0), BuildingBlock: AJUNOK_clean_linker_0, # of connection points: 2
#     Edge 22, Type (0, 0), BuildingBlock: AJUNOK_clean_linker_0, # of connection points: 2
#     Edge 23, Type (0, 0), BuildingBlock: AJUNOK_clean_linker_0, # of connection points: 2
#     Edge 24, Type (0, 0), BuildingBlock: AJUNOK_clean_linker_0, # of connection points: 2
#     Edge 25, Type (0, 0), BuildingBlock: AJUNOK_clean_linker_0, # of connection points: 2
#     Edge 26, Type (0, 0), BuildingBlock: AJUNOK_clean_linker_0, # of connection points: 2
#     Edge 27, Type (0, 0), BuildingBlock: AJUNOK_clean_linker_0, # of connection points: 2
#     Edge 28, Type (0, 0), BuildingBlock: AJUNOK_clean_linker_0, # of connection points: 2
#     Edge 29, Type (0, 0), BuildingBlock: AJUNOK_clean_linker_0, # of connection points: 2
#     Edge 30, Type (0, 0), BuildingBlock: AJUNOK_clean_linker_0, # of connection points: 2
#     Edge 31, Type (0, 0), BuildingBlock: AJUNOK_clean_linker_0, # of connection points: 2
#     Edge 32, Type (0, 0), BuildingBlock: AJUNOK_clean_linker_0, # of connection points: 2
#     Edge 33, Type (0, 0), BuildingBlock: AJUNOK_clean_linker_0, # of connection points: 2
#     Edge 34, Type (0, 0), BuildingBlock: AJUNOK_clean_linker_0, # of connection points: 2
#     Edge 35, Type (0, 0), BuildingBlock: AJUNOK_clean_linker_0, # of connection points: 2
#     Edge 36, Type (0, 0), BuildingBlock: AJUNOK_clean_linker_0, # of connection points: 2
#     Edge 37, Type (0, 0), BuildingBlock: AJUNOK_clean_linker_0, # of connection points: 2
#     Edge 38, Type (0, 0), BuildingBlock: AJUNOK_clean_linker_0, # of connection points: 2
#     Edge 39, Type (0, 0), BuildingBlock: AJUNOK_clean_linker_0, # of connection points: 2
#     Edge 40, Type (0, 0), BuildingBlock: AJUNOK_clean_linker_0, # of connection points: 2
#     Edge 41, Type (0, 0), BuildingBlock: AJUNOK_clean_linker_0, # of connection points: 2
#     Edge 42, Type (0, 0), BuildingBlock: AJUNOK_clean_linker_0, # of connection points: 2
#     Edge 43, Type (0, 0), BuildingBlock: AJUNOK_clean_linker_0, # of connection points: 2
#     Edge 44, Type (0, 0), BuildingBlock: AJUNOK_clean_linker_0, # of connection points: 2
#     Edge 45, Type (0, 0), BuildingBlock: AJUNOK_clean_linker_0, # of connection points: 2
#     Edge 46, Type (0, 0), BuildingBlock: AJUNOK_clean_linker_0, # of connection points: 2
#     Edge 47, Type (0, 0), BuildingBlock: AJUNOK_clean_linker_0, # of connection points: 2
#     Edge 48, Type (0, 0), BuildingBlock: AJUNOK_clean_linker_0, # of connection points: 2
#     Edge 49, Type (0, 0), BuildingBlock: AJUNOK_clean_linker_0, # of connection points: 2
#     Edge 50, Type (0, 0), BuildingBlock: AJUNOK_clean_linker_0, # of connection points: 2
#     Edge 51, Type (0, 0), BuildingBlock: AJUNOK_clean_linker_0, # of connection points: 2
#     Edge 52, Type (0, 0), BuildingBlock: AJUNOK_clean_linker_0, # of connection points: 2
#     Edge 53, Type (0, 0), BuildingBlock: AJUNOK_clean_linker_0, # of connection points: 2
#     Edge 54, Type (0, 0), BuildingBlock: AJUNOK_clean_linker_0, # of connection points: 2
#     Edge 55, Type (0, 0), BuildingBlock: AJUNOK_clean_linker_0, # of connection points: 2
#     Edge 56, Type (0, 0), BuildingBlock: AJUNOK_clean_linker_0, # of connection points: 2
#     Edge 57, Type (0, 0), BuildingBlock: AJUNOK_clean_linker_0, # of connection points: 2
#     Edge 58, Type (0, 0), BuildingBlock: AJUNOK_clean_linker_0, # of connection points: 2
#     Edge 59, Type (0, 0), BuildingBlock: AJUNOK_clean_linker_0, # of connection points: 2
#     Edge 60, Type (0, 0), BuildingBlock: AJUNOK_clean_linker_0, # of connection points: 2
#     Edge 61, Type (0, 0), BuildingBlock: AJUNOK_clean_linker_0, # of connection points: 2
#     Edge 62, Type (0, 0), BuildingBlock: AJUNOK_clean_linker_0, # of connection points: 2
# Relax obj value: 0.428
# Max RMSD: 0.225
# Mean RMSD: 0.224
data_MOF--net-wlb--node1-BEQFEK_clean_sbu_0--edge1-AJUNOK_clean_linker_0
_symmetry_space_group_name_H-M    P1
_symmetry_Int_Tables_number       1
_symmetry_cell_setting            triclinic
loop_
_symmetry_equiv_pos_as_xyz
'x, y, z'
_cell_length_a     41.743173
_cell_length_b     41.923481
_cell_length_c     26.822137
_cell_angle_alpha  89.969306
_cell_angle_beta   89.777321
_cell_angle_gamma 120.27316
loop_
_atom_site_label
_atom_site_type_symbol
_atom_site_fract_x
_atom_site_fract_y
_atom_site_fract_z
_atom_type_partial_charge
Co0 Co 0.07072 0.15254 0.2014 0.0
Co1 Co 0.03548 0.19537 0.18339 0.0
C2 C 0.04138 0.165 0.09711 0.0
O3 O 0.0506 0.14634 0.12595 0.0
O4 O 0.04204 0.19346 0.11376 0.0
C5 C 0.07855 0.09326 0.19706 0.0
O6 O 0.04767 0.08403 0.17314 0.0
C7 C 0.00909 0.24402 0.16585 0.0
C8 C 0.98213 0.24235 0.23809 0.0
C9 C 0.9906 0.25797 0.19112 0.0
N10 N 0.01255 0.22124 0.19682 0.0
N11 N 0.99683 0.22032 0.24011 0.0
C12 C 0.02117 0.25056 0.11219 0.0
H13 H 0.05025 0.2569 0.10873 0.0
H14 H 0.01902 0.27365 0.09561 0.0
H15 H 0.0033 0.22514 0.09057 0.0
C16 C 0.1197 0.2216 0.26996 0.0
N17 N 0.09529 0.2015 0.23315 0.0
N18 N 0.08117 0.22087 0.2163 0.0
C19 C 0.09813 0.25469 0.23695 0.0
C20 C 0.12225 0.25658 0.27426 0.0
C21 C 0.13634 0.20574 0.30404 0.0
H22 H 0.12081 0.17512 0.30177 0.0
H23 H 0.16544 0.21582 0.29244 0.0
H24 H 0.13627 0.21457 0.34302 0.0
O25 O 0.02604 0.12003 0.2398 0.0
O26 O 0.99649 0.14384 0.20259 0.0
H27 H 0.06907 0.28491 0.23475 0.0
H28 H 0.11855 0.31302 0.22602 0.0
C29 C 0.09374 0.28588 0.21764 0.0
H30 H 0.0898 0.28342 0.17674 0.0
H31 H 0.99579 0.20434 0.27058 0.0
O32 O 0.09891 0.12673 0.2102 0.0
C33 C 0.9958 0.1174 0.22645 0.0
Co34 Co 0.82466 0.89653 0.21097 0.0
Co35 Co 0.78957 0.81356 0.223 0.0
C36 C 0.80952 0.83995 0.12359 0.0
O37 O 0.82346 0.8726 0.1422 0.0
O38 O 0.78935 0.81103 0.1498 0.0
C39 C 0.87725 0.96901 0.18997 0.0
O40 O 0.89154 0.95075 0.1688 0.0
C41 C 0.74993 0.73617 0.25186 0.0
C42 C 0.76018 0.74183 0.33354 0.0
C43 C 0.74063 0.71691 0.29648 0.0
N44 N 0.77283 0.77158 0.26225 0.0
N45 N 0.77934 0.77489 0.3108 0.0
C46 C 0.73672 0.72145 0.20048 0.0
H47 H 0.75283 0.74263 0.17181 0.0
H48 H 0.70699 0.71291 0.19687 0.0
H49 H 0.73945 0.69681 0.19388 0.0
C50 C 0.75478 0.87953 0.27489 0.0
N51 N 0.7777 0.8714 0.24822 0.0
N52 N 0.76228 0.83539 0.2471 0.0
C53 C 0.72883 0.81962 0.27008 0.0
C54 C 0.72279 0.84666 0.28971 0.0
C55 C 0.7638 0.91772 0.28816 0.0
H56 H 0.78535 0.93826 0.26272 0.0
H57 H 0.73838 0.91988 0.28672 0.0
H58 H 0.77443 0.9237 0.3269 0.0
O59 O 0.86681 0.89532 0.24393 0.0
O60 O 0.84284 0.83587 0.23407 0.0
H61 H 0.70801 0.76728 0.30605 0.0
H62 H 0.67308 0.77323 0.27606 0.0
C63 C 0.70203 0.77895 0.27267 0.0
H64 H 0.70445 0.76534 0.23866 0.0
H65 H 0.79597 0.80006 0.32865 0.0
O66 O 0.84442 0.95096 0.2073 0.0
C67 C 0.8707 0.86719 0.24226 0.0
Co68 Co 0.08292 0.90285 0.20372 0.0
Co69 Co 0.16398 0.95551 0.22288 0.0
C70 C 0.14391 0.95297 0.12155 0.0
O71 O 0.11011 0.93089 0.13614 0.0
O72 O 0.1709 0.96263 0.15158 0.0
C73 C 0.01237 0.88454 0.17768 0.0
O74 O 0.03321 0.91401 0.15047 0.0
C75 C 0.2395 0.00436 0.2539 0.0
C76 C 0.23357 0.99663 0.33611 0.0
C77 C 0.25879 0.01461 0.2983 0.0
N78 N 0.20412 0.9811 0.26483 0.0
N79 N 0.20038 0.97708 0.31385 0.0
C80 C 0.25449 0.01391 0.20175 0.0
H81 H 0.25714 0.9908 0.18628 0.0
H82 H 0.28203 0.03942 0.20052 0.0
H83 H 0.23497 0.01761 0.17788 0.0
C84 C 0.10355 0.8531 0.27036 0.0
N85 N 0.10903 0.88264 0.24215 0.0
N86 N 0.14474 0.90557 0.24007 0.0
C87 C 0.16324 0.89063 0.26135 0.0
C88 C 0.1383 0.85721 0.28442 0.0
C89 C 0.06596 0.82349 0.28688 0.0
H90 H 0.04554 0.83287 0.2826 0.0
H91 H 0.057 0.79873 0.26326 0.0
H92 H 0.06668 0.81586 0.32631 0.0
O93 O 0.07917 0.94105 0.2416 0.0
O94 O 0.1381 0.98222 0.23798 0.0
H95 H 0.21995 0.92651 0.28379 0.0
H96 H 0.21145 0.88441 0.25417 0.0
C97 C 0.20423 0.90653 0.25392 0.0
H98 H 0.21307 0.92166 0.2179 0.0
H99 H 0.17524 0.95995 0.33196 0.0
O100 O 0.02787 0.86821 0.19784 0.0
C101 C 0.10511 0.97415 0.24581 0.0
Co102 Co 0.16529 0.07115 0.83756 0.0
Co103 Co 0.20852 0.03223 0.83312 0.0
C104 C 0.18342 0.03478 0.93032 0.0
O105 O 0.16662 0.05053 0.91046 0.0
O106 O 0.20577 0.02921 0.90455 0.0
C107 C 0.13881 0.1272 0.82241 0.0
O108 O 0.17193 0.15683 0.82141 0.0
C109 C 0.25738 0.00318 0.81887 0.0
C110 C 0.24784 0.98826 0.73882 0.0
C111 C 0.26683 0.98753 0.78044 0.0
N112 N 0.23399 0.01297 0.80079 0.0
N113 N 0.22906 0.00504 0.75273 0.0
C114 C 0.26702 0.00496 0.87303 0.0
H115 H 0.2603 0.02369 0.8935 0.0
H116 H 0.29707 0.01541 0.87757 0.0
H117 H 0.25149 0.97688 0.88963 0.0
C118 C 0.23365 0.12483 0.76712 0.0
N119 N 0.21308 0.09698 0.8004 0.0
N120 N 0.23267 0.08157 0.8113 0.0
C121 C 0.26675 0.10067 0.79076 0.0
C122 C 0.26876 0.12808 0.75973 0.0
C123 C 0.21899 0.14534 0.73875 0.0
H124 H 0.18821 0.12972 0.7389 0.0
H125 H 0.22901 0.17266 0.75642 0.0
H126 H 0.22954 0.15021 0.69979 0.0
O127 O 0.12818 0.02583 0.80429 0.0
O128 O 0.15688 0.9949 0.81473 0.0
H129 H 0.2984 0.07382 0.77695 0.0
H130 H 0.32513 0.12021 0.79924 0.0
C131 C 0.29807 0.09417 0.80287 0.0
H132 H 0.29484 0.08334 0.84143 0.0
H133 H 0.21153 0.00964 0.73003 0.0
O134 O 0.13527 0.09587 0.8318 0.0
C135 C 0.12765 0.99544 0.80448 0.0
Co136 Co 0.92282 0.0842 0.8177 0.0
Co137 Co 0.96838 0.16783 0.80903 0.0
C138 C 0.95868 0.1248 0.90765 0.0
O139 O 0.93288 0.09303 0.89333 0.0
O140 O 0.97143 0.15159 0.87714 0.0
C141 C 0.8705 0.00098 0.81154 0.0
O142 O 0.84468 0.00349 0.8364 0.0
C143 C 0.96772 0.22644 0.8557 0.0
C144 C 0.01838 0.27555 0.82805 0.0
C145 C 0.98955 0.26356 0.86232 0.0
N146 N 0.98269 0.21645 0.81918 0.0
N147 N 0.01255 0.24586 0.80167 0.0
C148 C 0.93625 0.20022 0.88846 0.0
H149 H 0.91991 0.17285 0.87047 0.0
H150 H 0.91799 0.2117 0.89693 0.0
H151 H 0.94743 0.19691 0.92434 0.0
C152 C 0.86664 0.10122 0.75951 0.0
N153 N 0.89896 0.10945 0.78308 0.0
N154 N 0.92138 0.14523 0.77851 0.0
C155 C 0.90498 0.16059 0.75224 0.0
C156 C 0.8694 0.13368 0.73909 0.0
C157 C 0.83402 0.06308 0.75572 0.0
H158 H 0.84349 0.04367 0.74457 0.0
H159 H 0.82066 0.05429 0.79294 0.0
H160 H 0.81348 0.06196 0.72855 0.0
O161 O 0.97586 0.10391 0.79452 0.0
O162 O 0.00603 0.16291 0.77319 0.0
H163 H 0.95303 0.21173 0.73049 0.0
H164 H 0.9098 0.20576 0.70712 0.0
C165 C 0.92332 0.20082 0.73935 0.0
H166 H 0.92128 0.21612 0.77177 0.0
H167 H 0.03029 0.24519 0.77472 0.0
O168 O 0.90091 0.03027 0.80129 0.0
C169 C 0.00519 0.1324 0.77847 0.0
Co170 Co 0.90387 0.82364 0.83616 0.0
Co171 Co 0.82045 0.77915 0.82917 0.0
C172 C 0.84966 0.80719 0.92707 0.0
O173 O 0.88302 0.822 0.90956 0.0
O174 O 0.82243 0.78651 0.89963 0.0
C175 C 0.98919 0.85401 0.82438 0.0
O176 O 0.98823 0.82288 0.81438 0.0
C177 C 0.74278 0.72691 0.83486 0.0
C178 C 0.72377 0.73763 0.76332 0.0
C179 C 0.71152 0.7191 0.80835 0.0
N180 N 0.77224 0.7501 0.80766 0.0
N181 N 0.76097 0.75528 0.76405 0.0
C182 C 0.74425 0.71595 0.8877 0.0
H183 H 0.77272 0.72369 0.89877 0.0
H184 H 0.72667 0.68557 0.89176 0.0
H185 H 0.73286 0.72864 0.91313 0.0
C186 C 0.88983 0.75735 0.76303 0.0
N187 N 0.88181 0.77626 0.79789 0.0
N188 N 0.84643 0.7559 0.80809 0.0
C189 C 0.83196 0.72285 0.78565 0.0
C190 C 0.85795 0.72251 0.75365 0.0
C191 C 0.92561 0.77374 0.73497 0.0
H192 H 0.9402 0.80434 0.73673 0.0
H193 H 0.94342 0.76406 0.75195 0.0
H194 H 0.92064 0.76456 0.69552 0.0
O195 O 0.89431 0.86041 0.80401 0.0
O196 O 0.83358 0.82858 0.8022 0.0
H197 H 0.77287 0.69186 0.77425 0.0
H198 H 0.79309 0.66414 0.78969 0.0
C199 C 0.79419 0.6907 0.79734 0.0
H200 H 0.78749 0.69132 0.83716 0.0
H201 H 0.77861 0.77323 0.73656 0.0
O202 O 0.95919 0.85386 0.83342 0.0
C203 C 0.86367 0.85884 0.79596 0.0
Co204 Co 0.73916 0.50079 0.52881 0.0
Co205 Co 0.70016 0.54352 0.53839 0.0
C206 C 0.69565 0.51679 0.44213 0.0
O207 O 0.71436 0.50263 0.46055 0.0
O208 O 0.68885 0.53829 0.46801 0.0
C209 C 0.74574 0.44052 0.50698 0.0
O210 O 0.71597 0.43365 0.48185 0.0
C211 C 0.68366 0.60014 0.5711 0.0
C212 C 0.6895 0.59622 0.65279 0.0
C213 C 0.68661 0.6177 0.61619 0.0
N214 N 0.6872 0.57083 0.58041 0.0
N215 N 0.69026 0.56834 0.62917 0.0
C216 C 0.67772 0.61084 0.52013 0.0
H217 H 0.67032 0.58811 0.49325 0.0
H218 H 0.70339 0.63568 0.507 0.0
H219 H 0.6553 0.61769 0.52137 0.0
C220 C 0.79375 0.56827 0.59624 0.0
N221 N 0.76655 0.54803 0.5625 0.0
N222 N 0.75262 0.56807 0.54764 0.0
C223 C 0.77273 0.60247 0.56585 0.0
C224 C 0.79844 0.60411 0.60029 0.0
C225 C 0.81196 0.55234 0.62716 0.0
H226 H 0.79613 0.5217 0.62519 0.0
H227 H 0.84037 0.56229 0.61259 0.0
H228 H 0.8141 0.56143 0.66647 0.0
O229 O 0.69835 0.46538 0.56994 0.0
O230 O 0.66527 0.49208 0.56243 0.0
H231 H 0.75661 0.64386 0.56537 0.0
H232 H 0.80139 0.65875 0.53976 0.0
C233 C 0.77264 0.63497 0.54257 0.0
H234 H 0.76001 0.6277 0.50494 0.0
H235 H 0.69465 0.54846 0.64614 0.0
O236 O 0.76609 0.47293 0.52439 0.0
C237 C 0.66762 0.46406 0.57409 0.0
Co238 Co 0.49998 0.24206 0.54401 0.0
Co239 Co 0.44709 0.16796 0.52497 0.0
C240 C 0.47961 0.19597 0.43931 0.0
O241 O 0.49965 0.22322 0.46891 0.0
O242 O 0.44909 0.16895 0.45452 0.0
C243 C 0.53066 0.32207 0.57003 0.0
O244 O 0.50117 0.31481 0.59636 0.0
C245 C 0.38941 0.09269 0.53772 0.0
C246 C 0.3986 0.08401 0.61668 0.0
C247 C 0.37671 0.06699 0.57561 0.0
N248 N 0.41712 0.12386 0.5558 0.0
N249 N 0.42201 0.11909 0.60326 0.0
C250 C 0.379 0.08654 0.4837 0.0
H251 H 0.38455 0.11268 0.46583 0.0
H252 H 0.34929 0.06556 0.4791 0.0
H253 H 0.39585 0.07649 0.46455 0.0
C254 C 0.43189 0.22354 0.61882 0.0
N255 N 0.45117 0.2232 0.57757 0.0
N256 N 0.42764 0.19696 0.54869 0.0
C257 C 0.39293 0.18213 0.5671 0.0
C258 C 0.39376 0.19673 0.61399 0.0
C259 C 0.44991 0.2454 0.6646 0.0
H260 H 0.48038 0.25695 0.663 0.0
H261 H 0.44403 0.26836 0.66743 0.0
H262 H 0.43813 0.22777 0.69825 0.0
O263 O 0.53232 0.22777 0.57863 0.0
O264 O 0.49744 0.17493 0.54231 0.0
H265 H 0.35163 0.12844 0.54005 0.0
H266 H 0.33496 0.15993 0.54981 0.0
C267 C 0.35903 0.15762 0.53695 0.0
H268 H 0.3646 0.1653 0.49693 0.0
H269 H 0.44243 0.13944 0.62573 0.0
O270 O 0.53147 0.29659 0.54536 0.0
C271 C 0.52777 0.19721 0.5635 0.0
Co272 Co 0.73992 0.23761 0.53329 0.0
Co273 Co 0.80916 0.29895 0.58079 0.0
C274 C 0.796 0.28948 0.46535 0.0
O275 O 0.7666 0.2575 0.46768 0.0
O276 O 0.81287 0.30636 0.50516 0.0
C277 C 0.6522 0.17237 0.52576 0.0
O278 O 0.64464 0.13985 0.50907 0.0
C279 C 0.88611 0.33322 0.596 0.0
C280 C 0.89709 0.37272 0.6574 0.0
C281 C 0.91331 0.35796 0.62733 0.0
N282 N 0.85456 0.33175 0.60842 0.0
N283 N 0.8609 0.35523 0.64515 0.0
C284 C 0.89026 0.31277 0.55283 0.0
H285 H 0.91064 0.33284 0.52574 0.0
H286 H 0.86337 0.29513 0.53421 0.0
H287 H 0.90103 0.29485 0.56564 0.0
C288 C 0.76615 0.19091 0.59405 0.0
N289 N 0.76778 0.22292 0.57929 0.0
N290 N 0.7962 0.25036 0.60172 0.0
C291 C 0.81234 0.23688 0.63253 0.0
C292 C 0.79455 0.19865 0.62854 0.0
C293 C 0.73771 0.15347 0.5762 0.0
H294 H 0.72604 0.15554 0.54003 0.0
H295 H 0.74998 0.13544 0.57261 0.0
H296 H 0.7149 0.14077 0.60405 0.0
O297 O 0.73639 0.28286 0.54883 0.0
O298 O 0.77687 0.31602 0.60559 0.0
H299 H 0.84391 0.28475 0.67846 0.0
H300 H 0.84446 0.24419 0.69903 0.0
C301 C 0.84457 0.25997 0.6658 0.0
H302 H 0.87064 0.26833 0.64518 0.0
H303 H 0.84062 0.35932 0.66176 0.0
O304 O 0.68619 0.19772 0.52872 0.0
C305 C 0.75101 0.31116 0.57675 0.0
Co306 Co 0.82855 0.40835 0.18014 0.0
Co307 Co 0.87214 0.3748 0.18741 0.0
C308 C 0.84762 0.37452 0.27835 0.0
O309 O 0.82932 0.38668 0.25345 0.0
O310 O 0.87391 0.3725 0.25749 0.0
C311 C 0.78934 0.43945 0.14116 0.0
O312 O 0.79846 0.42868 0.1003 0.0
C313 C 0.922 0.34961 0.15887 0.0
C314 C 0.90427 0.3337 0.08048 0.0
C315 C 0.92983 0.3371 0.11563 0.0
N316 N 0.89404 0.35514 0.14914 0.0
N317 N 0.88377 0.3462 0.10226 0.0
C318 C 0.93826 0.35264 0.20966 0.0
H319 H 0.92493 0.36141 0.23785 0.0
H320 H 0.9684 0.37301 0.20888 0.0
H321 H 0.93488 0.32559 0.22077 0.0
C322 C 0.89659 0.45798 0.10557 0.0
N323 N 0.87646 0.43508 0.14417 0.0
N324 N 0.8974 0.42449 0.16579 0.0
C325 C 0.93175 0.44212 0.1458 0.0
C326 C 0.93271 0.46284 0.10461 0.0
C327 C 0.88053 0.47156 0.0671 0.0
H328 H 0.85895 0.44763 0.04603 0.0
H329 H 0.86714 0.48549 0.08574 0.0
H330 H 0.90202 0.49097 0.04063 0.0
O331 O 0.79177 0.36493 0.14307 0.0
O332 O 0.81884 0.33673 0.17404 0.0
H333 H 0.97058 0.42256 0.15351 0.0
H334 H 0.98965 0.47065 0.16516 0.0
C335 C 0.96454 0.44302 0.17013 0.0
H336 H 0.95895 0.43654 0.21047 0.0
H337 H 0.86234 0.34819 0.08542 0.0
O338 O 0.80276 0.43704 0.18261 0.0
C339 C 0.79058 0.33515 0.15434 0.0
Co340 Co 0.5791 0.42321 0.16897 0.0
Co341 Co 0.6337 0.50114 0.13988 0.0
C342 C 0.62015 0.47032 0.24887 0.0
O343 O 0.58953 0.44049 0.24071 0.0
O344 O 0.63769 0.49223 0.21306 0.0
C345 C 0.52327 0.33898 0.16069 0.0
O346 O 0.49301 0.33928 0.17338 0.0
C347 C 0.64936 0.56864 0.17371 0.0
C348 C 0.70796 0.6033 0.15062 0.0
C349 C 0.6814 0.60085 0.18407 0.0
N350 N 0.65701 0.55166 0.13738 0.0
N351 N 0.69155 0.57293 0.12211 0.0
C352 C 0.61516 0.55032 0.20577 0.0
H353 H 0.59562 0.52191 0.19296 0.0
H354 H 0.60091 0.56658 0.20427 0.0
H355 H 0.6228 0.54957 0.2452 0.0
C356 C 0.52736 0.44169 0.1062 0.0
N357 N 0.55986 0.44823 0.12698 0.0
N358 N 0.58565 0.48158 0.1136 0.0
C359 C 0.57117 0.49696 0.08377 0.0
C360 C 0.53355 0.47253 0.07788 0.0
C361 C 0.49127 0.40662 0.11276 0.0
H362 H 0.48592 0.40006 0.15308 0.0
H363 H 0.46809 0.40871 0.0961 0.0
H364 H 0.49309 0.3838 0.09463 0.0
O365 O 0.62979 0.43349 0.14821 0.0
O366 O 0.66381 0.48481 0.1061 0.0
H367 H 0.62098 0.54058 0.05069 0.0
H368 H 0.57887 0.53867 0.0296 0.0
C369 C 0.59305 0.53501 0.06212 0.0
H370 H 0.59649 0.55545 0.09096 0.0
H371 H 0.70525 0.56454 0.09743 0.0
O372 O 0.55411 0.36897 0.15953 0.0
C373 C 0.65944 0.45506 0.12451 0.0
Co374 Co 0.56552 0.16317 0.16229 0.0
Co375 Co 0.48376 0.13044 0.14515 0.0
C376 C 0.52174 0.15794 0.24824 0.0
O377 O 0.5531 0.16127 0.23673 0.0
O378 O 0.49678 0.14758 0.21516 0.0
C379 C 0.64652 0.20187 0.17925 0.0
O380 O 0.63928 0.18885 0.22501 0.0
C381 C 0.41624 0.08032 0.18642 0.0
C382 C 0.379 0.09755 0.15284 0.0
C383 C 0.38237 0.07767 0.19174 0.0
N384 N 0.43308 0.10223 0.14731 0.0
N385 N 0.41048 0.11155 0.1261 0.0
C386 C 0.43511 0.06838 0.22317 0.0
H387 H 0.46323 0.07575 0.20995 0.0
H388 H 0.4186 0.03803 0.2284 0.0
H389 H 0.43696 0.08141 0.25989 0.0
C390 C 0.54642 0.08986 0.10398 0.0
N391 N 0.53901 0.11481 0.12616 0.0
N392 N 0.50346 0.10246 0.12026 0.0
C393 C 0.48732 0.07033 0.09499 0.0
C394 C 0.51361 0.06058 0.08356 0.0
C395 C 0.584 0.09386 0.10167 0.0
H396 H 0.60333 0.11582 0.12744 0.0
H397 H 0.58205 0.06715 0.11111 0.0
H398 H 0.59485 0.10119 0.06299 0.0
O399 O 0.55145 0.20127 0.14083 0.0
O400 O 0.49622 0.17384 0.10645 0.0
H401 H 0.43924 0.06974 0.06592 0.0
H402 H 0.44177 0.02903 0.05093 0.0
C403 C 0.44733 0.04995 0.08008 0.0
H404 H 0.42998 0.03572 0.11325 0.0
H405 H 0.418 0.13055 0.09699 0.0
O406 O 0.6201 0.19139 0.14828 0.0
C407 C 0.52513 0.20314 0.11959 0.0
Co408 Co 0.40953 0.83249 0.86957 0.0
Co409 Co 0.34859 0.84096 0.90982 0.0
C410 C 0.36009 0.82994 0.79644 0.0
O411 O 0.39387 0.83818 0.80078 0.0
O412 O 0.34209 0.82939 0.83527 0.0
C413 C 0.42905 0.783 0.84313 0.0
O414 O 0.40531 0.77882 0.80814 0.0
C415 C 0.32655 0.8906 0.89165 0.0
C416 C 0.26965 0.86546 0.92234 0.0
C417 C 0.2957 0.8941 0.8928 0.0
N418 N 0.31935 0.86124 0.91898 0.0
N419 N 0.28565 0.84633 0.93819 0.0
C420 C 0.35973 0.91047 0.85777 0.0
H421 H 0.3762 0.89656 0.85609 0.0
H422 H 0.37816 0.93881 0.87195 0.0
H423 H 0.35094 0.91258 0.81949 0.0
C424 C 0.45671 0.90435 0.93261 0.0
N425 N 0.4252 0.87497 0.91429 0.0
N426 N 0.39681 0.87583 0.93372 0.0
C427 C 0.40878 0.90467 0.96543 0.0
C428 C 0.44744 0.92444 0.966 0.0
C429 C 0.49498 0.91276 0.91941 0.0
H430 H 0.49416 0.88901 0.89994 0.0
H431 H 0.5081 0.93727 0.89451 0.0
H432 H 0.51209 0.91962 0.95361 0.0
O433 O 0.36279 0.78581 0.89156 0.0
O434 O 0.32637 0.79377 0.94266 0.0
H435 H 0.35679 0.88879 1.00168 0.0
H436 H 0.39588 0.92931 0.02779 0.0
C437 C 0.38338 0.91421 0.99282 0.0
H438 H 0.37763 0.93233 0.96893 0.0
H439 H 0.27263 0.82162 0.9583 0.0
O440 O 0.44287 0.81214 0.86953 0.0
C441 C 0.33374 0.77225 0.91875 0.0
Co442 Co 0.15673 0.55778 0.87835 0.0
Co443 Co 0.11499 0.47575 0.88436 0.0
C444 C 0.14146 0.50105 0.78851 0.0
O445 O 0.15554 0.53337 0.80865 0.0
O446 O 0.11937 0.47189 0.81297 0.0
C447 C 0.21508 0.6265 0.85958 0.0
O448 O 0.22473 0.60506 0.83618 0.0
C449 C 0.06193 0.40067 0.91629 0.0
C450 C 0.07263 0.40653 0.99774 0.0
C451 C 0.04878 0.38317 0.96192 0.0
N452 N 0.09096 0.43402 0.92506 0.0
N453 N 0.09744 0.43738 0.97359 0.0
C454 C 0.04761 0.386 0.86523 0.0
H455 H 0.06636 0.40509 0.83607 0.0
H456 H 0.01964 0.38244 0.86036 0.0
H457 H 0.04509 0.35852 0.86062 0.0
C458 C 0.08902 0.54365 0.94631 0.0
N459 N 0.10942 0.53627 0.91326 0.0
N460 N 0.08956 0.50171 0.90028 0.0
C461 C 0.05518 0.48703 0.91974 0.0
C462 C 0.05361 0.51198 0.95272 0.0
C463 C 0.10386 0.57927 0.97375 0.0
H464 H 0.13397 0.59741 0.96623 0.0
H465 H 0.08884 0.59346 0.96159 0.0
H466 H 0.0989 0.57378 1.01436 0.0
O467 O 0.19408 0.55307 0.91646 0.0
O468 O 0.16747 0.49378 0.90336 0.0
H469 H 0.01735 0.42811 0.91871 0.0
H470 H 0.99692 0.45513 0.90182 0.0
C471 C 0.0224 0.45316 0.89866 0.0
H472 H 0.02764 0.44977 0.85895 0.0
H473 H 0.11822 0.46131 0.99043 0.0
O474 O 0.18185 0.61229 0.87535 0.0
C475 C 0.19583 0.52386 0.91568 0.0
Co476 Co 0.40906 0.57329 0.86244 0.0
Co477 Co 0.47745 0.63437 0.90775 0.0
C478 C 0.46118 0.62347 0.79259 0.0
O479 O 0.4342 0.59011 0.79585 0.0
O480 O 0.47717 0.64128 0.83217 0.0
C481 C 0.33863 0.53119 0.90318 0.0
O482 O 0.3594 0.54145 0.94323 0.0
C483 C 0.55296 0.66226 0.90679 0.0
C484 C 0.57683 0.71314 0.95214 0.0
C485 C 0.58582 0.69144 0.92297 0.0
N486 N 0.52559 0.6658 0.92611 0.0
N487 N 0.53952 0.69589 0.95379 0.0
C488 C 0.54742 0.63385 0.86836 0.0
H489 H 0.51779 0.61608 0.85887 0.0
H490 H 0.55758 0.6158 0.88289 0.0
H491 H 0.5635 0.64767 0.83411 0.0
C492 C 0.43332 0.52687 0.92603 0.0
N493 N 0.43572 0.55853 0.90865 0.0
N494 N 0.46426 0.58644 0.93002 0.0
C495 C 0.47994 0.57388 0.96273 0.0
C496 C 0.46136 0.53557 0.96126 0.0
C497 C 0.40446 0.48901 0.91021 0.0
H498 H 0.38804 0.49036 0.87867 0.0
H499 H 0.4178 0.47288 0.89932 0.0
H500 H 0.38572 0.47457 0.94222 0.0
O501 O 0.40879 0.62035 0.87921 0.0
O502 O 0.44795 0.65226 0.93818 0.0
H503 H 0.51316 0.62419 1.00351 0.0
H504 H 0.5122 0.58421 0.02992 0.0
C505 C 0.51272 0.59817 0.9946 0.0
H506 H 0.53855 0.60466 0.97443 0.0
H507 H 0.52373 0.70542 0.97171 0.0
O508 O 0.35458 0.53757 0.86078 0.0
C509 C 0.42268 0.64792 0.90858 0.0
Co510 Co 0.49377 0.72829 0.50586 0.0
Co511 Co 0.52991 0.68166 0.49693 0.0
C512 C 0.50269 0.69671 0.59634 0.0
O513 O 0.49837 0.72318 0.58095 0.0
O514 O 0.51303 0.68037 0.56625 0.0
C515 C 0.46221 0.78039 0.49796 0.0
O516 O 0.49049 0.80804 0.5204 0.0
C517 C 0.59399 0.68852 0.53765 0.0
C518 C 0.60063 0.64458 0.503 0.0
C519 C 0.61648 0.67371 0.53653 0.0
N520 N 0.56633 0.66983 0.5055 0.0
N521 N 0.57039 0.64373 0.48418 0.0
C522 C 0.59777 0.71887 0.57093 0.0
H523 H 0.58433 0.73331 0.55414 0.0
H524 H 0.6275 0.73892 0.57805 0.0
H525 H 0.58419 0.70685 0.60726 0.0
C526 C 0.56443 0.7819 0.44249 0.0
N527 N 0.54058 0.75023 0.46753 0.0
N528 N 0.55301 0.72726 0.46252 0.0
C529 C 0.58398 0.74263 0.43407 0.0
C530 C 0.59327 0.77823 0.42077 0.0
C531 C 0.56016 0.81515 0.44033 0.0
H532 H 0.55879 0.82407 0.47882 0.0
H533 H 0.58353 0.8382 0.41985 0.0
H534 H 0.53358 0.80772 0.4218 0.0
O535 O 0.45813 0.67442 0.48709 0.0
O536 O 0.48591 0.6433 0.46515 0.0
H537 H 0.61788 0.73407 0.38067 0.0
H538 H 0.62382 0.72542 0.44463 0.0
C539 C 0.60312 0.72254 0.41651 0.0
H540 H 0.58262 0.69287 0.41123 0.0
H541 H 0.55218 0.625 0.45804 0.0
O542 O 0.46228 0.75046 0.49074 0.0
C543 C 0.45651 0.6447 0.472 0.0
Co544 Co 0.24865 0.73945 0.50505 0.0
Co545 Co 0.28187 0.8185 0.5204 0.0
C546 C 0.27769 0.78462 0.60816 0.0
O547 O 0.26799 0.7563 0.57985 0.0
O548 O 0.27878 0.81321 0.59101 0.0
C549 C 0.19437 0.65829 0.48239 0.0
O550 O 0.16792 0.66424 0.4675 0.0
C551 C 0.30672 0.89467 0.52909 0.0
C552 C 0.32411 0.91412 0.45135 0.0
C553 C 0.31999 0.92474 0.49846 0.0
N554 N 0.30187 0.86645 0.50115 0.0
N555 N 0.31203 0.87782 0.45472 0.0
C556 C 0.29979 0.89298 0.58421 0.0
H557 H 0.27124 0.87049 0.59284 0.0
H558 H 0.30341 0.91937 0.59874 0.0
H559 H 0.31941 0.8867 0.60361 0.0
C560 C 0.1997 0.75858 0.43291 0.0
N561 N 0.22289 0.76225 0.47124 0.0
N562 N 0.23444 0.79464 0.49096 0.0
C563 C 0.21653 0.81072 0.47097 0.0
C564 C 0.19475 0.78971 0.43115 0.0
C565 C 0.18738 0.72907 0.39435 0.0
H566 H 0.20496 0.71616 0.39542 0.0
H567 H 0.1582 0.70753 0.40196 0.0
H568 H 0.18878 0.74068 0.35667 0.0
O569 O 0.29403 0.75198 0.469 0.0
O570 O 0.32198 0.80785 0.49951 0.0
H571 H 0.24047 0.86966 0.47721 0.0
H572 H 0.1911 0.84359 0.48647 0.0
C573 C 0.21749 0.84399 0.49345 0.0
H574 H 0.222 0.84453 0.5342 0.0
H575 H 0.3107 0.86075 0.42551 0.0
O576 O 0.22428 0.68483 0.49959 0.0
C577 C 0.32371 0.78163 0.47851 0.0
Co578 Co 0.23095 0.47979 0.50242 0.0
Co579 Co 0.14713 0.44349 0.49812 0.0
C580 C 0.18769 0.47351 0.59479 0.0
O581 O 0.21891 0.47884 0.578 0.0
O582 O 0.15969 0.46105 0.56667 0.0
C583 C 0.31203 0.5185 0.51716 0.0
O584 O 0.30534 0.50931 0.56448 0.0
C585 C 0.07391 0.39749 0.53289 0.0
C586 C 0.04089 0.40119 0.47125 0.0
C587 C 0.03864 0.38843 0.51953 0.0
N588 N 0.09628 0.41523 0.49445 0.0
N589 N 0.0765 0.41649 0.45702 0.0
C590 C 0.08727 0.39512 0.58383 0.0
H591 H 0.1131 0.39382 0.58094 0.0
H592 H 0.06629 0.3705 0.60446 0.0
H593 H 0.09282 0.41988 0.60562 0.0
C594 C 0.21019 0.40998 0.43606 0.0
N595 N 0.20356 0.43182 0.4672 0.0
N596 N 0.16768 0.41532 0.47455 0.0
C597 C 0.15076 0.38189 0.45275 0.0
C598 C 0.17646 0.37721 0.42502 0.0
C599 C 0.24745 0.4219 0.41394 0.0
H600 H 0.26545 0.45235 0.41619 0.0
H601 H 0.26077 0.40906 0.4353 0.0
H602 H 0.24473 0.41289 0.37452 0.0
O603 O 0.21844 0.51714 0.47857 0.0
O604 O 0.15927 0.4879 0.45949 0.0
H605 H 0.0928 0.35969 0.43809 0.0
H606 H 0.10509 0.32527 0.45384 0.0
C607 C 0.11077 0.35361 0.46183 0.0
H608 H 0.10356 0.35452 0.50138 0.0
H609 H 0.08774 0.43038 0.42348 0.0
O610 O 0.28519 0.50659 0.48674 0.0
C611 C 0.19012 0.51767 0.46252 0.0
C612 C 0.92892 0.27957 0.11862 0.0
C613 C 0.95035 0.31811 0.1153 0.0
C614 C 0.94191 0.26018 0.14538 0.0
C615 C 0.9767 0.2791 0.16796 0.0
H616 H 0.90051 0.26491 0.10555 0.0
H617 H 0.92451 0.2305 0.1494 0.0
S618 S 0.04646 0.37834 0.15935 0.0
N619 N 0.0099 0.3737 0.12925 0.0
N620 N 0.03506 0.33642 0.17837 0.0
C621 C 7e-05 0.31683 0.15996 0.0
C622 C 0.98681 0.33661 0.13302 0.0
C623 C 0.6675 0.63649 0.24504 0.0
C624 C 0.6891 0.62105 0.23075 0.0
C625 C 0.68058 0.66393 0.28139 0.0
C626 C 0.71623 0.67738 0.30107 0.0
H627 H 0.64292 0.63065 0.22433 0.0
H628 H 0.66654 0.67956 0.28605 0.0
S629 S 0.77432 0.63436 0.29173 0.0
N630 N 0.74027 0.6114 0.25176 0.0
N631 N 0.76583 0.66494 0.31821 0.0
C632 C 0.73338 0.65637 0.29566 0.0
C633 C 0.72001 0.62814 0.25938 0.0
C634 C 0.34486 0.02878 0.25284 0.0
C635 C 0.35922 0.06518 0.23619 0.0
C636 C 0.31519 0.01344 0.28627 0.0
C637 C 0.29877 0.03395 0.30147 0.0
H638 H 0.35358 0.01093 0.23591 0.0
H639 H 0.30108 0.98388 0.2928 0.0
S640 S 0.33425 0.13331 0.28087 0.0
N641 N 0.36199 0.12407 0.24769 0.0
N642 N 0.30444 0.09419 0.30875 0.0
C643 C 0.31719 0.07192 0.29241 0.0
C644 C 0.34766 0.08776 0.25903 0.0
C645 C 0.31302 0.97555 0.81537 0.0
C646 C 0.27956 0.96182 0.78972 0.0
C647 C 0.31724 0.95369 0.85056 0.0
C648 C 0.28926 0.91682 0.85801 0.0
H649 H 0.33381 0.00463 0.81323 0.0
H650 H 0.34192 0.96618 0.87338 0.0
S651 S 0.20036 0.86585 0.79036 0.0
N652 N 0.22017 0.9084 0.76818 0.0
N653 N 0.22978 0.86581 0.83131 0.0
C654 C 0.25756 0.90158 0.82813 0.0
C655 C 0.25271 0.92428 0.79356 0.0
C656 C 0.03322 0.32018 0.97333 0.0
C657 C 0.02002 0.34481 0.96851 0.0
C658 C 0.01947 0.28964 0.94203 0.0
C659 C 0.99143 0.28295 0.90784 0.0
H660 H 0.05874 0.32828 0.99325 0.0
H661 H 0.03392 0.27425 0.93995 0.0
S662 S 0.9365 0.32943 0.90084 0.0
N663 N 0.96929 0.3534 0.94203 0.0
N664 N 0.94279 0.2952 0.88321 0.0
C665 C 0.97218 0.302 0.91219 0.0
C666 C 0.9863 0.33307 0.94397 0.0
C667 C 0.63148 0.67463 0.89597 0.0
C668 C 0.6213 0.7017 0.90025 0.0
C669 C 0.65866 0.67894 0.86214 0.0
C670 C 0.67745 0.71116 0.83345 0.0
H671 H 0.61727 0.64932 0.91753 0.0
H672 H 0.66567 0.65739 0.85923 0.0
S673 S 0.66339 0.79173 0.83488 0.0
N674 N 0.63246 0.7621 0.87478 0.0
N675 N 0.68614 0.77175 0.81364 0.0
C676 C 0.66857 0.73914 0.83885 0.0
C677 C 0.64018 0.73428 0.87237 0.0
C678 C 0.6461 0.64013 0.64185 0.0
C679 C 0.68111 0.649 0.62355 0.0
C680 C 0.62612 0.65384 0.61753 0.0
C681 C 0.64159 0.67695 0.57587 0.0
H682 H 0.63143 0.61738 0.66777 0.0
H683 H 0.59689 0.6419 0.62626 0.0
S684 S 0.73873 0.72194 0.53246 0.0
N685 N 0.73558 0.69299 0.57666 0.0
N686 N 0.69732 0.71794 0.5291 0.0
C687 C 0.6794 0.69277 0.56592 0.0
C688 C 0.69984 0.67933 0.59138 0.0
C689 C 0.36975 0.98027 0.53497 0.0
C690 C 0.33377 0.96155 0.51595 0.0
C691 C 0.3823 0.01335 0.55986 0.0
C692 C 0.35903 0.02817 0.56576 0.0
H693 H 0.38807 0.96911 0.53083 0.0
H694 H 0.41095 0.02845 0.57192 0.0
S695 S 0.26146 0.98736 0.52616 0.0
N696 N 0.27395 0.95759 0.50759 0.0
N697 N 0.29826 0.02136 0.55352 0.0
C698 C 0.32251 0.00892 0.54863 0.0
C699 C 0.30966 0.97507 0.52355 0.0
C700 C 0.00097 0.41021 0.56161 0.0
C701 C 0.00987 0.38237 0.55498 0.0
C702 C 0.97243 0.40474 0.59378 0.0
C703 C 0.95236 0.37131 0.61966 0.0
H704 H 0.01508 0.43562 0.54022 0.0
H705 H 0.96341 0.42488 0.59407 0.0
S706 S 0.96951 0.29294 0.62143 0.0
N707 N -0.00039 0.3223 0.58046 0.0
N708 N 0.947 0.31293 0.64364 0.0
C709 C 0.96413 0.34538 0.61804 0.0
C710 C 0.99242 0.35043 0.58427 0.0
C711 C 0.13252 0.33431 0.35997 0.0
C712 C 0.1662 0.34732 0.3857 0.0
C713 C 0.11821 0.30376 0.32815 0.0
C714 C 0.13839 0.28644 0.31435 0.0
H715 H 0.11616 0.34749 0.36475 0.0
H716 H 0.09055 0.29385 0.31425 0.0
S717 S 0.2301 0.31073 0.36736 0.0
N718 N 0.21948 0.33913 0.39595 0.0
N719 N 0.19563 0.28593 0.32869 0.0
C720 C 0.17312 0.29988 0.33798 0.0
C721 C 0.18657 0.3296 0.37425 0.0
C722 C 0.66254 0.81086 0.40663 0.0
C723 C 0.62749 0.80455 0.39117 0.0
C724 C 0.69399 0.82764 0.37501 0.0
C725 C 0.69222 0.83927 0.32632 0.0
H726 H 0.66521 0.80076 0.44266 0.0
H727 H 0.71946 0.82948 0.38777 0.0
S728 S 0.60761 0.83001 0.26749 0.0
N729 N 0.59344 0.81229 0.3238 0.0
N730 N 0.65232 0.84378 0.26461 0.0
C731 C 0.65779 0.83458 0.31104 0.0
C732 C 0.62563 0.81742 0.34336 0.0
C733 C 0.18187 0.85799 0.35022 0.0
C734 C 0.14938 0.83698 0.32204 0.0
C735 C 0.19686 0.84193 0.38124 0.0
C736 C 0.17841 0.80376 0.39167 0.0
H737 H 0.19655 0.88775 0.34872 0.0
H738 H 0.22362 0.86035 0.39725 0.0
S739 S 0.09015 0.73478 0.33181 0.0
N740 N 0.09917 0.77436 0.30627 0.0
N741 N 0.12392 0.74482 0.37182 0.0
C742 C 0.14483 0.78192 0.36564 0.0
C743 C 0.13083 0.79829 0.33027 0.0
C744 C 0.35234 0.2019 0.68201 0.0
C745 C 0.36209 0.1802 0.65212 0.0
C746 C 0.32113 0.18555 0.7151 0.0
C747 C 0.29791 0.14678 0.71909 0.0
H748 H 0.36885 0.23171 0.67979 0.0
H749 H 0.31567 0.20335 0.73845 0.0
S750 S 0.31103 0.07731 0.65066 0.0
N751 N 0.34651 0.1173 0.63302 0.0
N752 N 0.2863 0.08761 0.68824 0.0
C753 C 0.30689 0.12513 0.68844 0.0
C754 C 0.33925 0.14146 0.65705 0.0
C755 C 0.82841 0.16204 0.63078 0.0
C756 C 0.80595 0.17376 0.65489 0.0
C757 C 0.84625 0.14607 0.6576 0.0
C758 C 0.84248 0.14084 0.70988 0.0
H759 H 0.834 0.16721 0.59125 0.0
H760 H 0.86493 0.13973 0.63759 0.0
S761 S 0.78678 0.16654 0.79087 0.0
N762 N 0.78064 0.17813 0.73432 0.0
N763 N 0.81407 0.14884 0.78419 0.0
C764 C 0.81921 0.15141 0.73401 0.0
C765 C 0.80103 0.16755 0.70677 0.0
C766 C 0.81309 0.68237 0.68797 0.0
C767 C 0.84753 0.69487 0.71136 0.0
C768 C 0.79758 0.65215 0.65558 0.0
C769 C 0.81683 0.63439 0.63948 0.0
H770 H 0.79692 0.69541 0.6958 0.0
H771 H 0.7695 0.64243 0.64382 0.0
S772 S 0.91039 0.65827 0.68485 0.0
N773 N 0.90119 0.68689 0.71571 0.0
N774 N 0.87432 0.63341 0.64849 0.0
C775 C 0.85241 0.64758 0.66047 0.0
C776 C 0.86743 0.67731 0.69682 0.0
C777 C 0.97947 0.51217 0.04243 0.0
C778 C 0.96202 0.47617 0.06333 0.0
C779 C 0.00937 0.52448 1.00733 0.0
C780 C 0.02392 0.50173 0.9929 0.0
H781 H 0.97028 0.53109 0.05353 0.0
H782 H 0.02093 0.55181 0.9913 0.0
S783 S 0.98944 0.40622 0.03801 0.0
N784 N 0.96042 0.41761 0.06255 0.0
N785 N 0.02058 0.44315 1.00797 0.0
C786 C 0.00763 0.46665 1.01563 0.0
C787 C 0.97579 0.45329 0.04757 0.0
C788 C 0.4696 0.50943 0.0421 0.0
C789 C 0.47206 0.5113 0.98955 0.0
C790 C 0.48702 0.49407 0.07061 0.0
C791 C 0.50756 0.47977 0.04776 0.0
H792 H 0.4558 0.52184 0.0615 0.0
H793 H 0.48621 0.49536 0.11089 0.0
S794 S 0.52175 0.47677 0.91172 0.0
N795 N 0.49598 0.49633 0.91615 0.0
N796 N 0.52827 0.46743 0.9694 0.0
C797 C 0.50885 0.48 0.99531 0.0
C798 C 0.49119 0.49566 0.96632 0.0
C799 C 0.48444 0.99129 0.07701 0.0
C800 C 0.50587 0.02643 0.05484 0.0
C801 C 0.46813 0.95848 0.04842 0.0
C802 C 0.4717 0.95904 0.99599 0.0
H803 H 0.47858 0.98924 0.11663 0.0
H804 H 0.45088 0.93242 0.06737 0.0
S805 S 0.52531 0.0438 0.91949 0.0
N806 N 0.53053 0.05952 0.97714 0.0
N807 N 0.49953 -0.00167 0.9235 0.0
C808 C 0.49427 0.9939 0.97357 0.0
C809 C 0.51122 0.02735 1.00285 0.0
C810 C 0.02587 0.1788 1.01296 0.0
C811 C 0.02354 0.15201 0.04682 0.0
C812 C 0.00398 0.16931 0.96991 0.0
C813 C 0.97821 0.13226 0.95743 0.0
H814 H 0.04429 0.20789 1.02045 0.0
H815 H 0.00751 0.19177 0.94612 0.0
S816 S 0.96037 0.05083 0.03369 0.0
N817 N 0.99246 0.08632 0.06543 0.0
N818 N 0.95199 0.06826 0.9834 0.0
C819 C 0.97561 0.10486 0.99067 0.0
C820 C -0.0019 0.11471 0.03526 0.0
C821 C 0.86691 0.83477 1.01501 0.0
C822 C 0.84025 0.81688 0.97734 0.0
C823 C 0.85718 0.8436 0.06163 0.0
C824 C 0.82045 0.8349 0.07247 0.0
H825 H 0.89531 0.84157 1.00876 0.0
H826 H 0.87835 0.85642 0.08997 0.0
S827 S 0.74084 0.79206 0.98634 0.0
N828 N 0.77565 0.79435 0.95403 0.0
N829 N 0.75808 0.80932 0.04155 0.0
C830 C 0.79389 0.8179 0.03525 0.0
C831 C 0.80362 0.80944 0.9878 0.0
C832 C 0.13774 0.00111 1.00177 0.0
C833 C 0.17398 0.01736 0.98158 0.0
C834 C 0.12744 0.97899 0.04566 0.0
C835 C 0.15288 0.97205 0.07133 0.0
H836 H 0.11687 0.00462 0.98279 0.0
H837 H 0.09948 0.96773 0.05998 0.0
S838 S 0.2512 0.00793 0.03411 0.0
N839 N 0.23525 0.02484 0.99172 0.0
N840 N 0.21604 0.98341 0.07216 0.0
C841 C 0.1891 0.98822 0.05133 0.0
C842 C 0.19955 0.01072 1.00724 0.0
C843 C 0.62171 0.48601 0.34022 0.0
C844 C 0.63828 0.47937 0.2989 0.0
C845 C 0.64082 0.49865 0.38584 0.0
C846 C 0.67697 0.50435 0.3925 0.0
H847 H 0.59425 0.48247 0.33687 0.0
H848 H 0.62692 0.50366 0.41644 0.0
S849 S 0.73257 0.4909 0.29562 0.0
N850 N 0.69338 0.4803 0.26723 0.0
N851 N 0.72816 0.50192 0.35337 0.0
C852 C 0.6935 0.49715 0.35166 0.0
C853 C 0.67451 0.48535 0.30484 0.0
C854 C 0.46829 0.17579 0.35032 0.0
C855 C 0.49355 0.19164 0.38971 0.0
C856 C 0.4779 0.16491 0.30585 0.0
C857 C 0.51326 0.16869 0.29825 0.0
H858 H 0.44037 0.17107 0.35422 0.0
H859 H 0.45687 0.15308 0.27721 0.0
S860 S 0.58886 0.20583 0.39184 0.0
N861 N 0.55506 0.20882 0.41963 0.0
N862 N 0.57331 0.18851 0.33589 0.0
C863 C 0.53885 0.18425 0.33766 0.0
C864 C 0.52901 0.19567 0.38322 0.0
C865 C 0.79693 0.33576 0.34117 0.0
C866 C 0.83497 0.3562 0.32852 0.0
C867 C 0.7843 0.31299 0.38422 0.0
C868 C 0.80916 0.31001 0.41682 0.0
H869 H 0.77662 0.33636 0.31679 0.0
H870 H 0.75487 0.29812 0.39253 0.0
S871 S 0.91138 0.35762 0.40122 0.0
N872 N 0.89719 0.37135 0.35268 0.0
N873 N 0.87359 0.32982 0.43339 0.0
C874 C 0.84716 0.33068 0.40497 0.0
C875 C 0.85997 0.35331 0.36099 0.0
C876 C 0.30189 0.80798 0.74501 0.0
C877 C 0.33953 0.81731 0.74761 0.0
C878 C 0.2811 0.79481 0.70075 0.0
C879 C 0.29645 0.78925 0.65716 0.0
H880 H 0.2883 0.81141 0.77734 0.0
H881 H 0.253 0.78986 0.70027 0.0
S882 S 0.39388 0.81104 0.6419 0.0
N883 N 0.39132 0.82097 0.70086 0.0
N884 N 0.35218 0.79605 0.61836 0.0
C885 C 0.33387 0.79834 0.65896 0.0
C886 C 0.35532 0.81227 0.70386 0.0
C887 C 0.17918 0.46358 0.68783 0.0
C888 C 0.1828 0.48503 0.64562 0.0
C889 C 0.16575 0.46907 0.73359 0.0
C890 C 0.15568 0.49645 0.73923 0.0
H891 H 0.18514 0.44131 0.68492 0.0
H892 H 0.16303 0.45151 0.76488 0.0
S893 S 0.15878 0.55912 0.63959 0.0
N894 N 0.17393 0.53392 0.61209 0.0
N895 N 0.15031 0.54504 0.69822 0.0
C896 C 0.15989 0.51852 0.6976 0.0
C897 C 0.17285 0.51249 0.65083 0.0
C898 C 0.45932 0.6234 0.69827 0.0
C899 C 0.47256 0.64322 0.74304 0.0
C900 C 0.46872 0.64135 0.65163 0.0
C901 C 0.49117 0.6801 0.64723 0.0
H902 H 0.44173 0.59363 0.69909 0.0
H903 H 0.4582 0.62459 0.61841 0.0
S904 S 0.53366 0.74544 0.75196 0.0
N905 N 0.51015 0.7046 0.77927 0.0
N906 N 0.5269 0.73773 0.69147 0.0
C907 C 0.5044 0.70046 0.69131 0.0
C908 C 0.49539 0.6822 0.73908 0.0
C909 C 0.06545 -0.00191 0.21554 0.0
C910 C 0.09654 0.00428 0.243 0.0
C911 C 0.06029 0.02706 0.20079 0.0
C912 C 0.08598 0.06383 0.21338 0.0
H913 H 0.04604 0.97078 0.2027 0.0
H914 H 0.03609 0.02035 0.17856 0.0
S915 S 0.17073 0.0949 0.28942 0.0
N916 N 0.15268 0.04974 0.28483 0.0
N917 N 0.14263 0.10475 0.25849 0.0
C918 C 0.11662 0.07055 0.24284 0.0
C919 C 0.12202 0.04072 0.25733 0.0
C920 C 0.93149 0.07362 0.19526 0.0
C921 C 0.9613 0.08052 0.22699 0.0
C922 C 0.90274 0.0374 0.18539 0.0
C923 C 0.90282 0.00699 0.20703 0.0
H924 H 0.9315 0.0961 0.17534 0.0
H925 H 0.88156 0.03313 0.15864 0.0
S926 S 0.9709 0.00959 0.2976 0.0
N927 N 0.98637 0.05338 0.28385 0.0
N928 N 0.93248 0.98576 0.26514 0.0
C929 C 0.93079 0.01348 0.24128 0.0
C930 C 0.95994 0.05014 0.25144 0.0
C931 C 0.93675 0.90519 0.21537 0.0
C932 C 0.90814 0.87158 0.23438 0.0
C933 C 0.9692 0.90821 0.19552 0.0
C934 C 0.97591 0.87844 0.1962 0.0
H935 H 0.93332 0.92903 0.21285 0.0
H936 H 0.98889 0.9343 0.17878 0.0
S937 S 0.91001 0.78389 0.24159 0.0
N938 N 0.88815 0.80702 0.25122 0.0
N939 N 0.95082 0.81385 0.21752 0.0
C940 C 0.9481 0.84479 0.2164 0.0
C941 C 0.91404 0.84117 0.23482 0.0
C942 C 0.07369 0.16399 0.7942 0.0
C943 C 0.04061 0.13202 0.77974 0.0
C944 C 0.10551 0.16244 0.80719 0.0
C945 C 0.10549 0.12887 0.80642 0.0
H946 H 0.0745 0.19009 0.79817 0.0
H947 H 0.12987 0.18751 0.81951 0.0
S948 S 0.02773 0.03852 0.7633 0.0
N949 N 0.01113 0.06679 0.76025 0.0
N950 N 0.07062 0.06368 0.78384 0.0
C951 C 0.07321 0.09715 0.78914 0.0
C952 C 0.04093 0.0988 0.776 0.0
C953 C 0.89839 0.96191 0.7889 0.0
C954 C 0.86664 0.96421 0.80062 0.0
C955 C 0.8967 0.92772 0.78406 0.0
C956 C 0.86309 0.89408 0.79015 0.0
H957 H 0.92529 0.98676 0.78551 0.0
H958 H 0.92236 0.92779 0.77754 0.0
S959 S 0.77099 0.88459 0.81569 0.0
N960 N 0.79994 0.92964 0.81426 0.0
N961 N 0.79654 0.86549 0.80472 0.0
C962 C 0.83068 0.89595 0.79896 0.0
C963 C 0.83251 0.93088 0.8044 0.0
C964 C 0.0899 0.92637 0.79387 0.0
C965 C 0.09148 0.96004 0.80461 0.0
C966 C 0.05696 0.89223 0.80058 0.0
C967 C 0.02434 0.89029 0.819 0.0
H968 H 0.11447 0.92635 0.78075 0.0
H969 H 0.05719 0.86719 0.7914 0.0
S970 S 0.01464 0.97035 0.8571 0.0
N971 N 0.05783 0.989 0.83712 0.0
N972 N 0.99646 0.92546 0.84988 0.0
C973 C 0.02574 0.92384 0.83037 0.0
C974 C 0.05908 0.95848 0.8231 0.0
C975 C 0.72826 0.34264 0.51919 0.0
C976 C 0.74687 0.34351 0.56338 0.0
C977 C 0.72948 0.37448 0.50035 0.0
C978 C 0.74923 0.40873 0.52479 0.0
H979 H 0.71328 0.31733 0.49803 0.0
H980 H 0.71447 0.37207 0.46638 0.0
S981 S 0.80156 0.42611 0.64288 0.0
N982 N 0.78502 0.3818 0.6318 0.0
N983 N 0.78703 0.4414 0.59649 0.0
C984 C 0.76768 0.41008 0.56925 0.0
C985 C 0.76639 0.37757 0.58859 0.0
C986 C 0.59835 0.42518 0.58557 0.0
C987 C 0.63322 0.42759 0.58134 0.0
C988 C 0.5651 0.39094 0.58314 0.0
C989 C 0.56553 0.35802 0.57511 0.0
H990 H 0.59664 0.45 0.58934 0.0
H991 H 0.53893 0.39042 0.58579 0.0
S992 S 0.64901 0.34838 0.56635 0.0
N993 N 0.6656 0.39307 0.57309 0.0
N994 N 0.60355 0.32949 0.56696 0.0
C995 C 0.60009 0.35985 0.57272 0.0
C996 C 0.63378 0.39439 0.57632 0.0
C997 C 0.58438 0.15235 0.52679 0.0
C998 C 0.62105 0.1788 0.53971 0.0
C999 C 0.55444 0.1578 0.53704 0.0
C1000 C 0.5595 0.19 0.56089 0.0
H1001 H 0.57863 0.12737 0.50739 0.0
H1002 H 0.52716 0.13687 0.52463 0.0
S1003 S 0.64941 0.2663 0.6073 0.0
N1004 N 0.66021 0.23723 0.58138 0.0
N1005 N 0.6042 0.2478 0.60008 0.0
C1006 C 0.59584 0.21612 0.57579 0.0
C1007 C 0.62645 0.21049 0.56532 0.0
C1008 C 0.75394 0.46537 0.10021 0.0
C1009 C 0.75736 0.44519 0.13959 0.0
C1010 C 0.72187 0.4679 0.09487 0.0
C1011 C 0.69157 0.44921 0.1277 0.0
H1012 H 0.77628 0.47939 0.0734 0.0
H1013 H 0.72076 0.48451 0.06471 0.0
S1014 S 0.68622 0.39067 0.2354 0.0
N1015 N 0.7278 0.40545 0.21122 0.0
N1016 N 0.667 0.40889 0.20055 0.0
C1017 C 0.69449 0.4282 0.16672 0.0
C1018 C 0.72754 0.42657 0.17288 0.0
C1019 C 0.55697 0.27198 0.12928 0.0
C1020 C 0.52399 0.23804 0.12304 0.0
C1021 C 0.5563 0.30433 0.14065 0.0
C1022 C 0.52258 0.30412 0.14715 0.0
H1023 H 0.58359 0.27346 0.12644 0.0
H1024 H 0.58263 0.32958 0.14549 0.0
S1025 S 0.42821 0.22229 0.13574 0.0
N1026 N 0.45639 0.20627 0.12438 0.0
N1027 N 0.45532 0.26688 0.14606 0.0
C1028 C 0.48937 0.27047 0.14051 0.0
C1029 C 0.49002 0.23756 0.12833 0.0
C1030 C 0.75056 0.26934 0.18255 0.0
C1031 C 0.75476 0.29933 0.15346 0.0
C1032 C 0.71572 0.23739 0.18946 0.0
C1033 C 0.68376 0.23367 0.16665 0.0
H1034 H 0.77405 0.27116 0.2022 0.0
H1035 H 0.71369 0.21576 0.21372 0.0
S1036 S 0.67959 0.30317 0.08518 0.0
N1037 N 0.72375 0.32246 0.10055 0.0
N1038 N 0.65866 0.26228 0.11255 0.0
C1039 C 0.68776 0.26267 0.13572 0.0
C1040 C 0.72311 0.29547 0.12938 0.0
C1041 C 0.41793 0.71959 0.82836 0.0
C1042 C 0.42932 0.74967 0.8609 0.0
C1043 C 0.41345 0.68593 0.84501 0.0
C1044 C 0.42023 0.68088 0.895 0.0
H1045 H 0.41241 0.72203 0.78953 0.0
H1046 H 0.40592 0.66417 0.81787 0.0
S1047 S 0.44776 0.74986 0.99629 0.0
N1048 N 0.44519 0.77148 0.94634 0.0
N1049 N 0.43724 0.70823 0.97738 0.0
C1050 C 0.43095 0.71046 0.92819 0.0
C1051 C 0.43549 0.74483 0.91123 0.0
C1052 C 0.31001 0.71202 0.87455 0.0
C1053 C 0.30411 0.73327 0.91014 0.0
C1054 C 0.28086 0.67821 0.8577 0.0
C1055 C 0.24445 0.66379 0.8759 0.0
H1056 H 0.3372 0.72202 0.85815 0.0
H1057 H 0.28708 0.66333 0.82994 0.0
S1058 S 0.21435 0.70688 0.97231 0.0
N1059 N 0.2591 0.73633 0.96494 0.0
N1060 N 0.20444 0.67252 0.93369 0.0
C1061 C 0.23822 0.68409 0.91262 0.0
C1062 C 0.268 0.71871 0.92979 0.0
C1063 C 0.23471 0.49337 0.91491 0.0
C1064 C 0.23254 0.52591 0.91835 0.0
C1065 C 0.26901 0.49481 0.9095 0.0
C1066 C 0.30223 0.52883 0.90686 0.0
H1067 H 0.20968 0.46652 0.91538 0.0
H1068 H 0.26951 0.46928 0.90708 0.0
S1069 S 0.31285 0.62191 0.9145 0.0
N1070 N 0.26774 0.59325 0.91961 0.0
N1071 N 0.33145 0.59549 0.90878 0.0
C1072 C 0.30068 0.56137 0.91087 0.0
C1073 C 0.26606 0.56006 0.91685 0.0
C1074 C 0.39284 0.81429 0.49132 0.0
C1075 C 0.36009 0.78299 0.4745 0.0
C1076 C 0.42608 0.81381 0.49695 0.0
C1077 C 0.42809 0.78199 0.48603 0.0
H1078 H 0.39251 0.83898 0.50232 0.0
H1079 H 0.45002 0.83821 0.51162 0.0
S1080 S 0.35105 0.69342 0.43703 0.0
N1081 N 0.33264 0.71992 0.444 0.0
N1082 N 0.39466 0.71899 0.45435 0.0
C1083 C 0.39601 0.75109 0.46679 0.0
C1084 C 0.36222 0.7516 0.46106 0.0
C1085 C 0.22373 0.58608 0.47459 0.0
C1086 C 0.19141 0.55382 0.45926 0.0
C1087 C 0.22411 0.6193 0.48192 0.0
C1088 C 0.19228 0.62214 0.47394 0.0
H1089 H 0.24882 0.58553 0.48295 0.0
H1090 H 0.24975 0.6429 0.49451 0.0
S1091 S 0.10115 0.54681 0.42964 0.0
N1092 N 0.12707 0.52746 0.43358 0.0
N1093 N 0.12801 0.59019 0.44684 0.0
C1094 C 0.16013 0.5906 0.45663 0.0
C1095 C 0.15966 0.5565 0.44934 0.0
C1096 C 0.38796 0.60681 0.45732 0.0
C1097 C 0.4206 0.60974 0.47653 0.0
C1098 C 0.35304 0.57606 0.4685 0.0
C1099 C 0.34942 0.54793 0.50095 0.0
H1100 H 0.38939 0.62883 0.43449 0.0
H1101 H 0.32855 0.57528 0.45363 0.0
S1102 S 0.42632 0.54323 0.5623 0.0
N1103 N 0.44713 0.58173 0.52917 0.0
N1104 N 0.38146 0.52508 0.55203 0.0
C1105 C 0.38184 0.55051 0.52022 0.0
C1106 C 0.41742 0.58112 0.50754 0.0
loop_
_geom_bond_atom_site_label_1
_geom_bond_atom_site_label_2
_geom_bond_distance
_geom_bond_site_symmetry_2
_ccdc_geom_bond_type
Co0 O3 1.970 . S
Co0 N17 1.989 . S
Co0 O25 1.967 . S
Co0 O32 1.920 . S
Co1 O4 1.966 . S
Co1 N10 2.022 1_455 S
Co1 N18 1.993 . S
Co1 O26 1.941 1_455 S
C2 O3 1.258 . S
C2 O4 1.263 . S
O3 Co0 1.970 . S
O3 C2 1.258 . S
O4 Co1 1.966 . S
O4 C2 1.263 . S
C5 O6 1.235 . S
C5 O32 1.289 . S
O6 C5 1.235 . S
C7 C9 1.400 1_455 S
C7 N10 1.351 1_455 S
C7 C12 1.501 . S
C8 C9 1.387 . S
C8 N11 1.341 . S
C9 C7 1.400 1_655 S
C9 C8 1.387 . S
N10 Co1 2.022 1_655 S
N10 C7 1.351 1_655 S
N10 N11 1.365 . S
N11 C8 1.341 . S
N11 N10 1.365 . S
N11 H31 0.862 . S
C12 C7 1.501 . S
C12 H13 0.961 . S
C12 H14 0.961 . S
C12 H15 0.960 1_455 S
H13 C12 0.961 . S
H14 C12 0.961 . S
H15 C12 0.960 1_655 S
C16 N17 1.342 . S
C16 C20 1.401 . S
C16 C21 1.499 . S
N17 Co0 1.989 . S
N17 C16 1.342 . S
N17 N18 1.388 . S
N18 Co1 1.993 . S
N18 N17 1.388 . S
N18 C19 1.346 . S
C19 N18 1.346 . S
C19 C20 1.396 . S
C19 C29 1.510 . S
C20 C16 1.401 . S
C20 C19 1.396 . S
C21 C16 1.499 . S
C21 H22 0.959 . S
C21 H23 0.960 . S
C21 H24 0.961 . S
H22 C21 0.959 . S
H23 C21 0.960 . S
H24 C21 0.961 . S
O25 Co0 1.967 . S
O25 C33 1.258 1_455 S
O26 Co1 1.941 1_655 S
O26 C33 1.266 . S
H27 C29 0.959 . S
H28 C29 0.961 . S
C29 C19 1.510 . S
C29 H27 0.959 . S
C29 H28 0.961 . S
C29 H30 0.960 . S
H30 C29 0.960 . S
H31 N11 0.862 . S
O32 Co0 1.920 . S
O32 C5 1.289 . S
C33 O25 1.258 1_655 S
C33 O26 1.266 . S
Co34 O37 1.970 . S
Co34 N51 1.989 . S
Co34 O59 1.967 . S
Co34 O66 1.920 . S
Co35 O38 1.966 . S
Co35 N44 2.022 . S
Co35 N52 1.993 . S
Co35 O60 1.941 . S
C36 O37 1.258 . S
C36 O38 1.263 . S
O37 Co34 1.970 . S
O37 C36 1.258 . S
O38 Co35 1.966 . S
O38 C36 1.263 . S
C39 O40 1.235 . S
C39 O66 1.289 . S
O40 C39 1.235 . S
C41 C43 1.400 . S
C41 N44 1.351 . S
C41 C46 1.501 . S
C42 C43 1.387 . S
C42 N45 1.341 . S
C43 C41 1.400 . S
C43 C42 1.387 . S
N44 Co35 2.022 . S
N44 C41 1.351 . S
N44 N45 1.365 . S
N45 C42 1.341 . S
N45 N44 1.365 . S
N45 H65 0.862 . S
C46 C41 1.501 . S
C46 H47 0.961 . S
C46 H48 0.961 . S
C46 H49 0.960 . S
H47 C46 0.961 . S
H48 C46 0.961 . S
H49 C46 0.960 . S
C50 N51 1.342 . S
C50 C54 1.401 . S
C50 C55 1.499 . S
N51 Co34 1.989 . S
N51 C50 1.342 . S
N51 N52 1.388 . S
N52 Co35 1.993 . S
N52 N51 1.388 . S
N52 C53 1.346 . S
C53 N52 1.346 . S
C53 C54 1.396 . S
C53 C63 1.510 . S
C54 C50 1.401 . S
C54 C53 1.396 . S
C55 C50 1.499 . S
C55 H56 0.959 . S
C55 H57 0.960 . S
C55 H58 0.961 . S
H56 C55 0.959 . S
H57 C55 0.960 . S
H58 C55 0.961 . S
O59 Co34 1.967 . S
O59 C67 1.258 . S
O60 Co35 1.941 . S
O60 C67 1.266 . S
H61 C63 0.959 . S
H62 C63 0.961 . S
C63 C53 1.510 . S
C63 H61 0.959 . S
C63 H62 0.961 . S
C63 H64 0.960 . S
H64 C63 0.960 . S
H65 N45 0.862 . S
O66 Co34 1.920 . S
O66 C39 1.289 . S
C67 O59 1.258 . S
C67 O60 1.266 . S
Co68 O71 1.970 . S
Co68 N85 1.989 . S
Co68 O93 1.967 . S
Co68 O100 1.920 . S
Co69 O72 1.966 . S
Co69 N78 2.022 . S
Co69 N86 1.993 . S
Co69 O94 1.926 1_565 S
C70 O71 1.258 . S
C70 O72 1.263 . S
O71 Co68 1.970 . S
O71 C70 1.258 . S
O72 Co69 1.966 . S
O72 C70 1.263 . S
C73 O74 1.235 . S
C73 O100 1.289 . S
O74 C73 1.235 . S
C75 C77 1.402 1_565 S
C75 N78 1.351 . S
C75 C80 1.501 . S
C76 C77 1.391 . S
C76 N79 1.341 . S
C77 C75 1.402 1_545 S
C77 C76 1.391 . S
N78 Co69 2.022 . S
N78 C75 1.351 . S
N78 N79 1.365 1_565 S
N79 C76 1.341 . S
N79 N78 1.365 1_545 S
N79 H99 0.862 . S
C80 C75 1.501 . S
C80 H81 0.961 . S
C80 H82 0.961 . S
C80 H83 0.960 . S
H81 C80 0.961 . S
H82 C80 0.961 . S
H83 C80 0.960 . S
C84 N85 1.342 . S
C84 C88 1.401 . S
C84 C89 1.499 . S
N85 Co68 1.989 . S
N85 C84 1.342 . S
N85 N86 1.388 . S
N86 Co69 1.993 . S
N86 N85 1.388 . S
N86 C87 1.346 . S
C87 N86 1.346 . S
C87 C88 1.396 . S
C87 C97 1.510 . S
C88 C84 1.401 . S
C88 C87 1.396 . S
C89 C84 1.499 . S
C89 H90 0.959 . S
C89 H91 0.960 . S
C89 H92 0.961 . S
H90 C89 0.959 . S
H91 C89 0.960 . S
H92 C89 0.961 . S
O93 Co68 1.967 . S
O93 C101 1.258 . S
O94 Co69 1.926 1_545 S
O94 C101 1.271 1_545 S
H95 C97 0.959 . S
H96 C97 0.961 . S
C97 C87 1.510 . S
C97 H95 0.959 . S
C97 H96 0.961 . S
C97 H98 0.960 . S
H98 C97 0.960 . S
H99 N79 0.862 . S
O100 Co68 1.920 . S
O100 C73 1.289 . S
C101 O93 1.258 . S
C101 O94 1.271 1_565 S
Co102 O105 1.970 . S
Co102 N119 1.989 . S
Co102 O127 1.967 . S
Co102 O134 1.920 . S
Co103 O106 1.966 . S
Co103 N112 2.022 1_545 S
Co103 N120 1.993 . S
Co103 O128 1.941 1_545 S
C104 O105 1.258 . S
C104 O106 1.263 . S
O105 Co102 1.970 . S
O105 C104 1.258 . S
O106 Co103 1.966 . S
O106 C104 1.263 . S
C107 O108 1.235 . S
C107 O134 1.289 . S
O108 C107 1.235 . S
C109 C111 1.400 1_545 S
C109 N112 1.351 1_545 S
C109 C114 1.501 . S
C110 C111 1.387 . S
C110 N113 1.341 . S
C111 C109 1.400 1_565 S
C111 C110 1.387 . S
N112 Co103 2.022 1_565 S
N112 C109 1.351 1_565 S
N112 N113 1.365 . S
N113 C110 1.341 . S
N113 N112 1.365 . S
N113 H133 0.862 . S
C114 C109 1.501 . S
C114 H115 0.961 . S
C114 H116 0.961 . S
C114 H117 0.960 1_545 S
H115 C114 0.961 . S
H116 C114 0.961 . S
H117 C114 0.960 1_565 S
C118 N119 1.342 . S
C118 C122 1.401 . S
C118 C123 1.499 . S
N119 Co102 1.989 . S
N119 C118 1.342 . S
N119 N120 1.388 . S
N120 Co103 1.993 . S
N120 N119 1.388 . S
N120 C121 1.346 . S
C121 N120 1.346 . S
C121 C122 1.396 . S
C121 C131 1.510 . S
C122 C118 1.401 . S
C122 C121 1.396 . S
C123 C118 1.499 . S
C123 H124 0.959 . S
C123 H125 0.960 . S
C123 H126 0.961 . S
H124 C123 0.959 . S
H125 C123 0.960 . S
H126 C123 0.961 . S
O127 Co102 1.967 . S
O127 C135 1.258 1_545 S
O128 Co103 1.941 1_565 S
O128 C135 1.266 . S
H129 C131 0.959 . S
H130 C131 0.961 . S
C131 C121 1.510 . S
C131 H129 0.959 . S
C131 H130 0.961 . S
C131 H132 0.960 . S
H132 C131 0.960 . S
H133 N113 0.862 . S
O134 Co102 1.920 . S
O134 C107 1.289 . S
C135 O127 1.258 1_565 S
C135 O128 1.266 . S
Co136 O139 1.970 . S
Co136 N153 1.989 . S
Co136 O161 1.967 . S
Co136 O168 1.920 . S
Co137 O140 1.966 . S
Co137 N146 2.022 . S
Co137 N154 1.993 . S
Co137 O162 1.926 1_655 S
C138 O139 1.258 . S
C138 O140 1.263 . S
O139 Co136 1.970 . S
O139 C138 1.258 . S
O140 Co137 1.966 . S
O140 C138 1.263 . S
C141 O142 1.235 . S
C141 O168 1.289 . S
O142 C141 1.235 . S
C143 C145 1.402 1_655 S
C143 N146 1.351 . S
C143 C148 1.501 . S
C144 C145 1.391 . S
C144 N147 1.341 . S
C145 C143 1.402 1_455 S
C145 C144 1.391 . S
N146 Co137 2.022 . S
N146 C143 1.351 . S
N146 N147 1.365 1_655 S
N147 C144 1.341 . S
N147 N146 1.365 1_455 S
N147 H167 0.862 . S
C148 C143 1.501 . S
C148 H149 0.961 . S
C148 H150 0.961 . S
C148 H151 0.960 . S
H149 C148 0.961 . S
H150 C148 0.961 . S
H151 C148 0.960 . S
C152 N153 1.342 . S
C152 C156 1.401 . S
C152 C157 1.499 . S
N153 Co136 1.989 . S
N153 C152 1.342 . S
N153 N154 1.388 . S
N154 Co137 1.993 . S
N154 N153 1.388 . S
N154 C155 1.346 . S
C155 N154 1.346 . S
C155 C156 1.396 . S
C155 C165 1.510 . S
C156 C152 1.401 . S
C156 C155 1.396 . S
C157 C152 1.499 . S
C157 H158 0.959 . S
C157 H159 0.960 . S
C157 H160 0.961 . S
H158 C157 0.959 . S
H159 C157 0.960 . S
H160 C157 0.961 . S
O161 Co136 1.967 . S
O161 C169 1.258 . S
O162 Co137 1.926 1_455 S
O162 C169 1.271 1_455 S
H163 C165 0.959 . S
H164 C165 0.961 . S
C165 C155 1.510 . S
C165 H163 0.959 . S
C165 H164 0.961 . S
C165 H166 0.960 . S
H166 C165 0.960 . S
H167 N147 0.862 . S
O168 Co136 1.920 . S
O168 C141 1.289 . S
C169 O161 1.258 . S
C169 O162 1.271 1_655 S
Co170 O173 1.970 . S
Co170 N187 1.989 . S
Co170 O195 1.967 . S
Co170 O202 1.920 . S
Co171 O174 1.966 . S
Co171 N180 2.022 . S
Co171 N188 1.993 . S
Co171 O196 1.941 . S
C172 O173 1.258 . S
C172 O174 1.263 . S
O173 Co170 1.970 . S
O173 C172 1.258 . S
O174 Co171 1.966 . S
O174 C172 1.263 . S
C175 O176 1.235 . S
C175 O202 1.289 . S
O176 C175 1.235 . S
C177 C179 1.400 . S
C177 N180 1.351 . S
C177 C182 1.501 . S
C178 C179 1.387 . S
C178 N181 1.341 . S
C179 C177 1.400 . S
C179 C178 1.387 . S
N180 Co171 2.022 . S
N180 C177 1.351 . S
N180 N181 1.365 . S
N181 C178 1.341 . S
N181 N180 1.365 . S
N181 H201 0.862 . S
C182 C177 1.501 . S
C182 H183 0.961 . S
C182 H184 0.961 . S
C182 H185 0.960 . S
H183 C182 0.961 . S
H184 C182 0.961 . S
H185 C182 0.960 . S
C186 N187 1.342 . S
C186 C190 1.401 . S
C186 C191 1.499 . S
N187 Co170 1.989 . S
N187 C186 1.342 . S
N187 N188 1.388 . S
N188 Co171 1.993 . S
N188 N187 1.388 . S
N188 C189 1.346 . S
C189 N188 1.346 . S
C189 C190 1.396 . S
C189 C199 1.510 . S
C190 C186 1.401 . S
C190 C189 1.396 . S
C191 C186 1.499 . S
C191 H192 0.959 . S
C191 H193 0.960 . S
C191 H194 0.961 . S
H192 C191 0.959 . S
H193 C191 0.960 . S
H194 C191 0.961 . S
O195 Co170 1.967 . S
O195 C203 1.258 . S
O196 Co171 1.941 . S
O196 C203 1.266 . S
H197 C199 0.959 . S
H198 C199 0.961 . S
C199 C189 1.510 . S
C199 H197 0.959 . S
C199 H198 0.961 . S
C199 H200 0.960 . S
H200 C199 0.960 . S
H201 N181 0.862 . S
O202 Co170 1.920 . S
O202 C175 1.289 . S
C203 O195 1.258 . S
C203 O196 1.266 . S
Co204 O207 1.970 . S
Co204 N221 1.989 . S
Co204 O229 1.967 . S
Co204 O236 1.920 . S
Co205 O208 1.966 . S
Co205 N214 2.022 . S
Co205 N222 1.993 . S
Co205 O230 1.941 . S
C206 O207 1.258 . S
C206 O208 1.263 . S
O207 Co204 1.970 . S
O207 C206 1.258 . S
O208 Co205 1.966 . S
O208 C206 1.263 . S
C209 O210 1.235 . S
C209 O236 1.289 . S
O210 C209 1.235 . S
C211 C213 1.400 . S
C211 N214 1.351 . S
C211 C216 1.501 . S
C212 C213 1.387 . S
C212 N215 1.341 . S
C213 C211 1.400 . S
C213 C212 1.387 . S
N214 Co205 2.022 . S
N214 C211 1.351 . S
N214 N215 1.365 . S
N215 C212 1.341 . S
N215 N214 1.365 . S
N215 H235 0.862 . S
C216 C211 1.501 . S
C216 H217 0.961 . S
C216 H218 0.961 . S
C216 H219 0.960 . S
H217 C216 0.961 . S
H218 C216 0.961 . S
H219 C216 0.960 . S
C220 N221 1.342 . S
C220 C224 1.401 . S
C220 C225 1.499 . S
N221 Co204 1.989 . S
N221 C220 1.342 . S
N221 N222 1.388 . S
N222 Co205 1.993 . S
N222 N221 1.388 . S
N222 C223 1.346 . S
C223 N222 1.346 . S
C223 C224 1.396 . S
C223 C233 1.510 . S
C224 C220 1.401 . S
C224 C223 1.396 . S
C225 C220 1.499 . S
C225 H226 0.959 . S
C225 H227 0.960 . S
C225 H228 0.961 . S
H226 C225 0.959 . S
H227 C225 0.960 . S
H228 C225 0.961 . S
O229 Co204 1.967 . S
O229 C237 1.258 . S
O230 Co205 1.941 . S
O230 C237 1.266 . S
H231 C233 0.959 . S
H232 C233 0.961 . S
C233 C223 1.510 . S
C233 H231 0.959 . S
C233 H232 0.961 . S
C233 H234 0.960 . S
H234 C233 0.960 . S
H235 N215 0.862 . S
O236 Co204 1.920 . S
O236 C209 1.289 . S
C237 O229 1.258 . S
C237 O230 1.266 . S
Co238 O241 1.970 . S
Co238 N255 1.989 . S
Co238 O263 1.967 . S
Co238 O270 1.920 . S
Co239 O242 1.966 . S
Co239 N248 2.022 . S
Co239 N256 1.993 . S
Co239 O264 1.941 . S
C240 O241 1.258 . S
C240 O242 1.263 . S
O241 Co238 1.970 . S
O241 C240 1.258 . S
O242 Co239 1.966 . S
O242 C240 1.263 . S
C243 O244 1.235 . S
C243 O270 1.289 . S
O244 C243 1.235 . S
C245 C247 1.400 . S
C245 N248 1.351 . S
C245 C250 1.501 . S
C246 C247 1.387 . S
C246 N249 1.341 . S
C247 C245 1.400 . S
C247 C246 1.387 . S
N248 Co239 2.022 . S
N248 C245 1.351 . S
N248 N249 1.365 . S
N249 C246 1.341 . S
N249 N248 1.365 . S
N249 H269 0.862 . S
C250 C245 1.501 . S
C250 H251 0.961 . S
C250 H252 0.961 . S
C250 H253 0.960 . S
H251 C250 0.961 . S
H252 C250 0.961 . S
H253 C250 0.960 . S
C254 N255 1.342 . S
C254 C258 1.401 . S
C254 C259 1.499 . S
N255 Co238 1.989 . S
N255 C254 1.342 . S
N255 N256 1.388 . S
N256 Co239 1.993 . S
N256 N255 1.388 . S
N256 C257 1.346 . S
C257 N256 1.346 . S
C257 C258 1.396 . S
C257 C267 1.510 . S
C258 C254 1.401 . S
C258 C257 1.396 . S
C259 C254 1.499 . S
C259 H260 0.959 . S
C259 H261 0.960 . S
C259 H262 0.961 . S
H260 C259 0.959 . S
H261 C259 0.960 . S
H262 C259 0.961 . S
O263 Co238 1.967 . S
O263 C271 1.258 . S
O264 Co239 1.941 . S
O264 C271 1.266 . S
H265 C267 0.959 . S
H266 C267 0.961 . S
C267 C257 1.510 . S
C267 H265 0.959 . S
C267 H266 0.961 . S
C267 H268 0.960 . S
H268 C267 0.960 . S
H269 N249 0.862 . S
O270 Co238 1.920 . S
O270 C243 1.289 . S
C271 O263 1.258 . S
C271 O264 1.266 . S
Co272 O275 1.970 . S
Co272 N289 1.989 . S
Co272 O297 1.967 . S
Co272 O304 1.920 . S
Co273 O276 1.966 . S
Co273 N282 2.022 . S
Co273 N290 1.993 . S
Co273 O298 1.941 . S
C274 O275 1.258 . S
C274 O276 1.263 . S
O275 Co272 1.970 . S
O275 C274 1.258 . S
O276 Co273 1.966 . S
O276 C274 1.263 . S
C277 O278 1.235 . S
C277 O304 1.289 . S
O278 C277 1.235 . S
C279 C281 1.400 . S
C279 N282 1.351 . S
C279 C284 1.501 . S
C280 C281 1.387 . S
C280 N283 1.341 . S
C281 C279 1.400 . S
C281 C280 1.387 . S
N282 Co273 2.022 . S
N282 C279 1.351 . S
N282 N283 1.365 . S
N283 C280 1.341 . S
N283 N282 1.365 . S
N283 H303 0.862 . S
C284 C279 1.501 . S
C284 H285 0.961 . S
C284 H286 0.961 . S
C284 H287 0.960 . S
H285 C284 0.961 . S
H286 C284 0.961 . S
H287 C284 0.960 . S
C288 N289 1.342 . S
C288 C292 1.401 . S
C288 C293 1.499 . S
N289 Co272 1.989 . S
N289 C288 1.342 . S
N289 N290 1.388 . S
N290 Co273 1.993 . S
N290 N289 1.388 . S
N290 C291 1.346 . S
C291 N290 1.346 . S
C291 C292 1.396 . S
C291 C301 1.510 . S
C292 C288 1.401 . S
C292 C291 1.396 . S
C293 C288 1.499 . S
C293 H294 0.959 . S
C293 H295 0.960 . S
C293 H296 0.961 . S
H294 C293 0.959 . S
H295 C293 0.960 . S
H296 C293 0.961 . S
O297 Co272 1.967 . S
O297 C305 1.258 . S
O298 Co273 1.941 . S
O298 C305 1.266 . S
H299 C301 0.959 . S
H300 C301 0.961 . S
C301 C291 1.510 . S
C301 H299 0.959 . S
C301 H300 0.961 . S
C301 H302 0.960 . S
H302 C301 0.960 . S
H303 N283 0.862 . S
O304 Co272 1.920 . S
O304 C277 1.289 . S
C305 O297 1.258 . S
C305 O298 1.266 . S
Co306 O309 1.970 . S
Co306 N323 1.989 . S
Co306 O331 1.967 . S
Co306 O338 1.920 . S
Co307 O310 1.966 . S
Co307 N316 2.022 . S
Co307 N324 1.993 . S
Co307 O332 1.941 . S
C308 O309 1.258 . S
C308 O310 1.263 . S
O309 Co306 1.970 . S
O309 C308 1.258 . S
O310 Co307 1.966 . S
O310 C308 1.263 . S
C311 O312 1.235 . S
C311 O338 1.289 . S
O312 C311 1.235 . S
C313 C315 1.400 . S
C313 N316 1.351 . S
C313 C318 1.501 . S
C314 C315 1.387 . S
C314 N317 1.341 . S
C315 C313 1.400 . S
C315 C314 1.387 . S
N316 Co307 2.022 . S
N316 C313 1.351 . S
N316 N317 1.365 . S
N317 C314 1.341 . S
N317 N316 1.365 . S
N317 H337 0.862 . S
C318 C313 1.501 . S
C318 H319 0.961 . S
C318 H320 0.961 . S
C318 H321 0.960 . S
H319 C318 0.961 . S
H320 C318 0.961 . S
H321 C318 0.960 . S
C322 N323 1.342 . S
C322 C326 1.401 . S
C322 C327 1.499 . S
N323 Co306 1.989 . S
N323 C322 1.342 . S
N323 N324 1.388 . S
N324 Co307 1.993 . S
N324 N323 1.388 . S
N324 C325 1.346 . S
C325 N324 1.346 . S
C325 C326 1.396 . S
C325 C335 1.510 . S
C326 C322 1.401 . S
C326 C325 1.396 . S
C327 C322 1.499 . S
C327 H328 0.959 . S
C327 H329 0.960 . S
C327 H330 0.961 . S
H328 C327 0.959 . S
H329 C327 0.960 . S
H330 C327 0.961 . S
O331 Co306 1.967 . S
O331 C339 1.258 . S
O332 Co307 1.941 . S
O332 C339 1.266 . S
H333 C335 0.959 . S
H334 C335 0.961 . S
C335 C325 1.510 . S
C335 H333 0.959 . S
C335 H334 0.961 . S
C335 H336 0.960 . S
H336 C335 0.960 . S
H337 N317 0.862 . S
O338 Co306 1.920 . S
O338 C311 1.289 . S
C339 O331 1.258 . S
C339 O332 1.266 . S
Co340 O343 1.970 . S
Co340 N357 1.989 . S
Co340 O365 1.967 . S
Co340 O372 1.920 . S
Co341 O344 1.966 . S
Co341 N350 2.022 . S
Co341 N358 1.993 . S
Co341 O366 1.941 . S
C342 O343 1.258 . S
C342 O344 1.263 . S
O343 Co340 1.970 . S
O343 C342 1.258 . S
O344 Co341 1.966 . S
O344 C342 1.263 . S
C345 O346 1.235 . S
C345 O372 1.289 . S
O346 C345 1.235 . S
C347 C349 1.400 . S
C347 N350 1.351 . S
C347 C352 1.501 . S
C348 C349 1.387 . S
C348 N351 1.341 . S
C349 C347 1.400 . S
C349 C348 1.387 . S
N350 Co341 2.022 . S
N350 C347 1.351 . S
N350 N351 1.365 . S
N351 C348 1.341 . S
N351 N350 1.365 . S
N351 H371 0.862 . S
C352 C347 1.501 . S
C352 H353 0.961 . S
C352 H354 0.961 . S
C352 H355 0.960 . S
H353 C352 0.961 . S
H354 C352 0.961 . S
H355 C352 0.960 . S
C356 N357 1.342 . S
C356 C360 1.401 . S
C356 C361 1.499 . S
N357 Co340 1.989 . S
N357 C356 1.342 . S
N357 N358 1.388 . S
N358 Co341 1.993 . S
N358 N357 1.388 . S
N358 C359 1.346 . S
C359 N358 1.346 . S
C359 C360 1.396 . S
C359 C369 1.510 . S
C360 C356 1.401 . S
C360 C359 1.396 . S
C361 C356 1.499 . S
C361 H362 0.959 . S
C361 H363 0.960 . S
C361 H364 0.961 . S
H362 C361 0.959 . S
H363 C361 0.960 . S
H364 C361 0.961 . S
O365 Co340 1.967 . S
O365 C373 1.258 . S
O366 Co341 1.941 . S
O366 C373 1.266 . S
H367 C369 0.959 . S
H368 C369 0.961 . S
C369 C359 1.510 . S
C369 H367 0.959 . S
C369 H368 0.961 . S
C369 H370 0.960 . S
H370 C369 0.960 . S
H371 N351 0.862 . S
O372 Co340 1.920 . S
O372 C345 1.289 . S
C373 O365 1.258 . S
C373 O366 1.266 . S
Co374 O377 1.970 . S
Co374 N391 1.989 . S
Co374 O399 1.967 . S
Co374 O406 1.920 . S
Co375 O378 1.966 . S
Co375 N384 2.022 . S
Co375 N392 1.993 . S
Co375 O400 1.941 . S
C376 O377 1.258 . S
C376 O378 1.263 . S
O377 Co374 1.970 . S
O377 C376 1.258 . S
O378 Co375 1.966 . S
O378 C376 1.263 . S
C379 O380 1.235 . S
C379 O406 1.289 . S
O380 C379 1.235 . S
C381 C383 1.400 . S
C381 N384 1.351 . S
C381 C386 1.501 . S
C382 C383 1.387 . S
C382 N385 1.341 . S
C383 C381 1.400 . S
C383 C382 1.387 . S
N384 Co375 2.022 . S
N384 C381 1.351 . S
N384 N385 1.365 . S
N385 C382 1.341 . S
N385 N384 1.365 . S
N385 H405 0.862 . S
C386 C381 1.501 . S
C386 H387 0.961 . S
C386 H388 0.961 . S
C386 H389 0.960 . S
H387 C386 0.961 . S
H388 C386 0.961 . S
H389 C386 0.960 . S
C390 N391 1.342 . S
C390 C394 1.401 . S
C390 C395 1.499 . S
N391 Co374 1.989 . S
N391 C390 1.342 . S
N391 N392 1.388 . S
N392 Co375 1.993 . S
N392 N391 1.388 . S
N392 C393 1.346 . S
C393 N392 1.346 . S
C393 C394 1.396 . S
C393 C403 1.510 . S
C394 C390 1.401 . S
C394 C393 1.396 . S
C395 C390 1.499 . S
C395 H396 0.959 . S
C395 H397 0.960 . S
C395 H398 0.961 . S
H396 C395 0.959 . S
H397 C395 0.960 . S
H398 C395 0.961 . S
O399 Co374 1.967 . S
O399 C407 1.258 . S
O400 Co375 1.941 . S
O400 C407 1.266 . S
H401 C403 0.959 . S
H402 C403 0.961 . S
C403 C393 1.510 . S
C403 H401 0.959 . S
C403 H402 0.961 . S
C403 H404 0.960 . S
H404 C403 0.960 . S
H405 N385 0.862 . S
O406 Co374 1.920 . S
O406 C379 1.289 . S
C407 O399 1.258 . S
C407 O400 1.266 . S
Co408 O411 1.970 . S
Co408 N425 1.989 . S
Co408 O433 1.967 . S
Co408 O440 1.920 . S
Co409 O412 1.966 . S
Co409 N418 2.022 . S
Co409 N426 1.993 . S
Co409 O434 1.941 . S
C410 O411 1.258 . S
C410 O412 1.263 . S
O411 Co408 1.970 . S
O411 C410 1.258 . S
O412 Co409 1.966 . S
O412 C410 1.263 . S
C413 O414 1.235 . S
C413 O440 1.289 . S
O414 C413 1.235 . S
C415 C417 1.400 . S
C415 N418 1.351 . S
C415 C420 1.501 . S
C416 C417 1.387 . S
C416 N419 1.341 . S
C417 C415 1.400 . S
C417 C416 1.387 . S
N418 Co409 2.022 . S
N418 C415 1.351 . S
N418 N419 1.365 . S
N419 C416 1.341 . S
N419 N418 1.365 . S
N419 H439 0.862 . S
C420 C415 1.501 . S
C420 H421 0.961 . S
C420 H422 0.961 . S
C420 H423 0.960 . S
H421 C420 0.961 . S
H422 C420 0.961 . S
H423 C420 0.960 . S
C424 N425 1.342 . S
C424 C428 1.401 . S
C424 C429 1.499 . S
N425 Co408 1.989 . S
N425 C424 1.342 . S
N425 N426 1.388 . S
N426 Co409 1.993 . S
N426 N425 1.388 . S
N426 C427 1.346 . S
C427 N426 1.346 . S
C427 C428 1.396 . S
C427 C437 1.510 . S
C428 C424 1.401 . S
C428 C427 1.396 . S
C429 C424 1.499 . S
C429 H430 0.959 . S
C429 H431 0.960 . S
C429 H432 0.961 . S
H430 C429 0.959 . S
H431 C429 0.960 . S
H432 C429 0.961 . S
O433 Co408 1.967 . S
O433 C441 1.258 . S
O434 Co409 1.941 . S
O434 C441 1.266 . S
H435 C437 0.959 . S
H436 C437 0.961 . S
C437 C427 1.510 . S
C437 H435 0.959 . S
C437 H436 0.961 . S
C437 H438 0.960 . S
H438 C437 0.960 . S
H439 N419 0.862 . S
O440 Co408 1.920 . S
O440 C413 1.289 . S
C441 O433 1.258 . S
C441 O434 1.266 . S
Co442 O445 1.970 . S
Co442 N459 1.989 . S
Co442 O467 1.967 . S
Co442 O474 1.920 . S
Co443 O446 1.966 . S
Co443 N452 2.022 . S
Co443 N460 1.993 . S
Co443 O468 1.941 . S
C444 O445 1.258 . S
C444 O446 1.263 . S
O445 Co442 1.970 . S
O445 C444 1.258 . S
O446 Co443 1.966 . S
O446 C444 1.263 . S
C447 O448 1.235 . S
C447 O474 1.289 . S
O448 C447 1.235 . S
C449 C451 1.400 . S
C449 N452 1.351 . S
C449 C454 1.501 . S
C450 C451 1.387 . S
C450 N453 1.341 . S
C451 C449 1.400 . S
C451 C450 1.387 . S
N452 Co443 2.022 . S
N452 C449 1.351 . S
N452 N453 1.365 . S
N453 C450 1.341 . S
N453 N452 1.365 . S
N453 H473 0.862 . S
C454 C449 1.501 . S
C454 H455 0.961 . S
C454 H456 0.961 . S
C454 H457 0.960 . S
H455 C454 0.961 . S
H456 C454 0.961 . S
H457 C454 0.960 . S
C458 N459 1.342 . S
C458 C462 1.401 . S
C458 C463 1.499 . S
N459 Co442 1.989 . S
N459 C458 1.342 . S
N459 N460 1.388 . S
N460 Co443 1.993 . S
N460 N459 1.388 . S
N460 C461 1.346 . S
C461 N460 1.346 . S
C461 C462 1.396 . S
C461 C471 1.510 . S
C462 C458 1.401 . S
C462 C461 1.396 . S
C463 C458 1.499 . S
C463 H464 0.959 . S
C463 H465 0.960 . S
C463 H466 0.961 . S
H464 C463 0.959 . S
H465 C463 0.960 . S
H466 C463 0.961 . S
O467 Co442 1.967 . S
O467 C475 1.258 . S
O468 Co443 1.941 . S
O468 C475 1.266 . S
H469 C471 0.959 . S
H470 C471 0.961 . S
C471 C461 1.510 . S
C471 H469 0.959 . S
C471 H470 0.961 . S
C471 H472 0.960 . S
H472 C471 0.960 . S
H473 N453 0.862 . S
O474 Co442 1.920 . S
O474 C447 1.289 . S
C475 O467 1.258 . S
C475 O468 1.266 . S
Co476 O479 1.970 . S
Co476 N493 1.989 . S
Co476 O501 1.967 . S
Co476 O508 1.920 . S
Co477 O480 1.966 . S
Co477 N486 2.022 . S
Co477 N494 1.993 . S
Co477 O502 1.941 . S
C478 O479 1.258 . S
C478 O480 1.263 . S
O479 Co476 1.970 . S
O479 C478 1.258 . S
O480 Co477 1.966 . S
O480 C478 1.263 . S
C481 O482 1.235 . S
C481 O508 1.289 . S
O482 C481 1.235 . S
C483 C485 1.400 . S
C483 N486 1.351 . S
C483 C488 1.501 . S
C484 C485 1.387 . S
C484 N487 1.341 . S
C485 C483 1.400 . S
C485 C484 1.387 . S
N486 Co477 2.022 . S
N486 C483 1.351 . S
N486 N487 1.365 . S
N487 C484 1.341 . S
N487 N486 1.365 . S
N487 H507 0.862 . S
C488 C483 1.501 . S
C488 H489 0.961 . S
C488 H490 0.961 . S
C488 H491 0.960 . S
H489 C488 0.961 . S
H490 C488 0.961 . S
H491 C488 0.960 . S
C492 N493 1.342 . S
C492 C496 1.401 . S
C492 C497 1.499 . S
N493 Co476 1.989 . S
N493 C492 1.342 . S
N493 N494 1.388 . S
N494 Co477 1.993 . S
N494 N493 1.388 . S
N494 C495 1.346 . S
C495 N494 1.346 . S
C495 C496 1.396 . S
C495 C505 1.510 . S
C496 C492 1.401 . S
C496 C495 1.396 . S
C497 C492 1.499 . S
C497 H498 0.959 . S
C497 H499 0.960 . S
C497 H500 0.961 . S
H498 C497 0.959 . S
H499 C497 0.960 . S
H500 C497 0.961 . S
O501 Co476 1.967 . S
O501 C509 1.258 . S
O502 Co477 1.941 . S
O502 C509 1.266 . S
H503 C505 0.959 . S
H504 C505 0.961 . S
C505 C495 1.510 . S
C505 H503 0.959 . S
C505 H504 0.961 . S
C505 H506 0.960 . S
H506 C505 0.960 . S
H507 N487 0.862 . S
O508 Co476 1.920 . S
O508 C481 1.289 . S
C509 O501 1.258 . S
C509 O502 1.266 . S
Co510 O513 1.970 . S
Co510 N527 1.989 . S
Co510 O535 1.967 . S
Co510 O542 1.920 . S
Co511 O514 1.966 . S
Co511 N520 2.022 . S
Co511 N528 1.993 . S
Co511 O536 1.941 . S
C512 O513 1.258 . S
C512 O514 1.263 . S
O513 Co510 1.970 . S
O513 C512 1.258 . S
O514 Co511 1.966 . S
O514 C512 1.263 . S
C515 O516 1.235 . S
C515 O542 1.289 . S
O516 C515 1.235 . S
C517 C519 1.400 . S
C517 N520 1.351 . S
C517 C522 1.501 . S
C518 C519 1.387 . S
C518 N521 1.341 . S
C519 C517 1.400 . S
C519 C518 1.387 . S
N520 Co511 2.022 . S
N520 C517 1.351 . S
N520 N521 1.365 . S
N521 C518 1.341 . S
N521 N520 1.365 . S
N521 H541 0.862 . S
C522 C517 1.501 . S
C522 H523 0.961 . S
C522 H524 0.961 . S
C522 H525 0.960 . S
H523 C522 0.961 . S
H524 C522 0.961 . S
H525 C522 0.960 . S
C526 N527 1.342 . S
C526 C530 1.401 . S
C526 C531 1.499 . S
N527 Co510 1.989 . S
N527 C526 1.342 . S
N527 N528 1.388 . S
N528 Co511 1.993 . S
N528 N527 1.388 . S
N528 C529 1.346 . S
C529 N528 1.346 . S
C529 C530 1.396 . S
C529 C539 1.510 . S
C530 C526 1.401 . S
C530 C529 1.396 . S
C531 C526 1.499 . S
C531 H532 0.959 . S
C531 H533 0.960 . S
C531 H534 0.961 . S
H532 C531 0.959 . S
H533 C531 0.960 . S
H534 C531 0.961 . S
O535 Co510 1.967 . S
O535 C543 1.258 . S
O536 Co511 1.941 . S
O536 C543 1.266 . S
H537 C539 0.959 . S
H538 C539 0.961 . S
C539 C529 1.510 . S
C539 H537 0.959 . S
C539 H538 0.961 . S
C539 H540 0.960 . S
H540 C539 0.960 . S
H541 N521 0.862 . S
O542 Co510 1.920 . S
O542 C515 1.289 . S
C543 O535 1.258 . S
C543 O536 1.266 . S
Co544 O547 1.970 . S
Co544 N561 1.989 . S
Co544 O569 1.967 . S
Co544 O576 1.920 . S
Co545 O548 1.966 . S
Co545 N554 2.022 . S
Co545 N562 1.993 . S
Co545 O570 1.941 . S
C546 O547 1.258 . S
C546 O548 1.263 . S
O547 Co544 1.970 . S
O547 C546 1.258 . S
O548 Co545 1.966 . S
O548 C546 1.263 . S
C549 O550 1.235 . S
C549 O576 1.289 . S
O550 C549 1.235 . S
C551 C553 1.400 . S
C551 N554 1.351 . S
C551 C556 1.501 . S
C552 C553 1.387 . S
C552 N555 1.341 . S
C553 C551 1.400 . S
C553 C552 1.387 . S
N554 Co545 2.022 . S
N554 C551 1.351 . S
N554 N555 1.365 . S
N555 C552 1.341 . S
N555 N554 1.365 . S
N555 H575 0.862 . S
C556 C551 1.501 . S
C556 H557 0.961 . S
C556 H558 0.961 . S
C556 H559 0.960 . S
H557 C556 0.961 . S
H558 C556 0.961 . S
H559 C556 0.960 . S
C560 N561 1.342 . S
C560 C564 1.401 . S
C560 C565 1.499 . S
N561 Co544 1.989 . S
N561 C560 1.342 . S
N561 N562 1.388 . S
N562 Co545 1.993 . S
N562 N561 1.388 . S
N562 C563 1.346 . S
C563 N562 1.346 . S
C563 C564 1.396 . S
C563 C573 1.510 . S
C564 C560 1.401 . S
C564 C563 1.396 . S
C565 C560 1.499 . S
C565 H566 0.959 . S
C565 H567 0.960 . S
C565 H568 0.961 . S
H566 C565 0.959 . S
H567 C565 0.960 . S
H568 C565 0.961 . S
O569 Co544 1.967 . S
O569 C577 1.258 . S
O570 Co545 1.941 . S
O570 C577 1.266 . S
H571 C573 0.959 . S
H572 C573 0.961 . S
C573 C563 1.510 . S
C573 H571 0.959 . S
C573 H572 0.961 . S
C573 H574 0.960 . S
H574 C573 0.960 . S
H575 N555 0.862 . S
O576 Co544 1.920 . S
O576 C549 1.289 . S
C577 O569 1.258 . S
C577 O570 1.266 . S
Co578 O581 1.970 . S
Co578 N595 1.989 . S
Co578 O603 1.967 . S
Co578 O610 1.920 . S
Co579 O582 1.966 . S
Co579 N588 2.022 . S
Co579 N596 1.993 . S
Co579 O604 1.941 . S
C580 O581 1.258 . S
C580 O582 1.263 . S
O581 Co578 1.970 . S
O581 C580 1.258 . S
O582 Co579 1.966 . S
O582 C580 1.263 . S
C583 O584 1.235 . S
C583 O610 1.289 . S
O584 C583 1.235 . S
C585 C587 1.400 . S
C585 N588 1.351 . S
C585 C590 1.501 . S
C586 C587 1.387 . S
C586 N589 1.341 . S
C587 C585 1.400 . S
C587 C586 1.387 . S
N588 Co579 2.022 . S
N588 C585 1.351 . S
N588 N589 1.365 . S
N589 C586 1.341 . S
N589 N588 1.365 . S
N589 H609 0.862 . S
C590 C585 1.501 . S
C590 H591 0.961 . S
C590 H592 0.961 . S
C590 H593 0.960 . S
H591 C590 0.961 . S
H592 C590 0.961 . S
H593 C590 0.960 . S
C594 N595 1.342 . S
C594 C598 1.401 . S
C594 C599 1.499 . S
N595 Co578 1.989 . S
N595 C594 1.342 . S
N595 N596 1.388 . S
N596 Co579 1.993 . S
N596 N595 1.388 . S
N596 C597 1.346 . S
C597 N596 1.346 . S
C597 C598 1.396 . S
C597 C607 1.510 . S
C598 C594 1.401 . S
C598 C597 1.396 . S
C599 C594 1.499 . S
C599 H600 0.959 . S
C599 H601 0.960 . S
C599 H602 0.961 . S
H600 C599 0.959 . S
H601 C599 0.960 . S
H602 C599 0.961 . S
O603 Co578 1.967 . S
O603 C611 1.258 . S
O604 Co579 1.941 . S
O604 C611 1.266 . S
H605 C607 0.959 . S
H606 C607 0.961 . S
C607 C597 1.510 . S
C607 H605 0.959 . S
C607 H606 0.961 . S
C607 H608 0.960 . S
H608 C607 0.960 . S
H609 N589 0.862 . S
O610 Co578 1.920 . S
O610 C583 1.289 . S
C611 O603 1.258 . S
C611 O604 1.266 . S
C612 C613 1.369 . S
C612 C614 1.419 . S
C612 H616 0.930 . S
C613 C612 1.369 . S
C613 C622 1.429 . S
C614 C612 1.419 . S
C614 C615 1.363 . S
C614 H617 0.929 . S
C615 C614 1.363 . S
C615 C621 1.428 1_655 S
H616 C612 0.930 . S
H617 C614 0.929 . S
S618 N619 1.613 . S
S618 N620 1.610 . S
N619 S618 1.613 . S
N619 C622 1.350 1_455 S
N620 S618 1.610 . S
N620 C621 1.351 . S
C621 C615 1.428 1_455 S
C621 N620 1.351 . S
C621 C622 1.434 1_455 S
C622 C613 1.429 . S
C622 N619 1.350 1_655 S
C622 C621 1.434 1_655 S
C623 C624 1.369 . S
C623 C625 1.419 . S
C623 H627 0.930 . S
C624 C623 1.369 . S
C624 C633 1.429 . S
C625 C623 1.419 . S
C625 C626 1.363 . S
C625 H628 0.929 . S
C626 C625 1.363 . S
C626 C632 1.428 . S
H627 C623 0.930 . S
H628 C625 0.929 . S
S629 N630 1.613 . S
S629 N631 1.610 . S
N630 S629 1.613 . S
N630 C633 1.350 . S
N631 S629 1.610 . S
N631 C632 1.351 . S
C632 C626 1.428 . S
C632 N631 1.351 . S
C632 C633 1.434 . S
C633 C624 1.429 . S
C633 N630 1.350 . S
C633 C632 1.434 . S
C634 C635 1.389 . S
C634 C636 1.419 1_545 S
C634 H638 0.909 1_545 S
C635 C634 1.389 . S
C635 C644 1.429 . S
C636 C634 1.419 1_565 S
C636 C637 1.363 . S
C636 H639 0.929 . S
C637 C636 1.363 . S
C637 C643 1.428 1_565 S
H638 C634 0.909 1_565 S
H639 C636 0.929 . S
S640 N641 1.613 . S
S640 N642 1.610 . S
N641 S640 1.613 . S
N641 C644 1.350 . S
N642 S640 1.610 . S
N642 C643 1.351 . S
C643 C637 1.428 1_545 S
C643 N642 1.351 . S
C643 C644 1.434 . S
C644 C635 1.429 . S
C644 N641 1.350 . S
C644 C643 1.434 . S
C645 C646 1.369 1_545 S
C645 C647 1.419 1_545 S
C645 H649 0.930 . S
C646 C645 1.369 1_565 S
C646 C655 1.429 . S
C647 C645 1.419 1_565 S
C647 C648 1.363 . S
C647 H650 0.929 . S
C648 C647 1.363 . S
C648 C654 1.428 . S
H649 C645 0.930 . S
H650 C647 0.929 . S
S651 N652 1.613 . S
S651 N653 1.610 . S
N652 S651 1.613 . S
N652 C655 1.350 . S
N653 S651 1.610 . S
N653 C654 1.351 . S
C654 C648 1.428 . S
C654 N653 1.351 . S
C654 C655 1.434 . S
C655 C646 1.429 . S
C655 N652 1.350 . S
C655 C654 1.434 . S
C656 C657 1.369 . S
C656 C658 1.419 . S
C656 H660 0.930 . S
C657 C656 1.369 . S
C657 C666 1.417 1_455 S
C658 C656 1.419 . S
C658 C659 1.363 1_455 S
C658 H661 0.929 . S
C659 C658 1.363 1_655 S
C659 C665 1.428 . S
H660 C656 0.930 . S
H661 C658 0.929 . S
S662 N663 1.613 . S
S662 N664 1.610 . S
N663 S662 1.613 . S
N663 C666 1.363 . S
N664 S662 1.610 . S
N664 C665 1.351 . S
C665 C659 1.428 . S
C665 N664 1.351 . S
C665 C666 1.434 . S
C666 C657 1.417 1_655 S
C666 N663 1.363 . S
C666 C665 1.434 . S
C667 C668 1.369 . S
C667 C669 1.419 . S
C667 H671 0.930 . S
C668 C667 1.369 . S
C668 C677 1.429 . S
C669 C667 1.419 . S
C669 C670 1.363 . S
C669 H672 0.929 . S
C670 C669 1.363 . S
C670 C676 1.428 . S
H671 C667 0.930 . S
H672 C669 0.929 . S
S673 N674 1.613 . S
S673 N675 1.610 . S
N674 S673 1.613 . S
N674 C677 1.350 . S
N675 S673 1.610 . S
N675 C676 1.351 . S
C676 C670 1.428 . S
C676 N675 1.351 . S
C676 C677 1.434 . S
C677 C668 1.429 . S
C677 N674 1.350 . S
C677 C676 1.434 . S
C678 C679 1.369 . S
C678 C680 1.419 . S
C678 H682 0.930 . S
C679 C678 1.369 . S
C679 C688 1.429 . S
C680 C678 1.419 . S
C680 C681 1.363 . S
C680 H683 0.929 . S
C681 C680 1.363 . S
C681 C687 1.428 . S
H682 C678 0.930 . S
H683 C680 0.929 . S
S684 N685 1.613 . S
S684 N686 1.610 . S
N685 S684 1.613 . S
N685 C688 1.350 . S
N686 S684 1.610 . S
N686 C687 1.351 . S
C687 C681 1.428 . S
C687 N686 1.351 . S
C687 C688 1.434 . S
C688 C679 1.429 . S
C688 N685 1.350 . S
C688 C687 1.434 . S
C689 C690 1.369 . S
C689 C691 1.419 1_565 S
C689 H693 0.930 . S
C690 C689 1.369 . S
C690 C699 1.429 . S
C691 C689 1.419 1_545 S
C691 C692 1.363 . S
C691 H694 0.929 . S
C692 C691 1.363 . S
C692 C698 1.428 . S
H693 C689 0.930 . S
H694 C691 0.929 . S
S695 N696 1.613 . S
S695 N697 1.610 1_565 S
N696 S695 1.613 . S
N696 C699 1.350 . S
N697 S695 1.610 1_545 S
N697 C698 1.351 . S
C698 C692 1.428 . S
C698 N697 1.351 . S
C698 C699 1.434 1_545 S
C699 C690 1.429 . S
C699 N696 1.350 . S
C699 C698 1.434 1_565 S
C700 C701 1.369 . S
C700 C702 1.419 1_455 S
C700 H704 0.930 . S
C701 C700 1.369 . S
C701 C710 1.429 . S
C702 C700 1.419 1_655 S
C702 C703 1.363 . S
C702 H705 0.929 . S
C703 C702 1.363 . S
C703 C709 1.428 . S
H704 C700 0.930 . S
H705 C702 0.929 . S
S706 N707 1.613 1_655 S
S706 N708 1.610 . S
N707 S706 1.613 1_455 S
N707 C710 1.350 . S
N708 S706 1.610 . S
N708 C709 1.351 . S
C709 C703 1.428 . S
C709 N708 1.351 . S
C709 C710 1.434 1_655 S
C710 C701 1.429 . S
C710 N707 1.350 . S
C710 C709 1.434 1_455 S
C711 C712 1.369 . S
C711 C713 1.419 . S
C711 H715 0.930 . S
C712 C711 1.369 . S
C712 C721 1.429 . S
C713 C711 1.419 . S
C713 C714 1.363 . S
C713 H716 0.929 . S
C714 C713 1.363 . S
C714 C720 1.428 . S
H715 C711 0.930 . S
H716 C713 0.929 . S
S717 N718 1.613 . S
S717 N719 1.610 . S
N718 S717 1.613 . S
N718 C721 1.350 . S
N719 S717 1.610 . S
N719 C720 1.351 . S
C720 C714 1.428 . S
C720 N719 1.351 . S
C720 C721 1.434 . S
C721 C712 1.429 . S
C721 N718 1.350 . S
C721 C720 1.434 . S
C722 C723 1.369 . S
C722 C724 1.419 . S
C722 H726 0.930 . S
C723 C722 1.369 . S
C723 C732 1.429 . S
C724 C722 1.419 . S
C724 C725 1.363 . S
C724 H727 0.929 . S
C725 C724 1.363 . S
C725 C731 1.428 . S
H726 C722 0.930 . S
H727 C724 0.929 . S
S728 N729 1.613 . S
S728 N730 1.610 . S
N729 S728 1.613 . S
N729 C732 1.350 . S
N730 S728 1.610 . S
N730 C731 1.351 . S
C731 C725 1.428 . S
C731 N730 1.351 . S
C731 C732 1.434 . S
C732 C723 1.429 . S
C732 N729 1.350 . S
C732 C731 1.434 . S
C733 C734 1.369 . S
C733 C735 1.419 . S
C733 H737 0.930 . S
C734 C733 1.369 . S
C734 C743 1.429 . S
C735 C733 1.419 . S
C735 C736 1.363 . S
C735 H738 0.929 . S
C736 C735 1.363 . S
C736 C742 1.428 . S
H737 C733 0.930 . S
H738 C735 0.929 . S
S739 N740 1.613 . S
S739 N741 1.610 . S
N740 S739 1.613 . S
N740 C743 1.350 . S
N741 S739 1.610 . S
N741 C742 1.351 . S
C742 C736 1.428 . S
C742 N741 1.351 . S
C742 C743 1.434 . S
C743 C734 1.429 . S
C743 N740 1.350 . S
C743 C742 1.434 . S
C744 C745 1.369 . S
C744 C746 1.419 . S
C744 H748 0.930 . S
C745 C744 1.369 . S
C745 C754 1.429 . S
C746 C744 1.419 . S
C746 C747 1.363 . S
C746 H749 0.929 . S
C747 C746 1.363 . S
C747 C753 1.428 . S
H748 C744 0.930 . S
H749 C746 0.929 . S
S750 N751 1.613 . S
S750 N752 1.610 . S
N751 S750 1.613 . S
N751 C754 1.350 . S
N752 S750 1.610 . S
N752 C753 1.351 . S
C753 C747 1.428 . S
C753 N752 1.351 . S
C753 C754 1.434 . S
C754 C745 1.429 . S
C754 N751 1.350 . S
C754 C753 1.434 . S
C755 C756 1.369 . S
C755 C757 1.419 . S
C755 H759 0.930 . S
C756 C755 1.369 . S
C756 C765 1.429 . S
C757 C755 1.419 . S
C757 C758 1.363 . S
C757 H760 0.929 . S
C758 C757 1.363 . S
C758 C764 1.428 . S
H759 C755 0.930 . S
H760 C757 0.929 . S
S761 N762 1.613 . S
S761 N763 1.610 . S
N762 S761 1.613 . S
N762 C765 1.350 . S
N763 S761 1.610 . S
N763 C764 1.351 . S
C764 C758 1.428 . S
C764 N763 1.351 . S
C764 C765 1.434 . S
C765 C756 1.429 . S
C765 N762 1.350 . S
C765 C764 1.434 . S
C766 C767 1.369 . S
C766 C768 1.419 . S
C766 H770 0.930 . S
C767 C766 1.369 . S
C767 C776 1.429 . S
C768 C766 1.419 . S
C768 C769 1.363 . S
C768 H771 0.929 . S
C769 C768 1.363 . S
C769 C775 1.428 . S
H770 C766 0.930 . S
H771 C768 0.929 . S
S772 N773 1.613 . S
S772 N774 1.610 . S
N773 S772 1.613 . S
N773 C776 1.350 . S
N774 S772 1.610 . S
N774 C775 1.351 . S
C775 C769 1.428 . S
C775 N774 1.351 . S
C775 C776 1.434 . S
C776 C767 1.429 . S
C776 N773 1.350 . S
C776 C775 1.434 . S
C777 C778 1.369 . S
C777 C779 1.419 1_654 S
C777 H781 0.930 . S
C778 C777 1.369 . S
C778 C787 1.429 . S
C779 C777 1.419 1_456 S
C779 C780 1.363 . S
C779 H782 0.929 . S
C780 C779 1.363 . S
C780 C786 1.428 . S
H781 C777 0.930 . S
H782 C779 0.929 . S
S783 N784 1.613 1_556 S
S783 N785 1.610 1_655 S
N784 S783 1.613 1_554 S
N784 C787 1.350 . S
N785 S783 1.610 1_455 S
N785 C786 1.351 . S
C786 C780 1.428 . S
C786 N785 1.351 . S
C786 C787 1.434 1_456 S
C787 C778 1.429 . S
C787 N784 1.350 . S
C787 C786 1.434 1_654 S
C788 C789 1.369 1_554 S
C788 C790 1.419 . S
C788 H792 0.930 . S
C789 C788 1.369 1_556 S
C789 C798 1.429 . S
C790 C788 1.419 . S
C790 C791 1.363 . S
C790 H793 0.929 . S
C791 C790 1.363 . S
C791 C797 1.428 1_554 S
H792 C788 0.930 . S
H793 C790 0.929 . S
S794 N795 1.613 . S
S794 N796 1.610 . S
N795 S794 1.613 . S
N795 C798 1.350 . S
N796 S794 1.610 . S
N796 C797 1.351 . S
C797 C791 1.428 1_556 S
C797 N796 1.351 . S
C797 C798 1.434 . S
C798 C789 1.429 . S
C798 N795 1.350 . S
C798 C797 1.434 . S
C799 C800 1.386 . S
C799 C801 1.394 1_545 S
C799 H803 0.939 . S
C800 C799 1.386 . S
C800 C809 1.429 1_554 S
C801 C799 1.394 1_565 S
C801 C802 1.363 1_554 S
C801 H804 0.929 . S
C802 C801 1.363 1_556 S
C802 C808 1.428 . S
H803 C799 0.939 . S
H804 C801 0.929 . S
S805 N806 1.613 . S
S805 N807 1.610 1_545 S
N806 S805 1.613 . S
N806 C809 1.350 . S
N807 S805 1.610 1_565 S
N807 C808 1.351 . S
C808 C802 1.428 . S
C808 N807 1.351 . S
C808 C809 1.434 1_565 S
C809 C800 1.429 1_556 S
C809 N806 1.350 . S
C809 C808 1.434 1_545 S
C810 C811 1.369 . S
C810 C812 1.419 1_454 S
C810 H814 0.930 . S
C811 C810 1.369 . S
C811 C820 1.429 . S
C812 C810 1.419 1_656 S
C812 C813 1.363 . S
C812 H815 0.929 . S
C813 C812 1.363 . S
C813 C819 1.428 . S
H814 C810 0.930 . S
H815 C812 0.929 . S
S816 N817 1.613 1_655 S
S816 N818 1.610 1_554 S
N817 S816 1.613 1_455 S
N817 C820 1.350 . S
N818 S816 1.610 1_556 S
N818 C819 1.351 . S
C819 C813 1.428 . S
C819 N818 1.351 . S
C819 C820 1.434 1_656 S
C820 C811 1.429 . S
C820 N817 1.350 . S
C820 C819 1.434 1_454 S
C821 C822 1.369 1_554 S
C821 C823 1.419 . S
C821 H825 0.930 . S
C822 C821 1.369 1_556 S
C822 C831 1.429 . S
C823 C821 1.419 . S
C823 C824 1.363 . S
C823 H826 0.929 . S
C824 C823 1.363 . S
C824 C830 1.428 1_554 S
H825 C821 0.930 . S
H826 C823 0.929 . S
S827 N828 1.613 . S
S827 N829 1.610 . S
N828 S827 1.613 . S
N828 C831 1.350 . S
N829 S827 1.610 . S
N829 C830 1.351 . S
C830 C824 1.428 1_556 S
C830 N829 1.351 . S
C830 C831 1.434 . S
C831 C822 1.429 . S
C831 N828 1.350 . S
C831 C830 1.434 . S
C832 C833 1.369 . S
C832 C834 1.419 1_546 S
C832 H836 0.930 . S
C833 C832 1.369 . S
C833 C842 1.429 . S
C834 C832 1.419 1_564 S
C834 C835 1.363 . S
C834 H837 0.929 . S
C835 C834 1.363 . S
C835 C841 1.428 . S
H836 C832 0.930 . S
H837 C834 0.929 . S
S838 N839 1.613 1_565 S
S838 N840 1.610 1_556 S
N839 S838 1.613 1_545 S
N839 C842 1.350 . S
N840 S838 1.610 1_554 S
N840 C841 1.351 . S
C841 C835 1.428 . S
C841 N840 1.351 . S
C841 C842 1.434 1_564 S
C842 C833 1.429 . S
C842 N839 1.350 . S
C842 C841 1.434 1_546 S
C843 C844 1.369 . S
C843 C845 1.419 . S
C843 H847 0.930 . S
C844 C843 1.369 . S
C844 C853 1.429 . S
C845 C843 1.419 . S
C845 C846 1.363 . S
C845 H848 0.929 . S
C846 C845 1.363 . S
C846 C852 1.428 . S
H847 C843 0.930 . S
H848 C845 0.929 . S
S849 N850 1.613 . S
S849 N851 1.610 . S
N850 S849 1.613 . S
N850 C853 1.350 . S
N851 S849 1.610 . S
N851 C852 1.351 . S
C852 C846 1.428 . S
C852 N851 1.351 . S
C852 C853 1.434 . S
C853 C844 1.429 . S
C853 N850 1.350 . S
C853 C852 1.434 . S
C854 C855 1.369 . S
C854 C856 1.419 . S
C854 H858 0.930 . S
C855 C854 1.369 . S
C855 C864 1.429 . S
C856 C854 1.419 . S
C856 C857 1.363 . S
C856 H859 0.929 . S
C857 C856 1.363 . S
C857 C863 1.428 . S
H858 C854 0.930 . S
H859 C856 0.929 . S
S860 N861 1.613 . S
S860 N862 1.610 . S
N861 S860 1.613 . S
N861 C864 1.350 . S
N862 S860 1.610 . S
N862 C863 1.351 . S
C863 C857 1.428 . S
C863 N862 1.351 . S
C863 C864 1.434 . S
C864 C855 1.429 . S
C864 N861 1.350 . S
C864 C863 1.434 . S
C865 C866 1.369 . S
C865 C867 1.419 . S
C865 H869 0.930 . S
C866 C865 1.369 . S
C866 C875 1.429 . S
C867 C865 1.419 . S
C867 C868 1.363 . S
C867 H870 0.929 . S
C868 C867 1.363 . S
C868 C874 1.428 . S
H869 C865 0.930 . S
H870 C867 0.929 . S
S871 N872 1.613 . S
S871 N873 1.610 . S
N872 S871 1.613 . S
N872 C875 1.350 . S
N873 S871 1.610 . S
N873 C874 1.351 . S
C874 C868 1.428 . S
C874 N873 1.351 . S
C874 C875 1.434 . S
C875 C866 1.429 . S
C875 N872 1.350 . S
C875 C874 1.434 . S
C876 C877 1.369 . S
C876 C878 1.419 . S
C876 H880 0.930 . S
C877 C876 1.369 . S
C877 C886 1.429 . S
C878 C876 1.419 . S
C878 C879 1.363 . S
C878 H881 0.929 . S
C879 C878 1.363 . S
C879 C885 1.428 . S
H880 C876 0.930 . S
H881 C878 0.929 . S
S882 N883 1.613 . S
S882 N884 1.610 . S
N883 S882 1.613 . S
N883 C886 1.350 . S
N884 S882 1.610 . S
N884 C885 1.351 . S
C885 C879 1.428 . S
C885 N884 1.351 . S
C885 C886 1.434 . S
C886 C877 1.429 . S
C886 N883 1.350 . S
C886 C885 1.434 . S
C887 C888 1.369 . S
C887 C889 1.419 . S
C887 H891 0.930 . S
C888 C887 1.369 . S
C888 C897 1.429 . S
C889 C887 1.419 . S
C889 C890 1.363 . S
C889 H892 0.929 . S
C890 C889 1.363 . S
C890 C896 1.428 . S
H891 C887 0.930 . S
H892 C889 0.929 . S
S893 N894 1.613 . S
S893 N895 1.610 . S
N894 S893 1.613 . S
N894 C897 1.350 . S
N895 S893 1.610 . S
N895 C896 1.351 . S
C896 C890 1.428 . S
C896 N895 1.351 . S
C896 C897 1.434 . S
C897 C888 1.429 . S
C897 N894 1.350 . S
C897 C896 1.434 . S
C898 C899 1.369 . S
C898 C900 1.419 . S
C898 H902 0.930 . S
C899 C898 1.369 . S
C899 C908 1.429 . S
C900 C898 1.419 . S
C900 C901 1.363 . S
C900 H903 0.929 . S
C901 C900 1.363 . S
C901 C907 1.428 . S
H902 C898 0.930 . S
H903 C900 0.929 . S
S904 N905 1.613 . S
S904 N906 1.610 . S
N905 S904 1.613 . S
N905 C908 1.350 . S
N906 S904 1.610 . S
N906 C907 1.351 . S
C907 C901 1.428 . S
C907 N906 1.351 . S
C907 C908 1.434 . S
C908 C899 1.429 . S
C908 N905 1.350 . S
C908 C907 1.434 . S
C909 C910 1.369 . S
C909 C911 1.419 . S
C909 H913 0.930 . S
C910 C909 1.369 . S
C910 C919 1.429 . S
C911 C909 1.419 . S
C911 C912 1.363 . S
C911 H914 0.929 . S
C912 C911 1.363 . S
C912 C918 1.428 . S
H913 C909 0.930 . S
H914 C911 0.929 . S
S915 N916 1.613 . S
S915 N917 1.610 . S
N916 S915 1.613 . S
N916 C919 1.350 . S
N917 S915 1.610 . S
N917 C918 1.351 . S
C918 C912 1.428 . S
C918 N917 1.351 . S
C918 C919 1.434 . S
C919 C910 1.429 . S
C919 N916 1.350 . S
C919 C918 1.434 . S
C920 C921 1.369 . S
C920 C922 1.419 . S
C920 H924 0.930 . S
C921 C920 1.369 . S
C921 C930 1.429 . S
C922 C920 1.419 . S
C922 C923 1.363 . S
C922 H925 0.929 . S
C923 C922 1.363 . S
C923 C929 1.428 . S
H924 C920 0.930 . S
H925 C922 0.929 . S
S926 N927 1.613 1_565 S
S926 N928 1.610 . S
N927 S926 1.613 1_545 S
N927 C930 1.350 . S
N928 S926 1.610 . S
N928 C929 1.351 1_565 S
C929 C923 1.428 . S
C929 N928 1.351 1_545 S
C929 C930 1.434 . S
C930 C921 1.429 . S
C930 N927 1.350 . S
C930 C929 1.434 . S
C931 C932 1.369 . S
C931 C933 1.419 . S
C931 H935 0.930 . S
C932 C931 1.369 . S
C932 C941 1.429 . S
C933 C931 1.419 . S
C933 C934 1.363 . S
C933 H936 0.929 . S
C934 C933 1.363 . S
C934 C940 1.428 . S
H935 C931 0.930 . S
H936 C933 0.929 . S
S937 N938 1.613 . S
S937 N939 1.610 . S
N938 S937 1.613 . S
N938 C941 1.350 . S
N939 S937 1.610 . S
N939 C940 1.351 . S
C940 C934 1.428 . S
C940 N939 1.351 . S
C940 C941 1.434 . S
C941 C932 1.429 . S
C941 N938 1.350 . S
C941 C940 1.434 . S
C942 C943 1.369 . S
C942 C944 1.419 . S
C942 H946 0.930 . S
C943 C942 1.369 . S
C943 C952 1.429 . S
C944 C942 1.419 . S
C944 C945 1.363 . S
C944 H947 0.929 . S
C945 C944 1.363 . S
C945 C951 1.428 . S
H946 C942 0.930 . S
H947 C944 0.929 . S
S948 N949 1.613 . S
S948 N950 1.610 . S
N949 S948 1.613 . S
N949 C952 1.350 . S
N950 S948 1.610 . S
N950 C951 1.351 . S
C951 C945 1.428 . S
C951 N950 1.351 . S
C951 C952 1.434 . S
C952 C943 1.429 . S
C952 N949 1.350 . S
C952 C951 1.434 . S
C953 C954 1.369 . S
C953 C955 1.419 . S
C953 H957 0.930 . S
C954 C953 1.369 . S
C954 C963 1.429 . S
C955 C953 1.419 . S
C955 C956 1.363 . S
C955 H958 0.929 . S
C956 C955 1.363 . S
C956 C962 1.428 . S
H957 C953 0.930 . S
H958 C955 0.929 . S
S959 N960 1.613 . S
S959 N961 1.610 . S
N960 S959 1.613 . S
N960 C963 1.350 . S
N961 S959 1.610 . S
N961 C962 1.351 . S
C962 C956 1.428 . S
C962 N961 1.351 . S
C962 C963 1.434 . S
C963 C954 1.429 . S
C963 N960 1.350 . S
C963 C962 1.434 . S
C964 C965 1.369 . S
C964 C966 1.419 . S
C964 H968 0.930 . S
C965 C964 1.369 . S
C965 C974 1.429 . S
C966 C964 1.419 . S
C966 C967 1.363 . S
C966 H969 0.929 . S
C967 C966 1.363 . S
C967 C973 1.428 . S
H968 C964 0.930 . S
H969 C966 0.929 . S
S970 N971 1.613 1_655 S
S970 N972 1.610 . S
N971 S970 1.613 1_455 S
N971 C974 1.350 . S
N972 S970 1.610 . S
N972 C973 1.351 1_655 S
C973 C967 1.428 . S
C973 N972 1.351 1_455 S
C973 C974 1.434 . S
C974 C965 1.429 . S
C974 N971 1.350 . S
C974 C973 1.434 . S
C975 C976 1.369 . S
C975 C977 1.419 . S
C975 H979 0.930 . S
C976 C975 1.369 . S
C976 C985 1.429 . S
C977 C975 1.419 . S
C977 C978 1.363 . S
C977 H980 0.929 . S
C978 C977 1.363 . S
C978 C984 1.428 . S
H979 C975 0.930 . S
H980 C977 0.929 . S
S981 N982 1.613 . S
S981 N983 1.610 . S
N982 S981 1.613 . S
N982 C985 1.350 . S
N983 S981 1.610 . S
N983 C984 1.351 . S
C984 C978 1.428 . S
C984 N983 1.351 . S
C984 C985 1.434 . S
C985 C976 1.429 . S
C985 N982 1.350 . S
C985 C984 1.434 . S
C986 C987 1.369 . S
C986 C988 1.419 . S
C986 H990 0.930 . S
C987 C986 1.369 . S
C987 C996 1.429 . S
C988 C986 1.419 . S
C988 C989 1.363 . S
C988 H991 0.929 . S
C989 C988 1.363 . S
C989 C995 1.428 . S
H990 C986 0.930 . S
H991 C988 0.929 . S
S992 N993 1.613 . S
S992 N994 1.610 . S
N993 S992 1.613 . S
N993 C996 1.350 . S
N994 S992 1.610 . S
N994 C995 1.351 . S
C995 C989 1.428 . S
C995 N994 1.351 . S
C995 C996 1.434 . S
C996 C987 1.429 . S
C996 N993 1.350 . S
C996 C995 1.434 . S
C997 C998 1.369 . S
C997 C999 1.419 . S
C997 H1001 0.930 . S
C998 C997 1.369 . S
C998 C1007 1.429 . S
C999 C997 1.419 . S
C999 C1000 1.363 . S
C999 H1002 0.929 . S
C1000 C999 1.363 . S
C1000 C1006 1.428 . S
H1001 C997 0.930 . S
H1002 C999 0.929 . S
S1003 N1004 1.613 . S
S1003 N1005 1.610 . S
N1004 S1003 1.613 . S
N1004 C1007 1.350 . S
N1005 S1003 1.610 . S
N1005 C1006 1.351 . S
C1006 C1000 1.428 . S
C1006 N1005 1.351 . S
C1006 C1007 1.434 . S
C1007 C998 1.429 . S
C1007 N1004 1.350 . S
C1007 C1006 1.434 . S
C1008 C1009 1.369 . S
C1008 C1010 1.419 . S
C1008 H1012 0.930 . S
C1009 C1008 1.369 . S
C1009 C1018 1.429 . S
C1010 C1008 1.419 . S
C1010 C1011 1.363 . S
C1010 H1013 0.929 . S
C1011 C1010 1.363 . S
C1011 C1017 1.428 . S
H1012 C1008 0.930 . S
H1013 C1010 0.929 . S
S1014 N1015 1.613 . S
S1014 N1016 1.610 . S
N1015 S1014 1.613 . S
N1015 C1018 1.350 . S
N1016 S1014 1.610 . S
N1016 C1017 1.351 . S
C1017 C1011 1.428 . S
C1017 N1016 1.351 . S
C1017 C1018 1.434 . S
C1018 C1009 1.429 . S
C1018 N1015 1.350 . S
C1018 C1017 1.434 . S
C1019 C1020 1.369 . S
C1019 C1021 1.419 . S
C1019 H1023 0.930 . S
C1020 C1019 1.369 . S
C1020 C1029 1.429 . S
C1021 C1019 1.419 . S
C1021 C1022 1.363 . S
C1021 H1024 0.929 . S
C1022 C1021 1.363 . S
C1022 C1028 1.428 . S
H1023 C1019 0.930 . S
H1024 C1021 0.929 . S
S1025 N1026 1.613 . S
S1025 N1027 1.610 . S
N1026 S1025 1.613 . S
N1026 C1029 1.350 . S
N1027 S1025 1.610 . S
N1027 C1028 1.351 . S
C1028 C1022 1.428 . S
C1028 N1027 1.351 . S
C1028 C1029 1.434 . S
C1029 C1020 1.429 . S
C1029 N1026 1.350 . S
C1029 C1028 1.434 . S
C1030 C1031 1.369 . S
C1030 C1032 1.419 . S
C1030 H1034 0.930 . S
C1031 C1030 1.369 . S
C1031 C1040 1.429 . S
C1032 C1030 1.419 . S
C1032 C1033 1.363 . S
C1032 H1035 0.929 . S
C1033 C1032 1.363 . S
C1033 C1039 1.428 . S
H1034 C1030 0.930 . S
H1035 C1032 0.929 . S
S1036 N1037 1.613 . S
S1036 N1038 1.610 . S
N1037 S1036 1.613 . S
N1037 C1040 1.350 . S
N1038 S1036 1.610 . S
N1038 C1039 1.351 . S
C1039 C1033 1.428 . S
C1039 N1038 1.351 . S
C1039 C1040 1.434 . S
C1040 C1031 1.429 . S
C1040 N1037 1.350 . S
C1040 C1039 1.434 . S
C1041 C1042 1.369 . S
C1041 C1043 1.419 . S
C1041 H1045 0.930 . S
C1042 C1041 1.369 . S
C1042 C1051 1.429 . S
C1043 C1041 1.419 . S
C1043 C1044 1.363 . S
C1043 H1046 0.929 . S
C1044 C1043 1.363 . S
C1044 C1050 1.428 . S
H1045 C1041 0.930 . S
H1046 C1043 0.929 . S
S1047 N1048 1.613 . S
S1047 N1049 1.610 . S
N1048 S1047 1.613 . S
N1048 C1051 1.350 . S
N1049 S1047 1.610 . S
N1049 C1050 1.351 . S
C1050 C1044 1.428 . S
C1050 N1049 1.351 . S
C1050 C1051 1.434 . S
C1051 C1042 1.429 . S
C1051 N1048 1.350 . S
C1051 C1050 1.434 . S
C1052 C1053 1.369 . S
C1052 C1054 1.419 . S
C1052 H1056 0.930 . S
C1053 C1052 1.369 . S
C1053 C1062 1.429 . S
C1054 C1052 1.419 . S
C1054 C1055 1.363 . S
C1054 H1057 0.929 . S
C1055 C1054 1.363 . S
C1055 C1061 1.428 . S
H1056 C1052 0.930 . S
H1057 C1054 0.929 . S
S1058 N1059 1.613 . S
S1058 N1060 1.610 . S
N1059 S1058 1.613 . S
N1059 C1062 1.350 . S
N1060 S1058 1.610 . S
N1060 C1061 1.351 . S
C1061 C1055 1.428 . S
C1061 N1060 1.351 . S
C1061 C1062 1.434 . S
C1062 C1053 1.429 . S
C1062 N1059 1.350 . S
C1062 C1061 1.434 . S
C1063 C1064 1.369 . S
C1063 C1065 1.419 . S
C1063 H1067 0.930 . S
C1064 C1063 1.369 . S
C1064 C1073 1.429 . S
C1065 C1063 1.419 . S
C1065 C1066 1.363 . S
C1065 H1068 0.929 . S
C1066 C1065 1.363 . S
C1066 C1072 1.428 . S
H1067 C1063 0.930 . S
H1068 C1065 0.929 . S
S1069 N1070 1.613 . S
S1069 N1071 1.610 . S
N1070 S1069 1.613 . S
N1070 C1073 1.350 . S
N1071 S1069 1.610 . S
N1071 C1072 1.351 . S
C1072 C1066 1.428 . S
C1072 N1071 1.351 . S
C1072 C1073 1.434 . S
C1073 C1064 1.429 . S
C1073 N1070 1.350 . S
C1073 C1072 1.434 . S
C1074 C1075 1.369 . S
C1074 C1076 1.419 . S
C1074 H1078 0.930 . S
C1075 C1074 1.369 . S
C1075 C1084 1.429 . S
C1076 C1074 1.419 . S
C1076 C1077 1.363 . S
C1076 H1079 0.929 . S
C1077 C1076 1.363 . S
C1077 C1083 1.428 . S
H1078 C1074 0.930 . S
H1079 C1076 0.929 . S
S1080 N1081 1.613 . S
S1080 N1082 1.610 . S
N1081 S1080 1.613 . S
N1081 C1084 1.350 . S
N1082 S1080 1.610 . S
N1082 C1083 1.351 . S
C1083 C1077 1.428 . S
C1083 N1082 1.351 . S
C1083 C1084 1.434 . S
C1084 C1075 1.429 . S
C1084 N1081 1.350 . S
C1084 C1083 1.434 . S
C1085 C1086 1.369 . S
C1085 C1087 1.419 . S
C1085 H1089 0.930 . S
C1086 C1085 1.369 . S
C1086 C1095 1.429 . S
C1087 C1085 1.419 . S
C1087 C1088 1.363 . S
C1087 H1090 0.929 . S
C1088 C1087 1.363 . S
C1088 C1094 1.428 . S
H1089 C1085 0.930 . S
H1090 C1087 0.929 . S
S1091 N1092 1.613 . S
S1091 N1093 1.610 . S
N1092 S1091 1.613 . S
N1092 C1095 1.350 . S
N1093 S1091 1.610 . S
N1093 C1094 1.351 . S
C1094 C1088 1.428 . S
C1094 N1093 1.351 . S
C1094 C1095 1.434 . S
C1095 C1086 1.429 . S
C1095 N1092 1.350 . S
C1095 C1094 1.434 . S
C1096 C1097 1.369 . S
C1096 C1098 1.419 . S
C1096 H1100 0.930 . S
C1097 C1096 1.369 . S
C1097 C1106 1.429 . S
C1098 C1096 1.419 . S
C1098 C1099 1.363 . S
C1098 H1101 0.929 . S
C1099 C1098 1.363 . S
C1099 C1105 1.428 . S
H1100 C1096 0.930 . S
H1101 C1098 0.929 . S
S1102 N1103 1.613 . S
S1102 N1104 1.610 . S
N1103 S1102 1.613 . S
N1103 C1106 1.350 . S
N1104 S1102 1.610 . S
N1104 C1105 1.351 . S
C1105 C1099 1.428 . S
C1105 N1104 1.351 . S
C1105 C1106 1.434 . S
C1106 C1097 1.429 . S
C1106 N1103 1.350 . S
C1106 C1105 1.434 . S
C613 C315 0.629 . S
C615 C9 0.627 . S
C624 C349 0.623 . S
C626 C43 0.611 . S
C635 C383 0.616 . S
C637 C77 0.605 1_565 S
C646 C111 0.617 . S
C648 C417 0.610 . S
C657 C451 0.629 . S
C659 C145 0.622 1_655 S
C668 C485 0.611 . S
C670 C179 0.612 . S
C679 C213 0.632 . S
C681 C519 0.623 . S
C690 C553 0.624 . S
C692 C247 0.629 . S
C701 C587 0.617 . S
C703 C281 0.629 . S
C712 C598 1.962 . S
C714 C20 1.960 . S
C723 C530 1.962 . S
C725 C54 1.957 . S
C734 C88 1.961 . S
C736 C564 1.960 . S
C745 C258 1.956 . S
C747 C122 1.960 . S
C756 C292 1.963 . S
C758 C156 1.957 . S
C767 C190 1.962 . S
C769 C224 1.960 . S
C778 C326 1.957 . S
C780 C462 1.959 . S
C789 C496 1.957 . S
C791 C360 1.962 . S
C800 C394 1.963 . S
C802 C428 1.957 . S
C811 C2 1.899 . S
C813 C138 1.899 . S
C822 C172 1.894 . S
C824 C36 1.902 . S
C833 C104 1.896 . S
C835 C70 1.900 . S
C844 C342 1.897 . S
C846 C206 1.901 . S
C855 C240 1.895 . S
C857 C376 1.902 . S
C866 C308 1.895 . S
C868 C274 1.901 . S
C877 C410 1.903 . S
C879 C546 1.896 . S
C888 C580 1.895 . S
C890 C444 1.902 . S
C899 C478 1.895 . S
C901 C512 1.902 . S
C910 C101 1.595 1_545 S
C912 C5 1.578 . S
C921 C33 1.595 . S
C923 C39 1.576 1_545 S
C932 C67 1.585 . S
C934 C73 1.582 1_655 S
C943 C169 1.595 1_455 S
C945 C107 1.575 . S
C954 C141 1.584 1_565 S
C956 C203 1.587 . S
C965 C135 1.592 . S
C967 C175 1.575 1_455 S
C976 C305 1.595 . S
C978 C209 1.577 . S
C987 C237 1.591 . S
C989 C243 1.576 . S
C998 C277 1.576 . S
C1000 C271 1.594 . S
C1009 C311 1.576 . S
C1011 C373 1.590 . S
C1020 C407 1.588 . S
C1022 C345 1.583 . S
C1031 C339 1.595 . S
C1033 C379 1.576 . S
C1042 C413 1.577 . S
C1044 C509 1.594 . S
C1053 C441 1.595 . S
C1055 C447 1.578 . S
C1064 C475 1.593 . S
C1066 C481 1.575 . S
C1075 C577 1.595 . S
C1077 C515 1.575 . S
C1086 C611 1.592 . S
C1088 C549 1.581 . S
C1097 C543 1.585 . S
C1099 C583 1.582 . S
