# Generated by pormake.
# Topology ung, (4)-cn, num edge types: 1
# Building blocks:
#     Node 0, Type 0, BuildingBlock: GALJAG_clean_sbu_0, # of connection points: 4
#     Node 1, Type 0, BuildingBlock: GALJAG_clean_sbu_0, # of connection points: 4
#     Node 2, Type 0, BuildingBlock: GALJAG_clean_sbu_0, # of connection points: 4
#     Node 3, Type 0, BuildingBlock: GALJAG_clean_sbu_0, # of connection points: 4
#     Node 4, Type 0, BuildingBlock: GALJAG_clean_sbu_0, # of connection points: 4
#     Node 5, Type 0, BuildingBlock: GALJAG_clean_sbu_0, # of connection points: 4
#     Node 6, Type 0, BuildingBlock: GALJAG_clean_sbu_0, # of connection points: 4
#     Node 7, Type 0, BuildingBlock: GALJAG_clean_sbu_0, # of connection points: 4
#     Node 8, Type 0, BuildingBlock: GALJAG_clean_sbu_0, # of connection points: 4
#     Node 9, Type 0, BuildingBlock: GALJAG_clean_sbu_0, # of connection points: 4
#     Node 10, Type 0, BuildingBlock: GALJAG_clean_sbu_0, # of connection points: 4
#     Node 11, Type 0, BuildingBlock: GALJAG_clean_sbu_0, # of connection points: 4
#     Node 12, Type 0, BuildingBlock: GALJAG_clean_sbu_0, # of connection points: 4
#     Node 13, Type 0, BuildingBlock: GALJAG_clean_sbu_0, # of connection points: 4
#     Node 14, Type 0, BuildingBlock: GALJAG_clean_sbu_0, # of connection points: 4
#     Node 15, Type 0, BuildingBlock: GALJAG_clean_sbu_0, # of connection points: 4
#     Node 16, Type 0, BuildingBlock: GALJAG_clean_sbu_0, # of connection points: 4
#     Node 17, Type 0, BuildingBlock: GALJAG_clean_sbu_0, # of connection points: 4
#     Edge 18, Type (0, 0), BuildingBlock: AJUNOK_clean_linker_0, # of connection points: 2
#     Edge 19, Type (0, 0), BuildingBlock: AJUNOK_clean_linker_0, # of connection points: 2
#     Edge 20, Type (0, 0), BuildingBlock: AJUNOK_clean_linker_0, # of connection points: 2
#     Edge 21, Type (0, 0), BuildingBlock: AJUNOK_clean_linker_0, # of connection points: 2
#     Edge 22, Type (0, 0), BuildingBlock: AJUNOK_clean_linker_0, # of connection points: 2
#     Edge 23, Type (0, 0), BuildingBlock: AJUNOK_clean_linker_0, # of connection points: 2
#     Edge 24, Type (0, 0), BuildingBlock: AJUNOK_clean_linker_0, # of connection points: 2
#     Edge 25, Type (0, 0), BuildingBlock: AJUNOK_clean_linker_0, # of connection points: 2
#     Edge 26, Type (0, 0), BuildingBlock: AJUNOK_clean_linker_0, # of connection points: 2
#     Edge 27, Type (0, 0), BuildingBlock: AJUNOK_clean_linker_0, # of connection points: 2
#     Edge 28, Type (0, 0), BuildingBlock: AJUNOK_clean_linker_0, # of connection points: 2
#     Edge 29, Type (0, 0), BuildingBlock: AJUNOK_clean_linker_0, # of connection points: 2
#     Edge 30, Type (0, 0), BuildingBlock: AJUNOK_clean_linker_0, # of connection points: 2
#     Edge 31, Type (0, 0), BuildingBlock: AJUNOK_clean_linker_0, # of connection points: 2
#     Edge 32, Type (0, 0), BuildingBlock: AJUNOK_clean_linker_0, # of connection points: 2
#     Edge 33, Type (0, 0), BuildingBlock: AJUNOK_clean_linker_0, # of connection points: 2
#     Edge 34, Type (0, 0), BuildingBlock: AJUNOK_clean_linker_0, # of connection points: 2
#     Edge 35, Type (0, 0), BuildingBlock: AJUNOK_clean_linker_0, # of connection points: 2
#     Edge 36, Type (0, 0), BuildingBlock: AJUNOK_clean_linker_0, # of connection points: 2
#     Edge 37, Type (0, 0), BuildingBlock: AJUNOK_clean_linker_0, # of connection points: 2
#     Edge 38, Type (0, 0), BuildingBlock: AJUNOK_clean_linker_0, # of connection points: 2
#     Edge 39, Type (0, 0), BuildingBlock: AJUNOK_clean_linker_0, # of connection points: 2
#     Edge 40, Type (0, 0), BuildingBlock: AJUNOK_clean_linker_0, # of connection points: 2
#     Edge 41, Type (0, 0), BuildingBlock: AJUNOK_clean_linker_0, # of connection points: 2
#     Edge 42, Type (0, 0), BuildingBlock: AJUNOK_clean_linker_0, # of connection points: 2
#     Edge 43, Type (0, 0), BuildingBlock: AJUNOK_clean_linker_0, # of connection points: 2
#     Edge 44, Type (0, 0), BuildingBlock: AJUNOK_clean_linker_0, # of connection points: 2
#     Edge 45, Type (0, 0), BuildingBlock: AJUNOK_clean_linker_0, # of connection points: 2
#     Edge 46, Type (0, 0), BuildingBlock: AJUNOK_clean_linker_0, # of connection points: 2
#     Edge 47, Type (0, 0), BuildingBlock: AJUNOK_clean_linker_0, # of connection points: 2
#     Edge 48, Type (0, 0), BuildingBlock: AJUNOK_clean_linker_0, # of connection points: 2
#     Edge 49, Type (0, 0), BuildingBlock: AJUNOK_clean_linker_0, # of connection points: 2
#     Edge 50, Type (0, 0), BuildingBlock: AJUNOK_clean_linker_0, # of connection points: 2
#     Edge 51, Type (0, 0), BuildingBlock: AJUNOK_clean_linker_0, # of connection points: 2
#     Edge 52, Type (0, 0), BuildingBlock: AJUNOK_clean_linker_0, # of connection points: 2
#     Edge 53, Type (0, 0), BuildingBlock: AJUNOK_clean_linker_0, # of connection points: 2
# Relax obj value: 0.030
# Max RMSD: 0.133
# Mean RMSD: 0.133
data_MOF--net-ung--node1-GALJAG_clean_sbu_0--edge1-AJUNOK_clean_linker_0
_symmetry_space_group_name_H-M    P1
_symmetry_Int_Tables_number       1
_symmetry_cell_setting            triclinic
loop_
_symmetry_equiv_pos_as_xyz
'x, y, z'
_cell_length_a     58.251001
_cell_length_b     58.314608
_cell_length_c     15.101227
_cell_angle_alpha  90.015629
_cell_angle_beta   89.932838
_cell_angle_gamma 119.92945
loop_
_atom_site_label
_atom_site_type_symbol
_atom_site_fract_x
_atom_site_fract_y
_atom_site_fract_z
_atom_type_partial_charge
In0 In 0.08204 0.6537 0.24822 0.0
O1 O 0.10347 0.64327 0.14339 0.0
O2 O 0.06214 0.6169 0.16572 0.0
C3 C 0.11629 0.69994 0.32412 0.0
C4 C 0.07875 0.62031 0.3749 0.0
C5 C 0.04941 0.66764 0.17047 0.0
O6 O 0.12079 0.69354 0.24856 0.0
O7 O 0.0949 0.6831 0.36005 0.0
O8 O 0.0443 0.65667 0.24595 0.0
O9 O 0.0707 0.67142 0.13554 0.0
C10 C 0.08285 0.62157 0.12406 0.0
O11 O 0.05931 0.62353 0.35603 0.0
O12 O 0.09968 0.63448 0.33127 0.0
In13 In 0.5151 0.51011 0.25515 0.0
O14 O 0.52421 0.5413 0.1498 0.0
O15 O 0.55434 0.53226 0.18636 0.0
C16 C 0.46534 0.48914 0.31351 0.0
C17 C 0.54191 0.53936 0.39458 0.0
C18 C 0.50755 0.46724 0.16645 0.0
O19 O 0.47498 0.50856 0.2603 0.0
O20 O 0.48087 0.48106 0.33709 0.0
O21 O 0.51659 0.47182 0.2448 0.0
O22 O 0.5028 0.48438 0.13372 0.0
C23 C 0.54785 0.5461 0.13963 0.0
O24 O 0.54369 0.51946 0.3703 0.0
O25 O 0.5258 0.54333 0.35078 0.0
In26 In 0.65156 0.08382 0.24067 0.0
O27 O 0.62042 0.06346 0.13346 0.0
O28 O 0.63601 0.10483 0.15852 0.0
C29 C 0.66798 0.05561 0.33185 0.0
C30 C 0.62119 0.08594 0.36841 0.0
C31 C 0.69633 0.10954 0.14782 0.0
O32 O 0.65019 0.04486 0.27271 0.0
O33 O 0.67677 0.08006 0.34443 0.0
O34 O 0.6907 0.12113 0.20827 0.0
O35 O 0.67912 0.08558 0.13424 0.0
C36 C 0.62005 0.08457 0.11497 0.0
O37 O 0.64338 0.10601 0.34864 0.0
O38 O 0.6152 0.06511 0.32523 0.0
In39 In 0.07515 0.51037 0.74836 0.0
O40 O 0.09524 0.53953 0.63562 0.0
O41 O 0.05589 0.52944 0.67446 0.0
C42 C 0.10421 0.49159 0.82155 0.0
C43 C 0.07853 0.54306 0.87761 0.0
C44 C 0.04073 0.46498 0.67033 0.0
O45 O 0.11329 0.50803 0.75793 0.0
O46 O 0.08125 0.48554 0.84731 0.0
O47 O 0.03601 0.47136 0.74566 0.0
O48 O 0.06235 0.48162 0.63472 0.0
C49 C 0.07552 0.54298 0.62451 0.0
O50 O 0.05683 0.52227 0.85947 0.0
O51 O 0.09822 0.5465 0.83224 0.0
In52 In 0.65279 0.65045 0.75427 0.0
O53 O 0.64413 0.62188 0.86894 0.0
O54 O 0.61883 0.63814 0.84799 0.0
C55 C 0.69608 0.66017 0.66327 0.0
C56 C 0.61746 0.61701 0.63894 0.0
C57 C 0.67263 0.69921 0.81966 0.0
O58 O 0.69142 0.64986 0.73991 0.0
O59 O 0.67879 0.66516 0.63317 0.0
O60 O 0.65345 0.69003 0.76545 0.0
O61 O 0.68115 0.68381 0.84018 0.0
C62 C 0.62353 0.62258 0.89215 0.0
O63 O 0.6211 0.64022 0.64975 0.0
O64 O 0.63217 0.61141 0.68461 0.0
In65 In 0.51161 0.08423 0.74183 0.0
O66 O 0.5419 0.10558 0.85019 0.0
O67 O 0.52957 0.065 0.82311 0.0
C68 C 0.49743 0.11665 0.66474 0.0
C69 C 0.54467 0.08528 0.61733 0.0
C70 C 0.46534 0.05054 0.81881 0.0
O71 O 0.50864 0.12192 0.73984 0.0
O72 O 0.49353 0.09531 0.63001 0.0
O73 O 0.47168 0.04561 0.7437 0.0
O74 O 0.48226 0.07208 0.85363 0.0
C75 C 0.54427 0.08555 0.86761 0.0
O76 O 0.52281 0.06438 0.63343 0.0
O77 O 0.54905 0.10527 0.66259 0.0
In78 In 0.74936 0.98639 0.57486 0.0
O79 O 0.7285 0.9572 0.687 0.0
O80 O 0.7675 0.96611 0.64847 0.0
C81 C 0.71971 0.00508 0.50542 0.0
C82 C 0.74804 0.95543 0.44232 0.0
C83 C 0.78394 0.03052 0.6592 0.0
O84 O 0.71007 0.98634 0.56134 0.0
O85 O 0.74374 0.01388 0.48579 0.0
O86 O 0.78896 0.02483 0.58316 0.0
O87 O 0.7617 0.01399 0.69147 0.0
C88 C 0.74776 0.95308 0.69847 0.0
O89 O 0.7692 0.97641 0.46317 0.0
O90 O 0.7278 0.95107 0.48612 0.0
In91 In 0.1784 0.8473 0.57557 0.0
O92 O 0.1868 0.87781 0.46777 0.0
O93 O 0.21536 0.86574 0.49319 0.0
C94 C 0.1326 0.83455 0.65717 0.0
C95 C 0.21175 0.87875 0.69973 0.0
C96 C 0.16609 0.80138 0.49662 0.0
O97 O 0.138 0.84518 0.58112 0.0
O98 O 0.14993 0.83015 0.68992 0.0
O99 O 0.17704 0.80732 0.57208 0.0
O100 O 0.16113 0.81823 0.46316 0.0
C101 C 0.20921 0.88031 0.44918 0.0
O102 O 0.20959 0.85651 0.68121 0.0
O103 O 0.19663 0.88442 0.65683 0.0
In104 In 0.31523 0.41057 0.55831 0.0
O105 O 0.28573 0.38909 0.44802 0.0
O106 O 0.29953 0.43032 0.47053 0.0
C107 C 0.33256 0.38488 0.65905 0.0
C108 C 0.28181 0.41087 0.67719 0.0
C109 C 0.36067 0.43703 0.4702 0.0
O110 O 0.31603 0.37313 0.59696 0.0
O111 O 0.33963 0.40905 0.66974 0.0
O112 O 0.3539 0.44847 0.52781 0.0
O113 O 0.34419 0.41282 0.45694 0.0
C114 C 0.28457 0.40962 0.4269 0.0
O115 O 0.30386 0.43161 0.66095 0.0
O116 O 0.27755 0.39035 0.63521 0.0
In117 In 0.75158 0.84778 0.07546 0.0
O118 O 0.77126 0.87889 0.96774 0.0
O119 O 0.72975 0.86242 0.99262 0.0
C120 C 0.784 0.83556 0.16182 0.0
C121 C 0.74889 0.87873 0.19922 0.0
C122 C 0.72456 0.80171 0.99025 0.0
O123 O 0.79091 0.84864 0.09004 0.0
O124 O 0.76109 0.82917 0.18974 0.0
O125 O 0.7141 0.80761 0.05372 0.0
O126 O 0.748 0.8191 0.97098 0.0
C127 C 0.7499 0.87879 0.94944 0.0
O128 O 0.7293 0.85589 0.18313 0.0
O129 O 0.76965 0.88505 0.15486 0.0
In130 In 0.31805 0.98771 0.07464 0.0
O131 O 0.30745 0.95768 0.18559 0.0
O132 O 0.27983 0.97019 0.14955 0.0
C133 C 0.3642 0.00105 -0.00453 0.0
C134 C 0.28688 0.95498 0.94912 0.0
C135 C 0.33031 0.03336 0.15461 0.0
O136 O 0.3583 0.9896 0.0703 0.0
O137 O 0.34721 0.00606 0.96313 0.0
O138 O 0.3192 0.02753 0.07928 0.0
O139 O 0.3355 0.01653 0.18723 0.0
C140 C 0.2849 0.95562 0.19808 0.0
O141 O 0.28821 0.97712 0.96319 0.0
O142 O 0.30166 0.9501 -0.00271 0.0
In143 In 0.17703 0.41326 0.0583 0.0
O144 O 0.18389 0.39163 0.94555 0.0
O145 O 0.21238 0.4324 0.96928 0.0
C146 C 0.13282 0.38638 0.15273 0.0
C147 C 0.20961 0.41195 0.17891 0.0
C148 C 0.1592 0.44181 0.9779 0.0
O149 O 0.13843 0.37539 0.09023 0.0
O150 O 0.14974 0.41036 0.16751 0.0
O151 O 0.17787 0.45237 0.03411 0.0
O152 O 0.15058 0.41759 0.96154 0.0
C153 C 0.20588 0.41173 0.92448 0.0
O154 O 0.2089 0.43305 0.16364 0.0
O155 O 0.19341 0.39192 0.13498 0.0
In156 In 0.4207 0.32331 0.90167 0.0
O157 O 0.40066 0.29362 0.01346 0.0
O158 O 0.43898 0.30211 0.96886 0.0
C159 C 0.38877 0.34044 0.84046 0.0
C160 C 0.42029 0.29438 0.76369 0.0
C161 C 0.45593 0.36755 0.9847 0.0
O162 O 0.38016 0.32085 0.8927 0.0
O163 O 0.413 0.35105 0.82089 0.0
O164 O 0.45998 0.36214 0.90692 0.0
O165 O 0.43438 0.35055 0.01988 0.0
C166 C 0.41971 0.289 0.02044 0.0
O167 O 0.44113 0.31529 0.7869 0.0
O168 O 0.39982 0.28913 0.80774 0.0
In169 In 0.84713 0.17779 0.90547 0.0
O170 O 0.87829 0.18868 0.0123 0.0
O171 O 0.86179 0.21378 0.9926 0.0
C172 C 0.83624 0.13225 0.82849 0.0
C173 C 0.87841 0.20948 0.77776 0.0
C174 C 0.79894 0.1594 0.97573 0.0
O175 O 0.84708 0.1387 0.90412 0.0
O176 O 0.83142 0.14891 0.79213 0.0
O177 O 0.80755 0.17736 0.91699 0.0
O178 O 0.81477 0.15168 -0.001 0.0
C179 C 0.87844 0.20981 0.03312 0.0
O180 O 0.85562 0.2067 0.79188 0.0
O181 O 0.8846 0.19592 0.82696 0.0
In182 In 0.98578 0.75129 0.91478 0.0
O183 O 0.97473 0.77037 0.02586 0.0
O184 O 0.94831 0.72972 0.99307 0.0
C185 C 0.03192 0.78456 0.83671 0.0
C186 C 0.95335 0.75178 0.79149 0.0
C187 C -0.00062 0.71873 -0.00642 0.0
O188 O 0.02568 0.78985 0.91141 0.0
O189 O 0.01502 0.76279 0.80302 0.0
O190 O 0.98813 0.71324 0.91845 0.0
O191 O 0.00399 0.74051 0.02655 0.0
C192 C 0.95284 0.74935 0.04074 0.0
O193 O 0.95572 0.7315 0.8042 0.0
O194 O 0.9679 0.77156 0.8394 0.0
In195 In 0.4151 0.18085 0.4023 0.0
O196 O 0.39571 0.19386 0.50667 0.0
O197 O 0.4368 0.21904 0.47642 0.0
C198 C 0.38063 0.13447 0.32853 0.0
C199 C 0.41726 0.21253 0.27184 0.0
C200 C 0.44696 0.16699 0.48537 0.0
O201 O 0.3759 0.14142 0.40285 0.0
O202 O 0.40241 0.15075 0.29328 0.0
O203 O 0.4525 0.17738 0.40892 0.0
O204 O 0.42547 0.16342 0.51802 0.0
C205 C 0.4169 0.21564 0.52052 0.0
O206 O 0.43674 0.2092 0.28921 0.0
O207 O 0.39686 0.19932 0.31904 0.0
In208 In 0.9836 0.3206 0.40467 0.0
O209 O 0.9759 0.29064 0.51313 0.0
O210 O 0.94535 0.29936 0.47962 0.0
C211 C 0.03159 0.33915 0.33265 0.0
C212 C 0.95436 0.28983 0.27132 0.0
C213 C 0.99354 0.36414 0.49438 0.0
O214 O 0.02252 0.32033 0.38819 0.0
O215 O 0.01659 0.34839 0.31498 0.0
O216 O 0.98213 0.35883 0.41947 0.0
O217 O -0.00024 0.34755 0.52252 0.0
C218 C 0.95244 0.28603 0.5265 0.0
O219 O 0.9531 0.31014 0.29428 0.0
O220 O 0.97092 0.28617 0.31352 0.0
In221 In 0.84387 0.74813 0.41516 0.0
O222 O 0.85371 0.72661 0.30924 0.0
O223 O 0.8811 0.7675 0.33385 0.0
C224 C 0.79711 0.71335 0.48754 0.0
C225 C 0.87679 0.75052 0.54243 0.0
C226 C 0.83155 0.7821 0.33834 0.0
O227 O 0.80381 0.70957 0.41148 0.0
O228 O 0.81382 0.73439 0.52541 0.0
O229 O 0.84124 0.78613 0.41562 0.0
O230 O 0.82786 0.76108 0.30191 0.0
C231 C 0.87581 0.74686 0.29082 0.0
O232 O 0.87388 0.77017 0.52422 0.0
O233 O 0.86259 0.72988 0.49779 0.0
C234 C 0.0575 0.55977 0.98399 0.0
C235 C 0.08049 0.56294 0.94253 0.0
C236 C 0.05856 0.579 0.04186 0.0
C237 C 0.08265 0.60218 0.06057 0.0
H238 H 0.03844 0.54243 0.97108 0.0
H239 H 0.04024 0.57561 0.07203 0.0
S240 S 0.14872 0.61975 0.97083 0.0
N241 N 0.12826 0.59089 0.92531 0.0
N242 N 0.13014 0.62702 0.03424 0.0
C243 C 0.10585 0.60556 0.02014 0.0
C244 C 0.10481 0.58593 0.96117 0.0
C245 C 0.61009 0.58677 0.00454 0.0
C246 C 0.60477 0.6047 0.95973 0.0
C247 C 0.59158 0.56805 0.06296 0.0
C248 C 0.56696 0.56643 0.07842 0.0
H249 H 0.62852 0.58687 -0.00657 0.0
H250 H 0.59652 0.55449 0.09529 0.0
S251 S 0.5438 0.60966 0.98084 0.0
N252 N 0.57343 0.62035 0.93735 0.0
N253 N 0.53862 0.58498 0.04685 0.0
C254 C 0.56156 0.58455 0.03545 0.0
C255 C 0.58048 0.60375 0.97628 0.0
C256 C 0.58214 0.06214 0.00973 0.0
C257 C 0.60139 0.08549 0.05068 0.0
C258 C 0.5636 0.06239 0.95146 0.0
C259 C 0.56356 0.086 0.93201 0.0
H260 H 0.58123 0.04345 0.02312 0.0
H261 H 0.54918 0.04387 0.92146 0.0
S262 S 0.61021 0.1527 0.02039 0.0
N263 N 0.61958 0.13306 0.06669 0.0
N264 N 0.58465 0.1334 0.95728 0.0
C265 C 0.58274 0.10952 0.97222 0.0
C266 C 0.60169 0.1093 0.03143 0.0
C267 C 0.57844 0.06319 0.45106 0.0
C268 C 0.60255 0.08654 0.43376 0.0
C269 C 0.55974 0.06302 0.50969 0.0
C270 C 0.56439 0.08619 0.55343 0.0
H271 H 0.57384 0.04478 0.41882 0.0
H272 H 0.54156 0.04452 0.52099 0.0
S273 S 0.62433 0.15266 0.53094 0.0
N274 N 0.63002 0.13349 0.46489 0.0
N275 N 0.59494 0.13329 0.57529 0.0
C276 C 0.58843 0.10973 0.53682 0.0
C277 C 0.6075 0.10988 0.47703 0.0
C278 C 0.09915 0.59688 0.45065 0.0
C279 C 0.07725 0.60068 0.43993 0.0
C280 C 0.09832 0.57799 0.50969 0.0
C281 C 0.07558 0.56218 0.56044 0.0
H282 H 0.11713 0.60851 0.41284 0.0
H283 H 0.11571 0.57588 0.51575 0.0
S284 S 0.01288 0.56438 0.55742 0.0
N285 N 0.03218 0.5871 0.48509 0.0
N286 N 0.03052 0.55159 0.5963 0.0
C287 C 0.0535 0.56576 0.55045 0.0
C288 C 0.05436 0.58501 0.49018 0.0
C289 C 0.59773 0.57389 0.55947 0.0
C290 C 0.59735 0.59733 0.57861 0.0
C291 C 0.57918 0.55481 0.50216 0.0
C292 C 0.55943 0.55837 0.46216 0.0
H293 H 0.61276 0.57036 0.5879 0.0
H294 H 0.5807 0.53741 0.48783 0.0
S295 S 0.54862 0.61545 0.49563 0.0
N296 N 0.57482 0.62248 0.55661 0.0
N297 N 0.53974 0.58658 0.4492 0.0
C298 C 0.55832 0.58139 0.48278 0.0
C299 C 0.57735 0.6009 0.5408 0.0
C300 C 0.7712 0.9214 0.28152 0.0
C301 C 0.74779 0.89762 0.26189 0.0
C302 C 0.77099 0.94025 0.33825 0.0
C303 C 0.74735 0.93611 0.37745 0.0
H304 H 0.78997 0.92552 0.25313 0.0
H305 H 0.78958 0.95805 0.35223 0.0
S306 S 0.68042 0.87756 0.34494 0.0
N307 N 0.7002 0.87124 0.28427 0.0
N308 N 0.69968 0.90668 0.39094 0.0
C309 C 0.72369 0.91255 0.35755 0.0
C310 C 0.72395 0.89329 0.29989 0.0
C311 C 0.25302 0.90223 0.37297 0.0
C312 C 0.22774 0.89948 0.38374 0.0
C313 C 0.27145 0.92057 0.31343 0.0
C314 C 0.26532 0.93688 0.26221 0.0
H315 H 0.25878 0.89019 0.41114 0.0
H316 H 0.2906 0.92189 0.30748 0.0
S317 S 0.20171 0.93733 0.2647 0.0
N318 N 0.19745 0.91451 0.33784 0.0
N319 N 0.232 0.94902 0.22564 0.0
C320 C 0.24006 0.93433 0.27212 0.0
C321 C 0.22129 0.91562 0.3329 0.0
C322 C 0.26492 0.43296 0.34616 0.0
C323 C 0.26595 0.40961 0.36045 0.0
C324 C 0.2466 0.43352 0.2877 0.0
C325 C 0.22857 0.41076 0.24115 0.0
H326 H 0.27822 0.45101 0.38109 0.0
H327 H 0.24656 0.45195 0.27923 0.0
S328 S 0.22347 0.34467 0.25304 0.0
N329 N 0.24765 0.36325 0.32205 0.0
N330 N 0.21317 0.36418 0.21185 0.0
C331 C 0.22953 0.38729 0.25401 0.0
C332 C 0.24824 0.38675 0.31366 0.0
C333 C 0.24883 0.43389 0.84312 0.0
C334 C 0.22403 0.41108 0.85737 0.0
C335 C 0.26739 0.43366 0.78485 0.0
C336 C 0.26189 0.4106 0.73854 0.0
H337 H 0.2542 0.4521 0.87815 0.0
H338 H 0.28625 0.45166 0.77657 0.0
S339 S 0.1994 0.3458 0.74958 0.0
N340 N 0.19464 0.36499 0.81856 0.0
N341 N 0.22945 0.36443 0.70874 0.0
C342 C 0.23697 0.38771 0.75101 0.0
C343 C 0.21805 0.38798 0.81042 0.0
C344 C 0.77048 0.91292 0.83093 0.0
C345 C 0.74863 0.89726 0.88537 0.0
C346 C 0.76993 0.93095 0.7711 0.0
C347 C 0.74755 0.93411 0.76371 0.0
H348 H 0.78817 0.91125 0.8343 0.0
H349 H 0.78727 0.94248 0.73027 0.0
S350 S 0.68535 0.89829 0.89324 0.0
N351 N 0.70402 0.88633 0.92936 0.0
N352 N 0.70312 0.92032 0.81685 0.0
C353 C 0.7256 0.91869 0.81812 0.0
C354 C 0.72609 0.90022 0.87891 0.0
C355 C 0.25044 0.94046 0.83861 0.0
C356 C 0.26848 0.93549 0.88433 0.0
C357 C 0.23209 0.92185 0.77969 0.0
C358 C 0.23106 0.89753 0.76411 0.0
H359 H 0.2503 0.95878 0.84881 0.0
H360 H 0.21859 0.92663 0.7461 0.0
S361 S 0.27433 0.87503 0.86603 0.0
N362 N 0.28445 0.90454 0.9093 0.0
N363 N 0.24989 0.8696 0.79839 0.0
C364 C 0.24907 0.89233 0.80898 0.0
C365 C 0.2678 0.9113 0.86907 0.0
C366 C 0.396 0.25225 0.67893 0.0
C367 C 0.41993 0.27571 0.69676 0.0
C368 C 0.39521 0.2329 0.6222 0.0
C369 C 0.4183 0.23626 0.58094 0.0
H370 H 0.3777 0.24854 0.71009 0.0
H371 H 0.37634 0.21514 0.6109 0.0
S372 S 0.48596 0.29443 0.60382 0.0
N373 N 0.46721 0.30145 0.66733 0.0
N374 N 0.46582 0.26515 0.56043 0.0
C375 C 0.44234 0.25982 0.59706 0.0
C376 C 0.44312 0.27954 0.65493 0.0
C377 C 0.89121 0.24548 0.66638 0.0
C378 C 0.89718 0.2281 0.71168 0.0
C379 C 0.9093 0.26418 0.6069 0.0
C380 C 0.93407 0.26622 0.59055 0.0
H381 H 0.87254 0.24489 0.67757 0.0
H382 H 0.90382 0.27724 0.57388 0.0
S383 S 0.95889 0.22451 0.6894 0.0
N384 N 0.92936 0.21351 0.73414 0.0
N385 N 0.96331 0.24874 0.62242 0.0
C386 C 0.94019 0.24875 0.63455 0.0
C387 C 0.92175 0.22966 0.69503 0.0
C388 C 0.91832 0.72974 0.67637 0.0
C389 C 0.93423 0.75218 0.72804 0.0
C390 C 0.89964 0.7294 0.6174 0.0
C391 C 0.89614 0.75149 0.60772 0.0
H392 H 0.92024 0.71224 0.68143 0.0
H393 H 0.88797 0.71165 0.57871 0.0
S394 S 0.93253 0.81508 0.72886 0.0
N395 N 0.94506 0.79708 0.76657 0.0
N396 N 0.90993 0.79633 0.65548 0.0
C397 C 0.91182 0.77404 0.65919 0.0
C398 C 0.93088 0.77442 0.71937 0.0
C399 C 0.91856 0.77037 0.20854 0.0
C400 C 0.89483 0.74669 0.22636 0.0
C401 C 0.93739 0.77099 0.14948 0.0
C402 C 0.93322 0.74795 0.10589 0.0
H403 H 0.9227 0.78869 0.24038 0.0
H404 H 0.95522 0.78973 0.13741 0.0
S405 S 0.87465 0.68067 0.13117 0.0
N406 N 0.8684 0.69953 0.19687 0.0
N407 N 0.90374 0.70057 0.08578 0.0
C408 C 0.90965 0.72405 0.12355 0.0
C409 C 0.89046 0.72345 0.18374 0.0
C410 C 0.39714 0.23666 0.1993 0.0
C411 C 0.41827 0.23149 0.20498 0.0
C412 C 0.39777 0.2553 0.13957 0.0
C413 C 0.41954 0.26944 0.08306 0.0
H414 H 0.38 0.22645 0.24205 0.0
H415 H 0.3811 0.25867 0.13803 0.0
S416 S 0.47959 0.26261 0.06959 0.0
N417 N 0.46132 0.24157 0.14768 0.0
N418 N 0.46259 0.27658 0.03494 0.0
C419 C 0.44071 0.26425 0.08724 0.0
C420 C 0.44006 0.24528 0.14831 0.0
C421 C 0.91384 0.27114 0.17653 0.0
C422 C 0.93613 0.27014 0.20659 0.0
C423 C 0.8951 0.2513 0.12146 0.0
C424 C 0.89792 0.22969 0.09464 0.0
H425 H 0.91056 0.2871 0.19683 0.0
H426 H 0.8782 0.25289 0.10009 0.0
S427 S 0.95366 0.21867 0.15068 0.0
N428 N 0.96061 0.24634 0.20227 0.0
N429 N 0.92531 0.20908 0.09926 0.0
C430 C 0.92032 0.22866 0.12312 0.0
C431 C 0.93947 0.2489 0.17884 0.0
C432 C 0.13426 0.72776 0.45918 0.0
C433 C 0.13334 0.72584 0.36615 0.0
C434 C 0.14666 0.75244 0.50158 0.0
C435 C 0.15785 0.77595 0.45214 0.0
H436 H 0.12457 0.71004 0.49951 0.0
H437 H 0.14605 0.75308 0.57321 0.0
S438 S 0.16254 0.78171 0.20737 0.0
N439 N 0.14652 0.74951 0.22623 0.0
N440 N 0.16903 0.79595 0.30579 0.0
C441 C 0.15813 0.77432 0.35927 0.0
C442 C 0.14609 0.74921 0.3162 0.0
C443 C 0.4261 0.4906 0.37464 0.0
C444 C 0.43781 0.47593 0.34541 0.0
C445 C 0.40097 0.47795 0.41496 0.0
C446 C 0.38664 0.45025 0.42496 0.0
H447 H 0.43681 0.51198 0.36939 0.0
H448 H 0.39278 0.4899 0.43872 0.0
S449 S 0.40836 0.40307 0.35371 0.0
N450 N 0.4331 0.43245 0.32603 0.0
N451 N 0.38581 0.40861 0.39922 0.0
C452 C 0.39791 0.43542 0.39292 0.0
C453 C 0.42355 0.44829 0.35378 0.0
C454 C 0.71857 0.04428 0.44917 0.0
C455 C 0.70491 0.017 0.46669 0.0
C456 C 0.70611 0.05644 0.40713 0.0
C457 C 0.67966 0.04169 0.37887 0.0
H458 H 0.73918 0.05639 0.46798 0.0
H459 H 0.71758 0.07754 0.39474 0.0
S460 S 0.63505 0.96958 0.40949 0.0
N461 N 0.66334 0.97552 0.45466 0.0
N462 N 0.63996 -0.00165 0.3724 0.0
C463 C 0.66563 0.01436 0.39614 0.0
C464 C 0.67823 0.00201 0.44115 0.0
C465 C 0.73622 0.14983 0.08664 0.0
C466 C 0.72184 0.12224 0.09963 0.0
C467 C 0.76079 0.16193 0.04247 0.0
C468 C 0.77193 0.1468 0.01239 0.0
H469 H 0.72845 0.16212 0.11074 0.0
H470 H 0.77154 0.18324 0.03469 0.0
S471 S 0.74219 0.07401 0.02847 0.0
N472 N 0.72039 0.08022 0.07638 0.0
N473 N 0.76666 0.10301 -0.00385 0.0
C474 C 0.75764 0.11927 0.02415 0.0
C475 C 0.73255 0.10695 0.0671 0.0
C476 C 0.01992 0.69011 0.9904 0.0
C477 C 0.00808 0.70201 0.03885 0.0
C478 C 0.03246 0.67809 0.03386 0.0
C479 C 0.03288 0.67694 0.12697 0.0
H480 H 0.02083 0.69141 0.91879 0.0
H481 H 0.0425 0.67024 -0.00567 0.0
S482 S 0.00215 0.7028 0.28327 0.0
N483 N -0.00404 0.71048 0.18427 0.0
N484 N 0.01872 0.68704 0.26579 0.0
C485 C 0.01963 0.68729 0.17586 0.0
C486 C 0.00745 0.70009 0.13174 0.0
C487 C 0.47402 0.39396 0.12258 0.0
C488 C 0.47361 0.39281 0.02946 0.0
C489 C 0.48708 0.41826 0.16718 0.0
C490 C 0.49955 0.44218 0.11991 0.0
H491 H 0.46335 0.376 0.16124 0.0
H492 H 0.48583 0.41835 0.23877 0.0
S493 S 0.50613 0.44989 0.87599 0.0
N494 N 0.48874 0.41758 0.89183 0.0
N495 N 0.51252 0.46332 0.97569 0.0
C496 C 0.50045 0.44127 0.02707 0.0
C497 C 0.48769 0.41652 0.98173 0.0
C498 C 0.00713 0.41208 0.49615 0.0
C499 C 0.00127 0.38894 0.54291 0.0
C500 C 0.01882 0.4367 0.53896 0.0
C501 C 0.02414 0.43879 0.63027 0.0
H502 H 0.00414 0.41141 0.42519 0.0
H503 H 0.02448 0.45433 0.49994 0.0
S504 S 0.01077 0.38399 0.78377 0.0
N505 N 0.00053 0.36954 0.68636 0.0
N506 N 0.02165 0.41576 0.76689 0.0
C507 C 0.01696 0.41568 0.6787 0.0
C508 C 0.00571 0.39072 0.63492 0.0
C509 C 0.74503 0.68007 0.66495 0.0
C510 C 0.72134 0.66907 0.61645 0.0
C511 C 0.7696 0.69343 0.62199 0.0
C512 C 0.7713 0.69559 0.52911 0.0
H513 H 0.74459 0.67982 0.73669 0.0
H514 H 0.78741 0.70286 0.66195 0.0
S515 S 0.71502 0.66762 0.37192 0.0
N516 N 0.70097 0.65957 0.4707 0.0
N517 N 0.7473 0.68389 0.38978 0.0
C518 C 0.74781 0.68312 0.47965 0.0
C519 C 0.72275 0.67008 0.52347 0.0
C520 C 0.47547 0.14632 0.48401 0.0
C521 C 0.46324 0.15794 0.53188 0.0
C522 C 0.48739 0.13378 0.52795 0.0
C523 C 0.48813 0.13314 0.62106 0.0
H524 H 0.47457 0.14565 0.41233 0.0
H525 H 0.49553 0.12395 0.48874 0.0
S526 S 0.46126 0.16312 0.77631 0.0
N527 N 0.45397 0.16953 0.67701 0.0
N528 N 0.47725 0.14675 0.75947 0.0
C529 C 0.47741 0.1461 0.66953 0.0
C530 C 0.46469 0.15829 0.62489 0.0
C531 C 0.41324 0.02035 -0.00175 0.0
C532 C 0.38956 0.00944 0.9498 0.0
C533 C 0.43783 0.03265 0.95486 0.0
C534 C 0.43948 0.03372 0.86175 0.0
H535 H 0.41282 0.02077 0.06994 0.0
H536 H 0.4557 0.04209 -0.00552 0.0
S537 S 0.38307 0.00549 0.70514 0.0
N538 N 0.36911 -0.00114 0.80412 0.0
N539 N 0.41535 0.02116 0.72275 0.0
C540 C 0.41592 0.02133 0.8127 0.0
C541 C 0.39092 0.00942 0.85678 0.0
C542 C 0.14636 0.49189 0.86016 0.0
C543 C 0.1185 0.47926 0.86209 0.0
C544 C 0.15983 0.48021 0.90039 0.0
C545 C 0.14571 0.45532 0.94141 0.0
H546 H 0.15779 0.51095 0.82819 0.0
H547 H 0.18126 0.49033 0.89748 0.0
S548 S 0.07286 0.41427 0.96551 0.0
N549 N 0.07748 0.44068 0.91038 0.0
N550 N 0.10275 0.41873 0.98352 0.0
C551 C 0.11799 0.44261 0.94388 0.0
C552 C 0.10437 0.45458 0.90478 0.0
C553 C 0.6706 0.73622 0.89646 0.0
C554 C 0.68544 0.72627 0.85507 0.0
C555 C 0.6833 0.76071 0.94075 0.0
C556 C 0.71113 0.77611 0.94296 0.0
H557 H 0.64917 0.7246 0.89747 0.0
H558 H 0.6713 0.76759 0.97348 0.0
S559 S 0.75855 0.75893 0.83981 0.0
N560 N 0.72905 0.73364 0.81654 0.0
N561 N 0.75296 0.77975 0.89714 0.0
C562 C 0.72602 0.76654 0.89914 0.0
C563 C 0.71314 0.74156 0.85584 0.0
C564 C 0.81512 0.07911 0.65407 0.0
C565 C 0.80129 0.05581 0.7041 0.0
C566 C 0.82756 0.10393 0.69543 0.0
C567 C 0.82724 0.10616 0.7881 0.0
H568 H 0.81492 0.07826 0.58238 0.0
H569 H 0.83676 0.12154 0.65448 0.0
S570 S 0.79597 0.05096 0.94893 0.0
N571 N 0.78937 0.03634 0.85113 0.0
N572 N 0.81361 0.08303 0.92891 0.0
C573 C 0.81501 0.08297 0.83908 0.0
C574 C 0.80177 0.05774 0.79696 0.0
C575 C 0.08346 0.81416 0.65542 0.0
C576 C 0.10729 0.82606 0.70322 0.0
C577 C 0.059 0.80168 0.69953 0.0
C578 C 0.0576 0.80139 0.79267 0.0
H579 H 0.08372 0.8131 0.58382 0.0
H580 H 0.04106 0.79151 0.6605 0.0
S581 S 0.11438 0.8324 0.94744 0.0
N582 N 0.1281 0.83844 0.8481 0.0
N583 N 0.08205 0.8158 0.93081 0.0
C584 C 0.08125 0.81476 0.84091 0.0
C585 C 0.10615 0.82688 0.79614 0.0
C586 C 0.37011 0.38884 0.7481 0.0
C587 C 0.34493 0.37247 0.71113 0.0
C588 C 0.38367 0.37815 0.79225 0.0
C589 C 0.37232 0.35071 0.80328 0.0
H590 H 0.37992 0.41013 0.74023 0.0
H591 H 0.40342 0.39149 0.8169 0.0
S592 S 0.30627 0.29924 0.72411 0.0
N593 N 0.30875 0.32741 0.69102 0.0
N594 N 0.3341 0.30729 0.77711 0.0
C595 C 0.34674 0.33407 0.77007 0.0
C596 C 0.33309 0.34496 0.72299 0.0
C597 C 0.07243 0.37761 0.27489 0.0
C598 C 0.05792 0.35029 0.29137 0.0
C599 C 0.09687 0.38898 0.23154 0.0
C600 C 0.10739 0.37335 0.20087 0.0
H601 H 0.06484 0.39035 0.29576 0.0
H602 H 0.1073 0.41015 0.22007 0.0
S603 S 0.0769 0.30071 0.22635 0.0
N604 N 0.05572 0.30779 0.2747 0.0
N605 N 0.1015 0.32914 0.18988 0.0
C606 C 0.09306 0.34596 0.21651 0.0
C607 C 0.06837 0.33442 0.26288 0.0
C608 C 0.81074 0.8105 0.34276 0.0
C609 C 0.82352 0.79954 0.29433 0.0
C610 C 0.79886 0.8232 0.2994 0.0
C611 C 0.80014 0.82605 0.20667 0.0
H612 H 0.80855 0.80789 0.4139 0.0
H613 H 0.78796 0.83019 0.33845 0.0
S614 S 0.83353 0.80294 0.05104 0.0
N615 N 0.83813 0.79362 0.1496 0.0
N616 N 0.81666 0.81837 0.06857 0.0
C617 C 0.8143 0.81663 0.15821 0.0
C618 C 0.82576 0.80311 0.20201 0.0
C619 C 0.34943 0.08226 0.15083 0.0
C620 C 0.33854 0.05869 0.19984 0.0
C621 C 0.36195 0.10687 0.1936 0.0
C622 C 0.36327 0.10866 0.28663 0.0
H623 H 0.34975 0.08172 0.07914 0.0
H624 H 0.37145 0.12465 0.15353 0.0
S625 S 0.33499 0.05261 0.44466 0.0
N626 N 0.32808 0.03849 0.34601 0.0
N627 N 0.35081 0.08484 0.42628 0.0
C628 C 0.3508 0.08524 0.33631 0.0
C629 C 0.33865 0.06019 0.29284 0.0
loop_
_geom_bond_atom_site_label_1
_geom_bond_atom_site_label_2
_geom_bond_distance
_geom_bond_site_symmetry_2
_ccdc_geom_bond_type
In0 O1 2.294 . S
In0 O2 2.326 . S
In0 O6 2.266 . S
In0 O7 2.326 . S
In0 O8 2.266 . S
In0 O9 2.326 . S
In0 O11 2.294 . S
In0 O12 2.326 . S
O1 In0 2.294 . S
O1 C10 1.240 . S
O2 In0 2.326 . S
O2 C10 1.252 . S
C3 O6 1.252 . S
C3 O7 1.260 . S
C4 O11 1.240 . S
C4 O12 1.252 . S
C5 O8 1.252 . S
C5 O9 1.260 . S
O6 In0 2.266 . S
O6 C3 1.252 . S
O7 In0 2.326 . S
O7 C3 1.260 . S
O8 In0 2.266 . S
O8 C5 1.252 . S
O9 In0 2.326 . S
O9 C5 1.260 . S
C10 O1 1.240 . S
C10 O2 1.252 . S
O11 In0 2.294 . S
O11 C4 1.240 . S
O12 In0 2.326 . S
O12 C4 1.252 . S
In13 O14 2.294 . S
In13 O15 2.326 . S
In13 O19 2.266 . S
In13 O20 2.326 . S
In13 O21 2.266 . S
In13 O22 2.326 . S
In13 O24 2.294 . S
In13 O25 2.326 . S
O14 In13 2.294 . S
O14 C23 1.240 . S
O15 In13 2.326 . S
O15 C23 1.252 . S
C16 O19 1.252 . S
C16 O20 1.260 . S
C17 O24 1.240 . S
C17 O25 1.252 . S
C18 O21 1.252 . S
C18 O22 1.260 . S
O19 In13 2.266 . S
O19 C16 1.252 . S
O20 In13 2.326 . S
O20 C16 1.260 . S
O21 In13 2.266 . S
O21 C18 1.252 . S
O22 In13 2.326 . S
O22 C18 1.260 . S
C23 O14 1.240 . S
C23 O15 1.252 . S
O24 In13 2.294 . S
O24 C17 1.240 . S
O25 In13 2.326 . S
O25 C17 1.252 . S
In26 O27 2.294 . S
In26 O28 2.326 . S
In26 O32 2.266 . S
In26 O33 2.326 . S
In26 O34 2.266 . S
In26 O35 2.326 . S
In26 O37 2.294 . S
In26 O38 2.326 . S
O27 In26 2.294 . S
O27 C36 1.240 . S
O28 In26 2.326 . S
O28 C36 1.252 . S
C29 O32 1.252 . S
C29 O33 1.260 . S
C30 O37 1.240 . S
C30 O38 1.252 . S
C31 O34 1.252 . S
C31 O35 1.260 . S
O32 In26 2.266 . S
O32 C29 1.252 . S
O33 In26 2.326 . S
O33 C29 1.260 . S
O34 In26 2.266 . S
O34 C31 1.252 . S
O35 In26 2.326 . S
O35 C31 1.260 . S
C36 O27 1.240 . S
C36 O28 1.252 . S
O37 In26 2.294 . S
O37 C30 1.240 . S
O38 In26 2.326 . S
O38 C30 1.252 . S
In39 O40 2.294 . S
In39 O41 2.326 . S
In39 O45 2.266 . S
In39 O46 2.326 . S
In39 O47 2.266 . S
In39 O48 2.326 . S
In39 O50 2.294 . S
In39 O51 2.326 . S
O40 In39 2.294 . S
O40 C49 1.240 . S
O41 In39 2.326 . S
O41 C49 1.252 . S
C42 O45 1.252 . S
C42 O46 1.260 . S
C43 O50 1.240 . S
C43 O51 1.252 . S
C44 O47 1.252 . S
C44 O48 1.260 . S
O45 In39 2.266 . S
O45 C42 1.252 . S
O46 In39 2.326 . S
O46 C42 1.260 . S
O47 In39 2.266 . S
O47 C44 1.252 . S
O48 In39 2.326 . S
O48 C44 1.260 . S
C49 O40 1.240 . S
C49 O41 1.252 . S
O50 In39 2.294 . S
O50 C43 1.240 . S
O51 In39 2.326 . S
O51 C43 1.252 . S
In52 O53 2.294 . S
In52 O54 2.326 . S
In52 O58 2.266 . S
In52 O59 2.326 . S
In52 O60 2.266 . S
In52 O61 2.326 . S
In52 O63 2.294 . S
In52 O64 2.326 . S
O53 In52 2.294 . S
O53 C62 1.240 . S
O54 In52 2.326 . S
O54 C62 1.252 . S
C55 O58 1.252 . S
C55 O59 1.260 . S
C56 O63 1.240 . S
C56 O64 1.252 . S
C57 O60 1.252 . S
C57 O61 1.260 . S
O58 In52 2.266 . S
O58 C55 1.252 . S
O59 In52 2.326 . S
O59 C55 1.260 . S
O60 In52 2.266 . S
O60 C57 1.252 . S
O61 In52 2.326 . S
O61 C57 1.260 . S
C62 O53 1.240 . S
C62 O54 1.252 . S
O63 In52 2.294 . S
O63 C56 1.240 . S
O64 In52 2.326 . S
O64 C56 1.252 . S
In65 O66 2.294 . S
In65 O67 2.326 . S
In65 O71 2.266 . S
In65 O72 2.326 . S
In65 O73 2.266 . S
In65 O74 2.326 . S
In65 O76 2.294 . S
In65 O77 2.326 . S
O66 In65 2.294 . S
O66 C75 1.240 . S
O67 In65 2.326 . S
O67 C75 1.252 . S
C68 O71 1.252 . S
C68 O72 1.260 . S
C69 O76 1.240 . S
C69 O77 1.252 . S
C70 O73 1.252 . S
C70 O74 1.260 . S
O71 In65 2.266 . S
O71 C68 1.252 . S
O72 In65 2.326 . S
O72 C68 1.260 . S
O73 In65 2.266 . S
O73 C70 1.252 . S
O74 In65 2.326 . S
O74 C70 1.260 . S
C75 O66 1.240 . S
C75 O67 1.252 . S
O76 In65 2.294 . S
O76 C69 1.240 . S
O77 In65 2.326 . S
O77 C69 1.252 . S
In78 O79 2.294 . S
In78 O80 2.326 . S
In78 O84 2.266 . S
In78 O85 2.326 1_565 S
In78 O86 2.266 1_565 S
In78 O87 2.326 1_565 S
In78 O89 2.294 . S
In78 O90 2.326 . S
O79 In78 2.294 . S
O79 C88 1.240 . S
O80 In78 2.326 . S
O80 C88 1.252 . S
C81 O84 1.252 1_545 S
C81 O85 1.260 . S
C82 O89 1.240 . S
C82 O90 1.252 . S
C83 O86 1.252 . S
C83 O87 1.260 . S
O84 In78 2.266 . S
O84 C81 1.252 1_565 S
O85 In78 2.326 1_545 S
O85 C81 1.260 . S
O86 In78 2.266 1_545 S
O86 C83 1.252 . S
O87 In78 2.326 1_545 S
O87 C83 1.260 . S
C88 O79 1.240 . S
C88 O80 1.252 . S
O89 In78 2.294 . S
O89 C82 1.240 . S
O90 In78 2.326 . S
O90 C82 1.252 . S
In91 O92 2.294 . S
In91 O93 2.326 . S
In91 O97 2.266 . S
In91 O98 2.326 . S
In91 O99 2.266 . S
In91 O100 2.326 . S
In91 O102 2.294 . S
In91 O103 2.326 . S
O92 In91 2.294 . S
O92 C101 1.240 . S
O93 In91 2.326 . S
O93 C101 1.252 . S
C94 O97 1.252 . S
C94 O98 1.260 . S
C95 O102 1.240 . S
C95 O103 1.252 . S
C96 O99 1.252 . S
C96 O100 1.260 . S
O97 In91 2.266 . S
O97 C94 1.252 . S
O98 In91 2.326 . S
O98 C94 1.260 . S
O99 In91 2.266 . S
O99 C96 1.252 . S
O100 In91 2.326 . S
O100 C96 1.260 . S
C101 O92 1.240 . S
C101 O93 1.252 . S
O102 In91 2.294 . S
O102 C95 1.240 . S
O103 In91 2.326 . S
O103 C95 1.252 . S
In104 O105 2.294 . S
In104 O106 2.326 . S
In104 O110 2.266 . S
In104 O111 2.326 . S
In104 O112 2.266 . S
In104 O113 2.326 . S
In104 O115 2.294 . S
In104 O116 2.326 . S
O105 In104 2.294 . S
O105 C114 1.240 . S
O106 In104 2.326 . S
O106 C114 1.252 . S
C107 O110 1.252 . S
C107 O111 1.260 . S
C108 O115 1.240 . S
C108 O116 1.252 . S
C109 O112 1.252 . S
C109 O113 1.260 . S
O110 In104 2.266 . S
O110 C107 1.252 . S
O111 In104 2.326 . S
O111 C107 1.260 . S
O112 In104 2.266 . S
O112 C109 1.252 . S
O113 In104 2.326 . S
O113 C109 1.260 . S
C114 O105 1.240 . S
C114 O106 1.252 . S
O115 In104 2.294 . S
O115 C108 1.240 . S
O116 In104 2.326 . S
O116 C108 1.252 . S
In117 O118 2.294 1_554 S
In117 O119 2.326 1_554 S
In117 O123 2.266 . S
In117 O124 2.326 . S
In117 O125 2.266 . S
In117 O126 2.326 1_554 S
In117 O128 2.294 . S
In117 O129 2.326 . S
O118 In117 2.294 1_556 S
O118 C127 1.240 . S
O119 In117 2.326 1_556 S
O119 C127 1.252 . S
C120 O123 1.252 . S
C120 O124 1.260 . S
C121 O128 1.240 . S
C121 O129 1.252 . S
C122 O125 1.252 . S
C122 O126 1.260 1_554 S
O123 In117 2.266 . S
O123 C120 1.252 . S
O124 In117 2.326 . S
O124 C120 1.260 . S
O125 In117 2.266 . S
O125 C122 1.252 . S
O126 In117 2.326 1_556 S
O126 C122 1.260 1_556 S
C127 O118 1.240 . S
C127 O119 1.252 . S
O128 In117 2.294 . S
O128 C121 1.240 . S
O129 In117 2.326 . S
O129 C121 1.252 . S
In130 O131 2.294 . S
In130 O132 2.326 . S
In130 O136 2.266 . S
In130 O137 2.326 1_564 S
In130 O138 2.266 1_565 S
In130 O139 2.326 1_565 S
In130 O141 2.294 1_554 S
In130 O142 2.326 1_554 S
O131 In130 2.294 . S
O131 C140 1.240 . S
O132 In130 2.326 . S
O132 C140 1.252 . S
C133 O136 1.252 1_545 S
C133 O137 1.260 1_554 S
C134 O141 1.240 . S
C134 O142 1.252 . S
C135 O138 1.252 . S
C135 O139 1.260 . S
O136 In130 2.266 . S
O136 C133 1.252 1_565 S
O137 In130 2.326 1_546 S
O137 C133 1.260 1_556 S
O138 In130 2.266 1_545 S
O138 C135 1.252 . S
O139 In130 2.326 1_545 S
O139 C135 1.260 . S
C140 O131 1.240 . S
C140 O132 1.252 . S
O141 In130 2.294 1_556 S
O141 C134 1.240 . S
O142 In130 2.326 1_556 S
O142 C134 1.252 . S
In143 O144 2.294 1_554 S
In143 O145 2.326 1_554 S
In143 O149 2.266 . S
In143 O150 2.326 . S
In143 O151 2.266 . S
In143 O152 2.326 1_554 S
In143 O154 2.294 . S
In143 O155 2.326 . S
O144 In143 2.294 1_556 S
O144 C153 1.240 . S
O145 In143 2.326 1_556 S
O145 C153 1.252 . S
C146 O149 1.252 . S
C146 O150 1.260 . S
C147 O154 1.240 . S
C147 O155 1.252 . S
C148 O151 1.252 . S
C148 O152 1.260 1_554 S
O149 In143 2.266 . S
O149 C146 1.252 . S
O150 In143 2.326 . S
O150 C146 1.260 . S
O151 In143 2.266 . S
O151 C148 1.252 . S
O152 In143 2.326 1_556 S
O152 C148 1.260 1_556 S
C153 O144 1.240 . S
C153 O145 1.252 . S
O154 In143 2.294 . S
O154 C147 1.240 . S
O155 In143 2.326 . S
O155 C147 1.252 . S
In156 O157 2.294 1_556 S
In156 O158 2.326 1_556 S
In156 O162 2.266 . S
In156 O163 2.326 . S
In156 O164 2.266 . S
In156 O165 2.326 1_556 S
In156 O167 2.294 . S
In156 O168 2.326 . S
O157 In156 2.294 1_554 S
O157 C166 1.240 . S
O158 In156 2.326 1_554 S
O158 C166 1.252 . S
C159 O162 1.252 . S
C159 O163 1.260 . S
C160 O167 1.240 . S
C160 O168 1.252 . S
C161 O164 1.252 . S
C161 O165 1.260 1_556 S
O162 In156 2.266 . S
O162 C159 1.252 . S
O163 In156 2.326 . S
O163 C159 1.260 . S
O164 In156 2.266 . S
O164 C161 1.252 . S
O165 In156 2.326 1_554 S
O165 C161 1.260 1_554 S
C166 O157 1.240 . S
C166 O158 1.252 . S
O167 In156 2.294 . S
O167 C160 1.240 . S
O168 In156 2.326 . S
O168 C160 1.252 . S
In169 O170 2.294 1_556 S
In169 O171 2.326 1_556 S
In169 O175 2.266 . S
In169 O176 2.326 . S
In169 O177 2.266 . S
In169 O178 2.326 1_556 S
In169 O180 2.294 . S
In169 O181 2.326 . S
O170 In169 2.294 1_554 S
O170 C179 1.240 . S
O171 In169 2.326 1_554 S
O171 C179 1.252 . S
C172 O175 1.252 . S
C172 O176 1.260 . S
C173 O180 1.240 . S
C173 O181 1.252 . S
C174 O177 1.252 . S
C174 O178 1.260 1_556 S
O175 In169 2.266 . S
O175 C172 1.252 . S
O176 In169 2.326 . S
O176 C172 1.260 . S
O177 In169 2.266 . S
O177 C174 1.252 . S
O178 In169 2.326 1_554 S
O178 C174 1.260 1_554 S
C179 O170 1.240 . S
C179 O171 1.252 . S
O180 In169 2.294 . S
O180 C173 1.240 . S
O181 In169 2.326 . S
O181 C173 1.252 . S
In182 O183 2.294 1_556 S
In182 O184 2.326 1_556 S
In182 O188 2.266 1_655 S
In182 O189 2.326 1_655 S
In182 O190 2.266 . S
In182 O191 2.326 1_656 S
In182 O193 2.294 . S
In182 O194 2.326 . S
O183 In182 2.294 1_554 S
O183 C192 1.240 . S
O184 In182 2.326 1_554 S
O184 C192 1.252 . S
C185 O188 1.252 . S
C185 O189 1.260 . S
C186 O193 1.240 . S
C186 O194 1.252 . S
C187 O190 1.252 1_455 S
C187 O191 1.260 1_556 S
O188 In182 2.266 1_455 S
O188 C185 1.252 . S
O189 In182 2.326 1_455 S
O189 C185 1.260 . S
O190 In182 2.266 . S
O190 C187 1.252 1_655 S
O191 In182 2.326 1_454 S
O191 C187 1.260 1_554 S
C192 O183 1.240 . S
C192 O184 1.252 . S
O193 In182 2.294 . S
O193 C186 1.240 . S
O194 In182 2.326 . S
O194 C186 1.252 . S
In195 O196 2.294 . S
In195 O197 2.326 . S
In195 O201 2.266 . S
In195 O202 2.326 . S
In195 O203 2.266 . S
In195 O204 2.326 . S
In195 O206 2.294 . S
In195 O207 2.326 . S
O196 In195 2.294 . S
O196 C205 1.240 . S
O197 In195 2.326 . S
O197 C205 1.252 . S
C198 O201 1.252 . S
C198 O202 1.260 . S
C199 O206 1.240 . S
C199 O207 1.252 . S
C200 O203 1.252 . S
C200 O204 1.260 . S
O201 In195 2.266 . S
O201 C198 1.252 . S
O202 In195 2.326 . S
O202 C198 1.260 . S
O203 In195 2.266 . S
O203 C200 1.252 . S
O204 In195 2.326 . S
O204 C200 1.260 . S
C205 O196 1.240 . S
C205 O197 1.252 . S
O206 In195 2.294 . S
O206 C199 1.240 . S
O207 In195 2.326 . S
O207 C199 1.252 . S
In208 O209 2.294 . S
In208 O210 2.326 . S
In208 O214 2.266 1_655 S
In208 O215 2.326 1_655 S
In208 O216 2.266 . S
In208 O217 2.326 1_655 S
In208 O219 2.294 . S
In208 O220 2.326 . S
O209 In208 2.294 . S
O209 C218 1.240 . S
O210 In208 2.326 . S
O210 C218 1.252 . S
C211 O214 1.252 . S
C211 O215 1.260 . S
C212 O219 1.240 . S
C212 O220 1.252 . S
C213 O216 1.252 1_455 S
C213 O217 1.260 . S
O214 In208 2.266 1_455 S
O214 C211 1.252 . S
O215 In208 2.326 1_455 S
O215 C211 1.260 . S
O216 In208 2.266 . S
O216 C213 1.252 1_655 S
O217 In208 2.326 1_455 S
O217 C213 1.260 . S
C218 O209 1.240 . S
C218 O210 1.252 . S
O219 In208 2.294 . S
O219 C212 1.240 . S
O220 In208 2.326 . S
O220 C212 1.252 . S
In221 O222 2.294 . S
In221 O223 2.326 . S
In221 O227 2.266 . S
In221 O228 2.326 . S
In221 O229 2.266 . S
In221 O230 2.326 . S
In221 O232 2.294 . S
In221 O233 2.326 . S
O222 In221 2.294 . S
O222 C231 1.240 . S
O223 In221 2.326 . S
O223 C231 1.252 . S
C224 O227 1.252 . S
C224 O228 1.260 . S
C225 O232 1.240 . S
C225 O233 1.252 . S
C226 O229 1.252 . S
C226 O230 1.260 . S
O227 In221 2.266 . S
O227 C224 1.252 . S
O228 In221 2.326 . S
O228 C224 1.260 . S
O229 In221 2.266 . S
O229 C226 1.252 . S
O230 In221 2.326 . S
O230 C226 1.260 . S
C231 O222 1.240 . S
C231 O223 1.252 . S
O232 In221 2.294 . S
O232 C225 1.240 . S
O233 In221 2.326 . S
O233 C225 1.252 . S
C234 C235 1.369 . S
C234 C236 1.419 . S
C234 H238 0.930 . S
C235 C234 1.369 . S
C235 C244 1.429 1_556 S
C236 C234 1.419 . S
C236 C237 1.363 1_556 S
C236 H239 0.929 . S
C237 C236 1.363 1_554 S
C237 C243 1.428 . S
H238 C234 0.930 . S
H239 C236 0.929 . S
S240 N241 1.613 . S
S240 N242 1.610 . S
N241 S240 1.613 . S
N241 C244 1.350 . S
N242 S240 1.610 . S
N242 C243 1.351 . S
C243 C237 1.428 . S
C243 N242 1.351 . S
C243 C244 1.434 . S
C244 C235 1.429 1_554 S
C244 N241 1.350 . S
C244 C243 1.434 . S
C245 C246 1.369 . S
C245 C247 1.419 1_556 S
C245 H249 0.930 . S
C246 C245 1.369 . S
C246 C255 1.429 . S
C247 C245 1.419 1_554 S
C247 C248 1.363 . S
C247 H250 0.929 . S
C248 C247 1.363 . S
C248 C254 1.428 . S
H249 C245 0.930 . S
H250 C247 0.929 . S
S251 N252 1.613 . S
S251 N253 1.610 1_556 S
N252 S251 1.613 . S
N252 C255 1.350 . S
N253 S251 1.610 1_554 S
N253 C254 1.351 . S
C254 C248 1.428 . S
C254 N253 1.351 . S
C254 C255 1.434 1_554 S
C255 C246 1.429 . S
C255 N252 1.350 . S
C255 C254 1.434 1_556 S
C256 C257 1.369 . S
C256 C258 1.419 . S
C256 H260 0.930 . S
C257 C256 1.369 . S
C257 C266 1.429 1_554 S
C258 C256 1.419 . S
C258 C259 1.363 1_554 S
C258 H261 0.929 . S
C259 C258 1.363 1_556 S
C259 C265 1.428 . S
H260 C256 0.930 . S
H261 C258 0.929 . S
S262 N263 1.613 . S
S262 N264 1.610 . S
N263 S262 1.613 . S
N263 C266 1.350 . S
N264 S262 1.610 . S
N264 C265 1.351 . S
C265 C259 1.428 . S
C265 N264 1.351 . S
C265 C266 1.434 . S
C266 C257 1.429 1_556 S
C266 N263 1.350 . S
C266 C265 1.434 . S
C267 C268 1.369 . S
C267 C269 1.419 . S
C267 H271 0.930 . S
C268 C267 1.369 . S
C268 C277 1.429 . S
C269 C267 1.419 . S
C269 C270 1.363 . S
C269 H272 0.929 . S
C270 C269 1.363 . S
C270 C276 1.428 . S
H271 C267 0.930 . S
H272 C269 0.929 . S
S273 N274 1.613 . S
S273 N275 1.610 . S
N274 S273 1.613 . S
N274 C277 1.350 . S
N275 S273 1.610 . S
N275 C276 1.351 . S
C276 C270 1.428 . S
C276 N275 1.351 . S
C276 C277 1.434 . S
C277 C268 1.429 . S
C277 N274 1.350 . S
C277 C276 1.434 . S
C278 C279 1.369 . S
C278 C280 1.419 . S
C278 H282 0.930 . S
C279 C278 1.369 . S
C279 C288 1.429 . S
C280 C278 1.419 . S
C280 C281 1.363 . S
C280 H283 0.929 . S
C281 C280 1.363 . S
C281 C287 1.428 . S
H282 C278 0.930 . S
H283 C280 0.929 . S
S284 N285 1.613 . S
S284 N286 1.610 . S
N285 S284 1.613 . S
N285 C288 1.350 . S
N286 S284 1.610 . S
N286 C287 1.351 . S
C287 C281 1.428 . S
C287 N286 1.351 . S
C287 C288 1.434 . S
C288 C279 1.429 . S
C288 N285 1.350 . S
C288 C287 1.434 . S
C289 C290 1.369 . S
C289 C291 1.419 . S
C289 H293 0.930 . S
C290 C289 1.369 . S
C290 C299 1.429 . S
C291 C289 1.419 . S
C291 C292 1.363 . S
C291 H294 0.929 . S
C292 C291 1.363 . S
C292 C298 1.428 . S
H293 C289 0.930 . S
H294 C291 0.929 . S
S295 N296 1.613 . S
S295 N297 1.610 . S
N296 S295 1.613 . S
N296 C299 1.350 . S
N297 S295 1.610 . S
N297 C298 1.351 . S
C298 C292 1.428 . S
C298 N297 1.351 . S
C298 C299 1.434 . S
C299 C290 1.429 . S
C299 N296 1.350 . S
C299 C298 1.434 . S
C300 C301 1.369 . S
C300 C302 1.419 . S
C300 H304 0.930 . S
C301 C300 1.369 . S
C301 C310 1.429 . S
C302 C300 1.419 . S
C302 C303 1.363 . S
C302 H305 0.929 . S
C303 C302 1.363 . S
C303 C309 1.428 . S
H304 C300 0.930 . S
H305 C302 0.929 . S
S306 N307 1.613 . S
S306 N308 1.610 . S
N307 S306 1.613 . S
N307 C310 1.350 . S
N308 S306 1.610 . S
N308 C309 1.351 . S
C309 C303 1.428 . S
C309 N308 1.351 . S
C309 C310 1.434 . S
C310 C301 1.429 . S
C310 N307 1.350 . S
C310 C309 1.434 . S
C311 C312 1.369 . S
C311 C313 1.419 . S
C311 H315 0.930 . S
C312 C311 1.369 . S
C312 C321 1.429 . S
C313 C311 1.419 . S
C313 C314 1.363 . S
C313 H316 0.929 . S
C314 C313 1.363 . S
C314 C320 1.428 . S
H315 C311 0.930 . S
H316 C313 0.929 . S
S317 N318 1.613 . S
S317 N319 1.610 . S
N318 S317 1.613 . S
N318 C321 1.350 . S
N319 S317 1.610 . S
N319 C320 1.351 . S
C320 C314 1.428 . S
C320 N319 1.351 . S
C320 C321 1.434 . S
C321 C312 1.429 . S
C321 N318 1.350 . S
C321 C320 1.434 . S
C322 C323 1.369 . S
C322 C324 1.419 . S
C322 H326 0.930 . S
C323 C322 1.369 . S
C323 C332 1.429 . S
C324 C322 1.419 . S
C324 C325 1.363 . S
C324 H327 0.929 . S
C325 C324 1.363 . S
C325 C331 1.428 . S
H326 C322 0.930 . S
H327 C324 0.929 . S
S328 N329 1.613 . S
S328 N330 1.610 . S
N329 S328 1.613 . S
N329 C332 1.350 . S
N330 S328 1.610 . S
N330 C331 1.351 . S
C331 C325 1.428 . S
C331 N330 1.351 . S
C331 C332 1.434 . S
C332 C323 1.429 . S
C332 N329 1.350 . S
C332 C331 1.434 . S
C333 C334 1.369 . S
C333 C335 1.419 . S
C333 H337 0.930 . S
C334 C333 1.369 . S
C334 C343 1.429 . S
C335 C333 1.419 . S
C335 C336 1.363 . S
C335 H338 0.929 . S
C336 C335 1.363 . S
C336 C342 1.428 . S
H337 C333 0.930 . S
H338 C335 0.929 . S
S339 N340 1.613 . S
S339 N341 1.610 . S
N340 S339 1.613 . S
N340 C343 1.350 . S
N341 S339 1.610 . S
N341 C342 1.351 . S
C342 C336 1.428 . S
C342 N341 1.351 . S
C342 C343 1.434 . S
C343 C334 1.429 . S
C343 N340 1.350 . S
C343 C342 1.434 . S
C344 C345 1.369 . S
C344 C346 1.419 . S
C344 H348 0.930 . S
C345 C344 1.369 . S
C345 C354 1.429 . S
C346 C344 1.419 . S
C346 C347 1.363 . S
C346 H349 0.929 . S
C347 C346 1.363 . S
C347 C353 1.428 . S
H348 C344 0.930 . S
H349 C346 0.929 . S
S350 N351 1.613 . S
S350 N352 1.610 1_554 S
N351 S350 1.613 . S
N351 C354 1.350 1_554 S
N352 S350 1.610 1_556 S
N352 C353 1.351 . S
C353 C347 1.428 . S
C353 N352 1.351 . S
C353 C354 1.434 . S
C354 C345 1.429 . S
C354 N351 1.350 1_556 S
C354 C353 1.434 . S
C355 C356 1.369 . S
C355 C357 1.419 . S
C355 H359 0.930 . S
C356 C355 1.369 . S
C356 C365 1.429 . S
C357 C355 1.419 . S
C357 C358 1.363 . S
C357 H360 0.929 . S
C358 C357 1.363 . S
C358 C364 1.428 . S
H359 C355 0.930 . S
H360 C357 0.929 . S
S361 N362 1.613 . S
S361 N363 1.610 . S
N362 S361 1.613 . S
N362 C365 1.350 . S
N363 S361 1.610 . S
N363 C364 1.351 . S
C364 C358 1.428 . S
C364 N363 1.351 . S
C364 C365 1.434 . S
C365 C356 1.429 . S
C365 N362 1.350 . S
C365 C364 1.434 . S
C366 C367 1.369 . S
C366 C368 1.419 . S
C366 H370 0.930 . S
C367 C366 1.369 . S
C367 C376 1.429 . S
C368 C366 1.419 . S
C368 C369 1.363 . S
C368 H371 0.929 . S
C369 C368 1.363 . S
C369 C375 1.428 . S
H370 C366 0.930 . S
H371 C368 0.929 . S
S372 N373 1.613 . S
S372 N374 1.610 . S
N373 S372 1.613 . S
N373 C376 1.350 . S
N374 S372 1.610 . S
N374 C375 1.351 . S
C375 C369 1.428 . S
C375 N374 1.351 . S
C375 C376 1.434 . S
C376 C367 1.429 . S
C376 N373 1.350 . S
C376 C375 1.434 . S
C377 C378 1.369 . S
C377 C379 1.419 . S
C377 H381 0.930 . S
C378 C377 1.369 . S
C378 C387 1.429 . S
C379 C377 1.419 . S
C379 C380 1.363 . S
C379 H382 0.929 . S
C380 C379 1.363 . S
C380 C386 1.428 . S
H381 C377 0.930 . S
H382 C379 0.929 . S
S383 N384 1.613 . S
S383 N385 1.610 . S
N384 S383 1.613 . S
N384 C387 1.350 . S
N385 S383 1.610 . S
N385 C386 1.351 . S
C386 C380 1.428 . S
C386 N385 1.351 . S
C386 C387 1.434 . S
C387 C378 1.429 . S
C387 N384 1.350 . S
C387 C386 1.434 . S
C388 C389 1.369 . S
C388 C390 1.419 . S
C388 H392 0.930 . S
C389 C388 1.369 . S
C389 C398 1.429 . S
C390 C388 1.419 . S
C390 C391 1.363 . S
C390 H393 0.929 . S
C391 C390 1.363 . S
C391 C397 1.428 . S
H392 C388 0.930 . S
H393 C390 0.929 . S
S394 N395 1.613 . S
S394 N396 1.610 . S
N395 S394 1.613 . S
N395 C398 1.350 . S
N396 S394 1.610 . S
N396 C397 1.351 . S
C397 C391 1.428 . S
C397 N396 1.351 . S
C397 C398 1.434 . S
C398 C389 1.429 . S
C398 N395 1.350 . S
C398 C397 1.434 . S
C399 C400 1.369 . S
C399 C401 1.419 . S
C399 H403 0.930 . S
C400 C399 1.369 . S
C400 C409 1.429 . S
C401 C399 1.419 . S
C401 C402 1.363 . S
C401 H404 0.929 . S
C402 C401 1.363 . S
C402 C408 1.428 . S
H403 C399 0.930 . S
H404 C401 0.929 . S
S405 N406 1.613 . S
S405 N407 1.610 . S
N406 S405 1.613 . S
N406 C409 1.350 . S
N407 S405 1.610 . S
N407 C408 1.351 . S
C408 C402 1.428 . S
C408 N407 1.351 . S
C408 C409 1.434 . S
C409 C400 1.429 . S
C409 N406 1.350 . S
C409 C408 1.434 . S
C410 C411 1.369 . S
C410 C412 1.419 . S
C410 H414 0.930 . S
C411 C410 1.369 . S
C411 C420 1.429 . S
C412 C410 1.419 . S
C412 C413 1.363 . S
C412 H415 0.929 . S
C413 C412 1.363 . S
C413 C419 1.428 . S
H414 C410 0.930 . S
H415 C412 0.929 . S
S416 N417 1.613 1_556 S
S416 N418 1.610 . S
N417 S416 1.613 1_554 S
N417 C420 1.350 . S
N418 S416 1.610 . S
N418 C419 1.351 1_556 S
C419 C413 1.428 . S
C419 N418 1.351 1_554 S
C419 C420 1.434 . S
C420 C411 1.429 . S
C420 N417 1.350 . S
C420 C419 1.434 . S
C421 C422 1.369 . S
C421 C423 1.419 . S
C421 H425 0.930 . S
C422 C421 1.369 . S
C422 C431 1.429 . S
C423 C421 1.419 . S
C423 C424 1.363 . S
C423 H426 0.929 . S
C424 C423 1.363 . S
C424 C430 1.428 . S
H425 C421 0.930 . S
H426 C423 0.929 . S
S427 N428 1.613 . S
S427 N429 1.610 1_554 S
N428 S427 1.613 . S
N428 C431 1.350 . S
N429 S427 1.610 1_556 S
N429 C430 1.351 1_556 S
C430 C424 1.428 . S
C430 N429 1.351 1_554 S
C430 C431 1.434 . S
C431 C422 1.429 . S
C431 N428 1.350 . S
C431 C430 1.434 . S
C432 C433 1.369 . S
C432 C434 1.419 . S
C432 H436 0.930 . S
C433 C432 1.369 . S
C433 C442 1.429 . S
C434 C432 1.419 . S
C434 C435 1.363 . S
C434 H437 0.929 . S
C435 C434 1.363 . S
C435 C441 1.428 . S
H436 C432 0.930 . S
H437 C434 0.929 . S
S438 N439 1.613 . S
S438 N440 1.610 . S
N439 S438 1.613 . S
N439 C442 1.350 . S
N440 S438 1.610 . S
N440 C441 1.351 . S
C441 C435 1.428 . S
C441 N440 1.351 . S
C441 C442 1.434 . S
C442 C433 1.429 . S
C442 N439 1.350 . S
C442 C441 1.434 . S
C443 C444 1.369 . S
C443 C445 1.419 . S
C443 H447 0.930 . S
C444 C443 1.369 . S
C444 C453 1.429 . S
C445 C443 1.419 . S
C445 C446 1.363 . S
C445 H448 0.929 . S
C446 C445 1.363 . S
C446 C452 1.428 . S
H447 C443 0.930 . S
H448 C445 0.929 . S
S449 N450 1.613 . S
S449 N451 1.610 . S
N450 S449 1.613 . S
N450 C453 1.350 . S
N451 S449 1.610 . S
N451 C452 1.351 . S
C452 C446 1.428 . S
C452 N451 1.351 . S
C452 C453 1.434 . S
C453 C444 1.429 . S
C453 N450 1.350 . S
C453 C452 1.434 . S
C454 C455 1.369 . S
C454 C456 1.419 . S
C454 H458 0.930 . S
C455 C454 1.369 . S
C455 C464 1.429 . S
C456 C454 1.419 . S
C456 C457 1.363 . S
C456 H459 0.929 . S
C457 C456 1.363 . S
C457 C463 1.428 . S
H458 C454 0.930 . S
H459 C456 0.929 . S
S460 N461 1.613 . S
S460 N462 1.610 1_565 S
N461 S460 1.613 . S
N461 C464 1.350 1_565 S
N462 S460 1.610 1_545 S
N462 C463 1.351 . S
C463 C457 1.428 . S
C463 N462 1.351 . S
C463 C464 1.434 . S
C464 C455 1.429 . S
C464 N461 1.350 1_545 S
C464 C463 1.434 . S
C465 C466 1.369 . S
C465 C467 1.419 . S
C465 H469 0.930 . S
C466 C465 1.369 . S
C466 C475 1.429 . S
C467 C465 1.419 . S
C467 C468 1.363 . S
C467 H470 0.929 . S
C468 C467 1.363 . S
C468 C474 1.428 . S
H469 C465 0.930 . S
H470 C467 0.929 . S
S471 N472 1.608 1_556 S
S471 N473 1.612 . S
N472 S471 1.608 1_554 S
N472 C475 1.350 . S
N473 S471 1.612 . S
N473 C474 1.351 1_556 S
C474 C468 1.428 . S
C474 N473 1.351 1_554 S
C474 C475 1.434 . S
C475 C466 1.429 . S
C475 N472 1.350 . S
C475 C474 1.434 . S
C476 C477 1.369 . S
C476 C478 1.419 . S
C476 H480 0.930 1_554 S
C477 C476 1.369 . S
C477 C486 1.429 . S
C478 C476 1.419 . S
C478 C479 1.363 . S
C478 H481 0.929 . S
C479 C478 1.363 . S
C479 C485 1.428 . S
H480 C476 0.930 1_556 S
H481 C478 0.929 . S
S482 N483 1.613 . S
S482 N484 1.610 . S
N483 S482 1.613 . S
N483 C486 1.350 . S
N484 S482 1.610 . S
N484 C485 1.351 . S
C485 C479 1.428 . S
C485 N484 1.351 . S
C485 C486 1.434 . S
C486 C477 1.429 . S
C486 N483 1.350 . S
C486 C485 1.434 . S
C487 C488 1.369 . S
C487 C489 1.419 . S
C487 H491 0.930 . S
C488 C487 1.369 . S
C488 C497 1.429 1_554 S
C489 C487 1.419 . S
C489 C490 1.363 . S
C489 H492 0.929 . S
C490 C489 1.363 . S
C490 C496 1.428 . S
H491 C487 0.930 . S
H492 C489 0.929 . S
S493 N494 1.613 . S
S493 N495 1.610 . S
N494 S493 1.613 . S
N494 C497 1.350 . S
N495 S493 1.610 . S
N495 C496 1.351 1_556 S
C496 C490 1.428 . S
C496 N495 1.351 1_554 S
C496 C497 1.434 1_554 S
C497 C488 1.429 1_556 S
C497 N494 1.350 . S
C497 C496 1.434 1_556 S
C498 C499 1.369 . S
C498 C500 1.419 . S
C498 H502 0.932 1_455 S
C499 C498 1.369 . S
C499 C508 1.429 . S
C500 C498 1.419 . S
C500 C501 1.363 . S
C500 H503 0.929 . S
C501 C500 1.363 . S
C501 C507 1.428 . S
H502 C498 0.932 1_655 S
H503 C500 0.929 . S
S504 N505 1.613 . S
S504 N506 1.610 . S
N505 S504 1.613 . S
N505 C508 1.350 . S
N506 S504 1.610 . S
N506 C507 1.351 . S
C507 C501 1.428 . S
C507 N506 1.351 . S
C507 C508 1.434 . S
C508 C499 1.429 . S
C508 N505 1.350 . S
C508 C507 1.434 . S
C509 C510 1.369 . S
C509 C511 1.419 . S
C509 H513 0.930 . S
C510 C509 1.369 . S
C510 C519 1.429 . S
C511 C509 1.419 . S
C511 C512 1.363 . S
C511 H514 0.929 . S
C512 C511 1.363 . S
C512 C518 1.428 . S
H513 C509 0.930 . S
H514 C511 0.929 . S
S515 N516 1.613 . S
S515 N517 1.610 . S
N516 S515 1.613 . S
N516 C519 1.350 . S
N517 S515 1.610 . S
N517 C518 1.351 . S
C518 C512 1.428 . S
C518 N517 1.351 . S
C518 C519 1.434 . S
C519 C510 1.429 . S
C519 N516 1.350 . S
C519 C518 1.434 . S
C520 C521 1.369 . S
C520 C522 1.419 . S
C520 H524 0.930 . S
C521 C520 1.369 . S
C521 C530 1.429 . S
C522 C520 1.419 . S
C522 C523 1.363 . S
C522 H525 0.929 . S
C523 C522 1.363 . S
C523 C529 1.428 . S
H524 C520 0.930 . S
H525 C522 0.929 . S
S526 N527 1.613 . S
S526 N528 1.610 . S
N527 S526 1.613 . S
N527 C530 1.350 . S
N528 S526 1.610 . S
N528 C529 1.351 . S
C529 C523 1.428 . S
C529 N528 1.351 . S
C529 C530 1.434 . S
C530 C521 1.429 . S
C530 N527 1.350 . S
C530 C529 1.434 . S
C531 C532 1.369 . S
C531 C533 1.419 . S
C531 H535 0.930 1_556 S
C532 C531 1.369 . S
C532 C541 1.429 . S
C533 C531 1.419 . S
C533 C534 1.363 . S
C533 H536 0.929 . S
C534 C533 1.363 . S
C534 C540 1.428 . S
H535 C531 0.930 1_554 S
H536 C533 0.929 . S
S537 N538 1.613 . S
S537 N539 1.610 . S
N538 S537 1.613 . S
N538 C541 1.350 . S
N539 S537 1.610 . S
N539 C540 1.351 . S
C540 C534 1.428 . S
C540 N539 1.351 . S
C540 C541 1.434 . S
C541 C532 1.429 . S
C541 N538 1.350 . S
C541 C540 1.434 . S
C542 C543 1.369 . S
C542 C544 1.419 . S
C542 H546 0.930 . S
C543 C542 1.369 . S
C543 C552 1.429 . S
C544 C542 1.419 . S
C544 C545 1.363 . S
C544 H547 0.929 . S
C545 C544 1.363 . S
C545 C551 1.428 . S
H546 C542 0.930 . S
H547 C544 0.929 . S
S548 N549 1.613 . S
S548 N550 1.610 . S
N549 S548 1.613 . S
N549 C552 1.350 . S
N550 S548 1.610 . S
N550 C551 1.351 . S
C551 C545 1.428 . S
C551 N550 1.351 . S
C551 C552 1.434 . S
C552 C543 1.429 . S
C552 N549 1.350 . S
C552 C551 1.434 . S
C553 C554 1.369 . S
C553 C555 1.419 . S
C553 H557 0.930 . S
C554 C553 1.369 . S
C554 C563 1.429 . S
C555 C553 1.419 . S
C555 C556 1.363 . S
C555 H558 0.929 1_556 S
C556 C555 1.363 . S
C556 C562 1.428 . S
H557 C553 0.930 . S
H558 C555 0.929 1_554 S
S559 N560 1.613 . S
S559 N561 1.610 . S
N560 S559 1.613 . S
N560 C563 1.350 . S
N561 S559 1.610 . S
N561 C562 1.351 . S
C562 C556 1.428 . S
C562 N561 1.351 . S
C562 C563 1.434 . S
C563 C554 1.429 . S
C563 N560 1.350 . S
C563 C562 1.434 . S
C564 C565 1.369 . S
C564 C566 1.419 . S
C564 H568 0.930 . S
C565 C564 1.369 . S
C565 C574 1.429 . S
C566 C564 1.419 . S
C566 C567 1.363 . S
C566 H569 0.929 . S
C567 C566 1.363 . S
C567 C573 1.428 . S
H568 C564 0.930 . S
H569 C566 0.929 . S
S570 N571 1.613 . S
S570 N572 1.610 . S
N571 S570 1.613 . S
N571 C574 1.350 . S
N572 S570 1.610 . S
N572 C573 1.351 . S
C573 C567 1.428 . S
C573 N572 1.351 . S
C573 C574 1.434 . S
C574 C565 1.429 . S
C574 N571 1.350 . S
C574 C573 1.434 . S
C575 C576 1.369 . S
C575 C577 1.419 . S
C575 H579 0.930 . S
C576 C575 1.369 . S
C576 C585 1.429 . S
C577 C575 1.419 . S
C577 C578 1.363 . S
C577 H580 0.929 . S
C578 C577 1.363 . S
C578 C584 1.428 . S
H579 C575 0.930 . S
H580 C577 0.929 . S
S581 N582 1.613 . S
S581 N583 1.610 . S
N582 S581 1.613 . S
N582 C585 1.350 . S
N583 S581 1.610 . S
N583 C584 1.351 . S
C584 C578 1.428 . S
C584 N583 1.351 . S
C584 C585 1.434 . S
C585 C576 1.429 . S
C585 N582 1.350 . S
C585 C584 1.434 . S
C586 C587 1.369 . S
C586 C588 1.419 . S
C586 H590 0.930 . S
C587 C586 1.369 . S
C587 C596 1.429 . S
C588 C586 1.419 . S
C588 C589 1.363 . S
C588 H591 0.929 . S
C589 C588 1.363 . S
C589 C595 1.428 . S
H590 C586 0.930 . S
H591 C588 0.929 . S
S592 N593 1.613 . S
S592 N594 1.610 . S
N593 S592 1.613 . S
N593 C596 1.350 . S
N594 S592 1.610 . S
N594 C595 1.351 . S
C595 C589 1.428 . S
C595 N594 1.351 . S
C595 C596 1.434 . S
C596 C587 1.429 . S
C596 N593 1.350 . S
C596 C595 1.434 . S
C597 C598 1.369 . S
C597 C599 1.419 . S
C597 H601 0.930 . S
C598 C597 1.369 . S
C598 C607 1.429 . S
C599 C597 1.419 . S
C599 C600 1.363 . S
C599 H602 0.929 . S
C600 C599 1.363 . S
C600 C606 1.428 . S
H601 C597 0.930 . S
H602 C599 0.929 . S
S603 N604 1.613 . S
S603 N605 1.610 . S
N604 S603 1.613 . S
N604 C607 1.350 . S
N605 S603 1.610 . S
N605 C606 1.351 . S
C606 C600 1.428 . S
C606 N605 1.351 . S
C606 C607 1.434 . S
C607 C598 1.429 . S
C607 N604 1.350 . S
C607 C606 1.434 . S
C608 C609 1.369 . S
C608 C610 1.419 . S
C608 H612 0.930 . S
C609 C608 1.369 . S
C609 C618 1.429 . S
C610 C608 1.419 . S
C610 C611 1.363 . S
C610 H613 0.929 . S
C611 C610 1.363 . S
C611 C617 1.428 . S
H612 C608 0.930 . S
H613 C610 0.929 . S
S614 N615 1.613 . S
S614 N616 1.610 . S
N615 S614 1.613 . S
N615 C618 1.350 . S
N616 S614 1.610 . S
N616 C617 1.351 . S
C617 C611 1.428 . S
C617 N616 1.351 . S
C617 C618 1.434 . S
C618 C609 1.429 . S
C618 N615 1.350 . S
C618 C617 1.434 . S
C619 C620 1.369 . S
C619 C621 1.419 . S
C619 H623 0.930 . S
C620 C619 1.369 . S
C620 C629 1.429 . S
C621 C619 1.419 . S
C621 C622 1.363 . S
C621 H624 0.929 . S
C622 C621 1.363 . S
C622 C628 1.428 . S
H623 C619 0.930 . S
H624 C621 0.929 . S
S625 N626 1.613 . S
S625 N627 1.610 . S
N626 S625 1.613 . S
N626 C629 1.350 . S
N627 S625 1.610 . S
N627 C628 1.351 . S
C628 C622 1.428 . S
C628 N627 1.351 . S
C628 C629 1.434 . S
C629 C620 1.429 . S
C629 N626 1.350 . S
C629 C628 1.434 . S
C235 C43 1.419 . S
C237 C10 1.418 . S
C246 C62 1.416 . S
C248 C23 1.420 . S
C257 C36 1.417 . S
C259 C75 1.419 . S
C268 C30 1.421 . S
C270 C69 1.416 . S
C279 C4 1.417 . S
C281 C49 1.419 . S
C290 C56 1.417 . S
C292 C17 1.419 . S
C301 C121 1.416 . S
C303 C82 1.420 . S
C312 C101 1.420 . S
C314 C140 1.417 . S
C323 C114 1.419 . S
C325 C147 1.417 . S
C334 C153 1.421 . S
C336 C108 1.416 . S
C345 C127 1.416 . S
C347 C88 1.420 . S
C356 C134 1.415 . S
C358 C95 1.420 . S
C367 C160 1.421 . S
C369 C205 1.416 . S
C378 C173 1.416 . S
C380 C218 1.420 . S
C389 C186 1.419 . S
C391 C225 1.418 . S
C400 C231 1.420 . S
C402 C192 1.417 . S
C411 C199 1.421 . S
C413 C166 1.416 . S
C422 C212 1.420 . S
C424 C179 1.418 . S
C433 C3 1.395 . S
C435 C96 1.393 . S
C444 C16 1.392 . S
C446 C109 1.391 . S
C455 C81 1.395 . S
C457 C29 1.393 . S
C466 C31 1.391 . S
C468 C174 1.392 1_554 S
C477 C187 1.391 1_554 S
C479 C5 1.393 . S
C488 C161 1.395 1_554 S
C490 C18 1.392 . S
C499 C213 1.391 . S
C501 C44 1.393 . S
C510 C55 1.393 . S
C512 C224 1.394 . S
C521 C200 1.391 . S
C523 C68 1.394 . S
C532 C133 1.391 1_556 S
C534 C70 1.393 . S
C543 C42 1.390 . S
C545 C148 1.392 1_556 S
C554 C57 1.391 . S
C556 C122 1.391 1_556 S
C565 C83 1.392 . S
C567 C172 1.394 . S
C576 C94 1.391 . S
C578 C185 1.394 . S
C587 C107 1.395 . S
C589 C159 1.394 . S
C598 C211 1.394 . S
C600 C146 1.394 . S
C609 C226 1.392 . S
C611 C120 1.394 . S
C620 C135 1.391 . S
C622 C198 1.394 . S
