# Generated by pormake.
# Topology wgp, (5)-cn, num edge types: 1
# Building blocks:
#     Node 0, Type 0, BuildingBlock: XOMCOT_clean_sbu_1, # of connection points: 5
#     Node 1, Type 0, BuildingBlock: XOMCOT_clean_sbu_1, # of connection points: 5
#     Node 2, Type 0, BuildingBlock: XOMCOT_clean_sbu_1, # of connection points: 5
#     Node 3, Type 0, BuildingBlock: XOMCOT_clean_sbu_1, # of connection points: 5
#     Node 4, Type 0, BuildingBlock: XOMCOT_clean_sbu_1, # of connection points: 5
#     Node 5, Type 0, BuildingBlock: XOMCOT_clean_sbu_1, # of connection points: 5
#     Node 6, Type 0, BuildingBlock: XOMCOT_clean_sbu_1, # of connection points: 5
#     Node 7, Type 0, BuildingBlock: XOMCOT_clean_sbu_1, # of connection points: 5
#     Node 8, Type 0, BuildingBlock: XOMCOT_clean_sbu_1, # of connection points: 5
#     Node 9, Type 0, BuildingBlock: XOMCOT_clean_sbu_1, # of connection points: 5
#     Node 10, Type 0, BuildingBlock: XOMCOT_clean_sbu_1, # of connection points: 5
#     Node 11, Type 0, BuildingBlock: XOMCOT_clean_sbu_1, # of connection points: 5
#     Node 12, Type 0, BuildingBlock: XOMCOT_clean_sbu_1, # of connection points: 5
#     Node 13, Type 0, BuildingBlock: XOMCOT_clean_sbu_1, # of connection points: 5
#     Node 14, Type 0, BuildingBlock: XOMCOT_clean_sbu_1, # of connection points: 5
#     Node 15, Type 0, BuildingBlock: XOMCOT_clean_sbu_1, # of connection points: 5
#     Node 16, Type 0, BuildingBlock: XOMCOT_clean_sbu_1, # of connection points: 5
#     Node 17, Type 0, BuildingBlock: XOMCOT_clean_sbu_1, # of connection points: 5
#     Node 18, Type 0, BuildingBlock: XOMCOT_clean_sbu_1, # of connection points: 5
#     Node 19, Type 0, BuildingBlock: XOMCOT_clean_sbu_1, # of connection points: 5
#     Node 20, Type 0, BuildingBlock: XOMCOT_clean_sbu_1, # of connection points: 5
#     Node 21, Type 0, BuildingBlock: XOMCOT_clean_sbu_1, # of connection points: 5
#     Node 22, Type 0, BuildingBlock: XOMCOT_clean_sbu_1, # of connection points: 5
#     Node 23, Type 0, BuildingBlock: XOMCOT_clean_sbu_1, # of connection points: 5
#     Node 24, Type 0, BuildingBlock: XOMCOT_clean_sbu_1, # of connection points: 5
#     Node 25, Type 0, BuildingBlock: XOMCOT_clean_sbu_1, # of connection points: 5
#     Node 26, Type 0, BuildingBlock: XOMCOT_clean_sbu_1, # of connection points: 5
#     Node 27, Type 0, BuildingBlock: XOMCOT_clean_sbu_1, # of connection points: 5
#     Node 28, Type 0, BuildingBlock: XOMCOT_clean_sbu_1, # of connection points: 5
#     Node 29, Type 0, BuildingBlock: XOMCOT_clean_sbu_1, # of connection points: 5
#     Node 30, Type 0, BuildingBlock: XOMCOT_clean_sbu_1, # of connection points: 5
#     Node 31, Type 0, BuildingBlock: XOMCOT_clean_sbu_1, # of connection points: 5
#     Edge 32, Type (0, 0), BuildingBlock: XUDNAN_clean_linker_2, # of connection points: 2
#     Edge 33, Type (0, 0), BuildingBlock: XUDNAN_clean_linker_2, # of connection points: 2
#     Edge 34, Type (0, 0), BuildingBlock: XUDNAN_clean_linker_2, # of connection points: 2
#     Edge 35, Type (0, 0), BuildingBlock: XUDNAN_clean_linker_2, # of connection points: 2
#     Edge 36, Type (0, 0), BuildingBlock: XUDNAN_clean_linker_2, # of connection points: 2
#     Edge 37, Type (0, 0), BuildingBlock: XUDNAN_clean_linker_2, # of connection points: 2
#     Edge 38, Type (0, 0), BuildingBlock: XUDNAN_clean_linker_2, # of connection points: 2
#     Edge 39, Type (0, 0), BuildingBlock: XUDNAN_clean_linker_2, # of connection points: 2
#     Edge 40, Type (0, 0), BuildingBlock: XUDNAN_clean_linker_2, # of connection points: 2
#     Edge 41, Type (0, 0), BuildingBlock: XUDNAN_clean_linker_2, # of connection points: 2
#     Edge 42, Type (0, 0), BuildingBlock: XUDNAN_clean_linker_2, # of connection points: 2
#     Edge 43, Type (0, 0), BuildingBlock: XUDNAN_clean_linker_2, # of connection points: 2
#     Edge 44, Type (0, 0), BuildingBlock: XUDNAN_clean_linker_2, # of connection points: 2
#     Edge 45, Type (0, 0), BuildingBlock: XUDNAN_clean_linker_2, # of connection points: 2
#     Edge 46, Type (0, 0), BuildingBlock: XUDNAN_clean_linker_2, # of connection points: 2
#     Edge 47, Type (0, 0), BuildingBlock: XUDNAN_clean_linker_2, # of connection points: 2
#     Edge 48, Type (0, 0), BuildingBlock: XUDNAN_clean_linker_2, # of connection points: 2
#     Edge 49, Type (0, 0), BuildingBlock: XUDNAN_clean_linker_2, # of connection points: 2
#     Edge 50, Type (0, 0), BuildingBlock: XUDNAN_clean_linker_2, # of connection points: 2
#     Edge 51, Type (0, 0), BuildingBlock: XUDNAN_clean_linker_2, # of connection points: 2
#     Edge 52, Type (0, 0), BuildingBlock: XUDNAN_clean_linker_2, # of connection points: 2
#     Edge 53, Type (0, 0), BuildingBlock: XUDNAN_clean_linker_2, # of connection points: 2
#     Edge 54, Type (0, 0), BuildingBlock: XUDNAN_clean_linker_2, # of connection points: 2
#     Edge 55, Type (0, 0), BuildingBlock: XUDNAN_clean_linker_2, # of connection points: 2
#     Edge 56, Type (0, 0), BuildingBlock: XUDNAN_clean_linker_2, # of connection points: 2
#     Edge 57, Type (0, 0), BuildingBlock: XUDNAN_clean_linker_2, # of connection points: 2
#     Edge 58, Type (0, 0), BuildingBlock: XUDNAN_clean_linker_2, # of connection points: 2
#     Edge 59, Type (0, 0), BuildingBlock: XUDNAN_clean_linker_2, # of connection points: 2
#     Edge 60, Type (0, 0), BuildingBlock: XUDNAN_clean_linker_2, # of connection points: 2
#     Edge 61, Type (0, 0), BuildingBlock: XUDNAN_clean_linker_2, # of connection points: 2
#     Edge 62, Type (0, 0), BuildingBlock: XUDNAN_clean_linker_2, # of connection points: 2
#     Edge 63, Type (0, 0), BuildingBlock: XUDNAN_clean_linker_2, # of connection points: 2
#     Edge 64, Type (0, 0), BuildingBlock: XUDNAN_clean_linker_2, # of connection points: 2
#     Edge 65, Type (0, 0), BuildingBlock: XUDNAN_clean_linker_2, # of connection points: 2
#     Edge 66, Type (0, 0), BuildingBlock: XUDNAN_clean_linker_2, # of connection points: 2
#     Edge 67, Type (0, 0), BuildingBlock: XUDNAN_clean_linker_2, # of connection points: 2
#     Edge 68, Type (0, 0), BuildingBlock: XUDNAN_clean_linker_2, # of connection points: 2
#     Edge 69, Type (0, 0), BuildingBlock: XUDNAN_clean_linker_2, # of connection points: 2
#     Edge 70, Type (0, 0), BuildingBlock: XUDNAN_clean_linker_2, # of connection points: 2
#     Edge 71, Type (0, 0), BuildingBlock: XUDNAN_clean_linker_2, # of connection points: 2
#     Edge 72, Type (0, 0), BuildingBlock: XUDNAN_clean_linker_2, # of connection points: 2
#     Edge 73, Type (0, 0), BuildingBlock: XUDNAN_clean_linker_2, # of connection points: 2
#     Edge 74, Type (0, 0), BuildingBlock: XUDNAN_clean_linker_2, # of connection points: 2
#     Edge 75, Type (0, 0), BuildingBlock: XUDNAN_clean_linker_2, # of connection points: 2
#     Edge 76, Type (0, 0), BuildingBlock: XUDNAN_clean_linker_2, # of connection points: 2
#     Edge 77, Type (0, 0), BuildingBlock: XUDNAN_clean_linker_2, # of connection points: 2
#     Edge 78, Type (0, 0), BuildingBlock: XUDNAN_clean_linker_2, # of connection points: 2
#     Edge 79, Type (0, 0), BuildingBlock: XUDNAN_clean_linker_2, # of connection points: 2
#     Edge 80, Type (0, 0), BuildingBlock: XUDNAN_clean_linker_2, # of connection points: 2
#     Edge 81, Type (0, 0), BuildingBlock: XUDNAN_clean_linker_2, # of connection points: 2
#     Edge 82, Type (0, 0), BuildingBlock: XUDNAN_clean_linker_2, # of connection points: 2
#     Edge 83, Type (0, 0), BuildingBlock: XUDNAN_clean_linker_2, # of connection points: 2
#     Edge 84, Type (0, 0), BuildingBlock: XUDNAN_clean_linker_2, # of connection points: 2
#     Edge 85, Type (0, 0), BuildingBlock: XUDNAN_clean_linker_2, # of connection points: 2
#     Edge 86, Type (0, 0), BuildingBlock: XUDNAN_clean_linker_2, # of connection points: 2
#     Edge 87, Type (0, 0), BuildingBlock: XUDNAN_clean_linker_2, # of connection points: 2
#     Edge 88, Type (0, 0), BuildingBlock: XUDNAN_clean_linker_2, # of connection points: 2
#     Edge 89, Type (0, 0), BuildingBlock: XUDNAN_clean_linker_2, # of connection points: 2
#     Edge 90, Type (0, 0), BuildingBlock: XUDNAN_clean_linker_2, # of connection points: 2
#     Edge 91, Type (0, 0), BuildingBlock: XUDNAN_clean_linker_2, # of connection points: 2
#     Edge 92, Type (0, 0), BuildingBlock: XUDNAN_clean_linker_2, # of connection points: 2
#     Edge 93, Type (0, 0), BuildingBlock: XUDNAN_clean_linker_2, # of connection points: 2
#     Edge 94, Type (0, 0), BuildingBlock: XUDNAN_clean_linker_2, # of connection points: 2
#     Edge 95, Type (0, 0), BuildingBlock: XUDNAN_clean_linker_2, # of connection points: 2
#     Edge 96, Type (0, 0), BuildingBlock: XUDNAN_clean_linker_2, # of connection points: 2
#     Edge 97, Type (0, 0), BuildingBlock: XUDNAN_clean_linker_2, # of connection points: 2
#     Edge 98, Type (0, 0), BuildingBlock: XUDNAN_clean_linker_2, # of connection points: 2
#     Edge 99, Type (0, 0), BuildingBlock: XUDNAN_clean_linker_2, # of connection points: 2
#     Edge 100, Type (0, 0), BuildingBlock: XUDNAN_clean_linker_2, # of connection points: 2
#     Edge 101, Type (0, 0), BuildingBlock: XUDNAN_clean_linker_2, # of connection points: 2
#     Edge 102, Type (0, 0), BuildingBlock: XUDNAN_clean_linker_2, # of connection points: 2
#     Edge 103, Type (0, 0), BuildingBlock: XUDNAN_clean_linker_2, # of connection points: 2
#     Edge 104, Type (0, 0), BuildingBlock: XUDNAN_clean_linker_2, # of connection points: 2
#     Edge 105, Type (0, 0), BuildingBlock: XUDNAN_clean_linker_2, # of connection points: 2
#     Edge 106, Type (0, 0), BuildingBlock: XUDNAN_clean_linker_2, # of connection points: 2
#     Edge 107, Type (0, 0), BuildingBlock: XUDNAN_clean_linker_2, # of connection points: 2
#     Edge 108, Type (0, 0), BuildingBlock: XUDNAN_clean_linker_2, # of connection points: 2
#     Edge 109, Type (0, 0), BuildingBlock: XUDNAN_clean_linker_2, # of connection points: 2
#     Edge 110, Type (0, 0), BuildingBlock: XUDNAN_clean_linker_2, # of connection points: 2
#     Edge 111, Type (0, 0), BuildingBlock: XUDNAN_clean_linker_2, # of connection points: 2
# Relax obj value: 0.162
# Max RMSD: 0.158
# Mean RMSD: 0.158
data_MOF--net-wgp--node1-XOMCOT_clean_sbu_1--edge1-XUDNAN_clean_linker_2
_symmetry_space_group_name_H-M    P1
_symmetry_Int_Tables_number       1
_symmetry_cell_setting            triclinic
loop_
_symmetry_equiv_pos_as_xyz
'x, y, z'
_cell_length_a     35.499713
_cell_length_b     35.507558
_cell_length_c     103.96156
_cell_angle_alpha  89.950147
_cell_angle_beta   90.011602
_cell_angle_gamma 90.084992
loop_
_atom_site_label
_atom_site_type_symbol
_atom_site_fract_x
_atom_site_fract_y
_atom_site_fract_z
_atom_type_partial_charge
C0 C 0.1978 0.25879 0.06116 0.0
C1 C 0.19404 0.2973 0.06157 0.0
N2 N 0.21359 0.31056 0.07173 0.0
N3 N 0.22003 0.2473 0.07093 0.0
C4 C 0.2285 0.2795 0.07734 0.0
H5 H 0.18547 0.2407 0.05396 0.0
Co6 Co 0.23783 0.19807 0.07442 0.0
C7 C 0.20295 0.16525 0.04971 0.0
O8 O 0.17431 0.14622 0.0544 0.0
N9 N 0.25574 0.14963 0.07824 0.0
C10 C 0.28558 0.10476 0.08914 0.0
C11 C 0.27976 0.14291 0.08801 0.0
C12 C 0.24725 0.115 0.07357 0.0
N13 N 0.26507 0.08712 0.08005 0.0
O14 O 0.19004 0.18406 0.08098 0.0
H15 H 0.29174 0.16449 0.09411 0.0
H16 H 0.22743 0.10999 0.0659 0.0
O17 O 0.22494 0.18324 0.05716 0.0
C18 C 0.18936 0.19086 0.09301 0.0
O19 O 0.21782 0.20939 0.09806 0.0
N20 N 0.28569 0.21174 0.06883 0.0
C21 C 0.35788 0.23598 0.06273 0.0
C22 C 0.33787 0.21284 0.05423 0.0
C23 C 0.30188 0.20063 0.05752 0.0
C24 C 0.3055 0.23261 0.07746 0.0
C25 C 0.34136 0.24572 0.07451 0.0
H26 H 0.28786 0.18155 0.05104 0.0
H27 H 0.29346 0.23883 0.08676 0.0
H28 H 0.24539 0.28016 0.08596 0.0
H29 H 0.179 0.31414 0.05459 0.0
H30 H 0.3035 0.09108 0.09615 0.0
H31 H 0.35025 0.20342 0.04528 0.0
H32 H 0.35597 0.26325 0.08143 0.0
C33 C 0.03341 0.99379 0.33794 0.0
C34 C 0.99526 0.98846 0.33694 0.0
N35 N 0.98454 0.99602 0.32478 0.0
N36 N 0.04761 0.00429 0.32645 0.0
C37 C 0.01703 0.00534 0.31857 0.0
H38 H 0.04949 0.99133 0.34671 0.0
Co39 Co 0.09868 0.01924 0.32463 0.0
C40 C 0.11402 0.02864 0.29698 0.0
O41 O 0.13664 0.05642 0.30013 0.0
N42 N 0.15132 0.03427 0.3235 0.0
C43 C 0.2055 0.0655 0.32622 0.0
C44 C 0.16699 0.06782 0.32673 0.0
C45 C 0.18177 0.01224 0.32082 0.0
N46 N 0.21492 0.03057 0.32256 0.0
O47 O 0.11416 0.96868 0.32838 0.0
H48 H 0.15217 0.09297 0.32944 0.0
H49 H 0.17978 0.98287 0.31812 0.0
O50 O 0.09663 0.01033 0.30583 0.0
C51 C 0.1221 0.97075 0.34035 0.0
O52 O 0.12135 0.0041 0.34582 0.0
N53 N 0.08201 0.06855 0.32293 0.0
C54 C 0.05081 0.13966 0.32667 0.0
C55 C 0.04697 0.12111 0.31478 0.0
C56 C 0.06273 0.08534 0.31311 0.0
C57 C 0.08397 0.08527 0.33466 0.0
C58 C 0.07038 0.12128 0.33656 0.0
H59 H 0.05757 0.07073 0.3042 0.0
H60 H 0.09728 0.07076 0.34258 0.0
H61 H 0.01837 0.01431 0.30864 0.0
H62 H 0.97689 0.98002 0.34473 0.0
H63 H 0.22521 0.08788 0.32845 0.0
H64 H 0.03094 0.13335 0.30698 0.0
H65 H 0.07532 0.13422 0.34582 0.0
C66 C 0.30835 0.78137 0.56539 0.0
C67 C 0.31466 0.74313 0.56519 0.0
N68 N 0.28843 0.7262 0.57257 0.0
N69 N 0.27809 0.78884 0.5728 0.0
C70 C 0.26691 0.7546 0.57719 0.0
H71 H 0.32421 0.80236 0.56013 0.0
Co72 Co 0.25531 0.83676 0.57445 0.0
C73 C 0.27039 0.86784 0.5476 0.0
O74 O 0.28245 0.90129 0.55105 0.0
N75 N 0.23256 0.88574 0.57586 0.0
C76 C 0.19186 0.93368 0.57682 0.0
C77 C 0.19561 0.89515 0.57623 0.0
C78 C 0.25047 0.91965 0.57619 0.0
N79 N 0.22643 0.94913 0.57671 0.0
O80 O 0.30298 0.85835 0.57852 0.0
H81 H 0.17227 0.87572 0.57573 0.0
H82 H 0.28071 0.923 0.57584 0.0
O83 O 0.26107 0.84368 0.55609 0.0
C84 C 0.3066 0.85301 0.59061 0.0
O85 O 0.28151 0.83171 0.59643 0.0
N86 N 0.20869 0.81423 0.57203 0.0
C87 C 0.14528 0.76848 0.5727 0.0
C88 C 0.16269 0.77716 0.56095 0.0
C89 C 0.19448 0.8002 0.56082 0.0
C90 C 0.1914 0.80714 0.58347 0.0
C91 C 0.15941 0.78462 0.58402 0.0
H92 H 0.20824 0.80509 0.55177 0.0
H93 H 0.20342 0.81815 0.59226 0.0
H94 H 0.24249 0.75031 0.58322 0.0
H95 H 0.33671 0.72892 0.5599 0.0
H96 H 0.16562 0.94918 0.57681 0.0
H97 H 0.15283 0.76506 0.552 0.0
H98 H 0.14633 0.7794 0.59326 0.0
C99 C 0.49745 0.05921 0.81847 0.0
C100 C 0.53593 0.06327 0.81949 0.0
N101 N 0.55046 0.03117 0.82433 0.0
N102 N 0.48738 0.0247 0.82265 0.0
C103 C 0.52029 0.00846 0.8263 0.0
H104 H 0.47817 0.07964 0.81445 0.0
Co105 Co 0.43846 0.00358 0.8215 0.0
C106 C 0.40894 0.03253 0.79644 0.0
O107 O 0.37521 0.0396 0.80102 0.0
N108 N 0.38911 0.98234 0.82009 0.0
C109 C 0.34026 0.95024 0.81221 0.0
C110 C 0.37864 0.95503 0.81176 0.0
C111 C 0.35612 0.99358 0.82549 0.0
N112 N 0.32587 0.97469 0.82079 0.0
O113 O 0.41756 0.04857 0.8285 0.0
H114 H 0.39733 0.94079 0.80516 0.0
H115 H 0.35401 0.01617 0.8324 0.0
O116 O 0.43493 0.021 0.80392 0.0
C117 C 0.42212 0.04584 0.84065 0.0
O118 O 0.44062 0.01653 0.8451 0.0
N119 N 0.45985 0.95889 0.81604 0.0
C120 C 0.50558 0.8965 0.81361 0.0
C121 C 0.50341 0.92268 0.80359 0.0
C122 C 0.48048 0.95421 0.80506 0.0
C123 C 0.45971 0.93226 0.82544 0.0
C124 C 0.48257 0.90071 0.82444 0.0
H125 H 0.48176 0.9759 0.79784 0.0
H126 H 0.44375 0.93699 0.83416 0.0
H127 H 0.5222 0.98008 0.83002 0.0
H128 H 0.55203 0.08745 0.81632 0.0
H129 H 0.32407 0.93169 0.80607 0.0
H130 H 0.52114 0.92012 0.79516 0.0
H131 H 0.48358 0.88066 0.83229 0.0
C132 C 0.20431 0.75518 0.43692 0.0
C133 C 0.20345 0.71641 0.43704 0.0
N134 N 0.23678 0.70362 0.43269 0.0
N135 N 0.23799 0.76694 0.43243 0.0
C136 C 0.25721 0.7348 0.42993 0.0
H137 H 0.18154 0.77367 0.43968 0.0
Co138 Co 0.25179 0.81738 0.42917 0.0
C139 C 0.24508 0.85297 0.4547 0.0
O140 O 0.27713 0.87017 0.45227 0.0
N141 N 0.26421 0.86862 0.42511 0.0
C142 C 0.28471 0.91893 0.41418 0.0
C143 C 0.28473 0.88017 0.41489 0.0
C144 C 0.24941 0.90124 0.42972 0.0
N145 N 0.26274 0.93231 0.42367 0.0
O146 O 0.20588 0.82513 0.42015 0.0
H147 H 0.29765 0.86168 0.40793 0.0
H148 H 0.228 0.90237 0.43708 0.0
O149 O 0.22992 0.83207 0.44603 0.0
C150 C 0.20737 0.80975 0.40907 0.0
O151 O 0.23632 0.78817 0.40634 0.0
N152 N 0.29874 0.80817 0.43715 0.0
C153 C 0.36817 0.78459 0.44671 0.0
C154 C 0.33539 0.77925 0.45392 0.0
C155 C 0.3009 0.79066 0.44887 0.0
C156 C 0.3305 0.81304 0.42999 0.0
C157 C 0.36555 0.80229 0.43469 0.0
H158 H 0.27569 0.78346 0.45413 0.0
H159 H 0.32885 0.82309 0.42028 0.0
H160 H 0.28532 0.73428 0.4259 0.0
H161 H 0.18015 0.69892 0.44015 0.0
H162 H 0.29974 0.9358 0.40719 0.0
H163 H 0.33603 0.76442 0.46303 0.0
H164 H 0.39022 0.80645 0.42872 0.0
C165 C 0.4895 0.97165 0.67909 0.0
C166 C 0.52782 0.9673 0.67787 0.0
N167 N 0.54377 1.00163 0.67676 0.0
N168 N 0.48082 0.00859 0.6788 0.0
C169 C 0.51454 0.02619 0.67718 0.0
H170 H 0.4693 0.94923 0.68058 0.0
Co171 Co 0.432 0.02799 0.68225 0.0
C172 C 0.40277 0.981 0.70392 0.0
O173 O 0.36835 0.9792 0.69932 0.0
N174 N 0.38255 0.04717 0.68606 0.0
C175 C 0.33601 0.07339 0.69736 0.0
C176 C 0.37366 0.06518 0.69713 0.0
C177 C 0.34888 0.04421 0.67982 0.0
N178 N 0.3202 0.06019 0.68652 0.0
O179 O 0.41081 0.99109 0.67095 0.0
H180 H 0.393 0.07084 0.70493 0.0
H181 H 0.34526 0.03028 0.67065 0.0
O182 O 0.42896 0.99586 0.69724 0.0
C183 C 0.41555 0.0045 0.65966 0.0
O184 O 0.43042 0.0383 0.6586 0.0
N185 N 0.45389 0.06569 0.69221 0.0
C186 C 0.48603 0.1261 0.7051 0.0
C187 C 0.49133 0.08933 0.70961 0.0
C188 C 0.47515 0.05934 0.70295 0.0
C189 C 0.44942 0.10113 0.68748 0.0
C190 C 0.46491 0.13186 0.69387 0.0
H191 H 0.48071 0.03109 0.70623 0.0
H192 H 0.43359 0.10542 0.67871 0.0
H193 H 0.51782 0.0565 0.67704 0.0
H194 H 0.54284 0.9408 0.67801 0.0
H195 H 0.32103 0.08686 0.70517 0.0
H196 H 0.50805 0.08378 0.71812 0.0
H197 H 0.46121 0.15978 0.68985 0.0
C198 C 0.21315 0.20449 0.92002 0.0
C199 C 0.21682 0.24272 0.92092 0.0
N200 N 0.23719 0.25084 0.93147 0.0
N201 N 0.23112 0.1877 0.9299 0.0
C202 C 0.2459 0.21686 0.93677 0.0
H203 H 0.19716 0.18978 0.91275 0.0
Co204 Co 0.22616 0.13477 0.93121 0.0
C205 C 0.23942 0.11337 0.95811 0.0
O206 O 0.21337 0.08765 0.95625 0.0
N207 N 0.22046 0.08049 0.93145 0.0
C208 C 0.19722 0.02267 0.92844 0.0
C209 C 0.19016 0.06043 0.9275 0.0
C210 C 0.24628 0.05331 0.93433 0.0
N211 N 0.23246 0.01779 0.93284 0.0
O212 O 0.27331 0.12869 0.92259 0.0
H213 H 0.1644 0.07152 0.92368 0.0
H214 H 0.27454 0.0596 0.93759 0.0
O215 O 0.24972 0.13427 0.94861 0.0
C216 C 0.26493 0.1278 0.91066 0.0
O217 O 0.22919 0.1275 0.90738 0.0
N218 N 0.17831 0.14299 0.93844 0.0
C219 C 0.10568 0.16506 0.94539 0.0
C220 C 0.13621 0.17171 0.95362 0.0
C221 C 0.17235 0.16127 0.94985 0.0
C222 C 0.14938 0.13917 0.92995 0.0
C223 C 0.11269 0.14827 0.93342 0.0
H224 H 0.19549 0.17057 0.95575 0.0
H225 H 0.15504 0.13062 0.92017 0.0
H226 H 0.26131 0.2134 0.94567 0.0
H227 H 0.20502 0.26314 0.91432 0.0
H228 H 0.178 1.00052 0.9256 0.0
H229 H 0.13271 0.18691 0.96256 0.0
H230 H 0.09035 0.14333 0.92654 0.0
C231 C 0.02828 0.95463 0.17012 0.0
C232 C 0.98969 0.95534 0.16926 0.0
N233 N 0.97696 0.98605 0.17547 0.0
N234 N 0.04041 0.98462 0.17691 0.0
C235 C 0.00839 0.00358 0.17998 0.0
H236 H 0.04651 0.93313 0.1662 0.0
Co237 Co 0.09216 0.99102 0.18101 0.0
C238 C 0.09175 0.04447 0.20311 0.0
O239 O 0.11874 0.06535 0.19819 0.0
N240 N 0.14437 0.99625 0.18498 0.0
C241 C 0.19862 0.99347 0.19571 0.0
C242 C 0.16014 0.99002 0.19661 0.0
C243 C 0.17422 1.00298 0.17712 0.0
N244 N 0.20783 1.00147 0.18342 0.0
O245 O 0.09342 0.03657 0.17125 0.0
H246 H 0.14464 0.98277 0.20522 0.0
H247 H 0.17131 0.00781 0.1669 0.0
O248 O 0.07856 0.01697 0.19667 0.0
C249 C 0.09264 0.02869 0.1593 0.0
O250 O 0.09227 0.99315 0.1558 0.0
N251 N 0.09094 0.94532 0.18975 0.0
C252 C 0.08256 0.87245 0.19894 0.0
C253 C 0.06273 0.90219 0.20459 0.0
C254 C 0.06699 0.93844 0.19975 0.0
C255 C 0.11167 0.91705 0.18447 0.0
C256 C 0.108 0.88024 0.18897 0.0
H257 H 0.04903 0.96027 0.2035 0.0
H258 H 0.12977 0.92288 0.17634 0.0
H259 H 0.00802 0.02905 0.18569 0.0
H260 H 0.97228 0.93481 0.16436 0.0
H261 H 0.21817 0.99028 0.20362 0.0
H262 H 0.04201 0.89714 0.21205 0.0
H263 H 0.12363 0.85787 0.18433 0.0
C264 C 0.78996 0.76841 0.93606 0.0
C265 C 0.79455 0.72992 0.93651 0.0
N266 N 0.76593 0.71339 0.93005 0.0
N267 N 0.75845 0.77655 0.92941 0.0
C268 C 0.7447 0.74256 0.92574 0.0
H269 H 0.80797 0.7891 0.94059 0.0
Co270 Co 0.73673 0.82437 0.92689 0.0
C271 C 0.73743 0.86184 0.95224 0.0
O272 O 0.705 0.87711 0.94912 0.0
N273 N 0.71562 0.87334 0.92379 0.0
C274 C 0.68042 0.92209 0.9176 0.0
C275 C 0.68258 0.88352 0.91835 0.0
C276 C 0.73349 0.9068 0.9258 0.0
N277 N 0.71236 0.93698 0.92239 0.0
O278 O 0.78168 0.84103 0.91878 0.0
H279 H 0.6612 0.86478 0.91479 0.0
H280 H 0.76131 0.90883 0.93 0.0
O281 O 0.75474 0.84107 0.94404 0.0
C282 C 0.77897 0.83937 0.90658 0.0
O283 O 0.74731 0.82718 0.90151 0.0
N284 N 0.69202 0.80536 0.93423 0.0
C285 C 0.63107 0.76202 0.94276 0.0
C286 C 0.66206 0.76869 0.95076 0.0
C287 C 0.69222 0.78989 0.94629 0.0
C288 C 0.66303 0.79751 0.92608 0.0
C289 C 0.63163 0.77722 0.93027 0.0
H290 H 0.71708 0.79051 0.95219 0.0
H291 H 0.66536 0.80447 0.916 0.0
H292 H 0.71909 0.73946 0.92021 0.0
H293 H 0.81677 0.71543 0.94161 0.0
H294 H 0.65717 0.93781 0.91356 0.0
H295 H 0.66437 0.75568 0.96015 0.0
H296 H 0.60882 0.77238 0.92357 0.0
C297 C 1.00027 0.98443 0.66918 0.0
C298 C 0.03857 0.98912 0.66825 0.0
N299 N 0.04903 0.01757 0.67605 0.0
N300 N 0.98598 0.00982 0.67747 0.0
C301 C 0.01642 0.0298 0.68151 0.0
H302 H 0.98377 0.96324 0.66426 0.0
Co303 Co 0.93425 0.00934 0.68204 0.0
C304 C 0.92775 0.05616 0.70559 0.0
O305 O 0.89844 0.07441 0.70105 0.0
N306 N 0.88212 0.00758 0.68649 0.0
C307 C 0.83002 0.99441 0.69758 0.0
C308 C 0.86865 0.99401 0.69775 0.0
C309 C 0.85065 0.01617 0.67963 0.0
N310 N 0.81849 0.00823 0.68618 0.0
O311 O 0.92697 0.05636 0.67344 0.0
H312 H 0.88591 0.98405 0.70562 0.0
H313 H 0.85127 0.02706 0.66991 0.0
O314 O 0.94552 0.03337 0.69833 0.0
C315 C 0.9276 0.05077 0.66134 0.0
O316 O 0.93165 0.01623 0.65706 0.0
N317 N 0.94147 0.9624 0.68956 0.0
C318 C 0.95466 0.89 0.69843 0.0
C319 C 0.97325 0.92066 0.70399 0.0
C320 C 0.96671 0.95666 0.69927 0.0
C321 C 0.92289 0.93294 0.68408 0.0
C322 C 0.929 0.8963 0.68841 0.0
H323 H 0.98338 0.97952 0.70302 0.0
H324 H 0.90388 0.93792 0.67612 0.0
H325 H 0.01482 0.05204 0.68859 0.0
H326 H 0.05721 0.97274 0.66222 0.0
H327 H 0.81176 0.98535 0.70533 0.0
H328 H 0.99428 0.91665 0.71142 0.0
H329 H 0.91457 0.87307 0.68378 0.0
C330 C 0.70692 0.22496 0.44451 0.0
C331 C 0.70358 0.26352 0.44512 0.0
N332 N 0.73187 0.27925 0.43829 0.0
N333 N 0.73722 0.21605 0.43735 0.0
C334 C 0.75175 0.24967 0.43364 0.0
H335 H 0.68814 0.20467 0.4489 0.0
Co336 Co 0.75384 0.16713 0.43328 0.0
C337 C 0.7577 0.12701 0.45802 0.0
O338 O 0.78788 0.10987 0.45368 0.0
N339 N 0.76954 0.11688 0.4289 0.0
C340 C 0.799 0.06456 0.42246 0.0
C341 C 0.80117 0.10315 0.42333 0.0
C342 C 0.74821 0.08554 0.4309 0.0
N343 N 0.76571 0.05337 0.42729 0.0
O344 O 0.70543 0.15502 0.42641 0.0
H345 H 0.82483 0.11929 0.41996 0.0
H346 H 0.72068 0.08629 0.43536 0.0
O347 O 0.73991 0.15011 0.45074 0.0
C348 C 0.69928 0.17192 0.41579 0.0
O349 O 0.72357 0.19732 0.41182 0.0
N350 N 0.80189 0.18107 0.43893 0.0
C351 C 0.87374 0.20865 0.44448 0.0
C352 C 0.8458 0.20726 0.45404 0.0
C353 C 0.80997 0.1937 0.45104 0.0
C354 C 0.82728 0.18595 0.42931 0.0
C355 C 0.8638 0.19773 0.43193 0.0
H356 H 0.7884 0.19517 0.45833 0.0
H357 H 0.81892 0.18098 0.41945 0.0
H358 H 0.77663 0.25224 0.4277 0.0
H359 H 0.68142 0.27862 0.45004 0.0
H360 H 0.82023 0.04622 0.41841 0.0
H361 H 0.85095 0.2176 0.46367 0.0
H362 H 0.88367 0.19831 0.42406 0.0
C363 C 0.53209 0.07084 0.16874 0.0
C364 C 0.49462 0.07255 0.16546 0.0
N365 N 0.47818 0.03965 0.16863 0.0
N366 N 0.53973 0.03726 0.17426 0.0
C367 C 0.50638 0.01831 0.17358 0.0
H368 H 0.55259 0.09294 0.1672 0.0
Co369 Co 0.5895 0.02304 0.17959 0.0
C370 C 0.54285 1.00116 0.20361 0.0
O371 O 0.51001 0.01308 0.19954 0.0
N372 N 0.63975 0.00891 0.18435 0.0
C373 C 0.69087 0.99648 0.19612 0.0
C374 C 0.65245 1.00122 0.19633 0.0
C375 C 0.67156 0.00898 0.17704 0.0
N376 N 0.70295 1.00152 0.18401 0.0
O377 O 0.58336 0.97607 0.17098 0.0
H378 H 0.63559 1.00172 0.20494 0.0
H379 H 0.672 0.01666 0.16696 0.0
O380 O 0.57179 1.00307 0.19628 0.0
C381 C 0.59005 0.98336 0.15917 0.0
O382 O 0.59852 0.01826 0.15605 0.0
N383 N 0.59713 0.07073 0.18703 0.0
C384 C 0.60655 0.14675 0.19326 0.0
C385 C 0.57592 0.12593 0.19813 0.0
C386 C 0.57207 0.08787 0.19506 0.0
C387 C 0.6275 0.0902 0.18253 0.0
C388 C 0.63365 0.12747 0.18599 0.0
H389 H 0.54704 0.07349 0.19819 0.0
H390 H 0.64628 0.07762 0.17563 0.0
H391 H 0.5028 0.98938 0.17665 0.0
H392 H 0.48038 0.09656 0.16128 0.0
H393 H 0.70893 0.9924 0.2044 0.0
H394 H 0.55344 0.13907 0.20351 0.0
H395 H 0.65852 0.14139 0.1823 0.0
C396 C 0.69984 0.22273 0.58874 0.0
C397 C 0.7031 0.26143 0.58924 0.0
N398 N 0.73264 0.27191 0.58195 0.0
N399 N 0.72682 0.2084 0.58101 0.0
C400 C 0.74714 0.2391 0.57739 0.0
H401 H 0.67823 0.20608 0.5934 0.0
Co402 Co 0.73162 0.15569 0.57715 0.0
C403 C 0.74798 0.18816 0.5498 0.0
O404 O 0.73655 0.22303 0.55119 0.0
N405 N 0.73649 0.10288 0.57348 0.0
C406 C 0.72946 0.04894 0.56278 0.0
C407 C 0.72691 0.08741 0.56207 0.0
C408 C 0.74466 0.07262 0.58103 0.0
N409 N 0.74056 0.03916 0.57473 0.0
O410 O 0.78223 0.15698 0.5831 0.0
H411 H 0.71636 0.10294 0.55389 0.0
H412 H 0.75223 0.07516 0.59107 0.0
O413 O 0.74673 0.16508 0.55926 0.0
C414 C 0.78015 0.15588 0.59534 0.0
O415 O 0.74655 0.15452 0.60065 0.0
N416 N 0.68068 0.15338 0.57247 0.0
C417 C 0.60299 0.14889 0.56854 0.0
C418 C 0.62456 0.1775 0.56274 0.0
C419 C 0.66333 0.17896 0.56471 0.0
C420 C 0.66018 0.12588 0.57839 0.0
C421 C 0.62175 0.1222 0.57616 0.0
H422 H 0.67873 0.20219 0.56071 0.0
H423 H 0.67354 0.10679 0.58507 0.0
H424 H 0.77185 0.23758 0.57133 0.0
H425 H 0.68391 0.2805 0.59402 0.0
H426 H 0.72162 0.02972 0.55517 0.0
H427 H 0.61173 0.19995 0.55724 0.0
H428 H 0.60693 0.09918 0.58074 0.0
C429 C 0.54156 0.98545 0.33713 0.0
C430 C 0.50293 0.98353 0.3384 0.0
N431 N 0.48726 0.99243 0.32701 0.0
N432 N 0.55046 0.99605 0.32504 0.0
C433 C 0.51658 0.99983 0.31908 0.0
H434 H 0.56183 0.97955 0.34462 0.0
Co435 Co 0.60011 0.0043 0.3189 0.0
C436 C 0.56699 0.05398 0.29576 0.0
O437 O 0.54803 0.08461 0.2986 0.0
N438 N 0.65023 0.01329 0.31284 0.0
C439 C 0.69833 0.0417 0.30295 0.0
C440 C 0.66033 0.04265 0.30528 0.0
C441 C 0.68352 0.99573 0.3154 0.0
N442 N 0.71303 0.01233 0.30933 0.0
O443 O 0.60392 0.04759 0.32959 0.0
H444 H 0.64164 0.06433 0.30182 0.0
H445 H 0.68626 0.97147 0.32162 0.0
O446 O 0.5803 0.03394 0.30487 0.0
C447 C 0.61935 0.0383 0.34019 0.0
O448 O 0.63166 0.0036 0.34149 0.0
N449 N 0.59671 0.95995 0.30947 0.0
C450 C 0.58101 0.88658 0.30189 0.0
C451 C 0.56462 0.91703 0.29544 0.0
C452 C 0.57233 0.95357 0.29954 0.0
C453 C 0.61438 0.93068 0.31538 0.0
C454 C 0.60718 0.89368 0.31168 0.0
H455 H 0.55594 0.97599 0.29545 0.0
H456 H 0.63169 0.93585 0.32374 0.0
H457 H 0.51316 0.00843 0.30918 0.0
H458 H 0.48755 0.97569 0.34699 0.0
H459 H 0.71423 0.06171 0.29725 0.0
H460 H 0.54339 0.91261 0.2881 0.0
H461 H 0.62006 0.87079 0.31698 0.0
C462 C 0.68115 0.7697 0.06725 0.0
C463 C 0.67866 0.73118 0.06803 0.0
N464 N 0.71112 0.71781 0.07297 0.0
N465 N 0.71498 0.78105 0.07169 0.0
C466 C 0.7325 0.74875 0.07528 0.0
H467 H 0.65992 0.78827 0.06333 0.0
Co468 Co 0.73209 0.83153 0.07091 0.0
C469 C 0.7023 0.85627 0.04528 0.0
O470 O 0.68888 0.88829 0.04963 0.0
N471 N 0.74879 0.88242 0.06958 0.0
C472 C 0.77532 0.93418 0.06144 0.0
C473 C 0.77286 0.89567 0.06056 0.0
C474 C 0.73701 0.9138 0.07583 0.0
N475 N 0.75254 0.94579 0.07099 0.0
O476 O 0.68398 0.84852 0.07705 0.0
H477 H 0.78646 0.87859 0.05332 0.0
H478 H 0.71667 0.91331 0.08355 0.0
O479 O 0.71744 0.83298 0.05303 0.0
C480 C 0.68199 0.83954 0.08894 0.0
O481 O 0.71043 0.82152 0.09418 0.0
N482 N 0.77965 0.81462 0.06624 0.0
C483 C 0.85269 0.79081 0.06141 0.0
C484 C 0.82324 0.78042 0.05317 0.0
C485 C 0.78676 0.79246 0.05581 0.0
C486 C 0.80766 0.82405 0.07457 0.0
C487 C 0.84457 0.81291 0.07224 0.0
H488 H 0.76412 0.78284 0.04977 0.0
H489 H 0.80126 0.8407 0.083 0.0
H490 H 0.76106 0.74784 0.0789 0.0
H491 H 0.65484 0.71434 0.06501 0.0
H492 H 0.79107 0.95235 0.05503 0.0
H493 H 0.82815 0.76238 0.04495 0.0
H494 H 0.86649 0.82174 0.07883 0.0
C495 C 0.99537 0.9579 0.81264 0.0
C496 C 0.03386 0.95319 0.81232 0.0
N497 N 0.05007 0.98028 0.81955 0.0
N498 N 0.98701 0.988 0.81997 0.0
C499 C 0.02086 1.00087 0.82412 0.0
H500 H 0.97479 0.94046 0.8078 0.0
Co501 Co 0.93873 0.00721 0.82363 0.0
C502 C 0.9001 0.00998 0.79808 0.0
O503 O 0.87989 0.03875 0.80198 0.0
N504 N 0.88957 0.02589 0.82773 0.0
C505 C 0.84157 0.0592 0.83558 0.0
C506 C 0.87999 0.05739 0.83425 0.0
C507 C 0.85594 0.00834 0.8257 0.0
N508 N 0.82619 0.02848 0.83012 0.0
O509 O 0.92365 0.95983 0.83045 0.0
H510 H 0.89915 0.07783 0.83819 0.0
H511 H 0.85338 0.98161 0.82078 0.0
O512 O 0.92242 0.99363 0.80603 0.0
C513 C 0.93706 0.95703 0.84179 0.0
O514 O 0.9601 0.98342 0.84589 0.0
N515 N 0.9555 0.05456 0.81805 0.0
C516 C 0.98135 0.12652 0.81261 0.0
C517 C 0.97602 0.10056 0.80269 0.0
C518 C 0.96445 0.06413 0.80568 0.0
C519 C 0.96465 0.07826 0.82786 0.0
C520 C 0.97698 0.11477 0.82537 0.0
H521 H 0.96386 0.04376 0.79806 0.0
H522 H 0.96203 0.06875 0.83771 0.0
H523 H 0.02387 0.02471 0.8305 0.0
H524 H 0.04863 0.9317 0.80695 0.0
H525 H 0.82625 0.08125 0.84049 0.0
H526 H 0.98129 0.10823 0.79276 0.0
H527 H 0.98215 0.13382 0.83331 0.0
C528 C 0.79129 0.71312 0.59337 0.0
C529 C 0.78849 0.75016 0.59703 0.0
N530 N 0.76151 0.76669 0.58992 0.0
N531 N 0.76656 0.70574 0.58382 0.0
C532 C 0.74789 0.73893 0.58222 0.0
H533 H 0.81085 0.69279 0.59728 0.0
Co534 Co 0.76483 0.65647 0.57633 0.0
C535 C 0.75132 0.70366 0.55116 0.0
O536 O 0.75738 0.73793 0.55538 0.0
N537 N 0.76378 0.60656 0.5691 0.0
C538 C 0.77975 0.56181 0.5552 0.0
C539 C 0.7808 0.59945 0.55777 0.0
C540 C 0.75259 0.57178 0.57328 0.0
N541 N 0.76176 0.54381 0.56485 0.0
O542 O 0.71306 0.65247 0.5809 0.0
H543 H 0.79516 0.62026 0.55196 0.0
H544 H 0.73884 0.56697 0.58242 0.0
O545 O 0.75344 0.67553 0.55886 0.0
C546 C 0.71453 0.64128 0.59255 0.0
O547 O 0.7476 0.63473 0.59776 0.0
N548 N 0.81652 0.65907 0.57314 0.0
C549 C 0.89483 0.66139 0.57182 0.0
C550 C 0.8729 0.69026 0.5664 0.0
C551 C 0.83378 0.68842 0.56708 0.0
C552 C 0.83725 0.63105 0.57862 0.0
C553 C 0.87632 0.63106 0.57774 0.0
H554 H 0.81769 0.71173 0.56345 0.0
H555 H 0.82335 0.60867 0.58386 0.0
H556 H 0.72439 0.74268 0.57573 0.0
H557 H 0.80583 0.76423 0.60412 0.0
H558 H 0.79306 0.54877 0.54699 0.0
H559 H 0.88559 0.71509 0.56218 0.0
H560 H 0.89175 0.60786 0.58196 0.0
C561 C 0.52544 0.55849 0.84055 0.0
C562 C 0.48728 0.55573 0.84277 0.0
N563 N 0.47469 0.52362 0.83739 0.0
N564 N 0.53703 0.52856 0.83361 0.0
C565 C 0.50563 0.50713 0.83227 0.0
H566 H 0.54347 0.5815 0.8435 0.0
Co567 Co 0.58713 0.52061 0.82787 0.0
C568 C 0.54324 0.50246 0.80259 0.0
O569 O 0.50968 0.5143 0.80596 0.0
N570 N 0.63749 0.51265 0.82224 0.0
C571 C 0.68719 0.51642 0.80928 0.0
C572 C 0.64886 0.51909 0.81004 0.0
C573 C 0.67004 0.50646 0.8288 0.0
N574 N 0.70086 0.50905 0.8211 0.0
O575 O 0.58597 0.47127 0.83521 0.0
H576 H 0.63084 0.52834 0.8023 0.0
H577 H 0.67129 0.50292 0.83913 0.0
O578 O 0.57054 0.50339 0.81066 0.0
C579 C 0.59346 0.4777 0.84704 0.0
O580 O 0.59946 0.5128 0.85053 0.0
N581 N 0.59024 0.57046 0.82213 0.0
C582 C 0.59904 0.64714 0.81707 0.0
C583 C 0.56847 0.62684 0.81192 0.0
C584 C 0.56481 0.58842 0.81447 0.0
C585 C 0.61959 0.58985 0.82739 0.0
C586 C 0.62542 0.62759 0.82455 0.0
H587 H 0.54031 0.57398 0.81095 0.0
H588 H 0.63857 0.57608 0.83401 0.0
H589 H 0.50525 0.4803 0.82734 0.0
H590 H 0.46984 0.57668 0.84741 0.0
H591 H 0.70378 0.52117 0.8007 0.0
H592 H 0.54639 0.64057 0.8065 0.0
H593 H 0.6499 0.64136 0.8286 0.0
C594 C 0.73073 0.27295 0.09471 0.0
C595 C 0.72723 0.2348 0.09629 0.0
N596 N 0.73708 0.21786 0.08524 0.0
N597 N 0.74302 0.28065 0.08271 0.0
C598 C 0.74674 0.24621 0.07712 0.0
H599 H 0.72216 0.2937 0.10169 0.0
Co600 Co 0.74309 0.33032 0.07611 0.0
C601 C 0.79042 0.33005 0.0528 0.0
O602 O 0.80858 0.36024 0.05669 0.0
N603 N 0.74142 0.38068 0.06961 0.0
C604 C 0.72809 0.4287 0.05656 0.0
C605 C 0.72887 0.39025 0.05778 0.0
C606 C 0.74765 0.41433 0.07546 0.0
N607 N 0.73965 0.44404 0.06773 0.0
O608 O 0.78991 0.34004 0.08468 0.0
H609 H 0.72009 0.37047 0.05046 0.0
H610 H 0.75648 0.41727 0.08534 0.0
O611 O 0.76769 0.31355 0.06045 0.0
C612 C 0.78142 0.3518 0.09591 0.0
O613 O 0.74568 0.35771 0.09852 0.0
N614 N 0.69639 0.32129 0.06897 0.0
C615 C 0.62241 0.31019 0.06162 0.0
C616 C 0.65161 0.29353 0.05463 0.0
C617 C 0.6887 0.2991 0.05856 0.0
C618 C 0.66833 0.33815 0.07572 0.0
C619 C 0.63097 0.33305 0.07219 0.0
H620 H 0.7108 0.28478 0.05342 0.0
H621 H 0.67517 0.35523 0.08401 0.0
H622 H 0.75354 0.24206 0.06707 0.0
H623 H 0.71635 0.22058 0.10473 0.0
H624 H 0.71935 0.44406 0.04808 0.0
H625 H 0.64574 0.27513 0.04656 0.0
H626 H 0.60893 0.34625 0.0778 0.0
C627 C 0.98561 0.56916 0.31552 0.0
C628 C 0.02407 0.57196 0.31464 0.0
N629 N 0.03977 0.54647 0.32266 0.0
N630 N 0.97665 0.54198 0.32402 0.0
C631 C 0.01016 0.52893 0.32833 0.0
H632 H 0.96536 0.58619 0.31036 0.0
Co633 Co 0.92739 0.52877 0.32881 0.0
C634 C 0.89843 0.50511 0.30317 0.0
O635 O 0.88302 0.47494 0.30829 0.0
N636 N 0.87742 0.51755 0.33399 0.0
C637 C 0.82999 0.51118 0.34783 0.0
C638 C 0.86815 0.51524 0.34655 0.0
C639 C 0.84359 0.51787 0.32789 0.0
N640 N 0.81425 0.51309 0.33607 0.0
O641 O 0.91503 0.58058 0.33144 0.0
H642 H 0.88796 0.51773 0.35441 0.0
H643 H 0.8401 0.52422 0.31781 0.0
O644 O 0.91385 0.52989 0.31043 0.0
C645 C 0.93036 0.59217 0.34182 0.0
O646 O 0.95636 0.57108 0.34721 0.0
N647 N 0.94042 0.47728 0.32768 0.0
C648 C 0.96552 0.40283 0.32945 0.0
C649 C 0.97393 0.42481 0.31856 0.0
C650 C 0.96091 0.46195 0.31783 0.0
C651 C 0.93327 0.45647 0.33839 0.0
C652 C 0.9437 0.41906 0.33919 0.0
H653 H 0.96885 0.47893 0.30963 0.0
H654 H 0.92084 0.46883 0.34675 0.0
H655 H 0.01251 0.5067 0.33539 0.0
H656 H 0.03902 0.59185 0.30864 0.0
H657 H 0.81513 0.50806 0.35685 0.0
H658 H 0.99142 0.41413 0.31087 0.0
H659 H 0.93531 0.40358 0.34769 0.0
C660 C 0.68421 0.26307 0.93973 0.0
C661 C 0.6807 0.22478 0.93821 0.0
N662 N 0.71285 0.21133 0.93307 0.0
N663 N 0.71843 0.2742 0.93559 0.0
C664 C 0.73522 0.24202 0.93151 0.0
H665 H 0.66335 0.28161 0.94389 0.0
Co666 Co 0.73675 0.32429 0.93667 0.0
C667 C 0.71035 0.3506 0.96275 0.0
O668 O 0.70516 0.38582 0.95931 0.0
N669 N 0.75492 0.37495 0.93804 0.0
C670 C 0.78483 0.42559 0.9456 0.0
C671 C 0.78032 0.38736 0.94677 0.0
C672 C 0.74437 0.40673 0.93168 0.0
N673 N 0.76214 0.43802 0.93613 0.0
O674 O 0.69018 0.34247 0.9296 0.0
H675 H 0.79365 0.36999 0.954 0.0
H676 H 0.72364 0.40709 0.92407 0.0
O677 O 0.71947 0.32605 0.95438 0.0
C678 C 0.69078 0.33398 0.91765 0.0
O679 O 0.72028 0.31609 0.91309 0.0
N680 N 0.78286 0.30582 0.9423 0.0
C681 C 0.85354 0.27678 0.94809 0.0
C682 C 0.8223 0.26811 0.95582 0.0
C683 C 0.78714 0.28306 0.95279 0.0
C684 C 0.81259 0.31399 0.93454 0.0
C685 C 0.84837 0.30061 0.93744 0.0
H686 H 0.76316 0.27497 0.95856 0.0
H687 H 0.80844 0.33129 0.92609 0.0
H688 H 0.76352 0.24112 0.92766 0.0
H689 H 0.65667 0.20803 0.94111 0.0
H690 H 0.80222 0.44312 0.95171 0.0
H691 H 0.82455 0.24895 0.96389 0.0
H692 H 0.8716 0.30876 0.93129 0.0
C693 C 0.9934 0.50471 0.16942 0.0
C694 C 0.03174 0.50076 0.16851 0.0
N695 N 0.04519 0.49099 0.18014 0.0
N696 N 0.98211 0.4969 0.18152 0.0
C697 C 0.01453 0.48882 0.18789 0.0
H698 H 0.9753 0.51462 0.1618 0.0
Co699 Co 0.93194 0.50369 0.18703 0.0
C700 C 0.92378 0.45753 0.2106 0.0
O701 O 0.89326 0.44134 0.20605 0.0
N702 N 0.88134 0.51165 0.19239 0.0
C703 C 0.83228 0.5285 0.20441 0.0
C704 C 0.87084 0.52587 0.20388 0.0
C705 C 0.84833 0.50635 0.18604 0.0
N706 N 0.81792 0.5163 0.19316 0.0
O707 O 0.91844 0.45673 0.17927 0.0
H708 H 0.89007 0.53372 0.2115 0.0
H709 H 0.84652 0.49602 0.1763 0.0
O710 O 0.94272 0.47969 0.20342 0.0
C711 C 0.9101 0.46184 0.16748 0.0
O712 O 0.90854 0.49633 0.16295 0.0
N713 N 0.94548 0.55039 0.19366 0.0
C714 C 0.96922 0.62236 0.20023 0.0
C715 C 0.98117 0.59117 0.20736 0.0
C716 C 0.96923 0.55535 0.20386 0.0
C717 C 0.93285 0.58042 0.18677 0.0
C718 C 0.94433 0.61685 0.18991 0.0
H719 H 0.98059 0.5318 0.20904 0.0
H720 H 0.91456 0.57587 0.17859 0.0
H721 H 0.01585 0.48252 0.19806 0.0
H722 H 0.04867 0.50676 0.16009 0.0
H723 H 0.8162 0.53826 0.21259 0.0
H724 H 1.00111 0.59418 0.21518 0.0
H725 H 0.93448 0.64035 0.18418 0.0
C726 C 0.71072 0.72528 0.41935 0.0
C727 C 0.70589 0.76327 0.41766 0.0
N728 N 0.72505 0.78138 0.42694 0.0
N729 N 0.7329 0.71892 0.42966 0.0
C730 C 0.74125 0.75396 0.43413 0.0
H731 H 0.69721 0.70346 0.41376 0.0
Co732 Co 0.73928 0.66882 0.43536 0.0
C733 C 0.7907 0.70115 0.45756 0.0
O734 O 0.81308 0.72664 0.45251 0.0
N735 N 0.74425 0.61809 0.44088 0.0
C736 C 0.73897 0.56852 0.45387 0.0
C737 C 0.73732 0.60696 0.45307 0.0
C738 C 0.7496 0.58535 0.43437 0.0
N739 N 0.74637 0.55463 0.44209 0.0
O740 O 0.78439 0.66526 0.42545 0.0
H741 H 0.72947 0.62559 0.46082 0.0
H742 H 0.75393 0.58387 0.4241 0.0
O743 O 0.76674 0.68378 0.45062 0.0
C744 C 0.77665 0.6557 0.41392 0.0
O745 O 0.74165 0.6468 0.41113 0.0
N746 N 0.69405 0.67247 0.44415 0.0
C747 C 0.62118 0.68159 0.45323 0.0
C748 C 0.65074 0.70334 0.45825 0.0
C749 C 0.68714 0.69836 0.45355 0.0
C750 C 0.66607 0.65003 0.43955 0.0
C751 C 0.62948 0.65364 0.44413 0.0
H752 H 0.70917 0.71684 0.45694 0.0
H753 H 0.67203 0.63011 0.43195 0.0
H754 H 0.75647 0.75944 0.44291 0.0
H755 H 0.68856 0.77663 0.41041 0.0
H756 H 0.73426 0.55211 0.4625 0.0
H757 H 0.64549 0.72571 0.46509 0.0
H758 H 0.60755 0.63596 0.44011 0.0
C759 C 0.53119 0.46316 0.67378 0.0
C760 C 0.49271 0.46682 0.67276 0.0
N761 N 0.48116 0.49303 0.68124 0.0
N762 N 0.5444 0.48696 0.68283 0.0
C763 C 0.51312 0.50477 0.68722 0.0
H764 H 0.5485 0.44372 0.6684 0.0
Co765 Co 0.59601 0.48727 0.68755 0.0
C766 C 0.57532 0.5436 0.7099 0.0
O767 O 0.55804 0.57258 0.70474 0.0
N768 N 0.64804 0.48644 0.69225 0.0
C769 C 0.69803 0.47439 0.70455 0.0
C770 C 0.65959 0.47693 0.7042 0.0
C771 C 0.68068 0.48958 0.68544 0.0
N772 N 0.71146 0.48232 0.69278 0.0
O773 O 0.60388 0.53131 0.67731 0.0
H774 H 0.64102 0.4697 0.71205 0.0
H775 H 0.68185 0.49495 0.6752 0.0
O776 O 0.58654 0.51637 0.70292 0.0
C777 C 0.6099 0.5207 0.66577 0.0
O778 O 0.61129 0.48434 0.66345 0.0
N779 N 0.58813 0.44299 0.69668 0.0
C780 C 0.57921 0.37399 0.70882 0.0
C781 C 0.55904 0.40551 0.71306 0.0
C782 C 0.56381 0.43991 0.70681 0.0
C783 C 0.60739 0.4125 0.69228 0.0
C784 C 0.60373 0.37773 0.69834 0.0
H785 H 0.54741 0.46377 0.70996 0.0
H786 H 0.62568 0.41532 0.68401 0.0
H787 H 0.51339 0.52496 0.69495 0.0
H788 H 0.47473 0.45138 0.66621 0.0
H789 H 0.71489 0.46579 0.71272 0.0
H790 H 0.53935 0.40341 0.72099 0.0
H791 H 0.61887 0.35371 0.69455 0.0
C792 C 0.30489 0.25691 0.44268 0.0
C793 C 0.30552 0.21836 0.44394 0.0
N794 N 0.27835 0.20378 0.43642 0.0
N795 N 0.27684 0.26684 0.43461 0.0
C796 C 0.26144 0.23365 0.43078 0.0
H797 H 0.32324 0.27655 0.44758 0.0
Co798 Co 0.26305 0.31684 0.43049 0.0
C799 C 0.25429 0.35113 0.45623 0.0
O800 O 0.22381 0.36803 0.45198 0.0
N801 N 0.25139 0.36728 0.42562 0.0
C802 C 0.23793 0.41499 0.41237 0.0
C803 C 0.23852 0.37651 0.41379 0.0
C804 C 0.2617 0.40103 0.43072 0.0
N805 N 0.25253 0.4304 0.42305 0.0
O806 O 0.31277 0.327 0.42457 0.0
H807 H 0.23175 0.35639 0.40633 0.0
H808 H 0.27699 0.40422 0.43964 0.0
O809 O 0.27475 0.33205 0.44841 0.0
C810 C 0.31902 0.31264 0.41354 0.0
O811 O 0.29505 0.28771 0.40902 0.0
N812 N 0.21264 0.30609 0.43559 0.0
C813 C 0.13836 0.2889 0.44268 0.0
C814 C 0.16887 0.27706 0.45025 0.0
C815 C 0.20556 0.28623 0.44662 0.0
C816 C 0.18343 0.316 0.4278 0.0
C817 C 0.14632 0.30919 0.43139 0.0
H818 H 0.22841 0.27678 0.45267 0.0
H819 H 0.18819 0.32873 0.41861 0.0
H820 H 0.23729 0.23156 0.42446 0.0
H821 H 0.32403 0.20221 0.45011 0.0
H822 H 0.22932 0.43043 0.40388 0.0
H823 H 0.1649 0.26015 0.4588 0.0
H824 H 0.12433 0.3197 0.42517 0.0
C825 C 0.48765 0.55521 0.19253 0.0
C826 C 0.52603 0.56095 0.1927 0.0
N827 N 0.54283 0.53261 0.18623 0.0
N828 N 0.47993 0.52334 0.18602 0.0
C829 C 0.51405 0.51056 0.18214 0.0
H830 H 0.46671 0.57283 0.19708 0.0
Co831 Co 0.43214 0.50095 0.18395 0.0
C832 C 0.40169 0.49421 0.21047 0.0
O833 O 0.38459 0.46292 0.20708 0.0
N834 N 0.38336 0.47921 0.18152 0.0
C835 C 0.33459 0.44482 0.17475 0.0
C836 C 0.37317 0.44801 0.17491 0.0
C837 C 0.34993 0.49483 0.18502 0.0
N838 N 0.31991 0.4742 0.18116 0.0
O839 O 0.41247 0.54759 0.17779 0.0
H840 H 0.39192 0.42871 0.17018 0.0
H841 H 0.34769 0.52115 0.19021 0.0
O842 O 0.42022 0.51308 0.20204 0.0
C843 C 0.41614 0.5471 0.16558 0.0
O844 O 0.43271 0.51783 0.16031 0.0
N845 N 0.45348 0.45474 0.18869 0.0
C846 C 0.50184 0.39358 0.19111 0.0
C847 C 0.49337 0.41585 0.2018 0.0
C848 C 0.46984 0.44697 0.20032 0.0
C849 C 0.46163 0.43314 0.17824 0.0
C850 C 0.48515 0.40205 0.17927 0.0
H851 H 0.468 0.46631 0.20824 0.0
H852 H 0.45251 0.44204 0.1688 0.0
H853 H 0.5178 0.48479 0.17679 0.0
H854 H 0.54029 0.58419 0.19734 0.0
H855 H 0.31856 0.42238 0.17029 0.0
H856 H 0.50694 0.4109 0.21098 0.0
H857 H 0.49158 0.38582 0.17073 0.0
C858 C 0.32302 0.69604 0.9279 0.0
C859 C 0.32904 0.73418 0.92739 0.0
N860 N 0.30282 0.75146 0.93465 0.0
N861 N 0.29327 0.68865 0.93554 0.0
C862 C 0.28113 0.72313 0.93943 0.0
H863 H 0.33927 0.67483 0.92292 0.0
Co864 Co 0.27649 0.63876 0.9383 0.0
C865 C 0.25653 0.6333 0.96557 0.0
O866 O 0.26907 0.59859 0.96483 0.0
N867 N 0.25863 0.58772 0.9404 0.0
C868 C 0.21604 0.542 0.94316 0.0
C869 C 0.2218 0.58022 0.94256 0.0
C870 C 0.27457 0.55284 0.93968 0.0
N871 N 0.24924 0.5246 0.94134 0.0
O872 O 0.23137 0.65017 0.9291 0.0
H873 H 0.20023 0.60139 0.94377 0.0
H874 H 0.30392 0.54766 0.93778 0.0
O875 O 0.25461 0.65327 0.95526 0.0
C876 C 0.23841 0.64368 0.91728 0.0
O877 O 0.27254 0.63256 0.9142 0.0
N878 N 0.32309 0.62823 0.94607 0.0
C879 C 0.3992 0.62554 0.95274 0.0
C880 C 0.37376 0.6472 0.95989 0.0
C881 C 0.33618 0.64883 0.95624 0.0
C882 C 0.34743 0.60712 0.93898 0.0
C883 C 0.38536 0.60439 0.94237 0.0
H884 H 0.31882 0.66971 0.96086 0.0
H885 H 0.3381 0.59475 0.93003 0.0
H886 H 0.25715 0.72735 0.9457 0.0
H887 H 0.35075 0.7482 0.92185 0.0
H888 H 0.18939 0.52815 0.94498 0.0
H889 H 0.38325 0.66579 0.96749 0.0
H890 H 0.40409 0.58802 0.93636 0.0
C891 C 0.03205 0.54596 0.673 0.0
C892 C 0.99378 0.54156 0.67171 0.0
N893 N 0.98227 0.5143 0.67984 0.0
N894 N 0.04519 0.52154 0.68186 0.0
C895 C 0.01415 0.50245 0.68585 0.0
H896 H 0.04919 0.56657 0.66805 0.0
Co897 Co 0.09593 0.52242 0.68748 0.0
C898 C 0.09881 0.47173 0.71018 0.0
O899 O 0.12821 0.45372 0.70561 0.0
N900 N 0.14707 0.52459 0.69309 0.0
C901 C 0.19571 0.53812 0.70582 0.0
C902 C 0.15728 0.53559 0.70505 0.0
C903 C 0.18036 0.52059 0.68674 0.0
N904 N 0.21039 0.52879 0.69434 0.0
O905 O 0.10532 0.47682 0.67833 0.0
H906 H 0.13785 0.54265 0.71268 0.0
H907 H 0.1825 0.51371 0.67663 0.0
O908 O 0.08231 0.4962 0.7032 0.0
C909 C 0.10881 0.48599 0.66653 0.0
O910 O 0.10843 0.52183 0.6634 0.0
N911 N 0.08649 0.56826 0.69536 0.0
C912 C 0.06681 0.64028 0.70299 0.0
C913 C 0.04967 0.60893 0.70868 0.0
C914 C 0.05955 0.57303 0.70458 0.0
C915 C 0.10444 0.59839 0.69005 0.0
C916 C 0.09509 0.63484 0.69377 0.0
H917 H 0.04371 0.54944 0.70822 0.0
H918 H 0.12492 0.59405 0.68249 0.0
H919 H 0.01468 0.48138 0.69337 0.0
H920 H 0.97583 0.55749 0.6653 0.0
H921 H 0.21175 0.54719 0.71413 0.0
H922 H 0.02695 0.61218 0.71554 0.0
H923 H 0.10868 0.65856 0.68913 0.0
C924 C 0.2296 0.76192 0.09629 0.0
C925 C 0.23305 0.80043 0.09685 0.0
N926 N 0.24825 0.8126 0.08573 0.0
N927 N 0.24301 0.74938 0.08494 0.0
C928 C 0.25408 0.78107 0.07867 0.0
H929 H 0.21637 0.74445 0.10351 0.0
Co930 Co 0.23944 0.69884 0.07954 0.0
C931 C 0.28816 0.69443 0.05676 0.0
O932 O 0.30749 0.66725 0.06223 0.0
N933 N 0.23492 0.64794 0.07406 0.0
C934 C 0.21966 0.59922 0.06163 0.0
C935 C 0.22204 0.63767 0.06234 0.0
C936 C 0.24018 0.61479 0.08033 0.0
N937 N 0.2309 0.58469 0.07295 0.0
O938 O 0.28664 0.68805 0.08769 0.0
H939 H 0.21427 0.65706 0.05476 0.0
H940 H 0.24952 0.61265 0.0902 0.0
O941 O 0.26272 0.71124 0.06318 0.0
C942 C 0.27952 0.68079 0.09946 0.0
O943 O 0.24425 0.67959 0.10324 0.0
N944 N 0.1923 0.70899 0.07279 0.0
C945 C 0.11848 0.72085 0.06505 0.0
C946 C 0.1482 0.73995 0.05899 0.0
C947 C 0.18507 0.7337 0.06304 0.0
C948 C 0.16384 0.69056 0.07889 0.0
C949 C 0.1267 0.69564 0.07505 0.0
H950 H 0.20754 0.74931 0.05852 0.0
H951 H 0.17017 0.67163 0.08676 0.0
H952 H 0.26514 0.78124 0.06898 0.0
H953 H 0.22319 0.81827 0.10459 0.0
H954 H 0.2104 0.58316 0.05336 0.0
H955 H 0.14298 0.76036 0.05145 0.0
H956 H 0.10466 0.68008 0.07993 0.0
C957 C 0.02886 0.55849 0.81818 0.0
C958 C 0.99021 0.56094 0.81776 0.0
N959 N 0.97543 0.53227 0.82466 0.0
N960 N 0.03872 0.52833 0.82527 0.0
C961 C 0.00564 0.5131 0.82918 0.0
H962 H 0.04856 0.5778 0.81374 0.0
Co963 Co 0.08785 0.51275 0.8294 0.0
C964 C 0.12231 0.50544 0.80344 0.0
O965 O 0.1382 0.47391 0.80723 0.0
N966 N 0.13736 0.49844 0.83435 0.0
C967 C 0.18351 0.48451 0.84819 0.0
C968 C 0.14513 0.4863 0.84639 0.0
C969 C 0.17193 0.50571 0.82928 0.0
N970 N 0.20033 0.49641 0.83735 0.0
O971 O 0.09953 0.56182 0.83572 0.0
H972 H 0.12414 0.48102 0.85371 0.0
H973 H 0.17658 0.51997 0.82024 0.0
O974 O 0.10406 0.5255 0.81162 0.0
C975 C 0.0835 0.56888 0.84643 0.0
O976 O 0.05791 0.54527 0.85074 0.0
N977 N 0.07511 0.46352 0.82404 0.0
C978 C 0.05121 0.39139 0.81711 0.0
C979 C 0.0471 0.42173 0.80862 0.0
C980 C 0.05796 0.45759 0.81243 0.0
C981 C 0.07821 0.43463 0.8326 0.0
C982 C 0.06662 0.39833 0.82933 0.0
H983 H 0.05195 0.48078 0.80604 0.0
H984 H 0.08825 0.43967 0.84221 0.0
H985 H 0.00397 0.48815 0.83513 0.0
H986 H 0.97438 0.58276 0.81292 0.0
H987 H 0.19791 0.47572 0.85686 0.0
H988 H 0.03524 0.41813 0.79911 0.0
H989 H 0.06871 0.37627 0.83648 0.0
C990 C 0.23033 0.27682 0.59179 0.0
C991 C 0.226 0.23844 0.59214 0.0
N992 N 0.2357 0.22438 0.58062 0.0
N993 N 0.24232 0.28769 0.58001 0.0
C994 C 0.24531 0.25475 0.57341 0.0
H995 H 0.22667 0.29492 0.6 0.0
Co996 Co 0.25823 0.33713 0.57505 0.0
C997 C 0.22087 0.35079 0.55001 0.0
O998 O 0.20921 0.38407 0.55381 0.0
N999 N 0.27484 0.38667 0.5701 0.0
C1000 C 0.30218 0.43391 0.5594 0.0
C1001 C 0.29721 0.39553 0.56002 0.0
C1002 C 0.2666 0.42072 0.57538 0.0
N1003 N 0.2828 0.45001 0.56908 0.0
O1004 O 0.21217 0.35755 0.58173 0.0
H1005 H 0.30884 0.37561 0.55329 0.0
H1006 H 0.2483 0.42432 0.58353 0.0
O1007 O 0.23754 0.32917 0.55799 0.0
C1008 C 0.22022 0.36478 0.59346 0.0
O1009 O 0.25533 0.36016 0.5972 0.0
N1010 N 0.30406 0.3167 0.57009 0.0
C1011 C 0.3638 0.26702 0.56838 0.0
C1012 C 0.34334 0.27669 0.55734 0.0
C1013 C 0.31338 0.30184 0.55839 0.0
C1014 C 0.32602 0.31052 0.58058 0.0
C1015 C 0.35611 0.28566 0.57996 0.0
H1016 H 0.29664 0.30736 0.54998 0.0
H1017 H 0.31821 0.32263 0.58974 0.0
H1018 H 0.25535 0.25289 0.56361 0.0
H1019 H 0.2184 0.22195 0.60051 0.0
H1020 H 0.31891 0.44855 0.55229 0.0
H1021 H 0.34886 0.26323 0.54819 0.0
H1022 H 0.37211 0.27978 0.5886 0.0
C1023 C 0.48589 0.5408 0.3435 0.0
C1024 C 0.52416 0.53878 0.3451 0.0
N1025 N 0.53891 0.51893 0.33526 0.0
N1026 N 0.47607 0.52221 0.33273 0.0
C1027 C 0.50894 0.50904 0.3279 0.0
H1028 H 0.4666 0.55667 0.34942 0.0
Co1029 Co 0.42717 0.52449 0.32628 0.0
C1030 C 0.42499 0.47235 0.30414 0.0
O1031 O 0.39542 0.45495 0.30891 0.0
N1032 N 0.37761 0.52808 0.31995 0.0
C1033 C 0.3293 0.53907 0.30689 0.0
C1034 C 0.3678 0.53815 0.30788 0.0
C1035 C 0.34439 0.52361 0.32617 0.0
N1036 N 0.31443 0.53006 0.31842 0.0
O1037 O 0.41526 0.47867 0.33512 0.0
H1038 H 0.38748 0.54458 0.30025 0.0
H1039 H 0.34218 0.51671 0.33626 0.0
O1040 O 0.44163 0.49742 0.31083 0.0
C1041 C 0.40599 0.48361 0.34685 0.0
O1042 O 0.40333 0.51824 0.3512 0.0
N1043 N 0.43924 0.57013 0.3184 0.0
C1044 C 0.45946 0.64068 0.30913 0.0
C1045 C 0.47604 0.60818 0.30411 0.0
C1046 C 0.46595 0.57319 0.309 0.0
C1047 C 0.42244 0.60141 0.32333 0.0
C1048 C 0.43219 0.63717 0.31882 0.0
H1049 H 0.48098 0.54891 0.30558 0.0
H1050 H 0.40203 0.59854 0.33099 0.0
H1051 H 0.51097 0.49383 0.31892 0.0
H1052 H 0.53997 0.55286 0.35259 0.0
H1053 H 0.3136 0.54569 0.29826 0.0
H1054 H 0.49807 0.60989 0.29692 0.0
H1055 H 0.4191 0.66182 0.32301 0.0
H1056 H 0.19081 0.18911 0.11921 0.0
H1057 H 0.12727 0.14892 0.08628 0.0
H1058 H 0.08794 0.11013 0.10079 0.0
H1059 H 0.19773 0.10374 0.13411 0.0
H1060 H 0.19419 0.12107 0.15035 0.0
H1061 H 0.21218 0.15117 0.13788 0.0
H1062 H 0.16143 0.20117 0.14321 0.0
H1063 H 0.14329 0.17122 0.15579 0.0
H1064 H 0.11238 0.18791 0.14327 0.0
H1065 H 0.06308 0.06857 0.11809 0.0
H1066 H 0.0544 0.02691 0.13687 0.0
H1067 H 0.13384 0.09399 0.15871 0.0
C1068 C 0.16782 0.17315 0.11506 0.0
C1069 C 0.16182 0.17233 0.10161 0.0
C1070 C 0.1321 0.15026 0.09655 0.0
C1071 C 0.1096 0.12823 0.10473 0.0
C1072 C 0.11711 0.12877 0.11791 0.0
C1073 C 0.14541 0.15083 0.12306 0.0
C1074 C 0.15087 0.14298 0.13728 0.0
C1075 C 0.19111 0.1289 0.14006 0.0
C1076 C 0.14141 0.1779 0.14536 0.0
C1077 C 0.12206 0.11208 0.13927 0.0
C1078 C 0.10257 0.10469 0.128 0.0
C1079 C 0.07744 0.0747 0.12703 0.0
C1080 C 0.07278 0.05117 0.13772 0.0
C1081 C 0.093 0.0578 0.14923 0.0
C1082 C 0.11717 0.08919 0.15014 0.0
H1083 H 0.1261 0.97104 0.36627 0.0
H1084 H 0.13334 0.89604 0.33341 0.0
H1085 H 0.14679 0.84277 0.34828 0.0
H1086 H 0.20136 0.93461 0.3832 0.0
H1087 H 0.18027 0.94133 0.3988 0.0
H1088 H 0.16718 0.97142 0.38564 0.0
H1089 H 0.09697 0.95354 0.38906 0.0
H1090 H 0.10996 0.92302 0.40219 0.0
H1091 H 0.08316 0.90466 0.38886 0.0
H1092 H 0.16639 0.80007 0.3668 0.0
H1093 H 0.1928 0.77261 0.3867 0.0
H1094 H 0.17047 0.87672 0.40703 0.0
C1095 C 0.13009 0.94341 0.3621 0.0
C1096 C 0.12881 0.93765 0.34865 0.0
C1097 C 0.13418 0.90099 0.34369 0.0
C1098 C 0.14162 0.87067 0.35207 0.0
C1099 C 0.14298 0.87764 0.36531 0.0
C1100 C 0.13725 0.91323 0.37024 0.0
C1101 C 0.14292 0.91454 0.38464 0.0
C1102 C 0.17482 0.94207 0.38827 0.0
C1103 C 0.10605 0.92452 0.39159 0.0
C1104 C 0.15399 0.87421 0.38713 0.0
C1105 C 0.15346 0.85316 0.37591 0.0
C1106 C 0.16617 0.81609 0.37565 0.0
C1107 C 0.18105 0.80073 0.387 0.0
C1108 C 0.18313 0.82244 0.39842 0.0
C1109 C 0.16816 0.85912 0.39856 0.0
H1110 H 0.31645 0.84757 0.61652 0.0
H1111 H 0.35522 0.90935 0.58296 0.0
H1112 H 0.39148 0.95199 0.59719 0.0
H1113 H 0.30003 0.92551 0.63567 0.0
H1114 H 0.3149 0.90407 0.65054 0.0
H1115 H 0.29658 0.87522 0.63777 0.0
H1116 H 0.35743 0.83503 0.63793 0.0
H1117 H 0.37586 0.8635 0.65083 0.0
H1118 H 0.40255 0.85786 0.63621 0.0
H1119 H 0.41753 0.99141 0.61509 0.0
H1120 H 0.43356 0.0242 0.63516 0.0
H1121 H 0.3766 0.93723 0.65723 0.0
C1122 C 0.33327 0.86949 0.61208 0.0
C1123 C 0.33321 0.87501 0.59859 0.0
C1124 C 0.35518 0.90436 0.59324 0.0
C1125 C 0.37575 0.92873 0.60126 0.0
C1126 C 0.37409 0.92317 0.61455 0.0
C1127 C 0.35364 0.89407 0.61992 0.0
C1128 C 0.3541 0.8958 0.6345 0.0
C1129 C 0.31403 0.90043 0.63993 0.0
C1130 C 0.37366 0.86098 0.6402 0.0
C1131 C 0.37738 0.931 0.63655 0.0
C1132 C 0.38883 0.94613 0.62491 0.0
C1133 C 0.4091 0.97957 0.62425 0.0
C1134 C 0.41788 0.99808 0.63574 0.0
C1135 C 0.40636 0.98327 0.64781 0.0
C1136 C 0.38606 0.94908 0.64819 0.0
H1137 H 0.4227 0.04015 0.86676 0.0
H1138 H 0.37664 0.10686 0.8355 0.0
H1139 H 0.33856 0.14274 0.85122 0.0
H1140 H 0.33957 0.0283 0.88288 0.0
H1141 H 0.35925 0.03022 0.89885 0.0
H1142 H 0.38789 0.0149 0.88561 0.0
H1143 H 0.43723 0.06642 0.89094 0.0
H1144 H 0.40867 0.08195 0.90426 0.0
H1145 H 0.4227 0.11496 0.89197 0.0
H1146 H 0.29937 0.16452 0.86963 0.0
H1147 H 0.26026 0.16958 0.88914 0.0
H1148 H 0.33128 0.0883 0.90856 0.0
C1149 C 0.40544 0.06302 0.86321 0.0
C1150 C 0.4029 0.07099 0.84989 0.0
C1151 C 0.37933 0.10057 0.84565 0.0
C1152 C 0.3577 0.12111 0.85452 0.0
C1153 C 0.3602 0.1118 0.86756 0.0
C1154 C 0.38358 0.08349 0.87189 0.0
C1155 C 0.37796 0.0759 0.88613 0.0
C1156 C 0.36541 0.03492 0.8885 0.0
C1157 C 0.41378 0.08539 0.89378 0.0
C1158 C 0.34665 0.10343 0.88908 0.0
C1159 C 0.33733 0.1243 0.87827 0.0
C1160 C 0.30694 0.14895 0.8782 0.0
C1161 C 0.28487 0.15155 0.88931 0.0
C1162 C 0.29322 0.12967 0.90034 0.0
C1163 C 0.32511 0.10612 0.90037 0.0
H1164 H 0.86741 0.92345 0.84237 0.0
H1165 H 0.97364 0.93088 0.86282 0.0
H1166 H 0.94594 0.89666 0.88117 0.0
H1167 H 0.81111 0.94256 0.8683 0.0
H1168 H 0.77332 0.91074 0.86425 0.0
H1169 H 0.80279 0.9298 0.85176 0.0
H1170 H 0.81943 0.86252 0.84405 0.0
H1171 H 0.78947 0.84313 0.8564 0.0
H1172 H 0.83808 0.82886 0.85537 0.0
H1173 H 0.90459 0.87093 0.89848 0.0
H1174 H 0.85327 0.84967 0.91288 0.0
H1175 H 0.77414 0.85799 0.88117 0.0
C1176 C 0.8852 0.9164 0.85048 0.0
C1177 C 0.92275 0.92934 0.85115 0.0
C1178 C 0.94486 0.9209 0.86212 0.0
C1179 C 0.92938 0.90153 0.87259 0.0
C1180 C 0.89178 0.89065 0.87192 0.0
C1181 C 0.87008 0.8972 0.86108 0.0
C1182 C 0.82956 0.88544 0.86329 0.0
C1183 C 0.80263 0.91914 0.86182 0.0
C1184 C 0.81849 0.85305 0.85424 0.0
C1185 C 0.83177 0.87227 0.87714 0.0
C1186 C 0.86791 0.87541 0.88193 0.0
C1187 C 0.8763 0.86756 0.89477 0.0
C1188 C 0.847 0.85577 0.90289 0.0
C1189 C 0.80991 0.85183 0.89811 0.0
C1190 C 0.80238 0.8601 0.88505 0.0
H1191 H 0.87025 0.10146 0.6613 0.0
H1192 H 0.96695 0.06355 0.6396 0.0
H1193 H 0.94525 0.09956 0.62071 0.0
H1194 H 0.80829 0.08569 0.6386 0.0
H1195 H 0.77752 0.12534 0.64114 0.0
H1196 H 0.8058 0.10809 0.65414 0.0
H1197 H 0.83594 0.17355 0.65738 0.0
H1198 H 0.80705 0.19183 0.64454 0.0
H1199 H 0.8575 0.19735 0.64393 0.0
H1200 H 0.90628 0.12596 0.60304 0.0
H1201 H 0.85363 0.1415 0.58835 0.0
H1202 H 0.78167 0.16167 0.62133 0.0
C1203 C 0.88786 0.10281 0.65281 0.0
C1204 C 0.92064 0.08074 0.65191 0.0
C1205 C 0.94212 0.08109 0.64046 0.0
C1206 C 0.93002 0.10147 0.6297 0.0
C1207 C 0.8963 0.12131 0.63056 0.0
C1208 C 0.87573 0.12261 0.6419 0.0
C1209 C 0.83747 0.14022 0.63969 0.0
C1210 C 0.80542 0.11319 0.64361 0.0
C1211 C 0.83432 0.17799 0.64681 0.0
C1212 C 0.83879 0.14607 0.62527 0.0
C1213 C 0.87327 0.13601 0.6202 0.0
C1214 C 0.87949 0.13497 0.60692 0.0
C1215 C 0.84946 0.14373 0.59864 0.0
C1216 C 0.81366 0.15282 0.6037 0.0
C1217 C 0.80883 0.1551 0.61717 0.0
H1218 H 0.64327 0.02172 0.36444 0.0
H1219 H 0.60083 0.11356 0.341 0.0
H1220 H 0.60677 0.15654 0.35965 0.0
H1221 H 0.59907 0.05098 0.39508 0.0
H1222 H 0.63936 0.03632 0.40438 0.0
H1223 H 0.62758 0.01211 0.38968 0.0
H1224 H 0.69477 0.0249 0.38087 0.0
H1225 H 0.70661 0.04862 0.39559 0.0
H1226 H 0.71226 0.07258 0.38042 0.0
H1227 H 0.62514 0.1906 0.37982 0.0
H1228 H 0.65658 0.2135 0.39954 0.0
H1229 H 0.68388 0.09879 0.41015 0.0
C1230 C 0.63472 0.05077 0.36323 0.0
C1231 C 0.6216 0.06436 0.35125 0.0
C1232 C 0.61091 0.10258 0.35009 0.0
C1233 C 0.61396 0.12708 0.36065 0.0
C1234 C 0.62721 0.11272 0.37231 0.0
C1235 C 0.63731 0.07538 0.37366 0.0
C1236 C 0.65357 0.06747 0.38686 0.0
C1237 C 0.62837 0.0401 0.39444 0.0
C1238 C 0.6942 0.05255 0.38587 0.0
C1239 C 0.65242 0.10656 0.39261 0.0
C1240 C 0.63667 0.13219 0.38413 0.0
C1241 C 0.63657 0.1707 0.38668 0.0
C1242 C 0.65431 0.18345 0.39791 0.0
C1243 C 0.67161 0.15776 0.40647 0.0
C1244 C 0.66942 0.11879 0.40402 0.0
H1245 H 0.60159 0.99458 0.13366 0.0
H1246 H 0.5812 0.90636 0.16172 0.0
H1247 H 0.58981 0.85849 0.14464 0.0
H1248 H 0.55966 0.9468 0.10494 0.0
H1249 H 0.59624 0.96504 0.09463 0.0
H1250 H 0.58082 0.99188 0.10837 0.0
H1251 H 0.64955 0.99495 0.11668 0.0
H1252 H 0.66514 0.96809 0.1031 0.0
H1253 H 0.67529 0.95178 0.11913 0.0
H1254 H 0.61144 0.82107 0.12562 0.0
H1255 H 0.64689 0.79734 0.1069 0.0
H1256 H 0.65193 0.91 0.09106 0.0
C1257 C 0.59787 0.96523 0.1362 0.0
C1258 C 0.59055 0.95416 0.14903 0.0
C1259 C 0.58653 0.91546 0.15195 0.0
C1260 C 0.5912 0.88815 0.14228 0.0
C1261 C 0.5994 0.90013 0.12977 0.0
C1262 C 0.60251 0.93785 0.12673 0.0
C1263 C 0.61652 0.94361 0.11311 0.0
C1264 C 0.5865 0.96298 0.10477 0.0
C1265 C 0.65382 0.96589 0.11301 0.0
C1266 C 0.62229 0.90316 0.10903 0.0
C1267 C 0.61162 0.87846 0.1187 0.0
C1268 C 0.61884 0.84002 0.11786 0.0
C1269 C 0.63887 0.82676 0.10717 0.0
C1270 C 0.65131 0.8518 0.09746 0.0
C1271 C 0.64151 0.89016 0.09812 0.0
H1272 H 0.68092 0.57447 0.59632 0.0
H1273 H 0.67904 0.69118 0.60801 0.0
H1274 H 0.64304 0.67389 0.62754 0.0
H1275 H 0.58658 0.54501 0.6113 0.0
H1276 H 0.60634 0.50019 0.61585 0.0
H1277 H 0.62202 0.52328 0.60136 0.0
H1278 H 0.69081 0.51919 0.60949 0.0
H1279 H 0.67547 0.49707 0.62411 0.0
H1280 H 0.70292 0.53977 0.6248 0.0
H1281 H 0.62032 0.64182 0.64792 0.0
H1282 H 0.6078 0.59859 0.66621 0.0
H1283 H 0.62597 0.50309 0.64096 0.0
C1284 C 0.6706 0.59655 0.60257 0.0
C1285 C 0.68119 0.63425 0.60048 0.0
C1286 C 0.66958 0.66237 0.60923 0.0
C1287 C 0.64954 0.65268 0.62041 0.0
C1288 C 0.64138 0.61476 0.62263 0.0
C1289 C 0.65087 0.58721 0.61377 0.0
C1290 C 0.64392 0.54817 0.61911 0.0
C1291 C 0.61285 0.52798 0.61145 0.0
C1292 C 0.68045 0.52472 0.6194 0.0
C1293 C 0.63078 0.55791 0.63253 0.0
C1294 C 0.62898 0.59637 0.6344 0.0
C1295 C 0.62072 0.61165 0.64646 0.0
C1296 C 0.6139 0.58695 0.65681 0.0
C1297 C 0.61572 0.54748 0.65502 0.0
C1298 C 0.62392 0.53309 0.64266 0.0
H1299 H 0.65838 0.40351 0.91518 0.0
H1300 H 0.66108 0.29168 0.89865 0.0
H1301 H 0.627 0.31472 0.87951 0.0
H1302 H 0.56538 0.43504 0.90037 0.0
H1303 H 0.58376 0.48173 0.89765 0.0
H1304 H 0.5996 0.45467 0.9113 0.0
H1305 H 0.66862 0.46347 0.90383 0.0
H1306 H 0.65315 0.48994 0.89009 0.0
H1307 H 0.68199 0.44872 0.88788 0.0
H1308 H 0.60385 0.35198 0.86053 0.0
H1309 H 0.59138 0.40034 0.84381 0.0
H1310 H 0.60509 0.48769 0.87262 0.0
C1311 C 0.64998 0.38362 0.90782 0.0
C1312 C 0.66153 0.34573 0.90846 0.0
C1313 C 0.65176 0.32072 0.89839 0.0
C1314 C 0.63248 0.33357 0.88748 0.0
C1315 C 0.62323 0.37159 0.88675 0.0
C1316 C 0.63122 0.39621 0.89674 0.0
C1317 C 0.62311 0.43647 0.89286 0.0
C1318 C 0.59104 0.45294 0.90103 0.0
C1319 C 0.65884 0.46106 0.89371 0.0
C1320 C 0.61086 0.43074 0.87904 0.0
C1321 C 0.61051 0.39315 0.87571 0.0
C1322 C 0.60318 0.3815 0.8631 0.0
C1323 C 0.59626 0.40908 0.85365 0.0
C1324 C 0.59713 0.44774 0.85689 0.0
C1325 C 0.60389 0.45836 0.8698 0.0
H1326 H 0.767 0.36853 0.12083 0.0
H1327 H 0.85927 0.35183 0.09408 0.0
H1328 H 0.90462 0.36792 0.11143 0.0
H1329 H 0.80219 0.44796 0.13541 0.0
H1330 H 0.78469 0.43658 0.15122 0.0
H1331 H 0.76102 0.41864 0.13724 0.0
H1332 H 0.76865 0.35064 0.146 0.0
H1333 H 0.79286 0.36854 0.15997 0.0
H1334 H 0.81493 0.33338 0.15001 0.0
H1335 H 0.93854 0.39412 0.13096 0.0
H1336 H 0.95746 0.4306 0.15022 0.0
H1337 H 0.84256 0.4285 0.16397 0.0
C1338 C 0.79677 0.36762 0.11859 0.0
C1339 C 0.80966 0.35893 0.10608 0.0
C1340 C 0.84883 0.35829 0.10361 0.0
C1341 C 0.87471 0.3672 0.11342 0.0
C1342 C 0.86084 0.37613 0.12564 0.0
C1343 C 0.82269 0.37626 0.12821 0.0
C1344 C 0.81435 0.39014 0.14167 0.0
C1345 C 0.78911 0.42542 0.14136 0.0
C1346 C 0.79666 0.35879 0.1499 0.0
C1347 C 0.85372 0.39934 0.14619 0.0
C1348 C 0.88031 0.39046 0.13691 0.0
C1349 C 0.91814 0.40015 0.13841 0.0
C1350 C 0.92871 0.42056 0.1494 0.0
C1351 C 0.9016 0.43081 0.15871 0.0
C1352 C 0.86395 0.41928 0.15725 0.0
H1353 H 0.85503 0.60444 0.34491 0.0
H1354 H 0.96503 0.63937 0.35844 0.0
H1355 H 0.93601 0.66739 0.37772 0.0
H1356 H 0.79962 0.68733 0.36017 0.0
H1357 H 0.76099 0.65603 0.36377 0.0
H1358 H 0.78896 0.6487 0.34952 0.0
H1359 H 0.80074 0.58097 0.3569 0.0
H1360 H 0.7752 0.5876 0.37159 0.0
H1361 H 0.82349 0.57196 0.37213 0.0
H1362 H 0.89764 0.67807 0.39756 0.0
H1363 H 0.85111 0.67748 0.41531 0.0
H1364 H 0.76633 0.63499 0.38894 0.0
C1365 C 0.87262 0.62016 0.35152 0.0
C1366 C 0.91215 0.62045 0.3501 0.0
C1367 C 0.9346 0.63955 0.35927 0.0
C1368 C 0.91837 0.65536 0.37029 0.0
C1369 C 0.87957 0.65216 0.37193 0.0
C1370 C 0.85677 0.63594 0.36263 0.0
C1371 C 0.81667 0.63188 0.36744 0.0
C1372 C 0.78999 0.65753 0.35977 0.0
C1373 C 0.80331 0.59063 0.36701 0.0
C1374 C 0.82121 0.6457 0.38113 0.0
C1375 C 0.85744 0.65802 0.38348 0.0
C1376 C 0.86889 0.66939 0.39574 0.0
C1377 C 0.84243 0.66864 0.40579 0.0
C1378 C 0.80511 0.65626 0.40353 0.0
C1379 C 0.79456 0.64488 0.391 0.0
H1380 H 0.33616 0.38743 0.41183 0.0
H1381 H 0.35628 0.27931 0.3938 0.0
H1382 H 0.38544 0.31132 0.37517 0.0
H1383 H 0.30626 0.43177 0.38457 0.0
H1384 H 0.32693 0.47716 0.38784 0.0
H1385 H 0.31472 0.44636 0.40093 0.0
H1386 H 0.38287 0.44871 0.40957 0.0
H1387 H 0.39547 0.48044 0.39673 0.0
H1388 H 0.42156 0.43744 0.39902 0.0
H1389 H 0.40425 0.35525 0.35729 0.0
H1390 H 0.4151 0.40793 0.34211 0.0
H1391 H 0.38091 0.48713 0.37166 0.0
C1392 C 0.34839 0.37048 0.40424 0.0
C1393 C 0.34487 0.33088 0.40435 0.0
C1394 C 0.35943 0.30966 0.39397 0.0
C1395 C 0.37586 0.3276 0.38333 0.0
C1396 C 0.37733 0.36681 0.38322 0.0
C1397 C 0.36438 0.38801 0.39347 0.0
C1398 C 0.36567 0.4297 0.39042 0.0
C1399 C 0.32604 0.44724 0.39097 0.0
C1400 C 0.39304 0.45028 0.39947 0.0
C1401 C 0.38062 0.42855 0.37677 0.0
C1402 C 0.38741 0.39208 0.37281 0.0
C1403 C 0.3996 0.38399 0.36035 0.0
C1404 C 0.40548 0.41403 0.35177 0.0
C1405 C 0.39903 0.45164 0.35569 0.0
C1406 C 0.38641 0.45875 0.36837 0.0
H1407 H 0.40809 0.54414 0.13955 0.0
H1408 H 0.38712 0.61617 0.17248 0.0
H1409 H 0.35814 0.66354 0.15802 0.0
H1410 H 0.42744 0.6185 0.11577 0.0
H1411 H 0.40309 0.59367 0.10313 0.0
H1412 H 0.42616 0.56773 0.11578 0.0
H1413 H 0.3636 0.53319 0.121 0.0
H1414 H 0.34053 0.5587 0.10831 0.0
H1415 H 0.322 0.56044 0.12444 0.0
H1416 H 0.32603 0.69958 0.1404 0.0
H1417 H 0.2895 0.71969 0.12136 0.0
H1418 H 0.33168 0.62429 0.09988 0.0
C1419 C 0.3981 0.57019 0.14373 0.0
C1420 C 0.40021 0.57669 0.15715 0.0
C1421 C 0.38599 0.61075 0.16223 0.0
C1422 C 0.3697 0.63784 0.15408 0.0
C1423 C 0.36793 0.63037 0.1409 0.0
C1424 C 0.3816 0.59725 0.13578 0.0
C1425 C 0.37312 0.59426 0.12152 0.0
C1426 C 0.40964 0.59351 0.11358 0.0
C1427 C 0.34834 0.55962 0.11865 0.0
C1428 C 0.35175 0.63059 0.11941 0.0
C1429 C 0.34952 0.65124 0.13069 0.0
C1430 C 0.3283 0.6841 0.13147 0.0
C1431 C 0.30782 0.6954 0.12061 0.0
C1432 C 0.3089 0.6741 0.10913 0.0
C1433 C 0.33184 0.64185 0.1084 0.0
H1434 H 0.15719 0.58857 0.84925 0.0
H1435 H 0.0458 0.6074 0.86493 0.0
H1436 H 0.07385 0.63846 0.8839 0.0
H1437 H 0.19584 0.5595 0.8769 0.0
H1438 H 0.24183 0.58007 0.87463 0.0
H1439 H 0.21322 0.56874 0.86092 0.0
H1440 H 0.21804 0.6375 0.85284 0.0
H1441 H 0.24703 0.64911 0.86652 0.0
H1442 H 0.20472 0.67558 0.86336 0.0
H1443 H 0.11391 0.65583 0.9029 0.0
H1444 H 0.16284 0.66022 0.91985 0.0
H1445 H 0.24776 0.62892 0.89181 0.0
C1446 C 0.13874 0.60116 0.85633 0.0
C1447 C 0.09937 0.59643 0.85553 0.0
C1448 C 0.07604 0.61142 0.8653 0.0
C1449 C 0.09173 0.62904 0.87612 0.0
C1450 C 0.13082 0.63144 0.87701 0.0
C1451 C 0.15404 0.61833 0.86728 0.0
C1452 C 0.19496 0.61921 0.87134 0.0
C1453 C 0.21246 0.57953 0.87093 0.0
C1454 C 0.21751 0.64703 0.86302 0.0
C1455 C 0.19099 0.63336 0.88501 0.0
C1456 C 0.15391 0.64084 0.88807 0.0
C1457 C 0.14318 0.65096 0.90053 0.0
C1458 C 0.17108 0.65327 0.91011 0.0
C1459 C 0.20912 0.64517 0.90716 0.0
C1460 C 0.21902 0.63577 0.89438 0.0
H1461 H 0.2299 0.36591 0.61925 0.0
H1462 H 0.14784 0.39143 0.58957 0.0
H1463 H 0.10455 0.41619 0.60631 0.0
H1464 H 0.16245 0.34007 0.64499 0.0
H1465 H 0.19134 0.36169 0.65719 0.0
H1466 H 0.21294 0.34121 0.64316 0.0
H1467 H 0.24638 0.4046 0.63826 0.0
H1468 H 0.22513 0.42511 0.65227 0.0
H1469 H 0.21862 0.44685 0.63675 0.0
H1470 H 0.0752 0.44641 0.62582 0.0
H1471 H 0.06253 0.4804 0.6461 0.0
H1472 H 0.16331 0.4331 0.66301 0.0
C1473 C 0.20257 0.37612 0.61622 0.0
C1474 C 0.19217 0.37687 0.6031 0.0
C1475 C 0.15622 0.39048 0.59958 0.0
C1476 C 0.13151 0.40443 0.60903 0.0
C1477 C 0.1431 0.4039 0.6219 0.0
C1478 C 0.17777 0.38983 0.62547 0.0
C1479 C 0.18532 0.39537 0.63968 0.0
C1480 C 0.18817 0.35731 0.64666 0.0
C1481 C 0.22094 0.41942 0.64186 0.0
C1482 C 0.15007 0.41625 0.64355 0.0
C1483 C 0.12579 0.42043 0.6332 0.0
C1484 C 0.09343 0.4424 0.63405 0.0
C1485 C 0.08642 0.46148 0.64559 0.0
C1486 C 0.11144 0.45826 0.65613 0.0
C1487 C 0.14302 0.43456 0.65524 0.0
H1488 H 0.21747 0.07591 0.97969 0.0
H1489 H 0.27522 0.1774 0.96722 0.0
H1490 H 0.27386 0.20113 0.98963 0.0
H1491 H 0.15408 0.12049 0.99978 0.0
H1492 H 0.15299 0.08397 0.01183 0.0
H1493 H 0.1637 0.07235 0.99539 0.0
H1494 H 0.22669 0.04175 1.0024 0.0
H1495 H 0.21585 0.05251 0.01892 0.0
H1496 H 0.25955 0.06849 0.01197 0.0
H1497 H 0.26096 0.21566 0.01323 0.0
H1498 H 0.24043 0.2188 0.03591 0.0
H1499 H 0.18764 0.10909 0.03226 0.0
C1500 C 0.23077 0.10276 0.98165 0.0
C1501 C 0.24667 0.12471 0.97164 0.0
C1502 C 0.26331 0.15985 0.97471 0.0
C1503 C 0.2624 0.17364 0.98741 0.0
C1504 C 0.24478 0.15193 0.99689 0.0
C1505 C 0.22959 0.11706 0.99415 0.0
C1506 C 0.20981 0.10024 0.00573 0.0
C1507 C 0.16766 0.09391 1.00301 0.0
C1508 C 0.22914 0.06358 0.01001 0.0
C1509 C 0.21568 0.13132 0.01546 0.0
C1510 C 0.23622 0.16075 0.01023 0.0
C1511 C 0.24506 0.19266 0.0174 0.0
C1512 C 0.23317 0.19421 0.03027 0.0
C1513 C 0.21231 0.16421 0.03583 0.0
C1514 C 0.20315 0.1326 0.02824 0.0
H1515 H 0.15345 0.05544 0.27647 0.0
H1516 H 0.05211 0.99327 0.28628 0.0
H1517 H 0.03306 0.99406 0.26332 0.0
H1518 H 0.11246 0.1158 0.25315 0.0
H1519 H 0.15283 0.1154 0.24264 0.0
H1520 H 0.15897 0.10874 0.25969 0.0
H1521 H 0.1934 0.04551 0.25563 0.0
H1522 H 0.18804 0.05236 0.23856 0.0
H1523 H 0.17085 0.0098 0.24599 0.0
H1524 H 0.02463 0.00388 0.23914 0.0
H1525 H 0.03053 0.01573 0.21579 0.0
H1526 H 0.13758 0.07167 0.22223 0.0
C1527 C 0.12735 0.04165 0.27382 0.0
C1528 C 0.10425 0.02425 0.28319 0.0
C1529 C 0.07041 0.00648 0.27927 0.0
C1530 C 0.05925 0.0071 0.26626 0.0
C1531 C 0.0823 0.0255 0.25734 0.0
C1532 C 0.1159 0.04199 0.26096 0.0
C1533 C 0.13595 0.05965 0.2496 0.0
C1534 C 0.1403 0.10243 0.25138 0.0
C1535 C 0.17432 0.04069 0.24731 0.0
C1536 C 0.10841 0.05064 0.23893 0.0
C1537 C 0.07752 0.0311 0.24358 0.0
C1538 C 0.04875 0.01908 0.23543 0.0
C1539 C 0.05231 0.02603 0.22218 0.0
C1540 C 0.08448 0.04468 0.21716 0.0
C1541 C 0.11234 0.05794 0.22575 0.0
H1542 H 0.26828 0.91681 0.52699 0.0
H1543 H 0.25669 0.79863 0.53696 0.0
H1544 H 0.23758 0.78433 0.51472 0.0
H1545 H 0.19168 0.9213 0.50342 0.0
H1546 H 0.21746 0.95163 0.49264 0.0
H1547 H 0.22613 0.95376 0.50971 0.0
H1548 H 0.2972 0.94099 0.50592 0.0
H1549 H 0.28877 0.93969 0.48887 0.0
H1550 H 0.31115 0.90032 0.49671 0.0
H1551 H 0.22001 0.78252 0.49124 0.0
H1552 H 0.21909 0.79104 0.46763 0.0
H1553 H 0.24789 0.90883 0.4725 0.0
C1554 C 0.26166 0.88794 0.52451 0.0
C1555 C 0.26284 0.85907 0.53387 0.0
C1556 C 0.25463 0.82153 0.53012 0.0
C1557 C 0.24373 0.81307 0.51749 0.0
C1558 C 0.24167 0.84233 0.50859 0.0
C1559 C 0.25125 0.87886 0.51186 0.0
C1560 C 0.25033 0.9044 0.50018 0.0
C1561 C 0.21957 0.93456 0.50158 0.0
C1562 C 0.28917 0.92238 0.49778 0.0
C1563 C 0.24012 0.87625 0.48979 0.0
C1564 C 0.23389 0.84087 0.4949 0.0
C1565 C 0.22479 0.81012 0.48713 0.0
C1566 C 0.22398 0.81527 0.47373 0.0
C1567 C 0.2334 0.85059 0.46829 0.0
C1568 C 0.24023 0.88164 0.47645 0.0
H1569 H 0.35539 0.02781 0.77721 0.0
H1570 H 0.47618 0.02772 0.78379 0.0
H1571 H 0.48662 0.0078 0.76139 0.0
H1572 H 0.35059 0.94874 0.75656 0.0
H1573 H 0.31612 0.96844 0.74575 0.0
H1574 H 0.31741 0.98322 0.76232 0.0
H1575 H 0.32461 0.05293 0.7553 0.0
H1576 H 0.32231 0.03844 0.73872 0.0
H1577 H 0.36182 0.06579 0.74434 0.0
H1578 H 0.48405 0.98357 0.73886 0.0
H1579 H 0.46968 0.96957 0.71614 0.0
H1580 H 0.35103 0.9897 0.72344 0.0
C1581 C 0.38407 0.02431 0.77388 0.0
C1582 C 0.41495 0.02851 0.78238 0.0
C1583 C 0.45201 0.02373 0.77758 0.0
C1584 C 0.45826 0.01238 0.76486 0.0
C1585 C 0.42719 0.00661 0.75693 0.0
C1586 C 0.39089 0.01348 0.7611 0.0
C1587 C 0.36266 0.00659 0.75039 0.0
C1588 C 0.33507 0.97486 0.75397 0.0
C1589 C 0.34162 0.04311 0.74698 0.0
C1590 C 0.38879 0.99455 0.7396 0.0
C1591 C 0.42583 0.99422 0.74368 0.0
C1592 C 0.45519 0.98411 0.73551 0.0
C1593 C 0.44672 0.97601 0.72264 0.0
C1594 C 0.40932 0.97875 0.71798 0.0
C1595 C 0.37985 0.98686 0.72671 0.0
H1596 H 0.71896 0.91226 0.97096 0.0
H1597 H 0.77358 0.80448 0.96491 0.0
H1598 H 0.76957 0.7914 0.9882 0.0
H1599 H 0.76514 0.93128 1.003 0.0
H1600 H 0.72344 0.95422 0.009 0.0
H1601 H 0.73472 0.95654 0.99212 0.0
H1602 H 0.66868 0.9296 0.98682 0.0
H1603 H 0.6576 0.92598 1.00367 0.0
H1604 H 0.65468 0.8849 0.99354 0.0
H1605 H 0.74733 0.78477 0.01103 0.0
H1606 H 0.7249 0.79161 0.03326 0.0
H1607 H 0.69202 0.90699 0.02535 0.0
C1608 C 0.73132 0.8865 0.97461 0.0
C1609 C 0.74623 0.85921 0.96612 0.0
C1610 C 0.76206 0.82581 0.97122 0.0
C1611 C 0.75959 0.81799 0.98443 0.0
C1612 C 0.7424 0.84444 0.99241 0.0
C1613 C 0.72997 0.8787 0.9878 0.0
C1614 C 0.71233 0.90208 0.99842 0.0
C1615 C 0.73528 0.93816 1.00078 0.0
C1616 C 0.67087 0.91116 0.99542 0.0
C1617 C 0.71556 0.87504 0.00964 0.0
C1618 C 0.73251 0.84178 0.0059 0.0
C1619 C 0.73557 0.81127 0.01422 0.0
C1620 C 0.72283 0.81552 0.02688 0.0
C1621 C 0.70829 0.85038 0.03129 0.0
C1622 C 0.70365 0.88018 0.0224 0.0
H1623 H 0.85739 0.03843 0.77833 0.0
H1624 H 0.95936 0.97493 0.78603 0.0
H1625 H 0.97877 0.98294 0.76342 0.0
H1626 H 0.84311 1.00114 0.7453 0.0
H1627 H 0.82504 0.0455 0.73957 0.0
H1628 H 0.81818 0.03197 0.75611 0.0
H1629 H 0.84942 0.09451 0.76331 0.0
H1630 H 0.85744 0.10771 0.74681 0.0
H1631 H 0.89641 0.10558 0.7579 0.0
H1632 H 0.99096 0.005 0.74074 0.0
H1633 H 0.98882 0.0274 0.71829 0.0
H1634 H 0.87714 0.0731 0.72486 0.0
C1635 C 0.88333 0.02532 0.7752 0.0
C1636 C 0.90689 0.00618 0.78403 0.0
C1637 C 0.94064 0.98951 0.77949 0.0
C1638 C 0.95215 0.99428 0.76667 0.0
C1639 C 0.92924 0.01511 0.75843 0.0
C1640 C 0.89498 0.02934 0.76239 0.0
C1641 C 0.87556 0.05045 0.75156 0.0
C1642 C 0.83827 0.0311 0.74792 0.0
C1643 C 0.86935 0.09202 0.75511 0.0
C1644 C 0.90461 0.04653 0.74097 0.0
C1645 C 0.93554 0.0264 0.74518 0.0
C1646 C 0.96652 0.02007 0.73726 0.0
C1647 C 0.96505 0.03298 0.72452 0.0
C1648 C 0.93257 0.05142 0.71969 0.0
C1649 C 0.90247 0.05924 0.7282 0.0
H1650 H 0.72992 0.22161 0.52675 0.0
H1651 H 0.77926 0.12046 0.54309 0.0
H1652 H 0.78153 0.09188 0.52148 0.0
H1653 H 0.67195 0.17633 0.50331 0.0
H1654 H 0.67962 0.21131 0.49101 0.0
H1655 H 0.68206 0.22438 0.50773 0.0
H1656 H 0.74945 0.25087 0.50441 0.0
H1657 H 0.74685 0.23856 0.48764 0.0
H1658 H 0.7851 0.22122 0.49737 0.0
H1659 H 0.77811 0.07409 0.49825 0.0
H1660 H 0.77551 0.07066 0.47457 0.0
H1661 H 0.72795 0.18308 0.47318 0.0
C1662 C 0.74165 0.19362 0.52579 0.0
C1663 C 0.75408 0.17311 0.53667 0.0
C1664 C 0.76912 0.13653 0.53495 0.0
C1665 C 0.77046 0.12003 0.52271 0.0
C1666 C 0.75682 0.14053 0.51227 0.0
C1667 C 0.7432 0.17671 0.51363 0.0
C1668 C 0.73103 0.1929 0.50078 0.0
C1669 C 0.68864 0.20174 0.50071 0.0
C1670 C 0.75452 0.22795 0.49735 0.0
C1671 C 0.74005 0.16017 0.49196 0.0
C1672 C 0.75469 0.13018 0.49882 0.0
C1673 C 0.76656 0.09731 0.49278 0.0
C1674 C 0.7648 0.09555 0.47933 0.0
C1675 C 0.7512 0.12642 0.47206 0.0
C1676 C 0.73768 0.15872 0.4785 0.0
H1677 H 0.52072 0.07217 0.27564 0.0
H1678 H 0.62008 0.00694 0.28523 0.0
H1679 H 0.62224 0.98233 0.26304 0.0
H1680 H 0.47775 0.00378 0.25493 0.0
H1681 H 0.46026 0.03819 0.24366 0.0
H1682 H 0.4665 0.05068 0.26032 0.0
H1683 H 0.50973 0.10644 0.25376 0.0
H1684 H 0.5031 0.09448 0.23709 0.0
H1685 H 0.55001 0.09769 0.24363 0.0
H1686 H 0.61329 0.9648 0.23954 0.0
H1687 H 0.5966 0.95986 0.21644 0.0
H1688 H 0.5035 0.03678 0.2225 0.0
C1689 C 0.54312 0.05294 0.27306 0.0
C1690 C 0.57007 0.04129 0.28222 0.0
C1691 C 0.59895 0.01609 0.27842 0.0
C1692 C 0.60033 1.00182 0.26584 0.0
C1693 C 0.57275 0.01319 0.25713 0.0
C1694 C 0.54489 0.03844 0.26055 0.0
C1695 C 0.51904 0.04681 0.24934 0.0
C1696 C 0.47849 0.0341 0.25224 0.0
C1697 C 0.52058 0.08884 0.24574 0.0
C1698 C 0.53681 0.02254 0.23903 0.0
C1699 C 0.56765 1.00317 0.2437 0.0
C1700 C 0.5892 0.97989 0.23579 0.0
C1701 C 0.57962 0.97731 0.22269 0.0
C1702 C 0.54894 0.99803 0.21766 0.0
C1703 C 0.52679 0.0201 0.22606 0.0
H1704 H 0.76206 0.7553 0.53164 0.0
H1705 H 0.74104 0.63648 0.53852 0.0
H1706 H 0.75357 0.62308 0.51567 0.0
H1707 H 0.71583 0.75672 0.49995 0.0
H1708 H 0.74854 0.79069 0.4935 0.0
H1709 H 0.73773 0.79076 0.51043 0.0
H1710 H 0.8089 0.78497 0.51557 0.0
H1711 H 0.81987 0.78406 0.49866 0.0
H1712 H 0.83539 0.74627 0.50896 0.0
H1713 H 0.77471 0.62172 0.49265 0.0
H1714 H 0.78997 0.63379 0.46985 0.0
H1715 H 0.78989 0.75392 0.47701 0.0
C1716 C 0.75956 0.72649 0.52834 0.0
C1717 C 0.75175 0.69673 0.53705 0.0
C1718 C 0.74827 0.65959 0.53221 0.0
C1719 C 0.75522 0.6517 0.5192 0.0
C1720 C 0.76464 0.6814 0.51104 0.0
C1721 C 0.76567 0.71819 0.51531 0.0
C1722 C 0.77509 0.74504 0.50438 0.0
C1723 C 0.74234 0.77242 0.50192 0.0
C1724 C 0.81201 0.76634 0.50706 0.0
C1725 C 0.7797 0.71749 0.49334 0.0
C1726 C 0.77406 0.68089 0.49749 0.0
C1727 C 0.77811 0.65032 0.48923 0.0
C1728 C 0.78645 0.65742 0.47629 0.0
C1729 C 0.78968 0.69469 0.47161 0.0
C1730 C 0.7874 0.72511 0.48033 0.0
H1731 H 0.51967 0.55395 0.72802 0.0
H1732 H 0.63719 0.5242 0.72367 0.0
H1733 H 0.63957 0.50362 0.74634 0.0
H1734 H 0.53137 0.59282 0.76052 0.0
H1735 H 0.48571 0.57682 0.7658 0.0
H1736 H 0.49337 0.58811 0.74912 0.0
H1737 H 0.46991 0.52146 0.74282 0.0
H1738 H 0.46304 0.50969 0.75952 0.0
H1739 H 0.49273 0.48065 0.74957 0.0
H1740 H 0.62788 0.48213 0.769 0.0
H1741 H 0.60729 0.47376 0.7915 0.0
H1742 H 0.49937 0.52404 0.78202 0.0
C1743 C 0.546 0.5437 0.73194 0.0
C1744 C 0.57799 0.53923 0.72401 0.0
C1745 C 0.61196 0.5259 0.72944 0.0
C1746 C 0.61363 0.5145 0.74233 0.0
C1747 C 0.58118 0.51742 0.74977 0.0
C1748 C 0.54831 0.53275 0.74491 0.0
C1749 C 0.51811 0.5345 0.75522 0.0
C1750 C 0.50647 0.5755 0.75782 0.0
C1751 C 0.48393 0.51012 0.75156 0.0
C1752 C 0.53919 0.51777 0.76657 0.0
C1753 C 0.57529 0.50747 0.76313 0.0
C1754 C 0.59991 0.49079 0.77188 0.0
C1755 C 0.58799 0.48621 0.78466 0.0
C1756 C 0.55217 0.49921 0.78867 0.0
C1757 C 0.52704 0.51395 0.77934 0.0
H1758 H 0.73331 0.39729 0.98232 0.0
H1759 H 0.70378 0.28129 0.97394 0.0
H1760 H 0.72438 0.26256 0.99574 0.0
H1761 H 0.81675 0.37708 0.99953 0.0
H1762 H 0.81097 0.41403 0.01124 0.0
H1763 H 0.79113 0.41918 0.99539 0.0
H1764 H 0.72492 0.4303 0.00519 0.0
H1765 H 0.74475 0.42603 0.02107 0.0
H1766 H 0.70588 0.39639 0.01637 0.0
H1767 H 0.7491 0.25637 0.01848 0.0
H1768 H 0.77305 0.26396 0.04069 0.0
H1769 H 0.78998 0.3832 0.03372 0.0
C1770 C 0.7302 0.36813 0.98519 0.0
C1771 C 0.7164 0.34081 0.97648 0.0
C1772 C 0.71391 0.30274 0.9805 0.0
C1773 C 0.72574 0.2918 0.99284 0.0
C1774 C 0.74032 0.31921 1.00105 0.0
C1775 C 0.74234 0.35665 0.99743 0.0
C1776 C 0.76019 0.38033 0.00794 0.0
C1777 C 0.79694 0.39873 1.00324 0.0
C1778 C 0.73227 0.41001 0.01294 0.0
C1779 C 0.76794 0.35041 0.01801 0.0
C1780 C 0.75613 0.31535 0.01388 0.0
C1781 C 0.75874 0.28364 0.02176 0.0
C1782 C 0.77266 0.28813 0.03432 0.0
C1783 C 0.78419 0.32394 0.03885 0.0
C1784 C 0.78256 0.35523 0.03043 0.0
H1785 H 0.85653 0.47322 0.28382 0.0
H1786 H 0.96013 0.53454 0.29111 0.0
H1787 H 0.97985 0.52422 0.26863 0.0
H1788 H 0.89355 0.40395 0.26283 0.0
H1789 H 0.85396 0.40366 0.25196 0.0
H1790 H 0.84726 0.41613 0.2686 0.0
H1791 H 0.81763 0.47988 0.2619 0.0
H1792 H 0.82341 0.46718 0.24525 0.0
H1793 H 0.84313 0.51064 0.25118 0.0
H1794 H 0.99086 0.50222 0.24594 0.0
H1795 H 0.98676 0.48223 0.22328 0.0
H1796 H 0.87358 0.44019 0.22999 0.0
C1797 C 0.88307 0.485 0.2806 0.0
C1798 C 0.90676 0.50479 0.28921 0.0
C1799 C 0.94129 0.51975 0.28466 0.0
C1800 C 0.95295 0.51361 0.27194 0.0
C1801 C 0.92947 0.49303 0.26381 0.0
C1802 C 0.89476 0.47988 0.26783 0.0
C1803 C 0.87423 0.46004 0.25697 0.0
C1804 C 0.86682 0.41848 0.26029 0.0
C1805 C 0.83743 0.48067 0.25363 0.0
C1806 C 0.90299 0.46372 0.24625 0.0
C1807 C 0.93491 0.48226 0.25049 0.0
C1808 C 0.96569 0.48837 0.24245 0.0
C1809 C 0.96306 0.47694 0.22957 0.0
C1810 C 0.92955 0.46044 0.22473 0.0
C1811 C 0.89964 0.45266 0.23334 0.0
H1812 H 0.20637 0.39778 0.52946 0.0
H1813 H 0.24253 0.28425 0.53881 0.0
H1814 H 0.25974 0.27385 0.51611 0.0
H1815 H 0.16492 0.37255 0.49825 0.0
H1816 H 0.17865 0.41654 0.49095 0.0
H1817 H 0.16889 0.41446 0.50794 0.0
H1818 H 0.23495 0.44254 0.51257 0.0
H1819 H 0.24526 0.44383 0.49561 0.0
H1820 H 0.2762 0.41905 0.50644 0.0
H1821 H 0.27801 0.2777 0.49256 0.0
H1822 H 0.28393 0.2909 0.46928 0.0
H1823 H 0.23162 0.39992 0.47499 0.0
C1824 C 0.21725 0.37047 0.52672 0.0
C1825 C 0.22383 0.34214 0.53604 0.0
C1826 C 0.23795 0.30675 0.53195 0.0
C1827 C 0.24791 0.30055 0.51906 0.0
C1828 C 0.24278 0.32969 0.51025 0.0
C1829 C 0.22676 0.36356 0.51384 0.0
C1830 C 0.22304 0.38979 0.50239 0.0
C1831 C 0.1814 0.39885 0.49973 0.0
C1832 C 0.24625 0.42594 0.50438 0.0
C1833 C 0.23976 0.36554 0.49185 0.0
C1834 C 0.25156 0.3312 0.49661 0.0
C1835 C 0.26857 0.30439 0.48871 0.0
C1836 C 0.27224 0.31231 0.47551 0.0
C1837 C 0.25839 0.34649 0.47033 0.0
C1838 C 0.24262 0.37362 0.47869 0.0
H1839 H 0.35965 0.46847 0.2307 0.0
H1840 H 0.46083 0.53187 0.22164 0.0
H1841 H 0.47955 0.52975 0.24453 0.0
H1842 H 0.34297 0.51358 0.26218 0.0
H1843 H 0.32531 0.4706 0.26918 0.0
H1844 H 0.31936 0.47931 0.25223 0.0
H1845 H 0.35226 0.41581 0.24732 0.0
H1846 H 0.35926 0.40741 0.26424 0.0
H1847 H 0.39901 0.40734 0.25345 0.0
H1848 H 0.49034 0.51475 0.26804 0.0
H1849 H 0.48661 0.49912 0.29113 0.0
H1850 H 0.37663 0.44861 0.28508 0.0
C1851 C 0.38535 0.48263 0.23358 0.0
C1852 C 0.40879 0.50031 0.22437 0.0
C1853 C 0.44222 0.51847 0.22852 0.0
C1854 C 0.4533 0.51704 0.24149 0.0
C1855 C 0.43033 0.4979 0.25021 0.0
C1856 C 0.39653 0.48194 0.2465 0.0
C1857 C 0.37674 0.4635 0.25779 0.0
C1858 C 0.33886 0.48291 0.26051 0.0
C1859 C 0.37152 0.42099 0.25556 0.0
C1860 C 0.40496 0.47101 0.26842 0.0
C1861 C 0.43586 0.49053 0.26381 0.0
C1862 C 0.46595 0.50007 0.27178 0.0
C1863 C 0.46358 0.49102 0.2849 0.0
C1864 C 0.4311 0.47318 0.29001 0.0
C1865 C 0.40197 0.46206 0.28152 0.0
H1866 H 0.31262 0.64243 0.03935 0.0
H1867 H 0.25798 0.75128 0.04199 0.0
H1868 H 0.24445 0.7493 0.01863 0.0
H1869 H 0.35296 0.65483 0.00685 0.0
H1870 H 0.34438 0.60622 1.00282 0.0
H1871 H 0.35378 0.61931 0.01924 0.0
H1872 H 0.29131 0.58727 0.02623 0.0
H1873 H 0.28132 0.57477 0.00982 0.0
H1874 H 0.24767 0.60186 0.0189 0.0
H1875 H 0.23397 0.73265 0.99459 0.0
H1876 H 0.22853 0.70317 0.97294 0.0
H1877 H 0.28644 0.6043 0.98745 0.0
C1878 C 0.29889 0.66647 0.03498 0.0
C1879 C 0.28672 0.69717 0.04251 0.0
C1880 C 0.2678 0.72751 0.03641 0.0
C1881 C 0.25993 0.72661 0.02314 0.0
C1882 C 0.27109 0.69513 0.01609 0.0
C1883 C 0.29043 0.66578 0.02184 0.0
C1884 C 0.29716 0.63393 0.01251 0.0
C1885 C 0.33959 0.62825 0.01022 0.0
C1886 C 0.27822 0.59732 0.01714 0.0
C1887 C 0.27797 0.64945 1.00067 0.0
C1888 C 0.26354 0.685 1.00274 0.0
C1889 C 0.24516 0.70475 0.99291 0.0
C1890 C 0.24196 0.68777 0.98068 0.0
C1891 C 0.25641 0.65117 0.9785 0.0
C1892 C 0.27435 0.63202 0.98874 0.0
H1893 H 0.16442 0.47715 0.78364 0.0
H1894 H 0.06392 0.54249 0.79162 0.0
H1895 H 0.04518 0.53735 0.76881 0.0
H1896 H 0.18153 0.51779 0.75139 0.0
H1897 H 0.19872 0.47375 0.74512 0.0
H1898 H 0.20484 0.48479 0.7619 0.0
H1899 H 0.17132 0.42229 0.76789 0.0
H1900 H 0.16412 0.41159 0.75114 0.0
H1901 H 0.12445 0.41333 0.76194 0.0
H1902 H 0.03398 0.51886 0.74563 0.0
H1903 H 0.03739 0.50002 0.72282 0.0
H1904 H 0.14717 0.45016 0.72959 0.0
C1905 C 0.13892 0.49118 0.78053 0.0
C1906 C 0.11566 0.51027 0.78944 0.0
C1907 C 0.08244 0.52809 0.78498 0.0
C1908 C 0.07132 0.52492 0.77205 0.0
C1909 C 0.09406 0.50442 0.76366 0.0
C1910 C 0.12772 0.4888 0.76763 0.0
C1911 C 0.14728 0.46864 0.75664 0.0
C1912 C 0.18534 0.48737 0.75358 0.0
C1913 C 0.15206 0.42646 0.75958 0.0
C1914 C 0.11908 0.47485 0.7459 0.0
C1915 C 0.08837 0.49514 0.7502 0.0
C1916 C 0.05825 0.50361 0.74211 0.0
C1917 C 0.06044 0.49273 0.72916 0.0
C1918 C 0.09281 0.4742 0.72431 0.0
C1919 C 0.12194 0.46414 0.73294 0.0
H1920 H 0.26428 0.87181 0.10132 0.0
H1921 H 0.24204 0.84202 0.06161 0.0
H1922 H 0.2447 0.9095 0.05558 0.0
H1923 H 0.20849 0.95465 0.10214 0.0
H1924 H 0.24051 0.98048 0.11231 0.0
H1925 H 0.23851 0.9299 0.11328 0.0
H1926 H 0.31023 0.92613 0.10881 0.0
H1927 H 0.31246 0.97674 0.10788 0.0
H1928 H 0.32928 0.94858 0.09467 0.0
H1929 H 0.24605 0.98157 0.05428 0.0
H1930 H 0.25047 0.05053 0.05757 0.0
H1931 H 0.27216 0.03213 0.09814 0.0
C1932 C 0.2601 0.87943 0.09134 0.0
C1933 C 0.25293 0.85154 0.08194 0.0
C1934 C 0.24802 0.86276 0.06896 0.0
C1935 C 0.24922 0.90107 0.06547 0.0
C1936 C 0.2557 0.92787 0.07504 0.0
C1937 C 0.26146 0.9174 0.0877 0.0
C1938 C 0.26772 0.95147 0.09621 0.0
C1939 C 0.23697 0.95428 0.10659 0.0
C1940 C 0.30728 0.95067 0.10224 0.0
C1941 C 0.2642 0.98287 0.08642 0.0
C1942 C 0.25713 0.96883 0.07426 0.0
C1943 C 0.25184 0.99277 0.06376 0.0
C1944 C 0.25416 0.03194 0.06573 0.0
C1945 C 0.26192 0.04689 0.07809 0.0
C1946 C 0.26687 0.02175 0.08853 0.0
H1947 H 0.43127 0.01976 0.3421 0.0
H1948 H 0.45321 0.96802 0.30517 0.0
H1949 H 0.38466 0.96806 0.30041 0.0
H1950 H 0.34347 0.97278 0.34927 0.0
H1951 H 0.32202 0.01395 0.35625 0.0
H1952 H 0.37238 0.00804 0.35692 0.0
H1953 H 0.38172 0.07278 0.34583 0.0
H1954 H 0.33143 0.079 0.34524 0.0
H1955 H 0.3588 0.08192 0.33067 0.0
H1956 H 0.31215 0.97266 0.30011 0.0
H1957 H 0.24458 0.9891 0.3031 0.0
H1958 H 0.27157 0.04149 0.33952 0.0
C1959 C 0.42154 0.00822 0.33306 0.0
C1960 C 0.44747 0.99355 0.32404 0.0
C1961 C 0.43379 0.97942 0.31219 0.0
C1962 C 0.3949 0.97913 0.30945 0.0
C1963 C 0.37 0.9936 0.3186 0.0
C1964 C 0.38296 0.00846 0.33008 0.0
C1965 C 0.35086 0.02447 0.33797 0.0
C1966 C 0.34696 0.00355 0.35086 0.0
C1967 C 0.35602 0.06707 0.34004 0.0
C1968 C 0.31774 0.01627 0.3292 0.0
C1969 C 0.3291 0.99789 0.31815 0.0
C1970 C 0.30309 0.9872 0.30872 0.0
C1971 C 0.26477 0.99635 0.3105 0.0
C1972 C 0.25298 0.01659 0.3215 0.0
C1973 C 0.27989 0.02614 0.33099 0.0
H1974 H 0.19229 0.16729 0.58968 0.0
H1975 H 0.28761 0.1914 0.56495 0.0
H1976 H 0.29673 0.12293 0.56145 0.0
H1977 H 0.23119 0.08569 0.60487 0.0
H1978 H 0.18693 0.06084 0.60562 0.0
H1979 H 0.18762 0.11156 0.60586 0.0
H1980 H 0.14303 0.11338 0.58613 0.0
H1981 H 0.14195 0.06268 0.58589 0.0
H1982 H 0.15589 0.08837 0.57171 0.0
H1983 H 0.29679 0.05064 0.56163 0.0
H1984 H 0.28431 0.98226 0.5638 0.0
H1985 H 0.18833 0.00632 0.58817 0.0
C1986 C 0.21502 0.1582 0.58349 0.0
C1987 C 0.23919 0.18478 0.57756 0.0
C1988 C 0.26841 0.17166 0.56944 0.0
C1989 C 0.27399 0.13278 0.5675 0.0
C1990 C 0.24995 0.10735 0.57369 0.0
C1991 C 0.22079 0.11966 0.58141 0.0
C1992 C 0.19868 0.08685 0.58692 0.0
C1993 C 0.20127 0.08621 0.60169 0.0
C1994 C 0.15745 0.08789 0.58239 0.0
C1995 C 0.21972 0.054 0.58105 0.0
C1996 C 0.24951 0.06628 0.57357 0.0
C1997 C 0.2734 0.04084 0.56741 0.0
C1998 C 0.26628 1.00201 0.56877 0.0
C1999 C 0.23526 0.98889 0.57611 0.0
C2000 C 0.21197 0.01544 0.58238 0.0
H2001 H 0.26745 0.92583 0.81726 0.0
H2002 H 0.29345 0.04008 0.82913 0.0
H2003 H 0.22541 0.0534 0.83113 0.0
H2004 H 0.18926 0.94878 0.79771 0.0
H2005 H 0.1625 0.90739 0.80192 0.0
H2006 H 0.21317 0.90616 0.80239 0.0
H2007 H 0.21102 0.88465 0.82621 0.0
H2008 H 0.1603 0.88566 0.82579 0.0
H2009 H 0.18541 0.91238 0.83779 0.0
H2010 H 0.15332 0.0552 0.8304 0.0
H2011 H 0.08508 0.04491 0.82751 0.0
H2012 H 0.10697 0.92927 0.81624 0.0
C2013 C 0.25901 0.95367 0.82032 0.0
C2014 C 0.28618 0.98185 0.82302 0.0
C2015 C 0.27352 0.01776 0.82715 0.0
C2016 C 0.23478 0.02568 0.82824 0.0
C2017 C 0.20887 0.99741 0.82525 0.0
C2018 C 0.22057 0.96203 0.82145 0.0
C2019 C 0.18726 0.9368 0.81841 0.0
C2020 C 0.18811 0.92405 0.80427 0.0
C2021 C 0.18593 0.90287 0.8276 0.0
C2022 C 0.15489 0.96359 0.82089 0.0
C2023 C 0.16782 0.99839 0.82488 0.0
C2024 C 0.14298 0.02789 0.8274 0.0
C2025 C 0.10407 0.02168 0.82579 0.0
C2026 C 0.09011 0.9862 0.82165 0.0
C2027 C 0.11624 0.95686 0.81929 0.0
H2028 H 0.279 0.15613 0.4159 0.0
H2029 H 0.25469 0.16324 0.4566 0.0
H2030 H 0.24246 0.09459 0.45727 0.0
H2031 H 0.21048 0.07956 0.40808 0.0
H2032 H 0.24219 0.05712 0.39694 0.0
H2033 H 0.24423 0.1074 0.39925 0.0
H2034 H 0.31511 0.10237 0.40487 0.0
H2035 H 0.31324 0.05214 0.40265 0.0
H2036 H 0.32981 0.07137 0.41766 0.0
H2037 H 0.23787 0.02501 0.45398 0.0
H2038 H 0.24271 0.95884 0.44721 0.0
H2039 H 0.27114 0.99519 0.40851 0.0
C2040 C 0.27006 0.14316 0.42482 0.0
C2041 C 0.26707 0.16481 0.43619 0.0
C2042 C 0.25661 0.14697 0.44782 0.0
C2043 C 0.24962 0.1081 0.44826 0.0
C2044 C 0.25348 0.08725 0.43698 0.0
C2045 C 0.26344 0.10406 0.42546 0.0
C2046 C 0.2686 0.07454 0.41501 0.0
C2047 C 0.23965 0.07999 0.40418 0.0
C2048 C 0.3091 0.07515 0.40975 0.0
C2049 C 0.26079 0.03863 0.42254 0.0
C2050 C 0.25164 0.04673 0.43514 0.0
C2051 C 0.24453 0.01834 0.44409 0.0
C2052 C 0.24714 0.98067 0.4401 0.0
C2053 C 0.25704 0.97137 0.42727 0.0
C2054 C 0.26357 1.00104 0.41838 0.0
H2055 H 0.11484 0.97876 0.67225 0.0
H2056 H 0.07082 0.08706 0.68438 0.0
H2057 H 0.13592 0.11052 0.68709 0.0
H2058 H 0.19295 0.97607 0.69397 0.0
H2059 H 0.22442 0.95396 0.68267 0.0
H2060 H 0.17443 0.94597 0.68152 0.0
H2061 H 0.17556 0.96883 0.65786 0.0
H2062 H 0.22554 0.97717 0.65898 0.0
H2063 H 0.19447 0.01471 0.65414 0.0
H2064 H 0.20581 0.12209 0.68868 0.0
H2065 H 0.27516 0.11996 0.69031 0.0
H2066 H 0.27471 0.0046 0.67679 0.0
C2067 C 0.11867 0.00758 0.67534 0.0
C2068 C 0.08725 0.03111 0.67802 0.0
C2069 C 0.09407 0.06833 0.68234 0.0
C2070 C 0.13106 0.08201 0.68381 0.0
C2071 C 0.16119 0.05819 0.68093 0.0
C2072 C 0.15542 0.02168 0.67685 0.0
C2073 C 0.19274 1.00153 0.67474 0.0
C2074 C 0.19634 0.96737 0.68377 0.0
C2075 C 0.19734 0.98988 0.66059 0.0
C2076 C 0.22052 0.03238 0.67834 0.0
C2077 C 0.20158 0.06487 0.68182 0.0
C2078 C 0.22083 0.09686 0.68593 0.0
C2079 C 0.26024 0.09541 0.68681 0.0
C2080 C 0.2804 0.06228 0.68359 0.0
C2081 C 0.26018 0.03054 0.67906 0.0
H2082 H 0.23854 0.79328 0.93783 0.0
H2083 H 0.36015 0.80175 0.93529 0.0
H2084 H 0.35579 0.87098 0.93585 0.0
H2085 H 0.21813 0.87023 0.91757 0.0
H2086 H 0.17823 0.88686 0.92664 0.0
H2087 H 0.19083 0.8378 0.92715 0.0
H2088 H 0.1954 0.84078 0.952 0.0
H2089 H 0.1826 0.88986 0.95156 0.0
H2090 H 0.22549 0.87546 0.95942 0.0
H2091 H 0.33807 0.94011 0.93506 0.0
H2092 H 0.30799 1.00272 0.93321 0.0
H2093 H 0.19824 0.94976 0.937 0.0
C2094 C 0.26424 0.80971 0.93769 0.0
C2095 C 0.29971 0.79185 0.93647 0.0
C2096 C 0.33262 0.81459 0.93606 0.0
C2097 C 0.33047 0.85406 0.93645 0.0
C2098 C 0.29515 0.87082 0.93731 0.0
C2099 C 0.26259 0.84939 0.93803 0.0
C2100 C 0.22809 0.8746 0.93834 0.0
C2101 C 0.20231 0.86691 0.92673 0.0
C2102 C 0.20663 0.86989 0.95109 0.0
C2103 C 0.24631 0.91329 0.93742 0.0
C2104 C 0.28502 0.91058 0.93693 0.0
C2105 C 0.30773 0.94256 0.93558 0.0
C2106 C 0.2904 0.97815 0.93459 0.0
C2107 C 0.25065 0.98163 0.93488 0.0
C2108 C 0.22863 0.94849 0.93654 0.0
H2109 H 0.27502 0.98042 0.19452 0.0
H2110 H 0.228 0.03516 0.16076 0.0
H2111 H 0.29232 0.0462 0.15258 0.0
H2112 H 0.35179 0.04378 0.1987 0.0
H2113 H 0.38436 0.00807 0.20397 0.0
H2114 H 0.33464 1.00215 0.20674 0.0
H2115 H 0.33645 0.93809 0.19488 0.0
H2116 H 0.3862 0.94389 0.19203 0.0
H2117 H 0.35466 0.93587 0.17871 0.0
H2118 H 0.3623 0.05473 0.14863 0.0
H2119 H 0.4316 0.06087 0.14938 0.0
H2120 H 0.43375 1.00126 0.18575 0.0
C2121 C 0.27789 0.99479 0.18541 0.0
C2122 C 0.24574 0.00683 0.17833 0.0
C2123 C 0.25163 0.02514 0.16636 0.0
C2124 C 0.28826 0.03168 0.16164 0.0
C2125 C 0.31908 0.01973 0.16892 0.0
C2126 C 0.31426 1.00164 0.18056 0.0
C2127 C 0.35211 0.99287 0.18676 0.0
C2128 C 0.35594 0.01292 0.19981 0.0
C2129 C 0.35767 0.95014 0.18818 0.0
C2130 C 0.37909 0.00929 0.17688 0.0
C2131 C 0.35938 0.02449 0.16664 0.0
C2132 C 0.37791 0.04268 0.15657 0.0
C2133 C 0.41734 0.04608 0.15708 0.0
C2134 C 0.43827 0.03136 0.16756 0.0
C2135 C 0.41872 0.01212 0.17749 0.0
H2136 H 0.66248 0.99537 0.92317 0.0
H2137 H 0.78187 0.96979 0.92499 0.0
H2138 H 0.79582 0.03772 0.92742 0.0
H2139 H 0.67125 0.08076 0.90458 0.0
H2140 H 0.63331 0.10392 0.91293 0.0
H2141 H 0.63323 0.05342 0.91132 0.0
H2142 H 0.62791 0.04641 0.93608 0.0
H2143 H 0.62795 0.09686 0.93777 0.0
H2144 H 0.66231 0.06896 0.94626 0.0
H2145 H 0.79605 0.11019 0.92978 0.0
H2146 H 0.7823 0.17811 0.93248 0.0
H2147 H 0.66297 0.15466 0.92834 0.0
C2148 C 0.69168 0.00378 0.9239 0.0
C2149 C 0.72103 0.97677 0.9238 0.0
C2150 C 0.75874 0.98957 0.92512 0.0
C2151 C 0.76697 0.02825 0.92643 0.0
C2152 C 0.73725 0.05399 0.9264 0.0
C2153 C 0.70035 0.04209 0.92518 0.0
C2154 C 0.67327 0.075 0.92559 0.0
C2155 C 0.65149 0.07847 0.91285 0.0
C2156 C 0.64628 0.07159 0.93711 0.0
C2157 C 0.70054 0.10742 0.92732 0.0
C2158 C 0.73738 0.09495 0.92773 0.0
C2159 C 0.76726 0.12012 0.92942 0.0
C2160 C 0.7592 0.15878 0.93086 0.0
C2161 C 0.7215 0.17203 0.93067 0.0
C2162 C 0.69205 0.14571 0.92871 0.0
H2163 H 0.75955 0.96332 0.69266 0.0
H2164 H 0.78888 0.06306 0.67087 0.0
H2165 H 0.72119 0.07301 0.66574 0.0
H2166 H 0.68457 0.93108 0.67172 0.0
H2167 H 0.65627 0.91399 0.68489 0.0
H2168 H 0.70683 0.91483 0.68629 0.0
H2169 H 0.70125 0.95471 0.70707 0.0
H2170 H 0.65071 0.9542 0.70569 0.0
H2171 H 0.67552 0.99843 0.70667 0.0
H2172 H 0.64795 0.07336 0.66435 0.0
H2173 H 0.57908 0.06115 0.66524 0.0
H2174 H 0.59981 0.96061 0.6878 0.0
C2175 C 0.75182 0.98727 0.68679 0.0
C2176 C 0.77959 0.01258 0.6822 0.0
C2177 C 0.76818 0.04319 0.67438 0.0
C2178 C 0.72974 0.04914 0.67151 0.0
C2179 C 0.70301 0.02397 0.67644 0.0
C2180 C 0.71382 0.99337 0.68379 0.0
C2181 C 0.68009 0.9702 0.68797 0.0
C2182 C 0.68207 0.93016 0.68238 0.0
C2183 C 0.6767 0.96936 0.70272 0.0
C2184 C 0.64836 0.99257 0.68195 0.0
C2185 C 0.66189 0.02364 0.67539 0.0
C2186 C 0.63728 0.04888 0.66938 0.0
C2187 C 0.59814 0.04187 0.66999 0.0
C2188 C 0.58386 0.00968 0.67645 0.0
C2189 C 0.60962 0.98503 0.68254 0.0
H2190 H 0.80798 0.98966 0.43007 0.0
H2191 H 0.6929 0.0296 0.42696 0.0
H2192 H 0.66995 0.96396 0.42832 0.0
H2193 H 0.79655 0.90829 0.41057 0.0
H2194 H 0.82732 0.87898 0.42006 0.0
H2195 H 0.83448 0.92917 0.41965 0.0
H2196 H 0.83009 0.93152 0.4445 0.0
H2197 H 0.82272 0.8813 0.44499 0.0
H2198 H 0.78912 0.91243 0.45243 0.0
H2199 H 0.65974 0.89388 0.42852 0.0
H2200 H 0.66284 0.8244 0.42749 0.0
H2201 H 0.78431 0.82902 0.43085 0.0
C2202 C 0.77793 0.98466 0.42969 0.0
C2203 C 0.75222 0.015 0.42845 0.0
C2204 C 0.71311 0.00706 0.4281 0.0
C2205 C 0.69984 0.96979 0.42882 0.0
C2206 C 0.72596 0.94064 0.43 0.0
C2207 C 0.7642 0.94762 0.43047 0.0
C2208 C 0.78637 0.91109 0.43136 0.0
C2209 C 0.81273 0.90663 0.41972 0.0
C2210 C 0.80837 0.90897 0.44408 0.0
C2211 C 0.75466 0.88235 0.43106 0.0
C2212 C 0.72004 0.90012 0.43032 0.0
C2213 C 0.68664 0.87974 0.42924 0.0
C2214 C 0.68865 0.84033 0.42865 0.0
C2215 C 0.72372 0.82144 0.42923 0.0
C2216 C 0.75712 0.84277 0.43068 0.0
H2217 H 0.91713 0.9388 0.1781 0.0
H2218 H 0.94744 0.05686 0.17601 0.0
H2219 H 0.87963 0.07398 0.17667 0.0
H2220 H 0.8341 0.94326 0.15843 0.0
H2221 H 0.80807 0.90979 0.16799 0.0
H2222 H 0.8587 0.90712 0.16725 0.0
H2223 H 0.86262 0.91125 0.19209 0.0
H2224 H 0.81202 0.9134 0.19292 0.0
H2225 H 0.84006 0.94985 0.20029 0.0
H2226 H 0.80702 0.07741 0.17666 0.0
H2227 H 0.73799 0.06728 0.17892 0.0
H2228 H 0.7561 0.94731 0.18211 0.0
C2229 C 0.90955 0.96829 0.17775 0.0
C2230 C 0.93771 0.99653 0.17689 0.0
C2231 C 0.92648 0.03479 0.17672 0.0
C2232 C 0.88798 0.04469 0.17698 0.0
C2233 C 0.86095 0.01603 0.17757 0.0
C2234 C 0.87141 0.9786 0.17817 0.0
C2235 C 0.83721 0.95306 0.17924 0.0
C2236 C 0.83437 0.92676 0.16753 0.0
C2237 C 0.83803 0.93058 0.19189 0.0
C2238 C 0.80569 0.98183 0.1792 0.0
C2239 C 0.81983 0.01802 0.178 0.0
C2240 C 0.79584 0.04918 0.1776 0.0
C2241 C 0.75671 0.04323 0.17876 0.0
C2242 C 0.74191 0.00654 0.18046 0.0
C2243 C 0.76679 0.97554 0.18061 0.0
H2244 H 0.75166 0.81384 0.56937 0.0
H2245 H 0.75375 0.8103 0.61099 0.0
H2246 H 0.74782 0.87968 0.61177 0.0
H2247 H 0.80812 0.89603 0.56633 0.0
H2248 H 0.7831 0.91499 0.5527 0.0
H2249 H 0.78404 0.86489 0.55537 0.0
H2250 H 0.71113 0.86292 0.5553 0.0
H2251 H 0.70997 0.913 0.55251 0.0
H2252 H 0.68529 0.89313 0.56607 0.0
H2253 H 0.74461 0.95055 0.60796 0.0
H2254 H 0.74248 0.01596 0.5999 0.0
H2255 H 0.74569 0.97367 0.56071 0.0
C2256 C 0.74983 0.82767 0.57863 0.0
C2257 C 0.75261 0.80653 0.59015 0.0
C2258 C 0.75138 0.82586 0.60207 0.0
C2259 C 0.74809 0.86531 0.6026 0.0
C2260 C 0.74635 0.88546 0.5911 0.0
C2261 C 0.74705 0.86729 0.57932 0.0
C2262 C 0.74663 0.89576 0.56839 0.0
C2263 C 0.78261 0.89273 0.56022 0.0
C2264 C 0.71114 0.89091 0.56008 0.0
C2265 C 0.74564 0.93262 0.57585 0.0
C2266 C 0.74537 0.92612 0.58893 0.0
C2267 C 0.74471 0.9559 0.59771 0.0
C2268 C 0.74377 0.99318 0.59302 0.0
C2269 C 0.74363 1.00075 0.57961 0.0
C2270 C 0.74503 0.96959 0.57101 0.0
H2271 H 0.75931 0.00334 0.33006 0.0
H2272 H 0.75621 1.00176 0.28847 0.0
H2273 H 0.82555 0.99475 0.28779 0.0
H2274 H 0.8411 0.05946 0.33249 0.0
H2275 H 0.86018 0.03598 0.34641 0.0
H2276 H 0.81008 0.03634 0.34374 0.0
H2277 H 0.80852 0.96348 0.34468 0.0
H2278 H 0.85861 0.96291 0.3475 0.0
H2279 H 0.83894 0.93673 0.33425 0.0
H2280 H 0.89601 0.99237 0.29163 0.0
H2281 H 0.9615 0.99303 0.2997 0.0
H2282 H 0.91906 0.99916 0.33883 0.0
C2283 C 0.77329 1.00032 0.32087 0.0
C2284 C 0.75245 1.00233 0.3093 0.0
C2285 C 0.77174 0.99974 0.29741 0.0
C2286 C 0.81109 0.99587 0.29695 0.0
C2287 C 0.83105 0.99495 0.30848 0.0
C2288 C 0.81283 0.99694 0.32024 0.0
C2289 C 0.84121 0.9978 0.33117 0.0
C2290 C 0.83794 0.03458 0.3389 0.0
C2291 C 0.83653 0.96316 0.33991 0.0
C2292 C 0.87805 0.99623 0.32373 0.0
C2293 C 0.87161 0.99443 0.31066 0.0
C2294 C 0.90136 0.99356 0.30187 0.0
C2295 C 0.9386 0.99422 0.30655 0.0
C2296 C 0.94607 0.99588 0.31994 0.0
C2297 C 0.91498 0.99709 0.32856 0.0
H2298 H 0.79713 0.0078 0.06743 0.0
H2299 H 0.68731 0.97237 0.08122 0.0
H2300 H 0.67102 0.03863 0.08569 0.0
H2301 H 0.81154 0.08319 0.09001 0.0
H2302 H 0.83401 0.11382 0.07849 0.0
H2303 H 0.83725 0.06349 0.07667 0.0
H2304 H 0.80979 0.06896 0.05367 0.0
H2305 H 0.80615 0.1193 0.05546 0.0
H2306 H 0.76509 0.09198 0.05128 0.0
H2307 H 0.66656 0.10868 0.08861 0.0
H2308 H 0.67499 0.17747 0.09065 0.0
H2309 H 0.78658 0.16883 0.0741 0.0
C2310 C 0.76959 0.01391 0.07135 0.0
C2311 C 0.74364 0.98454 0.07411 0.0
C2312 C 0.70804 0.99402 0.07933 0.0
C2313 C 0.69836 0.03172 0.08175 0.0
C2314 C 0.72445 0.05986 0.0788 0.0
C2315 C 0.75938 0.05146 0.07374 0.0
C2316 C 0.7823 0.08709 0.07148 0.0
C2317 C 0.81841 0.08688 0.07965 0.0
C2318 C 0.79136 0.09212 0.05712 0.0
C2319 C 0.75484 0.11692 0.0761 0.0
C2320 C 0.72164 0.10045 0.08026 0.0
C2321 C 0.69237 0.12182 0.08534 0.0
C2322 C 0.69739 0.16085 0.08646 0.0
C2323 C 0.73131 0.17842 0.08248 0.0
C2324 C 0.76018 0.15617 0.07702 0.0
H2325 H 0.76862 0.079 0.82998 0.0
H2326 H 0.79252 0.95943 0.82784 0.0
H2327 H 0.724 0.94623 0.82654 0.0
H2328 H 0.68612 0.07175 0.8499 0.0
H2329 H 0.66214 0.10983 0.84188 0.0
H2330 H 0.71283 0.10929 0.84257 0.0
H2331 H 0.71598 0.11406 0.81771 0.0
H2332 H 0.66532 0.11467 0.81694 0.0
H2333 H 0.69137 0.0798 0.80805 0.0
H2334 H 0.6512 0.94695 0.82554 0.0
H2335 H 0.58318 0.9614 0.8242 0.0
H2336 H 0.60852 0.08056 0.82762 0.0
C2337 C 0.75965 0.04994 0.82938 0.0
C2338 C 0.78625 0.02025 0.8291 0.0
C2339 C 0.77291 0.98272 0.82799 0.0
C2340 C 0.73395 0.97496 0.82732 0.0
C2341 C 0.70859 0.00502 0.82773 0.0
C2342 C 0.72109 0.04177 0.8287 0.0
C2343 C 0.68851 0.06928 0.82883 0.0
C2344 C 0.68734 0.09133 0.84155 0.0
C2345 C 0.69042 0.09602 0.81719 0.0
C2346 C 0.65549 0.04243 0.82775 0.0
C2347 C 0.66746 0.00544 0.82716 0.0
C2348 C 0.64169 0.97586 0.82604 0.0
C2349 C 0.60296 0.98436 0.82538 0.0
C2350 C 0.59012 0.02222 0.82581 0.0
C2351 C 0.61709 0.05138 0.82712 0.0
H2352 H 0.728 0.33739 0.59606 0.0
H2353 H 0.75589 0.29353 0.55832 0.0
H2354 H 0.76388 0.35818 0.55022 0.0
H2355 H 0.67695 0.41945 0.5857 0.0
H2356 H 0.69554 0.45063 0.59782 0.0
H2357 H 0.69183 0.40087 0.60102 0.0
H2358 H 0.76292 0.39819 0.60642 0.0
H2359 H 0.76668 0.44804 0.60337 0.0
H2360 H 0.7967 0.41554 0.59489 0.0
H2361 H 0.76268 0.42615 0.5455 0.0
H2362 H 0.76412 0.49459 0.54484 0.0
H2363 H 0.74452 0.49895 0.58611 0.0
C2364 C 0.7361 0.34151 0.58613 0.0
C2365 C 0.74127 0.31004 0.57781 0.0
C2366 C 0.7521 0.31676 0.56491 0.0
C2367 C 0.75639 0.35353 0.56018 0.0
C2368 C 0.75048 0.38373 0.56851 0.0
C2369 C 0.74144 0.37837 0.58128 0.0
C2370 C 0.7382 0.41635 0.58815 0.0
C2371 C 0.69825 0.42216 0.59349 0.0
C2372 C 0.7679 0.41972 0.59884 0.0
C2373 C 0.74639 0.44372 0.57715 0.0
C2374 C 0.75273 0.42387 0.56593 0.0
C2375 C 0.75891 0.44199 0.55429 0.0
C2376 C 0.76 0.48134 0.55408 0.0
C2377 C 0.75608 0.50308 0.5655 0.0
C2378 C 0.74829 0.48367 0.57721 0.0
H2379 H 0.75751 0.54628 0.80894 0.0
H2380 H 0.73436 0.4724 0.84123 0.0
H2381 H 0.80285 0.47047 0.84618 0.0
H2382 H 0.84093 0.50071 0.79843 0.0
H2383 H 0.86375 0.54394 0.7937 0.0
H2384 H 0.81318 0.54049 0.79332 0.0
H2385 H 0.80808 0.59894 0.80815 0.0
H2386 H 0.85866 0.60261 0.80857 0.0
H2387 H 0.83243 0.59914 0.82337 0.0
H2388 H 0.87582 0.47577 0.84683 0.0
H2389 H 0.9436 0.48883 0.8436 0.0
H2390 H 0.91631 0.55704 0.81021 0.0
C2391 C 0.76657 0.52931 0.817 0.0
C2392 C 0.74036 0.50905 0.8246 0.0
C2393 C 0.75379 0.48822 0.83529 0.0
C2394 C 0.79267 0.48686 0.83812 0.0
C2395 C 0.81771 0.50665 0.83021 0.0
C2396 C 0.80492 0.52759 0.8199 0.0
C2397 C 0.83701 0.54607 0.81269 0.0
C2398 C 0.83881 0.53194 0.79871 0.0
C2399 C 0.83385 0.58925 0.81323 0.0
C2400 C 0.87018 0.53216 0.82045 0.0
C2401 C 0.85874 0.50954 0.83055 0.0
C2402 C 0.8849 0.49348 0.83894 0.0
C2403 C 0.9235 0.50091 0.83697 0.0
C2404 C 0.93577 0.52418 0.82666 0.0
C2405 C 0.90836 0.53969 0.81832 0.0
H2406 H 0.68372 0.65881 0.05914 0.0
H2407 H 0.7623 0.68721 0.08959 0.0
H2408 H 0.77872 0.61965 0.09182 0.0
H2409 H 0.64917 0.57319 0.07303 0.0
H2410 H 0.64512 0.54958 0.05775 0.0
H2411 H 0.64037 0.59999 0.05861 0.0
H2412 H 0.69363 0.60773 0.04175 0.0
H2413 H 0.69855 0.55735 0.04084 0.0
H2414 H 0.73881 0.58623 0.04465 0.0
H2415 H 0.78529 0.54722 0.09074 0.0
H2416 H 0.78294 0.47892 0.08594 0.0
H2417 H 0.69878 0.50006 0.05656 0.0
C2418 C 0.70408 0.65102 0.06641 0.0
C2419 C 0.72142 0.67853 0.07428 0.0
C2420 C 0.7487 0.66681 0.0834 0.0
C2421 C 0.75807 0.62843 0.08478 0.0
C2422 C 0.74005 0.60209 0.07691 0.0
C2423 C 0.71372 0.61309 0.06787 0.0
C2424 C 0.69842 0.57972 0.06048 0.0
C2425 C 0.65574 0.57537 0.0626 0.0
C2426 C 0.70793 0.58297 0.04608 0.0
C2427 C 0.72007 0.54801 0.06676 0.0
C2428 C 0.74396 0.56124 0.07623 0.0
C2429 C 0.76664 0.53671 0.08332 0.0
C2430 C 0.76497 0.49786 0.08058 0.0
C2431 C 0.74086 0.48383 0.0708 0.0
C2432 C 0.71806 0.50957 0.06392 0.0
H2433 H 0.75578 0.52464 0.35268 0.0
H2434 H 0.78124 0.49945 0.31274 0.0
H2435 H 0.71304 0.49708 0.308 0.0
H2436 H 0.67674 0.46246 0.35546 0.0
H2437 H 0.65113 0.49381 0.3659 0.0
H2438 H 0.70185 0.49425 0.36592 0.0
H2439 H 0.70165 0.56582 0.36095 0.0
H2440 H 0.65094 0.56566 0.36096 0.0
H2441 H 0.67625 0.58296 0.34713 0.0
H2442 H 0.64061 0.49788 0.30782 0.0
H2443 H 0.57235 0.50275 0.31216 0.0
H2444 H 0.59654 0.52338 0.35249 0.0
C2445 C 0.74745 0.51828 0.34293 0.0
C2446 C 0.77438 0.51226 0.33311 0.0
C2447 C 0.76146 0.50466 0.32045 0.0
C2448 C 0.72267 0.50299 0.31766 0.0
C2449 C 0.69706 0.5088 0.32765 0.0
C2450 C 0.7091 0.51624 0.34002 0.0
C2451 C 0.67629 0.52141 0.34911 0.0
C2452 C 0.67653 0.49118 0.35972 0.0
C2453 C 0.67629 0.56133 0.35487 0.0
C2454 C 0.64371 0.5158 0.33994 0.0
C2455 C 0.65606 0.50861 0.32759 0.0
C2456 C 0.63071 0.50329 0.31749 0.0
C2457 C 0.59186 0.50585 0.32008 0.0
C2458 C 0.57864 0.51357 0.33269 0.0
C2459 C 0.60527 0.518 0.3427 0.0
H2460 H 0.8127 0.49536 0.93813 0.0
H2461 H 0.6982 0.47005 0.92644 0.0
H2462 H 0.687 0.53797 0.9225 0.0
H2463 H 0.79203 0.57838 0.95533 0.0
H2464 H 0.83441 0.60269 0.95058 0.0
H2465 H 0.83392 0.55207 0.95146 0.0
H2466 H 0.85597 0.54804 0.92774 0.0
H2467 H 0.85674 0.59869 0.9268 0.0
H2468 H 0.82941 0.57189 0.91541 0.0
H2469 H 0.68746 0.61057 0.92159 0.0
H2470 H 0.70002 0.67879 0.92281 0.0
H2471 H 0.81492 0.65531 0.93474 0.0
C2472 C 0.78526 0.50395 0.93468 0.0
C2473 C 0.75631 0.47713 0.93262 0.0
C2474 C 0.72099 0.48982 0.92795 0.0
C2475 C 0.71432 0.52846 0.92577 0.0
C2476 C 0.74332 0.55417 0.92821 0.0
C2477 C 0.77821 0.54224 0.93245 0.0
C2478 C 0.80451 0.57527 0.93468 0.0
C2479 C 0.81693 0.5772 0.94885 0.0
C2480 C 0.83867 0.57335 0.92562 0.0
C2481 C 0.77892 0.60787 0.93124 0.0
C2482 C 0.74373 0.59528 0.92751 0.0
C2483 C 0.71512 0.62057 0.92434 0.0
C2484 C 0.72266 0.65951 0.92502 0.0
C2485 C 0.75863 0.67317 0.92884 0.0
C2486 C 0.78701 0.64651 0.93187 0.0
H2487 H 0.75963 0.555 0.20407 0.0
H2488 H 0.7855 0.47337 0.17429 0.0
H2489 H 0.71789 0.46953 0.1688 0.0
H2490 H 0.67468 0.51092 0.21486 0.0
H2491 H 0.65116 0.55488 0.21806 0.0
H2492 H 0.70168 0.55204 0.2192 0.0
H2493 H 0.70812 0.6069 0.20288 0.0
H2494 H 0.65761 0.60987 0.20167 0.0
H2495 H 0.6856 0.60325 0.18739 0.0
H2496 H 0.64594 0.474 0.16697 0.0
H2497 H 0.57782 0.48645 0.16886 0.0
H2498 H 0.60006 0.56319 0.20048 0.0
C2499 C 0.75136 0.53605 0.19644 0.0
C2500 C 0.77837 0.51446 0.18965 0.0
C2501 C 0.76576 0.49059 0.17958 0.0
C2502 C 0.72724 0.48805 0.17643 0.0
C2503 C 0.70149 0.50953 0.18342 0.0
C2504 C 0.71316 0.53306 0.19322 0.0
C2505 C 0.68005 0.55282 0.19945 0.0
C2506 C 0.6767 0.542 0.21374 0.0
C2507 C 0.68304 0.59575 0.19774 0.0
C2508 C 0.64777 0.53675 0.19166 0.0
C2509 C 0.66059 0.51187 0.18244 0.0
C2510 C 0.63571 0.49344 0.17418 0.0
C2511 C 0.59686 0.5006 0.17538 0.0
C2512 C 0.58298 0.52594 0.18482 0.0
C2513 C 0.60921 0.54412 0.19302 0.0
H2514 H 0.70595 0.33724 0.45304 0.0
H2515 H 0.77384 0.31286 0.41935 0.0
H2516 H 0.78471 0.38107 0.41624 0.0
H2517 H 0.66083 0.41979 0.44025 0.0
H2518 H 0.66069 0.44383 0.45551 0.0
H2519 H 0.65888 0.39317 0.45501 0.0
H2520 H 0.71806 0.38971 0.46959 0.0
H2521 H 0.72003 0.44034 0.47014 0.0
H2522 H 0.76043 0.41398 0.46478 0.0
H2523 H 0.78756 0.45394 0.41695 0.0
H2524 H 0.7835 0.52219 0.42189 0.0
H2525 H 0.71178 0.49663 0.45454 0.0
C2526 C 0.7228 0.34593 0.4449 0.0
C2527 C 0.73885 0.31919 0.43643 0.0
C2528 C 0.7614 0.33242 0.42608 0.0
C2529 C 0.76757 0.37127 0.42418 0.0
C2530 C 0.751 0.39674 0.43269 0.0
C2531 C 0.72909 0.38441 0.44284 0.0
C2532 C 0.71444 0.41708 0.45071 0.0
C2533 C 0.67115 0.41855 0.45034 0.0
C2534 C 0.72913 0.41515 0.46462 0.0
C2535 C 0.73164 0.44985 0.44348 0.0
C2536 C 0.75258 0.43782 0.43307 0.0
C2537 C 0.77116 0.46352 0.42508 0.0
C2538 C 0.76855 0.5023 0.42791 0.0
C2539 C 0.74764 0.51507 0.43868 0.0
C2540 C 0.72868 0.48816 0.44639 0.0
H2541 H 0.75741 0.53463 0.68158 0.0
H2542 H 0.75393 0.42089 0.69652 0.0
H2543 H 0.82297 0.41567 0.69402 0.0
H2544 H 0.83562 0.51931 0.65816 0.0
H2545 H 0.85607 0.56493 0.6612 0.0
H2546 H 0.80596 0.55816 0.6628 0.0
H2547 H 0.80919 0.58356 0.68612 0.0
H2548 H 0.85932 0.58996 0.68465 0.0
H2549 H 0.84051 0.56155 0.69752 0.0
H2550 H 0.89301 0.4247 0.69181 0.0
H2551 H 0.95871 0.44607 0.68875 0.0
H2552 H 0.91765 0.55451 0.67556 0.0
C2553 C 0.77121 0.50832 0.6839 0.0
C2554 C 0.75037 0.47788 0.68906 0.0
C2555 C 0.76945 0.44428 0.69242 0.0
C2556 C 0.80864 0.44114 0.69107 0.0
C2557 C 0.82865 0.47195 0.68635 0.0
C2558 C 0.81063 0.50482 0.68268 0.0
C2559 C 0.83922 0.53438 0.67858 0.0
C2560 C 0.8339 0.5448 0.66434 0.0
C2561 C 0.83691 0.56943 0.68723 0.0
C2562 C 0.87591 0.51318 0.68069 0.0
C2563 C 0.86917 0.47719 0.68514 0.0
C2564 C 0.89863 0.45274 0.6882 0.0
C2565 C 0.93595 0.46523 0.68653 0.0
C2566 C 0.94372 0.50189 0.68183 0.0
C2567 C 0.91299 0.52606 0.67893 0.0
H2568 H 0.19312 0.64619 0.42416 0.0
H2569 H 0.30485 0.67292 0.43818 0.0
H2570 H 0.32185 0.60513 0.43731 0.0
H2571 H 0.18039 0.55992 0.44086 0.0
H2572 H 0.1565 0.53658 0.4278 0.0
H2573 H 0.15369 0.587 0.42937 0.0
H2574 H 0.17924 0.5951 0.40618 0.0
H2575 H 0.18183 0.54468 0.4045 0.0
H2576 H 0.22314 0.57316 0.40177 0.0
H2577 H 0.32442 0.53286 0.43632 0.0
H2578 H 0.31467 0.46421 0.43302 0.0
H2579 H 0.20275 0.48614 0.41832 0.0
C2580 C 0.22119 0.63771 0.42701 0.0
C2581 C 0.24765 0.66467 0.43132 0.0
C2582 C 0.28429 0.65266 0.4348 0.0
C2583 C 0.29406 0.61424 0.43439 0.0
C2584 C 0.26705 0.58826 0.43026 0.0
C2585 C 0.23157 0.59968 0.42641 0.0
C2586 C 0.20787 0.5665 0.42209 0.0
C2587 C 0.17253 0.56226 0.43054 0.0
C2588 C 0.19742 0.57008 0.40778 0.0
C2589 C 0.23522 0.53444 0.4243 0.0
C2590 C 0.26914 0.5474 0.42913 0.0
C2591 C 0.2981 0.52256 0.43242 0.0
C2592 C 0.29231 0.48366 0.4306 0.0
C2593 C 0.25808 0.47007 0.42537 0.0
C2594 C 0.22934 0.49592 0.42219 0.0
H2595 H 0.10132 0.46464 0.16502 0.0
H2596 H 0.07865 0.51192 0.20263 0.0
H2597 H 0.14729 0.51354 0.20716 0.0
H2598 H 0.17994 0.40565 0.17467 0.0
H2599 H 0.20518 0.41344 0.15986 0.0
H2600 H 0.15448 0.41503 0.16001 0.0
H2601 H 0.15657 0.482 0.15008 0.0
H2602 H 0.20727 0.48077 0.15003 0.0
H2603 H 0.18296 0.51854 0.15807 0.0
H2604 H 0.21989 0.51357 0.20675 0.0
H2605 H 0.28818 0.50595 0.20235 0.0
H2606 H 0.26184 0.45775 0.16515 0.0
C2607 C 0.11078 0.47511 0.17425 0.0
C2608 C 0.08462 0.48819 0.18347 0.0
C2609 C 0.09812 0.50137 0.19548 0.0
C2610 C 0.13708 0.50267 0.19808 0.0
C2611 C 0.16215 0.49033 0.18862 0.0
C2612 C 0.14936 0.4763 0.17701 0.0
C2613 C 0.18173 0.46465 0.16841 0.0
C2614 C 0.18024 0.42217 0.16557 0.0
C2615 C 0.18214 0.48789 0.15591 0.0
C2616 C 0.21491 0.47449 0.17692 0.0
C2617 C 0.20323 0.48955 0.18851 0.0
C2618 C 0.22921 0.50154 0.19774 0.0
C2619 C 0.26794 0.4974 0.19513 0.0
C2620 C 0.28035 0.48107 0.18345 0.0
C2621 C 0.25327 0.46983 0.17424 0.0
H2622 H 0.19097 0.31111 0.92999 0.0
H2623 H 0.30212 0.2769 0.94249 0.0
H2624 H 0.3182 0.344 0.94687 0.0
H2625 H 0.2186 0.39288 0.91339 0.0
H2626 H 0.17771 0.41983 0.9179 0.0
H2627 H 0.17468 0.36934 0.9168 0.0
H2628 H 0.15078 0.36578 0.94033 0.0
H2629 H 0.15335 0.41633 0.94146 0.0
H2630 H 0.17801 0.38744 0.95296 0.0
H2631 H 0.32271 0.41735 0.9481 0.0
H2632 H 0.31349 0.48662 0.94784 0.0
H2633 H 0.19916 0.47039 0.93428 0.0
C2634 C 0.21864 0.31761 0.93376 0.0
C2635 C 0.24539 0.28871 0.93585 0.0
C2636 C 0.2811 0.29849 0.94093 0.0
C2637 C 0.29049 0.33657 0.94334 0.0
C2638 C 0.26369 0.36448 0.94074 0.0
C2639 C 0.22828 0.35515 0.93622 0.0
C2640 C 0.20446 0.38986 0.93391 0.0
C2641 C 0.19322 0.39315 0.91965 0.0
C2642 C 0.16959 0.38984 0.94269 0.0
C2643 C 0.23193 0.42051 0.93769 0.0
C2644 C 0.26605 0.4056 0.94158 0.0
C2645 C 0.29593 0.42907 0.94516 0.0
C2646 C 0.29055 0.46848 0.94489 0.0
C2647 C 0.2555 0.4842 0.94114 0.0
C2648 C 0.22608 0.45954 0.93744 0.0
H2649 H 0.41574 0.45428 0.67624 0.0
H2650 H 0.45855 0.56022 0.69114 0.0
H2651 H 0.3934 0.58193 0.69462 0.0
H2652 H 0.33408 0.49321 0.65955 0.0
H2653 H 0.30378 0.45416 0.66357 0.0
H2654 H 0.35378 0.44693 0.66185 0.0
H2655 H 0.35677 0.41856 0.68478 0.0
H2656 H 0.30678 0.42544 0.68652 0.0
H2657 H 0.33876 0.44531 0.69816 0.0
H2658 H 0.32401 0.59188 0.69703 0.0
H2659 H 0.25489 0.58812 0.69933 0.0
H2660 H 0.2554 0.47648 0.68259 0.0
C2661 C 0.41155 0.48224 0.68009 0.0
C2662 C 0.44272 0.50554 0.68338 0.0
C2663 C 0.43553 0.54162 0.68865 0.0
C2664 C 0.39848 0.55435 0.69056 0.0
C2665 C 0.36861 0.5308 0.68716 0.0
C2666 C 0.37464 0.49543 0.68208 0.0
C2667 C 0.33738 0.47523 0.6797 0.0
C2668 C 0.33194 0.4669 0.66531 0.0
C2669 C 0.33478 0.439 0.68777 0.0
C2670 C 0.30946 0.50469 0.68435 0.0
C2671 C 0.32826 0.53659 0.68852 0.0
C2672 C 0.30904 0.56715 0.69372 0.0
C2673 C 0.26979 0.5648 0.69497 0.0
C2674 C 0.2498 0.53222 0.69105 0.0
C2675 C 0.2699 0.50201 0.68542 0.0
H2676 H 0.17243 0.37132 0.06383 0.0
H2677 H 0.26903 0.34003 0.08711 0.0
H2678 H 0.28129 0.40718 0.09155 0.0
H2679 H 0.21553 0.44905 0.04883 0.0
H2680 H 0.17324 0.47706 0.04839 0.0
H2681 H 0.17002 0.4265 0.04822 0.0
H2682 H 0.12676 0.42839 0.0683 0.0
H2683 H 0.12988 0.47903 0.06854 0.0
H2684 H 0.14265 0.45226 0.08261 0.0
H2685 H 0.28488 0.47965 0.09241 0.0
H2686 H 0.2805 0.54865 0.08875 0.0
H2687 H 0.18312 0.53076 0.06436 0.0
C2688 C 0.19616 0.37823 0.0699 0.0
C2689 C 0.21959 0.3498 0.07511 0.0
C2690 C 0.25013 0.36081 0.08311 0.0
C2691 C 0.25748 0.39909 0.08566 0.0
C2692 C 0.23411 0.42625 0.08017 0.0
C2693 C 0.20407 0.41615 0.07244 0.0
C2694 C 0.18432 0.45045 0.06705 0.0
C2695 C 0.1859 0.45077 0.05225 0.0
C2696 C 0.14349 0.45265 0.07192 0.0
C2697 C 0.20828 0.48153 0.07273 0.0
C2698 C 0.23662 0.46726 0.08042 0.0
C2699 C 0.26263 0.49102 0.08645 0.0
C2700 C 0.25988 0.53018 0.08438 0.0
C2701 C 0.23165 0.5451 0.0762 0.0
C2702 C 0.2053 0.52026 0.07053 0.0
H2703 H 0.41667 0.53352 0.8542 0.0
H2704 H 0.44385 0.49118 0.81624 0.0
H2705 H 0.37623 0.4804 0.81196 0.0
H2706 H 0.34043 0.4663 0.8604 0.0
H2707 H 0.31234 0.50007 0.86906 0.0
H2708 H 0.36294 0.504 0.86912 0.0
H2709 H 0.35754 0.5724 0.86062 0.0
H2710 H 0.30695 0.56847 0.86038 0.0
H2711 H 0.33197 0.58136 0.84595 0.0
H2712 H 0.3048 0.47946 0.81116 0.0
H2713 H 0.23593 0.47968 0.8151 0.0
H2714 H 0.25534 0.51759 0.85413 0.0
C2715 C 0.40834 0.52167 0.84504 0.0
C2716 C 0.43563 0.51329 0.83553 0.0
C2717 C 0.42362 0.49756 0.82369 0.0
C2718 C 0.38519 0.4916 0.82115 0.0
C2719 C 0.35899 0.50088 0.83062 0.0
C2720 C 0.3701 0.51483 0.84244 0.0
C2721 C 0.3363 0.52158 0.85108 0.0
C2722 C 0.33812 0.49648 0.86312 0.0
C2723 C 0.33301 0.56344 0.85472 0.0
C2724 C 0.30446 0.50967 0.84223 0.0
C2725 C 0.31809 0.49835 0.8304 0.0
C2726 C 0.29389 0.48781 0.82045 0.0
C2727 C 0.25484 0.48826 0.82272 0.0
C2728 C 0.24033 0.49851 0.83491 0.0
C2729 C 0.26562 0.50935 0.84476 0.0
H2730 H 0.30339 0.50961 0.55372 0.0
H2731 H 0.2551 0.48271 0.59105 0.0
H2732 H 0.24952 0.55031 0.59574 0.0
H2733 H 0.35932 0.5873 0.56454 0.0
H2734 H 0.35229 0.61444 0.55008 0.0
H2735 H 0.35101 0.56378 0.54944 0.0
H2736 H 0.28457 0.56636 0.53915 0.0
H2737 H 0.28561 0.61704 0.53977 0.0
H2738 H 0.24744 0.5916 0.54723 0.0
H2739 H 0.24941 0.62216 0.59643 0.0
H2740 H 0.25728 0.69084 0.59326 0.0
H2741 H 0.30738 0.6701 0.5559 0.0
C2742 C 0.2918 0.51751 0.56293 0.0
C2743 C 0.27957 0.49001 0.57193 0.0
C2744 C 0.26427 0.50255 0.58381 0.0
C2745 C 0.26109 0.54117 0.58663 0.0
C2746 C 0.27348 0.56726 0.57754 0.0
C2747 C 0.28868 0.55588 0.56595 0.0
C2748 C 0.3007 0.58946 0.55791 0.0
C2749 C 0.34336 0.58869 0.55534 0.0
C2750 C 0.27823 0.59121 0.54527 0.0
C2751 C 0.29015 0.62156 0.56681 0.0
C2752 C 0.27419 0.60826 0.57805 0.0
C2753 C 0.26194 0.6328 0.58766 0.0
C2754 C 0.26637 0.67182 0.58576 0.0
C2755 C 0.28321 0.68607 0.57438 0.0
C2756 C 0.29501 0.66031 0.5648 0.0
H2757 H 0.09798 0.57232 0.30784 0.0
H2758 H 0.07343 0.50446 0.34164 0.0
H2759 H 0.14137 0.49279 0.34445 0.0
H2760 H 0.17319 0.51759 0.29575 0.0
H2761 H 0.2001 0.55778 0.29043 0.0
H2762 H 0.14951 0.56041 0.29113 0.0
H2763 H 0.15415 0.61908 0.30589 0.0
H2764 H 0.20478 0.6167 0.30521 0.0
H2765 H 0.18114 0.6164 0.32055 0.0
H2766 H 0.21347 0.48829 0.3433 0.0
H2767 H 0.28148 0.49157 0.33825 0.0
H2768 H 0.25686 0.56514 0.30596 0.0
C2769 C 0.1064 0.55532 0.31596 0.0
C2770 C 0.07966 0.53951 0.32451 0.0
C2771 C 0.09284 0.51683 0.33483 0.0
C2772 C 0.13158 0.51012 0.33657 0.0
C2773 C 0.15694 0.5264 0.32795 0.0
C2774 C 0.14474 0.54863 0.31788 0.0
C2775 C 0.17735 0.56314 0.30994 0.0
C2776 C 0.17488 0.54886 0.29599 0.0
C2777 C 0.17947 0.60639 0.31044 0.0
C2778 C 0.20997 0.54535 0.31702 0.0
C2779 C 0.19783 0.52426 0.3274 0.0
C2780 C 0.22321 0.50492 0.33523 0.0
C2781 C 0.26188 0.50713 0.33232 0.0
C2782 C 0.27484 0.52854 0.32167 0.0
C2783 C 0.24822 0.54802 0.31405 0.0
H2784 H 0.57059 0.28462 0.07847 0.0
H2785 H 0.58631 0.3141 0.03835 0.0
H2786 H 0.51941 0.29805 0.03397 0.0
H2787 H 0.51042 0.20532 0.07298 0.0
H2788 H 0.48204 0.21416 0.08702 0.0
H2789 H 0.53073 0.22838 0.08678 0.0
H2790 H 0.51114 0.29695 0.09217 0.0
H2791 H 0.46238 0.28296 0.09241 0.0
H2792 H 0.47754 0.32073 0.08202 0.0
H2793 H 0.45029 0.28022 0.03442 0.0
H2794 H 0.3852 0.25991 0.03938 0.0
H2795 H 0.41778 0.23976 0.07906 0.0
C2796 C 0.5598 0.288 0.06878 0.0
C2797 C 0.58302 0.30095 0.05875 0.0
C2798 C 0.56853 0.30425 0.04612 0.0
C2799 C 0.53076 0.29531 0.04358 0.0
C2800 C 0.50846 0.2828 0.05377 0.0
C2801 C 0.5226 0.27891 0.06609 0.0
C2802 C 0.49334 0.2643 0.07534 0.0
C2803 C 0.50482 0.22575 0.08085 0.0
C2804 C 0.48565 0.29296 0.08612 0.0
C2805 C 0.46026 0.2609 0.06634 0.0
C2806 C 0.46935 0.27173 0.05395 0.0
C2807 C 0.4429 0.27142 0.04406 0.0
C2808 C 0.40614 0.2597 0.04696 0.0
C2809 C 0.39648 0.2484 0.05961 0.0
C2810 C 0.42408 0.24886 0.06935 0.0
H2811 H 0.98408 0.3501 0.31065 0.0
H2812 H 0.98329 0.36715 0.35216 0.0
H2813 H 0.99896 0.30107 0.35539 0.0
H2814 H 0.95132 0.2561 0.3093 0.0
H2815 H 0.98451 0.2405 0.29733 0.0
H2816 H 0.97014 0.28912 0.29778 0.0
H2817 H 0.0398 0.31035 0.29967 0.0
H2818 H 0.05441 0.26184 0.29898 0.0
H2819 H 0.06887 0.29104 0.31227 0.0
H2820 H 0.0065 0.23266 0.3544 0.0
H2821 H 0.02455 0.16794 0.34961 0.0
H2822 H 0.03711 0.1973 0.30913 0.0
C2823 C 0.98757 0.34029 0.32043 0.0
C2824 C 0.98014 0.36387 0.33112 0.0
C2825 C 0.98601 0.34952 0.34374 0.0
C2826 C 0.99545 0.31194 0.34573 0.0
C2827 C 1.00082 0.28931 0.33504 0.0
C2828 C 0.99877 0.30308 0.32265 0.0
C2829 C 0.00976 0.27308 0.31299 0.0
C2830 C 0.97696 0.26419 0.30381 0.0
C2831 C 0.04533 0.28478 0.30554 0.0
C2832 C 0.01753 0.24034 0.32197 0.0
C2833 C 0.01108 0.25034 0.33459 0.0
C2834 C 0.01326 0.22468 0.34462 0.0
C2835 C 0.02406 0.18795 0.34177 0.0
C2836 C 0.03434 0.1775 0.32906 0.0
C2837 C 0.03005 0.20406 0.31898 0.0
H2838 H 0.0863 0.76331 0.55579 0.0
H2839 H 0.13135 0.71437 0.59086 0.0
H2840 H 0.07477 0.67459 0.59285 0.0
H2841 H 0.99493 0.77019 0.56541 0.0
H2842 H 0.97377 0.75756 0.55025 0.0
H2843 H 0.01987 0.77849 0.55056 0.0
H2844 H 0.04686 0.72173 0.53791 0.0
H2845 H 1.00064 0.70064 0.53748 0.0
H2846 H 0.03987 0.67464 0.54397 0.0
H2847 H 0.01011 0.64888 0.59301 0.0
H2848 H 0.94252 0.63652 0.59091 0.0
H2849 H 0.94183 0.69564 0.55423 0.0
C2850 C 0.08483 0.74341 0.56367 0.0
C2851 C 0.11303 0.74218 0.57323 0.0
C2852 C 0.10967 0.71634 0.58356 0.0
C2853 C 0.07791 0.69327 0.58469 0.0
C2854 C 0.05022 0.69583 0.57526 0.0
C2855 C 0.05358 0.7198 0.56484 0.0
C2856 C 0.01851 0.71923 0.55659 0.0
C2857 C 1.00073 0.7587 0.55566 0.0
C2858 C 0.02699 0.70308 0.54319 0.0
C2859 C 0.99424 0.69263 0.56437 0.0
C2860 C 0.01319 0.67921 0.57503 0.0
C2861 C 0.99525 0.65805 0.58448 0.0
C2862 C 0.95671 0.65097 0.58313 0.0
C2863 C 0.93652 0.66471 0.57231 0.0
C2864 C 0.9561 0.68479 0.56265 0.0
H2865 H 0.51286 0.84024 0.79599 0.0
H2866 H 0.5606 0.88532 0.8311 0.0
H2867 H 0.60196 0.8299 0.83297 0.0
H2868 H 0.50295 0.75235 0.80627 0.0
H2869 H 0.51503 0.72795 0.79165 0.0
H2870 H 0.49705 0.77509 0.79089 0.0
H2871 H 0.55608 0.79664 0.7782 0.0
H2872 H 0.5742 0.74924 0.7788 0.0
H2873 H 0.60233 0.78785 0.78469 0.0
H2874 H 0.62428 0.76574 0.83422 0.0
H2875 H 0.62877 0.69742 0.83451 0.0
H2876 H 0.57186 0.69234 0.79746 0.0
C2877 C 0.53323 0.83888 0.80373 0.0
C2878 C 0.53394 0.86658 0.8134 0.0
C2879 C 0.55991 0.864 0.82365 0.0
C2880 C 0.58367 0.8329 0.82471 0.0
C2881 C 0.58124 0.80497 0.81535 0.0
C2882 C 0.5571 0.8078 0.80494 0.0
C2883 C 0.55582 0.77135 0.7974 0.0
C2884 C 0.51533 0.75579 0.79652 0.0
C2885 C 0.57316 0.77659 0.78398 0.0
C2886 C 0.58054 0.74684 0.8058 0.0
C2887 C 0.59557 0.76711 0.81591 0.0
C2888 C 0.61418 0.74973 0.82606 0.0
C2889 C 0.61674 0.71054 0.82607 0.0
C2890 C 0.60117 0.68887 0.8159 0.0
C2891 C 0.58409 0.70769 0.80541 0.0
H2892 H 0.56391 0.68497 0.43599 0.0
H2893 H 0.58964 0.70353 0.47631 0.0
H2894 H 0.52547 0.72913 0.47957 0.0
H2895 H 0.51523 0.76672 0.43093 0.0
H2896 H 0.48077 0.74679 0.42017 0.0
H2897 H 0.52675 0.72596 0.42139 0.0
H2898 H 0.49701 0.66136 0.42715 0.0
H2899 H 0.45077 0.68179 0.42572 0.0
H2900 H 0.46425 0.65817 0.44036 0.0
H2901 H 0.46017 0.75806 0.47769 0.0
H2902 H 0.39926 0.78593 0.47096 0.0
H2903 H 0.41803 0.74562 0.43209 0.0
C2904 C 0.55578 0.69303 0.44564 0.0
C2905 C 0.58161 0.69183 0.45593 0.0
C2906 C 0.5702 0.70422 0.46828 0.0
C2907 C 0.53384 0.71863 0.47023 0.0
C2908 C 0.5094 0.72014 0.45975 0.0
C2909 C 0.51988 0.70725 0.44773 0.0
C2910 C 0.48969 0.71405 0.4378 0.0
C2911 C 0.50398 0.73992 0.42694 0.0
C2912 C 0.47453 0.67661 0.43245 0.0
C2913 C 0.46078 0.73357 0.44602 0.0
C2914 C 0.47235 0.73672 0.45867 0.0
C2915 C 0.45064 0.75533 0.46785 0.0
C2916 C 0.4162 0.77104 0.46395 0.0
C2917 C 0.40423 0.76818 0.45099 0.0
C2918 C 0.42674 0.74884 0.44202 0.0
H2919 H 0.45501 0.19432 0.71042 0.0
H2920 H 0.55888 0.13094 0.71344 0.0
H2921 H 0.59252 0.18862 0.72001 0.0
H2922 H 0.49108 0.26713 0.69489 0.0
H2923 H 0.46345 0.30369 0.70233 0.0
H2924 H 0.44555 0.25651 0.70169 0.0
H2925 H 0.43756 0.25611 0.72647 0.0
H2926 H 0.4554 0.30364 0.72719 0.0
H2927 H 0.47725 0.26708 0.73663 0.0
H2928 H 0.61722 0.25366 0.72076 0.0
H2929 H 0.6305 0.32066 0.71613 0.0
H2930 H 0.51084 0.34214 0.71267 0.0
C2931 C 0.48458 0.19246 0.71291 0.0
C2932 C 0.5044 0.15837 0.71148 0.0
C2933 C 0.54309 0.15676 0.71469 0.0
C2934 C 0.5624 0.18938 0.71844 0.0
C2935 C 0.54242 0.22309 0.71912 0.0
C2936 C 0.50416 0.22473 0.71663 0.0
C2937 C 0.49033 0.26493 0.71602 0.0
C2938 C 0.47155 0.27354 0.70296 0.0
C2939 C 0.46356 0.27344 0.72725 0.0
C2940 C 0.52724 0.28569 0.71755 0.0
C2941 C 0.55684 0.26114 0.71967 0.0
C2942 C 0.59421 0.2733 0.71953 0.0
C2943 C 0.60153 0.31125 0.71682 0.0
C2944 C 0.57159 0.33638 0.71424 0.0
C2945 C 0.53407 0.32367 0.71505 0.0
H2946 H 0.90652 0.25524 0.9304 0.0
H2947 H 0.88534 0.25897 0.97158 0.0
H2948 H 0.94659 0.22818 0.97546 0.0
H2949 H 0.9544 0.16848 0.92897 0.0
H2950 H 0.98827 0.1843 0.91723 0.0
H2951 H 0.94203 0.205 0.91768 0.0
H2952 H 0.97151 0.27151 0.92015 0.0
H2953 H 0.01785 0.25107 0.91953 0.0
H2954 H 0.00458 0.28018 0.93298 0.0
H2955 H 0.00995 0.19534 0.97463 0.0
H2956 H 0.07205 0.16823 0.96928 0.0
H2957 H 0.05302 0.19459 0.92896 0.0
C2958 C 0.91475 0.25036 0.94029 0.0
C2959 C 0.89084 0.25955 0.95067 0.0
C2960 C 0.90274 0.25158 0.96341 0.0
C2961 C 0.93759 0.23431 0.96574 0.0
C2962 C 0.96033 0.22575 0.95524 0.0
C2963 C 0.94956 0.23406 0.94279 0.0
C2964 C 0.97957 0.2236 0.93318 0.0
C2965 C 0.96519 0.19355 0.92371 0.0
C2966 C 0.99425 0.25868 0.92605 0.0
C2967 C 0.00889 0.20773 0.94215 0.0
C2968 C 0.99726 0.20877 0.95482 0.0
C2969 C 0.01954 0.19475 0.96475 0.0
C2970 C 0.05483 0.1796 0.96162 0.0
C2971 C 0.06758 0.17912 0.94868 0.0
C2972 C 0.04408 0.19354 0.9389 0.0
H2973 H 0.99635 0.67265 0.18274 0.0
H2974 H 0.97973 0.65584 0.2237 0.0
H2975 H 0.01182 0.7164 0.22807 0.0
H2976 H 0.08788 0.71456 0.18474 0.0
H2977 H 0.07941 0.74761 0.1719 0.0
H2978 H 0.05544 0.70287 0.17201 0.0
H2979 H 0.99079 0.73668 0.17086 0.0
H2980 H 0.0146 0.78144 0.17051 0.0
H2981 H 0.9795 0.77216 0.18263 0.0
H2982 H 0.04452 0.77928 0.22782 0.0
H2983 H 0.07226 0.84165 0.22289 0.0
H2984 H 0.06715 0.81608 0.18212 0.0
C2985 C 0.99898 0.68195 0.19262 0.0
C2986 C 0.98549 0.65979 0.20289 0.0
C2987 C 0.9901 0.67248 0.21571 0.0
C2988 C 0.00829 0.7067 0.21827 0.0
C2989 C 0.02179 0.7276 0.20791 0.0
C2990 C 0.01713 0.71582 0.19534 0.0
C2991 C 0.03353 0.74371 0.18591 0.0
C2992 C 0.06599 0.72612 0.17819 0.0
C2993 C 1.00277 0.75943 0.17696 0.0
C2994 C 0.0478 0.7733 0.19513 0.0
C2995 C 0.041 0.76345 0.20778 0.0
C2996 C 0.05024 0.78722 0.21796 0.0
C2997 C 0.06596 0.82246 0.21508 0.0
C2998 C 0.0722 0.83334 0.20215 0.0
C2999 C 0.06365 0.80808 0.19211 0.0
H3000 H 0.45279 0.6319 0.93399 0.0
H3001 H 0.43783 0.63569 0.97542 0.0
H3002 H 0.50009 0.6658 0.97762 0.0
H3003 H 0.55992 0.61642 0.93507 0.0
H3004 H 0.56547 0.64481 0.92081 0.0
H3005 H 0.52383 0.6163 0.92286 0.0
H3006 H 0.48282 0.67573 0.91944 0.0
H3007 H 0.52403 0.70473 0.91787 0.0
H3008 H 0.48918 0.71577 0.92989 0.0
H3009 H 0.55419 0.70951 0.97469 0.0
H3010 H 0.60357 0.75308 0.96737 0.0
H3011 H 0.58765 0.71386 0.92811 0.0
C3012 C 0.46331 0.63695 0.94361 0.0
C3013 C 0.44019 0.63173 0.95452 0.0
C3014 C 0.45483 0.63996 0.96689 0.0
C3015 C 0.49022 0.65691 0.96825 0.0
C3016 C 0.51106 0.66421 0.95718 0.0
C3017 C 0.49881 0.65322 0.94513 0.0
C3018 C 0.52492 0.66729 0.93467 0.0
C3019 C 0.54472 0.63424 0.92796 0.0
C3020 C 0.50397 0.69236 0.92491 0.0
C3021 C 0.55229 0.68998 0.94265 0.0
C3022 C 0.54392 0.68777 0.9556 0.0
C3023 C 0.56216 0.71019 0.96464 0.0
C3024 C 0.59023 0.73492 0.96036 0.0
C3025 C 0.60021 0.73674 0.94715 0.0
C3026 C 0.58092 0.7136 0.93826 0.0
H3027 H 0.04584 0.69108 0.68495 0.0
H3028 H 0.05135 0.67343 0.72619 0.0
H3029 H 0.01988 0.73487 0.7297 0.0
H3030 H 0.06341 0.79077 0.68515 0.0
H3031 H 0.03112 0.79984 0.67213 0.0
H3032 H 0.05473 0.75512 0.67317 0.0
H3033 H 0.98999 0.72117 0.67267 0.0
H3034 H 0.96615 0.76584 0.67185 0.0
H3035 H 0.95481 0.73296 0.6845 0.0
H3036 H 0.98879 0.79864 0.72848 0.0
H3037 H 0.96156 0.86058 0.72266 0.0
H3038 H 0.97509 0.83397 0.68222 0.0
C3039 C 0.04105 0.70049 0.69473 0.0
C3040 C 0.05137 0.67807 0.70533 0.0
C3041 C 0.04373 0.69059 0.71798 0.0
C3042 C 0.02585 0.72524 0.72004 0.0
C3043 C 0.01556 0.74649 0.70933 0.0
C3044 C 0.02296 0.73458 0.69693 0.0
C3045 C 0.00877 0.76226 0.68704 0.0
C3046 C 0.04145 0.77793 0.6789 0.0
C3047 C 0.97811 0.74448 0.67852 0.0
C3048 C 0.99254 0.79191 0.6958 0.0
C3049 C 0.99664 0.78237 0.70862 0.0
C3050 C 0.98514 0.80629 0.71848 0.0
C3051 C 0.96973 0.84124 0.7151 0.0
C3052 C 0.96586 0.85154 0.70201 0.0
C3053 C 0.97687 0.8263 0.69229 0.0
H3054 H 0.92399 0.24333 0.428 0.0
H3055 H 0.91249 0.20519 0.46761 0.0
H3056 H 0.97706 0.22689 0.47203 0.0
H3057 H 0.01566 0.20529 0.42454 0.0
H3058 H 0.03098 0.24199 0.41374 0.0
H3059 H 0.98206 0.22884 0.41433 0.0
H3060 H 0.96415 0.29826 0.41913 0.0
H3061 H 0.01312 0.31153 0.4187 0.0
H3062 H 0.98509 0.3219 0.43271 0.0
H3063 H 0.04382 0.25322 0.47194 0.0
H3064 H 0.10823 0.27402 0.46685 0.0
H3065 H 0.07753 0.28032 0.42634 0.0
C3066 C 0.93468 0.23881 0.43761 0.0
C3067 C 0.91246 0.22248 0.44742 0.0
C3068 C 0.92818 0.21846 0.45992 0.0
C3069 C 0.96506 0.23048 0.46254 0.0
C3070 C 0.98617 0.24566 0.45251 0.0
C3071 C 0.97167 0.24911 0.44025 0.0
C3072 C 1.00103 0.26247 0.4308 0.0
C3073 C 0.00784 0.23288 0.42024 0.0
C3074 C 0.99019 0.30082 0.425 0.0
C3075 C 0.03446 0.26596 0.43967 0.0
C3076 C 0.02525 0.25712 0.4522 0.0
C3077 C 0.05151 0.25962 0.46211 0.0
C3078 C 0.08829 0.27108 0.45905 0.0
C3079 C 0.09881 0.27871 0.44611 0.0
C3080 C 0.0711 0.27585 0.43638 0.0
H3081 H 0.57373 0.19308 0.21163 0.0
H3082 H 0.63859 0.19682 0.17609 0.0
H3083 H 0.62993 0.26449 0.17504 0.0
H3084 H 0.50388 0.2462 0.19978 0.0
H3085 H 0.49235 0.27106 0.21437 0.0
H3086 H 0.51374 0.22534 0.21524 0.0
H3087 H 0.56798 0.25241 0.22914 0.0
H3088 H 0.54652 0.29838 0.2284 0.0
H3089 H 0.59469 0.29219 0.22335 0.0
H3090 H 0.6039 0.32768 0.17464 0.0
H3091 H 0.56073 0.38189 0.17489 0.0
H3092 H 0.50649 0.33751 0.20909 0.0
C3093 C 0.58683 0.20798 0.20373 0.0
C3094 C 0.60724 0.18875 0.19406 0.0
C3095 C 0.62395 0.2101 0.18398 0.0
C3096 C 0.61898 0.24901 0.1832 0.0
C3097 C 0.59687 0.26649 0.19244 0.0
C3098 C 0.58101 0.24676 0.20255 0.0
C3099 C 0.55267 0.27072 0.20973 0.0
C3100 C 0.51336 0.25223 0.20977 0.0
C3101 C 0.5663 0.27892 0.22347 0.0
C3102 C 0.55339 0.30599 0.20154 0.0
C3103 C 0.58001 0.30332 0.19188 0.0
C3104 C 0.58347 0.33051 0.1823 0.0
C3105 C 0.55857 0.3609 0.18243 0.0
C3106 C 0.53028 0.36351 0.19197 0.0
C3107 C 0.52833 0.3363 0.20183 0.0
H3108 H 0.55778 0.17801 0.5493 0.0
H3109 H 0.55242 0.12369 0.5868 0.0
H3110 H 0.48496 0.1354 0.58763 0.0
H3111 H 0.50935 0.25302 0.55891 0.0
H3112 H 0.4845 0.26206 0.5441 0.0
H3113 H 0.52881 0.23786 0.54376 0.0
H3114 H 0.4979 0.18184 0.53175 0.0
H3115 H 0.4533 0.2061 0.53197 0.0
H3116 H 0.45692 0.1592 0.5385 0.0
H3117 H 0.42295 0.16428 0.58722 0.0
H3118 H 0.37179 0.21081 0.58595 0.0
H3119 H 0.41842 0.25416 0.55031 0.0
C3120 C 0.54249 0.16785 0.5576 0.0
C3121 C 0.56107 0.14966 0.56792 0.0
C3122 C 0.53939 0.13662 0.57851 0.0
C3123 C 0.50069 0.14331 0.57913 0.0
C3124 C 0.4839 0.16345 0.5692 0.0
C3125 C 0.50407 0.17561 0.55862 0.0
C3126 C 0.48151 0.20331 0.55065 0.0
C3127 C 0.50227 0.24128 0.54929 0.0
C3128 C 0.47183 0.1866 0.53743 0.0
C3129 C 0.44671 0.20683 0.55895 0.0
C3130 C 0.44808 0.18245 0.56932 0.0
C3131 C 0.42116 0.18304 0.57904 0.0
C3132 C 0.39256 0.20989 0.57833 0.0
C3133 C 0.39161 0.23626 0.56811 0.0
C3134 C 0.41833 0.23394 0.55812 0.0
H3135 H 0.55789 0.8382 0.32047 0.0
H3136 H 0.56791 0.84985 0.27908 0.0
H3137 H 0.53579 0.78833 0.27624 0.0
H3138 H 0.57294 0.73745 0.32214 0.0
H3139 H 0.53909 0.73129 0.33489 0.0
H3140 H 0.5644 0.77505 0.33341 0.0
H3141 H 0.50092 0.81103 0.33259 0.0
H3142 H 0.4754 0.76731 0.33383 0.0
H3143 H 0.46652 0.79871 0.32054 0.0
H3144 H 0.50214 0.72579 0.27814 0.0
H3145 H 0.47092 0.66627 0.2846 0.0
H3146 H 0.48186 0.69787 0.32472 0.0
C3147 C 0.55415 0.82741 0.31081 0.0
C3148 C 0.56585 0.84829 0.29998 0.0
C3149 C 0.55933 0.83394 0.28748 0.0
C3150 C 0.5411 0.7992 0.28579 0.0
C3151 C 0.52936 0.77961 0.29672 0.0
C3152 C 0.53577 0.79318 0.30898 0.0
C3153 C 0.5196 0.76738 0.31913 0.0
C3154 C 0.55087 0.75186 0.32791 0.0
C3155 C 0.48878 0.78731 0.32698 0.0
C3156 C 0.50316 0.73697 0.31069 0.0
C3157 C 0.50907 0.74444 0.29779 0.0
C3158 C 0.49723 0.71972 0.2882 0.0
C3159 C 0.47953 0.68613 0.29195 0.0
C3160 C 0.47372 0.6779 0.30513 0.0
C3161 C 0.48523 0.70392 0.31457 0.0
H3162 H 0.05853 0.7281 0.08125 0.0
H3163 H 0.08928 0.73199 0.04084 0.0
H3164 H 0.02353 0.74813 0.03526 0.0
H3165 H 0.96584 0.68571 0.07654 0.0
H3166 H 0.9452 0.71248 0.08946 0.0
H3167 H 0.9943 0.69987 0.09007 0.0
H3168 H 0.01212 0.77025 0.09285 0.0
H3169 H 0.96317 0.78311 0.09215 0.0
H3170 H 0.99625 0.80412 0.08111 0.0
H3171 H 0.95514 0.76711 0.03437 0.0
H3172 H 0.8893 0.78669 0.0382 0.0
H3173 H 0.90396 0.76624 0.07908 0.0
C3174 C 0.05139 0.73149 0.07119 0.0
C3175 C 0.07896 0.72866 0.06147 0.0
C3176 C 0.06861 0.73439 0.04845 0.0
C3177 C 0.03135 0.74329 0.04519 0.0
C3178 C 0.00495 0.74601 0.05505 0.0
C3179 C 0.0145 0.74002 0.06777 0.0
C3180 C 0.98128 0.74558 0.07662 0.0
C3181 C 0.97106 0.70871 0.08357 0.0
C3182 C 0.98866 0.77768 0.08624 0.0
C3183 C 0.95162 0.75631 0.06691 0.0
C3184 C 0.96567 0.75631 0.05451 0.0
C3185 C 0.94368 0.76677 0.04401 0.0
C3186 C 0.90634 0.77769 0.04627 0.0
C3187 C 0.89158 0.77801 0.05894 0.0
C3188 C 0.91454 0.76675 0.06931 0.0
H3189 H 0.08096 0.32309 0.8244 0.0
H3190 H 0.99055 0.37283 0.80185 0.0
H3191 H 0.96827 0.30962 0.79606 0.0
H3192 H 0.09685 0.23934 0.80486 0.0
H3193 H 0.10328 0.20933 0.81868 0.0
H3194 H 0.11593 0.25844 0.81954 0.0
H3195 H 0.07239 0.26678 0.83936 0.0
H3196 H 0.05977 0.21775 0.83859 0.0
H3197 H 0.02353 0.25324 0.83821 0.0
H3198 H 0.95333 0.24157 0.79365 0.0
H3199 H 0.94303 0.17322 0.79665 0.0
H3200 H 0.03915 0.16837 0.82234 0.0
C3201 C 0.0565 0.32089 0.81823 0.0
C3202 C 0.03803 0.35321 0.81344 0.0
C3203 C 0.00612 0.34872 0.80534 0.0
C3204 C 0.99304 0.31286 0.80203 0.0
C3205 C 0.01181 0.28175 0.807 0.0
C3206 C 0.04255 0.28537 0.81505 0.0
C3207 C 0.05521 0.2476 0.82018 0.0
C3208 C 0.09519 0.23813 0.81553 0.0
C3209 C 0.05254 0.24628 0.83496 0.0
C3210 C 0.02623 0.2223 0.81396 0.0
C3211 C 1.00199 0.24246 0.80616 0.0
C3212 C 0.97224 0.22539 0.79965 0.0
C3213 C 0.96668 0.1867 0.80137 0.0
C3214 C 0.99037 0.16597 0.8097 0.0
C3215 C 0.02076 0.18384 0.81592 0.0
loop_
_geom_bond_atom_site_label_1
_geom_bond_atom_site_label_2
_geom_bond_distance
_geom_bond_site_symmetry_2
_ccdc_geom_bond_type
C0 C1 1.351 . S
C0 N3 1.368 . S
C0 H5 0.931 . S
C1 C0 1.351 . S
C1 N2 1.373 . S
C1 H29 0.930 . S
N2 C1 1.373 . S
N2 C4 1.340 . S
N3 C0 1.368 . S
N3 C4 1.321 . S
N3 Co6 2.135 . S
C4 N2 1.340 . S
C4 N3 1.321 . S
C4 H28 0.930 . S
H5 C0 0.931 . S
Co6 N3 2.135 . S
Co6 N9 2.121 . S
Co6 O14 2.055 . S
Co6 O17 2.039 . S
Co6 N20 2.140 . S
C7 O8 1.227 . S
C7 O17 1.265 . S
O8 C7 1.227 . S
N9 Co6 2.121 . S
N9 C11 1.375 . S
N9 C12 1.313 . S
C10 C11 1.338 . S
C10 N13 1.377 . S
C10 H30 0.930 . S
C11 N9 1.375 . S
C11 C10 1.338 . S
C11 H15 0.931 . S
C12 N9 1.313 . S
C12 N13 1.344 . S
C12 H16 0.930 . S
N13 C10 1.377 . S
N13 C12 1.344 . S
O14 Co6 2.055 . S
O14 C18 1.253 . S
H15 C11 0.931 . S
H16 C12 0.930 . S
O17 Co6 2.039 . S
O17 C7 1.265 . S
C18 O14 1.253 . S
C18 O19 1.227 . S
O19 C18 1.227 . S
N20 Co6 2.140 . S
N20 C23 1.346 . S
N20 C24 1.345 . S
C21 C22 1.387 . S
C21 C25 1.391 . S
C22 C21 1.387 . S
C22 C23 1.369 . S
C22 H31 0.929 . S
C23 N20 1.346 . S
C23 C22 1.369 . S
C23 H26 0.928 . S
C24 N20 1.345 . S
C24 C25 1.371 . S
C24 H27 0.931 . S
C25 C21 1.391 . S
C25 C24 1.371 . S
C25 H32 0.930 . S
H26 C23 0.928 . S
H27 C24 0.931 . S
H28 C4 0.930 . S
H29 C1 0.930 . S
H30 C10 0.930 . S
H31 C22 0.929 . S
H32 C25 0.930 . S
C33 C34 1.351 . S
C33 N36 1.368 . S
C33 H38 0.931 . S
C34 C33 1.351 . S
C34 N35 1.373 . S
C34 H62 0.930 . S
N35 C34 1.373 . S
N35 C37 1.340 . S
N36 C33 1.368 . S
N36 C37 1.321 . S
N36 Co39 2.135 1_655 S
C37 N35 1.340 . S
C37 N36 1.321 . S
C37 H61 0.930 . S
H38 C33 0.931 . S
Co39 N36 2.135 1_455 S
Co39 N42 2.121 1_565 S
Co39 O47 2.055 . S
Co39 O50 2.039 . S
Co39 N53 2.140 1_565 S
C40 O41 1.227 1_565 S
C40 O50 1.265 . S
O41 C40 1.227 1_545 S
N42 Co39 2.121 1_545 S
N42 C44 1.375 . S
N42 C45 1.316 . S
C43 C44 1.338 . S
C43 N46 1.377 . S
C43 H63 0.930 . S
C44 N42 1.375 . S
C44 C43 1.338 . S
C44 H48 0.931 . S
C45 N42 1.316 . S
C45 N46 1.349 . S
C45 H49 0.924 1_545 S
N46 C43 1.377 . S
N46 C45 1.349 . S
O47 Co39 2.055 . S
O47 C51 1.253 . S
H48 C44 0.931 . S
H49 C45 0.924 1_565 S
O50 Co39 2.039 . S
O50 C40 1.265 . S
C51 O47 1.253 . S
C51 O52 1.227 . S
O52 C51 1.227 . S
N53 Co39 2.140 1_545 S
N53 C56 1.346 . S
N53 C57 1.345 . S
C54 C55 1.387 . S
C54 C58 1.391 . S
C55 C54 1.387 . S
C55 C56 1.369 . S
C55 H64 0.929 1_455 S
C56 N53 1.346 . S
C56 C55 1.369 . S
C56 H59 0.928 1_455 S
C57 N53 1.345 . S
C57 C58 1.371 . S
C57 H60 0.931 . S
C58 C54 1.391 . S
C58 C57 1.371 . S
C58 H65 0.930 . S
H59 C56 0.928 1_655 S
H60 C57 0.931 . S
H61 C37 0.930 . S
H62 C34 0.930 . S
H63 C43 0.930 . S
H64 C55 0.929 1_655 S
H65 C58 0.930 . S
C66 C67 1.351 . S
C66 N69 1.368 . S
C66 H71 0.931 . S
C67 C66 1.351 . S
C67 N68 1.373 . S
C67 H95 0.930 . S
N68 C67 1.373 . S
N68 C70 1.340 . S
N69 C66 1.368 . S
N69 C70 1.321 . S
N69 Co72 2.135 . S
C70 N68 1.340 . S
C70 N69 1.321 . S
C70 H94 0.930 . S
H71 C66 0.931 . S
Co72 N69 2.135 . S
Co72 N75 2.121 . S
Co72 O80 2.055 . S
Co72 O83 2.039 . S
Co72 N86 2.140 . S
C73 O74 1.227 . S
C73 O83 1.265 . S
O74 C73 1.227 . S
N75 Co72 2.121 . S
N75 C77 1.375 . S
N75 C78 1.313 . S
C76 C77 1.338 . S
C76 N79 1.377 . S
C76 H96 0.930 . S
C77 N75 1.375 . S
C77 C76 1.338 . S
C77 H81 0.931 . S
C78 N75 1.313 . S
C78 N79 1.344 . S
C78 H82 0.930 . S
N79 C76 1.377 . S
N79 C78 1.344 . S
O80 Co72 2.055 . S
O80 C84 1.253 . S
H81 C77 0.931 . S
H82 C78 0.930 . S
O83 Co72 2.039 . S
O83 C73 1.265 . S
C84 O80 1.253 . S
C84 O85 1.227 . S
O85 C84 1.227 . S
N86 Co72 2.140 . S
N86 C89 1.346 . S
N86 C90 1.345 . S
C87 C88 1.387 . S
C87 C91 1.391 . S
C88 C87 1.387 . S
C88 C89 1.369 . S
C88 H97 0.929 . S
C89 N86 1.346 . S
C89 C88 1.369 . S
C89 H92 0.928 . S
C90 N86 1.345 . S
C90 C91 1.371 . S
C90 H93 0.931 . S
C91 C87 1.391 . S
C91 C90 1.371 . S
C91 H98 0.930 . S
H92 C89 0.928 . S
H93 C90 0.931 . S
H94 C70 0.930 . S
H95 C67 0.930 . S
H96 C76 0.930 . S
H97 C88 0.929 . S
H98 C91 0.930 . S
C99 C100 1.351 . S
C99 N102 1.368 . S
C99 H104 0.931 . S
C100 C99 1.351 . S
C100 N101 1.373 . S
C100 H128 0.930 . S
N101 C100 1.373 . S
N101 C103 1.340 . S
N102 C99 1.368 . S
N102 C103 1.321 . S
N102 Co105 2.135 . S
C103 N101 1.340 . S
C103 N102 1.321 . S
C103 H127 0.930 . S
H104 C99 0.931 . S
Co105 N102 2.135 . S
Co105 N108 2.121 1_545 S
Co105 O113 2.055 . S
Co105 O116 2.039 . S
Co105 N119 2.140 1_545 S
C106 O107 1.227 1_545 S
C106 O116 1.265 . S
O107 C106 1.227 1_565 S
N108 Co105 2.121 1_565 S
N108 C110 1.375 . S
N108 C111 1.316 . S
C109 C110 1.338 . S
C109 N112 1.377 . S
C109 H129 0.930 . S
C110 N108 1.375 . S
C110 C109 1.338 . S
C110 H114 0.931 . S
C111 N108 1.316 . S
C111 N112 1.349 . S
C111 H115 0.923 1_565 S
N112 C109 1.377 . S
N112 C111 1.349 . S
O113 Co105 2.055 . S
O113 C117 1.253 . S
H114 C110 0.931 . S
H115 C111 0.923 1_545 S
O116 Co105 2.039 . S
O116 C106 1.265 . S
C117 O113 1.253 . S
C117 O118 1.227 . S
O118 C117 1.227 . S
N119 Co105 2.140 1_565 S
N119 C122 1.346 . S
N119 C123 1.345 . S
C120 C121 1.387 . S
C120 C124 1.391 . S
C121 C120 1.387 . S
C121 C122 1.369 . S
C121 H130 0.929 . S
C122 N119 1.346 . S
C122 C121 1.369 . S
C122 H125 0.928 . S
C123 N119 1.345 . S
C123 C124 1.371 . S
C123 H126 0.931 . S
C124 C120 1.391 . S
C124 C123 1.371 . S
C124 H131 0.930 . S
H125 C122 0.928 . S
H126 C123 0.931 . S
H127 C103 0.930 . S
H128 C100 0.930 . S
H129 C109 0.930 . S
H130 C121 0.929 . S
H131 C124 0.930 . S
C132 C133 1.351 . S
C132 N135 1.368 . S
C132 H137 0.931 . S
C133 C132 1.351 . S
C133 N134 1.373 . S
C133 H161 0.930 . S
N134 C133 1.373 . S
N134 C136 1.340 . S
N135 C132 1.368 . S
N135 C136 1.321 . S
N135 Co138 2.135 . S
C136 N134 1.340 . S
C136 N135 1.321 . S
C136 H160 0.930 . S
H137 C132 0.931 . S
Co138 N135 2.135 . S
Co138 N141 2.121 . S
Co138 O146 2.055 . S
Co138 O149 2.039 . S
Co138 N152 2.140 . S
C139 O140 1.227 . S
C139 O149 1.265 . S
O140 C139 1.227 . S
N141 Co138 2.121 . S
N141 C143 1.375 . S
N141 C144 1.313 . S
C142 C143 1.338 . S
C142 N145 1.377 . S
C142 H162 0.930 . S
C143 N141 1.375 . S
C143 C142 1.338 . S
C143 H147 0.931 . S
C144 N141 1.313 . S
C144 N145 1.344 . S
C144 H148 0.930 . S
N145 C142 1.377 . S
N145 C144 1.344 . S
O146 Co138 2.055 . S
O146 C150 1.253 . S
H147 C143 0.931 . S
H148 C144 0.930 . S
O149 Co138 2.039 . S
O149 C139 1.265 . S
C150 O146 1.253 . S
C150 O151 1.227 . S
O151 C150 1.227 . S
N152 Co138 2.140 . S
N152 C155 1.346 . S
N152 C156 1.345 . S
C153 C154 1.387 . S
C153 C157 1.391 . S
C154 C153 1.387 . S
C154 C155 1.369 . S
C154 H163 0.929 . S
C155 N152 1.346 . S
C155 C154 1.369 . S
C155 H158 0.928 . S
C156 N152 1.345 . S
C156 C157 1.371 . S
C156 H159 0.931 . S
C157 C153 1.391 . S
C157 C156 1.371 . S
C157 H164 0.930 . S
H158 C155 0.928 . S
H159 C156 0.931 . S
H160 C136 0.930 . S
H161 C133 0.930 . S
H162 C142 0.930 . S
H163 C154 0.929 . S
H164 C157 0.930 . S
C165 C166 1.351 . S
C165 N168 1.368 . S
C165 H170 0.931 . S
C166 C165 1.351 . S
C166 N167 1.373 . S
C166 H194 0.930 . S
N167 C166 1.373 . S
N167 C169 1.340 . S
N168 C165 1.368 . S
N168 C169 1.321 . S
N168 Co171 2.135 . S
C169 N167 1.340 . S
C169 N168 1.321 . S
C169 H193 0.930 . S
H170 C165 0.931 . S
Co171 N168 2.135 . S
Co171 N174 2.121 1_565 S
Co171 O179 2.055 . S
Co171 O182 2.039 . S
Co171 N185 2.140 1_565 S
C172 O173 1.227 1_565 S
C172 O182 1.265 . S
O173 C172 1.227 1_545 S
N174 Co171 2.121 1_545 S
N174 C176 1.375 . S
N174 C177 1.316 . S
C175 C176 1.338 . S
C175 N178 1.377 . S
C175 H195 0.930 . S
C176 N174 1.375 . S
C176 C175 1.338 . S
C176 H180 0.931 . S
C177 N174 1.316 . S
C177 N178 1.349 . S
C177 H181 0.923 1_545 S
N178 C175 1.377 . S
N178 C177 1.349 . S
O179 Co171 2.055 . S
O179 C183 1.253 . S
H180 C176 0.931 . S
H181 C177 0.923 1_565 S
O182 Co171 2.039 . S
O182 C172 1.265 . S
C183 O179 1.253 . S
C183 O184 1.227 . S
O184 C183 1.227 . S
N185 Co171 2.140 1_545 S
N185 C188 1.346 . S
N185 C189 1.345 . S
C186 C187 1.387 . S
C186 C190 1.391 . S
C187 C186 1.387 . S
C187 C188 1.369 . S
C187 H196 0.929 . S
C188 N185 1.346 . S
C188 C187 1.369 . S
C188 H191 0.928 . S
C189 N185 1.345 . S
C189 C190 1.371 . S
C189 H192 0.931 . S
C190 C186 1.391 . S
C190 C189 1.371 . S
C190 H197 0.930 . S
H191 C188 0.928 . S
H192 C189 0.931 . S
H193 C169 0.930 . S
H194 C166 0.930 . S
H195 C175 0.930 . S
H196 C187 0.929 . S
H197 C190 0.930 . S
C198 C199 1.351 . S
C198 N201 1.368 . S
C198 H203 0.931 . S
C199 C198 1.351 . S
C199 N200 1.373 . S
C199 H227 0.930 . S
N200 C199 1.373 . S
N200 C202 1.340 . S
N201 C198 1.368 . S
N201 C202 1.321 . S
N201 Co204 2.135 . S
C202 N200 1.340 . S
C202 N201 1.321 . S
C202 H226 0.930 . S
H203 C198 0.931 . S
Co204 N201 2.135 . S
Co204 N207 2.121 . S
Co204 O212 2.055 . S
Co204 O215 2.039 . S
Co204 N218 2.140 . S
C205 O206 1.227 . S
C205 O215 1.265 . S
O206 C205 1.227 . S
N207 Co204 2.121 . S
N207 C209 1.375 . S
N207 C210 1.313 . S
C208 C209 1.338 . S
C208 N211 1.377 . S
C208 H228 0.930 . S
C209 N207 1.375 . S
C209 C208 1.338 . S
C209 H213 0.931 . S
C210 N207 1.313 . S
C210 N211 1.344 . S
C210 H214 0.930 . S
N211 C208 1.377 . S
N211 C210 1.344 . S
O212 Co204 2.055 . S
O212 C216 1.253 . S
H213 C209 0.931 . S
H214 C210 0.930 . S
O215 Co204 2.039 . S
O215 C205 1.265 . S
C216 O212 1.253 . S
C216 O217 1.227 . S
O217 C216 1.227 . S
N218 Co204 2.140 . S
N218 C221 1.346 . S
N218 C222 1.345 . S
C219 C220 1.387 . S
C219 C223 1.391 . S
C220 C219 1.387 . S
C220 C221 1.369 . S
C220 H229 0.929 . S
C221 N218 1.346 . S
C221 C220 1.369 . S
C221 H224 0.928 . S
C222 N218 1.345 . S
C222 C223 1.371 . S
C222 H225 0.931 . S
C223 C219 1.391 . S
C223 C222 1.371 . S
C223 H230 0.930 . S
H224 C221 0.928 . S
H225 C222 0.931 . S
H226 C202 0.930 . S
H227 C199 0.930 . S
H228 C208 0.930 . S
H229 C220 0.929 . S
H230 C223 0.930 . S
C231 C232 1.351 . S
C231 N234 1.368 . S
C231 H236 0.931 . S
C232 C231 1.351 . S
C232 N233 1.373 . S
C232 H260 0.930 . S
N233 C232 1.373 . S
N233 C235 1.340 . S
N234 C231 1.368 . S
N234 C235 1.321 . S
N234 Co237 2.135 1_655 S
C235 N233 1.340 . S
C235 N234 1.321 . S
C235 H259 0.930 . S
H236 C231 0.931 . S
Co237 N234 2.135 1_455 S
Co237 N240 2.121 1_545 S
Co237 O245 2.055 . S
Co237 O248 2.039 . S
Co237 N251 2.140 1_545 S
C238 O239 1.227 1_545 S
C238 O248 1.265 . S
O239 C238 1.227 1_565 S
N240 Co237 2.121 1_565 S
N240 C242 1.375 . S
N240 C243 1.316 . S
C241 C242 1.338 . S
C241 N244 1.377 . S
C241 H261 0.930 . S
C242 N240 1.375 . S
C242 C241 1.338 . S
C242 H246 0.931 . S
C243 N240 1.316 . S
C243 N244 1.349 . S
C243 H247 0.923 1_565 S
N244 C241 1.377 . S
N244 C243 1.349 . S
O245 Co237 2.055 . S
O245 C249 1.253 . S
H246 C242 0.931 . S
H247 C243 0.923 1_545 S
O248 Co237 2.039 . S
O248 C238 1.265 . S
C249 O245 1.253 . S
C249 O250 1.227 . S
O250 C249 1.227 . S
N251 Co237 2.140 1_565 S
N251 C254 1.346 . S
N251 C255 1.345 . S
C252 C253 1.387 . S
C252 C256 1.391 . S
C253 C252 1.387 . S
C253 C254 1.369 . S
C253 H262 0.929 1_455 S
C254 N251 1.346 . S
C254 C253 1.369 . S
C254 H257 0.928 1_455 S
C255 N251 1.345 . S
C255 C256 1.371 . S
C255 H258 0.931 . S
C256 C252 1.391 . S
C256 C255 1.371 . S
C256 H263 0.930 . S
H257 C254 0.928 1_655 S
H258 C255 0.931 . S
H259 C235 0.930 . S
H260 C232 0.930 . S
H261 C241 0.930 . S
H262 C253 0.929 1_655 S
H263 C256 0.930 . S
C264 C265 1.351 . S
C264 N267 1.368 . S
C264 H269 0.931 . S
C265 C264 1.351 . S
C265 N266 1.373 . S
C265 H293 0.930 . S
N266 C265 1.373 . S
N266 C268 1.340 . S
N267 C264 1.368 . S
N267 C268 1.321 . S
N267 Co270 2.135 . S
C268 N266 1.340 . S
C268 N267 1.321 . S
C268 H292 0.930 . S
H269 C264 0.931 . S
Co270 N267 2.135 . S
Co270 N273 2.121 . S
Co270 O278 2.055 . S
Co270 O281 2.039 . S
Co270 N284 2.140 . S
C271 O272 1.227 . S
C271 O281 1.265 . S
O272 C271 1.227 . S
N273 Co270 2.121 . S
N273 C275 1.375 . S
N273 C276 1.313 . S
C274 C275 1.338 . S
C274 N277 1.377 . S
C274 H294 0.930 . S
C275 N273 1.375 . S
C275 C274 1.338 . S
C275 H279 0.931 . S
C276 N273 1.313 . S
C276 N277 1.344 . S
C276 H280 0.930 . S
N277 C274 1.377 . S
N277 C276 1.344 . S
O278 Co270 2.055 . S
O278 C282 1.253 . S
H279 C275 0.931 . S
H280 C276 0.930 . S
O281 Co270 2.039 . S
O281 C271 1.265 . S
C282 O278 1.253 . S
C282 O283 1.227 . S
O283 C282 1.227 . S
N284 Co270 2.140 . S
N284 C287 1.346 . S
N284 C288 1.345 . S
C285 C286 1.387 . S
C285 C289 1.391 . S
C286 C285 1.387 . S
C286 C287 1.369 . S
C286 H295 0.929 . S
C287 N284 1.346 . S
C287 C286 1.369 . S
C287 H290 0.928 . S
C288 N284 1.345 . S
C288 C289 1.371 . S
C288 H291 0.931 . S
C289 C285 1.391 . S
C289 C288 1.371 . S
C289 H296 0.930 . S
H290 C287 0.928 . S
H291 C288 0.931 . S
H292 C268 0.930 . S
H293 C265 0.930 . S
H294 C274 0.930 . S
H295 C286 0.929 . S
H296 C289 0.930 . S
C297 C298 1.351 . S
C297 N300 1.368 . S
C297 H302 0.931 . S
C298 C297 1.351 . S
C298 N299 1.373 . S
C298 H326 0.930 . S
N299 C298 1.373 . S
N299 C301 1.340 . S
N300 C297 1.368 . S
N300 C301 1.321 . S
N300 Co303 2.135 1_455 S
C301 N299 1.340 . S
C301 N300 1.321 . S
C301 H325 0.930 . S
H302 C297 0.931 . S
Co303 N300 2.135 1_655 S
Co303 N306 2.121 1_545 S
Co303 O311 2.055 . S
Co303 O314 2.039 . S
Co303 N317 2.140 1_545 S
C304 O305 1.227 1_545 S
C304 O314 1.265 . S
O305 C304 1.227 1_565 S
N306 Co303 2.121 1_565 S
N306 C308 1.375 . S
N306 C309 1.316 . S
C307 C308 1.338 . S
C307 N310 1.377 . S
C307 H327 0.930 . S
C308 N306 1.375 . S
C308 C307 1.338 . S
C308 H312 0.931 . S
C309 N306 1.316 . S
C309 N310 1.349 . S
C309 H313 0.924 1_565 S
N310 C307 1.377 . S
N310 C309 1.349 . S
O311 Co303 2.055 . S
O311 C315 1.253 . S
H312 C308 0.931 . S
H313 C309 0.924 1_545 S
O314 Co303 2.039 . S
O314 C304 1.265 . S
C315 O311 1.253 . S
C315 O316 1.227 . S
O316 C315 1.227 . S
N317 Co303 2.140 1_565 S
N317 C320 1.346 . S
N317 C321 1.345 . S
C318 C319 1.387 . S
C318 C322 1.391 . S
C319 C318 1.387 . S
C319 C320 1.369 . S
C319 H328 0.929 1_655 S
C320 N317 1.346 . S
C320 C319 1.369 . S
C320 H323 0.928 1_655 S
C321 N317 1.345 . S
C321 C322 1.371 . S
C321 H324 0.931 . S
C322 C318 1.391 . S
C322 C321 1.371 . S
C322 H329 0.930 . S
H323 C320 0.928 1_455 S
H324 C321 0.931 . S
H325 C301 0.930 . S
H326 C298 0.930 . S
H327 C307 0.930 . S
H328 C319 0.929 1_455 S
H329 C322 0.930 . S
C330 C331 1.351 . S
C330 N333 1.368 . S
C330 H335 0.931 . S
C331 C330 1.351 . S
C331 N332 1.373 . S
C331 H359 0.930 . S
N332 C331 1.373 . S
N332 C334 1.340 . S
N333 C330 1.368 . S
N333 C334 1.321 . S
N333 Co336 2.135 . S
C334 N332 1.340 . S
C334 N333 1.321 . S
C334 H358 0.930 . S
H335 C330 0.931 . S
Co336 N333 2.135 . S
Co336 N339 2.121 . S
Co336 O344 2.055 . S
Co336 O347 2.039 . S
Co336 N350 2.140 . S
C337 O338 1.227 . S
C337 O347 1.265 . S
O338 C337 1.227 . S
N339 Co336 2.121 . S
N339 C341 1.375 . S
N339 C342 1.313 . S
C340 C341 1.338 . S
C340 N343 1.377 . S
C340 H360 0.930 . S
C341 N339 1.375 . S
C341 C340 1.338 . S
C341 H345 0.931 . S
C342 N339 1.313 . S
C342 N343 1.344 . S
C342 H346 0.930 . S
N343 C340 1.377 . S
N343 C342 1.344 . S
O344 Co336 2.055 . S
O344 C348 1.253 . S
H345 C341 0.931 . S
H346 C342 0.930 . S
O347 Co336 2.039 . S
O347 C337 1.265 . S
C348 O344 1.253 . S
C348 O349 1.227 . S
O349 C348 1.227 . S
N350 Co336 2.140 . S
N350 C353 1.346 . S
N350 C354 1.345 . S
C351 C352 1.387 . S
C351 C355 1.391 . S
C352 C351 1.387 . S
C352 C353 1.369 . S
C352 H361 0.929 . S
C353 N350 1.346 . S
C353 C352 1.369 . S
C353 H356 0.928 . S
C354 N350 1.345 . S
C354 C355 1.371 . S
C354 H357 0.931 . S
C355 C351 1.391 . S
C355 C354 1.371 . S
C355 H362 0.930 . S
H356 C353 0.928 . S
H357 C354 0.931 . S
H358 C334 0.930 . S
H359 C331 0.930 . S
H360 C340 0.930 . S
H361 C352 0.929 . S
H362 C355 0.930 . S
C363 C364 1.351 . S
C363 N366 1.368 . S
C363 H368 0.931 . S
C364 C363 1.351 . S
C364 N365 1.373 . S
C364 H392 0.930 . S
N365 C364 1.373 . S
N365 C367 1.340 . S
N366 C363 1.368 . S
N366 C367 1.321 . S
N366 Co369 2.135 . S
C367 N365 1.340 . S
C367 N366 1.321 . S
C367 H391 0.930 . S
H368 C363 0.931 . S
Co369 N366 2.135 . S
Co369 N372 2.121 1_565 S
Co369 O377 2.055 . S
Co369 O380 2.039 . S
Co369 N383 2.140 1_565 S
C370 O371 1.227 1_565 S
C370 O380 1.265 . S
O371 C370 1.227 1_545 S
N372 Co369 2.121 1_545 S
N372 C374 1.375 . S
N372 C375 1.316 . S
C373 C374 1.338 . S
C373 N376 1.377 . S
C373 H393 0.930 . S
C374 N372 1.375 . S
C374 C373 1.338 . S
C374 H378 0.931 . S
C375 N372 1.316 . S
C375 N376 1.349 . S
C375 H379 0.923 1_545 S
N376 C373 1.377 . S
N376 C375 1.349 . S
O377 Co369 2.055 . S
O377 C381 1.253 . S
H378 C374 0.931 . S
H379 C375 0.923 1_565 S
O380 Co369 2.039 . S
O380 C370 1.265 . S
C381 O377 1.253 . S
C381 O382 1.227 . S
O382 C381 1.227 . S
N383 Co369 2.140 1_545 S
N383 C386 1.346 . S
N383 C387 1.345 . S
C384 C385 1.387 . S
C384 C388 1.391 . S
C385 C384 1.387 . S
C385 C386 1.369 . S
C385 H394 0.929 . S
C386 N383 1.346 . S
C386 C385 1.369 . S
C386 H389 0.928 . S
C387 N383 1.345 . S
C387 C388 1.371 . S
C387 H390 0.931 . S
C388 C384 1.391 . S
C388 C387 1.371 . S
C388 H395 0.930 . S
H389 C386 0.928 . S
H390 C387 0.931 . S
H391 C367 0.930 . S
H392 C364 0.930 . S
H393 C373 0.930 . S
H394 C385 0.929 . S
H395 C388 0.930 . S
C396 C397 1.351 . S
C396 N399 1.368 . S
C396 H401 0.931 . S
C397 C396 1.351 . S
C397 N398 1.373 . S
C397 H425 0.930 . S
N398 C397 1.373 . S
N398 C400 1.340 . S
N399 C396 1.368 . S
N399 C400 1.321 . S
N399 Co402 2.135 . S
C400 N398 1.340 . S
C400 N399 1.321 . S
C400 H424 0.930 . S
H401 C396 0.931 . S
Co402 N399 2.135 . S
Co402 N405 2.121 . S
Co402 O410 2.055 . S
Co402 O413 2.039 . S
Co402 N416 2.140 . S
C403 O404 1.227 . S
C403 O413 1.265 . S
O404 C403 1.227 . S
N405 Co402 2.121 . S
N405 C407 1.375 . S
N405 C408 1.313 . S
C406 C407 1.338 . S
C406 N409 1.377 . S
C406 H426 0.930 . S
C407 N405 1.375 . S
C407 C406 1.338 . S
C407 H411 0.931 . S
C408 N405 1.313 . S
C408 N409 1.344 . S
C408 H412 0.930 . S
N409 C406 1.377 . S
N409 C408 1.344 . S
O410 Co402 2.055 . S
O410 C414 1.253 . S
H411 C407 0.931 . S
H412 C408 0.930 . S
O413 Co402 2.039 . S
O413 C403 1.265 . S
C414 O410 1.253 . S
C414 O415 1.227 . S
O415 C414 1.227 . S
N416 Co402 2.140 . S
N416 C419 1.346 . S
N416 C420 1.345 . S
C417 C418 1.387 . S
C417 C421 1.391 . S
C418 C417 1.387 . S
C418 C419 1.369 . S
C418 H427 0.929 . S
C419 N416 1.346 . S
C419 C418 1.369 . S
C419 H422 0.928 . S
C420 N416 1.345 . S
C420 C421 1.371 . S
C420 H423 0.931 . S
C421 C417 1.391 . S
C421 C420 1.371 . S
C421 H428 0.930 . S
H422 C419 0.928 . S
H423 C420 0.931 . S
H424 C400 0.930 . S
H425 C397 0.930 . S
H426 C406 0.930 . S
H427 C418 0.929 . S
H428 C421 0.930 . S
C429 C430 1.351 . S
C429 N432 1.368 . S
C429 H434 0.931 . S
C430 C429 1.351 . S
C430 N431 1.373 . S
C430 H458 0.930 . S
N431 C430 1.373 . S
N431 C433 1.340 . S
N432 C429 1.368 . S
N432 C433 1.321 . S
N432 Co435 2.135 . S
C433 N431 1.340 . S
C433 N432 1.321 . S
C433 H457 0.930 . S
H434 C429 0.931 . S
Co435 N432 2.135 . S
Co435 N438 2.121 1_545 S
Co435 O443 2.055 . S
Co435 O446 2.039 . S
Co435 N449 2.140 1_545 S
C436 O437 1.227 1_545 S
C436 O446 1.265 . S
O437 C436 1.227 1_565 S
N438 Co435 2.121 1_565 S
N438 C440 1.375 . S
N438 C441 1.316 . S
C439 C440 1.338 . S
C439 N442 1.377 . S
C439 H459 0.930 . S
C440 N438 1.375 . S
C440 C439 1.338 . S
C440 H444 0.931 . S
C441 N438 1.316 . S
C441 N442 1.349 . S
C441 H445 0.923 1_565 S
N442 C439 1.377 . S
N442 C441 1.349 . S
O443 Co435 2.055 . S
O443 C447 1.253 . S
H444 C440 0.931 . S
H445 C441 0.923 1_545 S
O446 Co435 2.039 . S
O446 C436 1.265 . S
C447 O443 1.253 . S
C447 O448 1.227 . S
O448 C447 1.227 . S
N449 Co435 2.140 1_565 S
N449 C452 1.346 . S
N449 C453 1.345 . S
C450 C451 1.387 . S
C450 C454 1.391 . S
C451 C450 1.387 . S
C451 C452 1.369 . S
C451 H460 0.929 . S
C452 N449 1.346 . S
C452 C451 1.369 . S
C452 H455 0.928 . S
C453 N449 1.345 . S
C453 C454 1.371 . S
C453 H456 0.931 . S
C454 C450 1.391 . S
C454 C453 1.371 . S
C454 H461 0.930 . S
H455 C452 0.928 . S
H456 C453 0.931 . S
H457 C433 0.930 . S
H458 C430 0.930 . S
H459 C439 0.930 . S
H460 C451 0.929 . S
H461 C454 0.930 . S
C462 C463 1.351 . S
C462 N465 1.368 . S
C462 H467 0.931 . S
C463 C462 1.351 . S
C463 N464 1.373 . S
C463 H491 0.930 . S
N464 C463 1.373 . S
N464 C466 1.340 . S
N465 C462 1.368 . S
N465 C466 1.321 . S
N465 Co468 2.135 . S
C466 N464 1.340 . S
C466 N465 1.321 . S
C466 H490 0.930 . S
H467 C462 0.931 . S
Co468 N465 2.135 . S
Co468 N471 2.121 . S
Co468 O476 2.055 . S
Co468 O479 2.039 . S
Co468 N482 2.140 . S
C469 O470 1.227 . S
C469 O479 1.265 . S
O470 C469 1.227 . S
N471 Co468 2.121 . S
N471 C473 1.375 . S
N471 C474 1.313 . S
C472 C473 1.338 . S
C472 N475 1.377 . S
C472 H492 0.930 . S
C473 N471 1.375 . S
C473 C472 1.338 . S
C473 H477 0.931 . S
C474 N471 1.313 . S
C474 N475 1.344 . S
C474 H478 0.930 . S
N475 C472 1.377 . S
N475 C474 1.344 . S
O476 Co468 2.055 . S
O476 C480 1.253 . S
H477 C473 0.931 . S
H478 C474 0.930 . S
O479 Co468 2.039 . S
O479 C469 1.265 . S
C480 O476 1.253 . S
C480 O481 1.227 . S
O481 C480 1.227 . S
N482 Co468 2.140 . S
N482 C485 1.346 . S
N482 C486 1.345 . S
C483 C484 1.387 . S
C483 C487 1.391 . S
C484 C483 1.387 . S
C484 C485 1.369 . S
C484 H493 0.929 . S
C485 N482 1.346 . S
C485 C484 1.369 . S
C485 H488 0.928 . S
C486 N482 1.345 . S
C486 C487 1.371 . S
C486 H489 0.931 . S
C487 C483 1.391 . S
C487 C486 1.371 . S
C487 H494 0.930 . S
H488 C485 0.928 . S
H489 C486 0.931 . S
H490 C466 0.930 . S
H491 C463 0.930 . S
H492 C472 0.930 . S
H493 C484 0.929 . S
H494 C487 0.930 . S
C495 C496 1.351 . S
C495 N498 1.368 . S
C495 H500 0.931 . S
C496 C495 1.351 . S
C496 N497 1.373 . S
C496 H524 0.930 . S
N497 C496 1.373 . S
N497 C499 1.340 . S
N498 C495 1.368 . S
N498 C499 1.321 . S
N498 Co501 2.135 1_455 S
C499 N497 1.340 . S
C499 N498 1.321 . S
C499 H523 0.930 . S
H500 C495 0.931 . S
Co501 N498 2.135 1_655 S
Co501 N504 2.121 1_565 S
Co501 O509 2.055 . S
Co501 O512 2.039 . S
Co501 N515 2.140 1_565 S
C502 O503 1.227 1_565 S
C502 O512 1.265 . S
O503 C502 1.227 1_545 S
N504 Co501 2.121 1_545 S
N504 C506 1.375 . S
N504 C507 1.316 . S
C505 C506 1.338 . S
C505 N508 1.377 . S
C505 H525 0.930 . S
C506 N504 1.375 . S
C506 C505 1.338 . S
C506 H510 0.931 . S
C507 N504 1.316 . S
C507 N508 1.349 . S
C507 H511 0.923 1_545 S
N508 C505 1.377 . S
N508 C507 1.349 . S
O509 Co501 2.055 . S
O509 C513 1.253 . S
H510 C506 0.931 . S
H511 C507 0.923 1_565 S
O512 Co501 2.039 . S
O512 C502 1.265 . S
C513 O509 1.253 . S
C513 O514 1.227 . S
O514 C513 1.227 . S
N515 Co501 2.140 1_545 S
N515 C518 1.346 . S
N515 C519 1.345 . S
C516 C517 1.387 . S
C516 C520 1.391 . S
C517 C516 1.387 . S
C517 C518 1.369 . S
C517 H526 0.929 1_655 S
C518 N515 1.346 . S
C518 C517 1.369 . S
C518 H521 0.928 1_655 S
C519 N515 1.345 . S
C519 C520 1.371 . S
C519 H522 0.931 . S
C520 C516 1.391 . S
C520 C519 1.371 . S
C520 H527 0.930 . S
H521 C518 0.928 1_455 S
H522 C519 0.931 . S
H523 C499 0.930 . S
H524 C496 0.930 . S
H525 C505 0.930 . S
H526 C517 0.929 1_455 S
H527 C520 0.930 . S
C528 C529 1.351 . S
C528 N531 1.368 . S
C528 H533 0.931 . S
C529 C528 1.351 . S
C529 N530 1.373 . S
C529 H557 0.930 . S
N530 C529 1.373 . S
N530 C532 1.340 . S
N531 C528 1.368 . S
N531 C532 1.321 . S
N531 Co534 2.135 . S
C532 N530 1.340 . S
C532 N531 1.321 . S
C532 H556 0.930 . S
H533 C528 0.931 . S
Co534 N531 2.135 . S
Co534 N537 2.121 . S
Co534 O542 2.055 . S
Co534 O545 2.039 . S
Co534 N548 2.140 . S
C535 O536 1.227 . S
C535 O545 1.265 . S
O536 C535 1.227 . S
N537 Co534 2.121 . S
N537 C539 1.375 . S
N537 C540 1.313 . S
C538 C539 1.338 . S
C538 N541 1.377 . S
C538 H558 0.930 . S
C539 N537 1.375 . S
C539 C538 1.338 . S
C539 H543 0.931 . S
C540 N537 1.313 . S
C540 N541 1.344 . S
C540 H544 0.930 . S
N541 C538 1.377 . S
N541 C540 1.344 . S
O542 Co534 2.055 . S
O542 C546 1.253 . S
H543 C539 0.931 . S
H544 C540 0.930 . S
O545 Co534 2.039 . S
O545 C535 1.265 . S
C546 O542 1.253 . S
C546 O547 1.227 . S
O547 C546 1.227 . S
N548 Co534 2.140 . S
N548 C551 1.346 . S
N548 C552 1.345 . S
C549 C550 1.387 . S
C549 C553 1.391 . S
C550 C549 1.387 . S
C550 C551 1.369 . S
C550 H559 0.929 . S
C551 N548 1.346 . S
C551 C550 1.369 . S
C551 H554 0.928 . S
C552 N548 1.345 . S
C552 C553 1.371 . S
C552 H555 0.931 . S
C553 C549 1.391 . S
C553 C552 1.371 . S
C553 H560 0.930 . S
H554 C551 0.928 . S
H555 C552 0.931 . S
H556 C532 0.930 . S
H557 C529 0.930 . S
H558 C538 0.930 . S
H559 C550 0.929 . S
H560 C553 0.930 . S
C561 C562 1.351 . S
C561 N564 1.368 . S
C561 H566 0.931 . S
C562 C561 1.351 . S
C562 N563 1.373 . S
C562 H590 0.930 . S
N563 C562 1.373 . S
N563 C565 1.340 . S
N564 C561 1.368 . S
N564 C565 1.321 . S
N564 Co567 2.135 . S
C565 N563 1.340 . S
C565 N564 1.321 . S
C565 H589 0.930 . S
H566 C561 0.931 . S
Co567 N564 2.135 . S
Co567 N570 2.121 . S
Co567 O575 2.055 . S
Co567 O578 2.039 . S
Co567 N581 2.140 . S
C568 O569 1.227 . S
C568 O578 1.265 . S
O569 C568 1.227 . S
N570 Co567 2.121 . S
N570 C572 1.375 . S
N570 C573 1.313 . S
C571 C572 1.338 . S
C571 N574 1.377 . S
C571 H591 0.930 . S
C572 N570 1.375 . S
C572 C571 1.338 . S
C572 H576 0.931 . S
C573 N570 1.313 . S
C573 N574 1.344 . S
C573 H577 0.930 . S
N574 C571 1.377 . S
N574 C573 1.344 . S
O575 Co567 2.055 . S
O575 C579 1.253 . S
H576 C572 0.931 . S
H577 C573 0.930 . S
O578 Co567 2.039 . S
O578 C568 1.265 . S
C579 O575 1.253 . S
C579 O580 1.227 . S
O580 C579 1.227 . S
N581 Co567 2.140 . S
N581 C584 1.346 . S
N581 C585 1.345 . S
C582 C583 1.387 . S
C582 C586 1.391 . S
C583 C582 1.387 . S
C583 C584 1.369 . S
C583 H592 0.929 . S
C584 N581 1.346 . S
C584 C583 1.369 . S
C584 H587 0.928 . S
C585 N581 1.345 . S
C585 C586 1.371 . S
C585 H588 0.931 . S
C586 C582 1.391 . S
C586 C585 1.371 . S
C586 H593 0.930 . S
H587 C584 0.928 . S
H588 C585 0.931 . S
H589 C565 0.930 . S
H590 C562 0.930 . S
H591 C571 0.930 . S
H592 C583 0.929 . S
H593 C586 0.930 . S
C594 C595 1.351 . S
C594 N597 1.368 . S
C594 H599 0.931 . S
C595 C594 1.351 . S
C595 N596 1.373 . S
C595 H623 0.930 . S
N596 C595 1.373 . S
N596 C598 1.340 . S
N597 C594 1.368 . S
N597 C598 1.321 . S
N597 Co600 2.135 . S
C598 N596 1.340 . S
C598 N597 1.321 . S
C598 H622 0.930 . S
H599 C594 0.931 . S
Co600 N597 2.135 . S
Co600 N603 2.121 . S
Co600 O608 2.055 . S
Co600 O611 2.039 . S
Co600 N614 2.140 . S
C601 O602 1.227 . S
C601 O611 1.265 . S
O602 C601 1.227 . S
N603 Co600 2.121 . S
N603 C605 1.375 . S
N603 C606 1.313 . S
C604 C605 1.338 . S
C604 N607 1.377 . S
C604 H624 0.930 . S
C605 N603 1.375 . S
C605 C604 1.338 . S
C605 H609 0.931 . S
C606 N603 1.313 . S
C606 N607 1.344 . S
C606 H610 0.930 . S
N607 C604 1.377 . S
N607 C606 1.344 . S
O608 Co600 2.055 . S
O608 C612 1.253 . S
H609 C605 0.931 . S
H610 C606 0.930 . S
O611 Co600 2.039 . S
O611 C601 1.265 . S
C612 O608 1.253 . S
C612 O613 1.227 . S
O613 C612 1.227 . S
N614 Co600 2.140 . S
N614 C617 1.346 . S
N614 C618 1.345 . S
C615 C616 1.387 . S
C615 C619 1.391 . S
C616 C615 1.387 . S
C616 C617 1.369 . S
C616 H625 0.929 . S
C617 N614 1.346 . S
C617 C616 1.369 . S
C617 H620 0.928 . S
C618 N614 1.345 . S
C618 C619 1.371 . S
C618 H621 0.931 . S
C619 C615 1.391 . S
C619 C618 1.371 . S
C619 H626 0.930 . S
H620 C617 0.928 . S
H621 C618 0.931 . S
H622 C598 0.930 . S
H623 C595 0.930 . S
H624 C604 0.930 . S
H625 C616 0.929 . S
H626 C619 0.930 . S
C627 C628 1.351 . S
C627 N630 1.368 . S
C627 H632 0.931 . S
C628 C627 1.351 . S
C628 N629 1.373 . S
C628 H656 0.930 . S
N629 C628 1.373 . S
N629 C631 1.340 . S
N630 C627 1.368 . S
N630 C631 1.321 . S
N630 Co633 2.135 1_455 S
C631 N629 1.340 . S
C631 N630 1.321 . S
C631 H655 0.930 . S
H632 C627 0.931 . S
Co633 N630 2.135 1_655 S
Co633 N636 2.121 . S
Co633 O641 2.055 . S
Co633 O644 2.039 . S
Co633 N647 2.140 . S
C634 O635 1.227 . S
C634 O644 1.265 . S
O635 C634 1.227 . S
N636 Co633 2.121 . S
N636 C638 1.375 . S
N636 C639 1.313 . S
C637 C638 1.338 . S
C637 N640 1.377 . S
C637 H657 0.930 . S
C638 N636 1.375 . S
C638 C637 1.338 . S
C638 H642 0.931 . S
C639 N636 1.313 . S
C639 N640 1.344 . S
C639 H643 0.930 . S
N640 C637 1.377 . S
N640 C639 1.344 . S
O641 Co633 2.055 . S
O641 C645 1.253 . S
H642 C638 0.931 . S
H643 C639 0.930 . S
O644 Co633 2.039 . S
O644 C634 1.265 . S
C645 O641 1.253 . S
C645 O646 1.227 . S
O646 C645 1.227 . S
N647 Co633 2.140 . S
N647 C650 1.346 . S
N647 C651 1.345 . S
C648 C649 1.387 . S
C648 C652 1.391 . S
C649 C648 1.387 . S
C649 C650 1.369 . S
C649 H658 0.929 1_655 S
C650 N647 1.346 . S
C650 C649 1.369 . S
C650 H653 0.928 1_655 S
C651 N647 1.345 . S
C651 C652 1.371 . S
C651 H654 0.931 . S
C652 C648 1.391 . S
C652 C651 1.371 . S
C652 H659 0.930 . S
H653 C650 0.928 1_455 S
H654 C651 0.931 . S
H655 C631 0.930 . S
H656 C628 0.930 . S
H657 C637 0.930 . S
H658 C649 0.929 1_455 S
H659 C652 0.930 . S
C660 C661 1.351 . S
C660 N663 1.368 . S
C660 H665 0.931 . S
C661 C660 1.351 . S
C661 N662 1.373 . S
C661 H689 0.930 . S
N662 C661 1.373 . S
N662 C664 1.340 . S
N663 C660 1.368 . S
N663 C664 1.321 . S
N663 Co666 2.135 . S
C664 N662 1.340 . S
C664 N663 1.321 . S
C664 H688 0.930 . S
H665 C660 0.931 . S
Co666 N663 2.135 . S
Co666 N669 2.121 . S
Co666 O674 2.055 . S
Co666 O677 2.039 . S
Co666 N680 2.140 . S
C667 O668 1.227 . S
C667 O677 1.265 . S
O668 C667 1.227 . S
N669 Co666 2.121 . S
N669 C671 1.375 . S
N669 C672 1.313 . S
C670 C671 1.338 . S
C670 N673 1.377 . S
C670 H690 0.930 . S
C671 N669 1.375 . S
C671 C670 1.338 . S
C671 H675 0.931 . S
C672 N669 1.313 . S
C672 N673 1.344 . S
C672 H676 0.930 . S
N673 C670 1.377 . S
N673 C672 1.344 . S
O674 Co666 2.055 . S
O674 C678 1.253 . S
H675 C671 0.931 . S
H676 C672 0.930 . S
O677 Co666 2.039 . S
O677 C667 1.265 . S
C678 O674 1.253 . S
C678 O679 1.227 . S
O679 C678 1.227 . S
N680 Co666 2.140 . S
N680 C683 1.346 . S
N680 C684 1.345 . S
C681 C682 1.387 . S
C681 C685 1.391 . S
C682 C681 1.387 . S
C682 C683 1.369 . S
C682 H691 0.929 . S
C683 N680 1.346 . S
C683 C682 1.369 . S
C683 H686 0.928 . S
C684 N680 1.345 . S
C684 C685 1.371 . S
C684 H687 0.931 . S
C685 C681 1.391 . S
C685 C684 1.371 . S
C685 H692 0.930 . S
H686 C683 0.928 . S
H687 C684 0.931 . S
H688 C664 0.930 . S
H689 C661 0.930 . S
H690 C670 0.930 . S
H691 C682 0.929 . S
H692 C685 0.930 . S
C693 C694 1.351 . S
C693 N696 1.368 . S
C693 H698 0.931 . S
C694 C693 1.351 . S
C694 N695 1.373 . S
C694 H722 0.930 . S
N695 C694 1.373 . S
N695 C697 1.340 . S
N696 C693 1.368 . S
N696 C697 1.321 . S
N696 Co699 2.135 1_455 S
C697 N695 1.340 . S
C697 N696 1.321 . S
C697 H721 0.930 . S
H698 C693 0.931 . S
Co699 N696 2.135 1_655 S
Co699 N702 2.121 . S
Co699 O707 2.055 . S
Co699 O710 2.039 . S
Co699 N713 2.140 . S
C700 O701 1.227 . S
C700 O710 1.265 . S
O701 C700 1.227 . S
N702 Co699 2.121 . S
N702 C704 1.375 . S
N702 C705 1.313 . S
C703 C704 1.338 . S
C703 N706 1.377 . S
C703 H723 0.930 . S
C704 N702 1.375 . S
C704 C703 1.338 . S
C704 H708 0.931 . S
C705 N702 1.313 . S
C705 N706 1.344 . S
C705 H709 0.930 . S
N706 C703 1.377 . S
N706 C705 1.344 . S
O707 Co699 2.055 . S
O707 C711 1.253 . S
H708 C704 0.931 . S
H709 C705 0.930 . S
O710 Co699 2.039 . S
O710 C700 1.265 . S
C711 O707 1.253 . S
C711 O712 1.227 . S
O712 C711 1.227 . S
N713 Co699 2.140 . S
N713 C716 1.346 . S
N713 C717 1.345 . S
C714 C715 1.387 . S
C714 C718 1.391 . S
C715 C714 1.387 . S
C715 C716 1.369 . S
C715 H724 0.929 1_655 S
C716 N713 1.346 . S
C716 C715 1.369 . S
C716 H719 0.928 1_655 S
C717 N713 1.345 . S
C717 C718 1.371 . S
C717 H720 0.931 . S
C718 C714 1.391 . S
C718 C717 1.371 . S
C718 H725 0.930 . S
H719 C716 0.928 1_455 S
H720 C717 0.931 . S
H721 C697 0.930 . S
H722 C694 0.930 . S
H723 C703 0.930 . S
H724 C715 0.929 1_455 S
H725 C718 0.930 . S
C726 C727 1.351 . S
C726 N729 1.368 . S
C726 H731 0.931 . S
C727 C726 1.351 . S
C727 N728 1.373 . S
C727 H755 0.930 . S
N728 C727 1.373 . S
N728 C730 1.340 . S
N729 C726 1.368 . S
N729 C730 1.321 . S
N729 Co732 2.135 . S
C730 N728 1.340 . S
C730 N729 1.321 . S
C730 H754 0.930 . S
H731 C726 0.931 . S
Co732 N729 2.135 . S
Co732 N735 2.121 . S
Co732 O740 2.055 . S
Co732 O743 2.039 . S
Co732 N746 2.140 . S
C733 O734 1.227 . S
C733 O743 1.265 . S
O734 C733 1.227 . S
N735 Co732 2.121 . S
N735 C737 1.375 . S
N735 C738 1.313 . S
C736 C737 1.338 . S
C736 N739 1.377 . S
C736 H756 0.930 . S
C737 N735 1.375 . S
C737 C736 1.338 . S
C737 H741 0.931 . S
C738 N735 1.313 . S
C738 N739 1.344 . S
C738 H742 0.930 . S
N739 C736 1.377 . S
N739 C738 1.344 . S
O740 Co732 2.055 . S
O740 C744 1.253 . S
H741 C737 0.931 . S
H742 C738 0.930 . S
O743 Co732 2.039 . S
O743 C733 1.265 . S
C744 O740 1.253 . S
C744 O745 1.227 . S
O745 C744 1.227 . S
N746 Co732 2.140 . S
N746 C749 1.346 . S
N746 C750 1.345 . S
C747 C748 1.387 . S
C747 C751 1.391 . S
C748 C747 1.387 . S
C748 C749 1.369 . S
C748 H757 0.929 . S
C749 N746 1.346 . S
C749 C748 1.369 . S
C749 H752 0.928 . S
C750 N746 1.345 . S
C750 C751 1.371 . S
C750 H753 0.931 . S
C751 C747 1.391 . S
C751 C750 1.371 . S
C751 H758 0.930 . S
H752 C749 0.928 . S
H753 C750 0.931 . S
H754 C730 0.930 . S
H755 C727 0.930 . S
H756 C736 0.930 . S
H757 C748 0.929 . S
H758 C751 0.930 . S
C759 C760 1.351 . S
C759 N762 1.368 . S
C759 H764 0.931 . S
C760 C759 1.351 . S
C760 N761 1.373 . S
C760 H788 0.930 . S
N761 C760 1.373 . S
N761 C763 1.340 . S
N762 C759 1.368 . S
N762 C763 1.321 . S
N762 Co765 2.135 . S
C763 N761 1.340 . S
C763 N762 1.321 . S
C763 H787 0.930 . S
H764 C759 0.931 . S
Co765 N762 2.135 . S
Co765 N768 2.121 . S
Co765 O773 2.055 . S
Co765 O776 2.039 . S
Co765 N779 2.140 . S
C766 O767 1.227 . S
C766 O776 1.265 . S
O767 C766 1.227 . S
N768 Co765 2.121 . S
N768 C770 1.375 . S
N768 C771 1.313 . S
C769 C770 1.338 . S
C769 N772 1.377 . S
C769 H789 0.930 . S
C770 N768 1.375 . S
C770 C769 1.338 . S
C770 H774 0.931 . S
C771 N768 1.313 . S
C771 N772 1.344 . S
C771 H775 0.930 . S
N772 C769 1.377 . S
N772 C771 1.344 . S
O773 Co765 2.055 . S
O773 C777 1.253 . S
H774 C770 0.931 . S
H775 C771 0.930 . S
O776 Co765 2.039 . S
O776 C766 1.265 . S
C777 O773 1.253 . S
C777 O778 1.227 . S
O778 C777 1.227 . S
N779 Co765 2.140 . S
N779 C782 1.346 . S
N779 C783 1.345 . S
C780 C781 1.387 . S
C780 C784 1.391 . S
C781 C780 1.387 . S
C781 C782 1.369 . S
C781 H790 0.929 . S
C782 N779 1.346 . S
C782 C781 1.369 . S
C782 H785 0.928 . S
C783 N779 1.345 . S
C783 C784 1.371 . S
C783 H786 0.931 . S
C784 C780 1.391 . S
C784 C783 1.371 . S
C784 H791 0.930 . S
H785 C782 0.928 . S
H786 C783 0.931 . S
H787 C763 0.930 . S
H788 C760 0.930 . S
H789 C769 0.930 . S
H790 C781 0.929 . S
H791 C784 0.930 . S
C792 C793 1.351 . S
C792 N795 1.368 . S
C792 H797 0.931 . S
C793 C792 1.351 . S
C793 N794 1.373 . S
C793 H821 0.930 . S
N794 C793 1.373 . S
N794 C796 1.340 . S
N795 C792 1.368 . S
N795 C796 1.321 . S
N795 Co798 2.135 . S
C796 N794 1.340 . S
C796 N795 1.321 . S
C796 H820 0.930 . S
H797 C792 0.931 . S
Co798 N795 2.135 . S
Co798 N801 2.121 . S
Co798 O806 2.055 . S
Co798 O809 2.039 . S
Co798 N812 2.140 . S
C799 O800 1.227 . S
C799 O809 1.265 . S
O800 C799 1.227 . S
N801 Co798 2.121 . S
N801 C803 1.375 . S
N801 C804 1.313 . S
C802 C803 1.338 . S
C802 N805 1.377 . S
C802 H822 0.930 . S
C803 N801 1.375 . S
C803 C802 1.338 . S
C803 H807 0.931 . S
C804 N801 1.313 . S
C804 N805 1.344 . S
C804 H808 0.930 . S
N805 C802 1.377 . S
N805 C804 1.344 . S
O806 Co798 2.055 . S
O806 C810 1.253 . S
H807 C803 0.931 . S
H808 C804 0.930 . S
O809 Co798 2.039 . S
O809 C799 1.265 . S
C810 O806 1.253 . S
C810 O811 1.227 . S
O811 C810 1.227 . S
N812 Co798 2.140 . S
N812 C815 1.346 . S
N812 C816 1.345 . S
C813 C814 1.387 . S
C813 C817 1.391 . S
C814 C813 1.387 . S
C814 C815 1.369 . S
C814 H823 0.929 . S
C815 N812 1.346 . S
C815 C814 1.369 . S
C815 H818 0.928 . S
C816 N812 1.345 . S
C816 C817 1.371 . S
C816 H819 0.931 . S
C817 C813 1.391 . S
C817 C816 1.371 . S
C817 H824 0.930 . S
H818 C815 0.928 . S
H819 C816 0.931 . S
H820 C796 0.930 . S
H821 C793 0.930 . S
H822 C802 0.930 . S
H823 C814 0.929 . S
H824 C817 0.930 . S
C825 C826 1.351 . S
C825 N828 1.368 . S
C825 H830 0.931 . S
C826 C825 1.351 . S
C826 N827 1.373 . S
C826 H854 0.930 . S
N827 C826 1.373 . S
N827 C829 1.340 . S
N828 C825 1.368 . S
N828 C829 1.321 . S
N828 Co831 2.135 . S
C829 N827 1.340 . S
C829 N828 1.321 . S
C829 H853 0.930 . S
H830 C825 0.931 . S
Co831 N828 2.135 . S
Co831 N834 2.121 . S
Co831 O839 2.055 . S
Co831 O842 2.039 . S
Co831 N845 2.140 . S
C832 O833 1.227 . S
C832 O842 1.265 . S
O833 C832 1.227 . S
N834 Co831 2.121 . S
N834 C836 1.375 . S
N834 C837 1.313 . S
C835 C836 1.338 . S
C835 N838 1.377 . S
C835 H855 0.930 . S
C836 N834 1.375 . S
C836 C835 1.338 . S
C836 H840 0.931 . S
C837 N834 1.313 . S
C837 N838 1.344 . S
C837 H841 0.930 . S
N838 C835 1.377 . S
N838 C837 1.344 . S
O839 Co831 2.055 . S
O839 C843 1.253 . S
H840 C836 0.931 . S
H841 C837 0.930 . S
O842 Co831 2.039 . S
O842 C832 1.265 . S
C843 O839 1.253 . S
C843 O844 1.227 . S
O844 C843 1.227 . S
N845 Co831 2.140 . S
N845 C848 1.346 . S
N845 C849 1.345 . S
C846 C847 1.387 . S
C846 C850 1.391 . S
C847 C846 1.387 . S
C847 C848 1.369 . S
C847 H856 0.929 . S
C848 N845 1.346 . S
C848 C847 1.369 . S
C848 H851 0.928 . S
C849 N845 1.345 . S
C849 C850 1.371 . S
C849 H852 0.931 . S
C850 C846 1.391 . S
C850 C849 1.371 . S
C850 H857 0.930 . S
H851 C848 0.928 . S
H852 C849 0.931 . S
H853 C829 0.930 . S
H854 C826 0.930 . S
H855 C835 0.930 . S
H856 C847 0.929 . S
H857 C850 0.930 . S
C858 C859 1.351 . S
C858 N861 1.368 . S
C858 H863 0.931 . S
C859 C858 1.351 . S
C859 N860 1.373 . S
C859 H887 0.930 . S
N860 C859 1.373 . S
N860 C862 1.340 . S
N861 C858 1.368 . S
N861 C862 1.321 . S
N861 Co864 2.135 . S
C862 N860 1.340 . S
C862 N861 1.321 . S
C862 H886 0.930 . S
H863 C858 0.931 . S
Co864 N861 2.135 . S
Co864 N867 2.121 . S
Co864 O872 2.055 . S
Co864 O875 2.039 . S
Co864 N878 2.140 . S
C865 O866 1.227 . S
C865 O875 1.265 . S
O866 C865 1.227 . S
N867 Co864 2.121 . S
N867 C869 1.375 . S
N867 C870 1.313 . S
C868 C869 1.338 . S
C868 N871 1.377 . S
C868 H888 0.930 . S
C869 N867 1.375 . S
C869 C868 1.338 . S
C869 H873 0.931 . S
C870 N867 1.313 . S
C870 N871 1.344 . S
C870 H874 0.930 . S
N871 C868 1.377 . S
N871 C870 1.344 . S
O872 Co864 2.055 . S
O872 C876 1.253 . S
H873 C869 0.931 . S
H874 C870 0.930 . S
O875 Co864 2.039 . S
O875 C865 1.265 . S
C876 O872 1.253 . S
C876 O877 1.227 . S
O877 C876 1.227 . S
N878 Co864 2.140 . S
N878 C881 1.346 . S
N878 C882 1.345 . S
C879 C880 1.387 . S
C879 C883 1.391 . S
C880 C879 1.387 . S
C880 C881 1.369 . S
C880 H889 0.929 . S
C881 N878 1.346 . S
C881 C880 1.369 . S
C881 H884 0.928 . S
C882 N878 1.345 . S
C882 C883 1.371 . S
C882 H885 0.931 . S
C883 C879 1.391 . S
C883 C882 1.371 . S
C883 H890 0.930 . S
H884 C881 0.928 . S
H885 C882 0.931 . S
H886 C862 0.930 . S
H887 C859 0.930 . S
H888 C868 0.930 . S
H889 C880 0.929 . S
H890 C883 0.930 . S
C891 C892 1.351 . S
C891 N894 1.368 . S
C891 H896 0.931 . S
C892 C891 1.351 . S
C892 N893 1.373 . S
C892 H920 0.930 . S
N893 C892 1.373 . S
N893 C895 1.340 . S
N894 C891 1.368 . S
N894 C895 1.321 . S
N894 Co897 2.135 1_655 S
C895 N893 1.340 . S
C895 N894 1.321 . S
C895 H919 0.930 . S
H896 C891 0.931 . S
Co897 N894 2.135 1_455 S
Co897 N900 2.121 . S
Co897 O905 2.055 . S
Co897 O908 2.039 . S
Co897 N911 2.140 . S
C898 O899 1.227 . S
C898 O908 1.265 . S
O899 C898 1.227 . S
N900 Co897 2.121 . S
N900 C902 1.375 . S
N900 C903 1.313 . S
C901 C902 1.338 . S
C901 N904 1.377 . S
C901 H921 0.930 . S
C902 N900 1.375 . S
C902 C901 1.338 . S
C902 H906 0.931 . S
C903 N900 1.313 . S
C903 N904 1.344 . S
C903 H907 0.930 . S
N904 C901 1.377 . S
N904 C903 1.344 . S
O905 Co897 2.055 . S
O905 C909 1.253 . S
H906 C902 0.931 . S
H907 C903 0.930 . S
O908 Co897 2.039 . S
O908 C898 1.265 . S
C909 O905 1.253 . S
C909 O910 1.227 . S
O910 C909 1.227 . S
N911 Co897 2.140 . S
N911 C914 1.346 . S
N911 C915 1.345 . S
C912 C913 1.387 . S
C912 C916 1.391 . S
C913 C912 1.387 . S
C913 C914 1.369 . S
C913 H922 0.929 1_455 S
C914 N911 1.346 . S
C914 C913 1.369 . S
C914 H917 0.928 1_455 S
C915 N911 1.345 . S
C915 C916 1.371 . S
C915 H918 0.931 . S
C916 C912 1.391 . S
C916 C915 1.371 . S
C916 H923 0.930 . S
H917 C914 0.928 1_655 S
H918 C915 0.931 . S
H919 C895 0.930 . S
H920 C892 0.930 . S
H921 C901 0.930 . S
H922 C913 0.929 1_655 S
H923 C916 0.930 . S
C924 C925 1.351 . S
C924 N927 1.368 . S
C924 H929 0.931 . S
C925 C924 1.351 . S
C925 N926 1.373 . S
C925 H953 0.930 . S
N926 C925 1.373 . S
N926 C928 1.340 . S
N927 C924 1.368 . S
N927 C928 1.321 . S
N927 Co930 2.135 . S
C928 N926 1.340 . S
C928 N927 1.321 . S
C928 H952 0.930 . S
H929 C924 0.931 . S
Co930 N927 2.135 . S
Co930 N933 2.121 . S
Co930 O938 2.055 . S
Co930 O941 2.039 . S
Co930 N944 2.140 . S
C931 O932 1.227 . S
C931 O941 1.265 . S
O932 C931 1.227 . S
N933 Co930 2.121 . S
N933 C935 1.375 . S
N933 C936 1.313 . S
C934 C935 1.338 . S
C934 N937 1.377 . S
C934 H954 0.930 . S
C935 N933 1.375 . S
C935 C934 1.338 . S
C935 H939 0.931 . S
C936 N933 1.313 . S
C936 N937 1.344 . S
C936 H940 0.930 . S
N937 C934 1.377 . S
N937 C936 1.344 . S
O938 Co930 2.055 . S
O938 C942 1.253 . S
H939 C935 0.931 . S
H940 C936 0.930 . S
O941 Co930 2.039 . S
O941 C931 1.265 . S
C942 O938 1.253 . S
C942 O943 1.227 . S
O943 C942 1.227 . S
N944 Co930 2.140 . S
N944 C947 1.346 . S
N944 C948 1.345 . S
C945 C946 1.387 . S
C945 C949 1.391 . S
C946 C945 1.387 . S
C946 C947 1.369 . S
C946 H955 0.929 . S
C947 N944 1.346 . S
C947 C946 1.369 . S
C947 H950 0.928 . S
C948 N944 1.345 . S
C948 C949 1.371 . S
C948 H951 0.931 . S
C949 C945 1.391 . S
C949 C948 1.371 . S
C949 H956 0.930 . S
H950 C947 0.928 . S
H951 C948 0.931 . S
H952 C928 0.930 . S
H953 C925 0.930 . S
H954 C934 0.930 . S
H955 C946 0.929 . S
H956 C949 0.930 . S
C957 C958 1.351 . S
C957 N960 1.368 . S
C957 H962 0.931 . S
C958 C957 1.351 . S
C958 N959 1.373 . S
C958 H986 0.930 . S
N959 C958 1.373 . S
N959 C961 1.340 . S
N960 C957 1.368 . S
N960 C961 1.321 . S
N960 Co963 2.135 1_655 S
C961 N959 1.340 . S
C961 N960 1.321 . S
C961 H985 0.930 . S
H962 C957 0.931 . S
Co963 N960 2.135 1_455 S
Co963 N966 2.121 . S
Co963 O971 2.055 . S
Co963 O974 2.039 . S
Co963 N977 2.140 . S
C964 O965 1.227 . S
C964 O974 1.265 . S
O965 C964 1.227 . S
N966 Co963 2.121 . S
N966 C968 1.375 . S
N966 C969 1.313 . S
C967 C968 1.338 . S
C967 N970 1.377 . S
C967 H987 0.930 . S
C968 N966 1.375 . S
C968 C967 1.338 . S
C968 H972 0.931 . S
C969 N966 1.313 . S
C969 N970 1.344 . S
C969 H973 0.930 . S
N970 C967 1.377 . S
N970 C969 1.344 . S
O971 Co963 2.055 . S
O971 C975 1.253 . S
H972 C968 0.931 . S
H973 C969 0.930 . S
O974 Co963 2.039 . S
O974 C964 1.265 . S
C975 O971 1.253 . S
C975 O976 1.227 . S
O976 C975 1.227 . S
N977 Co963 2.140 . S
N977 C980 1.346 . S
N977 C981 1.345 . S
C978 C979 1.387 . S
C978 C982 1.391 . S
C979 C978 1.387 . S
C979 C980 1.369 . S
C979 H988 0.929 1_455 S
C980 N977 1.346 . S
C980 C979 1.369 . S
C980 H983 0.928 1_455 S
C981 N977 1.345 . S
C981 C982 1.371 . S
C981 H984 0.931 . S
C982 C978 1.391 . S
C982 C981 1.371 . S
C982 H989 0.930 . S
H983 C980 0.928 1_655 S
H984 C981 0.931 . S
H985 C961 0.930 . S
H986 C958 0.930 . S
H987 C967 0.930 . S
H988 C979 0.929 1_655 S
H989 C982 0.930 . S
C990 C991 1.351 . S
C990 N993 1.368 . S
C990 H995 0.931 . S
C991 C990 1.351 . S
C991 N992 1.373 . S
C991 H1019 0.930 . S
N992 C991 1.373 . S
N992 C994 1.340 . S
N993 C990 1.368 . S
N993 C994 1.321 . S
N993 Co996 2.135 . S
C994 N992 1.340 . S
C994 N993 1.321 . S
C994 H1018 0.930 . S
H995 C990 0.931 . S
Co996 N993 2.135 . S
Co996 N999 2.121 . S
Co996 O1004 2.055 . S
Co996 O1007 2.039 . S
Co996 N1010 2.140 . S
C997 O998 1.227 . S
C997 O1007 1.265 . S
O998 C997 1.227 . S
N999 Co996 2.121 . S
N999 C1001 1.375 . S
N999 C1002 1.313 . S
C1000 C1001 1.338 . S
C1000 N1003 1.377 . S
C1000 H1020 0.930 . S
C1001 N999 1.375 . S
C1001 C1000 1.338 . S
C1001 H1005 0.931 . S
C1002 N999 1.313 . S
C1002 N1003 1.344 . S
C1002 H1006 0.930 . S
N1003 C1000 1.377 . S
N1003 C1002 1.344 . S
O1004 Co996 2.055 . S
O1004 C1008 1.253 . S
H1005 C1001 0.931 . S
H1006 C1002 0.930 . S
O1007 Co996 2.039 . S
O1007 C997 1.265 . S
C1008 O1004 1.253 . S
C1008 O1009 1.227 . S
O1009 C1008 1.227 . S
N1010 Co996 2.140 . S
N1010 C1013 1.346 . S
N1010 C1014 1.345 . S
C1011 C1012 1.387 . S
C1011 C1015 1.391 . S
C1012 C1011 1.387 . S
C1012 C1013 1.369 . S
C1012 H1021 0.929 . S
C1013 N1010 1.346 . S
C1013 C1012 1.369 . S
C1013 H1016 0.928 . S
C1014 N1010 1.345 . S
C1014 C1015 1.371 . S
C1014 H1017 0.931 . S
C1015 C1011 1.391 . S
C1015 C1014 1.371 . S
C1015 H1022 0.930 . S
H1016 C1013 0.928 . S
H1017 C1014 0.931 . S
H1018 C994 0.930 . S
H1019 C991 0.930 . S
H1020 C1000 0.930 . S
H1021 C1012 0.929 . S
H1022 C1015 0.930 . S
C1023 C1024 1.351 . S
C1023 N1026 1.368 . S
C1023 H1028 0.931 . S
C1024 C1023 1.351 . S
C1024 N1025 1.373 . S
C1024 H1052 0.930 . S
N1025 C1024 1.373 . S
N1025 C1027 1.340 . S
N1026 C1023 1.368 . S
N1026 C1027 1.321 . S
N1026 Co1029 2.135 . S
C1027 N1025 1.340 . S
C1027 N1026 1.321 . S
C1027 H1051 0.930 . S
H1028 C1023 0.931 . S
Co1029 N1026 2.135 . S
Co1029 N1032 2.121 . S
Co1029 O1037 2.055 . S
Co1029 O1040 2.039 . S
Co1029 N1043 2.140 . S
C1030 O1031 1.227 . S
C1030 O1040 1.265 . S
O1031 C1030 1.227 . S
N1032 Co1029 2.121 . S
N1032 C1034 1.375 . S
N1032 C1035 1.313 . S
C1033 C1034 1.338 . S
C1033 N1036 1.377 . S
C1033 H1053 0.930 . S
C1034 N1032 1.375 . S
C1034 C1033 1.338 . S
C1034 H1038 0.931 . S
C1035 N1032 1.313 . S
C1035 N1036 1.344 . S
C1035 H1039 0.930 . S
N1036 C1033 1.377 . S
N1036 C1035 1.344 . S
O1037 Co1029 2.055 . S
O1037 C1041 1.253 . S
H1038 C1034 0.931 . S
H1039 C1035 0.930 . S
O1040 Co1029 2.039 . S
O1040 C1030 1.265 . S
C1041 O1037 1.253 . S
C1041 O1042 1.227 . S
O1042 C1041 1.227 . S
N1043 Co1029 2.140 . S
N1043 C1046 1.346 . S
N1043 C1047 1.345 . S
C1044 C1045 1.387 . S
C1044 C1048 1.391 . S
C1045 C1044 1.387 . S
C1045 C1046 1.369 . S
C1045 H1054 0.929 . S
C1046 N1043 1.346 . S
C1046 C1045 1.369 . S
C1046 H1049 0.928 . S
C1047 N1043 1.345 . S
C1047 C1048 1.371 . S
C1047 H1050 0.931 . S
C1048 C1044 1.391 . S
C1048 C1047 1.371 . S
C1048 H1055 0.930 . S
H1049 C1046 0.928 . S
H1050 C1047 0.931 . S
H1051 C1027 0.930 . S
H1052 C1024 0.930 . S
H1053 C1033 0.930 . S
H1054 C1045 0.929 . S
H1055 C1048 0.930 . S
H1056 C1068 0.930 . S
H1057 C1070 0.930 . S
H1058 C1071 0.930 . S
H1059 C1075 0.959 . S
H1060 C1075 0.959 . S
H1061 C1075 0.961 . S
H1062 C1076 0.960 . S
H1063 C1076 0.961 . S
H1064 C1076 0.959 . S
H1065 C1079 0.929 . S
H1066 C1080 0.931 . S
H1067 C1082 0.930 . S
C1068 H1056 0.930 . S
C1068 C1069 1.399 . S
C1068 C1073 1.399 . S
C1069 C1068 1.399 . S
C1069 C1070 1.376 . S
C1070 H1057 0.930 . S
C1070 C1069 1.376 . S
C1070 C1071 1.388 . S
C1071 H1058 0.930 . S
C1071 C1070 1.388 . S
C1071 C1072 1.390 . S
C1072 C1071 1.390 . S
C1072 C1073 1.394 . S
C1072 C1078 1.465 . S
C1073 C1068 1.399 . S
C1073 C1072 1.394 . S
C1073 C1074 1.516 . S
C1074 C1073 1.516 . S
C1074 C1075 1.502 . S
C1074 C1076 1.561 . S
C1074 C1077 1.526 . S
C1075 H1059 0.959 . S
C1075 H1060 0.959 . S
C1075 H1061 0.961 . S
C1075 C1074 1.502 . S
C1076 H1062 0.960 . S
C1076 H1063 0.961 . S
C1076 H1064 0.959 . S
C1076 C1074 1.561 . S
C1077 C1074 1.526 . S
C1077 C1078 1.396 . S
C1077 C1082 1.390 . S
C1078 C1072 1.465 . S
C1078 C1077 1.396 . S
C1078 C1079 1.399 . S
C1079 H1065 0.929 . S
C1079 C1078 1.399 . S
C1079 C1080 1.385 . S
C1080 H1066 0.931 . S
C1080 C1079 1.385 . S
C1080 C1081 1.389 . S
C1081 C1080 1.389 . S
C1081 C1082 1.387 . S
C1082 H1067 0.930 . S
C1082 C1077 1.390 . S
C1082 C1081 1.387 . S
H1083 C1095 0.930 . S
H1084 C1097 0.930 . S
H1085 C1098 0.930 . S
H1086 C1102 0.959 . S
H1087 C1102 0.959 . S
H1088 C1102 0.961 . S
H1089 C1103 0.960 . S
H1090 C1103 0.961 . S
H1091 C1103 0.959 . S
H1092 C1106 0.929 . S
H1093 C1107 0.931 . S
H1094 C1109 0.930 . S
C1095 H1083 0.930 . S
C1095 C1096 1.399 . S
C1095 C1100 1.399 . S
C1096 C1095 1.399 . S
C1096 C1097 1.376 . S
C1097 H1084 0.930 . S
C1097 C1096 1.376 . S
C1097 C1098 1.388 . S
C1098 H1085 0.930 . S
C1098 C1097 1.388 . S
C1098 C1099 1.390 . S
C1099 C1098 1.390 . S
C1099 C1100 1.394 . S
C1099 C1105 1.465 . S
C1100 C1095 1.399 . S
C1100 C1099 1.394 . S
C1100 C1101 1.516 . S
C1101 C1100 1.516 . S
C1101 C1102 1.502 . S
C1101 C1103 1.561 . S
C1101 C1104 1.526 . S
C1102 H1086 0.959 . S
C1102 H1087 0.959 . S
C1102 H1088 0.961 . S
C1102 C1101 1.502 . S
C1103 H1089 0.960 . S
C1103 H1090 0.961 . S
C1103 H1091 0.959 . S
C1103 C1101 1.561 . S
C1104 C1101 1.526 . S
C1104 C1105 1.396 . S
C1104 C1109 1.390 . S
C1105 C1099 1.465 . S
C1105 C1104 1.396 . S
C1105 C1106 1.399 . S
C1106 H1092 0.929 . S
C1106 C1105 1.399 . S
C1106 C1107 1.385 . S
C1107 H1093 0.931 . S
C1107 C1106 1.385 . S
C1107 C1108 1.389 . S
C1108 C1107 1.389 . S
C1108 C1109 1.387 . S
C1109 H1094 0.930 . S
C1109 C1104 1.390 . S
C1109 C1108 1.387 . S
H1110 C1122 0.930 . S
H1111 C1124 0.930 . S
H1112 C1125 0.930 . S
H1113 C1129 0.959 . S
H1114 C1129 0.959 . S
H1115 C1129 0.961 . S
H1116 C1130 0.960 . S
H1117 C1130 0.961 . S
H1118 C1130 0.959 . S
H1119 C1133 0.929 . S
H1120 C1134 0.931 . S
H1121 C1136 0.930 . S
C1122 H1110 0.930 . S
C1122 C1123 1.399 . S
C1122 C1127 1.399 . S
C1123 C1122 1.399 . S
C1123 C1124 1.376 . S
C1124 H1111 0.930 . S
C1124 C1123 1.376 . S
C1124 C1125 1.388 . S
C1125 H1112 0.930 . S
C1125 C1124 1.388 . S
C1125 C1126 1.390 . S
C1126 C1125 1.390 . S
C1126 C1127 1.394 . S
C1126 C1132 1.465 . S
C1127 C1122 1.399 . S
C1127 C1126 1.394 . S
C1127 C1128 1.516 . S
C1128 C1127 1.516 . S
C1128 C1129 1.502 . S
C1128 C1130 1.561 . S
C1128 C1131 1.526 . S
C1129 H1113 0.959 . S
C1129 H1114 0.959 . S
C1129 H1115 0.961 . S
C1129 C1128 1.502 . S
C1130 H1116 0.960 . S
C1130 H1117 0.961 . S
C1130 H1118 0.959 . S
C1130 C1128 1.561 . S
C1131 C1128 1.526 . S
C1131 C1132 1.396 . S
C1131 C1136 1.390 . S
C1132 C1126 1.465 . S
C1132 C1131 1.396 . S
C1132 C1133 1.399 . S
C1133 H1119 0.929 . S
C1133 C1132 1.399 . S
C1133 C1134 1.385 . S
C1134 H1120 0.931 . S
C1134 C1133 1.385 . S
C1134 C1135 1.389 . S
C1135 C1134 1.389 . S
C1135 C1136 1.387 . S
C1136 H1121 0.930 . S
C1136 C1131 1.390 . S
C1136 C1135 1.387 . S
H1137 C1149 0.930 . S
H1138 C1151 0.930 . S
H1139 C1152 0.930 . S
H1140 C1156 0.959 . S
H1141 C1156 0.959 . S
H1142 C1156 0.961 . S
H1143 C1157 0.960 . S
H1144 C1157 0.961 . S
H1145 C1157 0.959 . S
H1146 C1160 0.929 . S
H1147 C1161 0.931 . S
H1148 C1163 0.930 . S
C1149 H1137 0.930 . S
C1149 C1150 1.399 . S
C1149 C1154 1.399 . S
C1150 C1149 1.399 . S
C1150 C1151 1.376 . S
C1151 H1138 0.930 . S
C1151 C1150 1.376 . S
C1151 C1152 1.388 . S
C1152 H1139 0.930 . S
C1152 C1151 1.388 . S
C1152 C1153 1.390 . S
C1153 C1152 1.390 . S
C1153 C1154 1.394 . S
C1153 C1159 1.465 . S
C1154 C1149 1.399 . S
C1154 C1153 1.394 . S
C1154 C1155 1.516 . S
C1155 C1154 1.516 . S
C1155 C1156 1.502 . S
C1155 C1157 1.561 . S
C1155 C1158 1.526 . S
C1156 H1140 0.959 . S
C1156 H1141 0.959 . S
C1156 H1142 0.961 . S
C1156 C1155 1.502 . S
C1157 H1143 0.960 . S
C1157 H1144 0.961 . S
C1157 H1145 0.959 . S
C1157 C1155 1.561 . S
C1158 C1155 1.526 . S
C1158 C1159 1.396 . S
C1158 C1163 1.390 . S
C1159 C1153 1.465 . S
C1159 C1158 1.396 . S
C1159 C1160 1.399 . S
C1160 H1146 0.929 . S
C1160 C1159 1.399 . S
C1160 C1161 1.385 . S
C1161 H1147 0.931 . S
C1161 C1160 1.385 . S
C1161 C1162 1.389 . S
C1162 C1161 1.389 . S
C1162 C1163 1.387 . S
C1163 H1148 0.930 . S
C1163 C1158 1.390 . S
C1163 C1162 1.387 . S
H1164 C1176 0.930 . S
H1165 C1178 0.930 . S
H1166 C1179 0.930 . S
H1167 C1183 0.959 . S
H1168 C1183 0.959 . S
H1169 C1183 0.961 . S
H1170 C1184 0.960 . S
H1171 C1184 0.961 . S
H1172 C1184 0.959 . S
H1173 C1187 0.929 . S
H1174 C1188 0.931 . S
H1175 C1190 0.930 . S
C1176 H1164 0.930 . S
C1176 C1177 1.399 . S
C1176 C1181 1.399 . S
C1177 C1176 1.399 . S
C1177 C1178 1.376 . S
C1178 H1165 0.930 . S
C1178 C1177 1.376 . S
C1178 C1179 1.388 . S
C1179 H1166 0.930 . S
C1179 C1178 1.388 . S
C1179 C1180 1.390 . S
C1180 C1179 1.390 . S
C1180 C1181 1.394 . S
C1180 C1186 1.465 . S
C1181 C1176 1.399 . S
C1181 C1180 1.394 . S
C1181 C1182 1.516 . S
C1182 C1181 1.516 . S
C1182 C1183 1.502 . S
C1182 C1184 1.561 . S
C1182 C1185 1.526 . S
C1183 H1167 0.959 . S
C1183 H1168 0.959 . S
C1183 H1169 0.961 . S
C1183 C1182 1.502 . S
C1184 H1170 0.960 . S
C1184 H1171 0.961 . S
C1184 H1172 0.959 . S
C1184 C1182 1.561 . S
C1185 C1182 1.526 . S
C1185 C1186 1.396 . S
C1185 C1190 1.390 . S
C1186 C1180 1.465 . S
C1186 C1185 1.396 . S
C1186 C1187 1.399 . S
C1187 H1173 0.929 . S
C1187 C1186 1.399 . S
C1187 C1188 1.385 . S
C1188 H1174 0.931 . S
C1188 C1187 1.385 . S
C1188 C1189 1.389 . S
C1189 C1188 1.389 . S
C1189 C1190 1.387 . S
C1190 H1175 0.930 . S
C1190 C1185 1.390 . S
C1190 C1189 1.387 . S
H1191 C1203 0.930 . S
H1192 C1205 0.930 . S
H1193 C1206 0.930 . S
H1194 C1210 0.959 . S
H1195 C1210 0.959 . S
H1196 C1210 0.961 . S
H1197 C1211 0.960 . S
H1198 C1211 0.961 . S
H1199 C1211 0.959 . S
H1200 C1214 0.929 . S
H1201 C1215 0.931 . S
H1202 C1217 0.930 . S
C1203 H1191 0.930 . S
C1203 C1204 1.399 . S
C1203 C1208 1.399 . S
C1204 C1203 1.399 . S
C1204 C1205 1.376 . S
C1205 H1192 0.930 . S
C1205 C1204 1.376 . S
C1205 C1206 1.388 . S
C1206 H1193 0.930 . S
C1206 C1205 1.388 . S
C1206 C1207 1.390 . S
C1207 C1206 1.390 . S
C1207 C1208 1.394 . S
C1207 C1213 1.465 . S
C1208 C1203 1.399 . S
C1208 C1207 1.394 . S
C1208 C1209 1.516 . S
C1209 C1208 1.516 . S
C1209 C1210 1.502 . S
C1209 C1211 1.561 . S
C1209 C1212 1.526 . S
C1210 H1194 0.959 . S
C1210 H1195 0.959 . S
C1210 H1196 0.961 . S
C1210 C1209 1.502 . S
C1211 H1197 0.960 . S
C1211 H1198 0.961 . S
C1211 H1199 0.959 . S
C1211 C1209 1.561 . S
C1212 C1209 1.526 . S
C1212 C1213 1.396 . S
C1212 C1217 1.390 . S
C1213 C1207 1.465 . S
C1213 C1212 1.396 . S
C1213 C1214 1.399 . S
C1214 H1200 0.929 . S
C1214 C1213 1.399 . S
C1214 C1215 1.385 . S
C1215 H1201 0.931 . S
C1215 C1214 1.385 . S
C1215 C1216 1.389 . S
C1216 C1215 1.389 . S
C1216 C1217 1.387 . S
C1217 H1202 0.930 . S
C1217 C1212 1.390 . S
C1217 C1216 1.387 . S
H1218 C1230 0.930 . S
H1219 C1232 0.930 . S
H1220 C1233 0.930 . S
H1221 C1237 0.959 . S
H1222 C1237 0.959 . S
H1223 C1237 0.961 . S
H1224 C1238 0.960 . S
H1225 C1238 0.961 . S
H1226 C1238 0.959 . S
H1227 C1241 0.929 . S
H1228 C1242 0.931 . S
H1229 C1244 0.930 . S
C1230 H1218 0.930 . S
C1230 C1231 1.399 . S
C1230 C1235 1.399 . S
C1231 C1230 1.399 . S
C1231 C1232 1.376 . S
C1232 H1219 0.930 . S
C1232 C1231 1.376 . S
C1232 C1233 1.388 . S
C1233 H1220 0.930 . S
C1233 C1232 1.388 . S
C1233 C1234 1.390 . S
C1234 C1233 1.390 . S
C1234 C1235 1.394 . S
C1234 C1240 1.465 . S
C1235 C1230 1.399 . S
C1235 C1234 1.394 . S
C1235 C1236 1.516 . S
C1236 C1235 1.516 . S
C1236 C1237 1.502 . S
C1236 C1238 1.561 . S
C1236 C1239 1.526 . S
C1237 H1221 0.959 . S
C1237 H1222 0.959 . S
C1237 H1223 0.961 . S
C1237 C1236 1.502 . S
C1238 H1224 0.960 . S
C1238 H1225 0.961 . S
C1238 H1226 0.959 . S
C1238 C1236 1.561 . S
C1239 C1236 1.526 . S
C1239 C1240 1.396 . S
C1239 C1244 1.390 . S
C1240 C1234 1.465 . S
C1240 C1239 1.396 . S
C1240 C1241 1.399 . S
C1241 H1227 0.929 . S
C1241 C1240 1.399 . S
C1241 C1242 1.385 . S
C1242 H1228 0.931 . S
C1242 C1241 1.385 . S
C1242 C1243 1.389 . S
C1243 C1242 1.389 . S
C1243 C1244 1.387 . S
C1244 H1229 0.930 . S
C1244 C1239 1.390 . S
C1244 C1243 1.387 . S
H1245 C1257 0.930 . S
H1246 C1259 0.930 . S
H1247 C1260 0.930 . S
H1248 C1264 0.959 . S
H1249 C1264 0.959 . S
H1250 C1264 0.961 . S
H1251 C1265 0.960 . S
H1252 C1265 0.961 . S
H1253 C1265 0.959 . S
H1254 C1268 0.929 . S
H1255 C1269 0.931 . S
H1256 C1271 0.930 . S
C1257 H1245 0.930 . S
C1257 C1258 1.399 . S
C1257 C1262 1.399 . S
C1258 C1257 1.399 . S
C1258 C1259 1.376 . S
C1259 H1246 0.930 . S
C1259 C1258 1.376 . S
C1259 C1260 1.388 . S
C1260 H1247 0.930 . S
C1260 C1259 1.388 . S
C1260 C1261 1.390 . S
C1261 C1260 1.390 . S
C1261 C1262 1.394 . S
C1261 C1267 1.465 . S
C1262 C1257 1.399 . S
C1262 C1261 1.394 . S
C1262 C1263 1.516 . S
C1263 C1262 1.516 . S
C1263 C1264 1.502 . S
C1263 C1265 1.561 . S
C1263 C1266 1.526 . S
C1264 H1248 0.959 . S
C1264 H1249 0.959 . S
C1264 H1250 0.961 . S
C1264 C1263 1.502 . S
C1265 H1251 0.960 . S
C1265 H1252 0.961 . S
C1265 H1253 0.959 . S
C1265 C1263 1.561 . S
C1266 C1263 1.526 . S
C1266 C1267 1.396 . S
C1266 C1271 1.390 . S
C1267 C1261 1.465 . S
C1267 C1266 1.396 . S
C1267 C1268 1.399 . S
C1268 H1254 0.929 . S
C1268 C1267 1.399 . S
C1268 C1269 1.385 . S
C1269 H1255 0.931 . S
C1269 C1268 1.385 . S
C1269 C1270 1.389 . S
C1270 C1269 1.389 . S
C1270 C1271 1.387 . S
C1271 H1256 0.930 . S
C1271 C1266 1.390 . S
C1271 C1270 1.387 . S
H1272 C1284 0.930 . S
H1273 C1286 0.930 . S
H1274 C1287 0.930 . S
H1275 C1291 0.959 . S
H1276 C1291 0.959 . S
H1277 C1291 0.961 . S
H1278 C1292 0.960 . S
H1279 C1292 0.961 . S
H1280 C1292 0.959 . S
H1281 C1295 0.929 . S
H1282 C1296 0.931 . S
H1283 C1298 0.930 . S
C1284 H1272 0.930 . S
C1284 C1285 1.399 . S
C1284 C1289 1.399 . S
C1285 C1284 1.399 . S
C1285 C1286 1.376 . S
C1286 H1273 0.930 . S
C1286 C1285 1.376 . S
C1286 C1287 1.388 . S
C1287 H1274 0.930 . S
C1287 C1286 1.388 . S
C1287 C1288 1.390 . S
C1288 C1287 1.390 . S
C1288 C1289 1.394 . S
C1288 C1294 1.465 . S
C1289 C1284 1.399 . S
C1289 C1288 1.394 . S
C1289 C1290 1.516 . S
C1290 C1289 1.516 . S
C1290 C1291 1.502 . S
C1290 C1292 1.561 . S
C1290 C1293 1.526 . S
C1291 H1275 0.959 . S
C1291 H1276 0.959 . S
C1291 H1277 0.961 . S
C1291 C1290 1.502 . S
C1292 H1278 0.960 . S
C1292 H1279 0.961 . S
C1292 H1280 0.959 . S
C1292 C1290 1.561 . S
C1293 C1290 1.526 . S
C1293 C1294 1.396 . S
C1293 C1298 1.390 . S
C1294 C1288 1.465 . S
C1294 C1293 1.396 . S
C1294 C1295 1.399 . S
C1295 H1281 0.929 . S
C1295 C1294 1.399 . S
C1295 C1296 1.385 . S
C1296 H1282 0.931 . S
C1296 C1295 1.385 . S
C1296 C1297 1.389 . S
C1297 C1296 1.389 . S
C1297 C1298 1.387 . S
C1298 H1283 0.930 . S
C1298 C1293 1.390 . S
C1298 C1297 1.387 . S
H1299 C1311 0.930 . S
H1300 C1313 0.930 . S
H1301 C1314 0.930 . S
H1302 C1318 0.959 . S
H1303 C1318 0.959 . S
H1304 C1318 0.961 . S
H1305 C1319 0.960 . S
H1306 C1319 0.961 . S
H1307 C1319 0.959 . S
H1308 C1322 0.929 . S
H1309 C1323 0.931 . S
H1310 C1325 0.930 . S
C1311 H1299 0.930 . S
C1311 C1312 1.399 . S
C1311 C1316 1.399 . S
C1312 C1311 1.399 . S
C1312 C1313 1.376 . S
C1313 H1300 0.930 . S
C1313 C1312 1.376 . S
C1313 C1314 1.388 . S
C1314 H1301 0.930 . S
C1314 C1313 1.388 . S
C1314 C1315 1.390 . S
C1315 C1314 1.390 . S
C1315 C1316 1.394 . S
C1315 C1321 1.465 . S
C1316 C1311 1.399 . S
C1316 C1315 1.394 . S
C1316 C1317 1.516 . S
C1317 C1316 1.516 . S
C1317 C1318 1.502 . S
C1317 C1319 1.561 . S
C1317 C1320 1.526 . S
C1318 H1302 0.959 . S
C1318 H1303 0.959 . S
C1318 H1304 0.961 . S
C1318 C1317 1.502 . S
C1319 H1305 0.960 . S
C1319 H1306 0.961 . S
C1319 H1307 0.959 . S
C1319 C1317 1.561 . S
C1320 C1317 1.526 . S
C1320 C1321 1.396 . S
C1320 C1325 1.390 . S
C1321 C1315 1.465 . S
C1321 C1320 1.396 . S
C1321 C1322 1.399 . S
C1322 H1308 0.929 . S
C1322 C1321 1.399 . S
C1322 C1323 1.385 . S
C1323 H1309 0.931 . S
C1323 C1322 1.385 . S
C1323 C1324 1.389 . S
C1324 C1323 1.389 . S
C1324 C1325 1.387 . S
C1325 H1310 0.930 . S
C1325 C1320 1.390 . S
C1325 C1324 1.387 . S
H1326 C1338 0.930 . S
H1327 C1340 0.930 . S
H1328 C1341 0.930 . S
H1329 C1345 0.959 . S
H1330 C1345 0.959 . S
H1331 C1345 0.961 . S
H1332 C1346 0.960 . S
H1333 C1346 0.961 . S
H1334 C1346 0.959 . S
H1335 C1349 0.929 . S
H1336 C1350 0.931 . S
H1337 C1352 0.930 . S
C1338 H1326 0.930 . S
C1338 C1339 1.399 . S
C1338 C1343 1.399 . S
C1339 C1338 1.399 . S
C1339 C1340 1.376 . S
C1340 H1327 0.930 . S
C1340 C1339 1.376 . S
C1340 C1341 1.388 . S
C1341 H1328 0.930 . S
C1341 C1340 1.388 . S
C1341 C1342 1.390 . S
C1342 C1341 1.390 . S
C1342 C1343 1.394 . S
C1342 C1348 1.465 . S
C1343 C1338 1.399 . S
C1343 C1342 1.394 . S
C1343 C1344 1.516 . S
C1344 C1343 1.516 . S
C1344 C1345 1.502 . S
C1344 C1346 1.561 . S
C1344 C1347 1.526 . S
C1345 H1329 0.959 . S
C1345 H1330 0.959 . S
C1345 H1331 0.961 . S
C1345 C1344 1.502 . S
C1346 H1332 0.960 . S
C1346 H1333 0.961 . S
C1346 H1334 0.959 . S
C1346 C1344 1.561 . S
C1347 C1344 1.526 . S
C1347 C1348 1.396 . S
C1347 C1352 1.390 . S
C1348 C1342 1.465 . S
C1348 C1347 1.396 . S
C1348 C1349 1.399 . S
C1349 H1335 0.929 . S
C1349 C1348 1.399 . S
C1349 C1350 1.385 . S
C1350 H1336 0.931 . S
C1350 C1349 1.385 . S
C1350 C1351 1.389 . S
C1351 C1350 1.389 . S
C1351 C1352 1.387 . S
C1352 H1337 0.930 . S
C1352 C1347 1.390 . S
C1352 C1351 1.387 . S
H1353 C1365 0.930 . S
H1354 C1367 0.930 . S
H1355 C1368 0.930 . S
H1356 C1372 0.959 . S
H1357 C1372 0.959 . S
H1358 C1372 0.961 . S
H1359 C1373 0.960 . S
H1360 C1373 0.961 . S
H1361 C1373 0.959 . S
H1362 C1376 0.929 . S
H1363 C1377 0.931 . S
H1364 C1379 0.930 . S
C1365 H1353 0.930 . S
C1365 C1366 1.399 . S
C1365 C1370 1.399 . S
C1366 C1365 1.399 . S
C1366 C1367 1.376 . S
C1367 H1354 0.930 . S
C1367 C1366 1.376 . S
C1367 C1368 1.388 . S
C1368 H1355 0.930 . S
C1368 C1367 1.388 . S
C1368 C1369 1.390 . S
C1369 C1368 1.390 . S
C1369 C1370 1.394 . S
C1369 C1375 1.465 . S
C1370 C1365 1.399 . S
C1370 C1369 1.394 . S
C1370 C1371 1.516 . S
C1371 C1370 1.516 . S
C1371 C1372 1.502 . S
C1371 C1373 1.561 . S
C1371 C1374 1.526 . S
C1372 H1356 0.959 . S
C1372 H1357 0.959 . S
C1372 H1358 0.961 . S
C1372 C1371 1.502 . S
C1373 H1359 0.960 . S
C1373 H1360 0.961 . S
C1373 H1361 0.959 . S
C1373 C1371 1.561 . S
C1374 C1371 1.526 . S
C1374 C1375 1.396 . S
C1374 C1379 1.390 . S
C1375 C1369 1.465 . S
C1375 C1374 1.396 . S
C1375 C1376 1.399 . S
C1376 H1362 0.929 . S
C1376 C1375 1.399 . S
C1376 C1377 1.385 . S
C1377 H1363 0.931 . S
C1377 C1376 1.385 . S
C1377 C1378 1.389 . S
C1378 C1377 1.389 . S
C1378 C1379 1.387 . S
C1379 H1364 0.930 . S
C1379 C1374 1.390 . S
C1379 C1378 1.387 . S
H1380 C1392 0.930 . S
H1381 C1394 0.930 . S
H1382 C1395 0.930 . S
H1383 C1399 0.959 . S
H1384 C1399 0.959 . S
H1385 C1399 0.961 . S
H1386 C1400 0.960 . S
H1387 C1400 0.961 . S
H1388 C1400 0.959 . S
H1389 C1403 0.929 . S
H1390 C1404 0.931 . S
H1391 C1406 0.930 . S
C1392 H1380 0.930 . S
C1392 C1393 1.399 . S
C1392 C1397 1.399 . S
C1393 C1392 1.399 . S
C1393 C1394 1.376 . S
C1394 H1381 0.930 . S
C1394 C1393 1.376 . S
C1394 C1395 1.388 . S
C1395 H1382 0.930 . S
C1395 C1394 1.388 . S
C1395 C1396 1.390 . S
C1396 C1395 1.390 . S
C1396 C1397 1.394 . S
C1396 C1402 1.465 . S
C1397 C1392 1.399 . S
C1397 C1396 1.394 . S
C1397 C1398 1.516 . S
C1398 C1397 1.516 . S
C1398 C1399 1.502 . S
C1398 C1400 1.561 . S
C1398 C1401 1.526 . S
C1399 H1383 0.959 . S
C1399 H1384 0.959 . S
C1399 H1385 0.961 . S
C1399 C1398 1.502 . S
C1400 H1386 0.960 . S
C1400 H1387 0.961 . S
C1400 H1388 0.959 . S
C1400 C1398 1.561 . S
C1401 C1398 1.526 . S
C1401 C1402 1.396 . S
C1401 C1406 1.390 . S
C1402 C1396 1.465 . S
C1402 C1401 1.396 . S
C1402 C1403 1.399 . S
C1403 H1389 0.929 . S
C1403 C1402 1.399 . S
C1403 C1404 1.385 . S
C1404 H1390 0.931 . S
C1404 C1403 1.385 . S
C1404 C1405 1.389 . S
C1405 C1404 1.389 . S
C1405 C1406 1.387 . S
C1406 H1391 0.930 . S
C1406 C1401 1.390 . S
C1406 C1405 1.387 . S
H1407 C1419 0.930 . S
H1408 C1421 0.930 . S
H1409 C1422 0.930 . S
H1410 C1426 0.959 . S
H1411 C1426 0.959 . S
H1412 C1426 0.961 . S
H1413 C1427 0.960 . S
H1414 C1427 0.961 . S
H1415 C1427 0.959 . S
H1416 C1430 0.929 . S
H1417 C1431 0.931 . S
H1418 C1433 0.930 . S
C1419 H1407 0.930 . S
C1419 C1420 1.399 . S
C1419 C1424 1.399 . S
C1420 C1419 1.399 . S
C1420 C1421 1.376 . S
C1421 H1408 0.930 . S
C1421 C1420 1.376 . S
C1421 C1422 1.388 . S
C1422 H1409 0.930 . S
C1422 C1421 1.388 . S
C1422 C1423 1.390 . S
C1423 C1422 1.390 . S
C1423 C1424 1.394 . S
C1423 C1429 1.465 . S
C1424 C1419 1.399 . S
C1424 C1423 1.394 . S
C1424 C1425 1.516 . S
C1425 C1424 1.516 . S
C1425 C1426 1.502 . S
C1425 C1427 1.561 . S
C1425 C1428 1.526 . S
C1426 H1410 0.959 . S
C1426 H1411 0.959 . S
C1426 H1412 0.961 . S
C1426 C1425 1.502 . S
C1427 H1413 0.960 . S
C1427 H1414 0.961 . S
C1427 H1415 0.959 . S
C1427 C1425 1.561 . S
C1428 C1425 1.526 . S
C1428 C1429 1.396 . S
C1428 C1433 1.390 . S
C1429 C1423 1.465 . S
C1429 C1428 1.396 . S
C1429 C1430 1.399 . S
C1430 H1416 0.929 . S
C1430 C1429 1.399 . S
C1430 C1431 1.385 . S
C1431 H1417 0.931 . S
C1431 C1430 1.385 . S
C1431 C1432 1.389 . S
C1432 C1431 1.389 . S
C1432 C1433 1.387 . S
C1433 H1418 0.930 . S
C1433 C1428 1.390 . S
C1433 C1432 1.387 . S
H1434 C1446 0.930 . S
H1435 C1448 0.930 . S
H1436 C1449 0.930 . S
H1437 C1453 0.959 . S
H1438 C1453 0.959 . S
H1439 C1453 0.961 . S
H1440 C1454 0.960 . S
H1441 C1454 0.961 . S
H1442 C1454 0.959 . S
H1443 C1457 0.929 . S
H1444 C1458 0.931 . S
H1445 C1460 0.930 . S
C1446 H1434 0.930 . S
C1446 C1447 1.399 . S
C1446 C1451 1.399 . S
C1447 C1446 1.399 . S
C1447 C1448 1.376 . S
C1448 H1435 0.930 . S
C1448 C1447 1.376 . S
C1448 C1449 1.388 . S
C1449 H1436 0.930 . S
C1449 C1448 1.388 . S
C1449 C1450 1.390 . S
C1450 C1449 1.390 . S
C1450 C1451 1.394 . S
C1450 C1456 1.465 . S
C1451 C1446 1.399 . S
C1451 C1450 1.394 . S
C1451 C1452 1.516 . S
C1452 C1451 1.516 . S
C1452 C1453 1.502 . S
C1452 C1454 1.561 . S
C1452 C1455 1.526 . S
C1453 H1437 0.959 . S
C1453 H1438 0.959 . S
C1453 H1439 0.961 . S
C1453 C1452 1.502 . S
C1454 H1440 0.960 . S
C1454 H1441 0.961 . S
C1454 H1442 0.959 . S
C1454 C1452 1.561 . S
C1455 C1452 1.526 . S
C1455 C1456 1.396 . S
C1455 C1460 1.390 . S
C1456 C1450 1.465 . S
C1456 C1455 1.396 . S
C1456 C1457 1.399 . S
C1457 H1443 0.929 . S
C1457 C1456 1.399 . S
C1457 C1458 1.385 . S
C1458 H1444 0.931 . S
C1458 C1457 1.385 . S
C1458 C1459 1.389 . S
C1459 C1458 1.389 . S
C1459 C1460 1.387 . S
C1460 H1445 0.930 . S
C1460 C1455 1.390 . S
C1460 C1459 1.387 . S
H1461 C1473 0.930 . S
H1462 C1475 0.930 . S
H1463 C1476 0.930 . S
H1464 C1480 0.959 . S
H1465 C1480 0.959 . S
H1466 C1480 0.961 . S
H1467 C1481 0.960 . S
H1468 C1481 0.961 . S
H1469 C1481 0.959 . S
H1470 C1484 0.929 . S
H1471 C1485 0.931 . S
H1472 C1487 0.930 . S
C1473 H1461 0.930 . S
C1473 C1474 1.399 . S
C1473 C1478 1.399 . S
C1474 C1473 1.399 . S
C1474 C1475 1.376 . S
C1475 H1462 0.930 . S
C1475 C1474 1.376 . S
C1475 C1476 1.388 . S
C1476 H1463 0.930 . S
C1476 C1475 1.388 . S
C1476 C1477 1.390 . S
C1477 C1476 1.390 . S
C1477 C1478 1.394 . S
C1477 C1483 1.465 . S
C1478 C1473 1.399 . S
C1478 C1477 1.394 . S
C1478 C1479 1.516 . S
C1479 C1478 1.516 . S
C1479 C1480 1.502 . S
C1479 C1481 1.561 . S
C1479 C1482 1.526 . S
C1480 H1464 0.959 . S
C1480 H1465 0.959 . S
C1480 H1466 0.961 . S
C1480 C1479 1.502 . S
C1481 H1467 0.960 . S
C1481 H1468 0.961 . S
C1481 H1469 0.959 . S
C1481 C1479 1.561 . S
C1482 C1479 1.526 . S
C1482 C1483 1.396 . S
C1482 C1487 1.390 . S
C1483 C1477 1.465 . S
C1483 C1482 1.396 . S
C1483 C1484 1.399 . S
C1484 H1470 0.929 . S
C1484 C1483 1.399 . S
C1484 C1485 1.385 . S
C1485 H1471 0.931 . S
C1485 C1484 1.385 . S
C1485 C1486 1.389 . S
C1486 C1485 1.389 . S
C1486 C1487 1.387 . S
C1487 H1472 0.930 . S
C1487 C1482 1.390 . S
C1487 C1486 1.387 . S
H1488 C1500 0.930 . S
H1489 C1502 0.930 . S
H1490 C1503 0.930 . S
H1491 C1507 0.959 . S
H1492 C1507 0.959 1_554 S
H1493 C1507 0.961 . S
H1494 C1508 0.924 1_556 S
H1495 C1508 0.992 . S
H1496 C1508 0.968 . S
H1497 C1511 0.929 . S
H1498 C1512 0.931 . S
H1499 C1514 0.930 . S
C1500 H1488 0.930 . S
C1500 C1501 1.399 . S
C1500 C1505 1.399 . S
C1501 C1500 1.399 . S
C1501 C1502 1.376 . S
C1502 H1489 0.930 . S
C1502 C1501 1.376 . S
C1502 C1503 1.388 . S
C1503 H1490 0.930 . S
C1503 C1502 1.388 . S
C1503 C1504 1.390 . S
C1504 C1503 1.390 . S
C1504 C1505 1.394 . S
C1504 C1510 1.465 1_556 S
C1505 C1500 1.399 . S
C1505 C1504 1.394 . S
C1505 C1506 1.555 . S
C1506 C1505 1.555 . S
C1506 C1507 1.508 . S
C1506 C1508 1.557 1_556 S
C1506 C1509 1.485 1_556 S
C1507 H1491 0.959 . S
C1507 H1492 0.959 1_556 S
C1507 H1493 0.961 . S
C1507 C1506 1.508 . S
C1508 H1494 0.924 1_554 S
C1508 H1495 0.992 . S
C1508 H1496 0.968 . S
C1508 C1506 1.557 1_554 S
C1509 C1506 1.485 1_554 S
C1509 C1510 1.396 . S
C1509 C1514 1.390 . S
C1510 C1504 1.465 1_554 S
C1510 C1509 1.396 . S
C1510 C1511 1.399 . S
C1511 H1497 0.929 . S
C1511 C1510 1.399 . S
C1511 C1512 1.385 . S
C1512 H1498 0.931 . S
C1512 C1511 1.385 . S
C1512 C1513 1.389 . S
C1513 C1512 1.389 . S
C1513 C1514 1.387 . S
C1514 H1499 0.930 . S
C1514 C1509 1.390 . S
C1514 C1513 1.387 . S
H1515 C1527 0.930 . S
H1516 C1529 0.930 . S
H1517 C1530 0.930 . S
H1518 C1534 0.959 . S
H1519 C1534 0.959 . S
H1520 C1534 0.961 . S
H1521 C1535 0.960 . S
H1522 C1535 0.961 . S
H1523 C1535 0.959 . S
H1524 C1538 0.929 . S
H1525 C1539 0.931 . S
H1526 C1541 0.930 . S
C1527 H1515 0.930 . S
C1527 C1528 1.399 1_545 S
C1527 C1532 1.399 . S
C1528 C1527 1.399 1_565 S
C1528 C1529 1.376 . S
C1529 H1516 0.930 . S
C1529 C1528 1.376 . S
C1529 C1530 1.388 . S
C1530 H1517 0.930 . S
C1530 C1529 1.388 . S
C1530 C1531 1.390 . S
C1531 C1530 1.390 . S
C1531 C1532 1.394 1_565 S
C1531 C1537 1.465 . S
C1532 C1527 1.399 . S
C1532 C1531 1.394 1_545 S
C1532 C1533 1.516 . S
C1533 C1532 1.516 . S
C1533 C1534 1.502 1_455 S
C1533 C1535 1.561 . S
C1533 C1536 1.526 . S
C1534 H1518 0.959 . S
C1534 H1519 0.959 . S
C1534 H1520 0.961 . S
C1534 C1533 1.502 1_655 S
C1535 H1521 0.960 . S
C1535 H1522 0.961 . S
C1535 H1523 0.959 . S
C1535 C1533 1.561 . S
C1536 C1533 1.526 . S
C1536 C1537 1.396 1_545 S
C1536 C1541 1.390 . S
C1537 C1531 1.465 . S
C1537 C1536 1.396 1_565 S
C1537 C1538 1.399 . S
C1538 H1524 0.929 . S
C1538 C1537 1.399 . S
C1538 C1539 1.385 . S
C1539 H1525 0.931 . S
C1539 C1538 1.385 . S
C1539 C1540 1.389 1_565 S
C1540 C1539 1.389 1_545 S
C1540 C1541 1.387 . S
C1541 H1526 0.930 . S
C1541 C1536 1.390 . S
C1541 C1540 1.387 . S
H1542 C1554 0.930 . S
H1543 C1556 0.930 . S
H1544 C1557 0.930 . S
H1545 C1561 0.959 . S
H1546 C1561 0.959 . S
H1547 C1561 0.961 . S
H1548 C1562 0.960 . S
H1549 C1562 0.961 . S
H1550 C1562 0.959 . S
H1551 C1565 0.929 . S
H1552 C1566 0.931 . S
H1553 C1568 0.930 . S
C1554 H1542 0.930 . S
C1554 C1555 1.399 . S
C1554 C1559 1.399 . S
C1555 C1554 1.399 . S
C1555 C1556 1.376 . S
C1556 H1543 0.930 . S
C1556 C1555 1.376 . S
C1556 C1557 1.388 . S
C1557 H1544 0.930 . S
C1557 C1556 1.388 . S
C1557 C1558 1.390 . S
C1558 C1557 1.390 . S
C1558 C1559 1.394 . S
C1558 C1564 1.465 . S
C1559 C1554 1.399 . S
C1559 C1558 1.394 . S
C1559 C1560 1.516 . S
C1560 C1559 1.516 . S
C1560 C1561 1.502 . S
C1560 C1562 1.561 . S
C1560 C1563 1.526 . S
C1561 H1545 0.959 . S
C1561 H1546 0.959 . S
C1561 H1547 0.961 . S
C1561 C1560 1.502 . S
C1562 H1548 0.960 . S
C1562 H1549 0.961 . S
C1562 H1550 0.959 . S
C1562 C1560 1.561 . S
C1563 C1560 1.526 . S
C1563 C1564 1.396 . S
C1563 C1568 1.390 . S
C1564 C1558 1.465 . S
C1564 C1563 1.396 . S
C1564 C1565 1.399 . S
C1565 H1551 0.929 . S
C1565 C1564 1.399 . S
C1565 C1566 1.385 . S
C1566 H1552 0.931 . S
C1566 C1565 1.385 . S
C1566 C1567 1.389 . S
C1567 C1566 1.389 . S
C1567 C1568 1.387 . S
C1568 H1553 0.930 . S
C1568 C1563 1.390 . S
C1568 C1567 1.387 . S
H1569 C1581 0.930 . S
H1570 C1583 0.930 . S
H1571 C1584 0.930 . S
H1572 C1588 0.959 . S
H1573 C1588 0.959 . S
H1574 C1588 0.961 . S
H1575 C1589 0.960 . S
H1576 C1589 0.961 . S
H1577 C1589 0.959 . S
H1578 C1592 0.929 . S
H1579 C1593 0.931 . S
H1580 C1595 0.930 . S
C1581 H1569 0.930 . S
C1581 C1582 1.399 . S
C1581 C1586 1.399 . S
C1582 C1581 1.399 . S
C1582 C1583 1.376 1_545 S
C1583 H1570 0.930 . S
C1583 C1582 1.376 1_565 S
C1583 C1584 1.388 . S
C1584 H1571 0.930 . S
C1584 C1583 1.388 . S
C1584 C1585 1.390 . S
C1585 C1584 1.390 . S
C1585 C1586 1.394 1_565 S
C1585 C1591 1.465 . S
C1586 C1581 1.399 . S
C1586 C1585 1.394 1_545 S
C1586 C1587 1.516 . S
C1587 C1586 1.516 . S
C1587 C1588 1.502 . S
C1587 C1589 1.561 . S
C1587 C1590 1.526 . S
C1588 H1572 0.959 . S
C1588 H1573 0.959 . S
C1588 H1574 0.961 . S
C1588 C1587 1.502 . S
C1589 H1575 0.960 . S
C1589 H1576 0.961 . S
C1589 H1577 0.959 . S
C1589 C1587 1.561 . S
C1590 C1587 1.526 . S
C1590 C1591 1.396 1_545 S
C1590 C1595 1.390 . S
C1591 C1585 1.465 . S
C1591 C1590 1.396 1_565 S
C1591 C1592 1.399 . S
C1592 H1578 0.929 . S
C1592 C1591 1.399 . S
C1592 C1593 1.385 . S
C1593 H1579 0.931 . S
C1593 C1592 1.385 . S
C1593 C1594 1.389 . S
C1594 C1593 1.389 . S
C1594 C1595 1.387 1_565 S
C1595 H1580 0.930 . S
C1595 C1590 1.390 . S
C1595 C1594 1.387 1_545 S
H1596 C1608 0.930 . S
H1597 C1610 0.930 . S
H1598 C1611 0.930 . S
H1599 C1615 0.959 . S
H1600 C1615 0.959 . S
H1601 C1615 0.961 1_556 S
H1602 C1616 1.027 . S
H1603 C1616 0.900 1_554 S
H1604 C1616 0.964 . S
H1605 C1619 0.929 . S
H1606 C1620 0.931 . S
H1607 C1622 0.930 . S
C1608 H1596 0.930 . S
C1608 C1609 1.399 . S
C1608 C1613 1.399 . S
C1609 C1608 1.399 . S
C1609 C1610 1.376 . S
C1610 H1597 0.930 . S
C1610 C1609 1.376 . S
C1610 C1611 1.388 . S
C1611 H1598 0.930 . S
C1611 C1610 1.388 . S
C1611 C1612 1.390 . S
C1612 C1611 1.390 . S
C1612 C1613 1.394 . S
C1612 C1618 1.465 1_556 S
C1613 C1608 1.399 . S
C1613 C1612 1.394 . S
C1613 C1614 1.492 1_556 S
C1614 C1613 1.492 1_554 S
C1614 C1615 1.506 . S
C1614 C1616 1.556 1_554 S
C1614 C1617 1.549 . S
C1615 H1599 0.959 . S
C1615 H1600 0.959 . S
C1615 H1601 0.961 1_554 S
C1615 C1614 1.506 . S
C1616 H1602 1.027 . S
C1616 H1603 0.900 1_556 S
C1616 H1604 0.964 . S
C1616 C1614 1.556 1_556 S
C1617 C1614 1.549 . S
C1617 C1618 1.396 . S
C1617 C1622 1.390 . S
C1618 C1612 1.465 1_554 S
C1618 C1617 1.396 . S
C1618 C1619 1.399 . S
C1619 H1605 0.929 . S
C1619 C1618 1.399 . S
C1619 C1620 1.385 . S
C1620 H1606 0.931 . S
C1620 C1619 1.385 . S
C1620 C1621 1.389 . S
C1621 C1620 1.389 . S
C1621 C1622 1.387 . S
C1622 H1607 0.930 . S
C1622 C1617 1.390 . S
C1622 C1621 1.387 . S
H1623 C1635 0.930 . S
H1624 C1637 0.930 . S
H1625 C1638 0.930 . S
H1626 C1642 0.959 . S
H1627 C1642 0.959 . S
H1628 C1642 0.961 . S
H1629 C1643 0.960 . S
H1630 C1643 0.961 . S
H1631 C1643 0.959 1_455 S
H1632 C1646 0.929 . S
H1633 C1647 0.931 . S
H1634 C1649 0.930 . S
C1635 H1623 0.930 . S
C1635 C1636 1.399 1_545 S
C1635 C1640 1.399 . S
C1636 C1635 1.399 1_565 S
C1636 C1637 1.376 . S
C1637 H1624 0.930 . S
C1637 C1636 1.376 . S
C1637 C1638 1.388 . S
C1638 H1625 0.930 . S
C1638 C1637 1.388 . S
C1638 C1639 1.390 . S
C1639 C1638 1.390 . S
C1639 C1640 1.394 1_565 S
C1639 C1645 1.465 . S
C1640 C1635 1.399 . S
C1640 C1639 1.394 1_545 S
C1640 C1641 1.516 . S
C1641 C1640 1.516 . S
C1641 C1642 1.502 . S
C1641 C1643 1.561 . S
C1641 C1644 1.526 . S
C1642 H1626 0.959 . S
C1642 H1627 0.959 . S
C1642 H1628 0.961 . S
C1642 C1641 1.502 . S
C1643 H1629 0.960 . S
C1643 H1630 0.961 . S
C1643 H1631 0.959 1_655 S
C1643 C1641 1.561 . S
C1644 C1641 1.526 . S
C1644 C1645 1.396 1_545 S
C1644 C1649 1.390 . S
C1645 C1639 1.465 . S
C1645 C1644 1.396 1_565 S
C1645 C1646 1.399 . S
C1646 H1632 0.929 . S
C1646 C1645 1.399 . S
C1646 C1647 1.385 . S
C1647 H1633 0.931 . S
C1647 C1646 1.385 . S
C1647 C1648 1.389 1_565 S
C1648 C1647 1.389 1_545 S
C1648 C1649 1.387 . S
C1649 H1634 0.930 . S
C1649 C1644 1.390 . S
C1649 C1648 1.387 . S
H1650 C1662 0.930 . S
H1651 C1664 0.930 . S
H1652 C1665 0.930 . S
H1653 C1669 0.959 . S
H1654 C1669 0.959 . S
H1655 C1669 0.961 . S
H1656 C1670 0.960 . S
H1657 C1670 0.961 . S
H1658 C1670 0.959 . S
H1659 C1673 0.929 . S
H1660 C1674 0.931 . S
H1661 C1676 0.930 . S
C1662 H1650 0.930 . S
C1662 C1663 1.399 . S
C1662 C1667 1.399 . S
C1663 C1662 1.399 . S
C1663 C1664 1.376 . S
C1664 H1651 0.930 . S
C1664 C1663 1.376 . S
C1664 C1665 1.388 . S
C1665 H1652 0.930 . S
C1665 C1664 1.388 . S
C1665 C1666 1.390 . S
C1666 C1665 1.390 . S
C1666 C1667 1.394 . S
C1666 C1672 1.465 . S
C1667 C1662 1.399 . S
C1667 C1666 1.394 . S
C1667 C1668 1.516 . S
C1668 C1667 1.516 . S
C1668 C1669 1.502 . S
C1668 C1670 1.561 . S
C1668 C1671 1.526 . S
C1669 H1653 0.959 . S
C1669 H1654 0.959 . S
C1669 H1655 0.961 . S
C1669 C1668 1.502 . S
C1670 H1656 0.960 . S
C1670 H1657 0.961 . S
C1670 H1658 0.959 . S
C1670 C1668 1.561 . S
C1671 C1668 1.526 . S
C1671 C1672 1.396 . S
C1671 C1676 1.390 . S
C1672 C1666 1.465 . S
C1672 C1671 1.396 . S
C1672 C1673 1.399 . S
C1673 H1659 0.929 . S
C1673 C1672 1.399 . S
C1673 C1674 1.385 . S
C1674 H1660 0.931 . S
C1674 C1673 1.385 . S
C1674 C1675 1.389 . S
C1675 C1674 1.389 . S
C1675 C1676 1.387 . S
C1676 H1661 0.930 . S
C1676 C1671 1.390 . S
C1676 C1675 1.387 . S
H1677 C1689 0.930 . S
H1678 C1691 0.930 . S
H1679 C1692 0.930 . S
H1680 C1696 0.959 . S
H1681 C1696 0.959 . S
H1682 C1696 0.961 . S
H1683 C1697 0.960 . S
H1684 C1697 0.961 . S
H1685 C1697 0.959 . S
H1686 C1700 0.929 . S
H1687 C1701 0.931 . S
H1688 C1703 0.930 . S
C1689 H1677 0.930 . S
C1689 C1690 1.399 . S
C1689 C1694 1.399 . S
C1690 C1689 1.399 . S
C1690 C1691 1.376 1_545 S
C1691 H1678 0.930 . S
C1691 C1690 1.376 1_565 S
C1691 C1692 1.388 . S
C1692 H1679 0.930 . S
C1692 C1691 1.388 . S
C1692 C1693 1.390 . S
C1693 C1692 1.390 . S
C1693 C1694 1.394 1_565 S
C1693 C1699 1.465 . S
C1694 C1689 1.399 . S
C1694 C1693 1.394 1_545 S
C1694 C1695 1.516 . S
C1695 C1694 1.516 . S
C1695 C1696 1.502 . S
C1695 C1697 1.561 . S
C1695 C1698 1.526 . S
C1696 H1680 0.959 . S
C1696 H1681 0.959 . S
C1696 H1682 0.961 . S
C1696 C1695 1.502 . S
C1697 H1683 0.960 . S
C1697 H1684 0.961 . S
C1697 H1685 0.959 . S
C1697 C1695 1.561 . S
C1698 C1695 1.526 . S
C1698 C1699 1.396 1_545 S
C1698 C1703 1.390 . S
C1699 C1693 1.465 . S
C1699 C1698 1.396 1_565 S
C1699 C1700 1.399 . S
C1700 H1686 0.929 . S
C1700 C1699 1.399 . S
C1700 C1701 1.385 . S
C1701 H1687 0.931 . S
C1701 C1700 1.385 . S
C1701 C1702 1.389 . S
C1702 C1701 1.389 . S
C1702 C1703 1.387 1_565 S
C1703 H1688 0.930 . S
C1703 C1698 1.390 . S
C1703 C1702 1.387 1_545 S
H1704 C1716 0.930 . S
H1705 C1718 0.930 . S
H1706 C1719 0.930 . S
H1707 C1723 0.959 . S
H1708 C1723 0.959 . S
H1709 C1723 0.961 . S
H1710 C1724 0.960 . S
H1711 C1724 0.961 . S
H1712 C1724 0.959 . S
H1713 C1727 0.929 . S
H1714 C1728 0.931 . S
H1715 C1730 0.930 . S
C1716 H1704 0.930 . S
C1716 C1717 1.399 . S
C1716 C1721 1.399 . S
C1717 C1716 1.399 . S
C1717 C1718 1.376 . S
C1718 H1705 0.930 . S
C1718 C1717 1.376 . S
C1718 C1719 1.388 . S
C1719 H1706 0.930 . S
C1719 C1718 1.388 . S
C1719 C1720 1.390 . S
C1720 C1719 1.390 . S
C1720 C1721 1.394 . S
C1720 C1726 1.465 . S
C1721 C1716 1.399 . S
C1721 C1720 1.394 . S
C1721 C1722 1.516 . S
C1722 C1721 1.516 . S
C1722 C1723 1.502 . S
C1722 C1724 1.561 . S
C1722 C1725 1.526 . S
C1723 H1707 0.959 . S
C1723 H1708 0.959 . S
C1723 H1709 0.961 . S
C1723 C1722 1.502 . S
C1724 H1710 0.960 . S
C1724 H1711 0.961 . S
C1724 H1712 0.959 . S
C1724 C1722 1.561 . S
C1725 C1722 1.526 . S
C1725 C1726 1.396 . S
C1725 C1730 1.390 . S
C1726 C1720 1.465 . S
C1726 C1725 1.396 . S
C1726 C1727 1.399 . S
C1727 H1713 0.929 . S
C1727 C1726 1.399 . S
C1727 C1728 1.385 . S
C1728 H1714 0.931 . S
C1728 C1727 1.385 . S
C1728 C1729 1.389 . S
C1729 C1728 1.389 . S
C1729 C1730 1.387 . S
C1730 H1715 0.930 . S
C1730 C1725 1.390 . S
C1730 C1729 1.387 . S
H1731 C1743 0.930 . S
H1732 C1745 0.930 . S
H1733 C1746 0.930 . S
H1734 C1750 0.959 . S
H1735 C1750 0.959 . S
H1736 C1750 0.961 . S
H1737 C1751 0.960 . S
H1738 C1751 0.961 . S
H1739 C1751 0.959 . S
H1740 C1754 0.929 . S
H1741 C1755 0.931 . S
H1742 C1757 0.930 . S
C1743 H1731 0.930 . S
C1743 C1744 1.399 . S
C1743 C1748 1.399 . S
C1744 C1743 1.399 . S
C1744 C1745 1.376 . S
C1745 H1732 0.930 . S
C1745 C1744 1.376 . S
C1745 C1746 1.388 . S
C1746 H1733 0.930 . S
C1746 C1745 1.388 . S
C1746 C1747 1.390 . S
C1747 C1746 1.390 . S
C1747 C1748 1.394 . S
C1747 C1753 1.465 . S
C1748 C1743 1.399 . S
C1748 C1747 1.394 . S
C1748 C1749 1.516 . S
C1749 C1748 1.516 . S
C1749 C1750 1.502 . S
C1749 C1751 1.561 . S
C1749 C1752 1.526 . S
C1750 H1734 0.959 . S
C1750 H1735 0.959 . S
C1750 H1736 0.961 . S
C1750 C1749 1.502 . S
C1751 H1737 0.960 . S
C1751 H1738 0.961 . S
C1751 H1739 0.959 . S
C1751 C1749 1.561 . S
C1752 C1749 1.526 . S
C1752 C1753 1.396 . S
C1752 C1757 1.390 . S
C1753 C1747 1.465 . S
C1753 C1752 1.396 . S
C1753 C1754 1.399 . S
C1754 H1740 0.929 . S
C1754 C1753 1.399 . S
C1754 C1755 1.385 . S
C1755 H1741 0.931 . S
C1755 C1754 1.385 . S
C1755 C1756 1.389 . S
C1756 C1755 1.389 . S
C1756 C1757 1.387 . S
C1757 H1742 0.930 . S
C1757 C1752 1.390 . S
C1757 C1756 1.387 . S
H1758 C1770 0.930 . S
H1759 C1772 0.930 . S
H1760 C1773 0.930 . S
H1761 C1777 0.959 . S
H1762 C1777 0.959 1_554 S
H1763 C1777 0.961 . S
H1764 C1778 0.960 1_556 S
H1765 C1778 0.961 . S
H1766 C1778 0.959 . S
H1767 C1781 0.929 . S
H1768 C1782 0.931 . S
H1769 C1784 0.930 . S
C1770 H1758 0.930 . S
C1770 C1771 1.399 . S
C1770 C1775 1.399 . S
C1771 C1770 1.399 . S
C1771 C1772 1.376 . S
C1772 H1759 0.930 . S
C1772 C1771 1.376 . S
C1772 C1773 1.388 . S
C1773 H1760 0.930 . S
C1773 C1772 1.388 . S
C1773 C1774 1.390 . S
C1774 C1773 1.390 . S
C1774 C1775 1.394 . S
C1774 C1780 1.465 1_556 S
C1775 C1770 1.399 . S
C1775 C1774 1.394 . S
C1775 C1776 1.531 . S
C1776 C1775 1.531 . S
C1776 C1777 1.504 . S
C1776 C1778 1.560 1_556 S
C1776 C1779 1.510 1_556 S
C1777 H1761 0.959 . S
C1777 H1762 0.959 1_556 S
C1777 H1763 0.961 . S
C1777 C1776 1.504 . S
C1778 H1764 0.960 1_554 S
C1778 H1765 0.961 . S
C1778 H1766 0.959 . S
C1778 C1776 1.560 1_554 S
C1779 C1776 1.510 1_554 S
C1779 C1780 1.396 . S
C1779 C1784 1.390 . S
C1780 C1774 1.465 1_554 S
C1780 C1779 1.396 . S
C1780 C1781 1.399 . S
C1781 H1767 0.929 . S
C1781 C1780 1.399 . S
C1781 C1782 1.385 . S
C1782 H1768 0.931 . S
C1782 C1781 1.385 . S
C1782 C1783 1.389 . S
C1783 C1782 1.389 . S
C1783 C1784 1.387 . S
C1784 H1769 0.930 . S
C1784 C1779 1.390 . S
C1784 C1783 1.387 . S
H1785 C1797 0.930 . S
H1786 C1799 0.930 . S
H1787 C1800 0.930 . S
H1788 C1804 0.959 . S
H1789 C1804 0.959 . S
H1790 C1804 0.961 . S
H1791 C1805 0.960 . S
H1792 C1805 0.961 . S
H1793 C1805 0.959 . S
H1794 C1808 0.929 . S
H1795 C1809 0.931 . S
H1796 C1811 0.930 . S
C1797 H1785 0.930 . S
C1797 C1798 1.399 . S
C1797 C1802 1.399 . S
C1798 C1797 1.399 . S
C1798 C1799 1.376 . S
C1799 H1786 0.930 . S
C1799 C1798 1.376 . S
C1799 C1800 1.388 . S
C1800 H1787 0.930 . S
C1800 C1799 1.388 . S
C1800 C1801 1.390 . S
C1801 C1800 1.390 . S
C1801 C1802 1.394 . S
C1801 C1807 1.465 . S
C1802 C1797 1.399 . S
C1802 C1801 1.394 . S
C1802 C1803 1.516 . S
C1803 C1802 1.516 . S
C1803 C1804 1.502 1_655 S
C1803 C1805 1.561 . S
C1803 C1806 1.526 . S
C1804 H1788 0.959 . S
C1804 H1789 0.959 . S
C1804 H1790 0.961 . S
C1804 C1803 1.502 1_455 S
C1805 H1791 0.960 . S
C1805 H1792 0.961 . S
C1805 H1793 0.959 . S
C1805 C1803 1.561 . S
C1806 C1803 1.526 . S
C1806 C1807 1.396 . S
C1806 C1811 1.390 . S
C1807 C1801 1.465 . S
C1807 C1806 1.396 . S
C1807 C1808 1.399 . S
C1808 H1794 0.929 . S
C1808 C1807 1.399 . S
C1808 C1809 1.385 . S
C1809 H1795 0.931 . S
C1809 C1808 1.385 . S
C1809 C1810 1.389 . S
C1810 C1809 1.389 . S
C1810 C1811 1.387 . S
C1811 H1796 0.930 . S
C1811 C1806 1.390 . S
C1811 C1810 1.387 . S
H1812 C1824 0.930 . S
H1813 C1826 0.930 . S
H1814 C1827 0.930 . S
H1815 C1831 0.959 . S
H1816 C1831 0.959 . S
H1817 C1831 0.961 . S
H1818 C1832 0.960 . S
H1819 C1832 0.961 . S
H1820 C1832 0.959 . S
H1821 C1835 0.929 . S
H1822 C1836 0.931 . S
H1823 C1838 0.930 . S
C1824 H1812 0.930 . S
C1824 C1825 1.399 . S
C1824 C1829 1.399 . S
C1825 C1824 1.399 . S
C1825 C1826 1.376 . S
C1826 H1813 0.930 . S
C1826 C1825 1.376 . S
C1826 C1827 1.388 . S
C1827 H1814 0.930 . S
C1827 C1826 1.388 . S
C1827 C1828 1.390 . S
C1828 C1827 1.390 . S
C1828 C1829 1.394 . S
C1828 C1834 1.465 . S
C1829 C1824 1.399 . S
C1829 C1828 1.394 . S
C1829 C1830 1.516 . S
C1830 C1829 1.516 . S
C1830 C1831 1.502 . S
C1830 C1832 1.561 . S
C1830 C1833 1.526 . S
C1831 H1815 0.959 . S
C1831 H1816 0.959 . S
C1831 H1817 0.961 . S
C1831 C1830 1.502 . S
C1832 H1818 0.960 . S
C1832 H1819 0.961 . S
C1832 H1820 0.959 . S
C1832 C1830 1.561 . S
C1833 C1830 1.526 . S
C1833 C1834 1.396 . S
C1833 C1838 1.390 . S
C1834 C1828 1.465 . S
C1834 C1833 1.396 . S
C1834 C1835 1.399 . S
C1835 H1821 0.929 . S
C1835 C1834 1.399 . S
C1835 C1836 1.385 . S
C1836 H1822 0.931 . S
C1836 C1835 1.385 . S
C1836 C1837 1.389 . S
C1837 C1836 1.389 . S
C1837 C1838 1.387 . S
C1838 H1823 0.930 . S
C1838 C1833 1.390 . S
C1838 C1837 1.387 . S
H1839 C1851 0.930 . S
H1840 C1853 0.930 . S
H1841 C1854 0.930 . S
H1842 C1858 0.959 . S
H1843 C1858 0.959 . S
H1844 C1858 0.961 . S
H1845 C1859 0.960 . S
H1846 C1859 0.961 . S
H1847 C1859 0.959 . S
H1848 C1862 0.929 . S
H1849 C1863 0.931 . S
H1850 C1865 0.930 . S
C1851 H1839 0.930 . S
C1851 C1852 1.399 . S
C1851 C1856 1.399 . S
C1852 C1851 1.399 . S
C1852 C1853 1.376 . S
C1853 H1840 0.930 . S
C1853 C1852 1.376 . S
C1853 C1854 1.388 . S
C1854 H1841 0.930 . S
C1854 C1853 1.388 . S
C1854 C1855 1.390 . S
C1855 C1854 1.390 . S
C1855 C1856 1.394 . S
C1855 C1861 1.465 . S
C1856 C1851 1.399 . S
C1856 C1855 1.394 . S
C1856 C1857 1.516 . S
C1857 C1856 1.516 . S
C1857 C1858 1.502 . S
C1857 C1859 1.561 . S
C1857 C1860 1.526 . S
C1858 H1842 0.959 . S
C1858 H1843 0.959 . S
C1858 H1844 0.961 . S
C1858 C1857 1.502 . S
C1859 H1845 0.960 . S
C1859 H1846 0.961 . S
C1859 H1847 0.959 . S
C1859 C1857 1.561 . S
C1860 C1857 1.526 . S
C1860 C1861 1.396 . S
C1860 C1865 1.390 . S
C1861 C1855 1.465 . S
C1861 C1860 1.396 . S
C1861 C1862 1.399 . S
C1862 H1848 0.929 . S
C1862 C1861 1.399 . S
C1862 C1863 1.385 . S
C1863 H1849 0.931 . S
C1863 C1862 1.385 . S
C1863 C1864 1.389 . S
C1864 C1863 1.389 . S
C1864 C1865 1.387 . S
C1865 H1850 0.930 . S
C1865 C1860 1.390 . S
C1865 C1864 1.387 . S
H1866 C1878 0.930 . S
H1867 C1880 0.930 . S
H1868 C1881 0.930 . S
H1869 C1885 0.959 . S
H1870 C1885 0.959 . S
H1871 C1885 0.961 1_554 S
H1872 C1886 0.960 1_554 S
H1873 C1886 0.961 . S
H1874 C1886 0.959 . S
H1875 C1889 0.929 . S
H1876 C1890 0.931 . S
H1877 C1892 0.930 . S
C1878 H1866 0.930 . S
C1878 C1879 1.399 . S
C1878 C1883 1.399 . S
C1879 C1878 1.399 . S
C1879 C1880 1.376 . S
C1880 H1867 0.930 . S
C1880 C1879 1.376 . S
C1880 C1881 1.388 . S
C1881 H1868 0.930 . S
C1881 C1880 1.388 . S
C1881 C1882 1.390 . S
C1882 C1881 1.390 . S
C1882 C1883 1.394 . S
C1882 C1888 1.465 1_554 S
C1883 C1878 1.399 . S
C1883 C1882 1.394 . S
C1883 C1884 1.516 1_554 S
C1884 C1883 1.516 1_556 S
C1884 C1885 1.502 . S
C1884 C1886 1.561 . S
C1884 C1887 1.526 . S
C1885 H1869 0.959 . S
C1885 H1870 0.959 . S
C1885 H1871 0.961 1_556 S
C1885 C1884 1.502 . S
C1886 H1872 0.960 1_556 S
C1886 H1873 0.961 . S
C1886 H1874 0.959 . S
C1886 C1884 1.561 . S
C1887 C1884 1.526 . S
C1887 C1888 1.396 . S
C1887 C1892 1.390 . S
C1888 C1882 1.465 1_556 S
C1888 C1887 1.396 . S
C1888 C1889 1.399 . S
C1889 H1875 0.929 . S
C1889 C1888 1.399 . S
C1889 C1890 1.385 . S
C1890 H1876 0.931 . S
C1890 C1889 1.385 . S
C1890 C1891 1.389 . S
C1891 C1890 1.389 . S
C1891 C1892 1.387 . S
C1892 H1877 0.930 . S
C1892 C1887 1.390 . S
C1892 C1891 1.387 . S
H1893 C1905 0.930 . S
H1894 C1907 0.930 . S
H1895 C1908 0.930 . S
H1896 C1912 0.959 . S
H1897 C1912 0.959 . S
H1898 C1912 0.961 . S
H1899 C1913 0.960 . S
H1900 C1913 0.961 . S
H1901 C1913 0.959 1_655 S
H1902 C1916 0.929 . S
H1903 C1917 0.931 . S
H1904 C1919 0.930 . S
C1905 H1893 0.930 . S
C1905 C1906 1.399 . S
C1905 C1910 1.399 . S
C1906 C1905 1.399 . S
C1906 C1907 1.376 . S
C1907 H1894 0.930 . S
C1907 C1906 1.376 . S
C1907 C1908 1.388 . S
C1908 H1895 0.930 . S
C1908 C1907 1.388 . S
C1908 C1909 1.390 . S
C1909 C1908 1.390 . S
C1909 C1910 1.394 . S
C1909 C1915 1.465 . S
C1910 C1905 1.399 . S
C1910 C1909 1.394 . S
C1910 C1911 1.516 . S
C1911 C1910 1.516 . S
C1911 C1912 1.502 . S
C1911 C1913 1.561 . S
C1911 C1914 1.526 . S
C1912 H1896 0.959 . S
C1912 H1897 0.959 . S
C1912 H1898 0.961 . S
C1912 C1911 1.502 . S
C1913 H1899 0.960 . S
C1913 H1900 0.961 . S
C1913 H1901 0.959 1_455 S
C1913 C1911 1.561 . S
C1914 C1911 1.526 . S
C1914 C1915 1.396 . S
C1914 C1919 1.390 . S
C1915 C1909 1.465 . S
C1915 C1914 1.396 . S
C1915 C1916 1.399 . S
C1916 H1902 0.929 . S
C1916 C1915 1.399 . S
C1916 C1917 1.385 . S
C1917 H1903 0.931 . S
C1917 C1916 1.385 . S
C1917 C1918 1.389 . S
C1918 C1917 1.389 . S
C1918 C1919 1.387 . S
C1919 H1904 0.930 . S
C1919 C1914 1.390 . S
C1919 C1918 1.387 . S
H1920 C1932 0.930 . S
H1921 C1934 0.930 . S
H1922 C1935 0.930 . S
H1923 C1939 0.959 . S
H1924 C1939 0.959 . S
H1925 C1939 0.961 . S
H1926 C1940 0.960 . S
H1927 C1940 0.961 . S
H1928 C1940 0.959 . S
H1929 C1943 0.929 . S
H1930 C1944 0.931 . S
H1931 C1946 0.930 . S
C1932 H1920 0.930 . S
C1932 C1933 1.399 . S
C1932 C1937 1.399 . S
C1933 C1932 1.399 . S
C1933 C1934 1.376 . S
C1934 H1921 0.930 . S
C1934 C1933 1.376 . S
C1934 C1935 1.388 . S
C1935 H1922 0.930 . S
C1935 C1934 1.388 . S
C1935 C1936 1.390 . S
C1936 C1935 1.390 . S
C1936 C1937 1.394 . S
C1936 C1942 1.465 . S
C1937 C1932 1.399 . S
C1937 C1936 1.394 . S
C1937 C1938 1.516 . S
C1938 C1937 1.516 . S
C1938 C1939 1.502 . S
C1938 C1940 1.561 . S
C1938 C1941 1.526 . S
C1939 H1923 0.959 . S
C1939 H1924 0.959 . S
C1939 H1925 0.961 . S
C1939 C1938 1.502 . S
C1940 H1926 0.960 . S
C1940 H1927 0.961 . S
C1940 H1928 0.959 . S
C1940 C1938 1.561 . S
C1941 C1938 1.526 . S
C1941 C1942 1.396 . S
C1941 C1946 1.390 1_565 S
C1942 C1936 1.465 . S
C1942 C1941 1.396 . S
C1942 C1943 1.399 . S
C1943 H1929 0.929 . S
C1943 C1942 1.399 . S
C1943 C1944 1.385 1_565 S
C1944 H1930 0.931 . S
C1944 C1943 1.385 1_545 S
C1944 C1945 1.389 . S
C1945 C1944 1.389 . S
C1945 C1946 1.387 . S
C1946 H1931 0.930 . S
C1946 C1941 1.390 1_545 S
C1946 C1945 1.387 . S
H1947 C1959 0.930 . S
H1948 C1961 0.930 1_565 S
H1949 C1962 0.930 1_565 S
H1950 C1966 0.959 1_565 S
H1951 C1966 0.959 . S
H1952 C1966 0.961 . S
H1953 C1967 0.960 . S
H1954 C1967 0.961 . S
H1955 C1967 0.959 . S
H1956 C1970 0.932 . S
H1957 C1971 0.925 1_565 S
H1958 C1973 0.930 . S
C1959 H1947 0.930 . S
C1959 C1960 1.399 . S
C1959 C1964 1.399 . S
C1960 C1959 1.399 . S
C1960 C1961 1.376 . S
C1961 H1948 0.930 1_545 S
C1961 C1960 1.376 . S
C1961 C1962 1.388 . S
C1962 H1949 0.930 1_545 S
C1962 C1961 1.388 . S
C1962 C1963 1.390 . S
C1963 C1962 1.390 . S
C1963 C1964 1.394 . S
C1963 C1969 1.465 . S
C1964 C1959 1.399 . S
C1964 C1963 1.394 . S
C1964 C1965 1.516 . S
C1965 C1964 1.516 . S
C1965 C1966 1.502 . S
C1965 C1967 1.561 . S
C1965 C1968 1.526 . S
C1966 H1950 0.959 1_545 S
C1966 H1951 0.959 . S
C1966 H1952 0.961 . S
C1966 C1965 1.502 . S
C1967 H1953 0.960 . S
C1967 H1954 0.961 . S
C1967 H1955 0.959 . S
C1967 C1965 1.561 . S
C1968 C1965 1.526 . S
C1968 C1969 1.396 . S
C1968 C1973 1.390 . S
C1969 C1963 1.465 . S
C1969 C1968 1.396 . S
C1969 C1970 1.396 1_545 S
C1970 H1956 0.932 . S
C1970 C1969 1.396 1_565 S
C1970 C1971 1.385 1_565 S
C1971 H1957 0.925 1_545 S
C1971 C1970 1.385 1_545 S
C1971 C1972 1.395 . S
C1972 C1971 1.395 . S
C1972 C1973 1.387 . S
C1973 H1958 0.930 . S
C1973 C1968 1.390 . S
C1973 C1972 1.387 . S
H1974 C1986 0.930 . S
H1975 C1988 0.930 . S
H1976 C1989 0.930 . S
H1977 C1993 0.959 . S
H1978 C1993 0.959 . S
H1979 C1993 0.961 . S
H1980 C1994 0.960 . S
H1981 C1994 0.961 . S
H1982 C1994 0.959 . S
H1983 C1997 0.929 . S
H1984 C1998 0.931 . S
H1985 C2000 0.930 . S
C1986 H1974 0.930 . S
C1986 C1987 1.399 . S
C1986 C1991 1.399 . S
C1987 C1986 1.399 . S
C1987 C1988 1.376 . S
C1988 H1975 0.930 . S
C1988 C1987 1.376 . S
C1988 C1989 1.388 . S
C1989 H1976 0.930 . S
C1989 C1988 1.388 . S
C1989 C1990 1.390 . S
C1990 C1989 1.390 . S
C1990 C1991 1.394 . S
C1990 C1996 1.465 . S
C1991 C1986 1.399 . S
C1991 C1990 1.394 . S
C1991 C1992 1.516 . S
C1992 C1991 1.516 . S
C1992 C1993 1.502 . S
C1992 C1994 1.561 . S
C1992 C1995 1.526 . S
C1993 H1977 0.959 . S
C1993 H1978 0.959 . S
C1993 H1979 0.961 . S
C1993 C1992 1.502 . S
C1994 H1980 0.960 . S
C1994 H1981 0.961 . S
C1994 H1982 0.959 . S
C1994 C1992 1.561 . S
C1995 C1992 1.526 . S
C1995 C1996 1.396 . S
C1995 C2000 1.390 1_545 S
C1996 C1990 1.465 . S
C1996 C1995 1.396 . S
C1996 C1997 1.399 . S
C1997 H1983 0.929 . S
C1997 C1996 1.399 . S
C1997 C1998 1.385 1_545 S
C1998 H1984 0.931 . S
C1998 C1997 1.385 1_565 S
C1998 C1999 1.389 . S
C1999 C1998 1.389 . S
C1999 C2000 1.387 . S
C2000 H1985 0.930 . S
C2000 C1995 1.390 1_565 S
C2000 C1999 1.387 . S
H2001 C2013 0.930 . S
H2002 C2015 0.930 . S
H2003 C2016 0.930 . S
H2004 C2020 0.959 . S
H2005 C2020 0.959 . S
H2006 C2020 0.961 . S
H2007 C2021 0.960 . S
H2008 C2021 0.961 . S
H2009 C2021 0.959 . S
H2010 C2024 0.929 . S
H2011 C2025 0.931 . S
H2012 C2027 0.930 . S
C2013 H2001 0.930 . S
C2013 C2014 1.399 . S
C2013 C2018 1.399 . S
C2014 C2013 1.399 . S
C2014 C2015 1.376 1_565 S
C2015 H2002 0.930 . S
C2015 C2014 1.376 1_545 S
C2015 C2016 1.388 . S
C2016 H2003 0.930 . S
C2016 C2015 1.388 . S
C2016 C2017 1.390 . S
C2017 C2016 1.390 . S
C2017 C2018 1.394 1_545 S
C2017 C2023 1.465 . S
C2018 C2013 1.399 . S
C2018 C2017 1.394 1_565 S
C2018 C2019 1.516 . S
C2019 C2018 1.516 . S
C2019 C2020 1.502 . S
C2019 C2021 1.561 . S
C2019 C2022 1.526 . S
C2020 H2004 0.959 . S
C2020 H2005 0.959 . S
C2020 H2006 0.961 . S
C2020 C2019 1.502 . S
C2021 H2007 0.960 . S
C2021 H2008 0.961 . S
C2021 H2009 0.959 . S
C2021 C2019 1.561 . S
C2022 C2019 1.526 . S
C2022 C2023 1.396 1_565 S
C2022 C2027 1.390 . S
C2023 C2017 1.465 . S
C2023 C2022 1.396 1_545 S
C2023 C2024 1.399 . S
C2024 H2010 0.929 . S
C2024 C2023 1.399 . S
C2024 C2025 1.385 . S
C2025 H2011 0.931 . S
C2025 C2024 1.385 . S
C2025 C2026 1.389 1_545 S
C2026 C2025 1.389 1_565 S
C2026 C2027 1.387 . S
C2027 H2012 0.930 . S
C2027 C2022 1.390 . S
C2027 C2026 1.387 . S
H2028 C2040 0.930 . S
H2029 C2042 0.930 . S
H2030 C2043 0.930 . S
H2031 C2047 0.959 . S
H2032 C2047 0.959 . S
H2033 C2047 0.961 . S
H2034 C2048 0.960 . S
H2035 C2048 0.961 . S
H2036 C2048 0.959 . S
H2037 C2051 0.929 . S
H2038 C2052 0.931 . S
H2039 C2054 0.930 . S
C2040 H2028 0.930 . S
C2040 C2041 1.399 . S
C2040 C2045 1.399 . S
C2041 C2040 1.399 . S
C2041 C2042 1.376 . S
C2042 H2029 0.930 . S
C2042 C2041 1.376 . S
C2042 C2043 1.388 . S
C2043 H2030 0.930 . S
C2043 C2042 1.388 . S
C2043 C2044 1.390 . S
C2044 C2043 1.390 . S
C2044 C2045 1.394 . S
C2044 C2050 1.465 . S
C2045 C2040 1.399 . S
C2045 C2044 1.394 . S
C2045 C2046 1.516 . S
C2046 C2045 1.516 . S
C2046 C2047 1.502 . S
C2046 C2048 1.561 . S
C2046 C2049 1.526 . S
C2047 H2031 0.959 . S
C2047 H2032 0.959 . S
C2047 H2033 0.961 . S
C2047 C2046 1.502 . S
C2048 H2034 0.960 . S
C2048 H2035 0.961 . S
C2048 H2036 0.959 . S
C2048 C2046 1.561 . S
C2049 C2046 1.526 . S
C2049 C2050 1.396 . S
C2049 C2054 1.390 1_545 S
C2050 C2044 1.465 . S
C2050 C2049 1.396 . S
C2050 C2051 1.399 . S
C2051 H2037 0.929 . S
C2051 C2050 1.399 . S
C2051 C2052 1.385 1_545 S
C2052 H2038 0.931 . S
C2052 C2051 1.385 1_565 S
C2052 C2053 1.389 . S
C2053 C2052 1.389 . S
C2053 C2054 1.387 . S
C2054 H2039 0.930 . S
C2054 C2049 1.390 1_565 S
C2054 C2053 1.387 . S
H2055 C2067 0.930 . S
H2056 C2069 0.930 . S
H2057 C2070 0.930 . S
H2058 C2074 0.959 . S
H2059 C2074 0.959 . S
H2060 C2074 0.961 . S
H2061 C2075 0.960 . S
H2062 C2075 0.961 . S
H2063 C2075 0.959 . S
H2064 C2078 0.929 . S
H2065 C2079 0.931 . S
H2066 C2081 0.930 . S
C2067 H2055 0.930 . S
C2067 C2068 1.399 1_565 S
C2067 C2072 1.399 . S
C2068 C2067 1.399 1_545 S
C2068 C2069 1.376 . S
C2069 H2056 0.930 . S
C2069 C2068 1.376 . S
C2069 C2070 1.388 . S
C2070 H2057 0.930 . S
C2070 C2069 1.388 . S
C2070 C2071 1.390 . S
C2071 C2070 1.390 . S
C2071 C2072 1.394 1_545 S
C2071 C2077 1.465 . S
C2072 C2067 1.399 . S
C2072 C2071 1.394 1_565 S
C2072 C2073 1.516 . S
C2073 C2072 1.516 . S
C2073 C2074 1.502 . S
C2073 C2075 1.561 . S
C2073 C2076 1.526 . S
C2074 H2058 0.959 . S
C2074 H2059 0.959 . S
C2074 H2060 0.961 . S
C2074 C2073 1.502 . S
C2075 H2061 0.960 . S
C2075 H2062 0.961 . S
C2075 H2063 0.959 . S
C2075 C2073 1.561 . S
C2076 C2073 1.526 . S
C2076 C2077 1.396 1_565 S
C2076 C2081 1.390 . S
C2077 C2071 1.465 . S
C2077 C2076 1.396 1_545 S
C2077 C2078 1.399 . S
C2078 H2064 0.929 . S
C2078 C2077 1.399 . S
C2078 C2079 1.385 . S
C2079 H2065 0.931 . S
C2079 C2078 1.385 . S
C2079 C2080 1.389 . S
C2080 C2079 1.389 . S
C2080 C2081 1.387 1_545 S
C2081 H2066 0.930 . S
C2081 C2076 1.390 . S
C2081 C2080 1.387 1_565 S
H2082 C2094 0.930 . S
H2083 C2096 0.930 . S
H2084 C2097 0.930 . S
H2085 C2101 0.959 . S
H2086 C2101 0.959 . S
H2087 C2101 0.961 . S
H2088 C2102 0.960 . S
H2089 C2102 0.961 . S
H2090 C2102 0.959 . S
H2091 C2105 0.929 . S
H2092 C2106 0.931 . S
H2093 C2108 0.930 . S
C2094 H2082 0.930 . S
C2094 C2095 1.399 . S
C2094 C2099 1.399 . S
C2095 C2094 1.399 . S
C2095 C2096 1.376 . S
C2096 H2083 0.930 . S
C2096 C2095 1.376 . S
C2096 C2097 1.388 . S
C2097 H2084 0.930 . S
C2097 C2096 1.388 . S
C2097 C2098 1.390 . S
C2098 C2097 1.390 . S
C2098 C2099 1.394 . S
C2098 C2104 1.465 . S
C2099 C2094 1.399 . S
C2099 C2098 1.394 . S
C2099 C2100 1.516 . S
C2100 C2099 1.516 . S
C2100 C2101 1.502 . S
C2100 C2102 1.561 . S
C2100 C2103 1.526 . S
C2101 H2085 0.959 . S
C2101 H2086 0.959 . S
C2101 H2087 0.961 . S
C2101 C2100 1.502 . S
C2102 H2088 0.960 . S
C2102 H2089 0.961 . S
C2102 H2090 0.959 . S
C2102 C2100 1.561 . S
C2103 C2100 1.526 . S
C2103 C2104 1.396 . S
C2103 C2108 1.390 1_565 S
C2104 C2098 1.465 . S
C2104 C2103 1.396 . S
C2104 C2105 1.399 . S
C2105 H2091 0.929 . S
C2105 C2104 1.399 . S
C2105 C2106 1.385 1_565 S
C2106 H2092 0.931 . S
C2106 C2105 1.385 1_545 S
C2106 C2107 1.389 . S
C2107 C2106 1.389 . S
C2107 C2108 1.387 . S
C2108 H2093 0.930 . S
C2108 C2103 1.390 1_545 S
C2108 C2107 1.387 . S
H2109 C2121 0.930 . S
H2110 C2123 0.930 . S
H2111 C2124 0.930 . S
H2112 C2128 0.959 . S
H2113 C2128 0.959 . S
H2114 C2128 0.961 . S
H2115 C2129 0.960 . S
H2116 C2129 0.961 . S
H2117 C2129 0.959 . S
H2118 C2132 0.929 . S
H2119 C2133 0.931 . S
H2120 C2135 0.930 . S
C2121 H2109 0.930 . S
C2121 C2122 1.399 . S
C2121 C2126 1.399 . S
C2122 C2121 1.399 . S
C2122 C2123 1.376 1_565 S
C2123 H2110 0.930 . S
C2123 C2122 1.376 1_545 S
C2123 C2124 1.388 . S
C2124 H2111 0.930 . S
C2124 C2123 1.388 . S
C2124 C2125 1.390 1_545 S
C2125 C2124 1.390 1_565 S
C2125 C2126 1.394 . S
C2125 C2131 1.465 . S
C2126 C2121 1.399 . S
C2126 C2125 1.394 . S
C2126 C2127 1.516 . S
C2127 C2126 1.516 . S
C2127 C2128 1.502 . S
C2127 C2129 1.561 . S
C2127 C2130 1.526 . S
C2128 H2112 0.959 . S
C2128 H2113 0.959 . S
C2128 H2114 0.961 . S
C2128 C2127 1.502 . S
C2129 H2115 0.960 . S
C2129 H2116 0.961 . S
C2129 H2117 0.959 . S
C2129 C2127 1.561 . S
C2130 C2127 1.526 . S
C2130 C2131 1.396 . S
C2130 C2135 1.390 . S
C2131 C2125 1.465 . S
C2131 C2130 1.396 . S
C2131 C2132 1.399 1_565 S
C2132 H2118 0.929 . S
C2132 C2131 1.399 1_545 S
C2132 C2133 1.385 . S
C2133 H2119 0.931 . S
C2133 C2132 1.385 . S
C2133 C2134 1.389 1_545 S
C2134 C2133 1.389 1_565 S
C2134 C2135 1.387 . S
C2135 H2120 0.930 . S
C2135 C2130 1.390 . S
C2135 C2134 1.387 . S
H2136 C2148 0.930 . S
H2137 C2150 0.930 . S
H2138 C2151 0.930 . S
H2139 C2155 0.959 . S
H2140 C2155 0.959 . S
H2141 C2155 0.961 . S
H2142 C2156 0.960 . S
H2143 C2156 0.961 . S
H2144 C2156 0.959 . S
H2145 C2159 0.929 . S
H2146 C2160 0.931 . S
H2147 C2162 0.930 . S
C2148 H2136 0.930 . S
C2148 C2149 1.399 . S
C2148 C2153 1.399 1_565 S
C2149 C2148 1.399 . S
C2149 C2150 1.376 . S
C2150 H2137 0.930 . S
C2150 C2149 1.376 . S
C2150 C2151 1.388 1_565 S
C2151 H2138 0.930 . S
C2151 C2150 1.388 1_545 S
C2151 C2152 1.390 . S
C2152 C2151 1.390 . S
C2152 C2153 1.394 . S
C2152 C2158 1.465 . S
C2153 C2148 1.399 1_545 S
C2153 C2152 1.394 . S
C2153 C2154 1.516 . S
C2154 C2153 1.516 . S
C2154 C2155 1.502 . S
C2154 C2156 1.561 . S
C2154 C2157 1.526 . S
C2155 H2139 0.959 . S
C2155 H2140 0.959 . S
C2155 H2141 0.961 . S
C2155 C2154 1.502 . S
C2156 H2142 0.960 . S
C2156 H2143 0.961 . S
C2156 H2144 0.959 . S
C2156 C2154 1.561 . S
C2157 C2154 1.526 . S
C2157 C2158 1.396 . S
C2157 C2162 1.390 . S
C2158 C2152 1.465 . S
C2158 C2157 1.396 . S
C2158 C2159 1.399 . S
C2159 H2145 0.929 . S
C2159 C2158 1.399 . S
C2159 C2160 1.385 . S
C2160 H2146 0.931 . S
C2160 C2159 1.385 . S
C2160 C2161 1.389 . S
C2161 C2160 1.389 . S
C2161 C2162 1.387 . S
C2162 H2147 0.930 . S
C2162 C2157 1.390 . S
C2162 C2161 1.387 . S
H2163 C2175 0.930 . S
H2164 C2177 0.930 . S
H2165 C2178 0.930 . S
H2166 C2182 0.959 . S
H2167 C2182 0.959 . S
H2168 C2182 0.961 . S
H2169 C2183 0.960 . S
H2170 C2183 0.961 . S
H2171 C2183 0.959 . S
H2172 C2186 0.929 . S
H2173 C2187 0.931 . S
H2174 C2189 0.930 . S
C2175 H2163 0.930 . S
C2175 C2176 1.399 . S
C2175 C2180 1.399 . S
C2176 C2175 1.399 . S
C2176 C2177 1.376 1_565 S
C2177 H2164 0.930 . S
C2177 C2176 1.376 1_545 S
C2177 C2178 1.388 . S
C2178 H2165 0.930 . S
C2178 C2177 1.388 . S
C2178 C2179 1.400 . S
C2179 C2178 1.400 . S
C2179 C2180 1.381 1_545 S
C2179 C2185 1.465 . S
C2180 C2175 1.399 . S
C2180 C2179 1.381 1_565 S
C2180 C2181 1.516 . S
C2181 C2180 1.516 . S
C2181 C2182 1.502 . S
C2181 C2183 1.561 . S
C2181 C2184 1.526 . S
C2182 H2166 0.959 . S
C2182 H2167 0.959 . S
C2182 H2168 0.961 . S
C2182 C2181 1.502 . S
C2183 H2169 0.960 . S
C2183 H2170 0.961 . S
C2183 H2171 0.959 . S
C2183 C2181 1.561 . S
C2184 C2181 1.526 . S
C2184 C2185 1.385 1_565 S
C2184 C2189 1.390 . S
C2185 C2179 1.465 . S
C2185 C2184 1.385 1_545 S
C2185 C2186 1.407 . S
C2186 H2172 0.929 . S
C2186 C2185 1.407 . S
C2186 C2187 1.385 . S
C2187 H2173 0.931 . S
C2187 C2186 1.385 . S
C2187 C2188 1.389 1_545 S
C2188 C2187 1.389 1_565 S
C2188 C2189 1.387 . S
C2189 H2174 0.930 . S
C2189 C2184 1.390 . S
C2189 C2188 1.387 . S
H2190 C2202 0.930 . S
H2191 C2204 0.930 . S
H2192 C2205 0.930 . S
H2193 C2209 0.959 . S
H2194 C2209 0.959 . S
H2195 C2209 0.961 . S
H2196 C2210 0.960 . S
H2197 C2210 0.961 . S
H2198 C2210 0.959 . S
H2199 C2213 0.929 . S
H2200 C2214 0.931 . S
H2201 C2216 0.930 . S
C2202 H2190 0.930 . S
C2202 C2203 1.399 . S
C2202 C2207 1.399 1_545 S
C2203 C2202 1.399 . S
C2203 C2204 1.376 . S
C2204 H2191 0.930 . S
C2204 C2203 1.376 . S
C2204 C2205 1.388 1_545 S
C2205 H2192 0.930 . S
C2205 C2204 1.388 1_565 S
C2205 C2206 1.390 . S
C2206 C2205 1.390 . S
C2206 C2207 1.394 . S
C2206 C2212 1.465 . S
C2207 C2202 1.399 1_565 S
C2207 C2206 1.394 . S
C2207 C2208 1.516 . S
C2208 C2207 1.516 . S
C2208 C2209 1.502 . S
C2208 C2210 1.561 . S
C2208 C2211 1.526 . S
C2209 H2193 0.959 . S
C2209 H2194 0.959 . S
C2209 H2195 0.961 . S
C2209 C2208 1.502 . S
C2210 H2196 0.960 . S
C2210 H2197 0.961 . S
C2210 H2198 0.959 . S
C2210 C2208 1.561 . S
C2211 C2208 1.526 . S
C2211 C2212 1.396 . S
C2211 C2216 1.390 . S
C2212 C2206 1.465 . S
C2212 C2211 1.396 . S
C2212 C2213 1.399 . S
C2213 H2199 0.929 . S
C2213 C2212 1.399 . S
C2213 C2214 1.385 . S
C2214 H2200 0.931 . S
C2214 C2213 1.385 . S
C2214 C2215 1.389 . S
C2215 C2214 1.389 . S
C2215 C2216 1.387 . S
C2216 H2201 0.930 . S
C2216 C2211 1.390 . S
C2216 C2215 1.387 . S
H2217 C2229 0.930 . S
H2218 C2231 0.930 . S
H2219 C2232 0.930 . S
H2220 C2236 0.959 . S
H2221 C2236 0.959 . S
H2222 C2236 0.961 . S
H2223 C2237 0.960 . S
H2224 C2237 0.961 . S
H2225 C2237 0.959 . S
H2226 C2240 0.929 . S
H2227 C2241 0.931 . S
H2228 C2243 0.930 . S
C2229 H2217 0.930 . S
C2229 C2230 1.399 1_565 S
C2229 C2234 1.399 . S
C2230 C2229 1.399 1_545 S
C2230 C2231 1.376 . S
C2231 H2218 0.930 . S
C2231 C2230 1.376 . S
C2231 C2232 1.388 . S
C2232 H2219 0.930 . S
C2232 C2231 1.388 . S
C2232 C2233 1.390 . S
C2233 C2232 1.390 . S
C2233 C2234 1.394 1_545 S
C2233 C2239 1.465 . S
C2234 C2229 1.399 . S
C2234 C2233 1.394 1_565 S
C2234 C2235 1.516 . S
C2235 C2234 1.516 . S
C2235 C2236 1.502 . S
C2235 C2237 1.561 . S
C2235 C2238 1.526 . S
C2236 H2220 0.959 . S
C2236 H2221 0.959 . S
C2236 H2222 0.961 . S
C2236 C2235 1.502 . S
C2237 H2223 0.960 . S
C2237 H2224 0.961 . S
C2237 H2225 0.959 . S
C2237 C2235 1.561 . S
C2238 C2235 1.526 . S
C2238 C2239 1.396 1_565 S
C2238 C2243 1.390 . S
C2239 C2233 1.465 . S
C2239 C2238 1.396 1_545 S
C2239 C2240 1.399 . S
C2240 H2226 0.929 . S
C2240 C2239 1.399 . S
C2240 C2241 1.385 . S
C2241 H2227 0.931 . S
C2241 C2240 1.385 . S
C2241 C2242 1.389 . S
C2242 C2241 1.389 . S
C2242 C2243 1.387 1_545 S
C2243 H2228 0.930 . S
C2243 C2238 1.390 . S
C2243 C2242 1.387 1_565 S
H2244 C2256 0.930 . S
H2245 C2258 0.930 . S
H2246 C2259 0.930 . S
H2247 C2263 0.959 . S
H2248 C2263 0.959 . S
H2249 C2263 0.961 . S
H2250 C2264 0.960 . S
H2251 C2264 0.961 . S
H2252 C2264 0.959 . S
H2253 C2267 0.938 . S
H2254 C2268 0.931 . S
H2255 C2270 0.930 . S
C2256 H2244 0.930 . S
C2256 C2257 1.399 . S
C2256 C2261 1.399 . S
C2257 C2256 1.399 . S
C2257 C2258 1.376 . S
C2258 H2245 0.930 . S
C2258 C2257 1.376 . S
C2258 C2259 1.388 . S
C2259 H2246 0.930 . S
C2259 C2258 1.388 . S
C2259 C2260 1.390 . S
C2260 C2259 1.390 . S
C2260 C2261 1.394 . S
C2260 C2266 1.465 . S
C2261 C2256 1.399 . S
C2261 C2260 1.394 . S
C2261 C2262 1.516 . S
C2262 C2261 1.516 . S
C2262 C2263 1.502 . S
C2262 C2264 1.561 . S
C2262 C2265 1.526 . S
C2263 H2247 0.959 . S
C2263 H2248 0.959 . S
C2263 H2249 0.961 . S
C2263 C2262 1.502 . S
C2264 H2250 0.960 . S
C2264 H2251 0.961 . S
C2264 H2252 0.959 . S
C2264 C2262 1.561 . S
C2265 C2262 1.526 . S
C2265 C2266 1.396 . S
C2265 C2270 1.390 1_565 S
C2266 C2260 1.465 . S
C2266 C2265 1.396 . S
C2266 C2267 1.417 . S
C2267 H2253 0.938 . S
C2267 C2266 1.417 . S
C2267 C2268 1.359 1_565 S
C2268 H2254 0.931 . S
C2268 C2267 1.359 1_545 S
C2268 C2269 1.389 . S
C2269 C2268 1.389 . S
C2269 C2270 1.387 . S
C2270 H2255 0.930 . S
C2270 C2265 1.390 1_545 S
C2270 C2269 1.387 . S
H2271 C2283 0.930 . S
H2272 C2285 0.930 . S
H2273 C2286 0.930 . S
H2274 C2290 0.959 . S
H2275 C2290 0.959 . S
H2276 C2290 0.961 . S
H2277 C2291 0.960 . S
H2278 C2291 0.961 . S
H2279 C2291 0.959 . S
H2280 C2294 0.929 . S
H2281 C2295 0.931 . S
H2282 C2297 0.930 . S
C2283 H2271 0.930 . S
C2283 C2284 1.399 1_545 S
C2283 C2288 1.399 . S
C2284 C2283 1.399 1_565 S
C2284 C2285 1.376 . S
C2285 H2272 0.930 . S
C2285 C2284 1.376 . S
C2285 C2286 1.388 . S
C2286 H2273 0.930 . S
C2286 C2285 1.388 . S
C2286 C2287 1.390 . S
C2287 C2286 1.390 . S
C2287 C2288 1.394 1_565 S
C2287 C2293 1.465 . S
C2288 C2283 1.399 . S
C2288 C2287 1.394 1_545 S
C2288 C2289 1.516 . S
C2289 C2288 1.516 . S
C2289 C2290 1.502 . S
C2289 C2291 1.561 . S
C2289 C2292 1.526 . S
C2290 H2274 0.959 . S
C2290 H2275 0.959 . S
C2290 H2276 0.961 . S
C2290 C2289 1.502 . S
C2291 H2277 0.960 . S
C2291 H2278 0.961 . S
C2291 H2279 0.959 . S
C2291 C2289 1.561 . S
C2292 C2289 1.526 . S
C2292 C2293 1.396 1_545 S
C2292 C2297 1.390 . S
C2293 C2287 1.465 . S
C2293 C2292 1.396 1_565 S
C2293 C2294 1.399 . S
C2294 H2280 0.929 . S
C2294 C2293 1.399 . S
C2294 C2295 1.385 . S
C2295 H2281 0.931 . S
C2295 C2294 1.385 . S
C2295 C2296 1.389 . S
C2296 C2295 1.389 . S
C2296 C2297 1.387 1_565 S
C2297 H2282 0.930 . S
C2297 C2292 1.390 . S
C2297 C2296 1.387 1_545 S
H2298 C2310 0.930 . S
H2299 C2312 0.930 . S
H2300 C2313 0.930 . S
H2301 C2317 0.959 . S
H2302 C2317 0.959 . S
H2303 C2317 0.961 . S
H2304 C2318 0.960 . S
H2305 C2318 0.961 . S
H2306 C2318 0.959 . S
H2307 C2321 0.929 . S
H2308 C2322 0.931 . S
H2309 C2324 0.930 . S
C2310 H2298 0.930 . S
C2310 C2311 1.399 . S
C2310 C2315 1.399 1_565 S
C2311 C2310 1.399 . S
C2311 C2312 1.376 . S
C2312 H2299 0.930 . S
C2312 C2311 1.376 . S
C2312 C2313 1.388 1_565 S
C2313 H2300 0.930 . S
C2313 C2312 1.388 1_545 S
C2313 C2314 1.390 . S
C2314 C2313 1.390 . S
C2314 C2315 1.394 . S
C2314 C2320 1.465 . S
C2315 C2310 1.399 1_545 S
C2315 C2314 1.394 . S
C2315 C2316 1.516 . S
C2316 C2315 1.516 . S
C2316 C2317 1.502 . S
C2316 C2318 1.561 . S
C2316 C2319 1.526 . S
C2317 H2301 0.959 . S
C2317 H2302 0.959 . S
C2317 H2303 0.961 . S
C2317 C2316 1.502 . S
C2318 H2304 0.960 . S
C2318 H2305 0.961 . S
C2318 H2306 0.959 . S
C2318 C2316 1.561 . S
C2319 C2316 1.526 . S
C2319 C2320 1.396 . S
C2319 C2324 1.390 . S
C2320 C2314 1.465 . S
C2320 C2319 1.396 . S
C2320 C2321 1.399 . S
C2321 H2307 0.929 . S
C2321 C2320 1.399 . S
C2321 C2322 1.385 . S
C2322 H2308 0.931 . S
C2322 C2321 1.385 . S
C2322 C2323 1.389 . S
C2323 C2322 1.389 . S
C2323 C2324 1.387 . S
C2324 H2309 0.930 . S
C2324 C2319 1.390 . S
C2324 C2323 1.387 . S
H2325 C2337 0.930 . S
H2326 C2339 0.930 . S
H2327 C2340 0.930 . S
H2328 C2344 0.959 . S
H2329 C2344 0.959 . S
H2330 C2344 0.961 . S
H2331 C2345 0.960 . S
H2332 C2345 0.961 . S
H2333 C2345 0.959 . S
H2334 C2348 0.929 . S
H2335 C2349 0.931 . S
H2336 C2351 0.930 . S
C2337 H2325 0.930 . S
C2337 C2338 1.399 . S
C2337 C2342 1.399 . S
C2338 C2337 1.399 . S
C2338 C2339 1.376 1_545 S
C2339 H2326 0.930 . S
C2339 C2338 1.376 1_565 S
C2339 C2340 1.388 . S
C2340 H2327 0.930 . S
C2340 C2339 1.388 . S
C2340 C2341 1.403 . S
C2341 C2340 1.403 . S
C2341 C2342 1.377 1_565 S
C2341 C2347 1.465 1_565 S
C2342 C2337 1.399 . S
C2342 C2341 1.377 1_545 S
C2342 C2343 1.516 . S
C2343 C2342 1.516 . S
C2343 C2344 1.502 . S
C2343 C2345 1.561 . S
C2343 C2346 1.526 . S
C2344 H2328 0.959 . S
C2344 H2329 0.959 . S
C2344 H2330 0.961 . S
C2344 C2343 1.502 . S
C2345 H2331 0.960 . S
C2345 H2332 0.961 . S
C2345 H2333 0.959 . S
C2345 C2343 1.561 . S
C2346 C2343 1.526 . S
C2346 C2347 1.396 . S
C2346 C2351 1.390 . S
C2347 C2341 1.465 1_545 S
C2347 C2346 1.396 . S
C2347 C2348 1.399 1_545 S
C2348 H2334 0.929 . S
C2348 C2347 1.399 1_565 S
C2348 C2349 1.385 . S
C2349 H2335 0.931 . S
C2349 C2348 1.385 . S
C2349 C2350 1.389 1_565 S
C2350 C2349 1.389 1_545 S
C2350 C2351 1.387 . S
C2351 H2336 0.930 . S
C2351 C2346 1.390 . S
C2351 C2350 1.387 . S
H2352 C2364 0.930 . S
H2353 C2366 0.930 . S
H2354 C2367 0.930 . S
H2355 C2371 0.959 . S
H2356 C2371 0.959 . S
H2357 C2371 0.961 . S
H2358 C2372 0.960 . S
H2359 C2372 0.961 . S
H2360 C2372 0.959 . S
H2361 C2375 0.929 . S
H2362 C2376 0.931 . S
H2363 C2378 0.930 . S
C2364 H2352 0.930 . S
C2364 C2365 1.399 . S
C2364 C2369 1.399 . S
C2365 C2364 1.399 . S
C2365 C2366 1.376 . S
C2366 H2353 0.930 . S
C2366 C2365 1.376 . S
C2366 C2367 1.388 . S
C2367 H2354 0.930 . S
C2367 C2366 1.388 . S
C2367 C2368 1.390 . S
C2368 C2367 1.390 . S
C2368 C2369 1.394 . S
C2368 C2374 1.465 . S
C2369 C2364 1.399 . S
C2369 C2368 1.394 . S
C2369 C2370 1.516 . S
C2370 C2369 1.516 . S
C2370 C2371 1.502 . S
C2370 C2372 1.561 . S
C2370 C2373 1.526 . S
C2371 H2355 0.959 . S
C2371 H2356 0.959 . S
C2371 H2357 0.961 . S
C2371 C2370 1.502 . S
C2372 H2358 0.960 . S
C2372 H2359 0.961 . S
C2372 H2360 0.959 . S
C2372 C2370 1.561 . S
C2373 C2370 1.526 . S
C2373 C2374 1.396 . S
C2373 C2378 1.390 . S
C2374 C2368 1.465 . S
C2374 C2373 1.396 . S
C2374 C2375 1.399 . S
C2375 H2361 0.929 . S
C2375 C2374 1.399 . S
C2375 C2376 1.385 . S
C2376 H2362 0.931 . S
C2376 C2375 1.385 . S
C2376 C2377 1.389 . S
C2377 C2376 1.389 . S
C2377 C2378 1.387 . S
C2378 H2363 0.930 . S
C2378 C2373 1.390 . S
C2378 C2377 1.387 . S
H2379 C2391 0.930 . S
H2380 C2393 0.930 . S
H2381 C2394 0.930 . S
H2382 C2398 0.959 . S
H2383 C2398 0.959 . S
H2384 C2398 0.961 . S
H2385 C2399 0.960 . S
H2386 C2399 0.961 . S
H2387 C2399 0.959 . S
H2388 C2402 0.929 . S
H2389 C2403 0.931 . S
H2390 C2405 0.930 . S
C2391 H2379 0.930 . S
C2391 C2392 1.399 . S
C2391 C2396 1.399 . S
C2392 C2391 1.399 . S
C2392 C2393 1.376 . S
C2393 H2380 0.930 . S
C2393 C2392 1.376 . S
C2393 C2394 1.388 . S
C2394 H2381 0.930 . S
C2394 C2393 1.388 . S
C2394 C2395 1.390 . S
C2395 C2394 1.390 . S
C2395 C2396 1.394 . S
C2395 C2401 1.465 . S
C2396 C2391 1.399 . S
C2396 C2395 1.394 . S
C2396 C2397 1.516 . S
C2397 C2396 1.516 . S
C2397 C2398 1.502 . S
C2397 C2399 1.561 . S
C2397 C2400 1.526 . S
C2398 H2382 0.959 . S
C2398 H2383 0.959 . S
C2398 H2384 0.961 . S
C2398 C2397 1.502 . S
C2399 H2385 0.960 . S
C2399 H2386 0.961 . S
C2399 H2387 0.959 . S
C2399 C2397 1.561 . S
C2400 C2397 1.526 . S
C2400 C2401 1.396 . S
C2400 C2405 1.390 . S
C2401 C2395 1.465 . S
C2401 C2400 1.396 . S
C2401 C2402 1.399 . S
C2402 H2388 0.929 . S
C2402 C2401 1.399 . S
C2402 C2403 1.385 . S
C2403 H2389 0.931 . S
C2403 C2402 1.385 . S
C2403 C2404 1.389 . S
C2404 C2403 1.389 . S
C2404 C2405 1.387 . S
C2405 H2390 0.930 . S
C2405 C2400 1.390 . S
C2405 C2404 1.387 . S
H2406 C2418 0.930 . S
H2407 C2420 0.930 . S
H2408 C2421 0.930 . S
H2409 C2425 0.959 . S
H2410 C2425 0.959 . S
H2411 C2425 0.961 . S
H2412 C2426 0.960 . S
H2413 C2426 0.961 . S
H2414 C2426 0.959 . S
H2415 C2429 0.929 . S
H2416 C2430 0.931 . S
H2417 C2432 0.930 . S
C2418 H2406 0.930 . S
C2418 C2419 1.399 . S
C2418 C2423 1.399 . S
C2419 C2418 1.399 . S
C2419 C2420 1.376 . S
C2420 H2407 0.930 . S
C2420 C2419 1.376 . S
C2420 C2421 1.388 . S
C2421 H2408 0.930 . S
C2421 C2420 1.388 . S
C2421 C2422 1.390 . S
C2422 C2421 1.390 . S
C2422 C2423 1.394 . S
C2422 C2428 1.465 . S
C2423 C2418 1.399 . S
C2423 C2422 1.394 . S
C2423 C2424 1.516 . S
C2424 C2423 1.516 . S
C2424 C2425 1.502 . S
C2424 C2426 1.561 . S
C2424 C2427 1.526 . S
C2425 H2409 0.959 . S
C2425 H2410 0.959 . S
C2425 H2411 0.961 . S
C2425 C2424 1.502 . S
C2426 H2412 0.960 . S
C2426 H2413 0.961 . S
C2426 H2414 0.959 . S
C2426 C2424 1.561 . S
C2427 C2424 1.526 . S
C2427 C2428 1.396 . S
C2427 C2432 1.390 . S
C2428 C2422 1.465 . S
C2428 C2427 1.396 . S
C2428 C2429 1.399 . S
C2429 H2415 0.929 . S
C2429 C2428 1.399 . S
C2429 C2430 1.385 . S
C2430 H2416 0.931 . S
C2430 C2429 1.385 . S
C2430 C2431 1.389 . S
C2431 C2430 1.389 . S
C2431 C2432 1.387 . S
C2432 H2417 0.930 . S
C2432 C2427 1.390 . S
C2432 C2431 1.387 . S
H2433 C2445 0.930 . S
H2434 C2447 0.930 . S
H2435 C2448 0.930 . S
H2436 C2452 0.959 . S
H2437 C2452 0.959 . S
H2438 C2452 0.961 . S
H2439 C2453 0.960 . S
H2440 C2453 0.961 . S
H2441 C2453 0.959 . S
H2442 C2456 0.929 . S
H2443 C2457 0.931 . S
H2444 C2459 0.930 . S
C2445 H2433 0.930 . S
C2445 C2446 1.399 . S
C2445 C2450 1.399 . S
C2446 C2445 1.399 . S
C2446 C2447 1.376 . S
C2447 H2434 0.930 . S
C2447 C2446 1.376 . S
C2447 C2448 1.388 . S
C2448 H2435 0.930 . S
C2448 C2447 1.388 . S
C2448 C2449 1.390 . S
C2449 C2448 1.390 . S
C2449 C2450 1.394 . S
C2449 C2455 1.465 . S
C2450 C2445 1.399 . S
C2450 C2449 1.394 . S
C2450 C2451 1.516 . S
C2451 C2450 1.516 . S
C2451 C2452 1.502 . S
C2451 C2453 1.561 . S
C2451 C2454 1.526 . S
C2452 H2436 0.959 . S
C2452 H2437 0.959 . S
C2452 H2438 0.961 . S
C2452 C2451 1.502 . S
C2453 H2439 0.960 . S
C2453 H2440 0.961 . S
C2453 H2441 0.959 . S
C2453 C2451 1.561 . S
C2454 C2451 1.526 . S
C2454 C2455 1.396 . S
C2454 C2459 1.390 . S
C2455 C2449 1.465 . S
C2455 C2454 1.396 . S
C2455 C2456 1.399 . S
C2456 H2442 0.929 . S
C2456 C2455 1.399 . S
C2456 C2457 1.385 . S
C2457 H2443 0.931 . S
C2457 C2456 1.385 . S
C2457 C2458 1.389 . S
C2458 C2457 1.389 . S
C2458 C2459 1.387 . S
C2459 H2444 0.930 . S
C2459 C2454 1.390 . S
C2459 C2458 1.387 . S
H2460 C2472 0.930 . S
H2461 C2474 0.930 . S
H2462 C2475 0.930 . S
H2463 C2479 0.959 . S
H2464 C2479 0.959 . S
H2465 C2479 0.961 . S
H2466 C2480 0.960 . S
H2467 C2480 0.961 . S
H2468 C2480 0.959 . S
H2469 C2483 0.929 . S
H2470 C2484 0.931 . S
H2471 C2486 0.930 . S
C2472 H2460 0.930 . S
C2472 C2473 1.399 . S
C2472 C2477 1.399 . S
C2473 C2472 1.399 . S
C2473 C2474 1.376 . S
C2474 H2461 0.930 . S
C2474 C2473 1.376 . S
C2474 C2475 1.388 . S
C2475 H2462 0.930 . S
C2475 C2474 1.388 . S
C2475 C2476 1.390 . S
C2476 C2475 1.390 . S
C2476 C2477 1.394 . S
C2476 C2482 1.465 . S
C2477 C2472 1.399 . S
C2477 C2476 1.394 . S
C2477 C2478 1.516 . S
C2478 C2477 1.516 . S
C2478 C2479 1.502 . S
C2478 C2480 1.561 . S
C2478 C2481 1.526 . S
C2479 H2463 0.959 . S
C2479 H2464 0.959 . S
C2479 H2465 0.961 . S
C2479 C2478 1.502 . S
C2480 H2466 0.960 . S
C2480 H2467 0.961 . S
C2480 H2468 0.959 . S
C2480 C2478 1.561 . S
C2481 C2478 1.526 . S
C2481 C2482 1.396 . S
C2481 C2486 1.390 . S
C2482 C2476 1.465 . S
C2482 C2481 1.396 . S
C2482 C2483 1.399 . S
C2483 H2469 0.929 . S
C2483 C2482 1.399 . S
C2483 C2484 1.385 . S
C2484 H2470 0.931 . S
C2484 C2483 1.385 . S
C2484 C2485 1.389 . S
C2485 C2484 1.389 . S
C2485 C2486 1.387 . S
C2486 H2471 0.930 . S
C2486 C2481 1.390 . S
C2486 C2485 1.387 . S
H2487 C2499 0.930 . S
H2488 C2501 0.930 . S
H2489 C2502 0.930 . S
H2490 C2506 0.959 . S
H2491 C2506 0.959 . S
H2492 C2506 0.961 . S
H2493 C2507 0.960 . S
H2494 C2507 0.961 . S
H2495 C2507 0.959 . S
H2496 C2510 0.929 . S
H2497 C2511 0.931 . S
H2498 C2513 0.930 . S
C2499 H2487 0.930 . S
C2499 C2500 1.399 . S
C2499 C2504 1.399 . S
C2500 C2499 1.399 . S
C2500 C2501 1.376 . S
C2501 H2488 0.930 . S
C2501 C2500 1.376 . S
C2501 C2502 1.388 . S
C2502 H2489 0.930 . S
C2502 C2501 1.388 . S
C2502 C2503 1.390 . S
C2503 C2502 1.390 . S
C2503 C2504 1.394 . S
C2503 C2509 1.465 . S
C2504 C2499 1.399 . S
C2504 C2503 1.394 . S
C2504 C2505 1.516 . S
C2505 C2504 1.516 . S
C2505 C2506 1.502 . S
C2505 C2507 1.561 . S
C2505 C2508 1.526 . S
C2506 H2490 0.959 . S
C2506 H2491 0.959 . S
C2506 H2492 0.961 . S
C2506 C2505 1.502 . S
C2507 H2493 0.960 . S
C2507 H2494 0.961 . S
C2507 H2495 0.959 . S
C2507 C2505 1.561 . S
C2508 C2505 1.526 . S
C2508 C2509 1.396 . S
C2508 C2513 1.390 . S
C2509 C2503 1.465 . S
C2509 C2508 1.396 . S
C2509 C2510 1.399 . S
C2510 H2496 0.929 . S
C2510 C2509 1.399 . S
C2510 C2511 1.385 . S
C2511 H2497 0.931 . S
C2511 C2510 1.385 . S
C2511 C2512 1.389 . S
C2512 C2511 1.389 . S
C2512 C2513 1.387 . S
C2513 H2498 0.930 . S
C2513 C2508 1.390 . S
C2513 C2512 1.387 . S
H2514 C2526 0.930 . S
H2515 C2528 0.930 . S
H2516 C2529 0.930 . S
H2517 C2533 0.959 . S
H2518 C2533 0.959 . S
H2519 C2533 0.961 . S
H2520 C2534 0.960 . S
H2521 C2534 0.961 . S
H2522 C2534 0.959 . S
H2523 C2537 0.929 . S
H2524 C2538 0.931 . S
H2525 C2540 0.930 . S
C2526 H2514 0.930 . S
C2526 C2527 1.399 . S
C2526 C2531 1.399 . S
C2527 C2526 1.399 . S
C2527 C2528 1.376 . S
C2528 H2515 0.930 . S
C2528 C2527 1.376 . S
C2528 C2529 1.388 . S
C2529 H2516 0.930 . S
C2529 C2528 1.388 . S
C2529 C2530 1.390 . S
C2530 C2529 1.390 . S
C2530 C2531 1.394 . S
C2530 C2536 1.465 . S
C2531 C2526 1.399 . S
C2531 C2530 1.394 . S
C2531 C2532 1.516 . S
C2532 C2531 1.516 . S
C2532 C2533 1.502 . S
C2532 C2534 1.561 . S
C2532 C2535 1.526 . S
C2533 H2517 0.959 . S
C2533 H2518 0.959 . S
C2533 H2519 0.961 . S
C2533 C2532 1.502 . S
C2534 H2520 0.960 . S
C2534 H2521 0.961 . S
C2534 H2522 0.959 . S
C2534 C2532 1.561 . S
C2535 C2532 1.526 . S
C2535 C2536 1.396 . S
C2535 C2540 1.390 . S
C2536 C2530 1.465 . S
C2536 C2535 1.396 . S
C2536 C2537 1.399 . S
C2537 H2523 0.929 . S
C2537 C2536 1.399 . S
C2537 C2538 1.385 . S
C2538 H2524 0.931 . S
C2538 C2537 1.385 . S
C2538 C2539 1.389 . S
C2539 C2538 1.389 . S
C2539 C2540 1.387 . S
C2540 H2525 0.930 . S
C2540 C2535 1.390 . S
C2540 C2539 1.387 . S
H2541 C2553 0.930 . S
H2542 C2555 0.930 . S
H2543 C2556 0.930 . S
H2544 C2560 0.959 . S
H2545 C2560 0.959 . S
H2546 C2560 0.961 . S
H2547 C2561 0.960 . S
H2548 C2561 0.961 . S
H2549 C2561 0.959 . S
H2550 C2564 0.929 . S
H2551 C2565 0.931 . S
H2552 C2567 0.930 . S
C2553 H2541 0.930 . S
C2553 C2554 1.399 . S
C2553 C2558 1.399 . S
C2554 C2553 1.399 . S
C2554 C2555 1.376 . S
C2555 H2542 0.930 . S
C2555 C2554 1.376 . S
C2555 C2556 1.388 . S
C2556 H2543 0.930 . S
C2556 C2555 1.388 . S
C2556 C2557 1.390 . S
C2557 C2556 1.390 . S
C2557 C2558 1.394 . S
C2557 C2563 1.465 . S
C2558 C2553 1.399 . S
C2558 C2557 1.394 . S
C2558 C2559 1.516 . S
C2559 C2558 1.516 . S
C2559 C2560 1.502 . S
C2559 C2561 1.561 . S
C2559 C2562 1.526 . S
C2560 H2544 0.959 . S
C2560 H2545 0.959 . S
C2560 H2546 0.961 . S
C2560 C2559 1.502 . S
C2561 H2547 0.960 . S
C2561 H2548 0.961 . S
C2561 H2549 0.959 . S
C2561 C2559 1.561 . S
C2562 C2559 1.526 . S
C2562 C2563 1.396 . S
C2562 C2567 1.390 . S
C2563 C2557 1.465 . S
C2563 C2562 1.396 . S
C2563 C2564 1.399 . S
C2564 H2550 0.929 . S
C2564 C2563 1.399 . S
C2564 C2565 1.385 . S
C2565 H2551 0.931 . S
C2565 C2564 1.385 . S
C2565 C2566 1.389 . S
C2566 C2565 1.389 . S
C2566 C2567 1.387 . S
C2567 H2552 0.930 . S
C2567 C2562 1.390 . S
C2567 C2566 1.387 . S
H2568 C2580 0.930 . S
H2569 C2582 0.930 . S
H2570 C2583 0.930 . S
H2571 C2587 0.959 . S
H2572 C2587 0.959 . S
H2573 C2587 0.961 . S
H2574 C2588 0.960 . S
H2575 C2588 0.961 . S
H2576 C2588 0.959 . S
H2577 C2591 0.929 . S
H2578 C2592 0.931 . S
H2579 C2594 0.930 . S
C2580 H2568 0.930 . S
C2580 C2581 1.399 . S
C2580 C2585 1.399 . S
C2581 C2580 1.399 . S
C2581 C2582 1.376 . S
C2582 H2569 0.930 . S
C2582 C2581 1.376 . S
C2582 C2583 1.388 . S
C2583 H2570 0.930 . S
C2583 C2582 1.388 . S
C2583 C2584 1.390 . S
C2584 C2583 1.390 . S
C2584 C2585 1.394 . S
C2584 C2590 1.465 . S
C2585 C2580 1.399 . S
C2585 C2584 1.394 . S
C2585 C2586 1.516 . S
C2586 C2585 1.516 . S
C2586 C2587 1.502 . S
C2586 C2588 1.561 . S
C2586 C2589 1.526 . S
C2587 H2571 0.959 . S
C2587 H2572 0.959 . S
C2587 H2573 0.961 . S
C2587 C2586 1.502 . S
C2588 H2574 0.960 . S
C2588 H2575 0.961 . S
C2588 H2576 0.959 . S
C2588 C2586 1.561 . S
C2589 C2586 1.526 . S
C2589 C2590 1.396 . S
C2589 C2594 1.390 . S
C2590 C2584 1.465 . S
C2590 C2589 1.396 . S
C2590 C2591 1.399 . S
C2591 H2577 0.929 . S
C2591 C2590 1.399 . S
C2591 C2592 1.385 . S
C2592 H2578 0.931 . S
C2592 C2591 1.385 . S
C2592 C2593 1.389 . S
C2593 C2592 1.389 . S
C2593 C2594 1.387 . S
C2594 H2579 0.930 . S
C2594 C2589 1.390 . S
C2594 C2593 1.387 . S
H2595 C2607 0.930 . S
H2596 C2609 0.930 . S
H2597 C2610 0.930 . S
H2598 C2614 0.959 . S
H2599 C2614 0.959 . S
H2600 C2614 0.961 . S
H2601 C2615 0.960 . S
H2602 C2615 0.961 . S
H2603 C2615 0.959 . S
H2604 C2618 0.929 . S
H2605 C2619 0.931 . S
H2606 C2621 0.930 . S
C2607 H2595 0.930 . S
C2607 C2608 1.399 . S
C2607 C2612 1.399 . S
C2608 C2607 1.399 . S
C2608 C2609 1.376 . S
C2609 H2596 0.930 . S
C2609 C2608 1.376 . S
C2609 C2610 1.388 . S
C2610 H2597 0.930 . S
C2610 C2609 1.388 . S
C2610 C2611 1.390 . S
C2611 C2610 1.390 . S
C2611 C2612 1.394 . S
C2611 C2617 1.465 . S
C2612 C2607 1.399 . S
C2612 C2611 1.394 . S
C2612 C2613 1.516 . S
C2613 C2612 1.516 . S
C2613 C2614 1.502 . S
C2613 C2615 1.561 . S
C2613 C2616 1.526 . S
C2614 H2598 0.959 . S
C2614 H2599 0.959 . S
C2614 H2600 0.961 . S
C2614 C2613 1.502 . S
C2615 H2601 0.960 . S
C2615 H2602 0.961 . S
C2615 H2603 0.959 . S
C2615 C2613 1.561 . S
C2616 C2613 1.526 . S
C2616 C2617 1.396 . S
C2616 C2621 1.390 . S
C2617 C2611 1.465 . S
C2617 C2616 1.396 . S
C2617 C2618 1.399 . S
C2618 H2604 0.929 . S
C2618 C2617 1.399 . S
C2618 C2619 1.385 . S
C2619 H2605 0.931 . S
C2619 C2618 1.385 . S
C2619 C2620 1.389 . S
C2620 C2619 1.389 . S
C2620 C2621 1.387 . S
C2621 H2606 0.930 . S
C2621 C2616 1.390 . S
C2621 C2620 1.387 . S
H2622 C2634 0.930 . S
H2623 C2636 0.930 . S
H2624 C2637 0.930 . S
H2625 C2641 0.959 . S
H2626 C2641 0.959 . S
H2627 C2641 0.961 . S
H2628 C2642 0.960 . S
H2629 C2642 0.961 . S
H2630 C2642 0.959 . S
H2631 C2645 0.929 . S
H2632 C2646 0.931 . S
H2633 C2648 0.930 . S
C2634 H2622 0.930 . S
C2634 C2635 1.399 . S
C2634 C2639 1.399 . S
C2635 C2634 1.399 . S
C2635 C2636 1.376 . S
C2636 H2623 0.930 . S
C2636 C2635 1.376 . S
C2636 C2637 1.388 . S
C2637 H2624 0.930 . S
C2637 C2636 1.388 . S
C2637 C2638 1.390 . S
C2638 C2637 1.390 . S
C2638 C2639 1.394 . S
C2638 C2644 1.465 . S
C2639 C2634 1.399 . S
C2639 C2638 1.394 . S
C2639 C2640 1.516 . S
C2640 C2639 1.516 . S
C2640 C2641 1.502 . S
C2640 C2642 1.561 . S
C2640 C2643 1.526 . S
C2641 H2625 0.959 . S
C2641 H2626 0.959 . S
C2641 H2627 0.961 . S
C2641 C2640 1.502 . S
C2642 H2628 0.960 . S
C2642 H2629 0.961 . S
C2642 H2630 0.959 . S
C2642 C2640 1.561 . S
C2643 C2640 1.526 . S
C2643 C2644 1.396 . S
C2643 C2648 1.390 . S
C2644 C2638 1.465 . S
C2644 C2643 1.396 . S
C2644 C2645 1.399 . S
C2645 H2631 0.929 . S
C2645 C2644 1.399 . S
C2645 C2646 1.385 . S
C2646 H2632 0.931 . S
C2646 C2645 1.385 . S
C2646 C2647 1.389 . S
C2647 C2646 1.389 . S
C2647 C2648 1.387 . S
C2648 H2633 0.930 . S
C2648 C2643 1.390 . S
C2648 C2647 1.387 . S
H2649 C2661 0.930 . S
H2650 C2663 0.930 . S
H2651 C2664 0.930 . S
H2652 C2668 0.959 . S
H2653 C2668 0.959 . S
H2654 C2668 0.961 . S
H2655 C2669 0.960 . S
H2656 C2669 0.961 . S
H2657 C2669 0.959 . S
H2658 C2672 0.929 . S
H2659 C2673 0.931 . S
H2660 C2675 0.930 . S
C2661 H2649 0.930 . S
C2661 C2662 1.399 . S
C2661 C2666 1.399 . S
C2662 C2661 1.399 . S
C2662 C2663 1.376 . S
C2663 H2650 0.930 . S
C2663 C2662 1.376 . S
C2663 C2664 1.388 . S
C2664 H2651 0.930 . S
C2664 C2663 1.388 . S
C2664 C2665 1.390 . S
C2665 C2664 1.390 . S
C2665 C2666 1.394 . S
C2665 C2671 1.465 . S
C2666 C2661 1.399 . S
C2666 C2665 1.394 . S
C2666 C2667 1.516 . S
C2667 C2666 1.516 . S
C2667 C2668 1.502 . S
C2667 C2669 1.561 . S
C2667 C2670 1.526 . S
C2668 H2652 0.959 . S
C2668 H2653 0.959 . S
C2668 H2654 0.961 . S
C2668 C2667 1.502 . S
C2669 H2655 0.960 . S
C2669 H2656 0.961 . S
C2669 H2657 0.959 . S
C2669 C2667 1.561 . S
C2670 C2667 1.526 . S
C2670 C2671 1.396 . S
C2670 C2675 1.390 . S
C2671 C2665 1.465 . S
C2671 C2670 1.396 . S
C2671 C2672 1.399 . S
C2672 H2658 0.929 . S
C2672 C2671 1.399 . S
C2672 C2673 1.385 . S
C2673 H2659 0.931 . S
C2673 C2672 1.385 . S
C2673 C2674 1.389 . S
C2674 C2673 1.389 . S
C2674 C2675 1.387 . S
C2675 H2660 0.930 . S
C2675 C2670 1.390 . S
C2675 C2674 1.387 . S
H2676 C2688 0.930 . S
H2677 C2690 0.930 . S
H2678 C2691 0.930 . S
H2679 C2695 0.959 . S
H2680 C2695 0.959 . S
H2681 C2695 0.961 . S
H2682 C2696 0.960 . S
H2683 C2696 0.961 . S
H2684 C2696 0.959 . S
H2685 C2699 0.929 . S
H2686 C2700 0.931 . S
H2687 C2702 0.930 . S
C2688 H2676 0.930 . S
C2688 C2689 1.399 . S
C2688 C2693 1.399 . S
C2689 C2688 1.399 . S
C2689 C2690 1.376 . S
C2690 H2677 0.930 . S
C2690 C2689 1.376 . S
C2690 C2691 1.388 . S
C2691 H2678 0.930 . S
C2691 C2690 1.388 . S
C2691 C2692 1.390 . S
C2692 C2691 1.390 . S
C2692 C2693 1.394 . S
C2692 C2698 1.465 . S
C2693 C2688 1.399 . S
C2693 C2692 1.394 . S
C2693 C2694 1.516 . S
C2694 C2693 1.516 . S
C2694 C2695 1.502 . S
C2694 C2696 1.561 . S
C2694 C2697 1.526 . S
C2695 H2679 0.959 . S
C2695 H2680 0.959 . S
C2695 H2681 0.961 . S
C2695 C2694 1.502 . S
C2696 H2682 0.960 . S
C2696 H2683 0.961 . S
C2696 H2684 0.959 . S
C2696 C2694 1.561 . S
C2697 C2694 1.526 . S
C2697 C2698 1.396 . S
C2697 C2702 1.390 . S
C2698 C2692 1.465 . S
C2698 C2697 1.396 . S
C2698 C2699 1.399 . S
C2699 H2685 0.929 . S
C2699 C2698 1.399 . S
C2699 C2700 1.385 . S
C2700 H2686 0.931 . S
C2700 C2699 1.385 . S
C2700 C2701 1.389 . S
C2701 C2700 1.389 . S
C2701 C2702 1.387 . S
C2702 H2687 0.930 . S
C2702 C2697 1.390 . S
C2702 C2701 1.387 . S
H2703 C2715 0.930 . S
H2704 C2717 0.930 . S
H2705 C2718 0.930 . S
H2706 C2722 0.959 . S
H2707 C2722 0.959 . S
H2708 C2722 0.961 . S
H2709 C2723 0.960 . S
H2710 C2723 0.961 . S
H2711 C2723 0.959 . S
H2712 C2726 0.929 . S
H2713 C2727 0.931 . S
H2714 C2729 0.930 . S
C2715 H2703 0.930 . S
C2715 C2716 1.399 . S
C2715 C2720 1.399 . S
C2716 C2715 1.399 . S
C2716 C2717 1.376 . S
C2717 H2704 0.930 . S
C2717 C2716 1.376 . S
C2717 C2718 1.388 . S
C2718 H2705 0.930 . S
C2718 C2717 1.388 . S
C2718 C2719 1.390 . S
C2719 C2718 1.390 . S
C2719 C2720 1.394 . S
C2719 C2725 1.465 . S
C2720 C2715 1.399 . S
C2720 C2719 1.394 . S
C2720 C2721 1.516 . S
C2721 C2720 1.516 . S
C2721 C2722 1.502 . S
C2721 C2723 1.561 . S
C2721 C2724 1.526 . S
C2722 H2706 0.959 . S
C2722 H2707 0.959 . S
C2722 H2708 0.961 . S
C2722 C2721 1.502 . S
C2723 H2709 0.960 . S
C2723 H2710 0.961 . S
C2723 H2711 0.959 . S
C2723 C2721 1.561 . S
C2724 C2721 1.526 . S
C2724 C2725 1.396 . S
C2724 C2729 1.390 . S
C2725 C2719 1.465 . S
C2725 C2724 1.396 . S
C2725 C2726 1.399 . S
C2726 H2712 0.929 . S
C2726 C2725 1.399 . S
C2726 C2727 1.385 . S
C2727 H2713 0.931 . S
C2727 C2726 1.385 . S
C2727 C2728 1.389 . S
C2728 C2727 1.389 . S
C2728 C2729 1.387 . S
C2729 H2714 0.930 . S
C2729 C2724 1.390 . S
C2729 C2728 1.387 . S
H2730 C2742 0.930 . S
H2731 C2744 0.930 . S
H2732 C2745 0.930 . S
H2733 C2749 0.959 . S
H2734 C2749 0.959 . S
H2735 C2749 0.961 . S
H2736 C2750 0.960 . S
H2737 C2750 0.961 . S
H2738 C2750 0.959 . S
H2739 C2753 0.929 . S
H2740 C2754 0.931 . S
H2741 C2756 0.930 . S
C2742 H2730 0.930 . S
C2742 C2743 1.399 . S
C2742 C2747 1.399 . S
C2743 C2742 1.399 . S
C2743 C2744 1.376 . S
C2744 H2731 0.930 . S
C2744 C2743 1.376 . S
C2744 C2745 1.388 . S
C2745 H2732 0.930 . S
C2745 C2744 1.388 . S
C2745 C2746 1.390 . S
C2746 C2745 1.390 . S
C2746 C2747 1.394 . S
C2746 C2752 1.465 . S
C2747 C2742 1.399 . S
C2747 C2746 1.394 . S
C2747 C2748 1.516 . S
C2748 C2747 1.516 . S
C2748 C2749 1.502 . S
C2748 C2750 1.561 . S
C2748 C2751 1.526 . S
C2749 H2733 0.959 . S
C2749 H2734 0.959 . S
C2749 H2735 0.961 . S
C2749 C2748 1.502 . S
C2750 H2736 0.960 . S
C2750 H2737 0.961 . S
C2750 H2738 0.959 . S
C2750 C2748 1.561 . S
C2751 C2748 1.526 . S
C2751 C2752 1.396 . S
C2751 C2756 1.390 . S
C2752 C2746 1.465 . S
C2752 C2751 1.396 . S
C2752 C2753 1.399 . S
C2753 H2739 0.929 . S
C2753 C2752 1.399 . S
C2753 C2754 1.385 . S
C2754 H2740 0.931 . S
C2754 C2753 1.385 . S
C2754 C2755 1.389 . S
C2755 C2754 1.389 . S
C2755 C2756 1.387 . S
C2756 H2741 0.930 . S
C2756 C2751 1.390 . S
C2756 C2755 1.387 . S
H2757 C2769 0.930 . S
H2758 C2771 0.930 . S
H2759 C2772 0.930 . S
H2760 C2776 0.959 . S
H2761 C2776 0.959 . S
H2762 C2776 0.961 . S
H2763 C2777 0.960 . S
H2764 C2777 0.961 . S
H2765 C2777 0.959 . S
H2766 C2780 0.929 . S
H2767 C2781 0.931 . S
H2768 C2783 0.930 . S
C2769 H2757 0.930 . S
C2769 C2770 1.399 . S
C2769 C2774 1.399 . S
C2770 C2769 1.399 . S
C2770 C2771 1.376 . S
C2771 H2758 0.930 . S
C2771 C2770 1.376 . S
C2771 C2772 1.388 . S
C2772 H2759 0.930 . S
C2772 C2771 1.388 . S
C2772 C2773 1.390 . S
C2773 C2772 1.390 . S
C2773 C2774 1.394 . S
C2773 C2779 1.465 . S
C2774 C2769 1.399 . S
C2774 C2773 1.394 . S
C2774 C2775 1.516 . S
C2775 C2774 1.516 . S
C2775 C2776 1.502 . S
C2775 C2777 1.561 . S
C2775 C2778 1.526 . S
C2776 H2760 0.959 . S
C2776 H2761 0.959 . S
C2776 H2762 0.961 . S
C2776 C2775 1.502 . S
C2777 H2763 0.960 . S
C2777 H2764 0.961 . S
C2777 H2765 0.959 . S
C2777 C2775 1.561 . S
C2778 C2775 1.526 . S
C2778 C2779 1.396 . S
C2778 C2783 1.390 . S
C2779 C2773 1.465 . S
C2779 C2778 1.396 . S
C2779 C2780 1.399 . S
C2780 H2766 0.929 . S
C2780 C2779 1.399 . S
C2780 C2781 1.385 . S
C2781 H2767 0.931 . S
C2781 C2780 1.385 . S
C2781 C2782 1.389 . S
C2782 C2781 1.389 . S
C2782 C2783 1.387 . S
C2783 H2768 0.930 . S
C2783 C2778 1.390 . S
C2783 C2782 1.387 . S
H2784 C2796 0.930 . S
H2785 C2798 0.930 . S
H2786 C2799 0.930 . S
H2787 C2803 0.959 . S
H2788 C2803 0.959 . S
H2789 C2803 0.961 . S
H2790 C2804 0.960 . S
H2791 C2804 0.961 . S
H2792 C2804 0.959 . S
H2793 C2807 0.929 . S
H2794 C2808 0.931 . S
H2795 C2810 0.930 . S
C2796 H2784 0.930 . S
C2796 C2797 1.399 . S
C2796 C2801 1.399 . S
C2797 C2796 1.399 . S
C2797 C2798 1.376 . S
C2798 H2785 0.930 . S
C2798 C2797 1.376 . S
C2798 C2799 1.388 . S
C2799 H2786 0.930 . S
C2799 C2798 1.388 . S
C2799 C2800 1.390 . S
C2800 C2799 1.390 . S
C2800 C2801 1.394 . S
C2800 C2806 1.465 . S
C2801 C2796 1.399 . S
C2801 C2800 1.394 . S
C2801 C2802 1.516 . S
C2802 C2801 1.516 . S
C2802 C2803 1.502 . S
C2802 C2804 1.561 . S
C2802 C2805 1.526 . S
C2803 H2787 0.959 . S
C2803 H2788 0.959 . S
C2803 H2789 0.961 . S
C2803 C2802 1.502 . S
C2804 H2790 0.960 . S
C2804 H2791 0.961 . S
C2804 H2792 0.959 . S
C2804 C2802 1.561 . S
C2805 C2802 1.526 . S
C2805 C2806 1.396 . S
C2805 C2810 1.390 . S
C2806 C2800 1.465 . S
C2806 C2805 1.396 . S
C2806 C2807 1.399 . S
C2807 H2793 0.929 . S
C2807 C2806 1.399 . S
C2807 C2808 1.385 . S
C2808 H2794 0.931 . S
C2808 C2807 1.385 . S
C2808 C2809 1.389 . S
C2809 C2808 1.389 . S
C2809 C2810 1.387 . S
C2810 H2795 0.930 . S
C2810 C2805 1.390 . S
C2810 C2809 1.387 . S
H2811 C2823 0.930 . S
H2812 C2825 0.930 . S
H2813 C2826 0.930 . S
H2814 C2830 0.959 . S
H2815 C2830 0.959 . S
H2816 C2830 0.961 . S
H2817 C2831 0.960 . S
H2818 C2831 0.961 . S
H2819 C2831 0.959 . S
H2820 C2834 0.929 . S
H2821 C2835 0.931 . S
H2822 C2837 0.930 . S
C2823 H2811 0.930 . S
C2823 C2824 1.399 . S
C2823 C2828 1.399 . S
C2824 C2823 1.399 . S
C2824 C2825 1.376 . S
C2825 H2812 0.930 . S
C2825 C2824 1.376 . S
C2825 C2826 1.388 1_655 S
C2826 H2813 0.930 . S
C2826 C2825 1.388 1_455 S
C2826 C2827 1.390 . S
C2827 C2826 1.390 . S
C2827 C2828 1.394 1_455 S
C2827 C2833 1.465 . S
C2828 C2823 1.399 . S
C2828 C2827 1.394 1_655 S
C2828 C2829 1.516 . S
C2829 C2828 1.516 . S
C2829 C2830 1.502 . S
C2829 C2831 1.561 1_655 S
C2829 C2832 1.526 1_655 S
C2830 H2814 0.959 . S
C2830 H2815 0.959 . S
C2830 H2816 0.961 . S
C2830 C2829 1.502 . S
C2831 H2817 0.960 . S
C2831 H2818 0.961 . S
C2831 H2819 0.959 . S
C2831 C2829 1.561 1_455 S
C2832 C2829 1.526 1_455 S
C2832 C2833 1.396 . S
C2832 C2837 1.390 . S
C2833 C2827 1.465 . S
C2833 C2832 1.396 . S
C2833 C2834 1.399 . S
C2834 H2820 0.929 . S
C2834 C2833 1.399 . S
C2834 C2835 1.385 . S
C2835 H2821 0.931 . S
C2835 C2834 1.385 . S
C2835 C2836 1.389 . S
C2836 C2835 1.389 . S
C2836 C2837 1.387 . S
C2837 H2822 0.930 . S
C2837 C2832 1.390 . S
C2837 C2836 1.387 . S
H2838 C2850 0.930 . S
H2839 C2852 0.930 . S
H2840 C2853 0.930 . S
H2841 C2857 0.959 . S
H2842 C2857 0.959 . S
H2843 C2857 0.961 1_455 S
H2844 C2858 0.960 . S
H2845 C2858 0.961 1_655 S
H2846 C2858 0.959 . S
H2847 C2861 0.929 . S
H2848 C2862 0.931 . S
H2849 C2864 0.930 . S
C2850 H2838 0.930 . S
C2850 C2851 1.399 . S
C2850 C2855 1.399 . S
C2851 C2850 1.399 . S
C2851 C2852 1.376 . S
C2852 H2839 0.930 . S
C2852 C2851 1.376 . S
C2852 C2853 1.388 . S
C2853 H2840 0.930 . S
C2853 C2852 1.388 . S
C2853 C2854 1.390 . S
C2854 C2853 1.390 . S
C2854 C2855 1.394 . S
C2854 C2860 1.465 1_455 S
C2855 C2850 1.399 . S
C2855 C2854 1.394 . S
C2855 C2856 1.516 1_455 S
C2856 C2855 1.516 1_655 S
C2856 C2857 1.502 . S
C2856 C2858 1.561 1_655 S
C2856 C2859 1.526 . S
C2857 H2841 0.959 . S
C2857 H2842 0.959 . S
C2857 H2843 0.961 1_655 S
C2857 C2856 1.502 . S
C2858 H2844 0.960 . S
C2858 H2845 0.961 1_455 S
C2858 H2846 0.959 . S
C2858 C2856 1.561 1_455 S
C2859 C2856 1.526 . S
C2859 C2860 1.396 . S
C2859 C2864 1.390 . S
C2860 C2854 1.465 1_655 S
C2860 C2859 1.396 . S
C2860 C2861 1.399 . S
C2861 H2847 0.929 . S
C2861 C2860 1.399 . S
C2861 C2862 1.385 . S
C2862 H2848 0.931 . S
C2862 C2861 1.385 . S
C2862 C2863 1.389 . S
C2863 C2862 1.389 . S
C2863 C2864 1.387 . S
C2864 H2849 0.930 . S
C2864 C2859 1.390 . S
C2864 C2863 1.387 . S
H2865 C2877 0.930 . S
H2866 C2879 0.930 . S
H2867 C2880 0.930 . S
H2868 C2884 0.959 . S
H2869 C2884 0.959 . S
H2870 C2884 0.961 . S
H2871 C2885 0.960 . S
H2872 C2885 0.961 . S
H2873 C2885 0.959 . S
H2874 C2888 0.929 . S
H2875 C2889 0.931 . S
H2876 C2891 0.930 . S
C2877 H2865 0.930 . S
C2877 C2878 1.399 . S
C2877 C2882 1.399 . S
C2878 C2877 1.399 . S
C2878 C2879 1.376 . S
C2879 H2866 0.930 . S
C2879 C2878 1.376 . S
C2879 C2880 1.388 . S
C2880 H2867 0.930 . S
C2880 C2879 1.388 . S
C2880 C2881 1.390 . S
C2881 C2880 1.390 . S
C2881 C2882 1.394 . S
C2881 C2887 1.465 . S
C2882 C2877 1.399 . S
C2882 C2881 1.394 . S
C2882 C2883 1.516 . S
C2883 C2882 1.516 . S
C2883 C2884 1.502 . S
C2883 C2885 1.561 . S
C2883 C2886 1.526 . S
C2884 H2868 0.959 . S
C2884 H2869 0.959 . S
C2884 H2870 0.961 . S
C2884 C2883 1.502 . S
C2885 H2871 0.960 . S
C2885 H2872 0.961 . S
C2885 H2873 0.959 . S
C2885 C2883 1.561 . S
C2886 C2883 1.526 . S
C2886 C2887 1.396 . S
C2886 C2891 1.390 . S
C2887 C2881 1.465 . S
C2887 C2886 1.396 . S
C2887 C2888 1.399 . S
C2888 H2874 0.929 . S
C2888 C2887 1.399 . S
C2888 C2889 1.385 . S
C2889 H2875 0.931 . S
C2889 C2888 1.385 . S
C2889 C2890 1.389 . S
C2890 C2889 1.389 . S
C2890 C2891 1.387 . S
C2891 H2876 0.930 . S
C2891 C2886 1.390 . S
C2891 C2890 1.387 . S
H2892 C2904 0.930 . S
H2893 C2906 0.930 . S
H2894 C2907 0.930 . S
H2895 C2911 0.959 . S
H2896 C2911 0.959 . S
H2897 C2911 0.961 . S
H2898 C2912 0.960 . S
H2899 C2912 0.961 . S
H2900 C2912 0.959 . S
H2901 C2915 0.929 . S
H2902 C2916 0.931 . S
H2903 C2918 0.930 . S
C2904 H2892 0.930 . S
C2904 C2905 1.399 . S
C2904 C2909 1.399 . S
C2905 C2904 1.399 . S
C2905 C2906 1.376 . S
C2906 H2893 0.930 . S
C2906 C2905 1.376 . S
C2906 C2907 1.388 . S
C2907 H2894 0.930 . S
C2907 C2906 1.388 . S
C2907 C2908 1.390 . S
C2908 C2907 1.390 . S
C2908 C2909 1.394 . S
C2908 C2914 1.465 . S
C2909 C2904 1.399 . S
C2909 C2908 1.394 . S
C2909 C2910 1.516 . S
C2910 C2909 1.516 . S
C2910 C2911 1.502 . S
C2910 C2912 1.561 . S
C2910 C2913 1.526 . S
C2911 H2895 0.959 . S
C2911 H2896 0.959 . S
C2911 H2897 0.961 . S
C2911 C2910 1.502 . S
C2912 H2898 0.960 . S
C2912 H2899 0.961 . S
C2912 H2900 0.959 . S
C2912 C2910 1.561 . S
C2913 C2910 1.526 . S
C2913 C2914 1.396 . S
C2913 C2918 1.390 . S
C2914 C2908 1.465 . S
C2914 C2913 1.396 . S
C2914 C2915 1.399 . S
C2915 H2901 0.929 . S
C2915 C2914 1.399 . S
C2915 C2916 1.385 . S
C2916 H2902 0.931 . S
C2916 C2915 1.385 . S
C2916 C2917 1.389 . S
C2917 C2916 1.389 . S
C2917 C2918 1.387 . S
C2918 H2903 0.930 . S
C2918 C2913 1.390 . S
C2918 C2917 1.387 . S
H2919 C2931 0.930 . S
H2920 C2933 0.930 . S
H2921 C2934 0.930 . S
H2922 C2938 0.959 . S
H2923 C2938 0.959 . S
H2924 C2938 0.961 . S
H2925 C2939 0.960 . S
H2926 C2939 0.961 . S
H2927 C2939 0.959 . S
H2928 C2942 0.929 . S
H2929 C2943 0.931 . S
H2930 C2945 0.930 . S
C2931 H2919 0.930 . S
C2931 C2932 1.399 . S
C2931 C2936 1.399 . S
C2932 C2931 1.399 . S
C2932 C2933 1.376 . S
C2933 H2920 0.930 . S
C2933 C2932 1.376 . S
C2933 C2934 1.388 . S
C2934 H2921 0.930 . S
C2934 C2933 1.388 . S
C2934 C2935 1.390 . S
C2935 C2934 1.390 . S
C2935 C2936 1.394 . S
C2935 C2941 1.465 . S
C2936 C2931 1.399 . S
C2936 C2935 1.394 . S
C2936 C2937 1.516 . S
C2937 C2936 1.516 . S
C2937 C2938 1.502 . S
C2937 C2939 1.561 . S
C2937 C2940 1.526 . S
C2938 H2922 0.959 . S
C2938 H2923 0.959 . S
C2938 H2924 0.961 . S
C2938 C2937 1.502 . S
C2939 H2925 0.960 . S
C2939 H2926 0.961 . S
C2939 H2927 0.959 . S
C2939 C2937 1.561 . S
C2940 C2937 1.526 . S
C2940 C2941 1.396 . S
C2940 C2945 1.390 . S
C2941 C2935 1.465 . S
C2941 C2940 1.396 . S
C2941 C2942 1.399 . S
C2942 H2928 0.929 . S
C2942 C2941 1.399 . S
C2942 C2943 1.385 . S
C2943 H2929 0.931 . S
C2943 C2942 1.385 . S
C2943 C2944 1.389 . S
C2944 C2943 1.389 . S
C2944 C2945 1.387 . S
C2945 H2930 0.930 . S
C2945 C2940 1.390 . S
C2945 C2944 1.387 . S
H2946 C2958 0.930 . S
H2947 C2960 0.930 . S
H2948 C2961 0.930 . S
H2949 C2965 0.959 . S
H2950 C2965 0.959 1_455 S
H2951 C2965 0.961 . S
H2952 C2966 0.954 1_655 S
H2953 C2966 0.965 . S
H2954 C2966 0.961 . S
H2955 C2969 0.929 . S
H2956 C2970 0.931 . S
H2957 C2972 0.930 . S
C2958 H2946 0.930 . S
C2958 C2959 1.399 . S
C2958 C2963 1.399 . S
C2959 C2958 1.399 . S
C2959 C2960 1.376 . S
C2960 H2947 0.930 . S
C2960 C2959 1.376 . S
C2960 C2961 1.388 . S
C2961 H2948 0.930 . S
C2961 C2960 1.388 . S
C2961 C2962 1.390 . S
C2962 C2961 1.390 . S
C2962 C2963 1.394 . S
C2962 C2968 1.465 1_655 S
C2963 C2958 1.399 . S
C2963 C2962 1.394 . S
C2963 C2964 1.516 . S
C2964 C2963 1.516 . S
C2964 C2965 1.502 . S
C2964 C2966 1.560 1_655 S
C2964 C2967 1.526 1_655 S
C2965 H2949 0.959 . S
C2965 H2950 0.959 1_655 S
C2965 H2951 0.961 . S
C2965 C2964 1.502 . S
C2966 H2952 0.954 1_455 S
C2966 H2953 0.965 . S
C2966 H2954 0.961 . S
C2966 C2964 1.560 1_455 S
C2967 C2964 1.526 1_455 S
C2967 C2968 1.396 . S
C2967 C2972 1.390 . S
C2968 C2962 1.465 1_455 S
C2968 C2967 1.396 . S
C2968 C2969 1.399 . S
C2969 H2955 0.929 . S
C2969 C2968 1.399 . S
C2969 C2970 1.385 . S
C2970 H2956 0.931 . S
C2970 C2969 1.385 . S
C2970 C2971 1.389 . S
C2971 C2970 1.389 . S
C2971 C2972 1.387 . S
C2972 H2957 0.930 . S
C2972 C2967 1.390 . S
C2972 C2971 1.387 . S
H2973 C2985 0.930 1_455 S
H2974 C2987 0.930 . S
H2975 C2988 0.930 . S
H2976 C2992 0.959 . S
H2977 C2992 0.959 . S
H2978 C2992 0.961 . S
H2979 C2993 0.961 . S
H2980 C2993 0.961 . S
H2981 C2993 0.959 1_655 S
H2982 C2996 0.929 . S
H2983 C2997 0.931 . S
H2984 C2999 0.930 . S
C2985 H2973 0.930 1_655 S
C2985 C2986 1.399 . S
C2985 C2990 1.402 . S
C2986 C2985 1.399 . S
C2986 C2987 1.376 . S
C2987 H2974 0.930 . S
C2987 C2986 1.376 . S
C2987 C2988 1.388 . S
C2988 H2975 0.930 . S
C2988 C2987 1.388 . S
C2988 C2989 1.390 . S
C2989 C2988 1.390 . S
C2989 C2990 1.407 . S
C2989 C2995 1.465 . S
C2990 C2985 1.402 . S
C2990 C2989 1.407 . S
C2990 C2991 1.503 1_655 S
C2991 C2990 1.503 1_455 S
C2991 C2992 1.502 . S
C2991 C2993 1.561 . S
C2991 C2994 1.526 . S
C2992 H2976 0.959 . S
C2992 H2977 0.959 . S
C2992 H2978 0.961 . S
C2992 C2991 1.502 . S
C2993 H2979 0.961 . S
C2993 H2980 0.961 . S
C2993 H2981 0.959 1_455 S
C2993 C2991 1.561 . S
C2994 C2991 1.526 . S
C2994 C2995 1.396 1_455 S
C2994 C2999 1.390 . S
C2995 C2989 1.465 . S
C2995 C2994 1.396 1_655 S
C2995 C2996 1.399 . S
C2996 H2982 0.929 . S
C2996 C2995 1.399 . S
C2996 C2997 1.385 . S
C2997 H2983 0.931 . S
C2997 C2996 1.385 . S
C2997 C2998 1.389 1_655 S
C2998 C2997 1.389 1_455 S
C2998 C2999 1.387 . S
C2999 H2984 0.930 . S
C2999 C2994 1.390 . S
C2999 C2998 1.387 . S
H3000 C3012 0.930 . S
H3001 C3014 0.930 . S
H3002 C3015 0.930 . S
H3003 C3019 0.959 . S
H3004 C3019 0.959 . S
H3005 C3019 0.961 . S
H3006 C3020 0.960 . S
H3007 C3020 0.961 . S
H3008 C3020 0.959 . S
H3009 C3023 0.929 . S
H3010 C3024 0.931 . S
H3011 C3026 0.930 . S
C3012 H3000 0.930 . S
C3012 C3013 1.399 . S
C3012 C3017 1.399 . S
C3013 C3012 1.399 . S
C3013 C3014 1.376 . S
C3014 H3001 0.930 . S
C3014 C3013 1.376 . S
C3014 C3015 1.388 . S
C3015 H3002 0.930 . S
C3015 C3014 1.388 . S
C3015 C3016 1.390 . S
C3016 C3015 1.390 . S
C3016 C3017 1.394 . S
C3016 C3022 1.465 . S
C3017 C3012 1.399 . S
C3017 C3016 1.394 . S
C3017 C3018 1.516 . S
C3018 C3017 1.516 . S
C3018 C3019 1.502 . S
C3018 C3020 1.561 . S
C3018 C3021 1.526 . S
C3019 H3003 0.959 . S
C3019 H3004 0.959 . S
C3019 H3005 0.961 . S
C3019 C3018 1.502 . S
C3020 H3006 0.960 . S
C3020 H3007 0.961 . S
C3020 H3008 0.959 . S
C3020 C3018 1.561 . S
C3021 C3018 1.526 . S
C3021 C3022 1.396 . S
C3021 C3026 1.390 . S
C3022 C3016 1.465 . S
C3022 C3021 1.396 . S
C3022 C3023 1.399 . S
C3023 H3009 0.929 . S
C3023 C3022 1.399 . S
C3023 C3024 1.385 . S
C3024 H3010 0.931 . S
C3024 C3023 1.385 . S
C3024 C3025 1.389 . S
C3025 C3024 1.389 . S
C3025 C3026 1.387 . S
C3026 H3011 0.930 . S
C3026 C3021 1.390 . S
C3026 C3025 1.387 . S
H3027 C3039 0.930 . S
H3028 C3041 0.930 . S
H3029 C3042 0.930 . S
H3030 C3046 0.959 . S
H3031 C3046 0.959 . S
H3032 C3046 0.961 . S
H3033 C3047 0.960 . S
H3034 C3047 0.961 . S
H3035 C3047 0.959 1_655 S
H3036 C3050 0.929 . S
H3037 C3051 0.931 . S
H3038 C3053 0.930 1_455 S
C3039 H3027 0.930 . S
C3039 C3040 1.399 . S
C3039 C3044 1.399 . S
C3040 C3039 1.399 . S
C3040 C3041 1.376 1_455 S
C3041 H3028 0.930 . S
C3041 C3040 1.376 1_655 S
C3041 C3042 1.388 . S
C3042 H3029 0.930 . S
C3042 C3041 1.388 . S
C3042 C3043 1.390 . S
C3043 C3042 1.390 . S
C3043 C3044 1.394 1_655 S
C3043 C3049 1.465 . S
C3044 C3039 1.399 . S
C3044 C3043 1.394 1_455 S
C3044 C3045 1.516 . S
C3045 C3044 1.516 . S
C3045 C3046 1.502 . S
C3045 C3047 1.561 . S
C3045 C3048 1.515 1_455 S
C3046 H3030 0.959 . S
C3046 H3031 0.959 . S
C3046 H3032 0.961 . S
C3046 C3045 1.502 . S
C3047 H3033 0.960 . S
C3047 H3034 0.961 . S
C3047 H3035 0.959 1_455 S
C3047 C3045 1.561 . S
C3048 C3045 1.515 1_655 S
C3048 C3049 1.406 . S
C3048 C3053 1.392 . S
C3049 C3043 1.465 . S
C3049 C3048 1.406 . S
C3049 C3050 1.399 . S
C3050 H3036 0.929 . S
C3050 C3049 1.399 . S
C3050 C3051 1.385 . S
C3051 H3037 0.931 . S
C3051 C3050 1.385 . S
C3051 C3052 1.389 . S
C3052 C3051 1.389 . S
C3052 C3053 1.387 . S
C3053 H3038 0.930 1_655 S
C3053 C3048 1.392 . S
C3053 C3052 1.387 . S
H3054 C3066 0.930 . S
H3055 C3068 0.930 . S
H3056 C3069 0.930 . S
H3057 C3073 0.959 . S
H3058 C3073 0.959 . S
H3059 C3073 0.961 1_655 S
H3060 C3074 0.960 1_655 S
H3061 C3074 0.961 . S
H3062 C3074 0.959 1_655 S
H3063 C3077 0.929 . S
H3064 C3078 0.931 . S
H3065 C3080 0.930 . S
C3066 H3054 0.930 . S
C3066 C3067 1.399 . S
C3066 C3071 1.399 . S
C3067 C3066 1.399 . S
C3067 C3068 1.376 . S
C3068 H3055 0.930 . S
C3068 C3067 1.376 . S
C3068 C3069 1.388 . S
C3069 H3056 0.930 . S
C3069 C3068 1.388 . S
C3069 C3070 1.390 . S
C3070 C3069 1.390 . S
C3070 C3071 1.394 . S
C3070 C3076 1.465 1_655 S
C3071 C3066 1.399 . S
C3071 C3070 1.394 . S
C3071 C3072 1.516 1_655 S
C3072 C3071 1.516 1_455 S
C3072 C3073 1.502 . S
C3072 C3074 1.561 . S
C3072 C3075 1.526 . S
C3073 H3057 0.959 . S
C3073 H3058 0.959 . S
C3073 H3059 0.961 1_455 S
C3073 C3072 1.502 . S
C3074 H3060 0.960 1_455 S
C3074 H3061 0.961 . S
C3074 H3062 0.959 1_455 S
C3074 C3072 1.561 . S
C3075 C3072 1.526 . S
C3075 C3076 1.396 . S
C3075 C3080 1.390 . S
C3076 C3070 1.465 1_455 S
C3076 C3075 1.396 . S
C3076 C3077 1.399 . S
C3077 H3063 0.929 . S
C3077 C3076 1.399 . S
C3077 C3078 1.385 . S
C3078 H3064 0.931 . S
C3078 C3077 1.385 . S
C3078 C3079 1.389 . S
C3079 C3078 1.389 . S
C3079 C3080 1.387 . S
C3080 H3065 0.930 . S
C3080 C3075 1.390 . S
C3080 C3079 1.387 . S
H3081 C3093 0.930 . S
H3082 C3095 0.930 . S
H3083 C3096 0.930 . S
H3084 C3100 0.959 . S
H3085 C3100 0.959 . S
H3086 C3100 0.961 . S
H3087 C3101 0.960 . S
H3088 C3101 0.961 . S
H3089 C3101 0.959 . S
H3090 C3104 0.929 . S
H3091 C3105 0.931 . S
H3092 C3107 0.930 . S
C3093 H3081 0.930 . S
C3093 C3094 1.399 . S
C3093 C3098 1.399 . S
C3094 C3093 1.399 . S
C3094 C3095 1.376 . S
C3095 H3082 0.930 . S
C3095 C3094 1.376 . S
C3095 C3096 1.388 . S
C3096 H3083 0.930 . S
C3096 C3095 1.388 . S
C3096 C3097 1.390 . S
C3097 C3096 1.390 . S
C3097 C3098 1.394 . S
C3097 C3103 1.465 . S
C3098 C3093 1.399 . S
C3098 C3097 1.394 . S
C3098 C3099 1.516 . S
C3099 C3098 1.516 . S
C3099 C3100 1.502 . S
C3099 C3101 1.561 . S
C3099 C3102 1.526 . S
C3100 H3084 0.959 . S
C3100 H3085 0.959 . S
C3100 H3086 0.961 . S
C3100 C3099 1.502 . S
C3101 H3087 0.960 . S
C3101 H3088 0.961 . S
C3101 H3089 0.959 . S
C3101 C3099 1.561 . S
C3102 C3099 1.526 . S
C3102 C3103 1.396 . S
C3102 C3107 1.390 . S
C3103 C3097 1.465 . S
C3103 C3102 1.396 . S
C3103 C3104 1.399 . S
C3104 H3090 0.929 . S
C3104 C3103 1.399 . S
C3104 C3105 1.385 . S
C3105 H3091 0.931 . S
C3105 C3104 1.385 . S
C3105 C3106 1.389 . S
C3106 C3105 1.389 . S
C3106 C3107 1.387 . S
C3107 H3092 0.930 . S
C3107 C3102 1.390 . S
C3107 C3106 1.387 . S
H3108 C3120 0.930 . S
H3109 C3122 0.930 . S
H3110 C3123 0.930 . S
H3111 C3127 0.959 . S
H3112 C3127 0.959 . S
H3113 C3127 0.961 . S
H3114 C3128 0.960 . S
H3115 C3128 0.961 . S
H3116 C3128 0.959 . S
H3117 C3131 0.929 . S
H3118 C3132 0.931 . S
H3119 C3134 0.930 . S
C3120 H3108 0.930 . S
C3120 C3121 1.399 . S
C3120 C3125 1.399 . S
C3121 C3120 1.399 . S
C3121 C3122 1.376 . S
C3122 H3109 0.930 . S
C3122 C3121 1.376 . S
C3122 C3123 1.388 . S
C3123 H3110 0.930 . S
C3123 C3122 1.388 . S
C3123 C3124 1.390 . S
C3124 C3123 1.390 . S
C3124 C3125 1.394 . S
C3124 C3130 1.465 . S
C3125 C3120 1.399 . S
C3125 C3124 1.394 . S
C3125 C3126 1.516 . S
C3126 C3125 1.516 . S
C3126 C3127 1.502 . S
C3126 C3128 1.561 . S
C3126 C3129 1.526 . S
C3127 H3111 0.959 . S
C3127 H3112 0.959 . S
C3127 H3113 0.961 . S
C3127 C3126 1.502 . S
C3128 H3114 0.960 . S
C3128 H3115 0.961 . S
C3128 H3116 0.959 . S
C3128 C3126 1.561 . S
C3129 C3126 1.526 . S
C3129 C3130 1.396 . S
C3129 C3134 1.390 . S
C3130 C3124 1.465 . S
C3130 C3129 1.396 . S
C3130 C3131 1.399 . S
C3131 H3117 0.929 . S
C3131 C3130 1.399 . S
C3131 C3132 1.385 . S
C3132 H3118 0.931 . S
C3132 C3131 1.385 . S
C3132 C3133 1.389 . S
C3133 C3132 1.389 . S
C3133 C3134 1.387 . S
C3134 H3119 0.930 . S
C3134 C3129 1.390 . S
C3134 C3133 1.387 . S
H3135 C3147 0.930 . S
H3136 C3149 0.930 . S
H3137 C3150 0.930 . S
H3138 C3154 0.959 . S
H3139 C3154 0.959 . S
H3140 C3154 0.961 . S
H3141 C3155 0.960 . S
H3142 C3155 0.961 . S
H3143 C3155 0.959 . S
H3144 C3158 0.929 . S
H3145 C3159 0.931 . S
H3146 C3161 0.930 . S
C3147 H3135 0.930 . S
C3147 C3148 1.399 . S
C3147 C3152 1.399 . S
C3148 C3147 1.399 . S
C3148 C3149 1.376 . S
C3149 H3136 0.930 . S
C3149 C3148 1.376 . S
C3149 C3150 1.388 . S
C3150 H3137 0.930 . S
C3150 C3149 1.388 . S
C3150 C3151 1.390 . S
C3151 C3150 1.390 . S
C3151 C3152 1.394 . S
C3151 C3157 1.465 . S
C3152 C3147 1.399 . S
C3152 C3151 1.394 . S
C3152 C3153 1.516 . S
C3153 C3152 1.516 . S
C3153 C3154 1.502 . S
C3153 C3155 1.561 . S
C3153 C3156 1.526 . S
C3154 H3138 0.959 . S
C3154 H3139 0.959 . S
C3154 H3140 0.961 . S
C3154 C3153 1.502 . S
C3155 H3141 0.960 . S
C3155 H3142 0.961 . S
C3155 H3143 0.959 . S
C3155 C3153 1.561 . S
C3156 C3153 1.526 . S
C3156 C3157 1.396 . S
C3156 C3161 1.390 . S
C3157 C3151 1.465 . S
C3157 C3156 1.396 . S
C3157 C3158 1.399 . S
C3158 H3144 0.929 . S
C3158 C3157 1.399 . S
C3158 C3159 1.385 . S
C3159 H3145 0.931 . S
C3159 C3158 1.385 . S
C3159 C3160 1.389 . S
C3160 C3159 1.389 . S
C3160 C3161 1.387 . S
C3161 H3146 0.930 . S
C3161 C3156 1.390 . S
C3161 C3160 1.387 . S
H3162 C3174 0.930 . S
H3163 C3176 0.930 . S
H3164 C3177 0.930 . S
H3165 C3181 0.959 . S
H3166 C3181 0.959 . S
H3167 C3181 0.963 1_455 S
H3168 C3182 0.960 1_455 S
H3169 C3182 0.961 . S
H3170 C3182 0.959 . S
H3171 C3185 0.929 . S
H3172 C3186 0.931 . S
H3173 C3188 0.930 . S
C3174 H3162 0.930 . S
C3174 C3175 1.399 . S
C3174 C3179 1.399 . S
C3175 C3174 1.399 . S
C3175 C3176 1.376 . S
C3176 H3163 0.930 . S
C3176 C3175 1.376 . S
C3176 C3177 1.388 . S
C3177 H3164 0.930 . S
C3177 C3176 1.388 . S
C3177 C3178 1.390 . S
C3178 C3177 1.390 . S
C3178 C3179 1.394 . S
C3178 C3184 1.465 1_455 S
C3179 C3174 1.399 . S
C3179 C3178 1.394 . S
C3179 C3180 1.516 1_455 S
C3180 C3179 1.516 1_655 S
C3180 C3181 1.502 . S
C3180 C3182 1.561 . S
C3180 C3183 1.526 . S
C3181 H3165 0.959 . S
C3181 H3166 0.959 . S
C3181 H3167 0.963 1_655 S
C3181 C3180 1.502 . S
C3182 H3168 0.960 1_655 S
C3182 H3169 0.961 . S
C3182 H3170 0.959 . S
C3182 C3180 1.561 . S
C3183 C3180 1.526 . S
C3183 C3184 1.396 . S
C3183 C3188 1.390 . S
C3184 C3178 1.465 1_655 S
C3184 C3183 1.396 . S
C3184 C3185 1.399 . S
C3185 H3171 0.929 . S
C3185 C3184 1.399 . S
C3185 C3186 1.385 . S
C3186 H3172 0.931 . S
C3186 C3185 1.385 . S
C3186 C3187 1.389 . S
C3187 C3186 1.389 . S
C3187 C3188 1.387 . S
C3188 H3173 0.930 . S
C3188 C3183 1.390 . S
C3188 C3187 1.387 . S
H3189 C3201 0.930 . S
H3190 C3203 0.930 . S
H3191 C3204 0.930 . S
H3192 C3208 0.959 . S
H3193 C3208 0.959 . S
H3194 C3208 0.961 . S
H3195 C3209 0.960 . S
H3196 C3209 0.961 . S
H3197 C3209 0.959 . S
H3198 C3212 0.929 . S
H3199 C3213 0.931 . S
H3200 C3215 0.930 . S
C3201 H3189 0.930 . S
C3201 C3202 1.399 . S
C3201 C3206 1.399 . S
C3202 C3201 1.399 . S
C3202 C3203 1.376 1_455 S
C3203 H3190 0.930 . S
C3203 C3202 1.376 1_655 S
C3203 C3204 1.388 . S
C3204 H3191 0.930 . S
C3204 C3203 1.388 . S
C3204 C3205 1.390 . S
C3205 C3204 1.390 . S
C3205 C3206 1.394 1_655 S
C3205 C3211 1.465 . S
C3206 C3201 1.399 . S
C3206 C3205 1.394 1_455 S
C3206 C3207 1.516 . S
C3207 C3206 1.516 . S
C3207 C3208 1.502 . S
C3207 C3209 1.561 . S
C3207 C3210 1.526 . S
C3208 H3192 0.959 . S
C3208 H3193 0.959 . S
C3208 H3194 0.961 . S
C3208 C3207 1.502 . S
C3209 H3195 0.960 . S
C3209 H3196 0.961 . S
C3209 H3197 0.959 . S
C3209 C3207 1.561 . S
C3210 C3207 1.526 . S
C3210 C3211 1.396 1_455 S
C3210 C3215 1.390 . S
C3211 C3205 1.465 . S
C3211 C3210 1.396 1_655 S
C3211 C3212 1.399 . S
C3212 H3198 0.929 . S
C3212 C3211 1.399 . S
C3212 C3213 1.385 . S
C3213 H3199 0.931 . S
C3213 C3212 1.385 . S
C3213 C3214 1.389 . S
C3214 C3213 1.389 . S
C3214 C3215 1.387 1_655 S
C3215 H3200 0.930 . S
C3215 C3210 1.390 . S
C3215 C3214 1.387 1_455 S
C1069 C18 1.405 . S
C1081 C249 1.423 . S
C1096 C51 1.412 . S
C1108 C150 1.425 . S
C1123 C84 1.369 . S
C1135 C183 1.386 . S
C1150 C117 1.415 . S
C1162 C216 1.426 . S
C1177 C513 1.400 . S
C1189 C282 1.369 . S
C1204 C315 1.424 . S
C1216 C414 1.389 . S
C1231 C447 1.372 . S
C1243 C348 1.382 . S
C1258 C381 1.390 . S
C1270 C480 1.370 . S
C1285 C546 1.425 . S
C1297 C777 1.409 . S
C1312 C678 1.422 . S
C1324 C579 1.400 . S
C1339 C612 1.395 . S
C1351 C711 1.418 . S
C1366 C645 1.415 . S
C1378 C744 1.426 . S
C1393 C810 1.424 . S
C1405 C1041 1.408 . S
C1420 C843 1.385 . S
C1432 C942 1.372 . S
C1447 C975 1.416 . S
C1459 C876 1.377 . S
C1474 C1008 1.374 . S
C1486 C909 1.414 . S
C1501 C205 1.566 . S
C1513 C7 1.521 . S
C1528 C40 1.569 . S
C1540 C238 1.514 . S
C1555 C73 1.549 . S
C1567 C139 1.539 . S
C1582 C106 1.519 . S
C1594 C172 1.567 . S
C1609 C271 1.517 . S
C1621 C469 1.553 . S
C1636 C502 1.562 . S
C1648 C304 1.512 . S
C1663 C403 1.566 . S
C1675 C337 1.533 . S
C1690 C436 1.523 . S
C1702 C370 1.572 . S
C1717 C535 1.520 . S
C1729 C733 1.561 . S
C1744 C766 1.563 . S
C1756 C568 1.519 . S
C1771 C667 1.561 . S
C1783 C601 1.526 . S
C1798 C634 1.567 . S
C1810 C700 1.515 . S
C1825 C997 1.515 . S
C1837 C799 1.556 . S
C1852 C832 1.571 . S
C1864 C1030 1.509 . S
C1879 C931 1.537 . S
C1891 C865 1.562 . S
C1906 C964 1.562 . S
C1918 C898 1.512 . S
C1933 N926 1.325 . S
C1945 N13 1.274 . S
C1960 N431 1.325 . S
C1972 N46 1.270 . S
C1987 N992 1.315 . S
C1999 N79 1.269 . S
C2014 N112 1.309 . S
C2026 N497 1.298 . S
C2041 N794 1.319 . S
C2053 N145 1.268 . S
C2068 N299 1.274 . S
C2080 N178 1.305 . S
C2095 N860 1.275 . S
C2107 N211 1.324 . S
C2122 N244 1.325 . S
C2134 N365 1.272 . S
C2149 N277 1.272 . S
C2161 N662 1.322 . S
C2176 N310 1.277 . S
C2188 N167 1.312 . S
C2203 N343 1.319 . S
C2215 N728 1.270 . S
C2230 N233 1.315 . S
C2242 N376 1.280 . S
C2257 N530 1.272 . S
C2269 N409 1.321 . S
C2284 N442 1.304 . S
C2296 N35 1.291 . S
C2311 N475 1.320 . S
C2323 N596 1.269 . S
C2338 N508 1.310 . S
C2350 N101 1.278 . S
C2365 N398 1.315 . S
C2377 N541 1.269 . S
C2392 N574 1.306 . S
C2404 N959 1.301 . S
C2419 N464 1.275 . S
C2431 N607 1.324 . S
C2446 N640 1.310 . S
C2458 N1025 1.297 . S
C2473 N673 1.279 . S
C2485 N266 1.322 . S
C2500 N706 1.271 . S
C2512 N827 1.325 . S
C2527 N332 1.315 . S
C2539 N739 1.269 . S
C2554 N772 1.267 . S
C2566 N893 1.317 . S
C2581 N134 1.317 . S
C2593 N805 1.274 . S
C2608 N695 1.324 . S
C2620 N838 1.270 . S
C2635 N200 1.274 . S
C2647 N871 1.319 . S
C2662 N761 1.324 . S
C2674 N904 1.268 . S
C2689 N2 1.305 . S
C2701 N937 1.285 . S
C2716 N563 1.325 . S
C2728 N970 1.268 . S
C2743 N1003 1.319 . S
C2755 N68 1.270 . S
C2770 N629 1.275 . S
C2782 N1036 1.313 . S
C2797 C615 0.940 . S
C2809 C21 0.910 . S
C2824 C648 0.938 . S
C2836 C54 0.954 . S
C2851 C87 0.938 . S
C2863 C549 0.954 . S
C2878 C120 0.936 . S
C2890 C582 0.954 . S
C2905 C747 0.928 . S
C2917 C153 0.908 . S
C2932 C186 0.933 . S
C2944 C780 0.954 . S
C2959 C681 0.933 . S
C2971 C219 0.908 . S
C2986 C714 0.934 . S
C2998 C252 0.909 . S
C3013 C879 0.908 . S
C3025 C285 0.919 . S
C3040 C912 0.910 . S
C3052 C318 0.927 . S
C3067 C351 0.910 . S
C3079 C813 0.926 . S
C3094 C384 0.954 . S
C3106 C846 0.940 . S
C3121 C417 0.948 . S
C3133 C1011 0.929 . S
C3148 C450 0.909 . S
C3160 C1044 0.923 . S
C3175 C945 0.913 . S
C3187 C483 0.932 . S
C3202 C978 0.932 . S
C3214 C516 0.950 . S
