# Generated by pormake.
# Topology wjh, (4)-cn, num edge types: 1
# Building blocks:
#     Node 0, Type 0, BuildingBlock: ICAMEG_clean_sbu_1, # of connection points: 4
#     Node 1, Type 0, BuildingBlock: ICAMEG_clean_sbu_1, # of connection points: 4
#     Node 2, Type 0, BuildingBlock: ICAMEG_clean_sbu_1, # of connection points: 4
#     Node 3, Type 0, BuildingBlock: ICAMEG_clean_sbu_1, # of connection points: 4
#     Node 4, Type 0, BuildingBlock: ICAMEG_clean_sbu_1, # of connection points: 4
#     Node 5, Type 0, BuildingBlock: ICAMEG_clean_sbu_1, # of connection points: 4
#     Node 6, Type 0, BuildingBlock: ICAMEG_clean_sbu_1, # of connection points: 4
#     Node 7, Type 0, BuildingBlock: ICAMEG_clean_sbu_1, # of connection points: 4
#     Node 8, Type 0, BuildingBlock: ICAMEG_clean_sbu_1, # of connection points: 4
#     Node 9, Type 0, BuildingBlock: ICAMEG_clean_sbu_1, # of connection points: 4
#     Node 10, Type 0, BuildingBlock: ICAMEG_clean_sbu_1, # of connection points: 4
#     Node 11, Type 0, BuildingBlock: ICAMEG_clean_sbu_1, # of connection points: 4
#     Edge 12, Type (0, 0), BuildingBlock: AJUNOK_clean_linker_0, # of connection points: 2
#     Edge 13, Type (0, 0), BuildingBlock: AJUNOK_clean_linker_0, # of connection points: 2
#     Edge 14, Type (0, 0), BuildingBlock: AJUNOK_clean_linker_0, # of connection points: 2
#     Edge 15, Type (0, 0), BuildingBlock: AJUNOK_clean_linker_0, # of connection points: 2
#     Edge 16, Type (0, 0), BuildingBlock: AJUNOK_clean_linker_0, # of connection points: 2
#     Edge 17, Type (0, 0), BuildingBlock: AJUNOK_clean_linker_0, # of connection points: 2
#     Edge 18, Type (0, 0), BuildingBlock: AJUNOK_clean_linker_0, # of connection points: 2
#     Edge 19, Type (0, 0), BuildingBlock: AJUNOK_clean_linker_0, # of connection points: 2
#     Edge 20, Type (0, 0), BuildingBlock: AJUNOK_clean_linker_0, # of connection points: 2
#     Edge 21, Type (0, 0), BuildingBlock: AJUNOK_clean_linker_0, # of connection points: 2
#     Edge 22, Type (0, 0), BuildingBlock: AJUNOK_clean_linker_0, # of connection points: 2
#     Edge 23, Type (0, 0), BuildingBlock: AJUNOK_clean_linker_0, # of connection points: 2
#     Edge 24, Type (0, 0), BuildingBlock: AJUNOK_clean_linker_0, # of connection points: 2
#     Edge 25, Type (0, 0), BuildingBlock: AJUNOK_clean_linker_0, # of connection points: 2
#     Edge 26, Type (0, 0), BuildingBlock: AJUNOK_clean_linker_0, # of connection points: 2
#     Edge 27, Type (0, 0), BuildingBlock: AJUNOK_clean_linker_0, # of connection points: 2
#     Edge 28, Type (0, 0), BuildingBlock: AJUNOK_clean_linker_0, # of connection points: 2
#     Edge 29, Type (0, 0), BuildingBlock: AJUNOK_clean_linker_0, # of connection points: 2
#     Edge 30, Type (0, 0), BuildingBlock: AJUNOK_clean_linker_0, # of connection points: 2
#     Edge 31, Type (0, 0), BuildingBlock: AJUNOK_clean_linker_0, # of connection points: 2
#     Edge 32, Type (0, 0), BuildingBlock: AJUNOK_clean_linker_0, # of connection points: 2
#     Edge 33, Type (0, 0), BuildingBlock: AJUNOK_clean_linker_0, # of connection points: 2
#     Edge 34, Type (0, 0), BuildingBlock: AJUNOK_clean_linker_0, # of connection points: 2
#     Edge 35, Type (0, 0), BuildingBlock: AJUNOK_clean_linker_0, # of connection points: 2
# Relax obj value: 0.057
# Max RMSD: 0.096
# Mean RMSD: 0.096
data_MOF--net-wjh--node1-ICAMEG_clean_sbu_1--edge1-AJUNOK_clean_linker_0
_symmetry_space_group_name_H-M    P1
_symmetry_Int_Tables_number       1
_symmetry_cell_setting            triclinic
loop_
_symmetry_equiv_pos_as_xyz
'x, y, z'
_cell_length_a     47.153108
_cell_length_b     47.171385
_cell_length_c     22.646024
_cell_angle_alpha  89.988264
_cell_angle_beta   90.031376
_cell_angle_gamma 119.92649
loop_
_atom_site_label
_atom_site_type_symbol
_atom_site_fract_x
_atom_site_fract_y
_atom_site_fract_z
_atom_type_partial_charge
Co0 Co 0.51695 0.14542 0.07886 0.0
Co1 Co 0.58628 0.14453 0.03182 0.0
O2 O 0.55545 0.1609 0.02817 0.0
C3 C 0.55309 0.21764 0.10006 0.0
O4 O 0.57976 0.21568 0.10595 0.0
C5 C 0.56526 0.13403 0.90721 0.0
O6 O 0.53522 0.12329 0.92574 0.0
O7 O 0.54986 0.09813 0.0292 0.0
O8 O 0.50666 0.09876 0.06933 0.0
H9 H 0.62813 0.07133 0.10348 0.0
H10 H 0.52539 0.18791 0.97631 0.0
O11 O 0.52593 0.19178 0.08909 0.0
H12 H 0.4214 0.0859 0.94038 0.0
H13 H 0.41524 0.14301 0.1538 0.0
H14 H 0.48871 0.09743 0.17641 0.0
H15 H 0.45333 0.09267 0.03078 0.0
H16 H 0.46362 0.16173 0.08966 0.0
O17 O 0.58881 0.14465 0.94385 0.0
H18 H 0.58977 0.09252 0.09939 0.0
H19 H 0.64863 0.16201 0.96946 0.0
H20 H 0.44044 0.07778 0.24114 0.0
H21 H 0.49409 0.18235 0.88551 0.0
H22 H 0.4033 0.10061 0.22999 0.0
H23 H 0.44175 0.13099 0.86699 0.0
O24 O 0.54337 0.15026 0.151 0.0
H25 H 0.64549 0.26186 0.966 0.0
H26 H 0.64593 0.18235 0.10671 0.0
H27 H 0.6893 0.24018 0.11257 0.0
H28 H 0.68925 0.28042 0.04185 0.0
H29 H 0.60239 0.2038 0.96216 0.0
H30 H 0.68748 0.14138 0.97171 0.0
H31 H 0.67741 0.09581 0.03931 0.0
O32 O 0.58487 0.14378 0.11963 0.0
C33 C 0.52036 0.0835 0.0478 0.0
C34 C 0.63284 0.09125 0.07395 0.0
C35 C 0.66615 0.13057 2e-05 0.0
N36 N 0.6171 0.12865 0.0346 0.0
C37 C 0.61123 0.10339 0.07151 0.0
C38 C 0.64405 0.14212 -0.00112 0.0
C39 C 0.66048 0.10499 0.03793 0.0
C40 C 0.50249 0.16561 0.9688 0.0
N41 N 0.49118 0.14066 0.00887 0.0
C42 C 0.48494 0.16255 0.91721 0.0
C43 C 0.45559 0.13371 0.9068 0.0
C44 C 0.44418 0.10839 0.94793 0.0
C45 C 0.46242 0.11231 -0.00103 0.0
C46 C 0.43118 0.13282 0.15898 0.0
C47 C 0.47255 0.10734 0.17111 0.0
C48 C 0.45865 0.14337 0.12287 0.0
N49 N 0.47877 0.13044 0.12894 0.0
C50 C 0.44531 0.09619 0.20798 0.0
C51 C 0.4245 0.10902 0.20172 0.0
C52 C 0.56847 0.14733 0.16068 0.0
C53 C 0.64581 0.24455 -0.003 0.0
C54 C 0.64564 0.19968 0.07599 0.0
C55 C 0.67035 0.2324 0.07935 0.0
C56 C 0.67033 0.25496 0.03962 0.0
N57 N 0.62162 0.18966 0.03419 0.0
C58 C 0.62154 0.21162 -0.0051 0.0
Co59 Co 0.38291 0.50934 0.24103 0.0
Co60 Co 0.45217 0.57911 0.19261 0.0
O61 O 0.4052 0.54767 0.18996 0.0
C62 C 0.34661 0.5452 0.26299 0.0
O63 O 0.3752 0.57193 0.26786 0.0
C64 C 0.44084 0.55603 0.06951 0.0
O65 O 0.42316 0.52626 0.09042 0.0
O66 O 0.46323 0.54333 0.19223 0.0
O67 O 0.4195 0.49942 0.23064 0.0
H68 H 0.56746 0.62487 0.26575 0.0
H69 H 0.34805 0.51736 0.13926 0.0
O70 O 0.34535 0.51802 0.25226 0.0
H71 H 0.34726 0.41395 0.10233 0.0
H72 H 0.28481 0.40743 0.31791 0.0
H73 H 0.40376 0.48155 0.33784 0.0
H74 H 0.37225 0.44576 0.19285 0.0
H75 H 0.31363 0.45574 0.25336 0.0
O76 O 0.45398 0.58031 0.10454 0.0
H77 H 0.50822 0.58541 0.26242 0.0
H78 H 0.49601 0.63991 0.12544 0.0
H79 H 0.376 0.43337 0.40296 0.0
H80 H 0.32247 0.48615 0.04837 0.0
H81 H 0.31608 0.39591 0.39317 0.0
H82 H 0.32213 0.43415 0.02928 0.0
O83 O 0.4049 0.53602 0.31266 0.0
H84 H 0.3915 0.63531 0.1233 0.0
H85 H 0.47362 0.63994 0.26364 0.0
H86 H 0.45812 0.68268 0.26691 0.0
H87 H 0.41672 0.68051 0.19637 0.0
H88 H 0.40754 0.59291 0.12201 0.0
H89 H 0.55518 0.67981 0.12688 0.0
H90 H 0.59129 0.6725 0.19765 0.0
O91 O 0.45173 0.57884 0.2805 0.0
C92 C 0.44869 0.51371 0.21023 0.0
C93 C 0.55196 0.62839 0.23486 0.0
C94 C 0.54507 0.65921 0.1569 0.0
N95 N 0.49864 0.61057 0.19428 0.0
C96 C 0.5184 0.60618 0.23288 0.0
C97 C 0.5116 0.63652 0.15623 0.0
C98 C 0.56532 0.6551 0.19662 0.0
C99 C 0.34768 0.49456 0.13157 0.0
N100 N 0.3616 0.48337 0.1714 0.0
C101 C 0.33326 0.47706 0.07993 0.0
C102 C 0.33313 0.44791 0.0692 0.0
C103 C 0.34726 0.43659 0.11013 0.0
C104 C 0.36148 0.45476 0.16125 0.0
C105 C 0.31093 0.42353 0.32251 0.0
C106 C 0.37772 0.46525 0.33313 0.0
C107 C 0.32737 0.45094 0.28616 0.0
N108 N 0.36039 0.47125 0.29149 0.0
C109 C 0.36211 0.43806 0.37022 0.0
C110 C 0.3285 0.41707 0.36472 0.0
C111 C 0.43236 0.56191 0.32186 0.0
C112 C 0.40959 0.63655 0.15422 0.0
C113 C 0.45552 0.63873 0.23305 0.0
C114 C 0.44691 0.66308 0.23492 0.0
C115 C 0.42372 0.66188 0.19528 0.0
N116 N 0.44148 0.6139 0.19281 0.0
C117 C 0.41886 0.61267 0.15358 0.0
Co118 Co 0.88597 0.37515 0.40624 0.0
Co119 Co 0.88385 0.44416 0.35941 0.0
O120 O 0.86885 0.39717 0.35631 0.0
C121 C 0.81369 0.3386 0.43129 0.0
O122 O 0.81376 0.36644 0.42917 0.0
C123 C 0.89561 0.4337 0.23505 0.0
O124 O 0.90593 0.41408 0.25383 0.0
O125 O 0.93085 0.45576 0.3594 0.0
O126 O 0.9322 0.41105 0.39017 0.0
H127 H 0.95274 0.55934 0.43315 0.0
H128 H 0.84078 0.34106 0.30682 0.0
O129 O 0.8402 0.3381 0.42264 0.0
H130 H 0.93852 0.33157 0.26716 0.0
H131 H 0.89068 0.27794 0.48654 0.0
H132 H 0.93772 0.39753 0.49742 0.0
H133 H 0.93502 0.35907 0.35724 0.0
H134 H 0.87025 0.30586 0.42171 0.0
O135 O 0.88496 0.44675 0.27137 0.0
H136 H 0.93338 0.50019 0.42933 0.0
H137 H 0.86563 0.48778 0.29424 0.0
H138 H 0.95924 0.37068 0.56255 0.0
H139 H 0.84297 0.31296 0.21652 0.0
H140 H 0.93562 0.31044 0.55742 0.0
H141 H 0.89221 0.30825 0.19605 0.0
O142 O 0.88347 0.39832 0.47833 0.0
H143 H 0.76781 0.38444 0.2862 0.0
H144 H 0.84353 0.4641 0.43147 0.0
H145 H 0.78535 0.44882 0.43286 0.0
H146 H 0.74704 0.40874 0.35972 0.0
H147 H 0.82617 0.40019 0.28687 0.0
H148 H 0.88444 0.54683 0.29617 0.0
H149 H 0.92822 0.58303 0.3662 0.0
O150 O 0.88325 0.44327 0.44702 0.0
C151 C 0.94627 0.44073 0.37221 0.0
C152 C 0.93361 0.54383 0.40252 0.0
C153 C 0.89527 0.5368 0.32567 0.0
N154 N 0.89827 0.49053 0.3619 0.0
C155 C 0.92253 0.51031 0.40021 0.0
C156 C 0.88476 0.50339 0.32471 0.0
C157 C 0.91984 0.5571 0.36494 0.0
C158 C 0.86225 0.33905 0.29824 0.0
N159 N 0.888 0.35216 0.33675 0.0
C160 C 0.86336 0.32313 0.24704 0.0
C161 C 0.891 0.32051 0.23556 0.0
C162 C 0.91701 0.33363 0.27538 0.0
C163 C 0.91503 0.3494 0.32607 0.0
C164 C 0.90119 0.3042 0.48919 0.0
C165 C 0.92749 0.37134 0.49468 0.0
C166 C 0.88961 0.32012 0.45278 0.0
N167 N 0.90282 0.3533 0.45575 0.0
C168 C 0.9397 0.35626 0.53177 0.0
C169 C 0.92641 0.32245 0.52891 0.0
C170 C 0.88296 0.42473 0.48806 0.0
C171 C 0.78428 0.40197 0.31822 0.0
C172 C 0.82702 0.44651 0.39981 0.0
C173 C 0.7941 0.43803 0.40062 0.0
C174 C 0.77262 0.41558 0.35954 0.0
N175 N 0.83828 0.43308 0.35913 0.0
C176 C 0.81737 0.41108 0.31867 0.0
Co177 Co 0.51724 0.87946 0.57972 0.0
Co178 Co 0.44724 0.8786 0.53129 0.0
O179 O 0.47871 0.8629 0.52849 0.0
C180 C 0.48399 0.80696 0.60085 0.0
O181 O 0.45607 0.80668 0.6048 0.0
C182 C 0.46772 0.88876 0.40635 0.0
O183 O 0.49796 0.90025 0.42446 0.0
O184 O 0.48307 0.92524 0.5274 0.0
O185 O 0.526 0.92556 0.57067 0.0
H186 H 0.40398 0.95108 0.6002 0.0
H187 H 0.51087 0.83762 0.47744 0.0
O188 O 0.51025 0.83379 0.59006 0.0
H189 H 0.61228 0.94215 0.44155 0.0
H190 H 0.62189 0.88769 0.65355 0.0
H191 H 0.54267 0.92601 0.67986 0.0
H192 H 0.57987 0.93408 0.53172 0.0
H193 H 0.57377 0.86777 0.58831 0.0
O194 O 0.44433 0.87773 0.44332 0.0
H195 H 0.44305 0.93074 0.597 0.0
H196 H 0.38431 0.85948 0.46936 0.0
H197 H 0.59065 0.9469 0.74569 0.0
H198 H 0.54275 0.84448 0.38691 0.0
H199 H 0.63066 0.9277 0.73276 0.0
H200 H 0.59379 0.8971 0.3684 0.0
O201 O 0.4901 0.87336 0.65137 0.0
H202 H 0.38883 0.76098 0.46728 0.0
H203 H 0.38801 0.84065 0.60702 0.0
H204 H 0.34483 0.78278 0.61328 0.0
H205 H 0.34501 0.74247 0.54293 0.0
H206 H 0.43177 0.81909 0.4631 0.0
H207 H 0.34474 0.87921 0.47077 0.0
H208 H 0.35439 0.92525 0.53676 0.0
O209 O 0.44891 0.88014 0.61911 0.0
C210 C 0.51224 0.94036 0.54756 0.0
C211 C 0.39945 0.93095 0.57136 0.0
C212 C 0.3662 0.89061 0.49875 0.0
N213 N 0.41584 0.89379 0.5334 0.0
C214 C 0.42147 0.9193 0.56942 0.0
C215 C 0.38871 0.87957 0.49809 0.0
C216 C 0.37164 0.91645 0.53576 0.0
C217 C 0.53322 0.86048 0.46996 0.0
N218 N 0.54352 0.88539 0.50993 0.0
C219 C 0.5511 0.86427 0.41851 0.0
C220 C 0.57971 0.89381 0.40811 0.0
C221 C 0.59008 0.91911 0.44909 0.0
C222 C 0.57154 0.91445 0.5 0.0
C223 C 0.60463 0.89624 0.65965 0.0
C224 C 0.56 0.91758 0.67391 0.0
C225 C 0.57727 0.88492 0.62301 0.0
N226 N 0.55543 0.89569 0.6303 0.0
C227 C 0.58711 0.92948 0.71134 0.0
C228 C 0.60954 0.91869 0.70407 0.0
C229 C 0.46504 0.87643 0.66052 0.0
C230 C 0.38845 0.77831 0.49812 0.0
C231 C 0.38842 0.82328 0.57659 0.0
C232 C 0.36381 0.79053 0.58015 0.0
C233 C 0.3639 0.76794 0.54063 0.0
N234 N 0.41242 0.83328 0.53478 0.0
C235 C 0.41263 0.81127 0.49584 0.0
Co236 Co 0.65411 0.51394 0.73945 0.0
Co237 Co 0.58325 0.44256 0.70072 0.0
O238 O 0.63024 0.47365 0.69355 0.0
C239 C 0.68943 0.4774 0.76692 0.0
O240 O 0.66076 0.4509 0.77298 0.0
C241 C 0.59176 0.46335 0.57662 0.0
O242 O 0.61006 0.49327 0.59638 0.0
O243 O 0.57235 0.47846 0.69993 0.0
O244 O 0.61835 0.52484 0.72477 0.0
H245 H 0.47047 0.39854 0.78527 0.0
H246 H 0.68417 0.49877 0.63831 0.0
O247 O 0.69092 0.50444 0.7539 0.0
H248 H 0.69591 0.6063 0.59242 0.0
H249 H 0.75485 0.61558 0.81034 0.0
H250 H 0.635 0.54731 0.82831 0.0
H251 H 0.67114 0.57845 0.68636 0.0
H252 H 0.72446 0.56574 0.75005 0.0
O253 O 0.57906 0.43951 0.6127 0.0
H254 H 0.52961 0.43757 0.77635 0.0
H255 H 0.53717 0.38086 0.63811 0.0
H256 H 0.66438 0.59713 0.88903 0.0
H257 H 0.70953 0.52587 0.54418 0.0
H258 H 0.72476 0.63163 0.8803 0.0
H259 H 0.71528 0.57991 0.52049 0.0
O260 O 0.63239 0.49053 0.81402 0.0
H261 H 0.6405 0.38326 0.62962 0.0
H262 H 0.56398 0.3841 0.77702 0.0
H263 H 0.57893 0.34093 0.78125 0.0
H264 H 0.6175 0.34038 0.70721 0.0
H265 H 0.62506 0.42611 0.62727 0.0
H266 H 0.47805 0.34135 0.6452 0.0
H267 H 0.44432 0.35002 0.71936 0.0
O268 O 0.58626 0.44489 0.78821 0.0
C269 C 0.58809 0.5092 0.70997 0.0
C270 C 0.48493 0.39445 0.75289 0.0
C271 C 0.48917 0.36237 0.67422 0.0
N272 N 0.53684 0.41138 0.70701 0.0
C273 C 0.51843 0.41642 0.74772 0.0
C274 C 0.52262 0.38486 0.67032 0.0
C275 C 0.47026 0.36725 0.71586 0.0
C276 C 0.68666 0.52232 0.62839 0.0
N277 N 0.67557 0.53674 0.66726 0.0
C278 C 0.70105 0.53755 0.57502 0.0
C279 C 0.70426 0.56786 0.56174 0.0
C280 C 0.69333 0.58264 0.602 0.0
C281 C 0.67906 0.56666 0.6549 0.0
C282 C 0.72854 0.60077 0.81448 0.0
C283 C 0.66124 0.56237 0.82387 0.0
C284 C 0.71121 0.57246 0.7806 0.0
N285 N 0.67795 0.55375 0.78539 0.0
C286 C 0.67776 0.59047 0.85854 0.0
C287 C 0.71164 0.60978 0.85369 0.0
C288 C 0.60603 0.46421 0.82693 0.0
C289 C 0.6236 0.3832 0.66202 0.0
C290 C 0.58076 0.38402 0.74465 0.0
C291 C 0.5891 0.35948 0.7472 0.0
C292 C 0.61072 0.35917 0.70562 0.0
N293 N 0.59354 0.40754 0.7018 0.0
C294 C 0.61467 0.40732 0.66077 0.0
Co295 Co 0.14732 0.64528 0.90131 0.0
Co296 Co 0.15242 0.57672 0.86396 0.0
O297 O 0.16578 0.62309 0.85567 0.0
C298 C 0.21909 0.68488 0.92764 0.0
O299 O 0.21881 0.6572 0.93603 0.0
C300 C 0.13997 0.58318 0.73869 0.0
O301 O 0.12775 0.60141 0.75613 0.0
O302 O 0.10502 0.56342 0.86151 0.0
O303 O 0.10171 0.60726 0.88999 0.0
H304 H 0.08818 0.46388 0.95042 0.0
H305 H 0.19147 0.67913 0.80062 0.0
O306 O 0.19261 0.68434 0.91328 0.0
H307 H 0.08744 0.67451 0.75071 0.0
H308 H 0.13729 0.74234 0.96401 0.0
H309 H 0.09665 0.62471 -0.00574 0.0
H310 H 0.09369 0.65202 0.84499 0.0
H311 H 0.15918 0.71359 0.90507 0.0
O312 O 0.1519 0.5719 0.77618 0.0
H313 H 0.10553 0.52238 0.94035 0.0
H314 H 0.1719 0.5327 0.80414 0.0
H315 H 0.07379 0.65236 0.0538 0.0
H316 H 0.18644 0.70225 0.70609 0.0
H317 H 0.09419 0.71162 0.03893 0.0
H318 H 0.13407 0.6999 0.68052 0.0
O319 O 0.15187 0.62585 0.9766 0.0
H320 H 0.26891 0.6379 0.79358 0.0
H321 H 0.19355 0.5608 0.94232 0.0
H322 H 0.25223 0.57811 0.94702 0.0
H323 H 0.29036 0.61691 0.8722 0.0
H324 H 0.21006 0.62015 0.79085 0.0
H325 H 0.155 0.47422 0.81222 0.0
H326 H 0.1129 0.43941 0.88591 0.0
O327 O 0.15244 0.58016 0.95135 0.0
C328 C 0.08846 0.57735 0.87378 0.0
C329 C 0.10657 0.4788 0.91819 0.0
C330 C 0.14403 0.48459 0.84056 0.0
N331 N 0.13966 0.53092 0.87166 0.0
C332 C 0.11655 0.51196 0.91239 0.0
C333 C 0.15341 0.51765 0.83603 0.0
C334 C 0.12043 0.46508 0.88194 0.0
C335 C 0.16871 0.67828 0.79002 0.0
N336 N 0.14291 0.66425 0.82829 0.0
C337 C 0.16596 0.6913 0.73634 0.0
C338 C 0.13656 0.68993 0.72199 0.0
C339 C 0.11038 0.67566 0.76132 0.0
C340 C 0.114 0.66284 0.81455 0.0
C341 C 0.12823 0.71652 0.97097 0.0
C342 C 0.10552 0.65047 0.98734 0.0
C343 C 0.14066 0.70017 0.93793 0.0
N344 N 0.12928 0.66756 0.94636 0.0
C345 C 0.09254 0.666 0.02127 0.0
C346 C 0.10402 0.69926 0.01295 0.0
C347 C 0.15267 0.59995 0.98981 0.0
C348 C 0.25254 0.62093 0.82635 0.0
C349 C 0.20999 0.57778 0.90975 0.0
C350 C 0.24319 0.58743 0.91254 0.0
C351 C 0.26456 0.60918 0.87052 0.0
N352 N 0.19838 0.58939 0.86625 0.0
C353 C 0.21918 0.61071 0.8249 0.0
Co354 Co 0.88489 0.51162 0.82212 0.0
Co355 Co 0.88213 0.43917 0.86049 0.0
O356 O 0.86778 0.47143 0.86836 0.0
C357 C 0.81301 0.47682 0.79751 0.0
O358 O 0.81478 0.45012 0.79057 0.0
C359 C 0.89575 0.46016 0.98429 0.0
O360 O 0.90828 0.49012 0.96415 0.0
O361 O 0.92929 0.47398 0.86069 0.0
O362 O 0.93109 0.52069 0.83359 0.0
H363 H 0.94642 0.39083 0.77257 0.0
H364 H 0.84059 0.50022 0.92325 0.0
O365 O 0.8389 0.50367 0.81009 0.0
H366 H 0.94262 0.60203 0.97093 0.0
H367 H 0.88952 0.61575 0.75582 0.0
H368 H 0.93589 0.54315 0.73007 0.0
H369 H 0.93708 0.57321 0.87704 0.0
H370 H 0.86921 0.5655 0.81532 0.0
O371 O 0.88362 0.43614 0.94853 0.0
H372 H 0.92823 0.43138 0.78216 0.0
H373 H 0.8655 0.37742 0.92398 0.0
H374 H 0.95708 0.59327 0.66991 0.0
H375 H 0.84491 0.52843 0.0174 0.0
H376 H 0.93383 0.62995 0.68259 0.0
H377 H 0.89627 0.57963 0.04185 0.0
O378 O 0.8812 0.48763 0.74734 0.0
H379 H 0.76612 0.38308 0.93377 0.0
H380 H 0.8412 0.38117 0.78437 0.0
H381 H 0.78266 0.33934 0.7811 0.0
H382 H 0.74468 0.34017 0.85614 0.0
H383 H 0.82481 0.42459 0.93516 0.0
H384 H 0.88322 0.33641 0.91627 0.0
H385 H 0.92391 0.34294 0.84003 0.0
O386 O 0.88114 0.44163 0.77291 0.0
C387 C 0.94511 0.50451 0.84866 0.0
C388 C 0.92863 0.38767 0.80591 0.0
C389 C 0.89322 0.35717 0.88664 0.0
N390 N 0.89581 0.40677 0.85353 0.0
C391 C 0.91818 0.41052 0.81145 0.0
C392 C 0.88336 0.38054 0.89092 0.0
C393 C 0.91602 0.36084 0.84382 0.0
C394 C 0.8629 0.52267 0.93334 0.0
N395 N 0.88855 0.53509 0.89467 0.0
C396 C 0.86524 0.53848 0.98678 0.0
C397 C 0.89408 0.56718 0.00051 0.0
C398 C 0.92011 0.57973 0.96078 0.0
C399 C 0.91689 0.56325 0.90777 0.0
C400 C 0.89988 0.59999 0.74995 0.0
C401 C 0.92583 0.55913 0.73613 0.0
C402 C 0.88843 0.57147 0.78342 0.0
N403 N 0.9015 0.55153 0.77637 0.0
C404 C 0.93785 0.58741 0.70182 0.0
C405 C 0.92476 0.60795 0.70889 0.0
C406 C 0.88074 0.46107 0.73429 0.0
C407 C 0.78245 0.38241 0.90093 0.0
C408 C 0.82484 0.38168 0.8172 0.0
C409 C 0.79172 0.3579 0.81517 0.0
C410 C 0.77042 0.35836 0.85732 0.0
N411 N 0.83643 0.40522 0.86007 0.0
C412 C 0.81572 0.40576 0.90165 0.0
Co413 Co 0.37924 0.88044 -0.00704 0.0
Co414 Co 0.44907 0.87775 0.03208 0.0
O415 O 0.40218 0.86284 0.03884 0.0
C416 C 0.34203 0.80856 0.96481 0.0
O417 O 0.37001 0.80886 0.96269 0.0
C418 C 0.44063 0.89013 0.15626 0.0
O419 O 0.42255 0.90211 0.13673 0.0
O420 O 0.46105 0.92486 0.03264 0.0
O421 O 0.41558 0.9265 0.00856 0.0
H422 H 0.56213 0.94419 0.94751 0.0
H423 H 0.34738 0.8346 0.09246 0.0
O424 O 0.34168 0.83482 0.97695 0.0
H425 H 0.3395 0.93229 0.14151 0.0
H426 H 0.2806 0.88609 0.92368 0.0
H427 H 0.39986 0.93289 0.90363 0.0
H428 H 0.36429 0.92912 0.04761 0.0
H429 H 0.30979 0.86523 0.98409 0.0
O430 O 0.45319 0.8789 0.12005 0.0
H431 H 0.50321 0.92536 0.95625 0.0
H432 H 0.49427 0.86098 0.09532 0.0
H433 H 0.37175 0.95483 0.84286 0.0
H434 H 0.32194 0.83643 0.1865 0.0
H435 H 0.31166 0.93131 0.85257 0.0
H436 H 0.31812 0.88565 0.21176 0.0
O437 O 0.40092 0.87843 0.91852 0.0
H438 H 0.39062 0.7617 0.1051 0.0
H439 H 0.46743 0.83754 0.95654 0.0
H440 H 0.45209 0.77935 0.95383 0.0
H441 H 0.41345 0.74099 0.02857 0.0
H442 H 0.40642 0.82006 0.10587 0.0
H443 H 0.55316 0.87931 0.08844 0.0
H444 H 0.58747 0.92112 0.01395 0.0
O445 O 0.44609 0.87695 0.94465 0.0
C446 C 0.44583 0.94046 0.02308 0.0
C447 C 0.54742 0.9259 0.98005 0.0
C448 C 0.54239 0.88952 0.0592 0.0
N449 N 0.4953 0.89196 0.026 0.0
C450 C 0.51403 0.91509 0.9851 0.0
C451 C 0.50908 0.87929 0.06298 0.0
C452 C 0.56163 0.91297 0.01738 0.0
C453 C 0.34569 0.85606 0.10306 0.0
N454 N 0.35783 0.88201 0.06508 0.0
C455 C 0.33127 0.85695 0.15637 0.0
C456 C 0.32915 0.88458 0.17053 0.0
C457 C 0.3412 0.91078 0.13122 0.0
C458 C 0.35547 0.909 0.07834 0.0
C459 C 0.30678 0.89652 0.91899 0.0
C460 C 0.37374 0.9227 0.90838 0.0
C461 C 0.3234 0.88468 0.95284 0.0
N462 N 0.35647 0.89778 0.94726 0.0
C463 C 0.35794 0.93515 0.87374 0.0
C464 C 0.32422 0.92192 0.87915 0.0
C465 C 0.42675 0.87733 0.90582 0.0
C466 C 0.40754 0.77819 0.07239 0.0
C467 C 0.45052 0.82099 0.98907 0.0
C468 C 0.44198 0.78808 0.98741 0.0
C469 C 0.42032 0.76658 0.02938 0.0
N470 N 0.4379 0.83221 0.03142 0.0
C471 C 0.41667 0.81128 0.07274 0.0
Co472 Co 0.516 0.37652 0.15497 0.0
Co473 Co 0.58644 0.44613 0.20155 0.0
O474 O 0.55491 0.39913 0.20503 0.0
C475 C 0.55288 0.34137 0.12951 0.0
O476 O 0.57961 0.37004 0.12586 0.0
C477 C 0.56477 0.43599 0.32618 0.0
O478 O 0.53477 0.41644 0.30776 0.0
O479 O 0.55057 0.45712 0.202 0.0
O480 O 0.50506 0.41219 0.17 0.0
H481 H 0.63113 0.56117 0.12804 0.0
H482 H 0.52767 0.34365 0.25596 0.0
O483 O 0.52559 0.33985 0.14034 0.0
H484 H 0.4193 0.33204 0.2926 0.0
H485 H 0.41581 0.2779 0.07387 0.0
H486 H 0.48554 0.39787 0.06402 0.0
H487 H 0.45036 0.3594 0.20255 0.0
H488 H 0.46414 0.30664 0.13841 0.0
O489 O 0.58831 0.44881 0.28955 0.0
H490 H 0.59188 0.50193 0.13213 0.0
H491 H 0.64847 0.49015 0.26556 0.0
H492 H 0.43721 0.37014 -0.00088 0.0
H493 H 0.49736 0.31576 0.3463 0.0
H494 H 0.40198 0.30972 0.00379 0.0
H495 H 0.44284 0.30997 0.36526 0.0
O496 O 0.5415 0.39962 0.08266 0.0
H497 H 0.64316 0.38618 0.27188 0.0
H498 H 0.64657 0.46658 0.12881 0.0
H499 H 0.68924 0.45097 0.1255 0.0
H500 H 0.68769 0.41044 0.19741 0.0
H501 H 0.60079 0.40229 0.27319 0.0
H502 H 0.68821 0.5493 0.26332 0.0
H503 H 0.67974 0.58523 0.19398 0.0
O504 O 0.58582 0.44528 0.11399 0.0
C505 C 0.52022 0.44183 0.18842 0.0
C506 C 0.63513 0.54578 0.15838 0.0
C507 C 0.66718 0.53911 0.23427 0.0
N508 N 0.61796 0.49258 0.1988 0.0
C509 C 0.613 0.51221 0.16087 0.0
C510 C 0.64456 0.50565 0.23542 0.0
C511 C 0.66239 0.55926 0.19539 0.0
C512 C 0.50395 0.34121 0.26389 0.0
N513 N 0.49102 0.35366 0.22454 0.0
C514 C 0.48691 0.32539 0.31512 0.0
C515 C 0.45632 0.32217 0.32575 0.0
C516 C 0.44313 0.33458 0.28506 0.0
C517 C 0.46091 0.35028 0.23438 0.0
C518 C 0.43094 0.30424 0.07149 0.0
C519 C 0.47017 0.37159 0.06662 0.0
C520 C 0.45841 0.32064 0.10777 0.0
N521 N 0.47751 0.35394 0.10526 0.0
C522 C 0.44291 0.35602 0.02962 0.0
C523 C 0.42318 0.32211 0.03221 0.0
C524 C 0.56791 0.4265 0.07293 0.0
C525 C 0.64414 0.4039 0.24038 0.0
C526 C 0.64565 0.44888 0.16006 0.0
C527 C 0.66995 0.44019 0.15813 0.0
C528 C 0.66909 0.41749 0.19853 0.0
N529 N 0.6212 0.43539 0.20114 0.0
C530 C 0.62029 0.41322 0.24105 0.0
Co531 Co 0.15086 0.50973 0.31596 0.0
Co532 Co 0.15089 0.57923 0.36487 0.0
O533 O 0.16687 0.54808 0.36705 0.0
C534 C 0.22294 0.5455 0.29347 0.0
O535 O 0.22108 0.57225 0.28828 0.0
C536 C 0.14032 0.5567 0.48827 0.0
O537 O 0.12826 0.52687 0.46765 0.0
O538 O 0.10428 0.54317 0.36672 0.0
O539 O 0.10435 0.49974 0.32647 0.0
H540 H 0.07944 0.62347 0.29463 0.0
H541 H 0.19379 0.51769 0.41757 0.0
O542 O 0.19707 0.5184 0.30463 0.0
H543 H 0.0914 0.41426 0.45449 0.0
H544 H 0.14721 0.40786 0.23871 0.0
H545 H 0.10235 0.48209 0.21903 0.0
H546 H 0.09808 0.44614 0.36411 0.0
H547 H 0.16658 0.45609 0.30348 0.0
O548 O 0.15109 0.58084 0.45297 0.0
H549 H 0.09991 0.58449 0.2971 0.0
H550 H 0.16803 0.64033 0.43125 0.0
H551 H 0.08205 0.43399 0.15368 0.0
H552 H 0.18831 0.48642 0.50832 0.0
H553 H 0.10451 0.39647 0.16336 0.0
H554 H 0.13675 0.4344 0.52741 0.0
O555 O 0.1555 0.53649 0.24448 0.0
H556 H 0.26835 0.63685 0.43039 0.0
H557 H 0.18898 0.63956 0.29209 0.0
H558 H 0.24695 0.68266 0.2868 0.0
H559 H 0.28712 0.68145 0.35629 0.0
H560 H 0.21014 0.59407 0.43374 0.0
H561 H 0.14813 0.67979 0.43061 0.0
H562 H 0.10363 0.67156 0.3617 0.0
O563 O 0.15021 0.57856 0.27696 0.0
C564 C 0.08936 0.51369 0.34803 0.0
C565 C 0.09893 0.6274 0.3247 0.0
C566 C 0.13747 0.659 0.40103 0.0
N567 N 0.1354 0.61036 0.36373 0.0
C568 C 0.11067 0.60546 0.32618 0.0
C569 C 0.14861 0.63656 0.40123 0.0
C570 C 0.1125 0.65436 0.36236 0.0
C571 C 0.17142 0.49489 0.42526 0.0
N572 N 0.1463 0.48373 0.38551 0.0
C573 C 0.16841 0.47735 0.47682 0.0
C574 C 0.13945 0.44819 0.48755 0.0
C575 C 0.11398 0.4369 0.4467 0.0
C576 C 0.11786 0.45511 0.39566 0.0
C577 C 0.13717 0.42398 0.23418 0.0
C578 C 0.1121 0.46576 0.22369 0.0
C579 C 0.14809 0.45135 0.27065 0.0
N580 N 0.13536 0.47168 0.26539 0.0
C581 C 0.10058 0.43862 0.18648 0.0
C582 C 0.11321 0.4176 0.1919 0.0
C583 C 0.15319 0.562 0.23546 0.0
C584 C 0.25107 0.63768 0.39994 0.0
C585 C 0.20628 0.63879 0.32231 0.0
C586 C 0.23909 0.66334 0.31926 0.0
C587 C 0.2616 0.66267 0.3583 0.0
N588 N 0.19615 0.6143 0.36313 0.0
C589 C 0.21806 0.61359 0.40176 0.0
Co590 Co 0.6529 0.1434 0.49463 0.0
Co591 Co 0.58293 0.14592 0.53275 0.0
O592 O 0.62974 0.1607 0.54037 0.0
C593 C 0.69047 0.21535 0.46737 0.0
O594 O 0.66248 0.21448 0.45898 0.0
C595 C 0.59096 0.13282 0.65657 0.0
O596 O 0.60879 0.12068 0.63656 0.0
O597 O 0.57085 0.0988 0.53271 0.0
O598 O 0.61635 0.09725 0.50846 0.0
H599 H 0.4702 0.08008 0.44635 0.0
H600 H 0.68415 0.18817 0.59583 0.0
O601 O 0.6906 0.18917 0.48117 0.0
H602 H 0.69166 0.08994 0.64175 0.0
H603 H 0.75198 0.13836 0.42601 0.0
H604 H 0.63279 0.09152 0.40429 0.0
H605 H 0.66711 0.09395 0.54812 0.0
H606 H 0.72249 0.15887 0.48631 0.0
O607 O 0.57853 0.14439 0.62072 0.0
H608 H 0.52905 0.09873 0.45586 0.0
H609 H 0.53759 0.16252 0.59571 0.0
H610 H 0.66119 0.06994 0.34356 0.0
H611 H 0.70935 0.18548 0.68961 0.0
H612 H 0.72125 0.09346 0.35412 0.0
H613 H 0.713 0.13598 0.71328 0.0
O614 O 0.63187 0.14617 0.41993 0.0
H615 H 0.64127 0.26168 0.60731 0.0
H616 H 0.56503 0.1865 0.45727 0.0
H617 H 0.58045 0.24473 0.45519 0.0
H618 H 0.6188 0.28275 0.53068 0.0
H619 H 0.62539 0.2033 0.60743 0.0
H620 H 0.47876 0.14436 0.58806 0.0
H621 H 0.44468 0.10294 0.51279 0.0
O622 O 0.58629 0.14704 0.44528 0.0
C623 C 0.58606 0.08326 0.52268 0.0
C624 C 0.48481 0.09821 0.47922 0.0
C625 C 0.48961 0.13425 0.55881 0.0
N626 N 0.53676 0.13183 0.52602 0.0
C627 C 0.51816 0.10892 0.48471 0.0
C628 C 0.52288 0.14438 0.56302 0.0
C629 C 0.4705 0.11102 0.51655 0.0
C630 C 0.68575 0.16659 0.60574 0.0
N631 N 0.67369 0.14098 0.56698 0.0
C632 C 0.70004 0.16521 0.65891 0.0
C633 C 0.70207 0.13743 0.67217 0.0
C634 C 0.69005 0.11156 0.63213 0.0
C635 C 0.67593 0.11384 0.5794 0.0
C636 C 0.72581 0.12793 0.42093 0.0
C637 C 0.65889 0.10172 0.40944 0.0
C638 C 0.70903 0.13959 0.45473 0.0
N639 N 0.67597 0.12645 0.44879 0.0
C640 C 0.67485 0.08947 0.3748 0.0
C641 C 0.70855 0.10271 0.38067 0.0
C642 C 0.60597 0.14704 0.40679 0.0
C643 C 0.62448 0.24534 0.57426 0.0
C644 C 0.58181 0.20291 0.49013 0.0
C645 C 0.59039 0.23584 0.48882 0.0
C646 C 0.6119 0.25715 0.53121 0.0
N647 N 0.59421 0.19149 0.53256 0.0
C648 C 0.61532 0.21224 0.57424 0.0
Co649 Co 0.52012 0.64586 0.65605 0.0
Co650 Co 0.44891 0.57489 0.69361 0.0
O651 O 0.47983 0.62189 0.70202 0.0
C652 C 0.48594 0.68403 0.63238 0.0
O653 O 0.45887 0.6561 0.62375 0.0
C654 C 0.46744 0.58216 0.81898 0.0
O655 O 0.49774 0.6012 0.80165 0.0
O656 O 0.48486 0.56413 0.69713 0.0
O657 O 0.5297 0.60901 0.66477 0.0
H658 H 0.40727 0.4625 0.60903 0.0
H659 H 0.50863 0.67765 0.75869 0.0
O660 O 0.51219 0.68402 0.64635 0.0
H661 H 0.61011 0.67629 0.80534 0.0
H662 H 0.62561 0.74561 0.5961 0.0
H663 H 0.5507 0.62823 0.55932 0.0
H664 H 0.58154 0.65416 0.71088 0.0
H665 H 0.57538 0.71482 0.65524 0.0
O666 O 0.44434 0.57007 0.78132 0.0
H667 H 0.44584 0.52167 0.61938 0.0
H668 H 0.3857 0.52849 0.75165 0.0
H669 H 0.60084 0.65791 0.49953 0.0
H670 H 0.5366 0.70039 0.8535 0.0
H671 H 0.63868 0.71707 0.5177 0.0
H672 H 0.58765 0.69967 0.87743 0.0
O673 O 0.49602 0.62654 0.58096 0.0
H674 H 0.38763 0.63065 0.76173 0.0
H675 H 0.39151 0.55578 0.61426 0.0
H676 H 0.34783 0.56994 0.60829 0.0
H677 H 0.34566 0.60759 0.68249 0.0
H678 H 0.43109 0.61607 0.76568 0.0
H679 H 0.34668 0.46933 0.74328 0.0
H680 H 0.3573 0.43595 0.67135 0.0
O681 O 0.45261 0.57836 0.60609 0.0
C682 C 0.51503 0.57935 0.68257 0.0
C683 C 0.40234 0.47679 0.64045 0.0
C684 C 0.36835 0.48062 0.71583 0.0
N685 N 0.41796 0.52851 0.68591 0.0
C686 C 0.42404 0.51031 0.64639 0.0
C687 C 0.39058 0.51408 0.72051 0.0
C688 C 0.37432 0.46191 0.67546 0.0
C689 C 0.53101 0.67755 0.76855 0.0
N690 N 0.54346 0.66463 0.72922 0.0
C691 C 0.54667 0.69033 0.8224 0.0
C692 C 0.57528 0.68987 0.83584 0.0
C693 C 0.58787 0.67673 0.79544 0.0
C694 C 0.57152 0.66411 0.74208 0.0
C695 C 0.6093 0.71985 0.58767 0.0
C696 C 0.56709 0.65395 0.56757 0.0
C697 C 0.58073 0.70235 0.62082 0.0
N698 N 0.56007 0.66981 0.61058 0.0
C699 C 0.59543 0.67063 0.53354 0.0
C700 C 0.61663 0.70383 0.54373 0.0
C701 C 0.47071 0.59937 0.5677 0.0
C702 C 0.38828 0.61417 0.72922 0.0
C703 C 0.39084 0.5723 0.64651 0.0
C704 C 0.36598 0.58015 0.64303 0.0
C705 C 0.36476 0.60126 0.68469 0.0
N706 N 0.4138 0.58505 0.69033 0.0
C707 C 0.41276 0.60574 0.73135 0.0
C708 C 0.56166 0.15155 0.26965 0.0
C709 C 0.57913 0.14781 0.22284 0.0
C710 C 0.5707 0.1515 0.32855 0.0
C711 C 0.59775 0.14786 0.34355 0.0
H712 H 0.54059 0.15435 0.26098 0.0
H713 H 0.55609 0.15422 0.36254 0.0
S714 S 0.65188 0.13703 0.23792 0.0
N715 N 0.62491 0.14004 0.19599 0.0
N716 N 0.64204 0.14048 0.30633 0.0
C717 C 0.61565 0.14432 0.29727 0.0
C718 C 0.60631 0.14414 0.23717 0.0
C719 C 0.42262 0.55381 0.43097 0.0
C720 C 0.44258 0.57271 0.38393 0.0
C721 C 0.4319 0.56276 0.48979 0.0
C722 C 0.46148 0.59121 0.50454 0.0
H723 H 0.39966 0.53161 0.42257 0.0
H724 H 0.41561 0.54696 0.52391 0.0
S725 S 0.52293 0.64944 0.39822 0.0
N726 N 0.4938 0.62134 0.35652 0.0
N727 N 0.51074 0.63839 0.46683 0.0
C728 C 0.48162 0.61057 0.45804 0.0
C729 C 0.47233 0.60128 0.39796 0.0
C730 C 0.87912 0.4226 0.65603 0.0
C731 C 0.88035 0.45223 0.67104 0.0
C732 C 0.87986 0.41395 0.59711 0.0
C733 C 0.88191 0.4345 0.55029 0.0
H734 H 0.87776 0.40582 0.69004 0.0
H735 H 0.87892 0.39091 0.58843 0.0
S736 S 0.88588 0.51505 0.56534 0.0
N737 N 0.88357 0.50214 0.63377 0.0
N738 N 0.88528 0.48619 0.52342 0.0
C739 C 0.88306 0.46422 0.56462 0.0
C740 C 0.88218 0.47298 0.62473 0.0
C741 C 0.47149 0.8725 0.7697 0.0
C742 C 0.45418 0.87613 0.72246 0.0
C743 C 0.46231 0.87278 0.8284 0.0
C744 C 0.43526 0.87655 0.84277 0.0
H745 H 0.49255 0.86961 0.76155 0.0
H746 H 0.47679 0.87011 0.86273 0.0
S747 S 0.38157 0.88726 0.73582 0.0
N748 N 0.40859 0.88401 0.69451 0.0
N749 N 0.3912 0.88401 0.80451 0.0
C750 C 0.41756 0.88004 0.79606 0.0
C751 C 0.42703 0.87997 0.73615 0.0
C752 C 0.55998 0.4164 0.96369 0.0
C753 C 0.57852 0.43668 0.01072 0.0
C754 C 0.56918 0.42547 0.90483 0.0
C755 C 0.59744 0.45524 0.8901 0.0
H756 H 0.53801 0.39326 0.97217 0.0
H757 H 0.55377 0.40886 0.87066 0.0
S758 S 0.65461 0.51762 -0.0036 0.0
N759 N 0.62662 0.4884 0.03806 0.0
N760 N 0.64391 0.5051 0.92782 0.0
C761 C 0.61632 0.47578 0.9366 0.0
C762 C 0.60688 0.46662 -0.00335 0.0
C763 C 0.15674 0.55514 0.12642 0.0
C764 C 0.15371 0.57291 0.17349 0.0
C765 C 0.15664 0.56429 0.06766 0.0
C766 C 0.15364 0.59175 0.05299 0.0
H767 H 0.15899 0.53374 0.13475 0.0
H768 H 0.15876 0.54939 0.03351 0.0
S769 S 0.14493 0.64684 0.15941 0.0
N770 N 0.14742 0.61948 0.20103 0.0
N771 N 0.1477 0.63678 0.09079 0.0
C772 C 0.15085 0.60996 0.09952 0.0
C773 C 0.15075 0.60053 0.15955 0.0
C774 C 0.52468 0.28024 0.11677 0.0
C775 C 0.55403 0.31044 0.1214 0.0
C776 C 0.52472 0.25066 0.10952 0.0
C777 C 0.55411 0.24972 0.10698 0.0
H778 H 0.50127 0.2793 0.11859 0.0
H779 H 0.50135 0.22829 0.10633 0.0
S780 S 0.6379 0.32186 0.11678 0.0
N781 N 0.61349 0.33743 0.12269 0.0
N782 N 0.61359 0.28201 0.10931 0.0
C783 C 0.58371 0.27973 0.11147 0.0
C784 C 0.58367 0.30996 0.11857 0.0
C785 C 0.28537 0.51693 0.27487 0.0
C786 C 0.3156 0.54626 0.27057 0.0
C787 C 0.25581 0.51701 0.28251 0.0
C788 C 0.25494 0.54642 0.28578 0.0
H789 H 0.28442 0.49354 0.27267 0.0
H790 H 0.2334 0.49367 0.28556 0.0
S791 S 0.32717 0.63015 0.27657 0.0
N792 N 0.34266 0.60572 0.26999 0.0
N793 N 0.28732 0.60587 0.2841 0.0
C794 C 0.28498 0.57599 0.28137 0.0
C795 C 0.31516 0.57591 0.27388 0.0
C796 C 0.7225 0.27509 0.4388 0.0
C797 C 0.72215 0.2468 0.46015 0.0
C798 C 0.75204 0.30471 0.4304 0.0
C799 C 0.78257 0.30734 0.44257 0.0
H800 H 0.69978 0.27437 0.42793 0.0
H801 H 0.75091 0.32556 0.41321 0.0
S802 S 0.79546 0.24162 0.5041 0.0
N803 N 0.75542 0.22433 0.49675 0.0
N804 N 0.81043 0.27952 0.48052 0.0
C805 C 0.78257 0.27951 0.46507 0.0
C806 C 0.75257 0.24944 0.47398 0.0
C807 C 0.45608 0.74535 0.60848 0.0
C808 C 0.4851 0.77599 0.60924 0.0
C809 C 0.45656 0.71592 0.61597 0.0
C810 C 0.48607 0.71573 0.62509 0.0
H811 H 0.43269 0.74397 0.60154 0.0
H812 H 0.4335 0.69313 0.6147 0.0
S813 S 0.56899 0.78939 0.63248 0.0
N814 N 0.54424 0.80411 0.62091 0.0
N815 N 0.54517 0.74932 0.63507 0.0
C816 C 0.51524 0.74625 0.62645 0.0
C817 C 0.51476 0.77615 0.61847 0.0
C818 C 0.75071 0.50558 0.77878 0.0
C819 C 0.72039 0.47627 0.77516 0.0
C820 C 0.78026 0.50546 0.78639 0.0
C821 C 0.78104 0.47603 0.79019 0.0
H822 H 0.75174 0.529 0.77599 0.0
H823 H 0.80275 0.52878 0.78882 0.0
S824 S 0.70856 0.39234 0.7834 0.0
N825 N 0.69315 0.41682 0.77623 0.0
N826 N 0.74847 0.41658 0.79016 0.0
C827 C 0.75091 0.44649 0.78664 0.0
C828 C 0.72073 0.44661 0.77928 0.0
C829 C 0.27957 0.71734 0.9504 0.0
C830 C 0.25023 0.71682 0.93563 0.0
C831 C 0.30907 0.74695 0.95911 0.0
C832 C 0.31059 0.77745 0.95393 0.0
H833 H 0.27986 0.69466 0.95553 0.0
H834 H 0.33077 0.74584 0.97083 0.0
S835 S 0.24137 0.79011 0.91301 0.0
N836 N 0.2252 0.75001 0.9141 0.0
N837 N 0.28023 0.80519 0.93055 0.0
C838 C 0.28157 0.77733 0.93844 0.0
C839 C 0.25159 0.74723 0.92925 0.0
C840 C 0.55821 0.13592 0.74062 0.0
C841 C 0.58486 0.13285 0.72063 0.0
C842 C 0.55173 0.13584 0.80105 0.0
C843 C 0.57201 0.13331 0.84368 0.0
H844 H 0.54201 0.13812 0.70936 0.0
H845 H 0.53099 0.13828 0.81444 0.0
S846 S 0.64466 0.12431 0.81468 0.0
N847 N 0.63138 0.12678 0.7485 0.0
N848 N 0.61941 0.12695 0.86186 0.0
C849 C 0.5987 0.13019 0.82434 0.0
C850 C 0.60505 0.12985 0.76288 0.0
C851 C 0.48104 0.59686 0.92504 0.0
C852 C 0.46002 0.57473 0.88236 0.0
C853 C 0.47441 0.59065 0.98538 0.0
C854 C 0.44682 0.56178 0.00539 0.0
H855 H 0.50258 0.61939 0.91179 0.0
H856 H 0.49129 0.60852 0.01659 0.0
S857 S 0.38451 0.49553 0.91143 0.0
N858 N 0.41065 0.52258 0.86414 0.0
N859 N 0.39844 0.51076 0.97766 0.0
C860 C 0.42577 0.53927 0.9632 0.0
C861 C 0.43228 0.54581 0.90166 0.0
C862 C 0.89276 0.42432 0.06841 0.0
C863 C 0.89608 0.45412 0.04837 0.0
C864 C 0.89322 0.41806 0.12886 0.0
C865 C 0.8964 0.44113 0.17145 0.0
H866 H 0.89003 0.40572 0.03717 0.0
H867 H 0.89048 0.39478 0.14231 0.0
S868 S 0.90643 0.52313 0.1423 0.0
N869 N 0.90318 0.50709 0.07618 0.0
N870 N 0.90377 0.49525 0.1895 0.0
C871 C 0.89986 0.47105 0.15204 0.0
C872 C 0.89979 0.47757 0.09058 0.0
C873 C 0.48087 0.88741 0.29982 0.0
C874 C 0.46056 0.88942 0.34297 0.0
C875 C 0.47406 0.8874 0.23953 0.0
C876 C 0.44704 0.89001 0.22021 0.0
H877 H 0.50192 0.88536 0.31268 0.0
H878 H 0.49032 0.88561 0.20787 0.0
S879 S 0.38699 0.89713 0.31576 0.0
N880 N 0.41271 0.89484 0.36231 0.0
N881 N 0.40012 0.8951 0.24923 0.0
C882 C 0.4268 0.89248 0.26296 0.0
C883 C 0.43349 0.89208 0.32428 0.0
C884 C 0.55851 0.42743 0.49294 0.0
C885 C 0.58527 0.45711 0.51259 0.0
C886 C 0.55166 0.42094 0.43259 0.0
C887 C 0.57165 0.44365 0.38968 0.0
H888 H 0.54253 0.40909 0.5244 0.0
H889 H 0.5309 0.39776 0.41948 0.0
S890 S 0.64434 0.52526 0.41772 0.0
N891 N 0.63153 0.5096 0.48406 0.0
N892 N 0.61881 0.49736 0.37091 0.0
C893 C 0.59839 0.47346 0.40869 0.0
C894 C 0.60515 0.48022 0.47006 0.0
C895 C 0.14116 0.59136 0.57224 0.0
C896 C 0.14026 0.56262 0.55238 0.0
C897 C 0.14071 0.59763 0.63256 0.0
C898 C 0.13998 0.57571 0.67534 0.0
H899 H 0.14182 0.60906 0.54094 0.0
H900 H 0.14137 0.62004 0.64574 0.0
S901 S 0.1374 0.49693 0.64668 0.0
N902 N 0.1384 0.51195 0.58037 0.0
N903 N 0.138 0.52392 0.69383 0.0
C904 C 0.13921 0.54694 0.65618 0.0
C905 C 0.1392 0.54032 0.59468 0.0
C906 C 0.51487 0.02938 0.0174 0.0
C907 C 0.50089 0.04688 0.04306 0.0
C908 C 0.49705 0.9951 0.01153 0.0
C909 C 0.4643 0.97674 0.03027 0.0
H910 H 0.53984 0.04221 0.00143 0.0
H911 H 0.50892 0.98293 -0.00871 0.0
S912 S 0.41678 1.00958 0.10516 0.0
N913 N 0.45243 0.04222 0.0908 0.0
N914 N 0.41938 0.97829 0.07922 0.0
C915 C 0.45019 0.99368 0.05688 0.0
C916 C 0.46833 0.02853 0.06343 0.0
C917 C 0.51585 0.49263 0.17795 0.0
C918 C 0.50162 0.45959 0.19481 0.0
C919 C 0.49865 0.5098 0.18307 0.0
C920 C 0.46654 0.49486 0.20612 0.0
H921 H 0.54036 0.50524 0.15979 0.0
H922 H 0.51075 0.53505 0.16866 0.0
S923 S 0.41967 0.40951 0.26258 0.0
N924 N 0.4545 0.41327 0.23912 0.0
N925 N 0.42226 0.44513 0.24945 0.0
C926 C 0.45245 0.46197 0.22463 0.0
C927 C 0.46991 0.44449 0.21876 0.0
C928 C 0.03548 0.50907 0.3775 0.0
C929 C 0.05272 0.49459 0.35269 0.0
C930 C 1.00117 0.49164 0.38321 0.0
C931 C 0.98254 0.4588 0.36521 0.0
H932 H 0.04852 0.53416 0.39286 0.0
H933 H 0.98919 0.50387 0.40274 0.0
S934 S 1.0146 0.40999 0.29265 0.0
N935 N 0.04749 0.44555 0.30648 0.0
N936 N 0.9835 0.41321 0.31785 0.0
C937 C 0.9992 0.44417 0.33947 0.0
C938 C 0.03407 0.46192 0.33303 0.0
C939 C 0.5178 0.99412 0.51431 0.0
C940 C 0.53137 0.97697 0.54283 0.0
C941 C 0.53549 0.02841 0.50829 0.0
C942 C 0.56767 0.04704 0.52976 0.0
H943 H 0.4933 0.98101 0.49616 0.0
H944 H 0.52402 0.04037 0.48585 0.0
S945 S 0.6137 0.01522 0.61298 0.0
N946 N 0.57867 0.98232 0.59636 0.0
N947 N 0.61144 0.04622 0.5845 0.0
C948 C 0.58131 0.03047 0.5593 0.0
C949 C 0.56331 0.99565 0.56599 0.0
C950 C 0.53677 0.51293 0.7176 0.0
C951 C 0.57015 0.52764 0.7027 0.0
C952 C 0.51925 0.5297 0.71087 0.0
C953 C 0.53419 0.56186 0.68816 0.0
H954 H 0.52409 0.48833 0.73535 0.0
H955 H 0.49374 0.51724 0.72381 0.0
S956 S 0.62048 0.61011 0.63689 0.0
N957 N 0.61686 0.57543 0.66083 0.0
N958 N 0.58436 0.60682 0.64751 0.0
C959 C 0.56745 0.57649 0.67177 0.0
C960 C 0.58528 0.55947 0.67923 0.0
C961 C 0.03346 0.57411 0.86664 0.0
C962 C 0.05193 0.55807 0.86751 0.0
C963 C 0.99925 0.55676 0.85968 0.0
C964 C 0.98166 0.5224 0.8544 0.0
H965 H 0.04546 0.60044 0.87095 0.0
H966 H 0.98652 0.57052 0.85915 0.0
S967 S 0.01801 0.46825 0.85432 0.0
N968 N 0.04965 0.50543 0.86198 0.0
N969 N 0.98567 0.47297 0.85054 0.0
C970 C 0.99977 0.50597 0.85559 0.0
C971 C 0.03469 0.5237 0.86171 0.0
loop_
_geom_bond_atom_site_label_1
_geom_bond_atom_site_label_2
_geom_bond_distance
_geom_bond_site_symmetry_2
_ccdc_geom_bond_type
Co0 O2 2.143 . S
Co0 O8 2.074 . S
Co0 O11 2.093 . S
Co0 O24 2.097 . S
Co0 N41 2.151 . S
Co0 N49 2.214 . S
Co1 O2 2.160 . S
Co1 O7 2.058 . S
Co1 O17 2.057 1_554 S
Co1 O32 2.037 . S
Co1 N36 2.145 . S
Co1 N57 2.257 . S
O2 Co0 2.143 . S
O2 Co1 2.160 . S
C3 O4 1.278 . S
C3 O11 1.224 . S
O4 C3 1.278 . S
C5 O6 1.245 . S
C5 O17 1.232 . S
O6 C5 1.245 . S
O7 Co1 2.058 . S
O7 C33 1.269 . S
O8 Co0 2.074 . S
O8 C33 1.257 . S
H9 C34 0.930 . S
H10 C40 0.930 . S
O11 Co0 2.093 . S
O11 C3 1.224 . S
H12 C44 0.929 . S
H13 C46 0.930 . S
H14 C47 0.930 . S
H15 C45 0.929 . S
H16 C48 0.928 . S
O17 Co1 2.057 1_556 S
O17 C5 1.232 . S
H18 C37 0.929 . S
H19 C38 0.929 . S
H20 C50 0.931 . S
H21 C42 0.929 . S
H22 C51 0.930 . S
H23 C43 0.931 . S
O24 Co0 2.097 . S
O24 C52 1.214 . S
H25 C53 0.929 1_556 S
H26 C54 0.929 . S
H27 C55 0.930 . S
H28 C56 0.929 . S
H29 C58 0.930 1_556 S
H30 C35 0.930 . S
H31 C39 0.930 . S
O32 Co1 2.037 . S
O32 C52 1.234 . S
C33 O7 1.269 . S
C33 O8 1.257 . S
C34 H9 0.930 . S
C34 C37 1.388 . S
C34 C39 1.418 . S
C35 H30 0.930 . S
C35 C38 1.404 . S
C35 C39 1.353 1_556 S
N36 Co1 2.145 . S
N36 C37 1.397 . S
N36 C38 1.334 1_554 S
C37 H18 0.929 . S
C37 C34 1.388 . S
C37 N36 1.397 . S
C38 H19 0.929 . S
C38 C35 1.404 . S
C38 N36 1.334 1_556 S
C39 H31 0.930 . S
C39 C34 1.418 . S
C39 C35 1.353 1_554 S
C40 H10 0.930 . S
C40 N41 1.330 . S
C40 C42 1.446 1_554 S
N41 Co0 2.151 . S
N41 C40 1.330 . S
N41 C45 1.418 . S
C42 H21 0.929 . S
C42 C40 1.446 1_556 S
C42 C43 1.332 . S
C43 H23 0.931 . S
C43 C42 1.332 . S
C43 C44 1.267 1_556 S
C44 H12 0.929 . S
C44 C43 1.267 1_554 S
C44 C45 1.251 . S
C45 H15 0.929 . S
C45 N41 1.418 . S
C45 C44 1.251 . S
C46 H13 0.930 . S
C46 C48 1.406 . S
C46 C51 1.261 . S
C47 H14 0.930 . S
C47 N49 1.325 . S
C47 C50 1.357 . S
C48 H16 0.928 . S
C48 C46 1.406 . S
C48 N49 1.261 . S
N49 Co0 2.214 . S
N49 C47 1.325 . S
N49 C48 1.261 . S
C50 H20 0.931 . S
C50 C47 1.357 . S
C50 C51 1.312 . S
C51 H22 0.930 . S
C51 C46 1.261 . S
C51 C50 1.312 . S
C52 O24 1.214 . S
C52 O32 1.234 . S
C53 H25 0.929 1_554 S
C53 C56 1.391 . S
C53 C58 1.391 . S
C54 H26 0.929 . S
C54 C55 1.390 . S
C54 N57 1.391 . S
C55 H27 0.930 . S
C55 C54 1.390 . S
C55 C56 1.392 . S
C56 H28 0.929 . S
C56 C53 1.391 . S
C56 C55 1.392 . S
N57 Co1 2.257 . S
N57 C54 1.391 . S
N57 C58 1.388 . S
C58 H29 0.930 1_554 S
C58 C53 1.391 . S
C58 N57 1.388 . S
Co59 O61 2.143 . S
Co59 O67 2.074 . S
Co59 O70 2.093 . S
Co59 O83 2.097 . S
Co59 N100 2.151 . S
Co59 N108 2.214 . S
Co60 O61 2.160 . S
Co60 O66 2.058 . S
Co60 O76 2.057 . S
Co60 O91 2.037 . S
Co60 N95 2.145 . S
Co60 N116 2.257 . S
O61 Co59 2.143 . S
O61 Co60 2.160 . S
C62 O63 1.278 . S
C62 O70 1.224 . S
O63 C62 1.278 . S
C64 O65 1.245 . S
C64 O76 1.232 . S
O65 C64 1.245 . S
O66 Co60 2.058 . S
O66 C92 1.269 . S
O67 Co59 2.074 . S
O67 C92 1.257 . S
H68 C93 0.930 . S
H69 C99 0.930 . S
O70 Co59 2.093 . S
O70 C62 1.224 . S
H71 C103 0.929 . S
H72 C105 0.930 . S
H73 C106 0.930 . S
H74 C104 0.929 . S
H75 C107 0.928 . S
O76 Co60 2.057 . S
O76 C64 1.232 . S
H77 C96 0.929 . S
H78 C97 0.929 . S
H79 C109 0.931 . S
H80 C101 0.929 . S
H81 C110 0.930 . S
H82 C102 0.931 . S
O83 Co59 2.097 . S
O83 C111 1.214 . S
H84 C112 0.929 . S
H85 C113 0.929 . S
H86 C114 0.930 . S
H87 C115 0.929 . S
H88 C117 0.930 . S
H89 C94 0.930 . S
H90 C98 0.930 . S
O91 Co60 2.037 . S
O91 C111 1.234 . S
C92 O66 1.269 . S
C92 O67 1.257 . S
C93 H68 0.930 . S
C93 C96 1.388 . S
C93 C98 1.418 . S
C94 H89 0.930 . S
C94 C97 1.404 . S
C94 C98 1.353 . S
N95 Co60 2.145 . S
N95 C96 1.397 . S
N95 C97 1.334 . S
C96 H77 0.929 . S
C96 C93 1.388 . S
C96 N95 1.397 . S
C97 H78 0.929 . S
C97 C94 1.404 . S
C97 N95 1.334 . S
C98 H90 0.930 . S
C98 C93 1.418 . S
C98 C94 1.353 . S
C99 H69 0.930 . S
C99 N100 1.330 . S
C99 C101 1.446 . S
N100 Co59 2.151 . S
N100 C99 1.330 . S
N100 C104 1.418 . S
C101 H80 0.929 . S
C101 C99 1.446 . S
C101 C102 1.332 . S
C102 H82 0.931 . S
C102 C101 1.332 . S
C102 C103 1.267 . S
C103 H71 0.929 . S
C103 C102 1.267 . S
C103 C104 1.251 . S
C104 H74 0.929 . S
C104 N100 1.418 . S
C104 C103 1.251 . S
C105 H72 0.930 . S
C105 C107 1.406 . S
C105 C110 1.261 . S
C106 H73 0.930 . S
C106 N108 1.325 . S
C106 C109 1.357 . S
C107 H75 0.928 . S
C107 C105 1.406 . S
C107 N108 1.261 . S
N108 Co59 2.214 . S
N108 C106 1.325 . S
N108 C107 1.261 . S
C109 H79 0.931 . S
C109 C106 1.357 . S
C109 C110 1.312 . S
C110 H81 0.930 . S
C110 C105 1.261 . S
C110 C109 1.312 . S
C111 O83 1.214 . S
C111 O91 1.234 . S
C112 H84 0.929 . S
C112 C115 1.391 . S
C112 C117 1.391 . S
C113 H85 0.929 . S
C113 C114 1.390 . S
C113 N116 1.391 . S
C114 H86 0.930 . S
C114 C113 1.390 . S
C114 C115 1.392 . S
C115 H87 0.929 . S
C115 C112 1.391 . S
C115 C114 1.392 . S
N116 Co60 2.257 . S
N116 C113 1.391 . S
N116 C117 1.388 . S
C117 H88 0.930 . S
C117 C112 1.391 . S
C117 N116 1.388 . S
Co118 O120 2.143 . S
Co118 O126 2.074 . S
Co118 O129 2.093 . S
Co118 O142 2.097 . S
Co118 N159 2.151 . S
Co118 N167 2.214 . S
Co119 O120 2.160 . S
Co119 O125 2.058 . S
Co119 O135 2.057 . S
Co119 O150 2.037 . S
Co119 N154 2.145 . S
Co119 N175 2.257 . S
O120 Co118 2.143 . S
O120 Co119 2.160 . S
C121 O122 1.278 . S
C121 O129 1.224 . S
O122 C121 1.278 . S
C123 O124 1.245 . S
C123 O135 1.232 . S
O124 C123 1.245 . S
O125 Co119 2.058 . S
O125 C151 1.269 . S
O126 Co118 2.074 . S
O126 C151 1.257 . S
H127 C152 0.930 . S
H128 C158 0.930 . S
O129 Co118 2.093 . S
O129 C121 1.224 . S
H130 C162 0.929 . S
H131 C164 0.930 . S
H132 C165 0.930 . S
H133 C163 0.929 . S
H134 C166 0.928 . S
O135 Co119 2.057 . S
O135 C123 1.232 . S
H136 C155 0.929 . S
H137 C156 0.929 . S
H138 C168 0.931 . S
H139 C160 0.929 . S
H140 C169 0.930 . S
H141 C161 0.931 . S
O142 Co118 2.097 . S
O142 C170 1.214 . S
H143 C171 0.929 . S
H144 C172 0.929 . S
H145 C173 0.930 . S
H146 C174 0.929 . S
H147 C176 0.930 . S
H148 C153 0.930 . S
H149 C157 0.930 . S
O150 Co119 2.037 . S
O150 C170 1.234 . S
C151 O125 1.269 . S
C151 O126 1.257 . S
C152 H127 0.930 . S
C152 C155 1.388 . S
C152 C157 1.418 . S
C153 H148 0.930 . S
C153 C156 1.404 . S
C153 C157 1.353 . S
N154 Co119 2.145 . S
N154 C155 1.397 . S
N154 C156 1.334 . S
C155 H136 0.929 . S
C155 C152 1.388 . S
C155 N154 1.397 . S
C156 H137 0.929 . S
C156 C153 1.404 . S
C156 N154 1.334 . S
C157 H149 0.930 . S
C157 C152 1.418 . S
C157 C153 1.353 . S
C158 H128 0.930 . S
C158 N159 1.330 . S
C158 C160 1.446 . S
N159 Co118 2.151 . S
N159 C158 1.330 . S
N159 C163 1.418 . S
C160 H139 0.929 . S
C160 C158 1.446 . S
C160 C161 1.332 . S
C161 H141 0.931 . S
C161 C160 1.332 . S
C161 C162 1.267 . S
C162 H130 0.929 . S
C162 C161 1.267 . S
C162 C163 1.251 . S
C163 H133 0.929 . S
C163 N159 1.418 . S
C163 C162 1.251 . S
C164 H131 0.930 . S
C164 C166 1.406 . S
C164 C169 1.261 . S
C165 H132 0.930 . S
C165 N167 1.325 . S
C165 C168 1.357 . S
C166 H134 0.928 . S
C166 C164 1.406 . S
C166 N167 1.261 . S
N167 Co118 2.214 . S
N167 C165 1.325 . S
N167 C166 1.261 . S
C168 H138 0.931 . S
C168 C165 1.357 . S
C168 C169 1.312 . S
C169 H140 0.930 . S
C169 C164 1.261 . S
C169 C168 1.312 . S
C170 O142 1.214 . S
C170 O150 1.234 . S
C171 H143 0.929 . S
C171 C174 1.391 . S
C171 C176 1.391 . S
C172 H144 0.929 . S
C172 C173 1.390 . S
C172 N175 1.391 . S
C173 H145 0.930 . S
C173 C172 1.390 . S
C173 C174 1.392 . S
C174 H146 0.929 . S
C174 C171 1.391 . S
C174 C173 1.392 . S
N175 Co119 2.257 . S
N175 C172 1.391 . S
N175 C176 1.388 . S
C176 H147 0.930 . S
C176 C171 1.391 . S
C176 N175 1.388 . S
Co177 O179 2.143 . S
Co177 O185 2.074 . S
Co177 O188 2.093 . S
Co177 O201 2.097 . S
Co177 N218 2.151 . S
Co177 N226 2.214 . S
Co178 O179 2.160 . S
Co178 O184 2.058 . S
Co178 O194 2.057 . S
Co178 O209 2.037 . S
Co178 N213 2.145 . S
Co178 N234 2.257 . S
O179 Co177 2.143 . S
O179 Co178 2.160 . S
C180 O181 1.278 . S
C180 O188 1.224 . S
O181 C180 1.278 . S
C182 O183 1.245 . S
C182 O194 1.232 . S
O183 C182 1.245 . S
O184 Co178 2.058 . S
O184 C210 1.269 . S
O185 Co177 2.074 . S
O185 C210 1.257 . S
H186 C211 0.930 . S
H187 C217 0.930 . S
O188 Co177 2.093 . S
O188 C180 1.224 . S
H189 C221 0.929 . S
H190 C223 0.930 . S
H191 C224 0.930 . S
H192 C222 0.929 . S
H193 C225 0.928 . S
O194 Co178 2.057 . S
O194 C182 1.232 . S
H195 C214 0.929 . S
H196 C215 0.929 . S
H197 C227 0.931 . S
H198 C219 0.929 . S
H199 C228 0.930 . S
H200 C220 0.931 . S
O201 Co177 2.097 . S
O201 C229 1.214 . S
H202 C230 0.929 . S
H203 C231 0.929 . S
H204 C232 0.930 . S
H205 C233 0.929 . S
H206 C235 0.930 . S
H207 C212 0.930 . S
H208 C216 0.930 . S
O209 Co178 2.037 . S
O209 C229 1.234 . S
C210 O184 1.269 . S
C210 O185 1.257 . S
C211 H186 0.930 . S
C211 C214 1.388 . S
C211 C216 1.418 . S
C212 H207 0.930 . S
C212 C215 1.404 . S
C212 C216 1.353 . S
N213 Co178 2.145 . S
N213 C214 1.397 . S
N213 C215 1.334 . S
C214 H195 0.929 . S
C214 C211 1.388 . S
C214 N213 1.397 . S
C215 H196 0.929 . S
C215 C212 1.404 . S
C215 N213 1.334 . S
C216 H208 0.930 . S
C216 C211 1.418 . S
C216 C212 1.353 . S
C217 H187 0.930 . S
C217 N218 1.330 . S
C217 C219 1.446 . S
N218 Co177 2.151 . S
N218 C217 1.330 . S
N218 C222 1.418 . S
C219 H198 0.929 . S
C219 C217 1.446 . S
C219 C220 1.332 . S
C220 H200 0.931 . S
C220 C219 1.332 . S
C220 C221 1.267 . S
C221 H189 0.929 . S
C221 C220 1.267 . S
C221 C222 1.251 . S
C222 H192 0.929 . S
C222 N218 1.418 . S
C222 C221 1.251 . S
C223 H190 0.930 . S
C223 C225 1.406 . S
C223 C228 1.261 . S
C224 H191 0.930 . S
C224 N226 1.325 . S
C224 C227 1.357 . S
C225 H193 0.928 . S
C225 C223 1.406 . S
C225 N226 1.261 . S
N226 Co177 2.214 . S
N226 C224 1.325 . S
N226 C225 1.261 . S
C227 H197 0.931 . S
C227 C224 1.357 . S
C227 C228 1.312 . S
C228 H199 0.930 . S
C228 C223 1.261 . S
C228 C227 1.312 . S
C229 O201 1.214 . S
C229 O209 1.234 . S
C230 H202 0.929 . S
C230 C233 1.391 . S
C230 C235 1.391 . S
C231 H203 0.929 . S
C231 C232 1.390 . S
C231 N234 1.391 . S
C232 H204 0.930 . S
C232 C231 1.390 . S
C232 C233 1.392 . S
C233 H205 0.929 . S
C233 C230 1.391 . S
C233 C232 1.392 . S
N234 Co178 2.257 . S
N234 C231 1.391 . S
N234 C235 1.388 . S
C235 H206 0.930 . S
C235 C230 1.391 . S
C235 N234 1.388 . S
Co236 O238 2.143 . S
Co236 O244 2.074 . S
Co236 O247 2.093 . S
Co236 O260 2.097 . S
Co236 N277 2.151 . S
Co236 N285 2.214 . S
Co237 O238 2.160 . S
Co237 O243 2.058 . S
Co237 O253 2.057 . S
Co237 O268 2.037 . S
Co237 N272 2.145 . S
Co237 N293 2.257 . S
O238 Co236 2.143 . S
O238 Co237 2.160 . S
C239 O240 1.278 . S
C239 O247 1.224 . S
O240 C239 1.278 . S
C241 O242 1.245 . S
C241 O253 1.232 . S
O242 C241 1.245 . S
O243 Co237 2.058 . S
O243 C269 1.269 . S
O244 Co236 2.074 . S
O244 C269 1.257 . S
H245 C270 0.930 . S
H246 C276 0.930 . S
O247 Co236 2.093 . S
O247 C239 1.224 . S
H248 C280 0.929 . S
H249 C282 0.930 . S
H250 C283 0.930 . S
H251 C281 0.929 . S
H252 C284 0.928 . S
O253 Co237 2.057 . S
O253 C241 1.232 . S
H254 C273 0.929 . S
H255 C274 0.929 . S
H256 C286 0.931 . S
H257 C278 0.929 . S
H258 C287 0.930 . S
H259 C279 0.931 . S
O260 Co236 2.097 . S
O260 C288 1.214 . S
H261 C289 0.929 . S
H262 C290 0.929 . S
H263 C291 0.930 . S
H264 C292 0.929 . S
H265 C294 0.930 . S
H266 C271 0.930 . S
H267 C275 0.930 . S
O268 Co237 2.037 . S
O268 C288 1.234 . S
C269 O243 1.269 . S
C269 O244 1.257 . S
C270 H245 0.930 . S
C270 C273 1.388 . S
C270 C275 1.418 . S
C271 H266 0.930 . S
C271 C274 1.404 . S
C271 C275 1.353 . S
N272 Co237 2.145 . S
N272 C273 1.397 . S
N272 C274 1.334 . S
C273 H254 0.929 . S
C273 C270 1.388 . S
C273 N272 1.397 . S
C274 H255 0.929 . S
C274 C271 1.404 . S
C274 N272 1.334 . S
C275 H267 0.930 . S
C275 C270 1.418 . S
C275 C271 1.353 . S
C276 H246 0.930 . S
C276 N277 1.330 . S
C276 C278 1.446 . S
N277 Co236 2.151 . S
N277 C276 1.330 . S
N277 C281 1.418 . S
C278 H257 0.929 . S
C278 C276 1.446 . S
C278 C279 1.332 . S
C279 H259 0.931 . S
C279 C278 1.332 . S
C279 C280 1.267 . S
C280 H248 0.929 . S
C280 C279 1.267 . S
C280 C281 1.251 . S
C281 H251 0.929 . S
C281 N277 1.418 . S
C281 C280 1.251 . S
C282 H249 0.930 . S
C282 C284 1.406 . S
C282 C287 1.261 . S
C283 H250 0.930 . S
C283 N285 1.325 . S
C283 C286 1.357 . S
C284 H252 0.928 . S
C284 C282 1.406 . S
C284 N285 1.261 . S
N285 Co236 2.214 . S
N285 C283 1.325 . S
N285 C284 1.261 . S
C286 H256 0.931 . S
C286 C283 1.357 . S
C286 C287 1.312 . S
C287 H258 0.930 . S
C287 C282 1.261 . S
C287 C286 1.312 . S
C288 O260 1.214 . S
C288 O268 1.234 . S
C289 H261 0.929 . S
C289 C292 1.391 . S
C289 C294 1.391 . S
C290 H262 0.929 . S
C290 C291 1.390 . S
C290 N293 1.391 . S
C291 H263 0.930 . S
C291 C290 1.390 . S
C291 C292 1.392 . S
C292 H264 0.929 . S
C292 C289 1.391 . S
C292 C291 1.392 . S
N293 Co237 2.257 . S
N293 C290 1.391 . S
N293 C294 1.388 . S
C294 H265 0.930 . S
C294 C289 1.391 . S
C294 N293 1.388 . S
Co295 O297 2.143 . S
Co295 O303 2.074 . S
Co295 O306 2.093 . S
Co295 O319 2.097 1_556 S
Co295 N336 2.151 . S
Co295 N344 2.214 1_556 S
Co296 O297 2.160 . S
Co296 O302 2.058 . S
Co296 O312 2.057 . S
Co296 O327 2.037 . S
Co296 N331 2.145 . S
Co296 N352 2.257 . S
O297 Co295 2.143 . S
O297 Co296 2.160 . S
C298 O299 1.278 . S
C298 O306 1.224 . S
O299 C298 1.278 . S
C300 O301 1.245 . S
C300 O312 1.232 . S
O301 C300 1.245 . S
O302 Co296 2.058 . S
O302 C328 1.269 . S
O303 Co295 2.074 . S
O303 C328 1.257 . S
H304 C329 0.930 . S
H305 C335 0.930 . S
O306 Co295 2.093 . S
O306 C298 1.224 . S
H307 C339 0.929 . S
H308 C341 0.930 . S
H309 C342 0.930 . S
H310 C340 0.929 . S
H311 C343 0.928 1_556 S
O312 Co296 2.057 . S
O312 C300 1.232 . S
H313 C332 0.929 . S
H314 C333 0.929 . S
H315 C345 0.931 . S
H316 C337 0.929 . S
H317 C346 0.930 . S
H318 C338 0.931 . S
O319 Co295 2.097 1_554 S
O319 C347 1.214 . S
H320 C348 0.929 . S
H321 C349 0.929 . S
H322 C350 0.930 . S
H323 C351 0.929 . S
H324 C353 0.930 . S
H325 C330 0.930 . S
H326 C334 0.930 . S
O327 Co296 2.037 . S
O327 C347 1.234 1_556 S
C328 O302 1.269 . S
C328 O303 1.257 . S
C329 H304 0.930 . S
C329 C332 1.388 . S
C329 C334 1.418 . S
C330 H325 0.930 . S
C330 C333 1.404 . S
C330 C334 1.353 . S
N331 Co296 2.145 . S
N331 C332 1.397 . S
N331 C333 1.334 . S
C332 H313 0.929 . S
C332 C329 1.388 . S
C332 N331 1.397 . S
C333 H314 0.929 . S
C333 C330 1.404 . S
C333 N331 1.334 . S
C334 H326 0.930 . S
C334 C329 1.418 . S
C334 C330 1.353 . S
C335 H305 0.930 . S
C335 N336 1.330 . S
C335 C337 1.446 . S
N336 Co295 2.151 . S
N336 C335 1.330 . S
N336 C340 1.418 . S
C337 H316 0.929 . S
C337 C335 1.446 . S
C337 C338 1.332 . S
C338 H318 0.931 . S
C338 C337 1.332 . S
C338 C339 1.267 . S
C339 H307 0.929 . S
C339 C338 1.267 . S
C339 C340 1.251 . S
C340 H310 0.929 . S
C340 N336 1.418 . S
C340 C339 1.251 . S
C341 H308 0.930 . S
C341 C343 1.406 . S
C341 C346 1.261 . S
C342 H309 0.930 . S
C342 N344 1.325 . S
C342 C345 1.357 . S
C343 H311 0.928 1_554 S
C343 C341 1.406 . S
C343 N344 1.261 . S
N344 Co295 2.214 1_554 S
N344 C342 1.325 . S
N344 C343 1.261 . S
C345 H315 0.931 . S
C345 C342 1.357 . S
C345 C346 1.312 . S
C346 H317 0.930 . S
C346 C341 1.261 . S
C346 C345 1.312 . S
C347 O319 1.214 . S
C347 O327 1.234 1_554 S
C348 H320 0.929 . S
C348 C351 1.391 . S
C348 C353 1.391 . S
C349 H321 0.929 . S
C349 C350 1.390 . S
C349 N352 1.391 . S
C350 H322 0.930 . S
C350 C349 1.390 . S
C350 C351 1.392 . S
C351 H323 0.929 . S
C351 C348 1.391 . S
C351 C350 1.392 . S
N352 Co296 2.257 . S
N352 C349 1.391 . S
N352 C353 1.388 . S
C353 H324 0.930 . S
C353 C348 1.391 . S
C353 N352 1.388 . S
Co354 O356 2.143 . S
Co354 O362 2.074 . S
Co354 O365 2.093 . S
Co354 O378 2.097 . S
Co354 N395 2.151 . S
Co354 N403 2.214 . S
Co355 O356 2.160 . S
Co355 O361 2.058 . S
Co355 O371 2.057 . S
Co355 O386 2.037 . S
Co355 N390 2.145 . S
Co355 N411 2.257 . S
O356 Co354 2.143 . S
O356 Co355 2.160 . S
C357 O358 1.278 . S
C357 O365 1.224 . S
O358 C357 1.278 . S
C359 O360 1.245 1_554 S
C359 O371 1.232 1_554 S
O360 C359 1.245 1_556 S
O361 Co355 2.058 . S
O361 C387 1.269 . S
O362 Co354 2.074 . S
O362 C387 1.257 . S
H363 C388 0.930 . S
H364 C394 0.930 . S
O365 Co354 2.093 . S
O365 C357 1.224 . S
H366 C398 0.929 . S
H367 C400 0.930 . S
H368 C401 0.930 . S
H369 C399 0.929 . S
H370 C402 0.928 . S
O371 Co355 2.057 . S
O371 C359 1.232 1_556 S
H372 C391 0.929 . S
H373 C392 0.929 . S
H374 C404 0.931 . S
H375 C396 0.929 . S
H376 C405 0.930 . S
H377 C397 0.931 . S
O378 Co354 2.097 . S
O378 C406 1.214 . S
H379 C407 0.929 . S
H380 C408 0.929 . S
H381 C409 0.930 . S
H382 C410 0.929 . S
H383 C412 0.930 . S
H384 C389 0.930 . S
H385 C393 0.930 . S
O386 Co355 2.037 . S
O386 C406 1.234 . S
C387 O361 1.269 . S
C387 O362 1.257 . S
C388 H363 0.930 . S
C388 C391 1.388 . S
C388 C393 1.418 . S
C389 H384 0.930 . S
C389 C392 1.404 . S
C389 C393 1.353 . S
N390 Co355 2.145 . S
N390 C391 1.397 . S
N390 C392 1.334 . S
C391 H372 0.929 . S
C391 C388 1.388 . S
C391 N390 1.397 . S
C392 H373 0.929 . S
C392 C389 1.404 . S
C392 N390 1.334 . S
C393 H385 0.930 . S
C393 C388 1.418 . S
C393 C389 1.353 . S
C394 H364 0.930 . S
C394 N395 1.330 . S
C394 C396 1.446 . S
N395 Co354 2.151 . S
N395 C394 1.330 . S
N395 C399 1.418 . S
C396 H375 0.929 . S
C396 C394 1.446 . S
C396 C397 1.332 . S
C397 H377 0.931 . S
C397 C396 1.332 . S
C397 C398 1.267 . S
C398 H366 0.929 . S
C398 C397 1.267 . S
C398 C399 1.251 . S
C399 H369 0.929 . S
C399 N395 1.418 . S
C399 C398 1.251 . S
C400 H367 0.930 . S
C400 C402 1.406 . S
C400 C405 1.261 . S
C401 H368 0.930 . S
C401 N403 1.325 . S
C401 C404 1.357 . S
C402 H370 0.928 . S
C402 C400 1.406 . S
C402 N403 1.261 . S
N403 Co354 2.214 . S
N403 C401 1.325 . S
N403 C402 1.261 . S
C404 H374 0.931 . S
C404 C401 1.357 . S
C404 C405 1.312 . S
C405 H376 0.930 . S
C405 C400 1.261 . S
C405 C404 1.312 . S
C406 O378 1.214 . S
C406 O386 1.234 . S
C407 H379 0.929 . S
C407 C410 1.391 . S
C407 C412 1.391 . S
C408 H380 0.929 . S
C408 C409 1.390 . S
C408 N411 1.391 . S
C409 H381 0.930 . S
C409 C408 1.390 . S
C409 C410 1.392 . S
C410 H382 0.929 . S
C410 C407 1.391 . S
C410 C409 1.392 . S
N411 Co355 2.257 . S
N411 C408 1.391 . S
N411 C412 1.388 . S
C412 H383 0.930 . S
C412 C407 1.391 . S
C412 N411 1.388 . S
Co413 O415 2.143 1_556 S
Co413 O421 2.074 . S
Co413 O424 2.093 . S
Co413 O437 2.097 . S
Co413 N454 2.151 1_556 S
Co413 N462 2.214 . S
Co414 O415 2.160 . S
Co414 O420 2.058 . S
Co414 O430 2.057 . S
Co414 O445 2.037 1_554 S
Co414 N449 2.145 . S
Co414 N470 2.257 . S
O415 Co413 2.143 1_554 S
O415 Co414 2.160 . S
C416 O417 1.278 1_556 S
C416 O424 1.224 . S
O417 C416 1.278 1_554 S
C418 O419 1.245 . S
C418 O430 1.232 . S
O419 C418 1.245 . S
O420 Co414 2.058 . S
O420 C446 1.269 . S
O421 Co413 2.074 . S
O421 C446 1.257 1_556 S
H422 C447 0.923 1_556 S
H423 C453 0.930 . S
O424 Co413 2.093 . S
O424 C416 1.224 . S
H425 C457 0.929 . S
H426 C459 0.930 . S
H427 C460 0.930 . S
H428 C458 0.929 . S
H429 C461 0.928 . S
O430 Co414 2.057 . S
O430 C418 1.232 . S
H431 C450 0.936 . S
H432 C451 0.929 . S
H433 C463 0.931 . S
H434 C455 0.929 . S
H435 C464 0.930 . S
H436 C456 0.931 . S
O437 Co413 2.097 . S
O437 C465 1.214 . S
H438 C466 0.929 . S
H439 C467 0.929 . S
H440 C468 0.930 . S
H441 C469 0.929 . S
H442 C471 0.930 . S
H443 C448 0.930 . S
H444 C452 0.930 . S
O445 Co414 2.037 1_556 S
O445 C465 1.234 . S
C446 O420 1.269 . S
C446 O421 1.257 1_554 S
C447 H422 0.923 1_554 S
C447 C450 1.387 1_554 S
C447 C452 1.425 . S
C448 H443 0.930 . S
C448 C451 1.404 . S
C448 C452 1.353 . S
N449 Co414 2.145 . S
N449 C450 1.391 1_554 S
N449 C451 1.334 . S
C450 H431 0.936 . S
C450 C447 1.387 1_556 S
C450 N449 1.391 1_556 S
C451 H432 0.929 . S
C451 C448 1.404 . S
C451 N449 1.334 . S
C452 H444 0.930 . S
C452 C447 1.425 . S
C452 C448 1.353 . S
C453 H423 0.930 . S
C453 N454 1.330 . S
C453 C455 1.446 . S
N454 Co413 2.151 1_554 S
N454 C453 1.330 . S
N454 C458 1.418 . S
C455 H434 0.929 . S
C455 C453 1.446 . S
C455 C456 1.332 . S
C456 H436 0.931 . S
C456 C455 1.332 . S
C456 C457 1.267 . S
C457 H425 0.929 . S
C457 C456 1.267 . S
C457 C458 1.251 . S
C458 H428 0.929 . S
C458 N454 1.418 . S
C458 C457 1.251 . S
C459 H426 0.930 . S
C459 C461 1.406 . S
C459 C464 1.261 . S
C460 H427 0.930 . S
C460 N462 1.325 . S
C460 C463 1.357 . S
C461 H429 0.928 . S
C461 C459 1.406 . S
C461 N462 1.261 . S
N462 Co413 2.214 . S
N462 C460 1.325 . S
N462 C461 1.261 . S
C463 H433 0.931 . S
C463 C460 1.357 . S
C463 C464 1.312 . S
C464 H435 0.930 . S
C464 C459 1.261 . S
C464 C463 1.312 . S
C465 O437 1.214 . S
C465 O445 1.234 . S
C466 H438 0.929 . S
C466 C469 1.391 . S
C466 C471 1.391 . S
C467 H439 0.929 . S
C467 C468 1.390 . S
C467 N470 1.391 1_556 S
C468 H440 0.930 . S
C468 C467 1.390 . S
C468 C469 1.392 1_556 S
C469 H441 0.929 . S
C469 C466 1.391 . S
C469 C468 1.392 1_554 S
N470 Co414 2.257 . S
N470 C467 1.391 1_554 S
N470 C471 1.388 . S
C471 H442 0.930 . S
C471 C466 1.391 . S
C471 N470 1.388 . S
Co472 O474 2.143 . S
Co472 O480 2.074 . S
Co472 O483 2.093 . S
Co472 O496 2.097 . S
Co472 N513 2.151 . S
Co472 N521 2.214 . S
Co473 O474 2.160 . S
Co473 O479 2.058 . S
Co473 O489 2.057 . S
Co473 O504 2.037 . S
Co473 N508 2.145 . S
Co473 N529 2.257 . S
O474 Co472 2.143 . S
O474 Co473 2.160 . S
C475 O476 1.278 . S
C475 O483 1.224 . S
O476 C475 1.278 . S
C477 O478 1.245 . S
C477 O489 1.232 . S
O478 C477 1.245 . S
O479 Co473 2.058 . S
O479 C505 1.269 . S
O480 Co472 2.074 . S
O480 C505 1.257 . S
H481 C506 0.930 . S
H482 C512 0.930 . S
O483 Co472 2.093 . S
O483 C475 1.224 . S
H484 C516 0.929 . S
H485 C518 0.930 . S
H486 C519 0.930 . S
H487 C517 0.929 . S
H488 C520 0.928 . S
O489 Co473 2.057 . S
O489 C477 1.232 . S
H490 C509 0.929 . S
H491 C510 0.929 . S
H492 C522 0.931 . S
H493 C514 0.929 . S
H494 C523 0.930 . S
H495 C515 0.931 . S
O496 Co472 2.097 . S
O496 C524 1.214 . S
H497 C525 0.929 . S
H498 C526 0.929 . S
H499 C527 0.930 . S
H500 C528 0.929 . S
H501 C530 0.930 . S
H502 C507 0.930 . S
H503 C511 0.930 . S
O504 Co473 2.037 . S
O504 C524 1.234 . S
C505 O479 1.269 . S
C505 O480 1.257 . S
C506 H481 0.930 . S
C506 C509 1.388 . S
C506 C511 1.418 . S
C507 H502 0.930 . S
C507 C510 1.404 . S
C507 C511 1.353 . S
N508 Co473 2.145 . S
N508 C509 1.397 . S
N508 C510 1.334 . S
C509 H490 0.929 . S
C509 C506 1.388 . S
C509 N508 1.397 . S
C510 H491 0.929 . S
C510 C507 1.404 . S
C510 N508 1.334 . S
C511 H503 0.930 . S
C511 C506 1.418 . S
C511 C507 1.353 . S
C512 H482 0.930 . S
C512 N513 1.330 . S
C512 C514 1.446 . S
N513 Co472 2.151 . S
N513 C512 1.330 . S
N513 C517 1.418 . S
C514 H493 0.929 . S
C514 C512 1.446 . S
C514 C515 1.332 . S
C515 H495 0.931 . S
C515 C514 1.332 . S
C515 C516 1.267 . S
C516 H484 0.929 . S
C516 C515 1.267 . S
C516 C517 1.251 . S
C517 H487 0.929 . S
C517 N513 1.418 . S
C517 C516 1.251 . S
C518 H485 0.930 . S
C518 C520 1.406 . S
C518 C523 1.261 1_554 S
C519 H486 0.930 . S
C519 N521 1.325 . S
C519 C522 1.357 1_554 S
C520 H488 0.928 . S
C520 C518 1.406 . S
C520 N521 1.261 . S
N521 Co472 2.214 . S
N521 C519 1.325 . S
N521 C520 1.261 . S
C522 H492 0.931 . S
C522 C519 1.357 1_556 S
C522 C523 1.312 . S
C523 H494 0.930 . S
C523 C518 1.261 1_556 S
C523 C522 1.312 . S
C524 O496 1.214 . S
C524 O504 1.234 . S
C525 H497 0.929 . S
C525 C528 1.391 . S
C525 C530 1.391 . S
C526 H498 0.929 . S
C526 C527 1.390 . S
C526 N529 1.391 . S
C527 H499 0.930 . S
C527 C526 1.390 . S
C527 C528 1.392 . S
C528 H500 0.929 . S
C528 C525 1.391 . S
C528 C527 1.392 . S
N529 Co473 2.257 . S
N529 C526 1.391 . S
N529 C530 1.388 . S
C530 H501 0.930 . S
C530 C525 1.391 . S
C530 N529 1.388 . S
Co531 O533 2.143 . S
Co531 O539 2.074 . S
Co531 O542 2.093 . S
Co531 O555 2.097 . S
Co531 N572 2.151 . S
Co531 N580 2.214 . S
Co532 O533 2.160 . S
Co532 O538 2.058 . S
Co532 O548 2.057 . S
Co532 O563 2.037 . S
Co532 N567 2.145 . S
Co532 N588 2.257 . S
O533 Co531 2.143 . S
O533 Co532 2.160 . S
C534 O535 1.278 . S
C534 O542 1.224 . S
O535 C534 1.278 . S
C536 O537 1.245 . S
C536 O548 1.232 . S
O537 C536 1.245 . S
O538 Co532 2.058 . S
O538 C564 1.269 . S
O539 Co531 2.074 . S
O539 C564 1.257 . S
H540 C565 0.930 . S
H541 C571 0.930 . S
O542 Co531 2.093 . S
O542 C534 1.224 . S
H543 C575 0.929 . S
H544 C577 0.930 . S
H545 C578 0.930 . S
H546 C576 0.929 . S
H547 C579 0.928 . S
O548 Co532 2.057 . S
O548 C536 1.232 . S
H549 C568 0.929 . S
H550 C569 0.929 . S
H551 C581 0.931 . S
H552 C573 0.929 . S
H553 C582 0.930 . S
H554 C574 0.931 . S
O555 Co531 2.097 . S
O555 C583 1.214 . S
H556 C584 0.929 . S
H557 C585 0.929 . S
H558 C586 0.930 . S
H559 C587 0.929 . S
H560 C589 0.930 . S
H561 C566 0.930 . S
H562 C570 0.930 . S
O563 Co532 2.037 . S
O563 C583 1.234 . S
C564 O538 1.269 . S
C564 O539 1.257 . S
C565 H540 0.930 . S
C565 C568 1.388 . S
C565 C570 1.418 . S
C566 H561 0.930 . S
C566 C569 1.404 . S
C566 C570 1.353 . S
N567 Co532 2.145 . S
N567 C568 1.397 . S
N567 C569 1.334 . S
C568 H549 0.929 . S
C568 C565 1.388 . S
C568 N567 1.397 . S
C569 H550 0.929 . S
C569 C566 1.404 . S
C569 N567 1.334 . S
C570 H562 0.930 . S
C570 C565 1.418 . S
C570 C566 1.353 . S
C571 H541 0.930 . S
C571 N572 1.330 . S
C571 C573 1.446 . S
N572 Co531 2.151 . S
N572 C571 1.330 . S
N572 C576 1.418 . S
C573 H552 0.929 . S
C573 C571 1.446 . S
C573 C574 1.332 . S
C574 H554 0.931 . S
C574 C573 1.332 . S
C574 C575 1.267 . S
C575 H543 0.929 . S
C575 C574 1.267 . S
C575 C576 1.251 . S
C576 H546 0.929 . S
C576 N572 1.418 . S
C576 C575 1.251 . S
C577 H544 0.930 . S
C577 C579 1.406 . S
C577 C582 1.261 . S
C578 H545 0.930 . S
C578 N580 1.325 . S
C578 C581 1.357 . S
C579 H547 0.928 . S
C579 C577 1.406 . S
C579 N580 1.261 . S
N580 Co531 2.214 . S
N580 C578 1.325 . S
N580 C579 1.261 . S
C581 H551 0.931 . S
C581 C578 1.357 . S
C581 C582 1.312 . S
C582 H553 0.930 . S
C582 C577 1.261 . S
C582 C581 1.312 . S
C583 O555 1.214 . S
C583 O563 1.234 . S
C584 H556 0.929 . S
C584 C587 1.391 . S
C584 C589 1.391 . S
C585 H557 0.929 . S
C585 C586 1.390 . S
C585 N588 1.391 . S
C586 H558 0.930 . S
C586 C585 1.390 . S
C586 C587 1.392 . S
C587 H559 0.929 . S
C587 C584 1.391 . S
C587 C586 1.392 . S
N588 Co532 2.257 . S
N588 C585 1.391 . S
N588 C589 1.388 . S
C589 H560 0.930 . S
C589 C584 1.391 . S
C589 N588 1.388 . S
Co590 O592 2.143 . S
Co590 O598 2.074 . S
Co590 O601 2.093 . S
Co590 O614 2.097 . S
Co590 N631 2.151 . S
Co590 N639 2.214 . S
Co591 O592 2.160 . S
Co591 O597 2.058 . S
Co591 O607 2.057 . S
Co591 O622 2.037 . S
Co591 N626 2.145 . S
Co591 N647 2.257 . S
O592 Co590 2.143 . S
O592 Co591 2.160 . S
C593 O594 1.278 . S
C593 O601 1.224 . S
O594 C593 1.278 . S
C595 O596 1.245 . S
C595 O607 1.232 . S
O596 C595 1.245 . S
O597 Co591 2.058 . S
O597 C623 1.269 . S
O598 Co590 2.074 . S
O598 C623 1.257 . S
H599 C624 0.930 . S
H600 C630 0.930 . S
O601 Co590 2.093 . S
O601 C593 1.224 . S
H602 C634 0.929 . S
H603 C636 0.930 . S
H604 C637 0.930 . S
H605 C635 0.929 . S
H606 C638 0.928 . S
O607 Co591 2.057 . S
O607 C595 1.232 . S
H608 C627 0.929 . S
H609 C628 0.929 . S
H610 C640 0.931 . S
H611 C632 0.929 . S
H612 C641 0.930 . S
H613 C633 0.931 . S
O614 Co590 2.097 . S
O614 C642 1.214 . S
H615 C643 0.929 . S
H616 C644 0.929 . S
H617 C645 0.930 . S
H618 C646 0.929 . S
H619 C648 0.930 . S
H620 C625 0.930 . S
H621 C629 0.930 . S
O622 Co591 2.037 . S
O622 C642 1.234 . S
C623 O597 1.269 . S
C623 O598 1.257 . S
C624 H599 0.930 . S
C624 C627 1.388 . S
C624 C629 1.418 . S
C625 H620 0.930 . S
C625 C628 1.404 . S
C625 C629 1.353 . S
N626 Co591 2.145 . S
N626 C627 1.397 . S
N626 C628 1.334 . S
C627 H608 0.929 . S
C627 C624 1.388 . S
C627 N626 1.397 . S
C628 H609 0.929 . S
C628 C625 1.404 . S
C628 N626 1.334 . S
C629 H621 0.930 . S
C629 C624 1.418 . S
C629 C625 1.353 . S
C630 H600 0.930 . S
C630 N631 1.330 . S
C630 C632 1.446 . S
N631 Co590 2.151 . S
N631 C630 1.330 . S
N631 C635 1.418 . S
C632 H611 0.929 . S
C632 C630 1.446 . S
C632 C633 1.332 . S
C633 H613 0.931 . S
C633 C632 1.332 . S
C633 C634 1.267 . S
C634 H602 0.929 . S
C634 C633 1.267 . S
C634 C635 1.251 . S
C635 H605 0.929 . S
C635 N631 1.418 . S
C635 C634 1.251 . S
C636 H603 0.930 . S
C636 C638 1.406 . S
C636 C641 1.261 . S
C637 H604 0.930 . S
C637 N639 1.325 . S
C637 C640 1.357 . S
C638 H606 0.928 . S
C638 C636 1.406 . S
C638 N639 1.261 . S
N639 Co590 2.214 . S
N639 C637 1.325 . S
N639 C638 1.261 . S
C640 H610 0.931 . S
C640 C637 1.357 . S
C640 C641 1.312 . S
C641 H612 0.930 . S
C641 C636 1.261 . S
C641 C640 1.312 . S
C642 O614 1.214 . S
C642 O622 1.234 . S
C643 H615 0.929 . S
C643 C646 1.391 . S
C643 C648 1.391 . S
C644 H616 0.929 . S
C644 C645 1.390 . S
C644 N647 1.391 . S
C645 H617 0.930 . S
C645 C644 1.390 . S
C645 C646 1.392 . S
C646 H618 0.929 . S
C646 C643 1.391 . S
C646 C645 1.392 . S
N647 Co591 2.257 . S
N647 C644 1.391 . S
N647 C648 1.388 . S
C648 H619 0.930 . S
C648 C643 1.391 . S
C648 N647 1.388 . S
Co649 O651 2.143 . S
Co649 O657 2.074 . S
Co649 O660 2.093 . S
Co649 O673 2.097 . S
Co649 N690 2.151 . S
Co649 N698 2.214 . S
Co650 O651 2.160 . S
Co650 O656 2.058 . S
Co650 O666 2.057 . S
Co650 O681 2.037 . S
Co650 N685 2.145 . S
Co650 N706 2.257 . S
O651 Co649 2.143 . S
O651 Co650 2.160 . S
C652 O653 1.278 . S
C652 O660 1.224 . S
O653 C652 1.278 . S
C654 O655 1.245 . S
C654 O666 1.232 . S
O655 C654 1.245 . S
O656 Co650 2.058 . S
O656 C682 1.269 . S
O657 Co649 2.074 . S
O657 C682 1.257 . S
H658 C683 0.930 . S
H659 C689 0.930 . S
O660 Co649 2.093 . S
O660 C652 1.224 . S
H661 C693 0.929 . S
H662 C695 0.930 . S
H663 C696 0.930 . S
H664 C694 0.929 . S
H665 C697 0.928 . S
O666 Co650 2.057 . S
O666 C654 1.232 . S
H667 C686 0.929 . S
H668 C687 0.929 . S
H669 C699 0.931 . S
H670 C691 0.929 . S
H671 C700 0.930 . S
H672 C692 0.931 . S
O673 Co649 2.097 . S
O673 C701 1.214 . S
H674 C702 0.929 . S
H675 C703 0.929 . S
H676 C704 0.930 . S
H677 C705 0.929 . S
H678 C707 0.930 . S
H679 C684 0.930 . S
H680 C688 0.930 . S
O681 Co650 2.037 . S
O681 C701 1.234 . S
C682 O656 1.269 . S
C682 O657 1.257 . S
C683 H658 0.930 . S
C683 C686 1.388 . S
C683 C688 1.418 . S
C684 H679 0.930 . S
C684 C687 1.404 . S
C684 C688 1.353 . S
N685 Co650 2.145 . S
N685 C686 1.397 . S
N685 C687 1.334 . S
C686 H667 0.929 . S
C686 C683 1.388 . S
C686 N685 1.397 . S
C687 H668 0.929 . S
C687 C684 1.404 . S
C687 N685 1.334 . S
C688 H680 0.930 . S
C688 C683 1.418 . S
C688 C684 1.353 . S
C689 H659 0.930 . S
C689 N690 1.330 . S
C689 C691 1.446 . S
N690 Co649 2.151 . S
N690 C689 1.330 . S
N690 C694 1.418 . S
C691 H670 0.929 . S
C691 C689 1.446 . S
C691 C692 1.332 . S
C692 H672 0.931 . S
C692 C691 1.332 . S
C692 C693 1.267 . S
C693 H661 0.929 . S
C693 C692 1.267 . S
C693 C694 1.251 . S
C694 H664 0.929 . S
C694 N690 1.418 . S
C694 C693 1.251 . S
C695 H662 0.930 . S
C695 C697 1.406 . S
C695 C700 1.261 . S
C696 H663 0.930 . S
C696 N698 1.325 . S
C696 C699 1.357 . S
C697 H665 0.928 . S
C697 C695 1.406 . S
C697 N698 1.261 . S
N698 Co649 2.214 . S
N698 C696 1.325 . S
N698 C697 1.261 . S
C699 H669 0.931 . S
C699 C696 1.357 . S
C699 C700 1.312 . S
C700 H671 0.930 . S
C700 C695 1.261 . S
C700 C699 1.312 . S
C701 O673 1.214 . S
C701 O681 1.234 . S
C702 H674 0.929 . S
C702 C705 1.391 . S
C702 C707 1.391 . S
C703 H675 0.929 . S
C703 C704 1.390 . S
C703 N706 1.391 . S
C704 H676 0.930 . S
C704 C703 1.390 . S
C704 C705 1.392 . S
C705 H677 0.929 . S
C705 C702 1.391 . S
C705 C704 1.392 . S
N706 Co650 2.257 . S
N706 C703 1.391 . S
N706 C707 1.388 . S
C707 H678 0.930 . S
C707 C702 1.391 . S
C707 N706 1.388 . S
C708 C709 1.369 . S
C708 C710 1.419 . S
C708 H712 0.930 . S
C709 C708 1.369 . S
C709 C718 1.429 . S
C710 C708 1.419 . S
C710 C711 1.363 . S
C710 H713 0.929 . S
C711 C710 1.363 . S
C711 C717 1.428 . S
H712 C708 0.930 . S
H713 C710 0.929 . S
S714 N715 1.613 . S
S714 N716 1.610 . S
N715 S714 1.613 . S
N715 C718 1.350 . S
N716 S714 1.610 . S
N716 C717 1.351 . S
C717 C711 1.428 . S
C717 N716 1.351 . S
C717 C718 1.434 . S
C718 C709 1.429 . S
C718 N715 1.350 . S
C718 C717 1.434 . S
C719 C720 1.369 . S
C719 C721 1.419 . S
C719 H723 0.930 . S
C720 C719 1.369 . S
C720 C729 1.429 . S
C721 C719 1.419 . S
C721 C722 1.363 . S
C721 H724 0.929 . S
C722 C721 1.363 . S
C722 C728 1.428 . S
H723 C719 0.930 . S
H724 C721 0.929 . S
S725 N726 1.613 . S
S725 N727 1.610 . S
N726 S725 1.613 . S
N726 C729 1.350 . S
N727 S725 1.610 . S
N727 C728 1.351 . S
C728 C722 1.428 . S
C728 N727 1.351 . S
C728 C729 1.434 . S
C729 C720 1.429 . S
C729 N726 1.350 . S
C729 C728 1.434 . S
C730 C731 1.369 . S
C730 C732 1.419 . S
C730 H734 0.930 . S
C731 C730 1.369 . S
C731 C740 1.429 . S
C732 C730 1.419 . S
C732 C733 1.363 . S
C732 H735 0.929 . S
C733 C732 1.363 . S
C733 C739 1.428 . S
H734 C730 0.930 . S
H735 C732 0.929 . S
S736 N737 1.613 . S
S736 N738 1.610 . S
N737 S736 1.613 . S
N737 C740 1.350 . S
N738 S736 1.610 . S
N738 C739 1.351 . S
C739 C733 1.428 . S
C739 N738 1.351 . S
C739 C740 1.434 . S
C740 C731 1.429 . S
C740 N737 1.350 . S
C740 C739 1.434 . S
C741 C742 1.369 . S
C741 C743 1.419 . S
C741 H745 0.930 . S
C742 C741 1.369 . S
C742 C751 1.429 . S
C743 C741 1.419 . S
C743 C744 1.363 . S
C743 H746 0.929 . S
C744 C743 1.363 . S
C744 C750 1.428 . S
H745 C741 0.930 . S
H746 C743 0.929 . S
S747 N748 1.613 . S
S747 N749 1.610 . S
N748 S747 1.613 . S
N748 C751 1.350 . S
N749 S747 1.610 . S
N749 C750 1.351 . S
C750 C744 1.428 . S
C750 N749 1.351 . S
C750 C751 1.434 . S
C751 C742 1.429 . S
C751 N748 1.350 . S
C751 C750 1.434 . S
C752 C753 1.369 1_556 S
C752 C754 1.419 . S
C752 H756 0.930 . S
C753 C752 1.369 1_554 S
C753 C762 1.429 . S
C754 C752 1.419 . S
C754 C755 1.363 . S
C754 H757 0.929 . S
C755 C754 1.363 . S
C755 C761 1.428 . S
H756 C752 0.930 . S
H757 C754 0.929 . S
S758 N759 1.613 . S
S758 N760 1.610 1_554 S
N759 S758 1.613 . S
N759 C762 1.350 . S
N760 S758 1.610 1_556 S
N760 C761 1.351 . S
C761 C755 1.428 . S
C761 N760 1.351 . S
C761 C762 1.434 1_556 S
C762 C753 1.429 . S
C762 N759 1.350 . S
C762 C761 1.434 1_554 S
C763 C764 1.369 . S
C763 C765 1.419 . S
C763 H767 0.930 . S
C764 C763 1.369 . S
C764 C773 1.429 . S
C765 C763 1.419 . S
C765 C766 1.363 . S
C765 H768 0.929 . S
C766 C765 1.363 . S
C766 C772 1.428 . S
H767 C763 0.930 . S
H768 C765 0.929 . S
S769 N770 1.613 . S
S769 N771 1.610 . S
N770 S769 1.613 . S
N770 C773 1.350 . S
N771 S769 1.610 . S
N771 C772 1.351 . S
C772 C766 1.428 . S
C772 N771 1.351 . S
C772 C773 1.434 . S
C773 C764 1.429 . S
C773 N770 1.350 . S
C773 C772 1.434 . S
C774 C775 1.369 . S
C774 C776 1.419 . S
C774 H778 0.930 . S
C775 C774 1.369 . S
C775 C784 1.429 . S
C776 C774 1.419 . S
C776 C777 1.363 . S
C776 H779 0.929 . S
C777 C776 1.363 . S
C777 C783 1.428 . S
H778 C774 0.930 . S
H779 C776 0.929 . S
S780 N781 1.613 . S
S780 N782 1.610 . S
N781 S780 1.613 . S
N781 C784 1.350 . S
N782 S780 1.610 . S
N782 C783 1.351 . S
C783 C777 1.428 . S
C783 N782 1.351 . S
C783 C784 1.434 . S
C784 C775 1.429 . S
C784 N781 1.350 . S
C784 C783 1.434 . S
C785 C786 1.369 . S
C785 C787 1.419 . S
C785 H789 0.930 . S
C786 C785 1.369 . S
C786 C795 1.429 . S
C787 C785 1.419 . S
C787 C788 1.363 . S
C787 H790 0.929 . S
C788 C787 1.363 . S
C788 C794 1.428 . S
H789 C785 0.930 . S
H790 C787 0.929 . S
S791 N792 1.613 . S
S791 N793 1.610 . S
N792 S791 1.613 . S
N792 C795 1.350 . S
N793 S791 1.610 . S
N793 C794 1.351 . S
C794 C788 1.428 . S
C794 N793 1.351 . S
C794 C795 1.434 . S
C795 C786 1.429 . S
C795 N792 1.350 . S
C795 C794 1.434 . S
C796 C797 1.369 . S
C796 C798 1.419 . S
C796 H800 0.930 . S
C797 C796 1.369 . S
C797 C806 1.429 . S
C798 C796 1.419 . S
C798 C799 1.363 . S
C798 H801 0.929 . S
C799 C798 1.363 . S
C799 C805 1.428 . S
H800 C796 0.930 . S
H801 C798 0.929 . S
S802 N803 1.613 . S
S802 N804 1.610 . S
N803 S802 1.613 . S
N803 C806 1.350 . S
N804 S802 1.610 . S
N804 C805 1.351 . S
C805 C799 1.428 . S
C805 N804 1.351 . S
C805 C806 1.434 . S
C806 C797 1.429 . S
C806 N803 1.350 . S
C806 C805 1.434 . S
C807 C808 1.369 . S
C807 C809 1.419 . S
C807 H811 0.930 . S
C808 C807 1.369 . S
C808 C817 1.429 . S
C809 C807 1.419 . S
C809 C810 1.363 . S
C809 H812 0.929 . S
C810 C809 1.363 . S
C810 C816 1.428 . S
H811 C807 0.930 . S
H812 C809 0.929 . S
S813 N814 1.613 . S
S813 N815 1.610 . S
N814 S813 1.613 . S
N814 C817 1.350 . S
N815 S813 1.610 . S
N815 C816 1.351 . S
C816 C810 1.428 . S
C816 N815 1.351 . S
C816 C817 1.434 . S
C817 C808 1.429 . S
C817 N814 1.350 . S
C817 C816 1.434 . S
C818 C819 1.369 . S
C818 C820 1.419 . S
C818 H822 0.930 . S
C819 C818 1.369 . S
C819 C828 1.429 . S
C820 C818 1.419 . S
C820 C821 1.363 . S
C820 H823 0.929 . S
C821 C820 1.363 . S
C821 C827 1.428 . S
H822 C818 0.930 . S
H823 C820 0.929 . S
S824 N825 1.613 . S
S824 N826 1.610 . S
N825 S824 1.613 . S
N825 C828 1.350 . S
N826 S824 1.610 . S
N826 C827 1.351 . S
C827 C821 1.428 . S
C827 N826 1.351 . S
C827 C828 1.434 . S
C828 C819 1.429 . S
C828 N825 1.350 . S
C828 C827 1.434 . S
C829 C830 1.369 . S
C829 C831 1.419 . S
C829 H833 0.930 . S
C830 C829 1.369 . S
C830 C839 1.429 . S
C831 C829 1.419 . S
C831 C832 1.363 . S
C831 H834 0.929 1_556 S
C832 C831 1.363 . S
C832 C838 1.428 . S
H833 C829 0.930 . S
H834 C831 0.929 1_554 S
S835 N836 1.613 . S
S835 N837 1.610 . S
N836 S835 1.613 . S
N836 C839 1.350 . S
N837 S835 1.610 . S
N837 C838 1.351 . S
C838 C832 1.428 . S
C838 N837 1.351 . S
C838 C839 1.434 . S
C839 C830 1.429 . S
C839 N836 1.350 . S
C839 C838 1.434 . S
C840 C841 1.369 . S
C840 C842 1.419 . S
C840 H844 0.930 . S
C841 C840 1.369 . S
C841 C850 1.429 . S
C842 C840 1.419 . S
C842 C843 1.363 . S
C842 H845 0.929 . S
C843 C842 1.363 . S
C843 C849 1.428 . S
H844 C840 0.930 . S
H845 C842 0.929 . S
S846 N847 1.613 . S
S846 N848 1.610 . S
N847 S846 1.613 . S
N847 C850 1.350 . S
N848 S846 1.610 . S
N848 C849 1.351 . S
C849 C843 1.428 . S
C849 N848 1.351 . S
C849 C850 1.434 . S
C850 C841 1.429 . S
C850 N847 1.350 . S
C850 C849 1.434 . S
C851 C852 1.369 . S
C851 C853 1.419 . S
C851 H855 0.930 . S
C852 C851 1.369 . S
C852 C861 1.429 . S
C853 C851 1.419 . S
C853 C854 1.363 1_556 S
C853 H856 0.929 1_556 S
C854 C853 1.363 1_554 S
C854 C860 1.428 1_554 S
H855 C851 0.930 . S
H856 C853 0.929 1_554 S
S857 N858 1.613 . S
S857 N859 1.610 . S
N858 S857 1.613 . S
N858 C861 1.350 . S
N859 S857 1.610 . S
N859 C860 1.351 . S
C860 C854 1.428 1_556 S
C860 N859 1.351 . S
C860 C861 1.434 . S
C861 C852 1.429 . S
C861 N858 1.350 . S
C861 C860 1.434 . S
C862 C863 1.369 . S
C862 C864 1.419 . S
C862 H866 0.930 . S
C863 C862 1.369 . S
C863 C872 1.429 . S
C864 C862 1.419 . S
C864 C865 1.363 . S
C864 H867 0.929 . S
C865 C864 1.363 . S
C865 C871 1.428 . S
H866 C862 0.930 . S
H867 C864 0.929 . S
S868 N869 1.613 . S
S868 N870 1.610 . S
N869 S868 1.613 . S
N869 C872 1.350 . S
N870 S868 1.610 . S
N870 C871 1.351 . S
C871 C865 1.428 . S
C871 N870 1.351 . S
C871 C872 1.434 . S
C872 C863 1.429 . S
C872 N869 1.350 . S
C872 C871 1.434 . S
C873 C874 1.369 . S
C873 C875 1.419 . S
C873 H877 0.930 . S
C874 C873 1.369 . S
C874 C883 1.429 . S
C875 C873 1.419 . S
C875 C876 1.363 . S
C875 H878 0.929 . S
C876 C875 1.363 . S
C876 C882 1.428 . S
H877 C873 0.930 . S
H878 C875 0.929 . S
S879 N880 1.613 . S
S879 N881 1.610 . S
N880 S879 1.613 . S
N880 C883 1.350 . S
N881 S879 1.610 . S
N881 C882 1.351 . S
C882 C876 1.428 . S
C882 N881 1.351 . S
C882 C883 1.434 . S
C883 C874 1.429 . S
C883 N880 1.350 . S
C883 C882 1.434 . S
C884 C885 1.369 . S
C884 C886 1.419 . S
C884 H888 0.930 . S
C885 C884 1.369 . S
C885 C894 1.429 . S
C886 C884 1.419 . S
C886 C887 1.363 . S
C886 H889 0.929 . S
C887 C886 1.363 . S
C887 C893 1.428 . S
H888 C884 0.930 . S
H889 C886 0.929 . S
S890 N891 1.613 . S
S890 N892 1.610 . S
N891 S890 1.613 . S
N891 C894 1.350 . S
N892 S890 1.610 . S
N892 C893 1.351 . S
C893 C887 1.428 . S
C893 N892 1.351 . S
C893 C894 1.434 . S
C894 C885 1.429 . S
C894 N891 1.350 . S
C894 C893 1.434 . S
C895 C896 1.369 . S
C895 C897 1.419 . S
C895 H899 0.930 . S
C896 C895 1.369 . S
C896 C905 1.429 . S
C897 C895 1.419 . S
C897 C898 1.363 . S
C897 H900 0.929 . S
C898 C897 1.363 . S
C898 C904 1.428 . S
H899 C895 0.930 . S
H900 C897 0.929 . S
S901 N902 1.613 . S
S901 N903 1.610 . S
N902 S901 1.613 . S
N902 C905 1.350 . S
N903 S901 1.610 . S
N903 C904 1.351 . S
C904 C898 1.428 . S
C904 N903 1.351 . S
C904 C905 1.434 . S
C905 C896 1.429 . S
C905 N902 1.350 . S
C905 C904 1.434 . S
C906 C907 1.370 1_556 S
C906 C908 1.418 1_545 S
C906 H910 0.929 . S
C907 C906 1.370 1_554 S
C907 C916 1.429 . S
C908 C906 1.418 1_565 S
C908 C909 1.363 1_556 S
C908 H911 0.929 . S
C909 C908 1.363 1_554 S
C909 C915 1.428 . S
H910 C906 0.929 . S
H911 C908 0.929 . S
S912 N913 1.613 1_565 S
S912 N914 1.610 . S
N913 S912 1.613 1_545 S
N913 C916 1.350 . S
N914 S912 1.610 . S
N914 C915 1.351 . S
C915 C909 1.428 . S
C915 N914 1.351 . S
C915 C916 1.434 1_565 S
C916 C907 1.429 . S
C916 N913 1.350 . S
C916 C915 1.434 1_545 S
C917 C918 1.369 . S
C917 C919 1.419 . S
C917 H921 0.930 . S
C918 C917 1.369 . S
C918 C927 1.429 . S
C919 C917 1.419 . S
C919 C920 1.363 . S
C919 H922 0.929 . S
C920 C919 1.363 . S
C920 C926 1.428 . S
H921 C917 0.930 . S
H922 C919 0.929 . S
S923 N924 1.613 . S
S923 N925 1.610 . S
N924 S923 1.613 . S
N924 C927 1.350 . S
N925 S923 1.610 . S
N925 C926 1.351 . S
C926 C920 1.428 . S
C926 N925 1.351 . S
C926 C927 1.434 . S
C927 C918 1.429 . S
C927 N924 1.350 . S
C927 C926 1.434 . S
C928 C929 1.369 . S
C928 C930 1.419 1_455 S
C928 H932 0.930 . S
C929 C928 1.369 . S
C929 C938 1.429 . S
C930 C928 1.419 1_655 S
C930 C931 1.363 . S
C930 H933 0.929 . S
C931 C930 1.363 . S
C931 C937 1.428 . S
H932 C928 0.930 . S
H933 C930 0.929 . S
S934 N935 1.613 1_655 S
S934 N936 1.610 . S
N935 S934 1.613 1_455 S
N935 C938 1.350 . S
N936 S934 1.610 . S
N936 C937 1.351 . S
C937 C931 1.428 . S
C937 N936 1.351 . S
C937 C938 1.434 1_655 S
C938 C929 1.429 . S
C938 N935 1.350 . S
C938 C937 1.434 1_455 S
C939 C940 1.369 . S
C939 C941 1.419 1_565 S
C939 H943 0.930 . S
C940 C939 1.369 . S
C940 C949 1.429 . S
C941 C939 1.419 1_545 S
C941 C942 1.363 . S
C941 H944 0.929 . S
C942 C941 1.363 . S
C942 C948 1.428 . S
H943 C939 0.930 . S
H944 C941 0.929 . S
S945 N946 1.613 1_545 S
S945 N947 1.610 . S
N946 S945 1.613 1_565 S
N946 C949 1.350 . S
N947 S945 1.610 . S
N947 C948 1.351 . S
C948 C942 1.428 . S
C948 N947 1.351 . S
C948 C949 1.434 1_545 S
C949 C940 1.429 . S
C949 N946 1.350 . S
C949 C948 1.434 1_565 S
C950 C951 1.369 . S
C950 C952 1.419 . S
C950 H954 0.930 . S
C951 C950 1.369 . S
C951 C960 1.429 . S
C952 C950 1.419 . S
C952 C953 1.363 . S
C952 H955 0.929 . S
C953 C952 1.363 . S
C953 C959 1.428 . S
H954 C950 0.930 . S
H955 C952 0.929 . S
S956 N957 1.613 . S
S956 N958 1.610 . S
N957 S956 1.613 . S
N957 C960 1.350 . S
N958 S956 1.610 . S
N958 C959 1.351 . S
C959 C953 1.428 . S
C959 N958 1.351 . S
C959 C960 1.434 . S
C960 C951 1.429 . S
C960 N957 1.350 . S
C960 C959 1.434 . S
C961 C962 1.369 . S
C961 C963 1.419 1_455 S
C961 H965 0.930 . S
C962 C961 1.369 . S
C962 C971 1.429 . S
C963 C961 1.419 1_655 S
C963 C964 1.363 . S
C963 H966 0.929 . S
C964 C963 1.363 . S
C964 C970 1.428 . S
H965 C961 0.930 . S
H966 C963 0.929 . S
S967 N968 1.613 . S
S967 N969 1.610 1_455 S
N968 S967 1.613 . S
N968 C971 1.350 . S
N969 S967 1.610 1_655 S
N969 C970 1.351 . S
C970 C964 1.428 . S
C970 N969 1.351 . S
C970 C971 1.434 1_655 S
C971 C962 1.429 . S
C971 N968 1.350 . S
C971 C970 1.434 1_455 S
C709 C52 1.448 . S
C711 C642 1.447 . S
C720 C111 1.446 . S
C722 C701 1.446 . S
C731 C406 1.447 . S
C733 C170 1.447 . S
C742 C229 1.447 . S
C744 C465 1.447 . S
C753 C524 1.446 . S
C755 C288 1.446 . S
C764 C583 1.447 . S
C766 C347 1.447 . S
C775 C475 1.439 . S
C777 C3 1.442 . S
C786 C62 1.440 . S
C788 C534 1.440 . S
C797 C593 1.445 . S
C799 C121 1.438 . S
C808 C180 1.442 . S
C810 C652 1.443 . S
C819 C239 1.438 . S
C821 C357 1.443 . S
C830 C298 1.445 . S
C832 C416 1.439 . S
C841 C595 1.432 . S
C843 C5 1.430 . S
C852 C654 1.428 . S
C854 C64 1.430 . S
C863 C359 1.431 . S
C865 C123 1.429 . S
C874 C182 1.432 . S
C876 C418 1.432 . S
C885 C241 1.429 . S
C887 C477 1.429 . S
C896 C536 1.432 . S
C898 C300 1.430 . S
C907 C33 1.447 . S
C909 C446 1.444 . S
C918 C505 1.444 . S
C920 C92 1.447 . S
C929 C564 1.447 . S
C931 C151 1.445 . S
C940 C210 1.447 . S
C942 C623 1.444 . S
C951 C269 1.445 . S
C953 C682 1.447 . S
C962 C328 1.443 . S
C964 C387 1.446 . S
