# Generated by pormake.
# Topology umb, (4)-cn, num edge types: 1
# Building blocks:
#     Node 0, Type 0, BuildingBlock: KUFVIS_clean_sbu_0, # of connection points: 4
#     Node 1, Type 0, BuildingBlock: KUFVIS_clean_sbu_0, # of connection points: 4
#     Node 2, Type 0, BuildingBlock: KUFVIS_clean_sbu_0, # of connection points: 4
#     Node 3, Type 0, BuildingBlock: KUFVIS_clean_sbu_0, # of connection points: 4
#     Node 4, Type 0, BuildingBlock: KUFVIS_clean_sbu_0, # of connection points: 4
#     Node 5, Type 0, BuildingBlock: KUFVIS_clean_sbu_0, # of connection points: 4
#     Node 6, Type 0, BuildingBlock: KUFVIS_clean_sbu_0, # of connection points: 4
#     Node 7, Type 0, BuildingBlock: KUFVIS_clean_sbu_0, # of connection points: 4
#     Node 8, Type 0, BuildingBlock: KUFVIS_clean_sbu_0, # of connection points: 4
#     Node 9, Type 0, BuildingBlock: KUFVIS_clean_sbu_0, # of connection points: 4
#     Node 10, Type 0, BuildingBlock: KUFVIS_clean_sbu_0, # of connection points: 4
#     Node 11, Type 0, BuildingBlock: KUFVIS_clean_sbu_0, # of connection points: 4
#     Edge 12, Type (0, 0), BuildingBlock: TEMPAE_clean_linker_10, # of connection points: 2
#     Edge 13, Type (0, 0), BuildingBlock: TEMPAE_clean_linker_10, # of connection points: 2
#     Edge 14, Type (0, 0), BuildingBlock: TEMPAE_clean_linker_10, # of connection points: 2
#     Edge 15, Type (0, 0), BuildingBlock: TEMPAE_clean_linker_10, # of connection points: 2
#     Edge 16, Type (0, 0), BuildingBlock: TEMPAE_clean_linker_10, # of connection points: 2
#     Edge 17, Type (0, 0), BuildingBlock: TEMPAE_clean_linker_10, # of connection points: 2
#     Edge 18, Type (0, 0), BuildingBlock: TEMPAE_clean_linker_10, # of connection points: 2
#     Edge 19, Type (0, 0), BuildingBlock: TEMPAE_clean_linker_10, # of connection points: 2
#     Edge 20, Type (0, 0), BuildingBlock: TEMPAE_clean_linker_10, # of connection points: 2
#     Edge 21, Type (0, 0), BuildingBlock: TEMPAE_clean_linker_10, # of connection points: 2
#     Edge 22, Type (0, 0), BuildingBlock: TEMPAE_clean_linker_10, # of connection points: 2
#     Edge 23, Type (0, 0), BuildingBlock: TEMPAE_clean_linker_10, # of connection points: 2
#     Edge 24, Type (0, 0), BuildingBlock: TEMPAE_clean_linker_10, # of connection points: 2
#     Edge 25, Type (0, 0), BuildingBlock: TEMPAE_clean_linker_10, # of connection points: 2
#     Edge 26, Type (0, 0), BuildingBlock: TEMPAE_clean_linker_10, # of connection points: 2
#     Edge 27, Type (0, 0), BuildingBlock: TEMPAE_clean_linker_10, # of connection points: 2
#     Edge 28, Type (0, 0), BuildingBlock: TEMPAE_clean_linker_10, # of connection points: 2
#     Edge 29, Type (0, 0), BuildingBlock: TEMPAE_clean_linker_10, # of connection points: 2
#     Edge 30, Type (0, 0), BuildingBlock: TEMPAE_clean_linker_10, # of connection points: 2
#     Edge 31, Type (0, 0), BuildingBlock: TEMPAE_clean_linker_10, # of connection points: 2
#     Edge 32, Type (0, 0), BuildingBlock: TEMPAE_clean_linker_10, # of connection points: 2
#     Edge 33, Type (0, 0), BuildingBlock: TEMPAE_clean_linker_10, # of connection points: 2
#     Edge 34, Type (0, 0), BuildingBlock: TEMPAE_clean_linker_10, # of connection points: 2
#     Edge 35, Type (0, 0), BuildingBlock: TEMPAE_clean_linker_10, # of connection points: 2
# Relax obj value: 0.255
# Max RMSD: 0.280
# Mean RMSD: 0.280
data_MOF--net-umb--node1-KUFVIS_clean_sbu_0--edge1-TEMPAE_clean_linker_10
_symmetry_space_group_name_H-M    P1
_symmetry_Int_Tables_number       1
_symmetry_cell_setting            triclinic
loop_
_symmetry_equiv_pos_as_xyz
'x, y, z'
_cell_length_a     46.027029
_cell_length_b     45.991622
_cell_length_c     38.14455
_cell_angle_alpha  90.020219
_cell_angle_beta   90.007161
_cell_angle_gamma 120.05838
loop_
_atom_site_label
_atom_site_type_symbol
_atom_site_fract_x
_atom_site_fract_y
_atom_site_fract_z
_atom_type_partial_charge
Mn0 Mn 0.59614 0.14222 0.28419 0.0
Mn1 Mn 0.67256 0.14898 0.29415 0.0
C2 C 0.64299 0.1944 0.28732 0.0
C3 C 0.55641 0.13964 0.24206 0.0
C4 C 0.62653 0.13866 0.35604 0.0
O5 O 0.58579 0.09407 0.27653 0.0
O6 O 0.63827 0.10285 0.28045 0.0
C7 C 0.68205 0.13948 0.21915 0.0
N8 N 0.69346 0.15785 0.24916 0.0
C9 C 0.74507 0.19787 0.22126 0.0
C10 C 0.73398 0.17929 0.19009 0.0
C11 C 0.70225 0.15005 0.18899 0.0
C12 C 0.72367 0.1863 0.25034 0.0
H13 H 0.65772 0.11694 0.21828 0.0
C14 C 0.60683 0.08373 0.27533 0.0
O15 O 0.54781 0.13104 0.2746 0.0
O16 O 0.58636 0.14654 0.23409 0.0
N17 N 0.70952 0.19161 0.30763 0.0
C18 C 0.7167 0.2064 0.33989 0.0
C19 C 0.74767 0.2357 0.34555 0.0
C20 C 0.7713 0.24906 0.31831 0.0
C21 C 0.76374 0.23296 0.28562 0.0
C22 C 0.73249 0.20376 0.28154 0.0
H23 H 0.69891 0.19595 0.36114 0.0
O24 O 0.61327 0.19041 0.29022 0.0
O25 O 0.6448 0.16781 0.27926 0.0
O26 O 0.60172 0.13785 0.33899 0.0
O27 O 0.65254 0.14128 0.34089 0.0
C28 C 0.78593 0.24481 0.25687 0.0
C29 C 0.77649 0.22743 0.22463 0.0
H30 H 0.74957 0.18727 0.16682 0.0
H31 H 0.69347 0.13563 0.16501 0.0
H32 H 0.75343 0.24779 0.37096 0.0
H33 H 0.79518 0.27168 0.32277 0.0
H34 H 0.81018 0.26745 0.25918 0.0
H35 H 0.79363 0.23696 0.20262 0.0
Mn36 Mn 0.29435 0.50228 0.7116 0.0
Mn37 Mn 0.37268 0.51566 0.72996 0.0
C38 C 0.33659 0.55511 0.72678 0.0
C39 C 0.25582 0.50018 0.66816 0.0
C40 C 0.31681 0.48843 0.78378 0.0
O41 O 0.29235 0.45978 0.69262 0.0
O42 O 0.34527 0.47285 0.70526 0.0
C43 C 0.39705 0.52261 0.65689 0.0
N44 N 0.40119 0.53481 0.69017 0.0
C45 C 0.45691 0.57972 0.67709 0.0
C46 C 0.45327 0.56764 0.64266 0.0
C47 C 0.42313 0.53907 0.63247 0.0
C48 C 0.42987 0.56253 0.7001 0.0
H49 H 0.37416 0.50033 0.64914 0.0
C50 C 0.31631 0.45345 0.69234 0.0
O51 O 0.24548 0.48534 0.69836 0.0
O52 O 0.28783 0.51476 0.66306 0.0
N53 N 0.40341 0.5561 0.75389 0.0
C54 C 0.40253 0.56504 0.78779 0.0
C55 C 0.43057 0.59341 0.80194 0.0
C56 C 0.45954 0.61172 0.78146 0.0
C57 C 0.46005 0.6018 0.74683 0.0
C58 C 0.43125 0.57351 0.73403 0.0
H59 H 0.38066 0.55056 0.80396 0.0
O60 O 0.30535 0.54721 0.72818 0.0
O61 O 0.34296 0.53249 0.71442 0.0
O62 O 0.2934 0.48779 0.76448 0.0
O63 O 0.34599 0.497 0.77226 0.0
C64 C 0.48794 0.61897 0.72443 0.0
C65 C 0.4863 0.60806 0.68952 0.0
H66 H 0.47344 0.5801 0.62383 0.0
H67 H 0.42016 0.52954 0.60598 0.0
H68 H 0.43004 0.60085 0.82875 0.0
H69 H 0.48131 0.63327 0.79262 0.0
H70 H 0.51057 0.64094 0.73362 0.0
H71 H 0.50772 0.62175 0.6724 0.0
Mn72 Mn 0.83317 0.45601 0.95607 0.0
Mn73 Mn 0.82396 0.52392 0.96898 0.0
C74 C 0.78059 0.44864 0.96268 0.0
C75 C 0.8347 0.41947 0.91232 0.0
C76 C 0.83953 0.48982 1.02856 0.0
O77 O 0.88002 0.49498 0.94583 0.0
O78 O 0.86995 0.53768 0.95259 0.0
C79 C 0.82945 0.54362 0.89437 0.0
N80 N 0.81237 0.53565 0.92527 0.0
C81 C 0.77015 0.54604 0.90105 0.0
C82 C 0.78738 0.55454 0.86899 0.0
C83 C 0.81707 0.55317 0.8656 0.0
C84 C 0.78355 0.53644 0.92868 0.0
H85 H 0.85237 0.54275 0.89176 0.0
C86 C 0.88946 0.52621 0.9454 0.0
O87 O 0.84532 0.41988 0.94409 0.0
O88 O 0.82636 0.44176 0.90593 0.0
N89 N 0.78126 0.51607 0.98507 0.0
C90 C 0.76732 0.50646 1.01757 0.0
C91 C 0.73732 0.50616 1.0252 0.0
C92 C 0.72246 0.5166 0.99971 0.0
C93 C 0.73757 0.52698 0.96671 0.0
C94 C 0.76741 0.52668 0.96057 0.0
H95 H 0.77897 0.49901 0.03748 0.0
O96 O 0.78588 0.42367 0.96506 0.0
O97 O 0.80603 0.47752 0.95352 0.0
O98 O 0.84043 0.4663 1.01066 0.0
O99 O 0.83463 0.51229 1.01461 0.0
C100 C 0.72401 0.53729 0.93953 0.0
C101 C 0.74016 0.54658 0.90664 0.0
H102 H 0.77798 0.56203 0.84678 0.0
H103 H 0.83045 0.55959 0.84091 0.0
H104 H 0.72584 0.49819 0.05077 0.0
H105 H 0.69946 0.51659 1.00575 0.0
H106 H 0.70089 0.53766 0.94348 0.0
H107 H 0.72924 0.554 0.8858 0.0
Mn108 Mn 0.4849 0.79181 0.38536 0.0
Mn109 Mn 0.4666 0.85246 0.40829 0.0
C110 C 0.43188 0.7774 0.40402 0.0
C111 C 0.48667 0.75679 0.34 0.0
C112 C 0.50195 0.82833 0.45721 0.0
O113 O 0.52415 0.83441 0.36452 0.0
O114 O 0.50722 0.87119 0.37906 0.0
C115 C 0.45062 0.86848 0.33822 0.0
N116 N 0.44175 0.85906 0.37217 0.0
C117 C 0.39193 0.86325 0.36613 0.0
C118 C 0.40048 0.87293 0.33106 0.0
C119 C 0.42987 0.8754 0.31701 0.0
C120 C 0.41339 0.85633 0.38586 0.0
H121 H 0.47347 0.87095 0.32752 0.0
C122 C 0.52742 0.86367 0.36415 0.0
O123 O 0.5038 0.76236 0.36884 0.0
O124 O 0.47023 0.77263 0.33718 0.0
N125 N 0.42752 0.83826 0.43669 0.0
C126 C 0.42208 0.82706 0.47046 0.0
C127 C 0.39336 0.82249 0.48815 0.0
C128 C 0.37091 0.83014 0.47123 0.0
C129 C 0.37701 0.84162 0.43649 0.0
C130 C 0.40598 0.84555 0.42013 0.0
H131 H 0.43959 0.82181 0.48388 0.0
O132 O 0.4419 0.75561 0.40436 0.0
O133 O 0.45262 0.80695 0.39153 0.0
O134 O 0.50223 0.80584 0.43723 0.0
O135 O 0.49107 0.84758 0.44737 0.0
C136 C 0.35547 0.84929 0.41742 0.0
C137 C 0.36287 0.85999 0.38223 0.0
H138 H 0.38463 0.87845 0.31466 0.0
H139 H 0.43669 0.88295 0.29001 0.0
H140 H 0.38878 0.81356 0.51495 0.0
H141 H 0.34911 0.82716 0.4852 0.0
H142 H 0.33287 0.8465 0.42938 0.0
H143 H 0.34583 0.86526 0.36767 0.0
Mn144 Mn 0.51268 0.37063 0.6144 0.0
Mn145 Mn 0.44271 0.29406 0.62325 0.0
C146 C 0.51778 0.32381 0.6182 0.0
C147 C 0.55099 0.41073 0.57328 0.0
C148 C 0.47717 0.3399 0.6856 0.0
O149 O 0.47508 0.38089 0.60551 0.0
O150 O 0.43106 0.32848 0.60944 0.0
C151 C 0.42489 0.28508 0.54793 0.0
N152 N 0.43164 0.27358 0.57797 0.0
C153 C 0.42213 0.22291 0.54938 0.0
C154 C 0.41488 0.23411 0.51816 0.0
C155 C 0.4164 0.26539 0.51741 0.0
C156 C 0.4307 0.24375 0.57886 0.0
H157 H 0.426 0.30909 0.54729 0.0
C158 C 0.44364 0.35997 0.60426 0.0
O159 O 0.55003 0.4191 0.60572 0.0
O160 O 0.52815 0.38079 0.56473 0.0
N161 N 0.44836 0.25712 0.63678 0.0
C162 C 0.45531 0.24963 0.66919 0.0
C163 C 0.45474 0.21914 0.67447 0.0
C164 C 0.44599 0.19618 0.6467 0.0
C165 C 0.43781 0.20391 0.61391 0.0
C166 C 0.43889 0.23473 0.6102 0.0
H167 H 0.46154 0.26692 0.69081 0.0
O168 O 0.54353 0.35352 0.62159 0.0
O169 O 0.48958 0.32202 0.6093 0.0
O170 O 0.50142 0.36483 0.66889 0.0
O171 O 0.45416 0.31372 0.6702 0.0
C172 C 0.42887 0.18235 0.58468 0.0
C173 C 0.42124 0.19193 0.55238 0.0
H174 H 0.4082 0.21895 0.49459 0.0
H175 H 0.41094 0.27426 0.49339 0.0
H176 H 0.46086 0.21327 0.69992 0.0
H177 H 0.44563 0.1727 0.65084 0.0
H178 H 0.42806 0.15846 0.58669 0.0
H179 H 0.41465 0.17526 0.53003 0.0
Mn180 Mn 0.18519 0.68387 0.03899 0.0
Mn181 Mn 0.12213 0.60375 0.05418 0.0
C182 C 0.19766 0.64309 0.05421 0.0
C183 C 0.22251 0.72379 0.99706 0.0
C184 C 0.14702 0.65796 0.1099 0.0
O185 O 0.1443 0.68447 1.01902 0.0
O186 O 0.10573 0.63069 1.0304 0.0
C187 C 0.10786 0.58233 0.97994 0.0
N188 N 0.11529 0.57727 1.01314 0.0
C189 C 0.10869 0.52366 0.99733 0.0
C190 C 0.10094 0.52826 0.96295 0.0
C191 C 0.10068 0.55781 0.95419 0.0
C192 C 0.11604 0.54916 1.02174 0.0
H193 H 0.10718 0.60478 0.97323 0.0
C194 C 0.1144 0.65971 1.0182 0.0
O195 O 0.21647 0.73332 1.027 0.0
O196 O 0.20572 0.69187 0.9912 0.0
N197 N 0.1328 0.57328 0.07709 0.0
C198 C 0.14131 0.57295 0.11127 0.0
C199 C 0.1431 0.54528 0.12414 0.0
C200 C 0.13505 0.51778 0.10211 0.0
C201 C 0.1257 0.51836 0.06726 0.0
C202 C 0.12473 0.54677 0.05577 0.0
H203 H 0.14671 0.59364 0.12858 0.0
O204 O 0.21993 0.67466 0.05656 0.0
O205 O 0.16875 0.63556 0.04067 0.0
O206 O 0.16942 0.68268 0.09147 0.0
O207 O 0.12806 0.62866 0.09742 0.0
C208 C 0.11756 0.49198 0.04337 0.0
C209 C 0.10931 0.49473 1.00837 0.0
H210 H 0.09515 0.50929 0.94308 0.0
H211 H 0.09466 0.56153 0.92775 0.0
H212 H 0.15024 0.54496 0.15111 0.0
H213 H 0.13608 0.49631 0.11221 0.0
H214 H 0.11814 0.46971 0.05151 0.0
H215 H 0.10357 0.4745 0.99013 0.0
Mn216 Mn 0.78446 0.48532 0.36498 0.0
Mn217 Mn 0.84694 0.46809 0.34738 0.0
C218 C 0.77143 0.43216 0.34833 0.0
C219 C 0.74769 0.48754 0.40786 0.0
C220 C 0.82205 0.499 0.29362 0.0
O221 O 0.82577 0.52627 0.3854 0.0
O222 O 0.86388 0.51084 0.37262 0.0
C223 C 0.86186 0.45883 0.42071 0.0
N224 N 0.85401 0.44724 0.3872 0.0
C225 C 0.861 0.39995 0.40032 0.0
C226 C 0.86917 0.41136 0.43499 0.0
C227 C 0.86943 0.44085 0.44526 0.0
C228 C 0.85326 0.4187 0.37716 0.0
H229 H 0.8626 0.48175 0.42855 0.0
C230 C 0.85555 0.53109 0.3858 0.0
O231 O 0.7537 0.50367 0.37829 0.0
O232 O 0.76418 0.472 0.41285 0.0
N233 N 0.83565 0.42745 0.32295 0.0
C234 C 0.82639 0.41937 0.28878 0.0
C235 C 0.82437 0.39026 0.27452 0.0
C236 C 0.8329 0.37035 0.29516 0.0
C237 C 0.8429 0.37944 0.33005 0.0
C238 C 0.84408 0.40851 0.34296 0.0
H239 H 0.82063 0.43505 0.27252 0.0
O240 O 0.74935 0.44171 0.34678 0.0
O241 O 0.80053 0.45325 0.36178 0.0
O242 O 0.7998 0.50088 0.31267 0.0
O243 O 0.84103 0.48837 0.30519 0.0
C244 C 0.8515 0.36066 0.35262 0.0
C245 C 0.86031 0.37078 0.3878 0.0
H246 H 0.87527 0.3977 0.45394 0.0
H247 H 0.87578 0.44987 0.47194 0.0
H248 H 0.81671 0.38345 0.24753 0.0
H249 H 0.83176 0.34816 0.28394 0.0
H250 H 0.85082 0.33806 0.34336 0.0
H251 H 0.86636 0.35585 0.40504 0.0
Mn252 Mn 0.45922 0.84359 0.79302 0.0
Mn253 Mn 0.52939 0.83749 0.78416 0.0
C254 C 0.45437 0.79175 0.78933 0.0
C255 C 0.42084 0.84529 0.83401 0.0
C256 C 0.49463 0.84825 0.72178 0.0
O257 O 0.49669 0.89165 0.80169 0.0
O258 O 0.54086 0.8836 0.79773 0.0
C259 C 0.54728 0.84681 0.85946 0.0
N260 N 0.54055 0.82839 0.82952 0.0
C261 C 0.54997 0.78737 0.85846 0.0
C262 C 0.5572 0.80599 0.88958 0.0
C263 C 0.55573 0.83578 0.8901 0.0
C264 C 0.54145 0.79948 0.82884 0.0
H265 H 0.54619 0.86972 0.85994 0.0
C266 C 0.52817 0.9024 0.80285 0.0
O267 O 0.4218 0.8545 0.80154 0.0
O268 O 0.44377 0.8384 0.84269 0.0
N269 N 0.52396 0.79493 0.77084 0.0
C270 C 0.51729 0.78044 0.73843 0.0
C271 C 0.51796 0.75054 0.73334 0.0
C272 C 0.52653 0.73641 0.76129 0.0
C273 C 0.53447 0.75239 0.79407 0.0
C274 C 0.53333 0.78212 0.79758 0.0
H275 H 0.51119 0.79144 0.71669 0.0
O276 O 0.4285 0.79547 0.78606 0.0
O277 O 0.48251 0.81832 0.79815 0.0
O278 O 0.47038 0.84885 0.73853 0.0
O279 O 0.51779 0.84537 0.73715 0.0
C280 C 0.54331 0.73989 0.82344 0.0
C281 C 0.55085 0.75726 0.85567 0.0
H282 H 0.56385 0.79763 0.91324 0.0
H283 H 0.56117 0.85023 0.91404 0.0
H284 H 0.51204 0.73852 0.7079 0.0
H285 H 0.52694 0.7133 0.75728 0.0
H286 H 0.54415 0.71682 0.82159 0.0
H287 H 0.55739 0.74729 0.87813 0.0
Mn288 Mn 0.48507 0.29247 1.02195 0.0
Mn289 Mn 0.50271 0.37139 0.99954 0.0
C290 C 0.53799 0.33157 1.0034 0.0
C291 C 0.48331 0.25549 0.06704 0.0
C292 C 0.46798 0.31205 0.95021 0.0
O293 O 0.44554 0.29518 0.04282 0.0
O294 O 0.46211 0.34892 1.02873 0.0
C295 C 0.51838 0.403 0.06984 0.0
N296 N 0.5273 0.4028 0.03584 0.0
C297 C 0.57656 0.45734 0.04205 0.0
C298 C 0.56796 0.45812 0.07718 0.0
C299 C 0.53882 0.43076 0.09116 0.0
C300 C 0.55542 0.42885 1.02221 0.0
H301 H 0.49571 0.38229 0.08048 0.0
C302 C 0.44204 0.32102 0.04344 0.0
O303 O 0.46633 0.24401 0.03809 0.0
O304 O 0.49965 0.2878 0.07009 0.0
N305 N 0.54171 0.39687 0.9712 0.0
C306 C 0.54725 0.39146 0.93734 0.0
C307 C 0.57574 0.4161 0.91967 0.0
C308 C 0.59782 0.44633 0.93671 0.0
C309 C 0.59162 0.45137 0.97154 0.0
C310 C 0.56291 0.42583 0.98787 0.0
H311 H 0.52999 0.36861 0.92382 0.0
O312 O 0.52821 0.29979 1.00299 0.0
O313 O 0.51711 0.3401 1.01601 0.0
O314 O 0.46787 0.28927 0.97004 0.0
O315 O 0.47849 0.34207 0.96029 0.0
C316 C 0.6128 0.48069 0.99071 0.0
C317 C 0.60535 0.48362 1.02599 0.0
H318 H 0.58356 0.47956 0.09366 0.0
H319 H 0.53196 0.43122 0.11821 0.0
H320 H 0.58039 0.41202 0.8928 0.0
H321 H 0.61941 0.46553 0.92275 0.0
H322 H 0.63519 0.50088 0.97876 0.0
H323 H 0.62212 0.50604 0.04063 0.0
Mn324 Mn 0.13608 0.60428 0.44786 0.0
Mn325 Mn 0.14513 0.68119 0.43373 0.0
C326 C 0.1886 0.6496 0.44061 0.0
C327 C 0.135 0.56693 0.49224 0.0
C328 C 0.12903 0.6305 0.375 0.0
O329 O 0.08925 0.59639 0.45825 0.0
O330 O 0.09936 0.64916 0.45087 0.0
C331 C 0.14046 0.69685 0.50806 0.0
N332 N 0.1572 0.7054 0.47694 0.0
C333 C 0.19953 0.75869 0.49993 0.0
C334 C 0.18267 0.75055 0.5322 0.0
C335 C 0.15309 0.71942 0.53632 0.0
C336 C 0.1859 0.73506 0.47283 0.0
H337 H 0.11763 0.67301 0.51122 0.0
C338 C 0.0799 0.61824 0.45853 0.0
O339 O 0.12415 0.55619 0.46065 0.0
O340 O 0.14329 0.59765 0.49813 0.0
N341 N 0.18768 0.7158 0.41688 0.0
C342 C 0.20137 0.71943 0.38435 0.0
C343 C 0.23126 0.74906 0.37606 0.0
C344 C 0.24627 0.775 0.40092 0.0
C345 C 0.23146 0.77094 0.434 0.0
C346 C 0.20172 0.74082 0.44081 0.0
H347 H 0.1896 0.69984 0.3649 0.0
O348 O 0.18335 0.61933 0.43858 0.0
O349 O 0.16317 0.65302 0.4497 0.0
O350 O 0.12842 0.60642 0.39326 0.0
O351 O 0.13395 0.65806 0.3885 0.0
C352 C 0.24521 0.79545 0.4606 0.0
C353 C 0.2294 0.78923 0.49363 0.0
H354 H 0.19226 0.76795 0.55402 0.0
H355 H 0.13999 0.71292 0.56117 0.0
H356 H 0.24252 0.75205 0.35044 0.0
H357 H 0.26913 0.79797 0.39434 0.0
H358 H 0.26825 0.81895 0.45611 0.0
H359 H 0.24048 0.80806 0.51404 0.0
Mn360 Mn 0.67751 0.19397 0.6936 0.0
Mn361 Mn 0.59941 0.12886 0.6743 0.0
C362 C 0.6354 0.20444 0.67792 0.0
C363 C 0.71562 0.23043 0.73733 0.0
C364 C 0.6559 0.1579 0.62124 0.0
O365 O 0.67927 0.15339 0.71269 0.0
O366 O 0.62645 0.1134 0.69953 0.0
C367 C 0.57393 0.11101 0.74697 0.0
N368 N 0.57033 0.11931 0.71362 0.0
C369 C 0.51453 0.10857 0.72579 0.0
C370 C 0.51761 0.0999 0.76029 0.0
C371 C 0.54752 0.10131 0.77097 0.0
C372 C 0.54186 0.11847 0.70321 0.0
H373 H 0.59665 0.11151 0.75509 0.0
C374 C 0.65529 0.12304 0.71282 0.0
O375 O 0.72623 0.22599 0.70728 0.0
O376 O 0.68357 0.21286 0.74216 0.0
N377 N 0.56912 0.13875 0.64982 0.0
C378 C 0.57059 0.14889 0.61595 0.0
C379 C 0.54288 0.14949 0.60138 0.0
C380 C 0.51364 0.13878 0.62139 0.0
C381 C 0.51254 0.12805 0.65601 0.0
C382 C 0.54103 0.12829 0.66924 0.0
H383 H 0.59267 0.15634 0.60014 0.0
O384 O 0.66665 0.2279 0.67682 0.0
O385 O 0.62895 0.1754 0.69022 0.0
O386 O 0.67903 0.18071 0.64079 0.0
O387 O 0.62664 0.13703 0.63239 0.0
C388 C 0.48436 0.11729 0.67796 0.0
C389 C 0.48542 0.10773 0.71289 0.0
H390 H 0.49719 0.09215 0.77879 0.0
H391 H 0.55006 0.09459 0.79751 0.0
H392 H 0.54388 0.15771 0.5746 0.0
H393 H 0.49212 0.13875 0.6099 0.0
H394 H 0.46195 0.11682 0.66843 0.0
H395 H 0.46378 0.09998 0.72967 0.0
Mn396 Mn 0.3733 0.53049 0.12161 0.0
Mn397 Mn 0.29731 0.46031 0.11024 0.0
C398 C 0.32625 0.53525 0.11744 0.0
C399 C 0.41238 0.56774 0.16424 0.0
C400 C 0.34445 0.49667 0.04929 0.0
O401 O 0.38381 0.49288 0.12972 0.0
O402 O 0.3315 0.44883 0.12509 0.0
C403 C 0.28617 0.44086 0.18509 0.0
N404 N 0.27537 0.44785 0.1547 0.0
C405 C 0.22289 0.43533 0.18106 0.0
C406 C 0.23334 0.4278 0.21261 0.0
C407 C 0.26519 0.43074 0.21467 0.0
C408 C 0.24504 0.44565 0.1526 0.0
H409 H 0.31058 0.44297 0.1867 0.0
C410 C 0.36287 0.46141 0.13085 0.0
O411 O 0.42143 0.56785 0.13185 0.0
O412 O 0.38232 0.54456 0.17181 0.0
N413 N 0.26048 0.46564 0.09563 0.0
C414 C 0.25402 0.47343 0.06314 0.0
C415 C 0.22309 0.4715 0.05657 0.0
C416 C 0.19876 0.46075 0.08315 0.0
C417 C 0.20558 0.45197 0.11607 0.0
C418 C 0.23685 0.45437 0.12108 0.0
H419 H 0.27234 0.48111 0.04238 0.0
O420 O 0.35591 0.56124 0.11503 0.0
O421 O 0.32454 0.50692 0.12559 0.0
O422 O 0.36876 0.52083 0.06678 0.0
O423 O 0.3183 0.47294 0.06394 0.0
C424 C 0.18264 0.44109 0.14418 0.0
C425 C 0.19139 0.43303 0.17673 0.0
H426 H 0.21715 0.41981 0.23543 0.0
H427 H 0.27348 0.42507 0.23896 0.0
H428 H 0.2179 0.47799 1.03098 0.0
H429 H 0.17491 0.45927 0.078 0.0
H430 H 0.15834 0.43918 0.14114 0.0
H431 H 0.17368 0.42503 0.19824 0.0
C432 C 0.60707 0.14474 0.41743 0.0
C433 C 0.62862 0.13951 0.39558 0.0
C434 C 0.61267 0.14907 0.45422 0.0
C435 C 0.64083 0.1489 0.46953 0.0
C436 C 0.66243 0.14359 0.44758 0.0
C437 C 0.65581 0.13843 0.41152 0.0
C438 C 0.58852 0.15392 0.47676 0.0
C439 C 0.69294 0.1435 0.46217 0.0
C440 C 0.67312 0.18563 0.56163 0.0
C441 C 0.65947 0.15652 0.58237 0.0
C442 C 0.66731 0.1837 0.52495 0.0
C443 C 0.64693 0.15197 0.5086 0.0
C444 C 0.63414 0.12258 0.52935 0.0
C445 C 0.64082 0.12521 0.56555 0.0
C446 C 0.68218 0.21568 0.50382 0.0
C447 C 0.61237 0.08819 0.51351 0.0
H448 H 0.58621 0.14593 0.40583 0.0
H449 H 0.67285 0.13423 0.3956 0.0
H450 H 0.57783 0.1342 0.4973 0.0
H451 H 0.60204 0.17851 0.49038 0.0
H452 H 0.56762 0.15295 0.46127 0.0
H453 H 0.70879 0.167 0.47703 0.0
H454 H 0.68502 0.12227 0.4807 0.0
H455 H 0.70853 0.14119 0.44133 0.0
H456 H 0.68672 0.20996 0.57429 0.0
H457 H 0.62977 0.10251 0.58126 0.0
H458 H 0.66175 0.21885 0.49246 0.0
H459 H 0.69702 0.21428 0.48163 0.0
H460 H 0.69864 0.23817 0.51989 0.0
H461 H 0.59021 0.08702 0.50057 0.0
H462 H 0.60343 0.06783 0.53336 0.0
H463 H 0.62655 0.08333 0.49307 0.0
C464 C 0.29827 0.49697 0.84374 0.0
C465 C 0.3136 0.4834 0.82271 0.0
C466 C 0.30368 0.50044 0.88052 0.0
C467 C 0.32541 0.49072 0.89665 0.0
C468 C 0.34 0.47609 0.87557 0.0
C469 C 0.3336 0.47225 0.83932 0.0
C470 C 0.28685 0.51533 0.90202 0.0
C471 C 0.36335 0.46534 0.89113 0.0
C472 C 0.36357 0.52346 0.98843 0.0
C473 C 0.34309 0.49571 1.00975 0.0
C474 C 0.35816 0.52246 0.95163 0.0
C475 C 0.33122 0.49337 0.93578 0.0
C476 C 0.31076 0.46542 0.95719 0.0
C477 C 0.31726 0.46671 0.99328 0.0
C478 C 0.38114 0.55259 0.92967 0.0
C479 C 0.28158 0.43394 0.94201 0.0
H480 H 0.28349 0.50645 0.83131 0.0
H481 H 0.34584 0.46194 0.82346 0.0
H482 H 0.27249 0.49815 0.92384 0.0
H483 H 0.30614 0.53934 0.9139 0.0
H484 H 0.26952 0.5202 0.88609 0.0
H485 H 0.37372 0.45556 0.87101 0.0
H486 H 0.38454 0.48692 0.90463 0.0
H487 H 0.34988 0.44548 0.91105 0.0
H488 H 0.38335 0.5461 1.00047 0.0
H489 H 0.30111 0.44474 1.00884 0.0
H490 H 0.36643 0.56256 0.91653 0.0
H491 H 0.39286 0.5451 0.90877 0.0
H492 H 0.4013 0.57298 0.94552 0.0
H493 H 0.26468 0.44033 0.92739 0.0
H494 H 0.26666 0.41517 0.9625 0.0
H495 H 0.29089 0.42213 0.92315 0.0
C496 C 0.79663 0.49389 0.23329 0.0
C497 C 0.82497 0.50492 0.25484 0.0
C498 C 0.79883 0.49076 0.19651 0.0
C499 C 0.8299 0.49816 0.18093 0.0
C500 C 0.85866 0.51036 0.20253 0.0
C501 C 0.85594 0.51404 0.23876 0.0
C502 C 0.7677 0.47863 0.17442 0.0
C503 C 0.89229 0.51843 0.18757 0.0
C504 C 0.83191 0.46333 0.08934 0.0
C505 C 0.84131 0.49153 0.06797 0.0
C506 C 0.82814 0.46497 0.12614 0.0
C507 C 0.83319 0.49525 0.14191 0.0
C508 C 0.8433 0.52378 0.12047 0.0
C509 C 0.84776 0.52173 0.08434 0.0
C510 C 0.81826 0.43417 0.14815 0.0
C511 C 0.84878 0.55654 0.13559 0.0
H512 H 0.77247 0.48604 0.2453 0.0
H513 H 0.87805 0.52245 0.25503 0.0
H514 H 0.77252 0.49651 0.15266 0.0
H515 H 0.76094 0.45405 0.16244 0.0
H516 H 0.74597 0.4757 0.18994 0.0
H517 H 0.91207 0.52674 0.20802 0.0
H518 H 0.89007 0.49594 0.17426 0.0
H519 H 0.90052 0.53855 0.1676 0.0
H520 H 0.82648 0.4398 0.07728 0.0
H521 H 0.85536 0.54399 0.06854 0.0
H522 H 0.79354 0.42584 0.16059 0.0
H523 H 0.83675 0.44022 0.16958 0.0
H524 H 0.81665 0.41306 0.13246 0.0
H525 H 0.82584 0.55236 0.14955 0.0
H526 H 0.85507 0.57601 0.11516 0.0
H527 H 0.86946 0.56641 0.15504 0.0
C528 C 0.49504 0.80173 0.51677 0.0
C529 C 0.50924 0.83057 0.4956 0.0
C530 C 0.49206 0.80403 0.55352 0.0
C531 C 0.50301 0.83583 0.56948 0.0
C532 C 0.51868 0.86501 0.54832 0.0
C533 C 0.52189 0.86204 0.51202 0.0
C534 C 0.47604 0.77231 0.57511 0.0
C535 C 0.5308 0.89946 0.56377 0.0
C536 C 0.46947 0.84208 0.66033 0.0
C537 C 0.49638 0.84799 0.68231 0.0
C538 C 0.47108 0.83799 0.62358 0.0
C539 C 0.49994 0.83914 0.60846 0.0
C540 C 0.52708 0.84531 0.63051 0.0
C541 C 0.52521 0.85016 0.66658 0.0
C542 C 0.44184 0.83222 0.60088 0.0
C543 C 0.55822 0.84644 0.61608 0.0
H544 H 0.48433 0.77727 0.50442 0.0
H545 H 0.5325 0.88448 0.49592 0.0
H546 H 0.49263 0.77465 0.59735 0.0
H547 H 0.45211 0.76833 0.58641 0.0
H548 H 0.47076 0.74985 0.55938 0.0
H549 H 0.54211 0.91966 0.54374 0.0
H550 H 0.50951 0.90035 0.57634 0.0
H551 H 0.54977 0.90479 0.58445 0.0
H552 H 0.447 0.84005 0.67181 0.0
H553 H 0.54655 0.85493 0.68268 0.0
H554 H 0.4313 0.80757 0.58747 0.0
H555 H 0.45046 0.85176 0.58018 0.0
H556 H 0.42157 0.8327 0.61623 0.0
H557 H 0.55127 0.8229 0.6016 0.0
H558 H 0.57645 0.8497 0.63696 0.0
H559 H 0.5709 0.86749 0.59722 0.0
C560 C 0.47535 0.29262 0.89065 0.0
C561 C 0.46107 0.30722 0.91173 0.0
C562 C 0.47863 0.29806 0.85393 0.0
C563 C 0.4679 0.31903 0.8379 0.0
C564 C 0.45218 0.33253 0.85896 0.0
C565 C 0.44865 0.32617 0.89522 0.0
C566 C 0.49468 0.28236 0.83244 0.0
C567 C 0.44031 0.355 0.84344 0.0
C568 C 0.50203 0.35893 0.74719 0.0
C569 C 0.4752 0.33795 0.72506 0.0
C570 C 0.5002 0.3532 0.78395 0.0
C571 C 0.47119 0.32548 0.79893 0.0
C572 C 0.44413 0.30455 0.77674 0.0
C573 C 0.44622 0.31132 0.74067 0.0
C574 C 0.52937 0.37665 0.80679 0.0
C575 C 0.41283 0.27453 0.79102 0.0
H576 H 0.48587 0.27876 0.90306 0.0
H577 H 0.43796 0.33795 0.91124 0.0
H578 H 0.47819 0.26814 0.81011 0.0
H579 H 0.5187 0.30234 0.82128 0.0
H580 H 0.49981 0.26511 0.84821 0.0
H581 H 0.429 0.36392 0.8634 0.0
H582 H 0.46173 0.37718 0.83098 0.0
H583 H 0.42142 0.34141 0.82266 0.0
H584 H 0.52462 0.37937 0.73581 0.0
H585 H 0.42493 0.29477 0.72446 0.0
H586 H 0.5398 0.36249 0.82022 0.0
H587 H 0.5207 0.38753 0.82748 0.0
H588 H 0.54973 0.39746 0.79156 0.0
H589 H 0.41961 0.25787 0.80555 0.0
H590 H 0.39468 0.25961 0.77005 0.0
H591 H 0.40014 0.28294 0.8098 0.0
C592 C 0.1381 0.61233 0.31455 0.0
C593 C 0.12693 0.62982 0.33564 0.0
C594 C 0.14201 0.61781 0.27777 0.0
C595 C 0.13528 0.6418 0.26176 0.0
C596 C 0.12328 0.65879 0.2829 0.0
C597 C 0.11876 0.65221 0.31904 0.0
C598 C 0.15392 0.59838 0.25609 0.0
C599 C 0.11591 0.6847 0.26751 0.0
C600 C 0.17164 0.67851 0.17067 0.0
C601 C 0.14376 0.65995 0.14883 0.0
C602 C 0.16935 0.67309 0.20745 0.0
C603 C 0.13873 0.64805 0.22274 0.0
C604 C 0.11041 0.63009 0.20084 0.0
C605 C 0.11312 0.63662 0.16465 0.0
C606 C 0.19995 0.69358 0.22989 0.0
C607 C 0.07729 0.60301 0.21545 0.0
H608 H 0.14492 0.59535 0.32684 0.0
H609 H 0.10985 0.66584 0.33469 0.0
H610 H 0.13602 0.58521 0.23436 0.0
H611 H 0.17853 0.61595 0.24406 0.0
H612 H 0.15661 0.57959 0.27192 0.0
H613 H 0.10817 0.69685 0.28774 0.0
H614 H 0.1385 0.70448 0.25387 0.0
H615 H 0.0956 0.67283 0.24773 0.0
H616 H 0.19556 0.69606 0.15893 0.0
H617 H 0.0913 0.622 0.14824 0.0
H618 H 0.20792 0.67685 0.2422 0.0
H619 H 0.19385 0.70589 0.25141 0.0
H620 H 0.2213 0.71318 0.21456 0.0
H621 H 0.08087 0.58374 0.22912 0.0
H622 H 0.05794 0.59042 0.19475 0.0
H623 H 0.06763 0.61389 0.23505 0.0
C624 C 0.74126 0.38585 0.3069 0.0
C625 C 0.76185 0.39846 0.33642 0.0
C626 C 0.72667 0.35205 0.29786 0.0
C627 C 0.73484 0.33106 0.31763 0.0
C628 C 0.75707 0.34419 0.34646 0.0
C629 C 0.76902 0.37752 0.35659 0.0
C630 C 0.70035 0.33838 0.26924 0.0
C631 C 0.76761 0.32288 0.36687 0.0
C632 C 0.66656 0.24147 0.32773 0.0
C633 C 0.6709 0.22687 0.29753 0.0
C634 C 0.68734 0.27546 0.33459 0.0
C635 C 0.7151 0.29453 0.3123 0.0
C636 C 0.72097 0.27935 0.2829 0.0
C637 C 0.69761 0.24584 0.27483 0.0
C638 C 0.67775 0.29121 0.36398 0.0
C639 C 0.75163 0.29838 0.26009 0.0
H640 H 0.73512 0.40214 0.29198 0.0
H641 H 0.78355 0.38708 0.38043 0.0
H642 H 0.70872 0.32878 0.24711 0.0
H643 H 0.67662 0.31707 0.27942 0.0
H644 H 0.6949 0.35771 0.25884 0.0
H645 H 0.78538 0.33714 0.38835 0.0
H646 H 0.74566 0.30067 0.3784 0.0
H647 H 0.77967 0.31324 0.34874 0.0
H648 H 0.6452 0.22668 0.3447 0.0
H649 H 0.69988 0.2347 0.2507 0.0
H650 H 0.67847 0.31447 0.35482 0.0
H651 H 0.69563 0.29814 0.38606 0.0
H652 H 0.65219 0.27391 0.3743 0.0
H653 H 0.75071 0.2839 0.2364 0.0
H654 H 0.77413 0.30377 0.27562 0.0
H655 H 0.75503 0.32296 0.25179 0.0
C656 C 0.43399 0.74732 0.74596 0.0
C657 C 0.45047 0.75991 0.77784 0.0
C658 C 0.42008 0.71351 0.73766 0.0
C659 C 0.42554 0.69248 0.76059 0.0
C660 C 0.44507 0.70596 0.79136 0.0
C661 C 0.45589 0.73936 0.80058 0.0
C662 C 0.3977 0.70082 0.70558 0.0
C663 C 0.45426 0.68521 0.81456 0.0
C664 C 0.35524 0.60307 0.76652 0.0
C665 C 0.36215 0.58868 0.7378 0.0
C666 C 0.37623 0.63682 0.77482 0.0
C667 C 0.40612 0.65587 0.75528 0.0
C668 C 0.41391 0.64097 0.72707 0.0
C669 C 0.39083 0.60784 0.71757 0.0
C670 C 0.36496 0.65247 0.8027 0.0
C671 C 0.44585 0.66043 0.70622 0.0
H672 H 0.42953 0.76346 0.7287 0.0
H673 H 0.46786 0.74915 0.82569 0.0
H674 H 0.38 0.67337 0.70577 0.0
H675 H 0.38269 0.71356 0.70306 0.0
H676 H 0.41361 0.70733 0.68178 0.0
H677 H 0.46658 0.69846 0.83927 0.0
H678 H 0.43211 0.66066 0.82117 0.0
H679 H 0.4719 0.67984 0.80006 0.0
H680 H 0.33241 0.58824 0.78148 0.0
H681 H 0.39494 0.59705 0.69416 0.0
H682 H 0.36651 0.67589 0.79275 0.0
H683 H 0.38145 0.65915 0.82601 0.0
H684 H 0.33876 0.63524 0.81138 0.0
H685 H 0.44573 0.68121 0.69174 0.0
H686 H 0.44923 0.64435 0.68686 0.0
H687 H 0.4677 0.67184 0.72428 0.0
C688 C 0.59157 0.38316 1.0165 0.0
C689 C 0.57262 0.35574 0.99456 0.0
C690 C 0.62561 0.40492 1.00986 0.0
C691 C 0.64125 0.39719 0.98243 0.0
C692 C 0.62226 0.36885 0.96073 0.0
C693 C 0.58785 0.34883 0.96666 0.0
C694 C 0.64498 0.43566 1.03257 0.0
C695 C 0.63856 0.35812 0.93312 0.0
C696 C 0.72913 0.45055 0.94753 0.0
C697 C 0.74703 0.44211 0.97092 0.0
C698 C 0.69489 0.43859 0.95291 0.0
C699 C 0.67807 0.41511 0.98007 0.0
C700 C 0.6961 0.40586 1.00315 0.0
C701 C 0.73066 0.42065 0.9991 0.0
C702 C 0.67678 0.45084 0.92961 0.0
C703 C 0.67876 0.37836 1.03024 0.0
H704 H 0.5799 0.38718 0.03921 0.0
H705 H 0.57304 0.32688 0.95043 0.0
H706 H 0.66578 0.43498 0.04641 0.0
H707 H 0.65656 0.45827 1.01568 0.0
H708 H 0.62882 0.43829 0.05243 0.0
H709 H 0.65119 0.37807 0.91314 0.0
H710 H 0.65807 0.35398 0.94539 0.0
H711 H 0.62017 0.33462 0.91956 0.0
H712 H 0.74166 0.46574 0.92474 0.0
H713 H 0.74465 0.4135 1.01655 0.0
H714 H 0.66876 0.4656 0.94583 0.0
H715 H 0.65378 0.42961 0.9182 0.0
H716 H 0.69292 0.46702 0.90797 0.0
H717 H 0.66655 0.38589 0.05045 0.0
H718 H 0.69644 0.37222 0.04367 0.0
H719 H 0.65882 0.35516 1.01757 0.0
C720 C 0.37828 0.77473 0.38986 0.0
C721 C 0.39704 0.76645 0.41224 0.0
C722 C 0.34407 0.76196 0.39577 0.0
C723 C 0.32813 0.73836 0.42297 0.0
C724 C 0.34695 0.72924 0.44513 0.0
C725 C 0.38149 0.74405 0.43988 0.0
C726 C 0.32485 0.77306 0.37255 0.0
C727 C 0.33038 0.70202 0.47254 0.0
C728 C 0.23967 0.70323 0.4562 0.0
C729 C 0.22225 0.67673 0.43278 0.0
C730 C 0.27395 0.72571 0.45135 0.0
C731 C 0.29129 0.71915 0.42471 0.0
C732 C 0.27374 0.69175 0.40157 0.0
C733 C 0.23915 0.67171 0.4051 0.0
C734 C 0.29158 0.75615 0.4747 0.0
C735 C 0.29163 0.68183 0.37496 0.0
H736 H 0.39024 0.79064 0.36735 0.0
H737 H 0.39619 0.73706 0.45643 0.0
H738 H 0.30432 0.75143 0.35854 0.0
H739 H 0.31295 0.78396 0.38912 0.0
H740 H 0.3412 0.79194 0.35283 0.0
H741 H 0.34871 0.6973 0.4867 0.0
H742 H 0.31703 0.70893 0.49205 0.0
H743 H 0.31142 0.67824 0.45993 0.0
H744 H 0.22673 0.70583 0.47864 0.0
H745 H 0.22551 0.65045 0.38764 0.0
H746 H 0.30027 0.77896 0.45833 0.0
H747 H 0.31411 0.75772 0.48705 0.0
H748 H 0.2749 0.75633 0.49564 0.0
H749 H 0.30435 0.70179 0.35503 0.0
H750 H 0.27424 0.6581 0.36114 0.0
H751 H 0.31126 0.67848 0.38817 0.0
C752 C 0.51618 0.26999 0.60603 0.0
C753 C 0.52192 0.29588 0.62909 0.0
C754 C 0.52703 0.24734 0.61465 0.0
C755 C 0.54688 0.25323 0.64511 0.0
C756 C 0.55276 0.27971 0.66831 0.0
C757 C 0.53883 0.29967 0.66064 0.0
C758 C 0.51746 0.21743 0.5912 0.0
C759 C 0.5755 0.28918 0.70007 0.0
C760 C 0.58122 0.20278 0.68725 0.0
C761 C 0.60988 0.21243 0.66697 0.0
C762 C 0.55821 0.21292 0.67797 0.0
C763 C 0.56605 0.23579 0.64992 0.0
C764 C 0.59584 0.24663 0.63024 0.0
C765 C 0.61679 0.23383 0.63835 0.0
C766 C 0.52632 0.20037 0.69891 0.0
C767 C 0.60711 0.27367 0.60248 0.0
H768 H 0.50391 0.26792 0.58115 0.0
H769 H 0.54355 0.32022 0.67813 0.0
H770 H 0.49986 0.19436 0.60569 0.0
H771 H 0.50497 0.21854 0.56671 0.0
H772 H 0.53946 0.21495 0.5842 0.0
H773 H 0.55989 0.2792 0.72401 0.0
H774 H 0.59343 0.27978 0.69904 0.0
H775 H 0.59029 0.31694 0.70309 0.0
H776 H 0.57709 0.18776 0.71056 0.0
H777 H 0.63961 0.2419 0.62335 0.0
H778 H 0.50446 0.19003 0.68088 0.0
H779 H 0.52654 0.22124 0.71356 0.0
H780 H 0.52289 0.18077 0.71811 0.0
H781 H 0.59022 0.26413 0.57945 0.0
H782 H 0.63309 0.2823 0.59329 0.0
H783 H 0.60615 0.29574 0.61284 0.0
C784 C 0.20041 0.59107 0.04544 0.0
C785 C 0.20667 0.61861 0.06617 0.0
C786 C 0.2122 0.56963 0.05572 0.0
C787 C 0.23345 0.57819 0.08536 0.0
C788 C 0.24055 0.60673 0.10584 0.0
C789 C 0.22596 0.62584 0.09659 0.0
C790 C 0.20241 0.53822 1.0347 0.0
C791 C 0.26502 0.61876 0.13623 0.0
C792 C 0.27113 0.53112 0.12893 0.0
C793 C 0.29829 0.53944 0.10672 0.0
C794 C 0.24747 0.54065 0.12032 0.0
C795 C 0.2534 0.56169 0.09088 0.0
C796 C 0.28168 0.57106 0.06916 0.0
C797 C 0.30279 0.55839 0.07651 0.0
C798 C 0.21658 0.52868 0.14279 0.0
C799 C 0.29147 0.59648 0.0398 0.0
H800 H 0.18667 0.58658 1.0211 0.0
H801 H 0.23117 0.64767 0.11218 0.0
H802 H 0.22474 0.53827 1.02392 0.0
H803 H 0.18974 0.51609 0.05224 0.0
H804 H 0.18538 0.53512 1.01261 0.0
H805 H 0.28539 0.6128 0.13272 0.0
H806 H 0.27681 0.64636 0.13991 0.0
H807 H 0.25137 0.60673 0.16076 0.0
H808 H 0.26875 0.51773 0.1531 0.0
H809 H 0.32447 0.5654 0.05992 0.0
H810 H 0.19407 0.51312 0.12652 0.0
H811 H 0.21429 0.55004 0.15276 0.0
H812 H 0.21649 0.5135 0.16547 0.0
H813 H 0.27588 0.5844 1.01632 0.0
H814 H 0.31815 0.60708 1.032 0.0
H815 H 0.28773 0.61764 0.04755 0.0
C816 C 0.61731 0.0365 0.26297 0.0
C817 C 0.59481 0.04731 0.27281 0.0
C818 C 0.6101 0.00354 0.2696 0.0
C819 C 0.57983 0.98103 0.28672 0.0
C820 C 0.55552 -0.00927 0.29329 0.0
C821 C 0.56327 0.02381 0.28609 0.0
C822 C 0.63619 -0.00611 0.26113 0.0
C823 C 0.52259 0.96719 0.31098 0.0
C824 C 0.54586 0.88876 0.30575 0.0
C825 C 0.5525 0.89022 0.34175 0.0
C826 C 0.55727 0.91839 0.28614 0.0
C827 C 0.57573 0.94985 0.30316 0.0
C828 C 0.58605 0.95114 0.33842 0.0
C829 C 0.57415 0.92121 0.35733 0.0
C830 C 0.54625 0.91582 0.24849 0.0
C831 C 0.60627 0.98413 0.35749 0.0
H832 H 0.64154 0.05441 0.25206 0.0
H833 H 0.54572 0.03191 0.29361 0.0
H834 H 0.6501 -0.00486 0.28537 0.0
H835 H 0.62427 0.96777 0.25108 0.0
H836 H 0.65455 0.01107 0.24144 0.0
H837 H 0.50499 0.97711 0.31068 0.0
H838 H 0.51028 0.94226 0.29799 0.0
H839 H 0.52731 0.96336 0.33868 0.0
H840 H 0.52851 0.86477 0.29389 0.0
H841 H 0.57877 0.92223 0.38532 0.0
H842 H 0.5657 0.9365 0.2324 0.0
H843 H 0.52313 0.91766 0.24737 0.0
H844 H 0.54049 0.89139 0.23674 0.0
H845 H 0.62808 0.00198 0.34148 0.0
H846 H 0.61557 0.98089 0.38324 0.0
H847 H 0.59036 -0.00439 0.36206 0.0
C848 C 0.32271 0.40383 0.68821 0.0
C849 C 0.31395 0.42549 0.6717 0.0
C850 C 0.33798 0.38897 0.66935 0.0
C851 C 0.34475 0.39624 0.63318 0.0
C852 C 0.3318 0.41441 0.61556 0.0
C853 C 0.31636 0.42884 0.63515 0.0
C854 C 0.35071 0.36913 0.68915 0.0
C855 C 0.33771 0.42211 0.57694 0.0
C856 C 0.42908 0.40511 0.61268 0.0
C857 C 0.41957 0.37242 0.60187 0.0
C858 C 0.40478 0.41419 0.62004 0.0
C859 C 0.37024 0.39003 0.61619 0.0
C860 C 0.36078 0.35832 0.60145 0.0
C861 C 0.38556 0.34982 0.59458 0.0
C862 C 0.41599 0.44863 0.63502 0.0
C863 C 0.32438 0.33229 0.59581 0.0
H864 H 0.32114 0.40163 0.71656 0.0
H865 H 0.31007 0.44608 0.62247 0.0
H866 H 0.34487 0.34591 0.67469 0.0
H867 H 0.37841 0.38445 0.69179 0.0
H868 H 0.33965 0.36208 0.71583 0.0
H869 H 0.31868 0.42752 0.56563 0.0
H870 H 0.36282 0.44466 0.57314 0.0
H871 H 0.33719 0.40102 0.56226 0.0
H872 H 0.45527 0.42281 0.61812 0.0
H873 H 0.37801 0.32467 0.58551 0.0
H874 H 0.40881 0.44629 0.6631 0.0
H875 H 0.40335 0.4605 0.62126 0.0
H876 H 0.44358 0.46555 0.63299 0.0
H877 H 0.3131 0.32002 0.62118 0.0
H878 H 0.32157 0.31254 0.57707 0.0
H879 H 0.30998 0.34401 0.58589 0.0
C880 C 0.95004 0.5431 0.95041 0.0
C881 C 0.92554 0.55127 0.94113 0.0
C882 C 0.98354 0.56836 0.95551 0.0
C883 C -0.00725 0.60252 0.95076 0.0
C884 C 0.96892 0.61055 0.93762 0.0
C885 C 0.9355 0.58484 0.93321 0.0
C886 C 0.00836 0.55863 0.96907 0.0
C887 C 0.97796 0.64645 0.93093 0.0
C888 C 0.0586 0.65377 1.01774 0.0
C889 C 0.08784 0.66173 0.99918 0.0
C890 C 0.02725 0.63758 1.00114 0.0
C891 C 0.02535 0.62924 0.96512 0.0
C892 C 0.05525 0.6416 0.9453 0.0
C893 C 0.08636 0.65778 0.96269 0.0
C894 C -0.00393 0.62542 1.02327 0.0
C895 C 0.05445 0.63423 0.90668 0.0
H896 H 0.94262 0.51725 0.95639 0.0
H897 H 0.9168 0.59131 0.92536 0.0
H898 H 0.03176 0.5709 0.95336 0.0
H899 H 0.01517 0.56735 0.99656 0.0
H900 H -0.00191 0.53103 0.9684 0.0
H901 H 0.95962 0.64789 0.91311 0.0
H902 H 0.97799 0.65851 0.95613 0.0
H903 H 0.00343 0.66108 0.9194 0.0
H904 H 0.05984 0.65653 0.04605 0.0
H905 H 0.109 0.6635 0.94842 0.0
H906 H 0.98415 0.59786 1.02711 0.0
H907 H 0.97755 0.63035 1.00998 0.0
H908 H 0.0018 0.63765 0.04946 0.0
H909 H 0.05171 0.60902 0.90318 0.0
H910 H 0.07807 0.6529 0.89358 0.0
H911 H 0.0329 0.63414 0.89351 0.0
C912 C 0.01918 0.57495 0.45321 0.0
C913 C 0.04392 0.60734 0.4632 0.0
C914 C -0.0142 0.56714 0.44831 0.0
C915 C 0.97698 0.59224 0.45401 0.0
C916 C 0.00105 0.62373 0.4679 0.0
C917 C 0.03433 0.63102 0.47206 0.0
C918 C 0.96073 0.53298 0.43392 0.0
C919 C -0.00759 0.65069 0.47564 0.0
C920 C 0.9118 0.58041 0.38736 0.0
C921 C 0.88232 0.55895 0.40552 0.0
C922 C 0.94306 0.59463 0.40408 0.0
C923 C 0.94461 0.5871 0.43982 0.0
C924 C 0.91456 0.56939 0.45938 0.0
C925 C 0.88356 0.5554 0.44187 0.0
C926 C 0.97441 0.61386 0.38223 0.0
C927 C 0.91502 0.56168 0.49773 0.0
H928 H 0.02634 0.55649 0.44647 0.0
H929 H 0.05325 0.65598 0.48044 0.0
H930 H 0.93725 0.52169 0.44952 0.0
H931 H 0.95413 0.53566 0.40658 0.0
H932 H 0.97066 0.51539 0.43391 0.0
H933 H 0.01089 0.67001 0.49378 0.0
H934 H -0.00751 0.66333 0.45085 0.0
H935 H 0.96697 0.63978 0.48728 0.0
H936 H 0.91074 0.58274 0.35915 0.0
H937 H 0.86073 0.53835 0.45581 0.0
H938 H -0.01404 0.59799 0.37777 0.0
H939 H -0.00688 0.6369 0.39608 0.0
H940 H 0.96901 0.62113 0.35632 0.0
H941 H 0.91719 0.53881 0.50035 0.0
H942 H 0.8915 0.5568 0.51097 0.0
H943 H 0.93674 0.58256 0.51139 0.0
C944 C 0.65502 0.09871 0.77027 0.0
C945 C 0.65739 0.09746 0.73375 0.0
C946 C 0.63958 0.06898 0.79013 0.0
C947 C 0.62658 0.03766 0.7728 0.0
C948 C 0.63325 0.03685 0.73665 0.0
C949 C 0.64852 0.06686 0.71752 0.0
C950 C 0.63375 0.07109 0.82872 0.0
C951 C 0.62047 0.00408 0.71717 0.0
C952 C 0.58617 0.95071 0.81222 0.0
C953 C 0.55212 0.93902 0.80499 0.0
C954 C 0.61084 0.98402 0.80507 0.0
C955 C 0.60122 0.00603 0.7901 0.0
C956 C 0.56664 -0.0046 0.78632 0.0
C957 C 0.54245 0.962 0.79396 0.0
C958 C 0.64729 -0.00534 0.81064 0.0
C959 C 0.55527 0.01839 0.77109 0.0
H960 H 0.66138 0.12238 0.78273 0.0
H961 H 0.65006 0.06599 0.68919 0.0
H962 H 0.63435 0.05069 0.84362 0.0
H963 H 0.65278 0.0957 0.83982 0.0
H964 H 0.60864 0.06846 0.83247 0.0
H965 H 0.63141 0.00787 0.69045 0.0
H966 H 0.62641 0.98686 0.73179 0.0
H967 H 0.59275 -0.00844 0.71465 0.0
H968 H 0.59384 0.93327 0.82146 0.0
H969 H 0.51623 0.95331 0.78855 0.0
H970 H 0.66164 0.02089 0.82037 0.0
H971 H 0.65852 -0.00643 0.78529 0.0
H972 H 0.65024 0.97792 0.82951 0.0
H973 H 0.56793 0.04307 0.78458 0.0
H974 H 0.52768 0.0076 0.77327 0.0
H975 H 0.56229 0.02295 0.74296 0.0
C976 C 0.40647 0.44514 0.12076 0.0
C977 C 0.37498 0.43718 0.13406 0.0
C978 C 0.41418 0.41973 0.11397 0.0
C979 C 0.38988 0.38574 0.12097 0.0
C980 C 0.35974 0.37816 0.13822 0.0
C981 C 0.35255 0.40397 0.14441 0.0
C982 C 0.447 0.42895 0.09616 0.0
C983 C 0.3337 0.34248 0.14722 0.0
C984 C 0.39498 0.33111 0.05058 0.0
C985 C 0.41688 0.32209 0.06601 0.0
C986 C 0.38314 0.34914 0.06954 0.0
C987 C 0.39375 0.35848 0.10469 0.0
C988 C 0.41239 0.34568 0.12161 0.0
C989 C 0.42374 0.32746 0.10196 0.0
C990 C 0.36271 0.36167 0.05058 0.0
C991 C 0.42369 0.35441 0.15917 0.0
H992 H 0.42396 0.47073 0.11285 0.0
H993 H 0.32836 0.39774 0.15534 0.0
H994 H 0.45937 0.41651 0.10933 0.0
H995 H 0.44212 0.42005 0.06858 0.0
H996 H 0.46461 0.45651 0.09611 0.0
H997 H 0.31562 0.34155 0.1671 0.0
H998 H 0.31945 0.32951 0.12323 0.0
H999 H 0.34569 0.32837 0.15725 0.0
H1000 H 0.39017 0.32735 1.02263 0.0
H1001 H 0.44126 0.32104 0.11371 0.0
H1002 H 0.37854 0.38906 0.04577 0.0
H1003 H 0.34102 0.35773 0.06676 0.0
H1004 H 0.3532 0.3489 1.02494 0.0
H1005 H 0.44697 0.37931 0.16002 0.0
H1006 H 0.42931 0.3357 0.171 0.0
H1007 H 0.40447 0.35594 0.17534 0.0
C1008 C 0.50934 0.15116 0.2258 0.0
C1009 C 0.53645 0.14699 0.21594 0.0
C1010 C 0.49532 0.1646 0.20211 0.0
C1011 C 0.50888 0.17453 0.1678 0.0
C1012 C 0.53496 0.16856 0.15728 0.0
C1013 C 0.54814 0.1548 0.18119 0.0
C1014 C 0.4671 0.16976 0.21442 0.0
C1015 C 0.55063 0.17876 0.12134 0.0
C1016 C 0.46876 0.19854 0.09271 0.0
C1017 C 0.48673 0.23382 0.09438 0.0
C1018 C 0.47431 0.17876 0.11742 0.0
C1019 C 0.49887 0.19449 0.14417 0.0
C1020 C 0.51639 0.23005 0.14638 0.0
C1021 C 0.50996 0.24907 0.12184 0.0
C1022 C 0.4545 0.14101 0.11432 0.0
C1023 C 0.54312 0.24827 0.17386 0.0
H1024 H 0.5001 0.14543 0.25248 0.0
H1025 H 0.56894 0.15165 0.17299 0.0
H1026 H 0.47678 0.19692 0.21892 0.0
H1027 H 0.44722 0.16126 0.1941 0.0
H1028 H 0.45576 0.15608 0.23921 0.0
H1029 H 0.5689 0.17019 0.11614 0.0
H1030 H 0.53098 0.16835 0.10075 0.0
H1031 H 0.56389 0.20654 0.11897 0.0
H1032 H 0.45068 0.18635 0.07182 0.0
H1033 H 0.52412 0.27623 0.12363 0.0
H1034 H 0.44402 0.12953 0.1402 0.0
H1035 H 0.4713 0.13157 0.10574 0.0
H1036 H 0.4336 0.13246 0.09516 0.0
H1037 H 0.53277 0.23894 0.20038 0.0
H1038 H 0.55345 0.27587 0.17319 0.0
H1039 H 0.56404 0.24319 0.16972 0.0
C1040 C 0.15343 0.56249 0.55288 0.0
C1041 C 0.14318 0.5483 0.51928 0.0
C1042 C 0.16794 0.55039 0.57714 0.0
C1043 C 0.17216 0.52283 0.56822 0.0
C1044 C 0.15985 0.50686 0.53523 0.0
C1045 C 0.14572 0.51985 0.5111 0.0
C1046 C 0.18073 0.56865 0.61158 0.0
C1047 C 0.16308 0.47701 0.5247 0.0
C1048 C 0.24762 0.52399 0.61208 0.0
C1049 C 0.23332 0.50296 0.64136 0.0
C1050 C 0.22793 0.52962 0.58768 0.0
C1051 C 0.19261 0.5135 0.59195 0.0
C1052 C 0.17777 0.49115 0.62068 0.0
C1053 C 0.19824 0.48638 0.64515 0.0
C1054 C 0.24525 0.55403 0.55802 0.0
C1055 C 0.14028 0.4729 0.62609 0.0
H1056 H 0.15158 0.58437 0.55981 0.0
H1057 H 0.13811 0.50867 0.48531 0.0
H1058 H 0.171 0.55066 0.63375 0.0
H1059 H 0.20854 0.5811 0.61224 0.0
H1060 H 0.17344 0.58805 0.61575 0.0
H1061 H 0.14787 0.46423 0.50108 0.0
H1062 H 0.18975 0.4854 0.5189 0.0
H1063 H 0.15513 0.4586 0.54649 0.0
H1064 H 0.27462 0.53705 0.60865 0.0
H1065 H 0.18677 0.46998 0.66747 0.0
H1066 H 0.2414 0.57589 0.56086 0.0
H1067 H 0.2342 0.54195 0.53252 0.0
H1068 H 0.27266 0.56338 0.55729 0.0
H1069 H 0.13224 0.49112 0.63355 0.0
H1070 H 0.13216 0.45351 0.64695 0.0
H1071 H 0.12715 0.46067 0.60135 0.0
C1072 C 0.81687 0.3961 0.85175 0.0
C1073 C 0.82683 0.39246 0.88559 0.0
C1074 C 0.8026 0.36926 0.82769 0.0
C1075 C 0.79833 0.33755 0.83709 0.0
C1076 C 0.81037 0.33421 0.87035 0.0
C1077 C 0.82426 0.36156 0.89426 0.0
C1078 C 0.79009 0.37439 0.79292 0.0
C1079 C 0.80709 0.30122 0.88139 0.0
C1080 C 0.7233 0.26272 0.79313 0.0
C1081 C 0.73786 0.25586 0.76419 0.0
C1082 C 0.74277 0.28825 0.81748 0.0
C1083 C 0.77811 0.30754 0.81351 0.0
C1084 C 0.79322 0.29989 0.78515 0.0
C1085 C 0.77298 0.27444 0.76072 0.0
C1086 C 0.72518 0.2955 0.84672 0.0
C1087 C 0.83076 0.31919 0.7801 0.0
H1088 H 0.81875 0.41976 0.84445 0.0
H1089 H 0.83164 0.35821 0.92025 0.0
H1090 H 0.80005 0.36602 0.77108 0.0
H1091 H 0.7623 0.35892 0.79202 0.0
H1092 H 0.79738 0.40106 0.78844 0.0
H1093 H 0.82213 0.30391 0.90521 0.0
H1094 H 0.78038 0.2829 0.88706 0.0
H1095 H 0.81521 0.29061 0.85991 0.0
H1096 H 0.69627 0.24872 0.79631 0.0
H1097 H 0.78465 0.26942 0.73866 0.0
H1098 H 0.72901 0.32117 0.84351 0.0
H1099 H 0.73603 0.29471 0.87242 0.0
H1100 H 0.69777 0.27734 0.84727 0.0
H1101 H 0.83884 0.34539 0.77229 0.0
H1102 H 0.83907 0.30776 0.75962 0.0
H1103 H 0.84368 0.32037 0.80507 0.0
C1104 C 0.41981 0.59125 0.22505 0.0
C1105 C 0.4321 0.59497 0.19058 0.0
C1106 C 0.43313 0.61815 0.24908 0.0
C1107 C 0.45995 0.65 0.23896 0.0
C1108 C 0.474 0.65346 0.20494 0.0
C1109 C 0.45985 0.62605 0.18113 0.0
C1110 C 0.41692 0.61289 0.28471 0.0
C1111 C 0.50297 0.68662 0.19306 0.0
C1112 C 0.46039 0.72434 0.28471 0.0
C1113 C 0.48311 0.7317 0.31254 0.0
C1114 C 0.45368 0.69883 0.26013 0.0
C1115 C 0.47035 0.68003 0.26268 0.0
C1116 C 0.49442 0.68822 0.28983 0.0
C1117 C 0.50031 0.71368 0.31454 0.0
C1118 C 0.42752 0.69106 0.23219 0.0
C1119 C 0.51331 0.66943 0.29336 0.0
H1120 H 0.3985 0.56747 0.23295 0.0
H1121 H 0.46959 0.62945 0.15466 0.0
H1122 H 0.4362 0.6216 0.30566 0.0
H1123 H 0.40429 0.628 0.28675 0.0
H1124 H 0.39802 0.58613 0.28964 0.0
H1125 H 0.51438 0.6841 0.16841 0.0
H1126 H 0.49404 0.70468 0.18848 0.0
H1127 H 0.52262 0.69746 0.21366 0.0
H1128 H 0.44684 0.73791 0.28266 0.0
H1129 H 0.51797 0.71906 0.33574 0.0
H1130 H 0.40604 0.66528 0.23609 0.0
H1131 H 0.4381 0.69184 0.20586 0.0
H1132 H 0.41793 0.70893 0.23257 0.0
H1133 H 0.49582 0.64322 0.30172 0.0
H1134 H 0.53396 0.68128 0.31286 0.0
H1135 H 0.52399 0.66821 0.26769 0.0
C1136 C 0.57717 0.4188 0.51378 0.0
C1137 C 0.57919 0.43093 0.54811 0.0
C1138 C 0.60508 0.43252 0.49111 0.0
C1139 C 0.63623 0.45967 0.50245 0.0
C1140 C 0.63795 0.47362 0.53622 0.0
C1141 C 0.60957 0.45899 0.55871 0.0
C1142 C 0.60168 0.41634 0.45574 0.0
C1143 C 0.67027 0.503 0.54929 0.0
C1144 C 0.71313 0.46133 0.46194 0.0
C1145 C 0.72134 0.4838 0.43371 0.0
C1146 C 0.68646 0.45431 0.48498 0.0
C1147 C 0.66735 0.47047 0.48045 0.0
C1148 C 0.67637 0.49434 0.45294 0.0
C1149 C 0.70296 0.50048 0.42975 0.0
C1150 C 0.6778 0.42832 0.51334 0.0
C1151 C 0.65733 0.51275 0.44741 0.0
H1152 H 0.55395 0.39725 0.505 0.0
H1153 H 0.61166 0.46864 0.58507 0.0
H1154 H 0.61104 0.43559 0.43474 0.0
H1155 H 0.61721 0.4041 0.45514 0.0
H1156 H 0.57529 0.3971 0.44968 0.0
H1157 H 0.66635 0.51436 0.57324 0.0
H1158 H 0.68836 0.49449 0.55556 0.0
H1159 H 0.68182 0.52259 0.52871 0.0
H1160 H 0.72694 0.44816 0.46549 0.0
H1161 H 0.70899 0.51794 0.40821 0.0
H1162 H 0.65235 0.40658 0.50854 0.0
H1163 H 0.67731 0.43894 0.53929 0.0
H1164 H 0.69591 0.41905 0.5145 0.0
H1165 H 0.63168 0.49496 0.43777 0.0
H1166 H 0.66988 0.53347 0.42808 0.0
H1167 H 0.65464 0.52328 0.47258 0.0
C1168 C 0.2679 0.78181 0.97649 0.0
C1169 C 0.24922 0.74682 0.97174 0.0
C1170 C 0.29479 0.80257 0.95372 0.0
C1171 C 0.30381 0.78806 0.92586 0.0
C1172 C 0.28442 0.75287 0.92056 0.0
C1173 C 0.25745 0.73294 0.94316 0.0
C1174 C 0.31413 0.83995 0.96005 0.0
C1175 C 0.29307 0.73588 0.89182 0.0
C1176 C 0.36241 0.83528 0.84845 0.0
C1177 C 0.39253 0.83712 0.85906 0.0
C1178 C 0.33389 0.82145 0.87073 0.0
C1179 C 0.33518 0.8086 0.90426 0.0
C1180 C 0.36608 0.81209 0.91564 0.0
C1181 C 0.39416 0.82642 0.89321 0.0
C1182 C 0.30186 0.81909 0.85765 0.0
C1183 C 0.369 0.79861 0.95077 0.0
H1184 H 0.26187 0.79296 0.99829 0.0
H1185 H 0.24341 0.70601 0.93901 0.0
H1186 H 0.3396 0.84741 0.96991 0.0
H1187 H 0.31726 0.8537 0.93516 0.0
H1188 H 0.30154 0.84793 0.97951 0.0
H1189 H 0.27478 0.70853 0.89012 0.0
H1190 H 0.29388 0.74751 0.86611 0.0
H1191 H 0.31838 0.73931 0.89665 0.0
H1192 H 0.36063 0.84331 0.82222 0.0
H1193 H 0.41717 0.82771 0.90201 0.0
H1194 H 0.29032 0.82693 0.87842 0.0
H1195 H 0.28358 0.79263 0.85083 0.0
H1196 H 0.30616 0.83487 0.83403 0.0
H1197 H 0.35965 0.80829 0.97196 0.0
H1198 H 0.39525 0.80541 0.95693 0.0
H1199 H 0.35321 0.77081 0.95083 0.0
loop_
_geom_bond_atom_site_label_1
_geom_bond_atom_site_label_2
_geom_bond_distance
_geom_bond_site_symmetry_2
_ccdc_geom_bond_type
Mn0 O5 2.095 . S
Mn0 O15 2.162 . S
Mn0 O16 2.297 . S
Mn0 O24 2.385 . S
Mn0 O25 2.209 . S
Mn0 O26 2.094 . S
Mn1 O6 2.121 . S
Mn1 N8 2.257 . S
Mn1 N17 2.282 . S
Mn1 O25 2.215 . S
Mn1 O27 2.117 . S
C2 O24 1.234 . S
C2 O25 1.283 . S
C3 O15 1.281 . S
C3 O16 1.236 . S
C4 O26 1.240 . S
C4 O27 1.264 . S
O5 Mn0 2.095 . S
O5 C14 1.250 . S
O6 Mn1 2.121 . S
O6 C14 1.258 . S
C7 N8 1.326 . S
C7 C11 1.460 . S
C7 H13 0.929 . S
N8 Mn1 2.257 . S
N8 C7 1.326 . S
N8 C12 1.362 . S
C9 C10 1.258 . S
C9 C12 1.431 . S
C9 C29 1.449 . S
C10 C9 1.258 . S
C10 C11 1.477 . S
C10 H30 0.931 . S
C11 C7 1.460 . S
C11 C10 1.477 . S
C11 H31 0.930 . S
C12 N8 1.362 . S
C12 C9 1.431 . S
C12 C22 1.476 . S
H13 C7 0.929 . S
C14 O5 1.250 . S
C14 O6 1.258 . S
O15 Mn0 2.162 . S
O15 C3 1.281 . S
O16 Mn0 2.297 . S
O16 C3 1.236 . S
N17 Mn1 2.282 . S
N17 C18 1.328 . S
N17 C22 1.318 . S
C18 N17 1.328 . S
C18 C19 1.457 . S
C18 H23 0.929 . S
C19 C18 1.457 . S
C19 C20 1.291 . S
C19 H32 0.931 . S
C20 C19 1.291 . S
C20 C21 1.373 . S
C20 H33 0.929 . S
C21 C20 1.373 . S
C21 C22 1.396 . S
C21 C28 1.403 . S
C22 C12 1.476 . S
C22 N17 1.318 . S
C22 C21 1.396 . S
H23 C18 0.929 . S
O24 Mn0 2.385 . S
O24 C2 1.234 . S
O25 Mn0 2.209 . S
O25 Mn1 2.215 . S
O25 C2 1.283 . S
O26 Mn0 2.094 . S
O26 C4 1.240 . S
O27 Mn1 2.117 . S
O27 C4 1.264 . S
C28 C21 1.403 . S
C28 C29 1.399 . S
C28 H34 0.929 . S
C29 C9 1.449 . S
C29 C28 1.399 . S
C29 H35 0.930 . S
H30 C10 0.931 . S
H31 C11 0.930 . S
H32 C19 0.931 . S
H33 C20 0.929 . S
H34 C28 0.929 . S
H35 C29 0.930 . S
Mn36 O41 2.095 . S
Mn36 O51 2.162 . S
Mn36 O52 2.297 . S
Mn36 O60 2.385 . S
Mn36 O61 2.209 . S
Mn36 O62 2.094 . S
Mn37 O42 2.121 . S
Mn37 N44 2.257 . S
Mn37 N53 2.282 . S
Mn37 O61 2.215 . S
Mn37 O63 2.117 . S
C38 O60 1.234 . S
C38 O61 1.283 . S
C39 O51 1.281 . S
C39 O52 1.236 . S
C40 O62 1.240 . S
C40 O63 1.264 . S
O41 Mn36 2.095 . S
O41 C50 1.250 . S
O42 Mn37 2.121 . S
O42 C50 1.258 . S
C43 N44 1.326 . S
C43 C47 1.460 . S
C43 H49 0.929 . S
N44 Mn37 2.257 . S
N44 C43 1.326 . S
N44 C48 1.362 . S
C45 C46 1.258 . S
C45 C48 1.431 . S
C45 C65 1.449 . S
C46 C45 1.258 . S
C46 C47 1.477 . S
C46 H66 0.931 . S
C47 C43 1.460 . S
C47 C46 1.477 . S
C47 H67 0.930 . S
C48 N44 1.362 . S
C48 C45 1.431 . S
C48 C58 1.476 . S
H49 C43 0.929 . S
C50 O41 1.250 . S
C50 O42 1.258 . S
O51 Mn36 2.162 . S
O51 C39 1.281 . S
O52 Mn36 2.297 . S
O52 C39 1.236 . S
N53 Mn37 2.282 . S
N53 C54 1.328 . S
N53 C58 1.318 . S
C54 N53 1.328 . S
C54 C55 1.457 . S
C54 H59 0.929 . S
C55 C54 1.457 . S
C55 C56 1.291 . S
C55 H68 0.931 . S
C56 C55 1.291 . S
C56 C57 1.373 . S
C56 H69 0.929 . S
C57 C56 1.373 . S
C57 C58 1.396 . S
C57 C64 1.403 . S
C58 C48 1.476 . S
C58 N53 1.318 . S
C58 C57 1.396 . S
H59 C54 0.929 . S
O60 Mn36 2.385 . S
O60 C38 1.234 . S
O61 Mn36 2.209 . S
O61 Mn37 2.215 . S
O61 C38 1.283 . S
O62 Mn36 2.094 . S
O62 C40 1.240 . S
O63 Mn37 2.117 . S
O63 C40 1.264 . S
C64 C57 1.403 . S
C64 C65 1.399 . S
C64 H70 0.929 . S
C65 C45 1.449 . S
C65 C64 1.399 . S
C65 H71 0.930 . S
H66 C46 0.931 . S
H67 C47 0.930 . S
H68 C55 0.931 . S
H69 C56 0.929 . S
H70 C64 0.929 . S
H71 C65 0.930 . S
Mn72 O77 2.095 . S
Mn72 O87 2.162 . S
Mn72 O88 2.297 . S
Mn72 O96 2.385 . S
Mn72 O97 2.209 . S
Mn72 O98 2.094 1_556 S
Mn73 O78 2.121 1_554 S
Mn73 N80 2.257 . S
Mn73 N89 2.282 . S
Mn73 O97 2.215 1_554 S
Mn73 O99 2.117 . S
C74 O96 1.234 . S
C74 O97 1.283 . S
C75 O87 1.281 . S
C75 O88 1.236 . S
C76 O98 1.240 . S
C76 O99 1.264 . S
O77 Mn72 2.095 . S
O77 C86 1.250 . S
O78 Mn73 2.121 1_556 S
O78 C86 1.258 . S
C79 N80 1.326 1_556 S
C79 C83 1.460 . S
C79 H85 0.929 . S
N80 Mn73 2.257 . S
N80 C79 1.326 1_554 S
N80 C84 1.362 . S
C81 C82 1.258 1_554 S
C81 C84 1.431 . S
C81 C101 1.449 . S
C82 C81 1.258 1_556 S
C82 C83 1.477 . S
C82 H102 0.931 . S
C83 C79 1.460 . S
C83 C82 1.477 . S
C83 H103 0.930 . S
C84 N80 1.362 . S
C84 C81 1.431 . S
C84 C94 1.476 . S
H85 C79 0.929 . S
C86 O77 1.250 . S
C86 O78 1.258 . S
O87 Mn72 2.162 . S
O87 C75 1.281 . S
O88 Mn72 2.297 . S
O88 C75 1.236 . S
N89 Mn73 2.282 . S
N89 C90 1.328 . S
N89 C94 1.318 . S
C90 N89 1.328 . S
C90 C91 1.457 . S
C90 H95 0.929 . S
C91 C90 1.457 . S
C91 C92 1.291 . S
C91 H104 0.931 . S
C92 C91 1.291 . S
C92 C93 1.373 . S
C92 H105 0.929 . S
C93 C92 1.373 . S
C93 C94 1.396 . S
C93 C100 1.403 . S
C94 C84 1.476 . S
C94 N89 1.318 . S
C94 C93 1.396 . S
H95 C90 0.929 . S
O96 Mn72 2.385 . S
O96 C74 1.234 . S
O97 Mn72 2.209 . S
O97 Mn73 2.215 1_556 S
O97 C74 1.283 . S
O98 Mn72 2.094 1_554 S
O98 C76 1.240 . S
O99 Mn73 2.117 . S
O99 C76 1.264 . S
C100 C93 1.403 . S
C100 C101 1.399 . S
C100 H106 0.929 . S
C101 C81 1.449 . S
C101 C100 1.399 . S
C101 H107 0.930 . S
H102 C82 0.931 . S
H103 C83 0.930 . S
H104 C91 0.931 . S
H105 C92 0.929 . S
H106 C100 0.929 . S
H107 C101 0.930 . S
Mn108 O113 2.095 . S
Mn108 O123 2.162 . S
Mn108 O124 2.297 . S
Mn108 O132 2.385 . S
Mn108 O133 2.209 . S
Mn108 O134 2.094 . S
Mn109 O114 2.121 . S
Mn109 N116 2.257 . S
Mn109 N125 2.282 . S
Mn109 O133 2.215 . S
Mn109 O135 2.117 . S
C110 O132 1.234 . S
C110 O133 1.283 . S
C111 O123 1.281 . S
C111 O124 1.236 . S
C112 O134 1.240 . S
C112 O135 1.264 . S
O113 Mn108 2.095 . S
O113 C122 1.250 . S
O114 Mn109 2.121 . S
O114 C122 1.258 . S
C115 N116 1.326 . S
C115 C119 1.460 . S
C115 H121 0.929 . S
N116 Mn109 2.257 . S
N116 C115 1.326 . S
N116 C120 1.362 . S
C117 C118 1.258 . S
C117 C120 1.431 . S
C117 C137 1.449 . S
C118 C117 1.258 . S
C118 C119 1.477 . S
C118 H138 0.931 . S
C119 C115 1.460 . S
C119 C118 1.477 . S
C119 H139 0.930 . S
C120 N116 1.362 . S
C120 C117 1.431 . S
C120 C130 1.476 . S
H121 C115 0.929 . S
C122 O113 1.250 . S
C122 O114 1.258 . S
O123 Mn108 2.162 . S
O123 C111 1.281 . S
O124 Mn108 2.297 . S
O124 C111 1.236 . S
N125 Mn109 2.282 . S
N125 C126 1.328 . S
N125 C130 1.318 . S
C126 N125 1.328 . S
C126 C127 1.457 . S
C126 H131 0.929 . S
C127 C126 1.457 . S
C127 C128 1.291 . S
C127 H140 0.931 . S
C128 C127 1.291 . S
C128 C129 1.373 . S
C128 H141 0.929 . S
C129 C128 1.373 . S
C129 C130 1.396 . S
C129 C136 1.403 . S
C130 C120 1.476 . S
C130 N125 1.318 . S
C130 C129 1.396 . S
H131 C126 0.929 . S
O132 Mn108 2.385 . S
O132 C110 1.234 . S
O133 Mn108 2.209 . S
O133 Mn109 2.215 . S
O133 C110 1.283 . S
O134 Mn108 2.094 . S
O134 C112 1.240 . S
O135 Mn109 2.117 . S
O135 C112 1.264 . S
C136 C129 1.403 . S
C136 C137 1.399 . S
C136 H142 0.929 . S
C137 C117 1.449 . S
C137 C136 1.399 . S
C137 H143 0.930 . S
H138 C118 0.931 . S
H139 C119 0.930 . S
H140 C127 0.931 . S
H141 C128 0.929 . S
H142 C136 0.929 . S
H143 C137 0.930 . S
Mn144 O149 2.095 . S
Mn144 O159 2.162 . S
Mn144 O160 2.297 . S
Mn144 O168 2.385 . S
Mn144 O169 2.209 . S
Mn144 O170 2.094 . S
Mn145 O150 2.121 . S
Mn145 N152 2.257 . S
Mn145 N161 2.282 . S
Mn145 O169 2.215 . S
Mn145 O171 2.117 . S
C146 O168 1.234 . S
C146 O169 1.283 . S
C147 O159 1.281 . S
C147 O160 1.236 . S
C148 O170 1.240 . S
C148 O171 1.264 . S
O149 Mn144 2.095 . S
O149 C158 1.250 . S
O150 Mn145 2.121 . S
O150 C158 1.258 . S
C151 N152 1.326 . S
C151 C155 1.460 . S
C151 H157 0.929 . S
N152 Mn145 2.257 . S
N152 C151 1.326 . S
N152 C156 1.362 . S
C153 C154 1.258 . S
C153 C156 1.431 . S
C153 C173 1.449 . S
C154 C153 1.258 . S
C154 C155 1.477 . S
C154 H174 0.931 . S
C155 C151 1.460 . S
C155 C154 1.477 . S
C155 H175 0.930 . S
C156 N152 1.362 . S
C156 C153 1.431 . S
C156 C166 1.476 . S
H157 C151 0.929 . S
C158 O149 1.250 . S
C158 O150 1.258 . S
O159 Mn144 2.162 . S
O159 C147 1.281 . S
O160 Mn144 2.297 . S
O160 C147 1.236 . S
N161 Mn145 2.282 . S
N161 C162 1.328 . S
N161 C166 1.318 . S
C162 N161 1.328 . S
C162 C163 1.457 . S
C162 H167 0.929 . S
C163 C162 1.457 . S
C163 C164 1.291 . S
C163 H176 0.931 . S
C164 C163 1.291 . S
C164 C165 1.373 . S
C164 H177 0.929 . S
C165 C164 1.373 . S
C165 C166 1.396 . S
C165 C172 1.403 . S
C166 C156 1.476 . S
C166 N161 1.318 . S
C166 C165 1.396 . S
H167 C162 0.929 . S
O168 Mn144 2.385 . S
O168 C146 1.234 . S
O169 Mn144 2.209 . S
O169 Mn145 2.215 . S
O169 C146 1.283 . S
O170 Mn144 2.094 . S
O170 C148 1.240 . S
O171 Mn145 2.117 . S
O171 C148 1.264 . S
C172 C165 1.403 . S
C172 C173 1.399 . S
C172 H178 0.929 . S
C173 C153 1.449 . S
C173 C172 1.399 . S
C173 H179 0.930 . S
H174 C154 0.931 . S
H175 C155 0.930 . S
H176 C163 0.931 . S
H177 C164 0.929 . S
H178 C172 0.929 . S
H179 C173 0.930 . S
Mn180 O185 2.095 . S
Mn180 O195 2.162 . S
Mn180 O196 2.297 . S
Mn180 O204 2.385 . S
Mn180 O205 2.209 . S
Mn180 O206 2.094 1_556 S
Mn181 O186 2.121 1_554 S
Mn181 N188 2.257 . S
Mn181 N197 2.282 . S
Mn181 O205 2.215 1_554 S
Mn181 O207 2.117 . S
C182 O204 1.234 . S
C182 O205 1.283 . S
C183 O195 1.281 . S
C183 O196 1.236 . S
C184 O206 1.240 . S
C184 O207 1.264 . S
O185 Mn180 2.095 . S
O185 C194 1.250 . S
O186 Mn181 2.121 1_556 S
O186 C194 1.258 . S
C187 N188 1.326 1_556 S
C187 C191 1.460 . S
C187 H193 0.929 . S
N188 Mn181 2.257 . S
N188 C187 1.326 1_554 S
N188 C192 1.362 . S
C189 C190 1.258 1_554 S
C189 C192 1.431 . S
C189 C209 1.449 . S
C190 C189 1.258 1_556 S
C190 C191 1.477 . S
C190 H210 0.931 . S
C191 C187 1.460 . S
C191 C190 1.477 . S
C191 H211 0.930 . S
C192 N188 1.362 . S
C192 C189 1.431 . S
C192 C202 1.476 . S
H193 C187 0.929 . S
C194 O185 1.250 . S
C194 O186 1.258 . S
O195 Mn180 2.162 . S
O195 C183 1.281 . S
O196 Mn180 2.297 . S
O196 C183 1.236 . S
N197 Mn181 2.282 . S
N197 C198 1.328 . S
N197 C202 1.318 . S
C198 N197 1.328 . S
C198 C199 1.457 . S
C198 H203 0.929 . S
C199 C198 1.457 . S
C199 C200 1.291 . S
C199 H212 0.931 . S
C200 C199 1.291 . S
C200 C201 1.373 . S
C200 H213 0.929 . S
C201 C200 1.373 . S
C201 C202 1.396 . S
C201 C208 1.403 . S
C202 C192 1.476 . S
C202 N197 1.318 . S
C202 C201 1.396 . S
H203 C198 0.929 . S
O204 Mn180 2.385 . S
O204 C182 1.234 . S
O205 Mn180 2.209 . S
O205 Mn181 2.215 1_556 S
O205 C182 1.283 . S
O206 Mn180 2.094 1_554 S
O206 C184 1.240 . S
O207 Mn181 2.117 . S
O207 C184 1.264 . S
C208 C201 1.403 . S
C208 C209 1.399 . S
C208 H214 0.929 . S
C209 C189 1.449 . S
C209 C208 1.399 . S
C209 H215 0.930 . S
H210 C190 0.931 . S
H211 C191 0.930 . S
H212 C199 0.931 . S
H213 C200 0.929 . S
H214 C208 0.929 . S
H215 C209 0.930 . S
Mn216 O221 2.095 . S
Mn216 O231 2.162 . S
Mn216 O232 2.297 . S
Mn216 O240 2.385 . S
Mn216 O241 2.209 . S
Mn216 O242 2.094 . S
Mn217 O222 2.121 . S
Mn217 N224 2.257 . S
Mn217 N233 2.282 . S
Mn217 O241 2.215 . S
Mn217 O243 2.117 . S
C218 O240 1.234 . S
C218 O241 1.283 . S
C219 O231 1.281 . S
C219 O232 1.236 . S
C220 O242 1.240 . S
C220 O243 1.264 . S
O221 Mn216 2.095 . S
O221 C230 1.250 . S
O222 Mn217 2.121 . S
O222 C230 1.258 . S
C223 N224 1.326 . S
C223 C227 1.460 . S
C223 H229 0.929 . S
N224 Mn217 2.257 . S
N224 C223 1.326 . S
N224 C228 1.362 . S
C225 C226 1.258 . S
C225 C228 1.431 . S
C225 C245 1.449 . S
C226 C225 1.258 . S
C226 C227 1.477 . S
C226 H246 0.931 . S
C227 C223 1.460 . S
C227 C226 1.477 . S
C227 H247 0.930 . S
C228 N224 1.362 . S
C228 C225 1.431 . S
C228 C238 1.476 . S
H229 C223 0.929 . S
C230 O221 1.250 . S
C230 O222 1.258 . S
O231 Mn216 2.162 . S
O231 C219 1.281 . S
O232 Mn216 2.297 . S
O232 C219 1.236 . S
N233 Mn217 2.282 . S
N233 C234 1.328 . S
N233 C238 1.318 . S
C234 N233 1.328 . S
C234 C235 1.457 . S
C234 H239 0.929 . S
C235 C234 1.457 . S
C235 C236 1.291 . S
C235 H248 0.931 . S
C236 C235 1.291 . S
C236 C237 1.373 . S
C236 H249 0.929 . S
C237 C236 1.373 . S
C237 C238 1.396 . S
C237 C244 1.403 . S
C238 C228 1.476 . S
C238 N233 1.318 . S
C238 C237 1.396 . S
H239 C234 0.929 . S
O240 Mn216 2.385 . S
O240 C218 1.234 . S
O241 Mn216 2.209 . S
O241 Mn217 2.215 . S
O241 C218 1.283 . S
O242 Mn216 2.094 . S
O242 C220 1.240 . S
O243 Mn217 2.117 . S
O243 C220 1.264 . S
C244 C237 1.403 . S
C244 C245 1.399 . S
C244 H250 0.929 . S
C245 C225 1.449 . S
C245 C244 1.399 . S
C245 H251 0.930 . S
H246 C226 0.931 . S
H247 C227 0.930 . S
H248 C235 0.931 . S
H249 C236 0.929 . S
H250 C244 0.929 . S
H251 C245 0.930 . S
Mn252 O257 2.095 . S
Mn252 O267 2.162 . S
Mn252 O268 2.297 . S
Mn252 O276 2.385 . S
Mn252 O277 2.209 . S
Mn252 O278 2.094 . S
Mn253 O258 2.121 . S
Mn253 N260 2.257 . S
Mn253 N269 2.282 . S
Mn253 O277 2.215 . S
Mn253 O279 2.117 . S
C254 O276 1.234 . S
C254 O277 1.283 . S
C255 O267 1.281 . S
C255 O268 1.236 . S
C256 O278 1.240 . S
C256 O279 1.264 . S
O257 Mn252 2.095 . S
O257 C266 1.250 . S
O258 Mn253 2.121 . S
O258 C266 1.258 . S
C259 N260 1.326 . S
C259 C263 1.460 . S
C259 H265 0.929 . S
N260 Mn253 2.257 . S
N260 C259 1.326 . S
N260 C264 1.362 . S
C261 C262 1.258 . S
C261 C264 1.431 . S
C261 C281 1.449 . S
C262 C261 1.258 . S
C262 C263 1.477 . S
C262 H282 0.931 . S
C263 C259 1.460 . S
C263 C262 1.477 . S
C263 H283 0.930 . S
C264 N260 1.362 . S
C264 C261 1.431 . S
C264 C274 1.476 . S
H265 C259 0.929 . S
C266 O257 1.250 . S
C266 O258 1.258 . S
O267 Mn252 2.162 . S
O267 C255 1.281 . S
O268 Mn252 2.297 . S
O268 C255 1.236 . S
N269 Mn253 2.282 . S
N269 C270 1.328 . S
N269 C274 1.318 . S
C270 N269 1.328 . S
C270 C271 1.457 . S
C270 H275 0.929 . S
C271 C270 1.457 . S
C271 C272 1.291 . S
C271 H284 0.931 . S
C272 C271 1.291 . S
C272 C273 1.373 . S
C272 H285 0.929 . S
C273 C272 1.373 . S
C273 C274 1.396 . S
C273 C280 1.403 . S
C274 C264 1.476 . S
C274 N269 1.318 . S
C274 C273 1.396 . S
H275 C270 0.929 . S
O276 Mn252 2.385 . S
O276 C254 1.234 . S
O277 Mn252 2.209 . S
O277 Mn253 2.215 . S
O277 C254 1.283 . S
O278 Mn252 2.094 . S
O278 C256 1.240 . S
O279 Mn253 2.117 . S
O279 C256 1.264 . S
C280 C273 1.403 . S
C280 C281 1.399 . S
C280 H286 0.929 . S
C281 C261 1.449 . S
C281 C280 1.399 . S
C281 H287 0.930 . S
H282 C262 0.931 . S
H283 C263 0.930 . S
H284 C271 0.931 . S
H285 C272 0.929 . S
H286 C280 0.929 . S
H287 C281 0.930 . S
Mn288 O293 2.095 . S
Mn288 O303 2.162 . S
Mn288 O304 2.297 . S
Mn288 O312 2.385 . S
Mn288 O313 2.209 . S
Mn288 O314 2.094 1_554 S
Mn289 O294 2.121 1_556 S
Mn289 N296 2.257 . S
Mn289 N305 2.282 . S
Mn289 O313 2.215 1_556 S
Mn289 O315 2.117 . S
C290 O312 1.234 . S
C290 O313 1.283 . S
C291 O303 1.281 . S
C291 O304 1.236 . S
C292 O314 1.240 . S
C292 O315 1.264 . S
O293 Mn288 2.095 . S
O293 C302 1.250 . S
O294 Mn289 2.121 1_554 S
O294 C302 1.258 . S
C295 N296 1.326 1_554 S
C295 C299 1.460 . S
C295 H301 0.929 . S
N296 Mn289 2.257 . S
N296 C295 1.326 1_556 S
N296 C300 1.362 . S
C297 C298 1.258 1_556 S
C297 C300 1.431 . S
C297 C317 1.449 . S
C298 C297 1.258 1_554 S
C298 C299 1.477 . S
C298 H318 0.931 . S
C299 C295 1.460 . S
C299 C298 1.477 . S
C299 H319 0.930 . S
C300 N296 1.362 . S
C300 C297 1.431 . S
C300 C310 1.476 . S
H301 C295 0.929 . S
C302 O293 1.250 . S
C302 O294 1.258 . S
O303 Mn288 2.162 . S
O303 C291 1.281 . S
O304 Mn288 2.297 . S
O304 C291 1.236 . S
N305 Mn289 2.282 . S
N305 C306 1.328 . S
N305 C310 1.318 . S
C306 N305 1.328 . S
C306 C307 1.457 . S
C306 H311 0.929 . S
C307 C306 1.457 . S
C307 C308 1.291 . S
C307 H320 0.931 . S
C308 C307 1.291 . S
C308 C309 1.373 . S
C308 H321 0.929 . S
C309 C308 1.373 . S
C309 C310 1.396 . S
C309 C316 1.403 . S
C310 C300 1.476 . S
C310 N305 1.318 . S
C310 C309 1.396 . S
H311 C306 0.929 . S
O312 Mn288 2.385 . S
O312 C290 1.234 . S
O313 Mn288 2.209 . S
O313 Mn289 2.215 1_554 S
O313 C290 1.283 . S
O314 Mn288 2.094 1_556 S
O314 C292 1.240 . S
O315 Mn289 2.117 . S
O315 C292 1.264 . S
C316 C309 1.403 . S
C316 C317 1.399 . S
C316 H322 0.929 . S
C317 C297 1.449 . S
C317 C316 1.399 . S
C317 H323 0.930 . S
H318 C298 0.931 . S
H319 C299 0.930 . S
H320 C307 0.931 . S
H321 C308 0.929 . S
H322 C316 0.929 . S
H323 C317 0.930 . S
Mn324 O329 2.095 . S
Mn324 O339 2.162 . S
Mn324 O340 2.297 . S
Mn324 O348 2.385 . S
Mn324 O349 2.209 . S
Mn324 O350 2.094 . S
Mn325 O330 2.121 . S
Mn325 N332 2.257 . S
Mn325 N341 2.282 . S
Mn325 O349 2.215 . S
Mn325 O351 2.117 . S
C326 O348 1.234 . S
C326 O349 1.283 . S
C327 O339 1.281 . S
C327 O340 1.236 . S
C328 O350 1.240 . S
C328 O351 1.264 . S
O329 Mn324 2.095 . S
O329 C338 1.250 . S
O330 Mn325 2.121 . S
O330 C338 1.258 . S
C331 N332 1.326 . S
C331 C335 1.460 . S
C331 H337 0.929 . S
N332 Mn325 2.257 . S
N332 C331 1.326 . S
N332 C336 1.362 . S
C333 C334 1.258 . S
C333 C336 1.431 . S
C333 C353 1.449 . S
C334 C333 1.258 . S
C334 C335 1.477 . S
C334 H354 0.931 . S
C335 C331 1.460 . S
C335 C334 1.477 . S
C335 H355 0.930 . S
C336 N332 1.362 . S
C336 C333 1.431 . S
C336 C346 1.476 . S
H337 C331 0.929 . S
C338 O329 1.250 . S
C338 O330 1.258 . S
O339 Mn324 2.162 . S
O339 C327 1.281 . S
O340 Mn324 2.297 . S
O340 C327 1.236 . S
N341 Mn325 2.282 . S
N341 C342 1.328 . S
N341 C346 1.318 . S
C342 N341 1.328 . S
C342 C343 1.457 . S
C342 H347 0.929 . S
C343 C342 1.457 . S
C343 C344 1.291 . S
C343 H356 0.931 . S
C344 C343 1.291 . S
C344 C345 1.373 . S
C344 H357 0.929 . S
C345 C344 1.373 . S
C345 C346 1.396 . S
C345 C352 1.403 . S
C346 C336 1.476 . S
C346 N341 1.318 . S
C346 C345 1.396 . S
H347 C342 0.929 . S
O348 Mn324 2.385 . S
O348 C326 1.234 . S
O349 Mn324 2.209 . S
O349 Mn325 2.215 . S
O349 C326 1.283 . S
O350 Mn324 2.094 . S
O350 C328 1.240 . S
O351 Mn325 2.117 . S
O351 C328 1.264 . S
C352 C345 1.403 . S
C352 C353 1.399 . S
C352 H358 0.929 . S
C353 C333 1.449 . S
C353 C352 1.399 . S
C353 H359 0.930 . S
H354 C334 0.931 . S
H355 C335 0.930 . S
H356 C343 0.931 . S
H357 C344 0.929 . S
H358 C352 0.929 . S
H359 C353 0.930 . S
Mn360 O365 2.095 . S
Mn360 O375 2.162 . S
Mn360 O376 2.297 . S
Mn360 O384 2.385 . S
Mn360 O385 2.209 . S
Mn360 O386 2.094 . S
Mn361 O366 2.121 . S
Mn361 N368 2.257 . S
Mn361 N377 2.282 . S
Mn361 O385 2.215 . S
Mn361 O387 2.117 . S
C362 O384 1.234 . S
C362 O385 1.283 . S
C363 O375 1.281 . S
C363 O376 1.236 . S
C364 O386 1.240 . S
C364 O387 1.264 . S
O365 Mn360 2.095 . S
O365 C374 1.250 . S
O366 Mn361 2.121 . S
O366 C374 1.258 . S
C367 N368 1.326 . S
C367 C371 1.460 . S
C367 H373 0.929 . S
N368 Mn361 2.257 . S
N368 C367 1.326 . S
N368 C372 1.362 . S
C369 C370 1.258 . S
C369 C372 1.431 . S
C369 C389 1.449 . S
C370 C369 1.258 . S
C370 C371 1.477 . S
C370 H390 0.931 . S
C371 C367 1.460 . S
C371 C370 1.477 . S
C371 H391 0.930 . S
C372 N368 1.362 . S
C372 C369 1.431 . S
C372 C382 1.476 . S
H373 C367 0.929 . S
C374 O365 1.250 . S
C374 O366 1.258 . S
O375 Mn360 2.162 . S
O375 C363 1.281 . S
O376 Mn360 2.297 . S
O376 C363 1.236 . S
N377 Mn361 2.282 . S
N377 C378 1.328 . S
N377 C382 1.318 . S
C378 N377 1.328 . S
C378 C379 1.457 . S
C378 H383 0.929 . S
C379 C378 1.457 . S
C379 C380 1.291 . S
C379 H392 0.931 . S
C380 C379 1.291 . S
C380 C381 1.373 . S
C380 H393 0.929 . S
C381 C380 1.373 . S
C381 C382 1.396 . S
C381 C388 1.403 . S
C382 C372 1.476 . S
C382 N377 1.318 . S
C382 C381 1.396 . S
H383 C378 0.929 . S
O384 Mn360 2.385 . S
O384 C362 1.234 . S
O385 Mn360 2.209 . S
O385 Mn361 2.215 . S
O385 C362 1.283 . S
O386 Mn360 2.094 . S
O386 C364 1.240 . S
O387 Mn361 2.117 . S
O387 C364 1.264 . S
C388 C381 1.403 . S
C388 C389 1.399 . S
C388 H394 0.929 . S
C389 C369 1.449 . S
C389 C388 1.399 . S
C389 H395 0.930 . S
H390 C370 0.931 . S
H391 C371 0.930 . S
H392 C379 0.931 . S
H393 C380 0.929 . S
H394 C388 0.929 . S
H395 C389 0.930 . S
Mn396 O401 2.095 . S
Mn396 O411 2.162 . S
Mn396 O412 2.297 . S
Mn396 O420 2.385 . S
Mn396 O421 2.209 . S
Mn396 O422 2.094 1_554 S
Mn397 O402 2.121 1_556 S
Mn397 N404 2.257 . S
Mn397 N413 2.282 . S
Mn397 O421 2.215 1_556 S
Mn397 O423 2.117 . S
C398 O420 1.234 . S
C398 O421 1.283 . S
C399 O411 1.281 . S
C399 O412 1.236 . S
C400 O422 1.240 . S
C400 O423 1.264 . S
O401 Mn396 2.095 . S
O401 C410 1.250 . S
O402 Mn397 2.121 1_554 S
O402 C410 1.258 . S
C403 N404 1.326 1_554 S
C403 C407 1.460 . S
C403 H409 0.929 . S
N404 Mn397 2.257 . S
N404 C403 1.326 1_556 S
N404 C408 1.362 . S
C405 C406 1.258 1_556 S
C405 C408 1.431 . S
C405 C425 1.449 . S
C406 C405 1.258 1_554 S
C406 C407 1.477 . S
C406 H426 0.931 . S
C407 C403 1.460 . S
C407 C406 1.477 . S
C407 H427 0.930 . S
C408 N404 1.362 . S
C408 C405 1.431 . S
C408 C418 1.476 . S
H409 C403 0.929 . S
C410 O401 1.250 . S
C410 O402 1.258 . S
O411 Mn396 2.162 . S
O411 C399 1.281 . S
O412 Mn396 2.297 . S
O412 C399 1.236 . S
N413 Mn397 2.282 . S
N413 C414 1.328 . S
N413 C418 1.318 . S
C414 N413 1.328 . S
C414 C415 1.457 . S
C414 H419 0.929 . S
C415 C414 1.457 . S
C415 C416 1.291 . S
C415 H428 0.931 . S
C416 C415 1.291 . S
C416 C417 1.373 . S
C416 H429 0.929 . S
C417 C416 1.373 . S
C417 C418 1.396 . S
C417 C424 1.403 . S
C418 C408 1.476 . S
C418 N413 1.318 . S
C418 C417 1.396 . S
H419 C414 0.929 . S
O420 Mn396 2.385 . S
O420 C398 1.234 . S
O421 Mn396 2.209 . S
O421 Mn397 2.215 1_554 S
O421 C398 1.283 . S
O422 Mn396 2.094 1_556 S
O422 C400 1.240 . S
O423 Mn397 2.117 . S
O423 C400 1.264 . S
C424 C417 1.403 . S
C424 C425 1.399 . S
C424 H430 0.929 . S
C425 C405 1.449 . S
C425 C424 1.399 . S
C425 H431 0.930 . S
H426 C406 0.931 . S
H427 C407 0.930 . S
H428 C415 0.931 . S
H429 C416 0.929 . S
H430 C424 0.929 . S
H431 C425 0.930 . S
C432 C433 1.391 . S
C432 C434 1.394 . S
C432 H448 0.931 . S
C433 C432 1.391 . S
C433 C437 1.376 . S
C434 C432 1.394 . S
C434 C435 1.369 . S
C434 C438 1.531 . S
C435 C434 1.369 . S
C435 C436 1.410 . S
C435 C443 1.503 . S
C436 C435 1.410 . S
C436 C437 1.392 . S
C436 C439 1.511 . S
C437 C433 1.376 . S
C437 C436 1.392 . S
C437 H449 0.929 . S
C438 C434 1.531 . S
C438 H450 0.960 . S
C438 H451 0.962 . S
C438 H452 0.960 . S
C439 C436 1.511 . S
C439 H453 0.961 . S
C439 H454 0.961 . S
C439 H455 0.961 . S
C440 C441 1.370 . S
C440 C442 1.363 . S
C440 H456 0.931 . S
C441 C440 1.370 . S
C441 C445 1.408 . S
C442 C440 1.363 . S
C442 C443 1.370 . S
C442 C446 1.524 . S
C443 C435 1.503 . S
C443 C442 1.370 . S
C443 C444 1.403 . S
C444 C443 1.403 . S
C444 C445 1.404 . S
C444 C447 1.539 . S
C445 C441 1.408 . S
C445 C444 1.404 . S
C445 H457 0.930 . S
C446 C442 1.524 . S
C446 H458 0.956 . S
C446 H459 0.961 . S
C446 H460 0.961 . S
C447 C444 1.539 . S
C447 H461 0.958 . S
C447 H462 0.961 . S
C447 H463 0.960 . S
H448 C432 0.931 . S
H449 C437 0.929 . S
H450 C438 0.960 . S
H451 C438 0.962 . S
H452 C438 0.960 . S
H453 C439 0.961 . S
H454 C439 0.961 . S
H455 C439 0.961 . S
H456 C440 0.931 . S
H457 C445 0.930 . S
H458 C446 0.956 . S
H459 C446 0.961 . S
H460 C446 0.961 . S
H461 C447 0.958 . S
H462 C447 0.961 . S
H463 C447 0.960 . S
C464 C465 1.391 . S
C464 C466 1.394 . S
C464 H480 0.931 . S
C465 C464 1.391 . S
C465 C469 1.376 . S
C466 C464 1.394 . S
C466 C467 1.369 . S
C466 C470 1.531 . S
C467 C466 1.369 . S
C467 C468 1.410 . S
C467 C475 1.503 . S
C468 C467 1.410 . S
C468 C469 1.392 . S
C468 C471 1.511 . S
C469 C465 1.376 . S
C469 C468 1.392 . S
C469 H481 0.929 . S
C470 C466 1.531 . S
C470 H482 0.960 . S
C470 H483 0.962 . S
C470 H484 0.960 . S
C471 C468 1.511 . S
C471 H485 0.961 . S
C471 H486 0.961 . S
C471 H487 0.961 . S
C472 C473 1.370 . S
C472 C474 1.363 . S
C472 H488 0.931 . S
C473 C472 1.370 . S
C473 C477 1.408 . S
C474 C472 1.363 . S
C474 C475 1.370 . S
C474 C478 1.524 . S
C475 C467 1.503 . S
C475 C474 1.370 . S
C475 C476 1.403 . S
C476 C475 1.403 . S
C476 C477 1.404 . S
C476 C479 1.539 . S
C477 C473 1.408 . S
C477 C476 1.404 . S
C477 H489 0.930 . S
C478 C474 1.524 . S
C478 H490 0.956 . S
C478 H491 0.961 . S
C478 H492 0.961 . S
C479 C476 1.539 . S
C479 H493 0.958 . S
C479 H494 0.961 . S
C479 H495 0.960 . S
H480 C464 0.931 . S
H481 C469 0.929 . S
H482 C470 0.960 . S
H483 C470 0.962 . S
H484 C470 0.960 . S
H485 C471 0.961 . S
H486 C471 0.961 . S
H487 C471 0.961 . S
H488 C472 0.931 . S
H489 C477 0.930 . S
H490 C478 0.956 . S
H491 C478 0.961 . S
H492 C478 0.961 . S
H493 C479 0.958 . S
H494 C479 0.961 . S
H495 C479 0.960 . S
C496 C497 1.391 . S
C496 C498 1.394 . S
C496 H512 0.931 . S
C497 C496 1.391 . S
C497 C501 1.376 . S
C498 C496 1.394 . S
C498 C499 1.369 . S
C498 C502 1.531 . S
C499 C498 1.369 . S
C499 C500 1.410 . S
C499 C507 1.503 . S
C500 C499 1.410 . S
C500 C501 1.392 . S
C500 C503 1.511 . S
C501 C497 1.376 . S
C501 C500 1.392 . S
C501 H513 0.929 . S
C502 C498 1.531 . S
C502 H514 0.960 . S
C502 H515 0.962 . S
C502 H516 0.960 . S
C503 C500 1.511 . S
C503 H517 0.961 . S
C503 H518 0.961 . S
C503 H519 0.961 . S
C504 C505 1.370 . S
C504 C506 1.363 . S
C504 H520 0.931 . S
C505 C504 1.370 . S
C505 C509 1.408 . S
C506 C504 1.363 . S
C506 C507 1.370 . S
C506 C510 1.524 . S
C507 C499 1.503 . S
C507 C506 1.370 . S
C507 C508 1.403 . S
C508 C507 1.403 . S
C508 C509 1.404 . S
C508 C511 1.539 . S
C509 C505 1.408 . S
C509 C508 1.404 . S
C509 H521 0.930 . S
C510 C506 1.524 . S
C510 H522 0.956 . S
C510 H523 0.961 . S
C510 H524 0.961 . S
C511 C508 1.539 . S
C511 H525 0.958 . S
C511 H526 0.961 . S
C511 H527 0.960 . S
H512 C496 0.931 . S
H513 C501 0.929 . S
H514 C502 0.960 . S
H515 C502 0.962 . S
H516 C502 0.960 . S
H517 C503 0.961 . S
H518 C503 0.961 . S
H519 C503 0.961 . S
H520 C504 0.931 . S
H521 C509 0.930 . S
H522 C510 0.956 . S
H523 C510 0.961 . S
H524 C510 0.961 . S
H525 C511 0.958 . S
H526 C511 0.961 . S
H527 C511 0.960 . S
C528 C529 1.391 . S
C528 C530 1.394 . S
C528 H544 0.931 . S
C529 C528 1.391 . S
C529 C533 1.376 . S
C530 C528 1.394 . S
C530 C531 1.369 . S
C530 C534 1.531 . S
C531 C530 1.369 . S
C531 C532 1.410 . S
C531 C539 1.503 . S
C532 C531 1.410 . S
C532 C533 1.392 . S
C532 C535 1.511 . S
C533 C529 1.376 . S
C533 C532 1.392 . S
C533 H545 0.929 . S
C534 C530 1.531 . S
C534 H546 0.960 . S
C534 H547 0.962 . S
C534 H548 0.960 . S
C535 C532 1.511 . S
C535 H549 0.961 . S
C535 H550 0.961 . S
C535 H551 0.961 . S
C536 C537 1.370 . S
C536 C538 1.363 . S
C536 H552 0.931 . S
C537 C536 1.370 . S
C537 C541 1.408 . S
C538 C536 1.363 . S
C538 C539 1.370 . S
C538 C542 1.524 . S
C539 C531 1.503 . S
C539 C538 1.370 . S
C539 C540 1.403 . S
C540 C539 1.403 . S
C540 C541 1.404 . S
C540 C543 1.539 . S
C541 C537 1.408 . S
C541 C540 1.404 . S
C541 H553 0.930 . S
C542 C538 1.524 . S
C542 H554 0.956 . S
C542 H555 0.961 . S
C542 H556 0.961 . S
C543 C540 1.539 . S
C543 H557 0.958 . S
C543 H558 0.961 . S
C543 H559 0.960 . S
H544 C528 0.931 . S
H545 C533 0.929 . S
H546 C534 0.960 . S
H547 C534 0.962 . S
H548 C534 0.960 . S
H549 C535 0.961 . S
H550 C535 0.961 . S
H551 C535 0.961 . S
H552 C536 0.931 . S
H553 C541 0.930 . S
H554 C542 0.956 . S
H555 C542 0.961 . S
H556 C542 0.961 . S
H557 C543 0.958 . S
H558 C543 0.961 . S
H559 C543 0.960 . S
C560 C561 1.391 . S
C560 C562 1.394 . S
C560 H576 0.931 . S
C561 C560 1.391 . S
C561 C565 1.376 . S
C562 C560 1.394 . S
C562 C563 1.369 . S
C562 C566 1.531 . S
C563 C562 1.369 . S
C563 C564 1.410 . S
C563 C571 1.503 . S
C564 C563 1.410 . S
C564 C565 1.392 . S
C564 C567 1.511 . S
C565 C561 1.376 . S
C565 C564 1.392 . S
C565 H577 0.929 . S
C566 C562 1.531 . S
C566 H578 0.960 . S
C566 H579 0.962 . S
C566 H580 0.960 . S
C567 C564 1.511 . S
C567 H581 0.961 . S
C567 H582 0.961 . S
C567 H583 0.961 . S
C568 C569 1.370 . S
C568 C570 1.363 . S
C568 H584 0.931 . S
C569 C568 1.370 . S
C569 C573 1.408 . S
C570 C568 1.363 . S
C570 C571 1.370 . S
C570 C574 1.524 . S
C571 C563 1.503 . S
C571 C570 1.370 . S
C571 C572 1.403 . S
C572 C571 1.403 . S
C572 C573 1.404 . S
C572 C575 1.539 . S
C573 C569 1.408 . S
C573 C572 1.404 . S
C573 H585 0.930 . S
C574 C570 1.524 . S
C574 H586 0.956 . S
C574 H587 0.961 . S
C574 H588 0.961 . S
C575 C572 1.539 . S
C575 H589 0.958 . S
C575 H590 0.961 . S
C575 H591 0.960 . S
H576 C560 0.931 . S
H577 C565 0.929 . S
H578 C566 0.960 . S
H579 C566 0.962 . S
H580 C566 0.960 . S
H581 C567 0.961 . S
H582 C567 0.961 . S
H583 C567 0.961 . S
H584 C568 0.931 . S
H585 C573 0.930 . S
H586 C574 0.956 . S
H587 C574 0.961 . S
H588 C574 0.961 . S
H589 C575 0.958 . S
H590 C575 0.961 . S
H591 C575 0.960 . S
C592 C593 1.391 . S
C592 C594 1.394 . S
C592 H608 0.931 . S
C593 C592 1.391 . S
C593 C597 1.376 . S
C594 C592 1.394 . S
C594 C595 1.369 . S
C594 C598 1.531 . S
C595 C594 1.369 . S
C595 C596 1.410 . S
C595 C603 1.503 . S
C596 C595 1.410 . S
C596 C597 1.392 . S
C596 C599 1.511 . S
C597 C593 1.376 . S
C597 C596 1.392 . S
C597 H609 0.929 . S
C598 C594 1.531 . S
C598 H610 0.960 . S
C598 H611 0.962 . S
C598 H612 0.960 . S
C599 C596 1.511 . S
C599 H613 0.961 . S
C599 H614 0.961 . S
C599 H615 0.961 . S
C600 C601 1.370 . S
C600 C602 1.363 . S
C600 H616 0.931 . S
C601 C600 1.370 . S
C601 C605 1.408 . S
C602 C600 1.363 . S
C602 C603 1.370 . S
C602 C606 1.524 . S
C603 C595 1.503 . S
C603 C602 1.370 . S
C603 C604 1.403 . S
C604 C603 1.403 . S
C604 C605 1.404 . S
C604 C607 1.539 . S
C605 C601 1.408 . S
C605 C604 1.404 . S
C605 H617 0.930 . S
C606 C602 1.524 . S
C606 H618 0.956 . S
C606 H619 0.961 . S
C606 H620 0.961 . S
C607 C604 1.539 . S
C607 H621 0.958 . S
C607 H622 0.961 . S
C607 H623 0.960 . S
H608 C592 0.931 . S
H609 C597 0.929 . S
H610 C598 0.960 . S
H611 C598 0.962 . S
H612 C598 0.960 . S
H613 C599 0.961 . S
H614 C599 0.961 . S
H615 C599 0.961 . S
H616 C600 0.931 . S
H617 C605 0.930 . S
H618 C606 0.956 . S
H619 C606 0.961 . S
H620 C606 0.961 . S
H621 C607 0.958 . S
H622 C607 0.961 . S
H623 C607 0.960 . S
C624 C625 1.391 . S
C624 C626 1.394 . S
C624 H640 0.931 . S
C625 C624 1.391 . S
C625 C629 1.376 . S
C626 C624 1.394 . S
C626 C627 1.369 . S
C626 C630 1.531 . S
C627 C626 1.369 . S
C627 C628 1.410 . S
C627 C635 1.503 . S
C628 C627 1.410 . S
C628 C629 1.392 . S
C628 C631 1.511 . S
C629 C625 1.376 . S
C629 C628 1.392 . S
C629 H641 0.929 . S
C630 C626 1.531 . S
C630 H642 0.960 . S
C630 H643 0.962 . S
C630 H644 0.960 . S
C631 C628 1.511 . S
C631 H645 0.961 . S
C631 H646 0.961 . S
C631 H647 0.961 . S
C632 C633 1.370 . S
C632 C634 1.363 . S
C632 H648 0.931 . S
C633 C632 1.370 . S
C633 C637 1.408 . S
C634 C632 1.363 . S
C634 C635 1.370 . S
C634 C638 1.524 . S
C635 C627 1.503 . S
C635 C634 1.370 . S
C635 C636 1.403 . S
C636 C635 1.403 . S
C636 C637 1.404 . S
C636 C639 1.539 . S
C637 C633 1.408 . S
C637 C636 1.404 . S
C637 H649 0.930 . S
C638 C634 1.524 . S
C638 H650 0.956 . S
C638 H651 0.961 . S
C638 H652 0.961 . S
C639 C636 1.539 . S
C639 H653 0.958 . S
C639 H654 0.961 . S
C639 H655 0.960 . S
H640 C624 0.931 . S
H641 C629 0.929 . S
H642 C630 0.960 . S
H643 C630 0.962 . S
H644 C630 0.960 . S
H645 C631 0.961 . S
H646 C631 0.961 . S
H647 C631 0.961 . S
H648 C632 0.931 . S
H649 C637 0.930 . S
H650 C638 0.956 . S
H651 C638 0.961 . S
H652 C638 0.961 . S
H653 C639 0.958 . S
H654 C639 0.961 . S
H655 C639 0.960 . S
C656 C657 1.391 . S
C656 C658 1.394 . S
C656 H672 0.931 . S
C657 C656 1.391 . S
C657 C661 1.376 . S
C658 C656 1.394 . S
C658 C659 1.369 . S
C658 C662 1.531 . S
C659 C658 1.369 . S
C659 C660 1.410 . S
C659 C667 1.503 . S
C660 C659 1.410 . S
C660 C661 1.392 . S
C660 C663 1.511 . S
C661 C657 1.376 . S
C661 C660 1.392 . S
C661 H673 0.929 . S
C662 C658 1.531 . S
C662 H674 0.960 . S
C662 H675 0.962 . S
C662 H676 0.960 . S
C663 C660 1.511 . S
C663 H677 0.961 . S
C663 H678 0.961 . S
C663 H679 0.961 . S
C664 C665 1.370 . S
C664 C666 1.363 . S
C664 H680 0.931 . S
C665 C664 1.370 . S
C665 C669 1.408 . S
C666 C664 1.363 . S
C666 C667 1.370 . S
C666 C670 1.524 . S
C667 C659 1.503 . S
C667 C666 1.370 . S
C667 C668 1.403 . S
C668 C667 1.403 . S
C668 C669 1.404 . S
C668 C671 1.539 . S
C669 C665 1.408 . S
C669 C668 1.404 . S
C669 H681 0.930 . S
C670 C666 1.524 . S
C670 H682 0.956 . S
C670 H683 0.961 . S
C670 H684 0.961 . S
C671 C668 1.539 . S
C671 H685 0.958 . S
C671 H686 0.961 . S
C671 H687 0.960 . S
H672 C656 0.931 . S
H673 C661 0.929 . S
H674 C662 0.960 . S
H675 C662 0.962 . S
H676 C662 0.960 . S
H677 C663 0.961 . S
H678 C663 0.961 . S
H679 C663 0.961 . S
H680 C664 0.931 . S
H681 C669 0.930 . S
H682 C670 0.956 . S
H683 C670 0.961 . S
H684 C670 0.961 . S
H685 C671 0.958 . S
H686 C671 0.961 . S
H687 C671 0.960 . S
C688 C689 1.391 . S
C688 C690 1.394 . S
C688 H704 0.931 . S
C689 C688 1.391 . S
C689 C693 1.376 1_554 S
C690 C688 1.394 . S
C690 C691 1.369 . S
C690 C694 1.531 . S
C691 C690 1.369 . S
C691 C692 1.410 1_554 S
C691 C699 1.503 1_554 S
C692 C691 1.410 1_556 S
C692 C693 1.392 . S
C692 C695 1.511 . S
C693 C689 1.376 1_556 S
C693 C692 1.392 . S
C693 H705 0.929 . S
C694 C690 1.531 . S
C694 H706 0.960 . S
C694 H707 0.962 . S
C694 H708 0.960 . S
C695 C692 1.511 . S
C695 H709 0.961 . S
C695 H710 0.961 . S
C695 H711 0.961 . S
C696 C697 1.370 . S
C696 C698 1.363 1_556 S
C696 H712 0.928 1_556 S
C697 C696 1.370 . S
C697 C701 1.408 . S
C698 C696 1.363 1_554 S
C698 C699 1.370 1_554 S
C698 C702 1.524 . S
C699 C691 1.503 1_556 S
C699 C698 1.370 1_556 S
C699 C700 1.403 . S
C700 C699 1.403 . S
C700 C701 1.404 . S
C700 C703 1.539 . S
C701 C697 1.408 . S
C701 C700 1.404 . S
C701 H713 0.930 . S
C702 C698 1.524 . S
C702 H714 0.956 . S
C702 H715 0.961 . S
C702 H716 0.961 . S
C703 C700 1.539 . S
C703 H717 0.958 . S
C703 H718 0.961 . S
C703 H719 0.960 . S
H704 C688 0.931 . S
H705 C693 0.929 . S
H706 C694 0.960 . S
H707 C694 0.962 . S
H708 C694 0.960 . S
H709 C695 0.961 . S
H710 C695 0.961 . S
H711 C695 0.961 . S
H712 C696 0.928 1_554 S
H713 C701 0.930 . S
H714 C702 0.956 . S
H715 C702 0.961 . S
H716 C702 0.961 . S
H717 C703 0.958 . S
H718 C703 0.961 . S
H719 C703 0.960 . S
C720 C721 1.391 . S
C720 C722 1.394 . S
C720 H736 0.931 . S
C721 C720 1.391 . S
C721 C725 1.376 . S
C722 C720 1.394 . S
C722 C723 1.369 . S
C722 C726 1.531 . S
C723 C722 1.369 . S
C723 C724 1.410 . S
C723 C731 1.503 . S
C724 C723 1.410 . S
C724 C725 1.392 . S
C724 C727 1.511 . S
C725 C721 1.376 . S
C725 C724 1.392 . S
C725 H737 0.929 . S
C726 C722 1.531 . S
C726 H738 0.960 . S
C726 H739 0.962 . S
C726 H740 0.960 . S
C727 C724 1.511 . S
C727 H741 0.961 . S
C727 H742 0.961 . S
C727 H743 0.961 . S
C728 C729 1.370 . S
C728 C730 1.363 . S
C728 H744 0.931 . S
C729 C728 1.370 . S
C729 C733 1.408 . S
C730 C728 1.363 . S
C730 C731 1.370 . S
C730 C734 1.524 . S
C731 C723 1.503 . S
C731 C730 1.370 . S
C731 C732 1.403 . S
C732 C731 1.403 . S
C732 C733 1.404 . S
C732 C735 1.539 . S
C733 C729 1.408 . S
C733 C732 1.404 . S
C733 H745 0.930 . S
C734 C730 1.524 . S
C734 H746 0.956 . S
C734 H747 0.961 . S
C734 H748 0.961 . S
C735 C732 1.539 . S
C735 H749 0.958 . S
C735 H750 0.961 . S
C735 H751 0.960 . S
H736 C720 0.931 . S
H737 C725 0.929 . S
H738 C726 0.960 . S
H739 C726 0.962 . S
H740 C726 0.960 . S
H741 C727 0.961 . S
H742 C727 0.961 . S
H743 C727 0.961 . S
H744 C728 0.931 . S
H745 C733 0.930 . S
H746 C734 0.956 . S
H747 C734 0.961 . S
H748 C734 0.961 . S
H749 C735 0.958 . S
H750 C735 0.961 . S
H751 C735 0.960 . S
C752 C753 1.391 . S
C752 C754 1.394 . S
C752 H768 0.931 . S
C753 C752 1.391 . S
C753 C757 1.376 . S
C754 C752 1.394 . S
C754 C755 1.369 . S
C754 C758 1.531 . S
C755 C754 1.369 . S
C755 C756 1.410 . S
C755 C763 1.503 . S
C756 C755 1.410 . S
C756 C757 1.392 . S
C756 C759 1.511 . S
C757 C753 1.376 . S
C757 C756 1.392 . S
C757 H769 0.929 . S
C758 C754 1.531 . S
C758 H770 0.960 . S
C758 H771 0.962 . S
C758 H772 0.960 . S
C759 C756 1.511 . S
C759 H773 0.961 . S
C759 H774 0.961 . S
C759 H775 0.961 . S
C760 C761 1.370 . S
C760 C762 1.363 . S
C760 H776 0.931 . S
C761 C760 1.370 . S
C761 C765 1.408 . S
C762 C760 1.363 . S
C762 C763 1.370 . S
C762 C766 1.524 . S
C763 C755 1.503 . S
C763 C762 1.370 . S
C763 C764 1.403 . S
C764 C763 1.403 . S
C764 C765 1.404 . S
C764 C767 1.539 . S
C765 C761 1.408 . S
C765 C764 1.404 . S
C765 H777 0.930 . S
C766 C762 1.524 . S
C766 H778 0.956 . S
C766 H779 0.961 . S
C766 H780 0.961 . S
C767 C764 1.539 . S
C767 H781 0.958 . S
C767 H782 0.961 . S
C767 H783 0.960 . S
H768 C752 0.931 . S
H769 C757 0.929 . S
H770 C758 0.960 . S
H771 C758 0.962 . S
H772 C758 0.960 . S
H773 C759 0.961 . S
H774 C759 0.961 . S
H775 C759 0.961 . S
H776 C760 0.931 . S
H777 C765 0.930 . S
H778 C766 0.956 . S
H779 C766 0.961 . S
H780 C766 0.961 . S
H781 C767 0.958 . S
H782 C767 0.961 . S
H783 C767 0.960 . S
C784 C785 1.391 . S
C784 C786 1.394 . S
C784 H800 0.931 . S
C785 C784 1.391 . S
C785 C789 1.376 1_556 S
C786 C784 1.394 . S
C786 C787 1.401 . S
C786 C790 1.531 . S
C787 C786 1.401 . S
C787 C788 1.385 1_556 S
C787 C795 1.497 1_556 S
C788 C787 1.385 1_554 S
C788 C789 1.392 . S
C788 C791 1.511 . S
C789 C785 1.376 1_554 S
C789 C788 1.392 . S
C789 H801 0.929 . S
C790 C786 1.531 . S
C790 H802 0.960 . S
C790 H803 0.962 . S
C790 H804 0.960 . S
C791 C788 1.511 . S
C791 H805 0.961 . S
C791 H806 0.961 . S
C791 H807 0.961 . S
C792 C793 1.370 . S
C792 C794 1.363 1_554 S
C792 H808 0.931 1_554 S
C793 C792 1.370 . S
C793 C797 1.408 . S
C794 C792 1.363 1_556 S
C794 C795 1.370 1_556 S
C794 C798 1.524 . S
C795 C787 1.497 1_554 S
C795 C794 1.370 1_554 S
C795 C796 1.403 . S
C796 C795 1.403 . S
C796 C797 1.404 . S
C796 C799 1.539 . S
C797 C793 1.408 . S
C797 C796 1.404 . S
C797 H809 0.930 . S
C798 C794 1.524 . S
C798 H810 0.956 . S
C798 H811 0.961 . S
C798 H812 0.961 . S
C799 C796 1.539 . S
C799 H813 0.958 . S
C799 H814 0.961 . S
C799 H815 0.960 . S
H800 C784 0.931 . S
H801 C789 0.929 . S
H802 C790 0.960 . S
H803 C790 0.962 . S
H804 C790 0.960 . S
H805 C791 0.961 . S
H806 C791 0.961 . S
H807 C791 0.961 . S
H808 C792 0.931 1_556 S
H809 C797 0.930 . S
H810 C798 0.956 . S
H811 C798 0.961 . S
H812 C798 0.961 . S
H813 C799 0.958 . S
H814 C799 0.961 . S
H815 C799 0.960 . S
C816 C817 1.391 . S
C816 C818 1.394 . S
C816 H832 0.931 . S
C817 C816 1.391 . S
C817 C821 1.376 . S
C818 C816 1.394 . S
C818 C819 1.369 . S
C818 C822 1.531 . S
C819 C818 1.369 . S
C819 C820 1.410 . S
C819 C827 1.503 1_545 S
C820 C819 1.410 . S
C820 C821 1.392 . S
C820 C823 1.511 . S
C821 C817 1.376 . S
C821 C820 1.392 . S
C821 H833 0.929 . S
C822 C818 1.531 . S
C822 H834 0.960 . S
C822 H835 0.962 . S
C822 H836 0.960 . S
C823 C820 1.511 . S
C823 H837 0.961 . S
C823 H838 0.961 1_545 S
C823 H839 0.961 1_545 S
C824 C825 1.370 . S
C824 C826 1.363 . S
C824 H840 0.931 . S
C825 C824 1.370 . S
C825 C829 1.408 . S
C826 C824 1.363 . S
C826 C827 1.370 . S
C826 C830 1.524 . S
C827 C819 1.503 1_565 S
C827 C826 1.370 . S
C827 C828 1.403 . S
C828 C827 1.403 . S
C828 C829 1.404 . S
C828 C831 1.539 . S
C829 C825 1.408 . S
C829 C828 1.404 . S
C829 H841 0.930 . S
C830 C826 1.524 . S
C830 H842 0.956 1_565 S
C830 H843 0.961 1_565 S
C830 H844 0.961 . S
C831 C828 1.539 . S
C831 H845 0.958 . S
C831 H846 0.961 . S
C831 H847 0.960 . S
H832 C816 0.931 . S
H833 C821 0.929 . S
H834 C822 0.960 . S
H835 C822 0.962 . S
H836 C822 0.960 . S
H837 C823 0.961 . S
H838 C823 0.961 1_565 S
H839 C823 0.961 1_565 S
H840 C824 0.931 . S
H841 C829 0.930 . S
H842 C830 0.956 1_545 S
H843 C830 0.961 1_545 S
H844 C830 0.961 . S
H845 C831 0.958 . S
H846 C831 0.961 . S
H847 C831 0.960 . S
C848 C849 1.391 . S
C848 C850 1.394 . S
C848 H864 0.931 . S
C849 C848 1.391 . S
C849 C853 1.376 . S
C850 C848 1.394 . S
C850 C851 1.369 . S
C850 C854 1.531 . S
C851 C850 1.369 . S
C851 C852 1.410 . S
C851 C859 1.503 . S
C852 C851 1.410 . S
C852 C853 1.392 . S
C852 C855 1.511 . S
C853 C849 1.376 . S
C853 C852 1.392 . S
C853 H865 0.929 . S
C854 C850 1.531 . S
C854 H866 0.960 . S
C854 H867 0.962 . S
C854 H868 0.960 . S
C855 C852 1.511 . S
C855 H869 0.961 . S
C855 H870 0.961 . S
C855 H871 0.961 . S
C856 C857 1.370 . S
C856 C858 1.363 . S
C856 H872 0.931 . S
C857 C856 1.370 . S
C857 C861 1.408 . S
C858 C856 1.363 . S
C858 C859 1.370 . S
C858 C862 1.524 . S
C859 C851 1.503 . S
C859 C858 1.370 . S
C859 C860 1.403 . S
C860 C859 1.403 . S
C860 C861 1.404 . S
C860 C863 1.539 . S
C861 C857 1.408 . S
C861 C860 1.404 . S
C861 H873 0.930 . S
C862 C858 1.524 . S
C862 H874 0.956 . S
C862 H875 0.961 . S
C862 H876 0.961 . S
C863 C860 1.539 . S
C863 H877 0.958 . S
C863 H878 0.961 . S
C863 H879 0.960 . S
H864 C848 0.931 . S
H865 C853 0.929 . S
H866 C854 0.960 . S
H867 C854 0.962 . S
H868 C854 0.960 . S
H869 C855 0.961 . S
H870 C855 0.961 . S
H871 C855 0.961 . S
H872 C856 0.931 . S
H873 C861 0.930 . S
H874 C862 0.956 . S
H875 C862 0.961 . S
H876 C862 0.961 . S
H877 C863 0.958 . S
H878 C863 0.961 . S
H879 C863 0.960 . S
C880 C881 1.391 . S
C880 C882 1.394 . S
C880 H896 0.931 1_556 S
C881 C880 1.391 . S
C881 C885 1.376 . S
C882 C880 1.394 . S
C882 C883 1.369 . S
C882 C886 1.531 1_556 S
C883 C882 1.369 . S
C883 C884 1.410 . S
C883 C891 1.503 1_655 S
C884 C883 1.410 . S
C884 C885 1.392 . S
C884 C887 1.511 . S
C885 C881 1.376 . S
C885 C884 1.392 . S
C885 H897 0.929 . S
C886 C882 1.531 1_554 S
C886 H898 0.960 . S
C886 H899 0.962 . S
C886 H900 0.960 . S
C887 C884 1.511 . S
C887 H901 0.961 . S
C887 H902 0.961 1_655 S
C887 H903 0.961 1_655 S
C888 C889 1.370 . S
C888 C890 1.363 . S
C888 H904 0.931 . S
C889 C888 1.370 . S
C889 C893 1.408 . S
C890 C888 1.363 . S
C890 C891 1.370 . S
C890 C894 1.524 . S
C891 C883 1.503 1_455 S
C891 C890 1.370 . S
C891 C892 1.403 . S
C892 C891 1.403 . S
C892 C893 1.404 . S
C892 C895 1.539 1_556 S
C893 C889 1.408 . S
C893 C892 1.404 . S
C893 H905 0.930 1_556 S
C894 C890 1.524 . S
C894 H906 0.956 1_455 S
C894 H907 0.961 1_455 S
C894 H908 0.961 . S
C895 C892 1.539 1_554 S
C895 H909 0.958 . S
C895 H910 0.961 . S
C895 H911 0.960 . S
H896 C880 0.931 1_554 S
H897 C885 0.929 . S
H898 C886 0.960 . S
H899 C886 0.962 . S
H900 C886 0.960 . S
H901 C887 0.961 . S
H902 C887 0.961 1_455 S
H903 C887 0.961 1_455 S
H904 C888 0.931 . S
H905 C893 0.930 1_554 S
H906 C894 0.956 1_655 S
H907 C894 0.961 1_655 S
H908 C894 0.961 . S
H909 C895 0.958 . S
H910 C895 0.961 . S
H911 C895 0.960 . S
C912 C913 1.391 . S
C912 C914 1.394 . S
C912 H928 0.931 . S
C913 C912 1.391 . S
C913 C917 1.376 . S
C914 C912 1.394 . S
C914 C915 1.369 . S
C914 C918 1.531 . S
C915 C914 1.369 . S
C915 C916 1.410 . S
C915 C923 1.503 1_455 S
C916 C915 1.410 . S
C916 C917 1.392 . S
C916 C919 1.511 . S
C917 C913 1.376 . S
C917 C916 1.392 . S
C917 H929 0.929 . S
C918 C914 1.531 . S
C918 H930 0.960 1_455 S
C918 H931 0.962 1_455 S
C918 H932 0.960 . S
C919 C916 1.511 . S
C919 H933 0.961 . S
C919 H934 0.961 . S
C919 H935 0.961 . S
C920 C921 1.370 . S
C920 C922 1.363 . S
C920 H936 0.931 . S
C921 C920 1.370 . S
C921 C925 1.408 . S
C922 C920 1.363 . S
C922 C923 1.370 . S
C922 C926 1.524 . S
C923 C915 1.503 1_655 S
C923 C922 1.370 . S
C923 C924 1.403 . S
C924 C923 1.403 . S
C924 C925 1.404 . S
C924 C927 1.539 . S
C925 C921 1.408 . S
C925 C924 1.404 . S
C925 H937 0.930 . S
C926 C922 1.524 . S
C926 H938 0.956 . S
C926 H939 0.961 1_655 S
C926 H940 0.961 . S
C927 C924 1.539 . S
C927 H941 0.958 . S
C927 H942 0.961 . S
C927 H943 0.960 1_655 S
H928 C912 0.931 . S
H929 C917 0.929 . S
H930 C918 0.960 1_655 S
H931 C918 0.962 1_655 S
H932 C918 0.960 . S
H933 C919 0.961 . S
H934 C919 0.961 . S
H935 C919 0.961 . S
H936 C920 0.931 . S
H937 C925 0.930 . S
H938 C926 0.956 . S
H939 C926 0.961 1_455 S
H940 C926 0.961 . S
H941 C927 0.958 . S
H942 C927 0.961 . S
H943 C927 0.960 1_455 S
C944 C945 1.391 . S
C944 C946 1.394 . S
C944 H960 0.931 . S
C945 C944 1.391 . S
C945 C949 1.376 . S
C946 C944 1.394 . S
C946 C947 1.369 . S
C946 C950 1.531 . S
C947 C946 1.369 . S
C947 C948 1.410 . S
C947 C955 1.503 1_545 S
C948 C947 1.410 . S
C948 C949 1.392 . S
C948 C951 1.511 . S
C949 C945 1.376 . S
C949 C948 1.392 . S
C949 H961 0.929 . S
C950 C946 1.531 . S
C950 H962 0.960 1_545 S
C950 H963 0.962 1_545 S
C950 H964 0.960 . S
C951 C948 1.511 . S
C951 H965 0.961 . S
C951 H966 0.961 . S
C951 H967 0.961 . S
C952 C953 1.370 . S
C952 C954 1.363 . S
C952 H968 0.931 . S
C953 C952 1.370 . S
C953 C957 1.408 . S
C954 C952 1.363 . S
C954 C955 1.370 . S
C954 C958 1.524 . S
C955 C947 1.503 1_565 S
C955 C954 1.370 . S
C955 C956 1.403 . S
C956 C955 1.403 . S
C956 C957 1.404 . S
C956 C959 1.539 . S
C957 C953 1.408 . S
C957 C956 1.404 . S
C957 H969 0.930 . S
C958 C954 1.524 . S
C958 H970 0.956 . S
C958 H971 0.961 . S
C958 H972 0.961 . S
C959 C956 1.539 . S
C959 H973 0.958 . S
C959 H974 0.961 . S
C959 H975 0.960 1_565 S
H960 C944 0.931 . S
H961 C949 0.929 . S
H962 C950 0.960 1_565 S
H963 C950 0.962 1_565 S
H964 C950 0.960 . S
H965 C951 0.961 . S
H966 C951 0.961 . S
H967 C951 0.961 . S
H968 C952 0.931 . S
H969 C957 0.930 . S
H970 C958 0.956 . S
H971 C958 0.961 . S
H972 C958 0.961 . S
H973 C959 0.958 . S
H974 C959 0.961 . S
H975 C959 0.960 1_545 S
C976 C977 1.391 . S
C976 C978 1.394 . S
C976 H992 0.931 . S
C977 C976 1.391 . S
C977 C981 1.376 . S
C978 C976 1.394 . S
C978 C979 1.369 . S
C978 C982 1.531 . S
C979 C978 1.369 . S
C979 C980 1.410 . S
C979 C987 1.503 . S
C980 C979 1.410 . S
C980 C981 1.392 . S
C980 C983 1.511 . S
C981 C977 1.376 . S
C981 C980 1.392 . S
C981 H993 0.929 . S
C982 C978 1.531 . S
C982 H994 0.960 . S
C982 H995 0.962 . S
C982 H996 0.960 . S
C983 C980 1.511 . S
C983 H997 0.961 . S
C983 H998 0.961 . S
C983 H999 0.961 . S
C984 C985 1.370 . S
C984 C986 1.363 . S
C984 H1000 0.931 1_554 S
C985 C984 1.370 . S
C985 C989 1.408 . S
C986 C984 1.363 . S
C986 C987 1.370 . S
C986 C990 1.524 1_554 S
C987 C979 1.503 . S
C987 C986 1.370 . S
C987 C988 1.403 . S
C988 C987 1.403 . S
C988 C989 1.404 . S
C988 C991 1.539 . S
C989 C985 1.408 . S
C989 C988 1.404 . S
C989 H1001 0.930 . S
C990 C986 1.524 1_556 S
C990 H1002 0.956 . S
C990 H1003 0.961 . S
C990 H1004 0.961 . S
C991 C988 1.539 . S
C991 H1005 0.958 . S
C991 H1006 0.961 . S
C991 H1007 0.960 . S
H992 C976 0.931 . S
H993 C981 0.929 . S
H994 C982 0.960 . S
H995 C982 0.962 . S
H996 C982 0.960 . S
H997 C983 0.961 . S
H998 C983 0.961 . S
H999 C983 0.961 . S
H1000 C984 0.931 1_556 S
H1001 C989 0.930 . S
H1002 C990 0.956 . S
H1003 C990 0.961 . S
H1004 C990 0.961 . S
H1005 C991 0.958 . S
H1006 C991 0.961 . S
H1007 C991 0.960 . S
C1008 C1009 1.391 . S
C1008 C1010 1.394 . S
C1008 H1024 0.931 . S
C1009 C1008 1.391 . S
C1009 C1013 1.376 . S
C1010 C1008 1.394 . S
C1010 C1011 1.369 . S
C1010 C1014 1.531 . S
C1011 C1010 1.369 . S
C1011 C1012 1.410 . S
C1011 C1019 1.503 . S
C1012 C1011 1.410 . S
C1012 C1013 1.392 . S
C1012 C1015 1.511 . S
C1013 C1009 1.376 . S
C1013 C1012 1.392 . S
C1013 H1025 0.929 . S
C1014 C1010 1.531 . S
C1014 H1026 0.960 . S
C1014 H1027 0.962 . S
C1014 H1028 0.960 . S
C1015 C1012 1.511 . S
C1015 H1029 0.961 . S
C1015 H1030 0.961 . S
C1015 H1031 0.961 . S
C1016 C1017 1.370 . S
C1016 C1018 1.363 . S
C1016 H1032 0.931 . S
C1017 C1016 1.370 . S
C1017 C1021 1.408 . S
C1018 C1016 1.363 . S
C1018 C1019 1.370 . S
C1018 C1022 1.524 . S
C1019 C1011 1.503 . S
C1019 C1018 1.370 . S
C1019 C1020 1.403 . S
C1020 C1019 1.403 . S
C1020 C1021 1.404 . S
C1020 C1023 1.539 . S
C1021 C1017 1.408 . S
C1021 C1020 1.404 . S
C1021 H1033 0.930 . S
C1022 C1018 1.524 . S
C1022 H1034 0.956 . S
C1022 H1035 0.961 . S
C1022 H1036 0.961 . S
C1023 C1020 1.539 . S
C1023 H1037 0.958 . S
C1023 H1038 0.961 . S
C1023 H1039 0.960 . S
H1024 C1008 0.931 . S
H1025 C1013 0.929 . S
H1026 C1014 0.960 . S
H1027 C1014 0.962 . S
H1028 C1014 0.960 . S
H1029 C1015 0.961 . S
H1030 C1015 0.961 . S
H1031 C1015 0.961 . S
H1032 C1016 0.931 . S
H1033 C1021 0.930 . S
H1034 C1022 0.956 . S
H1035 C1022 0.961 . S
H1036 C1022 0.961 . S
H1037 C1023 0.958 . S
H1038 C1023 0.961 . S
H1039 C1023 0.960 . S
C1040 C1041 1.391 . S
C1040 C1042 1.394 . S
C1040 H1056 0.931 . S
C1041 C1040 1.391 . S
C1041 C1045 1.376 . S
C1042 C1040 1.394 . S
C1042 C1043 1.369 . S
C1042 C1046 1.531 . S
C1043 C1042 1.369 . S
C1043 C1044 1.410 . S
C1043 C1051 1.503 . S
C1044 C1043 1.410 . S
C1044 C1045 1.392 . S
C1044 C1047 1.511 . S
C1045 C1041 1.376 . S
C1045 C1044 1.392 . S
C1045 H1057 0.929 . S
C1046 C1042 1.531 . S
C1046 H1058 0.960 . S
C1046 H1059 0.962 . S
C1046 H1060 0.960 . S
C1047 C1044 1.511 . S
C1047 H1061 0.961 . S
C1047 H1062 0.961 . S
C1047 H1063 0.961 . S
C1048 C1049 1.370 . S
C1048 C1050 1.363 . S
C1048 H1064 0.931 . S
C1049 C1048 1.370 . S
C1049 C1053 1.408 . S
C1050 C1048 1.363 . S
C1050 C1051 1.370 . S
C1050 C1054 1.524 . S
C1051 C1043 1.503 . S
C1051 C1050 1.370 . S
C1051 C1052 1.403 . S
C1052 C1051 1.403 . S
C1052 C1053 1.404 . S
C1052 C1055 1.539 . S
C1053 C1049 1.408 . S
C1053 C1052 1.404 . S
C1053 H1065 0.930 . S
C1054 C1050 1.524 . S
C1054 H1066 0.956 . S
C1054 H1067 0.961 . S
C1054 H1068 0.961 . S
C1055 C1052 1.539 . S
C1055 H1069 0.958 . S
C1055 H1070 0.961 . S
C1055 H1071 0.960 . S
H1056 C1040 0.931 . S
H1057 C1045 0.929 . S
H1058 C1046 0.960 . S
H1059 C1046 0.962 . S
H1060 C1046 0.960 . S
H1061 C1047 0.961 . S
H1062 C1047 0.961 . S
H1063 C1047 0.961 . S
H1064 C1048 0.931 . S
H1065 C1053 0.930 . S
H1066 C1054 0.956 . S
H1067 C1054 0.961 . S
H1068 C1054 0.961 . S
H1069 C1055 0.958 . S
H1070 C1055 0.961 . S
H1071 C1055 0.960 . S
C1072 C1073 1.391 . S
C1072 C1074 1.394 . S
C1072 H1088 0.931 . S
C1073 C1072 1.391 . S
C1073 C1077 1.376 . S
C1074 C1072 1.394 . S
C1074 C1075 1.369 . S
C1074 C1078 1.531 . S
C1075 C1074 1.369 . S
C1075 C1076 1.410 . S
C1075 C1083 1.503 . S
C1076 C1075 1.410 . S
C1076 C1077 1.392 . S
C1076 C1079 1.511 . S
C1077 C1073 1.376 . S
C1077 C1076 1.392 . S
C1077 H1089 0.929 . S
C1078 C1074 1.531 . S
C1078 H1090 0.960 . S
C1078 H1091 0.962 . S
C1078 H1092 0.960 . S
C1079 C1076 1.511 . S
C1079 H1093 0.961 . S
C1079 H1094 0.961 . S
C1079 H1095 0.961 . S
C1080 C1081 1.370 . S
C1080 C1082 1.363 . S
C1080 H1096 0.931 . S
C1081 C1080 1.370 . S
C1081 C1085 1.408 . S
C1082 C1080 1.363 . S
C1082 C1083 1.370 . S
C1082 C1086 1.524 . S
C1083 C1075 1.503 . S
C1083 C1082 1.370 . S
C1083 C1084 1.403 . S
C1084 C1083 1.403 . S
C1084 C1085 1.404 . S
C1084 C1087 1.539 . S
C1085 C1081 1.408 . S
C1085 C1084 1.404 . S
C1085 H1097 0.930 . S
C1086 C1082 1.524 . S
C1086 H1098 0.956 . S
C1086 H1099 0.961 . S
C1086 H1100 0.961 . S
C1087 C1084 1.539 . S
C1087 H1101 0.958 . S
C1087 H1102 0.961 . S
C1087 H1103 0.960 . S
H1088 C1072 0.931 . S
H1089 C1077 0.929 . S
H1090 C1078 0.960 . S
H1091 C1078 0.962 . S
H1092 C1078 0.960 . S
H1093 C1079 0.961 . S
H1094 C1079 0.961 . S
H1095 C1079 0.961 . S
H1096 C1080 0.931 . S
H1097 C1085 0.930 . S
H1098 C1086 0.956 . S
H1099 C1086 0.961 . S
H1100 C1086 0.961 . S
H1101 C1087 0.958 . S
H1102 C1087 0.961 . S
H1103 C1087 0.960 . S
C1104 C1105 1.391 . S
C1104 C1106 1.394 . S
C1104 H1120 0.931 . S
C1105 C1104 1.391 . S
C1105 C1109 1.376 . S
C1106 C1104 1.394 . S
C1106 C1107 1.369 . S
C1106 C1110 1.531 . S
C1107 C1106 1.369 . S
C1107 C1108 1.410 . S
C1107 C1115 1.503 . S
C1108 C1107 1.410 . S
C1108 C1109 1.392 . S
C1108 C1111 1.511 . S
C1109 C1105 1.376 . S
C1109 C1108 1.392 . S
C1109 H1121 0.929 . S
C1110 C1106 1.531 . S
C1110 H1122 0.960 . S
C1110 H1123 0.962 . S
C1110 H1124 0.960 . S
C1111 C1108 1.511 . S
C1111 H1125 0.961 . S
C1111 H1126 0.961 . S
C1111 H1127 0.961 . S
C1112 C1113 1.370 . S
C1112 C1114 1.363 . S
C1112 H1128 0.931 . S
C1113 C1112 1.370 . S
C1113 C1117 1.408 . S
C1114 C1112 1.363 . S
C1114 C1115 1.370 . S
C1114 C1118 1.524 . S
C1115 C1107 1.503 . S
C1115 C1114 1.370 . S
C1115 C1116 1.403 . S
C1116 C1115 1.403 . S
C1116 C1117 1.404 . S
C1116 C1119 1.539 . S
C1117 C1113 1.408 . S
C1117 C1116 1.404 . S
C1117 H1129 0.930 . S
C1118 C1114 1.524 . S
C1118 H1130 0.956 . S
C1118 H1131 0.961 . S
C1118 H1132 0.961 . S
C1119 C1116 1.539 . S
C1119 H1133 0.958 . S
C1119 H1134 0.961 . S
C1119 H1135 0.960 . S
H1120 C1104 0.931 . S
H1121 C1109 0.929 . S
H1122 C1110 0.960 . S
H1123 C1110 0.962 . S
H1124 C1110 0.960 . S
H1125 C1111 0.961 . S
H1126 C1111 0.961 . S
H1127 C1111 0.961 . S
H1128 C1112 0.931 . S
H1129 C1117 0.930 . S
H1130 C1118 0.956 . S
H1131 C1118 0.961 . S
H1132 C1118 0.961 . S
H1133 C1119 0.958 . S
H1134 C1119 0.961 . S
H1135 C1119 0.960 . S
C1136 C1137 1.391 . S
C1136 C1138 1.394 . S
C1136 H1152 0.931 . S
C1137 C1136 1.391 . S
C1137 C1141 1.376 . S
C1138 C1136 1.394 . S
C1138 C1139 1.369 . S
C1138 C1142 1.531 . S
C1139 C1138 1.369 . S
C1139 C1140 1.410 . S
C1139 C1147 1.503 . S
C1140 C1139 1.410 . S
C1140 C1141 1.392 . S
C1140 C1143 1.511 . S
C1141 C1137 1.376 . S
C1141 C1140 1.392 . S
C1141 H1153 0.929 . S
C1142 C1138 1.531 . S
C1142 H1154 0.960 . S
C1142 H1155 0.962 . S
C1142 H1156 0.960 . S
C1143 C1140 1.511 . S
C1143 H1157 0.961 . S
C1143 H1158 0.961 . S
C1143 H1159 0.961 . S
C1144 C1145 1.370 . S
C1144 C1146 1.363 . S
C1144 H1160 0.931 . S
C1145 C1144 1.370 . S
C1145 C1149 1.408 . S
C1146 C1144 1.363 . S
C1146 C1147 1.370 . S
C1146 C1150 1.524 . S
C1147 C1139 1.503 . S
C1147 C1146 1.370 . S
C1147 C1148 1.403 . S
C1148 C1147 1.403 . S
C1148 C1149 1.404 . S
C1148 C1151 1.539 . S
C1149 C1145 1.408 . S
C1149 C1148 1.404 . S
C1149 H1161 0.930 . S
C1150 C1146 1.524 . S
C1150 H1162 0.956 . S
C1150 H1163 0.961 . S
C1150 H1164 0.961 . S
C1151 C1148 1.539 . S
C1151 H1165 0.958 . S
C1151 H1166 0.961 . S
C1151 H1167 0.960 . S
H1152 C1136 0.931 . S
H1153 C1141 0.929 . S
H1154 C1142 0.960 . S
H1155 C1142 0.962 . S
H1156 C1142 0.960 . S
H1157 C1143 0.961 . S
H1158 C1143 0.961 . S
H1159 C1143 0.961 . S
H1160 C1144 0.931 . S
H1161 C1149 0.930 . S
H1162 C1150 0.956 . S
H1163 C1150 0.961 . S
H1164 C1150 0.961 . S
H1165 C1151 0.958 . S
H1166 C1151 0.961 . S
H1167 C1151 0.960 . S
C1168 C1169 1.391 . S
C1168 C1170 1.394 . S
C1168 H1184 0.931 . S
C1169 C1168 1.391 . S
C1169 C1173 1.376 . S
C1170 C1168 1.394 . S
C1170 C1171 1.369 . S
C1170 C1174 1.531 . S
C1171 C1170 1.369 . S
C1171 C1172 1.410 . S
C1171 C1179 1.503 . S
C1172 C1171 1.410 . S
C1172 C1173 1.392 . S
C1172 C1175 1.511 . S
C1173 C1169 1.376 . S
C1173 C1172 1.392 . S
C1173 H1185 0.929 . S
C1174 C1170 1.531 . S
C1174 H1186 0.960 . S
C1174 H1187 0.962 . S
C1174 H1188 0.960 . S
C1175 C1172 1.511 . S
C1175 H1189 0.961 . S
C1175 H1190 0.961 . S
C1175 H1191 0.961 . S
C1176 C1177 1.370 . S
C1176 C1178 1.363 . S
C1176 H1192 0.931 . S
C1177 C1176 1.370 . S
C1177 C1181 1.408 . S
C1178 C1176 1.363 . S
C1178 C1179 1.370 . S
C1178 C1182 1.524 . S
C1179 C1171 1.503 . S
C1179 C1178 1.370 . S
C1179 C1180 1.403 . S
C1180 C1179 1.403 . S
C1180 C1181 1.404 . S
C1180 C1183 1.539 . S
C1181 C1177 1.408 . S
C1181 C1180 1.404 . S
C1181 H1193 0.930 . S
C1182 C1178 1.524 . S
C1182 H1194 0.956 . S
C1182 H1195 0.961 . S
C1182 H1196 0.961 . S
C1183 C1180 1.539 . S
C1183 H1197 0.958 . S
C1183 H1198 0.961 . S
C1183 H1199 0.960 . S
H1184 C1168 0.931 . S
H1185 C1173 0.929 . S
H1186 C1174 0.960 . S
H1187 C1174 0.962 . S
H1188 C1174 0.960 . S
H1189 C1175 0.961 . S
H1190 C1175 0.961 . S
H1191 C1175 0.961 . S
H1192 C1176 0.931 . S
H1193 C1181 0.930 . S
H1194 C1182 0.956 . S
H1195 C1182 0.961 . S
H1196 C1182 0.961 . S
H1197 C1183 0.958 . S
H1198 C1183 0.961 . S
H1199 C1183 0.960 . S
C433 C4 1.555 . S
C441 C364 1.507 . S
C465 C40 1.569 . S
C473 C400 1.508 . S
C497 C220 1.560 . S
C505 C76 1.514 . S
C529 C112 1.503 . S
C537 C256 1.539 . S
C561 C292 1.565 . S
C569 C148 1.511 . S
C593 C328 1.543 . S
C601 C184 1.523 . S
C625 C218 0.412 . S
C633 C2 0.488 . S
C657 C254 0.519 . S
C665 C38 0.481 . S
C689 C290 0.366 . S
C697 C74 0.441 . S
C721 C110 0.474 . S
C729 C326 0.412 . S
C753 C146 0.359 . S
C761 C362 0.450 . S
C785 C182 0.363 . S
C793 C398 0.444 . S
C817 C14 1.193 . S
C825 C122 1.202 . S
C849 C50 1.241 . S
C857 C158 1.240 . S
C881 C86 1.208 . S
C889 C194 1.205 . S
C913 C338 1.250 . S
C921 C230 1.240 . S
C945 C374 1.226 . S
C953 C266 1.237 . S
C977 C410 1.259 . S
C985 C302 1.240 . S
C1009 C3 1.510 . S
C1017 C291 1.528 . S
C1041 C327 1.517 . S
C1049 C39 1.533 . S
C1073 C75 1.529 . S
C1081 C363 1.539 . S
C1105 C399 1.531 . S
C1113 C111 1.539 . S
C1137 C147 1.553 . S
C1145 C219 1.543 . S
C1169 C183 1.542 . S
C1177 C255 1.536 . S
