# Generated by pormake.
# Topology umx, (4)-cn, num edge types: 1
# Building blocks:
#     Node 0, Type 0, BuildingBlock: NAWXER_clean_sbu_0, # of connection points: 4
#     Node 1, Type 0, BuildingBlock: NAWXER_clean_sbu_0, # of connection points: 4
#     Node 2, Type 0, BuildingBlock: NAWXER_clean_sbu_0, # of connection points: 4
#     Node 3, Type 0, BuildingBlock: NAWXER_clean_sbu_0, # of connection points: 4
#     Node 4, Type 0, BuildingBlock: NAWXER_clean_sbu_0, # of connection points: 4
#     Node 5, Type 0, BuildingBlock: NAWXER_clean_sbu_0, # of connection points: 4
#     Node 6, Type 0, BuildingBlock: NAWXER_clean_sbu_0, # of connection points: 4
#     Node 7, Type 0, BuildingBlock: NAWXER_clean_sbu_0, # of connection points: 4
#     Edge 8, Type (0, 0), BuildingBlock: XUDNAN_clean_linker_2, # of connection points: 2
#     Edge 9, Type (0, 0), BuildingBlock: XUDNAN_clean_linker_2, # of connection points: 2
#     Edge 10, Type (0, 0), BuildingBlock: XUDNAN_clean_linker_2, # of connection points: 2
#     Edge 11, Type (0, 0), BuildingBlock: XUDNAN_clean_linker_2, # of connection points: 2
#     Edge 12, Type (0, 0), BuildingBlock: XUDNAN_clean_linker_2, # of connection points: 2
#     Edge 13, Type (0, 0), BuildingBlock: XUDNAN_clean_linker_2, # of connection points: 2
#     Edge 14, Type (0, 0), BuildingBlock: XUDNAN_clean_linker_2, # of connection points: 2
#     Edge 15, Type (0, 0), BuildingBlock: XUDNAN_clean_linker_2, # of connection points: 2
#     Edge 16, Type (0, 0), BuildingBlock: XUDNAN_clean_linker_2, # of connection points: 2
#     Edge 17, Type (0, 0), BuildingBlock: XUDNAN_clean_linker_2, # of connection points: 2
#     Edge 18, Type (0, 0), BuildingBlock: XUDNAN_clean_linker_2, # of connection points: 2
#     Edge 19, Type (0, 0), BuildingBlock: XUDNAN_clean_linker_2, # of connection points: 2
#     Edge 20, Type (0, 0), BuildingBlock: XUDNAN_clean_linker_2, # of connection points: 2
#     Edge 21, Type (0, 0), BuildingBlock: XUDNAN_clean_linker_2, # of connection points: 2
#     Edge 22, Type (0, 0), BuildingBlock: XUDNAN_clean_linker_2, # of connection points: 2
#     Edge 23, Type (0, 0), BuildingBlock: XUDNAN_clean_linker_2, # of connection points: 2
# Relax obj value: 0.027
# Max RMSD: 0.221
# Mean RMSD: 0.220
data_MOF--net-umx--node1-NAWXER_clean_sbu_0--edge1-XUDNAN_clean_linker_2
_symmetry_space_group_name_H-M    P1
_symmetry_Int_Tables_number       1
_symmetry_cell_setting            triclinic
loop_
_symmetry_equiv_pos_as_xyz
'x, y, z'
_cell_length_a     38.789347
_cell_length_b     38.765638
_cell_length_c     29.106159
_cell_angle_alpha  95.388931
_cell_angle_beta   95.339703
_cell_angle_gamma 90.046648
loop_
_atom_site_label
_atom_site_type_symbol
_atom_site_fract_x
_atom_site_fract_y
_atom_site_fract_z
_atom_type_partial_charge
C0 C 0.2297 0.40456 0.02398 0.0
C1 C 0.11185 0.44487 0.01717 0.0
O2 O 0.20157 0.38795 0.02436 0.0
Zn3 Zn 0.17171 0.42604 0.01902 0.0
O4 O 0.22899 0.43749 0.02108 0.0
Zn5 Zn 0.18821 0.47663 0.01587 0.0
O6 O 0.19968 0.50759 0.07066 0.0
O7 O 0.18324 0.4557 0.08575 0.0
O8 O 0.13254 0.47065 0.01647 0.0
O9 O 0.12406 0.41461 0.01735 0.0
O10 O 0.17895 0.43922 0.94998 0.0
O11 O 0.19374 0.49445 0.95714 0.0
C12 C 0.19367 0.48663 0.10003 0.0
C13 C 0.18746 0.46641 0.93154 0.0
C14 C 0.50205 0.21935 0.45282 0.0
C15 C 0.50301 0.2214 0.61858 0.0
O16 O 0.48002 0.23141 0.47948 0.0
Zn17 Zn 0.50283 0.21873 0.5356 0.0
O18 O 0.52867 0.2034 0.46959 0.0
Zn19 Zn 0.54915 0.19084 0.53796 0.0
O20 O 0.54834 0.14058 0.53315 0.0
O21 O 0.49637 0.1636 0.53069 0.0
O22 O 0.52945 0.20502 0.60461 0.0
O23 O 0.48121 0.23366 0.58937 0.0
O24 O 0.54917 0.24981 0.54275 0.0
O25 O 0.59349 0.21417 0.54461 0.0
C26 C 0.51567 0.13676 0.53031 0.0
C27 C 0.58194 0.24488 0.54549 0.0
C28 C 0.87091 0.5176 0.04127 0.0
C29 C 0.7621 0.58122 0.03474 0.0
O30 O 0.84408 0.49819 0.03061 0.0
Zn31 Zn 0.78936 0.50251 0.01987 0.0
O32 O 0.8673 0.55013 0.04934 0.0
Zn33 Zn 0.81699 0.55053 0.03887 0.0
O34 O 0.79968 0.52593 0.09527 0.0
O35 O 0.77387 0.47627 0.06827 0.0
O36 O 0.79253 0.59372 0.04462 0.0
O37 O 0.75787 0.54839 0.02504 0.0
O38 O 0.78074 0.48549 0.95438 0.0
O39 O 0.80794 0.53606 0.96634 0.0
C40 C 0.78395 0.49811 0.10223 0.0
C41 C 0.79434 0.5112 0.93839 0.0
C42 C 0.46878 0.8117 0.4442 0.0
C43 C 0.49148 0.81886 0.61281 0.0
O44 O 0.44194 0.82168 0.46439 0.0
Zn45 Zn 0.42926 0.83264 0.53551 0.0
O46 O 0.49642 0.8053 0.46867 0.0
Zn47 Zn 0.4794 0.81597 0.52857 0.0
O48 O 0.44079 0.77497 0.53223 0.0
O49 O 0.39144 0.80238 0.5387 0.0
O50 O 0.5117 0.81082 0.58173 0.0
O51 O 0.4602 0.82743 0.60069 0.0
O52 O 0.41738 0.88024 0.53884 0.0
O53 O 0.47273 0.87196 0.531 0.0
C54 C 0.40803 0.77423 0.53627 0.0
C55 C 0.44706 0.89262 0.53485 0.0
C56 C 0.20685 0.51713 0.44039 0.0
C57 C 0.21198 0.499 0.60496 0.0
O58 O 0.19362 0.54211 0.46484 0.0
Zn59 Zn 0.18447 0.55545 0.5363 0.0
O60 O 0.21929 0.49123 0.4598 0.0
Zn61 Zn 0.21049 0.50796 0.52243 0.0
O62 O 0.15524 0.50445 0.51795 0.0
O63 O 0.13412 0.55662 0.53324 0.0
O64 O 0.22379 0.47976 0.57236 0.0
O65 O 0.19739 0.52762 0.59607 0.0
O66 O 0.21049 0.59811 0.55047 0.0
O67 O 0.24377 0.55293 0.53642 0.0
C68 C 0.12916 0.52431 0.52266 0.0
C69 C 0.24047 0.58566 0.54621 0.0
C70 C 0.41846 0.23626 0.02925 0.0
C71 C 0.48352 0.12885 0.03448 0.0
O72 O 0.45138 0.24108 0.03184 0.0
Zn73 Zn 0.49794 0.2101 0.03487 0.0
O74 O 0.4062 0.20563 0.02758 0.0
Zn75 Zn 0.44991 0.18235 0.0302 0.0
O76 O 0.47043 0.20137 0.09837 0.0
O77 O 0.52077 0.2275 0.0945 0.0
O78 O 0.45088 0.13229 0.02971 0.0
O79 O 0.50307 0.15569 0.03658 0.0
O80 O 0.51799 0.21954 0.97876 0.0
O81 O 0.46674 0.19363 0.9658 0.0
C82 C 0.49712 0.21802 0.11818 0.0
C83 C 0.49268 0.20792 0.95073 0.0
C84 C 0.81428 0.49018 0.60248 0.0
C85 C 0.79628 0.48039 0.43491 0.0
O86 O 0.8054 0.5127 0.5749 0.0
Zn87 Zn 0.80823 0.48436 0.51869 0.0
O88 O 0.8226 0.45969 0.586 0.0
Zn89 Zn 0.82535 0.43402 0.51595 0.0
O90 O 0.87282 0.42327 0.51257 0.0
O91 O 0.86369 0.47936 0.5146 0.0
O92 O 0.80884 0.452 0.44848 0.0
O93 O 0.79205 0.50564 0.4647 0.0
O94 O 0.76873 0.44463 0.5223 0.0
O95 O 0.79623 0.39481 0.51702 0.0
C96 C 0.88459 0.45372 0.5124 0.0
C97 C 0.76837 0.41139 0.52131 0.0
C98 C 0.59099 0.76784 0.04889 0.0
C99 C 0.55161 0.8862 0.0557 0.0
O100 O 0.60727 0.79599 0.06155 0.0
Zn101 Zn 0.56939 0.82635 0.05397 0.0
O102 O 0.55818 0.76855 0.03729 0.0
Zn103 Zn 0.51919 0.80925 0.0325 0.0
O104 O 0.50148 0.80315 0.96796 0.0
O105 O 0.55596 0.82071 0.97929 0.0
O106 O 0.52601 0.86533 0.04301 0.0
O107 O 0.58135 0.87401 0.06586 0.0
O108 O 0.53886 0.81713 0.11023 0.0
O109 O 0.48762 0.79981 0.07737 0.0
C110 C 0.52906 0.81187 0.95149 0.0
C111 C 0.50777 0.80714 0.1139 0.0
H112 H 0.19746 0.44578 0.17256 0.0
H113 H 0.19963 0.55302 0.14115 0.0
H114 H 0.20488 0.57217 0.22484 0.0
H115 H 0.14763 0.45829 0.26949 0.0
H116 H 0.17138 0.42754 0.30257 0.0
H117 H 0.16847 0.42212 0.2402 0.0
H118 H 0.23541 0.42123 0.24278 0.0
H119 H 0.23854 0.42662 0.3052 0.0
H120 H 0.26036 0.45672 0.27391 0.0
H121 H 0.20623 0.57982 0.3113 0.0
H122 H 0.20713 0.57552 0.39545 0.0
H123 H 0.20733 0.46333 0.37157 0.0
C124 C 0.19914 0.47329 0.18329 0.0
C125 C 0.19802 0.49793 0.15028 0.0
C126 C 0.20052 0.53368 0.16576 0.0
C127 C 0.20345 0.54481 0.21323 0.0
C128 C 0.20429 0.51988 0.24481 0.0
C129 C 0.20256 0.48486 0.23058 0.0
C130 C 0.20411 0.46346 0.27175 0.0
C131 C 0.17092 0.44157 0.27094 0.0
C132 C 0.23654 0.44067 0.2735 0.0
C133 C 0.20649 0.49196 0.31134 0.0
C134 C 0.20638 0.52429 0.29493 0.0
C135 C 0.20672 0.55466 0.3246 0.0
C136 C 0.20711 0.55194 0.37231 0.0
C137 C 0.20756 0.51911 0.39 0.0
C138 C 0.20754 0.48876 0.35905 0.0
H139 H 0.54801 0.20713 0.69316 0.0
H140 H 0.4441 0.24339 0.65566 0.0
H141 H 0.43204 0.24654 0.73734 0.0
H142 H 0.52611 0.15377 0.77814 0.0
H143 H 0.56411 0.16415 0.81758 0.0
H144 H 0.56577 0.16647 0.75634 0.0
H145 H 0.58673 0.23034 0.77173 0.0
H146 H 0.58525 0.2282 0.83311 0.0
H147 H 0.56157 0.26127 0.80432 0.0
H148 H 0.42885 0.2407 0.81997 0.0
H149 H 0.43604 0.23005 0.90237 0.0
H150 H 0.54295 0.20093 0.88948 0.0
C151 C 0.52286 0.21604 0.70227 0.0
C152 C 0.49697 0.22496 0.66805 0.0
C153 C 0.46437 0.23651 0.68125 0.0
C154 C 0.45724 0.2384 0.72756 0.0
C155 C 0.4831 0.22907 0.7603 0.0
C156 C 0.51539 0.2185 0.74858 0.0
C157 C 0.53818 0.20935 0.79085 0.0
C158 C 0.54918 0.17117 0.78538 0.0
C159 C 0.56981 0.23375 0.80057 0.0
C160 C 0.51328 0.21568 0.82785 0.0
C161 C 0.48166 0.22696 0.80917 0.0
C162 C 0.45359 0.23241 0.83526 0.0
C163 C 0.45787 0.2261 0.88184 0.0
C164 C 0.49005 0.21489 0.90192 0.0
C165 C 0.51829 0.21001 0.87485 0.0
H166 H 0.81589 0.44034 0.35806 0.0
H167 H 0.75417 0.52932 0.39961 0.0
H168 H 0.73886 0.53834 0.3178 0.0
H169 H 0.85129 0.47731 0.26708 0.0
H170 H 0.8507 0.43807 0.22852 0.0
H171 H 0.85377 0.43574 0.29021 0.0
H172 H 0.79944 0.39588 0.28071 0.0
H173 H 0.79614 0.3982 0.21887 0.0
H174 H 0.75983 0.41016 0.25119 0.0
H175 H 0.73461 0.54188 0.23366 0.0
H176 H 0.74306 0.54048 0.15052 0.0
H177 H 0.80669 0.44919 0.16051 0.0
C178 C 0.79866 0.4613 0.34981 0.0
C179 C 0.78614 0.48406 0.38529 0.0
C180 C 0.76416 0.51159 0.37313 0.0
C181 C 0.7551 0.51682 0.3267 0.0
C182 C 0.76815 0.4943 0.2926 0.0
C183 C 0.78948 0.46709 0.30334 0.0
C184 C 0.80205 0.44854 0.25975 0.0
C185 C 0.8418 0.45002 0.26151 0.0
C186 C 0.78855 0.41096 0.25219 0.0
C187 C 0.78522 0.47023 0.22316 0.0
C188 C 0.76543 0.4962 0.24307 0.0
C189 C 0.74941 0.52128 0.21744 0.0
C190 C 0.7543 0.52028 0.17035 0.0
C191 C 0.77476 0.4943 0.14931 0.0
C192 C 0.78998 0.46858 0.17573 0.0
H193 H 0.47429 0.81188 0.88405 0.0
H194 H 0.5866 0.81328 0.90414 0.0
H195 H 0.58911 0.81482 0.81991 0.0
H196 H 0.46564 0.75839 0.77498 0.0
H197 H 0.42952 0.7822 0.75085 0.0
H198 H 0.43649 0.78022 0.8126 0.0
H199 H 0.4374 0.84729 0.825 0.0
H200 H 0.4305 0.84948 0.76329 0.0
H201 H 0.46725 0.87133 0.79598 0.0
H202 H 0.57953 0.8153 0.73337 0.0
H203 H 0.55855 0.8172 0.65093 0.0
H204 H 0.45244 0.81819 0.68707 0.0
C205 C 0.49941 0.81229 0.87069 0.0
C206 C 0.53028 0.81227 0.90073 0.0
C207 C 0.56262 0.81328 0.88188 0.0
C208 C 0.56432 0.8141 0.83405 0.0
C209 C 0.53345 0.81424 0.80545 0.0
C210 C 0.50159 0.81357 0.82304 0.0
C211 C 0.47233 0.81488 0.78483 0.0
C212 C 0.44966 0.78196 0.78057 0.0
C213 C 0.4506 0.8477 0.79276 0.0
C214 C 0.49273 0.81627 0.74304 0.0
C215 C 0.52793 0.81563 0.75569 0.0
C216 C 0.55202 0.81597 0.72308 0.0
C217 C 0.53984 0.817 0.6763 0.0
C218 C 0.50387 0.81803 0.66249 0.0
C219 C 0.4801 0.81775 0.69652 0.0
H220 H 0.8109 0.44593 0.67116 0.0
H221 H 0.81465 0.55479 0.64751 0.0
H222 H 0.80862 0.57106 0.73008 0.0
H223 H 0.74665 0.45461 0.75256 0.0
H224 H 0.76566 0.42328 0.78913 0.0
H225 H 0.7717 0.41946 0.72823 0.0
H226 H 0.83824 0.41962 0.74759 0.0
H227 H 0.8324 0.4231 0.80853 0.0
H228 H 0.85866 0.45462 0.7857 0.0
H229 H 0.80195 0.57618 0.81358 0.0
H230 H 0.79614 0.57008 0.89581 0.0
H231 H 0.79463 0.45804 0.86766 0.0
C232 C 0.81089 0.47315 0.68357 0.0
C233 C 0.81337 0.49912 0.65289 0.0
C234 C 0.81275 0.53446 0.67029 0.0
C235 C 0.80931 0.54399 0.71715 0.0
C236 C 0.8063 0.5179 0.74627 0.0
C237 C 0.80712 0.48321 0.73045 0.0
C238 C 0.80275 0.46058 0.76948 0.0
C239 C 0.76972 0.43816 0.75922 0.0
C240 C 0.83494 0.43816 0.77834 0.0
C241 C 0.79943 0.48808 0.80954 0.0
C242 C 0.80165 0.5209 0.79508 0.0
C243 C 0.80013 0.55066 0.82541 0.0
C244 C 0.79684 0.54688 0.87206 0.0
C245 C 0.79485 0.51361 0.88809 0.0
C246 C 0.79567 0.48378 0.85624 0.0
H247 H 0.54632 0.80986 0.19856 0.0
H248 H 0.44075 0.8001 0.13433 0.0
H249 H 0.41942 0.799 0.21151 0.0
H250 H 0.53536 0.75252 0.28822 0.0
H251 H 0.56336 0.77797 0.33149 0.0
H252 H 0.57037 0.77759 0.27111 0.0
H253 H 0.56636 0.84455 0.27719 0.0
H254 H 0.55931 0.84513 0.33753 0.0
H255 H 0.52856 0.86527 0.29832 0.0
H256 H 0.40929 0.80212 0.29613 0.0
H257 H 0.4114 0.80596 0.3816 0.0
H258 H 0.52363 0.81096 0.39069 0.0
C259 C 0.51872 0.80736 0.20068 0.0
C260 C 0.49521 0.80514 0.16028 0.0
C261 C 0.4593 0.80175 0.16467 0.0
C262 C 0.44691 0.80116 0.20841 0.0
C263 C 0.47074 0.80362 0.2475 0.0
C264 C 0.50592 0.80633 0.24405 0.0
C265 C 0.52604 0.80846 0.2915 0.0
C266 C 0.55021 0.77727 0.29582 0.0
C267 C 0.54625 0.8429 0.30172 0.0
C268 C 0.49667 0.80692 0.3222 0.0
C269 C 0.46496 0.8043 0.29614 0.0
C270 C 0.43399 0.80384 0.31685 0.0
C271 C 0.43544 0.80612 0.36544 0.0
C272 C 0.46766 0.80849 0.39286 0.0
C273 C 0.49862 0.8087 0.37072 0.0
H274 H 0.18749 0.51997 0.87588 0.0
H275 H 0.1976 0.40836 0.87381 0.0
H276 H 0.2077 0.40485 0.79097 0.0
H277 H 0.14088 0.51886 0.76264 0.0
H278 H 0.16134 0.55783 0.74872 0.0
H279 H 0.15605 0.55157 0.8082 0.0
H280 H 0.22205 0.56073 0.82907 0.0
H281 H 0.22757 0.56675 0.76956 0.0
H282 H 0.25198 0.53404 0.79814 0.0
H283 H 0.21829 0.41367 0.7087 0.0
H284 H 0.22246 0.43344 0.63108 0.0
H285 H 0.20245 0.53885 0.68572 0.0
C286 C 0.19185 0.4948 0.85798 0.0
C287 C 0.19188 0.46443 0.88135 0.0
C288 C 0.19733 0.43195 0.85659 0.0
C289 C 0.20329 0.42971 0.80959 0.0
C290 C 0.20334 0.46015 0.78765 0.0
C291 C 0.1973 0.49203 0.81084 0.0
C292 C 0.19729 0.52059 0.77867 0.0
C293 C 0.16178 0.53824 0.7743 0.0
C294 C 0.22646 0.54709 0.79484 0.0
C295 C 0.20431 0.4998 0.73382 0.0
C296 C 0.20817 0.46505 0.73987 0.0
C297 C 0.21517 0.44081 0.7035 0.0
C298 C 0.21766 0.45231 0.65958 0.0
C299 C 0.21271 0.48765 0.65227 0.0
C300 C 0.20625 0.51164 0.69013 0.0
H301 H 0.5444 0.1979 0.38508 0.0
H302 H 0.44987 0.25428 0.40861 0.0
H303 H 0.44268 0.26548 0.32654 0.0
H304 H 0.57437 0.2527 0.30037 0.0
H305 H 0.59071 0.21666 0.2653 0.0
H306 H 0.59013 0.21484 0.32689 0.0
H307 H 0.5544 0.15768 0.31223 0.0
H308 H 0.55518 0.15917 0.25074 0.0
H309 H 0.51438 0.15641 0.27524 0.0
H310 H 0.44286 0.26707 0.2424 0.0
H311 H 0.44931 0.25676 0.15868 0.0
H312 H 0.54432 0.20091 0.18817 0.0
C313 C 0.5223 0.21278 0.37301 0.0
C314 C 0.49771 0.22525 0.40329 0.0
C315 C 0.46905 0.24444 0.38612 0.0
C316 C 0.46484 0.25115 0.3396 0.0
C317 C 0.48957 0.23865 0.31076 0.0
C318 C 0.51769 0.21978 0.32656 0.0
C319 C 0.53933 0.2077 0.28744 0.0
C320 C 0.5758 0.22396 0.2955 0.0
C321 C 0.54089 0.16788 0.28104 0.0
C322 C 0.51841 0.22203 0.24704 0.0
C323 C 0.49002 0.2401 0.26157 0.0
C324 C 0.46528 0.25356 0.23059 0.0
C325 C 0.46915 0.24765 0.1833 0.0
C326 C 0.49763 0.22876 0.16767 0.0
C327 C 0.52297 0.21636 0.19976 0.0
H328 H 0.93491 0.54946 0.04179 0.0
H329 H 0.88495 0.44901 0.04123 0.0
H330 H 0.94101 0.4204 0.03534 0.0
H331 H 0.99407 0.52306 0.9591 0.0
H332 H 0.02987 0.54915 0.98713 0.0
H333 H 0.98609 0.56269 0.99393 0.0
H334 H 0.99844 0.56544 0.08322 0.0
H335 H 0.04238 0.55221 0.07671 0.0
H336 H 0.01535 0.52786 0.10941 0.0
H337 H 0.00074 0.40202 0.0259 0.0
H338 H 0.06275 0.39468 0.01729 0.0
H339 H 0.07586 0.50647 0.02396 0.0
C340 C 0.93591 0.5215 0.0411 0.0
C341 C 0.90548 0.5015 0.04194 0.0
C342 C 0.90781 0.46493 0.04047 0.0
C343 C 0.93956 0.44836 0.03714 0.0
C344 C 0.96887 0.46865 0.03537 0.0
C345 C 0.96757 0.50439 0.03763 0.0
C346 C 0.00316 0.5197 0.03405 0.0
C347 C 0.00329 0.53984 0.99099 0.0
C348 C 0.01556 0.54266 0.0785 0.0
C349 C 0.0244 0.48692 0.02904 0.0
C350 C 0.00393 0.45787 0.02993 0.0
C351 C 0.01717 0.42453 0.02541 0.0
C352 C 0.05247 0.42067 0.02042 0.0
C353 C 0.07427 0.44998 0.01999 0.0
C354 C 0.0599 0.48356 0.0241 0.0
H355 H 0.50763 0.93016 0.53395 0.0
H356 H 0.39602 0.94082 0.53253 0.0
H357 H 0.40189 0.00364 0.52914 0.0
H358 H 0.52932 0.00907 0.60661 0.0
H359 H 0.56586 0.01955 0.57634 0.0
H360 H 0.55317 0.97498 0.57768 0.0
H361 H 0.54798 0.96677 0.48793 0.0
H362 H 0.56056 0.01136 0.48631 0.0
H363 H 0.52048 0.99515 0.45548 0.0
H364 H 0.41898 0.0647 0.52591 0.0
H365 H 0.44675 0.1217 0.5259 0.0
H366 H 0.54776 0.07303 0.53054 0.0
C367 C 0.48445 0.94572 0.53287 0.0
C368 C 0.45135 0.93046 0.53346 0.0
C369 C 0.42167 0.9518 0.53219 0.0
C370 C 0.42469 0.98756 0.53014 0.0
C371 C 0.45756 0.00174 0.52951 0.0
C372 C 0.48698 0.98167 0.53104 0.0
C373 C 0.51922 0.00387 0.53086 0.0
C374 C 0.54331 0.00174 0.57554 0.0
C375 C 0.53817 0.99367 0.48756 0.0
C376 C 0.50319 0.03949 0.52912 0.0
C377 C 0.46758 0.03748 0.52813 0.0
C378 C 0.44686 0.06669 0.52668 0.0
C379 C 0.46295 0.09898 0.52665 0.0
C380 C 0.49948 0.10195 0.52823 0.0
C381 C 0.5198 0.07166 0.52922 0.0
H382 H 0.06624 0.5563 0.5348 0.0
H383 H 0.11233 0.45682 0.49625 0.0
H384 H 0.05487 0.42925 0.48763 0.0
H385 H 0.00265 0.52365 0.60157 0.0
H386 H 0.96895 0.55265 0.58301 0.0
H387 H 0.0137 0.56556 0.58475 0.0
H388 H 0.00473 0.57699 0.4982 0.0
H389 H 0.95991 0.56415 0.49621 0.0
H390 H 0.98743 0.54294 0.45585 0.0
H391 H 0.99396 0.41143 0.48596 0.0
H392 H 0.93139 0.4043 0.48984 0.0
H393 H 0.92265 0.5148 0.52823 0.0
C394 C 0.06416 0.52879 0.52423 0.0
C395 C 0.09392 0.50879 0.51623 0.0
C396 C 0.09007 0.47279 0.50266 0.0
C397 C 0.05748 0.4568 0.49758 0.0
C398 C 0.02882 0.47707 0.50603 0.0
C399 C 0.03161 0.51225 0.51889 0.0
C400 C 0.99636 0.52761 0.52658 0.0
C401 C 0.99537 0.54329 0.57698 0.0
C402 C 0.98653 0.55451 0.49215 0.0
C403 C 0.97356 0.49543 0.5164 0.0
C404 C 0.993 0.46666 0.50461 0.0
C405 C 0.97833 0.43375 0.49488 0.0
C406 C 0.94274 0.42999 0.49732 0.0
C407 C 0.92205 0.45898 0.50926 0.0
C408 C 0.93773 0.4922 0.51866 0.0
H409 H 0.49157 0.92239 0.03638 0.0
H410 H 0.60177 0.93592 0.07715 0.0
H411 H 0.59575 0.99896 0.07592 0.0
H412 H 0.48422 0.98876 0.95845 0.0
H413 H 0.44239 0.0033 0.97409 0.0
H414 H 0.45479 0.95893 0.97895 0.0
H415 H 0.44311 0.96515 0.06553 0.0
H416 H 0.43051 0.0095 0.06089 0.0
H417 H 0.46435 0.99939 0.10417 0.0
H418 H 0.57895 0.05969 0.06805 0.0
H419 H 0.55159 0.1159 0.05745 0.0
H420 H 0.4517 0.06438 0.02307 0.0
C421 C 0.51438 0.93863 0.0453 0.0
C422 C 0.54715 0.92414 0.05684 0.0
C423 C 0.57638 0.94632 0.06823 0.0
C424 C 0.57327 0.98221 0.06758 0.0
C425 C 0.54076 0.9956 0.05567 0.0
C426 C 0.51174 0.97466 0.04501 0.0
C427 C 0.47989 0.996 0.03334 0.0
C428 C 0.46442 0.98615 0.98323 0.0
C429 C 0.45287 0.99229 0.06806 0.0
C430 C 0.49569 0.03212 0.03894 0.0
C431 C 0.53086 0.03112 0.05167 0.0
C432 C 0.5514 0.0609 0.05828 0.0
C433 C 0.53556 0.09271 0.05202 0.0
C434 C 0.49946 0.0946 0.03946 0.0
C435 C 0.47932 0.0638 0.03281 0.0
H436 H 0.23845 0.33483 0.02597 0.0
H437 H 0.2956 0.43122 0.02594 0.0
H438 H 0.35042 0.39855 0.02759 0.0
H439 H 0.29982 0.2938 0.10294 0.0
H440 H 0.29279 0.2514 0.07231 0.0
H441 H 0.25838 0.28255 0.07177 0.0
H442 H 0.25269 0.27614 0.98191 0.0
H443 H 0.28714 0.24504 0.98215 0.0
H444 H 0.29022 0.28314 0.95166 0.0
H445 H 0.39874 0.35505 0.02866 0.0
H446 H 0.43705 0.30434 0.02919 0.0
H447 H 0.34757 0.23669 0.02788 0.0
C448 C 0.26245 0.34921 0.02648 0.0
C449 C 0.26276 0.38562 0.0259 0.0
C450 C 0.29476 0.40333 0.02641 0.0
C451 C 0.32599 0.38501 0.02734 0.0
C452 C 0.32465 0.34908 0.02769 0.0
C453 C 0.29369 0.33141 0.02729 0.0
C454 C 0.29913 0.29277 0.02735 0.0
C455 C 0.28681 0.27935 0.07121 0.0
C456 C 0.28124 0.27313 0.98313 0.0
C457 C 0.33809 0.29137 0.02781 0.0
C458 C 0.35233 0.3241 0.02806 0.0
C459 C 0.38787 0.32931 0.0285 0.0
C460 C 0.40939 0.3003 0.02879 0.0
C461 C 0.39531 0.2665 0.02856 0.0
C462 C 0.35914 0.26213 0.028 0.0
H463 H 0.75973 0.34133 0.52116 0.0
H464 H 0.70418 0.43851 0.5336 0.0
H465 H 0.65079 0.40646 0.5441 0.0
H466 H 0.69107 0.29105 0.45683 0.0
H467 H 0.70117 0.2525 0.48534 0.0
H468 H 0.73493 0.28325 0.47951 0.0
H469 H 0.75057 0.28842 0.56847 0.0
H470 H 0.71671 0.25782 0.57461 0.0
H471 H 0.71748 0.30001 0.60656 0.0
H472 H 0.60352 0.36375 0.55221 0.0
H473 H 0.56517 0.31345 0.55532 0.0
H474 H 0.65205 0.24432 0.53812 0.0
C475 C 0.73637 0.35597 0.52607 0.0
C476 C 0.73611 0.39246 0.52654 0.0
C477 C 0.70497 0.41055 0.53305 0.0
C478 C 0.67457 0.39259 0.53916 0.0
C479 C 0.67583 0.35663 0.53874 0.0
C480 C 0.7059 0.33852 0.53225 0.0
C481 C 0.7003 0.2999 0.53256 0.0
C482 C 0.70727 0.28055 0.48578 0.0
C483 C 0.72259 0.28571 0.57296 0.0
C484 C 0.66225 0.29905 0.53998 0.0
C485 C 0.64866 0.33204 0.5436 0.0
C486 C 0.61389 0.3378 0.54957 0.0
C487 C 0.59233 0.30903 0.5513 0.0
C488 C 0.60563 0.27493 0.54707 0.0
C489 C 0.64116 0.27004 0.54183 0.0
H490 H 0.76059 0.65179 0.05632 0.0
H491 H 0.69412 0.56214 0.01329 0.0
H492 H 0.64284 0.5997 0.01361 0.0
H493 H 0.70365 0.69551 0.13322 0.0
H494 H 0.71415 0.73807 0.11813 0.0
H495 H 0.74565 0.70405 0.1147 0.0
H496 H 0.75106 0.71328 0.02858 0.0
H497 H 0.71965 0.74738 0.03179 0.0
H498 H 0.71273 0.71116 0.98828 0.0
H499 H 0.59856 0.64745 0.01763 0.0
H500 H 0.56518 0.70179 0.02485 0.0
H501 H 0.66084 0.7595 0.06592 0.0
C502 C 0.73528 0.64001 0.04696 0.0
C503 C 0.73145 0.60399 0.03475 0.0
C504 C 0.69779 0.58967 0.02277 0.0
C505 C 0.66844 0.61078 0.02288 0.0
C506 C 0.67313 0.64617 0.03513 0.0
C507 C 0.7057 0.66067 0.04696 0.0
C508 C 0.70371 0.69944 0.05852 0.0
C509 C 0.71761 0.70987 0.10915 0.0
C510 C 0.72292 0.71896 0.02477 0.0
C511 C 0.66497 0.70448 0.05117 0.0
C512 C 0.64772 0.67349 0.03772 0.0
C513 C 0.61178 0.67188 0.02829 0.0
C514 C 0.59305 0.70285 0.0325 0.0
C515 C 0.61032 0.7349 0.04606 0.0
C516 C 0.64675 0.73546 0.05569 0.0
H517 H 0.33925 0.76564 0.54599 0.0
H518 H 0.43437 0.70813 0.53263 0.0
H519 H 0.40233 0.65349 0.53746 0.0
H520 H 0.30415 0.71391 0.62758 0.0
H521 H 0.26021 0.71721 0.60222 0.0
H522 H 0.29088 0.75159 0.59881 0.0
H523 H 0.27855 0.74616 0.50933 0.0
H524 H 0.24775 0.71191 0.51247 0.0
H525 H 0.28322 0.7047 0.47697 0.0
H526 H 0.35905 0.60504 0.54173 0.0
H527 H 0.30836 0.56677 0.54334 0.0
H528 H 0.24212 0.65682 0.55457 0.0
C529 C 0.35351 0.74163 0.54418 0.0
C530 C 0.38939 0.74119 0.53892 0.0
C531 C 0.4069 0.70912 0.53664 0.0
C532 C 0.38893 0.67798 0.53947 0.0
C533 C 0.35354 0.67945 0.5447 0.0
C534 C 0.33607 0.71049 0.547 0.0
C535 C 0.29793 0.70517 0.55168 0.0
C536 C 0.28771 0.72303 0.59782 0.0
C537 C 0.27556 0.71772 0.51014 0.0
C538 C 0.29648 0.66616 0.55122 0.0
C539 C 0.32882 0.65177 0.54737 0.0
C540 C 0.33368 0.61607 0.54499 0.0
C541 C 0.30469 0.59455 0.54596 0.0
C542 C 0.27122 0.60876 0.54926 0.0
C543 C 0.26733 0.64511 0.55246 0.0
loop_
_geom_bond_atom_site_label_1
_geom_bond_atom_site_label_2
_geom_bond_distance
_geom_bond_site_symmetry_2
_ccdc_geom_bond_type
C0 O2 1.247 . S
C0 O4 1.258 . S
C1 O8 1.247 . S
C1 O9 1.258 . S
O2 C0 1.247 . S
O2 Zn3 2.028 . S
Zn3 O2 2.028 . S
Zn3 O7 2.035 . S
Zn3 O9 2.035 . S
Zn3 O10 2.028 1_554 S
O4 C0 1.258 . S
O4 Zn5 2.035 . S
Zn5 O4 2.035 . S
Zn5 O6 2.028 . S
Zn5 O8 2.028 . S
Zn5 O11 2.035 1_554 S
O6 Zn5 2.028 . S
O6 C12 1.247 . S
O7 Zn3 2.035 . S
O7 C12 1.258 . S
O8 C1 1.247 . S
O8 Zn5 2.028 . S
O9 C1 1.258 . S
O9 Zn3 2.035 . S
O10 Zn3 2.028 1_556 S
O10 C13 1.247 . S
O11 Zn5 2.035 1_556 S
O11 C13 1.258 . S
C12 O6 1.247 . S
C12 O7 1.258 . S
C13 O10 1.247 . S
C13 O11 1.258 . S
C14 O16 1.247 . S
C14 O18 1.258 . S
C15 O22 1.247 . S
C15 O23 1.258 . S
O16 C14 1.247 . S
O16 Zn17 2.028 . S
Zn17 O16 2.028 . S
Zn17 O21 2.035 . S
Zn17 O23 2.035 . S
Zn17 O24 2.028 . S
O18 C14 1.258 . S
O18 Zn19 2.035 . S
Zn19 O18 2.035 . S
Zn19 O20 2.028 . S
Zn19 O22 2.028 . S
Zn19 O25 2.035 . S
O20 Zn19 2.028 . S
O20 C26 1.247 . S
O21 Zn17 2.035 . S
O21 C26 1.258 . S
O22 C15 1.247 . S
O22 Zn19 2.028 . S
O23 C15 1.258 . S
O23 Zn17 2.035 . S
O24 Zn17 2.028 . S
O24 C27 1.247 . S
O25 Zn19 2.035 . S
O25 C27 1.258 . S
C26 O20 1.247 . S
C26 O21 1.258 . S
C27 O24 1.247 . S
C27 O25 1.258 . S
C28 O30 1.247 . S
C28 O32 1.258 . S
C29 O36 1.247 . S
C29 O37 1.258 . S
O30 C28 1.247 . S
O30 Zn31 2.028 . S
Zn31 O30 2.028 . S
Zn31 O35 2.035 . S
Zn31 O37 2.035 . S
Zn31 O38 2.028 1_554 S
O32 C28 1.258 . S
O32 Zn33 2.035 . S
Zn33 O32 2.035 . S
Zn33 O34 2.028 . S
Zn33 O36 2.028 . S
Zn33 O39 2.035 1_554 S
O34 Zn33 2.028 . S
O34 C40 1.247 . S
O35 Zn31 2.035 . S
O35 C40 1.258 . S
O36 C29 1.247 . S
O36 Zn33 2.028 . S
O37 C29 1.258 . S
O37 Zn31 2.035 . S
O38 Zn31 2.028 1_556 S
O38 C41 1.247 . S
O39 Zn33 2.035 1_556 S
O39 C41 1.258 . S
C40 O34 1.247 . S
C40 O35 1.258 . S
C41 O38 1.247 . S
C41 O39 1.258 . S
C42 O44 1.247 . S
C42 O46 1.258 . S
C43 O50 1.247 . S
C43 O51 1.258 . S
O44 C42 1.247 . S
O44 Zn45 2.028 . S
Zn45 O44 2.028 . S
Zn45 O49 2.035 . S
Zn45 O51 2.035 . S
Zn45 O52 2.028 . S
O46 C42 1.258 . S
O46 Zn47 2.035 . S
Zn47 O46 2.035 . S
Zn47 O48 2.028 . S
Zn47 O50 2.028 . S
Zn47 O53 2.035 . S
O48 Zn47 2.028 . S
O48 C54 1.247 . S
O49 Zn45 2.035 . S
O49 C54 1.258 . S
O50 C43 1.247 . S
O50 Zn47 2.028 . S
O51 C43 1.258 . S
O51 Zn45 2.035 . S
O52 Zn45 2.028 . S
O52 C55 1.247 . S
O53 Zn47 2.035 . S
O53 C55 1.258 . S
C54 O48 1.247 . S
C54 O49 1.258 . S
C55 O52 1.247 . S
C55 O53 1.258 . S
C56 O58 1.247 . S
C56 O60 1.258 . S
C57 O64 1.247 . S
C57 O65 1.258 . S
O58 C56 1.247 . S
O58 Zn59 2.028 . S
Zn59 O58 2.028 . S
Zn59 O63 2.035 . S
Zn59 O65 2.035 . S
Zn59 O66 2.028 . S
O60 C56 1.258 . S
O60 Zn61 2.035 . S
Zn61 O60 2.035 . S
Zn61 O62 2.028 . S
Zn61 O64 2.028 . S
Zn61 O67 2.035 . S
O62 Zn61 2.028 . S
O62 C68 1.247 . S
O63 Zn59 2.035 . S
O63 C68 1.258 . S
O64 C57 1.247 . S
O64 Zn61 2.028 . S
O65 C57 1.258 . S
O65 Zn59 2.035 . S
O66 Zn59 2.028 . S
O66 C69 1.247 . S
O67 Zn61 2.035 . S
O67 C69 1.258 . S
C68 O62 1.247 . S
C68 O63 1.258 . S
C69 O66 1.247 . S
C69 O67 1.258 . S
C70 O72 1.247 . S
C70 O74 1.258 . S
C71 O78 1.247 . S
C71 O79 1.258 . S
O72 C70 1.247 . S
O72 Zn73 2.028 . S
Zn73 O72 2.028 . S
Zn73 O77 2.035 . S
Zn73 O79 2.035 . S
Zn73 O80 2.028 1_554 S
O74 C70 1.258 . S
O74 Zn75 2.035 . S
Zn75 O74 2.035 . S
Zn75 O76 2.028 . S
Zn75 O78 2.028 . S
Zn75 O81 2.035 1_554 S
O76 Zn75 2.028 . S
O76 C82 1.247 . S
O77 Zn73 2.035 . S
O77 C82 1.258 . S
O78 C71 1.247 . S
O78 Zn75 2.028 . S
O79 C71 1.258 . S
O79 Zn73 2.035 . S
O80 Zn73 2.028 1_556 S
O80 C83 1.247 . S
O81 Zn75 2.035 1_556 S
O81 C83 1.258 . S
C82 O76 1.247 . S
C82 O77 1.258 . S
C83 O80 1.247 . S
C83 O81 1.258 . S
C84 O86 1.247 . S
C84 O88 1.258 . S
C85 O92 1.247 . S
C85 O93 1.258 . S
O86 C84 1.247 . S
O86 Zn87 2.028 . S
Zn87 O86 2.028 . S
Zn87 O91 2.035 . S
Zn87 O93 2.035 . S
Zn87 O94 2.028 . S
O88 C84 1.258 . S
O88 Zn89 2.035 . S
Zn89 O88 2.035 . S
Zn89 O90 2.028 . S
Zn89 O92 2.028 . S
Zn89 O95 2.035 . S
O90 Zn89 2.028 . S
O90 C96 1.247 . S
O91 Zn87 2.035 . S
O91 C96 1.258 . S
O92 C85 1.247 . S
O92 Zn89 2.028 . S
O93 C85 1.258 . S
O93 Zn87 2.035 . S
O94 Zn87 2.028 . S
O94 C97 1.247 . S
O95 Zn89 2.035 . S
O95 C97 1.258 . S
C96 O90 1.247 . S
C96 O91 1.258 . S
C97 O94 1.247 . S
C97 O95 1.258 . S
C98 O100 1.247 . S
C98 O102 1.258 . S
C99 O106 1.247 . S
C99 O107 1.258 . S
O100 C98 1.247 . S
O100 Zn101 2.028 . S
Zn101 O100 2.028 . S
Zn101 O105 2.035 1_554 S
Zn101 O107 2.035 . S
Zn101 O108 2.028 . S
O102 C98 1.258 . S
O102 Zn103 2.035 . S
Zn103 O102 2.035 . S
Zn103 O104 2.028 1_554 S
Zn103 O106 2.028 . S
Zn103 O109 2.035 . S
O104 Zn103 2.028 1_556 S
O104 C110 1.247 . S
O105 Zn101 2.035 1_556 S
O105 C110 1.258 . S
O106 C99 1.247 . S
O106 Zn103 2.028 . S
O107 C99 1.258 . S
O107 Zn101 2.035 . S
O108 Zn101 2.028 . S
O108 C111 1.247 . S
O109 Zn103 2.035 . S
O109 C111 1.258 . S
C110 O104 1.247 . S
C110 O105 1.258 . S
C111 O108 1.247 . S
C111 O109 1.258 . S
H112 C124 0.930 . S
H113 C126 0.930 . S
H114 C127 0.930 . S
H115 C131 0.959 . S
H116 C131 0.959 . S
H117 C131 0.961 . S
H118 C132 0.960 . S
H119 C132 0.961 . S
H120 C132 0.959 . S
H121 C135 0.929 . S
H122 C136 0.931 . S
H123 C138 0.930 . S
C124 H112 0.930 . S
C124 C125 1.399 . S
C124 C129 1.399 . S
C125 C124 1.399 . S
C125 C126 1.376 . S
C126 H113 0.930 . S
C126 C125 1.376 . S
C126 C127 1.388 . S
C127 H114 0.930 . S
C127 C126 1.388 . S
C127 C128 1.390 . S
C128 C127 1.390 . S
C128 C129 1.394 . S
C128 C134 1.465 . S
C129 C124 1.399 . S
C129 C128 1.394 . S
C129 C130 1.516 . S
C130 C129 1.516 . S
C130 C131 1.502 . S
C130 C132 1.561 . S
C130 C133 1.526 . S
C131 H115 0.959 . S
C131 H116 0.959 . S
C131 H117 0.961 . S
C131 C130 1.502 . S
C132 H118 0.960 . S
C132 H119 0.961 . S
C132 H120 0.959 . S
C132 C130 1.561 . S
C133 C130 1.526 . S
C133 C134 1.396 . S
C133 C138 1.390 . S
C134 C128 1.465 . S
C134 C133 1.396 . S
C134 C135 1.399 . S
C135 H121 0.929 . S
C135 C134 1.399 . S
C135 C136 1.385 . S
C136 H122 0.931 . S
C136 C135 1.385 . S
C136 C137 1.389 . S
C137 C136 1.389 . S
C137 C138 1.387 . S
C138 H123 0.930 . S
C138 C133 1.390 . S
C138 C137 1.387 . S
H139 C151 0.930 . S
H140 C153 0.930 . S
H141 C154 0.930 . S
H142 C158 0.959 . S
H143 C158 0.959 . S
H144 C158 0.961 . S
H145 C159 0.960 . S
H146 C159 0.961 . S
H147 C159 0.959 . S
H148 C162 0.929 . S
H149 C163 0.931 . S
H150 C165 0.930 . S
C151 H139 0.930 . S
C151 C152 1.399 . S
C151 C156 1.399 . S
C152 C151 1.399 . S
C152 C153 1.376 . S
C153 H140 0.930 . S
C153 C152 1.376 . S
C153 C154 1.388 . S
C154 H141 0.930 . S
C154 C153 1.388 . S
C154 C155 1.390 . S
C155 C154 1.390 . S
C155 C156 1.394 . S
C155 C161 1.465 . S
C156 C151 1.399 . S
C156 C155 1.394 . S
C156 C157 1.516 . S
C157 C156 1.516 . S
C157 C158 1.502 . S
C157 C159 1.561 . S
C157 C160 1.526 . S
C158 H142 0.959 . S
C158 H143 0.959 . S
C158 H144 0.961 . S
C158 C157 1.502 . S
C159 H145 0.960 . S
C159 H146 0.961 . S
C159 H147 0.959 . S
C159 C157 1.561 . S
C160 C157 1.526 . S
C160 C161 1.396 . S
C160 C165 1.390 . S
C161 C155 1.465 . S
C161 C160 1.396 . S
C161 C162 1.399 . S
C162 H148 0.929 . S
C162 C161 1.399 . S
C162 C163 1.385 . S
C163 H149 0.931 . S
C163 C162 1.385 . S
C163 C164 1.389 . S
C164 C163 1.389 . S
C164 C165 1.387 . S
C165 H150 0.930 . S
C165 C160 1.390 . S
C165 C164 1.387 . S
H166 C178 0.930 . S
H167 C180 0.930 . S
H168 C181 0.930 . S
H169 C185 0.959 . S
H170 C185 0.959 . S
H171 C185 0.961 . S
H172 C186 0.960 . S
H173 C186 0.961 . S
H174 C186 0.959 . S
H175 C189 0.929 . S
H176 C190 0.931 . S
H177 C192 0.930 . S
C178 H166 0.930 . S
C178 C179 1.399 . S
C178 C183 1.399 . S
C179 C178 1.399 . S
C179 C180 1.376 . S
C180 H167 0.930 . S
C180 C179 1.376 . S
C180 C181 1.388 . S
C181 H168 0.930 . S
C181 C180 1.388 . S
C181 C182 1.390 . S
C182 C181 1.390 . S
C182 C183 1.394 . S
C182 C188 1.465 . S
C183 C178 1.399 . S
C183 C182 1.394 . S
C183 C184 1.516 . S
C184 C183 1.516 . S
C184 C185 1.502 . S
C184 C186 1.561 . S
C184 C187 1.526 . S
C185 H169 0.959 . S
C185 H170 0.959 . S
C185 H171 0.961 . S
C185 C184 1.502 . S
C186 H172 0.960 . S
C186 H173 0.961 . S
C186 H174 0.959 . S
C186 C184 1.561 . S
C187 C184 1.526 . S
C187 C188 1.396 . S
C187 C192 1.390 . S
C188 C182 1.465 . S
C188 C187 1.396 . S
C188 C189 1.399 . S
C189 H175 0.929 . S
C189 C188 1.399 . S
C189 C190 1.385 . S
C190 H176 0.931 . S
C190 C189 1.385 . S
C190 C191 1.389 . S
C191 C190 1.389 . S
C191 C192 1.387 . S
C192 H177 0.930 . S
C192 C187 1.390 . S
C192 C191 1.387 . S
H193 C205 0.930 . S
H194 C207 0.930 . S
H195 C208 0.930 . S
H196 C212 0.959 . S
H197 C212 0.959 . S
H198 C212 0.961 . S
H199 C213 0.960 . S
H200 C213 0.961 . S
H201 C213 0.959 . S
H202 C216 0.929 . S
H203 C217 0.931 . S
H204 C219 0.930 . S
C205 H193 0.930 . S
C205 C206 1.399 . S
C205 C210 1.399 . S
C206 C205 1.399 . S
C206 C207 1.376 . S
C207 H194 0.930 . S
C207 C206 1.376 . S
C207 C208 1.388 . S
C208 H195 0.930 . S
C208 C207 1.388 . S
C208 C209 1.390 . S
C209 C208 1.390 . S
C209 C210 1.394 . S
C209 C215 1.465 . S
C210 C205 1.399 . S
C210 C209 1.394 . S
C210 C211 1.516 . S
C211 C210 1.516 . S
C211 C212 1.502 . S
C211 C213 1.561 . S
C211 C214 1.526 . S
C212 H196 0.959 . S
C212 H197 0.959 . S
C212 H198 0.961 . S
C212 C211 1.502 . S
C213 H199 0.960 . S
C213 H200 0.961 . S
C213 H201 0.959 . S
C213 C211 1.561 . S
C214 C211 1.526 . S
C214 C215 1.396 . S
C214 C219 1.390 . S
C215 C209 1.465 . S
C215 C214 1.396 . S
C215 C216 1.399 . S
C216 H202 0.929 . S
C216 C215 1.399 . S
C216 C217 1.385 . S
C217 H203 0.931 . S
C217 C216 1.385 . S
C217 C218 1.389 . S
C218 C217 1.389 . S
C218 C219 1.387 . S
C219 H204 0.930 . S
C219 C214 1.390 . S
C219 C218 1.387 . S
H220 C232 0.930 . S
H221 C234 0.930 . S
H222 C235 0.930 . S
H223 C239 0.959 . S
H224 C239 0.959 . S
H225 C239 0.961 . S
H226 C240 0.960 . S
H227 C240 0.961 . S
H228 C240 0.959 . S
H229 C243 0.929 . S
H230 C244 0.931 . S
H231 C246 0.930 . S
C232 H220 0.930 . S
C232 C233 1.399 . S
C232 C237 1.399 . S
C233 C232 1.399 . S
C233 C234 1.376 . S
C234 H221 0.930 . S
C234 C233 1.376 . S
C234 C235 1.388 . S
C235 H222 0.930 . S
C235 C234 1.388 . S
C235 C236 1.390 . S
C236 C235 1.390 . S
C236 C237 1.394 . S
C236 C242 1.465 . S
C237 C232 1.399 . S
C237 C236 1.394 . S
C237 C238 1.516 . S
C238 C237 1.516 . S
C238 C239 1.502 . S
C238 C240 1.561 . S
C238 C241 1.526 . S
C239 H223 0.959 . S
C239 H224 0.959 . S
C239 H225 0.961 . S
C239 C238 1.502 . S
C240 H226 0.960 . S
C240 H227 0.961 . S
C240 H228 0.959 . S
C240 C238 1.561 . S
C241 C238 1.526 . S
C241 C242 1.396 . S
C241 C246 1.390 . S
C242 C236 1.465 . S
C242 C241 1.396 . S
C242 C243 1.399 . S
C243 H229 0.929 . S
C243 C242 1.399 . S
C243 C244 1.385 . S
C244 H230 0.931 . S
C244 C243 1.385 . S
C244 C245 1.389 . S
C245 C244 1.389 . S
C245 C246 1.387 . S
C246 H231 0.930 . S
C246 C241 1.390 . S
C246 C245 1.387 . S
H247 C259 0.930 . S
H248 C261 0.930 . S
H249 C262 0.930 . S
H250 C266 0.959 . S
H251 C266 0.959 . S
H252 C266 0.961 . S
H253 C267 0.960 . S
H254 C267 0.961 . S
H255 C267 0.959 . S
H256 C270 0.929 . S
H257 C271 0.931 . S
H258 C273 0.930 . S
C259 H247 0.930 . S
C259 C260 1.399 . S
C259 C264 1.399 . S
C260 C259 1.399 . S
C260 C261 1.376 . S
C261 H248 0.930 . S
C261 C260 1.376 . S
C261 C262 1.388 . S
C262 H249 0.930 . S
C262 C261 1.388 . S
C262 C263 1.390 . S
C263 C262 1.390 . S
C263 C264 1.394 . S
C263 C269 1.465 . S
C264 C259 1.399 . S
C264 C263 1.394 . S
C264 C265 1.516 . S
C265 C264 1.516 . S
C265 C266 1.502 . S
C265 C267 1.561 . S
C265 C268 1.526 . S
C266 H250 0.959 . S
C266 H251 0.959 . S
C266 H252 0.961 . S
C266 C265 1.502 . S
C267 H253 0.960 . S
C267 H254 0.961 . S
C267 H255 0.959 . S
C267 C265 1.561 . S
C268 C265 1.526 . S
C268 C269 1.396 . S
C268 C273 1.390 . S
C269 C263 1.465 . S
C269 C268 1.396 . S
C269 C270 1.399 . S
C270 H256 0.929 . S
C270 C269 1.399 . S
C270 C271 1.385 . S
C271 H257 0.931 . S
C271 C270 1.385 . S
C271 C272 1.389 . S
C272 C271 1.389 . S
C272 C273 1.387 . S
C273 H258 0.930 . S
C273 C268 1.390 . S
C273 C272 1.387 . S
H274 C286 0.930 . S
H275 C288 0.930 . S
H276 C289 0.930 . S
H277 C293 0.959 . S
H278 C293 0.959 . S
H279 C293 0.961 . S
H280 C294 0.960 . S
H281 C294 0.961 . S
H282 C294 0.959 . S
H283 C297 0.929 . S
H284 C298 0.931 . S
H285 C300 0.930 . S
C286 H274 0.930 . S
C286 C287 1.399 . S
C286 C291 1.399 . S
C287 C286 1.399 . S
C287 C288 1.376 . S
C288 H275 0.930 . S
C288 C287 1.376 . S
C288 C289 1.388 . S
C289 H276 0.930 . S
C289 C288 1.388 . S
C289 C290 1.390 . S
C290 C289 1.390 . S
C290 C291 1.394 . S
C290 C296 1.465 . S
C291 C286 1.399 . S
C291 C290 1.394 . S
C291 C292 1.516 . S
C292 C291 1.516 . S
C292 C293 1.502 . S
C292 C294 1.561 . S
C292 C295 1.526 . S
C293 H277 0.959 . S
C293 H278 0.959 . S
C293 H279 0.961 . S
C293 C292 1.502 . S
C294 H280 0.960 . S
C294 H281 0.961 . S
C294 H282 0.959 . S
C294 C292 1.561 . S
C295 C292 1.526 . S
C295 C296 1.396 . S
C295 C300 1.390 . S
C296 C290 1.465 . S
C296 C295 1.396 . S
C296 C297 1.399 . S
C297 H283 0.929 . S
C297 C296 1.399 . S
C297 C298 1.385 . S
C298 H284 0.931 . S
C298 C297 1.385 . S
C298 C299 1.389 . S
C299 C298 1.389 . S
C299 C300 1.387 . S
C300 H285 0.930 . S
C300 C295 1.390 . S
C300 C299 1.387 . S
H301 C313 0.930 . S
H302 C315 0.930 . S
H303 C316 0.930 . S
H304 C320 0.959 . S
H305 C320 0.959 . S
H306 C320 0.961 . S
H307 C321 0.960 . S
H308 C321 0.961 . S
H309 C321 0.959 . S
H310 C324 0.929 . S
H311 C325 0.931 . S
H312 C327 0.930 . S
C313 H301 0.930 . S
C313 C314 1.399 . S
C313 C318 1.399 . S
C314 C313 1.399 . S
C314 C315 1.376 . S
C315 H302 0.930 . S
C315 C314 1.376 . S
C315 C316 1.388 . S
C316 H303 0.930 . S
C316 C315 1.388 . S
C316 C317 1.390 . S
C317 C316 1.390 . S
C317 C318 1.394 . S
C317 C323 1.465 . S
C318 C313 1.399 . S
C318 C317 1.394 . S
C318 C319 1.516 . S
C319 C318 1.516 . S
C319 C320 1.502 . S
C319 C321 1.561 . S
C319 C322 1.526 . S
C320 H304 0.959 . S
C320 H305 0.959 . S
C320 H306 0.961 . S
C320 C319 1.502 . S
C321 H307 0.960 . S
C321 H308 0.961 . S
C321 H309 0.959 . S
C321 C319 1.561 . S
C322 C319 1.526 . S
C322 C323 1.396 . S
C322 C327 1.390 . S
C323 C317 1.465 . S
C323 C322 1.396 . S
C323 C324 1.399 . S
C324 H310 0.929 . S
C324 C323 1.399 . S
C324 C325 1.385 . S
C325 H311 0.931 . S
C325 C324 1.385 . S
C325 C326 1.389 . S
C326 C325 1.389 . S
C326 C327 1.387 . S
C327 H312 0.930 . S
C327 C322 1.390 . S
C327 C326 1.387 . S
H328 C340 0.930 . S
H329 C342 0.930 . S
H330 C343 0.930 . S
H331 C347 0.959 . S
H332 C347 0.959 1_455 S
H333 C347 0.961 . S
H334 C348 0.960 1_655 S
H335 C348 0.961 . S
H336 C348 0.959 . S
H337 C351 0.929 . S
H338 C352 0.931 . S
H339 C354 0.930 . S
C340 H328 0.930 . S
C340 C341 1.399 . S
C340 C345 1.399 . S
C341 C340 1.399 . S
C341 C342 1.376 1_554 S
C342 H329 0.930 . S
C342 C341 1.376 1_556 S
C342 C343 1.388 . S
C343 H330 0.930 . S
C343 C342 1.388 . S
C343 C344 1.390 1_556 S
C344 C343 1.390 1_554 S
C344 C345 1.394 . S
C344 C350 1.465 1_655 S
C345 C340 1.399 . S
C345 C344 1.394 . S
C345 C346 1.516 1_655 S
C346 C345 1.516 1_455 S
C346 C347 1.502 1_455 S
C346 C348 1.561 . S
C346 C349 1.526 . S
C347 H331 0.959 . S
C347 H332 0.959 1_655 S
C347 H333 0.961 . S
C347 C346 1.502 1_655 S
C348 H334 0.960 1_455 S
C348 H335 0.961 . S
C348 H336 0.959 . S
C348 C346 1.561 . S
C349 C346 1.526 . S
C349 C350 1.396 . S
C349 C354 1.390 . S
C350 C344 1.465 1_455 S
C350 C349 1.396 . S
C350 C351 1.399 1_554 S
C351 H337 0.929 . S
C351 C350 1.399 1_556 S
C351 C352 1.385 . S
C352 H338 0.931 . S
C352 C351 1.385 . S
C352 C353 1.389 1_556 S
C353 C352 1.389 1_554 S
C353 C354 1.387 . S
C354 H339 0.930 . S
C354 C349 1.390 . S
C354 C353 1.387 . S
H355 C367 0.930 . S
H356 C369 0.930 . S
H357 C370 0.930 . S
H358 C374 0.959 . S
H359 C374 0.959 . S
H360 C374 0.961 1_565 S
H361 C375 0.960 . S
H362 C375 0.961 1_545 S
H363 C375 0.959 . S
H364 C378 0.929 . S
H365 C379 0.931 . S
H366 C381 0.930 . S
C367 H355 0.930 . S
C367 C368 1.399 . S
C367 C372 1.399 . S
C368 C367 1.399 . S
C368 C369 1.376 . S
C369 H356 0.930 . S
C369 C368 1.376 . S
C369 C370 1.388 . S
C370 H357 0.930 . S
C370 C369 1.388 . S
C370 C371 1.390 . S
C371 C370 1.390 . S
C371 C372 1.394 . S
C371 C377 1.465 1_565 S
C372 C367 1.399 . S
C372 C371 1.394 . S
C372 C373 1.516 . S
C373 C372 1.516 . S
C373 C374 1.502 1_565 S
C373 C375 1.561 . S
C373 C376 1.526 1_565 S
C374 H358 0.959 . S
C374 H359 0.959 . S
C374 H360 0.961 1_545 S
C374 C373 1.502 1_545 S
C375 H361 0.960 . S
C375 H362 0.961 1_565 S
C375 H363 0.959 . S
C375 C373 1.561 . S
C376 C373 1.526 1_545 S
C376 C377 1.396 . S
C376 C381 1.390 . S
C377 C371 1.465 1_545 S
C377 C376 1.396 . S
C377 C378 1.399 . S
C378 H364 0.929 . S
C378 C377 1.399 . S
C378 C379 1.385 . S
C379 H365 0.931 . S
C379 C378 1.385 . S
C379 C380 1.389 . S
C380 C379 1.389 . S
C380 C381 1.387 . S
C381 H366 0.930 . S
C381 C376 1.390 . S
C381 C380 1.387 . S
H382 C394 0.930 . S
H383 C396 0.930 . S
H384 C397 0.930 . S
H385 C401 0.959 1_655 S
H386 C401 0.959 1_655 S
H387 C401 0.961 . S
H388 C402 0.960 . S
H389 C402 0.961 1_655 S
H390 C402 0.959 . S
H391 C405 0.929 . S
H392 C406 0.931 . S
H393 C408 0.930 . S
C394 H382 0.930 . S
C394 C395 1.399 . S
C394 C399 1.399 . S
C395 C394 1.399 . S
C395 C396 1.376 . S
C396 H383 0.930 . S
C396 C395 1.376 . S
C396 C397 1.388 . S
C397 H384 0.930 . S
C397 C396 1.388 . S
C397 C398 1.390 . S
C398 C397 1.390 . S
C398 C399 1.394 . S
C398 C404 1.465 1_455 S
C399 C394 1.399 . S
C399 C398 1.394 . S
C399 C400 1.516 . S
C400 C399 1.516 . S
C400 C401 1.502 . S
C400 C402 1.561 . S
C400 C403 1.526 1_455 S
C401 H385 0.959 1_455 S
C401 H386 0.959 1_455 S
C401 H387 0.961 . S
C401 C400 1.502 . S
C402 H388 0.960 . S
C402 H389 0.961 1_455 S
C402 H390 0.959 . S
C402 C400 1.561 . S
C403 C400 1.526 1_655 S
C403 C404 1.396 . S
C403 C408 1.390 . S
C404 C398 1.465 1_655 S
C404 C403 1.396 . S
C404 C405 1.399 . S
C405 H391 0.929 . S
C405 C404 1.399 . S
C405 C406 1.385 . S
C406 H392 0.931 . S
C406 C405 1.385 . S
C406 C407 1.389 . S
C407 C406 1.389 . S
C407 C408 1.387 . S
C408 H393 0.930 . S
C408 C403 1.390 . S
C408 C407 1.387 . S
H409 C421 0.930 . S
H410 C423 0.930 . S
H411 C424 0.930 . S
H412 C428 0.959 . S
H413 C428 0.959 1_545 S
H414 C428 0.961 . S
H415 C429 0.960 . S
H416 C429 0.961 1_545 S
H417 C429 0.959 1_545 S
H418 C432 0.929 . S
H419 C433 0.931 . S
H420 C435 0.930 . S
C421 H409 0.930 . S
C421 C422 1.399 1_556 S
C421 C426 1.399 . S
C422 C421 1.399 1_554 S
C422 C423 1.376 . S
C423 H410 0.930 . S
C423 C422 1.376 . S
C423 C424 1.388 . S
C424 H411 0.930 . S
C424 C423 1.388 . S
C424 C425 1.390 . S
C425 C424 1.390 . S
C425 C426 1.394 1_554 S
C425 C431 1.465 1_565 S
C426 C421 1.399 . S
C426 C425 1.394 1_556 S
C426 C427 1.516 . S
C427 C426 1.516 . S
C427 C428 1.502 . S
C427 C429 1.561 . S
C427 C430 1.526 1_565 S
C428 H412 0.959 . S
C428 H413 0.959 1_565 S
C428 H414 0.961 . S
C428 C427 1.502 . S
C429 H415 0.960 . S
C429 H416 0.961 1_565 S
C429 H417 0.959 1_565 S
C429 C427 1.561 . S
C430 C427 1.526 1_545 S
C430 C431 1.396 1_556 S
C430 C435 1.390 . S
C431 C425 1.465 1_545 S
C431 C430 1.396 1_554 S
C431 C432 1.399 . S
C432 H418 0.929 . S
C432 C431 1.399 . S
C432 C433 1.385 . S
C433 H419 0.931 . S
C433 C432 1.385 . S
C433 C434 1.389 . S
C434 C433 1.389 . S
C434 C435 1.387 1_554 S
C435 H420 0.930 . S
C435 C430 1.390 . S
C435 C434 1.387 1_556 S
H436 C448 0.930 . S
H437 C450 0.930 . S
H438 C451 0.930 . S
H439 C455 0.959 . S
H440 C455 0.959 . S
H441 C455 0.961 . S
H442 C456 0.960 . S
H443 C456 0.961 . S
H444 C456 0.959 . S
H445 C459 0.929 . S
H446 C460 0.931 . S
H447 C462 0.930 . S
C448 H436 0.930 . S
C448 C449 1.399 1_556 S
C448 C453 1.399 . S
C449 C448 1.399 1_554 S
C449 C450 1.376 . S
C450 H437 0.930 . S
C450 C449 1.376 . S
C450 C451 1.388 . S
C451 H438 0.930 . S
C451 C450 1.388 . S
C451 C452 1.390 . S
C452 C451 1.390 . S
C452 C453 1.394 1_554 S
C452 C458 1.465 . S
C453 C448 1.399 . S
C453 C452 1.394 1_556 S
C453 C454 1.516 . S
C454 C453 1.516 . S
C454 C455 1.502 . S
C454 C456 1.561 . S
C454 C457 1.526 . S
C455 H439 0.959 . S
C455 H440 0.959 . S
C455 H441 0.961 . S
C455 C454 1.502 . S
C456 H442 0.960 . S
C456 H443 0.961 . S
C456 H444 0.959 . S
C456 C454 1.561 . S
C457 C454 1.526 . S
C457 C458 1.396 1_556 S
C457 C462 1.390 . S
C458 C452 1.465 . S
C458 C457 1.396 1_554 S
C458 C459 1.399 . S
C459 H445 0.929 . S
C459 C458 1.399 . S
C459 C460 1.385 . S
C460 H446 0.931 . S
C460 C459 1.385 . S
C460 C461 1.389 . S
C461 C460 1.389 . S
C461 C462 1.387 1_554 S
C462 H447 0.930 . S
C462 C457 1.390 . S
C462 C461 1.387 1_556 S
H463 C475 0.930 . S
H464 C477 0.930 . S
H465 C478 0.930 . S
H466 C482 0.959 . S
H467 C482 0.959 . S
H468 C482 0.961 . S
H469 C483 0.960 . S
H470 C483 0.961 . S
H471 C483 0.959 . S
H472 C486 0.929 . S
H473 C487 0.931 . S
H474 C489 0.930 . S
C475 H463 0.930 . S
C475 C476 1.399 . S
C475 C480 1.399 . S
C476 C475 1.399 . S
C476 C477 1.376 . S
C477 H464 0.930 . S
C477 C476 1.376 . S
C477 C478 1.388 . S
C478 H465 0.930 . S
C478 C477 1.388 . S
C478 C479 1.390 . S
C479 C478 1.390 . S
C479 C480 1.394 . S
C479 C485 1.465 . S
C480 C475 1.399 . S
C480 C479 1.394 . S
C480 C481 1.516 . S
C481 C480 1.516 . S
C481 C482 1.502 . S
C481 C483 1.561 . S
C481 C484 1.526 . S
C482 H466 0.959 . S
C482 H467 0.959 . S
C482 H468 0.961 . S
C482 C481 1.502 . S
C483 H469 0.960 . S
C483 H470 0.961 . S
C483 H471 0.959 . S
C483 C481 1.561 . S
C484 C481 1.526 . S
C484 C485 1.396 . S
C484 C489 1.390 . S
C485 C479 1.465 . S
C485 C484 1.396 . S
C485 C486 1.399 . S
C486 H472 0.929 . S
C486 C485 1.399 . S
C486 C487 1.385 . S
C487 H473 0.931 . S
C487 C486 1.385 . S
C487 C488 1.389 . S
C488 C487 1.389 . S
C488 C489 1.387 . S
C489 H474 0.930 . S
C489 C484 1.390 . S
C489 C488 1.387 . S
H490 C502 0.930 1_556 S
H491 C504 0.930 . S
H492 C505 0.930 . S
H493 C509 0.959 . S
H494 C509 0.959 . S
H495 C509 0.961 . S
H496 C510 0.960 . S
H497 C510 0.961 . S
H498 C510 0.959 . S
H499 C513 0.929 . S
H500 C514 0.931 . S
H501 C516 0.930 1_556 S
C502 H490 0.930 1_554 S
C502 C503 1.399 . S
C502 C507 1.399 . S
C503 C502 1.399 . S
C503 C504 1.376 . S
C504 H491 0.930 . S
C504 C503 1.376 . S
C504 C505 1.388 . S
C505 H492 0.930 . S
C505 C504 1.388 . S
C505 C506 1.390 . S
C506 C505 1.390 . S
C506 C507 1.394 . S
C506 C512 1.465 . S
C507 C502 1.399 . S
C507 C506 1.394 . S
C507 C508 1.516 1_554 S
C508 C507 1.516 1_556 S
C508 C509 1.502 . S
C508 C510 1.561 . S
C508 C511 1.526 1_556 S
C509 H493 0.959 . S
C509 H494 0.959 . S
C509 H495 0.961 . S
C509 C508 1.502 . S
C510 H496 0.960 . S
C510 H497 0.961 . S
C510 H498 0.959 . S
C510 C508 1.561 . S
C511 C508 1.526 1_554 S
C511 C512 1.396 . S
C511 C516 1.390 . S
C512 C506 1.465 . S
C512 C511 1.396 . S
C512 C513 1.399 . S
C513 H499 0.929 . S
C513 C512 1.399 . S
C513 C514 1.385 . S
C514 H500 0.931 . S
C514 C513 1.385 . S
C514 C515 1.389 . S
C515 C514 1.389 . S
C515 C516 1.387 . S
C516 H501 0.930 1_554 S
C516 C511 1.390 . S
C516 C515 1.387 . S
H517 C529 0.930 . S
H518 C531 0.930 . S
H519 C532 0.930 . S
H520 C536 0.959 . S
H521 C536 0.959 . S
H522 C536 0.961 . S
H523 C537 0.960 . S
H524 C537 0.961 . S
H525 C537 0.959 . S
H526 C540 0.929 . S
H527 C541 0.931 . S
H528 C543 0.930 . S
C529 H517 0.930 . S
C529 C530 1.399 . S
C529 C534 1.399 . S
C530 C529 1.399 . S
C530 C531 1.376 . S
C531 H518 0.930 . S
C531 C530 1.376 . S
C531 C532 1.388 . S
C532 H519 0.930 . S
C532 C531 1.388 . S
C532 C533 1.390 . S
C533 C532 1.390 . S
C533 C534 1.394 . S
C533 C539 1.465 . S
C534 C529 1.399 . S
C534 C533 1.394 . S
C534 C535 1.516 . S
C535 C534 1.516 . S
C535 C536 1.502 . S
C535 C537 1.561 . S
C535 C538 1.526 . S
C536 H520 0.959 . S
C536 H521 0.959 . S
C536 H522 0.961 . S
C536 C535 1.502 . S
C537 H523 0.960 . S
C537 H524 0.961 . S
C537 H525 0.959 . S
C537 C535 1.561 . S
C538 C535 1.526 . S
C538 C539 1.396 . S
C538 C543 1.390 . S
C539 C533 1.465 . S
C539 C538 1.396 . S
C539 C540 1.399 . S
C540 H526 0.929 . S
C540 C539 1.399 . S
C540 C541 1.385 . S
C541 H527 0.931 . S
C541 C540 1.385 . S
C541 C542 1.389 . S
C542 C541 1.389 . S
C542 C543 1.387 . S
C543 H528 0.930 . S
C543 C538 1.390 . S
C543 C542 1.387 . S
C125 C12 1.524 . S
C137 C56 1.548 . S
C152 C15 1.543 . S
C164 C83 1.554 . S
C179 C85 1.540 . S
C191 C40 1.562 . S
C206 C110 1.536 . S
C218 C43 1.530 . S
C233 C84 1.516 . S
C245 C41 1.548 . S
C260 C111 1.538 . S
C272 C42 1.551 . S
C287 C13 1.561 . S
C299 C57 1.539 . S
C314 C14 1.524 . S
C326 C82 1.534 . S
C341 C28 1.994 . S
C353 C1 1.940 . S
C368 C55 1.934 . S
C380 C26 1.984 . S
C395 C68 1.948 . S
C407 C96 1.971 . S
C422 C99 1.974 . S
C434 C71 1.961 . S
C449 C0 1.907 . S
C461 C70 1.902 . S
C476 C97 1.893 . S
C488 C27 1.887 . S
C503 C29 1.921 . S
C515 C98 1.917 . S
C530 C54 1.890 . S
C542 C69 1.907 . S
