# Generated by pormake.
# Topology lcy, (6)-cn, num edge types: 1
# Building blocks:
#     Node 0, Type 0, BuildingBlock: IZENUY_clean_sbu_0, # of connection points: 6
#     Node 1, Type 0, BuildingBlock: IZENUY_clean_sbu_0, # of connection points: 6
#     Node 2, Type 0, BuildingBlock: IZENUY_clean_sbu_0, # of connection points: 6
#     Node 3, Type 0, BuildingBlock: IZENUY_clean_sbu_0, # of connection points: 6
#     Edge 4, Type (0, 0), BuildingBlock: ZUJKAS_clean_linker_0, # of connection points: 2
#     Edge 5, Type (0, 0), BuildingBlock: ZUJKAS_clean_linker_0, # of connection points: 2
#     Edge 6, Type (0, 0), BuildingBlock: ZUJKAS_clean_linker_0, # of connection points: 2
#     Edge 7, Type (0, 0), BuildingBlock: ZUJKAS_clean_linker_0, # of connection points: 2
#     Edge 8, Type (0, 0), BuildingBlock: ZUJKAS_clean_linker_0, # of connection points: 2
#     Edge 9, Type (0, 0), BuildingBlock: ZUJKAS_clean_linker_0, # of connection points: 2
#     Edge 10, Type (0, 0), BuildingBlock: ZUJKAS_clean_linker_0, # of connection points: 2
#     Edge 11, Type (0, 0), BuildingBlock: ZUJKAS_clean_linker_0, # of connection points: 2
#     Edge 12, Type (0, 0), BuildingBlock: ZUJKAS_clean_linker_0, # of connection points: 2
#     Edge 13, Type (0, 0), BuildingBlock: ZUJKAS_clean_linker_0, # of connection points: 2
#     Edge 14, Type (0, 0), BuildingBlock: ZUJKAS_clean_linker_0, # of connection points: 2
#     Edge 15, Type (0, 0), BuildingBlock: ZUJKAS_clean_linker_0, # of connection points: 2
# Relax obj value: 0.232
# Max RMSD: 0.227
# Mean RMSD: 0.227
data_MOF--net-lcy--node1-IZENUY_clean_sbu_0--edge1-ZUJKAS_clean_linker_0
_symmetry_space_group_name_H-M    P1
_symmetry_Int_Tables_number       1
_symmetry_cell_setting            triclinic
loop_
_symmetry_equiv_pos_as_xyz
'x, y, z'
_cell_length_a     32.878671
_cell_length_b     32.879513
_cell_length_c     32.889821
_cell_angle_alpha  90.064213
_cell_angle_beta   90.116682
_cell_angle_gamma 89.906357
loop_
_atom_site_label
_atom_site_type_symbol
_atom_site_fract_x
_atom_site_fract_y
_atom_site_fract_z
_atom_type_partial_charge
Fe0 Fe 0.41076 0.37021 0.33451 0.0
Fe1 Fe 0.37499 0.33621 0.41254 0.0
O2 O 0.37335 0.37181 0.37264 0.0
Fe3 Fe 0.33452 0.4088 0.37085 0.0
O4 O 0.31697 0.3905 0.32212 0.0
O5 O 0.37722 0.38991 0.29373 0.0
O6 O 0.39542 0.31976 0.31958 0.0
C7 C 0.39811 0.28975 0.34317 0.0
C8 C 0.40565 0.45148 0.34521 0.0
O9 O 0.39792 0.29508 0.38146 0.0
C10 C 0.34967 0.40917 0.45185 0.0
O11 O 0.45146 0.35054 0.3683 0.0
O12 O 0.42404 0.35448 0.42889 0.0
O13 O 0.36708 0.44845 0.34712 0.0
O14 O 0.42774 0.42032 0.34769 0.0
C15 C 0.29405 0.33696 0.39805 0.0
O16 O 0.35215 0.37064 0.45084 0.0
O17 O 0.34971 0.42939 0.4194 0.0
C18 C 0.45513 0.35234 0.40674 0.0
O19 O 0.32628 0.3163 0.39812 0.0
O20 O 0.29539 0.37549 0.39433 0.0
C21 C 0.33873 0.39073 0.2907 0.0
Fe22 Fe 0.83417 0.08787 0.62577 0.0
Fe23 Fe 0.87263 0.16178 0.58565 0.0
O24 O 0.87233 0.1253 0.62477 0.0
Fe25 Fe 0.91001 0.12629 0.66294 0.0
O26 O 0.92743 0.07615 0.64915 0.0
O27 O 0.86678 0.04838 0.64957 0.0
O28 O 0.85008 0.06813 0.57739 0.0
C29 C 0.84921 0.08867 0.54517 0.0
C30 C 0.83767 0.10527 0.70584 0.0
O31 O 0.85054 0.12732 0.54667 0.0
C32 C 0.89608 0.20708 0.65585 0.0
O33 O 0.79456 0.1205 0.60226 0.0
O34 O 0.82341 0.18059 0.60062 0.0
O35 O 0.87629 0.10608 0.70349 0.0
O36 O 0.81637 0.10589 0.67408 0.0
C37 C 0.95321 0.14674 0.59054 0.0
O38 O 0.89497 0.20274 0.61745 0.0
O39 O 0.89463 0.17649 0.67878 0.0
C40 C 0.79185 0.15901 0.6005 0.0
O41 O 0.92175 0.14488 0.56882 0.0
O42 O 0.95039 0.14663 0.62913 0.0
C43 C 0.90528 0.04503 0.651 0.0
Fe44 Fe 0.08822 0.6246 0.83512 0.0
Fe45 Fe 0.1656 0.58724 0.87045 0.0
O46 O 0.12697 0.62445 0.87218 0.0
Fe47 Fe 0.1272 0.66148 0.91094 0.0
O48 O 0.07846 0.64478 0.92931 0.0
O49 O 0.04854 0.64499 0.8696 0.0
O50 O 0.07189 0.57448 0.85 0.0
C51 C 0.09435 0.54354 0.84752 0.0
C52 C 0.10156 0.70564 0.84086 0.0
O53 O 0.13283 0.54725 0.84782 0.0
C54 C 0.20774 0.65895 0.8948 0.0
O55 O 0.12095 0.60421 0.79398 0.0
O56 O 0.18201 0.60468 0.82117 0.0
O57 O 0.1038 0.70187 0.87925 0.0
O58 O 0.10243 0.67474 0.81824 0.0
C59 C 0.15201 0.58901 0.95157 0.0
O60 O 0.20538 0.62042 0.89283 0.0
O61 O 0.17595 0.6803 0.89462 0.0
C62 C 0.15944 0.60407 0.7902 0.0
O63 O 0.15114 0.56792 0.9196 0.0
O64 O 0.1505 0.62762 0.94966 0.0
C65 C 0.04651 0.64572 0.9082 0.0
Fe66 Fe 0.58769 0.87543 0.16219 0.0
Fe67 Fe 0.66493 0.90882 0.124 0.0
O68 O 0.62446 0.87389 0.12338 0.0
Fe69 Fe 0.62054 0.83764 0.08409 0.0
O70 O 0.57168 0.85737 0.06874 0.0
O71 O 0.54543 0.85661 0.12988 0.0
O72 O 0.57283 0.92616 0.1479 0.0
C73 C 0.59681 0.95593 0.14937 0.0
C74 C 0.59681 0.79422 0.1555 0.0
O75 O 0.63506 0.95027 0.14812 0.0
C76 C 0.70199 0.83534 0.09625 0.0
O77 O 0.62315 0.89436 0.20193 0.0
O78 O 0.68252 0.88987 0.1722 0.0
O79 O 0.59733 0.79792 0.11694 0.0
O80 O 0.60088 0.82491 0.17802 0.0
C81 C 0.64757 0.90939 0.04359 0.0
O82 O 0.70199 0.87384 0.09979 0.0
O83 O 0.6691 0.81588 0.09704 0.0
C84 C 0.66173 0.89276 0.20412 0.0
O85 O 0.64938 0.92955 0.07602 0.0
O86 O 0.64319 0.87095 0.04456 0.0
C87 C 0.54102 0.85688 0.09152 0.0
H88 H 0.14341 0.50875 0.96962 0.0
H89 H 0.17116 0.47228 0.02806 0.0
H90 H 0.21602 0.58518 0.07762 0.0
H91 H 0.18758 0.62209 0.01947 0.0
H92 H 0.25108 0.46761 0.04757 0.0
H93 H 0.16438 0.53304 0.17651 0.0
H94 H 0.14884 0.53959 0.12425 0.0
H95 H 0.18859 0.57068 0.14539 0.0
C96 C 0.15851 0.52596 0.99335 0.0
C97 C 0.1633 0.56833 0.98993 0.0
C98 C 0.17445 0.50504 0.02666 0.0
C99 C 0.19553 0.52597 0.05731 0.0
C100 C 0.19922 0.56847 0.05473 0.0
H101 H 0.3742 0.42485 0.22365 0.0
H102 H 0.33944 0.45478 0.16507 0.0
C103 C 0.18296 0.58954 0.02146 0.0
C104 C 0.21597 0.50283 0.09027 0.0
H105 H 0.22239 0.49299 0.19334 0.0
C106 C 0.24464 0.47298 0.07946 0.0
C107 C 0.20726 0.50958 0.13181 0.0
C108 C 0.17531 0.53968 0.14527 0.0
C109 C 0.26522 0.45006 0.10907 0.0
C110 C 0.25752 0.45777 0.15065 0.0
C111 C 0.22846 0.48724 0.16144 0.0
C112 C 0.27923 0.43586 0.18365 0.0
C113 C 0.29449 0.41739 0.09548 0.0
C114 C 0.25704 0.41505 0.21347 0.0
C115 C 0.27677 0.39823 0.24714 0.0
C116 C 0.31916 0.40188 0.25168 0.0
C117 C 0.34159 0.42106 0.22082 0.0
C118 C 0.32174 0.43819 0.18727 0.0
H119 H 0.28804 0.40732 0.06386 0.0
H120 H 0.3259 0.42966 0.09626 0.0
H121 H 0.29319 0.39051 0.11585 0.0
H122 H 0.22423 0.41281 0.21126 0.0
H123 H 0.25862 0.38359 0.27034 0.0
H124 H 0.62919 0.90827 0.27966 0.0
H125 H 0.66428 0.93852 0.33814 0.0
H126 H 0.77696 0.93766 0.27111 0.0
H127 H 0.74301 0.90571 0.21394 0.0
H128 H 0.79192 0.91949 0.34547 0.0
H129 H 0.693 0.05614 0.34437 0.0
H130 H 0.66506 0.01017 0.35294 0.0
H131 H 0.69057 0.01789 0.30516 0.0
C132 C 0.66157 0.9139 0.27772 0.0
C133 C 0.6831 0.905 0.24189 0.0
C134 C 0.6815 0.93169 0.31095 0.0
C135 C 0.72301 0.94165 0.30853 0.0
C136 C 0.74487 0.9307 0.27364 0.0
H137 H 0.83754 0.12101 0.46879 0.0
H138 H 0.81119 0.08559 0.40855 0.0
C139 C 0.72526 0.91236 0.24086 0.0
C140 C 0.74398 0.96413 0.34166 0.0
H141 H 0.73983 0.05052 0.39923 0.0
C142 C 0.78056 0.94824 0.35708 0.0
C143 C 0.72986 0.00224 0.35607 0.0
C144 C 0.69273 0.02286 0.33849 0.0
C145 C 0.80303 0.96895 0.38686 0.0
C146 C 0.78766 0.00582 0.40298 0.0
C147 C 0.75148 0.02212 0.38709 0.0
C148 C 0.8073 0.02675 0.43784 0.0
C149 C 0.8434 0.95137 0.40004 0.0
C150 C 0.81422 0.00545 0.47408 0.0
C151 C 0.82986 0.02532 0.50807 0.0
C152 C 0.83801 0.06734 0.50707 0.0
C153 C 0.83173 0.08865 0.47054 0.0
C154 C 0.8165 0.06848 0.43619 0.0
H155 H 0.85739 0.93305 0.37532 0.0
H156 H 0.86513 0.97555 0.40914 0.0
H157 H 0.83857 0.93083 0.42632 0.0
H158 H 0.80629 0.9736 0.4766 0.0
H159 H 0.83404 0.00784 0.53566 0.0
H160 H 0.23817 0.61589 0.7678 0.0
H161 H 0.27272 0.58781 0.70837 0.0
H162 H 0.15914 0.53807 0.66544 0.0
H163 H 0.12416 0.56684 0.72447 0.0
H164 H 0.27872 0.50744 0.69226 0.0
H165 H 0.2056 0.58609 0.5622 0.0
H166 H 0.20068 0.60389 0.6139 0.0
H167 H 0.16985 0.56244 0.59585 0.0
C168 C 0.22036 0.59977 0.74522 0.0
C169 C 0.17843 0.59357 0.75082 0.0
C170 C 0.24018 0.58363 0.71135 0.0
C171 C 0.21855 0.56094 0.68239 0.0
C172 C 0.17635 0.55611 0.68698 0.0
H173 H 0.3173 0.37629 0.52114 0.0
H174 H 0.28797 0.41324 0.57871 0.0
C175 C 0.15637 0.57258 0.72076 0.0
C176 C 0.2408 0.53957 0.64945 0.0
H177 H 0.24592 0.52784 0.5465 0.0
C178 C 0.27175 0.51211 0.66036 0.0
C179 C 0.2319 0.54591 0.60787 0.0
C180 C 0.20047 0.57647 0.59416 0.0
C181 C 0.29368 0.49042 0.63085 0.0
C182 C 0.28383 0.49572 0.58933 0.0
C183 C 0.25326 0.52359 0.57839 0.0
C184 C 0.30483 0.47287 0.55657 0.0
C185 C 0.32759 0.46256 0.64441 0.0
C186 C 0.32415 0.49404 0.52508 0.0
C187 C 0.34061 0.47306 0.49205 0.0
C188 C 0.33807 0.43041 0.48981 0.0
C189 C 0.32017 0.40909 0.52218 0.0
C190 C 0.30341 0.43018 0.55514 0.0
H191 H 0.33881 0.47067 0.67526 0.0
H192 H 0.31611 0.43087 0.64555 0.0
H193 H 0.35356 0.46356 0.6229 0.0
H194 H 0.32566 0.52696 0.5256 0.0
H195 H 0.35428 0.49039 0.46766 0.0
H196 H 0.66543 0.98957 0.03509 0.0
H197 H 0.69386 0.02349 0.97659 0.0
H198 H 0.68358 0.91297 0.90649 0.0
H199 H 0.65668 0.87758 0.96642 0.0
H200 H 0.75584 0.94531 0.89658 0.0
H201 H 0.64339 0.06828 0.8773 0.0
H202 H 0.66277 0.06892 0.92819 0.0
H203 H 0.6343 0.02554 0.91032 0.0
C204 C 0.66857 0.97231 0.0072 0.0
C205 C 0.65879 0.93066 0.00557 0.0
C206 C 0.68458 0.99205 0.9735 0.0
C207 C 0.69015 0.97112 0.93683 0.0
C208 C 0.67929 0.92981 0.93449 0.0
H209 H 0.75628 0.09744 0.71774 0.0
H210 H 0.72223 0.06518 0.77428 0.0
C211 C 0.66372 0.90968 0.96864 0.0
C212 C 0.71017 0.99202 0.90232 0.0
H213 H 0.70968 0.0807 0.84864 0.0
C214 C 0.74543 0.97465 0.88562 0.0
C215 C 0.69643 0.03014 0.88776 0.0
C216 C 0.65689 0.049 0.90157 0.0
C217 C 0.76776 0.99471 0.85535 0.0
C218 C 0.75543 0.03403 0.84269 0.0
C219 C 0.71975 0.051 0.85894 0.0
C220 C 0.77688 0.05668 0.81013 0.0
C221 C 0.80365 0.97301 0.83665 0.0
C222 C 0.81896 0.06428 0.81193 0.0
C223 C 0.83896 0.08219 0.7789 0.0
C224 C 0.81696 0.09349 0.74399 0.0
C225 C 0.77441 0.0887 0.74385 0.0
C226 C 0.75473 0.07023 0.77631 0.0
H227 H 0.80183 0.93958 0.84122 0.0
H228 H 0.80567 0.97911 0.80352 0.0
H229 H 0.83207 0.98379 0.85134 0.0
H230 H 0.83649 0.05546 0.83839 0.0
H231 H 0.87168 0.08579 0.78012 0.0
H232 H 0.9651 0.15839 0.50955 0.0
H233 H 0.02372 0.18778 0.47645 0.0
H234 H 0.088 0.19063 0.59091 0.0
H235 H 0.02791 0.16283 0.62519 0.0
H236 H 0.09523 0.2608 0.55337 0.0
H237 H 0.12837 0.14029 0.44138 0.0
H238 H 0.07666 0.15674 0.43649 0.0
H239 H 0.09344 0.13259 0.48283 0.0
C240 C 0.9918 0.1646 0.52787 0.0
C241 C 0.99168 0.15825 0.57021 0.0
C242 C 0.02557 0.18119 0.50865 0.0
C243 C 0.06062 0.19078 0.53095 0.0
C244 C 0.06129 0.18327 0.57305 0.0
H245 H 0.28526 0.25669 0.41572 0.0
H246 H 0.22797 0.22351 0.44748 0.0
C247 C 0.02706 0.16715 0.59257 0.0
C248 C 0.09513 0.21127 0.51044 0.0
H249 H 0.15538 0.20647 0.42627 0.0
C250 C 0.1088 0.24869 0.52586 0.0
C251 C 0.11303 0.19536 0.47468 0.0
C252 C 0.10237 0.15383 0.4582 0.0
C253 C 0.13948 0.27088 0.50624 0.0
C254 C 0.1558 0.25599 0.46927 0.0
C255 C 0.14236 0.21835 0.45414 0.0
C256 C 0.18937 0.27691 0.44759 0.0
C257 C 0.15476 0.3094 0.52602 0.0
C258 C 0.18656 0.31795 0.43577 0.0
C259 C 0.21997 0.33756 0.41806 0.0
C260 C 0.25636 0.31614 0.4112 0.0
C261 C 0.25794 0.27443 0.42079 0.0
C262 C 0.22504 0.25522 0.439 0.0
H263 H 0.14735 0.31036 0.55895 0.0
H264 H 0.1882 0.31244 0.52256 0.0
H265 H 0.13998 0.336 0.5114 0.0
H266 H 0.15883 0.33499 0.44083 0.0
H267 H 0.21764 0.36959 0.41073 0.0
H268 H 0.10829 0.72807 0.76155 0.0
H269 H 0.07739 0.787 0.72852 0.0
H270 H 0.03308 0.82924 0.8445 0.0
H271 H 0.06465 0.77062 0.87797 0.0
H272 H 0.99605 0.80283 0.72706 0.0
H273 H 0.07932 0.93267 0.79565 0.0
H274 H 0.09731 0.8809 0.79932 0.0
H275 H 0.0574 0.89866 0.83219 0.0
C276 C 0.09268 0.75034 0.78018 0.0
C277 C 0.08891 0.74469 0.82239 0.0
C278 C 0.07492 0.78392 0.76122 0.0
C279 C 0.053 0.81258 0.78401 0.0
C280 C 0.05044 0.8079 0.82638 0.0
H281 H 0.86963 0.97918 0.68764 0.0
H282 H 0.90443 0.92085 0.71842 0.0
C283 C 0.06852 0.77437 0.84549 0.0
C284 C 0.03057 0.84556 0.76286 0.0
H285 H 0.02083 0.94868 0.75625 0.0
C286 C 0.00155 0.83475 0.73333 0.0
C287 C 0.03795 0.88714 0.77092 0.0
C288 C 0.06994 0.90066 0.80096 0.0
C289 C 0.97965 0.86439 0.71171 0.0
C290 C 0.98643 0.90594 0.72038 0.0
C291 C 0.01552 0.91676 0.74982 0.0
C292 C 0.96453 0.9389 0.69867 0.0
C293 C 0.95012 0.85098 0.67919 0.0
C294 C 0.98668 0.96819 0.67713 0.0
C295 C 0.96697 0.00153 0.65975 0.0
C296 C 0.92463 0.00636 0.66361 0.0
C297 C 0.9022 0.9761 0.68374 0.0
C298 C 0.92206 0.94276 0.70137 0.0
H299 H 0.95606 0.81923 0.66921 0.0
H300 H 0.91873 0.85237 0.69145 0.0
H301 H 0.9517 0.87126 0.65227 0.0
H302 H 0.01945 0.96573 0.67457 0.0
H303 H 0.98512 0.02423 0.64433 0.0
H304 H 0.27459 0.62438 0.93099 0.0
H305 H 0.33127 0.66037 0.96349 0.0
H306 H 0.28381 0.77464 0.91986 0.0
H307 H 0.22692 0.73912 0.88788 0.0
H308 H 0.39147 0.71343 0.93609 0.0
H309 H 0.28666 0.79071 0.0433 0.0
H310 H 0.27106 0.74849 0.01185 0.0
H311 H 0.27409 0.79885 0.99079 0.0
C312 C 0.27669 0.65707 0.92762 0.0
C313 C 0.24605 0.67897 0.90727 0.0
C314 C 0.30895 0.67761 0.9464 0.0
C315 C 0.31104 0.72025 0.94502 0.0
C316 C 0.2821 0.74183 0.92225 0.0
H317 H 0.51702 0.86922 0.01324 0.0
H318 H 0.45917 0.83795 0.97856 0.0
C319 C 0.24981 0.72144 0.90373 0.0
C320 C 0.34255 0.74239 0.96848 0.0
H321 H 0.35531 0.81338 0.0434 0.0
C322 C 0.38362 0.73521 0.9596 0.0
C323 C 0.33218 0.77023 -0.0003 0.0
C324 C 0.28863 0.77731 0.01234 0.0
C325 C 0.41464 0.75587 0.98046 0.0
C326 C 0.40421 0.78506 0.01041 0.0
C327 C 0.36317 0.79149 0.01999 0.0
C328 C 0.43569 0.80864 0.03247 0.0
C329 C 0.45834 0.74574 0.97066 0.0
C330 C 0.44002 0.8048 0.07478 0.0
C331 C 0.47276 0.82321 0.09488 0.0
C332 C 0.50167 0.84561 0.07284 0.0
C333 C 0.49547 0.85178 0.03096 0.0
C334 C 0.46265 0.83366 0.01103 0.0
H335 H 0.46112 0.71568 0.95543 0.0
H336 H 0.47066 0.76912 0.94975 0.0
H337 H 0.47736 0.74549 -0.0014 0.0
H338 H 0.41924 0.78594 0.09194 0.0
H339 H 0.47677 0.81776 0.12711 0.0
H340 H 0.43862 0.22777 0.38162 0.0
H341 H 0.47402 0.17079 0.34898 0.0
H342 H 0.426 0.20749 0.23255 0.0
H343 H 0.39087 0.26453 0.26468 0.0
H344 H 0.448 0.10547 0.29874 0.0
H345 H 0.55057 0.21123 0.21704 0.0
H346 H 0.51902 0.22715 0.25904 0.0
H347 H 0.49747 0.22147 0.20907 0.0
C348 C 0.43487 0.22317 0.34921 0.0
C349 C 0.41232 0.25088 0.32563 0.0
C350 C 0.45532 0.19079 0.3306 0.0
C351 C 0.45346 0.18574 0.28826 0.0
C352 C 0.42864 0.21159 0.26513 0.0
H353 H 0.51935 0.98272 0.13916 0.0
H354 H 0.48708 0.04052 0.17284 0.0
C355 C 0.40836 0.24395 0.2836 0.0
C356 C 0.47842 0.15437 0.26786 0.0
H357 H 0.55258 0.14172 0.1963 0.0
C358 C 0.47103 0.11334 0.27654 0.0
C359 C 0.509 0.16486 0.2395 0.0
C360 C 0.51986 0.20858 0.23083 0.0
C361 C 0.49239 0.08237 0.25639 0.0
C362 C 0.52138 0.09285 0.22642 0.0
C363 C 0.52992 0.13388 0.21889 0.0
C364 C 0.54225 0.06138 0.20202 0.0
C365 C 0.48375 0.03867 0.26732 0.0
C366 C 0.58443 0.05556 0.20538 0.0
C367 C 0.60314 0.02269 0.18577 0.0
C368 C 0.57977 0.99531 0.16265 0.0
C369 C 0.53805 0.00306 0.15714 0.0
C370 C 0.51951 0.03588 0.17655 0.0
H371 H 0.4691 0.0361 0.29763 0.0
H372 H 0.46276 0.02544 0.24441 0.0
H373 H 0.51214 0.02032 0.26742 0.0
H374 H 0.6025 0.07527 0.22466 0.0
H375 H 0.6353 0.01739 0.19069 0.0
H376 H 0.77232 0.23889 0.60916 0.0
H377 H 0.71373 0.27439 0.58041 0.0
H378 H 0.66613 0.16045 0.53607 0.0
H379 H 0.7245 0.12449 0.56543 0.0
H380 H 0.69675 0.27617 0.49897 0.0
H381 H 0.56572 0.21425 0.58497 0.0
H382 H 0.61763 0.2086 0.60212 0.0
H383 H 0.59787 0.17599 0.56289 0.0
C384 C 0.74895 0.22124 0.59402 0.0
C385 C 0.75306 0.1789 0.58942 0.0
C386 C 0.71556 0.2416 0.57753 0.0
C387 C 0.68558 0.22008 0.55616 0.0
C388 C 0.68861 0.17757 0.55302 0.0
H389 H 0.52116 0.31468 0.37262 0.0
H390 H 0.5794 0.28543 0.40868 0.0
C391 C 0.72198 0.15706 0.5698 0.0
C392 C 0.65315 0.24266 0.53444 0.0
H393 H 0.55028 0.25317 0.52596 0.0
C394 C 0.6647 0.27133 0.50501 0.0
C395 C 0.61145 0.23648 0.54261 0.0
C396 C 0.59732 0.20745 0.57512 0.0
C397 C 0.63561 0.29371 0.48317 0.0
C398 C 0.59389 0.28668 0.49051 0.0
C399 C 0.58234 0.25835 0.52026 0.0
C400 C 0.56151 0.30828 0.46778 0.0
C401 C 0.64981 0.32506 0.45291 0.0
C402 C 0.53244 0.3312 0.48894 0.0
C403 C 0.4991 0.34775 0.4685 0.0
C404 C 0.49412 0.34159 0.42646 0.0
C405 C 0.52435 0.32035 0.40492 0.0
C406 C 0.55766 0.30358 0.4255 0.0
H407 H 0.68173 0.33446 0.45881 0.0
H408 H 0.64838 0.3119 0.42186 0.0
H409 H 0.63008 0.35249 0.45364 0.0
H410 H 0.53493 0.33526 0.52155 0.0
H411 H 0.47639 0.36408 0.48592 0.0
H412 H 0.01511 0.52172 0.85662 0.0
H413 H 0.98046 0.46372 0.82584 0.0
H414 H 0.0945 0.42093 0.77716 0.0
H415 H 0.12962 0.47876 0.80842 0.0
H416 H 0.97715 0.44913 0.74333 0.0
H417 H 0.04505 0.3176 0.82483 0.0
H418 H 0.04932 0.36914 0.84332 0.0
H419 H 0.08144 0.35168 0.80272 0.0
C420 C 0.033 0.49954 0.84005 0.0
C421 C 0.07513 0.50485 0.83494 0.0
C422 C 0.01311 0.4665 0.82235 0.0
C423 C 0.03487 0.438 0.79926 0.0
C424 C 0.0772 0.44224 0.79539 0.0
H425 H 0.93274 0.27209 0.61872 0.0
H426 H 0.96456 0.3305 0.65236 0.0
C427 C 0.09724 0.47528 0.81332 0.0
C428 C 0.01264 0.40556 0.77714 0.0
H429 H 0.00335 0.30264 0.76784 0.0
C430 C 0.98279 0.41707 0.74872 0.0
C431 C 0.0199 0.36383 0.78443 0.0
C432 C 0.0504 0.34968 0.81572 0.0
C433 C 0.96004 0.38793 0.72731 0.0
C434 C 0.96779 0.34621 0.7341 0.0
C435 C 0.99759 0.3347 0.76257 0.0
C436 C 0.94483 0.31375 0.71282 0.0
C437 C 0.92734 0.40203 0.6983 0.0
C438 C 0.92275 0.28532 0.73554 0.0
C439 C 0.90471 0.25197 0.71648 0.0
C440 C 0.9085 0.24625 0.67426 0.0
C441 C 0.92892 0.27584 0.65121 0.0
C442 C 0.94717 0.30922 0.6704 0.0
H443 H 0.91852 0.43417 0.70398 0.0
H444 H 0.93886 0.39978 0.66669 0.0
H445 H 0.89982 0.38266 0.70076 0.0
H446 H 0.92044 0.28833 0.76826 0.0
H447 H 0.88906 0.22981 0.7351 0.0
H448 H 0.03455 0.65769 0.98938 0.0
H449 H 0.97477 0.68557 0.02251 0.0
H450 H 0.91069 0.68621 0.90793 0.0
H451 H 0.9714 0.65954 0.87389 0.0
H452 H 0.90364 0.7575 0.94533 0.0
H453 H 0.86943 0.63657 0.05658 0.0
H454 H 0.92097 0.65357 0.06132 0.0
H455 H 0.9045 0.62898 0.01515 0.0
C456 C 0.00762 0.66307 0.97113 0.0
C457 C 0.0079 0.65645 0.92883 0.0
C458 C 0.97324 0.6788 0.99032 0.0
C459 C 0.93799 0.68749 0.96789 0.0
C460 C 0.93756 0.6796 0.92588 0.0
H461 H 0.70844 0.75531 0.07539 0.0
H462 H 0.76628 0.72079 0.0451 0.0
C463 C 0.9722 0.66417 0.90649 0.0
C464 C 0.90296 0.70777 0.9879 0.0
H465 H 0.83963 0.7019 0.06978 0.0
C466 C 0.88934 0.74514 0.97231 0.0
C467 C 0.88411 0.69154 0.02296 0.0
C468 C 0.89524 0.65026 0.03969 0.0
C469 C 0.85782 0.767 0.99108 0.0
C470 C 0.84032 0.7517 0.02726 0.0
C471 C 0.85355 0.71403 0.0425 0.0
C472 C 0.80637 0.77284 0.04825 0.0
C473 C 0.843 0.80572 0.97132 0.0
C474 C 0.8099 0.81341 0.06137 0.0
C475 C 0.77645 0.83364 0.07836 0.0
C476 C 0.73914 0.81337 0.08313 0.0
C477 C 0.73656 0.77208 0.07202 0.0
C478 C 0.7697 0.75216 0.05466 0.0
H479 H 0.85154 0.80709 0.93867 0.0
H480 H 0.80944 0.80865 0.97369 0.0
H481 H 0.85711 0.83218 0.98681 0.0
H482 H 0.83831 0.82963 0.05788 0.0
H483 H 0.77958 0.8653 0.08692 0.0
H484 H 0.57538 0.78396 0.23455 0.0
H485 H 0.54463 0.72513 0.26585 0.0
H486 H 0.55495 0.6586 0.1532 0.0
H487 H 0.58431 0.71896 0.12044 0.0
H488 H 0.4822 0.64776 0.18572 0.0
H489 H 0.5961 0.62437 0.30681 0.0
H490 H 0.57672 0.67523 0.30898 0.0
H491 H 0.60482 0.65855 0.26493 0.0
C492 C 0.57175 0.75678 0.21626 0.0
C493 C 0.58262 0.75618 0.17488 0.0
C494 C 0.5543 0.72293 0.23447 0.0
C495 C 0.54833 0.68708 0.21225 0.0
C496 C 0.55959 0.68593 0.17102 0.0
H497 H 0.48627 0.46346 0.33186 0.0
H498 H 0.51853 0.52069 0.29908 0.0
C499 C 0.57654 0.7203 0.1524 0.0
C500 C 0.52841 0.65187 0.23205 0.0
H501 H 0.53043 0.59455 0.31837 0.0
C502 C 0.49301 0.63569 0.21446 0.0
C503 C 0.54273 0.63585 0.26937 0.0
C504 C 0.58243 0.64915 0.28831 0.0
C505 C 0.47111 0.60444 0.23355 0.0
C506 C 0.48415 0.59015 0.27205 0.0
C507 C 0.51989 0.60601 0.28926 0.0
C508 C 0.46342 0.5564 0.29361 0.0
C509 C 0.43493 0.58646 0.21171 0.0
C510 C 0.42162 0.55765 0.30265 0.0
C511 C 0.40259 0.52422 0.32096 0.0
C512 C 0.42533 0.48944 0.33119 0.0
C513 C 0.46757 0.48951 0.32419 0.0
C514 C 0.48623 0.52236 0.30538 0.0
H515 H 0.43602 0.59261 0.17852 0.0
H516 H 0.43328 0.55306 0.21633 0.0
H517 H 0.40664 0.60037 0.22377 0.0
H518 H 0.4036 0.58417 0.29508 0.0
H519 H 0.3701 0.52524 0.32618 0.0
loop_
_geom_bond_atom_site_label_1
_geom_bond_atom_site_label_2
_geom_bond_distance
_geom_bond_site_symmetry_2
_ccdc_geom_bond_type
Fe0 O2 1.918 . S
Fe0 O5 1.997 . S
Fe0 O6 2.002 . S
Fe0 O11 1.976 . S
Fe0 O14 1.996 . S
Fe1 O2 1.918 . S
Fe1 O9 1.997 . S
Fe1 O12 1.996 . S
Fe1 O16 1.976 . S
Fe1 O19 2.002 . S
O2 Fe0 1.918 . S
O2 Fe1 1.918 . S
O2 Fe3 1.918 . S
Fe3 O2 1.918 . S
Fe3 O4 2.002 . S
Fe3 O13 1.976 . S
Fe3 O17 1.996 . S
Fe3 O20 1.997 . S
O4 Fe3 2.002 . S
O4 C21 1.295 . S
O5 Fe0 1.997 . S
O5 C21 1.235 . S
O6 Fe0 2.002 . S
O6 C7 1.295 . S
C7 O6 1.295 . S
C7 O9 1.235 . S
C8 O13 1.287 . S
C8 O14 1.255 . S
O9 Fe1 1.997 . S
O9 C7 1.235 . S
C10 O16 1.287 . S
C10 O17 1.255 . S
O11 Fe0 1.976 . S
O11 C18 1.287 . S
O12 Fe1 1.996 . S
O12 C18 1.255 . S
O13 Fe3 1.976 . S
O13 C8 1.287 . S
O14 Fe0 1.996 . S
O14 C8 1.255 . S
C15 O19 1.295 . S
C15 O20 1.235 . S
O16 Fe1 1.976 . S
O16 C10 1.287 . S
O17 Fe3 1.996 . S
O17 C10 1.255 . S
C18 O11 1.287 . S
C18 O12 1.255 . S
O19 Fe1 2.002 . S
O19 C15 1.295 . S
O20 Fe3 1.997 . S
O20 C15 1.235 . S
C21 O4 1.295 . S
C21 O5 1.235 . S
Fe22 O24 1.918 . S
Fe22 O27 1.997 . S
Fe22 O28 2.002 . S
Fe22 O33 1.976 . S
Fe22 O36 1.996 . S
Fe23 O24 1.918 . S
Fe23 O31 1.997 . S
Fe23 O34 1.996 . S
Fe23 O38 1.976 . S
Fe23 O41 2.002 . S
O24 Fe22 1.918 . S
O24 Fe23 1.918 . S
O24 Fe25 1.918 . S
Fe25 O24 1.918 . S
Fe25 O26 2.002 . S
Fe25 O35 1.976 . S
Fe25 O39 1.996 . S
Fe25 O42 1.997 . S
O26 Fe25 2.002 . S
O26 C43 1.295 . S
O27 Fe22 1.997 . S
O27 C43 1.235 . S
O28 Fe22 2.002 . S
O28 C29 1.295 . S
C29 O28 1.295 . S
C29 O31 1.235 . S
C30 O35 1.287 . S
C30 O36 1.255 . S
O31 Fe23 1.997 . S
O31 C29 1.235 . S
C32 O38 1.287 . S
C32 O39 1.255 . S
O33 Fe22 1.976 . S
O33 C40 1.287 . S
O34 Fe23 1.996 . S
O34 C40 1.255 . S
O35 Fe25 1.976 . S
O35 C30 1.287 . S
O36 Fe22 1.996 . S
O36 C30 1.255 . S
C37 O41 1.295 . S
C37 O42 1.235 . S
O38 Fe23 1.976 . S
O38 C32 1.287 . S
O39 Fe25 1.996 . S
O39 C32 1.255 . S
C40 O33 1.287 . S
C40 O34 1.255 . S
O41 Fe23 2.002 . S
O41 C37 1.295 . S
O42 Fe25 1.997 . S
O42 C37 1.235 . S
C43 O26 1.295 . S
C43 O27 1.235 . S
Fe44 O46 1.918 . S
Fe44 O49 1.997 . S
Fe44 O50 2.002 . S
Fe44 O55 1.976 . S
Fe44 O58 1.996 . S
Fe45 O46 1.918 . S
Fe45 O53 1.997 . S
Fe45 O56 1.996 . S
Fe45 O60 1.976 . S
Fe45 O63 2.002 . S
O46 Fe44 1.918 . S
O46 Fe45 1.918 . S
O46 Fe47 1.918 . S
Fe47 O46 1.918 . S
Fe47 O48 2.002 . S
Fe47 O57 1.976 . S
Fe47 O61 1.996 . S
Fe47 O64 1.997 . S
O48 Fe47 2.002 . S
O48 C65 1.295 . S
O49 Fe44 1.997 . S
O49 C65 1.235 . S
O50 Fe44 2.002 . S
O50 C51 1.295 . S
C51 O50 1.295 . S
C51 O53 1.235 . S
C52 O57 1.287 . S
C52 O58 1.255 . S
O53 Fe45 1.997 . S
O53 C51 1.235 . S
C54 O60 1.287 . S
C54 O61 1.255 . S
O55 Fe44 1.976 . S
O55 C62 1.287 . S
O56 Fe45 1.996 . S
O56 C62 1.255 . S
O57 Fe47 1.976 . S
O57 C52 1.287 . S
O58 Fe44 1.996 . S
O58 C52 1.255 . S
C59 O63 1.295 . S
C59 O64 1.235 . S
O60 Fe45 1.976 . S
O60 C54 1.287 . S
O61 Fe47 1.996 . S
O61 C54 1.255 . S
C62 O55 1.287 . S
C62 O56 1.255 . S
O63 Fe45 2.002 . S
O63 C59 1.295 . S
O64 Fe47 1.997 . S
O64 C59 1.235 . S
C65 O48 1.295 . S
C65 O49 1.235 . S
Fe66 O68 1.918 . S
Fe66 O71 1.997 . S
Fe66 O72 2.002 . S
Fe66 O77 1.976 . S
Fe66 O80 1.996 . S
Fe67 O68 1.918 . S
Fe67 O75 1.997 . S
Fe67 O78 1.996 . S
Fe67 O82 1.976 . S
Fe67 O85 2.002 . S
O68 Fe66 1.918 . S
O68 Fe67 1.918 . S
O68 Fe69 1.918 . S
Fe69 O68 1.918 . S
Fe69 O70 2.002 . S
Fe69 O79 1.976 . S
Fe69 O83 1.996 . S
Fe69 O86 1.997 . S
O70 Fe69 2.002 . S
O70 C87 1.295 . S
O71 Fe66 1.997 . S
O71 C87 1.235 . S
O72 Fe66 2.002 . S
O72 C73 1.295 . S
C73 O72 1.295 . S
C73 O75 1.235 . S
C74 O79 1.287 . S
C74 O80 1.255 . S
O75 Fe67 1.997 . S
O75 C73 1.235 . S
C76 O82 1.287 . S
C76 O83 1.255 . S
O77 Fe66 1.976 . S
O77 C84 1.287 . S
O78 Fe67 1.996 . S
O78 C84 1.255 . S
O79 Fe69 1.976 . S
O79 C74 1.287 . S
O80 Fe66 1.996 . S
O80 C74 1.255 . S
C81 O85 1.295 . S
C81 O86 1.235 . S
O82 Fe67 1.976 . S
O82 C76 1.287 . S
O83 Fe69 1.996 . S
O83 C76 1.255 . S
C84 O77 1.287 . S
C84 O78 1.255 . S
O85 Fe67 2.002 . S
O85 C81 1.295 . S
O86 Fe69 1.997 . S
O86 C81 1.235 . S
C87 O70 1.295 . S
C87 O71 1.235 . S
H88 C96 0.929 . S
H89 C98 0.930 . S
H90 C100 0.930 . S
H91 C103 0.929 . S
H92 C106 0.930 . S
H93 C108 0.960 . S
H94 C108 0.960 . S
H95 C108 0.960 . S
C96 H88 0.929 . S
C96 C97 1.377 . S
C96 C98 1.384 1_556 S
C97 C96 1.377 . S
C97 C103 1.390 1_556 S
C98 H89 0.930 . S
C98 C96 1.384 1_554 S
C98 C99 1.372 . S
C99 C98 1.372 . S
C99 C100 1.400 . S
C99 C104 1.490 . S
C100 H90 0.930 . S
C100 C99 1.400 . S
C100 C103 1.386 . S
H101 C117 0.930 . S
H102 C118 0.931 . S
C103 H91 0.929 . S
C103 C97 1.390 1_554 S
C103 C100 1.386 . S
C104 C99 1.490 . S
C104 C106 1.395 . S
C104 C107 1.403 . S
H105 C111 0.930 . S
C106 H92 0.930 . S
C106 C104 1.395 . S
C106 C109 1.403 . S
C107 C104 1.403 . S
C107 C108 1.524 . S
C107 C111 1.400 . S
C108 H93 0.960 . S
C108 H94 0.960 . S
C108 H95 0.960 . S
C108 C107 1.524 . S
C109 C106 1.403 . S
C109 C110 1.392 . S
C109 C113 1.495 . S
C110 C109 1.392 . S
C110 C111 1.385 . S
C110 C112 1.478 . S
C111 H105 0.930 . S
C111 C107 1.400 . S
C111 C110 1.385 . S
C112 C110 1.478 . S
C112 C114 1.381 . S
C112 C118 1.383 . S
C113 C109 1.495 . S
C113 H119 0.959 . S
C113 H120 0.961 . S
C113 H121 0.960 . S
C114 C112 1.381 . S
C114 C115 1.394 . S
C114 H122 0.930 . S
C115 C114 1.394 . S
C115 C116 1.383 . S
C115 H123 0.929 . S
C116 C115 1.383 . S
C116 C117 1.377 . S
C117 H101 0.930 . S
C117 C116 1.377 . S
C117 C118 1.379 . S
C118 H102 0.931 . S
C118 C112 1.383 . S
C118 C117 1.379 . S
H119 C113 0.959 . S
H120 C113 0.961 . S
H121 C113 0.960 . S
H122 C114 0.930 . S
H123 C115 0.929 . S
H124 C132 0.929 . S
H125 C134 0.930 . S
H126 C136 0.930 . S
H127 C139 0.929 . S
H128 C142 0.930 . S
H129 C144 0.960 . S
H130 C144 0.960 1_565 S
H131 C144 0.960 . S
C132 H124 0.929 . S
C132 C133 1.377 . S
C132 C134 1.384 . S
C133 C132 1.377 . S
C133 C139 1.390 . S
C134 H125 0.930 . S
C134 C132 1.384 . S
C134 C135 1.372 . S
C135 C134 1.372 . S
C135 C136 1.400 . S
C135 C140 1.490 . S
C136 H126 0.930 . S
C136 C135 1.400 . S
C136 C139 1.386 . S
H137 C153 0.930 . S
H138 C154 0.931 . S
C139 H127 0.929 . S
C139 C133 1.390 . S
C139 C136 1.386 . S
C140 C135 1.490 . S
C140 C142 1.395 . S
C140 C143 1.403 1_565 S
H141 C147 0.930 . S
C142 H128 0.930 . S
C142 C140 1.395 . S
C142 C145 1.403 . S
C143 C140 1.403 1_545 S
C143 C144 1.524 . S
C143 C147 1.400 . S
C144 H129 0.960 . S
C144 H130 0.960 1_545 S
C144 H131 0.960 . S
C144 C143 1.524 . S
C145 C142 1.403 . S
C145 C146 1.392 1_565 S
C145 C149 1.495 . S
C146 C145 1.392 1_545 S
C146 C147 1.385 . S
C146 C148 1.478 . S
C147 H141 0.930 . S
C147 C143 1.400 . S
C147 C146 1.385 . S
C148 C146 1.478 . S
C148 C150 1.381 . S
C148 C154 1.383 . S
C149 C145 1.495 . S
C149 H155 0.959 . S
C149 H156 0.961 . S
C149 H157 0.960 . S
C150 C148 1.381 . S
C150 C151 1.394 . S
C150 H158 0.930 1_545 S
C151 C150 1.394 . S
C151 C152 1.383 . S
C151 H159 0.929 . S
C152 C151 1.383 . S
C152 C153 1.377 . S
C153 H137 0.930 . S
C153 C152 1.377 . S
C153 C154 1.379 . S
C154 H138 0.931 . S
C154 C148 1.383 . S
C154 C153 1.379 . S
H155 C149 0.959 . S
H156 C149 0.961 . S
H157 C149 0.960 . S
H158 C150 0.930 1_565 S
H159 C151 0.929 . S
H160 C168 0.929 . S
H161 C170 0.930 . S
H162 C172 0.930 . S
H163 C175 0.929 . S
H164 C178 0.930 . S
H165 C180 0.960 . S
H166 C180 0.960 . S
H167 C180 0.960 . S
C168 H160 0.929 . S
C168 C169 1.377 . S
C168 C170 1.384 . S
C169 C168 1.377 . S
C169 C175 1.390 . S
C170 H161 0.930 . S
C170 C168 1.384 . S
C170 C171 1.372 . S
C171 C170 1.372 . S
C171 C172 1.400 . S
C171 C176 1.490 . S
C172 H162 0.930 . S
C172 C171 1.400 . S
C172 C175 1.386 . S
H173 C189 0.930 . S
H174 C190 0.931 . S
C175 H163 0.929 . S
C175 C169 1.390 . S
C175 C172 1.386 . S
C176 C171 1.490 . S
C176 C178 1.395 . S
C176 C179 1.403 . S
H177 C183 0.930 . S
C178 H164 0.930 . S
C178 C176 1.395 . S
C178 C181 1.403 . S
C179 C176 1.403 . S
C179 C180 1.524 . S
C179 C183 1.400 . S
C180 H165 0.960 . S
C180 H166 0.960 . S
C180 H167 0.960 . S
C180 C179 1.524 . S
C181 C178 1.403 . S
C181 C182 1.392 . S
C181 C185 1.495 . S
C182 C181 1.392 . S
C182 C183 1.385 . S
C182 C184 1.478 . S
C183 H177 0.930 . S
C183 C179 1.400 . S
C183 C182 1.385 . S
C184 C182 1.478 . S
C184 C186 1.381 . S
C184 C190 1.383 . S
C185 C181 1.495 . S
C185 H191 0.959 . S
C185 H192 0.961 . S
C185 H193 0.960 . S
C186 C184 1.381 . S
C186 C187 1.394 . S
C186 H194 0.930 . S
C187 C186 1.394 . S
C187 C188 1.383 . S
C187 H195 0.929 . S
C188 C187 1.383 . S
C188 C189 1.377 . S
C189 H173 0.930 . S
C189 C188 1.377 . S
C189 C190 1.379 . S
C190 H174 0.931 . S
C190 C184 1.383 . S
C190 C189 1.379 . S
H191 C185 0.959 . S
H192 C185 0.961 . S
H193 C185 0.960 . S
H194 C186 0.930 . S
H195 C187 0.929 . S
H196 C204 0.929 . S
H197 C206 0.930 . S
H198 C208 0.930 . S
H199 C211 0.929 . S
H200 C214 0.930 . S
H201 C216 0.960 . S
H202 C216 0.960 . S
H203 C216 0.960 . S
C204 H196 0.929 . S
C204 C205 1.377 . S
C204 C206 1.384 1_554 S
C205 C204 1.377 . S
C205 C211 1.390 1_554 S
C206 H197 0.930 . S
C206 C204 1.384 1_556 S
C206 C207 1.372 . S
C207 C206 1.372 . S
C207 C208 1.400 . S
C207 C212 1.490 . S
C208 H198 0.930 . S
C208 C207 1.400 . S
C208 C211 1.386 . S
H209 C225 0.930 . S
H210 C226 0.931 . S
C211 H199 0.929 . S
C211 C205 1.390 1_556 S
C211 C208 1.386 . S
C212 C207 1.490 . S
C212 C214 1.395 . S
C212 C215 1.403 1_565 S
H213 C219 0.930 . S
C214 H200 0.930 . S
C214 C212 1.395 . S
C214 C217 1.403 . S
C215 C212 1.403 1_545 S
C215 C216 1.524 . S
C215 C219 1.400 . S
C216 H201 0.960 . S
C216 H202 0.960 . S
C216 H203 0.960 . S
C216 C215 1.524 . S
C217 C214 1.403 . S
C217 C218 1.392 1_565 S
C217 C221 1.495 . S
C218 C217 1.392 1_545 S
C218 C219 1.385 . S
C218 C220 1.478 . S
C219 H213 0.930 . S
C219 C215 1.400 . S
C219 C218 1.385 . S
C220 C218 1.478 . S
C220 C222 1.381 . S
C220 C226 1.383 . S
C221 C217 1.495 . S
C221 H227 0.959 . S
C221 H228 0.961 . S
C221 H229 0.960 . S
C222 C220 1.381 . S
C222 C223 1.394 . S
C222 H230 0.930 . S
C223 C222 1.394 . S
C223 C224 1.383 . S
C223 H231 0.929 . S
C224 C223 1.383 . S
C224 C225 1.377 . S
C225 H209 0.930 . S
C225 C224 1.377 . S
C225 C226 1.379 . S
C226 H210 0.931 . S
C226 C220 1.383 . S
C226 C225 1.379 . S
H227 C221 0.959 . S
H228 C221 0.961 . S
H229 C221 0.960 . S
H230 C222 0.930 . S
H231 C223 0.929 . S
H232 C240 0.929 . S
H233 C242 0.930 . S
H234 C244 0.930 . S
H235 C247 0.929 . S
H236 C250 0.930 . S
H237 C252 0.960 . S
H238 C252 0.960 . S
H239 C252 0.960 . S
C240 H232 0.929 . S
C240 C241 1.377 . S
C240 C242 1.384 1_655 S
C241 C240 1.377 . S
C241 C247 1.390 1_655 S
C242 H233 0.930 . S
C242 C240 1.384 1_455 S
C242 C243 1.372 . S
C243 C242 1.372 . S
C243 C244 1.400 . S
C243 C248 1.490 . S
C244 H234 0.930 . S
C244 C243 1.400 . S
C244 C247 1.386 . S
H245 C261 0.930 . S
H246 C262 0.931 . S
C247 H235 0.929 . S
C247 C241 1.390 1_455 S
C247 C244 1.386 . S
C248 C243 1.490 . S
C248 C250 1.395 . S
C248 C251 1.403 . S
H249 C255 0.930 . S
C250 H236 0.930 . S
C250 C248 1.395 . S
C250 C253 1.403 . S
C251 C248 1.403 . S
C251 C252 1.524 . S
C251 C255 1.400 . S
C252 H237 0.960 . S
C252 H238 0.960 . S
C252 H239 0.960 . S
C252 C251 1.524 . S
C253 C250 1.403 . S
C253 C254 1.392 . S
C253 C257 1.495 . S
C254 C253 1.392 . S
C254 C255 1.385 . S
C254 C256 1.478 . S
C255 H249 0.930 . S
C255 C251 1.400 . S
C255 C254 1.385 . S
C256 C254 1.478 . S
C256 C258 1.381 . S
C256 C262 1.383 . S
C257 C253 1.495 . S
C257 H263 0.959 . S
C257 H264 0.961 . S
C257 H265 0.960 . S
C258 C256 1.381 . S
C258 C259 1.394 . S
C258 H266 0.930 . S
C259 C258 1.394 . S
C259 C260 1.383 . S
C259 H267 0.929 . S
C260 C259 1.383 . S
C260 C261 1.377 . S
C261 H245 0.930 . S
C261 C260 1.377 . S
C261 C262 1.379 . S
C262 H246 0.931 . S
C262 C256 1.383 . S
C262 C261 1.379 . S
H263 C257 0.959 . S
H264 C257 0.961 . S
H265 C257 0.960 . S
H266 C258 0.930 . S
H267 C259 0.929 . S
H268 C276 0.929 . S
H269 C278 0.930 . S
H270 C280 0.930 . S
H271 C283 0.929 . S
H272 C286 0.930 . S
H273 C288 0.960 1_655 S
H274 C288 0.960 . S
H275 C288 0.959 . S
C276 H268 0.929 . S
C276 C277 1.377 . S
C276 C278 1.384 . S
C277 C276 1.377 . S
C277 C283 1.390 . S
C278 H269 0.930 . S
C278 C276 1.384 . S
C278 C279 1.372 . S
C279 C278 1.372 . S
C279 C280 1.400 . S
C279 C284 1.490 . S
C280 H270 0.930 . S
C280 C279 1.400 . S
C280 C283 1.386 . S
H281 C297 0.930 . S
H282 C298 0.931 . S
C283 H271 0.929 . S
C283 C277 1.390 . S
C283 C280 1.386 . S
C284 C279 1.490 . S
C284 C286 1.395 . S
C284 C287 1.403 . S
H285 C291 0.930 . S
C286 H272 0.930 . S
C286 C284 1.395 . S
C286 C289 1.403 . S
C287 C284 1.403 . S
C287 C288 1.524 . S
C287 C291 1.400 1_455 S
C288 H273 0.960 1_455 S
C288 H274 0.960 . S
C288 H275 0.959 . S
C288 C287 1.524 . S
C289 C286 1.403 . S
C289 C290 1.392 1_455 S
C289 C293 1.495 . S
C290 C289 1.392 1_655 S
C290 C291 1.385 . S
C290 C292 1.478 . S
C291 H285 0.930 . S
C291 C287 1.400 1_655 S
C291 C290 1.385 . S
C292 C290 1.478 . S
C292 C294 1.381 . S
C292 C298 1.383 . S
C293 C289 1.495 . S
C293 H299 0.959 . S
C293 H300 0.961 1_455 S
C293 H301 0.960 . S
C294 C292 1.381 . S
C294 C295 1.394 1_565 S
C294 H302 0.930 1_655 S
C295 C294 1.394 1_545 S
C295 C296 1.383 . S
C295 H303 0.929 . S
C296 C295 1.383 . S
C296 C297 1.377 1_545 S
C297 H281 0.930 . S
C297 C296 1.377 1_565 S
C297 C298 1.379 . S
C298 H282 0.931 . S
C298 C292 1.383 . S
C298 C297 1.379 . S
H299 C293 0.959 . S
H300 C293 0.961 1_655 S
H301 C293 0.960 . S
H302 C294 0.930 1_455 S
H303 C295 0.929 . S
H304 C312 0.929 . S
H305 C314 0.930 . S
H306 C316 0.930 . S
H307 C319 0.929 . S
H308 C322 0.930 . S
H309 C324 0.960 . S
H310 C324 0.960 . S
H311 C324 0.960 . S
C312 H304 0.929 . S
C312 C313 1.377 . S
C312 C314 1.384 . S
C313 C312 1.377 . S
C313 C319 1.390 . S
C314 H305 0.930 . S
C314 C312 1.384 . S
C314 C315 1.372 . S
C315 C314 1.372 . S
C315 C316 1.400 . S
C315 C320 1.490 . S
C316 H306 0.930 . S
C316 C315 1.400 . S
C316 C319 1.386 . S
H317 C333 0.930 . S
H318 C334 0.931 . S
C319 H307 0.929 . S
C319 C313 1.390 . S
C319 C316 1.386 . S
C320 C315 1.490 . S
C320 C322 1.395 . S
C320 C323 1.403 1_556 S
H321 C327 0.930 . S
C322 H308 0.930 . S
C322 C320 1.395 . S
C322 C325 1.403 . S
C323 C320 1.403 1_554 S
C323 C324 1.524 . S
C323 C327 1.400 . S
C324 H309 0.960 . S
C324 H310 0.960 . S
C324 H311 0.960 . S
C324 C323 1.524 . S
C325 C322 1.403 . S
C325 C326 1.392 1_556 S
C325 C329 1.495 . S
C326 C325 1.392 1_554 S
C326 C327 1.385 . S
C326 C328 1.478 . S
C327 H321 0.930 . S
C327 C323 1.400 . S
C327 C326 1.385 . S
C328 C326 1.478 . S
C328 C330 1.381 . S
C328 C334 1.383 . S
C329 C325 1.495 . S
C329 H335 0.959 . S
C329 H336 0.961 . S
C329 H337 0.960 . S
C330 C328 1.381 . S
C330 C331 1.394 . S
C330 H338 0.930 . S
C331 C330 1.394 . S
C331 C332 1.383 . S
C331 H339 0.929 . S
C332 C331 1.383 . S
C332 C333 1.377 . S
C333 H317 0.930 . S
C333 C332 1.377 . S
C333 C334 1.379 . S
C334 H318 0.931 . S
C334 C328 1.383 . S
C334 C333 1.379 . S
H335 C329 0.959 . S
H336 C329 0.961 . S
H337 C329 0.960 . S
H338 C330 0.930 . S
H339 C331 0.929 . S
H340 C348 0.929 . S
H341 C350 0.930 . S
H342 C352 0.930 . S
H343 C355 0.929 . S
H344 C358 0.930 . S
H345 C360 0.960 . S
H346 C360 0.960 . S
H347 C360 0.960 . S
C348 H340 0.929 . S
C348 C349 1.377 . S
C348 C350 1.384 . S
C349 C348 1.377 . S
C349 C355 1.390 . S
C350 H341 0.930 . S
C350 C348 1.384 . S
C350 C351 1.372 . S
C351 C350 1.372 . S
C351 C352 1.400 . S
C351 C356 1.490 . S
C352 H342 0.930 . S
C352 C351 1.400 . S
C352 C355 1.386 . S
H353 C369 0.930 1_565 S
H354 C370 0.931 . S
C355 H343 0.929 . S
C355 C349 1.390 . S
C355 C352 1.386 . S
C356 C351 1.490 . S
C356 C358 1.395 . S
C356 C359 1.403 . S
H357 C363 0.930 . S
C358 H344 0.930 . S
C358 C356 1.395 . S
C358 C361 1.403 . S
C359 C356 1.403 . S
C359 C360 1.524 . S
C359 C363 1.400 . S
C360 H345 0.960 . S
C360 H346 0.960 . S
C360 H347 0.960 . S
C360 C359 1.524 . S
C361 C358 1.403 . S
C361 C362 1.392 . S
C361 C365 1.495 . S
C362 C361 1.392 . S
C362 C363 1.385 . S
C362 C364 1.478 . S
C363 H357 0.930 . S
C363 C359 1.400 . S
C363 C362 1.385 . S
C364 C362 1.478 . S
C364 C366 1.381 . S
C364 C370 1.383 . S
C365 C361 1.495 . S
C365 H371 0.959 . S
C365 H372 0.961 . S
C365 H373 0.960 . S
C366 C364 1.381 . S
C366 C367 1.394 . S
C366 H374 0.930 . S
C367 C366 1.394 . S
C367 C368 1.383 1_545 S
C367 H375 0.929 1_545 S
C368 C367 1.383 1_565 S
C368 C369 1.377 1_565 S
C369 H353 0.930 1_545 S
C369 C368 1.377 1_545 S
C369 C370 1.379 . S
C370 H354 0.931 . S
C370 C364 1.383 . S
C370 C369 1.379 . S
H371 C365 0.959 . S
H372 C365 0.961 . S
H373 C365 0.960 . S
H374 C366 0.930 . S
H375 C367 0.929 1_565 S
H376 C384 0.929 . S
H377 C386 0.930 . S
H378 C388 0.930 . S
H379 C391 0.929 . S
H380 C394 0.930 . S
H381 C396 0.960 . S
H382 C396 0.960 . S
H383 C396 0.960 . S
C384 H376 0.929 . S
C384 C385 1.377 . S
C384 C386 1.384 . S
C385 C384 1.377 . S
C385 C391 1.390 . S
C386 H377 0.930 . S
C386 C384 1.384 . S
C386 C387 1.372 . S
C387 C386 1.372 . S
C387 C388 1.400 . S
C387 C392 1.490 . S
C388 H378 0.930 . S
C388 C387 1.400 . S
C388 C391 1.386 . S
H389 C405 0.930 . S
H390 C406 0.931 . S
C391 H379 0.929 . S
C391 C385 1.390 . S
C391 C388 1.386 . S
C392 C387 1.490 . S
C392 C394 1.395 . S
C392 C395 1.403 . S
H393 C399 0.930 . S
C394 H380 0.930 . S
C394 C392 1.395 . S
C394 C397 1.403 . S
C395 C392 1.403 . S
C395 C396 1.524 . S
C395 C399 1.400 . S
C396 H381 0.960 . S
C396 H382 0.960 . S
C396 H383 0.960 . S
C396 C395 1.524 . S
C397 C394 1.403 . S
C397 C398 1.392 . S
C397 C401 1.495 . S
C398 C397 1.392 . S
C398 C399 1.385 . S
C398 C400 1.478 . S
C399 H393 0.930 . S
C399 C395 1.400 . S
C399 C398 1.385 . S
C400 C398 1.478 . S
C400 C402 1.381 . S
C400 C406 1.383 . S
C401 C397 1.495 . S
C401 H407 0.959 . S
C401 H408 0.961 . S
C401 H409 0.960 . S
C402 C400 1.381 . S
C402 C403 1.394 . S
C402 H410 0.930 . S
C403 C402 1.394 . S
C403 C404 1.383 . S
C403 H411 0.929 . S
C404 C403 1.383 . S
C404 C405 1.377 . S
C405 H389 0.930 . S
C405 C404 1.377 . S
C405 C406 1.379 . S
C406 H390 0.931 . S
C406 C400 1.383 . S
C406 C405 1.379 . S
H407 C401 0.959 . S
H408 C401 0.961 . S
H409 C401 0.960 . S
H410 C402 0.930 . S
H411 C403 0.929 . S
H412 C420 0.929 . S
H413 C422 0.909 1_655 S
H414 C424 0.930 . S
H415 C427 0.929 . S
H416 C430 0.930 . S
H417 C432 0.960 . S
H418 C432 0.960 . S
H419 C432 0.960 . S
C420 H412 0.929 . S
C420 C421 1.377 . S
C420 C422 1.384 . S
C421 C420 1.377 . S
C421 C427 1.390 . S
C422 H413 0.909 1_455 S
C422 C420 1.384 . S
C422 C423 1.372 . S
C423 C422 1.372 . S
C423 C424 1.400 . S
C423 C428 1.490 . S
C424 H414 0.930 . S
C424 C423 1.400 . S
C424 C427 1.386 . S
H425 C441 0.930 . S
H426 C442 0.931 . S
C427 H415 0.929 . S
C427 C421 1.390 . S
C427 C424 1.386 . S
C428 C423 1.490 . S
C428 C430 1.395 1_455 S
C428 C431 1.403 . S
H429 C435 0.930 . S
C430 H416 0.930 . S
C430 C428 1.395 1_655 S
C430 C433 1.403 . S
C431 C428 1.403 . S
C431 C432 1.524 . S
C431 C435 1.400 . S
C432 H417 0.960 . S
C432 H418 0.960 . S
C432 H419 0.960 . S
C432 C431 1.524 . S
C433 C430 1.403 . S
C433 C434 1.392 . S
C433 C437 1.495 . S
C434 C433 1.392 . S
C434 C435 1.385 1_655 S
C434 C436 1.478 . S
C435 H429 0.930 . S
C435 C431 1.400 . S
C435 C434 1.385 1_455 S
C436 C434 1.478 . S
C436 C438 1.381 . S
C436 C442 1.383 . S
C437 C433 1.495 . S
C437 H443 0.959 . S
C437 H444 0.961 . S
C437 H445 0.960 . S
C438 C436 1.381 . S
C438 C439 1.394 . S
C438 H446 0.930 . S
C439 C438 1.394 . S
C439 C440 1.383 . S
C439 H447 0.929 . S
C440 C439 1.383 . S
C440 C441 1.377 . S
C441 H425 0.930 . S
C441 C440 1.377 . S
C441 C442 1.379 . S
C442 H426 0.931 . S
C442 C436 1.383 . S
C442 C441 1.379 . S
H443 C437 0.959 . S
H444 C437 0.961 . S
H445 C437 0.960 . S
H446 C438 0.930 . S
H447 C439 0.929 . S
H448 C456 0.929 . S
H449 C458 0.930 . S
H450 C460 0.930 . S
H451 C463 0.929 . S
H452 C466 0.930 . S
H453 C468 0.960 . S
H454 C468 0.960 . S
H455 C468 0.960 1_556 S
C456 H448 0.929 . S
C456 C457 1.377 . S
C456 C458 1.384 1_455 S
C457 C456 1.377 . S
C457 C463 1.390 1_455 S
C458 H449 0.930 . S
C458 C456 1.384 1_655 S
C458 C459 1.372 . S
C459 C458 1.372 . S
C459 C460 1.400 . S
C459 C464 1.490 . S
C460 H450 0.930 . S
C460 C459 1.400 . S
C460 C463 1.386 . S
H461 C477 0.930 . S
H462 C478 0.931 . S
C463 H451 0.929 . S
C463 C457 1.390 1_655 S
C463 C460 1.386 . S
C464 C459 1.490 . S
C464 C466 1.395 . S
C464 C467 1.403 1_556 S
H465 C471 0.930 . S
C466 H452 0.930 . S
C466 C464 1.395 . S
C466 C469 1.403 1_556 S
C467 C464 1.403 1_554 S
C467 C468 1.524 . S
C467 C471 1.400 . S
C468 H453 0.960 . S
C468 H454 0.960 . S
C468 H455 0.960 1_554 S
C468 C467 1.524 . S
C469 C466 1.403 1_554 S
C469 C470 1.392 . S
C469 C473 1.495 1_554 S
C470 C469 1.392 . S
C470 C471 1.385 . S
C470 C472 1.478 . S
C471 H465 0.930 . S
C471 C467 1.400 . S
C471 C470 1.385 . S
C472 C470 1.478 . S
C472 C474 1.381 . S
C472 C478 1.383 . S
C473 C469 1.495 1_556 S
C473 H479 0.959 . S
C473 H480 0.961 . S
C473 H481 0.960 1_556 S
C474 C472 1.381 . S
C474 C475 1.394 . S
C474 H482 0.930 . S
C475 C474 1.394 . S
C475 C476 1.383 . S
C475 H483 0.929 . S
C476 C475 1.383 . S
C476 C477 1.377 . S
C477 H461 0.930 . S
C477 C476 1.377 . S
C477 C478 1.379 . S
C478 H462 0.931 . S
C478 C472 1.383 . S
C478 C477 1.379 . S
H479 C473 0.959 . S
H480 C473 0.961 . S
H481 C473 0.960 1_554 S
H482 C474 0.930 . S
H483 C475 0.929 . S
H484 C492 0.929 . S
H485 C494 0.930 . S
H486 C496 0.930 . S
H487 C499 0.929 . S
H488 C502 0.930 . S
H489 C504 0.960 . S
H490 C504 0.960 . S
H491 C504 0.960 . S
C492 H484 0.929 . S
C492 C493 1.377 . S
C492 C494 1.384 . S
C493 C492 1.377 . S
C493 C499 1.390 . S
C494 H485 0.930 . S
C494 C492 1.384 . S
C494 C495 1.372 . S
C495 C494 1.372 . S
C495 C496 1.400 . S
C495 C500 1.490 . S
C496 H486 0.930 . S
C496 C495 1.400 . S
C496 C499 1.386 . S
H497 C513 0.930 . S
H498 C514 0.931 . S
C499 H487 0.929 . S
C499 C493 1.390 . S
C499 C496 1.386 . S
C500 C495 1.490 . S
C500 C502 1.395 . S
C500 C503 1.403 . S
H501 C507 0.930 . S
C502 H488 0.930 . S
C502 C500 1.395 . S
C502 C505 1.403 . S
C503 C500 1.403 . S
C503 C504 1.524 . S
C503 C507 1.400 . S
C504 H489 0.960 . S
C504 H490 0.960 . S
C504 H491 0.960 . S
C504 C503 1.524 . S
C505 C502 1.403 . S
C505 C506 1.392 . S
C505 C509 1.495 . S
C506 C505 1.392 . S
C506 C507 1.385 . S
C506 C508 1.478 . S
C507 H501 0.930 . S
C507 C503 1.400 . S
C507 C506 1.385 . S
C508 C506 1.478 . S
C508 C510 1.381 . S
C508 C514 1.383 . S
C509 C505 1.495 . S
C509 H515 0.959 . S
C509 H516 0.961 . S
C509 H517 0.960 . S
C510 C508 1.381 . S
C510 C511 1.394 . S
C510 H518 0.930 . S
C511 C510 1.394 . S
C511 C512 1.383 . S
C511 H519 0.929 . S
C512 C511 1.383 . S
C512 C513 1.377 . S
C513 H497 0.930 . S
C513 C512 1.377 . S
C513 C514 1.379 . S
C514 H498 0.931 . S
C514 C508 1.383 . S
C514 C513 1.379 . S
H515 C509 0.959 . S
H516 C509 0.961 . S
H517 C509 0.960 . S
H518 C510 0.930 . S
H519 C511 0.929 . S
C97 C59 1.323 . S
C116 C21 1.328 . S
C133 C84 1.285 . S
C152 C29 1.288 . S
C169 C62 1.234 . S
C188 C10 1.253 . S
C205 C81 1.262 . S
C224 C30 1.267 . S
C241 C37 1.317 . S
C260 C15 1.298 . S
C277 C52 1.287 . S
C296 C43 1.293 . S
C313 C54 1.279 . S
C332 C87 1.250 . S
C349 C7 1.309 . S
C368 C73 1.288 . S
C385 C40 1.232 . S
C404 C18 1.248 . S
C421 C51 1.271 . S
C440 C32 1.304 . S
C457 C65 1.265 . S
C476 C76 1.278 . S
C493 C74 1.225 . S
C512 C8 1.214 . S
