# Generated by pormake.
# Topology wjb, (6)-cn, num edge types: 1
# Building blocks:
#     Node 0, Type 0, BuildingBlock: IZENUY_clean_sbu_0, # of connection points: 6
#     Node 1, Type 0, BuildingBlock: IZENUY_clean_sbu_0, # of connection points: 6
#     Node 2, Type 0, BuildingBlock: IZENUY_clean_sbu_0, # of connection points: 6
#     Node 3, Type 0, BuildingBlock: IZENUY_clean_sbu_0, # of connection points: 6
#     Node 4, Type 0, BuildingBlock: IZENUY_clean_sbu_0, # of connection points: 6
#     Node 5, Type 0, BuildingBlock: IZENUY_clean_sbu_0, # of connection points: 6
#     Node 6, Type 0, BuildingBlock: IZENUY_clean_sbu_0, # of connection points: 6
#     Node 7, Type 0, BuildingBlock: IZENUY_clean_sbu_0, # of connection points: 6
#     Node 8, Type 0, BuildingBlock: IZENUY_clean_sbu_0, # of connection points: 6
#     Node 9, Type 0, BuildingBlock: IZENUY_clean_sbu_0, # of connection points: 6
#     Node 10, Type 0, BuildingBlock: IZENUY_clean_sbu_0, # of connection points: 6
#     Node 11, Type 0, BuildingBlock: IZENUY_clean_sbu_0, # of connection points: 6
#     Node 12, Type 0, BuildingBlock: IZENUY_clean_sbu_0, # of connection points: 6
#     Node 13, Type 0, BuildingBlock: IZENUY_clean_sbu_0, # of connection points: 6
#     Node 14, Type 0, BuildingBlock: IZENUY_clean_sbu_0, # of connection points: 6
#     Node 15, Type 0, BuildingBlock: IZENUY_clean_sbu_0, # of connection points: 6
#     Node 16, Type 0, BuildingBlock: IZENUY_clean_sbu_0, # of connection points: 6
#     Node 17, Type 0, BuildingBlock: IZENUY_clean_sbu_0, # of connection points: 6
#     Node 18, Type 0, BuildingBlock: IZENUY_clean_sbu_0, # of connection points: 6
#     Node 19, Type 0, BuildingBlock: IZENUY_clean_sbu_0, # of connection points: 6
#     Node 20, Type 0, BuildingBlock: IZENUY_clean_sbu_0, # of connection points: 6
#     Node 21, Type 0, BuildingBlock: IZENUY_clean_sbu_0, # of connection points: 6
#     Node 22, Type 0, BuildingBlock: IZENUY_clean_sbu_0, # of connection points: 6
#     Node 23, Type 0, BuildingBlock: IZENUY_clean_sbu_0, # of connection points: 6
#     Edge 24, Type (0, 0), BuildingBlock: XIVTED_clean_linker_0, # of connection points: 2
#     Edge 25, Type (0, 0), BuildingBlock: XIVTED_clean_linker_0, # of connection points: 2
#     Edge 26, Type (0, 0), BuildingBlock: XIVTED_clean_linker_0, # of connection points: 2
#     Edge 27, Type (0, 0), BuildingBlock: XIVTED_clean_linker_0, # of connection points: 2
#     Edge 28, Type (0, 0), BuildingBlock: XIVTED_clean_linker_0, # of connection points: 2
#     Edge 29, Type (0, 0), BuildingBlock: XIVTED_clean_linker_0, # of connection points: 2
#     Edge 30, Type (0, 0), BuildingBlock: XIVTED_clean_linker_0, # of connection points: 2
#     Edge 31, Type (0, 0), BuildingBlock: XIVTED_clean_linker_0, # of connection points: 2
#     Edge 32, Type (0, 0), BuildingBlock: XIVTED_clean_linker_0, # of connection points: 2
#     Edge 33, Type (0, 0), BuildingBlock: XIVTED_clean_linker_0, # of connection points: 2
#     Edge 34, Type (0, 0), BuildingBlock: XIVTED_clean_linker_0, # of connection points: 2
#     Edge 35, Type (0, 0), BuildingBlock: XIVTED_clean_linker_0, # of connection points: 2
#     Edge 36, Type (0, 0), BuildingBlock: XIVTED_clean_linker_0, # of connection points: 2
#     Edge 37, Type (0, 0), BuildingBlock: XIVTED_clean_linker_0, # of connection points: 2
#     Edge 38, Type (0, 0), BuildingBlock: XIVTED_clean_linker_0, # of connection points: 2
#     Edge 39, Type (0, 0), BuildingBlock: XIVTED_clean_linker_0, # of connection points: 2
#     Edge 40, Type (0, 0), BuildingBlock: XIVTED_clean_linker_0, # of connection points: 2
#     Edge 41, Type (0, 0), BuildingBlock: XIVTED_clean_linker_0, # of connection points: 2
#     Edge 42, Type (0, 0), BuildingBlock: XIVTED_clean_linker_0, # of connection points: 2
#     Edge 43, Type (0, 0), BuildingBlock: XIVTED_clean_linker_0, # of connection points: 2
#     Edge 44, Type (0, 0), BuildingBlock: XIVTED_clean_linker_0, # of connection points: 2
#     Edge 45, Type (0, 0), BuildingBlock: XIVTED_clean_linker_0, # of connection points: 2
#     Edge 46, Type (0, 0), BuildingBlock: XIVTED_clean_linker_0, # of connection points: 2
#     Edge 47, Type (0, 0), BuildingBlock: XIVTED_clean_linker_0, # of connection points: 2
#     Edge 48, Type (0, 0), BuildingBlock: XIVTED_clean_linker_0, # of connection points: 2
#     Edge 49, Type (0, 0), BuildingBlock: XIVTED_clean_linker_0, # of connection points: 2
#     Edge 50, Type (0, 0), BuildingBlock: XIVTED_clean_linker_0, # of connection points: 2
#     Edge 51, Type (0, 0), BuildingBlock: XIVTED_clean_linker_0, # of connection points: 2
#     Edge 52, Type (0, 0), BuildingBlock: XIVTED_clean_linker_0, # of connection points: 2
#     Edge 53, Type (0, 0), BuildingBlock: XIVTED_clean_linker_0, # of connection points: 2
#     Edge 54, Type (0, 0), BuildingBlock: XIVTED_clean_linker_0, # of connection points: 2
#     Edge 55, Type (0, 0), BuildingBlock: XIVTED_clean_linker_0, # of connection points: 2
#     Edge 56, Type (0, 0), BuildingBlock: XIVTED_clean_linker_0, # of connection points: 2
#     Edge 57, Type (0, 0), BuildingBlock: XIVTED_clean_linker_0, # of connection points: 2
#     Edge 58, Type (0, 0), BuildingBlock: XIVTED_clean_linker_0, # of connection points: 2
#     Edge 59, Type (0, 0), BuildingBlock: XIVTED_clean_linker_0, # of connection points: 2
#     Edge 60, Type (0, 0), BuildingBlock: XIVTED_clean_linker_0, # of connection points: 2
#     Edge 61, Type (0, 0), BuildingBlock: XIVTED_clean_linker_0, # of connection points: 2
#     Edge 62, Type (0, 0), BuildingBlock: XIVTED_clean_linker_0, # of connection points: 2
#     Edge 63, Type (0, 0), BuildingBlock: XIVTED_clean_linker_0, # of connection points: 2
#     Edge 64, Type (0, 0), BuildingBlock: XIVTED_clean_linker_0, # of connection points: 2
#     Edge 65, Type (0, 0), BuildingBlock: XIVTED_clean_linker_0, # of connection points: 2
#     Edge 66, Type (0, 0), BuildingBlock: XIVTED_clean_linker_0, # of connection points: 2
#     Edge 67, Type (0, 0), BuildingBlock: XIVTED_clean_linker_0, # of connection points: 2
#     Edge 68, Type (0, 0), BuildingBlock: XIVTED_clean_linker_0, # of connection points: 2
#     Edge 69, Type (0, 0), BuildingBlock: XIVTED_clean_linker_0, # of connection points: 2
#     Edge 70, Type (0, 0), BuildingBlock: XIVTED_clean_linker_0, # of connection points: 2
#     Edge 71, Type (0, 0), BuildingBlock: XIVTED_clean_linker_0, # of connection points: 2
#     Edge 72, Type (0, 0), BuildingBlock: XIVTED_clean_linker_0, # of connection points: 2
#     Edge 73, Type (0, 0), BuildingBlock: XIVTED_clean_linker_0, # of connection points: 2
#     Edge 74, Type (0, 0), BuildingBlock: XIVTED_clean_linker_0, # of connection points: 2
#     Edge 75, Type (0, 0), BuildingBlock: XIVTED_clean_linker_0, # of connection points: 2
#     Edge 76, Type (0, 0), BuildingBlock: XIVTED_clean_linker_0, # of connection points: 2
#     Edge 77, Type (0, 0), BuildingBlock: XIVTED_clean_linker_0, # of connection points: 2
#     Edge 78, Type (0, 0), BuildingBlock: XIVTED_clean_linker_0, # of connection points: 2
#     Edge 79, Type (0, 0), BuildingBlock: XIVTED_clean_linker_0, # of connection points: 2
#     Edge 80, Type (0, 0), BuildingBlock: XIVTED_clean_linker_0, # of connection points: 2
#     Edge 81, Type (0, 0), BuildingBlock: XIVTED_clean_linker_0, # of connection points: 2
#     Edge 82, Type (0, 0), BuildingBlock: XIVTED_clean_linker_0, # of connection points: 2
#     Edge 83, Type (0, 0), BuildingBlock: XIVTED_clean_linker_0, # of connection points: 2
#     Edge 84, Type (0, 0), BuildingBlock: XIVTED_clean_linker_0, # of connection points: 2
#     Edge 85, Type (0, 0), BuildingBlock: XIVTED_clean_linker_0, # of connection points: 2
#     Edge 86, Type (0, 0), BuildingBlock: XIVTED_clean_linker_0, # of connection points: 2
#     Edge 87, Type (0, 0), BuildingBlock: XIVTED_clean_linker_0, # of connection points: 2
#     Edge 88, Type (0, 0), BuildingBlock: XIVTED_clean_linker_0, # of connection points: 2
#     Edge 89, Type (0, 0), BuildingBlock: XIVTED_clean_linker_0, # of connection points: 2
#     Edge 90, Type (0, 0), BuildingBlock: XIVTED_clean_linker_0, # of connection points: 2
#     Edge 91, Type (0, 0), BuildingBlock: XIVTED_clean_linker_0, # of connection points: 2
#     Edge 92, Type (0, 0), BuildingBlock: XIVTED_clean_linker_0, # of connection points: 2
#     Edge 93, Type (0, 0), BuildingBlock: XIVTED_clean_linker_0, # of connection points: 2
#     Edge 94, Type (0, 0), BuildingBlock: XIVTED_clean_linker_0, # of connection points: 2
#     Edge 95, Type (0, 0), BuildingBlock: XIVTED_clean_linker_0, # of connection points: 2
# Relax obj value: 0.470
# Max RMSD: 0.193
# Mean RMSD: 0.193
data_MOF--net-wjb--node1-IZENUY_clean_sbu_0--edge1-XIVTED_clean_linker_0
_symmetry_space_group_name_H-M    P1
_symmetry_Int_Tables_number       1
_symmetry_cell_setting            triclinic
loop_
_symmetry_equiv_pos_as_xyz
'x, y, z'
_cell_length_a     52.163394
_cell_length_b     52.163003
_cell_length_c     55.807731
_cell_angle_alpha  90.004863
_cell_angle_beta   90.004481
_cell_angle_gamma 120.02364
loop_
_atom_site_label
_atom_site_type_symbol
_atom_site_fract_x
_atom_site_fract_y
_atom_site_fract_z
_atom_type_partial_charge
Fe0 Fe 0.16394 0.4625 0.11637 0.0
Fe1 Fe 0.13355 0.50037 0.11553 0.0
O2 O 0.16185 0.49348 0.10563 0.0
Fe3 Fe 0.18824 0.51789 0.0849 0.0
O4 O 0.21769 0.5274 0.10612 0.0
O5 O 0.20478 0.48161 0.11589 0.0
O6 O 0.16705 0.47502 0.14697 0.0
C7 C 0.14904 0.48058 0.15751 0.0
C8 C 0.17879 0.46215 0.0696 0.0
O9 O 0.13084 0.48501 0.14574 0.0
C10 C 0.13861 0.51423 0.06597 0.0
O11 O 0.12347 0.43824 0.11888 0.0
O12 O 0.10551 0.46511 0.10379 0.0
O13 O 0.19448 0.48997 0.07066 0.0
O14 O 0.16133 0.44763 0.08637 0.0
C15 C 0.18079 0.55653 0.11558 0.0
O16 O 0.13107 0.51689 0.08704 0.0
O17 O 0.15986 0.50959 0.06265 0.0
C18 C 0.10265 0.44029 0.10905 0.0
O19 O 0.16016 0.53651 0.12784 0.0
O20 O 0.18748 0.55072 0.09533 0.0
C21 C 0.22347 0.50912 0.11592 0.0
Fe22 Fe 0.66706 0.1925 0.59586 0.0
Fe23 Fe 0.7017 0.16939 0.62375 0.0
O24 O 0.6674 0.16533 0.61432 0.0
Fe25 Fe 0.63346 0.13429 0.62313 0.0
O26 O 0.62094 0.15723 0.63771 0.0
O27 O 0.63179 0.18737 0.60712 0.0
O28 O 0.68489 0.22002 0.61889 0.0
C29 C 0.7099 0.22722 0.62757 0.0
C30 C 0.6241 0.14288 0.57439 0.0
O31 O 0.72077 0.2103 0.62536 0.0
C32 C 0.6666 0.10832 0.61337 0.0
O33 O 0.70241 0.20324 0.58113 0.0
O34 O 0.71379 0.17006 0.59292 0.0
O35 O 0.61392 0.13262 0.59504 0.0
O36 O 0.64904 0.16593 0.57204 0.0
C37 C 0.66903 0.14938 0.66502 0.0
O38 O 0.68844 0.12929 0.62411 0.0
O39 O 0.64357 0.10952 0.60898 0.0
C40 C 0.71588 0.18904 0.57786 0.0
O41 O 0.69206 0.1692 0.65488 0.0
O42 O 0.64709 0.13061 0.65278 0.0
C43 C 0.61898 0.17739 0.62696 0.0
Fe44 Fe 0.47909 0.66061 0.08572 0.0
Fe45 Fe 0.53181 0.69609 0.11902 0.0
O46 O 0.50313 0.66142 0.10827 0.0
Fe47 Fe 0.49842 0.62778 0.12019 0.0
O48 O 0.45785 0.60717 0.11733 0.0
O49 O 0.44732 0.64086 0.105 0.0
O50 O 0.48013 0.69445 0.09563 0.0
C51 C 0.48563 0.70654 0.11604 0.0
C52 C 0.4881 0.61337 0.07254 0.0
O53 O 0.50524 0.70668 0.12939 0.0
C54 C 0.56045 0.6646 0.11582 0.0
O55 O 0.50956 0.68057 0.06506 0.0
O56 O 0.5371 0.71582 0.09044 0.0
O57 O 0.50303 0.61496 0.09087 0.0
O58 O 0.47331 0.62648 0.07175 0.0
C59 C 0.51152 0.66113 0.16111 0.0
O60 O 0.55984 0.68743 0.10924 0.0
O61 O 0.53813 0.64266 0.12517 0.0
C62 C 0.53051 0.70641 0.06911 0.0
O63 O 0.53165 0.68289 0.14966 0.0
O64 O 0.49322 0.63787 0.15023 0.0
C65 C 0.43981 0.61658 0.11523 0.0
Fe66 Fe 0.81403 0.48273 0.58675 0.0
Fe67 Fe 0.83334 0.53634 0.61937 0.0
O68 O 0.83785 0.50662 0.60908 0.0
Fe69 Fe 0.86568 0.50044 0.62128 0.0
O70 O 0.84404 0.45987 0.61866 0.0
O71 O 0.80028 0.45132 0.60674 0.0
O72 O 0.78226 0.48617 0.59575 0.0
C73 C 0.77572 0.49162 0.61618 0.0
C74 C 0.86913 0.4887 0.5741 0.0
O75 O 0.79554 0.51093 0.62952 0.0
C76 C 0.89361 0.56286 0.61704 0.0
O77 O 0.82654 0.51301 0.56569 0.0
O78 O 0.8203 0.54231 0.59029 0.0
O79 O 0.883 0.50403 0.59211 0.0
O80 O 0.8412 0.47461 0.5736 0.0
C81 C 0.84602 0.51491 0.6617 0.0
O82 O 0.8708 0.56329 0.61001 0.0
O83 O 0.89195 0.53988 0.62623 0.0
C84 C 0.8236 0.53528 0.56921 0.0
O85 O 0.84544 0.53557 0.6502 0.0
O86 O 0.85032 0.49609 0.65104 0.0
C87 C 0.81627 0.44301 0.61725 0.0
Fe88 Fe 0.36747 0.863 0.11814 0.0
Fe89 Fe 0.33235 0.81346 0.08191 0.0
O90 O 0.33314 0.8365 0.10535 0.0
Fe91 Fe 0.29929 0.83262 0.1161 0.0
O92 O 0.31223 0.8433 0.14709 0.0
O93 O 0.35594 0.84669 0.14765 0.0
O94 O 0.38529 0.8404 0.11456 0.0
C95 C 0.37387 0.81274 0.1115 0.0
C96 C 0.33452 0.89279 0.11537 0.0
O97 O 0.3496 0.79808 0.10061 0.0
C98 C 0.28981 0.82455 0.06581 0.0
O99 O 0.38194 0.88149 0.0895 0.0
O100 O 0.36774 0.84067 0.06886 0.0
O101 O 0.31086 0.87073 0.1079 0.0
O102 O 0.3554 0.88989 0.12403 0.0
C103 C 0.28475 0.7747 0.11109 0.0
O104 O 0.31491 0.82745 0.06183 0.0
O105 O 0.27992 0.82096 0.08704 0.0
C106 C 0.38269 0.86849 0.07068 0.0
O107 O 0.29684 0.78176 0.09068 0.0
O108 O 0.28594 0.79428 0.12512 0.0
C109 C 0.33318 0.84317 0.15847 0.0
Fe110 Fe 0.5204 0.32817 0.5878 0.0
Fe111 Fe 0.46398 0.29654 0.61804 0.0
O112 O 0.49556 0.32976 0.60828 0.0
Fe113 Fe 0.50251 0.36472 0.61888 0.0
O114 O 0.53806 0.3734 0.63181 0.0
O115 O 0.55316 0.36111 0.59933 0.0
O116 O 0.5289 0.30717 0.60869 0.0
C117 C 0.51021 0.28295 0.61804 0.0
C118 C 0.51764 0.3751 0.56986 0.0
O119 O 0.48271 0.27429 0.61738 0.0
C120 C 0.44276 0.33662 0.61112 0.0
O121 O 0.49254 0.29478 0.57249 0.0
O122 O 0.44999 0.28573 0.5877 0.0
O123 O 0.52011 0.38465 0.59109 0.0
O124 O 0.51315 0.34937 0.56592 0.0
C125 C 0.4813 0.32802 0.65984 0.0
O126 O 0.44007 0.31327 0.62062 0.0
O127 O 0.46787 0.35844 0.60649 0.0
C128 C 0.46482 0.28347 0.57088 0.0
O129 O 0.47568 0.30471 0.64885 0.0
O130 O 0.48606 0.35106 0.64857 0.0
C131 C 0.5584 0.3731 0.6198 0.0
Fe132 Fe 0.53188 0.83585 0.88225 0.0
Fe133 Fe 0.49843 0.87059 0.88155 0.0
O134 O 0.50246 0.84088 0.89257 0.0
Fe135 Fe 0.477 0.81609 0.9137 0.0
O136 O 0.47829 0.78387 0.90249 0.0
O137 O 0.50636 0.79939 0.87025 0.0
O138 O 0.53301 0.85061 0.85207 0.0
C139 C 0.51318 0.85254 0.84041 0.0
C140 C 0.52772 0.82082 0.93159 0.0
O141 O 0.49436 0.85686 0.85111 0.0
C142 C 0.4862 0.87181 0.92905 0.0
O143 O 0.55926 0.87197 0.89363 0.0
O144 O 0.53835 0.89564 0.87762 0.0
O145 O 0.50612 0.82476 0.93536 0.0
O146 O 0.53584 0.81978 0.9104 0.0
C147 C 0.43935 0.82336 0.88409 0.0
O148 O 0.50197 0.88625 0.9114 0.0
O149 O 0.471 0.84386 0.92863 0.0
C150 C 0.56038 0.89569 0.88723 0.0
O151 O 0.45776 0.85085 0.88342 0.0
O152 O 0.44622 0.80563 0.8934 0.0
C153 C 0.48596 0.77891 0.88232 0.0
Fe154 Fe 0.70366 0.53463 0.38104 0.0
Fe155 Fe 0.6355 0.50134 0.38104 0.0
O156 O 0.6693 0.50483 0.39101 0.0
Fe157 Fe 0.66863 0.47842 0.411 0.0
O158 O 0.68751 0.46786 0.38957 0.0
O159 O 0.72306 0.51309 0.38131 0.0
O160 O 0.6943 0.5232 0.35035 0.0
C161 C 0.67159 0.51995 0.33973 0.0
C162 C 0.71656 0.53223 0.42787 0.0
O163 O 0.6497 0.51766 0.35138 0.0
C164 C 0.6246 0.48534 0.42992 0.0
O165 O 0.69009 0.56118 0.37882 0.0
O166 O 0.6452 0.53671 0.39407 0.0
O167 O 0.70326 0.50434 0.42612 0.0
O168 O 0.7155 0.54802 0.41129 0.0
C169 C 0.6216 0.44376 0.37925 0.0
O170 O 0.61514 0.48434 0.40885 0.0
O171 O 0.64957 0.48771 0.43341 0.0
C172 C 0.66821 0.56078 0.38912 0.0
O173 O 0.62368 0.4654 0.36759 0.0
O174 O 0.63391 0.44742 0.39948 0.0
C175 C 0.71232 0.48524 0.38036 0.0
Fe176 Fe 0.14024 0.63521 0.87724 0.0
Fe177 Fe 0.19213 0.67562 0.90993 0.0
O178 O 0.16553 0.67104 0.88828 0.0
Fe179 Fe 0.16443 0.7026 0.87756 0.0
O180 O 0.15097 0.6874 0.84753 0.0
O181 O 0.15298 0.64637 0.84682 0.0
O182 O 0.16614 0.62107 0.87902 0.0
C183 C 0.19408 0.63435 0.88083 0.0
C184 C 0.10574 0.66251 0.88391 0.0
O185 O 0.2081 0.65963 0.89035 0.0
C186 C 0.17772 0.71545 0.92696 0.0
O187 O 0.12557 0.62112 0.90683 0.0
O188 O 0.16874 0.64029 0.92491 0.0
O189 O 0.12693 0.68805 0.8888 0.0
O190 O 0.11004 0.64321 0.87383 0.0
C191 C 0.22382 0.72332 0.87827 0.0
O192 O 0.17777 0.69173 0.93092 0.0
O193 O 0.17808 0.72401 0.90564 0.0
C194 C 0.14107 0.62303 0.92476 0.0
O195 O 0.22057 0.71192 0.89883 0.0
O196 O 0.20182 0.71863 0.86565 0.0
C197 C 0.15305 0.6676 0.83603 0.0
Fe198 Fe 0.52056 0.19352 0.41145 0.0
Fe199 Fe 0.46429 0.16791 0.38096 0.0
O200 O 0.49566 0.16634 0.39142 0.0
Fe201 Fe 0.50225 0.13768 0.38207 0.0
O202 O 0.538 0.16355 0.36925 0.0
O203 O 0.55328 0.19257 0.40082 0.0
O204 O 0.52947 0.22215 0.38959 0.0
C205 C 0.51093 0.22779 0.38015 0.0
C206 C 0.51719 0.14447 0.43145 0.0
O207 O 0.48336 0.20903 0.38085 0.0
C208 C 0.44237 0.10667 0.38908 0.0
O209 O 0.49275 0.20002 0.42578 0.0
O210 O 0.45021 0.16569 0.41117 0.0
O211 O 0.51923 0.13599 0.41059 0.0
O212 O 0.51291 0.16602 0.4343 0.0
C213 C 0.48198 0.15246 0.33996 0.0
O214 O 0.43997 0.12718 0.37899 0.0
O215 O 0.46733 0.11008 0.39441 0.0
C216 C 0.46503 0.18362 0.42757 0.0
O217 O 0.47613 0.17039 0.35029 0.0
O218 O 0.48654 0.13441 0.35188 0.0
C219 C 0.55845 0.18435 0.38097 0.0
Fe220 Fe 0.30425 0.46907 0.88308 0.0
Fe221 Fe 0.37255 0.50517 0.88188 0.0
O222 O 0.33834 0.49812 0.89437 0.0
Fe223 Fe 0.33782 0.52035 0.91798 0.0
O224 O 0.30295 0.51764 0.90889 0.0
O225 O 0.2925 0.49528 0.87401 0.0
O226 O 0.31757 0.47114 0.85219 0.0
C227 C 0.33897 0.49207 0.84106 0.0
C228 C 0.29382 0.46707 0.9333 0.0
O229 O 0.36178 0.51071 0.85221 0.0
C230 C 0.38721 0.5142 0.92958 0.0
O231 O 0.31444 0.44163 0.89136 0.0
O232 O 0.35947 0.46592 0.87585 0.0
O233 O 0.31926 0.4886 0.9377 0.0
O234 O 0.28437 0.46151 0.9119 0.0
C235 C 0.38019 0.56225 0.88866 0.0
O236 O 0.38633 0.50043 0.9107 0.0
O237 O 0.37271 0.52752 0.93135 0.0
C238 C 0.33787 0.44247 0.88431 0.0
O239 O 0.3912 0.54564 0.88568 0.0
O240 O 0.35603 0.55314 0.89959 0.0
C241 C 0.29183 0.51382 0.88819 0.0
Fe242 Fe 0.86683 0.36743 0.38409 0.0
Fe243 Fe 0.8109 0.3336 0.41421 0.0
O244 O 0.83686 0.33331 0.39418 0.0
Fe245 Fe 0.83276 0.29901 0.38433 0.0
O246 O 0.83077 0.30811 0.35333 0.0
O247 O 0.86896 0.35334 0.35424 0.0
O248 O 0.84226 0.37878 0.37076 0.0
C249 C 0.82209 0.37988 0.38231 0.0
C250 C 0.89445 0.33544 0.39217 0.0
O251 O 0.81399 0.36782 0.40264 0.0
C252 C 0.81744 0.28637 0.43146 0.0
O253 O 0.87014 0.38778 0.41213 0.0
O254 O 0.83918 0.35318 0.43667 0.0
O255 O 0.87303 0.31304 0.38229 0.0
O256 O 0.89299 0.3583 0.39687 0.0
C257 C 0.77441 0.28968 0.38349 0.0
O258 O 0.80258 0.29931 0.4295 0.0
O259 O 0.83429 0.28733 0.41484 0.0
C260 C 0.86157 0.37836 0.43326 0.0
O261 O 0.78154 0.31434 0.39282 0.0
O262 O 0.79173 0.27918 0.38443 0.0
C263 C 0.84979 0.33106 0.34258 0.0
Fe264 Fe 0.80607 0.48388 0.91722 0.0
Fe265 Fe 0.83074 0.53641 0.88276 0.0
O266 O 0.83098 0.50473 0.89423 0.0
Fe267 Fe 0.85588 0.494 0.88273 0.0
O268 O 0.8303 0.45405 0.88618 0.0
O269 O 0.78885 0.45095 0.89873 0.0
O270 O 0.77688 0.4912 0.90728 0.0
C271 C 0.77156 0.49771 0.88674 0.0
C272 C 0.85815 0.48363 0.93051 0.0
O273 O 0.79244 0.51384 0.87265 0.0
C274 C 0.88999 0.55621 0.88689 0.0
O275 O 0.82204 0.51556 0.93698 0.0
O276 O 0.81909 0.54568 0.9112 0.0
O277 O 0.87248 0.49645 0.9119 0.0
O278 O 0.83044 0.47269 0.9315 0.0
C279 C 0.84027 0.51095 0.84144 0.0
O280 O 0.86883 0.56039 0.89224 0.0
O281 O 0.88558 0.53216 0.87761 0.0
C282 C 0.82195 0.53917 0.93255 0.0
O283 O 0.84232 0.53315 0.8524 0.0
O284 O 0.84125 0.49055 0.85273 0.0
C285 C 0.80246 0.43942 0.88893 0.0
Fe286 Fe 0.29734 0.83133 0.37966 0.0
Fe287 Fe 0.36551 0.85996 0.38046 0.0
O288 O 0.33 0.83265 0.39067 0.0
Fe289 Fe 0.32739 0.80659 0.41206 0.0
O290 O 0.30673 0.77661 0.39141 0.0
O291 O 0.27474 0.79034 0.38061 0.0
O292 O 0.30635 0.82734 0.34909 0.0
C293 C 0.33026 0.84434 0.33847 0.0
C294 C 0.28248 0.81823 0.42684 0.0
O295 O 0.35312 0.86231 0.35011 0.0
C296 C 0.37438 0.85617 0.43022 0.0
O297 O 0.31459 0.87204 0.37676 0.0
O298 O 0.35946 0.88894 0.39154 0.0
O299 O 0.29369 0.8017 0.42623 0.0
O300 O 0.28546 0.83501 0.40954 0.0
C301 C 0.37311 0.81205 0.38168 0.0
O302 O 0.38447 0.86277 0.40905 0.0
O303 O 0.34824 0.83548 0.43384 0.0
C304 C 0.33795 0.89254 0.3864 0.0
O305 O 0.37392 0.83233 0.36883 0.0
O306 O 0.36044 0.80615 0.40188 0.0
C307 C 0.28292 0.77112 0.38129 0.0
Fe308 Fe 0.49875 0.36052 0.88154 0.0
Fe309 Fe 0.51629 0.3229 0.9115 0.0
O310 O 0.49197 0.3253 0.89096 0.0
Fe311 Fe 0.46094 0.29251 0.88002 0.0
O312 O 0.47382 0.30213 0.84957 0.0
O313 O 0.48367 0.3483 0.85127 0.0
O314 O 0.53503 0.3705 0.86937 0.0
C315 C 0.55536 0.37157 0.88232 0.0
C316 C 0.43874 0.33141 0.88771 0.0
O317 O 0.54917 0.35708 0.9017 0.0
C318 C 0.4603 0.2772 0.92668 0.0
O319 O 0.51491 0.37896 0.91017 0.0
O320 O 0.50786 0.34253 0.93408 0.0
O321 O 0.43684 0.30891 0.87732 0.0
O322 O 0.46348 0.35311 0.89333 0.0
C323 C 0.50724 0.27894 0.88051 0.0
O324 O 0.48805 0.28841 0.92535 0.0
O325 O 0.44596 0.28048 0.90997 0.0
C326 C 0.5124 0.36845 0.93107 0.0
O327 O 0.52587 0.30325 0.88987 0.0
O328 O 0.4798 0.27053 0.88067 0.0
C329 C 0.47962 0.32594 0.8393 0.0
Fe330 Fe 0.16604 0.46574 0.37986 0.0
Fe331 Fe 0.12997 0.49787 0.37777 0.0
O332 O 0.16043 0.49527 0.38878 0.0
Fe333 Fe 0.18525 0.52249 0.4088 0.0
O334 O 0.21531 0.53343 0.38797 0.0
O335 O 0.20695 0.48843 0.38031 0.0
O336 O 0.16793 0.47584 0.34861 0.0
C337 C 0.14839 0.47847 0.33744 0.0
C338 C 0.18135 0.47006 0.4271 0.0
O339 O 0.12857 0.48082 0.34864 0.0
C340 C 0.13341 0.51467 0.42633 0.0
O341 O 0.12602 0.43821 0.37793 0.0
O342 O 0.10454 0.46274 0.39112 0.0
O343 O 0.19483 0.49789 0.42496 0.0
O344 O 0.16492 0.4535 0.41059 0.0
C345 C 0.17287 0.55569 0.37566 0.0
O346 O 0.1256 0.5153 0.40495 0.0
O347 O 0.15614 0.51278 0.4306 0.0
C348 C 0.10422 0.43875 0.38752 0.0
O349 O 0.15403 0.53363 0.36389 0.0
O350 O 0.18074 0.55258 0.39637 0.0
C351 C 0.22359 0.51638 0.37948 0.0
Fe352 Fe 0.69319 0.16422 0.88735 0.0
Fe353 Fe 0.62548 0.12354 0.88645 0.0
O354 O 0.65741 0.15523 0.89752 0.0
Fe355 Fe 0.65308 0.17769 0.91883 0.0
O356 O 0.66998 0.20917 0.89903 0.0
O357 O 0.70836 0.20468 0.88884 0.0
O358 O 0.68338 0.16617 0.85651 0.0
C359 C 0.66206 0.14547 0.84537 0.0
C360 C 0.70442 0.17764 0.93499 0.0
O361 O 0.64117 0.12428 0.85671 0.0
C362 C 0.61211 0.12385 0.9356 0.0
O363 O 0.68369 0.12512 0.88423 0.0
O364 O 0.63827 0.09992 0.89863 0.0
O365 O 0.68801 0.18901 0.9343 0.0
O366 O 0.70603 0.16327 0.91747 0.0
C367 C 0.60652 0.16333 0.88631 0.0
O368 O 0.60348 0.11649 0.91416 0.0
O369 O 0.63602 0.14733 0.93985 0.0
C370 C 0.66291 0.10204 0.89398 0.0
O371 O 0.61129 0.14607 0.87376 0.0
O372 O 0.61717 0.17069 0.9072 0.0
C373 C 0.69535 0.21976 0.88985 0.0
Fe374 Fe 0.49711 0.63091 0.38275 0.0
Fe375 Fe 0.48443 0.66756 0.41867 0.0
O376 O 0.50571 0.66574 0.39492 0.0
Fe377 Fe 0.53548 0.69906 0.38333 0.0
O378 O 0.53213 0.68519 0.35245 0.0
O379 O 0.49164 0.64164 0.3531 0.0
O380 O 0.45686 0.61384 0.38707 0.0
C381 C 0.44107 0.62578 0.39011 0.0
C382 C 0.55991 0.66349 0.38434 0.0
O383 O 0.45132 0.65045 0.40052 0.0
C384 C 0.53863 0.70989 0.43362 0.0
O385 O 0.50166 0.6171 0.41161 0.0
O386 O 0.47576 0.63224 0.4321 0.0
O387 O 0.56183 0.68741 0.39132 0.0
O388 O 0.53589 0.64232 0.37624 0.0
C389 C 0.49412 0.71575 0.38949 0.0
O390 O 0.51652 0.68489 0.43809 0.0
O391 O 0.54437 0.71923 0.41217 0.0
C392 C 0.48831 0.61698 0.43051 0.0
O393 O 0.4889 0.70327 0.40975 0.0
O394 O 0.51058 0.7126 0.37462 0.0
C395 C 0.51064 0.66391 0.34164 0.0
Fe396 Fe 0.51234 0.18352 0.08319 0.0
Fe397 Fe 0.46106 0.16568 0.11809 0.0
O398 O 0.49056 0.16121 0.1071 0.0
Fe399 Fe 0.49835 0.13483 0.12008 0.0
O400 O 0.53874 0.15698 0.11572 0.0
O401 O 0.54551 0.19914 0.10127 0.0
O402 O 0.50907 0.2156 0.09174 0.0
C403 C 0.50503 0.22318 0.11229 0.0
C404 C 0.50643 0.12788 0.07266 0.0
O405 O 0.48671 0.20404 0.12663 0.0
C406 C 0.43568 0.10549 0.11784 0.0
O407 O 0.48038 0.1692 0.0637 0.0
O408 O 0.45293 0.17703 0.08903 0.0
O409 O 0.49325 0.11552 0.09181 0.0
O410 O 0.51971 0.15567 0.07038 0.0
C411 C 0.48501 0.15555 0.16027 0.0
O412 O 0.4341 0.12753 0.11032 0.0
O413 O 0.45939 0.1084 0.12667 0.0
C414 C 0.45847 0.17251 0.06782 0.0
O415 O 0.46377 0.15535 0.14909 0.0
O416 O 0.50409 0.15197 0.14927 0.0
C417 C 0.55521 0.1845 0.11205 0.0
Fe418 Fe 0.30162 0.46911 0.61792 0.0
Fe419 Fe 0.36974 0.50591 0.61984 0.0
O420 O 0.33554 0.49927 0.60765 0.0
Fe421 Fe 0.33527 0.52293 0.58519 0.0
O422 O 0.29978 0.51909 0.59419 0.0
O423 O 0.28804 0.49361 0.62771 0.0
O424 O 0.31464 0.47057 0.64897 0.0
C425 C 0.33589 0.49137 0.66046 0.0
C426 C 0.29235 0.47024 0.56759 0.0
O427 O 0.35879 0.51045 0.64964 0.0
C428 C 0.38437 0.51687 0.57241 0.0
O429 O 0.31292 0.44268 0.60875 0.0
O430 O 0.35718 0.46673 0.62527 0.0
O431 O 0.31753 0.49259 0.56415 0.0
O432 O 0.28242 0.46249 0.58873 0.0
C433 C 0.37769 0.56335 0.615 0.0
O434 O 0.38326 0.50202 0.59066 0.0
O435 O 0.37056 0.53102 0.57181 0.0
C436 C 0.33629 0.44357 0.61596 0.0
O437 O 0.38834 0.54631 0.61674 0.0
O438 O 0.35302 0.55471 0.60499 0.0
C439 C 0.28572 0.5114 0.61377 0.0
Fe440 Fe 0.86924 0.36902 0.12017 0.0
Fe441 Fe 0.81412 0.33815 0.08905 0.0
O442 O 0.83818 0.33591 0.10999 0.0
Fe443 Fe 0.83131 0.30094 0.12059 0.0
O444 O 0.82962 0.31113 0.15134 0.0
O445 O 0.87003 0.35469 0.15021 0.0
O446 O 0.84591 0.38227 0.13283 0.0
C447 C 0.82796 0.38595 0.12025 0.0
C448 C 0.89317 0.33363 0.11276 0.0
O449 O 0.81991 0.37395 0.09985 0.0
C450 C 0.8165 0.28787 0.07342 0.0
O451 O 0.87445 0.3897 0.09191 0.0
O452 O 0.84353 0.35552 0.06721 0.0
O453 O 0.87103 0.31235 0.12305 0.0
O454 O 0.8938 0.35753 0.10798 0.0
C455 C 0.7743 0.2957 0.11906 0.0
O456 O 0.80364 0.30289 0.07437 0.0
O457 O 0.83222 0.28786 0.09055 0.0
C458 C 0.86644 0.3802 0.07071 0.0
O459 O 0.78362 0.32086 0.10977 0.0
O460 O 0.79048 0.28386 0.11978 0.0
C461 C 0.84981 0.3334 0.162 0.0
Fe462 Fe 0.53862 0.83792 0.61945 0.0
Fe463 Fe 0.49884 0.86597 0.61839 0.0
O464 O 0.50765 0.83929 0.60776 0.0
Fe465 Fe 0.48546 0.81358 0.58567 0.0
O466 O 0.49061 0.78357 0.59714 0.0
O467 O 0.51494 0.80077 0.63098 0.0
O468 O 0.53663 0.85158 0.64945 0.0
C469 C 0.51489 0.85078 0.66029 0.0
C470 C 0.53928 0.82482 0.57007 0.0
O471 O 0.49491 0.85224 0.64874 0.0
C472 C 0.4878 0.86653 0.5706 0.0
O473 O 0.56375 0.87508 0.60869 0.0
O474 O 0.53775 0.8944 0.62326 0.0
O475 O 0.51659 0.82656 0.56542 0.0
O476 O 0.54626 0.8236 0.59165 0.0
C477 C 0.44268 0.81413 0.61357 0.0
O478 O 0.50173 0.88158 0.58868 0.0
O479 O 0.47603 0.83869 0.5704 0.0
C480 C 0.56151 0.89725 0.61453 0.0
O481 O 0.45844 0.84203 0.61538 0.0
O482 O 0.45305 0.7991 0.60451 0.0
C483 C 0.497 0.77945 0.61811 0.0
Fe484 Fe 0.70336 0.53597 0.11966 0.0
Fe485 Fe 0.63552 0.4958 0.11871 0.0
O486 O 0.67119 0.50388 0.10918 0.0
Fe487 Fe 0.67468 0.47987 0.08904 0.0
O488 O 0.69572 0.47225 0.11068 0.0
O489 O 0.72698 0.51885 0.11933 0.0
O490 O 0.69439 0.52352 0.15023 0.0
C491 C 0.67048 0.51722 0.16055 0.0
C492 C 0.71837 0.53647 0.07299 0.0
O493 O 0.64773 0.51211 0.14864 0.0
C494 C 0.62732 0.4806 0.06959 0.0
O495 O 0.68538 0.55858 0.12195 0.0
O496 O 0.64133 0.53024 0.10616 0.0
O497 O 0.70821 0.50887 0.07456 0.0
O498 O 0.71457 0.55057 0.08957 0.0
C499 C 0.6288 0.44055 0.11988 0.0
O500 O 0.617 0.4781 0.09053 0.0
O501 O 0.65354 0.48613 0.06639 0.0
C502 C 0.66252 0.55554 0.11138 0.0
O503 O 0.62725 0.46039 0.13166 0.0
O504 O 0.64203 0.44638 0.09991 0.0
C505 C 0.71953 0.49168 0.12006 0.0
Fe506 Fe 0.16707 0.70234 0.61528 0.0
Fe507 Fe 0.13278 0.63396 0.61462 0.0
O508 O 0.16179 0.66818 0.60394 0.0
Fe509 Fe 0.18565 0.66795 0.5817 0.0
O510 O 0.2167 0.68598 0.60179 0.0
O511 O 0.20798 0.7214 0.61324 0.0
O512 O 0.17098 0.69259 0.64562 0.0
C513 C 0.1527 0.66938 0.65646 0.0
C514 C 0.17936 0.71655 0.56799 0.0
O515 O 0.13307 0.64721 0.64512 0.0
C516 C 0.13328 0.62434 0.56469 0.0
O517 O 0.12708 0.68866 0.61935 0.0
O518 O 0.10557 0.64331 0.60467 0.0
O519 O 0.19377 0.70305 0.56803 0.0
O520 O 0.16374 0.71512 0.5857 0.0
C521 C 0.17611 0.61979 0.61107 0.0
O522 O 0.12695 0.61445 0.58591 0.0
O523 O 0.15531 0.64961 0.56069 0.0
C524 C 0.10479 0.66631 0.61024 0.0
O525 O 0.15858 0.62234 0.62514 0.0
O526 O 0.18244 0.63277 0.591 0.0
C527 C 0.22481 0.71032 0.61216 0.0
H528 H 0.11468 0.56295 0.9234 0.0
H529 H 0.11431 0.55006 0.06605 0.0
H530 H 0.1399 0.63653 0.97133 0.0
H531 H 0.13776 0.49947 0.01883 0.0
H532 H 0.10455 0.57212 0.031 0.0
H533 H 0.10418 0.53024 0.9583 0.0
C534 C 0.11698 0.57191 0.9413 0.0
C535 C 0.12804 0.60225 0.94474 0.0
C536 C 0.11123 0.55572 0.02839 0.0
C537 C 0.1162 0.56543 0.98428 0.0
C538 C 0.1167 0.54304 0.04832 0.0
C539 C 0.12732 0.52327 0.04529 0.0
C540 C 0.11593 0.54818 0.00533 0.0
C541 C 0.13004 0.51498 0.02191 0.0
C542 C 0.11124 0.5534 0.9611 0.0
C543 C 0.13131 0.61314 0.96813 0.0
N544 N 0.12462 0.52768 0.00277 0.0
N545 N 0.12553 0.59474 0.98709 0.0
H546 H 0.63979 0.14313 0.52783 0.0
H547 H 0.5011 0.14354 0.4781 0.0
H548 H 0.56411 0.11948 0.57307 0.0
H549 H 0.55415 0.1215 0.43257 0.0
H550 H 0.52282 0.13361 0.51328 0.0
H551 H 0.60854 0.13408 0.49253 0.0
C552 C 0.61645 0.13549 0.53027 0.0
C553 C 0.60449 0.13222 0.55331 0.0
C554 C 0.52924 0.13036 0.49558 0.0
C555 C 0.56889 0.12251 0.51318 0.0
C556 C 0.51696 0.13613 0.47554 0.0
C557 C 0.5261 0.13362 0.45245 0.0
C558 C 0.55134 0.12279 0.49248 0.0
C559 C 0.54656 0.12377 0.45008 0.0
C560 C 0.59863 0.13025 0.51017 0.0
C561 C 0.57414 0.12221 0.55558 0.0
N562 N 0.559 0.11933 0.46988 0.0
N563 N 0.55747 0.11833 0.53573 0.0
H564 H 0.37398 0.48918 0.97363 0.0
H565 H 0.51291 0.62747 0.02839 0.0
H566 H 0.44677 0.55192 0.93037 0.0
H567 H 0.45077 0.55387 0.07126 0.0
H568 H 0.49372 0.59672 0.99239 0.0
H569 H 0.40533 0.508 0.00932 0.0
C570 C 0.39699 0.50618 0.97161 0.0
C571 C 0.40805 0.51872 0.94909 0.0
C572 C 0.48483 0.5869 0.0097 0.0
C573 C 0.4437 0.54147 0.98991 0.0
C574 C 0.49601 0.6044 0.03025 0.0
C575 C 0.48372 0.59293 0.05275 0.0
C576 C 0.46055 0.55798 0.01163 0.0
C577 C 0.46118 0.56326 0.05422 0.0
C578 C 0.41484 0.51713 0.99198 0.0
C579 C 0.43767 0.54134 0.94742 0.0
N580 N 0.44994 0.54695 0.03389 0.0
N581 N 0.45433 0.55238 0.96762 0.0
H582 H 0.88696 0.44815 0.57609 0.0
H583 H 0.89052 0.43908 0.43316 0.0
H584 H 0.88177 0.51073 0.52896 0.0
H585 H 0.86057 0.36407 0.48049 0.0
H586 H 0.90377 0.47166 0.46823 0.0
H587 H 0.89475 0.42417 0.54121 0.0
C588 C 0.88888 0.45764 0.55845 0.0
C589 C 0.88426 0.48166 0.55528 0.0
C590 C 0.89479 0.44812 0.47087 0.0
C591 C 0.89212 0.45394 0.51542 0.0
C592 C 0.88732 0.42953 0.4509 0.0
C593 C 0.87406 0.39876 0.45393 0.0
C594 C 0.88939 0.43589 0.494 0.0
C595 C 0.87036 0.38761 0.47735 0.0
C596 C 0.89288 0.44374 0.53856 0.0
C597 C 0.8858 0.49254 0.53205 0.0
N598 N 0.8778 0.40612 0.49647 0.0
N599 N 0.88931 0.47842 0.51293 0.0
H600 H 0.4532 0.89885 0.92915 0.0
H601 H 0.44249 0.89247 0.07226 0.0
H602 H 0.50537 0.87605 0.97476 0.0
H603 H 0.37093 0.87813 0.02539 0.0
H604 H 0.47527 0.90512 0.03723 0.0
H605 H 0.43297 0.90995 0.96493 0.0
C606 C 0.46128 0.8974 0.9467 0.0
C607 C 0.48115 0.88691 0.94918 0.0
C608 C 0.45264 0.90011 0.03472 0.0
C609 C 0.45785 0.8989 0.98996 0.0
C610 C 0.43409 0.89322 0.05468 0.0
C611 C 0.4042 0.88462 0.05157 0.0
C612 C 0.44112 0.89842 0.01162 0.0
C613 C 0.394 0.885 0.02842 0.0
C614 C 0.44954 0.90341 0.96707 0.0
C615 C 0.49032 0.88445 0.97224 0.0
N616 N 0.41236 0.89154 0.00928 0.0
N617 N 0.47842 0.89017 0.99179 0.0
H618 H 0.56453 0.45002 0.42899 0.0
H619 H 0.55263 0.43525 0.57119 0.0
H620 H 0.63791 0.50018 0.47693 0.0
H621 H 0.5027 0.36238 0.52272 0.0
H622 H 0.57391 0.46832 0.53673 0.0
H623 H 0.53217 0.42755 0.46373 0.0
C624 C 0.57363 0.45692 0.44682 0.0
C625 C 0.60397 0.4766 0.45022 0.0
C626 C 0.55782 0.4452 0.53374 0.0
C627 C 0.56721 0.45125 0.48969 0.0
C628 C 0.54561 0.42635 0.55333 0.0
C629 C 0.52633 0.39597 0.54969 0.0
C630 C 0.55026 0.43361 0.5105 0.0
C631 C 0.51792 0.38559 0.52621 0.0
C632 C 0.55521 0.444 0.46655 0.0
C633 C 0.61469 0.48473 0.47364 0.0
N634 N 0.53018 0.40438 0.50742 0.0
N635 N 0.59634 0.47179 0.49256 0.0
H636 H 0.86023 0.50002 0.97668 0.0
H637 H 0.8698 0.36628 0.02418 0.0
H638 H 0.8867 0.45185 0.92977 0.0
H639 H 0.88927 0.44018 0.07033 0.0
H640 H 0.87902 0.39813 0.98925 0.0
H641 H 0.87368 0.48039 0.01131 0.0
C642 C 0.86968 0.48591 0.97376 0.0
C643 C 0.87258 0.47757 0.95053 0.0
C644 C 0.88203 0.40759 0.00701 0.0
C645 C 0.88691 0.45417 0.98985 0.0
C646 C 0.87672 0.38942 0.02693 0.0
C647 C 0.87855 0.40059 0.05012 0.0
C648 C 0.88836 0.43687 0.01034 0.0
C649 C 0.88762 0.4307 0.05274 0.0
C650 C 0.87734 0.47471 0.99346 0.0
C651 C 0.88448 0.45894 0.9475 0.0
N652 N 0.89148 0.44764 0.03306 0.0
N653 N 0.8906 0.44726 0.96701 0.0
H654 H 0.44841 0.88595 0.57241 0.0
H655 H 0.43492 0.88413 0.42968 0.0
H656 H 0.50639 0.87411 0.52453 0.0
H657 H 0.36069 0.85606 0.47766 0.0
H658 H 0.4679 0.89753 0.46436 0.0
H659 H 0.42341 0.89263 0.53761 0.0
C660 C 0.45665 0.88608 0.55456 0.0
C661 C 0.47963 0.87991 0.55114 0.0
C662 C 0.44445 0.88889 0.46723 0.0
C663 C 0.451 0.88681 0.51155 0.0
C664 C 0.4256 0.8813 0.44748 0.0
C665 C 0.39492 0.86849 0.4508 0.0
C666 C 0.43261 0.88406 0.49045 0.0
C667 C 0.38414 0.86543 0.4743 0.0
C668 C 0.4422 0.88949 0.53477 0.0
C669 C 0.48898 0.87925 0.52775 0.0
N670 N 0.40295 0.87294 0.49325 0.0
N671 N 0.47448 0.88244 0.50878 0.0
H672 H 0.64087 0.49382 0.02225 0.0
H673 H 0.49878 0.35447 0.97827 0.0
H674 H 0.56734 0.44455 0.07029 0.0
H675 H 0.54882 0.42836 0.93074 0.0
H676 H 0.52272 0.38718 0.01253 0.0
H677 H 0.60746 0.47082 0.9882 0.0
C678 C 0.61762 0.47851 0.02559 0.0
C679 C 0.60689 0.47075 0.04905 0.0
C680 C 0.52795 0.39633 0.9946 0.0
C681 C 0.56884 0.44418 0.01041 0.0
C682 C 0.5144 0.37768 0.9751 0.0
C683 C 0.52214 0.38869 0.95172 0.0
C684 C 0.54987 0.42589 0.99057 0.0
C685 C 0.54233 0.41897 0.94851 0.0
C686 C 0.59857 0.46553 0.00621 0.0
C687 C 0.57654 0.45102 0.05246 0.0
N688 N 0.55605 0.43642 0.96775 0.0
N689 N 0.55865 0.43789 0.03332 0.0
H690 H 0.10916 0.55035 0.42384 0.0
H691 H 0.1059 0.56402 0.56583 0.0
H692 H 0.12958 0.49964 0.47347 0.0
H693 H 0.13166 0.63757 0.51749 0.0
H694 H 0.09464 0.53118 0.53135 0.0
H695 H 0.09775 0.57276 0.45781 0.0
C696 C 0.11042 0.54332 0.44186 0.0
C697 C 0.12071 0.52347 0.446 0.0
C698 C 0.10208 0.55439 0.52837 0.0
C699 C 0.10751 0.5487 0.48458 0.0
C700 C 0.10841 0.57313 0.54798 0.0
C701 C 0.12026 0.60365 0.54444 0.0
C702 C 0.10726 0.56621 0.50516 0.0
C703 C 0.12303 0.61424 0.52094 0.0
C704 C 0.10404 0.55619 0.46115 0.0
C705 C 0.1221 0.51519 0.46963 0.0
N706 N 0.1169 0.59555 0.50211 0.0
N707 N 0.11582 0.52805 0.4881 0.0
H708 H 0.6255 0.11975 0.98208 0.0
H709 H 0.48555 0.11865 0.02732 0.0
H710 H 0.55168 0.09729 0.93495 0.0
H711 H 0.54016 0.10175 0.07518 0.0
H712 H 0.50567 0.10469 0.99336 0.0
H713 H 0.59241 0.10735 0.0165 0.0
C714 C 0.60214 0.11151 0.979 0.0
C715 C 0.59133 0.10987 0.95571 0.0
C716 C 0.51258 0.10304 0.01132 0.0
C717 C 0.55351 0.09633 0.99496 0.0
C718 C 0.50099 0.11088 0.03066 0.0
C719 C 0.51113 0.11102 0.0539 0.0
C720 C 0.53525 0.09642 0.01528 0.0
C721 C 0.53162 0.1015 0.05744 0.0
C722 C 0.58324 0.10436 0.99864 0.0
C723 C 0.5609 0.09894 0.95264 0.0
N724 N 0.5436 0.09524 0.03823 0.0
N725 N 0.54315 0.09329 0.9721 0.0
H726 H 0.44462 0.54965 0.57294 0.0
H727 H 0.45162 0.55727 0.42962 0.0
H728 H 0.37028 0.49751 0.5267 0.0
H729 H 0.50965 0.62927 0.47582 0.0
H730 H 0.43034 0.52549 0.46505 0.0
H731 H 0.47674 0.56895 0.53744 0.0
C732 C 0.43537 0.54141 0.55535 0.0
C733 C 0.40495 0.5218 0.5526 0.0
C734 C 0.44839 0.54797 0.46736 0.0
C735 C 0.44117 0.54397 0.51211 0.0
C736 C 0.46074 0.56593 0.44716 0.0
C737 C 0.48261 0.5957 0.44992 0.0
C738 C 0.45808 0.55994 0.49037 0.0
C739 C 0.49305 0.60627 0.47304 0.0
C740 C 0.45357 0.55261 0.53513 0.0
C741 C 0.39374 0.5124 0.52945 0.0
N742 N 0.48053 0.58849 0.49242 0.0
N743 N 0.41179 0.52372 0.51007 0.0
H744 H 0.25479 0.47968 0.11644 0.0
H745 H 0.40925 0.55649 0.12343 0.0
H746 H 0.26173 0.56364 0.1332 0.0
H747 H 0.39935 0.63379 0.12347 0.0
H748 H 0.35612 0.52562 0.13078 0.0
H749 H 0.30811 0.50195 0.12238 0.0
C750 C 0.2675 0.50262 0.12202 0.0
C751 C 0.25407 0.52005 0.12393 0.0
C752 C 0.36543 0.54927 0.1291 0.0
C753 C 0.315 0.54578 0.13096 0.0
C754 C 0.39589 0.56695 0.12511 0.0
C755 C 0.40857 0.59768 0.12224 0.0
C756 C 0.34774 0.56259 0.13021 0.0
C757 C 0.39041 0.61016 0.12492 0.0
C758 C 0.29805 0.51542 0.12544 0.0
C759 C 0.27139 0.54961 0.13109 0.0
N760 N 0.36098 0.59257 0.12857 0.0
N761 N 0.30096 0.56159 0.13405 0.0
H762 H 0.75904 0.40698 0.6305 0.0
H763 H 0.77058 0.26148 0.62701 0.0
H764 H 0.84245 0.40912 0.62337 0.0
H765 H 0.69122 0.26346 0.64536 0.0
H766 H 0.79909 0.3155 0.63116 0.0
H767 H 0.7353 0.35473 0.64087 0.0
C768 C 0.77236 0.3964 0.63121 0.0
C769 C 0.80259 0.41218 0.62566 0.0
C770 C 0.77554 0.30402 0.63477 0.0
C771 C 0.77559 0.35225 0.63742 0.0
C772 C 0.75931 0.2732 0.63253 0.0
C773 C 0.72845 0.25816 0.63539 0.0
C774 C 0.76067 0.31964 0.63982 0.0
C775 C 0.71491 0.27433 0.64251 0.0
C776 C 0.75887 0.36659 0.63729 0.0
C777 C 0.81899 0.3976 0.62736 0.0
N778 N 0.73103 0.30422 0.64413 0.0
N779 N 0.80516 0.36825 0.63271 0.0
H780 H 0.42731 0.68409 0.11091 0.0
H781 H 0.43239 0.83748 0.125 0.0
H782 H 0.50573 0.76184 0.13613 0.0
H783 H 0.35259 0.75341 0.11437 0.0
H784 H 0.45951 0.81105 0.13261 0.0
H785 H 0.39923 0.70923 0.116 0.0
C786 C 0.43845 0.7064 0.11801 0.0
C787 C 0.46874 0.72092 0.12318 0.0
C788 C 0.43599 0.79847 0.12893 0.0
C789 C 0.43699 0.75056 0.12821 0.0
C790 C 0.42051 0.8135 0.12452 0.0
C791 C 0.39029 0.79763 0.11854 0.0
C792 C 0.42106 0.76744 0.12731 0.0
C793 C 0.37597 0.76663 0.11838 0.0
C794 C 0.42245 0.72087 0.12083 0.0
C795 C 0.48229 0.74992 0.13209 0.0
N796 N 0.39153 0.75264 0.12246 0.0
N797 N 0.46637 0.76412 0.13392 0.0
H798 H 0.74207 0.50895 0.64313 0.0
H799 H 0.59642 0.35266 0.61791 0.0
H800 H 0.7382 0.43451 0.60611 0.0
H801 H 0.59084 0.42902 0.63955 0.0
H802 H 0.64973 0.38057 0.62371 0.0
H803 H 0.68815 0.47881 0.65069 0.0
C804 C 0.73 0.48623 0.63696 0.0
C805 C 0.74443 0.47425 0.62373 0.0
C806 C 0.63699 0.39132 0.62748 0.0
C807 C 0.68353 0.43987 0.63252 0.0
C808 C 0.60651 0.37529 0.62427 0.0
C809 C 0.58938 0.38868 0.62806 0.0
C810 C 0.65076 0.42134 0.63399 0.0
C811 C 0.60345 0.418 0.63645 0.0
C812 C 0.69935 0.46913 0.64119 0.0
C813 C 0.72791 0.44476 0.6161 0.0
N814 N 0.63356 0.43366 0.63873 0.0
N815 N 0.69852 0.42874 0.62055 0.0
H816 H 0.23933 0.59367 0.1129 0.0
H817 H 0.23541 0.74243 0.14013 0.0
H818 H 0.15858 0.59029 0.13518 0.0
H819 H 0.30009 0.73492 0.09716 0.0
H820 H 0.21016 0.68836 0.14747 0.0
H821 H 0.26572 0.64711 0.11782 0.0
C822 C 0.22726 0.60427 0.11922 0.0
C823 C 0.19676 0.5877 0.12341 0.0
C824 C 0.23004 0.6988 0.13664 0.0
C825 C 0.22667 0.64923 0.12839 0.0
C826 C 0.24443 0.72952 0.13251 0.0
C827 C 0.26965 0.74304 0.11779 0.0
C828 C 0.24154 0.68199 0.12642 0.0
C829 C 0.2805 0.72542 0.10835 0.0
C830 C 0.24229 0.63482 0.12191 0.0
C831 C 0.18217 0.60245 0.13176 0.0
N832 N 0.26645 0.696 0.11282 0.0
N833 N 0.1972 0.63262 0.13359 0.0
H834 H 0.63339 0.22678 0.65236 0.0
H835 H 0.48234 0.22201 0.61789 0.0
H836 H 0.55975 0.15148 0.61908 0.0
H837 H 0.56313 0.30027 0.63904 0.0
H838 H 0.50527 0.19195 0.6276 0.0
H839 H 0.60266 0.24965 0.65756 0.0
C840 C 0.6104 0.21475 0.64684 0.0
C841 C 0.59882 0.18726 0.63553 0.0
C842 C 0.51774 0.21566 0.63047 0.0
C843 C 0.56386 0.21351 0.64049 0.0
C844 C 0.50464 0.23274 0.62503 0.0
C845 C 0.5211 0.26365 0.6273 0.0
C846 C 0.54729 0.22968 0.63844 0.0
C847 C 0.54989 0.27653 0.63661 0.0
C848 C 0.59291 0.22783 0.6496 0.0
C849 C 0.56917 0.17263 0.62817 0.0
N850 N 0.56212 0.25955 0.64164 0.0
N851 N 0.55272 0.18612 0.63048 0.0
H852 H 0.43961 0.5968 0.87826 0.0
H853 H 0.42756 0.74275 0.87732 0.0
H854 H 0.35794 0.59878 0.88126 0.0
H855 H 0.51098 0.74528 0.87006 0.0
H856 H 0.40167 0.68933 0.87203 0.0
H857 H 0.46624 0.65009 0.86938 0.0
C858 C 0.42726 0.60835 0.8768 0.0
C859 C 0.39662 0.59352 0.88103 0.0
C860 C 0.42563 0.7014 0.87117 0.0
C861 C 0.42674 0.6541 0.87076 0.0
C862 C 0.44034 0.73192 0.87406 0.0
C863 C 0.47126 0.74815 0.87406 0.0
C864 C 0.44201 0.68682 0.869 0.0
C865 C 0.48701 0.73331 0.86998 0.0
C866 C 0.44245 0.63871 0.87171 0.0
C867 C 0.38165 0.60944 0.87872 0.0
N868 N 0.47217 0.70323 0.86805 0.0
N869 N 0.39688 0.63882 0.87395 0.0
H870 H 0.69182 0.42989 0.36303 0.0
H871 H 0.84846 0.43712 0.36541 0.0
H872 H 0.77311 0.51115 0.3776 0.0
H873 H 0.76382 0.35983 0.3796 0.0
H874 H 0.82295 0.46541 0.35736 0.0
H875 H 0.72021 0.40534 0.35526 0.0
C876 C 0.71573 0.44267 0.36431 0.0
C877 C 0.73011 0.47239 0.37152 0.0
C878 C 0.81006 0.44208 0.36171 0.0
C879 C 0.76275 0.44428 0.36289 0.0
C880 C 0.82452 0.42599 0.36614 0.0
C881 C 0.80803 0.39622 0.37312 0.0
C882 C 0.77908 0.4279 0.36386 0.0
C883 C 0.77719 0.38274 0.3742 0.0
C884 C 0.73192 0.42864 0.35986 0.0
C885 C 0.7612 0.48807 0.37235 0.0
N886 N 0.76373 0.39867 0.36968 0.0
N887 N 0.77657 0.47365 0.36854 0.0
H888 H 0.25567 0.70875 0.84897 0.0
H889 H 0.40882 0.85346 0.88276 0.0
H890 H 0.26078 0.78066 0.89063 0.0
H891 H 0.39937 0.76781 0.86871 0.0
H892 H 0.35582 0.83264 0.87456 0.0
H893 H 0.30973 0.73646 0.84437 0.0
C894 C 0.26819 0.7309 0.85634 0.0
C895 C 0.25407 0.74281 0.86987 0.0
C896 C 0.36552 0.81858 0.87299 0.0
C897 C 0.31549 0.77413 0.86529 0.0
C898 C 0.3957 0.83041 0.8776 0.0
C899 C 0.40835 0.81218 0.87673 0.0
C900 C 0.34809 0.78848 0.86708 0.0
C901 C 0.39037 0.78249 0.86996 0.0
C902 C 0.29895 0.74652 0.85397 0.0
C903 C 0.27108 0.7711 0.87977 0.0
N904 N 0.36113 0.77153 0.86547 0.0
N905 N 0.30104 0.78581 0.87743 0.0
H906 H 0.63614 0.40934 0.35299 0.0
H907 H 0.48382 0.26143 0.38283 0.0
H908 H 0.56276 0.40926 0.38836 0.0
H909 H 0.5638 0.264 0.35924 0.0
H910 H 0.50775 0.31517 0.37614 0.0
H911 H 0.60534 0.35593 0.34626 0.0
C912 C 0.61325 0.39804 0.35879 0.0
C913 C 0.60174 0.4134 0.37106 0.0
C914 C 0.51982 0.30382 0.37203 0.0
C915 C 0.56659 0.35244 0.36407 0.0
C916 C 0.50611 0.27318 0.37567 0.0
C917 C 0.52203 0.25843 0.37183 0.0
C918 C 0.54948 0.31956 0.36431 0.0
C919 C 0.55091 0.27466 0.36273 0.0
C920 C 0.59571 0.3676 0.3551 0.0
C921 C 0.57217 0.39796 0.37863 0.0
N922 N 0.56377 0.30433 0.35949 0.0
N923 N 0.55562 0.36818 0.37523 0.0
H924 H 0.25365 0.65525 0.8835 0.0
H925 H 0.24434 0.49974 0.85798 0.0
H926 H 0.17116 0.57695 0.86512 0.0
H927 H 0.3091 0.56911 0.90312 0.0
H928 H 0.22139 0.53057 0.85057 0.0
H929 H 0.27884 0.62676 0.87973 0.0
C930 C 0.24084 0.63214 0.87844 0.0
C931 C 0.2101 0.61834 0.87515 0.0
C932 C 0.24082 0.53898 0.86187 0.0
C933 C 0.23892 0.58556 0.87081 0.0
C934 C 0.25389 0.5215 0.86604 0.0
C935 C 0.27838 0.53181 0.8814 0.0
C936 C 0.25296 0.56704 0.87268 0.0
C937 C 0.29001 0.56015 0.8914 0.0
C938 C 0.25525 0.61587 0.87631 0.0
C939 C 0.19482 0.58839 0.86818 0.0
N940 N 0.27724 0.57671 0.88687 0.0
N941 N 0.20934 0.57285 0.8665 0.0
H942 H 0.58892 0.15651 0.36726 0.0
H943 H 0.74136 0.31035 0.36302 0.0
H944 H 0.59813 0.24255 0.37795 0.0
H945 H 0.73803 0.22891 0.38311 0.0
H946 H 0.68833 0.28296 0.35526 0.0
H947 H 0.64295 0.18048 0.361 0.0
C948 C 0.60226 0.18044 0.36767 0.0
C949 C 0.58938 0.19774 0.37315 0.0
C950 C 0.6992 0.27097 0.36108 0.0
C951 C 0.65037 0.22498 0.36589 0.0
C952 C 0.72945 0.28659 0.36556 0.0
C953 C 0.7439 0.27196 0.37432 0.0
C954 C 0.68311 0.24043 0.3655 0.0
C955 C 0.72759 0.24102 0.3766 0.0
C956 C 0.63294 0.19401 0.36427 0.0
C957 C 0.6074 0.22854 0.37384 0.0
N958 N 0.69779 0.22623 0.37262 0.0
N959 N 0.63697 0.24117 0.3703 0.0
H960 H 0.58891 0.41145 0.91557 0.0
H961 H 0.74102 0.47242 0.84507 0.0
H962 H 0.59136 0.38673 0.84228 0.0
H963 H 0.73142 0.49987 0.91573 0.0
H964 H 0.68667 0.44612 0.84048 0.0
H965 H 0.64092 0.44871 0.9131 0.0
C966 C 0.60054 0.41408 0.89884 0.0
C967 C 0.58605 0.39585 0.87919 0.0
C968 C 0.69656 0.45847 0.85674 0.0
C969 C 0.64614 0.43835 0.87623 0.0
C970 C 0.72751 0.47363 0.85927 0.0
C971 C 0.7405 0.48806 0.88087 0.0
C972 C 0.67887 0.45799 0.87597 0.0
C973 C 0.72218 0.48874 0.89888 0.0
C974 C 0.63029 0.43544 0.89738 0.0
C975 C 0.60195 0.40038 0.85783 0.0
N976 N 0.69239 0.47371 0.8961 0.0
N977 N 0.63143 0.42093 0.857 0.0
H978 H 0.22197 0.73922 0.38055 0.0
H979 H 0.22099 0.58909 0.34818 0.0
H980 H 0.29947 0.7334 0.36314 0.0
H981 H 0.14979 0.59101 0.38559 0.0
H982 H 0.24533 0.6429 0.34278 0.0
H983 H 0.191 0.68593 0.37217 0.0
C984 C 0.23237 0.72687 0.37448 0.0
C985 C 0.26329 0.74054 0.37281 0.0
C986 C 0.22403 0.63151 0.35168 0.0
C987 C 0.22823 0.68001 0.36314 0.0
C988 C 0.21009 0.60085 0.35455 0.0
C989 C 0.18336 0.58588 0.36708 0.0
C990 C 0.2112 0.64722 0.36166 0.0
C991 C 0.17029 0.60196 0.37555 0.0
C992 C 0.21475 0.69651 0.36982 0.0
C993 C 0.27571 0.72357 0.36497 0.0
N994 N 0.18449 0.6319 0.37289 0.0
N995 N 0.25818 0.69421 0.36058 0.0
H996 H 0.47649 0.21856 0.88389 0.0
H997 H 0.61621 0.20163 0.84997 0.0
H998 H 0.56087 0.29192 0.86231 0.0
H999 H 0.55297 0.1495 0.90448 0.0
H1000 H 0.58785 0.22685 0.84202 0.0
H1001 H 0.49665 0.18526 0.87898 0.0
C1002 C 0.49901 0.22751 0.87756 0.0
C1003 C 0.51722 0.25802 0.87374 0.0
C1004 C 0.57983 0.20935 0.85528 0.0
C1005 C 0.54012 0.2202 0.86792 0.0
C1006 C 0.59581 0.19489 0.85966 0.0
C1007 C 0.58663 0.17354 0.87777 0.0
C1008 C 0.55445 0.20197 0.86894 0.0
C1009 C 0.5605 0.16585 0.89029 0.0
C1010 C 0.51048 0.20857 0.87489 0.0
C1011 C 0.54628 0.26855 0.86571 0.0
N1012 N 0.5453 0.18016 0.8857 0.0
N1013 N 0.55692 0.24968 0.86317 0.0
H1014 H 0.25729 0.56928 0.35776 0.0
H1015 H 0.40392 0.64806 0.38628 0.0
H1016 H 0.26109 0.4943 0.38601 0.0
H1017 H 0.40623 0.56687 0.37859 0.0
H1018 H 0.35131 0.62117 0.37769 0.0
H1019 H 0.31103 0.59626 0.35405 0.0
C1020 C 0.26955 0.55846 0.363 0.0
C1021 C 0.25492 0.52981 0.37262 0.0
C1022 C 0.3633 0.60923 0.37718 0.0
C1023 C 0.31651 0.56106 0.3697 0.0
C1024 C 0.39339 0.62458 0.38247 0.0
C1025 C 0.40949 0.60968 0.38327 0.0
C1026 C 0.34903 0.57864 0.37265 0.0
C1027 C 0.39463 0.57922 0.37813 0.0
C1028 C 0.30025 0.574 0.3612 0.0
C1029 C 0.27166 0.51649 0.37867 0.0
N1030 N 0.36508 0.56459 0.37335 0.0
N1031 N 0.30175 0.53246 0.37749 0.0
H1032 H 0.7425 0.40213 0.88769 0.0
H1033 H 0.75473 0.25587 0.88045 0.0
H1034 H 0.82536 0.40361 0.87795 0.0
H1035 H 0.67221 0.25615 0.88485 0.0
H1036 H 0.78088 0.30973 0.8753 0.0
H1037 H 0.71622 0.34852 0.88269 0.0
C1038 C 0.75518 0.3912 0.88435 0.0
C1039 C 0.78621 0.40736 0.88357 0.0
C1040 C 0.75702 0.29792 0.87713 0.0
C1041 C 0.75623 0.34585 0.87794 0.0
C1042 C 0.74208 0.26718 0.88002 0.0
C1043 C 0.7113 0.25154 0.8835 0.0
C1044 C 0.74103 0.31305 0.87776 0.0
C1045 C 0.69602 0.26733 0.88266 0.0
C1046 C 0.74015 0.36056 0.88144 0.0
C1047 C 0.80143 0.39202 0.87887 0.0
N1048 N 0.71106 0.29718 0.88013 0.0
N1049 N 0.7863 0.36207 0.87651 0.0
H1050 H 0.42164 0.83147 0.35141 0.0
H1051 H 0.47442 0.73992 0.42231 0.0
H1052 H 0.36414 0.75972 0.39837 0.0
H1053 H 0.48497 0.73567 0.34588 0.0
H1054 H 0.44604 0.76444 0.4152 0.0
H1055 H 0.45467 0.81019 0.34892 0.0
C1056 C 0.41564 0.81101 0.36072 0.0
C1057 C 0.3905 0.79767 0.37558 0.0
C1058 C 0.45488 0.75845 0.4 0.0
C1059 C 0.42785 0.77385 0.37295 0.0
C1060 C 0.47108 0.74443 0.40397 0.0
C1061 C 0.4816 0.73515 0.38462 0.0
C1062 C 0.44915 0.76353 0.37653 0.0
C1063 C 0.47702 0.74229 0.36127 0.0
C1064 C 0.43443 0.79899 0.35927 0.0
C1065 C 0.38366 0.77117 0.38721 0.0
N1066 N 0.46071 0.75587 0.35777 0.0
N1067 N 0.40249 0.76049 0.38601 0.0
H1068 H 0.4918 0.2564 0.14369 0.0
H1069 H 0.6476 0.40126 0.11599 0.0
H1070 H 0.55948 0.26182 0.09603 0.0
H1071 H 0.57302 0.40866 0.13999 0.0
H1072 H 0.61808 0.34771 0.11985 0.0
H1073 H 0.52318 0.31007 0.15184 0.0
C1074 C 0.51324 0.26877 0.13513 0.0
C1075 C 0.52293 0.25479 0.11892 0.0
C1076 C 0.60813 0.36094 0.12456 0.0
C1077 C 0.55882 0.3153 0.12854 0.0
C1078 C 0.62504 0.39152 0.12246 0.0
C1079 C 0.61255 0.40925 0.12736 0.0
C1080 C 0.57824 0.34777 0.13126 0.0
C1081 C 0.58334 0.3956 0.13598 0.0
C1082 C 0.53103 0.29925 0.13975 0.0
C1083 C 0.55089 0.2717 0.10836 0.0
N1084 N 0.56686 0.36544 0.13727 0.0
N1085 N 0.56773 0.30088 0.11338 0.0
H1086 H 0.24466 0.50553 0.58177 0.0
H1087 H 0.1952 0.60684 0.65321 0.0
H1088 H 0.27481 0.53586 0.65363 0.0
H1089 H 0.17841 0.58284 0.57856 0.0
H1090 H 0.21684 0.57433 0.65726 0.0
H1091 H 0.21188 0.52598 0.58414 0.0
C1092 C 0.24402 0.51625 0.59822 0.0
C1093 C 0.26254 0.51928 0.61745 0.0
C1094 C 0.20802 0.57596 0.64013 0.0
C1095 C 0.22557 0.54366 0.62016 0.0
C1096 C 0.1956 0.59433 0.63786 0.0
C1097 C 0.18538 0.59771 0.61546 0.0
C1098 C 0.20971 0.56072 0.6199 0.0
C1099 C 0.18645 0.58121 0.59607 0.0
C1100 C 0.22536 0.52804 0.59957 0.0
C1101 C 0.26075 0.53313 0.63844 0.0
N1102 N 0.19847 0.56363 0.59873 0.0
N1103 N 0.2429 0.54533 0.63913 0.0
H1104 H 0.73765 0.31711 0.12953 0.0
H1105 H 0.58952 0.15936 0.12198 0.0
H1106 H 0.73847 0.23515 0.12219 0.0
H1107 H 0.59328 0.24373 0.11652 0.0
H1108 H 0.64314 0.1855 0.12925 0.0
H1109 H 0.68395 0.28916 0.13279 0.0
C1110 C 0.72651 0.29315 0.12888 0.0
C1111 C 0.74252 0.27845 0.12521 0.0
C1112 C 0.63211 0.19821 0.12665 0.0
C1113 C 0.68081 0.24621 0.12866 0.0
C1114 C 0.60154 0.18334 0.12255 0.0
C1115 C 0.58699 0.19942 0.11832 0.0
C1116 C 0.64806 0.22931 0.12677 0.0
C1117 C 0.60363 0.23043 0.11931 0.0
C1118 C 0.6958 0.27718 0.13069 0.0
C1119 C 0.72695 0.24735 0.12489 0.0
N1120 N 0.63322 0.24431 0.12332 0.0
N1121 N 0.69683 0.23222 0.12624 0.0
H1122 H 0.44293 0.749 0.6379 0.0
H1123 H 0.43719 0.59379 0.62427 0.0
H1124 H 0.51803 0.74109 0.61669 0.0
H1125 H 0.36035 0.6045 0.62126 0.0
H1126 H 0.46811 0.64684 0.63202 0.0
H1127 H 0.41385 0.69517 0.64305 0.0
C1128 C 0.45343 0.73584 0.63501 0.0
C1129 C 0.48273 0.7491 0.62702 0.0
C1130 C 0.44445 0.63747 0.62989 0.0
C1131 C 0.44978 0.68792 0.63234 0.0
C1132 C 0.42676 0.60722 0.6255 0.0
C1133 C 0.39618 0.59479 0.62177 0.0
C1134 C 0.43142 0.65534 0.63083 0.0
C1135 C 0.38387 0.61324 0.62367 0.0
C1136 C 0.43686 0.70523 0.63777 0.0
C1137 C 0.4955 0.73142 0.62315 0.0
N1138 N 0.40157 0.64264 0.62796 0.0
N1139 N 0.47881 0.70154 0.62565 0.0
H1140 H 0.79487 0.38359 0.15875 0.0
H1141 H 0.77954 0.52085 0.11361 0.0
H1142 H 0.84079 0.43654 0.09716 0.0
H1143 H 0.7072 0.44142 0.1438 0.0
H1144 H 0.81223 0.5001 0.1199 0.0
H1145 H 0.77279 0.41515 0.16544 0.0
C1146 C 0.80092 0.40241 0.14713 0.0
C1147 C 0.81945 0.40766 0.1274 0.0
C1148 C 0.78935 0.48761 0.12564 0.0
C1149 C 0.79478 0.44356 0.13491 0.0
C1150 C 0.7708 0.49945 0.12218 0.0
C1151 C 0.74069 0.48259 0.12799 0.0
C1152 C 0.7777 0.4591 0.13538 0.0
C1153 C 0.73029 0.45489 0.13887 0.0
C1154 C 0.7883 0.42023 0.15085 0.0
C1155 C 0.82646 0.43194 0.11254 0.0
N1156 N 0.74874 0.44388 0.14209 0.0
N1157 N 0.814 0.44899 0.11653 0.0
H1158 H 0.40437 0.75478 0.61628 0.0
H1159 H 0.2556 0.68836 0.63443 0.0
H1160 H 0.40806 0.83898 0.62353 0.0
H1161 H 0.26407 0.77001 0.60827 0.0
H1162 H 0.30873 0.71368 0.64169 0.0
H1163 H 0.35135 0.72977 0.62185 0.0
C1164 C 0.39407 0.76805 0.61954 0.0
C1165 C 0.41077 0.79905 0.61942 0.0
C1166 C 0.29919 0.72613 0.63413 0.0
C1167 C 0.3495 0.77033 0.62644 0.0
C1168 C 0.2688 0.71175 0.63029 0.0
C1169 C 0.25571 0.72707 0.62033 0.0
C1170 C 0.3168 0.75587 0.6272 0.0
C1171 C 0.27352 0.75745 0.61581 0.0
C1172 C 0.36363 0.75367 0.62303 0.0
C1173 C 0.39604 0.81501 0.62355 0.0
N1174 N 0.30338 0.77083 0.61889 0.0
N1175 N 0.36613 0.80045 0.62656 0.0
H1176 H 0.11096 0.48757 0.18724 0.0
H1177 H 0.18581 0.47131 0.30731 0.0
H1178 H 0.1849 0.47205 0.18833 0.0
H1179 H 0.11 0.48384 0.30704 0.0
H1180 H 0.18549 0.47132 0.26362 0.0
H1181 H 0.11005 0.48628 0.23106 0.0
C1182 C 0.12699 0.48388 0.19665 0.0
C1183 C 0.14801 0.47988 0.18403 0.0
C1184 C 0.16886 0.47399 0.2731 0.0
C1185 C 0.14709 0.4784 0.23419 0.0
C1186 C 0.16902 0.47396 0.29809 0.0
C1187 C 0.14788 0.47754 0.31092 0.0
C1188 C 0.14747 0.47772 0.26076 0.0
C1189 C 0.1267 0.48095 0.29793 0.0
C1190 C 0.12643 0.48312 0.22168 0.0
C1191 C 0.16823 0.47519 0.19724 0.0
N1192 N 0.12708 0.48101 0.27357 0.0
N1193 N 0.16727 0.47461 0.22155 0.0
H1194 H 0.62022 0.10462 0.81476 0.0
H1195 H 0.71202 0.18614 0.69648 0.0
H1196 H 0.70513 0.18514 0.81518 0.0
H1197 H 0.62449 0.10912 0.69438 0.0
H1198 H 0.71032 0.18453 0.74005 0.0
H1199 H 0.62176 0.10452 0.77091 0.0
C1200 C 0.63921 0.12226 0.80568 0.0
C1201 C 0.6626 0.14492 0.81877 0.0
C1202 C 0.69147 0.16791 0.73012 0.0
C1203 C 0.66448 0.14488 0.7685 0.0
C1204 C 0.69243 0.16876 0.70515 0.0
C1205 C 0.66835 0.1477 0.69162 0.0
C1206 C 0.66624 0.14584 0.74186 0.0
C1207 C 0.64359 0.1258 0.70402 0.0
C1208 C 0.64005 0.12218 0.78062 0.0
C1209 C 0.68658 0.16719 0.80594 0.0
N1210 N 0.64316 0.12546 0.72843 0.0
N1211 N 0.68689 0.16658 0.78159 0.0
H1212 H 0.54947 0.70611 0.19085 0.0
H1213 H 0.46977 0.62069 0.31199 0.0
H1214 H 0.47232 0.61865 0.19221 0.0
H1215 H 0.54881 0.70678 0.31041 0.0
H1216 H 0.46931 0.62023 0.2682 0.0
H1217 H 0.54859 0.70731 0.23456 0.0
C1218 C 0.53231 0.68713 0.2003 0.0
C1219 C 0.511 0.66217 0.18772 0.0
C1220 C 0.48673 0.63924 0.27742 0.0
C1221 C 0.50985 0.66347 0.238 0.0
C1222 C 0.487 0.63956 0.30248 0.0
C1223 C 0.50944 0.66378 0.31501 0.0
C1224 C 0.50902 0.66334 0.26469 0.0
C1225 C 0.53111 0.68758 0.30159 0.0
C1226 C 0.53183 0.68785 0.22532 0.0
C1227 C 0.48928 0.63832 0.20107 0.0
N1228 N 0.53038 0.68672 0.27722 0.0
N1229 N 0.4893 0.63956 0.22544 0.0
H1230 H 0.84121 0.5541 0.69153 0.0
H1231 H 0.83959 0.46894 0.81144 0.0
H1232 H 0.846 0.4738 0.69225 0.0
H1233 H 0.83927 0.55159 0.81093 0.0
H1234 H 0.83986 0.46929 0.7677 0.0
H1235 H 0.83849 0.55253 0.73524 0.0
C1236 C 0.84168 0.53612 0.70085 0.0
C1237 C 0.84399 0.51413 0.68816 0.0
C1238 C 0.83969 0.48733 0.77716 0.0
C1239 C 0.84083 0.51218 0.73824 0.0
C1240 C 0.83952 0.48715 0.80216 0.0
C1241 C 0.83957 0.51036 0.81493 0.0
C1242 C 0.83986 0.51086 0.76479 0.0
C1243 C 0.83937 0.53329 0.80188 0.0
C1244 C 0.84013 0.53525 0.72582 0.0
C1245 C 0.8444 0.49133 0.70125 0.0
N1246 N 0.83958 0.53298 0.77754 0.0
N1247 N 0.84287 0.49098 0.72555 0.0
H1248 H 0.37894 0.87038 0.30915 0.0
H1249 H 0.28545 0.82742 0.1877 0.0
H1250 H 0.28352 0.81801 0.30724 0.0
H1251 H 0.37882 0.85655 0.18975 0.0
H1252 H 0.28468 0.82743 0.2315 0.0
H1253 H 0.37974 0.8694 0.26532 0.0
C1254 C 0.35815 0.85877 0.29954 0.0
C1255 C 0.33111 0.84431 0.31193 0.0
C1256 C 0.30531 0.83372 0.22236 0.0
C1257 C 0.3319 0.84315 0.26176 0.0
C1258 C 0.30579 0.83379 0.19735 0.0
C1259 C 0.33225 0.84204 0.185 0.0
C1260 C 0.33154 0.84229 0.23518 0.0
C1261 C 0.3579 0.84996 0.19849 0.0
C1262 C 0.35865 0.8581 0.27452 0.0
C1263 C 0.30488 0.82944 0.29848 0.0
N1264 N 0.35694 0.85007 0.22284 0.0
N1265 N 0.30593 0.82937 0.27415 0.0
H1266 H 0.47117 0.28231 0.68957 0.0
H1267 H 0.48879 0.37228 0.81031 0.0
H1268 H 0.48988 0.37289 0.69042 0.0
H1269 H 0.47065 0.28191 0.80802 0.0
H1270 H 0.48892 0.37315 0.76651 0.0
H1271 H 0.47048 0.28199 0.73313 0.0
C1272 C 0.47508 0.30215 0.6989 0.0
C1273 C 0.48054 0.32767 0.68629 0.0
C1274 C 0.48489 0.35315 0.77563 0.0
C1275 C 0.47986 0.32745 0.73632 0.0
C1276 C 0.4848 0.35262 0.80063 0.0
C1277 C 0.47965 0.32696 0.81287 0.0
C1278 C 0.47981 0.32786 0.76282 0.0
C1279 C 0.47467 0.30217 0.79938 0.0
C1280 C 0.4747 0.30195 0.72383 0.0
C1281 C 0.48554 0.35272 0.69941 0.0
N1282 N 0.47488 0.30326 0.77511 0.0
N1283 N 0.48509 0.35199 0.72375 0.0
H1284 H 0.55302 0.84818 0.81112 0.0
H1285 H 0.47335 0.85206 0.68959 0.0
H1286 H 0.47428 0.85572 0.80907 0.0
H1287 H 0.55464 0.8492 0.69162 0.0
H1288 H 0.47274 0.85232 0.73332 0.0
H1289 H 0.55337 0.84747 0.7674 0.0
C1290 C 0.53579 0.84971 0.8015 0.0
C1291 C 0.51362 0.8521 0.81386 0.0
C1292 C 0.49072 0.85165 0.72421 0.0
C1293 C 0.51389 0.85122 0.76366 0.0
C1294 C 0.49109 0.85149 0.6992 0.0
C1295 C 0.51414 0.8507 0.68684 0.0
C1296 C 0.51351 0.85093 0.73704 0.0
C1297 C 0.53646 0.8499 0.70034 0.0
C1298 C 0.53602 0.8493 0.7765 0.0
C1299 C 0.49187 0.85394 0.80035 0.0
N1300 N 0.53559 0.85004 0.72468 0.0
N1301 N 0.49256 0.85345 0.77601 0.0
H1302 H 0.62451 0.5088 0.1897 0.0
H1303 H 0.71626 0.52829 0.3096 0.0
H1304 H 0.71507 0.52747 0.19153 0.0
H1305 H 0.6268 0.51292 0.3097 0.0
H1306 H 0.71577 0.5282 0.26611 0.0
H1307 H 0.62444 0.51022 0.23351 0.0
C1308 C 0.64437 0.51323 0.19929 0.0
C1309 C 0.66986 0.51806 0.18693 0.0
C1310 C 0.69623 0.52491 0.27559 0.0
C1311 C 0.66988 0.51967 0.23691 0.0
C1312 C 0.69649 0.52496 0.30048 0.0
C1313 C 0.67151 0.52062 0.31333 0.0
C1314 C 0.6708 0.52038 0.26336 0.0
C1315 C 0.64656 0.5164 0.30049 0.0
C1316 C 0.64431 0.51405 0.22427 0.0
C1317 C 0.69494 0.52367 0.20026 0.0
N1318 N 0.6468 0.51632 0.27614 0.0
N1319 N 0.69428 0.52429 0.2245 0.0
H1320 H 0.16514 0.71431 0.80673 0.0
H1321 H 0.12606 0.62099 0.6858 0.0
H1322 H 0.14158 0.62232 0.80507 0.0
H1323 H 0.1797 0.71633 0.68738 0.0
H1324 H 0.12633 0.62045 0.72963 0.0
H1325 H 0.16538 0.71488 0.7629 0.0
C1326 C 0.15994 0.69421 0.79715 0.0
C1327 C 0.15329 0.66821 0.80957 0.0
C1328 C 0.13808 0.64146 0.72035 0.0
C1329 C 0.15339 0.66871 0.7595 0.0
C1330 C 0.13784 0.64181 0.69536 0.0
C1331 C 0.15286 0.66875 0.68292 0.0
C1332 C 0.15308 0.66826 0.73299 0.0
C1333 C 0.1679 0.69505 0.69623 0.0
C1334 C 0.16022 0.69461 0.77216 0.0
C1335 C 0.1469 0.64287 0.79623 0.0
N1336 N 0.16748 0.69416 0.72056 0.0
N1337 N 0.14693 0.6437 0.7719 0.0
H1338 H 0.50341 0.12541 0.31039 0.0
H1339 H 0.45312 0.17077 0.18999 0.0
H1340 H 0.46093 0.17832 0.30914 0.0
H1341 H 0.5172 0.1414 0.19092 0.0
H1342 H 0.45207 0.16949 0.23374 0.0
H1343 H 0.50469 0.12645 0.26648 0.0
C1344 C 0.49422 0.13709 0.30091 0.0
C1345 C 0.48205 0.15179 0.31347 0.0
C1346 C 0.46644 0.16342 0.22437 0.0
C1347 C 0.48345 0.15305 0.26336 0.0
C1348 C 0.46702 0.16411 0.19939 0.0
C1349 C 0.48527 0.15618 0.18676 0.0
C1350 C 0.48397 0.15442 0.23685 0.0
C1351 C 0.50287 0.1478 0.19991 0.0
C1352 C 0.49511 0.13781 0.27588 0.0
C1353 C 0.47061 0.16673 0.30024 0.0
N1354 N 0.50166 0.14697 0.22425 0.0
N1355 N 0.47152 0.1669 0.27594 0.0
H1356 H 0.29215 0.4523 0.69078 0.0
H1357 H 0.38124 0.53269 0.81064 0.0
H1358 H 0.37814 0.53149 0.69107 0.0
H1359 H 0.29507 0.45373 0.81061 0.0
H1360 H 0.37999 0.53312 0.76687 0.0
H1361 H 0.2923 0.45298 0.73461 0.0
C1362 C 0.31105 0.46987 0.70001 0.0
C1363 C 0.33522 0.4918 0.68711 0.0
C1364 C 0.36133 0.51571 0.77643 0.0
C1365 C 0.33553 0.49269 0.73744 0.0
C1366 C 0.36202 0.51545 0.80148 0.0
C1367 C 0.33827 0.49307 0.81444 0.0
C1368 C 0.33671 0.49345 0.76413 0.0
C1369 C 0.31394 0.47139 0.80146 0.0
C1370 C 0.31112 0.47023 0.72508 0.0
C1371 C 0.35904 0.51403 0.70017 0.0
N1372 N 0.31383 0.4721 0.77708 0.0
N1373 N 0.3586 0.51386 0.72454 0.0
H1374 H 0.89023 0.37687 0.19188 0.0
H1375 H 0.81206 0.2873 0.31197 0.0
H1376 H 0.8116 0.29046 0.19301 0.0
H1377 H 0.88874 0.37511 0.31226 0.0
H1378 H 0.81258 0.28796 0.26832 0.0
H1379 H 0.89097 0.37654 0.23575 0.0
C1380 C 0.87314 0.35781 0.2013 0.0
C1381 C 0.85083 0.33363 0.18863 0.0
C1382 C 0.82935 0.3071 0.27788 0.0
C1383 C 0.85158 0.33315 0.23895 0.0
C1384 C 0.8291 0.30674 0.30289 0.0
C1385 C 0.85043 0.33119 0.31594 0.0
C1386 C 0.85106 0.33209 0.26563 0.0
C1387 C 0.87187 0.35574 0.30302 0.0
C1388 C 0.87358 0.35766 0.22638 0.0
C1389 C 0.82927 0.3096 0.20191 0.0
N1390 N 0.87163 0.35557 0.27861 0.0
N1391 N 0.8302 0.30999 0.22626 0.0
H1392 H 0.92257 0.34348 0.07114 0.0
H1393 H 0.07408 0.39275 0.13935 0.0
H1394 H 0.92686 0.3249 0.14577 0.0
H1395 H 0.06415 0.42851 0.07261 0.0
H1396 H 0.02139 0.35441 0.1375 0.0
H1397 H 0.97495 0.35919 0.06689 0.0
C1398 C 0.93445 0.34179 0.08644 0.0
C1399 C 0.9207 0.33313 0.10884 0.0
C1400 C 0.031 0.37026 0.12302 0.0
C1401 C 0.98077 0.35227 0.10445 0.0
C1402 C 0.06098 0.39201 0.12403 0.0
C1403 C 0.07315 0.41396 0.10627 0.0
C1404 C 0.01348 0.37041 0.10394 0.0
C1405 C 0.05539 0.41221 0.08684 0.0
C1406 C 0.96436 0.35097 0.08409 0.0
C1407 C 0.93687 0.33142 0.1282 0.0
N1408 N 0.02642 0.39099 0.08629 0.0
N1409 N 0.96641 0.34165 0.12572 0.0
H1410 H 0.58642 0.93442 0.652 0.0
H1411 H 0.64608 0.07258 0.57448 0.0
H1412 H 0.59486 0.92733 0.57584 0.0
H1413 H 0.68143 0.07835 0.64535 0.0
H1414 H 0.63061 0.01991 0.57329 0.0
H1415 H 0.62397 0.98698 0.65004 0.0
C1416 C 0.59677 0.94395 0.63495 0.0
C1417 C 0.58769 0.9269 0.61402 0.0
C1418 C 0.64257 0.03285 0.58881 0.0
C1419 C 0.62981 0.98682 0.61149 0.0
C1420 C 0.65135 0.06284 0.58949 0.0
C1421 C 0.66482 0.07955 0.6101 0.0
C1422 C 0.64639 0.01941 0.60922 0.0
C1423 C 0.67111 0.06608 0.62914 0.0
C1424 C 0.61823 0.97381 0.63384 0.0
C1425 C 0.60149 0.93998 0.59232 0.0
N1426 N 0.66107 0.03649 0.62854 0.0
N1427 N 0.62142 0.96949 0.59148 0.0
H1428 H 0.6335 0.565 0.07519 0.0
H1429 H 0.59352 0.66145 0.15177 0.0
H1430 H 0.68123 0.60371 0.14068 0.0
H1431 H 0.58683 0.66177 0.07487 0.0
H1432 H 0.62927 0.64427 0.14796 0.0
H1433 H 0.61914 0.60295 0.07355 0.0
C1434 C 0.64134 0.58185 0.08901 0.0
C1435 C 0.65819 0.58111 0.10826 0.0
C1436 C 0.62078 0.64903 0.13188 0.0
C1437 C 0.6415 0.62415 0.10675 0.0
C1438 C 0.60048 0.65885 0.13407 0.0
C1439 C 0.58756 0.66304 0.11358 0.0
C1440 C 0.62716 0.64232 0.10906 0.0
C1441 C 0.59668 0.65897 0.09102 0.0
C1442 C 0.63334 0.6036 0.08799 0.0
C1443 C 0.66808 0.60352 0.1256 0.0
N1444 N 0.61544 0.64806 0.08934 0.0
N1445 N 0.65894 0.62378 0.12477 0.0
H1446 H 0.0774 0.68028 0.64541 0.0
H1447 H 0.92136 0.5965 0.57777 0.0
H1448 H 0.06596 0.64678 0.57327 0.0
H1449 H 0.93262 0.58868 0.65339 0.0
H1450 H 0.97456 0.63299 0.57467 0.0
H1451 H 0.02442 0.66479 0.64662 0.0
C1452 C 0.06394 0.67065 0.62957 0.0
C1453 C 0.07576 0.66452 0.60928 0.0
C1454 C 0.96511 0.62389 0.59203 0.0
C1455 C 0.01575 0.64702 0.61047 0.0
C1456 C 0.93487 0.60329 0.59381 0.0
C1457 C 0.92293 0.58964 0.61583 0.0
C1458 C 0.98313 0.63105 0.6125 0.0
C1459 C 0.94125 0.59873 0.6361 0.0
C1460 C 0.03379 0.66168 0.63031 0.0
C1461 C 0.05745 0.65164 0.58929 0.0
N1462 N 0.97054 0.61874 0.63394 0.0
N1463 N 0.02825 0.64307 0.59044 0.0
H1464 H 0.41294 0.0715 0.1571 0.0
H1465 H 0.32453 0.92374 0.08027 0.0
H1466 H 0.39975 0.07221 0.08097 0.0
H1467 H 0.35181 0.92879 0.15383 0.0
H1468 H 0.33986 0.97678 0.08177 0.0
H1469 H 0.37764 0.01851 0.1579 0.0
C1470 C 0.40194 0.06046 0.14063 0.0
C1471 C 0.40919 0.07596 0.11894 0.0
C1472 C 0.34183 0.96605 0.09771 0.0
C1473 C 0.36971 0.0151 0.11943 0.0
C1474 C 0.33296 0.93586 0.09688 0.0
C1475 C 0.33729 0.92221 0.11689 0.0
C1476 C 0.35472 0.98228 0.11878 0.0
C1477 C 0.34848 0.93871 0.13795 0.0
C1478 C 0.38192 0.03019 0.14102 0.0
C1479 C 0.39451 0.06083 0.09804 0.0
N1480 N 0.357 0.96786 0.13827 0.0
N1481 N 0.37584 0.03096 0.09868 0.0
H1482 H 0.4299 0.36164 0.57391 0.0
H1483 H 0.34655 0.41644 0.65303 0.0
H1484 H 0.39845 0.32297 0.64359 0.0
H1485 H 0.33524 0.41241 0.57641 0.0
H1486 H 0.36341 0.38034 0.65027 0.0
H1487 H 0.39375 0.37852 0.57365 0.0
C1488 C 0.41484 0.35614 0.58891 0.0
C1489 C 0.41709 0.34102 0.60883 0.0
C1490 C 0.35646 0.38668 0.63411 0.0
C1491 C 0.37642 0.36096 0.60899 0.0
C1492 C 0.34687 0.40724 0.6357 0.0
C1493 C 0.33946 0.41715 0.61492 0.0
C1494 C 0.35968 0.37687 0.61149 0.0
C1495 C 0.34056 0.405 0.59282 0.0
C1496 C 0.3942 0.3657 0.58874 0.0
C1497 C 0.39724 0.33448 0.62787 0.0
N1498 N 0.35123 0.38596 0.59159 0.0
N1499 N 0.37817 0.34516 0.62776 0.0
H1500 H 0.59431 0.9213 0.92682 0.0
H1501 H 0.67975 0.07659 0.85938 0.0
H1502 H 0.58866 0.93426 0.85117 0.0
H1503 H 0.64769 0.06506 0.93198 0.0
H1504 H 0.6665 0.02427 0.85858 0.0
H1505 H 0.63342 0.97356 0.93033 0.0
C1506 C 0.60209 0.93493 0.91087 0.0
C1507 C 0.58825 0.92392 0.88875 0.0
C1508 C 0.6634 0.03354 0.87495 0.0
C1509 C 0.63262 0.98295 0.89252 0.0
C1510 C 0.67111 0.06334 0.87545 0.0
C1511 C 0.6644 0.07476 0.89568 0.0
C1512 C 0.64924 0.01547 0.89488 0.0
C1513 C 0.65287 0.05677 0.91599 0.0
C1514 C 0.62423 0.96462 0.91287 0.0
C1515 C 0.59873 0.94228 0.86857 0.0
N1516 N 0.64523 0.02781 0.91499 0.0
N1517 N 0.62013 0.97104 0.87096 0.0
H1518 H 0.58053 0.64545 0.34731 0.0
H1519 H 0.64995 0.57944 0.42732 0.0
H1520 H 0.59817 0.67327 0.4211 0.0
H1521 H 0.67996 0.60186 0.35436 0.0
H1522 H 0.63357 0.61598 0.42652 0.0
H1523 H 0.61881 0.63144 0.34912 0.0
C1524 C 0.59298 0.64912 0.36374 0.0
C1525 C 0.58628 0.66028 0.38414 0.0
C1526 C 0.6446 0.61362 0.41094 0.0
C1527 C 0.62931 0.6437 0.38655 0.0
C1528 C 0.6539 0.59281 0.4114 0.0
C1529 C 0.66617 0.58776 0.39086 0.0
C1530 C 0.64662 0.62855 0.38949 0.0
C1531 C 0.67067 0.60532 0.37056 0.0
C1532 C 0.61488 0.64132 0.36475 0.0
C1533 C 0.60287 0.66471 0.40503 0.0
N1534 N 0.66009 0.62442 0.37013 0.0
N1535 N 0.62319 0.65564 0.40593 0.0
H1536 H 0.92479 0.55066 0.91924 0.0
H1537 H 0.07438 0.69046 0.87234 0.0
H1538 H 0.92451 0.61143 0.86713 0.0
H1539 H 0.06767 0.61457 0.90891 0.0
H1540 H 0.02056 0.66978 0.87796 0.0
H1541 H 0.97804 0.58258 0.92414 0.0
C1542 C 0.93605 0.57111 0.90913 0.0
C1543 C 0.92058 0.5785 0.89269 0.0
C1544 C 0.03108 0.65802 0.88508 0.0
C1545 C 0.98161 0.61476 0.89758 0.0
C1546 C 0.06165 0.66984 0.882 0.0
C1547 C 0.07512 0.65394 0.89005 0.0
C1548 C 0.01439 0.63052 0.89661 0.0
C1549 C 0.05793 0.62729 0.90227 0.0
C1550 C 0.96642 0.58928 0.91183 0.0
C1551 C 0.93594 0.60518 0.88 0.0
N1552 N 0.0285 0.61639 0.90509 0.0
N1553 N 0.96589 0.62226 0.88241 0.0
H1554 H 0.36018 0.92646 0.42576 0.0
H1555 H 0.39648 0.07484 0.35766 0.0
H1556 H 0.32592 0.92634 0.35548 0.0
H1557 H 0.43082 0.07008 0.42674 0.0
H1558 H 0.36164 0.02111 0.35953 0.0
H1559 H 0.37655 0.9789 0.42967 0.0
C1560 C 0.35568 0.93752 0.41129 0.0
C1561 C 0.34198 0.92228 0.39021 0.0
C1562 C 0.37633 0.03199 0.37451 0.0
C1563 C 0.36155 0.98271 0.39412 0.0
C1564 C 0.39602 0.06263 0.37352 0.0
C1565 C 0.41665 0.07668 0.39199 0.0
C1566 C 0.37737 0.01563 0.39417 0.0
C1567 C 0.41544 0.05995 0.41202 0.0
C1568 C 0.3651 0.96751 0.41346 0.0
C1569 C 0.33646 0.93746 0.37202 0.0
N1570 N 0.39642 0.03034 0.41245 0.0
N1571 N 0.34685 0.96711 0.37417 0.0
H1572 H 0.35111 0.41847 0.84669 0.0
H1573 H 0.42306 0.35279 0.92575 0.0
H1574 H 0.33114 0.40662 0.92216 0.0
H1575 H 0.39676 0.32034 0.85373 0.0
H1576 H 0.38725 0.37008 0.92572 0.0
H1577 H 0.36534 0.38035 0.84849 0.0
C1578 C 0.34907 0.40722 0.86351 0.0
C1579 C 0.34008 0.41553 0.88433 0.0
C1580 C 0.38867 0.35843 0.91017 0.0
C1581 C 0.35712 0.3728 0.88671 0.0
C1582 C 0.40912 0.34866 0.91016 0.0
C1583 C 0.41281 0.33532 0.88967 0.0
C1584 C 0.37264 0.35575 0.88922 0.0
C1585 C 0.39441 0.33049 0.86988 0.0
C1586 C 0.35708 0.38546 0.86454 0.0
C1587 C 0.33789 0.40058 0.90575 0.0
N1588 N 0.37559 0.34145 0.86989 0.0
N1589 N 0.34713 0.38039 0.90655 0.0
H1590 H 0.92332 0.31735 0.36134 0.0
H1591 H 0.07396 0.42274 0.42902 0.0
H1592 H 0.93154 0.35904 0.4298 0.0
H1593 H 0.07035 0.3941 0.35609 0.0
H1594 H 0.02176 0.3859 0.4339 0.0
H1595 H 0.97615 0.33231 0.36328 0.0
C1596 C 0.93605 0.32882 0.37709 0.0
C1597 C 0.92338 0.33739 0.39531 0.0
C1598 C 0.03239 0.38709 0.41694 0.0
C1599 C 0.98333 0.35454 0.39762 0.0
C1600 C 0.06222 0.40798 0.41425 0.0
C1601 C 0.07618 0.41139 0.39212 0.0
C1602 C 0.01616 0.37011 0.39712 0.0
C1603 C 0.06019 0.39194 0.37345 0.0
C1604 C 0.96616 0.33749 0.37813 0.0
C1605 C 0.94069 0.35239 0.41525 0.0
N1606 N 0.0307 0.3725 0.37617 0.0
N1607 N 0.96982 0.36075 0.41575 0.0
H1608 H 0.23319 0.438 0.93162 0.0
H1609 H 0.21897 0.4442 0.07373 0.0
H1610 H 0.30621 0.46633 0.98094 0.0
H1611 H 0.15914 0.44974 0.02365 0.0
H1612 H 0.24386 0.43496 0.0403 0.0
H1613 H 0.19945 0.42541 0.96569 0.0
C1614 C 0.24207 0.4409 0.94959 0.0
C1615 C 0.27268 0.45369 0.95344 0.0
C1616 C 0.22471 0.43727 0.03668 0.0
C1617 C 0.23411 0.43924 0.99242 0.0
C1618 C 0.21033 0.44216 0.05574 0.0
C1619 C 0.18679 0.44721 0.0513 0.0
C1620 C 0.21549 0.43761 0.01309 0.0
C1621 C 0.17694 0.44541 0.0277 0.0
C1622 C 0.22278 0.43384 0.96901 0.0
C1623 C 0.28285 0.45693 0.97715 0.0
N1624 N 0.19153 0.44102 0.00939 0.0
N1625 N 0.26365 0.45003 0.99575 0.0
H1626 H 0.83822 0.30769 0.47544 0.0
H1627 H 0.72086 0.1575 0.54046 0.0
H1628 H 0.78485 0.22627 0.43712 0.0
H1629 H 0.76108 0.24466 0.57167 0.0
H1630 H 0.7531 0.17872 0.50506 0.0
H1631 H 0.8201 0.2811 0.51331 0.0
C1632 C 0.82337 0.28395 0.47512 0.0
C1633 C 0.81319 0.269 0.45332 0.0
C1634 C 0.75525 0.19304 0.5199 0.0
C1635 C 0.79132 0.23854 0.49645 0.0
C1636 C 0.73704 0.18092 0.54009 0.0
C1637 C 0.73842 0.19948 0.55882 0.0
C1638 C 0.77501 0.22377 0.51876 0.0
C1639 C 0.75935 0.2297 0.55748 0.0
C1640 C 0.81278 0.2688 0.49669 0.0
C1641 C 0.79347 0.23838 0.4537 0.0
N1642 N 0.77668 0.2409 0.53777 0.0
N1643 N 0.78278 0.22414 0.47498 0.0
H1644 H 0.55296 0.76625 0.07122 0.0
H1645 H 0.55219 0.7852 0.92935 0.0
H1646 H 0.53204 0.69516 0.02136 0.0
H1647 H 0.52768 0.83232 0.97944 0.0
H1648 H 0.56184 0.76116 0.96307 0.0
H1649 H 0.56095 0.79933 0.03742 0.0
C1650 C 0.55082 0.75777 0.05317 0.0
C1651 C 0.54148 0.72779 0.04907 0.0
C1652 C 0.55489 0.77718 0.96661 0.0
C1653 C 0.55069 0.76556 0.01049 0.0
C1654 C 0.54954 0.79105 0.94744 0.0
C1655 C 0.53881 0.81056 0.95164 0.0
C1656 C 0.55 0.78329 0.9901 0.0
C1657 C 0.53562 0.81717 0.97544 0.0
C1658 C 0.55519 0.77664 0.03394 0.0
C1659 C 0.5389 0.71803 0.02529 0.0
N1660 N 0.54103 0.80342 0.99381 0.0
N1661 N 0.54328 0.73683 0.00686 0.0
H1662 H 0.7904 0.56256 0.56844 0.0
H1663 H 0.77501 0.55064 0.42599 0.0
H1664 H 0.83969 0.53609 0.52254 0.0
H1665 H 0.70637 0.54281 0.47347 0.0
H1666 H 0.80837 0.56262 0.46047 0.0
H1667 H 0.76953 0.57278 0.53284 0.0
C1668 C 0.79747 0.55967 0.55089 0.0
C1669 C 0.8164 0.54797 0.54839 0.0
C1670 C 0.78627 0.55904 0.46326 0.0
C1671 C 0.79265 0.55959 0.50779 0.0
C1672 C 0.76739 0.55243 0.44365 0.0
C1673 C 0.73821 0.546 0.44714 0.0
C1674 C 0.77569 0.5591 0.48639 0.0
C1675 C 0.72891 0.5479 0.47025 0.0
C1676 C 0.78541 0.56534 0.53062 0.0
C1677 C 0.82478 0.54464 0.52523 0.0
N1678 N 0.74757 0.55407 0.48912 0.0
N1679 N 0.81258 0.55009 0.5058 0.0
H1680 H 0.16099 0.70293 0.97369 0.0
H1681 H 0.30362 0.8405 0.01883 0.0
H1682 H 0.21404 0.77548 0.92596 0.0
H1683 H 0.22937 0.7911 0.06612 0.0
H1684 H 0.27042 0.81921 0.98444 0.0
H1685 H 0.18382 0.73605 0.0079 0.0
C1686 C 0.1769 0.72605 0.97045 0.0
C1687 C 0.18575 0.7365 0.94704 0.0
C1688 C 0.26127 0.81358 0.00235 0.0
C1689 C 0.2126 0.77423 0.98598 0.0
C1690 C 0.28022 0.82568 0.02197 0.0
C1691 C 0.2693 0.81728 0.04535 0.0
C1692 C 0.23138 0.79239 0.00615 0.0
C1693 C 0.23876 0.7981 0.04841 0.0
C1694 C 0.18993 0.74494 0.98994 0.0
C1695 C 0.20653 0.76659 0.94375 0.0
N1696 N 0.22098 0.78574 0.02902 0.0
N1697 N 0.21982 0.78428 0.96305 0.0
H1698 H 0.43814 0.22352 0.56984 0.0
H1699 H 0.44891 0.2254 0.42716 0.0
H1700 H 0.46074 0.29957 0.52562 0.0
H1701 H 0.45012 0.15872 0.47182 0.0
H1702 H 0.43701 0.24562 0.46236 0.0
H1703 H 0.42651 0.19292 0.53357 0.0
C1704 C 0.43953 0.23344 0.55247 0.0
C1705 C 0.45004 0.26386 0.5505 0.0
C1706 C 0.43908 0.22608 0.4644 0.0
C1707 C 0.43759 0.22949 0.50918 0.0
C1708 C 0.4456 0.21444 0.44431 0.0
C1709 C 0.45012 0.1903 0.44676 0.0
C1710 C 0.43751 0.21366 0.48708 0.0
C1711 C 0.44638 0.17719 0.46933 0.0
C1712 C 0.43319 0.21611 0.53183 0.0
C1713 C 0.45235 0.27605 0.52773 0.0
N1714 N 0.44062 0.18927 0.48875 0.0
N1715 N 0.44644 0.25887 0.5079 0.0
H1716 H 0.70885 0.55394 0.02963 0.0
H1717 H 0.84404 0.5461 0.97766 0.0
H1718 H 0.77622 0.55281 0.07343 0.0
H1719 H 0.78751 0.56505 0.93376 0.0
H1720 H 0.82554 0.55875 0.01324 0.0
H1721 H 0.74212 0.56794 0.99494 0.0
C1722 C 0.73109 0.55771 0.03201 0.0
C1723 C 0.74009 0.55244 0.05418 0.0
C1724 C 0.81761 0.56085 0.99583 0.0
C1725 C 0.77774 0.56737 0.01481 0.0
C1726 C 0.82824 0.55367 0.97552 0.0
C1727 C 0.81696 0.55417 0.95286 0.0
C1728 C 0.79493 0.56777 0.99349 0.0
C1729 C 0.79667 0.56428 0.95097 0.0
C1730 C 0.75003 0.56554 0.01227 0.0
C1731 C 0.76874 0.55691 0.05651 0.0
N1732 N 0.78571 0.56999 0.97112 0.0
N1733 N 0.78642 0.56367 0.03695 0.0
H1734 H 0.21637 0.77603 0.5692 0.0
H1735 H 0.22261 0.7845 0.42617 0.0
H1736 H 0.1583 0.70457 0.52257 0.0
H1737 H 0.29631 0.83893 0.47228 0.0
H1738 H 0.19058 0.76481 0.46159 0.0
H1739 H 0.23711 0.80846 0.53408 0.0
C1740 C 0.20722 0.76759 0.55161 0.0
C1741 C 0.18547 0.73785 0.5486 0.0
C1742 C 0.21355 0.78174 0.46391 0.0
C1743 C 0.20932 0.77432 0.50855 0.0
C1744 C 0.23168 0.79316 0.44373 0.0
C1745 C 0.26189 0.81354 0.44648 0.0
C1746 C 0.22586 0.79076 0.48689 0.0
C1747 C 0.27296 0.82349 0.46955 0.0
C1748 C 0.21921 0.78594 0.5316 0.0
C1749 C 0.17485 0.72755 0.5255 0.0
N1750 N 0.255 0.81179 0.48894 0.0
N1751 N 0.18706 0.7457 0.50628 0.0
H1752 H 0.43127 0.20587 0.06732 0.0
H1753 H 0.44176 0.21876 0.92484 0.0
H1754 H 0.45521 0.15459 0.02139 0.0
H1755 H 0.44654 0.2868 0.97145 0.0
H1756 H 0.42934 0.18558 0.95942 0.0
H1757 H 0.4197 0.22568 0.03175 0.0
C1758 C 0.4333 0.19813 0.0498 0.0
C1759 C 0.44472 0.17895 0.04726 0.0
C1760 C 0.43226 0.20746 0.962 0.0
C1761 C 0.4316 0.20157 0.00663 0.0
C1762 C 0.43906 0.22622 0.94229 0.0
C1763 C 0.44481 0.25524 0.94549 0.0
C1764 C 0.43154 0.21802 0.98501 0.0
C1765 C 0.44187 0.26436 0.9684 0.0
C1766 C 0.42686 0.20959 0.02952 0.0
C1767 C 0.44693 0.16971 0.02412 0.0
N1768 N 0.43575 0.24588 0.98742 0.0
N1769 N 0.4408 0.18138 0.00468 0.0
H1770 H 0.16207 0.46241 0.47315 0.0
H1771 H 0.30664 0.46855 0.52077 0.0
H1772 H 0.2221 0.45236 0.42639 0.0
H1773 H 0.23215 0.4465 0.56699 0.0
H1774 H 0.27471 0.45907 0.48591 0.0
H1775 H 0.18525 0.45299 0.50777 0.0
C1776 C 0.17956 0.45728 0.47022 0.0
C1777 C 0.19 0.45764 0.44705 0.0
C1778 C 0.26516 0.45569 0.50365 0.0
C1779 C 0.21737 0.44808 0.48636 0.0
C1780 C 0.28339 0.46109 0.52356 0.0
C1781 C 0.27207 0.45844 0.5468 0.0
C1782 C 0.23553 0.44827 0.50698 0.0
C1783 C 0.24178 0.44871 0.54939 0.0
C1784 C 0.19288 0.45205 0.48992 0.0
C1785 C 0.2132 0.45173 0.44406 0.0
N1786 N 0.22469 0.44457 0.52972 0.0
N1787 N 0.22645 0.44764 0.46353 0.0
H1788 H 0.83537 0.29854 0.0273 0.0
H1789 H 0.68892 0.16544 0.98154 0.0
H1790 H 0.77674 0.22914 0.07523 0.0
H1791 H 0.76486 0.20807 0.93507 0.0
H1792 H 0.72146 0.18685 0.0163 0.0
H1793 H 0.81188 0.26505 0.9932 0.0
C1794 C 0.81818 0.27588 0.0306 0.0
C1795 C 0.80812 0.26626 0.05394 0.0
C1796 C 0.73118 0.19095 0.99857 0.0
C1797 C 0.78042 0.22841 0.01526 0.0
C1798 C 0.71262 0.17872 0.97879 0.0
C1799 C 0.7244 0.18491 0.9556 0.0
C1800 C 0.76158 0.21037 0.99503 0.0
C1801 C 0.75512 0.20258 0.95279 0.0
C1802 C 0.80473 0.25683 0.01121 0.0
C1803 C 0.7853 0.23706 0.05743 0.0
N1804 N 0.77267 0.21528 0.9723 0.0
N1805 N 0.7718 0.21929 0.03824 0.0
H1806 H 0.54181 0.69757 0.48081 0.0
H1807 H 0.54436 0.8407 0.52301 0.0
H1808 H 0.56418 0.77022 0.43234 0.0
H1809 H 0.56216 0.78777 0.57224 0.0
H1810 H 0.55505 0.81724 0.48953 0.0
H1811 H 0.55272 0.7313 0.51467 0.0
C1812 C 0.5497 0.72077 0.4773 0.0
C1813 C 0.5518 0.73104 0.45373 0.0
C1814 C 0.55733 0.81125 0.50766 0.0
C1815 C 0.56362 0.76956 0.49235 0.0
C1816 C 0.55122 0.82463 0.52676 0.0
C1817 C 0.55223 0.81603 0.55039 0.0
C1818 C 0.56368 0.78852 0.5122 0.0
C1819 C 0.56119 0.79508 0.55428 0.0
C1820 C 0.55593 0.74002 0.49663 0.0
C1821 C 0.56219 0.76133 0.45021 0.0
N1822 N 0.5659 0.78151 0.53535 0.0
N1823 N 0.56705 0.77939 0.46931 0.0
loop_
_geom_bond_atom_site_label_1
_geom_bond_atom_site_label_2
_geom_bond_distance
_geom_bond_site_symmetry_2
_ccdc_geom_bond_type
Fe0 O2 1.918 . S
Fe0 O5 1.997 . S
Fe0 O6 2.002 . S
Fe0 O11 1.976 . S
Fe0 O14 1.996 . S
Fe1 O2 1.918 . S
Fe1 O9 1.997 . S
Fe1 O12 1.996 . S
Fe1 O16 1.976 . S
Fe1 O19 2.002 . S
O2 Fe0 1.918 . S
O2 Fe1 1.918 . S
O2 Fe3 1.918 . S
Fe3 O2 1.918 . S
Fe3 O4 2.002 . S
Fe3 O13 1.976 . S
Fe3 O17 1.996 . S
Fe3 O20 1.997 . S
O4 Fe3 2.002 . S
O4 C21 1.295 . S
O5 Fe0 1.997 . S
O5 C21 1.235 . S
O6 Fe0 2.002 . S
O6 C7 1.295 . S
C7 O6 1.295 . S
C7 O9 1.235 . S
C8 O13 1.287 . S
C8 O14 1.255 . S
O9 Fe1 1.997 . S
O9 C7 1.235 . S
C10 O16 1.287 . S
C10 O17 1.255 . S
O11 Fe0 1.976 . S
O11 C18 1.287 . S
O12 Fe1 1.996 . S
O12 C18 1.255 . S
O13 Fe3 1.976 . S
O13 C8 1.287 . S
O14 Fe0 1.996 . S
O14 C8 1.255 . S
C15 O19 1.295 . S
C15 O20 1.235 . S
O16 Fe1 1.976 . S
O16 C10 1.287 . S
O17 Fe3 1.996 . S
O17 C10 1.255 . S
C18 O11 1.287 . S
C18 O12 1.255 . S
O19 Fe1 2.002 . S
O19 C15 1.295 . S
O20 Fe3 1.997 . S
O20 C15 1.235 . S
C21 O4 1.295 . S
C21 O5 1.235 . S
Fe22 O24 1.918 . S
Fe22 O27 1.997 . S
Fe22 O28 2.002 . S
Fe22 O33 1.976 . S
Fe22 O36 1.996 . S
Fe23 O24 1.918 . S
Fe23 O31 1.997 . S
Fe23 O34 1.996 . S
Fe23 O38 1.976 . S
Fe23 O41 2.002 . S
O24 Fe22 1.918 . S
O24 Fe23 1.918 . S
O24 Fe25 1.918 . S
Fe25 O24 1.918 . S
Fe25 O26 2.002 . S
Fe25 O35 1.976 . S
Fe25 O39 1.996 . S
Fe25 O42 1.997 . S
O26 Fe25 2.002 . S
O26 C43 1.295 . S
O27 Fe22 1.997 . S
O27 C43 1.235 . S
O28 Fe22 2.002 . S
O28 C29 1.295 . S
C29 O28 1.295 . S
C29 O31 1.235 . S
C30 O35 1.287 . S
C30 O36 1.255 . S
O31 Fe23 1.997 . S
O31 C29 1.235 . S
C32 O38 1.287 . S
C32 O39 1.255 . S
O33 Fe22 1.976 . S
O33 C40 1.287 . S
O34 Fe23 1.996 . S
O34 C40 1.255 . S
O35 Fe25 1.976 . S
O35 C30 1.287 . S
O36 Fe22 1.996 . S
O36 C30 1.255 . S
C37 O41 1.295 . S
C37 O42 1.235 . S
O38 Fe23 1.976 . S
O38 C32 1.287 . S
O39 Fe25 1.996 . S
O39 C32 1.255 . S
C40 O33 1.287 . S
C40 O34 1.255 . S
O41 Fe23 2.002 . S
O41 C37 1.295 . S
O42 Fe25 1.997 . S
O42 C37 1.235 . S
C43 O26 1.295 . S
C43 O27 1.235 . S
Fe44 O46 1.918 . S
Fe44 O49 1.997 . S
Fe44 O50 2.002 . S
Fe44 O55 1.976 . S
Fe44 O58 1.996 . S
Fe45 O46 1.918 . S
Fe45 O53 1.997 . S
Fe45 O56 1.996 . S
Fe45 O60 1.976 . S
Fe45 O63 2.002 . S
O46 Fe44 1.918 . S
O46 Fe45 1.918 . S
O46 Fe47 1.918 . S
Fe47 O46 1.918 . S
Fe47 O48 2.002 . S
Fe47 O57 1.976 . S
Fe47 O61 1.996 . S
Fe47 O64 1.997 . S
O48 Fe47 2.002 . S
O48 C65 1.295 . S
O49 Fe44 1.997 . S
O49 C65 1.235 . S
O50 Fe44 2.002 . S
O50 C51 1.295 . S
C51 O50 1.295 . S
C51 O53 1.235 . S
C52 O57 1.287 . S
C52 O58 1.255 . S
O53 Fe45 1.997 . S
O53 C51 1.235 . S
C54 O60 1.287 . S
C54 O61 1.255 . S
O55 Fe44 1.976 . S
O55 C62 1.287 . S
O56 Fe45 1.996 . S
O56 C62 1.255 . S
O57 Fe47 1.976 . S
O57 C52 1.287 . S
O58 Fe44 1.996 . S
O58 C52 1.255 . S
C59 O63 1.295 . S
C59 O64 1.235 . S
O60 Fe45 1.976 . S
O60 C54 1.287 . S
O61 Fe47 1.996 . S
O61 C54 1.255 . S
C62 O55 1.287 . S
C62 O56 1.255 . S
O63 Fe45 2.002 . S
O63 C59 1.295 . S
O64 Fe47 1.997 . S
O64 C59 1.235 . S
C65 O48 1.295 . S
C65 O49 1.235 . S
Fe66 O68 1.918 . S
Fe66 O71 1.997 . S
Fe66 O72 2.002 . S
Fe66 O77 1.976 . S
Fe66 O80 1.996 . S
Fe67 O68 1.918 . S
Fe67 O75 1.997 . S
Fe67 O78 1.996 . S
Fe67 O82 1.976 . S
Fe67 O85 2.002 . S
O68 Fe66 1.918 . S
O68 Fe67 1.918 . S
O68 Fe69 1.918 . S
Fe69 O68 1.918 . S
Fe69 O70 2.002 . S
Fe69 O79 1.976 . S
Fe69 O83 1.996 . S
Fe69 O86 1.997 . S
O70 Fe69 2.002 . S
O70 C87 1.295 . S
O71 Fe66 1.997 . S
O71 C87 1.235 . S
O72 Fe66 2.002 . S
O72 C73 1.295 . S
C73 O72 1.295 . S
C73 O75 1.235 . S
C74 O79 1.287 . S
C74 O80 1.255 . S
O75 Fe67 1.997 . S
O75 C73 1.235 . S
C76 O82 1.287 . S
C76 O83 1.255 . S
O77 Fe66 1.976 . S
O77 C84 1.287 . S
O78 Fe67 1.996 . S
O78 C84 1.255 . S
O79 Fe69 1.976 . S
O79 C74 1.287 . S
O80 Fe66 1.996 . S
O80 C74 1.255 . S
C81 O85 1.295 . S
C81 O86 1.235 . S
O82 Fe67 1.976 . S
O82 C76 1.287 . S
O83 Fe69 1.996 . S
O83 C76 1.255 . S
C84 O77 1.287 . S
C84 O78 1.255 . S
O85 Fe67 2.002 . S
O85 C81 1.295 . S
O86 Fe69 1.997 . S
O86 C81 1.235 . S
C87 O70 1.295 . S
C87 O71 1.235 . S
Fe88 O90 1.918 . S
Fe88 O93 1.997 . S
Fe88 O94 2.002 . S
Fe88 O99 1.976 . S
Fe88 O102 1.996 . S
Fe89 O90 1.918 . S
Fe89 O97 1.997 . S
Fe89 O100 1.996 . S
Fe89 O104 1.976 . S
Fe89 O107 2.002 . S
O90 Fe88 1.918 . S
O90 Fe89 1.918 . S
O90 Fe91 1.918 . S
Fe91 O90 1.918 . S
Fe91 O92 2.002 . S
Fe91 O101 1.976 . S
Fe91 O105 1.996 . S
Fe91 O108 1.997 . S
O92 Fe91 2.002 . S
O92 C109 1.295 . S
O93 Fe88 1.997 . S
O93 C109 1.235 . S
O94 Fe88 2.002 . S
O94 C95 1.295 . S
C95 O94 1.295 . S
C95 O97 1.235 . S
C96 O101 1.287 . S
C96 O102 1.255 . S
O97 Fe89 1.997 . S
O97 C95 1.235 . S
C98 O104 1.287 . S
C98 O105 1.255 . S
O99 Fe88 1.976 . S
O99 C106 1.287 . S
O100 Fe89 1.996 . S
O100 C106 1.255 . S
O101 Fe91 1.976 . S
O101 C96 1.287 . S
O102 Fe88 1.996 . S
O102 C96 1.255 . S
C103 O107 1.295 . S
C103 O108 1.235 . S
O104 Fe89 1.976 . S
O104 C98 1.287 . S
O105 Fe91 1.996 . S
O105 C98 1.255 . S
C106 O99 1.287 . S
C106 O100 1.255 . S
O107 Fe89 2.002 . S
O107 C103 1.295 . S
O108 Fe91 1.997 . S
O108 C103 1.235 . S
C109 O92 1.295 . S
C109 O93 1.235 . S
Fe110 O112 1.918 . S
Fe110 O115 1.997 . S
Fe110 O116 2.002 . S
Fe110 O121 1.976 . S
Fe110 O124 1.996 . S
Fe111 O112 1.918 . S
Fe111 O119 1.997 . S
Fe111 O122 1.996 . S
Fe111 O126 1.976 . S
Fe111 O129 2.002 . S
O112 Fe110 1.918 . S
O112 Fe111 1.918 . S
O112 Fe113 1.918 . S
Fe113 O112 1.918 . S
Fe113 O114 2.002 . S
Fe113 O123 1.976 . S
Fe113 O127 1.996 . S
Fe113 O130 1.997 . S
O114 Fe113 2.002 . S
O114 C131 1.295 . S
O115 Fe110 1.997 . S
O115 C131 1.235 . S
O116 Fe110 2.002 . S
O116 C117 1.295 . S
C117 O116 1.295 . S
C117 O119 1.235 . S
C118 O123 1.287 . S
C118 O124 1.255 . S
O119 Fe111 1.997 . S
O119 C117 1.235 . S
C120 O126 1.287 . S
C120 O127 1.255 . S
O121 Fe110 1.976 . S
O121 C128 1.287 . S
O122 Fe111 1.996 . S
O122 C128 1.255 . S
O123 Fe113 1.976 . S
O123 C118 1.287 . S
O124 Fe110 1.996 . S
O124 C118 1.255 . S
C125 O129 1.295 . S
C125 O130 1.235 . S
O126 Fe111 1.976 . S
O126 C120 1.287 . S
O127 Fe113 1.996 . S
O127 C120 1.255 . S
C128 O121 1.287 . S
C128 O122 1.255 . S
O129 Fe111 2.002 . S
O129 C125 1.295 . S
O130 Fe113 1.997 . S
O130 C125 1.235 . S
C131 O114 1.295 . S
C131 O115 1.235 . S
Fe132 O134 1.918 . S
Fe132 O137 1.997 . S
Fe132 O138 2.002 . S
Fe132 O143 1.976 . S
Fe132 O146 1.996 . S
Fe133 O134 1.918 . S
Fe133 O141 1.997 . S
Fe133 O144 1.996 . S
Fe133 O148 1.976 . S
Fe133 O151 2.002 . S
O134 Fe132 1.918 . S
O134 Fe133 1.918 . S
O134 Fe135 1.918 . S
Fe135 O134 1.918 . S
Fe135 O136 2.002 . S
Fe135 O145 1.976 . S
Fe135 O149 1.996 . S
Fe135 O152 1.997 . S
O136 Fe135 2.002 . S
O136 C153 1.295 . S
O137 Fe132 1.997 . S
O137 C153 1.235 . S
O138 Fe132 2.002 . S
O138 C139 1.295 . S
C139 O138 1.295 . S
C139 O141 1.235 . S
C140 O145 1.287 . S
C140 O146 1.255 . S
O141 Fe133 1.997 . S
O141 C139 1.235 . S
C142 O148 1.287 . S
C142 O149 1.255 . S
O143 Fe132 1.976 . S
O143 C150 1.287 . S
O144 Fe133 1.996 . S
O144 C150 1.255 . S
O145 Fe135 1.976 . S
O145 C140 1.287 . S
O146 Fe132 1.996 . S
O146 C140 1.255 . S
C147 O151 1.295 . S
C147 O152 1.235 . S
O148 Fe133 1.976 . S
O148 C142 1.287 . S
O149 Fe135 1.996 . S
O149 C142 1.255 . S
C150 O143 1.287 . S
C150 O144 1.255 . S
O151 Fe133 2.002 . S
O151 C147 1.295 . S
O152 Fe135 1.997 . S
O152 C147 1.235 . S
C153 O136 1.295 . S
C153 O137 1.235 . S
Fe154 O156 1.918 . S
Fe154 O159 1.997 . S
Fe154 O160 2.002 . S
Fe154 O165 1.976 . S
Fe154 O168 1.996 . S
Fe155 O156 1.918 . S
Fe155 O163 1.997 . S
Fe155 O166 1.996 . S
Fe155 O170 1.976 . S
Fe155 O173 2.002 . S
O156 Fe154 1.918 . S
O156 Fe155 1.918 . S
O156 Fe157 1.918 . S
Fe157 O156 1.918 . S
Fe157 O158 2.002 . S
Fe157 O167 1.976 . S
Fe157 O171 1.996 . S
Fe157 O174 1.997 . S
O158 Fe157 2.002 . S
O158 C175 1.295 . S
O159 Fe154 1.997 . S
O159 C175 1.235 . S
O160 Fe154 2.002 . S
O160 C161 1.295 . S
C161 O160 1.295 . S
C161 O163 1.235 . S
C162 O167 1.287 . S
C162 O168 1.255 . S
O163 Fe155 1.997 . S
O163 C161 1.235 . S
C164 O170 1.287 . S
C164 O171 1.255 . S
O165 Fe154 1.976 . S
O165 C172 1.287 . S
O166 Fe155 1.996 . S
O166 C172 1.255 . S
O167 Fe157 1.976 . S
O167 C162 1.287 . S
O168 Fe154 1.996 . S
O168 C162 1.255 . S
C169 O173 1.295 . S
C169 O174 1.235 . S
O170 Fe155 1.976 . S
O170 C164 1.287 . S
O171 Fe157 1.996 . S
O171 C164 1.255 . S
C172 O165 1.287 . S
C172 O166 1.255 . S
O173 Fe155 2.002 . S
O173 C169 1.295 . S
O174 Fe157 1.997 . S
O174 C169 1.235 . S
C175 O158 1.295 . S
C175 O159 1.235 . S
Fe176 O178 1.918 . S
Fe176 O181 1.997 . S
Fe176 O182 2.002 . S
Fe176 O187 1.976 . S
Fe176 O190 1.996 . S
Fe177 O178 1.918 . S
Fe177 O185 1.997 . S
Fe177 O188 1.996 . S
Fe177 O192 1.976 . S
Fe177 O195 2.002 . S
O178 Fe176 1.918 . S
O178 Fe177 1.918 . S
O178 Fe179 1.918 . S
Fe179 O178 1.918 . S
Fe179 O180 2.002 . S
Fe179 O189 1.976 . S
Fe179 O193 1.996 . S
Fe179 O196 1.997 . S
O180 Fe179 2.002 . S
O180 C197 1.295 . S
O181 Fe176 1.997 . S
O181 C197 1.235 . S
O182 Fe176 2.002 . S
O182 C183 1.295 . S
C183 O182 1.295 . S
C183 O185 1.235 . S
C184 O189 1.287 . S
C184 O190 1.255 . S
O185 Fe177 1.997 . S
O185 C183 1.235 . S
C186 O192 1.287 . S
C186 O193 1.255 . S
O187 Fe176 1.976 . S
O187 C194 1.287 . S
O188 Fe177 1.996 . S
O188 C194 1.255 . S
O189 Fe179 1.976 . S
O189 C184 1.287 . S
O190 Fe176 1.996 . S
O190 C184 1.255 . S
C191 O195 1.295 . S
C191 O196 1.235 . S
O192 Fe177 1.976 . S
O192 C186 1.287 . S
O193 Fe179 1.996 . S
O193 C186 1.255 . S
C194 O187 1.287 . S
C194 O188 1.255 . S
O195 Fe177 2.002 . S
O195 C191 1.295 . S
O196 Fe179 1.997 . S
O196 C191 1.235 . S
C197 O180 1.295 . S
C197 O181 1.235 . S
Fe198 O200 1.918 . S
Fe198 O203 1.997 . S
Fe198 O204 2.002 . S
Fe198 O209 1.976 . S
Fe198 O212 1.996 . S
Fe199 O200 1.918 . S
Fe199 O207 1.997 . S
Fe199 O210 1.996 . S
Fe199 O214 1.976 . S
Fe199 O217 2.002 . S
O200 Fe198 1.918 . S
O200 Fe199 1.918 . S
O200 Fe201 1.918 . S
Fe201 O200 1.918 . S
Fe201 O202 2.002 . S
Fe201 O211 1.976 . S
Fe201 O215 1.996 . S
Fe201 O218 1.997 . S
O202 Fe201 2.002 . S
O202 C219 1.295 . S
O203 Fe198 1.997 . S
O203 C219 1.235 . S
O204 Fe198 2.002 . S
O204 C205 1.295 . S
C205 O204 1.295 . S
C205 O207 1.235 . S
C206 O211 1.287 . S
C206 O212 1.255 . S
O207 Fe199 1.997 . S
O207 C205 1.235 . S
C208 O214 1.287 . S
C208 O215 1.255 . S
O209 Fe198 1.976 . S
O209 C216 1.287 . S
O210 Fe199 1.996 . S
O210 C216 1.255 . S
O211 Fe201 1.976 . S
O211 C206 1.287 . S
O212 Fe198 1.996 . S
O212 C206 1.255 . S
C213 O217 1.295 . S
C213 O218 1.235 . S
O214 Fe199 1.976 . S
O214 C208 1.287 . S
O215 Fe201 1.996 . S
O215 C208 1.255 . S
C216 O209 1.287 . S
C216 O210 1.255 . S
O217 Fe199 2.002 . S
O217 C213 1.295 . S
O218 Fe201 1.997 . S
O218 C213 1.235 . S
C219 O202 1.295 . S
C219 O203 1.235 . S
Fe220 O222 1.918 . S
Fe220 O225 1.997 . S
Fe220 O226 2.002 . S
Fe220 O231 1.976 . S
Fe220 O234 1.996 . S
Fe221 O222 1.918 . S
Fe221 O229 1.997 . S
Fe221 O232 1.996 . S
Fe221 O236 1.976 . S
Fe221 O239 2.002 . S
O222 Fe220 1.918 . S
O222 Fe221 1.918 . S
O222 Fe223 1.918 . S
Fe223 O222 1.918 . S
Fe223 O224 2.002 . S
Fe223 O233 1.976 . S
Fe223 O237 1.996 . S
Fe223 O240 1.997 . S
O224 Fe223 2.002 . S
O224 C241 1.295 . S
O225 Fe220 1.997 . S
O225 C241 1.235 . S
O226 Fe220 2.002 . S
O226 C227 1.295 . S
C227 O226 1.295 . S
C227 O229 1.235 . S
C228 O233 1.287 . S
C228 O234 1.255 . S
O229 Fe221 1.997 . S
O229 C227 1.235 . S
C230 O236 1.287 . S
C230 O237 1.255 . S
O231 Fe220 1.976 . S
O231 C238 1.287 . S
O232 Fe221 1.996 . S
O232 C238 1.255 . S
O233 Fe223 1.976 . S
O233 C228 1.287 . S
O234 Fe220 1.996 . S
O234 C228 1.255 . S
C235 O239 1.295 . S
C235 O240 1.235 . S
O236 Fe221 1.976 . S
O236 C230 1.287 . S
O237 Fe223 1.996 . S
O237 C230 1.255 . S
C238 O231 1.287 . S
C238 O232 1.255 . S
O239 Fe221 2.002 . S
O239 C235 1.295 . S
O240 Fe223 1.997 . S
O240 C235 1.235 . S
C241 O224 1.295 . S
C241 O225 1.235 . S
Fe242 O244 1.918 . S
Fe242 O247 1.997 . S
Fe242 O248 2.002 . S
Fe242 O253 1.976 . S
Fe242 O256 1.996 . S
Fe243 O244 1.918 . S
Fe243 O251 1.997 . S
Fe243 O254 1.996 . S
Fe243 O258 1.976 . S
Fe243 O261 2.002 . S
O244 Fe242 1.918 . S
O244 Fe243 1.918 . S
O244 Fe245 1.918 . S
Fe245 O244 1.918 . S
Fe245 O246 2.002 . S
Fe245 O255 1.976 . S
Fe245 O259 1.996 . S
Fe245 O262 1.997 . S
O246 Fe245 2.002 . S
O246 C263 1.295 . S
O247 Fe242 1.997 . S
O247 C263 1.235 . S
O248 Fe242 2.002 . S
O248 C249 1.295 . S
C249 O248 1.295 . S
C249 O251 1.235 . S
C250 O255 1.287 . S
C250 O256 1.255 . S
O251 Fe243 1.997 . S
O251 C249 1.235 . S
C252 O258 1.287 . S
C252 O259 1.255 . S
O253 Fe242 1.976 . S
O253 C260 1.287 . S
O254 Fe243 1.996 . S
O254 C260 1.255 . S
O255 Fe245 1.976 . S
O255 C250 1.287 . S
O256 Fe242 1.996 . S
O256 C250 1.255 . S
C257 O261 1.295 . S
C257 O262 1.235 . S
O258 Fe243 1.976 . S
O258 C252 1.287 . S
O259 Fe245 1.996 . S
O259 C252 1.255 . S
C260 O253 1.287 . S
C260 O254 1.255 . S
O261 Fe243 2.002 . S
O261 C257 1.295 . S
O262 Fe245 1.997 . S
O262 C257 1.235 . S
C263 O246 1.295 . S
C263 O247 1.235 . S
Fe264 O266 1.918 . S
Fe264 O269 1.997 . S
Fe264 O270 2.002 . S
Fe264 O275 1.976 . S
Fe264 O278 1.996 . S
Fe265 O266 1.918 . S
Fe265 O273 1.997 . S
Fe265 O276 1.996 . S
Fe265 O280 1.976 . S
Fe265 O283 2.002 . S
O266 Fe264 1.918 . S
O266 Fe265 1.918 . S
O266 Fe267 1.918 . S
Fe267 O266 1.918 . S
Fe267 O268 2.002 . S
Fe267 O277 1.976 . S
Fe267 O281 1.996 . S
Fe267 O284 1.997 . S
O268 Fe267 2.002 . S
O268 C285 1.295 . S
O269 Fe264 1.997 . S
O269 C285 1.235 . S
O270 Fe264 2.002 . S
O270 C271 1.295 . S
C271 O270 1.295 . S
C271 O273 1.235 . S
C272 O277 1.287 . S
C272 O278 1.255 . S
O273 Fe265 1.997 . S
O273 C271 1.235 . S
C274 O280 1.287 . S
C274 O281 1.255 . S
O275 Fe264 1.976 . S
O275 C282 1.287 . S
O276 Fe265 1.996 . S
O276 C282 1.255 . S
O277 Fe267 1.976 . S
O277 C272 1.287 . S
O278 Fe264 1.996 . S
O278 C272 1.255 . S
C279 O283 1.295 . S
C279 O284 1.235 . S
O280 Fe265 1.976 . S
O280 C274 1.287 . S
O281 Fe267 1.996 . S
O281 C274 1.255 . S
C282 O275 1.287 . S
C282 O276 1.255 . S
O283 Fe265 2.002 . S
O283 C279 1.295 . S
O284 Fe267 1.997 . S
O284 C279 1.235 . S
C285 O268 1.295 . S
C285 O269 1.235 . S
Fe286 O288 1.918 . S
Fe286 O291 1.997 . S
Fe286 O292 2.002 . S
Fe286 O297 1.976 . S
Fe286 O300 1.996 . S
Fe287 O288 1.918 . S
Fe287 O295 1.997 . S
Fe287 O298 1.996 . S
Fe287 O302 1.976 . S
Fe287 O305 2.002 . S
O288 Fe286 1.918 . S
O288 Fe287 1.918 . S
O288 Fe289 1.918 . S
Fe289 O288 1.918 . S
Fe289 O290 2.002 . S
Fe289 O299 1.976 . S
Fe289 O303 1.996 . S
Fe289 O306 1.997 . S
O290 Fe289 2.002 . S
O290 C307 1.295 . S
O291 Fe286 1.997 . S
O291 C307 1.235 . S
O292 Fe286 2.002 . S
O292 C293 1.295 . S
C293 O292 1.295 . S
C293 O295 1.235 . S
C294 O299 1.287 . S
C294 O300 1.255 . S
O295 Fe287 1.997 . S
O295 C293 1.235 . S
C296 O302 1.287 . S
C296 O303 1.255 . S
O297 Fe286 1.976 . S
O297 C304 1.287 . S
O298 Fe287 1.996 . S
O298 C304 1.255 . S
O299 Fe289 1.976 . S
O299 C294 1.287 . S
O300 Fe286 1.996 . S
O300 C294 1.255 . S
C301 O305 1.295 . S
C301 O306 1.235 . S
O302 Fe287 1.976 . S
O302 C296 1.287 . S
O303 Fe289 1.996 . S
O303 C296 1.255 . S
C304 O297 1.287 . S
C304 O298 1.255 . S
O305 Fe287 2.002 . S
O305 C301 1.295 . S
O306 Fe289 1.997 . S
O306 C301 1.235 . S
C307 O290 1.295 . S
C307 O291 1.235 . S
Fe308 O310 1.918 . S
Fe308 O313 1.997 . S
Fe308 O314 2.002 . S
Fe308 O319 1.976 . S
Fe308 O322 1.996 . S
Fe309 O310 1.918 . S
Fe309 O317 1.997 . S
Fe309 O320 1.996 . S
Fe309 O324 1.976 . S
Fe309 O327 2.002 . S
O310 Fe308 1.918 . S
O310 Fe309 1.918 . S
O310 Fe311 1.918 . S
Fe311 O310 1.918 . S
Fe311 O312 2.002 . S
Fe311 O321 1.976 . S
Fe311 O325 1.996 . S
Fe311 O328 1.997 . S
O312 Fe311 2.002 . S
O312 C329 1.295 . S
O313 Fe308 1.997 . S
O313 C329 1.235 . S
O314 Fe308 2.002 . S
O314 C315 1.295 . S
C315 O314 1.295 . S
C315 O317 1.235 . S
C316 O321 1.287 . S
C316 O322 1.255 . S
O317 Fe309 1.997 . S
O317 C315 1.235 . S
C318 O324 1.287 . S
C318 O325 1.255 . S
O319 Fe308 1.976 . S
O319 C326 1.287 . S
O320 Fe309 1.996 . S
O320 C326 1.255 . S
O321 Fe311 1.976 . S
O321 C316 1.287 . S
O322 Fe308 1.996 . S
O322 C316 1.255 . S
C323 O327 1.295 . S
C323 O328 1.235 . S
O324 Fe309 1.976 . S
O324 C318 1.287 . S
O325 Fe311 1.996 . S
O325 C318 1.255 . S
C326 O319 1.287 . S
C326 O320 1.255 . S
O327 Fe309 2.002 . S
O327 C323 1.295 . S
O328 Fe311 1.997 . S
O328 C323 1.235 . S
C329 O312 1.295 . S
C329 O313 1.235 . S
Fe330 O332 1.918 . S
Fe330 O335 1.997 . S
Fe330 O336 2.002 . S
Fe330 O341 1.976 . S
Fe330 O344 1.996 . S
Fe331 O332 1.918 . S
Fe331 O339 1.997 . S
Fe331 O342 1.996 . S
Fe331 O346 1.976 . S
Fe331 O349 2.002 . S
O332 Fe330 1.918 . S
O332 Fe331 1.918 . S
O332 Fe333 1.918 . S
Fe333 O332 1.918 . S
Fe333 O334 2.002 . S
Fe333 O343 1.976 . S
Fe333 O347 1.996 . S
Fe333 O350 1.997 . S
O334 Fe333 2.002 . S
O334 C351 1.295 . S
O335 Fe330 1.997 . S
O335 C351 1.235 . S
O336 Fe330 2.002 . S
O336 C337 1.295 . S
C337 O336 1.295 . S
C337 O339 1.235 . S
C338 O343 1.287 . S
C338 O344 1.255 . S
O339 Fe331 1.997 . S
O339 C337 1.235 . S
C340 O346 1.287 . S
C340 O347 1.255 . S
O341 Fe330 1.976 . S
O341 C348 1.287 . S
O342 Fe331 1.996 . S
O342 C348 1.255 . S
O343 Fe333 1.976 . S
O343 C338 1.287 . S
O344 Fe330 1.996 . S
O344 C338 1.255 . S
C345 O349 1.295 . S
C345 O350 1.235 . S
O346 Fe331 1.976 . S
O346 C340 1.287 . S
O347 Fe333 1.996 . S
O347 C340 1.255 . S
C348 O341 1.287 . S
C348 O342 1.255 . S
O349 Fe331 2.002 . S
O349 C345 1.295 . S
O350 Fe333 1.997 . S
O350 C345 1.235 . S
C351 O334 1.295 . S
C351 O335 1.235 . S
Fe352 O354 1.918 . S
Fe352 O357 1.997 . S
Fe352 O358 2.002 . S
Fe352 O363 1.976 . S
Fe352 O366 1.996 . S
Fe353 O354 1.918 . S
Fe353 O361 1.997 . S
Fe353 O364 1.996 . S
Fe353 O368 1.976 . S
Fe353 O371 2.002 . S
O354 Fe352 1.918 . S
O354 Fe353 1.918 . S
O354 Fe355 1.918 . S
Fe355 O354 1.918 . S
Fe355 O356 2.002 . S
Fe355 O365 1.976 . S
Fe355 O369 1.996 . S
Fe355 O372 1.997 . S
O356 Fe355 2.002 . S
O356 C373 1.295 . S
O357 Fe352 1.997 . S
O357 C373 1.235 . S
O358 Fe352 2.002 . S
O358 C359 1.295 . S
C359 O358 1.295 . S
C359 O361 1.235 . S
C360 O365 1.287 . S
C360 O366 1.255 . S
O361 Fe353 1.997 . S
O361 C359 1.235 . S
C362 O368 1.287 . S
C362 O369 1.255 . S
O363 Fe352 1.976 . S
O363 C370 1.287 . S
O364 Fe353 1.996 . S
O364 C370 1.255 . S
O365 Fe355 1.976 . S
O365 C360 1.287 . S
O366 Fe352 1.996 . S
O366 C360 1.255 . S
C367 O371 1.295 . S
C367 O372 1.235 . S
O368 Fe353 1.976 . S
O368 C362 1.287 . S
O369 Fe355 1.996 . S
O369 C362 1.255 . S
C370 O363 1.287 . S
C370 O364 1.255 . S
O371 Fe353 2.002 . S
O371 C367 1.295 . S
O372 Fe355 1.997 . S
O372 C367 1.235 . S
C373 O356 1.295 . S
C373 O357 1.235 . S
Fe374 O376 1.918 . S
Fe374 O379 1.997 . S
Fe374 O380 2.002 . S
Fe374 O385 1.976 . S
Fe374 O388 1.996 . S
Fe375 O376 1.918 . S
Fe375 O383 1.997 . S
Fe375 O386 1.996 . S
Fe375 O390 1.976 . S
Fe375 O393 2.002 . S
O376 Fe374 1.918 . S
O376 Fe375 1.918 . S
O376 Fe377 1.918 . S
Fe377 O376 1.918 . S
Fe377 O378 2.002 . S
Fe377 O387 1.976 . S
Fe377 O391 1.996 . S
Fe377 O394 1.997 . S
O378 Fe377 2.002 . S
O378 C395 1.295 . S
O379 Fe374 1.997 . S
O379 C395 1.235 . S
O380 Fe374 2.002 . S
O380 C381 1.295 . S
C381 O380 1.295 . S
C381 O383 1.235 . S
C382 O387 1.287 . S
C382 O388 1.255 . S
O383 Fe375 1.997 . S
O383 C381 1.235 . S
C384 O390 1.287 . S
C384 O391 1.255 . S
O385 Fe374 1.976 . S
O385 C392 1.287 . S
O386 Fe375 1.996 . S
O386 C392 1.255 . S
O387 Fe377 1.976 . S
O387 C382 1.287 . S
O388 Fe374 1.996 . S
O388 C382 1.255 . S
C389 O393 1.295 . S
C389 O394 1.235 . S
O390 Fe375 1.976 . S
O390 C384 1.287 . S
O391 Fe377 1.996 . S
O391 C384 1.255 . S
C392 O385 1.287 . S
C392 O386 1.255 . S
O393 Fe375 2.002 . S
O393 C389 1.295 . S
O394 Fe377 1.997 . S
O394 C389 1.235 . S
C395 O378 1.295 . S
C395 O379 1.235 . S
Fe396 O398 1.918 . S
Fe396 O401 1.997 . S
Fe396 O402 2.002 . S
Fe396 O407 1.976 . S
Fe396 O410 1.996 . S
Fe397 O398 1.918 . S
Fe397 O405 1.997 . S
Fe397 O408 1.996 . S
Fe397 O412 1.976 . S
Fe397 O415 2.002 . S
O398 Fe396 1.918 . S
O398 Fe397 1.918 . S
O398 Fe399 1.918 . S
Fe399 O398 1.918 . S
Fe399 O400 2.002 . S
Fe399 O409 1.976 . S
Fe399 O413 1.996 . S
Fe399 O416 1.997 . S
O400 Fe399 2.002 . S
O400 C417 1.295 . S
O401 Fe396 1.997 . S
O401 C417 1.235 . S
O402 Fe396 2.002 . S
O402 C403 1.295 . S
C403 O402 1.295 . S
C403 O405 1.235 . S
C404 O409 1.287 . S
C404 O410 1.255 . S
O405 Fe397 1.997 . S
O405 C403 1.235 . S
C406 O412 1.287 . S
C406 O413 1.255 . S
O407 Fe396 1.976 . S
O407 C414 1.287 . S
O408 Fe397 1.996 . S
O408 C414 1.255 . S
O409 Fe399 1.976 . S
O409 C404 1.287 . S
O410 Fe396 1.996 . S
O410 C404 1.255 . S
C411 O415 1.295 . S
C411 O416 1.235 . S
O412 Fe397 1.976 . S
O412 C406 1.287 . S
O413 Fe399 1.996 . S
O413 C406 1.255 . S
C414 O407 1.287 . S
C414 O408 1.255 . S
O415 Fe397 2.002 . S
O415 C411 1.295 . S
O416 Fe399 1.997 . S
O416 C411 1.235 . S
C417 O400 1.295 . S
C417 O401 1.235 . S
Fe418 O420 1.918 . S
Fe418 O423 1.997 . S
Fe418 O424 2.002 . S
Fe418 O429 1.976 . S
Fe418 O432 1.996 . S
Fe419 O420 1.918 . S
Fe419 O427 1.997 . S
Fe419 O430 1.996 . S
Fe419 O434 1.976 . S
Fe419 O437 2.002 . S
O420 Fe418 1.918 . S
O420 Fe419 1.918 . S
O420 Fe421 1.918 . S
Fe421 O420 1.918 . S
Fe421 O422 2.002 . S
Fe421 O431 1.976 . S
Fe421 O435 1.996 . S
Fe421 O438 1.997 . S
O422 Fe421 2.002 . S
O422 C439 1.295 . S
O423 Fe418 1.997 . S
O423 C439 1.235 . S
O424 Fe418 2.002 . S
O424 C425 1.295 . S
C425 O424 1.295 . S
C425 O427 1.235 . S
C426 O431 1.287 . S
C426 O432 1.255 . S
O427 Fe419 1.997 . S
O427 C425 1.235 . S
C428 O434 1.287 . S
C428 O435 1.255 . S
O429 Fe418 1.976 . S
O429 C436 1.287 . S
O430 Fe419 1.996 . S
O430 C436 1.255 . S
O431 Fe421 1.976 . S
O431 C426 1.287 . S
O432 Fe418 1.996 . S
O432 C426 1.255 . S
C433 O437 1.295 . S
C433 O438 1.235 . S
O434 Fe419 1.976 . S
O434 C428 1.287 . S
O435 Fe421 1.996 . S
O435 C428 1.255 . S
C436 O429 1.287 . S
C436 O430 1.255 . S
O437 Fe419 2.002 . S
O437 C433 1.295 . S
O438 Fe421 1.997 . S
O438 C433 1.235 . S
C439 O422 1.295 . S
C439 O423 1.235 . S
Fe440 O442 1.918 . S
Fe440 O445 1.997 . S
Fe440 O446 2.002 . S
Fe440 O451 1.976 . S
Fe440 O454 1.996 . S
Fe441 O442 1.918 . S
Fe441 O449 1.997 . S
Fe441 O452 1.996 . S
Fe441 O456 1.976 . S
Fe441 O459 2.002 . S
O442 Fe440 1.918 . S
O442 Fe441 1.918 . S
O442 Fe443 1.918 . S
Fe443 O442 1.918 . S
Fe443 O444 2.002 . S
Fe443 O453 1.976 . S
Fe443 O457 1.996 . S
Fe443 O460 1.997 . S
O444 Fe443 2.002 . S
O444 C461 1.295 . S
O445 Fe440 1.997 . S
O445 C461 1.235 . S
O446 Fe440 2.002 . S
O446 C447 1.295 . S
C447 O446 1.295 . S
C447 O449 1.235 . S
C448 O453 1.287 . S
C448 O454 1.255 . S
O449 Fe441 1.997 . S
O449 C447 1.235 . S
C450 O456 1.287 . S
C450 O457 1.255 . S
O451 Fe440 1.976 . S
O451 C458 1.287 . S
O452 Fe441 1.996 . S
O452 C458 1.255 . S
O453 Fe443 1.976 . S
O453 C448 1.287 . S
O454 Fe440 1.996 . S
O454 C448 1.255 . S
C455 O459 1.295 . S
C455 O460 1.235 . S
O456 Fe441 1.976 . S
O456 C450 1.287 . S
O457 Fe443 1.996 . S
O457 C450 1.255 . S
C458 O451 1.287 . S
C458 O452 1.255 . S
O459 Fe441 2.002 . S
O459 C455 1.295 . S
O460 Fe443 1.997 . S
O460 C455 1.235 . S
C461 O444 1.295 . S
C461 O445 1.235 . S
Fe462 O464 1.918 . S
Fe462 O467 1.997 . S
Fe462 O468 2.002 . S
Fe462 O473 1.976 . S
Fe462 O476 1.996 . S
Fe463 O464 1.918 . S
Fe463 O471 1.997 . S
Fe463 O474 1.996 . S
Fe463 O478 1.976 . S
Fe463 O481 2.002 . S
O464 Fe462 1.918 . S
O464 Fe463 1.918 . S
O464 Fe465 1.918 . S
Fe465 O464 1.918 . S
Fe465 O466 2.002 . S
Fe465 O475 1.976 . S
Fe465 O479 1.996 . S
Fe465 O482 1.997 . S
O466 Fe465 2.002 . S
O466 C483 1.295 . S
O467 Fe462 1.997 . S
O467 C483 1.235 . S
O468 Fe462 2.002 . S
O468 C469 1.295 . S
C469 O468 1.295 . S
C469 O471 1.235 . S
C470 O475 1.287 . S
C470 O476 1.255 . S
O471 Fe463 1.997 . S
O471 C469 1.235 . S
C472 O478 1.287 . S
C472 O479 1.255 . S
O473 Fe462 1.976 . S
O473 C480 1.287 . S
O474 Fe463 1.996 . S
O474 C480 1.255 . S
O475 Fe465 1.976 . S
O475 C470 1.287 . S
O476 Fe462 1.996 . S
O476 C470 1.255 . S
C477 O481 1.295 . S
C477 O482 1.235 . S
O478 Fe463 1.976 . S
O478 C472 1.287 . S
O479 Fe465 1.996 . S
O479 C472 1.255 . S
C480 O473 1.287 . S
C480 O474 1.255 . S
O481 Fe463 2.002 . S
O481 C477 1.295 . S
O482 Fe465 1.997 . S
O482 C477 1.235 . S
C483 O466 1.295 . S
C483 O467 1.235 . S
Fe484 O486 1.918 . S
Fe484 O489 1.997 . S
Fe484 O490 2.002 . S
Fe484 O495 1.976 . S
Fe484 O498 1.996 . S
Fe485 O486 1.918 . S
Fe485 O493 1.997 . S
Fe485 O496 1.996 . S
Fe485 O500 1.976 . S
Fe485 O503 2.002 . S
O486 Fe484 1.918 . S
O486 Fe485 1.918 . S
O486 Fe487 1.918 . S
Fe487 O486 1.918 . S
Fe487 O488 2.002 . S
Fe487 O497 1.976 . S
Fe487 O501 1.996 . S
Fe487 O504 1.997 . S
O488 Fe487 2.002 . S
O488 C505 1.295 . S
O489 Fe484 1.997 . S
O489 C505 1.235 . S
O490 Fe484 2.002 . S
O490 C491 1.295 . S
C491 O490 1.295 . S
C491 O493 1.235 . S
C492 O497 1.287 . S
C492 O498 1.255 . S
O493 Fe485 1.997 . S
O493 C491 1.235 . S
C494 O500 1.287 . S
C494 O501 1.255 . S
O495 Fe484 1.976 . S
O495 C502 1.287 . S
O496 Fe485 1.996 . S
O496 C502 1.255 . S
O497 Fe487 1.976 . S
O497 C492 1.287 . S
O498 Fe484 1.996 . S
O498 C492 1.255 . S
C499 O503 1.295 . S
C499 O504 1.235 . S
O500 Fe485 1.976 . S
O500 C494 1.287 . S
O501 Fe487 1.996 . S
O501 C494 1.255 . S
C502 O495 1.287 . S
C502 O496 1.255 . S
O503 Fe485 2.002 . S
O503 C499 1.295 . S
O504 Fe487 1.997 . S
O504 C499 1.235 . S
C505 O488 1.295 . S
C505 O489 1.235 . S
Fe506 O508 1.918 . S
Fe506 O511 1.997 . S
Fe506 O512 2.002 . S
Fe506 O517 1.976 . S
Fe506 O520 1.996 . S
Fe507 O508 1.918 . S
Fe507 O515 1.997 . S
Fe507 O518 1.996 . S
Fe507 O522 1.976 . S
Fe507 O525 2.002 . S
O508 Fe506 1.918 . S
O508 Fe507 1.918 . S
O508 Fe509 1.918 . S
Fe509 O508 1.918 . S
Fe509 O510 2.002 . S
Fe509 O519 1.976 . S
Fe509 O523 1.996 . S
Fe509 O526 1.997 . S
O510 Fe509 2.002 . S
O510 C527 1.295 . S
O511 Fe506 1.997 . S
O511 C527 1.235 . S
O512 Fe506 2.002 . S
O512 C513 1.295 . S
C513 O512 1.295 . S
C513 O515 1.235 . S
C514 O519 1.287 . S
C514 O520 1.255 . S
O515 Fe507 1.997 . S
O515 C513 1.235 . S
C516 O522 1.287 . S
C516 O523 1.255 . S
O517 Fe506 1.976 . S
O517 C524 1.287 . S
O518 Fe507 1.996 . S
O518 C524 1.255 . S
O519 Fe509 1.976 . S
O519 C514 1.287 . S
O520 Fe506 1.996 . S
O520 C514 1.255 . S
C521 O525 1.295 . S
C521 O526 1.235 . S
O522 Fe507 1.976 . S
O522 C516 1.287 . S
O523 Fe509 1.996 . S
O523 C516 1.255 . S
C524 O517 1.287 . S
C524 O518 1.255 . S
O525 Fe507 2.002 . S
O525 C521 1.295 . S
O526 Fe509 1.997 . S
O526 C521 1.235 . S
C527 O510 1.295 . S
C527 O511 1.235 . S
H528 C534 0.930 . S
H529 C538 0.930 . S
H530 C543 0.929 . S
H531 C541 0.929 . S
H532 C536 0.929 . S
H533 C542 0.929 . S
C534 H528 0.930 . S
C534 C535 1.367 . S
C534 C542 1.378 . S
C535 C534 1.367 . S
C535 C543 1.433 . S
C536 H532 0.929 . S
C536 C538 1.378 . S
C536 C540 1.350 . S
C537 C540 1.463 1_556 S
C537 C542 1.350 . S
C537 N545 1.427 . S
C538 H529 0.930 . S
C538 C536 1.378 . S
C538 C539 1.367 . S
C539 C538 1.367 . S
C539 C541 1.433 . S
C540 C536 1.350 . S
C540 C537 1.463 1_554 S
C540 N544 1.427 . S
C541 H531 0.929 . S
C541 C539 1.433 . S
C541 N544 1.384 . S
C542 H533 0.929 . S
C542 C534 1.378 . S
C542 C537 1.350 . S
C543 H530 0.929 . S
C543 C535 1.433 . S
C543 N545 1.384 . S
N544 C540 1.427 . S
N544 C541 1.384 . S
N545 C537 1.427 . S
N545 C543 1.384 . S
H546 C552 0.930 . S
H547 C556 0.930 . S
H548 C561 0.929 . S
H549 C559 0.929 . S
H550 C554 0.929 . S
H551 C560 0.929 . S
C552 H546 0.930 . S
C552 C553 1.367 . S
C552 C560 1.378 . S
C553 C552 1.367 . S
C553 C561 1.433 . S
C554 H550 0.929 . S
C554 C556 1.378 . S
C554 C558 1.350 . S
C555 C558 1.463 . S
C555 C560 1.350 . S
C555 N563 1.427 . S
C556 H547 0.930 . S
C556 C554 1.378 . S
C556 C557 1.367 . S
C557 C556 1.367 . S
C557 C559 1.433 . S
C558 C554 1.350 . S
C558 C555 1.463 . S
C558 N562 1.427 . S
C559 H549 0.929 . S
C559 C557 1.433 . S
C559 N562 1.384 . S
C560 H551 0.929 . S
C560 C552 1.378 . S
C560 C555 1.350 . S
C561 H548 0.929 . S
C561 C553 1.433 . S
C561 N563 1.384 . S
N562 C558 1.427 . S
N562 C559 1.384 . S
N563 C555 1.427 . S
N563 C561 1.384 . S
H564 C570 0.930 . S
H565 C574 0.930 . S
H566 C579 0.929 . S
H567 C577 0.929 . S
H568 C572 0.929 . S
H569 C578 0.929 . S
C570 H564 0.930 . S
C570 C571 1.367 . S
C570 C578 1.378 . S
C571 C570 1.367 . S
C571 C579 1.433 . S
C572 H568 0.929 . S
C572 C574 1.378 . S
C572 C576 1.350 . S
C573 C576 1.463 1_556 S
C573 C578 1.350 . S
C573 N581 1.427 . S
C574 H565 0.930 . S
C574 C572 1.378 . S
C574 C575 1.367 . S
C575 C574 1.367 . S
C575 C577 1.433 . S
C576 C572 1.350 . S
C576 C573 1.463 1_554 S
C576 N580 1.427 . S
C577 H567 0.929 . S
C577 C575 1.433 . S
C577 N580 1.384 . S
C578 H569 0.929 . S
C578 C570 1.378 . S
C578 C573 1.350 . S
C579 H566 0.929 . S
C579 C571 1.433 . S
C579 N581 1.384 . S
N580 C576 1.427 . S
N580 C577 1.384 . S
N581 C573 1.427 . S
N581 C579 1.384 . S
H582 C588 0.930 . S
H583 C592 0.930 . S
H584 C597 0.929 . S
H585 C595 0.929 . S
H586 C590 0.929 . S
H587 C596 0.929 . S
C588 H582 0.930 . S
C588 C589 1.367 . S
C588 C596 1.378 . S
C589 C588 1.367 . S
C589 C597 1.433 . S
C590 H586 0.929 . S
C590 C592 1.378 . S
C590 C594 1.350 . S
C591 C594 1.463 . S
C591 C596 1.350 . S
C591 N599 1.427 . S
C592 H583 0.930 . S
C592 C590 1.378 . S
C592 C593 1.367 . S
C593 C592 1.367 . S
C593 C595 1.433 . S
C594 C590 1.350 . S
C594 C591 1.463 . S
C594 N598 1.427 . S
C595 H585 0.929 . S
C595 C593 1.433 . S
C595 N598 1.384 . S
C596 H587 0.929 . S
C596 C588 1.378 . S
C596 C591 1.350 . S
C597 H584 0.929 . S
C597 C589 1.433 . S
C597 N599 1.384 . S
N598 C594 1.427 . S
N598 C595 1.384 . S
N599 C591 1.427 . S
N599 C597 1.384 . S
H600 C606 0.930 . S
H601 C610 0.930 . S
H602 C615 0.929 . S
H603 C613 0.929 . S
H604 C608 0.929 . S
H605 C614 0.929 . S
C606 H600 0.930 . S
C606 C607 1.367 . S
C606 C614 1.378 . S
C607 C606 1.367 . S
C607 C615 1.433 . S
C608 H604 0.929 . S
C608 C610 1.378 . S
C608 C612 1.350 . S
C609 C612 1.463 1_556 S
C609 C614 1.350 . S
C609 N617 1.427 . S
C610 H601 0.930 . S
C610 C608 1.378 . S
C610 C611 1.367 . S
C611 C610 1.367 . S
C611 C613 1.433 . S
C612 C608 1.350 . S
C612 C609 1.463 1_554 S
C612 N616 1.427 . S
C613 H603 0.929 . S
C613 C611 1.433 . S
C613 N616 1.384 . S
C614 H605 0.929 . S
C614 C606 1.378 . S
C614 C609 1.350 . S
C615 H602 0.929 . S
C615 C607 1.433 . S
C615 N617 1.384 . S
N616 C612 1.427 . S
N616 C613 1.384 . S
N617 C609 1.427 . S
N617 C615 1.384 . S
H618 C624 0.930 . S
H619 C628 0.930 . S
H620 C633 0.929 . S
H621 C631 0.929 . S
H622 C626 0.929 . S
H623 C632 0.929 . S
C624 H618 0.930 . S
C624 C625 1.367 . S
C624 C632 1.378 . S
C625 C624 1.367 . S
C625 C633 1.433 . S
C626 H622 0.929 . S
C626 C628 1.378 . S
C626 C630 1.350 . S
C627 C630 1.463 . S
C627 C632 1.350 . S
C627 N635 1.427 . S
C628 H619 0.930 . S
C628 C626 1.378 . S
C628 C629 1.367 . S
C629 C628 1.367 . S
C629 C631 1.433 . S
C630 C626 1.350 . S
C630 C627 1.463 . S
C630 N634 1.427 . S
C631 H621 0.929 . S
C631 C629 1.433 . S
C631 N634 1.384 . S
C632 H623 0.929 . S
C632 C624 1.378 . S
C632 C627 1.350 . S
C633 H620 0.929 . S
C633 C625 1.433 . S
C633 N635 1.384 . S
N634 C630 1.427 . S
N634 C631 1.384 . S
N635 C627 1.427 . S
N635 C633 1.384 . S
H636 C642 0.930 . S
H637 C646 0.930 . S
H638 C651 0.929 . S
H639 C649 0.929 . S
H640 C644 0.894 1_556 S
H641 C650 0.894 1_554 S
C642 H636 0.930 . S
C642 C643 1.367 . S
C642 C650 1.378 . S
C643 C642 1.367 . S
C643 C651 1.433 . S
C644 H640 0.894 1_554 S
C644 C646 1.378 . S
C644 C648 1.350 . S
C645 C648 1.463 1_556 S
C645 C650 1.350 . S
C645 N653 1.427 . S
C646 H637 0.930 . S
C646 C644 1.378 . S
C646 C647 1.367 . S
C647 C646 1.367 . S
C647 C649 1.433 . S
C648 C644 1.350 . S
C648 C645 1.463 1_554 S
C648 N652 1.427 . S
C649 H639 0.929 . S
C649 C647 1.433 . S
C649 N652 1.384 . S
C650 H641 0.894 1_556 S
C650 C642 1.378 . S
C650 C645 1.350 . S
C651 H638 0.929 . S
C651 C643 1.433 . S
C651 N653 1.384 . S
N652 C648 1.427 . S
N652 C649 1.384 . S
N653 C645 1.427 . S
N653 C651 1.384 . S
H654 C660 0.930 . S
H655 C664 0.930 . S
H656 C669 0.929 . S
H657 C667 0.929 . S
H658 C662 0.929 . S
H659 C668 0.929 . S
C660 H654 0.930 . S
C660 C661 1.367 . S
C660 C668 1.378 . S
C661 C660 1.367 . S
C661 C669 1.433 . S
C662 H658 0.929 . S
C662 C664 1.378 . S
C662 C666 1.350 . S
C663 C666 1.463 . S
C663 C668 1.350 . S
C663 N671 1.427 . S
C664 H655 0.930 . S
C664 C662 1.378 . S
C664 C665 1.367 . S
C665 C664 1.367 . S
C665 C667 1.433 . S
C666 C662 1.350 . S
C666 C663 1.463 . S
C666 N670 1.427 . S
C667 H657 0.929 . S
C667 C665 1.433 . S
C667 N670 1.384 . S
C668 H659 0.929 . S
C668 C660 1.378 . S
C668 C663 1.350 . S
C669 H656 0.929 . S
C669 C661 1.433 . S
C669 N671 1.384 . S
N670 C666 1.427 . S
N670 C667 1.384 . S
N671 C663 1.427 . S
N671 C669 1.384 . S
H672 C678 0.930 . S
H673 C682 0.930 . S
H674 C687 0.929 . S
H675 C685 0.929 . S
H676 C680 0.929 1_554 S
H677 C686 0.929 1_556 S
C678 H672 0.930 . S
C678 C679 1.367 . S
C678 C686 1.378 . S
C679 C678 1.367 . S
C679 C687 1.433 . S
C680 H676 0.929 1_556 S
C680 C682 1.378 . S
C680 C684 1.350 . S
C681 C684 1.463 1_554 S
C681 C686 1.350 . S
C681 N689 1.427 . S
C682 H673 0.930 . S
C682 C680 1.378 . S
C682 C683 1.367 . S
C683 C682 1.367 . S
C683 C685 1.433 . S
C684 C680 1.350 . S
C684 C681 1.463 1_556 S
C684 N688 1.427 . S
C685 H675 0.929 . S
C685 C683 1.433 . S
C685 N688 1.384 . S
C686 H677 0.929 1_554 S
C686 C678 1.378 . S
C686 C681 1.350 . S
C687 H674 0.929 . S
C687 C679 1.433 . S
C687 N689 1.384 . S
N688 C684 1.427 . S
N688 C685 1.384 . S
N689 C681 1.427 . S
N689 C687 1.384 . S
H690 C696 0.930 . S
H691 C700 0.930 . S
H692 C705 0.929 . S
H693 C703 0.929 . S
H694 C698 0.929 . S
H695 C704 0.929 . S
C696 H690 0.930 . S
C696 C697 1.367 . S
C696 C704 1.378 . S
C697 C696 1.367 . S
C697 C705 1.433 . S
C698 H694 0.929 . S
C698 C700 1.378 . S
C698 C702 1.350 . S
C699 C702 1.463 . S
C699 C704 1.350 . S
C699 N707 1.427 . S
C700 H691 0.930 . S
C700 C698 1.378 . S
C700 C701 1.367 . S
C701 C700 1.367 . S
C701 C703 1.433 . S
C702 C698 1.350 . S
C702 C699 1.463 . S
C702 N706 1.427 . S
C703 H693 0.929 . S
C703 C701 1.433 . S
C703 N706 1.384 . S
C704 H695 0.929 . S
C704 C696 1.378 . S
C704 C699 1.350 . S
C705 H692 0.929 . S
C705 C697 1.433 . S
C705 N707 1.384 . S
N706 C702 1.427 . S
N706 C703 1.384 . S
N707 C699 1.427 . S
N707 C705 1.384 . S
H708 C714 0.930 . S
H709 C718 0.930 . S
H710 C723 0.929 . S
H711 C721 0.929 . S
H712 C716 0.910 1_556 S
H713 C722 0.910 1_554 S
C714 H708 0.930 . S
C714 C715 1.367 . S
C714 C722 1.378 . S
C715 C714 1.367 . S
C715 C723 1.433 . S
C716 H712 0.910 1_554 S
C716 C718 1.378 . S
C716 C720 1.350 . S
C717 C720 1.463 1_556 S
C717 C722 1.350 . S
C717 N725 1.427 . S
C718 H709 0.930 . S
C718 C716 1.378 . S
C718 C719 1.367 . S
C719 C718 1.367 . S
C719 C721 1.433 . S
C720 C716 1.350 . S
C720 C717 1.463 1_554 S
C720 N724 1.427 . S
C721 H711 0.929 . S
C721 C719 1.433 . S
C721 N724 1.384 . S
C722 H713 0.910 1_556 S
C722 C714 1.378 . S
C722 C717 1.350 . S
C723 H710 0.929 . S
C723 C715 1.433 . S
C723 N725 1.384 . S
N724 C720 1.427 . S
N724 C721 1.384 . S
N725 C717 1.427 . S
N725 C723 1.384 . S
H726 C732 0.930 . S
H727 C736 0.930 . S
H728 C741 0.929 . S
H729 C739 0.929 . S
H730 C734 0.929 . S
H731 C740 0.929 . S
C732 H726 0.930 . S
C732 C733 1.367 . S
C732 C740 1.378 . S
C733 C732 1.367 . S
C733 C741 1.433 . S
C734 H730 0.929 . S
C734 C736 1.378 . S
C734 C738 1.350 . S
C735 C738 1.463 . S
C735 C740 1.350 . S
C735 N743 1.427 . S
C736 H727 0.930 . S
C736 C734 1.378 . S
C736 C737 1.367 . S
C737 C736 1.367 . S
C737 C739 1.433 . S
C738 C734 1.350 . S
C738 C735 1.463 . S
C738 N742 1.427 . S
C739 H729 0.929 . S
C739 C737 1.433 . S
C739 N742 1.384 . S
C740 H731 0.929 . S
C740 C732 1.378 . S
C740 C735 1.350 . S
C741 H728 0.929 . S
C741 C733 1.433 . S
C741 N743 1.384 . S
N742 C738 1.427 . S
N742 C739 1.384 . S
N743 C735 1.427 . S
N743 C741 1.384 . S
H744 C750 0.930 . S
H745 C754 0.930 . S
H746 C759 0.929 . S
H747 C757 0.929 . S
H748 C752 0.929 . S
H749 C758 0.929 . S
C750 H744 0.930 . S
C750 C751 1.367 . S
C750 C758 1.378 . S
C751 C750 1.367 . S
C751 C759 1.433 . S
C752 H748 0.929 . S
C752 C754 1.378 . S
C752 C756 1.350 . S
C753 C756 1.463 . S
C753 C758 1.350 . S
C753 N761 1.427 . S
C754 H745 0.930 . S
C754 C752 1.378 . S
C754 C755 1.367 . S
C755 C754 1.367 . S
C755 C757 1.433 . S
C756 C752 1.350 . S
C756 C753 1.463 . S
C756 N760 1.427 . S
C757 H747 0.929 . S
C757 C755 1.433 . S
C757 N760 1.384 . S
C758 H749 0.929 . S
C758 C750 1.378 . S
C758 C753 1.350 . S
C759 H746 0.929 . S
C759 C751 1.433 . S
C759 N761 1.384 . S
N760 C756 1.427 . S
N760 C757 1.384 . S
N761 C753 1.427 . S
N761 C759 1.384 . S
H762 C768 0.930 . S
H763 C772 0.930 . S
H764 C777 0.929 . S
H765 C775 0.929 . S
H766 C770 0.929 . S
H767 C776 0.929 . S
C768 H762 0.930 . S
C768 C769 1.367 . S
C768 C776 1.378 . S
C769 C768 1.367 . S
C769 C777 1.433 . S
C770 H766 0.929 . S
C770 C772 1.378 . S
C770 C774 1.350 . S
C771 C774 1.463 . S
C771 C776 1.350 . S
C771 N779 1.427 . S
C772 H763 0.930 . S
C772 C770 1.378 . S
C772 C773 1.367 . S
C773 C772 1.367 . S
C773 C775 1.433 . S
C774 C770 1.350 . S
C774 C771 1.463 . S
C774 N778 1.427 . S
C775 H765 0.929 . S
C775 C773 1.433 . S
C775 N778 1.384 . S
C776 H767 0.929 . S
C776 C768 1.378 . S
C776 C771 1.350 . S
C777 H764 0.929 . S
C777 C769 1.433 . S
C777 N779 1.384 . S
N778 C774 1.427 . S
N778 C775 1.384 . S
N779 C771 1.427 . S
N779 C777 1.384 . S
H780 C786 0.930 . S
H781 C790 0.930 . S
H782 C795 0.929 . S
H783 C793 0.929 . S
H784 C788 0.929 . S
H785 C794 0.929 . S
C786 H780 0.930 . S
C786 C787 1.367 . S
C786 C794 1.378 . S
C787 C786 1.367 . S
C787 C795 1.433 . S
C788 H784 0.929 . S
C788 C790 1.378 . S
C788 C792 1.350 . S
C789 C792 1.463 . S
C789 C794 1.350 . S
C789 N797 1.427 . S
C790 H781 0.930 . S
C790 C788 1.378 . S
C790 C791 1.367 . S
C791 C790 1.367 . S
C791 C793 1.433 . S
C792 C788 1.350 . S
C792 C789 1.463 . S
C792 N796 1.427 . S
C793 H783 0.929 . S
C793 C791 1.433 . S
C793 N796 1.384 . S
C794 H785 0.929 . S
C794 C786 1.378 . S
C794 C789 1.350 . S
C795 H782 0.929 . S
C795 C787 1.433 . S
C795 N797 1.384 . S
N796 C792 1.427 . S
N796 C793 1.384 . S
N797 C789 1.427 . S
N797 C795 1.384 . S
H798 C804 0.930 . S
H799 C808 0.930 . S
H800 C813 0.929 . S
H801 C811 0.929 . S
H802 C806 0.929 . S
H803 C812 0.929 . S
C804 H798 0.930 . S
C804 C805 1.367 . S
C804 C812 1.378 . S
C805 C804 1.367 . S
C805 C813 1.433 . S
C806 H802 0.929 . S
C806 C808 1.378 . S
C806 C810 1.350 . S
C807 C810 1.463 . S
C807 C812 1.350 . S
C807 N815 1.427 . S
C808 H799 0.930 . S
C808 C806 1.378 . S
C808 C809 1.367 . S
C809 C808 1.367 . S
C809 C811 1.433 . S
C810 C806 1.350 . S
C810 C807 1.463 . S
C810 N814 1.427 . S
C811 H801 0.929 . S
C811 C809 1.433 . S
C811 N814 1.384 . S
C812 H803 0.929 . S
C812 C804 1.378 . S
C812 C807 1.350 . S
C813 H800 0.929 . S
C813 C805 1.433 . S
C813 N815 1.384 . S
N814 C810 1.427 . S
N814 C811 1.384 . S
N815 C807 1.427 . S
N815 C813 1.384 . S
H816 C822 0.930 . S
H817 C826 0.930 . S
H818 C831 0.929 . S
H819 C829 0.929 . S
H820 C824 0.929 . S
H821 C830 0.929 . S
C822 H816 0.930 . S
C822 C823 1.367 . S
C822 C830 1.378 . S
C823 C822 1.367 . S
C823 C831 1.433 . S
C824 H820 0.929 . S
C824 C826 1.378 . S
C824 C828 1.350 . S
C825 C828 1.463 . S
C825 C830 1.350 . S
C825 N833 1.427 . S
C826 H817 0.930 . S
C826 C824 1.378 . S
C826 C827 1.367 . S
C827 C826 1.367 . S
C827 C829 1.433 . S
C828 C824 1.350 . S
C828 C825 1.463 . S
C828 N832 1.427 . S
C829 H819 0.929 . S
C829 C827 1.433 . S
C829 N832 1.384 . S
C830 H821 0.929 . S
C830 C822 1.378 . S
C830 C825 1.350 . S
C831 H818 0.929 . S
C831 C823 1.433 . S
C831 N833 1.384 . S
N832 C828 1.427 . S
N832 C829 1.384 . S
N833 C825 1.427 . S
N833 C831 1.384 . S
H834 C840 0.930 . S
H835 C844 0.930 . S
H836 C849 0.929 . S
H837 C847 0.929 . S
H838 C842 0.929 . S
H839 C848 0.929 . S
C840 H834 0.930 . S
C840 C841 1.367 . S
C840 C848 1.378 . S
C841 C840 1.367 . S
C841 C849 1.433 . S
C842 H838 0.929 . S
C842 C844 1.378 . S
C842 C846 1.350 . S
C843 C846 1.463 . S
C843 C848 1.350 . S
C843 N851 1.427 . S
C844 H835 0.930 . S
C844 C842 1.378 . S
C844 C845 1.367 . S
C845 C844 1.367 . S
C845 C847 1.433 . S
C846 C842 1.350 . S
C846 C843 1.463 . S
C846 N850 1.427 . S
C847 H837 0.929 . S
C847 C845 1.433 . S
C847 N850 1.384 . S
C848 H839 0.929 . S
C848 C840 1.378 . S
C848 C843 1.350 . S
C849 H836 0.929 . S
C849 C841 1.433 . S
C849 N851 1.384 . S
N850 C846 1.427 . S
N850 C847 1.384 . S
N851 C843 1.427 . S
N851 C849 1.384 . S
H852 C858 0.930 . S
H853 C862 0.930 . S
H854 C867 0.929 . S
H855 C865 0.929 . S
H856 C860 0.929 . S
H857 C866 0.929 . S
C858 H852 0.930 . S
C858 C859 1.367 . S
C858 C866 1.378 . S
C859 C858 1.367 . S
C859 C867 1.433 . S
C860 H856 0.929 . S
C860 C862 1.378 . S
C860 C864 1.350 . S
C861 C864 1.463 . S
C861 C866 1.350 . S
C861 N869 1.427 . S
C862 H853 0.930 . S
C862 C860 1.378 . S
C862 C863 1.367 . S
C863 C862 1.367 . S
C863 C865 1.433 . S
C864 C860 1.350 . S
C864 C861 1.463 . S
C864 N868 1.427 . S
C865 H855 0.929 . S
C865 C863 1.433 . S
C865 N868 1.384 . S
C866 H857 0.929 . S
C866 C858 1.378 . S
C866 C861 1.350 . S
C867 H854 0.929 . S
C867 C859 1.433 . S
C867 N869 1.384 . S
N868 C864 1.427 . S
N868 C865 1.384 . S
N869 C861 1.427 . S
N869 C867 1.384 . S
H870 C876 0.930 . S
H871 C880 0.930 . S
H872 C885 0.929 . S
H873 C883 0.929 . S
H874 C878 0.929 . S
H875 C884 0.929 . S
C876 H870 0.930 . S
C876 C877 1.367 . S
C876 C884 1.378 . S
C877 C876 1.367 . S
C877 C885 1.433 . S
C878 H874 0.929 . S
C878 C880 1.378 . S
C878 C882 1.350 . S
C879 C882 1.463 . S
C879 C884 1.350 . S
C879 N887 1.427 . S
C880 H871 0.930 . S
C880 C878 1.378 . S
C880 C881 1.367 . S
C881 C880 1.367 . S
C881 C883 1.433 . S
C882 C878 1.350 . S
C882 C879 1.463 . S
C882 N886 1.427 . S
C883 H873 0.929 . S
C883 C881 1.433 . S
C883 N886 1.384 . S
C884 H875 0.929 . S
C884 C876 1.378 . S
C884 C879 1.350 . S
C885 H872 0.929 . S
C885 C877 1.433 . S
C885 N887 1.384 . S
N886 C882 1.427 . S
N886 C883 1.384 . S
N887 C879 1.427 . S
N887 C885 1.384 . S
H888 C894 0.930 . S
H889 C898 0.930 . S
H890 C903 0.929 . S
H891 C901 0.929 . S
H892 C896 0.929 . S
H893 C902 0.929 . S
C894 H888 0.930 . S
C894 C895 1.367 . S
C894 C902 1.378 . S
C895 C894 1.367 . S
C895 C903 1.433 . S
C896 H892 0.929 . S
C896 C898 1.378 . S
C896 C900 1.350 . S
C897 C900 1.463 . S
C897 C902 1.350 . S
C897 N905 1.427 . S
C898 H889 0.930 . S
C898 C896 1.378 . S
C898 C899 1.367 . S
C899 C898 1.367 . S
C899 C901 1.433 . S
C900 C896 1.350 . S
C900 C897 1.463 . S
C900 N904 1.427 . S
C901 H891 0.929 . S
C901 C899 1.433 . S
C901 N904 1.384 . S
C902 H893 0.929 . S
C902 C894 1.378 . S
C902 C897 1.350 . S
C903 H890 0.929 . S
C903 C895 1.433 . S
C903 N905 1.384 . S
N904 C900 1.427 . S
N904 C901 1.384 . S
N905 C897 1.427 . S
N905 C903 1.384 . S
H906 C912 0.930 . S
H907 C916 0.930 . S
H908 C921 0.929 . S
H909 C919 0.929 . S
H910 C914 0.929 . S
H911 C920 0.929 . S
C912 H906 0.930 . S
C912 C913 1.367 . S
C912 C920 1.378 . S
C913 C912 1.367 . S
C913 C921 1.433 . S
C914 H910 0.929 . S
C914 C916 1.378 . S
C914 C918 1.350 . S
C915 C918 1.463 . S
C915 C920 1.350 . S
C915 N923 1.427 . S
C916 H907 0.930 . S
C916 C914 1.378 . S
C916 C917 1.367 . S
C917 C916 1.367 . S
C917 C919 1.433 . S
C918 C914 1.350 . S
C918 C915 1.463 . S
C918 N922 1.427 . S
C919 H909 0.929 . S
C919 C917 1.433 . S
C919 N922 1.384 . S
C920 H911 0.929 . S
C920 C912 1.378 . S
C920 C915 1.350 . S
C921 H908 0.929 . S
C921 C913 1.433 . S
C921 N923 1.384 . S
N922 C918 1.427 . S
N922 C919 1.384 . S
N923 C915 1.427 . S
N923 C921 1.384 . S
H924 C930 0.930 . S
H925 C934 0.930 . S
H926 C939 0.929 . S
H927 C937 0.929 . S
H928 C932 0.929 . S
H929 C938 0.929 . S
C930 H924 0.930 . S
C930 C931 1.367 . S
C930 C938 1.378 . S
C931 C930 1.367 . S
C931 C939 1.433 . S
C932 H928 0.929 . S
C932 C934 1.378 . S
C932 C936 1.350 . S
C933 C936 1.463 . S
C933 C938 1.350 . S
C933 N941 1.427 . S
C934 H925 0.930 . S
C934 C932 1.378 . S
C934 C935 1.367 . S
C935 C934 1.367 . S
C935 C937 1.433 . S
C936 C932 1.350 . S
C936 C933 1.463 . S
C936 N940 1.427 . S
C937 H927 0.929 . S
C937 C935 1.433 . S
C937 N940 1.384 . S
C938 H929 0.929 . S
C938 C930 1.378 . S
C938 C933 1.350 . S
C939 H926 0.929 . S
C939 C931 1.433 . S
C939 N941 1.384 . S
N940 C936 1.427 . S
N940 C937 1.384 . S
N941 C933 1.427 . S
N941 C939 1.384 . S
H942 C948 0.930 . S
H943 C952 0.930 . S
H944 C957 0.929 . S
H945 C955 0.929 . S
H946 C950 0.929 . S
H947 C956 0.929 . S
C948 H942 0.930 . S
C948 C949 1.367 . S
C948 C956 1.378 . S
C949 C948 1.367 . S
C949 C957 1.433 . S
C950 H946 0.929 . S
C950 C952 1.378 . S
C950 C954 1.350 . S
C951 C954 1.463 . S
C951 C956 1.350 . S
C951 N959 1.427 . S
C952 H943 0.930 . S
C952 C950 1.378 . S
C952 C953 1.367 . S
C953 C952 1.367 . S
C953 C955 1.433 . S
C954 C950 1.350 . S
C954 C951 1.463 . S
C954 N958 1.427 . S
C955 H945 0.929 . S
C955 C953 1.433 . S
C955 N958 1.384 . S
C956 H947 0.929 . S
C956 C948 1.378 . S
C956 C951 1.350 . S
C957 H944 0.929 . S
C957 C949 1.433 . S
C957 N959 1.384 . S
N958 C954 1.427 . S
N958 C955 1.384 . S
N959 C951 1.427 . S
N959 C957 1.384 . S
H960 C966 0.930 . S
H961 C970 0.930 . S
H962 C975 0.929 . S
H963 C973 0.929 . S
H964 C968 0.929 . S
H965 C974 0.929 . S
C966 H960 0.930 . S
C966 C967 1.367 . S
C966 C974 1.378 . S
C967 C966 1.367 . S
C967 C975 1.433 . S
C968 H964 0.929 . S
C968 C970 1.378 . S
C968 C972 1.350 . S
C969 C972 1.463 . S
C969 C974 1.350 . S
C969 N977 1.427 . S
C970 H961 0.930 . S
C970 C968 1.378 . S
C970 C971 1.367 . S
C971 C970 1.367 . S
C971 C973 1.433 . S
C972 C968 1.350 . S
C972 C969 1.463 . S
C972 N976 1.427 . S
C973 H963 0.929 . S
C973 C971 1.433 . S
C973 N976 1.384 . S
C974 H965 0.929 . S
C974 C966 1.378 . S
C974 C969 1.350 . S
C975 H962 0.929 . S
C975 C967 1.433 . S
C975 N977 1.384 . S
N976 C972 1.427 . S
N976 C973 1.384 . S
N977 C969 1.427 . S
N977 C975 1.384 . S
H978 C984 0.930 . S
H979 C988 0.930 . S
H980 C993 0.929 . S
H981 C991 0.929 . S
H982 C986 0.929 . S
H983 C992 0.929 . S
C984 H978 0.930 . S
C984 C985 1.367 . S
C984 C992 1.378 . S
C985 C984 1.367 . S
C985 C993 1.433 . S
C986 H982 0.929 . S
C986 C988 1.378 . S
C986 C990 1.350 . S
C987 C990 1.463 . S
C987 C992 1.350 . S
C987 N995 1.427 . S
C988 H979 0.930 . S
C988 C986 1.378 . S
C988 C989 1.367 . S
C989 C988 1.367 . S
C989 C991 1.433 . S
C990 C986 1.350 . S
C990 C987 1.463 . S
C990 N994 1.427 . S
C991 H981 0.929 . S
C991 C989 1.433 . S
C991 N994 1.384 . S
C992 H983 0.929 . S
C992 C984 1.378 . S
C992 C987 1.350 . S
C993 H980 0.929 . S
C993 C985 1.433 . S
C993 N995 1.384 . S
N994 C990 1.427 . S
N994 C991 1.384 . S
N995 C987 1.427 . S
N995 C993 1.384 . S
H996 C1002 0.930 . S
H997 C1006 0.930 . S
H998 C1011 0.929 . S
H999 C1009 0.929 . S
H1000 C1004 0.929 . S
H1001 C1010 0.929 . S
C1002 H996 0.930 . S
C1002 C1003 1.367 . S
C1002 C1010 1.378 . S
C1003 C1002 1.367 . S
C1003 C1011 1.433 . S
C1004 H1000 0.929 . S
C1004 C1006 1.378 . S
C1004 C1008 1.350 . S
C1005 C1008 1.463 . S
C1005 C1010 1.350 . S
C1005 N1013 1.427 . S
C1006 H997 0.930 . S
C1006 C1004 1.378 . S
C1006 C1007 1.367 . S
C1007 C1006 1.367 . S
C1007 C1009 1.433 . S
C1008 C1004 1.350 . S
C1008 C1005 1.463 . S
C1008 N1012 1.427 . S
C1009 H999 0.929 . S
C1009 C1007 1.433 . S
C1009 N1012 1.384 . S
C1010 H1001 0.929 . S
C1010 C1002 1.378 . S
C1010 C1005 1.350 . S
C1011 H998 0.929 . S
C1011 C1003 1.433 . S
C1011 N1013 1.384 . S
N1012 C1008 1.427 . S
N1012 C1009 1.384 . S
N1013 C1005 1.427 . S
N1013 C1011 1.384 . S
H1014 C1020 0.930 . S
H1015 C1024 0.930 . S
H1016 C1029 0.929 . S
H1017 C1027 0.929 . S
H1018 C1022 0.929 . S
H1019 C1028 0.929 . S
C1020 H1014 0.930 . S
C1020 C1021 1.367 . S
C1020 C1028 1.378 . S
C1021 C1020 1.367 . S
C1021 C1029 1.433 . S
C1022 H1018 0.929 . S
C1022 C1024 1.378 . S
C1022 C1026 1.350 . S
C1023 C1026 1.463 . S
C1023 C1028 1.350 . S
C1023 N1031 1.427 . S
C1024 H1015 0.930 . S
C1024 C1022 1.378 . S
C1024 C1025 1.367 . S
C1025 C1024 1.367 . S
C1025 C1027 1.433 . S
C1026 C1022 1.350 . S
C1026 C1023 1.463 . S
C1026 N1030 1.427 . S
C1027 H1017 0.929 . S
C1027 C1025 1.433 . S
C1027 N1030 1.384 . S
C1028 H1019 0.929 . S
C1028 C1020 1.378 . S
C1028 C1023 1.350 . S
C1029 H1016 0.929 . S
C1029 C1021 1.433 . S
C1029 N1031 1.384 . S
N1030 C1026 1.427 . S
N1030 C1027 1.384 . S
N1031 C1023 1.427 . S
N1031 C1029 1.384 . S
H1032 C1038 0.930 . S
H1033 C1042 0.930 . S
H1034 C1047 0.929 . S
H1035 C1045 0.929 . S
H1036 C1040 0.929 . S
H1037 C1046 0.929 . S
C1038 H1032 0.930 . S
C1038 C1039 1.367 . S
C1038 C1046 1.378 . S
C1039 C1038 1.367 . S
C1039 C1047 1.433 . S
C1040 H1036 0.929 . S
C1040 C1042 1.378 . S
C1040 C1044 1.350 . S
C1041 C1044 1.463 . S
C1041 C1046 1.350 . S
C1041 N1049 1.427 . S
C1042 H1033 0.930 . S
C1042 C1040 1.378 . S
C1042 C1043 1.367 . S
C1043 C1042 1.367 . S
C1043 C1045 1.433 . S
C1044 C1040 1.350 . S
C1044 C1041 1.463 . S
C1044 N1048 1.427 . S
C1045 H1035 0.929 . S
C1045 C1043 1.433 . S
C1045 N1048 1.384 . S
C1046 H1037 0.929 . S
C1046 C1038 1.378 . S
C1046 C1041 1.350 . S
C1047 H1034 0.929 . S
C1047 C1039 1.433 . S
C1047 N1049 1.384 . S
N1048 C1044 1.427 . S
N1048 C1045 1.384 . S
N1049 C1041 1.427 . S
N1049 C1047 1.384 . S
H1050 C1056 0.930 . S
H1051 C1060 0.930 . S
H1052 C1065 0.929 . S
H1053 C1063 0.929 . S
H1054 C1058 0.929 . S
H1055 C1064 0.929 . S
C1056 H1050 0.930 . S
C1056 C1057 1.367 . S
C1056 C1064 1.378 . S
C1057 C1056 1.367 . S
C1057 C1065 1.433 . S
C1058 H1054 0.929 . S
C1058 C1060 1.378 . S
C1058 C1062 1.350 . S
C1059 C1062 1.463 . S
C1059 C1064 1.350 . S
C1059 N1067 1.427 . S
C1060 H1051 0.930 . S
C1060 C1058 1.378 . S
C1060 C1061 1.367 . S
C1061 C1060 1.367 . S
C1061 C1063 1.433 . S
C1062 C1058 1.350 . S
C1062 C1059 1.463 . S
C1062 N1066 1.427 . S
C1063 H1053 0.929 . S
C1063 C1061 1.433 . S
C1063 N1066 1.384 . S
C1064 H1055 0.929 . S
C1064 C1056 1.378 . S
C1064 C1059 1.350 . S
C1065 H1052 0.929 . S
C1065 C1057 1.433 . S
C1065 N1067 1.384 . S
N1066 C1062 1.427 . S
N1066 C1063 1.384 . S
N1067 C1059 1.427 . S
N1067 C1065 1.384 . S
H1068 C1074 0.930 . S
H1069 C1078 0.930 . S
H1070 C1083 0.929 . S
H1071 C1081 0.929 . S
H1072 C1076 0.929 . S
H1073 C1082 0.929 . S
C1074 H1068 0.930 . S
C1074 C1075 1.367 . S
C1074 C1082 1.378 . S
C1075 C1074 1.367 . S
C1075 C1083 1.433 . S
C1076 H1072 0.929 . S
C1076 C1078 1.378 . S
C1076 C1080 1.350 . S
C1077 C1080 1.463 . S
C1077 C1082 1.350 . S
C1077 N1085 1.427 . S
C1078 H1069 0.930 . S
C1078 C1076 1.378 . S
C1078 C1079 1.367 . S
C1079 C1078 1.367 . S
C1079 C1081 1.433 . S
C1080 C1076 1.350 . S
C1080 C1077 1.463 . S
C1080 N1084 1.427 . S
C1081 H1071 0.929 . S
C1081 C1079 1.433 . S
C1081 N1084 1.384 . S
C1082 H1073 0.929 . S
C1082 C1074 1.378 . S
C1082 C1077 1.350 . S
C1083 H1070 0.929 . S
C1083 C1075 1.433 . S
C1083 N1085 1.384 . S
N1084 C1080 1.427 . S
N1084 C1081 1.384 . S
N1085 C1077 1.427 . S
N1085 C1083 1.384 . S
H1086 C1092 0.930 . S
H1087 C1096 0.930 . S
H1088 C1101 0.929 . S
H1089 C1099 0.929 . S
H1090 C1094 0.929 . S
H1091 C1100 0.929 . S
C1092 H1086 0.930 . S
C1092 C1093 1.367 . S
C1092 C1100 1.378 . S
C1093 C1092 1.367 . S
C1093 C1101 1.433 . S
C1094 H1090 0.929 . S
C1094 C1096 1.378 . S
C1094 C1098 1.350 . S
C1095 C1098 1.463 . S
C1095 C1100 1.350 . S
C1095 N1103 1.427 . S
C1096 H1087 0.930 . S
C1096 C1094 1.378 . S
C1096 C1097 1.367 . S
C1097 C1096 1.367 . S
C1097 C1099 1.433 . S
C1098 C1094 1.350 . S
C1098 C1095 1.463 . S
C1098 N1102 1.427 . S
C1099 H1089 0.929 . S
C1099 C1097 1.433 . S
C1099 N1102 1.384 . S
C1100 H1091 0.929 . S
C1100 C1092 1.378 . S
C1100 C1095 1.350 . S
C1101 H1088 0.929 . S
C1101 C1093 1.433 . S
C1101 N1103 1.384 . S
N1102 C1098 1.427 . S
N1102 C1099 1.384 . S
N1103 C1095 1.427 . S
N1103 C1101 1.384 . S
H1104 C1110 0.930 . S
H1105 C1114 0.930 . S
H1106 C1119 0.929 . S
H1107 C1117 0.929 . S
H1108 C1112 0.929 . S
H1109 C1118 0.929 . S
C1110 H1104 0.930 . S
C1110 C1111 1.367 . S
C1110 C1118 1.378 . S
C1111 C1110 1.367 . S
C1111 C1119 1.433 . S
C1112 H1108 0.929 . S
C1112 C1114 1.378 . S
C1112 C1116 1.350 . S
C1113 C1116 1.463 . S
C1113 C1118 1.350 . S
C1113 N1121 1.427 . S
C1114 H1105 0.930 . S
C1114 C1112 1.378 . S
C1114 C1115 1.367 . S
C1115 C1114 1.367 . S
C1115 C1117 1.433 . S
C1116 C1112 1.350 . S
C1116 C1113 1.463 . S
C1116 N1120 1.427 . S
C1117 H1107 0.929 . S
C1117 C1115 1.433 . S
C1117 N1120 1.384 . S
C1118 H1109 0.929 . S
C1118 C1110 1.378 . S
C1118 C1113 1.350 . S
C1119 H1106 0.929 . S
C1119 C1111 1.433 . S
C1119 N1121 1.384 . S
N1120 C1116 1.427 . S
N1120 C1117 1.384 . S
N1121 C1113 1.427 . S
N1121 C1119 1.384 . S
H1122 C1128 0.930 . S
H1123 C1132 0.930 . S
H1124 C1137 0.929 . S
H1125 C1135 0.929 . S
H1126 C1130 0.929 . S
H1127 C1136 0.929 . S
C1128 H1122 0.930 . S
C1128 C1129 1.367 . S
C1128 C1136 1.378 . S
C1129 C1128 1.367 . S
C1129 C1137 1.433 . S
C1130 H1126 0.929 . S
C1130 C1132 1.378 . S
C1130 C1134 1.350 . S
C1131 C1134 1.463 . S
C1131 C1136 1.350 . S
C1131 N1139 1.427 . S
C1132 H1123 0.930 . S
C1132 C1130 1.378 . S
C1132 C1133 1.367 . S
C1133 C1132 1.367 . S
C1133 C1135 1.433 . S
C1134 C1130 1.350 . S
C1134 C1131 1.463 . S
C1134 N1138 1.427 . S
C1135 H1125 0.929 . S
C1135 C1133 1.433 . S
C1135 N1138 1.384 . S
C1136 H1127 0.929 . S
C1136 C1128 1.378 . S
C1136 C1131 1.350 . S
C1137 H1124 0.929 . S
C1137 C1129 1.433 . S
C1137 N1139 1.384 . S
N1138 C1134 1.427 . S
N1138 C1135 1.384 . S
N1139 C1131 1.427 . S
N1139 C1137 1.384 . S
H1140 C1146 0.930 . S
H1141 C1150 0.930 . S
H1142 C1155 0.929 . S
H1143 C1153 0.929 . S
H1144 C1148 0.929 . S
H1145 C1154 0.929 . S
C1146 H1140 0.930 . S
C1146 C1147 1.367 . S
C1146 C1154 1.378 . S
C1147 C1146 1.367 . S
C1147 C1155 1.433 . S
C1148 H1144 0.929 . S
C1148 C1150 1.378 . S
C1148 C1152 1.350 . S
C1149 C1152 1.463 . S
C1149 C1154 1.350 . S
C1149 N1157 1.427 . S
C1150 H1141 0.930 . S
C1150 C1148 1.378 . S
C1150 C1151 1.367 . S
C1151 C1150 1.367 . S
C1151 C1153 1.433 . S
C1152 C1148 1.350 . S
C1152 C1149 1.463 . S
C1152 N1156 1.427 . S
C1153 H1143 0.929 . S
C1153 C1151 1.433 . S
C1153 N1156 1.384 . S
C1154 H1145 0.929 . S
C1154 C1146 1.378 . S
C1154 C1149 1.350 . S
C1155 H1142 0.929 . S
C1155 C1147 1.433 . S
C1155 N1157 1.384 . S
N1156 C1152 1.427 . S
N1156 C1153 1.384 . S
N1157 C1149 1.427 . S
N1157 C1155 1.384 . S
H1158 C1164 0.930 . S
H1159 C1168 0.930 . S
H1160 C1173 0.929 . S
H1161 C1171 0.929 . S
H1162 C1166 0.929 . S
H1163 C1172 0.929 . S
C1164 H1158 0.930 . S
C1164 C1165 1.367 . S
C1164 C1172 1.378 . S
C1165 C1164 1.367 . S
C1165 C1173 1.433 . S
C1166 H1162 0.929 . S
C1166 C1168 1.378 . S
C1166 C1170 1.350 . S
C1167 C1170 1.463 . S
C1167 C1172 1.350 . S
C1167 N1175 1.427 . S
C1168 H1159 0.930 . S
C1168 C1166 1.378 . S
C1168 C1169 1.367 . S
C1169 C1168 1.367 . S
C1169 C1171 1.433 . S
C1170 C1166 1.350 . S
C1170 C1167 1.463 . S
C1170 N1174 1.427 . S
C1171 H1161 0.929 . S
C1171 C1169 1.433 . S
C1171 N1174 1.384 . S
C1172 H1163 0.929 . S
C1172 C1164 1.378 . S
C1172 C1167 1.350 . S
C1173 H1160 0.929 . S
C1173 C1165 1.433 . S
C1173 N1175 1.384 . S
N1174 C1170 1.427 . S
N1174 C1171 1.384 . S
N1175 C1167 1.427 . S
N1175 C1173 1.384 . S
H1176 C1182 0.930 . S
H1177 C1186 0.930 . S
H1178 C1191 0.929 . S
H1179 C1189 0.929 . S
H1180 C1184 0.929 . S
H1181 C1190 0.929 . S
C1182 H1176 0.930 . S
C1182 C1183 1.367 . S
C1182 C1190 1.378 . S
C1183 C1182 1.367 . S
C1183 C1191 1.433 . S
C1184 H1180 0.929 . S
C1184 C1186 1.378 . S
C1184 C1188 1.350 . S
C1185 C1188 1.463 . S
C1185 C1190 1.350 . S
C1185 N1193 1.427 . S
C1186 H1177 0.930 . S
C1186 C1184 1.378 . S
C1186 C1187 1.367 . S
C1187 C1186 1.367 . S
C1187 C1189 1.433 . S
C1188 C1184 1.350 . S
C1188 C1185 1.463 . S
C1188 N1192 1.427 . S
C1189 H1179 0.929 . S
C1189 C1187 1.433 . S
C1189 N1192 1.384 . S
C1190 H1181 0.929 . S
C1190 C1182 1.378 . S
C1190 C1185 1.350 . S
C1191 H1178 0.929 . S
C1191 C1183 1.433 . S
C1191 N1193 1.384 . S
N1192 C1188 1.427 . S
N1192 C1189 1.384 . S
N1193 C1185 1.427 . S
N1193 C1191 1.384 . S
H1194 C1200 0.930 . S
H1195 C1204 0.930 . S
H1196 C1209 0.929 . S
H1197 C1207 0.929 . S
H1198 C1202 0.929 . S
H1199 C1208 0.929 . S
C1200 H1194 0.930 . S
C1200 C1201 1.367 . S
C1200 C1208 1.378 . S
C1201 C1200 1.367 . S
C1201 C1209 1.433 . S
C1202 H1198 0.929 . S
C1202 C1204 1.378 . S
C1202 C1206 1.350 . S
C1203 C1206 1.463 . S
C1203 C1208 1.350 . S
C1203 N1211 1.427 . S
C1204 H1195 0.930 . S
C1204 C1202 1.378 . S
C1204 C1205 1.367 . S
C1205 C1204 1.367 . S
C1205 C1207 1.433 . S
C1206 C1202 1.350 . S
C1206 C1203 1.463 . S
C1206 N1210 1.427 . S
C1207 H1197 0.929 . S
C1207 C1205 1.433 . S
C1207 N1210 1.384 . S
C1208 H1199 0.929 . S
C1208 C1200 1.378 . S
C1208 C1203 1.350 . S
C1209 H1196 0.929 . S
C1209 C1201 1.433 . S
C1209 N1211 1.384 . S
N1210 C1206 1.427 . S
N1210 C1207 1.384 . S
N1211 C1203 1.427 . S
N1211 C1209 1.384 . S
H1212 C1218 0.930 . S
H1213 C1222 0.930 . S
H1214 C1227 0.929 . S
H1215 C1225 0.929 . S
H1216 C1220 0.929 . S
H1217 C1226 0.929 . S
C1218 H1212 0.930 . S
C1218 C1219 1.367 . S
C1218 C1226 1.378 . S
C1219 C1218 1.367 . S
C1219 C1227 1.433 . S
C1220 H1216 0.929 . S
C1220 C1222 1.378 . S
C1220 C1224 1.350 . S
C1221 C1224 1.463 . S
C1221 C1226 1.350 . S
C1221 N1229 1.427 . S
C1222 H1213 0.930 . S
C1222 C1220 1.378 . S
C1222 C1223 1.367 . S
C1223 C1222 1.367 . S
C1223 C1225 1.433 . S
C1224 C1220 1.350 . S
C1224 C1221 1.463 . S
C1224 N1228 1.427 . S
C1225 H1215 0.929 . S
C1225 C1223 1.433 . S
C1225 N1228 1.384 . S
C1226 H1217 0.929 . S
C1226 C1218 1.378 . S
C1226 C1221 1.350 . S
C1227 H1214 0.929 . S
C1227 C1219 1.433 . S
C1227 N1229 1.384 . S
N1228 C1224 1.427 . S
N1228 C1225 1.384 . S
N1229 C1221 1.427 . S
N1229 C1227 1.384 . S
H1230 C1236 0.930 . S
H1231 C1240 0.930 . S
H1232 C1245 0.929 . S
H1233 C1243 0.929 . S
H1234 C1238 0.929 . S
H1235 C1244 0.929 . S
C1236 H1230 0.930 . S
C1236 C1237 1.367 . S
C1236 C1244 1.378 . S
C1237 C1236 1.367 . S
C1237 C1245 1.433 . S
C1238 H1234 0.929 . S
C1238 C1240 1.378 . S
C1238 C1242 1.350 . S
C1239 C1242 1.463 . S
C1239 C1244 1.350 . S
C1239 N1247 1.427 . S
C1240 H1231 0.930 . S
C1240 C1238 1.378 . S
C1240 C1241 1.367 . S
C1241 C1240 1.367 . S
C1241 C1243 1.433 . S
C1242 C1238 1.350 . S
C1242 C1239 1.463 . S
C1242 N1246 1.427 . S
C1243 H1233 0.929 . S
C1243 C1241 1.433 . S
C1243 N1246 1.384 . S
C1244 H1235 0.929 . S
C1244 C1236 1.378 . S
C1244 C1239 1.350 . S
C1245 H1232 0.929 . S
C1245 C1237 1.433 . S
C1245 N1247 1.384 . S
N1246 C1242 1.427 . S
N1246 C1243 1.384 . S
N1247 C1239 1.427 . S
N1247 C1245 1.384 . S
H1248 C1254 0.930 . S
H1249 C1258 0.930 . S
H1250 C1263 0.929 . S
H1251 C1261 0.929 . S
H1252 C1256 0.929 . S
H1253 C1262 0.929 . S
C1254 H1248 0.930 . S
C1254 C1255 1.367 . S
C1254 C1262 1.378 . S
C1255 C1254 1.367 . S
C1255 C1263 1.433 . S
C1256 H1252 0.929 . S
C1256 C1258 1.378 . S
C1256 C1260 1.350 . S
C1257 C1260 1.463 . S
C1257 C1262 1.350 . S
C1257 N1265 1.427 . S
C1258 H1249 0.930 . S
C1258 C1256 1.378 . S
C1258 C1259 1.367 . S
C1259 C1258 1.367 . S
C1259 C1261 1.433 . S
C1260 C1256 1.350 . S
C1260 C1257 1.463 . S
C1260 N1264 1.427 . S
C1261 H1251 0.929 . S
C1261 C1259 1.433 . S
C1261 N1264 1.384 . S
C1262 H1253 0.929 . S
C1262 C1254 1.378 . S
C1262 C1257 1.350 . S
C1263 H1250 0.929 . S
C1263 C1255 1.433 . S
C1263 N1265 1.384 . S
N1264 C1260 1.427 . S
N1264 C1261 1.384 . S
N1265 C1257 1.427 . S
N1265 C1263 1.384 . S
H1266 C1272 0.930 . S
H1267 C1276 0.930 . S
H1268 C1281 0.929 . S
H1269 C1279 0.929 . S
H1270 C1274 0.929 . S
H1271 C1280 0.929 . S
C1272 H1266 0.930 . S
C1272 C1273 1.367 . S
C1272 C1280 1.378 . S
C1273 C1272 1.367 . S
C1273 C1281 1.433 . S
C1274 H1270 0.929 . S
C1274 C1276 1.378 . S
C1274 C1278 1.350 . S
C1275 C1278 1.463 . S
C1275 C1280 1.350 . S
C1275 N1283 1.427 . S
C1276 H1267 0.930 . S
C1276 C1274 1.378 . S
C1276 C1277 1.367 . S
C1277 C1276 1.367 . S
C1277 C1279 1.433 . S
C1278 C1274 1.350 . S
C1278 C1275 1.463 . S
C1278 N1282 1.427 . S
C1279 H1269 0.929 . S
C1279 C1277 1.433 . S
C1279 N1282 1.384 . S
C1280 H1271 0.929 . S
C1280 C1272 1.378 . S
C1280 C1275 1.350 . S
C1281 H1268 0.929 . S
C1281 C1273 1.433 . S
C1281 N1283 1.384 . S
N1282 C1278 1.427 . S
N1282 C1279 1.384 . S
N1283 C1275 1.427 . S
N1283 C1281 1.384 . S
H1284 C1290 0.930 . S
H1285 C1294 0.930 . S
H1286 C1299 0.929 . S
H1287 C1297 0.929 . S
H1288 C1292 0.929 . S
H1289 C1298 0.929 . S
C1290 H1284 0.930 . S
C1290 C1291 1.367 . S
C1290 C1298 1.378 . S
C1291 C1290 1.367 . S
C1291 C1299 1.433 . S
C1292 H1288 0.929 . S
C1292 C1294 1.378 . S
C1292 C1296 1.350 . S
C1293 C1296 1.463 . S
C1293 C1298 1.350 . S
C1293 N1301 1.427 . S
C1294 H1285 0.930 . S
C1294 C1292 1.378 . S
C1294 C1295 1.367 . S
C1295 C1294 1.367 . S
C1295 C1297 1.433 . S
C1296 C1292 1.350 . S
C1296 C1293 1.463 . S
C1296 N1300 1.427 . S
C1297 H1287 0.929 . S
C1297 C1295 1.433 . S
C1297 N1300 1.384 . S
C1298 H1289 0.929 . S
C1298 C1290 1.378 . S
C1298 C1293 1.350 . S
C1299 H1286 0.929 . S
C1299 C1291 1.433 . S
C1299 N1301 1.384 . S
N1300 C1296 1.427 . S
N1300 C1297 1.384 . S
N1301 C1293 1.427 . S
N1301 C1299 1.384 . S
H1302 C1308 0.930 . S
H1303 C1312 0.930 . S
H1304 C1317 0.929 . S
H1305 C1315 0.929 . S
H1306 C1310 0.929 . S
H1307 C1316 0.929 . S
C1308 H1302 0.930 . S
C1308 C1309 1.367 . S
C1308 C1316 1.378 . S
C1309 C1308 1.367 . S
C1309 C1317 1.433 . S
C1310 H1306 0.929 . S
C1310 C1312 1.378 . S
C1310 C1314 1.350 . S
C1311 C1314 1.463 . S
C1311 C1316 1.350 . S
C1311 N1319 1.427 . S
C1312 H1303 0.930 . S
C1312 C1310 1.378 . S
C1312 C1313 1.367 . S
C1313 C1312 1.367 . S
C1313 C1315 1.433 . S
C1314 C1310 1.350 . S
C1314 C1311 1.463 . S
C1314 N1318 1.427 . S
C1315 H1305 0.929 . S
C1315 C1313 1.433 . S
C1315 N1318 1.384 . S
C1316 H1307 0.929 . S
C1316 C1308 1.378 . S
C1316 C1311 1.350 . S
C1317 H1304 0.929 . S
C1317 C1309 1.433 . S
C1317 N1319 1.384 . S
N1318 C1314 1.427 . S
N1318 C1315 1.384 . S
N1319 C1311 1.427 . S
N1319 C1317 1.384 . S
H1320 C1326 0.930 . S
H1321 C1330 0.930 . S
H1322 C1335 0.929 . S
H1323 C1333 0.929 . S
H1324 C1328 0.929 . S
H1325 C1334 0.929 . S
C1326 H1320 0.930 . S
C1326 C1327 1.367 . S
C1326 C1334 1.378 . S
C1327 C1326 1.367 . S
C1327 C1335 1.433 . S
C1328 H1324 0.929 . S
C1328 C1330 1.378 . S
C1328 C1332 1.350 . S
C1329 C1332 1.463 . S
C1329 C1334 1.350 . S
C1329 N1337 1.427 . S
C1330 H1321 0.930 . S
C1330 C1328 1.378 . S
C1330 C1331 1.367 . S
C1331 C1330 1.367 . S
C1331 C1333 1.433 . S
C1332 C1328 1.350 . S
C1332 C1329 1.463 . S
C1332 N1336 1.427 . S
C1333 H1323 0.929 . S
C1333 C1331 1.433 . S
C1333 N1336 1.384 . S
C1334 H1325 0.929 . S
C1334 C1326 1.378 . S
C1334 C1329 1.350 . S
C1335 H1322 0.929 . S
C1335 C1327 1.433 . S
C1335 N1337 1.384 . S
N1336 C1332 1.427 . S
N1336 C1333 1.384 . S
N1337 C1329 1.427 . S
N1337 C1335 1.384 . S
H1338 C1344 0.930 . S
H1339 C1348 0.930 . S
H1340 C1353 0.929 . S
H1341 C1351 0.929 . S
H1342 C1346 0.929 . S
H1343 C1352 0.929 . S
C1344 H1338 0.930 . S
C1344 C1345 1.367 . S
C1344 C1352 1.378 . S
C1345 C1344 1.367 . S
C1345 C1353 1.433 . S
C1346 H1342 0.929 . S
C1346 C1348 1.378 . S
C1346 C1350 1.350 . S
C1347 C1350 1.463 . S
C1347 C1352 1.350 . S
C1347 N1355 1.427 . S
C1348 H1339 0.930 . S
C1348 C1346 1.378 . S
C1348 C1349 1.367 . S
C1349 C1348 1.367 . S
C1349 C1351 1.433 . S
C1350 C1346 1.350 . S
C1350 C1347 1.463 . S
C1350 N1354 1.427 . S
C1351 H1341 0.929 . S
C1351 C1349 1.433 . S
C1351 N1354 1.384 . S
C1352 H1343 0.929 . S
C1352 C1344 1.378 . S
C1352 C1347 1.350 . S
C1353 H1340 0.929 . S
C1353 C1345 1.433 . S
C1353 N1355 1.384 . S
N1354 C1350 1.427 . S
N1354 C1351 1.384 . S
N1355 C1347 1.427 . S
N1355 C1353 1.384 . S
H1356 C1362 0.930 . S
H1357 C1366 0.930 . S
H1358 C1371 0.929 . S
H1359 C1369 0.929 . S
H1360 C1364 0.929 . S
H1361 C1370 0.929 . S
C1362 H1356 0.930 . S
C1362 C1363 1.367 . S
C1362 C1370 1.378 . S
C1363 C1362 1.367 . S
C1363 C1371 1.433 . S
C1364 H1360 0.929 . S
C1364 C1366 1.378 . S
C1364 C1368 1.350 . S
C1365 C1368 1.463 . S
C1365 C1370 1.350 . S
C1365 N1373 1.427 . S
C1366 H1357 0.930 . S
C1366 C1364 1.378 . S
C1366 C1367 1.367 . S
C1367 C1366 1.367 . S
C1367 C1369 1.433 . S
C1368 C1364 1.350 . S
C1368 C1365 1.463 . S
C1368 N1372 1.427 . S
C1369 H1359 0.929 . S
C1369 C1367 1.433 . S
C1369 N1372 1.384 . S
C1370 H1361 0.929 . S
C1370 C1362 1.378 . S
C1370 C1365 1.350 . S
C1371 H1358 0.929 . S
C1371 C1363 1.433 . S
C1371 N1373 1.384 . S
N1372 C1368 1.427 . S
N1372 C1369 1.384 . S
N1373 C1365 1.427 . S
N1373 C1371 1.384 . S
H1374 C1380 0.930 . S
H1375 C1384 0.930 . S
H1376 C1389 0.929 . S
H1377 C1387 0.929 . S
H1378 C1382 0.929 . S
H1379 C1388 0.929 . S
C1380 H1374 0.930 . S
C1380 C1381 1.367 . S
C1380 C1388 1.378 . S
C1381 C1380 1.367 . S
C1381 C1389 1.433 . S
C1382 H1378 0.929 . S
C1382 C1384 1.378 . S
C1382 C1386 1.350 . S
C1383 C1386 1.463 . S
C1383 C1388 1.350 . S
C1383 N1391 1.427 . S
C1384 H1375 0.930 . S
C1384 C1382 1.378 . S
C1384 C1385 1.367 . S
C1385 C1384 1.367 . S
C1385 C1387 1.433 . S
C1386 C1382 1.350 . S
C1386 C1383 1.463 . S
C1386 N1390 1.427 . S
C1387 H1377 0.929 . S
C1387 C1385 1.433 . S
C1387 N1390 1.384 . S
C1388 H1379 0.929 . S
C1388 C1380 1.378 . S
C1388 C1383 1.350 . S
C1389 H1376 0.929 . S
C1389 C1381 1.433 . S
C1389 N1391 1.384 . S
N1390 C1386 1.427 . S
N1390 C1387 1.384 . S
N1391 C1383 1.427 . S
N1391 C1389 1.384 . S
H1392 C1398 0.930 . S
H1393 C1402 0.930 . S
H1394 C1407 0.929 . S
H1395 C1405 0.929 . S
H1396 C1400 0.929 . S
H1397 C1406 0.929 . S
C1398 H1392 0.930 . S
C1398 C1399 1.367 . S
C1398 C1406 1.378 . S
C1399 C1398 1.367 . S
C1399 C1407 1.433 . S
C1400 H1396 0.929 . S
C1400 C1402 1.378 . S
C1400 C1404 1.350 . S
C1401 C1404 1.463 1_655 S
C1401 C1406 1.350 . S
C1401 N1409 1.427 . S
C1402 H1393 0.930 . S
C1402 C1400 1.378 . S
C1402 C1403 1.367 . S
C1403 C1402 1.367 . S
C1403 C1405 1.433 . S
C1404 C1400 1.350 . S
C1404 C1401 1.463 1_455 S
C1404 N1408 1.427 . S
C1405 H1395 0.929 . S
C1405 C1403 1.433 . S
C1405 N1408 1.384 . S
C1406 H1397 0.929 . S
C1406 C1398 1.378 . S
C1406 C1401 1.350 . S
C1407 H1394 0.929 . S
C1407 C1399 1.433 . S
C1407 N1409 1.384 . S
N1408 C1404 1.427 . S
N1408 C1405 1.384 . S
N1409 C1401 1.427 . S
N1409 C1407 1.384 . S
H1410 C1416 0.930 . S
H1411 C1420 0.930 . S
H1412 C1425 0.929 . S
H1413 C1423 0.929 . S
H1414 C1418 0.929 . S
H1415 C1424 0.929 . S
C1416 H1410 0.930 . S
C1416 C1417 1.367 . S
C1416 C1424 1.378 . S
C1417 C1416 1.367 . S
C1417 C1425 1.433 . S
C1418 H1414 0.929 . S
C1418 C1420 1.378 . S
C1418 C1422 1.350 . S
C1419 C1422 1.463 1_565 S
C1419 C1424 1.350 . S
C1419 N1427 1.427 . S
C1420 H1411 0.930 . S
C1420 C1418 1.378 . S
C1420 C1421 1.367 . S
C1421 C1420 1.367 . S
C1421 C1423 1.433 . S
C1422 C1418 1.350 . S
C1422 C1419 1.463 1_545 S
C1422 N1426 1.427 . S
C1423 H1413 0.929 . S
C1423 C1421 1.433 . S
C1423 N1426 1.384 . S
C1424 H1415 0.929 . S
C1424 C1416 1.378 . S
C1424 C1419 1.350 . S
C1425 H1412 0.929 . S
C1425 C1417 1.433 . S
C1425 N1427 1.384 . S
N1426 C1422 1.427 . S
N1426 C1423 1.384 . S
N1427 C1419 1.427 . S
N1427 C1425 1.384 . S
H1428 C1434 0.930 . S
H1429 C1438 0.930 . S
H1430 C1443 0.929 . S
H1431 C1441 0.929 . S
H1432 C1436 0.929 . S
H1433 C1442 0.929 . S
C1434 H1428 0.930 . S
C1434 C1435 1.367 . S
C1434 C1442 1.378 . S
C1435 C1434 1.367 . S
C1435 C1443 1.433 . S
C1436 H1432 0.929 . S
C1436 C1438 1.378 . S
C1436 C1440 1.350 . S
C1437 C1440 1.463 . S
C1437 C1442 1.350 . S
C1437 N1445 1.427 . S
C1438 H1429 0.930 . S
C1438 C1436 1.378 . S
C1438 C1439 1.367 . S
C1439 C1438 1.367 . S
C1439 C1441 1.433 . S
C1440 C1436 1.350 . S
C1440 C1437 1.463 . S
C1440 N1444 1.427 . S
C1441 H1431 0.929 . S
C1441 C1439 1.433 . S
C1441 N1444 1.384 . S
C1442 H1433 0.929 . S
C1442 C1434 1.378 . S
C1442 C1437 1.350 . S
C1443 H1430 0.929 . S
C1443 C1435 1.433 . S
C1443 N1445 1.384 . S
N1444 C1440 1.427 . S
N1444 C1441 1.384 . S
N1445 C1437 1.427 . S
N1445 C1443 1.384 . S
H1446 C1452 0.930 . S
H1447 C1456 0.930 . S
H1448 C1461 0.929 . S
H1449 C1459 0.929 . S
H1450 C1454 0.929 . S
H1451 C1460 0.929 . S
C1452 H1446 0.930 . S
C1452 C1453 1.367 . S
C1452 C1460 1.378 . S
C1453 C1452 1.367 . S
C1453 C1461 1.433 . S
C1454 H1450 0.929 . S
C1454 C1456 1.378 . S
C1454 C1458 1.350 . S
C1455 C1458 1.463 1_455 S
C1455 C1460 1.350 . S
C1455 N1463 1.427 . S
C1456 H1447 0.930 . S
C1456 C1454 1.378 . S
C1456 C1457 1.367 . S
C1457 C1456 1.367 . S
C1457 C1459 1.433 . S
C1458 C1454 1.350 . S
C1458 C1455 1.463 1_655 S
C1458 N1462 1.427 . S
C1459 H1449 0.929 . S
C1459 C1457 1.433 . S
C1459 N1462 1.384 . S
C1460 H1451 0.929 . S
C1460 C1452 1.378 . S
C1460 C1455 1.350 . S
C1461 H1448 0.929 . S
C1461 C1453 1.433 . S
C1461 N1463 1.384 . S
N1462 C1458 1.427 . S
N1462 C1459 1.384 . S
N1463 C1455 1.427 . S
N1463 C1461 1.384 . S
H1464 C1470 0.930 . S
H1465 C1474 0.930 . S
H1466 C1479 0.929 . S
H1467 C1477 0.929 . S
H1468 C1472 0.929 . S
H1469 C1478 0.929 . S
C1470 H1464 0.930 . S
C1470 C1471 1.367 . S
C1470 C1478 1.378 . S
C1471 C1470 1.367 . S
C1471 C1479 1.433 . S
C1472 H1468 0.929 . S
C1472 C1474 1.378 . S
C1472 C1476 1.350 . S
C1473 C1476 1.463 1_545 S
C1473 C1478 1.350 . S
C1473 N1481 1.427 . S
C1474 H1465 0.930 . S
C1474 C1472 1.378 . S
C1474 C1475 1.367 . S
C1475 C1474 1.367 . S
C1475 C1477 1.433 . S
C1476 C1472 1.350 . S
C1476 C1473 1.463 1_565 S
C1476 N1480 1.427 . S
C1477 H1467 0.929 . S
C1477 C1475 1.433 . S
C1477 N1480 1.384 . S
C1478 H1469 0.929 . S
C1478 C1470 1.378 . S
C1478 C1473 1.350 . S
C1479 H1466 0.929 . S
C1479 C1471 1.433 . S
C1479 N1481 1.384 . S
N1480 C1476 1.427 . S
N1480 C1477 1.384 . S
N1481 C1473 1.427 . S
N1481 C1479 1.384 . S
H1482 C1488 0.930 . S
H1483 C1492 0.930 . S
H1484 C1497 0.929 . S
H1485 C1495 0.929 . S
H1486 C1490 0.929 . S
H1487 C1496 0.929 . S
C1488 H1482 0.930 . S
C1488 C1489 1.367 . S
C1488 C1496 1.378 . S
C1489 C1488 1.367 . S
C1489 C1497 1.433 . S
C1490 H1486 0.929 . S
C1490 C1492 1.378 . S
C1490 C1494 1.350 . S
C1491 C1494 1.463 . S
C1491 C1496 1.350 . S
C1491 N1499 1.427 . S
C1492 H1483 0.930 . S
C1492 C1490 1.378 . S
C1492 C1493 1.367 . S
C1493 C1492 1.367 . S
C1493 C1495 1.433 . S
C1494 C1490 1.350 . S
C1494 C1491 1.463 . S
C1494 N1498 1.427 . S
C1495 H1485 0.929 . S
C1495 C1493 1.433 . S
C1495 N1498 1.384 . S
C1496 H1487 0.929 . S
C1496 C1488 1.378 . S
C1496 C1491 1.350 . S
C1497 H1484 0.929 . S
C1497 C1489 1.433 . S
C1497 N1499 1.384 . S
N1498 C1494 1.427 . S
N1498 C1495 1.384 . S
N1499 C1491 1.427 . S
N1499 C1497 1.384 . S
H1500 C1506 0.930 . S
H1501 C1510 0.930 . S
H1502 C1515 0.929 . S
H1503 C1513 0.929 . S
H1504 C1508 0.929 . S
H1505 C1514 0.929 . S
C1506 H1500 0.930 . S
C1506 C1507 1.367 . S
C1506 C1514 1.378 . S
C1507 C1506 1.367 . S
C1507 C1515 1.433 . S
C1508 H1504 0.929 . S
C1508 C1510 1.378 . S
C1508 C1512 1.350 . S
C1509 C1512 1.463 1_565 S
C1509 C1514 1.350 . S
C1509 N1517 1.427 . S
C1510 H1501 0.930 . S
C1510 C1508 1.378 . S
C1510 C1511 1.367 . S
C1511 C1510 1.367 . S
C1511 C1513 1.433 . S
C1512 C1508 1.350 . S
C1512 C1509 1.463 1_545 S
C1512 N1516 1.427 . S
C1513 H1503 0.929 . S
C1513 C1511 1.433 . S
C1513 N1516 1.384 . S
C1514 H1505 0.929 . S
C1514 C1506 1.378 . S
C1514 C1509 1.350 . S
C1515 H1502 0.929 . S
C1515 C1507 1.433 . S
C1515 N1517 1.384 . S
N1516 C1512 1.427 . S
N1516 C1513 1.384 . S
N1517 C1509 1.427 . S
N1517 C1515 1.384 . S
H1518 C1524 0.930 . S
H1519 C1528 0.930 . S
H1520 C1533 0.929 . S
H1521 C1531 0.929 . S
H1522 C1526 0.929 . S
H1523 C1532 0.929 . S
C1524 H1518 0.930 . S
C1524 C1525 1.367 . S
C1524 C1532 1.378 . S
C1525 C1524 1.367 . S
C1525 C1533 1.433 . S
C1526 H1522 0.929 . S
C1526 C1528 1.378 . S
C1526 C1530 1.350 . S
C1527 C1530 1.463 . S
C1527 C1532 1.350 . S
C1527 N1535 1.427 . S
C1528 H1519 0.930 . S
C1528 C1526 1.378 . S
C1528 C1529 1.367 . S
C1529 C1528 1.367 . S
C1529 C1531 1.433 . S
C1530 C1526 1.350 . S
C1530 C1527 1.463 . S
C1530 N1534 1.427 . S
C1531 H1521 0.929 . S
C1531 C1529 1.433 . S
C1531 N1534 1.384 . S
C1532 H1523 0.929 . S
C1532 C1524 1.378 . S
C1532 C1527 1.350 . S
C1533 H1520 0.929 . S
C1533 C1525 1.433 . S
C1533 N1535 1.384 . S
N1534 C1530 1.427 . S
N1534 C1531 1.384 . S
N1535 C1527 1.427 . S
N1535 C1533 1.384 . S
H1536 C1542 0.930 . S
H1537 C1546 0.930 . S
H1538 C1551 0.929 . S
H1539 C1549 0.929 . S
H1540 C1544 0.929 . S
H1541 C1550 0.929 . S
C1542 H1536 0.930 . S
C1542 C1543 1.367 . S
C1542 C1550 1.378 . S
C1543 C1542 1.367 . S
C1543 C1551 1.433 . S
C1544 H1540 0.929 . S
C1544 C1546 1.378 . S
C1544 C1548 1.350 . S
C1545 C1548 1.463 1_655 S
C1545 C1550 1.350 . S
C1545 N1553 1.427 . S
C1546 H1537 0.930 . S
C1546 C1544 1.378 . S
C1546 C1547 1.367 . S
C1547 C1546 1.367 . S
C1547 C1549 1.433 . S
C1548 C1544 1.350 . S
C1548 C1545 1.463 1_455 S
C1548 N1552 1.427 . S
C1549 H1539 0.929 . S
C1549 C1547 1.433 . S
C1549 N1552 1.384 . S
C1550 H1541 0.929 . S
C1550 C1542 1.378 . S
C1550 C1545 1.350 . S
C1551 H1538 0.929 . S
C1551 C1543 1.433 . S
C1551 N1553 1.384 . S
N1552 C1548 1.427 . S
N1552 C1549 1.384 . S
N1553 C1545 1.427 . S
N1553 C1551 1.384 . S
H1554 C1560 0.930 . S
H1555 C1564 0.930 . S
H1556 C1569 0.929 . S
H1557 C1567 0.929 . S
H1558 C1562 0.929 . S
H1559 C1568 0.929 . S
C1560 H1554 0.930 . S
C1560 C1561 1.367 . S
C1560 C1568 1.378 . S
C1561 C1560 1.367 . S
C1561 C1569 1.433 . S
C1562 H1558 0.929 . S
C1562 C1564 1.378 . S
C1562 C1566 1.350 . S
C1563 C1566 1.463 1_565 S
C1563 C1568 1.350 . S
C1563 N1571 1.427 . S
C1564 H1555 0.930 . S
C1564 C1562 1.378 . S
C1564 C1565 1.367 . S
C1565 C1564 1.367 . S
C1565 C1567 1.433 . S
C1566 C1562 1.350 . S
C1566 C1563 1.463 1_545 S
C1566 N1570 1.427 . S
C1567 H1557 0.929 . S
C1567 C1565 1.433 . S
C1567 N1570 1.384 . S
C1568 H1559 0.929 . S
C1568 C1560 1.378 . S
C1568 C1563 1.350 . S
C1569 H1556 0.929 . S
C1569 C1561 1.433 . S
C1569 N1571 1.384 . S
N1570 C1566 1.427 . S
N1570 C1567 1.384 . S
N1571 C1563 1.427 . S
N1571 C1569 1.384 . S
H1572 C1578 0.930 . S
H1573 C1582 0.930 . S
H1574 C1587 0.929 . S
H1575 C1585 0.929 . S
H1576 C1580 0.929 . S
H1577 C1586 0.929 . S
C1578 H1572 0.930 . S
C1578 C1579 1.367 . S
C1578 C1586 1.378 . S
C1579 C1578 1.367 . S
C1579 C1587 1.433 . S
C1580 H1576 0.929 . S
C1580 C1582 1.378 . S
C1580 C1584 1.350 . S
C1581 C1584 1.463 . S
C1581 C1586 1.350 . S
C1581 N1589 1.427 . S
C1582 H1573 0.930 . S
C1582 C1580 1.378 . S
C1582 C1583 1.367 . S
C1583 C1582 1.367 . S
C1583 C1585 1.433 . S
C1584 C1580 1.350 . S
C1584 C1581 1.463 . S
C1584 N1588 1.427 . S
C1585 H1575 0.929 . S
C1585 C1583 1.433 . S
C1585 N1588 1.384 . S
C1586 H1577 0.929 . S
C1586 C1578 1.378 . S
C1586 C1581 1.350 . S
C1587 H1574 0.929 . S
C1587 C1579 1.433 . S
C1587 N1589 1.384 . S
N1588 C1584 1.427 . S
N1588 C1585 1.384 . S
N1589 C1581 1.427 . S
N1589 C1587 1.384 . S
H1590 C1596 0.930 . S
H1591 C1600 0.930 . S
H1592 C1605 0.929 . S
H1593 C1603 0.929 . S
H1594 C1598 0.929 . S
H1595 C1604 0.929 . S
C1596 H1590 0.930 . S
C1596 C1597 1.367 . S
C1596 C1604 1.378 . S
C1597 C1596 1.367 . S
C1597 C1605 1.433 . S
C1598 H1594 0.929 . S
C1598 C1600 1.378 . S
C1598 C1602 1.350 . S
C1599 C1602 1.463 1_655 S
C1599 C1604 1.350 . S
C1599 N1607 1.427 . S
C1600 H1591 0.930 . S
C1600 C1598 1.378 . S
C1600 C1601 1.367 . S
C1601 C1600 1.367 . S
C1601 C1603 1.433 . S
C1602 C1598 1.350 . S
C1602 C1599 1.463 1_455 S
C1602 N1606 1.427 . S
C1603 H1593 0.929 . S
C1603 C1601 1.433 . S
C1603 N1606 1.384 . S
C1604 H1595 0.929 . S
C1604 C1596 1.378 . S
C1604 C1599 1.350 . S
C1605 H1592 0.929 . S
C1605 C1597 1.433 . S
C1605 N1607 1.384 . S
N1606 C1602 1.427 . S
N1606 C1603 1.384 . S
N1607 C1599 1.427 . S
N1607 C1605 1.384 . S
H1608 C1614 0.930 . S
H1609 C1618 0.930 . S
H1610 C1623 0.929 . S
H1611 C1621 0.929 . S
H1612 C1616 0.929 . S
H1613 C1622 0.929 . S
C1614 H1608 0.930 . S
C1614 C1615 1.367 . S
C1614 C1622 1.378 . S
C1615 C1614 1.367 . S
C1615 C1623 1.433 . S
C1616 H1612 0.929 . S
C1616 C1618 1.378 . S
C1616 C1620 1.350 . S
C1617 C1620 1.463 1_556 S
C1617 C1622 1.350 . S
C1617 N1625 1.427 . S
C1618 H1609 0.930 . S
C1618 C1616 1.378 . S
C1618 C1619 1.367 . S
C1619 C1618 1.367 . S
C1619 C1621 1.433 . S
C1620 C1616 1.350 . S
C1620 C1617 1.463 1_554 S
C1620 N1624 1.427 . S
C1621 H1611 0.929 . S
C1621 C1619 1.433 . S
C1621 N1624 1.384 . S
C1622 H1613 0.929 . S
C1622 C1614 1.378 . S
C1622 C1617 1.350 . S
C1623 H1610 0.929 . S
C1623 C1615 1.433 . S
C1623 N1625 1.384 . S
N1624 C1620 1.427 . S
N1624 C1621 1.384 . S
N1625 C1617 1.427 . S
N1625 C1623 1.384 . S
H1626 C1632 0.930 . S
H1627 C1636 0.930 . S
H1628 C1641 0.929 . S
H1629 C1639 0.929 . S
H1630 C1634 0.929 . S
H1631 C1640 0.929 . S
C1632 H1626 0.930 . S
C1632 C1633 1.367 . S
C1632 C1640 1.378 . S
C1633 C1632 1.367 . S
C1633 C1641 1.433 . S
C1634 H1630 0.929 . S
C1634 C1636 1.378 . S
C1634 C1638 1.350 . S
C1635 C1638 1.463 . S
C1635 C1640 1.350 . S
C1635 N1643 1.427 . S
C1636 H1627 0.930 . S
C1636 C1634 1.378 . S
C1636 C1637 1.367 . S
C1637 C1636 1.367 . S
C1637 C1639 1.433 . S
C1638 C1634 1.350 . S
C1638 C1635 1.463 . S
C1638 N1642 1.427 . S
C1639 H1629 0.929 . S
C1639 C1637 1.433 . S
C1639 N1642 1.384 . S
C1640 H1631 0.929 . S
C1640 C1632 1.378 . S
C1640 C1635 1.350 . S
C1641 H1628 0.929 . S
C1641 C1633 1.433 . S
C1641 N1643 1.384 . S
N1642 C1638 1.427 . S
N1642 C1639 1.384 . S
N1643 C1635 1.427 . S
N1643 C1641 1.384 . S
H1644 C1650 0.930 . S
H1645 C1654 0.930 . S
H1646 C1659 0.929 . S
H1647 C1657 0.929 . S
H1648 C1652 0.929 . S
H1649 C1658 0.929 . S
C1650 H1644 0.930 . S
C1650 C1651 1.367 . S
C1650 C1658 1.378 . S
C1651 C1650 1.367 . S
C1651 C1659 1.433 . S
C1652 H1648 0.929 . S
C1652 C1654 1.378 . S
C1652 C1656 1.350 . S
C1653 C1656 1.463 1_554 S
C1653 C1658 1.350 . S
C1653 N1661 1.427 . S
C1654 H1645 0.930 . S
C1654 C1652 1.378 . S
C1654 C1655 1.367 . S
C1655 C1654 1.367 . S
C1655 C1657 1.433 . S
C1656 C1652 1.350 . S
C1656 C1653 1.463 1_556 S
C1656 N1660 1.427 . S
C1657 H1647 0.929 . S
C1657 C1655 1.433 . S
C1657 N1660 1.384 . S
C1658 H1649 0.929 . S
C1658 C1650 1.378 . S
C1658 C1653 1.350 . S
C1659 H1646 0.929 . S
C1659 C1651 1.433 . S
C1659 N1661 1.384 . S
N1660 C1656 1.427 . S
N1660 C1657 1.384 . S
N1661 C1653 1.427 . S
N1661 C1659 1.384 . S
H1662 C1668 0.930 . S
H1663 C1672 0.930 . S
H1664 C1677 0.929 . S
H1665 C1675 0.929 . S
H1666 C1670 0.929 . S
H1667 C1676 0.929 . S
C1668 H1662 0.930 . S
C1668 C1669 1.367 . S
C1668 C1676 1.378 . S
C1669 C1668 1.367 . S
C1669 C1677 1.433 . S
C1670 H1666 0.929 . S
C1670 C1672 1.378 . S
C1670 C1674 1.350 . S
C1671 C1674 1.463 . S
C1671 C1676 1.350 . S
C1671 N1679 1.427 . S
C1672 H1663 0.930 . S
C1672 C1670 1.378 . S
C1672 C1673 1.367 . S
C1673 C1672 1.367 . S
C1673 C1675 1.433 . S
C1674 C1670 1.350 . S
C1674 C1671 1.463 . S
C1674 N1678 1.427 . S
C1675 H1665 0.929 . S
C1675 C1673 1.433 . S
C1675 N1678 1.384 . S
C1676 H1667 0.929 . S
C1676 C1668 1.378 . S
C1676 C1671 1.350 . S
C1677 H1664 0.929 . S
C1677 C1669 1.433 . S
C1677 N1679 1.384 . S
N1678 C1674 1.427 . S
N1678 C1675 1.384 . S
N1679 C1671 1.427 . S
N1679 C1677 1.384 . S
H1680 C1686 0.930 . S
H1681 C1690 0.930 . S
H1682 C1695 0.929 . S
H1683 C1693 0.929 . S
H1684 C1688 0.929 1_556 S
H1685 C1694 0.929 1_554 S
C1686 H1680 0.930 . S
C1686 C1687 1.367 . S
C1686 C1694 1.378 . S
C1687 C1686 1.367 . S
C1687 C1695 1.433 . S
C1688 H1684 0.929 1_554 S
C1688 C1690 1.378 . S
C1688 C1692 1.350 . S
C1689 C1692 1.463 1_556 S
C1689 C1694 1.350 . S
C1689 N1697 1.427 . S
C1690 H1681 0.930 . S
C1690 C1688 1.378 . S
C1690 C1691 1.367 . S
C1691 C1690 1.367 . S
C1691 C1693 1.433 . S
C1692 C1688 1.350 . S
C1692 C1689 1.463 1_554 S
C1692 N1696 1.427 . S
C1693 H1683 0.929 . S
C1693 C1691 1.433 . S
C1693 N1696 1.384 . S
C1694 H1685 0.929 1_556 S
C1694 C1686 1.378 . S
C1694 C1689 1.350 . S
C1695 H1682 0.929 . S
C1695 C1687 1.433 . S
C1695 N1697 1.384 . S
N1696 C1692 1.427 . S
N1696 C1693 1.384 . S
N1697 C1689 1.427 . S
N1697 C1695 1.384 . S
H1698 C1704 0.930 . S
H1699 C1708 0.930 . S
H1700 C1713 0.929 . S
H1701 C1711 0.929 . S
H1702 C1706 0.929 . S
H1703 C1712 0.929 . S
C1704 H1698 0.930 . S
C1704 C1705 1.367 . S
C1704 C1712 1.378 . S
C1705 C1704 1.367 . S
C1705 C1713 1.433 . S
C1706 H1702 0.929 . S
C1706 C1708 1.378 . S
C1706 C1710 1.350 . S
C1707 C1710 1.463 . S
C1707 C1712 1.350 . S
C1707 N1715 1.427 . S
C1708 H1699 0.930 . S
C1708 C1706 1.378 . S
C1708 C1709 1.367 . S
C1709 C1708 1.367 . S
C1709 C1711 1.433 . S
C1710 C1706 1.350 . S
C1710 C1707 1.463 . S
C1710 N1714 1.427 . S
C1711 H1701 0.929 . S
C1711 C1709 1.433 . S
C1711 N1714 1.384 . S
C1712 H1703 0.929 . S
C1712 C1704 1.378 . S
C1712 C1707 1.350 . S
C1713 H1700 0.929 . S
C1713 C1705 1.433 . S
C1713 N1715 1.384 . S
N1714 C1710 1.427 . S
N1714 C1711 1.384 . S
N1715 C1707 1.427 . S
N1715 C1713 1.384 . S
H1716 C1722 0.930 . S
H1717 C1726 0.930 . S
H1718 C1731 0.929 . S
H1719 C1729 0.929 . S
H1720 C1724 0.929 1_554 S
H1721 C1730 0.929 1_556 S
C1722 H1716 0.930 . S
C1722 C1723 1.367 . S
C1722 C1730 1.378 . S
C1723 C1722 1.367 . S
C1723 C1731 1.433 . S
C1724 H1720 0.929 1_556 S
C1724 C1726 1.378 . S
C1724 C1728 1.350 . S
C1725 C1728 1.463 1_554 S
C1725 C1730 1.350 . S
C1725 N1733 1.427 . S
C1726 H1717 0.930 . S
C1726 C1724 1.378 . S
C1726 C1727 1.367 . S
C1727 C1726 1.367 . S
C1727 C1729 1.433 . S
C1728 C1724 1.350 . S
C1728 C1725 1.463 1_556 S
C1728 N1732 1.427 . S
C1729 H1719 0.929 . S
C1729 C1727 1.433 . S
C1729 N1732 1.384 . S
C1730 H1721 0.929 1_554 S
C1730 C1722 1.378 . S
C1730 C1725 1.350 . S
C1731 H1718 0.929 . S
C1731 C1723 1.433 . S
C1731 N1733 1.384 . S
N1732 C1728 1.427 . S
N1732 C1729 1.384 . S
N1733 C1725 1.427 . S
N1733 C1731 1.384 . S
H1734 C1740 0.930 . S
H1735 C1744 0.930 . S
H1736 C1749 0.929 . S
H1737 C1747 0.929 . S
H1738 C1742 0.929 . S
H1739 C1748 0.929 . S
C1740 H1734 0.930 . S
C1740 C1741 1.367 . S
C1740 C1748 1.378 . S
C1741 C1740 1.367 . S
C1741 C1749 1.433 . S
C1742 H1738 0.929 . S
C1742 C1744 1.378 . S
C1742 C1746 1.350 . S
C1743 C1746 1.463 . S
C1743 C1748 1.350 . S
C1743 N1751 1.427 . S
C1744 H1735 0.930 . S
C1744 C1742 1.378 . S
C1744 C1745 1.367 . S
C1745 C1744 1.367 . S
C1745 C1747 1.433 . S
C1746 C1742 1.350 . S
C1746 C1743 1.463 . S
C1746 N1750 1.427 . S
C1747 H1737 0.929 . S
C1747 C1745 1.433 . S
C1747 N1750 1.384 . S
C1748 H1739 0.929 . S
C1748 C1740 1.378 . S
C1748 C1743 1.350 . S
C1749 H1736 0.929 . S
C1749 C1741 1.433 . S
C1749 N1751 1.384 . S
N1750 C1746 1.427 . S
N1750 C1747 1.384 . S
N1751 C1743 1.427 . S
N1751 C1749 1.384 . S
H1752 C1758 0.930 . S
H1753 C1762 0.930 . S
H1754 C1767 0.929 . S
H1755 C1765 0.929 . S
H1756 C1760 0.929 . S
H1757 C1766 0.929 . S
C1758 H1752 0.930 . S
C1758 C1759 1.367 . S
C1758 C1766 1.378 . S
C1759 C1758 1.367 . S
C1759 C1767 1.433 . S
C1760 H1756 0.929 . S
C1760 C1762 1.378 . S
C1760 C1764 1.350 . S
C1761 C1764 1.463 1_554 S
C1761 C1766 1.350 . S
C1761 N1769 1.427 . S
C1762 H1753 0.930 . S
C1762 C1760 1.378 . S
C1762 C1763 1.367 . S
C1763 C1762 1.367 . S
C1763 C1765 1.433 . S
C1764 C1760 1.350 . S
C1764 C1761 1.463 1_556 S
C1764 N1768 1.427 . S
C1765 H1755 0.929 . S
C1765 C1763 1.433 . S
C1765 N1768 1.384 . S
C1766 H1757 0.929 . S
C1766 C1758 1.378 . S
C1766 C1761 1.350 . S
C1767 H1754 0.929 . S
C1767 C1759 1.433 . S
C1767 N1769 1.384 . S
N1768 C1764 1.427 . S
N1768 C1765 1.384 . S
N1769 C1761 1.427 . S
N1769 C1767 1.384 . S
H1770 C1776 0.930 . S
H1771 C1780 0.930 . S
H1772 C1785 0.929 . S
H1773 C1783 0.929 . S
H1774 C1778 0.929 . S
H1775 C1784 0.929 . S
C1776 H1770 0.930 . S
C1776 C1777 1.367 . S
C1776 C1784 1.378 . S
C1777 C1776 1.367 . S
C1777 C1785 1.433 . S
C1778 H1774 0.929 . S
C1778 C1780 1.378 . S
C1778 C1782 1.350 . S
C1779 C1782 1.463 . S
C1779 C1784 1.350 . S
C1779 N1787 1.427 . S
C1780 H1771 0.930 . S
C1780 C1778 1.378 . S
C1780 C1781 1.367 . S
C1781 C1780 1.367 . S
C1781 C1783 1.433 . S
C1782 C1778 1.350 . S
C1782 C1779 1.463 . S
C1782 N1786 1.427 . S
C1783 H1773 0.929 . S
C1783 C1781 1.433 . S
C1783 N1786 1.384 . S
C1784 H1775 0.929 . S
C1784 C1776 1.378 . S
C1784 C1779 1.350 . S
C1785 H1772 0.929 . S
C1785 C1777 1.433 . S
C1785 N1787 1.384 . S
N1786 C1782 1.427 . S
N1786 C1783 1.384 . S
N1787 C1779 1.427 . S
N1787 C1785 1.384 . S
H1788 C1794 0.930 . S
H1789 C1798 0.930 . S
H1790 C1803 0.929 . S
H1791 C1801 0.929 . S
H1792 C1796 0.929 1_554 S
H1793 C1802 0.929 1_556 S
C1794 H1788 0.930 . S
C1794 C1795 1.367 . S
C1794 C1802 1.378 . S
C1795 C1794 1.367 . S
C1795 C1803 1.433 . S
C1796 H1792 0.929 1_556 S
C1796 C1798 1.378 . S
C1796 C1800 1.350 . S
C1797 C1800 1.463 1_554 S
C1797 C1802 1.350 . S
C1797 N1805 1.427 . S
C1798 H1789 0.930 . S
C1798 C1796 1.378 . S
C1798 C1799 1.367 . S
C1799 C1798 1.367 . S
C1799 C1801 1.433 . S
C1800 C1796 1.350 . S
C1800 C1797 1.463 1_556 S
C1800 N1804 1.427 . S
C1801 H1791 0.929 . S
C1801 C1799 1.433 . S
C1801 N1804 1.384 . S
C1802 H1793 0.929 1_554 S
C1802 C1794 1.378 . S
C1802 C1797 1.350 . S
C1803 H1790 0.929 . S
C1803 C1795 1.433 . S
C1803 N1805 1.384 . S
N1804 C1800 1.427 . S
N1804 C1801 1.384 . S
N1805 C1797 1.427 . S
N1805 C1803 1.384 . S
H1806 C1812 0.930 . S
H1807 C1816 0.930 . S
H1808 C1821 0.929 . S
H1809 C1819 0.929 . S
H1810 C1814 0.929 . S
H1811 C1820 0.929 . S
C1812 H1806 0.930 . S
C1812 C1813 1.367 . S
C1812 C1820 1.378 . S
C1813 C1812 1.367 . S
C1813 C1821 1.433 . S
C1814 H1810 0.929 . S
C1814 C1816 1.378 . S
C1814 C1818 1.350 . S
C1815 C1818 1.463 . S
C1815 C1820 1.350 . S
C1815 N1823 1.427 . S
C1816 H1807 0.930 . S
C1816 C1814 1.378 . S
C1816 C1817 1.367 . S
C1817 C1816 1.367 . S
C1817 C1819 1.433 . S
C1818 C1814 1.350 . S
C1818 C1815 1.463 . S
C1818 N1822 1.427 . S
C1819 H1809 0.929 . S
C1819 C1817 1.433 . S
C1819 N1822 1.384 . S
C1820 H1811 0.929 . S
C1820 C1812 1.378 . S
C1820 C1815 1.350 . S
C1821 H1808 0.929 . S
C1821 C1813 1.433 . S
C1821 N1823 1.384 . S
N1822 C1818 1.427 . S
N1822 C1819 1.384 . S
N1823 C1815 1.427 . S
N1823 C1821 1.384 . S
C535 C194 0.990 . S
C539 C10 0.975 . S
C553 C30 0.974 . S
C557 C206 0.992 . S
C571 C230 0.976 . S
C575 C52 0.990 . S
C589 C74 0.977 . S
C593 C260 0.989 . S
C607 C142 0.991 . S
C611 C106 0.975 . S
C625 C164 0.974 . S
C629 C118 0.992 . S
C643 C272 0.976 . S
C647 C458 0.989 . S
C661 C472 0.990 . S
C665 C296 0.976 . S
C679 C494 0.984 . S
C683 C326 0.982 . S
C697 C340 0.974 . S
C701 C516 0.991 . S
C715 C362 0.989 . S
C719 C404 0.977 . S
C733 C428 0.989 . S
C737 C392 0.977 . S
C751 C21 1.117 . S
C755 C65 1.154 . S
C769 C87 1.156 . S
C773 C29 1.119 . S
C787 C51 1.115 . S
C791 C95 1.150 . S
C805 C73 1.136 . S
C809 C131 1.148 . S
C823 C15 1.147 . S
C827 C103 1.136 . S
C841 C43 1.153 . S
C845 C117 1.130 . S
C859 C235 1.141 . S
C863 C153 1.128 . S
C877 C175 1.135 . S
C881 C249 1.142 . S
C895 C191 1.130 . S
C899 C147 1.140 . S
C913 C169 1.156 . S
C917 C205 1.122 . S
C931 C183 1.141 . S
C935 C241 1.134 . S
C949 C219 1.143 . S
C953 C257 1.136 . S
C967 C315 1.142 . S
C971 C271 1.135 . S
C985 C307 1.123 . S
C989 C345 1.156 . S
C1003 C323 1.123 . S
C1007 C367 1.156 . S
C1021 C351 1.135 . S
C1025 C381 1.142 . S
C1039 C285 1.144 . S
C1043 C373 1.136 . S
C1057 C301 1.152 . S
C1061 C389 1.115 . S
C1075 C403 1.129 . S
C1079 C499 1.154 . S
C1093 C439 1.121 . S
C1097 C521 1.156 . S
C1111 C455 1.117 . S
C1115 C417 1.155 . S
C1129 C483 1.121 . S
C1133 C433 1.143 . S
C1147 C447 1.153 . S
C1151 C505 1.116 . S
C1165 C477 1.143 . S
C1169 C527 1.136 . S
C1183 C7 1.483 . S
C1187 C337 1.481 . S
C1201 C359 1.482 . S
C1205 C37 1.482 . S
C1219 C59 1.481 . S
C1223 C395 1.482 . S
C1237 C81 1.481 . S
C1241 C279 1.483 . S
C1255 C293 1.482 . S
C1259 C109 1.481 . S
C1273 C125 1.481 . S
C1277 C329 1.482 . S
C1291 C139 1.481 . S
C1295 C469 1.482 . S
C1309 C491 1.481 . S
C1313 C161 1.482 . S
C1327 C197 1.482 . S
C1331 C513 1.482 . S
C1345 C213 1.482 . S
C1349 C411 1.481 . S
C1363 C425 1.481 . S
C1367 C227 1.482 . S
C1381 C461 1.483 . S
C1385 C263 1.481 . S
C1399 C448 1.241 . S
C1403 C18 1.245 . S
C1417 C480 1.246 . S
C1421 C32 1.240 . S
C1435 C502 1.239 . S
C1439 C54 1.247 . S
C1453 C524 1.250 . S
C1457 C76 1.236 . S
C1471 C406 1.249 . S
C1475 C96 1.237 . S
C1489 C120 1.240 . S
C1493 C436 1.246 . S
C1507 C150 1.245 . S
C1511 C370 1.241 . S
C1525 C382 1.244 . S
C1529 C172 1.243 . S
C1543 C274 1.238 . S
C1547 C184 1.248 . S
C1561 C304 1.242 . S
C1565 C208 1.245 . S
C1579 C238 1.237 . S
C1583 C316 1.249 . S
C1597 C250 1.240 . S
C1601 C348 1.247 . S
C1615 C228 1.038 . S
C1619 C8 1.051 . S
C1633 C252 1.040 . S
C1637 C40 1.054 . S
C1651 C62 1.053 . S
C1655 C140 1.037 . S
C1669 C84 1.038 . S
C1673 C162 1.052 . S
C1687 C186 1.049 . S
C1691 C98 1.045 . S
C1705 C128 1.046 . S
C1709 C216 1.043 . S
C1723 C492 1.047 . S
C1727 C282 1.048 . S
C1741 C514 1.038 . S
C1745 C294 1.051 . S
C1759 C414 1.036 . S
C1763 C318 1.055 . S
C1777 C338 1.038 . S
C1781 C426 1.055 . S
C1795 C450 1.048 . S
C1799 C360 1.047 . S
C1813 C384 1.056 . S
C1817 C470 1.037 . S
