# Generated by pormake.
# Topology why, (6)-cn, num edge types: 1
# Building blocks:
#     Node 0, Type 0, BuildingBlock: MIFKUJ_clean_sbu_0, # of connection points: 6
#     Node 1, Type 0, BuildingBlock: MIFKUJ_clean_sbu_0, # of connection points: 6
#     Node 2, Type 0, BuildingBlock: MIFKUJ_clean_sbu_0, # of connection points: 6
#     Node 3, Type 0, BuildingBlock: MIFKUJ_clean_sbu_0, # of connection points: 6
#     Node 4, Type 0, BuildingBlock: MIFKUJ_clean_sbu_0, # of connection points: 6
#     Node 5, Type 0, BuildingBlock: MIFKUJ_clean_sbu_0, # of connection points: 6
#     Node 6, Type 0, BuildingBlock: MIFKUJ_clean_sbu_0, # of connection points: 6
#     Node 7, Type 0, BuildingBlock: MIFKUJ_clean_sbu_0, # of connection points: 6
#     Node 8, Type 0, BuildingBlock: MIFKUJ_clean_sbu_0, # of connection points: 6
#     Node 9, Type 0, BuildingBlock: MIFKUJ_clean_sbu_0, # of connection points: 6
#     Node 10, Type 0, BuildingBlock: MIFKUJ_clean_sbu_0, # of connection points: 6
#     Node 11, Type 0, BuildingBlock: MIFKUJ_clean_sbu_0, # of connection points: 6
#     Node 12, Type 0, BuildingBlock: MIFKUJ_clean_sbu_0, # of connection points: 6
#     Node 13, Type 0, BuildingBlock: MIFKUJ_clean_sbu_0, # of connection points: 6
#     Node 14, Type 0, BuildingBlock: MIFKUJ_clean_sbu_0, # of connection points: 6
#     Node 15, Type 0, BuildingBlock: MIFKUJ_clean_sbu_0, # of connection points: 6
#     Edge 16, Type (0, 0), BuildingBlock: CIFDUS_clean_linker_0, # of connection points: 2
#     Edge 17, Type (0, 0), BuildingBlock: CIFDUS_clean_linker_0, # of connection points: 2
#     Edge 18, Type (0, 0), BuildingBlock: CIFDUS_clean_linker_0, # of connection points: 2
#     Edge 19, Type (0, 0), BuildingBlock: CIFDUS_clean_linker_0, # of connection points: 2
#     Edge 20, Type (0, 0), BuildingBlock: CIFDUS_clean_linker_0, # of connection points: 2
#     Edge 21, Type (0, 0), BuildingBlock: CIFDUS_clean_linker_0, # of connection points: 2
#     Edge 22, Type (0, 0), BuildingBlock: CIFDUS_clean_linker_0, # of connection points: 2
#     Edge 23, Type (0, 0), BuildingBlock: CIFDUS_clean_linker_0, # of connection points: 2
#     Edge 24, Type (0, 0), BuildingBlock: CIFDUS_clean_linker_0, # of connection points: 2
#     Edge 25, Type (0, 0), BuildingBlock: CIFDUS_clean_linker_0, # of connection points: 2
#     Edge 26, Type (0, 0), BuildingBlock: CIFDUS_clean_linker_0, # of connection points: 2
#     Edge 27, Type (0, 0), BuildingBlock: CIFDUS_clean_linker_0, # of connection points: 2
#     Edge 28, Type (0, 0), BuildingBlock: CIFDUS_clean_linker_0, # of connection points: 2
#     Edge 29, Type (0, 0), BuildingBlock: CIFDUS_clean_linker_0, # of connection points: 2
#     Edge 30, Type (0, 0), BuildingBlock: CIFDUS_clean_linker_0, # of connection points: 2
#     Edge 31, Type (0, 0), BuildingBlock: CIFDUS_clean_linker_0, # of connection points: 2
#     Edge 32, Type (0, 0), BuildingBlock: CIFDUS_clean_linker_0, # of connection points: 2
#     Edge 33, Type (0, 0), BuildingBlock: CIFDUS_clean_linker_0, # of connection points: 2
#     Edge 34, Type (0, 0), BuildingBlock: CIFDUS_clean_linker_0, # of connection points: 2
#     Edge 35, Type (0, 0), BuildingBlock: CIFDUS_clean_linker_0, # of connection points: 2
#     Edge 36, Type (0, 0), BuildingBlock: CIFDUS_clean_linker_0, # of connection points: 2
#     Edge 37, Type (0, 0), BuildingBlock: CIFDUS_clean_linker_0, # of connection points: 2
#     Edge 38, Type (0, 0), BuildingBlock: CIFDUS_clean_linker_0, # of connection points: 2
#     Edge 39, Type (0, 0), BuildingBlock: CIFDUS_clean_linker_0, # of connection points: 2
#     Edge 40, Type (0, 0), BuildingBlock: CIFDUS_clean_linker_0, # of connection points: 2
#     Edge 41, Type (0, 0), BuildingBlock: CIFDUS_clean_linker_0, # of connection points: 2
#     Edge 42, Type (0, 0), BuildingBlock: CIFDUS_clean_linker_0, # of connection points: 2
#     Edge 43, Type (0, 0), BuildingBlock: CIFDUS_clean_linker_0, # of connection points: 2
#     Edge 44, Type (0, 0), BuildingBlock: CIFDUS_clean_linker_0, # of connection points: 2
#     Edge 45, Type (0, 0), BuildingBlock: CIFDUS_clean_linker_0, # of connection points: 2
#     Edge 46, Type (0, 0), BuildingBlock: CIFDUS_clean_linker_0, # of connection points: 2
#     Edge 47, Type (0, 0), BuildingBlock: CIFDUS_clean_linker_0, # of connection points: 2
#     Edge 48, Type (0, 0), BuildingBlock: CIFDUS_clean_linker_0, # of connection points: 2
#     Edge 49, Type (0, 0), BuildingBlock: CIFDUS_clean_linker_0, # of connection points: 2
#     Edge 50, Type (0, 0), BuildingBlock: CIFDUS_clean_linker_0, # of connection points: 2
#     Edge 51, Type (0, 0), BuildingBlock: CIFDUS_clean_linker_0, # of connection points: 2
#     Edge 52, Type (0, 0), BuildingBlock: CIFDUS_clean_linker_0, # of connection points: 2
#     Edge 53, Type (0, 0), BuildingBlock: CIFDUS_clean_linker_0, # of connection points: 2
#     Edge 54, Type (0, 0), BuildingBlock: CIFDUS_clean_linker_0, # of connection points: 2
#     Edge 55, Type (0, 0), BuildingBlock: CIFDUS_clean_linker_0, # of connection points: 2
#     Edge 56, Type (0, 0), BuildingBlock: CIFDUS_clean_linker_0, # of connection points: 2
#     Edge 57, Type (0, 0), BuildingBlock: CIFDUS_clean_linker_0, # of connection points: 2
#     Edge 58, Type (0, 0), BuildingBlock: CIFDUS_clean_linker_0, # of connection points: 2
#     Edge 59, Type (0, 0), BuildingBlock: CIFDUS_clean_linker_0, # of connection points: 2
#     Edge 60, Type (0, 0), BuildingBlock: CIFDUS_clean_linker_0, # of connection points: 2
#     Edge 61, Type (0, 0), BuildingBlock: CIFDUS_clean_linker_0, # of connection points: 2
#     Edge 62, Type (0, 0), BuildingBlock: CIFDUS_clean_linker_0, # of connection points: 2
#     Edge 63, Type (0, 0), BuildingBlock: CIFDUS_clean_linker_0, # of connection points: 2
# Relax obj value: 0.200
# Max RMSD: 0.174
# Mean RMSD: 0.174
data_MOF--net-why--node1-MIFKUJ_clean_sbu_0--edge1-CIFDUS_clean_linker_0
_symmetry_space_group_name_H-M    P1
_symmetry_Int_Tables_number       1
_symmetry_cell_setting            triclinic
loop_
_symmetry_equiv_pos_as_xyz
'x, y, z'
_cell_length_a     45.413865
_cell_length_b     45.282568
_cell_length_c     27.135043
_cell_angle_alpha  90.436512
_cell_angle_beta   90.195338
_cell_angle_gamma 89.955318
loop_
_atom_site_label
_atom_site_type_symbol
_atom_site_fract_x
_atom_site_fract_y
_atom_site_fract_z
_atom_type_partial_charge
Zn0 Zn 0.32138 0.17147 0.06657 0.0
Zn1 Zn 0.39929 0.1607 0.01139 0.0
C2 C 0.26803 0.17608 0.01435 0.0
O3 O 0.27556 0.20378 0.02178 0.0
C4 C 0.44357 0.19088 0.06181 0.0
O5 O 0.45053 0.16302 0.06856 0.0
O6 O 0.30861 0.19765 0.12273 0.0
O7 O 0.34595 0.13736 0.09801 0.0
O8 O 0.39064 0.13377 0.06487 0.0
C9 C 0.28446 0.19631 0.14606 0.0
O10 O 0.26557 0.17523 0.13538 0.0
O11 O 0.2847 0.15596 0.03141 0.0
C12 C 0.42772 0.13775 0.92203 0.0
O13 O 0.40316 0.14473 0.89917 0.0
O14 O 0.4297 0.14157 0.9683 0.0
O15 O 0.36269 0.16882 0.97457 0.0
O16 O 0.3404 0.20142 0.02009 0.0
O17 O 0.41954 0.19681 0.03979 0.0
C18 C 0.37148 0.12543 0.0956 0.0
C19 C 0.35453 0.19517 0.9812 0.0
Zn20 Zn 0.5873 0.56452 0.32197 0.0
Zn21 Zn 0.59562 0.63686 0.2474 0.0
C22 C 0.58329 0.51159 0.26774 0.0
O23 O 0.55586 0.51668 0.28062 0.0
C24 C 0.56785 0.68426 0.298 0.0
O25 O 0.59564 0.69181 0.30286 0.0
O26 O 0.56583 0.54846 0.3806 0.0
O27 O 0.61997 0.59214 0.34735 0.0
O28 O 0.62454 0.63326 0.30284 0.0
C29 C 0.57182 0.52497 0.40382 0.0
O30 O 0.59536 0.50968 0.39183 0.0
O31 O 0.60301 0.5298 0.28174 0.0
C32 C 0.59967 0.68176 0.17235 0.0
O33 O 0.57277 0.68744 0.18717 0.0
O34 O 0.61384 0.66038 0.19135 0.0
O35 O 0.58149 0.59779 0.22369 0.0
O36 O 0.55382 0.5828 0.28391 0.0
O37 O 0.56161 0.66037 0.27531 0.0
C38 C 0.63233 0.61686 0.33849 0.0
C39 C 0.55607 0.59287 0.2407 0.0
Zn40 Zn 0.1811 0.83803 0.58222 0.0
Zn41 Zn 0.10797 0.84914 0.50956 0.0
C42 C 0.2229 0.86652 0.51254 0.0
O43 O 0.19972 0.87629 0.48856 0.0
C44 C 0.05708 0.81773 0.54157 0.0
O45 O 0.04524 0.84358 0.53222 0.0
O46 O 0.19211 0.81839 0.64591 0.0
O47 O 0.155 0.87317 0.59971 0.0
O48 O 0.11219 0.8809 0.56142 0.0
C49 C 0.21508 0.80234 0.64702 0.0
O50 O 0.23102 0.79956 0.60694 0.0
O51 O 0.21933 0.85137 0.55133 0.0
C52 C 0.0816 0.85172 0.41223 0.0
O53 O 0.0971 0.82765 0.4047 0.0
O54 O 0.08364 0.86515 0.45343 0.0
O55 O 0.14734 0.83593 0.48464 0.0
O56 O 0.16374 0.80555 0.54035 0.0
O57 O 0.08476 0.81458 0.53646 0.0
C58 C 0.13147 0.88813 0.59355 0.0
C59 C 0.15344 0.80984 0.4976 0.0
Zn60 Zn 0.92915 0.43694 0.81858 0.0
Zn61 Zn 0.90742 0.35865 0.7647 0.0
C62 C 0.90574 0.49571 0.78646 0.0
O63 O 0.90726 0.50421 0.83275 0.0
C64 C 0.9328 0.30798 0.80615 0.0
O65 O 0.90473 0.30112 0.80339 0.0
O66 O 0.95239 0.45552 0.87455 0.0
O67 O 0.89434 0.41134 0.84508 0.0
O68 O 0.87828 0.36744 0.81704 0.0
C69 C 0.94164 0.46728 0.91321 0.0
O70 O 0.91297 0.46723 0.91957 0.0
O71 O 0.91281 0.46937 0.77479 0.0
C72 C 0.91007 0.31774 0.68577 0.0
O73 O 0.93791 0.32026 0.69832 0.0
O74 O 0.89103 0.33361 0.70805 0.0
O75 O 0.91952 0.39814 0.74209 0.0
O76 O 0.95903 0.41694 0.77383 0.0
O77 O 0.94056 0.3341 0.79474 0.0
C78 C 0.87652 0.38936 0.84678 0.0
C79 C 0.94697 0.40193 0.7399 0.0
Zn80 Zn 0.61948 0.85325 -0.0004 0.0
Zn81 Zn 0.68276 0.8381 0.92014 0.0
C82 C 0.57754 0.8186 0.946 0.0
O83 O 0.56687 0.84487 0.93599 0.0
C84 C 0.73429 0.84237 0.97824 0.0
O85 O 0.72875 0.81397 0.98116 0.0
O86 O 0.59294 0.86995 0.05283 0.0
O87 O 0.65925 0.84321 0.0246 0.0
O88 O 0.66641 0.80869 0.96999 0.0
C89 C 0.5739 0.85387 0.07404 0.0
O90 O 0.57247 0.82563 0.06292 0.0
O91 O 0.60058 0.8166 0.97233 0.0
C92 C 0.70051 0.81818 0.81995 0.0
O93 O 0.68837 0.84264 0.80384 0.0
O94 O 0.70006 0.81265 0.86581 0.0
O95 O 0.6554 0.87026 0.89096 0.0
O96 O 0.62064 0.88182 0.94557 0.0
O97 O 0.71727 0.85857 0.95283 0.0
C98 C 0.66204 0.81599 0.01469 0.0
C99 C 0.63353 0.88605 0.90482 0.0
Zn100 Zn 0.41423 0.36564 0.72976 0.0
Zn101 Zn 0.42267 0.43712 0.65766 0.0
C102 C 0.44757 0.31588 0.69607 0.0
O103 O 0.42081 0.30528 0.69074 0.0
C104 C 0.41241 0.49177 0.70716 0.0
O105 O 0.43914 0.4964 0.69052 0.0
O106 O 0.39313 0.34317 0.78323 0.0
O107 O 0.4253 0.40543 0.75578 0.0
O108 O 0.45556 0.42185 0.7004 0.0
C109 C 0.40839 0.32715 0.81187 0.0
O110 O 0.43713 0.32661 0.80682 0.0
O111 O 0.45073 0.34237 0.71121 0.0
C112 C 0.43814 0.47915 0.57783 0.0
O113 O 0.41249 0.49195 0.58478 0.0
O114 O 0.44507 0.45671 0.60314 0.0
O115 O 0.39374 0.408 0.62649 0.0
O116 O 0.38809 0.36693 0.67035 0.0
O117 O 0.39995 0.46728 0.69766 0.0
C118 C 0.45122 0.41251 0.74361 0.0
C119 C 0.38184 0.38287 0.63334 0.0
Zn120 Zn 0.88804 0.16145 0.48911 0.0
Zn121 Zn 0.81827 0.16467 0.41989 0.0
C122 C 0.92309 0.19177 0.41743 0.0
O123 O 0.93237 0.16477 0.40848 0.0
C124 C 0.7641 0.16785 0.467 0.0
O125 O 0.76649 0.19396 0.44661 0.0
O126 O 0.91854 0.152 0.54267 0.0
O127 O 0.84944 0.17195 0.51867 0.0
O128 O 0.83434 0.19988 0.45852 0.0
C129 C 0.94245 0.16659 0.54641 0.0
O130 O 0.94691 0.18907 0.51718 0.0
O131 O 0.90286 0.19573 0.44906 0.0
C132 C 0.80558 0.2023 0.33374 0.0
O133 O 0.83181 0.21381 0.3409 0.0
O134 O 0.7972 0.18098 0.36043 0.0
O135 O 0.84496 0.12993 0.39803 0.0
O136 O 0.88501 0.12665 0.44517 0.0
O137 O 0.78504 0.14939 0.46179 0.0
C138 C 0.84169 0.19716 0.50346 0.0
C139 C 0.86874 0.11684 0.41058 0.0
Zn140 Zn 0.09576 0.64556 0.22648 0.0
Zn141 Zn 0.08356 0.56927 0.17242 0.0
C142 C 0.05961 0.69087 0.18864 0.0
O143 O 0.08587 0.70282 0.18515 0.0
C144 C 0.07886 0.51391 0.21753 0.0
O145 O 0.05154 0.51992 0.20498 0.0
O146 O 0.11402 0.6761 0.27126 0.0
O147 O 0.08984 0.60871 0.2648 0.0
O148 O 0.0549 0.58794 0.22177 0.0
C149 C 0.09889 0.68881 0.30451 0.0
O150 O 0.07119 0.6815 0.31059 0.0
O151 O 0.05769 0.66411 0.20237 0.0
C152 C 0.0684 0.53573 0.08478 0.0
O153 O 0.09588 0.52695 0.08876 0.0
O154 O 0.05859 0.55475 0.11527 0.0
O155 O 0.11968 0.59205 0.1458 0.0
O156 O 0.12499 0.63808 0.1744 0.0
O157 O 0.09878 0.53252 0.20698 0.0
C158 C 0.06361 0.59963 0.2619 0.0
C159 C 0.13325 0.61676 0.14707 0.0
Zn160 Zn 0.81445 0.67554 0.57592 0.0
Zn161 Zn 0.88808 0.65676 0.51343 0.0
C162 C 0.7627 0.6667 0.5189 0.0
O163 O 0.76044 0.69502 0.52914 0.0
C164 C 0.93433 0.69257 0.55811 0.0
O165 O 0.94536 0.66665 0.56948 0.0
O166 O 0.79219 0.6999 0.62648 0.0
O167 O 0.84159 0.64567 0.61049 0.0
O168 O 0.88255 0.63048 0.57205 0.0
C169 C 0.79027 0.6939 0.67202 0.0
O170 O 0.80322 0.67005 0.68884 0.0
O171 O 0.78471 0.65255 0.53557 0.0
C172 C 0.93433 0.6493 0.44144 0.0
O173 O 0.94034 0.67646 0.45522 0.0
O174 O 0.91247 0.63596 0.46029 0.0
O175 O 0.84932 0.66864 0.48622 0.0
O176 O 0.83306 0.70517 0.53067 0.0
O177 O 0.9096 0.69369 0.53606 0.0
C178 C 0.86459 0.6294 0.60804 0.0
C179 C 0.84514 0.69614 0.49136 0.0
Zn180 Zn 0.08133 0.0706 0.82703 0.0
Zn181 Zn 0.09695 0.14702 0.76805 0.0
C182 C 0.07481 0.02368 0.75902 0.0
O183 O 0.04729 0.03081 0.76809 0.0
C184 C 0.07117 0.19898 0.8092 0.0
O185 O 0.09924 0.20585 0.81199 0.0
O186 O 0.06022 0.05032 0.88285 0.0
O187 O 0.11653 0.09373 0.85633 0.0
O188 O 0.125 0.13784 0.82291 0.0
C189 C 0.05438 0.06455 0.92214 0.0
O190 O 0.06324 0.09208 0.92632 0.0
O191 O 0.0952 0.03808 0.78074 0.0
C192 C 0.10327 0.18816 0.68917 0.0
O193 O 0.07459 0.18911 0.69505 0.0
O194 O 0.11839 0.17089 0.71608 0.0
O195 O 0.08058 0.11043 0.73701 0.0
O196 O 0.04943 0.0931 0.79063 0.0
O197 O 0.06408 0.17336 0.79362 0.0
C198 C 0.1312 0.11777 0.85394 0.0
C199 C 0.05425 0.10545 0.74965 0.0
Zn200 Zn 0.68821 0.33177 0.06279 0.0
Zn201 Zn 0.60896 0.34455 0.01192 0.0
C202 C 0.73695 0.36223 0.01821 0.0
O203 O 0.74285 0.36912 0.06432 0.0
C204 C 0.55412 0.32644 0.05164 0.0
O205 O 0.54899 0.35477 0.04579 0.0
O206 O 0.71686 0.31453 0.11194 0.0
O207 O 0.66582 0.3654 0.097 0.0
O208 O 0.62125 0.37326 0.06488 0.0
C209 C 0.70872 0.29586 0.14383 0.0
O210 O 0.68072 0.28874 0.14635 0.0
O211 O 0.7137 0.34764 0.00838 0.0
C212 C 0.56929 0.34854 0.93254 0.0
O213 O 0.57095 0.3199 0.93895 0.0
O214 O 0.58534 0.36549 0.95885 0.0
O215 O 0.64124 0.32162 0.97901 0.0
O216 O 0.66587 0.29656 0.03461 0.0
O217 O 0.57971 0.3164 0.04227 0.0
C218 C 0.64164 0.37974 0.09542 0.0
C219 C 0.64901 0.2971 -0.00281 0.0
Zn220 Zn 0.41255 0.93678 0.32065 0.0
Zn221 Zn 0.40627 0.84275 0.29302 0.0
C222 C 0.40472 0.98995 0.27411 0.0
O223 O 0.43322 0.98845 0.28234 0.0
C224 C 0.42612 0.78588 0.32331 0.0
O225 O 0.39858 0.77933 0.31306 0.0
O226 O 0.43605 0.95558 0.3763 0.0
O227 O 0.38554 0.90209 0.34203 0.0
O228 O 0.37451 0.85419 0.34099 0.0
C229 C 0.43631 0.95098 0.42243 0.0
O230 O 0.41823 0.93141 0.44109 0.0
O231 O 0.38858 0.96891 0.28877 0.0
C232 C 0.40267 0.80858 0.2028 0.0
O233 O 0.43044 0.80382 0.21364 0.0
O234 O 0.38758 0.82545 0.23073 0.0
O235 O 0.4259 0.88093 0.28065 0.0
O236 O 0.44422 0.92429 0.2712 0.0
O237 O 0.43429 0.81268 0.32101 0.0
C238 C 0.36905 0.88062 0.35502 0.0
C239 C 0.44548 0.89696 0.26157 0.0
Zn240 Zn 0.09674 0.33718 0.45109 0.0
Zn241 Zn 0.18737 0.33786 0.42389 0.0
C242 C 0.0482 0.31103 0.39683 0.0
O243 O 0.03916 0.33856 0.39436 0.0
C244 C 0.24419 0.34403 0.46228 0.0
O245 O 0.24087 0.31523 0.45964 0.0
O246 O 0.07825 0.35273 0.51417 0.0
O247 O 0.13609 0.32413 0.46283 0.0
O248 O 0.17881 0.30879 0.48088 0.0
C249 C 0.05342 0.34307 0.52821 0.0
O250 O 0.04003 0.32261 0.50203 0.0
O251 O 0.07259 0.3054 0.41784 0.0
C252 C 0.2207 0.31302 0.34065 0.0
O253 O 0.23839 0.33569 0.34692 0.0
O254 O 0.19812 0.31057 0.3678 0.0
O255 O 0.15418 0.36705 0.3965 0.0
O256 O 0.10506 0.36973 0.40568 0.0
O257 O 0.22349 0.36042 0.44648 0.0
C258 C 0.15156 0.30706 0.48832 0.0
C259 C 0.12911 0.37936 0.38751 0.0
Zn260 Zn 0.90713 0.86733 0.24503 0.0
Zn261 Zn 0.9185 0.93259 0.16417 0.0
C262 C 0.93683 0.81645 0.20483 0.0
O263 O 0.91007 0.80559 0.2076 0.0
C264 C 0.91298 0.97989 0.23823 0.0
O265 O 0.94006 0.97208 0.24915 0.0
O266 O 0.89087 0.84535 0.30368 0.0
O267 O 0.92048 0.90709 0.26625 0.0
O268 O 0.95125 0.91419 0.20593 0.0
C269 C 0.90707 0.82739 0.32735 0.0
O270 O 0.93488 0.82435 0.31527 0.0
O271 O 0.94114 0.84324 0.21749 0.0
C272 C 0.95436 0.97363 0.10995 0.0
O273 O 0.95579 0.98594 0.15379 0.0
O274 O 0.93906 0.95027 0.10427 0.0
O275 O 0.8846 0.9057 0.14013 0.0
O276 O 0.87628 0.86947 0.19351 0.0
O277 O 0.89953 0.96651 0.20338 0.0
C278 C 0.94667 0.90952 0.25134 0.0
C279 C 0.86962 0.88351 0.15463 0.0
Zn280 Zn 0.40885 0.66459 0.95272 0.0
Zn281 Zn 0.31785 0.66559 0.92302 0.0
C282 C 0.45849 0.69297 0.91483 0.0
O283 O 0.46932 0.66658 0.92344 0.0
C284 C 0.28033 0.63704 0.99114 0.0
O285 O 0.30214 0.64502 0.02023 0.0
O286 O 0.43416 0.64964 0.00823 0.0
O287 O 0.36932 0.67729 0.96669 0.0
O288 O 0.32698 0.69578 0.97939 0.0
C289 C 0.4304 0.64484 0.05382 0.0
O290 O 0.40416 0.64801 0.07341 0.0
O291 O 0.43124 0.69751 0.92186 0.0
C292 C 0.28083 0.70451 0.86493 0.0
O293 O 0.26337 0.70361 0.9034 0.0
O294 O 0.30475 0.68996 0.86551 0.0
O295 O 0.35235 0.6392 0.89373 0.0
O296 O 0.40115 0.63375 0.90338 0.0
O297 O 0.2827 0.64147 0.94512 0.0
C298 C 0.35404 0.69574 0.99005 0.0
C299 C 0.37684 0.6264 0.88307 0.0
Zn300 Zn 0.59729 0.13602 0.72785 0.0
Zn301 Zn 0.58538 0.06419 0.65422 0.0
C302 C 0.56803 0.18772 0.69361 0.0
O303 O 0.59457 0.19846 0.70101 0.0
C304 C 0.58838 0.01681 0.72332 0.0
O305 O 0.55983 0.02145 0.72459 0.0
O306 O 0.61246 0.16044 0.7863 0.0
O307 O 0.5812 0.09791 0.75277 0.0
O308 O 0.55295 0.08423 0.69143 0.0
C309 C 0.59239 0.17064 0.81441 0.0
O310 O 0.56494 0.16328 0.80523 0.0
O311 O 0.56377 0.16023 0.6998 0.0
C312 C 0.56154 0.04817 0.55464 0.0
O313 O 0.57642 0.0706 0.53705 0.0
O314 O 0.56362 0.04207 0.60015 0.0
O315 O 0.6187 0.08989 0.6294 0.0
O316 O 0.62823 0.13033 0.67518 0.0
O317 O 0.60428 0.033 0.69628 0.0
C318 C 0.55567 0.09351 0.73532 0.0
C319 C 0.63386 0.11292 0.63922 0.0
H320 H 0.43807 0.25045 0.04883 0.0
H321 H 0.49936 0.18344 0.09657 0.0
H322 H 0.53866 0.21989 0.10073 0.0
H323 H 0.55688 0.26972 0.08325 0.0
H324 H 0.49558 0.33727 0.03833 0.0
H325 H 0.4552 0.30179 0.04086 0.0
C326 C 0.45991 0.24391 0.06089 0.0
C327 C 0.46578 0.21414 0.07169 0.0
C328 C 0.48257 0.26504 0.06327 0.0
C329 C 0.49418 0.20614 0.08762 0.0
C330 C 0.51678 0.22696 0.08989 0.0
C331 C 0.53461 0.27674 0.07468 0.0
C332 C 0.52933 0.30596 0.06012 0.0
C333 C 0.51142 0.25629 0.07658 0.0
C334 C 0.5003 0.31486 0.04961 0.0
C335 C 0.47716 0.29455 0.05085 0.0
H336 H 0.50851 0.67531 0.29568 0.0
H337 H 0.5745 0.7403 0.33361 0.0
H338 H 0.53618 0.77683 0.34939 0.0
H339 H 0.48431 0.79162 0.34534 0.0
H340 H 0.41818 0.72677 0.30759 0.0
H341 H 0.45615 0.68891 0.29955 0.0
C342 C 0.51449 0.69737 0.30792 0.0
C343 C 0.54435 0.70512 0.31285 0.0
C344 C 0.49233 0.71838 0.31687 0.0
C345 C 0.55171 0.73374 0.32919 0.0
C346 C 0.5298 0.75472 0.33817 0.0
C347 C 0.47813 0.76911 0.3361 0.0
C348 C 0.44846 0.76215 0.32666 0.0
C349 C 0.50009 0.74747 0.3311 0.0
C350 C 0.44085 0.7328 0.31502 0.0
C351 C 0.46257 0.71112 0.31013 0.0
H352 H 0.99727 0.81592 0.54074 0.0
H353 H 0.07381 0.76183 0.56798 0.0
H354 H 0.04231 0.71875 0.57947 0.0
H355 H 0.99324 0.69583 0.57655 0.0
H356 H 0.91699 0.74977 0.54598 0.0
H357 H 0.94816 0.79357 0.54178 0.0
C358 C 0.00712 0.7948 0.54968 0.0
C359 C 0.03796 0.79212 0.55302 0.0
C360 C 0.98887 0.77005 0.55571 0.0
C361 C 0.05022 0.76451 0.56465 0.0
C362 C 0.03218 0.73985 0.57134 0.0
C363 C 0.98336 0.71723 0.56973 0.0
C364 C 0.95279 0.71948 0.56164 0.0
C365 C 0.00151 0.74226 0.56621 0.0
C366 C 0.94044 0.74738 0.55236 0.0
C367 C 0.95826 0.77244 0.54978 0.0
H368 H 0.99193 0.31349 0.82374 0.0
H369 H 0.9234 0.24865 0.80186 0.0
H370 H 0.95976 0.20912 0.80322 0.0
H371 H 0.01137 0.19291 0.80561 0.0
H372 H 0.07998 0.25745 0.82936 0.0
H373 H 0.04334 0.29679 0.83287 0.0
C374 C 0.98494 0.29069 0.81985 0.0
C375 C 0.95496 0.28417 0.81261 0.0
C376 C 0.00603 0.26786 0.82088 0.0
C377 C 0.94629 0.25444 0.80775 0.0
C378 C 0.96711 0.23171 0.8083 0.0
C379 C 0.0183 0.21553 0.81211 0.0
C380 C 0.04845 0.22215 0.81684 0.0
C381 C 0.99708 0.23817 0.81414 0.0
C382 C 0.05696 0.25163 0.82543 0.0
C383 C 0.036 0.27424 0.82731 0.0
H384 H 0.52253 0.81541 0.90699 0.0
H385 H 0.5952 0.76136 0.95593 0.0
H386 H 0.56552 0.71699 0.94401 0.0
H387 H 0.51755 0.69421 0.92835 0.0
H388 H 0.44385 0.74851 0.88499 0.0
H389 H 0.4755 0.79212 0.88533 0.0
C390 C 0.53202 0.7939 0.91434 0.0
C391 C 0.56091 0.79171 0.9327 0.0
C392 C 0.51462 0.76854 0.9086 0.0
C393 C 0.57292 0.76367 0.94206 0.0
C394 C 0.55596 0.73828 0.93532 0.0
C395 C 0.50851 0.71548 0.91803 0.0
C396 C 0.47839 0.71819 0.90695 0.0
C397 C 0.52657 0.74054 0.91985 0.0
C398 C 0.46698 0.74592 0.89393 0.0
C399 C 0.48502 0.77086 0.89427 0.0
H400 H 0.44758 0.25661 0.67881 0.0
H401 H 0.50583 0.33088 0.70111 0.0
H402 H 0.54836 0.29787 0.69823 0.0
H403 H 0.56877 0.24774 0.69464 0.0
H404 H 0.5104 0.17322 0.67624 0.0
H405 H 0.46819 0.20659 0.67194 0.0
C406 C 0.46958 0.26566 0.68255 0.0
C407 C 0.47346 0.29621 0.69025 0.0
C408 C 0.49393 0.24649 0.68171 0.0
C409 C 0.50217 0.30747 0.6952 0.0
C410 C 0.52652 0.2886 0.69363 0.0
C411 C 0.54687 0.23876 0.68909 0.0
C412 C 0.54281 0.20798 0.68578 0.0
C413 C 0.52263 0.25803 0.68764 0.0
C414 C 0.51421 0.19679 0.67885 0.0
C415 C 0.49002 0.21587 0.67654 0.0
H416 H 0.97958 0.19123 0.38576 0.0
H417 H 0.90664 0.24972 0.41568 0.0
H418 H 0.93865 0.29252 0.40444 0.0
H419 H 0.98852 0.3129 0.39681 0.0
H420 H 0.0621 0.25396 0.37514 0.0
H421 H 0.02867 0.21173 0.3719 0.0
C422 C 0.9705 0.21334 0.38866 0.0
C423 C 0.9408 0.21732 0.40158 0.0
C424 C 0.98927 0.23775 0.38412 0.0
C425 C 0.92947 0.24611 0.40582 0.0
C426 C 0.94778 0.27057 0.3996 0.0
C427 C 0.99714 0.29089 0.39018 0.0
C428 C 0.0277 0.2865 0.38621 0.0
C429 C 0.97791 0.26663 0.39029 0.0
C430 C 0.03864 0.25783 0.37839 0.0
C431 C 0.01955 0.23369 0.37669 0.0
H432 H 0.05771 0.75022 0.17533 0.0
H433 H 0.00165 0.67424 0.19445 0.0
H434 H 0.95839 0.70642 0.19731 0.0
H435 H 0.93699 0.75635 0.20043 0.0
H436 H 0.99361 0.83222 0.18515 0.0
H437 H 0.03615 0.79982 0.17475 0.0
C438 C 0.03602 0.74058 0.17951 0.0
C439 C 0.033 0.70979 0.1847 0.0
C440 C 0.01135 0.75925 0.18222 0.0
C441 C 0.00466 0.69782 0.19031 0.0
C442 C 0.97991 0.71623 0.19212 0.0
C443 C 0.95857 0.76582 0.1942 0.0
C444 C 0.96209 0.79673 0.19381 0.0
C445 C 0.98305 0.74702 0.189 0.0
C446 C 0.99028 0.80857 0.18599 0.0
C447 C 0.01463 0.79002 0.17998 0.0
H448 H 0.15499 0.17046 0.87919 0.0
H449 H 0.16386 0.07707 0.90569 0.0
H450 H 0.20694 0.08656 0.95829 0.0
H451 H 0.24308 0.12174 0.99486 0.0
H452 H 0.23214 0.21507 0.96826 0.0
H453 H 0.18897 0.20514 0.91783 0.0
C454 C 0.1663 0.15209 0.89641 0.0
C455 C 0.15633 0.12307 0.88809 0.0
C456 C 0.1908 0.15771 0.92665 0.0
C457 C 0.17104 0.09965 0.91144 0.0
C458 C 0.19574 0.10506 0.9414 0.0
C459 C 0.2312 0.13987 0.97809 0.0
C460 C 0.24111 0.16912 0.98521 0.0
C461 C 0.20599 0.13404 0.94899 0.0
C462 C 0.22524 0.19234 0.96344 0.0
C463 C 0.20046 0.18672 0.93446 0.0
H464 H 0.58902 0.40062 0.12629 0.0
H465 H 0.68245 0.41414 0.14411 0.0
H466 H 0.67297 0.45621 0.19935 0.0
H467 H 0.63768 0.49002 0.24102 0.0
H468 H 0.54438 0.47422 0.22392 0.0
H469 H 0.55436 0.43223 0.17027 0.0
C470 C 0.60737 0.41277 0.14214 0.0
C471 C 0.6364 0.40443 0.13063 0.0
C472 C 0.60177 0.4366 0.1741 0.0
C473 C 0.65988 0.42011 0.15231 0.0
C474 C 0.65446 0.44422 0.18379 0.0
C475 C 0.61957 0.47736 0.22555 0.0
C476 C 0.5903 0.48554 0.23629 0.0
C477 C 0.62544 0.45283 0.19471 0.0
C478 C 0.56712 0.46865 0.21628 0.0
C479 C 0.57277 0.44456 0.18546 0.0
H480 H 0.35575 0.86092 0.44569 0.0
H481 H 0.32125 0.91121 0.32452 0.0
H482 H 0.27255 0.91246 0.36336 0.0
H483 H 0.23912 0.89578 0.42904 0.0
H484 H 0.27462 0.84672 0.55156 0.0
H485 H 0.32362 0.84902 0.51564 0.0
C486 C 0.33765 0.87269 0.42855 0.0
C487 C 0.34185 0.88613 0.38275 0.0
C488 C 0.30989 0.87341 0.45122 0.0
C489 C 0.31841 0.90115 0.3603 0.0
C490 C 0.29058 0.90163 0.38229 0.0
C491 C 0.25761 0.88585 0.44815 0.0
C492 C 0.253 0.87073 0.49263 0.0
C493 C 0.28592 0.88732 0.42734 0.0
C494 C 0.27735 0.85822 0.51703 0.0
C495 C 0.30546 0.8595 0.49652 0.0
H496 H 0.88683 0.57428 0.59746 0.0
H497 H 0.85414 0.63562 0.70654 0.0
H498 H 0.86382 0.59969 0.77168 0.0
H499 H 0.88226 0.55091 0.79756 0.0
H500 H 0.91227 0.48877 0.68715 0.0
H501 H 0.90267 0.52475 0.62268 0.0
C502 C 0.8819 0.57976 0.63555 0.0
C503 C 0.87 0.60758 0.64732 0.0
C504 C 0.88691 0.55878 0.67253 0.0
C505 C 0.86323 0.61428 0.69663 0.0
C506 C 0.86882 0.59377 0.73385 0.0
C507 C 0.88661 0.54521 0.75939 0.0
C508 C 0.89815 0.51719 0.74737 0.0
C509 C 0.88072 0.56594 0.72224 0.0
C510 C 0.9034 0.51012 0.69759 0.0
C511 C 0.89801 0.53074 0.66062 0.0
H512 H 0.75846 0.82119 0.06119 0.0
H513 H 0.76626 0.89202 0.95689 0.0
H514 H 0.80926 0.91129 0.0018 0.0
H515 H 0.8451 0.90723 0.07072 0.0
H516 H 0.83482 0.83646 0.1754 0.0
H517 H 0.79232 0.81824 0.13053 0.0
C518 C 0.76961 0.84083 0.04821 0.0
C519 C 0.75945 0.85504 0.00569 0.0
C520 C 0.79388 0.85186 0.07439 0.0
C521 C 0.77373 0.88075 0.98971 0.0
C522 C 0.79833 0.89169 0.01528 0.0
C523 C 0.83358 0.88783 0.08363 0.0
C524 C 0.8435 0.87321 0.12627 0.0
C525 C 0.80871 0.87733 0.05767 0.0
C526 C 0.82802 0.84819 0.14262 0.0
C527 C 0.80359 0.83764 0.11699 0.0
H528 H 0.35131 0.57213 0.86864 0.0
H529 H 0.40911 0.63613 0.80301 0.0
H530 H 0.42355 0.60053 0.73984 0.0
H531 H 0.42438 0.54992 0.70934 0.0
H532 H 0.36766 0.48456 0.77381 0.0
H533 H 0.34797 0.5218 0.831 0.0
C534 C 0.36636 0.57834 0.83956 0.0
C535 C 0.37915 0.60658 0.84014 0.0
C536 C 0.37516 0.55739 0.80377 0.0
C537 C 0.399 0.61445 0.80293 0.0
C538 C 0.40741 0.59408 0.76706 0.0
C539 C 0.40752 0.54385 0.73562 0.0
C540 C 0.39785 0.51451 0.73794 0.0
C541 C 0.39643 0.56525 0.76815 0.0
C542 C 0.37559 0.50706 0.77155 0.0
C543 C 0.36438 0.52832 0.80431 0.0
H544 H 0.64175 0.15731 0.57517 0.0
H545 H 0.68425 0.08117 0.63749 0.0
H546 H 0.7288 0.09111 0.58949 0.0
H547 H 0.7556 0.12189 0.52996 0.0
H548 H 0.71208 0.19742 0.46634 0.0
H549 H 0.66788 0.18704 0.51372 0.0
C550 C 0.66083 0.14297 0.57792 0.0
C551 C 0.66006 0.11866 0.60944 0.0
C552 C 0.68604 0.1486 0.54976 0.0
C553 C 0.68459 0.09995 0.61298 0.0
C554 C 0.70997 0.10565 0.58567 0.0
C555 C 0.7364 0.13598 0.52638 0.0
C556 C 0.73724 0.16051 0.49498 0.0
C557 C 0.71095 0.12993 0.55389 0.0
C558 C 0.71217 0.17858 0.4907 0.0
C559 C 0.68682 0.17267 0.51773 0.0
H560 H 0.08077 0.39573 0.33726 0.0
H561 H 0.17182 0.41952 0.35958 0.0
H562 H 0.1649 0.46306 0.30705 0.0
H563 H 0.13163 0.49571 0.25816 0.0
H564 H 0.04073 0.46987 0.23818 0.0
H565 H 0.04908 0.42584 0.28656 0.0
C566 C 0.09924 0.41038 0.33084 0.0
C567 C 0.12668 0.40457 0.35298 0.0
C568 C 0.09506 0.43512 0.30107 0.0
C569 C 0.15043 0.42351 0.34316 0.0
C570 C 0.14642 0.44845 0.31327 0.0
C571 C 0.11374 0.48033 0.26421 0.0
C572 C 0.08548 0.48637 0.24481 0.0
C573 C 0.11865 0.45472 0.29253 0.0
C574 C 0.06261 0.46608 0.25285 0.0
C575 C 0.06734 0.44078 0.28056 0.0
H576 H 0.67885 0.58884 0.3828 0.0
H577 H 0.6338 0.6725 0.37357 0.0
H578 H 0.66929 0.69482 0.43001 0.0
H579 H 0.71381 0.69134 0.47964 0.0
H580 H 0.76119 0.60887 0.48731 0.0
H581 H 0.72438 0.58541 0.43372 0.0
C582 C 0.67689 0.61189 0.39343 0.0
C583 C 0.65394 0.6291 0.37383 0.0
C584 C 0.69788 0.62486 0.4253 0.0
C585 C 0.65157 0.65897 0.38762 0.0
C586 C 0.67178 0.67173 0.42002 0.0
C587 C 0.71614 0.6682 0.46977 0.0
C588 C 0.74024 0.65194 0.48751 0.0
C589 C 0.69519 0.65501 0.43863 0.0
C590 C 0.74281 0.62194 0.47425 0.0
C591 C 0.72177 0.6085 0.44357 0.0
H592 H 0.12764 0.99608 0.74322 0.0
H593 H 0.03657 0.99581 0.69701 0.0
H594 H 0.0462 0.95464 0.6411 0.0
H595 H 0.08002 0.91805 0.60619 0.0
H596 H 0.17083 0.91684 0.65371 0.0
H597 H 0.16172 0.95913 0.70797 0.0
C598 C 0.10995 0.98709 0.72075 0.0
C599 C 0.08143 0.99908 0.72439 0.0
C600 C 0.11555 0.96306 0.68887 0.0
C601 C 0.05873 0.98702 0.69517 0.0
C602 C 0.0642 0.96344 0.66306 0.0
C603 C 0.0979 0.9271 0.62818 0.0
C604 C 0.12607 0.91424 0.6257 0.0
C605 C 0.09246 0.9512 0.65975 0.0
C606 C 0.14888 0.92619 0.6549 0.0
C607 C 0.14371 0.95043 0.68596 0.0
H608 H 0.78804 0.3937 0.02584 0.0
H609 H 0.7354 0.34319 0.92261 0.0
H610 H 0.77372 0.34777 0.86051 0.0
H611 H 0.82314 0.36368 0.83681 0.0
H612 H 0.87563 0.41542 0.93814 0.0
H613 H 0.83638 0.4128 -0.00025 0.0
C614 C 0.78483 0.38392 0.98962 0.0
C615 C 0.75892 0.36791 0.97913 0.0
C616 C 0.80701 0.38666 0.95388 0.0
C617 C 0.75509 0.35556 0.93184 0.0
C618 C 0.77706 0.35807 0.89629 0.0
C619 C 0.82598 0.37444 0.87237 0.0
C620 C 0.85234 0.38947 0.88315 0.0
C621 C 0.80327 0.37313 0.90718 0.0
C622 C 0.85551 0.40374 0.929 0.0
C623 C 0.83312 0.40217 0.96423 0.0
H624 H 0.43548 0.02832 0.22018 0.0
H625 H 0.34672 0.00712 0.26313 0.0
H626 H 0.32794 0.04822 0.21334 0.0
H627 H 0.33729 0.08974 0.15518 0.0
H628 H 0.42729 0.10787 0.11323 0.0
H629 H 0.44475 0.06847 0.16484 0.0
C630 C 0.41199 0.03269 0.21904 0.0
C631 C 0.39256 0.01477 0.24535 0.0
C632 C 0.40148 0.05584 0.19016 0.0
C633 C 0.36216 0.02062 0.24297 0.0
C634 C 0.35144 0.04412 0.21456 0.0
C635 C 0.36067 0.08512 0.1577 0.0
C636 C 0.38077 0.10182 0.12994 0.0
C637 C 0.37094 0.06185 0.18764 0.0
C638 C 0.41108 0.09541 0.1336 0.0
C639 C 0.42128 0.07282 0.1633 0.0
H640 H 0.28808 0.31388 0.50672 0.0
H641 H 0.25928 0.40247 0.47415 0.0
H642 H 0.30095 0.42255 0.52116 0.0
H643 H 0.34388 0.41468 0.57614 0.0
H644 H 0.37002 0.32563 0.6115 0.0
H645 H 0.33118 0.30602 0.55845 0.0
C646 C 0.29096 0.33761 0.50946 0.0
C647 C 0.27049 0.35662 0.48709 0.0
C648 C 0.31449 0.34892 0.53726 0.0
C649 C 0.27467 0.38732 0.49113 0.0
C650 C 0.29847 0.39881 0.51807 0.0
C651 C 0.34122 0.39101 0.57169 0.0
C652 C 0.3597 0.37162 0.59786 0.0
C653 C 0.31828 0.3798 0.54195 0.0
C654 C 0.3559 0.341 0.59211 0.0
C655 C 0.33372 0.32975 0.56175 0.0
H656 H 0.84451 0.08969 0.32855 0.0
H657 H 0.91598 0.08278 0.43358 0.0
H658 H 0.93495 0.03992 0.39037 0.0
H659 H 0.93271 0.00514 0.3222 0.0
H660 H 0.86212 0.01029 0.21587 0.0
H661 H 0.84137 0.05283 0.2603 0.0
C662 C 0.86413 0.0787 0.34207 0.0
C663 C 0.87877 0.08976 0.38425 0.0
C664 C 0.87521 0.05372 0.31681 0.0
C665 C 0.90419 0.07509 0.40118 0.0
C666 C 0.91517 0.05045 0.37649 0.0
C667 C 0.91275 0.01548 0.30859 0.0
C668 C 0.89913 0.00466 0.2656 0.0
C669 C 0.90106 0.03976 0.33413 0.0
C670 C 0.87308 0.0182 0.24893 0.0
C671 C 0.86125 0.04257 0.27427 0.0
H672 H 0.15066 0.6006 0.05329 0.0
H673 H 0.18135 0.63968 0.1896 0.0
H674 H 0.22994 0.64701 0.15458 0.0
H675 H 0.26319 0.64454 0.08518 0.0
H676 H 0.2332 0.60987 0.94537 0.0
H677 H 0.18507 0.59848 0.98158 0.0
C678 C 0.16813 0.61052 0.07512 0.0
C679 C 0.16245 0.61968 0.12386 0.0
C680 C 0.19612 0.6155 0.05417 0.0
C681 C 0.18513 0.63273 0.15183 0.0
C682 C 0.21297 0.63685 0.13194 0.0
C683 C 0.24631 0.63415 0.06261 0.0
C684 C 0.25188 0.62783 0.01279 0.0
C685 C 0.21863 0.62862 0.08312 0.0
C686 C 0.2295 0.61484 0.98396 0.0
C687 C 0.20196 0.6084 0.00463 0.0
H688 H 0.56364 0.98772 0.79899 0.0
H689 H 0.64291 0.99155 0.71225 0.0
H690 H 0.66389 0.95054 0.75919 0.0
H691 H 0.65958 0.91358 0.82594 0.0
H692 H 0.58 0.91199 0.91284 0.0
H693 H 0.55949 0.95192 0.86481 0.0
C694 C 0.58549 0.97958 0.79024 0.0
C695 C 0.60162 0.99259 0.75219 0.0
C696 C 0.59745 0.95629 0.8175 0.0
C697 C 0.63005 0.98196 0.74162 0.0
C698 C 0.64203 0.95845 0.76833 0.0
C699 C 0.63772 0.92191 0.83409 0.0
C700 C 0.6215 0.90973 0.87309 0.0
C701 C 0.62591 0.94539 0.80646 0.0
C702 C 0.5932 0.92094 0.88332 0.0
C703 C 0.58131 0.94384 0.85581 0.0
H704 H 0.43304 0.13201 0.82264 0.0
H705 H 0.48174 0.1231 0.95873 0.0
H706 H 0.52584 0.10961 0.91283 0.0
H707 H 0.55055 0.09983 0.83414 0.0
H708 H 0.50189 0.10841 0.69814 0.0
H709 H 0.45787 0.12267 0.74394 0.0
C710 C 0.45323 0.12696 0.84229 0.0
C711 C 0.45398 0.12837 0.89401 0.0
C712 C 0.47858 0.11926 0.81571 0.0
C713 C 0.48045 0.122 0.91888 0.0
C714 C 0.50574 0.11436 0.8927 0.0
C715 C 0.53032 0.10497 0.8146 0.0
C716 C 0.52943 0.10309 0.76296 0.0
C717 C 0.50505 0.1129 0.84113 0.0
C718 C 0.50306 0.10957 0.73799 0.0
C719 C 0.4779 0.11775 0.76411 0.0
H720 H 0.59733 0.74087 0.17649 0.0
H721 H 0.63488 0.66882 0.09336 0.0
H722 H 0.65729 0.704 0.036 0.0
H723 H 0.66541 0.75565 0.00926 0.0
H724 H 0.63221 0.82703 0.09976 0.0
H725 H 0.60893 0.79183 0.15439 0.0
C726 C 0.61042 0.73292 0.14573 0.0
C727 C 0.61423 0.70244 0.13855 0.0
C728 C 0.62396 0.75319 0.11426 0.0
C729 C 0.63168 0.69228 0.09934 0.0
C730 C 0.6444 0.71237 0.06661 0.0
C731 C 0.65315 0.76344 0.04102 0.0
C732 C 0.64999 0.79402 0.04958 0.0
C733 C 0.64061 0.74293 0.07364 0.0
C734 C 0.63461 0.80371 0.09162 0.0
C735 C 0.62129 0.78357 0.12307 0.0
H736 H 0.9972 0.87907 0.23231 0.0
H737 H 0.94984 0.92473 0.34732 0.0
H738 H 0.9884 0.91247 0.40671 0.0
H739 H 0.0345 0.88733 0.42668 0.0
H740 H 0.07996 0.83749 0.31416 0.0
H741 H 0.04312 0.85241 0.25314 0.0
C742 C 0.99554 0.88639 0.27033 0.0
C743 C 0.97092 0.90281 0.28559 0.0
C744 C 0.01731 0.87835 0.30469 0.0
C745 C 0.96866 0.91198 0.33496 0.0
C746 C 0.99066 0.90499 0.36887 0.0
C747 C 0.03654 0.87999 0.38869 0.0
C748 C 0.06009 0.86164 0.37482 0.0
C749 C 0.01494 0.888 0.35425 0.0
C750 C 0.06209 0.85179 0.32568 0.0
C751 C 0.04105 0.86031 0.29078 0.0
H752 H 0.89229 0.20487 0.55319 0.0
H753 H 0.81051 0.24801 0.51834 0.0
H754 H 0.82403 0.28982 0.57223 0.0
H755 H 0.859 0.31299 0.63181 0.0
H756 H 0.94227 0.26997 0.65983 0.0
H757 H 0.92857 0.22941 0.60542 0.0
C758 C 0.87759 0.22353 0.55706 0.0
C759 C 0.85047 0.2234 0.53233 0.0
C760 C 0.88584 0.24748 0.58683 0.0
C761 C 0.83159 0.24779 0.53716 0.0
C762 C 0.83927 0.27156 0.56801 0.0
C763 C 0.87409 0.29476 0.62577 0.0
C764 C 0.90147 0.2944 0.65023 0.0
C765 C 0.86629 0.27151 0.59348 0.0
C766 C 0.92104 0.27085 0.64156 0.0
C767 C 0.91323 0.24753 0.61053 0.0
H768 H 0.53929 0.8249 0.13888 0.0
H769 H 0.56002 0.91221 0.08665 0.0
H770 H 0.52199 0.93333 0.13995 0.0
H771 H 0.48177 0.92672 0.19961 0.0
H772 H 0.46376 0.83998 0.25577 0.0
H773 H 0.50141 0.81872 0.20218 0.0
C774 C 0.53555 0.84857 0.13921 0.0
C775 C 0.55233 0.86693 0.10863 0.0
C776 C 0.51383 0.86056 0.17013 0.0
C777 C 0.54743 0.89759 0.10993 0.0
C778 C 0.52561 0.90967 0.14024 0.0
C779 C 0.4861 0.90316 0.20005 0.0
C780 C 0.46912 0.88462 0.23014 0.0
C781 C 0.5085 0.89133 0.17019 0.0
C782 C 0.47545 0.85433 0.23109 0.0
C783 C 0.49732 0.84229 0.20101 0.0
H784 H 0.43265 0.27918 0.85317 0.0
H785 H 0.35206 0.32953 0.84843 0.0
H786 H 0.32863 0.29415 0.904 0.0
H787 H 0.33083 0.24736 0.95137 0.0
H788 H 0.4106 0.19577 0.94673 0.0
H789 H 0.43466 0.2332 0.89815 0.0
C790 C 0.41003 0.28264 0.8646 0.0
C791 C 0.39416 0.30697 0.84699 0.0
C792 C 0.39656 0.26189 0.89501 0.0
C793 C 0.36473 0.31089 0.86158 0.0
C794 C 0.35135 0.29069 0.89331 0.0
C795 C 0.35353 0.24457 0.93993 0.0
C796 C 0.36898 0.21886 0.95308 0.0
C797 C 0.367 0.26589 0.90992 0.0
C798 C 0.39818 0.21521 0.93731 0.0
C799 C 0.41203 0.23669 0.90942 0.0
H800 H 0.05775 0.13695 0.66548 0.0
H801 H 0.99524 0.09474 0.76127 0.0
H802 H 0.95493 0.10932 0.70648 0.0
H803 H 0.93752 0.13406 0.63062 0.0
H804 H 1.00053 0.17927 0.5394 0.0
H805 H 0.04043 0.16412 0.59379 0.0
C806 C 0.03529 0.13138 0.67498 0.0
C807 C 0.02955 0.1151 0.71775 0.0
C808 C 0.01225 0.1404 0.64405 0.0
C809 C 1.00029 0.10748 0.72876 0.0
C810 C 0.97722 0.11577 0.6974 0.0
C811 C 0.96 0.14055 0.62276 0.0
C812 C 0.96605 0.15761 0.58088 0.0
C813 C 0.98294 0.1322 0.65482 0.0
C814 C 0.99523 0.16618 0.57142 0.0
C815 C 0.01812 0.15746 0.60241 0.0
H816 H 0.15953 0.80044 0.4002 0.0
H817 H 0.12217 0.76307 0.53132 0.0
H818 H 0.10045 0.72278 0.48259 0.0
H819 H 0.09211 0.69839 0.40212 0.0
H820 H 0.13444 0.73268 0.27268 0.0
H821 H 0.15446 0.77397 0.321 0.0
C822 C 0.14666 0.78337 0.41788 0.0
C823 C 0.14175 0.78484 0.46882 0.0
C824 C 0.13531 0.75979 0.38991 0.0
C825 C 0.1257 0.76243 0.4919 0.0
C826 C 0.11338 0.73945 0.4641 0.0
C827 C 0.10578 0.71494 0.38474 0.0
C828 C 0.11179 0.7128 0.33416 0.0
C829 C 0.11797 0.73797 0.41304 0.0
C830 C 0.12975 0.73399 0.31177 0.0
C831 C 0.14109 0.75757 0.33928 0.0
H832 H 0.99301 0.65194 0.4414 0.0
H833 H 0.91959 0.61406 0.36254 0.0
H834 H 0.95322 0.59456 0.29925 0.0
H835 H 0.00371 0.59095 0.26461 0.0
H836 H 0.07669 0.62576 0.34947 0.0
H837 H 0.04305 0.64377 0.41216 0.0
C838 C 0.98444 0.63919 0.4105 0.0
C839 C 0.95404 0.63457 0.40609 0.0
C840 C 0.00381 0.62774 0.37522 0.0
C841 C 0.94305 0.61773 0.36649 0.0
C842 C 0.96223 0.60677 0.33032 0.0
C843 C 0.01221 0.60232 0.29695 0.0
C844 C 0.04264 0.60785 0.30141 0.0
C845 C 0.99269 0.61202 0.33396 0.0
C846 C 0.05334 0.6219 0.34426 0.0
C847 C 0.03414 0.63215 0.38037 0.0
H848 H 0.0761 0.22504 0.62564 0.0
H849 H 0.16237 0.19623 0.67208 0.0
H850 H 0.18514 0.23075 0.6145 0.0
H851 H 0.1803 0.2697 0.5513 0.0
H852 H 0.09356 0.29649 0.50479 0.0
H853 H 0.07127 0.26263 0.56246 0.0
C854 C 0.09991 0.22622 0.62329 0.0
C855 C 0.11747 0.2081 0.65328 0.0
C856 C 0.11279 0.24604 0.59032 0.0
C857 C 0.1483 0.20991 0.6494 0.0
C858 C 0.16134 0.2297 0.61656 0.0
C859 C 0.15653 0.26817 0.55393 0.0
C860 C 0.13859 0.28621 0.52419 0.0
C861 C 0.14378 0.248 0.58693 0.0
C862 C 0.10788 0.2836 0.5278 0.0
C863 C 0.09508 0.26394 0.56062 0.0
H864 H 0.45015 0.38114 0.8283 0.0
H865 H 0.50918 0.42707 0.73118 0.0
H866 H 0.55103 0.41343 0.78325 0.0
H867 H 0.57117 0.38652 0.85522 0.0
H868 H 0.51221 0.3359 0.94545 0.0
H869 H 0.47006 0.35288 0.89716 0.0
C870 C 0.47219 0.38785 0.81812 0.0
C871 C 0.47653 0.40467 0.77551 0.0
C872 C 0.49619 0.37907 0.84715 0.0
C873 C 0.50522 0.41381 0.76355 0.0
C874 C 0.52918 0.40606 0.79333 0.0
C875 C 0.54902 0.37953 0.86428 0.0
C876 C 0.54452 0.36035 0.90391 0.0
C877 C 0.52498 0.38846 0.83504 0.0
C878 C 0.51594 0.35085 0.91513 0.0
C879 C 0.4919 0.36049 0.88754 0.0
H880 H 0.32601 0.73683 0.04779 0.0
H881 H 0.41217 0.70292 0.01196 0.0
H882 H 0.43456 0.73557 0.07239 0.0
H883 H 0.42989 0.77236 0.13772 0.0
H884 H 0.34434 0.80726 0.17524 0.0
H885 H 0.32163 0.77612 0.11143 0.0
C886 C 0.34969 0.7367 0.05309 0.0
C887 C 0.36731 0.717 0.02559 0.0
C888 C 0.36258 0.75585 0.0882 0.0
C889 C 0.39796 0.71737 0.03277 0.0
C890 C 0.41087 0.73621 0.06739 0.0
C891 C 0.40627 0.77336 0.1319 0.0
C892 C 0.38884 0.79197 0.16153 0.0
C893 C 0.39339 0.75529 0.09564 0.0
C894 C 0.35829 0.79307 0.15305 0.0
C895 C 0.34528 0.77519 0.11667 0.0
H896 H 0.99533 0.34592 0.5439 0.0
H897 H 0.07883 0.36825 0.61024 0.0
H898 H 0.05344 0.38778 0.68335 0.0
H899 H 0.00693 0.39831 0.72813 0.0
H900 H 0.92411 0.37951 0.65573 0.0
H901 H 0.94981 0.35862 0.5855 0.0
C902 C 0.008 0.35495 0.57445 0.0
C903 C 0.0388 0.35546 0.57208 0.0
C904 C 0.99335 0.36664 0.61537 0.0
C905 C 0.055 0.36769 0.61142 0.0
C906 C 0.04051 0.37877 0.65316 0.0
C907 C 0.99461 0.38953 0.69701 0.0
C908 C 0.96363 0.38955 0.69795 0.0
C909 C 0.00962 0.37833 0.65557 0.0
C910 C 0.94795 0.37893 0.65673 0.0
C911 C 0.9626 0.36714 0.61627 0.0
H912 H 0.91718 0.76913 0.33527 0.0
H913 H 0.86702 0.84059 0.39879 0.0
H914 H 0.84453 0.80643 0.45749 0.0
H915 H 0.83843 0.7559 0.48908 0.0
H916 H 0.88378 0.68383 0.41731 0.0
H917 H 0.90906 0.71844 0.36369 0.0
C918 C 0.90149 0.77718 0.36232 0.0
C919 C 0.89394 0.80724 0.36342 0.0
C920 C 0.88788 0.75728 0.39438 0.0
C921 C 0.87314 0.81747 0.39763 0.0
C922 C 0.86033 0.79797 0.43107 0.0
C923 C 0.85397 0.7478 0.46189 0.0
C924 C 0.8599 0.71734 0.45826 0.0
C925 C 0.86741 0.76777 0.42957 0.0
C926 C 0.87948 0.70717 0.42191 0.0
C927 C 0.89379 0.72696 0.39095 0.0
H928 H 0.43185 0.62417 0.14847 0.0
H929 H 0.48785 0.64998 0.02786 0.0
H930 H 0.53135 0.63777 0.07587 0.0
H931 H 0.55379 0.61804 0.15042 0.0
H932 H 0.49863 0.59077 0.271 0.0
H933 H 0.45475 0.60543 0.22489 0.0
C934 C 0.45358 0.62715 0.13281 0.0
C935 C 0.45646 0.63767 0.08443 0.0
C936 C 0.47876 0.61979 0.16055 0.0
C937 C 0.48484 0.64153 0.06474 0.0
C938 C 0.50984 0.63465 0.09222 0.0
C939 C 0.5322 0.61538 0.16677 0.0
C940 C 0.52955 0.60318 0.21396 0.0
C941 C 0.50707 0.62346 0.13989 0.0
C942 C 0.50135 0.60002 0.23461 0.0
C943 C 0.4762 0.60836 0.20824 0.0
H944 H 0.5966 0.27392 0.97181 0.0
H945 H 0.68986 0.25951 0.95837 0.0
H946 H 0.68092 0.21805 0.90135 0.0
H947 H 0.64621 0.18818 0.85082 0.0
H948 H 0.55274 0.20316 0.8663 0.0
H949 H 0.56205 0.2422 0.92633 0.0
C950 C 0.61487 0.26171 0.95617 0.0
C951 C 0.64375 0.26989 0.96837 0.0
C952 C 0.6095 0.23813 0.9235 0.0
C953 C 0.6674 0.25344 0.94936 0.0
C954 C 0.66227 0.22992 0.91657 0.0
C955 C 0.62792 0.19986 0.86759 0.0
C956 C 0.59884 0.19281 0.85361 0.0
C957 C 0.63338 0.22239 0.90262 0.0
C958 C 0.57537 0.20805 0.8761 0.0
C959 C 0.58062 0.23049 0.9105 0.0
H960 H 0.2341 0.20216 0.19976 0.0
H961 H 0.31829 0.24338 0.17368 0.0
H962 H 0.30572 0.28332 0.23044 0.0
H963 H 0.27085 0.30687 0.28711 0.0
H964 H 0.18683 0.26561 0.31413 0.0
H965 H 0.19932 0.22555 0.25728 0.0
C966 C 0.24975 0.21981 0.20662 0.0
C967 C 0.27707 0.21971 0.1824 0.0
C968 C 0.24238 0.24285 0.23931 0.0
C969 C 0.29708 0.24282 0.19177 0.0
C970 C 0.28991 0.26576 0.22419 0.0
C971 C 0.25519 0.28921 0.28041 0.0
C972 C 0.22792 0.28935 0.30473 0.0
C973 C 0.26258 0.26608 0.24798 0.0
C974 C 0.20799 0.26612 0.29585 0.0
C975 C 0.21511 0.24314 0.26338 0.0
H976 H 0.51772 0.54709 0.42582 0.0
H977 H 0.57818 0.47717 0.46398 0.0
H978 H 0.54205 0.45696 0.52105 0.0
H979 H 0.49311 0.45851 0.55855 0.0
H980 H 0.43234 0.52803 0.51973 0.0
H981 H 0.46889 0.54894 0.46407 0.0
C982 C 0.52313 0.52752 0.44681 0.0
C983 C 0.55068 0.51367 0.44059 0.0
C984 C 0.50214 0.51583 0.4791 0.0
C985 C 0.55718 0.48827 0.46799 0.0
C986 C 0.5365 0.47666 0.50056 0.0
C987 C 0.48776 0.47822 0.53789 0.0
C988 C 0.45992 0.49161 0.5432 0.0
C989 C 0.50885 0.49012 0.50607 0.0
C990 C 0.45351 0.51719 0.51622 0.0
C991 C 0.47443 0.52921 0.48448 0.0
H992 H 0.26577 0.77244 0.66435 0.0
H993 H 0.18278 0.79595 0.73116 0.0
H994 H 0.19584 0.76788 0.80462 0.0
H995 H 0.23055 0.73604 0.84936 0.0
H996 H 0.31356 0.71287 0.78209 0.0
H997 H 0.30072 0.7415 0.70945 0.0
C998 C 0.25052 0.77146 0.69498 0.0
C999 C 0.22332 0.7862 0.6922 0.0
C1000 C 0.25815 0.75533 0.73706 0.0
C1001 C 0.20391 0.78485 0.73237 0.0
C1002 C 0.21133 0.76875 0.77437 0.0
C1003 C 0.24585 0.73728 0.81886 0.0
C1004 C 0.27292 0.72222 0.8212 0.0
C1005 C 0.23835 0.75381 0.77704 0.0
C1006 C 0.2925 0.72412 0.78129 0.0
C1007 C 0.28521 0.74051 0.73967 0.0
H1008 H 0.00855 0.53985 0.07919 0.0
H1009 H 0.08364 0.50007 0.0075 0.0
H1010 H 0.0511 0.47549 0.94836 0.0
H1011 H 0.00142 0.46479 0.91744 0.0
H1012 H 0.92611 0.50331 0.99028 0.0
H1013 H 0.95866 0.52877 0.04855 0.0
C1014 C 0.01783 0.52596 0.05043 0.0
C1015 C 0.04855 0.52195 0.0477 0.0
C1016 C 0.99895 0.51153 0.01687 0.0
C1017 C 0.06012 0.50362 0.01047 0.0
C1018 C 0.04152 0.4895 0.97663 0.0
C1019 C 0.99208 0.47875 0.94605 0.0
C1020 C 0.96134 0.48211 0.94941 0.0
C1021 C 0.01091 0.49319 0.9796 0.0
C1022 C 0.94967 0.50019 0.98691 0.0
C1023 C 0.96828 0.51485 0.02019 0.0
H1024 H 0.72939 0.76731 0.84245 0.0
H1025 H 0.705 0.82232 0.7196 0.0
H1026 H 0.73024 0.78861 0.66307 0.0
H1027 H 0.75982 0.74387 0.64861 0.0
H1028 H 0.78426 0.6891 0.77177 0.0
H1029 H 0.75838 0.72241 0.82795 0.0
C1030 C 0.7295 0.77195 0.8033 0.0
C1031 C 0.71531 0.7974 0.78541 0.0
C1032 C 0.74413 0.75253 0.77099 0.0
C1033 C 0.71575 0.80297 0.7345 0.0
C1034 C 0.7302 0.78369 0.7021 0.0
C1035 C 0.75948 0.73916 0.68773 0.0
C1036 C 0.77404 0.71397 0.70586 0.0
C1037 C 0.74456 0.75846 0.71995 0.0
C1038 C 0.77327 0.70826 0.7567 0.0
C1039 C 0.75848 0.72733 0.78892 0.0
H1040 H 0.69846 0.2553 0.21504 0.0
H1041 H 0.76861 0.30295 0.14406 0.0
H1042 H 0.8049 0.27768 0.19537 0.0
H1043 H 0.81674 0.24227 0.26123 0.0
H1044 H 0.74621 0.19429 0.33067 0.0
H1045 H 0.71022 0.21942 0.27915 0.0
C1046 C 0.72167 0.26023 0.21078 0.0
C1047 C 0.73071 0.28111 0.17586 0.0
C1048 C 0.74245 0.24548 0.24012 0.0
C1049 C 0.76095 0.28712 0.17084 0.0
C1050 C 0.78177 0.27261 0.2001 0.0
C1051 C 0.79351 0.23722 0.26486 0.0
C1052 C 0.78427 0.21634 0.29969 0.0
C1053 C 0.77278 0.25176 0.23493 0.0
C1054 C 0.75405 0.21003 0.30387 0.0
C1055 C 0.73337 0.22452 0.27458 0.0
H1056 H 0.0252 0.01169 0.91998 0.0
H1057 H 0.04411 0.08677 0.01395 0.0
H1058 H 0.01464 0.06536 0.07946 0.0
H1059 H 0.98356 0.02571 0.11026 0.0
H1060 H 0.9635 0.95066 0.01713 0.0
H1061 H 0.99323 0.9718 0.951 0.0
C1062 C 0.02295 0.02331 0.95486 0.0
C1063 C 0.03695 0.05081 0.96199 0.0
C1064 C 0.00567 0.01097 0.99245 0.0
C1065 C 0.03362 0.06562 0.00734 0.0
C1066 C 0.01674 0.0534 0.04489 0.0
C1067 C 0.98561 0.0139 0.07552 0.0
C1068 C 0.97133 0.98658 0.06877 0.0
C1069 C 0.00264 0.02616 0.03782 0.0
C1070 C 0.97418 0.97175 0.02333 0.0
C1071 C 0.99125 0.98379 0.98555 0.0
H1072 H 0.51982 0.00876 0.58349 0.0
H1073 H 0.55609 0.04996 0.45424 0.0
H1074 H 0.52057 0.02362 0.40227 0.0
H1075 H 0.47892 0.98943 0.39357 0.0
H1076 H 0.44222 0.94864 0.52289 0.0
H1077 H 0.47814 0.9745 0.57477 0.0
C1078 C 0.52011 0.01189 0.54391 0.0
C1079 C 0.54071 0.03132 0.52284 0.0
C1080 C 0.49941 0.9969 0.51427 0.0
C1081 C 0.54052 0.03521 0.4715 0.0
C1082 C 0.52018 0.02016 0.44174 0.0
C1083 C 0.47869 0.98617 0.43312 0.0
C1084 C 0.4578 0.96704 0.45421 0.0
C1085 C 0.49944 1.00108 0.46275 0.0
C1086 C 0.45798 0.96315 0.50556 0.0
C1087 C 0.47856 0.97793 0.53529 0.0
loop_
_geom_bond_atom_site_label_1
_geom_bond_atom_site_label_2
_geom_bond_distance
_geom_bond_site_symmetry_2
_ccdc_geom_bond_type
Zn0 O6 1.969 . S
Zn0 O7 1.965 . S
Zn0 O11 2.024 . S
Zn0 O16 1.969 . S
Zn1 O8 1.969 . S
Zn1 O14 1.969 1_554 S
Zn1 O15 1.965 1_554 S
Zn1 O17 2.024 . S
C2 O3 1.229 . S
C2 O11 1.058 . S
O3 C2 1.229 . S
C4 O5 1.229 . S
C4 O17 1.058 . S
O5 C4 1.229 . S
O6 Zn0 1.969 . S
O6 C9 1.267 . S
O7 Zn0 1.965 . S
O7 C18 1.260 . S
O8 Zn1 1.969 . S
O8 C18 1.258 . S
C9 O6 1.267 . S
C9 O10 1.228 . S
O10 C9 1.228 . S
O11 Zn0 2.024 . S
O11 C2 1.058 . S
C12 O13 1.228 . S
C12 O14 1.267 . S
O13 C12 1.228 . S
O14 Zn1 1.969 1_556 S
O14 C12 1.267 . S
O15 Zn1 1.965 1_556 S
O15 C19 1.260 . S
O16 Zn0 1.969 . S
O16 C19 1.258 1_554 S
O17 Zn1 2.024 . S
O17 C4 1.058 . S
C18 O7 1.260 . S
C18 O8 1.258 . S
C19 O15 1.260 . S
C19 O16 1.258 1_556 S
Zn20 O26 1.969 . S
Zn20 O27 1.965 . S
Zn20 O31 2.024 . S
Zn20 O36 1.969 . S
Zn21 O28 1.969 . S
Zn21 O34 1.969 . S
Zn21 O35 1.965 . S
Zn21 O37 2.024 . S
C22 O23 1.229 . S
C22 O31 1.058 . S
O23 C22 1.229 . S
C24 O25 1.229 . S
C24 O37 1.058 . S
O25 C24 1.229 . S
O26 Zn20 1.969 . S
O26 C29 1.267 . S
O27 Zn20 1.965 . S
O27 C38 1.260 . S
O28 Zn21 1.969 . S
O28 C38 1.258 . S
C29 O26 1.267 . S
C29 O30 1.228 . S
O30 C29 1.228 . S
O31 Zn20 2.024 . S
O31 C22 1.058 . S
C32 O33 1.228 . S
C32 O34 1.267 . S
O33 C32 1.228 . S
O34 Zn21 1.969 . S
O34 C32 1.267 . S
O35 Zn21 1.965 . S
O35 C39 1.260 . S
O36 Zn20 1.969 . S
O36 C39 1.258 . S
O37 Zn21 2.024 . S
O37 C24 1.058 . S
C38 O27 1.260 . S
C38 O28 1.258 . S
C39 O35 1.260 . S
C39 O36 1.258 . S
Zn40 O46 1.969 . S
Zn40 O47 1.965 . S
Zn40 O51 2.024 . S
Zn40 O56 1.969 . S
Zn41 O48 1.969 . S
Zn41 O54 1.969 . S
Zn41 O55 1.965 . S
Zn41 O57 2.024 . S
C42 O43 1.229 . S
C42 O51 1.058 . S
O43 C42 1.229 . S
C44 O45 1.229 . S
C44 O57 1.058 . S
O45 C44 1.229 . S
O46 Zn40 1.969 . S
O46 C49 1.267 . S
O47 Zn40 1.965 . S
O47 C58 1.260 . S
O48 Zn41 1.969 . S
O48 C58 1.258 . S
C49 O46 1.267 . S
C49 O50 1.228 . S
O50 C49 1.228 . S
O51 Zn40 2.024 . S
O51 C42 1.058 . S
C52 O53 1.228 . S
C52 O54 1.267 . S
O53 C52 1.228 . S
O54 Zn41 1.969 . S
O54 C52 1.267 . S
O55 Zn41 1.965 . S
O55 C59 1.260 . S
O56 Zn40 1.969 . S
O56 C59 1.258 . S
O57 Zn41 2.024 . S
O57 C44 1.058 . S
C58 O47 1.260 . S
C58 O48 1.258 . S
C59 O55 1.260 . S
C59 O56 1.258 . S
Zn60 O66 1.969 . S
Zn60 O67 1.965 . S
Zn60 O71 2.024 . S
Zn60 O76 1.969 . S
Zn61 O68 1.969 . S
Zn61 O74 1.969 . S
Zn61 O75 1.965 . S
Zn61 O77 2.024 . S
C62 O63 1.229 . S
C62 O71 1.058 . S
O63 C62 1.229 . S
C64 O65 1.229 . S
C64 O77 1.058 . S
O65 C64 1.229 . S
O66 Zn60 1.969 . S
O66 C69 1.267 . S
O67 Zn60 1.965 . S
O67 C78 1.260 . S
O68 Zn61 1.969 . S
O68 C78 1.258 . S
C69 O66 1.267 . S
C69 O70 1.228 . S
O70 C69 1.228 . S
O71 Zn60 2.024 . S
O71 C62 1.058 . S
C72 O73 1.228 . S
C72 O74 1.267 . S
O73 C72 1.228 . S
O74 Zn61 1.969 . S
O74 C72 1.267 . S
O75 Zn61 1.965 . S
O75 C79 1.260 . S
O76 Zn60 1.969 . S
O76 C79 1.258 . S
O77 Zn61 2.024 . S
O77 C64 1.058 . S
C78 O67 1.260 . S
C78 O68 1.258 . S
C79 O75 1.260 . S
C79 O76 1.258 . S
Zn80 O86 1.969 1_556 S
Zn80 O87 1.965 1_556 S
Zn80 O91 2.024 . S
Zn80 O96 1.969 . S
Zn81 O88 1.969 . S
Zn81 O94 1.969 . S
Zn81 O95 1.965 . S
Zn81 O97 2.024 . S
C82 O83 1.229 . S
C82 O91 1.058 . S
O83 C82 1.229 . S
C84 O85 1.229 . S
C84 O97 1.058 . S
O85 C84 1.229 . S
O86 Zn80 1.969 1_554 S
O86 C89 1.267 . S
O87 Zn80 1.965 1_554 S
O87 C98 1.260 . S
O88 Zn81 1.969 . S
O88 C98 1.258 1_556 S
C89 O86 1.267 . S
C89 O90 1.228 . S
O90 C89 1.228 . S
O91 Zn80 2.024 . S
O91 C82 1.058 . S
C92 O93 1.228 . S
C92 O94 1.267 . S
O93 C92 1.228 . S
O94 Zn81 1.969 . S
O94 C92 1.267 . S
O95 Zn81 1.965 . S
O95 C99 1.260 . S
O96 Zn80 1.969 . S
O96 C99 1.258 . S
O97 Zn81 2.024 . S
O97 C84 1.058 . S
C98 O87 1.260 . S
C98 O88 1.258 1_554 S
C99 O95 1.260 . S
C99 O96 1.258 . S
Zn100 O106 1.969 . S
Zn100 O107 1.965 . S
Zn100 O111 2.024 . S
Zn100 O116 1.969 . S
Zn101 O108 1.969 . S
Zn101 O114 1.969 . S
Zn101 O115 1.965 . S
Zn101 O117 2.024 . S
C102 O103 1.229 . S
C102 O111 1.058 . S
O103 C102 1.229 . S
C104 O105 1.229 . S
C104 O117 1.058 . S
O105 C104 1.229 . S
O106 Zn100 1.969 . S
O106 C109 1.267 . S
O107 Zn100 1.965 . S
O107 C118 1.260 . S
O108 Zn101 1.969 . S
O108 C118 1.258 . S
C109 O106 1.267 . S
C109 O110 1.228 . S
O110 C109 1.228 . S
O111 Zn100 2.024 . S
O111 C102 1.058 . S
C112 O113 1.228 . S
C112 O114 1.267 . S
O113 C112 1.228 . S
O114 Zn101 1.969 . S
O114 C112 1.267 . S
O115 Zn101 1.965 . S
O115 C119 1.260 . S
O116 Zn100 1.969 . S
O116 C119 1.258 . S
O117 Zn101 2.024 . S
O117 C104 1.058 . S
C118 O107 1.260 . S
C118 O108 1.258 . S
C119 O115 1.260 . S
C119 O116 1.258 . S
Zn120 O126 1.969 . S
Zn120 O127 1.965 . S
Zn120 O131 2.024 . S
Zn120 O136 1.969 . S
Zn121 O128 1.969 . S
Zn121 O134 1.969 . S
Zn121 O135 1.965 . S
Zn121 O137 2.024 . S
C122 O123 1.229 . S
C122 O131 1.058 . S
O123 C122 1.229 . S
C124 O125 1.229 . S
C124 O137 1.058 . S
O125 C124 1.229 . S
O126 Zn120 1.969 . S
O126 C129 1.267 . S
O127 Zn120 1.965 . S
O127 C138 1.260 . S
O128 Zn121 1.969 . S
O128 C138 1.258 . S
C129 O126 1.267 . S
C129 O130 1.228 . S
O130 C129 1.228 . S
O131 Zn120 2.024 . S
O131 C122 1.058 . S
C132 O133 1.228 . S
C132 O134 1.267 . S
O133 C132 1.228 . S
O134 Zn121 1.969 . S
O134 C132 1.267 . S
O135 Zn121 1.965 . S
O135 C139 1.260 . S
O136 Zn120 1.969 . S
O136 C139 1.258 . S
O137 Zn121 2.024 . S
O137 C124 1.058 . S
C138 O127 1.260 . S
C138 O128 1.258 . S
C139 O135 1.260 . S
C139 O136 1.258 . S
Zn140 O146 1.969 . S
Zn140 O147 1.965 . S
Zn140 O151 2.024 . S
Zn140 O156 1.969 . S
Zn141 O148 1.969 . S
Zn141 O154 1.969 . S
Zn141 O155 1.965 . S
Zn141 O157 2.024 . S
C142 O143 1.229 . S
C142 O151 1.058 . S
O143 C142 1.229 . S
C144 O145 1.229 . S
C144 O157 1.058 . S
O145 C144 1.229 . S
O146 Zn140 1.969 . S
O146 C149 1.267 . S
O147 Zn140 1.965 . S
O147 C158 1.260 . S
O148 Zn141 1.969 . S
O148 C158 1.258 . S
C149 O146 1.267 . S
C149 O150 1.228 . S
O150 C149 1.228 . S
O151 Zn140 2.024 . S
O151 C142 1.058 . S
C152 O153 1.228 . S
C152 O154 1.267 . S
O153 C152 1.228 . S
O154 Zn141 1.969 . S
O154 C152 1.267 . S
O155 Zn141 1.965 . S
O155 C159 1.260 . S
O156 Zn140 1.969 . S
O156 C159 1.258 . S
O157 Zn141 2.024 . S
O157 C144 1.058 . S
C158 O147 1.260 . S
C158 O148 1.258 . S
C159 O155 1.260 . S
C159 O156 1.258 . S
Zn160 O166 1.969 . S
Zn160 O167 1.965 . S
Zn160 O171 2.024 . S
Zn160 O176 1.969 . S
Zn161 O168 1.969 . S
Zn161 O174 1.969 . S
Zn161 O175 1.965 . S
Zn161 O177 2.024 . S
C162 O163 1.229 . S
C162 O171 1.058 . S
O163 C162 1.229 . S
C164 O165 1.229 . S
C164 O177 1.058 . S
O165 C164 1.229 . S
O166 Zn160 1.969 . S
O166 C169 1.267 . S
O167 Zn160 1.965 . S
O167 C178 1.260 . S
O168 Zn161 1.969 . S
O168 C178 1.258 . S
C169 O166 1.267 . S
C169 O170 1.228 . S
O170 C169 1.228 . S
O171 Zn160 2.024 . S
O171 C162 1.058 . S
C172 O173 1.228 . S
C172 O174 1.267 . S
O173 C172 1.228 . S
O174 Zn161 1.969 . S
O174 C172 1.267 . S
O175 Zn161 1.965 . S
O175 C179 1.260 . S
O176 Zn160 1.969 . S
O176 C179 1.258 . S
O177 Zn161 2.024 . S
O177 C164 1.058 . S
C178 O167 1.260 . S
C178 O168 1.258 . S
C179 O175 1.260 . S
C179 O176 1.258 . S
Zn180 O186 1.969 . S
Zn180 O187 1.965 . S
Zn180 O191 2.024 . S
Zn180 O196 1.969 . S
Zn181 O188 1.969 . S
Zn181 O194 1.969 . S
Zn181 O195 1.965 . S
Zn181 O197 2.024 . S
C182 O183 1.229 . S
C182 O191 1.058 . S
O183 C182 1.229 . S
C184 O185 1.229 . S
C184 O197 1.058 . S
O185 C184 1.229 . S
O186 Zn180 1.969 . S
O186 C189 1.267 . S
O187 Zn180 1.965 . S
O187 C198 1.260 . S
O188 Zn181 1.969 . S
O188 C198 1.258 . S
C189 O186 1.267 . S
C189 O190 1.228 . S
O190 C189 1.228 . S
O191 Zn180 2.024 . S
O191 C182 1.058 . S
C192 O193 1.228 . S
C192 O194 1.267 . S
O193 C192 1.228 . S
O194 Zn181 1.969 . S
O194 C192 1.267 . S
O195 Zn181 1.965 . S
O195 C199 1.260 . S
O196 Zn180 1.969 . S
O196 C199 1.258 . S
O197 Zn181 2.024 . S
O197 C184 1.058 . S
C198 O187 1.260 . S
C198 O188 1.258 . S
C199 O195 1.260 . S
C199 O196 1.258 . S
Zn200 O206 1.969 . S
Zn200 O207 1.965 . S
Zn200 O211 2.024 . S
Zn200 O216 1.969 . S
Zn201 O208 1.969 . S
Zn201 O214 1.969 1_554 S
Zn201 O215 1.965 1_554 S
Zn201 O217 2.024 . S
C202 O203 1.229 . S
C202 O211 1.058 . S
O203 C202 1.229 . S
C204 O205 1.229 . S
C204 O217 1.058 . S
O205 C204 1.229 . S
O206 Zn200 1.969 . S
O206 C209 1.267 . S
O207 Zn200 1.965 . S
O207 C218 1.260 . S
O208 Zn201 1.969 . S
O208 C218 1.258 . S
C209 O206 1.267 . S
C209 O210 1.228 . S
O210 C209 1.228 . S
O211 Zn200 2.024 . S
O211 C202 1.058 . S
C212 O213 1.228 . S
C212 O214 1.267 . S
O213 C212 1.228 . S
O214 Zn201 1.969 1_556 S
O214 C212 1.267 . S
O215 Zn201 1.965 1_556 S
O215 C219 1.260 . S
O216 Zn200 1.969 . S
O216 C219 1.258 1_554 S
O217 Zn201 2.024 . S
O217 C204 1.058 . S
C218 O207 1.260 . S
C218 O208 1.258 . S
C219 O215 1.260 . S
C219 O216 1.258 1_556 S
Zn220 O226 1.969 . S
Zn220 O227 1.965 . S
Zn220 O231 2.024 . S
Zn220 O236 1.969 . S
Zn221 O228 1.969 . S
Zn221 O234 1.969 . S
Zn221 O235 1.965 . S
Zn221 O237 2.024 . S
C222 O223 1.229 . S
C222 O231 1.058 . S
O223 C222 1.229 . S
C224 O225 1.229 . S
C224 O237 1.058 . S
O225 C224 1.229 . S
O226 Zn220 1.969 . S
O226 C229 1.267 . S
O227 Zn220 1.965 . S
O227 C238 1.260 . S
O228 Zn221 1.969 . S
O228 C238 1.258 . S
C229 O226 1.267 . S
C229 O230 1.228 . S
O230 C229 1.228 . S
O231 Zn220 2.024 . S
O231 C222 1.058 . S
C232 O233 1.228 . S
C232 O234 1.267 . S
O233 C232 1.228 . S
O234 Zn221 1.969 . S
O234 C232 1.267 . S
O235 Zn221 1.965 . S
O235 C239 1.260 . S
O236 Zn220 1.969 . S
O236 C239 1.258 . S
O237 Zn221 2.024 . S
O237 C224 1.058 . S
C238 O227 1.260 . S
C238 O228 1.258 . S
C239 O235 1.260 . S
C239 O236 1.258 . S
Zn240 O246 1.969 . S
Zn240 O247 1.965 . S
Zn240 O251 2.024 . S
Zn240 O256 1.969 . S
Zn241 O248 1.969 . S
Zn241 O254 1.969 . S
Zn241 O255 1.965 . S
Zn241 O257 2.024 . S
C242 O243 1.229 . S
C242 O251 1.058 . S
O243 C242 1.229 . S
C244 O245 1.229 . S
C244 O257 1.058 . S
O245 C244 1.229 . S
O246 Zn240 1.969 . S
O246 C249 1.267 . S
O247 Zn240 1.965 . S
O247 C258 1.260 . S
O248 Zn241 1.969 . S
O248 C258 1.258 . S
C249 O246 1.267 . S
C249 O250 1.228 . S
O250 C249 1.228 . S
O251 Zn240 2.024 . S
O251 C242 1.058 . S
C252 O253 1.228 . S
C252 O254 1.267 . S
O253 C252 1.228 . S
O254 Zn241 1.969 . S
O254 C252 1.267 . S
O255 Zn241 1.965 . S
O255 C259 1.260 . S
O256 Zn240 1.969 . S
O256 C259 1.258 . S
O257 Zn241 2.024 . S
O257 C244 1.058 . S
C258 O247 1.260 . S
C258 O248 1.258 . S
C259 O255 1.260 . S
C259 O256 1.258 . S
Zn260 O266 1.969 . S
Zn260 O267 1.965 . S
Zn260 O271 2.024 . S
Zn260 O276 1.969 . S
Zn261 O268 1.969 . S
Zn261 O274 1.969 . S
Zn261 O275 1.965 . S
Zn261 O277 2.024 . S
C262 O263 1.229 . S
C262 O271 1.058 . S
O263 C262 1.229 . S
C264 O265 1.229 . S
C264 O277 1.058 . S
O265 C264 1.229 . S
O266 Zn260 1.969 . S
O266 C269 1.267 . S
O267 Zn260 1.965 . S
O267 C278 1.260 . S
O268 Zn261 1.969 . S
O268 C278 1.258 . S
C269 O266 1.267 . S
C269 O270 1.228 . S
O270 C269 1.228 . S
O271 Zn260 2.024 . S
O271 C262 1.058 . S
C272 O273 1.228 . S
C272 O274 1.267 . S
O273 C272 1.228 . S
O274 Zn261 1.969 . S
O274 C272 1.267 . S
O275 Zn261 1.965 . S
O275 C279 1.260 . S
O276 Zn260 1.969 . S
O276 C279 1.258 . S
O277 Zn261 2.024 . S
O277 C264 1.058 . S
C278 O267 1.260 . S
C278 O268 1.258 . S
C279 O275 1.260 . S
C279 O276 1.258 . S
Zn280 O286 1.969 1_556 S
Zn280 O287 1.965 1_556 S
Zn280 O291 2.024 . S
Zn280 O296 1.969 . S
Zn281 O288 1.969 . S
Zn281 O294 1.969 . S
Zn281 O295 1.965 . S
Zn281 O297 2.024 . S
C282 O283 1.229 . S
C282 O291 1.058 . S
O283 C282 1.229 . S
C284 O285 1.229 . S
C284 O297 1.058 . S
O285 C284 1.229 . S
O286 Zn280 1.969 1_554 S
O286 C289 1.267 . S
O287 Zn280 1.965 1_554 S
O287 C298 1.260 . S
O288 Zn281 1.969 . S
O288 C298 1.258 1_556 S
C289 O286 1.267 . S
C289 O290 1.228 . S
O290 C289 1.228 . S
O291 Zn280 2.024 . S
O291 C282 1.058 . S
C292 O293 1.228 . S
C292 O294 1.267 . S
O293 C292 1.228 . S
O294 Zn281 1.969 . S
O294 C292 1.267 . S
O295 Zn281 1.965 . S
O295 C299 1.260 . S
O296 Zn280 1.969 . S
O296 C299 1.258 . S
O297 Zn281 2.024 . S
O297 C284 1.058 . S
C298 O287 1.260 . S
C298 O288 1.258 1_554 S
C299 O295 1.260 . S
C299 O296 1.258 . S
Zn300 O306 1.969 . S
Zn300 O307 1.965 . S
Zn300 O311 2.024 . S
Zn300 O316 1.969 . S
Zn301 O308 1.969 . S
Zn301 O314 1.969 . S
Zn301 O315 1.965 . S
Zn301 O317 2.024 . S
C302 O303 1.229 . S
C302 O311 1.058 . S
O303 C302 1.229 . S
C304 O305 1.229 . S
C304 O317 1.058 . S
O305 C304 1.229 . S
O306 Zn300 1.969 . S
O306 C309 1.267 . S
O307 Zn300 1.965 . S
O307 C318 1.260 . S
O308 Zn301 1.969 . S
O308 C318 1.258 . S
C309 O306 1.267 . S
C309 O310 1.228 . S
O310 C309 1.228 . S
O311 Zn300 2.024 . S
O311 C302 1.058 . S
C312 O313 1.228 . S
C312 O314 1.267 . S
O313 C312 1.228 . S
O314 Zn301 1.969 . S
O314 C312 1.267 . S
O315 Zn301 1.965 . S
O315 C319 1.260 . S
O316 Zn300 1.969 . S
O316 C319 1.258 . S
O317 Zn301 2.024 . S
O317 C304 1.058 . S
C318 O307 1.260 . S
C318 O308 1.258 . S
C319 O315 1.260 . S
C319 O316 1.258 . S
H320 C326 0.930 . S
H321 C329 0.930 . S
H322 C330 0.930 . S
H323 C331 0.930 . S
H324 C334 0.930 . S
H325 C335 0.930 . S
C326 H320 0.930 . S
C326 C327 1.355 . S
C326 C328 1.415 . S
C327 C326 1.355 . S
C327 C329 1.419 . S
C328 C326 1.415 . S
C328 C333 1.425 . S
C328 C335 1.409 . S
C329 H321 0.930 . S
C329 C327 1.419 . S
C329 C330 1.362 . S
C330 H322 0.930 . S
C330 C329 1.362 . S
C330 C333 1.409 . S
C331 H323 0.930 . S
C331 C332 1.355 . S
C331 C333 1.415 . S
C332 C331 1.355 . S
C332 C334 1.419 . S
C333 C328 1.425 . S
C333 C330 1.409 . S
C333 C331 1.415 . S
C334 H324 0.930 . S
C334 C332 1.419 . S
C334 C335 1.362 . S
C335 H325 0.930 . S
C335 C328 1.409 . S
C335 C334 1.362 . S
H336 C342 0.930 . S
H337 C345 0.930 . S
H338 C346 0.930 . S
H339 C347 0.930 . S
H340 C350 0.930 . S
H341 C351 0.930 . S
C342 H336 0.930 . S
C342 C343 1.355 . S
C342 C344 1.415 . S
C343 C342 1.355 . S
C343 C345 1.419 . S
C344 C342 1.415 . S
C344 C349 1.425 . S
C344 C351 1.409 . S
C345 H337 0.930 . S
C345 C343 1.419 . S
C345 C346 1.362 . S
C346 H338 0.930 . S
C346 C345 1.362 . S
C346 C349 1.409 . S
C347 H339 0.930 . S
C347 C348 1.355 . S
C347 C349 1.415 . S
C348 C347 1.355 . S
C348 C350 1.419 . S
C349 C344 1.425 . S
C349 C346 1.409 . S
C349 C347 1.415 . S
C350 H340 0.930 . S
C350 C348 1.419 . S
C350 C351 1.362 . S
C351 H341 0.930 . S
C351 C344 1.409 . S
C351 C350 1.362 . S
H352 C358 0.930 1_655 S
H353 C361 0.930 . S
H354 C362 0.930 . S
H355 C363 0.930 1_455 S
H356 C366 0.930 . S
H357 C367 0.930 . S
C358 H352 0.930 1_455 S
C358 C359 1.355 . S
C358 C360 1.415 1_455 S
C359 C358 1.355 . S
C359 C361 1.419 . S
C360 C358 1.415 1_655 S
C360 C365 1.425 1_655 S
C360 C367 1.409 . S
C361 H353 0.930 . S
C361 C359 1.419 . S
C361 C362 1.362 . S
C362 H354 0.930 . S
C362 C361 1.362 . S
C362 C365 1.409 . S
C363 H355 0.930 1_655 S
C363 C364 1.355 . S
C363 C365 1.415 1_655 S
C364 C363 1.355 . S
C364 C366 1.419 . S
C365 C360 1.425 1_455 S
C365 C362 1.409 . S
C365 C363 1.415 1_455 S
C366 H356 0.930 . S
C366 C364 1.419 . S
C366 C367 1.362 . S
C367 H357 0.930 . S
C367 C360 1.409 . S
C367 C366 1.362 . S
H368 C374 0.930 . S
H369 C377 0.930 . S
H370 C378 0.930 . S
H371 C379 0.930 . S
H372 C382 0.930 . S
H373 C383 0.930 . S
C374 H368 0.930 . S
C374 C375 1.355 . S
C374 C376 1.415 1_655 S
C375 C374 1.355 . S
C375 C377 1.419 . S
C376 C374 1.415 1_455 S
C376 C381 1.425 1_455 S
C376 C383 1.409 . S
C377 H369 0.930 . S
C377 C375 1.419 . S
C377 C378 1.362 . S
C378 H370 0.930 . S
C378 C377 1.362 . S
C378 C381 1.409 . S
C379 H371 0.930 . S
C379 C380 1.355 . S
C379 C381 1.415 1_455 S
C380 C379 1.355 . S
C380 C382 1.419 . S
C381 C376 1.425 1_655 S
C381 C378 1.409 . S
C381 C379 1.415 1_655 S
C382 H372 0.930 . S
C382 C380 1.419 . S
C382 C383 1.362 . S
C383 H373 0.930 . S
C383 C376 1.409 . S
C383 C382 1.362 . S
H384 C390 0.930 . S
H385 C393 0.930 . S
H386 C394 0.949 . S
H387 C395 0.930 . S
H388 C398 0.930 . S
H389 C399 0.930 . S
C390 H384 0.930 . S
C390 C391 1.355 . S
C390 C392 1.415 . S
C391 C390 1.355 . S
C391 C393 1.419 . S
C392 C390 1.415 . S
C392 C397 1.425 . S
C392 C399 1.409 . S
C393 H385 0.930 . S
C393 C391 1.419 . S
C393 C394 1.362 . S
C394 H386 0.949 . S
C394 C393 1.362 . S
C394 C397 1.409 . S
C395 H387 0.930 . S
C395 C396 1.355 . S
C395 C397 1.415 . S
C396 C395 1.355 . S
C396 C398 1.419 . S
C397 C392 1.425 . S
C397 C394 1.409 . S
C397 C395 1.415 . S
C398 H388 0.930 . S
C398 C396 1.419 . S
C398 C399 1.362 . S
C399 H389 0.930 . S
C399 C392 1.409 . S
C399 C398 1.362 . S
H400 C406 0.930 . S
H401 C409 0.930 . S
H402 C410 0.930 . S
H403 C411 0.930 . S
H404 C414 0.930 . S
H405 C415 0.930 . S
C406 H400 0.930 . S
C406 C407 1.355 . S
C406 C408 1.415 . S
C407 C406 1.355 . S
C407 C409 1.419 . S
C408 C406 1.415 . S
C408 C413 1.425 . S
C408 C415 1.409 . S
C409 H401 0.930 . S
C409 C407 1.419 . S
C409 C410 1.362 . S
C410 H402 0.930 . S
C410 C409 1.362 . S
C410 C413 1.409 . S
C411 H403 0.930 . S
C411 C412 1.355 . S
C411 C413 1.415 . S
C412 C411 1.355 . S
C412 C414 1.419 . S
C413 C408 1.425 . S
C413 C410 1.409 . S
C413 C411 1.415 . S
C414 H404 0.930 . S
C414 C412 1.419 . S
C414 C415 1.362 . S
C415 H405 0.930 . S
C415 C408 1.409 . S
C415 C414 1.362 . S
H416 C422 0.930 . S
H417 C425 0.930 . S
H418 C426 0.930 . S
H419 C427 0.930 . S
H420 C430 0.930 . S
H421 C431 0.930 . S
C422 H416 0.930 . S
C422 C423 1.355 . S
C422 C424 1.415 1_655 S
C423 C422 1.355 . S
C423 C425 1.419 . S
C424 C422 1.415 1_455 S
C424 C429 1.425 1_455 S
C424 C431 1.409 . S
C425 H417 0.930 . S
C425 C423 1.419 . S
C425 C426 1.362 . S
C426 H418 0.930 . S
C426 C425 1.362 . S
C426 C429 1.409 . S
C427 H419 0.930 . S
C427 C428 1.355 . S
C427 C429 1.415 1_455 S
C428 C427 1.355 . S
C428 C430 1.419 . S
C429 C424 1.425 1_655 S
C429 C426 1.409 . S
C429 C427 1.415 1_655 S
C430 H420 0.930 . S
C430 C428 1.419 . S
C430 C431 1.362 . S
C431 H421 0.930 . S
C431 C424 1.409 . S
C431 C430 1.362 . S
H432 C438 0.930 . S
H433 C441 0.930 . S
H434 C442 0.930 . S
H435 C443 0.930 . S
H436 C446 0.930 . S
H437 C447 0.930 . S
C438 H432 0.930 . S
C438 C439 1.355 . S
C438 C440 1.415 . S
C439 C438 1.355 . S
C439 C441 1.419 . S
C440 C438 1.415 . S
C440 C445 1.425 1_455 S
C440 C447 1.409 . S
C441 H433 0.930 . S
C441 C439 1.419 . S
C441 C442 1.362 1_455 S
C442 H434 0.930 . S
C442 C441 1.362 1_655 S
C442 C445 1.409 . S
C443 H435 0.930 . S
C443 C444 1.355 . S
C443 C445 1.415 . S
C444 C443 1.355 . S
C444 C446 1.419 . S
C445 C440 1.425 1_655 S
C445 C442 1.409 . S
C445 C443 1.415 . S
C446 H436 0.930 . S
C446 C444 1.419 . S
C446 C447 1.362 1_655 S
C447 H437 0.930 . S
C447 C440 1.409 . S
C447 C446 1.362 1_455 S
H448 C454 0.930 . S
H449 C457 0.930 . S
H450 C458 0.930 . S
H451 C459 0.930 . S
H452 C462 0.930 1_554 S
H453 C463 0.930 . S
C454 H448 0.930 . S
C454 C455 1.355 . S
C454 C456 1.415 . S
C455 C454 1.355 . S
C455 C457 1.419 . S
C456 C454 1.415 . S
C456 C461 1.425 . S
C456 C463 1.409 . S
C457 H449 0.930 . S
C457 C455 1.419 . S
C457 C458 1.362 . S
C458 H450 0.930 . S
C458 C457 1.362 . S
C458 C461 1.409 . S
C459 H451 0.930 . S
C459 C460 1.355 . S
C459 C461 1.415 . S
C460 C459 1.355 . S
C460 C462 1.419 . S
C461 C456 1.425 . S
C461 C458 1.409 . S
C461 C459 1.415 . S
C462 H452 0.930 1_556 S
C462 C460 1.419 . S
C462 C463 1.362 . S
C463 H453 0.930 . S
C463 C456 1.409 . S
C463 C462 1.362 . S
H464 C470 0.930 . S
H465 C473 0.930 . S
H466 C474 0.930 . S
H467 C475 0.930 . S
H468 C478 0.930 . S
H469 C479 0.930 . S
C470 H464 0.930 . S
C470 C471 1.355 . S
C470 C472 1.415 . S
C471 C470 1.355 . S
C471 C473 1.419 . S
C472 C470 1.415 . S
C472 C477 1.425 . S
C472 C479 1.409 . S
C473 H465 0.930 . S
C473 C471 1.419 . S
C473 C474 1.362 . S
C474 H466 0.930 . S
C474 C473 1.362 . S
C474 C477 1.409 . S
C475 H467 0.930 . S
C475 C476 1.355 . S
C475 C477 1.415 . S
C476 C475 1.355 . S
C476 C478 1.419 . S
C477 C472 1.425 . S
C477 C474 1.409 . S
C477 C475 1.415 . S
C478 H468 0.930 . S
C478 C476 1.419 . S
C478 C479 1.362 . S
C479 H469 0.930 . S
C479 C472 1.409 . S
C479 C478 1.362 . S
H480 C486 0.930 . S
H481 C489 0.930 . S
H482 C490 0.930 . S
H483 C491 0.930 . S
H484 C494 0.930 . S
H485 C495 0.930 . S
C486 H480 0.930 . S
C486 C487 1.355 . S
C486 C488 1.415 . S
C487 C486 1.355 . S
C487 C489 1.419 . S
C488 C486 1.415 . S
C488 C493 1.425 . S
C488 C495 1.409 . S
C489 H481 0.930 . S
C489 C487 1.419 . S
C489 C490 1.362 . S
C490 H482 0.930 . S
C490 C489 1.362 . S
C490 C493 1.409 . S
C491 H483 0.930 . S
C491 C492 1.355 . S
C491 C493 1.415 . S
C492 C491 1.355 . S
C492 C494 1.419 . S
C493 C488 1.425 . S
C493 C490 1.409 . S
C493 C491 1.415 . S
C494 H484 0.930 . S
C494 C492 1.419 . S
C494 C495 1.362 . S
C495 H485 0.930 . S
C495 C488 1.409 . S
C495 C494 1.362 . S
H496 C502 0.930 . S
H497 C505 0.930 . S
H498 C506 0.930 . S
H499 C507 0.930 . S
H500 C510 0.930 . S
H501 C511 0.930 . S
C502 H496 0.930 . S
C502 C503 1.355 . S
C502 C504 1.415 . S
C503 C502 1.355 . S
C503 C505 1.419 . S
C504 C502 1.415 . S
C504 C509 1.425 . S
C504 C511 1.409 . S
C505 H497 0.930 . S
C505 C503 1.419 . S
C505 C506 1.362 . S
C506 H498 0.930 . S
C506 C505 1.362 . S
C506 C509 1.409 . S
C507 H499 0.930 . S
C507 C508 1.355 . S
C507 C509 1.415 . S
C508 C507 1.355 . S
C508 C510 1.419 . S
C509 C504 1.425 . S
C509 C506 1.409 . S
C509 C507 1.415 . S
C510 H500 0.930 . S
C510 C508 1.419 . S
C510 C511 1.362 . S
C511 H501 0.930 . S
C511 C504 1.409 . S
C511 C510 1.362 . S
H512 C518 0.930 . S
H513 C521 0.930 . S
H514 C522 0.930 1_556 S
H515 C523 0.930 . S
H516 C526 0.930 . S
H517 C527 0.930 . S
C518 H512 0.930 . S
C518 C519 1.355 . S
C518 C520 1.415 . S
C519 C518 1.355 . S
C519 C521 1.419 1_554 S
C520 C518 1.415 . S
C520 C525 1.425 . S
C520 C527 1.409 . S
C521 H513 0.930 . S
C521 C519 1.419 1_556 S
C521 C522 1.362 1_556 S
C522 H514 0.930 1_554 S
C522 C521 1.362 1_554 S
C522 C525 1.409 . S
C523 H515 0.930 . S
C523 C524 1.355 . S
C523 C525 1.415 . S
C524 C523 1.355 . S
C524 C526 1.419 . S
C525 C520 1.425 . S
C525 C522 1.409 . S
C525 C523 1.415 . S
C526 H516 0.930 . S
C526 C524 1.419 . S
C526 C527 1.362 . S
C527 H517 0.930 . S
C527 C520 1.409 . S
C527 C526 1.362 . S
H528 C534 0.930 . S
H529 C537 0.930 . S
H530 C538 0.930 . S
H531 C539 0.930 . S
H532 C542 0.930 . S
H533 C543 0.930 . S
C534 H528 0.930 . S
C534 C535 1.355 . S
C534 C536 1.415 . S
C535 C534 1.355 . S
C535 C537 1.419 . S
C536 C534 1.415 . S
C536 C541 1.425 . S
C536 C543 1.409 . S
C537 H529 0.930 . S
C537 C535 1.419 . S
C537 C538 1.362 . S
C538 H530 0.930 . S
C538 C537 1.362 . S
C538 C541 1.409 . S
C539 H531 0.930 . S
C539 C540 1.355 . S
C539 C541 1.415 . S
C540 C539 1.355 . S
C540 C542 1.419 . S
C541 C536 1.425 . S
C541 C538 1.409 . S
C541 C539 1.415 . S
C542 H532 0.930 . S
C542 C540 1.419 . S
C542 C543 1.362 . S
C543 H533 0.930 . S
C543 C536 1.409 . S
C543 C542 1.362 . S
H544 C550 0.930 . S
H545 C553 0.930 . S
H546 C554 0.930 . S
H547 C555 0.930 . S
H548 C558 0.930 . S
H549 C559 0.930 . S
C550 H544 0.930 . S
C550 C551 1.355 . S
C550 C552 1.415 . S
C551 C550 1.355 . S
C551 C553 1.419 . S
C552 C550 1.415 . S
C552 C557 1.425 . S
C552 C559 1.409 . S
C553 H545 0.930 . S
C553 C551 1.419 . S
C553 C554 1.362 . S
C554 H546 0.930 . S
C554 C553 1.362 . S
C554 C557 1.409 . S
C555 H547 0.930 . S
C555 C556 1.355 . S
C555 C557 1.415 . S
C556 C555 1.355 . S
C556 C558 1.419 . S
C557 C552 1.425 . S
C557 C554 1.409 . S
C557 C555 1.415 . S
C558 H548 0.930 . S
C558 C556 1.419 . S
C558 C559 1.362 . S
C559 H549 0.930 . S
C559 C552 1.409 . S
C559 C558 1.362 . S
H560 C566 0.930 . S
H561 C569 0.930 . S
H562 C570 0.930 . S
H563 C571 0.930 . S
H564 C574 0.930 . S
H565 C575 0.930 . S
C566 H560 0.930 . S
C566 C567 1.355 . S
C566 C568 1.415 . S
C567 C566 1.355 . S
C567 C569 1.419 . S
C568 C566 1.415 . S
C568 C573 1.425 . S
C568 C575 1.409 . S
C569 H561 0.930 . S
C569 C567 1.419 . S
C569 C570 1.362 . S
C570 H562 0.930 . S
C570 C569 1.362 . S
C570 C573 1.409 . S
C571 H563 0.930 . S
C571 C572 1.355 . S
C571 C573 1.415 . S
C572 C571 1.355 . S
C572 C574 1.419 . S
C573 C568 1.425 . S
C573 C570 1.409 . S
C573 C571 1.415 . S
C574 H564 0.930 . S
C574 C572 1.419 . S
C574 C575 1.362 . S
C575 H565 0.930 . S
C575 C568 1.409 . S
C575 C574 1.362 . S
H576 C582 0.930 . S
H577 C585 0.930 . S
H578 C586 0.930 . S
H579 C587 0.930 . S
H580 C590 0.930 . S
H581 C591 0.930 . S
C582 H576 0.930 . S
C582 C583 1.355 . S
C582 C584 1.415 . S
C583 C582 1.355 . S
C583 C585 1.419 . S
C584 C582 1.415 . S
C584 C589 1.425 . S
C584 C591 1.409 . S
C585 H577 0.930 . S
C585 C583 1.419 . S
C585 C586 1.362 . S
C586 H578 0.930 . S
C586 C585 1.362 . S
C586 C589 1.409 . S
C587 H579 0.930 . S
C587 C588 1.355 . S
C587 C589 1.415 . S
C588 C587 1.355 . S
C588 C590 1.419 . S
C589 C584 1.425 . S
C589 C586 1.409 . S
C589 C587 1.415 . S
C590 H580 0.930 . S
C590 C588 1.419 . S
C590 C591 1.362 . S
C591 H581 0.930 . S
C591 C584 1.409 . S
C591 C590 1.362 . S
H592 C598 0.930 . S
H593 C601 0.930 . S
H594 C602 0.930 . S
H595 C603 0.930 . S
H596 C606 0.930 . S
H597 C607 0.930 . S
C598 H592 0.930 . S
C598 C599 1.355 . S
C598 C600 1.415 . S
C599 C598 1.355 . S
C599 C601 1.419 . S
C600 C598 1.415 . S
C600 C605 1.425 . S
C600 C607 1.409 . S
C601 H593 0.930 . S
C601 C599 1.419 . S
C601 C602 1.362 . S
C602 H594 0.930 . S
C602 C601 1.362 . S
C602 C605 1.409 . S
C603 H595 0.930 . S
C603 C604 1.355 . S
C603 C605 1.415 . S
C604 C603 1.355 . S
C604 C606 1.419 . S
C605 C600 1.425 . S
C605 C602 1.409 . S
C605 C603 1.415 . S
C606 H596 0.930 . S
C606 C604 1.419 . S
C606 C607 1.362 . S
C607 H597 0.930 . S
C607 C600 1.409 . S
C607 C606 1.362 . S
H608 C614 0.930 1_554 S
H609 C617 0.930 . S
H610 C618 0.930 . S
H611 C619 0.930 . S
H612 C622 0.930 . S
H613 C623 0.930 1_554 S
C614 H608 0.930 1_556 S
C614 C615 1.355 . S
C614 C616 1.415 . S
C615 C614 1.355 . S
C615 C617 1.419 . S
C616 C614 1.415 . S
C616 C621 1.425 . S
C616 C623 1.409 . S
C617 H609 0.930 . S
C617 C615 1.419 . S
C617 C618 1.362 . S
C618 H610 0.930 . S
C618 C617 1.362 . S
C618 C621 1.409 . S
C619 H611 0.930 . S
C619 C620 1.355 . S
C619 C621 1.415 . S
C620 C619 1.355 . S
C620 C622 1.419 . S
C621 C616 1.425 . S
C621 C618 1.409 . S
C621 C619 1.415 . S
C622 H612 0.930 . S
C622 C620 1.419 . S
C622 C623 1.362 . S
C623 H613 0.930 1_556 S
C623 C616 1.409 . S
C623 C622 1.362 . S
H624 C630 0.930 . S
H625 C633 0.930 . S
H626 C634 0.930 . S
H627 C635 0.930 . S
H628 C638 0.930 . S
H629 C639 0.930 . S
C630 H624 0.930 . S
C630 C631 1.355 . S
C630 C632 1.415 . S
C631 C630 1.355 . S
C631 C633 1.419 . S
C632 C630 1.415 . S
C632 C637 1.425 . S
C632 C639 1.409 . S
C633 H625 0.930 . S
C633 C631 1.419 . S
C633 C634 1.362 . S
C634 H626 0.930 . S
C634 C633 1.362 . S
C634 C637 1.409 . S
C635 H627 0.930 . S
C635 C636 1.355 . S
C635 C637 1.415 . S
C636 C635 1.355 . S
C636 C638 1.419 . S
C637 C632 1.425 . S
C637 C634 1.409 . S
C637 C635 1.415 . S
C638 H628 0.930 . S
C638 C636 1.419 . S
C638 C639 1.362 . S
C639 H629 0.930 . S
C639 C632 1.409 . S
C639 C638 1.362 . S
H640 C646 0.930 . S
H641 C649 0.930 . S
H642 C650 0.930 . S
H643 C651 0.930 . S
H644 C654 0.930 . S
H645 C655 0.930 . S
C646 H640 0.930 . S
C646 C647 1.355 . S
C646 C648 1.415 . S
C647 C646 1.355 . S
C647 C649 1.419 . S
C648 C646 1.415 . S
C648 C653 1.425 . S
C648 C655 1.409 . S
C649 H641 0.930 . S
C649 C647 1.419 . S
C649 C650 1.362 . S
C650 H642 0.930 . S
C650 C649 1.362 . S
C650 C653 1.409 . S
C651 H643 0.930 . S
C651 C652 1.355 . S
C651 C653 1.415 . S
C652 C651 1.355 . S
C652 C654 1.419 . S
C653 C648 1.425 . S
C653 C650 1.409 . S
C653 C651 1.415 . S
C654 H644 0.930 . S
C654 C652 1.419 . S
C654 C655 1.362 . S
C655 H645 0.930 . S
C655 C648 1.409 . S
C655 C654 1.362 . S
H656 C662 0.930 . S
H657 C665 0.930 . S
H658 C666 0.930 . S
H659 C667 0.930 . S
H660 C670 0.930 . S
H661 C671 0.930 . S
C662 H656 0.930 . S
C662 C663 1.355 . S
C662 C664 1.415 . S
C663 C662 1.355 . S
C663 C665 1.419 . S
C664 C662 1.415 . S
C664 C669 1.425 . S
C664 C671 1.409 . S
C665 H657 0.930 . S
C665 C663 1.419 . S
C665 C666 1.362 . S
C666 H658 0.930 . S
C666 C665 1.362 . S
C666 C669 1.409 . S
C667 H659 0.930 . S
C667 C668 1.355 . S
C667 C669 1.415 . S
C668 C667 1.355 . S
C668 C670 1.419 . S
C669 C664 1.425 . S
C669 C666 1.409 . S
C669 C667 1.415 . S
C670 H660 0.930 . S
C670 C668 1.419 . S
C670 C671 1.362 . S
C671 H661 0.930 . S
C671 C664 1.409 . S
C671 C670 1.362 . S
H672 C678 0.930 . S
H673 C681 0.930 . S
H674 C682 0.930 . S
H675 C683 0.930 . S
H676 C686 0.930 . S
H677 C687 0.930 1_556 S
C678 H672 0.930 . S
C678 C679 1.355 . S
C678 C680 1.415 . S
C679 C678 1.355 . S
C679 C681 1.419 . S
C680 C678 1.415 . S
C680 C685 1.425 . S
C680 C687 1.409 . S
C681 H673 0.930 . S
C681 C679 1.419 . S
C681 C682 1.362 . S
C682 H674 0.930 . S
C682 C681 1.362 . S
C682 C685 1.409 . S
C683 H675 0.930 . S
C683 C684 1.355 . S
C683 C685 1.415 . S
C684 C683 1.355 . S
C684 C686 1.419 1_554 S
C685 C680 1.425 . S
C685 C682 1.409 . S
C685 C683 1.415 . S
C686 H676 0.930 . S
C686 C684 1.419 1_556 S
C686 C687 1.362 1_556 S
C687 H677 0.930 1_554 S
C687 C680 1.409 . S
C687 C686 1.362 1_554 S
H688 C694 0.930 . S
H689 C697 0.930 . S
H690 C698 0.930 . S
H691 C699 0.930 . S
H692 C702 0.930 . S
H693 C703 0.930 . S
C694 H688 0.930 . S
C694 C695 1.355 . S
C694 C696 1.415 . S
C695 C694 1.355 . S
C695 C697 1.419 . S
C696 C694 1.415 . S
C696 C701 1.425 . S
C696 C703 1.409 . S
C697 H689 0.930 . S
C697 C695 1.419 . S
C697 C698 1.362 . S
C698 H690 0.930 . S
C698 C697 1.362 . S
C698 C701 1.409 . S
C699 H691 0.930 . S
C699 C700 1.355 . S
C699 C701 1.415 . S
C700 C699 1.355 . S
C700 C702 1.419 . S
C701 C696 1.425 . S
C701 C698 1.409 . S
C701 C699 1.415 . S
C702 H692 0.930 . S
C702 C700 1.419 . S
C702 C703 1.362 . S
C703 H693 0.930 . S
C703 C696 1.409 . S
C703 C702 1.362 . S
H704 C710 0.930 . S
H705 C713 0.930 . S
H706 C714 0.930 . S
H707 C715 0.930 . S
H708 C718 0.930 . S
H709 C719 0.930 . S
C710 H704 0.930 . S
C710 C711 1.355 . S
C710 C712 1.415 . S
C711 C710 1.355 . S
C711 C713 1.419 . S
C712 C710 1.415 . S
C712 C717 1.425 . S
C712 C719 1.409 . S
C713 H705 0.930 . S
C713 C711 1.419 . S
C713 C714 1.362 . S
C714 H706 0.930 . S
C714 C713 1.362 . S
C714 C717 1.409 . S
C715 H707 0.930 . S
C715 C716 1.355 . S
C715 C717 1.415 . S
C716 C715 1.355 . S
C716 C718 1.419 . S
C717 C712 1.425 . S
C717 C714 1.409 . S
C717 C715 1.415 . S
C718 H708 0.930 . S
C718 C716 1.419 . S
C718 C719 1.362 . S
C719 H709 0.930 . S
C719 C712 1.409 . S
C719 C718 1.362 . S
H720 C726 0.930 . S
H721 C729 0.930 . S
H722 C730 0.930 . S
H723 C731 0.930 . S
H724 C734 0.930 . S
H725 C735 0.930 . S
C726 H720 0.930 . S
C726 C727 1.355 . S
C726 C728 1.415 . S
C727 C726 1.355 . S
C727 C729 1.419 . S
C728 C726 1.415 . S
C728 C733 1.425 . S
C728 C735 1.409 . S
C729 H721 0.930 . S
C729 C727 1.419 . S
C729 C730 1.362 . S
C730 H722 0.930 . S
C730 C729 1.362 . S
C730 C733 1.409 . S
C731 H723 0.930 . S
C731 C732 1.355 . S
C731 C733 1.415 . S
C732 C731 1.355 . S
C732 C734 1.419 . S
C733 C728 1.425 . S
C733 C730 1.409 . S
C733 C731 1.415 . S
C734 H724 0.930 . S
C734 C732 1.419 . S
C734 C735 1.362 . S
C735 H725 0.930 . S
C735 C728 1.409 . S
C735 C734 1.362 . S
H736 C742 0.930 . S
H737 C745 0.930 . S
H738 C746 0.930 . S
H739 C747 0.930 . S
H740 C750 0.930 . S
H741 C751 0.930 . S
C742 H736 0.930 . S
C742 C743 1.355 . S
C742 C744 1.415 1_655 S
C743 C742 1.355 . S
C743 C745 1.419 . S
C744 C742 1.415 1_455 S
C744 C749 1.425 . S
C744 C751 1.409 . S
C745 H737 0.930 . S
C745 C743 1.419 . S
C745 C746 1.362 . S
C746 H738 0.930 . S
C746 C745 1.362 . S
C746 C749 1.409 1_655 S
C747 H739 0.930 . S
C747 C748 1.355 . S
C747 C749 1.415 . S
C748 C747 1.355 . S
C748 C750 1.419 . S
C749 C744 1.425 . S
C749 C746 1.409 1_455 S
C749 C747 1.415 . S
C750 H740 0.930 . S
C750 C748 1.419 . S
C750 C751 1.362 . S
C751 H741 0.930 . S
C751 C744 1.409 . S
C751 C750 1.362 . S
H752 C758 0.930 . S
H753 C761 0.930 . S
H754 C762 0.930 . S
H755 C763 0.930 . S
H756 C766 0.930 . S
H757 C767 0.930 . S
C758 H752 0.930 . S
C758 C759 1.355 . S
C758 C760 1.415 . S
C759 C758 1.355 . S
C759 C761 1.419 . S
C760 C758 1.415 . S
C760 C765 1.425 . S
C760 C767 1.409 . S
C761 H753 0.930 . S
C761 C759 1.419 . S
C761 C762 1.362 . S
C762 H754 0.930 . S
C762 C761 1.362 . S
C762 C765 1.409 . S
C763 H755 0.930 . S
C763 C764 1.355 . S
C763 C765 1.415 . S
C764 C763 1.355 . S
C764 C766 1.419 . S
C765 C760 1.425 . S
C765 C762 1.409 . S
C765 C763 1.415 . S
C766 H756 0.930 . S
C766 C764 1.419 . S
C766 C767 1.362 . S
C767 H757 0.930 . S
C767 C760 1.409 . S
C767 C766 1.362 . S
H768 C774 0.930 . S
H769 C777 0.930 . S
H770 C778 0.930 . S
H771 C779 0.930 . S
H772 C782 0.930 . S
H773 C783 0.930 . S
C774 H768 0.930 . S
C774 C775 1.355 . S
C774 C776 1.415 . S
C775 C774 1.355 . S
C775 C777 1.419 . S
C776 C774 1.415 . S
C776 C781 1.425 . S
C776 C783 1.409 . S
C777 H769 0.930 . S
C777 C775 1.419 . S
C777 C778 1.362 . S
C778 H770 0.930 . S
C778 C777 1.362 . S
C778 C781 1.409 . S
C779 H771 0.930 . S
C779 C780 1.355 . S
C779 C781 1.415 . S
C780 C779 1.355 . S
C780 C782 1.419 . S
C781 C776 1.425 . S
C781 C778 1.409 . S
C781 C779 1.415 . S
C782 H772 0.930 . S
C782 C780 1.419 . S
C782 C783 1.362 . S
C783 H773 0.930 . S
C783 C776 1.409 . S
C783 C782 1.362 . S
H784 C790 0.930 . S
H785 C793 0.930 . S
H786 C794 0.930 . S
H787 C795 0.930 . S
H788 C798 0.930 . S
H789 C799 0.930 . S
C790 H784 0.930 . S
C790 C791 1.355 . S
C790 C792 1.415 . S
C791 C790 1.355 . S
C791 C793 1.419 . S
C792 C790 1.415 . S
C792 C797 1.425 . S
C792 C799 1.409 . S
C793 H785 0.930 . S
C793 C791 1.419 . S
C793 C794 1.362 . S
C794 H786 0.930 . S
C794 C793 1.362 . S
C794 C797 1.409 . S
C795 H787 0.930 . S
C795 C796 1.355 . S
C795 C797 1.415 . S
C796 C795 1.355 . S
C796 C798 1.419 . S
C797 C792 1.425 . S
C797 C794 1.409 . S
C797 C795 1.415 . S
C798 H788 0.930 . S
C798 C796 1.419 . S
C798 C799 1.362 . S
C799 H789 0.930 . S
C799 C792 1.409 . S
C799 C798 1.362 . S
H800 C806 0.930 . S
H801 C809 0.930 . S
H802 C810 0.930 . S
H803 C811 0.930 . S
H804 C814 0.930 . S
H805 C815 0.930 . S
C806 H800 0.930 . S
C806 C807 1.355 . S
C806 C808 1.394 1_455 S
C807 C806 1.355 . S
C807 C809 1.419 1_455 S
C808 C806 1.394 1_655 S
C808 C813 1.448 . S
C808 C815 1.408 1_655 S
C809 H801 0.930 . S
C809 C807 1.419 1_655 S
C809 C810 1.362 . S
C810 H802 0.930 . S
C810 C809 1.362 . S
C810 C813 1.409 . S
C811 H803 0.930 . S
C811 C812 1.355 . S
C811 C813 1.415 . S
C812 C811 1.355 . S
C812 C814 1.419 . S
C813 C808 1.448 . S
C813 C810 1.409 . S
C813 C811 1.415 . S
C814 H804 0.930 . S
C814 C812 1.419 . S
C814 C815 1.362 1_655 S
C815 H805 0.930 . S
C815 C808 1.408 1_455 S
C815 C814 1.362 1_455 S
H816 C822 0.930 . S
H817 C825 0.930 . S
H818 C826 0.930 . S
H819 C827 0.930 . S
H820 C830 0.930 . S
H821 C831 0.930 . S
C822 H816 0.930 . S
C822 C823 1.355 . S
C822 C824 1.415 . S
C823 C822 1.355 . S
C823 C825 1.419 . S
C824 C822 1.415 . S
C824 C829 1.425 . S
C824 C831 1.409 . S
C825 H817 0.930 . S
C825 C823 1.419 . S
C825 C826 1.362 . S
C826 H818 0.930 . S
C826 C825 1.362 . S
C826 C829 1.409 . S
C827 H819 0.930 . S
C827 C828 1.355 . S
C827 C829 1.415 . S
C828 C827 1.355 . S
C828 C830 1.419 . S
C829 C824 1.425 . S
C829 C826 1.409 . S
C829 C827 1.415 . S
C830 H820 0.930 . S
C830 C828 1.419 . S
C830 C831 1.362 . S
C831 H821 0.930 . S
C831 C824 1.409 . S
C831 C830 1.362 . S
H832 C838 0.930 . S
H833 C841 0.930 . S
H834 C842 0.930 . S
H835 C843 0.930 . S
H836 C846 0.930 . S
H837 C847 0.930 . S
C838 H832 0.930 . S
C838 C839 1.355 . S
C838 C840 1.415 . S
C839 C838 1.355 . S
C839 C841 1.419 . S
C840 C838 1.415 . S
C840 C845 1.425 . S
C840 C847 1.409 1_655 S
C841 H833 0.930 . S
C841 C839 1.419 . S
C841 C842 1.362 . S
C842 H834 0.930 . S
C842 C841 1.362 . S
C842 C845 1.409 . S
C843 H835 0.930 . S
C843 C844 1.355 1_655 S
C843 C845 1.415 . S
C844 C843 1.355 1_455 S
C844 C846 1.419 . S
C845 C840 1.425 . S
C845 C842 1.409 . S
C845 C843 1.415 . S
C846 H836 0.930 . S
C846 C844 1.419 . S
C846 C847 1.362 . S
C847 H837 0.930 . S
C847 C840 1.409 1_455 S
C847 C846 1.362 . S
H848 C854 0.930 . S
H849 C857 0.930 . S
H850 C858 0.930 . S
H851 C859 0.930 . S
H852 C862 0.930 . S
H853 C863 0.930 . S
C854 H848 0.930 . S
C854 C855 1.355 . S
C854 C856 1.415 . S
C855 C854 1.355 . S
C855 C857 1.419 . S
C856 C854 1.415 . S
C856 C861 1.425 . S
C856 C863 1.409 . S
C857 H849 0.930 . S
C857 C855 1.419 . S
C857 C858 1.362 . S
C858 H850 0.930 . S
C858 C857 1.362 . S
C858 C861 1.409 . S
C859 H851 0.930 . S
C859 C860 1.355 . S
C859 C861 1.415 . S
C860 C859 1.355 . S
C860 C862 1.419 . S
C861 C856 1.425 . S
C861 C858 1.409 . S
C861 C859 1.415 . S
C862 H852 0.930 . S
C862 C860 1.419 . S
C862 C863 1.362 . S
C863 H853 0.930 . S
C863 C856 1.409 . S
C863 C862 1.362 . S
H864 C870 0.930 . S
H865 C873 0.930 . S
H866 C874 0.930 . S
H867 C875 0.930 . S
H868 C878 0.930 . S
H869 C879 0.930 . S
C870 H864 0.930 . S
C870 C871 1.355 . S
C870 C872 1.415 . S
C871 C870 1.355 . S
C871 C873 1.419 . S
C872 C870 1.415 . S
C872 C877 1.425 . S
C872 C879 1.409 . S
C873 H865 0.930 . S
C873 C871 1.419 . S
C873 C874 1.362 . S
C874 H866 0.930 . S
C874 C873 1.362 . S
C874 C877 1.409 . S
C875 H867 0.930 . S
C875 C876 1.355 . S
C875 C877 1.415 . S
C876 C875 1.355 . S
C876 C878 1.419 . S
C877 C872 1.425 . S
C877 C874 1.409 . S
C877 C875 1.415 . S
C878 H868 0.930 . S
C878 C876 1.419 . S
C878 C879 1.362 . S
C879 H869 0.930 . S
C879 C872 1.409 . S
C879 C878 1.362 . S
H880 C886 0.930 . S
H881 C889 0.930 . S
H882 C890 0.930 . S
H883 C891 0.930 . S
H884 C894 0.930 . S
H885 C895 0.930 . S
C886 H880 0.930 . S
C886 C887 1.355 . S
C886 C888 1.415 . S
C887 C886 1.355 . S
C887 C889 1.419 . S
C888 C886 1.415 . S
C888 C893 1.425 . S
C888 C895 1.409 . S
C889 H881 0.930 . S
C889 C887 1.419 . S
C889 C890 1.362 . S
C890 H882 0.930 . S
C890 C889 1.362 . S
C890 C893 1.409 . S
C891 H883 0.930 . S
C891 C892 1.355 . S
C891 C893 1.415 . S
C892 C891 1.355 . S
C892 C894 1.419 . S
C893 C888 1.425 . S
C893 C890 1.409 . S
C893 C891 1.415 . S
C894 H884 0.930 . S
C894 C892 1.419 . S
C894 C895 1.362 . S
C895 H885 0.930 . S
C895 C888 1.409 . S
C895 C894 1.362 . S
H896 C902 0.930 . S
H897 C905 0.930 . S
H898 C906 0.930 . S
H899 C907 0.930 . S
H900 C910 0.930 . S
H901 C911 0.930 . S
C902 H896 0.930 . S
C902 C903 1.355 . S
C902 C904 1.415 . S
C903 C902 1.355 . S
C903 C905 1.419 . S
C904 C902 1.415 . S
C904 C909 1.425 . S
C904 C911 1.409 1_455 S
C905 H897 0.930 . S
C905 C903 1.419 . S
C905 C906 1.362 . S
C906 H898 0.930 . S
C906 C905 1.362 . S
C906 C909 1.409 . S
C907 H899 0.930 . S
C907 C908 1.355 1_455 S
C907 C909 1.415 . S
C908 C907 1.355 1_655 S
C908 C910 1.419 . S
C909 C904 1.425 . S
C909 C906 1.409 . S
C909 C907 1.415 . S
C910 H900 0.930 . S
C910 C908 1.419 . S
C910 C911 1.362 . S
C911 H901 0.930 . S
C911 C904 1.409 1_655 S
C911 C910 1.362 . S
H912 C918 0.930 . S
H913 C921 0.930 . S
H914 C922 0.930 . S
H915 C923 0.930 . S
H916 C926 0.930 . S
H917 C927 0.930 . S
C918 H912 0.930 . S
C918 C919 1.355 . S
C918 C920 1.415 . S
C919 C918 1.355 . S
C919 C921 1.419 . S
C920 C918 1.415 . S
C920 C925 1.425 . S
C920 C927 1.409 . S
C921 H913 0.930 . S
C921 C919 1.419 . S
C921 C922 1.362 . S
C922 H914 0.930 . S
C922 C921 1.362 . S
C922 C925 1.409 . S
C923 H915 0.930 . S
C923 C924 1.355 . S
C923 C925 1.415 . S
C924 C923 1.355 . S
C924 C926 1.419 . S
C925 C920 1.425 . S
C925 C922 1.409 . S
C925 C923 1.415 . S
C926 H916 0.930 . S
C926 C924 1.419 . S
C926 C927 1.362 . S
C927 H917 0.930 . S
C927 C920 1.409 . S
C927 C926 1.362 . S
H928 C934 0.930 . S
H929 C937 0.930 . S
H930 C938 0.930 . S
H931 C939 0.930 . S
H932 C942 0.930 . S
H933 C943 0.930 . S
C934 H928 0.930 . S
C934 C935 1.355 . S
C934 C936 1.415 . S
C935 C934 1.355 . S
C935 C937 1.419 . S
C936 C934 1.415 . S
C936 C941 1.425 . S
C936 C943 1.409 . S
C937 H929 0.930 . S
C937 C935 1.419 . S
C937 C938 1.362 . S
C938 H930 0.930 . S
C938 C937 1.362 . S
C938 C941 1.409 . S
C939 H931 0.930 . S
C939 C940 1.355 . S
C939 C941 1.415 . S
C940 C939 1.355 . S
C940 C942 1.419 . S
C941 C936 1.425 . S
C941 C938 1.409 . S
C941 C939 1.415 . S
C942 H932 0.930 . S
C942 C940 1.419 . S
C942 C943 1.362 . S
C943 H933 0.930 . S
C943 C936 1.409 . S
C943 C942 1.362 . S
H944 C950 0.930 . S
H945 C953 0.930 . S
H946 C954 0.930 . S
H947 C955 0.930 . S
H948 C958 0.930 . S
H949 C959 0.930 . S
C950 H944 0.930 . S
C950 C951 1.355 . S
C950 C952 1.415 . S
C951 C950 1.355 . S
C951 C953 1.419 . S
C952 C950 1.415 . S
C952 C957 1.425 . S
C952 C959 1.409 . S
C953 H945 0.930 . S
C953 C951 1.419 . S
C953 C954 1.362 . S
C954 H946 0.930 . S
C954 C953 1.362 . S
C954 C957 1.409 . S
C955 H947 0.930 . S
C955 C956 1.355 . S
C955 C957 1.415 . S
C956 C955 1.355 . S
C956 C958 1.419 . S
C957 C952 1.425 . S
C957 C954 1.409 . S
C957 C955 1.415 . S
C958 H948 0.930 . S
C958 C956 1.419 . S
C958 C959 1.362 . S
C959 H949 0.930 . S
C959 C952 1.409 . S
C959 C958 1.362 . S
H960 C966 0.930 . S
H961 C969 0.930 . S
H962 C970 0.930 . S
H963 C971 0.930 . S
H964 C974 0.930 . S
H965 C975 0.930 . S
C966 H960 0.930 . S
C966 C967 1.355 . S
C966 C968 1.415 . S
C967 C966 1.355 . S
C967 C969 1.419 . S
C968 C966 1.415 . S
C968 C973 1.425 . S
C968 C975 1.409 . S
C969 H961 0.930 . S
C969 C967 1.419 . S
C969 C970 1.362 . S
C970 H962 0.930 . S
C970 C969 1.362 . S
C970 C973 1.409 . S
C971 H963 0.930 . S
C971 C972 1.355 . S
C971 C973 1.415 . S
C972 C971 1.355 . S
C972 C974 1.419 . S
C973 C968 1.425 . S
C973 C970 1.409 . S
C973 C971 1.415 . S
C974 H964 0.930 . S
C974 C972 1.419 . S
C974 C975 1.362 . S
C975 H965 0.930 . S
C975 C968 1.409 . S
C975 C974 1.362 . S
H976 C982 0.930 . S
H977 C985 0.930 . S
H978 C986 0.930 . S
H979 C987 0.930 . S
H980 C990 0.930 . S
H981 C991 0.930 . S
C982 H976 0.930 . S
C982 C983 1.355 . S
C982 C984 1.415 . S
C983 C982 1.355 . S
C983 C985 1.419 . S
C984 C982 1.415 . S
C984 C989 1.425 . S
C984 C991 1.409 . S
C985 H977 0.930 . S
C985 C983 1.419 . S
C985 C986 1.362 . S
C986 H978 0.930 . S
C986 C985 1.362 . S
C986 C989 1.409 . S
C987 H979 0.930 . S
C987 C988 1.355 . S
C987 C989 1.415 . S
C988 C987 1.355 . S
C988 C990 1.419 . S
C989 C984 1.425 . S
C989 C986 1.409 . S
C989 C987 1.415 . S
C990 H980 0.930 . S
C990 C988 1.419 . S
C990 C991 1.362 . S
C991 H981 0.930 . S
C991 C984 1.409 . S
C991 C990 1.362 . S
H992 C998 0.930 . S
H993 C1001 0.930 . S
H994 C1002 0.930 . S
H995 C1003 0.930 . S
H996 C1006 0.930 . S
H997 C1007 0.930 . S
C998 H992 0.930 . S
C998 C999 1.355 . S
C998 C1000 1.415 . S
C999 C998 1.355 . S
C999 C1001 1.419 . S
C1000 C998 1.415 . S
C1000 C1005 1.425 . S
C1000 C1007 1.409 . S
C1001 H993 0.930 . S
C1001 C999 1.419 . S
C1001 C1002 1.362 . S
C1002 H994 0.930 . S
C1002 C1001 1.362 . S
C1002 C1005 1.409 . S
C1003 H995 0.930 . S
C1003 C1004 1.355 . S
C1003 C1005 1.415 . S
C1004 C1003 1.355 . S
C1004 C1006 1.419 . S
C1005 C1000 1.425 . S
C1005 C1002 1.409 . S
C1005 C1003 1.415 . S
C1006 H996 0.930 . S
C1006 C1004 1.419 . S
C1006 C1007 1.362 . S
C1007 H997 0.930 . S
C1007 C1000 1.409 . S
C1007 C1006 1.362 . S
H1008 C1014 0.930 1_655 S
H1009 C1017 0.930 . S
H1010 C1018 0.930 . S
H1011 C1019 0.930 1_455 S
H1012 C1022 0.930 . S
H1013 C1023 0.930 . S
C1014 H1008 0.930 1_455 S
C1014 C1015 1.355 . S
C1014 C1016 1.415 1_455 S
C1015 C1014 1.355 . S
C1015 C1017 1.419 . S
C1016 C1014 1.415 1_655 S
C1016 C1021 1.425 1_654 S
C1016 C1023 1.409 . S
C1017 H1009 0.930 . S
C1017 C1015 1.419 . S
C1017 C1018 1.362 1_554 S
C1018 H1010 0.930 . S
C1018 C1017 1.362 1_556 S
C1018 C1021 1.409 . S
C1019 H1011 0.930 1_655 S
C1019 C1020 1.355 . S
C1019 C1021 1.415 1_655 S
C1020 C1019 1.355 . S
C1020 C1022 1.419 . S
C1021 C1016 1.425 1_456 S
C1021 C1018 1.409 . S
C1021 C1019 1.415 1_455 S
C1022 H1012 0.930 . S
C1022 C1020 1.419 . S
C1022 C1023 1.362 1_556 S
C1023 H1013 0.930 . S
C1023 C1016 1.409 . S
C1023 C1022 1.362 1_554 S
H1024 C1030 0.930 . S
H1025 C1033 0.930 . S
H1026 C1034 0.930 . S
H1027 C1035 0.930 . S
H1028 C1038 0.930 . S
H1029 C1039 0.930 . S
C1030 H1024 0.930 . S
C1030 C1031 1.355 . S
C1030 C1032 1.415 . S
C1031 C1030 1.355 . S
C1031 C1033 1.419 . S
C1032 C1030 1.415 . S
C1032 C1037 1.425 . S
C1032 C1039 1.409 . S
C1033 H1025 0.930 . S
C1033 C1031 1.419 . S
C1033 C1034 1.362 . S
C1034 H1026 0.930 . S
C1034 C1033 1.362 . S
C1034 C1037 1.409 . S
C1035 H1027 0.930 . S
C1035 C1036 1.355 . S
C1035 C1037 1.415 . S
C1036 C1035 1.355 . S
C1036 C1038 1.419 . S
C1037 C1032 1.425 . S
C1037 C1034 1.409 . S
C1037 C1035 1.415 . S
C1038 H1028 0.930 . S
C1038 C1036 1.419 . S
C1038 C1039 1.362 . S
C1039 H1029 0.930 . S
C1039 C1032 1.409 . S
C1039 C1038 1.362 . S
H1040 C1046 0.930 . S
H1041 C1049 0.930 . S
H1042 C1050 0.930 . S
H1043 C1051 0.930 . S
H1044 C1054 0.930 . S
H1045 C1055 0.930 . S
C1046 H1040 0.930 . S
C1046 C1047 1.355 . S
C1046 C1048 1.415 . S
C1047 C1046 1.355 . S
C1047 C1049 1.419 . S
C1048 C1046 1.415 . S
C1048 C1053 1.425 . S
C1048 C1055 1.409 . S
C1049 H1041 0.930 . S
C1049 C1047 1.419 . S
C1049 C1050 1.362 . S
C1050 H1042 0.930 . S
C1050 C1049 1.362 . S
C1050 C1053 1.409 . S
C1051 H1043 0.930 . S
C1051 C1052 1.355 . S
C1051 C1053 1.415 . S
C1052 C1051 1.355 . S
C1052 C1054 1.419 . S
C1053 C1048 1.425 . S
C1053 C1050 1.409 . S
C1053 C1051 1.415 . S
C1054 H1044 0.930 . S
C1054 C1052 1.419 . S
C1054 C1055 1.362 . S
C1055 H1045 0.930 . S
C1055 C1048 1.409 . S
C1055 C1054 1.362 . S
H1056 C1062 0.930 . S
H1057 C1065 0.930 . S
H1058 C1066 0.930 . S
H1059 C1067 0.930 . S
H1060 C1070 0.930 . S
H1061 C1071 0.930 . S
C1062 H1056 0.930 . S
C1062 C1063 1.354 1_565 S
C1062 C1064 1.415 . S
C1063 C1062 1.354 1_545 S
C1063 C1065 1.419 . S
C1064 C1062 1.415 . S
C1064 C1069 1.425 1_466 S
C1064 C1071 1.409 1_455 S
C1065 H1057 0.930 . S
C1065 C1063 1.419 . S
C1065 C1066 1.362 1_556 S
C1066 H1058 0.930 . S
C1066 C1065 1.362 1_554 S
C1066 C1069 1.409 1_455 S
C1067 H1059 0.930 . S
C1067 C1068 1.354 1_545 S
C1067 C1069 1.415 . S
C1068 C1067 1.354 1_565 S
C1068 C1070 1.419 . S
C1069 C1064 1.425 1_644 S
C1069 C1066 1.409 1_655 S
C1069 C1067 1.415 . S
C1070 H1060 0.930 . S
C1070 C1068 1.419 . S
C1070 C1071 1.362 1_554 S
C1071 H1061 0.930 . S
C1071 C1064 1.409 1_655 S
C1071 C1070 1.362 1_556 S
H1072 C1078 0.930 1_565 S
H1073 C1081 0.930 . S
H1074 C1082 0.930 . S
H1075 C1083 0.930 1_545 S
H1076 C1086 0.930 . S
H1077 C1087 0.930 . S
C1078 H1072 0.930 1_545 S
C1078 C1079 1.355 . S
C1078 C1080 1.415 1_545 S
C1079 C1078 1.355 . S
C1079 C1081 1.419 . S
C1080 C1078 1.415 1_565 S
C1080 C1085 1.425 1_565 S
C1080 C1087 1.409 . S
C1081 H1073 0.930 . S
C1081 C1079 1.419 . S
C1081 C1082 1.362 . S
C1082 H1074 0.930 . S
C1082 C1081 1.362 . S
C1082 C1085 1.409 . S
C1083 H1075 0.930 1_565 S
C1083 C1084 1.355 . S
C1083 C1085 1.415 1_565 S
C1084 C1083 1.355 . S
C1084 C1086 1.419 . S
C1085 C1080 1.425 1_545 S
C1085 C1082 1.409 . S
C1085 C1083 1.415 1_545 S
C1086 H1076 0.930 . S
C1086 C1084 1.419 . S
C1086 C1087 1.362 . S
C1087 H1077 0.930 . S
C1087 C1080 1.409 . S
C1087 C1086 1.362 . S
C327 C4 1.251 . S
C332 C204 1.183 . S
C343 C24 1.239 . S
C348 C224 1.195 . S
C359 C44 1.229 . S
C364 C164 1.211 . S
C375 C64 1.175 . S
C380 C184 1.259 . S
C391 C82 1.167 . S
C396 C282 1.268 . S
C407 C102 1.191 . S
C412 C302 1.248 . S
C423 C122 1.180 . S
C428 C242 1.258 . S
C439 C142 1.199 . S
C444 C262 1.241 . S
C455 C198 2.082 . S
C460 C2 2.016 1_556 S
C471 C218 2.077 . S
C476 C22 2.019 . S
C487 C238 2.059 . S
C492 C42 2.037 . S
C503 C178 2.082 . S
C508 C62 2.039 . S
C519 C84 2.031 1_554 S
C524 C279 2.064 . S
C535 C299 2.049 . S
C540 C104 2.068 . S
C551 C319 2.081 . S
C556 C124 2.016 . S
C567 C259 2.089 . S
C572 C144 2.016 . S
C583 C38 2.062 . S
C588 C162 2.062 . S
C599 C182 2.027 1_565 S
C604 C58 2.088 . S
C615 C202 2.063 1_556 S
C620 C78 2.061 . S
C631 C222 2.048 1_545 S
C636 C18 2.052 . S
C647 C244 2.068 . S
C652 C119 2.052 . S
C663 C139 2.063 . S
C668 C264 2.033 1_545 S
C679 C159 2.067 . S
C684 C284 2.028 1_554 S
C695 C304 2.050 1_565 S
C700 C99 2.051 . S
C711 C12 1.119 . S
C716 C318 1.157 . S
C727 C32 1.147 . S
C732 C98 1.123 . S
C743 C278 1.125 . S
C748 C52 1.129 . S
C759 C138 1.142 . S
C764 C72 1.090 . S
C775 C89 1.151 . S
C780 C239 1.143 . S
C791 C109 1.136 . S
C796 C19 1.151 . S
C807 C199 1.161 . S
C812 C129 1.089 . S
C823 C59 1.148 . S
C828 C149 1.143 . S
C839 C172 1.145 . S
C844 C158 1.123 . S
C855 C192 1.160 . S
C860 C258 1.127 . S
C871 C118 1.149 . S
C876 C212 1.082 . S
C887 C298 1.150 . S
C892 C232 1.139 . S
C903 C249 1.159 . S
C908 C79 1.126 . S
C919 C269 1.161 . S
C924 C179 1.129 . S
C935 C289 1.080 . S
C940 C39 1.151 . S
C951 C219 1.154 . S
C956 C309 1.079 . S
C967 C9 1.634 . S
C972 C252 1.634 . S
C983 C29 1.638 . S
C988 C112 1.638 . S
C999 C49 1.643 . S
C1004 C292 1.643 . S
C1015 C152 1.636 . S
C1020 C69 1.636 . S
C1031 C92 1.645 . S
C1036 C169 1.645 . S
C1047 C209 1.630 . S
C1052 C132 1.630 . S
C1063 C189 1.643 . S
C1068 C272 1.643 . S
C1079 C312 1.645 . S
C1084 C229 1.645 . S
