# Generated by pormake.
# Topology wgw, (6)-cn, num edge types: 1
# Building blocks:
#     Node 0, Type 0, BuildingBlock: IZENUY_clean_sbu_0, # of connection points: 6
#     Node 1, Type 0, BuildingBlock: IZENUY_clean_sbu_0, # of connection points: 6
#     Node 2, Type 0, BuildingBlock: IZENUY_clean_sbu_0, # of connection points: 6
#     Node 3, Type 0, BuildingBlock: IZENUY_clean_sbu_0, # of connection points: 6
#     Node 4, Type 0, BuildingBlock: IZENUY_clean_sbu_0, # of connection points: 6
#     Node 5, Type 0, BuildingBlock: IZENUY_clean_sbu_0, # of connection points: 6
#     Node 6, Type 0, BuildingBlock: IZENUY_clean_sbu_0, # of connection points: 6
#     Node 7, Type 0, BuildingBlock: IZENUY_clean_sbu_0, # of connection points: 6
#     Edge 8, Type (0, 0), BuildingBlock: ZUJKAS_clean_linker_0, # of connection points: 2
#     Edge 9, Type (0, 0), BuildingBlock: ZUJKAS_clean_linker_0, # of connection points: 2
#     Edge 10, Type (0, 0), BuildingBlock: ZUJKAS_clean_linker_0, # of connection points: 2
#     Edge 11, Type (0, 0), BuildingBlock: ZUJKAS_clean_linker_0, # of connection points: 2
#     Edge 12, Type (0, 0), BuildingBlock: ZUJKAS_clean_linker_0, # of connection points: 2
#     Edge 13, Type (0, 0), BuildingBlock: ZUJKAS_clean_linker_0, # of connection points: 2
#     Edge 14, Type (0, 0), BuildingBlock: ZUJKAS_clean_linker_0, # of connection points: 2
#     Edge 15, Type (0, 0), BuildingBlock: ZUJKAS_clean_linker_0, # of connection points: 2
#     Edge 16, Type (0, 0), BuildingBlock: ZUJKAS_clean_linker_0, # of connection points: 2
#     Edge 17, Type (0, 0), BuildingBlock: ZUJKAS_clean_linker_0, # of connection points: 2
#     Edge 18, Type (0, 0), BuildingBlock: ZUJKAS_clean_linker_0, # of connection points: 2
#     Edge 19, Type (0, 0), BuildingBlock: ZUJKAS_clean_linker_0, # of connection points: 2
#     Edge 20, Type (0, 0), BuildingBlock: ZUJKAS_clean_linker_0, # of connection points: 2
#     Edge 21, Type (0, 0), BuildingBlock: ZUJKAS_clean_linker_0, # of connection points: 2
#     Edge 22, Type (0, 0), BuildingBlock: ZUJKAS_clean_linker_0, # of connection points: 2
#     Edge 23, Type (0, 0), BuildingBlock: ZUJKAS_clean_linker_0, # of connection points: 2
#     Edge 24, Type (0, 0), BuildingBlock: ZUJKAS_clean_linker_0, # of connection points: 2
#     Edge 25, Type (0, 0), BuildingBlock: ZUJKAS_clean_linker_0, # of connection points: 2
#     Edge 26, Type (0, 0), BuildingBlock: ZUJKAS_clean_linker_0, # of connection points: 2
#     Edge 27, Type (0, 0), BuildingBlock: ZUJKAS_clean_linker_0, # of connection points: 2
#     Edge 28, Type (0, 0), BuildingBlock: ZUJKAS_clean_linker_0, # of connection points: 2
#     Edge 29, Type (0, 0), BuildingBlock: ZUJKAS_clean_linker_0, # of connection points: 2
#     Edge 30, Type (0, 0), BuildingBlock: ZUJKAS_clean_linker_0, # of connection points: 2
#     Edge 31, Type (0, 0), BuildingBlock: ZUJKAS_clean_linker_0, # of connection points: 2
# Relax obj value: 0.276
# Max RMSD: 0.289
# Mean RMSD: 0.289
data_MOF--net-wgw--node1-IZENUY_clean_sbu_0--edge1-ZUJKAS_clean_linker_0
_symmetry_space_group_name_H-M    P1
_symmetry_Int_Tables_number       1
_symmetry_cell_setting            triclinic
loop_
_symmetry_equiv_pos_as_xyz
'x, y, z'
_cell_length_a     35.216645
_cell_length_b     35.373183
_cell_length_c     55.426861
_cell_angle_alpha  89.949679
_cell_angle_beta   89.995447
_cell_angle_gamma 90.078082
loop_
_atom_site_label
_atom_site_type_symbol
_atom_site_fract_x
_atom_site_fract_y
_atom_site_fract_z
_atom_type_partial_charge
Fe0 Fe 0.02702 0.40144 0.16284 0.0
Fe1 Fe 0.08705 0.4647 0.16426 0.0
O2 O 0.05154 0.43738 0.17879 0.0
Fe3 Fe 0.03979 0.44549 0.20941 0.0
O4 O 0.05317 0.39767 0.21784 0.0
O5 O 0.01859 0.37165 0.18949 0.0
O6 O 0.0707 0.37557 0.15853 0.0
C7 C 0.10126 0.38879 0.14999 0.0
C8 C 0.96879 0.43413 0.18732 0.0
O9 O 0.10572 0.4242 0.14687 0.0
C10 C 0.04493 0.51803 0.19214 0.0
O11 O 0.03113 0.42334 0.13301 0.0
O12 O 0.05518 0.47921 0.14019 0.0
O13 O 0.9898 0.43226 0.20581 0.0
O14 O 0.98193 0.42623 0.16669 0.0
C15 C 0.11943 0.4579 0.20911 0.0
O16 O 0.07399 0.5092 0.17972 0.0
O17 O 0.02554 0.49319 0.20286 0.0
C18 C 0.03735 0.457 0.12654 0.0
O19 O 0.12248 0.45298 0.18672 0.0
O20 O 0.08716 0.46109 0.2188 0.0
C21 C 0.03661 0.36907 0.2092 0.0
Fe22 Fe 0.03623 0.09386 0.67038 0.0
Fe23 Fe 0.05151 0.04639 0.71588 0.0
O24 O 0.06251 0.0585 0.68569 0.0
Fe25 Fe 0.10006 0.03458 0.67084 0.0
O26 O 0.12607 0.07827 0.66739 0.0
O27 O 0.07797 0.11211 0.65376 0.0
O28 O 0.04705 0.12894 0.69299 0.0
C29 C 0.04084 0.12586 0.71524 0.0
C30 C 0.04627 0.04403 0.63329 0.0
O31 O 0.03592 0.09381 0.72487 0.0
C32 C 0.064 0.97635 0.6935 0.0
O33 O 0.99036 0.08166 0.68484 0.0
O34 O 0.00412 0.03252 0.70764 0.0
O35 O 0.07994 0.03862 0.6404 0.0
O36 O 0.02306 0.0618 0.64628 0.0
C37 C 0.12832 0.0436 0.71841 0.0
O38 O 0.06449 0.99657 0.71234 0.0
O39 O 0.07534 0.9896 0.6736 0.0
C40 C 0.98019 0.05251 0.69663 0.0
O41 O 0.09862 0.05927 0.72613 0.0
O42 O 0.12798 0.02617 0.69842 0.0
C43 C 0.11331 0.10813 0.65787 0.0
Fe44 Fe 0.45063 0.04083 0.21758 0.0
Fe45 Fe 0.46627 0.09206 0.17395 0.0
O46 O 0.43969 0.05548 0.18785 0.0
Fe47 Fe 0.40214 0.03294 0.17222 0.0
O48 O 0.3738 0.02384 0.19956 0.0
O49 O 0.40392 0.05424 0.22835 0.0
O50 O 0.46811 0.08693 0.22788 0.0
C51 C 0.46267 0.11991 0.21986 0.0
C52 C 0.43451 0.97218 0.19414 0.0
O53 O 0.45529 0.12513 0.19789 0.0
C54 C 0.45651 0.04512 0.13511 0.0
O55 O 0.49754 0.0263 0.20835 0.0
O56 O 0.51173 0.07821 0.18817 0.0
O57 O 0.42588 0.98713 0.17418 0.0
O58 O 0.43569 0.9918 0.21315 0.0
C59 C 0.38965 0.10747 0.16087 0.0
O60 O 0.47953 0.06217 0.1487 0.0
O61 O 0.42295 0.03844 0.14205 0.0
C62 C 0.52153 0.04731 0.19807 0.0
O63 O 0.42513 0.112 0.15767 0.0
O64 O 0.37661 0.07703 0.16946 0.0
C65 C 0.37383 0.03971 0.22011 0.0
Fe66 Fe 0.41564 0.46703 0.66762 0.0
Fe67 Fe 0.47586 0.40388 0.66589 0.0
O68 O 0.45238 0.44062 0.6816 0.0
Fe69 Fe 0.46626 0.45093 0.7116 0.0
O70 O 0.41969 0.46797 0.72165 0.0
O71 O 0.38197 0.45551 0.69134 0.0
O72 O 0.39609 0.42617 0.6511 0.0
C73 C 0.40106 0.39088 0.65402 0.0
C74 C 0.4603 0.52173 0.69229 0.0
O75 O 0.43186 0.37808 0.66234 0.0
C76 C 0.53603 0.43609 0.6889 0.0
O77 O 0.44571 0.48084 0.64246 0.0
O78 O 0.47128 0.42528 0.63586 0.0
O79 O 0.48091 0.49774 0.70282 0.0
O80 O 0.42938 0.51216 0.68212 0.0
C81 C 0.46757 0.37446 0.71339 0.0
O82 O 0.52169 0.42794 0.66867 0.0
O83 O 0.5157 0.43642 0.70766 0.0
C84 C 0.46378 0.45853 0.62898 0.0
O85 O 0.48419 0.37504 0.69305 0.0
O86 O 0.45272 0.40411 0.72184 0.0
C87 C 0.38673 0.46242 0.7134 0.0
Fe88 Fe 0.59595 0.53153 0.34153 0.0
Fe89 Fe 0.54796 0.54263 0.29622 0.0
O90 O 0.55853 0.55522 0.32638 0.0
Fe91 Fe 0.53189 0.59097 0.34107 0.0
O92 O 0.57304 0.60993 0.35777 0.0
O93 O 0.62155 0.57542 0.34552 0.0
O94 O 0.62462 0.52418 0.3141 0.0
C95 C 0.62483 0.54158 0.29406 0.0
C96 C 0.54142 0.54164 0.37886 0.0
O97 O 0.59485 0.55655 0.28608 0.0
C98 C 0.4766 0.54801 0.31522 0.0
O99 O 0.5721 0.4859 0.33834 0.0
O100 O 0.56233 0.49337 0.29961 0.0
O101 O 0.51857 0.55974 0.36571 0.0
O102 O 0.57487 0.53497 0.37174 0.0
C103 C 0.53643 0.62171 0.29573 0.0
O104 O 0.50087 0.52783 0.30462 0.0
O105 O 0.48639 0.57779 0.32651 0.0
C106 C 0.56219 0.47258 0.31815 0.0
O107 O 0.53102 0.58928 0.28693 0.0
O108 O 0.54294 0.62565 0.31792 0.0
C109 C 0.60851 0.60546 0.3546 0.0
Fe110 Fe 0.97686 0.60164 0.83902 0.0
Fe111 Fe 0.96523 0.55118 0.79501 0.0
O112 O 0.95197 0.56447 0.8246 0.0
Fe113 Fe 0.91442 0.54051 0.83948 0.0
O114 O 0.89681 0.58311 0.85498 0.0
O115 O 0.93381 0.62919 0.84194 0.0
O116 O 0.98592 0.62788 0.81091 0.0
C117 C 0.96909 0.62732 0.79065 0.0
C118 C 0.96351 0.55011 0.8775 0.0
O119 O 0.95318 0.59749 0.78325 0.0
C120 C 0.95658 0.48242 0.81664 0.0
O121 O 0.02188 0.57606 0.83688 0.0
O122 O 0.01521 0.56436 0.79828 0.0
O123 O 0.94452 0.52744 0.86475 0.0
O124 O 0.97178 0.58271 0.86969 0.0
C125 C 0.88531 0.54272 0.79375 0.0
O126 O 0.97828 0.50465 0.80539 0.0
O127 O 0.92597 0.49396 0.82625 0.0
C128 C 0.03581 0.56599 0.81689 0.0
O129 O 0.91796 0.53497 0.78574 0.0
O130 O 0.88092 0.55158 0.81557 0.0
C131 C 0.90291 0.61799 0.85106 0.0
Fe132 Fe 0.95794 0.94639 0.3034 0.0
Fe133 Fe 0.96986 0.89993 0.34922 0.0
O134 O 0.94586 0.93671 0.3338 0.0
Fe135 Fe 0.9105 0.96366 0.3487 0.0
O136 O 0.87516 0.95233 0.32625 0.0
O137 O 0.91043 0.96253 0.29429 0.0
O138 O 0.9443 0.89928 0.29386 0.0
C139 C 0.95981 0.86989 0.30216 0.0
C140 C 0.95317 0.01781 0.32216 0.0
O141 O 0.97737 0.87089 0.32213 0.0
C142 C 0.96075 0.95497 0.38593 0.0
O143 O 0.00781 0.93258 0.3067 0.0
O144 O 0.01537 0.92396 0.34565 0.0
O145 O 0.92326 0.00858 0.33357 0.0
O146 O 0.97274 0.99356 0.31116 0.0
C147 C 0.8958 0.88763 0.36248 0.0
O148 O 0.96649 0.9213 0.37928 0.0
O149 O 0.94266 0.97751 0.37266 0.0
C150 C 0.02881 0.93254 0.32523 0.0
O151 O 0.9259 0.87446 0.35341 0.0
O152 O 0.89182 0.92296 0.36595 0.0
C153 C 0.87818 0.9582 0.30396 0.0
Fe154 Fe 0.5919 0.96802 0.849 0.0
Fe155 Fe 0.53082 0.90563 0.85018 0.0
O156 O 0.5559 0.94146 0.83442 0.0
Fe157 Fe 0.54417 0.95032 0.80386 0.0
O158 O 0.59159 0.96585 0.79451 0.0
O159 O 0.62703 0.95631 0.82633 0.0
O160 O 0.61025 0.92696 0.86602 0.0
C161 C 0.60484 0.89166 0.86308 0.0
C162 C 0.55 0.02235 0.82174 0.0
O163 O 0.57401 0.87906 0.85459 0.0
C164 C 0.47299 0.9391 0.82573 0.0
O165 O 0.56046 0.98249 0.87329 0.0
O166 O 0.53504 0.92708 0.88011 0.0
O167 O 0.5303 0.99799 0.81082 0.0
O168 O 0.57916 0.01296 0.83391 0.0
C169 C 0.54059 0.87392 0.80369 0.0
O170 O 0.48601 0.93098 0.84635 0.0
O171 O 0.49412 0.93735 0.8073 0.0
C172 C 0.54218 0.96043 0.88681 0.0
O173 O 0.52235 0.87632 0.82335 0.0
O174 O 0.55721 0.90259 0.79514 0.0
C175 C 0.62389 0.96196 0.80403 0.0
H176 H 0.44736 0.48175 0.2987 0.0
H177 H 0.38228 0.4687 0.28651 0.0
H178 H 0.34825 0.57947 0.31063 0.0
H179 H 0.41401 0.59322 0.3226 0.0
H180 H 0.31262 0.46849 0.31043 0.0
H181 H 0.31917 0.57873 0.23877 0.0
H182 H 0.36086 0.56281 0.25471 0.0
H183 H 0.32813 0.59453 0.26906 0.0
C184 C 0.42607 0.50335 0.30164 0.0
C185 C 0.43602 0.53881 0.31128 0.0
C186 C 0.38879 0.49572 0.29474 0.0
C187 C 0.36058 0.52332 0.29727 0.0
C188 C 0.36981 0.55802 0.30814 0.0
H189 H 0.12389 0.47527 0.25722 0.0
H190 H 0.18073 0.49146 0.28038 0.0
C191 C 0.4073 0.56574 0.31512 0.0
C192 C 0.3224 0.51606 0.28698 0.0
H193 H 0.26371 0.54194 0.24081 0.0
C194 C 0.30163 0.48479 0.2954 0.0
C195 C 0.30851 0.53707 0.26713 0.0
C196 C 0.33033 0.57 0.25668 0.0
C197 C 0.26767 0.47352 0.28419 0.0
C198 C 0.25399 0.49436 0.26423 0.0
C199 C 0.27432 0.52609 0.25615 0.0
C200 C 0.21961 0.4828 0.25068 0.0
C201 C 0.24753 0.43854 0.29314 0.0
C202 C 0.22262 0.47268 0.22629 0.0
C203 C 0.19023 0.4635 0.21296 0.0
C204 C 0.15407 0.46452 0.22374 0.0
C205 C 0.15126 0.47405 0.24834 0.0
C206 C 0.18373 0.48322 0.26166 0.0
H207 H 0.26577 0.42142 0.3053 0.0
H208 H 0.22179 0.44699 0.30332 0.0
H209 H 0.23837 0.42057 0.27777 0.0
H210 H 0.25009 0.47219 0.21749 0.0
H211 H 0.1935 0.45627 0.19408 0.0
H212 H 0.90793 0.42515 0.80548 0.0
H213 H 0.92531 0.36013 0.79526 0.0
H214 H 0.04163 0.38346 0.81505 0.0
H215 H 0.02461 0.44906 0.82367 0.0
H216 H 0.04133 0.35474 0.77363 0.0
H217 H 0.94774 0.26453 0.82893 0.0
H218 H 0.91986 0.29746 0.81198 0.0
H219 H 0.95266 0.31455 0.83448 0.0
C220 C 0.93695 0.41595 0.80822 0.0
C221 C 0.96501 0.44183 0.8153 0.0
C222 C 0.94688 0.37872 0.80254 0.0
C223 C 0.98477 0.36657 0.80465 0.0
C224 C 0.01225 0.39206 0.81324 0.0
H225 H 0.04227 0.13293 0.76445 0.0
H226 H 0.03232 0.1906 0.78813 0.0
C227 C 1.00255 0.42945 0.81822 0.0
C228 C 0.99672 0.32931 0.7949 0.0
H229 H 0.97285 0.2358 0.79251 0.0
C230 C 0.02671 0.32867 0.77817 0.0
C231 C 0.97824 0.29502 0.80096 0.0
C232 C 0.94815 0.29288 0.82028 0.0
C233 C 0.03768 0.2952 0.76667 0.0
C234 C 0.01704 0.2616 0.77118 0.0
C235 C 0.98822 0.26173 0.7887 0.0
C236 C 0.02376 0.22668 0.75703 0.0
C237 C 0.07136 0.29635 0.74982 0.0
C238 C 0.02182 0.22773 0.73175 0.0
C239 C 0.02813 0.19512 0.71824 0.0
C240 C 0.03552 0.16049 0.72974 0.0
C241 C 0.03671 0.15924 0.75509 0.0
C242 C 0.03098 0.19211 0.76863 0.0
H243 H 0.0916 0.31906 0.75503 0.0
H244 H 0.08681 0.26901 0.74963 0.0
H245 H 0.06138 0.30261 0.73125 0.0
H246 H 0.01505 0.25376 0.72241 0.0
H247 H 0.02643 0.19696 0.69875 0.0
H248 H 0.30563 0.00807 0.2086 0.0
H249 H 0.2534 0.99262 0.23573 0.0
H250 H 0.31385 0.04319 0.29514 0.0
H251 H 0.36674 0.05893 0.26804 0.0
H252 H 0.26616 0.94582 0.28072 0.0
H253 H 0.20051 0.08723 0.29603 0.0
H254 H 0.22791 0.07754 0.26918 0.0
H255 H 0.25138 0.08196 0.29772 0.0
C256 C 0.30782 0.01635 0.22736 0.0
C257 C 0.34056 0.03452 0.23615 0.0
C258 C 0.27792 0.00744 0.24284 0.0
C259 C 0.2799 0.0167 0.26737 0.0
C260 C 0.31182 0.036 0.27619 0.0
H261 H 0.07937 0.96244 0.35787 0.0
H262 H 0.14549 0.98171 0.34975 0.0
C263 C 0.34195 0.04493 0.26067 0.0
C264 C 0.24909 0.00407 0.28361 0.0
H265 H 0.1669 0.03398 0.30997 0.0
C266 C 0.24485 0.96513 0.2876 0.0
C267 C 0.22165 0.0294 0.29272 0.0
C268 C 0.22524 0.07144 0.28877 0.0
C269 C 0.2126 0.95064 0.2992 0.0
C270 C 0.18371 0.97572 0.30665 0.0
C271 C 0.1892 0.01487 0.30425 0.0
C272 C 0.14538 0.96166 0.31288 0.0
C273 C 0.20881 0.90845 0.30236 0.0
C274 C 0.12377 0.94406 0.29488 0.0
C275 C 0.08637 0.93346 0.29935 0.0
C276 C 0.06973 0.94007 0.322 0.0
C277 C 0.09168 0.95668 0.34035 0.0
C278 C 0.12925 0.96783 0.33572 0.0
H279 H 0.23705 0.8945 0.30282 0.0
H280 H 0.19322 0.90146 0.31921 0.0
H281 H 0.19269 0.89663 0.2869 0.0
H282 H 0.13552 0.93955 0.27704 0.0
H283 H 0.0702 0.92069 0.28485 0.0
H284 H 0.45692 0.36889 0.7624 0.0
H285 H 0.47188 0.31461 0.78824 0.0
H286 H 0.50279 0.24969 0.72543 0.0
H287 H 0.48873 0.30374 0.69962 0.0
H288 H 0.44489 0.24233 0.79046 0.0
H289 H 0.59723 0.24048 0.76677 0.0
H290 H 0.56663 0.27971 0.75936 0.0
H291 H 0.56801 0.23849 0.74032 0.0
C292 C 0.46667 0.34295 0.75409 0.0
C293 C 0.47213 0.34076 0.72897 0.0
C294 C 0.47532 0.31204 0.76889 0.0
C295 C 0.48951 0.27852 0.75881 0.0
C296 C 0.49308 0.2757 0.73366 0.0
H297 H 0.48828 0.05047 0.79829 0.0
H298 H 0.47445 0.11578 0.78845 0.0
C299 C 0.48474 0.30655 0.71891 0.0
C300 C 0.5004 0.24613 0.77431 0.0
H301 H 0.57187 0.1827 0.78346 0.0
C302 C 0.47284 0.22962 0.78927 0.0
C303 C 0.53722 0.23019 0.77335 0.0
C304 C 0.56907 0.24842 0.75929 0.0
C305 C 0.48031 0.19601 0.80189 0.0
C306 C 0.51594 0.17806 0.79899 0.0
C307 C 0.54435 0.1961 0.78545 0.0
C308 C 0.52296 0.13885 0.80741 0.0
C309 C 0.44965 0.17977 0.81786 0.0
C310 C 0.55538 0.12975 0.82102 0.0
C311 C 0.56388 0.09196 0.82641 0.0
C312 C 0.5402 0.0627 0.81807 0.0
C313 C 0.50729 0.07216 0.80498 0.0
C314 C 0.49898 0.10969 0.79957 0.0
H315 H 0.43158 0.20254 0.8255 0.0
H316 H 0.43102 0.1611 0.80695 0.0
H317 H 0.46179 0.163 0.83294 0.0
H318 H 0.57449 0.15182 0.82706 0.0
H319 H 0.58941 0.08565 0.83652 0.0
H320 H 0.63052 0.55914 0.24586 0.0
H321 H 0.68508 0.54826 0.21925 0.0
H322 H 0.74963 0.50623 0.27964 0.0
H323 H 0.69555 0.51693 0.30633 0.0
H324 H 0.78843 0.56054 0.247 0.0
H325 H 0.72091 0.43794 0.20037 0.0
H326 H 0.69476 0.48151 0.20283 0.0
H327 H 0.70445 0.45428 0.2294 0.0
C328 C 0.65645 0.54791 0.25353 0.0
C329 C 0.65858 0.53859 0.27821 0.0
C330 C 0.68748 0.54157 0.23826 0.0
C331 C 0.72112 0.52606 0.24747 0.0
C332 C 0.7238 0.5181 0.2722 0.0
H333 H 0.92803 0.42596 0.22834 0.0
H334 H 0.8655 0.45147 0.23727 0.0
C335 C 0.69283 0.52417 0.28741 0.0
C336 C 0.75352 0.51683 0.23154 0.0
H337 H 0.78571 0.44878 0.19292 0.0
C338 C 0.78763 0.53669 0.23471 0.0
C339 C 0.75229 0.48572 0.21552 0.0
C340 C 0.71628 0.46336 0.21175 0.0
C341 C 0.8211 0.52499 0.22326 0.0
C342 C 0.82042 0.49239 0.20854 0.0
C343 C 0.7859 0.47389 0.20413 0.0
C344 C 0.85618 0.47371 0.20144 0.0
C345 C 0.85753 0.54618 0.22804 0.0
C346 C 0.87096 0.47665 0.17798 0.0
C347 C 0.90701 0.46185 0.1727 0.0
C348 C 0.92846 0.44418 0.1909 0.0
C349 C 0.91243 0.43973 0.21397 0.0
C350 C 0.87669 0.45427 0.21914 0.0
H351 H 0.85207 0.57504 0.23513 0.0
H352 H 0.87448 0.53049 0.24163 0.0
H353 H 0.87479 0.54843 0.21132 0.0
H354 H 0.85531 0.49155 0.1641 0.0
H355 H 0.91879 0.46583 0.15482 0.0
H356 H 0.07248 0.91819 0.66083 0.0
H357 H 0.05023 0.85256 0.66547 0.0
H358 H 0.00342 0.88038 0.73512 0.0
H359 H 0.02524 0.94516 0.73076 0.0
H360 H 0.07123 0.80287 0.70368 0.0
H361 H 0.91589 0.82385 0.70176 0.0
H362 H 0.94889 0.85804 0.68949 0.0
H363 H 0.93878 0.85721 0.72133 0.0
C364 C 0.05725 0.91024 0.67704 0.0
C365 C 0.05092 0.93675 0.69551 0.0
C366 C 0.04446 0.87289 0.67961 0.0
C367 C 0.02453 0.86193 0.70042 0.0
C368 C 0.01796 0.88848 0.71868 0.0
H369 H 0.00995 0.69144 0.79872 0.0
H370 H 0.02198 0.74325 0.77087 0.0
C371 C 0.03094 0.92543 0.71626 0.0
C372 C 0.01328 0.8222 0.70462 0.0
H373 H 0.93846 0.77023 0.72549 0.0
C374 C 0.04206 0.79529 0.70772 0.0
C375 C 0.97516 0.81221 0.70958 0.0
C376 C 0.94287 0.83929 0.70511 0.0
C377 C 0.03414 0.7599 0.71796 0.0
C378 C 0.99665 0.75157 0.7254 0.0
C379 C 0.96729 0.77695 0.72006 0.0
C380 C 0.98859 0.71963 0.7418 0.0
C381 C 0.0663 0.7325 0.72202 0.0
C382 C 0.96473 0.68976 0.73488 0.0
C383 C 0.95768 0.65984 0.75086 0.0
C384 C 0.97409 0.65972 0.77403 0.0
C385 C 0.99701 0.6904 0.781 0.0
C386 C 0.00418 0.71997 0.76505 0.0
H387 H 0.08992 0.73755 0.70912 0.0
H388 H 0.07759 0.73634 0.74055 0.0
H389 H 0.05645 0.7028 0.72017 0.0
H390 H 0.95205 0.68938 0.71708 0.0
H391 H 0.93975 0.63672 0.74498 0.0
H392 H 0.58005 0.09486 0.20902 0.0
H393 H 0.64428 0.07671 0.2212 0.0
H394 H 0.61826 0.95996 0.20544 0.0
H395 H 0.55337 0.9779 0.19482 0.0
H396 H 0.64696 0.96279 0.24682 0.0
H397 H 0.74014 0.04962 0.18906 0.0
H398 H 0.70756 0.07926 0.20505 0.0
H399 H 0.68987 0.04542 0.18345 0.0
C400 C 0.58847 0.06549 0.20763 0.0
C401 C 0.56195 0.03774 0.20099 0.0
C402 C 0.62528 0.0551 0.21445 0.0
C403 C 0.63653 0.01694 0.21396 0.0
C404 C 0.61042 0.98955 0.20602 0.0
H405 H 0.8701 0.95561 0.25476 0.0
H406 H 0.81202 0.96641 0.23133 0.0
C407 C 0.5734 0.9998 0.19987 0.0
C408 C 0.67364 0.00497 0.22433 0.0
H409 H 0.76831 0.02602 0.22596 0.0
C410 C 0.67353 0.97628 0.24189 0.0
C411 C 0.70862 0.02194 0.21777 0.0
C412 C 0.7116 0.05044 0.1976 0.0
C413 C 0.70693 0.96505 0.25361 0.0
C414 C 0.74132 0.98418 0.24848 0.0
C415 C 0.74185 0.01179 0.23025 0.0
C416 C 0.77654 0.97695 0.26252 0.0
C417 C 0.70485 0.93256 0.27126 0.0
C418 C 0.77609 0.97971 0.28778 0.0
C419 C 0.80891 0.97285 0.30116 0.0
C420 C 0.84329 0.9641 0.28956 0.0
C421 C 0.84402 0.96218 0.26422 0.0
C422 C 0.81088 0.96842 0.25082 0.0
H423 H 0.68135 0.91288 0.2666 0.0
H424 H 0.73179 0.9163 0.27173 0.0
H425 H 0.69908 0.94374 0.28959 0.0
H426 H 0.75036 0.98754 0.29722 0.0
H427 H 0.80748 0.97519 0.32063 0.0
H428 H 0.53111 0.55134 0.69435 0.0
H429 H 0.54893 0.61516 0.70689 0.0
H430 H 0.43063 0.64603 0.71081 0.0
H431 H 0.41261 0.5823 0.69742 0.0
H432 H 0.47758 0.70537 0.69475 0.0
H433 H 0.53378 0.63857 0.77814 0.0
H434 H 0.5553 0.62154 0.7509 0.0
H435 H 0.5057 0.61289 0.75644 0.0
C436 C 0.50892 0.57201 0.6974 0.0
C437 C 0.47047 0.56187 0.69528 0.0
C438 C 0.51914 0.60836 0.70462 0.0
C439 C 0.49107 0.63492 0.71041 0.0
C440 C 0.4527 0.62579 0.70657 0.0
H441 H 0.50051 0.81055 0.81509 0.0
H442 H 0.4905 0.75453 0.79054 0.0
C443 C 0.44243 0.58947 0.69892 0.0
C444 C 0.5016 0.67058 0.72271 0.0
H445 H 0.54243 0.70431 0.77422 0.0
C446 C 0.49188 0.70527 0.71208 0.0
C447 C 0.51982 0.67021 0.74548 0.0
C448 C 0.52896 0.63385 0.75856 0.0
C449 C 0.49978 0.7397 0.72372 0.0
C450 C 0.51843 0.73925 0.74634 0.0
C451 C 0.52848 0.70455 0.75677 0.0
C452 C 0.52488 0.77401 0.76065 0.0
C453 C 0.48691 0.77612 0.71216 0.0
C454 C 0.54803 0.8035 0.75212 0.0
C455 C 0.55375 0.83593 0.76616 0.0
C456 C 0.53661 0.83918 0.78901 0.0
C457 C 0.51412 0.80916 0.79758 0.0
C458 C 0.5083 0.77703 0.78356 0.0
H459 H 0.46605 0.7711 0.69747 0.0
H460 H 0.47386 0.79514 0.72576 0.0
H461 H 0.51184 0.79087 0.70431 0.0
H462 H 0.56178 0.80135 0.7347 0.0
H463 H 0.5714 0.85846 0.75908 0.0
H464 H 0.88452 0.51994 0.74662 0.0
H465 H 0.82941 0.50513 0.7216 0.0
H466 H 0.75494 0.53568 0.78015 0.0
H467 H 0.80991 0.55099 0.80531 0.0
H468 H 0.77603 0.45048 0.73136 0.0
H469 H 0.70705 0.59047 0.72279 0.0
H470 H 0.7556 0.585 0.73273 0.0
H471 H 0.71701 0.57776 0.75351 0.0
C472 C 0.85643 0.52399 0.75414 0.0
C473 C 0.8517 0.53657 0.77805 0.0
C474 C 0.82495 0.5155 0.73976 0.0
C475 C 0.78805 0.51969 0.74888 0.0
C476 C 0.78314 0.53296 0.77256 0.0
H477 H 0.57945 0.41233 0.72598 0.0
H478 H 0.64422 0.43145 0.73557 0.0
C479 C 0.81464 0.54146 0.78698 0.0
C480 C 0.75485 0.50741 0.73433 0.0
H481 H 0.6684 0.53636 0.71343 0.0
C482 C 0.75278 0.46942 0.72709 0.0
C483 C 0.72475 0.53222 0.72844 0.0
C484 C 0.72629 0.57373 0.73455 0.0
C485 C 0.72049 0.45512 0.71537 0.0
C486 C 0.68939 0.47935 0.71092 0.0
C487 C 0.69228 0.51779 0.71691 0.0
C488 C 0.65206 0.46442 0.70306 0.0
C489 C 0.71947 0.41391 0.70841 0.0
C490 C 0.63504 0.4763 0.68139 0.0
C491 C 0.59788 0.46495 0.67568 0.0
C492 C 0.57718 0.44235 0.69189 0.0
C493 C 0.59483 0.42967 0.71314 0.0
C494 C 0.63188 0.44048 0.71861 0.0
H495 H 0.74854 0.40218 0.70637 0.0
H496 H 0.7048 0.39763 0.72279 0.0
H497 H 0.70369 0.40972 0.69127 0.0
H498 H 0.65012 0.49506 0.66926 0.0
H499 H 0.58465 0.47551 0.65938 0.0
H500 H 0.08345 0.58221 0.17773 0.0
H501 H 0.06864 0.64785 0.18862 0.0
H502 H 0.96981 0.60969 0.2277 0.0
H503 H 0.98346 0.54489 0.21641 0.0
H504 H 0.95529 0.67399 0.20323 0.0
H505 H 0.08932 0.68788 0.25575 0.0
H506 H 0.09492 0.67761 0.22423 0.0
H507 H 0.07336 0.64322 0.24382 0.0
C508 C 0.05837 0.58792 0.18842 0.0
C509 C 0.03505 0.55818 0.19652 0.0
C510 C 0.05006 0.62539 0.19474 0.0
C511 C 0.01853 0.63358 0.2094 0.0
C512 C 0.99437 0.6041 0.21648 0.0
H513 H 0.97798 0.79872 0.31654 0.0
H514 H 0.99116 0.74396 0.29117 0.0
C515 C 1.00243 0.56691 0.21009 0.0
C516 C 0.01128 0.67217 0.21879 0.0
H517 H 0.04653 0.73839 0.25757 0.0
C518 C 0.97538 0.68838 0.21489 0.0
C519 C 0.03743 0.69064 0.23419 0.0
C520 C 0.07581 0.67394 0.23997 0.0
C521 C 0.96431 0.72168 0.22674 0.0
C522 C 0.99024 0.73972 0.24247 0.0
C523 C 0.02671 0.72443 0.24552 0.0
C524 C 0.97942 0.77269 0.25749 0.0
C525 C 0.92434 0.73604 0.22332 0.0
C526 C 0.96776 0.80693 0.24702 0.0
C527 C 0.95965 0.83825 0.26157 0.0
C528 C 0.96376 0.83597 0.28678 0.0
C529 C 0.97472 0.80143 0.29718 0.0
C530 C 0.98237 0.77014 0.28269 0.0
H531 H 0.90554 0.71432 0.21513 0.0
H532 H 0.91186 0.74502 0.2408 0.0
H533 H 0.92486 0.76091 0.21112 0.0
H534 H 0.96594 0.80977 0.22761 0.0
H535 H 0.95161 0.86459 0.25301 0.0
H536 H 0.9181 0.09898 0.69082 0.0
H537 H 0.85244 0.08538 0.7032 0.0
H538 H 0.88545 0.9726 0.72399 0.0
H539 H 0.9504 0.98559 0.71144 0.0
H540 H 0.81483 0.9752 0.70099 0.0
H541 H 0.82606 0.07996 0.77557 0.0
H542 H 0.83439 0.09773 0.74564 0.0
H543 H 0.86687 0.06434 0.75864 0.0
C544 C 0.91113 0.07111 0.69762 0.0
C545 C 0.93954 0.04357 0.70048 0.0
C546 C 0.87372 0.06346 0.70484 0.0
C547 C 0.86428 0.0282 0.71494 0.0
C548 C 0.89213 1.00005 0.71639 0.0
H549 H 0.69817 0.95837 0.81856 0.0
H550 H 0.7547 0.97443 0.79508 0.0
C551 C 0.92933 0.00763 0.70929 0.0
C552 C 0.82635 0.02085 0.72559 0.0
H553 H 0.76979 0.04446 0.77329 0.0
C554 C 0.80468 0.9906 0.71662 0.0
C555 C 0.81358 0.04061 0.74623 0.0
C556 C 0.83645 0.0723 0.75729 0.0
C557 C 0.7709 0.97916 0.728 0.0
C558 C 0.75828 0.99882 0.7487 0.0
C559 C 0.77955 0.02951 0.75738 0.0
C560 C 0.72392 0.98717 0.76229 0.0
C561 C 0.74981 0.94523 0.71835 0.0
C562 C 0.68787 0.98875 0.75158 0.0
C563 C 0.65546 0.97947 0.76493 0.0
C564 C 0.65846 0.9687 0.78932 0.0
C565 C 0.69475 0.96656 0.79985 0.0
C566 C 0.72711 0.97582 0.78647 0.0
H567 H 0.76754 0.92837 0.70576 0.0
H568 H 0.74026 0.92661 0.73332 0.0
H569 H 0.72426 0.95492 0.70841 0.0
H570 H 0.68471 0.99799 0.73305 0.0
H571 H 0.62798 0.9816 0.75626 0.0
H572 H 0.41205 0.92826 0.23124 0.0
H573 H 0.43102 0.86338 0.23975 0.0
H574 H 0.49048 0.85843 0.17179 0.0
H575 H 0.47118 0.92407 0.16303 0.0
H576 H 0.42239 0.79309 0.21223 0.0
H577 H 0.57196 0.83969 0.2269 0.0
H578 H 0.53303 0.87284 0.22652 0.0
H579 H 0.54904 0.85189 0.19891 0.0
C580 C 0.42857 0.91315 0.21787 0.0
C581 C 0.44033 0.93111 0.19652 0.0
C582 C 0.43933 0.87609 0.22275 0.0
C583 C 0.46246 0.85635 0.20654 0.0
C584 C 0.47279 0.87342 0.18458 0.0
H585 H 0.52039 0.62324 0.24747 0.0
H586 H 0.50568 0.6783 0.22255 0.0
C587 C 0.46154 0.91065 0.17951 0.0
C588 C 0.47753 0.81912 0.21398 0.0
H589 H 0.55607 0.77797 0.2388 0.0
C590 C 0.45179 0.78935 0.21755 0.0
C591 C 0.51576 0.8148 0.22128 0.0
C592 C 0.54422 0.84642 0.21839 0.0
C593 C 0.46293 0.75579 0.22906 0.0
C594 C 0.50093 0.75187 0.23696 0.0
C595 C 0.52701 0.78111 0.23263 0.0
C596 C 0.51323 0.71879 0.25136 0.0
C597 C 0.43348 0.72565 0.23385 0.0
C598 C 0.52365 0.72348 0.27562 0.0
C599 C 0.5322 0.69208 0.28996 0.0
C600 C 0.53054 0.6554 0.28024 0.0
C601 C 0.52157 0.65102 0.25564 0.0
C602 C 0.51305 0.68243 0.24134 0.0
H603 H 0.40416 0.73598 0.23054 0.0
H604 H 0.43868 0.70121 0.22176 0.0
H605 H 0.43541 0.71546 0.25276 0.0
H606 H 0.52408 0.7514 0.28365 0.0
H607 H 0.53922 0.69651 0.30878 0.0
H608 H 0.38622 0.48616 0.76042 0.0
H609 H 0.33112 0.50081 0.78555 0.0
H610 H 0.25648 0.46835 0.72748 0.0
H611 H 0.31135 0.45336 0.70222 0.0
H612 H 0.27617 0.55477 0.77508 0.0
H613 H 0.21051 0.41336 0.78584 0.0
H614 H 0.25901 0.41974 0.77598 0.0
H615 H 0.22046 0.42519 0.75497 0.0
C616 C 0.3581 0.48166 0.75304 0.0
C617 C 0.35327 0.46864 0.72923 0.0
C618 C 0.32664 0.49007 0.76747 0.0
C619 C 0.28969 0.48525 0.75852 0.0
C620 C 0.28472 0.47158 0.73494 0.0
H621 H 0.07847 0.58699 0.77876 0.0
H622 H 0.14364 0.56876 0.7697 0.0
C623 C 0.31616 0.46327 0.72045 0.0
C624 C 0.2564 0.49719 0.77307 0.0
H625 H 0.17058 0.4668 0.79436 0.0
C626 C 0.25339 0.53539 0.77967 0.0
C627 C 0.2269 0.47184 0.77936 0.0
C628 C 0.22945 0.43016 0.77389 0.0
C629 C 0.22066 0.54931 0.79106 0.0
C630 C 0.19014 0.52445 0.79588 0.0
C631 C 0.19402 0.48584 0.79061 0.0
C632 C 0.15233 0.53874 0.80325 0.0
C633 C 0.21847 0.59078 0.7972 0.0
C634 C 0.13564 0.52819 0.82531 0.0
C635 C 0.09823 0.53906 0.83071 0.0
C636 C 0.07697 0.55979 0.81383 0.0
C637 C 0.09424 0.57104 0.79212 0.0
C638 C 0.13152 0.56076 0.78694 0.0
H639 H 0.24718 0.60357 0.79884 0.0
H640 H 0.20308 0.60585 0.78261 0.0
H641 H 0.20277 0.59526 0.81434 0.0
H642 H 0.15122 0.5109 0.83804 0.0
H643 H 0.08535 0.52965 0.84742 0.0
H644 H 0.99508 0.30658 0.19803 0.0
H645 H 0.98413 0.25073 0.22262 0.0
H646 H 0.05729 0.29574 0.27803 0.0
H647 H 0.06779 0.35274 0.25361 0.0
H648 H 0.03443 0.19923 0.23835 0.0
H649 H 0.96231 0.26727 0.3162 0.0
H650 H 0.97026 0.29151 0.28797 0.0
H651 H 0.00852 0.28579 0.30909 0.0
C652 C 0.00892 0.30482 0.21544 0.0
C653 C 0.03219 0.33432 0.22389 0.0
C654 C 1.00255 0.27279 0.22951 0.0
C655 C 0.01937 0.26931 0.25232 0.0
C656 C 0.04331 0.29825 0.26071 0.0
H657 H 0.02412 0.04652 0.3184 0.0
H658 H 0.04211 0.11004 0.30533 0.0
C659 C 0.04955 0.33063 0.24664 0.0
C660 C 0.01239 0.23457 0.26665 0.0
H661 H 0.97276 0.20128 0.31883 0.0
C662 C 0.02113 0.1997 0.25601 0.0
C663 C 0.99458 0.23529 0.28954 0.0
C664 C 0.98301 0.27191 0.30136 0.0
C665 C 0.01207 0.1655 0.26738 0.0
C666 C 0.99483 0.16611 0.29045 0.0
C667 C 0.98632 0.20096 0.30126 0.0
C668 C 0.98438 0.13058 0.303 0.0
C669 C 0.01982 0.12903 0.2541 0.0
C670 C 0.94611 0.12196 0.30768 0.0
C671 C 0.93576 0.08578 0.31565 0.0
C672 C 0.96361 0.05783 0.31877 0.0
C673 C 1.00206 0.06746 0.31577 0.0
C674 C 0.01236 0.10365 0.30824 0.0
H675 H 0.02366 0.13376 0.23442 0.0
H676 H 0.04632 0.11621 0.26116 0.0
H677 H 0.9963 0.10849 0.25671 0.0
H678 H 0.9241 0.1425 0.30388 0.0
H679 H 0.90595 0.07901 0.31783 0.0
H680 H 0.43282 0.93169 0.78443 0.0
H681 H 0.37008 0.95656 0.77546 0.0
H682 H 0.35852 0.99466 0.84894 0.0
H683 H 0.42227 0.96959 0.85827 0.0
H684 H 0.28992 0.95193 0.82007 0.0
H685 H 0.35436 0.07922 0.77787 0.0
H686 H 0.37736 0.03512 0.77104 0.0
H687 H 0.37768 0.05259 0.80145 0.0
C688 C 0.41691 0.94493 0.79886 0.0
C689 C 0.43264 0.94899 0.82204 0.0
C690 C 0.38104 0.95911 0.79366 0.0
C691 C 0.36006 0.9778 0.81144 0.0
C692 C 0.37455 0.98037 0.83499 0.0
H693 H 0.13397 0.06177 0.76648 0.0
H694 H 0.18843 0.05108 0.79323 0.0
C695 C 0.41075 0.96594 0.8403 0.0
C696 C 0.32402 0.99599 0.80435 0.0
H697 H 0.29107 0.06349 0.76569 0.0
C698 C 0.28977 0.97701 0.80881 0.0
C699 C 0.32422 0.02856 0.78957 0.0
C700 C 0.36031 0.05034 0.78479 0.0
C701 C 0.25599 0.98831 0.79737 0.0
C702 C 0.25681 0.01933 0.78124 0.0
C703 C 0.29061 0.0397 0.77804 0.0
C704 C 0.22432 0.02798 0.76526 0.0
C705 C 0.22027 0.96552 0.8012 0.0
C706 C 0.22692 0.01931 0.74063 0.0
C707 C 0.19601 0.02524 0.72535 0.0
C708 C 0.1619 0.04024 0.73437 0.0
C709 C 0.15981 0.05011 0.75896 0.0
C710 C 0.19078 0.04389 0.7743 0.0
H711 H 0.22509 0.94054 0.81298 0.0
H712 H 0.19828 0.9836 0.80967 0.0
H713 H 0.20896 0.95568 0.78359 0.0
H714 H 0.25269 0.00713 0.73333 0.0
H715 H 0.1987 0.01756 0.70651 0.0
H716 H 0.53157 0.44027 0.27846 0.0
H717 H 0.51724 0.37418 0.27138 0.0
H718 H 0.55574 0.34607 0.34299 0.0
H719 H 0.57051 0.41331 0.35048 0.0
H720 H 0.57877 0.3117 0.27918 0.0
H721 H 0.44197 0.29751 0.32908 0.0
H722 H 0.45617 0.34286 0.31709 0.0
H723 H 0.48176 0.32278 0.3419 0.0
C724 C 0.53717 0.42028 0.29283 0.0
C725 C 0.55269 0.4321 0.31498 0.0
C726 C 0.52878 0.38246 0.28872 0.0
C727 C 0.53551 0.35542 0.30661 0.0
C728 C 0.55031 0.36677 0.329 0.0
H729 H 0.479 0.11976 0.26822 0.0
H730 H 0.49803 0.17374 0.29317 0.0
C731 C 0.55877 0.40504 0.33322 0.0
C732 C 0.52806 0.31541 0.30071 0.0
H733 H 0.45653 0.25017 0.30044 0.0
C734 C 0.55257 0.29769 0.28433 0.0
C735 C 0.49377 0.29751 0.3074 0.0
C736 C 0.4667 0.3159 0.32486 0.0
C737 C 0.54258 0.26346 0.27332 0.0
C738 C 0.50705 0.24688 0.27868 0.0
C739 C 0.48365 0.26321 0.2963 0.0
C740 C 0.49258 0.21467 0.26442 0.0
C741 C 0.5693 0.24609 0.25518 0.0
C742 C 0.48231 0.22019 0.24023 0.0
C743 C 0.47129 0.1896 0.22595 0.0
C744 C 0.47051 0.15283 0.23561 0.0
C745 C 0.47951 0.14766 0.26017 0.0
C746 C 0.49035 0.17841 0.27448 0.0
H747 H 0.59867 0.25717 0.25717 0.0
H748 H 0.56986 0.21483 0.25708 0.0
H749 H 0.55928 0.25289 0.23669 0.0
H750 H 0.48358 0.24815 0.23226 0.0
H751 H 0.4644 0.19467 0.20718 0.0
H752 H 0.0999 0.31158 0.15179 0.0
H753 H 0.15325 0.26824 0.14759 0.0
H754 H 0.22751 0.36187 0.13138 0.0
H755 H 0.17422 0.40581 0.13592 0.0
H756 H 0.20365 0.25341 0.10959 0.0
H757 H 0.27861 0.31185 0.18975 0.0
H758 H 0.22976 0.32303 0.18305 0.0
H759 H 0.2674 0.34517 0.16633 0.0
C760 C 0.12745 0.32308 0.14709 0.0
C761 C 0.13274 0.36231 0.14434 0.0
C762 C 0.15795 0.29818 0.14468 0.0
C763 C 0.19448 0.31185 0.13957 0.0
C764 C 0.19967 0.35078 0.13576 0.0
H765 H 0.40607 0.17999 0.14631 0.0
H766 H 0.36103 0.23113 0.13785 0.0
C767 C 0.1691 0.37582 0.13818 0.0
C768 C 0.22702 0.28517 0.13921 0.0
H769 H 0.30718 0.26036 0.17013 0.0
C770 C 0.22648 0.25512 0.12268 0.0
C771 C 0.25684 0.28746 0.15629 0.0
C772 C 0.25826 0.31839 0.17501 0.0
C773 C 0.25453 0.22691 0.12306 0.0
C774 C 0.28355 0.22847 0.14068 0.0
C775 C 0.28491 0.25925 0.15663 0.0
C776 C 0.31095 0.19704 0.14413 0.0
C777 C 0.25266 0.19551 0.1047 0.0
C778 C 0.29776 0.16098 0.15058 0.0
C779 C 0.32332 0.13179 0.15546 0.0
C780 C 0.36275 0.13801 0.1541 0.0
C781 C 0.37593 0.17411 0.14738 0.0
C782 C 0.35025 0.2034 0.14258 0.0
H783 H 0.23659 0.20427 0.08838 0.0
H784 H 0.28154 0.18641 0.09915 0.0
H785 H 0.23783 0.17084 0.11274 0.0
H786 H 0.26761 0.15561 0.15242 0.0
H787 H 0.31207 0.10448 0.1607 0.0
H788 H 0.19077 0.10636 0.66044 0.0
H789 H 0.23516 0.1582 0.65354 0.0
H790 H 0.14227 0.23128 0.63389 0.0
H791 H 0.09728 0.17949 0.64102 0.0
H792 H 0.24929 0.20332 0.61206 0.0
H793 H 0.19556 0.28808 0.68945 0.0
H794 H 0.18374 0.2388 0.68557 0.0
H795 H 0.161 0.27407 0.66732 0.0
C796 C 0.17964 0.13333 0.65448 0.0
C797 C 0.14034 0.13875 0.65142 0.0
C798 C 0.20514 0.16294 0.65051 0.0
C799 C 0.19199 0.19871 0.64352 0.0
C800 C 0.15295 0.20402 0.63964 0.0
H801 H 0.3281 0.4071 0.63989 0.0
H802 H 0.27581 0.36239 0.63362 0.0
C803 C 0.12732 0.17432 0.64358 0.0
C804 C 0.21936 0.23042 0.64115 0.0
H805 H 0.24732 0.31287 0.66787 0.0
C806 C 0.24868 0.22748 0.6241 0.0
C807 C 0.21843 0.26195 0.65684 0.0
C808 C 0.18822 0.26602 0.67598 0.0
C809 C 0.27753 0.25484 0.62262 0.0
C810 C 0.27743 0.28559 0.63893 0.0
C811 C 0.24734 0.28928 0.65538 0.0
C812 C 0.30967 0.31257 0.64055 0.0
C813 C 0.308 0.25043 0.6037 0.0
C814 C 0.34605 0.29942 0.6465 0.0
C815 C 0.37594 0.3248 0.65008 0.0
C816 C 0.37009 0.36401 0.64793 0.0
C817 C 0.33372 0.37711 0.64154 0.0
C818 C 0.30376 0.35162 0.638 0.0
H819 H 0.29781 0.23326 0.58821 0.0
H820 H 0.31773 0.27833 0.59687 0.0
H821 H 0.33271 0.23562 0.61174 0.0
H822 H 0.35112 0.2695 0.64913 0.0
H823 H 0.40345 0.31363 0.65513 0.0
H824 H 0.89685 0.81049 0.36043 0.0
H825 H 0.84365 0.76711 0.36561 0.0
H826 H 0.77034 0.86061 0.38325 0.0
H827 H 0.8235 0.90462 0.37776 0.0
H828 H 0.79489 0.75243 0.40476 0.0
H829 H 0.71689 0.81042 0.3256 0.0
H830 H 0.76607 0.82152 0.33141 0.0
H831 H 0.7293 0.84375 0.34876 0.0
C832 C 0.86955 0.82196 0.36564 0.0
C833 C 0.86446 0.86116 0.36853 0.0
C834 C 0.83915 0.79703 0.36862 0.0
C835 C 0.80292 0.81066 0.37444 0.0
C836 C 0.79795 0.84957 0.37834 0.0
H837 H 0.59194 0.67745 0.36984 0.0
H838 H 0.63681 0.7288 0.37827 0.0
C839 C 0.82844 0.87464 0.37537 0.0
C840 C 0.77042 0.78395 0.37539 0.0
H841 H 0.68946 0.75851 0.34553 0.0
C842 C 0.77162 0.75396 0.39198 0.0
C843 C 0.74005 0.78603 0.35871 0.0
C844 C 0.73791 0.81694 0.33996 0.0
C845 C 0.74372 0.72555 0.392 0.0
C846 C 0.71419 0.72685 0.37473 0.0
C847 C 0.71213 0.75761 0.35876 0.0
C848 C 0.68696 0.69516 0.37158 0.0
C849 C 0.74632 0.69418 0.41038 0.0
C850 C 0.70027 0.65926 0.36499 0.0
C851 C 0.6748 0.62994 0.36013 0.0
C852 C 0.63537 0.63589 0.36167 0.0
C853 C 0.62209 0.67178 0.36864 0.0
C854 C 0.64768 0.7012 0.37342 0.0
H855 H 0.76272 0.70315 0.42652 0.0
H856 H 0.71767 0.68475 0.41624 0.0
H857 H 0.76118 0.66968 0.40222 0.0
H858 H 0.73042 0.65417 0.36293 0.0
H859 H 0.6861 0.60279 0.35469 0.0
H860 H 0.59855 0.81535 0.86946 0.0
H861 H 0.64984 0.76936 0.87302 0.0
H862 H 0.73218 0.8597 0.87138 0.0
H863 H 0.68087 0.90606 0.86844 0.0
H864 H 0.70271 0.75727 0.83945 0.0
H865 H 0.77426 0.79539 0.92511 0.0
H866 H 0.72787 0.8131 0.91716 0.0
H867 H 0.76989 0.83448 0.90466 0.0
C868 C 0.62753 0.82555 0.87037 0.0
C869 C 0.63559 0.86444 0.86872 0.0
C870 C 0.65685 0.79917 0.87237 0.0
C871 C 0.69492 0.81098 0.87269 0.0
C872 C 0.70306 0.84987 0.87176 0.0
H873 H 0.90848 0.69528 0.84974 0.0
H874 H 0.858 0.74148 0.85662 0.0
C875 C 0.67366 0.87638 0.87 0.0
C876 C 0.72585 0.78241 0.87166 0.0
H877 H 0.80755 0.75287 0.89914 0.0
C878 C 0.7254 0.75612 0.85267 0.0
C879 C 0.75562 0.78099 0.88881 0.0
C880 C 0.75684 0.80726 0.91022 0.0
C881 C 0.75408 0.72892 0.85013 0.0
C882 C 0.78394 0.72771 0.86714 0.0
C883 C 0.78455 0.7539 0.88615 0.0
C884 C 0.8151 0.69975 0.86506 0.0
C885 C 0.75273 0.70218 0.82894 0.0
C886 C 0.80785 0.66101 0.86805 0.0
C887 C 0.83665 0.63446 0.86421 0.0
C888 C 0.87326 0.64619 0.85725 0.0
C889 C 0.88063 0.68519 0.85501 0.0
C890 C 0.85185 0.71169 0.85898 0.0
H891 H 0.73208 0.71149 0.815 0.0
H892 H 0.78119 0.69964 0.82046 0.0
H893 H 0.74411 0.6737 0.83532 0.0
H894 H 0.77971 0.65127 0.87295 0.0
H895 H 0.82992 0.60472 0.86611 0.0
H896 H 0.94644 0.48468 0.90201 0.0
H897 H 0.95895 0.4703 0.9445 0.0
H898 H 0.01467 0.57807 0.95288 0.0
H899 H 1.002 0.59294 0.9106 0.0
H900 H 0.02818 0.46641 0.9697 0.0
H901 H 0.93549 0.57892 0.00709 0.0
H902 H 0.93317 0.5642 0.97594 0.0
H903 H 0.97037 0.59534 0.98587 0.0
C904 C 0.9614 0.50535 0.91285 0.0
C905 C 0.9729 0.54013 0.90287 0.0
C906 C 0.96852 0.49706 0.93715 0.0
C907 C 0.98708 0.52342 0.95198 0.0
C908 C 0.99951 0.55768 0.94193 0.0
H909 H 0.0542 0.52397 0.10359 0.0
H910 H 0.04217 0.54038 0.06129 0.0
C911 C 0.99244 0.566 0.91767 0.0
C912 C 0.99375 0.51494 0.9779 0.0
H913 H 0.97384 0.54549 0.03503 0.0
C914 C 0.01618 0.4836 0.98399 0.0
C915 C 0.9782 0.53751 0.99653 0.0
C916 C 0.95268 0.57069 0.99112 0.0
C917 C 0.02392 0.47448 0.00817 0.0
C918 C 0.00817 0.4969 0.02681 0.0
C919 C 0.9859 0.52837 0.02073 0.0
C920 C 0.01402 0.48768 0.0527 0.0
C921 C 0.0495 0.44133 0.01354 0.0
C922 C 1.00125 0.45309 0.06209 0.0
C923 C 0.00805 0.44362 0.08618 0.0
C924 C 0.02762 0.46867 0.10153 0.0
C925 C 0.03919 0.50394 0.0923 0.0
C926 C 0.03238 0.51336 0.06811 0.0
H927 H 0.06722 0.43367 0.9977 0.0
H928 H 0.06852 0.44752 0.02903 0.0
H929 H 0.03182 0.41641 0.01827 0.0
H930 H 0.9862 0.43322 0.05069 0.0
H931 H 0.99837 0.41638 0.09268 0.0
H932 H 0.98325 0.06569 0.60767 0.0
H933 H 0.96809 0.05081 0.56556 0.0
H934 H 0.06957 0.98341 0.5603 0.0
H935 H 0.08527 0.99828 0.60226 0.0
H936 H 0.02961 0.06276 0.52294 0.0
H937 H 0.96932 0.91858 0.5365 0.0
H938 H 0.96688 0.9545 0.55963 0.0
H939 H 0.01123 0.93192 0.55316 0.0
C940 C 1.00223 0.04747 0.59764 0.0
C941 C 0.03556 0.03326 0.60834 0.0
C942 C 0.99356 0.03912 0.57359 0.0
C943 C 0.01774 0.01605 0.55995 0.0
C944 C 0.05057 0.00123 0.57063 0.0
H945 H 0.00828 0.9183 0.41707 0.0
H946 H 0.02312 0.9351 0.45877 0.0
C947 C 0.05947 0.0098 0.59459 0.0
C948 C 0.00933 0.00821 0.5343 0.0
H949 H 0.97584 0.93992 0.49645 0.0
C950 C 0.0177 0.03602 0.51706 0.0
C951 C 0.99418 0.97318 0.52685 0.0
C952 C 0.98464 0.94269 0.5449 0.0
C953 C 0.01184 0.02944 0.49234 0.0
C954 C 0.99624 0.99444 0.4848 0.0
C955 C 0.98777 0.96673 0.50219 0.0
C956 C 0.98868 0.98573 0.45901 0.0
C957 C 0.02349 0.0596 0.47453 0.0
C958 C 0.96448 0.00866 0.44518 0.0
C959 C 0.95628 0.99936 0.4212 0.0
C960 C 0.97157 0.96652 0.41071 0.0
C961 C 0.99594 0.94373 0.42458 0.0
C962 C 0.00442 0.95327 0.44845 0.0
H963 H 0.04487 0.07918 0.48238 0.0
H964 H 0.03549 0.04697 0.45787 0.0
H965 H 0.99822 0.07656 0.46951 0.0
H966 H 0.95123 0.03333 0.45307 0.0
H967 H 0.93711 0.01735 0.41112 0.0
H968 H 0.55401 0.02934 0.90859 0.0
H969 H 0.54184 0.04619 0.95081 0.0
H970 H 0.49689 0.93467 0.96394 0.0
H971 H 0.50891 0.9175 0.92201 0.0
H972 H 0.47173 0.04398 0.97776 0.0
H973 H 0.58102 0.94795 0.01575 0.0
H974 H 0.58022 0.96159 0.98434 0.0
H975 H 0.54842 0.92567 0.99525 0.0
C976 C 0.54141 0.00842 0.92043 0.0
C977 C 0.53271 0.97195 0.91188 0.0
C978 C 0.5345 0.01812 0.94455 0.0
C979 C 0.5191 0.99145 0.96059 0.0
C980 C 0.50947 0.95543 0.95198 0.0
H981 H 0.41166 0.0157 0.09942 0.0
H982 H 0.42836 0.00445 0.05728 0.0
C983 C 0.51619 0.94577 0.92792 0.0
C984 C 0.51286 0.0011 0.98635 0.0
H985 H 0.53769 0.97534 0.04366 0.0
C986 C 0.48631 0.02918 0.99218 0.0
C987 C 0.53229 0.98207 1.00512 0.0
C988 C 0.56235 0.95286 0.99989 0.0
C989 C 0.47775 0.03787 0.01631 0.0
C990 C 0.49599 0.0177 0.03508 0.0
C991 C 0.52347 0.99051 0.02925 0.0
C992 C 0.48633 0.0239 0.06086 0.0
C993 C 0.4493 0.06863 0.02155 0.0
C994 C 0.51374 0.03752 0.07707 0.0
C995 C 0.50433 0.04394 0.10129 0.0
C996 C 0.46738 0.03652 0.10978 0.0
C997 C 0.44033 0.02193 0.09355 0.0
C998 C 0.44973 0.0157 0.06937 0.0
H999 H 0.44528 0.08764 1.00579 0.0
H1000 H 0.42146 0.05556 0.0259 0.0
H1001 H 0.45832 0.08586 0.03729 0.0
H1002 H 0.54226 0.04373 0.0709 0.0
H1003 H 0.52592 0.05503 0.11327 0.0
H1004 H 0.5784 0.494 0.40983 0.0
H1005 H 0.56308 0.48051 0.45203 0.0
H1006 H 0.46539 0.55337 0.44745 0.0
H1007 H 0.48024 0.56689 0.40506 0.0
H1008 H 0.52191 0.5649 0.48899 0.0
H1009 H 0.46769 0.41805 0.47838 0.0
H1010 H 0.51096 0.42989 0.46278 0.0
H1011 H 0.46728 0.45193 0.45395 0.0
C1012 C 0.55346 0.50697 0.41768 0.0
C1013 C 0.53056 0.53155 0.40399 0.0
C1014 C 0.54472 0.49914 0.44181 0.0
C1015 C 0.51306 0.51584 0.45281 0.0
C1016 C 0.48992 0.54014 0.43924 0.0
H1017 H 0.43611 0.51891 0.60323 0.0
H1018 H 0.44764 0.5341 0.5608 0.0
C1019 C 0.49839 0.5477 0.415 0.0
C1020 C 0.50494 0.50876 0.47871 0.0
H1021 H 0.47618 0.44029 0.51815 0.0
C1022 C 0.51168 0.53777 0.49543 0.0
C1023 C 0.49194 0.47326 0.48699 0.0
C1024 C 0.48374 0.44142 0.46967 0.0
C1025 C 0.5066 0.53194 0.52034 0.0
C1026 C 0.49337 0.49639 0.5287 0.0
C1027 C 0.48633 0.46752 0.51184 0.0
C1028 C 0.48714 0.48818 0.55481 0.0
C1029 C 0.51675 0.56352 0.53746 0.0
C1030 C 0.50481 0.45686 0.5656 0.0
C1031 C 0.49779 0.44775 0.58977 0.0
C1032 C 0.47298 0.46983 0.60379 0.0
C1033 C 0.4557 0.50152 0.59307 0.0
C1034 C 0.46243 0.51037 0.56879 0.0
H1035 H 0.53675 0.58398 0.52906 0.0
H1036 H 0.4906 0.57916 0.5424 0.0
H1037 H 0.52984 0.55239 0.55425 0.0
H1038 H 0.52395 0.43923 0.55525 0.0
H1039 H 0.51165 0.42318 0.59741 0.0
loop_
_geom_bond_atom_site_label_1
_geom_bond_atom_site_label_2
_geom_bond_distance
_geom_bond_site_symmetry_2
_ccdc_geom_bond_type
Fe0 O2 1.918 . S
Fe0 O5 1.997 . S
Fe0 O6 2.002 . S
Fe0 O11 1.976 . S
Fe0 O14 1.996 1_455 S
Fe1 O2 1.918 . S
Fe1 O9 1.997 . S
Fe1 O12 1.996 . S
Fe1 O16 1.976 . S
Fe1 O19 2.002 . S
O2 Fe0 1.918 . S
O2 Fe1 1.918 . S
O2 Fe3 1.918 . S
Fe3 O2 1.918 . S
Fe3 O4 2.002 . S
Fe3 O13 1.976 1_455 S
Fe3 O17 1.996 . S
Fe3 O20 1.997 . S
O4 Fe3 2.002 . S
O4 C21 1.295 . S
O5 Fe0 1.997 . S
O5 C21 1.235 . S
O6 Fe0 2.002 . S
O6 C7 1.295 . S
C7 O6 1.295 . S
C7 O9 1.235 . S
C8 O13 1.287 . S
C8 O14 1.255 . S
O9 Fe1 1.997 . S
O9 C7 1.235 . S
C10 O16 1.287 . S
C10 O17 1.255 . S
O11 Fe0 1.976 . S
O11 C18 1.287 . S
O12 Fe1 1.996 . S
O12 C18 1.255 . S
O13 Fe3 1.976 1_655 S
O13 C8 1.287 . S
O14 Fe0 1.996 1_655 S
O14 C8 1.255 . S
C15 O19 1.295 . S
C15 O20 1.235 . S
O16 Fe1 1.976 . S
O16 C10 1.287 . S
O17 Fe3 1.996 . S
O17 C10 1.255 . S
C18 O11 1.287 . S
C18 O12 1.255 . S
O19 Fe1 2.002 . S
O19 C15 1.295 . S
O20 Fe3 1.997 . S
O20 C15 1.235 . S
C21 O4 1.295 . S
C21 O5 1.235 . S
Fe22 O24 1.918 . S
Fe22 O27 1.997 . S
Fe22 O28 2.002 . S
Fe22 O33 1.976 1_455 S
Fe22 O36 1.996 . S
Fe23 O24 1.918 . S
Fe23 O31 1.997 . S
Fe23 O34 1.996 1_455 S
Fe23 O38 1.976 1_545 S
Fe23 O41 2.002 . S
O24 Fe22 1.918 . S
O24 Fe23 1.918 . S
O24 Fe25 1.918 . S
Fe25 O24 1.918 . S
Fe25 O26 2.002 . S
Fe25 O35 1.976 . S
Fe25 O39 1.996 1_545 S
Fe25 O42 1.997 . S
O26 Fe25 2.002 . S
O26 C43 1.295 . S
O27 Fe22 1.997 . S
O27 C43 1.235 . S
O28 Fe22 2.002 . S
O28 C29 1.295 . S
C29 O28 1.295 . S
C29 O31 1.235 . S
C30 O35 1.287 . S
C30 O36 1.255 . S
O31 Fe23 1.997 . S
O31 C29 1.235 . S
C32 O38 1.287 . S
C32 O39 1.255 . S
O33 Fe22 1.976 1_655 S
O33 C40 1.287 . S
O34 Fe23 1.996 1_655 S
O34 C40 1.255 . S
O35 Fe25 1.976 . S
O35 C30 1.287 . S
O36 Fe22 1.996 . S
O36 C30 1.255 . S
C37 O41 1.295 . S
C37 O42 1.235 . S
O38 Fe23 1.976 1_565 S
O38 C32 1.287 . S
O39 Fe25 1.996 1_565 S
O39 C32 1.255 . S
C40 O33 1.287 . S
C40 O34 1.255 . S
O41 Fe23 2.002 . S
O41 C37 1.295 . S
O42 Fe25 1.997 . S
O42 C37 1.235 . S
C43 O26 1.295 . S
C43 O27 1.235 . S
Fe44 O46 1.918 . S
Fe44 O49 1.997 . S
Fe44 O50 2.002 . S
Fe44 O55 1.976 . S
Fe44 O58 1.996 1_545 S
Fe45 O46 1.918 . S
Fe45 O53 1.997 . S
Fe45 O56 1.996 . S
Fe45 O60 1.976 . S
Fe45 O63 2.002 . S
O46 Fe44 1.918 . S
O46 Fe45 1.918 . S
O46 Fe47 1.918 . S
Fe47 O46 1.918 . S
Fe47 O48 2.002 . S
Fe47 O57 1.976 1_545 S
Fe47 O61 1.996 . S
Fe47 O64 1.997 . S
O48 Fe47 2.002 . S
O48 C65 1.295 . S
O49 Fe44 1.997 . S
O49 C65 1.235 . S
O50 Fe44 2.002 . S
O50 C51 1.295 . S
C51 O50 1.295 . S
C51 O53 1.235 . S
C52 O57 1.287 . S
C52 O58 1.255 . S
O53 Fe45 1.997 . S
O53 C51 1.235 . S
C54 O60 1.287 . S
C54 O61 1.255 . S
O55 Fe44 1.976 . S
O55 C62 1.287 . S
O56 Fe45 1.996 . S
O56 C62 1.255 . S
O57 Fe47 1.976 1_565 S
O57 C52 1.287 . S
O58 Fe44 1.996 1_565 S
O58 C52 1.255 . S
C59 O63 1.295 . S
C59 O64 1.235 . S
O60 Fe45 1.976 . S
O60 C54 1.287 . S
O61 Fe47 1.996 . S
O61 C54 1.255 . S
C62 O55 1.287 . S
C62 O56 1.255 . S
O63 Fe45 2.002 . S
O63 C59 1.295 . S
O64 Fe47 1.997 . S
O64 C59 1.235 . S
C65 O48 1.295 . S
C65 O49 1.235 . S
Fe66 O68 1.918 . S
Fe66 O71 1.997 . S
Fe66 O72 2.002 . S
Fe66 O77 1.976 . S
Fe66 O80 1.996 . S
Fe67 O68 1.918 . S
Fe67 O75 1.997 . S
Fe67 O78 1.996 . S
Fe67 O82 1.976 . S
Fe67 O85 2.002 . S
O68 Fe66 1.918 . S
O68 Fe67 1.918 . S
O68 Fe69 1.918 . S
Fe69 O68 1.918 . S
Fe69 O70 2.002 . S
Fe69 O79 1.976 . S
Fe69 O83 1.996 . S
Fe69 O86 1.997 . S
O70 Fe69 2.002 . S
O70 C87 1.295 . S
O71 Fe66 1.997 . S
O71 C87 1.235 . S
O72 Fe66 2.002 . S
O72 C73 1.295 . S
C73 O72 1.295 . S
C73 O75 1.235 . S
C74 O79 1.287 . S
C74 O80 1.255 . S
O75 Fe67 1.997 . S
O75 C73 1.235 . S
C76 O82 1.287 . S
C76 O83 1.255 . S
O77 Fe66 1.976 . S
O77 C84 1.287 . S
O78 Fe67 1.996 . S
O78 C84 1.255 . S
O79 Fe69 1.976 . S
O79 C74 1.287 . S
O80 Fe66 1.996 . S
O80 C74 1.255 . S
C81 O85 1.295 . S
C81 O86 1.235 . S
O82 Fe67 1.976 . S
O82 C76 1.287 . S
O83 Fe69 1.996 . S
O83 C76 1.255 . S
C84 O77 1.287 . S
C84 O78 1.255 . S
O85 Fe67 2.002 . S
O85 C81 1.295 . S
O86 Fe69 1.997 . S
O86 C81 1.235 . S
C87 O70 1.295 . S
C87 O71 1.235 . S
Fe88 O90 1.918 . S
Fe88 O93 1.997 . S
Fe88 O94 2.002 . S
Fe88 O99 1.976 . S
Fe88 O102 1.996 . S
Fe89 O90 1.918 . S
Fe89 O97 1.997 . S
Fe89 O100 1.996 . S
Fe89 O104 1.976 . S
Fe89 O107 2.002 . S
O90 Fe88 1.918 . S
O90 Fe89 1.918 . S
O90 Fe91 1.918 . S
Fe91 O90 1.918 . S
Fe91 O92 2.002 . S
Fe91 O101 1.976 . S
Fe91 O105 1.996 . S
Fe91 O108 1.997 . S
O92 Fe91 2.002 . S
O92 C109 1.295 . S
O93 Fe88 1.997 . S
O93 C109 1.235 . S
O94 Fe88 2.002 . S
O94 C95 1.295 . S
C95 O94 1.295 . S
C95 O97 1.235 . S
C96 O101 1.287 . S
C96 O102 1.255 . S
O97 Fe89 1.997 . S
O97 C95 1.235 . S
C98 O104 1.287 . S
C98 O105 1.255 . S
O99 Fe88 1.976 . S
O99 C106 1.287 . S
O100 Fe89 1.996 . S
O100 C106 1.255 . S
O101 Fe91 1.976 . S
O101 C96 1.287 . S
O102 Fe88 1.996 . S
O102 C96 1.255 . S
C103 O107 1.295 . S
C103 O108 1.235 . S
O104 Fe89 1.976 . S
O104 C98 1.287 . S
O105 Fe91 1.996 . S
O105 C98 1.255 . S
C106 O99 1.287 . S
C106 O100 1.255 . S
O107 Fe89 2.002 . S
O107 C103 1.295 . S
O108 Fe91 1.997 . S
O108 C103 1.235 . S
C109 O92 1.295 . S
C109 O93 1.235 . S
Fe110 O112 1.918 . S
Fe110 O115 1.997 . S
Fe110 O116 2.002 . S
Fe110 O121 1.976 1_655 S
Fe110 O124 1.996 . S
Fe111 O112 1.918 . S
Fe111 O119 1.997 . S
Fe111 O122 1.996 1_655 S
Fe111 O126 1.976 . S
Fe111 O129 2.002 . S
O112 Fe110 1.918 . S
O112 Fe111 1.918 . S
O112 Fe113 1.918 . S
Fe113 O112 1.918 . S
Fe113 O114 2.002 . S
Fe113 O123 1.976 . S
Fe113 O127 1.996 . S
Fe113 O130 1.997 . S
O114 Fe113 2.002 . S
O114 C131 1.295 . S
O115 Fe110 1.997 . S
O115 C131 1.235 . S
O116 Fe110 2.002 . S
O116 C117 1.295 . S
C117 O116 1.295 . S
C117 O119 1.235 . S
C118 O123 1.287 . S
C118 O124 1.255 . S
O119 Fe111 1.997 . S
O119 C117 1.235 . S
C120 O126 1.287 . S
C120 O127 1.255 . S
O121 Fe110 1.976 1_455 S
O121 C128 1.287 . S
O122 Fe111 1.996 1_455 S
O122 C128 1.255 . S
O123 Fe113 1.976 . S
O123 C118 1.287 . S
O124 Fe110 1.996 . S
O124 C118 1.255 . S
C125 O129 1.295 . S
C125 O130 1.235 . S
O126 Fe111 1.976 . S
O126 C120 1.287 . S
O127 Fe113 1.996 . S
O127 C120 1.255 . S
C128 O121 1.287 . S
C128 O122 1.255 . S
O129 Fe111 2.002 . S
O129 C125 1.295 . S
O130 Fe113 1.997 . S
O130 C125 1.235 . S
C131 O114 1.295 . S
C131 O115 1.235 . S
Fe132 O134 1.918 . S
Fe132 O137 1.997 . S
Fe132 O138 2.002 . S
Fe132 O143 1.976 1_655 S
Fe132 O146 1.996 1_565 S
Fe133 O134 1.918 . S
Fe133 O141 1.997 . S
Fe133 O144 1.996 1_655 S
Fe133 O148 1.976 . S
Fe133 O151 2.002 . S
O134 Fe132 1.918 . S
O134 Fe133 1.918 . S
O134 Fe135 1.918 . S
Fe135 O134 1.918 . S
Fe135 O136 2.002 . S
Fe135 O145 1.976 1_565 S
Fe135 O149 1.996 . S
Fe135 O152 1.997 . S
O136 Fe135 2.002 . S
O136 C153 1.295 . S
O137 Fe132 1.997 . S
O137 C153 1.235 . S
O138 Fe132 2.002 . S
O138 C139 1.295 . S
C139 O138 1.295 . S
C139 O141 1.235 . S
C140 O145 1.287 . S
C140 O146 1.255 . S
O141 Fe133 1.997 . S
O141 C139 1.235 . S
C142 O148 1.287 . S
C142 O149 1.255 . S
O143 Fe132 1.976 1_455 S
O143 C150 1.287 . S
O144 Fe133 1.996 1_455 S
O144 C150 1.255 . S
O145 Fe135 1.976 1_545 S
O145 C140 1.287 . S
O146 Fe132 1.996 1_545 S
O146 C140 1.255 . S
C147 O151 1.295 . S
C147 O152 1.235 . S
O148 Fe133 1.976 . S
O148 C142 1.287 . S
O149 Fe135 1.996 . S
O149 C142 1.255 . S
C150 O143 1.287 . S
C150 O144 1.255 . S
O151 Fe133 2.002 . S
O151 C147 1.295 . S
O152 Fe135 1.997 . S
O152 C147 1.235 . S
C153 O136 1.295 . S
C153 O137 1.235 . S
Fe154 O156 1.918 . S
Fe154 O159 1.997 . S
Fe154 O160 2.002 . S
Fe154 O165 1.976 . S
Fe154 O168 1.996 1_565 S
Fe155 O156 1.918 . S
Fe155 O163 1.997 . S
Fe155 O166 1.996 . S
Fe155 O170 1.976 . S
Fe155 O173 2.002 . S
O156 Fe154 1.918 . S
O156 Fe155 1.918 . S
O156 Fe157 1.918 . S
Fe157 O156 1.918 . S
Fe157 O158 2.002 . S
Fe157 O167 1.976 1_565 S
Fe157 O171 1.996 . S
Fe157 O174 1.997 . S
O158 Fe157 2.002 . S
O158 C175 1.295 . S
O159 Fe154 1.997 . S
O159 C175 1.235 . S
O160 Fe154 2.002 . S
O160 C161 1.295 . S
C161 O160 1.295 . S
C161 O163 1.235 . S
C162 O167 1.287 . S
C162 O168 1.255 . S
O163 Fe155 1.997 . S
O163 C161 1.235 . S
C164 O170 1.287 . S
C164 O171 1.255 . S
O165 Fe154 1.976 . S
O165 C172 1.287 . S
O166 Fe155 1.996 . S
O166 C172 1.255 . S
O167 Fe157 1.976 1_545 S
O167 C162 1.287 . S
O168 Fe154 1.996 1_545 S
O168 C162 1.255 . S
C169 O173 1.295 . S
C169 O174 1.235 . S
O170 Fe155 1.976 . S
O170 C164 1.287 . S
O171 Fe157 1.996 . S
O171 C164 1.255 . S
C172 O165 1.287 . S
C172 O166 1.255 . S
O173 Fe155 2.002 . S
O173 C169 1.295 . S
O174 Fe157 1.997 . S
O174 C169 1.235 . S
C175 O158 1.295 . S
C175 O159 1.235 . S
H176 C184 0.929 . S
H177 C186 0.930 . S
H178 C188 0.930 . S
H179 C191 0.929 . S
H180 C194 0.930 . S
H181 C196 0.960 . S
H182 C196 0.960 . S
H183 C196 0.960 . S
C184 H176 0.929 . S
C184 C185 1.377 . S
C184 C186 1.384 . S
C185 C184 1.377 . S
C185 C191 1.390 . S
C186 H177 0.930 . S
C186 C184 1.384 . S
C186 C187 1.372 . S
C187 C186 1.372 . S
C187 C188 1.400 . S
C187 C192 1.490 . S
C188 H178 0.930 . S
C188 C187 1.400 . S
C188 C191 1.386 . S
H189 C205 0.930 . S
H190 C206 0.931 . S
C191 H179 0.929 . S
C191 C185 1.390 . S
C191 C188 1.386 . S
C192 C187 1.490 . S
C192 C194 1.395 . S
C192 C195 1.403 . S
H193 C199 0.930 . S
C194 H180 0.930 . S
C194 C192 1.395 . S
C194 C197 1.403 . S
C195 C192 1.403 . S
C195 C196 1.524 . S
C195 C199 1.400 . S
C196 H181 0.960 . S
C196 H182 0.960 . S
C196 H183 0.960 . S
C196 C195 1.524 . S
C197 C194 1.403 . S
C197 C198 1.392 . S
C197 C201 1.495 . S
C198 C197 1.392 . S
C198 C199 1.385 . S
C198 C200 1.478 . S
C199 H193 0.930 . S
C199 C195 1.400 . S
C199 C198 1.385 . S
C200 C198 1.478 . S
C200 C202 1.381 . S
C200 C206 1.383 . S
C201 C197 1.495 . S
C201 H207 0.959 . S
C201 H208 0.961 . S
C201 H209 0.960 . S
C202 C200 1.381 . S
C202 C203 1.394 . S
C202 H210 0.930 . S
C203 C202 1.394 . S
C203 C204 1.383 . S
C203 H211 0.929 . S
C204 C203 1.383 . S
C204 C205 1.377 . S
C205 H189 0.930 . S
C205 C204 1.377 . S
C205 C206 1.379 . S
C206 H190 0.931 . S
C206 C200 1.383 . S
C206 C205 1.379 . S
H207 C201 0.959 . S
H208 C201 0.961 . S
H209 C201 0.960 . S
H210 C202 0.930 . S
H211 C203 0.929 . S
H212 C220 0.929 . S
H213 C222 0.930 . S
H214 C224 0.930 1_455 S
H215 C227 0.945 . S
H216 C230 0.930 . S
H217 C232 0.960 . S
H218 C232 0.960 . S
H219 C232 0.960 . S
C220 H212 0.929 . S
C220 C221 1.377 . S
C220 C222 1.384 . S
C221 C220 1.377 . S
C221 C227 1.390 . S
C222 H213 0.930 . S
C222 C220 1.384 . S
C222 C223 1.372 . S
C223 C222 1.372 . S
C223 C224 1.400 . S
C223 C228 1.490 . S
C224 H214 0.930 1_655 S
C224 C223 1.400 . S
C224 C227 1.386 . S
H225 C241 0.930 . S
H226 C242 0.931 . S
C227 H215 0.945 . S
C227 C221 1.390 . S
C227 C224 1.386 . S
C228 C223 1.490 . S
C228 C230 1.395 . S
C228 C231 1.403 . S
H229 C235 0.930 . S
C230 H216 0.930 . S
C230 C228 1.395 . S
C230 C233 1.403 . S
C231 C228 1.403 . S
C231 C232 1.524 . S
C231 C235 1.400 . S
C232 H217 0.960 . S
C232 H218 0.960 . S
C232 H219 0.960 . S
C232 C231 1.524 . S
C233 C230 1.403 . S
C233 C234 1.391 1_655 S
C233 C237 1.495 1_655 S
C234 C233 1.391 1_455 S
C234 C235 1.384 1_455 S
C234 C236 1.480 . S
C235 H229 0.930 . S
C235 C231 1.400 . S
C235 C234 1.384 1_655 S
C236 C234 1.480 . S
C236 C238 1.381 1_455 S
C236 C242 1.383 . S
C237 C233 1.495 1_455 S
C237 H243 0.959 1_455 S
C237 H244 0.961 . S
C237 H245 0.960 1_455 S
C238 C236 1.381 1_655 S
C238 C239 1.394 . S
C238 H246 0.930 . S
C239 C238 1.394 . S
C239 C240 1.383 1_655 S
C239 H247 0.929 . S
C240 C239 1.383 1_455 S
C240 C241 1.377 . S
C241 H225 0.930 . S
C241 C240 1.377 . S
C241 C242 1.379 . S
C242 H226 0.931 . S
C242 C236 1.383 . S
C242 C241 1.379 . S
H243 C237 0.959 1_655 S
H244 C237 0.961 . S
H245 C237 0.960 1_655 S
H246 C238 0.930 . S
H247 C239 0.929 . S
H248 C256 0.929 . S
H249 C258 0.930 . S
H250 C260 0.930 . S
H251 C263 0.929 . S
H252 C266 0.930 . S
H253 C268 0.960 . S
H254 C268 0.960 . S
H255 C268 0.960 . S
C256 H248 0.929 . S
C256 C257 1.377 1_565 S
C256 C258 1.384 . S
C257 C256 1.377 1_545 S
C257 C263 1.390 . S
C258 H249 0.930 . S
C258 C256 1.384 . S
C258 C259 1.372 1_565 S
C259 C258 1.372 1_545 S
C259 C260 1.400 . S
C259 C264 1.490 1_545 S
C260 H250 0.930 . S
C260 C259 1.400 . S
C260 C263 1.386 . S
H261 C277 0.930 1_545 S
H262 C278 0.931 1_545 S
C263 H251 0.929 . S
C263 C257 1.390 . S
C263 C260 1.386 . S
C264 C259 1.490 1_565 S
C264 C266 1.395 . S
C264 C267 1.403 1_565 S
H265 C271 0.930 . S
C266 H252 0.930 . S
C266 C264 1.395 . S
C266 C269 1.403 . S
C267 C264 1.403 1_545 S
C267 C268 1.524 . S
C267 C271 1.400 . S
C268 H253 0.960 . S
C268 H254 0.960 . S
C268 H255 0.960 . S
C268 C267 1.524 . S
C269 C266 1.403 . S
C269 C270 1.392 . S
C269 C273 1.495 . S
C270 C269 1.392 . S
C270 C271 1.385 1_565 S
C270 C272 1.478 . S
C271 H265 0.930 . S
C271 C267 1.400 . S
C271 C270 1.385 1_545 S
C272 C270 1.478 . S
C272 C274 1.381 . S
C272 C278 1.383 . S
C273 C269 1.495 . S
C273 H279 0.959 . S
C273 H280 0.961 . S
C273 H281 0.960 . S
C274 C272 1.381 . S
C274 C275 1.394 . S
C274 H282 0.930 . S
C275 C274 1.394 . S
C275 C276 1.383 . S
C275 H283 0.929 . S
C276 C275 1.383 . S
C276 C277 1.377 . S
C277 H261 0.930 1_565 S
C277 C276 1.377 . S
C277 C278 1.379 . S
C278 H262 0.931 1_565 S
C278 C272 1.383 . S
C278 C277 1.379 . S
H279 C273 0.959 . S
H280 C273 0.961 . S
H281 C273 0.960 . S
H282 C274 0.930 . S
H283 C275 0.929 . S
H284 C292 0.929 . S
H285 C294 0.930 . S
H286 C296 0.930 . S
H287 C299 0.929 . S
H288 C302 0.930 . S
H289 C304 0.960 . S
H290 C304 0.960 . S
H291 C304 0.960 . S
C292 H284 0.929 . S
C292 C293 1.377 . S
C292 C294 1.384 . S
C293 C292 1.377 . S
C293 C299 1.390 . S
C294 H285 0.930 . S
C294 C292 1.384 . S
C294 C295 1.372 . S
C295 C294 1.372 . S
C295 C296 1.400 . S
C295 C300 1.490 . S
C296 H286 0.930 . S
C296 C295 1.400 . S
C296 C299 1.386 . S
H297 C313 0.930 . S
H298 C314 0.931 . S
C299 H287 0.929 . S
C299 C293 1.390 . S
C299 C296 1.386 . S
C300 C295 1.490 . S
C300 C302 1.395 . S
C300 C303 1.403 . S
H301 C307 0.930 . S
C302 H288 0.930 . S
C302 C300 1.395 . S
C302 C305 1.403 . S
C303 C300 1.403 . S
C303 C304 1.524 . S
C303 C307 1.400 . S
C304 H289 0.960 . S
C304 H290 0.960 . S
C304 H291 0.960 . S
C304 C303 1.524 . S
C305 C302 1.403 . S
C305 C306 1.392 . S
C305 C309 1.495 . S
C306 C305 1.392 . S
C306 C307 1.385 . S
C306 C308 1.478 . S
C307 H301 0.930 . S
C307 C303 1.400 . S
C307 C306 1.385 . S
C308 C306 1.478 . S
C308 C310 1.381 . S
C308 C314 1.383 . S
C309 C305 1.495 . S
C309 H315 0.959 . S
C309 H316 0.961 . S
C309 H317 0.960 . S
C310 C308 1.381 . S
C310 C311 1.394 . S
C310 H318 0.930 . S
C311 C310 1.394 . S
C311 C312 1.383 . S
C311 H319 0.929 . S
C312 C311 1.383 . S
C312 C313 1.377 . S
C313 H297 0.930 . S
C313 C312 1.377 . S
C313 C314 1.379 . S
C314 H298 0.931 . S
C314 C308 1.383 . S
C314 C313 1.379 . S
H315 C309 0.959 . S
H316 C309 0.961 . S
H317 C309 0.960 . S
H318 C310 0.930 . S
H319 C311 0.929 . S
H320 C328 0.929 . S
H321 C330 0.930 . S
H322 C332 0.930 . S
H323 C335 0.929 . S
H324 C338 0.930 . S
H325 C340 0.960 . S
H326 C340 0.960 . S
H327 C340 0.960 . S
C328 H320 0.929 . S
C328 C329 1.377 . S
C328 C330 1.384 . S
C329 C328 1.377 . S
C329 C335 1.390 . S
C330 H321 0.930 . S
C330 C328 1.384 . S
C330 C331 1.372 . S
C331 C330 1.372 . S
C331 C332 1.400 . S
C331 C336 1.490 . S
C332 H322 0.930 . S
C332 C331 1.400 . S
C332 C335 1.386 . S
H333 C349 0.930 . S
H334 C350 0.931 . S
C335 H323 0.929 . S
C335 C329 1.390 . S
C335 C332 1.386 . S
C336 C331 1.490 . S
C336 C338 1.395 . S
C336 C339 1.403 . S
H337 C343 0.930 . S
C338 H324 0.930 . S
C338 C336 1.395 . S
C338 C341 1.403 . S
C339 C336 1.403 . S
C339 C340 1.524 . S
C339 C343 1.400 . S
C340 H325 0.960 . S
C340 H326 0.960 . S
C340 H327 0.960 . S
C340 C339 1.524 . S
C341 C338 1.403 . S
C341 C342 1.392 . S
C341 C345 1.495 . S
C342 C341 1.392 . S
C342 C343 1.385 . S
C342 C344 1.478 . S
C343 H337 0.930 . S
C343 C339 1.400 . S
C343 C342 1.385 . S
C344 C342 1.478 . S
C344 C346 1.381 . S
C344 C350 1.383 . S
C345 C341 1.495 . S
C345 H351 0.959 . S
C345 H352 0.961 . S
C345 H353 0.960 . S
C346 C344 1.381 . S
C346 C347 1.394 . S
C346 H354 0.930 . S
C347 C346 1.394 . S
C347 C348 1.383 . S
C347 H355 0.929 . S
C348 C347 1.383 . S
C348 C349 1.377 . S
C349 H333 0.930 . S
C349 C348 1.377 . S
C349 C350 1.379 . S
C350 H334 0.931 . S
C350 C344 1.383 . S
C350 C349 1.379 . S
H351 C345 0.959 . S
H352 C345 0.961 . S
H353 C345 0.960 . S
H354 C346 0.930 . S
H355 C347 0.929 . S
H356 C364 0.929 . S
H357 C366 0.930 . S
H358 C368 0.930 . S
H359 C371 0.929 . S
H360 C374 0.930 . S
H361 C376 0.960 . S
H362 C376 0.960 . S
H363 C376 0.960 . S
C364 H356 0.929 . S
C364 C365 1.377 . S
C364 C366 1.384 . S
C365 C364 1.377 . S
C365 C371 1.390 . S
C366 H357 0.930 . S
C366 C364 1.384 . S
C366 C367 1.372 . S
C367 C366 1.372 . S
C367 C368 1.400 . S
C367 C372 1.490 . S
C368 H358 0.930 . S
C368 C367 1.400 . S
C368 C371 1.386 . S
H369 C385 0.930 . S
H370 C386 0.931 . S
C371 H359 0.929 . S
C371 C365 1.390 . S
C371 C368 1.386 . S
C372 C367 1.490 . S
C372 C374 1.395 . S
C372 C375 1.403 1_455 S
H373 C379 0.930 . S
C374 H360 0.930 . S
C374 C372 1.395 . S
C374 C377 1.403 . S
C375 C372 1.403 1_655 S
C375 C376 1.524 . S
C375 C379 1.400 . S
C376 H361 0.960 . S
C376 H362 0.960 . S
C376 H363 0.960 . S
C376 C375 1.524 . S
C377 C374 1.403 . S
C377 C378 1.392 . S
C377 C381 1.495 . S
C378 C377 1.392 . S
C378 C379 1.385 1_455 S
C378 C380 1.478 1_455 S
C379 H373 0.930 . S
C379 C375 1.400 . S
C379 C378 1.385 1_655 S
C380 C378 1.478 1_655 S
C380 C382 1.381 . S
C380 C386 1.383 . S
C381 C377 1.495 . S
C381 H387 0.959 . S
C381 H388 0.961 . S
C381 H389 0.960 . S
C382 C380 1.381 . S
C382 C383 1.394 . S
C382 H390 0.930 . S
C383 C382 1.394 . S
C383 C384 1.383 . S
C383 H391 0.929 . S
C384 C383 1.383 . S
C384 C385 1.377 . S
C385 H369 0.930 . S
C385 C384 1.377 . S
C385 C386 1.379 . S
C386 H370 0.931 . S
C386 C380 1.383 . S
C386 C385 1.379 . S
H387 C381 0.959 . S
H388 C381 0.961 . S
H389 C381 0.960 . S
H390 C382 0.930 . S
H391 C383 0.929 . S
H392 C400 0.929 . S
H393 C402 0.930 . S
H394 C404 0.946 . S
H395 C407 0.929 . S
H396 C410 0.927 1_565 S
H397 C412 0.960 . S
H398 C412 0.960 . S
H399 C412 0.960 . S
C400 H392 0.929 . S
C400 C401 1.377 . S
C400 C402 1.384 . S
C401 C400 1.377 . S
C401 C407 1.390 . S
C402 H393 0.930 . S
C402 C400 1.384 . S
C402 C403 1.372 . S
C403 C402 1.372 . S
C403 C404 1.400 . S
C403 C408 1.490 . S
C404 H394 0.946 . S
C404 C403 1.400 . S
C404 C407 1.386 . S
H405 C421 0.930 . S
H406 C422 0.931 . S
C407 H395 0.929 . S
C407 C401 1.390 . S
C407 C404 1.386 . S
C408 C403 1.490 . S
C408 C410 1.404 . S
C408 C411 1.403 . S
H409 C415 0.930 . S
C410 H396 0.927 1_545 S
C410 C408 1.404 . S
C410 C413 1.398 1_545 S
C411 C408 1.403 . S
C411 C412 1.524 . S
C411 C415 1.400 . S
C412 H397 0.960 . S
C412 H398 0.960 . S
C412 H399 0.960 . S
C412 C411 1.524 . S
C413 C410 1.398 1_565 S
C413 C414 1.392 . S
C413 C417 1.495 . S
C414 C413 1.392 . S
C414 C415 1.385 1_565 S
C414 C416 1.478 . S
C415 H409 0.930 . S
C415 C411 1.400 . S
C415 C414 1.385 1_545 S
C416 C414 1.478 . S
C416 C418 1.381 1_565 S
C416 C422 1.383 . S
C417 C413 1.495 . S
C417 H423 0.959 . S
C417 H424 0.961 . S
C417 H425 0.960 . S
C418 C416 1.381 1_545 S
C418 C419 1.394 1_545 S
C418 H426 0.930 . S
C419 C418 1.394 1_565 S
C419 C420 1.383 . S
C419 H427 0.929 1_565 S
C420 C419 1.383 . S
C420 C421 1.377 . S
C421 H405 0.930 . S
C421 C420 1.377 . S
C421 C422 1.379 . S
C422 H406 0.931 . S
C422 C416 1.383 . S
C422 C421 1.379 . S
H423 C417 0.959 . S
H424 C417 0.961 . S
H425 C417 0.960 . S
H426 C418 0.930 . S
H427 C419 0.929 1_545 S
H428 C436 0.929 . S
H429 C438 0.930 . S
H430 C440 0.930 . S
H431 C443 0.929 . S
H432 C446 0.930 . S
H433 C448 0.960 . S
H434 C448 0.960 . S
H435 C448 0.960 . S
C436 H428 0.929 . S
C436 C437 1.377 . S
C436 C438 1.384 . S
C437 C436 1.377 . S
C437 C443 1.390 . S
C438 H429 0.930 . S
C438 C436 1.384 . S
C438 C439 1.372 . S
C439 C438 1.372 . S
C439 C440 1.400 . S
C439 C444 1.490 . S
C440 H430 0.930 . S
C440 C439 1.400 . S
C440 C443 1.386 . S
H441 C457 0.930 . S
H442 C458 0.931 . S
C443 H431 0.929 . S
C443 C437 1.390 . S
C443 C440 1.386 . S
C444 C439 1.490 . S
C444 C446 1.395 . S
C444 C447 1.403 . S
H445 C451 0.930 . S
C446 H432 0.930 . S
C446 C444 1.395 . S
C446 C449 1.403 . S
C447 C444 1.403 . S
C447 C448 1.524 . S
C447 C451 1.400 . S
C448 H433 0.960 . S
C448 H434 0.960 . S
C448 H435 0.960 . S
C448 C447 1.524 . S
C449 C446 1.403 . S
C449 C450 1.392 . S
C449 C453 1.495 . S
C450 C449 1.392 . S
C450 C451 1.385 . S
C450 C452 1.478 . S
C451 H445 0.930 . S
C451 C447 1.400 . S
C451 C450 1.385 . S
C452 C450 1.478 . S
C452 C454 1.381 . S
C452 C458 1.383 . S
C453 C449 1.495 . S
C453 H459 0.959 . S
C453 H460 0.961 . S
C453 H461 0.960 . S
C454 C452 1.381 . S
C454 C455 1.394 . S
C454 H462 0.930 . S
C455 C454 1.394 . S
C455 C456 1.383 . S
C455 H463 0.929 . S
C456 C455 1.383 . S
C456 C457 1.377 . S
C457 H441 0.930 . S
C457 C456 1.377 . S
C457 C458 1.379 . S
C458 H442 0.931 . S
C458 C452 1.383 . S
C458 C457 1.379 . S
H459 C453 0.959 . S
H460 C453 0.961 . S
H461 C453 0.960 . S
H462 C454 0.930 . S
H463 C455 0.929 . S
H464 C472 0.929 . S
H465 C474 0.930 . S
H466 C476 0.930 . S
H467 C479 0.929 . S
H468 C482 0.930 . S
H469 C484 0.960 . S
H470 C484 0.960 . S
H471 C484 0.960 . S
C472 H464 0.929 . S
C472 C473 1.377 . S
C472 C474 1.384 . S
C473 C472 1.377 . S
C473 C479 1.390 . S
C474 H465 0.930 . S
C474 C472 1.384 . S
C474 C475 1.372 . S
C475 C474 1.372 . S
C475 C476 1.400 . S
C475 C480 1.490 . S
C476 H466 0.930 . S
C476 C475 1.400 . S
C476 C479 1.386 . S
H477 C493 0.930 . S
H478 C494 0.931 . S
C479 H467 0.929 . S
C479 C473 1.390 . S
C479 C476 1.386 . S
C480 C475 1.490 . S
C480 C482 1.395 . S
C480 C483 1.403 . S
H481 C487 0.930 . S
C482 H468 0.930 . S
C482 C480 1.395 . S
C482 C485 1.403 . S
C483 C480 1.403 . S
C483 C484 1.524 . S
C483 C487 1.400 . S
C484 H469 0.960 . S
C484 H470 0.960 . S
C484 H471 0.960 . S
C484 C483 1.524 . S
C485 C482 1.403 . S
C485 C486 1.392 . S
C485 C489 1.495 . S
C486 C485 1.392 . S
C486 C487 1.385 . S
C486 C488 1.478 . S
C487 H481 0.930 . S
C487 C483 1.400 . S
C487 C486 1.385 . S
C488 C486 1.478 . S
C488 C490 1.381 . S
C488 C494 1.383 . S
C489 C485 1.495 . S
C489 H495 0.959 . S
C489 H496 0.961 . S
C489 H497 0.960 . S
C490 C488 1.381 . S
C490 C491 1.394 . S
C490 H498 0.930 . S
C491 C490 1.394 . S
C491 C492 1.383 . S
C491 H499 0.929 . S
C492 C491 1.383 . S
C492 C493 1.377 . S
C493 H477 0.930 . S
C493 C492 1.377 . S
C493 C494 1.379 . S
C494 H478 0.931 . S
C494 C488 1.383 . S
C494 C493 1.379 . S
H495 C489 0.959 . S
H496 C489 0.961 . S
H497 C489 0.960 . S
H498 C490 0.930 . S
H499 C491 0.929 . S
H500 C508 0.929 . S
H501 C510 0.930 . S
H502 C512 0.930 1_655 S
H503 C515 0.929 . S
H504 C518 0.930 . S
H505 C520 0.960 . S
H506 C520 0.960 . S
H507 C520 0.960 . S
C508 H500 0.929 . S
C508 C509 1.377 . S
C508 C510 1.384 . S
C509 C508 1.377 . S
C509 C515 1.390 . S
C510 H501 0.930 . S
C510 C508 1.384 . S
C510 C511 1.372 . S
C511 C510 1.372 . S
C511 C512 1.400 . S
C511 C516 1.490 . S
C512 H502 0.930 1_455 S
C512 C511 1.400 . S
C512 C515 1.386 . S
H513 C529 0.930 . S
H514 C530 0.931 . S
C515 H503 0.929 . S
C515 C509 1.390 . S
C515 C512 1.386 . S
C516 C511 1.490 . S
C516 C518 1.395 . S
C516 C519 1.403 . S
H517 C523 0.930 . S
C518 H504 0.930 . S
C518 C516 1.395 . S
C518 C521 1.403 1_455 S
C519 C516 1.403 . S
C519 C520 1.524 . S
C519 C523 1.400 . S
C520 H505 0.960 . S
C520 H506 0.960 . S
C520 H507 0.960 . S
C520 C519 1.524 . S
C521 C518 1.403 1_655 S
C521 C522 1.392 . S
C521 C525 1.495 . S
C522 C521 1.392 . S
C522 C523 1.385 1_655 S
C522 C524 1.478 . S
C523 H517 0.930 . S
C523 C519 1.400 . S
C523 C522 1.385 1_455 S
C524 C522 1.478 . S
C524 C526 1.381 1_655 S
C524 C530 1.383 . S
C525 C521 1.495 . S
C525 H531 0.959 . S
C525 H532 0.961 . S
C525 H533 0.969 . S
C526 C524 1.381 1_455 S
C526 C527 1.394 1_455 S
C526 H534 0.930 . S
C527 C526 1.394 1_655 S
C527 C528 1.383 . S
C527 H535 0.929 1_655 S
C528 C527 1.383 . S
C528 C529 1.377 . S
C529 H513 0.930 . S
C529 C528 1.377 . S
C529 C530 1.379 . S
C530 H514 0.931 . S
C530 C524 1.383 . S
C530 C529 1.379 . S
H531 C525 0.959 . S
H532 C525 0.961 . S
H533 C525 0.969 . S
H534 C526 0.930 . S
H535 C527 0.929 1_455 S
H536 C544 0.929 . S
H537 C546 0.930 . S
H538 C548 0.930 . S
H539 C551 0.929 . S
H540 C554 0.930 . S
H541 C556 0.960 . S
H542 C556 0.960 . S
H543 C556 0.960 . S
C544 H536 0.929 . S
C544 C545 1.377 . S
C544 C546 1.384 . S
C545 C544 1.377 . S
C545 C551 1.390 . S
C546 H537 0.930 . S
C546 C544 1.384 . S
C546 C547 1.372 . S
C547 C546 1.372 . S
C547 C548 1.400 . S
C547 C552 1.490 . S
C548 H538 0.930 . S
C548 C547 1.400 . S
C548 C551 1.386 . S
H549 C565 0.930 . S
H550 C566 0.931 . S
C551 H539 0.929 . S
C551 C545 1.390 . S
C551 C548 1.386 . S
C552 C547 1.490 . S
C552 C554 1.395 1_545 S
C552 C555 1.403 . S
H553 C559 0.930 . S
C554 H540 0.930 . S
C554 C552 1.395 1_565 S
C554 C557 1.403 . S
C555 C552 1.403 . S
C555 C556 1.524 . S
C555 C559 1.400 . S
C556 H541 0.960 . S
C556 H542 0.960 . S
C556 H543 0.960 . S
C556 C555 1.524 . S
C557 C554 1.403 . S
C557 C558 1.392 . S
C557 C561 1.495 . S
C558 C557 1.392 . S
C558 C559 1.385 1_565 S
C558 C560 1.478 . S
C559 H553 0.930 . S
C559 C555 1.400 . S
C559 C558 1.385 1_545 S
C560 C558 1.478 . S
C560 C562 1.381 . S
C560 C566 1.383 . S
C561 C557 1.495 . S
C561 H567 0.959 . S
C561 H568 0.961 . S
C561 H569 0.960 . S
C562 C560 1.381 . S
C562 C563 1.394 . S
C562 H570 0.930 . S
C563 C562 1.394 . S
C563 C564 1.383 . S
C563 H571 0.929 . S
C564 C563 1.383 . S
C564 C565 1.377 . S
C565 H549 0.930 . S
C565 C564 1.377 . S
C565 C566 1.379 . S
C566 H550 0.931 . S
C566 C560 1.383 . S
C566 C565 1.379 . S
H567 C561 0.959 . S
H568 C561 0.961 . S
H569 C561 0.960 . S
H570 C562 0.930 . S
H571 C563 0.929 . S
H572 C580 0.929 . S
H573 C582 0.930 . S
H574 C584 0.930 . S
H575 C587 0.929 . S
H576 C590 0.930 . S
H577 C592 0.960 . S
H578 C592 0.960 . S
H579 C592 0.960 . S
C580 H572 0.929 . S
C580 C581 1.377 . S
C580 C582 1.384 . S
C581 C580 1.377 . S
C581 C587 1.390 . S
C582 H573 0.930 . S
C582 C580 1.384 . S
C582 C583 1.372 . S
C583 C582 1.372 . S
C583 C584 1.400 . S
C583 C588 1.490 . S
C584 H574 0.930 . S
C584 C583 1.400 . S
C584 C587 1.386 . S
H585 C601 0.930 . S
H586 C602 0.931 . S
C587 H575 0.929 . S
C587 C581 1.390 . S
C587 C584 1.386 . S
C588 C583 1.490 . S
C588 C590 1.395 . S
C588 C591 1.403 . S
H589 C595 0.930 . S
C590 H576 0.930 . S
C590 C588 1.395 . S
C590 C593 1.403 . S
C591 C588 1.403 . S
C591 C592 1.524 . S
C591 C595 1.400 . S
C592 H577 0.960 . S
C592 H578 0.960 . S
C592 H579 0.960 . S
C592 C591 1.524 . S
C593 C590 1.403 . S
C593 C594 1.392 . S
C593 C597 1.495 . S
C594 C593 1.392 . S
C594 C595 1.385 . S
C594 C596 1.478 . S
C595 H589 0.930 . S
C595 C591 1.400 . S
C595 C594 1.385 . S
C596 C594 1.478 . S
C596 C598 1.381 . S
C596 C602 1.383 . S
C597 C593 1.495 . S
C597 H603 0.959 . S
C597 H604 0.961 . S
C597 H605 0.960 . S
C598 C596 1.381 . S
C598 C599 1.394 . S
C598 H606 0.930 . S
C599 C598 1.394 . S
C599 C600 1.383 . S
C599 H607 0.929 . S
C600 C599 1.383 . S
C600 C601 1.377 . S
C601 H585 0.930 . S
C601 C600 1.377 . S
C601 C602 1.379 . S
C602 H586 0.931 . S
C602 C596 1.383 . S
C602 C601 1.379 . S
H603 C597 0.959 . S
H604 C597 0.961 . S
H605 C597 0.960 . S
H606 C598 0.930 . S
H607 C599 0.929 . S
H608 C616 0.929 . S
H609 C618 0.930 . S
H610 C620 0.930 . S
H611 C623 0.929 . S
H612 C626 0.930 . S
H613 C628 0.960 . S
H614 C628 0.960 . S
H615 C628 0.960 . S
C616 H608 0.929 . S
C616 C617 1.377 . S
C616 C618 1.384 . S
C617 C616 1.377 . S
C617 C623 1.390 . S
C618 H609 0.930 . S
C618 C616 1.384 . S
C618 C619 1.372 . S
C619 C618 1.372 . S
C619 C620 1.400 . S
C619 C624 1.490 . S
C620 H610 0.930 . S
C620 C619 1.400 . S
C620 C623 1.386 . S
H621 C637 0.930 . S
H622 C638 0.931 . S
C623 H611 0.929 . S
C623 C617 1.390 . S
C623 C620 1.386 . S
C624 C619 1.490 . S
C624 C626 1.395 . S
C624 C627 1.403 . S
H625 C631 0.930 . S
C626 H612 0.930 . S
C626 C624 1.395 . S
C626 C629 1.403 . S
C627 C624 1.403 . S
C627 C628 1.524 . S
C627 C631 1.400 . S
C628 H613 0.960 . S
C628 H614 0.960 . S
C628 H615 0.960 . S
C628 C627 1.524 . S
C629 C626 1.403 . S
C629 C630 1.392 . S
C629 C633 1.495 . S
C630 C629 1.392 . S
C630 C631 1.385 . S
C630 C632 1.478 . S
C631 H625 0.930 . S
C631 C627 1.400 . S
C631 C630 1.385 . S
C632 C630 1.478 . S
C632 C634 1.381 . S
C632 C638 1.383 . S
C633 C629 1.495 . S
C633 H639 0.959 . S
C633 H640 0.961 . S
C633 H641 0.960 . S
C634 C632 1.381 . S
C634 C635 1.394 . S
C634 H642 0.930 . S
C635 C634 1.394 . S
C635 C636 1.383 . S
C635 H643 0.929 . S
C636 C635 1.383 . S
C636 C637 1.377 . S
C637 H621 0.930 . S
C637 C636 1.377 . S
C637 C638 1.379 . S
C638 H622 0.931 . S
C638 C632 1.383 . S
C638 C637 1.379 . S
H639 C633 0.959 . S
H640 C633 0.961 . S
H641 C633 0.960 . S
H642 C634 0.930 . S
H643 C635 0.929 . S
H644 C652 0.929 . S
H645 C654 0.930 . S
H646 C656 0.930 . S
H647 C659 0.929 . S
H648 C662 0.930 . S
H649 C664 0.960 . S
H650 C664 0.960 . S
H651 C664 0.960 . S
C652 H644 0.929 . S
C652 C653 1.377 1_655 S
C652 C654 1.384 . S
C653 C652 1.377 1_455 S
C653 C659 1.390 . S
C654 H645 0.930 . S
C654 C652 1.384 . S
C654 C655 1.372 1_655 S
C655 C654 1.372 1_455 S
C655 C656 1.400 . S
C655 C660 1.490 1_455 S
C656 H646 0.930 . S
C656 C655 1.400 . S
C656 C659 1.386 . S
H657 C673 0.930 1_455 S
H658 C674 0.931 1_455 S
C659 H647 0.929 . S
C659 C653 1.390 . S
C659 C656 1.386 . S
C660 C655 1.490 1_655 S
C660 C662 1.395 . S
C660 C663 1.403 1_655 S
H661 C667 0.932 . S
C662 H648 0.930 . S
C662 C660 1.395 . S
C662 C665 1.403 . S
C663 C660 1.403 1_455 S
C663 C664 1.524 . S
C663 C667 1.401 . S
C664 H649 0.960 . S
C664 H650 0.960 . S
C664 H651 0.960 . S
C664 C663 1.524 . S
C665 C662 1.403 . S
C665 C666 1.392 . S
C665 C669 1.495 . S
C666 C665 1.392 . S
C666 C667 1.382 1_655 S
C666 C668 1.478 . S
C667 H661 0.932 . S
C667 C663 1.401 . S
C667 C666 1.382 1_455 S
C668 C666 1.478 . S
C668 C670 1.381 . S
C668 C674 1.383 . S
C669 C665 1.495 . S
C669 H675 0.959 . S
C669 H676 0.961 . S
C669 H677 0.960 . S
C670 C668 1.381 . S
C670 C671 1.394 . S
C670 H678 0.930 . S
C671 C670 1.394 . S
C671 C672 1.383 . S
C671 H679 0.929 . S
C672 C671 1.383 . S
C672 C673 1.377 . S
C673 H657 0.930 1_655 S
C673 C672 1.377 . S
C673 C674 1.379 . S
C674 H658 0.931 1_655 S
C674 C668 1.383 . S
C674 C673 1.379 . S
H675 C669 0.959 . S
H676 C669 0.961 . S
H677 C669 0.960 . S
H678 C670 0.930 . S
H679 C671 0.929 . S
H680 C688 0.929 . S
H681 C690 0.930 . S
H682 C692 0.930 1_545 S
H683 C695 0.929 1_545 S
H684 C698 0.930 . S
H685 C700 0.960 . S
H686 C700 0.960 1_565 S
H687 C700 0.960 . S
C688 H680 0.929 . S
C688 C689 1.377 . S
C688 C690 1.384 . S
C689 C688 1.377 . S
C689 C695 1.390 . S
C690 H681 0.930 . S
C690 C688 1.384 . S
C690 C691 1.372 . S
C691 C690 1.372 . S
C691 C692 1.400 . S
C691 C696 1.490 . S
C692 H682 0.930 1_565 S
C692 C691 1.400 . S
C692 C695 1.386 . S
H693 C709 0.930 . S
H694 C710 0.931 . S
C695 H683 0.929 1_565 S
C695 C689 1.390 . S
C695 C692 1.386 . S
C696 C691 1.490 . S
C696 C698 1.395 . S
C696 C699 1.403 . S
H697 C703 0.930 . S
C698 H684 0.930 . S
C698 C696 1.395 . S
C698 C701 1.403 . S
C699 C696 1.403 . S
C699 C700 1.524 1_565 S
C699 C703 1.400 1_565 S
C700 H685 0.960 . S
C700 H686 0.960 1_545 S
C700 H687 0.960 . S
C700 C699 1.524 1_545 S
C701 C698 1.403 . S
C701 C702 1.392 . S
C701 C705 1.495 . S
C702 C701 1.392 . S
C702 C703 1.385 1_565 S
C702 C704 1.478 1_565 S
C703 H697 0.930 . S
C703 C699 1.400 1_545 S
C703 C702 1.385 1_545 S
C704 C702 1.478 1_545 S
C704 C706 1.381 1_545 S
C704 C710 1.383 . S
C705 C701 1.495 . S
C705 H711 0.959 . S
C705 H712 0.961 . S
C705 H713 0.960 . S
C706 C704 1.381 1_565 S
C706 C707 1.394 . S
C706 H714 0.930 . S
C707 C706 1.394 . S
C707 C708 1.383 1_565 S
C707 H715 0.929 . S
C708 C707 1.383 1_545 S
C708 C709 1.377 . S
C709 H693 0.930 . S
C709 C708 1.377 . S
C709 C710 1.379 . S
C710 H694 0.931 . S
C710 C704 1.383 . S
C710 C709 1.379 . S
H711 C705 0.959 . S
H712 C705 0.961 . S
H713 C705 0.960 . S
H714 C706 0.930 . S
H715 C707 0.929 . S
H716 C724 0.929 . S
H717 C726 0.930 . S
H718 C728 0.930 . S
H719 C731 0.929 . S
H720 C734 0.930 . S
H721 C736 0.960 . S
H722 C736 0.960 . S
H723 C736 0.960 . S
C724 H716 0.929 . S
C724 C725 1.377 . S
C724 C726 1.384 . S
C725 C724 1.377 . S
C725 C731 1.390 . S
C726 H717 0.930 . S
C726 C724 1.384 . S
C726 C727 1.372 . S
C727 C726 1.372 . S
C727 C728 1.400 . S
C727 C732 1.490 . S
C728 H718 0.930 . S
C728 C727 1.400 . S
C728 C731 1.386 . S
H729 C745 0.930 . S
H730 C746 0.931 . S
C731 H719 0.929 . S
C731 C725 1.390 . S
C731 C728 1.386 . S
C732 C727 1.490 . S
C732 C734 1.395 . S
C732 C735 1.403 . S
H733 C739 0.930 . S
C734 H720 0.930 . S
C734 C732 1.395 . S
C734 C737 1.403 . S
C735 C732 1.403 . S
C735 C736 1.524 . S
C735 C739 1.400 . S
C736 H721 0.960 . S
C736 H722 0.960 . S
C736 H723 0.960 . S
C736 C735 1.524 . S
C737 C734 1.403 . S
C737 C738 1.392 . S
C737 C741 1.495 . S
C738 C737 1.392 . S
C738 C739 1.385 . S
C738 C740 1.478 . S
C739 H733 0.930 . S
C739 C735 1.400 . S
C739 C738 1.385 . S
C740 C738 1.478 . S
C740 C742 1.381 . S
C740 C746 1.383 . S
C741 C737 1.495 . S
C741 H747 0.959 . S
C741 H748 0.961 . S
C741 H749 0.960 . S
C742 C740 1.381 . S
C742 C743 1.394 . S
C742 H750 0.930 . S
C743 C742 1.394 . S
C743 C744 1.383 . S
C743 H751 0.929 . S
C744 C743 1.383 . S
C744 C745 1.377 . S
C745 H729 0.930 . S
C745 C744 1.377 . S
C745 C746 1.379 . S
C746 H730 0.931 . S
C746 C740 1.383 . S
C746 C745 1.379 . S
H747 C741 0.959 . S
H748 C741 0.961 . S
H749 C741 0.960 . S
H750 C742 0.930 . S
H751 C743 0.929 . S
H752 C760 0.929 . S
H753 C762 0.930 . S
H754 C764 0.930 . S
H755 C767 0.929 . S
H756 C770 0.930 . S
H757 C772 0.960 . S
H758 C772 0.960 . S
H759 C772 0.960 . S
C760 H752 0.929 . S
C760 C761 1.377 . S
C760 C762 1.384 . S
C761 C760 1.377 . S
C761 C767 1.390 . S
C762 H753 0.930 . S
C762 C760 1.384 . S
C762 C763 1.372 . S
C763 C762 1.372 . S
C763 C764 1.400 . S
C763 C768 1.490 . S
C764 H754 0.930 . S
C764 C763 1.400 . S
C764 C767 1.386 . S
H765 C781 0.930 . S
H766 C782 0.931 . S
C767 H755 0.929 . S
C767 C761 1.390 . S
C767 C764 1.386 . S
C768 C763 1.490 . S
C768 C770 1.395 . S
C768 C771 1.403 . S
H769 C775 0.930 . S
C770 H756 0.930 . S
C770 C768 1.395 . S
C770 C773 1.403 . S
C771 C768 1.403 . S
C771 C772 1.524 . S
C771 C775 1.400 . S
C772 H757 0.960 . S
C772 H758 0.960 . S
C772 H759 0.960 . S
C772 C771 1.524 . S
C773 C770 1.403 . S
C773 C774 1.392 . S
C773 C777 1.495 . S
C774 C773 1.392 . S
C774 C775 1.385 . S
C774 C776 1.478 . S
C775 H769 0.930 . S
C775 C771 1.400 . S
C775 C774 1.385 . S
C776 C774 1.478 . S
C776 C778 1.381 . S
C776 C782 1.383 . S
C777 C773 1.495 . S
C777 H783 0.959 . S
C777 H784 0.961 . S
C777 H785 0.960 . S
C778 C776 1.381 . S
C778 C779 1.394 . S
C778 H786 0.930 . S
C779 C778 1.394 . S
C779 C780 1.383 . S
C779 H787 0.929 . S
C780 C779 1.383 . S
C780 C781 1.377 . S
C781 H765 0.930 . S
C781 C780 1.377 . S
C781 C782 1.379 . S
C782 H766 0.931 . S
C782 C776 1.383 . S
C782 C781 1.379 . S
H783 C777 0.959 . S
H784 C777 0.961 . S
H785 C777 0.960 . S
H786 C778 0.930 . S
H787 C779 0.929 . S
H788 C796 0.929 . S
H789 C798 0.930 . S
H790 C800 0.930 . S
H791 C803 0.929 . S
H792 C806 0.930 . S
H793 C808 0.960 . S
H794 C808 0.960 . S
H795 C808 0.960 . S
C796 H788 0.929 . S
C796 C797 1.377 . S
C796 C798 1.384 . S
C797 C796 1.377 . S
C797 C803 1.390 . S
C798 H789 0.930 . S
C798 C796 1.384 . S
C798 C799 1.372 . S
C799 C798 1.372 . S
C799 C800 1.400 . S
C799 C804 1.490 . S
C800 H790 0.930 . S
C800 C799 1.400 . S
C800 C803 1.386 . S
H801 C817 0.930 . S
H802 C818 0.931 . S
C803 H791 0.929 . S
C803 C797 1.390 . S
C803 C800 1.386 . S
C804 C799 1.490 . S
C804 C806 1.395 . S
C804 C807 1.403 . S
H805 C811 0.930 . S
C806 H792 0.930 . S
C806 C804 1.395 . S
C806 C809 1.403 . S
C807 C804 1.403 . S
C807 C808 1.524 . S
C807 C811 1.400 . S
C808 H793 0.960 . S
C808 H794 0.960 . S
C808 H795 0.960 . S
C808 C807 1.524 . S
C809 C806 1.403 . S
C809 C810 1.392 . S
C809 C813 1.495 . S
C810 C809 1.392 . S
C810 C811 1.385 . S
C810 C812 1.478 . S
C811 H805 0.930 . S
C811 C807 1.400 . S
C811 C810 1.385 . S
C812 C810 1.478 . S
C812 C814 1.381 . S
C812 C818 1.383 . S
C813 C809 1.495 . S
C813 H819 0.959 . S
C813 H820 0.961 . S
C813 H821 0.960 . S
C814 C812 1.381 . S
C814 C815 1.394 . S
C814 H822 0.930 . S
C815 C814 1.394 . S
C815 C816 1.383 . S
C815 H823 0.929 . S
C816 C815 1.383 . S
C816 C817 1.377 . S
C817 H801 0.930 . S
C817 C816 1.377 . S
C817 C818 1.379 . S
C818 H802 0.931 . S
C818 C812 1.383 . S
C818 C817 1.379 . S
H819 C813 0.959 . S
H820 C813 0.961 . S
H821 C813 0.960 . S
H822 C814 0.930 . S
H823 C815 0.929 . S
H824 C832 0.929 . S
H825 C834 0.930 . S
H826 C836 0.930 . S
H827 C839 0.929 . S
H828 C842 0.930 . S
H829 C844 0.960 . S
H830 C844 0.960 . S
H831 C844 0.960 . S
C832 H824 0.929 . S
C832 C833 1.377 . S
C832 C834 1.384 . S
C833 C832 1.377 . S
C833 C839 1.390 . S
C834 H825 0.930 . S
C834 C832 1.384 . S
C834 C835 1.372 . S
C835 C834 1.372 . S
C835 C836 1.400 . S
C835 C840 1.490 . S
C836 H826 0.930 . S
C836 C835 1.400 . S
C836 C839 1.386 . S
H837 C853 0.930 . S
H838 C854 0.931 . S
C839 H827 0.929 . S
C839 C833 1.390 . S
C839 C836 1.386 . S
C840 C835 1.490 . S
C840 C842 1.395 . S
C840 C843 1.403 . S
H841 C847 0.930 . S
C842 H828 0.930 . S
C842 C840 1.395 . S
C842 C845 1.403 . S
C843 C840 1.403 . S
C843 C844 1.524 . S
C843 C847 1.400 . S
C844 H829 0.960 . S
C844 H830 0.960 . S
C844 H831 0.960 . S
C844 C843 1.524 . S
C845 C842 1.403 . S
C845 C846 1.392 . S
C845 C849 1.495 . S
C846 C845 1.392 . S
C846 C847 1.385 . S
C846 C848 1.478 . S
C847 H841 0.930 . S
C847 C843 1.400 . S
C847 C846 1.385 . S
C848 C846 1.478 . S
C848 C850 1.381 . S
C848 C854 1.383 . S
C849 C845 1.495 . S
C849 H855 0.959 . S
C849 H856 0.961 . S
C849 H857 0.960 . S
C850 C848 1.381 . S
C850 C851 1.394 . S
C850 H858 0.930 . S
C851 C850 1.394 . S
C851 C852 1.383 . S
C851 H859 0.929 . S
C852 C851 1.383 . S
C852 C853 1.377 . S
C853 H837 0.930 . S
C853 C852 1.377 . S
C853 C854 1.379 . S
C854 H838 0.931 . S
C854 C848 1.383 . S
C854 C853 1.379 . S
H855 C849 0.959 . S
H856 C849 0.961 . S
H857 C849 0.960 . S
H858 C850 0.930 . S
H859 C851 0.929 . S
H860 C868 0.929 . S
H861 C870 0.930 . S
H862 C872 0.930 . S
H863 C875 0.929 . S
H864 C878 0.930 . S
H865 C880 0.960 . S
H866 C880 0.960 . S
H867 C880 0.960 . S
C868 H860 0.929 . S
C868 C869 1.377 . S
C868 C870 1.384 . S
C869 C868 1.377 . S
C869 C875 1.390 . S
C870 H861 0.930 . S
C870 C868 1.384 . S
C870 C871 1.372 . S
C871 C870 1.372 . S
C871 C872 1.400 . S
C871 C876 1.490 . S
C872 H862 0.930 . S
C872 C871 1.400 . S
C872 C875 1.386 . S
H873 C889 0.930 . S
H874 C890 0.931 . S
C875 H863 0.929 . S
C875 C869 1.390 . S
C875 C872 1.386 . S
C876 C871 1.490 . S
C876 C878 1.395 . S
C876 C879 1.403 . S
H877 C883 0.930 . S
C878 H864 0.930 . S
C878 C876 1.395 . S
C878 C881 1.403 . S
C879 C876 1.403 . S
C879 C880 1.524 . S
C879 C883 1.400 . S
C880 H865 0.960 . S
C880 H866 0.960 . S
C880 H867 0.960 . S
C880 C879 1.524 . S
C881 C878 1.403 . S
C881 C882 1.392 . S
C881 C885 1.495 . S
C882 C881 1.392 . S
C882 C883 1.385 . S
C882 C884 1.478 . S
C883 H877 0.930 . S
C883 C879 1.400 . S
C883 C882 1.385 . S
C884 C882 1.478 . S
C884 C886 1.381 . S
C884 C890 1.383 . S
C885 C881 1.495 . S
C885 H891 0.959 . S
C885 H892 0.961 . S
C885 H893 0.960 . S
C886 C884 1.381 . S
C886 C887 1.394 . S
C886 H894 0.930 . S
C887 C886 1.394 . S
C887 C888 1.383 . S
C887 H895 0.929 . S
C888 C887 1.383 . S
C888 C889 1.377 . S
C889 H873 0.930 . S
C889 C888 1.377 . S
C889 C890 1.379 . S
C890 H874 0.931 . S
C890 C884 1.383 . S
C890 C889 1.379 . S
H891 C885 0.959 . S
H892 C885 0.961 . S
H893 C885 0.960 . S
H894 C886 0.930 . S
H895 C887 0.929 . S
H896 C904 0.929 . S
H897 C906 0.930 . S
H898 C908 0.930 . S
H899 C911 0.929 . S
H900 C914 0.930 . S
H901 C916 0.960 1_554 S
H902 C916 0.960 . S
H903 C916 0.960 . S
C904 H896 0.929 . S
C904 C905 1.377 . S
C904 C906 1.384 . S
C905 C904 1.377 . S
C905 C911 1.390 . S
C906 H897 0.930 . S
C906 C904 1.384 . S
C906 C907 1.372 . S
C907 C906 1.372 . S
C907 C908 1.400 . S
C907 C912 1.490 . S
C908 H898 0.930 . S
C908 C907 1.400 . S
C908 C911 1.386 . S
H909 C925 0.930 . S
H910 C926 0.931 . S
C911 H899 0.929 . S
C911 C905 1.390 . S
C911 C908 1.386 . S
C912 C907 1.490 . S
C912 C914 1.395 1_655 S
C912 C915 1.403 . S
H913 C919 0.930 . S
C914 H900 0.930 . S
C914 C912 1.395 1_455 S
C914 C917 1.403 1_556 S
C915 C912 1.403 . S
C915 C916 1.524 . S
C915 C919 1.400 1_556 S
C916 H901 0.960 1_556 S
C916 H902 0.960 . S
C916 H903 0.960 . S
C916 C915 1.524 . S
C917 C914 1.403 1_554 S
C917 C918 1.392 . S
C917 C921 1.495 . S
C918 C917 1.392 . S
C918 C919 1.385 1_455 S
C918 C920 1.478 . S
C919 H913 0.930 . S
C919 C915 1.400 1_554 S
C919 C918 1.385 1_655 S
C920 C918 1.478 . S
C920 C922 1.381 . S
C920 C926 1.383 . S
C921 C917 1.495 . S
C921 H927 0.959 1_554 S
C921 H928 0.961 . S
C921 H929 0.960 . S
C922 C920 1.381 . S
C922 C923 1.394 . S
C922 H930 0.930 . S
C923 C922 1.394 . S
C923 C924 1.383 . S
C923 H931 0.929 . S
C924 C923 1.383 . S
C924 C925 1.377 . S
C925 H909 0.930 . S
C925 C924 1.377 . S
C925 C926 1.379 . S
C926 H910 0.931 . S
C926 C920 1.383 . S
C926 C925 1.379 . S
H927 C921 0.959 1_556 S
H928 C921 0.961 . S
H929 C921 0.960 . S
H930 C922 0.930 . S
H931 C923 0.929 . S
H932 C940 0.929 . S
H933 C942 0.930 . S
H934 C944 0.930 . S
H935 C947 0.929 . S
H936 C950 0.930 . S
H937 C952 0.960 . S
H938 C952 0.960 . S
H939 C952 0.960 . S
C940 H932 0.929 . S
C940 C941 1.377 1_655 S
C940 C942 1.384 . S
C941 C940 1.377 1_455 S
C941 C947 1.390 . S
C942 H933 0.930 . S
C942 C940 1.384 . S
C942 C943 1.372 1_655 S
C943 C942 1.372 1_455 S
C943 C944 1.400 . S
C943 C948 1.490 . S
C944 H934 0.930 . S
C944 C943 1.400 . S
C944 C947 1.386 . S
H945 C961 0.930 . S
H946 C962 0.931 . S
C947 H935 0.929 . S
C947 C941 1.390 . S
C947 C944 1.386 . S
C948 C943 1.490 . S
C948 C950 1.395 1_455 S
C948 C951 1.403 1_545 S
H949 C955 0.930 . S
C950 H936 0.930 . S
C950 C948 1.395 1_655 S
C950 C953 1.403 . S
C951 C948 1.403 1_565 S
C951 C952 1.524 . S
C951 C955 1.400 . S
C952 H937 0.960 . S
C952 H938 0.960 . S
C952 H939 0.960 . S
C952 C951 1.524 . S
C953 C950 1.403 . S
C953 C954 1.406 . S
C953 C957 1.495 . S
C954 C953 1.406 . S
C954 C955 1.373 1_645 S
C954 C956 1.475 1_545 S
C955 H949 0.930 . S
C955 C951 1.400 . S
C955 C954 1.373 1_465 S
C956 C954 1.475 1_565 S
C956 C958 1.381 . S
C956 C962 1.383 1_655 S
C957 C953 1.495 . S
C957 H963 0.959 . S
C957 H964 0.961 . S
C957 H965 0.960 . S
C958 C956 1.381 . S
C958 C959 1.394 . S
C958 H966 0.930 . S
C959 C958 1.394 . S
C959 C960 1.383 . S
C959 H967 0.929 . S
C960 C959 1.383 . S
C960 C961 1.377 1_655 S
C961 H945 0.930 . S
C961 C960 1.377 1_455 S
C961 C962 1.379 . S
C962 H946 0.931 . S
C962 C956 1.383 1_455 S
C962 C961 1.379 . S
H963 C957 0.959 . S
H964 C957 0.961 . S
H965 C957 0.960 . S
H966 C958 0.930 . S
H967 C959 0.929 . S
H968 C976 0.929 . S
H969 C978 0.930 . S
H970 C980 0.930 . S
H971 C983 0.929 . S
H972 C986 0.930 . S
H973 C988 0.960 1_554 S
H974 C988 0.960 . S
H975 C988 0.960 . S
C976 H968 0.929 . S
C976 C977 1.377 1_545 S
C976 C978 1.384 . S
C977 C976 1.377 1_565 S
C977 C983 1.390 . S
C978 H969 0.930 . S
C978 C976 1.384 . S
C978 C979 1.372 1_545 S
C979 C978 1.372 1_565 S
C979 C980 1.400 . S
C979 C984 1.490 . S
C980 H970 0.930 . S
C980 C979 1.400 . S
C980 C983 1.386 . S
H981 C997 0.930 . S
H982 C998 0.931 . S
C983 H971 0.929 . S
C983 C977 1.390 . S
C983 C980 1.386 . S
C984 C979 1.490 . S
C984 C986 1.395 1_565 S
C984 C987 1.403 . S
H985 C991 0.930 . S
C986 H972 0.930 . S
C986 C984 1.395 1_545 S
C986 C989 1.403 1_556 S
C987 C984 1.403 . S
C987 C988 1.524 . S
C987 C991 1.400 1_556 S
C988 H973 0.960 1_556 S
C988 H974 0.960 . S
C988 H975 0.960 . S
C988 C987 1.524 . S
C989 C986 1.403 1_554 S
C989 C990 1.392 . S
C989 C993 1.495 . S
C990 C989 1.392 . S
C990 C991 1.385 1_545 S
C990 C992 1.478 . S
C991 H985 0.930 . S
C991 C987 1.400 1_554 S
C991 C990 1.385 1_565 S
C992 C990 1.478 . S
C992 C994 1.381 . S
C992 C998 1.383 1_545 S
C993 C989 1.495 . S
C993 H999 0.959 1_554 S
C993 H1000 0.961 . S
C993 H1001 0.960 . S
C994 C992 1.381 . S
C994 C995 1.394 . S
C994 H1002 0.930 . S
C995 C994 1.394 . S
C995 C996 1.383 . S
C995 H1003 0.929 . S
C996 C995 1.383 . S
C996 C997 1.377 1_545 S
C997 H981 0.930 . S
C997 C996 1.377 1_565 S
C997 C998 1.379 . S
C998 H982 0.931 . S
C998 C992 1.383 1_565 S
C998 C997 1.379 . S
H999 C993 0.959 1_556 S
H1000 C993 0.961 . S
H1001 C993 0.960 . S
H1002 C994 0.930 . S
H1003 C995 0.929 . S
H1004 C1012 0.929 . S
H1005 C1014 0.930 . S
H1006 C1016 0.930 . S
H1007 C1019 0.929 . S
H1008 C1022 0.930 . S
H1009 C1024 0.960 . S
H1010 C1024 0.960 . S
H1011 C1024 0.960 . S
C1012 H1004 0.929 . S
C1012 C1013 1.377 . S
C1012 C1014 1.384 . S
C1013 C1012 1.377 . S
C1013 C1019 1.390 . S
C1014 H1005 0.930 . S
C1014 C1012 1.384 . S
C1014 C1015 1.372 . S
C1015 C1014 1.372 . S
C1015 C1016 1.400 . S
C1015 C1020 1.490 . S
C1016 H1006 0.930 . S
C1016 C1015 1.400 . S
C1016 C1019 1.386 . S
H1017 C1033 0.930 . S
H1018 C1034 0.931 . S
C1019 H1007 0.929 . S
C1019 C1013 1.390 . S
C1019 C1016 1.386 . S
C1020 C1015 1.490 . S
C1020 C1022 1.395 . S
C1020 C1023 1.403 . S
H1021 C1027 0.930 . S
C1022 H1008 0.930 . S
C1022 C1020 1.395 . S
C1022 C1025 1.403 . S
C1023 C1020 1.403 . S
C1023 C1024 1.524 . S
C1023 C1027 1.400 . S
C1024 H1009 0.960 . S
C1024 H1010 0.960 . S
C1024 H1011 0.960 . S
C1024 C1023 1.524 . S
C1025 C1022 1.403 . S
C1025 C1026 1.392 . S
C1025 C1029 1.495 . S
C1026 C1025 1.392 . S
C1026 C1027 1.385 . S
C1026 C1028 1.478 . S
C1027 H1021 0.930 . S
C1027 C1023 1.400 . S
C1027 C1026 1.385 . S
C1028 C1026 1.478 . S
C1028 C1030 1.381 . S
C1028 C1034 1.383 . S
C1029 C1025 1.495 . S
C1029 H1035 0.959 . S
C1029 H1036 0.961 . S
C1029 H1037 0.960 . S
C1030 C1028 1.381 . S
C1030 C1031 1.394 . S
C1030 H1038 0.930 . S
C1031 C1030 1.394 . S
C1031 C1032 1.383 . S
C1031 H1039 0.929 . S
C1032 C1031 1.383 . S
C1032 C1033 1.377 . S
C1033 H1017 0.930 . S
C1033 C1032 1.377 . S
C1033 C1034 1.379 . S
C1034 H1018 0.931 . S
C1034 C1028 1.383 . S
C1034 C1033 1.379 . S
H1035 C1029 0.959 . S
H1036 C1029 0.961 . S
H1037 C1029 0.960 . S
H1038 C1030 0.930 . S
H1039 C1031 0.929 . S
C185 C98 1.162 . S
C204 C15 1.169 . S
C221 C120 1.166 . S
C240 C29 1.149 . S
C257 C65 1.156 . S
C276 C150 1.181 . S
C293 C81 1.159 . S
C312 C162 1.158 . S
C329 C95 1.165 . S
C348 C8 1.139 . S
C365 C32 1.165 . S
C384 C117 1.140 . S
C401 C62 1.164 . S
C420 C153 1.159 . S
C437 C74 1.160 . S
C456 C169 1.164 . S
C473 C125 1.171 . S
C492 C76 1.184 . S
C509 C10 1.162 . S
C528 C139 1.179 . S
C545 C40 1.166 . S
C564 C175 1.185 . S
C581 C52 1.156 . S
C600 C103 1.145 . S
C617 C87 1.171 . S
C636 C128 1.184 . S
C653 C21 1.166 . S
C672 C140 1.144 . S
C689 C164 1.159 . S
C708 C37 1.165 . S
C725 C106 1.160 . S
C744 C51 1.151 . S
C761 C7 1.603 . S
C780 C59 1.609 . S
C797 C43 1.603 . S
C816 C73 1.607 . S
C833 C147 1.603 . S
C852 C109 1.603 . S
C869 C161 1.608 . S
C888 C131 1.601 . S
C905 C118 1.419 . S
C924 C18 1.407 . S
C941 C30 1.421 . S
C960 C142 1.418 . S
C977 C172 1.418 . S
C996 C54 1.407 . S
C1013 C96 1.418 . S
C1032 C84 1.423 . S
