# Generated by pormake.
# Topology wli, (5)-cn, num edge types: 1
# Building blocks:
#     Node 0, Type 0, BuildingBlock: XOMCOT_clean_sbu_1, # of connection points: 5
#     Node 1, Type 0, BuildingBlock: XOMCOT_clean_sbu_1, # of connection points: 5
#     Node 2, Type 0, BuildingBlock: XOMCOT_clean_sbu_1, # of connection points: 5
#     Node 3, Type 0, BuildingBlock: XOMCOT_clean_sbu_1, # of connection points: 5
#     Node 4, Type 0, BuildingBlock: XOMCOT_clean_sbu_1, # of connection points: 5
#     Node 5, Type 0, BuildingBlock: XOMCOT_clean_sbu_1, # of connection points: 5
#     Edge 6, Type (0, 0), BuildingBlock: KIFKEQ_clean_linker_1, # of connection points: 2
#     Edge 7, Type (0, 0), BuildingBlock: KIFKEQ_clean_linker_1, # of connection points: 2
#     Edge 8, Type (0, 0), BuildingBlock: KIFKEQ_clean_linker_1, # of connection points: 2
#     Edge 9, Type (0, 0), BuildingBlock: KIFKEQ_clean_linker_1, # of connection points: 2
#     Edge 10, Type (0, 0), BuildingBlock: KIFKEQ_clean_linker_1, # of connection points: 2
#     Edge 11, Type (0, 0), BuildingBlock: KIFKEQ_clean_linker_1, # of connection points: 2
#     Edge 12, Type (0, 0), BuildingBlock: KIFKEQ_clean_linker_1, # of connection points: 2
#     Edge 13, Type (0, 0), BuildingBlock: KIFKEQ_clean_linker_1, # of connection points: 2
#     Edge 14, Type (0, 0), BuildingBlock: KIFKEQ_clean_linker_1, # of connection points: 2
#     Edge 15, Type (0, 0), BuildingBlock: KIFKEQ_clean_linker_1, # of connection points: 2
#     Edge 16, Type (0, 0), BuildingBlock: KIFKEQ_clean_linker_1, # of connection points: 2
#     Edge 17, Type (0, 0), BuildingBlock: KIFKEQ_clean_linker_1, # of connection points: 2
#     Edge 18, Type (0, 0), BuildingBlock: KIFKEQ_clean_linker_1, # of connection points: 2
#     Edge 19, Type (0, 0), BuildingBlock: KIFKEQ_clean_linker_1, # of connection points: 2
#     Edge 20, Type (0, 0), BuildingBlock: KIFKEQ_clean_linker_1, # of connection points: 2
# Relax obj value: 0.114
# Max RMSD: 0.138
# Mean RMSD: 0.138
data_MOF--net-wli--node1-XOMCOT_clean_sbu_1--edge1-KIFKEQ_clean_linker_1
_symmetry_space_group_name_H-M    P1
_symmetry_Int_Tables_number       1
_symmetry_cell_setting            triclinic
loop_
_symmetry_equiv_pos_as_xyz
'x, y, z'
_cell_length_a     35.910424
_cell_length_b     35.87711
_cell_length_c     27.583353
_cell_angle_alpha  89.990145
_cell_angle_beta   89.999751
_cell_angle_gamma 119.9993
loop_
_atom_site_label
_atom_site_type_symbol
_atom_site_fract_x
_atom_site_fract_y
_atom_site_fract_z
_atom_type_partial_charge
C0 C 0.21972 0.49252 0.02106 0.0
C1 C 0.24723 0.52662 0.99225 0.0
N2 N 0.288 0.53753 1.00352 0.0
N3 N 0.24294 0.48162 0.05003 0.0
C4 C 0.28435 0.50962 0.03875 0.0
H5 H 0.18504 0.47733 0.02183 0.0
Co6 Co 0.22116 0.44123 0.09963 0.0
C7 C 0.26847 0.39323 0.08983 0.0
O8 O 0.23212 0.35777 0.09909 0.0
N9 N 0.19857 0.402 0.15256 0.0
C10 C 0.19553 0.37148 0.22404 0.0
C11 C 0.22135 0.39366 0.18544 0.0
C12 C 0.15953 0.38658 0.17392 0.0
N13 N 0.15643 0.36716 0.21707 0.0
O14 O 0.25295 0.48651 0.14538 0.0
H15 H 0.25549 0.40539 0.18338 0.0
H16 H 0.1353 0.39336 0.16076 0.0
O17 O 0.26967 0.42963 0.09043 0.0
C18 C 0.22834 0.50001 0.16093 0.0
O19 O 0.1886 0.48132 0.14481 0.0
N20 N 0.18736 0.3983 0.0532 0.0
C21 C 0.13516 0.34715 0.97705 0.0
C22 C 0.17991 0.36539 0.97501 0.0
C23 C 0.2054 0.39151 0.01285 0.0
C24 C 0.1439 0.3814 0.05516 0.0
C25 C 0.11719 0.35508 0.01811 0.0
H26 H 0.23979 0.40837 0.00795 0.0
H27 H 0.12979 0.39091 0.0834 0.0
H28 H 0.31124 0.50983 0.05666 0.0
H29 H 0.2378 0.54292 0.96621 0.0
H30 H 0.20579 0.36127 0.25572 0.0
H31 H 0.19532 0.36096 0.94354 0.0
H32 H 0.08299 0.34346 0.02021 0.0
C33 C 0.56134 0.73822 0.69235 0.0
C34 C 0.52777 0.73236 0.66306 0.0
N35 N 0.52095 0.76564 0.67011 0.0
N36 N 0.57561 0.77502 0.71763 0.0
C37 C 0.55038 0.791 0.70339 0.0
H38 H 0.57379 0.71645 0.69611 0.0
Co39 Co 0.61595 0.79319 0.76708 0.0
C40 C 0.66349 0.88907 0.76012 0.0
O41 O 0.69907 0.88896 0.77094 0.0
N42 N 0.6553 0.80943 0.81963 0.0
C43 C 0.68395 0.83483 0.89231 0.0
C44 C 0.6612 0.83845 0.85434 0.0
C45 C 0.67318 0.78722 0.83889 0.0
N46 N 0.69125 0.80218 0.88292 0.0
O47 O 0.57095 0.78001 0.8129 0.0
H48 H 0.6474 0.85919 0.85377 0.0
H49 H 0.66922 0.75789 0.82349 0.0
O50 O 0.62771 0.85334 0.75858 0.0
C51 C 0.55798 0.74237 0.82971 0.0
O52 O 0.57709 0.72134 0.81479 0.0
N53 N 0.65841 0.80183 0.72066 0.0
C54 C 0.70782 0.7987 0.64384 0.0
C55 C 0.6942 0.82911 0.64428 0.0
C56 C 0.66859 0.82933 0.68218 0.0
C57 C 0.67091 0.77166 0.72036 0.0
C58 C 0.69625 0.77002 0.68293 0.0
H59 H 0.65464 0.84965 0.67834 0.0
H60 H 0.65818 0.74624 0.74688 0.0
H61 H 0.55217 0.81961 0.71874 0.0
H62 H 0.50957 0.70555 0.6388 0.0
H63 H 0.69243 0.85366 0.92524 0.0
H64 H 0.70145 0.85128 0.61438 0.0
H65 H 0.70405 0.7445 0.683 0.0
C66 C 0.31429 0.83743 0.3545 0.0
C67 C 0.32068 0.81009 0.32516 0.0
N68 N 0.29085 0.76919 0.33618 0.0
N69 N 0.28033 0.81403 0.3836 0.0
C70 C 0.26682 0.77265 0.37181 0.0
H71 H 0.33398 0.87212 0.35563 0.0
Co72 Co 0.26215 0.83534 0.43418 0.0
C73 C 0.16629 0.78548 0.42986 0.0
O74 O 0.16574 0.82032 0.44333 0.0
N75 N 0.24563 0.85729 0.48776 0.0
C76 C 0.22238 0.85814 0.56254 0.0
C77 C 0.21951 0.83265 0.52394 0.0
C78 C 0.26502 0.89777 0.50631 0.0
N79 N 0.25138 0.89922 0.55166 0.0
O80 O 0.27639 0.80334 0.47874 0.0
H81 H 0.20155 0.79785 0.52368 0.0
H82 H 0.29176 0.92513 0.48942 0.0
O83 O 0.20239 0.78645 0.42591 0.0
C84 C 0.31266 0.82816 0.49844 0.0
O85 O 0.33265 0.86931 0.48743 0.0
N86 N 0.25245 0.8693 0.38899 0.0
C87 C 0.25527 0.9222 0.31275 0.0
C88 C 0.22424 0.87837 0.31357 0.0
C89 C 0.22405 0.85234 0.35126 0.0
C90 C 0.28302 0.91184 0.38845 0.0
C91 C 0.28449 0.93904 0.35131 0.0
H92 H 0.2032 0.81815 0.34755 0.0
H93 H 0.30891 0.92411 0.4144 0.0
H94 H 0.24029 0.74561 0.38977 0.0
H95 H 0.34634 0.81971 0.29901 0.0
H96 H 0.20591 0.84687 0.59686 0.0
H97 H 0.20172 0.86374 0.28395 0.0
H98 H 0.31037 0.9722 0.35098 0.0
C99 C 0.49434 0.20087 0.99037 0.0
C100 C 0.52599 0.22587 0.02304 0.0
N101 N 0.54028 0.26755 0.01256 0.0
N102 N 0.48816 0.22659 0.95977 0.0
C103 C 0.51683 0.26707 0.97395 0.0
H104 H 0.47778 0.16615 0.98822 0.0
Co105 Co 0.45228 0.20845 0.9056 0.0
C106 C 0.40625 0.25832 0.90985 0.0
O107 O 0.37184 0.22474 0.89223 0.0
N108 N 0.41767 0.18977 0.84878 0.0
C109 C 0.39673 0.1918 0.77304 0.0
C110 C 0.4181 0.21588 0.81315 0.0
C111 C 0.39696 0.15005 0.82839 0.0
N112 N 0.38367 0.15026 0.78254 0.0
O113 O 0.50123 0.2427 0.8654 0.0
H114 H 0.4351 0.25064 0.81512 0.0
H115 H 0.3936 0.12158 0.84535 0.0
O116 O 0.44085 0.25669 0.91571 0.0
C117 C 0.51909 0.22013 0.85816 0.0
O118 O 0.50074 0.18106 0.87641 0.0
N119 N 0.40596 0.1717 0.94634 0.0
C120 C 0.35579 0.11323 0.01876 0.0
C121 C 0.36607 0.15643 0.02095 0.0
C122 C 0.39164 0.18526 0.98476 0.0
C123 C 0.39618 0.12985 0.94393 0.0
C124 C 0.37002 0.0999 0.97851 0.0
H125 H 0.40306 0.21894 0.99064 0.0
H126 H 0.4124 0.12037 0.9181 0.0
H127 H 0.52077 0.2956 0.95588 0.0
H128 H 0.53847 0.21423 0.05133 0.0
H129 H 0.3936 0.20434 0.73853 0.0
H130 H 0.35738 0.16875 0.05217 0.0
H131 H 0.36341 0.06708 0.97517 0.0
C132 C 0.85513 0.30384 0.66198 0.0
C133 C 0.82992 0.3103 0.69457 0.0
N134 N 0.78837 0.28423 0.6825 0.0
N135 N 0.82962 0.27338 0.62988 0.0
C136 C 0.78912 0.26224 0.64305 0.0
H137 H 0.88989 0.32091 0.66111 0.0
Co138 Co 0.84836 0.25613 0.57588 0.0
C139 C 0.79746 0.16032 0.57988 0.0
O140 O 0.83192 0.15936 0.56575 0.0
N141 N 0.86774 0.24093 0.51922 0.0
C142 C 0.86724 0.21582 0.44513 0.0
C143 C 0.84282 0.21227 0.48508 0.0
C144 C 0.90673 0.26324 0.49746 0.0
N145 N 0.90771 0.24817 0.4527 0.0
O146 O 0.81598 0.27277 0.53508 0.0
H147 H 0.80839 0.19151 0.48772 0.0
H148 H 0.93287 0.29246 0.51205 0.0
O149 O 0.79884 0.19664 0.58384 0.0
C150 C 0.83825 0.3134 0.5291 0.0
O151 O 0.87654 0.33418 0.54919 0.0
N152 N 0.88308 0.2439 0.61749 0.0
C153 C 0.93747 0.24435 0.69064 0.0
C154 C 0.89311 0.21551 0.69239 0.0
C155 C 0.86645 0.21645 0.65616 0.0
C156 C 0.92622 0.27213 0.61543 0.0
C157 C 0.95404 0.27233 0.65094 0.0
H158 H 0.83226 0.19759 0.66187 0.0
H159 H 0.93894 0.29764 0.58912 0.0
H160 H 0.76077 0.23869 0.62383 0.0
H161 H 0.84136 0.33326 0.72407 0.0
H162 H 0.85531 0.19686 0.41243 0.0
H163 H 0.87873 0.19399 0.72292 0.0
H164 H 0.98777 0.29661 0.64924 0.0
C165 C 0.75043 0.55972 0.32386 0.0
C166 C 0.74429 0.52846 0.35695 0.0
N167 N 0.77159 0.51414 0.34625 0.0
N168 N 0.78193 0.56559 0.29286 0.0
C169 C 0.79397 0.53712 0.30712 0.0
H170 H 0.73267 0.57671 0.32203 0.0
Co171 Co 0.79999 0.60195 0.23903 0.0
C172 C 0.89511 0.64966 0.24936 0.0
O173 O 0.89496 0.68501 0.23722 0.0
N174 N 0.81607 0.63684 0.18239 0.0
C175 C 0.84497 0.6667 0.11107 0.0
C176 C 0.84864 0.64606 0.15126 0.0
C177 C 0.79144 0.64948 0.15809 0.0
N178 N 0.8088 0.66898 0.11534 0.0
O179 O 0.78572 0.55338 0.19836 0.0
H180 H 0.87262 0.63657 0.15595 0.0
H181 H 0.75947 0.64122 0.16935 0.0
O182 O 0.85967 0.6136 0.24986 0.0
C183 C 0.7452 0.53482 0.19162 0.0
O184 O 0.72397 0.55228 0.21073 0.0
N185 N 0.80963 0.6484 0.28037 0.0
C186 C 0.80297 0.70002 0.3522 0.0
C187 C 0.83089 0.68365 0.35809 0.0
C188 C 0.83333 0.6575 0.3221 0.0
C189 C 0.78291 0.66476 0.27408 0.0
C190 C 0.78001 0.69147 0.30868 0.0
H191 H 0.85133 0.64154 0.33007 0.0
H192 H 0.76047 0.6541 0.24463 0.0
H193 H 0.81858 0.53326 0.28904 0.0
H194 H 0.72085 0.5165 0.38596 0.0
H195 H 0.86684 0.67801 0.08059 0.0
H196 H 0.84818 0.68813 0.39174 0.0
H197 H 0.75776 0.70308 0.30254 0.0
H198 H 0.32092 0.76027 0.2489 0.0
H199 H 0.2515 0.68898 0.37607 0.0
H200 H 0.31153 0.69422 0.21265 0.0
H201 H 0.24168 0.62297 0.33937 0.0
H202 H 0.17933 0.51421 0.224 0.0
H203 H 0.19885 0.57893 0.27045 0.0
H204 H 0.32972 0.6352 0.21939 0.0
H205 H 0.30983 0.56964 0.17228 0.0
C206 C 0.30415 0.73075 0.26951 0.0
C207 C 0.28661 0.73019 0.31538 0.0
C208 C 0.2989 0.69283 0.24869 0.0
C209 C 0.27579 0.6533 0.27305 0.0
C210 C 0.25922 0.65283 0.31938 0.0
C211 C 0.26463 0.69075 0.34031 0.0
C212 C 0.21247 0.54009 0.22323 0.0
C213 C 0.24304 0.53695 0.19439 0.0
C214 C 0.22372 0.57715 0.25012 0.0
C215 C 0.2658 0.61233 0.24855 0.0
C216 C 0.29693 0.60871 0.22103 0.0
C217 C 0.28571 0.57113 0.19445 0.0
H218 H 0.48877 0.75493 0.84 0.0
H219 H 0.54323 0.67946 0.89365 0.0
H220 H 0.42304 0.70999 0.887 0.0
H221 H 0.47828 0.63494 0.93997 0.0
H222 H 0.36762 0.57842 0.04445 0.0
H223 H 0.43396 0.63445 0.0082 0.0
H224 H 0.36395 0.63293 0.88031 0.0
H225 H 0.2976 0.57648 0.91614 0.0
C226 C 0.48702 0.72938 0.86256 0.0
C227 C 0.52096 0.72054 0.86304 0.0
C228 C 0.44935 0.70345 0.88908 0.0
C229 C 0.4454 0.66878 0.91707 0.0
C230 C 0.48035 0.66156 0.91924 0.0
C231 C 0.51752 0.68696 0.89242 0.0
C232 C 0.36623 0.58976 0.00854 0.0
C233 C 0.32708 0.57233 0.98311 0.0
C234 C 0.4043 0.62215 0.98788 0.0
C235 C 0.40426 0.63812 0.94133 0.0
C236 C 0.365 0.62178 0.91651 0.0
C237 C 0.32691 0.58924 0.93708 0.0
H238 H 0.36002 0.86817 0.57746 0.0
H239 H 0.31546 0.75341 0.49115 0.0
H240 H 0.40663 0.84996 0.62313 0.0
H241 H 0.36402 0.73593 0.53514 0.0
H242 H 0.44078 0.70412 0.64336 0.0
H243 H 0.38496 0.71504 0.60692 0.0
H244 H 0.4719 0.85262 0.60936 0.0
H245 H 0.52669 0.84142 0.64719 0.0
C246 C 0.36001 0.83873 0.56863 0.0
C247 C 0.33433 0.81223 0.5308 0.0
C248 C 0.38714 0.8285 0.59439 0.0
C249 C 0.39012 0.79202 0.58216 0.0
C250 C 0.36257 0.7642 0.54583 0.0
C251 C 0.33467 0.7741 0.52059 0.0
C252 C 0.44781 0.73663 0.63597 0.0
C253 C 0.48806 0.77196 0.64825 0.0
C254 C 0.41585 0.74294 0.615 0.0
C255 C 0.42356 0.78474 0.60537 0.0
C256 C 0.46413 0.81996 0.61734 0.0
C257 C 0.49578 0.81365 0.63883 0.0
H258 H 0.55239 0.27772 0.78219 0.0
H259 H 0.57989 0.19963 0.87845 0.0
H260 H 0.61974 0.2986 0.7379 0.0
H261 H 0.64647 0.22064 0.83527 0.0
H262 H 0.78138 0.29706 0.77777 0.0
H263 H 0.71814 0.28886 0.82019 0.0
H264 H 0.64754 0.25527 0.68553 0.0
H265 H 0.71127 0.26394 0.64271 0.0
C266 C 0.57309 0.26564 0.79424 0.0
C267 C 0.56099 0.23702 0.83357 0.0
C268 C 0.61131 0.27727 0.76882 0.0
C269 C 0.63829 0.26125 0.78328 0.0
C270 C 0.62658 0.2338 0.82355 0.0
C271 C 0.58831 0.22161 0.84812 0.0
C272 C 0.75263 0.28854 0.75702 0.0
C273 C 0.75127 0.28084 0.70693 0.0
C274 C 0.71638 0.2837 0.78135 0.0
C275 C 0.67796 0.27142 0.75614 0.0
C276 C 0.67687 0.26511 0.70577 0.0
C277 C 0.71312 0.26951 0.68142 0.0
H278 H 0.75903 0.49583 0.44185 0.0
H279 H 0.79375 0.45805 0.30841 0.0
H280 H 0.76876 0.44235 0.48598 0.0
H281 H 0.80374 0.40444 0.35286 0.0
H282 H 0.78125 0.28809 0.4526 0.0
H283 H 0.76034 0.33372 0.40659 0.0
H284 H 0.83801 0.44019 0.50193 0.0
H285 H 0.85915 0.39543 0.54683 0.0
C286 C 0.76824 0.47574 0.42185 0.0
C287 C 0.7759 0.48137 0.3717 0.0
C288 C 0.77394 0.44524 0.44714 0.0
C289 C 0.78698 0.41927 0.42282 0.0
C290 C 0.79334 0.42382 0.37241 0.0
C291 C 0.78815 0.45482 0.34713 0.0
C292 C 0.79336 0.32111 0.4638 0.0
C293 C 0.82187 0.3383 0.50312 0.0
C294 C 0.78168 0.34722 0.43741 0.0
C295 C 0.79754 0.39044 0.45083 0.0
C296 C 0.825 0.40695 0.491 0.0
C297 C 0.83726 0.38133 0.51655 0.0
H298 H 0.56198 0.27264 0.10708 0.0
H299 H 0.59514 0.34616 0.97432 0.0
H300 H 0.61719 0.3353 0.15014 0.0
H301 H 0.65031 0.40933 0.01784 0.0
H302 H 0.76885 0.50421 0.1126 0.0
H303 H 0.72246 0.43739 0.06732 0.0
H304 H 0.61999 0.40567 0.16983 0.0
H305 H 0.66549 0.47174 0.21401 0.0
C306 C 0.58138 0.30204 0.08695 0.0
C307 C 0.57392 0.30447 0.03735 0.0
C308 C 0.6129 0.33797 0.11167 0.0
C309 C 0.63802 0.37717 0.08734 0.0
C310 C 0.63164 0.3794 0.03739 0.0
C311 C 0.5997 0.34344 0.01267 0.0
C312 C 0.73661 0.48249 0.12558 0.0
C313 C 0.72064 0.49305 0.16663 0.0
C314 C 0.71005 0.44457 0.0996 0.0
C315 C 0.66765 0.41638 0.11515 0.0
C316 C 0.65256 0.42651 0.1572 0.0
C317 C 0.67859 0.46447 0.18236 0.0
H318 H 0.91886 0.24436 0.78658 0.0
H319 H 1.01964 0.25761 0.69027 0.0
H320 H 0.96711 0.26223 0.85526 0.0
H321 H 0.06817 0.2753 0.75943 0.0
H322 H 0.15237 0.36894 0.88147 0.0
H323 H 0.10474 0.33668 0.81255 0.0
H324 H 1.00786 0.2416 0.90711 0.0
H325 H 0.05569 0.27428 0.97645 0.0
C326 C 0.951 0.24991 0.78019 0.0
C327 C 0.9654 0.24958 0.73287 0.0
C328 C 0.97875 0.2602 0.81969 0.0
C329 C 1.02163 0.2704 0.81292 0.0
C330 C 0.03553 0.26827 0.76583 0.0
C331 C 1.00774 0.25806 0.72623 0.0
C332 C 0.12133 0.34054 0.88749 0.0
C333 C 0.1078 0.32424 0.93453 0.0
C334 C 0.09395 0.32198 0.84786 0.0
C335 C 0.05236 0.28661 0.85425 0.0
C336 C 0.03945 0.26923 0.90104 0.0
C337 C 0.06683 0.2879 0.94074 0.0
H338 H 0.8589 0.7575 0.41966 0.0
H339 H 0.72465 0.68788 0.37916 0.0
H340 H 0.84091 0.78759 0.4897 0.0
H341 H 0.70713 0.71817 0.44789 0.0
H342 H 0.68939 0.80397 0.54887 0.0
H343 H 0.71763 0.78708 0.47743 0.0
H344 H 0.80004 0.76085 0.56784 0.0
H345 H 0.77291 0.7795 0.63978 0.0
C346 C 0.8257 0.74882 0.42546 0.0
C347 C 0.79335 0.72074 0.39331 0.0
C348 C 0.81544 0.76604 0.46551 0.0
C349 C 0.77268 0.75562 0.47398 0.0
C350 C 0.74053 0.72771 0.44174 0.0
C351 C 0.75067 0.71043 0.4021 0.0
C352 C 0.7144 0.79581 0.55365 0.0
C353 C 0.72882 0.79304 0.60019 0.0
C354 C 0.73021 0.7856 0.51263 0.0
C355 C 0.76068 0.77215 0.51704 0.0
C356 C 0.77669 0.77128 0.56328 0.0
C357 C 0.76084 0.78154 0.60448 0.0
H358 H 0.2927 0.10761 0.08075 0.0
H359 H 0.37412 0.05284 0.05358 0.0
H360 H 0.26272 0.06085 0.15189 0.0
H361 H 0.34306 1.00563 0.12266 0.0
H362 H 0.25184 0.89821 0.2184 0.0
H363 H 0.27003 0.94323 0.14649 0.0
H364 H 0.29255 0.05167 0.23516 0.0
H365 H 0.2735 1.00621 0.30771 0.0
C366 C 0.30404 0.08558 0.08959 0.0
C367 C 0.33541 0.08367 0.06073 0.0
C368 C 0.28679 0.0588 0.13022 0.0
C369 C 0.3002 0.02929 0.14231 0.0
C370 C 0.3314 0.02738 0.11354 0.0
C371 C 0.34898 0.05436 0.07359 0.0
C372 C 0.25953 0.93132 0.22264 0.0
C373 C 0.26121 0.94863 0.26885 0.0
C374 C 0.27034 0.95719 0.18142 0.0
C375 C 0.28298 1.00096 0.18534 0.0
C376 C 0.2827 1.01795 0.23115 0.0
C377 C 0.27215 0.99205 0.27261 0.0
H378 H 0.44351 0.30333 0.99326 0.0
H379 H 0.35513 0.28954 0.87935 0.0
H380 H 0.42112 0.34713 0.03987 0.0
H381 H 0.33403 0.33446 0.92504 0.0
H382 H 0.29534 0.33863 0.11985 0.0
H383 H 0.34099 0.3177 0.07554 0.0
H384 H 0.36444 0.41305 0.96632 0.0
H385 H 0.31996 0.4353 0.0119 0.0
C386 C 0.42049 0.31092 0.9774 0.0
C387 C 0.40098 0.2929 0.93265 0.0
C388 C 0.40755 0.3358 1.00419 0.0
C389 C 0.37585 0.34423 0.98607 0.0
C390 C 0.35881 0.32889 0.93973 0.0
C391 C 0.37083 0.30309 0.91362 0.0
C392 C 0.31154 0.35622 0.08732 0.0
C393 C 0.3042 0.38867 0.06944 0.0
C394 C 0.33769 0.34423 0.06195 0.0
C395 C 0.35616 0.36362 0.01738 0.0
C396 C 0.35064 0.39762 1.00063 0.0
C397 C 0.32542 0.41051 0.02685 0.0
H398 H 0.75019 0.15282 0.66116 0.0
H399 H 0.76651 0.0781 0.54934 0.0
H400 H 0.70608 0.08674 0.70785 0.0
H401 H 0.72116 1.01215 0.59497 0.0
H402 H 0.71751 0.97102 0.78936 0.0
H403 H 0.73733 0.03716 0.74453 0.0
H404 H 0.64193 0.9637 0.6361 0.0
H405 H 0.62078 0.89743 0.68213 0.0
C406 C 0.74299 0.12218 0.64568 0.0
C407 C 0.7619 0.12061 0.60163 0.0
C408 C 0.71793 0.08442 0.67251 0.0
C409 C 0.71021 0.04433 0.65502 0.0
C410 C 0.72621 0.0425 0.60914 0.0
C411 C 0.75221 0.08026 0.58305 0.0
C412 C 0.69969 0.96918 0.75688 0.0
C413 C 0.6676 0.92908 0.73931 0.0
C414 C 0.711 1.00705 0.73125 0.0
C415 C 0.69126 1.00556 0.68676 0.0
C416 C 0.65758 0.96575 0.67036 0.0
C417 C 0.64536 0.92789 0.69683 0.0
H418 H 0.15803 0.73628 0.35003 0.0
H419 H 0.08436 0.75613 0.46017 0.0
H420 H 0.09176 0.69179 0.30391 0.0
H421 H 1.01823 0.71045 0.41514 0.0
H422 H 0.97712 0.70241 0.2197 0.0
H423 H 0.04305 0.72274 0.26512 0.0
H424 H 0.96884 0.63083 0.37639 0.0
H425 H 0.90275 0.60921 0.32983 0.0
C426 C 0.12757 0.72982 0.36529 0.0
C427 C 0.12636 0.74983 0.40864 0.0
C428 C 0.08971 0.70454 0.33878 0.0
C429 C 0.04987 0.6977 0.35594 0.0
C430 C 0.04837 0.71481 0.40123 0.0
C431 C 0.08624 0.74101 0.42697 0.0
C432 C 0.97507 0.68546 0.253 0.0
C433 C 0.93487 0.65415 0.27113 0.0
C434 C 1.01281 0.69705 0.27896 0.0
C435 C 1.01107 0.67842 0.32432 0.0
C436 C 0.97108 0.64558 0.34144 0.0
C437 C 0.93335 0.63307 0.31469 0.0
H438 H 0.90536 0.2308 0.35574 0.0
H439 H 0.99242 0.30476 0.47146 0.0
H440 H 0.96508 0.25839 0.29968 0.0
H441 H 0.05172 0.33443 0.41445 0.0
H442 H 0.15664 0.34744 0.3129 0.0
H443 H 0.09671 0.31792 0.36873 0.0
H444 H 1.01418 0.31953 0.2558 0.0
H445 H 0.07353 0.34654 0.19886 0.0
C446 C 0.93701 0.25301 0.36955 0.0
C447 C 0.94344 0.26531 0.41875 0.0
C448 C 0.97147 0.2694 0.33689 0.0
C449 C 1.01351 0.29891 0.35216 0.0
C450 C 1.02001 0.31136 0.40124 0.0
C451 C 0.98561 0.29466 0.43404 0.0
C452 C 0.1258 0.34119 0.29942 0.0
C453 C 0.12053 0.34975 0.25078 0.0
C454 C 0.09127 0.32466 0.33196 0.0
C455 C 0.05034 0.31641 0.31717 0.0
C456 C 0.04497 0.3249 0.26862 0.0
C457 C 0.07942 0.34107 0.2359 0.0
H458 H 0.7183 0.7453 0.86078 0.0
H459 H 0.7058 0.81632 0.98028 0.0
H460 H 0.74513 0.71159 0.9163 0.0
H461 H 0.73502 0.78474 0.0348 0.0
H462 H 0.74644 0.68968 0.13159 0.0
H463 H 0.71763 0.72019 0.07465 0.0
H464 H 0.80452 0.72321 0.96438 0.0
H465 H 0.83156 0.69016 0.02039 0.0
C466 C 0.72122 0.75393 0.89871 0.0
C467 C 0.70927 0.78355 0.91558 0.0
C468 C 0.73724 0.73489 0.93062 0.0
C469 C 0.74218 0.74514 0.98034 0.0
C470 C 0.73096 0.77527 0.99704 0.0
C471 C 0.71463 0.79401 0.96529 0.0
C472 C 0.75909 0.69609 0.09508 0.0
C473 C 0.79144 0.68703 0.08103 0.0
C474 C 0.74289 0.71433 0.06241 0.0
C475 C 0.75882 0.72458 0.01474 0.0
C476 C 0.79101 0.71539 1.00053 0.0
C477 C 0.80699 0.6968 0.0331 0.0
H478 H 0.38888 0.07709 0.78404 0.0
H479 H 0.33444 0.14187 0.70384 0.0
H480 H 0.35633 1.01717 0.72766 0.0
H481 H 0.30192 0.08164 0.64697 0.0
H482 H 0.28826 0.98391 0.52798 0.0
H483 H 0.3204 0.04545 0.58333 0.0
H484 H 0.28603 0.9586 0.70501 0.0
H485 H 0.25529 0.8976 0.64997 0.0
C486 C 0.36954 0.07846 0.75481 0.0
C487 C 0.36409 0.11443 0.74897 0.0
C488 C 0.35088 0.04397 0.72226 0.0
C489 C 0.32626 0.04436 0.68281 0.0
C490 C 0.32106 0.08043 0.67662 0.0
C491 C 0.33968 0.11498 0.7093 0.0
C492 C 0.28774 0.97802 0.56652 0.0
C493 C 0.26907 0.93568 0.58435 0.0
C494 C 0.30581 1.01328 0.59832 0.0
C495 C 0.30595 1.00706 0.64871 0.0
C496 C 0.28699 0.9647 0.66644 0.0
C497 C 0.2688 0.92956 0.63478 0.0
loop_
_geom_bond_atom_site_label_1
_geom_bond_atom_site_label_2
_geom_bond_distance
_geom_bond_site_symmetry_2
_ccdc_geom_bond_type
C0 C1 1.351 1_554 S
C0 N3 1.368 . S
C0 H5 0.931 . S
C1 C0 1.351 1_556 S
C1 N2 1.373 . S
C1 H29 0.930 . S
N2 C1 1.373 . S
N2 C4 1.340 . S
N3 C0 1.368 . S
N3 C4 1.321 1_554 S
N3 Co6 2.135 . S
C4 N2 1.340 . S
C4 N3 1.321 1_556 S
C4 H28 0.930 . S
H5 C0 0.931 . S
Co6 N3 2.135 . S
Co6 N9 2.121 . S
Co6 O14 2.055 . S
Co6 O17 2.039 . S
Co6 N20 2.140 . S
C7 O8 1.227 . S
C7 O17 1.265 . S
O8 C7 1.227 . S
N9 Co6 2.121 . S
N9 C11 1.375 . S
N9 C12 1.313 . S
C10 C11 1.338 . S
C10 N13 1.377 . S
C10 H30 0.930 . S
C11 N9 1.375 . S
C11 C10 1.338 . S
C11 H15 0.931 . S
C12 N9 1.313 . S
C12 N13 1.344 . S
C12 H16 0.930 . S
N13 C10 1.377 . S
N13 C12 1.344 . S
O14 Co6 2.055 . S
O14 C18 1.253 . S
H15 C11 0.931 . S
H16 C12 0.930 . S
O17 Co6 2.039 . S
O17 C7 1.265 . S
C18 O14 1.253 . S
C18 O19 1.227 . S
O19 C18 1.227 . S
N20 Co6 2.140 . S
N20 C23 1.346 1_554 S
N20 C24 1.345 . S
C21 C22 1.387 . S
C21 C25 1.391 . S
C22 C21 1.387 . S
C22 C23 1.369 . S
C22 H31 0.929 . S
C23 N20 1.346 1_556 S
C23 C22 1.369 . S
C23 H26 0.928 . S
C24 N20 1.345 . S
C24 C25 1.371 1_554 S
C24 H27 0.931 . S
C25 C21 1.391 . S
C25 C24 1.371 1_556 S
C25 H32 0.930 1_556 S
H26 C23 0.928 . S
H27 C24 0.931 . S
H28 C4 0.930 . S
H29 C1 0.930 . S
H30 C10 0.930 . S
H31 C22 0.929 . S
H32 C25 0.930 1_554 S
C33 C34 1.351 . S
C33 N36 1.368 . S
C33 H38 0.931 . S
C34 C33 1.351 . S
C34 N35 1.373 . S
C34 H62 0.930 . S
N35 C34 1.373 . S
N35 C37 1.340 . S
N36 C33 1.368 . S
N36 C37 1.321 . S
N36 Co39 2.135 . S
C37 N35 1.340 . S
C37 N36 1.321 . S
C37 H61 0.930 . S
H38 C33 0.931 . S
Co39 N36 2.135 . S
Co39 N42 2.121 . S
Co39 O47 2.055 . S
Co39 O50 2.039 . S
Co39 N53 2.140 . S
C40 O41 1.227 . S
C40 O50 1.265 . S
O41 C40 1.227 . S
N42 Co39 2.121 . S
N42 C44 1.375 . S
N42 C45 1.313 . S
C43 C44 1.338 . S
C43 N46 1.377 . S
C43 H63 0.930 . S
C44 N42 1.375 . S
C44 C43 1.338 . S
C44 H48 0.931 . S
C45 N42 1.313 . S
C45 N46 1.344 . S
C45 H49 0.930 . S
N46 C43 1.377 . S
N46 C45 1.344 . S
O47 Co39 2.055 . S
O47 C51 1.253 . S
H48 C44 0.931 . S
H49 C45 0.930 . S
O50 Co39 2.039 . S
O50 C40 1.265 . S
C51 O47 1.253 . S
C51 O52 1.227 . S
O52 C51 1.227 . S
N53 Co39 2.140 . S
N53 C56 1.346 . S
N53 C57 1.345 . S
C54 C55 1.387 . S
C54 C58 1.391 . S
C55 C54 1.387 . S
C55 C56 1.369 . S
C55 H64 0.929 . S
C56 N53 1.346 . S
C56 C55 1.369 . S
C56 H59 0.928 . S
C57 N53 1.345 . S
C57 C58 1.371 . S
C57 H60 0.931 . S
C58 C54 1.391 . S
C58 C57 1.371 . S
C58 H65 0.930 . S
H59 C56 0.928 . S
H60 C57 0.931 . S
H61 C37 0.930 . S
H62 C34 0.930 . S
H63 C43 0.930 . S
H64 C55 0.929 . S
H65 C58 0.930 . S
C66 C67 1.351 . S
C66 N69 1.368 . S
C66 H71 0.931 . S
C67 C66 1.351 . S
C67 N68 1.373 . S
C67 H95 0.930 . S
N68 C67 1.373 . S
N68 C70 1.340 . S
N69 C66 1.368 . S
N69 C70 1.321 . S
N69 Co72 2.135 . S
C70 N68 1.340 . S
C70 N69 1.321 . S
C70 H94 0.930 . S
H71 C66 0.931 . S
Co72 N69 2.135 . S
Co72 N75 2.121 . S
Co72 O80 2.055 . S
Co72 O83 2.039 . S
Co72 N86 2.140 . S
C73 O74 1.227 . S
C73 O83 1.265 . S
O74 C73 1.227 . S
N75 Co72 2.121 . S
N75 C77 1.375 . S
N75 C78 1.313 . S
C76 C77 1.338 . S
C76 N79 1.377 . S
C76 H96 0.930 . S
C77 N75 1.375 . S
C77 C76 1.338 . S
C77 H81 0.931 . S
C78 N75 1.313 . S
C78 N79 1.344 . S
C78 H82 0.930 . S
N79 C76 1.377 . S
N79 C78 1.344 . S
O80 Co72 2.055 . S
O80 C84 1.253 . S
H81 C77 0.931 . S
H82 C78 0.930 . S
O83 Co72 2.039 . S
O83 C73 1.265 . S
C84 O80 1.253 . S
C84 O85 1.227 . S
O85 C84 1.227 . S
N86 Co72 2.140 . S
N86 C89 1.346 . S
N86 C90 1.345 . S
C87 C88 1.387 . S
C87 C91 1.391 . S
C88 C87 1.387 . S
C88 C89 1.369 . S
C88 H97 0.929 . S
C89 N86 1.346 . S
C89 C88 1.369 . S
C89 H92 0.928 . S
C90 N86 1.345 . S
C90 C91 1.371 . S
C90 H93 0.931 . S
C91 C87 1.391 . S
C91 C90 1.371 . S
C91 H98 0.930 . S
H92 C89 0.928 . S
H93 C90 0.931 . S
H94 C70 0.930 . S
H95 C67 0.930 . S
H96 C76 0.930 . S
H97 C88 0.929 . S
H98 C91 0.930 . S
C99 C100 1.351 1_556 S
C99 N102 1.368 . S
C99 H104 0.931 . S
C100 C99 1.351 1_554 S
C100 N101 1.373 . S
C100 H128 0.930 . S
N101 C100 1.373 . S
N101 C103 1.340 . S
N102 C99 1.368 . S
N102 C103 1.321 1_556 S
N102 Co105 2.135 . S
C103 N101 1.340 . S
C103 N102 1.321 1_554 S
C103 H127 0.930 . S
H104 C99 0.931 . S
Co105 N102 2.135 . S
Co105 N108 2.121 . S
Co105 O113 2.055 . S
Co105 O116 2.039 . S
Co105 N119 2.140 . S
C106 O107 1.227 . S
C106 O116 1.265 . S
O107 C106 1.227 . S
N108 Co105 2.121 . S
N108 C110 1.375 . S
N108 C111 1.313 . S
C109 C110 1.338 . S
C109 N112 1.377 . S
C109 H129 0.930 . S
C110 N108 1.375 . S
C110 C109 1.338 . S
C110 H114 0.931 . S
C111 N108 1.313 . S
C111 N112 1.344 . S
C111 H115 0.930 . S
N112 C109 1.377 . S
N112 C111 1.344 . S
O113 Co105 2.055 . S
O113 C117 1.253 . S
H114 C110 0.931 . S
H115 C111 0.930 . S
O116 Co105 2.039 . S
O116 C106 1.265 . S
C117 O113 1.253 . S
C117 O118 1.227 . S
O118 C117 1.227 . S
N119 Co105 2.140 . S
N119 C122 1.346 1_556 S
N119 C123 1.345 . S
C120 C121 1.387 . S
C120 C124 1.391 . S
C121 C120 1.387 . S
C121 C122 1.369 . S
C121 H130 0.929 . S
C122 N119 1.346 1_554 S
C122 C121 1.369 . S
C122 H125 0.928 . S
C123 N119 1.345 . S
C123 C124 1.371 1_556 S
C123 H126 0.931 . S
C124 C120 1.391 . S
C124 C123 1.371 1_554 S
C124 H131 0.930 1_554 S
H125 C122 0.928 . S
H126 C123 0.931 . S
H127 C103 0.930 . S
H128 C100 0.930 . S
H129 C109 0.930 . S
H130 C121 0.929 . S
H131 C124 0.930 1_556 S
C132 C133 1.351 . S
C132 N135 1.368 . S
C132 H137 0.931 . S
C133 C132 1.351 . S
C133 N134 1.373 . S
C133 H161 0.930 . S
N134 C133 1.373 . S
N134 C136 1.340 . S
N135 C132 1.368 . S
N135 C136 1.321 . S
N135 Co138 2.135 . S
C136 N134 1.340 . S
C136 N135 1.321 . S
C136 H160 0.930 . S
H137 C132 0.931 . S
Co138 N135 2.135 . S
Co138 N141 2.121 . S
Co138 O146 2.055 . S
Co138 O149 2.039 . S
Co138 N152 2.140 . S
C139 O140 1.227 . S
C139 O149 1.265 . S
O140 C139 1.227 . S
N141 Co138 2.121 . S
N141 C143 1.375 . S
N141 C144 1.313 . S
C142 C143 1.338 . S
C142 N145 1.377 . S
C142 H162 0.930 . S
C143 N141 1.375 . S
C143 C142 1.338 . S
C143 H147 0.931 . S
C144 N141 1.313 . S
C144 N145 1.344 . S
C144 H148 0.930 . S
N145 C142 1.377 . S
N145 C144 1.344 . S
O146 Co138 2.055 . S
O146 C150 1.253 . S
H147 C143 0.931 . S
H148 C144 0.930 . S
O149 Co138 2.039 . S
O149 C139 1.265 . S
C150 O146 1.253 . S
C150 O151 1.227 . S
O151 C150 1.227 . S
N152 Co138 2.140 . S
N152 C155 1.346 . S
N152 C156 1.345 . S
C153 C154 1.387 . S
C153 C157 1.391 . S
C154 C153 1.387 . S
C154 C155 1.369 . S
C154 H163 0.929 . S
C155 N152 1.346 . S
C155 C154 1.369 . S
C155 H158 0.928 . S
C156 N152 1.345 . S
C156 C157 1.371 . S
C156 H159 0.931 . S
C157 C153 1.391 . S
C157 C156 1.371 . S
C157 H164 0.930 . S
H158 C155 0.928 . S
H159 C156 0.931 . S
H160 C136 0.930 . S
H161 C133 0.930 . S
H162 C142 0.930 . S
H163 C154 0.929 . S
H164 C157 0.930 . S
C165 C166 1.351 . S
C165 N168 1.368 . S
C165 H170 0.931 . S
C166 C165 1.351 . S
C166 N167 1.373 . S
C166 H194 0.930 . S
N167 C166 1.373 . S
N167 C169 1.340 . S
N168 C165 1.368 . S
N168 C169 1.321 . S
N168 Co171 2.135 . S
C169 N167 1.340 . S
C169 N168 1.321 . S
C169 H193 0.930 . S
H170 C165 0.931 . S
Co171 N168 2.135 . S
Co171 N174 2.121 . S
Co171 O179 2.055 . S
Co171 O182 2.039 . S
Co171 N185 2.140 . S
C172 O173 1.227 . S
C172 O182 1.265 . S
O173 C172 1.227 . S
N174 Co171 2.121 . S
N174 C176 1.375 . S
N174 C177 1.313 . S
C175 C176 1.338 . S
C175 N178 1.377 . S
C175 H195 0.930 . S
C176 N174 1.375 . S
C176 C175 1.338 . S
C176 H180 0.931 . S
C177 N174 1.313 . S
C177 N178 1.344 . S
C177 H181 0.930 . S
N178 C175 1.377 . S
N178 C177 1.344 . S
O179 Co171 2.055 . S
O179 C183 1.253 . S
H180 C176 0.931 . S
H181 C177 0.930 . S
O182 Co171 2.039 . S
O182 C172 1.265 . S
C183 O179 1.253 . S
C183 O184 1.227 . S
O184 C183 1.227 . S
N185 Co171 2.140 . S
N185 C188 1.346 . S
N185 C189 1.345 . S
C186 C187 1.387 . S
C186 C190 1.391 . S
C187 C186 1.387 . S
C187 C188 1.369 . S
C187 H196 0.929 . S
C188 N185 1.346 . S
C188 C187 1.369 . S
C188 H191 0.928 . S
C189 N185 1.345 . S
C189 C190 1.371 . S
C189 H192 0.931 . S
C190 C186 1.391 . S
C190 C189 1.371 . S
C190 H197 0.930 . S
H191 C188 0.928 . S
H192 C189 0.931 . S
H193 C169 0.930 . S
H194 C166 0.930 . S
H195 C175 0.930 . S
H196 C187 0.929 . S
H197 C190 0.930 . S
H198 C206 0.950 . S
H199 C211 0.950 . S
H200 C208 0.950 . S
H201 C210 0.950 . S
H202 C212 0.950 . S
H203 C214 0.950 . S
H204 C216 0.950 . S
H205 C217 0.950 . S
C206 H198 0.950 . S
C206 C207 1.386 . S
C206 C208 1.391 . S
C207 C206 1.386 . S
C207 C211 1.393 . S
C208 H200 0.950 . S
C208 C206 1.391 . S
C208 C209 1.400 . S
C209 C208 1.400 . S
C209 C210 1.398 . S
C209 C215 1.491 . S
C210 H201 0.950 . S
C210 C209 1.398 . S
C210 C211 1.391 . S
C211 H199 0.950 . S
C211 C207 1.393 . S
C211 C210 1.391 . S
C212 H202 0.950 . S
C212 C213 1.386 . S
C212 C214 1.391 . S
C213 C212 1.386 . S
C213 C217 1.393 . S
C214 H203 0.950 . S
C214 C212 1.391 . S
C214 C215 1.400 . S
C215 C209 1.491 . S
C215 C214 1.400 . S
C215 C216 1.398 . S
C216 H204 0.950 . S
C216 C215 1.398 . S
C216 C217 1.391 . S
C217 H205 0.950 . S
C217 C213 1.393 . S
C217 C216 1.391 . S
H218 C226 0.950 . S
H219 C231 0.950 . S
H220 C228 0.950 . S
H221 C230 0.950 . S
H222 C232 0.950 . S
H223 C234 0.950 . S
H224 C236 0.950 . S
H225 C237 0.950 . S
C226 H218 0.950 . S
C226 C227 1.386 . S
C226 C228 1.391 . S
C227 C226 1.386 . S
C227 C231 1.393 . S
C228 H220 0.950 . S
C228 C226 1.391 . S
C228 C229 1.400 . S
C229 C228 1.400 . S
C229 C230 1.398 . S
C229 C235 1.491 . S
C230 H221 0.950 . S
C230 C229 1.398 . S
C230 C231 1.391 . S
C231 H219 0.950 . S
C231 C227 1.393 . S
C231 C230 1.391 . S
C232 H222 0.950 . S
C232 C233 1.386 . S
C232 C234 1.391 . S
C233 C232 1.386 . S
C233 C237 1.393 . S
C234 H223 0.950 . S
C234 C232 1.391 . S
C234 C235 1.400 . S
C235 C229 1.491 . S
C235 C234 1.400 . S
C235 C236 1.398 . S
C236 H224 0.950 . S
C236 C235 1.398 . S
C236 C237 1.391 . S
C237 H225 0.950 . S
C237 C233 1.393 . S
C237 C236 1.391 . S
H238 C246 0.950 . S
H239 C251 0.950 . S
H240 C248 0.950 . S
H241 C250 0.950 . S
H242 C252 0.950 . S
H243 C254 0.950 . S
H244 C256 0.950 . S
H245 C257 0.950 . S
C246 H238 0.950 . S
C246 C247 1.386 . S
C246 C248 1.391 . S
C247 C246 1.386 . S
C247 C251 1.393 . S
C248 H240 0.950 . S
C248 C246 1.391 . S
C248 C249 1.400 . S
C249 C248 1.400 . S
C249 C250 1.398 . S
C249 C255 1.491 . S
C250 H241 0.950 . S
C250 C249 1.398 . S
C250 C251 1.391 . S
C251 H239 0.950 . S
C251 C247 1.393 . S
C251 C250 1.391 . S
C252 H242 0.950 . S
C252 C253 1.386 . S
C252 C254 1.391 . S
C253 C252 1.386 . S
C253 C257 1.393 . S
C254 H243 0.950 . S
C254 C252 1.391 . S
C254 C255 1.400 . S
C255 C249 1.491 . S
C255 C254 1.400 . S
C255 C256 1.398 . S
C256 H244 0.950 . S
C256 C255 1.398 . S
C256 C257 1.391 . S
C257 H245 0.950 . S
C257 C253 1.393 . S
C257 C256 1.391 . S
H258 C266 0.950 . S
H259 C271 0.950 . S
H260 C268 0.950 . S
H261 C270 0.950 . S
H262 C272 0.950 . S
H263 C274 0.950 . S
H264 C276 0.950 . S
H265 C277 0.950 . S
C266 H258 0.950 . S
C266 C267 1.386 . S
C266 C268 1.391 . S
C267 C266 1.386 . S
C267 C271 1.393 . S
C268 H260 0.950 . S
C268 C266 1.391 . S
C268 C269 1.400 . S
C269 C268 1.400 . S
C269 C270 1.398 . S
C269 C275 1.491 . S
C270 H261 0.950 . S
C270 C269 1.398 . S
C270 C271 1.391 . S
C271 H259 0.950 . S
C271 C267 1.393 . S
C271 C270 1.391 . S
C272 H262 0.950 . S
C272 C273 1.386 . S
C272 C274 1.391 . S
C273 C272 1.386 . S
C273 C277 1.393 . S
C274 H263 0.950 . S
C274 C272 1.391 . S
C274 C275 1.400 . S
C275 C269 1.491 . S
C275 C274 1.400 . S
C275 C276 1.398 . S
C276 H264 0.950 . S
C276 C275 1.398 . S
C276 C277 1.391 . S
C277 H265 0.950 . S
C277 C273 1.393 . S
C277 C276 1.391 . S
H278 C286 0.950 . S
H279 C291 0.950 . S
H280 C288 0.950 . S
H281 C290 0.950 . S
H282 C292 0.950 . S
H283 C294 0.950 . S
H284 C296 0.950 . S
H285 C297 0.950 . S
C286 H278 0.950 . S
C286 C287 1.386 . S
C286 C288 1.391 . S
C287 C286 1.386 . S
C287 C291 1.393 . S
C288 H280 0.950 . S
C288 C286 1.391 . S
C288 C289 1.400 . S
C289 C288 1.400 . S
C289 C290 1.398 . S
C289 C295 1.491 . S
C290 H281 0.950 . S
C290 C289 1.398 . S
C290 C291 1.391 . S
C291 H279 0.950 . S
C291 C287 1.393 . S
C291 C290 1.391 . S
C292 H282 0.950 . S
C292 C293 1.386 . S
C292 C294 1.391 . S
C293 C292 1.386 . S
C293 C297 1.393 . S
C294 H283 0.950 . S
C294 C292 1.391 . S
C294 C295 1.400 . S
C295 C289 1.491 . S
C295 C294 1.400 . S
C295 C296 1.398 . S
C296 H284 0.950 . S
C296 C295 1.398 . S
C296 C297 1.391 . S
C297 H285 0.950 . S
C297 C293 1.393 . S
C297 C296 1.391 . S
H298 C306 0.950 . S
H299 C311 0.950 . S
H300 C308 0.950 . S
H301 C310 0.950 . S
H302 C312 0.950 . S
H303 C314 0.950 . S
H304 C316 0.950 . S
H305 C317 0.950 . S
C306 H298 0.950 . S
C306 C307 1.386 . S
C306 C308 1.391 . S
C307 C306 1.386 . S
C307 C311 1.393 . S
C308 H300 0.950 . S
C308 C306 1.391 . S
C308 C309 1.400 . S
C309 C308 1.400 . S
C309 C310 1.398 . S
C309 C315 1.491 . S
C310 H301 0.950 . S
C310 C309 1.398 . S
C310 C311 1.391 . S
C311 H299 0.950 . S
C311 C307 1.393 . S
C311 C310 1.391 . S
C312 H302 0.950 . S
C312 C313 1.386 . S
C312 C314 1.391 . S
C313 C312 1.386 . S
C313 C317 1.393 . S
C314 H303 0.950 . S
C314 C312 1.391 . S
C314 C315 1.400 . S
C315 C309 1.491 . S
C315 C314 1.400 . S
C315 C316 1.398 . S
C316 H304 0.950 . S
C316 C315 1.398 . S
C316 C317 1.391 . S
C317 H305 0.950 . S
C317 C313 1.393 . S
C317 C316 1.391 . S
H318 C326 0.950 . S
H319 C331 0.950 . S
H320 C328 0.950 . S
H321 C330 0.950 1_455 S
H322 C332 0.950 . S
H323 C334 0.950 . S
H324 C336 0.950 1_655 S
H325 C337 0.950 . S
C326 H318 0.950 . S
C326 C327 1.386 . S
C326 C328 1.391 . S
C327 C326 1.386 . S
C327 C331 1.393 . S
C328 H320 0.950 . S
C328 C326 1.391 . S
C328 C329 1.400 . S
C329 C328 1.400 . S
C329 C330 1.398 . S
C329 C335 1.491 1_655 S
C330 H321 0.950 1_655 S
C330 C329 1.398 . S
C330 C331 1.391 . S
C331 H319 0.950 . S
C331 C327 1.393 . S
C331 C330 1.391 . S
C332 H322 0.950 . S
C332 C333 1.386 . S
C332 C334 1.391 . S
C333 C332 1.386 . S
C333 C337 1.393 . S
C334 H323 0.950 . S
C334 C332 1.391 . S
C334 C335 1.400 . S
C335 C329 1.491 1_455 S
C335 C334 1.400 . S
C335 C336 1.398 . S
C336 H324 0.950 1_455 S
C336 C335 1.398 . S
C336 C337 1.391 . S
C337 H325 0.950 . S
C337 C333 1.393 . S
C337 C336 1.391 . S
H338 C346 0.950 . S
H339 C351 0.950 . S
H340 C348 0.950 . S
H341 C350 0.950 . S
H342 C352 0.950 . S
H343 C354 0.950 . S
H344 C356 0.950 . S
H345 C357 0.950 . S
C346 H338 0.950 . S
C346 C347 1.386 . S
C346 C348 1.391 . S
C347 C346 1.386 . S
C347 C351 1.393 . S
C348 H340 0.950 . S
C348 C346 1.391 . S
C348 C349 1.400 . S
C349 C348 1.400 . S
C349 C350 1.398 . S
C349 C355 1.491 . S
C350 H341 0.950 . S
C350 C349 1.398 . S
C350 C351 1.391 . S
C351 H339 0.950 . S
C351 C347 1.393 . S
C351 C350 1.391 . S
C352 H342 0.950 . S
C352 C353 1.386 . S
C352 C354 1.391 . S
C353 C352 1.386 . S
C353 C357 1.393 . S
C354 H343 0.950 . S
C354 C352 1.391 . S
C354 C355 1.400 . S
C355 C349 1.491 . S
C355 C354 1.400 . S
C355 C356 1.398 . S
C356 H344 0.950 . S
C356 C355 1.398 . S
C356 C357 1.391 . S
C357 H345 0.950 . S
C357 C353 1.393 . S
C357 C356 1.391 . S
H358 C366 0.950 . S
H359 C371 0.950 . S
H360 C368 0.950 . S
H361 C370 0.950 1_565 S
H362 C372 0.950 . S
H363 C374 0.950 . S
H364 C376 0.950 1_545 S
H365 C377 0.950 . S
C366 H358 0.950 . S
C366 C367 1.386 . S
C366 C368 1.391 . S
C367 C366 1.386 . S
C367 C371 1.393 . S
C368 H360 0.950 . S
C368 C366 1.391 . S
C368 C369 1.400 . S
C369 C368 1.400 . S
C369 C370 1.398 . S
C369 C375 1.491 1_545 S
C370 H361 0.950 1_545 S
C370 C369 1.398 . S
C370 C371 1.391 . S
C371 H359 0.950 . S
C371 C367 1.393 . S
C371 C370 1.391 . S
C372 H362 0.950 . S
C372 C373 1.386 . S
C372 C374 1.391 . S
C373 C372 1.386 . S
C373 C377 1.393 . S
C374 H363 0.950 . S
C374 C372 1.391 . S
C374 C375 1.400 . S
C375 C369 1.491 1_565 S
C375 C374 1.400 . S
C375 C376 1.398 . S
C376 H364 0.950 1_565 S
C376 C375 1.398 . S
C376 C377 1.391 . S
C377 H365 0.950 . S
C377 C373 1.393 . S
C377 C376 1.391 . S
H378 C386 0.950 . S
H379 C391 0.950 . S
H380 C388 0.950 1_554 S
H381 C390 0.950 . S
H382 C392 0.950 . S
H383 C394 0.950 1_556 S
H384 C396 0.950 . S
H385 C397 0.950 . S
C386 H378 0.950 . S
C386 C387 1.386 . S
C386 C388 1.391 . S
C387 C386 1.386 . S
C387 C391 1.393 . S
C388 H380 0.950 1_556 S
C388 C386 1.391 . S
C388 C389 1.400 . S
C389 C388 1.400 . S
C389 C390 1.398 . S
C389 C395 1.491 1_556 S
C390 H381 0.950 . S
C390 C389 1.398 . S
C390 C391 1.391 . S
C391 H379 0.950 . S
C391 C387 1.393 . S
C391 C390 1.391 . S
C392 H382 0.950 . S
C392 C393 1.386 . S
C392 C394 1.391 . S
C393 C392 1.386 . S
C393 C397 1.393 . S
C394 H383 0.950 1_554 S
C394 C392 1.391 . S
C394 C395 1.400 . S
C395 C389 1.491 1_554 S
C395 C394 1.400 . S
C395 C396 1.398 . S
C396 H384 0.950 . S
C396 C395 1.398 . S
C396 C397 1.391 . S
C397 H385 0.950 . S
C397 C393 1.393 . S
C397 C396 1.391 . S
H398 C406 0.950 . S
H399 C411 0.950 . S
H400 C408 0.950 . S
H401 C410 0.950 . S
H402 C412 0.950 . S
H403 C414 0.950 . S
H404 C416 0.950 . S
H405 C417 0.950 . S
C406 H398 0.950 . S
C406 C407 1.386 . S
C406 C408 1.391 . S
C407 C406 1.386 . S
C407 C411 1.393 . S
C408 H400 0.950 . S
C408 C406 1.391 . S
C408 C409 1.400 . S
C409 C408 1.400 . S
C409 C410 1.398 . S
C409 C415 1.491 1_545 S
C410 H401 0.950 . S
C410 C409 1.398 . S
C410 C411 1.391 . S
C411 H399 0.950 . S
C411 C407 1.393 . S
C411 C410 1.391 . S
C412 H402 0.950 . S
C412 C413 1.386 . S
C412 C414 1.391 . S
C413 C412 1.386 . S
C413 C417 1.393 . S
C414 H403 0.950 . S
C414 C412 1.391 . S
C414 C415 1.400 . S
C415 C409 1.491 1_565 S
C415 C414 1.400 . S
C415 C416 1.398 . S
C416 H404 0.950 . S
C416 C415 1.398 . S
C416 C417 1.391 . S
C417 H405 0.950 . S
C417 C413 1.393 . S
C417 C416 1.391 . S
H418 C426 0.950 . S
H419 C431 0.950 . S
H420 C428 0.950 . S
H421 C430 0.950 . S
H422 C432 0.950 . S
H423 C434 0.950 . S
H424 C436 0.950 . S
H425 C437 0.950 . S
C426 H418 0.950 . S
C426 C427 1.386 . S
C426 C428 1.391 . S
C427 C426 1.386 . S
C427 C431 1.393 . S
C428 H420 0.950 . S
C428 C426 1.391 . S
C428 C429 1.400 . S
C429 C428 1.400 . S
C429 C430 1.398 . S
C429 C435 1.491 1_455 S
C430 H421 0.950 . S
C430 C429 1.398 . S
C430 C431 1.391 . S
C431 H419 0.950 . S
C431 C427 1.393 . S
C431 C430 1.391 . S
C432 H422 0.950 . S
C432 C433 1.386 . S
C432 C434 1.391 . S
C433 C432 1.386 . S
C433 C437 1.393 . S
C434 H423 0.950 . S
C434 C432 1.391 . S
C434 C435 1.400 . S
C435 C429 1.491 1_655 S
C435 C434 1.400 . S
C435 C436 1.398 . S
C436 H424 0.950 . S
C436 C435 1.398 . S
C436 C437 1.391 . S
C437 H425 0.950 . S
C437 C433 1.393 . S
C437 C436 1.391 . S
H438 C446 0.950 . S
H439 C451 0.950 . S
H440 C448 0.950 . S
H441 C450 0.950 1_455 S
H442 C452 0.950 . S
H443 C454 0.950 . S
H444 C456 0.950 1_655 S
H445 C457 0.950 . S
C446 H438 0.950 . S
C446 C447 1.386 . S
C446 C448 1.391 . S
C447 C446 1.386 . S
C447 C451 1.393 . S
C448 H440 0.950 . S
C448 C446 1.391 . S
C448 C449 1.400 . S
C449 C448 1.400 . S
C449 C450 1.398 . S
C449 C455 1.491 1_655 S
C450 H441 0.950 1_655 S
C450 C449 1.398 . S
C450 C451 1.391 . S
C451 H439 0.950 . S
C451 C447 1.393 . S
C451 C450 1.391 . S
C452 H442 0.950 . S
C452 C453 1.386 . S
C452 C454 1.391 . S
C453 C452 1.386 . S
C453 C457 1.393 . S
C454 H443 0.950 . S
C454 C452 1.391 . S
C454 C455 1.400 . S
C455 C449 1.491 1_455 S
C455 C454 1.400 . S
C455 C456 1.398 . S
C456 H444 0.950 1_455 S
C456 C455 1.398 . S
C456 C457 1.391 . S
C457 H445 0.950 . S
C457 C453 1.393 . S
C457 C456 1.391 . S
H458 C466 0.950 . S
H459 C471 0.950 . S
H460 C468 0.950 . S
H461 C470 0.950 1_554 S
H462 C472 0.950 . S
H463 C474 0.950 . S
H464 C476 0.950 1_556 S
H465 C477 0.950 . S
C466 H458 0.950 . S
C466 C467 1.386 . S
C466 C468 1.391 . S
C467 C466 1.386 . S
C467 C471 1.393 . S
C468 H460 0.950 . S
C468 C466 1.391 . S
C468 C469 1.400 . S
C469 C468 1.400 . S
C469 C470 1.398 . S
C469 C475 1.491 1_556 S
C470 H461 0.950 1_556 S
C470 C469 1.398 . S
C470 C471 1.391 . S
C471 H459 0.950 . S
C471 C467 1.393 . S
C471 C470 1.391 . S
C472 H462 0.950 . S
C472 C473 1.386 . S
C472 C474 1.391 . S
C473 C472 1.386 . S
C473 C477 1.393 . S
C474 H463 0.950 . S
C474 C472 1.391 . S
C474 C475 1.400 . S
C475 C469 1.491 1_554 S
C475 C474 1.400 . S
C475 C476 1.398 . S
C476 H464 0.950 1_554 S
C476 C475 1.398 . S
C476 C477 1.391 . S
C477 H465 0.950 . S
C477 C473 1.393 . S
C477 C476 1.391 . S
H478 C486 0.950 . S
H479 C491 0.950 . S
H480 C488 0.950 . S
H481 C490 0.950 . S
H482 C492 0.950 . S
H483 C494 0.950 . S
H484 C496 0.950 . S
H485 C497 0.950 . S
C486 H478 0.950 . S
C486 C487 1.386 . S
C486 C488 1.391 . S
C487 C486 1.386 . S
C487 C491 1.393 . S
C488 H480 0.950 . S
C488 C486 1.391 . S
C488 C489 1.400 . S
C489 C488 1.400 . S
C489 C490 1.398 . S
C489 C495 1.491 1_545 S
C490 H481 0.950 . S
C490 C489 1.398 . S
C490 C491 1.391 . S
C491 H479 0.950 . S
C491 C487 1.393 . S
C491 C490 1.391 . S
C492 H482 0.950 . S
C492 C493 1.386 . S
C492 C494 1.391 . S
C493 C492 1.386 . S
C493 C497 1.393 . S
C494 H483 0.950 . S
C494 C492 1.391 . S
C494 C495 1.400 . S
C495 C489 1.491 1_565 S
C495 C494 1.400 . S
C495 C496 1.398 . S
C496 H484 0.950 . S
C496 C495 1.398 . S
C496 C497 1.391 . S
C497 H485 0.950 . S
C497 C493 1.393 . S
C497 C496 1.391 . S
C207 N68 1.166 . S
C213 C18 1.250 . S
C227 C51 1.249 . S
C233 N2 1.164 . S
C247 C84 1.257 . S
C253 N35 1.192 . S
C267 C117 1.255 . S
C273 N134 1.182 . S
C287 N167 1.164 . S
C293 C150 1.249 . S
C307 N101 1.181 . S
C313 C183 1.254 . S
C327 C153 0.668 . S
C333 C21 0.672 . S
C347 C186 0.672 . S
C353 C54 0.673 . S
C367 C120 0.671 . S
C373 C87 0.673 . S
C387 C106 1.563 . S
C393 C7 1.564 . S
C407 C139 1.564 . S
C413 C40 1.564 . S
C427 C73 1.561 . S
C433 C172 1.562 . S
C447 N145 1.997 . S
C453 N13 1.991 . S
C467 N46 1.991 . S
C473 N178 1.996 . S
C487 N112 1.994 . S
C493 N79 1.994 . S
