# Generated by pormake.
# Topology ukh, (4)-cn, num edge types: 1
# Building blocks:
#     Node 0, Type 0, BuildingBlock: KUFVIS_clean_sbu_0, # of connection points: 4
#     Node 1, Type 0, BuildingBlock: KUFVIS_clean_sbu_0, # of connection points: 4
#     Node 2, Type 0, BuildingBlock: KUFVIS_clean_sbu_0, # of connection points: 4
#     Node 3, Type 0, BuildingBlock: KUFVIS_clean_sbu_0, # of connection points: 4
#     Node 4, Type 0, BuildingBlock: KUFVIS_clean_sbu_0, # of connection points: 4
#     Node 5, Type 0, BuildingBlock: KUFVIS_clean_sbu_0, # of connection points: 4
#     Node 6, Type 0, BuildingBlock: KUFVIS_clean_sbu_0, # of connection points: 4
#     Node 7, Type 0, BuildingBlock: KUFVIS_clean_sbu_0, # of connection points: 4
#     Node 8, Type 0, BuildingBlock: KUFVIS_clean_sbu_0, # of connection points: 4
#     Node 9, Type 0, BuildingBlock: KUFVIS_clean_sbu_0, # of connection points: 4
#     Node 10, Type 0, BuildingBlock: KUFVIS_clean_sbu_0, # of connection points: 4
#     Node 11, Type 0, BuildingBlock: KUFVIS_clean_sbu_0, # of connection points: 4
#     Edge 12, Type (0, 0), BuildingBlock: AJUNOK_clean_linker_0, # of connection points: 2
#     Edge 13, Type (0, 0), BuildingBlock: AJUNOK_clean_linker_0, # of connection points: 2
#     Edge 14, Type (0, 0), BuildingBlock: AJUNOK_clean_linker_0, # of connection points: 2
#     Edge 15, Type (0, 0), BuildingBlock: AJUNOK_clean_linker_0, # of connection points: 2
#     Edge 16, Type (0, 0), BuildingBlock: AJUNOK_clean_linker_0, # of connection points: 2
#     Edge 17, Type (0, 0), BuildingBlock: AJUNOK_clean_linker_0, # of connection points: 2
#     Edge 18, Type (0, 0), BuildingBlock: AJUNOK_clean_linker_0, # of connection points: 2
#     Edge 19, Type (0, 0), BuildingBlock: AJUNOK_clean_linker_0, # of connection points: 2
#     Edge 20, Type (0, 0), BuildingBlock: AJUNOK_clean_linker_0, # of connection points: 2
#     Edge 21, Type (0, 0), BuildingBlock: AJUNOK_clean_linker_0, # of connection points: 2
#     Edge 22, Type (0, 0), BuildingBlock: AJUNOK_clean_linker_0, # of connection points: 2
#     Edge 23, Type (0, 0), BuildingBlock: AJUNOK_clean_linker_0, # of connection points: 2
#     Edge 24, Type (0, 0), BuildingBlock: AJUNOK_clean_linker_0, # of connection points: 2
#     Edge 25, Type (0, 0), BuildingBlock: AJUNOK_clean_linker_0, # of connection points: 2
#     Edge 26, Type (0, 0), BuildingBlock: AJUNOK_clean_linker_0, # of connection points: 2
#     Edge 27, Type (0, 0), BuildingBlock: AJUNOK_clean_linker_0, # of connection points: 2
#     Edge 28, Type (0, 0), BuildingBlock: AJUNOK_clean_linker_0, # of connection points: 2
#     Edge 29, Type (0, 0), BuildingBlock: AJUNOK_clean_linker_0, # of connection points: 2
#     Edge 30, Type (0, 0), BuildingBlock: AJUNOK_clean_linker_0, # of connection points: 2
#     Edge 31, Type (0, 0), BuildingBlock: AJUNOK_clean_linker_0, # of connection points: 2
#     Edge 32, Type (0, 0), BuildingBlock: AJUNOK_clean_linker_0, # of connection points: 2
#     Edge 33, Type (0, 0), BuildingBlock: AJUNOK_clean_linker_0, # of connection points: 2
#     Edge 34, Type (0, 0), BuildingBlock: AJUNOK_clean_linker_0, # of connection points: 2
#     Edge 35, Type (0, 0), BuildingBlock: AJUNOK_clean_linker_0, # of connection points: 2
# Relax obj value: 0.087
# Max RMSD: 0.127
# Mean RMSD: 0.127
data_MOF--net-ukh--node1-KUFVIS_clean_sbu_0--edge1-AJUNOK_clean_linker_0
_symmetry_space_group_name_H-M    P1
_symmetry_Int_Tables_number       1
_symmetry_cell_setting            triclinic
loop_
_symmetry_equiv_pos_as_xyz
'x, y, z'
_cell_length_a     23.796133
_cell_length_b     23.801951
_cell_length_c     44.746829
_cell_angle_alpha  90.005668
_cell_angle_beta   90.087978
_cell_angle_gamma 119.94884
loop_
_atom_site_label
_atom_site_type_symbol
_atom_site_fract_x
_atom_site_fract_y
_atom_site_fract_z
_atom_type_partial_charge
Mn0 Mn 0.31718 0.2355 0.05129 0.0
Mn1 Mn 0.26215 0.31044 0.09724 0.0
C2 C 0.25048 0.27195 0.03215 0.0
C3 C 0.29804 0.13421 0.03262 0.0
C4 C 0.39833 0.37791 0.07127 0.0
O5 O 0.33818 0.21591 0.09278 0.0
O6 O 0.29102 0.25928 0.12066 0.0
C7 C 0.14599 0.19009 0.11739 0.0
N8 N 0.17278 0.25012 0.10482 0.0
C9 C 0.06773 0.23946 0.09745 0.0
C10 C 0.039 0.17769 0.11049 0.0
C11 C 0.07831 0.15283 0.12041 0.0
C12 C 0.13534 0.27392 0.09466 0.0
H13 H 0.17605 0.17071 0.12492 0.0
C14 C 0.32183 0.22849 0.11793 0.0
O15 O 0.35549 0.18542 0.03147 0.0
O16 O 0.25319 0.14169 0.04485 0.0
N17 N 0.23203 0.36315 0.07901 0.0
C18 C 0.26796 0.4265 0.07059 0.0
C19 C 0.2364 0.46031 0.06162 0.0
C20 C 0.16837 0.42936 0.06237 0.0
C21 C 0.13261 0.36544 0.07285 0.0
C22 C 0.16683 0.33447 0.08172 0.0
H23 H 0.32029 0.45095 0.07052 0.0
O24 O 0.28465 0.25756 0.01458 0.0
O25 O 0.25513 0.26271 0.06047 0.0
O26 O 0.39263 0.33088 0.05486 0.0
O27 O 0.35377 0.37423 0.08861 0.0
C28 C 0.06448 0.33159 0.07526 0.0
C29 C 0.03201 0.26838 0.08729 0.0
H30 H 0.98685 0.14899 0.11304 0.0
H31 H 0.0565 0.10511 0.13041 0.0
H32 H 0.26444 0.51011 0.05423 0.0
H33 H 0.14418 0.45545 0.05531 0.0
H34 H 0.03664 0.35391 0.06814 0.0
H35 H 0.97963 0.24287 0.08909 0.0
Mn36 Mn 0.09691 0.31495 0.38274 0.0
Mn37 Mn 0.96479 0.27057 0.42614 0.0
C38 C 0.99406 0.25319 0.36184 0.0
C39 C 0.17441 0.28528 0.36729 0.0
C40 C 0.04479 0.40557 0.39974 0.0
O41 O 0.13402 0.33383 0.42481 0.0
O42 O 0.04166 0.29289 0.45109 0.0
C43 C 0.95541 0.14892 0.44819 0.0
N44 N 0.92756 0.18022 0.43461 0.0
C45 C 0.82712 0.08022 0.42788 0.0
C46 C 0.85454 0.04692 0.44198 0.0
C47 C 0.91905 0.08142 0.45208 0.0
C48 C 0.86602 0.14736 0.42429 0.0
H49 H 1.00505 0.17527 0.4559 0.0
C50 C 0.10318 0.31906 0.44943 0.0
O51 O 0.18652 0.34484 0.36492 0.0
O52 O 0.11888 0.24491 0.37862 0.0
N53 N 0.88465 0.2472 0.40656 0.0
C54 C 0.86357 0.28751 0.39632 0.0
C55 C 0.7991 0.26121 0.38657 0.0
C56 C 0.75638 0.19403 0.38837 0.0
C57 C 0.77807 0.15399 0.40064 0.0
C58 C 0.84273 0.18307 0.41019 0.0
H59 H 0.89569 0.33929 0.39547 0.0
O60 O 0.04486 0.28504 0.3452 0.0
O61 O 1.00538 0.25832 0.39045 0.0
O62 O 0.08525 0.39593 0.38464 0.0
O63 O 1.00059 0.36324 0.41666 0.0
C64 C 0.73799 0.08646 0.40399 0.0
C65 C 0.76268 0.04951 0.41736 0.0
H66 H 0.82652 0.99492 0.44518 0.0
H67 H 0.94064 0.05605 0.4629 0.0
H68 H 0.78235 0.29265 0.37778 0.0
H69 H 0.70682 0.17387 0.38068 0.0
H70 H 0.68805 0.06249 0.39645 0.0
H71 H 0.73143 0.99762 0.41979 0.0
Mn72 Mn 0.7872 0.09087 0.71494 0.0
Mn73 Mn 0.72128 0.96134 0.76123 0.0
C74 C 0.75501 0.98884 0.69635 0.0
C75 C 0.88472 0.17555 0.6949 0.0
C76 C 0.64391 0.02013 0.73533 0.0
O77 O 0.80842 0.1326 0.75598 0.0
O78 O 0.76644 0.04295 0.78436 0.0
C79 C 0.84563 0.97761 0.78371 0.0
N80 N 0.78754 0.94055 0.76979 0.0
C81 C 0.8082 0.85191 0.76448 0.0
C82 C 0.86786 0.88884 0.77911 0.0
C83 C 0.88685 0.95213 0.78855 0.0
C84 C 0.76952 0.88021 0.75995 0.0
H85 H 0.8603 0.02616 0.79119 0.0
C86 C 0.79678 0.10451 0.78126 0.0
O87 O 0.83171 0.1788 0.69451 0.0
O88 O 0.88103 0.12479 0.70709 0.0
N89 N 0.67563 0.87749 0.743 0.0
C90 C 0.61265 0.84486 0.73366 0.0
C91 C 0.58479 0.77979 0.72469 0.0
C92 C 0.62127 0.74827 0.72628 0.0
C93 C 0.68479 0.7817 0.73748 0.0
C94 C 0.70987 0.84644 0.74617 0.0
H95 H 0.58414 0.86855 0.7326 0.0
O96 O 0.76493 0.03569 0.67849 0.0
O97 O 0.7666 1.00374 0.72447 0.0
O98 O 0.69022 0.06569 0.72009 0.0
O99 O 0.65158 0.98027 0.75167 0.0
C100 C 0.72332 0.7526 0.74131 0.0
C101 C 0.78502 0.78771 0.75477 0.0
H102 H 0.89925 0.86895 0.78344 0.0
H103 H 0.9329 0.98097 0.79977 0.0
H104 H 0.53532 0.75401 0.71659 0.0
H105 H 0.59964 0.69809 0.71934 0.0
H106 H 0.70545 0.70281 0.73454 0.0
H107 H 0.81362 0.76435 0.7581 0.0
Mn108 Mn 0.69618 0.77784 0.04494 0.0
Mn109 Mn 0.76272 0.71596 0.09196 0.0
C110 C 0.76004 0.73815 0.02599 0.0
C111 C 0.71058 0.87467 0.02305 0.0
C112 C 0.62417 0.63747 0.06942 0.0
O113 O 0.68107 0.80595 0.08566 0.0
O114 O 0.72768 0.76303 0.11403 0.0
C115 C 0.87153 0.84607 0.10753 0.0
N116 N 0.85008 0.78497 0.09697 0.0
C117 C 0.95916 0.80911 0.08682 0.0
C118 C 0.98243 0.87218 0.09771 0.0
C119 C 0.93837 0.89078 0.10803 0.0
C120 C 0.89193 0.76723 0.0862 0.0
H121 H 0.83788 0.86075 0.11535 0.0
C122 C 0.69709 0.79381 0.11092 0.0
O123 O 0.65322 0.8233 0.02453 0.0
O124 O 0.75773 0.86957 0.0342 0.0
N125 N 0.80013 0.66792 0.07577 0.0
C126 C 0.77088 0.60211 0.07387 0.0
C127 C 0.80854 0.57286 0.06827 0.0
C128 C 0.87592 0.61158 0.06462 0.0
C129 C 0.90551 0.67873 0.06888 0.0
C130 C 0.86562 0.70463 0.07581 0.0
H131 H 0.71922 0.5721 0.07715 0.0
O132 O 0.72264 0.74837 0.00854 0.0
O133 O 0.76113 0.75458 0.05375 0.0
O134 O 0.62395 0.68257 0.05345 0.0
O135 O 0.67295 0.64471 0.0849 0.0
C136 C 0.97326 0.72022 0.06864 0.0
C137 C 1.00005 0.78572 0.07717 0.0
H138 H 0.034 0.90652 0.09847 0.0
H139 H 0.95591 0.9394 0.11642 0.0
H140 H 0.78557 0.52066 0.06641 0.0
H141 H 0.90469 0.58895 0.05983 0.0
H142 H 1.00524 0.70182 0.06278 0.0
H143 H 0.05224 0.81701 0.0773 0.0
Mn144 Mn 0.93586 0.69831 0.38193 0.0
Mn145 Mn 0.06325 0.7677 0.42936 0.0
C146 C 0.03841 0.76495 0.36355 0.0
C147 C 0.85173 0.70923 0.35944 0.0
C148 C 1.01169 0.63172 0.40471 0.0
O149 O 0.89172 0.68034 0.42241 0.0
O150 O 0.98034 0.72552 0.45125 0.0
C151 C 0.03131 0.86826 0.44757 0.0
N152 N 0.07436 0.85217 0.43599 0.0
C153 C 0.15161 0.9642 0.42606 0.0
C154 C 0.10818 0.98191 0.43795 0.0
C155 C 0.04774 0.93369 0.44872 0.0
C156 C 0.132 0.89809 0.42495 0.0
H157 H 0.98456 0.8315 0.45568 0.0
C158 C 0.91898 0.69459 0.44791 0.0
O159 O 0.84833 0.65295 0.36075 0.0
O160 O 0.90211 0.75716 0.37136 0.0
N161 N 0.14908 0.81246 0.41341 0.0
C162 C 0.1905 0.78881 0.41086 0.0
C163 C 0.25619 0.83136 0.40432 0.0
C164 C 0.27874 0.89785 0.40073 0.0
C165 C 0.23655 0.9218 0.40608 0.0
C166 C 0.17228 0.87723 0.41371 0.0
H167 H 0.17346 0.73781 0.414 0.0
O168 O 0.99184 0.72712 0.34576 0.0
O169 O 0.02253 0.76572 0.39125 0.0
O170 O 0.96343 0.62905 0.39012 0.0
O171 O 0.05209 0.68119 0.4202 0.0
C172 C 0.25688 0.98846 0.40621 0.0
C173 C 0.21407 0.00961 0.41581 0.0
H174 H 0.12095 0.03237 0.43915 0.0
H175 H 0.01389 0.94693 0.45791 0.0
H176 H 0.28921 0.81282 0.4018 0.0
H177 H 0.3292 0.93038 0.39529 0.0
H178 H 0.30591 0.02396 0.39983 0.0
H179 H 0.23048 0.06103 0.41625 0.0
Mn180 Mn 0.2411 0.93053 0.71734 0.0
Mn181 Mn 0.32373 0.06366 0.76087 0.0
C182 C 0.27803 0.03254 0.69729 0.0
C183 C 0.13611 0.84992 0.70138 0.0
C184 C 0.38622 0.99223 0.73278 0.0
O185 O 0.22443 0.89287 0.75922 0.0
O186 O 0.27683 0.98487 0.78577 0.0
C187 C 0.20573 0.05885 0.7852 0.0
N188 N 0.26356 0.09191 0.77069 0.0
C189 C 0.24863 0.18373 0.76318 0.0
C190 C 0.18914 0.15084 0.77822 0.0
C191 C 0.16753 0.08805 0.78921 0.0
C192 C 0.28414 0.1518 0.75951 0.0
H193 H 0.18866 0.0104 0.79351 0.0
C194 C 0.24233 0.92324 0.78399 0.0
O195 O 0.18549 0.84076 0.69889 0.0
O196 O 0.1483 0.90437 0.71302 0.0
N197 N 0.37223 0.14536 0.74114 0.0
C198 C 0.43426 0.17332 0.73074 0.0
C199 C 0.4652 0.23778 0.72061 0.0
C200 C 0.43288 0.27351 0.72219 0.0
C201 C 0.3705 0.24492 0.73455 0.0
C202 C 0.34247 0.18075 0.74457 0.0
H203 H 0.45989 0.14661 0.73012 0.0
O204 O 0.261 0.98293 0.68002 0.0
O205 O 0.27116 0.02043 0.72572 0.0
O206 O 0.33561 0.94753 0.71938 0.0
O207 O 0.38672 0.03645 0.74932 0.0
C208 C 0.3355 0.27792 0.73781 0.0
C209 C 0.27428 0.24709 0.75184 0.0
H210 H 0.15972 0.17335 0.7815 0.0
H211 H 0.12155 0.06223 0.80074 0.0
H212 H 0.51389 0.25989 0.71169 0.0
H213 H 0.45673 0.32308 0.71422 0.0
H214 H 0.35545 0.32719 0.72981 0.0
H215 H 0.24785 0.27296 0.75426 0.0
Mn216 Mn 0.78535 0.69959 0.62406 0.0
Mn217 Mn 0.71666 0.76098 0.57798 0.0
C218 C 0.75091 0.76761 0.64301 0.0
C219 C 0.88443 0.71639 0.64448 0.0
C220 C 0.64273 0.62452 0.6033 0.0
O221 O 0.80672 0.67956 0.58281 0.0
O222 O 0.76348 0.72674 0.55475 0.0
C223 C 0.8412 0.87182 0.55774 0.0
N224 N 0.78172 0.84889 0.57045 0.0
C225 C 0.80107 0.95713 0.57838 0.0
C226 C 0.86235 0.9819 0.56519 0.0
C227 C 0.88257 0.93904 0.55492 0.0
C228 C 0.76236 0.88972 0.58095 0.0
H229 H 0.85705 0.83906 0.54994 0.0
C230 C 0.7936 0.69524 0.55761 0.0
O231 O 0.83291 0.65904 0.64463 0.0
O232 O 0.87853 0.76177 0.63184 0.0
N233 N 0.66868 0.79658 0.59617 0.0
C234 C 0.60506 0.76456 0.60443 0.0
C235 C 0.57552 0.80015 0.61359 0.0
C236 C 0.61107 0.86824 0.61325 0.0
C237 C 0.67533 0.90009 0.60303 0.0
C238 C 0.70189 0.86199 0.59391 0.0
H239 H 0.57715 0.71223 0.60418 0.0
O240 O 0.76228 0.73136 0.66066 0.0
O241 O 0.76204 0.76431 0.61486 0.0
O242 O 0.68908 0.62649 0.61908 0.0
O243 O 0.64864 0.67127 0.58684 0.0
C244 C 0.71354 0.96807 0.60089 0.0
C245 C 0.7766 0.99659 0.5888 0.0
H246 H 0.89418 0.03368 0.56273 0.0
H247 H 0.92988 0.95779 0.5448 0.0
H248 H 0.52547 0.77516 0.62082 0.0
H249 H 0.58824 0.89553 0.62043 0.0
H250 H 0.69466 0.99883 0.60818 0.0
H251 H 0.80532 0.04886 0.58709 0.0
Mn252 Mn 0.0863 0.77889 0.95808 0.0
Mn253 Mn 0.96446 0.71241 0.90755 0.0
C254 C 0.98019 0.73835 0.97384 0.0
C255 C 0.16553 0.87966 0.97884 0.0
C256 C 0.02501 0.63797 0.93516 0.0
O257 O 0.13417 0.80415 0.91837 0.0
O258 O 0.04873 0.76329 0.88749 0.0
C259 C 0.97996 0.83932 0.88998 0.0
N260 N 0.94177 0.77782 0.90035 0.0
C261 C 0.85136 0.79549 0.90651 0.0
C262 C 0.88956 0.85887 0.89574 0.0
C263 C 0.95423 0.88093 0.88753 0.0
C264 C 0.88016 0.75681 0.90914 0.0
H265 H 0.0298 0.85666 0.8838 0.0
C266 C 0.10958 0.79438 0.89234 0.0
O267 O 0.17212 0.82862 0.98064 0.0
O268 O 0.11379 0.87149 0.96571 0.0
N269 N 0.87767 0.66063 0.92161 0.0
C270 C 0.84417 0.5947 0.92369 0.0
C271 C 0.77656 0.56209 0.92745 0.0
C272 C 0.74397 0.59758 0.92894 0.0
C273 C 0.77871 0.66481 0.92451 0.0
C274 C 0.84561 0.69412 0.91956 0.0
H275 H 0.86884 0.5671 0.922 0.0
O276 O 0.02613 0.75166 0.99293 0.0
O277 O 0.99873 0.7528 0.94627 0.0
O278 O 0.06602 0.68349 0.95249 0.0
O279 O 0.98676 0.64451 0.91695 0.0
C280 C 0.74887 0.70306 0.92269 0.0
C281 C 0.78546 0.76872 0.91413 0.0
H282 H 0.86962 0.89081 0.89346 0.0
H283 H 0.9841 0.92982 0.87926 0.0
H284 H 0.74974 0.50982 0.92952 0.0
H285 H 0.69195 0.57237 0.93225 0.0
H286 H 0.69746 0.682 0.92699 0.0
H287 H 0.76187 0.79748 0.91241 0.0
Mn288 Mn 0.32524 0.08004 0.29204 0.0
Mn289 Mn 0.26427 0.95499 0.24342 0.0
C290 C 0.26331 0.97474 0.30944 0.0
C291 C 0.30501 0.15763 0.31554 0.0
C292 C 0.40216 0.0167 0.26737 0.0
O293 O 0.33961 0.12551 0.25206 0.0
O294 O 0.29825 0.03833 0.22232 0.0
C295 C 0.15395 0.97369 0.22721 0.0
N296 N 0.17641 0.93466 0.23754 0.0
C297 C 0.06778 0.84735 0.24618 0.0
C298 C 0.0435 0.88648 0.23551 0.0
C299 C 0.08682 0.95001 0.22606 0.0
C300 C 0.1352 0.87415 0.24746 0.0
H301 H 0.18695 0.02269 0.22008 0.0
C302 C 0.32556 0.09937 0.22632 0.0
O303 O 0.36372 0.16695 0.31391 0.0
O304 O 0.26021 0.10533 0.30342 0.0
N305 N 0.22802 0.86888 0.25868 0.0
C306 C 0.2588 0.83379 0.26117 0.0
C307 C 0.22236 0.76664 0.26616 0.0
C308 C 0.15457 0.73619 0.26863 0.0
C309 C 0.12362 0.77244 0.26407 0.0
C310 C 0.16246 0.83863 0.25779 0.0
H311 H 0.31078 0.85678 0.25896 0.0
O312 O 0.29977 0.0215 0.32747 0.0
O313 O 0.26259 0.99192 0.28199 0.0
O314 O 0.40047 0.06137 0.28311 0.0
O315 O 0.35417 0.9751 0.25155 0.0
C316 C 0.05566 0.74465 0.26356 0.0
C317 C 0.02774 0.78242 0.25506 0.0
H318 H 0.99174 0.86812 0.23427 0.0
H319 H 0.0685 0.9806 0.21785 0.0
H320 H 0.24654 0.73859 0.26848 0.0
H321 H 0.12669 0.68458 0.27295 0.0
H322 H 0.02443 0.69389 0.26891 0.0
H323 H 0.97543 0.7604 0.25442 0.0
Mn324 Mn 0.2415 0.31934 0.62598 0.0
Mn325 Mn 0.31586 0.2634 0.58047 0.0
C326 C 0.27824 0.2535 0.64565 0.0
C327 C 0.13858 0.29896 0.64267 0.0
C328 C 0.38216 0.40096 0.60517 0.0
O329 O 0.22253 0.33946 0.58428 0.0
O330 O 0.26014 0.28633 0.55681 0.0
C331 C 0.19705 0.14219 0.56326 0.0
N332 N 0.25833 0.17267 0.57468 0.0
C333 C 0.25401 0.07088 0.58346 0.0
C334 C 0.19106 0.03836 0.57154 0.0
C335 C 0.16237 0.07419 0.56151 0.0
C336 C 0.28581 0.13864 0.58498 0.0
H337 H 0.17473 0.16958 0.5557 0.0
C338 C 0.23036 0.3182 0.55943 0.0
O339 O 0.18929 0.35664 0.64481 0.0
O340 O 0.14808 0.25469 0.63123 0.0
N341 N 0.37258 0.23869 0.59911 0.0
C342 C 0.43556 0.2778 0.60757 0.0
C343 C 0.47252 0.24986 0.61694 0.0
C344 C 0.44501 0.18214 0.61668 0.0
C345 C 0.38123 0.14303 0.60644 0.0
C346 C 0.34702 0.1737 0.59712 0.0
H347 H 0.45744 0.32992 0.60728 0.0
O348 O 0.26279 0.28711 0.66308 0.0
O349 O 0.26964 0.25819 0.61731 0.0
O350 O 0.33664 0.39494 0.62272 0.0
O351 O 0.37714 0.35651 0.58732 0.0
C352 C 0.35031 0.07486 0.60505 0.0
C353 C 0.28648 0.03877 0.59385 0.0
H354 H 0.16429 0.98594 0.57003 0.0
H355 H 0.11368 0.04944 0.55243 0.0
H356 H 0.5221 0.28045 0.62427 0.0
H357 H 0.47349 0.16073 0.62412 0.0
H358 H 0.37517 0.04972 0.61254 0.0
H359 H 0.26309 0.98637 0.593 0.0
Mn360 Mn 0.92779 0.23499 0.95803 0.0
Mn361 Mn 0.06158 0.31026 0.91473 0.0
C362 C 0.02878 0.2687 0.97882 0.0
C363 C 0.84376 0.13127 0.97341 0.0
C364 C 0.99176 0.3782 0.93934 0.0
O365 O 0.89122 0.21902 0.91586 0.0
O366 O 0.98379 0.26063 0.88954 0.0
C367 C 0.05802 0.18991 0.89488 0.0
N368 N 0.09052 0.24947 0.90799 0.0
C369 C 0.18267 0.23648 0.91822 0.0
C370 C 0.15045 0.17526 0.90458 0.0
C371 C 0.08776 0.15179 0.89295 0.0
C372 C 0.15029 0.27193 0.91976 0.0
H373 H 1.00964 0.17152 0.88611 0.0
C374 C 0.92201 0.23117 0.89127 0.0
O375 O 0.83706 0.18217 0.97578 0.0
O376 O 0.89788 0.14112 0.96235 0.0
N377 N 0.14221 0.36107 0.93515 0.0
C378 C 0.16859 0.42332 0.94511 0.0
C379 C 0.23256 0.45563 0.956 0.0
C380 C 0.26925 0.42419 0.95585 0.0
C381 C 0.242 0.36112 0.94432 0.0
C382 C 0.17835 0.33177 0.93341 0.0
H383 H 0.14101 0.44812 0.9448 0.0
O384 O 0.97919 0.25341 0.99581 0.0
O385 O 0.01693 0.26172 0.95038 0.0
O386 O 0.94907 0.33118 0.95534 0.0
O387 O 0.03346 0.37417 0.92268 0.0
C388 C 0.27559 0.32637 0.94305 0.0
C389 C 0.24567 0.26379 0.93029 0.0
H390 H 0.17336 0.14589 0.90288 0.0
H391 H 0.06245 0.10445 0.88253 0.0
H392 H 0.25354 0.50463 0.96446 0.0
H393 H 0.31837 0.44905 0.96448 0.0
H394 H 0.32447 0.34737 0.95178 0.0
H395 H 0.27187 0.23743 0.92953 0.0
Mn396 Mn 0.71247 0.92477 0.289 0.0
Mn397 Mn 0.76776 0.05856 0.24557 0.0
C398 C 0.78027 0.02599 0.30915 0.0
C399 C 0.73111 0.84041 0.30488 0.0
C400 C 0.63283 0.99016 0.2726 0.0
O401 O 0.69007 0.88768 0.24705 0.0
O402 O 0.73501 0.97989 0.22045 0.0
C403 C 0.88028 0.05116 0.22228 0.0
N404 N 0.85609 0.08506 0.23657 0.0
C405 C 0.96335 0.17519 0.24502 0.0
C406 C 0.9894 0.14145 0.23021 0.0
C407 C 0.94766 0.07908 0.21886 0.0
C408 C 0.89587 0.14454 0.24806 0.0
H409 H 0.84841 1.00301 0.21373 0.0
C410 C 0.70487 0.91807 0.22228 0.0
O411 O 0.67396 0.83474 0.30722 0.0
O412 O 0.77575 0.89368 0.29325 0.0
N413 N 0.80174 0.13998 0.26576 0.0
C414 C 0.76838 0.16855 0.27639 0.0
C415 C 0.80262 0.23273 0.28691 0.0
C416 C 0.8707 0.26744 0.28563 0.0
C417 C 0.90383 0.23804 0.27333 0.0
C418 C 0.867 0.1743 0.26283 0.0
H419 H 0.71603 0.14252 0.27692 0.0
O420 O 0.74675 0.97678 0.32645 0.0
O421 O 0.77464 0.01387 0.28071 0.0
O422 O 0.63751 0.94567 0.28686 0.0
O423 O 0.67746 0.03315 0.25601 0.0
C424 C 0.97186 0.2698 0.27063 0.0
C425 C 1.00165 0.23812 0.25677 0.0
H426 H 0.04132 0.16295 0.2274 0.0
H427 H 0.9674 0.05261 0.20751 0.0
H428 H 0.77662 0.25537 0.29596 0.0
H429 H 0.89697 0.31675 0.29395 0.0
H430 H 1.00169 0.31871 0.279 0.0
H431 H 0.05399 0.263 0.25483 0.0
C432 C 0.5337 0.54066 0.0433 0.0
C433 C 0.56563 0.57191 0.06995 0.0
C434 C 0.48151 0.47627 0.04351 0.0
C435 C 0.45891 0.44158 0.07045 0.0
H436 H 0.54983 0.56573 0.02213 0.0
H437 H 0.45751 0.45421 0.02263 0.0
S438 S 0.52502 0.5017 0.1462 0.0
N439 N 0.57083 0.56289 0.12385 0.0
N440 N 0.47194 0.44337 0.12431 0.0
C441 C 0.49021 0.47251 0.09715 0.0
C442 C 0.54381 0.53722 0.09688 0.0
C443 C 1.0044 0.47533 0.37804 0.0
C444 C 0.04639 0.46829 0.39786 0.0
C445 C 0.99348 0.52811 0.38033 0.0
C446 C 0.02376 0.57575 0.40274 0.0
H447 H 0.97799 0.43846 0.36129 0.0
H448 H 0.96046 0.53108 0.36458 0.0
S449 S 0.13746 0.57762 0.46056 0.0
N450 N 0.11776 0.51197 0.44062 0.0
N451 N 0.09822 0.61123 0.44523 0.0
C452 C 0.06674 0.56925 0.42246 0.0
C453 C 0.07765 0.5155 0.41999 0.0
C454 C 0.50016 0.04246 0.71417 0.0
C455 C 0.44844 0.99308 0.73036 0.0
C456 C 0.56296 0.05068 0.71559 0.0
C457 C 0.57671 0.01063 0.73379 0.0
H458 H 0.49221 0.07569 0.7007 0.0
H459 H 0.60109 0.08937 0.70268 0.0
S460 S 0.45644 0.87547 0.78158 0.0
N461 N 0.41399 0.90429 0.76515 0.0
N462 N 0.53116 0.91974 0.76896 0.0
C463 C 0.52447 0.96088 0.75014 0.0
C464 C 0.46064 0.95215 0.74815 0.0
C465 C 0.54747 0.53586 0.63101 0.0
C466 C 0.57722 0.56601 0.60388 0.0
C467 C 0.48261 0.48458 0.6317 0.0
C468 C 0.44591 0.46139 0.60525 0.0
H469 H 0.57404 0.55274 0.65182 0.0
H470 H 0.46174 0.46169 0.65289 0.0
S471 S 0.50155 0.52304 0.5286 0.0
N472 N 0.56468 0.56872 0.55006 0.0
N473 N 0.44416 0.47203 0.55137 0.0
C474 C 0.47532 0.49102 0.57811 0.0
C475 C 0.54055 0.54341 0.57743 0.0
C476 C 1.00611 0.47883 0.96506 0.0
C477 C 0.99435 0.44176 0.93887 0.0
C478 C 0.01842 0.54332 0.96379 0.0
C479 C 0.01848 0.57243 0.93632 0.0
H480 H 1.00765 0.45854 0.98652 0.0
H481 H 0.02684 0.57013 0.98445 0.0
S482 S 0.99027 0.49537 0.8615 0.0
N483 N 0.98413 0.43891 0.88486 0.0
N484 N 1.0056 0.55859 0.88245 0.0
C485 C 1.00615 0.5353 0.91012 0.0
C486 C 0.9946 0.47046 0.91141 0.0
C487 C 0.51067 0.04398 0.28976 0.0
C488 C 0.46118 0.0094 0.26855 0.0
C489 C 0.56502 0.03546 0.29197 0.0
C490 C 0.57143 0.99129 0.27345 0.0
H491 H 0.50763 0.07805 0.30478 0.0
H492 H 0.60281 0.06436 0.30797 0.0
S493 S 0.45904 0.89089 0.2134 0.0
N494 N 0.42507 0.93064 0.22772 0.0
N495 N 0.52625 0.91443 0.23276 0.0
C496 C 0.52303 0.95656 0.25225 0.0
C497 C 0.46817 0.96556 0.24961 0.0
C498 C 0.33721 0.11368 0.17107 0.0
C499 C 0.33651 0.1395 0.19935 0.0
C500 C 0.3365 0.14481 0.14469 0.0
C501 C 0.33454 0.20272 0.14558 0.0
H502 H 0.33587 0.06764 0.16921 0.0
H503 H 0.33392 0.12144 0.12354 0.0
S504 S 0.34167 0.2955 0.21368 0.0
N505 N 0.34084 0.23009 0.22654 0.0
N506 N 0.33974 0.28894 0.17692 0.0
C507 C 0.33842 0.23149 0.17364 0.0
C508 C 0.33949 0.19989 0.20054 0.0
C509 C 0.19822 0.32824 0.47738 0.0
C510 C 0.13914 0.32814 0.47766 0.0
C511 C 0.2286 0.32761 0.50405 0.0
C512 C 0.20153 0.32769 0.53201 0.0
H513 H 0.21977 0.32583 0.45646 0.0
H514 H 0.27293 0.32543 0.50272 0.0
S515 S 0.05106 0.33429 0.545 0.0
N516 N 0.05724 0.33339 0.50828 0.0
N517 N 0.11471 0.33233 0.5584 0.0
C518 C 0.14444 0.33132 0.53265 0.0
C519 C 0.11311 0.33139 0.50548 0.0
C520 C 0.79592 0.11648 0.83657 0.0
C521 C 0.82349 0.1437 0.80868 0.0
C522 C 0.82601 0.14717 0.86335 0.0
C523 C 0.88522 0.20584 0.86319 0.0
H524 H 0.75184 0.06981 0.83779 0.0
H525 H 0.80456 0.12289 0.88422 0.0
S526 S 0.97341 0.30154 0.79635 0.0
N527 N 0.91018 0.23603 0.78265 0.0
N528 N 0.96693 0.29372 0.83303 0.0
C529 C 0.91122 0.23572 0.83554 0.0
C530 C 0.88025 0.20473 0.80826 0.0
C531 C 0.69545 0.88316 0.13914 0.0
C532 C 0.68469 0.81967 0.13845 0.0
C533 C 0.6986 0.91348 0.16641 0.0
C534 C 0.69067 0.88119 0.19391 0.0
H535 H 0.70564 0.91099 0.1187 0.0
H536 H 0.71001 0.96359 0.1659 0.0
S537 S 0.65031 0.70999 0.20325 0.0
N538 N 0.65789 0.72238 0.16682 0.0
N539 N 0.6636 0.77905 0.21812 0.0
C540 C 0.67456 0.81573 0.19319 0.0
C541 C 0.67171 0.78509 0.16543 0.0
C542 C 0.87816 0.68341 0.53015 0.0
C543 C 0.81821 0.6813 0.52997 0.0
C544 C 0.90842 0.68341 0.50337 0.0
C545 C 0.87964 0.68081 0.47541 0.0
H546 H 0.9038 0.68915 0.55098 0.0
H547 H 0.9562 0.68843 0.50462 0.0
S548 S 0.71712 0.6627 0.46335 0.0
N549 N 0.72679 0.66759 0.49997 0.0
N550 N 0.78376 0.66766 0.44955 0.0
C551 C 0.81709 0.673 0.47509 0.0
C552 C 0.78643 0.67339 0.5024 0.0
C553 C 0.12919 0.79361 0.83781 0.0
C554 C 0.15167 0.82289 0.86595 0.0
C555 C 0.16125 0.82463 0.81149 0.0
C556 C 0.21678 0.88656 0.81223 0.0
H557 H 0.08488 0.74725 0.83597 0.0
H558 H 0.14012 0.80121 0.79039 0.0
S559 S 0.3 0.98055 0.88057 0.0
N560 N 0.23625 0.91432 0.89328 0.0
N561 N 0.29699 0.9731 0.84383 0.0
C562 C 0.24233 0.91452 0.8404 0.0
C563 C 0.20974 0.88252 0.86726 0.0
C564 C 0.23538 0.95401 0.02043 0.0
C565 C 0.21304 0.94517 0.99068 0.0
C566 C 0.26759 0.01644 0.03361 0.0
C567 C 0.28025 0.07217 0.01722 0.0
H568 H 0.22382 0.91221 0.03421 0.0
H569 H 0.27976 0.02075 0.05715 0.0
S570 S 0.23579 0.07565 0.93817 0.0
N571 N 0.2087 0.99812 0.94502 0.0
N572 N 0.27036 0.11443 0.96946 0.0
C573 C 0.26139 0.06412 0.9871 0.0
C574 C 0.22766 1.00094 0.97391 0.0
C575 C 0.20526 0.19917 0.36661 0.0
C576 C 0.2186 0.26112 0.35707 0.0
C577 C 0.23769 0.16882 0.35457 0.0
C578 C 0.28579 0.19901 0.33262 0.0
H579 H 0.1673 0.17229 0.38278 0.0
H580 H 0.22276 0.11972 0.36157 0.0
S581 S 0.34255 0.36235 0.30074 0.0
N582 N 0.28626 0.35301 0.32506 0.0
N583 N 0.34741 0.2955 0.30248 0.0
C584 C 0.30243 0.26222 0.32383 0.0
C585 C 0.26895 0.29342 0.33609 0.0
C586 C 0.99961 0.26813 0.69482 0.0
C587 C 0.945 0.22132 0.67891 0.0
C588 C 0.06225 0.29844 0.682 0.0
C589 C 0.07241 0.28137 0.65319 0.0
H590 H 0.99448 0.27842 0.71792 0.0
H591 H 0.10337 0.33138 0.69557 0.0
S592 S 0.94496 0.1642 0.60192 0.0
N593 N 0.90494 0.16246 0.63236 0.0
N594 N 0.0218 0.21764 0.6086 0.0
C595 C 0.01762 0.23702 0.63668 0.0
C596 C 0.95417 0.20731 0.64948 0.0
C597 C 0.75937 0.94832 0.97991 0.0
C598 C 0.72559 0.9352 0.00706 0.0
C599 C 0.79307 0.01138 0.96819 0.0
C600 C 0.7948 0.06439 0.98313 0.0
H601 H 0.76347 0.91022 0.96862 0.0
H602 H 0.82107 0.01921 0.94798 0.0
S603 S 0.71141 0.05532 0.0544 0.0
N604 N 0.6935 0.97971 0.04809 0.0
N605 N 0.75626 0.09845 0.02586 0.0
C606 C 0.75785 0.05136 0.0094 0.0
C607 C 0.72364 0.98676 0.02147 0.0
C608 C 0.79778 0.78633 0.30142 0.0
C609 C 0.74806 0.79156 0.31595 0.0
C610 C 0.82616 0.75263 0.31437 0.0
C611 C 0.80621 0.72273 0.34244 0.0
H612 H 0.8175 0.81159 0.28054 0.0
H613 H 0.86734 0.75407 0.30329 0.0
S614 S 0.67598 0.7189 0.38924 0.0
N615 N 0.67755 0.7604 0.35932 0.0
N616 N 0.73197 0.69817 0.38389 0.0
C617 C 0.75425 0.72441 0.35652 0.0
C618 C 0.72471 0.7583 0.34316 0.0
C619 C 0.05704 0.76142 0.66622 0.0
C620 C 0.06894 0.80378 0.69053 0.0
C621 C 0.99514 0.72792 0.65243 0.0
C622 C 0.9431 0.73493 0.66288 0.0
H623 H 0.0966 0.75739 0.65659 0.0
H624 H 0.98908 0.69964 0.63249 0.0
S625 S 0.94706 0.83503 0.72704 0.0
N626 N 0.02124 0.84633 0.72554 0.0
N627 N 0.90666 0.78413 0.69971 0.0
C628 C 0.95361 0.77395 0.68809 0.0
C629 C 0.01594 0.80799 0.70193 0.0
C630 C 0.13839 0.32828 1.00203 0.0
C631 C 0.08589 0.27023 0.99174 0.0
C632 C 0.19362 0.32935 0.01364 0.0
C633 C 0.19358 0.2716 0.01949 0.0
H634 H 0.13757 0.37316 1.00025 0.0
H635 H 0.23647 0.3754 0.01788 0.0
S636 S 0.06648 0.10634 0.99739 0.0
N637 N 0.03792 0.15368 0.98656 0.0
N638 N 0.13745 0.15468 0.01314 0.0
C639 C 0.14045 0.21291 0.01001 0.0
C640 C 0.08687 0.21236 0.99565 0.0
C641 C 0.82608 0.13446 0.33293 0.0
C642 C 0.83469 0.08444 0.32173 0.0
C643 C 0.879 0.19121 0.3441 0.0
C644 C 0.939 0.19522 0.34876 0.0
H645 H 0.77892 0.13078 0.33192 0.0
H646 H 0.87312 0.23229 0.34858 0.0
S647 S 0.98549 0.07555 0.32376 0.0
N648 N 0.90841 0.0431 0.31415 0.0
N649 N 1.00506 0.14519 0.34014 0.0
C650 C 0.94772 0.14452 0.33824 0.0
C651 C 0.89567 0.08947 0.32422 0.0
C652 C 0.69362 0.82267 0.66329 0.0
C653 C 0.75142 0.82421 0.6558 0.0
C654 C 0.69477 0.87773 0.67503 0.0
C655 C 0.75343 0.93159 0.68381 0.0
H656 H 0.64751 0.77917 0.65972 0.0
H657 H 0.64964 0.87774 0.67777 0.0
S658 S 0.91819 0.95636 0.67211 0.0
N659 N 0.8691 0.88381 0.65799 0.0
N660 N 0.87086 0.98332 0.68488 0.0
C661 C 0.81159 0.93243 0.67789 0.0
C662 C 0.81063 0.87894 0.66336 0.0
C663 C 0.87034 0.793 0.00572 0.0
C664 C 0.81399 0.73461 0.01257 0.0
C665 C 0.92258 0.79294 0.99168 0.0
C666 C 0.92075 0.73451 0.98496 0.0
H667 H 0.87381 0.83904 0.01109 0.0
H668 H 0.96551 0.83897 0.98677 0.0
S669 S 0.78414 0.56888 0.99859 0.0
N670 N 0.75648 0.61718 0.00913 0.0
N671 N 0.86018 0.61694 0.98816 0.0
C672 C 0.86535 0.67577 0.99244 0.0
C673 C 0.81015 0.67587 0.00467 0.0
C674 C 0.09929 0.87495 0.34339 0.0
C675 C 0.09757 0.81685 0.35053 0.0
C676 C 0.15294 0.92472 0.329 0.0
C677 C 0.20713 0.91851 0.32225 0.0
H678 H 0.05846 0.88152 0.34859 0.0
H679 H 0.15262 0.96897 0.32361 0.0
S680 S 0.22653 0.77623 0.33742 0.0
N681 N 0.15156 0.75329 0.34798 0.0
N682 N 0.25824 0.85225 0.32608 0.0
C683 C 0.20692 0.86146 0.33022 0.0
C684 C 0.15015 0.80881 0.34285 0.0
C685 C 0.3367 0.1432 0.67536 0.0
C686 C 0.27882 0.0895 0.68483 0.0
C687 C 0.33699 0.19838 0.66434 0.0
C688 C 0.27878 0.19716 0.65818 0.0
H689 H 0.3819 0.143 0.67703 0.0
H690 H 0.38276 0.24179 0.66041 0.0
S691 S 0.1134 0.06548 0.67689 0.0
N692 N 0.16162 0.03831 0.68817 0.0
N693 N 0.16138 0.13791 0.66246 0.0
C694 C 0.22019 0.14257 0.66648 0.0
C695 C 0.22031 0.08897 0.68033 0.0
loop_
_geom_bond_atom_site_label_1
_geom_bond_atom_site_label_2
_geom_bond_distance
_geom_bond_site_symmetry_2
_ccdc_geom_bond_type
Mn0 O5 2.095 . S
Mn0 O15 2.162 . S
Mn0 O16 2.297 . S
Mn0 O24 2.385 . S
Mn0 O25 2.209 . S
Mn0 O26 2.094 . S
Mn1 O6 2.121 . S
Mn1 N8 2.257 . S
Mn1 N17 2.282 . S
Mn1 O25 2.215 . S
Mn1 O27 2.117 . S
C2 O24 1.234 . S
C2 O25 1.283 . S
C3 O15 1.281 . S
C3 O16 1.236 . S
C4 O26 1.240 . S
C4 O27 1.264 . S
O5 Mn0 2.095 . S
O5 C14 1.250 . S
O6 Mn1 2.121 . S
O6 C14 1.258 . S
C7 N8 1.326 . S
C7 C11 1.460 . S
C7 H13 0.929 . S
N8 Mn1 2.257 . S
N8 C7 1.326 . S
N8 C12 1.362 . S
C9 C10 1.258 . S
C9 C12 1.431 . S
C9 C29 1.449 . S
C10 C9 1.258 . S
C10 C11 1.477 . S
C10 H30 0.931 . S
C11 C7 1.460 . S
C11 C10 1.477 . S
C11 H31 0.930 . S
C12 N8 1.362 . S
C12 C9 1.431 . S
C12 C22 1.476 . S
H13 C7 0.929 . S
C14 O5 1.250 . S
C14 O6 1.258 . S
O15 Mn0 2.162 . S
O15 C3 1.281 . S
O16 Mn0 2.297 . S
O16 C3 1.236 . S
N17 Mn1 2.282 . S
N17 C18 1.328 . S
N17 C22 1.318 . S
C18 N17 1.328 . S
C18 C19 1.457 . S
C18 H23 0.929 . S
C19 C18 1.457 . S
C19 C20 1.291 . S
C19 H32 0.931 . S
C20 C19 1.291 . S
C20 C21 1.373 . S
C20 H33 0.929 . S
C21 C20 1.373 . S
C21 C22 1.396 . S
C21 C28 1.403 . S
C22 C12 1.476 . S
C22 N17 1.318 . S
C22 C21 1.396 . S
H23 C18 0.929 . S
O24 Mn0 2.385 . S
O24 C2 1.234 . S
O25 Mn0 2.209 . S
O25 Mn1 2.215 . S
O25 C2 1.283 . S
O26 Mn0 2.094 . S
O26 C4 1.240 . S
O27 Mn1 2.117 . S
O27 C4 1.264 . S
C28 C21 1.403 . S
C28 C29 1.399 . S
C28 H34 0.929 . S
C29 C9 1.449 . S
C29 C28 1.399 . S
C29 H35 0.930 . S
H30 C10 0.931 . S
H31 C11 0.930 . S
H32 C19 0.931 . S
H33 C20 0.929 . S
H34 C28 0.929 . S
H35 C29 0.930 . S
Mn36 O41 2.095 . S
Mn36 O51 2.162 . S
Mn36 O52 2.297 . S
Mn36 O60 2.385 . S
Mn36 O61 2.209 . S
Mn36 O62 2.094 . S
Mn37 O42 2.121 1_655 S
Mn37 N44 2.257 . S
Mn37 N53 2.282 . S
Mn37 O61 2.215 1_655 S
Mn37 O63 2.117 1_655 S
C38 O60 1.234 1_655 S
C38 O61 1.283 1_655 S
C39 O51 1.281 . S
C39 O52 1.236 . S
C40 O62 1.240 . S
C40 O63 1.264 . S
O41 Mn36 2.095 . S
O41 C50 1.250 . S
O42 Mn37 2.121 1_455 S
O42 C50 1.258 . S
C43 N44 1.326 . S
C43 C47 1.460 . S
C43 H49 0.929 . S
N44 Mn37 2.257 . S
N44 C43 1.326 . S
N44 C48 1.362 . S
C45 C46 1.258 . S
C45 C48 1.431 . S
C45 C65 1.449 . S
C46 C45 1.258 . S
C46 C47 1.477 . S
C46 H66 0.931 . S
C47 C43 1.460 . S
C47 C46 1.477 . S
C47 H67 0.930 . S
C48 N44 1.362 . S
C48 C45 1.431 . S
C48 C58 1.476 . S
H49 C43 0.929 . S
C50 O41 1.250 . S
C50 O42 1.258 . S
O51 Mn36 2.162 . S
O51 C39 1.281 . S
O52 Mn36 2.297 . S
O52 C39 1.236 . S
N53 Mn37 2.282 . S
N53 C54 1.328 . S
N53 C58 1.318 . S
C54 N53 1.328 . S
C54 C55 1.457 . S
C54 H59 0.929 . S
C55 C54 1.457 . S
C55 C56 1.291 . S
C55 H68 0.931 . S
C56 C55 1.291 . S
C56 C57 1.373 . S
C56 H69 0.929 . S
C57 C56 1.373 . S
C57 C58 1.396 . S
C57 C64 1.403 . S
C58 C48 1.476 . S
C58 N53 1.318 . S
C58 C57 1.396 . S
H59 C54 0.929 . S
O60 Mn36 2.385 . S
O60 C38 1.234 1_455 S
O61 Mn36 2.209 . S
O61 Mn37 2.215 1_455 S
O61 C38 1.283 1_455 S
O62 Mn36 2.094 . S
O62 C40 1.240 . S
O63 Mn37 2.117 1_455 S
O63 C40 1.264 . S
C64 C57 1.403 . S
C64 C65 1.399 . S
C64 H70 0.929 . S
C65 C45 1.449 . S
C65 C64 1.399 . S
C65 H71 0.930 . S
H66 C46 0.931 . S
H67 C47 0.930 . S
H68 C55 0.931 . S
H69 C56 0.929 . S
H70 C64 0.929 . S
H71 C65 0.930 . S
Mn72 O77 2.095 . S
Mn72 O87 2.162 . S
Mn72 O88 2.297 . S
Mn72 O96 2.385 . S
Mn72 O97 2.209 . S
Mn72 O98 2.094 . S
Mn73 O78 2.121 1_565 S
Mn73 N80 2.257 . S
Mn73 N89 2.282 . S
Mn73 O97 2.215 1_565 S
Mn73 O99 2.117 1_565 S
C74 O96 1.234 1_565 S
C74 O97 1.283 1_565 S
C75 O87 1.281 . S
C75 O88 1.236 . S
C76 O98 1.240 . S
C76 O99 1.264 . S
O77 Mn72 2.095 . S
O77 C86 1.250 . S
O78 Mn73 2.121 1_545 S
O78 C86 1.258 . S
C79 N80 1.326 . S
C79 C83 1.460 . S
C79 H85 0.929 . S
N80 Mn73 2.257 . S
N80 C79 1.326 . S
N80 C84 1.362 . S
C81 C82 1.258 . S
C81 C84 1.431 . S
C81 C101 1.449 . S
C82 C81 1.258 . S
C82 C83 1.477 . S
C82 H102 0.931 . S
C83 C79 1.460 . S
C83 C82 1.477 . S
C83 H103 0.930 . S
C84 N80 1.362 . S
C84 C81 1.431 . S
C84 C94 1.476 . S
H85 C79 0.929 . S
C86 O77 1.250 . S
C86 O78 1.258 . S
O87 Mn72 2.162 . S
O87 C75 1.281 . S
O88 Mn72 2.297 . S
O88 C75 1.236 . S
N89 Mn73 2.282 . S
N89 C90 1.328 . S
N89 C94 1.318 . S
C90 N89 1.328 . S
C90 C91 1.457 . S
C90 H95 0.929 . S
C91 C90 1.457 . S
C91 C92 1.291 . S
C91 H104 0.931 . S
C92 C91 1.291 . S
C92 C93 1.373 . S
C92 H105 0.929 . S
C93 C92 1.373 . S
C93 C94 1.396 . S
C93 C100 1.403 . S
C94 C84 1.476 . S
C94 N89 1.318 . S
C94 C93 1.396 . S
H95 C90 0.929 . S
O96 Mn72 2.385 . S
O96 C74 1.234 1_545 S
O97 Mn72 2.209 . S
O97 Mn73 2.215 1_545 S
O97 C74 1.283 1_545 S
O98 Mn72 2.094 . S
O98 C76 1.240 . S
O99 Mn73 2.117 1_545 S
O99 C76 1.264 . S
C100 C93 1.403 . S
C100 C101 1.399 . S
C100 H106 0.929 . S
C101 C81 1.449 . S
C101 C100 1.399 . S
C101 H107 0.930 . S
H102 C82 0.931 . S
H103 C83 0.930 . S
H104 C91 0.931 . S
H105 C92 0.929 . S
H106 C100 0.929 . S
H107 C101 0.930 . S
Mn108 O113 2.095 . S
Mn108 O123 2.162 . S
Mn108 O124 2.297 . S
Mn108 O132 2.385 . S
Mn108 O133 2.209 . S
Mn108 O134 2.094 . S
Mn109 O114 2.121 . S
Mn109 N116 2.257 . S
Mn109 N125 2.282 . S
Mn109 O133 2.215 . S
Mn109 O135 2.117 . S
C110 O132 1.234 . S
C110 O133 1.283 . S
C111 O123 1.281 . S
C111 O124 1.236 . S
C112 O134 1.240 . S
C112 O135 1.264 . S
O113 Mn108 2.095 . S
O113 C122 1.250 . S
O114 Mn109 2.121 . S
O114 C122 1.258 . S
C115 N116 1.326 . S
C115 C119 1.460 . S
C115 H121 0.929 . S
N116 Mn109 2.257 . S
N116 C115 1.326 . S
N116 C120 1.362 . S
C117 C118 1.258 . S
C117 C120 1.431 . S
C117 C137 1.449 . S
C118 C117 1.258 . S
C118 C119 1.477 . S
C118 H138 0.931 . S
C119 C115 1.460 . S
C119 C118 1.477 . S
C119 H139 0.930 . S
C120 N116 1.362 . S
C120 C117 1.431 . S
C120 C130 1.476 . S
H121 C115 0.929 . S
C122 O113 1.250 . S
C122 O114 1.258 . S
O123 Mn108 2.162 . S
O123 C111 1.281 . S
O124 Mn108 2.297 . S
O124 C111 1.236 . S
N125 Mn109 2.282 . S
N125 C126 1.328 . S
N125 C130 1.318 . S
C126 N125 1.328 . S
C126 C127 1.457 . S
C126 H131 0.929 . S
C127 C126 1.457 . S
C127 C128 1.291 . S
C127 H140 0.931 . S
C128 C127 1.291 . S
C128 C129 1.373 . S
C128 H141 0.929 . S
C129 C128 1.373 . S
C129 C130 1.396 . S
C129 C136 1.403 . S
C130 C120 1.476 . S
C130 N125 1.318 . S
C130 C129 1.396 . S
H131 C126 0.929 . S
O132 Mn108 2.385 . S
O132 C110 1.234 . S
O133 Mn108 2.209 . S
O133 Mn109 2.215 . S
O133 C110 1.283 . S
O134 Mn108 2.094 . S
O134 C112 1.240 . S
O135 Mn109 2.117 . S
O135 C112 1.264 . S
C136 C129 1.403 . S
C136 C137 1.399 . S
C136 H142 0.929 . S
C137 C117 1.449 . S
C137 C136 1.399 . S
C137 H143 0.930 . S
H138 C118 0.931 . S
H139 C119 0.930 . S
H140 C127 0.931 . S
H141 C128 0.929 . S
H142 C136 0.929 . S
H143 C137 0.930 . S
Mn144 O149 2.095 . S
Mn144 O159 2.162 . S
Mn144 O160 2.297 . S
Mn144 O168 2.385 . S
Mn144 O169 2.209 . S
Mn144 O170 2.094 . S
Mn145 O150 2.121 1_455 S
Mn145 N152 2.257 . S
Mn145 N161 2.282 . S
Mn145 O169 2.215 1_455 S
Mn145 O171 2.117 1_455 S
C146 O168 1.234 1_455 S
C146 O169 1.283 1_455 S
C147 O159 1.281 . S
C147 O160 1.236 . S
C148 O170 1.240 . S
C148 O171 1.264 . S
O149 Mn144 2.095 . S
O149 C158 1.250 . S
O150 Mn145 2.121 1_655 S
O150 C158 1.258 . S
C151 N152 1.326 . S
C151 C155 1.460 . S
C151 H157 0.929 . S
N152 Mn145 2.257 . S
N152 C151 1.326 . S
N152 C156 1.362 . S
C153 C154 1.258 . S
C153 C156 1.431 . S
C153 C173 1.449 . S
C154 C153 1.258 . S
C154 C155 1.477 . S
C154 H174 0.931 . S
C155 C151 1.460 . S
C155 C154 1.477 . S
C155 H175 0.930 . S
C156 N152 1.362 . S
C156 C153 1.431 . S
C156 C166 1.476 . S
H157 C151 0.929 . S
C158 O149 1.250 . S
C158 O150 1.258 . S
O159 Mn144 2.162 . S
O159 C147 1.281 . S
O160 Mn144 2.297 . S
O160 C147 1.236 . S
N161 Mn145 2.282 . S
N161 C162 1.328 . S
N161 C166 1.318 . S
C162 N161 1.328 . S
C162 C163 1.457 . S
C162 H167 0.929 . S
C163 C162 1.457 . S
C163 C164 1.291 . S
C163 H176 0.931 . S
C164 C163 1.291 . S
C164 C165 1.373 . S
C164 H177 0.929 . S
C165 C164 1.373 . S
C165 C166 1.396 . S
C165 C172 1.403 . S
C166 C156 1.476 . S
C166 N161 1.318 . S
C166 C165 1.396 . S
H167 C162 0.929 . S
O168 Mn144 2.385 . S
O168 C146 1.234 1_655 S
O169 Mn144 2.209 . S
O169 Mn145 2.215 1_655 S
O169 C146 1.283 1_655 S
O170 Mn144 2.094 . S
O170 C148 1.240 . S
O171 Mn145 2.117 1_655 S
O171 C148 1.264 . S
C172 C165 1.403 . S
C172 C173 1.399 . S
C172 H178 0.929 . S
C173 C153 1.449 . S
C173 C172 1.399 . S
C173 H179 0.930 . S
H174 C154 0.931 . S
H175 C155 0.930 . S
H176 C163 0.931 . S
H177 C164 0.929 . S
H178 C172 0.929 . S
H179 C173 0.930 . S
Mn180 O185 2.095 . S
Mn180 O195 2.162 . S
Mn180 O196 2.297 . S
Mn180 O204 2.385 . S
Mn180 O205 2.209 . S
Mn180 O206 2.094 . S
Mn181 O186 2.121 1_545 S
Mn181 N188 2.257 . S
Mn181 N197 2.282 . S
Mn181 O205 2.215 1_545 S
Mn181 O207 2.117 1_545 S
C182 O204 1.234 1_545 S
C182 O205 1.283 1_545 S
C183 O195 1.281 . S
C183 O196 1.236 . S
C184 O206 1.240 . S
C184 O207 1.264 . S
O185 Mn180 2.095 . S
O185 C194 1.250 . S
O186 Mn181 2.121 1_565 S
O186 C194 1.258 . S
C187 N188 1.326 . S
C187 C191 1.460 . S
C187 H193 0.929 . S
N188 Mn181 2.257 . S
N188 C187 1.326 . S
N188 C192 1.362 . S
C189 C190 1.258 . S
C189 C192 1.431 . S
C189 C209 1.449 . S
C190 C189 1.258 . S
C190 C191 1.477 . S
C190 H210 0.931 . S
C191 C187 1.460 . S
C191 C190 1.477 . S
C191 H211 0.930 . S
C192 N188 1.362 . S
C192 C189 1.431 . S
C192 C202 1.476 . S
H193 C187 0.929 . S
C194 O185 1.250 . S
C194 O186 1.258 . S
O195 Mn180 2.162 . S
O195 C183 1.281 . S
O196 Mn180 2.297 . S
O196 C183 1.236 . S
N197 Mn181 2.282 . S
N197 C198 1.328 . S
N197 C202 1.318 . S
C198 N197 1.328 . S
C198 C199 1.457 . S
C198 H203 0.929 . S
C199 C198 1.457 . S
C199 C200 1.291 . S
C199 H212 0.931 . S
C200 C199 1.291 . S
C200 C201 1.373 . S
C200 H213 0.929 . S
C201 C200 1.373 . S
C201 C202 1.396 . S
C201 C208 1.403 . S
C202 C192 1.476 . S
C202 N197 1.318 . S
C202 C201 1.396 . S
H203 C198 0.929 . S
O204 Mn180 2.385 . S
O204 C182 1.234 1_565 S
O205 Mn180 2.209 . S
O205 Mn181 2.215 1_565 S
O205 C182 1.283 1_565 S
O206 Mn180 2.094 . S
O206 C184 1.240 . S
O207 Mn181 2.117 1_565 S
O207 C184 1.264 . S
C208 C201 1.403 . S
C208 C209 1.399 . S
C208 H214 0.929 . S
C209 C189 1.449 . S
C209 C208 1.399 . S
C209 H215 0.930 . S
H210 C190 0.931 . S
H211 C191 0.930 . S
H212 C199 0.931 . S
H213 C200 0.929 . S
H214 C208 0.929 . S
H215 C209 0.930 . S
Mn216 O221 2.095 . S
Mn216 O231 2.162 . S
Mn216 O232 2.297 . S
Mn216 O240 2.385 . S
Mn216 O241 2.209 . S
Mn216 O242 2.094 . S
Mn217 O222 2.121 . S
Mn217 N224 2.257 . S
Mn217 N233 2.282 . S
Mn217 O241 2.215 . S
Mn217 O243 2.117 . S
C218 O240 1.234 . S
C218 O241 1.283 . S
C219 O231 1.281 . S
C219 O232 1.236 . S
C220 O242 1.240 . S
C220 O243 1.264 . S
O221 Mn216 2.095 . S
O221 C230 1.250 . S
O222 Mn217 2.121 . S
O222 C230 1.258 . S
C223 N224 1.326 . S
C223 C227 1.460 . S
C223 H229 0.929 . S
N224 Mn217 2.257 . S
N224 C223 1.326 . S
N224 C228 1.362 . S
C225 C226 1.258 . S
C225 C228 1.431 . S
C225 C245 1.449 . S
C226 C225 1.258 . S
C226 C227 1.477 . S
C226 H246 0.931 . S
C227 C223 1.460 . S
C227 C226 1.477 . S
C227 H247 0.930 . S
C228 N224 1.362 . S
C228 C225 1.431 . S
C228 C238 1.476 . S
H229 C223 0.929 . S
C230 O221 1.250 . S
C230 O222 1.258 . S
O231 Mn216 2.162 . S
O231 C219 1.281 . S
O232 Mn216 2.297 . S
O232 C219 1.236 . S
N233 Mn217 2.282 . S
N233 C234 1.328 . S
N233 C238 1.318 . S
C234 N233 1.328 . S
C234 C235 1.457 . S
C234 H239 0.929 . S
C235 C234 1.457 . S
C235 C236 1.291 . S
C235 H248 0.931 . S
C236 C235 1.291 . S
C236 C237 1.373 . S
C236 H249 0.929 . S
C237 C236 1.373 . S
C237 C238 1.396 . S
C237 C244 1.403 . S
C238 C228 1.476 . S
C238 N233 1.318 . S
C238 C237 1.396 . S
H239 C234 0.929 . S
O240 Mn216 2.385 . S
O240 C218 1.234 . S
O241 Mn216 2.209 . S
O241 Mn217 2.215 . S
O241 C218 1.283 . S
O242 Mn216 2.094 . S
O242 C220 1.240 . S
O243 Mn217 2.117 . S
O243 C220 1.264 . S
C244 C237 1.403 . S
C244 C245 1.399 . S
C244 H250 0.929 . S
C245 C225 1.449 . S
C245 C244 1.399 . S
C245 H251 0.930 . S
H246 C226 0.931 . S
H247 C227 0.930 . S
H248 C235 0.931 . S
H249 C236 0.929 . S
H250 C244 0.929 . S
H251 C245 0.930 . S
Mn252 O257 2.095 . S
Mn252 O267 2.162 . S
Mn252 O268 2.297 . S
Mn252 O276 2.385 . S
Mn252 O277 2.209 . S
Mn252 O278 2.094 . S
Mn253 O258 2.121 1_655 S
Mn253 N260 2.257 . S
Mn253 N269 2.282 . S
Mn253 O277 2.215 1_655 S
Mn253 O279 2.117 1_655 S
C254 O276 1.234 1_655 S
C254 O277 1.283 1_655 S
C255 O267 1.281 . S
C255 O268 1.236 . S
C256 O278 1.240 . S
C256 O279 1.264 . S
O257 Mn252 2.095 . S
O257 C266 1.250 . S
O258 Mn253 2.121 1_455 S
O258 C266 1.258 . S
C259 N260 1.326 . S
C259 C263 1.460 . S
C259 H265 0.929 . S
N260 Mn253 2.257 . S
N260 C259 1.326 . S
N260 C264 1.362 . S
C261 C262 1.258 . S
C261 C264 1.431 . S
C261 C281 1.449 . S
C262 C261 1.258 . S
C262 C263 1.477 . S
C262 H282 0.931 . S
C263 C259 1.460 . S
C263 C262 1.477 . S
C263 H283 0.930 . S
C264 N260 1.362 . S
C264 C261 1.431 . S
C264 C274 1.476 . S
H265 C259 0.929 . S
C266 O257 1.250 . S
C266 O258 1.258 . S
O267 Mn252 2.162 . S
O267 C255 1.281 . S
O268 Mn252 2.297 . S
O268 C255 1.236 . S
N269 Mn253 2.282 . S
N269 C270 1.328 . S
N269 C274 1.318 . S
C270 N269 1.328 . S
C270 C271 1.457 . S
C270 H275 0.929 . S
C271 C270 1.457 . S
C271 C272 1.291 . S
C271 H284 0.931 . S
C272 C271 1.291 . S
C272 C273 1.373 . S
C272 H285 0.929 . S
C273 C272 1.373 . S
C273 C274 1.396 . S
C273 C280 1.403 . S
C274 C264 1.476 . S
C274 N269 1.318 . S
C274 C273 1.396 . S
H275 C270 0.929 . S
O276 Mn252 2.385 . S
O276 C254 1.234 1_455 S
O277 Mn252 2.209 . S
O277 Mn253 2.215 1_455 S
O277 C254 1.283 1_455 S
O278 Mn252 2.094 . S
O278 C256 1.240 . S
O279 Mn253 2.117 1_455 S
O279 C256 1.264 . S
C280 C273 1.403 . S
C280 C281 1.399 . S
C280 H286 0.929 . S
C281 C261 1.449 . S
C281 C280 1.399 . S
C281 H287 0.930 . S
H282 C262 0.931 . S
H283 C263 0.930 . S
H284 C271 0.931 . S
H285 C272 0.929 . S
H286 C280 0.929 . S
H287 C281 0.930 . S
Mn288 O293 2.095 . S
Mn288 O303 2.162 . S
Mn288 O304 2.297 . S
Mn288 O312 2.385 . S
Mn288 O313 2.209 . S
Mn288 O314 2.094 . S
Mn289 O294 2.121 1_565 S
Mn289 N296 2.257 . S
Mn289 N305 2.282 . S
Mn289 O313 2.215 1_565 S
Mn289 O315 2.117 1_565 S
C290 O312 1.234 1_565 S
C290 O313 1.283 1_565 S
C291 O303 1.281 . S
C291 O304 1.236 . S
C292 O314 1.240 . S
C292 O315 1.264 . S
O293 Mn288 2.095 . S
O293 C302 1.250 . S
O294 Mn289 2.121 1_545 S
O294 C302 1.258 . S
C295 N296 1.326 . S
C295 C299 1.460 . S
C295 H301 0.929 . S
N296 Mn289 2.257 . S
N296 C295 1.326 . S
N296 C300 1.362 . S
C297 C298 1.258 . S
C297 C300 1.431 . S
C297 C317 1.449 . S
C298 C297 1.258 . S
C298 C299 1.477 . S
C298 H318 0.931 . S
C299 C295 1.460 . S
C299 C298 1.477 . S
C299 H319 0.930 . S
C300 N296 1.362 . S
C300 C297 1.431 . S
C300 C310 1.476 . S
H301 C295 0.929 . S
C302 O293 1.250 . S
C302 O294 1.258 . S
O303 Mn288 2.162 . S
O303 C291 1.281 . S
O304 Mn288 2.297 . S
O304 C291 1.236 . S
N305 Mn289 2.282 . S
N305 C306 1.328 . S
N305 C310 1.318 . S
C306 N305 1.328 . S
C306 C307 1.457 . S
C306 H311 0.929 . S
C307 C306 1.457 . S
C307 C308 1.291 . S
C307 H320 0.931 . S
C308 C307 1.291 . S
C308 C309 1.373 . S
C308 H321 0.929 . S
C309 C308 1.373 . S
C309 C310 1.396 . S
C309 C316 1.403 . S
C310 C300 1.476 . S
C310 N305 1.318 . S
C310 C309 1.396 . S
H311 C306 0.929 . S
O312 Mn288 2.385 . S
O312 C290 1.234 1_545 S
O313 Mn288 2.209 . S
O313 Mn289 2.215 1_545 S
O313 C290 1.283 1_545 S
O314 Mn288 2.094 . S
O314 C292 1.240 . S
O315 Mn289 2.117 1_545 S
O315 C292 1.264 . S
C316 C309 1.403 . S
C316 C317 1.399 . S
C316 H322 0.929 . S
C317 C297 1.449 . S
C317 C316 1.399 . S
C317 H323 0.930 . S
H318 C298 0.931 . S
H319 C299 0.930 . S
H320 C307 0.931 . S
H321 C308 0.929 . S
H322 C316 0.929 . S
H323 C317 0.930 . S
Mn324 O329 2.095 . S
Mn324 O339 2.162 . S
Mn324 O340 2.297 . S
Mn324 O348 2.385 . S
Mn324 O349 2.209 . S
Mn324 O350 2.094 . S
Mn325 O330 2.121 . S
Mn325 N332 2.257 . S
Mn325 N341 2.282 . S
Mn325 O349 2.215 . S
Mn325 O351 2.117 . S
C326 O348 1.234 . S
C326 O349 1.283 . S
C327 O339 1.281 . S
C327 O340 1.236 . S
C328 O350 1.240 . S
C328 O351 1.264 . S
O329 Mn324 2.095 . S
O329 C338 1.250 . S
O330 Mn325 2.121 . S
O330 C338 1.258 . S
C331 N332 1.326 . S
C331 C335 1.460 . S
C331 H337 0.929 . S
N332 Mn325 2.257 . S
N332 C331 1.326 . S
N332 C336 1.362 . S
C333 C334 1.258 . S
C333 C336 1.431 . S
C333 C353 1.449 . S
C334 C333 1.258 . S
C334 C335 1.477 . S
C334 H354 0.931 . S
C335 C331 1.460 . S
C335 C334 1.477 . S
C335 H355 0.930 . S
C336 N332 1.362 . S
C336 C333 1.431 . S
C336 C346 1.476 . S
H337 C331 0.929 . S
C338 O329 1.250 . S
C338 O330 1.258 . S
O339 Mn324 2.162 . S
O339 C327 1.281 . S
O340 Mn324 2.297 . S
O340 C327 1.236 . S
N341 Mn325 2.282 . S
N341 C342 1.328 . S
N341 C346 1.318 . S
C342 N341 1.328 . S
C342 C343 1.457 . S
C342 H347 0.929 . S
C343 C342 1.457 . S
C343 C344 1.291 . S
C343 H356 0.931 . S
C344 C343 1.291 . S
C344 C345 1.373 . S
C344 H357 0.929 . S
C345 C344 1.373 . S
C345 C346 1.396 . S
C345 C352 1.403 . S
C346 C336 1.476 . S
C346 N341 1.318 . S
C346 C345 1.396 . S
H347 C342 0.929 . S
O348 Mn324 2.385 . S
O348 C326 1.234 . S
O349 Mn324 2.209 . S
O349 Mn325 2.215 . S
O349 C326 1.283 . S
O350 Mn324 2.094 . S
O350 C328 1.240 . S
O351 Mn325 2.117 . S
O351 C328 1.264 . S
C352 C345 1.403 . S
C352 C353 1.399 . S
C352 H358 0.929 . S
C353 C333 1.449 . S
C353 C352 1.399 . S
C353 H359 0.930 . S
H354 C334 0.931 . S
H355 C335 0.930 . S
H356 C343 0.931 . S
H357 C344 0.929 . S
H358 C352 0.929 . S
H359 C353 0.930 . S
Mn360 O365 2.095 . S
Mn360 O375 2.162 . S
Mn360 O376 2.297 . S
Mn360 O384 2.385 . S
Mn360 O385 2.209 . S
Mn360 O386 2.094 . S
Mn361 O366 2.121 1_455 S
Mn361 N368 2.257 . S
Mn361 N377 2.282 . S
Mn361 O385 2.215 1_455 S
Mn361 O387 2.117 1_455 S
C362 O384 1.234 1_455 S
C362 O385 1.283 1_455 S
C363 O375 1.281 . S
C363 O376 1.236 . S
C364 O386 1.240 . S
C364 O387 1.264 . S
O365 Mn360 2.095 . S
O365 C374 1.250 . S
O366 Mn361 2.121 1_655 S
O366 C374 1.258 . S
C367 N368 1.326 . S
C367 C371 1.460 . S
C367 H373 0.929 . S
N368 Mn361 2.257 . S
N368 C367 1.326 . S
N368 C372 1.362 . S
C369 C370 1.258 . S
C369 C372 1.431 . S
C369 C389 1.449 . S
C370 C369 1.258 . S
C370 C371 1.477 . S
C370 H390 0.931 . S
C371 C367 1.460 . S
C371 C370 1.477 . S
C371 H391 0.930 . S
C372 N368 1.362 . S
C372 C369 1.431 . S
C372 C382 1.476 . S
H373 C367 0.929 . S
C374 O365 1.250 . S
C374 O366 1.258 . S
O375 Mn360 2.162 . S
O375 C363 1.281 . S
O376 Mn360 2.297 . S
O376 C363 1.236 . S
N377 Mn361 2.282 . S
N377 C378 1.328 . S
N377 C382 1.318 . S
C378 N377 1.328 . S
C378 C379 1.457 . S
C378 H383 0.929 . S
C379 C378 1.457 . S
C379 C380 1.291 . S
C379 H392 0.931 . S
C380 C379 1.291 . S
C380 C381 1.373 . S
C380 H393 0.929 . S
C381 C380 1.373 . S
C381 C382 1.396 . S
C381 C388 1.403 . S
C382 C372 1.476 . S
C382 N377 1.318 . S
C382 C381 1.396 . S
H383 C378 0.929 . S
O384 Mn360 2.385 . S
O384 C362 1.234 1_655 S
O385 Mn360 2.209 . S
O385 Mn361 2.215 1_655 S
O385 C362 1.283 1_655 S
O386 Mn360 2.094 . S
O386 C364 1.240 . S
O387 Mn361 2.117 1_655 S
O387 C364 1.264 . S
C388 C381 1.403 . S
C388 C389 1.399 . S
C388 H394 0.929 . S
C389 C369 1.449 . S
C389 C388 1.399 . S
C389 H395 0.930 . S
H390 C370 0.931 . S
H391 C371 0.930 . S
H392 C379 0.931 . S
H393 C380 0.929 . S
H394 C388 0.929 . S
H395 C389 0.930 . S
Mn396 O401 2.095 . S
Mn396 O411 2.162 . S
Mn396 O412 2.297 . S
Mn396 O420 2.385 . S
Mn396 O421 2.209 . S
Mn396 O422 2.094 . S
Mn397 O402 2.121 1_545 S
Mn397 N404 2.257 . S
Mn397 N413 2.282 . S
Mn397 O421 2.215 1_545 S
Mn397 O423 2.117 1_545 S
C398 O420 1.234 1_545 S
C398 O421 1.283 1_545 S
C399 O411 1.281 . S
C399 O412 1.236 . S
C400 O422 1.240 . S
C400 O423 1.264 . S
O401 Mn396 2.095 . S
O401 C410 1.250 . S
O402 Mn397 2.121 1_565 S
O402 C410 1.258 . S
C403 N404 1.326 . S
C403 C407 1.460 . S
C403 H409 0.929 . S
N404 Mn397 2.257 . S
N404 C403 1.326 . S
N404 C408 1.362 . S
C405 C406 1.258 . S
C405 C408 1.431 . S
C405 C425 1.449 . S
C406 C405 1.258 . S
C406 C407 1.477 . S
C406 H426 0.931 . S
C407 C403 1.460 . S
C407 C406 1.477 . S
C407 H427 0.930 . S
C408 N404 1.362 . S
C408 C405 1.431 . S
C408 C418 1.476 . S
H409 C403 0.929 . S
C410 O401 1.250 . S
C410 O402 1.258 . S
O411 Mn396 2.162 . S
O411 C399 1.281 . S
O412 Mn396 2.297 . S
O412 C399 1.236 . S
N413 Mn397 2.282 . S
N413 C414 1.328 . S
N413 C418 1.318 . S
C414 N413 1.328 . S
C414 C415 1.457 . S
C414 H419 0.929 . S
C415 C414 1.457 . S
C415 C416 1.291 . S
C415 H428 0.931 . S
C416 C415 1.291 . S
C416 C417 1.373 . S
C416 H429 0.929 . S
C417 C416 1.373 . S
C417 C418 1.396 . S
C417 C424 1.403 . S
C418 C408 1.476 . S
C418 N413 1.318 . S
C418 C417 1.396 . S
H419 C414 0.929 . S
O420 Mn396 2.385 . S
O420 C398 1.234 1_565 S
O421 Mn396 2.209 . S
O421 Mn397 2.215 1_565 S
O421 C398 1.283 1_565 S
O422 Mn396 2.094 . S
O422 C400 1.240 . S
O423 Mn397 2.117 1_565 S
O423 C400 1.264 . S
C424 C417 1.403 . S
C424 C425 1.399 . S
C424 H430 0.929 . S
C425 C405 1.449 . S
C425 C424 1.399 . S
C425 H431 0.930 . S
H426 C406 0.931 . S
H427 C407 0.930 . S
H428 C415 0.931 . S
H429 C416 0.929 . S
H430 C424 0.929 . S
H431 C425 0.930 . S
C432 C433 1.369 . S
C432 C434 1.419 . S
C432 H436 0.945 . S
C433 C432 1.369 . S
C433 C442 1.429 . S
C434 C432 1.419 . S
C434 C435 1.363 . S
C434 H437 0.942 . S
C435 C434 1.363 . S
C435 C441 1.428 . S
H436 C432 0.945 . S
H437 C434 0.942 . S
S438 N439 1.613 . S
S438 N440 1.610 . S
N439 S438 1.613 . S
N439 C442 1.350 . S
N440 S438 1.610 . S
N440 C441 1.351 . S
C441 C435 1.428 . S
C441 N440 1.351 . S
C441 C442 1.434 . S
C442 C433 1.429 . S
C442 N439 1.350 . S
C442 C441 1.434 . S
C443 C444 1.369 . S
C443 C445 1.419 . S
C443 H447 0.930 . S
C444 C443 1.369 . S
C444 C453 1.429 1_455 S
C445 C443 1.419 . S
C445 C446 1.363 1_455 S
C445 H448 0.929 . S
C446 C445 1.363 1_655 S
C446 C452 1.428 . S
H447 C443 0.930 . S
H448 C445 0.929 . S
S449 N450 1.613 . S
S449 N451 1.610 . S
N450 S449 1.613 . S
N450 C453 1.350 . S
N451 S449 1.610 . S
N451 C452 1.351 . S
C452 C446 1.428 . S
C452 N451 1.351 . S
C452 C453 1.434 . S
C453 C444 1.429 1_655 S
C453 N450 1.350 . S
C453 C452 1.434 . S
C454 C455 1.369 1_545 S
C454 C456 1.419 . S
C454 H458 0.930 . S
C455 C454 1.369 1_565 S
C455 C464 1.429 . S
C456 C454 1.419 . S
C456 C457 1.363 . S
C456 H459 0.929 . S
C457 C456 1.363 . S
C457 C463 1.428 1_545 S
H458 C454 0.930 . S
H459 C456 0.929 . S
S460 N461 1.613 . S
S460 N462 1.610 . S
N461 S460 1.613 . S
N461 C464 1.350 . S
N462 S460 1.610 . S
N462 C463 1.351 . S
C463 C457 1.428 1_565 S
C463 N462 1.351 . S
C463 C464 1.434 . S
C464 C455 1.429 . S
C464 N461 1.350 . S
C464 C463 1.434 . S
C465 C466 1.369 . S
C465 C467 1.419 . S
C465 H469 0.930 . S
C466 C465 1.369 . S
C466 C475 1.429 . S
C467 C465 1.419 . S
C467 C468 1.363 . S
C467 H470 0.929 . S
C468 C467 1.363 . S
C468 C474 1.428 . S
H469 C465 0.930 . S
H470 C467 0.929 . S
S471 N472 1.613 . S
S471 N473 1.610 . S
N472 S471 1.613 . S
N472 C475 1.350 . S
N473 S471 1.610 . S
N473 C474 1.351 . S
C474 C468 1.428 . S
C474 N473 1.351 . S
C474 C475 1.434 . S
C475 C466 1.429 . S
C475 N472 1.350 . S
C475 C474 1.434 . S
C476 C477 1.369 . S
C476 C478 1.419 1_655 S
C476 H480 0.930 1_556 S
C477 C476 1.369 . S
C477 C486 1.429 . S
C478 C476 1.419 1_455 S
C478 C479 1.363 . S
C478 H481 0.929 1_556 S
C479 C478 1.363 . S
C479 C485 1.428 . S
H480 C476 0.930 1_554 S
H481 C478 0.929 1_554 S
S482 N483 1.613 . S
S482 N484 1.610 1_655 S
N483 S482 1.613 . S
N483 C486 1.350 . S
N484 S482 1.610 1_455 S
N484 C485 1.351 . S
C485 C479 1.428 . S
C485 N484 1.351 . S
C485 C486 1.434 1_455 S
C486 C477 1.429 . S
C486 N483 1.350 . S
C486 C485 1.434 1_655 S
C487 C488 1.369 . S
C487 C489 1.419 . S
C487 H491 0.930 . S
C488 C487 1.369 . S
C488 C497 1.429 1_545 S
C489 C487 1.419 . S
C489 C490 1.363 1_545 S
C489 H492 0.929 . S
C490 C489 1.363 1_565 S
C490 C496 1.428 . S
H491 C487 0.930 . S
H492 C489 0.929 . S
S493 N494 1.613 . S
S493 N495 1.610 . S
N494 S493 1.613 . S
N494 C497 1.350 . S
N495 S493 1.610 . S
N495 C496 1.351 . S
C496 C490 1.428 . S
C496 N495 1.351 . S
C496 C497 1.434 . S
C497 C488 1.429 1_565 S
C497 N494 1.350 . S
C497 C496 1.434 . S
C498 C499 1.369 . S
C498 C500 1.419 . S
C498 H502 0.930 . S
C499 C498 1.369 . S
C499 C508 1.429 . S
C500 C498 1.419 . S
C500 C501 1.363 . S
C500 H503 0.929 . S
C501 C500 1.363 . S
C501 C507 1.428 . S
H502 C498 0.930 . S
H503 C500 0.929 . S
S504 N505 1.613 . S
S504 N506 1.610 . S
N505 S504 1.613 . S
N505 C508 1.350 . S
N506 S504 1.610 . S
N506 C507 1.351 . S
C507 C501 1.428 . S
C507 N506 1.351 . S
C507 C508 1.434 . S
C508 C499 1.429 . S
C508 N505 1.350 . S
C508 C507 1.434 . S
C509 C510 1.369 . S
C509 C511 1.419 . S
C509 H513 0.930 . S
C510 C509 1.369 . S
C510 C519 1.429 . S
C511 C509 1.419 . S
C511 C512 1.363 . S
C511 H514 0.929 . S
C512 C511 1.363 . S
C512 C518 1.428 . S
H513 C509 0.930 . S
H514 C511 0.929 . S
S515 N516 1.613 . S
S515 N517 1.610 . S
N516 S515 1.613 . S
N516 C519 1.350 . S
N517 S515 1.610 . S
N517 C518 1.351 . S
C518 C512 1.428 . S
C518 N517 1.351 . S
C518 C519 1.434 . S
C519 C510 1.429 . S
C519 N516 1.350 . S
C519 C518 1.434 . S
C520 C521 1.369 . S
C520 C522 1.419 . S
C520 H524 0.930 . S
C521 C520 1.369 . S
C521 C530 1.429 . S
C522 C520 1.419 . S
C522 C523 1.363 . S
C522 H525 0.929 . S
C523 C522 1.363 . S
C523 C529 1.428 . S
H524 C520 0.930 . S
H525 C522 0.929 . S
S526 N527 1.613 . S
S526 N528 1.610 . S
N527 S526 1.613 . S
N527 C530 1.350 . S
N528 S526 1.610 . S
N528 C529 1.351 . S
C529 C523 1.428 . S
C529 N528 1.351 . S
C529 C530 1.434 . S
C530 C521 1.429 . S
C530 N527 1.350 . S
C530 C529 1.434 . S
C531 C532 1.369 . S
C531 C533 1.419 . S
C531 H535 0.930 . S
C532 C531 1.369 . S
C532 C541 1.429 . S
C533 C531 1.419 . S
C533 C534 1.363 . S
C533 H536 0.929 . S
C534 C533 1.363 . S
C534 C540 1.428 . S
H535 C531 0.930 . S
H536 C533 0.929 . S
S537 N538 1.613 . S
S537 N539 1.610 . S
N538 S537 1.613 . S
N538 C541 1.350 . S
N539 S537 1.610 . S
N539 C540 1.351 . S
C540 C534 1.428 . S
C540 N539 1.351 . S
C540 C541 1.434 . S
C541 C532 1.429 . S
C541 N538 1.350 . S
C541 C540 1.434 . S
C542 C543 1.369 . S
C542 C544 1.419 . S
C542 H546 0.930 . S
C543 C542 1.369 . S
C543 C552 1.429 . S
C544 C542 1.419 . S
C544 C545 1.363 . S
C544 H547 0.929 . S
C545 C544 1.363 . S
C545 C551 1.428 . S
H546 C542 0.930 . S
H547 C544 0.929 . S
S548 N549 1.613 . S
S548 N550 1.610 . S
N549 S548 1.613 . S
N549 C552 1.350 . S
N550 S548 1.610 . S
N550 C551 1.351 . S
C551 C545 1.428 . S
C551 N550 1.351 . S
C551 C552 1.434 . S
C552 C543 1.429 . S
C552 N549 1.350 . S
C552 C551 1.434 . S
C553 C554 1.369 . S
C553 C555 1.419 . S
C553 H557 0.930 . S
C554 C553 1.369 . S
C554 C563 1.429 . S
C555 C553 1.419 . S
C555 C556 1.363 . S
C555 H558 0.929 . S
C556 C555 1.363 . S
C556 C562 1.428 . S
H557 C553 0.930 . S
H558 C555 0.929 . S
S559 N560 1.613 . S
S559 N561 1.610 . S
N560 S559 1.613 . S
N560 C563 1.350 . S
N561 S559 1.610 . S
N561 C562 1.351 . S
C562 C556 1.428 . S
C562 N561 1.351 . S
C562 C563 1.434 . S
C563 C554 1.429 . S
C563 N560 1.350 . S
C563 C562 1.434 . S
C564 C565 1.369 1_554 S
C564 C566 1.419 1_565 S
C564 H568 0.930 . S
C565 C564 1.369 1_556 S
C565 C574 1.429 . S
C566 C564 1.419 1_545 S
C566 C567 1.363 . S
C566 H569 0.929 . S
C567 C566 1.363 . S
C567 C573 1.428 1_554 S
H568 C564 0.930 . S
H569 C566 0.929 . S
S570 N571 1.613 1_545 S
S570 N572 1.610 . S
N571 S570 1.613 1_565 S
N571 C574 1.350 . S
N572 S570 1.610 . S
N572 C573 1.351 . S
C573 C567 1.428 1_556 S
C573 N572 1.351 . S
C573 C574 1.434 1_545 S
C574 C565 1.429 . S
C574 N571 1.350 . S
C574 C573 1.434 1_565 S
C575 C576 1.369 . S
C575 C577 1.419 . S
C575 H579 0.930 . S
C576 C575 1.369 . S
C576 C585 1.429 . S
C577 C575 1.419 . S
C577 C578 1.363 . S
C577 H580 0.929 . S
C578 C577 1.363 . S
C578 C584 1.428 . S
H579 C575 0.930 . S
H580 C577 0.929 . S
S581 N582 1.613 . S
S581 N583 1.610 . S
N582 S581 1.613 . S
N582 C585 1.350 . S
N583 S581 1.610 . S
N583 C584 1.351 . S
C584 C578 1.428 . S
C584 N583 1.351 . S
C584 C585 1.434 . S
C585 C576 1.429 . S
C585 N582 1.350 . S
C585 C584 1.434 . S
C586 C587 1.369 . S
C586 C588 1.419 1_655 S
C586 H590 0.930 . S
C587 C586 1.369 . S
C587 C596 1.429 . S
C588 C586 1.419 1_455 S
C588 C589 1.363 . S
C588 H591 0.929 . S
C589 C588 1.363 . S
C589 C595 1.428 . S
H590 C586 0.930 . S
H591 C588 0.929 . S
S592 N593 1.613 . S
S592 N594 1.610 1_655 S
N593 S592 1.613 . S
N593 C596 1.350 . S
N594 S592 1.610 1_455 S
N594 C595 1.351 . S
C595 C589 1.428 . S
C595 N594 1.351 . S
C595 C596 1.434 1_455 S
C596 C587 1.429 . S
C596 N593 1.350 . S
C596 C595 1.434 1_655 S
C597 C598 1.369 1_556 S
C597 C599 1.419 1_565 S
C597 H601 0.930 . S
C598 C597 1.369 1_554 S
C598 C607 1.429 . S
C599 C597 1.419 1_545 S
C599 C600 1.363 . S
C599 H602 0.929 . S
C600 C599 1.363 . S
C600 C606 1.428 1_556 S
H601 C597 0.930 . S
H602 C599 0.929 . S
S603 N604 1.613 1_545 S
S603 N605 1.610 . S
N604 S603 1.613 1_565 S
N604 C607 1.350 . S
N605 S603 1.610 . S
N605 C606 1.351 . S
C606 C600 1.428 1_554 S
C606 N605 1.351 . S
C606 C607 1.434 1_545 S
C607 C598 1.429 . S
C607 N604 1.350 . S
C607 C606 1.434 1_565 S
C608 C609 1.369 . S
C608 C610 1.419 . S
C608 H612 0.930 . S
C609 C608 1.369 . S
C609 C618 1.429 . S
C610 C608 1.419 . S
C610 C611 1.363 . S
C610 H613 0.929 . S
C611 C610 1.363 . S
C611 C617 1.428 . S
H612 C608 0.930 . S
H613 C610 0.929 . S
S614 N615 1.613 . S
S614 N616 1.610 . S
N615 S614 1.613 . S
N615 C618 1.350 . S
N616 S614 1.610 . S
N616 C617 1.351 . S
C617 C611 1.428 . S
C617 N616 1.351 . S
C617 C618 1.434 . S
C618 C609 1.429 . S
C618 N615 1.350 . S
C618 C617 1.434 . S
C619 C620 1.369 . S
C619 C621 1.419 1_455 S
C619 H623 0.930 . S
C620 C619 1.369 . S
C620 C629 1.429 . S
C621 C619 1.419 1_655 S
C621 C622 1.363 . S
C621 H624 0.929 . S
C622 C621 1.363 . S
C622 C628 1.428 . S
H623 C619 0.930 . S
H624 C621 0.929 . S
S625 N626 1.613 1_655 S
S625 N627 1.610 . S
N626 S625 1.613 1_455 S
N626 C629 1.350 . S
N627 S625 1.610 . S
N627 C628 1.351 . S
C628 C622 1.428 . S
C628 N627 1.351 . S
C628 C629 1.434 1_655 S
C629 C620 1.429 . S
C629 N626 1.350 . S
C629 C628 1.434 1_455 S
C630 C631 1.369 1_554 S
C630 C632 1.419 . S
C630 H634 0.930 . S
C631 C630 1.369 1_556 S
C631 C640 1.429 . S
C632 C630 1.419 . S
C632 C633 1.363 . S
C632 H635 0.929 . S
C633 C632 1.363 . S
C633 C639 1.428 1_554 S
H634 C630 0.930 . S
H635 C632 0.929 . S
S636 N637 1.613 . S
S636 N638 1.610 . S
N637 S636 1.613 . S
N637 C640 1.350 . S
N638 S636 1.610 . S
N638 C639 1.351 . S
C639 C633 1.428 1_556 S
C639 N638 1.351 . S
C639 C640 1.434 . S
C640 C631 1.429 . S
C640 N637 1.350 . S
C640 C639 1.434 . S
C641 C642 1.369 . S
C641 C643 1.419 . S
C641 H645 0.930 . S
C642 C641 1.369 . S
C642 C651 1.429 . S
C643 C641 1.419 . S
C643 C644 1.363 . S
C643 H646 0.929 . S
C644 C643 1.363 . S
C644 C650 1.428 . S
H645 C641 0.930 . S
H646 C643 0.929 . S
S647 N648 1.613 . S
S647 N649 1.610 . S
N648 S647 1.613 . S
N648 C651 1.350 . S
N649 S647 1.610 . S
N649 C650 1.351 . S
C650 C644 1.428 . S
C650 N649 1.351 . S
C650 C651 1.434 . S
C651 C642 1.429 . S
C651 N648 1.350 . S
C651 C650 1.434 . S
C652 C653 1.369 . S
C652 C654 1.419 . S
C652 H656 0.930 . S
C653 C652 1.369 . S
C653 C662 1.429 . S
C654 C652 1.419 . S
C654 C655 1.363 . S
C654 H657 0.929 . S
C655 C654 1.363 . S
C655 C661 1.428 . S
H656 C652 0.930 . S
H657 C654 0.929 . S
S658 N659 1.613 . S
S658 N660 1.610 . S
N659 S658 1.613 . S
N659 C662 1.350 . S
N660 S658 1.610 . S
N660 C661 1.351 . S
C661 C655 1.428 . S
C661 N660 1.351 . S
C661 C662 1.434 . S
C662 C653 1.429 . S
C662 N659 1.350 . S
C662 C661 1.434 . S
C663 C664 1.369 . S
C663 C665 1.419 1_554 S
C663 H667 0.930 . S
C664 C663 1.369 . S
C664 C673 1.429 . S
C665 C663 1.419 1_556 S
C665 C666 1.363 . S
C665 H668 0.929 . S
C666 C665 1.363 . S
C666 C672 1.428 . S
H667 C663 0.930 . S
H668 C665 0.929 . S
S669 N670 1.613 1_556 S
S669 N671 1.610 . S
N670 S669 1.613 1_554 S
N670 C673 1.350 . S
N671 S669 1.610 . S
N671 C672 1.351 . S
C672 C666 1.428 . S
C672 N671 1.351 . S
C672 C673 1.434 1_556 S
C673 C664 1.429 . S
C673 N670 1.350 . S
C673 C672 1.434 1_554 S
C674 C675 1.369 . S
C674 C676 1.419 . S
C674 H678 0.930 . S
C675 C674 1.369 . S
C675 C684 1.429 . S
C676 C674 1.419 . S
C676 C677 1.363 . S
C676 H679 0.929 . S
C677 C676 1.363 . S
C677 C683 1.428 . S
H678 C674 0.930 . S
H679 C676 0.929 . S
S680 N681 1.613 . S
S680 N682 1.610 . S
N681 S680 1.613 . S
N681 C684 1.350 . S
N682 S680 1.610 . S
N682 C683 1.351 . S
C683 C677 1.428 . S
C683 N682 1.351 . S
C683 C684 1.434 . S
C684 C675 1.429 . S
C684 N681 1.350 . S
C684 C683 1.434 . S
C685 C686 1.369 . S
C685 C687 1.419 . S
C685 H689 0.930 . S
C686 C685 1.369 . S
C686 C695 1.429 . S
C687 C685 1.419 . S
C687 C688 1.363 . S
C687 H690 0.929 . S
C688 C687 1.363 . S
C688 C694 1.428 . S
H689 C685 0.930 . S
H690 C687 0.929 . S
S691 N692 1.613 . S
S691 N693 1.610 . S
N692 S691 1.613 . S
N692 C695 1.350 . S
N693 S691 1.610 . S
N693 C694 1.351 . S
C694 C688 1.428 . S
C694 N693 1.351 . S
C694 C695 1.434 . S
C695 C686 1.429 . S
C695 N692 1.350 . S
C695 C694 1.434 . S
C433 C112 1.394 . S
C435 C4 1.399 . S
C444 C40 1.393 . S
C446 C148 1.401 . S
C455 C184 1.402 . S
C457 C76 1.394 . S
C466 C220 1.393 . S
C468 C328 1.402 . S
C477 C364 1.395 . S
C479 C256 1.397 . S
C488 C292 1.393 . S
C490 C400 1.403 . S
C499 C302 1.564 . S
C501 C14 1.559 . S
C510 C50 1.561 . S
C512 C338 1.562 . S
C521 C86 1.563 . S
C523 C374 1.560 . S
C532 C122 1.560 . S
C534 C410 1.561 . S
C543 C230 1.558 . S
C545 C158 1.563 . S
C554 C266 1.563 . S
C556 C194 1.560 . S
C565 C255 1.205 . S
C567 C3 1.211 . S
C576 C39 1.212 . S
C578 C291 1.207 . S
C587 C75 1.211 . S
C589 C327 1.206 . S
C598 C111 1.206 . S
C600 C363 1.211 . S
C609 C399 1.210 . S
C611 C147 1.206 . S
C620 C183 1.205 . S
C622 C219 1.211 . S
C631 C362 1.530 . S
C633 C2 1.526 . S
C642 C398 1.531 . S
C644 C38 1.526 . S
C653 C218 1.525 . S
C655 C74 1.530 . S
C664 C110 1.529 . S
C666 C254 1.528 . S
C675 C146 1.530 . S
C677 C290 1.527 . S
C686 C182 1.530 . S
C688 C326 1.526 . S
