# Generated by pormake.
# Topology fnc, (5)-cn, num edge types: 1
# Building blocks:
#     Node 0, Type 0, BuildingBlock: BEQFEK_clean_sbu_0, # of connection points: 5
#     Node 1, Type 0, BuildingBlock: BEQFEK_clean_sbu_0, # of connection points: 5
#     Node 2, Type 0, BuildingBlock: BEQFEK_clean_sbu_0, # of connection points: 5
#     Node 3, Type 0, BuildingBlock: BEQFEK_clean_sbu_0, # of connection points: 5
#     Node 4, Type 0, BuildingBlock: BEQFEK_clean_sbu_0, # of connection points: 5
#     Node 5, Type 0, BuildingBlock: BEQFEK_clean_sbu_0, # of connection points: 5
#     Node 6, Type 0, BuildingBlock: BEQFEK_clean_sbu_0, # of connection points: 5
#     Node 7, Type 0, BuildingBlock: BEQFEK_clean_sbu_0, # of connection points: 5
#     Node 8, Type 0, BuildingBlock: BEQFEK_clean_sbu_0, # of connection points: 5
#     Node 9, Type 0, BuildingBlock: BEQFEK_clean_sbu_0, # of connection points: 5
#     Node 10, Type 0, BuildingBlock: BEQFEK_clean_sbu_0, # of connection points: 5
#     Node 11, Type 0, BuildingBlock: BEQFEK_clean_sbu_0, # of connection points: 5
#     Node 12, Type 0, BuildingBlock: BEQFEK_clean_sbu_0, # of connection points: 5
#     Node 13, Type 0, BuildingBlock: BEQFEK_clean_sbu_0, # of connection points: 5
#     Node 14, Type 0, BuildingBlock: BEQFEK_clean_sbu_0, # of connection points: 5
#     Node 15, Type 0, BuildingBlock: BEQFEK_clean_sbu_0, # of connection points: 5
#     Node 16, Type 0, BuildingBlock: BEQFEK_clean_sbu_0, # of connection points: 5
#     Node 17, Type 0, BuildingBlock: BEQFEK_clean_sbu_0, # of connection points: 5
#     Edge 18, Type (0, 0), BuildingBlock: MIFKUJ_clean_linker_0, # of connection points: 2
#     Edge 19, Type (0, 0), BuildingBlock: MIFKUJ_clean_linker_0, # of connection points: 2
#     Edge 20, Type (0, 0), BuildingBlock: MIFKUJ_clean_linker_0, # of connection points: 2
#     Edge 21, Type (0, 0), BuildingBlock: MIFKUJ_clean_linker_0, # of connection points: 2
#     Edge 22, Type (0, 0), BuildingBlock: MIFKUJ_clean_linker_0, # of connection points: 2
#     Edge 23, Type (0, 0), BuildingBlock: MIFKUJ_clean_linker_0, # of connection points: 2
#     Edge 24, Type (0, 0), BuildingBlock: MIFKUJ_clean_linker_0, # of connection points: 2
#     Edge 25, Type (0, 0), BuildingBlock: MIFKUJ_clean_linker_0, # of connection points: 2
#     Edge 26, Type (0, 0), BuildingBlock: MIFKUJ_clean_linker_0, # of connection points: 2
#     Edge 27, Type (0, 0), BuildingBlock: MIFKUJ_clean_linker_0, # of connection points: 2
#     Edge 28, Type (0, 0), BuildingBlock: MIFKUJ_clean_linker_0, # of connection points: 2
#     Edge 29, Type (0, 0), BuildingBlock: MIFKUJ_clean_linker_0, # of connection points: 2
#     Edge 30, Type (0, 0), BuildingBlock: MIFKUJ_clean_linker_0, # of connection points: 2
#     Edge 31, Type (0, 0), BuildingBlock: MIFKUJ_clean_linker_0, # of connection points: 2
#     Edge 32, Type (0, 0), BuildingBlock: MIFKUJ_clean_linker_0, # of connection points: 2
#     Edge 33, Type (0, 0), BuildingBlock: MIFKUJ_clean_linker_0, # of connection points: 2
#     Edge 34, Type (0, 0), BuildingBlock: MIFKUJ_clean_linker_0, # of connection points: 2
#     Edge 35, Type (0, 0), BuildingBlock: MIFKUJ_clean_linker_0, # of connection points: 2
#     Edge 36, Type (0, 0), BuildingBlock: MIFKUJ_clean_linker_0, # of connection points: 2
#     Edge 37, Type (0, 0), BuildingBlock: MIFKUJ_clean_linker_0, # of connection points: 2
#     Edge 38, Type (0, 0), BuildingBlock: MIFKUJ_clean_linker_0, # of connection points: 2
#     Edge 39, Type (0, 0), BuildingBlock: MIFKUJ_clean_linker_0, # of connection points: 2
#     Edge 40, Type (0, 0), BuildingBlock: MIFKUJ_clean_linker_0, # of connection points: 2
#     Edge 41, Type (0, 0), BuildingBlock: MIFKUJ_clean_linker_0, # of connection points: 2
#     Edge 42, Type (0, 0), BuildingBlock: MIFKUJ_clean_linker_0, # of connection points: 2
#     Edge 43, Type (0, 0), BuildingBlock: MIFKUJ_clean_linker_0, # of connection points: 2
#     Edge 44, Type (0, 0), BuildingBlock: MIFKUJ_clean_linker_0, # of connection points: 2
#     Edge 45, Type (0, 0), BuildingBlock: MIFKUJ_clean_linker_0, # of connection points: 2
#     Edge 46, Type (0, 0), BuildingBlock: MIFKUJ_clean_linker_0, # of connection points: 2
#     Edge 47, Type (0, 0), BuildingBlock: MIFKUJ_clean_linker_0, # of connection points: 2
#     Edge 48, Type (0, 0), BuildingBlock: MIFKUJ_clean_linker_0, # of connection points: 2
#     Edge 49, Type (0, 0), BuildingBlock: MIFKUJ_clean_linker_0, # of connection points: 2
#     Edge 50, Type (0, 0), BuildingBlock: MIFKUJ_clean_linker_0, # of connection points: 2
#     Edge 51, Type (0, 0), BuildingBlock: MIFKUJ_clean_linker_0, # of connection points: 2
#     Edge 52, Type (0, 0), BuildingBlock: MIFKUJ_clean_linker_0, # of connection points: 2
#     Edge 53, Type (0, 0), BuildingBlock: MIFKUJ_clean_linker_0, # of connection points: 2
#     Edge 54, Type (0, 0), BuildingBlock: MIFKUJ_clean_linker_0, # of connection points: 2
#     Edge 55, Type (0, 0), BuildingBlock: MIFKUJ_clean_linker_0, # of connection points: 2
#     Edge 56, Type (0, 0), BuildingBlock: MIFKUJ_clean_linker_0, # of connection points: 2
#     Edge 57, Type (0, 0), BuildingBlock: MIFKUJ_clean_linker_0, # of connection points: 2
#     Edge 58, Type (0, 0), BuildingBlock: MIFKUJ_clean_linker_0, # of connection points: 2
#     Edge 59, Type (0, 0), BuildingBlock: MIFKUJ_clean_linker_0, # of connection points: 2
#     Edge 60, Type (0, 0), BuildingBlock: MIFKUJ_clean_linker_0, # of connection points: 2
#     Edge 61, Type (0, 0), BuildingBlock: MIFKUJ_clean_linker_0, # of connection points: 2
#     Edge 62, Type (0, 0), BuildingBlock: MIFKUJ_clean_linker_0, # of connection points: 2
# Relax obj value: 0.253
# Max RMSD: 0.282
# Mean RMSD: 0.255
data_MOF--net-fnc--node1-BEQFEK_clean_sbu_0--edge1-MIFKUJ_clean_linker_0
_symmetry_space_group_name_H-M    P1
_symmetry_Int_Tables_number       1
_symmetry_cell_setting            triclinic
loop_
_symmetry_equiv_pos_as_xyz
'x, y, z'
_cell_length_a     119.7959
_cell_length_b     130.5846
_cell_length_c     22.786354
_cell_angle_alpha  89.01842
_cell_angle_beta   92.190077
_cell_angle_gamma 128.07563
loop_
_atom_site_label
_atom_site_type_symbol
_atom_site_fract_x
_atom_site_fract_y
_atom_site_fract_z
_atom_type_partial_charge
Co0 Co 0.0718 0.49161 0.05726 0.0
Co1 Co 0.05676 0.48167 0.17643 0.0
C2 C 0.0821 0.48286 0.14958 0.0
O3 O 0.08355 0.48763 0.09871 0.0
O4 O 0.07219 0.48009 0.18221 0.0
C5 C 0.08627 0.49703 0.95036 0.0
O6 O 0.08855 0.48897 0.97073 0.0
C7 C 0.05669 0.4823 0.3029 0.0
C8 C 0.0341 0.47181 0.32197 0.0
C9 C 0.0475 0.47825 0.34816 0.0
N10 N 0.04914 0.47836 0.25199 0.0
N11 N 0.03562 0.47203 0.26349 0.0
C12 C 0.07255 0.49101 0.30761 0.0
H13 H 0.07718 0.49597 0.26536 0.0
H14 H 0.0765 0.4984 0.34283 0.0
H15 H 0.07606 0.48511 0.31946 0.0
C16 C 0.07323 0.51426 0.08917 0.0
N17 N 0.07029 0.50274 0.10194 0.0
N18 N 0.06384 0.49855 0.1521 0.0
C19 C 0.06248 0.50729 0.17309 0.0
C20 C 0.06836 0.51754 0.1339 0.0
C21 C 0.07873 0.52097 0.0315 0.0
H22 H 0.07132 0.51431 0.99557 0.0
H23 H 0.08916 0.52323 0.0247 0.0
H24 H 0.07988 0.53006 0.02895 0.0
O25 O 0.0526 0.47531 0.03685 0.0
O26 O 0.04153 0.46845 0.12111 0.0
H27 H 0.04395 0.49661 0.22467 0.0
H28 H 0.05534 0.51402 0.23739 0.0
C29 C 0.05511 0.50558 0.22827 0.0
H30 H 0.06044 0.5045 0.26583 0.0
H31 H 0.02746 0.46802 0.2314 0.0
O32 O 0.08001 0.49986 0.98188 0.0
C33 C 0.04158 0.46717 0.06587 0.0
Co34 Co 0.58453 0.64286 0.05104 0.0
Co35 Co 0.59243 0.63913 0.17782 0.0
C36 C 0.58743 0.6588 0.14852 0.0
O37 O 0.58437 0.65583 0.09433 0.0
O38 O 0.59084 0.65322 0.18217 0.0
C39 C 0.56853 0.64118 0.94473 0.0
O40 O 0.5583 0.63844 0.97795 0.0
C41 C 0.58473 0.63322 0.29931 0.0
C42 C 0.60272 0.635 0.34195 0.0
C43 C 0.59017 0.63291 0.35339 0.0
N44 N 0.59353 0.63525 0.2577 0.0
N45 N 0.60421 0.63618 0.28331 0.0
C46 C 0.57224 0.63308 0.28791 0.0
H47 H 0.57358 0.64089 0.31402 0.0
H48 H 0.57091 0.63433 0.24059 0.0
H49 H 0.56242 0.62366 0.30188 0.0
C50 C 0.56227 0.61399 0.06227 0.0
N51 N 0.57292 0.62586 0.08442 0.0
N52 N 0.5765 0.62444 0.13757 0.0
C53 C 0.56832 0.61171 0.15092 0.0
C54 C 0.559 0.60468 0.10378 0.0
C55 C 0.55648 0.61147 0.00033 0.0
H56 H 0.56528 0.61757 0.96986 0.0
H57 H 0.54928 0.61409 0.99589 0.0
H58 H 0.55045 0.60109 0.9878 0.0
O59 O 0.60426 0.64886 0.0496 0.0
O60 O 0.61002 0.64541 0.13747 0.0
H61 H 0.58097 0.61082 0.2167 0.0
H62 H 0.56317 0.59572 0.20682 0.0
C63 C 0.56969 0.60646 0.20738 0.0
H64 H 0.56606 0.60919 0.24359 0.0
H65 H 0.61284 0.63823 0.26115 0.0
O66 O 0.57941 0.64291 0.96771 0.0
C67 C 0.61306 0.64922 0.08452 0.0
Co68 Co 0.44845 0.05539 0.13657 0.0
Co69 Co 0.43838 0.04421 0.00944 0.0
C70 C 0.44938 0.07152 0.04269 0.0
O71 O 0.4522 0.07068 0.0961 0.0
O72 O 0.4439 0.06199 0.00724 0.0
C73 C 0.46543 0.0692 0.24542 0.0
O74 O 0.47577 0.0789 0.21479 0.0
C75 C 0.4458 0.04548 0.8883 0.0
C76 C 0.42727 0.02667 0.85113 0.0
C77 C 0.44052 0.03797 0.83743 0.0
N78 N 0.43626 0.03882 0.93026 0.0
N79 N 0.42519 0.0276 0.90783 0.0
C80 C 0.45951 0.05893 0.89683 0.0
H81 H 0.45948 0.06368 0.93632 0.0
H82 H 0.46837 0.0584 0.90308 0.0
H83 H 0.46156 0.06498 0.8577 0.0
C84 C 0.46656 0.04734 0.12172 0.0
N85 N 0.45717 0.04911 0.10111 0.0
N86 N 0.45241 0.04379 0.04852 0.0
C87 C 0.45846 0.03827 0.03436 0.0
C88 C 0.46769 0.04045 0.08006 0.0
C89 C 0.47319 0.05098 0.18236 0.0
H90 H 0.46483 0.04707 0.21495 0.0
H91 H 0.48057 0.06173 0.18671 0.0
H92 H 0.47914 0.04716 0.1922 0.0
O93 O 0.42783 0.04113 0.13857 0.0
O94 O 0.42002 0.03257 0.04894 0.0
H95 H 0.44362 0.02418 0.96926 0.0
H96 H 0.45916 0.02502 0.98102 0.0
C97 C 0.45522 0.03078 0.97879 0.0
H98 H 0.46048 0.03767 0.94199 0.0
H99 H 0.41626 0.02055 0.9313 0.0
O100 O 0.45431 0.05951 0.21953 0.0
C101 C 0.41784 0.03284 0.10298 0.0
Co102 Co 0.0131 0.61804 0.12238 0.0
Co103 Co 0.02708 0.62864 0.001 0.0
C104 C 0.99601 0.61595 0.02138 0.0
O105 O 0.99642 0.61321 0.0748 0.0
O106 O 0.00703 0.62199 0.99074 0.0
C107 C 0.99768 0.6016 0.22549 0.0
O108 O 0.98926 0.59136 0.19129 0.0
C109 C 0.027 0.62298 0.87874 0.0
C110 C 0.04538 0.64175 0.84452 0.0
C111 C 0.03411 0.62912 0.82777 0.0
N112 N 0.03379 0.63152 0.92353 0.0
N113 N 0.04487 0.6427 0.90301 0.0
C114 C 0.01318 0.60962 0.88412 0.0
H115 H 0.00946 0.60772 0.92965 0.0
H116 H 0.01448 0.60222 0.87246 0.0
H117 H 0.00507 0.60848 0.85324 0.0
C118 C 0.02503 0.6038 0.11184 0.0
N119 N 0.02219 0.61169 0.09053 0.0
N120 N 0.02834 0.61639 0.03985 0.0
C121 C 0.03533 0.61168 0.02746 0.0
C122 C 0.03334 0.60347 0.07245 0.0
C123 C 0.02104 0.59769 0.17128 0.0
H124 H 0.0231 0.60487 0.20424 0.0
H125 H 0.00957 0.58934 0.17027 0.0
H126 H 0.02712 0.59416 0.18486 0.0
O127 O 0.02684 0.6371 0.12916 0.0
O128 O 0.03834 0.64531 0.04629 0.0
H129 H 0.0505 0.62567 0.96621 0.0
H130 H 0.0505 0.61191 0.97689 0.0
C131 C 0.04375 0.61503 0.97368 0.0
H132 H 0.03637 0.61003 0.93519 0.0
H133 H 0.05175 0.6511 0.92848 0.0
O134 O 0.00754 0.6125 0.20383 0.0
C135 C 0.03628 0.64677 0.09892 0.0
Co136 Co 0.43138 0.42745 0.13495 0.0
Co137 Co 0.42183 0.43178 0.01309 0.0
C138 C 0.426 0.41122 0.03366 0.0
O139 O 0.43028 0.41431 0.08705 0.0
O140 O 0.42237 0.41708 0.00341 0.0
C141 C 0.44695 0.42869 0.24635 0.0
O142 O 0.45845 0.43249 0.21967 0.0
C143 C 0.42688 0.43764 0.88866 0.0
C144 C 0.40927 0.43784 0.85865 0.0
C145 C 0.42073 0.43885 0.83905 0.0
N146 N 0.41951 0.43611 0.93552 0.0
N147 N 0.40907 0.43637 0.91741 0.0
C148 C 0.43875 0.43672 0.8909 0.0
H149 H 0.44069 0.43474 0.93607 0.0
H150 H 0.44865 0.44603 0.87661 0.0
H151 H 0.43625 0.42897 0.86034 0.0
C152 C 0.45398 0.45621 0.12387 0.0
N153 N 0.44286 0.44448 0.10226 0.0
N154 N 0.43871 0.44615 0.05101 0.0
C155 C 0.44708 0.45891 0.03826 0.0
C156 C 0.45703 0.4657 0.08391 0.0
C157 C 0.46036 0.45847 0.18456 0.0
H158 H 0.45186 0.45235 0.21623 0.0
H159 H 0.46746 0.45572 0.18567 0.0
H160 H 0.46664 0.46882 0.19812 0.0
O161 O 0.41211 0.42199 0.1424 0.0
O162 O 0.40516 0.42603 0.05967 0.0
H163 H 0.4342 0.461 0.97961 0.0
H164 H 0.45271 0.47521 0.98357 0.0
C165 C 0.44528 0.46444 0.98388 0.0
H166 H 0.44738 0.46094 0.94513 0.0
H167 H 0.40148 0.43501 0.94477 0.0
O168 O 0.43654 0.42681 0.21752 0.0
C169 C 0.40297 0.42203 0.11249 0.0
Co170 Co 0.58696 0.99924 0.0481 0.0
Co171 Co 0.59491 0.01126 0.17361 0.0
C172 C 0.59211 0.98715 0.14276 0.0
O173 O 0.58824 0.98644 0.08926 0.0
O174 O 0.59503 0.99629 0.17588 0.0
C175 C 0.57445 0.98272 0.94311 0.0
O176 O 0.57219 0.97318 0.97512 0.0
C177 C 0.58689 0.00566 0.2927 0.0
C178 C 0.60169 0.02436 0.33999 0.0
C179 C 0.59071 0.01123 0.3482 0.0
N180 N 0.59529 0.01495 0.25378 0.0
N181 N 0.60412 0.02615 0.28201 0.0
C182 C 0.57492 0.99187 0.27561 0.0
H183 H 0.57129 0.99131 0.22948 0.0
H184 H 0.56588 0.98774 0.30496 0.0
H185 H 0.5786 0.98591 0.27905 0.0
C186 C 0.56294 -7e-05 0.06303 0.0
N187 N 0.57447 0.00128 0.08398 0.0
N188 N 0.57823 0.00694 0.1359 0.0
C189 C 0.56934 0.00949 0.14962 0.0
C190 C 0.55935 0.00511 0.10393 0.0
C191 C 0.55673 0.99534 0.00211 0.0
H192 H 0.56475 0.00222 0.97003 0.0
H193 H 0.55403 0.98567 0.99441 0.0
H194 H 0.54709 0.99467 0.99463 0.0
O195 O 0.60605 0.01653 0.04478 0.0
O196 O 0.61179 0.02584 0.13307 0.0
H197 H 0.58196 0.02545 0.21031 0.0
H198 H 0.56355 0.01906 0.20356 0.0
C199 C 0.57084 0.01651 0.20434 0.0
H200 H 0.56833 0.01017 0.24269 0.0
H201 H 0.61193 0.03492 0.26197 0.0
O202 O 0.58044 0.99383 0.96622 0.0
C203 C 0.61459 0.02613 0.07937 0.0
Co204 Co 0.71009 0.8019 0.38877 0.0
Co205 Co 0.69721 0.79792 0.51144 0.0
C206 C 0.72238 0.79827 0.49345 0.0
O207 O 0.72339 0.80112 0.43923 0.0
O208 O 0.71257 0.7964 0.52369 0.0
C209 C 0.72779 0.81334 0.28382 0.0
O210 O 0.739 0.82191 0.31704 0.0
C211 C 0.69985 0.80428 0.63552 0.0
C212 C 0.67801 0.79632 0.65675 0.0
C213 C 0.69166 0.80304 0.68067 0.0
N214 N 0.69148 0.79879 0.58687 0.0
N215 N 0.67843 0.79403 0.59976 0.0
C216 C 0.71506 0.80951 0.63878 0.0
H217 H 0.71544 0.80127 0.63539 0.0
H218 H 0.72071 0.81604 0.60103 0.0
H219 H 0.72065 0.81473 0.68038 0.0
C220 C 0.71102 0.82519 0.39021 0.0
N221 N 0.70866 0.81465 0.4157 0.0
N222 N 0.70347 0.81307 0.46789 0.0
C223 C 0.70257 0.82268 0.47765 0.0
C224 C 0.70728 0.83062 0.42875 0.0
C225 C 0.71527 0.82914 0.32799 0.0
H226 H 0.70911 0.82044 0.2989 0.0
H227 H 0.7267 0.8338 0.32492 0.0
H228 H 0.71345 0.83612 0.31248 0.0
O229 O 0.6909 0.78488 0.3851 0.0
O230 O 0.68089 0.78215 0.46986 0.0
H231 H 0.68598 0.81592 0.53717 0.0
H232 H 0.69869 0.83345 0.53336 0.0
C233 C 0.69736 0.82426 0.53283 0.0
H234 H 0.70338 0.82433 0.57114 0.0
H235 H 0.66982 0.78921 0.56968 0.0
O236 O 0.71591 0.80504 0.30689 0.0
C237 C 0.68032 0.77827 0.41815 0.0
Co238 Co 0.26512 0.97855 0.40021 0.0
Co239 Co 0.27759 0.97604 0.51755 0.0
C240 C 0.27621 0.99834 0.49154 0.0
O241 O 0.2698 0.99403 0.44165 0.0
O242 O 0.27967 0.99232 0.52166 0.0
C243 C 0.26072 0.98567 0.28837 0.0
O244 O 0.27014 0.99753 0.30915 0.0
C245 C 0.27676 0.97503 0.64357 0.0
C246 C 0.29009 0.96933 0.67113 0.0
C247 C 0.2821 0.97275 0.69243 0.0
N248 N 0.28147 0.97324 0.59538 0.0
N249 N 0.28944 0.96981 0.61193 0.0
C250 C 0.26632 0.97777 0.64248 0.0
H251 H 0.26073 0.97528 0.59893 0.0
H252 H 0.25847 0.97213 0.67715 0.0
H253 H 0.27197 0.98823 0.65161 0.0
C254 C 0.24036 0.95219 0.43379 0.0
N255 N 0.25354 0.96324 0.44455 0.0
N256 N 0.2589 0.96191 0.49283 0.0
C257 C 0.24931 0.94989 0.51426 0.0
C258 C 0.23723 0.94335 0.47766 0.0
C259 C 0.23161 0.94983 0.37945 0.0
H260 H 0.23723 0.95035 0.34054 0.0
H261 H 0.23045 0.95761 0.37523 0.0
H262 H 0.22098 0.94019 0.37959 0.0
O263 O 0.28291 0.98151 0.38208 0.0
O264 O 0.29164 0.97864 0.46271 0.0
H265 H 0.2621 0.94675 0.56725 0.0
H266 H 0.24317 0.9343 0.57482 0.0
C267 C 0.25172 0.94485 0.56883 0.0
H268 H 0.25206 0.95009 0.60743 0.0
H269 H 0.29447 0.96787 0.58296 0.0
O270 O 0.25612 0.9761 0.32226 0.0
C271 C 0.29224 0.98113 0.40806 0.0
Co272 Co 0.08896 0.37405 0.38483 0.0
Co273 Co 0.10167 0.38715 0.50833 0.0
C274 C 0.07002 0.36789 0.48106 0.0
O275 O 0.07137 0.36586 0.4283 0.0
O276 O 0.0808 0.37592 0.51416 0.0
C277 C 0.07643 0.35671 0.27738 0.0
O278 O 0.06929 0.34593 0.30787 0.0
C279 C 0.10528 0.38455 0.63315 0.0
C280 C 0.12036 0.40496 0.66363 0.0
C281 C 0.11223 0.39221 0.68299 0.0
N282 N 0.10921 0.3924 0.58656 0.0
N283 N 0.11833 0.40459 0.60491 0.0
C284 C 0.09415 0.37007 0.63022 0.0
H285 H 0.08604 0.36687 0.66338 0.0
H286 H 0.08904 0.36685 0.58581 0.0
H287 H 0.09908 0.3653 0.6402 0.0
C288 C 0.10747 0.36634 0.40766 0.0
N289 N 0.10163 0.37192 0.42377 0.0
N290 N 0.10731 0.37783 0.47485 0.0
C291 C 0.11701 0.37627 0.49265 0.0
C292 C 0.1173 0.36882 0.45111 0.0
C293 C 0.10377 0.35893 0.35155 0.0
H294 H 0.10569 0.36526 0.31381 0.0
H295 H 0.09234 0.3505 0.35068 0.0
H296 H 0.10994 0.35527 0.347 0.0
O297 O 0.09883 0.39284 0.3748 0.0
O298 O 0.10825 0.40272 0.46107 0.0
H299 H 0.12992 0.39283 0.55039 0.0
H300 H 0.13684 0.38407 0.5397 0.0
C301 C 0.12701 0.38304 0.54471 0.0
H302 H 0.12177 0.37728 0.5847 0.0
H303 H 0.12283 0.41266 0.57761 0.0
O304 O 0.08435 0.36773 0.30296 0.0
C305 C 0.10608 0.40311 0.40625 0.0
Co306 Co 0.697 0.96374 0.38404 0.0
Co307 Co 0.68518 0.95325 0.50836 0.0
C308 C 0.70825 0.98179 0.48511 0.0
O309 O 0.70895 0.97999 0.43109 0.0
O310 O 0.69936 0.97238 0.51794 0.0
C311 C 0.71467 0.9738 0.27922 0.0
O312 O 0.72625 0.97931 0.31254 0.0
C313 C 0.68872 0.95037 0.63252 0.0
C314 C 0.66734 0.93303 0.65631 0.0
C315 C 0.681 0.94228 0.67891 0.0
N316 N 0.68009 0.94595 0.58449 0.0
N317 N 0.66733 0.93559 0.59882 0.0
C318 C 0.70367 0.96275 0.63374 0.0
H319 H 0.70341 0.97109 0.63103 0.0
H320 H 0.70919 0.96309 0.59485 0.0
H321 H 0.70977 0.96399 0.67428 0.0
C322 C 0.70186 0.94406 0.39289 0.0
N323 N 0.69787 0.95079 0.41528 0.0
N324 N 0.69283 0.94631 0.46776 0.0
C325 C 0.69358 0.93663 0.48066 0.0
C326 C 0.69934 0.93492 0.4337 0.0
C327 C 0.70659 0.94542 0.33144 0.0
H328 H 0.69962 0.94598 0.30046 0.0
H329 H 0.71759 0.95454 0.32825 0.0
H330 H 0.70632 0.93713 0.31841 0.0
O331 O 0.67699 0.95684 0.37884 0.0
O332 O 0.66799 0.94905 0.46654 0.0
H333 H 0.67749 0.9242 0.542 0.0
H334 H 0.69096 0.92199 0.53885 0.0
C335 C 0.68897 0.92923 0.537 0.0
H336 H 0.6949 0.93611 0.57426 0.0
H337 H 0.6586 0.93031 0.56939 0.0
O338 O 0.70264 0.9674 0.30228 0.0
C339 C 0.66665 0.9512 0.41309 0.0
Co340 Co 0.07431 0.77786 0.39045 0.0
Co341 Co 0.08325 0.77278 0.51052 0.0
C342 C 0.05373 0.76486 0.47967 0.0
O343 O 0.05682 0.771 0.43164 0.0
O344 O 0.06278 0.7646 0.50911 0.0
C345 C 0.06877 0.78778 0.28282 0.0
O346 O 0.06624 0.79448 0.31393 0.0
C347 C 0.08501 0.77859 0.63309 0.0
C348 C 0.09112 0.76746 0.67733 0.0
C349 C 0.08718 0.77525 0.68793 0.0
N350 N 0.08764 0.77314 0.59197 0.0
N351 N 0.09141 0.76657 0.61857 0.0
C352 C 0.07894 0.78557 0.6197 0.0
H353 H 0.07642 0.78519 0.57213 0.0
H354 H 0.08675 0.79594 0.63286 0.0
H355 H 0.06925 0.78126 0.64507 0.0
C356 C 0.10047 0.80488 0.41623 0.0
N357 N 0.09067 0.79227 0.43016 0.0
N358 N 0.09455 0.78997 0.4803 0.0
C359 C 0.10703 0.80098 0.49954 0.0
C360 C 0.11111 0.8108 0.45982 0.0
C361 C 0.1003 0.81085 0.35995 0.0
H362 H 0.09775 0.80432 0.32262 0.0
H363 H 0.09196 0.8121 0.36125 0.0
H364 H 0.11066 0.82048 0.35281 0.0
O365 O 0.07635 0.76398 0.38285 0.0
O366 O 0.08545 0.76154 0.46365 0.0
H367 H 0.11409 0.79311 0.56013 0.0
H368 H 0.12615 0.81068 0.55533 0.0
C369 C 0.11485 0.80198 0.55482 0.0
H370 H 0.10991 0.80275 0.59285 0.0
H371 H 0.09355 0.76103 0.59675 0.0
O372 O 0.07228 0.78135 0.30796 0.0
C373 C 0.08097 0.75862 0.41031 0.0
Co374 Co 0.24258 0.33707 0.39411 0.0
Co375 Co 0.25699 0.35128 0.51364 0.0
C376 C 0.24705 0.32396 0.48647 0.0
O377 O 0.24205 0.32338 0.43526 0.0
O378 O 0.25299 0.33406 0.51878 0.0
C379 C 0.23376 0.32399 0.28277 0.0
O380 O 0.24006 0.31913 0.30225 0.0
C381 C 0.2553 0.35136 0.6388 0.0
C382 C 0.27295 0.37152 0.66617 0.0
C383 C 0.26192 0.35943 0.68733 0.0
N384 N 0.26213 0.35823 0.59093 0.0
N385 N 0.2727 0.3703 0.60733 0.0
C386 C 0.24195 0.3376 0.63728 0.0
H387 H 0.23681 0.33493 0.59274 0.0
H388 H 0.23448 0.33627 0.66972 0.0
H389 H 0.24453 0.331 0.64929 0.0
C390 C 0.22302 0.34243 0.42522 0.0
N391 N 0.23431 0.34278 0.43752 0.0
N392 N 0.2406 0.34926 0.48681 0.0
C393 C 0.23355 0.35336 0.50738 0.0
C394 C 0.2222 0.34917 0.4689 0.0
C395 C 0.21319 0.33567 0.37278 0.0
H396 H 0.2109 0.32615 0.36599 0.0
H397 H 0.20306 0.3341 0.37805 0.0
H398 H 0.21841 0.34168 0.33324 0.0
O399 O 0.26239 0.35192 0.37744 0.0
O400 O 0.27296 0.36278 0.46085 0.0
H401 H 0.24989 0.36945 0.5615 0.0
H402 H 0.23319 0.36681 0.5599 0.0
C403 C 0.2382 0.36195 0.56017 0.0
H404 H 0.23513 0.35598 0.60038 0.0
H405 H 0.27968 0.3777 0.57841 0.0
O406 O 0.23298 0.33113 0.31656 0.0
C407 C 0.27325 0.36139 0.40586 0.0
Co408 Co 0.39345 0.14808 0.72981 0.0
Co409 Co 0.37973 0.13844 0.85144 0.0
C410 C 0.40662 0.14233 0.82165 0.0
O411 O 0.40718 0.14626 0.76959 0.0
O412 O 0.39661 0.13902 0.85482 0.0
C413 C 0.41145 0.1607 0.62779 0.0
O414 O 0.42171 0.16158 0.65672 0.0
C415 C 0.38257 0.14448 0.97417 0.0
C416 C 0.36177 0.12848 0.009 0.0
C417 C 0.37505 0.13981 0.02541 0.0
N418 N 0.37411 0.1364 0.92988 0.0
N419 N 0.36165 0.12688 0.95068 0.0
C420 C 0.39778 0.15605 0.96699 0.0
H421 H 0.40164 0.15576 0.92425 0.0
H422 H 0.39875 0.16506 0.96791 0.0
H423 H 0.40457 0.15654 0.00315 0.0
C424 C 0.39154 0.16901 0.75658 0.0
N425 N 0.39069 0.15857 0.77249 0.0
N426 N 0.3841 0.15408 0.82223 0.0
C427 C 0.38033 0.16136 0.83918 0.0
C428 C 0.38502 0.17113 0.79835 0.0
C429 C 0.39737 0.17609 0.69997 0.0
H430 H 0.38984 0.16989 0.66331 0.0
H431 H 0.40762 0.17804 0.69253 0.0
H432 H 0.39901 0.18543 0.70017 0.0
O433 O 0.37478 0.13072 0.71568 0.0
O434 O 0.3646 0.12359 0.80202 0.0
H435 H 0.36247 0.14691 0.89018 0.0
H436 H 0.36444 0.16165 0.87978 0.0
C437 C 0.37027 0.15764 0.88725 0.0
H438 H 0.37634 0.16153 0.92968 0.0
H439 H 0.35316 0.11921 0.92527 0.0
O440 O 0.39968 0.1555 0.65169 0.0
C441 C 0.3644 0.12213 0.74675 0.0
Co442 Co 0.91953 0.33482 0.6654 0.0
Co443 Co 0.92083 0.32613 0.79263 0.0
C444 C 0.92885 0.35254 0.76765 0.0
O445 O 0.92629 0.35051 0.7126 0.0
O446 O 0.92706 0.3439 0.8018 0.0
C447 C 0.90829 0.33951 0.56022 0.0
O448 O 0.89915 0.33886 0.59341 0.0
C449 C 0.91207 0.3207 0.91326 0.0
C450 C 0.92429 0.31461 0.95212 0.0
C451 C 0.91527 0.31742 0.96584 0.0
N452 N 0.9188 0.3198 0.87033 0.0
N453 N 0.92594 0.31596 0.89362 0.0
C454 C 0.90421 0.32616 0.90493 0.0
H455 H 0.90363 0.32822 0.85797 0.0
H456 H 0.89327 0.3191 0.9206 0.0
H457 H 0.90957 0.33521 0.93142 0.0
C458 C 0.89143 0.30857 0.66504 0.0
N459 N 0.90302 0.31891 0.6936 0.0
N460 N 0.90359 0.31546 0.74762 0.0
C461 C 0.89226 0.30298 0.75551 0.0
C462 C 0.88415 0.29822 0.70365 0.0
C463 C 0.88882 0.30781 0.59986 0.0
H464 H 0.89892 0.3125 0.57716 0.0
H465 H 0.8845 0.31305 0.58811 0.0
H466 H 0.88104 0.29759 0.58423 0.0
O467 O 0.93467 0.33305 0.66488 0.0
O468 O 0.93605 0.32692 0.75475 0.0
H469 H 0.90024 0.29592 0.81569 0.0
H470 H 0.88119 0.28474 0.80283 0.0
C471 C 0.89054 0.29514 0.80813 0.0
H472 H 0.88916 0.29912 0.84734 0.0
H473 H 0.93253 0.31496 0.87017 0.0
O474 O 0.91703 0.33798 0.58275 0.0
C475 C 0.94019 0.32985 0.70215 0.0
Co476 Co 0.77152 0.71667 0.80471 0.0
Co477 Co 0.75536 0.70314 0.68585 0.0
C478 C 0.76964 0.7316 0.71296 0.0
O479 O 0.77477 0.73181 0.76331 0.0
O480 O 0.76215 0.72123 0.68223 0.0
C481 C 0.78089 0.72937 0.91547 0.0
O482 O 0.77515 0.73466 0.89467 0.0
C483 C 0.75652 0.70351 0.56041 0.0
C484 C 0.73802 0.6838 0.53169 0.0
C485 C 0.74953 0.69574 0.51129 0.0
N486 N 0.74947 0.69661 0.60792 0.0
N487 N 0.73836 0.68483 0.59069 0.0
C488 C 0.7705 0.71688 0.56284 0.0
H489 H 0.77616 0.71856 0.6056 0.0
H490 H 0.77724 0.71826 0.52662 0.0
H491 H 0.76862 0.72418 0.55796 0.0
C492 C 0.78721 0.707 0.77113 0.0
N493 N 0.77734 0.70872 0.7604 0.0
N494 N 0.77008 0.70247 0.71182 0.0
C495 C 0.77498 0.69642 0.69041 0.0
C496 C 0.78603 0.69915 0.72708 0.0
C497 C 0.79669 0.71186 0.82515 0.0
H498 H 0.80217 0.72242 0.83087 0.0
H499 H 0.80464 0.71013 0.82304 0.0
H500 H 0.79012 0.70681 0.86402 0.0
O501 O 0.75104 0.70364 0.82216 0.0
O502 O 0.73922 0.69353 0.73856 0.0
H503 H 0.75736 0.68091 0.63832 0.0
H504 H 0.77356 0.68284 0.63081 0.0
C505 C 0.76907 0.68806 0.63628 0.0
H506 H 0.77164 0.69426 0.59731 0.0
H507 H 0.73114 0.67745 0.61918 0.0
O508 O 0.78137 0.72194 0.88233 0.0
C509 C 0.7395 0.69519 0.79365 0.0
Co510 Co 0.31426 0.2598 0.82298 0.0
Co511 Co 0.32593 0.26636 0.69699 0.0
C512 C 0.29864 0.26166 0.72667 0.0
O513 O 0.29924 0.25945 0.78083 0.0
O514 O 0.30828 0.26449 0.69235 0.0
C515 C 0.29688 0.24745 0.92588 0.0
O516 O 0.28572 0.24337 0.89198 0.0
C517 C 0.32197 0.25821 0.57637 0.0
C518 C 0.34143 0.27481 0.5352 0.0
C519 C 0.32843 0.26283 0.52292 0.0
N520 N 0.33072 0.267 0.61815 0.0
N521 N 0.34242 0.27685 0.59356 0.0
C522 C 0.30717 0.24628 0.58726 0.0
H523 H 0.29958 0.24558 0.55479 0.0
H524 H 0.30408 0.24629 0.63242 0.0
H525 H 0.30659 0.23753 0.58227 0.0
C526 C 0.31756 0.23928 0.80918 0.0
N527 N 0.31754 0.24891 0.78734 0.0
N528 N 0.32311 0.25209 0.73528 0.0
C529 C 0.32709 0.24475 0.72258 0.0
C530 C 0.32362 0.23633 0.76889 0.0
C531 C 0.3126 0.23354 0.86882 0.0
H532 H 0.32007 0.24087 0.90275 0.0
H533 H 0.302 0.23094 0.87509 0.0
H534 H 0.31189 0.2247 0.8746 0.0
O535 O 0.3323 0.27789 0.8277 0.0
O536 O 0.34105 0.28269 0.73846 0.0
H537 H 0.34336 0.25775 0.66218 0.0
H538 H 0.34231 0.24371 0.68069 0.0
C539 C 0.33601 0.2472 0.67176 0.0
H540 H 0.329 0.242 0.63243 0.0
H541 H 0.35081 0.28517 0.61619 0.0
O542 O 0.30913 0.25431 0.90449 0.0
C543 C 0.34193 0.28577 0.79211 0.0
Co544 Co 0.77018 0.12523 0.78544 0.0
Co545 Co 0.75388 0.12245 0.66883 0.0
C546 C 0.76171 0.10476 0.70196 0.0
O547 O 0.76889 0.11086 0.74864 0.0
O548 O 0.75562 0.10836 0.67116 0.0
C549 C 0.77711 0.12135 0.89801 0.0
O550 O 0.76914 0.10923 0.87926 0.0
C551 C 0.75218 0.12116 0.54161 0.0
C552 C 0.74014 0.12842 0.51771 0.0
C553 C 0.74773 0.12477 0.49416 0.0
N554 N 0.74788 0.12304 0.591 0.0
N555 N 0.74043 0.12713 0.57646 0.0
C556 C 0.75991 0.11551 0.54069 0.0
H557 H 0.75355 0.10598 0.56297 0.0
H558 H 0.77025 0.12203 0.56517 0.0
H559 H 0.76154 0.11373 0.49564 0.0
C560 C 0.79019 0.15225 0.74393 0.0
N561 N 0.77855 0.1398 0.73621 0.0
N562 N 0.77156 0.13882 0.68791 0.0
C563 C 0.77855 0.15067 0.66341 0.0
C564 C 0.79054 0.15956 0.6981 0.0
C565 C 0.79974 0.15719 0.79773 0.0
H566 H 0.79375 0.1563 0.83601 0.0
H567 H 0.80316 0.15109 0.80635 0.0
H568 H 0.8092 0.16751 0.79326 0.0
O569 O 0.75097 0.11904 0.80602 0.0
O570 O 0.73939 0.11799 0.72499 0.0
H571 H 0.76309 0.15114 0.61631 0.0
H572 H 0.78116 0.16397 0.59654 0.0
C573 C 0.77359 0.15359 0.60903 0.0
H574 H 0.77245 0.14755 0.57222 0.0
H575 H 0.7361 0.12958 0.60674 0.0
O576 O 0.78034 0.13024 0.862 0.0
C577 C 0.74002 0.11678 0.78033 0.0
Co578 Co 0.89569 0.64788 0.69408 0.0
Co579 Co 0.90089 0.65857 0.82161 0.0
C580 C 0.90199 0.63671 0.79091 0.0
O581 O 0.8985 0.63635 0.73711 0.0
O582 O 0.90339 0.64488 0.82649 0.0
C583 C 0.88172 0.6317 0.5874 0.0
O584 O 0.87298 0.62158 0.62033 0.0
C585 C 0.89221 0.65508 0.9428 0.0
C586 C 0.90546 0.67527 0.97668 0.0
C587 C 0.89501 0.66246 0.99242 0.0
N588 N 0.90043 0.66317 0.89972 0.0
N589 N 0.90834 0.67523 0.92018 0.0
C590 C 0.88226 0.64056 0.93645 0.0
H591 H 0.8847 0.63735 0.89779 0.0
H592 H 0.87125 0.63723 0.92984 0.0
H593 H 0.88279 0.63593 0.97664 0.0
C594 C 0.8706 0.64727 0.70073 0.0
N595 N 0.88169 0.64839 0.72592 0.0
N596 N 0.8839 0.65288 0.77985 0.0
C597 C 0.8742 0.65463 0.7908 0.0
C598 C 0.86539 0.65099 0.74138 0.0
C599 C 0.86644 0.64464 0.63675 0.0
H600 H 0.876 0.65093 0.6101 0.0
H601 H 0.86152 0.63434 0.62692 0.0
H602 H 0.8587 0.64638 0.62408 0.0
O603 O 0.91381 0.66566 0.69378 0.0
O604 O 0.91759 0.67409 0.78278 0.0
H605 H 0.88568 0.67076 0.85103 0.0
H606 H 0.86731 0.66399 0.83853 0.0
C607 C 0.87475 0.66164 0.84357 0.0
H608 H 0.87181 0.6554 0.88267 0.0
H609 H 0.9157 0.68342 0.89561 0.0
O610 O 0.89123 0.64269 0.61109 0.0
C611 C 0.92129 0.67511 0.72998 0.0
H612 H 0.095 0.48929 0.86421 0.0
H613 H 0.09162 0.49027 0.75838 0.0
H614 H 0.07727 0.51292 0.78836 0.0
H615 H 0.08071 0.51211 0.89398 0.0
H616 H 0.0573 0.4892 0.73109 0.0
H617 H 0.10592 0.52635 0.71432 0.0
H618 H 0.13184 0.53922 0.72834 0.0
H619 H 0.13067 0.51069 0.63093 0.0
H620 H 0.1047 0.49755 0.61703 0.0
H621 H 0.04028 0.4886 0.42642 0.0
H622 H 0.04903 0.49486 0.52876 0.0
H623 H 0.07186 0.47934 0.51298 0.0
H624 H 0.06346 0.47346 0.41066 0.0
H625 H 0.08843 0.50204 0.56285 0.0
H626 H 0.04052 0.46368 0.58908 0.0
H627 H 0.0144 0.44935 0.57931 0.0
H628 H 0.01393 0.47829 0.66294 0.0
H629 H 0.04008 0.49289 0.67238 0.0
C630 C 0.09155 0.49483 0.84825 0.0
C631 C 0.08782 0.50037 0.88746 0.0
C632 C 0.08967 0.49541 0.78776 0.0
C633 C 0.08407 0.50156 0.76588 0.0
C634 C 0.08153 0.50807 0.80463 0.0
C635 C 0.08349 0.50758 0.86496 0.0
C636 C 0.0788 0.49943 0.70429 0.0
C637 C 0.06412 0.49225 0.69406 0.0
C638 C 0.0877 0.50304 0.65662 0.0
C639 C 0.10333 0.51091 0.66505 0.0
C640 C 0.11116 0.52276 0.69634 0.0
C641 C 0.12587 0.53012 0.70416 0.0
C642 C 0.13289 0.52576 0.68065 0.0
C643 C 0.12522 0.51405 0.64916 0.0
C644 C 0.1105 0.50665 0.64123 0.0
C645 C 0.04703 0.48642 0.44534 0.0
C646 C 0.05134 0.48069 0.41109 0.0
C647 C 0.05202 0.48999 0.50359 0.0
C648 C 0.0611 0.48757 0.52851 0.0
C649 C 0.065 0.48144 0.4945 0.0
C650 C 0.06019 0.47806 0.43624 0.0
C651 C 0.06685 0.49162 0.58953 0.0
C652 C 0.0816 0.49914 0.59972 0.0
C653 C 0.05798 0.48812 0.63743 0.0
C654 C 0.04227 0.47946 0.63065 0.0
C655 C 0.03486 0.46706 0.60473 0.0
C656 C 0.02005 0.45887 0.59938 0.0
C657 C 0.01252 0.46293 0.62023 0.0
C658 C 0.01978 0.47518 0.64656 0.0
C659 C 0.0346 0.48341 0.65193 0.0
H660 H 0.00105 0.45656 0.61622 0.0
H661 H 0.14429 0.53148 0.68673 0.0
H662 H 0.54438 0.62751 0.87409 0.0
H663 H 0.54316 0.62591 0.76623 0.0
H664 H 0.58876 0.65401 0.76323 0.0
H665 H 0.59005 0.65548 0.87016 0.0
H666 H 0.5738 0.6568 0.66984 0.0
H667 H 0.57491 0.62346 0.76887 0.0
H668 H 0.56456 0.6049 0.83638 0.0
H669 H 0.5255 0.5834 0.73367 0.0
H670 H 0.53556 0.60194 0.66607 0.0
H671 H 0.60585 0.64921 0.4451 0.0
H672 H 0.59738 0.6502 0.5392 0.0
H673 H 0.55475 0.61714 0.48771 0.0
H674 H 0.56325 0.61606 0.39351 0.0
H675 H 0.56178 0.61514 0.60023 0.0
H676 H 0.56158 0.64532 0.48826 0.0
H677 H 0.56974 0.66341 0.42042 0.0
H678 H 0.60381 0.69015 0.54207 0.0
H679 H 0.59604 0.67216 0.61031 0.0
C680 C 0.55408 0.63353 0.85015 0.0
C681 C 0.56732 0.64152 0.88025 0.0
C682 C 0.55337 0.63261 0.78874 0.0
C683 C 0.56588 0.63982 0.75699 0.0
C684 C 0.579 0.64842 0.78694 0.0
C685 C 0.57972 0.64917 0.84802 0.0
C686 C 0.56576 0.6374 0.69375 0.0
C687 C 0.57114 0.64771 0.65435 0.0
C688 C 0.56177 0.62535 0.67334 0.0
C689 C 0.55592 0.61411 0.71289 0.0
C690 C 0.56409 0.61479 0.76089 0.0
C691 C 0.55828 0.60429 0.79913 0.0
C692 C 0.54437 0.593 0.78936 0.0
C693 C 0.53626 0.59217 0.74119 0.0
C694 C 0.54201 0.60266 0.70292 0.0
C695 C 0.59469 0.64215 0.45393 0.0
C696 C 0.58513 0.63276 0.41166 0.0
C697 C 0.58984 0.64277 0.50743 0.0
C698 C 0.57538 0.63391 0.51982 0.0
C699 C 0.5659 0.62418 0.47857 0.0
C700 C 0.57074 0.62365 0.42471 0.0
C701 C 0.5704 0.63475 0.57666 0.0
C702 C 0.56409 0.62415 0.61492 0.0
C703 C 0.57327 0.64646 0.59557 0.0
C704 C 0.57824 0.65735 0.5544 0.0
C705 C 0.5709 0.65503 0.50038 0.0
C706 C 0.57544 0.66527 0.46188 0.0
C707 C 0.58723 0.67792 0.47708 0.0
C708 C 0.59462 0.68034 0.53053 0.0
C709 C 0.59016 0.67012 0.56916 0.0
H710 H 0.59062 0.68584 0.44742 0.0
H711 H 0.53989 0.58491 0.81903 0.0
H712 H 0.42668 0.03104 0.73127 0.0
H713 H 0.43699 0.03755 0.63444 0.0
H714 H 0.47898 0.05885 0.71457 0.0
H715 H 0.46873 0.05178 0.8114 0.0
H716 H 0.47448 0.07332 0.63059 0.0
H717 H 0.47017 0.03479 0.64409 0.0
H718 H 0.45866 0.01176 0.66586 0.0
H719 H 0.42597 -0.00011 0.53479 0.0
H720 H 0.43714 0.02284 0.51284 0.0
H721 H 0.48977 0.08322 0.3161 0.0
H722 H 0.49165 0.07971 0.42146 0.0
H723 H 0.44622 0.05016 0.42323 0.0
H724 H 0.44426 0.05352 0.31958 0.0
H725 H 0.46074 0.04177 0.47095 0.0
H726 H 0.4617 0.07987 0.47894 0.0
H727 H 0.47228 0.10278 0.45896 0.0
H728 H 0.51088 0.11523 0.55009 0.0
H729 H 0.50056 0.09236 0.56999 0.0
C730 C 0.43809 0.03698 0.72832 0.0
C731 C 0.4469 0.04129 0.77918 0.0
C732 C 0.44397 0.0407 0.67307 0.0
C733 C 0.45873 0.04876 0.66773 0.0
C734 C 0.46757 0.05277 0.71813 0.0
C735 C 0.46168 0.04888 0.77346 0.0
C736 C 0.46472 0.05335 0.60915 0.0
C737 C 0.47186 0.06651 0.59579 0.0
C738 C 0.46127 0.04443 0.5642 0.0
C739 C 0.45449 0.03057 0.57697 0.0
C740 C 0.46047 0.02727 0.62018 0.0
C741 C 0.45401 0.01423 0.63251 0.0
C742 C 0.44159 0.00437 0.60176 0.0
C743 C 0.4356 0.00754 0.55855 0.0
C744 C 0.44201 0.02057 0.54607 0.0
C745 C 0.48021 0.07611 0.33938 0.0
C746 C 0.46689 0.06856 0.3096 0.0
C747 C 0.4813 0.07408 0.39927 0.0
C748 C 0.46908 0.06454 0.42964 0.0
C749 C 0.45579 0.05741 0.40029 0.0
C750 C 0.4547 0.0594 0.34104 0.0
C751 C 0.4697 0.06156 0.49189 0.0
C752 C 0.46384 0.04868 0.50599 0.0
C753 C 0.47427 0.07072 0.53736 0.0
C754 C 0.48045 0.08443 0.52518 0.0
C755 C 0.47249 0.08749 0.4942 0.0
C756 C 0.47843 0.10047 0.48301 0.0
C757 C 0.49226 0.11046 0.50304 0.0
C758 C 0.50018 0.10749 0.53445 0.0
C759 C 0.49429 0.09452 0.5457 0.0
H760 H 0.49684 0.1205 0.49437 0.0
H761 H 0.4366 0.99427 0.61137 0.0
H762 H 0.02443 0.60541 0.7839 0.0
H763 H 0.01431 0.59664 0.68538 0.0
H764 H 0.02382 0.63321 0.635 0.0
H765 H 0.03341 0.64181 0.73418 0.0
H766 H 0.997 0.61286 0.60182 0.0
H767 H 0.04393 0.62449 0.5922 0.0
H768 H 0.06335 0.62369 0.6229 0.0
H769 H 0.0361 0.58247 0.59082 0.0
H770 H 0.01645 0.58301 0.56062 0.0
H771 H 0.00482 0.62072 0.30035 0.0
H772 H 0.0063 0.62062 0.40711 0.0
H773 H 0.9901 0.58056 0.40346 0.0
H774 H 0.98849 0.58058 0.29535 0.0
H775 H 0.0155 0.59706 0.46964 0.0
H776 H 0.96999 0.58666 0.46068 0.0
H777 H 0.95124 0.58811 0.4266 0.0
H778 H 0.97604 0.62738 0.49132 0.0
H779 H 0.99506 0.62625 0.52502 0.0
C780 C 0.02415 0.61149 0.75209 0.0
C781 C 0.02936 0.62417 0.76697 0.0
C782 C 0.01855 0.60653 0.69561 0.0
C783 C 0.01825 0.61425 0.653 0.0
C784 C 0.02384 0.62705 0.66742 0.0
C785 C 0.02942 0.63199 0.72383 0.0
C786 C 0.01199 0.60906 0.5934 0.0
C787 C 0.00107 0.60945 0.57279 0.0
C788 C 0.0169 0.60409 0.5565 0.0
C789 C 0.02868 0.60376 0.57495 0.0
C790 C 0.04204 0.61523 0.59226 0.0
C791 C 0.0531 0.61483 0.60943 0.0
C792 C 0.05094 0.60303 0.60902 0.0
C793 C 0.03774 0.5916 0.59127 0.0
C794 C 0.02664 0.59195 0.5741 0.0
C795 C 0.00133 0.61181 0.32223 0.0
C796 C 0.99657 0.60066 0.28976 0.0
C797 C 0.00211 0.61174 0.38325 0.0
C798 C 0.99821 0.60055 0.41313 0.0
C799 C 0.99306 0.58925 0.38102 0.0
C800 C 0.99209 0.58926 0.31953 0.0
C801 C 0.00091 0.60136 0.47737 0.0
C802 C 0.01116 0.60015 0.49907 0.0
C803 C 0.99543 0.60563 0.51523 0.0
C804 C 0.98399 0.60637 0.49522 0.0
C805 C 0.9715 0.59564 0.46731 0.0
C806 C 0.96081 0.5964 0.4481 0.0
C807 C 0.96245 0.60783 0.45674 0.0
C808 C 0.97478 0.61852 0.48469 0.0
C809 C 0.98551 0.61782 0.50396 0.0
H810 H 0.95416 0.6084 0.44183 0.0
H811 H 0.05952 0.60274 0.6223 0.0
H812 H 0.4238 0.41183 0.30948 0.0
H813 H 0.42098 0.41343 0.41358 0.0
H814 H 0.46544 0.44608 0.43265 0.0
H815 H 0.4684 0.44427 0.32799 0.0
H816 H 0.45437 0.42969 0.53301 0.0
H817 H 0.44288 0.45208 0.40444 0.0
H818 H 0.43076 0.45297 0.31686 0.0
H819 H 0.39028 0.42246 0.38633 0.0
H820 H 0.40218 0.42124 0.47398 0.0
H821 H 0.44672 0.45436 0.78962 0.0
H822 H 0.45243 0.45292 0.68964 0.0
H823 H 0.40802 0.42255 0.64877 0.0
H824 H 0.40229 0.424 0.74888 0.0
H825 H 0.42024 0.43879 0.55905 0.0
H826 H 0.43047 0.41545 0.68398 0.0
H827 H 0.4415 0.41265 0.76981 0.0
H828 H 0.48291 0.44297 0.70723 0.0
H829 H 0.47212 0.44613 0.62152 0.0
C830 C 0.43306 0.41913 0.33621 0.0
C831 C 0.44628 0.42802 0.31081 0.0
C832 C 0.43143 0.42005 0.39558 0.0
C833 C 0.44292 0.43007 0.43035 0.0
C834 C 0.45643 0.43833 0.40633 0.0
C835 C 0.45812 0.43728 0.34673 0.0
C836 C 0.44037 0.4327 0.48932 0.0
C837 C 0.4471 0.43189 0.5388 0.0
C838 C 0.43062 0.43528 0.49668 0.0
C839 C 0.42343 0.43652 0.44563 0.0
C840 C 0.4314 0.44556 0.40104 0.0
C841 C 0.42457 0.4461 0.35135 0.0
C842 C 0.40976 0.43775 0.34597 0.0
C843 C 0.40175 0.42892 0.39056 0.0
C844 C 0.40853 0.42831 0.4403 0.0
C845 C 0.43821 0.44731 0.75944 0.0
C846 C 0.42411 0.43903 0.77726 0.0
C847 C 0.44146 0.44654 0.70226 0.0
C848 C 0.43068 0.43742 0.66213 0.0
C849 C 0.41652 0.42961 0.6791 0.0
C850 C 0.41325 0.43044 0.73619 0.0
C851 C 0.43419 0.43573 0.60312 0.0
C852 C 0.42762 0.43671 0.55347 0.0
C853 C 0.44396 0.43316 0.59574 0.0
C854 C 0.45049 0.43112 0.64663 0.0
C855 C 0.44193 0.42158 0.68871 0.0
C856 C 0.44813 0.41993 0.73734 0.0
C857 C 0.46289 0.42765 0.74403 0.0
C858 C 0.47147 0.43701 0.70202 0.0
C859 C 0.46532 0.43874 0.6534 0.0
H860 H 0.46768 0.42636 0.78172 0.0
H861 H 0.4045 0.43811 0.30724 0.0
H862 H 0.57416 0.99935 0.87146 0.0
H863 H 0.57036 0.99792 0.76578 0.0
H864 H 0.56197 0.96069 0.76458 0.0
H865 H 0.56605 0.96217 0.87164 0.0
H866 H 0.58128 0.97669 0.68731 0.0
H867 H 0.53542 0.9626 0.72422 0.0
H868 H 0.51682 0.96195 0.77137 0.0
H869 H 0.53472 0.00013 0.70673 0.0
H870 H 0.55357 0.00112 0.65993 0.0
H871 H 0.58159 0.98691 0.38106 0.0
H872 H 0.57219 0.97629 0.47471 0.0
H873 H 0.57928 0.01072 0.5409 0.0
H874 H 0.58774 0.02108 0.44517 0.0
H875 H 0.55459 0.98901 0.57793 0.0
H876 H 0.60358 0.00424 0.56559 0.0
H877 H 0.62211 0.00469 0.51864 0.0
H878 H 0.59718 0.96328 0.53716 0.0
H879 H 0.57845 0.96258 0.58372 0.0
C880 C 0.57133 0.99075 0.84907 0.0
C881 C 0.57054 0.98092 0.87985 0.0
C882 C 0.56899 0.98988 0.78853 0.0
C883 C 0.56568 0.97911 0.75732 0.0
C884 C 0.56441 0.96904 0.788 0.0
C885 C 0.56674 0.96989 0.84902 0.0
C886 C 0.5653 0.97938 0.69237 0.0
C887 C 0.57512 0.97899 0.66304 0.0
C888 C 0.55733 0.98246 0.66078 0.0
C889 C 0.54595 0.98193 0.68859 0.0
C890 C 0.53545 0.97089 0.72031 0.0
C891 C 0.52485 0.97046 0.74696 0.0
C892 C 0.52459 0.98099 0.74207 0.0
C893 C 0.53492 0.99197 0.71043 0.0
C894 C 0.54555 0.99246 0.6837 0.0
C895 C 0.58065 0.99207 0.41454 0.0
C896 C 0.58502 0.00472 0.40507 0.0
C897 C 0.5755 0.98604 0.46858 0.0
C898 C 0.57511 0.99273 0.51487 0.0
C899 C 0.57941 0.00534 0.50556 0.0
C900 C 0.58436 0.0113 0.45114 0.0
C901 C 0.57108 0.987 0.57417 0.0
C902 C 0.56041 0.98633 0.60205 0.0
C903 C 0.57819 0.98286 0.60443 0.0
C904 C 0.58958 0.98334 0.57759 0.0
C905 C 0.60204 0.99523 0.55944 0.0
C906 C 0.61257 0.99553 0.5329 0.0
C907 C 0.6108 0.98401 0.52475 0.0
C908 C 0.59853 0.97218 0.54339 0.0
C909 C 0.58796 0.97183 0.56991 0.0
H910 H 0.61895 0.98426 0.5041 0.0
H911 H 0.51637 0.98064 0.76276 0.0
H912 H 0.71449 0.82674 0.7234 0.0
H913 H 0.72335 0.83231 0.82584 0.0
H914 H 0.68697 0.79437 0.87969 0.0
H915 H 0.67833 0.78864 0.77718 0.0
H916 H 0.69469 0.81477 0.95624 0.0
H917 H 0.71597 0.79841 0.85641 0.0
H918 H 0.72954 0.79862 0.77705 0.0
H919 H 0.76567 0.83738 0.82677 0.0
H920 H 0.7522 0.83749 0.90581 0.0
H921 H 0.70883 0.79444 0.20617 0.0
H922 H 0.70618 0.79678 0.10155 0.0
H923 H 0.7443 0.83657 0.10967 0.0
H924 H 0.74706 0.83433 0.21568 0.0
H925 H 0.73901 0.82028 0.00215 0.0
H926 H 0.71822 0.83503 0.11313 0.0
H927 H 0.70431 0.83369 0.19411 0.0
H928 H 0.66711 0.79757 0.12415 0.0
H929 H 0.68087 0.79856 0.04336 0.0
C930 C 0.70847 0.81958 0.7572 0.0
C931 C 0.69605 0.80709 0.74255 0.0
C932 C 0.71344 0.82282 0.81554 0.0
C933 C 0.70591 0.81366 0.85997 0.0
C934 C 0.69295 0.80153 0.84585 0.0
C935 C 0.68804 0.79826 0.78746 0.0
C936 C 0.712 0.81623 0.92047 0.0
C937 C 0.7044 0.81604 0.9663 0.0
C938 C 0.72485 0.81817 0.93324 0.0
C939 C 0.73303 0.81802 0.88652 0.0
C940 C 0.72678 0.80702 0.85012 0.0
C941 C 0.73445 0.80707 0.80523 0.0
C942 C 0.74845 0.81802 0.79676 0.0
C943 C 0.75482 0.82892 0.83331 0.0
C944 C 0.74717 0.82893 0.87815 0.0
C945 C 0.71682 0.80364 0.18571 0.0
C946 C 0.72805 0.81427 0.21923 0.0
C947 C 0.71529 0.80494 0.12591 0.0
C948 C 0.72492 0.81689 0.09841 0.0
C949 C 0.73676 0.82729 0.13049 0.0
C950 C 0.73832 0.82599 0.19084 0.0
C951 C 0.72154 0.81857 0.03777 0.0
C952 C 0.72956 0.81946 0.99195 0.0
C953 C 0.70908 0.81729 0.02491 0.0
C954 C 0.70061 0.81685 0.07231 0.0
C955 C 0.70709 0.82677 0.11517 0.0
C956 C 0.69923 0.82607 0.16105 0.0
C957 C 0.68483 0.81555 0.16431 0.0
C958 C 0.67826 0.80572 0.12155 0.0
C959 C 0.68609 0.80635 0.07565 0.0
H960 H 0.67877 0.81501 0.19991 0.0
H961 H 0.75437 0.81805 0.76198 0.0
H962 H 0.27416 0.95548 0.78123 0.0
H963 H 0.26899 0.95732 0.88229 0.0
H964 H 0.28063 0.99517 0.84303 0.0
H965 H 0.28582 0.99337 0.74268 0.0
H966 H 0.29166 0.99422 0.95108 0.0
H967 H 0.24707 0.97035 0.84154 0.0
H968 H 0.22794 0.95252 0.77757 0.0
H969 H 0.22005 0.92453 0.90631 0.0
H970 H 0.23932 0.9422 0.97067 0.0
H971 H 0.2671 0.00318 0.20211 0.0
H972 H 0.26823 0.00052 0.09704 0.0
H973 H 0.25124 0.96061 0.12535 0.0
H974 H 0.24942 0.963 0.22952 0.0
H975 H 0.24267 0.96265 0.02128 0.0
H976 H 0.28772 0.98624 0.12949 0.0
H977 H 0.30639 0.00402 0.19519 0.0
H978 H 0.31367 0.03224 0.06938 0.0
H979 H 0.29484 0.01465 0.00342 0.0
C980 C 0.27571 0.9642 0.79461 0.0
C981 C 0.28012 0.97418 0.75429 0.0
C982 C 0.2727 0.96523 0.85198 0.0
C983 C 0.27426 0.97632 0.86968 0.0
C984 C 0.27927 0.98651 0.83003 0.0
C985 C 0.28211 0.98542 0.77271 0.0
C986 C 0.27038 0.97725 0.9291 0.0
C987 C 0.28093 0.9874 0.9663 0.0
C988 C 0.25642 0.96821 0.94902 0.0
C989 C 0.24474 0.95759 0.91065 0.0
C990 C 0.24134 0.96039 0.85601 0.0
C991 C 0.23046 0.95031 0.8197 0.0
C992 C 0.22281 0.9374 0.8378 0.0
C993 C 0.226 0.93454 0.89232 0.0
C994 C 0.2369 0.94458 0.92873 0.0
C995 C 0.26324 0.99375 0.18564 0.0
C996 C 0.25843 0.98338 0.22424 0.0
C997 C 0.26397 0.99225 0.12567 0.0
C998 C 0.26028 0.98049 0.10373 0.0
C999 C 0.25429 0.96981 0.14135 0.0
C1000 C 0.25329 0.97122 0.20105 0.0
C1001 C 0.26396 0.97965 0.0435 0.0
C1002 C 0.25341 0.96949 0.00614 0.0
C1003 C 0.27796 0.98861 0.02351 0.0
C1004 C 0.28978 0.99914 0.0618 0.0
C1005 C 0.2933 0.99624 0.11587 0.0
C1006 C 0.30389 0.00627 0.15316 0.0
C1007 C 0.31116 0.01923 0.1365 0.0
C1008 C 0.30799 0.02219 0.08224 0.0
C1009 C 0.29737 0.0122 0.04489 0.0
H1010 H 0.31919 0.02698 0.16572 0.0
H1011 H 0.21439 0.92961 0.80963 0.0
H1012 H 0.11016 0.37176 0.73178 0.0
H1013 H 0.10368 0.36365 0.83206 0.0
H1014 H 0.10315 0.39542 0.87466 0.0
H1015 H 0.10946 0.40346 0.77422 0.0
H1016 H 0.11555 0.39096 0.96207 0.0
H1017 H 0.07251 0.36553 0.84002 0.0
H1018 H 0.0582 0.35147 0.75454 0.0
H1019 H 0.06198 0.32257 0.81847 0.0
H1020 H 0.07648 0.33654 0.90395 0.0
H1021 H 0.07595 0.37297 0.20538 0.0
H1022 H 0.08071 0.37617 0.10093 0.0
H1023 H 0.08196 0.34386 0.09946 0.0
H1024 H 0.07675 0.34037 0.20472 0.0
H1025 H 0.0703 0.34683 0.99217 0.0
H1026 H 0.11189 0.37202 0.11994 0.0
H1027 H 0.1255 0.38623 0.20584 0.0
H1028 H 0.12411 0.41584 0.13079 0.0
H1029 H 0.1103 0.40171 0.0448 0.0
C1030 C 0.10848 0.37691 0.76229 0.0
C1031 C 0.10986 0.388 0.74481 0.0
C1032 C 0.10491 0.37234 0.81968 0.0
C1033 C 0.10266 0.37879 0.86038 0.0
C1034 C 0.10477 0.39025 0.84379 0.0
C1035 C 0.10837 0.39484 0.78649 0.0
C1036 C 0.09763 0.37342 0.91972 0.0
C1037 C 0.10565 0.38134 0.96859 0.0
C1038 C 0.08485 0.36073 0.92821 0.0
C1039 C 0.0757 0.35214 0.87801 0.0
C1040 C 0.07033 0.3562 0.83571 0.0
C1041 C 0.06219 0.34825 0.78728 0.0
C1042 C 0.05925 0.33617 0.78097 0.0
C1043 C 0.06431 0.33195 0.82337 0.0
C1044 C 0.07247 0.33987 0.87184 0.0
C1045 C 0.07685 0.36632 0.18243 0.0
C1046 C 0.07615 0.35652 0.21287 0.0
C1047 C 0.07958 0.36816 0.12287 0.0
C1048 C 0.082 0.36044 0.09299 0.0
C1049 C 0.08017 0.34994 0.12202 0.0
C1050 C 0.0772 0.34795 0.1819 0.0
C1051 C 0.0881 0.36449 0.03413 0.0
C1052 C 0.08032 0.35636 0.98553 0.0
C1053 C 0.10111 0.37701 0.02571 0.0
C1054 C 0.11001 0.38578 0.07602 0.0
C1055 C 0.11447 0.38156 0.12179 0.0
C1056 C 0.12221 0.38959 0.17052 0.0
C1057 C 0.12565 0.40193 0.17379 0.0
C1058 C 0.12144 0.40628 0.12816 0.0
C1059 C 0.11368 0.39827 0.07935 0.0
H1060 H 0.1316 0.40811 0.21166 0.0
H1061 H 0.05307 0.33008 0.74323 0.0
H1062 H 0.73528 0.97698 0.2127 0.0
H1063 H 0.73298 0.97172 0.10757 0.0
H1064 H 0.69222 0.96369 0.09702 0.0
H1065 H 0.69442 0.96892 0.20076 0.0
H1066 H 0.69175 0.94299 0.06052 0.0
H1067 H 0.71884 0.98966 0.03501 0.0
H1068 H 0.73976 0.01265 0.04825 0.0
H1069 H 0.76586 0.00483 0.97001 0.0
H1070 H 0.74511 0.98172 0.95707 0.0
H1071 H 0.66756 0.94129 0.774 0.0
H1072 H 0.67629 0.94563 0.87638 0.0
H1073 H 0.71369 0.95059 0.82554 0.0
H1074 H 0.70472 0.94583 0.72304 0.0
H1075 H 0.71969 0.97128 0.89337 0.0
H1076 H 0.69147 0.92533 0.90346 0.0
H1077 H 0.67032 0.90252 0.88809 0.0
H1078 H 0.64625 0.90884 0.99469 0.0
H1079 H 0.6672 0.93175 0.01 0.0
C1080 C 0.72602 0.97441 0.18745 0.0
C1081 C 0.71495 0.97319 0.21489 0.0
C1082 C 0.7247 0.97137 0.12766 0.0
C1083 C 0.71234 0.96716 0.09511 0.0
C1084 C 0.70175 0.96677 0.12174 0.0
C1085 C 0.70304 0.96978 0.18097 0.0
C1086 C 0.70967 0.96215 0.03455 0.0
C1087 C 0.69784 0.94916 0.02386 0.0
C1088 C 0.71799 0.97009 0.98738 0.0
C1089 C 0.73048 0.98393 0.99596 0.0
C1090 C 0.72907 0.9928 0.02133 0.0
C1091 C 0.74089 0.00587 0.02859 0.0
C1092 C 0.75414 0.01019 0.01022 0.0
C1093 C 0.7556 0.00146 0.9844 0.0
C1094 C 0.74382 0.98838 0.97709 0.0
C1095 C 0.67753 0.94312 0.7849 0.0
C1096 C 0.68571 0.94366 0.7408 0.0
C1097 C 0.68251 0.94558 0.84321 0.0
C1098 C 0.69567 0.94849 0.85823 0.0
C1099 C 0.70358 0.94849 0.81453 0.0
C1100 C 0.69853 0.9459 0.7562 0.0
C1101 C 0.70138 0.95228 0.91919 0.0
C1102 C 0.7138 0.965 0.93007 0.0
C1103 C 0.69359 0.94409 0.9667 0.0
C1104 C 0.68091 0.9303 0.95761 0.0
C1105 C 0.68164 0.92189 0.92326 0.0
C1106 C 0.66969 0.90893 0.91463 0.0
C1107 C 0.65694 0.90423 0.94034 0.0
C1108 C 0.65613 0.91249 0.97481 0.0
C1109 C 0.66805 0.92546 0.98355 0.0
H1110 H 0.6477 0.8942 0.93362 0.0
H1111 H 0.76327 0.02031 0.0158 0.0
H1112 H 0.07315 0.75819 0.77674 0.0
H1113 H 0.06733 0.76223 0.87115 0.0
H1114 H 0.08871 0.80232 0.82374 0.0
H1115 H 0.09465 0.79833 0.72963 0.0
H1116 H 0.09698 0.80037 0.93142 0.0
H1117 H 0.05221 0.78335 0.83799 0.0
H1118 H 0.02952 0.76871 0.78186 0.0
H1119 H 0.01791 0.73695 0.89379 0.0
H1120 H 0.04042 0.75148 0.95138 0.0
H1121 H 0.07501 0.80735 0.20866 0.0
H1122 H 0.07622 0.80741 0.10089 0.0
H1123 H 0.06167 0.76787 0.10512 0.0
H1124 H 0.06068 0.76782 0.21176 0.0
H1125 H 0.04891 0.77284 0.01328 0.0
H1126 H 0.09535 0.79085 0.10302 0.0
H1127 H 0.11657 0.80676 0.16498 0.0
H1128 H 0.12473 0.83792 0.05752 0.0
H1129 H 0.10341 0.82218 0.99544 0.0
C1130 C 0.07652 0.76783 0.78643 0.0
C1131 C 0.08407 0.77787 0.74547 0.0
C1132 C 0.07306 0.7701 0.84001 0.0
C1133 C 0.07732 0.78252 0.85393 0.0
C1134 C 0.08511 0.79262 0.81345 0.0
C1135 C 0.08842 0.79031 0.75957 0.0
C1136 C 0.0747 0.78512 0.91285 0.0
C1137 C 0.08642 0.79456 0.94881 0.0
C1138 C 0.06097 0.7775 0.93584 0.0
C1139 C 0.04802 0.76847 0.89867 0.0
C1140 C 0.04487 0.77321 0.85026 0.0
C1141 C 0.03198 0.76497 0.81865 0.0
C1142 C 0.02225 0.75192 0.83446 0.0
C1143 C 0.02543 0.74707 0.88178 0.0
C1144 C 0.03821 0.75532 0.91412 0.0
C1145 C 0.07185 0.79863 0.18623 0.0
C1146 C 0.06784 0.78761 0.21823 0.0
C1147 C 0.07259 0.79869 0.12497 0.0
C1148 C 0.06908 0.78765 0.09536 0.0
C1149 C 0.06438 0.77646 0.12721 0.0
C1150 C 0.06389 0.77647 0.18808 0.0
C1151 C 0.07119 0.78781 0.0318 0.0
C1152 C 0.05941 0.77885 0.99521 0.0
C1153 C 0.08484 0.79594 0.00816 0.0
C1154 C 0.0977 0.80537 0.04511 0.0
C1155 C 0.1016 0.8011 0.09293 0.0
C1156 C 0.11365 0.81009 0.12801 0.0
C1157 C 0.12196 0.82335 0.11532 0.0
C1158 C 0.11826 0.82765 0.06739 0.0
C1159 C 0.1062 0.8187 0.03225 0.0
H1160 H 0.13129 0.83029 0.14251 0.0
H1161 H 0.01229 0.74555 0.80984 0.0
H1162 H 0.25776 0.37172 0.76852 0.0
H1163 H 0.24958 0.36447 0.86879 0.0
H1164 H 0.24982 0.33188 0.84423 0.0
H1165 H 0.2576 0.33894 0.74405 0.0
H1166 H 0.22659 0.32381 0.89436 0.0
H1167 H 0.27613 0.35942 0.92626 0.0
H1168 H 0.29817 0.38193 0.91904 0.0
H1169 H 0.2788 0.39608 0.00542 0.0
H1170 H 0.25657 0.37366 0.01249 0.0
H1171 H 0.23621 0.31158 0.19447 0.0
H1172 H 0.23654 0.31577 0.0892 0.0
H1173 H 0.22529 0.34072 0.1225 0.0
H1174 H 0.22467 0.33646 0.22736 0.0
H1175 H 0.25189 0.35274 0.06803 0.0
H1176 H 0.20298 0.31572 0.04563 0.0
H1177 H 0.18203 0.29277 0.05583 0.0
H1178 H 0.20168 0.28073 0.95461 0.0
H1179 H 0.22284 0.3036 0.94452 0.0
C1180 C 0.25614 0.36308 0.785 0.0
C1181 C 0.25813 0.35578 0.74886 0.0
C1182 C 0.25147 0.35893 0.84207 0.0
C1183 C 0.2491 0.34763 0.86403 0.0
C1184 C 0.25141 0.34054 0.82804 0.0
C1185 C 0.25587 0.34457 0.77093 0.0
C1186 C 0.2442 0.3431 0.9244 0.0
C1187 C 0.2322 0.33011 0.93238 0.0
C1188 C 0.25132 0.35139 0.9739 0.0
C1189 C 0.26463 0.36489 0.96922 0.0
C1190 C 0.27653 0.36735 0.94321 0.0
C1191 C 0.28906 0.38008 0.93926 0.0
C1192 C 0.28987 0.39043 0.96157 0.0
C1193 C 0.27815 0.38806 0.98802 0.0
C1194 C 0.26558 0.37534 0.99204 0.0
C1195 C 0.23339 0.31764 0.17925 0.0
C1196 C 0.23068 0.32388 0.21932 0.0
C1197 C 0.23355 0.32 0.11913 0.0
C1198 C 0.23106 0.32863 0.09851 0.0
C1199 C 0.22728 0.33406 0.13785 0.0
C1200 C 0.22694 0.3316 0.19775 0.0
C1201 C 0.23445 0.33346 0.03781 0.0
C1202 C 0.2462 0.3465 0.02986 0.0
C1203 C 0.22726 0.32516 0.98861 0.0
C1204 C 0.21456 0.31139 0.99478 0.0
C1205 C 0.2029 0.30818 0.02604 0.0
C1206 C 0.19097 0.29518 0.03168 0.0
C1207 C 0.19054 0.2853 0.00601 0.0
C1208 C 0.20203 0.28839 0.97453 0.0
C1209 C 0.21399 0.30138 0.96877 0.0
H1210 H 0.18129 0.27524 0.0104 0.0
H1211 H 0.29959 0.40029 0.95852 0.0
H1212 H 0.39352 0.16283 0.56321 0.0
H1213 H 0.39224 0.16424 0.45743 0.0
H1214 H 0.43084 0.16863 0.44429 0.0
H1215 H 0.43193 0.16672 0.55134 0.0
H1216 H 0.406 0.17925 0.37031 0.0
H1217 H 0.42656 0.1505 0.32712 0.0
H1218 H 0.43027 0.13597 0.37862 0.0
H1219 H 0.3961 0.12325 0.49187 0.0
H1220 H 0.39212 0.1376 0.44058 0.0
H1221 H 0.39456 0.16522 0.06403 0.0
H1222 H 0.40517 0.17261 0.16214 0.0
H1223 H 0.37645 0.13322 0.22494 0.0
H1224 H 0.36681 0.12558 0.12521 0.0
H1225 H 0.40095 0.14319 0.2691 0.0
H1226 H 0.37285 0.15809 0.2487 0.0
H1227 H 0.36494 0.16997 0.20264 0.0
H1228 H 0.40703 0.20598 0.22515 0.0
H1229 H 0.41522 0.19428 0.27077 0.0
C1230 C 0.40189 0.16429 0.53811 0.0
C1231 C 0.41263 0.16431 0.56543 0.0
C1232 C 0.40121 0.16523 0.47748 0.0
C1233 C 0.41128 0.16628 0.44285 0.0
C1234 C 0.42281 0.16758 0.47029 0.0
C1235 C 0.42345 0.16652 0.53136 0.0
C1236 C 0.40841 0.16424 0.37868 0.0
C1237 C 0.40509 0.17149 0.34781 0.0
C1238 C 0.40695 0.15395 0.34972 0.0
C1239 C 0.4092 0.14525 0.38061 0.0
C1240 C 0.41985 0.14459 0.36299 0.0
C1241 C 0.42199 0.13639 0.39211 0.0
C1242 C 0.41347 0.12874 0.43865 0.0
C1243 C 0.40274 0.12922 0.45599 0.0
C1244 C 0.40054 0.13739 0.42694 0.0
C1245 C 0.39078 0.15805 0.09808 0.0
C1246 C 0.38027 0.14472 0.08614 0.0
C1247 C 0.39665 0.16236 0.15472 0.0
C1248 C 0.39165 0.15348 0.20104 0.0
C1249 C 0.38063 0.14024 0.18974 0.0
C1250 C 0.37502 0.13589 0.13283 0.0
C1251 C 0.39798 0.15786 0.26122 0.0
C1252 C 0.40211 0.15113 0.29102 0.0
C1253 C 0.39958 0.16826 0.2899 0.0
C1254 C 0.39468 0.17529 0.26247 0.0
C1255 C 0.38044 0.16853 0.2434 0.0
C1256 C 0.3759 0.17523 0.21746 0.0
C1257 C 0.38549 0.18871 0.21079 0.0
C1258 C 0.39962 0.19553 0.23023 0.0
C1259 C 0.40422 0.18887 0.25616 0.0
H1260 H 0.38196 0.19388 0.1907 0.0
H1261 H 0.41515 0.1224 0.46117 0.0
H1262 H 0.88481 0.33036 0.48984 0.0
H1263 H 0.883 0.32797 0.3824 0.0
H1264 H 0.92801 0.34774 0.37882 0.0
H1265 H 0.92984 0.34998 0.48563 0.0
H1266 H 0.91712 0.35398 0.28251 0.0
H1267 H 0.90759 0.31672 0.3893 0.0
H1268 H 0.89444 0.29913 0.46166 0.0
H1269 H 0.85547 0.28297 0.36375 0.0
H1270 H 0.86838 0.30066 0.29142 0.0
H1271 H 0.93445 0.3313 0.05488 0.0
H1272 H 0.93017 0.33596 0.15147 0.0
H1273 H 0.88536 0.31248 0.10734 0.0
H1274 H 0.88965 0.3078 0.01032 0.0
H1275 H 0.89183 0.30802 0.22152 0.0
H1276 H 0.90221 0.34284 0.10346 0.0
H1277 H 0.91518 0.3606 0.03196 0.0
H1278 H 0.95181 0.38155 0.1492 0.0
H1279 H 0.9392 0.36374 0.22087 0.0
C1280 C 0.89435 0.3345 0.46585 0.0
C1281 C 0.90744 0.34025 0.49582 0.0
C1282 C 0.8933 0.33311 0.40466 0.0
C1283 C 0.90536 0.33762 0.37294 0.0
C1284 C 0.9186 0.34424 0.40253 0.0
C1285 C 0.91961 0.34544 0.46351 0.0
C1286 C 0.90412 0.33404 0.3105 0.0
C1287 C 0.91158 0.34395 0.26896 0.0
C1288 C 0.8966 0.32091 0.29289 0.0
C1289 C 0.88891 0.31009 0.33539 0.0
C1290 C 0.8962 0.30947 0.38343 0.0
C1291 C 0.8888 0.29948 0.42443 0.0
C1292 C 0.87412 0.28996 0.4174 0.0
C1293 C 0.86683 0.29038 0.36921 0.0
C1294 C 0.87418 0.30038 0.32822 0.0
C1295 C 0.92369 0.32706 0.06606 0.0
C1296 C 0.91238 0.31932 0.02526 0.0
C1297 C 0.92126 0.32978 0.12093 0.0
C1298 C 0.90747 0.3247 0.13606 0.0
C1299 C 0.89608 0.31657 0.09615 0.0
C1300 C 0.89854 0.31398 0.04083 0.0
C1301 C 0.90514 0.32801 0.1937 0.0
C1302 C 0.89708 0.31804 0.23446 0.0
C1303 C 0.91206 0.34109 0.21044 0.0
C1304 C 0.91976 0.35188 0.16748 0.0
C1305 C 0.91308 0.35116 0.11382 0.0
C1306 C 0.92037 0.36125 0.07325 0.0
C1307 C 0.9343 0.3722 0.08607 0.0
C1308 C 0.941 0.37307 0.13942 0.0
C1309 C 0.93379 0.36296 0.18001 0.0
H1310 H 0.93989 0.38002 0.05468 0.0
H1311 H 0.8684 0.28224 0.44921 0.0
H1312 H 0.78842 0.71598 0.97481 0.0
H1313 H 0.78734 0.7122 0.08042 0.0
H1314 H 0.7785 0.73916 0.10664 0.0
H1315 H 0.77943 0.74296 0.00082 0.0
H1316 H 0.79595 0.73887 0.20039 0.0
H1317 H 0.7515 0.71021 0.08767 0.0
H1318 H 0.73644 0.69489 0.00715 0.0
H1319 H 0.74503 0.66902 0.06892 0.0
H1320 H 0.76037 0.68437 0.14955 0.0
H1321 H 0.75598 0.71708 0.45462 0.0
H1322 H 0.76482 0.72412 0.3556 0.0
H1323 H 0.76202 0.68984 0.33234 0.0
H1324 H 0.75264 0.68256 0.43106 0.0
H1325 H 0.75283 0.6939 0.23808 0.0
H1326 H 0.79442 0.72091 0.36066 0.0
H1327 H 0.80915 0.73604 0.44262 0.0
H1328 H 0.80662 0.76477 0.36493 0.0
H1329 H 0.79167 0.74974 0.28296 0.0
C1330 C 0.78662 0.72139 0.00306 0.0
C1331 C 0.78371 0.72957 0.97933 0.0
C1332 C 0.78604 0.71923 0.06342 0.0
C1333 C 0.78265 0.72527 0.10095 0.0
C1334 C 0.78112 0.7344 0.07819 0.0
C1335 C 0.78159 0.73651 0.01769 0.0
C1336 C 0.77851 0.72058 0.16162 0.0
C1337 C 0.78652 0.72907 0.20894 0.0
C1338 C 0.76638 0.70771 0.17241 0.0
C1339 C 0.75719 0.69849 0.12409 0.0
C1340 C 0.75028 0.70131 0.08373 0.0
C1341 C 0.74167 0.6926 0.03812 0.0
C1342 C 0.73978 0.68096 0.03277 0.0
C1343 C 0.74651 0.67803 0.07306 0.0
C1344 C 0.75517 0.68674 0.11872 0.0
C1345 C 0.75725 0.71107 0.42818 0.0
C1346 C 0.7538 0.69937 0.45018 0.0
C1347 C 0.7624 0.71514 0.3719 0.0
C1348 C 0.76449 0.70771 0.33715 0.0
C1349 C 0.76063 0.69579 0.35861 0.0
C1350 C 0.75524 0.69161 0.41469 0.0
C1351 C 0.77021 0.71217 0.27768 0.0
C1352 C 0.76244 0.70364 0.23021 0.0
C1353 C 0.78263 0.72498 0.26709 0.0
C1354 C 0.79184 0.73415 0.31581 0.0
C1355 C 0.79694 0.73043 0.36119 0.0
C1356 C 0.80533 0.73899 0.40767 0.0
C1357 C 0.8088 0.75135 0.40903 0.0
C1358 C 0.80392 0.75519 0.36382 0.0
C1359 C 0.7955 0.74666 0.3173 0.0
H1360 H 0.81529 0.75796 0.44507 0.0
H1361 H 0.73307 0.67418 0.99759 0.0
H1362 H 0.31762 0.25211 0.00149 0.0
H1363 H 0.31623 0.24795 0.10593 0.0
H1364 H 0.27177 0.23076 0.0982 0.0
H1365 H 0.27314 0.23515 0.99234 0.0
H1366 H 0.2851 0.24778 0.18526 0.0
H1367 H 0.28143 0.2115 0.13026 0.0
H1368 H 0.28624 0.19855 0.07552 0.0
H1369 H 0.32876 0.2217 0.14921 0.0
H1370 H 0.3243 0.23494 0.20369 0.0
H1371 H 0.31176 0.23734 0.48592 0.0
H1372 H 0.29957 0.22868 0.39008 0.0
H1373 H 0.31942 0.26775 0.32964 0.0
H1374 H 0.33105 0.27637 0.42608 0.0
H1375 H 0.30885 0.23143 0.28492 0.0
H1376 H 0.29817 0.26916 0.23903 0.0
H1377 H 0.29113 0.28032 0.29425 0.0
H1378 H 0.27308 0.25064 0.4257 0.0
H1379 H 0.27976 0.23915 0.37079 0.0
C1380 C 0.30748 0.24734 0.0216 0.0
C1381 C 0.2955 0.24404 0.98866 0.0
C1382 C 0.30667 0.24483 0.08139 0.0
C1383 C 0.29384 0.23883 0.10971 0.0
C1384 C 0.28174 0.23529 0.07697 0.0
C1385 C 0.28254 0.23782 0.01665 0.0
C1386 C 0.29378 0.2376 0.17438 0.0
C1387 C 0.29008 0.24402 0.20728 0.0
C1388 C 0.29974 0.23223 0.20328 0.0
C1389 C 0.30251 0.22423 0.17113 0.0
C1390 C 0.29183 0.21388 0.13462 0.0
C1391 C 0.2945 0.20648 0.10362 0.0
C1392 C 0.3078 0.2093 0.10889 0.0
C1393 C 0.31845 0.21952 0.14525 0.0
C1394 C 0.31585 0.22695 0.17633 0.0
C1395 C 0.31326 0.24404 0.45263 0.0
C1396 C 0.32202 0.2575 0.46392 0.0
C1397 C 0.30641 0.2391 0.39773 0.0
C1398 C 0.30828 0.24754 0.35331 0.0
C1399 C 0.31749 0.26102 0.36388 0.0
C1400 C 0.32427 0.26595 0.41871 0.0
C1401 C 0.30119 0.24249 0.29477 0.0
C1402 C 0.3035 0.23485 0.26325 0.0
C1403 C 0.29359 0.24643 0.26749 0.0
C1404 C 0.2895 0.25329 0.30071 0.0
C1405 C 0.2926 0.26495 0.27947 0.0
C1406 C 0.28869 0.27134 0.31078 0.0
C1407 C 0.28164 0.26617 0.36334 0.0
C1408 C 0.27854 0.25462 0.38493 0.0
C1409 C 0.2824 0.24817 0.35375 0.0
H1410 H 0.27853 0.27108 0.38719 0.0
H1411 H 0.30984 0.20358 0.08481 0.0
H1412 H 0.77353 0.13416 0.45308 0.0
H1413 H 0.77956 0.13477 0.35192 0.0
H1414 H 0.73788 0.12164 0.29334 0.0
H1415 H 0.7313 0.11966 0.39588 0.0
H1416 H 0.74349 0.1095 0.23438 0.0
H1417 H 0.76976 0.15432 0.27773 0.0
H1418 H 0.78595 0.17476 0.33411 0.0
H1419 H 0.82027 0.17316 0.31196 0.0
H1420 H 0.80424 0.1526 0.25609 0.0
H1421 H 0.78408 0.14323 0.95128 0.0
H1422 H 0.78058 0.14543 0.05339 0.0
H1423 H 0.77045 0.1081 0.09162 0.0
H1424 H 0.77327 0.10554 0.98842 0.0
H1425 H 0.78977 0.1465 0.15687 0.0
H1426 H 0.74283 0.09123 0.18653 0.0
H1427 H 0.72458 0.07217 0.12547 0.0
H1428 H 0.72833 0.09734 0.99047 0.0
H1429 H 0.74615 0.11654 0.05152 0.0
C1430 C 0.76549 0.13101 0.41878 0.0
C1431 C 0.75171 0.12622 0.43235 0.0
C1432 C 0.76909 0.13171 0.3607 0.0
C1433 C 0.75924 0.12836 0.31466 0.0
C1434 C 0.74564 0.12418 0.32806 0.0
C1435 C 0.74191 0.12312 0.38651 0.0
C1436 C 0.76297 0.12867 0.25293 0.0
C1437 C 0.75358 0.11763 0.21739 0.0
C1438 C 0.776 0.13939 0.23008 0.0
C1439 C 0.78576 0.15186 0.26303 0.0
C1440 C 0.78074 0.15829 0.28513 0.0
C1441 C 0.78989 0.1699 0.31699 0.0
C1442 C 0.80412 0.17524 0.32671 0.0
C1443 C 0.80924 0.169 0.30441 0.0
C1444 C 0.80013 0.15738 0.27256 0.0
C1445 C 0.78139 0.13559 0.98157 0.0
C1446 C 0.77867 0.12408 0.9616 0.0
C1447 C 0.77939 0.13687 0.04008 0.0
C1448 C 0.77483 0.12675 0.07979 0.0
C1449 C 0.77354 0.11585 0.06127 0.0
C1450 C 0.77527 0.11444 0.00243 0.0
C1451 C 0.77041 0.12722 0.13895 0.0
C1452 C 0.77966 0.1384 0.17389 0.0
C1453 C 0.75696 0.11687 0.16023 0.0
C1454 C 0.74601 0.10535 0.1234 0.0
C1455 C 0.73969 0.09271 0.14399 0.0
C1456 C 0.72939 0.08188 0.10941 0.0
C1457 C 0.7253 0.08355 0.0541 0.0
C1458 C 0.73146 0.09606 0.0334 0.0
C1459 C 0.74165 0.10693 0.06801 0.0
H1460 H 0.71734 0.07516 0.02737 0.0
H1461 H 0.81119 0.18423 0.35142 0.0
H1462 H 0.90071 0.64912 0.50929 0.0
H1463 H 0.8965 0.65052 0.40541 0.0
H1464 H 0.85386 0.61469 0.41477 0.0
H1465 H 0.85799 0.61319 0.52024 0.0
H1466 H 0.87021 0.61858 0.30867 0.0
H1467 H 0.8544 0.63829 0.41312 0.0
H1468 H 0.85546 0.65162 0.49177 0.0
H1469 H 0.89396 0.68568 0.4243 0.0
H1470 H 0.89333 0.67252 0.34596 0.0
H1471 H 0.86789 0.64166 0.02275 0.0
H1472 H 0.85972 0.63323 0.12134 0.0
H1473 H 0.90043 0.66539 0.19508 0.0
H1474 H 0.90889 0.67357 0.09658 0.0
H1475 H 0.87683 0.65911 0.25755 0.0
H1476 H 0.89491 0.638 0.17111 0.0
H1477 H 0.89471 0.62473 0.09464 0.0
H1478 H 0.85131 0.59307 0.12934 0.0
H1479 H 0.85121 0.60624 0.20544 0.0
C1480 C 0.89047 0.64142 0.48936 0.0
C1481 C 0.87961 0.63113 0.52304 0.0
C1482 C 0.88809 0.64225 0.42999 0.0
C1483 C 0.8748 0.63284 0.40301 0.0
C1484 C 0.86415 0.62207 0.43526 0.0
C1485 C 0.86654 0.62123 0.49524 0.0
C1486 C 0.87221 0.635 0.34194 0.0
C1487 C 0.87117 0.62719 0.29724 0.0
C1488 C 0.87355 0.64629 0.32751 0.0
C1489 C 0.87383 0.65438 0.37363 0.0
C1490 C 0.86314 0.64861 0.41518 0.0
C1491 C 0.86366 0.65614 0.45974 0.0
C1492 C 0.87476 0.66949 0.46301 0.0
C1493 C 0.88535 0.67534 0.42165 0.0
C1494 C 0.88491 0.66785 0.37709 0.0
C1495 C 0.87521 0.64681 0.05972 0.0
C1496 C 0.88926 0.65798 0.0517 0.0
C1497 C 0.87042 0.64209 0.11609 0.0
C1498 C 0.87954 0.64861 0.16521 0.0
C1499 C 0.89324 0.66022 0.15755 0.0
C1500 C 0.89807 0.66485 0.10128 0.0
C1501 C 0.87538 0.64297 0.22446 0.0
C1502 C 0.87524 0.6502 0.26878 0.0
C1503 C 0.87285 0.63111 0.23845 0.0
C1504 C 0.873 0.62315 0.19338 0.0
C1505 C 0.8853 0.62824 0.1621 0.0
C1506 C 0.88525 0.62074 0.11888 0.0
C1507 C 0.87299 0.60808 0.10701 0.0
C1508 C 0.86078 0.60288 0.13848 0.0
C1509 C 0.86077 0.61036 0.18165 0.0
H1510 H 0.87297 0.60228 0.07354 0.0
H1511 H 0.87515 0.6753 0.49758 0.0
H1512 H 0.01801 0.57751 0.08558 0.0
H1513 H 0.02691 0.56504 0.10031 0.0
H1514 H 0.0699 0.60032 0.08816 0.0
H1515 H 0.06096 0.61284 0.07373 0.0
H1516 H 0.06476 0.57948 0.02547 0.0
H1517 H 0.05857 0.58844 0.21817 0.0
H1518 H 0.04578 0.58973 0.29622 0.0
H1519 H 0.01353 0.5483 0.28821 0.0
H1520 H 0.02599 0.54677 0.20929 0.0
H1521 H 0.08918 0.54372 0.12699 0.0
H1522 H 0.08612 0.5607 0.12165 0.0
H1523 H 0.04081 0.53124 0.13262 0.0
H1524 H 0.04387 0.51437 0.13759 0.0
H1525 H 0.05093 0.55218 0.2035 0.0
H1526 H 0.05554 0.54374 0.00302 0.0
H1527 H 0.06785 0.54231 0.92317 0.0
H1528 H 0.103 0.58282 0.94577 0.0
H1529 H 0.09099 0.58444 0.02652 0.0
C1530 C 0.02934 0.58255 0.08584 0.0
C1531 C 0.03883 0.59605 0.07822 0.0
C1532 C 0.03441 0.57547 0.09432 0.0
C1533 C 0.04906 0.5818 0.09584 0.0
C1534 C 0.05857 0.59528 0.08701 0.0
C1535 C 0.05348 0.60239 0.07863 0.0
C1536 C 0.05431 0.57426 0.10787 0.0
C1537 C 0.062 0.57371 0.06491 0.0
C1538 C 0.05058 0.56668 0.15916 0.0
C1539 C 0.04318 0.56751 0.2075 0.0
C1540 C 0.04871 0.57961 0.23278 0.0
C1541 C 0.04152 0.58038 0.2772 0.0
C1542 C 0.02884 0.56911 0.2971 0.0
C1543 C 0.02335 0.55702 0.27273 0.0
C1544 C 0.03048 0.5562 0.22819 0.0
C1545 C 0.07862 0.54097 0.12845 0.0
C1546 C 0.06676 0.52784 0.13296 0.0
C1547 C 0.07687 0.55061 0.12542 0.0
C1548 C 0.06323 0.54719 0.12662 0.0
C1549 C 0.05143 0.53407 0.13204 0.0
C1550 C 0.05317 0.52447 0.13489 0.0
C1551 C 0.06102 0.55711 0.12035 0.0
C1552 C 0.05391 0.55813 0.16454 0.0
C1553 C 0.06529 0.56511 0.07021 0.0
C1554 C 0.07244 0.56418 0.02127 0.0
C1555 C 0.06594 0.55232 0.99129 0.0
C1556 C 0.07286 0.55147 0.94583 0.0
C1557 C 0.08622 0.56246 0.92952 0.0
C1558 C 0.09267 0.57432 0.95854 0.0
C1559 C 0.08581 0.57521 0.00416 0.0
H1560 H 0.09156 0.56179 0.8943 0.0
H1561 H 0.02329 0.56973 0.33147 0.0
H1562 H 0.4855 0.47996 0.10358 0.0
H1563 H 0.50305 0.50377 0.10943 0.0
H1564 H 0.46942 0.50704 0.08679 0.0
H1565 H 0.45192 0.48328 0.08141 0.0
H1566 H 0.49123 0.52288 0.01219 0.0
H1567 H 0.48554 0.5127 0.21801 0.0
H1568 H 0.48508 0.50151 0.30725 0.0
H1569 H 0.52882 0.51835 0.28748 0.0
H1570 H 0.52949 0.52949 0.19754 0.0
H1571 H 0.5306 0.59008 0.08164 0.0
H1572 H 0.51329 0.56625 0.07825 0.0
H1573 H 0.54719 0.56354 0.10823 0.0
H1574 H 0.56446 0.58735 0.11147 0.0
H1575 H 0.5254 0.54738 0.17961 0.0
H1576 H 0.53138 0.55637 0.97444 0.0
H1577 H 0.53267 0.56713 0.88243 0.0
H1578 H 0.4895 0.55248 0.89866 0.0
H1579 H 0.48798 0.54159 0.99111 0.0
C1580 C 0.48192 0.48582 0.10044 0.0
C1581 C 0.46748 0.47992 0.09119 0.0
C1582 C 0.4919 0.49936 0.10382 0.0
C1583 C 0.48751 0.50714 0.09844 0.0
C1584 C 0.47302 0.5012 0.09062 0.0
C1585 C 0.46306 0.48768 0.08747 0.0
C1586 C 0.49804 0.52149 0.09883 0.0
C1587 C 0.49856 0.52826 0.04917 0.0
C1588 C 0.50788 0.52843 0.14633 0.0
C1589 C 0.50753 0.52183 0.2007 0.0
C1590 C 0.49503 0.51394 0.23241 0.0
C1591 C 0.49474 0.50762 0.28317 0.0
C1592 C 0.5069 0.5092 0.30294 0.0
C1593 C 0.5194 0.51713 0.27207 0.0
C1594 C 0.51975 0.52345 0.22122 0.0
C1595 C 0.5343 0.58434 0.08693 0.0
C1596 C 0.54874 0.59042 0.09753 0.0
C1597 C 0.52446 0.57078 0.08501 0.0
C1598 C 0.52897 0.56314 0.0931 0.0
C1599 C 0.54348 0.56926 0.10238 0.0
C1600 C 0.5533 0.5828 0.10418 0.0
C1601 C 0.51854 0.54876 0.09307 0.0
C1602 C 0.51804 0.542 0.14273 0.0
C1603 C 0.5088 0.54179 0.04537 0.0
C1604 C 0.50961 0.54829 0.98993 0.0
C1605 C 0.52219 0.55552 0.95861 0.0
C1606 C 0.52296 0.56163 0.90631 0.0
C1607 C 0.5112 0.56057 0.88479 0.0
C1608 C 0.49862 0.55332 0.91543 0.0
C1609 C 0.49778 0.54714 0.96771 0.0
H1610 H 0.51183 0.56533 0.84428 0.0
H1611 H 0.50665 0.50429 0.34225 0.0
H1612 H 0.56535 0.02873 0.09932 0.0
H1613 H 0.54849 0.03346 0.09352 0.0
H1614 H 0.51366 0.99234 0.08348 0.0
H1615 H 0.53064 0.9876 0.08937 0.0
H1616 H 0.51028 0.00751 0.00651 0.0
H1617 H 0.52134 0.00663 0.20981 0.0
H1618 H 0.53735 0.01243 0.29594 0.0
H1619 H 0.55547 0.05265 0.27571 0.0
H1620 H 0.53975 0.04712 0.18869 0.0
H1621 H 0.45862 0.01556 0.0771 0.0
H1622 H 0.47335 0.00839 0.08065 0.0
H1623 H 0.511 0.04834 0.09832 0.0
H1624 H 0.49625 0.0555 0.09444 0.0
H1625 H 0.51164 0.03217 0.17382 0.0
H1626 H 0.50164 0.03339 0.96854 0.0
H1627 H 0.48613 0.02794 0.88092 0.0
H1628 H 0.46631 0.9874 0.90403 0.0
H1629 H 0.48153 0.99259 0.99249 0.0
C1630 C 0.55409 0.02074 0.09565 0.0
C1631 C 0.54917 0.00782 0.09573 0.0
C1632 C 0.5445 0.02343 0.09227 0.0
C1633 C 0.52986 0.01323 0.08902 0.0
C1634 C 0.52494 0.00032 0.08623 0.0
C1635 C 0.53457 0.99762 0.08971 0.0
C1636 C 0.51979 0.01616 0.09141 0.0
C1637 C 0.51038 0.01271 0.04344 0.0
C1638 C 0.52016 0.02313 0.13932 0.0
C1639 C 0.52943 0.02646 0.1924 0.0
C1640 C 0.5288 0.01672 0.22347 0.0
C1641 C 0.53783 0.01996 0.27247 0.0
C1642 C 0.54744 0.0329 0.29122 0.0
C1643 C 0.54802 0.04263 0.2611 0.0
C1644 C 0.53905 0.03944 0.21194 0.0
C1645 C 0.47005 0.02276 0.08141 0.0
C1646 C 0.47642 0.03606 0.0845 0.0
C1647 C 0.47842 0.01868 0.08356 0.0
C1648 C 0.49325 0.02786 0.08897 0.0
C1649 C 0.49957 0.04113 0.09395 0.0
C1650 C 0.49119 0.0452 0.09164 0.0
C1651 C 0.50224 0.02368 0.08857 0.0
C1652 C 0.51144 0.02688 0.13705 0.0
C1653 C 0.50168 0.01651 0.04109 0.0
C1654 C 0.49262 0.01337 0.98753 0.0
C1655 C 0.49389 0.0233 0.95524 0.0
C1656 C 0.48516 0.02026 0.90538 0.0
C1657 C 0.47521 0.00733 0.88701 0.0
C1658 C 0.474 0.99741 0.91838 0.0
C1659 C 0.48268 0.0004 0.96838 0.0
H1660 H 0.46847 0.00499 0.84838 0.0
H1661 H 0.55442 0.0354 0.32916 0.0
H1662 H 0.72945 0.8553 0.39974 0.0
H1663 H 0.72945 0.87405 0.38855 0.0
H1664 H 0.68474 0.84937 0.42287 0.0
H1665 H 0.68473 0.83065 0.4335 0.0
H1666 H 0.6918 0.86668 0.33303 0.0
H1667 H 0.70792 0.86697 0.53078 0.0
H1668 H 0.72339 0.86702 0.60556 0.0
H1669 H 0.75972 0.90308 0.5384 0.0
H1670 H 0.74447 0.90313 0.46255 0.0
H1671 H 0.67905 0.90881 0.44062 0.0
H1672 H 0.68191 0.89194 0.42838 0.0
H1673 H 0.72635 0.92152 0.3963 0.0
H1674 H 0.72349 0.93844 0.4092 0.0
H1675 H 0.7216 0.90315 0.47556 0.0
H1676 H 0.70452 0.90393 0.28428 0.0
H1677 H 0.68857 0.9037 0.21174 0.0
H1678 H 0.65362 0.86558 0.26799 0.0
H1679 H 0.66932 0.86566 0.34158 0.0
C1680 C 0.71964 0.85393 0.40424 0.0
C1681 C 0.70713 0.84169 0.41819 0.0
C1682 C 0.71964 0.86459 0.39798 0.0
C1683 C 0.70712 0.86308 0.40548 0.0
C1684 C 0.6945 0.85071 0.41699 0.0
C1685 C 0.69451 0.84009 0.42347 0.0
C1686 C 0.70725 0.87447 0.40475 0.0
C1687 C 0.69825 0.87464 0.36429 0.0
C1688 C 0.71593 0.88495 0.44481 0.0
C1689 C 0.72509 0.88497 0.49055 0.0
C1690 C 0.71923 0.87485 0.53163 0.0
C1691 C 0.72795 0.87487 0.57426 0.0
C1692 C 0.74253 0.88503 0.57662 0.0
C1693 C 0.74842 0.89521 0.53644 0.0
C1694 C 0.73975 0.89522 0.49362 0.0
C1695 C 0.68942 0.91166 0.43118 0.0
C1696 C 0.70109 0.92483 0.4262 0.0
C1697 C 0.69102 0.90206 0.42373 0.0
C1698 C 0.70431 0.90551 0.41089 0.0
C1699 C 0.71601 0.91869 0.40603 0.0
C1700 C 0.71438 0.9283 0.41326 0.0
C1701 C 0.70599 0.89529 0.40434 0.0
C1702 C 0.71531 0.89532 0.44358 0.0
C1703 C 0.69756 0.88498 0.36331 0.0
C1704 C 0.68809 0.88484 0.31878 0.0
C1705 C 0.69341 0.89553 0.28151 0.0
C1706 C 0.68442 0.89542 0.24015 0.0
C1707 C 0.67009 0.88464 0.23533 0.0
C1708 C 0.66473 0.87393 0.27179 0.0
C1709 C 0.67367 0.87399 0.3133 0.0
H1710 H 0.66314 0.88458 0.20327 0.0
H1711 H 0.74927 0.88504 0.60968 0.0
H1712 H 0.13844 0.81962 0.46158 0.0
H1713 H 0.16 0.84231 0.46711 0.0
H1714 H 0.13433 0.85516 0.46728 0.0
H1715 H 0.11277 0.83243 0.46145 0.0
H1716 H 0.15615 0.86952 0.39449 0.0
H1717 H 0.14985 0.85464 0.59339 0.0
H1718 H 0.14631 0.83986 0.67248 0.0
H1719 H 0.18594 0.848 0.63531 0.0
H1720 H 0.1896 0.86267 0.55529 0.0
H1721 H 0.21008 0.93458 0.48461 0.0
H1722 H 0.18851 0.91186 0.48477 0.0
H1723 H 0.21403 0.89893 0.47861 0.0
H1724 H 0.2356 0.92166 0.47834 0.0
H1725 H 0.19231 0.88466 0.55569 0.0
H1726 H 0.19849 0.89928 0.35643 0.0
H1727 H 0.20216 0.9141 0.27735 0.0
H1728 H 0.16277 0.90639 0.31504 0.0
H1729 H 0.15899 0.89169 0.39514 0.0
C1730 C 0.13747 0.82733 0.4633 0.0
C1731 C 0.12407 0.82441 0.46216 0.0
C1732 C 0.14974 0.84024 0.46638 0.0
C1733 C 0.14874 0.8504 0.46856 0.0
C1734 C 0.13531 0.84746 0.46591 0.0
C1735 C 0.12305 0.83454 0.46272 0.0
C1736 C 0.16171 0.86408 0.47352 0.0
C1737 C 0.16396 0.87288 0.43018 0.0
C1738 C 0.17204 0.86836 0.51941 0.0
C1739 C 0.16994 0.85966 0.56797 0.0
C1740 C 0.15776 0.8532 0.60179 0.0
C1741 C 0.15573 0.84486 0.64682 0.0
C1742 C 0.16587 0.84297 0.65882 0.0
C1743 C 0.17808 0.84946 0.62592 0.0
C1744 C 0.18014 0.8578 0.58074 0.0
C1745 C 0.21101 0.92684 0.4836 0.0
C1746 C 0.22437 0.92974 0.48142 0.0
C1747 C 0.19875 0.91392 0.48366 0.0
C1748 C 0.1997 0.90375 0.48114 0.0
C1749 C 0.2131 0.90666 0.48067 0.0
C1750 C 0.22536 0.91958 0.48054 0.0
C1751 C 0.1867 0.89008 0.47679 0.0
C1752 C 0.18447 0.88129 0.52013 0.0
C1753 C 0.17638 0.8858 0.43089 0.0
C1754 C 0.17853 0.89449 0.38218 0.0
C1755 C 0.19066 0.90082 0.34816 0.0
C1756 C 0.19276 0.90919 0.30313 0.0
C1757 C 0.18272 0.91121 0.29127 0.0
C1758 C 0.17055 0.90483 0.32433 0.0
C1759 C 0.16842 0.89647 0.36955 0.0
H1760 H 0.18436 0.91769 0.25638 0.0
H1761 H 0.16429 0.83651 0.69371 0.0
H1762 H 0.20497 0.34399 0.55794 0.0
H1763 H 0.18698 0.34742 0.55849 0.0
H1764 H 0.19889 0.36409 0.38545 0.0
H1765 H 0.21683 0.36066 0.38491 0.0
H1766 H 0.19485 0.37798 0.46321 0.0
H1767 H 0.17121 0.33405 0.39548 0.0
H1768 H 0.1641 0.31189 0.40234 0.0
H1769 H 0.14275 0.30568 0.56173 0.0
H1770 H 0.14995 0.32791 0.55633 0.0
H1771 H 0.13595 0.37439 0.36794 0.0
H1772 H 0.15362 0.37059 0.3736 0.0
H1773 H 0.13842 0.35248 0.54248 0.0
H1774 H 0.1206 0.3561 0.53636 0.0
H1775 H 0.14414 0.33934 0.47188 0.0
H1776 H 0.16686 0.38282 0.53844 0.0
H1777 H 0.17389 0.40496 0.53244 0.0
H1778 H 0.19704 0.41215 0.3776 0.0
H1779 H 0.18992 0.38995 0.38206 0.0
C1780 C 0.20378 0.34849 0.52044 0.0
C1781 C 0.21209 0.35198 0.4712 0.0
C1782 C 0.19353 0.35041 0.52067 0.0
C1783 C 0.19158 0.35591 0.47178 0.0
C1784 C 0.20026 0.35982 0.42348 0.0
C1785 C 0.2104 0.3578 0.42306 0.0
C1786 C 0.18012 0.35712 0.46974 0.0
C1787 C 0.18376 0.36955 0.46456 0.0
C1788 C 0.1657 0.34609 0.47281 0.0
C1789 C 0.16126 0.33269 0.47586 0.0
C1790 C 0.16511 0.328 0.43227 0.0
C1791 C 0.16104 0.31542 0.43585 0.0
C1792 C 0.15301 0.30739 0.48253 0.0
C1793 C 0.149 0.31192 0.52565 0.0
C1794 C 0.15306 0.3245 0.52235 0.0
C1795 C 0.13623 0.36937 0.40558 0.0
C1796 C 0.12696 0.36545 0.45159 0.0
C1797 C 0.14636 0.3673 0.40904 0.0
C1798 C 0.14737 0.36138 0.45875 0.0
C1799 C 0.13777 0.35706 0.50383 0.0
C1800 C 0.12767 0.35915 0.5004 0.0
C1801 C 0.15886 0.36021 0.46479 0.0
C1802 C 0.15523 0.34779 0.4708 0.0
C1803 C 0.1733 0.37126 0.46272 0.0
C1804 C 0.17774 0.38468 0.46027 0.0
C1805 C 0.17336 0.38908 0.50283 0.0
C1806 C 0.17737 0.40165 0.49975 0.0
C1807 C 0.18588 0.40995 0.45459 0.0
C1808 C 0.19043 0.40571 0.41252 0.0
C1809 C 0.18641 0.39313 0.41532 0.0
H1810 H 0.18898 0.41967 0.45228 0.0
H1811 H 0.14987 0.29765 0.48522 0.0
H1812 H 0.31891 0.21772 0.69596 0.0
H1813 H 0.3292 0.20633 0.7051 0.0
H1814 H 0.3495 0.22584 0.87072 0.0
H1815 H 0.33946 0.23743 0.86092 0.0
H1816 H 0.36791 0.22768 0.79853 0.0
H1817 H 0.3219 0.19385 0.86767 0.0
H1818 H 0.29575 0.17876 0.8657 0.0
H1819 H 0.29525 0.1613 0.70663 0.0
H1820 H 0.32141 0.17642 0.70716 0.0
H1821 H 0.38922 0.18845 0.87841 0.0
H1822 H 0.37898 0.19996 0.87499 0.0
H1823 H 0.35988 0.18319 0.7041 0.0
H1824 H 0.37004 0.17165 0.70766 0.0
H1825 H 0.34086 0.1799 0.78292 0.0
H1826 H 0.38709 0.21433 0.7136 0.0
H1827 H 0.41325 0.2294 0.71718 0.0
H1828 H 0.41322 0.24561 0.87951 0.0
H1829 H 0.38705 0.2305 0.87733 0.0
C1830 C 0.3254 0.21939 0.73463 0.0
C1831 C 0.32832 0.22831 0.778 0.0
C1832 C 0.33123 0.21288 0.73994 0.0
C1833 C 0.34003 0.21519 0.78881 0.0
C1834 C 0.3427 0.22391 0.8328 0.0
C1835 C 0.33686 0.23041 0.82748 0.0
C1836 C 0.34711 0.20909 0.79218 0.0
C1837 C 0.36199 0.21722 0.79611 0.0
C1838 C 0.33937 0.19547 0.78771 0.0
C1839 C 0.32362 0.18636 0.78716 0.0
C1840 C 0.31622 0.18687 0.83197 0.0
C1841 C 0.30139 0.1783 0.83118 0.0
C1842 C 0.29384 0.1691 0.78599 0.0
C1843 C 0.30111 0.16844 0.74157 0.0
C1844 C 0.31594 0.177 0.74212 0.0
C1845 C 0.38305 0.18746 0.83979 0.0
C1846 C 0.38051 0.17935 0.793 0.0
C1847 C 0.37722 0.19399 0.83785 0.0
C1848 C 0.36872 0.19242 0.7892 0.0
C1849 C 0.36643 0.18452 0.74192 0.0
C1850 C 0.37234 0.17806 0.74371 0.0
C1851 C 0.36163 0.1985 0.78884 0.0
C1852 C 0.34675 0.19035 0.78554 0.0
C1853 C 0.36937 0.2121 0.79418 0.0
C1854 C 0.38511 0.22118 0.79562 0.0
C1855 C 0.39266 0.22103 0.75035 0.0
C1856 C 0.40749 0.22959 0.75206 0.0
C1857 C 0.41489 0.23843 0.79863 0.0
C1858 C 0.40748 0.23874 0.84351 0.0
C1859 C 0.39264 0.23019 0.84204 0.0
H1860 H 0.42638 0.24507 0.79986 0.0
H1861 H 0.28236 0.16247 0.78546 0.0
H1862 H 0.85544 0.28332 0.7061 0.0
H1863 H 0.83838 0.25955 0.69404 0.0
H1864 H 0.87271 0.25842 0.65757 0.0
H1865 H 0.88963 0.28215 0.66842 0.0
H1866 H 0.84948 0.24084 0.59079 0.0
H1867 H 0.86069 0.25333 0.79428 0.0
H1868 H 0.86309 0.26514 0.88316 0.0
H1869 H 0.81835 0.24608 0.87379 0.0
H1870 H 0.81573 0.23431 0.78419 0.0
H1871 H 0.81902 0.176 0.68288 0.0
H1872 H 0.8343 0.19984 0.67451 0.0
H1873 H 0.79796 0.1988 0.69537 0.0
H1874 H 0.78274 0.17503 0.70354 0.0
H1875 H 0.82139 0.21733 0.76645 0.0
H1876 H 0.81049 0.20364 0.56396 0.0
H1877 H 0.80894 0.19176 0.47709 0.0
H1878 H 0.85407 0.21282 0.48761 0.0
H1879 H 0.85587 0.22469 0.57511 0.0
C1880 C 0.8592 0.27795 0.69421 0.0
C1881 C 0.8737 0.28437 0.68809 0.0
C1882 C 0.84952 0.26443 0.68761 0.0
C1883 C 0.85432 0.25721 0.67576 0.0
C1884 C 0.86878 0.26378 0.66665 0.0
C1885 C 0.87842 0.27728 0.67294 0.0
C1886 C 0.84452 0.24281 0.67776 0.0
C1887 C 0.8434 0.23569 0.6293 0.0
C1888 C 0.83652 0.2361 0.72791 0.0
C1889 C 0.83804 0.24305 0.78218 0.0
C1890 C 0.85138 0.25173 0.81093 0.0
C1891 C 0.85278 0.25841 0.86146 0.0
C1892 C 0.84089 0.25639 0.88403 0.0
C1893 C 0.82756 0.24766 0.85619 0.0
C1894 C 0.82611 0.24097 0.80554 0.0
C1895 C 0.81438 0.18094 0.68561 0.0
C1896 C 0.7998 0.17383 0.69361 0.0
C1897 C 0.82304 0.19447 0.68057 0.0
C1898 C 0.8172 0.20103 0.68384 0.0
C1899 C 0.80264 0.1939 0.69257 0.0
C1900 C 0.79398 0.18039 0.69708 0.0
C1901 C 0.82631 0.21537 0.67946 0.0
C1902 C 0.82736 0.22247 0.7277 0.0
C1903 C 0.83435 0.22203 0.62941 0.0
C1904 C 0.8333 0.21497 0.57646 0.0
C1905 C 0.82008 0.20567 0.54806 0.0
C1906 C 0.81915 0.19894 0.49864 0.0
C1907 C 0.8314 0.20151 0.47694 0.0
C1908 C 0.8446 0.21083 0.50451 0.0
C1909 C 0.84557 0.21757 0.55399 0.0
H1910 H 0.83067 0.19629 0.43871 0.0
H1911 H 0.84199 0.26157 0.92315 0.0
H1912 H 0.77514 0.67392 0.73863 0.0
H1913 H 0.78785 0.66475 0.73358 0.0
H1914 H 0.82671 0.70303 0.7017 0.0
H1915 H 0.81398 0.71222 0.70738 0.0
H1916 H 0.82117 0.68249 0.62658 0.0
H1917 H 0.82294 0.69256 0.83113 0.0
H1918 H 0.81252 0.69182 0.92384 0.0
H1919 H 0.78747 0.65019 0.92587 0.0
H1920 H 0.79758 0.65067 0.83253 0.0
H1921 H 0.87271 0.67343 0.69496 0.0
H1922 H 0.85796 0.68051 0.68487 0.0
H1923 H 0.82237 0.64349 0.75132 0.0
H1924 H 0.83738 0.63663 0.7631 0.0
H1925 H 0.82506 0.66243 0.80517 0.0
H1926 H 0.82395 0.65198 0.60446 0.0
H1927 H 0.83401 0.65231 0.51144 0.0
H1928 H 0.85705 0.69362 0.50014 0.0
H1929 H 0.84728 0.69358 0.59357 0.0
C1930 C 0.78638 0.68032 0.73041 0.0
C1931 C 0.79368 0.69371 0.72351 0.0
C1932 C 0.7936 0.67511 0.72747 0.0
C1933 C 0.80819 0.68324 0.71729 0.0
C1934 C 0.81544 0.69662 0.70934 0.0
C1935 C 0.80823 0.70185 0.71293 0.0
C1936 C 0.81598 0.67783 0.71745 0.0
C1937 C 0.82217 0.6782 0.66565 0.0
C1938 C 0.81688 0.67194 0.7681 0.0
C1939 C 0.8109 0.67164 0.82451 0.0
C1940 C 0.81512 0.68324 0.85106 0.0
C1941 C 0.80928 0.68287 0.90377 0.0
C1942 C 0.79931 0.67096 0.93065 0.0
C1943 C 0.79518 0.65941 0.90494 0.0
C1944 C 0.80096 0.65972 0.85215 0.0
C1945 C 0.86166 0.66679 0.70643 0.0
C1946 C 0.85602 0.6545 0.72922 0.0
C1947 C 0.85324 0.67078 0.7005 0.0
C1948 C 0.839 0.66246 0.7166 0.0
C1949 C 0.83331 0.65004 0.73845 0.0
C1950 C 0.8418 0.6461 0.74488 0.0
C1951 C 0.83036 0.66706 0.71418 0.0
C1952 C 0.824 0.66658 0.76573 0.0
C1953 C 0.82922 0.67275 0.66309 0.0
C1954 C 0.83495 0.67279 0.60631 0.0
C1955 C 0.83122 0.66115 0.58234 0.0
C1956 C 0.83687 0.66128 0.52952 0.0
C1957 C 0.84619 0.67298 0.49997 0.0
C1958 C 0.84984 0.68457 0.5231 0.0
C1959 C 0.84423 0.6845 0.57596 0.0
H1960 H 0.85056 0.67306 0.45909 0.0
H1961 H 0.79481 0.67069 0.97148 0.0
H1962 H 0.11439 0.41008 0.2939 0.0
H1963 H 0.11951 0.42896 0.24177 0.0
H1964 H 0.11389 0.44247 0.40139 0.0
H1965 H 0.10953 0.42395 0.4542 0.0
H1966 H 0.10145 0.43237 0.22003 0.0
H1967 H 0.12751 0.47349 0.39962 0.0
H1968 H 0.14622 0.48291 0.47776 0.0
H1969 H 0.1655 0.46882 0.3901 0.0
H1970 H 0.14704 0.45947 0.31094 0.0
H1971 H 0.08634 0.47835 0.2621 0.0
H1972 H 0.09906 0.47024 0.29599 0.0
H1973 H 0.11187 0.47203 0.11939 0.0
H1974 H 0.09917 0.48033 0.08492 0.0
H1975 H 0.12685 0.47765 0.291 0.0
H1976 H 0.10518 0.44239 0.09956 0.0
H1977 H 0.08666 0.43285 0.02026 0.0
H1978 H 0.06002 0.43519 0.1307 0.0
H1979 H 0.07831 0.44457 0.21076 0.0
C1980 C 0.11463 0.41729 0.31813 0.0
C1981 C 0.11144 0.41553 0.37791 0.0
C1982 C 0.11757 0.42808 0.28832 0.0
C1983 C 0.11711 0.4372 0.31743 0.0
C1984 C 0.11465 0.43578 0.37801 0.0
C1985 C 0.11203 0.42512 0.4082 0.0
C1986 C 0.11697 0.44691 0.28316 0.0
C1987 C 0.10741 0.44239 0.23463 0.0
C1988 C 0.12458 0.45999 0.30212 0.0
C1989 C 0.13582 0.46571 0.3494 0.0
C1990 C 0.13579 0.47247 0.39675 0.0
C1991 C 0.14635 0.47778 0.44131 0.0
C1992 C 0.15703 0.47645 0.43895 0.0
C1993 C 0.1572 0.46981 0.39197 0.0
C1994 C 0.14667 0.46449 0.34728 0.0
C1995 C 0.09209 0.4773 0.23056 0.0
C1996 C 0.09157 0.47981 0.17071 0.0
C1997 C 0.09948 0.47276 0.25014 0.0
C1998 C 0.10633 0.47048 0.21016 0.0
C1999 C 0.10662 0.47374 0.15088 0.0
C2000 C 0.09933 0.47844 0.13128 0.0
C2001 C 0.11113 0.46288 0.22973 0.0
C2002 C 0.12143 0.46777 0.27547 0.0
C2003 C 0.10434 0.45016 0.208 0.0
C2004 C 0.09317 0.44433 0.16068 0.0
C2005 C 0.09535 0.44084 0.10684 0.0
C2006 C 0.0849 0.43546 0.06182 0.0
C2007 C 0.0722 0.43347 0.07035 0.0
C2008 C 0.06989 0.43678 0.12405 0.0
C2009 C 0.08029 0.44214 0.16924 0.0
H2010 H 0.06413 0.42932 0.03542 0.0
H2011 H 0.16518 0.48056 0.47351 0.0
H2012 H 0.67321 0.77029 0.30395 0.0
H2013 H 0.65201 0.74977 0.26504 0.0
H2014 H 0.63633 0.73774 0.43995 0.0
H2015 H 0.65762 0.75843 0.47964 0.0
H2016 H 0.63619 0.71938 0.37586 0.0
H2017 H 0.61993 0.7447 0.34969 0.0
H2018 H 0.62168 0.76381 0.31849 0.0
H2019 H 0.62547 0.75693 0.13939 0.0
H2020 H 0.62394 0.73789 0.16959 0.0
H2021 H 0.57977 0.66081 0.25557 0.0
H2022 H 0.58939 0.68111 0.3072 0.0
H2023 H 0.60955 0.70259 0.14917 0.0
H2024 H 0.59938 0.68221 0.09679 0.0
H2025 H 0.60422 0.71567 0.21735 0.0
H2026 H 0.62484 0.69365 0.24162 0.0
H2027 H 0.62376 0.67461 0.26669 0.0
H2028 H 0.61391 0.67613 0.44404 0.0
H2029 H 0.6149 0.69518 0.41979 0.0
C2030 C 0.66525 0.76334 0.33429 0.0
C2031 C 0.66714 0.76597 0.39499 0.0
C2032 C 0.65307 0.75165 0.31185 0.0
C2033 C 0.64255 0.74231 0.34956 0.0
C2034 C 0.64432 0.74489 0.41016 0.0
C2035 C 0.65646 0.75669 0.4327 0.0
C2036 C 0.63027 0.72955 0.32542 0.0
C2037 C 0.62894 0.71849 0.34234 0.0
C2038 C 0.62112 0.72852 0.28048 0.0
C2039 C 0.62189 0.73989 0.262 0.0
C2040 C 0.62122 0.74731 0.3037 0.0
C2041 C 0.62216 0.75812 0.28618 0.0
C2042 C 0.6237 0.76159 0.22701 0.0
C2043 C 0.62427 0.75423 0.18521 0.0
C2044 C 0.62334 0.74341 0.2025 0.0
C2045 C 0.58573 0.66983 0.23129 0.0
C2046 C 0.58904 0.67004 0.17259 0.0
C2047 C 0.59126 0.68141 0.26081 0.0
C2048 C 0.60058 0.69337 0.23252 0.0
C2049 C 0.60248 0.69347 0.17197 0.0
C2050 C 0.59666 0.68183 0.14201 0.0
C2051 C 0.61024 0.70553 0.26738 0.0
C2052 C 0.61119 0.71649 0.25209 0.0
C2053 C 0.61928 0.70656 0.31309 0.0
C2054 C 0.61957 0.69562 0.32856 0.0
C2055 C 0.62238 0.68989 0.2859 0.0
C2056 C 0.62181 0.67911 0.29995 0.0
C2057 C 0.61868 0.67412 0.3568 0.0
C2058 C 0.61626 0.67997 0.39991 0.0
C2059 C 0.61682 0.69075 0.38603 0.0
H2060 H 0.61823 0.66576 0.36745 0.0
H2061 H 0.62444 0.76997 0.21354 0.0
H2062 H 0.4108 0.02214 0.21129 0.0
H2063 H 0.38749 0.00969 0.25487 0.0
H2064 H 0.36926 0.01118 0.09121 0.0
H2065 H 0.39258 0.02336 0.04659 0.0
H2066 H 0.36679 0.02226 0.19875 0.0
H2067 H 0.3578 0.98356 0.12551 0.0
H2068 H 0.36306 0.96833 0.10966 0.0
H2069 H 0.36402 0.96312 0.29585 0.0
H2070 H 0.35898 0.9785 0.3129 0.0
H2071 H 0.29708 0.98787 0.29259 0.0
H2072 H 0.31722 0.99396 0.23644 0.0
H2073 H 0.33457 0.98719 0.38759 0.0
H2074 H 0.31431 0.98099 0.44477 0.0
H2075 H 0.33695 0.97787 0.28264 0.0
H2076 H 0.34672 0.01633 0.35857 0.0
H2077 H 0.3439 0.03305 0.37961 0.0
H2078 H 0.34443 0.04067 0.19537 0.0
H2079 H 0.34646 0.0235 0.17283 0.0
C2080 C 0.40175 0.01956 0.18421 0.0
C2081 C 0.40345 0.02374 0.1257 0.0
C2082 C 0.38846 0.01241 0.20906 0.0
C2083 C 0.37671 0.00952 0.17614 0.0
C2084 C 0.37824 0.01327 0.11704 0.0
C2085 C 0.39151 0.02018 0.09165 0.0
C2086 C 0.36339 0.0041 0.20595 0.0
C2087 C 0.36002 0.01245 0.2159 0.0
C2088 C 0.35509 0.99153 0.23054 0.0
C2089 C 0.35815 0.9823 0.2205 0.0
C2090 C 0.35928 0.97928 0.16312 0.0
C2091 C 0.36219 0.97059 0.15391 0.0
C2092 C 0.36391 0.96479 0.20172 0.0
C2093 C 0.3627 0.96764 0.25885 0.0
C2094 C 0.3598 0.97633 0.26832 0.0
C2095 C 0.3051 0.98759 0.31413 0.0
C2096 C 0.30413 0.98405 0.37354 0.0
C2097 C 0.31662 0.9911 0.28182 0.0
C2098 C 0.32744 0.99118 0.30808 0.0
C2099 C 0.32631 0.9872 0.36664 0.0
C2100 C 0.31477 0.98372 0.39927 0.0
C2101 C 0.34019 0.996 0.27475 0.0
C2102 C 0.34355 0.98761 0.26471 0.0
C2103 C 0.34867 0.00866 0.25071 0.0
C2104 C 0.34652 0.01844 0.26393 0.0
C2105 C 0.34587 0.02132 0.32237 0.0
C2106 C 0.34442 0.03089 0.33458 0.0
C2107 C 0.34388 0.03784 0.2888 0.0
C2108 C 0.34469 0.03517 0.23072 0.0
C2109 C 0.34591 0.02547 0.21818 0.0
H2110 H 0.34296 0.04537 0.29827 0.0
H2111 H 0.36615 0.95805 0.1945 0.0
H2112 H 0.45433 0.09137 0.10881 0.0
H2113 H 0.45355 0.10879 0.07444 0.0
H2114 H 0.44821 0.09581 0.89555 0.0
H2115 H 0.44899 0.07841 0.9293 0.0
H2116 H 0.46489 0.12347 0.90766 0.0
H2117 H 0.41978 0.08358 0.96596 0.0
H2118 H 0.40407 0.06605 0.03552 0.0
H2119 H 0.41152 0.09422 0.15962 0.0
H2120 H 0.42746 0.11194 0.09103 0.0
H2121 H 0.42083 0.13601 0.76031 0.0
H2122 H 0.43447 0.12922 0.80208 0.0
H2123 H 0.43008 0.13874 0.97591 0.0
H2124 H 0.416 0.14498 0.93458 0.0
H2125 H 0.42111 0.11528 0.97454 0.0
H2126 H 0.46311 0.15511 0.90916 0.0
H2127 H 0.47879 0.17266 0.83971 0.0
H2128 H 0.47771 0.1456 0.7302 0.0
H2129 H 0.46184 0.12784 0.79856 0.0
C2130 C 0.45333 0.0924 0.06205 0.0
C2131 C 0.45144 0.08336 0.02186 0.0
C2132 C 0.45292 0.10237 0.04251 0.0
C2133 C 0.45067 0.10347 0.98256 0.0
C2134 C 0.44996 0.09512 0.94198 0.0
C2135 C 0.45027 0.08511 0.96145 0.0
C2136 C 0.44694 0.11189 0.96296 0.0
C2137 C 0.45534 0.12175 0.92208 0.0
C2138 C 0.4346 0.10973 0.98272 0.0
C2139 C 0.42493 0.09908 0.02373 0.0
C2140 C 0.41815 0.08604 0.00828 0.0
C2141 C 0.4092 0.07607 0.04748 0.0
C2142 C 0.40683 0.07902 0.10204 0.0
C2143 C 0.41338 0.09195 0.11741 0.0
C2144 C 0.42238 0.10196 0.0784 0.0
C2145 C 0.42311 0.13695 0.80723 0.0
C2146 C 0.41723 0.14084 0.84434 0.0
C2147 C 0.43096 0.13313 0.83111 0.0
C2148 C 0.4333 0.13345 0.89227 0.0
C2149 C 0.42833 0.13831 0.92871 0.0
C2150 C 0.42029 0.14187 0.90505 0.0
C2151 C 0.43906 0.12704 0.91888 0.0
C2152 C 0.4309 0.11737 0.96084 0.0
C2153 C 0.45163 0.12947 0.90013 0.0
C2154 C 0.46118 0.14012 0.85883 0.0
C2155 C 0.46612 0.15288 0.87004 0.0
C2156 C 0.47506 0.16287 0.8309 0.0
C2157 C 0.47922 0.16024 0.78052 0.0
C2158 C 0.47447 0.14762 0.76923 0.0
C2159 C 0.46551 0.13759 0.80821 0.0
H2160 H 0.48614 0.16799 0.75027 0.0
H2161 H 0.39989 0.07129 0.13233 0.0
H2162 H 0.03779 0.46118 0.94857 0.0
H2163 H 0.01647 0.44275 0.89745 0.0
H2164 H 0.99456 0.42967 0.06047 0.0
H2165 H 0.0159 0.44798 0.11227 0.0
H2166 H 0.99078 0.41005 0.00076 0.0
H2167 H 0.98767 0.44448 0.9548 0.0
H2168 H 0.99656 0.46605 0.91741 0.0
H2169 H 0.00147 0.45592 0.74728 0.0
H2170 H 0.99278 0.43435 0.78383 0.0
H2171 H 0.92605 0.35889 0.87621 0.0
H2172 H 0.94261 0.37989 0.92615 0.0
H2173 H 0.96552 0.39655 0.76646 0.0
H2174 H 0.94853 0.37572 0.71564 0.0
H2175 H 0.96794 0.4147 0.82725 0.0
H2176 H 0.97324 0.38179 0.86927 0.0
H2177 H 0.96509 0.3601 0.90135 0.0
H2178 H 0.95811 0.36752 0.07361 0.0
H2179 H 0.966 0.3892 0.04225 0.0
C2180 C 0.02844 0.45442 0.97364 0.0
C2181 C 0.02858 0.45608 0.03461 0.0
C2182 C 0.01622 0.44392 0.94421 0.0
C2183 C 0.00386 0.43493 0.975 0.0
C2184 C 0.00396 0.43653 0.03582 0.0
C2185 C 0.01618 0.44701 0.06534 0.0
C2186 C 0.991 0.42355 0.94421 0.0
C2187 C 0.98562 0.41106 0.96352 0.0
C2188 C 0.98458 0.42489 0.89437 0.0
C2189 C 0.98967 0.43783 0.87222 0.0
C2190 C 0.99073 0.44688 0.90952 0.0
C2191 C 0.99572 0.45911 0.88845 0.0
C2192 C -0.00039 0.46237 0.83003 0.0
C2193 C 0.99847 0.45339 0.79251 0.0
C2194 C 0.99349 0.44115 0.81337 0.0
C2195 C 0.93433 0.36717 0.8513 0.0
C2196 C 0.93613 0.36569 0.79231 0.0
C2197 C 0.94384 0.37914 0.87993 0.0
C2198 C 0.9556 0.38967 0.85059 0.0
C2199 C 0.95661 0.38853 0.79015 0.0
C2200 C 0.94687 0.37663 0.76107 0.0
C2201 C 0.96766 0.4012 0.88404 0.0
C2202 C 0.97297 0.41369 0.86502 0.0
C2203 C 0.97424 0.39988 0.93351 0.0
C2204 C 0.96997 0.38703 0.9531 0.0
C2205 C 0.96988 0.37877 0.9139 0.0
C2206 C 0.9653 0.36648 0.93194 0.0
C2207 C 0.96099 0.36241 0.98939 0.0
C2208 C 0.96137 0.37067 0.02904 0.0
C2209 C 0.96589 0.38295 0.01114 0.0
H2210 H 0.95742 0.35288 0.00324 0.0
H2211 H 0.00348 0.47184 0.81381 0.0
H2212 H 0.71432 0.68908 0.75428 0.0
H2213 H 0.69325 0.68009 0.81198 0.0
H2214 H 0.71332 0.67576 0.96064 0.0
H2215 H 0.73474 0.68534 0.9038 0.0
H2216 H 0.68128 0.65345 0.9292 0.0
H2217 H 0.71586 0.6985 0.98229 0.0
H2218 H 0.73389 0.72194 0.96423 0.0
H2219 H 0.70305 0.72246 0.86487 0.0
H2220 H 0.68487 0.69893 0.88153 0.0
H2221 H 0.63255 0.64665 0.13381 0.0
H2222 H 0.65476 0.65351 0.09158 0.0
H2223 H 0.64685 0.66907 0.94154 0.0
H2224 H 0.62482 0.66231 0.98296 0.0
H2225 H 0.67439 0.68578 0.98452 0.0
H2226 H 0.63984 0.64017 0.93172 0.0
H2227 H 0.62205 0.61681 0.95269 0.0
H2228 H 0.65323 0.6174 0.05564 0.0
H2229 H 0.67116 0.64082 0.03591 0.0
C2230 C 0.71413 0.68601 0.79894 0.0
C2231 C 0.72612 0.68794 0.82498 0.0
C2232 C 0.70214 0.68091 0.83179 0.0
C2233 C 0.70186 0.67738 0.89053 0.0
C2234 C 0.71345 0.67851 0.91541 0.0
C2235 C 0.72561 0.68397 0.88313 0.0
C2236 C 0.68995 0.67359 0.92708 0.0
C2237 C 0.67984 0.66051 0.94221 0.0
C2238 C 0.68814 0.68285 0.94366 0.0
C2239 C 0.69906 0.69693 0.93255 0.0
C2240 C 0.71297 0.70357 0.95589 0.0
C2241 C 0.72321 0.71688 0.94609 0.0
C2242 C 0.71962 0.72368 0.91339 0.0
C2243 C 0.70581 0.71717 0.89018 0.0
C2244 C 0.69554 0.70385 0.89979 0.0
C2245 C 0.63561 0.65162 0.09203 0.0
C2246 C 0.62689 0.65389 0.06167 0.0
C2247 C 0.64825 0.65547 0.06787 0.0
C2248 C 0.65238 0.66171 0.01325 0.0
C2249 C 0.64386 0.66426 0.98371 0.0
C2250 C 0.63123 0.66034 0.00745 0.0
C2251 C 0.66547 0.66554 0.98583 0.0
C2252 C 0.67585 0.67869 0.97226 0.0
C2253 C 0.66755 0.65634 0.9712 0.0
C2254 C 0.65679 0.64227 0.98295 0.0
C2255 C 0.64286 0.63534 0.95927 0.0
C2256 C 0.63276 0.62209 0.97083 0.0
C2257 C 0.63649 0.61564 0.00564 0.0
C2258 C 0.65035 0.62242 0.02879 0.0
C2259 C 0.66048 0.63568 0.01741 0.0
H2260 H 0.62866 0.60538 0.01452 0.0
H2261 H 0.72752 0.73401 0.90638 0.0
H2262 H 0.98785 0.6122 0.90549 0.0
H2263 H 0.96758 0.60996 0.86076 0.0
H2264 H 0.95453 0.61127 0.03264 0.0
H2265 H 0.97441 0.61285 0.07771 0.0
H2266 H 0.93192 0.59596 0.96476 0.0
H2267 H 0.97592 0.63907 0.94715 0.0
H2268 H 0.00078 0.6555 0.91947 0.0
H2269 H 0.98875 0.644 0.73843 0.0
H2270 H 0.96384 0.62737 0.76519 0.0
H2271 H 0.90534 0.6315 0.90407 0.0
H2272 H 0.9168 0.62202 0.93716 0.0
H2273 H 0.92007 0.61467 0.75729 0.0
H2274 H 0.90851 0.62403 0.72369 0.0
H2275 H 0.946 0.63057 0.82032 0.0
H2276 H 0.90035 0.58949 0.84284 0.0
H2277 H 0.87584 0.57465 0.87678 0.0
H2278 H 0.89131 0.58433 0.0561 0.0
H2279 H 0.91591 0.59936 0.02324 0.0
C2280 C 0.98051 0.61178 0.93375 0.0
C2281 C 0.98281 0.61289 0.99501 0.0
C2282 C 0.96895 0.61053 0.90816 0.0
C2283 C 0.95974 0.6108 0.94324 0.0
C2284 C 0.96152 0.6111 0.00463 0.0
C2285 C 0.97291 0.61205 0.03035 0.0
C2286 C 0.94915 0.61202 0.91606 0.0
C2287 C 0.935 0.60355 0.93333 0.0
C2288 C 0.95311 0.62184 0.87452 0.0
C2289 C 0.96806 0.63188 0.85825 0.0
C2290 C 0.9786 0.63999 0.9015 0.0
C2291 C 0.99269 0.64934 0.88597 0.0
C2292 C 0.99635 0.65077 0.82725 0.0
C2293 C 0.98591 0.64286 0.78391 0.0
C2294 C 0.9718 0.63348 0.79922 0.0
C2295 C 0.90817 0.62757 0.87157 0.0
C2296 C 0.90618 0.62866 0.81122 0.0
C2297 C 0.91465 0.62209 0.89059 0.0
C2298 C 0.9193 0.61767 0.84961 0.0
C2299 C 0.91653 0.61801 0.78953 0.0
C2300 C 0.9099 0.62335 0.77046 0.0
C2301 C 0.9288 0.61455 0.86912 0.0
C2302 C 0.94283 0.62278 0.85076 0.0
C2303 C 0.92476 0.60473 0.91053 0.0
C2304 C 0.90998 0.59562 0.93052 0.0
C2305 C 0.89852 0.58853 0.88951 0.0
C2306 C 0.88461 0.58007 0.90856 0.0
C2307 C 0.88202 0.57857 0.96855 0.0
C2308 C 0.89333 0.5855 0.00963 0.0
C2309 C 0.90727 0.59398 0.99082 0.0
H2310 H 0.87124 0.57201 0.98321 0.0
H2311 H 0.00726 0.65801 0.81532 0.0
H2312 H 0.41856 0.38916 0.08839 0.0
H2313 H 0.40925 0.36854 0.04101 0.0
H2314 H 0.41895 0.38693 0.87132 0.0
H2315 H 0.42762 0.40738 0.91849 0.0
H2316 H 0.3931 0.3671 0.86898 0.0
H2317 H 0.43533 0.3736 0.93167 0.0
H2318 H 0.45465 0.37873 2e-05 0.0
H2319 H 0.42454 0.3459 0.10578 0.0
H2320 H 0.40501 0.34067 0.03853 0.0
H2321 H 0.36215 0.30674 0.72717 0.0
H2322 H 0.38128 0.32875 0.76297 0.0
H2323 H 0.36865 0.31635 0.94103 0.0
H2324 H 0.34953 0.29435 0.90587 0.0
H2325 H 0.39858 0.33368 0.92901 0.0
H2326 H 0.35657 0.32984 0.87196 0.0
H2327 H 0.33749 0.32475 0.80208 0.0
H2328 H 0.36853 0.35329 0.68273 0.0
H2329 H 0.3878 0.35841 0.75164 0.0
C2330 C 0.41908 0.38888 0.04114 0.0
C2331 C 0.42367 0.39981 0.00703 0.0
C2332 C 0.4138 0.37708 0.014 0.0
C2333 C 0.41338 0.37613 0.95242 0.0
C2334 C 0.41905 0.38737 0.91879 0.0
C2335 C 0.42404 0.39906 0.94579 0.0
C2336 C 0.40529 0.3632 0.92299 0.0
C2337 C 0.39461 0.35995 0.88118 0.0
C2338 C 0.40697 0.3537 0.93958 0.0
C2339 C 0.41868 0.35679 0.98019 0.0
C2340 C 0.43281 0.36753 0.96973 0.0
C2341 C 0.44381 0.37045 0.00825 0.0
C2342 C 0.44082 0.36266 0.05727 0.0
C2343 C 0.42684 0.35193 0.0678 0.0
C2344 C 0.4158 0.34897 0.02943 0.0
C2345 C 0.36354 0.30865 0.774 0.0
C2346 C 0.3542 0.29883 0.81362 0.0
C2347 C 0.37448 0.32122 0.79434 0.0
C2348 C 0.3763 0.32416 0.85457 0.0
C2349 C 0.36744 0.31425 0.8944 0.0
C2350 C 0.35644 0.30172 0.87413 0.0
C2351 C 0.38652 0.33776 0.87581 0.0
C2352 C 0.39743 0.34104 0.91618 0.0
C2353 C 0.38519 0.34737 0.85767 0.0
C2354 C 0.37361 0.34439 0.81659 0.0
C2355 C 0.35932 0.33495 0.83061 0.0
C2356 C 0.34848 0.33207 0.79123 0.0
C2357 C 0.3518 0.33866 0.73791 0.0
C2358 C 0.36597 0.34817 0.72398 0.0
C2359 C 0.37686 0.35107 0.76318 0.0
H2360 H 0.34339 0.33641 0.70746 0.0
H2361 H 0.44935 0.36494 0.08704 0.0
H2362 H 0.71224 0.10162 0.74272 0.0
H2363 H 0.6915 0.09018 0.80367 0.0
H2364 H 0.71869 0.10922 0.9583 0.0
H2365 H 0.73953 0.12013 0.89775 0.0
H2366 H 0.70164 0.08483 0.97686 0.0
H2367 H 0.69484 0.11495 0.90667 0.0
H2368 H 0.69305 0.12821 0.83462 0.0
H2369 H 0.65708 0.09354 0.74939 0.0
H2370 H 0.65877 0.08005 0.8204 0.0
H2371 H 0.63751 0.04722 0.14032 0.0
H2372 H 0.65952 0.0663 0.09965 0.0
H2373 H 0.64358 0.05054 0.92484 0.0
H2374 H 0.6217 0.03156 0.96465 0.0
H2375 H 0.65598 0.07673 0.93184 0.0
H2376 H 0.66624 0.04739 0.99708 0.0
H2377 H 0.66897 0.03488 0.07028 0.0
H2378 H 0.6995 0.06988 0.16911 0.0
H2379 H 0.69682 0.08257 0.09683 0.0
C2380 C 0.71378 0.10356 0.78955 0.0
C2381 C 0.72749 0.11168 0.81552 0.0
C2382 C 0.7019 0.09707 0.82443 0.0
C2383 C 0.7035 0.09886 0.88573 0.0
C2384 C 0.71719 0.1076 0.91122 0.0
C2385 C 0.72908 0.11386 0.87655 0.0
C2386 C 0.69106 0.0905 0.92337 0.0
C2387 C 0.69179 0.08335 0.96798 0.0
C2388 C 0.67811 0.08842 0.91158 0.0
C2389 C 0.67699 0.09648 0.86877 0.0
C2390 C 0.68661 0.11014 0.87234 0.0
C2391 C 0.6856 0.1177 0.8317 0.0
C2392 C 0.67497 0.11172 0.78741 0.0
C2393 C 0.66531 0.09816 0.78373 0.0
C2394 C 0.66627 0.09055 0.82424 0.0
C2395 C 0.63869 0.04785 0.09321 0.0
C2396 C 0.62787 0.03783 0.05577 0.0
C2397 C 0.65126 0.05874 0.07011 0.0
C2398 C 0.65317 0.0598 0.00927 0.0
C2399 C 0.6423 0.04993 0.9719 0.0
C2400 C 0.62982 0.03904 0.99485 0.0
C2401 C 0.66658 0.07092 0.98377 0.0
C2402 C 0.666 0.07854 0.94152 0.0
C2403 C 0.67973 0.07358 0.99827 0.0
C2404 C 0.68114 0.06589 0.04212 0.0
C2405 C 0.6734 0.05239 0.03481 0.0
C2406 C 0.67498 0.04528 0.07603 0.0
C2407 C 0.68435 0.05157 0.12447 0.0
C2408 C 0.69219 0.065 0.13174 0.0
C2409 C 0.69064 0.07216 0.09068 0.0
H2410 H 0.68559 0.04605 0.15625 0.0
H2411 H 0.67421 0.1176 0.75598 0.0
H2412 H 0.65273 0.93823 0.31192 0.0
H2413 H 0.63294 0.93629 0.26315 0.0
H2414 H 0.63132 0.95561 0.41074 0.0
H2415 H 0.65044 0.95667 0.4612 0.0
H2416 H 0.60598 0.93983 0.36293 0.0
H2417 H 0.65299 0.97245 0.28771 0.0
H2418 H 0.67534 0.9797 0.24416 0.0
H2419 H 0.65199 0.95509 0.09384 0.0
H2420 H 0.62949 0.94758 0.13694 0.0
H2421 H 0.59833 0.98537 0.25661 0.0
H2422 H 0.60412 0.97186 0.29705 0.0
H2423 H 0.59605 0.95393 0.12724 0.0
H2424 H 0.59032 0.96773 0.08552 0.0
H2425 H 0.62155 0.96313 0.17302 0.0
H2426 H 0.57468 0.93568 0.2443 0.0
H2427 H 0.55366 0.93074 0.2913 0.0
H2428 H 0.57794 0.94809 0.45253 0.0
H2429 H 0.59915 0.95327 0.40641 0.0
C2430 C 0.6478 0.94167 0.33452 0.0
C2431 C 0.65311 0.94772 0.38981 0.0
C2432 C 0.63657 0.94063 0.30661 0.0
C2433 C 0.63096 0.9462 0.33238 0.0
C2434 C 0.63553 0.95131 0.38977 0.0
C2435 C 0.64646 0.95196 0.41856 0.0
C2436 C 0.62184 0.9483 0.29728 0.0
C2437 C 0.60934 0.94488 0.32132 0.0
C2438 C 0.62604 0.95465 0.24221 0.0
C2439 C 0.63957 0.95934 0.21582 0.0
C2440 C 0.65263 0.96856 0.24548 0.0
C2441 C 0.66532 0.97271 0.2209 0.0
C2442 C 0.66508 0.96783 0.16635 0.0
C2443 C 0.65216 0.95884 0.13616 0.0
C2444 C 0.63944 0.95463 0.16062 0.0
C2445 C 0.59749 0.9784 0.22774 0.0
C2446 C 0.59392 0.97769 0.1676 0.0
C2447 C 0.60069 0.97056 0.25125 0.0
C2448 C 0.60031 0.96172 0.21546 0.0
C2449 C 0.59628 0.96062 0.15573 0.0
C2450 C 0.59303 0.96851 0.13198 0.0
C2451 C 0.60593 0.95504 0.23955 0.0
C2452 C 0.61785 0.95765 0.21355 0.0
C2453 C 0.60134 0.94822 0.29331 0.0
C2454 C 0.58852 0.94486 0.32178 0.0
C2455 C 0.57555 0.93847 0.28974 0.0
C2456 C 0.5636 0.93563 0.31624 0.0
C2457 C 0.56447 0.9391 0.37486 0.0
C2458 C 0.57728 0.94539 0.40717 0.0
C2459 C 0.58926 0.94824 0.38091 0.0
H2460 H 0.55521 0.93691 0.39525 0.0
H2461 H 0.67491 0.97104 0.14742 0.0
H2462 H 0.02993 0.65365 0.19613 0.0
H2463 H 0.04373 0.67459 0.24547 0.0
H2464 H 0.07616 0.69042 0.11741 0.0
H2465 H 0.062 0.66927 0.06607 0.0
H2466 H 0.06825 0.68862 0.29982 0.0
H2467 H 0.09217 0.7233 0.1058 0.0
H2468 H 0.08811 0.7237 -0.00102 0.0
H2469 H 0.04333 0.69413 0.01782 0.0
H2470 H 0.04713 0.69367 0.12474 0.0
H2471 H 0.09725 0.7505 0.4314 0.0
H2472 H 0.09653 0.73421 0.37484 0.0
H2473 H 0.06284 0.72787 0.26281 0.0
H2474 H 0.06397 0.74432 0.31675 0.0
H2475 H 0.0795 0.72766 0.19785 0.0
H2476 H 0.05774 0.70771 0.38637 0.0
H2477 H 0.05806 0.70603 0.49439 0.0
H2478 H 0.09238 0.70392 0.48842 0.0
H2479 H 0.09234 0.70572 0.38035 0.0
C2480 C 0.04 0.66154 0.1782 0.0
C2481 C 0.04486 0.65979 0.12702 0.0
C2482 C 0.04795 0.67353 0.20683 0.0
C2483 C 0.06103 0.6841 0.18548 0.0
C2484 C 0.06604 0.68242 0.13452 0.0
C2485 C 0.05794 0.67037 0.10517 0.0
C2486 C 0.0688 0.69685 0.21612 0.0
C2487 C 0.07091 0.69723 0.27739 0.0
C2488 C 0.0724 0.70813 0.18704 0.0
C2489 C 0.06997 0.70832 0.12296 0.0
C2490 C 0.08147 0.71689 0.08705 0.0
C2491 C 0.07921 0.71713 0.02654 0.0
C2492 C 0.06548 0.7089 0.0016 0.0
C2493 C 0.05396 0.70046 0.03715 0.0
C2494 C 0.05617 0.70019 0.09767 0.0
C2495 C 0.08974 0.74562 0.39457 0.0
C2496 C 0.08066 0.74867 0.37855 0.0
C2497 C 0.08934 0.73633 0.36225 0.0
C2498 C 0.0796 0.72976 0.3145 0.0
C2499 C 0.07059 0.73289 0.29881 0.0
C2500 C 0.07118 0.74226 0.33009 0.0
C2501 C 0.07794 0.7191 0.28196 0.0
C2502 C 0.07725 0.71919 0.22021 0.0
C2503 C 0.07512 0.70808 0.31076 0.0
C2504 C 0.07516 0.70703 0.37555 0.0
C2505 C 0.06541 0.70698 0.40821 0.0
C2506 C 0.06553 0.70599 0.46938 0.0
C2507 C 0.07527 0.70492 0.49826 0.0
C2508 C 0.08488 0.70479 0.466 0.0
C2509 C 0.08481 0.70579 0.40482 0.0
H2510 H 0.07535 0.70415 0.54563 0.0
H2511 H 0.06375 0.7091 0.95475 0.0
H2512 H 0.38279 0.42482 0.07571 0.0
H2513 H 0.36088 0.41677 0.12528 0.0
H2514 H 0.37133 0.40052 0.26244 0.0
H2515 H 0.39312 0.40857 0.21437 0.0
H2516 H 0.34329 0.38298 0.20934 0.0
H2517 H 0.3756 0.42554 0.29896 0.0
H2518 H 0.393 0.44949 0.2987 0.0
H2519 H 0.36241 0.45183 0.20964 0.0
H2520 H 0.34486 0.42788 0.20889 0.0
H2521 H 0.29991 0.38067 0.45187 0.0
H2522 H 0.32216 0.39343 0.39935 0.0
H2523 H 0.29885 0.37538 0.23603 0.0
H2524 H 0.27667 0.36258 0.28769 0.0
H2525 H 0.33345 0.41071 0.30176 0.0
H2526 H 0.31561 0.36576 0.16732 0.0
H2527 H 0.29875 0.34181 0.17345 0.0
H2528 H 0.30193 0.3443 0.3618 0.0
H2529 H 0.31895 0.36824 0.35674 0.0
C2530 C 0.3804 0.41954 0.11643 0.0
C2531 C 0.38966 0.41728 0.14089 0.0
C2532 C 0.36795 0.41502 0.14476 0.0
C2533 C 0.36456 0.40808 0.19739 0.0
C2534 C 0.37378 0.40585 0.22179 0.0
C2535 C 0.38624 0.41047 0.19414 0.0
C2536 C 0.35115 0.4026 0.22643 0.0
C2537 C 0.34109 0.38904 0.22912 0.0
C2538 C 0.34844 0.41055 0.25297 0.0
C2539 C 0.35898 0.42493 0.25321 0.0
C2540 C 0.37263 0.43116 0.27878 0.0
C2541 C 0.38251 0.44473 0.27896 0.0
C2542 C 0.37884 0.45217 0.25394 0.0
C2543 C 0.36525 0.44606 0.22889 0.0
C2544 C 0.35533 0.43249 0.22864 0.0
C2545 C 0.29951 0.37958 0.40465 0.0
C2546 C 0.28654 0.37044 0.37416 0.0
C2547 C 0.31222 0.38692 0.37471 0.0
C2548 C 0.31212 0.38521 0.31401 0.0
C2549 C 0.29913 0.37673 0.283 0.0
C2550 C 0.28647 0.36939 0.31275 0.0
C2551 C 0.32556 0.39109 0.28405 0.0
C2552 C 0.3356 0.40468 0.28128 0.0
C2553 C 0.32839 0.38318 0.25799 0.0
C2554 C 0.31843 0.36878 0.26159 0.0
C2555 C 0.31276 0.36118 0.21001 0.0
C2556 C 0.30317 0.34762 0.2133 0.0
C2557 C 0.29924 0.34154 0.26797 0.0
C2558 C 0.30494 0.34902 0.31948 0.0
C2559 C 0.31455 0.36258 0.31642 0.0
H2560 H 0.29179 0.33104 0.27043 0.0
H2561 H 0.3865 0.46268 0.25413 0.0
H2562 H 0.75031 0.81064 0.4705 0.0
H2563 H 0.76594 0.80631 0.51576 0.0
H2564 H 0.73153 0.77639 0.62186 0.0
H2565 H 0.71646 0.78142 0.58039 0.0
H2566 H 0.75331 0.78633 0.68347 0.0
H2567 H 0.74159 0.77129 0.47926 0.0
H2568 H 0.74139 0.77417 0.37198 0.0
H2569 H 0.78692 0.8014 0.37751 0.0
H2570 H 0.78735 0.79875 0.48497 0.0
H2571 H 0.75838 0.73335 0.61115 0.0
H2572 H 0.7581 0.7509 0.57899 0.0
H2573 H 0.78469 0.77404 0.72916 0.0
H2574 H 0.78461 0.75606 0.76331 0.0
H2575 H 0.77484 0.77443 0.54614 0.0
H2576 H 0.77399 0.79165 0.77449 0.0
H2577 H 0.76893 0.78384 0.8768 0.0
H2578 H 0.73999 0.74434 0.81455 0.0
H2579 H 0.7447 0.75194 0.71226 0.0
C2580 C 0.74622 0.80326 0.50403 0.0
C2581 C 0.73217 0.79626 0.52161 0.0
C2582 C 0.75512 0.80075 0.52975 0.0
C2583 C 0.74989 0.79082 0.57153 0.0
C2584 C 0.73594 0.78415 0.59009 0.0
C2585 C 0.72725 0.78695 0.56598 0.0
C2586 C 0.75827 0.78652 0.59323 0.0
C2587 C 0.75818 0.7839 0.6534 0.0
C2588 C 0.76474 0.78335 0.55446 0.0
C2589 C 0.76449 0.78497 0.49006 0.0
C2590 C 0.75154 0.77795 0.45756 0.0
C2591 C 0.75139 0.77953 0.39678 0.0
C2592 C 0.76413 0.788 0.36798 0.0
C2593 C 0.77706 0.79487 0.3999 0.0
C2594 C 0.77726 0.79334 0.46072 0.0
C2595 C 0.76437 0.7422 0.63724 0.0
C2596 C 0.77136 0.7432 0.69037 0.0
C2597 C 0.76428 0.75232 0.6184 0.0
C2598 C 0.77125 0.76378 0.65183 0.0
C2599 C 0.77906 0.76521 0.70303 0.0
C2600 C 0.77903 0.75494 0.72244 0.0
C2601 C 0.76884 0.77335 0.6353 0.0
C2602 C 0.77034 0.77723 0.5764 0.0
C2603 C 0.7629 0.77697 0.67452 0.0
C2604 C 0.75989 0.77235 0.73592 0.0
C2605 C 0.76654 0.78131 0.7828 0.0
C2606 C 0.76371 0.77692 0.84077 0.0
C2607 C 0.75418 0.7636 0.85225 0.0
C2608 C 0.74739 0.75465 0.80577 0.0
C2609 C 0.75013 0.75899 0.74781 0.0
H2610 H 0.75203 0.76022 0.89713 0.0
H2611 H 0.764 0.78922 0.32092 0.0
H2612 H 0.27665 0.01715 0.43263 0.0
H2613 H 0.28691 0.03904 0.46886 0.0
H2614 H 0.29583 0.02971 0.63789 0.0
H2615 H 0.28595 0.00813 0.60221 0.0
H2616 H 0.2862 0.04493 0.64437 0.0
H2617 H 0.32055 0.04341 0.53933 0.0
H2618 H 0.32802 0.03905 0.4498 0.0
H2619 H 0.3253 0.06607 0.35378 0.0
H2620 H 0.31765 0.07046 0.44262 0.0
H2621 H 0.34598 0.09811 0.79482 0.0
H2622 H 0.32684 0.07799 0.74437 0.0
H2623 H 0.33532 0.09919 0.58315 0.0
H2624 H 0.35503 0.11919 0.63286 0.0
H2625 H 0.33253 0.07925 0.55809 0.0
H2626 H 0.30377 0.08498 0.66514 0.0
H2627 H 0.29523 0.08945 0.75028 0.0
H2628 H 0.28556 0.05547 0.83651 0.0
H2629 H 0.29423 0.05088 0.75227 0.0
C2630 C 0.28055 0.01969 0.47783 0.0
C2631 C 0.28053 0.01089 0.51446 0.0
C2632 C 0.28638 0.03218 0.49843 0.0
C2633 C 0.29214 0.03596 0.556 0.0
C2634 C 0.29135 0.02694 0.59348 0.0
C2635 C 0.28573 0.01459 0.57283 0.0
C2636 C 0.30053 0.04964 0.57598 0.0
C2637 C 0.29631 0.05251 0.62559 0.0
C2638 C 0.31345 0.05957 0.55005 0.0
C2639 C 0.31839 0.05715 0.4973 0.0
C2640 C 0.32149 0.04837 0.49902 0.0
C2641 C 0.32576 0.0459 0.44845 0.0
C2642 C 0.32708 0.05225 0.39612 0.0
C2643 C 0.32424 0.06114 0.39432 0.0
C2644 C 0.31994 0.06363 0.44474 0.0
C2645 C 0.34365 0.09848 0.74879 0.0
C2646 C 0.35202 0.11018 0.71769 0.0
C2647 C 0.3326 0.08699 0.71999 0.0
C2648 C 0.32941 0.08704 0.65996 0.0
C2649 C 0.33753 0.09885 0.62937 0.0
C2650 C 0.3488 0.11028 0.65782 0.0
C2651 C 0.31848 0.07463 0.62823 0.0
C2652 C 0.32225 0.07193 0.57636 0.0
C2653 C 0.30501 0.06496 0.65154 0.0
C2654 C 0.29972 0.06763 0.7024 0.0
C2655 C 0.29991 0.0785 0.70239 0.0
C2656 C 0.29503 0.08105 0.7505 0.0
C2657 C 0.28988 0.07276 0.7988 0.0
C2658 C 0.28956 0.06188 0.79905 0.0
C2659 C 0.29442 0.05929 0.75108 0.0
H2660 H 0.28611 0.07475 0.836 0.0
H2661 H 0.33032 0.05029 0.35696 0.0
H2662 H 0.06325 0.36602 0.59577 0.0
H2663 H 0.03994 0.35626 0.63442 0.0
H2664 H 0.02117 0.3446 0.45924 0.0
H2665 H 0.04451 0.35438 0.41995 0.0
H2666 H 0.01443 0.35825 0.51806 0.0
H2667 H 0.01412 0.32178 0.5552 0.0
H2668 H 0.02354 0.31062 0.59369 0.0
H2669 H 0.02444 0.32274 0.76893 0.0
H2670 H 0.01514 0.33409 0.7314 0.0
H2671 H 0.9445 0.32565 0.59218 0.0
H2672 H 0.96541 0.32883 0.55719 0.0
H2673 H 0.98364 0.33813 0.73358 0.0
H2674 H 0.96237 0.33447 0.76939 0.0
H2675 H 0.99051 0.32502 0.67437 0.0
H2676 H 0.99218 0.36222 0.63953 0.0
H2677 H 0.98308 0.37383 0.60374 0.0
H2678 H 0.98083 0.36153 0.42719 0.0
H2679 H 0.98973 0.34969 0.46208 0.0
C2680 C 0.05415 0.36128 0.56541 0.0
C2681 C 0.05573 0.36107 0.50466 0.0
C2682 C 0.04083 0.35562 0.5877 0.0
C2683 C 0.02885 0.34966 0.54971 0.0
C2684 C 0.03032 0.34914 0.48924 0.0
C2685 C 0.04364 0.35472 0.4669 0.0
C2686 C 0.01503 0.34496 0.57257 0.0
C2687 C 0.00905 0.3508 0.55143 0.0
C2688 C 0.00836 0.33561 0.6177 0.0
C2689 C 0.01402 0.32886 0.64042 0.0
C2690 C 0.01643 0.32215 0.60189 0.0
C2691 C 0.02171 0.31576 0.62355 0.0
C2692 C 0.02456 0.31595 0.68371 0.0
C2693 C 0.02218 0.32257 0.72235 0.0
C2694 C 0.01688 0.32897 0.70092 0.0
C2695 C 0.95287 0.32819 0.6237 0.0
C2696 C 0.95194 0.33003 0.68334 0.0
C2697 C 0.96482 0.33002 0.60363 0.0
C2698 C 0.97623 0.33406 0.64253 0.0
C2699 C 0.97497 0.3351 0.70279 0.0
C2700 C 0.96285 0.33303 0.72316 0.0
C2701 C 0.98983 0.3382 0.61927 0.0
C2702 C 0.99583 0.33237 0.64065 0.0
C2703 C 0.99668 0.34771 0.57475 0.0
C2704 C 0.9915 0.35497 0.5535 0.0
C2705 C 0.98967 0.36193 0.59312 0.0
C2706 C 0.98455 0.36855 0.573 0.0
C2707 C 0.98134 0.36839 0.51325 0.0
C2708 C 0.9833 0.36163 0.47347 0.0
C2709 C 0.98839 0.35497 0.49339 0.0
H2710 H 0.97737 0.37352 0.49775 0.0
H2711 H 0.02861 0.31096 0.70039 0.0
H2712 H 0.28769 0.25614 0.61497 0.0
H2713 H 0.27265 0.26103 0.57005 0.0
H2714 H 0.26949 0.2735 0.73859 0.0
H2715 H 0.28414 0.26813 0.78426 0.0
H2716 H 0.24548 0.26307 0.67155 0.0
H2717 H 0.29589 0.29476 0.64877 0.0
H2718 H 0.31948 0.30225 0.62012 0.0
H2719 H 0.30435 0.29152 0.4408 0.0
H2720 H 0.2806 0.28386 0.46869 0.0
H2721 H 0.24967 0.31861 0.59996 0.0
H2722 H 0.25206 0.3023 0.6353 0.0
H2723 H 0.24681 0.28868 0.4578 0.0
H2724 H 0.24406 0.30485 0.42197 0.0
H2725 H 0.27235 0.29695 0.51988 0.0
H2726 H 0.22238 0.26846 0.54493 0.0
H2727 H 0.19951 0.26204 0.57784 0.0
H2728 H 0.21476 0.26855 0.7574 0.0
H2729 H 0.23782 0.2752 0.72555 0.0
C2730 C 0.28347 0.2596 0.64271 0.0
C2731 C 0.28726 0.26199 0.70287 0.0
C2732 C 0.27488 0.26239 0.61701 0.0
C2733 C 0.27028 0.26795 0.65072 0.0
C2734 C 0.273 0.26927 0.71175 0.0
C2735 C 0.2814 0.26624 0.73777 0.0
C2736 C 0.26443 0.27402 0.62143 0.0
C2737 C 0.25135 0.27049 0.63849 0.0
C2738 C 0.27204 0.28362 0.57779 0.0
C2739 C 0.28641 0.28852 0.5609 0.0
C2740 C 0.29757 0.29392 0.60331 0.0
C2741 C 0.31097 0.29821 0.58722 0.0
C2742 C 0.31339 0.29729 0.52873 0.0
C2743 C 0.30244 0.29217 0.48613 0.0
C2744 C 0.28902 0.28785 0.50204 0.0
C2745 C 0.2487 0.31198 0.56851 0.0
C2746 C 0.24673 0.31306 0.50817 0.0
C2747 C 0.25 0.30261 0.58884 0.0
C2748 C 0.24952 0.29426 0.54915 0.0
C2749 C 0.24708 0.29499 0.48906 0.0
C2750 C 0.24552 0.30423 0.46874 0.0
C2751 C 0.25343 0.28604 0.57004 0.0
C2752 C 0.26629 0.2893 0.55188 0.0
C2753 C 0.24574 0.27642 0.61332 0.0
C2754 C 0.23188 0.27242 0.63276 0.0
C2755 C 0.22091 0.26863 0.59141 0.0
C2756 C 0.2079 0.26493 0.60988 0.0
C2757 C 0.20569 0.26491 0.66966 0.0
C2758 C 0.21649 0.26857 0.7111 0.0
C2759 C 0.22953 0.27229 0.69286 0.0
H2760 H 0.19561 0.26203 0.68388 0.0
H2761 H 0.32377 0.3006 0.51637 0.0
H2762 H 0.77782 0.09691 0.73368 0.0
H2763 H 0.77457 0.07751 0.69799 0.0
H2764 H 0.73773 0.06656 0.59445 0.0
H2765 H 0.74108 0.08582 0.62822 0.0
H2766 H 0.75388 0.0521 0.7058 0.0
H2767 H 0.73478 0.05382 0.46812 0.0
H2768 H 0.74006 0.07054 0.39654 0.0
H2769 H 0.78147 0.09778 0.47756 0.0
H2770 H 0.77655 0.08118 0.54902 0.0
H2771 H 0.70434 0.99055 0.58368 0.0
H2772 H 0.71906 0.01263 0.62286 0.0
H2773 H 0.74859 0.02511 0.48469 0.0
H2774 H 0.73342 0.00304 0.44347 0.0
H2775 H 0.74442 0.04154 0.4928 0.0
H2776 H 0.75681 0.02337 0.6353 0.0
H2777 H 0.75351 0.0075 0.70744 0.0
H2778 H 0.73022 0.01451 0.81547 0.0
H2779 H 0.73316 0.03026 0.74356 0.0
C2780 C 0.76908 0.09036 0.70312 0.0
C2781 C 0.75986 0.09301 0.68298 0.0
C2782 C 0.76724 0.0793 0.68284 0.0
C2783 C 0.75612 0.07077 0.6424 0.0
C2784 C 0.74666 0.07321 0.62411 0.0
C2785 C 0.74858 0.08424 0.64366 0.0
C2786 C 0.75395 0.05908 0.61943 0.0
C2787 C 0.75197 0.04981 0.65923 0.0
C2788 C 0.75204 0.05632 0.55844 0.0
C2789 C 0.75526 0.06624 0.51413 0.0
C2790 C 0.74507 0.06333 0.47034 0.0
C2791 C 0.74799 0.07281 0.42986 0.0
C2792 C 0.76108 0.08522 0.43257 0.0
C2793 C 0.77132 0.08817 0.47558 0.0
C2794 C 0.76847 0.07873 0.51609 0.0
C2795 C 0.71404 0.99796 0.56191 0.0
C2796 C 0.71771 0.99507 0.51039 0.0
C2797 C 0.72255 0.01059 0.58475 0.0
C2798 C 0.73514 0.02055 0.55756 0.0
C2799 C 0.73897 0.01761 0.50665 0.0
C2800 C 0.73029 0.005 0.48307 0.0
C2801 C 0.74348 0.03418 0.57943 0.0
C2802 C 0.74667 0.04386 0.53931 0.0
C2803 C 0.74691 0.03741 0.63996 0.0
C2804 C 0.74518 0.02799 0.68379 0.0
C2805 C 0.75091 0.02148 0.67426 0.0
C2806 C 0.74911 0.0125 0.71515 0.0
C2807 C 0.74165 0.00999 0.76599 0.0
C2808 C 0.736 0.01647 0.77609 0.0
C2809 C 0.73776 0.02545 0.73531 0.0
H2810 H 0.74027 0.00303 0.79759 0.0
H2811 H 0.76329 0.09255 0.40132 0.0
H2812 H 0.94103 0.69766 0.79282 0.0
H2813 H 0.96346 0.71732 0.7577 0.0
H2814 H 0.95412 0.69946 0.58679 0.0
H2815 H 0.93184 0.68013 0.6206 0.0
H2816 H 0.98588 0.72048 0.71972 0.0
H2817 H 0.96629 0.72013 0.47947 0.0
H2818 H 0.94513 0.7159 0.43005 0.0
H2819 H 0.93462 0.72466 0.58989 0.0
H2820 H 0.95582 0.72914 0.64012 0.0
H2821 H 0.03827 0.74083 0.52543 0.0
H2822 H 0.01558 0.72927 0.57281 0.0
H2823 H 0.01471 0.76135 0.53673 0.0
H2824 H 0.03719 0.77265 0.48572 0.0
H2825 H 0.98923 0.73973 0.52523 0.0
H2826 H 0.02606 0.75707 0.66857 0.0
H2827 H 0.04749 0.76167 0.71702 0.0
H2828 H 0.02424 0.7213 0.75954 0.0
H2829 H 0.00289 0.71627 0.70856 0.0
C2830 C 0.94371 0.69801 0.74758 0.0
C2831 C 0.93461 0.68731 0.70956 0.0
C2832 C 0.95652 0.70924 0.72762 0.0
C2833 C 0.96036 0.70996 0.66931 0.0
C2834 C 0.95124 0.6993 0.6315 0.0
C2835 C 0.93851 0.68817 0.65118 0.0
C2836 C 0.97427 0.72133 0.64798 0.0
C2837 C 0.98668 0.72483 0.67757 0.0
C2838 C 0.9753 0.72737 0.59404 0.0
C2839 C 0.96266 0.72494 0.56365 0.0
C2840 C 0.95954 0.72127 0.504 0.0
C2841 C 0.94751 0.71879 0.47586 0.0
C2842 C 0.93852 0.71999 0.50683 0.0
C2843 C 0.94157 0.72371 0.56598 0.0
C2844 C 0.95359 0.7262 0.59433 0.0
C2845 C 0.03313 0.74533 0.52701 0.0
C2846 C 0.03943 0.75762 0.50251 0.0
C2847 C 0.02024 0.73878 0.55445 0.0
C2848 C 0.01368 0.74464 0.56014 0.0
C2849 C 0.01967 0.75672 0.53343 0.0
C2850 C 0.03245 0.76315 0.50433 0.0
C2851 C 0.00071 0.73809 0.59479 0.0
C2852 C 0.98853 0.73562 0.56797 0.0
C2853 C -3e-05 0.7332 0.65187 0.0
C2854 C 0.01278 0.73627 0.68425 0.0
C2855 C 0.02552 0.74911 0.68748 0.0
C2856 C 0.03771 0.75179 0.71512 0.0
C2857 C 0.03721 0.74178 0.74131 0.0
C2858 C 0.02459 0.72905 0.73932 0.0
C2859 C 0.01245 0.72627 0.71078 0.0
H2860 H 0.04658 0.74388 0.76333 0.0
H2861 H 0.9292 0.71805 0.48497 0.0
loop_
_geom_bond_atom_site_label_1
_geom_bond_atom_site_label_2
_geom_bond_distance
_geom_bond_site_symmetry_2
_ccdc_geom_bond_type
Co0 O3 1.970 . S
Co0 N17 1.989 . S
Co0 O25 1.967 . S
Co0 O32 1.920 1_554 S
Co1 O4 1.966 . S
Co1 N10 2.022 . S
Co1 N18 1.993 . S
Co1 O26 1.941 . S
C2 O3 1.258 . S
C2 O4 1.263 . S
O3 Co0 1.970 . S
O3 C2 1.258 . S
O4 Co1 1.966 . S
O4 C2 1.263 . S
C5 O6 1.235 . S
C5 O32 1.289 . S
O6 C5 1.235 . S
C7 C9 1.400 . S
C7 N10 1.351 . S
C7 C12 1.501 . S
C8 C9 1.387 . S
C8 N11 1.341 . S
C9 C7 1.400 . S
C9 C8 1.387 . S
N10 Co1 2.022 . S
N10 C7 1.351 . S
N10 N11 1.365 . S
N11 C8 1.341 . S
N11 N10 1.365 . S
N11 H31 0.862 . S
C12 C7 1.501 . S
C12 H13 0.961 . S
C12 H14 0.961 . S
C12 H15 0.960 . S
H13 C12 0.961 . S
H14 C12 0.961 . S
H15 C12 0.960 . S
C16 N17 1.342 . S
C16 C20 1.401 . S
C16 C21 1.499 1_554 S
N17 Co0 1.989 . S
N17 C16 1.342 . S
N17 N18 1.388 . S
N18 Co1 1.993 . S
N18 N17 1.388 . S
N18 C19 1.346 . S
C19 N18 1.346 . S
C19 C20 1.396 . S
C19 C29 1.510 . S
C20 C16 1.401 . S
C20 C19 1.396 . S
C21 C16 1.499 1_556 S
C21 H22 0.959 . S
C21 H23 0.960 . S
C21 H24 0.961 . S
H22 C21 0.959 . S
H23 C21 0.960 . S
H24 C21 0.961 . S
O25 Co0 1.967 . S
O25 C33 1.258 . S
O26 Co1 1.941 . S
O26 C33 1.266 . S
H27 C29 0.959 . S
H28 C29 0.961 . S
C29 C19 1.510 . S
C29 H27 0.959 . S
C29 H28 0.961 . S
C29 H30 0.960 . S
H30 C29 0.960 . S
H31 N11 0.862 . S
O32 Co0 1.920 1_556 S
O32 C5 1.289 . S
C33 O25 1.258 . S
C33 O26 1.266 . S
Co34 O37 1.970 . S
Co34 N51 1.989 . S
Co34 O59 1.967 . S
Co34 O66 1.920 1_554 S
Co35 O38 1.966 . S
Co35 N44 2.022 . S
Co35 N52 1.993 . S
Co35 O60 1.941 . S
C36 O37 1.258 . S
C36 O38 1.263 . S
O37 Co34 1.970 . S
O37 C36 1.258 . S
O38 Co35 1.966 . S
O38 C36 1.263 . S
C39 O40 1.235 . S
C39 O66 1.289 . S
O40 C39 1.235 . S
C41 C43 1.400 . S
C41 N44 1.351 . S
C41 C46 1.501 . S
C42 C43 1.387 . S
C42 N45 1.341 . S
C43 C41 1.400 . S
C43 C42 1.387 . S
N44 Co35 2.022 . S
N44 C41 1.351 . S
N44 N45 1.365 . S
N45 C42 1.341 . S
N45 N44 1.365 . S
N45 H65 0.862 . S
C46 C41 1.501 . S
C46 H47 0.961 . S
C46 H48 0.961 . S
C46 H49 0.960 . S
H47 C46 0.961 . S
H48 C46 0.961 . S
H49 C46 0.960 . S
C50 N51 1.342 . S
C50 C54 1.401 . S
C50 C55 1.499 1_554 S
N51 Co34 1.989 . S
N51 C50 1.342 . S
N51 N52 1.388 . S
N52 Co35 1.993 . S
N52 N51 1.388 . S
N52 C53 1.346 . S
C53 N52 1.346 . S
C53 C54 1.396 . S
C53 C63 1.510 . S
C54 C50 1.401 . S
C54 C53 1.396 . S
C55 C50 1.499 1_556 S
C55 H56 0.959 . S
C55 H57 0.960 . S
C55 H58 0.961 . S
H56 C55 0.959 . S
H57 C55 0.960 . S
H58 C55 0.961 . S
O59 Co34 1.967 . S
O59 C67 1.258 . S
O60 Co35 1.941 . S
O60 C67 1.266 . S
H61 C63 0.959 . S
H62 C63 0.961 . S
C63 C53 1.510 . S
C63 H61 0.959 . S
C63 H62 0.961 . S
C63 H64 0.960 . S
H64 C63 0.960 . S
H65 N45 0.862 . S
O66 Co34 1.920 1_556 S
O66 C39 1.289 . S
C67 O59 1.258 . S
C67 O60 1.266 . S
Co68 O71 1.970 . S
Co68 N85 1.989 . S
Co68 O93 1.967 . S
Co68 O100 1.920 . S
Co69 O72 1.966 . S
Co69 N78 2.022 1_554 S
Co69 N86 1.993 . S
Co69 O94 1.941 . S
C70 O71 1.258 . S
C70 O72 1.263 . S
O71 Co68 1.970 . S
O71 C70 1.258 . S
O72 Co69 1.966 . S
O72 C70 1.263 . S
C73 O74 1.235 . S
C73 O100 1.289 . S
O74 C73 1.235 . S
C75 C77 1.400 . S
C75 N78 1.351 . S
C75 C80 1.501 . S
C76 C77 1.387 . S
C76 N79 1.341 . S
C77 C75 1.400 . S
C77 C76 1.387 . S
N78 Co69 2.022 1_556 S
N78 C75 1.351 . S
N78 N79 1.365 . S
N79 C76 1.341 . S
N79 N78 1.365 . S
N79 H99 0.862 . S
C80 C75 1.501 . S
C80 H81 0.961 . S
C80 H82 0.961 . S
C80 H83 0.960 . S
H81 C80 0.961 . S
H82 C80 0.961 . S
H83 C80 0.960 . S
C84 N85 1.342 . S
C84 C88 1.401 . S
C84 C89 1.499 . S
N85 Co68 1.989 . S
N85 C84 1.342 . S
N85 N86 1.388 . S
N86 Co69 1.993 . S
N86 N85 1.388 . S
N86 C87 1.346 . S
C87 N86 1.346 . S
C87 C88 1.396 . S
C87 C97 1.510 1_554 S
C88 C84 1.401 . S
C88 C87 1.396 . S
C89 C84 1.499 . S
C89 H90 0.959 . S
C89 H91 0.960 . S
C89 H92 0.961 . S
H90 C89 0.959 . S
H91 C89 0.960 . S
H92 C89 0.961 . S
O93 Co68 1.967 . S
O93 C101 1.258 . S
O94 Co69 1.941 . S
O94 C101 1.266 . S
H95 C97 0.959 . S
H96 C97 0.961 . S
C97 C87 1.510 1_556 S
C97 H95 0.959 . S
C97 H96 0.961 . S
C97 H98 0.960 . S
H98 C97 0.960 . S
H99 N79 0.862 . S
O100 Co68 1.920 . S
O100 C73 1.289 . S
C101 O93 1.258 . S
C101 O94 1.266 . S
Co102 O105 1.970 1_455 S
Co102 N119 1.989 . S
Co102 O127 1.967 . S
Co102 O134 1.920 . S
Co103 O106 1.966 . S
Co103 N112 2.022 . S
Co103 N120 1.993 1_556 S
Co103 O128 1.941 1_556 S
C104 O105 1.258 . S
C104 O106 1.263 1_654 S
O105 Co102 1.970 1_655 S
O105 C104 1.258 . S
O106 Co103 1.966 . S
O106 C104 1.263 1_456 S
C107 O108 1.221 1_455 S
C107 O134 1.316 . S
O108 C107 1.221 1_655 S
C109 C111 1.400 . S
C109 N112 1.351 . S
C109 C114 1.501 . S
C110 C111 1.387 . S
C110 N113 1.341 . S
C111 C109 1.400 . S
C111 C110 1.387 . S
N112 Co103 2.022 . S
N112 C109 1.351 . S
N112 N113 1.365 . S
N113 C110 1.341 . S
N113 N112 1.365 . S
N113 H133 0.862 . S
C114 C109 1.501 . S
C114 H115 0.961 . S
C114 H116 0.961 1_455 S
C114 H117 0.960 . S
H115 C114 0.961 . S
H116 C114 0.961 1_655 S
H117 C114 0.960 . S
C118 N119 1.342 . S
C118 C122 1.401 . S
C118 C123 1.499 . S
N119 Co102 1.989 . S
N119 C118 1.342 . S
N119 N120 1.388 . S
N120 Co103 1.993 1_554 S
N120 N119 1.388 . S
N120 C121 1.346 . S
C121 N120 1.346 . S
C121 C122 1.396 . S
C121 C131 1.510 1_554 S
C122 C118 1.401 . S
C122 C121 1.396 . S
C123 C118 1.499 . S
C123 H124 0.959 . S
C123 H125 0.960 . S
C123 H126 0.961 . S
H124 C123 0.959 . S
H125 C123 0.960 . S
H126 C123 0.961 . S
O127 Co102 1.967 . S
O127 C135 1.258 . S
O128 Co103 1.941 1_554 S
O128 C135 1.266 . S
H129 C131 0.959 . S
H130 C131 0.961 . S
C131 C121 1.510 1_556 S
C131 H129 0.959 . S
C131 H130 0.961 . S
C131 H132 0.960 . S
H132 C131 0.960 . S
H133 N113 0.862 . S
O134 Co102 1.920 . S
O134 C107 1.316 . S
C135 O127 1.258 . S
C135 O128 1.266 . S
Co136 O139 1.970 . S
Co136 N153 1.989 . S
Co136 O161 1.967 . S
Co136 O168 1.920 . S
Co137 O140 1.966 . S
Co137 N146 2.022 1_554 S
Co137 N154 1.993 . S
Co137 O162 1.941 . S
C138 O139 1.258 . S
C138 O140 1.263 . S
O139 Co136 1.970 . S
O139 C138 1.258 . S
O140 Co137 1.966 . S
O140 C138 1.263 . S
C141 O142 1.235 . S
C141 O168 1.289 . S
O142 C141 1.235 . S
C143 C145 1.400 . S
C143 N146 1.351 . S
C143 C148 1.501 . S
C144 C145 1.387 . S
C144 N147 1.341 . S
C145 C143 1.400 . S
C145 C144 1.387 . S
N146 Co137 2.022 1_556 S
N146 C143 1.351 . S
N146 N147 1.365 . S
N147 C144 1.341 . S
N147 N146 1.365 . S
N147 H167 0.862 . S
C148 C143 1.501 . S
C148 H149 0.961 . S
C148 H150 0.961 . S
C148 H151 0.960 . S
H149 C148 0.961 . S
H150 C148 0.961 . S
H151 C148 0.960 . S
C152 N153 1.342 . S
C152 C156 1.401 . S
C152 C157 1.499 . S
N153 Co136 1.989 . S
N153 C152 1.342 . S
N153 N154 1.388 . S
N154 Co137 1.993 . S
N154 N153 1.388 . S
N154 C155 1.346 . S
C155 N154 1.346 . S
C155 C156 1.396 . S
C155 C165 1.510 1_554 S
C156 C152 1.401 . S
C156 C155 1.396 . S
C157 C152 1.499 . S
C157 H158 0.959 . S
C157 H159 0.960 . S
C157 H160 0.961 . S
H158 C157 0.959 . S
H159 C157 0.960 . S
H160 C157 0.961 . S
O161 Co136 1.967 . S
O161 C169 1.258 . S
O162 Co137 1.941 . S
O162 C169 1.266 . S
H163 C165 0.959 . S
H164 C165 0.961 . S
C165 C155 1.510 1_556 S
C165 H163 0.959 . S
C165 H164 0.961 . S
C165 H166 0.960 . S
H166 C165 0.960 . S
H167 N147 0.862 . S
O168 Co136 1.920 . S
O168 C141 1.289 . S
C169 O161 1.258 . S
C169 O162 1.266 . S
Co170 O173 1.970 . S
Co170 N187 1.989 1_565 S
Co170 O195 1.967 1_565 S
Co170 O202 1.920 1_554 S
Co171 O174 1.966 1_545 S
Co171 N180 2.022 . S
Co171 N188 1.993 . S
Co171 O196 1.941 . S
C172 O173 1.258 . S
C172 O174 1.263 . S
O173 Co170 1.970 . S
O173 C172 1.258 . S
O174 Co171 1.966 1_565 S
O174 C172 1.263 . S
C175 O176 1.235 . S
C175 O202 1.289 . S
O176 C175 1.235 . S
C177 C179 1.400 . S
C177 N180 1.351 . S
C177 C182 1.501 1_545 S
C178 C179 1.387 . S
C178 N181 1.341 . S
C179 C177 1.400 . S
C179 C178 1.387 . S
N180 Co171 2.022 . S
N180 C177 1.351 . S
N180 N181 1.365 . S
N181 C178 1.341 . S
N181 N180 1.365 . S
N181 H201 0.862 . S
C182 C177 1.501 1_565 S
C182 H183 0.961 . S
C182 H184 0.961 . S
C182 H185 0.960 . S
H183 C182 0.961 . S
H184 C182 0.961 . S
H185 C182 0.960 . S
C186 N187 1.342 . S
C186 C190 1.401 . S
C186 C191 1.499 1_544 S
N187 Co170 1.989 1_545 S
N187 C186 1.342 . S
N187 N188 1.388 . S
N188 Co171 1.993 . S
N188 N187 1.388 . S
N188 C189 1.346 . S
C189 N188 1.346 . S
C189 C190 1.396 . S
C189 C199 1.510 . S
C190 C186 1.401 . S
C190 C189 1.396 . S
C191 C186 1.499 1_566 S
C191 H192 0.959 . S
C191 H193 0.960 . S
C191 H194 0.961 1_565 S
H192 C191 0.959 . S
H193 C191 0.960 . S
H194 C191 0.961 1_545 S
O195 Co170 1.967 1_545 S
O195 C203 1.258 . S
O196 Co171 1.941 . S
O196 C203 1.266 . S
H197 C199 0.959 . S
H198 C199 0.961 . S
C199 C189 1.510 . S
C199 H197 0.959 . S
C199 H198 0.961 . S
C199 H200 0.960 . S
H200 C199 0.960 . S
H201 N181 0.862 . S
O202 Co170 1.920 1_556 S
O202 C175 1.289 . S
C203 O195 1.258 . S
C203 O196 1.266 . S
Co204 O207 1.970 . S
Co204 N221 1.989 . S
Co204 O229 1.967 . S
Co204 O236 1.920 . S
Co205 O208 1.966 . S
Co205 N214 2.022 . S
Co205 N222 1.993 . S
Co205 O230 1.941 . S
C206 O207 1.258 . S
C206 O208 1.263 . S
O207 Co204 1.970 . S
O207 C206 1.258 . S
O208 Co205 1.966 . S
O208 C206 1.263 . S
C209 O210 1.235 . S
C209 O236 1.289 . S
O210 C209 1.235 . S
C211 C213 1.400 . S
C211 N214 1.351 . S
C211 C216 1.501 . S
C212 C213 1.387 . S
C212 N215 1.341 . S
C213 C211 1.400 . S
C213 C212 1.387 . S
N214 Co205 2.022 . S
N214 C211 1.351 . S
N214 N215 1.365 . S
N215 C212 1.341 . S
N215 N214 1.365 . S
N215 H235 0.862 . S
C216 C211 1.501 . S
C216 H217 0.961 . S
C216 H218 0.961 . S
C216 H219 0.960 . S
H217 C216 0.961 . S
H218 C216 0.961 . S
H219 C216 0.960 . S
C220 N221 1.342 . S
C220 C224 1.401 . S
C220 C225 1.499 . S
N221 Co204 1.989 . S
N221 C220 1.342 . S
N221 N222 1.388 . S
N222 Co205 1.993 . S
N222 N221 1.388 . S
N222 C223 1.346 . S
C223 N222 1.346 . S
C223 C224 1.396 . S
C223 C233 1.510 . S
C224 C220 1.401 . S
C224 C223 1.396 . S
C225 C220 1.499 . S
C225 H226 0.959 . S
C225 H227 0.960 . S
C225 H228 0.961 . S
H226 C225 0.959 . S
H227 C225 0.960 . S
H228 C225 0.961 . S
O229 Co204 1.967 . S
O229 C237 1.258 . S
O230 Co205 1.941 . S
O230 C237 1.266 . S
H231 C233 0.959 . S
H232 C233 0.961 . S
C233 C223 1.510 . S
C233 H231 0.959 . S
C233 H232 0.961 . S
C233 H234 0.960 . S
H234 C233 0.960 . S
H235 N215 0.862 . S
O236 Co204 1.920 . S
O236 C209 1.289 . S
C237 O229 1.258 . S
C237 O230 1.266 . S
Co238 O241 1.970 . S
Co238 N255 1.989 . S
Co238 O263 1.967 . S
Co238 O270 1.920 . S
Co239 O242 1.966 . S
Co239 N248 2.022 . S
Co239 N256 1.993 . S
Co239 O264 1.941 . S
C240 O241 1.258 . S
C240 O242 1.263 . S
O241 Co238 1.970 . S
O241 C240 1.258 . S
O242 Co239 1.966 . S
O242 C240 1.263 . S
C243 O244 1.235 . S
C243 O270 1.289 . S
O244 C243 1.235 . S
C245 C247 1.400 . S
C245 N248 1.351 . S
C245 C250 1.501 . S
C246 C247 1.387 . S
C246 N249 1.341 . S
C247 C245 1.400 . S
C247 C246 1.387 . S
N248 Co239 2.022 . S
N248 C245 1.351 . S
N248 N249 1.365 . S
N249 C246 1.341 . S
N249 N248 1.365 . S
N249 H269 0.862 . S
C250 C245 1.501 . S
C250 H251 0.961 . S
C250 H252 0.961 . S
C250 H253 0.960 . S
H251 C250 0.961 . S
H252 C250 0.961 . S
H253 C250 0.960 . S
C254 N255 1.342 . S
C254 C258 1.401 . S
C254 C259 1.499 . S
N255 Co238 1.989 . S
N255 C254 1.342 . S
N255 N256 1.388 . S
N256 Co239 1.993 . S
N256 N255 1.388 . S
N256 C257 1.346 . S
C257 N256 1.346 . S
C257 C258 1.396 . S
C257 C267 1.510 . S
C258 C254 1.401 . S
C258 C257 1.396 . S
C259 C254 1.499 . S
C259 H260 0.959 . S
C259 H261 0.960 . S
C259 H262 0.961 . S
H260 C259 0.959 . S
H261 C259 0.960 . S
H262 C259 0.961 . S
O263 Co238 1.967 . S
O263 C271 1.258 . S
O264 Co239 1.941 . S
O264 C271 1.266 . S
H265 C267 0.959 . S
H266 C267 0.961 . S
C267 C257 1.510 . S
C267 H265 0.959 . S
C267 H266 0.961 . S
C267 H268 0.960 . S
H268 C267 0.960 . S
H269 N249 0.862 . S
O270 Co238 1.920 . S
O270 C243 1.289 . S
C271 O263 1.258 . S
C271 O264 1.266 . S
Co272 O275 1.970 . S
Co272 N289 1.989 . S
Co272 O297 1.967 . S
Co272 O304 1.920 . S
Co273 O276 1.966 . S
Co273 N282 2.022 . S
Co273 N290 1.993 . S
Co273 O298 1.941 . S
C274 O275 1.258 . S
C274 O276 1.263 . S
O275 Co272 1.970 . S
O275 C274 1.258 . S
O276 Co273 1.966 . S
O276 C274 1.263 . S
C277 O278 1.235 . S
C277 O304 1.289 . S
O278 C277 1.235 . S
C279 C281 1.400 . S
C279 N282 1.351 . S
C279 C284 1.501 . S
C280 C281 1.387 . S
C280 N283 1.341 . S
C281 C279 1.400 . S
C281 C280 1.387 . S
N282 Co273 2.022 . S
N282 C279 1.351 . S
N282 N283 1.365 . S
N283 C280 1.341 . S
N283 N282 1.365 . S
N283 H303 0.862 . S
C284 C279 1.501 . S
C284 H285 0.961 . S
C284 H286 0.961 . S
C284 H287 0.960 . S
H285 C284 0.961 . S
H286 C284 0.961 . S
H287 C284 0.960 . S
C288 N289 1.342 . S
C288 C292 1.401 . S
C288 C293 1.499 . S
N289 Co272 1.989 . S
N289 C288 1.342 . S
N289 N290 1.388 . S
N290 Co273 1.993 . S
N290 N289 1.388 . S
N290 C291 1.346 . S
C291 N290 1.346 . S
C291 C292 1.396 . S
C291 C301 1.510 . S
C292 C288 1.401 . S
C292 C291 1.396 . S
C293 C288 1.499 . S
C293 H294 0.959 . S
C293 H295 0.960 . S
C293 H296 0.961 . S
H294 C293 0.959 . S
H295 C293 0.960 . S
H296 C293 0.961 . S
O297 Co272 1.967 . S
O297 C305 1.258 . S
O298 Co273 1.941 . S
O298 C305 1.266 . S
H299 C301 0.959 . S
H300 C301 0.961 . S
C301 C291 1.510 . S
C301 H299 0.959 . S
C301 H300 0.961 . S
C301 H302 0.960 . S
H302 C301 0.960 . S
H303 N283 0.862 . S
O304 Co272 1.920 . S
O304 C277 1.289 . S
C305 O297 1.258 . S
C305 O298 1.266 . S
Co306 O309 1.970 . S
Co306 N323 1.989 . S
Co306 O331 1.967 . S
Co306 O338 1.920 . S
Co307 O310 1.966 . S
Co307 N316 2.022 . S
Co307 N324 1.993 . S
Co307 O332 1.941 . S
C308 O309 1.258 . S
C308 O310 1.263 . S
O309 Co306 1.970 . S
O309 C308 1.258 . S
O310 Co307 1.966 . S
O310 C308 1.263 . S
C311 O312 1.235 . S
C311 O338 1.289 . S
O312 C311 1.235 . S
C313 C315 1.400 . S
C313 N316 1.351 . S
C313 C318 1.501 . S
C314 C315 1.387 . S
C314 N317 1.341 . S
C315 C313 1.400 . S
C315 C314 1.387 . S
N316 Co307 2.022 . S
N316 C313 1.351 . S
N316 N317 1.365 . S
N317 C314 1.341 . S
N317 N316 1.365 . S
N317 H337 0.862 . S
C318 C313 1.501 . S
C318 H319 0.961 . S
C318 H320 0.961 . S
C318 H321 0.960 . S
H319 C318 0.961 . S
H320 C318 0.961 . S
H321 C318 0.960 . S
C322 N323 1.342 . S
C322 C326 1.401 . S
C322 C327 1.499 . S
N323 Co306 1.989 . S
N323 C322 1.342 . S
N323 N324 1.388 . S
N324 Co307 1.993 . S
N324 N323 1.388 . S
N324 C325 1.346 . S
C325 N324 1.346 . S
C325 C326 1.396 . S
C325 C335 1.510 . S
C326 C322 1.401 . S
C326 C325 1.396 . S
C327 C322 1.499 . S
C327 H328 0.959 . S
C327 H329 0.960 . S
C327 H330 0.961 . S
H328 C327 0.959 . S
H329 C327 0.960 . S
H330 C327 0.961 . S
O331 Co306 1.967 . S
O331 C339 1.258 . S
O332 Co307 1.941 . S
O332 C339 1.266 . S
H333 C335 0.959 . S
H334 C335 0.961 . S
C335 C325 1.510 . S
C335 H333 0.959 . S
C335 H334 0.961 . S
C335 H336 0.960 . S
H336 C335 0.960 . S
H337 N317 0.862 . S
O338 Co306 1.920 . S
O338 C311 1.289 . S
C339 O331 1.258 . S
C339 O332 1.266 . S
Co340 O343 1.970 . S
Co340 N357 1.989 . S
Co340 O365 1.967 . S
Co340 O372 1.920 . S
Co341 O344 1.966 . S
Co341 N350 2.022 . S
Co341 N358 1.993 . S
Co341 O366 1.941 . S
C342 O343 1.258 . S
C342 O344 1.263 . S
O343 Co340 1.970 . S
O343 C342 1.258 . S
O344 Co341 1.966 . S
O344 C342 1.263 . S
C345 O346 1.235 . S
C345 O372 1.289 . S
O346 C345 1.235 . S
C347 C349 1.400 . S
C347 N350 1.351 . S
C347 C352 1.501 . S
C348 C349 1.387 . S
C348 N351 1.341 . S
C349 C347 1.400 . S
C349 C348 1.387 . S
N350 Co341 2.022 . S
N350 C347 1.351 . S
N350 N351 1.365 . S
N351 C348 1.341 . S
N351 N350 1.365 . S
N351 H371 0.862 . S
C352 C347 1.501 . S
C352 H353 0.961 . S
C352 H354 0.961 . S
C352 H355 0.960 . S
H353 C352 0.961 . S
H354 C352 0.961 . S
H355 C352 0.960 . S
C356 N357 1.342 . S
C356 C360 1.401 . S
C356 C361 1.499 . S
N357 Co340 1.989 . S
N357 C356 1.342 . S
N357 N358 1.388 . S
N358 Co341 1.993 . S
N358 N357 1.388 . S
N358 C359 1.346 . S
C359 N358 1.346 . S
C359 C360 1.396 . S
C359 C369 1.510 . S
C360 C356 1.401 . S
C360 C359 1.396 . S
C361 C356 1.499 . S
C361 H362 0.959 . S
C361 H363 0.960 . S
C361 H364 0.961 . S
H362 C361 0.959 . S
H363 C361 0.960 . S
H364 C361 0.961 . S
O365 Co340 1.967 . S
O365 C373 1.258 . S
O366 Co341 1.941 . S
O366 C373 1.266 . S
H367 C369 0.959 . S
H368 C369 0.961 . S
C369 C359 1.510 . S
C369 H367 0.959 . S
C369 H368 0.961 . S
C369 H370 0.960 . S
H370 C369 0.960 . S
H371 N351 0.862 . S
O372 Co340 1.920 . S
O372 C345 1.289 . S
C373 O365 1.258 . S
C373 O366 1.266 . S
Co374 O377 1.970 . S
Co374 N391 1.989 . S
Co374 O399 1.967 . S
Co374 O406 1.920 . S
Co375 O378 1.966 . S
Co375 N384 2.022 . S
Co375 N392 1.993 . S
Co375 O400 1.941 . S
C376 O377 1.258 . S
C376 O378 1.263 . S
O377 Co374 1.970 . S
O377 C376 1.258 . S
O378 Co375 1.966 . S
O378 C376 1.263 . S
C379 O380 1.235 . S
C379 O406 1.289 . S
O380 C379 1.235 . S
C381 C383 1.400 . S
C381 N384 1.351 . S
C381 C386 1.501 . S
C382 C383 1.387 . S
C382 N385 1.341 . S
C383 C381 1.400 . S
C383 C382 1.387 . S
N384 Co375 2.022 . S
N384 C381 1.351 . S
N384 N385 1.365 . S
N385 C382 1.341 . S
N385 N384 1.365 . S
N385 H405 0.862 . S
C386 C381 1.501 . S
C386 H387 0.961 . S
C386 H388 0.961 . S
C386 H389 0.960 . S
H387 C386 0.961 . S
H388 C386 0.961 . S
H389 C386 0.960 . S
C390 N391 1.342 . S
C390 C394 1.401 . S
C390 C395 1.499 . S
N391 Co374 1.989 . S
N391 C390 1.342 . S
N391 N392 1.388 . S
N392 Co375 1.993 . S
N392 N391 1.388 . S
N392 C393 1.346 . S
C393 N392 1.346 . S
C393 C394 1.396 . S
C393 C403 1.510 . S
C394 C390 1.401 . S
C394 C393 1.396 . S
C395 C390 1.499 . S
C395 H396 0.959 . S
C395 H397 0.960 . S
C395 H398 0.961 . S
H396 C395 0.959 . S
H397 C395 0.960 . S
H398 C395 0.961 . S
O399 Co374 1.967 . S
O399 C407 1.258 . S
O400 Co375 1.941 . S
O400 C407 1.266 . S
H401 C403 0.959 . S
H402 C403 0.961 . S
C403 C393 1.510 . S
C403 H401 0.959 . S
C403 H402 0.961 . S
C403 H404 0.960 . S
H404 C403 0.960 . S
H405 N385 0.862 . S
O406 Co374 1.920 . S
O406 C379 1.289 . S
C407 O399 1.258 . S
C407 O400 1.266 . S
Co408 O411 1.970 . S
Co408 N425 1.989 . S
Co408 O433 1.967 . S
Co408 O440 1.920 . S
Co409 O412 1.966 . S
Co409 N418 2.022 . S
Co409 N426 1.993 . S
Co409 O434 1.941 . S
C410 O411 1.258 . S
C410 O412 1.263 . S
O411 Co408 1.970 . S
O411 C410 1.258 . S
O412 Co409 1.966 . S
O412 C410 1.263 . S
C413 O414 1.235 . S
C413 O440 1.289 . S
O414 C413 1.235 . S
C415 C417 1.400 1_556 S
C415 N418 1.351 . S
C415 C420 1.501 . S
C416 C417 1.387 . S
C416 N419 1.341 1_554 S
C417 C415 1.400 1_554 S
C417 C416 1.387 . S
N418 Co409 2.022 . S
N418 C415 1.351 . S
N418 N419 1.365 . S
N419 C416 1.341 1_556 S
N419 N418 1.365 . S
N419 H439 0.862 . S
C420 C415 1.501 . S
C420 H421 0.961 . S
C420 H422 0.961 . S
C420 H423 0.960 1_556 S
H421 C420 0.961 . S
H422 C420 0.961 . S
H423 C420 0.960 1_554 S
C424 N425 1.342 . S
C424 C428 1.401 . S
C424 C429 1.499 . S
N425 Co408 1.989 . S
N425 C424 1.342 . S
N425 N426 1.388 . S
N426 Co409 1.993 . S
N426 N425 1.388 . S
N426 C427 1.346 . S
C427 N426 1.346 . S
C427 C428 1.396 . S
C427 C437 1.510 . S
C428 C424 1.401 . S
C428 C427 1.396 . S
C429 C424 1.499 . S
C429 H430 0.959 . S
C429 H431 0.960 . S
C429 H432 0.961 . S
H430 C429 0.959 . S
H431 C429 0.960 . S
H432 C429 0.961 . S
O433 Co408 1.967 . S
O433 C441 1.258 . S
O434 Co409 1.941 . S
O434 C441 1.266 . S
H435 C437 0.959 . S
H436 C437 0.961 . S
C437 C427 1.510 . S
C437 H435 0.959 . S
C437 H436 0.961 . S
C437 H438 0.960 . S
H438 C437 0.960 . S
H439 N419 0.862 . S
O440 Co408 1.920 . S
O440 C413 1.289 . S
C441 O433 1.258 . S
C441 O434 1.266 . S
Co442 O445 1.970 . S
Co442 N459 1.989 . S
Co442 O467 1.967 . S
Co442 O474 1.920 . S
Co443 O446 1.966 . S
Co443 N452 2.022 . S
Co443 N460 1.993 . S
Co443 O468 1.941 . S
C444 O445 1.258 . S
C444 O446 1.263 . S
O445 Co442 1.970 . S
O445 C444 1.258 . S
O446 Co443 1.966 . S
O446 C444 1.263 . S
C447 O448 1.235 . S
C447 O474 1.289 . S
O448 C447 1.235 . S
C449 C451 1.400 . S
C449 N452 1.351 . S
C449 C454 1.501 . S
C450 C451 1.387 . S
C450 N453 1.341 . S
C451 C449 1.400 . S
C451 C450 1.387 . S
N452 Co443 2.022 . S
N452 C449 1.351 . S
N452 N453 1.365 . S
N453 C450 1.341 . S
N453 N452 1.365 . S
N453 H473 0.862 . S
C454 C449 1.501 . S
C454 H455 0.961 . S
C454 H456 0.961 . S
C454 H457 0.960 . S
H455 C454 0.961 . S
H456 C454 0.961 . S
H457 C454 0.960 . S
C458 N459 1.342 . S
C458 C462 1.401 . S
C458 C463 1.499 . S
N459 Co442 1.989 . S
N459 C458 1.342 . S
N459 N460 1.388 . S
N460 Co443 1.993 . S
N460 N459 1.388 . S
N460 C461 1.346 . S
C461 N460 1.346 . S
C461 C462 1.396 . S
C461 C471 1.510 . S
C462 C458 1.401 . S
C462 C461 1.396 . S
C463 C458 1.499 . S
C463 H464 0.959 . S
C463 H465 0.960 . S
C463 H466 0.961 . S
H464 C463 0.959 . S
H465 C463 0.960 . S
H466 C463 0.961 . S
O467 Co442 1.967 . S
O467 C475 1.258 . S
O468 Co443 1.941 . S
O468 C475 1.266 . S
H469 C471 0.959 . S
H470 C471 0.961 . S
C471 C461 1.510 . S
C471 H469 0.959 . S
C471 H470 0.961 . S
C471 H472 0.960 . S
H472 C471 0.960 . S
H473 N453 0.862 . S
O474 Co442 1.920 . S
O474 C447 1.289 . S
C475 O467 1.258 . S
C475 O468 1.266 . S
Co476 O479 1.970 . S
Co476 N493 1.989 . S
Co476 O501 1.967 . S
Co476 O508 1.920 . S
Co477 O480 1.966 . S
Co477 N486 2.022 . S
Co477 N494 1.993 . S
Co477 O502 1.941 . S
C478 O479 1.258 . S
C478 O480 1.263 . S
O479 Co476 1.970 . S
O479 C478 1.258 . S
O480 Co477 1.966 . S
O480 C478 1.263 . S
C481 O482 1.235 . S
C481 O508 1.289 . S
O482 C481 1.235 . S
C483 C485 1.400 . S
C483 N486 1.351 . S
C483 C488 1.501 . S
C484 C485 1.387 . S
C484 N487 1.341 . S
C485 C483 1.400 . S
C485 C484 1.387 . S
N486 Co477 2.022 . S
N486 C483 1.351 . S
N486 N487 1.365 . S
N487 C484 1.341 . S
N487 N486 1.365 . S
N487 H507 0.862 . S
C488 C483 1.501 . S
C488 H489 0.961 . S
C488 H490 0.961 . S
C488 H491 0.960 . S
H489 C488 0.961 . S
H490 C488 0.961 . S
H491 C488 0.960 . S
C492 N493 1.342 . S
C492 C496 1.401 . S
C492 C497 1.499 . S
N493 Co476 1.989 . S
N493 C492 1.342 . S
N493 N494 1.388 . S
N494 Co477 1.993 . S
N494 N493 1.388 . S
N494 C495 1.346 . S
C495 N494 1.346 . S
C495 C496 1.396 . S
C495 C505 1.510 . S
C496 C492 1.401 . S
C496 C495 1.396 . S
C497 C492 1.499 . S
C497 H498 0.959 . S
C497 H499 0.960 . S
C497 H500 0.961 . S
H498 C497 0.959 . S
H499 C497 0.960 . S
H500 C497 0.961 . S
O501 Co476 1.967 . S
O501 C509 1.258 . S
O502 Co477 1.941 . S
O502 C509 1.266 . S
H503 C505 0.959 . S
H504 C505 0.961 . S
C505 C495 1.510 . S
C505 H503 0.959 . S
C505 H504 0.961 . S
C505 H506 0.960 . S
H506 C505 0.960 . S
H507 N487 0.862 . S
O508 Co476 1.920 . S
O508 C481 1.289 . S
C509 O501 1.258 . S
C509 O502 1.266 . S
Co510 O513 1.970 . S
Co510 N527 1.989 . S
Co510 O535 1.967 . S
Co510 O542 1.920 . S
Co511 O514 1.966 . S
Co511 N520 2.022 . S
Co511 N528 1.993 . S
Co511 O536 1.941 . S
C512 O513 1.258 . S
C512 O514 1.263 . S
O513 Co510 1.970 . S
O513 C512 1.258 . S
O514 Co511 1.966 . S
O514 C512 1.263 . S
C515 O516 1.235 . S
C515 O542 1.289 . S
O516 C515 1.235 . S
C517 C519 1.400 . S
C517 N520 1.351 . S
C517 C522 1.501 . S
C518 C519 1.387 . S
C518 N521 1.341 . S
C519 C517 1.400 . S
C519 C518 1.387 . S
N520 Co511 2.022 . S
N520 C517 1.351 . S
N520 N521 1.365 . S
N521 C518 1.341 . S
N521 N520 1.365 . S
N521 H541 0.862 . S
C522 C517 1.501 . S
C522 H523 0.961 . S
C522 H524 0.961 . S
C522 H525 0.960 . S
H523 C522 0.961 . S
H524 C522 0.961 . S
H525 C522 0.960 . S
C526 N527 1.342 . S
C526 C530 1.401 . S
C526 C531 1.499 . S
N527 Co510 1.989 . S
N527 C526 1.342 . S
N527 N528 1.388 . S
N528 Co511 1.993 . S
N528 N527 1.388 . S
N528 C529 1.346 . S
C529 N528 1.346 . S
C529 C530 1.396 . S
C529 C539 1.510 . S
C530 C526 1.401 . S
C530 C529 1.396 . S
C531 C526 1.499 . S
C531 H532 0.959 . S
C531 H533 0.960 . S
C531 H534 0.961 . S
H532 C531 0.959 . S
H533 C531 0.960 . S
H534 C531 0.961 . S
O535 Co510 1.967 . S
O535 C543 1.258 . S
O536 Co511 1.941 . S
O536 C543 1.266 . S
H537 C539 0.959 . S
H538 C539 0.961 . S
C539 C529 1.510 . S
C539 H537 0.959 . S
C539 H538 0.961 . S
C539 H540 0.960 . S
H540 C539 0.960 . S
H541 N521 0.862 . S
O542 Co510 1.920 . S
O542 C515 1.289 . S
C543 O535 1.258 . S
C543 O536 1.266 . S
Co544 O547 1.970 . S
Co544 N561 1.989 . S
Co544 O569 1.967 . S
Co544 O576 1.920 . S
Co545 O548 1.966 . S
Co545 N554 2.022 . S
Co545 N562 1.993 . S
Co545 O570 1.941 . S
C546 O547 1.258 . S
C546 O548 1.263 . S
O547 Co544 1.970 . S
O547 C546 1.258 . S
O548 Co545 1.966 . S
O548 C546 1.263 . S
C549 O550 1.235 . S
C549 O576 1.289 . S
O550 C549 1.235 . S
C551 C553 1.400 . S
C551 N554 1.351 . S
C551 C556 1.501 . S
C552 C553 1.387 . S
C552 N555 1.341 . S
C553 C551 1.400 . S
C553 C552 1.387 . S
N554 Co545 2.022 . S
N554 C551 1.351 . S
N554 N555 1.365 . S
N555 C552 1.341 . S
N555 N554 1.365 . S
N555 H575 0.862 . S
C556 C551 1.501 . S
C556 H557 0.961 . S
C556 H558 0.961 . S
C556 H559 0.960 . S
H557 C556 0.961 . S
H558 C556 0.961 . S
H559 C556 0.960 . S
C560 N561 1.342 . S
C560 C564 1.401 . S
C560 C565 1.499 . S
N561 Co544 1.989 . S
N561 C560 1.342 . S
N561 N562 1.388 . S
N562 Co545 1.993 . S
N562 N561 1.388 . S
N562 C563 1.346 . S
C563 N562 1.346 . S
C563 C564 1.396 . S
C563 C573 1.510 . S
C564 C560 1.401 . S
C564 C563 1.396 . S
C565 C560 1.499 . S
C565 H566 0.959 . S
C565 H567 0.960 . S
C565 H568 0.961 . S
H566 C565 0.959 . S
H567 C565 0.960 . S
H568 C565 0.961 . S
O569 Co544 1.967 . S
O569 C577 1.258 . S
O570 Co545 1.941 . S
O570 C577 1.266 . S
H571 C573 0.959 . S
H572 C573 0.961 . S
C573 C563 1.510 . S
C573 H571 0.959 . S
C573 H572 0.961 . S
C573 H574 0.960 . S
H574 C573 0.960 . S
H575 N555 0.862 . S
O576 Co544 1.920 . S
O576 C549 1.289 . S
C577 O569 1.258 . S
C577 O570 1.266 . S
Co578 O581 1.970 . S
Co578 N595 1.989 . S
Co578 O603 1.967 . S
Co578 O610 1.920 . S
Co579 O582 1.966 . S
Co579 N588 2.022 . S
Co579 N596 1.993 . S
Co579 O604 1.941 . S
C580 O581 1.258 . S
C580 O582 1.263 . S
O581 Co578 1.970 . S
O581 C580 1.258 . S
O582 Co579 1.966 . S
O582 C580 1.263 . S
C583 O584 1.235 . S
C583 O610 1.289 . S
O584 C583 1.235 . S
C585 C587 1.400 1_556 S
C585 N588 1.351 . S
C585 C590 1.501 . S
C586 C587 1.387 1_556 S
C586 N589 1.341 . S
C587 C585 1.400 1_554 S
C587 C586 1.387 1_554 S
N588 Co579 2.022 . S
N588 C585 1.351 . S
N588 N589 1.365 . S
N589 C586 1.341 . S
N589 N588 1.365 . S
N589 H609 0.862 . S
C590 C585 1.501 . S
C590 H591 0.961 . S
C590 H592 0.961 . S
C590 H593 0.960 . S
H591 C590 0.961 . S
H592 C590 0.961 . S
H593 C590 0.960 . S
C594 N595 1.342 . S
C594 C598 1.401 . S
C594 C599 1.499 . S
N595 Co578 1.989 . S
N595 C594 1.342 . S
N595 N596 1.388 . S
N596 Co579 1.993 . S
N596 N595 1.388 . S
N596 C597 1.346 . S
C597 N596 1.346 . S
C597 C598 1.396 . S
C597 C607 1.510 . S
C598 C594 1.401 . S
C598 C597 1.396 . S
C599 C594 1.499 . S
C599 H600 0.959 . S
C599 H601 0.960 . S
C599 H602 0.961 . S
H600 C599 0.959 . S
H601 C599 0.960 . S
H602 C599 0.961 . S
O603 Co578 1.967 . S
O603 C611 1.258 . S
O604 Co579 1.941 . S
O604 C611 1.266 . S
H605 C607 0.959 . S
H606 C607 0.961 . S
C607 C597 1.510 . S
C607 H605 0.959 . S
C607 H606 0.961 . S
C607 H608 0.960 . S
H608 C607 0.960 . S
H609 N589 0.862 . S
O610 Co578 1.920 . S
O610 C583 1.289 . S
C611 O603 1.258 . S
C611 O604 1.266 . S
H612 C630 0.951 . S
H613 C632 0.951 . S
H614 C634 0.950 . S
H615 C635 0.950 . S
H616 C637 0.950 . S
H617 C640 0.950 . S
H618 C641 0.950 . S
H619 C643 0.950 . S
H620 C644 0.950 . S
H621 C645 0.951 . S
H622 C647 0.951 . S
H623 C649 0.950 . S
H624 C650 0.950 . S
H625 C652 0.950 . S
H626 C655 0.950 . S
H627 C656 0.950 . S
H628 C658 0.950 . S
H629 C659 0.950 . S
C630 H612 0.951 . S
C630 C631 1.366 . S
C630 C632 1.388 . S
C631 C630 1.366 . S
C631 C635 1.385 . S
C632 H613 0.951 . S
C632 C630 1.388 . S
C632 C633 1.366 . S
C633 C632 1.366 . S
C633 C634 1.414 . S
C633 C636 1.499 . S
C634 H614 0.950 . S
C634 C633 1.414 . S
C634 C635 1.374 . S
C635 H615 0.950 . S
C635 C631 1.385 . S
C635 C634 1.374 . S
C636 C633 1.499 . S
C636 C637 1.373 . S
C636 C638 1.389 . S
C637 H616 0.950 . S
C637 C636 1.373 . S
C637 C653 1.377 . S
C638 C636 1.389 . S
C638 C639 1.524 . S
C638 C652 1.377 . S
C639 C638 1.524 . S
C639 C640 1.397 . S
C639 C644 1.363 . S
C640 H617 0.950 . S
C640 C639 1.397 . S
C640 C641 1.334 . S
C641 H618 0.950 . S
C641 C640 1.334 . S
C641 C642 1.287 . S
C642 C641 1.287 . S
C642 C643 1.524 . S
C642 H661 0.913 . S
C643 H619 0.950 . S
C643 C642 1.524 . S
C643 C644 1.415 . S
C644 H620 0.950 . S
C644 C639 1.363 . S
C644 C643 1.415 . S
C645 H621 0.951 . S
C645 C646 1.366 . S
C645 C647 1.388 . S
C646 C645 1.366 . S
C646 C650 1.385 . S
C647 H622 0.951 . S
C647 C645 1.388 . S
C647 C648 1.366 . S
C648 C647 1.366 . S
C648 C649 1.414 . S
C648 C651 1.499 . S
C649 H623 0.950 . S
C649 C648 1.414 . S
C649 C650 1.374 . S
C650 H624 0.950 . S
C650 C646 1.385 . S
C650 C649 1.374 . S
C651 C648 1.499 . S
C651 C652 1.373 . S
C651 C653 1.389 . S
C652 H625 0.950 . S
C652 C638 1.377 . S
C652 C651 1.373 . S
C653 C637 1.377 . S
C653 C651 1.389 . S
C653 C654 1.524 . S
C654 C653 1.524 . S
C654 C655 1.397 . S
C654 C659 1.363 . S
C655 H626 0.950 . S
C655 C654 1.397 . S
C655 C656 1.334 . S
C656 H627 0.950 . S
C656 C655 1.334 . S
C656 C657 1.287 . S
C657 C656 1.287 . S
C657 C658 1.524 . S
C657 H660 0.999 . S
C658 H628 0.950 . S
C658 C657 1.524 . S
C658 C659 1.415 . S
C659 H629 0.950 . S
C659 C654 1.363 . S
C659 C658 1.415 . S
H660 C657 0.999 . S
H661 C642 0.913 . S
H662 C680 0.951 . S
H663 C682 0.951 . S
H664 C684 0.950 . S
H665 C685 0.950 . S
H666 C687 0.950 . S
H667 C690 0.950 . S
H668 C691 0.950 . S
H669 C693 0.950 . S
H670 C694 0.950 . S
H671 C695 0.951 . S
H672 C697 0.951 . S
H673 C699 0.950 . S
H674 C700 0.950 . S
H675 C702 0.950 . S
H676 C705 0.950 . S
H677 C706 0.950 . S
H678 C708 0.950 . S
H679 C709 0.950 . S
C680 H662 0.951 . S
C680 C681 1.366 . S
C680 C682 1.388 . S
C681 C680 1.366 . S
C681 C685 1.385 . S
C682 H663 0.951 . S
C682 C680 1.388 . S
C682 C683 1.366 . S
C683 C682 1.366 . S
C683 C684 1.414 . S
C683 C686 1.499 . S
C684 H664 0.950 . S
C684 C683 1.414 . S
C684 C685 1.374 . S
C685 H665 0.950 . S
C685 C681 1.385 . S
C685 C684 1.374 . S
C686 C683 1.499 . S
C686 C687 1.373 . S
C686 C688 1.389 . S
C687 H666 0.950 . S
C687 C686 1.373 . S
C687 C703 1.377 . S
C688 C686 1.389 . S
C688 C689 1.524 . S
C688 C702 1.377 . S
C689 C688 1.524 . S
C689 C690 1.397 . S
C689 C694 1.363 . S
C690 H667 0.950 . S
C690 C689 1.397 . S
C690 C691 1.334 . S
C691 H668 0.950 . S
C691 C690 1.334 . S
C691 C692 1.287 . S
C692 C691 1.287 . S
C692 C693 1.524 . S
C692 H711 0.913 . S
C693 H669 0.950 . S
C693 C692 1.524 . S
C693 C694 1.415 . S
C694 H670 0.950 . S
C694 C689 1.363 . S
C694 C693 1.415 . S
C695 H671 0.951 . S
C695 C696 1.366 . S
C695 C697 1.388 . S
C696 C695 1.366 . S
C696 C700 1.385 . S
C697 H672 0.951 . S
C697 C695 1.388 . S
C697 C698 1.366 . S
C698 C697 1.366 . S
C698 C699 1.414 . S
C698 C701 1.499 . S
C699 H673 0.950 . S
C699 C698 1.414 . S
C699 C700 1.374 . S
C700 H674 0.950 . S
C700 C696 1.385 . S
C700 C699 1.374 . S
C701 C698 1.499 . S
C701 C702 1.373 . S
C701 C703 1.389 . S
C702 H675 0.950 . S
C702 C688 1.377 . S
C702 C701 1.373 . S
C703 C687 1.377 . S
C703 C701 1.389 . S
C703 C704 1.524 . S
C704 C703 1.524 . S
C704 C705 1.397 . S
C704 C709 1.363 . S
C705 H676 0.950 . S
C705 C704 1.397 . S
C705 C706 1.334 . S
C706 H677 0.950 . S
C706 C705 1.334 . S
C706 C707 1.287 . S
C707 C706 1.287 . S
C707 C708 1.524 . S
C707 H710 0.999 . S
C708 H678 0.950 . S
C708 C707 1.524 . S
C708 C709 1.415 . S
C709 H679 0.950 . S
C709 C704 1.363 . S
C709 C708 1.415 . S
H710 C707 0.999 . S
H711 C692 0.913 . S
H712 C730 0.951 . S
H713 C732 0.951 . S
H714 C734 0.950 . S
H715 C735 0.950 . S
H716 C737 0.950 . S
H717 C740 0.950 . S
H718 C741 0.950 . S
H719 C743 1.003 . S
H720 C744 0.950 . S
H721 C745 0.951 . S
H722 C747 0.951 . S
H723 C749 0.950 . S
H724 C750 0.950 . S
H725 C752 0.950 . S
H726 C755 0.950 . S
H727 C756 0.950 . S
H728 C758 0.950 . S
H729 C759 0.950 . S
C730 H712 0.951 . S
C730 C731 1.366 . S
C730 C732 1.388 . S
C731 C730 1.366 . S
C731 C735 1.385 . S
C732 H713 0.951 . S
C732 C730 1.388 . S
C732 C733 1.366 . S
C733 C732 1.366 . S
C733 C734 1.414 . S
C733 C736 1.499 . S
C734 H714 0.950 . S
C734 C733 1.414 . S
C734 C735 1.374 . S
C735 H715 0.950 . S
C735 C731 1.385 . S
C735 C734 1.374 . S
C736 C733 1.499 . S
C736 C737 1.373 . S
C736 C738 1.389 . S
C737 H716 0.950 . S
C737 C736 1.373 . S
C737 C753 1.377 . S
C738 C736 1.389 . S
C738 C739 1.524 . S
C738 C752 1.377 . S
C739 C738 1.524 . S
C739 C740 1.397 . S
C739 C744 1.363 . S
C740 H717 0.950 . S
C740 C739 1.397 . S
C740 C741 1.334 . S
C741 H718 0.950 . S
C741 C740 1.334 . S
C741 C742 1.287 . S
C742 C741 1.287 . S
C742 C743 1.524 . S
C742 H761 0.913 . S
C743 H719 1.003 . S
C743 C742 1.524 . S
C743 C744 1.415 . S
C744 H720 0.950 . S
C744 C739 1.363 . S
C744 C743 1.415 . S
C745 H721 0.951 . S
C745 C746 1.366 . S
C745 C747 1.388 . S
C746 C745 1.366 . S
C746 C750 1.385 . S
C747 H722 0.951 . S
C747 C745 1.388 . S
C747 C748 1.366 . S
C748 C747 1.366 . S
C748 C749 1.414 . S
C748 C751 1.499 . S
C749 H723 0.950 . S
C749 C748 1.414 . S
C749 C750 1.374 . S
C750 H724 0.950 . S
C750 C746 1.385 . S
C750 C749 1.374 . S
C751 C748 1.499 . S
C751 C752 1.373 . S
C751 C753 1.389 . S
C752 H725 0.950 . S
C752 C738 1.377 . S
C752 C751 1.373 . S
C753 C737 1.377 . S
C753 C751 1.389 . S
C753 C754 1.524 . S
C754 C753 1.524 . S
C754 C755 1.397 . S
C754 C759 1.363 . S
C755 H726 0.950 . S
C755 C754 1.397 . S
C755 C756 1.334 . S
C756 H727 0.950 . S
C756 C755 1.334 . S
C756 C757 1.287 . S
C757 C756 1.287 . S
C757 C758 1.524 . S
C757 H760 0.999 . S
C758 H728 0.950 . S
C758 C757 1.524 . S
C758 C759 1.415 . S
C759 H729 0.950 . S
C759 C754 1.363 . S
C759 C758 1.415 . S
H760 C757 0.999 . S
H761 C742 0.913 . S
H762 C780 0.951 . S
H763 C782 0.951 . S
H764 C784 0.950 . S
H765 C785 0.950 . S
H766 C787 0.950 . S
H767 C790 0.950 . S
H768 C791 0.950 . S
H769 C793 0.950 . S
H770 C794 0.950 . S
H771 C795 0.951 . S
H772 C797 0.951 . S
H773 C799 1.024 1_655 S
H774 C800 0.950 . S
H775 C802 0.950 . S
H776 C805 0.950 . S
H777 C806 0.950 . S
H778 C808 0.950 . S
H779 C809 0.950 1_455 S
C780 H762 0.951 . S
C780 C781 1.366 . S
C780 C782 1.388 . S
C781 C780 1.366 . S
C781 C785 1.385 . S
C782 H763 0.951 . S
C782 C780 1.388 . S
C782 C783 1.366 . S
C783 C782 1.366 . S
C783 C784 1.414 . S
C783 C786 1.499 . S
C784 H764 0.950 . S
C784 C783 1.414 . S
C784 C785 1.374 . S
C785 H765 0.950 . S
C785 C781 1.385 . S
C785 C784 1.374 . S
C786 C783 1.499 . S
C786 C787 1.373 . S
C786 C788 1.389 . S
C787 H766 0.950 . S
C787 C786 1.373 . S
C787 C803 1.377 . S
C788 C786 1.389 . S
C788 C789 1.524 . S
C788 C802 1.377 . S
C789 C788 1.524 . S
C789 C790 1.397 . S
C789 C794 1.363 . S
C790 H767 0.950 . S
C790 C789 1.397 . S
C790 C791 1.334 . S
C791 H768 0.950 . S
C791 C790 1.334 . S
C791 C792 1.287 . S
C792 C791 1.287 . S
C792 C793 1.524 . S
C792 H811 0.913 . S
C793 H769 0.950 . S
C793 C792 1.524 . S
C793 C794 1.415 . S
C794 H770 0.950 . S
C794 C789 1.363 . S
C794 C793 1.415 . S
C795 H771 0.951 . S
C795 C796 1.347 . S
C795 C797 1.388 . S
C796 C795 1.347 . S
C796 C800 1.416 1_455 S
C797 H772 0.951 . S
C797 C795 1.388 . S
C797 C798 1.366 . S
C798 C797 1.366 . S
C798 C799 1.397 . S
C798 C801 1.499 . S
C799 H773 1.024 1_455 S
C799 C798 1.397 . S
C799 C800 1.369 1_455 S
C800 H774 0.950 . S
C800 C796 1.416 1_655 S
C800 C799 1.369 1_655 S
C801 C798 1.499 . S
C801 C802 1.373 . S
C801 C803 1.389 . S
C802 H775 0.950 . S
C802 C788 1.377 . S
C802 C801 1.373 . S
C803 C787 1.377 . S
C803 C801 1.389 . S
C803 C804 1.524 1_455 S
C804 C803 1.524 1_655 S
C804 C805 1.397 . S
C804 C809 1.363 . S
C805 H776 0.950 . S
C805 C804 1.397 . S
C805 C806 1.334 . S
C806 H777 0.950 . S
C806 C805 1.334 . S
C806 C807 1.287 . S
C807 C806 1.287 . S
C807 C808 1.524 . S
C807 H810 0.999 . S
C808 H778 0.950 . S
C808 C807 1.524 . S
C808 C809 1.415 . S
C809 H779 0.950 1_655 S
C809 C804 1.363 . S
C809 C808 1.415 . S
H810 C807 0.999 . S
H811 C792 0.913 . S
H812 C830 0.951 . S
H813 C832 0.951 . S
H814 C834 0.950 . S
H815 C835 0.950 . S
H816 C837 0.950 . S
H817 C840 0.950 . S
H818 C841 0.950 . S
H819 C843 0.950 . S
H820 C844 0.950 . S
H821 C845 0.951 . S
H822 C847 0.951 . S
H823 C849 0.950 . S
H824 C850 0.950 . S
H825 C852 0.950 . S
H826 C855 0.950 . S
H827 C856 0.950 . S
H828 C858 0.950 . S
H829 C859 0.950 . S
C830 H812 0.951 . S
C830 C831 1.366 . S
C830 C832 1.388 . S
C831 C830 1.366 . S
C831 C835 1.385 . S
C832 H813 0.951 . S
C832 C830 1.388 . S
C832 C833 1.366 . S
C833 C832 1.366 . S
C833 C834 1.414 . S
C833 C836 1.499 . S
C834 H814 0.950 . S
C834 C833 1.414 . S
C834 C835 1.374 . S
C835 H815 0.950 . S
C835 C831 1.385 . S
C835 C834 1.374 . S
C836 C833 1.499 . S
C836 C837 1.373 . S
C836 C838 1.389 . S
C837 H816 0.950 . S
C837 C836 1.373 . S
C837 C853 1.377 . S
C838 C836 1.389 . S
C838 C839 1.524 . S
C838 C852 1.377 . S
C839 C838 1.524 . S
C839 C840 1.397 . S
C839 C844 1.363 . S
C840 H817 0.950 . S
C840 C839 1.397 . S
C840 C841 1.334 . S
C841 H818 0.950 . S
C841 C840 1.334 . S
C841 C842 1.287 . S
C842 C841 1.287 . S
C842 C843 1.524 . S
C842 H861 0.913 . S
C843 H819 0.950 . S
C843 C842 1.524 . S
C843 C844 1.415 . S
C844 H820 0.950 . S
C844 C839 1.363 . S
C844 C843 1.415 . S
C845 H821 0.951 . S
C845 C846 1.366 . S
C845 C847 1.388 . S
C846 C845 1.366 . S
C846 C850 1.385 . S
C847 H822 0.951 . S
C847 C845 1.388 . S
C847 C848 1.366 . S
C848 C847 1.366 . S
C848 C849 1.414 . S
C848 C851 1.499 . S
C849 H823 0.950 . S
C849 C848 1.414 . S
C849 C850 1.374 . S
C850 H824 0.950 . S
C850 C846 1.385 . S
C850 C849 1.374 . S
C851 C848 1.499 . S
C851 C852 1.373 . S
C851 C853 1.389 . S
C852 H825 0.950 . S
C852 C838 1.377 . S
C852 C851 1.373 . S
C853 C837 1.377 . S
C853 C851 1.389 . S
C853 C854 1.524 . S
C854 C853 1.524 . S
C854 C855 1.397 . S
C854 C859 1.363 . S
C855 H826 0.950 . S
C855 C854 1.397 . S
C855 C856 1.334 . S
C856 H827 0.950 . S
C856 C855 1.334 . S
C856 C857 1.287 . S
C857 C856 1.287 . S
C857 C858 1.524 . S
C857 H860 0.999 . S
C858 H828 0.950 . S
C858 C857 1.524 . S
C858 C859 1.415 . S
C859 H829 0.950 . S
C859 C854 1.363 . S
C859 C858 1.415 . S
H860 C857 0.999 . S
H861 C842 0.913 . S
H862 C880 0.951 1_545 S
H863 C882 0.929 1_545 S
H864 C884 0.950 . S
H865 C885 0.950 . S
H866 C887 0.950 . S
H867 C890 0.950 . S
H868 C891 0.950 . S
H869 C893 0.950 . S
H870 C894 0.950 . S
H871 C895 0.951 . S
H872 C897 0.951 . S
H873 C899 0.950 . S
H874 C900 0.950 . S
H875 C902 0.950 . S
H876 C905 0.869 1_545 S
H877 C906 0.950 1_545 S
H878 C908 0.950 . S
H879 C909 0.950 . S
C880 H862 0.951 1_565 S
C880 C881 1.366 . S
C880 C882 1.392 . S
C881 C880 1.366 . S
C881 C885 1.385 . S
C882 H863 0.929 1_565 S
C882 C880 1.392 . S
C882 C883 1.383 . S
C883 C882 1.383 . S
C883 C884 1.414 . S
C883 C886 1.499 . S
C884 H864 0.950 . S
C884 C883 1.414 . S
C884 C885 1.374 . S
C885 H865 0.950 . S
C885 C881 1.385 . S
C885 C884 1.374 . S
C886 C883 1.499 . S
C886 C887 1.373 . S
C886 C888 1.422 . S
C887 H866 0.950 . S
C887 C886 1.373 . S
C887 C903 1.377 . S
C888 C886 1.422 . S
C888 C889 1.498 1_565 S
C888 C902 1.371 1_565 S
C889 C888 1.498 1_545 S
C889 C890 1.397 1_545 S
C889 C894 1.363 . S
C890 H867 0.950 . S
C890 C889 1.397 1_565 S
C890 C891 1.334 . S
C891 H868 0.950 . S
C891 C890 1.334 . S
C891 C892 1.287 1_565 S
C892 C891 1.287 1_545 S
C892 C893 1.524 . S
C892 H911 0.913 . S
C893 H869 0.950 . S
C893 C892 1.524 . S
C893 C894 1.415 . S
C894 H870 0.950 . S
C894 C889 1.363 . S
C894 C893 1.415 . S
C895 H871 0.951 . S
C895 C896 1.366 1_565 S
C895 C897 1.388 . S
C896 C895 1.366 1_545 S
C896 C900 1.385 . S
C897 H872 0.951 . S
C897 C895 1.388 . S
C897 C898 1.366 1_565 S
C898 C897 1.366 1_545 S
C898 C899 1.414 . S
C898 C901 1.491 1_545 S
C899 H873 0.950 . S
C899 C898 1.414 . S
C899 C900 1.374 . S
C900 H874 0.950 . S
C900 C896 1.385 . S
C900 C899 1.374 . S
C901 C898 1.491 1_565 S
C901 C902 1.329 1_565 S
C901 C903 1.446 . S
C902 H875 0.950 . S
C902 C888 1.371 1_545 S
C902 C901 1.329 1_545 S
C903 C887 1.377 . S
C903 C901 1.446 . S
C903 C904 1.524 . S
C904 C903 1.524 . S
C904 C905 1.423 . S
C904 C909 1.363 . S
C905 H876 0.869 1_565 S
C905 C904 1.423 . S
C905 C906 1.391 . S
C906 H877 0.950 1_565 S
C906 C905 1.391 . S
C906 C907 1.287 . S
C907 C906 1.287 . S
C907 C908 1.524 . S
C907 H910 0.999 . S
C908 H878 0.950 . S
C908 C907 1.524 . S
C908 C909 1.415 . S
C909 H879 0.950 . S
C909 C904 1.363 . S
C909 C908 1.415 . S
H910 C907 0.999 . S
H911 C892 0.913 . S
H912 C930 0.951 . S
H913 C932 0.951 . S
H914 C934 0.950 . S
H915 C935 0.950 . S
H916 C937 0.950 . S
H917 C940 0.950 . S
H918 C941 0.950 . S
H919 C943 0.950 . S
H920 C944 0.950 . S
H921 C945 0.951 . S
H922 C947 0.951 . S
H923 C949 0.950 . S
H924 C950 0.950 . S
H925 C952 0.950 . S
H926 C955 0.950 . S
H927 C956 0.950 . S
H928 C958 0.950 . S
H929 C959 0.950 . S
C930 H912 0.951 . S
C930 C931 1.366 . S
C930 C932 1.388 . S
C931 C930 1.366 . S
C931 C935 1.385 . S
C932 H913 0.951 . S
C932 C930 1.388 . S
C932 C933 1.366 . S
C933 C932 1.366 . S
C933 C934 1.414 . S
C933 C936 1.499 . S
C934 H914 0.950 . S
C934 C933 1.414 . S
C934 C935 1.374 . S
C935 H915 0.950 . S
C935 C931 1.385 . S
C935 C934 1.374 . S
C936 C933 1.499 . S
C936 C937 1.373 . S
C936 C938 1.389 . S
C937 H916 0.950 . S
C937 C936 1.373 . S
C937 C953 1.377 1_556 S
C938 C936 1.389 . S
C938 C939 1.524 . S
C938 C952 1.377 1_556 S
C939 C938 1.524 . S
C939 C940 1.397 . S
C939 C944 1.363 . S
C940 H917 0.950 . S
C940 C939 1.397 . S
C940 C941 1.334 . S
C941 H918 0.950 . S
C941 C940 1.334 . S
C941 C942 1.287 . S
C942 C941 1.287 . S
C942 C943 1.524 . S
C942 H961 0.913 . S
C943 H919 0.950 . S
C943 C942 1.524 . S
C943 C944 1.415 . S
C944 H920 0.950 . S
C944 C939 1.363 . S
C944 C943 1.415 . S
C945 H921 0.951 . S
C945 C946 1.366 . S
C945 C947 1.388 . S
C946 C945 1.366 . S
C946 C950 1.385 . S
C947 H922 0.951 . S
C947 C945 1.388 . S
C947 C948 1.366 . S
C948 C947 1.366 . S
C948 C949 1.414 . S
C948 C951 1.499 . S
C949 H923 0.950 . S
C949 C948 1.414 . S
C949 C950 1.374 . S
C950 H924 0.950 . S
C950 C946 1.385 . S
C950 C949 1.374 . S
C951 C948 1.499 . S
C951 C952 1.373 . S
C951 C953 1.389 . S
C952 H925 0.950 . S
C952 C938 1.377 1_554 S
C952 C951 1.373 . S
C953 C937 1.377 1_554 S
C953 C951 1.389 . S
C953 C954 1.524 . S
C954 C953 1.524 . S
C954 C955 1.397 . S
C954 C959 1.363 . S
C955 H926 0.950 . S
C955 C954 1.397 . S
C955 C956 1.334 . S
C956 H927 0.950 . S
C956 C955 1.334 . S
C956 C957 1.287 . S
C957 C956 1.287 . S
C957 C958 1.524 . S
C957 H960 0.999 . S
C958 H928 0.950 . S
C958 C957 1.524 . S
C958 C959 1.415 . S
C959 H929 0.950 . S
C959 C954 1.363 . S
C959 C958 1.415 . S
H960 C957 0.999 . S
H961 C942 0.913 . S
H962 C980 0.951 . S
H963 C982 0.951 . S
H964 C984 0.950 . S
H965 C985 0.950 . S
H966 C987 0.950 . S
H967 C990 0.950 . S
H968 C991 0.950 . S
H969 C993 0.950 . S
H970 C994 0.950 1_554 S
H971 C995 0.951 . S
H972 C997 0.951 . S
H973 C999 0.950 . S
H974 C1000 0.950 . S
H975 C1002 0.950 . S
H976 C1005 0.950 1_565 S
H977 C1006 0.950 . S
H978 C1008 0.950 . S
H979 C1009 0.950 1_556 S
C980 H962 0.951 . S
C980 C981 1.366 . S
C980 C982 1.388 . S
C981 C980 1.366 . S
C981 C985 1.385 . S
C982 H963 0.951 . S
C982 C980 1.388 . S
C982 C983 1.366 . S
C983 C982 1.366 . S
C983 C984 1.414 . S
C983 C986 1.499 . S
C984 H964 0.950 . S
C984 C983 1.414 . S
C984 C985 1.374 . S
C985 H965 0.950 . S
C985 C981 1.385 . S
C985 C984 1.374 . S
C986 C983 1.499 . S
C986 C987 1.373 . S
C986 C988 1.389 . S
C987 H966 0.950 . S
C987 C986 1.373 . S
C987 C1003 1.377 1_556 S
C988 C986 1.389 . S
C988 C989 1.524 . S
C988 C1002 1.377 1_556 S
C989 C988 1.524 . S
C989 C990 1.397 . S
C989 C994 1.363 . S
C990 H967 0.950 . S
C990 C989 1.397 . S
C990 C991 1.334 . S
C991 H968 0.950 . S
C991 C990 1.334 . S
C991 C992 1.287 . S
C992 C991 1.287 . S
C992 C993 1.524 . S
C992 H1011 0.913 . S
C993 H969 0.950 . S
C993 C992 1.524 . S
C993 C994 1.415 . S
C994 H970 0.950 1_556 S
C994 C989 1.363 . S
C994 C993 1.415 . S
C995 H971 0.951 . S
C995 C996 1.366 . S
C995 C997 1.388 . S
C996 C995 1.366 . S
C996 C1000 1.385 . S
C997 H972 0.951 . S
C997 C995 1.388 . S
C997 C998 1.366 . S
C998 C997 1.366 . S
C998 C999 1.414 . S
C998 C1001 1.499 . S
C999 H973 0.950 . S
C999 C998 1.414 . S
C999 C1000 1.374 . S
C1000 H974 0.950 . S
C1000 C996 1.385 . S
C1000 C999 1.374 . S
C1001 C998 1.499 . S
C1001 C1002 1.373 . S
C1001 C1003 1.389 . S
C1002 H975 0.950 . S
C1002 C988 1.377 1_554 S
C1002 C1001 1.373 . S
C1003 C987 1.377 1_554 S
C1003 C1001 1.389 . S
C1003 C1004 1.524 . S
C1004 C1003 1.524 . S
C1004 C1005 1.397 1_565 S
C1004 C1009 1.363 1_565 S
C1005 H976 0.950 1_545 S
C1005 C1004 1.397 1_545 S
C1005 C1006 1.334 . S
C1006 H977 0.950 . S
C1006 C1005 1.334 . S
C1006 C1007 1.287 . S
C1007 C1006 1.287 . S
C1007 C1008 1.524 . S
C1007 H1010 0.999 . S
C1008 H978 0.950 . S
C1008 C1007 1.524 . S
C1008 C1009 1.415 . S
C1009 H979 0.950 1_554 S
C1009 C1004 1.363 1_545 S
C1009 C1008 1.415 . S
H1010 C1007 0.999 . S
H1011 C992 0.913 . S
H1012 C1030 0.951 . S
H1013 C1032 0.951 . S
H1014 C1034 0.950 . S
H1015 C1035 0.950 . S
H1016 C1037 0.950 . S
H1017 C1040 0.950 . S
H1018 C1041 0.950 . S
H1019 C1043 0.950 . S
H1020 C1044 0.950 . S
H1021 C1045 0.951 . S
H1022 C1047 0.951 . S
H1023 C1049 0.950 . S
H1024 C1050 0.950 . S
H1025 C1052 0.950 1_554 S
H1026 C1055 0.950 . S
H1027 C1056 0.950 . S
H1028 C1058 0.950 . S
H1029 C1059 0.950 . S
C1030 H1012 0.951 . S
C1030 C1031 1.366 . S
C1030 C1032 1.388 . S
C1031 C1030 1.366 . S
C1031 C1035 1.385 . S
C1032 H1013 0.951 . S
C1032 C1030 1.388 . S
C1032 C1033 1.366 . S
C1033 C1032 1.366 . S
C1033 C1034 1.414 . S
C1033 C1036 1.499 . S
C1034 H1014 0.950 . S
C1034 C1033 1.414 . S
C1034 C1035 1.374 . S
C1035 H1015 0.950 . S
C1035 C1031 1.385 . S
C1035 C1034 1.374 . S
C1036 C1033 1.499 . S
C1036 C1037 1.373 . S
C1036 C1038 1.389 . S
C1037 H1016 0.950 . S
C1037 C1036 1.373 . S
C1037 C1053 1.377 1_556 S
C1038 C1036 1.389 . S
C1038 C1039 1.524 . S
C1038 C1052 1.377 . S
C1039 C1038 1.524 . S
C1039 C1040 1.397 . S
C1039 C1044 1.363 . S
C1040 H1017 0.950 . S
C1040 C1039 1.397 . S
C1040 C1041 1.334 . S
C1041 H1018 0.950 . S
C1041 C1040 1.334 . S
C1041 C1042 1.287 . S
C1042 C1041 1.287 . S
C1042 C1043 1.524 . S
C1042 H1061 0.913 . S
C1043 H1019 0.950 . S
C1043 C1042 1.524 . S
C1043 C1044 1.415 . S
C1044 H1020 0.950 . S
C1044 C1039 1.363 . S
C1044 C1043 1.415 . S
C1045 H1021 0.951 . S
C1045 C1046 1.366 . S
C1045 C1047 1.388 . S
C1046 C1045 1.366 . S
C1046 C1050 1.385 . S
C1047 H1022 0.951 . S
C1047 C1045 1.388 . S
C1047 C1048 1.366 . S
C1048 C1047 1.366 . S
C1048 C1049 1.414 . S
C1048 C1051 1.499 . S
C1049 H1023 0.950 . S
C1049 C1048 1.414 . S
C1049 C1050 1.374 . S
C1050 H1024 0.950 . S
C1050 C1046 1.385 . S
C1050 C1049 1.374 . S
C1051 C1048 1.499 . S
C1051 C1052 1.373 1_554 S
C1051 C1053 1.389 . S
C1052 H1025 0.950 1_556 S
C1052 C1038 1.377 . S
C1052 C1051 1.373 1_556 S
C1053 C1037 1.377 1_554 S
C1053 C1051 1.389 . S
C1053 C1054 1.524 . S
C1054 C1053 1.524 . S
C1054 C1055 1.397 . S
C1054 C1059 1.363 . S
C1055 H1026 0.950 . S
C1055 C1054 1.397 . S
C1055 C1056 1.334 . S
C1056 H1027 0.950 . S
C1056 C1055 1.334 . S
C1056 C1057 1.287 . S
C1057 C1056 1.287 . S
C1057 C1058 1.524 . S
C1057 H1060 0.999 . S
C1058 H1028 0.950 . S
C1058 C1057 1.524 . S
C1058 C1059 1.415 . S
C1059 H1029 0.950 . S
C1059 C1054 1.363 . S
C1059 C1058 1.415 . S
H1060 C1057 0.999 . S
H1061 C1042 0.913 . S
H1062 C1080 0.951 . S
H1063 C1082 0.951 . S
H1064 C1084 0.950 . S
H1065 C1085 0.950 . S
H1066 C1087 0.950 . S
H1067 C1090 0.950 . S
H1068 C1091 0.950 . S
H1069 C1093 0.950 . S
H1070 C1094 0.950 1_556 S
H1071 C1095 0.951 . S
H1072 C1097 0.951 . S
H1073 C1099 0.950 . S
H1074 C1100 0.950 . S
H1075 C1102 0.950 . S
H1076 C1105 0.950 . S
H1077 C1106 0.950 . S
H1078 C1108 0.950 . S
H1079 C1109 0.950 . S
C1080 H1062 0.951 . S
C1080 C1081 1.366 . S
C1080 C1082 1.388 . S
C1081 C1080 1.366 . S
C1081 C1085 1.385 . S
C1082 H1063 0.951 . S
C1082 C1080 1.388 . S
C1082 C1083 1.366 . S
C1083 C1082 1.366 . S
C1083 C1084 1.414 . S
C1083 C1086 1.499 . S
C1084 H1064 0.950 . S
C1084 C1083 1.414 . S
C1084 C1085 1.374 . S
C1085 H1065 0.950 . S
C1085 C1081 1.385 . S
C1085 C1084 1.374 . S
C1086 C1083 1.499 . S
C1086 C1087 1.373 . S
C1086 C1088 1.389 . S
C1087 H1066 0.950 . S
C1087 C1086 1.373 . S
C1087 C1103 1.377 1_554 S
C1088 C1086 1.389 . S
C1088 C1089 1.524 . S
C1088 C1102 1.377 1_554 S
C1089 C1088 1.524 . S
C1089 C1090 1.397 . S
C1089 C1094 1.363 . S
C1090 H1067 0.950 . S
C1090 C1089 1.397 . S
C1090 C1091 1.334 1_565 S
C1091 H1068 0.950 . S
C1091 C1090 1.334 1_545 S
C1091 C1092 1.287 . S
C1092 C1091 1.287 . S
C1092 C1093 1.524 . S
C1092 H1111 0.913 . S
C1093 H1069 0.950 . S
C1093 C1092 1.524 . S
C1093 C1094 1.415 1_545 S
C1094 H1070 0.950 1_554 S
C1094 C1089 1.363 . S
C1094 C1093 1.415 1_565 S
C1095 H1071 0.951 . S
C1095 C1096 1.366 . S
C1095 C1097 1.388 . S
C1096 C1095 1.366 . S
C1096 C1100 1.385 . S
C1097 H1072 0.951 . S
C1097 C1095 1.388 . S
C1097 C1098 1.366 . S
C1098 C1097 1.366 . S
C1098 C1099 1.414 . S
C1098 C1101 1.499 . S
C1099 H1073 0.950 . S
C1099 C1098 1.414 . S
C1099 C1100 1.374 . S
C1100 H1074 0.950 . S
C1100 C1096 1.385 . S
C1100 C1099 1.374 . S
C1101 C1098 1.499 . S
C1101 C1102 1.373 . S
C1101 C1103 1.389 . S
C1102 H1075 0.950 . S
C1102 C1088 1.377 1_556 S
C1102 C1101 1.373 . S
C1103 C1087 1.377 1_556 S
C1103 C1101 1.389 . S
C1103 C1104 1.524 . S
C1104 C1103 1.524 . S
C1104 C1105 1.397 . S
C1104 C1109 1.363 . S
C1105 H1076 0.950 . S
C1105 C1104 1.397 . S
C1105 C1106 1.334 . S
C1106 H1077 0.950 . S
C1106 C1105 1.334 . S
C1106 C1107 1.287 . S
C1107 C1106 1.287 . S
C1107 C1108 1.524 . S
C1107 H1110 0.999 . S
C1108 H1078 0.950 . S
C1108 C1107 1.524 . S
C1108 C1109 1.415 . S
C1109 H1079 0.950 . S
C1109 C1104 1.363 . S
C1109 C1108 1.415 . S
H1110 C1107 0.999 . S
H1111 C1092 0.913 . S
H1112 C1130 0.951 . S
H1113 C1132 0.951 . S
H1114 C1134 0.950 . S
H1115 C1135 0.950 . S
H1116 C1137 0.950 . S
H1117 C1140 0.950 . S
H1118 C1141 0.950 . S
H1119 C1143 0.950 . S
H1120 C1144 0.950 . S
H1121 C1145 0.951 . S
H1122 C1147 0.951 . S
H1123 C1149 0.950 . S
H1124 C1150 0.950 . S
H1125 C1152 0.950 . S
H1126 C1155 0.950 . S
H1127 C1156 0.950 . S
H1128 C1158 0.950 . S
H1129 C1159 0.950 . S
C1130 H1112 0.951 . S
C1130 C1131 1.366 . S
C1130 C1132 1.388 . S
C1131 C1130 1.366 . S
C1131 C1135 1.385 . S
C1132 H1113 0.951 . S
C1132 C1130 1.388 . S
C1132 C1133 1.366 . S
C1133 C1132 1.366 . S
C1133 C1134 1.414 . S
C1133 C1136 1.499 . S
C1134 H1114 0.950 . S
C1134 C1133 1.414 . S
C1134 C1135 1.374 . S
C1135 H1115 0.950 . S
C1135 C1131 1.385 . S
C1135 C1134 1.374 . S
C1136 C1133 1.499 . S
C1136 C1137 1.373 . S
C1136 C1138 1.389 . S
C1137 H1116 0.950 . S
C1137 C1136 1.373 . S
C1137 C1153 1.377 1_556 S
C1138 C1136 1.389 . S
C1138 C1139 1.524 . S
C1138 C1152 1.377 1_556 S
C1139 C1138 1.524 . S
C1139 C1140 1.397 . S
C1139 C1144 1.363 . S
C1140 H1117 0.950 . S
C1140 C1139 1.397 . S
C1140 C1141 1.334 . S
C1141 H1118 0.950 . S
C1141 C1140 1.334 . S
C1141 C1142 1.287 . S
C1142 C1141 1.287 . S
C1142 C1143 1.524 . S
C1142 H1161 0.913 . S
C1143 H1119 0.950 . S
C1143 C1142 1.524 . S
C1143 C1144 1.415 . S
C1144 H1120 0.950 . S
C1144 C1139 1.363 . S
C1144 C1143 1.415 . S
C1145 H1121 0.951 . S
C1145 C1146 1.366 . S
C1145 C1147 1.388 . S
C1146 C1145 1.366 . S
C1146 C1150 1.385 . S
C1147 H1122 0.951 . S
C1147 C1145 1.388 . S
C1147 C1148 1.366 . S
C1148 C1147 1.366 . S
C1148 C1149 1.414 . S
C1148 C1151 1.499 . S
C1149 H1123 0.950 . S
C1149 C1148 1.414 . S
C1149 C1150 1.374 . S
C1150 H1124 0.950 . S
C1150 C1146 1.385 . S
C1150 C1149 1.374 . S
C1151 C1148 1.499 . S
C1151 C1152 1.373 . S
C1151 C1153 1.389 . S
C1152 H1125 0.950 . S
C1152 C1138 1.377 1_554 S
C1152 C1151 1.373 . S
C1153 C1137 1.377 1_554 S
C1153 C1151 1.389 . S
C1153 C1154 1.524 . S
C1154 C1153 1.524 . S
C1154 C1155 1.397 . S
C1154 C1159 1.363 . S
C1155 H1126 0.950 . S
C1155 C1154 1.397 . S
C1155 C1156 1.334 . S
C1156 H1127 0.950 . S
C1156 C1155 1.334 . S
C1156 C1157 1.287 . S
C1157 C1156 1.287 . S
C1157 C1158 1.524 . S
C1157 H1160 0.999 . S
C1158 H1128 0.950 . S
C1158 C1157 1.524 . S
C1158 C1159 1.415 . S
C1159 H1129 0.950 . S
C1159 C1154 1.363 . S
C1159 C1158 1.415 . S
H1160 C1157 0.999 . S
H1161 C1142 0.913 . S
H1162 C1180 0.951 . S
H1163 C1182 0.951 . S
H1164 C1184 0.950 . S
H1165 C1185 0.950 . S
H1166 C1187 0.950 . S
H1167 C1190 0.950 . S
H1168 C1191 0.950 . S
H1169 C1193 0.950 . S
H1170 C1194 0.950 1_554 S
H1171 C1195 0.951 . S
H1172 C1197 0.951 . S
H1173 C1199 0.950 . S
H1174 C1200 0.950 . S
H1175 C1202 0.950 . S
H1176 C1205 0.950 . S
H1177 C1206 0.950 . S
H1178 C1208 0.950 . S
H1179 C1209 0.950 1_556 S
C1180 H1162 0.951 . S
C1180 C1181 1.366 . S
C1180 C1182 1.388 . S
C1181 C1180 1.366 . S
C1181 C1185 1.385 . S
C1182 H1163 0.951 . S
C1182 C1180 1.388 . S
C1182 C1183 1.366 . S
C1183 C1182 1.366 . S
C1183 C1184 1.414 . S
C1183 C1186 1.499 . S
C1184 H1164 0.950 . S
C1184 C1183 1.414 . S
C1184 C1185 1.374 . S
C1185 H1165 0.950 . S
C1185 C1181 1.385 . S
C1185 C1184 1.374 . S
C1186 C1183 1.499 . S
C1186 C1187 1.373 . S
C1186 C1188 1.389 . S
C1187 H1166 0.950 . S
C1187 C1186 1.373 . S
C1187 C1203 1.377 1_556 S
C1188 C1186 1.389 . S
C1188 C1189 1.524 . S
C1188 C1202 1.377 1_556 S
C1189 C1188 1.524 . S
C1189 C1190 1.397 . S
C1189 C1194 1.363 . S
C1190 H1167 0.950 . S
C1190 C1189 1.397 . S
C1190 C1191 1.334 . S
C1191 H1168 0.950 . S
C1191 C1190 1.334 . S
C1191 C1192 1.287 . S
C1192 C1191 1.287 . S
C1192 C1193 1.524 . S
C1192 H1211 0.913 . S
C1193 H1169 0.950 . S
C1193 C1192 1.524 . S
C1193 C1194 1.415 . S
C1194 H1170 0.950 1_556 S
C1194 C1189 1.363 . S
C1194 C1193 1.415 . S
C1195 H1171 0.951 . S
C1195 C1196 1.366 . S
C1195 C1197 1.388 . S
C1196 C1195 1.366 . S
C1196 C1200 1.385 . S
C1197 H1172 0.951 . S
C1197 C1195 1.388 . S
C1197 C1198 1.366 . S
C1198 C1197 1.366 . S
C1198 C1199 1.414 . S
C1198 C1201 1.499 . S
C1199 H1173 0.950 . S
C1199 C1198 1.414 . S
C1199 C1200 1.374 . S
C1200 H1174 0.950 . S
C1200 C1196 1.385 . S
C1200 C1199 1.374 . S
C1201 C1198 1.499 . S
C1201 C1202 1.373 . S
C1201 C1203 1.389 . S
C1202 H1175 0.950 . S
C1202 C1188 1.377 1_554 S
C1202 C1201 1.373 . S
C1203 C1187 1.377 1_554 S
C1203 C1201 1.389 . S
C1203 C1204 1.524 . S
C1204 C1203 1.524 . S
C1204 C1205 1.397 . S
C1204 C1209 1.363 . S
C1205 H1176 0.950 . S
C1205 C1204 1.397 . S
C1205 C1206 1.334 . S
C1206 H1177 0.950 . S
C1206 C1205 1.334 . S
C1206 C1207 1.287 . S
C1207 C1206 1.287 . S
C1207 C1208 1.524 . S
C1207 H1210 0.999 . S
C1208 H1178 0.950 . S
C1208 C1207 1.524 . S
C1208 C1209 1.415 . S
C1209 H1179 0.950 1_554 S
C1209 C1204 1.363 . S
C1209 C1208 1.415 . S
H1210 C1207 0.999 . S
H1211 C1192 0.913 . S
H1212 C1230 0.951 . S
H1213 C1232 0.951 . S
H1214 C1234 0.950 . S
H1215 C1235 0.950 . S
H1216 C1237 0.950 . S
H1217 C1240 0.950 . S
H1218 C1241 0.950 . S
H1219 C1243 0.950 . S
H1220 C1244 0.950 . S
H1221 C1245 0.951 . S
H1222 C1247 0.951 . S
H1223 C1249 0.950 . S
H1224 C1250 0.950 . S
H1225 C1252 0.950 . S
H1226 C1255 0.950 . S
H1227 C1256 0.950 . S
H1228 C1258 0.950 . S
H1229 C1259 0.950 . S
C1230 H1212 0.951 . S
C1230 C1231 1.366 . S
C1230 C1232 1.388 . S
C1231 C1230 1.366 . S
C1231 C1235 1.385 . S
C1232 H1213 0.951 . S
C1232 C1230 1.388 . S
C1232 C1233 1.366 . S
C1233 C1232 1.366 . S
C1233 C1234 1.414 . S
C1233 C1236 1.499 . S
C1234 H1214 0.950 . S
C1234 C1233 1.414 . S
C1234 C1235 1.374 . S
C1235 H1215 0.950 . S
C1235 C1231 1.385 . S
C1235 C1234 1.374 . S
C1236 C1233 1.499 . S
C1236 C1237 1.373 . S
C1236 C1238 1.389 . S
C1237 H1216 0.950 . S
C1237 C1236 1.373 . S
C1237 C1253 1.377 . S
C1238 C1236 1.389 . S
C1238 C1239 1.524 . S
C1238 C1252 1.377 . S
C1239 C1238 1.524 . S
C1239 C1240 1.397 . S
C1239 C1244 1.363 . S
C1240 H1217 0.950 . S
C1240 C1239 1.397 . S
C1240 C1241 1.334 . S
C1241 H1218 0.950 . S
C1241 C1240 1.334 . S
C1241 C1242 1.287 . S
C1242 C1241 1.287 . S
C1242 C1243 1.524 . S
C1242 H1261 0.913 . S
C1243 H1219 0.950 . S
C1243 C1242 1.524 . S
C1243 C1244 1.415 . S
C1244 H1220 0.950 . S
C1244 C1239 1.363 . S
C1244 C1243 1.415 . S
C1245 H1221 0.951 . S
C1245 C1246 1.366 . S
C1245 C1247 1.388 . S
C1246 C1245 1.366 . S
C1246 C1250 1.385 . S
C1247 H1222 0.951 . S
C1247 C1245 1.388 . S
C1247 C1248 1.366 . S
C1248 C1247 1.366 . S
C1248 C1249 1.414 . S
C1248 C1251 1.499 . S
C1249 H1223 0.950 . S
C1249 C1248 1.414 . S
C1249 C1250 1.374 . S
C1250 H1224 0.950 . S
C1250 C1246 1.385 . S
C1250 C1249 1.374 . S
C1251 C1248 1.499 . S
C1251 C1252 1.373 . S
C1251 C1253 1.389 . S
C1252 H1225 0.950 . S
C1252 C1238 1.377 . S
C1252 C1251 1.373 . S
C1253 C1237 1.377 . S
C1253 C1251 1.389 . S
C1253 C1254 1.524 . S
C1254 C1253 1.524 . S
C1254 C1255 1.397 . S
C1254 C1259 1.363 . S
C1255 H1226 0.950 . S
C1255 C1254 1.397 . S
C1255 C1256 1.334 . S
C1256 H1227 0.950 . S
C1256 C1255 1.334 . S
C1256 C1257 1.287 . S
C1257 C1256 1.287 . S
C1257 C1258 1.524 . S
C1257 H1260 0.999 . S
C1258 H1228 0.950 . S
C1258 C1257 1.524 . S
C1258 C1259 1.415 . S
C1259 H1229 0.950 . S
C1259 C1254 1.363 . S
C1259 C1258 1.415 . S
H1260 C1257 0.999 . S
H1261 C1242 0.913 . S
H1262 C1280 0.951 . S
H1263 C1282 0.951 . S
H1264 C1284 0.950 . S
H1265 C1285 0.950 . S
H1266 C1287 0.950 . S
H1267 C1290 0.950 . S
H1268 C1291 0.950 . S
H1269 C1293 0.950 . S
H1270 C1294 0.950 . S
H1271 C1295 0.951 . S
H1272 C1297 0.951 . S
H1273 C1299 0.950 . S
H1274 C1300 0.950 . S
H1275 C1302 0.950 . S
H1276 C1305 0.950 . S
H1277 C1306 0.950 . S
H1278 C1308 0.950 . S
H1279 C1309 0.950 . S
C1280 H1262 0.951 . S
C1280 C1281 1.366 . S
C1280 C1282 1.388 . S
C1281 C1280 1.366 . S
C1281 C1285 1.385 . S
C1282 H1263 0.951 . S
C1282 C1280 1.388 . S
C1282 C1283 1.366 . S
C1283 C1282 1.366 . S
C1283 C1284 1.414 . S
C1283 C1286 1.499 . S
C1284 H1264 0.950 . S
C1284 C1283 1.414 . S
C1284 C1285 1.374 . S
C1285 H1265 0.950 . S
C1285 C1281 1.385 . S
C1285 C1284 1.374 . S
C1286 C1283 1.499 . S
C1286 C1287 1.373 . S
C1286 C1288 1.389 . S
C1287 H1266 0.950 . S
C1287 C1286 1.373 . S
C1287 C1303 1.377 . S
C1288 C1286 1.389 . S
C1288 C1289 1.524 . S
C1288 C1302 1.377 . S
C1289 C1288 1.524 . S
C1289 C1290 1.397 . S
C1289 C1294 1.363 . S
C1290 H1267 0.950 . S
C1290 C1289 1.397 . S
C1290 C1291 1.334 . S
C1291 H1268 0.950 . S
C1291 C1290 1.334 . S
C1291 C1292 1.287 . S
C1292 C1291 1.287 . S
C1292 C1293 1.524 . S
C1292 H1311 0.913 . S
C1293 H1269 0.950 . S
C1293 C1292 1.524 . S
C1293 C1294 1.415 . S
C1294 H1270 0.950 . S
C1294 C1289 1.363 . S
C1294 C1293 1.415 . S
C1295 H1271 0.951 . S
C1295 C1296 1.366 . S
C1295 C1297 1.388 . S
C1296 C1295 1.366 . S
C1296 C1300 1.385 . S
C1297 H1272 0.951 . S
C1297 C1295 1.388 . S
C1297 C1298 1.366 . S
C1298 C1297 1.366 . S
C1298 C1299 1.414 . S
C1298 C1301 1.499 . S
C1299 H1273 0.950 . S
C1299 C1298 1.414 . S
C1299 C1300 1.374 . S
C1300 H1274 0.950 . S
C1300 C1296 1.385 . S
C1300 C1299 1.374 . S
C1301 C1298 1.499 . S
C1301 C1302 1.373 . S
C1301 C1303 1.389 . S
C1302 H1275 0.950 . S
C1302 C1288 1.377 . S
C1302 C1301 1.373 . S
C1303 C1287 1.377 . S
C1303 C1301 1.389 . S
C1303 C1304 1.524 . S
C1304 C1303 1.524 . S
C1304 C1305 1.397 . S
C1304 C1309 1.363 . S
C1305 H1276 0.950 . S
C1305 C1304 1.397 . S
C1305 C1306 1.334 . S
C1306 H1277 0.950 . S
C1306 C1305 1.334 . S
C1306 C1307 1.287 . S
C1307 C1306 1.287 . S
C1307 C1308 1.524 . S
C1307 H1310 0.999 . S
C1308 H1278 0.950 . S
C1308 C1307 1.524 . S
C1308 C1309 1.415 . S
C1309 H1279 0.950 . S
C1309 C1304 1.363 . S
C1309 C1308 1.415 . S
H1310 C1307 0.999 . S
H1311 C1292 0.913 . S
H1312 C1330 0.951 . S
H1313 C1332 0.951 . S
H1314 C1334 0.950 . S
H1315 C1335 0.950 1_556 S
H1316 C1337 0.950 . S
H1317 C1340 0.950 . S
H1318 C1341 0.950 . S
H1319 C1343 0.950 . S
H1320 C1344 0.950 . S
H1321 C1345 0.951 . S
H1322 C1347 0.951 . S
H1323 C1349 0.950 . S
H1324 C1350 0.950 . S
H1325 C1352 0.950 . S
H1326 C1355 0.950 . S
H1327 C1356 0.950 . S
H1328 C1358 0.950 . S
H1329 C1359 0.950 . S
C1330 H1312 0.951 . S
C1330 C1331 1.366 . S
C1330 C1332 1.388 1_556 S
C1331 C1330 1.366 . S
C1331 C1335 1.385 1_556 S
C1332 H1313 0.951 . S
C1332 C1330 1.388 1_554 S
C1332 C1333 1.366 . S
C1333 C1332 1.366 . S
C1333 C1334 1.414 . S
C1333 C1336 1.499 . S
C1334 H1314 0.950 . S
C1334 C1333 1.414 . S
C1334 C1335 1.374 . S
C1335 H1315 0.950 1_554 S
C1335 C1331 1.385 1_554 S
C1335 C1334 1.374 . S
C1336 C1333 1.499 . S
C1336 C1337 1.373 . S
C1336 C1338 1.389 . S
C1337 H1316 0.950 . S
C1337 C1336 1.373 . S
C1337 C1353 1.377 . S
C1338 C1336 1.389 . S
C1338 C1339 1.524 . S
C1338 C1352 1.377 . S
C1339 C1338 1.524 . S
C1339 C1340 1.397 . S
C1339 C1344 1.363 . S
C1340 H1317 0.950 . S
C1340 C1339 1.397 . S
C1340 C1341 1.334 . S
C1341 H1318 0.950 . S
C1341 C1340 1.334 . S
C1341 C1342 1.287 . S
C1342 C1341 1.287 . S
C1342 C1343 1.524 . S
C1342 H1361 0.913 . S
C1343 H1319 0.950 . S
C1343 C1342 1.524 . S
C1343 C1344 1.415 . S
C1344 H1320 0.950 . S
C1344 C1339 1.363 . S
C1344 C1343 1.415 . S
C1345 H1321 0.951 . S
C1345 C1346 1.366 . S
C1345 C1347 1.388 . S
C1346 C1345 1.366 . S
C1346 C1350 1.385 . S
C1347 H1322 0.951 . S
C1347 C1345 1.388 . S
C1347 C1348 1.366 . S
C1348 C1347 1.366 . S
C1348 C1349 1.414 . S
C1348 C1351 1.499 . S
C1349 H1323 0.950 . S
C1349 C1348 1.414 . S
C1349 C1350 1.374 . S
C1350 H1324 0.950 . S
C1350 C1346 1.385 . S
C1350 C1349 1.374 . S
C1351 C1348 1.499 . S
C1351 C1352 1.373 . S
C1351 C1353 1.389 . S
C1352 H1325 0.950 . S
C1352 C1338 1.377 . S
C1352 C1351 1.373 . S
C1353 C1337 1.377 . S
C1353 C1351 1.389 . S
C1353 C1354 1.524 . S
C1354 C1353 1.524 . S
C1354 C1355 1.397 . S
C1354 C1359 1.363 . S
C1355 H1326 0.950 . S
C1355 C1354 1.397 . S
C1355 C1356 1.334 . S
C1356 H1327 0.950 . S
C1356 C1355 1.334 . S
C1356 C1357 1.287 . S
C1357 C1356 1.287 . S
C1357 C1358 1.524 . S
C1357 H1360 0.999 . S
C1358 H1328 0.950 . S
C1358 C1357 1.524 . S
C1358 C1359 1.415 . S
C1359 H1329 0.950 . S
C1359 C1354 1.363 . S
C1359 C1358 1.415 . S
H1360 C1357 0.999 . S
H1361 C1342 0.913 . S
H1362 C1380 0.951 1_556 S
H1363 C1382 0.951 . S
H1364 C1384 0.950 . S
H1365 C1385 0.950 . S
H1366 C1387 0.950 . S
H1367 C1390 0.950 . S
H1368 C1391 0.950 . S
H1369 C1393 0.950 . S
H1370 C1394 0.950 . S
H1371 C1395 0.951 . S
H1372 C1397 0.951 . S
H1373 C1399 0.950 . S
H1374 C1400 0.950 . S
H1375 C1402 0.950 . S
H1376 C1405 0.950 . S
H1377 C1406 0.950 . S
H1378 C1408 0.950 . S
H1379 C1409 0.950 . S
C1380 H1362 0.951 1_554 S
C1380 C1381 1.366 1_554 S
C1380 C1382 1.388 . S
C1381 C1380 1.366 1_556 S
C1381 C1385 1.385 1_556 S
C1382 H1363 0.951 . S
C1382 C1380 1.388 . S
C1382 C1383 1.366 . S
C1383 C1382 1.366 . S
C1383 C1384 1.414 . S
C1383 C1386 1.499 . S
C1384 H1364 0.950 . S
C1384 C1383 1.414 . S
C1384 C1385 1.374 . S
C1385 H1365 0.950 . S
C1385 C1381 1.385 1_554 S
C1385 C1384 1.374 . S
C1386 C1383 1.499 . S
C1386 C1387 1.373 . S
C1386 C1388 1.389 . S
C1387 H1366 0.950 . S
C1387 C1386 1.373 . S
C1387 C1403 1.377 . S
C1388 C1386 1.389 . S
C1388 C1389 1.524 . S
C1388 C1402 1.377 . S
C1389 C1388 1.524 . S
C1389 C1390 1.397 . S
C1389 C1394 1.363 . S
C1390 H1367 0.950 . S
C1390 C1389 1.397 . S
C1390 C1391 1.334 . S
C1391 H1368 0.950 . S
C1391 C1390 1.334 . S
C1391 C1392 1.287 . S
C1392 C1391 1.287 . S
C1392 C1393 1.524 . S
C1392 H1411 0.913 . S
C1393 H1369 0.950 . S
C1393 C1392 1.524 . S
C1393 C1394 1.415 . S
C1394 H1370 0.950 . S
C1394 C1389 1.363 . S
C1394 C1393 1.415 . S
C1395 H1371 0.951 . S
C1395 C1396 1.366 . S
C1395 C1397 1.388 . S
C1396 C1395 1.366 . S
C1396 C1400 1.385 . S
C1397 H1372 0.951 . S
C1397 C1395 1.388 . S
C1397 C1398 1.366 . S
C1398 C1397 1.366 . S
C1398 C1399 1.414 . S
C1398 C1401 1.499 . S
C1399 H1373 0.950 . S
C1399 C1398 1.414 . S
C1399 C1400 1.374 . S
C1400 H1374 0.950 . S
C1400 C1396 1.385 . S
C1400 C1399 1.374 . S
C1401 C1398 1.499 . S
C1401 C1402 1.373 . S
C1401 C1403 1.389 . S
C1402 H1375 0.950 . S
C1402 C1388 1.377 . S
C1402 C1401 1.373 . S
C1403 C1387 1.377 . S
C1403 C1401 1.389 . S
C1403 C1404 1.524 . S
C1404 C1403 1.524 . S
C1404 C1405 1.397 . S
C1404 C1409 1.363 . S
C1405 H1376 0.950 . S
C1405 C1404 1.397 . S
C1405 C1406 1.334 . S
C1406 H1377 0.950 . S
C1406 C1405 1.334 . S
C1406 C1407 1.287 . S
C1407 C1406 1.287 . S
C1407 C1408 1.524 . S
C1407 H1410 0.999 . S
C1408 H1378 0.950 . S
C1408 C1407 1.524 . S
C1408 C1409 1.415 . S
C1409 H1379 0.950 . S
C1409 C1404 1.363 . S
C1409 C1408 1.415 . S
H1410 C1407 0.999 . S
H1411 C1392 0.913 . S
H1412 C1430 0.951 . S
H1413 C1432 0.951 . S
H1414 C1434 0.950 . S
H1415 C1435 0.950 . S
H1416 C1437 0.950 . S
H1417 C1440 0.950 . S
H1418 C1441 0.950 . S
H1419 C1443 0.950 . S
H1420 C1444 0.950 . S
H1421 C1445 0.951 . S
H1422 C1447 0.951 . S
H1423 C1449 0.950 . S
H1424 C1450 0.950 . S
H1425 C1452 0.950 . S
H1426 C1455 0.950 . S
H1427 C1456 0.950 . S
H1428 C1458 0.950 . S
H1429 C1459 0.950 . S
C1430 H1412 0.951 . S
C1430 C1431 1.366 . S
C1430 C1432 1.388 . S
C1431 C1430 1.366 . S
C1431 C1435 1.385 . S
C1432 H1413 0.951 . S
C1432 C1430 1.388 . S
C1432 C1433 1.366 . S
C1433 C1432 1.366 . S
C1433 C1434 1.414 . S
C1433 C1436 1.499 . S
C1434 H1414 0.950 . S
C1434 C1433 1.414 . S
C1434 C1435 1.374 . S
C1435 H1415 0.950 . S
C1435 C1431 1.385 . S
C1435 C1434 1.374 . S
C1436 C1433 1.499 . S
C1436 C1437 1.373 . S
C1436 C1438 1.389 . S
C1437 H1416 0.950 . S
C1437 C1436 1.373 . S
C1437 C1453 1.377 . S
C1438 C1436 1.389 . S
C1438 C1439 1.524 . S
C1438 C1452 1.377 . S
C1439 C1438 1.524 . S
C1439 C1440 1.397 . S
C1439 C1444 1.363 . S
C1440 H1417 0.950 . S
C1440 C1439 1.397 . S
C1440 C1441 1.334 . S
C1441 H1418 0.950 . S
C1441 C1440 1.334 . S
C1441 C1442 1.287 . S
C1442 C1441 1.287 . S
C1442 C1443 1.524 . S
C1442 H1461 0.913 . S
C1443 H1419 0.950 . S
C1443 C1442 1.524 . S
C1443 C1444 1.415 . S
C1444 H1420 0.950 . S
C1444 C1439 1.363 . S
C1444 C1443 1.415 . S
C1445 H1421 0.951 . S
C1445 C1446 1.366 . S
C1445 C1447 1.388 1_556 S
C1446 C1445 1.366 . S
C1446 C1450 1.385 . S
C1447 H1422 0.951 . S
C1447 C1445 1.388 1_554 S
C1447 C1448 1.366 . S
C1448 C1447 1.366 . S
C1448 C1449 1.414 . S
C1448 C1451 1.499 . S
C1449 H1423 0.950 . S
C1449 C1448 1.414 . S
C1449 C1450 1.374 1_554 S
C1450 H1424 0.950 . S
C1450 C1446 1.385 . S
C1450 C1449 1.374 1_556 S
C1451 C1448 1.499 . S
C1451 C1452 1.373 . S
C1451 C1453 1.389 . S
C1452 H1425 0.950 . S
C1452 C1438 1.377 . S
C1452 C1451 1.373 . S
C1453 C1437 1.377 . S
C1453 C1451 1.389 . S
C1453 C1454 1.524 . S
C1454 C1453 1.524 . S
C1454 C1455 1.397 . S
C1454 C1459 1.363 . S
C1455 H1426 0.950 . S
C1455 C1454 1.397 . S
C1455 C1456 1.334 . S
C1456 H1427 0.950 . S
C1456 C1455 1.334 . S
C1456 C1457 1.287 . S
C1457 C1456 1.287 . S
C1457 C1458 1.524 . S
C1457 H1460 0.999 . S
C1458 H1428 0.950 . S
C1458 C1457 1.524 . S
C1458 C1459 1.415 . S
C1459 H1429 0.950 . S
C1459 C1454 1.363 . S
C1459 C1458 1.415 . S
H1460 C1457 0.999 . S
H1461 C1442 0.913 . S
H1462 C1480 0.951 . S
H1463 C1482 0.951 . S
H1464 C1484 0.950 . S
H1465 C1485 0.950 . S
H1466 C1487 0.950 . S
H1467 C1490 0.950 . S
H1468 C1491 0.950 . S
H1469 C1493 0.950 . S
H1470 C1494 0.950 . S
H1471 C1495 0.951 . S
H1472 C1497 0.951 . S
H1473 C1499 0.950 . S
H1474 C1500 0.950 . S
H1475 C1502 0.950 . S
H1476 C1505 0.950 . S
H1477 C1506 0.950 . S
H1478 C1508 0.950 . S
H1479 C1509 0.950 . S
C1480 H1462 0.951 . S
C1480 C1481 1.366 . S
C1480 C1482 1.388 . S
C1481 C1480 1.366 . S
C1481 C1485 1.385 . S
C1482 H1463 0.951 . S
C1482 C1480 1.388 . S
C1482 C1483 1.366 . S
C1483 C1482 1.366 . S
C1483 C1484 1.414 . S
C1483 C1486 1.499 . S
C1484 H1464 0.950 . S
C1484 C1483 1.414 . S
C1484 C1485 1.374 . S
C1485 H1465 0.950 . S
C1485 C1481 1.385 . S
C1485 C1484 1.374 . S
C1486 C1483 1.499 . S
C1486 C1487 1.373 . S
C1486 C1488 1.389 . S
C1487 H1466 0.950 . S
C1487 C1486 1.373 . S
C1487 C1503 1.377 . S
C1488 C1486 1.389 . S
C1488 C1489 1.524 . S
C1488 C1502 1.377 . S
C1489 C1488 1.524 . S
C1489 C1490 1.397 . S
C1489 C1494 1.363 . S
C1490 H1467 0.950 . S
C1490 C1489 1.397 . S
C1490 C1491 1.334 . S
C1491 H1468 0.950 . S
C1491 C1490 1.334 . S
C1491 C1492 1.287 . S
C1492 C1491 1.287 . S
C1492 C1493 1.524 . S
C1492 H1511 0.913 . S
C1493 H1469 0.950 . S
C1493 C1492 1.524 . S
C1493 C1494 1.415 . S
C1494 H1470 0.950 . S
C1494 C1489 1.363 . S
C1494 C1493 1.415 . S
C1495 H1471 0.951 . S
C1495 C1496 1.366 . S
C1495 C1497 1.388 . S
C1496 C1495 1.366 . S
C1496 C1500 1.385 . S
C1497 H1472 0.951 . S
C1497 C1495 1.388 . S
C1497 C1498 1.366 . S
C1498 C1497 1.366 . S
C1498 C1499 1.414 . S
C1498 C1501 1.499 . S
C1499 H1473 0.950 . S
C1499 C1498 1.414 . S
C1499 C1500 1.374 . S
C1500 H1474 0.950 . S
C1500 C1496 1.385 . S
C1500 C1499 1.374 . S
C1501 C1498 1.499 . S
C1501 C1502 1.373 . S
C1501 C1503 1.389 . S
C1502 H1475 0.950 . S
C1502 C1488 1.377 . S
C1502 C1501 1.373 . S
C1503 C1487 1.377 . S
C1503 C1501 1.389 . S
C1503 C1504 1.524 . S
C1504 C1503 1.524 . S
C1504 C1505 1.397 . S
C1504 C1509 1.363 . S
C1505 H1476 0.950 . S
C1505 C1504 1.397 . S
C1505 C1506 1.334 . S
C1506 H1477 0.950 . S
C1506 C1505 1.334 . S
C1506 C1507 1.287 . S
C1507 C1506 1.287 . S
C1507 C1508 1.524 . S
C1507 H1510 0.999 . S
C1508 H1478 0.950 . S
C1508 C1507 1.524 . S
C1508 C1509 1.415 . S
C1509 H1479 0.950 . S
C1509 C1504 1.363 . S
C1509 C1508 1.415 . S
H1510 C1507 0.999 . S
H1511 C1492 0.913 . S
H1512 C1530 0.951 . S
H1513 C1532 0.951 . S
H1514 C1534 0.950 . S
H1515 C1535 0.950 . S
H1516 C1537 0.950 1_556 S
H1517 C1540 0.950 . S
H1518 C1541 0.950 . S
H1519 C1543 0.950 . S
H1520 C1544 0.950 . S
H1521 C1545 0.951 . S
H1522 C1547 0.951 . S
H1523 C1549 0.950 . S
H1524 C1550 0.950 . S
H1525 C1552 0.950 . S
H1526 C1555 0.950 . S
H1527 C1556 0.950 . S
H1528 C1558 0.950 . S
H1529 C1559 0.950 . S
C1530 H1512 0.951 . S
C1530 C1531 1.366 . S
C1530 C1532 1.388 . S
C1531 C1530 1.366 . S
C1531 C1535 1.385 . S
C1532 H1513 0.951 . S
C1532 C1530 1.388 . S
C1532 C1533 1.366 . S
C1533 C1532 1.366 . S
C1533 C1534 1.414 . S
C1533 C1536 1.499 . S
C1534 H1514 0.950 . S
C1534 C1533 1.414 . S
C1534 C1535 1.374 . S
C1535 H1515 0.950 . S
C1535 C1531 1.385 . S
C1535 C1534 1.374 . S
C1536 C1533 1.499 . S
C1536 C1537 1.373 . S
C1536 C1538 1.389 . S
C1537 H1516 0.950 1_554 S
C1537 C1536 1.373 . S
C1537 C1553 1.377 . S
C1538 C1536 1.389 . S
C1538 C1539 1.524 . S
C1538 C1552 1.377 . S
C1539 C1538 1.524 . S
C1539 C1540 1.397 . S
C1539 C1544 1.363 . S
C1540 H1517 0.950 . S
C1540 C1539 1.397 . S
C1540 C1541 1.334 . S
C1541 H1518 0.950 . S
C1541 C1540 1.334 . S
C1541 C1542 1.287 . S
C1542 C1541 1.287 . S
C1542 C1543 1.524 . S
C1542 H1561 0.913 . S
C1543 H1519 0.950 . S
C1543 C1542 1.524 . S
C1543 C1544 1.415 . S
C1544 H1520 0.950 . S
C1544 C1539 1.363 . S
C1544 C1543 1.415 . S
C1545 H1521 0.951 . S
C1545 C1546 1.366 . S
C1545 C1547 1.388 . S
C1546 C1545 1.366 . S
C1546 C1550 1.385 . S
C1547 H1522 0.951 . S
C1547 C1545 1.388 . S
C1547 C1548 1.366 . S
C1548 C1547 1.366 . S
C1548 C1549 1.414 . S
C1548 C1551 1.499 . S
C1549 H1523 0.950 . S
C1549 C1548 1.414 . S
C1549 C1550 1.374 . S
C1550 H1524 0.950 . S
C1550 C1546 1.385 . S
C1550 C1549 1.374 . S
C1551 C1548 1.499 . S
C1551 C1552 1.373 . S
C1551 C1553 1.389 . S
C1552 H1525 0.950 . S
C1552 C1538 1.377 . S
C1552 C1551 1.373 . S
C1553 C1537 1.377 . S
C1553 C1551 1.389 . S
C1553 C1554 1.524 1_554 S
C1554 C1553 1.524 1_556 S
C1554 C1555 1.397 . S
C1554 C1559 1.363 . S
C1555 H1526 0.950 . S
C1555 C1554 1.397 . S
C1555 C1556 1.334 . S
C1556 H1527 0.950 . S
C1556 C1555 1.334 . S
C1556 C1557 1.287 . S
C1557 C1556 1.287 . S
C1557 C1558 1.524 . S
C1557 H1560 0.999 . S
C1558 H1528 0.950 . S
C1558 C1557 1.524 . S
C1558 C1559 1.415 . S
C1559 H1529 0.950 . S
C1559 C1554 1.363 . S
C1559 C1558 1.415 . S
H1560 C1557 0.999 . S
H1561 C1542 0.913 . S
H1562 C1580 0.951 . S
H1563 C1582 0.951 . S
H1564 C1584 0.950 . S
H1565 C1585 0.950 . S
H1566 C1587 0.950 . S
H1567 C1590 0.950 . S
H1568 C1591 0.950 . S
H1569 C1593 0.950 . S
H1570 C1594 0.950 . S
H1571 C1595 0.951 . S
H1572 C1597 0.951 . S
H1573 C1599 0.950 . S
H1574 C1600 0.950 . S
H1575 C1602 0.950 . S
H1576 C1605 0.950 . S
H1577 C1606 0.950 . S
H1578 C1608 0.950 . S
H1579 C1609 0.950 . S
C1580 H1562 0.951 . S
C1580 C1581 1.366 . S
C1580 C1582 1.388 . S
C1581 C1580 1.366 . S
C1581 C1585 1.385 . S
C1582 H1563 0.951 . S
C1582 C1580 1.388 . S
C1582 C1583 1.366 . S
C1583 C1582 1.366 . S
C1583 C1584 1.414 . S
C1583 C1586 1.499 . S
C1584 H1564 0.950 . S
C1584 C1583 1.414 . S
C1584 C1585 1.374 . S
C1585 H1565 0.950 . S
C1585 C1581 1.385 . S
C1585 C1584 1.374 . S
C1586 C1583 1.499 . S
C1586 C1587 1.373 . S
C1586 C1588 1.389 . S
C1587 H1566 0.950 . S
C1587 C1586 1.373 . S
C1587 C1603 1.377 . S
C1588 C1586 1.389 . S
C1588 C1589 1.524 . S
C1588 C1602 1.377 . S
C1589 C1588 1.524 . S
C1589 C1590 1.397 . S
C1589 C1594 1.363 . S
C1590 H1567 0.950 . S
C1590 C1589 1.397 . S
C1590 C1591 1.334 . S
C1591 H1568 0.950 . S
C1591 C1590 1.334 . S
C1591 C1592 1.287 . S
C1592 C1591 1.287 . S
C1592 C1593 1.524 . S
C1592 H1611 0.913 . S
C1593 H1569 0.950 . S
C1593 C1592 1.524 . S
C1593 C1594 1.415 . S
C1594 H1570 0.950 . S
C1594 C1589 1.363 . S
C1594 C1593 1.415 . S
C1595 H1571 0.951 . S
C1595 C1596 1.366 . S
C1595 C1597 1.388 . S
C1596 C1595 1.366 . S
C1596 C1600 1.385 . S
C1597 H1572 0.951 . S
C1597 C1595 1.388 . S
C1597 C1598 1.366 . S
C1598 C1597 1.366 . S
C1598 C1599 1.414 . S
C1598 C1601 1.499 . S
C1599 H1573 0.950 . S
C1599 C1598 1.414 . S
C1599 C1600 1.374 . S
C1600 H1574 0.950 . S
C1600 C1596 1.385 . S
C1600 C1599 1.374 . S
C1601 C1598 1.499 . S
C1601 C1602 1.373 . S
C1601 C1603 1.389 . S
C1602 H1575 0.950 . S
C1602 C1588 1.377 . S
C1602 C1601 1.373 . S
C1603 C1587 1.377 . S
C1603 C1601 1.389 . S
C1603 C1604 1.524 . S
C1604 C1603 1.524 . S
C1604 C1605 1.397 1_554 S
C1604 C1609 1.363 . S
C1605 H1576 0.950 . S
C1605 C1604 1.397 1_556 S
C1605 C1606 1.334 . S
C1606 H1577 0.950 . S
C1606 C1605 1.334 . S
C1606 C1607 1.287 . S
C1607 C1606 1.287 . S
C1607 C1608 1.524 . S
C1607 H1610 0.999 . S
C1608 H1578 0.950 . S
C1608 C1607 1.524 . S
C1608 C1609 1.415 1_556 S
C1609 H1579 0.950 . S
C1609 C1604 1.363 . S
C1609 C1608 1.415 1_554 S
H1610 C1607 0.999 . S
H1611 C1592 0.913 . S
H1612 C1630 0.951 . S
H1613 C1632 0.951 . S
H1614 C1634 0.953 1_565 S
H1615 C1635 0.927 1_565 S
H1616 C1637 0.937 1_556 S
H1617 C1640 0.953 1_565 S
H1618 C1641 0.950 1_565 S
H1619 C1643 0.950 . S
H1620 C1644 0.950 . S
H1621 C1645 0.951 . S
H1622 C1647 0.951 . S
H1623 C1649 0.950 . S
H1624 C1650 0.950 . S
H1625 C1652 0.950 . S
H1626 C1655 0.950 . S
H1627 C1656 0.950 . S
H1628 C1658 0.950 . S
H1629 C1659 0.950 . S
C1630 H1612 0.951 . S
C1630 C1631 1.366 . S
C1630 C1632 1.388 . S
C1631 C1630 1.366 . S
C1631 C1635 1.384 . S
C1632 H1613 0.951 . S
C1632 C1630 1.388 . S
C1632 C1633 1.366 . S
C1633 C1632 1.366 . S
C1633 C1634 1.414 . S
C1633 C1636 1.499 . S
C1634 H1614 0.953 1_545 S
C1634 C1633 1.414 . S
C1634 C1635 1.398 . S
C1635 H1615 0.927 1_545 S
C1635 C1631 1.384 . S
C1635 C1634 1.398 . S
C1636 C1633 1.499 . S
C1636 C1637 1.373 . S
C1636 C1638 1.389 . S
C1637 H1616 0.937 1_554 S
C1637 C1636 1.373 . S
C1637 C1653 1.377 . S
C1638 C1636 1.389 . S
C1638 C1639 1.524 . S
C1638 C1652 1.377 . S
C1639 C1638 1.524 . S
C1639 C1640 1.397 . S
C1639 C1644 1.363 . S
C1640 H1617 0.953 1_545 S
C1640 C1639 1.397 . S
C1640 C1641 1.334 . S
C1641 H1618 0.950 1_545 S
C1641 C1640 1.334 . S
C1641 C1642 1.287 . S
C1642 C1641 1.287 . S
C1642 C1643 1.524 . S
C1642 H1661 0.913 . S
C1643 H1619 0.950 . S
C1643 C1642 1.524 . S
C1643 C1644 1.415 . S
C1644 H1620 0.950 . S
C1644 C1639 1.363 . S
C1644 C1643 1.415 . S
C1645 H1621 0.951 . S
C1645 C1646 1.366 . S
C1645 C1647 1.388 . S
C1646 C1645 1.366 . S
C1646 C1650 1.385 . S
C1647 H1622 0.951 . S
C1647 C1645 1.388 . S
C1647 C1648 1.366 . S
C1648 C1647 1.366 . S
C1648 C1649 1.414 . S
C1648 C1651 1.499 . S
C1649 H1623 0.950 . S
C1649 C1648 1.414 . S
C1649 C1650 1.374 . S
C1650 H1624 0.950 . S
C1650 C1646 1.385 . S
C1650 C1649 1.374 . S
C1651 C1648 1.499 . S
C1651 C1652 1.373 . S
C1651 C1653 1.389 . S
C1652 H1625 0.950 . S
C1652 C1638 1.377 . S
C1652 C1651 1.373 . S
C1653 C1637 1.377 . S
C1653 C1651 1.389 . S
C1653 C1654 1.524 1_554 S
C1654 C1653 1.524 1_556 S
C1654 C1655 1.397 . S
C1654 C1659 1.363 . S
C1655 H1626 0.950 . S
C1655 C1654 1.397 . S
C1655 C1656 1.334 . S
C1656 H1627 0.950 . S
C1656 C1655 1.334 . S
C1656 C1657 1.287 . S
C1657 C1656 1.287 . S
C1657 C1658 1.524 . S
C1657 H1660 0.999 . S
C1658 H1628 0.950 . S
C1658 C1657 1.524 . S
C1658 C1659 1.415 . S
C1659 H1629 0.950 . S
C1659 C1654 1.363 . S
C1659 C1658 1.415 . S
H1660 C1657 0.999 . S
H1661 C1642 0.913 . S
H1662 C1680 0.951 . S
H1663 C1682 0.951 . S
H1664 C1684 0.950 . S
H1665 C1685 0.950 . S
H1666 C1687 0.950 . S
H1667 C1690 0.950 . S
H1668 C1691 0.950 . S
H1669 C1693 0.950 . S
H1670 C1694 0.950 . S
H1671 C1695 0.951 . S
H1672 C1697 0.951 . S
H1673 C1699 0.950 . S
H1674 C1700 0.950 . S
H1675 C1702 0.950 . S
H1676 C1705 0.950 . S
H1677 C1706 0.950 . S
H1678 C1708 0.950 . S
H1679 C1709 0.950 . S
C1680 H1662 0.951 . S
C1680 C1681 1.366 . S
C1680 C1682 1.388 . S
C1681 C1680 1.366 . S
C1681 C1685 1.385 . S
C1682 H1663 0.951 . S
C1682 C1680 1.388 . S
C1682 C1683 1.366 . S
C1683 C1682 1.366 . S
C1683 C1684 1.414 . S
C1683 C1686 1.499 . S
C1684 H1664 0.950 . S
C1684 C1683 1.414 . S
C1684 C1685 1.374 . S
C1685 H1665 0.950 . S
C1685 C1681 1.385 . S
C1685 C1684 1.374 . S
C1686 C1683 1.499 . S
C1686 C1687 1.373 . S
C1686 C1688 1.389 . S
C1687 H1666 0.950 . S
C1687 C1686 1.373 . S
C1687 C1703 1.377 . S
C1688 C1686 1.389 . S
C1688 C1689 1.524 . S
C1688 C1702 1.377 . S
C1689 C1688 1.524 . S
C1689 C1690 1.397 . S
C1689 C1694 1.363 . S
C1690 H1667 0.950 . S
C1690 C1689 1.397 . S
C1690 C1691 1.334 . S
C1691 H1668 0.950 . S
C1691 C1690 1.334 . S
C1691 C1692 1.287 . S
C1692 C1691 1.287 . S
C1692 C1693 1.524 . S
C1692 H1711 0.913 . S
C1693 H1669 0.950 . S
C1693 C1692 1.524 . S
C1693 C1694 1.415 . S
C1694 H1670 0.950 . S
C1694 C1689 1.363 . S
C1694 C1693 1.415 . S
C1695 H1671 0.951 . S
C1695 C1696 1.366 . S
C1695 C1697 1.388 . S
C1696 C1695 1.366 . S
C1696 C1700 1.385 . S
C1697 H1672 0.951 . S
C1697 C1695 1.388 . S
C1697 C1698 1.366 . S
C1698 C1697 1.366 . S
C1698 C1699 1.414 . S
C1698 C1701 1.499 . S
C1699 H1673 0.950 . S
C1699 C1698 1.414 . S
C1699 C1700 1.374 . S
C1700 H1674 0.950 . S
C1700 C1696 1.385 . S
C1700 C1699 1.374 . S
C1701 C1698 1.499 . S
C1701 C1702 1.373 . S
C1701 C1703 1.389 . S
C1702 H1675 0.950 . S
C1702 C1688 1.377 . S
C1702 C1701 1.373 . S
C1703 C1687 1.377 . S
C1703 C1701 1.389 . S
C1703 C1704 1.524 . S
C1704 C1703 1.524 . S
C1704 C1705 1.397 . S
C1704 C1709 1.363 . S
C1705 H1676 0.950 . S
C1705 C1704 1.397 . S
C1705 C1706 1.334 . S
C1706 H1677 0.950 . S
C1706 C1705 1.334 . S
C1706 C1707 1.287 . S
C1707 C1706 1.287 . S
C1707 C1708 1.524 . S
C1707 H1710 0.999 . S
C1708 H1678 0.950 . S
C1708 C1707 1.524 . S
C1708 C1709 1.415 . S
C1709 H1679 0.950 . S
C1709 C1704 1.363 . S
C1709 C1708 1.415 . S
H1710 C1707 0.999 . S
H1711 C1692 0.913 . S
H1712 C1730 0.951 . S
H1713 C1732 0.951 . S
H1714 C1734 0.950 . S
H1715 C1735 0.950 . S
H1716 C1737 0.950 . S
H1717 C1740 0.950 . S
H1718 C1741 0.950 . S
H1719 C1743 0.950 . S
H1720 C1744 0.950 . S
H1721 C1745 0.951 . S
H1722 C1747 0.951 . S
H1723 C1749 0.950 . S
H1724 C1750 0.950 . S
H1725 C1752 0.950 . S
H1726 C1755 0.950 . S
H1727 C1756 0.950 . S
H1728 C1758 0.950 . S
H1729 C1759 0.950 . S
C1730 H1712 0.951 . S
C1730 C1731 1.366 . S
C1730 C1732 1.388 . S
C1731 C1730 1.366 . S
C1731 C1735 1.385 . S
C1732 H1713 0.951 . S
C1732 C1730 1.388 . S
C1732 C1733 1.366 . S
C1733 C1732 1.366 . S
C1733 C1734 1.414 . S
C1733 C1736 1.499 . S
C1734 H1714 0.950 . S
C1734 C1733 1.414 . S
C1734 C1735 1.374 . S
C1735 H1715 0.950 . S
C1735 C1731 1.385 . S
C1735 C1734 1.374 . S
C1736 C1733 1.499 . S
C1736 C1737 1.373 . S
C1736 C1738 1.389 . S
C1737 H1716 0.950 . S
C1737 C1736 1.373 . S
C1737 C1753 1.377 . S
C1738 C1736 1.389 . S
C1738 C1739 1.524 . S
C1738 C1752 1.377 . S
C1739 C1738 1.524 . S
C1739 C1740 1.397 . S
C1739 C1744 1.363 . S
C1740 H1717 0.950 . S
C1740 C1739 1.397 . S
C1740 C1741 1.334 . S
C1741 H1718 0.950 . S
C1741 C1740 1.334 . S
C1741 C1742 1.287 . S
C1742 C1741 1.287 . S
C1742 C1743 1.524 . S
C1742 H1761 0.913 . S
C1743 H1719 0.950 . S
C1743 C1742 1.524 . S
C1743 C1744 1.415 . S
C1744 H1720 0.950 . S
C1744 C1739 1.363 . S
C1744 C1743 1.415 . S
C1745 H1721 0.951 . S
C1745 C1746 1.366 . S
C1745 C1747 1.388 . S
C1746 C1745 1.366 . S
C1746 C1750 1.385 . S
C1747 H1722 0.951 . S
C1747 C1745 1.388 . S
C1747 C1748 1.366 . S
C1748 C1747 1.366 . S
C1748 C1749 1.414 . S
C1748 C1751 1.499 . S
C1749 H1723 0.950 . S
C1749 C1748 1.414 . S
C1749 C1750 1.374 . S
C1750 H1724 0.950 . S
C1750 C1746 1.385 . S
C1750 C1749 1.374 . S
C1751 C1748 1.499 . S
C1751 C1752 1.373 . S
C1751 C1753 1.389 . S
C1752 H1725 0.950 . S
C1752 C1738 1.377 . S
C1752 C1751 1.373 . S
C1753 C1737 1.377 . S
C1753 C1751 1.389 . S
C1753 C1754 1.524 . S
C1754 C1753 1.524 . S
C1754 C1755 1.397 . S
C1754 C1759 1.363 . S
C1755 H1726 0.950 . S
C1755 C1754 1.397 . S
C1755 C1756 1.334 . S
C1756 H1727 0.950 . S
C1756 C1755 1.334 . S
C1756 C1757 1.287 . S
C1757 C1756 1.287 . S
C1757 C1758 1.524 . S
C1757 H1760 0.999 . S
C1758 H1728 0.950 . S
C1758 C1757 1.524 . S
C1758 C1759 1.415 . S
C1759 H1729 0.950 . S
C1759 C1754 1.363 . S
C1759 C1758 1.415 . S
H1760 C1757 0.999 . S
H1761 C1742 0.913 . S
H1762 C1780 0.951 . S
H1763 C1782 0.951 . S
H1764 C1784 0.950 . S
H1765 C1785 0.950 . S
H1766 C1787 0.950 . S
H1767 C1790 0.950 . S
H1768 C1791 0.950 . S
H1769 C1793 0.950 . S
H1770 C1794 0.950 . S
H1771 C1795 0.951 . S
H1772 C1797 0.951 . S
H1773 C1799 0.950 . S
H1774 C1800 0.950 . S
H1775 C1802 0.950 . S
H1776 C1805 0.950 . S
H1777 C1806 0.950 . S
H1778 C1808 0.950 . S
H1779 C1809 0.950 . S
C1780 H1762 0.951 . S
C1780 C1781 1.366 . S
C1780 C1782 1.388 . S
C1781 C1780 1.366 . S
C1781 C1785 1.385 . S
C1782 H1763 0.951 . S
C1782 C1780 1.388 . S
C1782 C1783 1.366 . S
C1783 C1782 1.366 . S
C1783 C1784 1.414 . S
C1783 C1786 1.499 . S
C1784 H1764 0.950 . S
C1784 C1783 1.414 . S
C1784 C1785 1.374 . S
C1785 H1765 0.950 . S
C1785 C1781 1.385 . S
C1785 C1784 1.374 . S
C1786 C1783 1.499 . S
C1786 C1787 1.373 . S
C1786 C1788 1.389 . S
C1787 H1766 0.950 . S
C1787 C1786 1.373 . S
C1787 C1803 1.377 . S
C1788 C1786 1.389 . S
C1788 C1789 1.524 . S
C1788 C1802 1.377 . S
C1789 C1788 1.524 . S
C1789 C1790 1.397 . S
C1789 C1794 1.363 . S
C1790 H1767 0.950 . S
C1790 C1789 1.397 . S
C1790 C1791 1.334 . S
C1791 H1768 0.950 . S
C1791 C1790 1.334 . S
C1791 C1792 1.287 . S
C1792 C1791 1.287 . S
C1792 C1793 1.524 . S
C1792 H1811 0.913 . S
C1793 H1769 0.950 . S
C1793 C1792 1.524 . S
C1793 C1794 1.415 . S
C1794 H1770 0.950 . S
C1794 C1789 1.363 . S
C1794 C1793 1.415 . S
C1795 H1771 0.951 . S
C1795 C1796 1.366 . S
C1795 C1797 1.388 . S
C1796 C1795 1.366 . S
C1796 C1800 1.385 . S
C1797 H1772 0.951 . S
C1797 C1795 1.388 . S
C1797 C1798 1.366 . S
C1798 C1797 1.366 . S
C1798 C1799 1.414 . S
C1798 C1801 1.499 . S
C1799 H1773 0.950 . S
C1799 C1798 1.414 . S
C1799 C1800 1.374 . S
C1800 H1774 0.950 . S
C1800 C1796 1.385 . S
C1800 C1799 1.374 . S
C1801 C1798 1.499 . S
C1801 C1802 1.373 . S
C1801 C1803 1.389 . S
C1802 H1775 0.950 . S
C1802 C1788 1.377 . S
C1802 C1801 1.373 . S
C1803 C1787 1.377 . S
C1803 C1801 1.389 . S
C1803 C1804 1.524 . S
C1804 C1803 1.524 . S
C1804 C1805 1.397 . S
C1804 C1809 1.363 . S
C1805 H1776 0.950 . S
C1805 C1804 1.397 . S
C1805 C1806 1.334 . S
C1806 H1777 0.950 . S
C1806 C1805 1.334 . S
C1806 C1807 1.287 . S
C1807 C1806 1.287 . S
C1807 C1808 1.524 . S
C1807 H1810 0.999 . S
C1808 H1778 0.950 . S
C1808 C1807 1.524 . S
C1808 C1809 1.415 . S
C1809 H1779 0.950 . S
C1809 C1804 1.363 . S
C1809 C1808 1.415 . S
H1810 C1807 0.999 . S
H1811 C1792 0.913 . S
H1812 C1830 0.951 . S
H1813 C1832 0.951 . S
H1814 C1834 0.950 . S
H1815 C1835 0.950 . S
H1816 C1837 0.950 . S
H1817 C1840 0.950 . S
H1818 C1841 0.950 . S
H1819 C1843 0.950 . S
H1820 C1844 0.950 . S
H1821 C1845 0.951 . S
H1822 C1847 0.951 . S
H1823 C1849 0.950 . S
H1824 C1850 0.950 . S
H1825 C1852 0.950 . S
H1826 C1855 0.950 . S
H1827 C1856 0.950 . S
H1828 C1858 0.950 . S
H1829 C1859 0.950 . S
C1830 H1812 0.951 . S
C1830 C1831 1.366 . S
C1830 C1832 1.388 . S
C1831 C1830 1.366 . S
C1831 C1835 1.385 . S
C1832 H1813 0.951 . S
C1832 C1830 1.388 . S
C1832 C1833 1.366 . S
C1833 C1832 1.366 . S
C1833 C1834 1.414 . S
C1833 C1836 1.499 . S
C1834 H1814 0.950 . S
C1834 C1833 1.414 . S
C1834 C1835 1.374 . S
C1835 H1815 0.950 . S
C1835 C1831 1.385 . S
C1835 C1834 1.374 . S
C1836 C1833 1.499 . S
C1836 C1837 1.373 . S
C1836 C1838 1.389 . S
C1837 H1816 0.950 . S
C1837 C1836 1.373 . S
C1837 C1853 1.377 . S
C1838 C1836 1.389 . S
C1838 C1839 1.524 . S
C1838 C1852 1.377 . S
C1839 C1838 1.524 . S
C1839 C1840 1.397 . S
C1839 C1844 1.363 . S
C1840 H1817 0.950 . S
C1840 C1839 1.397 . S
C1840 C1841 1.334 . S
C1841 H1818 0.950 . S
C1841 C1840 1.334 . S
C1841 C1842 1.287 . S
C1842 C1841 1.287 . S
C1842 C1843 1.524 . S
C1842 H1861 0.913 . S
C1843 H1819 0.950 . S
C1843 C1842 1.524 . S
C1843 C1844 1.415 . S
C1844 H1820 0.950 . S
C1844 C1839 1.363 . S
C1844 C1843 1.415 . S
C1845 H1821 0.951 . S
C1845 C1846 1.366 . S
C1845 C1847 1.388 . S
C1846 C1845 1.366 . S
C1846 C1850 1.385 . S
C1847 H1822 0.951 . S
C1847 C1845 1.388 . S
C1847 C1848 1.366 . S
C1848 C1847 1.366 . S
C1848 C1849 1.414 . S
C1848 C1851 1.499 . S
C1849 H1823 0.950 . S
C1849 C1848 1.414 . S
C1849 C1850 1.374 . S
C1850 H1824 0.950 . S
C1850 C1846 1.385 . S
C1850 C1849 1.374 . S
C1851 C1848 1.499 . S
C1851 C1852 1.373 . S
C1851 C1853 1.389 . S
C1852 H1825 0.950 . S
C1852 C1838 1.377 . S
C1852 C1851 1.373 . S
C1853 C1837 1.377 . S
C1853 C1851 1.389 . S
C1853 C1854 1.524 . S
C1854 C1853 1.524 . S
C1854 C1855 1.397 . S
C1854 C1859 1.363 . S
C1855 H1826 0.950 . S
C1855 C1854 1.397 . S
C1855 C1856 1.334 . S
C1856 H1827 0.950 . S
C1856 C1855 1.334 . S
C1856 C1857 1.287 . S
C1857 C1856 1.287 . S
C1857 C1858 1.524 . S
C1857 H1860 0.999 . S
C1858 H1828 0.950 . S
C1858 C1857 1.524 . S
C1858 C1859 1.415 . S
C1859 H1829 0.950 . S
C1859 C1854 1.363 . S
C1859 C1858 1.415 . S
H1860 C1857 0.999 . S
H1861 C1842 0.913 . S
H1862 C1880 0.951 . S
H1863 C1882 0.951 . S
H1864 C1884 0.950 . S
H1865 C1885 0.950 . S
H1866 C1887 0.950 . S
H1867 C1890 0.950 . S
H1868 C1891 0.950 . S
H1869 C1893 0.950 . S
H1870 C1894 0.950 . S
H1871 C1895 0.951 . S
H1872 C1897 0.951 . S
H1873 C1899 0.950 . S
H1874 C1900 0.950 . S
H1875 C1902 0.950 . S
H1876 C1905 0.950 . S
H1877 C1906 0.950 . S
H1878 C1908 0.950 . S
H1879 C1909 0.950 . S
C1880 H1862 0.951 . S
C1880 C1881 1.366 . S
C1880 C1882 1.388 . S
C1881 C1880 1.366 . S
C1881 C1885 1.385 . S
C1882 H1863 0.951 . S
C1882 C1880 1.388 . S
C1882 C1883 1.366 . S
C1883 C1882 1.366 . S
C1883 C1884 1.414 . S
C1883 C1886 1.499 . S
C1884 H1864 0.950 . S
C1884 C1883 1.414 . S
C1884 C1885 1.374 . S
C1885 H1865 0.950 . S
C1885 C1881 1.385 . S
C1885 C1884 1.374 . S
C1886 C1883 1.499 . S
C1886 C1887 1.373 . S
C1886 C1888 1.389 . S
C1887 H1866 0.950 . S
C1887 C1886 1.373 . S
C1887 C1903 1.377 . S
C1888 C1886 1.389 . S
C1888 C1889 1.524 . S
C1888 C1902 1.377 . S
C1889 C1888 1.524 . S
C1889 C1890 1.397 . S
C1889 C1894 1.363 . S
C1890 H1867 0.950 . S
C1890 C1889 1.397 . S
C1890 C1891 1.334 . S
C1891 H1868 0.950 . S
C1891 C1890 1.334 . S
C1891 C1892 1.287 . S
C1892 C1891 1.287 . S
C1892 C1893 1.524 . S
C1892 H1911 0.913 . S
C1893 H1869 0.950 . S
C1893 C1892 1.524 . S
C1893 C1894 1.415 . S
C1894 H1870 0.950 . S
C1894 C1889 1.363 . S
C1894 C1893 1.415 . S
C1895 H1871 0.951 . S
C1895 C1896 1.366 . S
C1895 C1897 1.388 . S
C1896 C1895 1.366 . S
C1896 C1900 1.385 . S
C1897 H1872 0.951 . S
C1897 C1895 1.388 . S
C1897 C1898 1.366 . S
C1898 C1897 1.366 . S
C1898 C1899 1.414 . S
C1898 C1901 1.499 . S
C1899 H1873 0.950 . S
C1899 C1898 1.414 . S
C1899 C1900 1.374 . S
C1900 H1874 0.950 . S
C1900 C1896 1.385 . S
C1900 C1899 1.374 . S
C1901 C1898 1.499 . S
C1901 C1902 1.373 . S
C1901 C1903 1.389 . S
C1902 H1875 0.950 . S
C1902 C1888 1.377 . S
C1902 C1901 1.373 . S
C1903 C1887 1.377 . S
C1903 C1901 1.389 . S
C1903 C1904 1.524 . S
C1904 C1903 1.524 . S
C1904 C1905 1.397 . S
C1904 C1909 1.363 . S
C1905 H1876 0.950 . S
C1905 C1904 1.397 . S
C1905 C1906 1.334 . S
C1906 H1877 0.950 . S
C1906 C1905 1.334 . S
C1906 C1907 1.287 . S
C1907 C1906 1.287 . S
C1907 C1908 1.524 . S
C1907 H1910 0.999 . S
C1908 H1878 0.950 . S
C1908 C1907 1.524 . S
C1908 C1909 1.415 . S
C1909 H1879 0.950 . S
C1909 C1904 1.363 . S
C1909 C1908 1.415 . S
H1910 C1907 0.999 . S
H1911 C1892 0.913 . S
H1912 C1930 0.951 . S
H1913 C1932 0.951 . S
H1914 C1934 0.950 . S
H1915 C1935 0.950 . S
H1916 C1937 0.950 . S
H1917 C1940 0.950 . S
H1918 C1941 0.950 . S
H1919 C1943 0.950 . S
H1920 C1944 0.950 . S
H1921 C1945 0.951 . S
H1922 C1947 0.951 . S
H1923 C1949 0.950 . S
H1924 C1950 0.950 . S
H1925 C1952 0.950 . S
H1926 C1955 0.950 . S
H1927 C1956 0.950 . S
H1928 C1958 0.950 . S
H1929 C1959 0.950 . S
C1930 H1912 0.951 . S
C1930 C1931 1.366 . S
C1930 C1932 1.388 . S
C1931 C1930 1.366 . S
C1931 C1935 1.385 . S
C1932 H1913 0.951 . S
C1932 C1930 1.388 . S
C1932 C1933 1.366 . S
C1933 C1932 1.366 . S
C1933 C1934 1.414 . S
C1933 C1936 1.499 . S
C1934 H1914 0.950 . S
C1934 C1933 1.414 . S
C1934 C1935 1.374 . S
C1935 H1915 0.950 . S
C1935 C1931 1.385 . S
C1935 C1934 1.374 . S
C1936 C1933 1.499 . S
C1936 C1937 1.373 . S
C1936 C1938 1.389 . S
C1937 H1916 0.950 . S
C1937 C1936 1.373 . S
C1937 C1953 1.377 . S
C1938 C1936 1.389 . S
C1938 C1939 1.524 . S
C1938 C1952 1.377 . S
C1939 C1938 1.524 . S
C1939 C1940 1.397 . S
C1939 C1944 1.363 . S
C1940 H1917 0.950 . S
C1940 C1939 1.397 . S
C1940 C1941 1.334 . S
C1941 H1918 0.950 . S
C1941 C1940 1.334 . S
C1941 C1942 1.287 . S
C1942 C1941 1.287 . S
C1942 C1943 1.524 . S
C1942 H1961 0.922 . S
C1943 H1919 0.950 . S
C1943 C1942 1.524 . S
C1943 C1944 1.415 . S
C1944 H1920 0.950 . S
C1944 C1939 1.363 . S
C1944 C1943 1.415 . S
C1945 H1921 0.951 . S
C1945 C1946 1.366 . S
C1945 C1947 1.388 . S
C1946 C1945 1.366 . S
C1946 C1950 1.385 . S
C1947 H1922 0.951 . S
C1947 C1945 1.388 . S
C1947 C1948 1.366 . S
C1948 C1947 1.366 . S
C1948 C1949 1.414 . S
C1948 C1951 1.499 . S
C1949 H1923 0.950 . S
C1949 C1948 1.414 . S
C1949 C1950 1.374 . S
C1950 H1924 0.950 . S
C1950 C1946 1.385 . S
C1950 C1949 1.374 . S
C1951 C1948 1.499 . S
C1951 C1952 1.373 . S
C1951 C1953 1.389 . S
C1952 H1925 0.950 . S
C1952 C1938 1.377 . S
C1952 C1951 1.373 . S
C1953 C1937 1.377 . S
C1953 C1951 1.389 . S
C1953 C1954 1.524 . S
C1954 C1953 1.524 . S
C1954 C1955 1.397 . S
C1954 C1959 1.363 . S
C1955 H1926 0.950 . S
C1955 C1954 1.397 . S
C1955 C1956 1.334 . S
C1956 H1927 0.950 . S
C1956 C1955 1.334 . S
C1956 C1957 1.287 . S
C1957 C1956 1.287 . S
C1957 C1958 1.524 . S
C1957 H1960 0.999 . S
C1958 H1928 0.950 . S
C1958 C1957 1.524 . S
C1958 C1959 1.415 . S
C1959 H1929 0.950 . S
C1959 C1954 1.363 . S
C1959 C1958 1.415 . S
H1960 C1957 0.999 . S
H1961 C1942 0.922 . S
H1962 C1980 0.951 . S
H1963 C1982 0.951 . S
H1964 C1984 0.950 . S
H1965 C1985 0.950 . S
H1966 C1987 0.950 . S
H1967 C1990 0.950 . S
H1968 C1991 0.950 . S
H1969 C1993 0.950 . S
H1970 C1994 0.950 . S
H1971 C1995 0.951 . S
H1972 C1997 0.951 . S
H1973 C1999 0.950 . S
H1974 C2000 0.950 . S
H1975 C2002 0.950 . S
H1976 C2005 0.950 . S
H1977 C2006 0.950 . S
H1978 C2008 0.950 . S
H1979 C2009 0.950 . S
C1980 H1962 0.951 . S
C1980 C1981 1.366 . S
C1980 C1982 1.388 . S
C1981 C1980 1.366 . S
C1981 C1985 1.385 . S
C1982 H1963 0.951 . S
C1982 C1980 1.388 . S
C1982 C1983 1.366 . S
C1983 C1982 1.366 . S
C1983 C1984 1.414 . S
C1983 C1986 1.499 . S
C1984 H1964 0.950 . S
C1984 C1983 1.414 . S
C1984 C1985 1.374 . S
C1985 H1965 0.950 . S
C1985 C1981 1.385 . S
C1985 C1984 1.374 . S
C1986 C1983 1.499 . S
C1986 C1987 1.373 . S
C1986 C1988 1.389 . S
C1987 H1966 0.950 . S
C1987 C1986 1.373 . S
C1987 C2003 1.377 . S
C1988 C1986 1.389 . S
C1988 C1989 1.524 . S
C1988 C2002 1.377 . S
C1989 C1988 1.524 . S
C1989 C1990 1.397 . S
C1989 C1994 1.363 . S
C1990 H1967 0.950 . S
C1990 C1989 1.397 . S
C1990 C1991 1.334 . S
C1991 H1968 0.950 . S
C1991 C1990 1.334 . S
C1991 C1992 1.287 . S
C1992 C1991 1.287 . S
C1992 C1993 1.524 . S
C1992 H2011 0.913 . S
C1993 H1969 0.950 . S
C1993 C1992 1.524 . S
C1993 C1994 1.415 . S
C1994 H1970 0.950 . S
C1994 C1989 1.363 . S
C1994 C1993 1.415 . S
C1995 H1971 0.951 . S
C1995 C1996 1.366 . S
C1995 C1997 1.388 . S
C1996 C1995 1.366 . S
C1996 C2000 1.385 . S
C1997 H1972 0.951 . S
C1997 C1995 1.388 . S
C1997 C1998 1.366 . S
C1998 C1997 1.366 . S
C1998 C1999 1.414 . S
C1998 C2001 1.499 . S
C1999 H1973 0.950 . S
C1999 C1998 1.414 . S
C1999 C2000 1.374 . S
C2000 H1974 0.950 . S
C2000 C1996 1.385 . S
C2000 C1999 1.374 . S
C2001 C1998 1.499 . S
C2001 C2002 1.373 . S
C2001 C2003 1.389 . S
C2002 H1975 0.950 . S
C2002 C1988 1.377 . S
C2002 C2001 1.373 . S
C2003 C1987 1.377 . S
C2003 C2001 1.389 . S
C2003 C2004 1.524 . S
C2004 C2003 1.524 . S
C2004 C2005 1.397 . S
C2004 C2009 1.363 . S
C2005 H1976 0.950 . S
C2005 C2004 1.397 . S
C2005 C2006 1.334 . S
C2006 H1977 0.950 . S
C2006 C2005 1.334 . S
C2006 C2007 1.287 . S
C2007 C2006 1.287 . S
C2007 C2008 1.524 . S
C2007 H2010 0.999 . S
C2008 H1978 0.950 . S
C2008 C2007 1.524 . S
C2008 C2009 1.415 . S
C2009 H1979 0.950 . S
C2009 C2004 1.363 . S
C2009 C2008 1.415 . S
H2010 C2007 0.999 . S
H2011 C1992 0.913 . S
H2012 C2030 0.951 . S
H2013 C2032 0.951 . S
H2014 C2034 0.950 . S
H2015 C2035 0.950 . S
H2016 C2037 0.950 . S
H2017 C2040 0.950 . S
H2018 C2041 0.950 . S
H2019 C2043 0.950 . S
H2020 C2044 0.950 . S
H2021 C2045 0.951 . S
H2022 C2047 0.951 . S
H2023 C2049 0.950 . S
H2024 C2050 0.950 . S
H2025 C2052 0.950 . S
H2026 C2055 0.950 . S
H2027 C2056 0.950 . S
H2028 C2058 0.950 . S
H2029 C2059 0.950 . S
C2030 H2012 0.951 . S
C2030 C2031 1.366 . S
C2030 C2032 1.388 . S
C2031 C2030 1.366 . S
C2031 C2035 1.385 . S
C2032 H2013 0.951 . S
C2032 C2030 1.388 . S
C2032 C2033 1.366 . S
C2033 C2032 1.366 . S
C2033 C2034 1.414 . S
C2033 C2036 1.499 . S
C2034 H2014 0.950 . S
C2034 C2033 1.414 . S
C2034 C2035 1.374 . S
C2035 H2015 0.950 . S
C2035 C2031 1.385 . S
C2035 C2034 1.374 . S
C2036 C2033 1.499 . S
C2036 C2037 1.373 . S
C2036 C2038 1.389 . S
C2037 H2016 0.950 . S
C2037 C2036 1.373 . S
C2037 C2053 1.377 . S
C2038 C2036 1.389 . S
C2038 C2039 1.524 . S
C2038 C2052 1.377 . S
C2039 C2038 1.524 . S
C2039 C2040 1.397 . S
C2039 C2044 1.363 . S
C2040 H2017 0.950 . S
C2040 C2039 1.397 . S
C2040 C2041 1.334 . S
C2041 H2018 0.950 . S
C2041 C2040 1.334 . S
C2041 C2042 1.287 . S
C2042 C2041 1.287 . S
C2042 C2043 1.524 . S
C2042 H2061 0.913 . S
C2043 H2019 0.950 . S
C2043 C2042 1.524 . S
C2043 C2044 1.415 . S
C2044 H2020 0.950 . S
C2044 C2039 1.363 . S
C2044 C2043 1.415 . S
C2045 H2021 0.951 . S
C2045 C2046 1.366 . S
C2045 C2047 1.388 . S
C2046 C2045 1.366 . S
C2046 C2050 1.385 . S
C2047 H2022 0.951 . S
C2047 C2045 1.388 . S
C2047 C2048 1.366 . S
C2048 C2047 1.366 . S
C2048 C2049 1.414 . S
C2048 C2051 1.499 . S
C2049 H2023 0.950 . S
C2049 C2048 1.414 . S
C2049 C2050 1.374 . S
C2050 H2024 0.950 . S
C2050 C2046 1.385 . S
C2050 C2049 1.374 . S
C2051 C2048 1.499 . S
C2051 C2052 1.373 . S
C2051 C2053 1.389 . S
C2052 H2025 0.950 . S
C2052 C2038 1.377 . S
C2052 C2051 1.373 . S
C2053 C2037 1.377 . S
C2053 C2051 1.389 . S
C2053 C2054 1.524 . S
C2054 C2053 1.524 . S
C2054 C2055 1.397 . S
C2054 C2059 1.363 . S
C2055 H2026 0.950 . S
C2055 C2054 1.397 . S
C2055 C2056 1.334 . S
C2056 H2027 0.950 . S
C2056 C2055 1.334 . S
C2056 C2057 1.287 . S
C2057 C2056 1.287 . S
C2057 C2058 1.524 . S
C2057 H2060 0.999 . S
C2058 H2028 0.950 . S
C2058 C2057 1.524 . S
C2058 C2059 1.415 . S
C2059 H2029 0.950 . S
C2059 C2054 1.363 . S
C2059 C2058 1.415 . S
H2060 C2057 0.999 . S
H2061 C2042 0.913 . S
H2062 C2080 0.951 . S
H2063 C2082 1.044 . S
H2064 C2084 0.950 . S
H2065 C2085 0.950 . S
H2066 C2087 0.950 . S
H2067 C2090 0.950 1_545 S
H2068 C2091 0.950 . S
H2069 C2093 0.950 . S
H2070 C2094 0.950 . S
H2071 C2095 0.979 . S
H2072 C2097 0.989 . S
H2073 C2099 0.950 . S
H2074 C2100 0.950 . S
H2075 C2102 0.950 . S
H2076 C2105 0.950 . S
H2077 C2106 0.950 . S
H2078 C2108 0.950 . S
H2079 C2109 0.950 . S
C2080 H2062 0.951 . S
C2080 C2081 1.366 . S
C2080 C2082 1.388 . S
C2081 C2080 1.366 . S
C2081 C2085 1.385 . S
C2082 H2063 1.044 . S
C2082 C2080 1.388 . S
C2082 C2083 1.366 . S
C2083 C2082 1.366 . S
C2083 C2084 1.414 . S
C2083 C2086 1.499 . S
C2084 H2064 0.950 . S
C2084 C2083 1.414 . S
C2084 C2085 1.374 . S
C2085 H2065 0.950 . S
C2085 C2081 1.385 . S
C2085 C2084 1.374 . S
C2086 C2083 1.499 . S
C2086 C2087 1.373 . S
C2086 C2088 1.389 1_545 S
C2087 H2066 0.950 . S
C2087 C2086 1.373 . S
C2087 C2103 1.377 . S
C2088 C2086 1.389 1_565 S
C2088 C2089 1.524 . S
C2088 C2102 1.377 . S
C2089 C2088 1.524 . S
C2089 C2090 1.397 . S
C2089 C2094 1.363 . S
C2090 H2067 0.950 1_565 S
C2090 C2089 1.397 . S
C2090 C2091 1.334 . S
C2091 H2068 0.950 . S
C2091 C2090 1.334 . S
C2091 C2092 1.287 . S
C2092 C2091 1.287 . S
C2092 C2093 1.524 . S
C2092 H2111 0.913 . S
C2093 H2069 0.950 . S
C2093 C2092 1.524 . S
C2093 C2094 1.415 . S
C2094 H2070 0.950 . S
C2094 C2089 1.363 . S
C2094 C2093 1.415 . S
C2095 H2071 0.979 . S
C2095 C2096 1.366 . S
C2095 C2097 1.395 1_565 S
C2096 C2095 1.366 . S
C2096 C2100 1.385 . S
C2097 H2072 0.989 . S
C2097 C2095 1.395 1_545 S
C2097 C2098 1.322 1_545 S
C2098 C2097 1.322 1_565 S
C2098 C2099 1.414 . S
C2098 C2101 1.492 . S
C2099 H2073 0.950 . S
C2099 C2098 1.414 . S
C2099 C2100 1.374 . S
C2100 H2074 0.950 . S
C2100 C2096 1.385 . S
C2100 C2099 1.374 . S
C2101 C2098 1.492 . S
C2101 C2102 1.407 . S
C2101 C2103 1.362 1_565 S
C2102 H2075 0.950 . S
C2102 C2088 1.377 . S
C2102 C2101 1.407 . S
C2103 C2087 1.377 . S
C2103 C2101 1.362 1_545 S
C2103 C2104 1.524 . S
C2104 C2103 1.524 . S
C2104 C2105 1.397 . S
C2104 C2109 1.363 . S
C2105 H2076 0.950 . S
C2105 C2104 1.397 . S
C2105 C2106 1.334 . S
C2106 H2077 0.950 . S
C2106 C2105 1.334 . S
C2106 C2107 1.287 . S
C2107 C2106 1.287 . S
C2107 C2108 1.524 . S
C2107 H2110 0.999 . S
C2108 H2078 0.950 . S
C2108 C2107 1.524 . S
C2108 C2109 1.415 . S
C2109 H2079 0.950 . S
C2109 C2104 1.363 . S
C2109 C2108 1.415 . S
H2110 C2107 0.999 . S
H2111 C2092 0.913 . S
H2112 C2130 0.951 . S
H2113 C2132 0.951 . S
H2114 C2134 0.950 . S
H2115 C2135 0.950 . S
H2116 C2137 0.950 . S
H2117 C2140 0.950 . S
H2118 C2141 0.950 . S
H2119 C2143 0.950 . S
H2120 C2144 0.950 . S
H2121 C2145 0.951 . S
H2122 C2147 0.951 . S
H2123 C2149 0.950 . S
H2124 C2150 0.950 . S
H2125 C2152 0.950 . S
H2126 C2155 0.950 . S
H2127 C2156 0.950 . S
H2128 C2158 0.950 . S
H2129 C2159 0.950 . S
C2130 H2112 0.951 . S
C2130 C2131 1.366 . S
C2130 C2132 1.388 . S
C2131 C2130 1.366 . S
C2131 C2135 1.385 1_554 S
C2132 H2113 0.951 . S
C2132 C2130 1.388 . S
C2132 C2133 1.366 1_554 S
C2133 C2132 1.366 1_556 S
C2133 C2134 1.414 . S
C2133 C2136 1.499 . S
C2134 H2114 0.950 . S
C2134 C2133 1.414 . S
C2134 C2135 1.374 . S
C2135 H2115 0.950 . S
C2135 C2131 1.385 1_556 S
C2135 C2134 1.374 . S
C2136 C2133 1.499 . S
C2136 C2137 1.373 . S
C2136 C2138 1.389 . S
C2137 H2116 0.950 . S
C2137 C2136 1.373 . S
C2137 C2153 1.377 . S
C2138 C2136 1.389 . S
C2138 C2139 1.524 . S
C2138 C2152 1.377 . S
C2139 C2138 1.524 . S
C2139 C2140 1.397 . S
C2139 C2144 1.363 1_556 S
C2140 H2117 0.950 . S
C2140 C2139 1.397 . S
C2140 C2141 1.334 . S
C2141 H2118 0.950 . S
C2141 C2140 1.334 . S
C2141 C2142 1.287 1_556 S
C2142 C2141 1.287 1_554 S
C2142 C2143 1.524 . S
C2142 H2161 0.913 . S
C2143 H2119 0.950 . S
C2143 C2142 1.524 . S
C2143 C2144 1.415 . S
C2144 H2120 0.950 . S
C2144 C2139 1.363 1_554 S
C2144 C2143 1.415 . S
C2145 H2121 0.951 . S
C2145 C2146 1.366 . S
C2145 C2147 1.388 . S
C2146 C2145 1.366 . S
C2146 C2150 1.385 . S
C2147 H2122 0.951 . S
C2147 C2145 1.388 . S
C2147 C2148 1.366 . S
C2148 C2147 1.366 . S
C2148 C2149 1.414 . S
C2148 C2151 1.499 . S
C2149 H2123 0.950 . S
C2149 C2148 1.414 . S
C2149 C2150 1.374 . S
C2150 H2124 0.950 . S
C2150 C2146 1.385 . S
C2150 C2149 1.374 . S
C2151 C2148 1.499 . S
C2151 C2152 1.373 . S
C2151 C2153 1.389 . S
C2152 H2125 0.950 . S
C2152 C2138 1.377 . S
C2152 C2151 1.373 . S
C2153 C2137 1.377 . S
C2153 C2151 1.389 . S
C2153 C2154 1.524 . S
C2154 C2153 1.524 . S
C2154 C2155 1.397 . S
C2154 C2159 1.363 . S
C2155 H2126 0.950 . S
C2155 C2154 1.397 . S
C2155 C2156 1.334 . S
C2156 H2127 0.950 . S
C2156 C2155 1.334 . S
C2156 C2157 1.287 . S
C2157 C2156 1.287 . S
C2157 C2158 1.524 . S
C2157 H2160 0.999 . S
C2158 H2128 0.950 . S
C2158 C2157 1.524 . S
C2158 C2159 1.415 . S
C2159 H2129 0.950 . S
C2159 C2154 1.363 . S
C2159 C2158 1.415 . S
H2160 C2157 0.999 . S
H2161 C2142 0.913 . S
H2162 C2180 0.951 . S
H2163 C2182 0.951 . S
H2164 C2184 0.950 . S
H2165 C2185 0.950 . S
H2166 C2187 0.879 1_455 S
H2167 C2190 0.950 . S
H2168 C2191 0.950 . S
H2169 C2193 0.950 . S
H2170 C2194 0.950 . S
H2171 C2195 0.951 . S
H2172 C2197 0.951 . S
H2173 C2199 0.950 . S
H2174 C2200 0.950 . S
H2175 C2202 0.950 . S
H2176 C2205 0.950 . S
H2177 C2206 0.950 . S
H2178 C2208 0.950 1_554 S
H2179 C2209 0.950 1_554 S
C2180 H2162 0.951 . S
C2180 C2181 1.366 1_556 S
C2180 C2182 1.388 . S
C2181 C2180 1.366 1_554 S
C2181 C2185 1.385 . S
C2182 H2163 0.951 . S
C2182 C2180 1.388 . S
C2182 C2183 1.366 . S
C2183 C2182 1.366 . S
C2183 C2184 1.414 1_556 S
C2183 C2186 1.499 1_455 S
C2184 H2164 0.950 . S
C2184 C2183 1.414 1_554 S
C2184 C2185 1.374 . S
C2185 H2165 0.950 . S
C2185 C2181 1.385 . S
C2185 C2184 1.374 . S
C2186 C2183 1.499 1_655 S
C2186 C2187 1.373 . S
C2186 C2188 1.389 . S
C2187 H2166 0.879 1_655 S
C2187 C2186 1.373 . S
C2187 C2203 1.377 . S
C2188 C2186 1.389 . S
C2188 C2189 1.524 . S
C2188 C2202 1.377 . S
C2189 C2188 1.524 . S
C2189 C2190 1.397 . S
C2189 C2194 1.363 . S
C2190 H2167 0.950 . S
C2190 C2189 1.397 . S
C2190 C2191 1.334 . S
C2191 H2168 0.950 . S
C2191 C2190 1.334 . S
C2191 C2192 1.287 . S
C2192 C2191 1.287 . S
C2192 C2193 1.524 . S
C2192 H2211 0.913 . S
C2193 H2169 0.950 . S
C2193 C2192 1.524 . S
C2193 C2194 1.415 . S
C2194 H2170 0.950 . S
C2194 C2189 1.363 . S
C2194 C2193 1.415 . S
C2195 H2171 0.951 . S
C2195 C2196 1.366 . S
C2195 C2197 1.388 . S
C2196 C2195 1.366 . S
C2196 C2200 1.385 . S
C2197 H2172 0.951 . S
C2197 C2195 1.388 . S
C2197 C2198 1.366 . S
C2198 C2197 1.366 . S
C2198 C2199 1.414 . S
C2198 C2201 1.499 . S
C2199 H2173 0.950 . S
C2199 C2198 1.414 . S
C2199 C2200 1.374 . S
C2200 H2174 0.950 . S
C2200 C2196 1.385 . S
C2200 C2199 1.374 . S
C2201 C2198 1.499 . S
C2201 C2202 1.373 . S
C2201 C2203 1.389 . S
C2202 H2175 0.950 . S
C2202 C2188 1.377 . S
C2202 C2201 1.373 . S
C2203 C2187 1.377 . S
C2203 C2201 1.389 . S
C2203 C2204 1.524 . S
C2204 C2203 1.524 . S
C2204 C2205 1.397 . S
C2204 C2209 1.363 . S
C2205 H2176 0.950 . S
C2205 C2204 1.397 . S
C2205 C2206 1.334 . S
C2206 H2177 0.950 . S
C2206 C2205 1.334 . S
C2206 C2207 1.287 . S
C2207 C2206 1.287 . S
C2207 C2208 1.524 . S
C2207 H2210 0.999 . S
C2208 H2178 0.950 1_556 S
C2208 C2207 1.524 . S
C2208 C2209 1.415 . S
C2209 H2179 0.950 1_556 S
C2209 C2204 1.363 . S
C2209 C2208 1.415 . S
H2210 C2207 0.999 . S
H2211 C2192 0.913 . S
H2212 C2230 0.951 . S
H2213 C2232 0.951 . S
H2214 C2234 0.950 . S
H2215 C2235 0.950 . S
H2216 C2237 0.950 . S
H2217 C2240 0.950 . S
H2218 C2241 0.950 . S
H2219 C2243 0.950 . S
H2220 C2244 0.950 . S
H2221 C2245 0.951 . S
H2222 C2247 0.951 . S
H2223 C2249 0.950 . S
H2224 C2250 0.950 . S
H2225 C2252 0.950 . S
H2226 C2255 0.950 . S
H2227 C2256 0.950 . S
H2228 C2258 0.950 . S
H2229 C2259 0.950 . S
C2230 H2212 0.951 . S
C2230 C2231 1.366 . S
C2230 C2232 1.388 . S
C2231 C2230 1.366 . S
C2231 C2235 1.385 . S
C2232 H2213 0.951 . S
C2232 C2230 1.388 . S
C2232 C2233 1.366 . S
C2233 C2232 1.366 . S
C2233 C2234 1.414 . S
C2233 C2236 1.499 . S
C2234 H2214 0.950 . S
C2234 C2233 1.414 . S
C2234 C2235 1.374 . S
C2235 H2215 0.950 . S
C2235 C2231 1.385 . S
C2235 C2234 1.374 . S
C2236 C2233 1.499 . S
C2236 C2237 1.373 . S
C2236 C2238 1.389 . S
C2237 H2216 0.950 . S
C2237 C2236 1.373 . S
C2237 C2253 1.377 . S
C2238 C2236 1.389 . S
C2238 C2239 1.524 . S
C2238 C2252 1.377 . S
C2239 C2238 1.524 . S
C2239 C2240 1.397 . S
C2239 C2244 1.363 . S
C2240 H2217 0.950 . S
C2240 C2239 1.397 . S
C2240 C2241 1.334 . S
C2241 H2218 0.950 . S
C2241 C2240 1.334 . S
C2241 C2242 1.287 . S
C2242 C2241 1.287 . S
C2242 C2243 1.524 . S
C2242 H2261 0.913 . S
C2243 H2219 0.950 . S
C2243 C2242 1.524 . S
C2243 C2244 1.415 . S
C2244 H2220 0.950 . S
C2244 C2239 1.363 . S
C2244 C2243 1.415 . S
C2245 H2221 0.951 . S
C2245 C2246 1.366 . S
C2245 C2247 1.388 . S
C2246 C2245 1.366 . S
C2246 C2250 1.385 . S
C2247 H2222 0.951 . S
C2247 C2245 1.388 . S
C2247 C2248 1.366 1_554 S
C2248 C2247 1.366 1_556 S
C2248 C2249 1.414 . S
C2248 C2251 1.499 . S
C2249 H2223 0.950 . S
C2249 C2248 1.414 . S
C2249 C2250 1.374 1_556 S
C2250 H2224 0.950 . S
C2250 C2246 1.385 . S
C2250 C2249 1.374 1_554 S
C2251 C2248 1.499 . S
C2251 C2252 1.373 . S
C2251 C2253 1.389 . S
C2252 H2225 0.950 . S
C2252 C2238 1.377 . S
C2252 C2251 1.373 . S
C2253 C2237 1.377 . S
C2253 C2251 1.389 . S
C2253 C2254 1.524 . S
C2254 C2253 1.524 . S
C2254 C2255 1.397 . S
C2254 C2259 1.363 . S
C2255 H2226 0.950 . S
C2255 C2254 1.397 . S
C2255 C2256 1.334 . S
C2256 H2227 0.950 . S
C2256 C2255 1.334 . S
C2256 C2257 1.287 . S
C2257 C2256 1.287 . S
C2257 C2258 1.524 . S
C2257 H2260 0.999 . S
C2258 H2228 0.950 . S
C2258 C2257 1.524 . S
C2258 C2259 1.415 . S
C2259 H2229 0.950 . S
C2259 C2254 1.363 . S
C2259 C2258 1.415 . S
H2260 C2257 0.999 . S
H2261 C2242 0.913 . S
H2262 C2280 0.951 . S
H2263 C2282 0.951 . S
H2264 C2284 0.950 . S
H2265 C2285 0.950 . S
H2266 C2287 0.950 . S
H2267 C2290 0.950 1_554 S
H2268 C2291 0.950 1_554 S
H2269 C2293 0.950 1_455 S
H2270 C2294 0.950 . S
H2271 C2295 0.951 . S
H2272 C2297 0.951 . S
H2273 C2299 0.950 . S
H2274 C2300 0.950 . S
H2275 C2302 0.950 . S
H2276 C2305 0.950 . S
H2277 C2306 0.950 . S
H2278 C2308 0.950 . S
H2279 C2309 0.950 . S
C2280 H2262 0.951 . S
C2280 C2281 1.366 1_556 S
C2280 C2282 1.388 . S
C2281 C2280 1.366 1_554 S
C2281 C2285 1.385 . S
C2282 H2263 0.951 . S
C2282 C2280 1.388 . S
C2282 C2283 1.366 . S
C2283 C2282 1.366 . S
C2283 C2284 1.414 1_556 S
C2283 C2286 1.499 . S
C2284 H2264 0.950 . S
C2284 C2283 1.414 1_554 S
C2284 C2285 1.374 . S
C2285 H2265 0.950 . S
C2285 C2281 1.385 . S
C2285 C2284 1.374 . S
C2286 C2283 1.499 . S
C2286 C2287 1.373 . S
C2286 C2288 1.389 . S
C2287 H2266 0.950 . S
C2287 C2286 1.373 . S
C2287 C2303 1.377 . S
C2288 C2286 1.389 . S
C2288 C2289 1.524 . S
C2288 C2302 1.377 . S
C2289 C2288 1.524 . S
C2289 C2290 1.397 . S
C2289 C2294 1.363 . S
C2290 H2267 0.950 1_556 S
C2290 C2289 1.397 . S
C2290 C2291 1.334 . S
C2291 H2268 0.950 1_556 S
C2291 C2290 1.334 . S
C2291 C2292 1.287 1_655 S
C2292 C2291 1.287 1_455 S
C2292 C2293 1.524 1_455 S
C2292 H2311 0.913 . S
C2293 H2269 0.950 1_655 S
C2293 C2292 1.524 1_655 S
C2293 C2294 1.415 . S
C2294 H2270 0.950 . S
C2294 C2289 1.363 . S
C2294 C2293 1.415 . S
C2295 H2271 0.951 . S
C2295 C2296 1.366 . S
C2295 C2297 1.388 . S
C2296 C2295 1.366 . S
C2296 C2300 1.385 . S
C2297 H2272 0.951 . S
C2297 C2295 1.388 . S
C2297 C2298 1.366 . S
C2298 C2297 1.366 . S
C2298 C2299 1.414 . S
C2298 C2301 1.499 . S
C2299 H2273 0.950 . S
C2299 C2298 1.414 . S
C2299 C2300 1.374 . S
C2300 H2274 0.950 . S
C2300 C2296 1.385 . S
C2300 C2299 1.374 . S
C2301 C2298 1.499 . S
C2301 C2302 1.373 . S
C2301 C2303 1.389 . S
C2302 H2275 0.950 . S
C2302 C2288 1.377 . S
C2302 C2301 1.373 . S
C2303 C2287 1.377 . S
C2303 C2301 1.389 . S
C2303 C2304 1.524 . S
C2304 C2303 1.524 . S
C2304 C2305 1.397 . S
C2304 C2309 1.363 . S
C2305 H2276 0.950 . S
C2305 C2304 1.397 . S
C2305 C2306 1.334 . S
C2306 H2277 0.950 . S
C2306 C2305 1.334 . S
C2306 C2307 1.287 . S
C2307 C2306 1.287 . S
C2307 C2308 1.524 . S
C2307 H2310 0.999 . S
C2308 H2278 0.950 . S
C2308 C2307 1.524 . S
C2308 C2309 1.415 . S
C2309 H2279 0.950 . S
C2309 C2304 1.363 . S
C2309 C2308 1.415 . S
H2310 C2307 0.999 . S
H2311 C2292 0.913 . S
H2312 C2330 0.951 . S
H2313 C2332 0.951 . S
H2314 C2334 0.950 . S
H2315 C2335 0.950 1_556 S
H2316 C2337 0.950 . S
H2317 C2340 0.950 1_556 S
H2318 C2341 0.950 . S
H2319 C2343 0.950 . S
H2320 C2344 0.950 . S
H2321 C2345 0.951 . S
H2322 C2347 0.951 . S
H2323 C2349 0.950 . S
H2324 C2350 0.950 . S
H2325 C2352 0.950 . S
H2326 C2355 0.950 . S
H2327 C2356 0.950 . S
H2328 C2358 0.950 . S
H2329 C2359 0.950 . S
C2330 H2312 0.951 . S
C2330 C2331 1.366 . S
C2330 C2332 1.388 . S
C2331 C2330 1.366 . S
C2331 C2335 1.385 . S
C2332 H2313 0.951 . S
C2332 C2330 1.388 . S
C2332 C2333 1.366 . S
C2333 C2332 1.366 . S
C2333 C2334 1.414 1_554 S
C2333 C2336 1.499 1_554 S
C2334 H2314 0.950 . S
C2334 C2333 1.414 1_556 S
C2334 C2335 1.374 1_556 S
C2335 H2315 0.950 1_554 S
C2335 C2331 1.385 . S
C2335 C2334 1.374 1_554 S
C2336 C2333 1.499 1_556 S
C2336 C2337 1.373 . S
C2336 C2338 1.389 . S
C2337 H2316 0.950 . S
C2337 C2336 1.373 . S
C2337 C2353 1.377 . S
C2338 C2336 1.389 . S
C2338 C2339 1.524 1_556 S
C2338 C2352 1.377 . S
C2339 C2338 1.524 1_554 S
C2339 C2340 1.397 . S
C2339 C2344 1.363 . S
C2340 H2317 0.950 1_554 S
C2340 C2339 1.397 . S
C2340 C2341 1.334 . S
C2341 H2318 0.950 . S
C2341 C2340 1.334 . S
C2341 C2342 1.287 . S
C2342 C2341 1.287 . S
C2342 C2343 1.524 . S
C2342 H2361 0.913 . S
C2343 H2319 0.950 . S
C2343 C2342 1.524 . S
C2343 C2344 1.415 . S
C2344 H2320 0.950 . S
C2344 C2339 1.363 . S
C2344 C2343 1.415 . S
C2345 H2321 0.951 . S
C2345 C2346 1.366 . S
C2345 C2347 1.388 . S
C2346 C2345 1.366 . S
C2346 C2350 1.385 . S
C2347 H2322 0.951 . S
C2347 C2345 1.388 . S
C2347 C2348 1.366 . S
C2348 C2347 1.366 . S
C2348 C2349 1.414 . S
C2348 C2351 1.499 . S
C2349 H2323 0.950 . S
C2349 C2348 1.414 . S
C2349 C2350 1.374 . S
C2350 H2324 0.950 . S
C2350 C2346 1.385 . S
C2350 C2349 1.374 . S
C2351 C2348 1.499 . S
C2351 C2352 1.373 . S
C2351 C2353 1.389 . S
C2352 H2325 0.950 . S
C2352 C2338 1.377 . S
C2352 C2351 1.373 . S
C2353 C2337 1.377 . S
C2353 C2351 1.389 . S
C2353 C2354 1.524 . S
C2354 C2353 1.524 . S
C2354 C2355 1.397 . S
C2354 C2359 1.363 . S
C2355 H2326 0.950 . S
C2355 C2354 1.397 . S
C2355 C2356 1.334 . S
C2356 H2327 0.950 . S
C2356 C2355 1.334 . S
C2356 C2357 1.287 . S
C2357 C2356 1.287 . S
C2357 C2358 1.524 . S
C2357 H2360 0.999 . S
C2358 H2328 0.950 . S
C2358 C2357 1.524 . S
C2358 C2359 1.415 . S
C2359 H2329 0.950 . S
C2359 C2354 1.363 . S
C2359 C2358 1.415 . S
H2360 C2357 0.999 . S
H2361 C2342 0.913 . S
H2362 C2380 0.951 . S
H2363 C2382 0.951 . S
H2364 C2384 0.950 . S
H2365 C2385 0.950 . S
H2366 C2387 0.950 . S
H2367 C2390 0.950 . S
H2368 C2391 0.950 . S
H2369 C2393 0.950 . S
H2370 C2394 0.950 . S
H2371 C2395 0.951 . S
H2372 C2397 0.951 . S
H2373 C2399 0.950 . S
H2374 C2400 0.950 . S
H2375 C2402 0.950 . S
H2376 C2405 0.950 1_556 S
H2377 C2406 0.950 . S
H2378 C2408 0.950 . S
H2379 C2409 0.950 . S
C2380 H2362 0.951 . S
C2380 C2381 1.366 . S
C2380 C2382 1.388 . S
C2381 C2380 1.366 . S
C2381 C2385 1.385 . S
C2382 H2363 0.951 . S
C2382 C2380 1.388 . S
C2382 C2383 1.366 . S
C2383 C2382 1.366 . S
C2383 C2384 1.414 . S
C2383 C2386 1.499 . S
C2384 H2364 0.950 . S
C2384 C2383 1.414 . S
C2384 C2385 1.374 . S
C2385 H2365 0.950 . S
C2385 C2381 1.385 . S
C2385 C2384 1.374 . S
C2386 C2383 1.499 . S
C2386 C2387 1.373 . S
C2386 C2388 1.389 . S
C2387 H2366 0.950 . S
C2387 C2386 1.373 . S
C2387 C2403 1.377 . S
C2388 C2386 1.389 . S
C2388 C2389 1.524 . S
C2388 C2402 1.377 . S
C2389 C2388 1.524 . S
C2389 C2390 1.397 . S
C2389 C2394 1.363 . S
C2390 H2367 0.950 . S
C2390 C2389 1.397 . S
C2390 C2391 1.334 . S
C2391 H2368 0.950 . S
C2391 C2390 1.334 . S
C2391 C2392 1.287 . S
C2392 C2391 1.287 . S
C2392 C2393 1.524 . S
C2392 H2411 0.913 . S
C2393 H2369 0.950 . S
C2393 C2392 1.524 . S
C2393 C2394 1.415 . S
C2394 H2370 0.950 . S
C2394 C2389 1.363 . S
C2394 C2393 1.415 . S
C2395 H2371 0.951 . S
C2395 C2396 1.366 . S
C2395 C2397 1.388 . S
C2396 C2395 1.366 . S
C2396 C2400 1.385 1_554 S
C2397 H2372 0.951 . S
C2397 C2395 1.388 . S
C2397 C2398 1.366 1_554 S
C2398 C2397 1.366 1_556 S
C2398 C2399 1.414 . S
C2398 C2401 1.499 . S
C2399 H2373 0.950 . S
C2399 C2398 1.414 . S
C2399 C2400 1.374 . S
C2400 H2374 0.950 . S
C2400 C2396 1.385 1_556 S
C2400 C2399 1.374 . S
C2401 C2398 1.499 . S
C2401 C2402 1.373 . S
C2401 C2403 1.389 . S
C2402 H2375 0.950 . S
C2402 C2388 1.377 . S
C2402 C2401 1.373 . S
C2403 C2387 1.377 . S
C2403 C2401 1.389 . S
C2403 C2404 1.524 1_556 S
C2404 C2403 1.524 1_554 S
C2404 C2405 1.397 . S
C2404 C2409 1.363 . S
C2405 H2376 0.950 1_554 S
C2405 C2404 1.397 . S
C2405 C2406 1.334 . S
C2406 H2377 0.950 . S
C2406 C2405 1.334 . S
C2406 C2407 1.287 . S
C2407 C2406 1.287 . S
C2407 C2408 1.524 . S
C2407 H2410 0.999 . S
C2408 H2378 0.950 . S
C2408 C2407 1.524 . S
C2408 C2409 1.415 . S
C2409 H2379 0.950 . S
C2409 C2404 1.363 . S
C2409 C2408 1.415 . S
H2410 C2407 0.999 . S
H2411 C2392 0.913 . S
H2412 C2430 0.951 . S
H2413 C2432 0.951 . S
H2414 C2434 0.950 . S
H2415 C2435 0.950 . S
H2416 C2437 0.950 . S
H2417 C2440 0.950 . S
H2418 C2441 0.950 . S
H2419 C2443 0.950 . S
H2420 C2444 0.950 . S
H2421 C2445 0.951 . S
H2422 C2447 0.951 . S
H2423 C2449 0.950 . S
H2424 C2450 0.950 . S
H2425 C2452 0.950 . S
H2426 C2455 0.950 . S
H2427 C2456 0.950 . S
H2428 C2458 0.950 . S
H2429 C2459 0.950 . S
C2430 H2412 0.951 . S
C2430 C2431 1.366 . S
C2430 C2432 1.388 . S
C2431 C2430 1.366 . S
C2431 C2435 1.385 . S
C2432 H2413 0.951 . S
C2432 C2430 1.388 . S
C2432 C2433 1.366 . S
C2433 C2432 1.366 . S
C2433 C2434 1.414 . S
C2433 C2436 1.499 . S
C2434 H2414 0.950 . S
C2434 C2433 1.414 . S
C2434 C2435 1.374 . S
C2435 H2415 0.950 . S
C2435 C2431 1.385 . S
C2435 C2434 1.374 . S
C2436 C2433 1.499 . S
C2436 C2437 1.373 . S
C2436 C2438 1.389 . S
C2437 H2416 0.950 . S
C2437 C2436 1.373 . S
C2437 C2453 1.377 . S
C2438 C2436 1.389 . S
C2438 C2439 1.524 . S
C2438 C2452 1.377 . S
C2439 C2438 1.524 . S
C2439 C2440 1.397 . S
C2439 C2444 1.363 . S
C2440 H2417 0.950 . S
C2440 C2439 1.397 . S
C2440 C2441 1.334 . S
C2441 H2418 0.950 . S
C2441 C2440 1.334 . S
C2441 C2442 1.287 . S
C2442 C2441 1.287 . S
C2442 C2443 1.524 . S
C2442 H2461 0.913 . S
C2443 H2419 0.950 . S
C2443 C2442 1.524 . S
C2443 C2444 1.415 . S
C2444 H2420 0.950 . S
C2444 C2439 1.363 . S
C2444 C2443 1.415 . S
C2445 H2421 0.951 . S
C2445 C2446 1.366 . S
C2445 C2447 1.388 . S
C2446 C2445 1.366 . S
C2446 C2450 1.385 . S
C2447 H2422 0.951 . S
C2447 C2445 1.388 . S
C2447 C2448 1.366 . S
C2448 C2447 1.366 . S
C2448 C2449 1.414 . S
C2448 C2451 1.499 . S
C2449 H2423 0.950 . S
C2449 C2448 1.414 . S
C2449 C2450 1.374 . S
C2450 H2424 0.950 . S
C2450 C2446 1.385 . S
C2450 C2449 1.374 . S
C2451 C2448 1.499 . S
C2451 C2452 1.373 . S
C2451 C2453 1.389 . S
C2452 H2425 0.950 . S
C2452 C2438 1.377 . S
C2452 C2451 1.373 . S
C2453 C2437 1.377 . S
C2453 C2451 1.389 . S
C2453 C2454 1.524 . S
C2454 C2453 1.524 . S
C2454 C2455 1.397 . S
C2454 C2459 1.363 . S
C2455 H2426 0.950 . S
C2455 C2454 1.397 . S
C2455 C2456 1.334 . S
C2456 H2427 0.950 . S
C2456 C2455 1.334 . S
C2456 C2457 1.287 . S
C2457 C2456 1.287 . S
C2457 C2458 1.524 . S
C2457 H2460 0.999 . S
C2458 H2428 0.950 . S
C2458 C2457 1.524 . S
C2458 C2459 1.415 . S
C2459 H2429 0.950 . S
C2459 C2454 1.363 . S
C2459 C2458 1.415 . S
H2460 C2457 0.999 . S
H2461 C2442 0.913 . S
H2462 C2480 0.951 . S
H2463 C2482 0.951 . S
H2464 C2484 0.950 . S
H2465 C2485 0.950 . S
H2466 C2487 0.950 . S
H2467 C2490 0.950 . S
H2468 C2491 0.950 . S
H2469 C2493 0.950 . S
H2470 C2494 0.950 . S
H2471 C2495 0.951 . S
H2472 C2497 0.951 . S
H2473 C2499 0.950 . S
H2474 C2500 0.950 . S
H2475 C2502 0.950 . S
H2476 C2505 0.950 . S
H2477 C2506 0.950 . S
H2478 C2508 0.950 . S
H2479 C2509 0.950 . S
C2480 H2462 0.951 . S
C2480 C2481 1.366 . S
C2480 C2482 1.388 . S
C2481 C2480 1.366 . S
C2481 C2485 1.385 . S
C2482 H2463 0.951 . S
C2482 C2480 1.388 . S
C2482 C2483 1.366 . S
C2483 C2482 1.366 . S
C2483 C2484 1.414 . S
C2483 C2486 1.499 . S
C2484 H2464 0.950 . S
C2484 C2483 1.414 . S
C2484 C2485 1.374 . S
C2485 H2465 0.950 . S
C2485 C2481 1.385 . S
C2485 C2484 1.374 . S
C2486 C2483 1.499 . S
C2486 C2487 1.373 . S
C2486 C2488 1.389 . S
C2487 H2466 0.950 . S
C2487 C2486 1.373 . S
C2487 C2503 1.377 . S
C2488 C2486 1.389 . S
C2488 C2489 1.524 . S
C2488 C2502 1.377 . S
C2489 C2488 1.524 . S
C2489 C2490 1.397 . S
C2489 C2494 1.363 . S
C2490 H2467 0.950 . S
C2490 C2489 1.397 . S
C2490 C2491 1.334 . S
C2491 H2468 0.950 . S
C2491 C2490 1.334 . S
C2491 C2492 1.287 . S
C2492 C2491 1.287 . S
C2492 C2493 1.524 . S
C2492 H2511 0.913 1_554 S
C2493 H2469 0.950 . S
C2493 C2492 1.524 . S
C2493 C2494 1.415 . S
C2494 H2470 0.950 . S
C2494 C2489 1.363 . S
C2494 C2493 1.415 . S
C2495 H2471 0.951 . S
C2495 C2496 1.366 . S
C2495 C2497 1.388 . S
C2496 C2495 1.366 . S
C2496 C2500 1.385 . S
C2497 H2472 0.951 . S
C2497 C2495 1.388 . S
C2497 C2498 1.366 . S
C2498 C2497 1.366 . S
C2498 C2499 1.414 . S
C2498 C2501 1.499 . S
C2499 H2473 0.950 . S
C2499 C2498 1.414 . S
C2499 C2500 1.374 . S
C2500 H2474 0.950 . S
C2500 C2496 1.385 . S
C2500 C2499 1.374 . S
C2501 C2498 1.499 . S
C2501 C2502 1.373 . S
C2501 C2503 1.389 . S
C2502 H2475 0.950 . S
C2502 C2488 1.377 . S
C2502 C2501 1.373 . S
C2503 C2487 1.377 . S
C2503 C2501 1.389 . S
C2503 C2504 1.524 . S
C2504 C2503 1.524 . S
C2504 C2505 1.397 . S
C2504 C2509 1.363 . S
C2505 H2476 0.950 . S
C2505 C2504 1.397 . S
C2505 C2506 1.334 . S
C2506 H2477 0.950 . S
C2506 C2505 1.334 . S
C2506 C2507 1.287 . S
C2507 C2506 1.287 . S
C2507 C2508 1.524 . S
C2507 H2510 0.999 . S
C2508 H2478 0.950 . S
C2508 C2507 1.524 . S
C2508 C2509 1.415 . S
C2509 H2479 0.950 . S
C2509 C2504 1.363 . S
C2509 C2508 1.415 . S
H2510 C2507 0.999 . S
H2511 C2492 0.913 1_556 S
H2512 C2530 0.951 . S
H2513 C2532 0.951 . S
H2514 C2534 0.950 . S
H2515 C2535 0.950 . S
H2516 C2537 0.950 . S
H2517 C2540 0.950 . S
H2518 C2541 0.950 . S
H2519 C2543 0.950 . S
H2520 C2544 0.950 . S
H2521 C2545 0.951 . S
H2522 C2547 0.951 . S
H2523 C2549 0.950 . S
H2524 C2550 0.950 . S
H2525 C2552 0.950 . S
H2526 C2555 0.950 . S
H2527 C2556 0.950 . S
H2528 C2558 0.950 . S
H2529 C2559 0.950 . S
C2530 H2512 0.951 . S
C2530 C2531 1.366 . S
C2530 C2532 1.388 . S
C2531 C2530 1.366 . S
C2531 C2535 1.385 . S
C2532 H2513 0.951 . S
C2532 C2530 1.388 . S
C2532 C2533 1.366 . S
C2533 C2532 1.366 . S
C2533 C2534 1.414 . S
C2533 C2536 1.499 . S
C2534 H2514 0.950 . S
C2534 C2533 1.414 . S
C2534 C2535 1.374 . S
C2535 H2515 0.950 . S
C2535 C2531 1.385 . S
C2535 C2534 1.374 . S
C2536 C2533 1.499 . S
C2536 C2537 1.373 . S
C2536 C2538 1.389 . S
C2537 H2516 0.950 . S
C2537 C2536 1.373 . S
C2537 C2553 1.377 . S
C2538 C2536 1.389 . S
C2538 C2539 1.524 . S
C2538 C2552 1.377 . S
C2539 C2538 1.524 . S
C2539 C2540 1.397 . S
C2539 C2544 1.363 . S
C2540 H2517 0.950 . S
C2540 C2539 1.397 . S
C2540 C2541 1.334 . S
C2541 H2518 0.950 . S
C2541 C2540 1.334 . S
C2541 C2542 1.287 . S
C2542 C2541 1.287 . S
C2542 C2543 1.524 . S
C2542 H2561 0.913 . S
C2543 H2519 0.950 . S
C2543 C2542 1.524 . S
C2543 C2544 1.415 . S
C2544 H2520 0.950 . S
C2544 C2539 1.363 . S
C2544 C2543 1.415 . S
C2545 H2521 0.951 . S
C2545 C2546 1.366 . S
C2545 C2547 1.388 . S
C2546 C2545 1.366 . S
C2546 C2550 1.385 . S
C2547 H2522 0.951 . S
C2547 C2545 1.388 . S
C2547 C2548 1.366 . S
C2548 C2547 1.366 . S
C2548 C2549 1.414 . S
C2548 C2551 1.499 . S
C2549 H2523 0.950 . S
C2549 C2548 1.414 . S
C2549 C2550 1.374 . S
C2550 H2524 0.950 . S
C2550 C2546 1.385 . S
C2550 C2549 1.374 . S
C2551 C2548 1.499 . S
C2551 C2552 1.373 . S
C2551 C2553 1.389 . S
C2552 H2525 0.950 . S
C2552 C2538 1.377 . S
C2552 C2551 1.373 . S
C2553 C2537 1.377 . S
C2553 C2551 1.389 . S
C2553 C2554 1.524 . S
C2554 C2553 1.524 . S
C2554 C2555 1.397 . S
C2554 C2559 1.363 . S
C2555 H2526 0.950 . S
C2555 C2554 1.397 . S
C2555 C2556 1.334 . S
C2556 H2527 0.950 . S
C2556 C2555 1.334 . S
C2556 C2557 1.287 . S
C2557 C2556 1.287 . S
C2557 C2558 1.524 . S
C2557 H2560 0.999 . S
C2558 H2528 0.950 . S
C2558 C2557 1.524 . S
C2558 C2559 1.415 . S
C2559 H2529 0.950 . S
C2559 C2554 1.363 . S
C2559 C2558 1.415 . S
H2560 C2557 0.999 . S
H2561 C2542 0.913 . S
H2562 C2580 0.951 . S
H2563 C2582 0.951 . S
H2564 C2584 0.950 . S
H2565 C2585 0.950 . S
H2566 C2587 0.950 . S
H2567 C2590 0.950 . S
H2568 C2591 0.950 . S
H2569 C2593 0.950 . S
H2570 C2594 0.950 . S
H2571 C2595 0.951 . S
H2572 C2597 0.951 . S
H2573 C2599 0.950 . S
H2574 C2600 0.950 . S
H2575 C2602 0.950 . S
H2576 C2605 0.950 . S
H2577 C2606 0.950 . S
H2578 C2608 0.950 . S
H2579 C2609 0.950 . S
C2580 H2562 0.951 . S
C2580 C2581 1.366 . S
C2580 C2582 1.388 . S
C2581 C2580 1.366 . S
C2581 C2585 1.385 . S
C2582 H2563 0.951 . S
C2582 C2580 1.388 . S
C2582 C2583 1.366 . S
C2583 C2582 1.366 . S
C2583 C2584 1.414 . S
C2583 C2586 1.499 . S
C2584 H2564 0.950 . S
C2584 C2583 1.414 . S
C2584 C2585 1.374 . S
C2585 H2565 0.950 . S
C2585 C2581 1.385 . S
C2585 C2584 1.374 . S
C2586 C2583 1.499 . S
C2586 C2587 1.373 . S
C2586 C2588 1.389 . S
C2587 H2566 0.950 . S
C2587 C2586 1.373 . S
C2587 C2603 1.377 . S
C2588 C2586 1.389 . S
C2588 C2589 1.524 . S
C2588 C2602 1.377 . S
C2589 C2588 1.524 . S
C2589 C2590 1.397 . S
C2589 C2594 1.363 . S
C2590 H2567 0.950 . S
C2590 C2589 1.397 . S
C2590 C2591 1.334 . S
C2591 H2568 0.950 . S
C2591 C2590 1.334 . S
C2591 C2592 1.287 . S
C2592 C2591 1.287 . S
C2592 C2593 1.524 . S
C2592 H2611 0.913 . S
C2593 H2569 0.950 . S
C2593 C2592 1.524 . S
C2593 C2594 1.415 . S
C2594 H2570 0.950 . S
C2594 C2589 1.363 . S
C2594 C2593 1.415 . S
C2595 H2571 0.951 . S
C2595 C2596 1.366 . S
C2595 C2597 1.388 . S
C2596 C2595 1.366 . S
C2596 C2600 1.385 . S
C2597 H2572 0.951 . S
C2597 C2595 1.388 . S
C2597 C2598 1.366 . S
C2598 C2597 1.366 . S
C2598 C2599 1.414 . S
C2598 C2601 1.499 . S
C2599 H2573 0.950 . S
C2599 C2598 1.414 . S
C2599 C2600 1.374 . S
C2600 H2574 0.950 . S
C2600 C2596 1.385 . S
C2600 C2599 1.374 . S
C2601 C2598 1.499 . S
C2601 C2602 1.373 . S
C2601 C2603 1.389 . S
C2602 H2575 0.950 . S
C2602 C2588 1.377 . S
C2602 C2601 1.373 . S
C2603 C2587 1.377 . S
C2603 C2601 1.389 . S
C2603 C2604 1.524 . S
C2604 C2603 1.524 . S
C2604 C2605 1.397 . S
C2604 C2609 1.363 . S
C2605 H2576 0.950 . S
C2605 C2604 1.397 . S
C2605 C2606 1.334 . S
C2606 H2577 0.950 . S
C2606 C2605 1.334 . S
C2606 C2607 1.287 . S
C2607 C2606 1.287 . S
C2607 C2608 1.524 . S
C2607 H2610 0.999 . S
C2608 H2578 0.950 . S
C2608 C2607 1.524 . S
C2608 C2609 1.415 . S
C2609 H2579 0.950 . S
C2609 C2604 1.363 . S
C2609 C2608 1.415 . S
H2610 C2607 0.999 . S
H2611 C2592 0.913 . S
H2612 C2630 0.951 . S
H2613 C2632 0.951 . S
H2614 C2634 0.950 . S
H2615 C2635 0.950 . S
H2616 C2637 0.950 . S
H2617 C2640 0.950 . S
H2618 C2641 0.950 . S
H2619 C2643 0.950 . S
H2620 C2644 0.950 . S
H2621 C2645 0.951 . S
H2622 C2647 0.951 . S
H2623 C2649 0.950 . S
H2624 C2650 0.950 . S
H2625 C2652 0.950 . S
H2626 C2655 0.950 . S
H2627 C2656 0.950 . S
H2628 C2658 0.950 . S
H2629 C2659 0.950 . S
C2630 H2612 0.951 . S
C2630 C2631 1.366 . S
C2630 C2632 1.388 . S
C2631 C2630 1.366 . S
C2631 C2635 1.385 . S
C2632 H2613 0.951 . S
C2632 C2630 1.388 . S
C2632 C2633 1.366 . S
C2633 C2632 1.366 . S
C2633 C2634 1.414 . S
C2633 C2636 1.499 . S
C2634 H2614 0.950 . S
C2634 C2633 1.414 . S
C2634 C2635 1.374 . S
C2635 H2615 0.950 . S
C2635 C2631 1.385 . S
C2635 C2634 1.374 . S
C2636 C2633 1.499 . S
C2636 C2637 1.373 . S
C2636 C2638 1.389 . S
C2637 H2616 0.950 . S
C2637 C2636 1.373 . S
C2637 C2653 1.377 . S
C2638 C2636 1.389 . S
C2638 C2639 1.524 . S
C2638 C2652 1.377 . S
C2639 C2638 1.524 . S
C2639 C2640 1.397 . S
C2639 C2644 1.363 . S
C2640 H2617 0.950 . S
C2640 C2639 1.397 . S
C2640 C2641 1.334 . S
C2641 H2618 0.950 . S
C2641 C2640 1.334 . S
C2641 C2642 1.287 . S
C2642 C2641 1.287 . S
C2642 C2643 1.524 . S
C2642 H2661 0.913 . S
C2643 H2619 0.950 . S
C2643 C2642 1.524 . S
C2643 C2644 1.415 . S
C2644 H2620 0.950 . S
C2644 C2639 1.363 . S
C2644 C2643 1.415 . S
C2645 H2621 0.951 . S
C2645 C2646 1.366 . S
C2645 C2647 1.388 . S
C2646 C2645 1.366 . S
C2646 C2650 1.385 . S
C2647 H2622 0.951 . S
C2647 C2645 1.388 . S
C2647 C2648 1.366 . S
C2648 C2647 1.366 . S
C2648 C2649 1.414 . S
C2648 C2651 1.499 . S
C2649 H2623 0.950 . S
C2649 C2648 1.414 . S
C2649 C2650 1.374 . S
C2650 H2624 0.950 . S
C2650 C2646 1.385 . S
C2650 C2649 1.374 . S
C2651 C2648 1.499 . S
C2651 C2652 1.373 . S
C2651 C2653 1.389 . S
C2652 H2625 0.950 . S
C2652 C2638 1.377 . S
C2652 C2651 1.373 . S
C2653 C2637 1.377 . S
C2653 C2651 1.389 . S
C2653 C2654 1.524 . S
C2654 C2653 1.524 . S
C2654 C2655 1.397 . S
C2654 C2659 1.363 . S
C2655 H2626 0.950 . S
C2655 C2654 1.397 . S
C2655 C2656 1.334 . S
C2656 H2627 0.950 . S
C2656 C2655 1.334 . S
C2656 C2657 1.287 . S
C2657 C2656 1.287 . S
C2657 C2658 1.524 . S
C2657 H2660 0.999 . S
C2658 H2628 0.950 . S
C2658 C2657 1.524 . S
C2658 C2659 1.415 . S
C2659 H2629 0.950 . S
C2659 C2654 1.363 . S
C2659 C2658 1.415 . S
H2660 C2657 0.999 . S
H2661 C2642 0.913 . S
H2662 C2680 0.951 . S
H2663 C2682 0.951 . S
H2664 C2684 0.950 . S
H2665 C2685 0.950 . S
H2666 C2687 0.950 . S
H2667 C2690 0.950 . S
H2668 C2691 0.950 . S
H2669 C2693 0.950 . S
H2670 C2694 0.950 . S
H2671 C2695 0.951 . S
H2672 C2697 0.951 . S
H2673 C2699 0.950 . S
H2674 C2700 0.950 . S
H2675 C2702 0.950 1_655 S
H2676 C2705 0.950 . S
H2677 C2706 0.995 . S
H2678 C2708 0.950 . S
H2679 C2709 0.919 . S
C2680 H2662 0.951 . S
C2680 C2681 1.366 . S
C2680 C2682 1.388 . S
C2681 C2680 1.366 . S
C2681 C2685 1.385 . S
C2682 H2663 0.951 . S
C2682 C2680 1.388 . S
C2682 C2683 1.366 . S
C2683 C2682 1.366 . S
C2683 C2684 1.414 . S
C2683 C2686 1.499 . S
C2684 H2664 0.950 . S
C2684 C2683 1.414 . S
C2684 C2685 1.374 . S
C2685 H2665 0.950 . S
C2685 C2681 1.385 . S
C2685 C2684 1.374 . S
C2686 C2683 1.499 . S
C2686 C2687 1.373 . S
C2686 C2688 1.389 . S
C2687 H2666 0.950 . S
C2687 C2686 1.373 . S
C2687 C2703 1.377 . S
C2688 C2686 1.389 . S
C2688 C2689 1.524 . S
C2688 C2702 1.377 . S
C2689 C2688 1.524 . S
C2689 C2690 1.397 . S
C2689 C2694 1.363 . S
C2690 H2667 0.950 . S
C2690 C2689 1.397 . S
C2690 C2691 1.334 . S
C2691 H2668 0.950 . S
C2691 C2690 1.334 . S
C2691 C2692 1.287 . S
C2692 C2691 1.287 . S
C2692 C2693 1.524 . S
C2692 H2711 0.913 . S
C2693 H2669 0.950 . S
C2693 C2692 1.524 . S
C2693 C2694 1.415 . S
C2694 H2670 0.950 . S
C2694 C2689 1.363 . S
C2694 C2693 1.415 . S
C2695 H2671 0.951 . S
C2695 C2696 1.366 . S
C2695 C2697 1.388 . S
C2696 C2695 1.366 . S
C2696 C2700 1.385 . S
C2697 H2672 0.951 . S
C2697 C2695 1.388 . S
C2697 C2698 1.366 . S
C2698 C2697 1.366 . S
C2698 C2699 1.414 . S
C2698 C2701 1.499 . S
C2699 H2673 0.950 . S
C2699 C2698 1.414 . S
C2699 C2700 1.374 . S
C2700 H2674 0.950 . S
C2700 C2696 1.385 . S
C2700 C2699 1.374 . S
C2701 C2698 1.499 . S
C2701 C2702 1.373 1_655 S
C2701 C2703 1.389 1_655 S
C2702 H2675 0.950 1_455 S
C2702 C2688 1.377 . S
C2702 C2701 1.373 1_455 S
C2703 C2687 1.377 . S
C2703 C2701 1.389 1_455 S
C2703 C2704 1.524 . S
C2704 C2703 1.524 . S
C2704 C2705 1.397 . S
C2704 C2709 1.362 . S
C2705 H2676 0.950 . S
C2705 C2704 1.397 . S
C2705 C2706 1.264 1_455 S
C2706 H2677 0.995 . S
C2706 C2705 1.264 1_655 S
C2706 C2707 1.320 . S
C2707 C2706 1.320 . S
C2707 C2708 1.524 . S
C2707 H2710 0.999 . S
C2708 H2678 0.950 . S
C2708 C2707 1.524 . S
C2708 C2709 1.417 1_655 S
C2709 H2679 0.919 . S
C2709 C2704 1.362 . S
C2709 C2708 1.417 1_455 S
H2710 C2707 0.999 . S
H2711 C2692 0.913 . S
H2712 C2730 0.951 . S
H2713 C2732 0.951 . S
H2714 C2734 0.950 . S
H2715 C2735 0.950 . S
H2716 C2737 0.950 . S
H2717 C2740 0.950 . S
H2718 C2741 0.950 . S
H2719 C2743 0.950 . S
H2720 C2744 0.950 . S
H2721 C2745 0.951 . S
H2722 C2747 0.951 . S
H2723 C2749 0.950 . S
H2724 C2750 0.950 . S
H2725 C2752 0.950 . S
H2726 C2755 0.950 . S
H2727 C2756 0.950 . S
H2728 C2758 0.950 . S
H2729 C2759 0.950 . S
C2730 H2712 0.951 . S
C2730 C2731 1.366 . S
C2730 C2732 1.388 . S
C2731 C2730 1.366 . S
C2731 C2735 1.385 . S
C2732 H2713 0.951 . S
C2732 C2730 1.388 . S
C2732 C2733 1.366 . S
C2733 C2732 1.366 . S
C2733 C2734 1.414 . S
C2733 C2736 1.499 . S
C2734 H2714 0.950 . S
C2734 C2733 1.414 . S
C2734 C2735 1.374 . S
C2735 H2715 0.950 . S
C2735 C2731 1.385 . S
C2735 C2734 1.374 . S
C2736 C2733 1.499 . S
C2736 C2737 1.373 . S
C2736 C2738 1.389 . S
C2737 H2716 0.950 . S
C2737 C2736 1.373 . S
C2737 C2753 1.377 . S
C2738 C2736 1.389 . S
C2738 C2739 1.524 . S
C2738 C2752 1.377 . S
C2739 C2738 1.524 . S
C2739 C2740 1.397 . S
C2739 C2744 1.363 . S
C2740 H2717 0.950 . S
C2740 C2739 1.397 . S
C2740 C2741 1.334 . S
C2741 H2718 0.950 . S
C2741 C2740 1.334 . S
C2741 C2742 1.287 . S
C2742 C2741 1.287 . S
C2742 C2743 1.524 . S
C2742 H2761 0.913 . S
C2743 H2719 0.950 . S
C2743 C2742 1.524 . S
C2743 C2744 1.415 . S
C2744 H2720 0.950 . S
C2744 C2739 1.363 . S
C2744 C2743 1.415 . S
C2745 H2721 0.951 . S
C2745 C2746 1.366 . S
C2745 C2747 1.388 . S
C2746 C2745 1.366 . S
C2746 C2750 1.385 . S
C2747 H2722 0.951 . S
C2747 C2745 1.388 . S
C2747 C2748 1.366 . S
C2748 C2747 1.366 . S
C2748 C2749 1.414 . S
C2748 C2751 1.499 . S
C2749 H2723 0.950 . S
C2749 C2748 1.414 . S
C2749 C2750 1.374 . S
C2750 H2724 0.950 . S
C2750 C2746 1.385 . S
C2750 C2749 1.374 . S
C2751 C2748 1.499 . S
C2751 C2752 1.373 . S
C2751 C2753 1.389 . S
C2752 H2725 0.950 . S
C2752 C2738 1.377 . S
C2752 C2751 1.373 . S
C2753 C2737 1.377 . S
C2753 C2751 1.389 . S
C2753 C2754 1.524 . S
C2754 C2753 1.524 . S
C2754 C2755 1.397 . S
C2754 C2759 1.363 . S
C2755 H2726 0.950 . S
C2755 C2754 1.397 . S
C2755 C2756 1.334 . S
C2756 H2727 0.950 . S
C2756 C2755 1.334 . S
C2756 C2757 1.287 . S
C2757 C2756 1.287 . S
C2757 C2758 1.524 . S
C2757 H2760 0.999 . S
C2758 H2728 0.950 . S
C2758 C2757 1.524 . S
C2758 C2759 1.415 . S
C2759 H2729 0.950 . S
C2759 C2754 1.363 . S
C2759 C2758 1.415 . S
H2760 C2757 0.999 . S
H2761 C2742 0.913 . S
H2762 C2780 0.951 . S
H2763 C2782 0.951 . S
H2764 C2784 0.950 . S
H2765 C2785 0.950 . S
H2766 C2787 0.950 . S
H2767 C2790 0.950 . S
H2768 C2791 0.950 . S
H2769 C2793 0.950 . S
H2770 C2794 0.950 . S
H2771 C2795 0.951 . S
H2772 C2797 0.951 . S
H2773 C2799 0.950 . S
H2774 C2800 0.950 . S
H2775 C2802 0.950 . S
H2776 C2805 0.950 . S
H2777 C2806 0.951 1_565 S
H2778 C2808 0.950 . S
H2779 C2809 0.950 . S
C2780 H2762 0.951 . S
C2780 C2781 1.366 . S
C2780 C2782 1.388 . S
C2781 C2780 1.366 . S
C2781 C2785 1.385 . S
C2782 H2763 0.951 . S
C2782 C2780 1.388 . S
C2782 C2783 1.366 . S
C2783 C2782 1.366 . S
C2783 C2784 1.414 . S
C2783 C2786 1.499 . S
C2784 H2764 0.950 . S
C2784 C2783 1.414 . S
C2784 C2785 1.374 . S
C2785 H2765 0.950 . S
C2785 C2781 1.385 . S
C2785 C2784 1.374 . S
C2786 C2783 1.499 . S
C2786 C2787 1.373 . S
C2786 C2788 1.389 . S
C2787 H2766 0.950 . S
C2787 C2786 1.373 . S
C2787 C2803 1.377 . S
C2788 C2786 1.389 . S
C2788 C2789 1.524 . S
C2788 C2802 1.377 . S
C2789 C2788 1.524 . S
C2789 C2790 1.397 . S
C2789 C2794 1.363 . S
C2790 H2767 0.950 . S
C2790 C2789 1.397 . S
C2790 C2791 1.334 . S
C2791 H2768 0.950 . S
C2791 C2790 1.334 . S
C2791 C2792 1.287 . S
C2792 C2791 1.287 . S
C2792 C2793 1.524 . S
C2792 H2811 0.913 . S
C2793 H2769 0.950 . S
C2793 C2792 1.524 . S
C2793 C2794 1.415 . S
C2794 H2770 0.950 . S
C2794 C2789 1.363 . S
C2794 C2793 1.415 . S
C2795 H2771 0.951 . S
C2795 C2796 1.366 . S
C2795 C2797 1.388 1_565 S
C2796 C2795 1.366 . S
C2796 C2800 1.385 1_565 S
C2797 H2772 0.951 . S
C2797 C2795 1.388 1_545 S
C2797 C2798 1.366 . S
C2798 C2797 1.366 . S
C2798 C2799 1.414 . S
C2798 C2801 1.499 . S
C2799 H2773 0.950 . S
C2799 C2798 1.414 . S
C2799 C2800 1.374 . S
C2800 H2774 0.950 . S
C2800 C2796 1.385 1_545 S
C2800 C2799 1.374 . S
C2801 C2798 1.499 . S
C2801 C2802 1.373 . S
C2801 C2803 1.389 . S
C2802 H2775 0.950 . S
C2802 C2788 1.377 . S
C2802 C2801 1.373 . S
C2803 C2787 1.377 . S
C2803 C2801 1.389 . S
C2803 C2804 1.524 . S
C2804 C2803 1.524 . S
C2804 C2805 1.397 . S
C2804 C2809 1.363 . S
C2805 H2776 0.950 . S
C2805 C2804 1.397 . S
C2805 C2806 1.334 . S
C2806 H2777 0.951 1_545 S
C2806 C2805 1.334 . S
C2806 C2807 1.286 1_545 S
C2807 C2806 1.286 1_565 S
C2807 C2808 1.524 1_565 S
C2807 H2810 0.999 . S
C2808 H2778 0.950 . S
C2808 C2807 1.524 1_545 S
C2808 C2809 1.415 . S
C2809 H2779 0.950 . S
C2809 C2804 1.363 . S
C2809 C2808 1.415 . S
H2810 C2807 0.999 . S
H2811 C2792 0.913 . S
H2812 C2830 0.951 . S
H2813 C2832 0.951 . S
H2814 C2834 0.950 . S
H2815 C2835 0.950 . S
H2816 C2837 0.950 . S
H2817 C2840 0.950 . S
H2818 C2841 0.950 . S
H2819 C2843 0.950 . S
H2820 C2844 0.950 . S
H2821 C2845 0.951 . S
H2822 C2847 0.951 . S
H2823 C2849 0.950 . S
H2824 C2850 0.950 . S
H2825 C2852 0.950 . S
H2826 C2855 0.950 . S
H2827 C2856 0.950 . S
H2828 C2858 0.950 . S
H2829 C2859 0.950 . S
C2830 H2812 0.951 . S
C2830 C2831 1.366 . S
C2830 C2832 1.388 . S
C2831 C2830 1.366 . S
C2831 C2835 1.385 . S
C2832 H2813 0.951 . S
C2832 C2830 1.388 . S
C2832 C2833 1.366 . S
C2833 C2832 1.366 . S
C2833 C2834 1.414 . S
C2833 C2836 1.499 . S
C2834 H2814 0.950 . S
C2834 C2833 1.414 . S
C2834 C2835 1.374 . S
C2835 H2815 0.950 . S
C2835 C2831 1.385 . S
C2835 C2834 1.374 . S
C2836 C2833 1.499 . S
C2836 C2837 1.373 . S
C2836 C2838 1.389 . S
C2837 H2816 0.950 . S
C2837 C2836 1.373 . S
C2837 C2853 1.377 1_655 S
C2838 C2836 1.389 . S
C2838 C2839 1.524 . S
C2838 C2852 1.377 . S
C2839 C2838 1.524 . S
C2839 C2840 1.397 . S
C2839 C2844 1.363 . S
C2840 H2817 0.950 . S
C2840 C2839 1.397 . S
C2840 C2841 1.334 . S
C2841 H2818 0.950 . S
C2841 C2840 1.334 . S
C2841 C2842 1.287 . S
C2842 C2841 1.287 . S
C2842 C2843 1.524 . S
C2842 H2861 0.913 . S
C2843 H2819 0.950 . S
C2843 C2842 1.524 . S
C2843 C2844 1.415 . S
C2844 H2820 0.950 . S
C2844 C2839 1.363 . S
C2844 C2843 1.415 . S
C2845 H2821 0.951 . S
C2845 C2846 1.366 . S
C2845 C2847 1.388 . S
C2846 C2845 1.366 . S
C2846 C2850 1.385 . S
C2847 H2822 0.951 . S
C2847 C2845 1.388 . S
C2847 C2848 1.366 . S
C2848 C2847 1.366 . S
C2848 C2849 1.414 . S
C2848 C2851 1.499 . S
C2849 H2823 0.950 . S
C2849 C2848 1.414 . S
C2849 C2850 1.374 . S
C2850 H2824 0.950 . S
C2850 C2846 1.385 . S
C2850 C2849 1.374 . S
C2851 C2848 1.499 . S
C2851 C2852 1.373 1_455 S
C2851 C2853 1.389 . S
C2852 H2825 0.950 . S
C2852 C2838 1.377 . S
C2852 C2851 1.373 1_655 S
C2853 C2837 1.377 1_455 S
C2853 C2851 1.389 . S
C2853 C2854 1.524 . S
C2854 C2853 1.524 . S
C2854 C2855 1.397 . S
C2854 C2859 1.363 . S
C2855 H2826 0.950 . S
C2855 C2854 1.397 . S
C2855 C2856 1.334 . S
C2856 H2827 0.950 . S
C2856 C2855 1.334 . S
C2856 C2857 1.287 . S
C2857 C2856 1.287 . S
C2857 C2858 1.524 . S
C2857 H2860 0.999 . S
C2858 H2828 0.950 . S
C2858 C2857 1.524 . S
C2858 C2859 1.415 . S
C2859 H2829 0.950 . S
C2859 C2854 1.363 . S
C2859 C2858 1.415 . S
H2860 C2857 0.999 . S
H2861 C2842 0.913 . S
C631 C5 1.040 . S
C646 C9 1.035 . S
C681 C39 1.092 . S
C696 C43 1.092 . S
C731 C77 1.043 . S
C746 C73 1.045 . S
C781 C111 1.042 . S
C796 C107 1.045 . S
C831 C141 1.087 . S
C846 C145 1.087 . S
C881 C175 1.088 . S
C896 C179 1.089 . S
C931 C213 0.988 . S
C946 C209 0.996 . S
C981 C247 1.089 . S
C996 C243 1.087 . S
C1031 C281 1.041 . S
C1046 C277 1.046 . S
C1081 C311 1.003 . S
C1096 C315 0.995 . S
C1131 C349 1.098 . S
C1146 C345 1.097 . S
C1181 C383 1.040 . S
C1196 C379 1.042 . S
C1231 C413 0.992 . S
C1246 C417 0.983 . S
C1281 C447 1.036 . S
C1296 C451 1.031 1_554 S
C1331 C481 1.040 . S
C1346 C485 1.036 . S
C1381 C515 0.997 . S
C1396 C519 0.989 . S
C1431 C553 1.043 . S
C1446 C549 1.047 . S
C1481 C583 0.995 . S
C1496 C587 0.987 . S
C1531 C122 1.519 . S
C1546 C20 1.516 . S
C1581 C156 1.458 . S
C1596 C54 1.457 . S
C1631 C190 1.454 . S
C1646 C88 1.458 . S
C1681 C224 1.245 . S
C1696 C326 1.240 . S
C1731 C360 1.400 . S
C1746 C258 1.407 . S
C1781 C394 1.347 . S
C1796 C292 1.340 . S
C1831 C530 1.463 . S
C1846 C428 1.462 . S
C1881 C462 1.428 . S
C1896 C564 1.436 . S
C1931 C496 1.436 . S
C1946 C598 1.429 . S
C1981 C305 1.307 . S
C1996 C2 1.282 . S
C2031 C237 1.267 . S
C2046 C36 1.252 . S
C2081 C101 1.284 . S
C2096 C271 1.284 . S
C2131 C70 1.202 . S
C2146 C410 1.178 . S
C2181 C33 1.529 . S
C2196 C444 1.465 . S
C2231 C509 1.384 . S
C2246 C67 1.396 . S
C2281 C104 1.263 . S
C2296 C580 1.221 . S
C2331 C138 1.301 . S
C2346 C543 1.321 . S
C2381 C577 1.359 . S
C2396 C203 1.380 . S
C2431 C339 1.282 . S
C2446 C172 1.268 . S
C2481 C135 1.219 . S
C2496 C373 1.218 . S
C2531 C169 1.294 . S
C2546 C407 1.284 . S
C2581 C206 1.068 . S
C2596 C478 1.067 . S
C2631 C240 1.319 1_545 S
C2646 C441 1.331 . S
C2681 C274 1.239 . S
C2696 C475 1.250 . S
C2731 C512 1.186 . S
C2746 C376 1.205 . S
C2781 C546 1.037 . S
C2796 C308 1.038 . S
C2831 C611 1.350 . S
C2846 C342 1.345 . S
